# Generated by pormake.
# Topology umk, (4)-cn, num edge types: 1
# Building blocks:
#     Node 0, Type 0, BuildingBlock: NAHDIM_clean_sbu_0, # of connection points: 4
#     Node 1, Type 0, BuildingBlock: NAHDIM_clean_sbu_0, # of connection points: 4
#     Node 2, Type 0, BuildingBlock: NAHDIM_clean_sbu_0, # of connection points: 4
#     Node 3, Type 0, BuildingBlock: NAHDIM_clean_sbu_0, # of connection points: 4
#     Node 4, Type 0, BuildingBlock: NAHDIM_clean_sbu_0, # of connection points: 4
#     Node 5, Type 0, BuildingBlock: NAHDIM_clean_sbu_0, # of connection points: 4
#     Node 6, Type 0, BuildingBlock: NAHDIM_clean_sbu_0, # of connection points: 4
#     Node 7, Type 0, BuildingBlock: NAHDIM_clean_sbu_0, # of connection points: 4
#     Node 8, Type 0, BuildingBlock: NAHDIM_clean_sbu_0, # of connection points: 4
#     Node 9, Type 0, BuildingBlock: NAHDIM_clean_sbu_0, # of connection points: 4
#     Node 10, Type 0, BuildingBlock: NAHDIM_clean_sbu_0, # of connection points: 4
#     Node 11, Type 0, BuildingBlock: NAHDIM_clean_sbu_0, # of connection points: 4
#     Node 12, Type 0, BuildingBlock: NAHDIM_clean_sbu_0, # of connection points: 4
#     Node 13, Type 0, BuildingBlock: NAHDIM_clean_sbu_0, # of connection points: 4
#     Node 14, Type 0, BuildingBlock: NAHDIM_clean_sbu_0, # of connection points: 4
#     Node 15, Type 0, BuildingBlock: NAHDIM_clean_sbu_0, # of connection points: 4
#     Node 16, Type 0, BuildingBlock: NAHDIM_clean_sbu_0, # of connection points: 4
#     Node 17, Type 0, BuildingBlock: NAHDIM_clean_sbu_0, # of connection points: 4
#     Node 18, Type 0, BuildingBlock: NAHDIM_clean_sbu_0, # of connection points: 4
#     Node 19, Type 0, BuildingBlock: NAHDIM_clean_sbu_0, # of connection points: 4
#     Node 20, Type 0, BuildingBlock: NAHDIM_clean_sbu_0, # of connection points: 4
#     Node 21, Type 0, BuildingBlock: NAHDIM_clean_sbu_0, # of connection points: 4
#     Node 22, Type 0, BuildingBlock: NAHDIM_clean_sbu_0, # of connection points: 4
#     Node 23, Type 0, BuildingBlock: NAHDIM_clean_sbu_0, # of connection points: 4
#     Edge 24, Type (0, 0), BuildingBlock: AJUNOK_clean_linker_0, # of connection points: 2
#     Edge 25, Type (0, 0), BuildingBlock: AJUNOK_clean_linker_0, # of connection points: 2
#     Edge 26, Type (0, 0), BuildingBlock: AJUNOK_clean_linker_0, # of connection points: 2
#     Edge 27, Type (0, 0), BuildingBlock: AJUNOK_clean_linker_0, # of connection points: 2
#     Edge 28, Type (0, 0), BuildingBlock: AJUNOK_clean_linker_0, # of connection points: 2
#     Edge 29, Type (0, 0), BuildingBlock: AJUNOK_clean_linker_0, # of connection points: 2
#     Edge 30, Type (0, 0), BuildingBlock: AJUNOK_clean_linker_0, # of connection points: 2
#     Edge 31, Type (0, 0), BuildingBlock: AJUNOK_clean_linker_0, # of connection points: 2
#     Edge 32, Type (0, 0), BuildingBlock: AJUNOK_clean_linker_0, # of connection points: 2
#     Edge 33, Type (0, 0), BuildingBlock: AJUNOK_clean_linker_0, # of connection points: 2
#     Edge 34, Type (0, 0), BuildingBlock: AJUNOK_clean_linker_0, # of connection points: 2
#     Edge 35, Type (0, 0), BuildingBlock: AJUNOK_clean_linker_0, # of connection points: 2
#     Edge 36, Type (0, 0), BuildingBlock: AJUNOK_clean_linker_0, # of connection points: 2
#     Edge 37, Type (0, 0), BuildingBlock: AJUNOK_clean_linker_0, # of connection points: 2
#     Edge 38, Type (0, 0), BuildingBlock: AJUNOK_clean_linker_0, # of connection points: 2
#     Edge 39, Type (0, 0), BuildingBlock: AJUNOK_clean_linker_0, # of connection points: 2
#     Edge 40, Type (0, 0), BuildingBlock: AJUNOK_clean_linker_0, # of connection points: 2
#     Edge 41, Type (0, 0), BuildingBlock: AJUNOK_clean_linker_0, # of connection points: 2
#     Edge 42, Type (0, 0), BuildingBlock: AJUNOK_clean_linker_0, # of connection points: 2
#     Edge 43, Type (0, 0), BuildingBlock: AJUNOK_clean_linker_0, # of connection points: 2
#     Edge 44, Type (0, 0), BuildingBlock: AJUNOK_clean_linker_0, # of connection points: 2
#     Edge 45, Type (0, 0), BuildingBlock: AJUNOK_clean_linker_0, # of connection points: 2
#     Edge 46, Type (0, 0), BuildingBlock: AJUNOK_clean_linker_0, # of connection points: 2
#     Edge 47, Type (0, 0), BuildingBlock: AJUNOK_clean_linker_0, # of connection points: 2
#     Edge 48, Type (0, 0), BuildingBlock: AJUNOK_clean_linker_0, # of connection points: 2
#     Edge 49, Type (0, 0), BuildingBlock: AJUNOK_clean_linker_0, # of connection points: 2
#     Edge 50, Type (0, 0), BuildingBlock: AJUNOK_clean_linker_0, # of connection points: 2
#     Edge 51, Type (0, 0), BuildingBlock: AJUNOK_clean_linker_0, # of connection points: 2
#     Edge 52, Type (0, 0), BuildingBlock: AJUNOK_clean_linker_0, # of connection points: 2
#     Edge 53, Type (0, 0), BuildingBlock: AJUNOK_clean_linker_0, # of connection points: 2
#     Edge 54, Type (0, 0), BuildingBlock: AJUNOK_clean_linker_0, # of connection points: 2
#     Edge 55, Type (0, 0), BuildingBlock: AJUNOK_clean_linker_0, # of connection points: 2
#     Edge 56, Type (0, 0), BuildingBlock: AJUNOK_clean_linker_0, # of connection points: 2
#     Edge 57, Type (0, 0), BuildingBlock: AJUNOK_clean_linker_0, # of connection points: 2
#     Edge 58, Type (0, 0), BuildingBlock: AJUNOK_clean_linker_0, # of connection points: 2
#     Edge 59, Type (0, 0), BuildingBlock: AJUNOK_clean_linker_0, # of connection points: 2
#     Edge 60, Type (0, 0), BuildingBlock: AJUNOK_clean_linker_0, # of connection points: 2
#     Edge 61, Type (0, 0), BuildingBlock: AJUNOK_clean_linker_0, # of connection points: 2
#     Edge 62, Type (0, 0), BuildingBlock: AJUNOK_clean_linker_0, # of connection points: 2
#     Edge 63, Type (0, 0), BuildingBlock: AJUNOK_clean_linker_0, # of connection points: 2
#     Edge 64, Type (0, 0), BuildingBlock: AJUNOK_clean_linker_0, # of connection points: 2
#     Edge 65, Type (0, 0), BuildingBlock: AJUNOK_clean_linker_0, # of connection points: 2
#     Edge 66, Type (0, 0), BuildingBlock: AJUNOK_clean_linker_0, # of connection points: 2
#     Edge 67, Type (0, 0), BuildingBlock: AJUNOK_clean_linker_0, # of connection points: 2
#     Edge 68, Type (0, 0), BuildingBlock: AJUNOK_clean_linker_0, # of connection points: 2
#     Edge 69, Type (0, 0), BuildingBlock: AJUNOK_clean_linker_0, # of connection points: 2
#     Edge 70, Type (0, 0), BuildingBlock: AJUNOK_clean_linker_0, # of connection points: 2
#     Edge 71, Type (0, 0), BuildingBlock: AJUNOK_clean_linker_0, # of connection points: 2
# Relax obj value: 0.113
# Max RMSD: 0.134
# Mean RMSD: 0.134
data_MOF--net-umk--node1-NAHDIM_clean_sbu_0--edge1-AJUNOK_clean_linker_0
_symmetry_space_group_name_H-M    P1
_symmetry_Int_Tables_number       1
_symmetry_cell_setting            triclinic
loop_
_symmetry_equiv_pos_as_xyz
'x, y, z'
_cell_length_a     49.641262
_cell_length_b     49.654518
_cell_length_c     30.85809
_cell_angle_alpha  89.963578
_cell_angle_beta   90.000327
_cell_angle_gamma 120.0039
loop_
_atom_site_label
_atom_site_type_symbol
_atom_site_fract_x
_atom_site_fract_y
_atom_site_fract_z
_atom_type_partial_charge
C0 C 0.27776 0.45769 0.05389 0.0
O1 O 0.29258 0.48201 0.07922 0.0
O2 O 0.33121 0.46062 0.13778 0.0
Zn3 Zn 0.3319 0.45451 0.07292 0.0
O4 O 0.36355 0.49394 0.04346 0.0
C5 C 0.33599 0.39908 0.08682 0.0
O6 O 0.31614 0.39436 0.11809 0.0
O7 O 0.28999 0.44099 0.04636 0.0
C8 C 0.39161 0.50804 0.05634 0.0
O9 O 0.39936 0.49698 0.08979 0.0
C10 C 0.34032 0.48666 0.1563 0.0
O11 O 0.35034 0.51176 0.13239 0.0
O12 O 0.34496 0.42274 0.06256 0.0
C13 C 0.81183 0.29705 0.54309 0.0
O14 O 0.81182 0.32325 0.54852 0.0
O15 O 0.87089 0.34038 0.63918 0.0
Zn16 Zn 0.8732 0.33639 0.57415 0.0
O17 O 0.87537 0.37297 0.54201 0.0
C18 C 0.9257 0.32769 0.58951 0.0
O19 O 0.90914 0.31225 0.62338 0.0
O20 O 0.83645 0.29633 0.55217 0.0
C21 C 0.86447 0.38988 0.5551 0.0
O22 O 0.8508 0.38424 0.59313 0.0
C23 C 0.84655 0.33091 0.66217 0.0
O24 O 0.81926 0.31842 0.64312 0.0
O25 O 0.91394 0.33816 0.56236 0.0
C26 C 0.56494 0.83928 0.04454 0.0
O27 O 0.56949 0.84169 0.08664 0.0
O28 O 0.54386 0.87673 0.12316 0.0
Zn29 Zn 0.5474 0.88596 0.05915 0.0
O30 O 0.50767 0.88252 0.03712 0.0
C31 C 0.6046 0.94413 0.07458 0.0
O32 O 0.60822 0.92851 0.10623 0.0
O33 O 0.55598 0.85627 0.02596 0.0
C34 C 0.50289 0.90508 0.04344 0.0
O35 O 0.52352 0.92926 0.06549 0.0
C36 C 0.51828 0.86066 0.1431 0.0
O37 O 0.49207 0.84899 0.12133 0.0
O38 O 0.58126 0.93013 0.04964 0.0
C39 C 0.7337 0.56777 0.54558 0.0
O40 O 0.73762 0.57196 0.58763 0.0
O41 O 0.6724 0.54015 0.62705 0.0
Zn42 Zn 0.66841 0.54791 0.56369 0.0
O43 O 0.63356 0.50876 0.53787 0.0
C44 C 0.6665 0.60403 0.58449 0.0
O45 O 0.6857 0.60674 0.6157 0.0
O46 O 0.70693 0.55867 0.52959 0.0
C47 C 0.62073 0.50957 0.50264 0.0
O48 O 0.63073 0.53644 0.48311 0.0
C49 C 0.64709 0.52454 0.64785 0.0
O50 O 0.62073 0.51469 0.627 0.0
O51 O 0.65701 0.58133 0.55835 0.0
C52 C 0.18834 0.70008 0.03686 0.0
O53 O 0.188 0.67364 0.04177 0.0
O54 O 0.13173 0.66087 0.13899 0.0
Zn55 Zn 0.12823 0.66322 0.07409 0.0
O56 O 0.12588 0.62538 0.04573 0.0
C57 C 0.07291 0.66817 0.08856 0.0
O58 O 0.08577 0.67951 0.12636 0.0
O59 O 0.16481 0.70179 0.04928 0.0
C60 C 0.09997 0.60209 0.03481 0.0
O61 O 0.07417 0.60208 0.04418 0.0
C62 C 0.15683 0.67095 0.16038 0.0
O63 O 0.18346 0.68384 0.1395 0.0
O64 O 0.08795 0.66199 0.06083 0.0
C65 C 0.44696 0.17445 0.54889 0.0
O66 O 0.46975 0.18367 0.57703 0.0
O67 O 0.44626 0.12243 0.63401 0.0
Zn68 Zn 0.44256 0.11664 0.56891 0.0
O69 O 0.4824 0.1238 0.54159 0.0
C70 C 0.38712 0.0566 0.58071 0.0
O71 O 0.38216 0.07049 0.61343 0.0
O72 O 0.43059 0.14562 0.54065 0.0
C73 C 0.49752 0.11148 0.55667 0.0
O74 O 0.48766 0.09462 0.59211 0.0
C75 C 0.47107 0.13875 0.65552 0.0
O76 O 0.49759 0.15456 0.63474 0.0
O77 O 0.41074 0.07221 0.55676 0.0
C78 C 0.56289 0.73647 0.95164 0.0
O79 O 0.56782 0.73678 0.90979 0.0
O80 O 0.53885 0.6721 0.8803 0.0
Zn81 Zn 0.5448 0.67122 0.94496 0.0
O82 O 0.50785 0.63615 0.97499 0.0
C83 C 0.58064 0.64336 0.92906 0.0
O84 O 0.55846 0.63008 0.89998 0.0
O85 O 0.55371 0.71138 0.97272 0.0
C86 C 0.48599 0.61223 0.95685 0.0
O87 O 0.48565 0.60979 0.91445 0.0
C88 C 0.51714 0.6727 0.85934 0.0
O89 O 0.49424 0.67275 0.88064 0.0
O90 O 0.58057 0.66363 0.95407 0.0
C91 C 0.82279 0.55925 0.4327 0.0
O92 O 0.81399 0.54979 0.39275 0.0
O93 O 0.85559 0.53467 0.3507 0.0
Zn94 Zn 0.86793 0.54039 0.41389 0.0
O95 O 0.85839 0.50046 0.44386 0.0
C96 C 0.93144 0.58424 0.44537 0.0
O97 O 0.91873 0.5842 0.48272 0.0
O98 O 0.8463 0.55869 0.44782 0.0
C99 C 0.87729 0.49024 0.44298 0.0
O100 O 0.90238 0.5046 0.41883 0.0
C101 C 0.84819 0.51065 0.32792 0.0
O102 O 0.84578 0.48578 0.34668 0.0
O103 O 0.91413 0.56843 0.41409 0.0
C104 C 0.29335 0.80831 0.95726 0.0
O105 O 0.31712 0.80714 0.94066 0.0
O106 O 0.33193 0.86477 0.86535 0.0
Zn107 Zn 0.33121 0.8704 0.92994 0.0
O108 O 0.36992 0.87349 0.95657 0.0
C109 C 0.32245 0.92372 0.91593 0.0
O110 O 0.30819 0.90918 0.88022 0.0
O111 O 0.29358 0.834 0.9562 0.0
C112 C 0.39281 0.89972 0.9674 0.0
O113 O 0.39125 0.92496 0.96026 0.0
C114 C 0.35495 0.8849 0.84353 0.0
O115 O 0.37772 0.90848 0.86404 0.0
O116 O 0.33189 0.91046 0.94206 0.0
C117 C 0.43923 0.27056 0.4507 0.0
O118 O 0.42276 0.26487 0.41509 0.0
O119 O 0.464 0.32891 0.36392 0.0
Zn120 Zn 0.46345 0.33573 0.42813 0.0
O121 O 0.50396 0.37225 0.44703 0.0
C122 C 0.40529 0.33547 0.41853 0.0
O123 O 0.4006 0.31573 0.38714 0.0
O124 O 0.45726 0.29858 0.46192 0.0
C125 C 0.51284 0.39938 0.43259 0.0
O126 O 0.49562 0.40308 0.4035 0.0
C127 C 0.48794 0.33324 0.34317 0.0
O128 O 0.51394 0.34199 0.36448 0.0
O129 O 0.42993 0.34596 0.44106 0.0
C130 C 0.16937 0.43904 0.95607 0.0
O131 O 0.1592 0.41953 0.92333 0.0
O132 O 0.13248 0.45838 0.86341 0.0
Zn133 Zn 0.12467 0.45805 0.92761 0.0
O134 O 0.12431 0.49675 0.94613 0.0
C135 C 0.06964 0.39779 0.91607 0.0
O136 O 0.08592 0.39553 0.88419 0.0
O137 O 0.15778 0.45638 0.96274 0.0
C138 C 0.09933 0.49795 0.94648 0.0
O139 O 0.0737 0.47409 0.93168 0.0
C140 C 0.14334 0.4822 0.83909 0.0
O141 O 0.1519 0.50946 0.85646 0.0
O142 O 0.08233 0.42157 0.94046 0.0
C143 C 0.70238 0.18708 0.47503 0.0
O144 O 0.67706 0.18786 0.46515 0.0
O145 O 0.66122 0.12957 0.37991 0.0
Zn146 Zn 0.66253 0.1263 0.44534 0.0
O147 O 0.62681 0.12755 0.47437 0.0
C148 C 0.65943 0.06647 0.43489 0.0
O149 O 0.67009 0.07691 0.39583 0.0
O150 O 0.70261 0.16187 0.46896 0.0
C151 C 0.59997 0.11731 0.45798 0.0
O152 O 0.59455 0.10623 0.41833 0.0
C153 C 0.65482 0.14793 0.3595 0.0
O154 O 0.64811 0.16643 0.38157 0.0
O155 O 0.65657 0.08436 0.46156 0.0
C156 C 0.73468 0.56099 0.93555 0.0
O157 O 0.73681 0.56421 0.89323 0.0
O158 O 0.67244 0.52818 0.85719 0.0
Zn159 Zn 0.66866 0.53656 0.92019 0.0
O160 O 0.63452 0.49834 0.94918 0.0
C161 C 0.66047 0.58971 0.94703 0.0
O162 O 0.6786 0.59408 0.98043 0.0
O163 O 0.70827 0.55062 0.9534 0.0
C164 C 0.6284 0.5007 0.98854 0.0
O165 O 0.64541 0.52731 0.00854 0.0
C166 C 0.64717 0.51613 0.83585 0.0
O167 O 0.6212 0.50833 0.8567 0.0
O168 O 0.65503 0.56826 0.92009 0.0
C169 C 0.18679 0.69693 0.4737 0.0
O170 O 0.18859 0.67155 0.46938 0.0
O171 O 0.13208 0.65638 0.37127 0.0
Zn172 Zn 0.12725 0.65697 0.43624 0.0
O173 O 0.12528 0.6195 0.46484 0.0
C174 C 0.06389 0.63104 0.42549 0.0
O175 O 0.07115 0.61486 0.39915 0.0
O176 O 0.16207 0.69648 0.46173 0.0
C177 C 0.13435 0.60207 0.44795 0.0
O178 O 0.14676 0.60866 0.40906 0.0
C179 C 0.15722 0.669 0.34963 0.0
O180 O 0.1839 0.68365 0.37027 0.0
O181 O 0.08545 0.65299 0.44715 0.0
C182 C 0.44747 0.17388 0.94987 0.0
O183 O 0.46749 0.18268 0.91774 0.0
O184 O 0.44635 0.12217 0.86654 0.0
Zn185 Zn 0.44319 0.11549 0.93135 0.0
O186 O 0.48318 0.12084 0.95673 0.0
C187 C 0.38509 0.0579 0.91878 0.0
O188 O 0.38146 0.07322 0.88672 0.0
O189 O 0.43331 0.14548 0.96109 0.0
C190 C 0.48638 0.09743 0.96433 0.0
O191 O 0.46379 0.06963 0.95354 0.0
C192 C 0.47143 0.13528 0.84475 0.0
O193 O 0.49814 0.14657 0.86516 0.0
O194 O 0.40904 0.07176 0.94269 0.0
C195 C 0.27473 0.43533 0.45464 0.0
O196 O 0.26944 0.41356 0.42618 0.0
O197 O 0.33686 0.46543 0.36572 0.0
Zn198 Zn 0.34056 0.46257 0.43046 0.0
O199 O 0.37697 0.5019 0.45423 0.0
C200 C 0.33873 0.40364 0.41829 0.0
O201 O 0.32172 0.40126 0.38431 0.0
O202 O 0.30245 0.45717 0.46076 0.0
C203 C 0.4023 0.5031 0.46485 0.0
O204 O 0.40541 0.4787 0.45785 0.0
C205 C 0.34492 0.49065 0.34548 0.0
O206 O 0.35586 0.51662 0.3676 0.0
O207 O 0.34772 0.4269 0.44325 0.0
C208 C 0.82014 0.28524 0.97089 0.0
O209 O 0.81414 0.30761 0.96217 0.0
O210 O 0.87272 0.33094 0.87125 0.0
Zn211 Zn 0.87848 0.33059 0.93604 0.0
O212 O 0.8752 0.3651 0.96538 0.0
C213 C 0.93485 0.32929 0.91934 0.0
O214 O 0.91816 0.31103 0.88748 0.0
O215 O 0.84697 0.28943 0.96201 0.0
C216 C 0.88491 0.39135 0.94729 0.0
O217 O 0.89674 0.39584 0.9081 0.0
C218 C 0.85134 0.33279 0.85121 0.0
O219 O 0.8295 0.33414 0.87349 0.0
O220 O 0.92206 0.33911 0.94576 0.0
C221 C 0.52452 0.81436 0.45316 0.0
O222 O 0.49914 0.81159 0.43565 0.0
O223 O 0.54132 0.86517 0.35311 0.0
Zn224 Zn 0.54533 0.87312 0.4174 0.0
O225 O 0.50709 0.87214 0.44136 0.0
C226 C 0.58581 0.93294 0.45812 0.0
O227 O 0.56594 0.92115 0.49033 0.0
O228 O 0.54986 0.83995 0.44865 0.0
C229 C 0.49794 0.891 0.43095 0.0
O230 O 0.51404 0.91287 0.40236 0.0
C231 C 0.51612 0.85322 0.33161 0.0
O232 O 0.48972 0.84371 0.35221 0.0
O233 O 0.58222 0.916 0.42534 0.0
C234 C 0.44129 0.27044 0.04896 0.0
O235 O 0.42857 0.26545 0.0876 0.0
O236 O 0.46574 0.32908 0.13295 0.0
Zn237 Zn 0.46459 0.33584 0.0688 0.0
O238 O 0.50533 0.37143 0.04842 0.0
C239 C 0.40666 0.33464 0.08109 0.0
O240 O 0.40217 0.31276 0.10893 0.0
O241 O 0.45669 0.29815 0.0349 0.0
C242 C 0.51848 0.39754 0.06763 0.0
O243 O 0.50527 0.40115 0.10232 0.0
C244 C 0.48922 0.33272 0.15425 0.0
O245 O 0.51533 0.34086 0.13358 0.0
O246 O 0.43137 0.34698 0.05844 0.0
C247 C 0.17678 0.44468 0.54531 0.0
O248 O 0.18514 0.47039 0.56713 0.0
O249 O 0.1272 0.44595 0.63169 0.0
Zn250 Zn 0.11957 0.43887 0.56728 0.0
O251 O 0.12834 0.47819 0.53655 0.0
C252 C 0.06022 0.38515 0.58602 0.0
O253 O 0.07615 0.38226 0.61786 0.0
O254 O 0.14796 0.42523 0.54136 0.0
C255 C 0.11267 0.49159 0.54348 0.0
O256 O 0.09045 0.47991 0.57272 0.0
C257 C 0.14187 0.47216 0.65053 0.0
O258 O 0.15432 0.49766 0.62707 0.0
O259 O 0.0744 0.407 0.55874 0.0
C260 C 0.72203 0.17232 0.05176 0.0
O261 O 0.72634 0.14989 0.06628 0.0
O262 O 0.66004 0.13525 0.14703 0.0
Zn263 Zn 0.65794 0.13285 0.08172 0.0
O264 O 0.61946 0.13237 0.05914 0.0
C265 C 0.66486 0.07818 0.087 0.0
O266 O 0.68041 0.09156 0.12252 0.0
O267 O 0.69529 0.16964 0.05535 0.0
C268 C 0.59431 0.10671 0.05394 0.0
O269 O 0.59332 0.08083 0.06593 0.0
C270 C 0.64995 0.1494 0.17032 0.0
O271 O 0.63747 0.16424 0.15132 0.0
O272 O 0.655 0.09252 0.06365 0.0
C273 C 0.52135 0.71163 0.54927 0.0
O274 O 0.49511 0.68832 0.56363 0.0
O275 O 0.53916 0.67464 0.64834 0.0
Zn276 Zn 0.54172 0.67211 0.58332 0.0
O277 O 0.50329 0.63489 0.55936 0.0
C278 C 0.60018 0.67247 0.59458 0.0
O279 O 0.60205 0.68734 0.63065 0.0
O280 O 0.54624 0.71066 0.55466 0.0
C281 C 0.50183 0.60865 0.55675 0.0
O282 O 0.52486 0.60574 0.57242 0.0
C283 C 0.51477 0.66746 0.6702 0.0
O284 O 0.48828 0.65781 0.64982 0.0
O285 O 0.57771 0.66575 0.56885 0.0
C286 C 0.83274 0.56419 0.04204 0.0
O287 O 0.82986 0.56262 0.08442 0.0
O288 O 0.86986 0.54105 0.12096 0.0
Zn289 Zn 0.88084 0.54784 0.05726 0.0
O290 O 0.87724 0.50981 0.02845 0.0
C291 C 0.93857 0.60417 0.07791 0.0
O292 O 0.9221 0.60652 0.10948 0.0
O293 O 0.85313 0.55943 0.02449 0.0
C294 C 0.88649 0.4924 0.04492 0.0
O295 O 0.89786 0.49796 0.08444 0.0
C296 C 0.85083 0.51559 0.13932 0.0
O297 O 0.836 0.49018 0.11596 0.0
O298 O 0.92544 0.58157 0.05158 0.0
C299 C 0.29447 0.80704 0.54426 0.0
O300 O 0.31635 0.8036 0.56297 0.0
O301 O 0.3366 0.86312 0.63203 0.0
Zn302 Zn 0.33725 0.86878 0.5674 0.0
O303 O 0.37437 0.86834 0.54155 0.0
C304 C 0.3294 0.92246 0.57915 0.0
O305 O 0.3112 0.90604 0.61128 0.0
O306 O 0.29804 0.83416 0.54171 0.0
C307 C 0.38684 0.88361 0.50711 0.0
O308 O 0.37499 0.89926 0.4888 0.0
C309 C 0.35879 0.88356 0.65465 0.0
O310 O 0.38203 0.90716 0.63477 0.0
O311 O 0.34168 0.91057 0.55553 0.0
C312 C 0.33097 0.46139 0.22925 0.0
C313 C 0.34071 0.48852 0.20445 0.0
C314 C 0.33209 0.46235 0.27461 0.0
C315 C 0.343 0.49051 0.29734 0.0
H316 H 0.32265 0.43909 0.21359 0.0
H317 H 0.32457 0.44075 0.2919 0.0
S318 S 0.37034 0.56821 0.24797 0.0
N319 N 0.36097 0.54443 0.20622 0.0
N320 N 0.36307 0.54624 0.29143 0.0
C321 C 0.35239 0.51782 0.27304 0.0
C322 C 0.35124 0.51683 0.2267 0.0
C323 C 0.82326 0.32827 0.73525 0.0
C324 C 0.84883 0.33261 0.71022 0.0
C325 C 0.82443 0.32878 0.7807 0.0
C326 C 0.85109 0.33327 0.80304 0.0
H327 H 0.80207 0.32443 0.71967 0.0
H328 H 0.80404 0.32519 0.7984 0.0
S329 S 0.92463 0.34599 0.75276 0.0
N330 N 0.90188 0.34192 0.71133 0.0
N331 N 0.90399 0.34261 0.79645 0.0
C332 C 0.87695 0.33783 0.7784 0.0
C333 C 0.87586 0.3376 0.73212 0.0
C334 C 0.48958 0.84401 0.25957 0.0
C335 C 0.51691 0.8528 0.28346 0.0
C336 C 0.49011 0.84588 0.21419 0.0
C337 C 0.518 0.85671 0.19082 0.0
H338 H 0.46763 0.83628 0.27599 0.0
H339 H 0.46855 0.83952 0.19747 0.0
S340 S 0.59556 0.87978 0.23746 0.0
N341 N 0.57237 0.87068 0.27988 0.0
N342 N 0.57332 0.87426 0.19484 0.0
C343 C 0.54531 0.86451 0.21416 0.0
C344 C 0.54478 0.86252 0.26035 0.0
C345 C 0.67501 0.53327 0.76456 0.0
C346 C 0.6473 0.51488 0.78779 0.0
C347 C 0.67493 0.53554 0.71922 0.0
C348 C 0.64714 0.51945 0.69531 0.0
H349 H 0.69681 0.54699 0.78158 0.0
H350 H 0.6967 0.5508 0.70299 0.0
S351 S 0.56897 0.46482 0.74028 0.0
N352 N 0.59184 0.47795 0.78312 0.0
N353 N 0.59164 0.48207 0.69817 0.0
C354 C 0.61955 0.49969 0.71801 0.0
C355 C 0.61964 0.49745 0.76413 0.0
C356 C 0.18418 0.68097 0.27755 0.0
C357 C 0.15631 0.66814 0.30144 0.0
C358 C 0.18408 0.68142 0.23209 0.0
C359 C 0.1561 0.66912 0.20853 0.0
H360 H 0.20639 0.69097 0.29401 0.0
H361 H 0.20622 0.69178 0.21539 0.0
S362 S 0.07649 0.63226 0.25546 0.0
N363 N 0.09976 0.64234 0.29788 0.0
N364 N 0.09957 0.64322 0.21275 0.0
C365 C 0.12797 0.65587 0.232 0.0
C366 C 0.12808 0.65536 0.2783 0.0
C367 C 0.49835 0.15276 0.77287 0.0
C368 C 0.47048 0.13683 0.79664 0.0
C369 C 0.49826 0.15368 0.72742 0.0
C370 C 0.4703 0.13862 0.70373 0.0
H371 H 0.52056 0.16448 0.7894 0.0
H372 H 0.52041 0.166 0.71081 0.0
S373 S 0.39071 0.09427 0.75032 0.0
N374 N 0.41396 0.10611 0.79284 0.0
N375 N 0.4138 0.10782 0.70773 0.0
C376 C 0.44218 0.12295 0.72709 0.0
C377 C 0.44227 0.12207 0.77339 0.0
C378 C 0.49033 0.66572 0.74217 0.0
C379 C 0.5162 0.66952 0.71832 0.0
C380 C 0.49095 0.6672 0.78762 0.0
C381 C 0.51739 0.67231 0.81116 0.0
H382 H 0.46933 0.66156 0.72567 0.0
H383 H 0.47036 0.66394 0.80439 0.0
S384 S 0.59153 0.68405 0.7643 0.0
N385 N 0.56922 0.67891 0.72191 0.0
N386 N 0.57039 0.68163 0.80694 0.0
C387 C 0.54352 0.67634 0.7877 0.0
C388 C 0.54293 0.67497 0.74145 0.0
C389 C 0.83667 0.48499 0.2549 0.0
C390 C 0.84593 0.51194 0.27994 0.0
C391 C 0.83722 0.48613 0.20943 0.0
C392 C 0.84741 0.51434 0.18716 0.0
H393 H 0.82952 0.46286 0.27046 0.0
H394 H 0.83063 0.46491 0.19168 0.0
S395 S 0.87151 0.59113 0.23701 0.0
N396 N 0.86354 0.56739 0.27859 0.0
N397 N 0.86487 0.56947 0.19341 0.0
C398 C 0.85564 0.54124 0.21167 0.0
C399 C 0.85479 0.54006 0.25793 0.0
C400 C 0.38171 0.9062 0.72691 0.0
C401 C 0.35769 0.88214 0.70277 0.0
C402 C 0.38074 0.90655 0.77225 0.0
C403 C 0.3557 0.88287 0.79554 0.0
H404 H 0.40137 0.92527 0.71074 0.0
H405 H 0.39971 0.92587 0.78905 0.0
S406 S 0.28738 0.81371 0.74801 0.0
N407 N 0.30845 0.83334 0.70575 0.0
N408 N 0.30664 0.83402 0.79095 0.0
C409 C 0.33175 0.85829 0.77191 0.0
C410 C 0.33274 0.85792 0.72561 0.0
C411 C 0.51476 0.33973 0.27187 0.0
C412 C 0.48711 0.3306 0.29514 0.0
C413 C 0.51507 0.33956 0.22642 0.0
C414 C 0.48775 0.33027 0.2023 0.0
H415 H 0.53657 0.34773 0.28878 0.0
H416 H 0.53711 0.34747 0.21016 0.0
S417 S 0.4086 0.30177 0.24752 0.0
N418 N 0.43123 0.31021 0.29045 0.0
N419 N 0.4318 0.30988 0.2053 0.0
C420 C 0.4597 0.32008 0.22516 0.0
C421 C 0.45939 0.32025 0.27145 0.0
C422 C 0.15728 0.50312 0.71939 0.0
C423 C 0.14347 0.47397 0.69866 0.0
C424 C 0.15763 0.50553 0.7647 0.0
C425 C 0.1443 0.47891 0.79128 0.0
H426 H 0.16752 0.52437 0.70053 0.0
H427 H 0.16816 0.52854 0.77889 0.0
S428 S 0.10606 0.39691 0.75336 0.0
N429 N 0.11679 0.41779 0.70848 0.0
N430 N 0.11753 0.42231 0.79335 0.0
C431 C 0.13099 0.44958 0.77102 0.0
C432 C 0.13054 0.44712 0.72486 0.0
C433 C 0.64296 0.16526 0.28927 0.0
C434 C 0.65423 0.14805 0.31129 0.0
C435 C 0.64174 0.16558 0.24387 0.0
C436 C 0.65187 0.14881 0.21843 0.0
H437 H 0.63475 0.17851 0.30719 0.0
H438 H 0.63271 0.17912 0.22869 0.0
S439 S 0.68404 0.10035 0.26 0.0
N440 N 0.67614 0.11402 0.30397 0.0
N441 N 0.67392 0.11465 0.21888 0.0
C442 C 0.66342 0.13163 0.24 0.0
C443 C 0.66457 0.13124 0.28629 0.0
C444 C 0.21129 0.42638 0.97267 0.0
C445 C 0.19546 0.44235 0.98352 0.0
C446 C 0.23732 0.43078 0.99633 0.0
C447 C 0.24864 0.4514 0.03173 0.0
H448 H 0.20399 0.41082 0.9451 0.0
H449 H 0.24911 0.4185 0.986 0.0
S450 S 0.21388 0.49666 0.0762 0.0
N451 N 0.19183 0.47803 0.0342 0.0
N452 N 0.24066 0.48629 0.07836 0.0
C453 C 0.23239 0.46667 0.04391 0.0
C454 C 0.20585 0.46215 0.01992 0.0
C455 C 0.75795 0.21526 0.50044 0.0
C456 C 0.72991 0.21514 0.49292 0.0
C457 C 0.78426 0.2417 0.51689 0.0
C458 C 0.7836 0.26909 0.52646 0.0
H459 H 0.75971 0.19483 0.49337 0.0
H460 H 0.80533 0.24066 0.52184 0.0
S461 S 0.71554 0.28062 0.51405 0.0
N462 N 0.70296 0.24473 0.49738 0.0
N463 N 0.75212 0.29412 0.52812 0.0
C464 C 0.75559 0.26916 0.51949 0.0
C465 C 0.72886 0.24231 0.50278 0.0
C466 C 0.56706 0.79011 0.04207 0.0
C467 C 0.56722 0.81492 0.01982 0.0
C468 C 0.56635 0.76526 0.01968 0.0
C469 C 0.56612 0.76433 0.97408 0.0
H470 H 0.56654 0.78933 0.07716 0.0
H471 H 0.56554 0.74641 0.03841 0.0
S472 S 0.56883 0.82478 0.90036 0.0
N473 N 0.56884 0.83791 0.9495 0.0
N474 N 0.56774 0.7913 0.90737 0.0
C475 C 0.5675 0.78957 0.95134 0.0
C476 C 0.56795 0.8148 0.9742 0.0
C477 C 0.75347 0.56478 0.4723 0.0
C478 C 0.7589 0.57002 0.51713 0.0
C479 C 0.77497 0.56284 0.44506 0.0
C480 C 0.80286 0.56602 0.46138 0.0
H481 H 0.73195 0.56116 0.45811 0.0
H482 H 0.76903 0.55773 0.41113 0.0
S483 S 0.83012 0.58375 0.57546 0.0
N484 N 0.79565 0.58114 0.57599 0.0
N485 N 0.83611 0.57752 0.52476 0.0
C486 C 0.80949 0.57306 0.50571 0.0
C487 C 0.78752 0.57505 0.53356 0.0
C488 C 0.24112 0.78172 0.99342 0.0
C489 C 0.26696 0.78035 0.97733 0.0
C490 C 0.21593 0.75575 0.01265 0.0
C491 C 0.2155 0.7273 0.01671 0.0
H492 H 0.24024 0.80303 0.99114 0.0
H493 H 0.19664 0.75809 0.0244 0.0
S494 S 0.27751 0.71136 0.98004 0.0
N495 N 0.29056 0.74805 0.96694 0.0
N496 N 0.24336 0.69937 0.00302 0.0
C497 C 0.24123 0.72559 1.00085 0.0
C498 C 0.26687 0.75204 0.98119 0.0
C499 C 0.45944 0.22922 0.53717 0.0
C500 C 0.44229 0.19775 0.525 0.0
C501 C 0.45762 0.2523 0.51353 0.0
C502 C 0.43863 0.245 0.47652 0.0
H503 H 0.47487 0.2363 0.5649 0.0
H504 H 0.47176 0.27618 0.52411 0.0
S505 S 0.38761 0.16584 0.43208 0.0
N506 N 0.40456 0.16024 0.4744 0.0
N507 N 0.4012 0.20369 0.42985 0.0
C508 C 0.4206 0.2135 0.46461 0.0
C509 C 0.4224 0.18989 0.48886 0.0
C510 C 0.78229 0.56337 0.03322 0.0
C511 C 0.80998 0.5675 0.01469 0.0
C512 C 0.75863 0.5625 0.00748 0.0
C513 C 0.76172 0.56589 0.96212 0.0
H514 H 0.77824 0.55961 0.06776 0.0
H515 H 0.73738 0.55825 0.02333 0.0
S516 S 0.83133 0.58113 0.89811 0.0
N517 N 0.84035 0.57782 0.94855 0.0
N518 N 0.79594 0.57627 0.90019 0.0
C519 C 0.79001 0.57177 0.94339 0.0
C520 C 0.8141 0.57252 0.96964 0.0
C521 C 0.23919 0.72417 0.50852 0.0
C522 C 0.21353 0.72552 0.49177 0.0
C523 C 0.26503 0.75059 0.52546 0.0
C524 C 0.26646 0.77961 0.52624 0.0
H525 H 0.23945 0.70249 0.50869 0.0
H526 H 0.28411 0.74814 0.53784 0.0
S527 S 0.20534 0.79584 0.4865 0.0
N528 N 0.19108 0.75839 0.47717 0.0
N529 N 0.23974 0.80813 0.50893 0.0
C530 C 0.24095 0.78138 0.50966 0.0
C531 C 0.21449 0.75435 0.4925 0.0
C532 C 0.45857 0.22836 0.96022 0.0
C533 C 0.44327 0.19726 0.97433 0.0
C534 C 0.45702 0.25153 0.98399 0.0
C535 C 0.44019 0.2447 0.02307 0.0
H536 H 0.47235 0.23511 0.93082 0.0
H537 H 0.46975 0.27516 0.97188 0.0
S538 S 0.39421 0.16648 0.07302 0.0
N539 N 0.40936 0.1605 0.02898 0.0
N540 N 0.40654 0.20412 0.07374 0.0
C541 C 0.42395 0.21351 0.03698 0.0
C542 C 0.42545 0.18981 0.01262 0.0
C543 C 0.23239 0.46138 0.5311 0.0
C544 C 0.20079 0.43997 0.52359 0.0
C545 C 0.25588 0.45922 0.50921 0.0
C546 C 0.24891 0.43555 0.47869 0.0
H547 H 0.23923 0.48036 0.55376 0.0
H548 H 0.27978 0.47664 0.51604 0.0
S549 S 0.16977 0.37267 0.44832 0.0
N550 N 0.16364 0.39356 0.48441 0.0
N551 N 0.2079 0.38949 0.44312 0.0
C552 C 0.21739 0.41345 0.47151 0.0
C553 C 0.19334 0.41565 0.49398 0.0
C554 C 0.76557 0.25101 0.99626 0.0
C555 C 0.79587 0.25593 0.99117 0.0
C556 C 0.74207 0.22397 0.01573 0.0
C557 C 0.74775 0.20058 0.03113 0.0
H558 H 0.75979 0.26819 0.98509 0.0
H559 H 0.71921 0.22153 0.01871 0.0
S560 S 0.82323 0.20201 0.02599 0.0
N561 N 0.83039 0.23505 0.00327 0.0
N562 N 0.78617 0.18418 0.03997 0.0
C563 C 0.77796 0.20509 0.02625 0.0
C564 C 0.80198 0.23272 0.00625 0.0
C565 C 0.55078 0.78798 0.4883 0.0
C566 C 0.52327 0.78827 0.47829 0.0
C567 C 0.54998 0.76325 0.51144 0.0
C568 C 0.52166 0.73793 0.5258 0.0
H569 H 0.57312 0.80683 0.47776 0.0
H570 H 0.57179 0.764 0.51794 0.0
S571 S 0.44307 0.72827 0.50985 0.0
N572 N 0.46693 0.76152 0.48583 0.0
N573 N 0.4654 0.71525 0.52925 0.0
C574 C 0.494 0.73821 0.51658 0.0
C575 C 0.49481 0.76329 0.49285 0.0
C576 C 0.37449 0.38737 0.05206 0.0
C577 C 0.35076 0.37952 0.08285 0.0
C578 C 0.3915 0.37185 0.05064 0.0
C579 C 0.38552 0.34773 0.07989 0.0
H580 H 0.38077 0.40637 0.02957 0.0
H581 H 0.41012 0.37955 0.02713 0.0
S582 S 0.32366 0.31591 0.16403 0.0
N583 N 0.32051 0.34428 0.1412 0.0
N584 N 0.35246 0.31508 0.13853 0.0
C585 C 0.36078 0.33851 0.10944 0.0
C586 C 0.34344 0.3544 0.11093 0.0
C587 C 0.00927 0.36938 0.5501 0.0
C588 C 0.0257 0.36621 0.58505 0.0
C589 C 0.97681 0.35538 0.55084 0.0
C590 C 0.95931 0.33763 0.58661 0.0
H591 H 0.02162 0.38369 0.52243 0.0
H592 H 0.9655 0.35954 0.52373 0.0
S593 S 0.99075 0.31948 0.68469 0.0
N594 N 0.02173 0.34183 0.65508 0.0
N595 N 0.96075 0.31558 0.65651 0.0
C596 C 0.97525 0.33273 0.62073 0.0
C597 C 0.0084 0.347 0.61994 0.0
C598 C 0.6445 0.99475 0.10699 0.0
C599 C 0.62408 0.97854 0.07269 0.0
C600 C 0.65912 0.02721 0.10996 0.0
C601 C 0.65394 0.04481 0.07873 0.0
H602 H 0.64813 0.98224 0.133 0.0
H603 H 0.6734 0.03836 0.13814 0.0
S604 S 0.6066 0.01406 0.97866 0.0
N605 N 0.60245 0.98292 0.00397 0.0
N606 N 0.62991 0.04385 0.00951 0.0
C607 C 0.63545 0.02911 0.04252 0.0
C608 C 0.62053 0.99603 0.03952 0.0
C609 C 0.65715 0.64446 0.61835 0.0
C610 C 0.65293 0.62474 0.58311 0.0
C611 C 0.64125 0.66112 0.62066 0.0
C612 C 0.62052 0.6588 0.5878 0.0
H613 H 0.67186 0.64613 0.64533 0.0
H614 H 0.64435 0.67491 0.64938 0.0
S615 S 0.60463 0.6138 0.48557 0.0
N616 N 0.62897 0.6064 0.51238 0.0
N617 N 0.59919 0.6377 0.51665 0.0
C618 C 0.61762 0.64072 0.55104 0.0
C619 C 0.63377 0.6237 0.54873 0.0
C620 C 0.9886 0.64226 0.11358 0.0
C621 C 0.97284 0.62471 0.07678 0.0
C622 C 0.02116 0.65789 0.11606 0.0
C623 C 0.03926 0.65672 0.08177 0.0
H624 H 0.97574 0.6427 0.14166 0.0
H625 H 0.03204 0.66974 0.14598 0.0
S626 S 0.00942 0.61835 0.97524 0.0
N627 N 0.9779 0.61025 0.00317 0.0
N628 N 0.03899 0.63976 0.00761 0.0
C629 C 0.02385 0.64125 0.04345 0.0
C630 C 0.99069 0.6252 0.04103 0.0
C631 C 0.34863 0.0041 0.60971 0.0
C632 C 0.36848 0.02231 0.57595 0.0
C633 C 0.33461 0.97161 0.60931 0.0
C634 C 0.33988 0.95605 0.57514 0.0
H635 H 0.345 0.01502 0.63776 0.0
H636 H 0.32076 0.9588 0.63708 0.0
S637 S 0.38565 0.99258 0.47539 0.0
N638 N 0.38955 0.02207 0.5048 0.0
N639 N 0.36322 0.96109 0.50405 0.0
C640 C 0.35785 0.97382 0.53968 0.0
C641 C 0.37213 0.0069 0.54009 0.0
C642 C 0.60658 0.61543 0.90006 0.0
C643 C 0.60398 0.63327 0.93337 0.0
C644 C 0.62594 0.60269 0.90429 0.0
C645 C 0.64351 0.60707 0.94213 0.0
H646 H 0.59307 0.61065 0.8706 0.0
H647 H 0.62643 0.58857 0.87787 0.0
S648 S 0.6468 0.65392 0.03783 0.0
N649 N 0.62203 0.65636 0.0046 0.0
N650 N 0.65847 0.63218 0.01271 0.0
C651 C 0.64225 0.62604 0.97505 0.0
C652 C 0.62248 0.63918 0.97064 0.0
C653 C 0.97782 0.59324 0.40265 0.0
C654 C 0.96569 0.59934 0.44025 0.0
C655 C 0.00964 0.60442 0.39793 0.0
C656 C 0.03089 0.62247 0.43037 0.0
H657 H 0.96256 0.57891 0.37688 0.0
H658 H 0.01756 0.59838 0.36873 0.0
S659 S 0.01178 0.6473 0.53374 0.0
N660 N 0.97781 0.62619 0.50965 0.0
N661 N 0.03795 0.64749 0.50049 0.0
C662 C 0.01944 0.62997 0.4674 0.0
C663 C 0.98678 0.6183 0.47243 0.0
C664 C 0.34543 0.00675 0.88754 0.0
C665 C 0.36462 0.02375 0.9225 0.0
C666 C 0.33013 0.97418 0.88691 0.0
C667 C 0.33333 0.95734 0.92129 0.0
H668 H 0.34351 0.01865 0.85929 0.0
H669 H 0.31703 0.96229 0.85819 0.0
S670 S 0.37635 0.9907 0.02398 0.0
N671 N 0.38268 0.02122 0.99488 0.0
N672 N 0.35377 0.9601 0.99395 0.0
C673 C 0.35036 0.97399 0.95804 0.0
C674 C 0.36605 0.00716 0.95857 0.0
C675 C 0.34727 0.36122 0.39012 0.0
C676 C 0.35181 0.38265 0.42313 0.0
C677 C 0.36341 0.34476 0.39014 0.0
C678 C 0.3848 0.34911 0.42313 0.0
H679 H 0.33219 0.35807 0.36291 0.0
H680 H 0.36011 0.32963 0.36295 0.0
S681 S 0.40142 0.39872 0.52073 0.0
N682 N 0.37649 0.40446 0.49251 0.0
N683 N 0.40686 0.37365 0.49242 0.0
C684 C 0.38793 0.36881 0.45791 0.0
C685 C 0.37143 0.38552 0.45796 0.0
C686 C 0.01891 0.37886 0.95421 0.0
C687 C 0.03562 0.37601 0.91938 0.0
C688 C 0.98637 0.36236 0.95496 0.0
C689 C 0.96906 0.34229 0.92089 0.0
H690 H 0.03099 0.39489 0.98048 0.0
H691 H 0.97473 0.36635 0.98181 0.0
S692 S 0.00156 0.32394 0.82419 0.0
N693 N 0.03238 0.34947 0.85158 0.0
N694 N 0.9712 0.31848 0.85296 0.0
C695 C 0.98545 0.33772 0.8871 0.0
C696 C 0.0187 0.35455 0.88636 0.0
C697 C 0.62527 0.97986 0.41752 0.0
C698 C 0.60875 0.96679 0.4562 0.0
C699 C 0.64314 0.01212 0.41192 0.0
C700 C 0.64533 0.03276 0.44477 0.0
H701 H 0.62332 0.96514 0.39041 0.0
H702 H 0.65413 0.02085 0.38076 0.0
S703 S 0.61083 0.01051 0.55495 0.0
N704 N 0.59885 0.97707 0.52987 0.0
N705 N 0.63249 0.03769 0.51946 0.0
C706 C 0.63086 0.02003 0.48483 0.0
C707 C 0.61257 0.98708 0.4905 0.0
C708 C 0.43334 0.56496 0.96466 0.0
C709 C 0.46186 0.58668 0.98349 0.0
C710 C 0.41049 0.54005 0.98877 0.0
C711 C 0.41547 0.53557 0.03245 0.0
H712 H 0.42858 0.56717 0.93099 0.0
H713 H 0.38901 0.5238 0.97271 0.0
S714 S 0.48591 0.58614 0.09737 0.0
N715 N 0.49354 0.60241 0.0489 0.0
N716 N 0.45076 0.55537 0.0939 0.0
C717 C 0.44375 0.55724 0.05182 0.0
C718 C 0.46687 0.58286 0.02745 0.0
C719 C 0.88764 0.42575 0.49179 0.0
C720 C 0.86669 0.41515 0.52687 0.0
C721 C 0.89056 0.4497 0.46464 0.0
C722 C 0.87239 0.46384 0.47105 0.0
H723 H 0.90229 0.41577 0.48546 0.0
H724 H 0.90732 0.45721 0.43846 0.0
S725 S 0.81317 0.44394 0.55741 0.0
N726 N 0.82691 0.42022 0.566 0.0
N727 N 0.83217 0.46503 0.51482 0.0
C728 C 0.85093 0.45313 0.5056 0.0
C729 C 0.84818 0.4289 0.53355 0.0
C730 C 0.42404 0.87514 0.99001 0.0
C731 C 0.42095 0.90177 0.98752 0.0
C732 C 0.45051 0.87644 0.00828 0.0
C733 C 0.4749 0.90436 0.02513 0.0
H734 H 0.40599 0.85305 0.97745 0.0
H735 H 0.45177 0.85529 0.00921 0.0
S736 S 0.47827 0.98081 0.02698 0.0
N737 N 0.44462 0.957 0.00386 0.0
N738 N 0.49423 0.95939 0.03822 0.0
C739 C 0.47205 0.93116 0.0232 0.0
C740 C 0.44515 0.92989 0.00437 0.0
C741 C 0.55133 0.45645 0.43247 0.0
C742 C 0.54129 0.42672 0.44993 0.0
C743 C 0.57724 0.48293 0.44933 0.0
C744 C 0.59415 0.48087 0.48453 0.0
H745 H 0.53895 0.45946 0.40571 0.0
H746 H 0.58373 0.50527 0.43492 0.0
S747 S 0.57827 0.40835 0.54126 0.0
N748 N 0.55096 0.39669 0.50384 0.0
N749 N 0.59951 0.44642 0.53556 0.0
C750 C 0.58469 0.45122 0.50195 0.0
C751 C 0.55835 0.4242 0.48464 0.0
C752 C 0.12649 0.54962 0.98379 0.0
C753 C 0.09885 0.52483 0.96682 0.0
C754 C 0.1266 0.57445 0.00544 0.0
C755 C 0.09906 0.57558 0.01121 0.0
H756 H 0.14831 0.54978 0.98081 0.0
H757 H 0.1485 0.59277 0.01812 0.0
S758 S 0.02052 0.51726 0.97129 0.0
N759 N 0.04323 0.50353 0.95608 0.0
N760 N 0.04343 0.55015 0.99677 0.0
C761 C 0.07128 0.55123 0.99379 0.0
C762 C 0.07118 0.52593 0.97158 0.0
C763 C 0.52576 0.11731 0.48721 0.0
C764 C 0.52454 0.11424 0.53262 0.0
C765 C 0.55023 0.11824 0.4633 0.0
C766 C 0.57474 0.11689 0.48401 0.0
H767 H 0.50728 0.11825 0.46985 0.0
H768 H 0.54999 0.12017 0.42834 0.0
S769 S 0.58306 0.1099 0.60244 0.0
N770 N 0.55015 0.11032 0.59747 0.0
N771 N 0.59657 0.11285 0.55272 0.0
C772 C 0.57415 0.11448 0.52951 0.0
C773 C 0.54892 0.11292 0.55376 0.0
C774 C 0.55794 0.42095 0.00828 0.0
C775 C 0.54744 0.42382 0.04949 0.0
C776 C 0.58432 0.44573 0.98923 0.0
C777 C 0.60148 0.47443 0.01063 0.0
H778 H 0.54543 0.39952 0.99008 0.0
H779 H 0.59108 0.44235 0.95721 0.0
S780 S 0.58476 0.49362 0.12018 0.0
N781 N 0.55698 0.4574 0.11183 0.0
N782 N 0.60659 0.50393 0.07618 0.0
C783 C 0.59167 0.47744 0.05232 0.0
C784 C 0.56467 0.45219 0.07167 0.0
C785 C 0.11081 0.56405 0.50892 0.0
C786 C 0.12989 0.57414 0.47181 0.0
C787 C 0.10547 0.53745 0.53178 0.0
C788 C 0.11919 0.5199 0.51878 0.0
H789 H 0.09953 0.57659 0.52031 0.0
H790 H 0.09047 0.53067 0.55996 0.0
S791 S 0.17164 0.53662 0.42423 0.0
N792 N 0.16288 0.5646 0.42336 0.0
N793 N 0.15305 0.51472 0.46642 0.0
C794 C 0.13861 0.52986 0.48195 0.0
C795 C 0.14387 0.5569 0.45845 0.0
C796 C 0.54123 0.07643 0.02132 0.0
C797 C 0.56705 0.10547 0.03196 0.0
C798 C 0.51555 0.07421 0.99925 0.0
C799 C 0.51441 0.10093 0.98694 0.0
H800 H 0.54083 0.05505 0.02975 0.0
H801 H 0.49639 0.05122 0.99196 0.0
S802 S 0.57583 0.18272 0.00732 0.0
N803 N 0.58978 0.1617 0.02865 0.0
N804 N 0.54147 0.15753 0.98725 0.0
C805 C 0.54 0.13019 0.9975 0.0
C806 C 0.56627 0.13246 0.01995 0.0
C807 C 0.47675 0.55471 0.5268 0.0
C808 C 0.47572 0.58218 0.53378 0.0
C809 C 0.45313 0.52959 0.5041 0.0
C810 C 0.42731 0.53072 0.48748 0.0
H811 H 0.49608 0.55251 0.53872 0.0
H812 H 0.45516 0.50902 0.49987 0.0
S813 S 0.41329 0.59733 0.49671 0.0
N814 N 0.44661 0.60907 0.52206 0.0
N815 N 0.40217 0.56182 0.47947 0.0
C816 C 0.4259 0.55805 0.49418 0.0
C817 C 0.45007 0.58375 0.51728 0.0
C818 C 0.88289 0.41625 0.01678 0.0
C819 C 0.8844 0.41698 0.97119 0.0
C820 C 0.88364 0.44075 0.04037 0.0
C821 C 0.88531 0.46664 0.01925 0.0
H822 H 0.88168 0.39685 0.03454 0.0
H823 H 0.88273 0.43929 0.07542 0.0
S824 S 0.88924 0.4797 0.90036 0.0
N825 N 0.88747 0.44578 0.90581 0.0
N826 N 0.88834 0.49153 0.95005 0.0
C827 C 0.88639 0.46749 0.97366 0.0
C828 C 0.88611 0.44277 0.94967 0.0
C829 C 0.45863 0.90836 0.43753 0.0
C830 C 0.46941 0.88829 0.45082 0.0
C831 C 0.43187 0.90647 0.45572 0.0
C832 C 0.41481 0.88455 0.4882 0.0
H833 H 0.47092 0.92576 0.4128 0.0
H834 H 0.42471 0.92258 0.44438 0.0
S835 S 0.43263 0.82603 0.53403 0.0
N836 N 0.46047 0.84531 0.49821 0.0
N837 N 0.41033 0.84191 0.53242 0.0
C838 C 0.4252 0.86422 0.50175 0.0
C839 C 0.45241 0.86603 0.48307 0.0
loop_
_geom_bond_atom_site_label_1
_geom_bond_atom_site_label_2
_geom_bond_distance
_geom_bond_site_symmetry_2
_ccdc_geom_bond_type
C0 O1 1.160 . S
C0 O7 1.185 . S
O1 C0 1.160 . S
O2 Zn3 1.899 . S
O2 C10 1.284 . S
Zn3 O2 1.899 . S
Zn3 O4 2.032 . S
Zn3 O7 2.086 . S
Zn3 O12 1.977 . S
O4 Zn3 2.032 . S
O4 C8 1.278 . S
C5 O6 1.203 . S
C5 O12 1.267 . S
O6 C5 1.203 . S
O7 C0 1.185 . S
O7 Zn3 2.086 . S
C8 O4 1.278 . S
C8 O9 1.211 . S
O9 C8 1.211 . S
C10 O2 1.284 . S
C10 O11 1.273 . S
O11 C10 1.273 . S
O12 Zn3 1.977 . S
O12 C5 1.267 . S
C13 O14 1.160 . S
C13 O20 1.185 . S
O14 C13 1.160 . S
O15 Zn16 1.899 . S
O15 C23 1.284 . S
Zn16 O15 1.899 . S
Zn16 O17 2.032 . S
Zn16 O20 2.086 . S
Zn16 O25 1.977 . S
O17 Zn16 2.032 . S
O17 C21 1.278 . S
C18 O19 1.203 . S
C18 O25 1.267 . S
O19 C18 1.203 . S
O20 C13 1.185 . S
O20 Zn16 2.086 . S
C21 O17 1.278 . S
C21 O22 1.211 . S
O22 C21 1.211 . S
C23 O15 1.284 . S
C23 O24 1.273 . S
O24 C23 1.273 . S
O25 Zn16 1.977 . S
O25 C18 1.267 . S
C26 O27 1.160 . S
C26 O33 1.185 . S
O27 C26 1.160 . S
O28 Zn29 1.899 . S
O28 C36 1.284 . S
Zn29 O28 1.899 . S
Zn29 O30 2.032 . S
Zn29 O33 2.086 . S
Zn29 O38 1.977 . S
O30 Zn29 2.032 . S
O30 C34 1.278 . S
C31 O32 1.203 . S
C31 O38 1.267 . S
O32 C31 1.203 . S
O33 C26 1.185 . S
O33 Zn29 2.086 . S
C34 O30 1.278 . S
C34 O35 1.211 . S
O35 C34 1.211 . S
C36 O28 1.284 . S
C36 O37 1.273 . S
O37 C36 1.273 . S
O38 Zn29 1.977 . S
O38 C31 1.267 . S
C39 O40 1.160 . S
C39 O46 1.185 . S
O40 C39 1.160 . S
O41 Zn42 1.899 . S
O41 C49 1.284 . S
Zn42 O41 1.899 . S
Zn42 O43 2.032 . S
Zn42 O46 2.086 . S
Zn42 O51 1.977 . S
O43 Zn42 2.032 . S
O43 C47 1.278 . S
C44 O45 1.203 . S
C44 O51 1.267 . S
O45 C44 1.203 . S
O46 C39 1.185 . S
O46 Zn42 2.086 . S
C47 O43 1.278 . S
C47 O48 1.211 . S
O48 C47 1.211 . S
C49 O41 1.284 . S
C49 O50 1.273 . S
O50 C49 1.273 . S
O51 Zn42 1.977 . S
O51 C44 1.267 . S
C52 O53 1.160 . S
C52 O59 1.185 . S
O53 C52 1.160 . S
O54 Zn55 1.899 . S
O54 C62 1.284 . S
Zn55 O54 1.899 . S
Zn55 O56 2.032 . S
Zn55 O59 2.086 . S
Zn55 O64 1.977 . S
O56 Zn55 2.032 . S
O56 C60 1.278 . S
C57 O58 1.203 . S
C57 O64 1.267 . S
O58 C57 1.203 . S
O59 C52 1.185 . S
O59 Zn55 2.086 . S
C60 O56 1.278 . S
C60 O61 1.211 . S
O61 C60 1.211 . S
C62 O54 1.284 . S
C62 O63 1.273 . S
O63 C62 1.273 . S
O64 Zn55 1.977 . S
O64 C57 1.267 . S
C65 O66 1.160 . S
C65 O72 1.185 . S
O66 C65 1.160 . S
O67 Zn68 1.899 . S
O67 C75 1.284 . S
Zn68 O67 1.899 . S
Zn68 O69 2.032 . S
Zn68 O72 2.086 . S
Zn68 O77 1.977 . S
O69 Zn68 2.032 . S
O69 C73 1.278 . S
C70 O71 1.203 . S
C70 O77 1.267 . S
O71 C70 1.203 . S
O72 C65 1.185 . S
O72 Zn68 2.086 . S
C73 O69 1.278 . S
C73 O74 1.211 . S
O74 C73 1.211 . S
C75 O67 1.284 . S
C75 O76 1.273 . S
O76 C75 1.273 . S
O77 Zn68 1.977 . S
O77 C70 1.267 . S
C78 O79 1.160 . S
C78 O85 1.185 . S
O79 C78 1.160 . S
O80 Zn81 1.899 . S
O80 C88 1.284 . S
Zn81 O80 1.899 . S
Zn81 O82 2.032 . S
Zn81 O85 2.086 . S
Zn81 O90 1.977 . S
O82 Zn81 2.032 . S
O82 C86 1.278 . S
C83 O84 1.203 . S
C83 O90 1.267 . S
O84 C83 1.203 . S
O85 C78 1.185 . S
O85 Zn81 2.086 . S
C86 O82 1.278 . S
C86 O87 1.211 . S
O87 C86 1.211 . S
C88 O80 1.284 . S
C88 O89 1.273 . S
O89 C88 1.273 . S
O90 Zn81 1.977 . S
O90 C83 1.267 . S
C91 O92 1.160 . S
C91 O98 1.185 . S
O92 C91 1.160 . S
O93 Zn94 1.899 . S
O93 C101 1.284 . S
Zn94 O93 1.899 . S
Zn94 O95 2.032 . S
Zn94 O98 2.086 . S
Zn94 O103 1.977 . S
O95 Zn94 2.032 . S
O95 C99 1.278 . S
C96 O97 1.203 . S
C96 O103 1.267 . S
O97 C96 1.203 . S
O98 C91 1.185 . S
O98 Zn94 2.086 . S
C99 O95 1.278 . S
C99 O100 1.211 . S
O100 C99 1.211 . S
C101 O93 1.284 . S
C101 O102 1.273 . S
O102 C101 1.273 . S
O103 Zn94 1.977 . S
O103 C96 1.267 . S
C104 O105 1.160 . S
C104 O111 1.185 . S
O105 C104 1.160 . S
O106 Zn107 1.899 . S
O106 C114 1.284 . S
Zn107 O106 1.899 . S
Zn107 O108 2.032 . S
Zn107 O111 2.086 . S
Zn107 O116 1.977 . S
O108 Zn107 2.032 . S
O108 C112 1.278 . S
C109 O110 1.203 . S
C109 O116 1.267 . S
O110 C109 1.203 . S
O111 C104 1.185 . S
O111 Zn107 2.086 . S
C112 O108 1.278 . S
C112 O113 1.211 . S
O113 C112 1.211 . S
C114 O106 1.284 . S
C114 O115 1.273 . S
O115 C114 1.273 . S
O116 Zn107 1.977 . S
O116 C109 1.267 . S
C117 O118 1.160 . S
C117 O124 1.185 . S
O118 C117 1.160 . S
O119 Zn120 1.899 . S
O119 C127 1.284 . S
Zn120 O119 1.899 . S
Zn120 O121 2.032 . S
Zn120 O124 2.086 . S
Zn120 O129 1.977 . S
O121 Zn120 2.032 . S
O121 C125 1.278 . S
C122 O123 1.203 . S
C122 O129 1.267 . S
O123 C122 1.203 . S
O124 C117 1.185 . S
O124 Zn120 2.086 . S
C125 O121 1.278 . S
C125 O126 1.211 . S
O126 C125 1.211 . S
C127 O119 1.284 . S
C127 O128 1.273 . S
O128 C127 1.273 . S
O129 Zn120 1.977 . S
O129 C122 1.267 . S
C130 O131 1.160 . S
C130 O137 1.185 . S
O131 C130 1.160 . S
O132 Zn133 1.899 . S
O132 C140 1.284 . S
Zn133 O132 1.899 . S
Zn133 O134 2.032 . S
Zn133 O137 2.086 . S
Zn133 O142 1.977 . S
O134 Zn133 2.032 . S
O134 C138 1.278 . S
C135 O136 1.203 . S
C135 O142 1.267 . S
O136 C135 1.203 . S
O137 C130 1.185 . S
O137 Zn133 2.086 . S
C138 O134 1.278 . S
C138 O139 1.211 . S
O139 C138 1.211 . S
C140 O132 1.284 . S
C140 O141 1.273 . S
O141 C140 1.273 . S
O142 Zn133 1.977 . S
O142 C135 1.267 . S
C143 O144 1.160 . S
C143 O150 1.185 . S
O144 C143 1.160 . S
O145 Zn146 1.899 . S
O145 C153 1.284 . S
Zn146 O145 1.899 . S
Zn146 O147 2.032 . S
Zn146 O150 2.086 . S
Zn146 O155 1.977 . S
O147 Zn146 2.032 . S
O147 C151 1.278 . S
C148 O149 1.203 . S
C148 O155 1.267 . S
O149 C148 1.203 . S
O150 C143 1.185 . S
O150 Zn146 2.086 . S
C151 O147 1.278 . S
C151 O152 1.211 . S
O152 C151 1.211 . S
C153 O145 1.284 . S
C153 O154 1.273 . S
O154 C153 1.273 . S
O155 Zn146 1.977 . S
O155 C148 1.267 . S
C156 O157 1.160 . S
C156 O163 1.185 . S
O157 C156 1.160 . S
O158 Zn159 1.899 . S
O158 C166 1.284 . S
Zn159 O158 1.899 . S
Zn159 O160 2.032 . S
Zn159 O163 2.086 . S
Zn159 O168 1.977 . S
O160 Zn159 2.032 . S
O160 C164 1.278 . S
C161 O162 1.203 . S
C161 O168 1.267 . S
O162 C161 1.203 . S
O163 C156 1.185 . S
O163 Zn159 2.086 . S
C164 O160 1.278 . S
C164 O165 1.211 . S
O165 C164 1.211 . S
C166 O158 1.284 . S
C166 O167 1.273 . S
O167 C166 1.273 . S
O168 Zn159 1.977 . S
O168 C161 1.267 . S
C169 O170 1.160 . S
C169 O176 1.185 . S
O170 C169 1.160 . S
O171 Zn172 1.899 . S
O171 C179 1.284 . S
Zn172 O171 1.899 . S
Zn172 O173 2.032 . S
Zn172 O176 2.086 . S
Zn172 O181 1.977 . S
O173 Zn172 2.032 . S
O173 C177 1.278 . S
C174 O175 1.203 . S
C174 O181 1.267 . S
O175 C174 1.203 . S
O176 C169 1.185 . S
O176 Zn172 2.086 . S
C177 O173 1.278 . S
C177 O178 1.211 . S
O178 C177 1.211 . S
C179 O171 1.284 . S
C179 O180 1.273 . S
O180 C179 1.273 . S
O181 Zn172 1.977 . S
O181 C174 1.267 . S
C182 O183 1.160 . S
C182 O189 1.185 . S
O183 C182 1.160 . S
O184 Zn185 1.899 . S
O184 C192 1.284 . S
Zn185 O184 1.899 . S
Zn185 O186 2.032 . S
Zn185 O189 2.086 . S
Zn185 O194 1.977 . S
O186 Zn185 2.032 . S
O186 C190 1.278 . S
C187 O188 1.203 . S
C187 O194 1.267 . S
O188 C187 1.203 . S
O189 C182 1.185 . S
O189 Zn185 2.086 . S
C190 O186 1.278 . S
C190 O191 1.211 . S
O191 C190 1.211 . S
C192 O184 1.284 . S
C192 O193 1.273 . S
O193 C192 1.273 . S
O194 Zn185 1.977 . S
O194 C187 1.267 . S
C195 O196 1.160 . S
C195 O202 1.185 . S
O196 C195 1.160 . S
O197 Zn198 1.899 . S
O197 C205 1.284 . S
Zn198 O197 1.899 . S
Zn198 O199 2.032 . S
Zn198 O202 2.086 . S
Zn198 O207 1.977 . S
O199 Zn198 2.032 . S
O199 C203 1.278 . S
C200 O201 1.203 . S
C200 O207 1.267 . S
O201 C200 1.203 . S
O202 C195 1.185 . S
O202 Zn198 2.086 . S
C203 O199 1.278 . S
C203 O204 1.211 . S
O204 C203 1.211 . S
C205 O197 1.284 . S
C205 O206 1.273 . S
O206 C205 1.273 . S
O207 Zn198 1.977 . S
O207 C200 1.267 . S
C208 O209 1.160 . S
C208 O215 1.185 . S
O209 C208 1.160 . S
O210 Zn211 1.899 . S
O210 C218 1.284 . S
Zn211 O210 1.899 . S
Zn211 O212 2.032 . S
Zn211 O215 2.086 . S
Zn211 O220 1.977 . S
O212 Zn211 2.032 . S
O212 C216 1.278 . S
C213 O214 1.203 . S
C213 O220 1.267 . S
O214 C213 1.203 . S
O215 C208 1.185 . S
O215 Zn211 2.086 . S
C216 O212 1.278 . S
C216 O217 1.211 . S
O217 C216 1.211 . S
C218 O210 1.284 . S
C218 O219 1.273 . S
O219 C218 1.273 . S
O220 Zn211 1.977 . S
O220 C213 1.267 . S
C221 O222 1.160 . S
C221 O228 1.185 . S
O222 C221 1.160 . S
O223 Zn224 1.899 . S
O223 C231 1.284 . S
Zn224 O223 1.899 . S
Zn224 O225 2.032 . S
Zn224 O228 2.086 . S
Zn224 O233 1.977 . S
O225 Zn224 2.032 . S
O225 C229 1.278 . S
C226 O227 1.203 . S
C226 O233 1.267 . S
O227 C226 1.203 . S
O228 C221 1.185 . S
O228 Zn224 2.086 . S
C229 O225 1.278 . S
C229 O230 1.211 . S
O230 C229 1.211 . S
C231 O223 1.284 . S
C231 O232 1.273 . S
O232 C231 1.273 . S
O233 Zn224 1.977 . S
O233 C226 1.267 . S
C234 O235 1.160 . S
C234 O241 1.185 . S
O235 C234 1.160 . S
O236 Zn237 1.899 . S
O236 C244 1.284 . S
Zn237 O236 1.899 . S
Zn237 O238 2.032 . S
Zn237 O241 2.086 . S
Zn237 O246 1.977 . S
O238 Zn237 2.032 . S
O238 C242 1.278 . S
C239 O240 1.203 . S
C239 O246 1.267 . S
O240 C239 1.203 . S
O241 C234 1.185 . S
O241 Zn237 2.086 . S
C242 O238 1.278 . S
C242 O243 1.211 . S
O243 C242 1.211 . S
C244 O236 1.284 . S
C244 O245 1.273 . S
O245 C244 1.273 . S
O246 Zn237 1.977 . S
O246 C239 1.267 . S
C247 O248 1.160 . S
C247 O254 1.185 . S
O248 C247 1.160 . S
O249 Zn250 1.899 . S
O249 C257 1.284 . S
Zn250 O249 1.899 . S
Zn250 O251 2.032 . S
Zn250 O254 2.086 . S
Zn250 O259 1.977 . S
O251 Zn250 2.032 . S
O251 C255 1.278 . S
C252 O253 1.203 . S
C252 O259 1.267 . S
O253 C252 1.203 . S
O254 C247 1.185 . S
O254 Zn250 2.086 . S
C255 O251 1.278 . S
C255 O256 1.211 . S
O256 C255 1.211 . S
C257 O249 1.284 . S
C257 O258 1.273 . S
O258 C257 1.273 . S
O259 Zn250 1.977 . S
O259 C252 1.267 . S
C260 O261 1.160 . S
C260 O267 1.185 . S
O261 C260 1.160 . S
O262 Zn263 1.899 . S
O262 C270 1.284 . S
Zn263 O262 1.899 . S
Zn263 O264 2.032 . S
Zn263 O267 2.086 . S
Zn263 O272 1.977 . S
O264 Zn263 2.032 . S
O264 C268 1.278 . S
C265 O266 1.203 . S
C265 O272 1.267 . S
O266 C265 1.203 . S
O267 C260 1.185 . S
O267 Zn263 2.086 . S
C268 O264 1.278 . S
C268 O269 1.211 . S
O269 C268 1.211 . S
C270 O262 1.284 . S
C270 O271 1.273 . S
O271 C270 1.273 . S
O272 Zn263 1.977 . S
O272 C265 1.267 . S
C273 O274 1.160 . S
C273 O280 1.185 . S
O274 C273 1.160 . S
O275 Zn276 1.899 . S
O275 C283 1.284 . S
Zn276 O275 1.899 . S
Zn276 O277 2.032 . S
Zn276 O280 2.086 . S
Zn276 O285 1.977 . S
O277 Zn276 2.032 . S
O277 C281 1.278 . S
C278 O279 1.203 . S
C278 O285 1.267 . S
O279 C278 1.203 . S
O280 C273 1.185 . S
O280 Zn276 2.086 . S
C281 O277 1.278 . S
C281 O282 1.211 . S
O282 C281 1.211 . S
C283 O275 1.284 . S
C283 O284 1.273 . S
O284 C283 1.273 . S
O285 Zn276 1.977 . S
O285 C278 1.267 . S
C286 O287 1.160 . S
C286 O293 1.185 . S
O287 C286 1.160 . S
O288 Zn289 1.899 . S
O288 C296 1.284 . S
Zn289 O288 1.899 . S
Zn289 O290 2.032 . S
Zn289 O293 2.086 . S
Zn289 O298 1.977 . S
O290 Zn289 2.032 . S
O290 C294 1.278 . S
C291 O292 1.203 . S
C291 O298 1.267 . S
O292 C291 1.203 . S
O293 C286 1.185 . S
O293 Zn289 2.086 . S
C294 O290 1.278 . S
C294 O295 1.211 . S
O295 C294 1.211 . S
C296 O288 1.284 . S
C296 O297 1.273 . S
O297 C296 1.273 . S
O298 Zn289 1.977 . S
O298 C291 1.267 . S
C299 O300 1.160 . S
C299 O306 1.185 . S
O300 C299 1.160 . S
O301 Zn302 1.899 . S
O301 C309 1.284 . S
Zn302 O301 1.899 . S
Zn302 O303 2.032 . S
Zn302 O306 2.086 . S
Zn302 O311 1.977 . S
O303 Zn302 2.032 . S
O303 C307 1.278 . S
C304 O305 1.203 . S
C304 O311 1.267 . S
O305 C304 1.203 . S
O306 C299 1.185 . S
O306 Zn302 2.086 . S
C307 O303 1.278 . S
C307 O308 1.211 . S
O308 C307 1.211 . S
C309 O301 1.284 . S
C309 O310 1.273 . S
O310 C309 1.273 . S
O311 Zn302 1.977 . S
O311 C304 1.267 . S
C312 C313 1.369 . S
C312 C314 1.419 . S
C312 H316 0.930 . S
C313 C312 1.369 . S
C313 C322 1.429 . S
C314 C312 1.419 . S
C314 C315 1.363 . S
C314 H317 0.929 . S
C315 C314 1.363 . S
C315 C321 1.428 . S
H316 C312 0.930 . S
H317 C314 0.929 . S
S318 N319 1.613 . S
S318 N320 1.610 . S
N319 S318 1.613 . S
N319 C322 1.350 . S
N320 S318 1.610 . S
N320 C321 1.351 . S
C321 C315 1.428 . S
C321 N320 1.351 . S
C321 C322 1.434 . S
C322 C313 1.429 . S
C322 N319 1.350 . S
C322 C321 1.434 . S
C323 C324 1.369 . S
C323 C325 1.419 . S
C323 H327 0.930 . S
C324 C323 1.369 . S
C324 C333 1.429 . S
C325 C323 1.419 . S
C325 C326 1.363 . S
C325 H328 0.929 . S
C326 C325 1.363 . S
C326 C332 1.428 . S
H327 C323 0.930 . S
H328 C325 0.929 . S
S329 N330 1.613 . S
S329 N331 1.610 . S
N330 S329 1.613 . S
N330 C333 1.350 . S
N331 S329 1.610 . S
N331 C332 1.351 . S
C332 C326 1.428 . S
C332 N331 1.351 . S
C332 C333 1.434 . S
C333 C324 1.429 . S
C333 N330 1.350 . S
C333 C332 1.434 . S
C334 C335 1.369 . S
C334 C336 1.419 . S
C334 H338 0.930 . S
C335 C334 1.369 . S
C335 C344 1.429 . S
C336 C334 1.419 . S
C336 C337 1.363 . S
C336 H339 0.929 . S
C337 C336 1.363 . S
C337 C343 1.428 . S
H338 C334 0.930 . S
H339 C336 0.929 . S
S340 N341 1.613 . S
S340 N342 1.610 . S
N341 S340 1.613 . S
N341 C344 1.350 . S
N342 S340 1.610 . S
N342 C343 1.351 . S
C343 C337 1.428 . S
C343 N342 1.351 . S
C343 C344 1.434 . S
C344 C335 1.429 . S
C344 N341 1.350 . S
C344 C343 1.434 . S
C345 C346 1.369 . S
C345 C347 1.419 . S
C345 H349 0.930 . S
C346 C345 1.369 . S
C346 C355 1.429 . S
C347 C345 1.419 . S
C347 C348 1.363 . S
C347 H350 0.929 . S
C348 C347 1.363 . S
C348 C354 1.428 . S
H349 C345 0.930 . S
H350 C347 0.929 . S
S351 N352 1.613 . S
S351 N353 1.610 . S
N352 S351 1.613 . S
N352 C355 1.350 . S
N353 S351 1.610 . S
N353 C354 1.351 . S
C354 C348 1.428 . S
C354 N353 1.351 . S
C354 C355 1.434 . S
C355 C346 1.429 . S
C355 N352 1.350 . S
C355 C354 1.434 . S
C356 C357 1.369 . S
C356 C358 1.419 . S
C356 H360 0.930 . S
C357 C356 1.369 . S
C357 C366 1.429 . S
C358 C356 1.419 . S
C358 C359 1.363 . S
C358 H361 0.929 . S
C359 C358 1.363 . S
C359 C365 1.428 . S
H360 C356 0.930 . S
H361 C358 0.929 . S
S362 N363 1.613 . S
S362 N364 1.610 . S
N363 S362 1.613 . S
N363 C366 1.350 . S
N364 S362 1.610 . S
N364 C365 1.351 . S
C365 C359 1.428 . S
C365 N364 1.351 . S
C365 C366 1.434 . S
C366 C357 1.429 . S
C366 N363 1.350 . S
C366 C365 1.434 . S
C367 C368 1.369 . S
C367 C369 1.419 . S
C367 H371 0.930 . S
C368 C367 1.369 . S
C368 C377 1.429 . S
C369 C367 1.419 . S
C369 C370 1.363 . S
C369 H372 0.929 . S
C370 C369 1.363 . S
C370 C376 1.428 . S
H371 C367 0.930 . S
H372 C369 0.929 . S
S373 N374 1.613 . S
S373 N375 1.610 . S
N374 S373 1.613 . S
N374 C377 1.350 . S
N375 S373 1.610 . S
N375 C376 1.351 . S
C376 C370 1.428 . S
C376 N375 1.351 . S
C376 C377 1.434 . S
C377 C368 1.429 . S
C377 N374 1.350 . S
C377 C376 1.434 . S
C378 C379 1.369 . S
C378 C380 1.419 . S
C378 H382 0.930 . S
C379 C378 1.369 . S
C379 C388 1.429 . S
C380 C378 1.419 . S
C380 C381 1.363 . S
C380 H383 0.929 . S
C381 C380 1.363 . S
C381 C387 1.428 . S
H382 C378 0.930 . S
H383 C380 0.929 . S
S384 N385 1.613 . S
S384 N386 1.610 . S
N385 S384 1.613 . S
N385 C388 1.350 . S
N386 S384 1.610 . S
N386 C387 1.351 . S
C387 C381 1.428 . S
C387 N386 1.351 . S
C387 C388 1.434 . S
C388 C379 1.429 . S
C388 N385 1.350 . S
C388 C387 1.434 . S
C389 C390 1.369 . S
C389 C391 1.419 . S
C389 H393 0.930 . S
C390 C389 1.369 . S
C390 C399 1.429 . S
C391 C389 1.419 . S
C391 C392 1.363 . S
C391 H394 0.929 . S
C392 C391 1.363 . S
C392 C398 1.428 . S
H393 C389 0.930 . S
H394 C391 0.929 . S
S395 N396 1.613 . S
S395 N397 1.610 . S
N396 S395 1.613 . S
N396 C399 1.350 . S
N397 S395 1.610 . S
N397 C398 1.351 . S
C398 C392 1.428 . S
C398 N397 1.351 . S
C398 C399 1.434 . S
C399 C390 1.429 . S
C399 N396 1.350 . S
C399 C398 1.434 . S
C400 C401 1.369 . S
C400 C402 1.419 . S
C400 H404 0.930 . S
C401 C400 1.369 . S
C401 C410 1.429 . S
C402 C400 1.419 . S
C402 C403 1.363 . S
C402 H405 0.929 . S
C403 C402 1.363 . S
C403 C409 1.428 . S
H404 C400 0.930 . S
H405 C402 0.929 . S
S406 N407 1.613 . S
S406 N408 1.610 . S
N407 S406 1.613 . S
N407 C410 1.350 . S
N408 S406 1.610 . S
N408 C409 1.351 . S
C409 C403 1.428 . S
C409 N408 1.351 . S
C409 C410 1.434 . S
C410 C401 1.429 . S
C410 N407 1.350 . S
C410 C409 1.434 . S
C411 C412 1.369 . S
C411 C413 1.419 . S
C411 H415 0.930 . S
C412 C411 1.369 . S
C412 C421 1.429 . S
C413 C411 1.419 . S
C413 C414 1.363 . S
C413 H416 0.929 . S
C414 C413 1.363 . S
C414 C420 1.428 . S
H415 C411 0.930 . S
H416 C413 0.929 . S
S417 N418 1.613 . S
S417 N419 1.610 . S
N418 S417 1.613 . S
N418 C421 1.350 . S
N419 S417 1.610 . S
N419 C420 1.351 . S
C420 C414 1.428 . S
C420 N419 1.351 . S
C420 C421 1.434 . S
C421 C412 1.429 . S
C421 N418 1.350 . S
C421 C420 1.434 . S
C422 C423 1.369 . S
C422 C424 1.419 . S
C422 H426 0.930 . S
C423 C422 1.369 . S
C423 C432 1.429 . S
C424 C422 1.419 . S
C424 C425 1.363 . S
C424 H427 0.929 . S
C425 C424 1.363 . S
C425 C431 1.428 . S
H426 C422 0.930 . S
H427 C424 0.929 . S
S428 N429 1.613 . S
S428 N430 1.610 . S
N429 S428 1.613 . S
N429 C432 1.350 . S
N430 S428 1.610 . S
N430 C431 1.351 . S
C431 C425 1.428 . S
C431 N430 1.351 . S
C431 C432 1.434 . S
C432 C423 1.429 . S
C432 N429 1.350 . S
C432 C431 1.434 . S
C433 C434 1.369 . S
C433 C435 1.419 . S
C433 H437 0.930 . S
C434 C433 1.369 . S
C434 C443 1.429 . S
C435 C433 1.419 . S
C435 C436 1.363 . S
C435 H438 0.929 . S
C436 C435 1.363 . S
C436 C442 1.428 . S
H437 C433 0.930 . S
H438 C435 0.929 . S
S439 N440 1.613 . S
S439 N441 1.610 . S
N440 S439 1.613 . S
N440 C443 1.350 . S
N441 S439 1.610 . S
N441 C442 1.351 . S
C442 C436 1.428 . S
C442 N441 1.351 . S
C442 C443 1.434 . S
C443 C434 1.429 . S
C443 N440 1.350 . S
C443 C442 1.434 . S
C444 C445 1.369 . S
C444 C446 1.419 . S
C444 H448 0.930 . S
C445 C444 1.369 . S
C445 C454 1.429 1_556 S
C446 C444 1.419 . S
C446 C447 1.363 1_556 S
C446 H449 0.929 . S
C447 C446 1.363 1_554 S
C447 C453 1.428 . S
H448 C444 0.930 . S
H449 C446 0.929 . S
S450 N451 1.613 . S
S450 N452 1.610 . S
N451 S450 1.613 . S
N451 C454 1.350 . S
N452 S450 1.610 . S
N452 C453 1.351 . S
C453 C447 1.428 . S
C453 N452 1.351 . S
C453 C454 1.434 . S
C454 C445 1.429 1_554 S
C454 N451 1.350 . S
C454 C453 1.434 . S
C455 C456 1.369 . S
C455 C457 1.419 . S
C455 H459 0.930 . S
C456 C455 1.369 . S
C456 C465 1.429 . S
C457 C455 1.419 . S
C457 C458 1.363 . S
C457 H460 0.929 . S
C458 C457 1.363 . S
C458 C464 1.428 . S
H459 C455 0.930 . S
H460 C457 0.929 . S
S461 N462 1.613 . S
S461 N463 1.610 . S
N462 S461 1.613 . S
N462 C465 1.350 . S
N463 S461 1.610 . S
N463 C464 1.351 . S
C464 C458 1.428 . S
C464 N463 1.351 . S
C464 C465 1.434 . S
C465 C456 1.429 . S
C465 N462 1.350 . S
C465 C464 1.434 . S
C466 C467 1.369 . S
C466 C468 1.419 . S
C466 H470 0.930 . S
C467 C466 1.369 . S
C467 C476 1.429 1_554 S
C468 C466 1.419 . S
C468 C469 1.363 1_554 S
C468 H471 0.929 . S
C469 C468 1.363 1_556 S
C469 C475 1.428 . S
H470 C466 0.930 . S
H471 C468 0.929 . S
S472 N473 1.613 . S
S472 N474 1.610 . S
N473 S472 1.613 . S
N473 C476 1.350 . S
N474 S472 1.610 . S
N474 C475 1.351 . S
C475 C469 1.428 . S
C475 N474 1.351 . S
C475 C476 1.434 . S
C476 C467 1.429 1_556 S
C476 N473 1.350 . S
C476 C475 1.434 . S
C477 C478 1.369 . S
C477 C479 1.419 . S
C477 H481 0.930 . S
C478 C477 1.369 . S
C478 C487 1.429 . S
C479 C477 1.419 . S
C479 C480 1.363 . S
C479 H482 0.929 . S
C480 C479 1.363 . S
C480 C486 1.428 . S
H481 C477 0.930 . S
H482 C479 0.929 . S
S483 N484 1.613 . S
S483 N485 1.610 . S
N484 S483 1.613 . S
N484 C487 1.350 . S
N485 S483 1.610 . S
N485 C486 1.351 . S
C486 C480 1.428 . S
C486 N485 1.351 . S
C486 C487 1.434 . S
C487 C478 1.429 . S
C487 N484 1.350 . S
C487 C486 1.434 . S
C488 C489 1.369 1_554 S
C488 C490 1.419 . S
C488 H492 0.930 . S
C489 C488 1.369 1_556 S
C489 C498 1.429 . S
C490 C488 1.419 . S
C490 C491 1.363 . S
C490 H493 0.929 . S
C491 C490 1.363 . S
C491 C497 1.428 1_554 S
H492 C488 0.930 . S
H493 C490 0.929 . S
S494 N495 1.613 . S
S494 N496 1.610 . S
N495 S494 1.613 . S
N495 C498 1.350 . S
N496 S494 1.610 . S
N496 C497 1.351 . S
C497 C491 1.428 1_556 S
C497 N496 1.351 . S
C497 C498 1.434 . S
C498 C489 1.429 . S
C498 N495 1.350 . S
C498 C497 1.434 . S
C499 C500 1.369 . S
C499 C501 1.419 . S
C499 H503 0.930 . S
C500 C499 1.369 . S
C500 C509 1.429 . S
C501 C499 1.419 . S
C501 C502 1.363 . S
C501 H504 0.929 . S
C502 C501 1.363 . S
C502 C508 1.428 . S
H503 C499 0.930 . S
H504 C501 0.929 . S
S505 N506 1.613 . S
S505 N507 1.610 . S
N506 S505 1.613 . S
N506 C509 1.350 . S
N507 S505 1.610 . S
N507 C508 1.351 . S
C508 C502 1.428 . S
C508 N507 1.351 . S
C508 C509 1.434 . S
C509 C500 1.429 . S
C509 N506 1.350 . S
C509 C508 1.434 . S
C510 C511 1.369 . S
C510 C512 1.419 . S
C510 H514 0.930 . S
C511 C510 1.369 . S
C511 C520 1.429 1_554 S
C512 C510 1.419 . S
C512 C513 1.363 1_554 S
C512 H515 0.929 . S
C513 C512 1.363 1_556 S
C513 C519 1.428 . S
H514 C510 0.930 . S
H515 C512 0.929 . S
S516 N517 1.613 . S
S516 N518 1.610 . S
N517 S516 1.613 . S
N517 C520 1.350 . S
N518 S516 1.610 . S
N518 C519 1.351 . S
C519 C513 1.428 . S
C519 N518 1.351 . S
C519 C520 1.434 . S
C520 C511 1.429 1_556 S
C520 N517 1.350 . S
C520 C519 1.434 . S
C521 C522 1.369 . S
C521 C523 1.419 . S
C521 H525 0.930 . S
C522 C521 1.369 . S
C522 C531 1.429 . S
C523 C521 1.419 . S
C523 C524 1.363 . S
C523 H526 0.929 . S
C524 C523 1.363 . S
C524 C530 1.428 . S
H525 C521 0.930 . S
H526 C523 0.929 . S
S527 N528 1.613 . S
S527 N529 1.610 . S
N528 S527 1.613 . S
N528 C531 1.350 . S
N529 S527 1.610 . S
N529 C530 1.351 . S
C530 C524 1.428 . S
C530 N529 1.351 . S
C530 C531 1.434 . S
C531 C522 1.429 . S
C531 N528 1.350 . S
C531 C530 1.434 . S
C532 C533 1.369 . S
C532 C534 1.419 . S
C532 H536 0.930 . S
C533 C532 1.369 . S
C533 C542 1.429 1_556 S
C534 C532 1.419 . S
C534 C535 1.363 1_556 S
C534 H537 0.929 . S
C535 C534 1.363 1_554 S
C535 C541 1.428 . S
H536 C532 0.930 . S
H537 C534 0.929 . S
S538 N539 1.613 . S
S538 N540 1.610 . S
N539 S538 1.613 . S
N539 C542 1.350 . S
N540 S538 1.610 . S
N540 C541 1.351 . S
C541 C535 1.428 . S
C541 N540 1.351 . S
C541 C542 1.434 . S
C542 C533 1.429 1_554 S
C542 N539 1.350 . S
C542 C541 1.434 . S
C543 C544 1.369 . S
C543 C545 1.419 . S
C543 H547 0.930 . S
C544 C543 1.369 . S
C544 C553 1.429 . S
C545 C543 1.419 . S
C545 C546 1.363 . S
C545 H548 0.929 . S
C546 C545 1.363 . S
C546 C552 1.428 . S
H547 C543 0.930 . S
H548 C545 0.929 . S
S549 N550 1.613 . S
S549 N551 1.610 . S
N550 S549 1.613 . S
N550 C553 1.350 . S
N551 S549 1.610 . S
N551 C552 1.351 . S
C552 C546 1.428 . S
C552 N551 1.351 . S
C552 C553 1.434 . S
C553 C544 1.429 . S
C553 N550 1.350 . S
C553 C552 1.434 . S
C554 C555 1.369 . S
C554 C556 1.419 . S
C554 H558 0.930 . S
C555 C554 1.369 . S
C555 C564 1.429 1_556 S
C556 C554 1.419 . S
C556 C557 1.363 1_556 S
C556 H559 0.929 . S
C557 C556 1.363 1_554 S
C557 C563 1.428 . S
H558 C554 0.930 . S
H559 C556 0.929 . S
S560 N561 1.613 . S
S560 N562 1.610 . S
N561 S560 1.613 . S
N561 C564 1.350 . S
N562 S560 1.610 . S
N562 C563 1.351 . S
C563 C557 1.428 . S
C563 N562 1.351 . S
C563 C564 1.434 . S
C564 C555 1.429 1_554 S
C564 N561 1.350 . S
C564 C563 1.434 . S
C565 C566 1.369 . S
C565 C567 1.419 . S
C565 H569 0.930 . S
C566 C565 1.369 . S
C566 C575 1.429 . S
C567 C565 1.419 . S
C567 C568 1.363 . S
C567 H570 0.929 . S
C568 C567 1.363 . S
C568 C574 1.428 . S
H569 C565 0.930 . S
H570 C567 0.929 . S
S571 N572 1.613 . S
S571 N573 1.610 . S
N572 S571 1.613 . S
N572 C575 1.350 . S
N573 S571 1.610 . S
N573 C574 1.351 . S
C574 C568 1.428 . S
C574 N573 1.351 . S
C574 C575 1.434 . S
C575 C566 1.429 . S
C575 N572 1.350 . S
C575 C574 1.434 . S
C576 C577 1.369 . S
C576 C578 1.419 . S
C576 H580 0.930 1_554 S
C577 C576 1.369 . S
C577 C586 1.429 . S
C578 C576 1.419 . S
C578 C579 1.363 . S
C578 H581 0.929 1_554 S
C579 C578 1.363 . S
C579 C585 1.428 . S
H580 C576 0.930 1_556 S
H581 C578 0.929 1_556 S
S582 N583 1.613 . S
S582 N584 1.610 . S
N583 S582 1.613 . S
N583 C586 1.350 . S
N584 S582 1.610 . S
N584 C585 1.351 . S
C585 C579 1.428 . S
C585 N584 1.351 . S
C585 C586 1.434 . S
C586 C577 1.429 . S
C586 N583 1.350 . S
C586 C585 1.434 . S
C587 C588 1.369 . S
C587 C589 1.419 1_455 S
C587 H591 0.930 . S
C588 C587 1.369 . S
C588 C597 1.429 . S
C589 C587 1.419 1_655 S
C589 C590 1.363 . S
C589 H592 0.929 . S
C590 C589 1.363 . S
C590 C596 1.428 . S
H591 C587 0.930 . S
H592 C589 0.929 . S
S593 N594 1.616 1_655 S
S593 N595 1.607 . S
N594 S593 1.616 1_455 S
N594 C597 1.350 . S
N595 S593 1.607 . S
N595 C596 1.351 . S
C596 C590 1.428 . S
C596 N595 1.351 . S
C596 C597 1.434 1_655 S
C597 C588 1.429 . S
C597 N594 1.350 . S
C597 C596 1.434 1_455 S
C598 C599 1.369 . S
C598 C600 1.419 1_565 S
C598 H602 0.930 . S
C599 C598 1.369 . S
C599 C608 1.429 . S
C600 C598 1.419 1_545 S
C600 C601 1.363 . S
C600 H603 0.929 . S
C601 C600 1.363 . S
C601 C607 1.428 . S
H602 C598 0.930 . S
H603 C600 0.929 . S
S604 N605 1.615 1_546 S
S604 N606 1.607 1_556 S
N605 S604 1.615 1_564 S
N605 C608 1.350 . S
N606 S604 1.607 1_554 S
N606 C607 1.351 . S
C607 C601 1.428 . S
C607 N606 1.351 . S
C607 C608 1.434 1_545 S
C608 C599 1.429 . S
C608 N605 1.350 . S
C608 C607 1.434 1_565 S
C609 C610 1.369 . S
C609 C611 1.419 . S
C609 H613 0.930 . S
C610 C609 1.369 . S
C610 C619 1.429 . S
C611 C609 1.419 . S
C611 C612 1.363 . S
C611 H614 0.929 . S
C612 C611 1.363 . S
C612 C618 1.428 . S
H613 C609 0.930 . S
H614 C611 0.929 . S
S615 N616 1.613 . S
S615 N617 1.610 . S
N616 S615 1.613 . S
N616 C619 1.350 . S
N617 S615 1.610 . S
N617 C618 1.351 . S
C618 C612 1.428 . S
C618 N617 1.351 . S
C618 C619 1.434 . S
C619 C610 1.429 . S
C619 N616 1.350 . S
C619 C618 1.434 . S
C620 C621 1.369 . S
C620 C622 1.419 1_655 S
C620 H624 0.930 . S
C621 C620 1.369 . S
C621 C630 1.429 . S
C622 C620 1.419 1_455 S
C622 C623 1.363 . S
C622 H625 0.929 . S
C623 C622 1.363 . S
C623 C629 1.428 . S
H624 C620 0.930 . S
H625 C622 0.929 . S
S626 N627 1.616 1_455 S
S626 N628 1.608 . S
N627 S626 1.616 1_655 S
N627 C630 1.350 1_556 S
N628 S626 1.608 . S
N628 C629 1.351 1_556 S
C629 C623 1.428 . S
C629 N628 1.351 1_554 S
C629 C630 1.434 1_455 S
C630 C621 1.429 . S
C630 N627 1.350 1_554 S
C630 C629 1.434 1_655 S
C631 C632 1.369 . S
C631 C633 1.419 1_545 S
C631 H635 0.930 . S
C632 C631 1.369 . S
C632 C641 1.429 . S
C633 C631 1.419 1_565 S
C633 C634 1.363 . S
C633 H636 0.929 . S
C634 C633 1.363 . S
C634 C640 1.428 . S
H635 C631 0.930 . S
H636 C633 0.929 . S
S637 N638 1.616 1_565 S
S637 N639 1.609 . S
N638 S637 1.616 1_545 S
N638 C641 1.350 . S
N639 S637 1.609 . S
N639 C640 1.351 . S
C640 C634 1.428 . S
C640 N639 1.351 . S
C640 C641 1.434 1_565 S
C641 C632 1.429 . S
C641 N638 1.350 . S
C641 C640 1.434 1_545 S
C642 C643 1.369 . S
C642 C644 1.419 . S
C642 H646 0.930 . S
C643 C642 1.369 . S
C643 C652 1.429 . S
C644 C642 1.419 . S
C644 C645 1.363 . S
C644 H647 0.929 . S
C645 C644 1.363 . S
C645 C651 1.428 . S
H646 C642 0.930 . S
H647 C644 0.929 . S
S648 N649 1.613 . S
S648 N650 1.610 . S
N649 S648 1.613 . S
N649 C652 1.350 . S
N650 S648 1.610 . S
N650 C651 1.351 . S
C651 C645 1.428 . S
C651 N650 1.351 . S
C651 C652 1.434 . S
C652 C643 1.429 . S
C652 N649 1.350 . S
C652 C651 1.434 . S
C653 C654 1.369 . S
C653 C655 1.419 1_655 S
C653 H657 0.930 . S
C654 C653 1.369 . S
C654 C663 1.429 . S
C655 C653 1.419 1_455 S
C655 C656 1.363 . S
C655 H658 0.929 . S
C656 C655 1.363 . S
C656 C662 1.428 . S
H657 C653 0.930 . S
H658 C655 0.929 . S
S659 N660 1.615 1_455 S
S659 N661 1.606 . S
N660 S659 1.615 1_655 S
N660 C663 1.350 . S
N661 S659 1.606 . S
N661 C662 1.351 . S
C662 C656 1.428 . S
C662 N661 1.351 . S
C662 C663 1.434 1_455 S
C663 C654 1.429 . S
C663 N660 1.350 . S
C663 C662 1.434 1_655 S
C664 C665 1.369 . S
C664 C666 1.419 1_545 S
C664 H668 0.930 . S
C665 C664 1.369 . S
C665 C674 1.429 . S
C666 C664 1.419 1_565 S
C666 C667 1.363 . S
C666 H669 0.929 . S
C667 C666 1.363 . S
C667 C673 1.428 . S
H668 C664 0.930 . S
H669 C666 0.929 . S
S670 N671 1.615 1_565 S
S670 N672 1.612 . S
N671 S670 1.615 1_545 S
N671 C674 1.351 1_554 S
N672 S670 1.612 . S
N672 C673 1.346 1_554 S
C673 C667 1.428 . S
C673 N672 1.346 1_556 S
C673 C674 1.434 1_565 S
C674 C665 1.429 . S
C674 N671 1.351 1_556 S
C674 C673 1.434 1_545 S
C675 C676 1.369 . S
C675 C677 1.419 . S
C675 H679 0.930 . S
C676 C675 1.369 . S
C676 C685 1.429 . S
C677 C675 1.419 . S
C677 C678 1.363 . S
C677 H680 0.929 . S
C678 C677 1.363 . S
C678 C684 1.428 . S
H679 C675 0.930 . S
H680 C677 0.929 . S
S681 N682 1.613 . S
S681 N683 1.610 . S
N682 S681 1.613 . S
N682 C685 1.350 . S
N683 S681 1.610 . S
N683 C684 1.351 . S
C684 C678 1.428 . S
C684 N683 1.351 . S
C684 C685 1.434 . S
C685 C676 1.429 . S
C685 N682 1.350 . S
C685 C684 1.434 . S
C686 C687 1.369 . S
C686 C688 1.419 1_455 S
C686 H690 0.930 . S
C687 C686 1.369 . S
C687 C696 1.429 . S
C688 C686 1.419 1_655 S
C688 C689 1.363 . S
C688 H691 0.929 . S
C689 C688 1.363 . S
C689 C695 1.428 . S
H690 C686 0.930 . S
H691 C688 0.929 . S
S692 N693 1.615 1_655 S
S692 N694 1.606 . S
N693 S692 1.615 1_455 S
N693 C696 1.350 . S
N694 S692 1.606 . S
N694 C695 1.351 . S
C695 C689 1.428 . S
C695 N694 1.351 . S
C695 C696 1.434 1_655 S
C696 C687 1.429 . S
C696 N693 1.350 . S
C696 C695 1.434 1_455 S
C697 C698 1.369 . S
C697 C699 1.419 1_565 S
C697 H701 0.930 . S
C698 C697 1.369 . S
C698 C707 1.429 . S
C699 C697 1.419 1_545 S
C699 C700 1.363 . S
C699 H702 0.929 . S
C700 C699 1.363 . S
C700 C706 1.428 . S
H701 C697 0.930 . S
H702 C699 0.929 . S
S703 N704 1.615 1_545 S
S703 N705 1.606 . S
N704 S703 1.615 1_565 S
N704 C707 1.350 . S
N705 S703 1.606 . S
N705 C706 1.351 . S
C706 C700 1.428 . S
C706 N705 1.351 . S
C706 C707 1.434 1_545 S
C707 C698 1.429 . S
C707 N704 1.350 . S
C707 C706 1.434 1_565 S
C708 C709 1.369 . S
C708 C710 1.419 . S
C708 H712 0.930 . S
C709 C708 1.369 . S
C709 C718 1.429 1_556 S
C710 C708 1.419 . S
C710 C711 1.363 1_556 S
C710 H713 0.929 . S
C711 C710 1.363 1_554 S
C711 C717 1.428 . S
H712 C708 0.930 . S
H713 C710 0.929 . S
S714 N715 1.613 . S
S714 N716 1.610 . S
N715 S714 1.613 . S
N715 C718 1.350 . S
N716 S714 1.610 . S
N716 C717 1.351 . S
C717 C711 1.428 . S
C717 N716 1.351 . S
C717 C718 1.434 . S
C718 C709 1.429 1_554 S
C718 N715 1.350 . S
C718 C717 1.434 . S
C719 C720 1.369 . S
C719 C721 1.419 . S
C719 H723 0.930 . S
C720 C719 1.369 . S
C720 C729 1.429 . S
C721 C719 1.419 . S
C721 C722 1.363 . S
C721 H724 0.929 . S
C722 C721 1.363 . S
C722 C728 1.428 . S
H723 C719 0.930 . S
H724 C721 0.929 . S
S725 N726 1.613 . S
S725 N727 1.610 . S
N726 S725 1.613 . S
N726 C729 1.350 . S
N727 S725 1.610 . S
N727 C728 1.351 . S
C728 C722 1.428 . S
C728 N727 1.351 . S
C728 C729 1.434 . S
C729 C720 1.429 . S
C729 N726 1.350 . S
C729 C728 1.434 . S
C730 C731 1.369 . S
C730 C732 1.424 . S
C730 H734 0.930 . S
C731 C730 1.369 . S
C731 C740 1.425 1_556 S
C732 C730 1.424 . S
C732 C733 1.357 1_556 S
C732 H735 0.930 . S
C733 C732 1.357 1_554 S
C733 C739 1.428 . S
H734 C730 0.930 . S
H735 C732 0.930 . S
S736 N737 1.613 . S
S736 N738 1.610 . S
N737 S736 1.613 . S
N737 C740 1.350 . S
N738 S736 1.610 . S
N738 C739 1.351 . S
C739 C733 1.428 . S
C739 N738 1.351 . S
C739 C740 1.437 . S
C740 C731 1.425 1_554 S
C740 N737 1.350 . S
C740 C739 1.437 . S
C741 C742 1.369 . S
C741 C743 1.419 . S
C741 H745 0.930 . S
C742 C741 1.369 . S
C742 C751 1.429 . S
C743 C741 1.419 . S
C743 C744 1.363 . S
C743 H746 0.929 . S
C744 C743 1.363 . S
C744 C750 1.428 . S
H745 C741 0.930 . S
H746 C743 0.929 . S
S747 N748 1.613 . S
S747 N749 1.610 . S
N748 S747 1.613 . S
N748 C751 1.350 . S
N749 S747 1.610 . S
N749 C750 1.351 . S
C750 C744 1.428 . S
C750 N749 1.351 . S
C750 C751 1.434 . S
C751 C742 1.429 . S
C751 N748 1.350 . S
C751 C750 1.434 . S
C752 C753 1.369 . S
C752 C754 1.419 1_556 S
C752 H756 0.930 . S
C753 C752 1.369 . S
C753 C762 1.429 . S
C754 C752 1.419 1_554 S
C754 C755 1.363 . S
C754 H757 0.929 . S
C755 C754 1.363 . S
C755 C761 1.428 . S
H756 C752 0.930 . S
H757 C754 0.929 . S
S758 N759 1.613 . S
S758 N760 1.610 1_556 S
N759 S758 1.613 . S
N759 C762 1.350 . S
N760 S758 1.610 1_554 S
N760 C761 1.351 . S
C761 C755 1.428 . S
C761 N760 1.351 . S
C761 C762 1.434 1_554 S
C762 C753 1.429 . S
C762 N759 1.350 . S
C762 C761 1.434 1_556 S
C763 C764 1.369 . S
C763 C765 1.419 . S
C763 H767 0.930 . S
C764 C763 1.369 . S
C764 C773 1.429 . S
C765 C763 1.419 . S
C765 C766 1.363 . S
C765 H768 0.929 . S
C766 C765 1.363 . S
C766 C772 1.428 . S
H767 C763 0.930 . S
H768 C765 0.929 . S
S769 N770 1.613 . S
S769 N771 1.610 . S
N770 S769 1.613 . S
N770 C773 1.350 . S
N771 S769 1.610 . S
N771 C772 1.351 . S
C772 C766 1.428 . S
C772 N771 1.351 . S
C772 C773 1.434 . S
C773 C764 1.429 . S
C773 N770 1.350 . S
C773 C772 1.434 . S
C774 C775 1.369 1_556 S
C774 C776 1.419 . S
C774 H778 0.930 . S
C775 C774 1.369 1_554 S
C775 C784 1.429 . S
C776 C774 1.419 . S
C776 C777 1.363 . S
C776 H779 0.929 . S
C777 C776 1.363 . S
C777 C783 1.428 1_556 S
H778 C774 0.930 . S
H779 C776 0.929 . S
S780 N781 1.613 . S
S780 N782 1.610 . S
N781 S780 1.613 . S
N781 C784 1.350 . S
N782 S780 1.610 . S
N782 C783 1.351 . S
C783 C777 1.428 1_554 S
C783 N782 1.351 . S
C783 C784 1.434 . S
C784 C775 1.429 . S
C784 N781 1.350 . S
C784 C783 1.434 . S
C785 C786 1.369 . S
C785 C787 1.419 . S
C785 H789 0.930 . S
C786 C785 1.369 . S
C786 C795 1.429 . S
C787 C785 1.419 . S
C787 C788 1.363 . S
C787 H790 0.929 . S
C788 C787 1.363 . S
C788 C794 1.428 . S
H789 C785 0.930 . S
H790 C787 0.929 . S
S791 N792 1.613 . S
S791 N793 1.610 . S
N792 S791 1.613 . S
N792 C795 1.350 . S
N793 S791 1.610 . S
N793 C794 1.351 . S
C794 C788 1.428 . S
C794 N793 1.351 . S
C794 C795 1.434 . S
C795 C786 1.429 . S
C795 N792 1.350 . S
C795 C794 1.434 . S
C796 C797 1.369 . S
C796 C798 1.419 1_554 S
C796 H800 0.930 . S
C797 C796 1.369 . S
C797 C806 1.429 . S
C798 C796 1.419 1_556 S
C798 C799 1.363 . S
C798 H801 0.929 . S
C799 C798 1.363 . S
C799 C805 1.428 . S
H800 C796 0.930 . S
H801 C798 0.929 . S
S802 N803 1.613 . S
S802 N804 1.610 1_554 S
N803 S802 1.613 . S
N803 C806 1.350 . S
N804 S802 1.610 1_556 S
N804 C805 1.351 . S
C805 C799 1.428 . S
C805 N804 1.351 . S
C805 C806 1.434 1_556 S
C806 C797 1.429 . S
C806 N803 1.350 . S
C806 C805 1.434 1_554 S
C807 C808 1.369 . S
C807 C809 1.419 . S
C807 H811 0.930 . S
C808 C807 1.369 . S
C808 C817 1.429 . S
C809 C807 1.419 . S
C809 C810 1.363 . S
C809 H812 0.929 . S
C810 C809 1.363 . S
C810 C816 1.428 . S
H811 C807 0.930 . S
H812 C809 0.929 . S
S813 N814 1.613 . S
S813 N815 1.610 . S
N814 S813 1.613 . S
N814 C817 1.350 . S
N815 S813 1.610 . S
N815 C816 1.351 . S
C816 C810 1.428 . S
C816 N815 1.351 . S
C816 C817 1.434 . S
C817 C808 1.429 . S
C817 N814 1.350 . S
C817 C816 1.434 . S
C818 C819 1.369 1_554 S
C818 C820 1.419 . S
C818 H822 0.930 . S
C819 C818 1.369 1_556 S
C819 C828 1.429 . S
C820 C818 1.419 . S
C820 C821 1.363 . S
C820 H823 0.929 . S
C821 C820 1.363 . S
C821 C827 1.428 1_554 S
H822 C818 0.930 . S
H823 C820 0.929 . S
S824 N825 1.613 . S
S824 N826 1.610 . S
N825 S824 1.613 . S
N825 C828 1.350 . S
N826 S824 1.610 . S
N826 C827 1.351 . S
C827 C821 1.428 1_556 S
C827 N826 1.351 . S
C827 C828 1.434 . S
C828 C819 1.429 . S
C828 N825 1.350 . S
C828 C827 1.434 . S
C829 C830 1.369 . S
C829 C831 1.419 . S
C829 H833 0.930 . S
C830 C829 1.369 . S
C830 C839 1.429 . S
C831 C829 1.419 . S
C831 C832 1.363 . S
C831 H834 0.929 . S
C832 C831 1.363 . S
C832 C838 1.428 . S
H833 C829 0.930 . S
H834 C831 0.929 . S
S835 N836 1.613 . S
S835 N837 1.610 . S
N836 S835 1.613 . S
N836 C839 1.350 . S
N837 S835 1.610 . S
N837 C838 1.351 . S
C838 C832 1.428 . S
C838 N837 1.351 . S
C838 C839 1.434 . S
C839 C830 1.429 . S
C839 N836 1.350 . S
C839 C838 1.434 . S
C313 C10 1.466 . S
C315 C205 1.466 . S
C324 C23 1.469 . S
C326 C218 1.469 . S
C335 C231 1.466 . S
C337 C36 1.466 . S
C346 C166 1.465 . S
C348 C49 1.465 . S
C357 C179 1.468 . S
C359 C62 1.468 . S
C368 C192 1.468 . S
C370 C75 1.468 . S
C379 C283 1.467 . S
C381 C88 1.467 . S
C390 C101 1.468 . S
C392 C296 1.468 . S
C401 C309 1.469 . S
C403 C114 1.469 . S
C412 C127 1.469 . S
C414 C244 1.469 . S
C423 C257 1.467 . S
C425 C140 1.468 . S
C434 C153 1.468 . S
C436 C270 1.468 . S
C445 C130 1.209 . S
C447 C0 1.204 . S
C456 C143 1.204 . S
C458 C13 1.207 . S
C467 C26 1.212 . S
C469 C78 1.204 . S
C478 C39 1.202 . S
C480 C91 1.211 . S
C489 C104 1.203 . S
C491 C52 1.209 . S
C500 C65 1.212 . S
C502 C117 1.203 . S
C511 C286 1.212 . S
C513 C156 1.203 . S
C522 C169 1.204 . S
C524 C299 1.211 . S
C533 C182 1.212 . S
C535 C234 1.204 . S
C544 C247 1.212 . S
C546 C195 1.204 . S
C555 C208 1.213 . S
C557 C260 1.204 . S
C566 C221 1.210 . S
C568 C273 1.204 . S
C577 C5 1.272 . S
C579 C239 1.273 . S
C588 C252 1.277 . S
C590 C18 1.277 . S
C599 C31 1.283 . S
C601 C265 1.282 . S
C610 C44 1.279 . S
C612 C278 1.278 . S
C621 C291 1.280 . S
C623 C57 1.280 . S
C632 C70 1.278 . S
C634 C304 1.277 . S
C643 C83 1.282 . S
C645 C161 1.281 . S
C654 C96 1.283 . S
C656 C174 1.282 . S
C665 C187 1.277 . S
C667 C109 1.277 . S
C676 C200 1.275 . S
C678 C122 1.276 . S
C687 C135 1.279 . S
C689 C213 1.279 . S
C698 C226 1.284 . S
C700 C148 1.282 . S
C709 C86 1.492 . S
C711 C8 1.494 . S
C720 C21 1.497 . S
C722 C99 1.495 . S
C731 C112 1.491 . S
C733 C34 1.492 . S
C742 C125 1.497 . S
C744 C47 1.498 . S
C753 C138 1.492 . S
C755 C60 1.492 . S
C764 C73 1.498 . S
C766 C151 1.497 . S
C775 C242 1.493 . S
C777 C164 1.493 . S
C786 C177 1.494 . S
C788 C255 1.494 . S
C797 C268 1.499 . S
C799 C190 1.498 . S
C808 C281 1.498 . S
C810 C203 1.497 . S
C819 C216 1.494 . S
C821 C294 1.494 . S
C830 C229 1.499 . S
C832 C307 1.498 . S
