# Generated by pormake.
# Topology wme, (6)-cn, num edge types: 1
# Building blocks:
#     Node 0, Type 0, BuildingBlock: KUMJIN_clean_sbu_1, # of connection points: 6
#     Node 1, Type 0, BuildingBlock: KUMJIN_clean_sbu_1, # of connection points: 6
#     Node 2, Type 0, BuildingBlock: KUMJIN_clean_sbu_1, # of connection points: 6
#     Node 3, Type 0, BuildingBlock: KUMJIN_clean_sbu_1, # of connection points: 6
#     Node 4, Type 0, BuildingBlock: KUMJIN_clean_sbu_1, # of connection points: 6
#     Node 5, Type 0, BuildingBlock: KUMJIN_clean_sbu_1, # of connection points: 6
#     Node 6, Type 0, BuildingBlock: KUMJIN_clean_sbu_1, # of connection points: 6
#     Node 7, Type 0, BuildingBlock: KUMJIN_clean_sbu_1, # of connection points: 6
#     Node 8, Type 0, BuildingBlock: KUMJIN_clean_sbu_1, # of connection points: 6
#     Node 9, Type 0, BuildingBlock: KUMJIN_clean_sbu_1, # of connection points: 6
#     Node 10, Type 0, BuildingBlock: KUMJIN_clean_sbu_1, # of connection points: 6
#     Node 11, Type 0, BuildingBlock: KUMJIN_clean_sbu_1, # of connection points: 6
#     Edge 12, Type (0, 0), BuildingBlock: MIFKUJ_clean_linker_0, # of connection points: 2
#     Edge 13, Type (0, 0), BuildingBlock: MIFKUJ_clean_linker_0, # of connection points: 2
#     Edge 14, Type (0, 0), BuildingBlock: MIFKUJ_clean_linker_0, # of connection points: 2
#     Edge 15, Type (0, 0), BuildingBlock: MIFKUJ_clean_linker_0, # of connection points: 2
#     Edge 16, Type (0, 0), BuildingBlock: MIFKUJ_clean_linker_0, # of connection points: 2
#     Edge 17, Type (0, 0), BuildingBlock: MIFKUJ_clean_linker_0, # of connection points: 2
#     Edge 18, Type (0, 0), BuildingBlock: MIFKUJ_clean_linker_0, # of connection points: 2
#     Edge 19, Type (0, 0), BuildingBlock: MIFKUJ_clean_linker_0, # of connection points: 2
#     Edge 20, Type (0, 0), BuildingBlock: MIFKUJ_clean_linker_0, # of connection points: 2
#     Edge 21, Type (0, 0), BuildingBlock: MIFKUJ_clean_linker_0, # of connection points: 2
#     Edge 22, Type (0, 0), BuildingBlock: MIFKUJ_clean_linker_0, # of connection points: 2
#     Edge 23, Type (0, 0), BuildingBlock: MIFKUJ_clean_linker_0, # of connection points: 2
#     Edge 24, Type (0, 0), BuildingBlock: MIFKUJ_clean_linker_0, # of connection points: 2
#     Edge 25, Type (0, 0), BuildingBlock: MIFKUJ_clean_linker_0, # of connection points: 2
#     Edge 26, Type (0, 0), BuildingBlock: MIFKUJ_clean_linker_0, # of connection points: 2
#     Edge 27, Type (0, 0), BuildingBlock: MIFKUJ_clean_linker_0, # of connection points: 2
#     Edge 28, Type (0, 0), BuildingBlock: MIFKUJ_clean_linker_0, # of connection points: 2
#     Edge 29, Type (0, 0), BuildingBlock: MIFKUJ_clean_linker_0, # of connection points: 2
#     Edge 30, Type (0, 0), BuildingBlock: MIFKUJ_clean_linker_0, # of connection points: 2
#     Edge 31, Type (0, 0), BuildingBlock: MIFKUJ_clean_linker_0, # of connection points: 2
#     Edge 32, Type (0, 0), BuildingBlock: MIFKUJ_clean_linker_0, # of connection points: 2
#     Edge 33, Type (0, 0), BuildingBlock: MIFKUJ_clean_linker_0, # of connection points: 2
#     Edge 34, Type (0, 0), BuildingBlock: MIFKUJ_clean_linker_0, # of connection points: 2
#     Edge 35, Type (0, 0), BuildingBlock: MIFKUJ_clean_linker_0, # of connection points: 2
#     Edge 36, Type (0, 0), BuildingBlock: MIFKUJ_clean_linker_0, # of connection points: 2
#     Edge 37, Type (0, 0), BuildingBlock: MIFKUJ_clean_linker_0, # of connection points: 2
#     Edge 38, Type (0, 0), BuildingBlock: MIFKUJ_clean_linker_0, # of connection points: 2
#     Edge 39, Type (0, 0), BuildingBlock: MIFKUJ_clean_linker_0, # of connection points: 2
#     Edge 40, Type (0, 0), BuildingBlock: MIFKUJ_clean_linker_0, # of connection points: 2
#     Edge 41, Type (0, 0), BuildingBlock: MIFKUJ_clean_linker_0, # of connection points: 2
#     Edge 42, Type (0, 0), BuildingBlock: MIFKUJ_clean_linker_0, # of connection points: 2
#     Edge 43, Type (0, 0), BuildingBlock: MIFKUJ_clean_linker_0, # of connection points: 2
#     Edge 44, Type (0, 0), BuildingBlock: MIFKUJ_clean_linker_0, # of connection points: 2
#     Edge 45, Type (0, 0), BuildingBlock: MIFKUJ_clean_linker_0, # of connection points: 2
#     Edge 46, Type (0, 0), BuildingBlock: MIFKUJ_clean_linker_0, # of connection points: 2
#     Edge 47, Type (0, 0), BuildingBlock: MIFKUJ_clean_linker_0, # of connection points: 2
# Relax obj value: 0.062
# Max RMSD: 0.165
# Mean RMSD: 0.165
data_MOF--net-wme--node1-KUMJIN_clean_sbu_1--edge1-MIFKUJ_clean_linker_0
_symmetry_space_group_name_H-M    P1
_symmetry_Int_Tables_number       1
_symmetry_cell_setting            triclinic
loop_
_symmetry_equiv_pos_as_xyz
'x, y, z'
_cell_length_a     48.524296
_cell_length_b     48.542056
_cell_length_c     70.598556
_cell_angle_alpha  89.92553
_cell_angle_beta   90.061025
_cell_angle_gamma 120.01212
loop_
_atom_site_label
_atom_site_type_symbol
_atom_site_fract_x
_atom_site_fract_y
_atom_site_fract_z
_atom_type_partial_charge
Eu0 Eu 0.22009 0.30872 0.13245 0.0
C1 C 0.12561 0.33824 0.08365 0.0
N2 N 0.15647 0.34606 0.08108 0.0
C3 C 0.14658 0.33354 0.04803 0.0
C4 C 0.10391 0.32743 0.06841 0.0
C5 C 0.16735 0.34457 0.0635 0.0
C6 C 0.11469 0.32478 0.0505 0.0
C7 C 0.08403 0.33404 0.10463 0.0
C8 C 0.1157 0.34124 0.10161 0.0
C9 C 0.06238 0.32317 0.08949 0.0
C10 C 0.07231 0.31994 0.07143 0.0
Eu11 Eu 0.18946 0.36476 0.10819 0.0
N12 N 0.13693 0.35103 0.11614 0.0
C13 C 0.07508 0.33799 0.12282 0.0
C14 C 0.1288 0.35658 0.13358 0.0
C15 C 0.09767 0.3496 0.13732 0.0
H16 H 0.19216 0.3525 0.06115 0.0
H17 H 0.09129 0.35374 0.15129 0.0
H18 H 0.21233 0.29769 0.17936 0.0
H19 H 0.32818 0.36952 0.08907 0.0
H20 H 0.1465 0.36751 0.14442 0.0
H21 H 0.05099 0.33269 0.12573 0.0
H22 H 0.27099 0.33856 0.0948 0.0
H23 H 0.1553 0.33221 0.03415 0.0
H24 H 0.03793 0.31739 0.09157 0.0
H25 H 0.05542 0.31196 0.05985 0.0
H26 H 0.24684 0.30991 0.20751 0.0
H27 H 0.09871 0.31645 0.03845 0.0
H28 H 0.36591 0.38194 0.11554 0.0
N29 N 0.25098 0.31843 0.15999 0.0
C30 C 0.28304 0.33328 0.15753 0.0
C31 C 0.25732 0.31653 0.19354 0.0
C32 C 0.30361 0.34088 0.17323 0.0
C33 C 0.23786 0.30961 0.17758 0.0
C34 C 0.29033 0.33231 0.19136 0.0
N35 N 0.27507 0.33503 0.12447 0.0
C36 C 0.28662 0.34396 0.10655 0.0
C37 C 0.32873 0.35867 0.13653 0.0
C38 C 0.29545 0.34177 0.13932 0.0
C39 C 0.34054 0.36853 0.11822 0.0
C40 C 0.31935 0.36137 0.10322 0.0
H41 H 0.30535 0.33783 0.20377 0.0
H42 H 0.35282 0.36313 0.1823 0.0
H43 H 0.37479 0.37896 0.15021 0.0
O44 O 0.22477 0.26825 0.12163 0.0
O45 O 0.25169 0.36271 0.13644 0.0
O46 O 0.2401 0.37599 0.1082 0.0
O47 O 0.20068 0.265 0.1482 0.0
O48 O 0.20458 0.30102 0.10149 0.0
O49 O 0.21879 0.35021 0.08929 0.0
O50 O 0.19908 0.41196 0.11859 0.0
O51 O 0.15307 0.31203 0.10894 0.0
O52 O 0.1673 0.29154 0.1343 0.0
O53 O 0.19905 0.40256 0.08826 0.0
O54 O 0.19622 0.36848 0.14087 0.0
O55 O 0.19259 0.3218 0.15277 0.0
C56 C 0.25678 0.38451 0.12373 0.0
C57 C 0.21265 0.22384 0.1429 0.0
C58 C 0.20744 0.17189 0.13722 0.0
C59 C 0.20864 0.16781 0.15684 0.0
C60 C 0.21435 0.21943 0.16249 0.0
C61 C 0.21213 0.19147 0.16936 0.0
C62 C 0.20918 0.19985 0.13025 0.0
C63 C 0.21425 0.32108 0.08724 0.0
C64 C 0.20874 0.25034 0.13596 0.0
C65 C 0.33669 0.35709 0.1704 0.0
C66 C 0.3492 0.36603 0.15212 0.0
C67 C 0.14723 0.28916 0.12104 0.0
C68 C 0.21091 0.45563 0.09631 0.0
C69 C 0.20855 0.50429 0.10116 0.0
C70 C 0.22955 0.51833 0.08587 0.0
C71 C 0.23169 0.47022 0.08102 0.0
C72 C 0.19913 0.47271 0.10639 0.0
C73 C 0.24092 0.50136 0.07587 0.0
C74 C 0.19282 0.34886 0.15499 0.0
C75 C 0.2019 0.42266 0.10134 0.0
H76 H 0.20664 0.14609 0.16246 0.0
H77 H 0.2163 0.23711 0.17258 0.0
H78 H 0.21268 0.18792 0.18447 0.0
H79 H 0.20714 0.20259 0.11515 0.0
H80 H 0.23691 0.54248 0.08154 0.0
H81 H 0.24101 0.45756 0.0731 0.0
H82 H 0.18291 0.46164 0.11815 0.0
H83 H 0.25698 0.51239 0.06406 0.0
Eu84 Eu 0.91565 0.21899 0.63308 0.0
C85 C 0.79205 0.12223 0.58661 0.0
N86 N 0.81489 0.15276 0.58291 0.0
C87 C 0.81697 0.13954 0.55045 0.0
C88 C 0.78105 0.09896 0.57224 0.0
C89 C 0.82707 0.16182 0.56511 0.0
C90 C 0.79393 0.10796 0.55403 0.0
C91 C 0.75639 0.08252 0.60913 0.0
C92 C 0.78016 0.11406 0.60497 0.0
C93 C 0.74532 0.05937 0.59481 0.0
C94 C 0.75768 0.06753 0.57644 0.0
Eu95 Eu 0.82954 0.1886 0.60846 0.0
N96 N 0.79222 0.13668 0.61879 0.0
C97 C 0.74471 0.07507 0.62765 0.0
C98 C 0.77985 0.12977 0.63666 0.0
C99 C 0.75635 0.09885 0.64142 0.0
H100 H 0.84413 0.18634 0.56202 0.0
H101 H 0.7469 0.09348 0.65568 0.0
H102 H 0.90482 0.21628 0.68009 0.0
H103 H 0.98712 0.32055 0.58662 0.0
H104 H 0.78712 0.14801 0.64723 0.0
H105 H 0.72651 0.05113 0.63142 0.0
H106 H 0.95482 0.26398 0.59491 0.0
H107 H 0.82678 0.1468 0.53636 0.0
H108 H 0.72726 0.03501 0.59781 0.0
H109 H 0.74898 0.04935 0.56558 0.0
H110 H 0.91941 0.25396 0.70681 0.0
H111 H 0.78611 0.09076 0.54262 0.0
H112 H 1.002 0.36152 0.61145 0.0
N113 N 0.92886 0.25264 0.65957 0.0
C114 C 0.94803 0.28426 0.65617 0.0
C115 C 0.92748 0.26275 0.69263 0.0
C116 C 0.95712 0.30652 0.67102 0.0
C117 C 0.91895 0.24154 0.67747 0.0
C118 C 0.94653 0.29538 0.6894 0.0
N119 N 0.94802 0.27249 0.62348 0.0
C120 C 0.95941 0.28144 0.60556 0.0
C121 C 0.97712 0.32719 0.63371 0.0
C122 C 0.95775 0.29447 0.63764 0.0
C123 C 0.98709 0.33662 0.61504 0.0
C124 C 0.97854 0.31359 0.60096 0.0
H125 H 0.953 0.31175 0.70118 0.0
H126 H 0.98333 0.35657 0.6783 0.0
H127 H 1.00092 0.37463 0.6457 0.0
O128 O 0.95843 0.21691 0.62412 0.0
O129 O 0.89283 0.25044 0.6356 0.0
O130 O 0.86855 0.23938 0.60711 0.0
O131 O 0.94379 0.21099 0.65384 0.0
O132 O 0.91125 0.20704 0.60153 0.0
O133 O 0.87339 0.21813 0.58955 0.0
O134 O 0.7903 0.19742 0.61707 0.0
O135 O 0.84808 0.15386 0.60757 0.0
O136 O 0.88191 0.16585 0.63327 0.0
O137 O 0.80175 0.19618 0.58732 0.0
O138 O 0.83422 0.19833 0.64071 0.0
O139 O 0.87221 0.18579 0.65027 0.0
C140 C 0.87805 0.25687 0.62226 0.0
C141 C 0.99138 0.20851 0.64749 0.0
C142 C 0.03332 0.19591 0.64124 0.0
C143 C 0.04091 0.19952 0.66059 0.0
C144 C 0.99964 0.21214 0.6668 0.0
C145 C 0.02427 0.20773 0.67325 0.0
C146 C 0.00858 0.20062 0.63459 0.0
C147 C 0.89862 0.21461 0.58734 0.0
C148 C 0.96412 0.21203 0.6415 0.0
C149 C 0.97617 0.33911 0.66707 0.0
C150 C 0.98613 0.34941 0.64849 0.0
C151 C 0.86487 0.14713 0.61935 0.0
C152 C 0.75833 0.20612 0.59279 0.0
C153 C 0.70713 0.20482 0.59589 0.0
C154 C 0.71103 0.21651 0.57723 0.0
C155 C 0.76141 0.21844 0.57441 0.0
C156 C 0.73105 0.1994 0.60366 0.0
C157 C 0.73795 0.22347 0.56673 0.0
C158 C 0.8484 0.19055 0.654 0.0
C159 C 0.78325 0.1991 0.59944 0.0
H160 H 0.05982 0.19593 0.6659 0.0
H161 H 0.98694 0.21831 0.67701 0.0
H162 H 0.03037 0.21051 0.68815 0.0
H163 H 1.00247 0.1976 0.61967 0.0
H164 H 0.6929 0.2199 0.57046 0.0
H165 H 0.78194 0.2239 0.56575 0.0
H166 H 0.7284 0.18992 0.61787 0.0
H167 H 0.74047 0.23251 0.55243 0.0
Eu168 Eu 0.69883 0.9123 0.13282 0.0
C169 C 0.6742 0.78964 0.0867 0.0
N170 N 0.66435 0.81074 0.08274 0.0
C171 C 0.67634 0.81036 0.04987 0.0
C172 C 0.68593 0.77828 0.07221 0.0
C173 C 0.66512 0.82115 0.06468 0.0
C174 C 0.68677 0.78881 0.05363 0.0
C175 C 0.68565 0.75989 0.10999 0.0
C176 C 0.67431 0.78081 0.10548 0.0
C177 C 0.69712 0.74839 0.09556 0.0
C178 C 0.69724 0.75753 0.07674 0.0
Eu179 Eu 0.64437 0.82637 0.10837 0.0
N180 N 0.66364 0.79281 0.11928 0.0
C181 C 0.68491 0.75088 0.12888 0.0
C182 C 0.6609 0.78225 0.1375 0.0
C183 C 0.67211 0.7618 0.14264 0.0
H184 H 0.65657 0.83737 0.06161 0.0
H185 H 0.67026 0.75395 0.15718 0.0
H186 H 0.68964 0.90029 0.17973 0.0
H187 H 0.67845 0.99308 0.08884 0.0
H188 H 0.64905 0.78829 0.14813 0.0
H189 H 0.6934 0.73487 0.13291 0.0
H190 H 0.70199 0.95983 0.09719 0.0
H191 H 0.67688 0.81862 0.03555 0.0
H192 H 0.70597 0.73239 0.09883 0.0
H193 H 0.7064 0.74864 0.0658 0.0
H194 H 0.66257 0.91046 0.20615 0.0
H195 H 0.69565 0.78066 0.04213 0.0
H196 H 0.64604 1.00198 0.11246 0.0
N197 N 0.67626 0.92338 0.15926 0.0
C198 C 0.66301 0.94188 0.156 0.0
C199 C 0.6622 0.91915 0.19208 0.0
C200 C 0.64775 0.94881 0.17066 0.0
C201 C 0.67701 0.91289 0.17706 0.0
C202 C 0.6472 0.9369 0.18883 0.0
N203 N 0.67955 0.94655 0.124 0.0
C204 C 0.68623 0.9619 0.10704 0.0
C205 C 0.65153 0.97332 0.13403 0.0
C206 C 0.66456 0.95365 0.13782 0.0
C207 C 0.65562 0.98667 0.11595 0.0
C208 C 0.67371 0.98153 0.10253 0.0
H209 H 0.63573 0.94173 0.20049 0.0
H210 H 0.62173 0.97289 0.17781 0.0
H211 H 0.62524 0.99455 0.1458 0.0
O212 O 0.74501 0.95408 0.12454 0.0
O213 O 0.6443 0.8885 0.1353 0.0
O214 O 0.62941 0.86323 0.10694 0.0
O215 O 0.73395 0.93988 0.1542 0.0
O216 O 0.70419 0.91049 0.10067 0.0
O217 O 0.65615 0.8693 0.08923 0.0
O218 O 0.59775 0.78456 0.11704 0.0
O219 O 0.69797 0.84902 0.10431 0.0
O220 O 0.71705 0.8775 0.13175 0.0
O221 O 0.60869 0.79868 0.08748 0.0
O222 O 0.63909 0.83103 0.14065 0.0
O223 O 0.68999 0.86858 0.14907 0.0
C224 C 0.623 0.87477 0.12185 0.0
C225 C 0.78536 0.98638 0.14854 0.0
C226 C 0.8385 0.03138 0.14254 0.0
C227 C 0.84301 0.03674 0.16211 0.0
C228 C 0.7906 0.9923 0.16809 0.0
C229 C 0.81923 0.01726 0.17478 0.0
C230 C 0.80963 0.006 0.13568 0.0
C231 C 0.68363 0.89602 0.08682 0.0
C232 C 0.7544 0.9598 0.14213 0.0
C233 C 0.63374 0.96746 0.16675 0.0
C234 C 0.63565 0.97971 0.1485 0.0
C235 C 0.72112 0.86444 0.11653 0.0
C236 C 0.55685 0.75292 0.09274 0.0
C237 C 0.5072 0.70176 0.09614 0.0
C238 C 0.49903 0.70523 0.07751 0.0
C239 C 0.54744 0.75552 0.07428 0.0
C240 C 0.53658 0.72573 0.10374 0.0
C241 C 0.51889 0.73186 0.06677 0.0
C242 C 0.66143 0.84569 0.15367 0.0
C243 C 0.58834 0.77857 0.09947 0.0
H244 H 0.86515 0.05605 0.1676 0.0
H245 H 0.77248 0.97769 0.17831 0.0
H246 H 0.82297 0.02157 0.18985 0.0
H247 H 0.80611 1.00178 0.12057 0.0
H248 H 0.47717 0.68703 0.07109 0.0
H249 H 0.56229 0.77593 0.06546 0.0
H250 H 0.54348 0.72331 0.11797 0.0
H251 H 0.51216 0.73411 0.05248 0.0
Eu252 Eu 0.79216 0.70106 0.63323 0.0
C253 C 0.88033 0.66353 0.58493 0.0
N254 N 0.84933 0.65497 0.58222 0.0
C255 C 0.85662 0.65791 0.54857 0.0
C256 C 0.90068 0.66926 0.56935 0.0
C257 C 0.83718 0.65187 0.56441 0.0
C258 C 0.8885 0.66656 0.55103 0.0
C259 C 0.92364 0.67464 0.6065 0.0
C260 C 0.89172 0.66634 0.60335 0.0
C261 C 0.94348 0.67896 0.591 0.0
C262 C 0.93223 0.67677 0.57249 0.0
Eu263 Eu 0.8178 0.64161 0.60969 0.0
N264 N 0.87163 0.66105 0.61814 0.0
C265 C 0.93459 0.67794 0.62516 0.0
C266 C 0.88204 0.66348 0.63635 0.0
C267 C 0.91373 0.67249 0.64013 0.0
H268 H 0.81224 0.64369 0.56234 0.0
H269 H 0.92187 0.67459 0.65461 0.0
H270 H 0.79924 0.70333 0.68028 0.0
H271 H 0.68678 0.6651 0.589 0.0
H272 H 0.86607 0.65792 0.64807 0.0
H273 H 0.95901 0.68445 0.62815 0.0
H274 H 0.74359 0.68768 0.59548 0.0
H275 H 0.84686 0.65529 0.53446 0.0
H276 H 0.96751 0.68366 0.59316 0.0
H277 H 0.94804 0.6806 0.5607 0.0
H278 H 0.76467 0.68841 0.70851 0.0
H279 H 0.90339 0.67075 0.53871 0.0
H280 H 0.64841 0.64797 0.6155 0.0
N281 N 0.76112 0.68866 0.66085 0.0
C282 C 0.72944 0.67715 0.65837 0.0
C283 C 0.75438 0.68481 0.6945 0.0
C284 C 0.70876 0.66828 0.67404 0.0
C285 C 0.77389 0.69298 0.67853 0.0
C286 C 0.72163 0.67226 0.69225 0.0
N287 N 0.73805 0.6815 0.6252 0.0
C288 C 0.72739 0.67945 0.60712 0.0
C289 C 0.68468 0.66107 0.63704 0.0
C290 C 0.71757 0.6736 0.64006 0.0
C291 C 0.67351 0.65762 0.61843 0.0
C292 C 0.69503 0.66711 0.60342 0.0
H293 H 0.70649 0.66594 0.70462 0.0
H294 H 0.65972 0.64858 0.68295 0.0
H295 H 0.63864 0.64222 0.65056 0.0
O296 O 0.7964 0.74548 0.62223 0.0
O297 O 0.7565 0.64737 0.63663 0.0
O298 O 0.76741 0.63149 0.60894 0.0
O299 O 0.81057 0.74302 0.65097 0.0
O300 O 0.80319 0.70638 0.60166 0.0
O301 O 0.79016 0.65696 0.58974 0.0
O302 O 0.81504 0.59777 0.62054 0.0
O303 O 0.85322 0.69449 0.60641 0.0
O304 O 0.84379 0.71284 0.63398 0.0
O305 O 0.80185 0.59981 0.59167 0.0
O306 O 0.80787 0.63687 0.64221 0.0
O307 O 0.82227 0.68788 0.65105 0.0
C308 C 0.75 0.62491 0.62411 0.0
C309 C 0.79711 0.78273 0.64468 0.0
C310 C 0.79883 0.83361 0.64107 0.0
C311 C 0.78405 0.82892 0.65884 0.0
C312 C 0.78203 0.7784 0.66231 0.0
C313 C 0.77573 0.80151 0.66934 0.0
C314 C 0.80554 0.81046 0.63411 0.0
C315 C 0.79433 0.68598 0.58754 0.0
C316 C 0.80753 0.76059 0.63818 0.0
C317 C 0.676 0.65567 0.67107 0.0
C318 C 0.66399 0.65206 0.65263 0.0
C319 C 0.86193 0.71679 0.61928 0.0
C320 C 0.82538 0.56792 0.59774 0.0
C321 C 0.83774 0.52497 0.60023 0.0
C322 C 0.8577 0.53726 0.58439 0.0
C323 C 0.84529 0.57948 0.58177 0.0
C324 C 0.82173 0.54049 0.60703 0.0
C325 C 0.86149 0.5644 0.57528 0.0
C326 C 0.81466 0.65869 0.6555 0.0
C327 C 0.80742 0.58349 0.60418 0.0
H328 H 0.77941 0.84677 0.66477 0.0
H329 H 0.77577 0.75754 0.67086 0.0
H330 H 0.7647 0.79835 0.68309 0.0
H331 H 0.81759 0.81415 0.62062 0.0
H332 H 0.87021 0.52563 0.57901 0.0
H333 H 0.84803 0.59985 0.57403 0.0
H334 H 0.80615 0.53099 0.61921 0.0
H335 H 0.87675 0.57357 0.56297 0.0
Eu336 Eu 0.09323 0.78546 0.1326 0.0
C337 C 0.21428 0.88784 0.08867 0.0
N338 N 0.19543 0.85636 0.08472 0.0
C339 C 0.19575 0.86806 0.05173 0.0
C340 C 0.22432 0.91078 0.07412 0.0
C341 C 0.18647 0.84614 0.06658 0.0
C342 C 0.21467 0.90052 0.05551 0.0
C343 C 0.24346 0.92957 0.11175 0.0
C344 C 0.22324 0.89714 0.10738 0.0
C345 C 0.2533 0.95248 0.0973 0.0
C346 C 0.24367 0.94313 0.07856 0.0
Eu347 Eu 0.18107 0.82138 0.11071 0.0
N348 N 0.21253 0.87454 0.12123 0.0
C349 C 0.25362 0.938 0.13048 0.0
C350 C 0.22401 0.88248 0.13926 0.0
C351 C 0.24428 0.91429 0.14422 0.0
H352 H 0.17254 0.82106 0.06345 0.0
H353 H 0.2529 0.92046 0.15861 0.0
H354 H 0.10329 0.78151 0.17925 0.0
H355 H 0.02044 0.69035 0.08261 0.0
H356 H 0.2185 0.86451 0.14983 0.0
H357 H 0.26925 0.96263 0.13439 0.0
H358 H 0.05229 0.74561 0.09352 0.0
H359 H 0.18849 0.85989 0.03735 0.0
H360 H 0.26861 0.9775 0.10044 0.0
H361 H 0.25157 0.9611 0.06757 0.0
H362 H 0.09089 0.74061 0.20376 0.0
H363 H 0.22188 0.91743 0.04395 0.0
H364 H 0.00769 0.64609 0.10482 0.0
N365 N 0.08138 0.74817 0.15708 0.0
C366 C 0.06308 0.71702 0.15221 0.0
C367 C 0.0832 0.73364 0.18929 0.0
C368 C 0.0548 0.69281 0.16579 0.0
C369 C 0.09071 0.75679 0.17535 0.0
C370 C 0.06538 0.70148 0.18446 0.0
N371 N 0.06179 0.7333 0.12061 0.0
C372 C 0.04906 0.72678 0.10285 0.0
C373 C 0.03358 0.67729 0.12817 0.0
C374 C 0.05302 0.70941 0.1335 0.0
C375 C 0.02262 0.67044 0.10948 0.0
C376 C 0.03 0.69533 0.09685 0.0
H377 H 0.05955 0.68356 0.19529 0.0
H378 H 0.02953 0.64193 0.17061 0.0
H379 H 0.01093 0.62831 0.13773 0.0
O380 O 0.05028 0.78714 0.12369 0.0
O381 O 0.11962 0.7574 0.13548 0.0
O382 O 0.14828 0.76884 0.10802 0.0
O383 O 0.06207 0.78791 0.1537 0.0
O384 O 0.09981 0.79811 0.10131 0.0
O385 O 0.13992 0.78957 0.0904 0.0
O386 O 0.22176 0.81937 0.12265 0.0
O387 O 0.15726 0.85124 0.10732 0.0
O388 O 0.12454 0.83919 0.13333 0.0
O389 O 0.21633 0.81935 0.09233 0.0
O390 O 0.17427 0.8117 0.14306 0.0
O391 O 0.13325 0.82038 0.15112 0.0
C392 C 0.13449 0.75034 0.12251 0.0
C393 C 0.01366 0.78883 0.14714 0.0
C394 C 0.97089 0.80036 0.14129 0.0
C395 C 0.95989 0.79071 0.15983 0.0
C396 C 1.00214 0.7793 0.16566 0.0
C397 C 0.97539 0.78018 0.17191 0.0
C398 C 0.99778 0.79927 0.13484 0.0
C399 C 0.11344 0.79075 0.08764 0.0
C400 C 0.04243 0.78807 0.14123 0.0
C401 C 0.03618 0.66084 0.16036 0.0
C402 C 0.02557 0.6531 0.14163 0.0
C403 C 0.14106 0.8581 0.11936 0.0
C404 C 0.2492 0.79968 0.10426 0.0
C405 C 0.29755 0.79569 0.10565 0.0
C406 C 0.28013 0.76454 0.09858 0.0
C407 C 0.23225 0.76848 0.09733 0.0
C408 C 0.28182 0.81309 0.10866 0.0
C409 C 0.24766 0.75097 0.09463 0.0
C410 C 0.15855 0.81867 0.15574 0.0
C411 C 0.23388 0.81921 0.10625 0.0
H412 H 0.93931 0.79154 0.165 0.0
H413 H 0.01382 0.77107 0.17536 0.0
H414 H 0.96674 0.77283 0.1862 0.0
H415 H 0.00651 0.80696 0.12058 0.0
H416 H 0.29167 0.75066 0.09619 0.0
H417 H 0.20721 0.75779 0.09386 0.0
H418 H 0.29513 0.83729 0.11392 0.0
H419 H 0.23446 0.7269 0.08926 0.0
Eu420 Eu 0.31075 0.0886 0.631 0.0
C421 C 0.33082 0.20805 0.58646 0.0
N422 N 0.34369 0.18903 0.58379 0.0
C423 C 0.33278 0.18677 0.55046 0.0
C424 C 0.31743 0.21622 0.57122 0.0
C425 C 0.34649 0.17999 0.56588 0.0
C426 C 0.31771 0.20451 0.55318 0.0
C427 C 0.32213 0.24302 0.60715 0.0
C428 C 0.33284 0.22115 0.60425 0.0
C429 C 0.30781 0.25026 0.59216 0.0
C430 C 0.30528 0.23674 0.57428 0.0
Eu431 Eu 0.36507 0.17853 0.61138 0.0
N432 N 0.34583 0.21299 0.61871 0.0
C433 C 0.32636 0.2571 0.62503 0.0
C434 C 0.35127 0.22756 0.63593 0.0
C435 C 0.34129 0.24956 0.63943 0.0
H436 H 0.35991 0.16819 0.56315 0.0
H437 H 0.34516 0.26073 0.65318 0.0
H438 H 0.33041 0.09685 0.67678 0.0
H439 H 0.32727 0.01888 0.57601 0.0
H440 H 0.36324 0.22204 0.64695 0.0
H441 H 0.31852 0.27405 0.6278 0.0
H442 H 0.30239 0.04701 0.59065 0.0
H443 H 0.33447 0.17889 0.53639 0.0
H444 H 0.29903 0.26665 0.59418 0.0
H445 H 0.29472 0.24305 0.56275 0.0
H446 H 0.36026 0.08185 0.6989 0.0
H447 H 0.30758 0.21017 0.54113 0.0
H448 H 0.36093 0.00477 0.59534 0.0
N449 N 0.33809 0.07468 0.65306 0.0
C450 C 0.34945 0.05589 0.64665 0.0
C451 C 0.35751 0.07453 0.68423 0.0
C452 C 0.36635 0.0465 0.65879 0.0
C453 C 0.34096 0.08331 0.67165 0.0
C454 C 0.3704 0.05618 0.67776 0.0
N455 N 0.32769 0.05562 0.61654 0.0
C456 C 0.31947 0.04384 0.59864 0.0
C457 C 0.35719 0.02812 0.62052 0.0
C458 C 0.34482 0.04681 0.62774 0.0
C459 C 0.35149 0.01875 0.60152 0.0
C460 C 0.33243 0.02657 0.59058 0.0
H461 H 0.38331 0.04953 0.68753 0.0
H462 H 0.39226 0.02097 0.66065 0.0
H463 H 0.38432 0.00493 0.62713 0.0
O464 O 0.26993 0.04007 0.62923 0.0
O465 O 0.36528 0.11543 0.63475 0.0
O466 O 0.38021 0.14232 0.60693 0.0
O467 O 0.2747 0.06961 0.65319 0.0
O468 O 0.30417 0.09645 0.5999 0.0
O469 O 0.35325 0.13748 0.5901 0.0
O470 O 0.41227 0.21009 0.62397 0.0
O471 O 0.31647 0.16383 0.6239 0.0
O472 O 0.28663 0.11163 0.61512 0.0
O473 O 0.4005 0.221 0.59658 0.0
O474 O 0.36778 0.17046 0.64337 0.0
O475 O 0.31808 0.12799 0.65111 0.0
C476 C 0.38681 0.12999 0.62146 0.0
C477 C 0.22254 0.03561 0.64162 0.0
C478 C 0.16728 0.99792 0.63319 0.0
C479 C 0.15979 0.02215 0.6354 0.0
C480 C 0.21425 0.05935 0.64396 0.0
C481 C 0.18308 0.05256 0.64092 0.0
C482 C 0.19873 0.00464 0.63643 0.0
C483 C 0.32551 0.11145 0.58657 0.0
C484 C 0.25601 0.04343 0.64408 0.0
C485 C 0.37899 0.02822 0.65157 0.0
C486 C 0.37454 0.01916 0.63247 0.0
C487 C 0.28908 0.1392 0.61904 0.0
C488 C 0.45532 0.24739 0.60441 0.0
C489 C 0.50764 0.29638 0.60489 0.0
C490 C 0.51775 0.28285 0.59075 0.0
C491 C 0.46616 0.23489 0.59033 0.0
C492 C 0.47612 0.27804 0.61177 0.0
C493 C 0.49732 0.2524 0.58373 0.0
C494 C 0.34503 0.15353 0.65579 0.0
C495 C 0.42153 0.23045 0.61006 0.0
H496 H 0.13568 0.01736 0.63315 0.0
H497 H 0.23192 0.08334 0.64797 0.0
H498 H 0.17698 0.071 0.64277 0.0
H499 H 0.20468 0.98604 0.63469 0.0
H500 H 0.54123 0.29609 0.58456 0.0
H501 H 0.45025 0.21203 0.58401 0.0
H502 H 0.46748 0.28767 0.62257 0.0
H503 H 0.50544 0.24268 0.57271 0.0
Eu504 Eu 0.69968 0.78941 0.37769 0.0
C505 C 0.67062 0.8824 0.42851 0.0
N506 N 0.66252 0.85148 0.43102 0.0
C507 C 0.67405 0.86074 0.4642 0.0
C508 C 0.6813 0.90391 0.44385 0.0
C509 C 0.66323 0.84024 0.44863 0.0
C510 C 0.68337 0.89278 0.46178 0.0
C511 C 0.67529 0.9243 0.40761 0.0
C512 C 0.66801 0.89258 0.41055 0.0
C513 C 0.68613 0.94579 0.42282 0.0
C514 C 0.68925 0.93565 0.44087 0.0
Eu515 Eu 0.64473 0.81894 0.40373 0.0
N516 N 0.65885 0.87165 0.39588 0.0
C517 C 0.67186 0.93356 0.38938 0.0
C518 C 0.65406 0.88017 0.37832 0.0
C519 C 0.66094 0.9113 0.37471 0.0
H520 H 0.65468 0.81534 0.45085 0.0
H521 H 0.65739 0.91799 0.36068 0.0
H522 H 0.70204 0.79738 0.33034 0.0
H523 H 0.65755 0.6823 0.42127 0.0
H524 H 0.64396 0.86283 0.36721 0.0
H525 H 0.67723 0.95768 0.38653 0.0
H526 H 0.68274 0.73956 0.41513 0.0
H527 H 0.67478 0.85172 0.47811 0.0
H528 H 0.69218 0.97031 0.42078 0.0
H529 H 0.69755 0.95249 0.45248 0.0
H530 H 0.68563 0.76289 0.30204 0.0
H531 H 0.69157 0.90858 0.4739 0.0
H532 H 0.63746 0.6444 0.39452 0.0
N533 N 0.68424 0.75875 0.34978 0.0
C534 C 0.67047 0.72676 0.35217 0.0
C535 C 0.6811 0.75242 0.31605 0.0
C536 C 0.66073 0.70621 0.33639 0.0
C537 C 0.69021 0.77185 0.33209 0.0
C538 C 0.66608 0.71945 0.3182 0.0
N539 N 0.6758 0.73477 0.38548 0.0
C540 C 0.67356 0.72359 0.40344 0.0
C541 C 0.65185 0.68129 0.37327 0.0
C542 C 0.66618 0.71443 0.37046 0.0
C543 C 0.64834 0.66968 0.39178 0.0
C544 C 0.65956 0.69098 0.40691 0.0
H545 H 0.65898 0.70444 0.30573 0.0
H546 H 0.6385 0.6571 0.32724 0.0
H547 H 0.63065 0.6353 0.35949 0.0
O548 O 0.74195 0.78696 0.38777 0.0
O549 O 0.64543 0.75805 0.37597 0.0
O550 O 0.63277 0.76795 0.40515 0.0
O551 O 0.73857 0.80073 0.35868 0.0
O552 O 0.70899 0.80372 0.40881 0.0
O553 O 0.66105 0.79088 0.42264 0.0
O554 O 0.59751 0.80869 0.39276 0.0
O555 O 0.69731 0.85608 0.40186 0.0
O556 O 0.71994 0.84259 0.37713 0.0
O557 O 0.60689 0.81089 0.42319 0.0
O558 O 0.63923 0.81069 0.37128 0.0
O559 O 0.6879 0.82041 0.35945 0.0
C560 C 0.62498 0.75075 0.38985 0.0
C561 C 0.78554 0.79801 0.36542 0.0
C562 C 0.83853 0.80706 0.37251 0.0
C563 C 0.84345 0.80474 0.35315 0.0
C564 C 0.79102 0.79568 0.34608 0.0
C565 C 0.81981 0.79903 0.34002 0.0
C566 C 0.80943 0.8036 0.37875 0.0
C567 C 0.68981 0.79404 0.42353 0.0
C568 C 0.7551 0.79536 0.37105 0.0
C569 C 0.64621 0.67323 0.3392 0.0
C570 C 0.64174 0.66081 0.35757 0.0
C571 C 0.72076 0.86241 0.39007 0.0
C572 C 0.55354 0.79722 0.41467 0.0
C573 C 0.50598 0.80232 0.41205 0.0
C574 C 0.49148 0.77927 0.42629 0.0
C575 C 0.5385 0.77434 0.42891 0.0
C576 C 0.53707 0.81109 0.40606 0.0
C577 C 0.50759 0.76527 0.43458 0.0
C578 C 0.6597 0.81757 0.35718 0.0
C579 C 0.58697 0.80771 0.40986 0.0
H580 H 0.86573 0.80735 0.3482 0.0
H581 H 0.77299 0.79127 0.33556 0.0
H582 H 0.82383 0.79726 0.32511 0.0
H583 H 0.80561 0.80556 0.39369 0.0
H584 H 0.46764 0.77225 0.43108 0.0
H585 H 0.55093 0.76375 0.43577 0.0
H586 H 0.54864 0.82919 0.39525 0.0
H587 H 0.49621 0.74763 0.44561 0.0
Eu588 Eu 0.91687 0.70153 0.88245 0.0
C589 C 0.7928 0.67596 0.92196 0.0
N590 N 0.81319 0.66586 0.92738 0.0
C591 C 0.81194 0.68137 0.95941 0.0
C592 C 0.7816 0.6898 0.9352 0.0
C593 C 0.82257 0.66795 0.94579 0.0
C594 C 0.79145 0.69243 0.95409 0.0
C595 C 0.76294 0.68377 0.89703 0.0
C596 C 0.78403 0.67338 0.90298 0.0
C597 C 0.75181 0.69765 0.91017 0.0
C598 C 0.76116 0.70071 0.92918 0.0
Eu599 Eu 0.82983 0.64345 0.90359 0.0
N600 N 0.7959 0.66063 0.89041 0.0
C601 C 0.75344 0.67969 0.87805 0.0
C602 C 0.78496 0.65474 0.87219 0.0
C603 C 0.76415 0.66472 0.86566 0.0
H604 H 0.83814 0.65912 0.95001 0.0
H605 H 0.756 0.66039 0.85112 0.0
H606 H 0.91367 0.69884 0.8355 0.0
H607 H 0.9969 0.6854 0.9299 0.0
H608 H 0.79117 0.64145 0.86266 0.0
H609 H 0.73728 0.68735 0.87293 0.0
H610 H 0.96093 0.70503 0.92039 0.0
H611 H 0.81952 0.68312 0.974 0.0
H612 H 0.73581 0.70597 0.90578 0.0
H613 H 0.75236 0.71148 0.93913 0.0
H614 H 0.93168 0.67891 0.80927 0.0
H615 H 0.78332 0.7029 0.96468 0.0
H616 H 0.01346 0.65886 0.90629 0.0
N617 N 0.93518 0.6849 0.85659 0.0
C618 C 0.95489 0.67333 0.86051 0.0
C619 C 0.93809 0.67656 0.82354 0.0
C620 C 0.96637 0.66197 0.84594 0.0
C621 C 0.92739 0.68748 0.83845 0.0
C622 C 0.95737 0.66332 0.82726 0.0
N623 N 0.95298 0.68533 0.8928 0.0
C624 C 0.96591 0.69131 0.91049 0.0
C625 C 0.98582 0.66325 0.88362 0.0
C626 C 0.96412 0.6736 0.87917 0.0
C627 C 0.99671 0.66643 0.90229 0.0
C628 C 0.98724 0.68118 0.91568 0.0
H629 H 0.9658 0.65496 0.81566 0.0
H630 H 0.99577 0.64126 0.83944 0.0
H631 H 0.01305 0.64265 0.8724 0.0
O632 O 0.95154 0.74764 0.89426 0.0
O633 O 0.89752 0.64763 0.87901 0.0
O634 O 0.86663 0.62858 0.90536 0.0
O635 O 0.94785 0.74108 0.86392 0.0
O636 O 0.91012 0.70378 0.91431 0.0
O637 O 0.87107 0.6536 0.92394 0.0
O638 O 0.78881 0.59672 0.89464 0.0
O639 O 0.85243 0.69671 0.90862 0.0
O640 O 0.87889 0.71562 0.88077 0.0
O641 O 0.80124 0.60794 0.92445 0.0
O642 O 0.83768 0.63944 0.8714 0.0
O643 O 0.87534 0.6906 0.86319 0.0
C644 C 0.88027 0.62415 0.89074 0.0
C645 C 0.99839 0.77694 0.87659 0.0
C646 C 0.04928 0.82529 0.88168 0.0
C647 C 0.065 0.80931 0.87534 0.0
C648 C 0.01447 0.76143 0.87021 0.0
C649 C 0.04763 0.77759 0.86962 0.0
C650 C 0.01584 0.80887 0.88225 0.0
C651 C 0.8971 0.68129 0.92724 0.0
C652 C 0.96355 0.76006 0.87784 0.0
C653 C 0.98685 0.65029 0.85044 0.0
C654 C 0.99662 0.65101 0.86922 0.0
C655 C 0.86508 0.71903 0.89577 0.0
C656 C 0.75725 0.5554 0.91854 0.0
C657 C 0.70638 0.50597 0.91455 0.0
C658 C 0.71193 0.49483 0.93171 0.0
C659 C 0.76199 0.54346 0.93562 0.0
C660 C 0.72915 0.53659 0.90799 0.0
C661 C 0.73947 0.51345 0.94213 0.0
C662 C 0.85299 0.6618 0.8584 0.0
C663 C 0.78216 0.58732 0.91217 0.0
H664 H 0.09073 0.82152 0.87448 0.0
H665 H 1.00148 0.73694 0.86565 0.0
H666 H 0.05991 0.76553 0.86462 0.0
H667 H 1.00339 0.82081 0.88727 0.0
H668 H 0.69467 0.47166 0.93722 0.0
H669 H 0.78333 0.55729 0.94396 0.0
H670 H 0.72517 0.54552 0.8948 0.0
H671 H 0.74338 0.50456 0.95534 0.0
Eu672 Eu 0.22223 0.91536 0.38116 0.0
C673 C 0.12551 0.79033 0.42627 0.0
N674 N 0.15582 0.81417 0.42968 0.0
C675 C 0.14261 0.81578 0.46227 0.0
C676 C 0.10235 0.77899 0.44075 0.0
C677 C 0.16484 0.82609 0.44757 0.0
C678 C 0.11118 0.79235 0.45883 0.0
C679 C 0.08641 0.75189 0.40443 0.0
C680 C 0.11759 0.77668 0.40833 0.0
C681 C 0.06332 0.74093 0.41877 0.0
C682 C 0.07127 0.75441 0.43687 0.0
Eu683 Eu 0.19148 0.82771 0.40381 0.0
N684 N 0.14011 0.78825 0.39451 0.0
C685 C 0.07924 0.73913 0.38612 0.0
C686 C 0.13361 0.77507 0.37685 0.0
C687 C 0.10298 0.75071 0.37229 0.0
H688 H 0.18931 0.84273 0.45093 0.0
H689 H 0.09779 0.74069 0.35818 0.0
H690 H 0.22237 0.90473 0.33435 0.0
H691 H 0.32117 0.98716 0.42933 0.0
H692 H 0.15201 0.78304 0.36625 0.0
H693 H 0.05552 0.72023 0.38254 0.0
H694 H 0.26504 0.95488 0.42006 0.0
H695 H 0.14989 0.82554 0.47636 0.0
H696 H 0.03923 0.72201 0.416 0.0
H697 H 0.05322 0.74552 0.44783 0.0
H698 H 0.26144 0.91797 0.30858 0.0
H699 H 0.09409 0.78425 0.47031 0.0
H700 H 0.3635 1.00149 0.40549 0.0
N701 N 0.25749 0.92729 0.35564 0.0
C702 C 0.28892 0.94621 0.35967 0.0
C703 C 0.2695 0.92582 0.3229 0.0
C704 C 0.31206 0.95504 0.34534 0.0
C705 C 0.24743 0.91786 0.33754 0.0
C706 C 0.30199 0.94434 0.32683 0.0
N707 N 0.27514 0.94722 0.39195 0.0
C708 C 0.28309 0.95904 0.40987 0.0
C709 C 0.33045 0.97591 0.3828 0.0
C710 C 0.29798 0.95628 0.37831 0.0
C711 C 0.33881 0.9864 0.40148 0.0
C712 C 0.315 0.97819 0.41502 0.0
H713 H 0.31905 0.95059 0.31544 0.0
H714 H 0.36248 0.98154 0.33904 0.0
H715 H 0.37846 1.00034 0.37169 0.0
O716 O 0.23037 0.96348 0.38619 0.0
O717 O 0.25131 0.89015 0.37763 0.0
O718 O 0.24225 0.86709 0.40643 0.0
O719 O 0.20698 0.93809 0.36003 0.0
O720 O 0.21019 0.91062 0.41236 0.0
O721 O 0.21843 0.87065 0.42399 0.0
O722 O 0.20588 0.7927 0.39421 0.0
O723 O 0.15288 0.83783 0.39364 0.0
O724 O 0.17346 0.8923 0.39519 0.0
O725 O 0.19425 0.79551 0.42375 0.0
O726 O 0.20105 0.83422 0.37157 0.0
O727 O 0.18807 0.87273 0.36371 0.0
C728 C 0.25994 0.87788 0.39136 0.0
C729 C 0.21427 0.99123 0.36397 0.0
C730 C 0.20521 0.03549 0.37046 0.0
C731 C 0.20752 0.04212 0.35099 0.0
C732 C 0.2164 0.99832 0.34458 0.0
C733 C 0.2132 0.02373 0.33817 0.0
C734 C 0.20892 0.01012 0.37703 0.0
C735 C 0.21588 0.89639 0.4264 0.0
C736 C 0.21714 0.9638 0.37021 0.0
C737 C 0.34436 0.97437 0.34988 0.0
C738 C 0.35349 0.98492 0.36851 0.0
C739 C 0.14936 0.8629 0.3953 0.0
C740 C 0.21058 0.75717 0.41781 0.0
C741 C 0.20833 0.70557 0.41524 0.0
C742 C 0.22241 0.71077 0.4333 0.0
C743 C 0.22498 0.76156 0.43567 0.0
C744 C 0.20219 0.72899 0.40753 0.0
C745 C 0.23075 0.73851 0.44332 0.0
C746 C 0.19186 0.84853 0.35909 0.0
C747 C 0.20194 0.78091 0.41127 0.0
H748 H 0.20473 0.06152 0.34571 0.0
H749 H 0.22068 0.98423 0.33436 0.0
H750 H 0.21492 0.02908 0.32318 0.0
H751 H 0.20709 0.00482 0.39205 0.0
H752 H 0.22659 0.69303 0.43991 0.0
H753 H 0.23135 0.78272 0.44392 0.0
H754 H 0.19073 0.7252 0.39385 0.0
H755 H 0.24144 0.742 0.45722 0.0
Eu756 Eu 0.31141 0.22259 0.88263 0.0
C757 C 0.33237 0.12072 0.92664 0.0
N758 N 0.34552 0.15237 0.93019 0.0
C759 C 0.33869 0.14239 0.96356 0.0
C760 C 0.32155 0.09854 0.94165 0.0
C761 C 0.34893 0.1635 0.94827 0.0
C762 C 0.325 0.10978 0.96025 0.0
C763 C 0.31326 0.07743 0.90391 0.0
C764 C 0.32812 0.11029 0.90788 0.0
C765 C 0.30289 0.05539 0.91886 0.0
C766 C 0.30704 0.0659 0.93765 0.0
Eu767 Eu 0.36393 0.18593 0.90358 0.0
N768 N 0.33755 0.1321 0.89359 0.0
C769 C 0.30914 0.0676 0.885 0.0
C770 C 0.33518 0.12259 0.87518 0.0
C771 C 0.32045 0.09031 0.8706 0.0
H772 H 0.3602 0.18874 0.95096 0.0
H773 H 0.31838 0.08299 0.85595 0.0
H774 H 0.32601 0.22843 0.83607 0.0
H775 H 0.3242 0.31397 0.93277 0.0
H776 H 0.34541 0.13951 0.8639 0.0
H777 H 0.29778 0.04259 0.88137 0.0
H778 H 0.30428 0.25931 0.92132 0.0
H779 H 0.34151 0.15128 0.9779 0.0
H780 H 0.29144 0.0301 0.91602 0.0
H781 H 0.29862 0.04855 0.94901 0.0
H782 H 0.35147 0.27024 0.81175 0.0
H783 H 0.31697 0.09347 0.97215 0.0
H784 H 0.35565 0.35956 0.9114 0.0
N785 N 0.33553 0.26084 0.85852 0.0
C786 C 0.34642 0.29158 0.86363 0.0
C787 C 0.35081 0.27664 0.82634 0.0
C788 C 0.36114 0.31632 0.85024 0.0
C789 C 0.33675 0.25298 0.84015 0.0
C790 C 0.36348 0.30851 0.83144 0.0
N791 N 0.32837 0.2738 0.89495 0.0
C792 C 0.31994 0.27899 0.91241 0.0
C793 C 0.35359 0.32988 0.88795 0.0
C794 C 0.34294 0.29823 0.88236 0.0
C795 C 0.34784 0.3356 0.90655 0.0
C796 C 0.33031 0.30996 0.9187 0.0
H797 H 0.37444 0.32682 0.8207 0.0
H798 H 0.38422 0.36727 0.84588 0.0
H799 H 0.37749 0.37914 0.87885 0.0
O800 O 0.26516 0.21763 0.89117 0.0
O801 O 0.36558 0.25208 0.87877 0.0
O802 O 0.3852 0.23899 0.9048 0.0
O803 O 0.27752 0.2185 0.86129 0.0
O804 O 0.30804 0.21191 0.91428 0.0
O805 O 0.3573 0.21962 0.92366 0.0
O806 O 0.40502 0.1844 0.89163 0.0
O807 O 0.31034 0.15767 0.90841 0.0
O808 O 0.29118 0.16937 0.88186 0.0
O809 O 0.40111 0.18759 0.92183 0.0
O810 O 0.36721 0.19609 0.87137 0.0
O811 O 0.31763 0.18844 0.86402 0.0
C812 C 0.3891 0.25736 0.89027 0.0
C813 C 0.22651 0.21403 0.86722 0.0
C814 C 0.17331 0.20521 0.87341 0.0
C815 C 0.17039 0.21087 0.85421 0.0
C816 C 0.22297 0.21951 0.84804 0.0
C817 C 0.19506 0.21788 0.84161 0.0
C818 C 0.20137 0.20661 0.87996 0.0
C819 C 0.3304 0.21958 0.92714 0.0
C820 C 0.25676 0.21678 0.87353 0.0
C821 C 0.3727 0.34792 0.85595 0.0
C822 C 0.36892 0.35468 0.87475 0.0
C823 C 0.28705 0.15117 0.89654 0.0
C824 C 0.45276 0.20394 0.90978 0.0
C825 C 0.50452 0.20731 0.90585 0.0
C826 C 0.51928 0.23805 0.91361 0.0
C827 C 0.46801 0.23431 0.91801 0.0
C828 C 0.47112 0.19027 0.90396 0.0
C829 C 0.5011 0.25134 0.91973 0.0
C830 C 0.34493 0.19134 0.85883 0.0
C831 C 0.41773 0.18549 0.90807 0.0
H832 H 0.1488 0.20964 0.84896 0.0
H833 H 0.24191 0.22531 0.83794 0.0
H834 H 0.19259 0.22215 0.82683 0.0
H835 H 0.20364 0.20222 0.89478 0.0
H836 H 0.54491 0.25158 0.91525 0.0
H837 H 0.45435 0.2449 0.92306 0.0
H838 H 0.4595 0.16652 0.89798 0.0
H839 H 0.51271 0.27487 0.92593 0.0
Eu840 Eu 0.09403 0.30878 0.38135 0.0
C841 C 0.21371 0.33188 0.42724 0.0
N842 N 0.19307 0.34283 0.43001 0.0
C843 C 0.19068 0.33088 0.4632 0.0
C844 C 0.2228 0.31907 0.44236 0.0
C845 C 0.18293 0.34403 0.4479 0.0
C846 C 0.21033 0.31792 0.46038 0.0
C847 C 0.25046 0.32613 0.40646 0.0
C848 C 0.22731 0.33513 0.40947 0.0
C849 C 0.25879 0.31254 0.42135 0.0
C850 C 0.24488 0.30887 0.43922 0.0
Eu851 Eu 0.18205 0.36452 0.40277 0.0
N852 N 0.21827 0.34757 0.39513 0.0
C853 C 0.26475 0.33133 0.38857 0.0
C854 C 0.23302 0.35399 0.37792 0.0
C855 C 0.25619 0.3456 0.3743 0.0
H856 H 0.16962 0.35588 0.45075 0.0
H857 H 0.26753 0.35027 0.36055 0.0
H858 H 0.10214 0.31421 0.33413 0.0
H859 H 0.02489 0.3413 0.42818 0.0
H860 H 0.22684 0.36558 0.36701 0.0
H861 H 0.28269 0.32482 0.38573 0.0
H862 H 0.05664 0.31641 0.42 0.0
H863 H 0.18207 0.33141 0.47726 0.0
H864 H 0.27629 0.30518 0.41926 0.0
H865 H 0.25199 0.29886 0.45067 0.0
H866 H 0.08757 0.33715 0.3074 0.0
H867 H 0.2167 0.30824 0.47234 0.0
H868 H 0.00966 0.36696 0.40322 0.0
N869 N 0.081 0.32941 0.35491 0.0
C870 C 0.06217 0.3422 0.35837 0.0
C871 C 0.08057 0.33906 0.32168 0.0
C872 C 0.05278 0.3551 0.34348 0.0
C873 C 0.0893 0.32659 0.33688 0.0
C874 C 0.06247 0.35364 0.325 0.0
N875 N 0.06222 0.33037 0.39112 0.0
C876 C 0.05162 0.3288 0.40918 0.0
C877 C 0.03374 0.35668 0.3809 0.0
C878 C 0.05272 0.34291 0.37695 0.0
C879 C 0.02423 0.35661 0.39962 0.0
C880 C 0.03294 0.34231 0.41377 0.0
H881 H 0.05573 0.36329 0.31319 0.0
H882 H 0.0268 0.37919 0.33621 0.0
H883 H 0.01019 0.38062 0.36891 0.0
O884 O 0.04451 0.26987 0.38542 0.0
O885 O 0.11832 0.36323 0.37838 0.0
O886 O 0.14462 0.37831 0.40641 0.0
O887 O 0.07363 0.26871 0.36193 0.0
O888 O 0.09871 0.30243 0.41274 0.0
O889 O 0.13994 0.35069 0.42361 0.0
O890 O 0.21495 0.41146 0.39051 0.0
O891 O 0.16973 0.31659 0.39037 0.0
O892 O 0.11709 0.28516 0.39775 0.0
O893 O 0.22147 0.40093 0.41936 0.0
O894 O 0.17457 0.36812 0.37075 0.0
O895 O 0.1352 0.31734 0.36241 0.0
C896 C 0.13243 0.38471 0.39172 0.0
C897 C 0.01955 0.22519 0.36329 0.0
C898 C 0.97328 0.17267 0.36821 0.0
C899 C 0.96685 0.17061 0.34871 0.0
C900 C 0.01297 0.22255 0.34382 0.0
C901 C 0.98667 0.19538 0.3366 0.0
C902 C 0.99973 0.20008 0.37553 0.0
C903 C 0.11364 0.32284 0.42648 0.0
C904 C 0.04632 0.25471 0.37071 0.0
C905 C 0.03413 0.36904 0.34747 0.0
C906 C 0.02469 0.36987 0.3661 0.0
C907 C 0.14539 0.28875 0.39476 0.0
C908 C 0.25076 0.4554 0.41002 0.0
C909 C 0.29983 0.50687 0.40736 0.0
C910 C 0.28615 0.52034 0.41896 0.0
C911 C 0.23829 0.46902 0.42234 0.0
C912 C 0.28179 0.47432 0.40278 0.0
C913 C 0.25568 0.50147 0.42646 0.0
C914 C 0.1596 0.34532 0.35802 0.0
C915 C 0.23301 0.42122 0.40549 0.0
H916 H 0.94663 0.14959 0.34284 0.0
H917 H 0.0279 0.24175 0.33424 0.0
H918 H 0.9816 0.19354 0.32158 0.0
H919 H 1.00474 0.20188 0.39059 0.0
H920 H 0.2995 0.54527 0.42279 0.0
H921 H 0.21549 0.45454 0.42907 0.0
H922 H 0.292 0.46364 0.39378 0.0
H923 H 0.24579 0.51191 0.43585 0.0
Eu924 Eu 0.79204 0.09475 0.87819 0.0
C925 C 0.88512 0.21873 0.92656 0.0
N926 N 0.85465 0.19527 0.92973 0.0
C927 C 0.86627 0.19387 0.96261 0.0
C928 C 0.90755 0.23044 0.94144 0.0
C929 C 0.84481 0.18314 0.94748 0.0
C930 C 0.8978 0.21754 0.95958 0.0
C931 C 0.9256 0.25507 0.90464 0.0
C932 C 0.89411 0.23062 0.90827 0.0
C933 C 0.94787 0.26691 0.91947 0.0
C934 C 0.93891 0.25454 0.93778 0.0
Eu935 Eu 0.8203 0.17946 0.90332 0.0
N936 N 0.87251 0.21757 0.89395 0.0
C937 C 0.93399 0.2664 0.8861 0.0
C938 C 0.88032 0.22946 0.876 0.0
C939 C 0.9112 0.25365 0.87176 0.0
H940 H 0.8203 0.16564 0.95016 0.0
H941 H 0.91728 0.26275 0.85745 0.0
H942 H 0.79797 0.10596 0.83115 0.0
H943 H 0.68807 0.02017 0.92182 0.0
H944 H 0.86279 0.22127 0.86494 0.0
H945 H 0.95793 0.28508 0.88273 0.0
H946 H 0.74486 0.05436 0.91514 0.0
H947 H 0.85839 0.18409 0.97665 0.0
H948 H 0.97219 0.28547 0.91688 0.0
H949 H 0.95644 0.26381 0.94904 0.0
H950 H 0.76223 0.09224 0.80349 0.0
H951 H 0.91435 0.22585 0.97135 0.0
H952 H 0.64843 0.00626 0.89619 0.0
N953 N 0.7602 0.08221 0.85085 0.0
C954 C 0.72835 0.0632 0.85349 0.0
C955 C 0.75238 0.08409 0.81748 0.0
C956 C 0.70709 0.05446 0.83809 0.0
C957 C 0.77253 0.09214 0.83318 0.0
C958 C 0.7195 0.06536 0.81996 0.0
N959 N 0.73801 0.06181 0.88637 0.0
C960 C 0.72803 0.04968 0.90404 0.0
C961 C 0.68403 0.0328 0.87484 0.0
C962 C 0.71694 0.05266 0.87172 0.0
C963 C 0.6735 0.02172 0.89321 0.0
C964 C 0.6957 0.02977 0.90778 0.0
H965 H 0.70395 0.05916 0.80776 0.0
H966 H 0.65757 0.02816 0.82958 0.0
H967 H 0.63745 0.00892 0.86168 0.0
O968 O 0.79393 0.05201 0.88753 0.0
O969 O 0.76008 0.11714 0.87615 0.0
O970 O 0.76929 0.14042 0.90507 0.0
O971 O 0.80154 0.06719 0.85789 0.0
O972 O 0.80293 0.09825 0.9098 0.0
O973 O 0.79162 0.13549 0.92239 0.0
O974 O 0.81197 0.21815 0.89338 0.0
O975 O 0.8563 0.16242 0.90432 0.0
O976 O 0.84504 0.12892 0.87859 0.0
O977 O 0.81086 0.2075 0.92355 0.0
O978 O 0.81085 0.17484 0.87097 0.0
O979 O 0.82546 0.13854 0.8615 0.0
C980 C 0.75167 0.12946 0.88998 0.0
C981 C 0.80501 0.02023 0.86471 0.0
C982 C 0.81048 0.97397 0.87189 0.0
C983 C 0.81526 0.97107 0.85256 0.0
C984 C 0.80987 0.0167 0.84543 0.0
C985 C 0.815 0.99233 0.83945 0.0
C986 C 0.80547 0.99873 0.87806 0.0
C987 C 0.79457 0.10985 0.92413 0.0
C988 C 0.80016 0.04684 0.87035 0.0
C989 C 0.67427 0.03509 0.84124 0.0
C990 C 0.6628 0.02421 0.85954 0.0
C991 C 0.86335 0.14566 0.89272 0.0
C992 C 0.80142 0.25076 0.91581 0.0
C993 C 0.80506 0.3026 0.91099 0.0
C994 C 0.78663 0.29718 0.9274 0.0
C995 C 0.78316 0.2463 0.93214 0.0
C996 C 0.81263 0.27922 0.90521 0.0
C997 C 0.77584 0.26932 0.93785 0.0
C998 C 0.81975 0.16165 0.85769 0.0
C999 C 0.80898 0.22566 0.91067 0.0
H1000 H 0.8192 0.95219 0.84761 0.0
H1001 H 0.80978 0.03284 0.83486 0.0
H1002 H 0.81875 0.9899 0.82458 0.0
H1003 H 0.80183 1.00107 0.89298 0.0
H1004 H 0.78084 0.31484 0.93232 0.0
H1005 H 0.77439 0.22483 0.94054 0.0
H1006 H 0.82702 0.28315 0.89268 0.0
H1007 H 0.76179 0.2656 0.95049 0.0
H1008 H 0.18451 0.90882 0.13893 0.0
H1009 H 0.19843 0.96411 0.135 0.0
H1010 H 0.11934 0.93479 0.09643 0.0
H1011 H 0.1089 0.87977 0.09824 0.0
H1012 H 0.16175 0.98704 0.0846 0.0
H1013 H 0.12028 0.95508 0.14737 0.0
H1014 H 0.11607 0.93273 0.17934 0.0
H1015 H 0.21231 0.00498 0.19139 0.0
H1016 H 0.21726 0.02738 0.1594 0.0
H1017 H 0.1549 0.12986 0.11712 0.0
H1018 H 0.14397 0.07713 0.10631 0.0
H1019 H 0.24037 0.10222 0.11993 0.0
H1020 H 0.25129 0.15463 0.13058 0.0
H1021 H 0.18607 0.05236 0.14275 0.0
H1022 H 0.22387 0.08512 0.07876 0.0
H1023 H 0.22378 0.10684 0.0472 0.0
H1024 H 0.12724 0.03248 0.03843 0.0
H1025 H 0.12656 0.01065 0.0701 0.0
C1026 C 0.17066 0.91441 0.12934 0.0
C1027 C 0.14603 0.89044 0.11875 0.0
C1028 C 0.17809 0.94595 0.12737 0.0
C1029 C 0.15931 0.95383 0.11589 0.0
C1030 C 0.1342 0.92953 0.10544 0.0
C1031 C 0.12792 0.89809 0.10665 0.0
C1032 C 0.16577 0.98727 0.11507 0.0
C1033 C 0.16657 1.0011 0.09738 0.0
C1034 C 0.17227 0.00601 0.13165 0.0
C1035 C 0.16918 0.99275 0.15097 0.0
C1036 C 0.14057 0.96608 0.15683 0.0
C1037 C 0.13808 0.95339 0.17494 0.0
C1038 C 0.16394 0.96736 0.18738 0.0
C1039 C 0.19232 0.99411 0.18175 0.0
C1040 C 0.19498 0.00684 0.16363 0.0
C1041 C 0.17411 0.12458 0.11684 0.0
C1042 C 0.20392 0.14605 0.12467 0.0
C1043 C 0.16786 0.09452 0.11071 0.0
C1044 C 0.19138 0.08587 0.1124 0.0
C1045 C 0.22202 0.10858 0.1184 0.0
C1046 C 0.22826 0.13847 0.12446 0.0
C1047 C 0.18252 0.05196 0.11239 0.0
C1048 C 0.18106 0.03809 0.13002 0.0
C1049 C 0.17465 0.03321 0.09586 0.0
C1050 C 0.17504 0.04652 0.07691 0.0
C1051 C 0.20248 0.07365 0.07022 0.0
C1052 C 0.2026 0.08592 0.05227 0.0
C1053 C 0.17548 0.07112 0.04084 0.0
C1054 C 0.1482 0.04397 0.04732 0.0
C1055 C 0.14795 0.03164 0.06526 0.0
H1056 H 0.17564 0.08064 0.02695 0.0
H1057 H 0.16194 0.9575 0.2014 0.0
H1058 H 0.22797 0.09488 0.60833 0.0
H1059 H 0.18111 0.10104 0.60841 0.0
H1060 H 0.24019 0.19963 0.62468 0.0
H1061 H 0.28401 0.19047 0.62941 0.0
H1062 H 0.19439 0.18648 0.64009 0.0
H1063 H 0.20104 0.16113 0.57468 0.0
H1064 H 0.20357 0.12855 0.54868 0.0
H1065 H 0.11288 0.05034 0.56535 0.0
H1066 H 0.11002 0.08235 0.59158 0.0
H1067 H 0.08549 0.23567 0.62069 0.0
H1068 H 0.12648 0.22387 0.60979 0.0
H1069 H 0.06579 0.12519 0.62461 0.0
H1070 H 0.02479 0.13701 0.63543 0.0
H1071 H 0.10933 0.13758 0.59163 0.0
H1072 H 0.11024 0.1708 0.65845 0.0
H1073 H 0.11143 0.20949 0.6816 0.0
H1074 H 0.19573 0.28401 0.65537 0.0
H1075 H 0.19504 0.24572 0.63213 0.0
C1076 C 0.2307 0.11768 0.61223 0.0
C1077 C 0.26037 0.14271 0.61818 0.0
C1078 C 0.20389 0.12153 0.61177 0.0
C1079 C 0.20664 0.1513 0.61576 0.0
C1080 C 0.23659 0.17625 0.62146 0.0
C1081 C 0.26243 0.17148 0.62349 0.0
C1082 C 0.17862 0.15657 0.61512 0.0
C1083 C 0.17659 0.17628 0.62901 0.0
C1084 C 0.15415 0.14293 0.6012 0.0
C1085 C 0.15542 0.12404 0.58513 0.0
C1086 C 0.18166 0.13698 0.57278 0.0
C1087 C 0.18317 0.1186 0.55803 0.0
C1088 C 0.15842 0.08738 0.55538 0.0
C1089 C 0.13204 0.07452 0.56742 0.0
C1090 C 0.13043 0.09277 0.58221 0.0
C1091 C 0.08033 0.21122 0.62067 0.0
C1092 C 0.05199 0.18715 0.62867 0.0
C1093 C 0.10378 0.20451 0.61456 0.0
C1094 C 0.09926 0.17369 0.61656 0.0
C1095 C 0.06967 0.14905 0.62282 0.0
C1096 C 0.04625 0.15578 0.62895 0.0
C1097 C 0.12689 0.16847 0.61581 0.0
C1098 C 0.12818 0.14831 0.60209 0.0
C1099 C 0.1517 0.18294 0.62922 0.0
C1100 C 0.15249 0.20552 0.64356 0.0
C1101 C 0.12898 0.19545 0.65765 0.0
C1102 C 0.12956 0.21729 0.67076 0.0
C1103 C 0.15353 0.2492 0.6699 0.0
C1104 C 0.17715 0.2593 0.65602 0.0
C1105 C 0.17674 0.23754 0.64292 0.0
H1106 H 0.15386 0.26609 0.68002 0.0
H1107 H 0.15967 0.07317 0.54398 0.0
H1108 H 0.88093 0.01932 0.12461 0.0
H1109 H 0.93379 0.05974 0.11327 0.0
H1110 H 0.90928 0.13269 0.12258 0.0
H1111 H 0.85659 0.09234 0.13382 0.0
H1112 H 0.95157 0.14662 0.09179 0.0
H1113 H 0.94005 0.1126 0.15784 0.0
H1114 H 0.9246 0.0712 0.18236 0.0
H1115 H 0.99058 0.04548 0.15942 0.0
H1116 H 0.00601 0.08642 0.13456 0.0
H1117 H 0.0895 0.28538 0.12024 0.0
H1118 H 0.03723 0.23812 0.11711 0.0
H1119 H 0.08087 0.17944 0.11792 0.0
H1120 H 0.13354 0.22739 0.12114 0.0
H1121 H 0.03074 0.15349 0.13896 0.0
H1122 H 0.04972 0.19326 0.07634 0.0
H1123 H 0.06449 0.23249 0.05058 0.0
H1124 H 0.98595 0.2458 0.06486 0.0
H1125 H 0.97102 0.20707 0.09095 0.0
C1126 C 0.88641 0.04379 0.12335 0.0
C1127 C 0.86482 0.05285 0.12993 0.0
C1128 C 0.91663 0.06688 0.11702 0.0
C1129 C 0.92562 0.09929 0.11735 0.0
C1130 C 0.90286 0.10787 0.12216 0.0
C1131 C 0.87276 0.08484 0.12853 0.0
C1132 C 0.95963 0.12445 0.11589 0.0
C1133 C 0.96895 0.14823 0.10207 0.0
C1134 C 0.98248 0.12613 0.12903 0.0
C1135 C 0.97395 0.10229 0.14429 0.0
C1136 C 0.95116 0.09801 0.15801 0.0
C1137 C 0.94239 0.07463 0.17194 0.0
C1138 C 0.95655 0.05567 0.17243 0.0
C1139 C 0.9796 0.06014 0.15901 0.0
C1140 C 0.98837 0.08342 0.145 0.0
C1141 C 0.088 0.26256 0.11931 0.0
C1142 C 0.11555 0.26016 0.12042 0.0
C1143 C 0.05806 0.2354 0.11759 0.0
C1144 C 0.05501 0.20509 0.11672 0.0
C1145 C 0.08256 0.20254 0.11835 0.0
C1146 C 0.11259 0.22986 0.12026 0.0
C1147 C 0.02289 0.17622 0.11497 0.0
C1148 C 0.01378 0.15177 0.12833 0.0
C1149 C 1.0004 0.17385 0.10125 0.0
C1150 C 0.00933 0.19733 0.08565 0.0
C1151 C 0.03573 0.20472 0.07408 0.0
C1152 C 0.0441 0.22683 0.05941 0.0
C1153 C 0.02607 0.24149 0.05603 0.0
C1154 C 0.99979 0.2343 0.06744 0.0
C1155 C 0.99136 0.21225 0.08217 0.0
H1156 H 0.03247 0.25842 0.04457 0.0
H1157 H 0.94971 0.03755 0.18322 0.0
H1158 H 0.76164 0.85927 0.63326 0.0
H1159 H 0.7786 0.91264 0.62152 0.0
H1160 H 0.87375 0.92896 0.61332 0.0
H1161 H 0.85677 0.87529 0.62539 0.0
H1162 H 0.87374 0.97382 0.63514 0.0
H1163 H 0.83042 0.93068 0.57499 0.0
H1164 H 0.7915 0.89448 0.55153 0.0
H1165 H 0.72421 0.92173 0.56997 0.0
H1166 H 0.76257 0.95782 0.59369 0.0
H1167 H 0.91186 0.13351 0.61255 0.0
H1168 H 0.90625 0.08042 0.60944 0.0
H1169 H 0.80558 0.03724 0.62058 0.0
H1170 H 0.81165 0.09 0.62423 0.0
H1171 H 0.81718 0.00829 0.591 0.0
H1172 H 0.85567 0.04163 0.65493 0.0
H1173 H 0.8935 0.07785 0.67886 0.0
H1174 H 0.96858 0.06811 0.65345 0.0
H1175 H 0.93118 0.03205 0.62926 0.0
C1176 C 0.78601 0.874 0.62858 0.0
C1177 C 0.80797 0.86334 0.63045 0.0
C1178 C 0.79564 0.90442 0.62169 0.0
C1179 C 0.82744 0.92484 0.61646 0.0
C1180 C 0.84906 0.91356 0.61723 0.0
C1181 C 0.83934 0.88291 0.62405 0.0
C1182 C 0.83856 0.959 0.61298 0.0
C1183 C 0.86201 0.98147 0.62506 0.0
C1184 C 0.82279 0.96896 0.60018 0.0
C1185 C 0.79936 0.94684 0.58619 0.0
C1186 C 0.80722 0.92874 0.57416 0.0
C1187 C 0.78528 0.90829 0.56078 0.0
C1188 C 0.75539 0.90578 0.55927 0.0
C1189 C 0.74738 0.92371 0.57114 0.0
C1190 C 0.76924 0.94421 0.58453 0.0
C1191 C 0.88862 0.11254 0.61429 0.0
C1192 C 0.86186 0.11555 0.61803 0.0
C1193 C 0.8854 0.08235 0.61247 0.0
C1194 C 0.85541 0.05486 0.61458 0.0
C1195 C 0.82881 0.05806 0.6185 0.0
C1196 C 0.83212 0.08816 0.62038 0.0
C1197 C 0.85158 0.02261 0.61351 0.0
C1198 C 0.82947 1.00064 0.60066 0.0
C1199 C 0.86838 0.01299 0.62567 0.0
C1200 C 0.8908 0.03452 0.64019 0.0
C1201 C 0.88031 0.04743 0.65438 0.0
C1202 C 0.90164 0.06787 0.668 0.0
C1203 C 0.93345 0.07536 0.66764 0.0
C1204 C 0.94395 0.06233 0.65369 0.0
C1205 C 0.92271 0.04188 0.64004 0.0
H1206 H 0.94993 0.0912 0.67819 0.0
H1207 H 0.73845 0.88996 0.54889 0.0
H1208 H 0.98044 0.86012 0.14077 0.0
H1209 H 0.94224 0.87575 0.12988 0.0
H1210 H 0.88359 0.78242 0.10598 0.0
H1211 H 0.92189 0.76673 0.11695 0.0
H1212 H 0.88497 0.83986 0.08548 0.0
H1213 H 0.86309 0.7837 0.14633 0.0
H1214 H 0.88098 0.77591 0.17758 0.0
H1215 H 0.91178 0.87293 0.19224 0.0
H1216 H 0.89415 0.88125 0.161 0.0
H1217 H 0.73511 0.83129 0.09043 0.0
H1218 H 0.77978 0.82217 0.09043 0.0
H1219 H 0.82247 0.88938 0.13629 0.0
H1220 H 0.77517 0.89469 0.13809 0.0
H1221 H 0.83129 0.84559 0.14393 0.0
H1222 H 0.84736 0.90131 0.08482 0.0
H1223 H 0.83184 0.91089 0.05328 0.0
H1224 H 0.81561 0.81993 0.0343 0.0
H1225 H 0.83065 0.80965 0.0658 0.0
C1226 C 0.96017 0.84352 0.13239 0.0
C1227 C 0.95414 0.81241 0.12946 0.0
C1228 C 0.93834 0.85239 0.12623 0.0
C1229 C 0.91009 0.8302 0.11717 0.0
C1230 C 0.90542 0.79997 0.11274 0.0
C1231 C 0.92726 0.79104 0.11898 0.0
C1232 C 0.88321 0.83644 0.11585 0.0
C1233 C 0.87299 0.84101 0.09817 0.0
C1234 C 0.86804 0.8384 0.13242 0.0
C1235 C 0.8775 0.83311 0.15139 0.0
C1236 C 0.87372 0.80334 0.15624 0.0
C1237 C 0.88378 0.79883 0.17393 0.0
C1238 C 0.89759 0.82393 0.18688 0.0
C1239 C 0.90111 0.85352 0.1822 0.0
C1240 C 0.891 0.85812 0.16454 0.0
C1241 C 0.75341 0.84335 0.10089 0.0
C1242 C 0.75064 0.86252 0.11478 0.0
C1243 C 0.7797 0.83891 0.10051 0.0
C1244 C 0.80514 0.85541 0.11317 0.0
C1245 C 0.80319 0.87602 0.12643 0.0
C1246 C 0.77612 0.87921 0.1274 0.0
C1247 C 0.83284 0.84992 0.11344 0.0
C1248 C 0.8432 0.84505 0.13106 0.0
C1249 C 0.84828 0.84818 0.09674 0.0
C1250 C 0.83995 0.85466 0.07769 0.0
C1251 C 0.8404 0.88333 0.07393 0.0
C1252 C 0.83167 0.88887 0.05606 0.0
C1253 C 0.8227 0.86601 0.0418 0.0
C1254 C 0.82256 0.83761 0.04535 0.0
C1255 C 0.83123 0.83194 0.0632 0.0
H1256 H 0.81592 0.87033 0.02798 0.0
H1257 H 0.90551 0.82044 0.20054 0.0
H1258 H 0.90235 0.74079 0.58898 0.0
H1259 H 0.95611 0.78682 0.58841 0.0
H1260 H 0.95112 0.7984 0.64873 0.0
H1261 H 0.89671 0.75381 0.64905 0.0
H1262 H 0.97593 0.85233 0.63536 0.0
H1263 H 0.0086 0.77191 0.62553 0.0
H1264 H 0.0105 0.72745 0.60997 0.0
H1265 H 0.02279 0.77274 0.55584 0.0
H1266 H 0.02245 0.8182 0.57131 0.0
H1267 H 0.14303 0.94418 0.65463 0.0
H1268 H 0.09301 0.89413 0.64904 0.0
H1269 H 0.08292 0.92948 0.59496 0.0
H1270 H 0.13235 0.9799 0.60079 0.0
H1271 H 0.06734 0.85422 0.60266 0.0
H1272 H 0.0404 0.93788 0.61497 0.0
H1273 H 0.04957 0.9851 0.63316 0.0
H1274 H 0.02871 0.93167 0.68491 0.0
H1275 H 0.01994 0.88428 0.66697 0.0
C1276 C 0.91281 0.75317 0.60212 0.0
C1277 C 0.89515 0.74379 0.61903 0.0
C1278 C 0.94383 0.77933 0.60184 0.0
C1279 C 0.95829 0.79613 0.61858 0.0
C1280 C 0.94073 0.7862 0.63554 0.0
C1281 C 0.90951 0.76058 0.63574 0.0
C1282 C 0.99087 0.82499 0.61847 0.0
C1283 C 0.99575 0.8523 0.62829 0.0
C1284 C 0.01713 0.82605 0.60893 0.0
C1285 C 0.01504 0.79803 0.59948 0.0
C1286 C 0.01142 0.77217 0.6103 0.0
C1287 C 0.01253 0.74699 0.60152 0.0
C1288 C 0.01649 0.74712 0.58189 0.0
C1289 C 0.01966 0.77262 0.57103 0.0
C1290 C 0.01932 0.79823 0.5798 0.0
C1291 C 0.13056 0.94083 0.64135 0.0
C1292 C 0.14146 0.96567 0.62809 0.0
C1293 C 0.10203 0.91238 0.63819 0.0
C1294 C 0.08437 0.90824 0.6216 0.0
C1295 C 0.09633 0.93222 0.60779 0.0
C1296 C 0.12449 0.96091 0.61111 0.0
C1297 C 0.05187 0.88049 0.61974 0.0
C1298 C 0.04717 0.85381 0.60956 0.0
C1299 C 0.02583 0.87986 0.629 0.0
C1300 C 0.02975 0.90775 0.63969 0.0
C1301 C 0.03793 0.93631 0.63024 0.0
C1302 C 0.04304 0.96307 0.64049 0.0
C1303 C 0.03977 0.96141 0.66019 0.0
C1304 C 0.03124 0.93293 0.66965 0.0
C1305 C 0.02617 0.90611 0.65945 0.0
H1306 H 0.04381 0.98217 0.66811 0.0
H1307 H 0.01719 0.7275 0.57511 0.0
H1308 H 0.13057 0.90684 0.40271 0.0
H1309 H 0.07618 0.8976 0.4044 0.0
H1310 H 0.03932 0.79808 0.3925 0.0
H1311 H 0.09319 0.80773 0.38917 0.0
H1312 H 0.00941 0.81821 0.37228 0.0
H1313 H 0.03668 0.82675 0.43771 0.0
H1314 H 0.06947 0.85176 0.46604 0.0
H1315 H 0.05481 0.93154 0.45984 0.0
H1316 H 0.02238 0.90725 0.43124 0.0
H1317 H 0.85038 0.76322 0.38804 0.0
H1318 H 0.90244 0.77328 0.39916 0.0
H1319 H 0.93866 0.87434 0.39547 0.0
H1320 H 0.88641 0.8642 0.3844 0.0
H1321 H 0.96779 0.85317 0.42572 0.0
H1322 H 0.94757 0.84627 0.35735 0.0
H1323 H 0.91542 0.82037 0.32889 0.0
H1324 H 0.91578 0.7343 0.34256 0.0
H1325 H 0.9482 0.75989 0.37103 0.0
C1326 C 0.1109 0.88297 0.40048 0.0
C1327 C 0.11644 0.85774 0.39641 0.0
C1328 C 0.07975 0.87767 0.40164 0.0
C1329 C 0.05352 0.84697 0.39903 0.0
C1330 C 0.05906 0.82192 0.39479 0.0
C1331 C 0.09005 0.82735 0.39325 0.0
C1332 C 0.02029 0.84101 0.39963 0.0
C1333 C 1.00037 0.8255 0.38416 0.0
C1334 C 0.00833 0.8509 0.41491 0.0
C1335 C 0.02739 0.86535 0.43223 0.0
C1336 C 0.04064 0.84974 0.44231 0.0
C1337 C 0.05915 0.86377 0.45842 0.0
C1338 C 0.0643 0.89326 0.46471 0.0
C1339 C 0.05085 0.90873 0.45493 0.0
C1340 C 0.03239 0.89484 0.43877 0.0
C1341 C 0.869 0.78751 0.3906 0.0
C1342 C 0.86454 0.81297 0.3856 0.0
C1343 C 0.89874 0.79327 0.39683 0.0
C1344 C 0.92442 0.82455 0.39794 0.0
C1345 C 0.91908 0.85007 0.39482 0.0
C1346 C 0.88928 0.84429 0.38856 0.0
C1347 C 0.95739 0.83025 0.39851 0.0
C1348 C 0.97711 0.84579 0.41404 0.0
C1349 C 0.96928 0.82016 0.3834 0.0
C1350 C 0.95004 0.80486 0.3663 0.0
C1351 C 0.94069 0.8218 0.35428 0.0
C1352 C 0.92252 0.80722 0.33814 0.0
C1353 C 0.91343 0.77566 0.33397 0.0
C1354 C 0.92277 0.75872 0.34583 0.0
C1355 C 0.94116 0.77328 0.36191 0.0
H1356 H 0.89922 0.76436 0.32151 0.0
H1357 H 0.07865 0.90411 0.47718 0.0
H1358 H 0.10196 0.85379 0.90425 0.0
H1359 H 0.13628 0.9108 0.91014 0.0
H1360 H 0.07324 0.93047 0.87714 0.0
H1361 H 0.03881 0.87345 0.87114 0.0
H1362 H 0.1384 0.96264 0.86546 0.0
H1363 H 0.07656 0.94315 0.92272 0.0
H1364 H 0.05317 0.91555 0.95285 0.0
H1365 H 0.14638 0.94351 0.97427 0.0
H1366 H 0.17031 0.97096 0.94418 0.0
H1367 H 0.2344 0.12746 0.87371 0.0
H1368 H 0.18779 0.07429 0.87447 0.0
H1369 H 0.22722 0.05039 0.92242 0.0
H1370 H 0.27109 0.10475 0.92339 0.0
H1371 H 0.16997 0.0199 0.92682 0.0
H1372 H 0.23301 0.03145 0.87203 0.0
H1373 H 0.26135 0.05536 0.84216 0.0
H1374 H 0.17381 0.03757 0.8163 0.0
H1375 H 0.145 0.01387 0.84608 0.0
C1376 C 0.09526 0.87027 0.89843 0.0
C1377 C 0.06791 0.85927 0.8871 0.0
C1378 C 0.1147 0.90274 0.90194 0.0
C1379 C 0.10717 0.92472 0.89411 0.0
C1380 C 0.07931 0.91377 0.88335 0.0
C1381 C 0.05966 0.88125 0.87999 0.0
C1382 C 0.13009 0.95918 0.8955 0.0
C1383 C 0.14494 0.97542 0.87881 0.0
C1384 C 0.13956 0.97524 0.91303 0.0
C1385 C 0.12519 0.95893 0.93116 0.0
C1386 C 0.09205 0.94322 0.93381 0.0
C1387 C 0.0787 0.92765 0.95089 0.0
C1388 C 0.09827 0.92774 0.96545 0.0
C1389 C 0.13125 0.94346 0.96298 0.0
C1390 C 0.14472 0.95907 0.94593 0.0
C1391 C 0.23293 0.11099 0.88456 0.0
C1392 C 0.25745 0.11991 0.89792 0.0
C1393 C 0.20639 0.08038 0.88485 0.0
C1394 C 0.20453 0.05759 0.89791 0.0
C1395 C 0.22812 0.06712 0.91192 0.0
C1396 C 0.25379 0.09816 0.9122 0.0
C1397 C 0.17872 0.02371 0.89668 0.0
C1398 C 0.16339 0.00742 0.91338 0.0
C1399 C 0.16969 0.0071 0.87921 0.0
C1400 C 0.18694 0.02121 0.8613 0.0
C1401 C 0.21986 0.03281 0.85999 0.0
C1402 C 0.236 0.04632 0.84309 0.0
C1403 C 0.21942 0.04808 0.82737 0.0
C1404 C 0.18663 0.03625 0.8285 0.0
C1405 C 0.17038 0.02276 0.84537 0.0
H1406 H 0.23196 0.05856 0.8143 0.0
H1407 H 0.08788 0.91569 0.97866 0.0
H1408 H 0.10268 0.22741 0.40597 0.0
H1409 H 0.11114 0.18176 0.4068 0.0
H1410 H 0.2078 0.24199 0.38761 0.0
H1411 H 0.19757 0.28551 0.38395 0.0
H1412 H 0.18957 0.19339 0.37087 0.0
H1413 H 0.18071 0.21015 0.43696 0.0
H1414 H 0.15511 0.21661 0.46544 0.0
H1415 H 0.07541 0.12248 0.45783 0.0
H1416 H 0.10034 0.11565 0.42913 0.0
H1417 H 0.24772 0.09126 0.38695 0.0
H1418 H 0.2363 0.13226 0.39829 0.0
H1419 H 0.13573 0.06675 0.39225 0.0
H1420 H 0.1472 0.02571 0.38094 0.0
H1421 H 0.15529 0.1159 0.42383 0.0
H1422 H 0.1663 0.1058 0.35493 0.0
H1423 H 0.19575 0.10175 0.32759 0.0
H1424 H 0.279 0.18861 0.34429 0.0
H1425 H 0.24989 0.19319 0.37166 0.0
C1426 C 0.12567 0.23078 0.40185 0.0
C1427 C 0.14996 0.26068 0.39559 0.0
C1428 C 0.13069 0.20472 0.40262 0.0
C1429 C 0.16052 0.20829 0.39785 0.0
C1430 C 0.18459 0.23821 0.39156 0.0
C1431 C 0.17903 0.26363 0.38993 0.0
C1432 C 0.16654 0.18089 0.39822 0.0
C1433 C 0.18247 0.17703 0.38274 0.0
C1434 C 0.15696 0.15869 0.41339 0.0
C1435 C 0.14227 0.16248 0.43084 0.0
C1436 C 0.15767 0.19088 0.44133 0.0
C1437 C 0.14327 0.19461 0.4575 0.0
C1438 C 0.11362 0.16999 0.46343 0.0
C1439 C 0.09836 0.14154 0.45322 0.0
C1440 C 0.11262 0.13771 0.43701 0.0
C1441 C 0.22319 0.08521 0.38895 0.0
C1442 C 0.1983 0.05538 0.38324 0.0
C1443 C 0.21666 0.10863 0.39536 0.0
C1444 C 0.18516 0.10261 0.39599 0.0
C1445 C 0.16016 0.07181 0.39204 0.0
C1446 C 0.1667 0.04838 0.3856 0.0
C1447 C 0.17886 0.12957 0.39684 0.0
C1448 C 0.16264 0.13291 0.4123 0.0
C1449 C 0.18893 0.15202 0.38198 0.0
C1450 C 0.20605 0.14973 0.3653 0.0
C1451 C 0.19089 0.12398 0.35273 0.0
C1452 C 0.2075 0.12162 0.33725 0.0
C1453 C 0.23927 0.14482 0.33425 0.0
C1454 C 0.25441 0.17063 0.34663 0.0
C1455 C 0.23784 0.1732 0.36208 0.0
H1456 H 0.25213 0.14285 0.32231 0.0
H1457 H 0.10249 0.17294 0.47594 0.0
H1458 H 0.13101 0.14732 0.88782 0.0
H1459 H 0.07731 0.1316 0.89921 0.0
H1460 H 0.10011 0.22961 0.89704 0.0
H1461 H 0.15361 0.2452 0.88569 0.0
H1462 H 0.05629 0.19549 0.9257 0.0
H1463 H 0.07276 0.18768 0.85892 0.0
H1464 H 0.09097 0.16948 0.83157 0.0
H1465 H 0.02612 0.0722 0.84657 0.0
H1466 H 0.00795 0.08992 0.87424 0.0
H1467 H 0.9209 0.19933 0.89561 0.0
H1468 H 0.97283 0.20407 0.89932 0.0
H1469 H 0.92923 0.10189 0.89623 0.0
H1470 H 0.87671 0.09747 0.89252 0.0
H1471 H 0.98117 0.13054 0.87476 0.0
H1472 H 0.95731 0.14242 0.9389 0.0
H1473 H 0.9392 0.16488 0.96405 0.0
H1474 H 0.01777 0.25818 0.95253 0.0
H1475 H 0.03607 0.23639 0.92709 0.0
C1476 C 0.12492 0.16556 0.89067 0.0
C1477 C 0.14618 0.1974 0.88598 0.0
C1478 C 0.09427 0.1566 0.89705 0.0
C1479 C 0.08465 0.17942 0.8987 0.0
C1480 C 0.10707 0.21166 0.89591 0.0
C1481 C 0.13758 0.22056 0.88944 0.0
C1482 C 0.05044 0.16956 0.8999 0.0
C1483 C 0.03976 0.18114 0.91466 0.0
C1484 C 0.02888 0.15076 0.8855 0.0
C1485 C 0.03933 0.14007 0.86874 0.0
C1486 C 0.06257 0.16241 0.85645 0.0
C1487 C 0.07287 0.15219 0.8409 0.0
C1488 C 0.05979 0.1197 0.83737 0.0
C1489 C 0.03629 0.09736 0.84935 0.0
C1490 C 0.026 0.10747 0.86498 0.0
C1491 C 0.92222 0.17798 0.89633 0.0
C1492 C 0.89477 0.14817 0.89448 0.0
C1493 C 0.95199 0.1806 0.8983 0.0
C1494 C 0.95489 0.15327 0.89865 0.0
C1495 C 0.9275 0.12329 0.89628 0.0
C1496 C 0.89761 0.12078 0.89415 0.0
C1497 C 0.98682 0.15647 0.90056 0.0
C1498 C 0.99724 0.14394 0.88621 0.0
C1499 C 0.00815 0.17475 0.91522 0.0
C1500 C 0.99803 0.18775 0.93106 0.0
C1501 C 0.97072 0.16773 0.94172 0.0
C1502 C 0.96039 0.18035 0.95601 0.0
C1503 C 0.97735 0.21292 0.9599 0.0
C1504 C 1.00471 0.23294 0.94953 0.0
C1505 C 0.0151 0.22046 0.93519 0.0
H1506 H 0.96927 0.22266 0.97094 0.0
H1507 H 0.06779 0.11182 0.82532 0.0
H1508 H 0.98698 0.13006 0.38425 0.0
H1509 H 0.94805 0.07695 0.39602 0.0
H1510 H 0.87343 0.10007 0.39017 0.0
H1511 H 0.91225 0.15294 0.37819 0.0
H1512 H 0.86417 0.05626 0.42142 0.0
H1513 H 0.88691 0.07182 0.3538 0.0
H1514 H 0.92416 0.09043 0.32682 0.0
H1515 H 0.95786 0.02711 0.34306 0.0
H1516 H 0.92116 0.00859 0.37038 0.0
H1517 H 0.72407 0.91968 0.39349 0.0
H1518 H 0.77114 0.9719 0.39675 0.0
H1519 H 0.83047 0.92945 0.39114 0.0
H1520 H 0.78262 0.87673 0.38799 0.0
H1521 H 0.85269 0.98111 0.37023 0.0
H1522 H 0.82079 0.95716 0.43444 0.0
H1523 H 0.78228 0.93831 0.46077 0.0
H1524 H 0.76507 0.01588 0.45155 0.0
H1525 H 0.8031 0.03491 0.42494 0.0
C1526 C 0.9625 0.12417 0.38626 0.0
C1527 C 0.95242 0.14533 0.38036 0.0
C1528 C 0.9403 0.0939 0.39295 0.0
C1529 C 0.90784 0.08456 0.39383 0.0
C1530 C 0.89836 0.10688 0.38971 0.0
C1531 C 0.92047 0.13699 0.38282 0.0
C1532 C 0.88336 0.05042 0.39525 0.0
C1533 C 0.86162 0.03973 0.41031 0.0
C1534 C 0.88035 0.02879 0.38088 0.0
C1535 C 0.90163 0.03912 0.36419 0.0
C1536 C 0.90241 0.06203 0.35166 0.0
C1537 C 0.92341 0.07256 0.33633 0.0
C1538 C 0.94344 0.06003 0.33326 0.0
C1539 C 0.94239 0.03684 0.34548 0.0
C1540 C 0.92151 0.02633 0.36089 0.0
C1541 C 0.74695 0.92135 0.3935 0.0
C1542 C 0.74955 0.89413 0.39107 0.0
C1543 C 0.77401 0.95127 0.39524 0.0
C1544 C 0.80443 0.95458 0.39474 0.0
C1545 C 0.80723 0.92744 0.39181 0.0
C1546 C 0.77996 0.89742 0.38994 0.0
C1547 C 0.83309 0.98668 0.39636 0.0
C1548 C 0.85556 0.99717 0.38171 0.0
C1549 C 0.83668 0.00795 0.41117 0.0
C1550 C 0.81473 0.9974 0.42764 0.0
C1551 C 0.80875 0.97017 0.438 0.0
C1552 C 0.78699 0.95944 0.45296 0.0
C1553 C 0.77126 0.9759 0.45783 0.0
C1554 C 0.77733 1.00319 0.44778 0.0
C1555 C 0.79903 0.014 0.43277 0.0
H1556 H 0.75435 0.96749 0.46939 0.0
H1557 H 0.95971 0.06823 0.32138 0.0
H1558 H 0.82343 0.72701 0.87437 0.0
H1559 H 0.8096 0.76874 0.8771 0.0
H1560 H 0.88114 0.81434 0.92059 0.0
H1561 H 0.89153 0.76975 0.91956 0.0
H1562 H 0.8389 0.8261 0.92895 0.0
H1563 H 0.89071 0.8375 0.86964 0.0
H1564 H 0.9005 0.82104 0.83849 0.0
H1565 H 0.80786 0.80013 0.81957 0.0
H1566 H 0.79738 0.81605 0.8507 0.0
H1567 H 0.85853 0.98054 0.89491 0.0
H1568 H 0.8653 0.93645 0.9065 0.0
H1569 H 0.77043 0.86935 0.88762 0.0
H1570 H 0.76361 0.9132 0.87623 0.0
H1571 H 0.82685 0.87144 0.86863 0.0
H1572 H 0.78042 0.86697 0.93012 0.0
H1573 H 0.77752 0.88883 0.96107 0.0
H1574 H 0.8706 0.90525 0.97531 0.0
H1575 H 0.87432 0.88405 0.94428 0.0
C1576 C 0.83577 0.74575 0.88467 0.0
C1577 C 0.8585 0.74541 0.89671 0.0
C1578 C 0.82828 0.76995 0.88607 0.0
C1579 C 0.84514 0.79567 0.89855 0.0
C1580 C 0.86782 0.79507 0.91074 0.0
C1581 C 0.87405 0.76983 0.91003 0.0
C1582 C 0.83966 0.8234 0.89844 0.0
C1583 C 0.83669 0.8362 0.91572 0.0
C1584 C 0.83683 0.83703 0.88128 0.0
C1585 C 0.8432 0.82773 0.86252 0.0
C1586 C 0.8724 0.82925 0.85885 0.0
C1587 C 0.87806 0.82001 0.84121 0.0
C1588 C 0.85479 0.80949 0.82708 0.0
C1589 C 0.82585 0.80825 0.83054 0.0
C1590 C 0.82004 0.81741 0.84816 0.0
C1591 C 0.83859 0.95646 0.89423 0.0
C1592 C 0.81044 0.95011 0.88489 0.0
C1593 C 0.8425 0.93132 0.90076 0.0
C1594 C 0.81834 0.89968 0.8979 0.0
C1595 C 0.78922 0.8936 0.89011 0.0
C1596 C 0.78527 0.91862 0.88369 0.0
C1597 C 0.82548 0.87341 0.899 0.0
C1598 C 0.82909 0.86119 0.88182 0.0
C1599 C 0.83001 0.86131 0.9162 0.0
C1600 C 0.82779 0.87427 0.93477 0.0
C1601 C 0.80044 0.87562 0.93974 0.0
C1602 C 0.79861 0.88781 0.95733 0.0
C1603 C 0.82389 0.89851 0.97013 0.0
C1604 C 0.85105 0.89701 0.96537 0.0
C1605 C 0.85303 0.8849 0.94779 0.0
H1606 H 0.8224 0.90788 0.98376 0.0
H1607 H 0.85921 0.80234 0.81343 0.0
H1608 H 0.09221 0.68779 0.11662 0.0
H1609 H 0.10253 0.64333 0.11784 0.0
H1610 H 0.19996 0.70824 0.13374 0.0
H1611 H 0.18918 0.75254 0.13284 0.0
H1612 H 0.19714 0.67039 0.1057 0.0
H1613 H 0.14638 0.65587 0.16557 0.0
H1614 H 0.1038 0.65057 0.18689 0.0
H1615 H 0.03659 0.56484 0.15838 0.0
H1616 H 0.07867 0.57 0.13659 0.0
H1617 H 0.24357 0.55847 0.12113 0.0
H1618 H 0.22799 0.5974 0.13019 0.0
H1619 H 0.13231 0.53367 0.1109 0.0
H1620 H 0.14783 0.49421 0.10225 0.0
H1621 H 0.13358 0.57034 0.14196 0.0
H1622 H 0.18468 0.587 0.08128 0.0
H1623 H 0.22752 0.59339 0.05981 0.0
H1624 H 0.29466 0.67697 0.09016 0.0
H1625 H 0.2523 0.67069 0.11206 0.0
C1626 C 0.11538 0.69224 0.12106 0.0
C1627 C 0.13961 0.72322 0.12522 0.0
C1628 C 0.12143 0.66694 0.12157 0.0
C1629 C 0.15195 0.67231 0.12613 0.0
C1630 C 0.17619 0.70343 0.13031 0.0
C1631 C 0.17003 0.72866 0.12989 0.0
C1632 C 0.15896 0.64576 0.12566 0.0
C1633 C 0.18356 0.64877 0.11389 0.0
C1634 C 0.14078 0.61717 0.13597 0.0
C1635 C 0.11564 0.61341 0.14939 0.0
C1636 C 0.12249 0.63596 0.16379 0.0
C1637 C 0.09845 0.63299 0.17595 0.0
C1638 C 0.06753 0.60735 0.174 0.0
C1639 C 0.06058 0.58465 0.15988 0.0
C1640 C 0.08451 0.58758 0.14762 0.0
C1641 C 0.21895 0.55235 0.11946 0.0
C1642 C 0.19688 0.52341 0.11102 0.0
C1643 C 0.21009 0.57465 0.12453 0.0
C1644 C 0.17914 0.56876 0.12086 0.0
C1645 C 0.15633 0.53878 0.11383 0.0
C1646 C 0.16516 0.51622 0.10893 0.0
C1647 C 0.17197 0.5952 0.12213 0.0
C1648 C 0.14727 0.59209 0.13391 0.0
C1649 C 0.1901 0.62387 0.11186 0.0
C1650 C 0.21541 0.62816 0.09842 0.0
C1651 C 0.20862 0.60662 0.08344 0.0
C1652 C 0.23281 0.61022 0.0712 0.0
C1653 C 0.26381 0.63552 0.07365 0.0
C1654 C 0.27065 0.65735 0.08831 0.0
C1655 C 0.24656 0.65377 0.10064 0.0
H1656 H 0.28252 0.63825 0.06416 0.0
H1657 H 0.04896 0.60505 0.18346 0.0
H1658 H 0.66864 0.15379 0.61929 0.0
H1659 H 0.6154 0.1391 0.63113 0.0
H1660 H 0.62436 0.22458 0.6064 0.0
H1661 H 0.67759 0.24014 0.59589 0.0
H1662 H 0.59246 0.21513 0.63533 0.0
H1663 H 0.58527 0.14503 0.58451 0.0
H1664 H 0.59387 0.10464 0.56872 0.0
H1665 H 0.5454 0.03895 0.61409 0.0
H1666 H 0.53694 0.07916 0.63027 0.0
H1667 H 0.43682 0.1638 0.59777 0.0
H1668 H 0.49157 0.17518 0.60086 0.0
H1669 H 0.46661 0.11875 0.65179 0.0
H1670 H 0.41207 0.10953 0.64964 0.0
H1671 H 0.5045 0.10892 0.61632 0.0
H1672 H 0.50379 0.18111 0.66292 0.0
H1673 H 0.4921 0.22241 0.67378 0.0
H1674 H 0.55481 0.28653 0.63148 0.0
H1675 H 0.56576 0.24521 0.61971 0.0
C1676 C 0.65957 0.16984 0.61688 0.0
C1677 C 0.67737 0.19791 0.60629 0.0
C1678 C 0.62885 0.1612 0.62341 0.0
C1679 C 0.61512 0.18018 0.61922 0.0
C1680 C 0.63389 0.20919 0.60981 0.0
C1681 C 0.66449 0.21799 0.6036 0.0
C1682 C 0.58091 0.16968 0.62342 0.0
C1683 C 0.57337 0.19183 0.63117 0.0
C1684 C 0.5555 0.13915 0.61831 0.0
C1685 C 0.56093 0.11521 0.60872 0.0
C1686 C 0.57672 0.12206 0.59119 0.0
C1687 C 0.58153 0.0992 0.58216 0.0
C1688 C 0.57031 0.06929 0.59043 0.0
C1689 C 0.55419 0.06216 0.60774 0.0
C1690 C 0.54941 0.08497 0.61685 0.0
C1691 C 0.44293 0.15418 0.60981 0.0
C1692 C 0.41983 0.1357 0.62345 0.0
C1693 C 0.47426 0.16053 0.61147 0.0
C1694 C 0.48315 0.14778 0.62652 0.0
C1695 C 0.46018 0.12878 0.64003 0.0
C1696 C 0.42894 0.1233 0.63871 0.0
C1697 C 0.51655 0.15454 0.6278 0.0
C1698 C 0.52378 0.13184 0.62092 0.0
C1699 C 0.54164 0.18481 0.63319 0.0
C1700 C 0.53527 0.20985 0.64028 0.0
C1701 C 0.51467 0.20384 0.6557 0.0
C1702 C 0.50815 0.22727 0.662 0.0
C1703 C 0.5225 0.25703 0.65319 0.0
C1704 C 0.54345 0.2634 0.63811 0.0
C1705 C 0.54978 0.23996 0.6316 0.0
H1706 H 0.51753 0.27522 0.65811 0.0
H1707 H 0.57401 0.0516 0.58341 0.0
H1708 H 0.44335 0.67684 0.09921 0.0
H1709 H 0.4041 0.62387 0.10956 0.0
H1710 H 0.47913 0.6069 0.1281 0.0
H1711 H 0.51898 0.65992 0.1164 0.0
H1712 H 0.43873 0.55769 0.10993 0.0
H1713 H 0.42455 0.61439 0.15993 0.0
H1714 H 0.41756 0.65613 0.17521 0.0
H1715 H 0.32905 0.62324 0.14578 0.0
H1716 H 0.3357 0.58156 0.13012 0.0
H1717 H 0.30899 0.40779 0.14738 0.0
H1718 H 0.35438 0.46247 0.14851 0.0
H1719 H 0.30982 0.49095 0.10596 0.0
H1720 H 0.26561 0.4364 0.10396 0.0
H1721 H 0.33802 0.53269 0.1422 0.0
H1722 H 0.35956 0.48158 0.08893 0.0
H1723 H 0.36573 0.43779 0.07597 0.0
H1724 H 0.44131 0.45951 0.11544 0.0
H1725 H 0.43509 0.50302 0.12888 0.0
C1726 C 0.45161 0.66206 0.10574 0.0
C1727 C 0.48436 0.67259 0.10682 0.0
C1728 C 0.42901 0.6317 0.11188 0.0
C1729 C 0.43834 0.61113 0.11992 0.0
C1730 C 0.47115 0.62219 0.12199 0.0
C1731 C 0.49397 0.65267 0.11552 0.0
C1732 C 0.41365 0.57754 0.12463 0.0
C1733 C 0.41712 0.55242 0.11741 0.0
C1734 C 0.38504 0.57009 0.13427 0.0
C1735 C 0.38072 0.59493 0.14378 0.0
C1736 C 0.40367 0.61615 0.15664 0.0
C1737 C 0.39976 0.6398 0.16538 0.0
C1738 C 0.3729 0.64237 0.16145 0.0
C1739 C 0.34984 0.62122 0.14882 0.0
C1740 C 0.35364 0.59753 0.14003 0.0
C1741 C 0.30888 0.4257 0.13829 0.0
C1742 C 0.28364 0.41768 0.12556 0.0
C1743 C 0.33476 0.45693 0.139 0.0
C1744 C 0.33535 0.48077 0.12739 0.0
C1745 C 0.30975 0.47299 0.11513 0.0
C1746 C 0.28446 0.44173 0.11401 0.0
C1747 C 0.36318 0.51358 0.1272 0.0
C1748 C 0.36008 0.53831 0.13515 0.0
C1749 C 0.39222 0.52065 0.11854 0.0
C1750 C 0.39665 0.49528 0.11003 0.0
C1751 C 0.37733 0.47685 0.09493 0.0
C1752 C 0.38085 0.45211 0.08749 0.0
C1753 C 0.40388 0.44587 0.0949 0.0
C1754 C 0.42348 0.46438 0.10972 0.0
C1755 C 0.41997 0.48907 0.11726 0.0
H1756 H 0.40659 0.42671 0.08917 0.0
H1757 H 0.36994 0.66073 0.1682 0.0
H1758 H 0.86944 0.51989 0.63059 0.0
H1759 H 0.87252 0.47271 0.63991 0.0
H1760 H 0.80237 0.41732 0.59751 0.0
H1761 H 0.79922 0.46444 0.58835 0.0
H1762 H 0.79505 0.38123 0.62859 0.0
H1763 H 0.87912 0.45083 0.58728 0.0
H1764 H 0.92444 0.50172 0.57656 0.0
H1765 H 0.97749 0.50487 0.62605 0.0
H1766 H 0.93217 0.45423 0.63725 0.0
H1767 H 0.83785 0.26762 0.60074 0.0
H1768 H 0.82772 0.31185 0.60261 0.0
H1769 H 0.89348 0.35135 0.6493 0.0
H1770 H 0.90342 0.30651 0.64774 0.0
H1771 H 0.90302 0.39556 0.62017 0.0
H1772 H 0.81705 0.318 0.65798 0.0
H1773 H 0.7714 0.26468 0.66444 0.0
H1774 H 0.7211 0.27423 0.61716 0.0
H1775 H 0.76667 0.32716 0.6101 0.0
C1776 C 0.85392 0.49732 0.62378 0.0
C1777 C 0.83382 0.49553 0.60895 0.0
C1778 C 0.85586 0.47047 0.62897 0.0
C1779 C 0.83796 0.44151 0.61926 0.0
C1780 C 0.81634 0.4393 0.60526 0.0
C1781 C 0.81447 0.46615 0.60005 0.0
C1782 C 0.84409 0.41464 0.62223 0.0
C1783 C 0.81864 0.38436 0.62675 0.0
C1784 C 0.87489 0.41862 0.61988 0.0
C1785 C 0.90213 0.44903 0.61323 0.0
C1786 C 0.90034 0.46255 0.59597 0.0
C1787 C 0.92603 0.49131 0.5898 0.0
C1788 C 0.95379 0.50658 0.60065 0.0
C1789 C 0.95593 0.49307 0.61769 0.0
C1790 C 0.93024 0.46435 0.62397 0.0
C1791 C 0.85012 0.28557 0.61151 0.0
C1792 C 0.87163 0.28358 0.62405 0.0
C1793 C 0.84415 0.31081 0.61259 0.0
C1794 C 0.85966 0.3348 0.62617 0.0
C1795 C 0.88119 0.333 0.63874 0.0
C1796 C 0.88685 0.30739 0.63784 0.0
C1797 C 0.85405 0.36222 0.6266 0.0
C1798 C 0.87957 0.39258 0.62251 0.0
C1799 C 0.82321 0.35809 0.62893 0.0
C1800 C 0.7954 0.32651 0.63344 0.0
C1801 C 0.79633 0.30862 0.64888 0.0
C1802 C 0.77045 0.27842 0.65263 0.0
C1803 C 0.74337 0.26595 0.64116 0.0
C1804 C 0.74208 0.28376 0.62598 0.0
C1805 C 0.76793 0.3139 0.6221 0.0
H1806 H 0.72336 0.24255 0.64405 0.0
H1807 H 0.97369 0.52883 0.59584 0.0
H1808 H 0.58196 0.86354 0.09285 0.0
H1809 H 0.52841 0.85575 0.09418 0.0
H1810 H 0.53739 0.87122 0.15453 0.0
H1811 H 0.59185 0.87956 0.1533 0.0
H1812 H 0.47776 0.8145 0.14091 0.0
H1813 H 0.5392 0.92641 0.13175 0.0
H1814 H 0.58198 0.97507 0.11699 0.0
H1815 H 0.53551 0.94551 0.06298 0.0
H1816 H 0.4927 0.8963 0.07737 0.0
H1817 H 0.32893 0.8144 0.13959 0.0
H1818 H 0.38553 0.83282 0.14573 0.0
H1819 H 0.40063 0.8273 0.08601 0.0
H1820 H 0.34405 0.80812 0.07996 0.0
H1821 H 0.44945 0.88372 0.10374 0.0
H1822 H 0.39276 0.77013 0.11167 0.0
H1823 H 0.35243 0.71863 0.12506 0.0
H1824 H 0.39135 0.75008 0.1807 0.0
H1825 H 0.43158 0.80204 0.16766 0.0
C1826 C 0.57276 0.86549 0.10645 0.0
C1827 C 0.59124 0.87218 0.12299 0.0
C1828 C 0.54206 0.86101 0.10716 0.0
C1829 C 0.52885 0.86287 0.12443 0.0
C1830 C 0.54713 0.86961 0.14105 0.0
C1831 C 0.57827 0.87459 0.14032 0.0
C1832 C 0.49589 0.85764 0.12468 0.0
C1833 C 0.47161 0.83008 0.13325 0.0
C1834 C 0.48781 0.87751 0.11424 0.0
C1835 C 0.51281 0.90759 0.10562 0.0
C1836 C 0.53816 0.93021 0.11671 0.0
C1837 C 0.56244 0.95788 0.10841 0.0
C1838 C 0.5615 0.96336 0.08905 0.0
C1839 C 0.5362 0.94123 0.07798 0.0
C1840 C 0.51189 0.91345 0.0862 0.0
C1841 C 0.3445 0.8175 0.12781 0.0
C1842 C 0.33223 0.80988 0.10931 0.0
C1843 C 0.37675 0.82789 0.13131 0.0
C1844 C 0.39736 0.83139 0.11633 0.0
C1845 C 0.38526 0.82488 0.09778 0.0
C1846 C 0.35297 0.81388 0.09433 0.0
C1847 C 0.43116 0.84045 0.11994 0.0
C1848 C 0.45559 0.86859 0.11189 0.0
C1849 C 0.43937 0.82106 0.13084 0.0
C1850 C 0.41483 0.79014 0.13875 0.0
C1851 C 0.39243 0.76623 0.1268 0.0
C1852 C 0.36966 0.73692 0.13431 0.0
C1853 C 0.36925 0.73112 0.15373 0.0
C1854 C 0.39163 0.75464 0.16567 0.0
C1855 C 0.4144 0.78403 0.15823 0.0
H1856 H 0.35168 0.70836 0.15951 0.0
H1857 H 0.58036 0.98479 0.08264 0.0
H1858 H 0.75046 0.57099 0.61609 0.0
H1859 H 0.7069 0.5165 0.61668 0.0
H1860 H 0.64401 0.54874 0.63705 0.0
H1861 H 0.68907 0.60378 0.63778 0.0
H1862 H 0.62626 0.49337 0.652 0.0
H1863 H 0.64845 0.52993 0.58797 0.0
H1864 H 0.68139 0.55416 0.55955 0.0
H1865 H 0.7071 0.48138 0.55875 0.0
H1866 H 0.6747 0.457 0.58731 0.0
H1867 H 0.49338 0.34257 0.61655 0.0
H1868 H 0.53074 0.39855 0.62391 0.0
H1869 H 0.60951 0.3826 0.61515 0.0
H1870 H 0.57295 0.32707 0.6083 0.0
H1871 H 0.61363 0.43155 0.59356 0.0
H1872 H 0.59107 0.3958 0.65842 0.0
H1873 H 0.55757 0.37235 0.6867 0.0
H1874 H 0.53018 0.44387 0.68506 0.0
H1875 H 0.56305 0.46737 0.65653 0.0
C1876 C 0.72755 0.56655 0.62089 0.0
C1877 C 0.72326 0.59182 0.6266 0.0
C1878 C 0.70238 0.53525 0.62106 0.0
C1879 C 0.67158 0.52829 0.62613 0.0
C1880 C 0.66737 0.55335 0.63278 0.0
C1881 C 0.69311 0.58485 0.63317 0.0
C1882 C 0.64417 0.49505 0.62387 0.0
C1883 C 0.62317 0.48007 0.63908 0.0
C1884 C 0.63996 0.47726 0.60709 0.0
C1885 C 0.65929 0.49177 0.58983 0.0
C1886 C 0.66126 0.5192 0.58178 0.0
C1887 C 0.67984 0.53295 0.56564 0.0
C1888 C 0.69636 0.51934 0.55736 0.0
C1889 C 0.6943 0.49191 0.56518 0.0
C1890 C 0.67581 0.4781 0.58132 0.0
C1891 C 0.51859 0.35065 0.61663 0.0
C1892 C 0.52981 0.32983 0.61157 0.0
C1893 C 0.53998 0.38284 0.6208 0.0
C1894 C 0.57302 0.39492 0.61999 0.0
C1895 C 0.58417 0.37399 0.61574 0.0
C1896 C 0.56299 0.34202 0.6117 0.0
C1897 C 0.59636 0.42966 0.62182 0.0
C1898 C 0.61651 0.44496 0.60642 0.0
C1899 C 0.59939 0.44764 0.63829 0.0
C1900 C 0.57913 0.43305 0.65517 0.0
C1901 C 0.57754 0.40625 0.66392 0.0
C1902 C 0.55875 0.39301 0.68003 0.0
C1903 C 0.54166 0.40653 0.68763 0.0
C1904 C 0.54334 0.43334 0.67913 0.0
C1905 C 0.56203 0.44662 0.66298 0.0
H1906 H 0.52719 0.3963 0.70014 0.0
H1907 H 0.71073 0.53003 0.54487 0.0
H1908 H 0.29445 0.87264 0.41995 0.0
H1909 H 0.33973 0.86379 0.4177 0.0
H1910 H 0.33441 0.86429 0.35678 0.0
H1911 H 0.28941 0.87424 0.35891 0.0
H1912 H 0.33572 0.80616 0.38673 0.0
H1913 H 0.3911 0.91265 0.35777 0.0
H1914 H 0.40535 0.969 0.35648 0.0
H1915 H 0.44074 0.98253 0.4135 0.0
H1916 H 0.4267 0.92614 0.41506 0.0
H1917 H 0.47215 0.78849 0.37911 0.0
H1918 H 0.43365 0.80517 0.37019 0.0
H1919 H 0.45969 0.86483 0.41983 0.0
H1920 H 0.49818 0.84829 0.42857 0.0
H1921 H 0.44806 0.89336 0.3908 0.0
H1922 H 0.39615 0.78995 0.41994 0.0
H1923 H 0.38106 0.7336 0.42351 0.0
H1924 H 0.33636 0.71276 0.3688 0.0
H1925 H 0.35172 0.76918 0.36477 0.0
C1926 C 0.30301 0.87109 0.40605 0.0
C1927 C 0.28834 0.8741 0.38961 0.0
C1928 C 0.32889 0.86604 0.4048 0.0
C1929 C 0.34043 0.86341 0.3871 0.0
C1930 C 0.32596 0.86645 0.37058 0.0
C1931 C 0.30034 0.87218 0.37182 0.0
C1932 C 0.36719 0.85681 0.38627 0.0
C1933 C 0.36036 0.82515 0.38707 0.0
C1934 C 0.39917 0.88154 0.38742 0.0
C1935 C 0.40756 0.91525 0.38659 0.0
C1936 C 0.40164 0.92761 0.37008 0.0
C1937 C 0.40978 0.95955 0.36928 0.0
C1938 C 0.42378 0.97931 0.38494 0.0
C1939 C 0.42983 0.96718 0.4014 0.0
C1940 C 0.42189 0.93527 0.40223 0.0
C1941 C 0.47026 0.80591 0.38773 0.0
C1942 C 0.4883 0.81744 0.40438 0.0
C1943 C 0.44807 0.8152 0.38276 0.0
C1944 C 0.4434 0.83599 0.39446 0.0
C1945 C 0.46281 0.84885 0.41054 0.0
C1946 C 0.48486 0.83949 0.41551 0.0
C1947 C 0.41682 0.84251 0.39092 0.0
C1948 C 0.42358 0.8742 0.38978 0.0
C1949 C 0.38468 0.81768 0.38954 0.0
C1950 C 0.37545 0.78382 0.39194 0.0
C1951 C 0.38337 0.7734 0.4086 0.0
C1952 C 0.37474 0.74145 0.41072 0.0
C1953 C 0.35785 0.71963 0.39637 0.0
C1954 C 0.34951 0.72971 0.37988 0.0
C1955 C 0.35819 0.76167 0.37767 0.0
H1956 H 0.35115 0.69489 0.39804 0.0
H1957 H 0.43006 0.00405 0.3843 0.0
H1958 H 0.68355 0.44444 0.90437 0.0
H1959 H 0.62972 0.40622 0.89415 0.0
H1960 H 0.60659 0.4812 0.89163 0.0
H1961 H 0.66074 0.51965 0.90237 0.0
H1962 H 0.56322 0.43276 0.91155 0.0
H1963 H 0.60932 0.44154 0.8508 0.0
H1964 H 0.64744 0.44293 0.82723 0.0
H1965 H 0.62248 0.34735 0.84195 0.0
H1966 H 0.58451 0.34553 0.8658 0.0
H1967 H 0.40647 0.31934 0.88208 0.0
H1968 H 0.46047 0.365 0.88023 0.0
H1969 H 0.49866 0.30273 0.88976 0.0
H1970 H 0.44441 0.257 0.89084 0.0
H1971 H 0.53283 0.34879 0.86285 0.0
H1972 H 0.49314 0.34303 0.92615 0.0
H1973 H 0.45396 0.34008 0.94949 0.0
H1974 H 0.46683 0.42941 0.92957 0.0
H1975 H 0.50582 0.43265 0.90593 0.0
C1976 C 0.66721 0.45293 0.9012 0.0
C1977 C 0.67632 0.48501 0.9042 0.0
C1978 C 0.63641 0.43105 0.89526 0.0
C1979 C 0.61396 0.44073 0.89198 0.0
C1980 C 0.62347 0.47314 0.89403 0.0
C1981 C 0.65448 0.49515 0.89999 0.0
C1982 C 0.58003 0.41637 0.88829 0.0
C1983 C 0.55656 0.41493 0.90056 0.0
C1984 C 0.57118 0.39242 0.87433 0.0
C1985 C 0.59423 0.3935 0.86017 0.0
C1986 C 0.61216 0.42092 0.84912 0.0
C1987 C 0.6337 0.42176 0.83569 0.0
C1988 C 0.63742 0.39526 0.83311 0.0
C1989 C 0.61959 0.36786 0.84396 0.0
C1990 C 0.59802 0.36689 0.85742 0.0
C1991 C 0.42628 0.31533 0.88341 0.0
C1992 C 0.4213 0.28474 0.88702 0.0
C1993 C 0.45721 0.34147 0.88251 0.0
C1994 C 0.48366 0.33739 0.88515 0.0
C1995 C 0.47867 0.30656 0.8878 0.0
C1996 C 0.44777 0.28054 0.88872 0.0
C1997 C 0.51644 0.36524 0.88616 0.0
C1998 C 0.53959 0.36712 0.87354 0.0
C1999 C 0.52505 0.38953 0.8998 0.0
C2000 C 0.50212 0.38794 0.91419 0.0
C2001 C 0.48746 0.36195 0.92669 0.0
C2002 C 0.46532 0.36023 0.93997 0.0
C2003 C 0.45785 0.3845 0.94098 0.0
C2004 C 0.47261 0.41061 0.92875 0.0
C2005 C 0.49475 0.41241 0.91542 0.0
H2006 H 0.44067 0.38312 0.95126 0.0
H2007 H 0.65409 0.39595 0.82269 0.0
H2008 H 0.15294 0.66463 0.39601 0.0
H2009 H 0.13662 0.61062 0.38493 0.0
H2010 H 0.22741 0.62307 0.40247 0.0
H2011 H 0.24436 0.67719 0.41216 0.0
H2012 H 0.21202 0.58892 0.37397 0.0
H2013 H 0.15357 0.58489 0.43031 0.0
H2014 H 0.11669 0.59418 0.44966 0.0
H2015 H 0.04152 0.54146 0.40977 0.0
H2016 H 0.07813 0.53228 0.39004 0.0
H2017 H 0.17063 0.43632 0.41293 0.0
H2018 H 0.18108 0.4908 0.40976 0.0
H2019 H 0.11355 0.4615 0.36391 0.0
H2020 H 0.10501 0.40722 0.3661 0.0
H2021 H 0.11143 0.50168 0.40051 0.0
H2022 H 0.173 0.49806 0.34815 0.0
H2023 H 0.21214 0.48678 0.33318 0.0
H2024 H 0.28511 0.55408 0.37 0.0
H2025 H 0.24615 0.56464 0.38589 0.0
C2026 C 0.16968 0.65609 0.39697 0.0
C2027 C 0.19977 0.6751 0.40531 0.0
C2028 C 0.16017 0.62498 0.3909 0.0
C2029 C 0.18034 0.61209 0.39334 0.0
C2030 C 0.21111 0.63197 0.40049 0.0
C2031 C 0.22074 0.66301 0.40622 0.0
C2032 C 0.16949 0.57772 0.38959 0.0
C2033 C 0.18997 0.56997 0.37981 0.0
C2034 C 0.1405 0.55252 0.39686 0.0
C2035 C 0.11866 0.55834 0.40858 0.0
C2036 C 0.12925 0.57555 0.42559 0.0
C2037 C 0.1084 0.58075 0.43664 0.0
C2038 C 0.07682 0.56853 0.43091 0.0
C2039 C 0.06601 0.55101 0.41415 0.0
C2040 C 0.0868 0.54583 0.40303 0.0
C2041 C 0.15847 0.44154 0.40195 0.0
C2042 C 0.1373 0.41739 0.3897 0.0
C2043 C 0.16427 0.47266 0.40023 0.0
C2044 C 0.14818 0.48023 0.38656 0.0
C2045 C 0.12632 0.45614 0.37452 0.0
C2046 C 0.12138 0.42509 0.37583 0.0
C2047 C 0.15424 0.51337 0.38533 0.0
C2048 C 0.13303 0.52077 0.39431 0.0
C2049 C 0.18295 0.53826 0.37781 0.0
C2050 C 0.20647 0.5318 0.36839 0.0
C2051 C 0.19725 0.51 0.35333 0.0
C2052 C 0.21944 0.50373 0.34469 0.0
C2053 C 0.25108 0.51952 0.35076 0.0
C2054 C 0.26056 0.54161 0.36549 0.0
C2055 C 0.23841 0.54769 0.37434 0.0
H2056 H 0.26828 0.51479 0.34399 0.0
H2057 H 0.06069 0.57254 0.43949 0.0
H2058 H 0.71266 0.12508 0.9187 0.0
H2059 H 0.66752 0.13442 0.91745 0.0
H2060 H 0.68139 0.15151 0.85736 0.0
H2061 H 0.72598 0.14084 0.85839 0.0
H2062 H 0.67742 0.20115 0.89078 0.0
H2063 H 0.62525 0.10049 0.85614 0.0
H2064 H 0.61267 0.04489 0.8526 0.0
H2065 H 0.56745 0.02212 0.90715 0.0
H2066 H 0.58018 0.07784 0.91108 0.0
H2067 H 0.54975 0.22863 0.87838 0.0
H2068 H 0.588 0.21096 0.8718 0.0
H2069 H 0.54446 0.13886 0.91507 0.0
H2070 H 0.50506 0.15561 0.92091 0.0
H2071 H 0.56396 0.11616 0.8881 0.0
H2072 H 0.61319 0.21415 0.92293 0.0
H2073 H 0.62911 0.2701 0.92935 0.0
H2074 H 0.68303 0.29884 0.8777 0.0
H2075 H 0.66699 0.24297 0.87083 0.0
C2076 C 0.70581 0.13041 0.90517 0.0
C2077 C 0.72273 0.13219 0.88862 0.0
C2078 C 0.68009 0.13578 0.90449 0.0
C2079 C 0.67117 0.14366 0.88734 0.0
C2080 C 0.68784 0.14527 0.87072 0.0
C2081 C 0.71315 0.13906 0.8713 0.0
C2082 C 0.64503 0.15115 0.88715 0.0
C2083 C 0.6526 0.18275 0.88976 0.0
C2084 C 0.61276 0.12696 0.88657 0.0
C2085 C 0.6039 0.09329 0.88397 0.0
C2086 C 0.61281 0.08365 0.86743 0.0
C2087 C 0.60565 0.05214 0.86534 0.0
C2088 C 0.58941 0.03 0.87968 0.0
C2089 C 0.58008 0.03931 0.89607 0.0
C2090 C 0.58721 0.07084 0.89822 0.0
C2091 C 0.548 0.20859 0.88619 0.0
C2092 C 0.52454 0.19349 0.90015 0.0
C2093 C 0.57003 0.19864 0.88256 0.0
C2094 C 0.56983 0.17407 0.89328 0.0
C2095 C 0.54534 0.15794 0.90663 0.0
C2096 C 0.52281 0.16749 0.90998 0.0
C2097 C 0.59614 0.1666 0.89133 0.0
C2098 C 0.58868 0.13486 0.88871 0.0
C2099 C 0.62869 0.19077 0.89207 0.0
C2100 C 0.63863 0.22438 0.89628 0.0
C2101 C 0.62828 0.23239 0.91289 0.0
C2102 C 0.63733 0.26408 0.91661 0.0
C2103 C 0.657 0.288 0.90392 0.0
C2104 C 0.66775 0.28029 0.8875 0.0
C2105 C 0.65869 0.24862 0.88369 0.0
H2106 H 0.66398 0.31253 0.90682 0.0
H2107 H 0.58397 0.00562 0.87807 0.0
H2108 H 0.32709 0.56477 0.38993 0.0
H2109 H 0.38349 0.6005 0.38302 0.0
H2110 H 0.40559 0.53118 0.40545 0.0
H2111 H 0.34874 0.49459 0.41157 0.0
H2112 H 0.43793 0.59675 0.42242 0.0
H2113 H 0.41895 0.54219 0.36311 0.0
H2114 H 0.39167 0.5203 0.33273 0.0
H2115 H 0.41414 0.61375 0.3146 0.0
H2116 H 0.44114 0.63613 0.34502 0.0
H2117 H 0.60295 0.69728 0.41098 0.0
H2118 H 0.5494 0.65086 0.41086 0.0
H2119 H 0.52128 0.69546 0.36789 0.0
H2120 H 0.57597 0.74047 0.36682 0.0
H2121 H 0.49184 0.63789 0.3607 0.0
H2122 H 0.50277 0.69201 0.42033 0.0
H2123 H 0.52591 0.71502 0.45156 0.0
H2124 H 0.51594 0.62598 0.46931 0.0
H2125 H 0.4924 0.60225 0.43837 0.0
C2126 C 0.3438 0.55673 0.39282 0.0
C2127 C 0.33342 0.52674 0.40106 0.0
C2128 C 0.37603 0.57719 0.38892 0.0
C2129 C 0.39867 0.56842 0.39364 0.0
C2130 C 0.38842 0.53825 0.40154 0.0
C2131 C 0.35598 0.51737 0.40497 0.0
C2132 C 0.43309 0.59217 0.39217 0.0
C2133 C 0.44997 0.6054 0.40894 0.0
C2134 C 0.44833 0.60419 0.37459 0.0
C2135 C 0.43176 0.59076 0.35641 0.0
C2136 C 0.41775 0.55801 0.35274 0.0
C2137 C 0.40241 0.54553 0.33549 0.0
C2138 C 0.40109 0.5656 0.32176 0.0
C2139 C 0.41513 0.59822 0.32525 0.0
C2140 C 0.43047 0.61081 0.34249 0.0
C2141 C 0.58541 0.6967 0.40126 0.0
C2142 C 0.59341 0.72205 0.38878 0.0
C2143 C 0.55458 0.67044 0.40141 0.0
C2144 C 0.53066 0.66981 0.3898 0.0
C2145 C 0.53904 0.69515 0.37705 0.0
C2146 C 0.57024 0.7209 0.37642 0.0
C2147 C 0.49699 0.64307 0.39105 0.0
C2148 C 0.48008 0.62929 0.37424 0.0
C2149 C 0.48137 0.63097 0.40864 0.0
C2150 C 0.49619 0.64549 0.42701 0.0
C2151 C 0.50575 0.67744 0.43086 0.0
C2152 C 0.51886 0.69059 0.44848 0.0
C2153 C 0.52263 0.6721 0.46229 0.0
C2154 C 0.5131 0.64032 0.45858 0.0
C2155 C 0.49976 0.62696 0.44105 0.0
H2156 H 0.53281 0.68238 0.47591 0.0
H2157 H 0.38925 0.5559 0.3084 0.0
H2158 H 0.9228 0.60593 0.87824 0.0
H2159 H 0.91462 0.5518 0.87784 0.0
H2160 H 0.81713 0.51498 0.89543 0.0
H2161 H 0.82617 0.56882 0.89718 0.0
H2162 H 0.83752 0.48714 0.91483 0.0
H2163 H 0.84384 0.50734 0.84796 0.0
H2164 H 0.86906 0.53827 0.81902 0.0
H2165 H 0.94967 0.52567 0.82781 0.0
H2166 H 0.92509 0.49504 0.85696 0.0
H2167 H 0.76856 0.32589 0.89725 0.0
H2168 H 0.78599 0.38092 0.88852 0.0
H2169 H 0.88392 0.40463 0.89386 0.0
H2170 H 0.86641 0.34911 0.90267 0.0
H2171 H 0.86849 0.43944 0.86281 0.0
H2172 H 0.85618 0.41609 0.9305 0.0
H2173 H 0.82574 0.38327 0.95782 0.0
H2174 H 0.74915 0.40047 0.94479 0.0
H2175 H 0.77893 0.4329 0.91718 0.0
C2176 C 0.89966 0.58622 0.88186 0.0
C2177 C 0.87521 0.59168 0.88785 0.0
C2178 C 0.89484 0.55513 0.88154 0.0
C2179 C 0.86509 0.52884 0.88652 0.0
C2180 C 0.84043 0.53453 0.89173 0.0
C2181 C 0.84555 0.56545 0.89261 0.0
C2182 C 0.85952 0.49553 0.88728 0.0
C2183 C 0.84412 0.47689 0.90327 0.0
C2184 C 0.86848 0.48175 0.87251 0.0
C2185 C 0.88277 0.49915 0.85469 0.0
C2186 C 0.86698 0.51125 0.84373 0.0
C2187 C 0.88116 0.52874 0.82731 0.0
C2188 C 0.91098 0.534 0.8216 0.0
C2189 C 0.92659 0.52161 0.83226 0.0
C2190 C 0.91254 0.50415 0.84871 0.0
C2191 C 0.79383 0.34256 0.89595 0.0
C2192 C 0.81612 0.33321 0.90071 0.0
C2193 C 0.80377 0.37404 0.89096 0.0
C2194 C 0.83626 0.39702 0.89071 0.0
C2195 C 0.85874 0.38727 0.89388 0.0
C2196 C 0.84873 0.35554 0.89887 0.0
C2197 C 0.84596 0.43144 0.89007 0.0
C2198 C 0.86215 0.4501 0.87426 0.0
C2199 C 0.83703 0.4452 0.90476 0.0
C2200 C 0.81967 0.42671 0.92174 0.0
C2201 C 0.83279 0.41274 0.93343 0.0
C2202 C 0.81566 0.3942 0.94895 0.0
C2203 C 0.78551 0.38975 0.95302 0.0
C2204 C 0.7725 0.40392 0.94162 0.0
C2205 C 0.7895 0.4224 0.92604 0.0
H2206 H 0.77226 0.37534 0.96503 0.0
H2207 H 0.92197 0.54762 0.80891 0.0
H2208 H 0.15869 0.3032 0.33229 0.0
H2209 H 0.16725 0.31037 0.29802 0.0
H2210 H 0.18707 0.40705 0.30315 0.0
H2211 H 0.17968 0.40033 0.33763 0.0
H2212 H 0.13124 0.32893 0.27303 0.0
H2213 H 0.23552 0.43802 0.28604 0.0
H2214 H 0.28554 0.46411 0.30442 0.0
H2215 H 0.30329 0.38835 0.29018 0.0
H2216 H 0.25288 0.36146 0.27221 0.0
H2217 H 0.14555 0.35367 0.1743 0.0
H2218 H 0.14338 0.3624 0.20805 0.0
H2219 H 0.23393 0.36677 0.21548 0.0
H2220 H 0.23874 0.36489 0.18127 0.0
H2221 H 0.23421 0.39702 0.24078 0.0
H2222 H 0.14539 0.2941 0.22329 0.0
H2223 H 0.09591 0.25662 0.20658 0.0
H2224 H 0.04876 0.30388 0.22978 0.0
H2225 H 0.09803 0.34179 0.24645 0.0
C2226 C 0.16562 0.32624 0.32616 0.0
C2227 C 0.16892 0.35133 0.33771 0.0
C2228 C 0.17039 0.33027 0.30655 0.0
C2229 C 0.1784 0.35942 0.29794 0.0
C2230 C 0.18199 0.38466 0.30946 0.0
C2231 C 0.17769 0.38079 0.32919 0.0
C2232 C 0.18092 0.36246 0.27684 0.0
C2233 C 0.15364 0.34411 0.26588 0.0
C2234 C 0.21019 0.38123 0.26748 0.0
C2235 C 0.24034 0.39758 0.27814 0.0
C2236 C 0.24993 0.4268 0.28707 0.0
C2237 C 0.27834 0.44172 0.29738 0.0
C2238 C 0.29752 0.42783 0.29854 0.0
C2239 C 0.28834 0.399 0.28937 0.0
C2240 C 0.25983 0.38387 0.27919 0.0
C2241 C 0.16567 0.35807 0.18296 0.0
C2242 C 0.19233 0.35835 0.17499 0.0
C2243 C 0.16392 0.36186 0.2026 0.0
C2244 C 0.18763 0.36361 0.21499 0.0
C2245 C 0.21483 0.36515 0.20674 0.0
C2246 C 0.2174 0.36337 0.18706 0.0
C2247 C 0.18424 0.36326 0.23634 0.0
C2248 C 0.21145 0.38197 0.24754 0.0
C2249 C 0.15493 0.34369 0.24593 0.0
C2250 C 0.12543 0.32094 0.2359 0.0
C2251 C 0.12449 0.29655 0.22473 0.0
C2252 C 0.09649 0.27524 0.21528 0.0
C2253 C 0.06925 0.27793 0.21706 0.0
C2254 C 0.06989 0.30186 0.22836 0.0
C2255 C 0.09782 0.32325 0.23782 0.0
H2256 H 0.0476 0.26141 0.20973 0.0
H2257 H 0.31955 0.43946 0.30648 0.0
H2258 H 0.84779 0.23549 0.67706 0.0
H2259 H 0.84119 0.23266 0.71163 0.0
H2260 H 0.81751 0.13429 0.71045 0.0
H2261 H 0.82697 0.1382 0.67627 0.0
H2262 H 0.80106 0.2058 0.73731 0.0
H2263 H 0.83779 0.11047 0.74804 0.0
H2264 H 0.87054 0.09177 0.73191 0.0
H2265 H 0.92882 0.18459 0.70774 0.0
H2266 H 0.89663 0.20384 0.72395 0.0
H2267 H 0.77318 0.15945 0.83484 0.0
H2268 H 0.77447 0.16418 0.8003 0.0
H2269 H 0.87403 0.19166 0.8006 0.0
H2270 H 0.87142 0.18345 0.83486 0.0
H2271 H 0.85331 0.1573 0.77387 0.0
H2272 H 0.83713 0.24426 0.79049 0.0
H2273 H 0.81018 0.26977 0.80613 0.0
H2274 H 0.7239 0.20806 0.7761 0.0
H2275 H 0.75026 0.18197 0.76046 0.0
C2276 C 0.8407 0.21317 0.68423 0.0
C2277 C 0.83788 0.18705 0.67403 0.0
C2278 C 0.83701 0.21154 0.70405 0.0
C2279 C 0.82971 0.1835 0.71403 0.0
C2280 C 0.82443 0.15667 0.70345 0.0
C2281 C 0.82932 0.1587 0.68381 0.0
C2282 C 0.82892 0.18262 0.7354 0.0
C2283 C 0.81261 0.19527 0.74528 0.0
C2284 C 0.84442 0.16956 0.74614 0.0
C2285 C 0.86468 0.1585 0.73705 0.0
C2286 C 0.85776 0.12692 0.73941 0.0
C2287 C 0.87617 0.11621 0.73023 0.0
C2288 C 0.90169 0.13695 0.71877 0.0
C2289 C 0.90901 0.16851 0.71658 0.0
C2290 C 0.89071 0.17933 0.72575 0.0
C2291 C 0.79548 0.16726 0.8275 0.0
C2292 C 0.82235 0.17162 0.83756 0.0
C2293 C 0.79632 0.17007 0.80764 0.0
C2294 C 0.82456 0.17892 0.79741 0.0
C2295 C 0.85175 0.18458 0.80778 0.0
C2296 C 0.85048 0.18038 0.82749 0.0
C2297 C 0.82571 0.18087 0.776 0.0
C2298 C 0.84195 0.16815 0.76604 0.0
C2299 C 0.81127 0.19509 0.76527 0.0
C2300 C 0.79558 0.21105 0.77443 0.0
C2301 C 0.81238 0.23609 0.78728 0.0
C2302 C 0.79721 0.25064 0.79615 0.0
C2303 C 0.76533 0.2405 0.79214 0.0
C2304 C 0.74858 0.21587 0.77921 0.0
C2305 C 0.76363 0.20123 0.77032 0.0
H2306 H 0.75362 0.25176 0.79904 0.0
H2307 H 0.91582 0.12856 0.71161 0.0
H2308 H 0.70361 0.84665 0.17941 0.0
H2309 H 0.69723 0.83958 0.21372 0.0
H2310 H 0.6 0.81838 0.20875 0.0
H2311 H 0.60619 0.82493 0.17418 0.0
H2312 H 0.68489 0.8744 0.23839 0.0
H2313 H 0.56228 0.77538 0.23307 0.0
H2314 H 0.5295 0.7251 0.21566 0.0
H2315 H 0.60655 0.70549 0.21737 0.0
H2316 H 0.63982 0.75592 0.23445 0.0
H2317 H 0.66477 0.86864 0.33717 0.0
H2318 H 0.65536 0.871 0.30347 0.0
H2319 H 0.63039 0.77249 0.29785 0.0
H2320 H 0.63263 0.76873 0.33217 0.0
H2321 H 0.60481 0.77756 0.27202 0.0
H2322 H 0.71449 0.85476 0.2883 0.0
H2323 H 0.75745 0.90185 0.30441 0.0
H2324 H 0.72307 0.96045 0.28052 0.0
H2325 H 0.67979 0.91367 0.26443 0.0
C2326 C 0.68062 0.8398 0.18557 0.0
C2327 C 0.65534 0.83617 0.17402 0.0
C2328 C 0.67705 0.83593 0.20524 0.0
C2329 C 0.64808 0.82822 0.21399 0.0
C2330 C 0.62241 0.82361 0.20242 0.0
C2331 C 0.62592 0.82732 0.18262 0.0
C2332 C 0.64563 0.82684 0.2352 0.0
C2333 C 0.66729 0.8533 0.24582 0.0
C2334 C 0.62342 0.79926 0.24502 0.0
C2335 C 0.6034 0.76925 0.23484 0.0
C2336 C 0.57211 0.76028 0.22967 0.0
C2337 C 0.55353 0.73186 0.21983 0.0
C2338 C 0.56595 0.71213 0.21539 0.0
C2339 C 0.597 0.72083 0.22074 0.0
C2340 C 0.61575 0.74936 0.2304 0.0
C2341 C 0.65587 0.84717 0.32884 0.0
C2342 C 0.64979 0.81851 0.33735 0.0
C2343 C 0.65162 0.84876 0.30924 0.0
C2344 C 0.64409 0.82256 0.29731 0.0
C2345 C 0.6366 0.79352 0.30616 0.0
C2346 C 0.63841 0.79137 0.32591 0.0
C2347 C 0.64469 0.82523 0.27585 0.0
C2348 C 0.62258 0.79897 0.26498 0.0
C2349 C 0.66769 0.8527 0.26579 0.0
C2350 C 0.69379 0.88073 0.27536 0.0
C2351 C 0.71609 0.87769 0.28655 0.0
C2352 C 0.74046 0.90431 0.29567 0.0
C2353 C 0.74293 0.9341 0.29353 0.0
C2354 C 0.7211 0.93737 0.2822 0.0
C2355 C 0.69667 0.91084 0.27307 0.0
H2356 H 0.7618 0.95466 0.30062 0.0
H2357 H 0.55149 0.69009 0.20783 0.0
H2358 H 0.78371 0.60167 0.67533 0.0
H2359 H 0.78608 0.59388 0.70969 0.0
H2360 H 0.8532 0.69386 0.71624 0.0
H2361 H 0.85202 0.70146 0.68222 0.0
H2362 H 0.87059 0.65336 0.73491 0.0
H2363 H 0.77242 0.67228 0.74895 0.0
H2364 H 0.71884 0.66031 0.73882 0.0
H2365 H 0.695 0.56481 0.7248 0.0
H2366 H 0.74807 0.57601 0.73558 0.0
H2367 H 0.8658 0.70528 0.83021 0.0
H2368 H 0.85825 0.69649 0.79611 0.0
H2369 H 0.81304 0.59533 0.80493 0.0
H2370 H 0.8218 0.60401 0.83939 0.0
H2371 H 0.78109 0.62754 0.77875 0.0
H2372 H 0.87014 0.60709 0.78192 0.0
H2373 H 0.92384 0.6147 0.78717 0.0
H2374 H 0.9658 0.70986 0.76523 0.0
H2375 H 0.9123 0.70251 0.75962 0.0
C2376 C 0.79915 0.62187 0.68411 0.0
C2377 C 0.81746 0.65222 0.67594 0.0
C2378 C 0.80001 0.61755 0.70384 0.0
C2379 C 0.81899 0.6435 0.71581 0.0
C2380 C 0.83792 0.6735 0.7075 0.0
C2381 C 0.83726 0.67777 0.68794 0.0
C2382 C 0.82123 0.63983 0.73679 0.0
C2383 C 0.85089 0.64752 0.74445 0.0
C2384 C 0.79568 0.63188 0.74944 0.0
C2385 C 0.76426 0.62518 0.74258 0.0
C2386 C 0.75572 0.64879 0.74363 0.0
C2387 C 0.7254 0.64208 0.73792 0.0
C2388 C 0.70363 0.61192 0.73096 0.0
C2389 C 0.71197 0.58825 0.73001 0.0
C2390 C 0.74211 0.59473 0.73599 0.0
C2391 C 0.85437 0.68105 0.82502 0.0
C2392 C 0.84486 0.65538 0.83771 0.0
C2393 C 0.85018 0.67612 0.8054 0.0
C2394 C 0.83556 0.64531 0.79782 0.0
C2395 C 0.82476 0.61939 0.8104 0.0
C2396 C 0.82952 0.62437 0.83014 0.0
C2397 C 0.83048 0.64074 0.77684 0.0
C2398 C 0.80056 0.63252 0.76921 0.0
C2399 C 0.85576 0.64788 0.76415 0.0
C2400 C 0.88737 0.65442 0.77064 0.0
C2401 C 0.89086 0.62982 0.7786 0.0
C2402 C 0.92123 0.63389 0.78131 0.0
C2403 C 0.94822 0.66262 0.77632 0.0
C2404 C 0.9449 0.68754 0.76894 0.0
C2405 C 0.91459 0.68344 0.766 0.0
H2406 H 0.9717 0.66572 0.77842 0.0
H2407 H 0.68025 0.60685 0.72641 0.0
H2408 H 0.14029 0.84627 0.18272 0.0
H2409 H 0.14943 0.84921 0.21657 0.0
H2410 H 0.20888 0.80721 0.20959 0.0
H2411 H 0.19803 0.80237 0.17529 0.0
H2412 H 0.17377 0.78207 0.23934 0.0
H2413 H 0.23894 0.89006 0.22044 0.0
H2414 H 0.25221 0.94024 0.20425 0.0
H2415 H 0.18117 0.94709 0.2368 0.0
H2416 H 0.16711 0.89667 0.25297 0.0
H2417 H 0.22106 0.8221 0.33827 0.0
H2418 H 0.21968 0.8156 0.30364 0.0
H2419 H 0.15222 0.84854 0.2993 0.0
H2420 H 0.15367 0.85516 0.33356 0.0
H2421 H 0.19926 0.87985 0.2751 0.0
H2422 H 0.13199 0.76914 0.29213 0.0
H2423 H 0.11944 0.71893 0.30804 0.0
H2424 H 0.19703 0.71845 0.27913 0.0
H2425 H 0.21032 0.76892 0.26326 0.0
C2426 C 0.15553 0.83778 0.18824 0.0
C2427 C 0.1683 0.82393 0.17613 0.0
C2428 C 0.16099 0.83974 0.20776 0.0
C2429 C 0.18041 0.82904 0.21588 0.0
C2430 C 0.19387 0.81579 0.2038 0.0
C2431 C 0.18793 0.8133 0.18413 0.0
C2432 C 0.18556 0.83102 0.23698 0.0
C2433 C 0.17999 0.8037 0.24708 0.0
C2434 C 0.19327 0.85899 0.24738 0.0
C2435 C 0.20189 0.8895 0.23784 0.0
C2436 C 0.22605 0.90218 0.22407 0.0
C2437 C 0.2337 0.93067 0.2149 0.0
C2438 C 0.21754 0.94683 0.21949 0.0
C2439 C 0.19369 0.93455 0.23327 0.0
C2440 C 0.18589 0.90604 0.24246 0.0
C2441 C 0.20541 0.82723 0.32993 0.0
C2442 C 0.18755 0.83923 0.33871 0.0
C2443 C 0.20471 0.82364 0.3101 0.0
C2444 C 0.18591 0.8317 0.29869 0.0
C2445 C 0.16714 0.84239 0.30763 0.0
C2446 C 0.16786 0.846 0.3273 0.0
C2447 C 0.18662 0.83071 0.27744 0.0
C2448 C 0.1934 0.85833 0.26732 0.0
C2449 C 0.18029 0.80315 0.26709 0.0
C2450 C 0.17237 0.77295 0.27669 0.0
C2451 C 0.14655 0.75847 0.28931 0.0
C2452 C 0.13927 0.72994 0.29829 0.0
C2453 C 0.15748 0.71555 0.29464 0.0
C2454 C 0.18298 0.72964 0.28197 0.0
C2455 C 0.19039 0.7582 0.27298 0.0
H2456 H 0.15178 0.69345 0.30159 0.0
H2457 H 0.22357 0.9689 0.2124 0.0
H2458 H 0.39966 0.20455 0.83915 0.0
H2459 H 0.40472 0.1984 0.80498 0.0
H2460 H 0.30377 0.16113 0.79819 0.0
H2461 H 0.29841 0.16527 0.832 0.0
H2462 H 0.31764 0.12961 0.77685 0.0
H2463 H 0.36803 0.24357 0.78694 0.0
H2464 H 0.40773 0.29514 0.8008 0.0
H2465 H 0.48343 0.2842 0.77763 0.0
H2466 H 0.44426 0.23256 0.76376 0.0
H2467 H 0.29997 0.14863 0.68048 0.0
H2468 H 0.30475 0.1572 0.71464 0.0
H2469 H 0.40424 0.18538 0.71171 0.0
H2470 H 0.39979 0.17839 0.6771 0.0
H2471 H 0.39634 0.2197 0.73782 0.0
H2472 H 0.34302 0.10696 0.72502 0.0
H2473 H 0.30157 0.05732 0.71019 0.0
H2474 H 0.22887 0.06757 0.73837 0.0
H2475 H 0.2698 0.11735 0.75321 0.0
C2476 C 0.37854 0.19467 0.83036 0.0
C2477 C 0.34872 0.18584 0.83839 0.0
C2478 C 0.38149 0.19153 0.81073 0.0
C2479 C 0.35475 0.17996 0.79867 0.0
C2480 C 0.32492 0.17022 0.80691 0.0
C2481 C 0.3219 0.17278 0.82641 0.0
C2482 C 0.35708 0.17769 0.77755 0.0
C2483 C 0.33475 0.14954 0.7684 0.0
C2484 C 0.37983 0.20312 0.76624 0.0
C2485 C 0.40328 0.23411 0.77454 0.0
C2486 C 0.39316 0.25211 0.78493 0.0
C2487 C 0.41553 0.28132 0.79277 0.0
C2488 C 0.44803 0.29282 0.79018 0.0
C2489 C 0.45825 0.27522 0.77967 0.0
C2490 C 0.436 0.24602 0.77181 0.0
C2491 C 0.323 0.15711 0.68707 0.0
C2492 C 0.34948 0.16272 0.67611 0.0
C2493 C 0.32567 0.16173 0.70668 0.0
C2494 C 0.35463 0.17094 0.71601 0.0
C2495 C 0.38154 0.17798 0.70497 0.0
C2496 C 0.37903 0.17408 0.68517 0.0
C2497 C 0.35625 0.17207 0.73725 0.0
C2498 C 0.3794 0.19981 0.74635 0.0
C2499 C 0.33398 0.1464 0.74858 0.0
C2500 C 0.30946 0.11592 0.74014 0.0
C2501 C 0.31819 0.09862 0.72801 0.0
C2502 C 0.2948 0.07051 0.71959 0.0
C2503 C 0.26265 0.05938 0.72329 0.0
C2504 C 0.25379 0.07622 0.73551 0.0
C2505 C 0.27706 0.10434 0.74396 0.0
H2506 H 0.24459 0.03766 0.71671 0.0
H2507 H 0.46529 0.31542 0.79626 0.0
H2508 H 0.28461 0.18167 0.95235 0.0
H2509 H 0.26644 0.19814 0.98012 0.0
H2510 H 0.3398 0.29556 0.97031 0.0
H2511 H 0.36043 0.278 0.94421 0.0
H2512 H 0.33235 0.29428 1.00342 0.0
H2513 H 0.24909 0.25286 0.95664 0.0
H2514 H 0.20978 0.21297 0.93471 0.0
H2515 H 0.16381 0.14913 0.98125 0.0
H2516 H 0.20305 0.1885 1.00341 0.0
H2517 H 0.25228 0.35863 0.05776 0.0
H2518 H 0.27274 0.34218 0.0308 0.0
H2519 H 0.22047 0.2449 0.04998 0.0
H2520 H 0.19999 0.26106 0.07673 0.0
H2521 H 0.216 0.24758 0.01183 0.0
H2522 H 0.30548 0.28961 0.05683 0.0
H2523 H 0.3463 0.33084 0.07748 0.0
H2524 H 0.37797 0.39774 0.03146 0.0
H2525 H 0.33789 0.35651 0.01042 0.0
C2526 C 0.29746 0.20643 0.9566 0.0
C2527 C 0.32403 0.22851 0.94615 0.0
C2528 C 0.28649 0.21613 0.97223 0.0
C2529 C 0.30039 0.2486 0.9771 0.0
C2530 C 0.32806 0.2704 0.9671 0.0
C2531 C 0.34009 0.26037 0.95212 0.0
C2532 C 0.28629 0.25991 0.99236 0.0
C2533 C 0.30684 0.28425 1.0048 0.0
C2534 C 0.2529 0.24704 0.99492 0.0
C2535 C 0.22913 0.22351 0.98164 0.0
C2536 C 0.23065 0.23027 0.96217 0.0
C2537 C 0.20839 0.20775 0.9497 0.0
C2538 C 0.18435 0.17852 0.95658 0.0
C2539 C 0.18245 0.17177 0.97594 0.0
C2540 C 0.20467 0.19418 0.98846 0.0
C2541 C 0.2448 0.33368 0.0561 0.0
C2542 C 0.22436 0.31128 0.06953 0.0
C2543 C 0.25682 0.32429 0.04075 0.0
C2544 C 0.2486 0.29222 0.03833 0.0
C2545 C 0.22738 0.26976 0.05139 0.0
C2546 C 0.21563 0.27913 0.06677 0.0
C2547 C 0.26216 0.28186 0.02244 0.0
C2548 C 0.24146 0.25766 0.01004 0.0
C2549 C 0.29529 0.29536 0.01953 0.0
C2550 C 0.31869 0.32021 0.03218 0.0
C2551 C 0.32112 0.31317 0.05118 0.0
C2552 C 0.34421 0.33645 0.0629 0.0
C2553 C 0.36459 0.36695 0.05582 0.0
C2554 C 0.36214 0.37414 0.03693 0.0
C2555 C 0.33942 0.35077 0.02508 0.0
H2556 H 0.38233 0.38498 0.06494 0.0
H2557 H 0.16716 0.16111 0.9469 0.0
H2558 H 0.10762 0.36169 0.45287 0.0
H2559 H 0.07077 0.34457 0.4799 0.0
H2560 H 0.04414 0.2469 0.46897 0.0
H2561 H 0.07975 0.26385 0.44175 0.0
H2562 H 0.99335 0.24591 0.4755 0.0
H2563 H 0.09154 0.29342 0.50864 0.0
H2564 H 0.14586 0.33495 0.51738 0.0
H2565 H 0.1106 0.39645 0.53462 0.0
H2566 H 0.0561 0.35544 0.52567 0.0
H2567 H 0.93439 0.1909 0.57244 0.0
H2568 H 0.97014 0.21041 0.545 0.0
H2569 H 0.94242 0.28058 0.53439 0.0
H2570 H 0.90565 0.2604 0.56154 0.0
H2571 H 0.01896 0.2962 0.539 0.0
H2572 H 0.91741 0.24112 0.50466 0.0
H2573 H 0.86524 0.19367 0.49837 0.0
H2574 H 0.91102 0.13959 0.48594 0.0
H2575 H 0.96344 0.18658 0.49262 0.0
C2576 C 0.0945 0.33669 0.45657 0.0
C2577 C 0.09693 0.31423 0.44521 0.0
C2578 C 0.0732 0.32678 0.47203 0.0
C2579 C 0.05432 0.29422 0.47675 0.0
C2580 C 0.05788 0.27206 0.46575 0.0
C2581 C 0.07865 0.28187 0.45023 0.0
C2582 C 0.03015 0.28284 0.49262 0.0
C2583 C 0.99928 0.25702 0.48936 0.0
C2584 C 0.03718 0.29683 0.51093 0.0
C2585 C 0.06984 0.32154 0.51628 0.0
C2586 C 0.09543 0.31591 0.51414 0.0
C2587 C 0.12624 0.33933 0.51915 0.0
C2588 C 0.1317 0.36836 0.5265 0.0
C2589 C 0.10634 0.37399 0.52888 0.0
C2590 C 0.07549 0.35067 0.52385 0.0
C2591 C 0.93539 0.21009 0.56405 0.0
C2592 C 0.91682 0.22382 0.56911 0.0
C2593 C 0.95601 0.22133 0.54841 0.0
C2594 C 0.95913 0.24704 0.53761 0.0
C2595 C 0.9404 0.26066 0.54246 0.0
C2596 C 0.91914 0.24889 0.55788 0.0
C2597 C 0.98254 0.25996 0.52161 0.0
C2598 C 0.01323 0.28566 0.52498 0.0
C2599 C 0.97569 0.24531 0.50359 0.0
C2600 C 0.94426 0.21722 0.4994 0.0
C2601 C 0.91631 0.219 0.50084 0.0
C2602 C 0.88671 0.19221 0.49715 0.0
C2603 C 0.8848 0.16359 0.49182 0.0
C2604 C 0.91252 0.16174 0.49012 0.0
C2605 C 0.94218 0.18844 0.49386 0.0
H2606 H 0.86186 0.14289 0.48895 0.0
H2607 H 0.15557 0.38646 0.53039 0.0
H2608 H 0.72383 0.89878 0.05882 0.0
H2609 H 0.74019 0.93226 0.03047 0.0
H2610 H 0.67944 0.96962 0.04703 0.0
H2611 H 0.65868 0.93137 0.07292 0.0
H2612 H 0.68102 0.97664 0.01497 0.0
H2613 H 0.77508 0.00718 0.05285 0.0
H2614 H 0.81457 0.99839 0.06979 0.0
H2615 H 0.83717 0.96749 0.01808 0.0
H2616 H 0.79768 0.9759 1.00088 0.0
H2617 H 0.76373 0.11539 0.95585 0.0
H2618 H 0.74488 0.08042 0.98372 0.0
H2619 H 0.78334 0.02459 0.96046 0.0
H2620 H 0.80329 0.05995 0.93328 0.0
H2621 H 0.79442 0.02972 0.99611 0.0
H2622 H 0.69472 1.0004 0.96023 0.0
H2623 H 0.65438 0.01187 0.94671 0.0
H2624 H 0.6474 0.05063 0.99984 0.0
H2625 H 0.6868 0.03858 0.01385 0.0
C2626 C 0.71349 0.91365 0.05601 0.0
C2627 C 0.69055 0.91306 0.06835 0.0
C2628 C 0.72355 0.93367 0.04002 0.0
C2629 C 0.71291 0.95561 0.03676 0.0
C2630 C 0.6888 0.9537 0.04884 0.0
C2631 C 0.67707 0.93198 0.06396 0.0
C2632 C 0.72639 0.98026 0.02098 0.0
C2633 C 0.70606 0.98848 0.01132 0.0
C2634 C 0.75901 0.9962 0.01543 0.0
C2635 C 0.78329 0.99192 0.02565 0.0
C2636 C 0.78849 0.99851 0.04512 0.0
C2637 C 0.81084 0.99357 0.05476 0.0
C2638 C 0.82831 0.98232 0.04503 0.0
C2639 C 0.82362 0.97618 0.0256 0.0
C2640 C 0.8013 0.98108 0.0159 0.0
C2641 C 0.76855 0.09593 0.9568 0.0
C2642 C 0.7851 0.0907 0.94215 0.0
C2643 C 0.7573 0.07553 0.97268 0.0
C2644 C 0.76188 0.04908 0.97421 0.0
C2645 C 0.77918 0.04452 0.95981 0.0
C2646 C 0.79064 0.06494 0.94413 0.0
C2647 C 0.74907 0.02601 0.9906 0.0
C2648 C 0.76954 0.018 1.00018 0.0
C2649 C 0.71696 0.01128 0.99664 0.0
C2650 C 0.69383 0.01889 0.98799 0.0
C2651 C 0.68466 0.01151 0.96896 0.0
C2652 C 0.66199 0.01807 0.96123 0.0
C2653 C 0.64873 0.03232 0.97231 0.0
C2654 C 0.65779 0.03972 0.99124 0.0
C2655 C 0.68009 0.03285 0.99912 0.0
H2656 H 0.63128 0.03744 0.96625 0.0
H2657 H 0.84552 0.9784 0.05253 0.0
H2658 H 0.8031 0.74473 0.57873 0.0
H2659 H 0.78539 0.76123 0.55101 0.0
H2660 H 0.74957 0.66824 0.52647 0.0
H2661 H 0.76598 0.65078 0.55488 0.0
H2662 H 0.80044 0.76681 0.51438 0.0
H2663 H 0.69654 0.6483 0.50818 0.0
H2664 H 0.65653 0.60417 0.5278 0.0
H2665 H 0.65095 0.67141 0.5648 0.0
H2666 H 0.69172 0.7158 0.54574 0.0
H2667 H 0.74412 0.79066 0.42761 0.0
H2668 H 0.76081 0.77043 0.45385 0.0
H2669 H 0.67875 0.75528 0.48592 0.0
H2670 H 0.65983 0.77217 0.45854 0.0
H2671 H 0.68688 0.71113 0.4952 0.0
H2672 H 0.76434 0.82227 0.49261 0.0
H2673 H 0.80438 0.87263 0.47781 0.0
H2674 H 0.86185 0.831 0.46406 0.0
H2675 H 0.82199 0.78032 0.47862 0.0
C2676 C 0.79149 0.72753 0.56751 0.0
C2677 C 0.78603 0.69618 0.56927 0.0
C2678 C 0.78132 0.73717 0.55153 0.0
C2679 C 0.76543 0.71597 0.53663 0.0
C2680 C 0.76084 0.68493 0.53795 0.0
C2681 C 0.77077 0.67506 0.55413 0.0
C2682 C 0.75401 0.72681 0.51988 0.0
C2683 C 0.77568 0.75439 0.51002 0.0
C2684 C 0.72161 0.71166 0.51448 0.0
C2685 C 0.69709 0.68512 0.52568 0.0
C2686 C 0.68674 0.65352 0.52054 0.0
C2687 C 0.66412 0.62853 0.53161 0.0
C2688 C 0.65128 0.63499 0.54758 0.0
C2689 C 0.66106 0.66644 0.55251 0.0
C2690 C 0.68407 0.6915 0.54168 0.0
C2691 C 0.72949 0.78328 0.44023 0.0
C2692 C 0.70079 0.78401 0.44086 0.0
C2693 C 0.7394 0.77188 0.4555 0.0
C2694 C 0.72194 0.76222 0.47249 0.0
C2695 C 0.69315 0.76281 0.47321 0.0
C2696 C 0.6825 0.7731 0.45755 0.0
C2697 C 0.73349 0.75103 0.48915 0.0
C2698 C 0.7118 0.7235 0.49919 0.0
C2699 C 0.76591 0.76691 0.49506 0.0
C2700 C 0.79009 0.79748 0.48657 0.0
C2701 C 0.78547 0.82386 0.48637 0.0
C2702 C 0.80813 0.85244 0.47803 0.0
C2703 C 0.83561 0.85499 0.46997 0.0
C2704 C 0.84055 0.829 0.4703 0.0
C2705 C 0.81796 0.80036 0.47862 0.0
H2706 H 0.8531 0.87713 0.46349 0.0
H2707 H 0.63372 0.61562 0.55612 0.0
H2708 H 0.92236 0.64807 0.94408 0.0
H2709 H 0.96139 0.66637 0.96973 0.0
H2710 H 0.94865 0.74744 0.97829 0.0
H2711 H 0.91265 0.73087 0.9511 0.0
H2712 H 1.00428 0.7693 0.98233 0.0
H2713 H 0.9216 0.67316 0.0105 0.0
H2714 H 0.88268 0.61575 0.01246 0.0
H2715 H 0.95816 0.59433 0.00727 0.0
H2716 H 0.99747 0.65161 1.00506 0.0
H2717 H 0.07469 0.81142 0.07376 0.0
H2718 H 0.03938 0.79192 0.04649 0.0
H2719 H 0.07682 0.73081 0.03176 0.0
H2720 H 0.11218 0.75002 0.05964 0.0
H2721 H 0.01193 0.69877 0.03027 0.0
H2722 H 0.09436 0.79962 1.00587 0.0
H2723 H 0.12987 0.85781 0.00666 0.0
H2724 H 0.04885 0.87115 0.00832 0.0
H2725 H 0.01285 0.81303 0.00789 0.0
C2726 C 0.92734 0.66934 0.95181 0.0
C2727 C 0.91401 0.68774 0.94576 0.0
C2728 C 0.94977 0.67992 0.96663 0.0
C2729 C 0.95812 0.70827 0.97662 0.0
C2730 C 0.94332 0.72569 0.97103 0.0
C2731 C 0.92216 0.71593 0.95562 0.0
C2732 C 0.98318 0.72077 0.99212 0.0
C2733 C 1.0053 0.75366 0.99293 0.0
C2734 C 0.98591 0.70093 1.00597 0.0
C2735 C 0.96238 0.66659 0.00745 0.0
C2736 C 0.92984 0.65617 0.00969 0.0
C2737 C 0.90773 0.62367 0.01085 0.0
C2738 C 0.91793 0.6014 0.00995 0.0
C2739 C 0.95029 0.61159 0.00794 0.0
C2740 C 0.97249 0.64406 0.00676 0.0
C2741 C 0.07594 0.79421 0.06458 0.0
C2742 C 0.09657 0.78248 0.06892 0.0
C2743 C 0.05562 0.78306 0.04887 0.0
C2744 C 0.05538 0.75999 0.03677 0.0
C2745 C 0.0765 0.74868 0.04077 0.0
C2746 C 0.09704 0.75996 0.0566 0.0
C2747 C 0.03214 0.74701 0.02053 0.0
C2748 C 0.01057 0.71415 0.0196 0.0
C2749 C 0.02925 0.76698 0.00694 0.0
C2750 C 0.05093 0.80195 0.00695 0.0
C2751 C 0.08412 0.81495 0.00651 0.0
C2752 C 0.10434 0.84793 0.0069 0.0
C2753 C 0.09163 0.86816 0.00757 0.0
C2754 C 0.05867 0.85546 0.00782 0.0
C2755 C 0.03835 0.8225 0.00749 0.0
H2756 H 0.10732 0.89368 0.00786 0.0
H2757 H 0.90077 0.57625 0.01084 0.0
H2758 H 0.19215 0.93223 0.44061 0.0
H2759 H 0.21149 0.96858 0.46748 0.0
H2760 H 0.27966 0.93885 0.48022 0.0
H2761 H 0.25942 0.90136 0.45345 0.0
H2762 H 0.25743 0.94893 0.51227 0.0
H2763 H 0.29937 0.01024 0.4551 0.0
H2764 H 0.2942 0.02701 0.4229 0.0
H2765 H 0.23478 0.06212 0.44429 0.0
H2766 H 0.23928 0.04521 0.47658 0.0
H2767 H 0.36254 0.09601 0.56442 0.0
H2768 H 0.34435 0.05856 0.53752 0.0
H2769 H 0.25289 0.05279 0.53941 0.0
H2770 H 0.27038 0.08876 0.56677 0.0
H2771 H 0.28929 0.06162 0.49977 0.0
H2772 H 0.24298 0.99776 0.55532 0.0
H2773 H 0.23998 0.9746 0.58683 0.0
H2774 H 0.30186 0.94059 0.56821 0.0
H2775 H 0.30599 0.96444 0.53671 0.0
C2776 C 0.21088 0.93293 0.44933 0.0
C2777 C 0.22416 0.91376 0.44486 0.0
C2778 C 0.22224 0.95411 0.46463 0.0
C2779 C 0.24784 0.95744 0.4757 0.0
C2780 C 0.26011 0.9371 0.47187 0.0
C2781 C 0.24837 0.91544 0.45664 0.0
C2782 C 0.26199 0.98254 0.4909 0.0
C2783 C 0.26499 0.97367 0.50939 0.0
C2784 C 0.2711 0.01487 0.48747 0.0
C2785 C 0.26954 0.02631 0.46823 0.0
C2786 C 0.28519 0.02151 0.45292 0.0
C2787 C 0.28233 0.03098 0.43466 0.0
C2788 C 0.2641 0.04552 0.43155 0.0
C2789 C 0.24888 0.05083 0.44672 0.0
C2790 C 0.25162 0.04137 0.46501 0.0
C2791 C 0.33889 0.08746 0.55873 0.0
C2792 C 0.31806 0.09574 0.56758 0.0
C2793 C 0.32834 0.06569 0.54352 0.0
C2794 C 0.29707 0.0525 0.5365 0.0
C2795 C 0.27701 0.0624 0.54457 0.0
C2796 C 0.28715 0.08323 0.56012 0.0
C2797 C 0.28496 0.02796 0.52106 0.0
C2798 C 0.28227 0.03698 0.50254 0.0
C2799 C 0.27584 0.99571 0.52449 0.0
C2800 C 0.27543 0.98359 0.5438 0.0
C2801 C 0.25662 0.98609 0.55808 0.0
C2802 C 0.25444 0.97254 0.57589 0.0
C2803 C 0.27066 0.95606 0.57952 0.0
C2804 C 0.28926 0.9533 0.56537 0.0
C2805 C 0.29166 0.96698 0.54757 0.0
H2806 H 0.26893 0.94558 0.59331 0.0
H2807 H 0.2618 0.05271 0.41739 0.0
loop_
_geom_bond_atom_site_label_1
_geom_bond_atom_site_label_2
_geom_bond_distance
_geom_bond_site_symmetry_2
_ccdc_geom_bond_type
Eu0 N29 2.600 . S
Eu0 N35 2.562 . S
Eu0 O44 2.462 . S
Eu0 O45 2.373 . S
Eu0 O47 2.432 . S
Eu0 O48 2.291 . S
Eu0 O52 2.335 . S
Eu0 O55 2.372 . S
Eu0 C64 2.787 . S
C1 N2 1.365 . S
C1 C4 1.405 . S
C1 C8 1.448 . S
N2 C1 1.365 . S
N2 C5 1.319 . S
N2 Eu11 2.600 . S
C3 C5 1.397 . S
C3 C6 1.367 . S
C3 H23 0.931 . S
C4 C1 1.405 . S
C4 C6 1.403 . S
C4 C10 1.439 . S
C5 N2 1.319 . S
C5 C3 1.397 . S
C5 H16 0.930 . S
C6 C3 1.367 . S
C6 C4 1.403 . S
C6 H27 0.929 . S
C7 C8 1.430 . S
C7 C9 1.387 . S
C7 C13 1.404 . S
C8 C1 1.448 . S
C8 C7 1.430 . S
C8 N12 1.351 . S
C9 C7 1.387 . S
C9 C10 1.374 . S
C9 H24 0.931 . S
C10 C4 1.439 . S
C10 C9 1.374 . S
C10 H25 0.931 . S
Eu11 N2 2.600 . S
Eu11 N12 2.562 . S
Eu11 O46 2.335 . S
Eu11 O49 2.372 . S
Eu11 O50 2.462 . S
Eu11 O51 2.373 . S
Eu11 O53 2.432 . S
Eu11 O54 2.291 . S
Eu11 C75 2.787 . S
N12 C8 1.351 . S
N12 Eu11 2.562 . S
N12 C14 1.325 . S
C13 C7 1.404 . S
C13 C15 1.366 . S
C13 H21 0.930 . S
C14 N12 1.325 . S
C14 C15 1.416 . S
C14 H20 0.929 . S
C15 C13 1.366 . S
C15 C14 1.416 . S
C15 H17 0.930 . S
H16 C5 0.930 . S
H17 C15 0.930 . S
H18 C33 0.930 . S
H19 C40 0.930 . S
H20 C14 0.929 . S
H21 C13 0.930 . S
H22 C36 0.929 . S
H23 C3 0.931 . S
H24 C9 0.931 . S
H25 C10 0.931 . S
H26 C31 0.931 . S
H27 C6 0.929 . S
H28 C39 0.930 . S
N29 Eu0 2.600 . S
N29 C30 1.365 . S
N29 C33 1.319 . S
C30 N29 1.365 . S
C30 C32 1.405 . S
C30 C38 1.448 . S
C31 H26 0.931 . S
C31 C33 1.397 . S
C31 C34 1.367 . S
C32 C30 1.405 . S
C32 C34 1.403 . S
C32 C65 1.439 . S
C33 H18 0.930 . S
C33 N29 1.319 . S
C33 C31 1.397 . S
C34 C31 1.367 . S
C34 C32 1.403 . S
C34 H41 0.929 . S
N35 Eu0 2.562 . S
N35 C36 1.325 . S
N35 C38 1.351 . S
C36 H22 0.929 . S
C36 N35 1.325 . S
C36 C40 1.416 . S
C37 C38 1.430 . S
C37 C39 1.404 . S
C37 C66 1.387 . S
C38 C30 1.448 . S
C38 N35 1.351 . S
C38 C37 1.430 . S
C39 H28 0.930 . S
C39 C37 1.404 . S
C39 C40 1.366 . S
C40 H19 0.930 . S
C40 C36 1.416 . S
C40 C39 1.366 . S
H41 C34 0.929 . S
H42 C65 0.931 . S
H43 C66 0.931 . S
O44 Eu0 2.462 . S
O44 C64 1.252 . S
O45 Eu0 2.373 . S
O45 C56 1.249 . S
O46 Eu11 2.335 . S
O46 C56 1.264 . S
O47 Eu0 2.432 . S
O47 C64 1.268 . S
O48 Eu0 2.291 . S
O48 C63 1.255 . S
O49 Eu11 2.372 . S
O49 C63 1.257 . S
O50 Eu11 2.462 . S
O50 C75 1.252 . S
O51 Eu11 2.373 . S
O51 C67 1.249 . S
O52 Eu0 2.335 . S
O52 C67 1.264 . S
O53 Eu11 2.432 . S
O53 C75 1.268 . S
O54 Eu11 2.291 . S
O54 C74 1.255 . S
O55 Eu0 2.372 . S
O55 C74 1.257 . S
C56 O45 1.249 . S
C56 O46 1.264 . S
C57 C60 1.382 . S
C57 C62 1.390 . S
C57 C64 1.506 . S
C58 C59 1.398 . S
C58 C62 1.392 . S
C59 C58 1.398 . S
C59 C61 1.372 . S
C59 H76 0.931 . S
C60 C57 1.382 . S
C60 C61 1.390 . S
C60 H77 0.931 . S
C61 C59 1.372 . S
C61 C60 1.390 . S
C61 H78 0.929 . S
C62 C57 1.390 . S
C62 C58 1.392 . S
C62 H79 0.930 . S
C63 O48 1.255 . S
C63 O49 1.257 . S
C64 Eu0 2.787 . S
C64 O44 1.252 . S
C64 O47 1.268 . S
C64 C57 1.506 . S
C65 C32 1.439 . S
C65 H42 0.931 . S
C65 C66 1.374 . S
C66 C37 1.387 . S
C66 H43 0.931 . S
C66 C65 1.374 . S
C67 O51 1.249 . S
C67 O52 1.264 . S
C68 C71 1.382 . S
C68 C72 1.390 . S
C68 C75 1.506 . S
C69 C70 1.398 . S
C69 C72 1.392 . S
C70 C69 1.398 . S
C70 C73 1.372 . S
C70 H80 0.931 . S
C71 C68 1.382 . S
C71 C73 1.390 . S
C71 H81 0.931 . S
C72 C68 1.390 . S
C72 C69 1.392 . S
C72 H82 0.930 . S
C73 C70 1.372 . S
C73 C71 1.390 . S
C73 H83 0.929 . S
C74 O54 1.255 . S
C74 O55 1.257 . S
C75 Eu11 2.787 . S
C75 O50 1.252 . S
C75 O53 1.268 . S
C75 C68 1.506 . S
H76 C59 0.931 . S
H77 C60 0.931 . S
H78 C61 0.929 . S
H79 C62 0.930 . S
H80 C70 0.931 . S
H81 C71 0.931 . S
H82 C72 0.930 . S
H83 C73 0.929 . S
Eu84 N113 2.600 . S
Eu84 N119 2.562 . S
Eu84 O128 2.462 . S
Eu84 O129 2.373 . S
Eu84 O131 2.432 . S
Eu84 O132 2.291 . S
Eu84 O136 2.335 . S
Eu84 O139 2.372 . S
Eu84 C148 2.787 . S
C85 N86 1.365 . S
C85 C88 1.405 . S
C85 C92 1.448 . S
N86 C85 1.365 . S
N86 C89 1.319 . S
N86 Eu95 2.600 . S
C87 C89 1.397 . S
C87 C90 1.367 . S
C87 H107 0.931 . S
C88 C85 1.405 . S
C88 C90 1.403 . S
C88 C94 1.439 . S
C89 N86 1.319 . S
C89 C87 1.397 . S
C89 H100 0.930 . S
C90 C87 1.367 . S
C90 C88 1.403 . S
C90 H111 0.929 . S
C91 C92 1.430 . S
C91 C93 1.387 . S
C91 C97 1.404 . S
C92 C85 1.448 . S
C92 C91 1.430 . S
C92 N96 1.351 . S
C93 C91 1.387 . S
C93 C94 1.374 . S
C93 H108 0.931 . S
C94 C88 1.439 . S
C94 C93 1.374 . S
C94 H109 0.931 . S
Eu95 N86 2.600 . S
Eu95 N96 2.562 . S
Eu95 O130 2.335 . S
Eu95 O133 2.372 . S
Eu95 O134 2.462 . S
Eu95 O135 2.373 . S
Eu95 O137 2.432 . S
Eu95 O138 2.291 . S
Eu95 C159 2.787 . S
N96 C92 1.351 . S
N96 Eu95 2.562 . S
N96 C98 1.325 . S
C97 C91 1.404 . S
C97 C99 1.366 . S
C97 H105 0.930 . S
C98 N96 1.325 . S
C98 C99 1.416 . S
C98 H104 0.929 . S
C99 C97 1.366 . S
C99 C98 1.416 . S
C99 H101 0.930 . S
H100 C89 0.930 . S
H101 C99 0.930 . S
H102 C117 0.930 . S
H103 C124 0.930 . S
H104 C98 0.929 . S
H105 C97 0.930 . S
H106 C120 0.929 . S
H107 C87 0.931 . S
H108 C93 0.931 . S
H109 C94 0.931 . S
H110 C115 0.931 . S
H111 C90 0.929 . S
H112 C123 0.930 . S
N113 Eu84 2.600 . S
N113 C114 1.365 . S
N113 C117 1.319 . S
C114 N113 1.365 . S
C114 C116 1.405 . S
C114 C122 1.448 . S
C115 H110 0.931 . S
C115 C117 1.397 . S
C115 C118 1.367 . S
C116 C114 1.405 . S
C116 C118 1.403 . S
C116 C149 1.439 . S
C117 H102 0.930 . S
C117 N113 1.319 . S
C117 C115 1.397 . S
C118 C115 1.367 . S
C118 C116 1.403 . S
C118 H125 0.929 . S
N119 Eu84 2.562 . S
N119 C120 1.325 . S
N119 C122 1.351 . S
C120 H106 0.929 . S
C120 N119 1.325 . S
C120 C124 1.416 . S
C121 C122 1.430 . S
C121 C123 1.404 . S
C121 C150 1.387 . S
C122 C114 1.448 . S
C122 N119 1.351 . S
C122 C121 1.430 . S
C123 H112 0.930 . S
C123 C121 1.404 . S
C123 C124 1.366 . S
C124 H103 0.930 . S
C124 C120 1.416 . S
C124 C123 1.366 . S
H125 C118 0.929 . S
H126 C149 0.931 . S
H127 C150 0.931 . S
O128 Eu84 2.462 . S
O128 C148 1.252 . S
O129 Eu84 2.373 . S
O129 C140 1.249 . S
O130 Eu95 2.335 . S
O130 C140 1.264 . S
O131 Eu84 2.432 . S
O131 C148 1.268 . S
O132 Eu84 2.291 . S
O132 C147 1.255 . S
O133 Eu95 2.372 . S
O133 C147 1.257 . S
O134 Eu95 2.462 . S
O134 C159 1.252 . S
O135 Eu95 2.373 . S
O135 C151 1.249 . S
O136 Eu84 2.335 . S
O136 C151 1.264 . S
O137 Eu95 2.432 . S
O137 C159 1.268 . S
O138 Eu95 2.291 . S
O138 C158 1.255 . S
O139 Eu84 2.372 . S
O139 C158 1.257 . S
C140 O129 1.249 . S
C140 O130 1.264 . S
C141 C144 1.382 . S
C141 C146 1.390 . S
C141 C148 1.506 . S
C142 C143 1.398 . S
C142 C146 1.392 1_455 S
C143 C142 1.398 . S
C143 C145 1.372 . S
C143 H160 0.931 . S
C144 C141 1.382 . S
C144 C145 1.390 1_655 S
C144 H161 0.931 . S
C145 C143 1.372 . S
C145 C144 1.390 1_455 S
C145 H162 0.929 . S
C146 C141 1.390 . S
C146 C142 1.392 1_655 S
C146 H163 0.930 . S
C147 O132 1.255 . S
C147 O133 1.257 . S
C148 Eu84 2.787 . S
C148 O128 1.252 . S
C148 O131 1.268 . S
C148 C141 1.506 . S
C149 C116 1.439 . S
C149 H126 0.931 . S
C149 C150 1.374 . S
C150 C121 1.387 . S
C150 H127 0.931 . S
C150 C149 1.374 . S
C151 O135 1.249 . S
C151 O136 1.264 . S
C152 C155 1.382 . S
C152 C156 1.390 . S
C152 C159 1.506 . S
C153 C154 1.398 . S
C153 C156 1.392 . S
C154 C153 1.398 . S
C154 C157 1.372 . S
C154 H164 0.931 . S
C155 C152 1.382 . S
C155 C157 1.390 . S
C155 H165 0.931 . S
C156 C152 1.390 . S
C156 C153 1.392 . S
C156 H166 0.930 . S
C157 C154 1.372 . S
C157 C155 1.390 . S
C157 H167 0.929 . S
C158 O138 1.255 . S
C158 O139 1.257 . S
C159 Eu95 2.787 . S
C159 O134 1.252 . S
C159 O137 1.268 . S
C159 C152 1.506 . S
H160 C143 0.931 . S
H161 C144 0.931 . S
H162 C145 0.929 . S
H163 C146 0.930 . S
H164 C154 0.931 . S
H165 C155 0.931 . S
H166 C156 0.930 . S
H167 C157 0.929 . S
Eu168 N197 2.600 . S
Eu168 N203 2.562 . S
Eu168 O212 2.462 . S
Eu168 O213 2.373 . S
Eu168 O215 2.432 . S
Eu168 O216 2.291 . S
Eu168 O220 2.335 . S
Eu168 O223 2.372 . S
Eu168 C232 2.787 . S
C169 N170 1.365 . S
C169 C172 1.405 . S
C169 C176 1.448 . S
N170 C169 1.365 . S
N170 C173 1.319 . S
N170 Eu179 2.600 . S
C171 C173 1.397 . S
C171 C174 1.367 . S
C171 H191 0.931 . S
C172 C169 1.405 . S
C172 C174 1.403 . S
C172 C178 1.439 . S
C173 N170 1.319 . S
C173 C171 1.397 . S
C173 H184 0.930 . S
C174 C171 1.367 . S
C174 C172 1.403 . S
C174 H195 0.929 . S
C175 C176 1.430 . S
C175 C177 1.387 . S
C175 C181 1.404 . S
C176 C169 1.448 . S
C176 C175 1.430 . S
C176 N180 1.351 . S
C177 C175 1.387 . S
C177 C178 1.374 . S
C177 H192 0.931 . S
C178 C172 1.439 . S
C178 C177 1.374 . S
C178 H193 0.931 . S
Eu179 N170 2.600 . S
Eu179 N180 2.562 . S
Eu179 O214 2.335 . S
Eu179 O217 2.372 . S
Eu179 O218 2.462 . S
Eu179 O219 2.373 . S
Eu179 O221 2.432 . S
Eu179 O222 2.291 . S
Eu179 C243 2.787 . S
N180 C176 1.351 . S
N180 Eu179 2.562 . S
N180 C182 1.325 . S
C181 C175 1.404 . S
C181 C183 1.366 . S
C181 H189 0.930 . S
C182 N180 1.325 . S
C182 C183 1.416 . S
C182 H188 0.929 . S
C183 C181 1.366 . S
C183 C182 1.416 . S
C183 H185 0.930 . S
H184 C173 0.930 . S
H185 C183 0.930 . S
H186 C201 0.930 . S
H187 C208 0.930 . S
H188 C182 0.929 . S
H189 C181 0.930 . S
H190 C204 0.929 . S
H191 C171 0.931 . S
H192 C177 0.931 . S
H193 C178 0.931 . S
H194 C199 0.931 . S
H195 C174 0.929 . S
H196 C207 0.930 . S
N197 Eu168 2.600 . S
N197 C198 1.365 . S
N197 C201 1.319 . S
C198 N197 1.365 . S
C198 C200 1.405 . S
C198 C206 1.448 . S
C199 H194 0.931 . S
C199 C201 1.397 . S
C199 C202 1.367 . S
C200 C198 1.405 . S
C200 C202 1.403 . S
C200 C233 1.439 . S
C201 H186 0.930 . S
C201 N197 1.319 . S
C201 C199 1.397 . S
C202 C199 1.367 . S
C202 C200 1.403 . S
C202 H209 0.929 . S
N203 Eu168 2.562 . S
N203 C204 1.325 . S
N203 C206 1.351 . S
C204 H190 0.929 . S
C204 N203 1.325 . S
C204 C208 1.416 . S
C205 C206 1.430 . S
C205 C207 1.404 . S
C205 C234 1.387 . S
C206 C198 1.448 . S
C206 N203 1.351 . S
C206 C205 1.430 . S
C207 H196 0.930 . S
C207 C205 1.404 . S
C207 C208 1.366 . S
C208 H187 0.930 . S
C208 C204 1.416 . S
C208 C207 1.366 . S
H209 C202 0.929 . S
H210 C233 0.931 . S
H211 C234 0.931 . S
O212 Eu168 2.462 . S
O212 C232 1.252 . S
O213 Eu168 2.373 . S
O213 C224 1.249 . S
O214 Eu179 2.335 . S
O214 C224 1.264 . S
O215 Eu168 2.432 . S
O215 C232 1.268 . S
O216 Eu168 2.291 . S
O216 C231 1.255 . S
O217 Eu179 2.372 . S
O217 C231 1.257 . S
O218 Eu179 2.462 . S
O218 C243 1.252 . S
O219 Eu179 2.373 . S
O219 C235 1.249 . S
O220 Eu168 2.335 . S
O220 C235 1.264 . S
O221 Eu179 2.432 . S
O221 C243 1.268 . S
O222 Eu179 2.291 . S
O222 C242 1.255 . S
O223 Eu168 2.372 . S
O223 C242 1.257 . S
C224 O213 1.249 . S
C224 O214 1.264 . S
C225 C228 1.382 . S
C225 C230 1.390 . S
C225 C232 1.506 . S
C226 C227 1.398 . S
C226 C230 1.392 1_545 S
C227 C226 1.398 . S
C227 C229 1.372 . S
C227 H244 0.931 . S
C228 C225 1.382 . S
C228 C229 1.390 1_565 S
C228 H245 0.931 . S
C229 C227 1.372 . S
C229 C228 1.390 1_545 S
C229 H246 0.929 . S
C230 C225 1.390 . S
C230 C226 1.392 1_565 S
C230 H247 0.930 . S
C231 O216 1.255 . S
C231 O217 1.257 . S
C232 Eu168 2.787 . S
C232 O212 1.252 . S
C232 O215 1.268 . S
C232 C225 1.506 . S
C233 C200 1.439 . S
C233 H210 0.931 . S
C233 C234 1.374 . S
C234 C205 1.387 . S
C234 H211 0.931 . S
C234 C233 1.374 . S
C235 O219 1.249 . S
C235 O220 1.264 . S
C236 C239 1.382 . S
C236 C240 1.390 . S
C236 C243 1.506 . S
C237 C238 1.398 . S
C237 C240 1.392 . S
C238 C237 1.398 . S
C238 C241 1.372 . S
C238 H248 0.931 . S
C239 C236 1.382 . S
C239 C241 1.390 . S
C239 H249 0.931 . S
C240 C236 1.390 . S
C240 C237 1.392 . S
C240 H250 0.930 . S
C241 C238 1.372 . S
C241 C239 1.390 . S
C241 H251 0.929 . S
C242 O222 1.255 . S
C242 O223 1.257 . S
C243 Eu179 2.787 . S
C243 O218 1.252 . S
C243 O221 1.268 . S
C243 C236 1.506 . S
H244 C227 0.931 . S
H245 C228 0.931 . S
H246 C229 0.929 . S
H247 C230 0.930 . S
H248 C238 0.931 . S
H249 C239 0.931 . S
H250 C240 0.930 . S
H251 C241 0.929 . S
Eu252 N281 2.600 . S
Eu252 N287 2.562 . S
Eu252 O296 2.462 . S
Eu252 O297 2.373 . S
Eu252 O299 2.432 . S
Eu252 O300 2.291 . S
Eu252 O304 2.335 . S
Eu252 O307 2.372 . S
Eu252 C316 2.787 . S
C253 N254 1.365 . S
C253 C256 1.405 . S
C253 C260 1.448 . S
N254 C253 1.365 . S
N254 C257 1.319 . S
N254 Eu263 2.600 . S
C255 C257 1.397 . S
C255 C258 1.367 . S
C255 H275 0.931 . S
C256 C253 1.405 . S
C256 C258 1.403 . S
C256 C262 1.439 . S
C257 N254 1.319 . S
C257 C255 1.397 . S
C257 H268 0.930 . S
C258 C255 1.367 . S
C258 C256 1.403 . S
C258 H279 0.929 . S
C259 C260 1.430 . S
C259 C261 1.387 . S
C259 C265 1.404 . S
C260 C253 1.448 . S
C260 C259 1.430 . S
C260 N264 1.351 . S
C261 C259 1.387 . S
C261 C262 1.374 . S
C261 H276 0.931 . S
C262 C256 1.439 . S
C262 C261 1.374 . S
C262 H277 0.931 . S
Eu263 N254 2.600 . S
Eu263 N264 2.562 . S
Eu263 O298 2.335 . S
Eu263 O301 2.372 . S
Eu263 O302 2.462 . S
Eu263 O303 2.373 . S
Eu263 O305 2.432 . S
Eu263 O306 2.291 . S
Eu263 C327 2.787 . S
N264 C260 1.351 . S
N264 Eu263 2.562 . S
N264 C266 1.325 . S
C265 C259 1.404 . S
C265 C267 1.366 . S
C265 H273 0.930 . S
C266 N264 1.325 . S
C266 C267 1.416 . S
C266 H272 0.929 . S
C267 C265 1.366 . S
C267 C266 1.416 . S
C267 H269 0.930 . S
H268 C257 0.930 . S
H269 C267 0.930 . S
H270 C285 0.930 . S
H271 C292 0.930 . S
H272 C266 0.929 . S
H273 C265 0.930 . S
H274 C288 0.929 . S
H275 C255 0.931 . S
H276 C261 0.931 . S
H277 C262 0.931 . S
H278 C283 0.931 . S
H279 C258 0.929 . S
H280 C291 0.930 . S
N281 Eu252 2.600 . S
N281 C282 1.365 . S
N281 C285 1.319 . S
C282 N281 1.365 . S
C282 C284 1.405 . S
C282 C290 1.448 . S
C283 H278 0.931 . S
C283 C285 1.397 . S
C283 C286 1.367 . S
C284 C282 1.405 . S
C284 C286 1.403 . S
C284 C317 1.439 . S
C285 H270 0.930 . S
C285 N281 1.319 . S
C285 C283 1.397 . S
C286 C283 1.367 . S
C286 C284 1.403 . S
C286 H293 0.929 . S
N287 Eu252 2.562 . S
N287 C288 1.325 . S
N287 C290 1.351 . S
C288 H274 0.929 . S
C288 N287 1.325 . S
C288 C292 1.416 . S
C289 C290 1.430 . S
C289 C291 1.404 . S
C289 C318 1.387 . S
C290 C282 1.448 . S
C290 N287 1.351 . S
C290 C289 1.430 . S
C291 H280 0.930 . S
C291 C289 1.404 . S
C291 C292 1.366 . S
C292 H271 0.930 . S
C292 C288 1.416 . S
C292 C291 1.366 . S
H293 C286 0.929 . S
H294 C317 0.931 . S
H295 C318 0.931 . S
O296 Eu252 2.462 . S
O296 C316 1.252 . S
O297 Eu252 2.373 . S
O297 C308 1.249 . S
O298 Eu263 2.335 . S
O298 C308 1.264 . S
O299 Eu252 2.432 . S
O299 C316 1.268 . S
O300 Eu252 2.291 . S
O300 C315 1.255 . S
O301 Eu263 2.372 . S
O301 C315 1.257 . S
O302 Eu263 2.462 . S
O302 C327 1.252 . S
O303 Eu263 2.373 . S
O303 C319 1.249 . S
O304 Eu252 2.335 . S
O304 C319 1.264 . S
O305 Eu263 2.432 . S
O305 C327 1.268 . S
O306 Eu263 2.291 . S
O306 C326 1.255 . S
O307 Eu252 2.372 . S
O307 C326 1.257 . S
C308 O297 1.249 . S
C308 O298 1.264 . S
C309 C312 1.382 . S
C309 C314 1.390 . S
C309 C316 1.506 . S
C310 C311 1.398 . S
C310 C314 1.392 . S
C311 C310 1.398 . S
C311 C313 1.372 . S
C311 H328 0.931 . S
C312 C309 1.382 . S
C312 C313 1.390 . S
C312 H329 0.931 . S
C313 C311 1.372 . S
C313 C312 1.390 . S
C313 H330 0.929 . S
C314 C309 1.390 . S
C314 C310 1.392 . S
C314 H331 0.930 . S
C315 O300 1.255 . S
C315 O301 1.257 . S
C316 Eu252 2.787 . S
C316 O296 1.252 . S
C316 O299 1.268 . S
C316 C309 1.506 . S
C317 C284 1.439 . S
C317 H294 0.931 . S
C317 C318 1.374 . S
C318 C289 1.387 . S
C318 H295 0.931 . S
C318 C317 1.374 . S
C319 O303 1.249 . S
C319 O304 1.264 . S
C320 C323 1.382 . S
C320 C324 1.390 . S
C320 C327 1.506 . S
C321 C322 1.398 . S
C321 C324 1.392 . S
C322 C321 1.398 . S
C322 C325 1.372 . S
C322 H332 0.931 . S
C323 C320 1.382 . S
C323 C325 1.390 . S
C323 H333 0.931 . S
C324 C320 1.390 . S
C324 C321 1.392 . S
C324 H334 0.930 . S
C325 C322 1.372 . S
C325 C323 1.390 . S
C325 H335 0.929 . S
C326 O306 1.255 . S
C326 O307 1.257 . S
C327 Eu263 2.787 . S
C327 O302 1.252 . S
C327 O305 1.268 . S
C327 C320 1.506 . S
H328 C311 0.931 . S
H329 C312 0.931 . S
H330 C313 0.929 . S
H331 C314 0.930 . S
H332 C322 0.931 . S
H333 C323 0.931 . S
H334 C324 0.930 . S
H335 C325 0.929 . S
Eu336 N365 2.600 . S
Eu336 N371 2.562 . S
Eu336 O380 2.462 . S
Eu336 O381 2.373 . S
Eu336 O383 2.432 . S
Eu336 O384 2.291 . S
Eu336 O388 2.335 . S
Eu336 O391 2.372 . S
Eu336 C400 2.787 . S
C337 N338 1.365 . S
C337 C340 1.405 . S
C337 C344 1.448 . S
N338 C337 1.365 . S
N338 C341 1.319 . S
N338 Eu347 2.600 . S
C339 C341 1.397 . S
C339 C342 1.367 . S
C339 H359 0.931 . S
C340 C337 1.405 . S
C340 C342 1.403 . S
C340 C346 1.439 . S
C341 N338 1.319 . S
C341 C339 1.397 . S
C341 H352 0.930 . S
C342 C339 1.367 . S
C342 C340 1.403 . S
C342 H363 0.929 . S
C343 C344 1.430 . S
C343 C345 1.387 . S
C343 C349 1.404 . S
C344 C337 1.448 . S
C344 C343 1.430 . S
C344 N348 1.351 . S
C345 C343 1.387 . S
C345 C346 1.374 . S
C345 H360 0.931 . S
C346 C340 1.439 . S
C346 C345 1.374 . S
C346 H361 0.931 . S
Eu347 N338 2.600 . S
Eu347 N348 2.562 . S
Eu347 O382 2.335 . S
Eu347 O385 2.372 . S
Eu347 O386 2.462 . S
Eu347 O387 2.373 . S
Eu347 O389 2.432 . S
Eu347 O390 2.291 . S
Eu347 C411 2.787 . S
N348 C344 1.351 . S
N348 Eu347 2.562 . S
N348 C350 1.325 . S
C349 C343 1.404 . S
C349 C351 1.366 . S
C349 H357 0.930 . S
C350 N348 1.325 . S
C350 C351 1.416 . S
C350 H356 0.929 . S
C351 C349 1.366 . S
C351 C350 1.416 . S
C351 H353 0.930 . S
H352 C341 0.930 . S
H353 C351 0.930 . S
H354 C369 0.930 . S
H355 C376 0.930 . S
H356 C350 0.929 . S
H357 C349 0.930 . S
H358 C372 0.929 . S
H359 C339 0.931 . S
H360 C345 0.931 . S
H361 C346 0.931 . S
H362 C367 0.931 . S
H363 C342 0.929 . S
H364 C375 0.930 . S
N365 Eu336 2.600 . S
N365 C366 1.365 . S
N365 C369 1.319 . S
C366 N365 1.365 . S
C366 C368 1.405 . S
C366 C374 1.448 . S
C367 H362 0.931 . S
C367 C369 1.397 . S
C367 C370 1.367 . S
C368 C366 1.405 . S
C368 C370 1.403 . S
C368 C401 1.439 . S
C369 H354 0.930 . S
C369 N365 1.319 . S
C369 C367 1.397 . S
C370 C367 1.367 . S
C370 C368 1.403 . S
C370 H377 0.929 . S
N371 Eu336 2.562 . S
N371 C372 1.325 . S
N371 C374 1.351 . S
C372 H358 0.929 . S
C372 N371 1.325 . S
C372 C376 1.416 . S
C373 C374 1.430 . S
C373 C375 1.404 . S
C373 C402 1.387 . S
C374 C366 1.448 . S
C374 N371 1.351 . S
C374 C373 1.430 . S
C375 H364 0.930 . S
C375 C373 1.404 . S
C375 C376 1.366 . S
C376 H355 0.930 . S
C376 C372 1.416 . S
C376 C375 1.366 . S
H377 C370 0.929 . S
H378 C401 0.931 . S
H379 C402 0.931 . S
O380 Eu336 2.462 . S
O380 C400 1.252 . S
O381 Eu336 2.373 . S
O381 C392 1.249 . S
O382 Eu347 2.335 . S
O382 C392 1.264 . S
O383 Eu336 2.432 . S
O383 C400 1.268 . S
O384 Eu336 2.291 . S
O384 C399 1.255 . S
O385 Eu347 2.372 . S
O385 C399 1.257 . S
O386 Eu347 2.462 . S
O386 C411 1.252 . S
O387 Eu347 2.373 . S
O387 C403 1.249 . S
O388 Eu336 2.335 . S
O388 C403 1.264 . S
O389 Eu347 2.432 . S
O389 C411 1.268 . S
O390 Eu347 2.291 . S
O390 C410 1.255 . S
O391 Eu336 2.372 . S
O391 C410 1.257 . S
C392 O381 1.249 . S
C392 O382 1.264 . S
C393 C396 1.382 . S
C393 C398 1.390 . S
C393 C400 1.506 . S
C394 C395 1.398 . S
C394 C398 1.392 1_655 S
C395 C394 1.398 . S
C395 C397 1.372 . S
C395 H412 0.931 . S
C396 C393 1.382 . S
C396 C397 1.390 1_455 S
C396 H413 0.931 . S
C397 C395 1.372 . S
C397 C396 1.390 1_655 S
C397 H414 0.929 . S
C398 C393 1.390 . S
C398 C394 1.392 1_455 S
C398 H415 0.930 . S
C399 O384 1.255 . S
C399 O385 1.257 . S
C400 Eu336 2.787 . S
C400 O380 1.252 . S
C400 O383 1.268 . S
C400 C393 1.506 . S
C401 C368 1.439 . S
C401 H378 0.931 . S
C401 C402 1.374 . S
C402 C373 1.387 . S
C402 H379 0.931 . S
C402 C401 1.374 . S
C403 O387 1.249 . S
C403 O388 1.264 . S
C404 C407 1.382 . S
C404 C408 1.390 . S
C404 C411 1.506 . S
C405 C406 1.398 . S
C405 C408 1.392 . S
C406 C405 1.398 . S
C406 C409 1.372 . S
C406 H416 0.931 . S
C407 C404 1.382 . S
C407 C409 1.390 . S
C407 H417 0.931 . S
C408 C404 1.390 . S
C408 C405 1.392 . S
C408 H418 0.930 . S
C409 C406 1.372 . S
C409 C407 1.390 . S
C409 H419 0.929 . S
C410 O390 1.255 . S
C410 O391 1.257 . S
C411 Eu347 2.787 . S
C411 O386 1.252 . S
C411 O389 1.268 . S
C411 C404 1.506 . S
H412 C395 0.931 . S
H413 C396 0.931 . S
H414 C397 0.929 . S
H415 C398 0.930 . S
H416 C406 0.931 . S
H417 C407 0.931 . S
H418 C408 0.930 . S
H419 C409 0.929 . S
Eu420 N449 2.600 . S
Eu420 N455 2.562 . S
Eu420 O464 2.462 . S
Eu420 O465 2.373 . S
Eu420 O467 2.432 . S
Eu420 O468 2.291 . S
Eu420 O472 2.335 . S
Eu420 O475 2.372 . S
Eu420 C484 2.787 . S
C421 N422 1.365 . S
C421 C424 1.405 . S
C421 C428 1.448 . S
N422 C421 1.365 . S
N422 C425 1.319 . S
N422 Eu431 2.600 . S
C423 C425 1.397 . S
C423 C426 1.367 . S
C423 H443 0.931 . S
C424 C421 1.405 . S
C424 C426 1.403 . S
C424 C430 1.439 . S
C425 N422 1.319 . S
C425 C423 1.397 . S
C425 H436 0.930 . S
C426 C423 1.367 . S
C426 C424 1.403 . S
C426 H447 0.929 . S
C427 C428 1.430 . S
C427 C429 1.387 . S
C427 C433 1.404 . S
C428 C421 1.448 . S
C428 C427 1.430 . S
C428 N432 1.351 . S
C429 C427 1.387 . S
C429 C430 1.374 . S
C429 H444 0.931 . S
C430 C424 1.439 . S
C430 C429 1.374 . S
C430 H445 0.931 . S
Eu431 N422 2.600 . S
Eu431 N432 2.562 . S
Eu431 O466 2.335 . S
Eu431 O469 2.372 . S
Eu431 O470 2.462 . S
Eu431 O471 2.373 . S
Eu431 O473 2.432 . S
Eu431 O474 2.291 . S
Eu431 C495 2.787 . S
N432 C428 1.351 . S
N432 Eu431 2.562 . S
N432 C434 1.325 . S
C433 C427 1.404 . S
C433 C435 1.366 . S
C433 H441 0.930 . S
C434 N432 1.325 . S
C434 C435 1.416 . S
C434 H440 0.929 . S
C435 C433 1.366 . S
C435 C434 1.416 . S
C435 H437 0.930 . S
H436 C425 0.930 . S
H437 C435 0.930 . S
H438 C453 0.930 . S
H439 C460 0.930 . S
H440 C434 0.929 . S
H441 C433 0.930 . S
H442 C456 0.929 . S
H443 C423 0.931 . S
H444 C429 0.931 . S
H445 C430 0.931 . S
H446 C451 0.931 . S
H447 C426 0.929 . S
H448 C459 0.930 . S
N449 Eu420 2.600 . S
N449 C450 1.365 . S
N449 C453 1.319 . S
C450 N449 1.365 . S
C450 C452 1.405 . S
C450 C458 1.448 . S
C451 H446 0.931 . S
C451 C453 1.397 . S
C451 C454 1.367 . S
C452 C450 1.405 . S
C452 C454 1.403 . S
C452 C485 1.439 . S
C453 H438 0.930 . S
C453 N449 1.319 . S
C453 C451 1.397 . S
C454 C451 1.367 . S
C454 C452 1.403 . S
C454 H461 0.929 . S
N455 Eu420 2.562 . S
N455 C456 1.325 . S
N455 C458 1.351 . S
C456 H442 0.929 . S
C456 N455 1.325 . S
C456 C460 1.416 . S
C457 C458 1.430 . S
C457 C459 1.404 . S
C457 C486 1.387 . S
C458 C450 1.448 . S
C458 N455 1.351 . S
C458 C457 1.430 . S
C459 H448 0.930 . S
C459 C457 1.404 . S
C459 C460 1.366 . S
C460 H439 0.930 . S
C460 C456 1.416 . S
C460 C459 1.366 . S
H461 C454 0.929 . S
H462 C485 0.931 . S
H463 C486 0.931 . S
O464 Eu420 2.462 . S
O464 C484 1.252 . S
O465 Eu420 2.373 . S
O465 C476 1.249 . S
O466 Eu431 2.335 . S
O466 C476 1.264 . S
O467 Eu420 2.432 . S
O467 C484 1.268 . S
O468 Eu420 2.291 . S
O468 C483 1.255 . S
O469 Eu431 2.372 . S
O469 C483 1.257 . S
O470 Eu431 2.462 . S
O470 C495 1.252 . S
O471 Eu431 2.373 . S
O471 C487 1.249 . S
O472 Eu420 2.335 . S
O472 C487 1.264 . S
O473 Eu431 2.432 . S
O473 C495 1.268 . S
O474 Eu431 2.291 . S
O474 C494 1.255 . S
O475 Eu420 2.372 . S
O475 C494 1.257 . S
C476 O465 1.249 . S
C476 O466 1.264 . S
C477 C480 1.382 . S
C477 C482 1.390 . S
C477 C484 1.506 . S
C478 C479 1.398 . S
C478 C482 1.392 1_565 S
C479 C478 1.398 . S
C479 C481 1.372 . S
C479 H496 0.931 . S
C480 C477 1.382 . S
C480 C481 1.390 1_545 S
C480 H497 0.931 . S
C481 C479 1.372 . S
C481 C480 1.390 1_565 S
C481 H498 0.929 . S
C482 C477 1.390 . S
C482 C478 1.392 1_545 S
C482 H499 0.930 . S
C483 O468 1.255 . S
C483 O469 1.257 . S
C484 Eu420 2.787 . S
C484 O464 1.252 . S
C484 O467 1.268 . S
C484 C477 1.506 . S
C485 C452 1.439 . S
C485 H462 0.931 . S
C485 C486 1.374 . S
C486 C457 1.387 . S
C486 H463 0.931 . S
C486 C485 1.374 . S
C487 O471 1.249 . S
C487 O472 1.264 . S
C488 C491 1.382 . S
C488 C492 1.390 . S
C488 C495 1.506 . S
C489 C490 1.398 . S
C489 C492 1.392 . S
C490 C489 1.398 . S
C490 C493 1.372 . S
C490 H500 0.931 . S
C491 C488 1.382 . S
C491 C493 1.390 . S
C491 H501 0.931 . S
C492 C488 1.390 . S
C492 C489 1.392 . S
C492 H502 0.930 . S
C493 C490 1.372 . S
C493 C491 1.390 . S
C493 H503 0.929 . S
C494 O474 1.255 . S
C494 O475 1.257 . S
C495 Eu431 2.787 . S
C495 O470 1.252 . S
C495 O473 1.268 . S
C495 C488 1.506 . S
H496 C479 0.931 . S
H497 C480 0.931 . S
H498 C481 0.929 . S
H499 C482 0.930 . S
H500 C490 0.931 . S
H501 C491 0.931 . S
H502 C492 0.930 . S
H503 C493 0.929 . S
Eu504 N533 2.600 . S
Eu504 N539 2.562 . S
Eu504 O548 2.462 . S
Eu504 O549 2.373 . S
Eu504 O551 2.432 . S
Eu504 O552 2.291 . S
Eu504 O556 2.335 . S
Eu504 O559 2.372 . S
Eu504 C568 2.787 . S
C505 N506 1.365 . S
C505 C508 1.405 . S
C505 C512 1.448 . S
N506 C505 1.365 . S
N506 C509 1.319 . S
N506 Eu515 2.600 . S
C507 C509 1.397 . S
C507 C510 1.367 . S
C507 H527 0.931 . S
C508 C505 1.405 . S
C508 C510 1.403 . S
C508 C514 1.439 . S
C509 N506 1.319 . S
C509 C507 1.397 . S
C509 H520 0.930 . S
C510 C507 1.367 . S
C510 C508 1.403 . S
C510 H531 0.929 . S
C511 C512 1.430 . S
C511 C513 1.387 . S
C511 C517 1.404 . S
C512 C505 1.448 . S
C512 C511 1.430 . S
C512 N516 1.351 . S
C513 C511 1.387 . S
C513 C514 1.374 . S
C513 H528 0.931 . S
C514 C508 1.439 . S
C514 C513 1.374 . S
C514 H529 0.931 . S
Eu515 N506 2.600 . S
Eu515 N516 2.562 . S
Eu515 O550 2.335 . S
Eu515 O553 2.372 . S
Eu515 O554 2.462 . S
Eu515 O555 2.373 . S
Eu515 O557 2.432 . S
Eu515 O558 2.291 . S
Eu515 C579 2.787 . S
N516 C512 1.351 . S
N516 Eu515 2.562 . S
N516 C518 1.325 . S
C517 C511 1.404 . S
C517 C519 1.366 . S
C517 H525 0.930 . S
C518 N516 1.325 . S
C518 C519 1.416 . S
C518 H524 0.929 . S
C519 C517 1.366 . S
C519 C518 1.416 . S
C519 H521 0.930 . S
H520 C509 0.930 . S
H521 C519 0.930 . S
H522 C537 0.930 . S
H523 C544 0.930 . S
H524 C518 0.929 . S
H525 C517 0.930 . S
H526 C540 0.929 . S
H527 C507 0.931 . S
H528 C513 0.931 . S
H529 C514 0.931 . S
H530 C535 0.931 . S
H531 C510 0.929 . S
H532 C543 0.930 . S
N533 Eu504 2.600 . S
N533 C534 1.365 . S
N533 C537 1.319 . S
C534 N533 1.365 . S
C534 C536 1.405 . S
C534 C542 1.448 . S
C535 H530 0.931 . S
C535 C537 1.397 . S
C535 C538 1.367 . S
C536 C534 1.405 . S
C536 C538 1.403 . S
C536 C569 1.439 . S
C537 H522 0.930 . S
C537 N533 1.319 . S
C537 C535 1.397 . S
C538 C535 1.367 . S
C538 C536 1.403 . S
C538 H545 0.929 . S
N539 Eu504 2.562 . S
N539 C540 1.325 . S
N539 C542 1.351 . S
C540 H526 0.929 . S
C540 N539 1.325 . S
C540 C544 1.416 . S
C541 C542 1.430 . S
C541 C543 1.404 . S
C541 C570 1.387 . S
C542 C534 1.448 . S
C542 N539 1.351 . S
C542 C541 1.430 . S
C543 H532 0.930 . S
C543 C541 1.404 . S
C543 C544 1.366 . S
C544 H523 0.930 . S
C544 C540 1.416 . S
C544 C543 1.366 . S
H545 C538 0.929 . S
H546 C569 0.931 . S
H547 C570 0.931 . S
O548 Eu504 2.462 . S
O548 C568 1.252 . S
O549 Eu504 2.373 . S
O549 C560 1.249 . S
O550 Eu515 2.335 . S
O550 C560 1.264 . S
O551 Eu504 2.432 . S
O551 C568 1.268 . S
O552 Eu504 2.291 . S
O552 C567 1.255 . S
O553 Eu515 2.372 . S
O553 C567 1.257 . S
O554 Eu515 2.462 . S
O554 C579 1.252 . S
O555 Eu515 2.373 . S
O555 C571 1.249 . S
O556 Eu504 2.335 . S
O556 C571 1.264 . S
O557 Eu515 2.432 . S
O557 C579 1.268 . S
O558 Eu515 2.291 . S
O558 C578 1.255 . S
O559 Eu504 2.372 . S
O559 C578 1.257 . S
C560 O549 1.249 . S
C560 O550 1.264 . S
C561 C564 1.382 . S
C561 C566 1.390 . S
C561 C568 1.506 . S
C562 C563 1.398 . S
C562 C566 1.392 . S
C563 C562 1.398 . S
C563 C565 1.372 . S
C563 H580 0.931 . S
C564 C561 1.382 . S
C564 C565 1.390 . S
C564 H581 0.931 . S
C565 C563 1.372 . S
C565 C564 1.390 . S
C565 H582 0.929 . S
C566 C561 1.390 . S
C566 C562 1.392 . S
C566 H583 0.930 . S
C567 O552 1.255 . S
C567 O553 1.257 . S
C568 Eu504 2.787 . S
C568 O548 1.252 . S
C568 O551 1.268 . S
C568 C561 1.506 . S
C569 C536 1.439 . S
C569 H546 0.931 . S
C569 C570 1.374 . S
C570 C541 1.387 . S
C570 H547 0.931 . S
C570 C569 1.374 . S
C571 O555 1.249 . S
C571 O556 1.264 . S
C572 C575 1.382 . S
C572 C576 1.390 . S
C572 C579 1.506 . S
C573 C574 1.398 . S
C573 C576 1.392 . S
C574 C573 1.398 . S
C574 C577 1.372 . S
C574 H584 0.931 . S
C575 C572 1.382 . S
C575 C577 1.390 . S
C575 H585 0.931 . S
C576 C572 1.390 . S
C576 C573 1.392 . S
C576 H586 0.930 . S
C577 C574 1.372 . S
C577 C575 1.390 . S
C577 H587 0.929 . S
C578 O558 1.255 . S
C578 O559 1.257 . S
C579 Eu515 2.787 . S
C579 O554 1.252 . S
C579 O557 1.268 . S
C579 C572 1.506 . S
H580 C563 0.931 . S
H581 C564 0.931 . S
H582 C565 0.929 . S
H583 C566 0.930 . S
H584 C574 0.931 . S
H585 C575 0.931 . S
H586 C576 0.930 . S
H587 C577 0.929 . S
Eu588 N617 2.600 . S
Eu588 N623 2.562 . S
Eu588 O632 2.462 . S
Eu588 O633 2.373 . S
Eu588 O635 2.432 . S
Eu588 O636 2.291 . S
Eu588 O640 2.335 . S
Eu588 O643 2.372 . S
Eu588 C652 2.787 . S
C589 N590 1.365 . S
C589 C592 1.405 . S
C589 C596 1.448 . S
N590 C589 1.365 . S
N590 C593 1.319 . S
N590 Eu599 2.600 . S
C591 C593 1.397 . S
C591 C594 1.367 . S
C591 H611 0.931 . S
C592 C589 1.405 . S
C592 C594 1.403 . S
C592 C598 1.439 . S
C593 N590 1.319 . S
C593 C591 1.397 . S
C593 H604 0.930 . S
C594 C591 1.367 . S
C594 C592 1.403 . S
C594 H615 0.929 . S
C595 C596 1.430 . S
C595 C597 1.387 . S
C595 C601 1.404 . S
C596 C589 1.448 . S
C596 C595 1.430 . S
C596 N600 1.351 . S
C597 C595 1.387 . S
C597 C598 1.374 . S
C597 H612 0.931 . S
C598 C592 1.439 . S
C598 C597 1.374 . S
C598 H613 0.931 . S
Eu599 N590 2.600 . S
Eu599 N600 2.562 . S
Eu599 O634 2.335 . S
Eu599 O637 2.372 . S
Eu599 O638 2.462 . S
Eu599 O639 2.373 . S
Eu599 O641 2.432 . S
Eu599 O642 2.291 . S
Eu599 C663 2.787 . S
N600 C596 1.351 . S
N600 Eu599 2.562 . S
N600 C602 1.325 . S
C601 C595 1.404 . S
C601 C603 1.366 . S
C601 H609 0.930 . S
C602 N600 1.325 . S
C602 C603 1.416 . S
C602 H608 0.929 . S
C603 C601 1.366 . S
C603 C602 1.416 . S
C603 H605 0.930 . S
H604 C593 0.930 . S
H605 C603 0.930 . S
H606 C621 0.930 . S
H607 C628 0.930 . S
H608 C602 0.929 . S
H609 C601 0.930 . S
H610 C624 0.929 . S
H611 C591 0.931 . S
H612 C597 0.931 . S
H613 C598 0.931 . S
H614 C619 0.931 . S
H615 C594 0.929 . S
H616 C627 0.930 . S
N617 Eu588 2.600 . S
N617 C618 1.365 . S
N617 C621 1.319 . S
C618 N617 1.365 . S
C618 C620 1.405 . S
C618 C626 1.448 . S
C619 H614 0.931 . S
C619 C621 1.397 . S
C619 C622 1.367 . S
C620 C618 1.405 . S
C620 C622 1.403 . S
C620 C653 1.439 . S
C621 H606 0.930 . S
C621 N617 1.319 . S
C621 C619 1.397 . S
C622 C619 1.367 . S
C622 C620 1.403 . S
C622 H629 0.929 . S
N623 Eu588 2.562 . S
N623 C624 1.325 . S
N623 C626 1.351 . S
C624 H610 0.929 . S
C624 N623 1.325 . S
C624 C628 1.416 . S
C625 C626 1.430 . S
C625 C627 1.404 . S
C625 C654 1.387 . S
C626 C618 1.448 . S
C626 N623 1.351 . S
C626 C625 1.430 . S
C627 H616 0.930 . S
C627 C625 1.404 . S
C627 C628 1.366 . S
C628 H607 0.930 . S
C628 C624 1.416 . S
C628 C627 1.366 . S
H629 C622 0.929 . S
H630 C653 0.931 . S
H631 C654 0.931 . S
O632 Eu588 2.462 . S
O632 C652 1.252 . S
O633 Eu588 2.373 . S
O633 C644 1.249 . S
O634 Eu599 2.335 . S
O634 C644 1.264 . S
O635 Eu588 2.432 . S
O635 C652 1.268 . S
O636 Eu588 2.291 . S
O636 C651 1.255 . S
O637 Eu599 2.372 . S
O637 C651 1.257 . S
O638 Eu599 2.462 . S
O638 C663 1.252 . S
O639 Eu599 2.373 . S
O639 C655 1.249 . S
O640 Eu588 2.335 . S
O640 C655 1.264 . S
O641 Eu599 2.432 . S
O641 C663 1.268 . S
O642 Eu599 2.291 . S
O642 C662 1.255 . S
O643 Eu588 2.372 . S
O643 C662 1.257 . S
C644 O633 1.249 . S
C644 O634 1.264 . S
C645 C648 1.382 . S
C645 C650 1.390 . S
C645 C652 1.506 . S
C646 C647 1.398 . S
C646 C650 1.392 1_455 S
C647 C646 1.398 . S
C647 C649 1.372 . S
C647 H664 0.931 . S
C648 C645 1.382 . S
C648 C649 1.390 1_655 S
C648 H665 0.931 . S
C649 C647 1.372 . S
C649 C648 1.390 1_455 S
C649 H666 0.929 . S
C650 C645 1.390 . S
C650 C646 1.392 1_655 S
C650 H667 0.930 . S
C651 O636 1.255 . S
C651 O637 1.257 . S
C652 Eu588 2.787 . S
C652 O632 1.252 . S
C652 O635 1.268 . S
C652 C645 1.506 . S
C653 C620 1.439 . S
C653 H630 0.931 . S
C653 C654 1.374 . S
C654 C625 1.387 . S
C654 H631 0.931 . S
C654 C653 1.374 . S
C655 O639 1.249 . S
C655 O640 1.264 . S
C656 C659 1.382 . S
C656 C660 1.390 . S
C656 C663 1.506 . S
C657 C658 1.398 . S
C657 C660 1.392 . S
C658 C657 1.398 . S
C658 C661 1.372 . S
C658 H668 0.931 . S
C659 C656 1.382 . S
C659 C661 1.390 . S
C659 H669 0.931 . S
C660 C656 1.390 . S
C660 C657 1.392 . S
C660 H670 0.930 . S
C661 C658 1.372 . S
C661 C659 1.390 . S
C661 H671 0.929 . S
C662 O642 1.255 . S
C662 O643 1.257 . S
C663 Eu599 2.787 . S
C663 O638 1.252 . S
C663 O641 1.268 . S
C663 C656 1.506 . S
H664 C647 0.931 . S
H665 C648 0.931 . S
H666 C649 0.929 . S
H667 C650 0.930 . S
H668 C658 0.931 . S
H669 C659 0.931 . S
H670 C660 0.930 . S
H671 C661 0.929 . S
Eu672 N701 2.600 . S
Eu672 N707 2.562 . S
Eu672 O716 2.462 . S
Eu672 O717 2.373 . S
Eu672 O719 2.432 . S
Eu672 O720 2.291 . S
Eu672 O724 2.335 . S
Eu672 O727 2.372 . S
Eu672 C736 2.787 . S
C673 N674 1.365 . S
C673 C676 1.405 . S
C673 C680 1.448 . S
N674 C673 1.365 . S
N674 C677 1.319 . S
N674 Eu683 2.600 . S
C675 C677 1.397 . S
C675 C678 1.367 . S
C675 H695 0.931 . S
C676 C673 1.405 . S
C676 C678 1.403 . S
C676 C682 1.439 . S
C677 N674 1.319 . S
C677 C675 1.397 . S
C677 H688 0.930 . S
C678 C675 1.367 . S
C678 C676 1.403 . S
C678 H699 0.929 . S
C679 C680 1.430 . S
C679 C681 1.387 . S
C679 C685 1.404 . S
C680 C673 1.448 . S
C680 C679 1.430 . S
C680 N684 1.351 . S
C681 C679 1.387 . S
C681 C682 1.374 . S
C681 H696 0.931 . S
C682 C676 1.439 . S
C682 C681 1.374 . S
C682 H697 0.931 . S
Eu683 N674 2.600 . S
Eu683 N684 2.562 . S
Eu683 O718 2.335 . S
Eu683 O721 2.372 . S
Eu683 O722 2.462 . S
Eu683 O723 2.373 . S
Eu683 O725 2.432 . S
Eu683 O726 2.291 . S
Eu683 C747 2.787 . S
N684 C680 1.351 . S
N684 Eu683 2.562 . S
N684 C686 1.325 . S
C685 C679 1.404 . S
C685 C687 1.366 . S
C685 H693 0.930 . S
C686 N684 1.325 . S
C686 C687 1.416 . S
C686 H692 0.929 . S
C687 C685 1.366 . S
C687 C686 1.416 . S
C687 H689 0.930 . S
H688 C677 0.930 . S
H689 C687 0.930 . S
H690 C705 0.930 . S
H691 C712 0.930 . S
H692 C686 0.929 . S
H693 C685 0.930 . S
H694 C708 0.929 . S
H695 C675 0.931 . S
H696 C681 0.931 . S
H697 C682 0.931 . S
H698 C703 0.931 . S
H699 C678 0.929 . S
H700 C711 0.930 . S
N701 Eu672 2.600 . S
N701 C702 1.365 . S
N701 C705 1.319 . S
C702 N701 1.365 . S
C702 C704 1.405 . S
C702 C710 1.448 . S
C703 H698 0.931 . S
C703 C705 1.397 . S
C703 C706 1.367 . S
C704 C702 1.405 . S
C704 C706 1.403 . S
C704 C737 1.439 . S
C705 H690 0.930 . S
C705 N701 1.319 . S
C705 C703 1.397 . S
C706 C703 1.367 . S
C706 C704 1.403 . S
C706 H713 0.929 . S
N707 Eu672 2.562 . S
N707 C708 1.325 . S
N707 C710 1.351 . S
C708 H694 0.929 . S
C708 N707 1.325 . S
C708 C712 1.416 . S
C709 C710 1.430 . S
C709 C711 1.404 . S
C709 C738 1.387 . S
C710 C702 1.448 . S
C710 N707 1.351 . S
C710 C709 1.430 . S
C711 H700 0.930 . S
C711 C709 1.404 . S
C711 C712 1.366 . S
C712 H691 0.930 . S
C712 C708 1.416 . S
C712 C711 1.366 . S
H713 C706 0.929 . S
H714 C737 0.931 . S
H715 C738 0.931 . S
O716 Eu672 2.462 . S
O716 C736 1.252 . S
O717 Eu672 2.373 . S
O717 C728 1.249 . S
O718 Eu683 2.335 . S
O718 C728 1.264 . S
O719 Eu672 2.432 . S
O719 C736 1.268 . S
O720 Eu672 2.291 . S
O720 C735 1.255 . S
O721 Eu683 2.372 . S
O721 C735 1.257 . S
O722 Eu683 2.462 . S
O722 C747 1.252 . S
O723 Eu683 2.373 . S
O723 C739 1.249 . S
O724 Eu672 2.335 . S
O724 C739 1.264 . S
O725 Eu683 2.432 . S
O725 C747 1.268 . S
O726 Eu683 2.291 . S
O726 C746 1.255 . S
O727 Eu672 2.372 . S
O727 C746 1.257 . S
C728 O717 1.249 . S
C728 O718 1.264 . S
C729 C732 1.382 . S
C729 C734 1.390 . S
C729 C736 1.506 . S
C730 C731 1.398 . S
C730 C734 1.392 1_545 S
C731 C730 1.398 . S
C731 C733 1.372 . S
C731 H748 0.931 . S
C732 C729 1.382 . S
C732 C733 1.390 1_565 S
C732 H749 0.931 . S
C733 C731 1.372 . S
C733 C732 1.390 1_545 S
C733 H750 0.929 . S
C734 C729 1.390 . S
C734 C730 1.392 1_565 S
C734 H751 0.930 . S
C735 O720 1.255 . S
C735 O721 1.257 . S
C736 Eu672 2.787 . S
C736 O716 1.252 . S
C736 O719 1.268 . S
C736 C729 1.506 . S
C737 C704 1.439 . S
C737 H714 0.931 . S
C737 C738 1.374 . S
C738 C709 1.387 . S
C738 H715 0.931 . S
C738 C737 1.374 . S
C739 O723 1.249 . S
C739 O724 1.264 . S
C740 C743 1.382 . S
C740 C744 1.390 . S
C740 C747 1.506 . S
C741 C742 1.398 . S
C741 C744 1.392 . S
C742 C741 1.398 . S
C742 C745 1.372 . S
C742 H752 0.931 . S
C743 C740 1.382 . S
C743 C745 1.390 . S
C743 H753 0.931 . S
C744 C740 1.390 . S
C744 C741 1.392 . S
C744 H754 0.930 . S
C745 C742 1.372 . S
C745 C743 1.390 . S
C745 H755 0.929 . S
C746 O726 1.255 . S
C746 O727 1.257 . S
C747 Eu683 2.787 . S
C747 O722 1.252 . S
C747 O725 1.268 . S
C747 C740 1.506 . S
H748 C731 0.931 . S
H749 C732 0.931 . S
H750 C733 0.929 . S
H751 C734 0.930 . S
H752 C742 0.931 . S
H753 C743 0.931 . S
H754 C744 0.930 . S
H755 C745 0.929 . S
Eu756 N785 2.600 . S
Eu756 N791 2.562 . S
Eu756 O800 2.462 . S
Eu756 O801 2.373 . S
Eu756 O803 2.432 . S
Eu756 O804 2.291 . S
Eu756 O808 2.335 . S
Eu756 O811 2.372 . S
Eu756 C820 2.787 . S
C757 N758 1.365 . S
C757 C760 1.405 . S
C757 C764 1.448 . S
N758 C757 1.365 . S
N758 C761 1.319 . S
N758 Eu767 2.600 . S
C759 C761 1.397 . S
C759 C762 1.367 . S
C759 H779 0.931 . S
C760 C757 1.405 . S
C760 C762 1.403 . S
C760 C766 1.439 . S
C761 N758 1.319 . S
C761 C759 1.397 . S
C761 H772 0.930 . S
C762 C759 1.367 . S
C762 C760 1.403 . S
C762 H783 0.929 . S
C763 C764 1.430 . S
C763 C765 1.387 . S
C763 C769 1.404 . S
C764 C757 1.448 . S
C764 C763 1.430 . S
C764 N768 1.351 . S
C765 C763 1.387 . S
C765 C766 1.374 . S
C765 H780 0.931 . S
C766 C760 1.439 . S
C766 C765 1.374 . S
C766 H781 0.931 . S
Eu767 N758 2.600 . S
Eu767 N768 2.562 . S
Eu767 O802 2.335 . S
Eu767 O805 2.372 . S
Eu767 O806 2.462 . S
Eu767 O807 2.373 . S
Eu767 O809 2.432 . S
Eu767 O810 2.291 . S
Eu767 C831 2.787 . S
N768 C764 1.351 . S
N768 Eu767 2.562 . S
N768 C770 1.325 . S
C769 C763 1.404 . S
C769 C771 1.366 . S
C769 H777 0.930 . S
C770 N768 1.325 . S
C770 C771 1.416 . S
C770 H776 0.929 . S
C771 C769 1.366 . S
C771 C770 1.416 . S
C771 H773 0.930 . S
H772 C761 0.930 . S
H773 C771 0.930 . S
H774 C789 0.930 . S
H775 C796 0.930 . S
H776 C770 0.929 . S
H777 C769 0.930 . S
H778 C792 0.929 . S
H779 C759 0.931 . S
H780 C765 0.931 . S
H781 C766 0.931 . S
H782 C787 0.931 . S
H783 C762 0.929 . S
H784 C795 0.930 . S
N785 Eu756 2.600 . S
N785 C786 1.365 . S
N785 C789 1.319 . S
C786 N785 1.365 . S
C786 C788 1.405 . S
C786 C794 1.448 . S
C787 H782 0.931 . S
C787 C789 1.397 . S
C787 C790 1.367 . S
C788 C786 1.405 . S
C788 C790 1.403 . S
C788 C821 1.439 . S
C789 H774 0.930 . S
C789 N785 1.319 . S
C789 C787 1.397 . S
C790 C787 1.367 . S
C790 C788 1.403 . S
C790 H797 0.929 . S
N791 Eu756 2.562 . S
N791 C792 1.325 . S
N791 C794 1.351 . S
C792 H778 0.929 . S
C792 N791 1.325 . S
C792 C796 1.416 . S
C793 C794 1.430 . S
C793 C795 1.404 . S
C793 C822 1.387 . S
C794 C786 1.448 . S
C794 N791 1.351 . S
C794 C793 1.430 . S
C795 H784 0.930 . S
C795 C793 1.404 . S
C795 C796 1.366 . S
C796 H775 0.930 . S
C796 C792 1.416 . S
C796 C795 1.366 . S
H797 C790 0.929 . S
H798 C821 0.931 . S
H799 C822 0.931 . S
O800 Eu756 2.462 . S
O800 C820 1.252 . S
O801 Eu756 2.373 . S
O801 C812 1.249 . S
O802 Eu767 2.335 . S
O802 C812 1.264 . S
O803 Eu756 2.432 . S
O803 C820 1.268 . S
O804 Eu756 2.291 . S
O804 C819 1.255 . S
O805 Eu767 2.372 . S
O805 C819 1.257 . S
O806 Eu767 2.462 . S
O806 C831 1.252 . S
O807 Eu767 2.373 . S
O807 C823 1.249 . S
O808 Eu756 2.335 . S
O808 C823 1.264 . S
O809 Eu767 2.432 . S
O809 C831 1.268 . S
O810 Eu767 2.291 . S
O810 C830 1.255 . S
O811 Eu756 2.372 . S
O811 C830 1.257 . S
C812 O801 1.249 . S
C812 O802 1.264 . S
C813 C816 1.382 . S
C813 C818 1.390 . S
C813 C820 1.506 . S
C814 C815 1.398 . S
C814 C818 1.392 . S
C815 C814 1.398 . S
C815 C817 1.372 . S
C815 H832 0.931 . S
C816 C813 1.382 . S
C816 C817 1.390 . S
C816 H833 0.931 . S
C817 C815 1.372 . S
C817 C816 1.390 . S
C817 H834 0.929 . S
C818 C813 1.390 . S
C818 C814 1.392 . S
C818 H835 0.930 . S
C819 O804 1.255 . S
C819 O805 1.257 . S
C820 Eu756 2.787 . S
C820 O800 1.252 . S
C820 O803 1.268 . S
C820 C813 1.506 . S
C821 C788 1.439 . S
C821 H798 0.931 . S
C821 C822 1.374 . S
C822 C793 1.387 . S
C822 H799 0.931 . S
C822 C821 1.374 . S
C823 O807 1.249 . S
C823 O808 1.264 . S
C824 C827 1.382 . S
C824 C828 1.390 . S
C824 C831 1.506 . S
C825 C826 1.398 . S
C825 C828 1.392 . S
C826 C825 1.398 . S
C826 C829 1.372 . S
C826 H836 0.931 . S
C827 C824 1.382 . S
C827 C829 1.390 . S
C827 H837 0.931 . S
C828 C824 1.390 . S
C828 C825 1.392 . S
C828 H838 0.930 . S
C829 C826 1.372 . S
C829 C827 1.390 . S
C829 H839 0.929 . S
C830 O810 1.255 . S
C830 O811 1.257 . S
C831 Eu767 2.787 . S
C831 O806 1.252 . S
C831 O809 1.268 . S
C831 C824 1.506 . S
H832 C815 0.931 . S
H833 C816 0.931 . S
H834 C817 0.929 . S
H835 C818 0.930 . S
H836 C826 0.931 . S
H837 C827 0.931 . S
H838 C828 0.930 . S
H839 C829 0.929 . S
Eu840 N869 2.600 . S
Eu840 N875 2.562 . S
Eu840 O884 2.462 . S
Eu840 O885 2.373 . S
Eu840 O887 2.432 . S
Eu840 O888 2.291 . S
Eu840 O892 2.335 . S
Eu840 O895 2.372 . S
Eu840 C904 2.787 . S
C841 N842 1.365 . S
C841 C844 1.405 . S
C841 C848 1.448 . S
N842 C841 1.365 . S
N842 C845 1.319 . S
N842 Eu851 2.600 . S
C843 C845 1.397 . S
C843 C846 1.367 . S
C843 H863 0.931 . S
C844 C841 1.405 . S
C844 C846 1.403 . S
C844 C850 1.439 . S
C845 N842 1.319 . S
C845 C843 1.397 . S
C845 H856 0.930 . S
C846 C843 1.367 . S
C846 C844 1.403 . S
C846 H867 0.929 . S
C847 C848 1.430 . S
C847 C849 1.387 . S
C847 C853 1.404 . S
C848 C841 1.448 . S
C848 C847 1.430 . S
C848 N852 1.351 . S
C849 C847 1.387 . S
C849 C850 1.374 . S
C849 H864 0.931 . S
C850 C844 1.439 . S
C850 C849 1.374 . S
C850 H865 0.931 . S
Eu851 N842 2.600 . S
Eu851 N852 2.562 . S
Eu851 O886 2.335 . S
Eu851 O889 2.372 . S
Eu851 O890 2.462 . S
Eu851 O891 2.373 . S
Eu851 O893 2.432 . S
Eu851 O894 2.291 . S
Eu851 C915 2.787 . S
N852 C848 1.351 . S
N852 Eu851 2.562 . S
N852 C854 1.325 . S
C853 C847 1.404 . S
C853 C855 1.366 . S
C853 H861 0.930 . S
C854 N852 1.325 . S
C854 C855 1.416 . S
C854 H860 0.929 . S
C855 C853 1.366 . S
C855 C854 1.416 . S
C855 H857 0.930 . S
H856 C845 0.930 . S
H857 C855 0.930 . S
H858 C873 0.930 . S
H859 C880 0.930 . S
H860 C854 0.929 . S
H861 C853 0.930 . S
H862 C876 0.929 . S
H863 C843 0.931 . S
H864 C849 0.931 . S
H865 C850 0.931 . S
H866 C871 0.931 . S
H867 C846 0.929 . S
H868 C879 0.930 . S
N869 Eu840 2.600 . S
N869 C870 1.365 . S
N869 C873 1.319 . S
C870 N869 1.365 . S
C870 C872 1.405 . S
C870 C878 1.448 . S
C871 H866 0.931 . S
C871 C873 1.397 . S
C871 C874 1.367 . S
C872 C870 1.405 . S
C872 C874 1.403 . S
C872 C905 1.439 . S
C873 H858 0.930 . S
C873 N869 1.319 . S
C873 C871 1.397 . S
C874 C871 1.367 . S
C874 C872 1.403 . S
C874 H881 0.929 . S
N875 Eu840 2.562 . S
N875 C876 1.325 . S
N875 C878 1.351 . S
C876 H862 0.929 . S
C876 N875 1.325 . S
C876 C880 1.416 . S
C877 C878 1.430 . S
C877 C879 1.404 . S
C877 C906 1.387 . S
C878 C870 1.448 . S
C878 N875 1.351 . S
C878 C877 1.430 . S
C879 H868 0.930 . S
C879 C877 1.404 . S
C879 C880 1.366 . S
C880 H859 0.930 . S
C880 C876 1.416 . S
C880 C879 1.366 . S
H881 C874 0.929 . S
H882 C905 0.931 . S
H883 C906 0.931 . S
O884 Eu840 2.462 . S
O884 C904 1.252 . S
O885 Eu840 2.373 . S
O885 C896 1.249 . S
O886 Eu851 2.335 . S
O886 C896 1.264 . S
O887 Eu840 2.432 . S
O887 C904 1.268 . S
O888 Eu840 2.291 . S
O888 C903 1.255 . S
O889 Eu851 2.372 . S
O889 C903 1.257 . S
O890 Eu851 2.462 . S
O890 C915 1.252 . S
O891 Eu851 2.373 . S
O891 C907 1.249 . S
O892 Eu840 2.335 . S
O892 C907 1.264 . S
O893 Eu851 2.432 . S
O893 C915 1.268 . S
O894 Eu851 2.291 . S
O894 C914 1.255 . S
O895 Eu840 2.372 . S
O895 C914 1.257 . S
C896 O885 1.249 . S
C896 O886 1.264 . S
C897 C900 1.382 . S
C897 C902 1.390 . S
C897 C904 1.506 . S
C898 C899 1.398 . S
C898 C902 1.392 1_655 S
C899 C898 1.398 . S
C899 C901 1.372 . S
C899 H916 0.931 . S
C900 C897 1.382 . S
C900 C901 1.390 1_455 S
C900 H917 0.931 . S
C901 C899 1.372 . S
C901 C900 1.390 1_655 S
C901 H918 0.929 . S
C902 C897 1.390 . S
C902 C898 1.392 1_455 S
C902 H919 0.930 . S
C903 O888 1.255 . S
C903 O889 1.257 . S
C904 Eu840 2.787 . S
C904 O884 1.252 . S
C904 O887 1.268 . S
C904 C897 1.506 . S
C905 C872 1.439 . S
C905 H882 0.931 . S
C905 C906 1.374 . S
C906 C877 1.387 . S
C906 H883 0.931 . S
C906 C905 1.374 . S
C907 O891 1.249 . S
C907 O892 1.264 . S
C908 C911 1.382 . S
C908 C912 1.390 . S
C908 C915 1.506 . S
C909 C910 1.398 . S
C909 C912 1.392 . S
C910 C909 1.398 . S
C910 C913 1.372 . S
C910 H920 0.931 . S
C911 C908 1.382 . S
C911 C913 1.390 . S
C911 H921 0.931 . S
C912 C908 1.390 . S
C912 C909 1.392 . S
C912 H922 0.930 . S
C913 C910 1.372 . S
C913 C911 1.390 . S
C913 H923 0.929 . S
C914 O894 1.255 . S
C914 O895 1.257 . S
C915 Eu851 2.787 . S
C915 O890 1.252 . S
C915 O893 1.268 . S
C915 C908 1.506 . S
H916 C899 0.931 . S
H917 C900 0.931 . S
H918 C901 0.929 . S
H919 C902 0.930 . S
H920 C910 0.931 . S
H921 C911 0.931 . S
H922 C912 0.930 . S
H923 C913 0.929 . S
Eu924 N953 2.600 . S
Eu924 N959 2.562 . S
Eu924 O968 2.462 . S
Eu924 O969 2.373 . S
Eu924 O971 2.432 . S
Eu924 O972 2.291 . S
Eu924 O976 2.335 . S
Eu924 O979 2.372 . S
Eu924 C988 2.787 . S
C925 N926 1.365 . S
C925 C928 1.405 . S
C925 C932 1.448 . S
N926 C925 1.365 . S
N926 C929 1.319 . S
N926 Eu935 2.600 . S
C927 C929 1.397 . S
C927 C930 1.367 . S
C927 H947 0.931 . S
C928 C925 1.405 . S
C928 C930 1.403 . S
C928 C934 1.439 . S
C929 N926 1.319 . S
C929 C927 1.397 . S
C929 H940 0.930 . S
C930 C927 1.367 . S
C930 C928 1.403 . S
C930 H951 0.929 . S
C931 C932 1.430 . S
C931 C933 1.387 . S
C931 C937 1.404 . S
C932 C925 1.448 . S
C932 C931 1.430 . S
C932 N936 1.351 . S
C933 C931 1.387 . S
C933 C934 1.374 . S
C933 H948 0.931 . S
C934 C928 1.439 . S
C934 C933 1.374 . S
C934 H949 0.931 . S
Eu935 N926 2.600 . S
Eu935 N936 2.562 . S
Eu935 O970 2.335 . S
Eu935 O973 2.372 . S
Eu935 O974 2.462 . S
Eu935 O975 2.373 . S
Eu935 O977 2.432 . S
Eu935 O978 2.291 . S
Eu935 C999 2.787 . S
N936 C932 1.351 . S
N936 Eu935 2.562 . S
N936 C938 1.325 . S
C937 C931 1.404 . S
C937 C939 1.366 . S
C937 H945 0.930 . S
C938 N936 1.325 . S
C938 C939 1.416 . S
C938 H944 0.929 . S
C939 C937 1.366 . S
C939 C938 1.416 . S
C939 H941 0.930 . S
H940 C929 0.930 . S
H941 C939 0.930 . S
H942 C957 0.930 . S
H943 C964 0.930 . S
H944 C938 0.929 . S
H945 C937 0.930 . S
H946 C960 0.929 . S
H947 C927 0.931 . S
H948 C933 0.931 . S
H949 C934 0.931 . S
H950 C955 0.931 . S
H951 C930 0.929 . S
H952 C963 0.930 . S
N953 Eu924 2.600 . S
N953 C954 1.365 . S
N953 C957 1.319 . S
C954 N953 1.365 . S
C954 C956 1.405 . S
C954 C962 1.448 . S
C955 H950 0.931 . S
C955 C957 1.397 . S
C955 C958 1.367 . S
C956 C954 1.405 . S
C956 C958 1.403 . S
C956 C989 1.439 . S
C957 H942 0.930 . S
C957 N953 1.319 . S
C957 C955 1.397 . S
C958 C955 1.367 . S
C958 C956 1.403 . S
C958 H965 0.929 . S
N959 Eu924 2.562 . S
N959 C960 1.325 . S
N959 C962 1.351 . S
C960 H946 0.929 . S
C960 N959 1.325 . S
C960 C964 1.416 . S
C961 C962 1.430 . S
C961 C963 1.404 . S
C961 C990 1.387 . S
C962 C954 1.448 . S
C962 N959 1.351 . S
C962 C961 1.430 . S
C963 H952 0.930 . S
C963 C961 1.404 . S
C963 C964 1.366 . S
C964 H943 0.930 . S
C964 C960 1.416 . S
C964 C963 1.366 . S
H965 C958 0.929 . S
H966 C989 0.931 . S
H967 C990 0.931 . S
O968 Eu924 2.462 . S
O968 C988 1.252 . S
O969 Eu924 2.373 . S
O969 C980 1.249 . S
O970 Eu935 2.335 . S
O970 C980 1.264 . S
O971 Eu924 2.432 . S
O971 C988 1.268 . S
O972 Eu924 2.291 . S
O972 C987 1.255 . S
O973 Eu935 2.372 . S
O973 C987 1.257 . S
O974 Eu935 2.462 . S
O974 C999 1.252 . S
O975 Eu935 2.373 . S
O975 C991 1.249 . S
O976 Eu924 2.335 . S
O976 C991 1.264 . S
O977 Eu935 2.432 . S
O977 C999 1.268 . S
O978 Eu935 2.291 . S
O978 C998 1.255 . S
O979 Eu924 2.372 . S
O979 C998 1.257 . S
C980 O969 1.249 . S
C980 O970 1.264 . S
C981 C984 1.382 . S
C981 C986 1.390 . S
C981 C988 1.506 . S
C982 C983 1.398 . S
C982 C986 1.392 1_565 S
C983 C982 1.398 . S
C983 C985 1.372 . S
C983 H1000 0.931 . S
C984 C981 1.382 . S
C984 C985 1.390 1_545 S
C984 H1001 0.931 . S
C985 C983 1.372 . S
C985 C984 1.390 1_565 S
C985 H1002 0.929 . S
C986 C981 1.390 . S
C986 C982 1.392 1_545 S
C986 H1003 0.930 . S
C987 O972 1.255 . S
C987 O973 1.257 . S
C988 Eu924 2.787 . S
C988 O968 1.252 . S
C988 O971 1.268 . S
C988 C981 1.506 . S
C989 C956 1.439 . S
C989 H966 0.931 . S
C989 C990 1.374 . S
C990 C961 1.387 . S
C990 H967 0.931 . S
C990 C989 1.374 . S
C991 O975 1.249 . S
C991 O976 1.264 . S
C992 C995 1.382 . S
C992 C996 1.390 . S
C992 C999 1.506 . S
C993 C994 1.398 . S
C993 C996 1.392 . S
C994 C993 1.398 . S
C994 C997 1.372 . S
C994 H1004 0.931 . S
C995 C992 1.382 . S
C995 C997 1.390 . S
C995 H1005 0.931 . S
C996 C992 1.390 . S
C996 C993 1.392 . S
C996 H1006 0.930 . S
C997 C994 1.372 . S
C997 C995 1.390 . S
C997 H1007 0.929 . S
C998 O978 1.255 . S
C998 O979 1.257 . S
C999 Eu935 2.787 . S
C999 O974 1.252 . S
C999 O977 1.268 . S
C999 C992 1.506 . S
H1000 C983 0.931 . S
H1001 C984 0.931 . S
H1002 C985 0.929 . S
H1003 C986 0.930 . S
H1004 C994 0.931 . S
H1005 C995 0.931 . S
H1006 C996 0.930 . S
H1007 C997 0.929 . S
H1008 C1026 0.951 . S
H1009 C1028 0.951 . S
H1010 C1030 0.950 . S
H1011 C1031 0.950 . S
H1012 C1033 0.950 1_565 S
H1013 C1036 0.950 . S
H1014 C1037 0.950 . S
H1015 C1039 0.950 . S
H1016 C1040 0.950 . S
H1017 C1041 0.951 . S
H1018 C1043 0.951 . S
H1019 C1045 0.950 . S
H1020 C1046 0.950 . S
H1021 C1048 0.950 . S
H1022 C1051 0.950 . S
H1023 C1052 0.950 . S
H1024 C1054 0.950 . S
H1025 C1055 0.950 . S
C1026 H1008 0.951 . S
C1026 C1027 1.366 . S
C1026 C1028 1.388 . S
C1027 C1026 1.366 . S
C1027 C1031 1.385 . S
C1028 H1009 0.951 . S
C1028 C1026 1.388 . S
C1028 C1029 1.366 . S
C1029 C1028 1.366 . S
C1029 C1030 1.414 . S
C1029 C1032 1.499 . S
C1030 H1010 0.950 . S
C1030 C1029 1.414 . S
C1030 C1031 1.374 . S
C1031 H1011 0.950 . S
C1031 C1027 1.385 . S
C1031 C1030 1.374 . S
C1032 C1029 1.499 . S
C1032 C1033 1.373 1_565 S
C1032 C1034 1.389 1_565 S
C1033 H1012 0.950 1_545 S
C1033 C1032 1.373 1_545 S
C1033 C1049 1.377 . S
C1034 C1032 1.389 1_545 S
C1034 C1035 1.524 1_545 S
C1034 C1048 1.377 . S
C1035 C1034 1.524 1_565 S
C1035 C1036 1.397 . S
C1035 C1040 1.363 1_565 S
C1036 H1013 0.950 . S
C1036 C1035 1.397 . S
C1036 C1037 1.334 . S
C1037 H1014 0.950 . S
C1037 C1036 1.334 . S
C1037 C1038 1.287 . S
C1038 C1037 1.287 . S
C1038 C1039 1.524 1_565 S
C1038 H1057 0.913 . S
C1039 H1015 0.950 . S
C1039 C1038 1.524 1_545 S
C1039 C1040 1.415 . S
C1040 H1016 0.950 . S
C1040 C1035 1.363 1_545 S
C1040 C1039 1.415 . S
C1041 H1017 0.951 . S
C1041 C1042 1.366 . S
C1041 C1043 1.388 . S
C1042 C1041 1.366 . S
C1042 C1046 1.385 . S
C1043 H1018 0.951 . S
C1043 C1041 1.388 . S
C1043 C1044 1.366 . S
C1044 C1043 1.366 . S
C1044 C1045 1.414 . S
C1044 C1047 1.499 . S
C1045 H1019 0.950 . S
C1045 C1044 1.414 . S
C1045 C1046 1.374 . S
C1046 H1020 0.950 . S
C1046 C1042 1.385 . S
C1046 C1045 1.374 . S
C1047 C1044 1.499 . S
C1047 C1048 1.373 . S
C1047 C1049 1.389 . S
C1048 H1021 0.950 . S
C1048 C1034 1.377 . S
C1048 C1047 1.373 . S
C1049 C1033 1.377 . S
C1049 C1047 1.389 . S
C1049 C1050 1.524 . S
C1050 C1049 1.524 . S
C1050 C1051 1.397 . S
C1050 C1055 1.363 . S
C1051 H1022 0.950 . S
C1051 C1050 1.397 . S
C1051 C1052 1.334 . S
C1052 H1023 0.950 . S
C1052 C1051 1.334 . S
C1052 C1053 1.287 . S
C1053 C1052 1.287 . S
C1053 C1054 1.524 . S
C1053 H1056 0.999 . S
C1054 H1024 0.950 . S
C1054 C1053 1.524 . S
C1054 C1055 1.415 . S
C1055 H1025 0.950 . S
C1055 C1050 1.363 . S
C1055 C1054 1.415 . S
H1056 C1053 0.999 . S
H1057 C1038 0.913 . S
H1058 C1076 0.951 . S
H1059 C1078 0.951 . S
H1060 C1080 0.950 . S
H1061 C1081 0.950 . S
H1062 C1083 0.950 . S
H1063 C1086 0.950 . S
H1064 C1087 0.950 . S
H1065 C1089 0.950 . S
H1066 C1090 0.950 . S
H1067 C1091 0.951 . S
H1068 C1093 0.951 . S
H1069 C1095 0.950 . S
H1070 C1096 0.950 . S
H1071 C1098 0.950 . S
H1072 C1101 0.950 . S
H1073 C1102 0.950 . S
H1074 C1104 0.950 . S
H1075 C1105 0.950 . S
C1076 H1058 0.951 . S
C1076 C1077 1.366 . S
C1076 C1078 1.388 . S
C1077 C1076 1.366 . S
C1077 C1081 1.385 . S
C1078 H1059 0.951 . S
C1078 C1076 1.388 . S
C1078 C1079 1.366 . S
C1079 C1078 1.366 . S
C1079 C1080 1.414 . S
C1079 C1082 1.499 . S
C1080 H1060 0.950 . S
C1080 C1079 1.414 . S
C1080 C1081 1.374 . S
C1081 H1061 0.950 . S
C1081 C1077 1.385 . S
C1081 C1080 1.374 . S
C1082 C1079 1.499 . S
C1082 C1083 1.373 . S
C1082 C1084 1.389 . S
C1083 H1062 0.950 . S
C1083 C1082 1.373 . S
C1083 C1099 1.377 . S
C1084 C1082 1.389 . S
C1084 C1085 1.524 . S
C1084 C1098 1.377 . S
C1085 C1084 1.524 . S
C1085 C1086 1.397 . S
C1085 C1090 1.363 . S
C1086 H1063 0.950 . S
C1086 C1085 1.397 . S
C1086 C1087 1.334 . S
C1087 H1064 0.950 . S
C1087 C1086 1.334 . S
C1087 C1088 1.287 . S
C1088 C1087 1.287 . S
C1088 C1089 1.524 . S
C1088 H1107 0.913 . S
C1089 H1065 0.950 . S
C1089 C1088 1.524 . S
C1089 C1090 1.415 . S
C1090 H1066 0.950 . S
C1090 C1085 1.363 . S
C1090 C1089 1.415 . S
C1091 H1067 0.951 . S
C1091 C1092 1.366 . S
C1091 C1093 1.388 . S
C1092 C1091 1.366 . S
C1092 C1096 1.385 . S
C1093 H1068 0.951 . S
C1093 C1091 1.388 . S
C1093 C1094 1.366 . S
C1094 C1093 1.366 . S
C1094 C1095 1.414 . S
C1094 C1097 1.499 . S
C1095 H1069 0.950 . S
C1095 C1094 1.414 . S
C1095 C1096 1.374 . S
C1096 H1070 0.950 . S
C1096 C1092 1.385 . S
C1096 C1095 1.374 . S
C1097 C1094 1.499 . S
C1097 C1098 1.373 . S
C1097 C1099 1.389 . S
C1098 H1071 0.950 . S
C1098 C1084 1.377 . S
C1098 C1097 1.373 . S
C1099 C1083 1.377 . S
C1099 C1097 1.389 . S
C1099 C1100 1.524 . S
C1100 C1099 1.524 . S
C1100 C1101 1.397 . S
C1100 C1105 1.363 . S
C1101 H1072 0.950 . S
C1101 C1100 1.397 . S
C1101 C1102 1.334 . S
C1102 H1073 0.950 . S
C1102 C1101 1.334 . S
C1102 C1103 1.287 . S
C1103 C1102 1.287 . S
C1103 C1104 1.524 . S
C1103 H1106 0.999 . S
C1104 H1074 0.950 . S
C1104 C1103 1.524 . S
C1104 C1105 1.415 . S
C1105 H1075 0.950 . S
C1105 C1100 1.363 . S
C1105 C1104 1.415 . S
H1106 C1103 0.999 . S
H1107 C1088 0.913 . S
H1108 C1126 0.951 . S
H1109 C1128 0.951 . S
H1110 C1130 0.950 . S
H1111 C1131 0.950 . S
H1112 C1133 0.950 . S
H1113 C1136 0.950 . S
H1114 C1137 0.950 . S
H1115 C1139 0.950 . S
H1116 C1140 0.950 . S
H1117 C1141 0.951 . S
H1118 C1143 0.951 . S
H1119 C1145 0.950 . S
H1120 C1146 0.950 . S
H1121 C1148 0.977 . S
H1122 C1151 0.950 . S
H1123 C1152 0.950 . S
H1124 C1154 0.950 . S
H1125 C1155 0.950 . S
C1126 H1108 0.951 . S
C1126 C1127 1.366 . S
C1126 C1128 1.388 . S
C1127 C1126 1.366 . S
C1127 C1131 1.385 . S
C1128 H1109 0.951 . S
C1128 C1126 1.388 . S
C1128 C1129 1.366 . S
C1129 C1128 1.366 . S
C1129 C1130 1.414 . S
C1129 C1132 1.499 . S
C1130 H1110 0.950 . S
C1130 C1129 1.414 . S
C1130 C1131 1.374 . S
C1131 H1111 0.950 . S
C1131 C1127 1.385 . S
C1131 C1130 1.374 . S
C1132 C1129 1.499 . S
C1132 C1133 1.373 . S
C1132 C1134 1.389 . S
C1133 H1112 0.950 . S
C1133 C1132 1.373 . S
C1133 C1149 1.377 . S
C1134 C1132 1.389 . S
C1134 C1135 1.524 . S
C1134 C1148 1.355 1_655 S
C1135 C1134 1.524 . S
C1135 C1136 1.397 . S
C1135 C1140 1.363 . S
C1136 H1113 0.950 . S
C1136 C1135 1.397 . S
C1136 C1137 1.334 . S
C1137 H1114 0.950 . S
C1137 C1136 1.334 . S
C1137 C1138 1.287 . S
C1138 C1137 1.287 . S
C1138 C1139 1.524 . S
C1138 H1157 0.913 . S
C1139 H1115 0.950 . S
C1139 C1138 1.524 . S
C1139 C1140 1.415 . S
C1140 H1116 0.950 . S
C1140 C1135 1.363 . S
C1140 C1139 1.415 . S
C1141 H1117 0.951 . S
C1141 C1142 1.366 . S
C1141 C1143 1.388 . S
C1142 C1141 1.366 . S
C1142 C1146 1.385 . S
C1143 H1118 0.951 . S
C1143 C1141 1.388 . S
C1143 C1144 1.366 . S
C1144 C1143 1.366 . S
C1144 C1145 1.414 . S
C1144 C1147 1.499 . S
C1145 H1119 0.950 . S
C1145 C1144 1.414 . S
C1145 C1146 1.374 . S
C1146 H1120 0.950 . S
C1146 C1142 1.385 . S
C1146 C1145 1.374 . S
C1147 C1144 1.499 . S
C1147 C1148 1.369 . S
C1147 C1149 1.389 1_455 S
C1148 H1121 0.977 . S
C1148 C1134 1.355 1_455 S
C1148 C1147 1.369 . S
C1149 C1133 1.377 . S
C1149 C1147 1.389 1_655 S
C1149 C1150 1.524 . S
C1150 C1149 1.524 . S
C1150 C1151 1.397 1_655 S
C1150 C1155 1.363 . S
C1151 H1122 0.950 . S
C1151 C1150 1.397 1_455 S
C1151 C1152 1.334 . S
C1152 H1123 0.950 . S
C1152 C1151 1.334 . S
C1152 C1153 1.287 . S
C1153 C1152 1.287 . S
C1153 C1154 1.524 1_455 S
C1153 H1156 0.999 . S
C1154 H1124 0.950 . S
C1154 C1153 1.524 1_655 S
C1154 C1155 1.415 . S
C1155 H1125 0.950 . S
C1155 C1150 1.363 . S
C1155 C1154 1.415 . S
H1156 C1153 0.999 . S
H1157 C1138 0.913 . S
H1158 C1176 0.951 . S
H1159 C1178 0.951 . S
H1160 C1180 0.950 . S
H1161 C1181 0.950 . S
H1162 C1183 0.950 . S
H1163 C1186 0.950 . S
H1164 C1187 0.950 . S
H1165 C1189 0.950 . S
H1166 C1190 0.950 . S
H1167 C1191 0.951 . S
H1168 C1193 0.951 . S
H1169 C1195 0.950 . S
H1170 C1196 0.950 . S
H1171 C1198 0.950 . S
H1172 C1201 0.950 . S
H1173 C1202 0.950 . S
H1174 C1204 0.950 . S
H1175 C1205 0.950 . S
C1176 H1158 0.951 . S
C1176 C1177 1.366 . S
C1176 C1178 1.388 . S
C1177 C1176 1.366 . S
C1177 C1181 1.385 . S
C1178 H1159 0.951 . S
C1178 C1176 1.388 . S
C1178 C1179 1.366 . S
C1179 C1178 1.366 . S
C1179 C1180 1.414 . S
C1179 C1182 1.499 . S
C1180 H1160 0.950 . S
C1180 C1179 1.414 . S
C1180 C1181 1.374 . S
C1181 H1161 0.950 . S
C1181 C1177 1.385 . S
C1181 C1180 1.374 . S
C1182 C1179 1.499 . S
C1182 C1183 1.373 . S
C1182 C1184 1.389 . S
C1183 H1162 0.950 . S
C1183 C1182 1.373 . S
C1183 C1199 1.377 . S
C1184 C1182 1.389 . S
C1184 C1185 1.524 . S
C1184 C1198 1.377 . S
C1185 C1184 1.524 . S
C1185 C1186 1.397 . S
C1185 C1190 1.363 . S
C1186 H1163 0.950 . S
C1186 C1185 1.397 . S
C1186 C1187 1.334 . S
C1187 H1164 0.950 . S
C1187 C1186 1.334 . S
C1187 C1188 1.287 . S
C1188 C1187 1.287 . S
C1188 C1189 1.524 . S
C1188 H1207 0.913 . S
C1189 H1165 0.950 . S
C1189 C1188 1.524 . S
C1189 C1190 1.415 . S
C1190 H1166 0.950 . S
C1190 C1185 1.363 . S
C1190 C1189 1.415 . S
C1191 H1167 0.951 . S
C1191 C1192 1.366 . S
C1191 C1193 1.388 . S
C1192 C1191 1.366 . S
C1192 C1196 1.385 . S
C1193 H1168 0.951 . S
C1193 C1191 1.388 . S
C1193 C1194 1.366 . S
C1194 C1193 1.366 . S
C1194 C1195 1.414 . S
C1194 C1197 1.499 . S
C1195 H1169 0.950 . S
C1195 C1194 1.414 . S
C1195 C1196 1.374 . S
C1196 H1170 0.950 . S
C1196 C1192 1.385 . S
C1196 C1195 1.374 . S
C1197 C1194 1.499 . S
C1197 C1198 1.373 1_545 S
C1197 C1199 1.389 1_545 S
C1198 H1171 0.950 . S
C1198 C1184 1.377 . S
C1198 C1197 1.373 1_565 S
C1199 C1183 1.377 . S
C1199 C1197 1.389 1_565 S
C1199 C1200 1.524 1_565 S
C1200 C1199 1.524 1_545 S
C1200 C1201 1.397 . S
C1200 C1205 1.363 . S
C1201 H1172 0.950 . S
C1201 C1200 1.397 . S
C1201 C1202 1.334 . S
C1202 H1173 0.950 . S
C1202 C1201 1.334 . S
C1202 C1203 1.287 . S
C1203 C1202 1.287 . S
C1203 C1204 1.524 . S
C1203 H1206 0.999 . S
C1204 H1174 0.950 . S
C1204 C1203 1.524 . S
C1204 C1205 1.415 . S
C1205 H1175 0.950 . S
C1205 C1200 1.363 . S
C1205 C1204 1.415 . S
H1206 C1203 0.999 . S
H1207 C1188 0.913 . S
H1208 C1226 0.951 . S
H1209 C1228 0.951 . S
H1210 C1230 0.950 . S
H1211 C1231 0.950 . S
H1212 C1233 0.950 . S
H1213 C1236 0.950 . S
H1214 C1237 0.950 . S
H1215 C1239 0.950 . S
H1216 C1240 0.950 . S
H1217 C1241 0.951 . S
H1218 C1243 0.951 . S
H1219 C1245 0.950 . S
H1220 C1246 0.950 . S
H1221 C1248 0.950 . S
H1222 C1251 0.950 . S
H1223 C1252 0.950 . S
H1224 C1254 0.950 . S
H1225 C1255 0.950 . S
C1226 H1208 0.951 . S
C1226 C1227 1.366 . S
C1226 C1228 1.388 . S
C1227 C1226 1.366 . S
C1227 C1231 1.385 . S
C1228 H1209 0.951 . S
C1228 C1226 1.388 . S
C1228 C1229 1.366 . S
C1229 C1228 1.366 . S
C1229 C1230 1.414 . S
C1229 C1232 1.499 . S
C1230 H1210 0.950 . S
C1230 C1229 1.414 . S
C1230 C1231 1.374 . S
C1231 H1211 0.950 . S
C1231 C1227 1.385 . S
C1231 C1230 1.374 . S
C1232 C1229 1.499 . S
C1232 C1233 1.373 . S
C1232 C1234 1.389 . S
C1233 H1212 0.950 . S
C1233 C1232 1.373 . S
C1233 C1249 1.377 . S
C1234 C1232 1.389 . S
C1234 C1235 1.524 . S
C1234 C1248 1.377 . S
C1235 C1234 1.524 . S
C1235 C1236 1.397 . S
C1235 C1240 1.363 . S
C1236 H1213 0.950 . S
C1236 C1235 1.397 . S
C1236 C1237 1.334 . S
C1237 H1214 0.950 . S
C1237 C1236 1.334 . S
C1237 C1238 1.287 . S
C1238 C1237 1.287 . S
C1238 C1239 1.524 . S
C1238 H1257 0.913 . S
C1239 H1215 0.950 . S
C1239 C1238 1.524 . S
C1239 C1240 1.415 . S
C1240 H1216 0.950 . S
C1240 C1235 1.363 . S
C1240 C1239 1.415 . S
C1241 H1217 0.951 . S
C1241 C1242 1.366 . S
C1241 C1243 1.388 . S
C1242 C1241 1.366 . S
C1242 C1246 1.385 . S
C1243 H1218 0.951 . S
C1243 C1241 1.388 . S
C1243 C1244 1.366 . S
C1244 C1243 1.366 . S
C1244 C1245 1.414 . S
C1244 C1247 1.499 . S
C1245 H1219 0.950 . S
C1245 C1244 1.414 . S
C1245 C1246 1.374 . S
C1246 H1220 0.950 . S
C1246 C1242 1.385 . S
C1246 C1245 1.374 . S
C1247 C1244 1.499 . S
C1247 C1248 1.373 . S
C1247 C1249 1.389 . S
C1248 H1221 0.950 . S
C1248 C1234 1.377 . S
C1248 C1247 1.373 . S
C1249 C1233 1.377 . S
C1249 C1247 1.389 . S
C1249 C1250 1.524 . S
C1250 C1249 1.524 . S
C1250 C1251 1.397 . S
C1250 C1255 1.363 . S
C1251 H1222 0.950 . S
C1251 C1250 1.397 . S
C1251 C1252 1.334 . S
C1252 H1223 0.950 . S
C1252 C1251 1.334 . S
C1252 C1253 1.287 . S
C1253 C1252 1.287 . S
C1253 C1254 1.524 . S
C1253 H1256 0.999 . S
C1254 H1224 0.950 . S
C1254 C1253 1.524 . S
C1254 C1255 1.415 . S
C1255 H1225 0.950 . S
C1255 C1250 1.363 . S
C1255 C1254 1.415 . S
H1256 C1253 0.999 . S
H1257 C1238 0.913 . S
H1258 C1276 0.951 . S
H1259 C1278 0.951 . S
H1260 C1280 0.950 . S
H1261 C1281 0.950 . S
H1262 C1283 0.966 . S
H1263 C1286 0.957 . S
H1264 C1287 0.950 . S
H1265 C1289 0.950 . S
H1266 C1290 0.950 . S
H1267 C1291 0.951 . S
H1268 C1293 0.951 . S
H1269 C1295 0.950 . S
H1270 C1296 0.950 . S
H1271 C1298 0.950 . S
H1272 C1301 0.950 . S
H1273 C1302 0.950 . S
H1274 C1304 0.950 . S
H1275 C1305 0.950 . S
C1276 H1258 0.951 . S
C1276 C1277 1.366 . S
C1276 C1278 1.388 . S
C1277 C1276 1.366 . S
C1277 C1281 1.385 . S
C1278 H1259 0.951 . S
C1278 C1276 1.388 . S
C1278 C1279 1.366 . S
C1279 C1278 1.366 . S
C1279 C1280 1.414 . S
C1279 C1282 1.499 . S
C1280 H1260 0.950 . S
C1280 C1279 1.414 . S
C1280 C1281 1.374 . S
C1281 H1261 0.950 . S
C1281 C1277 1.385 . S
C1281 C1280 1.374 . S
C1282 C1279 1.499 . S
C1282 C1283 1.370 . S
C1282 C1284 1.389 1_655 S
C1283 H1262 0.966 . S
C1283 C1282 1.370 . S
C1283 C1299 1.365 1_655 S
C1284 C1282 1.389 1_455 S
C1284 C1285 1.524 . S
C1284 C1298 1.377 . S
C1285 C1284 1.524 . S
C1285 C1286 1.403 1_455 S
C1285 C1290 1.363 . S
C1286 H1263 0.957 . S
C1286 C1285 1.403 1_655 S
C1286 C1287 1.322 . S
C1287 H1264 0.950 . S
C1287 C1286 1.322 . S
C1287 C1288 1.287 1_655 S
C1288 C1287 1.287 1_455 S
C1288 C1289 1.524 . S
C1288 H1307 0.913 1_455 S
C1289 H1265 0.950 . S
C1289 C1288 1.524 . S
C1289 C1290 1.415 . S
C1290 H1266 0.950 . S
C1290 C1285 1.363 . S
C1290 C1289 1.415 . S
C1291 H1267 0.951 . S
C1291 C1292 1.366 . S
C1291 C1293 1.388 . S
C1292 C1291 1.366 . S
C1292 C1296 1.385 . S
C1293 H1268 0.951 . S
C1293 C1291 1.388 . S
C1293 C1294 1.366 . S
C1294 C1293 1.366 . S
C1294 C1295 1.414 . S
C1294 C1297 1.499 . S
C1295 H1269 0.950 . S
C1295 C1294 1.414 . S
C1295 C1296 1.374 . S
C1296 H1270 0.950 . S
C1296 C1292 1.385 . S
C1296 C1295 1.374 . S
C1297 C1294 1.499 . S
C1297 C1298 1.373 . S
C1297 C1299 1.389 . S
C1298 H1271 0.950 . S
C1298 C1284 1.377 . S
C1298 C1297 1.373 . S
C1299 C1283 1.365 1_455 S
C1299 C1297 1.389 . S
C1299 C1300 1.524 . S
C1300 C1299 1.524 . S
C1300 C1301 1.397 . S
C1300 C1305 1.363 . S
C1301 H1272 0.950 . S
C1301 C1300 1.397 . S
C1301 C1302 1.334 . S
C1302 H1273 0.950 . S
C1302 C1301 1.334 . S
C1302 C1303 1.287 . S
C1303 C1302 1.287 . S
C1303 C1304 1.524 . S
C1303 H1306 0.999 . S
C1304 H1274 0.950 . S
C1304 C1303 1.524 . S
C1304 C1305 1.415 . S
C1305 H1275 0.950 . S
C1305 C1300 1.363 . S
C1305 C1304 1.415 . S
H1306 C1303 0.999 . S
H1307 C1288 0.913 1_655 S
H1308 C1326 0.951 . S
H1309 C1328 0.951 . S
H1310 C1330 0.950 . S
H1311 C1331 0.950 . S
H1312 C1333 0.950 . S
H1313 C1336 0.950 . S
H1314 C1337 0.950 . S
H1315 C1339 0.950 . S
H1316 C1340 0.950 . S
H1317 C1341 0.951 . S
H1318 C1343 0.951 . S
H1319 C1345 0.950 . S
H1320 C1346 0.950 . S
H1321 C1348 0.950 . S
H1322 C1351 0.950 . S
H1323 C1352 0.950 . S
H1324 C1354 0.950 . S
H1325 C1355 0.950 . S
C1326 H1308 0.951 . S
C1326 C1327 1.366 . S
C1326 C1328 1.388 . S
C1327 C1326 1.366 . S
C1327 C1331 1.385 . S
C1328 H1309 0.951 . S
C1328 C1326 1.388 . S
C1328 C1329 1.366 . S
C1329 C1328 1.366 . S
C1329 C1330 1.414 . S
C1329 C1332 1.499 . S
C1330 H1310 0.950 . S
C1330 C1329 1.414 . S
C1330 C1331 1.374 . S
C1331 H1311 0.950 . S
C1331 C1327 1.385 . S
C1331 C1330 1.374 . S
C1332 C1329 1.499 . S
C1332 C1333 1.373 1_455 S
C1332 C1334 1.389 1_455 S
C1333 H1312 0.950 . S
C1333 C1332 1.373 1_655 S
C1333 C1349 1.377 . S
C1334 C1332 1.389 1_655 S
C1334 C1335 1.524 1_655 S
C1334 C1348 1.377 . S
C1335 C1334 1.524 1_455 S
C1335 C1336 1.397 . S
C1335 C1340 1.363 . S
C1336 H1313 0.950 . S
C1336 C1335 1.397 . S
C1336 C1337 1.334 . S
C1337 H1314 0.950 . S
C1337 C1336 1.334 . S
C1337 C1338 1.287 . S
C1338 C1337 1.287 . S
C1338 C1339 1.524 . S
C1338 H1357 0.913 . S
C1339 H1315 0.950 . S
C1339 C1338 1.524 . S
C1339 C1340 1.415 . S
C1340 H1316 0.950 . S
C1340 C1335 1.363 . S
C1340 C1339 1.415 . S
C1341 H1317 0.951 . S
C1341 C1342 1.366 . S
C1341 C1343 1.388 . S
C1342 C1341 1.366 . S
C1342 C1346 1.385 . S
C1343 H1318 0.951 . S
C1343 C1341 1.388 . S
C1343 C1344 1.366 . S
C1344 C1343 1.366 . S
C1344 C1345 1.414 . S
C1344 C1347 1.499 . S
C1345 H1319 0.950 . S
C1345 C1344 1.414 . S
C1345 C1346 1.374 . S
C1346 H1320 0.950 . S
C1346 C1342 1.385 . S
C1346 C1345 1.374 . S
C1347 C1344 1.499 . S
C1347 C1348 1.373 . S
C1347 C1349 1.389 . S
C1348 H1321 0.950 . S
C1348 C1334 1.377 . S
C1348 C1347 1.373 . S
C1349 C1333 1.377 . S
C1349 C1347 1.389 . S
C1349 C1350 1.524 . S
C1350 C1349 1.524 . S
C1350 C1351 1.397 . S
C1350 C1355 1.363 . S
C1351 H1322 0.950 . S
C1351 C1350 1.397 . S
C1351 C1352 1.334 . S
C1352 H1323 0.950 . S
C1352 C1351 1.334 . S
C1352 C1353 1.287 . S
C1353 C1352 1.287 . S
C1353 C1354 1.524 . S
C1353 H1356 0.999 . S
C1354 H1324 0.950 . S
C1354 C1353 1.524 . S
C1354 C1355 1.415 . S
C1355 H1325 0.950 . S
C1355 C1350 1.363 . S
C1355 C1354 1.415 . S
H1356 C1353 0.999 . S
H1357 C1338 0.913 . S
H1358 C1376 0.951 . S
H1359 C1378 0.951 . S
H1360 C1380 0.950 . S
H1361 C1381 0.950 . S
H1362 C1383 0.950 . S
H1363 C1386 0.950 . S
H1364 C1387 0.950 . S
H1365 C1389 0.950 . S
H1366 C1390 0.950 . S
H1367 C1391 0.951 . S
H1368 C1393 0.951 . S
H1369 C1395 0.950 . S
H1370 C1396 0.950 . S
H1371 C1398 0.950 1_545 S
H1372 C1401 0.950 . S
H1373 C1402 0.950 . S
H1374 C1404 0.950 . S
H1375 C1405 0.950 1_565 S
C1376 H1358 0.951 . S
C1376 C1377 1.366 . S
C1376 C1378 1.388 . S
C1377 C1376 1.366 . S
C1377 C1381 1.385 . S
C1378 H1359 0.951 . S
C1378 C1376 1.388 . S
C1378 C1379 1.366 . S
C1379 C1378 1.366 . S
C1379 C1380 1.414 . S
C1379 C1382 1.499 . S
C1380 H1360 0.950 . S
C1380 C1379 1.414 . S
C1380 C1381 1.374 . S
C1381 H1361 0.950 . S
C1381 C1377 1.385 . S
C1381 C1380 1.374 . S
C1382 C1379 1.499 . S
C1382 C1383 1.373 . S
C1382 C1384 1.389 . S
C1383 H1362 0.950 . S
C1383 C1382 1.373 . S
C1383 C1399 1.377 . S
C1384 C1382 1.389 . S
C1384 C1385 1.524 . S
C1384 C1398 1.377 . S
C1385 C1384 1.524 . S
C1385 C1386 1.397 . S
C1385 C1390 1.363 . S
C1386 H1363 0.950 . S
C1386 C1385 1.397 . S
C1386 C1387 1.334 . S
C1387 H1364 0.950 . S
C1387 C1386 1.334 . S
C1387 C1388 1.287 . S
C1388 C1387 1.287 . S
C1388 C1389 1.524 . S
C1388 H1407 0.913 . S
C1389 H1365 0.950 . S
C1389 C1388 1.524 . S
C1389 C1390 1.415 . S
C1390 H1366 0.950 . S
C1390 C1385 1.363 . S
C1390 C1389 1.415 . S
C1391 H1367 0.951 . S
C1391 C1392 1.366 . S
C1391 C1393 1.388 . S
C1392 C1391 1.366 . S
C1392 C1396 1.385 . S
C1393 H1368 0.951 . S
C1393 C1391 1.388 . S
C1393 C1394 1.366 . S
C1394 C1393 1.366 . S
C1394 C1395 1.414 . S
C1394 C1397 1.499 . S
C1395 H1369 0.950 . S
C1395 C1394 1.414 . S
C1395 C1396 1.374 . S
C1396 H1370 0.950 . S
C1396 C1392 1.385 . S
C1396 C1395 1.374 . S
C1397 C1394 1.499 . S
C1397 C1398 1.373 1_545 S
C1397 C1399 1.389 1_545 S
C1398 H1371 0.950 1_565 S
C1398 C1384 1.377 . S
C1398 C1397 1.373 1_565 S
C1399 C1383 1.377 . S
C1399 C1397 1.389 1_565 S
C1399 C1400 1.524 1_565 S
C1400 C1399 1.524 1_545 S
C1400 C1401 1.397 . S
C1400 C1405 1.363 . S
C1401 H1372 0.950 . S
C1401 C1400 1.397 . S
C1401 C1402 1.334 . S
C1402 H1373 0.950 . S
C1402 C1401 1.334 . S
C1402 C1403 1.287 . S
C1403 C1402 1.287 . S
C1403 C1404 1.524 . S
C1403 H1406 0.999 . S
C1404 H1374 0.950 . S
C1404 C1403 1.524 . S
C1404 C1405 1.415 . S
C1405 H1375 0.950 1_545 S
C1405 C1400 1.363 . S
C1405 C1404 1.415 . S
H1406 C1403 0.999 . S
H1407 C1388 0.913 . S
H1408 C1426 0.951 . S
H1409 C1428 0.951 . S
H1410 C1430 0.950 . S
H1411 C1431 0.950 . S
H1412 C1433 0.950 . S
H1413 C1436 0.950 . S
H1414 C1437 0.950 . S
H1415 C1439 0.950 . S
H1416 C1440 0.950 . S
H1417 C1441 0.951 . S
H1418 C1443 0.951 . S
H1419 C1445 0.950 . S
H1420 C1446 0.950 . S
H1421 C1448 0.950 . S
H1422 C1451 0.950 . S
H1423 C1452 0.950 . S
H1424 C1454 0.950 . S
H1425 C1455 0.950 . S
C1426 H1408 0.951 . S
C1426 C1427 1.366 . S
C1426 C1428 1.388 . S
C1427 C1426 1.366 . S
C1427 C1431 1.385 . S
C1428 H1409 0.951 . S
C1428 C1426 1.388 . S
C1428 C1429 1.366 . S
C1429 C1428 1.366 . S
C1429 C1430 1.414 . S
C1429 C1432 1.499 . S
C1430 H1410 0.950 . S
C1430 C1429 1.414 . S
C1430 C1431 1.374 . S
C1431 H1411 0.950 . S
C1431 C1427 1.385 . S
C1431 C1430 1.374 . S
C1432 C1429 1.499 . S
C1432 C1433 1.373 . S
C1432 C1434 1.389 . S
C1433 H1412 0.950 . S
C1433 C1432 1.373 . S
C1433 C1449 1.377 . S
C1434 C1432 1.389 . S
C1434 C1435 1.524 . S
C1434 C1448 1.377 . S
C1435 C1434 1.524 . S
C1435 C1436 1.397 . S
C1435 C1440 1.363 . S
C1436 H1413 0.950 . S
C1436 C1435 1.397 . S
C1436 C1437 1.334 . S
C1437 H1414 0.950 . S
C1437 C1436 1.334 . S
C1437 C1438 1.287 . S
C1438 C1437 1.287 . S
C1438 C1439 1.524 . S
C1438 H1457 0.913 . S
C1439 H1415 0.950 . S
C1439 C1438 1.524 . S
C1439 C1440 1.415 . S
C1440 H1416 0.950 . S
C1440 C1435 1.363 . S
C1440 C1439 1.415 . S
C1441 H1417 0.951 . S
C1441 C1442 1.366 . S
C1441 C1443 1.388 . S
C1442 C1441 1.366 . S
C1442 C1446 1.385 . S
C1443 H1418 0.951 . S
C1443 C1441 1.388 . S
C1443 C1444 1.366 . S
C1444 C1443 1.366 . S
C1444 C1445 1.414 . S
C1444 C1447 1.499 . S
C1445 H1419 0.950 . S
C1445 C1444 1.414 . S
C1445 C1446 1.374 . S
C1446 H1420 0.950 . S
C1446 C1442 1.385 . S
C1446 C1445 1.374 . S
C1447 C1444 1.499 . S
C1447 C1448 1.373 . S
C1447 C1449 1.389 . S
C1448 H1421 0.950 . S
C1448 C1434 1.377 . S
C1448 C1447 1.373 . S
C1449 C1433 1.377 . S
C1449 C1447 1.389 . S
C1449 C1450 1.524 . S
C1450 C1449 1.524 . S
C1450 C1451 1.397 . S
C1450 C1455 1.363 . S
C1451 H1422 0.950 . S
C1451 C1450 1.397 . S
C1451 C1452 1.334 . S
C1452 H1423 0.950 . S
C1452 C1451 1.334 . S
C1452 C1453 1.287 . S
C1453 C1452 1.287 . S
C1453 C1454 1.524 . S
C1453 H1456 0.999 . S
C1454 H1424 0.950 . S
C1454 C1453 1.524 . S
C1454 C1455 1.415 . S
C1455 H1425 0.950 . S
C1455 C1450 1.363 . S
C1455 C1454 1.415 . S
H1456 C1453 0.999 . S
H1457 C1438 0.913 . S
H1458 C1476 0.951 . S
H1459 C1478 0.951 . S
H1460 C1480 0.950 . S
H1461 C1481 0.950 . S
H1462 C1483 0.950 . S
H1463 C1486 0.950 . S
H1464 C1487 0.950 . S
H1465 C1489 0.950 . S
H1466 C1490 0.950 . S
H1467 C1491 0.951 . S
H1468 C1493 0.951 . S
H1469 C1495 0.950 . S
H1470 C1496 0.950 . S
H1471 C1498 0.935 1_655 S
H1472 C1501 0.950 . S
H1473 C1502 0.950 . S
H1474 C1504 0.950 . S
H1475 C1505 0.950 . S
C1476 H1458 0.951 . S
C1476 C1477 1.366 . S
C1476 C1478 1.388 . S
C1477 C1476 1.366 . S
C1477 C1481 1.385 . S
C1478 H1459 0.951 . S
C1478 C1476 1.388 . S
C1478 C1479 1.366 . S
C1479 C1478 1.366 . S
C1479 C1480 1.414 . S
C1479 C1482 1.499 . S
C1480 H1460 0.950 . S
C1480 C1479 1.414 . S
C1480 C1481 1.374 . S
C1481 H1461 0.950 . S
C1481 C1477 1.385 . S
C1481 C1480 1.374 . S
C1482 C1479 1.499 . S
C1482 C1483 1.373 . S
C1482 C1484 1.389 . S
C1483 H1462 0.950 . S
C1483 C1482 1.373 . S
C1483 C1499 1.377 . S
C1484 C1482 1.389 . S
C1484 C1485 1.524 . S
C1484 C1498 1.414 . S
C1485 C1484 1.524 . S
C1485 C1486 1.397 . S
C1485 C1490 1.363 . S
C1486 H1463 0.950 . S
C1486 C1485 1.397 . S
C1486 C1487 1.334 . S
C1487 H1464 0.950 . S
C1487 C1486 1.334 . S
C1487 C1488 1.287 . S
C1488 C1487 1.287 . S
C1488 C1489 1.524 . S
C1488 H1507 0.913 . S
C1489 H1465 0.950 . S
C1489 C1488 1.524 . S
C1489 C1490 1.415 . S
C1490 H1466 0.950 . S
C1490 C1485 1.363 . S
C1490 C1489 1.415 . S
C1491 H1467 0.951 . S
C1491 C1492 1.366 . S
C1491 C1493 1.388 . S
C1492 C1491 1.366 . S
C1492 C1496 1.385 . S
C1493 H1468 0.951 . S
C1493 C1491 1.388 . S
C1493 C1494 1.366 . S
C1494 C1493 1.366 . S
C1494 C1495 1.414 . S
C1494 C1497 1.499 . S
C1495 H1469 0.950 . S
C1495 C1494 1.414 . S
C1495 C1496 1.374 . S
C1496 H1470 0.950 . S
C1496 C1492 1.385 . S
C1496 C1495 1.374 . S
C1497 C1494 1.499 . S
C1497 C1498 1.351 1_655 S
C1497 C1499 1.389 1_655 S
C1498 H1471 0.935 1_455 S
C1498 C1484 1.414 . S
C1498 C1497 1.351 1_455 S
C1499 C1483 1.377 . S
C1499 C1497 1.389 1_455 S
C1499 C1500 1.524 . S
C1500 C1499 1.524 . S
C1500 C1501 1.397 1_455 S
C1500 C1505 1.363 . S
C1501 H1472 0.950 . S
C1501 C1500 1.397 1_655 S
C1501 C1502 1.334 . S
C1502 H1473 0.950 . S
C1502 C1501 1.334 . S
C1502 C1503 1.287 . S
C1503 C1502 1.287 . S
C1503 C1504 1.524 1_655 S
C1503 H1506 0.999 . S
C1504 H1474 0.950 . S
C1504 C1503 1.524 1_455 S
C1504 C1505 1.415 . S
C1505 H1475 0.950 . S
C1505 C1500 1.363 . S
C1505 C1504 1.415 . S
H1506 C1503 0.999 . S
H1507 C1488 0.913 . S
H1508 C1526 0.951 . S
H1509 C1528 0.951 . S
H1510 C1530 0.950 . S
H1511 C1531 0.950 . S
H1512 C1533 0.950 . S
H1513 C1536 0.950 . S
H1514 C1537 0.950 . S
H1515 C1539 0.950 . S
H1516 C1540 0.950 . S
H1517 C1541 0.951 . S
H1518 C1543 0.951 . S
H1519 C1545 0.950 . S
H1520 C1546 0.950 . S
H1521 C1548 0.950 1_565 S
H1522 C1551 0.950 . S
H1523 C1552 0.950 . S
H1524 C1554 0.950 . S
H1525 C1555 0.950 . S
C1526 H1508 0.951 . S
C1526 C1527 1.366 . S
C1526 C1528 1.388 . S
C1527 C1526 1.366 . S
C1527 C1531 1.385 . S
C1528 H1509 0.951 . S
C1528 C1526 1.388 . S
C1528 C1529 1.366 . S
C1529 C1528 1.366 . S
C1529 C1530 1.414 . S
C1529 C1532 1.499 . S
C1530 H1510 0.950 . S
C1530 C1529 1.414 . S
C1530 C1531 1.374 . S
C1531 H1511 0.950 . S
C1531 C1527 1.385 . S
C1531 C1530 1.374 . S
C1532 C1529 1.499 . S
C1532 C1533 1.373 . S
C1532 C1534 1.389 . S
C1533 H1512 0.950 . S
C1533 C1532 1.373 . S
C1533 C1549 1.377 . S
C1534 C1532 1.389 . S
C1534 C1535 1.524 . S
C1534 C1548 1.377 . S
C1535 C1534 1.524 . S
C1535 C1536 1.397 . S
C1535 C1540 1.363 . S
C1536 H1513 0.950 . S
C1536 C1535 1.397 . S
C1536 C1537 1.334 . S
C1537 H1514 0.950 . S
C1537 C1536 1.334 . S
C1537 C1538 1.287 . S
C1538 C1537 1.287 . S
C1538 C1539 1.524 . S
C1538 H1557 0.913 . S
C1539 H1515 0.950 . S
C1539 C1538 1.524 . S
C1539 C1540 1.415 . S
C1540 H1516 0.950 . S
C1540 C1535 1.363 . S
C1540 C1539 1.415 . S
C1541 H1517 0.951 . S
C1541 C1542 1.366 . S
C1541 C1543 1.388 . S
C1542 C1541 1.366 . S
C1542 C1546 1.385 . S
C1543 H1518 0.951 . S
C1543 C1541 1.388 . S
C1543 C1544 1.366 . S
C1544 C1543 1.366 . S
C1544 C1545 1.414 . S
C1544 C1547 1.499 . S
C1545 H1519 0.950 . S
C1545 C1544 1.414 . S
C1545 C1546 1.374 . S
C1546 H1520 0.950 . S
C1546 C1542 1.385 . S
C1546 C1545 1.374 . S
C1547 C1544 1.499 . S
C1547 C1548 1.373 1_565 S
C1547 C1549 1.389 1_565 S
C1548 H1521 0.950 1_545 S
C1548 C1534 1.377 . S
C1548 C1547 1.373 1_545 S
C1549 C1533 1.377 . S
C1549 C1547 1.389 1_545 S
C1549 C1550 1.524 . S
C1550 C1549 1.524 . S
C1550 C1551 1.397 1_545 S
C1550 C1555 1.363 . S
C1551 H1522 0.950 . S
C1551 C1550 1.397 1_565 S
C1551 C1552 1.334 . S
C1552 H1523 0.950 . S
C1552 C1551 1.334 . S
C1552 C1553 1.287 . S
C1553 C1552 1.287 . S
C1553 C1554 1.524 1_565 S
C1553 H1556 0.999 . S
C1554 H1524 0.950 . S
C1554 C1553 1.524 1_545 S
C1554 C1555 1.415 . S
C1555 H1525 0.950 . S
C1555 C1550 1.363 . S
C1555 C1554 1.415 . S
H1556 C1553 0.999 . S
H1557 C1538 0.913 . S
H1558 C1576 0.951 . S
H1559 C1578 0.951 . S
H1560 C1580 0.950 . S
H1561 C1581 0.950 . S
H1562 C1583 0.950 . S
H1563 C1586 0.950 . S
H1564 C1587 0.950 . S
H1565 C1589 0.950 . S
H1566 C1590 0.950 . S
H1567 C1591 0.951 . S
H1568 C1593 0.951 . S
H1569 C1595 0.950 . S
H1570 C1596 0.950 . S
H1571 C1598 0.950 . S
H1572 C1601 0.950 . S
H1573 C1602 0.950 . S
H1574 C1604 0.950 . S
H1575 C1605 0.950 . S
C1576 H1558 0.951 . S
C1576 C1577 1.366 . S
C1576 C1578 1.388 . S
C1577 C1576 1.366 . S
C1577 C1581 1.385 . S
C1578 H1559 0.951 . S
C1578 C1576 1.388 . S
C1578 C1579 1.366 . S
C1579 C1578 1.366 . S
C1579 C1580 1.414 . S
C1579 C1582 1.499 . S
C1580 H1560 0.950 . S
C1580 C1579 1.414 . S
C1580 C1581 1.374 . S
C1581 H1561 0.950 . S
C1581 C1577 1.385 . S
C1581 C1580 1.374 . S
C1582 C1579 1.499 . S
C1582 C1583 1.373 . S
C1582 C1584 1.389 . S
C1583 H1562 0.950 . S
C1583 C1582 1.373 . S
C1583 C1599 1.377 . S
C1584 C1582 1.389 . S
C1584 C1585 1.524 . S
C1584 C1598 1.377 . S
C1585 C1584 1.524 . S
C1585 C1586 1.397 . S
C1585 C1590 1.363 . S
C1586 H1563 0.950 . S
C1586 C1585 1.397 . S
C1586 C1587 1.334 . S
C1587 H1564 0.950 . S
C1587 C1586 1.334 . S
C1587 C1588 1.287 . S
C1588 C1587 1.287 . S
C1588 C1589 1.524 . S
C1588 H1607 0.913 . S
C1589 H1565 0.950 . S
C1589 C1588 1.524 . S
C1589 C1590 1.415 . S
C1590 H1566 0.950 . S
C1590 C1585 1.363 . S
C1590 C1589 1.415 . S
C1591 H1567 0.951 . S
C1591 C1592 1.366 . S
C1591 C1593 1.388 . S
C1592 C1591 1.366 . S
C1592 C1596 1.385 . S
C1593 H1568 0.951 . S
C1593 C1591 1.388 . S
C1593 C1594 1.366 . S
C1594 C1593 1.366 . S
C1594 C1595 1.414 . S
C1594 C1597 1.499 . S
C1595 H1569 0.950 . S
C1595 C1594 1.414 . S
C1595 C1596 1.374 . S
C1596 H1570 0.950 . S
C1596 C1592 1.385 . S
C1596 C1595 1.374 . S
C1597 C1594 1.499 . S
C1597 C1598 1.373 . S
C1597 C1599 1.389 . S
C1598 H1571 0.950 . S
C1598 C1584 1.377 . S
C1598 C1597 1.373 . S
C1599 C1583 1.377 . S
C1599 C1597 1.389 . S
C1599 C1600 1.524 . S
C1600 C1599 1.524 . S
C1600 C1601 1.397 . S
C1600 C1605 1.363 . S
C1601 H1572 0.950 . S
C1601 C1600 1.397 . S
C1601 C1602 1.334 . S
C1602 H1573 0.950 . S
C1602 C1601 1.334 . S
C1602 C1603 1.287 . S
C1603 C1602 1.287 . S
C1603 C1604 1.524 . S
C1603 H1606 0.999 . S
C1604 H1574 0.950 . S
C1604 C1603 1.524 . S
C1604 C1605 1.415 . S
C1605 H1575 0.950 . S
C1605 C1600 1.363 . S
C1605 C1604 1.415 . S
H1606 C1603 0.999 . S
H1607 C1588 0.913 . S
H1608 C1626 0.951 . S
H1609 C1628 0.951 . S
H1610 C1630 0.950 . S
H1611 C1631 0.950 . S
H1612 C1633 0.950 . S
H1613 C1636 0.950 . S
H1614 C1637 0.950 . S
H1615 C1639 0.950 . S
H1616 C1640 0.950 . S
H1617 C1641 0.951 . S
H1618 C1643 0.951 . S
H1619 C1645 0.950 . S
H1620 C1646 0.950 . S
H1621 C1648 0.950 . S
H1622 C1651 0.950 . S
H1623 C1652 0.950 . S
H1624 C1654 0.950 . S
H1625 C1655 0.950 . S
C1626 H1608 0.951 . S
C1626 C1627 1.366 . S
C1626 C1628 1.388 . S
C1627 C1626 1.366 . S
C1627 C1631 1.385 . S
C1628 H1609 0.951 . S
C1628 C1626 1.388 . S
C1628 C1629 1.366 . S
C1629 C1628 1.366 . S
C1629 C1630 1.414 . S
C1629 C1632 1.499 . S
C1630 H1610 0.950 . S
C1630 C1629 1.414 . S
C1630 C1631 1.374 . S
C1631 H1611 0.950 . S
C1631 C1627 1.385 . S
C1631 C1630 1.374 . S
C1632 C1629 1.499 . S
C1632 C1633 1.373 . S
C1632 C1634 1.389 . S
C1633 H1612 0.950 . S
C1633 C1632 1.373 . S
C1633 C1649 1.377 . S
C1634 C1632 1.389 . S
C1634 C1635 1.524 . S
C1634 C1648 1.377 . S
C1635 C1634 1.524 . S
C1635 C1636 1.397 . S
C1635 C1640 1.363 . S
C1636 H1613 0.950 . S
C1636 C1635 1.397 . S
C1636 C1637 1.334 . S
C1637 H1614 0.950 . S
C1637 C1636 1.334 . S
C1637 C1638 1.287 . S
C1638 C1637 1.287 . S
C1638 C1639 1.524 . S
C1638 H1657 0.913 . S
C1639 H1615 0.950 . S
C1639 C1638 1.524 . S
C1639 C1640 1.415 . S
C1640 H1616 0.950 . S
C1640 C1635 1.363 . S
C1640 C1639 1.415 . S
C1641 H1617 0.951 . S
C1641 C1642 1.366 . S
C1641 C1643 1.388 . S
C1642 C1641 1.366 . S
C1642 C1646 1.385 . S
C1643 H1618 0.951 . S
C1643 C1641 1.388 . S
C1643 C1644 1.366 . S
C1644 C1643 1.366 . S
C1644 C1645 1.414 . S
C1644 C1647 1.499 . S
C1645 H1619 0.950 . S
C1645 C1644 1.414 . S
C1645 C1646 1.374 . S
C1646 H1620 0.950 . S
C1646 C1642 1.385 . S
C1646 C1645 1.374 . S
C1647 C1644 1.499 . S
C1647 C1648 1.373 . S
C1647 C1649 1.389 . S
C1648 H1621 0.950 . S
C1648 C1634 1.377 . S
C1648 C1647 1.373 . S
C1649 C1633 1.377 . S
C1649 C1647 1.389 . S
C1649 C1650 1.524 . S
C1650 C1649 1.524 . S
C1650 C1651 1.397 . S
C1650 C1655 1.363 . S
C1651 H1622 0.950 . S
C1651 C1650 1.397 . S
C1651 C1652 1.334 . S
C1652 H1623 0.950 . S
C1652 C1651 1.334 . S
C1652 C1653 1.287 . S
C1653 C1652 1.287 . S
C1653 C1654 1.524 . S
C1653 H1656 0.999 . S
C1654 H1624 0.950 . S
C1654 C1653 1.524 . S
C1654 C1655 1.415 . S
C1655 H1625 0.950 . S
C1655 C1650 1.363 . S
C1655 C1654 1.415 . S
H1656 C1653 0.999 . S
H1657 C1638 0.913 . S
H1658 C1676 0.951 . S
H1659 C1678 0.951 . S
H1660 C1680 0.950 . S
H1661 C1681 0.950 . S
H1662 C1683 0.950 . S
H1663 C1686 0.950 . S
H1664 C1687 0.950 . S
H1665 C1689 0.950 . S
H1666 C1690 0.950 . S
H1667 C1691 0.951 . S
H1668 C1693 0.951 . S
H1669 C1695 0.950 . S
H1670 C1696 0.950 . S
H1671 C1698 0.950 . S
H1672 C1701 0.950 . S
H1673 C1702 0.950 . S
H1674 C1704 0.950 . S
H1675 C1705 0.950 . S
C1676 H1658 0.951 . S
C1676 C1677 1.366 . S
C1676 C1678 1.388 . S
C1677 C1676 1.366 . S
C1677 C1681 1.385 . S
C1678 H1659 0.951 . S
C1678 C1676 1.388 . S
C1678 C1679 1.366 . S
C1679 C1678 1.366 . S
C1679 C1680 1.414 . S
C1679 C1682 1.499 . S
C1680 H1660 0.950 . S
C1680 C1679 1.414 . S
C1680 C1681 1.374 . S
C1681 H1661 0.950 . S
C1681 C1677 1.385 . S
C1681 C1680 1.374 . S
C1682 C1679 1.499 . S
C1682 C1683 1.373 . S
C1682 C1684 1.389 . S
C1683 H1662 0.950 . S
C1683 C1682 1.373 . S
C1683 C1699 1.377 . S
C1684 C1682 1.389 . S
C1684 C1685 1.524 . S
C1684 C1698 1.377 . S
C1685 C1684 1.524 . S
C1685 C1686 1.397 . S
C1685 C1690 1.363 . S
C1686 H1663 0.950 . S
C1686 C1685 1.397 . S
C1686 C1687 1.334 . S
C1687 H1664 0.950 . S
C1687 C1686 1.334 . S
C1687 C1688 1.287 . S
C1688 C1687 1.287 . S
C1688 C1689 1.524 . S
C1688 H1707 0.913 . S
C1689 H1665 0.950 . S
C1689 C1688 1.524 . S
C1689 C1690 1.415 . S
C1690 H1666 0.950 . S
C1690 C1685 1.363 . S
C1690 C1689 1.415 . S
C1691 H1667 0.951 . S
C1691 C1692 1.366 . S
C1691 C1693 1.388 . S
C1692 C1691 1.366 . S
C1692 C1696 1.385 . S
C1693 H1668 0.951 . S
C1693 C1691 1.388 . S
C1693 C1694 1.366 . S
C1694 C1693 1.366 . S
C1694 C1695 1.414 . S
C1694 C1697 1.499 . S
C1695 H1669 0.950 . S
C1695 C1694 1.414 . S
C1695 C1696 1.374 . S
C1696 H1670 0.950 . S
C1696 C1692 1.385 . S
C1696 C1695 1.374 . S
C1697 C1694 1.499 . S
C1697 C1698 1.373 . S
C1697 C1699 1.389 . S
C1698 H1671 0.950 . S
C1698 C1684 1.377 . S
C1698 C1697 1.373 . S
C1699 C1683 1.377 . S
C1699 C1697 1.389 . S
C1699 C1700 1.524 . S
C1700 C1699 1.524 . S
C1700 C1701 1.397 . S
C1700 C1705 1.363 . S
C1701 H1672 0.950 . S
C1701 C1700 1.397 . S
C1701 C1702 1.334 . S
C1702 H1673 0.950 . S
C1702 C1701 1.334 . S
C1702 C1703 1.287 . S
C1703 C1702 1.287 . S
C1703 C1704 1.524 . S
C1703 H1706 0.999 . S
C1704 H1674 0.950 . S
C1704 C1703 1.524 . S
C1704 C1705 1.415 . S
C1705 H1675 0.950 . S
C1705 C1700 1.363 . S
C1705 C1704 1.415 . S
H1706 C1703 0.999 . S
H1707 C1688 0.913 . S
H1708 C1726 0.951 . S
H1709 C1728 0.951 . S
H1710 C1730 0.950 . S
H1711 C1731 0.950 . S
H1712 C1733 0.950 . S
H1713 C1736 0.950 . S
H1714 C1737 0.950 . S
H1715 C1739 0.950 . S
H1716 C1740 0.950 . S
H1717 C1741 0.951 . S
H1718 C1743 0.951 . S
H1719 C1745 0.950 . S
H1720 C1746 0.950 . S
H1721 C1748 0.950 . S
H1722 C1751 0.950 . S
H1723 C1752 0.950 . S
H1724 C1754 0.950 . S
H1725 C1755 0.950 . S
C1726 H1708 0.951 . S
C1726 C1727 1.366 . S
C1726 C1728 1.388 . S
C1727 C1726 1.366 . S
C1727 C1731 1.385 . S
C1728 H1709 0.951 . S
C1728 C1726 1.388 . S
C1728 C1729 1.366 . S
C1729 C1728 1.366 . S
C1729 C1730 1.414 . S
C1729 C1732 1.499 . S
C1730 H1710 0.950 . S
C1730 C1729 1.414 . S
C1730 C1731 1.374 . S
C1731 H1711 0.950 . S
C1731 C1727 1.385 . S
C1731 C1730 1.374 . S
C1732 C1729 1.499 . S
C1732 C1733 1.373 . S
C1732 C1734 1.389 . S
C1733 H1712 0.950 . S
C1733 C1732 1.373 . S
C1733 C1749 1.377 . S
C1734 C1732 1.389 . S
C1734 C1735 1.524 . S
C1734 C1748 1.377 . S
C1735 C1734 1.524 . S
C1735 C1736 1.397 . S
C1735 C1740 1.363 . S
C1736 H1713 0.950 . S
C1736 C1735 1.397 . S
C1736 C1737 1.334 . S
C1737 H1714 0.950 . S
C1737 C1736 1.334 . S
C1737 C1738 1.287 . S
C1738 C1737 1.287 . S
C1738 C1739 1.524 . S
C1738 H1757 0.913 . S
C1739 H1715 0.950 . S
C1739 C1738 1.524 . S
C1739 C1740 1.415 . S
C1740 H1716 0.950 . S
C1740 C1735 1.363 . S
C1740 C1739 1.415 . S
C1741 H1717 0.951 . S
C1741 C1742 1.366 . S
C1741 C1743 1.388 . S
C1742 C1741 1.366 . S
C1742 C1746 1.385 . S
C1743 H1718 0.951 . S
C1743 C1741 1.388 . S
C1743 C1744 1.366 . S
C1744 C1743 1.366 . S
C1744 C1745 1.414 . S
C1744 C1747 1.499 . S
C1745 H1719 0.950 . S
C1745 C1744 1.414 . S
C1745 C1746 1.374 . S
C1746 H1720 0.950 . S
C1746 C1742 1.385 . S
C1746 C1745 1.374 . S
C1747 C1744 1.499 . S
C1747 C1748 1.373 . S
C1747 C1749 1.389 . S
C1748 H1721 0.950 . S
C1748 C1734 1.377 . S
C1748 C1747 1.373 . S
C1749 C1733 1.377 . S
C1749 C1747 1.389 . S
C1749 C1750 1.524 . S
C1750 C1749 1.524 . S
C1750 C1751 1.397 . S
C1750 C1755 1.363 . S
C1751 H1722 0.950 . S
C1751 C1750 1.397 . S
C1751 C1752 1.334 . S
C1752 H1723 0.950 . S
C1752 C1751 1.334 . S
C1752 C1753 1.287 . S
C1753 C1752 1.287 . S
C1753 C1754 1.524 . S
C1753 H1756 0.999 . S
C1754 H1724 0.950 . S
C1754 C1753 1.524 . S
C1754 C1755 1.415 . S
C1755 H1725 0.950 . S
C1755 C1750 1.363 . S
C1755 C1754 1.415 . S
H1756 C1753 0.999 . S
H1757 C1738 0.913 . S
H1758 C1776 0.951 . S
H1759 C1778 0.951 . S
H1760 C1780 0.950 . S
H1761 C1781 0.950 . S
H1762 C1783 0.950 . S
H1763 C1786 0.950 . S
H1764 C1787 0.950 . S
H1765 C1789 0.950 . S
H1766 C1790 0.950 . S
H1767 C1791 0.951 . S
H1768 C1793 0.951 . S
H1769 C1795 0.950 . S
H1770 C1796 0.950 . S
H1771 C1798 0.950 . S
H1772 C1801 0.950 . S
H1773 C1802 0.950 . S
H1774 C1804 0.950 . S
H1775 C1805 0.950 . S
C1776 H1758 0.951 . S
C1776 C1777 1.366 . S
C1776 C1778 1.388 . S
C1777 C1776 1.366 . S
C1777 C1781 1.385 . S
C1778 H1759 0.951 . S
C1778 C1776 1.388 . S
C1778 C1779 1.366 . S
C1779 C1778 1.366 . S
C1779 C1780 1.414 . S
C1779 C1782 1.499 . S
C1780 H1760 0.950 . S
C1780 C1779 1.414 . S
C1780 C1781 1.374 . S
C1781 H1761 0.950 . S
C1781 C1777 1.385 . S
C1781 C1780 1.374 . S
C1782 C1779 1.499 . S
C1782 C1783 1.373 . S
C1782 C1784 1.389 . S
C1783 H1762 0.950 . S
C1783 C1782 1.373 . S
C1783 C1799 1.377 . S
C1784 C1782 1.389 . S
C1784 C1785 1.524 . S
C1784 C1798 1.377 . S
C1785 C1784 1.524 . S
C1785 C1786 1.397 . S
C1785 C1790 1.363 . S
C1786 H1763 0.950 . S
C1786 C1785 1.397 . S
C1786 C1787 1.334 . S
C1787 H1764 0.950 . S
C1787 C1786 1.334 . S
C1787 C1788 1.287 . S
C1788 C1787 1.287 . S
C1788 C1789 1.524 . S
C1788 H1807 0.913 . S
C1789 H1765 0.950 . S
C1789 C1788 1.524 . S
C1789 C1790 1.415 . S
C1790 H1766 0.950 . S
C1790 C1785 1.363 . S
C1790 C1789 1.415 . S
C1791 H1767 0.951 . S
C1791 C1792 1.366 . S
C1791 C1793 1.388 . S
C1792 C1791 1.366 . S
C1792 C1796 1.385 . S
C1793 H1768 0.951 . S
C1793 C1791 1.388 . S
C1793 C1794 1.366 . S
C1794 C1793 1.366 . S
C1794 C1795 1.414 . S
C1794 C1797 1.499 . S
C1795 H1769 0.950 . S
C1795 C1794 1.414 . S
C1795 C1796 1.374 . S
C1796 H1770 0.950 . S
C1796 C1792 1.385 . S
C1796 C1795 1.374 . S
C1797 C1794 1.499 . S
C1797 C1798 1.373 . S
C1797 C1799 1.389 . S
C1798 H1771 0.950 . S
C1798 C1784 1.377 . S
C1798 C1797 1.373 . S
C1799 C1783 1.377 . S
C1799 C1797 1.389 . S
C1799 C1800 1.524 . S
C1800 C1799 1.524 . S
C1800 C1801 1.397 . S
C1800 C1805 1.363 . S
C1801 H1772 0.950 . S
C1801 C1800 1.397 . S
C1801 C1802 1.334 . S
C1802 H1773 0.950 . S
C1802 C1801 1.334 . S
C1802 C1803 1.287 . S
C1803 C1802 1.287 . S
C1803 C1804 1.524 . S
C1803 H1806 0.999 . S
C1804 H1774 0.950 . S
C1804 C1803 1.524 . S
C1804 C1805 1.415 . S
C1805 H1775 0.950 . S
C1805 C1800 1.363 . S
C1805 C1804 1.415 . S
H1806 C1803 0.999 . S
H1807 C1788 0.913 . S
H1808 C1826 0.951 . S
H1809 C1828 0.951 . S
H1810 C1830 0.950 . S
H1811 C1831 0.950 . S
H1812 C1833 0.950 . S
H1813 C1836 0.950 . S
H1814 C1837 0.950 . S
H1815 C1839 0.950 . S
H1816 C1840 0.950 . S
H1817 C1841 0.951 . S
H1818 C1843 0.951 . S
H1819 C1845 0.950 . S
H1820 C1846 0.950 . S
H1821 C1848 0.950 . S
H1822 C1851 0.950 . S
H1823 C1852 0.950 . S
H1824 C1854 0.950 . S
H1825 C1855 0.950 . S
C1826 H1808 0.951 . S
C1826 C1827 1.366 . S
C1826 C1828 1.388 . S
C1827 C1826 1.366 . S
C1827 C1831 1.385 . S
C1828 H1809 0.951 . S
C1828 C1826 1.388 . S
C1828 C1829 1.366 . S
C1829 C1828 1.366 . S
C1829 C1830 1.414 . S
C1829 C1832 1.499 . S
C1830 H1810 0.950 . S
C1830 C1829 1.414 . S
C1830 C1831 1.374 . S
C1831 H1811 0.950 . S
C1831 C1827 1.385 . S
C1831 C1830 1.374 . S
C1832 C1829 1.499 . S
C1832 C1833 1.373 . S
C1832 C1834 1.389 . S
C1833 H1812 0.950 . S
C1833 C1832 1.373 . S
C1833 C1849 1.377 . S
C1834 C1832 1.389 . S
C1834 C1835 1.524 . S
C1834 C1848 1.377 . S
C1835 C1834 1.524 . S
C1835 C1836 1.397 . S
C1835 C1840 1.363 . S
C1836 H1813 0.950 . S
C1836 C1835 1.397 . S
C1836 C1837 1.334 . S
C1837 H1814 0.950 . S
C1837 C1836 1.334 . S
C1837 C1838 1.287 . S
C1838 C1837 1.287 . S
C1838 C1839 1.524 . S
C1838 H1857 0.913 . S
C1839 H1815 0.950 . S
C1839 C1838 1.524 . S
C1839 C1840 1.415 . S
C1840 H1816 0.950 . S
C1840 C1835 1.363 . S
C1840 C1839 1.415 . S
C1841 H1817 0.951 . S
C1841 C1842 1.366 . S
C1841 C1843 1.388 . S
C1842 C1841 1.366 . S
C1842 C1846 1.385 . S
C1843 H1818 0.951 . S
C1843 C1841 1.388 . S
C1843 C1844 1.366 . S
C1844 C1843 1.366 . S
C1844 C1845 1.414 . S
C1844 C1847 1.499 . S
C1845 H1819 0.950 . S
C1845 C1844 1.414 . S
C1845 C1846 1.374 . S
C1846 H1820 0.950 . S
C1846 C1842 1.385 . S
C1846 C1845 1.374 . S
C1847 C1844 1.499 . S
C1847 C1848 1.373 . S
C1847 C1849 1.389 . S
C1848 H1821 0.950 . S
C1848 C1834 1.377 . S
C1848 C1847 1.373 . S
C1849 C1833 1.377 . S
C1849 C1847 1.389 . S
C1849 C1850 1.524 . S
C1850 C1849 1.524 . S
C1850 C1851 1.397 . S
C1850 C1855 1.363 . S
C1851 H1822 0.950 . S
C1851 C1850 1.397 . S
C1851 C1852 1.334 . S
C1852 H1823 0.950 . S
C1852 C1851 1.334 . S
C1852 C1853 1.287 . S
C1853 C1852 1.287 . S
C1853 C1854 1.524 . S
C1853 H1856 0.999 . S
C1854 H1824 0.950 . S
C1854 C1853 1.524 . S
C1854 C1855 1.415 . S
C1855 H1825 0.950 . S
C1855 C1850 1.363 . S
C1855 C1854 1.415 . S
H1856 C1853 0.999 . S
H1857 C1838 0.913 . S
H1858 C1876 0.951 . S
H1859 C1878 0.951 . S
H1860 C1880 0.950 . S
H1861 C1881 0.950 . S
H1862 C1883 0.950 . S
H1863 C1886 0.950 . S
H1864 C1887 0.950 . S
H1865 C1889 0.950 . S
H1866 C1890 0.950 . S
H1867 C1891 0.951 . S
H1868 C1893 0.951 . S
H1869 C1895 0.950 . S
H1870 C1896 0.950 . S
H1871 C1898 0.950 . S
H1872 C1901 0.950 . S
H1873 C1902 0.950 . S
H1874 C1904 0.950 . S
H1875 C1905 0.950 . S
C1876 H1858 0.951 . S
C1876 C1877 1.366 . S
C1876 C1878 1.388 . S
C1877 C1876 1.366 . S
C1877 C1881 1.385 . S
C1878 H1859 0.951 . S
C1878 C1876 1.388 . S
C1878 C1879 1.366 . S
C1879 C1878 1.366 . S
C1879 C1880 1.414 . S
C1879 C1882 1.499 . S
C1880 H1860 0.950 . S
C1880 C1879 1.414 . S
C1880 C1881 1.374 . S
C1881 H1861 0.950 . S
C1881 C1877 1.385 . S
C1881 C1880 1.374 . S
C1882 C1879 1.499 . S
C1882 C1883 1.373 . S
C1882 C1884 1.389 . S
C1883 H1862 0.950 . S
C1883 C1882 1.373 . S
C1883 C1899 1.377 . S
C1884 C1882 1.389 . S
C1884 C1885 1.524 . S
C1884 C1898 1.377 . S
C1885 C1884 1.524 . S
C1885 C1886 1.397 . S
C1885 C1890 1.363 . S
C1886 H1863 0.950 . S
C1886 C1885 1.397 . S
C1886 C1887 1.334 . S
C1887 H1864 0.950 . S
C1887 C1886 1.334 . S
C1887 C1888 1.287 . S
C1888 C1887 1.287 . S
C1888 C1889 1.524 . S
C1888 H1907 0.913 . S
C1889 H1865 0.950 . S
C1889 C1888 1.524 . S
C1889 C1890 1.415 . S
C1890 H1866 0.950 . S
C1890 C1885 1.363 . S
C1890 C1889 1.415 . S
C1891 H1867 0.951 . S
C1891 C1892 1.366 . S
C1891 C1893 1.388 . S
C1892 C1891 1.366 . S
C1892 C1896 1.385 . S
C1893 H1868 0.951 . S
C1893 C1891 1.388 . S
C1893 C1894 1.366 . S
C1894 C1893 1.366 . S
C1894 C1895 1.414 . S
C1894 C1897 1.499 . S
C1895 H1869 0.950 . S
C1895 C1894 1.414 . S
C1895 C1896 1.374 . S
C1896 H1870 0.950 . S
C1896 C1892 1.385 . S
C1896 C1895 1.374 . S
C1897 C1894 1.499 . S
C1897 C1898 1.373 . S
C1897 C1899 1.389 . S
C1898 H1871 0.950 . S
C1898 C1884 1.377 . S
C1898 C1897 1.373 . S
C1899 C1883 1.377 . S
C1899 C1897 1.389 . S
C1899 C1900 1.524 . S
C1900 C1899 1.524 . S
C1900 C1901 1.397 . S
C1900 C1905 1.363 . S
C1901 H1872 0.950 . S
C1901 C1900 1.397 . S
C1901 C1902 1.334 . S
C1902 H1873 0.950 . S
C1902 C1901 1.334 . S
C1902 C1903 1.287 . S
C1903 C1902 1.287 . S
C1903 C1904 1.524 . S
C1903 H1906 0.999 . S
C1904 H1874 0.950 . S
C1904 C1903 1.524 . S
C1904 C1905 1.415 . S
C1905 H1875 0.950 . S
C1905 C1900 1.363 . S
C1905 C1904 1.415 . S
H1906 C1903 0.999 . S
H1907 C1888 0.913 . S
H1908 C1926 0.951 . S
H1909 C1928 0.951 . S
H1910 C1930 0.950 . S
H1911 C1931 0.950 . S
H1912 C1933 0.950 . S
H1913 C1936 0.950 . S
H1914 C1937 0.950 . S
H1915 C1939 0.950 . S
H1916 C1940 0.950 . S
H1917 C1941 0.951 . S
H1918 C1943 0.951 . S
H1919 C1945 0.950 . S
H1920 C1946 0.950 . S
H1921 C1948 0.950 . S
H1922 C1951 0.950 . S
H1923 C1952 0.950 . S
H1924 C1954 0.950 . S
H1925 C1955 0.950 . S
C1926 H1908 0.951 . S
C1926 C1927 1.366 . S
C1926 C1928 1.388 . S
C1927 C1926 1.366 . S
C1927 C1931 1.385 . S
C1928 H1909 0.951 . S
C1928 C1926 1.388 . S
C1928 C1929 1.366 . S
C1929 C1928 1.366 . S
C1929 C1930 1.414 . S
C1929 C1932 1.499 . S
C1930 H1910 0.950 . S
C1930 C1929 1.414 . S
C1930 C1931 1.374 . S
C1931 H1911 0.950 . S
C1931 C1927 1.385 . S
C1931 C1930 1.374 . S
C1932 C1929 1.499 . S
C1932 C1933 1.373 . S
C1932 C1934 1.389 . S
C1933 H1912 0.950 . S
C1933 C1932 1.373 . S
C1933 C1949 1.377 . S
C1934 C1932 1.389 . S
C1934 C1935 1.524 . S
C1934 C1948 1.377 . S
C1935 C1934 1.524 . S
C1935 C1936 1.397 . S
C1935 C1940 1.363 . S
C1936 H1913 0.950 . S
C1936 C1935 1.397 . S
C1936 C1937 1.334 . S
C1937 H1914 0.950 . S
C1937 C1936 1.334 . S
C1937 C1938 1.287 . S
C1938 C1937 1.287 . S
C1938 C1939 1.524 . S
C1938 H1957 0.913 . S
C1939 H1915 0.950 . S
C1939 C1938 1.524 . S
C1939 C1940 1.415 . S
C1940 H1916 0.950 . S
C1940 C1935 1.363 . S
C1940 C1939 1.415 . S
C1941 H1917 0.951 . S
C1941 C1942 1.366 . S
C1941 C1943 1.388 . S
C1942 C1941 1.366 . S
C1942 C1946 1.385 . S
C1943 H1918 0.951 . S
C1943 C1941 1.388 . S
C1943 C1944 1.366 . S
C1944 C1943 1.366 . S
C1944 C1945 1.414 . S
C1944 C1947 1.499 . S
C1945 H1919 0.950 . S
C1945 C1944 1.414 . S
C1945 C1946 1.374 . S
C1946 H1920 0.950 . S
C1946 C1942 1.385 . S
C1946 C1945 1.374 . S
C1947 C1944 1.499 . S
C1947 C1948 1.373 . S
C1947 C1949 1.389 . S
C1948 H1921 0.950 . S
C1948 C1934 1.377 . S
C1948 C1947 1.373 . S
C1949 C1933 1.377 . S
C1949 C1947 1.389 . S
C1949 C1950 1.524 . S
C1950 C1949 1.524 . S
C1950 C1951 1.397 . S
C1950 C1955 1.363 . S
C1951 H1922 0.950 . S
C1951 C1950 1.397 . S
C1951 C1952 1.334 . S
C1952 H1923 0.950 . S
C1952 C1951 1.334 . S
C1952 C1953 1.287 . S
C1953 C1952 1.287 . S
C1953 C1954 1.524 . S
C1953 H1956 0.999 . S
C1954 H1924 0.950 . S
C1954 C1953 1.524 . S
C1954 C1955 1.415 . S
C1955 H1925 0.950 . S
C1955 C1950 1.363 . S
C1955 C1954 1.415 . S
H1956 C1953 0.999 . S
H1957 C1938 0.913 . S
H1958 C1976 0.951 . S
H1959 C1978 0.951 . S
H1960 C1980 0.950 . S
H1961 C1981 0.950 . S
H1962 C1983 0.950 . S
H1963 C1986 0.950 . S
H1964 C1987 0.950 . S
H1965 C1989 0.950 . S
H1966 C1990 0.950 . S
H1967 C1991 0.951 . S
H1968 C1993 0.951 . S
H1969 C1995 0.950 . S
H1970 C1996 0.950 . S
H1971 C1998 0.950 . S
H1972 C2001 0.950 . S
H1973 C2002 0.950 . S
H1974 C2004 0.950 . S
H1975 C2005 0.950 . S
C1976 H1958 0.951 . S
C1976 C1977 1.366 . S
C1976 C1978 1.388 . S
C1977 C1976 1.366 . S
C1977 C1981 1.385 . S
C1978 H1959 0.951 . S
C1978 C1976 1.388 . S
C1978 C1979 1.366 . S
C1979 C1978 1.366 . S
C1979 C1980 1.414 . S
C1979 C1982 1.499 . S
C1980 H1960 0.950 . S
C1980 C1979 1.414 . S
C1980 C1981 1.374 . S
C1981 H1961 0.950 . S
C1981 C1977 1.385 . S
C1981 C1980 1.374 . S
C1982 C1979 1.499 . S
C1982 C1983 1.373 . S
C1982 C1984 1.389 . S
C1983 H1962 0.950 . S
C1983 C1982 1.373 . S
C1983 C1999 1.377 . S
C1984 C1982 1.389 . S
C1984 C1985 1.524 . S
C1984 C1998 1.377 . S
C1985 C1984 1.524 . S
C1985 C1986 1.397 . S
C1985 C1990 1.363 . S
C1986 H1963 0.950 . S
C1986 C1985 1.397 . S
C1986 C1987 1.334 . S
C1987 H1964 0.950 . S
C1987 C1986 1.334 . S
C1987 C1988 1.287 . S
C1988 C1987 1.287 . S
C1988 C1989 1.524 . S
C1988 H2007 0.913 . S
C1989 H1965 0.950 . S
C1989 C1988 1.524 . S
C1989 C1990 1.415 . S
C1990 H1966 0.950 . S
C1990 C1985 1.363 . S
C1990 C1989 1.415 . S
C1991 H1967 0.951 . S
C1991 C1992 1.366 . S
C1991 C1993 1.388 . S
C1992 C1991 1.366 . S
C1992 C1996 1.385 . S
C1993 H1968 0.951 . S
C1993 C1991 1.388 . S
C1993 C1994 1.366 . S
C1994 C1993 1.366 . S
C1994 C1995 1.414 . S
C1994 C1997 1.499 . S
C1995 H1969 0.950 . S
C1995 C1994 1.414 . S
C1995 C1996 1.374 . S
C1996 H1970 0.950 . S
C1996 C1992 1.385 . S
C1996 C1995 1.374 . S
C1997 C1994 1.499 . S
C1997 C1998 1.373 . S
C1997 C1999 1.389 . S
C1998 H1971 0.950 . S
C1998 C1984 1.377 . S
C1998 C1997 1.373 . S
C1999 C1983 1.377 . S
C1999 C1997 1.389 . S
C1999 C2000 1.524 . S
C2000 C1999 1.524 . S
C2000 C2001 1.397 . S
C2000 C2005 1.363 . S
C2001 H1972 0.950 . S
C2001 C2000 1.397 . S
C2001 C2002 1.334 . S
C2002 H1973 0.950 . S
C2002 C2001 1.334 . S
C2002 C2003 1.287 . S
C2003 C2002 1.287 . S
C2003 C2004 1.524 . S
C2003 H2006 0.999 . S
C2004 H1974 0.950 . S
C2004 C2003 1.524 . S
C2004 C2005 1.415 . S
C2005 H1975 0.950 . S
C2005 C2000 1.363 . S
C2005 C2004 1.415 . S
H2006 C2003 0.999 . S
H2007 C1988 0.913 . S
H2008 C2026 0.951 . S
H2009 C2028 0.951 . S
H2010 C2030 0.950 . S
H2011 C2031 0.950 . S
H2012 C2033 0.950 . S
H2013 C2036 0.950 . S
H2014 C2037 0.950 . S
H2015 C2039 0.950 . S
H2016 C2040 0.950 . S
H2017 C2041 0.951 . S
H2018 C2043 0.951 . S
H2019 C2045 0.950 . S
H2020 C2046 0.950 . S
H2021 C2048 0.950 . S
H2022 C2051 0.950 . S
H2023 C2052 0.950 . S
H2024 C2054 0.950 . S
H2025 C2055 0.950 . S
C2026 H2008 0.951 . S
C2026 C2027 1.366 . S
C2026 C2028 1.388 . S
C2027 C2026 1.366 . S
C2027 C2031 1.385 . S
C2028 H2009 0.951 . S
C2028 C2026 1.388 . S
C2028 C2029 1.366 . S
C2029 C2028 1.366 . S
C2029 C2030 1.414 . S
C2029 C2032 1.499 . S
C2030 H2010 0.950 . S
C2030 C2029 1.414 . S
C2030 C2031 1.374 . S
C2031 H2011 0.950 . S
C2031 C2027 1.385 . S
C2031 C2030 1.374 . S
C2032 C2029 1.499 . S
C2032 C2033 1.373 . S
C2032 C2034 1.389 . S
C2033 H2012 0.950 . S
C2033 C2032 1.373 . S
C2033 C2049 1.377 . S
C2034 C2032 1.389 . S
C2034 C2035 1.524 . S
C2034 C2048 1.377 . S
C2035 C2034 1.524 . S
C2035 C2036 1.397 . S
C2035 C2040 1.363 . S
C2036 H2013 0.950 . S
C2036 C2035 1.397 . S
C2036 C2037 1.334 . S
C2037 H2014 0.950 . S
C2037 C2036 1.334 . S
C2037 C2038 1.287 . S
C2038 C2037 1.287 . S
C2038 C2039 1.524 . S
C2038 H2057 0.913 . S
C2039 H2015 0.950 . S
C2039 C2038 1.524 . S
C2039 C2040 1.415 . S
C2040 H2016 0.950 . S
C2040 C2035 1.363 . S
C2040 C2039 1.415 . S
C2041 H2017 0.951 . S
C2041 C2042 1.366 . S
C2041 C2043 1.388 . S
C2042 C2041 1.366 . S
C2042 C2046 1.385 . S
C2043 H2018 0.951 . S
C2043 C2041 1.388 . S
C2043 C2044 1.366 . S
C2044 C2043 1.366 . S
C2044 C2045 1.414 . S
C2044 C2047 1.499 . S
C2045 H2019 0.950 . S
C2045 C2044 1.414 . S
C2045 C2046 1.374 . S
C2046 H2020 0.950 . S
C2046 C2042 1.385 . S
C2046 C2045 1.374 . S
C2047 C2044 1.499 . S
C2047 C2048 1.373 . S
C2047 C2049 1.389 . S
C2048 H2021 0.950 . S
C2048 C2034 1.377 . S
C2048 C2047 1.373 . S
C2049 C2033 1.377 . S
C2049 C2047 1.389 . S
C2049 C2050 1.524 . S
C2050 C2049 1.524 . S
C2050 C2051 1.397 . S
C2050 C2055 1.363 . S
C2051 H2022 0.950 . S
C2051 C2050 1.397 . S
C2051 C2052 1.334 . S
C2052 H2023 0.950 . S
C2052 C2051 1.334 . S
C2052 C2053 1.287 . S
C2053 C2052 1.287 . S
C2053 C2054 1.524 . S
C2053 H2056 0.999 . S
C2054 H2024 0.950 . S
C2054 C2053 1.524 . S
C2054 C2055 1.415 . S
C2055 H2025 0.950 . S
C2055 C2050 1.363 . S
C2055 C2054 1.415 . S
H2056 C2053 0.999 . S
H2057 C2038 0.913 . S
H2058 C2076 0.951 . S
H2059 C2078 0.951 . S
H2060 C2080 0.950 . S
H2061 C2081 0.950 . S
H2062 C2083 0.950 . S
H2063 C2086 0.950 . S
H2064 C2087 0.950 . S
H2065 C2089 0.950 . S
H2066 C2090 0.950 . S
H2067 C2091 0.951 . S
H2068 C2093 0.951 . S
H2069 C2095 0.950 . S
H2070 C2096 0.950 . S
H2071 C2098 0.950 . S
H2072 C2101 0.950 . S
H2073 C2102 0.950 . S
H2074 C2104 0.950 . S
H2075 C2105 0.950 . S
C2076 H2058 0.951 . S
C2076 C2077 1.366 . S
C2076 C2078 1.388 . S
C2077 C2076 1.366 . S
C2077 C2081 1.385 . S
C2078 H2059 0.951 . S
C2078 C2076 1.388 . S
C2078 C2079 1.366 . S
C2079 C2078 1.366 . S
C2079 C2080 1.414 . S
C2079 C2082 1.499 . S
C2080 H2060 0.950 . S
C2080 C2079 1.414 . S
C2080 C2081 1.374 . S
C2081 H2061 0.950 . S
C2081 C2077 1.385 . S
C2081 C2080 1.374 . S
C2082 C2079 1.499 . S
C2082 C2083 1.373 . S
C2082 C2084 1.389 . S
C2083 H2062 0.950 . S
C2083 C2082 1.373 . S
C2083 C2099 1.377 . S
C2084 C2082 1.389 . S
C2084 C2085 1.524 . S
C2084 C2098 1.377 . S
C2085 C2084 1.524 . S
C2085 C2086 1.397 . S
C2085 C2090 1.363 . S
C2086 H2063 0.950 . S
C2086 C2085 1.397 . S
C2086 C2087 1.334 . S
C2087 H2064 0.950 . S
C2087 C2086 1.334 . S
C2087 C2088 1.287 . S
C2088 C2087 1.287 . S
C2088 C2089 1.524 . S
C2088 H2107 0.913 . S
C2089 H2065 0.950 . S
C2089 C2088 1.524 . S
C2089 C2090 1.415 . S
C2090 H2066 0.950 . S
C2090 C2085 1.363 . S
C2090 C2089 1.415 . S
C2091 H2067 0.951 . S
C2091 C2092 1.366 . S
C2091 C2093 1.388 . S
C2092 C2091 1.366 . S
C2092 C2096 1.385 . S
C2093 H2068 0.951 . S
C2093 C2091 1.388 . S
C2093 C2094 1.366 . S
C2094 C2093 1.366 . S
C2094 C2095 1.414 . S
C2094 C2097 1.499 . S
C2095 H2069 0.950 . S
C2095 C2094 1.414 . S
C2095 C2096 1.374 . S
C2096 H2070 0.950 . S
C2096 C2092 1.385 . S
C2096 C2095 1.374 . S
C2097 C2094 1.499 . S
C2097 C2098 1.373 . S
C2097 C2099 1.389 . S
C2098 H2071 0.950 . S
C2098 C2084 1.377 . S
C2098 C2097 1.373 . S
C2099 C2083 1.377 . S
C2099 C2097 1.389 . S
C2099 C2100 1.524 . S
C2100 C2099 1.524 . S
C2100 C2101 1.397 . S
C2100 C2105 1.363 . S
C2101 H2072 0.950 . S
C2101 C2100 1.397 . S
C2101 C2102 1.334 . S
C2102 H2073 0.950 . S
C2102 C2101 1.334 . S
C2102 C2103 1.287 . S
C2103 C2102 1.287 . S
C2103 C2104 1.524 . S
C2103 H2106 0.999 . S
C2104 H2074 0.950 . S
C2104 C2103 1.524 . S
C2104 C2105 1.415 . S
C2105 H2075 0.950 . S
C2105 C2100 1.363 . S
C2105 C2104 1.415 . S
H2106 C2103 0.999 . S
H2107 C2088 0.913 . S
H2108 C2126 0.951 . S
H2109 C2128 0.951 . S
H2110 C2130 0.950 . S
H2111 C2131 0.950 . S
H2112 C2133 0.950 . S
H2113 C2136 0.950 . S
H2114 C2137 0.950 . S
H2115 C2139 0.950 . S
H2116 C2140 0.950 . S
H2117 C2141 0.951 . S
H2118 C2143 0.951 . S
H2119 C2145 0.950 . S
H2120 C2146 0.950 . S
H2121 C2148 0.950 . S
H2122 C2151 0.950 . S
H2123 C2152 0.950 . S
H2124 C2154 0.950 . S
H2125 C2155 0.950 . S
C2126 H2108 0.951 . S
C2126 C2127 1.366 . S
C2126 C2128 1.388 . S
C2127 C2126 1.366 . S
C2127 C2131 1.385 . S
C2128 H2109 0.951 . S
C2128 C2126 1.388 . S
C2128 C2129 1.366 . S
C2129 C2128 1.366 . S
C2129 C2130 1.414 . S
C2129 C2132 1.499 . S
C2130 H2110 0.950 . S
C2130 C2129 1.414 . S
C2130 C2131 1.374 . S
C2131 H2111 0.950 . S
C2131 C2127 1.385 . S
C2131 C2130 1.374 . S
C2132 C2129 1.499 . S
C2132 C2133 1.373 . S
C2132 C2134 1.389 . S
C2133 H2112 0.950 . S
C2133 C2132 1.373 . S
C2133 C2149 1.377 . S
C2134 C2132 1.389 . S
C2134 C2135 1.524 . S
C2134 C2148 1.377 . S
C2135 C2134 1.524 . S
C2135 C2136 1.397 . S
C2135 C2140 1.363 . S
C2136 H2113 0.950 . S
C2136 C2135 1.397 . S
C2136 C2137 1.334 . S
C2137 H2114 0.950 . S
C2137 C2136 1.334 . S
C2137 C2138 1.287 . S
C2138 C2137 1.287 . S
C2138 C2139 1.524 . S
C2138 H2157 0.913 . S
C2139 H2115 0.950 . S
C2139 C2138 1.524 . S
C2139 C2140 1.415 . S
C2140 H2116 0.950 . S
C2140 C2135 1.363 . S
C2140 C2139 1.415 . S
C2141 H2117 0.951 . S
C2141 C2142 1.366 . S
C2141 C2143 1.388 . S
C2142 C2141 1.366 . S
C2142 C2146 1.385 . S
C2143 H2118 0.951 . S
C2143 C2141 1.388 . S
C2143 C2144 1.366 . S
C2144 C2143 1.366 . S
C2144 C2145 1.414 . S
C2144 C2147 1.499 . S
C2145 H2119 0.950 . S
C2145 C2144 1.414 . S
C2145 C2146 1.374 . S
C2146 H2120 0.950 . S
C2146 C2142 1.385 . S
C2146 C2145 1.374 . S
C2147 C2144 1.499 . S
C2147 C2148 1.373 . S
C2147 C2149 1.389 . S
C2148 H2121 0.950 . S
C2148 C2134 1.377 . S
C2148 C2147 1.373 . S
C2149 C2133 1.377 . S
C2149 C2147 1.389 . S
C2149 C2150 1.524 . S
C2150 C2149 1.524 . S
C2150 C2151 1.397 . S
C2150 C2155 1.363 . S
C2151 H2122 0.950 . S
C2151 C2150 1.397 . S
C2151 C2152 1.334 . S
C2152 H2123 0.950 . S
C2152 C2151 1.334 . S
C2152 C2153 1.287 . S
C2153 C2152 1.287 . S
C2153 C2154 1.524 . S
C2153 H2156 0.999 . S
C2154 H2124 0.950 . S
C2154 C2153 1.524 . S
C2154 C2155 1.415 . S
C2155 H2125 0.950 . S
C2155 C2150 1.363 . S
C2155 C2154 1.415 . S
H2156 C2153 0.999 . S
H2157 C2138 0.913 . S
H2158 C2176 0.951 . S
H2159 C2178 0.951 . S
H2160 C2180 0.950 . S
H2161 C2181 0.950 . S
H2162 C2183 0.950 . S
H2163 C2186 0.950 . S
H2164 C2187 0.950 . S
H2165 C2189 0.950 . S
H2166 C2190 0.950 . S
H2167 C2191 0.951 . S
H2168 C2193 0.951 . S
H2169 C2195 0.950 . S
H2170 C2196 0.950 . S
H2171 C2198 0.950 . S
H2172 C2201 0.950 . S
H2173 C2202 0.950 . S
H2174 C2204 0.950 . S
H2175 C2205 0.950 . S
C2176 H2158 0.951 . S
C2176 C2177 1.366 . S
C2176 C2178 1.388 . S
C2177 C2176 1.366 . S
C2177 C2181 1.385 . S
C2178 H2159 0.951 . S
C2178 C2176 1.388 . S
C2178 C2179 1.366 . S
C2179 C2178 1.366 . S
C2179 C2180 1.414 . S
C2179 C2182 1.499 . S
C2180 H2160 0.950 . S
C2180 C2179 1.414 . S
C2180 C2181 1.374 . S
C2181 H2161 0.950 . S
C2181 C2177 1.385 . S
C2181 C2180 1.374 . S
C2182 C2179 1.499 . S
C2182 C2183 1.373 . S
C2182 C2184 1.389 . S
C2183 H2162 0.950 . S
C2183 C2182 1.373 . S
C2183 C2199 1.377 . S
C2184 C2182 1.389 . S
C2184 C2185 1.524 . S
C2184 C2198 1.377 . S
C2185 C2184 1.524 . S
C2185 C2186 1.397 . S
C2185 C2190 1.363 . S
C2186 H2163 0.950 . S
C2186 C2185 1.397 . S
C2186 C2187 1.334 . S
C2187 H2164 0.950 . S
C2187 C2186 1.334 . S
C2187 C2188 1.287 . S
C2188 C2187 1.287 . S
C2188 C2189 1.524 . S
C2188 H2207 0.913 . S
C2189 H2165 0.950 . S
C2189 C2188 1.524 . S
C2189 C2190 1.415 . S
C2190 H2166 0.950 . S
C2190 C2185 1.363 . S
C2190 C2189 1.415 . S
C2191 H2167 0.951 . S
C2191 C2192 1.366 . S
C2191 C2193 1.388 . S
C2192 C2191 1.366 . S
C2192 C2196 1.385 . S
C2193 H2168 0.951 . S
C2193 C2191 1.388 . S
C2193 C2194 1.366 . S
C2194 C2193 1.366 . S
C2194 C2195 1.414 . S
C2194 C2197 1.499 . S
C2195 H2169 0.950 . S
C2195 C2194 1.414 . S
C2195 C2196 1.374 . S
C2196 H2170 0.950 . S
C2196 C2192 1.385 . S
C2196 C2195 1.374 . S
C2197 C2194 1.499 . S
C2197 C2198 1.373 . S
C2197 C2199 1.389 . S
C2198 H2171 0.950 . S
C2198 C2184 1.377 . S
C2198 C2197 1.373 . S
C2199 C2183 1.377 . S
C2199 C2197 1.389 . S
C2199 C2200 1.524 . S
C2200 C2199 1.524 . S
C2200 C2201 1.397 . S
C2200 C2205 1.363 . S
C2201 H2172 0.950 . S
C2201 C2200 1.397 . S
C2201 C2202 1.334 . S
C2202 H2173 0.950 . S
C2202 C2201 1.334 . S
C2202 C2203 1.287 . S
C2203 C2202 1.287 . S
C2203 C2204 1.524 . S
C2203 H2206 0.999 . S
C2204 H2174 0.950 . S
C2204 C2203 1.524 . S
C2204 C2205 1.415 . S
C2205 H2175 0.950 . S
C2205 C2200 1.363 . S
C2205 C2204 1.415 . S
H2206 C2203 0.999 . S
H2207 C2188 0.913 . S
H2208 C2226 0.951 . S
H2209 C2228 0.951 . S
H2210 C2230 0.950 . S
H2211 C2231 0.950 . S
H2212 C2233 0.950 . S
H2213 C2236 0.950 . S
H2214 C2237 0.950 . S
H2215 C2239 0.950 . S
H2216 C2240 0.950 . S
H2217 C2241 0.951 . S
H2218 C2243 0.951 . S
H2219 C2245 0.950 . S
H2220 C2246 0.950 . S
H2221 C2248 0.950 . S
H2222 C2251 0.950 . S
H2223 C2252 0.950 . S
H2224 C2254 0.950 . S
H2225 C2255 0.950 . S
C2226 H2208 0.951 . S
C2226 C2227 1.366 . S
C2226 C2228 1.388 . S
C2227 C2226 1.366 . S
C2227 C2231 1.385 . S
C2228 H2209 0.951 . S
C2228 C2226 1.388 . S
C2228 C2229 1.366 . S
C2229 C2228 1.366 . S
C2229 C2230 1.414 . S
C2229 C2232 1.499 . S
C2230 H2210 0.950 . S
C2230 C2229 1.414 . S
C2230 C2231 1.374 . S
C2231 H2211 0.950 . S
C2231 C2227 1.385 . S
C2231 C2230 1.374 . S
C2232 C2229 1.499 . S
C2232 C2233 1.373 . S
C2232 C2234 1.389 . S
C2233 H2212 0.950 . S
C2233 C2232 1.373 . S
C2233 C2249 1.377 . S
C2234 C2232 1.389 . S
C2234 C2235 1.524 . S
C2234 C2248 1.377 . S
C2235 C2234 1.524 . S
C2235 C2236 1.397 . S
C2235 C2240 1.363 . S
C2236 H2213 0.950 . S
C2236 C2235 1.397 . S
C2236 C2237 1.334 . S
C2237 H2214 0.950 . S
C2237 C2236 1.334 . S
C2237 C2238 1.287 . S
C2238 C2237 1.287 . S
C2238 C2239 1.524 . S
C2238 H2257 0.913 . S
C2239 H2215 0.950 . S
C2239 C2238 1.524 . S
C2239 C2240 1.415 . S
C2240 H2216 0.950 . S
C2240 C2235 1.363 . S
C2240 C2239 1.415 . S
C2241 H2217 0.951 . S
C2241 C2242 1.366 . S
C2241 C2243 1.388 . S
C2242 C2241 1.366 . S
C2242 C2246 1.385 . S
C2243 H2218 0.951 . S
C2243 C2241 1.388 . S
C2243 C2244 1.366 . S
C2244 C2243 1.366 . S
C2244 C2245 1.414 . S
C2244 C2247 1.499 . S
C2245 H2219 0.950 . S
C2245 C2244 1.414 . S
C2245 C2246 1.374 . S
C2246 H2220 0.950 . S
C2246 C2242 1.385 . S
C2246 C2245 1.374 . S
C2247 C2244 1.499 . S
C2247 C2248 1.373 . S
C2247 C2249 1.389 . S
C2248 H2221 0.950 . S
C2248 C2234 1.377 . S
C2248 C2247 1.373 . S
C2249 C2233 1.377 . S
C2249 C2247 1.389 . S
C2249 C2250 1.524 . S
C2250 C2249 1.524 . S
C2250 C2251 1.397 . S
C2250 C2255 1.363 . S
C2251 H2222 0.950 . S
C2251 C2250 1.397 . S
C2251 C2252 1.334 . S
C2252 H2223 0.950 . S
C2252 C2251 1.334 . S
C2252 C2253 1.287 . S
C2253 C2252 1.287 . S
C2253 C2254 1.524 . S
C2253 H2256 0.999 . S
C2254 H2224 0.950 . S
C2254 C2253 1.524 . S
C2254 C2255 1.415 . S
C2255 H2225 0.950 . S
C2255 C2250 1.363 . S
C2255 C2254 1.415 . S
H2256 C2253 0.999 . S
H2257 C2238 0.913 . S
H2258 C2276 0.951 . S
H2259 C2278 0.951 . S
H2260 C2280 0.950 . S
H2261 C2281 0.950 . S
H2262 C2283 0.950 . S
H2263 C2286 0.950 . S
H2264 C2287 0.950 . S
H2265 C2289 0.950 . S
H2266 C2290 0.950 . S
H2267 C2291 0.951 . S
H2268 C2293 0.951 . S
H2269 C2295 0.950 . S
H2270 C2296 0.950 . S
H2271 C2298 0.950 . S
H2272 C2301 0.950 . S
H2273 C2302 0.950 . S
H2274 C2304 0.950 . S
H2275 C2305 0.950 . S
C2276 H2258 0.951 . S
C2276 C2277 1.366 . S
C2276 C2278 1.388 . S
C2277 C2276 1.366 . S
C2277 C2281 1.385 . S
C2278 H2259 0.951 . S
C2278 C2276 1.388 . S
C2278 C2279 1.366 . S
C2279 C2278 1.366 . S
C2279 C2280 1.414 . S
C2279 C2282 1.499 . S
C2280 H2260 0.950 . S
C2280 C2279 1.414 . S
C2280 C2281 1.374 . S
C2281 H2261 0.950 . S
C2281 C2277 1.385 . S
C2281 C2280 1.374 . S
C2282 C2279 1.499 . S
C2282 C2283 1.373 . S
C2282 C2284 1.389 . S
C2283 H2262 0.950 . S
C2283 C2282 1.373 . S
C2283 C2299 1.377 . S
C2284 C2282 1.389 . S
C2284 C2285 1.524 . S
C2284 C2298 1.377 . S
C2285 C2284 1.524 . S
C2285 C2286 1.397 . S
C2285 C2290 1.363 . S
C2286 H2263 0.950 . S
C2286 C2285 1.397 . S
C2286 C2287 1.334 . S
C2287 H2264 0.950 . S
C2287 C2286 1.334 . S
C2287 C2288 1.287 . S
C2288 C2287 1.287 . S
C2288 C2289 1.524 . S
C2288 H2307 0.913 . S
C2289 H2265 0.950 . S
C2289 C2288 1.524 . S
C2289 C2290 1.415 . S
C2290 H2266 0.950 . S
C2290 C2285 1.363 . S
C2290 C2289 1.415 . S
C2291 H2267 0.951 . S
C2291 C2292 1.366 . S
C2291 C2293 1.388 . S
C2292 C2291 1.366 . S
C2292 C2296 1.385 . S
C2293 H2268 0.951 . S
C2293 C2291 1.388 . S
C2293 C2294 1.366 . S
C2294 C2293 1.366 . S
C2294 C2295 1.414 . S
C2294 C2297 1.499 . S
C2295 H2269 0.950 . S
C2295 C2294 1.414 . S
C2295 C2296 1.374 . S
C2296 H2270 0.950 . S
C2296 C2292 1.385 . S
C2296 C2295 1.374 . S
C2297 C2294 1.499 . S
C2297 C2298 1.373 . S
C2297 C2299 1.389 . S
C2298 H2271 0.950 . S
C2298 C2284 1.377 . S
C2298 C2297 1.373 . S
C2299 C2283 1.377 . S
C2299 C2297 1.389 . S
C2299 C2300 1.524 . S
C2300 C2299 1.524 . S
C2300 C2301 1.397 . S
C2300 C2305 1.363 . S
C2301 H2272 0.950 . S
C2301 C2300 1.397 . S
C2301 C2302 1.334 . S
C2302 H2273 0.950 . S
C2302 C2301 1.334 . S
C2302 C2303 1.287 . S
C2303 C2302 1.287 . S
C2303 C2304 1.524 . S
C2303 H2306 0.999 . S
C2304 H2274 0.950 . S
C2304 C2303 1.524 . S
C2304 C2305 1.415 . S
C2305 H2275 0.950 . S
C2305 C2300 1.363 . S
C2305 C2304 1.415 . S
H2306 C2303 0.999 . S
H2307 C2288 0.913 . S
H2308 C2326 0.951 . S
H2309 C2328 0.951 . S
H2310 C2330 0.950 . S
H2311 C2331 0.950 . S
H2312 C2333 0.950 . S
H2313 C2336 0.950 . S
H2314 C2337 0.950 . S
H2315 C2339 0.950 . S
H2316 C2340 0.950 . S
H2317 C2341 0.951 . S
H2318 C2343 0.951 . S
H2319 C2345 0.950 . S
H2320 C2346 0.950 . S
H2321 C2348 0.950 . S
H2322 C2351 0.950 . S
H2323 C2352 0.950 . S
H2324 C2354 0.950 . S
H2325 C2355 0.950 . S
C2326 H2308 0.951 . S
C2326 C2327 1.366 . S
C2326 C2328 1.388 . S
C2327 C2326 1.366 . S
C2327 C2331 1.385 . S
C2328 H2309 0.951 . S
C2328 C2326 1.388 . S
C2328 C2329 1.366 . S
C2329 C2328 1.366 . S
C2329 C2330 1.414 . S
C2329 C2332 1.499 . S
C2330 H2310 0.950 . S
C2330 C2329 1.414 . S
C2330 C2331 1.374 . S
C2331 H2311 0.950 . S
C2331 C2327 1.385 . S
C2331 C2330 1.374 . S
C2332 C2329 1.499 . S
C2332 C2333 1.373 . S
C2332 C2334 1.389 . S
C2333 H2312 0.950 . S
C2333 C2332 1.373 . S
C2333 C2349 1.377 . S
C2334 C2332 1.389 . S
C2334 C2335 1.524 . S
C2334 C2348 1.377 . S
C2335 C2334 1.524 . S
C2335 C2336 1.397 . S
C2335 C2340 1.363 . S
C2336 H2313 0.950 . S
C2336 C2335 1.397 . S
C2336 C2337 1.334 . S
C2337 H2314 0.950 . S
C2337 C2336 1.334 . S
C2337 C2338 1.287 . S
C2338 C2337 1.287 . S
C2338 C2339 1.524 . S
C2338 H2357 0.913 . S
C2339 H2315 0.950 . S
C2339 C2338 1.524 . S
C2339 C2340 1.415 . S
C2340 H2316 0.950 . S
C2340 C2335 1.363 . S
C2340 C2339 1.415 . S
C2341 H2317 0.951 . S
C2341 C2342 1.366 . S
C2341 C2343 1.388 . S
C2342 C2341 1.366 . S
C2342 C2346 1.385 . S
C2343 H2318 0.951 . S
C2343 C2341 1.388 . S
C2343 C2344 1.366 . S
C2344 C2343 1.366 . S
C2344 C2345 1.414 . S
C2344 C2347 1.499 . S
C2345 H2319 0.950 . S
C2345 C2344 1.414 . S
C2345 C2346 1.374 . S
C2346 H2320 0.950 . S
C2346 C2342 1.385 . S
C2346 C2345 1.374 . S
C2347 C2344 1.499 . S
C2347 C2348 1.373 . S
C2347 C2349 1.389 . S
C2348 H2321 0.950 . S
C2348 C2334 1.377 . S
C2348 C2347 1.373 . S
C2349 C2333 1.377 . S
C2349 C2347 1.389 . S
C2349 C2350 1.524 . S
C2350 C2349 1.524 . S
C2350 C2351 1.397 . S
C2350 C2355 1.363 . S
C2351 H2322 0.950 . S
C2351 C2350 1.397 . S
C2351 C2352 1.334 . S
C2352 H2323 0.950 . S
C2352 C2351 1.334 . S
C2352 C2353 1.287 . S
C2353 C2352 1.287 . S
C2353 C2354 1.524 . S
C2353 H2356 0.999 . S
C2354 H2324 0.950 . S
C2354 C2353 1.524 . S
C2354 C2355 1.415 . S
C2355 H2325 0.950 . S
C2355 C2350 1.363 . S
C2355 C2354 1.415 . S
H2356 C2353 0.999 . S
H2357 C2338 0.913 . S
H2358 C2376 0.951 . S
H2359 C2378 0.951 . S
H2360 C2380 0.950 . S
H2361 C2381 0.950 . S
H2362 C2383 0.950 . S
H2363 C2386 0.950 . S
H2364 C2387 0.950 . S
H2365 C2389 0.950 . S
H2366 C2390 0.950 . S
H2367 C2391 0.951 . S
H2368 C2393 0.951 . S
H2369 C2395 0.950 . S
H2370 C2396 0.950 . S
H2371 C2398 0.950 . S
H2372 C2401 0.950 . S
H2373 C2402 0.950 . S
H2374 C2404 0.950 . S
H2375 C2405 0.950 . S
C2376 H2358 0.951 . S
C2376 C2377 1.366 . S
C2376 C2378 1.388 . S
C2377 C2376 1.366 . S
C2377 C2381 1.385 . S
C2378 H2359 0.951 . S
C2378 C2376 1.388 . S
C2378 C2379 1.366 . S
C2379 C2378 1.366 . S
C2379 C2380 1.414 . S
C2379 C2382 1.499 . S
C2380 H2360 0.950 . S
C2380 C2379 1.414 . S
C2380 C2381 1.374 . S
C2381 H2361 0.950 . S
C2381 C2377 1.385 . S
C2381 C2380 1.374 . S
C2382 C2379 1.499 . S
C2382 C2383 1.373 . S
C2382 C2384 1.389 . S
C2383 H2362 0.950 . S
C2383 C2382 1.373 . S
C2383 C2399 1.377 . S
C2384 C2382 1.389 . S
C2384 C2385 1.524 . S
C2384 C2398 1.377 . S
C2385 C2384 1.524 . S
C2385 C2386 1.397 . S
C2385 C2390 1.363 . S
C2386 H2363 0.950 . S
C2386 C2385 1.397 . S
C2386 C2387 1.334 . S
C2387 H2364 0.950 . S
C2387 C2386 1.334 . S
C2387 C2388 1.287 . S
C2388 C2387 1.287 . S
C2388 C2389 1.524 . S
C2388 H2407 0.913 . S
C2389 H2365 0.950 . S
C2389 C2388 1.524 . S
C2389 C2390 1.415 . S
C2390 H2366 0.950 . S
C2390 C2385 1.363 . S
C2390 C2389 1.415 . S
C2391 H2367 0.951 . S
C2391 C2392 1.366 . S
C2391 C2393 1.388 . S
C2392 C2391 1.366 . S
C2392 C2396 1.385 . S
C2393 H2368 0.951 . S
C2393 C2391 1.388 . S
C2393 C2394 1.366 . S
C2394 C2393 1.366 . S
C2394 C2395 1.414 . S
C2394 C2397 1.499 . S
C2395 H2369 0.950 . S
C2395 C2394 1.414 . S
C2395 C2396 1.374 . S
C2396 H2370 0.950 . S
C2396 C2392 1.385 . S
C2396 C2395 1.374 . S
C2397 C2394 1.499 . S
C2397 C2398 1.373 . S
C2397 C2399 1.389 . S
C2398 H2371 0.950 . S
C2398 C2384 1.377 . S
C2398 C2397 1.373 . S
C2399 C2383 1.377 . S
C2399 C2397 1.389 . S
C2399 C2400 1.524 . S
C2400 C2399 1.524 . S
C2400 C2401 1.397 . S
C2400 C2405 1.363 . S
C2401 H2372 0.950 . S
C2401 C2400 1.397 . S
C2401 C2402 1.334 . S
C2402 H2373 0.950 . S
C2402 C2401 1.334 . S
C2402 C2403 1.287 . S
C2403 C2402 1.287 . S
C2403 C2404 1.524 . S
C2403 H2406 0.999 . S
C2404 H2374 0.950 . S
C2404 C2403 1.524 . S
C2404 C2405 1.415 . S
C2405 H2375 0.950 . S
C2405 C2400 1.363 . S
C2405 C2404 1.415 . S
H2406 C2403 0.999 . S
H2407 C2388 0.913 . S
H2408 C2426 0.951 . S
H2409 C2428 0.951 . S
H2410 C2430 0.950 . S
H2411 C2431 0.950 . S
H2412 C2433 0.950 . S
H2413 C2436 0.950 . S
H2414 C2437 0.950 . S
H2415 C2439 0.950 . S
H2416 C2440 0.950 . S
H2417 C2441 0.951 . S
H2418 C2443 0.951 . S
H2419 C2445 0.950 . S
H2420 C2446 0.950 . S
H2421 C2448 0.950 . S
H2422 C2451 0.950 . S
H2423 C2452 0.950 . S
H2424 C2454 0.950 . S
H2425 C2455 0.950 . S
C2426 H2408 0.951 . S
C2426 C2427 1.366 . S
C2426 C2428 1.388 . S
C2427 C2426 1.366 . S
C2427 C2431 1.385 . S
C2428 H2409 0.951 . S
C2428 C2426 1.388 . S
C2428 C2429 1.366 . S
C2429 C2428 1.366 . S
C2429 C2430 1.414 . S
C2429 C2432 1.499 . S
C2430 H2410 0.950 . S
C2430 C2429 1.414 . S
C2430 C2431 1.374 . S
C2431 H2411 0.950 . S
C2431 C2427 1.385 . S
C2431 C2430 1.374 . S
C2432 C2429 1.499 . S
C2432 C2433 1.373 . S
C2432 C2434 1.389 . S
C2433 H2412 0.950 . S
C2433 C2432 1.373 . S
C2433 C2449 1.377 . S
C2434 C2432 1.389 . S
C2434 C2435 1.524 . S
C2434 C2448 1.377 . S
C2435 C2434 1.524 . S
C2435 C2436 1.397 . S
C2435 C2440 1.363 . S
C2436 H2413 0.950 . S
C2436 C2435 1.397 . S
C2436 C2437 1.334 . S
C2437 H2414 0.950 . S
C2437 C2436 1.334 . S
C2437 C2438 1.287 . S
C2438 C2437 1.287 . S
C2438 C2439 1.524 . S
C2438 H2457 0.913 . S
C2439 H2415 0.950 . S
C2439 C2438 1.524 . S
C2439 C2440 1.415 . S
C2440 H2416 0.950 . S
C2440 C2435 1.363 . S
C2440 C2439 1.415 . S
C2441 H2417 0.951 . S
C2441 C2442 1.366 . S
C2441 C2443 1.388 . S
C2442 C2441 1.366 . S
C2442 C2446 1.385 . S
C2443 H2418 0.951 . S
C2443 C2441 1.388 . S
C2443 C2444 1.366 . S
C2444 C2443 1.366 . S
C2444 C2445 1.414 . S
C2444 C2447 1.499 . S
C2445 H2419 0.950 . S
C2445 C2444 1.414 . S
C2445 C2446 1.374 . S
C2446 H2420 0.950 . S
C2446 C2442 1.385 . S
C2446 C2445 1.374 . S
C2447 C2444 1.499 . S
C2447 C2448 1.373 . S
C2447 C2449 1.389 . S
C2448 H2421 0.950 . S
C2448 C2434 1.377 . S
C2448 C2447 1.373 . S
C2449 C2433 1.377 . S
C2449 C2447 1.389 . S
C2449 C2450 1.524 . S
C2450 C2449 1.524 . S
C2450 C2451 1.397 . S
C2450 C2455 1.363 . S
C2451 H2422 0.950 . S
C2451 C2450 1.397 . S
C2451 C2452 1.334 . S
C2452 H2423 0.950 . S
C2452 C2451 1.334 . S
C2452 C2453 1.287 . S
C2453 C2452 1.287 . S
C2453 C2454 1.524 . S
C2453 H2456 0.999 . S
C2454 H2424 0.950 . S
C2454 C2453 1.524 . S
C2454 C2455 1.415 . S
C2455 H2425 0.950 . S
C2455 C2450 1.363 . S
C2455 C2454 1.415 . S
H2456 C2453 0.999 . S
H2457 C2438 0.913 . S
H2458 C2476 0.951 . S
H2459 C2478 0.951 . S
H2460 C2480 0.950 . S
H2461 C2481 0.950 . S
H2462 C2483 0.950 . S
H2463 C2486 0.950 . S
H2464 C2487 0.950 . S
H2465 C2489 0.950 . S
H2466 C2490 0.950 . S
H2467 C2491 0.951 . S
H2468 C2493 0.951 . S
H2469 C2495 0.950 . S
H2470 C2496 0.950 . S
H2471 C2498 0.950 . S
H2472 C2501 0.950 . S
H2473 C2502 0.950 . S
H2474 C2504 0.950 . S
H2475 C2505 0.950 . S
C2476 H2458 0.951 . S
C2476 C2477 1.366 . S
C2476 C2478 1.388 . S
C2477 C2476 1.366 . S
C2477 C2481 1.385 . S
C2478 H2459 0.951 . S
C2478 C2476 1.388 . S
C2478 C2479 1.366 . S
C2479 C2478 1.366 . S
C2479 C2480 1.414 . S
C2479 C2482 1.499 . S
C2480 H2460 0.950 . S
C2480 C2479 1.414 . S
C2480 C2481 1.374 . S
C2481 H2461 0.950 . S
C2481 C2477 1.385 . S
C2481 C2480 1.374 . S
C2482 C2479 1.499 . S
C2482 C2483 1.373 . S
C2482 C2484 1.389 . S
C2483 H2462 0.950 . S
C2483 C2482 1.373 . S
C2483 C2499 1.377 . S
C2484 C2482 1.389 . S
C2484 C2485 1.524 . S
C2484 C2498 1.377 . S
C2485 C2484 1.524 . S
C2485 C2486 1.397 . S
C2485 C2490 1.363 . S
C2486 H2463 0.950 . S
C2486 C2485 1.397 . S
C2486 C2487 1.334 . S
C2487 H2464 0.950 . S
C2487 C2486 1.334 . S
C2487 C2488 1.287 . S
C2488 C2487 1.287 . S
C2488 C2489 1.524 . S
C2488 H2507 0.913 . S
C2489 H2465 0.950 . S
C2489 C2488 1.524 . S
C2489 C2490 1.415 . S
C2490 H2466 0.950 . S
C2490 C2485 1.363 . S
C2490 C2489 1.415 . S
C2491 H2467 0.951 . S
C2491 C2492 1.366 . S
C2491 C2493 1.388 . S
C2492 C2491 1.366 . S
C2492 C2496 1.385 . S
C2493 H2468 0.951 . S
C2493 C2491 1.388 . S
C2493 C2494 1.366 . S
C2494 C2493 1.366 . S
C2494 C2495 1.414 . S
C2494 C2497 1.499 . S
C2495 H2469 0.950 . S
C2495 C2494 1.414 . S
C2495 C2496 1.374 . S
C2496 H2470 0.950 . S
C2496 C2492 1.385 . S
C2496 C2495 1.374 . S
C2497 C2494 1.499 . S
C2497 C2498 1.373 . S
C2497 C2499 1.389 . S
C2498 H2471 0.950 . S
C2498 C2484 1.377 . S
C2498 C2497 1.373 . S
C2499 C2483 1.377 . S
C2499 C2497 1.389 . S
C2499 C2500 1.524 . S
C2500 C2499 1.524 . S
C2500 C2501 1.397 . S
C2500 C2505 1.363 . S
C2501 H2472 0.950 . S
C2501 C2500 1.397 . S
C2501 C2502 1.334 . S
C2502 H2473 0.950 . S
C2502 C2501 1.334 . S
C2502 C2503 1.287 . S
C2503 C2502 1.287 . S
C2503 C2504 1.524 . S
C2503 H2506 0.999 . S
C2504 H2474 0.950 . S
C2504 C2503 1.524 . S
C2504 C2505 1.415 . S
C2505 H2475 0.950 . S
C2505 C2500 1.363 . S
C2505 C2504 1.415 . S
H2506 C2503 0.999 . S
H2507 C2488 0.913 . S
H2508 C2526 0.951 . S
H2509 C2528 0.951 . S
H2510 C2530 0.950 . S
H2511 C2531 0.950 . S
H2512 C2533 0.950 . S
H2513 C2536 0.950 . S
H2514 C2537 0.950 . S
H2515 C2539 0.950 . S
H2516 C2540 0.950 1_554 S
H2517 C2541 0.951 . S
H2518 C2543 0.951 . S
H2519 C2545 0.950 . S
H2520 C2546 0.950 . S
H2521 C2548 0.950 . S
H2522 C2551 0.950 . S
H2523 C2552 0.950 . S
H2524 C2554 0.950 . S
H2525 C2555 0.950 1_556 S
C2526 H2508 0.951 . S
C2526 C2527 1.366 . S
C2526 C2528 1.388 . S
C2527 C2526 1.366 . S
C2527 C2531 1.385 . S
C2528 H2509 0.951 . S
C2528 C2526 1.388 . S
C2528 C2529 1.366 . S
C2529 C2528 1.366 . S
C2529 C2530 1.414 . S
C2529 C2532 1.499 . S
C2530 H2510 0.950 . S
C2530 C2529 1.414 . S
C2530 C2531 1.374 . S
C2531 H2511 0.950 . S
C2531 C2527 1.385 . S
C2531 C2530 1.374 . S
C2532 C2529 1.499 . S
C2532 C2533 1.373 . S
C2532 C2534 1.389 . S
C2533 H2512 0.950 . S
C2533 C2532 1.373 . S
C2533 C2549 1.377 1_556 S
C2534 C2532 1.389 . S
C2534 C2535 1.524 . S
C2534 C2548 1.377 1_556 S
C2535 C2534 1.524 . S
C2535 C2536 1.397 . S
C2535 C2540 1.363 . S
C2536 H2513 0.950 . S
C2536 C2535 1.397 . S
C2536 C2537 1.334 . S
C2537 H2514 0.950 . S
C2537 C2536 1.334 . S
C2537 C2538 1.287 . S
C2538 C2537 1.287 . S
C2538 C2539 1.524 . S
C2538 H2557 0.913 . S
C2539 H2515 0.950 . S
C2539 C2538 1.524 . S
C2539 C2540 1.415 . S
C2540 H2516 0.950 1_556 S
C2540 C2535 1.363 . S
C2540 C2539 1.415 . S
C2541 H2517 0.951 . S
C2541 C2542 1.366 . S
C2541 C2543 1.388 . S
C2542 C2541 1.366 . S
C2542 C2546 1.385 . S
C2543 H2518 0.951 . S
C2543 C2541 1.388 . S
C2543 C2544 1.366 . S
C2544 C2543 1.366 . S
C2544 C2545 1.414 . S
C2544 C2547 1.499 . S
C2545 H2519 0.950 . S
C2545 C2544 1.414 . S
C2545 C2546 1.374 . S
C2546 H2520 0.950 . S
C2546 C2542 1.385 . S
C2546 C2545 1.374 . S
C2547 C2544 1.499 . S
C2547 C2548 1.373 . S
C2547 C2549 1.389 . S
C2548 H2521 0.950 . S
C2548 C2534 1.377 1_554 S
C2548 C2547 1.373 . S
C2549 C2533 1.377 1_554 S
C2549 C2547 1.389 . S
C2549 C2550 1.524 . S
C2550 C2549 1.524 . S
C2550 C2551 1.397 . S
C2550 C2555 1.363 . S
C2551 H2522 0.950 . S
C2551 C2550 1.397 . S
C2551 C2552 1.334 . S
C2552 H2523 0.950 . S
C2552 C2551 1.334 . S
C2552 C2553 1.287 . S
C2553 C2552 1.287 . S
C2553 C2554 1.524 . S
C2553 H2556 0.999 . S
C2554 H2524 0.950 . S
C2554 C2553 1.524 . S
C2554 C2555 1.415 . S
C2555 H2525 0.950 1_554 S
C2555 C2550 1.363 . S
C2555 C2554 1.415 . S
H2556 C2553 0.999 . S
H2557 C2538 0.913 . S
H2558 C2576 0.951 . S
H2559 C2578 0.951 . S
H2560 C2580 0.950 . S
H2561 C2581 0.950 . S
H2562 C2583 0.950 . S
H2563 C2586 0.950 . S
H2564 C2587 0.950 . S
H2565 C2589 0.950 . S
H2566 C2590 0.950 . S
H2567 C2591 0.951 . S
H2568 C2593 0.951 . S
H2569 C2595 0.950 . S
H2570 C2596 0.950 . S
H2571 C2598 0.950 . S
H2572 C2601 0.950 . S
H2573 C2602 0.950 . S
H2574 C2604 0.950 . S
H2575 C2605 0.950 . S
C2576 H2558 0.951 . S
C2576 C2577 1.366 . S
C2576 C2578 1.388 . S
C2577 C2576 1.366 . S
C2577 C2581 1.385 . S
C2578 H2559 0.951 . S
C2578 C2576 1.388 . S
C2578 C2579 1.366 . S
C2579 C2578 1.366 . S
C2579 C2580 1.414 . S
C2579 C2582 1.499 . S
C2580 H2560 0.950 . S
C2580 C2579 1.414 . S
C2580 C2581 1.374 . S
C2581 H2561 0.950 . S
C2581 C2577 1.385 . S
C2581 C2580 1.374 . S
C2582 C2579 1.499 . S
C2582 C2583 1.373 1_455 S
C2582 C2584 1.389 . S
C2583 H2562 0.950 . S
C2583 C2582 1.373 1_655 S
C2583 C2599 1.377 . S
C2584 C2582 1.389 . S
C2584 C2585 1.524 . S
C2584 C2598 1.377 . S
C2585 C2584 1.524 . S
C2585 C2586 1.397 . S
C2585 C2590 1.363 . S
C2586 H2563 0.950 . S
C2586 C2585 1.397 . S
C2586 C2587 1.334 . S
C2587 H2564 0.950 . S
C2587 C2586 1.334 . S
C2587 C2588 1.287 . S
C2588 C2587 1.287 . S
C2588 C2589 1.524 . S
C2588 H2607 0.913 . S
C2589 H2565 0.950 . S
C2589 C2588 1.524 . S
C2589 C2590 1.415 . S
C2590 H2566 0.950 . S
C2590 C2585 1.363 . S
C2590 C2589 1.415 . S
C2591 H2567 0.951 . S
C2591 C2592 1.366 . S
C2591 C2593 1.388 . S
C2592 C2591 1.366 . S
C2592 C2596 1.385 . S
C2593 H2568 0.951 . S
C2593 C2591 1.388 . S
C2593 C2594 1.366 . S
C2594 C2593 1.366 . S
C2594 C2595 1.414 . S
C2594 C2597 1.499 . S
C2595 H2569 0.950 . S
C2595 C2594 1.414 . S
C2595 C2596 1.374 . S
C2596 H2570 0.950 . S
C2596 C2592 1.385 . S
C2596 C2595 1.374 . S
C2597 C2594 1.499 . S
C2597 C2598 1.373 1_655 S
C2597 C2599 1.389 . S
C2598 H2571 0.950 . S
C2598 C2584 1.377 . S
C2598 C2597 1.373 1_455 S
C2599 C2583 1.377 . S
C2599 C2597 1.389 . S
C2599 C2600 1.524 . S
C2600 C2599 1.524 . S
C2600 C2601 1.397 . S
C2600 C2605 1.363 . S
C2601 H2572 0.950 . S
C2601 C2600 1.397 . S
C2601 C2602 1.334 . S
C2602 H2573 0.950 . S
C2602 C2601 1.334 . S
C2602 C2603 1.287 . S
C2603 C2602 1.287 . S
C2603 C2604 1.524 . S
C2603 H2606 0.999 . S
C2604 H2574 0.950 . S
C2604 C2603 1.524 . S
C2604 C2605 1.415 . S
C2605 H2575 0.950 . S
C2605 C2600 1.363 . S
C2605 C2604 1.415 . S
H2606 C2603 0.999 . S
H2607 C2588 0.913 . S
H2608 C2626 0.951 . S
H2609 C2628 0.951 . S
H2610 C2630 0.950 . S
H2611 C2631 0.950 . S
H2612 C2633 0.950 . S
H2613 C2636 0.950 . S
H2614 C2637 0.950 . S
H2615 C2639 0.950 . S
H2616 C2640 0.950 1_556 S
H2617 C2641 0.951 . S
H2618 C2643 0.951 . S
H2619 C2645 0.950 . S
H2620 C2646 0.950 . S
H2621 C2648 0.950 . S
H2622 C2651 0.950 . S
H2623 C2652 0.950 . S
H2624 C2654 0.950 . S
H2625 C2655 0.950 1_554 S
C2626 H2608 0.951 . S
C2626 C2627 1.366 . S
C2626 C2628 1.388 . S
C2627 C2626 1.366 . S
C2627 C2631 1.385 . S
C2628 H2609 0.951 . S
C2628 C2626 1.388 . S
C2628 C2629 1.366 . S
C2629 C2628 1.366 . S
C2629 C2630 1.414 . S
C2629 C2632 1.499 . S
C2630 H2610 0.950 . S
C2630 C2629 1.414 . S
C2630 C2631 1.374 . S
C2631 H2611 0.950 . S
C2631 C2627 1.385 . S
C2631 C2630 1.374 . S
C2632 C2629 1.499 . S
C2632 C2633 1.373 . S
C2632 C2634 1.389 . S
C2633 H2612 0.950 . S
C2633 C2632 1.373 . S
C2633 C2649 1.377 1_564 S
C2634 C2632 1.389 . S
C2634 C2635 1.524 . S
C2634 C2648 1.377 1_564 S
C2635 C2634 1.524 . S
C2635 C2636 1.397 . S
C2635 C2640 1.363 . S
C2636 H2613 0.950 . S
C2636 C2635 1.397 . S
C2636 C2637 1.334 . S
C2637 H2614 0.950 . S
C2637 C2636 1.334 . S
C2637 C2638 1.287 . S
C2638 C2637 1.287 . S
C2638 C2639 1.524 . S
C2638 H2657 0.913 . S
C2639 H2615 0.950 . S
C2639 C2638 1.524 . S
C2639 C2640 1.415 . S
C2640 H2616 0.950 1_554 S
C2640 C2635 1.363 . S
C2640 C2639 1.415 . S
C2641 H2617 0.951 . S
C2641 C2642 1.366 . S
C2641 C2643 1.388 . S
C2642 C2641 1.366 . S
C2642 C2646 1.385 . S
C2643 H2618 0.951 . S
C2643 C2641 1.388 . S
C2643 C2644 1.366 . S
C2644 C2643 1.366 . S
C2644 C2645 1.414 . S
C2644 C2647 1.499 . S
C2645 H2619 0.950 . S
C2645 C2644 1.414 . S
C2645 C2646 1.374 . S
C2646 H2620 0.950 . S
C2646 C2642 1.385 . S
C2646 C2645 1.374 . S
C2647 C2644 1.499 . S
C2647 C2648 1.373 . S
C2647 C2649 1.389 . S
C2648 H2621 0.950 . S
C2648 C2634 1.377 1_546 S
C2648 C2647 1.373 . S
C2649 C2633 1.377 1_546 S
C2649 C2647 1.389 . S
C2649 C2650 1.524 . S
C2650 C2649 1.524 . S
C2650 C2651 1.397 . S
C2650 C2655 1.363 . S
C2651 H2622 0.950 . S
C2651 C2650 1.397 . S
C2651 C2652 1.334 . S
C2652 H2623 0.950 . S
C2652 C2651 1.334 . S
C2652 C2653 1.287 . S
C2653 C2652 1.287 . S
C2653 C2654 1.524 . S
C2653 H2656 0.999 . S
C2654 H2624 0.950 . S
C2654 C2653 1.524 . S
C2654 C2655 1.415 . S
C2655 H2625 0.950 1_556 S
C2655 C2650 1.363 . S
C2655 C2654 1.415 . S
H2656 C2653 0.999 . S
H2657 C2638 0.913 . S
H2658 C2676 0.951 . S
H2659 C2678 0.951 . S
H2660 C2680 0.950 . S
H2661 C2681 0.950 . S
H2662 C2683 0.950 . S
H2663 C2686 0.950 . S
H2664 C2687 0.950 . S
H2665 C2689 0.950 . S
H2666 C2690 0.950 . S
H2667 C2691 0.951 . S
H2668 C2693 0.951 . S
H2669 C2695 0.950 . S
H2670 C2696 0.950 . S
H2671 C2698 0.950 . S
H2672 C2701 0.950 . S
H2673 C2702 0.950 . S
H2674 C2704 0.950 . S
H2675 C2705 0.950 . S
C2676 H2658 0.951 . S
C2676 C2677 1.366 . S
C2676 C2678 1.388 . S
C2677 C2676 1.366 . S
C2677 C2681 1.385 . S
C2678 H2659 0.951 . S
C2678 C2676 1.388 . S
C2678 C2679 1.366 . S
C2679 C2678 1.366 . S
C2679 C2680 1.414 . S
C2679 C2682 1.499 . S
C2680 H2660 0.950 . S
C2680 C2679 1.414 . S
C2680 C2681 1.374 . S
C2681 H2661 0.950 . S
C2681 C2677 1.385 . S
C2681 C2680 1.374 . S
C2682 C2679 1.499 . S
C2682 C2683 1.373 . S
C2682 C2684 1.389 . S
C2683 H2662 0.950 . S
C2683 C2682 1.373 . S
C2683 C2699 1.377 . S
C2684 C2682 1.389 . S
C2684 C2685 1.524 . S
C2684 C2698 1.377 . S
C2685 C2684 1.524 . S
C2685 C2686 1.397 . S
C2685 C2690 1.363 . S
C2686 H2663 0.950 . S
C2686 C2685 1.397 . S
C2686 C2687 1.334 . S
C2687 H2664 0.950 . S
C2687 C2686 1.334 . S
C2687 C2688 1.287 . S
C2688 C2687 1.287 . S
C2688 C2689 1.524 . S
C2688 H2707 0.913 . S
C2689 H2665 0.950 . S
C2689 C2688 1.524 . S
C2689 C2690 1.415 . S
C2690 H2666 0.950 . S
C2690 C2685 1.363 . S
C2690 C2689 1.415 . S
C2691 H2667 0.951 . S
C2691 C2692 1.366 . S
C2691 C2693 1.388 . S
C2692 C2691 1.366 . S
C2692 C2696 1.385 . S
C2693 H2668 0.951 . S
C2693 C2691 1.388 . S
C2693 C2694 1.366 . S
C2694 C2693 1.366 . S
C2694 C2695 1.414 . S
C2694 C2697 1.499 . S
C2695 H2669 0.950 . S
C2695 C2694 1.414 . S
C2695 C2696 1.374 . S
C2696 H2670 0.950 . S
C2696 C2692 1.385 . S
C2696 C2695 1.374 . S
C2697 C2694 1.499 . S
C2697 C2698 1.373 . S
C2697 C2699 1.389 . S
C2698 H2671 0.950 . S
C2698 C2684 1.377 . S
C2698 C2697 1.373 . S
C2699 C2683 1.377 . S
C2699 C2697 1.389 . S
C2699 C2700 1.524 . S
C2700 C2699 1.524 . S
C2700 C2701 1.397 . S
C2700 C2705 1.363 . S
C2701 H2672 0.950 . S
C2701 C2700 1.397 . S
C2701 C2702 1.334 . S
C2702 H2673 0.950 . S
C2702 C2701 1.334 . S
C2702 C2703 1.287 . S
C2703 C2702 1.287 . S
C2703 C2704 1.524 . S
C2703 H2706 0.999 . S
C2704 H2674 0.950 . S
C2704 C2703 1.524 . S
C2704 C2705 1.415 . S
C2705 H2675 0.950 . S
C2705 C2700 1.363 . S
C2705 C2704 1.415 . S
H2706 C2703 0.999 . S
H2707 C2688 0.913 . S
H2708 C2726 0.951 . S
H2709 C2728 0.951 . S
H2710 C2730 0.950 . S
H2711 C2731 0.950 . S
H2712 C2733 0.950 . S
H2713 C2736 0.947 1_554 S
H2714 C2737 0.948 1_554 S
H2715 C2739 0.950 . S
H2716 C2740 0.950 . S
H2717 C2741 0.951 . S
H2718 C2743 0.951 . S
H2719 C2745 0.950 . S
H2720 C2746 0.950 . S
H2721 C2748 0.950 . S
H2722 C2751 0.947 1_556 S
H2723 C2752 0.948 1_556 S
H2724 C2754 0.950 . S
H2725 C2755 0.950 . S
C2726 H2708 0.951 . S
C2726 C2727 1.366 . S
C2726 C2728 1.388 . S
C2727 C2726 1.366 . S
C2727 C2731 1.385 . S
C2728 H2709 0.951 . S
C2728 C2726 1.388 . S
C2728 C2729 1.366 . S
C2729 C2728 1.366 . S
C2729 C2730 1.414 . S
C2729 C2732 1.499 . S
C2730 H2710 0.950 . S
C2730 C2729 1.414 . S
C2730 C2731 1.374 . S
C2731 H2711 0.950 . S
C2731 C2727 1.385 . S
C2731 C2730 1.374 . S
C2732 C2729 1.499 . S
C2732 C2733 1.373 . S
C2732 C2734 1.389 . S
C2733 H2712 0.950 . S
C2733 C2732 1.373 . S
C2733 C2749 1.377 1_656 S
C2734 C2732 1.389 . S
C2734 C2735 1.524 . S
C2734 C2748 1.377 1_656 S
C2735 C2734 1.524 . S
C2735 C2736 1.400 . S
C2735 C2740 1.363 . S
C2736 H2713 0.947 1_556 S
C2736 C2735 1.400 . S
C2736 C2737 1.334 . S
C2737 H2714 0.948 1_556 S
C2737 C2736 1.334 . S
C2737 C2738 1.287 . S
C2738 C2737 1.287 . S
C2738 C2739 1.524 . S
C2738 H2757 0.913 . S
C2739 H2715 0.950 . S
C2739 C2738 1.524 . S
C2739 C2740 1.415 . S
C2740 H2716 0.950 . S
C2740 C2735 1.363 . S
C2740 C2739 1.415 . S
C2741 H2717 0.951 . S
C2741 C2742 1.366 . S
C2741 C2743 1.388 . S
C2742 C2741 1.366 . S
C2742 C2746 1.385 . S
C2743 H2718 0.951 . S
C2743 C2741 1.388 . S
C2743 C2744 1.366 . S
C2744 C2743 1.366 . S
C2744 C2745 1.414 . S
C2744 C2747 1.499 . S
C2745 H2719 0.950 . S
C2745 C2744 1.414 . S
C2745 C2746 1.374 . S
C2746 H2720 0.950 . S
C2746 C2742 1.385 . S
C2746 C2745 1.374 . S
C2747 C2744 1.499 . S
C2747 C2748 1.373 . S
C2747 C2749 1.389 . S
C2748 H2721 0.950 . S
C2748 C2734 1.377 1_454 S
C2748 C2747 1.373 . S
C2749 C2733 1.377 1_454 S
C2749 C2747 1.389 . S
C2749 C2750 1.524 . S
C2750 C2749 1.524 . S
C2750 C2751 1.400 . S
C2750 C2755 1.363 . S
C2751 H2722 0.947 1_554 S
C2751 C2750 1.400 . S
C2751 C2752 1.334 . S
C2752 H2723 0.948 1_554 S
C2752 C2751 1.334 . S
C2752 C2753 1.287 . S
C2753 C2752 1.287 . S
C2753 C2754 1.524 . S
C2753 H2756 0.999 . S
C2754 H2724 0.950 . S
C2754 C2753 1.524 . S
C2754 C2755 1.415 . S
C2755 H2725 0.950 . S
C2755 C2750 1.363 . S
C2755 C2754 1.415 . S
H2756 C2753 0.999 . S
H2757 C2738 0.913 . S
H2758 C2776 0.951 . S
H2759 C2778 0.951 . S
H2760 C2780 0.950 . S
H2761 C2781 0.950 . S
H2762 C2783 0.950 . S
H2763 C2786 0.950 . S
H2764 C2787 0.950 . S
H2765 C2789 0.950 . S
H2766 C2790 0.950 . S
H2767 C2791 0.951 . S
H2768 C2793 0.951 . S
H2769 C2795 0.950 . S
H2770 C2796 0.950 . S
H2771 C2798 0.950 . S
H2772 C2801 0.950 . S
H2773 C2802 0.950 . S
H2774 C2804 0.950 . S
H2775 C2805 0.950 . S
C2776 H2758 0.951 . S
C2776 C2777 1.366 . S
C2776 C2778 1.388 . S
C2777 C2776 1.366 . S
C2777 C2781 1.385 . S
C2778 H2759 0.951 . S
C2778 C2776 1.388 . S
C2778 C2779 1.366 . S
C2779 C2778 1.366 . S
C2779 C2780 1.414 . S
C2779 C2782 1.499 . S
C2780 H2760 0.950 . S
C2780 C2779 1.414 . S
C2780 C2781 1.374 . S
C2781 H2761 0.950 . S
C2781 C2777 1.385 . S
C2781 C2780 1.374 . S
C2782 C2779 1.499 . S
C2782 C2783 1.373 . S
C2782 C2784 1.389 1_565 S
C2783 H2762 0.950 . S
C2783 C2782 1.373 . S
C2783 C2799 1.377 . S
C2784 C2782 1.389 1_545 S
C2784 C2785 1.524 . S
C2784 C2798 1.377 . S
C2785 C2784 1.524 . S
C2785 C2786 1.397 . S
C2785 C2790 1.363 . S
C2786 H2763 0.950 . S
C2786 C2785 1.397 . S
C2786 C2787 1.334 . S
C2787 H2764 0.950 . S
C2787 C2786 1.334 . S
C2787 C2788 1.287 . S
C2788 C2787 1.287 . S
C2788 C2789 1.524 . S
C2788 H2807 0.913 . S
C2789 H2765 0.950 . S
C2789 C2788 1.524 . S
C2789 C2790 1.415 . S
C2790 H2766 0.950 . S
C2790 C2785 1.363 . S
C2790 C2789 1.415 . S
C2791 H2767 0.951 . S
C2791 C2792 1.366 . S
C2791 C2793 1.388 . S
C2792 C2791 1.366 . S
C2792 C2796 1.385 . S
C2793 H2768 0.951 . S
C2793 C2791 1.388 . S
C2793 C2794 1.366 . S
C2794 C2793 1.366 . S
C2794 C2795 1.414 . S
C2794 C2797 1.499 . S
C2795 H2769 0.950 . S
C2795 C2794 1.414 . S
C2795 C2796 1.374 . S
C2796 H2770 0.950 . S
C2796 C2792 1.385 . S
C2796 C2795 1.374 . S
C2797 C2794 1.499 . S
C2797 C2798 1.373 . S
C2797 C2799 1.389 1_545 S
C2798 H2771 0.950 . S
C2798 C2784 1.377 . S
C2798 C2797 1.373 . S
C2799 C2783 1.377 . S
C2799 C2797 1.389 1_565 S
C2799 C2800 1.524 . S
C2800 C2799 1.524 . S
C2800 C2801 1.397 . S
C2800 C2805 1.363 . S
C2801 H2772 0.950 . S
C2801 C2800 1.397 . S
C2801 C2802 1.334 . S
C2802 H2773 0.950 . S
C2802 C2801 1.334 . S
C2802 C2803 1.287 . S
C2803 C2802 1.287 . S
C2803 C2804 1.524 . S
C2803 H2806 0.999 . S
C2804 H2774 0.950 . S
C2804 C2803 1.524 . S
C2804 C2805 1.415 . S
C2805 H2775 0.950 . S
C2805 C2800 1.363 . S
C2805 C2804 1.415 . S
H2806 C2803 0.999 . S
H2807 C2788 0.913 . S
C1027 C403 1.331 . S
C1042 C58 1.178 . S
C1077 C487 1.331 . S
C1092 C142 1.180 . S
C1127 C226 1.181 . S
C1142 C67 1.331 . S
C1177 C310 1.178 . S
C1192 C151 1.331 . S
C1227 C394 1.180 . S
C1242 C235 1.331 . S
C1277 C319 1.331 . S
C1292 C478 1.180 . S
C1327 C739 1.331 . S
C1342 C562 1.181 . S
C1377 C646 1.178 . S
C1392 C823 1.331 . S
C1427 C907 1.331 . S
C1442 C730 1.181 . S
C1477 C814 1.181 . S
C1492 C991 1.331 . S
C1527 C898 1.181 . S
C1542 C571 1.331 . S
C1577 C655 1.331 . S
C1592 C982 1.178 . S
C1627 C392 1.420 . S
C1642 C69 1.270 . S
C1677 C153 1.270 . S
C1692 C476 1.420 . S
C1727 C237 1.268 . S
C1742 C56 1.420 . S
C1777 C321 1.270 . S
C1792 C140 1.420 . S
C1827 C224 1.419 . S
C1842 C405 1.269 . S
C1877 C308 1.420 . S
C1892 C489 1.268 . S
C1927 C728 1.420 . S
C1942 C573 1.269 . S
C1977 C657 1.268 . S
C1992 C812 1.420 . S
C2027 C741 1.270 . S
C2042 C896 1.420 . S
C2077 C980 1.420 . S
C2092 C825 1.269 . S
C2127 C909 1.268 . S
C2142 C560 1.420 . S
C2177 C644 1.420 . S
C2192 C993 1.270 . S
C2227 C914 1.832 . S
C2242 C74 1.833 . S
C2277 C158 1.833 . S
C2292 C998 1.832 . S
C2327 C242 1.832 . S
C2342 C578 1.833 . S
C2377 C326 1.833 . S
C2392 C662 1.833 . S
C2427 C410 1.833 . S
C2442 C746 1.832 . S
C2477 C830 1.833 . S
C2492 C494 1.833 . S
C2527 C819 1.928 . S
C2542 C63 1.928 . S
C2577 C903 1.928 . S
C2592 C147 1.928 . S
C2627 C231 1.928 . S
C2642 C987 1.928 . S
C2677 C315 1.928 . S
C2692 C567 1.927 . S
C2727 C651 1.928 . S
C2742 C399 1.927 . S
C2777 C735 1.928 . S
C2792 C483 1.928 . S
