# Generated by pormake.
# Topology qtz-e, (6)-cn, num edge types: 1
# Building blocks:
#     Node 0, Type 0, BuildingBlock: KUMBOL_clean_sbu_1, # of connection points: 6
#     Node 1, Type 0, BuildingBlock: KUMBOL_clean_sbu_1, # of connection points: 6
#     Node 2, Type 0, BuildingBlock: KUMBOL_clean_sbu_1, # of connection points: 6
#     Node 3, Type 0, BuildingBlock: KUMBOL_clean_sbu_1, # of connection points: 6
#     Node 4, Type 0, BuildingBlock: KUMBOL_clean_sbu_1, # of connection points: 6
#     Node 5, Type 0, BuildingBlock: KUMBOL_clean_sbu_1, # of connection points: 6
#     Edge 6, Type (0, 0), BuildingBlock: KIFKEQ_clean_linker_1, # of connection points: 2
#     Edge 7, Type (0, 0), BuildingBlock: KIFKEQ_clean_linker_1, # of connection points: 2
#     Edge 8, Type (0, 0), BuildingBlock: KIFKEQ_clean_linker_1, # of connection points: 2
#     Edge 9, Type (0, 0), BuildingBlock: KIFKEQ_clean_linker_1, # of connection points: 2
#     Edge 10, Type (0, 0), BuildingBlock: KIFKEQ_clean_linker_1, # of connection points: 2
#     Edge 11, Type (0, 0), BuildingBlock: KIFKEQ_clean_linker_1, # of connection points: 2
#     Edge 12, Type (0, 0), BuildingBlock: KIFKEQ_clean_linker_1, # of connection points: 2
#     Edge 13, Type (0, 0), BuildingBlock: KIFKEQ_clean_linker_1, # of connection points: 2
#     Edge 14, Type (0, 0), BuildingBlock: KIFKEQ_clean_linker_1, # of connection points: 2
#     Edge 15, Type (0, 0), BuildingBlock: KIFKEQ_clean_linker_1, # of connection points: 2
#     Edge 16, Type (0, 0), BuildingBlock: KIFKEQ_clean_linker_1, # of connection points: 2
#     Edge 17, Type (0, 0), BuildingBlock: KIFKEQ_clean_linker_1, # of connection points: 2
#     Edge 18, Type (0, 0), BuildingBlock: KIFKEQ_clean_linker_1, # of connection points: 2
#     Edge 19, Type (0, 0), BuildingBlock: KIFKEQ_clean_linker_1, # of connection points: 2
#     Edge 20, Type (0, 0), BuildingBlock: KIFKEQ_clean_linker_1, # of connection points: 2
#     Edge 21, Type (0, 0), BuildingBlock: KIFKEQ_clean_linker_1, # of connection points: 2
#     Edge 22, Type (0, 0), BuildingBlock: KIFKEQ_clean_linker_1, # of connection points: 2
#     Edge 23, Type (0, 0), BuildingBlock: KIFKEQ_clean_linker_1, # of connection points: 2
# Relax obj value: 0.147
# Max RMSD: 0.210
# Mean RMSD: 0.210
data_MOF--net-qtz-e--node1-KUMBOL_clean_sbu_1--edge1-KIFKEQ_clean_linker_1
_symmetry_space_group_name_H-M    P1
_symmetry_Int_Tables_number       1
_symmetry_cell_setting            triclinic
loop_
_symmetry_equiv_pos_as_xyz
'x, y, z'
_cell_length_a     28.496507
_cell_length_b     28.464873
_cell_length_c     49.434663
_cell_angle_alpha  89.824998
_cell_angle_beta   90.221439
_cell_angle_gamma 119.98743
loop_
_atom_site_label
_atom_site_type_symbol
_atom_site_fract_x
_atom_site_fract_y
_atom_site_fract_z
_atom_type_partial_charge
C0 C 0.37985 0.59634 0.03462 0.0
C1 C 0.38115 0.67034 0.00943 0.0
C2 C 0.35251 0.61826 0.02109 0.0
C3 C 0.43804 0.69902 0.01044 0.0
C4 C 0.43672 0.62643 0.03715 0.0
C5 C 0.46578 0.67711 0.02428 0.0
N6 N 0.35051 0.54761 0.04714 0.0
C7 C 0.37471 0.52946 0.06484 0.0
C8 C 0.46237 0.60583 0.05359 0.0
C9 C 0.43107 0.55789 0.06808 0.0
Gd10 Gd 0.17927 0.35254 0.98993 0.0
Gd11 Gd 0.25675 0.50262 0.03967 0.0
N12 N 0.29752 0.58959 0.02054 0.0
C13 C 0.35161 0.69265 -0.00208 0.0
C14 C 0.26843 0.61258 0.01121 0.0
C15 C 0.295 0.664 -0.00077 0.0
H16 H 0.22476 0.59048 0.0125 0.0
H17 H 0.27188 0.68158 0.99112 0.0
H18 H 0.27145 0.31677 0.01143 0.0
H19 H 0.35047 0.49279 0.07636 0.0
H20 H 0.27185 0.2447 0.03824 0.0
H21 H 0.3721 0.73259 0.98875 0.0
H22 H 0.46086 0.73888 0.00134 0.0
H23 H 0.05047 0.31342 0.97905 0.0
H24 H 0.50599 0.62771 0.05613 0.0
H25 H 0.45033 0.54278 0.08171 0.0
H26 H 0.08414 0.11928 0.05515 0.0
H27 H 0.50956 0.70052 0.02571 0.0
H28 H 0.95269 0.15934 0.01741 0.0
H29 H 0.96004 0.23634 0.9906 0.0
N30 N 0.09307 0.28008 -0.00076 0.0
C31 C 0.09011 0.2381 0.01361 0.0
C32 C 0.04738 0.27991 0.9908 0.0
C33 C 0.99232 0.19297 0.01237 0.0
C34 C 0.99628 0.23638 0.99725 0.0
C35 C 0.03957 0.1934 0.02073 0.0
H36 H 0.9994 0.11614 0.04166 0.0
N37 N 0.18585 0.28399 0.01382 0.0
C38 C 0.13793 0.2403 0.02134 0.0
C39 C 0.1852 0.19949 0.04282 0.0
C40 C 0.13632 0.19713 0.03621 0.0
C41 C 0.23345 0.28493 0.01904 0.0
C42 C 0.2339 0.24328 0.03392 0.0
O43 O 0.27427 0.52491 0.99531 0.0
O44 O 0.23034 0.43871 0.99544 0.0
O45 O 0.20978 0.32571 0.9569 0.0
O46 O 0.14653 0.34484 0.94925 0.0
O47 O 0.17796 0.48209 0.01773 0.0
O48 O 0.13816 0.4043 0.98848 0.0
O49 O 0.13744 0.34807 0.0291 0.0
O50 O 0.21494 0.41253 0.04818 0.0
O51 O 0.19694 0.50707 0.06502 0.0
O52 O 0.27991 0.54235 0.07858 0.0
O53 O 0.27063 0.39591 -0.00129 0.0
O54 O 0.27945 0.43558 0.04076 0.0
C55 C 0.25476 0.48188 0.98068 0.0
C56 C 0.14069 0.44779 0.00031 0.0
C57 C 0.14808 0.27622 0.92258 0.0
C58 C 0.15268 0.2229 0.8851 0.0
C59 C 0.07334 0.18543 0.91419 0.0
C60 C 0.09672 0.23311 0.92941 0.0
C61 C 0.10112 0.18015 0.89223 0.0
C62 C 0.17574 0.27099 0.90041 0.0
C63 C 0.17556 0.32534 0.93935 0.0
C64 C 0.0861 0.15267 0.04365 0.0
C65 C 0.03783 0.15081 0.03592 0.0
H66 H 0.18572 0.16717 0.05422 0.0
C67 C 0.16201 0.38154 0.04915 0.0
C68 C 0.30011 0.4219 0.02028 0.0
C69 C 0.21275 0.50411 0.11153 0.0
C70 C 0.18346 0.50868 0.15702 0.0
C71 C 0.20096 0.43626 0.14475 0.0
C72 C 0.21625 0.45833 0.11885 0.0
C73 C 0.18462 0.46124 0.16382 0.0
C74 C 0.19581 0.5287 0.13047 0.0
C75 C 0.23077 0.5294 0.08499 0.0
H76 H 0.0337 0.15228 0.91954 0.0
H77 H 0.07497 0.23597 0.9466 0.0
H78 H 0.08207 0.14284 0.88069 0.0
H79 H 0.21596 0.30392 0.89555 0.0
H80 H 0.20336 0.4007 0.1503 0.0
H81 H 0.23125 0.44008 0.10464 0.0
H82 H 0.1757 0.44513 0.18421 0.0
H83 H 0.19457 0.56493 0.12484 0.0
C84 C 0.75111 0.34462 0.36155 0.0
C85 C 0.65686 0.30326 0.34828 0.0
C86 C 0.70074 0.29861 0.35838 0.0
C87 C 0.66509 0.35437 0.34048 0.0
C88 C 0.75932 0.39621 0.35451 0.0
C89 C 0.7162 0.40074 0.3436 0.0
N90 N 0.79226 0.33881 0.37166 0.0
C91 C 0.84121 0.38295 0.37735 0.0
C92 C 0.81051 0.44168 0.35897 0.0
C93 C 0.85144 0.43505 0.37081 0.0
Gd94 Gd 0.83057 0.17159 0.32296 0.0
Gd95 Gd 0.77368 0.25042 0.38068 0.0
N96 N 0.69418 0.24977 0.36621 0.0
C97 C 0.60573 0.25663 0.34694 0.0
C98 C 0.64352 0.20509 0.36683 0.0
C99 C 0.5989 0.20753 0.35668 0.0
H100 H 0.63656 0.16754 0.37566 0.0
H101 H 0.55908 0.17166 0.35676 0.0
H102 H 0.96326 0.25124 0.33994 0.0
H103 H 0.87175 0.37767 0.38738 0.0
H104 H 0.03951 0.23924 0.35342 0.0
H105 H 0.571 0.25845 0.33929 0.0
H106 H 0.63194 0.35861 0.33248 0.0
H107 H 0.72315 0.04579 0.31764 0.0
H108 H 0.81847 0.48206 0.35389 0.0
H109 H 0.89066 0.47 0.37507 0.0
H110 H 0.96606 0.04656 0.35386 0.0
H111 H 0.72174 0.43998 0.33788 0.0
H112 H 0.77748 0.9329 0.33361 0.0
H113 H 0.70386 0.95149 0.32188 0.0
N114 N 0.80658 0.08042 0.32777 0.0
C115 C 0.84799 0.07119 0.33377 0.0
C116 C 0.75545 0.03835 0.32331 0.0
C117 C 0.78622 0.97447 0.33192 0.0
C118 C 0.74447 0.98479 0.32542 0.0
C119 C 0.83871 0.01785 0.33624 0.0
H120 H 0.87538 0.96872 0.3452 0.0
N121 N 0.90661 0.1665 0.33747 0.0
C122 C 0.89942 0.11541 0.33873 0.0
C123 C 0.9932 0.15206 0.35163 0.0
C124 C 0.94244 0.10691 0.34617 0.0
C125 C 0.9564 0.21067 0.34218 0.0
C126 C 1.0002 0.20409 0.34954 0.0
O127 O 0.79842 0.29081 0.34024 0.0
O128 O 0.77954 0.21239 0.31985 0.0
O129 O 0.88352 0.20899 0.28754 0.0
O130 O 0.80814 0.13119 0.2844 0.0
O131 O 0.71525 0.1619 0.36933 0.0
O132 O 0.73791 0.13616 0.32772 0.0
O133 O 0.83146 0.14066 0.36539 0.0
O134 O 0.80026 0.19361 0.37046 0.0
O135 O 0.72815 0.23069 0.41818 0.0
O136 O 0.81543 0.28138 0.41878 0.0
O137 O 0.88583 0.26094 0.3341 0.0
O138 O 0.86251 0.27287 0.3778 0.0
C139 C 0.79751 0.26478 0.31826 0.0
C140 C 0.70373 0.12968 0.34783 0.0
C141 C 0.86055 0.16266 0.24326 0.0
C142 C 0.90923 0.19857 0.20072 0.0
C143 C 0.83281 0.10668 0.20278 0.0
C144 C 0.82601 0.1134 0.23009 0.0
C145 C 0.8739 0.14896 0.18815 0.0
C146 C 0.90286 0.20525 0.2285 0.0
C147 C 0.85135 0.16807 0.27226 0.0
C148 C 0.93342 0.0538 0.34821 0.0
C149 C 0.88175 0.00944 0.34327 0.0
H150 H 0.02726 0.1472 0.35741 0.0
C151 C 0.8124 0.16054 0.38253 0.0
C152 C 0.89396 0.29073 0.35616 0.0
C153 C 0.76548 0.30115 0.4502 0.0
C154 C 0.71783 0.31646 0.4868 0.0
C155 C 0.79254 0.39302 0.46414 0.0
C156 C 0.79964 0.35751 0.44757 0.0
C157 C 0.75187 0.37275 0.48367 0.0
C158 C 0.72478 0.28096 0.46985 0.0
C159 C 0.77075 0.26265 0.4325 0.0
H160 H 0.80602 0.06855 0.1929 0.0
H161 H 0.79355 0.07976 0.2409 0.0
H162 H 0.87841 0.14278 0.16691 0.0
H163 H 0.92988 0.24346 0.23831 0.0
H164 H 0.81893 0.43638 0.462 0.0
H165 H 0.8319 0.37427 0.43285 0.0
H166 H 0.74783 0.40106 0.49669 0.0
H167 H 0.69821 0.23749 0.47175 0.0
C168 C 0.40655 0.75702 0.70828 0.0
C169 C 0.34918 0.66855 0.68825 0.0
C170 C 0.3996 0.70794 0.69899 0.0
C171 C 0.30635 0.67954 0.68668 0.0
C172 C 0.36343 0.76789 0.70714 0.0
C173 C 0.31346 0.72907 0.6961 0.0
N174 N 0.45559 0.79419 0.71842 0.0
C175 C 0.4633 0.84125 0.72946 0.0
C176 C 0.37181 0.81737 0.71733 0.0
C177 C 0.4218 0.85392 0.72885 0.0
Gd178 Gd 0.65755 0.83164 0.65805 0.0
Gd179 Gd 0.52377 0.77143 0.71751 0.0
N180 N 0.44223 0.69892 0.70036 0.0
C181 C 0.3432 0.61917 0.6795 0.0
C182 C 0.43581 0.64997 0.69274 0.0
C183 C 0.38656 0.60969 0.682 0.0
H184 H 0.46784 0.64088 0.69512 0.0
H185 H 0.38201 0.57119 0.67579 0.0
H186 H 0.70079 0.9611 0.67993 0.0
H187 H 0.5012 0.8685 0.73917 0.0
H188 H 0.78525 0.03939 0.6952 0.0
H189 H 0.30513 0.58786 0.67114 0.0
H190 H 0.26745 0.64985 0.67837 0.0
H191 H 0.68641 0.73297 0.64861 0.0
H192 H 0.33972 0.82728 0.71686 0.0
H193 H 0.42825 0.8916 0.73746 0.0
H194 H 0.91634 0.98114 0.69046 0.0
H195 H 0.27993 0.7368 0.69492 0.0
H196 H 0.85593 0.79805 0.6635 0.0
H197 H 0.7665 0.72096 0.65061 0.0
N198 N 0.73025 0.8157 0.66053 0.0
C199 C 0.77899 0.85878 0.6675 0.0
C200 C 0.72524 0.76669 0.65448 0.0
C201 C 0.82098 0.80356 0.66265 0.0
C202 C 0.77051 0.75986 0.65545 0.0
C203 C 0.82569 0.8537 0.66892 0.0
H204 H 0.91156 0.89525 0.67812 0.0
N205 N 0.73497 0.91004 0.67431 0.0
C206 C 0.78142 0.90724 0.67468 0.0
C207 C 0.83217 0.99968 0.6907 0.0
C208 C 0.83107 0.95184 0.68314 0.0
C209 C 0.73628 0.95714 0.68119 0.0
C210 C 0.78463 0.00233 0.68965 0.0
O211 O 0.49875 0.78597 0.67634 0.0
O212 O 0.56724 0.77803 0.66095 0.0
O213 O 0.67157 0.88324 0.6223 0.0
O214 O 0.66749 0.80471 0.61874 0.0
O215 O 0.55467 0.71381 0.70591 0.0
O216 O 0.60509 0.73872 0.66471 0.0
O217 O 0.68848 0.82305 0.69905 0.0
O218 O 0.60955 0.81034 0.70721 0.0
O219 O 0.50596 0.71677 0.7517 0.0
O220 O 0.53071 0.80257 0.75827 0.0
O221 O 0.61866 0.88374 0.66781 0.0
O222 O 0.5855 0.86156 0.71198 0.0
C223 C 0.52902 0.78931 0.65585 0.0
C224 C 0.5785 0.70431 0.68508 0.0
C225 C 0.68407 0.85559 0.57701 0.0
C226 C 0.70545 0.91006 0.53577 0.0
C227 C 0.6854 0.81662 0.53351 0.0
C228 C 0.678 0.81163 0.56143 0.0
C229 C 0.69877 0.86536 0.52072 0.0
C230 C 0.69835 0.90524 0.56405 0.0
C231 C 0.67476 0.84835 0.60654 0.0
C232 C 0.8779 0.94724 0.68405 0.0
C233 C 0.87521 0.89833 0.67698 0.0
H234 H 0.86949 0.0348 0.69732 0.0
C235 C 0.65196 0.81095 0.71725 0.0
C236 C 0.59476 0.89039 0.68943 0.0
C237 C 0.51221 0.74657 0.79825 0.0
C238 C 0.47143 0.68696 0.83695 0.0
C239 C 0.54429 0.77971 0.84358 0.0
C240 C 0.54654 0.78868 0.81574 0.0
C241 C 0.50706 0.72912 0.85418 0.0
C242 C 0.4745 0.69582 0.80893 0.0
C243 C 0.51623 0.75537 0.76893 0.0
H244 H 0.68058 0.78249 0.52173 0.0
H245 H 0.66718 0.77306 0.57078 0.0
H246 H 0.70431 0.86838 0.49898 0.0
H247 H 0.7033 0.9396 0.57573 0.0
H248 H 0.57116 0.81217 0.85698 0.0
H249 H 0.57562 0.82824 0.80786 0.0
H250 H 0.50507 0.72338 0.87591 0.0
H251 H 0.44733 0.66341 0.79552 0.0
C252 C 0.62635 0.41348 0.04233 0.0
C253 C 0.62387 0.33836 0.01788 0.0
C254 C 0.65284 0.39156 0.02815 0.0
C255 C 0.56737 0.30829 0.02104 0.0
C256 C 0.57004 0.38246 0.04668 0.0
C257 C 0.5405 0.33031 0.03537 0.0
N258 N 0.65619 0.46362 0.05341 0.0
C259 C 0.63334 0.4831 0.07099 0.0
C260 C 0.54551 0.40394 0.06316 0.0
C261 C 0.5775 0.45394 0.07584 0.0
Gd262 Gd 0.8246 0.65642 0.99236 0.0
Gd263 Gd 0.74878 0.50935 0.04348 0.0
N264 N 0.70748 0.42178 0.02526 0.0
C265 C 0.65284 0.31653 0.00544 0.0
C266 C 0.73635 0.39956 0.01491 0.0
C267 C 0.7094 0.34697 0.00434 0.0
H268 H 0.78003 0.42284 0.01455 0.0
H269 H 0.73223 0.32984 0.99553 0.0
H270 H 0.7288 0.69094 0.00809 0.0
H271 H 0.65831 0.52129 0.08118 0.0
H272 H 0.72258 0.75967 0.03487 0.0
H273 H 0.63208 0.27571 0.99734 0.0
H274 H 0.54427 0.26748 0.01308 0.0
H275 H 0.95526 0.69886 0.98691 0.0
H276 H 0.50233 0.38142 0.067 0.0
H277 H 0.55918 0.47002 0.08934 0.0
H278 H 0.90552 0.8825 0.06217 0.0
H279 H 0.4971 0.30606 0.03829 0.0
H280 H 0.04447 0.84816 0.03046 0.0
H281 H 0.04291 0.77515 0.00269 0.0
N282 N 0.90848 0.72865 0.00574 0.0
C283 C 0.90839 0.76872 0.02041 0.0
C284 C 0.95586 0.73079 -0.00105 0.0
C285 C 0.00607 0.8149 0.02355 0.0
C286 C 0.00538 0.77379 0.00787 0.0
C287 C 0.95722 0.81286 0.02991 0.0
H288 H 0.99277 0.88769 0.05284 0.0
N289 N 0.81312 0.72238 0.01584 0.0
C290 C 0.85916 0.76522 0.02587 0.0
C291 C 0.80761 0.80371 0.04454 0.0
C292 C 0.85761 0.80671 0.04069 0.0
C293 C 0.76481 0.72138 0.01808 0.0
C294 C 0.76117 0.76127 0.03286 0.0
O295 O 0.72158 0.48378 0.00029 0.0
O296 O 0.77464 0.56891 0.99653 0.0
O297 O 0.79683 0.68442 0.95771 0.0
O298 O 0.86734 0.67371 0.9541 0.0
O299 O 0.82628 0.52833 0.02083 0.0
O300 O 0.86473 0.60412 0.9904 0.0
O301 O 0.86488 0.65881 0.03198 0.0
O302 O 0.78743 0.59896 0.05376 0.0
O303 O 0.81028 0.5059 0.0684 0.0
O304 O 0.72727 0.46826 0.08208 0.0
O305 O 0.73334 0.61241 -0.00037 0.0
O306 O 0.72574 0.57607 0.04254 0.0
C307 C 0.7421 0.5243 0.98387 0.0
C308 C 0.86273 0.56133 0.00282 0.0
C309 C 0.8432 0.70659 0.91396 0.0
C310 C 0.81243 0.73217 0.87323 0.0
C311 C 0.90148 0.74057 0.87449 0.0
C312 C 0.89225 0.72071 0.9009 0.0
C313 C 0.862 0.74661 0.86077 0.0
C314 C 0.80289 0.71183 0.89986 0.0
C315 C 0.83564 0.68828 0.94242 0.0
C316 C 0.90602 0.85044 0.05064 0.0
C317 C 0.95572 0.85349 0.04527 0.0
H318 H 0.80468 0.83476 0.05579 0.0
C319 C 0.84026 0.63228 0.05404 0.0
C320 C 0.70428 0.58736 0.02139 0.0
C321 C 0.79421 0.49769 0.11557 0.0
C322 C 0.82716 0.48375 0.15862 0.0
C323 C 0.80207 0.55344 0.15419 0.0
C324 C 0.78679 0.53817 0.12736 0.0
C325 C 0.8224 0.5266 0.16977 0.0
C326 C 0.8141 0.47035 0.13125 0.0
C327 C 0.77633 0.47961 0.08784 0.0
H328 H 0.93952 0.75163 0.86466 0.0
H329 H 0.92391 0.71712 0.91124 0.0
H330 H 0.86997 0.76224 0.84026 0.0
H331 H 0.76473 0.70092 0.90957 0.0
H332 H 0.79637 0.58483 0.16321 0.0
H333 H 0.76786 0.55672 0.11597 0.0
H334 H 0.83153 0.53732 0.19091 0.0
H335 H 0.81745 0.43729 0.12245 0.0
C336 C 0.26407 0.65969 0.36157 0.0
C337 C 0.35787 0.70852 0.34734 0.0
C338 C 0.31211 0.7084 0.35824 0.0
C339 C 0.35348 0.65972 0.33828 0.0
C340 C 0.25998 0.61033 0.35344 0.0
C341 C 0.30465 0.61075 0.34132 0.0
N342 N 0.22106 0.66069 0.37275 0.0
C343 C 0.17436 0.61363 0.3783 0.0
C344 C 0.21115 0.56203 0.35787 0.0
C345 C 0.16837 0.56367 0.37066 0.0
Gd346 Gd 0.18048 0.81665 0.32631 0.0
Gd347 Gd 0.23313 0.74645 0.38342 0.0
N348 N 0.31509 0.75503 0.36725 0.0
C349 C 0.40726 0.7573 0.3469 0.0
C350 C 0.36457 0.80075 0.36994 0.0
C351 C 0.41091 0.8033 0.35892 0.0
H352 H 0.36907 0.83501 0.38125 0.0
H353 H 0.44964 0.84037 0.3603 0.0
H354 H 0.05446 0.7429 0.35376 0.0
H355 H 0.14206 0.61482 0.38887 0.0
H356 H 0.98747 0.76006 0.37552 0.0
H357 H 0.44335 0.75915 0.33869 0.0
H358 H 0.38806 0.65921 0.32956 0.0
H359 H 0.28442 0.93807 0.31062 0.0
H360 H 0.20639 0.52328 0.3519 0.0
H361 H 0.13088 0.5265 0.37474 0.0
H362 H 0.06713 0.95343 0.37281 0.0
H363 H 0.30216 0.57332 0.33468 0.0
H364 H 0.2437 0.05822 0.33383 0.0
H365 H 0.30855 0.03433 0.31389 0.0
N366 N 0.20716 0.90847 0.32867 0.0
C367 C 0.1708 0.92051 0.33969 0.0
C368 C 0.25612 0.94832 0.31951 0.0
C369 C 0.23294 0.01601 0.33245 0.0
C370 C 0.26974 0.00271 0.32123 0.0
C371 C 0.18285 0.97477 0.34194 0.0
H372 H 0.15355 0.02765 0.35573 0.0
N373 N 0.11243 0.82646 0.34797 0.0
C374 C 0.12207 0.87838 0.34956 0.0
C375 C 0.03555 0.84678 0.3713 0.0
C376 C 0.08414 0.8899 0.3616 0.0
C377 C 0.0642 0.7842 0.35653 0.0
C378 C 0.02543 0.79374 0.36857 0.0
O379 O 0.2096 0.70668 0.34246 0.0
O380 O 0.23468 0.78231 0.3174 0.0
O381 O 0.12008 0.77583 0.29476 0.0
O382 O 0.19247 0.85197 0.28613 0.0
O383 O 0.28695 0.83649 0.37332 0.0
O384 O 0.27078 0.84654 0.32804 0.0
O385 O 0.20164 0.85554 0.36794 0.0
O386 O 0.17929 0.78091 0.39366 0.0
O387 O 0.28225 0.77464 0.42039 0.0
O388 O 0.20638 0.69677 0.41937 0.0
O389 O 0.12482 0.72733 0.33557 0.0
O390 O 0.1435 0.71814 0.37996 0.0
C391 C 0.21826 0.73056 0.3189 0.0
C392 C 0.30226 0.86204 0.34978 0.0
C393 C 0.11256 0.83234 0.26199 0.0
C394 C 0.04942 0.81788 0.22479 0.0
C395 C 0.08334 0.89777 0.25367 0.0
C396 C 0.11362 0.88069 0.26866 0.0
C397 C 0.05188 0.86704 0.23183 0.0
C398 C 0.08005 0.80082 0.24026 0.0
C399 C 0.14557 0.81447 0.27717 0.0
C400 C 0.09582 0.94391 0.36362 0.0
C401 C 0.14502 0.98619 0.35384 0.0
H402 H 0.00537 0.85394 0.38065 0.0
C403 C 0.19369 0.83225 0.39174 0.0
C404 C 0.11433 0.69825 0.35785 0.0
C405 C 0.25418 0.72053 0.46189 0.0
C406 C 0.31122 0.73346 0.50094 0.0
C407 C 0.21497 0.66846 0.5029 0.0
C408 C 0.20906 0.68135 0.47635 0.0
C409 C 0.2659 0.69405 0.51511 0.0
C410 C 0.30524 0.74728 0.47444 0.0
C411 C 0.24804 0.73096 0.43339 0.0
H412 H 0.08477 0.93541 0.25879 0.0
H413 H 0.13822 0.9056 0.28524 0.0
H414 H 0.03035 0.88258 0.22018 0.0
H415 H 0.07866 0.76298 0.23559 0.0
H416 H 0.18013 0.63816 0.51392 0.0
H417 H 0.16925 0.66037 0.46709 0.0
H418 H 0.27003 0.68317 0.53565 0.0
H419 H 0.34044 0.77722 0.46342 0.0
C420 C 0.58583 0.22662 0.70365 0.0
C421 C 0.64738 0.30935 0.67968 0.0
C422 C 0.59698 0.27573 0.69213 0.0
C423 C 0.68632 0.29288 0.67894 0.0
C424 C 0.62519 0.21043 0.70339 0.0
C425 C 0.67527 0.24359 0.69077 0.0
N426 N 0.53693 0.19527 0.71564 0.0
C427 C 0.52608 0.14916 0.72917 0.0
C428 C 0.61337 0.16184 0.71623 0.0
C429 C 0.5639 0.1315 0.72951 0.0
Gd430 Gd 0.35346 0.17704 0.65895 0.0
Gd431 Gd 0.47693 0.22895 0.71458 0.0
N432 N 0.55783 0.28985 0.69252 0.0
C433 C 0.65706 0.35849 0.66832 0.0
C434 C 0.56791 0.33865 0.68247 0.0
C435 C 0.6173 0.37338 0.66993 0.0
H436 H 0.53837 0.35129 0.68435 0.0
H437 H 0.62482 0.41181 0.6617 0.0
H438 H 0.30965 0.04627 0.67854 0.0
H439 H 0.48849 0.12652 0.7401 0.0
H440 H 0.23154 0.9731 0.70174 0.0
H441 H 0.69527 0.38548 0.65856 0.0
H442 H 0.72522 0.31812 0.66939 0.0
H443 H 0.3242 0.27533 0.64995 0.0
H444 H 0.64256 0.14801 0.71653 0.0
H445 H 0.55502 0.09475 0.74018 0.0
H446 H 0.11037 0.04208 0.71402 0.0
H447 H 0.70594 0.23171 0.69027 0.0
H448 H 0.16498 0.22065 0.68113 0.0
H449 H 0.2483 0.29185 0.65913 0.0
N450 N 0.28382 0.19592 0.6666 0.0
C451 C 0.23846 0.1561 0.67864 0.0
C452 C 0.28791 0.24418 0.6596 0.0
C453 C 0.19804 0.21319 0.6771 0.0
C454 C 0.24505 0.25354 0.66471 0.0
C455 C 0.19432 0.1638 0.68429 0.0
H456 H 0.11398 0.12757 0.70168 0.0
N457 N 0.28083 0.10237 0.68074 0.0
C458 C 0.23703 0.10816 0.68603 0.0
C459 C 0.18924 0.01778 0.70493 0.0
C460 C 0.19046 0.0663 0.69864 0.0
C461 C 0.27819 0.05375 0.68528 0.0
C462 C 0.23299 0.01126 0.69788 0.0
O463 O 0.49563 0.2158 0.67154 0.0
O464 O 0.43904 0.23499 0.64723 0.0
O465 O 0.33571 0.12148 0.62535 0.0
O466 O 0.32256 0.18944 0.6209 0.0
O467 O 0.44455 0.28569 0.70468 0.0
O468 O 0.41008 0.26858 0.66061 0.0
O469 O 0.34033 0.2008 0.70058 0.0
O470 O 0.38975 0.1756 0.72719 0.0
O471 O 0.5057 0.29644 0.74287 0.0
O472 O 0.49706 0.21982 0.75583 0.0
O473 O 0.39363 0.12632 0.66611 0.0
O474 O 0.41593 0.13992 0.7111 0.0
C475 C 0.47835 0.22408 0.64834 0.0
C476 C 0.43066 0.30049 0.68205 0.0
C477 C 0.26472 0.1093 0.59634 0.0
C478 C 0.21472 0.04419 0.56029 0.0
C479 C 0.16696 0.06779 0.59348 0.0
C480 C 0.21584 0.10292 0.6063 0.0
C481 C 0.16626 0.03859 0.57068 0.0
C482 C 0.26399 0.07995 0.57331 0.0
C483 C 0.31665 0.14527 0.60999 0.0
C484 C 0.14634 0.07378 0.70427 0.0
C485 C 0.1483 0.1224 0.69715 0.0
H486 H 0.15419 0.98463 0.71458 0.0
C487 C 0.35259 0.18962 0.72442 0.0
C488 C 0.4103 0.11374 0.68841 0.0
C489 C 0.57079 0.29958 0.77388 0.0
C490 C 0.63672 0.3713 0.80346 0.0
C491 C 0.65839 0.30733 0.78224 0.0
C492 C 0.60752 0.28087 0.77013 0.0
C493 C 0.67281 0.35176 0.79897 0.0
C494 C 0.58594 0.34534 0.7902 0.0
C495 C 0.51611 0.27072 0.7617 0.0
H496 H 0.12942 0.06321 0.60123 0.0
H497 H 0.21534 0.12504 0.62393 0.0
H498 H 0.12778 0.01211 0.56097 0.0
H499 H 0.30171 0.08435 0.56586 0.0
H500 H 0.68617 0.29226 0.77934 0.0
H501 H 0.59684 0.24515 0.75834 0.0
H502 H 0.71148 0.36906 0.80926 0.0
H503 H 0.55756 0.35975 0.79291 0.0
H504 H 0.18965 0.62419 0.31493 0.0
H505 H 0.21634 0.76248 0.26691 0.0
H506 H 0.17061 0.57029 0.27427 0.0
H507 H 0.19515 0.7077 0.22603 0.0
H508 H 0.24357 0.61762 0.16373 0.0
H509 H 0.24244 0.67091 0.20148 0.0
H510 H 0.10852 0.52753 0.2367 0.0
H511 H 0.1099 0.47356 0.19856 0.0
C512 C 0.19138 0.64309 0.29569 0.0
C513 C 0.20557 0.69788 0.2941 0.0
C514 C 0.17944 0.61185 0.27238 0.0
C515 C 0.18133 0.63473 0.24693 0.0
C516 C 0.19398 0.68915 0.24537 0.0
C517 C 0.2062 0.72053 0.26875 0.0
C518 C 0.21279 0.59759 0.17909 0.0
C519 C 0.17686 0.54135 0.17824 0.0
C520 C 0.21213 0.62825 0.20076 0.0
C521 C 0.17558 0.60339 0.22212 0.0
C522 C 0.1377 0.54758 0.22066 0.0
C523 C 0.13844 0.51674 0.19891 0.0
H524 H 0.45101 0.23633 0.5971 0.0
H525 H 0.57054 0.21758 0.64262 0.0
H526 H 0.50227 0.24899 0.55591 0.0
H527 H 0.62322 0.23304 0.60164 0.0
H528 H 0.69224 0.23097 0.52061 0.0
H529 H 0.6272 0.19858 0.55762 0.0
H530 H 0.58622 0.32227 0.53896 0.0
H531 H 0.64922 0.35285 0.50121 0.0
C532 C 0.48843 0.23526 0.59837 0.0
C533 C 0.50774 0.2278 0.62328 0.0
C534 C 0.51779 0.24259 0.57476 0.0
C535 C 0.56723 0.24301 0.57561 0.0
C536 C 0.58516 0.2328 0.6003 0.0
C537 C 0.55542 0.22481 0.62389 0.0
C538 C 0.66851 0.2505 0.5241 0.0
C539 C 0.67609 0.29476 0.50819 0.0
C540 C 0.63171 0.23229 0.54545 0.0
C541 C 0.60194 0.25812 0.55132 0.0
C542 C 0.6082 0.30117 0.53481 0.0
C543 C 0.64484 0.31924 0.51343 0.0
H544 H 0.28932 0.42717 0.94883 0.0
H545 H 0.23683 0.54535 0.94696 0.0
H546 H 0.32951 0.45667 0.90408 0.0
H547 H 0.27656 0.5748 0.9023 0.0
H548 H 0.36299 0.63495 0.82658 0.0
H549 H 0.29161 0.56113 0.85306 0.0
H550 H 0.41356 0.5499 0.90025 0.0
H551 H 0.48445 0.62336 0.87387 0.0
C552 C 0.28366 0.45724 0.93823 0.0
C553 C 0.26023 0.4842 0.95121 0.0
C554 C 0.30705 0.47444 0.9127 0.0
C555 C 0.30679 0.51848 0.8999 0.0
C556 C 0.27717 0.54055 0.91155 0.0
C557 C 0.25459 0.52391 0.93717 0.0
C558 C 0.37429 0.61532 0.84202 0.0
C559 C 0.42903 0.63523 0.8486 0.0
C560 C 0.33353 0.57316 0.85711 0.0
C561 C 0.34704 0.54999 0.87875 0.0
C562 C 0.40182 0.56651 0.88351 0.0
C563 C 0.44246 0.60901 0.86867 0.0
H564 H 0.8335 0.37168 0.31101 0.0
H565 H 0.79542 0.22586 0.26698 0.0
H566 H 0.85416 0.42181 0.26927 0.0
H567 H 0.81832 0.27729 0.22451 0.0
H568 H 0.77079 0.37371 0.16194 0.0
H569 H 0.77563 0.31796 0.19802 0.0
H570 H 0.91451 0.45918 0.23174 0.0
H571 H 0.90838 0.51526 0.19596 0.0
C572 C 0.83043 0.35036 0.29238 0.0
C573 C 0.81316 0.29469 0.29237 0.0
C574 C 0.84312 0.3795 0.26835 0.0
C575 C 0.83861 0.35385 0.24349 0.0
C576 C 0.82227 0.29825 0.24337 0.0
C577 C 0.80949 0.26886 0.26765 0.0
C578 C 0.80337 0.39251 0.1766 0.0
C579 C 0.83865 0.44891 0.1765 0.0
C580 C 0.80629 0.36048 0.19725 0.0
C581 C 0.84475 0.38431 0.21807 0.0
C582 C 0.88352 0.43987 0.21634 0.0
C583 C 0.88016 0.47199 0.19588 0.0
H584 H 0.46634 0.83267 0.64221 0.0
H585 H 0.56458 0.77167 0.60804 0.0
H586 H 0.43476 0.83816 0.59727 0.0
H587 H 0.53487 0.77935 0.56273 0.0
H588 H 0.36809 0.68449 0.51431 0.0
H589 H 0.44277 0.71745 0.54641 0.0
H590 H 0.44794 0.87173 0.55007 0.0
H591 H 0.37247 0.83795 0.51771 0.0
C592 C 0.4828 0.82242 0.62495 0.0
C593 C 0.5184 0.80232 0.62853 0.0
C594 C 0.46524 0.82622 0.59913 0.0
C595 C 0.4823 0.80911 0.57643 0.0
C596 C 0.52105 0.79278 0.57987 0.0
C597 C 0.53854 0.78894 0.60576 0.0
C598 C 0.38664 0.72606 0.52129 0.0
C599 C 0.36457 0.7586 0.51408 0.0
C600 C 0.42969 0.74523 0.53948 0.0
C601 C 0.45075 0.79701 0.55103 0.0
C602 C 0.43206 0.83149 0.54165 0.0
C603 C 0.38914 0.81235 0.52318 0.0
H604 H 0.79946 0.5819 0.93952 0.0
H605 H 0.64577 0.44882 0.96432 0.0
H606 H 0.77009 0.56614 0.89234 0.0
H607 H 0.61827 0.4278 0.91776 0.0
H608 H 0.56704 0.38464 0.837 0.0
H609 H 0.59042 0.44052 0.87692 0.0
H610 H 0.76058 0.50718 0.85907 0.0
H611 H 0.73704 0.45708 0.8172 0.0
C612 C 0.75873 0.55085 0.93487 0.0
C613 C 0.72437 0.51827 0.95549 0.0
C614 C 0.74217 0.54036 0.90778 0.0
C615 C 0.69151 0.49543 0.90082 0.0
C616 C 0.65686 0.46367 0.92186 0.0
C617 C 0.67302 0.47512 0.94875 0.0
C618 C 0.60945 0.41286 0.84079 0.0
C619 C 0.65016 0.41426 0.82422 0.0
C620 C 0.623 0.44436 0.8642 0.0
C621 C 0.6775 0.47637 0.87225 0.0
C622 C 0.71807 0.48256 0.85407 0.0
C623 C 0.70448 0.45261 0.83014 0.0
H624 H 0.36286 0.4087 0.05768 0.0
H625 H 0.36871 0.48307 0.98069 0.0
H626 H 0.46202 0.45076 0.05733 0.0
H627 H 0.46743 0.5251 0.98024 0.0
H628 H 0.6401 0.59237 0.06073 0.0
H629 H 0.54102 0.55027 0.05985 0.0
H630 H 0.53834 0.49547 0.9782 0.0
H631 H 0.63696 0.53745 0.9792 0.0
C632 C 0.3855 0.43367 0.04063 0.0
C633 C 0.35873 0.44307 0.01927 0.0
C634 C 0.44197 0.45786 0.04047 0.0
C635 C 0.47224 0.49152 0.01887 0.0
C636 C 0.44503 0.49924 0.99708 0.0
C637 C 0.38868 0.47512 0.99728 0.0
C638 C 0.61806 0.57117 0.04269 0.0
C639 C 0.64558 0.5665 0.02034 0.0
C640 C 0.56162 0.54711 0.04218 0.0
C641 C 0.5321 0.51884 0.01912 0.0
C642 C 0.5601 0.51673 0.99628 0.0
C643 C 0.6164 0.54058 0.99686 0.0
H644 H 0.0938 0.63373 0.3141 0.0
H645 H 0.04953 0.62951 0.39772 0.0
H646 H 0.04885 0.53573 0.3132 0.0
H647 H 0.99926 0.53043 0.39636 0.0
H648 H 0.95729 0.35644 0.39727 0.0
H649 H 0.0105 0.45542 0.39676 0.0
H650 H 0.97157 0.45472 0.31196 0.0
H651 H 0.92395 0.35653 0.31219 0.0
C652 C 0.07327 0.61159 0.33217 0.0
C653 C 0.07637 0.63921 0.35616 0.0
C654 C 0.04692 0.55503 0.33165 0.0
C655 C 0.02082 0.52438 0.35486 0.0
C656 C 0.02042 0.5523 0.37833 0.0
C657 C 0.04829 0.60912 0.37903 0.0
C658 C 0.96161 0.37776 0.37843 0.0
C659 C 0.93504 0.34901 0.35495 0.0
C660 C 0.99117 0.43457 0.37819 0.0
C661 C 0.99414 0.4638 0.35455 0.0
C662 C 0.97057 0.43437 0.33065 0.0
C663 C 0.94254 0.37774 0.33077 0.0
H664 H 0.39879 0.03492 0.72383 0.0
H665 H 0.47449 0.11186 0.64854 0.0
H666 H 0.4469 0.98377 0.72312 0.0
H667 H 0.52377 0.06227 0.64806 0.0
H668 H 0.58589 0.94952 0.73059 0.0
H669 H 0.53909 1.00167 0.72925 0.0
H670 H 0.51535 0.97447 0.6431 0.0
H671 H 0.563 0.92329 0.64457 0.0
C672 C 0.42533 0.04036 0.70702 0.0
C673 C 0.43332 0.07752 0.68638 0.0
C674 C 0.45332 0.01157 0.7067 0.0
C675 C 0.48988 0.0194 0.68571 0.0
C676 C 0.49585 0.05495 0.66446 0.0
C677 C 0.46758 0.08338 0.66471 0.0
C678 C 0.57078 0.95494 0.71138 0.0
C679 C 0.57592 0.93033 0.6879 0.0
C680 C 0.54372 0.98458 0.71061 0.0
C681 C 0.52204 0.99111 0.68619 0.0
C682 C 0.53103 0.96997 0.66232 0.0
C683 C 0.55815 0.94037 0.66315 0.0
H684 H 0.54633 0.64171 0.63958 0.0
H685 H 0.57762 0.6379 0.72471 0.0
H686 H 0.5068 0.5434 0.63724 0.0
H687 H 0.54221 0.54071 0.72227 0.0
H688 H 0.42474 0.36379 0.72115 0.0
H689 H 0.4616 0.46135 0.7202 0.0
H690 H 0.51449 0.46623 0.63776 0.0
H691 H 0.47378 0.36766 0.63841 0.0
C692 C 0.5464 0.61994 0.65758 0.0
C693 C 0.56515 0.6473 0.6823 0.0
C694 C 0.5236 0.56344 0.65631 0.0
C695 C 0.52008 0.53328 0.67968 0.0
C696 C 0.54212 0.56172 0.704 0.0
C697 C 0.56349 0.61776 0.70538 0.0
C698 C 0.4434 0.38577 0.70269 0.0
C699 C 0.4463 0.35829 0.67985 0.0
C700 C 0.46543 0.44197 0.70221 0.0
C701 C 0.49257 0.47257 0.67911 0.0
C702 C 0.49374 0.4445 0.65589 0.0
C703 C 0.47031 0.38788 0.65618 0.0
H704 H 0.03183 0.38418 0.00589 0.0
H705 H 0.1559 0.54211 0.97915 0.0
H706 H 0.96419 0.41264 0.00175 0.0
H707 H 0.08854 0.57062 0.97407 0.0
H708 H 0.97152 0.62328 0.00885 0.0
H709 H 0.03856 0.59451 0.00333 0.0
H710 H 0.91294 0.43853 0.97411 0.0
H711 H 0.84615 0.46741 0.98051 0.0
C712 C 0.04415 0.4245 -0.00162 0.0
C713 C 0.09878 0.46122 0.99305 0.0
C714 C 0.00554 0.44096 0.99596 0.0
C715 C 0.02091 0.4943 0.98786 0.0
C716 C 0.07538 0.52978 0.98101 0.0
C717 C 0.11394 0.51349 0.98377 0.0
C718 C 0.95875 0.5833 0.00078 0.0
C719 C 0.90396 0.54724 0.99536 0.0
C720 C 0.99702 0.56669 0.99753 0.0
C721 C 0.98119 0.51386 0.98848 0.0
C722 C 0.92646 0.47896 0.98173 0.0
C723 C 0.88821 0.49542 0.9853 0.0
H724 H 0.36863 0.88361 0.30615 0.0
H725 H 0.36539 0.93678 0.38735 0.0
H726 H 0.46642 0.94546 0.30422 0.0
H727 H 0.46234 1.00055 0.38516 0.0
H728 H 0.63807 0.09701 0.30308 0.0
H729 H 0.54003 0.03484 0.30196 0.0
H730 H 0.54376 1.00063 0.38701 0.0
H731 H 0.64059 0.0646 0.38816 0.0
C732 C 0.38873 0.9096 0.32333 0.0
C733 C 0.35959 0.90524 0.34697 0.0
C734 C 0.44487 0.94509 0.32227 0.0
C735 C 0.47294 0.97762 0.3447 0.0
C736 C 0.4428 0.97506 0.36777 0.0
C737 C 0.38701 0.93902 0.36896 0.0
C738 C 0.61776 0.07543 0.32136 0.0
C739 C 0.64671 0.08567 0.34572 0.0
C740 C 0.56153 0.03984 0.32079 0.0
C741 C 0.53332 0.01319 0.34453 0.0
C742 C 0.56334 0.02157 0.3685 0.0
C743 C 0.6191 0.0577 0.36914 0.0
H744 H 0.35519 0.1573 0.77659 0.0
H745 H 0.28358 0.22973 0.72649 0.0
H746 H 0.30731 0.16478 0.8159 0.0
H747 H 0.23538 0.23613 0.7654 0.0
H748 H 0.20884 0.29757 0.84575 0.0
H749 H 0.25812 0.28883 0.80767 0.0
H750 H 0.21286 0.12661 0.8336 0.0
H751 H 0.16438 0.13579 0.8721 0.0
C752 C 0.32907 0.17448 0.77391 0.0
C753 C 0.32306 0.19265 0.74835 0.0
C754 C 0.30147 0.17852 0.79638 0.0
C755 C 0.26771 0.20122 0.79376 0.0
C756 C 0.26159 0.21908 0.76817 0.0
C757 C 0.2889 0.21487 0.74578 0.0
C758 C 0.20974 0.2602 0.84345 0.0
C759 C 0.1826 0.21734 0.8619 0.0
C760 C 0.23757 0.255 0.8215 0.0
C761 C 0.2392 0.20693 0.81756 0.0
C762 C 0.21263 0.16427 0.83619 0.0
C763 C 0.18441 0.16932 0.85806 0.0
H764 H 0.01936 0.24875 0.20733 0.0
H765 H 0.89482 0.24437 0.15583 0.0
H766 H 0.08826 0.30533 0.17382 0.0
H767 H 0.96259 0.29962 0.12234 0.0
H768 H 0.09388 0.41445 0.06791 0.0
H769 H 0.03979 0.38461 0.10938 0.0
H770 H 0.10965 0.28438 0.12904 0.0
H771 H 0.16512 0.3163 0.08812 0.0
C772 C 0.00703 0.26123 0.1892 0.0
C773 C 0.95193 0.24225 0.18404 0.0
C774 C 0.04625 0.29303 0.16989 0.0
C775 C 0.03094 0.30657 0.14522 0.0
C776 C 0.97609 0.29054 0.14112 0.0
C777 C 0.93711 0.25866 0.16026 0.0
C778 C 0.09837 0.38706 0.08154 0.0
C779 C 0.1339 0.36812 0.07526 0.0
C780 C 0.06727 0.36967 0.10515 0.0
C781 C 0.07022 0.33196 0.12258 0.0
C782 C 0.10695 0.31409 0.1164 0.0
C783 C 0.13846 0.33199 0.09294 0.0
H784 H 0.79999 0.00714 0.53833 0.0
H785 H 0.64387 0.92563 0.49912 0.0
H786 H 0.83032 0.08289 0.5062 0.0
H787 H 0.67352 1.00058 0.46721 0.0
H788 H 0.72799 0.14354 0.41576 0.0
H789 H 0.70432 0.09704 0.45901 0.0
H790 H 0.84995 0.08602 0.45671 0.0
H791 H 0.87427 0.13422 0.41353 0.0
C792 C 0.77171 0.00639 0.52339 0.0
C793 C 0.71963 0.96087 0.52113 0.0
C794 C 0.78911 0.04938 0.50489 0.0
C795 C 0.75445 0.0477 0.48405 0.0
C796 C 0.7011 0.00365 0.48315 0.0
C797 C 0.68405 0.9606 0.50137 0.0
C798 C 0.75639 0.13389 0.42494 0.0
C799 C 0.80351 0.14361 0.41129 0.0
C800 C 0.74231 0.10623 0.44968 0.0
C801 C 0.77499 0.08739 0.46129 0.0
C802 C 0.82407 0.10039 0.44853 0.0
C803 C 0.83791 0.12782 0.42371 0.0
H804 H 0.67129 0.72882 0.72662 0.0
H805 H 0.64386 0.84681 0.76706 0.0
H806 H 0.69399 0.70311 0.76978 0.0
H807 H 0.66811 0.82219 0.81054 0.0
H808 H 0.7177 0.65285 0.85175 0.0
H809 H 0.66198 0.66475 0.81736 0.0
H810 H 0.76173 0.83859 0.82487 0.0
H811 H 0.81742 0.82642 0.85881 0.0
C812 C 0.66856 0.74803 0.74497 0.0
C813 C 0.65506 0.78906 0.74375 0.0
C814 C 0.6814 0.73327 0.76969 0.0
C815 C 0.68265 0.76051 0.79358 0.0
C816 C 0.66719 0.80035 0.79246 0.0
C817 C 0.65305 0.81421 0.7677 0.0
C818 C 0.72639 0.69344 0.84659 0.0
C819 C 0.77156 0.73877 0.85781 0.0
C820 C 0.69481 0.70029 0.82688 0.0
C821 C 0.70763 0.75261 0.81836 0.0
C822 C 0.75043 0.79782 0.8312 0.0
C823 C 0.7824 0.79095 0.85055 0.0
H824 H 0.95283 0.80627 0.2064 0.0
H825 H 0.06956 0.75572 0.189 0.0
H826 H 0.90351 0.76201 0.1657 0.0
H827 H 0.01692 0.70645 0.1497 0.0
H828 H 0.9475 0.67422 0.06441 0.0
H829 H 0.99664 0.71697 0.10586 0.0
H830 H 0.84632 0.68444 0.14339 0.0
H831 H 0.79869 0.64608 0.1011 0.0
C832 C 0.96802 0.78549 0.19403 0.0
C833 C 0.01605 0.78567 0.20105 0.0
C834 C 0.93884 0.75892 0.17076 0.0
C835 C 0.95592 0.73044 0.15399 0.0
C836 C 0.00283 0.72884 0.16158 0.0
C837 C 0.03269 0.75641 0.18458 0.0
C838 C 0.92512 0.6761 0.08166 0.0
C839 C 0.86897 0.65515 0.07986 0.0
C840 C 0.95318 0.70018 0.1056 0.0
C841 C 0.92572 0.70377 0.12848 0.0
C842 C 0.86939 0.68309 0.12638 0.0
C843 C 0.84162 0.65991 0.10226 0.0
H844 H 0.14259 0.93791 0.54852 0.0
H845 H 0.28395 0.07911 0.51689 0.0
H846 H 0.13782 0.88734 0.50792 0.0
H847 H 0.28016 0.02791 0.47656 0.0
H848 H 0.21779 0.93811 0.39549 0.0
H849 H 0.2238 0.98885 0.43626 0.0
H850 H 0.18548 0.84799 0.48499 0.0
H851 H 0.17846 0.7969 0.44423 0.0
C852 C 0.17271 0.95819 0.5329 0.0
C853 C 0.2135 0.01272 0.53595 0.0
C854 C 0.1703 0.92897 0.50972 0.0
C855 C 0.20854 0.95352 0.4889 0.0
C856 C 0.24968 0.00791 0.49205 0.0
C857 C 0.25222 0.0371 0.51531 0.0
C858 C 0.21039 0.91782 0.41487 0.0
C859 C 0.19717 0.86322 0.41651 0.0
C860 C 0.2143 0.94711 0.43829 0.0
C861 C 0.20512 0.92256 0.46395 0.0
C862 C 0.19208 0.86799 0.46557 0.0
C863 C 0.18823 0.83872 0.44216 0.0
loop_
_geom_bond_atom_site_label_1
_geom_bond_atom_site_label_2
_geom_bond_distance
_geom_bond_site_symmetry_2
_ccdc_geom_bond_type
C0 C2 1.422 . S
C0 C4 1.415 . S
C0 N6 1.369 . S
C1 C2 1.421 . S
C1 C3 1.417 . S
C1 C13 1.421 1_554 S
C2 C0 1.422 . S
C2 C1 1.421 . S
C2 N12 1.359 . S
C3 C1 1.417 . S
C3 C5 1.329 . S
C3 H22 0.930 1_554 S
C4 C0 1.415 . S
C4 C5 1.437 . S
C4 C8 1.413 . S
C5 C3 1.329 . S
C5 C4 1.437 . S
C5 H27 0.929 . S
N6 C0 1.369 . S
N6 C7 1.338 . S
N6 Gd11 2.622 . S
C7 N6 1.338 . S
C7 C9 1.378 . S
C7 H19 0.929 . S
C8 C4 1.413 . S
C8 C9 1.348 . S
C8 H24 0.931 . S
C9 C7 1.378 . S
C9 C8 1.348 . S
C9 H25 0.930 . S
Gd10 N30 2.622 . S
Gd10 N37 2.570 1_556 S
Gd10 O44 2.353 . S
Gd10 O45 2.468 . S
Gd10 O46 2.427 . S
Gd10 O48 2.388 . S
Gd10 O49 2.386 1_556 S
Gd10 O53 2.307 1_556 S
Gd10 C63 2.805 . S
Gd11 N6 2.622 . S
Gd11 N12 2.570 . S
Gd11 O43 2.386 1_554 S
Gd11 O47 2.307 . S
Gd11 O50 2.353 . S
Gd11 O51 2.468 . S
Gd11 O52 2.427 . S
Gd11 O54 2.388 . S
Gd11 C75 2.805 . S
N12 C2 1.359 . S
N12 Gd11 2.570 . S
N12 C14 1.343 . S
C13 C1 1.421 1_556 S
C13 C15 1.320 1_556 S
C13 H21 0.933 . S
C14 N12 1.343 . S
C14 C15 1.390 . S
C14 H16 0.931 . S
C15 C13 1.320 1_554 S
C15 C14 1.390 . S
C15 H17 0.925 1_554 S
H16 C14 0.931 . S
H17 C15 0.925 1_556 S
H18 C41 0.931 . S
H19 C7 0.929 . S
H20 C42 0.930 . S
H21 C13 0.933 . S
H22 C3 0.930 1_556 S
H23 C32 0.929 . S
H24 C8 0.931 . S
H25 C9 0.930 . S
H26 C64 0.930 . S
H27 C5 0.929 . S
H28 C33 0.931 . S
H29 C34 0.930 . S
N30 Gd10 2.622 . S
N30 C31 1.368 1_556 S
N30 C32 1.339 . S
C31 N30 1.368 1_554 S
C31 C35 1.415 . S
C31 C38 1.422 . S
C32 H23 0.929 . S
C32 N30 1.339 . S
C32 C34 1.378 1_455 S
C33 H28 0.931 . S
C33 C34 1.348 1_554 S
C33 C35 1.413 1_655 S
C34 H29 0.930 . S
C34 C32 1.378 1_655 S
C34 C33 1.348 1_556 S
C35 C31 1.415 . S
C35 C33 1.413 1_455 S
C35 C65 1.437 1_455 S
H36 C65 0.929 . S
N37 Gd10 2.570 1_554 S
N37 C38 1.359 . S
N37 C41 1.343 . S
C38 C31 1.422 . S
C38 N37 1.359 . S
C38 C40 1.421 . S
C39 C40 1.422 . S
C39 C42 1.321 . S
C39 H66 0.931 . S
C40 C38 1.421 . S
C40 C39 1.422 . S
C40 C64 1.417 . S
C41 H18 0.931 . S
C41 N37 1.343 . S
C41 C42 1.390 . S
C42 H20 0.930 . S
C42 C39 1.321 . S
C42 C41 1.390 . S
O43 Gd11 2.386 1_556 S
O43 C55 1.265 . S
O44 Gd10 2.353 . S
O44 C55 1.242 . S
O45 Gd10 2.468 . S
O45 C63 1.263 . S
O46 Gd10 2.427 . S
O46 C63 1.252 . S
O47 Gd11 2.307 . S
O47 C56 1.261 . S
O48 Gd10 2.388 . S
O48 C56 1.252 1_556 S
O49 Gd10 2.386 1_554 S
O49 C67 1.265 . S
O50 Gd11 2.353 . S
O50 C67 1.242 . S
O51 Gd11 2.468 . S
O51 C75 1.263 . S
O52 Gd11 2.427 . S
O52 C75 1.252 . S
O53 Gd10 2.307 1_554 S
O53 C68 1.261 . S
O54 Gd11 2.388 . S
O54 C68 1.252 . S
C55 O43 1.265 . S
C55 O44 1.242 . S
C56 O47 1.261 . S
C56 O48 1.252 1_554 S
C57 C60 1.394 . S
C57 C62 1.370 . S
C57 C63 1.500 . S
C58 C61 1.383 . S
C58 C62 1.395 . S
C59 C60 1.396 . S
C59 C61 1.365 . S
C59 H76 0.929 . S
C60 C57 1.394 . S
C60 C59 1.396 . S
C60 H77 0.930 . S
C61 C58 1.383 . S
C61 C59 1.365 . S
C61 H78 0.931 . S
C62 C57 1.370 . S
C62 C58 1.395 . S
C62 H79 0.930 . S
C63 Gd10 2.805 . S
C63 O45 1.263 . S
C63 O46 1.252 . S
C63 C57 1.500 . S
C64 H26 0.930 . S
C64 C40 1.417 . S
C64 C65 1.329 1_455 S
C65 C35 1.437 1_655 S
C65 H36 0.929 . S
C65 C64 1.329 1_655 S
H66 C39 0.931 . S
C67 O49 1.265 . S
C67 O50 1.242 . S
C68 O53 1.261 . S
C68 O54 1.252 . S
C69 C72 1.394 . S
C69 C74 1.370 . S
C69 C75 1.500 . S
C70 C73 1.383 . S
C70 C74 1.395 . S
C71 C72 1.396 . S
C71 C73 1.365 . S
C71 H80 0.929 . S
C72 C69 1.394 . S
C72 C71 1.396 . S
C72 H81 0.930 . S
C73 C70 1.383 . S
C73 C71 1.365 . S
C73 H82 0.931 . S
C74 C69 1.370 . S
C74 C70 1.395 . S
C74 H83 0.930 . S
C75 Gd11 2.805 . S
C75 O51 1.263 . S
C75 O52 1.252 . S
C75 C69 1.500 . S
H76 C59 0.929 . S
H77 C60 0.930 . S
H78 C61 0.931 . S
H79 C62 0.930 . S
H80 C71 0.929 . S
H81 C72 0.930 . S
H82 C73 0.931 . S
H83 C74 0.930 . S
C84 C86 1.422 . S
C84 C88 1.415 . S
C84 N90 1.369 . S
C85 C86 1.421 . S
C85 C87 1.417 . S
C85 C97 1.422 . S
C86 C84 1.422 . S
C86 C85 1.421 . S
C86 N96 1.359 . S
C87 C85 1.417 . S
C87 C89 1.329 . S
C87 H106 0.930 . S
C88 C84 1.415 . S
C88 C89 1.437 . S
C88 C92 1.413 . S
C89 C87 1.329 . S
C89 C88 1.437 . S
C89 H111 0.929 . S
N90 C84 1.369 . S
N90 C91 1.338 . S
N90 Gd95 2.622 . S
C91 N90 1.338 . S
C91 C93 1.378 . S
C91 H103 0.929 . S
C92 C88 1.413 . S
C92 C93 1.348 . S
C92 H108 0.931 . S
C93 C91 1.378 . S
C93 C92 1.348 . S
C93 H109 0.930 . S
Gd94 N114 2.622 . S
Gd94 N121 2.570 . S
Gd94 O128 2.353 . S
Gd94 O129 2.468 . S
Gd94 O130 2.427 . S
Gd94 O132 2.388 . S
Gd94 O133 2.386 . S
Gd94 O137 2.307 . S
Gd94 C147 2.805 . S
Gd95 N90 2.622 . S
Gd95 N96 2.570 . S
Gd95 O127 2.386 . S
Gd95 O131 2.307 . S
Gd95 O134 2.353 . S
Gd95 O135 2.468 . S
Gd95 O136 2.427 . S
Gd95 O138 2.388 . S
Gd95 C159 2.805 . S
N96 C86 1.359 . S
N96 Gd95 2.570 . S
N96 C98 1.343 . S
C97 C85 1.422 . S
C97 C99 1.321 . S
C97 H105 0.931 . S
C98 N96 1.343 . S
C98 C99 1.390 . S
C98 H100 0.931 . S
C99 C97 1.321 . S
C99 C98 1.390 . S
C99 H101 0.930 . S
H100 C98 0.931 . S
H101 C99 0.930 . S
H102 C125 0.931 . S
H103 C91 0.929 . S
H104 C126 0.930 1_455 S
H105 C97 0.931 . S
H106 C87 0.930 . S
H107 C116 0.929 . S
H108 C92 0.931 . S
H109 C93 0.930 . S
H110 C148 0.930 . S
H111 C89 0.929 . S
H112 C117 0.931 . S
H113 C118 0.930 . S
N114 Gd94 2.622 . S
N114 C115 1.369 . S
N114 C116 1.338 . S
C115 N114 1.369 . S
C115 C119 1.415 . S
C115 C122 1.422 . S
C116 H107 0.929 . S
C116 N114 1.338 . S
C116 C118 1.378 1_545 S
C117 H112 0.931 . S
C117 C118 1.348 . S
C117 C119 1.413 1_565 S
C118 H113 0.930 . S
C118 C116 1.378 1_565 S
C118 C117 1.348 . S
C119 C115 1.415 . S
C119 C117 1.413 1_545 S
C119 C149 1.437 1_545 S
H120 C149 0.929 . S
N121 Gd94 2.570 . S
N121 C122 1.359 . S
N121 C125 1.343 . S
C122 C115 1.422 . S
C122 N121 1.359 . S
C122 C124 1.421 . S
C123 C124 1.422 . S
C123 C126 1.321 . S
C123 H150 0.931 1_655 S
C124 C122 1.421 . S
C124 C123 1.422 . S
C124 C148 1.417 . S
C125 H102 0.931 . S
C125 N121 1.343 . S
C125 C126 1.390 . S
C126 H104 0.930 1_655 S
C126 C123 1.321 . S
C126 C125 1.390 . S
O127 Gd95 2.386 . S
O127 C139 1.265 . S
O128 Gd94 2.353 . S
O128 C139 1.242 . S
O129 Gd94 2.468 . S
O129 C147 1.263 . S
O130 Gd94 2.427 . S
O130 C147 1.252 . S
O131 Gd95 2.307 . S
O131 C140 1.261 . S
O132 Gd94 2.388 . S
O132 C140 1.252 . S
O133 Gd94 2.386 . S
O133 C151 1.265 . S
O134 Gd95 2.353 . S
O134 C151 1.242 . S
O135 Gd95 2.468 . S
O135 C159 1.263 . S
O136 Gd95 2.427 . S
O136 C159 1.252 . S
O137 Gd94 2.307 . S
O137 C152 1.261 . S
O138 Gd95 2.388 . S
O138 C152 1.252 . S
C139 O127 1.265 . S
C139 O128 1.242 . S
C140 O131 1.261 . S
C140 O132 1.252 . S
C141 C144 1.394 . S
C141 C146 1.370 . S
C141 C147 1.500 . S
C142 C145 1.383 . S
C142 C146 1.395 . S
C143 C144 1.396 . S
C143 C145 1.365 . S
C143 H160 0.929 . S
C144 C141 1.394 . S
C144 C143 1.396 . S
C144 H161 0.930 . S
C145 C142 1.383 . S
C145 C143 1.365 . S
C145 H162 0.931 . S
C146 C141 1.370 . S
C146 C142 1.395 . S
C146 H163 0.930 . S
C147 Gd94 2.805 . S
C147 O129 1.263 . S
C147 O130 1.252 . S
C147 C141 1.500 . S
C148 H110 0.930 . S
C148 C124 1.417 . S
C148 C149 1.329 1_545 S
C149 C119 1.437 1_565 S
C149 H120 0.929 . S
C149 C148 1.329 1_565 S
H150 C123 0.931 1_455 S
C151 O133 1.265 . S
C151 O134 1.242 . S
C152 O137 1.261 . S
C152 O138 1.252 . S
C153 C156 1.394 . S
C153 C158 1.370 . S
C153 C159 1.500 . S
C154 C157 1.383 . S
C154 C158 1.395 . S
C155 C156 1.396 . S
C155 C157 1.365 . S
C155 H164 0.929 . S
C156 C153 1.394 . S
C156 C155 1.396 . S
C156 H165 0.930 . S
C157 C154 1.383 . S
C157 C155 1.365 . S
C157 H166 0.931 . S
C158 C153 1.370 . S
C158 C154 1.395 . S
C158 H167 0.930 . S
C159 Gd95 2.805 . S
C159 O135 1.263 . S
C159 O136 1.252 . S
C159 C153 1.500 . S
H160 C143 0.929 . S
H161 C144 0.930 . S
H162 C145 0.931 . S
H163 C146 0.930 . S
H164 C155 0.929 . S
H165 C156 0.930 . S
H166 C157 0.931 . S
H167 C158 0.930 . S
C168 C170 1.422 . S
C168 C172 1.415 . S
C168 N174 1.369 . S
C169 C170 1.421 . S
C169 C171 1.417 . S
C169 C181 1.422 . S
C170 C168 1.422 . S
C170 C169 1.421 . S
C170 N180 1.359 . S
C171 C169 1.417 . S
C171 C173 1.329 . S
C171 H190 0.930 . S
C172 C168 1.415 . S
C172 C173 1.437 . S
C172 C176 1.413 . S
C173 C171 1.329 . S
C173 C172 1.437 . S
C173 H195 0.929 . S
N174 C168 1.369 . S
N174 C175 1.338 . S
N174 Gd179 2.622 . S
C175 N174 1.338 . S
C175 C177 1.378 . S
C175 H187 0.929 . S
C176 C172 1.413 . S
C176 C177 1.348 . S
C176 H192 0.931 . S
C177 C175 1.378 . S
C177 C176 1.348 . S
C177 H193 0.930 . S
Gd178 N198 2.622 . S
Gd178 N205 2.570 . S
Gd178 O212 2.353 . S
Gd178 O213 2.468 . S
Gd178 O214 2.427 . S
Gd178 O216 2.388 . S
Gd178 O217 2.386 . S
Gd178 O221 2.307 . S
Gd178 C231 2.805 . S
Gd179 N174 2.622 . S
Gd179 N180 2.570 . S
Gd179 O211 2.386 . S
Gd179 O215 2.307 . S
Gd179 O218 2.353 . S
Gd179 O219 2.468 . S
Gd179 O220 2.427 . S
Gd179 O222 2.388 . S
Gd179 C243 2.805 . S
N180 C170 1.359 . S
N180 Gd179 2.570 . S
N180 C182 1.343 . S
C181 C169 1.422 . S
C181 C183 1.321 . S
C181 H189 0.931 . S
C182 N180 1.343 . S
C182 C183 1.390 . S
C182 H184 0.931 . S
C183 C181 1.321 . S
C183 C182 1.390 . S
C183 H185 0.930 . S
H184 C182 0.931 . S
H185 C183 0.930 . S
H186 C209 0.931 . S
H187 C175 0.929 . S
H188 C210 0.930 1_545 S
H189 C181 0.931 . S
H190 C171 0.930 . S
H191 C200 0.929 . S
H192 C176 0.931 . S
H193 C177 0.930 . S
H194 C232 0.930 . S
H195 C173 0.929 . S
H196 C201 0.931 . S
H197 C202 0.930 . S
N198 Gd178 2.622 . S
N198 C199 1.369 . S
N198 C200 1.338 . S
C199 N198 1.369 . S
C199 C203 1.415 . S
C199 C206 1.422 . S
C200 H191 0.929 . S
C200 N198 1.338 . S
C200 C202 1.378 . S
C201 H196 0.931 . S
C201 C202 1.348 . S
C201 C203 1.413 . S
C202 H197 0.930 . S
C202 C200 1.378 . S
C202 C201 1.348 . S
C203 C199 1.415 . S
C203 C201 1.413 . S
C203 C233 1.437 . S
H204 C233 0.929 . S
N205 Gd178 2.570 . S
N205 C206 1.359 . S
N205 C209 1.343 . S
C206 C199 1.422 . S
C206 N205 1.359 . S
C206 C208 1.421 . S
C207 C208 1.422 . S
C207 C210 1.321 . S
C207 H234 0.931 1_565 S
C208 C206 1.421 . S
C208 C207 1.422 . S
C208 C232 1.417 . S
C209 H186 0.931 . S
C209 N205 1.343 . S
C209 C210 1.390 . S
C210 H188 0.930 1_565 S
C210 C207 1.321 . S
C210 C209 1.390 . S
O211 Gd179 2.386 . S
O211 C223 1.265 . S
O212 Gd178 2.353 . S
O212 C223 1.242 . S
O213 Gd178 2.468 . S
O213 C231 1.263 . S
O214 Gd178 2.427 . S
O214 C231 1.252 . S
O215 Gd179 2.307 . S
O215 C224 1.261 . S
O216 Gd178 2.388 . S
O216 C224 1.252 . S
O217 Gd178 2.386 . S
O217 C235 1.265 . S
O218 Gd179 2.353 . S
O218 C235 1.242 . S
O219 Gd179 2.468 . S
O219 C243 1.263 . S
O220 Gd179 2.427 . S
O220 C243 1.252 . S
O221 Gd178 2.307 . S
O221 C236 1.261 . S
O222 Gd179 2.388 . S
O222 C236 1.252 . S
C223 O211 1.265 . S
C223 O212 1.242 . S
C224 O215 1.261 . S
C224 O216 1.252 . S
C225 C228 1.394 . S
C225 C230 1.370 . S
C225 C231 1.500 . S
C226 C229 1.383 . S
C226 C230 1.395 . S
C227 C228 1.396 . S
C227 C229 1.365 . S
C227 H244 0.929 . S
C228 C225 1.394 . S
C228 C227 1.396 . S
C228 H245 0.930 . S
C229 C226 1.383 . S
C229 C227 1.365 . S
C229 H246 0.931 . S
C230 C225 1.370 . S
C230 C226 1.395 . S
C230 H247 0.930 . S
C231 Gd178 2.805 . S
C231 O213 1.263 . S
C231 O214 1.252 . S
C231 C225 1.500 . S
C232 H194 0.930 . S
C232 C208 1.417 . S
C232 C233 1.329 . S
C233 C203 1.437 . S
C233 H204 0.929 . S
C233 C232 1.329 . S
H234 C207 0.931 1_545 S
C235 O217 1.265 . S
C235 O218 1.242 . S
C236 O221 1.261 . S
C236 O222 1.252 . S
C237 C240 1.394 . S
C237 C242 1.370 . S
C237 C243 1.500 . S
C238 C241 1.383 . S
C238 C242 1.395 . S
C239 C240 1.396 . S
C239 C241 1.365 . S
C239 H248 0.929 . S
C240 C237 1.394 . S
C240 C239 1.396 . S
C240 H249 0.930 . S
C241 C238 1.383 . S
C241 C239 1.365 . S
C241 H250 0.931 . S
C242 C237 1.370 . S
C242 C238 1.395 . S
C242 H251 0.930 . S
C243 Gd179 2.805 . S
C243 O219 1.263 . S
C243 O220 1.252 . S
C243 C237 1.500 . S
H244 C227 0.929 . S
H245 C228 0.930 . S
H246 C229 0.931 . S
H247 C230 0.930 . S
H248 C239 0.929 . S
H249 C240 0.930 . S
H250 C241 0.931 . S
H251 C242 0.930 . S
C252 C254 1.422 . S
C252 C256 1.415 . S
C252 N258 1.369 . S
C253 C254 1.421 . S
C253 C255 1.417 . S
C253 C265 1.421 1_554 S
C254 C252 1.422 . S
C254 C253 1.421 . S
C254 N264 1.359 . S
C255 C253 1.417 . S
C255 C257 1.329 . S
C255 H274 0.930 1_554 S
C256 C252 1.415 . S
C256 C257 1.437 . S
C256 C260 1.413 . S
C257 C255 1.329 . S
C257 C256 1.437 . S
C257 H279 0.929 . S
N258 C252 1.369 . S
N258 C259 1.338 . S
N258 Gd263 2.622 . S
C259 N258 1.338 . S
C259 C261 1.378 . S
C259 H271 0.929 . S
C260 C256 1.413 . S
C260 C261 1.348 . S
C260 H276 0.931 . S
C261 C259 1.378 . S
C261 C260 1.348 . S
C261 H277 0.930 . S
Gd262 N282 2.622 . S
Gd262 N289 2.570 1_556 S
Gd262 O296 2.353 . S
Gd262 O297 2.468 . S
Gd262 O298 2.427 . S
Gd262 O300 2.388 . S
Gd262 O301 2.386 1_556 S
Gd262 O305 2.307 1_556 S
Gd262 C315 2.805 . S
Gd263 N258 2.622 . S
Gd263 N264 2.570 . S
Gd263 O295 2.386 1_554 S
Gd263 O299 2.307 . S
Gd263 O302 2.353 . S
Gd263 O303 2.468 . S
Gd263 O304 2.427 . S
Gd263 O306 2.388 . S
Gd263 C327 2.805 . S
N264 C254 1.359 . S
N264 Gd263 2.570 . S
N264 C266 1.343 . S
C265 C253 1.421 1_556 S
C265 C267 1.320 1_556 S
C265 H273 0.933 . S
C266 N264 1.343 . S
C266 C267 1.390 . S
C266 H268 0.931 . S
C267 C265 1.320 1_554 S
C267 C266 1.390 . S
C267 H269 0.925 1_554 S
H268 C266 0.931 . S
H269 C267 0.925 1_556 S
H270 C293 0.931 . S
H271 C259 0.929 . S
H272 C294 0.930 . S
H273 C265 0.933 . S
H274 C255 0.930 1_556 S
H275 C284 0.929 . S
H276 C260 0.931 . S
H277 C261 0.930 . S
H278 C316 0.930 . S
H279 C257 0.929 . S
H280 C285 0.931 . S
H281 C286 0.930 . S
N282 Gd262 2.622 . S
N282 C283 1.368 1_556 S
N282 C284 1.338 . S
C283 N282 1.368 1_554 S
C283 C287 1.415 . S
C283 C290 1.422 . S
C284 H275 0.929 . S
C284 N282 1.338 . S
C284 C286 1.378 1_655 S
C285 H280 0.931 . S
C285 C286 1.348 1_554 S
C285 C287 1.413 1_455 S
C286 H281 0.930 . S
C286 C284 1.378 1_455 S
C286 C285 1.348 1_556 S
C287 C283 1.415 . S
C287 C285 1.413 1_655 S
C287 C317 1.437 1_655 S
H288 C317 0.929 . S
N289 Gd262 2.570 1_554 S
N289 C290 1.359 . S
N289 C293 1.343 . S
C290 C283 1.422 . S
C290 N289 1.359 . S
C290 C292 1.421 . S
C291 C292 1.422 . S
C291 C294 1.321 . S
C291 H318 0.931 . S
C292 C290 1.421 . S
C292 C291 1.422 . S
C292 C316 1.417 . S
C293 H270 0.931 . S
C293 N289 1.343 . S
C293 C294 1.390 . S
C294 H272 0.930 . S
C294 C291 1.321 . S
C294 C293 1.390 . S
O295 Gd263 2.386 1_556 S
O295 C307 1.265 . S
O296 Gd262 2.353 . S
O296 C307 1.242 . S
O297 Gd262 2.468 . S
O297 C315 1.263 . S
O298 Gd262 2.427 . S
O298 C315 1.252 . S
O299 Gd263 2.307 . S
O299 C308 1.261 . S
O300 Gd262 2.388 . S
O300 C308 1.252 1_556 S
O301 Gd262 2.386 1_554 S
O301 C319 1.265 . S
O302 Gd263 2.353 . S
O302 C319 1.242 . S
O303 Gd263 2.468 . S
O303 C327 1.263 . S
O304 Gd263 2.427 . S
O304 C327 1.252 . S
O305 Gd262 2.307 1_554 S
O305 C320 1.261 . S
O306 Gd263 2.388 . S
O306 C320 1.252 . S
C307 O295 1.265 . S
C307 O296 1.242 . S
C308 O299 1.261 . S
C308 O300 1.252 1_554 S
C309 C312 1.394 . S
C309 C314 1.370 . S
C309 C315 1.500 . S
C310 C313 1.383 . S
C310 C314 1.395 . S
C311 C312 1.396 . S
C311 C313 1.365 . S
C311 H328 0.929 . S
C312 C309 1.394 . S
C312 C311 1.396 . S
C312 H329 0.930 . S
C313 C310 1.383 . S
C313 C311 1.365 . S
C313 H330 0.931 . S
C314 C309 1.370 . S
C314 C310 1.395 . S
C314 H331 0.930 . S
C315 Gd262 2.805 . S
C315 O297 1.263 . S
C315 O298 1.252 . S
C315 C309 1.500 . S
C316 H278 0.930 . S
C316 C292 1.417 . S
C316 C317 1.329 1_655 S
C317 C287 1.437 1_455 S
C317 H288 0.929 . S
C317 C316 1.329 1_455 S
H318 C291 0.931 . S
C319 O301 1.265 . S
C319 O302 1.242 . S
C320 O305 1.261 . S
C320 O306 1.252 . S
C321 C324 1.394 . S
C321 C326 1.370 . S
C321 C327 1.500 . S
C322 C325 1.383 . S
C322 C326 1.395 . S
C323 C324 1.396 . S
C323 C325 1.365 . S
C323 H332 0.929 . S
C324 C321 1.394 . S
C324 C323 1.396 . S
C324 H333 0.930 . S
C325 C322 1.383 . S
C325 C323 1.365 . S
C325 H334 0.931 . S
C326 C321 1.370 . S
C326 C322 1.395 . S
C326 H335 0.930 . S
C327 Gd263 2.805 . S
C327 O303 1.263 . S
C327 O304 1.252 . S
C327 C321 1.500 . S
H328 C311 0.929 . S
H329 C312 0.930 . S
H330 C313 0.931 . S
H331 C314 0.930 . S
H332 C323 0.929 . S
H333 C324 0.930 . S
H334 C325 0.931 . S
H335 C326 0.930 . S
C336 C338 1.422 . S
C336 C340 1.415 . S
C336 N342 1.369 . S
C337 C338 1.421 . S
C337 C339 1.417 . S
C337 C349 1.422 . S
C338 C336 1.422 . S
C338 C337 1.421 . S
C338 N348 1.359 . S
C339 C337 1.417 . S
C339 C341 1.329 . S
C339 H358 0.930 . S
C340 C336 1.415 . S
C340 C341 1.437 . S
C340 C344 1.413 . S
C341 C339 1.329 . S
C341 C340 1.437 . S
C341 H363 0.929 . S
N342 C336 1.369 . S
N342 C343 1.338 . S
N342 Gd347 2.622 . S
C343 N342 1.338 . S
C343 C345 1.378 . S
C343 H355 0.929 . S
C344 C340 1.413 . S
C344 C345 1.348 . S
C344 H360 0.931 . S
C345 C343 1.378 . S
C345 C344 1.348 . S
C345 H361 0.930 . S
Gd346 N366 2.622 . S
Gd346 N373 2.570 . S
Gd346 O380 2.353 . S
Gd346 O381 2.468 . S
Gd346 O382 2.427 . S
Gd346 O384 2.388 . S
Gd346 O385 2.386 . S
Gd346 O389 2.307 . S
Gd346 C399 2.805 . S
Gd347 N342 2.622 . S
Gd347 N348 2.570 . S
Gd347 O379 2.386 . S
Gd347 O383 2.307 . S
Gd347 O386 2.353 . S
Gd347 O387 2.468 . S
Gd347 O388 2.427 . S
Gd347 O390 2.388 . S
Gd347 C411 2.805 . S
N348 C338 1.359 . S
N348 Gd347 2.570 . S
N348 C350 1.343 . S
C349 C337 1.422 . S
C349 C351 1.321 . S
C349 H357 0.931 . S
C350 N348 1.343 . S
C350 C351 1.390 . S
C350 H352 0.931 . S
C351 C349 1.321 . S
C351 C350 1.390 . S
C351 H353 0.930 . S
H352 C350 0.931 . S
H353 C351 0.930 . S
H354 C377 0.931 . S
H355 C343 0.929 . S
H356 C378 0.930 1_655 S
H357 C349 0.931 . S
H358 C339 0.930 . S
H359 C368 0.929 . S
H360 C344 0.931 . S
H361 C345 0.930 . S
H362 C400 0.930 . S
H363 C341 0.929 . S
H364 C369 0.931 . S
H365 C370 0.930 . S
N366 Gd346 2.622 . S
N366 C367 1.369 . S
N366 C368 1.338 . S
C367 N366 1.369 . S
C367 C371 1.415 . S
C367 C374 1.422 . S
C368 H359 0.929 . S
C368 N366 1.338 . S
C368 C370 1.378 1_565 S
C369 H364 0.931 . S
C369 C370 1.348 . S
C369 C371 1.413 1_545 S
C370 H365 0.930 . S
C370 C368 1.378 1_545 S
C370 C369 1.348 . S
C371 C367 1.415 . S
C371 C369 1.413 1_565 S
C371 C401 1.437 1_565 S
H372 C401 0.929 . S
N373 Gd346 2.570 . S
N373 C374 1.359 . S
N373 C377 1.343 . S
C374 C367 1.422 . S
C374 N373 1.359 . S
C374 C376 1.421 . S
C375 C376 1.422 . S
C375 C378 1.321 . S
C375 H402 0.931 1_455 S
C376 C374 1.421 . S
C376 C375 1.422 . S
C376 C400 1.417 . S
C377 H354 0.931 . S
C377 N373 1.343 . S
C377 C378 1.390 . S
C378 H356 0.930 1_455 S
C378 C375 1.321 . S
C378 C377 1.390 . S
O379 Gd347 2.386 . S
O379 C391 1.265 . S
O380 Gd346 2.353 . S
O380 C391 1.242 . S
O381 Gd346 2.468 . S
O381 C399 1.263 . S
O382 Gd346 2.427 . S
O382 C399 1.252 . S
O383 Gd347 2.307 . S
O383 C392 1.261 . S
O384 Gd346 2.388 . S
O384 C392 1.252 . S
O385 Gd346 2.386 . S
O385 C403 1.265 . S
O386 Gd347 2.353 . S
O386 C403 1.242 . S
O387 Gd347 2.468 . S
O387 C411 1.263 . S
O388 Gd347 2.427 . S
O388 C411 1.252 . S
O389 Gd346 2.307 . S
O389 C404 1.261 . S
O390 Gd347 2.388 . S
O390 C404 1.252 . S
C391 O379 1.265 . S
C391 O380 1.242 . S
C392 O383 1.261 . S
C392 O384 1.252 . S
C393 C396 1.394 . S
C393 C398 1.370 . S
C393 C399 1.500 . S
C394 C397 1.383 . S
C394 C398 1.395 . S
C395 C396 1.396 . S
C395 C397 1.365 . S
C395 H412 0.929 . S
C396 C393 1.394 . S
C396 C395 1.396 . S
C396 H413 0.930 . S
C397 C394 1.383 . S
C397 C395 1.365 . S
C397 H414 0.931 . S
C398 C393 1.370 . S
C398 C394 1.395 . S
C398 H415 0.930 . S
C399 Gd346 2.805 . S
C399 O381 1.263 . S
C399 O382 1.252 . S
C399 C393 1.500 . S
C400 H362 0.930 . S
C400 C376 1.417 . S
C400 C401 1.329 1_565 S
C401 C371 1.437 1_545 S
C401 H372 0.929 . S
C401 C400 1.329 1_545 S
H402 C375 0.931 1_655 S
C403 O385 1.265 . S
C403 O386 1.242 . S
C404 O389 1.261 . S
C404 O390 1.252 . S
C405 C408 1.394 . S
C405 C410 1.370 . S
C405 C411 1.500 . S
C406 C409 1.383 . S
C406 C410 1.395 . S
C407 C408 1.396 . S
C407 C409 1.365 . S
C407 H416 0.929 . S
C408 C405 1.394 . S
C408 C407 1.396 . S
C408 H417 0.930 . S
C409 C406 1.383 . S
C409 C407 1.365 . S
C409 H418 0.931 . S
C410 C405 1.370 . S
C410 C406 1.395 . S
C410 H419 0.930 . S
C411 Gd347 2.805 . S
C411 O387 1.263 . S
C411 O388 1.252 . S
C411 C405 1.500 . S
H412 C395 0.929 . S
H413 C396 0.930 . S
H414 C397 0.931 . S
H415 C398 0.930 . S
H416 C407 0.929 . S
H417 C408 0.930 . S
H418 C409 0.931 . S
H419 C410 0.930 . S
C420 C422 1.422 . S
C420 C424 1.415 . S
C420 N426 1.369 . S
C421 C422 1.421 . S
C421 C423 1.417 . S
C421 C433 1.422 . S
C422 C420 1.422 . S
C422 C421 1.421 . S
C422 N432 1.359 . S
C423 C421 1.417 . S
C423 C425 1.329 . S
C423 H442 0.930 . S
C424 C420 1.415 . S
C424 C425 1.437 . S
C424 C428 1.413 . S
C425 C423 1.329 . S
C425 C424 1.437 . S
C425 H447 0.929 . S
N426 C420 1.369 . S
N426 C427 1.338 . S
N426 Gd431 2.622 . S
C427 N426 1.338 . S
C427 C429 1.378 . S
C427 H439 0.929 . S
C428 C424 1.413 . S
C428 C429 1.348 . S
C428 H444 0.931 . S
C429 C427 1.378 . S
C429 C428 1.348 . S
C429 H445 0.930 . S
Gd430 N450 2.622 . S
Gd430 N457 2.570 . S
Gd430 O464 2.353 . S
Gd430 O465 2.468 . S
Gd430 O466 2.427 . S
Gd430 O468 2.388 . S
Gd430 O469 2.386 . S
Gd430 O473 2.307 . S
Gd430 C483 2.805 . S
Gd431 N426 2.622 . S
Gd431 N432 2.570 . S
Gd431 O463 2.386 . S
Gd431 O467 2.307 . S
Gd431 O470 2.353 . S
Gd431 O471 2.468 . S
Gd431 O472 2.427 . S
Gd431 O474 2.388 . S
Gd431 C495 2.805 . S
N432 C422 1.359 . S
N432 Gd431 2.570 . S
N432 C434 1.343 . S
C433 C421 1.422 . S
C433 C435 1.321 . S
C433 H441 0.931 . S
C434 N432 1.343 . S
C434 C435 1.390 . S
C434 H436 0.931 . S
C435 C433 1.321 . S
C435 C434 1.390 . S
C435 H437 0.930 . S
H436 C434 0.931 . S
H437 C435 0.930 . S
H438 C461 0.931 . S
H439 C427 0.929 . S
H440 C462 0.930 1_565 S
H441 C433 0.931 . S
H442 C423 0.930 . S
H443 C452 0.929 . S
H444 C428 0.931 . S
H445 C429 0.930 . S
H446 C484 0.930 . S
H447 C425 0.929 . S
H448 C453 0.931 . S
H449 C454 0.930 . S
N450 Gd430 2.622 . S
N450 C451 1.369 . S
N450 C452 1.338 . S
C451 N450 1.369 . S
C451 C455 1.415 . S
C451 C458 1.422 . S
C452 H443 0.929 . S
C452 N450 1.338 . S
C452 C454 1.378 . S
C453 H448 0.931 . S
C453 C454 1.348 . S
C453 C455 1.413 . S
C454 H449 0.930 . S
C454 C452 1.378 . S
C454 C453 1.348 . S
C455 C451 1.415 . S
C455 C453 1.413 . S
C455 C485 1.437 . S
H456 C485 0.929 . S
N457 Gd430 2.570 . S
N457 C458 1.359 . S
N457 C461 1.343 . S
C458 C451 1.422 . S
C458 N457 1.359 . S
C458 C460 1.421 . S
C459 C460 1.422 . S
C459 C462 1.321 . S
C459 H486 0.931 1_545 S
C460 C458 1.421 . S
C460 C459 1.422 . S
C460 C484 1.417 . S
C461 H438 0.931 . S
C461 N457 1.343 . S
C461 C462 1.390 . S
C462 H440 0.930 1_545 S
C462 C459 1.321 . S
C462 C461 1.390 . S
O463 Gd431 2.386 . S
O463 C475 1.265 . S
O464 Gd430 2.353 . S
O464 C475 1.242 . S
O465 Gd430 2.468 . S
O465 C483 1.263 . S
O466 Gd430 2.427 . S
O466 C483 1.252 . S
O467 Gd431 2.307 . S
O467 C476 1.261 . S
O468 Gd430 2.388 . S
O468 C476 1.252 . S
O469 Gd430 2.386 . S
O469 C487 1.265 . S
O470 Gd431 2.353 . S
O470 C487 1.242 . S
O471 Gd431 2.468 . S
O471 C495 1.263 . S
O472 Gd431 2.427 . S
O472 C495 1.252 . S
O473 Gd430 2.307 . S
O473 C488 1.261 . S
O474 Gd431 2.388 . S
O474 C488 1.252 . S
C475 O463 1.265 . S
C475 O464 1.242 . S
C476 O467 1.261 . S
C476 O468 1.252 . S
C477 C480 1.394 . S
C477 C482 1.370 . S
C477 C483 1.500 . S
C478 C481 1.383 . S
C478 C482 1.395 . S
C479 C480 1.396 . S
C479 C481 1.365 . S
C479 H496 0.929 . S
C480 C477 1.394 . S
C480 C479 1.396 . S
C480 H497 0.930 . S
C481 C478 1.383 . S
C481 C479 1.365 . S
C481 H498 0.931 . S
C482 C477 1.370 . S
C482 C478 1.395 . S
C482 H499 0.930 . S
C483 Gd430 2.805 . S
C483 O465 1.263 . S
C483 O466 1.252 . S
C483 C477 1.500 . S
C484 H446 0.930 . S
C484 C460 1.417 . S
C484 C485 1.329 . S
C485 C455 1.437 . S
C485 H456 0.929 . S
C485 C484 1.329 . S
H486 C459 0.931 1_565 S
C487 O469 1.265 . S
C487 O470 1.242 . S
C488 O473 1.261 . S
C488 O474 1.252 . S
C489 C492 1.394 . S
C489 C494 1.370 . S
C489 C495 1.500 . S
C490 C493 1.383 . S
C490 C494 1.395 . S
C491 C492 1.396 . S
C491 C493 1.365 . S
C491 H500 0.929 . S
C492 C489 1.394 . S
C492 C491 1.396 . S
C492 H501 0.930 . S
C493 C490 1.383 . S
C493 C491 1.365 . S
C493 H502 0.931 . S
C494 C489 1.370 . S
C494 C490 1.395 . S
C494 H503 0.930 . S
C495 Gd431 2.805 . S
C495 O471 1.263 . S
C495 O472 1.252 . S
C495 C489 1.500 . S
H496 C479 0.929 . S
H497 C480 0.930 . S
H498 C481 0.931 . S
H499 C482 0.930 . S
H500 C491 0.929 . S
H501 C492 0.930 . S
H502 C493 0.931 . S
H503 C494 0.930 . S
H504 C512 0.950 . S
H505 C517 0.950 . S
H506 C514 0.950 . S
H507 C516 0.950 . S
H508 C518 0.950 . S
H509 C520 0.950 . S
H510 C522 0.950 . S
H511 C523 0.950 . S
C512 H504 0.950 . S
C512 C513 1.386 . S
C512 C514 1.391 . S
C513 C512 1.386 . S
C513 C517 1.393 . S
C514 H506 0.950 . S
C514 C512 1.391 . S
C514 C515 1.400 . S
C515 C514 1.400 . S
C515 C516 1.398 . S
C515 C521 1.491 . S
C516 H507 0.950 . S
C516 C515 1.398 . S
C516 C517 1.391 . S
C517 H505 0.950 . S
C517 C513 1.393 . S
C517 C516 1.391 . S
C518 H508 0.950 . S
C518 C519 1.386 . S
C518 C520 1.391 . S
C519 C518 1.386 . S
C519 C523 1.393 . S
C520 H509 0.950 . S
C520 C518 1.391 . S
C520 C521 1.400 . S
C521 C515 1.491 . S
C521 C520 1.400 . S
C521 C522 1.398 . S
C522 H510 0.950 . S
C522 C521 1.398 . S
C522 C523 1.391 . S
C523 H511 0.950 . S
C523 C519 1.393 . S
C523 C522 1.391 . S
H524 C532 0.950 . S
H525 C537 0.950 . S
H526 C534 0.950 . S
H527 C536 0.950 . S
H528 C538 0.950 . S
H529 C540 0.950 . S
H530 C542 0.950 . S
H531 C543 0.950 . S
C532 H524 0.950 . S
C532 C533 1.386 . S
C532 C534 1.391 . S
C533 C532 1.386 . S
C533 C537 1.393 . S
C534 H526 0.950 . S
C534 C532 1.391 . S
C534 C535 1.400 . S
C535 C534 1.400 . S
C535 C536 1.398 . S
C535 C541 1.491 . S
C536 H527 0.950 . S
C536 C535 1.398 . S
C536 C537 1.391 . S
C537 H525 0.950 . S
C537 C533 1.393 . S
C537 C536 1.391 . S
C538 H528 0.950 . S
C538 C539 1.386 . S
C538 C540 1.391 . S
C539 C538 1.386 . S
C539 C543 1.393 . S
C540 H529 0.950 . S
C540 C538 1.391 . S
C540 C541 1.400 . S
C541 C535 1.491 . S
C541 C540 1.400 . S
C541 C542 1.398 . S
C542 H530 0.950 . S
C542 C541 1.398 . S
C542 C543 1.391 . S
C543 H531 0.950 . S
C543 C539 1.393 . S
C543 C542 1.391 . S
H544 C552 0.950 . S
H545 C557 0.950 . S
H546 C554 0.950 . S
H547 C556 0.950 . S
H548 C558 0.950 . S
H549 C560 0.950 . S
H550 C562 0.950 . S
H551 C563 0.950 . S
C552 H544 0.950 . S
C552 C553 1.386 . S
C552 C554 1.391 . S
C553 C552 1.386 . S
C553 C557 1.393 . S
C554 H546 0.950 . S
C554 C552 1.391 . S
C554 C555 1.400 . S
C555 C554 1.400 . S
C555 C556 1.398 . S
C555 C561 1.491 . S
C556 H547 0.950 . S
C556 C555 1.398 . S
C556 C557 1.391 . S
C557 H545 0.950 . S
C557 C553 1.393 . S
C557 C556 1.391 . S
C558 H548 0.950 . S
C558 C559 1.386 . S
C558 C560 1.391 . S
C559 C558 1.386 . S
C559 C563 1.393 . S
C560 H549 0.950 . S
C560 C558 1.391 . S
C560 C561 1.400 . S
C561 C555 1.491 . S
C561 C560 1.400 . S
C561 C562 1.398 . S
C562 H550 0.950 . S
C562 C561 1.398 . S
C562 C563 1.391 . S
C563 H551 0.950 . S
C563 C559 1.393 . S
C563 C562 1.391 . S
H564 C572 0.950 . S
H565 C577 0.950 . S
H566 C574 0.950 . S
H567 C576 0.950 . S
H568 C578 0.950 . S
H569 C580 0.950 . S
H570 C582 0.950 . S
H571 C583 0.950 . S
C572 H564 0.950 . S
C572 C573 1.386 . S
C572 C574 1.391 . S
C573 C572 1.386 . S
C573 C577 1.393 . S
C574 H566 0.950 . S
C574 C572 1.391 . S
C574 C575 1.400 . S
C575 C574 1.400 . S
C575 C576 1.398 . S
C575 C581 1.491 . S
C576 H567 0.950 . S
C576 C575 1.398 . S
C576 C577 1.391 . S
C577 H565 0.950 . S
C577 C573 1.393 . S
C577 C576 1.391 . S
C578 H568 0.950 . S
C578 C579 1.386 . S
C578 C580 1.391 . S
C579 C578 1.386 . S
C579 C583 1.393 . S
C580 H569 0.950 . S
C580 C578 1.391 . S
C580 C581 1.400 . S
C581 C575 1.491 . S
C581 C580 1.400 . S
C581 C582 1.398 . S
C582 H570 0.950 . S
C582 C581 1.398 . S
C582 C583 1.391 . S
C583 H571 0.950 . S
C583 C579 1.393 . S
C583 C582 1.391 . S
H584 C592 0.950 . S
H585 C597 0.950 . S
H586 C594 0.950 . S
H587 C596 0.950 . S
H588 C598 0.950 . S
H589 C600 0.950 . S
H590 C602 0.950 . S
H591 C603 0.950 . S
C592 H584 0.950 . S
C592 C593 1.386 . S
C592 C594 1.391 . S
C593 C592 1.386 . S
C593 C597 1.393 . S
C594 H586 0.950 . S
C594 C592 1.391 . S
C594 C595 1.400 . S
C595 C594 1.400 . S
C595 C596 1.398 . S
C595 C601 1.491 . S
C596 H587 0.950 . S
C596 C595 1.398 . S
C596 C597 1.391 . S
C597 H585 0.950 . S
C597 C593 1.393 . S
C597 C596 1.391 . S
C598 H588 0.950 . S
C598 C599 1.386 . S
C598 C600 1.391 . S
C599 C598 1.386 . S
C599 C603 1.393 . S
C600 H589 0.950 . S
C600 C598 1.391 . S
C600 C601 1.400 . S
C601 C595 1.491 . S
C601 C600 1.400 . S
C601 C602 1.398 . S
C602 H590 0.950 . S
C602 C601 1.398 . S
C602 C603 1.391 . S
C603 H591 0.950 . S
C603 C599 1.393 . S
C603 C602 1.391 . S
H604 C612 0.950 . S
H605 C617 0.950 . S
H606 C614 0.950 . S
H607 C616 0.950 . S
H608 C618 0.950 . S
H609 C620 0.950 . S
H610 C622 0.950 . S
H611 C623 0.950 . S
C612 H604 0.950 . S
C612 C613 1.386 . S
C612 C614 1.391 . S
C613 C612 1.386 . S
C613 C617 1.393 . S
C614 H606 0.950 . S
C614 C612 1.391 . S
C614 C615 1.400 . S
C615 C614 1.400 . S
C615 C616 1.398 . S
C615 C621 1.491 . S
C616 H607 0.950 . S
C616 C615 1.398 . S
C616 C617 1.391 . S
C617 H605 0.950 . S
C617 C613 1.393 . S
C617 C616 1.391 . S
C618 H608 0.950 . S
C618 C619 1.386 . S
C618 C620 1.391 . S
C619 C618 1.386 . S
C619 C623 1.393 . S
C620 H609 0.950 . S
C620 C618 1.391 . S
C620 C621 1.400 . S
C621 C615 1.491 . S
C621 C620 1.400 . S
C621 C622 1.398 . S
C622 H610 0.950 . S
C622 C621 1.398 . S
C622 C623 1.391 . S
C623 H611 0.950 . S
C623 C619 1.393 . S
C623 C622 1.391 . S
H624 C632 0.950 . S
H625 C637 0.950 . S
H626 C634 0.950 . S
H627 C636 0.950 . S
H628 C638 0.950 . S
H629 C640 0.950 . S
H630 C642 0.950 . S
H631 C643 0.950 . S
C632 H624 0.950 . S
C632 C633 1.386 . S
C632 C634 1.391 . S
C633 C632 1.386 . S
C633 C637 1.393 . S
C634 H626 0.950 . S
C634 C632 1.391 . S
C634 C635 1.400 . S
C635 C634 1.400 . S
C635 C636 1.398 . S
C635 C641 1.491 . S
C636 H627 0.950 . S
C636 C635 1.398 . S
C636 C637 1.391 . S
C637 H625 0.950 . S
C637 C633 1.393 . S
C637 C636 1.391 . S
C638 H628 0.950 . S
C638 C639 1.386 . S
C638 C640 1.391 . S
C639 C638 1.386 . S
C639 C643 1.393 . S
C640 H629 0.950 . S
C640 C638 1.391 . S
C640 C641 1.400 . S
C641 C635 1.491 . S
C641 C640 1.400 . S
C641 C642 1.398 . S
C642 H630 0.950 . S
C642 C641 1.398 . S
C642 C643 1.391 . S
C643 H631 0.950 . S
C643 C639 1.393 . S
C643 C642 1.391 . S
H644 C652 0.950 . S
H645 C657 0.950 . S
H646 C654 0.950 1_655 S
H647 C656 0.950 . S
H648 C658 0.950 . S
H649 C660 0.950 1_455 S
H650 C662 0.950 . S
H651 C663 0.950 . S
C652 H644 0.950 . S
C652 C653 1.386 . S
C652 C654 1.391 . S
C653 C652 1.386 . S
C653 C657 1.393 . S
C654 H646 0.950 1_455 S
C654 C652 1.391 . S
C654 C655 1.400 . S
C655 C654 1.400 . S
C655 C656 1.398 . S
C655 C661 1.491 1_455 S
C656 H647 0.950 . S
C656 C655 1.398 . S
C656 C657 1.391 . S
C657 H645 0.950 . S
C657 C653 1.393 . S
C657 C656 1.391 . S
C658 H648 0.950 . S
C658 C659 1.386 . S
C658 C660 1.391 . S
C659 C658 1.386 . S
C659 C663 1.393 . S
C660 H649 0.950 1_655 S
C660 C658 1.391 . S
C660 C661 1.400 . S
C661 C655 1.491 1_655 S
C661 C660 1.400 . S
C661 C662 1.398 . S
C662 H650 0.950 . S
C662 C661 1.398 . S
C662 C663 1.391 . S
C663 H651 0.950 . S
C663 C659 1.393 . S
C663 C662 1.391 . S
H664 C672 0.950 1_565 S
H665 C677 0.950 . S
H666 C674 0.950 . S
H667 C676 0.950 . S
H668 C678 0.950 1_545 S
H669 C680 0.950 . S
H670 C682 0.950 . S
H671 C683 0.950 . S
C672 H664 0.950 1_545 S
C672 C673 1.386 . S
C672 C674 1.391 1_545 S
C673 C672 1.386 . S
C673 C677 1.393 . S
C674 H666 0.950 . S
C674 C672 1.391 1_565 S
C674 C675 1.400 1_565 S
C675 C674 1.400 1_545 S
C675 C676 1.398 . S
C675 C681 1.491 1_545 S
C676 H667 0.950 . S
C676 C675 1.398 . S
C676 C677 1.391 . S
C677 H665 0.950 . S
C677 C673 1.393 . S
C677 C676 1.391 . S
C678 H668 0.950 1_565 S
C678 C679 1.386 . S
C678 C680 1.391 1_565 S
C679 C678 1.386 . S
C679 C683 1.393 . S
C680 H669 0.950 . S
C680 C678 1.391 1_545 S
C680 C681 1.400 1_545 S
C681 C675 1.491 1_565 S
C681 C680 1.400 1_565 S
C681 C682 1.398 . S
C682 H670 0.950 . S
C682 C681 1.398 . S
C682 C683 1.391 . S
C683 H671 0.950 . S
C683 C679 1.393 . S
C683 C682 1.391 . S
H684 C692 0.950 . S
H685 C697 0.950 . S
H686 C694 0.950 . S
H687 C696 0.950 . S
H688 C698 0.950 . S
H689 C700 0.950 . S
H690 C702 0.950 . S
H691 C703 0.950 . S
C692 H684 0.950 . S
C692 C693 1.386 . S
C692 C694 1.391 . S
C693 C692 1.386 . S
C693 C697 1.393 . S
C694 H686 0.950 . S
C694 C692 1.391 . S
C694 C695 1.400 . S
C695 C694 1.400 . S
C695 C696 1.398 . S
C695 C701 1.491 . S
C696 H687 0.950 . S
C696 C695 1.398 . S
C696 C697 1.391 . S
C697 H685 0.950 . S
C697 C693 1.393 . S
C697 C696 1.391 . S
C698 H688 0.950 . S
C698 C699 1.386 . S
C698 C700 1.391 . S
C699 C698 1.386 . S
C699 C703 1.393 . S
C700 H689 0.950 . S
C700 C698 1.391 . S
C700 C701 1.400 . S
C701 C695 1.491 . S
C701 C700 1.400 . S
C701 C702 1.398 . S
C702 H690 0.950 . S
C702 C701 1.398 . S
C702 C703 1.391 . S
C703 H691 0.950 . S
C703 C699 1.393 . S
C703 C702 1.391 . S
H704 C712 0.950 . S
H705 C717 0.950 . S
H706 C714 0.950 . S
H707 C716 0.950 . S
H708 C718 0.950 . S
H709 C720 0.950 . S
H710 C722 0.950 . S
H711 C723 0.950 . S
C712 H704 0.950 . S
C712 C713 1.386 . S
C712 C714 1.391 1_455 S
C713 C712 1.386 . S
C713 C717 1.393 . S
C714 H706 0.950 . S
C714 C712 1.391 1_655 S
C714 C715 1.400 1_655 S
C715 C714 1.400 1_455 S
C715 C716 1.398 . S
C715 C721 1.491 1_455 S
C716 H707 0.950 . S
C716 C715 1.398 . S
C716 C717 1.391 . S
C717 H705 0.950 . S
C717 C713 1.393 . S
C717 C716 1.391 . S
C718 H708 0.950 . S
C718 C719 1.386 . S
C718 C720 1.391 1_655 S
C719 C718 1.386 . S
C719 C723 1.393 . S
C720 H709 0.950 . S
C720 C718 1.391 1_455 S
C720 C721 1.400 1_455 S
C721 C715 1.491 1_655 S
C721 C720 1.400 1_655 S
C721 C722 1.398 . S
C722 H710 0.950 . S
C722 C721 1.398 . S
C722 C723 1.391 . S
C723 H711 0.950 . S
C723 C719 1.393 . S
C723 C722 1.391 . S
H724 C732 0.950 . S
H725 C737 0.950 . S
H726 C734 0.950 . S
H727 C736 0.950 . S
H728 C738 0.950 . S
H729 C740 0.950 . S
H730 C742 0.950 . S
H731 C743 0.950 . S
C732 H724 0.950 . S
C732 C733 1.386 . S
C732 C734 1.391 . S
C733 C732 1.386 . S
C733 C737 1.393 . S
C734 H726 0.950 . S
C734 C732 1.391 . S
C734 C735 1.400 . S
C735 C734 1.400 . S
C735 C736 1.398 1_565 S
C735 C741 1.491 1_565 S
C736 H727 0.950 . S
C736 C735 1.398 1_545 S
C736 C737 1.391 1_545 S
C737 H725 0.950 . S
C737 C733 1.393 . S
C737 C736 1.391 1_565 S
C738 H728 0.950 . S
C738 C739 1.386 . S
C738 C740 1.391 . S
C739 C738 1.386 . S
C739 C743 1.393 . S
C740 H729 0.950 . S
C740 C738 1.391 . S
C740 C741 1.400 . S
C741 C735 1.491 1_545 S
C741 C740 1.400 . S
C741 C742 1.398 1_545 S
C742 H730 0.950 . S
C742 C741 1.398 1_565 S
C742 C743 1.391 1_565 S
C743 H731 0.950 . S
C743 C739 1.393 . S
C743 C742 1.391 1_545 S
H744 C752 0.950 . S
H745 C757 0.950 . S
H746 C754 0.950 . S
H747 C756 0.950 . S
H748 C758 0.950 . S
H749 C760 0.950 . S
H750 C762 0.950 . S
H751 C763 0.950 . S
C752 H744 0.950 . S
C752 C753 1.386 . S
C752 C754 1.391 . S
C753 C752 1.386 . S
C753 C757 1.393 . S
C754 H746 0.950 . S
C754 C752 1.391 . S
C754 C755 1.400 . S
C755 C754 1.400 . S
C755 C756 1.398 . S
C755 C761 1.491 . S
C756 H747 0.950 . S
C756 C755 1.398 . S
C756 C757 1.391 . S
C757 H745 0.950 . S
C757 C753 1.393 . S
C757 C756 1.391 . S
C758 H748 0.950 . S
C758 C759 1.386 . S
C758 C760 1.391 . S
C759 C758 1.386 . S
C759 C763 1.393 . S
C760 H749 0.950 . S
C760 C758 1.391 . S
C760 C761 1.400 . S
C761 C755 1.491 . S
C761 C760 1.400 . S
C761 C762 1.398 . S
C762 H750 0.950 . S
C762 C761 1.398 . S
C762 C763 1.391 . S
C763 H751 0.950 . S
C763 C759 1.393 . S
C763 C762 1.391 . S
H764 C772 0.950 . S
H765 C777 0.950 . S
H766 C774 0.950 . S
H767 C776 0.950 . S
H768 C778 0.950 . S
H769 C780 0.950 . S
H770 C782 0.950 . S
H771 C783 0.950 . S
C772 H764 0.950 . S
C772 C773 1.386 . S
C772 C774 1.391 . S
C773 C772 1.386 . S
C773 C777 1.393 . S
C774 H766 0.950 . S
C774 C772 1.391 . S
C774 C775 1.400 . S
C775 C774 1.400 . S
C775 C776 1.398 . S
C775 C781 1.491 . S
C776 H767 0.950 . S
C776 C775 1.398 . S
C776 C777 1.391 . S
C777 H765 0.950 . S
C777 C773 1.393 . S
C777 C776 1.391 . S
C778 H768 0.950 . S
C778 C779 1.386 . S
C778 C780 1.391 . S
C779 C778 1.386 . S
C779 C783 1.393 . S
C780 H769 0.950 . S
C780 C778 1.391 . S
C780 C781 1.400 . S
C781 C775 1.491 . S
C781 C780 1.400 . S
C781 C782 1.398 . S
C782 H770 0.950 . S
C782 C781 1.398 . S
C782 C783 1.391 . S
C783 H771 0.950 . S
C783 C779 1.393 . S
C783 C782 1.391 . S
H784 C792 0.950 1_565 S
H785 C797 0.950 . S
H786 C794 0.950 . S
H787 C796 0.950 . S
H788 C798 0.950 . S
H789 C800 0.950 . S
H790 C802 0.950 . S
H791 C803 0.950 . S
C792 H784 0.950 1_545 S
C792 C793 1.386 . S
C792 C794 1.391 . S
C793 C792 1.386 . S
C793 C797 1.393 . S
C794 H786 0.950 . S
C794 C792 1.391 . S
C794 C795 1.400 . S
C795 C794 1.400 . S
C795 C796 1.398 . S
C795 C801 1.491 . S
C796 H787 0.950 . S
C796 C795 1.398 . S
C796 C797 1.391 . S
C797 H785 0.950 . S
C797 C793 1.393 . S
C797 C796 1.391 . S
C798 H788 0.950 . S
C798 C799 1.386 . S
C798 C800 1.391 . S
C799 C798 1.386 . S
C799 C803 1.393 . S
C800 H789 0.950 . S
C800 C798 1.391 . S
C800 C801 1.400 . S
C801 C795 1.491 . S
C801 C800 1.400 . S
C801 C802 1.398 . S
C802 H790 0.950 . S
C802 C801 1.398 . S
C802 C803 1.391 . S
C803 H791 0.950 . S
C803 C799 1.393 . S
C803 C802 1.391 . S
H804 C812 0.950 . S
H805 C817 0.950 . S
H806 C814 0.950 . S
H807 C816 0.950 . S
H808 C818 0.950 . S
H809 C820 0.950 . S
H810 C822 0.950 . S
H811 C823 0.950 . S
C812 H804 0.950 . S
C812 C813 1.386 . S
C812 C814 1.391 . S
C813 C812 1.386 . S
C813 C817 1.393 . S
C814 H806 0.950 . S
C814 C812 1.391 . S
C814 C815 1.400 . S
C815 C814 1.400 . S
C815 C816 1.398 . S
C815 C821 1.491 . S
C816 H807 0.950 . S
C816 C815 1.398 . S
C816 C817 1.391 . S
C817 H805 0.950 . S
C817 C813 1.393 . S
C817 C816 1.391 . S
C818 H808 0.950 . S
C818 C819 1.386 . S
C818 C820 1.391 . S
C819 C818 1.386 . S
C819 C823 1.393 . S
C820 H809 0.950 . S
C820 C818 1.391 . S
C820 C821 1.400 . S
C821 C815 1.491 . S
C821 C820 1.400 . S
C821 C822 1.398 . S
C822 H810 0.950 . S
C822 C821 1.398 . S
C822 C823 1.391 . S
C823 H811 0.950 . S
C823 C819 1.393 . S
C823 C822 1.391 . S
H824 C832 0.950 . S
H825 C837 0.950 1_455 S
H826 C834 0.950 . S
H827 C836 0.950 . S
H828 C838 0.950 . S
H829 C840 0.950 . S
H830 C842 0.950 . S
H831 C843 0.950 . S
C832 H824 0.950 . S
C832 C833 1.386 . S
C832 C834 1.391 . S
C833 C832 1.386 . S
C833 C837 1.393 . S
C834 H826 0.950 . S
C834 C832 1.391 . S
C834 C835 1.400 . S
C835 C834 1.400 . S
C835 C836 1.398 . S
C835 C841 1.491 . S
C836 H827 0.950 . S
C836 C835 1.398 . S
C836 C837 1.391 . S
C837 H825 0.950 1_655 S
C837 C833 1.393 . S
C837 C836 1.391 . S
C838 H828 0.950 . S
C838 C839 1.386 . S
C838 C840 1.391 . S
C839 C838 1.386 . S
C839 C843 1.393 . S
C840 H829 0.950 . S
C840 C838 1.391 . S
C840 C841 1.400 . S
C841 C835 1.491 . S
C841 C840 1.400 . S
C841 C842 1.398 . S
C842 H830 0.950 . S
C842 C841 1.398 . S
C842 C843 1.391 . S
C843 H831 0.950 . S
C843 C839 1.393 . S
C843 C842 1.391 . S
H844 C852 0.950 . S
H845 C857 0.950 . S
H846 C854 0.950 . S
H847 C856 0.950 . S
H848 C858 0.950 . S
H849 C860 0.950 . S
H850 C862 0.950 . S
H851 C863 0.950 . S
C852 H844 0.950 . S
C852 C853 1.386 . S
C852 C854 1.391 . S
C853 C852 1.386 . S
C853 C857 1.393 1_565 S
C854 H846 0.950 . S
C854 C852 1.391 . S
C854 C855 1.400 . S
C855 C854 1.400 . S
C855 C856 1.398 . S
C855 C861 1.491 . S
C856 H847 0.950 . S
C856 C855 1.398 . S
C856 C857 1.391 1_565 S
C857 H845 0.950 . S
C857 C853 1.393 1_545 S
C857 C856 1.391 1_545 S
C858 H848 0.950 . S
C858 C859 1.386 . S
C858 C860 1.391 . S
C859 C858 1.386 . S
C859 C863 1.393 . S
C860 H849 0.950 . S
C860 C858 1.391 . S
C860 C861 1.400 . S
C861 C855 1.491 . S
C861 C860 1.400 . S
C861 C862 1.398 . S
C862 H850 0.950 . S
C862 C861 1.398 . S
C862 C863 1.391 . S
C863 H851 0.950 . S
C863 C859 1.393 . S
C863 C862 1.391 . S
C513 C391 1.140 . S
C519 C70 0.948 . S
C533 C475 1.158 . S
C539 C154 0.998 . S
C553 C55 1.151 . S
C559 C238 0.975 . S
C573 C139 1.135 . S
C579 C322 0.940 . S
C593 C223 1.134 . S
C599 C406 0.942 . S
C613 C307 1.159 . S
C619 C490 1.005 . S
C633 C68 1.456 . S
C639 C320 1.445 . S
C653 C404 1.441 . S
C659 C152 1.439 . S
C673 C488 1.456 . S
C679 C236 1.445 . S
C693 C224 1.662 . S
C699 C476 1.666 . S
C713 C56 1.663 . S
C719 C308 1.653 . S
C733 C392 1.655 . S
C739 C140 1.665 . S
C753 C487 1.069 . S
C759 C58 0.985 . S
C773 C142 0.981 1_455 S
C779 C67 1.087 . S
C793 C226 0.997 1_545 S
C799 C151 1.095 . S
C813 C235 1.093 . S
C819 C310 0.992 . S
C833 C394 1.008 1_655 S
C839 C319 1.066 . S
C853 C478 0.981 1_565 S
C859 C403 1.071 . S
