# Generated by pormake.
# Topology bcu-f, (3)-cn, num edge types: 1
# Building blocks:
#     Node 0, Type 0, BuildingBlock: WUSLED_clean_sbu_0, # of connection points: 3
#     Node 1, Type 0, BuildingBlock: WUSLED_clean_sbu_0, # of connection points: 3
#     Node 2, Type 0, BuildingBlock: WUSLED_clean_sbu_0, # of connection points: 3
#     Node 3, Type 0, BuildingBlock: WUSLED_clean_sbu_0, # of connection points: 3
#     Node 4, Type 0, BuildingBlock: WUSLED_clean_sbu_0, # of connection points: 3
#     Node 5, Type 0, BuildingBlock: WUSLED_clean_sbu_0, # of connection points: 3
#     Node 6, Type 0, BuildingBlock: WUSLED_clean_sbu_0, # of connection points: 3
#     Node 7, Type 0, BuildingBlock: WUSLED_clean_sbu_0, # of connection points: 3
#     Node 8, Type 0, BuildingBlock: WUSLED_clean_sbu_0, # of connection points: 3
#     Node 9, Type 0, BuildingBlock: WUSLED_clean_sbu_0, # of connection points: 3
#     Node 10, Type 0, BuildingBlock: WUSLED_clean_sbu_0, # of connection points: 3
#     Node 11, Type 0, BuildingBlock: WUSLED_clean_sbu_0, # of connection points: 3
#     Node 12, Type 0, BuildingBlock: WUSLED_clean_sbu_0, # of connection points: 3
#     Node 13, Type 0, BuildingBlock: WUSLED_clean_sbu_0, # of connection points: 3
#     Node 14, Type 0, BuildingBlock: WUSLED_clean_sbu_0, # of connection points: 3
#     Node 15, Type 0, BuildingBlock: WUSLED_clean_sbu_0, # of connection points: 3
#     Edge 16, Type (0, 0), BuildingBlock: MIFKUJ_clean_linker_0, # of connection points: 2
#     Edge 17, Type (0, 0), BuildingBlock: MIFKUJ_clean_linker_0, # of connection points: 2
#     Edge 18, Type (0, 0), BuildingBlock: MIFKUJ_clean_linker_0, # of connection points: 2
#     Edge 19, Type (0, 0), BuildingBlock: MIFKUJ_clean_linker_0, # of connection points: 2
#     Edge 20, Type (0, 0), BuildingBlock: MIFKUJ_clean_linker_0, # of connection points: 2
#     Edge 21, Type (0, 0), BuildingBlock: MIFKUJ_clean_linker_0, # of connection points: 2
#     Edge 22, Type (0, 0), BuildingBlock: MIFKUJ_clean_linker_0, # of connection points: 2
#     Edge 23, Type (0, 0), BuildingBlock: MIFKUJ_clean_linker_0, # of connection points: 2
#     Edge 24, Type (0, 0), BuildingBlock: MIFKUJ_clean_linker_0, # of connection points: 2
#     Edge 25, Type (0, 0), BuildingBlock: MIFKUJ_clean_linker_0, # of connection points: 2
#     Edge 26, Type (0, 0), BuildingBlock: MIFKUJ_clean_linker_0, # of connection points: 2
#     Edge 27, Type (0, 0), BuildingBlock: MIFKUJ_clean_linker_0, # of connection points: 2
#     Edge 28, Type (0, 0), BuildingBlock: MIFKUJ_clean_linker_0, # of connection points: 2
#     Edge 29, Type (0, 0), BuildingBlock: MIFKUJ_clean_linker_0, # of connection points: 2
#     Edge 30, Type (0, 0), BuildingBlock: MIFKUJ_clean_linker_0, # of connection points: 2
#     Edge 31, Type (0, 0), BuildingBlock: MIFKUJ_clean_linker_0, # of connection points: 2
#     Edge 32, Type (0, 0), BuildingBlock: MIFKUJ_clean_linker_0, # of connection points: 2
#     Edge 33, Type (0, 0), BuildingBlock: MIFKUJ_clean_linker_0, # of connection points: 2
#     Edge 34, Type (0, 0), BuildingBlock: MIFKUJ_clean_linker_0, # of connection points: 2
#     Edge 35, Type (0, 0), BuildingBlock: MIFKUJ_clean_linker_0, # of connection points: 2
#     Edge 36, Type (0, 0), BuildingBlock: MIFKUJ_clean_linker_0, # of connection points: 2
#     Edge 37, Type (0, 0), BuildingBlock: MIFKUJ_clean_linker_0, # of connection points: 2
#     Edge 38, Type (0, 0), BuildingBlock: MIFKUJ_clean_linker_0, # of connection points: 2
#     Edge 39, Type (0, 0), BuildingBlock: MIFKUJ_clean_linker_0, # of connection points: 2
# Relax obj value: 0.004
# Max RMSD: 0.005
# Mean RMSD: 0.005
data_MOF--net-bcu-f--node1-WUSLED_clean_sbu_0--edge1-MIFKUJ_clean_linker_0
_symmetry_space_group_name_H-M    P1
_symmetry_Int_Tables_number       1
_symmetry_cell_setting            triclinic
loop_
_symmetry_equiv_pos_as_xyz
'x, y, z'
_cell_length_a     95.438249
_cell_length_b     95.282088
_cell_length_c     76.972349
_cell_angle_alpha  90.140541
_cell_angle_beta   90.08327
_cell_angle_gamma 89.930571
loop_
_atom_site_label
_atom_site_type_symbol
_atom_site_fract_x
_atom_site_fract_y
_atom_site_fract_z
_atom_type_partial_charge
C0 C 0.32764 0.13247 0.14597 0.0
C1 C 0.32233 0.14516 0.15254 0.0
C2 C 0.33622 0.14235 0.17897 0.0
C3 C 0.32658 0.15005 0.1689 0.0
C4 C 0.34163 0.12974 0.17214 0.0
C5 C 0.33736 0.12485 0.15581 0.0
U6 U 0.30871 0.13676 0.10252 0.0
O7 O 0.31405 0.12882 0.0765 0.0
O8 O 0.29435 0.1224 0.08885 0.0
C9 C 0.30283 0.12086 0.07554 0.0
C10 C 0.32294 0.1269 0.12907 0.0
C11 C 0.30484 0.10638 0.06923 0.0
C12 C 0.31853 0.08492 0.06645 0.0
C13 C 0.31683 0.09847 0.07331 0.0
C14 C 0.29622 0.08703 0.05164 0.0
C15 C 0.30823 0.07904 0.05552 0.0
C16 C 0.29457 0.10053 0.05842 0.0
C17 C 0.29139 0.17153 0.09081 0.0
C18 C 0.27434 0.17378 0.06747 0.0
C19 C 0.28419 0.19461 0.0808 0.0
C20 C 0.29225 0.18618 0.09184 0.0
C21 C 0.27506 0.18851 0.06857 0.0
C22 C 0.28247 0.16536 0.07844 0.0
C23 C 0.29972 0.16281 0.10276 0.0
O24 O 0.30932 0.1254 0.12733 0.0
O25 O 0.32893 0.13242 0.11532 0.0
O26 O 0.31222 0.1592 0.09718 0.0
O27 O 0.29293 0.15241 0.11013 0.0
H28 H 0.3148 0.15119 0.1451 0.0
H29 H 0.32208 0.15972 0.1738 0.0
H30 H 0.34925 0.12365 0.17936 0.0
H31 H 0.34161 0.11507 0.15091 0.0
H32 H 0.32783 0.079 0.06981 0.0
H33 H 0.32488 0.10278 0.0817 0.0
H34 H 0.28819 0.08295 0.04305 0.0
H35 H 0.28528 0.1065 0.05504 0.0
H36 H 0.26755 0.16876 0.05804 0.0
H37 H 0.2849 0.20591 0.08208 0.0
H38 H 0.29909 0.19112 0.1013 0.0
H39 H 0.28175 0.15405 0.07733 0.0
C40 C 0.8903 0.32823 0.14582 0.0
C41 C 0.87902 0.32097 0.15326 0.0
C42 C 0.87994 0.33616 0.17879 0.0
C43 C 0.87391 0.32487 0.16963 0.0
C44 C 0.89119 0.34344 0.17118 0.0
C45 C 0.89632 0.33949 0.15487 0.0
U46 U 0.8865 0.30973 0.10202 0.0
O47 O 0.89286 0.31653 0.07581 0.0
O48 O 0.90154 0.29718 0.08698 0.0
C49 C 0.90182 0.30614 0.07401 0.0
C50 C 0.89585 0.32426 0.12865 0.0
C51 C 0.91576 0.30978 0.06709 0.0
C52 C 0.94104 0.31202 0.07023 0.0
C53 C 0.9278 0.30988 0.07761 0.0
C54 C 0.9303 0.31448 0.04188 0.0
C55 C 0.94247 0.31409 0.0522 0.0
C56 C 0.91711 0.31232 0.04925 0.0
C57 C 0.85283 0.28986 0.09134 0.0
C58 C 0.8464 0.28219 0.06224 0.0
C59 C 0.83434 0.27266 0.08724 0.0
C60 C 0.84261 0.28093 0.09823 0.0
C61 C 0.83611 0.27322 0.06911 0.0
C62 C 0.85474 0.29039 0.07326 0.0
C63 C 0.86143 0.29844 0.10317 0.0
O64 O 0.8985 0.31083 0.12639 0.0
O65 O 0.8895 0.33001 0.11528 0.0
O66 O 0.86373 0.31144 0.09825 0.0
O67 O 0.87267 0.29224 0.10939 0.0
H68 H 0.87415 0.31231 0.14639 0.0
H69 H 0.86514 0.31916 0.17502 0.0
H70 H 0.89617 0.35207 0.17796 0.0
H71 H 0.90503 0.34521 0.14933 0.0
H72 H 0.95019 0.31156 0.07855 0.0
H73 H 0.92701 0.30796 0.09144 0.0
H74 H 0.93097 0.31632 0.02802 0.0
H75 H 0.90795 0.31233 0.04091 0.0
H76 H 0.84813 0.28273 0.04835 0.0
H77 H 0.82642 0.26596 0.09292 0.0
H78 H 0.841 0.28037 0.11214 0.0
H79 H 0.86267 0.29713 0.06768 0.0
C80 C 0.69588 0.89203 0.14661 0.0
C81 C 0.69356 0.87761 0.14896 0.0
C82 C 0.6878 0.8816 0.17945 0.0
C83 C 0.68948 0.87245 0.16521 0.0
C84 C 0.69025 0.89603 0.17702 0.0
C85 C 0.69423 0.90118 0.16075 0.0
U86 U 0.71402 0.88801 0.10266 0.0
O87 O 0.70807 0.89561 0.07674 0.0
O88 O 0.72781 0.90262 0.08859 0.0
C89 C 0.71908 0.90383 0.07546 0.0
C90 C 0.70022 0.8977 0.12964 0.0
C91 C 0.71652 0.91818 0.06908 0.0
C92 C 0.7023 0.93932 0.067 0.0
C93 C 0.70472 0.926 0.07411 0.0
C94 C 0.72358 0.93721 0.05008 0.0
C95 C 0.71163 0.94503 0.05474 0.0
C96 C 0.72596 0.92394 0.05716 0.0
C97 C 0.73156 0.85334 0.09063 0.0
C98 C 0.74828 0.85101 0.06699 0.0
C99 C 0.73881 0.83022 0.0807 0.0
C100 C 0.73084 0.83869 0.09181 0.0
C101 C 0.74771 0.83629 0.06825 0.0
C102 C 0.74023 0.85946 0.07803 0.0
C103 C 0.72338 0.86209 0.10274 0.0
O104 O 0.71379 0.89938 0.12761 0.0
O105 O 0.69405 0.89225 0.11591 0.0
O106 O 0.71072 0.86549 0.09751 0.0
O107 O 0.7302 0.87264 0.10981 0.0
H108 H 0.69492 0.87033 0.13826 0.0
H109 H 0.68784 0.86127 0.1667 0.0
H110 H 0.68891 0.90337 0.18765 0.0
H111 H 0.696 0.91233 0.1592 0.0
H112 H 0.69296 0.94502 0.0708 0.0
H113 H 0.6973 0.92174 0.08333 0.0
H114 H 0.73114 0.94137 0.04098 0.0
H115 H 0.73516 0.91808 0.05317 0.0
H116 H 0.7549 0.85599 0.0574 0.0
H117 H 0.73823 0.81893 0.08211 0.0
H118 H 0.72419 0.83379 0.10145 0.0
H119 H 0.74085 0.87077 0.07682 0.0
C120 C 0.13133 0.69794 0.14722 0.0
C121 C 0.14577 0.69635 0.15017 0.0
C122 C 0.14135 0.68999 0.18034 0.0
C123 C 0.15073 0.69235 0.16656 0.0
C124 C 0.1269 0.6917 0.17732 0.0
C125 C 0.12195 0.69562 0.16091 0.0
U126 U 0.13602 0.71566 0.10319 0.0
O127 O 0.12887 0.70941 0.07712 0.0
O128 O 0.12171 0.72935 0.08844 0.0
C129 C 0.12073 0.72047 0.07541 0.0
C130 C 0.12588 0.70214 0.13007 0.0
C131 C 0.10652 0.718 0.06854 0.0
C132 C 0.08544 0.70385 0.06544 0.0
C133 C 0.09864 0.7061 0.07299 0.0
C134 C 0.08779 0.72548 0.04925 0.0
C135 C 0.07992 0.71345 0.05332 0.0
C136 C 0.10094 0.72769 0.05675 0.0
C137 C 0.17089 0.73313 0.0921 0.0
C138 C 0.17855 0.73929 0.06297 0.0
C139 C 0.18913 0.75058 0.08796 0.0
C140 C 0.18054 0.74273 0.09897 0.0
C141 C 0.18828 0.74895 0.0698 0.0
C142 C 0.16989 0.73151 0.074 0.0
C143 C 0.16183 0.72513 0.104 0.0
O144 O 0.12426 0.71571 0.1278 0.0
O145 O 0.13154 0.69581 0.11659 0.0
O146 O 0.15858 0.7123 0.09911 0.0
O147 O 0.15115 0.73211 0.11044 0.0
H148 H 0.1532 0.69823 0.13981 0.0
H149 H 0.16192 0.69129 0.16851 0.0
H150 H 0.11939 0.68983 0.18759 0.0
H151 H 0.11077 0.69681 0.15889 0.0
H152 H 0.07969 0.69445 0.0688 0.0
H153 H 0.10275 0.69848 0.0821 0.0
H154 H 0.08378 0.73324 0.04027 0.0
H155 H 0.10682 0.73697 0.05321 0.0
H156 H 0.1777 0.73761 0.04909 0.0
H157 H 0.19628 0.75808 0.09371 0.0
H158 H 0.18139 0.74421 0.11289 0.0
H159 H 0.16244 0.72422 0.06838 0.0
C160 C 0.3266 0.89143 0.88215 0.0
C161 C 0.3288 0.87707 0.87904 0.0
C162 C 0.33485 0.88191 0.84884 0.0
C163 C 0.33292 0.87236 0.86257 0.0
C164 C 0.33247 0.89628 0.85203 0.0
C165 C 0.32842 0.90097 0.86852 0.0
U166 U 0.30875 0.88619 0.92604 0.0
O167 O 0.31498 0.89311 0.95224 0.0
O168 O 0.29508 0.90031 0.94103 0.0
C169 C 0.30388 0.90115 0.95413 0.0
C170 C 0.32234 0.89663 0.89941 0.0
C171 C 0.30635 0.91533 0.96109 0.0
C172 C 0.31558 0.93903 0.95865 0.0
C173 C 0.31388 0.92548 0.95179 0.0
C174 C 0.30237 0.93228 0.98415 0.0
C175 C 0.30969 0.94262 0.97484 0.0
C176 C 0.30072 0.9188 0.97732 0.0
C177 C 0.29118 0.85133 0.93651 0.0
C178 C 0.28223 0.84591 0.96528 0.0
C179 C 0.27595 0.83123 0.94073 0.0
C180 C 0.28401 0.83969 0.92981 0.0
C181 C 0.27494 0.83425 0.95859 0.0
C182 C 0.29023 0.85442 0.95431 0.0
C183 C 0.29927 0.86035 0.92471 0.0
O184 O 0.30879 0.89826 0.90166 0.0
O185 O 0.32861 0.8908 0.9128 0.0
O186 O 0.31203 0.86354 0.92983 0.0
O187 O 0.29238 0.87114 0.91839 0.0
H188 H 0.32738 0.8695 0.88937 0.0
H189 H 0.3348 0.86125 0.86068 0.0
H190 H 0.33358 0.90393 0.84174 0.0
H191 H 0.32666 0.91209 0.87062 0.0
H192 H 0.3212 0.94678 0.95111 0.0
H193 H 0.31828 0.92296 0.93919 0.0
H194 H 0.29791 0.93461 0.99676 0.0
H195 H 0.29492 0.91107 0.98471 0.0
H196 H 0.28154 0.84861 0.97893 0.0
H197 H 0.27059 0.82225 0.93522 0.0
H198 H 0.28461 0.83718 0.9161 0.0
H199 H 0.2956 0.86346 0.9597 0.0
C200 C 0.13187 0.32799 0.8823 0.0
C201 C 0.14614 0.32663 0.87824 0.0
C202 C 0.14177 0.3356 0.84906 0.0
C203 C 0.15106 0.33044 0.86178 0.0
C204 C 0.12747 0.33687 0.85324 0.0
C205 C 0.12258 0.3331 0.86971 0.0
U206 U 0.13647 0.3104 0.92648 0.0
O207 O 0.12973 0.31728 0.95252 0.0
O208 O 0.12189 0.29747 0.94163 0.0
C209 C 0.12121 0.30658 0.95447 0.0
C210 C 0.1265 0.32407 0.89955 0.0
C211 C 0.10707 0.30988 0.96097 0.0
C212 C 0.0824 0.31508 0.95627 0.0
C213 C 0.09589 0.31277 0.94965 0.0
C214 C 0.09124 0.31196 0.98552 0.0
C215 C 0.07989 0.31459 0.97429 0.0
C216 C 0.10467 0.30962 0.97891 0.0
C217 C 0.17085 0.29206 0.93759 0.0
C218 C 0.17403 0.27951 0.96477 0.0
C219 C 0.19305 0.28071 0.94401 0.0
C220 C 0.18461 0.28866 0.93288 0.0
C221 C 0.18786 0.276 0.96007 0.0
C222 C 0.16561 0.28749 0.95362 0.0
C223 C 0.16203 0.30019 0.92558 0.0
O224 O 0.12451 0.31057 0.90199 0.0
O225 O 0.13257 0.33029 0.91284 0.0
O226 O 0.15915 0.31309 0.93049 0.0
O227 O 0.15108 0.29349 0.91936 0.0
H228 H 0.15346 0.32262 0.88779 0.0
H229 H 0.1621 0.32919 0.85893 0.0
H230 H 0.12006 0.34096 0.84385 0.0
H231 H 0.11153 0.33423 0.87262 0.0
H232 H 0.07394 0.31723 0.94727 0.0
H233 H 0.09756 0.31307 0.93574 0.0
H234 H 0.08968 0.3113 0.99943 0.0
H235 H 0.11317 0.30737 0.98783 0.0
H236 H 0.16976 0.2762 0.97712 0.0
H237 H 0.20357 0.27804 0.93987 0.0
H238 H 0.1888 0.29207 0.92051 0.0
H239 H 0.15499 0.29005 0.95747 0.0
C240 C 0.69404 0.13234 0.88225 0.0
C241 C 0.70003 0.14459 0.87543 0.0
C242 C 0.68618 0.14202 0.84893 0.0
C243 C 0.69615 0.14938 0.85891 0.0
C244 C 0.68014 0.12981 0.85596 0.0
C245 C 0.68405 0.12503 0.87244 0.0
U246 U 0.71259 0.13701 0.92584 0.0
O247 O 0.706 0.13103 0.95222 0.0
O248 O 0.72525 0.12219 0.9411 0.0
C249 C 0.71646 0.1222 0.95422 0.0
C250 C 0.69807 0.1271 0.89953 0.0
C251 C 0.71291 0.10836 0.96142 0.0
C252 C 0.70452 0.0844 0.95826 0.0
C253 C 0.70719 0.09765 0.95109 0.0
C254 C 0.71309 0.09258 0.98614 0.0
C255 C 0.7075 0.08169 0.97588 0.0
C256 C 0.71576 0.10576 0.97896 0.0
C257 C 0.73224 0.17089 0.93581 0.0
C258 C 0.74046 0.17698 0.96478 0.0
C259 C 0.74883 0.18995 0.93984 0.0
C260 C 0.74059 0.18159 0.92891 0.0
C261 C 0.74885 0.18778 0.95794 0.0
C262 C 0.73228 0.16858 0.95381 0.0
C263 C 0.72371 0.16215 0.92408 0.0
O264 O 0.7115 0.1246 0.90174 0.0
O265 O 0.69233 0.13366 0.91277 0.0
O266 O 0.71075 0.15986 0.92909 0.0
O267 O 0.72994 0.15085 0.91805 0.0
H268 H 0.70776 0.15039 0.88284 0.0
H269 H 0.70113 0.15872 0.85386 0.0
H270 H 0.67226 0.124 0.8488 0.0
H271 H 0.67925 0.1156 0.87755 0.0
H272 H 0.70008 0.0763 0.95004 0.0
H273 H 0.70491 0.09949 0.93749 0.0
H274 H 0.71576 0.09084 0.99964 0.0
H275 H 0.72024 0.11389 0.98711 0.0
H276 H 0.74007 0.1751 0.97864 0.0
H277 H 0.75533 0.19798 0.93406 0.0
H278 H 0.74077 0.18346 0.91503 0.0
H279 H 0.72594 0.16031 0.95939 0.0
C280 C 0.89083 0.69606 0.88284 0.0
C281 C 0.87636 0.69537 0.87963 0.0
C282 C 0.88074 0.68854 0.84956 0.0
C283 C 0.87136 0.69158 0.86315 0.0
C284 C 0.89523 0.68935 0.85285 0.0
C285 C 0.90021 0.69305 0.86934 0.0
U286 U 0.88633 0.71366 0.92706 0.0
O287 O 0.89311 0.70694 0.95311 0.0
O288 O 0.90087 0.72672 0.94224 0.0
C289 C 0.90153 0.71772 0.95513 0.0
C290 C 0.89629 0.69999 0.90009 0.0
C291 C 0.91565 0.71455 0.96177 0.0
C292 C 0.93964 0.70658 0.95767 0.0
C293 C 0.92616 0.709 0.95102 0.0
C294 C 0.9321 0.71507 0.98585 0.0
C295 C 0.94279 0.70965 0.97517 0.0
C296 C 0.91869 0.71748 0.9792 0.0
C297 C 0.85187 0.73187 0.93805 0.0
C298 C 0.84872 0.74472 0.96508 0.0
C299 C 0.82959 0.74305 0.94445 0.0
C300 C 0.83804 0.73505 0.93338 0.0
C301 C 0.83483 0.74804 0.96042 0.0
C302 C 0.85716 0.73669 0.954 0.0
C303 C 0.86072 0.72373 0.92608 0.0
O304 O 0.89827 0.7135 0.90258 0.0
O305 O 0.89037 0.69376 0.91341 0.0
O306 O 0.86366 0.71087 0.93101 0.0
O307 O 0.87163 0.73046 0.91989 0.0
H308 H 0.86893 0.69778 0.88985 0.0
H309 H 0.86015 0.69122 0.861 0.0
H310 H 0.90274 0.68692 0.84274 0.0
H311 H 0.91141 0.69354 0.87157 0.0
H312 H 0.94757 0.70228 0.94913 0.0
H313 H 0.92397 0.70665 0.93751 0.0
H314 H 0.93418 0.71778 0.99928 0.0
H315 H 0.91071 0.72182 0.98766 0.0
H316 H 0.85303 0.74824 0.97736 0.0
H317 H 0.81902 0.74556 0.94035 0.0
H318 H 0.83382 0.73145 0.92108 0.0
H319 H 0.86783 0.73429 0.95782 0.0
C320 C 0.82666 0.63304 0.64663 0.0
C321 C 0.82792 0.64753 0.64962 0.0
C322 C 0.83434 0.6432 0.67983 0.0
C323 C 0.83178 0.65256 0.66605 0.0
C324 C 0.83292 0.6287 0.67677 0.0
C325 C 0.82915 0.62369 0.66031 0.0
U326 U 0.80907 0.63716 0.6023 0.0
O327 O 0.81598 0.6303 0.57631 0.0
O328 O 0.79625 0.62237 0.58717 0.0
C329 C 0.80536 0.62167 0.57438 0.0
C330 C 0.82276 0.6275 0.62939 0.0
C331 C 0.80868 0.60756 0.56759 0.0
C332 C 0.81007 0.58218 0.57076 0.0
C333 C 0.80805 0.59552 0.57807 0.0
C334 C 0.81384 0.5928 0.54261 0.0
C335 C 0.81275 0.58065 0.55286 0.0
C336 C 0.81179 0.60609 0.5499 0.0
C337 C 0.79055 0.67139 0.59076 0.0
C338 C 0.77478 0.6736 0.56608 0.0
C339 C 0.78237 0.69438 0.58165 0.0
C340 C 0.79034 0.686 0.59284 0.0
C341 C 0.77442 0.68828 0.56821 0.0
C342 C 0.78282 0.66524 0.57722 0.0
C343 C 0.79875 0.66271 0.60289 0.0
O344 O 0.80929 0.62539 0.62692 0.0
O345 O 0.82894 0.63342 0.61603 0.0
O346 O 0.81165 0.65988 0.59806 0.0
O347 O 0.79216 0.65178 0.6093 0.0
H348 H 0.82592 0.65494 0.63926 0.0
H349 H 0.83262 0.66379 0.66803 0.0
H350 H 0.83496 0.62121 0.68702 0.0
H351 H 0.82822 0.61247 0.65826 0.0
H352 H 0.80907 0.57305 0.57902 0.0
H353 H 0.80569 0.5964 0.59179 0.0
H354 H 0.81616 0.59205 0.52887 0.0
H355 H 0.81238 0.61524 0.5416 0.0
H356 H 0.76892 0.6686 0.55572 0.0
H357 H 0.78221 0.70563 0.58375 0.0
H358 H 0.79625 0.69093 0.60322 0.0
H359 H 0.78295 0.65397 0.57532 0.0
C360 C 0.39109 0.82852 0.64594 0.0
C361 C 0.37711 0.82584 0.65047 0.0
C362 C 0.38069 0.83711 0.67864 0.0
C363 C 0.37195 0.8301 0.66668 0.0
C364 C 0.3947 0.83975 0.67395 0.0
C365 C 0.39983 0.83549 0.65776 0.0
U366 U 0.38689 0.80976 0.6024 0.0
O367 O 0.39441 0.81536 0.57634 0.0
O368 O 0.40141 0.7957 0.58845 0.0
C369 C 0.40264 0.80431 0.57523 0.0
C370 C 0.39673 0.82394 0.62906 0.0
C371 C 0.417 0.80672 0.56882 0.0
C372 C 0.43743 0.82158 0.5645 0.0
C373 C 0.42415 0.81939 0.57178 0.0
C374 C 0.43667 0.79838 0.55162 0.0
C375 C 0.44378 0.81115 0.55415 0.0
C376 C 0.42342 0.79623 0.55884 0.0
C377 C 0.35214 0.79231 0.5909 0.0
C378 C 0.34956 0.77663 0.56614 0.0
C379 C 0.32908 0.784 0.58236 0.0
C380 C 0.33761 0.79198 0.59339 0.0
C381 C 0.33496 0.77616 0.56867 0.0
C382 C 0.35807 0.78467 0.57713 0.0
C383 C 0.36097 0.80054 0.60282 0.0
O384 O 0.39834 0.81032 0.62722 0.0
O385 O 0.39115 0.82995 0.61533 0.0
O386 O 0.36441 0.81314 0.5974 0.0
O387 O 0.37153 0.7937 0.60982 0.0
H388 H 0.37021 0.82046 0.64148 0.0
H389 H 0.36108 0.82805 0.66976 0.0
H390 H 0.40178 0.84492 0.68291 0.0
H391 H 0.41067 0.83757 0.6545 0.0
H392 H 0.44257 0.83157 0.56664 0.0
H393 H 0.41941 0.82765 0.57948 0.0
H394 H 0.44133 0.79001 0.54404 0.0
H395 H 0.41811 0.78636 0.55644 0.0
H396 H 0.35439 0.77086 0.55559 0.0
H397 H 0.3179 0.78375 0.58478 0.0
H398 H 0.33286 0.79782 0.60395 0.0
H399 H 0.36928 0.78489 0.57494 0.0
C400 C 0.19581 0.39157 0.6468 0.0
C401 C 0.19204 0.37742 0.64885 0.0
C402 C 0.18767 0.38131 0.67971 0.0
C403 C 0.18793 0.37236 0.66514 0.0
C404 C 0.19158 0.39543 0.67759 0.0
C405 C 0.19557 0.40051 0.66129 0.0
U406 U 0.21397 0.38727 0.60291 0.0
O407 O 0.20807 0.39479 0.57689 0.0
O408 O 0.22787 0.40163 0.58872 0.0
C409 C 0.21926 0.40273 0.57545 0.0
C410 C 0.20019 0.39716 0.62978 0.0
C411 C 0.21703 0.41696 0.56862 0.0
C412 C 0.20726 0.44051 0.5705 0.0
C413 C 0.209 0.42702 0.5775 0.0
C414 C 0.2215 0.43387 0.54578 0.0
C415 C 0.2136 0.44411 0.5546 0.0
C416 C 0.2232 0.42047 0.55273 0.0
C417 C 0.23148 0.35261 0.59106 0.0
C418 C 0.24912 0.3503 0.56846 0.0
C419 C 0.23795 0.32955 0.58011 0.0
C420 C 0.22993 0.33798 0.59122 0.0
C421 C 0.24772 0.33561 0.56871 0.0
C422 C 0.24102 0.35873 0.57946 0.0
C423 C 0.22324 0.36132 0.60316 0.0
O424 O 0.21376 0.3988 0.62775 0.0
O425 O 0.194 0.39171 0.61604 0.0
O426 O 0.21059 0.36473 0.59787 0.0
O427 O 0.23001 0.37185 0.61033 0.0
H428 H 0.19229 0.37027 0.63789 0.0
H429 H 0.18515 0.36139 0.66638 0.0
H430 H 0.19136 0.40263 0.68851 0.0
H431 H 0.19847 0.41145 0.65999 0.0
H432 H 0.20117 0.44818 0.57767 0.0
H433 H 0.20415 0.42447 0.58981 0.0
H434 H 0.22631 0.43618 0.53337 0.0
H435 H 0.22937 0.4128 0.54566 0.0
H436 H 0.25643 0.35529 0.55967 0.0
H437 H 0.23671 0.31826 0.5807 0.0
H438 H 0.22261 0.33307 0.60005 0.0
H439 H 0.24228 0.37003 0.579 0.0
C440 C 0.63158 0.19532 0.64541 0.0
C441 C 0.6429 0.20238 0.65315 0.0
C442 C 0.64167 0.18694 0.67834 0.0
C443 C 0.64787 0.19826 0.6695 0.0
C444 C 0.6304 0.17985 0.67043 0.0
C445 C 0.6254 0.18403 0.65413 0.0
U446 U 0.63589 0.21432 0.60219 0.0
O447 O 0.62958 0.20813 0.57573 0.0
O448 O 0.62109 0.22738 0.5874 0.0
C449 C 0.62089 0.21875 0.57405 0.0
C450 C 0.62614 0.19958 0.62829 0.0
C451 C 0.60698 0.21547 0.56685 0.0
C452 C 0.58373 0.20523 0.56909 0.0
C453 C 0.59696 0.20792 0.57632 0.0
C454 C 0.59051 0.21755 0.54293 0.0
C455 C 0.58035 0.21002 0.55228 0.0
C456 C 0.60368 0.22023 0.55015 0.0
C457 C 0.66991 0.23358 0.59235 0.0
C458 C 0.67359 0.24536 0.56476 0.0
C459 C 0.69144 0.24644 0.58714 0.0
C460 C 0.68306 0.23824 0.59801 0.0
C461 C 0.68681 0.25011 0.57038 0.0
C462 C 0.66521 0.23718 0.57567 0.0
C463 C 0.6612 0.22502 0.60396 0.0
O464 O 0.62373 0.21308 0.62637 0.0
O465 O 0.63244 0.19389 0.61483 0.0
O466 O 0.65865 0.21218 0.59853 0.0
O467 O 0.65006 0.23134 0.61024 0.0
H468 H 0.64789 0.21106 0.64655 0.0
H469 H 0.65667 0.20383 0.67512 0.0
H470 H 0.62529 0.1712 0.67695 0.0
H471 H 0.61666 0.17845 0.64836 0.0
H472 H 0.57619 0.1993 0.57659 0.0
H473 H 0.59936 0.20416 0.58926 0.0
H474 H 0.58822 0.22163 0.53012 0.0
H475 H 0.61127 0.22614 0.5427 0.0
H476 H 0.66963 0.24813 0.55203 0.0
H477 H 0.70163 0.24975 0.59179 0.0
H478 H 0.68686 0.23552 0.61084 0.0
H479 H 0.65504 0.23369 0.57111 0.0
C480 C 0.82805 0.39031 0.38307 0.0
C481 C 0.82199 0.37805 0.37628 0.0
C482 C 0.83582 0.38041 0.34979 0.0
C483 C 0.82582 0.37315 0.35978 0.0
C484 C 0.84195 0.39261 0.35681 0.0
C485 C 0.83808 0.3975 0.37327 0.0
U486 U 0.80967 0.38611 0.42678 0.0
O487 O 0.81616 0.39286 0.45299 0.0
O488 O 0.79666 0.40094 0.44159 0.0
C489 C 0.80553 0.40153 0.45466 0.0
C490 C 0.82396 0.39577 0.40025 0.0
C491 C 0.80885 0.41566 0.46127 0.0
C492 C 0.81468 0.44022 0.45675 0.0
C493 C 0.81235 0.42672 0.45008 0.0
C494 C 0.81036 0.43163 0.48585 0.0
C495 C 0.81361 0.44286 0.47473 0.0
C496 C 0.808 0.41818 0.47917 0.0
C497 C 0.79074 0.352 0.43754 0.0
C498 C 0.77495 0.3498 0.46213 0.0
C499 C 0.78208 0.32908 0.4461 0.0
C500 C 0.79022 0.33744 0.43513 0.0
C501 C 0.77427 0.33516 0.4597 0.0
C502 C 0.78314 0.35814 0.45119 0.0
C503 C 0.79918 0.36065 0.4257 0.0
O504 O 0.81048 0.39805 0.4024 0.0
O505 O 0.82985 0.38957 0.41363 0.0
O506 O 0.81201 0.36335 0.43094 0.0
O507 O 0.79278 0.37167 0.41917 0.0
H508 H 0.81422 0.37235 0.38368 0.0
H509 H 0.82077 0.36382 0.35474 0.0
H510 H 0.84984 0.39833 0.34965 0.0
H511 H 0.84293 0.40694 0.37836 0.0
H512 H 0.81731 0.44859 0.44785 0.0
H513 H 0.8131 0.42495 0.4362 0.0
H514 H 0.80924 0.43329 0.4997 0.0
H515 H 0.80527 0.40978 0.48799 0.0
H516 H 0.76897 0.35487 0.47231 0.0
H517 H 0.78201 0.31784 0.44401 0.0
H518 H 0.79609 0.33252 0.42473 0.0
H519 H 0.78346 0.36938 0.45328 0.0
C520 C 0.6317 0.82799 0.38179 0.0
C521 C 0.64614 0.82791 0.37829 0.0
C522 C 0.64169 0.83555 0.34856 0.0
C523 C 0.65109 0.83171 0.36184 0.0
C524 C 0.62723 0.83551 0.35214 0.0
C525 C 0.6223 0.83178 0.36861 0.0
U526 U 0.63619 0.8103 0.42589 0.0
O527 O 0.62963 0.81714 0.452 0.0
O528 O 0.62152 0.79746 0.44105 0.0
C529 C 0.62105 0.80649 0.45398 0.0
C530 C 0.62629 0.82409 0.39903 0.0
C531 C 0.60702 0.80987 0.46075 0.0
C532 C 0.58257 0.81631 0.45663 0.0
C533 C 0.59594 0.81377 0.44976 0.0
C534 C 0.59134 0.81131 0.48551 0.0
C535 C 0.5801 0.81504 0.4746 0.0
C536 C 0.60464 0.80876 0.47864 0.0
C537 C 0.67045 0.79171 0.43685 0.0
C538 C 0.67323 0.77806 0.46327 0.0
C539 C 0.69298 0.7813 0.44394 0.0
C540 C 0.68456 0.7893 0.43284 0.0
C541 C 0.6874 0.77552 0.45926 0.0
C542 C 0.66484 0.78611 0.45217 0.0
C543 C 0.66168 0.79991 0.42486 0.0
O544 O 0.62418 0.81061 0.40143 0.0
O545 O 0.63237 0.83024 0.41236 0.0
O546 O 0.65891 0.81283 0.42982 0.0
O547 O 0.65067 0.79331 0.41864 0.0
H548 H 0.65356 0.8249 0.38827 0.0
H549 H 0.66227 0.83147 0.35945 0.0
H550 H 0.61972 0.83856 0.34229 0.0
H551 H 0.61112 0.8319 0.37107 0.0
H552 H 0.57419 0.8193 0.44789 0.0
H553 H 0.59761 0.81472 0.43589 0.0
H554 H 0.58979 0.81002 0.49935 0.0
H555 H 0.61306 0.80571 0.48732 0.0
H556 H 0.66865 0.77392 0.47506 0.0
H557 H 0.70379 0.77941 0.44036 0.0
H558 H 0.68906 0.79353 0.42104 0.0
H559 H 0.65395 0.78792 0.4555 0.0
C560 C 0.19552 0.63295 0.38238 0.0
C561 C 0.19472 0.64746 0.37939 0.0
C562 C 0.18743 0.64323 0.34944 0.0
C563 C 0.19065 0.65256 0.36309 0.0
C564 C 0.18831 0.6287 0.35253 0.0
C565 C 0.1923 0.62363 0.36885 0.0
U566 U 0.2134 0.6374 0.42645 0.0
O567 O 0.20755 0.6296 0.4523 0.0
O568 O 0.22754 0.62316 0.44063 0.0
C569 C 0.21878 0.62166 0.45365 0.0
C570 C 0.1999 0.62738 0.39938 0.0
C571 C 0.21666 0.6072 0.45986 0.0
C572 C 0.20294 0.58575 0.46211 0.0
C573 C 0.20474 0.59931 0.45543 0.0
C574 C 0.22501 0.58779 0.47749 0.0
C575 C 0.21308 0.57983 0.47323 0.0
C576 C 0.22676 0.60131 0.47088 0.0
C577 C 0.23026 0.67233 0.43846 0.0
C578 C 0.24433 0.67501 0.46461 0.0
C579 C 0.24008 0.69505 0.44601 0.0
C580 C 0.23212 0.68661 0.43485 0.0
C581 C 0.24635 0.68934 0.46097 0.0
C582 C 0.23633 0.66658 0.45346 0.0
C583 C 0.22225 0.66349 0.42632 0.0
O584 O 0.21349 0.62598 0.40154 0.0
O585 O 0.19357 0.63279 0.41301 0.0
O586 O 0.20965 0.65986 0.43153 0.0
O587 O 0.22929 0.65304 0.41937 0.0
H588 H 0.19729 0.65484 0.38965 0.0
H589 H 0.19024 0.6638 0.36109 0.0
H590 H 0.18574 0.62124 0.34239 0.0
H591 H 0.19288 0.6124 0.37091 0.0
H592 H 0.1937 0.57985 0.45845 0.0
H593 H 0.19682 0.60365 0.44688 0.0
H594 H 0.23292 0.58366 0.4862 0.0
H595 H 0.23599 0.60725 0.47452 0.0
H596 H 0.24886 0.67032 0.47612 0.0
H597 H 0.24156 0.70599 0.44271 0.0
H598 H 0.22753 0.6912 0.4233 0.0
H599 H 0.23495 0.65557 0.45647 0.0
C600 C 0.39085 0.19558 0.38278 0.0
C601 C 0.37992 0.20304 0.37476 0.0
C602 C 0.38073 0.18722 0.34982 0.0
C603 C 0.37495 0.19894 0.35839 0.0
C604 C 0.39157 0.1797 0.35803 0.0
C605 C 0.39659 0.18387 0.37434 0.0
U606 U 0.38659 0.21418 0.42643 0.0
O607 O 0.39358 0.20813 0.45261 0.0
O608 O 0.40118 0.22771 0.44099 0.0
C609 C 0.40194 0.21901 0.45418 0.0
C610 C 0.39639 0.19989 0.39987 0.0
C611 C 0.4161 0.2162 0.46095 0.0
C612 C 0.438 0.2031 0.46105 0.0
C613 C 0.42467 0.20561 0.45399 0.0
C614 C 0.4343 0.22183 0.4819 0.0
C615 C 0.44295 0.21115 0.47518 0.0
C616 C 0.42103 0.22429 0.47487 0.0
C617 C 0.35211 0.23241 0.43723 0.0
C618 C 0.34851 0.24423 0.46489 0.0
C619 C 0.33027 0.24465 0.44297 0.0
C620 C 0.33873 0.23665 0.4319 0.0
C621 C 0.33505 0.24855 0.4596 0.0
C622 C 0.35697 0.23623 0.45379 0.0
C623 C 0.36092 0.22412 0.42538 0.0
O624 O 0.39844 0.21343 0.40198 0.0
O625 O 0.39048 0.19393 0.41338 0.0
O626 O 0.36398 0.21137 0.43066 0.0
O627 O 0.37176 0.23078 0.41887 0.0
H628 H 0.37526 0.21205 0.38113 0.0
H629 H 0.36649 0.20484 0.35252 0.0
H630 H 0.39635 0.17073 0.35172 0.0
H631 H 0.40502 0.17798 0.38033 0.0
H632 H 0.44434 0.19474 0.45563 0.0
H633 H 0.42103 0.19926 0.44321 0.0
H634 H 0.43785 0.22842 0.49251 0.0
H635 H 0.41459 0.23256 0.48034 0.0
H636 H 0.35246 0.24691 0.47767 0.0
H637 H 0.32006 0.24796 0.43837 0.0
H638 H 0.33485 0.23384 0.41913 0.0
H639 H 0.36729 0.23302 0.45812 0.0
H640 H 0.28919 0.95807 0.99056 0.0
H641 H 0.29099 0.98149 1.00318 0.0
H642 H 0.33433 0.98373 0.98767 0.0
H643 H 0.33269 0.96 0.9753 0.0
H644 H 0.33053 0.99315 0.02103 0.0
H645 H 0.31031 1.00212 0.96557 0.0
H646 H 0.2938 0.99897 0.94122 0.0
H647 H 0.25942 1.01006 0.97448 0.0
H648 H 0.27571 0.01307 0.99911 0.0
H649 H 0.33193 0.06714 0.04155 0.0
H650 H 0.33408 0.04424 0.02721 0.0
H651 H 0.29052 0.03585 0.03775 0.0
H652 H 0.28832 0.05861 0.05212 0.0
H653 H 0.2967 0.03039 1.0045 0.0
H654 H 0.31705 0.01967 0.06045 0.0
H655 H 0.33372 0.02272 0.08467 0.0
H656 H 0.36817 0.01516 0.05005 0.0
H657 H 0.3517 0.01224 0.02556 0.0
C658 C 0.29915 0.96348 0.98991 0.0
C659 C 0.31081 0.95713 0.98196 0.0
C660 C 0.30012 0.97694 0.997 0.0
C661 C 0.31276 0.98444 0.99623 0.0
C662 C 0.32447 0.97815 0.98837 0.0
C663 C 0.32349 0.96465 0.98119 0.0
C664 C 0.31361 0.99878 1.00385 0.0
C665 C 0.32331 1.00139 0.0172 0.0
C666 C 0.30407 1.00947 0.99903 0.0
C667 C 0.29423 1.00772 0.98423 0.0
C668 C 0.29922 1.00378 0.96773 0.0
C669 C 0.2899 1.00204 0.95387 0.0
C670 C 0.27557 1.00429 0.95631 0.0
C671 C 0.27052 1.00831 0.97261 0.0
C672 C 0.2798 1.01006 0.98652 0.0
C673 C 0.32287 0.06032 0.04104 0.0
C674 C 0.30993 0.06475 0.0479 0.0
C675 C 0.32411 0.04724 0.03281 0.0
C676 C 0.31246 0.0383 0.0314 0.0
C677 C 0.29963 0.0426 0.03855 0.0
C678 C 0.29838 0.05564 0.04674 0.0
C679 C 0.31337 0.02466 0.02201 0.0
C680 C 0.30401 0.0222 1.00824 0.0
C681 C 0.32326 0.01416 0.02643 0.0
C682 C 0.33315 0.0159 0.04114 0.0
C683 C 0.32819 0.01878 0.05797 0.0
C684 C 0.3376 0.02046 0.07175 0.0
C685 C 0.352 0.01918 0.06889 0.0
C686 C 0.35702 0.01617 0.05224 0.0
C687 C 0.34765 0.0145 0.03841 0.0
H688 H 0.35927 0.02048 0.07958 0.0
H689 H 0.26837 1.00293 0.94555 0.0
H690 H 0.96569 0.32823 0.06424 0.0
H691 H 0.98896 0.32936 0.05091 0.0
H692 H 0.97436 0.30383 1.00823 0.0
H693 H 0.95131 0.30226 0.02171 0.0
H694 H 0.99909 0.29477 0.01944 0.0
H695 H 0.97929 0.33948 1.004 0.0
H696 H 0.96811 0.3624 1.00955 0.0
H697 H 1.00314 0.37485 0.04107 0.0
H698 H 0.01444 0.35191 0.0359 0.0
H699 H 0.05539 0.3038 0.96136 0.0
H700 H 0.03202 0.30507 0.97422 0.0
H701 H 0.04838 0.3299 0.01654 0.0
H702 H 0.07172 0.32904 1.00346 0.0
H703 H 0.02306 0.33964 1.00612 0.0
H704 H 0.04282 0.29512 0.02167 0.0
H705 H 0.05411 0.27223 0.0163 0.0
H706 H 0.01914 0.25944 0.9849 0.0
H707 H 1.00772 0.28235 0.98989 0.0
C708 C 0.96746 0.3228 0.05205 0.0
C709 C 0.95658 0.31521 0.04402 0.0
C710 C 0.98073 0.32357 0.04436 0.0
C711 C 0.98339 0.31681 0.02845 0.0
C712 C 0.97257 0.30919 0.02046 0.0
C713 C 0.95933 0.30841 0.02812 0.0
C714 C 0.9975 0.31732 0.02027 0.0
C715 C 1.00423 0.3046 0.01632 0.0
C716 C 1.00441 0.33012 0.01661 0.0
C717 C 0.99764 0.34392 0.01971 0.0
C718 C 0.98456 0.34706 1.01223 0.0
C719 C 0.97821 0.36006 0.01529 0.0
C720 C 0.98489 0.37006 0.02569 0.0
C721 C 0.99796 0.36708 0.03303 0.0
C722 C 1.00435 0.35409 0.03003 0.0
C723 C 0.05399 0.30974 0.97324 0.0
C724 C 0.06547 0.31624 0.98143 0.0
C725 C 0.04063 0.31035 0.98067 0.0
C726 C 0.03848 0.31739 0.99651 0.0
C727 C 0.0498 0.32434 1.00438 0.0
C728 C 0.06316 0.32373 0.99695 0.0
C729 C 0.02454 0.3171 1.00513 0.0
C730 C 0.01788 0.32983 1.00922 0.0
C731 C 0.01768 0.30431 1.00897 0.0
C732 C 0.02448 0.2905 1.00602 0.0
C733 C 0.03759 0.28746 1.01352 0.0
C734 C 0.044 0.27448 1.01056 0.0
C735 C 0.03736 0.2644 1.00023 0.0
C736 C 0.02428 0.26727 0.99288 0.0
C737 C 0.01782 0.28025 0.99578 0.0
H738 H 0.04234 0.25435 0.99796 0.0
H739 H 0.97996 0.38012 0.02804 0.0
H740 H 0.71286 0.056 0.96108 0.0
H741 H 0.71088 0.03288 0.97456 0.0
H742 H 0.69547 0.05208 0.0216 0.0
H743 H 0.69726 0.07522 1.00816 0.0
H744 H 0.71612 0.03379 0.02848 0.0
H745 H 0.67371 0.03327 0.99535 0.0
H746 H 0.65903 0.03557 0.96913 0.0
H747 H 0.68201 1.00229 0.94447 0.0
H748 H 0.69697 0.99992 0.97046 0.0
H749 H 0.70164 0.96905 0.07028 0.0
H750 H 0.69833 0.99216 0.05706 0.0
H751 H 0.71275 0.97586 1.0079 0.0
H752 H 0.71555 0.95265 0.02082 0.0
H753 H 0.69109 0.99303 1.003 0.0
H754 H 0.73447 0.99474 0.03502 0.0
H755 H 0.74948 0.99248 0.06097 0.0
H756 H 0.7249 0.02368 0.08738 0.0
H757 H 0.70962 0.02598 0.06165 0.0
C758 C 0.70878 0.0553 0.97417 0.0
C759 C 0.70527 0.0675 0.98354 0.0
C760 C 0.70769 0.04206 0.98188 0.0
C761 C 0.70297 0.04072 0.99909 0.0
C762 C 0.69919 0.05285 1.00834 0.0
C763 C 0.70027 0.06608 1.00065 0.0
C764 C 0.70268 0.02676 1.00771 0.0
C765 C 0.71043 0.02495 0.02306 0.0
C766 C 0.69553 0.01512 1.00046 0.0
C767 C 0.68655 0.0165 0.9848 0.0
C768 C 0.67571 0.02652 0.98428 0.0
C769 C 0.66732 0.02782 0.96947 0.0
C770 C 0.6696 0.0191 0.95512 0.0
C771 C 0.68026 1.00904 0.95558 0.0
C772 C 0.68869 1.0077 0.97036 0.0
C773 C 0.70392 0.97033 0.0566 0.0
C774 C 0.70901 0.959 0.04667 0.0
C775 C 0.70214 0.98359 0.04908 0.0
C776 C 0.7055 0.98582 0.03153 0.0
C777 C 0.71015 0.97443 0.02148 0.0
C778 C 0.71189 0.96119 0.02895 0.0
C779 C 0.7046 1.00007 0.02369 0.0
C780 C 0.69666 1.00192 1.00849 0.0
C781 C 0.71161 1.01176 0.03103 0.0
C782 C 0.72081 1.01042 0.04649 0.0
C783 C 0.7322 1.00104 0.04641 0.0
C784 C 0.74077 0.99976 0.06107 0.0
C785 C 0.73812 1.0079 0.07583 0.0
C786 C 0.72692 0.01736 0.07595 0.0
C787 C 0.71831 0.01866 0.06133 0.0
H788 H 0.74477 1.0069 0.08717 0.0
H789 H 0.6631 0.02012 0.94367 0.0
H790 H 0.05562 0.70341 0.06787 0.0
H791 H 0.03269 0.70072 0.05392 0.0
H792 H 0.04999 0.71544 1.00556 0.0
H793 H 0.0729 0.718 0.01931 0.0
H794 H 0.02607 0.72887 1.01317 0.0
H795 H 0.0417 0.68098 1.01132 0.0
H796 H 0.05074 0.65879 0.0234 0.0
H797 H 0.01464 0.65559 0.05637 0.0
H798 H 1.00547 0.67788 0.04466 0.0
H799 H 0.96783 0.71542 0.95926 0.0
H800 H 0.99135 0.71397 0.97177 0.0
H801 H 0.97396 0.69861 0.01978 0.0
H802 H 0.95046 0.69952 1.00715 0.0
H803 H 0.99794 0.68512 1.01231 0.0
H804 H 0.98267 0.73308 0.01516 0.0
H805 H 0.97348 0.75538 1.00358 0.0
H806 H 1.00887 0.75861 0.96945 0.0
H807 H 0.01818 0.73621 0.98066 0.0
C808 C 0.0546 0.70587 0.0542 0.0
C809 C 0.0661 0.71102 0.04476 0.0
C810 C 0.04147 0.70434 0.04624 0.0
C811 C 0.03961 0.70784 0.02866 0.0
C812 C 0.05114 0.71275 0.01915 0.0
C813 C 0.06423 0.71426 0.02708 0.0
C814 C 0.02557 0.70703 0.0203 0.0
C815 C 0.02003 0.71923 1.01276 0.0
C816 C 0.01749 0.69457 0.02017 0.0
C817 C 0.02297 0.68117 0.02724 0.0
C818 C 0.03575 0.67561 0.02126 0.0
C819 C 0.04088 0.663 0.02802 0.0
C820 C 0.03329 0.65581 0.04068 0.0
C821 C 0.02052 0.66119 0.04658 0.0
C822 C 0.01535 0.6738 0.03987 0.0
C823 C 0.96901 0.71148 0.97237 0.0
C824 C 0.95721 0.70772 0.98224 0.0
C825 C 0.98247 0.71078 0.97957 0.0
C826 C 0.98441 0.70642 0.99683 0.0
C827 C 0.97273 0.70209 1.00647 0.0
C828 C 0.95928 0.70275 0.99928 0.0
C829 C 0.99852 0.70693 1.00508 0.0
C830 C 1.00404 0.69472 1.01266 0.0
C831 C 1.00659 0.7194 1.00533 0.0
C832 C 1.00105 0.7329 0.99862 0.0
C833 C 0.98844 0.73849 1.00509 0.0
C834 C 0.98322 0.75116 0.99861 0.0
C835 C 0.99057 0.75839 0.98576 0.0
C836 C 1.00318 0.75298 0.97939 0.0
C837 C 1.00844 0.74031 0.98581 0.0
H838 H 0.98651 0.76819 0.98076 0.0
H839 H 0.03728 0.64605 0.04589 0.0
H840 H 0.82589 0.55708 0.5656 0.0
H841 H 0.8271 0.53376 0.55222 0.0
H842 H 0.80357 0.54891 0.5082 0.0
H843 H 0.80191 0.57204 0.52171 0.0
H844 H 0.79366 0.52435 0.51866 0.0
H845 H 0.8392 0.54323 0.50604 0.0
H846 H 0.86204 0.55395 0.51299 0.0
H847 H 0.87258 0.51862 0.54499 0.0
H848 H 0.84971 0.50778 0.53842 0.0
H849 H 0.80384 0.46757 0.46113 0.0
H850 H 0.80508 0.49101 0.47401 0.0
H851 H 0.82793 0.4743 0.51772 0.0
H852 H 0.82712 0.45088 0.50463 0.0
H853 H 0.83848 0.49939 0.50793 0.0
H854 H 0.79307 0.48057 0.52074 0.0
H855 H 0.77025 0.46975 0.51393 0.0
H856 H 0.75947 0.50499 0.48189 0.0
H857 H 0.78232 0.51593 0.48831 0.0
C858 C 0.82092 0.55543 0.55312 0.0
C859 C 0.81386 0.56648 0.54471 0.0
C860 C 0.82173 0.54212 0.5454 0.0
C861 C 0.81556 0.5396 0.52909 0.0
C862 C 0.80847 0.5506 0.52074 0.0
C863 C 0.80764 0.56387 0.52843 0.0
C864 C 0.81613 0.52546 0.52086 0.0
C865 C 0.80348 0.51899 0.51611 0.0
C866 C 0.82892 0.51827 0.51793 0.0
C867 C 0.84268 0.52476 0.52188 0.0
C868 C 0.84634 0.5378 0.51467 0.0
C869 C 0.8593 0.54389 0.51852 0.0
C870 C 0.86874 0.53699 0.52947 0.0
C871 C 0.86525 0.52397 0.53654 0.0
C872 C 0.85229 0.51784 0.53275 0.0
C873 C 0.80935 0.46891 0.47333 0.0
C874 C 0.81529 0.45731 0.4819 0.0
C875 C 0.80993 0.4823 0.48077 0.0
C876 C 0.81639 0.48438 0.49699 0.0
C877 C 0.82281 0.47294 0.50525 0.0
C878 C 0.82223 0.45954 0.49782 0.0
C879 C 0.81602 0.49838 0.5056 0.0
C880 C 0.82868 0.50478 0.51047 0.0
C881 C 0.80324 0.50552 0.50869 0.0
C882 C 0.78946 0.499 0.50487 0.0
C883 C 0.78588 0.48596 0.51214 0.0
C884 C 0.77293 0.47981 0.50836 0.0
C885 C 0.76343 0.48666 0.49745 0.0
C886 C 0.76684 0.49969 0.49032 0.0
C887 C 0.77979 0.50587 0.49403 0.0
H888 H 0.75341 0.48188 0.49454 0.0
H889 H 0.87877 0.54172 0.53243 0.0
H890 H 0.55494 0.80627 0.46119 0.0
H891 H 0.53176 0.80816 0.47447 0.0
H892 H 0.54971 0.83012 0.5182 0.0
H893 H 0.57291 0.82836 0.50495 0.0
H894 H 0.53289 0.80951 0.52888 0.0
H895 H 0.52941 0.84731 0.4884 0.0
H896 H 0.53075 0.85881 0.45979 0.0
H897 H 0.49942 0.83077 0.43978 0.0
H898 H 0.49803 0.81896 0.46822 0.0
H899 H 0.46696 0.82434 0.5678 0.0
H900 H 0.48989 0.82751 0.55415 0.0
H901 H 0.47509 0.80619 0.50817 0.0
H902 H 0.45204 0.8035 0.52141 0.0
H903 H 0.49059 0.8282 0.49937 0.0
H904 H 0.49536 0.7894 0.53906 0.0
H905 H 0.49411 0.77766 0.56753 0.0
H906 H 0.52316 0.80749 0.58882 0.0
H907 H 0.52444 0.81953 0.56051 0.0
C908 C 0.55393 0.81173 0.47348 0.0
C909 C 0.56582 0.81712 0.48201 0.0
C910 C 0.54065 0.81279 0.48108 0.0
C911 C 0.53896 0.81935 0.49731 0.0
C912 C 0.55076 0.82497 0.50571 0.0
C913 C 0.56403 0.82391 0.49813 0.0
C914 C 0.525 0.81973 0.50592 0.0
C915 C 0.52369 0.81383 0.52254 0.0
C916 C 0.51292 0.82508 0.49753 0.0
C917 C 0.51371 0.83217 0.48041 0.0
C918 C 0.52289 0.84352 0.47786 0.0
C919 C 0.52364 0.85011 0.46168 0.0
C920 C 0.5152 0.8455 0.44797 0.0
C921 C 0.50597 0.83432 0.45042 0.0
C922 C 0.50518 0.82768 0.46657 0.0
C923 C 0.46853 0.82049 0.5547 0.0
C924 C 0.45767 0.81354 0.54578 0.0
C925 C 0.48169 0.82219 0.54696 0.0
C926 C 0.4843 0.8169 0.53022 0.0
C927 C 0.47337 0.81031 0.52113 0.0
C928 C 0.46022 0.80864 0.52881 0.0
C929 C 0.49848 0.81787 0.52225 0.0
C930 C 0.49982 0.824 0.50575 0.0
C931 C 0.5106 0.8127 0.53073 0.0
C932 C 0.50988 0.80545 0.54773 0.0
C933 C 0.5014 0.79352 0.54985 0.0
C934 C 0.5007 0.7868 0.56595 0.0
C935 C 0.50852 0.79185 0.57999 0.0
C936 C 0.51709 0.80361 0.57794 0.0
C937 C 0.51781 0.81038 0.56187 0.0
H938 H 0.50796 0.78663 0.59244 0.0
H939 H 0.5158 0.85062 0.43545 0.0
H940 H 0.23299 0.55937 0.47653 0.0
H941 H 0.2306 0.53632 0.48991 0.0
H942 H 0.18682 0.54446 0.49954 0.0
H943 H 0.18925 0.56781 0.48653 0.0
H944 H 0.19936 0.53321 0.52783 0.0
H945 H 0.19633 0.5218 0.46776 0.0
H946 H 0.20317 0.52192 0.43689 0.0
H947 H 0.24236 0.50235 0.4498 0.0
H948 H 0.23585 0.50229 0.4808 0.0
H949 H 0.19005 0.46077 0.55298 0.0
H950 H 0.18768 0.48377 0.53902 0.0
H951 H 0.23146 0.48275 0.52526 0.0
H952 H 0.23392 0.45993 0.5392 0.0
H953 H 0.21558 0.48999 0.49789 0.0
H954 H 0.21904 0.50348 0.55844 0.0
H955 H 0.21189 0.50342 0.58922 0.0
H956 H 0.1712 0.51891 0.57501 0.0
H957 H 0.17805 0.51888 0.5441 0.0
C958 C 0.22285 0.5563 0.48153 0.0
C959 C 0.21132 0.56546 0.48049 0.0
C960 C 0.22146 0.54304 0.48904 0.0
C961 C 0.20849 0.53857 0.49559 0.0
C962 C 0.19692 0.54766 0.49453 0.0
C963 C 0.1983 0.56095 0.48696 0.0
C964 C 0.20724 0.52454 0.50387 0.0
C965 C 0.20266 0.52371 0.52118 0.0
C966 C 0.21168 0.51216 0.49528 0.0
C967 C 0.21564 0.51213 0.47664 0.0
C968 C 0.20646 0.51761 0.46404 0.0
C969 C 0.21027 0.51766 0.44651 0.0
C970 C 0.22321 0.51217 0.44139 0.0
C971 C 0.23235 0.5066 0.45379 0.0
C972 C 0.22859 0.50654 0.47134 0.0
C973 C 0.19921 0.46554 0.54718 0.0
C974 C 0.21215 0.45845 0.54711 0.0
C975 C 0.19783 0.47867 0.53916 0.0
C976 C 0.2094 0.485 0.53107 0.0
C977 C 0.22236 0.47804 0.53127 0.0
C978 C 0.22374 0.46496 0.53923 0.0
C979 C 0.2081 0.49872 0.52199 0.0
C980 C 0.21215 0.49946 0.50449 0.0
C981 C 0.20312 0.51098 0.53039 0.0
C982 C 0.19901 0.51102 0.54895 0.0
C983 C 0.20853 0.50676 0.56187 0.0
C984 C 0.20454 0.50677 0.57933 0.0
C985 C 0.19108 0.51112 0.58406 0.0
C986 C 0.1816 0.51552 0.57133 0.0
C987 C 0.18554 0.51551 0.55384 0.0
H988 H 0.18801 0.51112 0.59759 0.0
H989 H 0.22614 0.51221 0.42781 0.0
H990 H 0.55468 0.21149 0.56828 0.0
H991 H 0.53153 0.20909 0.55491 0.0
H992 H 0.55086 0.20078 0.50533 0.0
H993 H 0.57402 0.20299 0.51862 0.0
H994 H 0.53086 0.22047 0.50254 0.0
H995 H 0.53462 0.17474 0.52774 0.0
H996 H 0.53861 0.15753 0.55111 0.0
H997 H 0.50393 0.17458 0.57973 0.0
H998 H 0.49984 0.19202 0.55664 0.0
H999 H 0.46758 0.205 0.45829 0.0
H1000 H 0.49092 0.20223 0.47102 0.0
H1001 H 0.47375 0.20926 0.52211 0.0
H1002 H 0.45034 0.21147 0.50959 0.0
H1003 H 0.49301 0.18909 0.52331 0.0
H1004 H 0.49019 0.23563 0.49939 0.0
H1005 H 0.48618 0.25321 0.47645 0.0
H1006 H 0.51919 0.235 0.44593 0.0
H1007 H 0.52327 0.21719 0.46861 0.0
C1008 C 0.55402 0.20889 0.5546 0.0
C1009 C 0.56624 0.20751 0.54452 0.0
C1010 C 0.54076 0.20755 0.54696 0.0
C1011 C 0.53944 0.20471 0.5291 0.0
C1012 C 0.55161 0.20304 0.5191 0.0
C1013 C 0.56485 0.20436 0.52672 0.0
C1014 C 0.52541 0.20419 0.52067 0.0
C1015 C 0.52267 0.21343 0.50689 0.0
C1016 C 0.51459 0.19526 0.52661 0.0
C1017 C 0.51701 0.18478 0.54053 0.0
C1018 C 0.52791 0.1749 0.53909 0.0
C1019 C 0.53018 0.16508 0.55227 0.0
C1020 C 0.52155 0.16498 0.56692 0.0
C1021 C 0.51061 0.17468 0.56839 0.0
C1022 C 0.50831 0.18452 0.55525 0.0
C1023 C 0.46872 0.20573 0.47226 0.0
C1024 C 0.45707 0.20861 0.48288 0.0
C1025 C 0.48211 0.20427 0.47951 0.0
C1026 C 0.48415 0.20578 0.49751 0.0
C1027 C 0.47248 0.20814 0.50819 0.0
C1028 C 0.4591 0.20954 0.50097 0.0
C1029 C 0.49847 0.2054 0.50521 0.0
C1030 C 0.50125 0.19604 0.51887 0.0
C1031 C 0.50933 0.21427 0.49923 0.0
C1032 C 0.50693 0.22499 0.48561 0.0
C1033 C 0.49652 0.23531 0.48773 0.0
C1034 C 0.49425 0.24533 0.47478 0.0
C1035 C 0.5024 0.2452 0.45972 0.0
C1036 C 0.51286 0.23507 0.45759 0.0
C1037 C 0.51517 0.22502 0.47049 0.0
H1038 H 0.50062 0.25296 0.44971 0.0
H1039 H 0.52332 0.15738 0.57711 0.0
H1040 H 0.2827 0.21222 0.05093 0.0
H1041 H 0.26796 0.22714 0.03263 0.0
H1042 H 0.23262 0.20008 0.04231 0.0
H1043 H 0.24736 0.18504 0.06045 0.0
H1044 H 0.23339 0.20696 1.00917 0.0
H1045 H 0.23654 0.23233 0.06301 0.0
H1046 H 0.24864 0.2437 0.08762 0.0
H1047 H 0.26892 0.27214 0.05257 0.0
H1048 H 0.25709 0.26081 0.0277 0.0
H1049 H 0.18019 0.25291 0.97899 0.0
H1050 H 0.195 0.23835 0.99763 0.0
H1051 H 0.23058 0.2645 0.98584 0.0
H1052 H 0.21575 0.27937 0.96759 0.0
H1053 H 0.22971 0.25819 0.01998 0.0
H1054 H 0.22643 0.23275 0.96618 0.0
H1055 H 0.21421 0.2214 0.94166 0.0
H1056 H 0.19396 0.19308 0.9769 0.0
H1057 H 0.20592 0.2044 1.00167 0.0
C1058 C 0.27177 0.2095 0.04923 0.0
C1059 C 0.26619 0.19747 0.0572 0.0
C1060 C 0.26335 0.21804 0.03878 0.0
C1061 C 0.24911 0.21487 0.03628 0.0
C1062 C 0.24356 0.20276 0.04403 0.0
C1063 C 0.25201 0.19415 0.05437 0.0
C1064 C 0.24 0.22411 0.02553 0.0
C1065 C 0.23245 0.21813 1.0117 0.0
C1066 C 0.23898 0.23875 0.02854 0.0
C1067 C 0.24603 0.24564 0.04348 0.0
C1068 C 0.24366 0.24095 0.06054 0.0
C1069 C 0.25045 0.24739 0.07454 0.0
C1070 C 0.25957 0.25861 0.07166 0.0
C1071 C 0.26187 0.26344 0.05477 0.0
C1072 C 0.25511 0.25702 0.04073 0.0
C1073 C 0.19113 0.25567 0.98051 0.0
C1074 C 0.19679 0.26729 0.97173 0.0
C1075 C 0.19962 0.24725 0.99105 0.0
C1076 C 0.21395 0.25021 0.99295 0.0
C1077 C 0.21957 0.26196 0.9845 0.0
C1078 C 0.21109 0.27038 0.97395 0.0
C1079 C 0.22311 0.24102 1.00368 0.0
C1080 C 0.23066 0.24702 0.01748 0.0
C1081 C 0.22411 0.22639 1.00067 0.0
C1082 C 0.21697 0.21951 0.98579 0.0
C1083 C 0.21929 0.22417 0.96871 0.0
C1084 C 0.21242 0.21773 0.95477 0.0
C1085 C 0.20328 0.20655 0.95772 0.0
C1086 C 0.20102 0.20175 0.97463 0.0
C1087 C 0.20785 0.20817 0.98863 0.0
H1088 H 0.19798 0.20157 0.94691 0.0
H1089 H 0.26482 0.26358 0.08251 0.0
H1090 H 0.75384 0.21608 0.95551 0.0
H1091 H 0.76866 0.23058 0.97421 0.0
H1092 H 0.77831 0.19446 1.00568 0.0
H1093 H 0.76376 0.17979 0.98683 0.0
H1094 H 0.77183 0.21786 0.02538 0.0
H1095 H 0.80194 0.20617 0.97731 0.0
H1096 H 0.80837 0.20451 0.94636 0.0
H1097 H 0.80489 0.24926 0.94142 0.0
H1098 H 0.79824 0.25117 0.9723 0.0
H1099 H 0.82893 0.24562 0.073 0.0
H1100 H 0.81401 0.23137 0.05411 0.0
H1101 H 0.80817 0.2668 0.02004 0.0
H1102 H 0.82325 0.28106 0.03881 0.0
H1103 H 0.81239 0.24398 1.0015 0.0
H1104 H 0.78242 0.25617 0.04892 0.0
H1105 H 0.77538 0.2584 0.07962 0.0
H1106 H 0.7777 0.21366 0.08557 0.0
H1107 H 0.78495 0.21117 0.05496 0.0
C1108 C 0.75923 0.21116 0.96628 0.0
C1109 C 0.75764 0.19672 0.96957 0.0
C1110 C 0.76765 0.21949 0.97701 0.0
C1111 C 0.77468 0.21358 0.99126 0.0
C1112 C 0.77295 0.19924 0.99478 0.0
C1113 C 0.76458 0.19088 0.98401 0.0
C1114 C 0.78389 0.22233 1.00245 0.0
C1115 C 0.78081 0.22343 0.02022 0.0
C1116 C 0.79537 0.22991 0.99561 0.0
C1117 C 0.79946 0.2288 0.97707 0.0
C1118 C 0.80244 0.21565 0.96959 0.0
C1119 C 0.80614 0.21466 0.95207 0.0
C1120 C 0.807 0.22677 0.94192 0.0
C1121 C 0.8042 0.23989 0.94929 0.0
C1122 C 0.80048 0.24093 0.96681 0.0
C1123 C 0.8244 0.2504 0.06154 0.0
C1124 C 0.82722 0.26449 0.05745 0.0
C1125 C 0.81585 0.24225 0.05075 0.0
C1126 C 0.80976 0.24806 0.03577 0.0
C1127 C 0.81273 0.26207 0.03152 0.0
C1128 C 0.82137 0.27021 0.04224 0.0
C1129 C 0.80037 0.2395 0.0245 0.0
C1130 C 0.80341 0.23844 1.0067 0.0
C1131 C 0.78877 0.23205 0.03129 0.0
C1132 C 0.78436 0.2335 0.04969 0.0
C1133 C 0.78153 0.24681 0.05681 0.0
C1134 C 0.77749 0.24812 0.07419 0.0
C1135 C 0.77613 0.23618 0.08455 0.0
C1136 C 0.77878 0.2229 0.07754 0.0
C1137 C 0.78284 0.22153 0.06017 0.0
H1138 H 0.773 0.23722 0.098 0.0
H1139 H 0.80987 0.22599 0.92835 0.0
H1140 H 0.7401 0.81229 0.05101 0.0
H1141 H 0.7548 0.79725 0.03276 0.0
H1142 H 0.78998 0.82478 0.0416 0.0
H1143 H 0.77528 0.83993 0.05969 0.0
H1144 H 0.78896 0.81737 1.00857 0.0
H1145 H 0.78655 0.79286 0.06292 0.0
H1146 H 0.7748 0.78178 0.08788 0.0
H1147 H 0.75448 0.75257 0.05359 0.0
H1148 H 0.76596 0.7636 0.02839 0.0
H1149 H 0.8424 0.77148 0.97888 0.0
H1150 H 0.82757 0.78618 0.99735 0.0
H1151 H 0.79217 0.75951 0.98629 0.0
H1152 H 0.80703 0.7445 0.9682 0.0
H1153 H 0.79325 0.76637 0.02033 0.0
H1154 H 0.79583 0.79093 0.96602 0.0
H1155 H 0.80773 0.802 0.94117 0.0
H1156 H 0.82798 0.83111 0.97566 0.0
H1157 H 0.81633 0.82009 1.00076 0.0
C1158 C 0.75099 0.8151 0.04913 0.0
C1159 C 0.75654 0.82728 0.05685 0.0
C1160 C 0.75939 0.80649 0.03871 0.0
C1161 C 0.77357 0.80976 0.03599 0.0
C1162 C 0.77907 0.82203 0.04349 0.0
C1163 C 0.77065 0.8307 0.0538 0.0
C1164 C 0.78267 0.80043 0.02532 0.0
C1165 C 0.79004 0.80625 1.01131 0.0
C1166 C 0.78387 0.78585 0.02861 0.0
C1167 C 0.77702 0.77915 0.04375 0.0
C1168 C 0.7795 0.78414 0.06069 0.0
C1169 C 0.7729 0.77786 0.07488 0.0
C1170 C 0.76387 0.7665 0.07232 0.0
C1171 C 0.76146 0.76138 0.05556 0.0
C1172 C 0.76802 0.76763 0.04131 0.0
C1173 C 0.8315 0.76864 0.98052 0.0
C1174 C 0.8259 0.75683 0.97199 0.0
C1175 C 0.823 0.77714 0.99096 0.0
C1176 C 0.80871 0.77406 0.99302 0.0
C1177 C 0.80315 0.76212 0.98482 0.0
C1178 C 0.81164 0.75362 0.97437 0.0
C1179 C 0.79954 0.78333 1.00364 0.0
C1180 C 0.79217 0.77749 0.01763 0.0
C1181 C 0.79836 0.7979 1.00036 0.0
C1182 C 0.80531 0.80459 0.98528 0.0
C1183 C 0.8029 0.79962 0.96832 0.0
C1184 C 0.80959 0.8059 0.95419 0.0
C1185 C 0.81863 0.81723 0.95684 0.0
C1186 C 0.82098 0.82232 0.97363 0.0
C1187 C 0.81433 0.81607 0.98781 0.0
H1188 H 0.8238 0.82207 0.94588 0.0
H1189 H 0.75877 0.76166 0.08332 0.0
H1190 H 0.21582 0.75634 0.07474 0.0
H1191 H 0.23057 0.7707 0.05595 0.0
H1192 H 0.1966 0.77466 0.01932 0.0
H1193 H 0.1816 0.76062 0.03823 0.0
H1194 H 0.22212 0.76846 1.00352 0.0
H1195 H 0.20384 0.80138 0.04531 0.0
H1196 H 0.19891 0.81029 0.07478 0.0
H1197 H 0.24299 0.81145 0.08595 0.0
H1198 H 0.24817 0.80235 0.0566 0.0
H1199 H 0.24871 0.82389 0.95222 0.0
H1200 H 0.23439 0.80913 0.97108 0.0
H1201 H 0.26704 0.80962 1.0099 0.0
H1202 H 0.28137 0.82454 0.99113 0.0
H1203 H 0.24249 0.8132 0.02484 0.0
H1204 H 0.2612 0.78062 0.98365 0.0
H1205 H 0.2667 0.77121 0.95458 0.0
H1206 H 0.2228 0.76864 0.94269 0.0
H1207 H 0.21704 0.77823 0.97162 0.0
C1208 C 0.21139 0.76038 0.06279 0.0
C1209 C 0.19745 0.75735 0.05809 0.0
C1210 C 0.21989 0.76854 0.05202 0.0
C1211 C 0.21465 0.77384 0.03631 0.0
C1212 C 0.20085 0.77064 0.03138 0.0
C1213 C 0.19232 0.76255 0.04219 0.0
C1214 C 0.22353 0.78282 0.02507 0.0
C1215 C 0.22643 0.77833 1.00808 0.0
C1216 C 0.22947 0.7955 0.03121 0.0
C1217 C 0.22638 0.80105 0.04882 0.0
C1218 C 0.21248 0.80343 0.05409 0.0
C1219 C 0.20964 0.80853 0.07077 0.0
C1220 C 0.22063 0.8114 0.08224 0.0
C1221 C 0.23449 0.8092 0.07705 0.0
C1222 C 0.23738 0.80409 0.0604 0.0
C1223 C 0.25289 0.82076 0.96472 0.0
C1224 C 0.26621 0.82532 0.97014 0.0
C1225 C 0.2447 0.81231 0.97549 0.0
C1226 C 0.24971 0.80807 0.99183 0.0
C1227 C 0.26294 0.81274 0.99736 0.0
C1228 C 0.27111 0.82129 0.98663 0.0
C1229 C 0.24109 0.79888 1.00319 0.0
C1230 C 0.23822 0.80332 0.02023 0.0
C1231 C 0.23528 0.78609 0.99714 0.0
C1232 C 0.2387 0.78027 0.97975 0.0
C1233 C 0.25272 0.77815 0.97479 0.0
C1234 C 0.25589 0.77277 0.95835 0.0
C1235 C 0.24511 0.76936 0.94678 0.0
C1236 C 0.23114 0.7713 0.95166 0.0
C1237 C 0.22792 0.7767 0.96808 0.0
H1238 H 0.24758 0.76519 0.93406 0.0
H1239 H 0.21841 0.81535 0.09515 0.0
H1240 H 0.74758 0.68339 0.55721 0.0
H1241 H 0.73301 0.6982 0.53862 0.0
H1242 H 0.76676 0.72808 0.53442 0.0
H1243 H 0.78135 0.71335 0.55317 0.0
H1244 H 0.74293 0.74135 0.53997 0.0
H1245 H 0.75818 0.7054 0.5007 0.0
H1246 H 0.76196 0.68117 0.49038 0.0
H1247 H 0.7176 0.67376 0.49123 0.0
H1248 H 0.71356 0.6979 0.50178 0.0
H1249 H 0.71464 0.7801 0.46911 0.0
H1250 H 0.7294 0.76532 0.48755 0.0
H1251 H 0.69507 0.73646 0.49436 0.0
H1252 H 0.68035 0.751 0.47556 0.0
H1253 H 0.71929 0.72276 0.4873 0.0
H1254 H 0.70429 0.75903 0.52662 0.0
H1255 H 0.70082 0.78341 0.53658 0.0
H1256 H 0.74525 0.79037 0.53508 0.0
H1257 H 0.74897 0.76608 0.52488 0.0
C1258 C 0.75195 0.69304 0.55218 0.0
C1259 C 0.76565 0.69717 0.55662 0.0
C1260 C 0.74361 0.70151 0.54155 0.0
C1261 C 0.74883 0.7142 0.53492 0.0
C1262 C 0.76249 0.71836 0.53938 0.0
C1263 C 0.77081 0.70994 0.55012 0.0
C1264 C 0.73998 0.72323 0.52358 0.0
C1265 C 0.73793 0.73733 0.52832 0.0
C1266 C 0.73319 0.71794 0.50856 0.0
C1267 C 0.73558 0.70342 0.50219 0.0
C1268 C 0.74924 0.69857 0.49881 0.0
C1269 C 0.75143 0.68486 0.4929 0.0
C1270 C 0.74003 0.67592 0.4902 0.0
C1271 C 0.72642 0.68069 0.49336 0.0
C1272 C 0.72417 0.69439 0.49928 0.0
C1273 C 0.71024 0.77057 0.47445 0.0
C1274 C 0.6963 0.76675 0.47087 0.0
C1275 C 0.71866 0.76219 0.48512 0.0
C1276 C 0.7133 0.74984 0.49247 0.0
C1277 C 0.69941 0.74596 0.48887 0.0
C1278 C 0.69098 0.75435 0.47824 0.0
C1279 C 0.72224 0.74085 0.50372 0.0
C1280 C 0.72431 0.72677 0.49895 0.0
C1281 C 0.7291 0.74618 0.51866 0.0
C1282 C 0.72689 0.76078 0.52482 0.0
C1283 C 0.71331 0.7658 0.52828 0.0
C1284 C 0.7113 0.77959 0.53399 0.0
C1285 C 0.7228 0.78844 0.53641 0.0
C1286 C 0.73634 0.78351 0.53317 0.0
C1287 C 0.73841 0.76972 0.52744 0.0
H1288 H 0.72123 0.79912 0.54084 0.0
H1289 H 0.74175 0.66531 0.48562 0.0
H1290 H 0.2714 0.68257 0.47623 0.0
H1291 H 0.28609 0.69736 0.49475 0.0
H1292 H 0.2561 0.73107 0.49031 0.0
H1293 H 0.24134 0.71632 0.47176 0.0
H1294 H 0.282 0.74073 0.48609 0.0
H1295 H 0.2589 0.71155 0.52766 0.0
H1296 H 0.25103 0.68933 0.54075 0.0
H1297 H 0.2938 0.67643 0.54757 0.0
H1298 H 0.30194 0.69851 0.53429 0.0
H1299 H 0.30943 0.78295 0.55465 0.0
H1300 H 0.29432 0.76826 0.53646 0.0
H1301 H 0.32491 0.73494 0.53844 0.0
H1302 H 0.33994 0.74947 0.55694 0.0
H1303 H 0.29851 0.72524 0.54411 0.0
H1304 H 0.32143 0.75467 0.50229 0.0
H1305 H 0.32902 0.77708 0.48944 0.0
H1306 H 0.28609 0.78975 0.48346 0.0
H1307 H 0.27825 0.76748 0.49651 0.0
C1308 C 0.26784 0.69307 0.47936 0.0
C1309 C 0.25516 0.69824 0.47255 0.0
C1310 C 0.27626 0.70153 0.48994 0.0
C1311 C 0.27214 0.71529 0.49409 0.0
C1312 C 0.25951 0.7205 0.48728 0.0
C1313 C 0.2511 0.71206 0.47664 0.0
C1314 C 0.28112 0.72433 0.50527 0.0
C1315 C 0.28543 0.73742 0.49888 0.0
C1316 C 0.28588 0.71991 0.52182 0.0
C1317 C 0.28102 0.70663 0.52982 0.0
C1318 C 0.26663 0.70393 0.53182 0.0
C1319 C 0.26212 0.69137 0.5393 0.0
C1320 C 0.27191 0.68146 0.54495 0.0
C1321 C 0.28623 0.68411 0.54317 0.0
C1322 C 0.2908 0.69665 0.53568 0.0
C1323 C 0.31291 0.77247 0.55128 0.0
C1324 C 0.3259 0.76739 0.55723 0.0
C1325 C 0.30432 0.76413 0.54077 0.0
C1326 C 0.30854 0.75054 0.53596 0.0
C1327 C 0.32146 0.74541 0.54194 0.0
C1328 C 0.33009 0.75377 0.5524 0.0
C1329 C 0.29939 0.7416 0.52489 0.0
C1330 C 0.29505 0.72854 0.53132 0.0
C1331 C 0.29456 0.74607 0.50841 0.0
C1332 C 0.29926 0.75946 0.50054 0.0
C1333 C 0.31361 0.76228 0.49837 0.0
C1334 C 0.31796 0.77495 0.49102 0.0
C1335 C 0.30804 0.78485 0.48568 0.0
C1336 C 0.29376 0.78208 0.48763 0.0
C1337 C 0.28936 0.76943 0.49499 0.0
H1338 H 0.31143 0.79465 0.47999 0.0
H1339 H 0.2684 0.67174 0.55074 0.0
H1340 H 0.23966 0.31302 0.54906 0.0
H1341 H 0.25438 0.29814 0.53062 0.0
H1342 H 0.29056 0.32289 0.54445 0.0
H1343 H 0.27584 0.33793 0.56266 0.0
H1344 H 0.2909 0.31755 0.51102 0.0
H1345 H 0.28407 0.28985 0.56237 0.0
H1346 H 0.27033 0.278 0.58512 0.0
H1347 H 0.25023 0.25245 0.54642 0.0
H1348 H 0.26372 0.26429 0.5234 0.0
H1349 H 0.34298 0.2704 0.48069 0.0
H1350 H 0.32813 0.28482 0.49945 0.0
H1351 H 0.29189 0.26108 0.48338 0.0
H1352 H 0.30675 0.24629 0.46504 0.0
H1353 H 0.29152 0.26579 0.51783 0.0
H1354 H 0.29853 0.29354 0.46653 0.0
H1355 H 0.31244 0.30537 0.44392 0.0
H1356 H 0.33245 0.33077 0.48285 0.0
H1357 H 0.31879 0.31895 0.50573 0.0
C1358 C 0.25077 0.31523 0.54823 0.0
C1359 C 0.2566 0.32662 0.55735 0.0
C1360 C 0.25918 0.30671 0.53771 0.0
C1361 C 0.27364 0.30925 0.53632 0.0
C1362 C 0.27944 0.32071 0.54529 0.0
C1363 C 0.27102 0.32932 0.55567 0.0
C1364 C 0.28272 0.30004 0.52546 0.0
C1365 C 0.29117 0.30625 0.51269 0.0
C1366 C 0.28287 0.28525 0.52732 0.0
C1367 C 0.27481 0.27805 0.54115 0.0
C1368 C 0.27665 0.28178 0.5587 0.0
C1369 C 0.26892 0.27505 0.57165 0.0
C1370 C 0.25939 0.26451 0.56722 0.0
C1371 C 0.25761 0.26064 0.54983 0.0
C1372 C 0.2653 0.26734 0.53683 0.0
C1373 C 0.33188 0.26813 0.48129 0.0
C1374 C 0.32606 0.25721 0.47128 0.0
C1375 C 0.32338 0.27648 0.4919 0.0
C1376 C 0.30886 0.27416 0.49265 0.0
C1377 C 0.30305 0.26311 0.48295 0.0
C1378 C 0.31155 0.25474 0.47235 0.0
C1379 C 0.29971 0.28331 0.50346 0.0
C1380 C 0.29124 0.27709 0.5162 0.0
C1381 C 0.29957 0.29809 0.5016 0.0
C1382 C 0.30773 0.30527 0.48785 0.0
C1383 C 0.30597 0.30158 0.47028 0.0
C1384 C 0.3138 0.30829 0.45742 0.0
C1385 C 0.32335 0.31879 0.46195 0.0
C1386 C 0.32506 0.32262 0.47936 0.0
C1387 C 0.31727 0.31593 0.49228 0.0
H1388 H 0.3294 0.32397 0.45197 0.0
H1389 H 0.25341 0.25931 0.57726 0.0
H1390 H 0.7581 0.31253 0.45049 0.0
H1391 H 0.74356 0.29797 0.46925 0.0
H1392 H 0.75516 0.32335 0.51346 0.0
H1393 H 0.77025 0.33759 0.4949 0.0
H1394 H 0.75569 0.2963 0.52178 0.0
H1395 H 0.72294 0.3269 0.49329 0.0
H1396 H 0.71154 0.33825 0.46821 0.0
H1397 H 0.69872 0.29798 0.44876 0.0
H1398 H 0.71021 0.28637 0.47361 0.0
H1399 H 0.70244 0.27316 0.57922 0.0
H1400 H 0.71735 0.28733 0.56039 0.0
H1401 H 0.70627 0.26124 0.51662 0.0
H1402 H 0.69136 0.24696 0.53541 0.0
H1403 H 0.70549 0.28851 0.508 0.0
H1404 H 0.73812 0.25794 0.53661 0.0
H1405 H 0.7495 0.2466 0.56171 0.0
H1406 H 0.76251 0.28686 0.581 0.0
H1407 H 0.75104 0.29846 0.55612 0.0
C1408 C 0.75771 0.31494 0.46423 0.0
C1409 C 0.76536 0.32628 0.47115 0.0
C1410 C 0.74924 0.30669 0.47493 0.0
C1411 C 0.74808 0.30968 0.49274 0.0
C1412 C 0.75583 0.32087 0.49974 0.0
C1413 C 0.76435 0.3291 0.48907 0.0
C1414 C 0.73886 0.3011 0.50409 0.0
C1415 C 0.74467 0.29476 0.51889 0.0
C1416 C 0.72454 0.29879 0.50012 0.0
C1417 C 0.71755 0.30576 0.48522 0.0
C1418 C 0.71778 0.32046 0.4836 0.0
C1419 C 0.71128 0.32694 0.46943 0.0
C1420 C 0.70444 0.31884 0.45688 0.0
C1421 C 0.70404 0.30424 0.45848 0.0
C1422 C 0.71053 0.2977 0.47261 0.0
C1423 C 0.70327 0.27034 0.56562 0.0
C1424 C 0.69575 0.25887 0.55885 0.0
C1425 C 0.71179 0.27848 0.55486 0.0
C1426 C 0.71308 0.27525 0.53712 0.0
C1427 C 0.70544 0.26393 0.53026 0.0
C1428 C 0.69689 0.2558 0.54102 0.0
C1429 C 0.72232 0.28374 0.5257 0.0
C1430 C 0.71651 0.29006 0.51089 0.0
C1431 C 0.73664 0.28603 0.52966 0.0
C1432 C 0.74361 0.27908 0.54459 0.0
C1433 C 0.74332 0.26438 0.54627 0.0
C1434 C 0.7498 0.25791 0.56044 0.0
C1435 C 0.7567 0.266 0.57296 0.0
C1436 C 0.75715 0.2806 0.5713 0.0
C1437 C 0.75067 0.28713 0.55716 0.0
H1438 H 0.76171 0.26097 0.58392 0.0
H1439 H 0.69942 0.32388 0.44592 0.0
H1440 H 0.37516 0.16064 0.3381 0.0
H1441 H 0.36735 0.1535 0.30915 0.0
H1442 H 0.36692 0.19681 0.29293 0.0
H1443 H 0.37461 0.20403 0.32197 0.0
H1444 H 0.34448 0.18378 0.28078 0.0
H1445 H 0.39374 0.17415 0.28129 0.0
H1446 H 0.41578 0.16407 0.29247 0.0
H1447 H 0.39897 0.12252 0.28684 0.0
H1448 H 0.37674 0.13237 0.27585 0.0
H1449 H 0.34176 0.16934 0.18964 0.0
H1450 H 0.34883 0.17733 0.21858 0.0
H1451 H 0.34765 0.13467 0.2371 0.0
H1452 H 0.34042 0.12662 0.20831 0.0
H1453 H 0.37115 0.14787 0.24772 0.0
H1454 H 0.32173 0.15787 0.24726 0.0
H1455 H 0.2999 0.16823 0.23584 0.0
H1456 H 0.31744 0.20952 0.24092 0.0
H1457 H 0.33946 0.19938 0.25214 0.0
C1458 C 0.37348 0.16865 0.32835 0.0
C1459 C 0.3756 0.1829 0.33232 0.0
C1460 C 0.36901 0.16455 0.31178 0.0
C1461 C 0.36675 0.17459 0.29873 0.0
C1462 C 0.3686 0.18886 0.30276 0.0
C1463 C 0.37297 0.19298 0.31937 0.0
C1464 C 0.36255 0.1702 0.28087 0.0
C1465 C 0.35043 0.17607 0.27346 0.0
C1466 C 0.37015 0.15996 0.27139 0.0
C1467 C 0.38353 0.15401 0.2779 0.0
C1468 C 0.3947 0.16287 0.28256 0.0
C1469 C 0.40723 0.1572 0.28884 0.0
C1470 C 0.40876 0.14267 0.2904 0.0
C1471 C 0.39776 0.13378 0.28564 0.0
C1472 C 0.3852 0.1394 0.27937 0.0
C1473 C 0.34285 0.16166 0.19991 0.0
C1474 C 0.34051 0.14732 0.19659 0.0
C1475 C 0.34693 0.16625 0.21645 0.0
C1476 C 0.34868 0.15662 0.23007 0.0
C1477 C 0.34641 0.1423 0.22679 0.0
C1478 C 0.34233 0.13771 0.21028 0.0
C1479 C 0.35305 0.16138 0.24769 0.0
C1480 C 0.36522 0.15559 0.25504 0.0
C1481 C 0.34554 0.17174 0.25706 0.0
C1482 C 0.33229 0.17786 0.25037 0.0
C1483 C 0.32097 0.16915 0.24581 0.0
C1484 C 0.30856 0.17498 0.2394 0.0
C1485 C 0.30729 0.18952 0.23761 0.0
C1486 C 0.31844 0.19826 0.24228 0.0
C1487 C 0.33088 0.19248 0.24868 0.0
H1488 H 0.29767 0.19401 0.23265 0.0
H1489 H 0.41847 0.1383 0.29527 0.0
H1490 H 0.84086 0.39615 0.32068 0.0
H1491 H 0.84772 0.38798 0.29186 0.0
H1492 H 0.84613 0.34511 0.3096 0.0
H1493 H 0.8398 0.35325 0.33872 0.0
H1494 H 0.8689 0.3492 0.29047 0.0
H1495 H 0.82006 0.35903 0.28379 0.0
H1496 H 0.79846 0.37318 0.28563 0.0
H1497 H 0.81632 0.40391 0.25151 0.0
H1498 H 0.83811 0.39003 0.24965 0.0
H1499 H 0.8724 0.31904 0.20578 0.0
H1500 H 0.8641 0.32597 0.23464 0.0
H1501 H 0.86733 0.36957 0.22028 0.0
H1502 H 0.87535 0.36272 0.19129 0.0
H1503 H 0.84307 0.36424 0.2377 0.0
H1504 H 0.89219 0.35455 0.2453 0.0
H1505 H 0.91367 0.34021 0.24346 0.0
H1506 H 0.8949 0.30884 0.2759 0.0
H1507 H 0.87323 0.32292 0.27773 0.0
C1508 C 0.84209 0.38498 0.31854 0.0
C1509 C 0.83976 0.37537 0.33209 0.0
C1510 C 0.84586 0.38031 0.30196 0.0
C1511 C 0.84726 0.3659 0.29845 0.0
C1512 C 0.84505 0.35627 0.31195 0.0
C1513 C 0.84131 0.36094 0.32857 0.0
C1514 C 0.85126 0.36094 0.28077 0.0
C1515 C 0.86311 0.35231 0.27897 0.0
C1516 C 0.84388 0.3652 0.26568 0.0
C1517 C 0.83077 0.37355 0.26671 0.0
C1518 C 0.81942 0.36886 0.27678 0.0
C1519 C 0.80714 0.37682 0.27781 0.0
C1520 C 0.80603 0.38945 0.26873 0.0
C1521 C 0.8172 0.39413 0.25855 0.0
C1522 C 0.82952 0.38621 0.25749 0.0
C1523 C 0.87121 0.3301 0.20871 0.0
C1524 C 0.8746 0.34033 0.19624 0.0
C1525 C 0.86657 0.33405 0.22526 0.0
C1526 C 0.86523 0.3483 0.2297 0.0
C1527 C 0.86833 0.35852 0.21718 0.0
C1528 C 0.87302 0.35458 0.20065 0.0
C1529 C 0.86074 0.35258 0.24744 0.0
C1530 C 0.8488 0.36108 0.24923 0.0
C1531 C 0.868 0.34816 0.26252 0.0
C1532 C 0.88104 0.33972 0.2615 0.0
C1533 C 0.8926 0.34454 0.25192 0.0
C1534 C 0.90482 0.33647 0.25091 0.0
C1535 C 0.90564 0.3236 0.25952 0.0
C1536 C 0.89425 0.3188 0.26921 0.0
C1537 C 0.882 0.32682 0.27026 0.0
H1538 H 0.9151 0.31737 0.25872 0.0
H1539 H 0.79651 0.3956 0.26954 0.0
H1540 H 0.69831 0.88873 0.2114 0.0
H1541 H 0.69079 0.88022 0.23987 0.0
H1542 H 0.66008 0.85363 0.21519 0.0
H1543 H 0.66741 0.86226 0.18666 0.0
H1544 H 0.64912 0.86812 0.24279 0.0
H1545 H 0.68955 0.83955 0.23147 0.0
H1546 H 0.71422 0.83496 0.22385 0.0
H1547 H 0.72778 0.85844 0.26848 0.0
H1548 H 0.70318 0.86334 0.27623 0.0
H1549 H 0.63113 0.82797 0.31679 0.0
H1550 H 0.63928 0.83521 0.28809 0.0
H1551 H 0.67214 0.85967 0.31193 0.0
H1552 H 0.66408 0.85237 0.3407 0.0
H1553 H 0.68206 0.84603 0.28452 0.0
H1554 H 0.64208 0.87513 0.29569 0.0
H1555 H 0.61754 0.88027 0.30346 0.0
H1556 H 0.60328 0.85657 0.25935 0.0
H1557 H 0.62774 0.85113 0.25145 0.0
C1558 C 0.68992 0.88111 0.21203 0.0
C1559 C 0.68346 0.87617 0.19675 0.0
C1560 C 0.68571 0.87617 0.22831 0.0
C1561 C 0.67494 0.8662 0.22966 0.0
C1562 C 0.66843 0.86129 0.21445 0.0
C1563 C 0.6727 0.86616 0.19815 0.0
C1564 C 0.6703 0.8611 0.24697 0.0
C1565 C 0.65627 0.86309 0.25182 0.0
C1566 C 0.67972 0.85489 0.25894 0.0
C1567 C 0.69452 0.85193 0.25433 0.0
C1568 C 0.69779 0.84384 0.23958 0.0
C1569 C 0.71177 0.84115 0.23525 0.0
C1570 C 0.72256 0.84643 0.24565 0.0
C1571 C 0.71941 0.85437 0.26042 0.0
C1572 C 0.70545 0.85709 0.2648 0.0
C1573 C 0.64004 0.83496 0.31593 0.0
C1574 C 0.64689 0.83966 0.33106 0.0
C1575 C 0.6447 0.83909 0.29951 0.0
C1576 C 0.65621 0.84817 0.29782 0.0
C1577 C 0.66324 0.85267 0.31288 0.0
C1578 C 0.65863 0.84846 0.32932 0.0
C1579 C 0.66085 0.85304 0.28037 0.0
C1580 C 0.67489 0.85102 0.2755 0.0
C1581 C 0.65146 0.85931 0.2684 0.0
C1582 C 0.63674 0.86261 0.27308 0.0
C1583 C 0.63371 0.87093 0.28773 0.0
C1584 C 0.61982 0.87391 0.29214 0.0
C1585 C 0.60886 0.86872 0.28193 0.0
C1586 C 0.61178 0.86056 0.26726 0.0
C1587 C 0.62566 0.85754 0.2628 0.0
H1588 H 0.59811 0.87104 0.28537 0.0
H1589 H 0.73337 0.84434 0.24228 0.0
H1590 H 0.16943 0.66488 0.34207 0.0
H1591 H 0.1621 0.67335 0.31346 0.0
H1592 H 0.18815 0.64209 0.28889 0.0
H1593 H 0.19575 0.63375 0.31744 0.0
H1594 H 0.19057 0.66761 0.27312 0.0
H1595 H 0.15329 0.63725 0.29162 0.0
H1596 H 0.13502 0.62869 0.31157 0.0
H1597 H 0.11399 0.66848 0.30871 0.0
H1598 H 0.13225 0.67735 0.28892 0.0
H1599 H 0.16164 0.6706 0.18804 0.0
H1600 H 0.16986 0.66329 0.21674 0.0
H1601 H 0.14116 0.69242 0.24083 0.0
H1602 H 0.1328 0.69965 0.21216 0.0
H1603 H 0.14021 0.6683 0.2571 0.0
H1604 H 0.1771 0.69876 0.23845 0.0
H1605 H 0.19538 0.70762 0.2187 0.0
H1606 H 0.21718 0.66827 0.22207 0.0
H1607 H 0.19893 0.6591 0.24165 0.0
C1608 C 0.1737 0.65989 0.33058 0.0
C1609 C 0.18313 0.64859 0.33206 0.0
C1610 C 0.16941 0.66467 0.31423 0.0
C1611 C 0.17446 0.65825 0.29902 0.0
C1612 C 0.18408 0.64716 0.30044 0.0
C1613 C 0.18833 0.64234 0.31678 0.0
C1614 C 0.1696 0.66301 0.28162 0.0
C1615 C 0.17958 0.66761 0.26952 0.0
C1616 C 0.15523 0.66333 0.27708 0.0
C1617 C 0.14422 0.65801 0.28893 0.0
C1618 C 0.14483 0.64421 0.29536 0.0
C1619 C 0.13447 0.6393 0.30662 0.0
C1620 C 0.12337 0.64805 0.31144 0.0
C1621 C 0.1226 0.66172 0.30498 0.0
C1622 C 0.13295 0.66669 0.29374 0.0
C1623 C 0.15718 0.67555 0.19945 0.0
C1624 C 0.14657 0.68573 0.1978 0.0
C1625 C 0.16189 0.67137 0.21587 0.0
C1626 C 0.15626 0.67742 0.231 0.0
C1627 C 0.14566 0.68758 0.22938 0.0
C1628 C 0.14087 0.69169 0.21297 0.0
C1629 C 0.16118 0.67294 0.24853 0.0
C1630 C 0.15121 0.66836 0.26067 0.0
C1631 C 0.17556 0.67271 0.25313 0.0
C1632 C 0.18657 0.6782 0.24138 0.0
C1633 C 0.18574 0.69196 0.23487 0.0
C1634 C 0.1961 0.69704 0.22373 0.0
C1635 C 0.20741 0.6885 0.2191 0.0
C1636 C 0.2084 0.67487 0.22565 0.0
C1637 C 0.19806 0.66973 0.23678 0.0
H1638 H 0.21543 0.69245 0.21047 0.0
H1639 H 0.11536 0.64423 0.32016 0.0
H1640 H 0.32682 0.85795 0.83149 0.0
H1641 H 0.33424 0.84997 0.80272 0.0
H1642 H 0.36017 0.88673 0.79739 0.0
H1643 H 0.35307 0.89465 0.82627 0.0
H1644 H 0.34465 0.88174 0.76817 0.0
H1645 H 0.37477 0.85543 0.80624 0.0
H1646 H 0.38027 0.83948 0.83049 0.0
H1647 H 0.35661 0.80665 0.80592 0.0
H1648 H 0.3508 0.82247 0.78162 0.0
H1649 H 0.3861 0.86164 0.69612 0.0
H1650 H 0.37775 0.86875 0.72479 0.0
H1651 H 0.35434 0.83021 0.72894 0.0
H1652 H 0.36308 0.82278 0.70049 0.0
H1653 H 0.36769 0.83567 0.75863 0.0
H1654 H 0.33793 0.86151 0.72029 0.0
H1655 H 0.33214 0.87731 0.696 0.0
H1656 H 0.35452 0.91085 0.72095 0.0
H1657 H 0.36062 0.89518 0.7453 0.0
C1658 C 0.33424 0.86427 0.82432 0.0
C1659 C 0.33934 0.87696 0.83128 0.0
C1660 C 0.33843 0.85971 0.80782 0.0
C1661 C 0.34782 0.86771 0.79792 0.0
C1662 C 0.35287 0.88041 0.80476 0.0
C1663 C 0.34874 0.88495 0.82127 0.0
C1664 C 0.35233 0.86294 0.78038 0.0
C1665 C 0.34984 0.87174 0.76611 0.0
C1666 C 0.35874 0.84972 0.77761 0.0
C1667 C 0.36222 0.84019 0.79221 0.0
C1668 C 0.37063 0.84485 0.80608 0.0
C1669 C 0.37383 0.83582 0.81982 0.0
C1670 C 0.36876 0.82207 0.81978 0.0
C1671 C 0.36051 0.81731 0.80596 0.0
C1672 C 0.35727 0.8263 0.79219 0.0
C1673 C 0.37926 0.85461 0.70316 0.0
C1674 C 0.37527 0.84163 0.69595 0.0
C1675 C 0.37437 0.85877 0.7195 0.0
C1676 C 0.36527 0.8501 0.72897 0.0
C1677 C 0.36131 0.83711 0.72187 0.0
C1678 C 0.36621 0.83293 0.70552 0.0
C1679 C 0.3601 0.85452 0.7464 0.0
C1680 C 0.36245 0.84565 0.76066 0.0
C1681 C 0.3535 0.86766 0.74915 0.0
C1682 C 0.34985 0.87712 0.73454 0.0
C1683 C 0.34172 0.87222 0.72053 0.0
C1684 C 0.33836 0.88116 0.70677 0.0
C1685 C 0.34299 0.89507 0.70691 0.0
C1686 C 0.35096 0.90007 0.72085 0.0
C1687 C 0.35436 0.89116 0.73464 0.0
H1688 H 0.34037 0.90197 0.69624 0.0
H1689 H 0.37124 0.8151 0.83042 0.0
H1690 H 0.19994 0.38638 0.7113 0.0
H1691 H 0.19242 0.378 0.73984 0.0
H1692 H 0.15809 0.35575 0.71592 0.0
H1693 H 0.16545 0.36425 0.68734 0.0
H1694 H 0.14981 0.37074 0.74467 0.0
H1695 H 0.18611 0.33794 0.7299 0.0
H1696 H 0.20978 0.33067 0.72072 0.0
H1697 H 0.22754 0.35099 0.76546 0.0
H1698 H 0.20398 0.35856 0.77479 0.0
H1699 H 0.1296 0.33029 0.81746 0.0
H1700 H 0.1377 0.33759 0.78878 0.0
H1701 H 0.1737 0.35746 0.81215 0.0
H1702 H 0.16567 0.35013 0.84092 0.0
H1703 H 0.18121 0.34359 0.78354 0.0
H1704 H 0.14538 0.37675 0.79824 0.0
H1705 H 0.1219 0.38448 0.8076 0.0
H1706 H 0.1035 0.36421 0.76323 0.0
H1707 H 0.12686 0.35618 0.75373 0.0
C1708 C 0.19076 0.37974 0.71212 0.0
C1709 C 0.18329 0.37597 0.69704 0.0
C1710 C 0.18654 0.37487 0.72843 0.0
C1711 C 0.17475 0.36616 0.73001 0.0
C1712 C 0.16724 0.36243 0.715 0.0
C1713 C 0.17151 0.36722 0.69867 0.0
C1714 C 0.17012 0.36114 0.74736 0.0
C1715 C 0.1566 0.36463 0.75307 0.0
C1716 C 0.17912 0.35349 0.75852 0.0
C1717 C 0.19329 0.34894 0.75295 0.0
C1718 C 0.19508 0.34097 0.73771 0.0
C1719 C 0.20847 0.33677 0.73249 0.0
C1720 C 0.22016 0.3404 0.74247 0.0
C1721 C 0.21847 0.3482 0.75772 0.0
C1722 C 0.2051 0.35244 0.76299 0.0
C1723 C 0.1392 0.33629 0.81653 0.0
C1724 C 0.14693 0.3397 0.83153 0.0
C1725 C 0.14383 0.34045 0.8001 0.0
C1726 C 0.15621 0.34826 0.79829 0.0
C1727 C 0.16411 0.35145 0.8132 0.0
C1728 C 0.15952 0.34722 0.82964 0.0
C1729 C 0.16087 0.35317 0.78087 0.0
C1730 C 0.17441 0.34968 0.77515 0.0
C1731 C 0.15192 0.3609 0.76973 0.0
C1732 C 0.13786 0.36575 0.77537 0.0
C1733 C 0.13631 0.37385 0.79055 0.0
C1734 C 0.12303 0.3783 0.79587 0.0
C1735 C 0.11121 0.37481 0.78604 0.0
C1736 C 0.11266 0.36689 0.77084 0.0
C1737 C 0.12592 0.36239 0.76548 0.0
H1738 H 0.10094 0.37827 0.79018 0.0
H1739 H 0.23052 0.33714 0.73841 0.0
H1740 H 0.64909 0.20373 0.70582 0.0
H1741 H 0.65711 0.19648 0.73463 0.0
H1742 H 0.65403 0.15304 0.71915 0.0
H1743 H 0.64591 0.16023 0.69037 0.0
H1744 H 0.64305 0.15645 0.75023 0.0
H1745 H 0.68607 0.17023 0.72298 0.0
H1746 H 0.70204 0.18608 0.7073 0.0
H1747 H 0.69923 0.21615 0.74879 0.0
H1748 H 0.68308 0.20055 0.76463 0.0
H1749 H 0.68119 0.12619 0.81976 0.0
H1750 H 0.67389 0.13425 0.79105 0.0
H1751 H 0.6748 0.17713 0.80907 0.0
H1752 H 0.68195 0.16914 0.83796 0.0
H1753 H 0.6868 0.17444 0.77708 0.0
H1754 H 0.64392 0.16035 0.80438 0.0
H1755 H 0.62816 0.14428 0.82003 0.0
H1756 H 0.63096 0.11451 0.77821 0.0
H1757 H 0.64691 0.13033 0.7624 0.0
C1758 C 0.65026 0.19264 0.70849 0.0
C1759 C 0.64687 0.18256 0.69577 0.0
C1760 C 0.65485 0.1885 0.72498 0.0
C1761 C 0.65633 0.1742 0.72905 0.0
C1762 C 0.65295 0.16413 0.71636 0.0
C1763 C 0.64828 0.16826 0.69992 0.0
C1764 C 0.66109 0.16969 0.74663 0.0
C1765 C 0.65272 0.16024 0.75598 0.0
C1766 C 0.67353 0.1749 0.75438 0.0
C1767 C 0.68326 0.18428 0.7449 0.0
C1768 C 0.68877 0.18027 0.7287 0.0
C1769 C 0.69787 0.1892 0.71979 0.0
C1770 C 0.70162 0.20213 0.72702 0.0
C1771 C 0.6963 0.20614 0.7432 0.0
C1772 C 0.68718 0.19725 0.75215 0.0
C1773 C 0.67971 0.13733 0.81771 0.0
C1774 C 0.68207 0.14699 0.83127 0.0
C1775 C 0.67558 0.14193 0.80124 0.0
C1776 C 0.67363 0.15629 0.79794 0.0
C1777 C 0.67624 0.166 0.81131 0.0
C1778 C 0.68037 0.1614 0.82781 0.0
C1779 C 0.66881 0.16114 0.78057 0.0
C1780 C 0.67713 0.17066 0.7713 0.0
C1781 C 0.65635 0.15597 0.77285 0.0
C1782 C 0.64671 0.14647 0.78229 0.0
C1783 C 0.64126 0.15033 0.79858 0.0
C1784 C 0.63228 0.14127 0.80747 0.0
C1785 C 0.62859 0.12837 0.80014 0.0
C1786 C 0.63384 0.1245 0.78388 0.0
C1787 C 0.64284 0.13352 0.77494 0.0
H1788 H 0.62163 0.12137 0.80704 0.0
H1789 H 0.70867 0.20903 0.72011 0.0
H1790 H 0.85328 0.6639 0.68751 0.0
H1791 H 0.86065 0.67216 0.71623 0.0
H1792 H 0.8326 0.64262 0.74035 0.0
H1793 H 0.825 0.63447 0.71166 0.0
H1794 H 0.83142 0.66854 0.75593 0.0
H1795 H 0.86697 0.63562 0.73847 0.0
H1796 H 0.88492 0.6257 0.71897 0.0
H1797 H 0.90837 0.66406 0.72198 0.0
H1798 H 0.89044 0.67429 0.74131 0.0
H1799 H 0.85937 0.67045 0.84158 0.0
H1800 H 0.85107 0.66344 0.81277 0.0
H1801 H 0.88184 0.69041 0.78908 0.0
H1802 H 0.89028 0.69735 0.81786 0.0
H1803 H 0.88151 0.6661 0.77303 0.0
H1804 H 0.84639 0.69911 0.79061 0.0
H1805 H 0.82845 0.70938 0.80986 0.0
H1806 H 0.80421 0.67154 0.80636 0.0
H1807 H 0.82211 0.66096 0.78728 0.0
C1808 C 0.84858 0.65926 0.69892 0.0
C1809 C 0.83859 0.64849 0.69728 0.0
C1810 C 0.85288 0.66391 0.71534 0.0
C1811 C 0.84728 0.65791 0.73046 0.0
C1812 C 0.83709 0.64737 0.72887 0.0
C1813 C 0.83284 0.64265 0.71246 0.0
C1814 C 0.85217 0.66249 0.74793 0.0
C1815 C 0.84235 0.66786 0.75976 0.0
C1816 C 0.86648 0.66191 0.75277 0.0
C1817 C 0.87729 0.65577 0.74119 0.0
C1818 C 0.87589 0.64199 0.73486 0.0
C1819 C 0.88608 0.6363 0.72385 0.0
C1820 C 0.89776 0.64426 0.7192 0.0
C1821 C 0.89931 0.65792 0.72557 0.0
C1822 C 0.88914 0.66366 0.73656 0.0
C1823 C 0.86428 0.675 0.83023 0.0
C1824 C 0.87548 0.68448 0.83203 0.0
C1825 C 0.85951 0.67098 0.81375 0.0
C1826 C 0.86571 0.67651 0.79869 0.0
C1827 C 0.8769 0.68598 0.80047 0.0
C1828 C 0.88173 0.68992 0.81694 0.0
C1829 C 0.86076 0.67219 0.78111 0.0
C1830 C 0.87058 0.66684 0.76922 0.0
C1831 C 0.84646 0.67286 0.7762 0.0
C1832 C 0.83566 0.6792 0.78765 0.0
C1833 C 0.83729 0.69294 0.79406 0.0
C1834 C 0.82712 0.69882 0.80492 0.0
C1835 C 0.81521 0.69111 0.80937 0.0
C1836 C 0.81344 0.6775 0.80292 0.0
C1837 C 0.82359 0.67156 0.79207 0.0
H1838 H 0.80735 0.69568 0.81778 0.0
H1839 H 0.90564 0.63984 0.71068 0.0
loop_
_geom_bond_atom_site_label_1
_geom_bond_atom_site_label_2
_geom_bond_distance
_geom_bond_site_symmetry_2
_ccdc_geom_bond_type
C0 C1 1.264 . S
C0 C5 1.479 . S
C0 C10 1.465 . S
C1 C0 1.264 . S
C1 C3 1.339 . S
C1 H28 0.931 . S
C2 C3 1.395 . S
C2 C4 1.320 . S
C3 C1 1.339 . S
C3 C2 1.395 . S
C3 H29 0.929 . S
C4 C2 1.320 . S
C4 C5 1.405 . S
C4 H30 0.930 . S
C5 C0 1.479 . S
C5 C4 1.405 . S
C5 H31 0.931 . S
U6 O7 2.454 . S
U6 O8 2.458 . S
U6 C9 2.984 . S
U6 C10 2.847 . S
U6 C23 2.882 . S
U6 O24 2.441 . S
U6 O25 2.420 . S
U6 O26 2.455 . S
U6 O27 2.449 . S
O7 U6 2.454 . S
O7 C9 1.353 . S
O8 U6 2.458 . S
O8 C9 1.286 . S
C9 U6 2.984 . S
C9 O7 1.353 . S
C9 O8 1.286 . S
C9 C11 1.363 . S
C10 C0 1.465 . S
C10 U6 2.847 . S
C10 O24 1.249 . S
C10 O25 1.202 . S
C11 C9 1.363 . S
C11 C13 1.408 . S
C11 C16 1.342 . S
C12 C13 1.310 . S
C12 C15 1.461 . S
C12 H32 0.932 . S
C13 C11 1.408 . S
C13 C12 1.310 . S
C13 H33 0.930 . S
C14 C15 1.474 . S
C14 C16 1.285 . S
C14 H34 0.929 . S
C15 C12 1.461 . S
C15 C14 1.474 . S
C16 C11 1.342 . S
C16 C14 1.285 . S
C16 H35 0.930 . S
C17 C20 1.424 . S
C17 C22 1.245 . S
C17 C23 1.428 . S
C18 C21 1.260 . S
C18 C22 1.477 . S
C18 H36 0.932 . S
C19 C20 1.384 . S
C19 C21 1.479 . S
C19 H37 0.929 . S
C20 C17 1.424 . S
C20 C19 1.384 . S
C20 H38 0.928 . S
C21 C18 1.260 . S
C21 C19 1.479 . S
C22 C17 1.245 . S
C22 C18 1.477 . S
C22 H39 0.932 . S
C23 U6 2.882 . S
C23 C17 1.428 . S
C23 O26 1.301 . S
C23 O27 1.282 . S
O24 U6 2.441 . S
O24 C10 1.249 . S
O25 U6 2.420 . S
O25 C10 1.202 . S
O26 U6 2.455 . S
O26 C23 1.301 . S
O27 U6 2.449 . S
O27 C23 1.282 . S
H28 C1 0.931 . S
H29 C3 0.929 . S
H30 C4 0.930 . S
H31 C5 0.931 . S
H32 C12 0.932 . S
H33 C13 0.930 . S
H34 C14 0.929 . S
H35 C16 0.930 . S
H36 C18 0.932 . S
H37 C19 0.929 . S
H38 C20 0.928 . S
H39 C22 0.932 . S
C40 C41 1.264 . S
C40 C45 1.479 . S
C40 C50 1.465 . S
C41 C40 1.264 . S
C41 C43 1.339 . S
C41 H68 0.931 . S
C42 C43 1.395 . S
C42 C44 1.320 . S
C43 C41 1.339 . S
C43 C42 1.395 . S
C43 H69 0.929 . S
C44 C42 1.320 . S
C44 C45 1.405 . S
C44 H70 0.930 . S
C45 C40 1.479 . S
C45 C44 1.405 . S
C45 H71 0.931 . S
U46 O47 2.454 . S
U46 O48 2.458 . S
U46 C49 2.984 . S
U46 C50 2.847 . S
U46 C63 2.882 . S
U46 O64 2.441 . S
U46 O65 2.420 . S
U46 O66 2.455 . S
U46 O67 2.449 . S
O47 U46 2.454 . S
O47 C49 1.353 . S
O48 U46 2.458 . S
O48 C49 1.286 . S
C49 U46 2.984 . S
C49 O47 1.353 . S
C49 O48 1.286 . S
C49 C51 1.363 . S
C50 C40 1.465 . S
C50 U46 2.847 . S
C50 O64 1.249 . S
C50 O65 1.202 . S
C51 C49 1.363 . S
C51 C53 1.408 . S
C51 C56 1.342 . S
C52 C53 1.310 . S
C52 C55 1.461 . S
C52 H72 0.932 . S
C53 C51 1.408 . S
C53 C52 1.310 . S
C53 H73 0.930 . S
C54 C55 1.474 . S
C54 C56 1.285 . S
C54 H74 0.929 . S
C55 C52 1.461 . S
C55 C54 1.474 . S
C56 C51 1.342 . S
C56 C54 1.285 . S
C56 H75 0.930 . S
C57 C60 1.424 . S
C57 C62 1.245 . S
C57 C63 1.428 . S
C58 C61 1.260 . S
C58 C62 1.477 . S
C58 H76 0.932 . S
C59 C60 1.384 . S
C59 C61 1.479 . S
C59 H77 0.929 . S
C60 C57 1.424 . S
C60 C59 1.384 . S
C60 H78 0.928 . S
C61 C58 1.260 . S
C61 C59 1.479 . S
C62 C57 1.245 . S
C62 C58 1.477 . S
C62 H79 0.932 . S
C63 U46 2.882 . S
C63 C57 1.428 . S
C63 O66 1.301 . S
C63 O67 1.282 . S
O64 U46 2.441 . S
O64 C50 1.249 . S
O65 U46 2.420 . S
O65 C50 1.202 . S
O66 U46 2.455 . S
O66 C63 1.301 . S
O67 U46 2.449 . S
O67 C63 1.282 . S
H68 C41 0.931 . S
H69 C43 0.929 . S
H70 C44 0.930 . S
H71 C45 0.931 . S
H72 C52 0.932 . S
H73 C53 0.930 . S
H74 C54 0.929 . S
H75 C56 0.930 . S
H76 C58 0.932 . S
H77 C59 0.929 . S
H78 C60 0.928 . S
H79 C62 0.932 . S
C80 C81 1.264 . S
C80 C85 1.479 . S
C80 C90 1.465 . S
C81 C80 1.264 . S
C81 C83 1.339 . S
C81 H108 0.931 . S
C82 C83 1.395 . S
C82 C84 1.320 . S
C83 C81 1.339 . S
C83 C82 1.395 . S
C83 H109 0.929 . S
C84 C82 1.320 . S
C84 C85 1.405 . S
C84 H110 0.930 . S
C85 C80 1.479 . S
C85 C84 1.405 . S
C85 H111 0.931 . S
U86 O87 2.454 . S
U86 O88 2.458 . S
U86 C89 2.984 . S
U86 C90 2.847 . S
U86 C103 2.882 . S
U86 O104 2.441 . S
U86 O105 2.420 . S
U86 O106 2.455 . S
U86 O107 2.449 . S
O87 U86 2.454 . S
O87 C89 1.353 . S
O88 U86 2.458 . S
O88 C89 1.286 . S
C89 U86 2.984 . S
C89 O87 1.353 . S
C89 O88 1.286 . S
C89 C91 1.363 . S
C90 C80 1.465 . S
C90 U86 2.847 . S
C90 O104 1.249 . S
C90 O105 1.202 . S
C91 C89 1.363 . S
C91 C93 1.408 . S
C91 C96 1.342 . S
C92 C93 1.310 . S
C92 C95 1.461 . S
C92 H112 0.932 . S
C93 C91 1.408 . S
C93 C92 1.310 . S
C93 H113 0.930 . S
C94 C95 1.474 . S
C94 C96 1.285 . S
C94 H114 0.929 . S
C95 C92 1.461 . S
C95 C94 1.474 . S
C96 C91 1.342 . S
C96 C94 1.285 . S
C96 H115 0.930 . S
C97 C100 1.424 . S
C97 C102 1.245 . S
C97 C103 1.428 . S
C98 C101 1.260 . S
C98 C102 1.477 . S
C98 H116 0.932 . S
C99 C100 1.384 . S
C99 C101 1.479 . S
C99 H117 0.929 . S
C100 C97 1.424 . S
C100 C99 1.384 . S
C100 H118 0.928 . S
C101 C98 1.260 . S
C101 C99 1.479 . S
C102 C97 1.245 . S
C102 C98 1.477 . S
C102 H119 0.932 . S
C103 U86 2.882 . S
C103 C97 1.428 . S
C103 O106 1.301 . S
C103 O107 1.282 . S
O104 U86 2.441 . S
O104 C90 1.249 . S
O105 U86 2.420 . S
O105 C90 1.202 . S
O106 U86 2.455 . S
O106 C103 1.301 . S
O107 U86 2.449 . S
O107 C103 1.282 . S
H108 C81 0.931 . S
H109 C83 0.929 . S
H110 C84 0.930 . S
H111 C85 0.931 . S
H112 C92 0.932 . S
H113 C93 0.930 . S
H114 C94 0.929 . S
H115 C96 0.930 . S
H116 C98 0.932 . S
H117 C99 0.929 . S
H118 C100 0.928 . S
H119 C102 0.932 . S
C120 C121 1.264 . S
C120 C125 1.479 . S
C120 C130 1.465 . S
C121 C120 1.264 . S
C121 C123 1.339 . S
C121 H148 0.931 . S
C122 C123 1.395 . S
C122 C124 1.320 . S
C123 C121 1.339 . S
C123 C122 1.395 . S
C123 H149 0.929 . S
C124 C122 1.320 . S
C124 C125 1.405 . S
C124 H150 0.930 . S
C125 C120 1.479 . S
C125 C124 1.405 . S
C125 H151 0.931 . S
U126 O127 2.454 . S
U126 O128 2.458 . S
U126 C129 2.984 . S
U126 C130 2.847 . S
U126 C143 2.882 . S
U126 O144 2.441 . S
U126 O145 2.420 . S
U126 O146 2.455 . S
U126 O147 2.449 . S
O127 U126 2.454 . S
O127 C129 1.353 . S
O128 U126 2.458 . S
O128 C129 1.286 . S
C129 U126 2.984 . S
C129 O127 1.353 . S
C129 O128 1.286 . S
C129 C131 1.363 . S
C130 C120 1.465 . S
C130 U126 2.847 . S
C130 O144 1.249 . S
C130 O145 1.202 . S
C131 C129 1.363 . S
C131 C133 1.408 . S
C131 C136 1.342 . S
C132 C133 1.310 . S
C132 C135 1.461 . S
C132 H152 0.932 . S
C133 C131 1.408 . S
C133 C132 1.310 . S
C133 H153 0.930 . S
C134 C135 1.474 . S
C134 C136 1.285 . S
C134 H154 0.929 . S
C135 C132 1.461 . S
C135 C134 1.474 . S
C136 C131 1.342 . S
C136 C134 1.285 . S
C136 H155 0.930 . S
C137 C140 1.424 . S
C137 C142 1.245 . S
C137 C143 1.428 . S
C138 C141 1.260 . S
C138 C142 1.477 . S
C138 H156 0.932 . S
C139 C140 1.384 . S
C139 C141 1.479 . S
C139 H157 0.929 . S
C140 C137 1.424 . S
C140 C139 1.384 . S
C140 H158 0.928 . S
C141 C138 1.260 . S
C141 C139 1.479 . S
C142 C137 1.245 . S
C142 C138 1.477 . S
C142 H159 0.932 . S
C143 U126 2.882 . S
C143 C137 1.428 . S
C143 O146 1.301 . S
C143 O147 1.282 . S
O144 U126 2.441 . S
O144 C130 1.249 . S
O145 U126 2.420 . S
O145 C130 1.202 . S
O146 U126 2.455 . S
O146 C143 1.301 . S
O147 U126 2.449 . S
O147 C143 1.282 . S
H148 C121 0.931 . S
H149 C123 0.929 . S
H150 C124 0.930 . S
H151 C125 0.931 . S
H152 C132 0.932 . S
H153 C133 0.930 . S
H154 C134 0.929 . S
H155 C136 0.930 . S
H156 C138 0.932 . S
H157 C139 0.929 . S
H158 C140 0.928 . S
H159 C142 0.932 . S
C160 C161 1.264 . S
C160 C165 1.479 . S
C160 C170 1.465 . S
C161 C160 1.264 . S
C161 C163 1.339 . S
C161 H188 0.931 . S
C162 C163 1.395 . S
C162 C164 1.320 . S
C163 C161 1.339 . S
C163 C162 1.395 . S
C163 H189 0.929 . S
C164 C162 1.320 . S
C164 C165 1.405 . S
C164 H190 0.930 . S
C165 C160 1.479 . S
C165 C164 1.405 . S
C165 H191 0.931 . S
U166 O167 2.454 . S
U166 O168 2.458 . S
U166 C169 2.984 . S
U166 C170 2.847 . S
U166 C183 2.882 . S
U166 O184 2.441 . S
U166 O185 2.420 . S
U166 O186 2.455 . S
U166 O187 2.449 . S
O167 U166 2.454 . S
O167 C169 1.353 . S
O168 U166 2.458 . S
O168 C169 1.286 . S
C169 U166 2.984 . S
C169 O167 1.353 . S
C169 O168 1.286 . S
C169 C171 1.363 . S
C170 C160 1.465 . S
C170 U166 2.847 . S
C170 O184 1.249 . S
C170 O185 1.202 . S
C171 C169 1.363 . S
C171 C173 1.408 . S
C171 C176 1.342 . S
C172 C173 1.310 . S
C172 C175 1.461 . S
C172 H192 0.932 . S
C173 C171 1.408 . S
C173 C172 1.310 . S
C173 H193 0.930 . S
C174 C175 1.474 . S
C174 C176 1.285 . S
C174 H194 0.929 . S
C175 C172 1.461 . S
C175 C174 1.474 . S
C176 C171 1.342 . S
C176 C174 1.285 . S
C176 H195 0.930 . S
C177 C180 1.424 . S
C177 C182 1.245 . S
C177 C183 1.428 . S
C178 C181 1.260 . S
C178 C182 1.477 . S
C178 H196 0.932 . S
C179 C180 1.384 . S
C179 C181 1.479 . S
C179 H197 0.929 . S
C180 C177 1.424 . S
C180 C179 1.384 . S
C180 H198 0.928 . S
C181 C178 1.260 . S
C181 C179 1.479 . S
C182 C177 1.245 . S
C182 C178 1.477 . S
C182 H199 0.932 . S
C183 U166 2.882 . S
C183 C177 1.428 . S
C183 O186 1.301 . S
C183 O187 1.282 . S
O184 U166 2.441 . S
O184 C170 1.249 . S
O185 U166 2.420 . S
O185 C170 1.202 . S
O186 U166 2.455 . S
O186 C183 1.301 . S
O187 U166 2.449 . S
O187 C183 1.282 . S
H188 C161 0.931 . S
H189 C163 0.929 . S
H190 C164 0.930 . S
H191 C165 0.931 . S
H192 C172 0.932 . S
H193 C173 0.930 . S
H194 C174 0.929 . S
H195 C176 0.930 . S
H196 C178 0.932 . S
H197 C179 0.929 . S
H198 C180 0.928 . S
H199 C182 0.932 . S
C200 C201 1.264 . S
C200 C205 1.479 . S
C200 C210 1.465 . S
C201 C200 1.264 . S
C201 C203 1.339 . S
C201 H228 0.931 . S
C202 C203 1.395 . S
C202 C204 1.320 . S
C203 C201 1.339 . S
C203 C202 1.395 . S
C203 H229 0.929 . S
C204 C202 1.320 . S
C204 C205 1.405 . S
C204 H230 0.930 . S
C205 C200 1.479 . S
C205 C204 1.405 . S
C205 H231 0.931 . S
U206 O207 2.454 . S
U206 O208 2.458 . S
U206 C209 2.984 . S
U206 C210 2.847 . S
U206 C223 2.882 . S
U206 O224 2.441 . S
U206 O225 2.420 . S
U206 O226 2.455 . S
U206 O227 2.449 . S
O207 U206 2.454 . S
O207 C209 1.353 . S
O208 U206 2.458 . S
O208 C209 1.286 . S
C209 U206 2.984 . S
C209 O207 1.353 . S
C209 O208 1.286 . S
C209 C211 1.363 . S
C210 C200 1.465 . S
C210 U206 2.847 . S
C210 O224 1.249 . S
C210 O225 1.202 . S
C211 C209 1.363 . S
C211 C213 1.408 . S
C211 C216 1.342 . S
C212 C213 1.310 . S
C212 C215 1.461 . S
C212 H232 0.932 . S
C213 C211 1.408 . S
C213 C212 1.310 . S
C213 H233 0.930 . S
C214 C215 1.474 . S
C214 C216 1.285 . S
C214 H234 0.929 . S
C215 C212 1.461 . S
C215 C214 1.474 . S
C216 C211 1.342 . S
C216 C214 1.285 . S
C216 H235 0.930 . S
C217 C220 1.424 . S
C217 C222 1.245 . S
C217 C223 1.428 . S
C218 C221 1.260 . S
C218 C222 1.477 . S
C218 H236 0.932 . S
C219 C220 1.384 . S
C219 C221 1.479 . S
C219 H237 0.929 . S
C220 C217 1.424 . S
C220 C219 1.384 . S
C220 H238 0.928 . S
C221 C218 1.260 . S
C221 C219 1.479 . S
C222 C217 1.245 . S
C222 C218 1.477 . S
C222 H239 0.932 . S
C223 U206 2.882 . S
C223 C217 1.428 . S
C223 O226 1.301 . S
C223 O227 1.282 . S
O224 U206 2.441 . S
O224 C210 1.249 . S
O225 U206 2.420 . S
O225 C210 1.202 . S
O226 U206 2.455 . S
O226 C223 1.301 . S
O227 U206 2.449 . S
O227 C223 1.282 . S
H228 C201 0.931 . S
H229 C203 0.929 . S
H230 C204 0.930 . S
H231 C205 0.931 . S
H232 C212 0.932 . S
H233 C213 0.930 . S
H234 C214 0.929 . S
H235 C216 0.930 . S
H236 C218 0.932 . S
H237 C219 0.929 . S
H238 C220 0.928 . S
H239 C222 0.932 . S
C240 C241 1.264 . S
C240 C245 1.479 . S
C240 C250 1.465 . S
C241 C240 1.264 . S
C241 C243 1.339 . S
C241 H268 0.931 . S
C242 C243 1.395 . S
C242 C244 1.320 . S
C243 C241 1.339 . S
C243 C242 1.395 . S
C243 H269 0.929 . S
C244 C242 1.320 . S
C244 C245 1.405 . S
C244 H270 0.930 . S
C245 C240 1.479 . S
C245 C244 1.405 . S
C245 H271 0.931 . S
U246 O247 2.454 . S
U246 O248 2.458 . S
U246 C249 2.984 . S
U246 C250 2.847 . S
U246 C263 2.882 . S
U246 O264 2.441 . S
U246 O265 2.420 . S
U246 O266 2.455 . S
U246 O267 2.449 . S
O247 U246 2.454 . S
O247 C249 1.353 . S
O248 U246 2.458 . S
O248 C249 1.286 . S
C249 U246 2.984 . S
C249 O247 1.353 . S
C249 O248 1.286 . S
C249 C251 1.363 . S
C250 C240 1.465 . S
C250 U246 2.847 . S
C250 O264 1.249 . S
C250 O265 1.202 . S
C251 C249 1.363 . S
C251 C253 1.408 . S
C251 C256 1.342 . S
C252 C253 1.310 . S
C252 C255 1.461 . S
C252 H272 0.932 . S
C253 C251 1.408 . S
C253 C252 1.310 . S
C253 H273 0.930 . S
C254 C255 1.474 . S
C254 C256 1.285 . S
C254 H274 0.929 . S
C255 C252 1.461 . S
C255 C254 1.474 . S
C256 C251 1.342 . S
C256 C254 1.285 . S
C256 H275 0.930 . S
C257 C260 1.424 . S
C257 C262 1.245 . S
C257 C263 1.428 . S
C258 C261 1.260 . S
C258 C262 1.477 . S
C258 H276 0.932 . S
C259 C260 1.384 . S
C259 C261 1.479 . S
C259 H277 0.929 . S
C260 C257 1.424 . S
C260 C259 1.384 . S
C260 H278 0.928 . S
C261 C258 1.260 . S
C261 C259 1.479 . S
C262 C257 1.245 . S
C262 C258 1.477 . S
C262 H279 0.932 . S
C263 U246 2.882 . S
C263 C257 1.428 . S
C263 O266 1.301 . S
C263 O267 1.282 . S
O264 U246 2.441 . S
O264 C250 1.249 . S
O265 U246 2.420 . S
O265 C250 1.202 . S
O266 U246 2.455 . S
O266 C263 1.301 . S
O267 U246 2.449 . S
O267 C263 1.282 . S
H268 C241 0.931 . S
H269 C243 0.929 . S
H270 C244 0.930 . S
H271 C245 0.931 . S
H272 C252 0.932 . S
H273 C253 0.930 . S
H274 C254 0.929 . S
H275 C256 0.930 . S
H276 C258 0.932 . S
H277 C259 0.929 . S
H278 C260 0.928 . S
H279 C262 0.932 . S
C280 C281 1.264 . S
C280 C285 1.479 . S
C280 C290 1.465 . S
C281 C280 1.264 . S
C281 C283 1.339 . S
C281 H308 0.931 . S
C282 C283 1.395 . S
C282 C284 1.320 . S
C283 C281 1.339 . S
C283 C282 1.395 . S
C283 H309 0.929 . S
C284 C282 1.320 . S
C284 C285 1.405 . S
C284 H310 0.930 . S
C285 C280 1.479 . S
C285 C284 1.405 . S
C285 H311 0.931 . S
U286 O287 2.454 . S
U286 O288 2.458 . S
U286 C289 2.984 . S
U286 C290 2.847 . S
U286 C303 2.882 . S
U286 O304 2.441 . S
U286 O305 2.420 . S
U286 O306 2.455 . S
U286 O307 2.449 . S
O287 U286 2.454 . S
O287 C289 1.353 . S
O288 U286 2.458 . S
O288 C289 1.286 . S
C289 U286 2.984 . S
C289 O287 1.353 . S
C289 O288 1.286 . S
C289 C291 1.363 . S
C290 C280 1.465 . S
C290 U286 2.847 . S
C290 O304 1.249 . S
C290 O305 1.202 . S
C291 C289 1.363 . S
C291 C293 1.408 . S
C291 C296 1.342 . S
C292 C293 1.310 . S
C292 C295 1.461 . S
C292 H312 0.932 . S
C293 C291 1.408 . S
C293 C292 1.310 . S
C293 H313 0.930 . S
C294 C295 1.474 . S
C294 C296 1.285 . S
C294 H314 0.929 . S
C295 C292 1.461 . S
C295 C294 1.474 . S
C296 C291 1.342 . S
C296 C294 1.285 . S
C296 H315 0.930 . S
C297 C300 1.424 . S
C297 C302 1.245 . S
C297 C303 1.428 . S
C298 C301 1.260 . S
C298 C302 1.477 . S
C298 H316 0.932 . S
C299 C300 1.384 . S
C299 C301 1.479 . S
C299 H317 0.929 . S
C300 C297 1.424 . S
C300 C299 1.384 . S
C300 H318 0.928 . S
C301 C298 1.260 . S
C301 C299 1.479 . S
C302 C297 1.245 . S
C302 C298 1.477 . S
C302 H319 0.932 . S
C303 U286 2.882 . S
C303 C297 1.428 . S
C303 O306 1.301 . S
C303 O307 1.282 . S
O304 U286 2.441 . S
O304 C290 1.249 . S
O305 U286 2.420 . S
O305 C290 1.202 . S
O306 U286 2.455 . S
O306 C303 1.301 . S
O307 U286 2.449 . S
O307 C303 1.282 . S
H308 C281 0.931 . S
H309 C283 0.929 . S
H310 C284 0.930 . S
H311 C285 0.931 . S
H312 C292 0.932 . S
H313 C293 0.930 . S
H314 C294 0.929 . S
H315 C296 0.930 . S
H316 C298 0.932 . S
H317 C299 0.929 . S
H318 C300 0.928 . S
H319 C302 0.932 . S
C320 C321 1.264 . S
C320 C325 1.479 . S
C320 C330 1.465 . S
C321 C320 1.264 . S
C321 C323 1.339 . S
C321 H348 0.931 . S
C322 C323 1.395 . S
C322 C324 1.320 . S
C323 C321 1.339 . S
C323 C322 1.395 . S
C323 H349 0.929 . S
C324 C322 1.320 . S
C324 C325 1.405 . S
C324 H350 0.930 . S
C325 C320 1.479 . S
C325 C324 1.405 . S
C325 H351 0.931 . S
U326 O327 2.454 . S
U326 O328 2.458 . S
U326 C329 2.984 . S
U326 C330 2.847 . S
U326 C343 2.882 . S
U326 O344 2.441 . S
U326 O345 2.420 . S
U326 O346 2.455 . S
U326 O347 2.449 . S
O327 U326 2.454 . S
O327 C329 1.353 . S
O328 U326 2.458 . S
O328 C329 1.286 . S
C329 U326 2.984 . S
C329 O327 1.353 . S
C329 O328 1.286 . S
C329 C331 1.363 . S
C330 C320 1.465 . S
C330 U326 2.847 . S
C330 O344 1.249 . S
C330 O345 1.202 . S
C331 C329 1.363 . S
C331 C333 1.408 . S
C331 C336 1.342 . S
C332 C333 1.310 . S
C332 C335 1.461 . S
C332 H352 0.932 . S
C333 C331 1.408 . S
C333 C332 1.310 . S
C333 H353 0.930 . S
C334 C335 1.474 . S
C334 C336 1.285 . S
C334 H354 0.929 . S
C335 C332 1.461 . S
C335 C334 1.474 . S
C336 C331 1.342 . S
C336 C334 1.285 . S
C336 H355 0.930 . S
C337 C340 1.424 . S
C337 C342 1.245 . S
C337 C343 1.428 . S
C338 C341 1.260 . S
C338 C342 1.477 . S
C338 H356 0.932 . S
C339 C340 1.384 . S
C339 C341 1.479 . S
C339 H357 0.929 . S
C340 C337 1.424 . S
C340 C339 1.384 . S
C340 H358 0.928 . S
C341 C338 1.260 . S
C341 C339 1.479 . S
C342 C337 1.245 . S
C342 C338 1.477 . S
C342 H359 0.932 . S
C343 U326 2.882 . S
C343 C337 1.428 . S
C343 O346 1.301 . S
C343 O347 1.282 . S
O344 U326 2.441 . S
O344 C330 1.249 . S
O345 U326 2.420 . S
O345 C330 1.202 . S
O346 U326 2.455 . S
O346 C343 1.301 . S
O347 U326 2.449 . S
O347 C343 1.282 . S
H348 C321 0.931 . S
H349 C323 0.929 . S
H350 C324 0.930 . S
H351 C325 0.931 . S
H352 C332 0.932 . S
H353 C333 0.930 . S
H354 C334 0.929 . S
H355 C336 0.930 . S
H356 C338 0.932 . S
H357 C339 0.929 . S
H358 C340 0.928 . S
H359 C342 0.932 . S
C360 C361 1.264 . S
C360 C365 1.479 . S
C360 C370 1.465 . S
C361 C360 1.264 . S
C361 C363 1.339 . S
C361 H388 0.931 . S
C362 C363 1.395 . S
C362 C364 1.320 . S
C363 C361 1.339 . S
C363 C362 1.395 . S
C363 H389 0.929 . S
C364 C362 1.320 . S
C364 C365 1.405 . S
C364 H390 0.930 . S
C365 C360 1.479 . S
C365 C364 1.405 . S
C365 H391 0.931 . S
U366 O367 2.454 . S
U366 O368 2.458 . S
U366 C369 2.984 . S
U366 C370 2.847 . S
U366 C383 2.882 . S
U366 O384 2.441 . S
U366 O385 2.420 . S
U366 O386 2.455 . S
U366 O387 2.449 . S
O367 U366 2.454 . S
O367 C369 1.353 . S
O368 U366 2.458 . S
O368 C369 1.286 . S
C369 U366 2.984 . S
C369 O367 1.353 . S
C369 O368 1.286 . S
C369 C371 1.363 . S
C370 C360 1.465 . S
C370 U366 2.847 . S
C370 O384 1.249 . S
C370 O385 1.202 . S
C371 C369 1.363 . S
C371 C373 1.408 . S
C371 C376 1.342 . S
C372 C373 1.310 . S
C372 C375 1.461 . S
C372 H392 0.932 . S
C373 C371 1.408 . S
C373 C372 1.310 . S
C373 H393 0.930 . S
C374 C375 1.474 . S
C374 C376 1.285 . S
C374 H394 0.929 . S
C375 C372 1.461 . S
C375 C374 1.474 . S
C376 C371 1.342 . S
C376 C374 1.285 . S
C376 H395 0.930 . S
C377 C380 1.424 . S
C377 C382 1.245 . S
C377 C383 1.428 . S
C378 C381 1.260 . S
C378 C382 1.477 . S
C378 H396 0.932 . S
C379 C380 1.384 . S
C379 C381 1.479 . S
C379 H397 0.929 . S
C380 C377 1.424 . S
C380 C379 1.384 . S
C380 H398 0.928 . S
C381 C378 1.260 . S
C381 C379 1.479 . S
C382 C377 1.245 . S
C382 C378 1.477 . S
C382 H399 0.932 . S
C383 U366 2.882 . S
C383 C377 1.428 . S
C383 O386 1.301 . S
C383 O387 1.282 . S
O384 U366 2.441 . S
O384 C370 1.249 . S
O385 U366 2.420 . S
O385 C370 1.202 . S
O386 U366 2.455 . S
O386 C383 1.301 . S
O387 U366 2.449 . S
O387 C383 1.282 . S
H388 C361 0.931 . S
H389 C363 0.929 . S
H390 C364 0.930 . S
H391 C365 0.931 . S
H392 C372 0.932 . S
H393 C373 0.930 . S
H394 C374 0.929 . S
H395 C376 0.930 . S
H396 C378 0.932 . S
H397 C379 0.929 . S
H398 C380 0.928 . S
H399 C382 0.932 . S
C400 C401 1.264 . S
C400 C405 1.479 . S
C400 C410 1.465 . S
C401 C400 1.264 . S
C401 C403 1.339 . S
C401 H428 0.931 . S
C402 C403 1.395 . S
C402 C404 1.320 . S
C403 C401 1.339 . S
C403 C402 1.395 . S
C403 H429 0.929 . S
C404 C402 1.320 . S
C404 C405 1.405 . S
C404 H430 0.930 . S
C405 C400 1.479 . S
C405 C404 1.405 . S
C405 H431 0.931 . S
U406 O407 2.454 . S
U406 O408 2.458 . S
U406 C409 2.984 . S
U406 C410 2.847 . S
U406 C423 2.882 . S
U406 O424 2.441 . S
U406 O425 2.420 . S
U406 O426 2.455 . S
U406 O427 2.449 . S
O407 U406 2.454 . S
O407 C409 1.353 . S
O408 U406 2.458 . S
O408 C409 1.286 . S
C409 U406 2.984 . S
C409 O407 1.353 . S
C409 O408 1.286 . S
C409 C411 1.363 . S
C410 C400 1.465 . S
C410 U406 2.847 . S
C410 O424 1.249 . S
C410 O425 1.202 . S
C411 C409 1.363 . S
C411 C413 1.408 . S
C411 C416 1.342 . S
C412 C413 1.310 . S
C412 C415 1.461 . S
C412 H432 0.932 . S
C413 C411 1.408 . S
C413 C412 1.310 . S
C413 H433 0.930 . S
C414 C415 1.474 . S
C414 C416 1.285 . S
C414 H434 0.929 . S
C415 C412 1.461 . S
C415 C414 1.474 . S
C416 C411 1.342 . S
C416 C414 1.285 . S
C416 H435 0.930 . S
C417 C420 1.424 . S
C417 C422 1.245 . S
C417 C423 1.428 . S
C418 C421 1.260 . S
C418 C422 1.477 . S
C418 H436 0.932 . S
C419 C420 1.384 . S
C419 C421 1.479 . S
C419 H437 0.929 . S
C420 C417 1.424 . S
C420 C419 1.384 . S
C420 H438 0.928 . S
C421 C418 1.260 . S
C421 C419 1.479 . S
C422 C417 1.245 . S
C422 C418 1.477 . S
C422 H439 0.932 . S
C423 U406 2.882 . S
C423 C417 1.428 . S
C423 O426 1.301 . S
C423 O427 1.282 . S
O424 U406 2.441 . S
O424 C410 1.249 . S
O425 U406 2.420 . S
O425 C410 1.202 . S
O426 U406 2.455 . S
O426 C423 1.301 . S
O427 U406 2.449 . S
O427 C423 1.282 . S
H428 C401 0.931 . S
H429 C403 0.929 . S
H430 C404 0.930 . S
H431 C405 0.931 . S
H432 C412 0.932 . S
H433 C413 0.930 . S
H434 C414 0.929 . S
H435 C416 0.930 . S
H436 C418 0.932 . S
H437 C419 0.929 . S
H438 C420 0.928 . S
H439 C422 0.932 . S
C440 C441 1.264 . S
C440 C445 1.479 . S
C440 C450 1.465 . S
C441 C440 1.264 . S
C441 C443 1.339 . S
C441 H468 0.931 . S
C442 C443 1.395 . S
C442 C444 1.320 . S
C443 C441 1.339 . S
C443 C442 1.395 . S
C443 H469 0.929 . S
C444 C442 1.320 . S
C444 C445 1.405 . S
C444 H470 0.930 . S
C445 C440 1.479 . S
C445 C444 1.405 . S
C445 H471 0.931 . S
U446 O447 2.454 . S
U446 O448 2.458 . S
U446 C449 2.984 . S
U446 C450 2.847 . S
U446 C463 2.882 . S
U446 O464 2.441 . S
U446 O465 2.420 . S
U446 O466 2.455 . S
U446 O467 2.449 . S
O447 U446 2.454 . S
O447 C449 1.353 . S
O448 U446 2.458 . S
O448 C449 1.286 . S
C449 U446 2.984 . S
C449 O447 1.353 . S
C449 O448 1.286 . S
C449 C451 1.363 . S
C450 C440 1.465 . S
C450 U446 2.847 . S
C450 O464 1.249 . S
C450 O465 1.202 . S
C451 C449 1.363 . S
C451 C453 1.408 . S
C451 C456 1.342 . S
C452 C453 1.310 . S
C452 C455 1.461 . S
C452 H472 0.932 . S
C453 C451 1.408 . S
C453 C452 1.310 . S
C453 H473 0.930 . S
C454 C455 1.474 . S
C454 C456 1.285 . S
C454 H474 0.929 . S
C455 C452 1.461 . S
C455 C454 1.474 . S
C456 C451 1.342 . S
C456 C454 1.285 . S
C456 H475 0.930 . S
C457 C460 1.424 . S
C457 C462 1.245 . S
C457 C463 1.428 . S
C458 C461 1.260 . S
C458 C462 1.477 . S
C458 H476 0.932 . S
C459 C460 1.384 . S
C459 C461 1.479 . S
C459 H477 0.929 . S
C460 C457 1.424 . S
C460 C459 1.384 . S
C460 H478 0.928 . S
C461 C458 1.260 . S
C461 C459 1.479 . S
C462 C457 1.245 . S
C462 C458 1.477 . S
C462 H479 0.932 . S
C463 U446 2.882 . S
C463 C457 1.428 . S
C463 O466 1.301 . S
C463 O467 1.282 . S
O464 U446 2.441 . S
O464 C450 1.249 . S
O465 U446 2.420 . S
O465 C450 1.202 . S
O466 U446 2.455 . S
O466 C463 1.301 . S
O467 U446 2.449 . S
O467 C463 1.282 . S
H468 C441 0.931 . S
H469 C443 0.929 . S
H470 C444 0.930 . S
H471 C445 0.931 . S
H472 C452 0.932 . S
H473 C453 0.930 . S
H474 C454 0.929 . S
H475 C456 0.930 . S
H476 C458 0.932 . S
H477 C459 0.929 . S
H478 C460 0.928 . S
H479 C462 0.932 . S
C480 C481 1.264 . S
C480 C485 1.479 . S
C480 C490 1.465 . S
C481 C480 1.264 . S
C481 C483 1.339 . S
C481 H508 0.931 . S
C482 C483 1.395 . S
C482 C484 1.320 . S
C483 C481 1.339 . S
C483 C482 1.395 . S
C483 H509 0.929 . S
C484 C482 1.320 . S
C484 C485 1.405 . S
C484 H510 0.930 . S
C485 C480 1.479 . S
C485 C484 1.405 . S
C485 H511 0.931 . S
U486 O487 2.454 . S
U486 O488 2.458 . S
U486 C489 2.984 . S
U486 C490 2.847 . S
U486 C503 2.882 . S
U486 O504 2.441 . S
U486 O505 2.420 . S
U486 O506 2.455 . S
U486 O507 2.449 . S
O487 U486 2.454 . S
O487 C489 1.353 . S
O488 U486 2.458 . S
O488 C489 1.286 . S
C489 U486 2.984 . S
C489 O487 1.353 . S
C489 O488 1.286 . S
C489 C491 1.363 . S
C490 C480 1.465 . S
C490 U486 2.847 . S
C490 O504 1.249 . S
C490 O505 1.202 . S
C491 C489 1.363 . S
C491 C493 1.408 . S
C491 C496 1.342 . S
C492 C493 1.310 . S
C492 C495 1.461 . S
C492 H512 0.932 . S
C493 C491 1.408 . S
C493 C492 1.310 . S
C493 H513 0.930 . S
C494 C495 1.474 . S
C494 C496 1.285 . S
C494 H514 0.929 . S
C495 C492 1.461 . S
C495 C494 1.474 . S
C496 C491 1.342 . S
C496 C494 1.285 . S
C496 H515 0.930 . S
C497 C500 1.424 . S
C497 C502 1.245 . S
C497 C503 1.428 . S
C498 C501 1.260 . S
C498 C502 1.477 . S
C498 H516 0.932 . S
C499 C500 1.384 . S
C499 C501 1.479 . S
C499 H517 0.929 . S
C500 C497 1.424 . S
C500 C499 1.384 . S
C500 H518 0.928 . S
C501 C498 1.260 . S
C501 C499 1.479 . S
C502 C497 1.245 . S
C502 C498 1.477 . S
C502 H519 0.932 . S
C503 U486 2.882 . S
C503 C497 1.428 . S
C503 O506 1.301 . S
C503 O507 1.282 . S
O504 U486 2.441 . S
O504 C490 1.249 . S
O505 U486 2.420 . S
O505 C490 1.202 . S
O506 U486 2.455 . S
O506 C503 1.301 . S
O507 U486 2.449 . S
O507 C503 1.282 . S
H508 C481 0.931 . S
H509 C483 0.929 . S
H510 C484 0.930 . S
H511 C485 0.931 . S
H512 C492 0.932 . S
H513 C493 0.930 . S
H514 C494 0.929 . S
H515 C496 0.930 . S
H516 C498 0.932 . S
H517 C499 0.929 . S
H518 C500 0.928 . S
H519 C502 0.932 . S
C520 C521 1.264 . S
C520 C525 1.479 . S
C520 C530 1.465 . S
C521 C520 1.264 . S
C521 C523 1.339 . S
C521 H548 0.931 . S
C522 C523 1.395 . S
C522 C524 1.320 . S
C523 C521 1.339 . S
C523 C522 1.395 . S
C523 H549 0.929 . S
C524 C522 1.320 . S
C524 C525 1.405 . S
C524 H550 0.930 . S
C525 C520 1.479 . S
C525 C524 1.405 . S
C525 H551 0.931 . S
U526 O527 2.454 . S
U526 O528 2.458 . S
U526 C529 2.984 . S
U526 C530 2.847 . S
U526 C543 2.882 . S
U526 O544 2.441 . S
U526 O545 2.420 . S
U526 O546 2.455 . S
U526 O547 2.449 . S
O527 U526 2.454 . S
O527 C529 1.353 . S
O528 U526 2.458 . S
O528 C529 1.286 . S
C529 U526 2.984 . S
C529 O527 1.353 . S
C529 O528 1.286 . S
C529 C531 1.363 . S
C530 C520 1.465 . S
C530 U526 2.847 . S
C530 O544 1.249 . S
C530 O545 1.202 . S
C531 C529 1.363 . S
C531 C533 1.408 . S
C531 C536 1.342 . S
C532 C533 1.310 . S
C532 C535 1.461 . S
C532 H552 0.932 . S
C533 C531 1.408 . S
C533 C532 1.310 . S
C533 H553 0.930 . S
C534 C535 1.474 . S
C534 C536 1.285 . S
C534 H554 0.929 . S
C535 C532 1.461 . S
C535 C534 1.474 . S
C536 C531 1.342 . S
C536 C534 1.285 . S
C536 H555 0.930 . S
C537 C540 1.424 . S
C537 C542 1.245 . S
C537 C543 1.428 . S
C538 C541 1.260 . S
C538 C542 1.477 . S
C538 H556 0.932 . S
C539 C540 1.384 . S
C539 C541 1.479 . S
C539 H557 0.929 . S
C540 C537 1.424 . S
C540 C539 1.384 . S
C540 H558 0.928 . S
C541 C538 1.260 . S
C541 C539 1.479 . S
C542 C537 1.245 . S
C542 C538 1.477 . S
C542 H559 0.932 . S
C543 U526 2.882 . S
C543 C537 1.428 . S
C543 O546 1.301 . S
C543 O547 1.282 . S
O544 U526 2.441 . S
O544 C530 1.249 . S
O545 U526 2.420 . S
O545 C530 1.202 . S
O546 U526 2.455 . S
O546 C543 1.301 . S
O547 U526 2.449 . S
O547 C543 1.282 . S
H548 C521 0.931 . S
H549 C523 0.929 . S
H550 C524 0.930 . S
H551 C525 0.931 . S
H552 C532 0.932 . S
H553 C533 0.930 . S
H554 C534 0.929 . S
H555 C536 0.930 . S
H556 C538 0.932 . S
H557 C539 0.929 . S
H558 C540 0.928 . S
H559 C542 0.932 . S
C560 C561 1.264 . S
C560 C565 1.479 . S
C560 C570 1.465 . S
C561 C560 1.264 . S
C561 C563 1.339 . S
C561 H588 0.931 . S
C562 C563 1.395 . S
C562 C564 1.320 . S
C563 C561 1.339 . S
C563 C562 1.395 . S
C563 H589 0.929 . S
C564 C562 1.320 . S
C564 C565 1.405 . S
C564 H590 0.930 . S
C565 C560 1.479 . S
C565 C564 1.405 . S
C565 H591 0.931 . S
U566 O567 2.454 . S
U566 O568 2.458 . S
U566 C569 2.984 . S
U566 C570 2.847 . S
U566 C583 2.882 . S
U566 O584 2.441 . S
U566 O585 2.420 . S
U566 O586 2.455 . S
U566 O587 2.449 . S
O567 U566 2.454 . S
O567 C569 1.353 . S
O568 U566 2.458 . S
O568 C569 1.286 . S
C569 U566 2.984 . S
C569 O567 1.353 . S
C569 O568 1.286 . S
C569 C571 1.363 . S
C570 C560 1.465 . S
C570 U566 2.847 . S
C570 O584 1.249 . S
C570 O585 1.202 . S
C571 C569 1.363 . S
C571 C573 1.408 . S
C571 C576 1.342 . S
C572 C573 1.310 . S
C572 C575 1.461 . S
C572 H592 0.932 . S
C573 C571 1.408 . S
C573 C572 1.310 . S
C573 H593 0.930 . S
C574 C575 1.474 . S
C574 C576 1.285 . S
C574 H594 0.929 . S
C575 C572 1.461 . S
C575 C574 1.474 . S
C576 C571 1.342 . S
C576 C574 1.285 . S
C576 H595 0.930 . S
C577 C580 1.424 . S
C577 C582 1.245 . S
C577 C583 1.428 . S
C578 C581 1.260 . S
C578 C582 1.477 . S
C578 H596 0.932 . S
C579 C580 1.384 . S
C579 C581 1.479 . S
C579 H597 0.929 . S
C580 C577 1.424 . S
C580 C579 1.384 . S
C580 H598 0.928 . S
C581 C578 1.260 . S
C581 C579 1.479 . S
C582 C577 1.245 . S
C582 C578 1.477 . S
C582 H599 0.932 . S
C583 U566 2.882 . S
C583 C577 1.428 . S
C583 O586 1.301 . S
C583 O587 1.282 . S
O584 U566 2.441 . S
O584 C570 1.249 . S
O585 U566 2.420 . S
O585 C570 1.202 . S
O586 U566 2.455 . S
O586 C583 1.301 . S
O587 U566 2.449 . S
O587 C583 1.282 . S
H588 C561 0.931 . S
H589 C563 0.929 . S
H590 C564 0.930 . S
H591 C565 0.931 . S
H592 C572 0.932 . S
H593 C573 0.930 . S
H594 C574 0.929 . S
H595 C576 0.930 . S
H596 C578 0.932 . S
H597 C579 0.929 . S
H598 C580 0.928 . S
H599 C582 0.932 . S
C600 C601 1.264 . S
C600 C605 1.479 . S
C600 C610 1.465 . S
C601 C600 1.264 . S
C601 C603 1.339 . S
C601 H628 0.931 . S
C602 C603 1.395 . S
C602 C604 1.320 . S
C603 C601 1.339 . S
C603 C602 1.395 . S
C603 H629 0.929 . S
C604 C602 1.320 . S
C604 C605 1.405 . S
C604 H630 0.930 . S
C605 C600 1.479 . S
C605 C604 1.405 . S
C605 H631 0.931 . S
U606 O607 2.454 . S
U606 O608 2.458 . S
U606 C609 2.984 . S
U606 C610 2.847 . S
U606 C623 2.882 . S
U606 O624 2.441 . S
U606 O625 2.420 . S
U606 O626 2.455 . S
U606 O627 2.449 . S
O607 U606 2.454 . S
O607 C609 1.353 . S
O608 U606 2.458 . S
O608 C609 1.286 . S
C609 U606 2.984 . S
C609 O607 1.353 . S
C609 O608 1.286 . S
C609 C611 1.363 . S
C610 C600 1.465 . S
C610 U606 2.847 . S
C610 O624 1.249 . S
C610 O625 1.202 . S
C611 C609 1.363 . S
C611 C613 1.408 . S
C611 C616 1.342 . S
C612 C613 1.310 . S
C612 C615 1.461 . S
C612 H632 0.932 . S
C613 C611 1.408 . S
C613 C612 1.310 . S
C613 H633 0.930 . S
C614 C615 1.474 . S
C614 C616 1.285 . S
C614 H634 0.929 . S
C615 C612 1.461 . S
C615 C614 1.474 . S
C616 C611 1.342 . S
C616 C614 1.285 . S
C616 H635 0.930 . S
C617 C620 1.424 . S
C617 C622 1.245 . S
C617 C623 1.428 . S
C618 C621 1.260 . S
C618 C622 1.477 . S
C618 H636 0.932 . S
C619 C620 1.384 . S
C619 C621 1.479 . S
C619 H637 0.929 . S
C620 C617 1.424 . S
C620 C619 1.384 . S
C620 H638 0.928 . S
C621 C618 1.260 . S
C621 C619 1.479 . S
C622 C617 1.245 . S
C622 C618 1.477 . S
C622 H639 0.932 . S
C623 U606 2.882 . S
C623 C617 1.428 . S
C623 O626 1.301 . S
C623 O627 1.282 . S
O624 U606 2.441 . S
O624 C610 1.249 . S
O625 U606 2.420 . S
O625 C610 1.202 . S
O626 U606 2.455 . S
O626 C623 1.301 . S
O627 U606 2.449 . S
O627 C623 1.282 . S
H628 C601 0.931 . S
H629 C603 0.929 . S
H630 C604 0.930 . S
H631 C605 0.931 . S
H632 C612 0.932 . S
H633 C613 0.930 . S
H634 C614 0.929 . S
H635 C616 0.930 . S
H636 C618 0.932 . S
H637 C619 0.929 . S
H638 C620 0.928 . S
H639 C622 0.932 . S
H640 C658 0.951 . S
H641 C660 0.951 . S
H642 C662 0.950 . S
H643 C663 0.950 . S
H644 C665 0.950 . S
H645 C668 0.950 . S
H646 C669 0.950 . S
H647 C671 0.950 . S
H648 C672 0.931 1_545 S
H649 C673 0.951 . S
H650 C675 0.951 . S
H651 C677 0.950 . S
H652 C678 0.950 . S
H653 C680 0.950 . S
H654 C683 0.950 . S
H655 C684 0.950 . S
H656 C686 0.950 . S
H657 C687 0.931 1_565 S
C658 H640 0.951 . S
C658 C659 1.366 . S
C658 C660 1.388 . S
C659 C658 1.366 . S
C659 C663 1.385 . S
C660 H641 0.951 . S
C660 C658 1.388 . S
C660 C661 1.366 . S
C661 C660 1.366 . S
C661 C662 1.414 . S
C661 C664 1.499 . S
C662 H642 0.950 . S
C662 C661 1.414 . S
C662 C663 1.374 . S
C663 H643 0.950 . S
C663 C659 1.385 . S
C663 C662 1.374 . S
C664 C661 1.499 . S
C664 C665 1.373 1_556 S
C664 C666 1.389 . S
C665 H644 0.950 . S
C665 C664 1.373 1_554 S
C665 C681 1.377 1_565 S
C666 C664 1.389 . S
C666 C667 1.524 . S
C666 C680 1.377 1_565 S
C667 C666 1.524 . S
C667 C668 1.397 . S
C667 C672 1.363 . S
C668 H645 0.950 . S
C668 C667 1.397 . S
C668 C669 1.334 . S
C669 H646 0.950 . S
C669 C668 1.334 . S
C669 C670 1.287 . S
C670 C669 1.287 . S
C670 C671 1.524 . S
C670 H689 0.913 . S
C671 H647 0.950 . S
C671 C670 1.524 . S
C671 C672 1.415 . S
C672 H648 0.931 1_565 S
C672 C667 1.363 . S
C672 C671 1.415 . S
C673 H649 0.951 . S
C673 C674 1.366 . S
C673 C675 1.388 . S
C674 C673 1.366 . S
C674 C678 1.385 . S
C675 H650 0.951 . S
C675 C673 1.388 . S
C675 C676 1.366 . S
C676 C675 1.366 . S
C676 C677 1.414 . S
C676 C679 1.499 . S
C677 H651 0.950 . S
C677 C676 1.414 . S
C677 C678 1.374 . S
C678 H652 0.950 . S
C678 C674 1.385 . S
C678 C677 1.374 . S
C679 C676 1.499 . S
C679 C680 1.373 1_554 S
C679 C681 1.389 . S
C680 H653 0.950 . S
C680 C666 1.377 1_545 S
C680 C679 1.373 1_556 S
C681 C665 1.377 1_545 S
C681 C679 1.389 . S
C681 C682 1.524 . S
C682 C681 1.524 . S
C682 C683 1.397 . S
C682 C687 1.363 . S
C683 H654 0.950 . S
C683 C682 1.397 . S
C683 C684 1.334 . S
C684 H655 0.950 . S
C684 C683 1.334 . S
C684 C685 1.287 . S
C685 C684 1.287 . S
C685 C686 1.524 . S
C685 H688 0.999 . S
C686 H656 0.950 . S
C686 C685 1.524 . S
C686 C687 1.415 . S
C687 H657 0.931 1_545 S
C687 C682 1.363 . S
C687 C686 1.415 . S
H688 C685 0.999 . S
H689 C670 0.913 . S
H690 C708 0.951 . S
H691 C710 0.951 . S
H692 C712 0.950 1_556 S
H693 C713 0.950 . S
H694 C715 0.950 . S
H695 C718 0.950 . S
H696 C719 0.950 . S
H697 C721 0.950 . S
H698 C722 0.950 1_455 S
H699 C723 0.951 . S
H700 C725 0.951 . S
H701 C727 0.950 1_554 S
H702 C728 0.950 . S
H703 C730 0.950 . S
H704 C733 0.950 . S
H705 C734 0.950 . S
H706 C736 0.950 . S
H707 C737 0.950 1_655 S
C708 H690 0.951 . S
C708 C709 1.366 . S
C708 C710 1.388 . S
C709 C708 1.366 . S
C709 C713 1.385 . S
C710 H691 0.951 . S
C710 C708 1.388 . S
C710 C711 1.366 . S
C711 C710 1.366 . S
C711 C712 1.414 . S
C711 C714 1.499 . S
C712 H692 0.950 1_554 S
C712 C711 1.414 . S
C712 C713 1.374 . S
C713 H693 0.950 . S
C713 C709 1.385 . S
C713 C712 1.374 . S
C714 C711 1.499 . S
C714 C715 1.373 . S
C714 C716 1.389 . S
C715 H694 0.950 . S
C715 C714 1.373 . S
C715 C731 1.377 1_654 S
C716 C714 1.389 . S
C716 C717 1.524 . S
C716 C730 1.377 1_654 S
C717 C716 1.524 . S
C717 C718 1.397 1_554 S
C717 C722 1.363 . S
C718 H695 0.950 . S
C718 C717 1.397 1_556 S
C718 C719 1.334 . S
C719 H696 0.950 . S
C719 C718 1.334 . S
C719 C720 1.287 1_556 S
C720 C719 1.287 1_554 S
C720 C721 1.524 . S
C720 H739 0.913 . S
C721 H697 0.950 . S
C721 C720 1.524 . S
C721 C722 1.415 . S
C722 H698 0.950 1_655 S
C722 C717 1.363 . S
C722 C721 1.415 . S
C723 H699 0.951 . S
C723 C724 1.366 . S
C723 C725 1.388 . S
C724 C723 1.366 . S
C724 C728 1.385 . S
C725 H700 0.951 . S
C725 C723 1.388 . S
C725 C726 1.366 . S
C726 C725 1.366 . S
C726 C727 1.414 . S
C726 C729 1.499 . S
C727 H701 0.950 1_556 S
C727 C726 1.414 . S
C727 C728 1.374 . S
C728 H702 0.950 . S
C728 C724 1.385 . S
C728 C727 1.374 . S
C729 C726 1.499 . S
C729 C730 1.373 . S
C729 C731 1.389 . S
C730 H703 0.950 . S
C730 C716 1.377 1_456 S
C730 C729 1.373 . S
C731 C715 1.377 1_456 S
C731 C729 1.389 . S
C731 C732 1.524 . S
C732 C731 1.524 . S
C732 C733 1.397 1_556 S
C732 C737 1.363 . S
C733 H704 0.950 . S
C733 C732 1.397 1_554 S
C733 C734 1.334 . S
C734 H705 0.950 . S
C734 C733 1.334 . S
C734 C735 1.287 1_554 S
C735 C734 1.287 1_556 S
C735 C736 1.524 . S
C735 H738 0.999 . S
C736 H706 0.950 . S
C736 C735 1.524 . S
C736 C737 1.415 . S
C737 H707 0.950 1_455 S
C737 C732 1.363 . S
C737 C736 1.415 . S
H738 C735 0.999 . S
H739 C720 0.913 . S
H740 C758 0.951 . S
H741 C760 0.951 . S
H742 C762 0.928 1_554 S
H743 C763 0.950 1_554 S
H744 C765 0.950 . S
H745 C768 0.950 . S
H746 C769 0.950 . S
H747 C771 0.929 1_565 S
H748 C772 0.950 . S
H749 C773 0.951 . S
H750 C775 0.951 . S
H751 C777 0.928 1_556 S
H752 C778 0.950 1_556 S
H753 C780 0.950 . S
H754 C783 0.950 . S
H755 C784 0.950 . S
H756 C786 0.929 1_545 S
H757 C787 0.950 . S
C758 H740 0.951 . S
C758 C759 1.366 . S
C758 C760 1.388 . S
C759 C758 1.366 . S
C759 C763 1.385 . S
C760 H741 0.951 . S
C760 C758 1.388 . S
C760 C761 1.366 . S
C761 C760 1.366 . S
C761 C762 1.429 . S
C761 C764 1.499 . S
C762 H742 0.928 1_556 S
C762 C761 1.429 . S
C762 C763 1.381 . S
C763 H743 0.950 1_556 S
C763 C759 1.385 . S
C763 C762 1.381 . S
C764 C761 1.499 . S
C764 C765 1.373 1_556 S
C764 C766 1.389 . S
C765 H744 0.950 . S
C765 C764 1.373 1_554 S
C765 C781 1.377 1_545 S
C766 C764 1.389 . S
C766 C767 1.524 . S
C766 C780 1.377 1_545 S
C767 C766 1.524 . S
C767 C768 1.397 . S
C767 C772 1.363 1_545 S
C768 H745 0.950 . S
C768 C767 1.397 . S
C768 C769 1.334 . S
C769 H746 0.950 . S
C769 C768 1.334 . S
C769 C770 1.287 . S
C770 C769 1.287 . S
C770 C771 1.556 . S
C770 H789 0.913 . S
C771 H747 0.929 1_545 S
C771 C770 1.556 . S
C771 C772 1.409 1_545 S
C772 H748 0.950 . S
C772 C767 1.363 1_565 S
C772 C771 1.409 1_565 S
C773 H749 0.951 . S
C773 C774 1.366 . S
C773 C775 1.388 . S
C774 C773 1.366 . S
C774 C778 1.385 . S
C775 H750 0.951 . S
C775 C773 1.388 . S
C775 C776 1.366 . S
C776 C775 1.366 . S
C776 C777 1.429 . S
C776 C779 1.499 . S
C777 H751 0.928 1_554 S
C777 C776 1.429 . S
C777 C778 1.381 . S
C778 H752 0.950 1_554 S
C778 C774 1.385 . S
C778 C777 1.381 . S
C779 C776 1.499 . S
C779 C780 1.373 1_554 S
C779 C781 1.389 . S
C780 H753 0.950 . S
C780 C766 1.377 1_565 S
C780 C779 1.373 1_556 S
C781 C765 1.377 1_565 S
C781 C779 1.389 . S
C781 C782 1.524 . S
C782 C781 1.524 . S
C782 C783 1.397 . S
C782 C787 1.363 1_565 S
C783 H754 0.950 . S
C783 C782 1.397 . S
C783 C784 1.334 . S
C784 H755 0.950 . S
C784 C783 1.334 . S
C784 C785 1.287 . S
C785 C784 1.287 . S
C785 C786 1.556 . S
C785 H788 0.999 . S
C786 H756 0.929 1_565 S
C786 C785 1.556 . S
C786 C787 1.409 1_565 S
C787 H757 0.950 . S
C787 C782 1.363 1_545 S
C787 C786 1.409 1_545 S
H788 C785 0.999 . S
H789 C770 0.913 . S
H790 C808 0.951 . S
H791 C810 0.951 . S
H792 C812 0.950 1_556 S
H793 C813 0.941 1_556 S
H794 C815 0.950 . S
H795 C818 0.950 1_556 S
H796 C819 0.950 . S
H797 C821 0.950 . S
H798 C822 0.950 1_655 S
H799 C823 0.951 . S
H800 C825 0.951 . S
H801 C827 0.950 1_554 S
H802 C828 0.941 1_554 S
H803 C830 0.950 . S
H804 C833 0.950 1_554 S
H805 C834 0.950 . S
H806 C836 0.950 . S
H807 C837 0.950 1_455 S
C808 H790 0.951 . S
C808 C809 1.366 . S
C808 C810 1.388 . S
C809 C808 1.366 . S
C809 C813 1.385 . S
C810 H791 0.951 . S
C810 C808 1.388 . S
C810 C811 1.366 . S
C811 C810 1.366 . S
C811 C812 1.414 . S
C811 C814 1.499 . S
C812 H792 0.950 1_554 S
C812 C811 1.414 . S
C812 C813 1.374 . S
C813 H793 0.941 1_554 S
C813 C809 1.385 . S
C813 C812 1.374 . S
C814 C811 1.499 . S
C814 C815 1.373 1_554 S
C814 C816 1.389 . S
C815 H794 0.950 . S
C815 C814 1.373 1_556 S
C815 C831 1.377 1_455 S
C816 C814 1.389 . S
C816 C817 1.524 . S
C816 C830 1.377 1_455 S
C817 C816 1.524 . S
C817 C818 1.397 . S
C817 C822 1.363 . S
C818 H795 0.950 1_554 S
C818 C817 1.397 . S
C818 C819 1.334 . S
C819 H796 0.950 . S
C819 C818 1.334 . S
C819 C820 1.287 . S
C820 C819 1.287 . S
C820 C821 1.524 . S
C820 H839 0.913 . S
C821 H797 0.950 . S
C821 C820 1.524 . S
C821 C822 1.415 . S
C822 H798 0.950 1_455 S
C822 C817 1.363 . S
C822 C821 1.415 . S
C823 H799 0.951 . S
C823 C824 1.366 . S
C823 C825 1.388 . S
C824 C823 1.366 . S
C824 C828 1.385 . S
C825 H800 0.951 . S
C825 C823 1.388 . S
C825 C826 1.366 . S
C826 C825 1.366 . S
C826 C827 1.414 . S
C826 C829 1.499 . S
C827 H801 0.950 1_556 S
C827 C826 1.414 . S
C827 C828 1.374 . S
C828 H802 0.941 1_556 S
C828 C824 1.385 . S
C828 C827 1.374 . S
C829 C826 1.499 . S
C829 C830 1.373 1_556 S
C829 C831 1.389 . S
C830 H803 0.950 . S
C830 C816 1.377 1_655 S
C830 C829 1.373 1_554 S
C831 C815 1.377 1_655 S
C831 C829 1.389 . S
C831 C832 1.524 . S
C832 C831 1.524 . S
C832 C833 1.397 . S
C832 C837 1.363 . S
C833 H804 0.950 1_556 S
C833 C832 1.397 . S
C833 C834 1.334 . S
C834 H805 0.950 . S
C834 C833 1.334 . S
C834 C835 1.287 . S
C835 C834 1.287 . S
C835 C836 1.524 . S
C835 H838 0.999 . S
C836 H806 0.950 . S
C836 C835 1.524 . S
C836 C837 1.415 . S
C837 H807 0.950 1_655 S
C837 C832 1.363 . S
C837 C836 1.415 . S
H838 C835 0.999 . S
H839 C820 0.913 . S
H840 C858 0.951 . S
H841 C860 0.951 . S
H842 C862 0.950 . S
H843 C863 0.950 . S
H844 C865 0.950 . S
H845 C868 0.950 . S
H846 C869 0.950 . S
H847 C871 0.950 . S
H848 C872 0.950 . S
H849 C873 0.951 . S
H850 C875 0.951 . S
H851 C877 0.950 . S
H852 C878 0.950 . S
H853 C880 0.950 . S
H854 C883 0.950 . S
H855 C884 0.950 . S
H856 C886 0.950 . S
H857 C887 0.950 . S
C858 H840 0.951 . S
C858 C859 1.366 . S
C858 C860 1.388 . S
C859 C858 1.366 . S
C859 C863 1.385 . S
C860 H841 0.951 . S
C860 C858 1.388 . S
C860 C861 1.366 . S
C861 C860 1.366 . S
C861 C862 1.414 . S
C861 C864 1.499 . S
C862 H842 0.950 . S
C862 C861 1.414 . S
C862 C863 1.374 . S
C863 H843 0.950 . S
C863 C859 1.385 . S
C863 C862 1.374 . S
C864 C861 1.499 . S
C864 C865 1.373 . S
C864 C866 1.389 . S
C865 H844 0.950 . S
C865 C864 1.373 . S
C865 C881 1.377 . S
C866 C864 1.389 . S
C866 C867 1.524 . S
C866 C880 1.377 . S
C867 C866 1.524 . S
C867 C868 1.397 . S
C867 C872 1.363 . S
C868 H845 0.950 . S
C868 C867 1.397 . S
C868 C869 1.334 . S
C869 H846 0.950 . S
C869 C868 1.334 . S
C869 C870 1.287 . S
C870 C869 1.287 . S
C870 C871 1.524 . S
C870 H889 0.913 . S
C871 H847 0.950 . S
C871 C870 1.524 . S
C871 C872 1.415 . S
C872 H848 0.950 . S
C872 C867 1.363 . S
C872 C871 1.415 . S
C873 H849 0.951 . S
C873 C874 1.366 . S
C873 C875 1.388 . S
C874 C873 1.366 . S
C874 C878 1.385 . S
C875 H850 0.951 . S
C875 C873 1.388 . S
C875 C876 1.366 . S
C876 C875 1.366 . S
C876 C877 1.414 . S
C876 C879 1.499 . S
C877 H851 0.950 . S
C877 C876 1.414 . S
C877 C878 1.374 . S
C878 H852 0.950 . S
C878 C874 1.385 . S
C878 C877 1.374 . S
C879 C876 1.499 . S
C879 C880 1.373 . S
C879 C881 1.389 . S
C880 H853 0.950 . S
C880 C866 1.377 . S
C880 C879 1.373 . S
C881 C865 1.377 . S
C881 C879 1.389 . S
C881 C882 1.524 . S
C882 C881 1.524 . S
C882 C883 1.397 . S
C882 C887 1.363 . S
C883 H854 0.950 . S
C883 C882 1.397 . S
C883 C884 1.334 . S
C884 H855 0.950 . S
C884 C883 1.334 . S
C884 C885 1.287 . S
C885 C884 1.287 . S
C885 C886 1.524 . S
C885 H888 0.999 . S
C886 H856 0.950 . S
C886 C885 1.524 . S
C886 C887 1.415 . S
C887 H857 0.950 . S
C887 C882 1.363 . S
C887 C886 1.415 . S
H888 C885 0.999 . S
H889 C870 0.913 . S
H890 C908 0.951 . S
H891 C910 0.951 . S
H892 C912 0.950 . S
H893 C913 0.950 . S
H894 C915 0.950 . S
H895 C918 0.950 . S
H896 C919 0.950 . S
H897 C921 0.950 . S
H898 C922 0.950 . S
H899 C923 0.951 . S
H900 C925 0.951 . S
H901 C927 0.950 . S
H902 C928 0.950 . S
H903 C930 0.950 . S
H904 C933 0.950 . S
H905 C934 0.950 . S
H906 C936 0.950 . S
H907 C937 0.950 . S
C908 H890 0.951 . S
C908 C909 1.366 . S
C908 C910 1.388 . S
C909 C908 1.366 . S
C909 C913 1.385 . S
C910 H891 0.951 . S
C910 C908 1.388 . S
C910 C911 1.366 . S
C911 C910 1.366 . S
C911 C912 1.414 . S
C911 C914 1.499 . S
C912 H892 0.950 . S
C912 C911 1.414 . S
C912 C913 1.374 . S
C913 H893 0.950 . S
C913 C909 1.385 . S
C913 C912 1.374 . S
C914 C911 1.499 . S
C914 C915 1.373 . S
C914 C916 1.389 . S
C915 H894 0.950 . S
C915 C914 1.373 . S
C915 C931 1.377 . S
C916 C914 1.389 . S
C916 C917 1.524 . S
C916 C930 1.377 . S
C917 C916 1.524 . S
C917 C918 1.397 . S
C917 C922 1.363 . S
C918 H895 0.950 . S
C918 C917 1.397 . S
C918 C919 1.334 . S
C919 H896 0.950 . S
C919 C918 1.334 . S
C919 C920 1.287 . S
C920 C919 1.287 . S
C920 C921 1.524 . S
C920 H939 0.913 . S
C921 H897 0.950 . S
C921 C920 1.524 . S
C921 C922 1.415 . S
C922 H898 0.950 . S
C922 C917 1.363 . S
C922 C921 1.415 . S
C923 H899 0.951 . S
C923 C924 1.366 . S
C923 C925 1.388 . S
C924 C923 1.366 . S
C924 C928 1.385 . S
C925 H900 0.951 . S
C925 C923 1.388 . S
C925 C926 1.366 . S
C926 C925 1.366 . S
C926 C927 1.414 . S
C926 C929 1.499 . S
C927 H901 0.950 . S
C927 C926 1.414 . S
C927 C928 1.374 . S
C928 H902 0.950 . S
C928 C924 1.385 . S
C928 C927 1.374 . S
C929 C926 1.499 . S
C929 C930 1.373 . S
C929 C931 1.389 . S
C930 H903 0.950 . S
C930 C916 1.377 . S
C930 C929 1.373 . S
C931 C915 1.377 . S
C931 C929 1.389 . S
C931 C932 1.524 . S
C932 C931 1.524 . S
C932 C933 1.397 . S
C932 C937 1.363 . S
C933 H904 0.950 . S
C933 C932 1.397 . S
C933 C934 1.334 . S
C934 H905 0.950 . S
C934 C933 1.334 . S
C934 C935 1.287 . S
C935 C934 1.287 . S
C935 C936 1.524 . S
C935 H938 0.999 . S
C936 H906 0.950 . S
C936 C935 1.524 . S
C936 C937 1.415 . S
C937 H907 0.950 . S
C937 C932 1.363 . S
C937 C936 1.415 . S
H938 C935 0.999 . S
H939 C920 0.913 . S
H940 C958 0.951 . S
H941 C960 0.951 . S
H942 C962 0.950 . S
H943 C963 0.950 . S
H944 C965 0.950 . S
H945 C968 0.950 . S
H946 C969 0.950 . S
H947 C971 0.950 . S
H948 C972 0.950 . S
H949 C973 0.951 . S
H950 C975 0.951 . S
H951 C977 0.950 . S
H952 C978 0.950 . S
H953 C980 0.950 . S
H954 C983 0.950 . S
H955 C984 0.950 . S
H956 C986 0.950 . S
H957 C987 0.950 . S
C958 H940 0.951 . S
C958 C959 1.366 . S
C958 C960 1.388 . S
C959 C958 1.366 . S
C959 C963 1.385 . S
C960 H941 0.951 . S
C960 C958 1.388 . S
C960 C961 1.366 . S
C961 C960 1.366 . S
C961 C962 1.414 . S
C961 C964 1.499 . S
C962 H942 0.950 . S
C962 C961 1.414 . S
C962 C963 1.374 . S
C963 H943 0.950 . S
C963 C959 1.385 . S
C963 C962 1.374 . S
C964 C961 1.499 . S
C964 C965 1.373 . S
C964 C966 1.389 . S
C965 H944 0.950 . S
C965 C964 1.373 . S
C965 C981 1.377 . S
C966 C964 1.389 . S
C966 C967 1.524 . S
C966 C980 1.377 . S
C967 C966 1.524 . S
C967 C968 1.397 . S
C967 C972 1.363 . S
C968 H945 0.950 . S
C968 C967 1.397 . S
C968 C969 1.334 . S
C969 H946 0.950 . S
C969 C968 1.334 . S
C969 C970 1.287 . S
C970 C969 1.287 . S
C970 C971 1.524 . S
C970 H989 0.913 . S
C971 H947 0.950 . S
C971 C970 1.524 . S
C971 C972 1.415 . S
C972 H948 0.950 . S
C972 C967 1.363 . S
C972 C971 1.415 . S
C973 H949 0.951 . S
C973 C974 1.366 . S
C973 C975 1.388 . S
C974 C973 1.366 . S
C974 C978 1.385 . S
C975 H950 0.951 . S
C975 C973 1.388 . S
C975 C976 1.366 . S
C976 C975 1.366 . S
C976 C977 1.414 . S
C976 C979 1.499 . S
C977 H951 0.950 . S
C977 C976 1.414 . S
C977 C978 1.374 . S
C978 H952 0.950 . S
C978 C974 1.385 . S
C978 C977 1.374 . S
C979 C976 1.499 . S
C979 C980 1.373 . S
C979 C981 1.389 . S
C980 H953 0.950 . S
C980 C966 1.377 . S
C980 C979 1.373 . S
C981 C965 1.377 . S
C981 C979 1.389 . S
C981 C982 1.524 . S
C982 C981 1.524 . S
C982 C983 1.397 . S
C982 C987 1.363 . S
C983 H954 0.950 . S
C983 C982 1.397 . S
C983 C984 1.334 . S
C984 H955 0.950 . S
C984 C983 1.334 . S
C984 C985 1.287 . S
C985 C984 1.287 . S
C985 C986 1.524 . S
C985 H988 0.999 . S
C986 H956 0.950 . S
C986 C985 1.524 . S
C986 C987 1.415 . S
C987 H957 0.950 . S
C987 C982 1.363 . S
C987 C986 1.415 . S
H988 C985 0.999 . S
H989 C970 0.913 . S
H990 C1008 0.951 . S
H991 C1010 0.951 . S
H992 C1012 0.950 . S
H993 C1013 0.950 . S
H994 C1015 0.950 . S
H995 C1018 0.950 . S
H996 C1019 0.950 . S
H997 C1021 0.950 . S
H998 C1022 0.950 . S
H999 C1023 0.951 . S
H1000 C1025 0.951 . S
H1001 C1027 0.950 . S
H1002 C1028 0.950 . S
H1003 C1030 0.950 . S
H1004 C1033 0.950 . S
H1005 C1034 0.950 . S
H1006 C1036 0.950 . S
H1007 C1037 0.950 . S
C1008 H990 0.951 . S
C1008 C1009 1.366 . S
C1008 C1010 1.388 . S
C1009 C1008 1.366 . S
C1009 C1013 1.385 . S
C1010 H991 0.951 . S
C1010 C1008 1.388 . S
C1010 C1011 1.366 . S
C1011 C1010 1.366 . S
C1011 C1012 1.414 . S
C1011 C1014 1.499 . S
C1012 H992 0.950 . S
C1012 C1011 1.414 . S
C1012 C1013 1.374 . S
C1013 H993 0.950 . S
C1013 C1009 1.385 . S
C1013 C1012 1.374 . S
C1014 C1011 1.499 . S
C1014 C1015 1.373 . S
C1014 C1016 1.389 . S
C1015 H994 0.950 . S
C1015 C1014 1.373 . S
C1015 C1031 1.377 . S
C1016 C1014 1.389 . S
C1016 C1017 1.524 . S
C1016 C1030 1.377 . S
C1017 C1016 1.524 . S
C1017 C1018 1.397 . S
C1017 C1022 1.363 . S
C1018 H995 0.950 . S
C1018 C1017 1.397 . S
C1018 C1019 1.334 . S
C1019 H996 0.950 . S
C1019 C1018 1.334 . S
C1019 C1020 1.287 . S
C1020 C1019 1.287 . S
C1020 C1021 1.524 . S
C1020 H1039 0.913 . S
C1021 H997 0.950 . S
C1021 C1020 1.524 . S
C1021 C1022 1.415 . S
C1022 H998 0.950 . S
C1022 C1017 1.363 . S
C1022 C1021 1.415 . S
C1023 H999 0.951 . S
C1023 C1024 1.366 . S
C1023 C1025 1.388 . S
C1024 C1023 1.366 . S
C1024 C1028 1.385 . S
C1025 H1000 0.951 . S
C1025 C1023 1.388 . S
C1025 C1026 1.366 . S
C1026 C1025 1.366 . S
C1026 C1027 1.414 . S
C1026 C1029 1.499 . S
C1027 H1001 0.950 . S
C1027 C1026 1.414 . S
C1027 C1028 1.374 . S
C1028 H1002 0.950 . S
C1028 C1024 1.385 . S
C1028 C1027 1.374 . S
C1029 C1026 1.499 . S
C1029 C1030 1.373 . S
C1029 C1031 1.389 . S
C1030 H1003 0.950 . S
C1030 C1016 1.377 . S
C1030 C1029 1.373 . S
C1031 C1015 1.377 . S
C1031 C1029 1.389 . S
C1031 C1032 1.524 . S
C1032 C1031 1.524 . S
C1032 C1033 1.397 . S
C1032 C1037 1.363 . S
C1033 H1004 0.950 . S
C1033 C1032 1.397 . S
C1033 C1034 1.334 . S
C1034 H1005 0.950 . S
C1034 C1033 1.334 . S
C1034 C1035 1.287 . S
C1035 C1034 1.287 . S
C1035 C1036 1.524 . S
C1035 H1038 0.999 . S
C1036 H1006 0.950 . S
C1036 C1035 1.524 . S
C1036 C1037 1.415 . S
C1037 H1007 0.950 . S
C1037 C1032 1.363 . S
C1037 C1036 1.415 . S
H1038 C1035 0.999 . S
H1039 C1020 0.913 . S
H1040 C1058 0.951 . S
H1041 C1060 0.951 . S
H1042 C1062 0.950 . S
H1043 C1063 0.950 . S
H1044 C1065 0.950 . S
H1045 C1068 0.950 . S
H1046 C1069 0.950 . S
H1047 C1071 0.950 . S
H1048 C1072 0.950 . S
H1049 C1073 0.951 . S
H1050 C1075 0.951 . S
H1051 C1077 0.950 . S
H1052 C1078 0.950 . S
H1053 C1080 0.950 . S
H1054 C1083 0.950 . S
H1055 C1084 0.950 . S
H1056 C1086 0.950 . S
H1057 C1087 0.950 . S
C1058 H1040 0.951 . S
C1058 C1059 1.366 . S
C1058 C1060 1.388 . S
C1059 C1058 1.366 . S
C1059 C1063 1.385 . S
C1060 H1041 0.951 . S
C1060 C1058 1.388 . S
C1060 C1061 1.366 . S
C1061 C1060 1.366 . S
C1061 C1062 1.414 . S
C1061 C1064 1.499 . S
C1062 H1042 0.950 . S
C1062 C1061 1.414 . S
C1062 C1063 1.374 . S
C1063 H1043 0.950 . S
C1063 C1059 1.385 . S
C1063 C1062 1.374 . S
C1064 C1061 1.499 . S
C1064 C1065 1.373 1_554 S
C1064 C1066 1.389 . S
C1065 H1044 0.950 . S
C1065 C1064 1.373 1_556 S
C1065 C1081 1.377 . S
C1066 C1064 1.389 . S
C1066 C1067 1.524 . S
C1066 C1080 1.377 . S
C1067 C1066 1.524 . S
C1067 C1068 1.397 . S
C1067 C1072 1.363 . S
C1068 H1045 0.950 . S
C1068 C1067 1.397 . S
C1068 C1069 1.334 . S
C1069 H1046 0.950 . S
C1069 C1068 1.334 . S
C1069 C1070 1.287 . S
C1070 C1069 1.287 . S
C1070 C1071 1.524 . S
C1070 H1089 0.913 . S
C1071 H1047 0.950 . S
C1071 C1070 1.524 . S
C1071 C1072 1.415 . S
C1072 H1048 0.950 . S
C1072 C1067 1.363 . S
C1072 C1071 1.415 . S
C1073 H1049 0.951 . S
C1073 C1074 1.366 . S
C1073 C1075 1.388 . S
C1074 C1073 1.366 . S
C1074 C1078 1.385 . S
C1075 H1050 0.951 . S
C1075 C1073 1.388 . S
C1075 C1076 1.366 . S
C1076 C1075 1.366 . S
C1076 C1077 1.414 . S
C1076 C1079 1.499 . S
C1077 H1051 0.950 . S
C1077 C1076 1.414 . S
C1077 C1078 1.374 . S
C1078 H1052 0.950 . S
C1078 C1074 1.385 . S
C1078 C1077 1.374 . S
C1079 C1076 1.499 . S
C1079 C1080 1.373 1_556 S
C1079 C1081 1.389 . S
C1080 H1053 0.950 . S
C1080 C1066 1.377 . S
C1080 C1079 1.373 1_554 S
C1081 C1065 1.377 . S
C1081 C1079 1.389 . S
C1081 C1082 1.524 . S
C1082 C1081 1.524 . S
C1082 C1083 1.397 . S
C1082 C1087 1.363 . S
C1083 H1054 0.950 . S
C1083 C1082 1.397 . S
C1083 C1084 1.334 . S
C1084 H1055 0.950 . S
C1084 C1083 1.334 . S
C1084 C1085 1.287 . S
C1085 C1084 1.287 . S
C1085 C1086 1.524 . S
C1085 H1088 0.999 . S
C1086 H1056 0.950 . S
C1086 C1085 1.524 . S
C1086 C1087 1.415 . S
C1087 H1057 0.950 . S
C1087 C1082 1.363 . S
C1087 C1086 1.415 . S
H1088 C1085 0.999 . S
H1089 C1070 0.913 . S
H1090 C1108 0.951 . S
H1091 C1110 0.951 . S
H1092 C1112 0.950 1_554 S
H1093 C1113 0.950 . S
H1094 C1115 0.950 . S
H1095 C1118 0.950 . S
H1096 C1119 0.950 . S
H1097 C1121 0.950 . S
H1098 C1122 0.950 . S
H1099 C1123 0.951 . S
H1100 C1125 0.951 . S
H1101 C1127 0.950 1_556 S
H1102 C1128 0.950 . S
H1103 C1130 0.950 . S
H1104 C1133 0.950 . S
H1105 C1134 0.950 . S
H1106 C1136 0.950 . S
H1107 C1137 0.950 . S
C1108 H1090 0.951 . S
C1108 C1109 1.366 . S
C1108 C1110 1.388 . S
C1109 C1108 1.366 . S
C1109 C1113 1.385 . S
C1110 H1091 0.951 . S
C1110 C1108 1.388 . S
C1110 C1111 1.366 . S
C1111 C1110 1.366 . S
C1111 C1112 1.414 . S
C1111 C1114 1.499 . S
C1112 H1092 0.950 1_556 S
C1112 C1111 1.414 . S
C1112 C1113 1.374 . S
C1113 H1093 0.950 . S
C1113 C1109 1.385 . S
C1113 C1112 1.374 . S
C1114 C1111 1.499 . S
C1114 C1115 1.373 1_556 S
C1114 C1116 1.389 . S
C1115 H1094 0.950 . S
C1115 C1114 1.373 1_554 S
C1115 C1131 1.377 . S
C1116 C1114 1.389 . S
C1116 C1117 1.524 . S
C1116 C1130 1.377 . S
C1117 C1116 1.524 . S
C1117 C1118 1.397 . S
C1117 C1122 1.363 . S
C1118 H1095 0.950 . S
C1118 C1117 1.397 . S
C1118 C1119 1.334 . S
C1119 H1096 0.950 . S
C1119 C1118 1.334 . S
C1119 C1120 1.287 . S
C1120 C1119 1.287 . S
C1120 C1121 1.524 . S
C1120 H1139 0.913 . S
C1121 H1097 0.950 . S
C1121 C1120 1.524 . S
C1121 C1122 1.415 . S
C1122 H1098 0.950 . S
C1122 C1117 1.363 . S
C1122 C1121 1.415 . S
C1123 H1099 0.951 . S
C1123 C1124 1.366 . S
C1123 C1125 1.388 . S
C1124 C1123 1.366 . S
C1124 C1128 1.385 . S
C1125 H1100 0.951 . S
C1125 C1123 1.388 . S
C1125 C1126 1.366 . S
C1126 C1125 1.366 . S
C1126 C1127 1.414 . S
C1126 C1129 1.499 . S
C1127 H1101 0.950 1_554 S
C1127 C1126 1.414 . S
C1127 C1128 1.374 . S
C1128 H1102 0.950 . S
C1128 C1124 1.385 . S
C1128 C1127 1.374 . S
C1129 C1126 1.499 . S
C1129 C1130 1.373 1_554 S
C1129 C1131 1.389 . S
C1130 H1103 0.950 . S
C1130 C1116 1.377 . S
C1130 C1129 1.373 1_556 S
C1131 C1115 1.377 . S
C1131 C1129 1.389 . S
C1131 C1132 1.524 . S
C1132 C1131 1.524 . S
C1132 C1133 1.397 . S
C1132 C1137 1.363 . S
C1133 H1104 0.950 . S
C1133 C1132 1.397 . S
C1133 C1134 1.334 . S
C1134 H1105 0.950 . S
C1134 C1133 1.334 . S
C1134 C1135 1.287 . S
C1135 C1134 1.287 . S
C1135 C1136 1.524 . S
C1135 H1138 0.999 . S
C1136 H1106 0.950 . S
C1136 C1135 1.524 . S
C1136 C1137 1.415 . S
C1137 H1107 0.950 . S
C1137 C1132 1.363 . S
C1137 C1136 1.415 . S
H1138 C1135 0.999 . S
H1139 C1120 0.913 . S
H1140 C1158 0.951 . S
H1141 C1160 0.951 . S
H1142 C1162 0.950 . S
H1143 C1163 0.950 . S
H1144 C1165 0.950 . S
H1145 C1168 0.950 . S
H1146 C1169 0.950 . S
H1147 C1171 0.950 . S
H1148 C1172 0.950 . S
H1149 C1173 0.951 . S
H1150 C1175 0.951 . S
H1151 C1177 0.950 . S
H1152 C1178 0.950 . S
H1153 C1180 0.950 . S
H1154 C1183 0.950 . S
H1155 C1184 0.950 . S
H1156 C1186 0.950 . S
H1157 C1187 0.950 . S
C1158 H1140 0.951 . S
C1158 C1159 1.366 . S
C1158 C1160 1.388 . S
C1159 C1158 1.366 . S
C1159 C1163 1.385 . S
C1160 H1141 0.951 . S
C1160 C1158 1.388 . S
C1160 C1161 1.366 . S
C1161 C1160 1.366 . S
C1161 C1162 1.414 . S
C1161 C1164 1.499 . S
C1162 H1142 0.950 . S
C1162 C1161 1.414 . S
C1162 C1163 1.374 . S
C1163 H1143 0.950 . S
C1163 C1159 1.385 . S
C1163 C1162 1.374 . S
C1164 C1161 1.499 . S
C1164 C1165 1.373 1_554 S
C1164 C1166 1.389 . S
C1165 H1144 0.950 . S
C1165 C1164 1.373 1_556 S
C1165 C1181 1.377 . S
C1166 C1164 1.389 . S
C1166 C1167 1.524 . S
C1166 C1180 1.377 . S
C1167 C1166 1.524 . S
C1167 C1168 1.397 . S
C1167 C1172 1.363 . S
C1168 H1145 0.950 . S
C1168 C1167 1.397 . S
C1168 C1169 1.334 . S
C1169 H1146 0.950 . S
C1169 C1168 1.334 . S
C1169 C1170 1.287 . S
C1170 C1169 1.287 . S
C1170 C1171 1.524 . S
C1170 H1189 0.913 . S
C1171 H1147 0.950 . S
C1171 C1170 1.524 . S
C1171 C1172 1.415 . S
C1172 H1148 0.950 . S
C1172 C1167 1.363 . S
C1172 C1171 1.415 . S
C1173 H1149 0.951 . S
C1173 C1174 1.366 . S
C1173 C1175 1.388 . S
C1174 C1173 1.366 . S
C1174 C1178 1.385 . S
C1175 H1150 0.951 . S
C1175 C1173 1.388 . S
C1175 C1176 1.366 . S
C1176 C1175 1.366 . S
C1176 C1177 1.414 . S
C1176 C1179 1.499 . S
C1177 H1151 0.950 . S
C1177 C1176 1.414 . S
C1177 C1178 1.374 . S
C1178 H1152 0.950 . S
C1178 C1174 1.385 . S
C1178 C1177 1.374 . S
C1179 C1176 1.499 . S
C1179 C1180 1.373 1_556 S
C1179 C1181 1.389 . S
C1180 H1153 0.950 . S
C1180 C1166 1.377 . S
C1180 C1179 1.373 1_554 S
C1181 C1165 1.377 . S
C1181 C1179 1.389 . S
C1181 C1182 1.524 . S
C1182 C1181 1.524 . S
C1182 C1183 1.397 . S
C1182 C1187 1.363 . S
C1183 H1154 0.950 . S
C1183 C1182 1.397 . S
C1183 C1184 1.334 . S
C1184 H1155 0.950 . S
C1184 C1183 1.334 . S
C1184 C1185 1.287 . S
C1185 C1184 1.287 . S
C1185 C1186 1.524 . S
C1185 H1188 0.999 . S
C1186 H1156 0.950 . S
C1186 C1185 1.524 . S
C1186 C1187 1.415 . S
C1187 H1157 0.950 . S
C1187 C1182 1.363 . S
C1187 C1186 1.415 . S
H1188 C1185 0.999 . S
H1189 C1170 0.913 . S
H1190 C1208 0.951 . S
H1191 C1210 0.951 . S
H1192 C1212 0.950 1_556 S
H1193 C1213 0.949 . S
H1194 C1215 0.950 . S
H1195 C1218 0.950 . S
H1196 C1219 0.950 . S
H1197 C1221 0.950 . S
H1198 C1222 0.950 . S
H1199 C1223 0.951 . S
H1200 C1225 0.951 . S
H1201 C1227 0.950 1_554 S
H1202 C1228 0.949 . S
H1203 C1230 0.950 . S
H1204 C1233 0.950 . S
H1205 C1234 0.950 . S
H1206 C1236 0.950 . S
H1207 C1237 0.950 . S
C1208 H1190 0.951 . S
C1208 C1209 1.366 . S
C1208 C1210 1.388 . S
C1209 C1208 1.366 . S
C1209 C1213 1.385 . S
C1210 H1191 0.951 . S
C1210 C1208 1.388 . S
C1210 C1211 1.366 . S
C1211 C1210 1.366 . S
C1211 C1212 1.414 . S
C1211 C1214 1.499 . S
C1212 H1192 0.950 1_554 S
C1212 C1211 1.414 . S
C1212 C1213 1.374 . S
C1213 H1193 0.949 . S
C1213 C1209 1.385 . S
C1213 C1212 1.374 . S
C1214 C1211 1.499 . S
C1214 C1215 1.373 1_554 S
C1214 C1216 1.389 . S
C1215 H1194 0.950 . S
C1215 C1214 1.373 1_556 S
C1215 C1231 1.377 . S
C1216 C1214 1.389 . S
C1216 C1217 1.524 . S
C1216 C1230 1.377 . S
C1217 C1216 1.524 . S
C1217 C1218 1.397 . S
C1217 C1222 1.363 . S
C1218 H1195 0.950 . S
C1218 C1217 1.397 . S
C1218 C1219 1.334 . S
C1219 H1196 0.950 . S
C1219 C1218 1.334 . S
C1219 C1220 1.287 . S
C1220 C1219 1.287 . S
C1220 C1221 1.524 . S
C1220 H1239 0.913 . S
C1221 H1197 0.950 . S
C1221 C1220 1.524 . S
C1221 C1222 1.415 . S
C1222 H1198 0.950 . S
C1222 C1217 1.363 . S
C1222 C1221 1.415 . S
C1223 H1199 0.951 . S
C1223 C1224 1.366 . S
C1223 C1225 1.388 . S
C1224 C1223 1.366 . S
C1224 C1228 1.385 . S
C1225 H1200 0.951 . S
C1225 C1223 1.388 . S
C1225 C1226 1.366 . S
C1226 C1225 1.366 . S
C1226 C1227 1.414 . S
C1226 C1229 1.499 . S
C1227 H1201 0.950 1_556 S
C1227 C1226 1.414 . S
C1227 C1228 1.374 . S
C1228 H1202 0.949 . S
C1228 C1224 1.385 . S
C1228 C1227 1.374 . S
C1229 C1226 1.499 . S
C1229 C1230 1.373 1_556 S
C1229 C1231 1.389 . S
C1230 H1203 0.950 . S
C1230 C1216 1.377 . S
C1230 C1229 1.373 1_554 S
C1231 C1215 1.377 . S
C1231 C1229 1.389 . S
C1231 C1232 1.524 . S
C1232 C1231 1.524 . S
C1232 C1233 1.397 . S
C1232 C1237 1.363 . S
C1233 H1204 0.950 . S
C1233 C1232 1.397 . S
C1233 C1234 1.334 . S
C1234 H1205 0.950 . S
C1234 C1233 1.334 . S
C1234 C1235 1.287 . S
C1235 C1234 1.287 . S
C1235 C1236 1.524 . S
C1235 H1238 0.999 . S
C1236 H1206 0.950 . S
C1236 C1235 1.524 . S
C1236 C1237 1.415 . S
C1237 H1207 0.950 . S
C1237 C1232 1.363 . S
C1237 C1236 1.415 . S
H1238 C1235 0.999 . S
H1239 C1220 0.913 . S
H1240 C1258 0.951 . S
H1241 C1260 0.951 . S
H1242 C1262 0.950 . S
H1243 C1263 0.950 . S
H1244 C1265 0.950 . S
H1245 C1268 0.950 . S
H1246 C1269 0.950 . S
H1247 C1271 0.950 . S
H1248 C1272 0.950 . S
H1249 C1273 0.951 . S
H1250 C1275 0.951 . S
H1251 C1277 0.950 . S
H1252 C1278 0.950 . S
H1253 C1280 0.950 . S
H1254 C1283 0.950 . S
H1255 C1284 0.950 . S
H1256 C1286 0.950 . S
H1257 C1287 0.950 . S
C1258 H1240 0.951 . S
C1258 C1259 1.366 . S
C1258 C1260 1.388 . S
C1259 C1258 1.366 . S
C1259 C1263 1.385 . S
C1260 H1241 0.951 . S
C1260 C1258 1.388 . S
C1260 C1261 1.366 . S
C1261 C1260 1.366 . S
C1261 C1262 1.414 . S
C1261 C1264 1.499 . S
C1262 H1242 0.950 . S
C1262 C1261 1.414 . S
C1262 C1263 1.374 . S
C1263 H1243 0.950 . S
C1263 C1259 1.385 . S
C1263 C1262 1.374 . S
C1264 C1261 1.499 . S
C1264 C1265 1.373 . S
C1264 C1266 1.389 . S
C1265 H1244 0.950 . S
C1265 C1264 1.373 . S
C1265 C1281 1.377 . S
C1266 C1264 1.389 . S
C1266 C1267 1.524 . S
C1266 C1280 1.377 . S
C1267 C1266 1.524 . S
C1267 C1268 1.397 . S
C1267 C1272 1.363 . S
C1268 H1245 0.950 . S
C1268 C1267 1.397 . S
C1268 C1269 1.334 . S
C1269 H1246 0.950 . S
C1269 C1268 1.334 . S
C1269 C1270 1.287 . S
C1270 C1269 1.287 . S
C1270 C1271 1.524 . S
C1270 H1289 0.913 . S
C1271 H1247 0.950 . S
C1271 C1270 1.524 . S
C1271 C1272 1.415 . S
C1272 H1248 0.950 . S
C1272 C1267 1.363 . S
C1272 C1271 1.415 . S
C1273 H1249 0.951 . S
C1273 C1274 1.366 . S
C1273 C1275 1.388 . S
C1274 C1273 1.366 . S
C1274 C1278 1.385 . S
C1275 H1250 0.951 . S
C1275 C1273 1.388 . S
C1275 C1276 1.366 . S
C1276 C1275 1.366 . S
C1276 C1277 1.414 . S
C1276 C1279 1.499 . S
C1277 H1251 0.950 . S
C1277 C1276 1.414 . S
C1277 C1278 1.374 . S
C1278 H1252 0.950 . S
C1278 C1274 1.385 . S
C1278 C1277 1.374 . S
C1279 C1276 1.499 . S
C1279 C1280 1.373 . S
C1279 C1281 1.389 . S
C1280 H1253 0.950 . S
C1280 C1266 1.377 . S
C1280 C1279 1.373 . S
C1281 C1265 1.377 . S
C1281 C1279 1.389 . S
C1281 C1282 1.524 . S
C1282 C1281 1.524 . S
C1282 C1283 1.397 . S
C1282 C1287 1.363 . S
C1283 H1254 0.950 . S
C1283 C1282 1.397 . S
C1283 C1284 1.334 . S
C1284 H1255 0.950 . S
C1284 C1283 1.334 . S
C1284 C1285 1.287 . S
C1285 C1284 1.287 . S
C1285 C1286 1.524 . S
C1285 H1288 0.999 . S
C1286 H1256 0.950 . S
C1286 C1285 1.524 . S
C1286 C1287 1.415 . S
C1287 H1257 0.950 . S
C1287 C1282 1.363 . S
C1287 C1286 1.415 . S
H1288 C1285 0.999 . S
H1289 C1270 0.913 . S
H1290 C1308 0.951 . S
H1291 C1310 0.951 . S
H1292 C1312 0.950 . S
H1293 C1313 0.950 . S
H1294 C1315 0.950 . S
H1295 C1318 0.950 . S
H1296 C1319 0.950 . S
H1297 C1321 0.950 . S
H1298 C1322 0.950 . S
H1299 C1323 0.951 . S
H1300 C1325 0.951 . S
H1301 C1327 0.950 . S
H1302 C1328 0.950 . S
H1303 C1330 0.950 . S
H1304 C1333 0.950 . S
H1305 C1334 0.950 . S
H1306 C1336 0.950 . S
H1307 C1337 0.950 . S
C1308 H1290 0.951 . S
C1308 C1309 1.366 . S
C1308 C1310 1.388 . S
C1309 C1308 1.366 . S
C1309 C1313 1.385 . S
C1310 H1291 0.951 . S
C1310 C1308 1.388 . S
C1310 C1311 1.366 . S
C1311 C1310 1.366 . S
C1311 C1312 1.414 . S
C1311 C1314 1.499 . S
C1312 H1292 0.950 . S
C1312 C1311 1.414 . S
C1312 C1313 1.374 . S
C1313 H1293 0.950 . S
C1313 C1309 1.385 . S
C1313 C1312 1.374 . S
C1314 C1311 1.499 . S
C1314 C1315 1.373 . S
C1314 C1316 1.389 . S
C1315 H1294 0.950 . S
C1315 C1314 1.373 . S
C1315 C1331 1.377 . S
C1316 C1314 1.389 . S
C1316 C1317 1.524 . S
C1316 C1330 1.377 . S
C1317 C1316 1.524 . S
C1317 C1318 1.397 . S
C1317 C1322 1.363 . S
C1318 H1295 0.950 . S
C1318 C1317 1.397 . S
C1318 C1319 1.334 . S
C1319 H1296 0.950 . S
C1319 C1318 1.334 . S
C1319 C1320 1.287 . S
C1320 C1319 1.287 . S
C1320 C1321 1.524 . S
C1320 H1339 0.913 . S
C1321 H1297 0.950 . S
C1321 C1320 1.524 . S
C1321 C1322 1.415 . S
C1322 H1298 0.950 . S
C1322 C1317 1.363 . S
C1322 C1321 1.415 . S
C1323 H1299 0.951 . S
C1323 C1324 1.366 . S
C1323 C1325 1.388 . S
C1324 C1323 1.366 . S
C1324 C1328 1.385 . S
C1325 H1300 0.951 . S
C1325 C1323 1.388 . S
C1325 C1326 1.366 . S
C1326 C1325 1.366 . S
C1326 C1327 1.414 . S
C1326 C1329 1.499 . S
C1327 H1301 0.950 . S
C1327 C1326 1.414 . S
C1327 C1328 1.374 . S
C1328 H1302 0.950 . S
C1328 C1324 1.385 . S
C1328 C1327 1.374 . S
C1329 C1326 1.499 . S
C1329 C1330 1.373 . S
C1329 C1331 1.389 . S
C1330 H1303 0.950 . S
C1330 C1316 1.377 . S
C1330 C1329 1.373 . S
C1331 C1315 1.377 . S
C1331 C1329 1.389 . S
C1331 C1332 1.524 . S
C1332 C1331 1.524 . S
C1332 C1333 1.397 . S
C1332 C1337 1.363 . S
C1333 H1304 0.950 . S
C1333 C1332 1.397 . S
C1333 C1334 1.334 . S
C1334 H1305 0.950 . S
C1334 C1333 1.334 . S
C1334 C1335 1.287 . S
C1335 C1334 1.287 . S
C1335 C1336 1.524 . S
C1335 H1338 0.999 . S
C1336 H1306 0.950 . S
C1336 C1335 1.524 . S
C1336 C1337 1.415 . S
C1337 H1307 0.950 . S
C1337 C1332 1.363 . S
C1337 C1336 1.415 . S
H1338 C1335 0.999 . S
H1339 C1320 0.913 . S
H1340 C1358 0.951 . S
H1341 C1360 0.951 . S
H1342 C1362 0.950 . S
H1343 C1363 0.950 . S
H1344 C1365 0.950 . S
H1345 C1368 0.950 . S
H1346 C1369 0.950 . S
H1347 C1371 0.950 . S
H1348 C1372 0.950 . S
H1349 C1373 0.951 . S
H1350 C1375 0.951 . S
H1351 C1377 0.950 . S
H1352 C1378 0.950 . S
H1353 C1380 0.950 . S
H1354 C1383 0.950 . S
H1355 C1384 0.950 . S
H1356 C1386 0.950 . S
H1357 C1387 0.950 . S
C1358 H1340 0.951 . S
C1358 C1359 1.366 . S
C1358 C1360 1.388 . S
C1359 C1358 1.366 . S
C1359 C1363 1.385 . S
C1360 H1341 0.951 . S
C1360 C1358 1.388 . S
C1360 C1361 1.366 . S
C1361 C1360 1.366 . S
C1361 C1362 1.414 . S
C1361 C1364 1.499 . S
C1362 H1342 0.950 . S
C1362 C1361 1.414 . S
C1362 C1363 1.374 . S
C1363 H1343 0.950 . S
C1363 C1359 1.385 . S
C1363 C1362 1.374 . S
C1364 C1361 1.499 . S
C1364 C1365 1.373 . S
C1364 C1366 1.389 . S
C1365 H1344 0.950 . S
C1365 C1364 1.373 . S
C1365 C1381 1.377 . S
C1366 C1364 1.389 . S
C1366 C1367 1.524 . S
C1366 C1380 1.377 . S
C1367 C1366 1.524 . S
C1367 C1368 1.397 . S
C1367 C1372 1.363 . S
C1368 H1345 0.950 . S
C1368 C1367 1.397 . S
C1368 C1369 1.334 . S
C1369 H1346 0.950 . S
C1369 C1368 1.334 . S
C1369 C1370 1.287 . S
C1370 C1369 1.287 . S
C1370 C1371 1.524 . S
C1370 H1389 0.913 . S
C1371 H1347 0.950 . S
C1371 C1370 1.524 . S
C1371 C1372 1.415 . S
C1372 H1348 0.950 . S
C1372 C1367 1.363 . S
C1372 C1371 1.415 . S
C1373 H1349 0.951 . S
C1373 C1374 1.366 . S
C1373 C1375 1.388 . S
C1374 C1373 1.366 . S
C1374 C1378 1.385 . S
C1375 H1350 0.951 . S
C1375 C1373 1.388 . S
C1375 C1376 1.366 . S
C1376 C1375 1.366 . S
C1376 C1377 1.414 . S
C1376 C1379 1.499 . S
C1377 H1351 0.950 . S
C1377 C1376 1.414 . S
C1377 C1378 1.374 . S
C1378 H1352 0.950 . S
C1378 C1374 1.385 . S
C1378 C1377 1.374 . S
C1379 C1376 1.499 . S
C1379 C1380 1.373 . S
C1379 C1381 1.389 . S
C1380 H1353 0.950 . S
C1380 C1366 1.377 . S
C1380 C1379 1.373 . S
C1381 C1365 1.377 . S
C1381 C1379 1.389 . S
C1381 C1382 1.524 . S
C1382 C1381 1.524 . S
C1382 C1383 1.397 . S
C1382 C1387 1.363 . S
C1383 H1354 0.950 . S
C1383 C1382 1.397 . S
C1383 C1384 1.334 . S
C1384 H1355 0.950 . S
C1384 C1383 1.334 . S
C1384 C1385 1.287 . S
C1385 C1384 1.287 . S
C1385 C1386 1.524 . S
C1385 H1388 0.999 . S
C1386 H1356 0.950 . S
C1386 C1385 1.524 . S
C1386 C1387 1.415 . S
C1387 H1357 0.950 . S
C1387 C1382 1.363 . S
C1387 C1386 1.415 . S
H1388 C1385 0.999 . S
H1389 C1370 0.913 . S
H1390 C1408 0.951 . S
H1391 C1410 0.951 . S
H1392 C1412 0.950 . S
H1393 C1413 0.950 . S
H1394 C1415 0.950 . S
H1395 C1418 0.950 . S
H1396 C1419 0.950 . S
H1397 C1421 0.950 . S
H1398 C1422 0.950 . S
H1399 C1423 0.951 . S
H1400 C1425 0.951 . S
H1401 C1427 0.950 . S
H1402 C1428 0.950 . S
H1403 C1430 0.950 . S
H1404 C1433 0.950 . S
H1405 C1434 0.950 . S
H1406 C1436 0.950 . S
H1407 C1437 0.950 . S
C1408 H1390 0.951 . S
C1408 C1409 1.366 . S
C1408 C1410 1.388 . S
C1409 C1408 1.366 . S
C1409 C1413 1.385 . S
C1410 H1391 0.951 . S
C1410 C1408 1.388 . S
C1410 C1411 1.366 . S
C1411 C1410 1.366 . S
C1411 C1412 1.414 . S
C1411 C1414 1.499 . S
C1412 H1392 0.950 . S
C1412 C1411 1.414 . S
C1412 C1413 1.374 . S
C1413 H1393 0.950 . S
C1413 C1409 1.385 . S
C1413 C1412 1.374 . S
C1414 C1411 1.499 . S
C1414 C1415 1.373 . S
C1414 C1416 1.389 . S
C1415 H1394 0.950 . S
C1415 C1414 1.373 . S
C1415 C1431 1.377 . S
C1416 C1414 1.389 . S
C1416 C1417 1.524 . S
C1416 C1430 1.377 . S
C1417 C1416 1.524 . S
C1417 C1418 1.397 . S
C1417 C1422 1.363 . S
C1418 H1395 0.950 . S
C1418 C1417 1.397 . S
C1418 C1419 1.334 . S
C1419 H1396 0.950 . S
C1419 C1418 1.334 . S
C1419 C1420 1.287 . S
C1420 C1419 1.287 . S
C1420 C1421 1.524 . S
C1420 H1439 0.913 . S
C1421 H1397 0.950 . S
C1421 C1420 1.524 . S
C1421 C1422 1.415 . S
C1422 H1398 0.950 . S
C1422 C1417 1.363 . S
C1422 C1421 1.415 . S
C1423 H1399 0.951 . S
C1423 C1424 1.366 . S
C1423 C1425 1.388 . S
C1424 C1423 1.366 . S
C1424 C1428 1.385 . S
C1425 H1400 0.951 . S
C1425 C1423 1.388 . S
C1425 C1426 1.366 . S
C1426 C1425 1.366 . S
C1426 C1427 1.414 . S
C1426 C1429 1.499 . S
C1427 H1401 0.950 . S
C1427 C1426 1.414 . S
C1427 C1428 1.374 . S
C1428 H1402 0.950 . S
C1428 C1424 1.385 . S
C1428 C1427 1.374 . S
C1429 C1426 1.499 . S
C1429 C1430 1.373 . S
C1429 C1431 1.389 . S
C1430 H1403 0.950 . S
C1430 C1416 1.377 . S
C1430 C1429 1.373 . S
C1431 C1415 1.377 . S
C1431 C1429 1.389 . S
C1431 C1432 1.524 . S
C1432 C1431 1.524 . S
C1432 C1433 1.397 . S
C1432 C1437 1.363 . S
C1433 H1404 0.950 . S
C1433 C1432 1.397 . S
C1433 C1434 1.334 . S
C1434 H1405 0.950 . S
C1434 C1433 1.334 . S
C1434 C1435 1.287 . S
C1435 C1434 1.287 . S
C1435 C1436 1.524 . S
C1435 H1438 0.999 . S
C1436 H1406 0.950 . S
C1436 C1435 1.524 . S
C1436 C1437 1.415 . S
C1437 H1407 0.950 . S
C1437 C1432 1.363 . S
C1437 C1436 1.415 . S
H1438 C1435 0.999 . S
H1439 C1420 0.913 . S
H1440 C1458 0.951 . S
H1441 C1460 0.951 . S
H1442 C1462 0.950 . S
H1443 C1463 0.950 . S
H1444 C1465 0.950 . S
H1445 C1468 0.950 . S
H1446 C1469 0.950 . S
H1447 C1471 0.950 . S
H1448 C1472 0.950 . S
H1449 C1473 0.951 . S
H1450 C1475 0.951 . S
H1451 C1477 0.950 . S
H1452 C1478 0.950 . S
H1453 C1480 0.950 . S
H1454 C1483 0.950 . S
H1455 C1484 0.950 . S
H1456 C1486 0.950 . S
H1457 C1487 0.950 . S
C1458 H1440 0.951 . S
C1458 C1459 1.366 . S
C1458 C1460 1.388 . S
C1459 C1458 1.366 . S
C1459 C1463 1.385 . S
C1460 H1441 0.951 . S
C1460 C1458 1.388 . S
C1460 C1461 1.366 . S
C1461 C1460 1.366 . S
C1461 C1462 1.414 . S
C1461 C1464 1.499 . S
C1462 H1442 0.950 . S
C1462 C1461 1.414 . S
C1462 C1463 1.374 . S
C1463 H1443 0.950 . S
C1463 C1459 1.385 . S
C1463 C1462 1.374 . S
C1464 C1461 1.499 . S
C1464 C1465 1.373 . S
C1464 C1466 1.389 . S
C1465 H1444 0.950 . S
C1465 C1464 1.373 . S
C1465 C1481 1.377 . S
C1466 C1464 1.389 . S
C1466 C1467 1.524 . S
C1466 C1480 1.377 . S
C1467 C1466 1.524 . S
C1467 C1468 1.397 . S
C1467 C1472 1.363 . S
C1468 H1445 0.950 . S
C1468 C1467 1.397 . S
C1468 C1469 1.334 . S
C1469 H1446 0.950 . S
C1469 C1468 1.334 . S
C1469 C1470 1.287 . S
C1470 C1469 1.287 . S
C1470 C1471 1.524 . S
C1470 H1489 0.913 . S
C1471 H1447 0.950 . S
C1471 C1470 1.524 . S
C1471 C1472 1.415 . S
C1472 H1448 0.950 . S
C1472 C1467 1.363 . S
C1472 C1471 1.415 . S
C1473 H1449 0.951 . S
C1473 C1474 1.366 . S
C1473 C1475 1.388 . S
C1474 C1473 1.366 . S
C1474 C1478 1.385 . S
C1475 H1450 0.951 . S
C1475 C1473 1.388 . S
C1475 C1476 1.366 . S
C1476 C1475 1.366 . S
C1476 C1477 1.414 . S
C1476 C1479 1.499 . S
C1477 H1451 0.950 . S
C1477 C1476 1.414 . S
C1477 C1478 1.374 . S
C1478 H1452 0.950 . S
C1478 C1474 1.385 . S
C1478 C1477 1.374 . S
C1479 C1476 1.499 . S
C1479 C1480 1.373 . S
C1479 C1481 1.389 . S
C1480 H1453 0.950 . S
C1480 C1466 1.377 . S
C1480 C1479 1.373 . S
C1481 C1465 1.377 . S
C1481 C1479 1.389 . S
C1481 C1482 1.524 . S
C1482 C1481 1.524 . S
C1482 C1483 1.397 . S
C1482 C1487 1.363 . S
C1483 H1454 0.950 . S
C1483 C1482 1.397 . S
C1483 C1484 1.334 . S
C1484 H1455 0.950 . S
C1484 C1483 1.334 . S
C1484 C1485 1.287 . S
C1485 C1484 1.287 . S
C1485 C1486 1.524 . S
C1485 H1488 0.999 . S
C1486 H1456 0.950 . S
C1486 C1485 1.524 . S
C1486 C1487 1.415 . S
C1487 H1457 0.950 . S
C1487 C1482 1.363 . S
C1487 C1486 1.415 . S
H1488 C1485 0.999 . S
H1489 C1470 0.913 . S
H1490 C1508 0.951 . S
H1491 C1510 0.951 . S
H1492 C1512 0.950 . S
H1493 C1513 0.950 . S
H1494 C1515 0.950 . S
H1495 C1518 0.950 . S
H1496 C1519 0.950 . S
H1497 C1521 0.950 . S
H1498 C1522 0.950 . S
H1499 C1523 0.951 . S
H1500 C1525 0.951 . S
H1501 C1527 0.950 . S
H1502 C1528 0.950 . S
H1503 C1530 0.950 . S
H1504 C1533 0.950 . S
H1505 C1534 0.950 . S
H1506 C1536 0.950 . S
H1507 C1537 0.950 . S
C1508 H1490 0.951 . S
C1508 C1509 1.366 . S
C1508 C1510 1.388 . S
C1509 C1508 1.366 . S
C1509 C1513 1.385 . S
C1510 H1491 0.951 . S
C1510 C1508 1.388 . S
C1510 C1511 1.366 . S
C1511 C1510 1.366 . S
C1511 C1512 1.414 . S
C1511 C1514 1.499 . S
C1512 H1492 0.950 . S
C1512 C1511 1.414 . S
C1512 C1513 1.374 . S
C1513 H1493 0.950 . S
C1513 C1509 1.385 . S
C1513 C1512 1.374 . S
C1514 C1511 1.499 . S
C1514 C1515 1.373 . S
C1514 C1516 1.389 . S
C1515 H1494 0.950 . S
C1515 C1514 1.373 . S
C1515 C1531 1.377 . S
C1516 C1514 1.389 . S
C1516 C1517 1.524 . S
C1516 C1530 1.377 . S
C1517 C1516 1.524 . S
C1517 C1518 1.397 . S
C1517 C1522 1.363 . S
C1518 H1495 0.950 . S
C1518 C1517 1.397 . S
C1518 C1519 1.334 . S
C1519 H1496 0.950 . S
C1519 C1518 1.334 . S
C1519 C1520 1.287 . S
C1520 C1519 1.287 . S
C1520 C1521 1.524 . S
C1520 H1539 0.913 . S
C1521 H1497 0.950 . S
C1521 C1520 1.524 . S
C1521 C1522 1.415 . S
C1522 H1498 0.950 . S
C1522 C1517 1.363 . S
C1522 C1521 1.415 . S
C1523 H1499 0.951 . S
C1523 C1524 1.366 . S
C1523 C1525 1.388 . S
C1524 C1523 1.366 . S
C1524 C1528 1.385 . S
C1525 H1500 0.951 . S
C1525 C1523 1.388 . S
C1525 C1526 1.366 . S
C1526 C1525 1.366 . S
C1526 C1527 1.414 . S
C1526 C1529 1.499 . S
C1527 H1501 0.950 . S
C1527 C1526 1.414 . S
C1527 C1528 1.374 . S
C1528 H1502 0.950 . S
C1528 C1524 1.385 . S
C1528 C1527 1.374 . S
C1529 C1526 1.499 . S
C1529 C1530 1.373 . S
C1529 C1531 1.389 . S
C1530 H1503 0.950 . S
C1530 C1516 1.377 . S
C1530 C1529 1.373 . S
C1531 C1515 1.377 . S
C1531 C1529 1.389 . S
C1531 C1532 1.524 . S
C1532 C1531 1.524 . S
C1532 C1533 1.397 . S
C1532 C1537 1.363 . S
C1533 H1504 0.950 . S
C1533 C1532 1.397 . S
C1533 C1534 1.334 . S
C1534 H1505 0.950 . S
C1534 C1533 1.334 . S
C1534 C1535 1.287 . S
C1535 C1534 1.287 . S
C1535 C1536 1.524 . S
C1535 H1538 0.999 . S
C1536 H1506 0.950 . S
C1536 C1535 1.524 . S
C1536 C1537 1.415 . S
C1537 H1507 0.950 . S
C1537 C1532 1.363 . S
C1537 C1536 1.415 . S
H1538 C1535 0.999 . S
H1539 C1520 0.913 . S
H1540 C1558 0.951 . S
H1541 C1560 0.951 . S
H1542 C1562 0.950 . S
H1543 C1563 0.950 . S
H1544 C1565 0.950 . S
H1545 C1568 0.950 . S
H1546 C1569 0.950 . S
H1547 C1571 0.950 . S
H1548 C1572 0.950 . S
H1549 C1573 0.951 . S
H1550 C1575 0.951 . S
H1551 C1577 0.950 . S
H1552 C1578 0.950 . S
H1553 C1580 0.950 . S
H1554 C1583 0.950 . S
H1555 C1584 0.950 . S
H1556 C1586 0.950 . S
H1557 C1587 0.950 . S
C1558 H1540 0.951 . S
C1558 C1559 1.366 . S
C1558 C1560 1.388 . S
C1559 C1558 1.366 . S
C1559 C1563 1.385 . S
C1560 H1541 0.951 . S
C1560 C1558 1.388 . S
C1560 C1561 1.366 . S
C1561 C1560 1.366 . S
C1561 C1562 1.414 . S
C1561 C1564 1.499 . S
C1562 H1542 0.950 . S
C1562 C1561 1.414 . S
C1562 C1563 1.374 . S
C1563 H1543 0.950 . S
C1563 C1559 1.385 . S
C1563 C1562 1.374 . S
C1564 C1561 1.499 . S
C1564 C1565 1.373 . S
C1564 C1566 1.389 . S
C1565 H1544 0.950 . S
C1565 C1564 1.373 . S
C1565 C1581 1.377 . S
C1566 C1564 1.389 . S
C1566 C1567 1.524 . S
C1566 C1580 1.377 . S
C1567 C1566 1.524 . S
C1567 C1568 1.397 . S
C1567 C1572 1.363 . S
C1568 H1545 0.950 . S
C1568 C1567 1.397 . S
C1568 C1569 1.334 . S
C1569 H1546 0.950 . S
C1569 C1568 1.334 . S
C1569 C1570 1.287 . S
C1570 C1569 1.287 . S
C1570 C1571 1.524 . S
C1570 H1589 0.913 . S
C1571 H1547 0.950 . S
C1571 C1570 1.524 . S
C1571 C1572 1.415 . S
C1572 H1548 0.950 . S
C1572 C1567 1.363 . S
C1572 C1571 1.415 . S
C1573 H1549 0.951 . S
C1573 C1574 1.366 . S
C1573 C1575 1.388 . S
C1574 C1573 1.366 . S
C1574 C1578 1.385 . S
C1575 H1550 0.951 . S
C1575 C1573 1.388 . S
C1575 C1576 1.366 . S
C1576 C1575 1.366 . S
C1576 C1577 1.414 . S
C1576 C1579 1.499 . S
C1577 H1551 0.950 . S
C1577 C1576 1.414 . S
C1577 C1578 1.374 . S
C1578 H1552 0.950 . S
C1578 C1574 1.385 . S
C1578 C1577 1.374 . S
C1579 C1576 1.499 . S
C1579 C1580 1.373 . S
C1579 C1581 1.389 . S
C1580 H1553 0.950 . S
C1580 C1566 1.377 . S
C1580 C1579 1.373 . S
C1581 C1565 1.377 . S
C1581 C1579 1.389 . S
C1581 C1582 1.524 . S
C1582 C1581 1.524 . S
C1582 C1583 1.397 . S
C1582 C1587 1.363 . S
C1583 H1554 0.950 . S
C1583 C1582 1.397 . S
C1583 C1584 1.334 . S
C1584 H1555 0.950 . S
C1584 C1583 1.334 . S
C1584 C1585 1.287 . S
C1585 C1584 1.287 . S
C1585 C1586 1.524 . S
C1585 H1588 0.999 . S
C1586 H1556 0.950 . S
C1586 C1585 1.524 . S
C1586 C1587 1.415 . S
C1587 H1557 0.950 . S
C1587 C1582 1.363 . S
C1587 C1586 1.415 . S
H1588 C1585 0.999 . S
H1589 C1570 0.913 . S
H1590 C1608 0.951 . S
H1591 C1610 0.951 . S
H1592 C1612 0.950 . S
H1593 C1613 0.950 . S
H1594 C1615 0.950 . S
H1595 C1618 0.950 . S
H1596 C1619 0.950 . S
H1597 C1621 0.950 . S
H1598 C1622 0.950 . S
H1599 C1623 0.951 . S
H1600 C1625 0.951 . S
H1601 C1627 0.950 . S
H1602 C1628 0.950 . S
H1603 C1630 0.950 . S
H1604 C1633 0.950 . S
H1605 C1634 0.950 . S
H1606 C1636 0.950 . S
H1607 C1637 0.950 . S
C1608 H1590 0.951 . S
C1608 C1609 1.366 . S
C1608 C1610 1.388 . S
C1609 C1608 1.366 . S
C1609 C1613 1.385 . S
C1610 H1591 0.951 . S
C1610 C1608 1.388 . S
C1610 C1611 1.366 . S
C1611 C1610 1.366 . S
C1611 C1612 1.414 . S
C1611 C1614 1.499 . S
C1612 H1592 0.950 . S
C1612 C1611 1.414 . S
C1612 C1613 1.374 . S
C1613 H1593 0.950 . S
C1613 C1609 1.385 . S
C1613 C1612 1.374 . S
C1614 C1611 1.499 . S
C1614 C1615 1.373 . S
C1614 C1616 1.389 . S
C1615 H1594 0.950 . S
C1615 C1614 1.373 . S
C1615 C1631 1.377 . S
C1616 C1614 1.389 . S
C1616 C1617 1.524 . S
C1616 C1630 1.377 . S
C1617 C1616 1.524 . S
C1617 C1618 1.397 . S
C1617 C1622 1.363 . S
C1618 H1595 0.950 . S
C1618 C1617 1.397 . S
C1618 C1619 1.334 . S
C1619 H1596 0.950 . S
C1619 C1618 1.334 . S
C1619 C1620 1.287 . S
C1620 C1619 1.287 . S
C1620 C1621 1.524 . S
C1620 H1639 0.913 . S
C1621 H1597 0.950 . S
C1621 C1620 1.524 . S
C1621 C1622 1.415 . S
C1622 H1598 0.950 . S
C1622 C1617 1.363 . S
C1622 C1621 1.415 . S
C1623 H1599 0.951 . S
C1623 C1624 1.366 . S
C1623 C1625 1.388 . S
C1624 C1623 1.366 . S
C1624 C1628 1.385 . S
C1625 H1600 0.951 . S
C1625 C1623 1.388 . S
C1625 C1626 1.366 . S
C1626 C1625 1.366 . S
C1626 C1627 1.414 . S
C1626 C1629 1.499 . S
C1627 H1601 0.950 . S
C1627 C1626 1.414 . S
C1627 C1628 1.374 . S
C1628 H1602 0.950 . S
C1628 C1624 1.385 . S
C1628 C1627 1.374 . S
C1629 C1626 1.499 . S
C1629 C1630 1.373 . S
C1629 C1631 1.389 . S
C1630 H1603 0.950 . S
C1630 C1616 1.377 . S
C1630 C1629 1.373 . S
C1631 C1615 1.377 . S
C1631 C1629 1.389 . S
C1631 C1632 1.524 . S
C1632 C1631 1.524 . S
C1632 C1633 1.397 . S
C1632 C1637 1.363 . S
C1633 H1604 0.950 . S
C1633 C1632 1.397 . S
C1633 C1634 1.334 . S
C1634 H1605 0.950 . S
C1634 C1633 1.334 . S
C1634 C1635 1.287 . S
C1635 C1634 1.287 . S
C1635 C1636 1.524 . S
C1635 H1638 0.999 . S
C1636 H1606 0.950 . S
C1636 C1635 1.524 . S
C1636 C1637 1.415 . S
C1637 H1607 0.950 . S
C1637 C1632 1.363 . S
C1637 C1636 1.415 . S
H1638 C1635 0.999 . S
H1639 C1620 0.913 . S
H1640 C1658 0.951 . S
H1641 C1660 0.951 . S
H1642 C1662 0.950 . S
H1643 C1663 0.950 . S
H1644 C1665 0.950 . S
H1645 C1668 0.950 . S
H1646 C1669 0.950 . S
H1647 C1671 0.950 . S
H1648 C1672 0.950 . S
H1649 C1673 0.951 . S
H1650 C1675 0.951 . S
H1651 C1677 0.950 . S
H1652 C1678 0.950 . S
H1653 C1680 0.950 . S
H1654 C1683 0.950 . S
H1655 C1684 0.950 . S
H1656 C1686 0.950 . S
H1657 C1687 0.950 . S
C1658 H1640 0.951 . S
C1658 C1659 1.366 . S
C1658 C1660 1.388 . S
C1659 C1658 1.366 . S
C1659 C1663 1.385 . S
C1660 H1641 0.951 . S
C1660 C1658 1.388 . S
C1660 C1661 1.366 . S
C1661 C1660 1.366 . S
C1661 C1662 1.414 . S
C1661 C1664 1.499 . S
C1662 H1642 0.950 . S
C1662 C1661 1.414 . S
C1662 C1663 1.374 . S
C1663 H1643 0.950 . S
C1663 C1659 1.385 . S
C1663 C1662 1.374 . S
C1664 C1661 1.499 . S
C1664 C1665 1.373 . S
C1664 C1666 1.389 . S
C1665 H1644 0.950 . S
C1665 C1664 1.373 . S
C1665 C1681 1.377 . S
C1666 C1664 1.389 . S
C1666 C1667 1.524 . S
C1666 C1680 1.377 . S
C1667 C1666 1.524 . S
C1667 C1668 1.397 . S
C1667 C1672 1.363 . S
C1668 H1645 0.950 . S
C1668 C1667 1.397 . S
C1668 C1669 1.334 . S
C1669 H1646 0.950 . S
C1669 C1668 1.334 . S
C1669 C1670 1.287 . S
C1670 C1669 1.287 . S
C1670 C1671 1.524 . S
C1670 H1689 0.913 . S
C1671 H1647 0.950 . S
C1671 C1670 1.524 . S
C1671 C1672 1.415 . S
C1672 H1648 0.950 . S
C1672 C1667 1.363 . S
C1672 C1671 1.415 . S
C1673 H1649 0.951 . S
C1673 C1674 1.366 . S
C1673 C1675 1.388 . S
C1674 C1673 1.366 . S
C1674 C1678 1.385 . S
C1675 H1650 0.951 . S
C1675 C1673 1.388 . S
C1675 C1676 1.366 . S
C1676 C1675 1.366 . S
C1676 C1677 1.414 . S
C1676 C1679 1.499 . S
C1677 H1651 0.950 . S
C1677 C1676 1.414 . S
C1677 C1678 1.374 . S
C1678 H1652 0.950 . S
C1678 C1674 1.385 . S
C1678 C1677 1.374 . S
C1679 C1676 1.499 . S
C1679 C1680 1.373 . S
C1679 C1681 1.389 . S
C1680 H1653 0.950 . S
C1680 C1666 1.377 . S
C1680 C1679 1.373 . S
C1681 C1665 1.377 . S
C1681 C1679 1.389 . S
C1681 C1682 1.524 . S
C1682 C1681 1.524 . S
C1682 C1683 1.397 . S
C1682 C1687 1.363 . S
C1683 H1654 0.950 . S
C1683 C1682 1.397 . S
C1683 C1684 1.334 . S
C1684 H1655 0.950 . S
C1684 C1683 1.334 . S
C1684 C1685 1.287 . S
C1685 C1684 1.287 . S
C1685 C1686 1.524 . S
C1685 H1688 0.999 . S
C1686 H1656 0.950 . S
C1686 C1685 1.524 . S
C1686 C1687 1.415 . S
C1687 H1657 0.950 . S
C1687 C1682 1.363 . S
C1687 C1686 1.415 . S
H1688 C1685 0.999 . S
H1689 C1670 0.913 . S
H1690 C1708 0.951 . S
H1691 C1710 0.951 . S
H1692 C1712 0.950 . S
H1693 C1713 0.950 . S
H1694 C1715 0.950 . S
H1695 C1718 0.950 . S
H1696 C1719 0.950 . S
H1697 C1721 0.950 . S
H1698 C1722 0.950 . S
H1699 C1723 0.951 . S
H1700 C1725 0.951 . S
H1701 C1727 0.950 . S
H1702 C1728 0.950 . S
H1703 C1730 0.950 . S
H1704 C1733 0.950 . S
H1705 C1734 0.950 . S
H1706 C1736 0.950 . S
H1707 C1737 0.950 . S
C1708 H1690 0.951 . S
C1708 C1709 1.366 . S
C1708 C1710 1.388 . S
C1709 C1708 1.366 . S
C1709 C1713 1.385 . S
C1710 H1691 0.951 . S
C1710 C1708 1.388 . S
C1710 C1711 1.366 . S
C1711 C1710 1.366 . S
C1711 C1712 1.414 . S
C1711 C1714 1.499 . S
C1712 H1692 0.950 . S
C1712 C1711 1.414 . S
C1712 C1713 1.374 . S
C1713 H1693 0.950 . S
C1713 C1709 1.385 . S
C1713 C1712 1.374 . S
C1714 C1711 1.499 . S
C1714 C1715 1.373 . S
C1714 C1716 1.389 . S
C1715 H1694 0.950 . S
C1715 C1714 1.373 . S
C1715 C1731 1.377 . S
C1716 C1714 1.389 . S
C1716 C1717 1.524 . S
C1716 C1730 1.377 . S
C1717 C1716 1.524 . S
C1717 C1718 1.397 . S
C1717 C1722 1.363 . S
C1718 H1695 0.950 . S
C1718 C1717 1.397 . S
C1718 C1719 1.334 . S
C1719 H1696 0.950 . S
C1719 C1718 1.334 . S
C1719 C1720 1.287 . S
C1720 C1719 1.287 . S
C1720 C1721 1.524 . S
C1720 H1739 0.913 . S
C1721 H1697 0.950 . S
C1721 C1720 1.524 . S
C1721 C1722 1.415 . S
C1722 H1698 0.950 . S
C1722 C1717 1.363 . S
C1722 C1721 1.415 . S
C1723 H1699 0.951 . S
C1723 C1724 1.366 . S
C1723 C1725 1.388 . S
C1724 C1723 1.366 . S
C1724 C1728 1.385 . S
C1725 H1700 0.951 . S
C1725 C1723 1.388 . S
C1725 C1726 1.366 . S
C1726 C1725 1.366 . S
C1726 C1727 1.414 . S
C1726 C1729 1.499 . S
C1727 H1701 0.950 . S
C1727 C1726 1.414 . S
C1727 C1728 1.374 . S
C1728 H1702 0.950 . S
C1728 C1724 1.385 . S
C1728 C1727 1.374 . S
C1729 C1726 1.499 . S
C1729 C1730 1.373 . S
C1729 C1731 1.389 . S
C1730 H1703 0.950 . S
C1730 C1716 1.377 . S
C1730 C1729 1.373 . S
C1731 C1715 1.377 . S
C1731 C1729 1.389 . S
C1731 C1732 1.524 . S
C1732 C1731 1.524 . S
C1732 C1733 1.397 . S
C1732 C1737 1.363 . S
C1733 H1704 0.950 . S
C1733 C1732 1.397 . S
C1733 C1734 1.334 . S
C1734 H1705 0.950 . S
C1734 C1733 1.334 . S
C1734 C1735 1.287 . S
C1735 C1734 1.287 . S
C1735 C1736 1.524 . S
C1735 H1738 0.999 . S
C1736 H1706 0.950 . S
C1736 C1735 1.524 . S
C1736 C1737 1.415 . S
C1737 H1707 0.950 . S
C1737 C1732 1.363 . S
C1737 C1736 1.415 . S
H1738 C1735 0.999 . S
H1739 C1720 0.913 . S
H1740 C1758 0.951 . S
H1741 C1760 0.951 . S
H1742 C1762 0.950 . S
H1743 C1763 0.950 . S
H1744 C1765 0.950 . S
H1745 C1768 0.950 . S
H1746 C1769 0.950 . S
H1747 C1771 0.950 . S
H1748 C1772 0.950 . S
H1749 C1773 0.951 . S
H1750 C1775 0.951 . S
H1751 C1777 0.950 . S
H1752 C1778 0.950 . S
H1753 C1780 0.950 . S
H1754 C1783 0.950 . S
H1755 C1784 0.950 . S
H1756 C1786 0.950 . S
H1757 C1787 0.950 . S
C1758 H1740 0.951 . S
C1758 C1759 1.366 . S
C1758 C1760 1.388 . S
C1759 C1758 1.366 . S
C1759 C1763 1.385 . S
C1760 H1741 0.951 . S
C1760 C1758 1.388 . S
C1760 C1761 1.366 . S
C1761 C1760 1.366 . S
C1761 C1762 1.414 . S
C1761 C1764 1.499 . S
C1762 H1742 0.950 . S
C1762 C1761 1.414 . S
C1762 C1763 1.374 . S
C1763 H1743 0.950 . S
C1763 C1759 1.385 . S
C1763 C1762 1.374 . S
C1764 C1761 1.499 . S
C1764 C1765 1.373 . S
C1764 C1766 1.389 . S
C1765 H1744 0.950 . S
C1765 C1764 1.373 . S
C1765 C1781 1.377 . S
C1766 C1764 1.389 . S
C1766 C1767 1.524 . S
C1766 C1780 1.377 . S
C1767 C1766 1.524 . S
C1767 C1768 1.397 . S
C1767 C1772 1.363 . S
C1768 H1745 0.950 . S
C1768 C1767 1.397 . S
C1768 C1769 1.334 . S
C1769 H1746 0.950 . S
C1769 C1768 1.334 . S
C1769 C1770 1.287 . S
C1770 C1769 1.287 . S
C1770 C1771 1.524 . S
C1770 H1789 0.913 . S
C1771 H1747 0.950 . S
C1771 C1770 1.524 . S
C1771 C1772 1.415 . S
C1772 H1748 0.950 . S
C1772 C1767 1.363 . S
C1772 C1771 1.415 . S
C1773 H1749 0.951 . S
C1773 C1774 1.366 . S
C1773 C1775 1.388 . S
C1774 C1773 1.366 . S
C1774 C1778 1.385 . S
C1775 H1750 0.951 . S
C1775 C1773 1.388 . S
C1775 C1776 1.366 . S
C1776 C1775 1.366 . S
C1776 C1777 1.414 . S
C1776 C1779 1.499 . S
C1777 H1751 0.950 . S
C1777 C1776 1.414 . S
C1777 C1778 1.374 . S
C1778 H1752 0.950 . S
C1778 C1774 1.385 . S
C1778 C1777 1.374 . S
C1779 C1776 1.499 . S
C1779 C1780 1.373 . S
C1779 C1781 1.389 . S
C1780 H1753 0.950 . S
C1780 C1766 1.377 . S
C1780 C1779 1.373 . S
C1781 C1765 1.377 . S
C1781 C1779 1.389 . S
C1781 C1782 1.524 . S
C1782 C1781 1.524 . S
C1782 C1783 1.397 . S
C1782 C1787 1.363 . S
C1783 H1754 0.950 . S
C1783 C1782 1.397 . S
C1783 C1784 1.334 . S
C1784 H1755 0.950 . S
C1784 C1783 1.334 . S
C1784 C1785 1.287 . S
C1785 C1784 1.287 . S
C1785 C1786 1.524 . S
C1785 H1788 0.999 . S
C1786 H1756 0.950 . S
C1786 C1785 1.524 . S
C1786 C1787 1.415 . S
C1787 H1757 0.950 . S
C1787 C1782 1.363 . S
C1787 C1786 1.415 . S
H1788 C1785 0.999 . S
H1789 C1770 0.913 . S
H1790 C1808 0.951 . S
H1791 C1810 0.951 . S
H1792 C1812 0.950 . S
H1793 C1813 0.950 . S
H1794 C1815 0.950 . S
H1795 C1818 0.950 . S
H1796 C1819 0.950 . S
H1797 C1821 0.950 . S
H1798 C1822 0.950 . S
H1799 C1823 0.951 . S
H1800 C1825 0.951 . S
H1801 C1827 0.950 . S
H1802 C1828 0.950 . S
H1803 C1830 0.950 . S
H1804 C1833 0.950 . S
H1805 C1834 0.950 . S
H1806 C1836 0.950 . S
H1807 C1837 0.950 . S
C1808 H1790 0.951 . S
C1808 C1809 1.366 . S
C1808 C1810 1.388 . S
C1809 C1808 1.366 . S
C1809 C1813 1.385 . S
C1810 H1791 0.951 . S
C1810 C1808 1.388 . S
C1810 C1811 1.366 . S
C1811 C1810 1.366 . S
C1811 C1812 1.414 . S
C1811 C1814 1.499 . S
C1812 H1792 0.950 . S
C1812 C1811 1.414 . S
C1812 C1813 1.374 . S
C1813 H1793 0.950 . S
C1813 C1809 1.385 . S
C1813 C1812 1.374 . S
C1814 C1811 1.499 . S
C1814 C1815 1.373 . S
C1814 C1816 1.389 . S
C1815 H1794 0.950 . S
C1815 C1814 1.373 . S
C1815 C1831 1.377 . S
C1816 C1814 1.389 . S
C1816 C1817 1.524 . S
C1816 C1830 1.377 . S
C1817 C1816 1.524 . S
C1817 C1818 1.397 . S
C1817 C1822 1.363 . S
C1818 H1795 0.950 . S
C1818 C1817 1.397 . S
C1818 C1819 1.334 . S
C1819 H1796 0.950 . S
C1819 C1818 1.334 . S
C1819 C1820 1.287 . S
C1820 C1819 1.287 . S
C1820 C1821 1.524 . S
C1820 H1839 0.913 . S
C1821 H1797 0.950 . S
C1821 C1820 1.524 . S
C1821 C1822 1.415 . S
C1822 H1798 0.950 . S
C1822 C1817 1.363 . S
C1822 C1821 1.415 . S
C1823 H1799 0.951 . S
C1823 C1824 1.366 . S
C1823 C1825 1.388 . S
C1824 C1823 1.366 . S
C1824 C1828 1.385 . S
C1825 H1800 0.951 . S
C1825 C1823 1.388 . S
C1825 C1826 1.366 . S
C1826 C1825 1.366 . S
C1826 C1827 1.414 . S
C1826 C1829 1.499 . S
C1827 H1801 0.950 . S
C1827 C1826 1.414 . S
C1827 C1828 1.374 . S
C1828 H1802 0.950 . S
C1828 C1824 1.385 . S
C1828 C1827 1.374 . S
C1829 C1826 1.499 . S
C1829 C1830 1.373 . S
C1829 C1831 1.389 . S
C1830 H1803 0.950 . S
C1830 C1816 1.377 . S
C1830 C1829 1.373 . S
C1831 C1815 1.377 . S
C1831 C1829 1.389 . S
C1831 C1832 1.524 . S
C1832 C1831 1.524 . S
C1832 C1833 1.397 . S
C1832 C1837 1.363 . S
C1833 H1804 0.950 . S
C1833 C1832 1.397 . S
C1833 C1834 1.334 . S
C1834 H1805 0.950 . S
C1834 C1833 1.334 . S
C1834 C1835 1.287 . S
C1835 C1834 1.287 . S
C1835 C1836 1.524 . S
C1835 H1838 0.999 . S
C1836 H1806 0.950 . S
C1836 C1835 1.524 . S
C1836 C1837 1.415 . S
C1837 H1807 0.950 . S
C1837 C1832 1.363 . S
C1837 C1836 1.415 . S
H1838 C1835 0.999 . S
H1839 C1820 0.913 . S
C659 C175 1.786 . S
C674 C15 1.786 . S
C709 C55 1.786 . S
C724 C215 1.786 . S
C759 C255 1.786 . S
C774 C95 1.786 . S
C809 C135 1.786 . S
C824 C295 1.786 . S
C859 C335 1.786 . S
C874 C495 1.786 . S
C909 C535 1.786 . S
C924 C375 1.786 . S
C959 C575 1.786 . S
C974 C415 1.786 . S
C1009 C455 1.786 . S
C1024 C615 1.786 . S
C1059 C21 1.811 . S
C1074 C221 1.811 . S
C1109 C261 1.811 . S
C1124 C61 1.811 . S
C1159 C101 1.811 . S
C1174 C301 1.811 . S
C1209 C141 1.811 . S
C1224 C181 1.811 . S
C1259 C341 1.811 . S
C1274 C541 1.811 . S
C1309 C581 1.811 . S
C1324 C381 1.811 . S
C1359 C421 1.811 . S
C1374 C621 1.811 . S
C1409 C501 1.811 . S
C1424 C461 1.811 . S
C1459 C602 1.858 . S
C1474 C2 1.857 . S
C1509 C482 1.858 . S
C1524 C42 1.858 . S
C1559 C82 1.857 . S
C1574 C522 1.858 . S
C1609 C562 1.858 . S
C1624 C122 1.857 . S
C1659 C162 1.857 . S
C1674 C362 1.857 . S
C1709 C402 1.857 . S
C1724 C202 1.858 . S
C1759 C442 1.857 . S
C1774 C242 1.857 . S
C1809 C322 1.858 . S
C1824 C282 1.857 . S
