# Generated by pormake.
# Topology lon, (4)-cn, num edge types: 1
# Building blocks:
#     Node 0, Type 0, BuildingBlock: ICAMEG_clean_sbu_1, # of connection points: 4
#     Node 1, Type 0, BuildingBlock: ICAMEG_clean_sbu_1, # of connection points: 4
#     Node 2, Type 0, BuildingBlock: ICAMEG_clean_sbu_1, # of connection points: 4
#     Node 3, Type 0, BuildingBlock: ICAMEG_clean_sbu_1, # of connection points: 4
#     Edge 4, Type (0, 0), BuildingBlock: UKIBUN_clean_linker_0, # of connection points: 2
#     Edge 5, Type (0, 0), BuildingBlock: UKIBUN_clean_linker_0, # of connection points: 2
#     Edge 6, Type (0, 0), BuildingBlock: UKIBUN_clean_linker_0, # of connection points: 2
#     Edge 7, Type (0, 0), BuildingBlock: UKIBUN_clean_linker_0, # of connection points: 2
#     Edge 8, Type (0, 0), BuildingBlock: UKIBUN_clean_linker_0, # of connection points: 2
#     Edge 9, Type (0, 0), BuildingBlock: UKIBUN_clean_linker_0, # of connection points: 2
#     Edge 10, Type (0, 0), BuildingBlock: UKIBUN_clean_linker_0, # of connection points: 2
#     Edge 11, Type (0, 0), BuildingBlock: UKIBUN_clean_linker_0, # of connection points: 2
# Relax obj value: 0.243
# Max RMSD: 0.270
# Mean RMSD: 0.258
data_MOF--net-lon--node1-ICAMEG_clean_sbu_1--edge1-UKIBUN_clean_linker_0
_symmetry_space_group_name_H-M    P1
_symmetry_Int_Tables_number       1
_symmetry_cell_setting            triclinic
loop_
_symmetry_equiv_pos_as_xyz
'x, y, z'
_cell_length_a     35.716839
_cell_length_b     42.149236
_cell_length_c     71.00999
_cell_angle_alpha  93.084097
_cell_angle_beta   90.344527
_cell_angle_gamma 114.95109
loop_
_atom_site_label
_atom_site_type_symbol
_atom_site_fract_x
_atom_site_fract_y
_atom_site_fract_z
_atom_type_partial_charge
Co0 Co 0.35497 0.70407 0.05124 0.0
Co1 Co 0.3627 0.66264 0.08998 0.0
O2 O 0.36802 0.7058 0.07841 0.0
C3 C 0.42638 0.77548 0.05962 0.0
O4 O 0.43002 0.7699 0.0774 0.0
C5 C 0.33234 0.69884 0.12036 0.0
O6 O 0.32121 0.71564 0.10806 0.0
O7 O 0.30325 0.6405 0.08237 0.0
O8 O 0.3095 0.65556 0.05237 0.0
H9 H 0.31353 0.5322 0.09163 0.0
H10 H 0.35444 0.76249 0.07688 0.0
O11 O 0.39926 0.75227 0.04859 0.0
H12 H 0.21765 0.70991 0.04446 0.0
H13 H 0.33565 0.7527 0.99045 0.0
H14 H 0.33626 0.64962 0.01993 0.0
H15 H 0.26848 0.68568 0.03814 0.0
H16 H 0.34872 0.75455 0.0247 0.0
O17 O 0.34911 0.67872 0.11502 0.0
H18 H 0.32193 0.58705 0.07774 0.0
H19 H 0.38975 0.64626 0.12671 0.0
H20 H 0.32257 0.64653 0.98564 0.0
H21 H 0.30486 0.78784 0.08339 0.0
H22 H 0.32231 0.69836 0.97067 0.0
H23 H 0.23583 0.7616 0.0671 0.0
O24 O 0.39615 0.68505 0.04537 0.0
H25 H 0.49213 0.76118 0.11733 0.0
H26 H 0.43313 0.64206 0.08638 0.0
H27 H 0.50768 0.6713 0.09442 0.0
H28 H 0.53767 0.73129 0.11004 0.0
H29 H 0.41776 0.7311 0.10884 0.0
H30 H 0.38178 0.59199 0.14118 0.0
H31 H 0.34361 0.53443 0.12357 0.0
O32 O 0.37615 0.64337 0.06592 0.0
C33 C 0.28879 0.63698 0.06553 0.0
C34 C 0.33031 0.55712 0.09943 0.0
C35 C 0.36858 0.59067 0.12724 0.0
N36 N 0.35652 0.61989 0.10134 0.0
C37 C 0.33523 0.5883 0.09162 0.0
C38 C 0.3729 0.62132 0.11898 0.0
C39 C 0.34717 0.55839 0.11735 0.0
C40 C 0.32482 0.75111 0.06955 0.0
N41 N 0.31486 0.72298 0.05689 0.0
C42 C 0.29667 0.76547 0.07339 0.0
C43 C 0.25792 0.75069 0.06428 0.0
C44 C 0.2477 0.72169 0.0516 0.0
C45 C 0.27663 0.70804 0.04811 0.0
C46 C 0.3356 0.72991 0.99681 0.0
C47 C 0.33584 0.67218 0.01355 0.0
C48 C 0.34308 0.73082 0.0162 0.0
N49 N 0.34298 0.70211 0.02436 0.0
C50 C 0.32821 0.67032 0.99412 0.0
C51 C 0.32811 0.69942 0.98572 0.0
C52 C 0.39556 0.657 0.05137 0.0
C53 C 0.47943 0.73503 0.11054 0.0
C54 C 0.44593 0.66824 0.09307 0.0
C55 C 0.48817 0.68462 0.09765 0.0
C56 C 0.50497 0.71826 0.10643 0.0
N57 N 0.42109 0.68492 0.09709 0.0
C58 C 0.43732 0.71784 0.10575 0.0
Co59 Co 0.6257 0.30619 0.54912 0.0
Co60 Co 0.68445 0.30215 0.58582 0.0
O61 O 0.64021 0.31357 0.57619 0.0
C62 C 0.62919 0.37738 0.55791 0.0
O63 O 0.66602 0.38726 0.56584 0.0
C64 C 0.62469 0.29007 0.61788 0.0
O65 O 0.59909 0.29796 0.60791 0.0
O66 O 0.65247 0.2528 0.57564 0.0
O67 O 0.6401 0.26493 0.54662 0.0
H68 H 0.78412 0.24643 0.58137 0.0
H69 H 0.56399 0.3093 0.57595 0.0
O70 O 0.60962 0.34625 0.55077 0.0
H71 H 0.49498 0.19478 0.54042 0.0
H72 H 0.54201 0.30201 0.49086 0.0
H73 H 0.66523 0.29113 0.51539 0.0
H74 H 0.56629 0.23521 0.53356 0.0
H75 H 0.55813 0.30882 0.52508 0.0
O76 O 0.65699 0.28954 0.61065 0.0
H77 H 0.73005 0.26293 0.56959 0.0
H78 H 0.73023 0.31418 0.62279 0.0
H79 H 0.65005 0.28381 0.48111 0.0
H80 H 0.49239 0.2698 0.58316 0.0
H81 H 0.58806 0.28927 0.46863 0.0
H82 H 0.45744 0.21204 0.56534 0.0
O83 O 0.68332 0.33863 0.54388 0.0
H84 H 0.70038 0.41705 0.61789 0.0
H85 H 0.77279 0.35387 0.5855 0.0
H86 H 0.81213 0.41543 0.59705 0.0
H87 H 0.77598 0.44745 0.61349 0.0
H88 H 0.66223 0.35578 0.60596 0.0
H89 H 0.78383 0.29786 0.63519 0.0
H90 H 0.81135 0.26392 0.6144 0.0
O91 O 0.71524 0.3147 0.56168 0.0
C92 C 0.64064 0.24333 0.55844 0.0
C93 C 0.77246 0.26131 0.59055 0.0
C94 C 0.77227 0.29013 0.62077 0.0
N95 N 0.72718 0.2897 0.59542 0.0
C96 C 0.74193 0.27081 0.58394 0.0
C97 C 0.74179 0.29918 0.61367 0.0
C98 C 0.7877 0.2711 0.60909 0.0
C99 C 0.54897 0.2842 0.56816 0.0
N100 N 0.56942 0.27449 0.55447 0.0
C101 C 0.50844 0.26194 0.5723 0.0
C102 C 0.48885 0.22954 0.5623 0.0
C103 C 0.5099 0.21982 0.54833 0.0
C104 C 0.55038 0.24277 0.54458 0.0
C105 C 0.56907 0.29951 0.49613 0.0
C106 C 0.63805 0.29333 0.51009 0.0
C107 C 0.57842 0.30343 0.51549 0.0
N108 N 0.61244 0.30014 0.52225 0.0
C109 C 0.62967 0.28925 0.49066 0.0
C110 C 0.59491 0.29235 0.48367 0.0
C111 C 0.71533 0.33483 0.5489 0.0
C112 C 0.71659 0.40327 0.61095 0.0
C113 C 0.75676 0.36745 0.59274 0.0
C114 C 0.77925 0.40239 0.59922 0.0
C115 C 0.75897 0.42034 0.60843 0.0
N116 N 0.71521 0.35064 0.59547 0.0
C117 C 0.69512 0.3683 0.60429 0.0
Co118 Co 0.3194 0.69759 0.46213 0.0
Co119 Co 0.38158 0.698 0.42617 0.0
O120 O 0.32591 0.68755 0.43533 0.0
C121 C 0.25385 0.62539 0.45516 0.0
O122 O 0.2806 0.61699 0.44607 0.0
C123 C 0.34196 0.72043 0.39499 0.0
O124 O 0.32654 0.7357 0.40729 0.0
O125 O 0.39881 0.74836 0.43453 0.0
O126 O 0.37445 0.73936 0.46364 0.0
H127 H 0.53674 0.75532 0.43052 0.0
H128 H 0.25385 0.69099 0.43445 0.0
O129 O 0.26406 0.65674 0.46169 0.0
H130 H 0.29744 0.80814 0.46681 0.0
H131 H 0.24181 0.70635 0.51979 0.0
H132 H 0.3754 0.71643 0.49583 0.0
H133 H 0.32976 0.76935 0.4754 0.0
H134 H 0.25003 0.697 0.48574 0.0
O135 O 0.36455 0.70591 0.40053 0.0
H136 H 0.46642 0.7399 0.44189 0.0
H137 H 0.41474 0.68095 0.39036 0.0
H138 H 0.36866 0.7263 0.52992 0.0
H139 H 0.22025 0.72885 0.42552 0.0
H140 H 0.30145 0.72119 0.54212 0.0
H141 H 0.24209 0.78788 0.44176 0.0
O142 O 0.34531 0.66639 0.4688 0.0
H143 H 0.28428 0.58223 0.39496 0.0
H144 H 0.4169 0.64558 0.43026 0.0
H145 H 0.39386 0.583 0.42059 0.0
H146 H 0.32717 0.55091 0.40274 0.0
H147 H 0.30823 0.64473 0.40514 0.0
H148 H 0.48444 0.69599 0.37838 0.0
H149 H 0.54607 0.73331 0.39855 0.0
O150 O 0.40094 0.6887 0.45122 0.0
C151 C 0.39655 0.75958 0.45137 0.0
C152 C 0.51012 0.73897 0.42162 0.0
C153 C 0.48078 0.70572 0.39234 0.0
N154 N 0.43649 0.7094 0.41686 0.0
C155 C 0.47023 0.7301 0.42799 0.0
C156 C 0.44136 0.69738 0.39919 0.0
C157 C 0.51534 0.72664 0.40367 0.0
C158 C 0.26334 0.71661 0.4416 0.0
N159 N 0.2937 0.72795 0.45539 0.0
C160 C 0.2443 0.73795 0.43647 0.0
C161 C 0.2566 0.77109 0.44557 0.0
C162 C 0.28766 0.78249 0.45961 0.0
C163 C 0.30598 0.76045 0.46436 0.0
C164 C 0.27127 0.70871 0.51464 0.0
C165 C 0.34613 0.71444 0.50099 0.0
C166 C 0.27608 0.70337 0.49538 0.0
N167 N 0.31323 0.70638 0.48878 0.0
C168 C 0.34248 0.71996 0.52033 0.0
C169 C 0.30475 0.71705 0.52716 0.0
C170 C 0.38096 0.66941 0.46429 0.0
C171 C 0.31344 0.59594 0.4027 0.0
C172 C 0.3877 0.63178 0.42262 0.0
C173 C 0.37489 0.59635 0.41712 0.0
C174 C 0.33749 0.57837 0.40709 0.0
N175 N 0.36394 0.64885 0.41826 0.0
C176 C 0.32723 0.63137 0.40844 0.0
Co177 Co 0.65016 0.29707 0.9621 0.0
Co178 Co 0.70365 0.33988 0.92349 0.0
O179 O 0.66452 0.29727 0.93519 0.0
C180 C 0.66058 0.22994 0.95447 0.0
O181 O 0.67761 0.2397 0.93824 0.0
C182 C 0.63659 0.30225 0.89303 0.0
O183 O 0.61544 0.27619 0.90347 0.0
O184 O 0.6728 0.36686 0.9332 0.0
O185 O 0.64821 0.34334 0.96067 0.0
H186 H 0.79634 0.46858 0.9231 0.0
H187 H 0.59881 0.23751 0.93517 0.0
O188 O 0.65012 0.25012 0.9649 0.0
H189 H 0.50182 0.27944 0.96439 0.0
H190 H 0.57868 0.244 0.02122 0.0
H191 H 0.67868 0.35101 0.99385 0.0
H192 H 0.57597 0.30798 0.97329 0.0
H193 H 0.59374 0.24372 0.98739 0.0
O194 O 0.66942 0.32779 0.89947 0.0
H195 H 0.74982 0.41422 0.93727 0.0
H196 H 0.73849 0.35607 0.88512 0.0
H197 H 0.66419 0.35251 0.02771 0.0
H198 H 0.52486 0.20787 0.92606 0.0
H199 H 0.61392 0.29871 0.04162 0.0
H200 H 0.47573 0.22883 0.94069 0.0
O201 O 0.70963 0.31979 0.97002 0.0
H202 H 0.71983 0.23646 0.89174 0.0
H203 H 0.79289 0.35518 0.92212 0.0
H204 H 0.83296 0.3236 0.91006 0.0
H205 H 0.79645 0.2638 0.89462 0.0
H206 H 0.68111 0.26869 0.90426 0.0
H207 H 0.78447 0.40986 0.87035 0.0
H208 H 0.81383 0.46663 0.88938 0.0
O209 O 0.7402 0.3544 0.94662 0.0
C210 C 0.65477 0.3663 0.94868 0.0
C211 C 0.78383 0.44399 0.91467 0.0
C212 C 0.77712 0.41104 0.88506 0.0
N213 N 0.74158 0.38195 0.9121 0.0
C214 C 0.75757 0.4131 0.92264 0.0
C215 C 0.75099 0.38068 0.89351 0.0
C216 C 0.7936 0.44288 0.89575 0.0
C217 C 0.57773 0.24674 0.94167 0.0
N218 N 0.59186 0.27454 0.95472 0.0
C219 C 0.53583 0.22988 0.93641 0.0
C220 C 0.50829 0.24167 0.9446 0.0
C221 C 0.5229 0.27008 0.95788 0.0
C222 C 0.565 0.28627 0.96278 0.0
C223 C 0.60059 0.26763 0.01532 0.0
C224 C 0.65649 0.32756 0.99976 0.0
C225 C 0.60935 0.26761 0.99617 0.0
N226 N 0.63689 0.2974 0.9886 0.0
C227 C 0.64852 0.32854 0.01896 0.0
C228 C 0.62036 0.29833 0.02675 0.0
C229 C 0.74084 0.34376 0.96301 0.0
C230 C 0.73615 0.26259 0.89834 0.0
C231 C 0.77665 0.3291 0.9156 0.0
C232 C 0.79958 0.31138 0.9087 0.0
C233 C 0.7791 0.27788 0.90001 0.0
N234 N 0.73446 0.31408 0.91382 0.0
C235 C 0.71428 0.28118 0.90535 0.0
C236 C 0.31801 0.73034 0.1488 0.0
C237 C 0.32566 0.70242 0.14085 0.0
C238 C 0.3134 0.73361 0.16836 0.0
C239 C 0.30023 0.73783 0.24822 0.0
C240 C 0.34531 0.69825 0.36186 0.0
C241 C 0.33287 0.71884 0.37439 0.0
C242 C 0.338 0.6969 0.34242 0.0
C243 C 0.3146 0.6869 0.26681 0.0
H244 H 0.3163 0.74991 0.13999 0.0
H245 H 0.30808 0.75553 0.17427 0.0
H246 H 0.29486 0.7578 0.24121 0.0
H247 H 0.36091 0.68315 0.36704 0.0
H248 H 0.3483 0.68111 0.33313 0.0
H249 H 0.3205 0.66719 0.27383 0.0
C250 C 0.32788 0.67764 0.15284 0.0
C251 C 0.32306 0.68082 0.17224 0.0
C252 C 0.31487 0.68663 0.24706 0.0
C253 C 0.31213 0.73751 0.36692 0.0
C254 C 0.3049 0.73616 0.34736 0.0
C255 C 0.29995 0.7381 0.26797 0.0
C256 C 0.31605 0.70887 0.18014 0.0
C257 C 0.31234 0.71208 0.20035 0.0
C258 C 0.30967 0.71259 0.21734 0.0
C259 C 0.30793 0.71222 0.23768 0.0
H260 H 0.33331 0.65559 0.14724 0.0
H261 H 0.32508 0.66141 0.1811 0.0
H262 H 0.32092 0.66666 0.23914 0.0
H263 H 0.30197 0.75346 0.37613 0.0
H264 H 0.2894 0.75111 0.34185 0.0
H265 H 0.29443 0.75832 0.2759 0.0
C266 C 0.31811 0.71604 0.33503 0.0
C267 C 0.31262 0.71562 0.3148 0.0
C268 C 0.30908 0.71408 0.29777 0.0
C269 C 0.30735 0.71277 0.27736 0.0
C270 C 0.64272 0.27241 0.64842 0.0
C271 C 0.62107 0.2879 0.63857 0.0
C272 C 0.64444 0.27438 0.66812 0.0
C273 C 0.64176 0.27225 0.74477 0.0
C274 C 0.6412 0.33045 0.86271 0.0
C275 C 0.62834 0.29961 0.87247 0.0
C276 C 0.6408 0.32893 0.84302 0.0
C277 C 0.631 0.32495 0.76656 0.0
H278 H 0.65913 0.2594 0.64089 0.0
H279 H 0.66181 0.26271 0.67539 0.0
H280 H 0.64566 0.25157 0.73647 0.0
H281 H 0.65284 0.35589 0.87033 0.0
H282 H 0.6517 0.3531 0.83581 0.0
H283 H 0.62655 0.34537 0.77485 0.0
C284 C 0.60023 0.3046 0.64887 0.0
C285 C 0.60225 0.30677 0.66865 0.0
C286 C 0.63074 0.32527 0.74686 0.0
C287 C 0.61369 0.26706 0.86213 0.0
C288 C 0.61367 0.26561 0.84235 0.0
C289 C 0.642 0.27191 0.76447 0.0
C290 C 0.62479 0.29202 0.67831 0.0
C291 C 0.62842 0.29528 0.69863 0.0
C292 C 0.63218 0.29745 0.71561 0.0
C293 C 0.63549 0.29863 0.7359 0.0
H294 H 0.58384 0.31721 0.6417 0.0
H295 H 0.58691 0.32052 0.67637 0.0
H296 H 0.62606 0.34591 0.7402 0.0
H297 H 0.60438 0.24296 0.86929 0.0
H298 H 0.60367 0.24041 0.83458 0.0
H299 H 0.64613 0.25101 0.77112 0.0
C300 C 0.62789 0.29661 0.83278 0.0
C301 C 0.63055 0.29568 0.81252 0.0
C302 C 0.63343 0.29642 0.79561 0.0
C303 C 0.63599 0.29797 0.7754 0.0
C304 C 0.45269 0.65692 0.03097 0.0
C305 C 0.41735 0.6386 0.04128 0.0
C306 C 0.47553 0.63957 0.02331 0.0
C307 C 0.56764 0.56401 1.00159 0.0
C308 C 0.59826 0.38277 0.95785 0.0
C309 C 0.6398 0.3932 0.9533 0.0
C310 C 0.58463 0.40732 0.96508 0.0
C311 C 0.52413 0.49094 0.99795 0.0
H312 H 0.46346 0.6848 0.02942 0.0
H313 H 0.50333 0.65419 0.01582 0.0
H314 H 0.58468 0.59228 1.00286 0.0
H315 H 0.57644 0.35555 0.95607 0.0
H316 H 0.5526 0.39863 0.96885 0.0
H317 H 0.50693 0.46269 0.99649 0.0
C318 C 0.40446 0.60248 0.04319 0.0
C319 C 0.42703 0.5852 0.03542 0.0
C320 C 0.50473 0.51148 1.00514 0.0
C321 C 0.66731 0.42879 0.95541 0.0
C322 C 0.65366 0.45343 0.96279 0.0
C323 C 0.58705 0.54347 0.99439 0.0
C324 C 0.46296 0.60376 0.02573 0.0
C325 C 0.48707 0.5859 0.01875 0.0
C326 C 0.50565 0.56922 0.01331 0.0
C327 C 0.5263 0.54809 0.00677 0.0
H328 H 0.37717 0.5876 0.05094 0.0
H329 H 0.41681 0.55746 0.03729 0.0
H330 H 0.47279 0.49885 0.00918 0.0
H331 H 0.69957 0.43725 0.95217 0.0
H332 H 0.67543 0.4807 0.96492 0.0
H333 H 0.61885 0.5561 0.99016 0.0
C334 C 0.61242 0.44258 0.96793 0.0
C335 C 0.59845 0.4671 0.97661 0.0
C336 C 0.58428 0.48587 0.98395 0.0
C337 C 0.56519 0.50693 0.99236 0.0
C338 C 0.19657 0.56476 0.44991 0.0
C339 C 0.21277 0.59811 0.45949 0.0
C340 C 0.15822 0.53892 0.45472 0.0
C341 C 0.99509 0.45015 0.47728 0.0
C342 C 0.77716 0.38945 0.54325 0.0
C343 C 0.75403 0.35336 0.53928 0.0
C344 C 0.81605 0.40661 0.53554 0.0
C345 C 0.97653 0.46791 0.51349 0.0
H346 H 0.21346 0.55867 0.43875 0.0
H347 H 0.14613 0.51337 0.44721 0.0
H348 H 1.00185 0.44321 0.46321 0.0
H349 H 0.76566 0.40409 0.55273 0.0
H350 H 0.83393 0.43437 0.53902 0.0
H351 H 0.96963 0.47515 0.52748 0.0
C352 C 0.18984 0.60508 0.47388 0.0
C353 C 0.15185 0.57924 0.47873 0.0
C354 C 0.01535 0.48734 0.50622 0.0
C355 C 0.76981 0.33466 0.52735 0.0
C356 C 0.80847 0.35192 0.51944 0.0
C357 C 0.95624 0.43069 0.48457 0.0
C358 C 0.13593 0.54609 0.46923 0.0
C359 C 0.09681 0.51977 0.47463 0.0
C360 C 0.06395 0.49991 0.48032 0.0
C361 C 0.02465 0.47866 0.48805 0.0
H362 H 0.20153 0.63034 0.48167 0.0
H363 H 0.13501 0.58513 0.49001 0.0
H364 H 0.03788 0.50937 0.51468 0.0
H365 H 0.75238 0.30671 0.52429 0.0
H366 H 0.82032 0.33713 0.51026 0.0
H367 H 0.9335 0.40893 0.47603 0.0
C368 C 0.83187 0.38787 0.52367 0.0
C369 C 0.87233 0.40543 0.51608 0.0
C370 C 0.90626 0.42062 0.50988 0.0
C371 C 0.94676 0.43969 0.50264 0.0
C372 C 0.63405 0.18489 0.97821 0.0
C373 C 0.64608 0.19325 0.95963 0.0
C374 C 0.61434 0.15006 0.98281 0.0
C375 C 0.52978 0.02826 0.00763 0.0
C376 C 0.45408 0.81375 0.03296 0.0
C377 C 0.44872 0.8106 0.05248 0.0
C378 C 0.46886 0.84654 0.02544 0.0
C379 C 0.52719 0.96529 0.99152 0.0
H380 H 0.63885 0.20529 0.98915 0.0
H381 H 0.60456 0.14428 0.99714 0.0
H382 H 0.53115 0.05263 0.01409 0.0
H383 H 0.44569 0.7907 0.0234 0.0
H384 H 0.47184 0.84826 0.0103 0.0
H385 H 0.52668 0.9411 0.98523 0.0
C386 C 0.63942 0.16596 0.94588 0.0
C387 C 0.61947 0.13092 0.95053 0.0
C388 C 0.54299 0.99549 0.98139 0.0
C389 C 0.46001 0.84107 0.06445 0.0
C390 C 0.47456 0.87401 0.05684 0.0
C391 C 0.51402 0.99806 0.01777 0.0
C392 C 0.60633 0.123 0.96895 0.0
C393 C 0.584 0.08736 0.9739 0.0
C394 C 0.56519 0.05907 0.98009 0.0
C395 C 0.54494 0.02716 0.98955 0.0
H396 H 0.64801 0.1716 0.93142 0.0
H397 H 0.61353 0.11013 0.93969 0.0
H398 H 0.55462 0.99432 0.96743 0.0
H399 H 0.45569 0.83933 0.07951 0.0
H400 H 0.48182 0.8972 0.06615 0.0
H401 H 0.50327 0.99942 0.0319 0.0
C402 C 0.47826 0.87666 0.03728 0.0
C403 C 0.49044 0.90985 0.02904 0.0
C404 C 0.50031 0.93623 0.02073 0.0
C405 C 0.51338 0.96667 0.00985 0.0
C406 C 0.57011 0.39071 0.54836 0.0
C407 C 0.61031 0.40244 0.5563 0.0
C408 C 0.55277 0.41425 0.54557 0.0
C409 C 0.4824 0.49705 0.52643 0.0
C410 C 0.44273 0.65985 0.47437 0.0
C411 C 0.39992 0.65012 0.47469 0.0
C412 C 0.46015 0.64074 0.48379 0.0
C413 C 0.52394 0.57029 0.52899 0.0
H414 H 0.55216 0.36334 0.54397 0.0
H415 H 0.52214 0.40467 0.53906 0.0
H416 H 0.46624 0.46871 0.52517 0.0
H417 H 0.46276 0.68223 0.46688 0.0
H418 H 0.4932 0.64867 0.48342 0.0
H419 H 0.54044 0.59861 0.52992 0.0
C420 C 0.63224 0.43819 0.56193 0.0
C421 C 0.61473 0.4618 0.55911 0.0
C422 C 0.54211 0.55018 0.53681 0.0
C423 C 0.37494 0.62084 0.48456 0.0
C424 C 0.39236 0.60162 0.49381 0.0
C425 C 0.46424 0.51716 0.51861 0.0
C426 C 0.57516 0.44991 0.5507 0.0
C427 C 0.55803 0.47417 0.54631 0.0
C428 C 0.54151 0.49267 0.54214 0.0
C429 C 0.52155 0.5135 0.53541 0.0
H430 H 0.66315 0.44804 0.56812 0.0
H431 H 0.6324 0.48938 0.56313 0.0
H432 H 0.57246 0.56323 0.54364 0.0
H433 H 0.3418 0.61236 0.48484 0.0
H434 H 0.37249 0.57892 0.50114 0.0
H435 H 0.43424 0.50408 0.51146 0.0
C436 C 0.43499 0.61152 0.49348 0.0
C437 C 0.45272 0.59139 0.50289 0.0
C438 C 0.46739 0.57444 0.51079 0.0
C439 C 0.48514 0.55382 0.51971 0.0
C440 C 0.23351 0.60104 0.0415 0.0
C441 C 0.24695 0.60943 0.06056 0.0
C442 C 0.19371 0.57588 0.03664 0.0
C443 C 0.04286 0.4762 0.01503 0.0
C444 C 0.78191 0.35486 0.99356 0.0
C445 C 0.78017 0.36039 0.97425 0.0
C446 C 0.81931 0.37118 1.00399 0.0
C447 C 0.97628 0.4602 0.03906 0.0
H448 H 0.25364 0.61396 0.03027 0.0
H449 H 0.18397 0.57002 0.02189 0.0
H450 H 0.06836 0.48247 1.00556 0.0
H451 H 0.75438 0.33826 1.00065 0.0
H452 H 0.82004 0.3669 0.01887 0.0
H453 H 0.95069 0.45443 0.04843 0.0
C454 C 0.21973 0.59173 0.07463 0.0
C455 C 0.17976 0.56662 0.06972 0.0
C456 C 0.01643 0.48169 0.04583 0.0
C457 C 0.81665 0.38254 0.96568 0.0
C458 C 0.85388 0.39847 0.97604 0.0
C459 C 1.00274 0.45472 0.00827 0.0
C460 C 0.16665 0.55878 0.05073 0.0
C461 C 0.1252 0.53386 0.04557 0.0
C462 C 0.09084 0.51324 0.0405 0.0
C463 C 0.04978 0.48987 0.0338 0.0
H464 H 0.22905 0.59763 0.08942 0.0
H465 H 0.15901 0.55359 0.08075 0.0
H466 H 0.02137 0.49224 0.06035 0.0
H467 H 0.81664 0.38775 0.95093 0.0
H468 H 0.88153 0.41531 0.96908 0.0
H469 H 0.99775 0.44469 0.99365 0.0
C470 C 0.85535 0.39297 0.99521 0.0
C471 C 0.89401 0.41033 1.00566 0.0
C472 C 0.92792 0.42617 0.01293 0.0
C473 C 0.96933 0.4468 0.02024 0.0
C474 C 0.61365 0.17898 0.56408 0.0
C475 C 0.62638 0.20608 0.55153 0.0
C476 C 0.59591 0.14376 0.55716 0.0
C477 C 0.51701 0.00549 0.52283 0.0
C478 C 0.43522 0.82328 0.44435 0.0
C479 C 0.42 0.79723 0.45747 0.0
C480 C 0.45331 0.85893 0.45054 0.0
C481 C 0.52233 0.99946 0.48356 0.0
H482 H 0.61617 0.18494 0.57918 0.0
H483 H 0.58547 0.12324 0.56703 0.0
H484 H 0.51484 0.00746 0.53802 0.0
H485 H 0.43204 0.81619 0.42935 0.0
H486 H 0.4641 0.87865 0.44024 0.0
H487 H 0.52471 0.99748 0.46838 0.0
C488 C 0.62213 0.19714 0.53198 0.0
C489 C 0.60461 0.16209 0.52514 0.0
C490 C 0.53905 0.03259 0.49319 0.0
C491 C 0.42443 0.80764 0.47686 0.0
C492 C 0.44251 0.84306 0.48297 0.0
C493 C 0.50029 0.97236 0.5132 0.0
C494 C 0.59093 0.13524 0.53765 0.0
C495 C 0.57121 0.0992 0.53024 0.0
C496 C 0.55512 0.06991 0.52277 0.0
C497 C 0.53673 0.03573 0.51287 0.0
H498 H 0.63167 0.21726 0.52189 0.0
H499 H 0.60115 0.15598 0.51003 0.0
H500 H 0.55408 0.05572 0.48529 0.0
H501 H 0.41326 0.78841 0.48741 0.0
H502 H 0.44493 0.85026 0.49796 0.0
H503 H 0.48546 0.94922 0.52111 0.0
C504 C 0.45657 0.86888 0.46988 0.0
C505 C 0.47354 0.90535 0.4766 0.0
C506 C 0.48709 0.93487 0.48377 0.0
C507 C 0.50313 0.96919 0.49354 0.0
loop_
_geom_bond_atom_site_label_1
_geom_bond_atom_site_label_2
_geom_bond_distance
_geom_bond_site_symmetry_2
_ccdc_geom_bond_type
Co0 O2 2.143 . S
Co0 O8 2.074 . S
Co0 O11 2.093 . S
Co0 O24 2.097 . S
Co0 N41 2.151 . S
Co0 N49 2.214 . S
Co1 O2 2.160 . S
Co1 O7 2.058 . S
Co1 O17 2.057 . S
Co1 O32 2.037 . S
Co1 N36 2.145 . S
Co1 N57 2.257 . S
O2 Co0 2.143 . S
O2 Co1 2.160 . S
C3 O4 1.278 . S
C3 O11 1.224 . S
O4 C3 1.278 . S
C5 O6 1.245 . S
C5 O17 1.232 . S
O6 C5 1.245 . S
O7 Co1 2.058 . S
O7 C33 1.269 . S
O8 Co0 2.074 . S
O8 C33 1.257 . S
H9 C34 0.930 . S
H10 C40 0.930 . S
O11 Co0 2.093 . S
O11 C3 1.224 . S
H12 C44 0.929 . S
H13 C46 0.930 . S
H14 C47 0.930 . S
H15 C45 0.929 . S
H16 C48 0.928 . S
O17 Co1 2.057 . S
O17 C5 1.232 . S
H18 C37 0.929 . S
H19 C38 0.929 . S
H20 C50 0.931 . S
H21 C42 0.929 . S
H22 C51 0.930 . S
H23 C43 0.931 . S
O24 Co0 2.097 . S
O24 C52 1.214 . S
H25 C53 0.929 . S
H26 C54 0.929 . S
H27 C55 0.930 . S
H28 C56 0.929 . S
H29 C58 0.930 . S
H30 C35 0.930 . S
H31 C39 0.930 . S
O32 Co1 2.037 . S
O32 C52 1.234 . S
C33 O7 1.269 . S
C33 O8 1.257 . S
C34 H9 0.930 . S
C34 C37 1.388 . S
C34 C39 1.418 . S
C35 H30 0.930 . S
C35 C38 1.404 . S
C35 C39 1.353 . S
N36 Co1 2.145 . S
N36 C37 1.397 . S
N36 C38 1.334 . S
C37 H18 0.929 . S
C37 C34 1.388 . S
C37 N36 1.397 . S
C38 H19 0.929 . S
C38 C35 1.404 . S
C38 N36 1.334 . S
C39 H31 0.930 . S
C39 C34 1.418 . S
C39 C35 1.353 . S
C40 H10 0.930 . S
C40 N41 1.330 . S
C40 C42 1.446 . S
N41 Co0 2.151 . S
N41 C40 1.330 . S
N41 C45 1.418 . S
C42 H21 0.929 . S
C42 C40 1.446 . S
C42 C43 1.332 . S
C43 H23 0.931 . S
C43 C42 1.332 . S
C43 C44 1.267 . S
C44 H12 0.929 . S
C44 C43 1.267 . S
C44 C45 1.251 . S
C45 H15 0.929 . S
C45 N41 1.418 . S
C45 C44 1.251 . S
C46 H13 0.930 . S
C46 C48 1.406 1_556 S
C46 C51 1.261 . S
C47 H14 0.930 . S
C47 N49 1.325 . S
C47 C50 1.357 1_554 S
C48 H16 0.928 . S
C48 C46 1.406 1_554 S
C48 N49 1.261 . S
N49 Co0 2.214 . S
N49 C47 1.325 . S
N49 C48 1.261 . S
C50 H20 0.931 . S
C50 C47 1.357 1_556 S
C50 C51 1.312 . S
C51 H22 0.930 . S
C51 C46 1.261 . S
C51 C50 1.312 . S
C52 O24 1.214 . S
C52 O32 1.234 . S
C53 H25 0.929 . S
C53 C56 1.391 . S
C53 C58 1.391 . S
C54 H26 0.929 . S
C54 C55 1.390 . S
C54 N57 1.391 . S
C55 H27 0.930 . S
C55 C54 1.390 . S
C55 C56 1.392 . S
C56 H28 0.929 . S
C56 C53 1.391 . S
C56 C55 1.392 . S
N57 Co1 2.257 . S
N57 C54 1.391 . S
N57 C58 1.388 . S
C58 H29 0.930 . S
C58 C53 1.391 . S
C58 N57 1.388 . S
Co59 O61 2.143 . S
Co59 O67 2.074 . S
Co59 O70 2.093 . S
Co59 O83 2.097 . S
Co59 N100 2.151 . S
Co59 N108 2.214 . S
Co60 O61 2.160 . S
Co60 O66 2.058 . S
Co60 O76 2.057 . S
Co60 O91 2.037 . S
Co60 N95 2.145 . S
Co60 N116 2.257 . S
O61 Co59 2.143 . S
O61 Co60 2.160 . S
C62 O63 1.278 . S
C62 O70 1.224 . S
O63 C62 1.278 . S
C64 O65 1.245 . S
C64 O76 1.232 . S
O65 C64 1.245 . S
O66 Co60 2.058 . S
O66 C92 1.269 . S
O67 Co59 2.074 . S
O67 C92 1.257 . S
H68 C93 0.930 . S
H69 C99 0.930 . S
O70 Co59 2.093 . S
O70 C62 1.224 . S
H71 C103 0.929 . S
H72 C105 0.930 . S
H73 C106 0.930 . S
H74 C104 0.929 . S
H75 C107 0.928 . S
O76 Co60 2.057 . S
O76 C64 1.232 . S
H77 C96 0.929 . S
H78 C97 0.929 . S
H79 C109 0.931 . S
H80 C101 0.929 . S
H81 C110 0.930 . S
H82 C102 0.931 . S
O83 Co59 2.097 . S
O83 C111 1.214 . S
H84 C112 0.929 . S
H85 C113 0.929 . S
H86 C114 0.930 . S
H87 C115 0.929 . S
H88 C117 0.930 . S
H89 C94 0.930 . S
H90 C98 0.930 . S
O91 Co60 2.037 . S
O91 C111 1.234 . S
C92 O66 1.269 . S
C92 O67 1.257 . S
C93 H68 0.930 . S
C93 C96 1.388 . S
C93 C98 1.418 . S
C94 H89 0.930 . S
C94 C97 1.404 . S
C94 C98 1.353 . S
N95 Co60 2.145 . S
N95 C96 1.397 . S
N95 C97 1.334 . S
C96 H77 0.929 . S
C96 C93 1.388 . S
C96 N95 1.397 . S
C97 H78 0.929 . S
C97 C94 1.404 . S
C97 N95 1.334 . S
C98 H90 0.930 . S
C98 C93 1.418 . S
C98 C94 1.353 . S
C99 H69 0.930 . S
C99 N100 1.330 . S
C99 C101 1.446 . S
N100 Co59 2.151 . S
N100 C99 1.330 . S
N100 C104 1.418 . S
C101 H80 0.929 . S
C101 C99 1.446 . S
C101 C102 1.332 . S
C102 H82 0.931 . S
C102 C101 1.332 . S
C102 C103 1.267 . S
C103 H71 0.929 . S
C103 C102 1.267 . S
C103 C104 1.251 . S
C104 H74 0.929 . S
C104 N100 1.418 . S
C104 C103 1.251 . S
C105 H72 0.930 . S
C105 C107 1.406 . S
C105 C110 1.261 . S
C106 H73 0.930 . S
C106 N108 1.325 . S
C106 C109 1.357 . S
C107 H75 0.928 . S
C107 C105 1.406 . S
C107 N108 1.261 . S
N108 Co59 2.214 . S
N108 C106 1.325 . S
N108 C107 1.261 . S
C109 H79 0.931 . S
C109 C106 1.357 . S
C109 C110 1.312 . S
C110 H81 0.930 . S
C110 C105 1.261 . S
C110 C109 1.312 . S
C111 O83 1.214 . S
C111 O91 1.234 . S
C112 H84 0.929 . S
C112 C115 1.391 . S
C112 C117 1.391 . S
C113 H85 0.929 . S
C113 C114 1.390 . S
C113 N116 1.391 . S
C114 H86 0.930 . S
C114 C113 1.390 . S
C114 C115 1.392 . S
C115 H87 0.929 . S
C115 C112 1.391 . S
C115 C114 1.392 . S
N116 Co60 2.257 . S
N116 C113 1.391 . S
N116 C117 1.388 . S
C117 H88 0.930 . S
C117 C112 1.391 . S
C117 N116 1.388 . S
Co118 O120 2.143 . S
Co118 O126 2.074 . S
Co118 O129 2.093 . S
Co118 O142 2.097 . S
Co118 N159 2.151 . S
Co118 N167 2.214 . S
Co119 O120 2.160 . S
Co119 O125 2.058 . S
Co119 O135 2.057 . S
Co119 O150 2.037 . S
Co119 N154 2.145 . S
Co119 N175 2.257 . S
O120 Co118 2.143 . S
O120 Co119 2.160 . S
C121 O122 1.278 . S
C121 O129 1.224 . S
O122 C121 1.278 . S
C123 O124 1.245 . S
C123 O135 1.232 . S
O124 C123 1.245 . S
O125 Co119 2.058 . S
O125 C151 1.269 . S
O126 Co118 2.074 . S
O126 C151 1.257 . S
H127 C152 0.930 . S
H128 C158 0.930 . S
O129 Co118 2.093 . S
O129 C121 1.224 . S
H130 C162 0.929 . S
H131 C164 0.930 . S
H132 C165 0.930 . S
H133 C163 0.929 . S
H134 C166 0.928 . S
O135 Co119 2.057 . S
O135 C123 1.232 . S
H136 C155 0.929 . S
H137 C156 0.929 . S
H138 C168 0.931 . S
H139 C160 0.929 . S
H140 C169 0.930 . S
H141 C161 0.931 . S
O142 Co118 2.097 . S
O142 C170 1.214 . S
H143 C171 0.929 . S
H144 C172 0.929 . S
H145 C173 0.930 . S
H146 C174 0.929 . S
H147 C176 0.930 . S
H148 C153 0.930 . S
H149 C157 0.930 . S
O150 Co119 2.037 . S
O150 C170 1.234 . S
C151 O125 1.269 . S
C151 O126 1.257 . S
C152 H127 0.930 . S
C152 C155 1.388 . S
C152 C157 1.418 . S
C153 H148 0.930 . S
C153 C156 1.404 . S
C153 C157 1.353 . S
N154 Co119 2.145 . S
N154 C155 1.397 . S
N154 C156 1.334 . S
C155 H136 0.929 . S
C155 C152 1.388 . S
C155 N154 1.397 . S
C156 H137 0.929 . S
C156 C153 1.404 . S
C156 N154 1.334 . S
C157 H149 0.930 . S
C157 C152 1.418 . S
C157 C153 1.353 . S
C158 H128 0.930 . S
C158 N159 1.330 . S
C158 C160 1.446 . S
N159 Co118 2.151 . S
N159 C158 1.330 . S
N159 C163 1.418 . S
C160 H139 0.929 . S
C160 C158 1.446 . S
C160 C161 1.332 . S
C161 H141 0.931 . S
C161 C160 1.332 . S
C161 C162 1.267 . S
C162 H130 0.929 . S
C162 C161 1.267 . S
C162 C163 1.251 . S
C163 H133 0.929 . S
C163 N159 1.418 . S
C163 C162 1.251 . S
C164 H131 0.930 . S
C164 C166 1.406 . S
C164 C169 1.261 . S
C165 H132 0.930 . S
C165 N167 1.325 . S
C165 C168 1.357 . S
C166 H134 0.928 . S
C166 C164 1.406 . S
C166 N167 1.261 . S
N167 Co118 2.214 . S
N167 C165 1.325 . S
N167 C166 1.261 . S
C168 H138 0.931 . S
C168 C165 1.357 . S
C168 C169 1.312 . S
C169 H140 0.930 . S
C169 C164 1.261 . S
C169 C168 1.312 . S
C170 O142 1.214 . S
C170 O150 1.234 . S
C171 H143 0.929 . S
C171 C174 1.391 . S
C171 C176 1.391 . S
C172 H144 0.929 . S
C172 C173 1.390 . S
C172 N175 1.391 . S
C173 H145 0.930 . S
C173 C172 1.390 . S
C173 C174 1.392 . S
C174 H146 0.929 . S
C174 C171 1.391 . S
C174 C173 1.392 . S
N175 Co119 2.257 . S
N175 C172 1.391 . S
N175 C176 1.388 . S
C176 H147 0.930 . S
C176 C171 1.391 . S
C176 N175 1.388 . S
Co177 O179 2.143 . S
Co177 O185 2.074 . S
Co177 O188 2.093 . S
Co177 O201 2.097 . S
Co177 N218 2.151 . S
Co177 N226 2.214 . S
Co178 O179 2.160 . S
Co178 O184 2.058 . S
Co178 O194 2.057 . S
Co178 O209 2.037 . S
Co178 N213 2.145 . S
Co178 N234 2.257 . S
O179 Co177 2.143 . S
O179 Co178 2.160 . S
C180 O181 1.278 . S
C180 O188 1.224 . S
O181 C180 1.278 . S
C182 O183 1.245 . S
C182 O194 1.232 . S
O183 C182 1.245 . S
O184 Co178 2.058 . S
O184 C210 1.269 . S
O185 Co177 2.074 . S
O185 C210 1.257 . S
H186 C211 0.930 . S
H187 C217 0.930 . S
O188 Co177 2.093 . S
O188 C180 1.224 . S
H189 C221 0.929 . S
H190 C223 0.930 . S
H191 C224 0.930 . S
H192 C222 0.929 . S
H193 C225 0.928 . S
O194 Co178 2.057 . S
O194 C182 1.232 . S
H195 C214 0.929 . S
H196 C215 0.929 . S
H197 C227 0.931 . S
H198 C219 0.929 . S
H199 C228 0.930 . S
H200 C220 0.931 . S
O201 Co177 2.097 . S
O201 C229 1.214 . S
H202 C230 0.929 . S
H203 C231 0.929 . S
H204 C232 0.930 . S
H205 C233 0.929 . S
H206 C235 0.930 . S
H207 C212 0.930 . S
H208 C216 0.930 . S
O209 Co178 2.037 . S
O209 C229 1.234 . S
C210 O184 1.269 . S
C210 O185 1.257 . S
C211 H186 0.930 . S
C211 C214 1.388 . S
C211 C216 1.418 . S
C212 H207 0.930 . S
C212 C215 1.404 . S
C212 C216 1.353 . S
N213 Co178 2.145 . S
N213 C214 1.397 . S
N213 C215 1.334 . S
C214 H195 0.929 . S
C214 C211 1.388 . S
C214 N213 1.397 . S
C215 H196 0.929 . S
C215 C212 1.404 . S
C215 N213 1.334 . S
C216 H208 0.930 . S
C216 C211 1.418 . S
C216 C212 1.353 . S
C217 H187 0.930 . S
C217 N218 1.330 . S
C217 C219 1.446 . S
N218 Co177 2.151 . S
N218 C217 1.330 . S
N218 C222 1.418 . S
C219 H198 0.929 . S
C219 C217 1.446 . S
C219 C220 1.332 . S
C220 H200 0.931 . S
C220 C219 1.332 . S
C220 C221 1.267 . S
C221 H189 0.929 . S
C221 C220 1.267 . S
C221 C222 1.251 . S
C222 H192 0.929 . S
C222 N218 1.418 . S
C222 C221 1.251 . S
C223 H190 0.930 . S
C223 C225 1.406 1_554 S
C223 C228 1.261 . S
C224 H191 0.930 . S
C224 N226 1.325 . S
C224 C227 1.357 1_556 S
C225 H193 0.928 . S
C225 C223 1.406 1_556 S
C225 N226 1.261 . S
N226 Co177 2.214 . S
N226 C224 1.325 . S
N226 C225 1.261 . S
C227 H197 0.931 . S
C227 C224 1.357 1_554 S
C227 C228 1.312 . S
C228 H199 0.930 . S
C228 C223 1.261 . S
C228 C227 1.312 . S
C229 O201 1.214 . S
C229 O209 1.234 . S
C230 H202 0.929 . S
C230 C233 1.391 . S
C230 C235 1.391 . S
C231 H203 0.929 . S
C231 C232 1.390 . S
C231 N234 1.391 . S
C232 H204 0.930 . S
C232 C231 1.390 . S
C232 C233 1.392 . S
C233 H205 0.929 . S
C233 C230 1.391 . S
C233 C232 1.392 . S
N234 Co178 2.257 . S
N234 C231 1.391 . S
N234 C235 1.388 . S
C235 H206 0.930 . S
C235 C230 1.391 . S
C235 N234 1.388 . S
C236 C237 1.420 . S
C236 C238 1.385 . S
C236 H244 0.928 . S
C237 C236 1.420 . S
C237 C250 1.420 . S
C238 C236 1.385 . S
C238 H245 0.929 . S
C238 C256 1.407 . S
C239 H246 0.928 . S
C239 C255 1.374 . S
C239 C259 1.388 . S
C240 C241 1.420 . S
C240 C242 1.385 . S
C240 H247 0.928 . S
C241 C240 1.420 . S
C241 C253 1.420 . S
C242 C240 1.385 . S
C242 H248 0.929 . S
C242 C266 1.407 . S
C243 H249 0.928 . S
C243 C252 1.374 . S
C243 C269 1.388 . S
H244 C236 0.928 . S
H245 C238 0.929 . S
H246 C239 0.928 . S
H247 C240 0.928 . S
H248 C242 0.929 . S
H249 C243 0.928 . S
C250 C237 1.420 . S
C250 C251 1.385 . S
C250 H260 0.928 . S
C251 C250 1.385 . S
C251 C256 1.407 . S
C251 H261 0.929 . S
C252 C243 1.374 . S
C252 C259 1.388 . S
C252 H262 0.928 . S
C253 C241 1.420 . S
C253 C254 1.385 . S
C253 H263 0.928 . S
C254 C253 1.385 . S
C254 H264 0.929 . S
C254 C266 1.407 . S
C255 C239 1.374 . S
C255 H265 0.928 . S
C255 C269 1.388 . S
C256 C238 1.407 . S
C256 C251 1.407 . S
C256 C257 1.428 . S
C257 C256 1.428 . S
C257 C258 1.230 . S
C258 C257 1.230 . S
C258 C259 1.405 . S
C259 C239 1.388 . S
C259 C252 1.388 . S
C259 C258 1.405 . S
H260 C250 0.928 . S
H261 C251 0.929 . S
H262 C252 0.928 . S
H263 C253 0.928 . S
H264 C254 0.929 . S
H265 C255 0.928 . S
C266 C242 1.407 . S
C266 C254 1.407 . S
C266 C267 1.428 . S
C267 C266 1.428 . S
C267 C268 1.230 . S
C268 C267 1.230 . S
C268 C269 1.405 . S
C269 C243 1.388 . S
C269 C255 1.388 . S
C269 C268 1.405 . S
C270 C271 1.420 . S
C270 C272 1.385 . S
C270 H278 0.928 . S
C271 C270 1.420 . S
C271 C284 1.420 . S
C272 C270 1.385 . S
C272 H279 0.929 . S
C272 C290 1.407 . S
C273 H280 0.928 . S
C273 C289 1.374 . S
C273 C293 1.388 . S
C274 C275 1.420 . S
C274 C276 1.385 . S
C274 H281 0.928 . S
C275 C274 1.420 . S
C275 C287 1.420 . S
C276 C274 1.385 . S
C276 H282 0.929 . S
C276 C300 1.407 . S
C277 H283 0.928 . S
C277 C286 1.374 . S
C277 C303 1.388 . S
H278 C270 0.928 . S
H279 C272 0.929 . S
H280 C273 0.928 . S
H281 C274 0.928 . S
H282 C276 0.929 . S
H283 C277 0.928 . S
C284 C271 1.420 . S
C284 C285 1.385 . S
C284 H294 0.928 . S
C285 C284 1.385 . S
C285 C290 1.407 . S
C285 H295 0.929 . S
C286 C277 1.374 . S
C286 C293 1.388 . S
C286 H296 0.928 . S
C287 C275 1.420 . S
C287 C288 1.385 . S
C287 H297 0.928 . S
C288 C287 1.385 . S
C288 H298 0.929 . S
C288 C300 1.407 . S
C289 C273 1.374 . S
C289 H299 0.928 . S
C289 C303 1.388 . S
C290 C272 1.407 . S
C290 C285 1.407 . S
C290 C291 1.428 . S
C291 C290 1.428 . S
C291 C292 1.230 . S
C292 C291 1.230 . S
C292 C293 1.405 . S
C293 C273 1.388 . S
C293 C286 1.388 . S
C293 C292 1.405 . S
H294 C284 0.928 . S
H295 C285 0.929 . S
H296 C286 0.928 . S
H297 C287 0.928 . S
H298 C288 0.929 . S
H299 C289 0.928 . S
C300 C276 1.407 . S
C300 C288 1.407 . S
C300 C301 1.428 . S
C301 C300 1.428 . S
C301 C302 1.230 . S
C302 C301 1.230 . S
C302 C303 1.405 . S
C303 C277 1.388 . S
C303 C289 1.388 . S
C303 C302 1.405 . S
C304 C305 1.420 . S
C304 C306 1.385 . S
C304 H312 0.928 . S
C305 C304 1.420 . S
C305 C318 1.420 . S
C306 C304 1.385 . S
C306 H313 0.929 . S
C306 C324 1.407 . S
C307 H314 0.928 . S
C307 C323 1.360 1_554 S
C307 C327 1.388 . S
C308 C309 1.420 . S
C308 C310 1.385 . S
C308 H315 0.928 . S
C309 C308 1.420 . S
C309 C321 1.420 . S
C310 C308 1.385 . S
C310 H316 0.929 . S
C310 C334 1.407 . S
C311 H317 0.928 . S
C311 C320 1.374 . S
C311 C337 1.388 1_554 S
H312 C304 0.928 . S
H313 C306 0.929 . S
H314 C307 0.928 . S
H315 C308 0.928 . S
H316 C310 0.929 . S
H317 C311 0.928 . S
C318 C305 1.420 . S
C318 C319 1.385 . S
C318 H328 0.928 . S
C319 C318 1.385 . S
C319 C324 1.407 . S
C319 H329 0.929 . S
C320 C311 1.374 . S
C320 C327 1.388 . S
C320 H330 0.928 . S
C321 C309 1.420 . S
C321 C322 1.385 . S
C321 H331 0.928 . S
C322 C321 1.385 . S
C322 H332 0.929 . S
C322 C334 1.407 . S
C323 C307 1.360 1_556 S
C323 H333 0.941 . S
C323 C337 1.390 . S
C324 C306 1.407 . S
C324 C319 1.407 . S
C324 C325 1.428 . S
C325 C324 1.428 . S
C325 C326 1.230 . S
C326 C325 1.230 . S
C326 C327 1.405 . S
C327 C307 1.388 . S
C327 C320 1.388 . S
C327 C326 1.405 . S
H328 C318 0.928 . S
H329 C319 0.929 . S
H330 C320 0.928 . S
H331 C321 0.928 . S
H332 C322 0.929 . S
H333 C323 0.941 . S
C334 C310 1.407 . S
C334 C322 1.407 . S
C334 C335 1.428 . S
C335 C334 1.428 . S
C335 C336 1.230 . S
C336 C335 1.230 . S
C336 C337 1.405 . S
C337 C311 1.388 1_556 S
C337 C323 1.390 . S
C337 C336 1.405 . S
C338 C339 1.420 . S
C338 C340 1.385 . S
C338 H346 0.928 . S
C339 C338 1.420 . S
C339 C352 1.420 . S
C340 C338 1.385 . S
C340 H347 0.929 . S
C340 C358 1.407 . S
C341 H348 0.928 1_655 S
C341 C357 1.374 . S
C341 C361 1.388 1_655 S
C342 C343 1.420 . S
C342 C344 1.385 . S
C342 H349 0.928 . S
C343 C342 1.420 . S
C343 C355 1.420 . S
C344 C342 1.385 . S
C344 H350 0.929 . S
C344 C368 1.407 . S
C345 H351 0.928 . S
C345 C354 1.374 1_655 S
C345 C371 1.388 . S
H346 C338 0.928 . S
H347 C340 0.929 . S
H348 C341 0.928 1_455 S
H349 C342 0.928 . S
H350 C344 0.929 . S
H351 C345 0.928 . S
C352 C339 1.420 . S
C352 C353 1.385 . S
C352 H362 0.928 . S
C353 C352 1.385 . S
C353 C358 1.407 . S
C353 H363 0.929 . S
C354 C345 1.374 1_455 S
C354 C361 1.388 . S
C354 H364 0.928 . S
C355 C343 1.420 . S
C355 C356 1.385 . S
C355 H365 0.928 . S
C356 C355 1.385 . S
C356 H366 0.929 . S
C356 C368 1.407 . S
C357 C341 1.374 . S
C357 H367 0.928 . S
C357 C371 1.388 . S
C358 C340 1.407 . S
C358 C353 1.407 . S
C358 C359 1.428 . S
C359 C358 1.428 . S
C359 C360 1.230 . S
C360 C359 1.230 . S
C360 C361 1.405 . S
C361 C341 1.388 1_455 S
C361 C354 1.388 . S
C361 C360 1.405 . S
H362 C352 0.928 . S
H363 C353 0.929 . S
H364 C354 0.928 . S
H365 C355 0.928 . S
H366 C356 0.929 . S
H367 C357 0.928 . S
C368 C344 1.407 . S
C368 C356 1.407 . S
C368 C369 1.428 . S
C369 C368 1.428 . S
C369 C370 1.230 . S
C370 C369 1.230 . S
C370 C371 1.405 . S
C371 C345 1.388 . S
C371 C357 1.388 . S
C371 C370 1.405 . S
C372 C373 1.420 . S
C372 C374 1.385 . S
C372 H380 0.928 . S
C373 C372 1.420 . S
C373 C386 1.420 . S
C374 C372 1.385 . S
C374 H381 0.929 . S
C374 C392 1.407 . S
C375 H382 0.928 . S
C375 C391 1.374 1_545 S
C375 C395 1.388 1_554 S
C376 C377 1.420 . S
C376 C378 1.385 . S
C376 H383 0.928 . S
C377 C376 1.420 . S
C377 C389 1.420 . S
C378 C376 1.385 . S
C378 H384 0.929 . S
C378 C402 1.407 . S
C379 H385 0.928 . S
C379 C388 1.374 . S
C379 C405 1.388 1_556 S
H380 C372 0.928 . S
H381 C374 0.929 . S
H382 C375 0.928 . S
H383 C376 0.928 . S
H384 C378 0.929 . S
H385 C379 0.928 . S
C386 C373 1.420 . S
C386 C387 1.385 . S
C386 H396 0.928 . S
C387 C386 1.385 . S
C387 C392 1.407 . S
C387 H397 0.929 . S
C388 C379 1.374 . S
C388 C395 1.388 1_565 S
C388 H398 0.928 . S
C389 C377 1.420 . S
C389 C390 1.385 . S
C389 H399 0.928 . S
C390 C389 1.385 . S
C390 H400 0.929 . S
C390 C402 1.407 . S
C391 C375 1.374 1_565 S
C391 H401 0.928 . S
C391 C405 1.388 . S
C392 C374 1.407 . S
C392 C387 1.407 . S
C392 C393 1.428 . S
C393 C392 1.428 . S
C393 C394 1.230 . S
C394 C393 1.230 . S
C394 C395 1.405 . S
C395 C375 1.388 1_556 S
C395 C388 1.388 1_545 S
C395 C394 1.405 . S
H396 C386 0.928 . S
H397 C387 0.929 . S
H398 C388 0.928 . S
H399 C389 0.928 . S
H400 C390 0.929 . S
H401 C391 0.928 . S
C402 C378 1.407 . S
C402 C390 1.407 . S
C402 C403 1.428 . S
C403 C402 1.428 . S
C403 C404 1.230 . S
C404 C403 1.230 . S
C404 C405 1.405 . S
C405 C379 1.388 1_554 S
C405 C391 1.388 . S
C405 C404 1.405 . S
C406 C407 1.420 . S
C406 C408 1.385 . S
C406 H414 0.928 . S
C407 C406 1.420 . S
C407 C420 1.420 . S
C408 C406 1.385 . S
C408 H415 0.929 . S
C408 C426 1.407 . S
C409 H416 0.928 . S
C409 C425 1.374 . S
C409 C429 1.388 . S
C410 C411 1.420 . S
C410 C412 1.385 . S
C410 H417 0.928 . S
C411 C410 1.420 . S
C411 C423 1.420 . S
C412 C410 1.385 . S
C412 H418 0.929 . S
C412 C436 1.407 . S
C413 H419 0.928 . S
C413 C422 1.374 . S
C413 C439 1.388 . S
H414 C406 0.928 . S
H415 C408 0.929 . S
H416 C409 0.928 . S
H417 C410 0.928 . S
H418 C412 0.929 . S
H419 C413 0.928 . S
C420 C407 1.420 . S
C420 C421 1.385 . S
C420 H430 0.928 . S
C421 C420 1.385 . S
C421 C426 1.407 . S
C421 H431 0.929 . S
C422 C413 1.374 . S
C422 C429 1.388 . S
C422 H432 0.928 . S
C423 C411 1.420 . S
C423 C424 1.385 . S
C423 H433 0.928 . S
C424 C423 1.385 . S
C424 H434 0.929 . S
C424 C436 1.407 . S
C425 C409 1.374 . S
C425 H435 0.928 . S
C425 C439 1.388 . S
C426 C408 1.407 . S
C426 C421 1.407 . S
C426 C427 1.428 . S
C427 C426 1.428 . S
C427 C428 1.230 . S
C428 C427 1.230 . S
C428 C429 1.405 . S
C429 C409 1.388 . S
C429 C422 1.388 . S
C429 C428 1.405 . S
H430 C420 0.928 . S
H431 C421 0.929 . S
H432 C422 0.928 . S
H433 C423 0.928 . S
H434 C424 0.929 . S
H435 C425 0.928 . S
C436 C412 1.407 . S
C436 C424 1.407 . S
C436 C437 1.428 . S
C437 C436 1.428 . S
C437 C438 1.230 . S
C438 C437 1.230 . S
C438 C439 1.405 . S
C439 C413 1.388 . S
C439 C425 1.388 . S
C439 C438 1.405 . S
C440 C441 1.420 . S
C440 C442 1.385 . S
C440 H448 0.928 . S
C441 C440 1.420 . S
C441 C454 1.420 . S
C442 C440 1.385 . S
C442 H449 0.929 . S
C442 C460 1.407 . S
C443 H450 0.928 1_554 S
C443 C459 1.374 1_554 S
C443 C463 1.388 . S
C444 C445 1.420 . S
C444 C446 1.385 . S
C444 H451 0.928 . S
C445 C444 1.420 . S
C445 C457 1.420 . S
C446 C444 1.385 . S
C446 H452 0.929 1_556 S
C446 C470 1.407 . S
C447 H453 0.928 . S
C447 C456 1.374 1_655 S
C447 C473 1.388 . S
H448 C440 0.928 . S
H449 C442 0.929 . S
H450 C443 0.928 1_556 S
H451 C444 0.928 . S
H452 C446 0.929 1_554 S
H453 C447 0.928 . S
C454 C441 1.420 . S
C454 C455 1.385 . S
C454 H464 0.928 . S
C455 C454 1.385 . S
C455 C460 1.407 . S
C455 H465 0.929 . S
C456 C447 1.374 1_455 S
C456 C463 1.388 . S
C456 H466 0.928 . S
C457 C445 1.420 . S
C457 C458 1.385 . S
C457 H467 0.928 . S
C458 C457 1.385 . S
C458 H468 0.929 . S
C458 C470 1.407 . S
C459 C443 1.374 1_556 S
C459 H469 0.929 1_455 S
C459 C473 1.388 1_456 S
C460 C442 1.407 . S
C460 C455 1.407 . S
C460 C461 1.428 . S
C461 C460 1.428 . S
C461 C462 1.230 . S
C462 C461 1.230 . S
C462 C463 1.405 . S
C463 C443 1.388 . S
C463 C456 1.388 . S
C463 C462 1.405 . S
H464 C454 0.928 . S
H465 C455 0.929 . S
H466 C456 0.928 . S
H467 C457 0.928 . S
H468 C458 0.929 . S
H469 C459 0.929 1_655 S
C470 C446 1.407 . S
C470 C458 1.407 . S
C470 C471 1.428 . S
C471 C470 1.428 . S
C471 C472 1.230 . S
C472 C471 1.230 . S
C472 C473 1.405 1_556 S
C473 C447 1.388 . S
C473 C459 1.388 1_654 S
C473 C472 1.405 1_554 S
C474 C475 1.420 . S
C474 C476 1.385 . S
C474 H482 0.928 . S
C475 C474 1.420 . S
C475 C488 1.420 . S
C476 C474 1.385 . S
C476 H483 0.929 . S
C476 C494 1.407 . S
C477 H484 0.928 . S
C477 C493 1.374 1_545 S
C477 C497 1.388 . S
C478 C479 1.420 . S
C478 C480 1.385 . S
C478 H485 0.928 . S
C479 C478 1.420 . S
C479 C491 1.420 . S
C480 C478 1.385 . S
C480 H486 0.929 . S
C480 C504 1.407 . S
C481 H487 0.928 . S
C481 C490 1.374 1_565 S
C481 C507 1.388 . S
H482 C474 0.928 . S
H483 C476 0.929 . S
H484 C477 0.928 . S
H485 C478 0.928 . S
H486 C480 0.929 . S
H487 C481 0.928 . S
C488 C475 1.420 . S
C488 C489 1.385 . S
C488 H498 0.928 . S
C489 C488 1.385 . S
C489 C494 1.407 . S
C489 H499 0.929 . S
C490 C481 1.374 1_545 S
C490 C497 1.388 . S
C490 H500 0.928 . S
C491 C479 1.420 . S
C491 C492 1.385 . S
C491 H501 0.928 . S
C492 C491 1.385 . S
C492 H502 0.929 . S
C492 C504 1.407 . S
C493 C477 1.374 1_565 S
C493 H503 0.928 . S
C493 C507 1.388 . S
C494 C476 1.407 . S
C494 C489 1.407 . S
C494 C495 1.428 . S
C495 C494 1.428 . S
C495 C496 1.230 . S
C496 C495 1.230 . S
C496 C497 1.405 . S
C497 C477 1.388 . S
C497 C490 1.388 . S
C497 C496 1.405 . S
H498 C488 0.928 . S
H499 C489 0.929 . S
H500 C490 0.928 . S
H501 C491 0.928 . S
H502 C492 0.929 . S
H503 C493 0.928 . S
C504 C480 1.407 . S
C504 C492 1.407 . S
C504 C505 1.428 . S
C505 C504 1.428 . S
C505 C506 1.230 . S
C506 C505 1.230 . S
C506 C507 1.405 . S
C507 C481 1.388 . S
C507 C493 1.388 . S
C507 C506 1.405 . S
C237 C5 1.619 . S
C241 C123 1.623 . S
C271 C64 1.616 . S
C275 C182 1.614 . S
C305 C52 1.774 . S
C309 C210 1.786 . S
C339 C121 1.435 . S
C343 C111 1.441 . S
C373 C180 1.270 . S
C377 C3 1.261 . S
C407 C62 1.450 . S
C411 C170 1.443 . S
C441 C33 1.792 . S
C445 C229 1.781 . S
C475 C92 2.032 . S
C479 C151 2.032 . S
