# Generated by pormake.
# Topology whw, (6)-cn, num edge types: 1
# Building blocks:
#     Node 0, Type 0, BuildingBlock: CUWYAW_clean_sbu_0, # of connection points: 6
#     Node 1, Type 0, BuildingBlock: CUWYAW_clean_sbu_0, # of connection points: 6
#     Node 2, Type 0, BuildingBlock: CUWYAW_clean_sbu_0, # of connection points: 6
#     Node 3, Type 0, BuildingBlock: CUWYAW_clean_sbu_0, # of connection points: 6
#     Node 4, Type 0, BuildingBlock: CUWYAW_clean_sbu_0, # of connection points: 6
#     Node 5, Type 0, BuildingBlock: CUWYAW_clean_sbu_0, # of connection points: 6
#     Node 6, Type 0, BuildingBlock: CUWYAW_clean_sbu_0, # of connection points: 6
#     Node 7, Type 0, BuildingBlock: CUWYAW_clean_sbu_0, # of connection points: 6
#     Node 8, Type 0, BuildingBlock: CUWYAW_clean_sbu_0, # of connection points: 6
#     Node 9, Type 0, BuildingBlock: CUWYAW_clean_sbu_0, # of connection points: 6
#     Node 10, Type 0, BuildingBlock: CUWYAW_clean_sbu_0, # of connection points: 6
#     Node 11, Type 0, BuildingBlock: CUWYAW_clean_sbu_0, # of connection points: 6
#     Node 12, Type 0, BuildingBlock: CUWYAW_clean_sbu_0, # of connection points: 6
#     Node 13, Type 0, BuildingBlock: CUWYAW_clean_sbu_0, # of connection points: 6
#     Node 14, Type 0, BuildingBlock: CUWYAW_clean_sbu_0, # of connection points: 6
#     Node 15, Type 0, BuildingBlock: CUWYAW_clean_sbu_0, # of connection points: 6
#     Edge 16, Type (0, 0), BuildingBlock: UVAHIK_clean_linker_0, # of connection points: 2
#     Edge 17, Type (0, 0), BuildingBlock: UVAHIK_clean_linker_0, # of connection points: 2
#     Edge 18, Type (0, 0), BuildingBlock: UVAHIK_clean_linker_0, # of connection points: 2
#     Edge 19, Type (0, 0), BuildingBlock: UVAHIK_clean_linker_0, # of connection points: 2
#     Edge 20, Type (0, 0), BuildingBlock: UVAHIK_clean_linker_0, # of connection points: 2
#     Edge 21, Type (0, 0), BuildingBlock: UVAHIK_clean_linker_0, # of connection points: 2
#     Edge 22, Type (0, 0), BuildingBlock: UVAHIK_clean_linker_0, # of connection points: 2
#     Edge 23, Type (0, 0), BuildingBlock: UVAHIK_clean_linker_0, # of connection points: 2
#     Edge 24, Type (0, 0), BuildingBlock: UVAHIK_clean_linker_0, # of connection points: 2
#     Edge 25, Type (0, 0), BuildingBlock: UVAHIK_clean_linker_0, # of connection points: 2
#     Edge 26, Type (0, 0), BuildingBlock: UVAHIK_clean_linker_0, # of connection points: 2
#     Edge 27, Type (0, 0), BuildingBlock: UVAHIK_clean_linker_0, # of connection points: 2
#     Edge 28, Type (0, 0), BuildingBlock: UVAHIK_clean_linker_0, # of connection points: 2
#     Edge 29, Type (0, 0), BuildingBlock: UVAHIK_clean_linker_0, # of connection points: 2
#     Edge 30, Type (0, 0), BuildingBlock: UVAHIK_clean_linker_0, # of connection points: 2
#     Edge 31, Type (0, 0), BuildingBlock: UVAHIK_clean_linker_0, # of connection points: 2
#     Edge 32, Type (0, 0), BuildingBlock: UVAHIK_clean_linker_0, # of connection points: 2
#     Edge 33, Type (0, 0), BuildingBlock: UVAHIK_clean_linker_0, # of connection points: 2
#     Edge 34, Type (0, 0), BuildingBlock: UVAHIK_clean_linker_0, # of connection points: 2
#     Edge 35, Type (0, 0), BuildingBlock: UVAHIK_clean_linker_0, # of connection points: 2
#     Edge 36, Type (0, 0), BuildingBlock: UVAHIK_clean_linker_0, # of connection points: 2
#     Edge 37, Type (0, 0), BuildingBlock: UVAHIK_clean_linker_0, # of connection points: 2
#     Edge 38, Type (0, 0), BuildingBlock: UVAHIK_clean_linker_0, # of connection points: 2
#     Edge 39, Type (0, 0), BuildingBlock: UVAHIK_clean_linker_0, # of connection points: 2
#     Edge 40, Type (0, 0), BuildingBlock: UVAHIK_clean_linker_0, # of connection points: 2
#     Edge 41, Type (0, 0), BuildingBlock: UVAHIK_clean_linker_0, # of connection points: 2
#     Edge 42, Type (0, 0), BuildingBlock: UVAHIK_clean_linker_0, # of connection points: 2
#     Edge 43, Type (0, 0), BuildingBlock: UVAHIK_clean_linker_0, # of connection points: 2
#     Edge 44, Type (0, 0), BuildingBlock: UVAHIK_clean_linker_0, # of connection points: 2
#     Edge 45, Type (0, 0), BuildingBlock: UVAHIK_clean_linker_0, # of connection points: 2
#     Edge 46, Type (0, 0), BuildingBlock: UVAHIK_clean_linker_0, # of connection points: 2
#     Edge 47, Type (0, 0), BuildingBlock: UVAHIK_clean_linker_0, # of connection points: 2
#     Edge 48, Type (0, 0), BuildingBlock: UVAHIK_clean_linker_0, # of connection points: 2
#     Edge 49, Type (0, 0), BuildingBlock: UVAHIK_clean_linker_0, # of connection points: 2
#     Edge 50, Type (0, 0), BuildingBlock: UVAHIK_clean_linker_0, # of connection points: 2
#     Edge 51, Type (0, 0), BuildingBlock: UVAHIK_clean_linker_0, # of connection points: 2
#     Edge 52, Type (0, 0), BuildingBlock: UVAHIK_clean_linker_0, # of connection points: 2
#     Edge 53, Type (0, 0), BuildingBlock: UVAHIK_clean_linker_0, # of connection points: 2
#     Edge 54, Type (0, 0), BuildingBlock: UVAHIK_clean_linker_0, # of connection points: 2
#     Edge 55, Type (0, 0), BuildingBlock: UVAHIK_clean_linker_0, # of connection points: 2
#     Edge 56, Type (0, 0), BuildingBlock: UVAHIK_clean_linker_0, # of connection points: 2
#     Edge 57, Type (0, 0), BuildingBlock: UVAHIK_clean_linker_0, # of connection points: 2
#     Edge 58, Type (0, 0), BuildingBlock: UVAHIK_clean_linker_0, # of connection points: 2
#     Edge 59, Type (0, 0), BuildingBlock: UVAHIK_clean_linker_0, # of connection points: 2
#     Edge 60, Type (0, 0), BuildingBlock: UVAHIK_clean_linker_0, # of connection points: 2
#     Edge 61, Type (0, 0), BuildingBlock: UVAHIK_clean_linker_0, # of connection points: 2
#     Edge 62, Type (0, 0), BuildingBlock: UVAHIK_clean_linker_0, # of connection points: 2
#     Edge 63, Type (0, 0), BuildingBlock: UVAHIK_clean_linker_0, # of connection points: 2
# Relax obj value: 0.412
# Max RMSD: 0.237
# Mean RMSD: 0.216
data_MOF--net-whw--node1-CUWYAW_clean_sbu_0--edge1-UVAHIK_clean_linker_0
_symmetry_space_group_name_H-M    P1
_symmetry_Int_Tables_number       1
_symmetry_cell_setting            triclinic
loop_
_symmetry_equiv_pos_as_xyz
'x, y, z'
_cell_length_a     59.532093
_cell_length_b     59.438765
_cell_length_c     41.840859
_cell_angle_alpha  95.25346
_cell_angle_beta   85.457941
_cell_angle_gamma 91.284389
loop_
_atom_site_label
_atom_site_type_symbol
_atom_site_fract_x
_atom_site_fract_y
_atom_site_fract_z
_atom_type_partial_charge
C0 C 0.95378 0.11745 0.1755 0.0
Eu1 Eu 0.99463 0.12735 0.19023 0.0
C2 C 0.94382 0.10949 0.14555 0.0
C3 C 0.92039 0.10729 0.14469 0.0
C4 C 0.91102 0.0998 0.11589 0.0
C5 C 0.92509 0.09407 0.08787 0.0
C6 C 0.94856 0.09618 0.08899 0.0
C7 C 0.95783 0.10407 0.11752 0.0
C8 C 0.01664 0.16553 0.20865 0.0
C9 C 0.03631 0.13636 0.13769 0.0
C10 C 0.08384 0.13013 0.23365 0.0
Eu11 Eu 0.0449 0.12278 0.21073 0.0
C12 C 0.09068 0.13729 0.26588 0.0
C13 C 0.11155 0.13057 0.27467 0.0
C14 C 0.11631 0.13279 0.30697 0.0
C15 C 0.10015 0.14163 0.33092 0.0
C16 C 0.07966 0.14933 0.32174 0.0
C17 C 0.07495 0.14712 0.28946 0.0
C18 C 0.03062 0.08322 0.17894 0.0
C19 C 0.00265 0.1246 0.2678 0.0
O20 O 0.96697 0.10302 0.18645 0.0
O21 O 0.96223 0.13804 0.1767 0.0
O22 O 0.00212 0.1647 0.18679 0.0
O23 O 0.01749 0.14694 0.22026 0.0
O24 O 0.01493 0.12935 0.1419 0.0
O25 O 0.05014 0.13723 0.16142 0.0
O26 O 0.0739 0.14516 0.21863 0.0
O27 O 0.07372 0.11031 0.23171 0.0
O28 O 0.05006 0.08601 0.19061 0.0
O29 O 0.02 0.10123 0.18599 0.0
O30 O 0.02474 0.12282 0.26 0.0
O31 O 0.98814 0.12596 0.24529 0.0
H32 H 0.90937 0.11153 0.16617 0.0
H33 H 0.89287 0.09845 0.11545 0.0
H34 H 0.95972 0.09238 0.06753 0.0
H35 H 0.97594 0.10618 0.11762 0.0
H36 H 0.1237 0.12256 0.25678 0.0
H37 H 0.13218 0.12658 0.31333 0.0
H38 H 0.06705 0.15657 0.33958 0.0
H39 H 0.05862 0.15207 0.28312 0.0
C40 C 0.17581 0.66333 0.40321 0.0
Eu41 Eu 0.16451 0.70366 0.4276 0.0
C42 C 0.17707 0.65208 0.37056 0.0
C43 C 0.16579 0.66115 0.34666 0.0
C44 C 0.17011 0.65307 0.3145 0.0
C45 C 0.18596 0.63597 0.30568 0.0
C46 C 0.1964 0.62615 0.32986 0.0
C47 C 0.19203 0.63425 0.36215 0.0
C48 C 0.12434 0.72394 0.44027 0.0
C49 C 0.1534 0.74408 0.38255 0.0
C50 C 0.16991 0.79122 0.49048 0.0
Eu51 Eu 0.16757 0.75302 0.45548 0.0
C52 C 0.16456 0.79852 0.5247 0.0
C53 C 0.17953 0.81311 0.541 0.0
C54 C 0.17621 0.81818 0.5743 0.0
C55 C 0.15775 0.80879 0.5919 0.0
C56 C 0.14246 0.79461 0.57523 0.0
C57 C 0.14592 0.78939 0.54201 0.0
C58 C 0.20389 0.73727 0.41733 0.0
C59 C 0.16193 0.71259 0.50567 0.0
O60 O 0.19024 0.6801 0.40719 0.0
O61 O 0.15564 0.66814 0.41661 0.0
O62 O 0.12834 0.70789 0.41725 0.0
O63 O 0.14113 0.72676 0.45688 0.0
O64 O 0.16149 0.72326 0.38278 0.0
O65 O 0.1516 0.75814 0.40922 0.0
O66 O 0.15289 0.78552 0.47307 0.0
O67 O 0.18678 0.77728 0.48475 0.0
O68 O 0.19548 0.75702 0.41652 0.0
O69 O 0.19297 0.72676 0.43855 0.0
O70 O 0.16301 0.7345 0.50155 0.0
O71 O 0.16316 0.69717 0.48063 0.0
H72 H 0.15437 0.67511 0.35273 0.0
H73 H 0.16153 0.66069 0.2964 0.0
H74 H 0.20876 0.61305 0.32372 0.0
H75 H 0.20108 0.62731 0.38037 0.0
H76 H 0.19419 0.82005 0.52808 0.0
H77 H 0.18848 0.82891 0.58632 0.0
H78 H 0.12783 0.7874 0.58784 0.0
H79 H 0.13429 0.77785 0.53004 0.0
C80 C 0.62159 0.88512 0.53544 0.0
Eu81 Eu 0.5854 0.86958 0.56518 0.0
C82 C 0.62763 0.89824 0.50788 0.0
C83 C 0.61671 0.89444 0.47936 0.0
C84 C 0.62427 0.9055 0.45242 0.0
C85 C 0.64276 0.92071 0.45361 0.0
C86 C 0.65246 0.92572 0.48306 0.0
C87 C 0.645 0.91449 0.50991 0.0
C88 C 0.57708 0.83102 0.59302 0.0
C89 C 0.54453 0.84969 0.51995 0.0
C90 C 0.49788 0.86483 0.62735 0.0
Eu91 Eu 0.53681 0.86704 0.5946 0.0
C92 C 0.4894 0.86292 0.66086 0.0
C93 C 0.46808 0.87127 0.6717 0.0
C94 C 0.46026 0.87099 0.70403 0.0
C95 C 0.47361 0.86217 0.72611 0.0
C96 C 0.49503 0.85379 0.71492 0.0
C97 C 0.50289 0.85428 0.68265 0.0
C98 C 0.54846 0.90417 0.56309 0.0
C99 C 0.57752 0.87269 0.64366 0.0
O100 O 0.61081 0.89614 0.56028 0.0
O101 O 0.61373 0.86451 0.52925 0.0
O102 O 0.59719 0.83933 0.58695 0.0
O103 O 0.56293 0.8415 0.57896 0.0
O104 O 0.56498 0.85937 0.52083 0.0
O105 O 0.53127 0.84814 0.54662 0.0
O106 O 0.50786 0.84716 0.61191 0.0
O107 O 0.50846 0.88379 0.62207 0.0
O108 O 0.52945 0.89338 0.56106 0.0
O109 O 0.5602 0.8952 0.58207 0.0
O110 O 0.55591 0.86882 0.6397 0.0
O111 O 0.59226 0.87565 0.61871 0.0
H112 H 0.60295 0.88227 0.47748 0.0
H113 H 0.6165 0.90096 0.43015 0.0
H114 H 0.66644 0.93762 0.48498 0.0
H115 H 0.65331 0.91795 0.53201 0.0
H116 H 0.45761 0.87838 0.65524 0.0
H117 H 0.44392 0.87808 0.71174 0.0
H118 H 0.50575 0.84678 0.73103 0.0
H119 H 0.51958 0.84816 0.6748 0.0
C120 C 0.40813 0.3219 0.81573 0.0
Eu121 Eu 0.4248 0.28413 0.82916 0.0
C122 C 0.39804 0.32769 0.78678 0.0
C123 C 0.39277 0.34999 0.78247 0.0
C124 C 0.38405 0.35502 0.75383 0.0
C125 C 0.38022 0.3377 0.72941 0.0
C126 C 0.3847 0.31527 0.73478 0.0
C127 C 0.394 0.31047 0.76279 0.0
C128 C 0.46449 0.27552 0.85231 0.0
C129 C 0.44656 0.24759 0.77476 0.0
C130 C 0.43369 0.19617 0.85892 0.0
Eu131 Eu 0.42557 0.23742 0.84729 0.0
C132 C 0.43406 0.18444 0.88808 0.0
C133 C 0.44292 0.1627 0.88646 0.0
C134 C 0.44401 0.15187 0.91456 0.0
C135 C 0.43622 0.16268 0.94457 0.0
C136 C 0.42697 0.18434 0.94585 0.0
C137 C 0.4259 0.19511 0.91783 0.0
C138 C 0.38616 0.24917 0.82521 0.0
C139 C 0.4148 0.27498 0.9072 0.0
O140 O 0.39659 0.30701 0.83182 0.0
O141 O 0.42969 0.31752 0.81185 0.0
O142 O 0.46251 0.28826 0.82903 0.0
O143 O 0.44534 0.26813 0.86179 0.0
O144 O 0.43732 0.26781 0.77962 0.0
O145 O 0.44565 0.23402 0.79822 0.0
O146 O 0.44948 0.21155 0.85493 0.0
O147 O 0.41391 0.20296 0.85276 0.0
O148 O 0.38724 0.23821 0.85041 0.0
O149 O 0.40568 0.25351 0.81332 0.0
O150 O 0.41964 0.25353 0.89858 0.0
O151 O 0.4146 0.28946 0.88457 0.0
H152 H 0.39592 0.36353 0.80081 0.0
H153 H 0.38114 0.37252 0.75041 0.0
H154 H 0.38159 0.30138 0.71699 0.0
H155 H 0.39854 0.29332 0.76557 0.0
H156 H 0.44921 0.15425 0.86356 0.0
H157 H 0.45111 0.13514 0.91286 0.0
H158 H 0.42123 0.19331 0.96864 0.0
H159 H 0.41902 0.21192 0.91945 0.0
C160 C 0.97658 0.86112 0.8391 0.0
Eu161 Eu 0.99486 0.86334 0.89455 0.0
C162 C 0.97358 0.85209 0.80492 0.0
C163 C 0.96681 0.86703 0.78343 0.0
C164 C 0.96206 0.85936 0.75182 0.0
C165 C 0.96403 0.83639 0.74028 0.0
C166 C 0.97132 0.82142 0.76164 0.0
C167 C 0.97584 0.82912 0.79361 0.0
C168 C 0.00877 0.90139 0.92969 0.0
C169 C 0.04675 0.84876 0.89019 0.0
C170 C 0.04383 0.84947 1.00688 0.0
Eu171 Eu 0.01825 0.85534 0.95977 0.0
C172 C 0.04823 0.83931 0.03755 0.0
C173 C 0.06233 0.82045 0.03619 0.0
C174 C 0.06927 0.81225 0.06432 0.0
C175 C 0.06243 0.82256 0.09521 0.0
C176 C 0.04797 0.84128 0.09659 0.0
C177 C 0.0411 0.84957 0.06829 0.0
C178 C 0.9888 0.82342 0.93685 0.0
C179 C 0.96815 0.87404 0.96418 0.0
O180 O 0.96927 0.84932 0.863 0.0
O181 O 0.99412 0.87402 0.84567 0.0
O182 O 0.99241 0.90065 0.91087 0.0
O183 O 0.01855 0.88256 0.9266 0.0
O184 O 0.02791 0.8481 0.8755 0.0
O185 O 0.04755 0.85458 0.92138 0.0
O186 O 0.03039 0.8668 1.00722 0.0
O187 O 0.0434 0.83599 0.98031 0.0
O188 O 0.99126 0.82809 0.96722 0.0
O189 O 0.00296 0.83434 0.92046 0.0
O190 O 0.98755 0.87551 0.97795 0.0
O191 O 0.96623 0.8656 0.93394 0.0
H192 H 0.96482 0.8848 0.79131 0.0
H193 H 0.95687 0.87158 0.7363 0.0
H194 H 0.97297 0.8036 0.75394 0.0
H195 H 0.98086 0.81708 0.80953 0.0
H196 H 0.0687 0.81234 1.01311 0.0
H197 H 0.08071 0.7982 0.06159 0.0
H198 H 0.04192 0.84969 0.11959 0.0
H199 H 0.03052 0.8643 0.07055 0.0
C200 C 0.44595 0.66279 0.19033 0.0
Eu201 Eu 0.44428 0.70437 0.17644 0.0
C202 C 0.43692 0.6505 0.21764 0.0
C203 C 0.45038 0.63505 0.2304 0.0
C204 C 0.44194 0.62356 0.25661 0.0
C205 C 0.41983 0.62729 0.27039 0.0
C206 C 0.40631 0.64258 0.25717 0.0
C207 C 0.41479 0.65414 0.2312 0.0
C208 C 0.47507 0.73313 0.15097 0.0
C209 C 0.44791 0.74664 0.22846 0.0
C210 C 0.4165 0.78734 0.14358 0.0
Eu211 Eu 0.42527 0.74699 0.15855 0.0
C212 C 0.4185 0.79728 0.11264 0.0
C213 C 0.409 0.81823 0.10943 0.0
C214 C 0.41 0.82685 0.07926 0.0
C215 C 0.42057 0.81459 0.05196 0.0
C216 C 0.43043 0.7938 0.05569 0.0
C217 C 0.42916 0.78516 0.08559 0.0
C218 C 0.39394 0.71914 0.18684 0.0
C219 C 0.43228 0.70689 0.10067 0.0
O220 O 0.43087 0.67017 0.17285 0.0
O221 O 0.46222 0.67754 0.19583 0.0
O222 O 0.47963 0.72021 0.17302 0.0
O223 O 0.45581 0.72852 0.14221 0.0
O224 O 0.44668 0.72431 0.22475 0.0
O225 O 0.44184 0.75882 0.20551 0.0
O226 O 0.43551 0.78215 0.15456 0.0
O227 O 0.4013 0.77126 0.14589 0.0
O228 O 0.39096 0.72995 0.16205 0.0
O229 O 0.41353 0.72341 0.19546 0.0
O230 O 0.42936 0.72887 0.10784 0.0
O231 O 0.43653 0.69396 0.12372 0.0
H232 H 0.46749 0.63205 0.22031 0.0
H233 H 0.45293 0.61218 0.26654 0.0
H234 H 0.38914 0.64566 0.26689 0.0
H235 H 0.404 0.66597 0.22179 0.0
H236 H 0.40052 0.82771 0.13007 0.0
H237 H 0.40206 0.84281 0.07719 0.0
H238 H 0.43913 0.78408 0.03546 0.0
H239 H 0.4363 0.76885 0.08749 0.0
C240 C 0.6311 0.1409 0.42403 0.0
Eu241 Eu 0.59236 0.14888 0.40317 0.0
C242 C 0.63973 0.12919 0.44978 0.0
C243 C 0.62874 0.13041 0.48075 0.0
C244 C 0.63713 0.11871 0.50459 0.0
C245 C 0.65649 0.10537 0.49775 0.0
C246 C 0.66706 0.10379 0.46639 0.0
C247 C 0.65876 0.11565 0.44267 0.0
C248 C 0.57747 0.18559 0.37807 0.0
C249 C 0.55083 0.16222 0.45907 0.0
C250 C 0.50482 0.14463 0.36199 0.0
Eu251 Eu 0.54392 0.14487 0.38573 0.0
C252 C 0.49701 0.14758 0.33041 0.0
C253 C 0.47633 0.13802 0.32214 0.0
C254 C 0.4701 0.13795 0.29067 0.0
C255 C 0.48459 0.14736 0.26708 0.0
C256 C 0.5049 0.15779 0.27586 0.0
C257 C 0.51107 0.15786 0.30732 0.0
C258 C 0.55861 0.10904 0.4139 0.0
C259 C 0.58478 0.14334 0.32724 0.0
O260 O 0.62167 0.12772 0.40201 0.0
O261 O 0.62013 0.15972 0.43223 0.0
O262 O 0.59839 0.17948 0.37451 0.0
O263 O 0.56655 0.17355 0.39726 0.0
O264 O 0.57218 0.15569 0.45288 0.0
O265 O 0.53704 0.16193 0.43576 0.0
O266 O 0.51355 0.1625 0.37731 0.0
O267 O 0.51657 0.12643 0.36312 0.0
O268 O 0.53853 0.11712 0.41881 0.0
O269 O 0.56989 0.1194 0.39279 0.0
O270 O 0.56301 0.14582 0.336 0.0
O271 O 0.59945 0.14139 0.34899 0.0
H272 H 0.61379 0.1405 0.48661 0.0
H273 H 0.62876 0.12064 0.52859 0.0
H274 H 0.68178 0.09345 0.46018 0.0
H275 H 0.66721 0.11423 0.41867 0.0
H276 H 0.4654 0.12986 0.33972 0.0
H277 H 0.45444 0.12966 0.28449 0.0
H278 H 0.51622 0.16546 0.25826 0.0
H279 H 0.52712 0.16526 0.31336 0.0
C280 C 0.15406 0.31195 0.56323 0.0
Eu281 Eu 0.15658 0.29393 0.61819 0.0
C282 C 0.14539 0.31383 0.53061 0.0
C283 C 0.16091 0.31599 0.50383 0.0
C284 C 0.15384 0.32051 0.47369 0.0
C285 C 0.13082 0.323 0.46884 0.0
C286 C 0.1152 0.32042 0.49571 0.0
C287 C 0.12235 0.31606 0.52604 0.0
C288 C 0.19317 0.28148 0.64714 0.0
C289 C 0.14376 0.24079 0.6174 0.0
C290 C 0.13954 0.24724 0.73562 0.0
Eu291 Eu 0.14611 0.27177 0.68612 0.0
C292 C 0.12992 0.2426 0.76896 0.0
C293 C 0.11032 0.22901 0.7727 0.0
C294 C 0.10274 0.22152 0.80276 0.0
C295 C 0.11444 0.22726 0.83048 0.0
C296 C 0.13374 0.24139 0.82697 0.0
C297 C 0.14145 0.24877 0.79672 0.0
C298 C 0.11544 0.30003 0.66785 0.0
C299 C 0.16519 0.32257 0.68571 0.0
O300 O 0.14123 0.31775 0.58955 0.0
O301 O 0.16843 0.2962 0.56723 0.0
O302 O 0.19344 0.29758 0.62801 0.0
O303 O 0.17426 0.27133 0.64777 0.0
O304 O 0.14653 0.2587 0.60094 0.0
O305 O 0.14417 0.24148 0.64909 0.0
O306 O 0.1572 0.26064 0.7313 0.0
O307 O 0.12587 0.24738 0.71256 0.0
O308 O 0.11905 0.29829 0.69766 0.0
O309 O 0.12668 0.28572 0.64971 0.0
O310 O 0.1658 0.30354 0.70002 0.0
O311 O 0.15835 0.32341 0.65636 0.0
H312 H 0.1788 0.31485 0.50643 0.0
H313 H 0.16671 0.32275 0.45446 0.0
H314 H 0.09731 0.32177 0.49348 0.0
H315 H 0.10982 0.31474 0.54603 0.0
H316 H 0.10107 0.22352 0.75203 0.0
H317 H 0.08766 0.21102 0.80416 0.0
H318 H 0.14345 0.24613 0.84742 0.0
H319 H 0.15682 0.25882 0.79495 0.0
C320 C 0.94777 0.16434 0.69172 0.0
Eu321 Eu 0.94371 0.20565 0.6778 0.0
C322 C 0.93965 0.15145 0.71886 0.0
C323 C 0.95437 0.13737 0.73195 0.0
C324 C 0.94687 0.12539 0.7581 0.0
C325 C 0.92448 0.12729 0.77154 0.0
C326 C 0.9097 0.14117 0.75799 0.0
C327 C 0.91721 0.15315 0.73197 0.0
C328 C 0.97326 0.23643 0.65443 0.0
C329 C 0.94355 0.24801 0.7304 0.0
C330 C 0.91201 0.28708 0.64421 0.0
Eu331 Eu 0.9227 0.24719 0.659 0.0
C332 C 0.91589 0.29866 0.61474 0.0
C333 C 0.90748 0.32035 0.61316 0.0
C334 C 0.91105 0.33108 0.58468 0.0
C335 C 0.92343 0.32032 0.55781 0.0
C336 C 0.93177 0.29861 0.55957 0.0
C337 C 0.92777 0.28778 0.58765 0.0
C338 C 0.89252 0.21792 0.68706 0.0
C339 C 0.93362 0.20748 0.60128 0.0
O340 O 0.93219 0.17078 0.67425 0.0
O341 O 0.96315 0.18004 0.69738 0.0
O342 O 0.97803 0.22363 0.67651 0.0
O343 O 0.95459 0.23063 0.6444 0.0
O344 O 0.943 0.22564 0.72666 0.0
O345 O 0.93811 0.25989 0.70671 0.0
O346 O 0.93002 0.2833 0.65876 0.0
O347 O 0.89851 0.26945 0.64209 0.0
O348 O 0.8889 0.22874 0.66254 0.0
O349 O 0.91191 0.22315 0.69556 0.0
O350 O 0.93002 0.2294 0.6083 0.0
O351 O 0.93709 0.19466 0.62477 0.0
H352 H 0.97173 0.13584 0.72218 0.0
H353 H 0.95878 0.11512 0.7683 0.0
H354 H 0.8923 0.14281 0.76753 0.0
H355 H 0.90542 0.16379 0.7222 0.0
H356 H 0.89808 0.3289 0.63382 0.0
H357 H 0.9044 0.34779 0.58372 0.0
H358 H 0.94103 0.28984 0.53895 0.0
H359 H 0.93381 0.27081 0.58813 0.0
C360 C 0.66381 0.80737 0.05461 0.0
Eu361 Eu 0.66378 0.78834 0.10904 0.0
C362 C 0.65601 0.80926 1.02166 0.0
C363 C 0.67179 0.81536 0.99702 0.0
C364 C 0.66514 0.81956 0.9666 0.0
C365 C 0.64236 0.81766 0.95937 0.0
C366 C 0.62654 0.81117 0.98411 0.0
C367 C 0.63323 0.80716 1.01479 0.0
C368 C 0.69886 0.77395 0.13936 0.0
C369 C 0.64863 0.73571 0.10508 0.0
C370 C 0.6416 0.74112 0.2243 0.0
Eu371 Eu 0.65059 0.7654 0.17502 0.0
C372 C 0.63079 0.73869 0.25777 0.0
C373 C 0.61003 0.727 0.26181 0.0
C374 C 0.6009 0.72179 0.29243 0.0
C375 C 0.61215 0.72799 0.32047 0.0
C376 C 0.6328 0.74006 0.31645 0.0
C377 C 0.642 0.74521 0.28569 0.0
C378 C 0.62173 0.79538 0.15646 0.0
C379 C 0.67166 0.8155 0.17736 0.0
O380 O 0.65018 0.81302 0.08015 0.0
O381 O 0.6776 0.79124 0.05914 0.0
O382 O 0.70012 0.79079 0.12147 0.0
O383 O 0.67979 0.76423 0.13829 0.0
O384 O 0.65295 0.75391 0.08966 0.0
O385 O 0.64785 0.73571 0.13686 0.0
O386 O 0.66037 0.75294 0.21998 0.0
O387 O 0.62844 0.74215 0.2008 0.0
O388 O 0.62473 0.79312 0.18631 0.0
O389 O 0.63264 0.78082 0.13833 0.0
O390 O 0.67123 0.79616 0.19099 0.0
O391 O 0.66535 0.81724 0.14799 0.0
H392 H 0.68941 0.81751 1.00159 0.0
H393 H 0.678 0.82495 0.94906 0.0
H394 H 0.60888 0.80912 0.97989 0.0
H395 H 0.62054 0.80265 0.03321 0.0
H396 H 0.60105 0.72117 0.24102 0.0
H397 H 0.58528 0.71214 0.29379 0.0
H398 H 0.64204 0.74554 0.3371 0.0
H399 H 0.65814 0.75393 0.28376 0.0
C400 C 0.66529 0.15969 0.90522 0.0
Eu401 Eu 0.66028 0.20123 0.92953 0.0
C402 C 0.67237 0.14922 0.8731 0.0
C403 C 0.66877 0.12608 0.86533 0.0
C404 C 0.67481 0.11635 0.83421 0.0
C405 C 0.68476 0.12965 0.81056 0.0
C406 C 0.68885 0.15277 0.81898 0.0
C407 C 0.68234 0.16251 0.84974 0.0
C408 C 0.62458 0.22594 0.95329 0.0
C409 C 0.65517 0.24357 0.88675 0.0
C410 C 0.66661 0.28996 0.99516 0.0
Eu411 Eu 0.67013 0.25107 0.96165 0.0
C412 C 0.65871 0.29695 0.02865 0.0
C413 C 0.66498 0.31819 0.04279 0.0
C414 C 0.66054 0.32365 0.0759 0.0
C415 C 0.64982 0.30788 0.09542 0.0
C416 C 0.64295 0.28684 0.08083 0.0
C417 C 0.64745 0.28142 0.04778 0.0
C418 C 0.7078 0.23421 0.92587 0.0
C419 C 0.66488 0.20859 1.00841 0.0
O420 O 0.68098 0.17137 0.92 0.0
O421 O 0.64594 0.17005 0.90771 0.0
O422 O 0.62385 0.21127 0.92825 0.0
O423 O 0.64327 0.22546 0.96497 0.0
O424 O 0.66011 0.22174 0.88599 0.0
O425 O 0.6559 0.25749 0.91365 0.0
O426 O 0.65136 0.28199 0.97585 0.0
O427 O 0.68495 0.27791 0.99216 0.0
O428 O 0.70689 0.25397 0.94169 0.0
O429 O 0.68893 0.22472 0.93083 0.0
O430 O 0.66871 0.23055 1.00582 0.0
O431 O 0.66171 0.1943 0.98263 0.0
H432 H 0.66091 0.11565 0.88312 0.0
H433 H 0.67107 0.09859 0.82849 0.0
H434 H 0.69686 0.16349 0.8017 0.0
H435 H 0.68485 0.18051 0.85517 0.0
H436 H 0.67403 0.33024 0.02845 0.0
H437 H 0.6663 0.33989 0.08635 0.0
H438 H 0.63436 0.27442 0.095 0.0
H439 H 0.64283 0.2648 0.03736 0.0
C440 C 0.88243 0.80673 0.32065 0.0
Eu441 Eu 0.90992 0.77474 0.32965 0.0
C442 C 0.87671 0.82034 0.29467 0.0
C443 C 0.88976 0.83936 0.28705 0.0
C444 C 0.88466 0.85153 0.26163 0.0
C445 C 0.86636 0.84501 0.24339 0.0
C446 C 0.85281 0.82648 0.25179 0.0
C447 C 0.85787 0.81434 0.27727 0.0
C448 C 0.95461 0.77667 0.33404 0.0
C449 C 0.93776 0.74314 0.27198 0.0
C450 C 0.94486 0.69562 0.36636 0.0
Eu451 Eu 0.92827 0.73045 0.34404 0.0
C452 C 0.94974 0.69063 0.39871 0.0
C453 C 0.94553 0.66879 0.40789 0.0
C454 C 0.94571 0.66459 0.44011 0.0
C455 C 0.95012 0.68222 0.46369 0.0
C456 C 0.9554 0.70391 0.4541 0.0
C457 C 0.95513 0.70811 0.42186 0.0
C458 C 0.88762 0.72862 0.3183 0.0
C459 C 0.91388 0.76631 0.40591 0.0
O460 O 0.87734 0.78519 0.31689 0.0
O461 O 0.90194 0.81058 0.3327 0.0
O462 O 0.94454 0.78716 0.31332 0.0
O463 O 0.94053 0.76587 0.35125 0.0
O464 O 0.92103 0.7579 0.27861 0.0
O465 O 0.94624 0.73336 0.29536 0.0
O466 O 0.95748 0.71113 0.35301 0.0
O467 O 0.92339 0.69775 0.36286 0.0
O468 O 0.90384 0.71491 0.30863 0.0
O469 O 0.89379 0.74255 0.34045 0.0
O470 O 0.92066 0.7457 0.39553 0.0
O471 O 0.90856 0.7807 0.3852 0.0
H472 H 0.90421 0.84461 0.30023 0.0
H473 H 0.89564 0.86552 0.25549 0.0
H474 H 0.83848 0.82118 0.23836 0.0
H475 H 0.84724 0.79999 0.28301 0.0
H476 H 0.941 0.65521 0.39037 0.0
H477 H 0.9413 0.64776 0.44671 0.0
H478 H 0.95918 0.71777 0.47161 0.0
H479 H 0.95823 0.72517 0.41528 0.0
C480 C 0.44184 0.62599 0.67126 0.0
Eu481 Eu 0.48225 0.63893 0.68511 0.0
C482 C 0.43162 0.61595 0.64249 0.0
C483 C 0.40814 0.61504 0.64153 0.0
C484 C 0.39851 0.60619 0.61352 0.0
C485 C 0.41232 0.59788 0.58639 0.0
C486 C 0.43583 0.59851 0.58776 0.0
C487 C 0.44538 0.60769 0.61547 0.0
C488 C 0.49791 0.67889 0.70949 0.0
C489 C 0.52151 0.65275 0.6321 0.0
C490 C 0.57052 0.64202 0.72122 0.0
Eu491 Eu 0.52967 0.63663 0.70364 0.0
C492 C 0.57879 0.64389 0.75356 0.0
C493 C 0.60018 0.63597 0.75826 0.0
C494 C 0.60692 0.63526 0.78947 0.0
C495 C 0.59224 0.64228 0.81642 0.0
C496 C 0.571 0.65059 0.81146 0.0
C497 C 0.56435 0.65133 0.78039 0.0
C498 C 0.51291 0.59692 0.67618 0.0
C499 C 0.49067 0.6331 0.76182 0.0
O500 O 0.45589 0.61306 0.68348 0.0
O501 O 0.44937 0.64679 0.66994 0.0
O502 O 0.48339 0.67695 0.6877 0.0
O503 O 0.50192 0.66003 0.71898 0.0
O504 O 0.50022 0.64575 0.63649 0.0
O505 O 0.53534 0.65245 0.65549 0.0
O506 O 0.55836 0.65878 0.71432 0.0
O507 O 0.56174 0.62231 0.7124 0.0
O508 O 0.52488 0.59839 0.70086 0.0
O509 O 0.51042 0.61636 0.66751 0.0
O510 O 0.51245 0.63576 0.75396 0.0
O511 O 0.47612 0.63233 0.7391 0.0
H512 H 0.3973 0.62148 0.66222 0.0
H513 H 0.38035 0.60602 0.61291 0.0
H514 H 0.44688 0.59273 0.56694 0.0
H515 H 0.4635 0.60882 0.61564 0.0
H516 H 0.61143 0.62984 0.73785 0.0
H517 H 0.62335 0.62866 0.79253 0.0
H518 H 0.55945 0.65652 0.83163 0.0
H519 H 0.54769 0.6573 0.77741 0.0
C520 C 0.11187 0.38267 0.05309 0.0
Eu521 Eu 0.07146 0.3706 0.07356 0.0
C522 C 0.12313 0.39245 1.0247 0.0
C523 C 0.13655 0.37869 1.00219 0.0
C524 C 0.14675 0.38737 0.97471 0.0
C525 C 0.14398 0.41012 0.96922 0.0
C526 C 0.13102 0.42409 0.9922 0.0
C527 C 0.12077 0.41537 1.01976 0.0
C528 C 0.0557 0.33259 0.099 0.0
C529 C 0.03192 0.35493 0.02762 0.0
C530 C 0.98379 0.37249 0.1294 0.0
Eu531 Eu 0.02467 0.37629 0.10362 0.0
C532 C 0.97579 0.36867 0.16266 0.0
C533 C 0.95687 0.38002 0.17776 0.0
C534 C 0.95109 0.37875 0.21066 0.0
C535 C 0.96426 0.36619 0.22892 0.0
C536 C 0.98278 0.35429 0.21335 0.0
C537 C 0.98855 0.35562 0.18065 0.0
C538 C 0.04344 0.41368 0.07843 0.0
C539 C 0.06389 0.38053 0.15403 0.0
O540 O 0.0983 0.39589 0.07222 0.0
O541 O 0.10403 0.3619 0.04861 0.0
O542 O 0.06907 0.33264 0.07278 0.0
O543 O 0.05161 0.35266 0.10981 0.0
O544 O 0.05348 0.36104 0.02795 0.0
O545 O 0.0182 0.35781 0.0543 0.0
O546 O 0.99448 0.35573 0.11269 0.0
O547 O 0.9939 0.39199 0.1261 0.0
O548 O 0.03101 0.41441 0.10532 0.0
O549 O 0.04453 0.39369 0.06595 0.0
O550 O 0.04194 0.37884 0.15076 0.0
O551 O 0.07824 0.37904 0.12774 0.0
H552 H 0.13885 0.36105 1.00554 0.0
H553 H 0.15623 0.37598 0.95724 0.0
H554 H 0.12869 0.44172 0.98881 0.0
H555 H 0.11085 0.42656 0.03698 0.0
H556 H 0.947 0.39042 0.16435 0.0
H557 H 0.93683 0.38824 0.22199 0.0
H558 H 0.99303 0.34411 0.22652 0.0
H559 H 0.00338 0.3469 0.16963 0.0
C560 C 0.48828 0.3609 0.33831 0.0
Eu561 Eu 0.49999 0.36827 0.39776 0.0
C562 C 0.48221 0.35583 0.30393 0.0
C563 C 0.46586 0.36827 0.29077 0.0
C564 C 0.45979 0.36276 0.25893 0.0
C565 C 0.46967 0.34447 0.23915 0.0
C566 C 0.48615 0.33219 0.25239 0.0
C567 C 0.49236 0.33783 0.28401 0.0
C568 C 0.50983 0.40559 0.43672 0.0
C569 C 0.55492 0.36132 0.4014 0.0
C570 C 0.53139 0.35562 0.52423 0.0
Eu571 Eu 0.52101 0.35812 0.46445 0.0
C572 C 0.54366 0.34621 0.55007 0.0
C573 C 0.55344 0.32468 0.54652 0.0
C574 C 0.56347 0.31608 0.57245 0.0
C575 C 0.56388 0.32864 0.60293 0.0
C576 C 0.55397 0.3502 0.60603 0.0
C577 C 0.54419 0.35878 0.58015 0.0
C578 C 0.51005 0.32253 0.42267 0.0
C579 C 0.46811 0.37072 0.46151 0.0
O580 O 0.50387 0.34968 0.3501 0.0
O581 O 0.47926 0.37691 0.35875 0.0
O582 O 0.49584 0.40539 0.4142 0.0
O583 O 0.52041 0.38716 0.43418 0.0
O584 O 0.53738 0.36444 0.38472 0.0
O585 O 0.55351 0.35941 0.43286 0.0
O586 O 0.54182 0.36916 0.50464 0.0
O587 O 0.51559 0.34337 0.51064 0.0
O588 O 0.52657 0.32245 0.44118 0.0
O589 O 0.49943 0.34053 0.42914 0.0
O590 O 0.48655 0.37356 0.47743 0.0
O591 O 0.46886 0.36339 0.43059 0.0
H592 H 0.45758 0.3822 0.30519 0.0
H593 H 0.44692 0.37261 0.25007 0.0
H594 H 0.49455 0.31825 0.23816 0.0
H595 H 0.50517 0.32793 0.29289 0.0
H596 H 0.55323 0.31443 0.52377 0.0
H597 H 0.57102 0.29958 0.5684 0.0
H598 H 0.55319 0.36046 0.62881 0.0
H599 H 0.53654 0.37528 0.58395 0.0
C600 C 0.12602 0.66519 0.91529 0.0
Eu601 Eu 0.08436 0.65955 0.90172 0.0
C602 C 0.13854 0.65949 0.94222 0.0
C603 C 0.12866 0.66196 0.97387 0.0
C604 C 0.13923 0.65331 0.99859 0.0
C605 C 0.15966 0.64169 0.99206 0.0
C606 C 0.16984 0.63988 0.96046 0.0
C607 C 0.15935 0.64874 0.93576 0.0
C608 C 0.0534 0.68766 0.8838 0.0
C609 C 0.04341 0.66056 0.95521 0.0
C610 C 0.00224 0.62472 0.86607 0.0
Eu611 Eu 0.04273 0.63686 0.88037 0.0
C612 C 0.99002 0.62662 0.83736 0.0
C613 C 0.96751 0.63349 0.84057 0.0
C614 C 0.95627 0.63663 0.81323 0.0
C615 C 0.96742 0.63274 0.7824 0.0
C616 C 0.98996 0.62587 0.77938 0.0
C617 C 0.0012 0.62296 0.80658 0.0
C618 C 0.07222 0.60811 0.90173 0.0
C619 C 0.0809 0.64651 0.82355 0.0
O620 O 0.11872 0.6476 0.89769 0.0
O621 O 0.11102 0.68119 0.92121 0.0
O622 O 0.06645 0.69344 0.9068 0.0
O623 O 0.05902 0.66878 0.87042 0.0
O624 O 0.06565 0.66106 0.95099 0.0
O625 O 0.03116 0.65334 0.93098 0.0
O626 O 0.00678 0.64382 0.88246 0.0
O627 O 0.01929 0.61097 0.86256 0.0
O628 O 0.06171 0.60408 0.87585 0.0
O629 O 0.06716 0.62753 0.91462 0.0
O630 O 0.05906 0.64273 0.8303 0.0
O631 O 0.09417 0.65108 0.84745 0.0
H632 H 0.11247 0.66995 0.9794 0.0
H633 H 0.13119 0.65549 1.02278 0.0
H634 H 0.18548 0.63092 0.95458 0.0
H635 H 0.16704 0.64641 0.91136 0.0
H636 H 0.95876 0.63673 0.8642 0.0
H637 H 0.93892 0.64205 0.81614 0.0
H638 H -0.00087 0.62329 0.75595 0.0
H639 H 0.01874 0.61817 0.80349 0.0
C640 C 0.0673 0.15201 0.09973 0.0
C641 C 0.04475 0.14473 0.1057 0.0
C642 C 0.07492 0.16071 0.0704 0.0
C643 C 0.05878 0.16528 0.9851 0.0
H644 H 0.10709 0.20999 0.98374 0.0
C645 C 0.098 0.1958 0.86341 0.0
C646 C 0.10681 0.21799 0.86237 0.0
C647 C 0.09078 0.18705 0.8928 0.0
C648 C 0.0934 0.1977 0.98343 0.0
H649 H 0.01263 0.14135 0.08458 0.0
H650 H 0.02559 0.15676 0.03427 0.0
H651 H 0.09376 0.19516 0.03422 0.0
H652 H 0.11457 0.24826 0.89265 0.0
H653 H 0.10169 0.23334 0.94352 0.0
H654 H 0.05783 0.16841 0.9346 0.0
C655 C 0.03773 0.15532 0.05187 0.0
C656 C 0.0859 0.18881 1.01268 0.0
C657 C 0.03015 0.1465 0.08111 0.0
C658 C 0.10817 0.23104 0.8921 0.0
C659 C 0.10076 0.22235 0.92156 0.0
C660 C 0.06619 0.17426 0.95592 0.0
C661 C 0.06029 0.16268 0.04579 0.0
C662 C 0.06842 0.17234 1.01423 0.0
C663 C 0.09185 0.20013 0.92261 0.0
C664 C 0.08373 0.19064 0.95431 0.0
H665 H 0.07919 0.15106 0.11784 0.0
H666 H 0.09248 0.16569 0.06702 0.0
H667 H 0.04555 0.15251 0.98456 0.0
H668 H 0.09701 0.18488 0.84137 0.0
H669 H 0.08466 0.16974 0.89198 0.0
C670 C 0.14354 0.73705 0.32403 0.0
C671 C 0.1449 0.75176 0.35227 0.0
C672 C 0.13458 0.7443 0.29644 0.0
C673 C 0.1212 0.79675 0.25771 0.0
H674 H 0.08363 0.75635 0.20618 0.0
C675 C 0.07451 0.829 0.1529 0.0
C676 C 0.07087 0.81415 0.1254 0.0
C677 C 0.08311 0.82129 0.18039 0.0
C678 C 0.09433 0.76791 0.21984 0.0
H679 H 0.13747 0.78585 0.37297 0.0
H680 H 0.12226 0.79834 0.32539 0.0
H681 H 0.09968 0.7432 0.25284 0.0
H682 H 0.07324 0.77889 0.10676 0.0
H683 H 0.0888 0.7658 0.15355 0.0
H684 H 0.11622 0.82136 0.22465 0.0
C685 C 0.12829 0.78122 0.32424 0.0
C686 C 0.10359 0.76027 0.2469 0.0
C687 C 0.13705 0.77395 0.3518 0.0
C688 C 0.07601 0.79118 0.12685 0.0
C689 C 0.08472 0.78349 0.15424 0.0
C690 C 0.1121 0.80434 0.23055 0.0
C691 C 0.1268 0.76657 0.29598 0.0
C692 C 0.11716 0.77455 0.26647 0.0
C693 C 0.08858 0.79837 0.18163 0.0
C694 C 0.09838 0.79013 0.21099 0.0
H695 H 0.14923 0.71982 0.32327 0.0
H696 H 0.13399 0.73244 0.27527 0.0
H697 H 0.1318 0.80829 0.27159 0.0
H698 H 0.07112 0.84683 0.15314 0.0
H699 H 0.08532 0.83345 0.20082 0.0
C700 C 0.45715 0.78174 0.26517 0.0
C701 C 0.45741 0.75807 0.25831 0.0
C702 C 0.46693 0.79229 0.29249 0.0
C703 C 0.50909 0.78342 0.35204 0.0
H704 H 0.47854 0.83249 0.40413 0.0
C705 C 0.54981 0.83583 0.46009 0.0
C706 C 0.53565 0.84038 0.48849 0.0
C707 C 0.54104 0.82635 0.43129 0.0
C708 C 0.48737 0.8188 0.38994 0.0
H709 H 0.46864 0.72715 0.27536 0.0
H710 H 0.4857 0.74541 0.32239 0.0
H711 H 0.46181 0.815 0.35623 0.0
H712 H 0.50084 0.83872 0.50802 0.0
H713 H 0.48575 0.8228 0.45834 0.0
H714 H 0.53464 0.78722 0.38587 0.0
C715 C 0.47792 0.75591 0.30669 0.0
C716 C 0.47781 0.80884 0.36217 0.0
C717 C 0.46788 0.74537 0.27968 0.0
C718 C 0.51244 0.83549 0.4869 0.0
C719 C 0.50367 0.82641 0.45815 0.0
C720 C 0.51884 0.79362 0.37958 0.0
C721 C 0.47765 0.77957 0.31365 0.0
C722 C 0.48835 0.7908 0.34284 0.0
C723 C 0.51776 0.82154 0.42981 0.0
C724 C 0.50804 0.81135 0.39925 0.0
H725 H 0.44944 0.79221 0.24935 0.0
H726 H 0.46646 0.81052 0.29669 0.0
H727 H 0.51794 0.76976 0.33779 0.0
H728 H 0.56775 0.83929 0.46018 0.0
H729 H 0.55249 0.82301 0.41004 0.0
C730 C 0.46413 0.25416 0.71857 0.0
C731 C 0.45793 0.23938 0.7424 0.0
C732 C 0.47516 0.24611 0.68866 0.0
C733 C 0.48355 0.19367 0.63307 0.0
H734 H 0.53425 0.22583 0.59351 0.0
C735 C 0.51809 0.17101 0.5002 0.0
C736 C 0.54161 0.17031 0.49268 0.0
C737 C 0.50884 0.1792 0.5309 0.0
C738 C 0.52019 0.21654 0.60425 0.0
H739 H 0.45856 0.20429 0.75267 0.0
H740 H 0.47714 0.19038 0.70084 0.0
H741 H 0.51619 0.24087 0.64569 0.0
H742 H 0.57373 0.17801 0.5124 0.0
H743 H 0.55753 0.19277 0.56602 0.0
H744 H 0.48727 0.16952 0.59165 0.0
C745 C 0.47361 0.20825 0.70519 0.0
C746 C 0.50965 0.22531 0.63412 0.0
C747 C 0.46298 0.21631 0.73516 0.0
C748 C 0.55559 0.17815 0.51716 0.0
C749 C 0.54626 0.18678 0.5479 0.0
C750 C 0.49381 0.18514 0.60306 0.0
C751 C 0.47996 0.22296 0.68137 0.0
C752 C 0.49117 0.21398 0.64912 0.0
C753 C 0.52269 0.18739 0.5553 0.0
C754 C 0.51231 0.19638 0.58806 0.0
H755 H 0.46065 0.27201 0.72311 0.0
H756 H 0.47958 0.258 0.67099 0.0
H757 H 0.46933 0.18445 0.64352 0.0
H758 H 0.50665 0.16515 0.48224 0.0
H759 H 0.49067 0.17951 0.53532 0.0
C760 C 0.86628 0.87963 0.2133 0.0
C761 C 0.863 0.85618 0.21389 0.0
C762 C 0.86806 0.88939 0.18408 0.0
C763 C 0.86517 0.87784 0.09531 0.0
H764 H 0.9243 0.90646 0.09302 0.0
C765 C 0.92924 0.86609 0.9867 0.0
C766 C 0.94782 0.88087 0.98445 0.0
C767 C 0.91209 0.87025 1.01117 0.0
C768 C 0.90746 0.89921 0.09289 0.0
H769 H 0.85685 0.82492 0.18465 0.0
H770 H 0.8601 0.84187 0.1338 0.0
H771 H 0.90442 0.90107 0.14411 0.0
H772 H 0.96215 0.91273 1.00299 0.0
H773 H 0.93151 0.92092 0.0443 0.0
H774 H 0.86872 0.87524 0.04379 0.0
C775 C 0.86109 0.8528 0.15584 0.0
C776 C 0.89601 0.89607 0.12248 0.0
C777 C 0.85931 0.84305 0.18505 0.0
C778 C 0.94803 0.90096 1.00472 0.0
C779 C 0.93055 0.90551 0.0285 0.0
C780 C 0.87654 0.88127 0.06553 0.0
C781 C 0.86663 0.87586 0.15493 0.0
C782 C 0.87525 0.88441 0.12403 0.0
C783 C 0.91304 0.88955 0.03332 0.0
C784 C 0.89835 0.891 0.06396 0.0
H785 H 0.86866 0.89025 0.23527 0.0
H786 H 0.87198 0.90727 0.1841 0.0
H787 H 0.84903 0.86904 0.09584 0.0
H788 H 0.92887 0.85044 0.97124 0.0
H789 H 0.89908 0.85742 1.01409 0.0
C790 C 0.90352 0.1273 0.82584 0.0
C791 C 0.91695 0.11582 0.80064 0.0
C792 C 0.89829 0.11754 0.85462 0.0
C793 C 0.92333 0.07933 0.90375 0.0
H794 H 0.86851 0.08992 0.9591 0.0
C795 C 0.92402 0.06872 0.03703 0.0
C796 C 0.91562 0.08751 0.05675 0.0
C797 C 0.9185 0.06507 1.00516 0.0
C798 C 0.8839 0.08675 0.9439 0.0
H799 H 0.93409 0.08444 0.78506 0.0
H800 H 0.92517 0.06746 0.83565 0.0
H801 H 0.86931 0.09685 0.90232 0.0
H802 H 0.89371 0.11632 0.05963 0.0
H803 H 0.88457 0.11046 1.00377 0.0
H804 H 0.93847 0.07066 0.9453 0.0
C805 C 0.9189 0.08412 0.83314 0.0
C806 C 0.88434 0.09068 0.91142 0.0
C807 C 0.9241 0.09389 0.80428 0.0
C808 C 0.9003 0.10164 0.04488 0.0
C809 C 0.895 0.09819 1.01287 0.0
C810 C 0.92295 0.07554 0.93616 0.0
C811 C 0.90642 0.0961 0.85889 0.0
C812 C 0.90431 0.08774 0.8913 0.0
C813 C 0.90479 0.08039 0.99227 0.0
C814 C 0.90347 0.07995 0.9569 0.0
H815 H 0.89795 0.14433 0.82398 0.0
H816 H 0.88896 0.12736 0.87417 0.0
H817 H 0.93907 0.07718 0.88902 0.0
H818 H 0.93566 0.05743 0.04588 0.0
H819 H 0.92589 0.0509 0.99017 0.0
C820 C 0.697 0.09758 0.76944 0.0
C821 C 0.68961 0.11996 0.77676 0.0
C822 C 0.70066 0.08856 0.73737 0.0
C823 C 0.71117 0.10539 0.65526 0.0
H824 H 0.67289 0.05478 0.62785 0.0
C825 C 0.65253 0.08593 0.54871 0.0
C826 C 0.66645 0.09463 0.52391 0.0
C827 C 0.66163 0.08011 0.5765 0.0
C828 C 0.68395 0.06873 0.63509 0.0
H829 H 0.67982 0.15009 0.75586 0.0
H830 H 0.68694 0.1347 0.70056 0.0
H831 H 0.67807 0.06346 0.68512 0.0
H832 H 0.70119 0.10165 0.50738 0.0
H833 H 0.71708 0.09075 0.55532 0.0
H834 H 0.71557 0.11213 0.60609 0.0
C835 C 0.69019 0.12424 0.71954 0.0
C836 C 0.68706 0.07354 0.66782 0.0
C837 C 0.68619 0.13308 0.75134 0.0
C838 C 0.68992 0.09511 0.52604 0.0
C839 C 0.69904 0.08903 0.55369 0.0
C840 C 0.70807 0.10064 0.62269 0.0
C841 C 0.69737 0.10192 0.71222 0.0
C842 C 0.69967 0.09268 0.67819 0.0
C843 C 0.68488 0.08267 0.57994 0.0
C844 C 0.69339 0.08304 0.61241 0.0
H845 H 0.69999 0.08705 0.78841 0.0
H846 H 0.70607 0.07124 0.7322 0.0
H847 H 0.72117 0.12011 0.66275 0.0
H848 H 0.63444 0.08473 0.54741 0.0
H849 H 0.65014 0.07533 0.59619 0.0
C850 C 0.67757 0.92717 0.41788 0.0
C851 C 0.65395 0.92808 0.4232 0.0
C852 C 0.68785 0.92667 0.3867 0.0
C853 C 0.6949 0.89613 0.3262 0.0
H854 H 0.67473 0.91794 0.24904 0.0
C855 C 0.69795 0.83641 0.21297 0.0
C856 C 0.67842 0.83608 0.19639 0.0
C857 C 0.70291 0.85501 0.23423 0.0
C858 C 0.68053 0.91159 0.27033 0.0
H859 H 0.6231 0.93323 0.40073 0.0
H860 H 0.64094 0.93136 0.34619 0.0
H861 H 0.66863 0.94074 0.30054 0.0
H862 H 0.64937 0.85497 0.18714 0.0
H863 H 0.65678 0.8866 0.22613 0.0
H864 H 0.70466 0.86616 0.29765 0.0
C865 C 0.65154 0.93104 0.36602 0.0
C866 C 0.67723 0.9248 0.29974 0.0
C867 C 0.64125 0.93177 0.39727 0.0
C868 C 0.66452 0.85497 0.1999 0.0
C869 C 0.66899 0.87323 0.22204 0.0
C870 C 0.6978 0.88281 0.29714 0.0
C871 C 0.67471 0.92678 0.3603 0.0
C872 C 0.68356 0.91673 0.32818 0.0
C873 C 0.68785 0.87316 0.24041 0.0
C874 C 0.68973 0.88984 0.26901 0.0
H875 H 0.68799 0.92446 0.4372 0.0
H876 H 0.70582 0.92382 0.383 0.0
H877 H 0.6997 0.88918 0.34768 0.0
H878 H 0.70911 0.82209 0.20998 0.0
H879 H 0.71804 0.85463 0.24689 0.0
C880 C 0.61689 0.71644 0.37712 0.0
C881 C 0.60266 0.72131 0.35326 0.0
C882 C 0.60809 0.70951 0.40707 0.0
C883 C 0.55387 0.70606 0.46108 0.0
H884 H 0.58831 0.66518 0.50436 0.0
C885 C 0.51619 0.6633 0.57535 0.0
C886 C 0.53046 0.66066 0.60007 0.0
C887 C 0.52472 0.67084 0.5456 0.0
C888 C 0.57846 0.67679 0.49291 0.0
H889 H 0.56742 0.72299 0.34387 0.0
H890 H 0.55232 0.71031 0.39492 0.0
H891 H 0.60336 0.67782 0.45311 0.0
H892 H 0.56523 0.66406 0.61203 0.0
H893 H 0.57995 0.67696 0.56065 0.0
H894 H 0.52881 0.70465 0.50082 0.0
C895 C 0.57041 0.71211 0.39081 0.0
C896 C 0.5872 0.68418 0.46324 0.0
C897 C 0.57921 0.71915 0.36093 0.0
C898 C 0.55357 0.66576 0.59383 0.0
C899 C 0.56211 0.67309 0.56404 0.0
C900 C 0.54506 0.69851 0.49065 0.0
C901 C 0.58464 0.70702 0.41456 0.0
C902 C 0.57516 0.69905 0.44663 0.0
C903 C 0.54788 0.67582 0.53929 0.0
C904 C 0.55719 0.68376 0.50725 0.0
H905 H 0.63501 0.71755 0.37255 0.0
H906 H 0.61986 0.70625 0.42446 0.0
H907 H 0.54402 0.71777 0.44986 0.0
H908 H 0.49833 0.65959 0.57896 0.0
H909 H 0.51311 0.67243 0.52731 0.0
C910 C 0.64238 0.23763 0.82974 0.0
C911 C 0.64718 0.25243 0.85678 0.0
C912 C 0.63375 0.24563 0.80245 0.0
C913 C 0.62807 0.29789 0.75961 0.0
H914 H 0.58144 0.2634 0.71666 0.0
C915 C 0.58351 0.33413 0.65564 0.0
C916 C 0.57422 0.31948 0.63137 0.0
C917 C 0.59242 0.3259 0.68254 0.0
C918 C 0.59472 0.27324 0.72776 0.0
H919 H 0.64647 0.28767 0.87543 0.0
H920 H 0.63191 0.30159 0.82792 0.0
H921 H 0.59685 0.24952 0.76326 0.0
H922 H 0.56759 0.284 0.61763 0.0
H923 H 0.58386 0.26974 0.66317 0.0
H924 H 0.62647 0.32135 0.72392 0.0
C925 C 0.63486 0.28367 0.82776 0.0
C926 C 0.60358 0.2652 0.75489 0.0
C927 C 0.64323 0.27562 0.85524 0.0
C928 C 0.57465 0.29611 0.63515 0.0
C929 C 0.58378 0.28784 0.66196 0.0
C930 C 0.61942 0.30581 0.73226 0.0
C931 C 0.62979 0.26882 0.80085 0.0
C932 C 0.62038 0.27739 0.77148 0.0
C933 C 0.59281 0.30255 0.68643 0.0
C934 C 0.60244 0.29374 0.7157 0.0
H935 H 0.645 0.21966 0.82972 0.0
H936 H 0.63038 0.23355 0.78235 0.0
H937 H 0.64118 0.30774 0.77114 0.0
H938 H 0.58411 0.35219 0.65397 0.0
H939 H 0.59873 0.33813 0.70055 0.0
C940 C 4e-05 0.33715 0.99624 0.0
C941 C 0.02266 0.34469 0.99675 0.0
C942 C 0.99136 0.32725 0.96772 0.0
C943 C 0.00247 0.32075 0.87717 0.0
H944 H 0.9582 0.2722 0.88259 0.0
C945 C 0.95613 0.28322 0.76452 0.0
C946 C 0.9513 0.25981 0.76131 0.0
C947 C 0.96455 0.29384 0.79289 0.0
C948 C 0.97065 0.28563 0.88035 0.0
H949 H 0.05373 0.34752 0.9666 0.0
H950 H 0.03875 0.3303 0.91717 0.0
H951 H 0.97361 0.28947 0.93137 0.0
H952 H 0.95172 0.22946 0.7863 0.0
H953 H 0.96619 0.24775 0.83519 0.0
H954 H -0.00025 0.31662 0.82601 0.0
C955 C 0.02752 0.33222 0.93886 0.0
C956 C 0.97938 0.29583 0.90867 0.0
C957 C 0.03624 0.34205 0.96747 0.0
C958 C 0.95503 0.2475 0.78762 0.0
C959 C 0.9633 0.25811 0.81599 0.0
C960 C 0.99365 0.31061 0.84882 0.0
C961 C 0.0049 0.32451 0.93838 0.0
C962 C 0.99551 0.3136 0.90774 0.0
C963 C 0.96835 0.2815 0.81924 0.0
C964 C 0.97759 0.29277 0.84977 0.0
H965 H 0.98888 0.33882 1.01803 0.0
H966 H 0.97381 0.32198 0.96869 0.0
H967 H 0.01462 0.33446 0.87504 0.0
H968 H 0.9537 0.29337 0.7449 0.0
H969 H 0.9679 0.31186 0.79419 0.0
C970 C 0.96207 0.71775 0.23268 0.0
C971 C 0.94727 0.73617 0.23807 0.0
C972 C 0.97163 0.71062 0.20183 0.0
C973 C 0.96722 0.71459 0.11329 0.0
H974 H 0.02691 0.68918 0.10807 0.0
C975 C 0.00837 0.66843 0.99333 0.0
C976 C 0.032 0.66922 0.9873 0.0
C977 C -0.0022 0.67731 1.02307 0.0
C978 C 0.01036 0.69642 0.10865 0.0
H979 H 0.93086 0.76125 0.21402 0.0
H980 H 0.94798 0.74908 0.15985 0.0
H981 H 0.00967 0.70431 0.1596 0.0
H982 H 0.06284 0.68064 1.00834 0.0
H983 H 0.0447 0.69642 0.05927 0.0
H984 H 0.96838 0.70732 0.06191 0.0
C985 C 0.95197 0.73996 0.17985 0.0
C986 C 0.00016 0.70487 0.13869 0.0
C987 C 0.94218 0.74707 0.21105 0.0
C988 C 0.04466 0.67935 1.01196 0.0
C989 C 0.03413 0.68838 0.04153 0.0
C990 C 0.97753 0.70624 0.08305 0.0
C991 C 0.96708 0.72167 0.17473 0.0
C992 C 0.97827 0.71388 0.1418 0.0
C993 C 0.01047 0.68749 0.04785 0.0
C994 C -0.00071 0.69684 0.08013 0.0
H995 H 0.96632 0.70851 0.25246 0.0
H996 H 0.98248 0.6961 0.19934 0.0
H997 H 0.95037 0.72121 0.1143 0.0
H998 H -0.00207 0.66089 0.97502 0.0
H999 H 0.97965 0.67588 0.02669 0.0
C1000 C 0.44567 0.38824 0.50962 0.0
C1001 C 0.44619 0.37559 0.47959 0.0
C1002 C 0.42574 0.39023 0.52932 0.0
C1003 C 0.37717 0.35464 0.54623 0.0
H1004 H 0.37242 0.39887 0.6204 0.0
C1005 C 0.38334 0.33059 0.66943 0.0
C1006 C 0.37385 0.343 0.69726 0.0
C1007 C 0.37947 0.33651 0.63902 0.0
C1008 C 0.37274 0.38653 0.59965 0.0
H1009 H 0.42579 0.35704 0.4451 0.0
H1010 H 0.3907 0.36041 0.47979 0.0
H1011 H 0.3891 0.40985 0.56908 0.0
H1012 H 0.35185 0.37087 0.71459 0.0
H1013 H 0.3458 0.38184 0.66087 0.0
H1014 H 0.36182 0.33107 0.57723 0.0
C1015 C 0.40585 0.36856 0.48824 0.0
C1016 C 0.38257 0.39276 0.57026 0.0
C1017 C 0.42593 0.36662 0.46839 0.0
C1018 C 0.35969 0.36113 0.6937 0.0
C1019 C 0.35603 0.36729 0.66298 0.0
C1020 C 0.367 0.34853 0.57544 0.0
C1021 C 0.40575 0.37958 0.51951 0.0
C1022 C 0.38687 0.3763 0.54421 0.0
C1023 C 0.36623 0.35524 0.63534 0.0
C1024 C 0.36672 0.36385 0.60312 0.0
H1025 H 0.46092 0.39579 0.51868 0.0
H1026 H 0.42656 0.39864 0.55327 0.0
H1027 H 0.37979 0.34153 0.52662 0.0
H1028 H 0.39484 0.31695 0.67094 0.0
H1029 H 0.3882 0.32725 0.61838 0.0
C1030 C 0.38832 0.60498 0.54231 0.0
C1031 C 0.40273 0.59061 0.55554 0.0
C1032 C 0.3833 0.60083 0.51026 0.0
C1033 C 0.41145 0.57524 0.43551 0.0
H1034 H 0.36025 0.59923 0.39877 0.0
C1035 C 0.41683 0.59374 0.30312 0.0
C1036 C 0.41129 0.61618 0.29944 0.0
C1037 C 0.41047 0.58412 0.3318 0.0
C1038 C 0.37458 0.59226 0.40867 0.0
H1039 H 0.42122 0.5594 0.5471 0.0
H1040 H 0.41195 0.55172 0.49128 0.0
H1041 H 0.35757 0.59266 0.45576 0.0
H1042 H 0.39404 0.64583 0.32268 0.0
H1043 H 0.3829 0.62907 0.37238 0.0
H1044 H 0.42878 0.57574 0.38891 0.0
C1045 C 0.40509 0.56658 0.50525 0.0
C1046 C 0.37307 0.58855 0.44128 0.0
C1047 C 0.41033 0.5709 0.5372 0.0
C1048 C 0.39834 0.62841 0.32447 0.0
C1049 C 0.39188 0.61877 0.35299 0.0
C1050 C 0.41288 0.5788 0.40294 0.0
C1051 C 0.39245 0.5821 0.49094 0.0
C1052 C 0.39185 0.58092 0.45538 0.0
C1053 C 0.39833 0.59672 0.35726 0.0
C1054 C 0.39481 0.58824 0.38952 0.0
H1055 H 0.38236 0.62037 0.55592 0.0
H1056 H 0.37371 0.6133 0.50007 0.0
H1057 H 0.42638 0.56964 0.44549 0.0
H1058 H 0.42641 0.58371 0.28406 0.0
H1059 H 0.41551 0.56702 0.33437 0.0
C1060 C 0.19499 0.60697 0.25898 0.0
C1061 C 0.19258 0.62968 0.27123 0.0
C1062 C 0.19987 0.60142 0.22595 0.0
C1063 C 0.21677 0.62731 0.14923 0.0
H1064 H 0.17521 0.5829 0.11262 0.0
C1065 C 0.19335 0.63206 1.02064 0.0
C1066 C 0.16993 0.63121 1.01818 0.0
C1067 C 0.20256 0.62413 0.04715 0.0
C1068 C 0.18702 0.59531 0.12239 0.0
H1069 H 0.19493 0.66437 0.25904 0.0
H1070 H 0.20254 0.65483 0.20185 0.0
H1071 H 0.18051 0.58485 0.16979 0.0
H1072 H 0.13807 0.61942 0.04002 0.0
H1073 H 0.15374 0.60697 0.0868 0.0
H1074 H 0.22147 0.63944 0.10281 0.0
C1075 C 0.20102 0.6412 0.2174 0.0
C1076 C 0.19032 0.5962 0.15516 0.0
C1077 C 0.1962 0.6467 0.2502 0.0
C1078 C 0.15611 0.62096 0.04166 0.0
C1079 C 0.16523 0.61332 0.06825 0.0
C1080 C 0.21316 0.62671 0.11664 0.0
C1081 C 0.20254 0.6185 0.20472 0.0
C1082 C 0.20421 0.61312 0.16927 0.0
C1083 C 0.1885 0.6154 0.07187 0.0
C1084 C 0.19721 0.61157 0.10327 0.0
H1085 H 0.19238 0.59352 0.27474 0.0
H1086 H 0.20106 0.58378 0.21695 0.0
H1087 H 0.22816 0.64008 0.15921 0.0
H1088 H 0.2045 0.63975 1.00287 0.0
H1089 H 0.22059 0.62564 0.04883 0.0
C1090 C 0.16023 0.36402 0.69955 0.0
C1091 C 0.17086 0.34386 0.70435 0.0
C1092 C 0.16262 0.38325 0.72096 0.0
C1093 C 0.15261 0.40621 0.78854 0.0
H1094 H 0.20559 0.42273 0.83412 0.0
C1095 C 0.17404 0.41058 0.92392 0.0
C1096 C 0.15324 0.41841 0.93836 0.0
C1097 C 0.18028 0.41356 0.89176 0.0
C1098 C 0.19061 0.41847 0.82162 0.0
H1099 H 0.19396 0.32848 0.7331 0.0
H1100 H 0.19825 0.36201 0.7703 0.0
H1101 H 0.2099 0.40376 0.77975 0.0
H1102 H 0.1241 0.43826 0.93167 0.0
H1103 H 0.13545 0.44434 0.87592 0.0
H1104 H 0.13312 0.41843 0.83108 0.0
C1105 C 0.18806 0.36305 0.75016 0.0
C1106 C 0.19313 0.40776 0.79041 0.0
C1107 C 0.18538 0.34376 0.72914 0.0
C1108 C 0.14014 0.43178 0.92119 0.0
C1109 C 0.14656 0.43507 0.88906 0.0
C1110 C 0.15007 0.41655 0.81986 0.0
C1111 C 0.17599 0.38269 0.74708 0.0
C1112 C 0.17409 0.40036 0.7744 0.0
C1113 C 0.16598 0.42474 0.87336 0.0
C1114 C 0.16901 0.42146 0.83756 0.0
H1115 H 0.14893 0.36452 0.68058 0.0
H1116 H 0.15311 0.39818 0.71812 0.0
H1117 H 0.1376 0.40063 0.77683 0.0
H1118 H 0.18486 0.40081 0.93685 0.0
H1119 H 0.19537 0.40531 0.88081 0.0
C1120 C 0.072 0.29677 0.11308 0.0
C1121 C 0.05947 0.31626 0.12239 0.0
C1122 C 0.08001 0.28428 0.13635 0.0
C1123 C 0.06856 0.27477 0.22226 0.0
H1124 H 0.11004 0.22712 0.19091 0.0
C1125 C 0.04257 0.18819 0.24273 0.0
C1126 C 0.03435 0.18264 0.21242 0.0
C1127 C 0.05964 0.2045 0.24637 0.0
C1128 C 0.09923 0.24079 0.20115 0.0
H1129 H 0.04453 0.33721 0.16349 0.0
H1130 H 0.0602 0.31712 0.20352 0.0
H1131 H 0.11265 0.26282 0.16664 0.0
H1132 H 0.03828 0.1879 0.16181 0.0
H1133 H 0.068 0.21633 0.16788 0.0
H1134 H 0.05443 0.25228 0.25541 0.0
C1135 C 0.06342 0.31079 0.17853 0.0
C1136 C 0.10021 0.26103 0.1866 0.0
C1137 C 0.05447 0.32251 0.15537 0.0
C1138 C 0.04415 0.19236 0.18546 0.0
C1139 C 0.06155 0.20813 0.18889 0.0
C1140 C 0.06811 0.25486 0.23736 0.0
C1141 C 0.07628 0.2914 0.16948 0.0
C1142 C 0.08285 0.27679 0.19413 0.0
C1143 C 0.06897 0.21487 0.2195 0.0
C1144 C 0.08107 0.23663 0.22338 0.0
H1145 H 0.07608 0.29149 0.08785 0.0
H1146 H 0.08892 0.26891 0.12811 0.0
H1147 H 0.0554 0.28675 0.23001 0.0
H1148 H 0.03517 0.18055 0.26371 0.0
H1149 H 0.06471 0.20986 0.27022 0.0
C1150 C 0.98726 0.80406 0.33478 0.0
C1151 C 0.97549 0.78558 0.34716 0.0
C1152 C 0.0055 0.81397 0.35029 0.0
C1153 C 0.03415 0.81319 0.42632 0.0
H1154 H 0.08738 0.80164 0.36843 0.0
C1155 C 0.0977 0.74209 0.40872 0.0
C1156 C 0.10852 0.74205 0.43722 0.0
C1157 C 0.08669 0.76123 0.40205 0.0
C1158 C 0.07288 0.80571 0.38512 0.0
H1159 H 0.97351 0.76288 0.38507 0.0
H1160 H 0.00525 0.77959 0.41144 0.0
H1161 H 0.05299 0.81278 0.34714 0.0
H1162 H 0.11493 0.76111 0.48229 0.0
H1163 H 0.09462 0.79476 0.47102 0.0
H1164 H 0.05302 0.8023 0.46325 0.0
C1165 C 0.00017 0.78706 0.39052 0.0
C1166 C 0.05316 0.81225 0.37293 0.0
C1167 C 0.98225 0.77711 0.37498 0.0
C1168 C 0.10691 0.76099 0.45994 0.0
C1169 C 0.0956 0.78023 0.45337 0.0
C1170 C 0.05374 0.80615 0.43837 0.0
C1171 C 0.01195 0.80567 0.37853 0.0
C1172 C 0.03305 0.81317 0.39285 0.0
C1173 C 0.08595 0.78068 0.42391 0.0
C1174 C 0.07225 0.79974 0.41692 0.0
H1175 H 0.98221 0.811 0.31344 0.0
H1176 H 0.01463 0.82796 0.3402 0.0
H1177 H 0.01894 0.81476 0.44235 0.0
H1178 H 0.09859 0.72772 0.3908 0.0
H1179 H 0.07853 0.76068 0.37974 0.0
C1180 C 0.49534 0.72055 0.71873 0.0
C1181 C 0.50447 0.70043 0.72636 0.0
C1182 C 0.50379 0.74121 0.73126 0.0
C1183 C 0.559 0.7599 0.73998 0.0
H1184 H 0.52751 0.81477 0.73019 0.0
C1185 C 0.58928 0.81645 0.6425 0.0
C1186 C 0.57187 0.81963 0.62254 0.0
C1187 C 0.58442 0.80943 0.67317 0.0
C1188 C 0.53677 0.79985 0.73356 0.0
H1189 H 0.52744 0.68577 0.75601 0.0
H1190 H 0.54308 0.72206 0.77696 0.0
H1191 H 0.50954 0.78665 0.76302 0.0
H1192 H 0.53605 0.81646 0.61796 0.0
H1193 H 0.52744 0.80312 0.67111 0.0
H1194 H 0.58505 0.77176 0.70756 0.0
C1195 C 0.52928 0.7219 0.76154 0.0
C1196 C 0.52662 0.78385 0.75263 0.0
C1197 C 0.52059 0.70117 0.7492 0.0
C1198 C 0.54963 0.81459 0.63315 0.0
C1199 C 0.54477 0.80734 0.66376 0.0
C1200 C 0.56917 0.77591 0.72102 0.0
C1201 C 0.52183 0.74209 0.75123 0.0
C1202 C 0.53645 0.76254 0.75228 0.0
C1203 C 0.56209 0.80502 0.68425 0.0
C1204 C 0.55693 0.79474 0.71485 0.0
H1205 H 0.48254 0.72039 0.70168 0.0
H1206 H 0.49772 0.75636 0.72247 0.0
H1207 H 0.56738 0.74391 0.74 0.0
H1208 H 0.60668 0.82023 0.63496 0.0
H1209 H 0.59811 0.8075 0.68823 0.0
C1210 C 0.60209 0.25554 0.93389 0.0
C1211 C 0.61007 0.24552 0.95962 0.0
C1212 C 0.58941 0.27502 0.93967 0.0
C1213 C 0.5447 0.29064 0.9901 0.0
H1214 H 0.54341 0.33232 0.92447 0.0
C1215 C 0.47451 0.28029 0.90905 0.0
C1216 C 0.48078 0.28215 0.87632 0.0
C1217 C 0.48752 0.29022 0.93278 0.0
C1218 C 0.54334 0.32072 0.94296 0.0
H1219 H 0.61179 0.24772 1.01126 0.0
H1220 H 0.58793 0.28127 1.02175 0.0
H1221 H 0.5788 0.32526 0.94679 0.0
H1222 H 0.50619 0.29507 0.84265 0.0
H1223 H 0.53094 0.30928 0.88358 0.0
H1224 H 0.51061 0.28286 0.98314 0.0
C1225 C 0.59243 0.27466 0.99713 0.0
C1226 C 0.56354 0.31724 0.95646 0.0
C1227 C 0.60565 0.25539 0.9912 0.0
C1228 C 0.50101 0.29328 0.86772 0.0
C1229 C 0.51484 0.30207 0.89147 0.0
C1230 C 0.52471 0.29354 0.97602 0.0
C1231 C 0.58396 0.28445 0.97137 0.0
C1232 C 0.56476 0.29981 0.97669 0.0
C1233 C 0.50827 0.30071 0.9245 0.0
C1234 C 0.52461 0.30647 0.94938 0.0
H1235 H 0.60562 0.24833 0.90932 0.0
H1236 H 0.58252 0.28176 0.91938 0.0
H1237 H 0.54508 0.27769 1.00668 0.0
H1238 H 0.4592 0.27159 0.91664 0.0
H1239 H 0.48129 0.28915 0.9576 0.0
C1240 C 0.95222 0.80225 0.94326 0.0
C1241 C 0.97056 0.80944 0.92344 0.0
C1242 C 0.93714 0.78585 0.93112 0.0
C1243 C 0.93979 0.74137 0.86009 0.0
H1244 H 0.95078 0.70964 0.93362 0.0
C1245 C 0.01787 0.68831 0.85652 0.0
C1246 C 0.03039 0.69578 0.88273 0.0
C1247 C 0.99494 0.69299 0.85718 0.0
C1248 C 0.94763 0.7181 0.91257 0.0
H1249 H 0.98563 0.80818 0.87457 0.0
H1250 H 0.96048 0.77952 0.85359 0.0
H1251 H 0.9272 0.74235 0.9407 0.0
H1252 H 0.02899 0.71403 0.92998 0.0
H1253 H 0.98947 0.72339 0.93061 0.0
H1254 H 0.96296 0.71889 0.8326 0.0
C1255 C 0.95713 0.78585 0.87852 0.0
C1256 C 0.93385 0.73697 0.91648 0.0
C1257 C 0.97197 0.80233 0.89058 0.0
C1258 C 0.01978 0.70832 0.90935 0.0
C1259 C -0.00307 0.71309 0.90998 0.0
C1260 C 0.95434 0.72301 0.8561 0.0
C1261 C 0.94087 0.77565 0.89937 0.0
C1262 C 0.93415 0.75139 0.89147 0.0
C1263 C 0.98415 0.70537 0.884 0.0
C1264 C 0.96079 0.71347 0.88345 0.0
H1265 H 0.95021 0.80838 0.9685 0.0
H1266 H 0.92399 0.77969 0.94759 0.0
H1267 H 0.93752 0.75047 0.83934 0.0
H1268 H 0.0257 0.67833 0.83581 0.0
H1269 H 0.98571 0.68693 0.83673 0.0
C1270 C 0.60231 0.83238 0.16605 0.0
C1271 C 0.60877 0.81342 0.14525 0.0
C1272 C 0.58627 0.84705 0.15742 0.0
C1273 C 0.54016 0.84036 0.09973 0.0
H1274 H 0.50978 0.83519 0.18378 0.0
C1275 C 0.49885 0.7662 0.16885 0.0
C1276 C 0.48596 0.75498 0.14566 0.0
C1277 C 0.50639 0.78832 0.16547 0.0
C1278 C 0.51798 0.83652 0.15995 0.0
H1279 H 0.60693 0.79698 0.09725 0.0
H1280 H 0.57865 0.82134 0.08256 0.0
H1281 H 0.5437 0.85773 0.17878 0.0
H1282 H 0.47112 0.75748 0.10063 0.0
H1283 H 0.48365 0.79635 0.09501 0.0
H1284 H 0.51592 0.81669 0.08129 0.0
C1285 C 0.58526 0.82545 0.10573 0.0
C1286 C 0.53753 0.84976 0.15684 0.0
C1287 C 0.60152 0.81108 0.11416 0.0
C1288 C 0.48092 0.76603 0.11892 0.0
C1289 C 0.4881 0.78826 0.11574 0.0
C1290 C 0.5211 0.82634 0.10274 0.0
C1291 C 0.57549 0.84212 0.12868 0.0
C1292 C 0.55111 0.84778 0.12754 0.0
C1293 C 0.501 0.79974 0.13896 0.0
C1294 C 0.5118 0.82202 0.13359 0.0
H1295 H 0.60864 0.83514 0.18969 0.0
H1296 H 0.5807 0.86072 0.17488 0.0
H1297 H 0.54861 0.84126 0.076 0.0
H1298 H 0.50275 0.75809 0.18986 0.0
H1299 H 0.51695 0.79619 0.18336 0.0
C1300 C 0.5773 0.20026 0.32376 0.0
C1301 C 0.56652 0.19739 0.35426 0.0
C1302 C 0.56558 0.20921 0.3002 0.0
C1303 C 0.50829 0.23223 0.2899 0.0
H1304 H 0.54592 0.28475 0.27707 0.0
C1305 C 0.49093 0.30666 0.37428 0.0
C1306 C 0.51052 0.30982 0.3909 0.0
C1307 C 0.49204 0.29593 0.34295 0.0
C1308 C 0.53486 0.2702 0.27978 0.0
H1309 H 0.53556 0.20201 0.3845 0.0
H1310 H 0.51553 0.21849 0.34492 0.0
H1311 H 0.56226 0.24773 0.2683 0.0
H1312 H 0.54655 0.30493 0.38802 0.0
H1313 H 0.54862 0.28586 0.33468 0.0
H1314 H 0.48227 0.25497 0.30845 0.0
C1315 C 0.53252 0.21289 0.33784 0.0
C1316 C 0.54429 0.24874 0.27452 0.0
C1317 C 0.54412 0.20382 0.36102 0.0
C1318 C 0.53117 0.30247 0.37583 0.0
C1319 C 0.53235 0.29202 0.34471 0.0
C1320 C 0.49926 0.25376 0.29717 0.0
C1321 C 0.54303 0.21585 0.30701 0.0
C1322 C 0.53189 0.23023 0.28574 0.0
C1323 C 0.5128 0.28833 0.32779 0.0
C1324 C 0.51398 0.27261 0.29792 0.0
H1325 H 0.59462 0.19524 0.31792 0.0
H1326 H 0.57432 0.21139 0.27696 0.0
H1327 H 0.49778 0.21775 0.29543 0.0
H1328 H 0.47485 0.31258 0.38545 0.0
H1329 H 0.47667 0.29326 0.33082 0.0
C1330 C 0.09607 0.33711 0.67693 0.0
C1331 C 0.10214 0.31779 0.6566 0.0
C1332 C 0.08004 0.35177 0.66818 0.0
C1333 C 0.03423 0.34658 0.61 0.0
H1334 H 0.00307 0.33983 0.69311 0.0
C1335 C 0.99457 0.27057 0.67497 0.0
C1336 C 0.98266 0.25916 0.65079 0.0
C1337 C 0.00095 0.29315 0.67295 0.0
C1338 C 0.01145 0.34164 0.66952 0.0
H1339 H 0.09936 0.30045 0.60934 0.0
H1340 H 0.0712 0.32485 0.59441 0.0
H1341 H 0.03732 0.36201 0.68967 0.0
H1342 H 0.9682 0.26192 0.60556 0.0
H1343 H 0.9787 0.30159 0.60228 0.0
H1344 H 0.01009 0.32342 0.59016 0.0
C1345 C 0.0782 0.32932 0.61724 0.0
C1346 C 0.03116 0.35473 0.66734 0.0
C1347 C 0.09435 0.31491 0.62585 0.0
C1348 C 0.97726 0.27058 0.62458 0.0
C1349 C 0.98329 0.29328 0.62275 0.0
C1350 C 0.01505 0.33264 0.61206 0.0
C1351 C 0.06906 0.34663 0.63967 0.0
C1352 C 0.04498 0.35315 0.63825 0.0
C1353 C 0.99538 0.30488 0.64682 0.0
C1354 C 0.00552 0.32762 0.64252 0.0
H1355 H 0.10278 0.34024 0.70028 0.0
H1356 H 0.07471 0.36573 0.68532 0.0
H1357 H 0.04304 0.34776 0.58655 0.0
H1358 H -0.00131 0.26217 0.69562 0.0
H1359 H 0.01091 0.3011 0.69151 0.0
C1360 C 0.03834 0.04419 0.15492 0.0
C1361 C 0.02459 0.06325 0.15731 0.0
C1362 C 0.03536 0.02621 0.1317 0.0
C1363 C 0.99622 0.99986 0.07392 0.0
H1364 H 0.05141 0.97498 0.03053 0.0
C1365 C 0.99646 0.93805 0.95883 0.0
C1366 C 0.01138 0.91984 0.95555 0.0
C1367 C -0.00236 0.95511 0.98396 0.0
C1368 C 0.03583 0.98148 0.04264 0.0
H1369 H 0.99628 0.07802 0.13819 0.0
H1370 H 0.99101 0.04655 0.09692 0.0
H1371 H 0.05335 0.00541 0.0733 0.0
H1372 H 0.03948 0.90538 0.97583 0.0
H1373 H 0.04157 0.93523 1.02011 0.0
H1374 H 0.97871 0.97592 0.04301 0.0
C1375 C 0.00409 0.04547 0.11328 0.0
C1376 C 0.03691 0.99899 0.06723 0.0
C1377 C 0.00705 0.06352 0.13683 0.0
C1378 C 0.02776 0.9192 0.97779 0.0
C1379 C 0.02898 0.93636 1.00303 0.0
C1380 C 0.99512 0.9823 0.04927 0.0
C1381 C 0.01862 0.02682 0.10994 0.0
C1382 C 0.01714 0.00838 0.08334 0.0
C1383 C 0.01382 0.95449 1.00654 0.0
C1384 C 0.01493 0.97286 0.0333 0.0
H1385 H 0.0519 0.04338 0.17057 0.0
H1386 H 0.04647 0.01193 0.13051 0.0
H1387 H 0.98066 0.00648 0.08597 0.0
H1388 H 0.98363 0.93906 0.94207 0.0
H1389 H 0.98595 0.96894 0.98547 0.0
C1390 C 0.2212 0.7338 0.36129 0.0
C1391 C 0.22143 0.72798 0.39298 0.0
C1392 C 0.23921 0.72843 0.33867 0.0
C1393 C 0.29355 0.69675 0.3231 0.0
H1394 H 0.30637 0.74286 0.26408 0.0
C1395 C 0.3776 0.70841 0.24099 0.0
C1396 C 0.37458 0.7131 0.20925 0.0
C1397 C 0.35892 0.70643 0.26338 0.0
C1398 C 0.30294 0.72972 0.2802 0.0
H1399 H 0.24023 0.71116 0.42572 0.0
H1400 H 0.2725 0.70257 0.38652 0.0
H1401 H 0.27411 0.74677 0.3031 0.0
H1402 H 0.34957 0.71792 0.17564 0.0
H1403 H 0.31724 0.71485 0.21462 0.0
H1404 H 0.3234 0.68037 0.30046 0.0
C1405 C 0.2581 0.71081 0.37878 0.0
C1406 C 0.28426 0.73183 0.30255 0.0
C1407 C 0.23965 0.71573 0.40133 0.0
C1408 C 0.35252 0.71449 0.19994 0.0
C1409 C 0.33397 0.7128 0.22229 0.0
C1410 C 0.3126 0.69484 0.3009 0.0
C1411 C 0.25843 0.71773 0.34733 0.0
C1412 C 0.27896 0.71524 0.32407 0.0
C1413 C 0.33694 0.70941 0.25448 0.0
C1414 C 0.31728 0.71118 0.2789 0.0
H1415 H 0.20719 0.743 0.35411 0.0
H1416 H 0.23824 0.73324 0.31449 0.0
H1417 H 0.2901 0.68356 0.33909 0.0
H1418 H 0.39439 0.70724 0.2489 0.0
H1419 H 0.36172 0.70381 0.28803 0.0
C1420 C 0.54677 0.07006 0.42499 0.0
C1421 C 0.56394 0.08659 0.42363 0.0
C1422 C 0.55058 0.04923 0.43628 0.0
C1423 C 0.5812 0.02232 0.49254 0.0
H1424 H 0.56078 0.96705 0.44634 0.0
C1425 C 0.57493 0.93644 0.55017 0.0
C1426 C 0.55526 0.92365 0.54457 0.0
C1427 C 0.58063 0.95515 0.53276 0.0
C1428 C 0.56647 0.9823 0.45971 0.0
H1429 H 0.59856 0.09445 0.43333 0.0
H1430 H 0.60511 0.05788 0.45432 0.0
H1431 H 0.56256 0.00217 0.42033 0.0
H1432 H 0.5262 0.92036 0.51635 0.0
H1433 H 0.53566 0.95299 0.4868 0.0
H1434 H 0.58385 0.00276 0.53264 0.0
C1435 C 0.58884 0.06104 0.44589 0.0
C1436 C 0.56764 0.00239 0.44466 0.0
C1437 C 0.58516 0.08185 0.43373 0.0
C1438 C 0.54152 0.92982 0.52117 0.0
C1439 C 0.54711 0.94846 0.50394 0.0
C1440 C 0.57978 0.00221 0.50781 0.0
C1441 C 0.57152 0.04453 0.44723 0.0
C1442 C 0.57439 0.02274 0.4612 0.0
C1443 C 0.56671 0.96148 0.50947 0.0
C1444 C 0.57167 0.98207 0.49192 0.0
H1445 H 0.53023 0.07329 0.41746 0.0
H1446 H 0.53684 0.03698 0.43738 0.0
H1447 H 0.58633 0.0378 0.50592 0.0
H1448 H 0.5857 0.93226 0.56835 0.0
H1449 H 0.5959 0.96467 0.53759 0.0
C1450 C 0.34395 0.24856 0.82446 0.0
C1451 C 0.36537 0.25181 0.80873 0.0
C1452 C 0.32441 0.25119 0.80853 0.0
C1453 C 0.3023 0.28166 0.74757 0.0
H1454 H 0.25975 0.23218 0.73282 0.0
C1455 C 0.2329 0.28815 0.66086 0.0
C1456 C 0.21217 0.2769 0.66629 0.0
C1457 C 0.2509 0.28467 0.67923 0.0
C1458 C 0.27113 0.24638 0.7372 0.0
H1459 H 0.3831 0.25858 0.76335 0.0
H1460 H 0.34911 0.26486 0.73642 0.0
H1461 H 0.2919 0.22724 0.76424 0.0
H1462 H 0.19417 0.25276 0.69481 0.0
H1463 H 0.22506 0.2476 0.72841 0.0
H1464 H 0.28148 0.30124 0.72191 0.0
C1465 C 0.34743 0.26043 0.76106 0.0
C1466 C 0.28963 0.24344 0.75508 0.0
C1467 C 0.36687 0.25722 0.77664 0.0
C1468 C 0.20987 0.26187 0.69038 0.0
C1469 C 0.22776 0.25874 0.70936 0.0
C1470 C 0.28357 0.28481 0.73038 0.0
C1471 C 0.32602 0.25746 0.77684 0.0
C1472 C 0.30555 0.26095 0.75998 0.0
C1473 C 0.24859 0.27018 0.70417 0.0
C1474 C 0.26787 0.26709 0.72433 0.0
H1475 H 0.34229 0.2441 0.84907 0.0
H1476 H 0.30806 0.24873 0.82113 0.0
H1477 H 0.31425 0.29549 0.7513 0.0
H1478 H 0.23529 0.29966 0.64219 0.0
H1479 H 0.26672 0.29329 0.67353 0.0
C1480 C 0.72716 0.20571 0.88439 0.0
C1481 C 0.72705 0.22664 0.90292 0.0
C1482 C 0.74526 0.19995 0.86156 0.0
C1483 C 0.8051 0.21627 0.83919 0.0
H1484 H 0.79372 0.18978 0.7538 0.0
C1485 C 0.87818 0.20495 0.74055 0.0
C1486 C 0.87381 0.21101 0.70998 0.0
C1487 C 0.86046 0.20177 0.76392 0.0
C1488 C 0.79723 0.19724 0.7775 0.0
H1489 H 0.74601 0.25778 0.91242 0.0
H1490 H 0.77712 0.24798 0.87313 0.0
H1491 H 0.76258 0.19436 0.79547 0.0
H1492 H 0.84731 0.21743 0.67952 0.0
H1493 H 0.81652 0.21257 0.72033 0.0
H1494 H 0.83937 0.22031 0.82116 0.0
C1495 C 0.76354 0.23574 0.87615 0.0
C1496 C 0.77937 0.19961 0.80155 0.0
C1497 C 0.74555 0.24145 0.89865 0.0
C1498 C 0.85127 0.21275 0.70283 0.0
C1499 C 0.83355 0.20981 0.72629 0.0
C1500 C 0.82288 0.214 0.81522 0.0
C1501 C 0.76372 0.21496 0.85715 0.0
C1502 C 0.78297 0.20967 0.83253 0.0
C1503 C 0.83788 0.20486 0.7575 0.0
C1504 C 0.8192 0.20486 0.78379 0.0
H1505 H 0.71329 0.1939 0.88749 0.0
H1506 H 0.74487 0.18371 0.84755 0.0
H1507 H 0.80867 0.22371 0.86289 0.0
H1508 H 0.89535 0.20343 0.74683 0.0
H1509 H 0.86454 0.19744 0.78734 0.0
C1510 C 0.84859 0.74311 0.31612 0.0
C1511 C 0.86697 0.73067 0.30132 0.0
C1512 C 0.82967 0.74627 0.29925 0.0
C1513 C 0.78693 0.74069 0.26271 0.0
H1514 H 0.79784 0.75565 0.17449 0.0
C1515 C 0.71499 0.74968 0.17798 0.0
C1516 C 0.71722 0.76789 0.15873 0.0
C1517 C 0.73271 0.74426 0.196 0.0
C1518 C 0.79448 0.75157 0.19914 0.0
H1519 H 0.87969 0.71113 0.25766 0.0
H1520 H 0.84663 0.71648 0.22823 0.0
H1521 H 0.82955 0.7478 0.20496 0.0
H1522 H 0.73955 0.79489 0.14364 0.0
H1523 H 0.77029 0.78549 0.17485 0.0
H1524 H 0.75181 0.74487 0.25694 0.0
C1525 C 0.84693 0.72409 0.25273 0.0
C1526 C 0.81267 0.74682 0.21651 0.0
C1527 C 0.86579 0.72086 0.26965 0.0
C1528 C 0.73738 0.78063 0.15803 0.0
C1529 C 0.75506 0.77518 0.17583 0.0
C1530 C 0.76868 0.74531 0.24522 0.0
C1531 C 0.82871 0.73703 0.26719 0.0
C1532 C 0.80916 0.74144 0.24857 0.0
C1533 C 0.75305 0.75686 0.19491 0.0
C1534 C 0.77225 0.75099 0.21329 0.0
H1535 H 0.84901 0.75073 0.3406 0.0
H1536 H 0.81604 0.75647 0.31105 0.0
H1537 H 0.78362 0.73643 0.28727 0.0
H1538 H 0.69963 0.73957 0.17896 0.0
H1539 H 0.73065 0.72996 0.21031 0.0
C1540 C 0.50335 0.57727 0.62343 0.0
C1541 C 0.51114 0.57607 0.65401 0.0
C1542 C 0.50328 0.55823 0.60119 0.0
C1543 C 0.50961 0.49525 0.59234 0.0
H1544 H 0.52112 0.50554 0.50227 0.0
C1545 C 0.52508 0.42327 0.48798 0.0
C1546 C 0.51185 0.42465 0.4619 0.0
C1547 C 0.52575 0.44116 0.5123 0.0
C1548 C 0.51782 0.50239 0.52732 0.0
H1549 H 0.52506 0.5538 0.68527 0.0
H1550 H 0.5258 0.52063 0.6461 0.0
H1551 H 0.52066 0.53745 0.54305 0.0
H1552 H 0.48928 0.44609 0.44056 0.0
H1553 H 0.49095 0.4774 0.48228 0.0
H1554 H 0.5074 0.45994 0.57612 0.0
C1555 C 0.51905 0.53616 0.63948 0.0
C1556 C 0.51736 0.52073 0.55082 0.0
C1557 C 0.51875 0.55523 0.66197 0.0
C1558 C 0.49968 0.44446 0.4603 0.0
C1559 C 0.50065 0.46244 0.48419 0.0
C1560 C 0.51042 0.47682 0.56876 0.0
C1561 C 0.51157 0.53744 0.60855 0.0
C1562 C 0.51288 0.51754 0.5837 0.0
C1563 C 0.51357 0.46098 0.51058 0.0
C1564 C 0.51422 0.48024 0.53596 0.0
H1565 H 0.4979 0.59316 0.61627 0.0
H1566 H 0.49688 0.55995 0.57805 0.0
H1567 H 0.50588 0.492 0.61725 0.0
H1568 H 0.53481 0.40837 0.48964 0.0
H1569 H 0.53601 0.43963 0.53222 0.0
C1570 C 0.08231 0.5678 0.90452 0.0
C1571 C 0.07779 0.58924 0.92043 0.0
C1572 C 0.08325 0.54886 0.92192 0.0
C1573 C 0.08354 0.5302 1.00538 0.0
H1574 H 0.05476 0.47659 0.96606 0.0
C1575 C 0.04839 0.45563 0.07646 0.0
C1576 C 0.0514 0.43362 0.06162 0.0
C1577 C 0.05484 0.47443 0.05975 0.0
C1578 C 0.06312 0.49129 0.97727 0.0
H1579 H 0.07197 0.60787 0.96723 0.0
H1580 H 0.07296 0.57485 0.9976 0.0
H1581 H 0.06075 0.5096 0.93614 0.0
H1582 H 0.0642 0.41401 1.01801 0.0
H1583 H 0.07535 0.44675 0.98882 0.0
H1584 H 0.08499 0.51187 0.04707 0.0
C1585 C 0.07618 0.57256 0.9717 0.0
C1586 C 0.06668 0.5103 0.96001 0.0
C1587 C 0.07556 0.59157 0.95426 0.0
C1588 C 0.06148 0.43077 0.03001 0.0
C1589 C 0.0678 0.44954 1.01324 0.0
C1590 C 0.07974 0.5112 1.02279 0.0
C1591 C 0.07933 0.55079 0.95571 0.0
C1592 C 0.07686 0.53012 0.97379 0.0
C1593 C 0.06429 0.47162 0.02774 0.0
C1594 C 0.06937 0.49155 1.00899 0.0
H1595 H 0.08428 0.56552 0.87847 0.0
H1596 H 0.08642 0.53258 0.9087 0.0
H1597 H 0.09171 0.54494 1.01674 0.0
H1598 H 0.04072 0.45833 0.10083 0.0
H1599 H 0.05174 0.49118 0.07154 0.0
C1600 C 0.08709 0.13573 0.38804 0.0
C1601 C 0.10428 0.14204 0.36542 0.0
C1602 C 0.09077 0.13673 0.4207 0.0
C1603 C 0.13582 0.14391 0.47788 0.0
H1604 H 0.09067 0.17828 0.53245 0.0
C1605 C 0.15551 0.2142 0.5707 0.0
C1606 C 0.14122 0.21897 0.59862 0.0
C1607 C 0.15121 0.19562 0.54927 0.0
C1608 C 0.10318 0.16803 0.51797 0.0
H1609 H 0.13891 0.15387 0.35916 0.0
H1610 H 0.14527 0.15596 0.41606 0.0
H1611 H 0.08202 0.16277 0.47898 0.0
H1612 H 0.11206 0.20762 0.6274 0.0
H1613 H 0.10388 0.17518 0.5889 0.0
H1614 H 0.15756 0.15084 0.51611 0.0
C1615 C 0.12908 0.14976 0.40859 0.0
C1616 C 0.09825 0.15919 0.48721 0.0
C1617 C 0.12541 0.14873 0.37598 0.0
C1618 C 0.1233 0.20411 0.60594 0.0
C1619 C 0.11864 0.18566 0.58401 0.0
C1620 C 0.14077 0.15284 0.5086 0.0
C1621 C 0.11172 0.14405 0.43138 0.0
C1622 C 0.11495 0.14812 0.46623 0.0
C1623 C 0.13223 0.18169 0.55503 0.0
C1624 C 0.12489 0.16604 0.52818 0.0
H1625 H 0.07076 0.13005 0.3805 0.0
H1626 H 0.07714 0.13204 0.43763 0.0
H1627 H 0.14882 0.13493 0.46253 0.0
H1628 H 0.1695 0.22546 0.56475 0.0
H1629 H 0.16179 0.19322 0.52697 0.0
C1630 C 0.1463 0.79632 0.64665 0.0
C1631 C 0.15461 0.81337 0.62752 0.0
C1632 C 0.14213 0.80082 0.67986 0.0
C1633 C 0.1298 0.84861 0.74097 0.0
H1634 H 0.12958 0.80092 0.79836 0.0
C1635 C 0.08564 0.85877 0.86881 0.0
C1636 C 0.06755 0.84326 0.8701 0.0
C1637 C 0.10322 0.85554 0.84461 0.0
C1638 C 0.12993 0.81451 0.78273 0.0
H1639 H 0.1659 0.8484 0.62876 0.0
H1640 H 0.15947 0.85601 0.68689 0.0
H1641 H 0.14834 0.79503 0.74428 0.0
H1642 H 0.0541 0.81164 0.84919 0.0
H1643 H 0.08516 0.8055 0.80781 0.0
H1644 H 0.11095 0.86784 0.77938 0.0
C1645 C 0.15563 0.83926 0.67606 0.0
C1646 C 0.14042 0.81109 0.75165 0.0
C1647 C 0.15956 0.83482 0.6427 0.0
C1648 C 0.068 0.82373 0.84861 0.0
C1649 C 0.08578 0.8202 0.8251 0.0
C1650 C 0.11966 0.85215 0.77223 0.0
C1651 C 0.14646 0.82243 0.69502 0.0
C1652 C 0.13957 0.8277 0.72986 0.0
C1653 C 0.10312 0.83645 0.82214 0.0
C1654 C 0.11881 0.83478 0.79287 0.0
H1655 H 0.14279 0.77945 0.63594 0.0
H1656 H 0.13475 0.78748 0.69343 0.0
H1657 H 0.12858 0.86176 0.72494 0.0
H1658 H 0.08541 0.87408 0.88502 0.0
H1659 H 0.11638 0.86833 0.84263 0.0
C1660 C 0.42482 0.84606 1.01533 0.0
C1661 C 0.42121 0.82302 1.01952 0.0
C1662 C 0.42694 0.85349 0.98443 0.0
C1663 C 0.41865 0.83456 0.89829 0.0
H1664 H 0.46508 0.8796 0.88143 0.0
C1665 C 0.44225 0.85784 0.76929 0.0
C1666 C 0.46524 0.86159 0.76056 0.0
C1667 C 0.43453 0.85655 0.80149 0.0
C1668 C 0.45218 0.86685 0.88562 0.0
H1669 H 0.41574 0.78995 0.9945 0.0
H1670 H 0.42064 0.80256 0.94106 0.0
H1671 H 0.45561 0.87041 0.93628 0.0
H1672 H 0.498 0.86776 0.77947 0.0
H1673 H 0.48488 0.86393 0.83499 0.0
H1674 H 0.41639 0.82969 0.84754 0.0
C1675 C 0.42143 0.8151 0.96143 0.0
C1676 C 0.44644 0.86186 0.91726 0.0
C1677 C 0.41903 0.80775 0.9922 0.0
C1678 C 0.48024 0.86435 0.78503 0.0
C1679 C 0.4726 0.86262 0.81713 0.0
C1680 C 0.42467 0.83924 0.86665 0.0
C1681 C 0.42566 0.83802 0.95704 0.0
C1682 C 0.42992 0.8453 0.92394 0.0
C1683 C 0.44966 0.85853 0.82581 0.0
C1684 C 0.44182 0.85515 0.85979 0.0
H1685 H 0.42665 0.85828 0.03584 0.0
H1686 H 0.42984 0.87133 0.98203 0.0
H1687 H 0.40547 0.82209 0.90251 0.0
H1688 H 0.43016 0.85537 0.75123 0.0
H1689 H 0.41669 0.8538 0.80719 0.0
C1690 C 0.45735 0.14896 0.22467 0.0
C1691 C 0.47921 0.14503 0.23303 0.0
C1692 C 0.45237 0.14638 0.19247 0.0
C1693 C 0.47987 0.14656 0.11081 0.0
H1694 H 0.42257 0.12175 0.08495 0.0
C1695 C 0.42247 0.15447 1.00049 0.0
C1696 C 0.43923 0.15242 0.97483 0.0
C1697 C 0.42683 0.14836 0.03078 0.0
C1698 C 0.43864 0.12869 0.09186 0.0
H1699 H 0.5128 0.13459 0.21454 0.0
H1700 H 0.50411 0.13003 0.1584 0.0
H1701 H 0.43143 0.12188 0.14104 0.0
H1702 H 0.47311 0.14084 0.96016 0.0
H1703 H 0.48054 0.12975 1.01292 0.0
H1704 H 0.48693 0.15388 0.06202 0.0
C1705 C 0.49092 0.13552 0.17658 0.0
C1706 C 0.44368 0.12885 0.12393 0.0
C1707 C 0.49592 0.1382 0.2087 0.0
C1708 C 0.45984 0.14259 0.97944 0.0
C1709 C 0.46418 0.13645 1.00971 0.0
C1710 C 0.47487 0.14636 0.07883 0.0
C1711 C 0.46914 0.13972 0.16809 0.0
C1712 C 0.46423 0.13808 0.1338 0.0
C1713 C 0.44802 0.14005 0.03594 0.0
C1714 C 0.45409 0.13771 0.06909 0.0
H1715 H 0.4442 0.15436 0.24297 0.0
H1716 H 0.43552 0.15008 0.18663 0.0
H1717 H 0.49568 0.15414 0.11772 0.0
H1718 H 0.4063 0.16166 0.99748 0.0
H1719 H 0.41406 0.15141 0.05054 0.0
C1720 C 0.91837 0.79688 0.45202 0.0
C1721 C 0.91564 0.77392 0.4411 0.0
C1722 C 0.92307 0.80353 0.48416 0.0
C1723 C 0.94213 0.77983 0.55917 0.0
H1724 H 0.92619 0.83924 0.59899 0.0
C1725 C 0.97121 0.81234 0.68657 0.0
C1726 C 0.95814 0.82839 0.70639 0.0
C1727 C 0.96603 0.8057 0.65462 0.0
C1728 C 0.93061 0.82241 0.58872 0.0
H1729 H 0.91518 0.74007 0.45651 0.0
H1730 H 0.92213 0.75151 0.51216 0.0
H1731 H 0.91619 0.82787 0.54478 0.0
H1732 H 0.92863 0.84923 0.70762 0.0
H1733 H 0.91926 0.83735 0.65309 0.0
H1734 H 0.95567 0.77401 0.60363 0.0
C1735 C 0.92151 0.76457 0.4959 0.0
C1736 C 0.92514 0.81594 0.55691 0.0
C1737 C 0.91715 0.75793 0.46374 0.0
C1738 C 0.93945 0.83717 0.6932 0.0
C1739 C 0.93411 0.83035 0.66148 0.0
C1740 C 0.94738 0.7862 0.59111 0.0
C1741 C 0.92498 0.7875 0.50683 0.0
C1742 C 0.93077 0.7945 0.5413 0.0
C1743 C 0.94737 0.81461 0.64125 0.0
C1744 C 0.94176 0.80766 0.60669 0.0
H1745 H 0.91776 0.80974 0.43538 0.0
H1746 H 0.92589 0.82133 0.49081 0.0
H1747 H 0.94732 0.76331 0.54848 0.0
H1748 H 0.98585 0.80528 0.69548 0.0
H1749 H 0.97708 0.79386 0.64025 0.0
C1750 C 0.93905 0.17459 0.55794 0.0
C1751 C 0.93793 0.19806 0.56659 0.0
C1752 C 0.94486 0.1659 0.52584 0.0
C1753 C 0.97584 0.18108 0.44961 0.0
H1754 H 0.94474 0.12937 0.40913 0.0
C1755 C 0.01008 0.13497 0.3264 0.0
C1756 C 0.99458 0.12954 0.30292 0.0
C1757 C 0.00281 0.14251 0.35841 0.0
C1758 C 0.95364 0.14385 0.41996 0.0
H1759 H 0.94216 0.23068 0.54737 0.0
H1760 H 0.95259 0.21564 0.49191 0.0
H1761 H 0.93256 0.14419 0.46429 0.0
H1762 H 0.95888 0.12734 0.29593 0.0
H1763 H 0.94623 0.13976 0.35183 0.0
H1764 H -0.0029 0.1806 0.40555 0.0
C1765 C 0.94886 0.20386 0.50996 0.0
C1766 C 0.94672 0.1523 0.45182 0.0
C1767 C 0.94265 0.21252 0.5419 0.0
C1768 C 0.97144 0.13118 0.31306 0.0
C1769 C 0.96414 0.13835 0.3453 0.0
C1770 C 0.98302 0.17238 0.41804 0.0
C1771 C 0.95021 0.18039 0.50132 0.0
C1772 C 0.95761 0.17116 0.4672 0.0
C1773 C 0.97971 0.14457 0.36844 0.0
C1774 C 0.97202 0.15365 0.40253 0.0
H1775 H 0.93567 0.16283 0.5761 0.0
H1776 H 0.9458 0.14777 0.52042 0.0
H1777 H 0.98485 0.19547 0.46047 0.0
H1778 H 0.02802 0.13405 0.31991 0.0
H1779 H 0.0154 0.14679 0.37538 0.0
C1780 C 0.657 0.21626 0.06899 0.0
C1781 C 0.65999 0.20062 0.04156 0.0
C1782 C 0.64961 0.20922 0.0994 0.0
C1783 C 0.64425 0.15922 0.14792 0.0
H1784 H 0.59845 0.19457 0.1997 0.0
C1785 C 0.61638 0.14458 0.28261 0.0
C1786 C 0.59328 0.14628 0.29286 0.0
C1787 C 0.62465 0.15001 0.25166 0.0
C1788 C 0.61117 0.18438 0.18559 0.0
H1789 H 0.65802 0.16494 0.02564 0.0
H1790 H 0.64576 0.15267 0.07862 0.0
H1791 H 0.61298 0.20639 0.14744 0.0
H1792 H 0.56085 0.15478 0.27737 0.0
H1793 H 0.57519 0.16446 0.22404 0.0
H1794 H 0.64252 0.1373 0.18626 0.0
C1795 C 0.64901 0.17049 0.07653 0.0
C1796 C 0.61972 0.19132 0.15559 0.0
C1797 C 0.65607 0.17757 0.04598 0.0
C1798 C 0.5787 0.15312 0.27068 0.0
C1799 C 0.58701 0.15892 0.23998 0.0
C1800 C 0.63596 0.15247 0.17818 0.0
C1801 C 0.64525 0.18623 0.10371 0.0
C1802 C 0.63637 0.17884 0.13612 0.0
C1803 C 0.61017 0.15769 0.22998 0.0
C1804 C 0.61918 0.16487 0.19752 0.0
H1805 H 0.65975 0.23414 0.06692 0.0
H1806 H 0.64728 0.22191 0.11962 0.0
H1807 H 0.65713 0.14918 0.13392 0.0
H1808 H 0.62827 0.13953 0.29881 0.0
H1809 H 0.64258 0.14892 0.24511 0.0
C1810 C 0.56936 0.86939 0.70344 0.0
C1811 C 0.58528 0.87031 0.67669 0.0
C1812 C 0.57574 0.86425 0.7336 0.0
C1813 C 0.62012 0.83577 0.7727 0.0
H1814 H 0.59404 0.86782 0.8512 0.0
C1815 C 0.65019 0.81956 0.89853 0.0
C1816 C 0.63534 0.82286 0.92657 0.0
C1817 C 0.64418 0.82526 0.86837 0.0
C1818 C 0.60131 0.8583 0.82974 0.0
H1819 H 0.62071 0.86634 0.66154 0.0
H1820 H 0.63186 0.85738 0.71414 0.0
H1821 H 0.58382 0.87798 0.79923 0.0
H1822 H 0.60194 0.83486 0.94344 0.0
H1823 H 0.59116 0.84367 0.89123 0.0
H1824 H 0.63716 0.81565 0.80295 0.0
C1825 C 0.61431 0.86072 0.71165 0.0
C1826 C 0.59547 0.8643 0.79965 0.0
C1827 C 0.60795 0.86618 0.68146 0.0
C1828 C 0.61398 0.83172 0.92284 0.0
C1829 C 0.60787 0.83721 0.89258 0.0
C1830 C 0.62577 0.82956 0.80282 0.0
C1831 C 0.59828 0.85955 0.73825 0.0
C1832 C 0.60481 0.85322 0.77053 0.0
C1833 C 0.62289 0.83429 0.86465 0.0
C1834 C 0.61656 0.84073 0.83209 0.0
H1835 H 0.5517 0.87223 0.70099 0.0
H1836 H 0.56277 0.86329 0.75312 0.0
H1837 H 0.62744 0.8265 0.75102 0.0
H1838 H 0.66664 0.81243 0.89962 0.0
H1839 H 0.65656 0.82285 0.84805 0.0
C1840 C 0.62063 0.64822 0.85776 0.0
C1841 C 0.59894 0.64125 0.84969 0.0
C1842 C 0.62617 0.64935 0.8897 0.0
C1843 C 0.59897 0.65869 0.97099 0.0
H1844 H 0.65966 0.65068 0.99497 0.0
C1845 C 0.62686 0.70011 0.09081 0.0
C1846 C 0.64541 0.71452 0.08486 0.0
C1847 C 0.62149 0.68287 0.06734 0.0
C1848 C 0.64255 0.65274 0.98877 0.0
H1849 H 0.56658 0.62846 0.86842 0.0
H1850 H 0.57625 0.63057 0.92423 0.0
H1851 H 0.64925 0.63564 0.94178 0.0
H1852 H 0.67399 0.72122 0.0516 0.0
H1853 H 0.66495 0.69122 1.01114 0.0
H1854 H 0.59262 0.67691 1.01718 0.0
C1855 C 0.58883 0.6355 0.90594 0.0
C1856 C 0.63663 0.64424 0.95829 0.0
C1857 C 0.58329 0.63438 0.874 0.0
C1858 C 0.65953 0.71034 0.0566 0.0
C1859 C 0.65443 0.693 0.03354 0.0
C1860 C 0.6049 0.66719 1.00147 0.0
C1861 C 0.61018 0.64348 0.91427 0.0
C1862 C 0.61507 0.64802 0.94855 0.0
C1863 C 0.63487 0.67964 0.03802 0.0
C1864 C 0.62705 0.66523 1.01009 0.0
H1865 H 0.633 0.65379 0.83965 0.0
H1866 H 0.64265 0.65592 0.89532 0.0
H1867 H 0.58225 0.66203 0.96424 0.0
H1868 H 0.61571 0.70315 0.11245 0.0
H1869 H 0.60635 0.67276 0.07144 0.0
C1870 C 0.58857 0.33873 0.38099 0.0
C1871 C 0.57664 0.35891 0.38233 0.0
C1872 C 0.60433 0.33297 0.355 0.0
C1873 C 0.63434 0.35436 0.28162 0.0
H1874 H 0.61713 0.29612 0.2404 0.0
C1875 C 0.64015 0.33477 0.14429 0.0
C1876 C 0.64646 0.31305 0.13093 0.0
C1877 C 0.63695 0.33958 0.17764 0.0
C1878 C 0.62253 0.31224 0.25174 0.0
H1879 H 0.57305 0.38981 0.35977 0.0
H1880 H 0.60076 0.38019 0.31509 0.0
H1881 H 0.60431 0.30637 0.2964 0.0
H1882 H 0.65501 0.27955 0.14237 0.0
H1883 H 0.64911 0.28791 0.20057 0.0
H1884 H 0.65166 0.36061 0.23639 0.0
C1885 C 0.59815 0.36869 0.33372 0.0
C1886 C 0.61526 0.31809 0.28395 0.0
C1887 C 0.58226 0.37425 0.35933 0.0
C1888 C 0.64972 0.29633 0.1518 0.0
C1889 C 0.64645 0.30114 0.18517 0.0
C1890 C 0.64157 0.34853 0.24939 0.0
C1891 C 0.6085 0.34749 0.33033 0.0
C1892 C 0.62046 0.33951 0.29895 0.0
C1893 C 0.63996 0.32281 0.19847 0.0
C1894 C 0.63512 0.3277 0.23379 0.0
H1895 H 0.58425 0.32653 0.39829 0.0
H1896 H 0.61221 0.3166 0.35317 0.0
H1897 H 0.63885 0.37088 0.29263 0.0
H1898 H 0.6372 0.34795 0.12895 0.0
H1899 H 0.63152 0.35633 0.18707 0.0
C1900 C 0.97707 0.36677 0.28458 0.0
C1901 C 0.9593 0.36588 0.26424 0.0
C1902 C 0.97278 0.36503 0.3175 0.0
C1903 C 0.92961 0.37037 0.3853 0.0
H1904 H 0.96553 0.32599 0.41968 0.0
C1905 C 0.90927 0.33764 0.51113 0.0
C1906 C 0.92742 0.33117 0.52749 0.0
C1907 C 0.91301 0.34476 0.48016 0.0
C1908 C 0.95562 0.33879 0.41076 0.0
H1909 H 0.92298 0.36337 0.26286 0.0
H1910 H 0.91546 0.36056 0.32075 0.0
H1911 H 0.97215 0.33324 0.36356 0.0
H1912 H 0.96368 0.32848 0.52573 0.0
H1913 H 0.97041 0.34178 0.47235 0.0
H1914 H 0.91317 0.37602 0.43272 0.0
C1915 C 0.93271 0.36259 0.31098 0.0
C1916 C 0.95936 0.34284 0.37849 0.0
C1917 C 0.93703 0.36419 0.27788 0.0
C1918 C 0.94943 0.33317 0.51332 0.0
C1919 C 0.95321 0.3406 0.48267 0.0
C1920 C 0.92599 0.36648 0.41783 0.0
C1921 C 0.9506 0.36255 0.33096 0.0
C1922 C 0.94644 0.35866 0.36541 0.0
C1923 C 0.93501 0.34577 0.46523 0.0
C1924 C 0.93899 0.35063 0.43096 0.0
H1925 H 0.99439 0.36869 0.27502 0.0
H1926 H 0.98686 0.36546 0.33245 0.0
H1927 H 0.91949 0.38275 0.37581 0.0
H1928 H 0.89213 0.33608 0.52161 0.0
H1929 H 0.89859 0.34844 0.4674 0.0
C1930 C 0.94489 0.65691 0.75126 0.0
C1931 C 0.95622 0.63667 0.75319 0.0
C1932 C 0.93765 0.66215 0.72189 0.0
C1933 C 0.94422 0.67586 0.65365 0.0
H1934 H 0.92503 0.63084 0.58792 0.0
C1935 C 0.93742 0.69426 0.52119 0.0
C1936 C 0.94784 0.67821 0.49826 0.0
C1937 C 0.93422 0.68999 0.55351 0.0
C1938 C 0.93035 0.64359 0.60608 0.0
H1939 H 0.96728 0.60526 0.72686 0.0
H1940 H 0.95508 0.61448 0.67564 0.0
H1941 H 0.92455 0.6215 0.64357 0.0
H1942 H 0.9635 0.64533 0.49144 0.0
H1943 H 0.95771 0.63781 0.54778 0.0
H1944 H 0.95053 0.69774 0.61593 0.0
C1945 C 0.95159 0.62631 0.69663 0.0
C1946 C 0.93005 0.63827 0.63789 0.0
C1947 C 0.95882 0.62111 0.72588 0.0
C1948 C 0.95511 0.65788 0.50839 0.0
C1949 C 0.95175 0.65355 0.54062 0.0
C1950 C 0.94437 0.68122 0.62185 0.0
C1951 C 0.94156 0.64718 0.69406 0.0
C1952 C 0.93769 0.6541 0.66182 0.0
C1953 C 0.94118 0.6695 0.56344 0.0
C1954 C 0.93812 0.66489 0.59764 0.0
H1955 H 0.94273 0.66921 0.77199 0.0
H1956 H 0.92972 0.67825 0.7207 0.0
H1957 H 0.95047 0.68835 0.67141 0.0
H1958 H 0.93125 0.70991 0.51408 0.0
H1959 H 0.92596 0.70253 0.57064 0.0
C1960 C 0.4614 0.31524 0.19262 0.0
C1961 C 0.46282 0.33806 0.20516 0.0
C1962 C 0.45507 0.30918 0.16112 0.0
C1963 C 0.45031 0.33177 0.08068 0.0
H1964 H 0.41285 0.27847 0.06457 0.0
C1965 C 0.41796 0.30653 0.95266 0.0
C1966 C 0.41568 0.28338 0.94239 0.0
C1967 C 0.42249 0.31382 0.98473 0.0
C1968 C 0.4236 0.29326 0.06821 0.0
H1969 H 0.45871 0.37234 0.19303 0.0
H1970 H 0.44772 0.36185 0.13848 0.0
H1971 H 0.42347 0.28953 0.11882 0.0
H1972 H 0.41627 0.24989 0.95896 0.0
H1973 H 0.42422 0.26231 1.0138 0.0
H1974 H 0.45077 0.33531 0.02998 0.0
C1975 C 0.45157 0.34852 0.15308 0.0
C1976 C 0.42971 0.29968 0.09971 0.0
C1977 C 0.4577 0.35458 0.18474 0.0
C1978 C 0.41756 0.26788 0.96564 0.0
C1979 C 0.42214 0.27511 0.99753 0.0
C1980 C 0.44433 0.32525 0.04907 0.0
C1981 C 0.45005 0.32567 0.14062 0.0
C1982 C 0.44326 0.31903 0.10666 0.0
C1983 C 0.42497 0.29823 1.00782 0.0
C1984 C 0.43089 0.30577 0.04205 0.0
H1985 H 0.46492 0.30186 0.20733 0.0
H1986 H 0.45441 0.29142 0.15271 0.0
H1987 H 0.46096 0.34661 0.08458 0.0
H1988 H 0.41695 0.31908 0.93566 0.0
H1989 H 0.42414 0.33178 0.9913 0.0
C1990 C 0.4402 0.6746 0.05729 0.0
C1991 C 0.43483 0.69744 0.06589 0.0
C1992 C 0.44464 0.66626 1.0248 0.0
C1993 C 0.43882 0.67981 0.93939 0.0
H1994 H 0.48538 0.63514 0.91888 0.0
C1995 C 0.45973 0.63999 0.8072 0.0
C1996 C 0.48256 0.63609 0.797 0.0
C1997 C 0.4529 0.64602 0.83992 0.0
C1998 C 0.4724 0.64771 0.92394 0.0
H1999 H 0.4297 0.72925 0.04615 0.0
H2000 H 0.43747 0.71488 0.98995 0.0
H2001 H 0.47563 0.64883 0.97476 0.0
H2002 H 0.51593 0.63507 0.8142 0.0
H2003 H 0.50419 0.64546 0.87047 0.0
H2004 H 0.43605 0.67912 0.88844 0.0
C2005 C 0.43802 0.7032 1.00826 0.0
C2006 C 0.46654 0.65542 0.95633 0.0
C2007 C 0.43359 0.71153 0.04075 0.0
C2008 C 0.49817 0.63775 0.82082 0.0
C2009 C 0.49136 0.6437 0.85342 0.0
C2010 C 0.44465 0.67205 0.90698 0.0
C2011 C 0.4439 0.68044 0.99961 0.0
C2012 C 0.44971 0.67172 0.96475 0.0
C2013 C 0.46864 0.64829 0.86364 0.0
C2014 C 0.46167 0.65594 0.89856 0.0
H2015 H 0.44135 0.66312 0.07574 0.0
H2016 H 0.44867 0.64858 1.01949 0.0
H2017 H 0.42561 0.69213 0.94452 0.0
H2018 H 0.44715 0.63907 0.78977 0.0
H2019 H 0.4352 0.64901 0.84656 0.0
C2020 C 0.1563 0.68234 0.545 0.0
C2021 C 0.15623 0.7053 0.53899 0.0
C2022 C 0.14912 0.6754 0.57557 0.0
C2023 C 0.1131 0.69326 0.65031 0.0
H2024 H 0.1439 0.64656 0.68793 0.0
C2025 C 0.07513 0.65314 0.76566 0.0
C2026 C 0.08985 0.6501 0.78966 0.0
C2027 C 0.08341 0.6591 0.735 0.0
C2028 C 0.13507 0.65967 0.67788 0.0
H2029 H 0.14857 0.73892 0.56135 0.0
H2030 H 0.13598 0.72686 0.61419 0.0
H2031 H 0.15834 0.6588 0.63576 0.0
H2032 H 0.1251 0.65046 0.79928 0.0
H2033 H 0.13948 0.66028 0.74585 0.0
H2034 H 0.08979 0.69408 0.69231 0.0
C2035 C 0.14156 0.71413 0.59521 0.0
C2036 C 0.14329 0.6666 0.64772 0.0
C2037 C 0.14901 0.7211 0.56479 0.0
C2038 C 0.11317 0.65254 0.78156 0.0
C2039 C 0.12146 0.65816 0.75075 0.0
C2040 C 0.10469 0.68609 0.68021 0.0
C2041 C 0.1413 0.69114 0.60111 0.0
C2042 C 0.13252 0.6836 0.63344 0.0
C2043 C 0.10672 0.66191 0.72706 0.0
C2044 C 0.11556 0.66922 0.69463 0.0
H2045 H 0.16162 0.66959 0.52591 0.0
H2046 H 0.14909 0.65755 0.5789 0.0
H2047 H 0.10414 0.70622 0.64016 0.0
H2048 H 0.05707 0.65158 0.77082 0.0
H2049 H 0.07146 0.66154 0.71745 0.0
C2050 C 0.05719 0.38076 0.21492 0.0
C2051 C 0.07204 0.37787 0.18686 0.0
C2052 C 0.06361 0.37542 0.24509 0.0
C2053 C 0.10399 0.3403 0.28302 0.0
H2054 H 0.08646 0.37803 0.36103 0.0
C2055 C 0.13621 0.32212 0.40713 0.0
C2056 C 0.12342 0.32867 0.43631 0.0
C2057 C 0.12992 0.32804 0.37716 0.0
C2058 C 0.09129 0.36692 0.33977 0.0
H2059 H 0.1055 0.36658 0.16938 0.0
H2060 H 0.11663 0.35725 0.22168 0.0
H2061 H 0.0759 0.38843 0.30933 0.0
H2062 H 0.09335 0.3469 0.45528 0.0
H2063 H 0.08198 0.3562 0.40363 0.0
H2064 H 0.11889 0.31846 0.31323 0.0
C2065 C 0.09995 0.36383 0.22039 0.0
C2066 C 0.08523 0.37305 0.30977 0.0
C2067 C 0.09364 0.36951 0.19027 0.0
C2068 C 0.10377 0.34113 0.43386 0.0
C2069 C 0.09736 0.34689 0.40382 0.0
C2070 C 0.10983 0.33401 0.31305 0.0
C2071 C 0.08502 0.36656 0.24842 0.0
C2072 C 0.09155 0.35994 0.28073 0.0
C2073 C 0.11036 0.34062 0.3747 0.0
C2074 C 0.10372 0.34722 0.34222 0.0
H2075 H 0.04029 0.38676 0.21349 0.0
H2076 H 0.05142 0.37759 0.26571 0.0
H2077 H 0.1089 0.32941 0.26153 0.0
H2078 H 0.15122 0.3122 0.40716 0.0
H2079 H 0.1408 0.32293 0.35592 0.0
loop_
_geom_bond_atom_site_label_1
_geom_bond_atom_site_label_2
_geom_bond_distance
_geom_bond_site_symmetry_2
_ccdc_geom_bond_type
C0 Eu1 2.835 . S
C0 C2 1.500 . S
C0 O20 1.257 . S
C0 O21 1.260 . S
Eu1 C0 2.835 . S
Eu1 O20 2.473 . S
Eu1 O21 2.480 . S
Eu1 O22 2.430 . S
Eu1 O23 2.670 . S
Eu1 O24 2.394 . S
Eu1 O29 2.355 . S
Eu1 O31 2.374 . S
C2 C0 1.500 . S
C2 C3 1.377 1_455 S
C2 C7 1.377 . S
C3 C2 1.377 1_655 S
C3 C4 1.395 . S
C3 H32 0.931 . S
C4 C3 1.395 . S
C4 C5 1.383 1_554 S
C4 H33 0.931 1_554 S
C5 C4 1.383 1_556 S
C5 C6 1.421 . S
C6 C5 1.421 . S
C6 C7 1.356 1_656 S
C6 H34 0.928 1_655 S
C7 C2 1.377 . S
C7 C6 1.356 1_454 S
C7 H35 0.931 . S
C8 O22 1.259 . S
C8 O23 1.270 . S
C9 O24 1.251 . S
C9 O25 1.251 . S
C10 Eu11 2.835 . S
C10 C12 1.500 . S
C10 O26 1.257 . S
C10 O27 1.260 . S
Eu11 C10 2.835 . S
Eu11 O23 2.355 . S
Eu11 O25 2.374 . S
Eu11 O26 2.473 . S
Eu11 O27 2.480 . S
Eu11 O28 2.430 . S
Eu11 O29 2.670 . S
Eu11 O30 2.394 . S
C12 C10 1.500 . S
C12 C13 1.377 . S
C12 C17 1.377 . S
C13 C12 1.377 . S
C13 C14 1.395 . S
C13 H36 0.931 . S
C14 C13 1.395 . S
C14 C15 1.383 . S
C14 H37 0.931 . S
C15 C14 1.383 . S
C15 C16 1.394 . S
C16 C15 1.394 . S
C16 C17 1.378 . S
C16 H38 0.931 . S
C17 C12 1.377 . S
C17 C16 1.378 . S
C17 H39 0.931 . S
C18 O28 1.259 . S
C18 O29 1.270 . S
C19 O30 1.251 . S
C19 O31 1.251 . S
O20 C0 1.257 . S
O20 Eu1 2.473 . S
O21 C0 1.260 . S
O21 Eu1 2.480 . S
O22 Eu1 2.430 . S
O22 C8 1.259 . S
O23 Eu1 2.670 . S
O23 C8 1.270 . S
O23 Eu11 2.355 . S
O24 Eu1 2.394 . S
O24 C9 1.251 . S
O25 C9 1.251 . S
O25 Eu11 2.374 . S
O26 C10 1.257 . S
O26 Eu11 2.473 . S
O27 C10 1.260 . S
O27 Eu11 2.480 . S
O28 Eu11 2.430 . S
O28 C18 1.259 . S
O29 Eu1 2.355 . S
O29 Eu11 2.670 . S
O29 C18 1.270 . S
O30 Eu11 2.394 . S
O30 C19 1.251 . S
O31 Eu1 2.374 . S
O31 C19 1.251 . S
H32 C3 0.931 . S
H33 C4 0.931 1_556 S
H34 C6 0.928 1_455 S
H35 C7 0.931 . S
H36 C13 0.931 . S
H37 C14 0.931 . S
H38 C16 0.931 . S
H39 C17 0.931 . S
C40 Eu41 2.835 . S
C40 C42 1.500 . S
C40 O60 1.257 . S
C40 O61 1.260 . S
Eu41 C40 2.835 . S
Eu41 O60 2.473 . S
Eu41 O61 2.480 . S
Eu41 O62 2.430 . S
Eu41 O63 2.670 . S
Eu41 O64 2.394 . S
Eu41 O69 2.355 . S
Eu41 O71 2.374 . S
C42 C40 1.500 . S
C42 C43 1.377 . S
C42 C47 1.377 . S
C43 C42 1.377 . S
C43 C44 1.395 . S
C43 H72 0.931 . S
C44 C43 1.395 . S
C44 C45 1.383 . S
C44 H73 0.931 . S
C45 C44 1.383 . S
C45 C46 1.394 . S
C46 C45 1.394 . S
C46 C47 1.378 . S
C46 H74 0.931 . S
C47 C42 1.377 . S
C47 C46 1.378 . S
C47 H75 0.931 . S
C48 O62 1.259 . S
C48 O63 1.270 . S
C49 O64 1.251 . S
C49 O65 1.251 . S
C50 Eu51 2.835 . S
C50 C52 1.500 . S
C50 O66 1.257 . S
C50 O67 1.260 . S
Eu51 C50 2.835 . S
Eu51 O63 2.355 . S
Eu51 O65 2.374 . S
Eu51 O66 2.473 . S
Eu51 O67 2.480 . S
Eu51 O68 2.430 . S
Eu51 O69 2.670 . S
Eu51 O70 2.394 . S
C52 C50 1.500 . S
C52 C53 1.377 . S
C52 C57 1.377 . S
C53 C52 1.377 . S
C53 C54 1.395 . S
C53 H76 0.931 . S
C54 C53 1.395 . S
C54 C55 1.383 . S
C54 H77 0.931 . S
C55 C54 1.383 . S
C55 C56 1.394 . S
C56 C55 1.394 . S
C56 C57 1.378 . S
C56 H78 0.931 . S
C57 C52 1.377 . S
C57 C56 1.378 . S
C57 H79 0.931 . S
C58 O68 1.259 . S
C58 O69 1.270 . S
C59 O70 1.251 . S
C59 O71 1.251 . S
O60 C40 1.257 . S
O60 Eu41 2.473 . S
O61 C40 1.260 . S
O61 Eu41 2.480 . S
O62 Eu41 2.430 . S
O62 C48 1.259 . S
O63 Eu41 2.670 . S
O63 C48 1.270 . S
O63 Eu51 2.355 . S
O64 Eu41 2.394 . S
O64 C49 1.251 . S
O65 C49 1.251 . S
O65 Eu51 2.374 . S
O66 C50 1.257 . S
O66 Eu51 2.473 . S
O67 C50 1.260 . S
O67 Eu51 2.480 . S
O68 Eu51 2.430 . S
O68 C58 1.259 . S
O69 Eu41 2.355 . S
O69 Eu51 2.670 . S
O69 C58 1.270 . S
O70 Eu51 2.394 . S
O70 C59 1.251 . S
O71 Eu41 2.374 . S
O71 C59 1.251 . S
H72 C43 0.931 . S
H73 C44 0.931 . S
H74 C46 0.931 . S
H75 C47 0.931 . S
H76 C53 0.931 . S
H77 C54 0.931 . S
H78 C56 0.931 . S
H79 C57 0.931 . S
C80 Eu81 2.835 . S
C80 C82 1.500 . S
C80 O100 1.257 . S
C80 O101 1.260 . S
Eu81 C80 2.835 . S
Eu81 O100 2.473 . S
Eu81 O101 2.480 . S
Eu81 O102 2.430 . S
Eu81 O103 2.670 . S
Eu81 O104 2.394 . S
Eu81 O109 2.355 . S
Eu81 O111 2.374 . S
C82 C80 1.500 . S
C82 C83 1.377 . S
C82 C87 1.377 . S
C83 C82 1.377 . S
C83 C84 1.395 . S
C83 H112 0.931 . S
C84 C83 1.395 . S
C84 C85 1.383 . S
C84 H113 0.931 . S
C85 C84 1.383 . S
C85 C86 1.394 . S
C86 C85 1.394 . S
C86 C87 1.378 . S
C86 H114 0.931 . S
C87 C82 1.377 . S
C87 C86 1.378 . S
C87 H115 0.931 . S
C88 O102 1.259 . S
C88 O103 1.270 . S
C89 O104 1.251 . S
C89 O105 1.251 . S
C90 Eu91 2.835 . S
C90 C92 1.500 . S
C90 O106 1.257 . S
C90 O107 1.260 . S
Eu91 C90 2.835 . S
Eu91 O103 2.355 . S
Eu91 O105 2.374 . S
Eu91 O106 2.473 . S
Eu91 O107 2.480 . S
Eu91 O108 2.430 . S
Eu91 O109 2.670 . S
Eu91 O110 2.394 . S
C92 C90 1.500 . S
C92 C93 1.377 . S
C92 C97 1.377 . S
C93 C92 1.377 . S
C93 C94 1.395 . S
C93 H116 0.931 . S
C94 C93 1.395 . S
C94 C95 1.383 . S
C94 H117 0.931 . S
C95 C94 1.383 . S
C95 C96 1.394 . S
C96 C95 1.394 . S
C96 C97 1.378 . S
C96 H118 0.931 . S
C97 C92 1.377 . S
C97 C96 1.378 . S
C97 H119 0.931 . S
C98 O108 1.259 . S
C98 O109 1.270 . S
C99 O110 1.251 . S
C99 O111 1.251 . S
O100 C80 1.257 . S
O100 Eu81 2.473 . S
O101 C80 1.260 . S
O101 Eu81 2.480 . S
O102 Eu81 2.430 . S
O102 C88 1.259 . S
O103 Eu81 2.670 . S
O103 C88 1.270 . S
O103 Eu91 2.355 . S
O104 Eu81 2.394 . S
O104 C89 1.251 . S
O105 C89 1.251 . S
O105 Eu91 2.374 . S
O106 C90 1.257 . S
O106 Eu91 2.473 . S
O107 C90 1.260 . S
O107 Eu91 2.480 . S
O108 Eu91 2.430 . S
O108 C98 1.259 . S
O109 Eu81 2.355 . S
O109 Eu91 2.670 . S
O109 C98 1.270 . S
O110 Eu91 2.394 . S
O110 C99 1.251 . S
O111 Eu81 2.374 . S
O111 C99 1.251 . S
H112 C83 0.931 . S
H113 C84 0.931 . S
H114 C86 0.931 . S
H115 C87 0.931 . S
H116 C93 0.931 . S
H117 C94 0.931 . S
H118 C96 0.931 . S
H119 C97 0.931 . S
C120 Eu121 2.835 . S
C120 C122 1.500 . S
C120 O140 1.257 . S
C120 O141 1.260 . S
Eu121 C120 2.835 . S
Eu121 O140 2.473 . S
Eu121 O141 2.480 . S
Eu121 O142 2.430 . S
Eu121 O143 2.670 . S
Eu121 O144 2.394 . S
Eu121 O149 2.355 . S
Eu121 O151 2.374 . S
C122 C120 1.500 . S
C122 C123 1.377 . S
C122 C127 1.377 . S
C123 C122 1.377 . S
C123 C124 1.395 . S
C123 H152 0.931 . S
C124 C123 1.395 . S
C124 C125 1.383 . S
C124 H153 0.931 . S
C125 C124 1.383 . S
C125 C126 1.394 . S
C126 C125 1.394 . S
C126 C127 1.378 . S
C126 H154 0.931 . S
C127 C122 1.377 . S
C127 C126 1.378 . S
C127 H155 0.931 . S
C128 O142 1.259 . S
C128 O143 1.270 . S
C129 O144 1.251 . S
C129 O145 1.251 . S
C130 Eu131 2.835 . S
C130 C132 1.500 . S
C130 O146 1.257 . S
C130 O147 1.260 . S
Eu131 C130 2.835 . S
Eu131 O143 2.355 . S
Eu131 O145 2.374 . S
Eu131 O146 2.473 . S
Eu131 O147 2.480 . S
Eu131 O148 2.430 . S
Eu131 O149 2.670 . S
Eu131 O150 2.394 . S
C132 C130 1.500 . S
C132 C133 1.377 . S
C132 C137 1.377 . S
C133 C132 1.377 . S
C133 C134 1.395 . S
C133 H156 0.931 . S
C134 C133 1.395 . S
C134 C135 1.383 . S
C134 H157 0.931 . S
C135 C134 1.383 . S
C135 C136 1.394 . S
C136 C135 1.394 . S
C136 C137 1.378 . S
C136 H158 0.931 . S
C137 C132 1.377 . S
C137 C136 1.378 . S
C137 H159 0.931 . S
C138 O148 1.259 . S
C138 O149 1.270 . S
C139 O150 1.251 . S
C139 O151 1.251 . S
O140 C120 1.257 . S
O140 Eu121 2.473 . S
O141 C120 1.260 . S
O141 Eu121 2.480 . S
O142 Eu121 2.430 . S
O142 C128 1.259 . S
O143 Eu121 2.670 . S
O143 C128 1.270 . S
O143 Eu131 2.355 . S
O144 Eu121 2.394 . S
O144 C129 1.251 . S
O145 C129 1.251 . S
O145 Eu131 2.374 . S
O146 C130 1.257 . S
O146 Eu131 2.473 . S
O147 C130 1.260 . S
O147 Eu131 2.480 . S
O148 Eu131 2.430 . S
O148 C138 1.259 . S
O149 Eu121 2.355 . S
O149 Eu131 2.670 . S
O149 C138 1.270 . S
O150 Eu131 2.394 . S
O150 C139 1.251 . S
O151 Eu121 2.374 . S
O151 C139 1.251 . S
H152 C123 0.931 . S
H153 C124 0.931 . S
H154 C126 0.931 . S
H155 C127 0.931 . S
H156 C133 0.931 . S
H157 C134 0.931 . S
H158 C136 0.931 . S
H159 C137 0.931 . S
C160 Eu161 2.835 . S
C160 C162 1.500 . S
C160 O180 1.257 . S
C160 O181 1.260 . S
Eu161 C160 2.835 . S
Eu161 O180 2.473 . S
Eu161 O181 2.480 . S
Eu161 O182 2.430 . S
Eu161 O183 2.670 1_655 S
Eu161 O184 2.394 1_655 S
Eu161 O189 2.355 1_655 S
Eu161 O191 2.374 . S
C162 C160 1.500 . S
C162 C163 1.377 . S
C162 C167 1.377 . S
C163 C162 1.377 . S
C163 C164 1.395 . S
C163 H192 0.931 . S
C164 C163 1.395 . S
C164 C165 1.383 . S
C164 H193 0.931 . S
C165 C164 1.383 . S
C165 C166 1.394 . S
C166 C165 1.394 . S
C166 C167 1.378 . S
C166 H194 0.931 . S
C167 C162 1.377 . S
C167 C166 1.378 . S
C167 H195 0.931 . S
C168 O182 1.264 1_455 S
C168 O183 1.268 . S
C169 O184 1.251 . S
C169 O185 1.251 . S
C170 Eu171 2.835 . S
C170 C172 1.500 1_556 S
C170 O186 1.257 . S
C170 O187 1.260 . S
Eu171 C170 2.835 . S
Eu171 O183 2.355 . S
Eu171 O185 2.374 . S
Eu171 O186 2.473 . S
Eu171 O187 2.480 . S
Eu171 O188 2.430 . S
Eu171 O189 2.670 . S
Eu171 O190 2.394 . S
C172 C170 1.500 1_554 S
C172 C173 1.377 . S
C172 C177 1.377 . S
C173 C172 1.377 . S
C173 C174 1.395 . S
C173 H196 0.931 . S
C174 C173 1.395 . S
C174 C175 1.383 . S
C174 H197 0.931 . S
C175 C174 1.383 . S
C175 C176 1.394 . S
C176 C175 1.394 . S
C176 C177 1.378 . S
C176 H198 0.931 . S
C177 C172 1.377 . S
C177 C176 1.378 . S
C177 H199 0.931 . S
C178 O188 1.259 . S
C178 O189 1.270 . S
C179 O190 1.251 1_655 S
C179 O191 1.251 . S
O180 C160 1.257 . S
O180 Eu161 2.473 . S
O181 C160 1.260 . S
O181 Eu161 2.480 . S
O182 Eu161 2.430 . S
O182 C168 1.264 1_655 S
O183 Eu161 2.670 1_455 S
O183 C168 1.268 . S
O183 Eu171 2.355 . S
O184 Eu161 2.394 1_455 S
O184 C169 1.251 . S
O185 C169 1.251 . S
O185 Eu171 2.374 . S
O186 C170 1.257 . S
O186 Eu171 2.473 . S
O187 C170 1.260 . S
O187 Eu171 2.480 . S
O188 Eu171 2.430 . S
O188 C178 1.259 . S
O189 Eu161 2.355 1_455 S
O189 Eu171 2.670 . S
O189 C178 1.270 . S
O190 Eu171 2.394 . S
O190 C179 1.251 1_455 S
O191 Eu161 2.374 . S
O191 C179 1.251 . S
H192 C163 0.931 . S
H193 C164 0.931 . S
H194 C166 0.931 . S
H195 C167 0.931 . S
H196 C173 0.931 . S
H197 C174 0.931 . S
H198 C176 0.931 . S
H199 C177 0.931 . S
C200 Eu201 2.835 . S
C200 C202 1.500 . S
C200 O220 1.257 . S
C200 O221 1.260 . S
Eu201 C200 2.835 . S
Eu201 O220 2.473 . S
Eu201 O221 2.480 . S
Eu201 O222 2.430 . S
Eu201 O223 2.670 . S
Eu201 O224 2.394 . S
Eu201 O229 2.355 . S
Eu201 O231 2.374 . S
C202 C200 1.500 . S
C202 C203 1.377 . S
C202 C207 1.377 . S
C203 C202 1.377 . S
C203 C204 1.395 . S
C203 H232 0.931 . S
C204 C203 1.395 . S
C204 C205 1.383 . S
C204 H233 0.931 . S
C205 C204 1.383 . S
C205 C206 1.394 . S
C206 C205 1.394 . S
C206 C207 1.378 . S
C206 H234 0.931 . S
C207 C202 1.377 . S
C207 C206 1.378 . S
C207 H235 0.931 . S
C208 O222 1.259 . S
C208 O223 1.270 . S
C209 O224 1.251 . S
C209 O225 1.251 . S
C210 Eu211 2.835 . S
C210 C212 1.500 . S
C210 O226 1.257 . S
C210 O227 1.260 . S
Eu211 C210 2.835 . S
Eu211 O223 2.355 . S
Eu211 O225 2.374 . S
Eu211 O226 2.473 . S
Eu211 O227 2.480 . S
Eu211 O228 2.430 . S
Eu211 O229 2.670 . S
Eu211 O230 2.394 . S
C212 C210 1.500 . S
C212 C213 1.377 . S
C212 C217 1.377 . S
C213 C212 1.377 . S
C213 C214 1.395 1_554 S
C213 H236 0.931 . S
C214 C213 1.395 1_556 S
C214 C215 1.383 . S
C214 H237 0.931 . S
C215 C214 1.383 . S
C215 C216 1.394 . S
C216 C215 1.394 . S
C216 C217 1.378 1_556 S
C216 H238 0.931 . S
C217 C212 1.377 . S
C217 C216 1.378 1_554 S
C217 H239 0.931 . S
C218 O228 1.259 . S
C218 O229 1.270 . S
C219 O230 1.251 . S
C219 O231 1.251 . S
O220 C200 1.257 . S
O220 Eu201 2.473 . S
O221 C200 1.260 . S
O221 Eu201 2.480 . S
O222 Eu201 2.430 . S
O222 C208 1.259 . S
O223 Eu201 2.670 . S
O223 C208 1.270 . S
O223 Eu211 2.355 . S
O224 Eu201 2.394 . S
O224 C209 1.251 . S
O225 C209 1.251 . S
O225 Eu211 2.374 . S
O226 C210 1.257 . S
O226 Eu211 2.473 . S
O227 C210 1.260 . S
O227 Eu211 2.480 . S
O228 Eu211 2.430 . S
O228 C218 1.259 . S
O229 Eu201 2.355 . S
O229 Eu211 2.670 . S
O229 C218 1.270 . S
O230 Eu211 2.394 . S
O230 C219 1.251 . S
O231 Eu201 2.374 . S
O231 C219 1.251 . S
H232 C203 0.931 . S
H233 C204 0.931 . S
H234 C206 0.931 . S
H235 C207 0.931 . S
H236 C213 0.931 . S
H237 C214 0.931 . S
H238 C216 0.931 . S
H239 C217 0.931 . S
C240 Eu241 2.835 . S
C240 C242 1.500 . S
C240 O260 1.257 . S
C240 O261 1.260 . S
Eu241 C240 2.835 . S
Eu241 O260 2.473 . S
Eu241 O261 2.480 . S
Eu241 O262 2.430 . S
Eu241 O263 2.670 . S
Eu241 O264 2.394 . S
Eu241 O269 2.355 . S
Eu241 O271 2.374 . S
C242 C240 1.500 . S
C242 C243 1.377 . S
C242 C247 1.377 . S
C243 C242 1.377 . S
C243 C244 1.395 . S
C243 H272 0.931 . S
C244 C243 1.395 . S
C244 C245 1.383 . S
C244 H273 0.931 . S
C245 C244 1.383 . S
C245 C246 1.394 . S
C246 C245 1.394 . S
C246 C247 1.378 . S
C246 H274 0.931 . S
C247 C242 1.377 . S
C247 C246 1.378 . S
C247 H275 0.931 . S
C248 O262 1.259 . S
C248 O263 1.270 . S
C249 O264 1.251 . S
C249 O265 1.251 . S
C250 Eu251 2.835 . S
C250 C252 1.500 . S
C250 O266 1.257 . S
C250 O267 1.260 . S
Eu251 C250 2.835 . S
Eu251 O263 2.355 . S
Eu251 O265 2.374 . S
Eu251 O266 2.473 . S
Eu251 O267 2.480 . S
Eu251 O268 2.430 . S
Eu251 O269 2.670 . S
Eu251 O270 2.394 . S
C252 C250 1.500 . S
C252 C253 1.377 . S
C252 C257 1.377 . S
C253 C252 1.377 . S
C253 C254 1.395 . S
C253 H276 0.931 . S
C254 C253 1.395 . S
C254 C255 1.383 . S
C254 H277 0.931 . S
C255 C254 1.383 . S
C255 C256 1.394 . S
C256 C255 1.394 . S
C256 C257 1.378 . S
C256 H278 0.931 . S
C257 C252 1.377 . S
C257 C256 1.378 . S
C257 H279 0.931 . S
C258 O268 1.259 . S
C258 O269 1.270 . S
C259 O270 1.251 . S
C259 O271 1.251 . S
O260 C240 1.257 . S
O260 Eu241 2.473 . S
O261 C240 1.260 . S
O261 Eu241 2.480 . S
O262 Eu241 2.430 . S
O262 C248 1.259 . S
O263 Eu241 2.670 . S
O263 C248 1.270 . S
O263 Eu251 2.355 . S
O264 Eu241 2.394 . S
O264 C249 1.251 . S
O265 C249 1.251 . S
O265 Eu251 2.374 . S
O266 C250 1.257 . S
O266 Eu251 2.473 . S
O267 C250 1.260 . S
O267 Eu251 2.480 . S
O268 Eu251 2.430 . S
O268 C258 1.259 . S
O269 Eu241 2.355 . S
O269 Eu251 2.670 . S
O269 C258 1.270 . S
O270 Eu251 2.394 . S
O270 C259 1.251 . S
O271 Eu241 2.374 . S
O271 C259 1.251 . S
H272 C243 0.931 . S
H273 C244 0.931 . S
H274 C246 0.931 . S
H275 C247 0.931 . S
H276 C253 0.931 . S
H277 C254 0.931 . S
H278 C256 0.931 . S
H279 C257 0.931 . S
C280 Eu281 2.835 . S
C280 C282 1.500 . S
C280 O300 1.257 . S
C280 O301 1.260 . S
Eu281 C280 2.835 . S
Eu281 O300 2.473 . S
Eu281 O301 2.480 . S
Eu281 O302 2.430 . S
Eu281 O303 2.670 . S
Eu281 O304 2.394 . S
Eu281 O309 2.355 . S
Eu281 O311 2.374 . S
C282 C280 1.500 . S
C282 C283 1.377 . S
C282 C287 1.377 . S
C283 C282 1.377 . S
C283 C284 1.395 . S
C283 H312 0.931 . S
C284 C283 1.395 . S
C284 C285 1.383 . S
C284 H313 0.931 . S
C285 C284 1.383 . S
C285 C286 1.394 . S
C286 C285 1.394 . S
C286 C287 1.378 . S
C286 H314 0.931 . S
C287 C282 1.377 . S
C287 C286 1.378 . S
C287 H315 0.931 . S
C288 O302 1.259 . S
C288 O303 1.270 . S
C289 O304 1.251 . S
C289 O305 1.251 . S
C290 Eu291 2.835 . S
C290 C292 1.500 . S
C290 O306 1.257 . S
C290 O307 1.260 . S
Eu291 C290 2.835 . S
Eu291 O303 2.355 . S
Eu291 O305 2.374 . S
Eu291 O306 2.473 . S
Eu291 O307 2.480 . S
Eu291 O308 2.430 . S
Eu291 O309 2.670 . S
Eu291 O310 2.394 . S
C292 C290 1.500 . S
C292 C293 1.377 . S
C292 C297 1.377 . S
C293 C292 1.377 . S
C293 C294 1.395 . S
C293 H316 0.931 . S
C294 C293 1.395 . S
C294 C295 1.383 . S
C294 H317 0.931 . S
C295 C294 1.383 . S
C295 C296 1.394 . S
C296 C295 1.394 . S
C296 C297 1.378 . S
C296 H318 0.931 . S
C297 C292 1.377 . S
C297 C296 1.378 . S
C297 H319 0.931 . S
C298 O308 1.259 . S
C298 O309 1.270 . S
C299 O310 1.251 . S
C299 O311 1.251 . S
O300 C280 1.257 . S
O300 Eu281 2.473 . S
O301 C280 1.260 . S
O301 Eu281 2.480 . S
O302 Eu281 2.430 . S
O302 C288 1.259 . S
O303 Eu281 2.670 . S
O303 C288 1.270 . S
O303 Eu291 2.355 . S
O304 Eu281 2.394 . S
O304 C289 1.251 . S
O305 C289 1.251 . S
O305 Eu291 2.374 . S
O306 C290 1.257 . S
O306 Eu291 2.473 . S
O307 C290 1.260 . S
O307 Eu291 2.480 . S
O308 Eu291 2.430 . S
O308 C298 1.259 . S
O309 Eu281 2.355 . S
O309 Eu291 2.670 . S
O309 C298 1.270 . S
O310 Eu291 2.394 . S
O310 C299 1.251 . S
O311 Eu281 2.374 . S
O311 C299 1.251 . S
H312 C283 0.931 . S
H313 C284 0.931 . S
H314 C286 0.931 . S
H315 C287 0.931 . S
H316 C293 0.931 . S
H317 C294 0.931 . S
H318 C296 0.931 . S
H319 C297 0.931 . S
C320 Eu321 2.835 . S
C320 C322 1.500 . S
C320 O340 1.257 . S
C320 O341 1.260 . S
Eu321 C320 2.835 . S
Eu321 O340 2.473 . S
Eu321 O341 2.480 . S
Eu321 O342 2.430 . S
Eu321 O343 2.670 . S
Eu321 O344 2.394 . S
Eu321 O349 2.355 . S
Eu321 O351 2.374 . S
C322 C320 1.500 . S
C322 C323 1.377 . S
C322 C327 1.377 . S
C323 C322 1.377 . S
C323 C324 1.395 . S
C323 H352 0.931 . S
C324 C323 1.395 . S
C324 C325 1.383 . S
C324 H353 0.931 . S
C325 C324 1.383 . S
C325 C326 1.394 . S
C326 C325 1.394 . S
C326 C327 1.378 . S
C326 H354 0.931 . S
C327 C322 1.377 . S
C327 C326 1.378 . S
C327 H355 0.931 . S
C328 O342 1.259 . S
C328 O343 1.270 . S
C329 O344 1.251 . S
C329 O345 1.251 . S
C330 Eu331 2.835 . S
C330 C332 1.500 . S
C330 O346 1.257 . S
C330 O347 1.260 . S
Eu331 C330 2.835 . S
Eu331 O343 2.355 . S
Eu331 O345 2.374 . S
Eu331 O346 2.473 . S
Eu331 O347 2.480 . S
Eu331 O348 2.430 . S
Eu331 O349 2.670 . S
Eu331 O350 2.394 . S
C332 C330 1.500 . S
C332 C333 1.377 . S
C332 C337 1.377 . S
C333 C332 1.377 . S
C333 C334 1.395 . S
C333 H356 0.931 . S
C334 C333 1.395 . S
C334 C335 1.383 . S
C334 H357 0.931 . S
C335 C334 1.383 . S
C335 C336 1.394 . S
C336 C335 1.394 . S
C336 C337 1.378 . S
C336 H358 0.931 . S
C337 C332 1.377 . S
C337 C336 1.378 . S
C337 H359 0.931 . S
C338 O348 1.259 . S
C338 O349 1.270 . S
C339 O350 1.251 . S
C339 O351 1.251 . S
O340 C320 1.257 . S
O340 Eu321 2.473 . S
O341 C320 1.260 . S
O341 Eu321 2.480 . S
O342 Eu321 2.430 . S
O342 C328 1.259 . S
O343 Eu321 2.670 . S
O343 C328 1.270 . S
O343 Eu331 2.355 . S
O344 Eu321 2.394 . S
O344 C329 1.251 . S
O345 C329 1.251 . S
O345 Eu331 2.374 . S
O346 C330 1.257 . S
O346 Eu331 2.473 . S
O347 C330 1.260 . S
O347 Eu331 2.480 . S
O348 Eu331 2.430 . S
O348 C338 1.259 . S
O349 Eu321 2.355 . S
O349 Eu331 2.670 . S
O349 C338 1.270 . S
O350 Eu331 2.394 . S
O350 C339 1.251 . S
O351 Eu321 2.374 . S
O351 C339 1.251 . S
H352 C323 0.931 . S
H353 C324 0.931 . S
H354 C326 0.931 . S
H355 C327 0.931 . S
H356 C333 0.931 . S
H357 C334 0.931 . S
H358 C336 0.931 . S
H359 C337 0.931 . S
C360 Eu361 2.835 . S
C360 C362 1.500 . S
C360 O380 1.257 . S
C360 O381 1.260 . S
Eu361 C360 2.835 . S
Eu361 O380 2.473 . S
Eu361 O381 2.480 . S
Eu361 O382 2.430 . S
Eu361 O383 2.670 . S
Eu361 O384 2.394 . S
Eu361 O389 2.355 . S
Eu361 O391 2.374 . S
C362 C360 1.500 . S
C362 C363 1.392 . S
C362 C367 1.377 1_554 S
C363 C362 1.392 . S
C363 C364 1.361 1_554 S
C363 H392 0.950 . S
C364 C363 1.361 1_556 S
C364 C365 1.383 . S
C364 H393 0.931 . S
C365 C364 1.383 . S
C365 C366 1.394 . S
C366 C365 1.394 . S
C366 C367 1.378 . S
C366 H394 0.931 . S
C367 C362 1.377 1_556 S
C367 C366 1.378 . S
C367 H395 0.931 1_556 S
C368 O382 1.259 . S
C368 O383 1.270 . S
C369 O384 1.251 . S
C369 O385 1.251 . S
C370 Eu371 2.835 . S
C370 C372 1.500 . S
C370 O386 1.257 . S
C370 O387 1.260 . S
Eu371 C370 2.835 . S
Eu371 O383 2.355 . S
Eu371 O385 2.374 . S
Eu371 O386 2.473 . S
Eu371 O387 2.480 . S
Eu371 O388 2.430 . S
Eu371 O389 2.670 . S
Eu371 O390 2.394 . S
C372 C370 1.500 . S
C372 C373 1.377 . S
C372 C377 1.377 . S
C373 C372 1.377 . S
C373 C374 1.395 . S
C373 H396 0.931 . S
C374 C373 1.395 . S
C374 C375 1.383 . S
C374 H397 0.931 . S
C375 C374 1.383 . S
C375 C376 1.394 . S
C376 C375 1.394 . S
C376 C377 1.378 . S
C376 H398 0.931 . S
C377 C372 1.377 . S
C377 C376 1.378 . S
C377 H399 0.931 . S
C378 O388 1.259 . S
C378 O389 1.270 . S
C379 O390 1.251 . S
C379 O391 1.251 . S
O380 C360 1.257 . S
O380 Eu361 2.473 . S
O381 C360 1.260 . S
O381 Eu361 2.480 . S
O382 Eu361 2.430 . S
O382 C368 1.259 . S
O383 Eu361 2.670 . S
O383 C368 1.270 . S
O383 Eu371 2.355 . S
O384 Eu361 2.394 . S
O384 C369 1.251 . S
O385 C369 1.251 . S
O385 Eu371 2.374 . S
O386 C370 1.257 . S
O386 Eu371 2.473 . S
O387 C370 1.260 . S
O387 Eu371 2.480 . S
O388 Eu371 2.430 . S
O388 C378 1.259 . S
O389 Eu361 2.355 . S
O389 Eu371 2.670 . S
O389 C378 1.270 . S
O390 Eu371 2.394 . S
O390 C379 1.251 . S
O391 Eu361 2.374 . S
O391 C379 1.251 . S
H392 C363 0.950 . S
H393 C364 0.931 . S
H394 C366 0.931 . S
H395 C367 0.931 1_554 S
H396 C373 0.931 . S
H397 C374 0.931 . S
H398 C376 0.931 . S
H399 C377 0.931 . S
C400 Eu401 2.835 . S
C400 C402 1.500 . S
C400 O420 1.257 . S
C400 O421 1.260 . S
Eu401 C400 2.835 . S
Eu401 O420 2.473 . S
Eu401 O421 2.480 . S
Eu401 O422 2.430 . S
Eu401 O423 2.670 . S
Eu401 O424 2.394 . S
Eu401 O429 2.355 . S
Eu401 O431 2.374 . S
C402 C400 1.500 . S
C402 C403 1.377 . S
C402 C407 1.377 . S
C403 C402 1.377 . S
C403 C404 1.395 . S
C403 H432 0.931 . S
C404 C403 1.395 . S
C404 C405 1.383 . S
C404 H433 0.931 . S
C405 C404 1.383 . S
C405 C406 1.394 . S
C406 C405 1.394 . S
C406 C407 1.378 . S
C406 H434 0.931 . S
C407 C402 1.377 . S
C407 C406 1.378 . S
C407 H435 0.931 . S
C408 O422 1.259 . S
C408 O423 1.270 . S
C409 O424 1.251 . S
C409 O425 1.251 . S
C410 Eu411 2.835 . S
C410 C412 1.500 1_556 S
C410 O426 1.257 . S
C410 O427 1.260 . S
Eu411 C410 2.835 . S
Eu411 O423 2.355 . S
Eu411 O425 2.374 . S
Eu411 O426 2.473 . S
Eu411 O427 2.480 . S
Eu411 O428 2.430 . S
Eu411 O429 2.670 . S
Eu411 O430 2.394 . S
C412 C410 1.500 1_554 S
C412 C413 1.377 . S
C412 C417 1.377 . S
C413 C412 1.377 . S
C413 C414 1.395 . S
C413 H436 0.931 . S
C414 C413 1.395 . S
C414 C415 1.383 . S
C414 H437 0.931 . S
C415 C414 1.383 . S
C415 C416 1.394 . S
C416 C415 1.394 . S
C416 C417 1.378 . S
C416 H438 0.931 . S
C417 C412 1.377 . S
C417 C416 1.378 . S
C417 H439 0.931 . S
C418 O428 1.259 . S
C418 O429 1.270 . S
C419 O430 1.251 . S
C419 O431 1.251 . S
O420 C400 1.257 . S
O420 Eu401 2.473 . S
O421 C400 1.260 . S
O421 Eu401 2.480 . S
O422 Eu401 2.430 . S
O422 C408 1.259 . S
O423 Eu401 2.670 . S
O423 C408 1.270 . S
O423 Eu411 2.355 . S
O424 Eu401 2.394 . S
O424 C409 1.251 . S
O425 C409 1.251 . S
O425 Eu411 2.374 . S
O426 C410 1.257 . S
O426 Eu411 2.473 . S
O427 C410 1.260 . S
O427 Eu411 2.480 . S
O428 Eu411 2.430 . S
O428 C418 1.259 . S
O429 Eu401 2.355 . S
O429 Eu411 2.670 . S
O429 C418 1.270 . S
O430 Eu411 2.394 . S
O430 C419 1.251 . S
O431 Eu401 2.374 . S
O431 C419 1.251 . S
H432 C403 0.931 . S
H433 C404 0.931 . S
H434 C406 0.931 . S
H435 C407 0.931 . S
H436 C413 0.931 . S
H437 C414 0.931 . S
H438 C416 0.931 . S
H439 C417 0.931 . S
C440 Eu441 2.835 . S
C440 C442 1.500 . S
C440 O460 1.257 . S
C440 O461 1.260 . S
Eu441 C440 2.835 . S
Eu441 O460 2.473 . S
Eu441 O461 2.480 . S
Eu441 O462 2.430 . S
Eu441 O463 2.670 . S
Eu441 O464 2.394 . S
Eu441 O469 2.355 . S
Eu441 O471 2.374 . S
C442 C440 1.500 . S
C442 C443 1.377 . S
C442 C447 1.377 . S
C443 C442 1.377 . S
C443 C444 1.395 . S
C443 H472 0.931 . S
C444 C443 1.395 . S
C444 C445 1.383 . S
C444 H473 0.931 . S
C445 C444 1.383 . S
C445 C446 1.394 . S
C446 C445 1.394 . S
C446 C447 1.378 . S
C446 H474 0.931 . S
C447 C442 1.377 . S
C447 C446 1.378 . S
C447 H475 0.931 . S
C448 O462 1.259 . S
C448 O463 1.270 . S
C449 O464 1.251 . S
C449 O465 1.251 . S
C450 Eu451 2.835 . S
C450 C452 1.500 . S
C450 O466 1.257 . S
C450 O467 1.260 . S
Eu451 C450 2.835 . S
Eu451 O463 2.355 . S
Eu451 O465 2.374 . S
Eu451 O466 2.473 . S
Eu451 O467 2.480 . S
Eu451 O468 2.430 . S
Eu451 O469 2.670 . S
Eu451 O470 2.394 . S
C452 C450 1.500 . S
C452 C453 1.377 . S
C452 C457 1.377 . S
C453 C452 1.377 . S
C453 C454 1.395 . S
C453 H476 0.931 . S
C454 C453 1.395 . S
C454 C455 1.383 . S
C454 H477 0.931 . S
C455 C454 1.383 . S
C455 C456 1.394 . S
C456 C455 1.394 . S
C456 C457 1.378 . S
C456 H478 0.931 . S
C457 C452 1.377 . S
C457 C456 1.378 . S
C457 H479 0.931 . S
C458 O468 1.259 . S
C458 O469 1.270 . S
C459 O470 1.251 . S
C459 O471 1.251 . S
O460 C440 1.257 . S
O460 Eu441 2.473 . S
O461 C440 1.260 . S
O461 Eu441 2.480 . S
O462 Eu441 2.430 . S
O462 C448 1.259 . S
O463 Eu441 2.670 . S
O463 C448 1.270 . S
O463 Eu451 2.355 . S
O464 Eu441 2.394 . S
O464 C449 1.251 . S
O465 C449 1.251 . S
O465 Eu451 2.374 . S
O466 C450 1.257 . S
O466 Eu451 2.473 . S
O467 C450 1.260 . S
O467 Eu451 2.480 . S
O468 Eu451 2.430 . S
O468 C458 1.259 . S
O469 Eu441 2.355 . S
O469 Eu451 2.670 . S
O469 C458 1.270 . S
O470 Eu451 2.394 . S
O470 C459 1.251 . S
O471 Eu441 2.374 . S
O471 C459 1.251 . S
H472 C443 0.931 . S
H473 C444 0.931 . S
H474 C446 0.931 . S
H475 C447 0.931 . S
H476 C453 0.931 . S
H477 C454 0.931 . S
H478 C456 0.931 . S
H479 C457 0.931 . S
C480 Eu481 2.835 . S
C480 C482 1.500 . S
C480 O500 1.257 . S
C480 O501 1.260 . S
Eu481 C480 2.835 . S
Eu481 O500 2.473 . S
Eu481 O501 2.480 . S
Eu481 O502 2.430 . S
Eu481 O503 2.670 . S
Eu481 O504 2.394 . S
Eu481 O509 2.355 . S
Eu481 O511 2.374 . S
C482 C480 1.500 . S
C482 C483 1.377 . S
C482 C487 1.377 . S
C483 C482 1.377 . S
C483 C484 1.395 . S
C483 H512 0.931 . S
C484 C483 1.395 . S
C484 C485 1.383 . S
C484 H513 0.931 . S
C485 C484 1.383 . S
C485 C486 1.394 . S
C486 C485 1.394 . S
C486 C487 1.378 . S
C486 H514 0.931 . S
C487 C482 1.377 . S
C487 C486 1.378 . S
C487 H515 0.931 . S
C488 O502 1.259 . S
C488 O503 1.270 . S
C489 O504 1.251 . S
C489 O505 1.251 . S
C490 Eu491 2.835 . S
C490 C492 1.500 . S
C490 O506 1.257 . S
C490 O507 1.260 . S
Eu491 C490 2.835 . S
Eu491 O503 2.355 . S
Eu491 O505 2.374 . S
Eu491 O506 2.473 . S
Eu491 O507 2.480 . S
Eu491 O508 2.430 . S
Eu491 O509 2.670 . S
Eu491 O510 2.394 . S
C492 C490 1.500 . S
C492 C493 1.377 . S
C492 C497 1.377 . S
C493 C492 1.377 . S
C493 C494 1.395 . S
C493 H516 0.931 . S
C494 C493 1.395 . S
C494 C495 1.383 . S
C494 H517 0.931 . S
C495 C494 1.383 . S
C495 C496 1.394 . S
C496 C495 1.394 . S
C496 C497 1.378 . S
C496 H518 0.931 . S
C497 C492 1.377 . S
C497 C496 1.378 . S
C497 H519 0.931 . S
C498 O508 1.259 . S
C498 O509 1.270 . S
C499 O510 1.251 . S
C499 O511 1.251 . S
O500 C480 1.257 . S
O500 Eu481 2.473 . S
O501 C480 1.260 . S
O501 Eu481 2.480 . S
O502 Eu481 2.430 . S
O502 C488 1.259 . S
O503 Eu481 2.670 . S
O503 C488 1.270 . S
O503 Eu491 2.355 . S
O504 Eu481 2.394 . S
O504 C489 1.251 . S
O505 C489 1.251 . S
O505 Eu491 2.374 . S
O506 C490 1.257 . S
O506 Eu491 2.473 . S
O507 C490 1.260 . S
O507 Eu491 2.480 . S
O508 Eu491 2.430 . S
O508 C498 1.259 . S
O509 Eu481 2.355 . S
O509 Eu491 2.670 . S
O509 C498 1.270 . S
O510 Eu491 2.394 . S
O510 C499 1.251 . S
O511 Eu481 2.374 . S
O511 C499 1.251 . S
H512 C483 0.931 . S
H513 C484 0.931 . S
H514 C486 0.931 . S
H515 C487 0.931 . S
H516 C493 0.931 . S
H517 C494 0.931 . S
H518 C496 0.931 . S
H519 C497 0.931 . S
C520 Eu521 2.835 1_556 S
C520 C522 1.500 . S
C520 O540 1.247 1_556 S
C520 O541 1.260 1_556 S
Eu521 C520 2.835 1_554 S
Eu521 O540 2.501 . S
Eu521 O541 2.480 . S
Eu521 O542 2.430 . S
Eu521 O543 2.670 . S
Eu521 O544 2.394 . S
Eu521 O549 2.355 . S
Eu521 O551 2.374 . S
C522 C520 1.500 . S
C522 C523 1.377 . S
C522 C527 1.377 . S
C523 C522 1.377 . S
C523 C524 1.395 . S
C523 H552 0.931 . S
C524 C523 1.395 . S
C524 C525 1.383 . S
C524 H553 0.931 . S
C525 C524 1.383 . S
C525 C526 1.394 . S
C526 C525 1.394 . S
C526 C527 1.378 . S
C526 H554 0.931 . S
C527 C522 1.377 . S
C527 C526 1.378 . S
C527 H555 0.931 . S
C528 O542 1.259 . S
C528 O543 1.270 . S
C529 O544 1.251 . S
C529 O545 1.251 . S
C530 Eu531 2.844 . S
C530 C532 1.491 1_455 S
C530 O546 1.278 . S
C530 O547 1.251 1_455 S
Eu531 C530 2.844 . S
Eu531 O543 2.355 . S
Eu531 O545 2.374 . S
Eu531 O546 2.473 . S
Eu531 O547 2.480 1_455 S
Eu531 O548 2.430 . S
Eu531 O549 2.670 . S
Eu531 O550 2.394 . S
C532 C530 1.491 1_655 S
C532 C533 1.377 . S
C532 C537 1.377 . S
C533 C532 1.377 . S
C533 C534 1.395 . S
C533 H556 0.931 . S
C534 C533 1.395 . S
C534 C535 1.383 . S
C534 H557 0.931 . S
C535 C534 1.383 . S
C535 C536 1.394 . S
C536 C535 1.394 . S
C536 C537 1.378 . S
C536 H558 0.931 . S
C537 C532 1.377 . S
C537 C536 1.378 . S
C537 H559 0.931 1_655 S
C538 O548 1.259 . S
C538 O549 1.270 . S
C539 O550 1.251 . S
C539 O551 1.251 . S
O540 C520 1.247 1_554 S
O540 Eu521 2.501 . S
O541 C520 1.260 1_554 S
O541 Eu521 2.480 . S
O542 Eu521 2.430 . S
O542 C528 1.259 . S
O543 Eu521 2.670 . S
O543 C528 1.270 . S
O543 Eu531 2.355 . S
O544 Eu521 2.394 . S
O544 C529 1.251 . S
O545 C529 1.251 . S
O545 Eu531 2.374 . S
O546 C530 1.278 . S
O546 Eu531 2.473 . S
O547 C530 1.251 1_655 S
O547 Eu531 2.480 1_655 S
O548 Eu531 2.430 . S
O548 C538 1.259 . S
O549 Eu521 2.355 . S
O549 Eu531 2.670 . S
O549 C538 1.270 . S
O550 Eu531 2.394 . S
O550 C539 1.251 . S
O551 Eu521 2.374 . S
O551 C539 1.251 . S
H552 C523 0.931 . S
H553 C524 0.931 . S
H554 C526 0.931 . S
H555 C527 0.931 . S
H556 C533 0.931 . S
H557 C534 0.931 . S
H558 C536 0.931 . S
H559 C537 0.931 1_455 S
C560 Eu561 2.835 . S
C560 C562 1.500 . S
C560 O580 1.257 . S
C560 O581 1.260 . S
Eu561 C560 2.835 . S
Eu561 O580 2.473 . S
Eu561 O581 2.480 . S
Eu561 O582 2.430 . S
Eu561 O583 2.670 . S
Eu561 O584 2.394 . S
Eu561 O589 2.355 . S
Eu561 O591 2.374 . S
C562 C560 1.500 . S
C562 C563 1.377 . S
C562 C567 1.377 . S
C563 C562 1.377 . S
C563 C564 1.395 . S
C563 H592 0.931 . S
C564 C563 1.395 . S
C564 C565 1.383 . S
C564 H593 0.931 . S
C565 C564 1.383 . S
C565 C566 1.394 . S
C566 C565 1.394 . S
C566 C567 1.378 . S
C566 H594 0.931 . S
C567 C562 1.377 . S
C567 C566 1.378 . S
C567 H595 0.931 . S
C568 O582 1.259 . S
C568 O583 1.270 . S
C569 O584 1.251 . S
C569 O585 1.251 . S
C570 Eu571 2.835 . S
C570 C572 1.500 . S
C570 O586 1.257 . S
C570 O587 1.260 . S
Eu571 C570 2.835 . S
Eu571 O583 2.355 . S
Eu571 O585 2.374 . S
Eu571 O586 2.473 . S
Eu571 O587 2.480 . S
Eu571 O588 2.430 . S
Eu571 O589 2.670 . S
Eu571 O590 2.394 . S
C572 C570 1.500 . S
C572 C573 1.377 . S
C572 C577 1.377 . S
C573 C572 1.377 . S
C573 C574 1.395 . S
C573 H596 0.931 . S
C574 C573 1.395 . S
C574 C575 1.383 . S
C574 H597 0.931 . S
C575 C574 1.383 . S
C575 C576 1.394 . S
C576 C575 1.394 . S
C576 C577 1.378 . S
C576 H598 0.931 . S
C577 C572 1.377 . S
C577 C576 1.378 . S
C577 H599 0.931 . S
C578 O588 1.259 . S
C578 O589 1.270 . S
C579 O590 1.251 . S
C579 O591 1.251 . S
O580 C560 1.257 . S
O580 Eu561 2.473 . S
O581 C560 1.260 . S
O581 Eu561 2.480 . S
O582 Eu561 2.430 . S
O582 C568 1.259 . S
O583 Eu561 2.670 . S
O583 C568 1.270 . S
O583 Eu571 2.355 . S
O584 Eu561 2.394 . S
O584 C569 1.251 . S
O585 C569 1.251 . S
O585 Eu571 2.374 . S
O586 C570 1.257 . S
O586 Eu571 2.473 . S
O587 C570 1.260 . S
O587 Eu571 2.480 . S
O588 Eu571 2.430 . S
O588 C578 1.259 . S
O589 Eu561 2.355 . S
O589 Eu571 2.670 . S
O589 C578 1.270 . S
O590 Eu571 2.394 . S
O590 C579 1.251 . S
O591 Eu561 2.374 . S
O591 C579 1.251 . S
H592 C563 0.931 . S
H593 C564 0.931 . S
H594 C566 0.931 . S
H595 C567 0.931 . S
H596 C573 0.931 . S
H597 C574 0.931 . S
H598 C576 0.931 . S
H599 C577 0.931 . S
C600 Eu601 2.835 . S
C600 C602 1.500 . S
C600 O620 1.257 . S
C600 O621 1.260 . S
Eu601 C600 2.835 . S
Eu601 O620 2.473 . S
Eu601 O621 2.480 . S
Eu601 O622 2.430 . S
Eu601 O623 2.670 . S
Eu601 O624 2.394 . S
Eu601 O629 2.355 . S
Eu601 O631 2.374 . S
C602 C600 1.500 . S
C602 C603 1.377 . S
C602 C607 1.377 . S
C603 C602 1.377 . S
C603 C604 1.395 1_556 S
C603 H632 0.931 . S
C604 C603 1.395 1_554 S
C604 C605 1.383 . S
C604 H633 0.931 . S
C605 C604 1.383 . S
C605 C606 1.394 . S
C606 C605 1.394 . S
C606 C607 1.378 1_554 S
C606 H634 0.931 . S
C607 C602 1.377 . S
C607 C606 1.378 1_556 S
C607 H635 0.931 . S
C608 O622 1.259 . S
C608 O623 1.270 . S
C609 O624 1.251 . S
C609 O625 1.251 . S
C610 Eu611 2.835 . S
C610 C612 1.500 . S
C610 O626 1.257 . S
C610 O627 1.260 . S
Eu611 C610 2.835 . S
Eu611 O623 2.355 . S
Eu611 O625 2.374 . S
Eu611 O626 2.473 . S
Eu611 O627 2.480 . S
Eu611 O628 2.430 . S
Eu611 O629 2.670 . S
Eu611 O630 2.394 . S
C612 C610 1.500 . S
C612 C613 1.377 . S
C612 C617 1.377 . S
C613 C612 1.377 . S
C613 C614 1.395 1_455 S
C613 H636 0.931 . S
C614 C613 1.395 1_655 S
C614 C615 1.383 . S
C614 H637 0.931 . S
C615 C614 1.383 . S
C615 C616 1.394 1_655 S
C616 C615 1.394 1_455 S
C616 C617 1.378 . S
C616 H638 0.931 . S
C617 C612 1.377 . S
C617 C616 1.378 . S
C617 H639 0.931 . S
C618 O628 1.259 . S
C618 O629 1.270 . S
C619 O630 1.251 . S
C619 O631 1.251 . S
O620 C600 1.257 . S
O620 Eu601 2.473 . S
O621 C600 1.260 . S
O621 Eu601 2.480 . S
O622 Eu601 2.430 . S
O622 C608 1.259 . S
O623 Eu601 2.670 . S
O623 C608 1.270 . S
O623 Eu611 2.355 . S
O624 Eu601 2.394 . S
O624 C609 1.251 . S
O625 C609 1.251 . S
O625 Eu611 2.374 . S
O626 C610 1.257 . S
O626 Eu611 2.473 . S
O627 C610 1.260 . S
O627 Eu611 2.480 . S
O628 Eu611 2.430 . S
O628 C618 1.259 . S
O629 Eu601 2.355 . S
O629 Eu611 2.670 . S
O629 C618 1.270 . S
O630 Eu611 2.394 . S
O630 C619 1.251 . S
O631 Eu601 2.374 . S
O631 C619 1.251 . S
H632 C603 0.931 . S
H633 C604 0.931 . S
H634 C606 0.931 . S
H635 C607 0.931 . S
H636 C613 0.931 . S
H637 C614 0.931 . S
H638 C616 0.931 . S
H639 C617 0.931 . S
C640 C641 1.349 . S
C640 C642 1.327 . S
C640 H665 0.950 . S
C641 C640 1.349 . S
C641 C657 1.349 . S
C642 C640 1.327 . S
C642 C661 1.429 . S
C642 H666 0.950 . S
C643 C660 1.574 . S
C643 C662 1.368 . S
C643 H667 0.949 . S
H644 C648 0.949 . S
C645 C646 1.349 . S
C645 C647 1.327 . S
C645 H668 0.950 . S
C646 C645 1.349 . S
C646 C658 1.349 . S
C647 C645 1.327 . S
C647 C663 1.429 . S
C647 H669 0.950 . S
C648 H644 0.949 . S
C648 C656 1.574 . S
C648 C664 1.368 . S
H649 C657 0.950 . S
H650 C655 0.950 1_556 S
H651 C656 0.949 . S
H652 C658 0.950 . S
H653 C659 0.950 . S
H654 C660 0.949 . S
C655 H650 0.950 1_554 S
C655 C657 1.327 . S
C655 C661 1.429 . S
C656 C648 1.574 . S
C656 H651 0.949 . S
C656 C662 1.368 . S
C657 C641 1.349 . S
C657 H649 0.950 . S
C657 C655 1.327 . S
C658 C646 1.349 . S
C658 H652 0.950 . S
C658 C659 1.327 . S
C659 H653 0.950 . S
C659 C658 1.327 . S
C659 C663 1.429 . S
C660 C643 1.574 . S
C660 H654 0.949 . S
C660 C664 1.368 . S
C661 C642 1.429 . S
C661 C655 1.429 . S
C661 C662 1.523 1_554 S
C662 C643 1.368 . S
C662 C656 1.368 . S
C662 C661 1.523 1_556 S
C663 C647 1.429 . S
C663 C659 1.429 . S
C663 C664 1.523 . S
C664 C648 1.368 . S
C664 C660 1.368 . S
C664 C663 1.523 . S
H665 C640 0.950 . S
H666 C642 0.950 . S
H667 C643 0.949 . S
H668 C645 0.950 . S
H669 C647 0.950 . S
C670 C671 1.349 . S
C670 C672 1.327 . S
C670 H695 0.950 . S
C671 C670 1.349 . S
C671 C687 1.349 . S
C672 C670 1.327 . S
C672 C691 1.429 . S
C672 H696 0.950 . S
C673 C690 1.574 . S
C673 C692 1.368 . S
C673 H697 0.949 . S
H674 C678 0.949 . S
C675 C676 1.349 . S
C675 C677 1.327 . S
C675 H698 0.950 . S
C676 C675 1.349 . S
C676 C688 1.349 . S
C677 C675 1.327 . S
C677 C693 1.429 . S
C677 H699 0.950 . S
C678 H674 0.949 . S
C678 C686 1.574 . S
C678 C694 1.368 . S
H679 C687 0.950 . S
H680 C685 0.950 . S
H681 C686 0.949 . S
H682 C688 0.950 . S
H683 C689 0.950 . S
H684 C690 0.949 . S
C685 H680 0.950 . S
C685 C687 1.327 . S
C685 C691 1.429 . S
C686 C678 1.574 . S
C686 H681 0.949 . S
C686 C692 1.368 . S
C687 C671 1.349 . S
C687 H679 0.950 . S
C687 C685 1.327 . S
C688 C676 1.349 . S
C688 H682 0.950 . S
C688 C689 1.327 . S
C689 H683 0.950 . S
C689 C688 1.327 . S
C689 C693 1.429 . S
C690 C673 1.574 . S
C690 H684 0.949 . S
C690 C694 1.368 . S
C691 C672 1.429 . S
C691 C685 1.429 . S
C691 C692 1.523 . S
C692 C673 1.368 . S
C692 C686 1.368 . S
C692 C691 1.523 . S
C693 C677 1.429 . S
C693 C689 1.429 . S
C693 C694 1.523 . S
C694 C678 1.368 . S
C694 C690 1.368 . S
C694 C693 1.523 . S
H695 C670 0.950 . S
H696 C672 0.950 . S
H697 C673 0.949 . S
H698 C675 0.950 . S
H699 C677 0.950 . S
C700 C701 1.349 . S
C700 C702 1.327 . S
C700 H725 0.950 . S
C701 C700 1.349 . S
C701 C717 1.349 . S
C702 C700 1.327 . S
C702 C721 1.429 . S
C702 H726 0.950 . S
C703 C720 1.574 . S
C703 C722 1.368 . S
C703 H727 0.949 . S
H704 C708 0.949 . S
C705 C706 1.349 . S
C705 C707 1.327 . S
C705 H728 0.950 . S
C706 C705 1.349 . S
C706 C718 1.349 . S
C707 C705 1.327 . S
C707 C723 1.429 . S
C707 H729 0.950 . S
C708 H704 0.949 . S
C708 C716 1.574 . S
C708 C724 1.368 . S
H709 C717 0.950 . S
H710 C715 0.950 . S
H711 C716 0.949 . S
H712 C718 0.950 . S
H713 C719 0.950 . S
H714 C720 0.949 . S
C715 H710 0.950 . S
C715 C717 1.327 . S
C715 C721 1.429 . S
C716 C708 1.574 . S
C716 H711 0.949 . S
C716 C722 1.368 . S
C717 C701 1.349 . S
C717 H709 0.950 . S
C717 C715 1.327 . S
C718 C706 1.349 . S
C718 H712 0.950 . S
C718 C719 1.327 . S
C719 H713 0.950 . S
C719 C718 1.327 . S
C719 C723 1.429 . S
C720 C703 1.574 . S
C720 H714 0.949 . S
C720 C724 1.368 . S
C721 C702 1.429 . S
C721 C715 1.429 . S
C721 C722 1.523 . S
C722 C703 1.368 . S
C722 C716 1.368 . S
C722 C721 1.523 . S
C723 C707 1.429 . S
C723 C719 1.429 . S
C723 C724 1.523 . S
C724 C708 1.368 . S
C724 C720 1.368 . S
C724 C723 1.523 . S
H725 C700 0.950 . S
H726 C702 0.950 . S
H727 C703 0.949 . S
H728 C705 0.950 . S
H729 C707 0.950 . S
C730 C731 1.349 . S
C730 C732 1.327 . S
C730 H755 0.950 . S
C731 C730 1.349 . S
C731 C747 1.349 . S
C732 C730 1.327 . S
C732 C751 1.429 . S
C732 H756 0.950 . S
C733 C750 1.574 . S
C733 C752 1.368 . S
C733 H757 0.949 . S
H734 C738 0.949 . S
C735 C736 1.349 . S
C735 C737 1.327 . S
C735 H758 0.950 . S
C736 C735 1.349 . S
C736 C748 1.349 . S
C737 C735 1.327 . S
C737 C753 1.429 . S
C737 H759 0.950 . S
C738 H734 0.949 . S
C738 C746 1.574 . S
C738 C754 1.368 . S
H739 C747 0.950 . S
H740 C745 0.950 . S
H741 C746 0.949 . S
H742 C748 0.950 . S
H743 C749 0.950 . S
H744 C750 0.949 . S
C745 H740 0.950 . S
C745 C747 1.327 . S
C745 C751 1.429 . S
C746 C738 1.574 . S
C746 H741 0.949 . S
C746 C752 1.368 . S
C747 C731 1.349 . S
C747 H739 0.950 . S
C747 C745 1.327 . S
C748 C736 1.349 . S
C748 H742 0.950 . S
C748 C749 1.327 . S
C749 H743 0.950 . S
C749 C748 1.327 . S
C749 C753 1.429 . S
C750 C733 1.574 . S
C750 H744 0.949 . S
C750 C754 1.368 . S
C751 C732 1.429 . S
C751 C745 1.429 . S
C751 C752 1.523 . S
C752 C733 1.368 . S
C752 C746 1.368 . S
C752 C751 1.523 . S
C753 C737 1.429 . S
C753 C749 1.429 . S
C753 C754 1.523 . S
C754 C738 1.368 . S
C754 C750 1.368 . S
C754 C753 1.523 . S
H755 C730 0.950 . S
H756 C732 0.950 . S
H757 C733 0.949 . S
H758 C735 0.950 . S
H759 C737 0.950 . S
C760 C761 1.349 . S
C760 C762 1.327 . S
C760 H785 0.950 . S
C761 C760 1.349 . S
C761 C777 1.349 . S
C762 C760 1.327 . S
C762 C781 1.429 . S
C762 H786 0.950 . S
C763 C780 1.574 . S
C763 C782 1.368 . S
C763 H787 0.949 . S
H764 C768 0.949 . S
C765 C766 1.349 . S
C765 C767 1.327 . S
C765 H788 0.950 . S
C766 C765 1.349 . S
C766 C778 1.349 . S
C767 C765 1.327 . S
C767 C783 1.400 1_556 S
C767 H789 0.950 . S
C768 H764 0.949 . S
C768 C776 1.574 . S
C768 C784 1.368 . S
H769 C777 0.950 . S
H770 C775 0.950 . S
H771 C776 0.949 . S
H772 C778 0.950 . S
H773 C779 0.929 1_554 S
H774 C780 0.949 . S
C775 H770 0.950 . S
C775 C777 1.327 . S
C775 C781 1.429 . S
C776 C768 1.574 . S
C776 H771 0.949 . S
C776 C782 1.368 . S
C777 C761 1.349 . S
C777 H769 0.950 . S
C777 C775 1.327 . S
C778 C766 1.349 . S
C778 H772 0.950 . S
C778 C779 1.351 . S
C779 H773 0.929 1_556 S
C779 C778 1.351 . S
C779 C783 1.423 1_556 S
C780 C763 1.574 . S
C780 H774 0.949 . S
C780 C784 1.368 . S
C781 C762 1.429 . S
C781 C775 1.429 . S
C781 C782 1.523 . S
C782 C763 1.368 . S
C782 C776 1.368 . S
C782 C781 1.523 . S
C783 C767 1.400 1_554 S
C783 C779 1.423 1_554 S
C783 C784 1.553 . S
C784 C768 1.368 . S
C784 C780 1.368 . S
C784 C783 1.553 . S
H785 C760 0.950 . S
H786 C762 0.950 . S
H787 C763 0.949 . S
H788 C765 0.950 . S
H789 C767 0.950 . S
C790 C791 1.349 . S
C790 C792 1.327 . S
C790 H815 0.950 . S
C791 C790 1.349 . S
C791 C807 1.349 . S
C792 C790 1.327 . S
C792 C811 1.429 . S
C792 H816 0.950 . S
C793 C810 1.574 . S
C793 C812 1.368 . S
C793 H817 0.949 . S
H794 C798 0.949 . S
C795 C796 1.349 . S
C795 C797 1.327 . S
C795 H818 0.950 . S
C796 C795 1.349 . S
C796 C808 1.349 . S
C797 C795 1.327 . S
C797 C813 1.429 . S
C797 H819 0.950 . S
C798 H794 0.949 . S
C798 C806 1.574 . S
C798 C814 1.368 . S
H799 C807 0.950 . S
H800 C805 0.950 . S
H801 C806 0.949 . S
H802 C808 0.950 1_554 S
H803 C809 0.950 . S
H804 C810 0.949 . S
C805 H800 0.950 . S
C805 C807 1.327 . S
C805 C811 1.429 . S
C806 C798 1.574 . S
C806 H801 0.949 . S
C806 C812 1.368 . S
C807 C791 1.349 . S
C807 H799 0.950 . S
C807 C805 1.327 . S
C808 C796 1.349 . S
C808 H802 0.950 1_556 S
C808 C809 1.327 . S
C809 H803 0.950 . S
C809 C808 1.327 . S
C809 C813 1.429 . S
C810 C793 1.574 . S
C810 H804 0.949 . S
C810 C814 1.368 . S
C811 C792 1.429 . S
C811 C805 1.429 . S
C811 C812 1.523 . S
C812 C793 1.368 . S
C812 C806 1.368 . S
C812 C811 1.523 . S
C813 C797 1.429 . S
C813 C809 1.429 . S
C813 C814 1.523 . S
C814 C798 1.368 . S
C814 C810 1.368 . S
C814 C813 1.523 . S
H815 C790 0.950 . S
H816 C792 0.950 . S
H817 C793 0.949 . S
H818 C795 0.950 . S
H819 C797 0.950 . S
C820 C821 1.349 . S
C820 C822 1.327 . S
C820 H845 0.950 . S
C821 C820 1.349 . S
C821 C837 1.349 . S
C822 C820 1.327 . S
C822 C841 1.429 . S
C822 H846 0.950 . S
C823 C840 1.574 . S
C823 C842 1.368 . S
C823 H847 0.949 . S
H824 C828 0.949 . S
C825 C826 1.349 . S
C825 C827 1.327 . S
C825 H848 0.950 . S
C826 C825 1.349 . S
C826 C838 1.349 . S
C827 C825 1.327 . S
C827 C843 1.429 . S
C827 H849 0.950 . S
C828 H824 0.949 . S
C828 C836 1.574 . S
C828 C844 1.368 . S
H829 C837 0.950 . S
H830 C835 0.950 . S
H831 C836 0.949 . S
H832 C838 0.950 . S
H833 C839 0.950 . S
H834 C840 0.949 . S
C835 H830 0.950 . S
C835 C837 1.327 . S
C835 C841 1.429 . S
C836 C828 1.574 . S
C836 H831 0.949 . S
C836 C842 1.368 . S
C837 C821 1.349 . S
C837 H829 0.950 . S
C837 C835 1.327 . S
C838 C826 1.349 . S
C838 H832 0.950 . S
C838 C839 1.327 . S
C839 H833 0.950 . S
C839 C838 1.327 . S
C839 C843 1.429 . S
C840 C823 1.574 . S
C840 H834 0.949 . S
C840 C844 1.368 . S
C841 C822 1.429 . S
C841 C835 1.429 . S
C841 C842 1.523 . S
C842 C823 1.368 . S
C842 C836 1.368 . S
C842 C841 1.523 . S
C843 C827 1.429 . S
C843 C839 1.429 . S
C843 C844 1.523 . S
C844 C828 1.368 . S
C844 C840 1.368 . S
C844 C843 1.523 . S
H845 C820 0.950 . S
H846 C822 0.950 . S
H847 C823 0.949 . S
H848 C825 0.950 . S
H849 C827 0.950 . S
C850 C851 1.349 . S
C850 C852 1.327 . S
C850 H875 0.950 . S
C851 C850 1.349 . S
C851 C867 1.349 . S
C852 C850 1.327 . S
C852 C871 1.429 . S
C852 H876 0.950 . S
C853 C870 1.574 . S
C853 C872 1.368 . S
C853 H877 0.949 . S
H854 C858 0.949 . S
C855 C856 1.349 . S
C855 C857 1.327 . S
C855 H878 0.950 . S
C856 C855 1.349 . S
C856 C868 1.349 . S
C857 C855 1.327 . S
C857 C873 1.429 . S
C857 H879 0.950 . S
C858 H854 0.949 . S
C858 C866 1.574 . S
C858 C874 1.368 . S
H859 C867 0.950 . S
H860 C865 0.950 . S
H861 C866 0.949 . S
H862 C868 0.950 . S
H863 C869 0.950 . S
H864 C870 0.949 . S
C865 H860 0.950 . S
C865 C867 1.327 . S
C865 C871 1.429 . S
C866 C858 1.574 . S
C866 H861 0.949 . S
C866 C872 1.368 . S
C867 C851 1.349 . S
C867 H859 0.950 . S
C867 C865 1.327 . S
C868 C856 1.349 . S
C868 H862 0.950 . S
C868 C869 1.327 . S
C869 H863 0.950 . S
C869 C868 1.327 . S
C869 C873 1.429 . S
C870 C853 1.574 . S
C870 H864 0.949 . S
C870 C874 1.368 . S
C871 C852 1.429 . S
C871 C865 1.429 . S
C871 C872 1.523 . S
C872 C853 1.368 . S
C872 C866 1.368 . S
C872 C871 1.523 . S
C873 C857 1.429 . S
C873 C869 1.429 . S
C873 C874 1.523 . S
C874 C858 1.368 . S
C874 C870 1.368 . S
C874 C873 1.523 . S
H875 C850 0.950 . S
H876 C852 0.950 . S
H877 C853 0.949 . S
H878 C855 0.950 . S
H879 C857 0.950 . S
C880 C881 1.349 . S
C880 C882 1.327 . S
C880 H905 0.950 . S
C881 C880 1.349 . S
C881 C897 1.349 . S
C882 C880 1.327 . S
C882 C901 1.429 . S
C882 H906 0.950 . S
C883 C900 1.574 . S
C883 C902 1.368 . S
C883 H907 0.949 . S
H884 C888 0.949 . S
C885 C886 1.349 . S
C885 C887 1.327 . S
C885 H908 0.950 . S
C886 C885 1.349 . S
C886 C898 1.349 . S
C887 C885 1.327 . S
C887 C903 1.429 . S
C887 H909 0.950 . S
C888 H884 0.949 . S
C888 C896 1.574 . S
C888 C904 1.368 . S
H889 C897 0.950 . S
H890 C895 0.950 . S
H891 C896 0.949 . S
H892 C898 0.950 . S
H893 C899 0.950 . S
H894 C900 0.949 . S
C895 H890 0.950 . S
C895 C897 1.327 . S
C895 C901 1.429 . S
C896 C888 1.574 . S
C896 H891 0.949 . S
C896 C902 1.368 . S
C897 C881 1.349 . S
C897 H889 0.950 . S
C897 C895 1.327 . S
C898 C886 1.349 . S
C898 H892 0.950 . S
C898 C899 1.327 . S
C899 H893 0.950 . S
C899 C898 1.327 . S
C899 C903 1.429 . S
C900 C883 1.574 . S
C900 H894 0.949 . S
C900 C904 1.368 . S
C901 C882 1.429 . S
C901 C895 1.429 . S
C901 C902 1.523 . S
C902 C883 1.368 . S
C902 C896 1.368 . S
C902 C901 1.523 . S
C903 C887 1.429 . S
C903 C899 1.429 . S
C903 C904 1.523 . S
C904 C888 1.368 . S
C904 C900 1.368 . S
C904 C903 1.523 . S
H905 C880 0.950 . S
H906 C882 0.950 . S
H907 C883 0.949 . S
H908 C885 0.950 . S
H909 C887 0.950 . S
C910 C911 1.349 . S
C910 C912 1.327 . S
C910 H935 0.950 . S
C911 C910 1.349 . S
C911 C927 1.349 . S
C912 C910 1.327 . S
C912 C931 1.429 . S
C912 H936 0.950 . S
C913 C930 1.574 . S
C913 C932 1.368 . S
C913 H937 0.949 . S
H914 C918 0.949 . S
C915 C916 1.349 . S
C915 C917 1.327 . S
C915 H938 0.950 . S
C916 C915 1.349 . S
C916 C928 1.349 . S
C917 C915 1.327 . S
C917 C933 1.429 . S
C917 H939 0.950 . S
C918 H914 0.949 . S
C918 C926 1.574 . S
C918 C934 1.368 . S
H919 C927 0.950 . S
H920 C925 0.950 . S
H921 C926 0.949 . S
H922 C928 0.950 . S
H923 C929 0.950 . S
H924 C930 0.949 . S
C925 H920 0.950 . S
C925 C927 1.327 . S
C925 C931 1.429 . S
C926 C918 1.574 . S
C926 H921 0.949 . S
C926 C932 1.368 . S
C927 C911 1.349 . S
C927 H919 0.950 . S
C927 C925 1.327 . S
C928 C916 1.349 . S
C928 H922 0.950 . S
C928 C929 1.327 . S
C929 H923 0.950 . S
C929 C928 1.327 . S
C929 C933 1.429 . S
C930 C913 1.574 . S
C930 H924 0.949 . S
C930 C934 1.368 . S
C931 C912 1.429 . S
C931 C925 1.429 . S
C931 C932 1.523 . S
C932 C913 1.368 . S
C932 C926 1.368 . S
C932 C931 1.523 . S
C933 C917 1.429 . S
C933 C929 1.429 . S
C933 C934 1.523 . S
C934 C918 1.368 . S
C934 C930 1.368 . S
C934 C933 1.523 . S
H935 C910 0.950 . S
H936 C912 0.950 . S
H937 C913 0.949 . S
H938 C915 0.950 . S
H939 C917 0.950 . S
C940 C941 1.349 1_655 S
C940 C942 1.327 . S
C940 H965 0.950 . S
C941 C940 1.349 1_455 S
C941 C957 1.349 . S
C942 C940 1.327 . S
C942 C961 1.429 . S
C942 H966 0.950 . S
C943 C960 1.574 . S
C943 C962 1.368 . S
C943 H967 0.949 . S
H944 C948 0.949 . S
C945 C946 1.349 . S
C945 C947 1.327 . S
C945 H968 0.950 . S
C946 C945 1.349 . S
C946 C958 1.349 . S
C947 C945 1.327 . S
C947 C963 1.429 . S
C947 H969 0.950 . S
C948 H944 0.949 . S
C948 C956 1.574 . S
C948 C964 1.368 . S
H949 C957 0.950 . S
H950 C955 0.950 . S
H951 C956 0.949 . S
H952 C958 0.950 . S
H953 C959 0.950 . S
H954 C960 0.949 . S
C955 H950 0.950 . S
C955 C957 1.327 . S
C955 C961 1.429 1_455 S
C956 C948 1.574 . S
C956 H951 0.949 . S
C956 C962 1.368 . S
C957 C941 1.349 . S
C957 H949 0.950 . S
C957 C955 1.327 . S
C958 C946 1.349 . S
C958 H952 0.950 . S
C958 C959 1.327 . S
C959 H953 0.950 . S
C959 C958 1.327 . S
C959 C963 1.429 . S
C960 C943 1.574 . S
C960 H954 0.949 . S
C960 C964 1.368 . S
C961 C942 1.429 . S
C961 C955 1.429 1_655 S
C961 C962 1.523 . S
C962 C943 1.368 . S
C962 C956 1.368 . S
C962 C961 1.523 . S
C963 C947 1.429 . S
C963 C959 1.429 . S
C963 C964 1.523 . S
C964 C948 1.368 . S
C964 C960 1.368 . S
C964 C963 1.523 . S
H965 C940 0.950 . S
H966 C942 0.950 . S
H967 C943 0.949 . S
H968 C945 0.950 . S
H969 C947 0.950 . S
C970 C971 1.349 . S
C970 C972 1.327 . S
C970 H995 0.950 . S
C971 C970 1.349 . S
C971 C987 1.349 . S
C972 C970 1.327 . S
C972 C991 1.429 . S
C972 H996 0.950 . S
C973 C990 1.574 . S
C973 C992 1.368 . S
C973 H997 0.949 . S
H974 C978 0.987 . S
C975 C976 1.349 1_655 S
C975 C977 1.327 1_556 S
C975 H998 0.950 . S
C976 C975 1.349 1_455 S
C976 C988 1.348 . S
C977 C975 1.327 1_554 S
C977 C993 1.429 . S
C977 H999 0.950 . S
C978 H974 0.987 . S
C978 C986 1.561 1_455 S
C978 C994 1.340 1_455 S
H979 C987 0.950 . S
H980 C985 0.950 . S
H981 C986 0.949 . S
H982 C988 0.950 . S
H983 C989 0.950 . S
H984 C990 0.949 . S
C985 H980 0.950 . S
C985 C987 1.327 . S
C985 C991 1.429 . S
C986 C978 1.561 1_655 S
C986 H981 0.949 . S
C986 C992 1.368 . S
C987 C971 1.349 . S
C987 H979 0.950 . S
C987 C985 1.327 . S
C988 C976 1.348 . S
C988 H982 0.950 . S
C988 C989 1.328 1_556 S
C989 H983 0.950 . S
C989 C988 1.328 1_554 S
C989 C993 1.429 1_455 S
C990 C973 1.574 . S
C990 H984 0.949 . S
C990 C994 1.368 . S
C991 C972 1.429 . S
C991 C985 1.429 . S
C991 C992 1.523 . S
C992 C973 1.368 . S
C992 C986 1.368 . S
C992 C991 1.523 . S
C993 C977 1.429 . S
C993 C989 1.429 1_655 S
C993 C994 1.523 . S
C994 C978 1.340 1_655 S
C994 C990 1.368 . S
C994 C993 1.523 . S
H995 C970 0.950 . S
H996 C972 0.950 . S
H997 C973 0.949 . S
H998 C975 0.950 . S
H999 C977 0.950 . S
C1000 C1001 1.349 . S
C1000 C1002 1.327 . S
C1000 H1025 0.950 . S
C1001 C1000 1.349 . S
C1001 C1017 1.349 . S
C1002 C1000 1.327 . S
C1002 C1021 1.429 . S
C1002 H1026 0.950 . S
C1003 C1020 1.574 . S
C1003 C1022 1.368 . S
C1003 H1027 0.949 . S
H1004 C1008 0.949 . S
C1005 C1006 1.349 . S
C1005 C1007 1.327 . S
C1005 H1028 0.950 . S
C1006 C1005 1.349 . S
C1006 C1018 1.349 . S
C1007 C1005 1.327 . S
C1007 C1023 1.429 . S
C1007 H1029 0.950 . S
C1008 H1004 0.949 . S
C1008 C1016 1.574 . S
C1008 C1024 1.368 . S
H1009 C1017 0.950 . S
H1010 C1015 0.950 . S
H1011 C1016 0.949 . S
H1012 C1018 0.950 . S
H1013 C1019 0.950 . S
H1014 C1020 0.949 . S
C1015 H1010 0.950 . S
C1015 C1017 1.327 . S
C1015 C1021 1.429 . S
C1016 C1008 1.574 . S
C1016 H1011 0.949 . S
C1016 C1022 1.368 . S
C1017 C1001 1.349 . S
C1017 H1009 0.950 . S
C1017 C1015 1.327 . S
C1018 C1006 1.349 . S
C1018 H1012 0.950 . S
C1018 C1019 1.327 . S
C1019 H1013 0.950 . S
C1019 C1018 1.327 . S
C1019 C1023 1.429 . S
C1020 C1003 1.574 . S
C1020 H1014 0.949 . S
C1020 C1024 1.368 . S
C1021 C1002 1.429 . S
C1021 C1015 1.429 . S
C1021 C1022 1.523 . S
C1022 C1003 1.368 . S
C1022 C1016 1.368 . S
C1022 C1021 1.523 . S
C1023 C1007 1.429 . S
C1023 C1019 1.429 . S
C1023 C1024 1.523 . S
C1024 C1008 1.368 . S
C1024 C1020 1.368 . S
C1024 C1023 1.523 . S
H1025 C1000 0.950 . S
H1026 C1002 0.950 . S
H1027 C1003 0.949 . S
H1028 C1005 0.950 . S
H1029 C1007 0.950 . S
C1030 C1031 1.349 . S
C1030 C1032 1.327 . S
C1030 H1055 0.950 . S
C1031 C1030 1.349 . S
C1031 C1047 1.349 . S
C1032 C1030 1.327 . S
C1032 C1051 1.429 . S
C1032 H1056 0.950 . S
C1033 C1050 1.574 . S
C1033 C1052 1.368 . S
C1033 H1057 0.949 . S
H1034 C1038 0.949 . S
C1035 C1036 1.349 . S
C1035 C1037 1.327 . S
C1035 H1058 0.950 . S
C1036 C1035 1.349 . S
C1036 C1048 1.349 . S
C1037 C1035 1.327 . S
C1037 C1053 1.429 . S
C1037 H1059 0.950 . S
C1038 H1034 0.949 . S
C1038 C1046 1.574 . S
C1038 C1054 1.368 . S
H1039 C1047 0.950 . S
H1040 C1045 0.950 . S
H1041 C1046 0.949 . S
H1042 C1048 0.950 . S
H1043 C1049 0.950 . S
H1044 C1050 0.949 . S
C1045 H1040 0.950 . S
C1045 C1047 1.327 . S
C1045 C1051 1.429 . S
C1046 C1038 1.574 . S
C1046 H1041 0.949 . S
C1046 C1052 1.368 . S
C1047 C1031 1.349 . S
C1047 H1039 0.950 . S
C1047 C1045 1.327 . S
C1048 C1036 1.349 . S
C1048 H1042 0.950 . S
C1048 C1049 1.327 . S
C1049 H1043 0.950 . S
C1049 C1048 1.327 . S
C1049 C1053 1.429 . S
C1050 C1033 1.574 . S
C1050 H1044 0.949 . S
C1050 C1054 1.368 . S
C1051 C1032 1.429 . S
C1051 C1045 1.429 . S
C1051 C1052 1.523 . S
C1052 C1033 1.368 . S
C1052 C1046 1.368 . S
C1052 C1051 1.523 . S
C1053 C1037 1.429 . S
C1053 C1049 1.429 . S
C1053 C1054 1.523 . S
C1054 C1038 1.368 . S
C1054 C1050 1.368 . S
C1054 C1053 1.523 . S
H1055 C1030 0.950 . S
H1056 C1032 0.950 . S
H1057 C1033 0.949 . S
H1058 C1035 0.950 . S
H1059 C1037 0.950 . S
C1060 C1061 1.349 . S
C1060 C1062 1.327 . S
C1060 H1085 0.950 . S
C1061 C1060 1.349 . S
C1061 C1077 1.349 . S
C1062 C1060 1.327 . S
C1062 C1081 1.429 . S
C1062 H1086 0.950 . S
C1063 C1080 1.574 . S
C1063 C1082 1.368 . S
C1063 H1087 0.949 . S
H1064 C1068 0.949 . S
C1065 C1066 1.349 . S
C1065 C1067 1.327 . S
C1065 H1088 0.950 . S
C1066 C1065 1.349 . S
C1066 C1078 1.349 . S
C1067 C1065 1.327 . S
C1067 C1083 1.429 . S
C1067 H1089 0.950 . S
C1068 H1064 0.949 . S
C1068 C1076 1.574 . S
C1068 C1084 1.368 . S
H1069 C1077 0.950 . S
H1070 C1075 0.950 . S
H1071 C1076 0.949 . S
H1072 C1078 0.950 . S
H1073 C1079 0.950 . S
H1074 C1080 0.949 . S
C1075 H1070 0.950 . S
C1075 C1077 1.327 . S
C1075 C1081 1.429 . S
C1076 C1068 1.574 . S
C1076 H1071 0.949 . S
C1076 C1082 1.368 . S
C1077 C1061 1.349 . S
C1077 H1069 0.950 . S
C1077 C1075 1.327 . S
C1078 C1066 1.349 . S
C1078 H1072 0.950 . S
C1078 C1079 1.327 . S
C1079 H1073 0.950 . S
C1079 C1078 1.327 . S
C1079 C1083 1.429 . S
C1080 C1063 1.574 . S
C1080 H1074 0.949 . S
C1080 C1084 1.368 . S
C1081 C1062 1.429 . S
C1081 C1075 1.429 . S
C1081 C1082 1.523 . S
C1082 C1063 1.368 . S
C1082 C1076 1.368 . S
C1082 C1081 1.523 . S
C1083 C1067 1.429 . S
C1083 C1079 1.429 . S
C1083 C1084 1.523 . S
C1084 C1068 1.368 . S
C1084 C1080 1.368 . S
C1084 C1083 1.523 . S
H1085 C1060 0.950 . S
H1086 C1062 0.950 . S
H1087 C1063 0.949 . S
H1088 C1065 0.950 . S
H1089 C1067 0.950 . S
C1090 C1091 1.349 . S
C1090 C1092 1.327 . S
C1090 H1115 0.950 . S
C1091 C1090 1.349 . S
C1091 C1107 1.349 . S
C1092 C1090 1.327 . S
C1092 C1111 1.429 . S
C1092 H1116 0.950 . S
C1093 C1110 1.574 . S
C1093 C1112 1.368 . S
C1093 H1117 0.949 . S
H1094 C1098 0.949 . S
C1095 C1096 1.349 . S
C1095 C1097 1.327 . S
C1095 H1118 0.950 . S
C1096 C1095 1.349 . S
C1096 C1108 1.349 . S
C1097 C1095 1.327 . S
C1097 C1113 1.429 . S
C1097 H1119 0.950 . S
C1098 H1094 0.949 . S
C1098 C1106 1.574 . S
C1098 C1114 1.368 . S
H1099 C1107 0.950 . S
H1100 C1105 0.950 . S
H1101 C1106 0.949 . S
H1102 C1108 0.950 . S
H1103 C1109 0.950 . S
H1104 C1110 0.949 . S
C1105 H1100 0.950 . S
C1105 C1107 1.327 . S
C1105 C1111 1.429 . S
C1106 C1098 1.574 . S
C1106 H1101 0.949 . S
C1106 C1112 1.368 . S
C1107 C1091 1.349 . S
C1107 H1099 0.950 . S
C1107 C1105 1.327 . S
C1108 C1096 1.349 . S
C1108 H1102 0.950 . S
C1108 C1109 1.327 . S
C1109 H1103 0.950 . S
C1109 C1108 1.327 . S
C1109 C1113 1.429 . S
C1110 C1093 1.574 . S
C1110 H1104 0.949 . S
C1110 C1114 1.368 . S
C1111 C1092 1.429 . S
C1111 C1105 1.429 . S
C1111 C1112 1.523 . S
C1112 C1093 1.368 . S
C1112 C1106 1.368 . S
C1112 C1111 1.523 . S
C1113 C1097 1.429 . S
C1113 C1109 1.429 . S
C1113 C1114 1.523 . S
C1114 C1098 1.368 . S
C1114 C1110 1.368 . S
C1114 C1113 1.523 . S
H1115 C1090 0.950 . S
H1116 C1092 0.950 . S
H1117 C1093 0.949 . S
H1118 C1095 0.950 . S
H1119 C1097 0.950 . S
C1120 C1121 1.349 . S
C1120 C1122 1.327 . S
C1120 H1145 0.950 . S
C1121 C1120 1.349 . S
C1121 C1137 1.349 . S
C1122 C1120 1.327 . S
C1122 C1141 1.429 . S
C1122 H1146 0.950 . S
C1123 C1140 1.574 . S
C1123 C1142 1.368 . S
C1123 H1147 0.949 . S
H1124 C1128 0.949 . S
C1125 C1126 1.349 . S
C1125 C1127 1.327 . S
C1125 H1148 0.950 . S
C1126 C1125 1.349 . S
C1126 C1138 1.349 . S
C1127 C1125 1.327 . S
C1127 C1143 1.429 . S
C1127 H1149 0.950 . S
C1128 H1124 0.949 . S
C1128 C1136 1.574 . S
C1128 C1144 1.368 . S
H1129 C1137 0.950 . S
H1130 C1135 0.950 . S
H1131 C1136 0.949 . S
H1132 C1138 0.950 . S
H1133 C1139 0.950 . S
H1134 C1140 0.949 . S
C1135 H1130 0.950 . S
C1135 C1137 1.327 . S
C1135 C1141 1.429 . S
C1136 C1128 1.574 . S
C1136 H1131 0.949 . S
C1136 C1142 1.368 . S
C1137 C1121 1.349 . S
C1137 H1129 0.950 . S
C1137 C1135 1.327 . S
C1138 C1126 1.349 . S
C1138 H1132 0.950 . S
C1138 C1139 1.327 . S
C1139 H1133 0.950 . S
C1139 C1138 1.327 . S
C1139 C1143 1.429 . S
C1140 C1123 1.574 . S
C1140 H1134 0.949 . S
C1140 C1144 1.368 . S
C1141 C1122 1.429 . S
C1141 C1135 1.429 . S
C1141 C1142 1.523 . S
C1142 C1123 1.368 . S
C1142 C1136 1.368 . S
C1142 C1141 1.523 . S
C1143 C1127 1.429 . S
C1143 C1139 1.429 . S
C1143 C1144 1.523 . S
C1144 C1128 1.368 . S
C1144 C1140 1.368 . S
C1144 C1143 1.523 . S
H1145 C1120 0.950 . S
H1146 C1122 0.950 . S
H1147 C1123 0.949 . S
H1148 C1125 0.950 . S
H1149 C1127 0.950 . S
C1150 C1151 1.349 . S
C1150 C1152 1.327 . S
C1150 H1175 0.950 . S
C1151 C1150 1.349 . S
C1151 C1167 1.349 . S
C1152 C1150 1.327 . S
C1152 C1171 1.429 . S
C1152 H1176 0.950 . S
C1153 C1170 1.574 . S
C1153 C1172 1.368 . S
C1153 H1177 0.949 . S
H1154 C1158 0.949 . S
C1155 C1156 1.349 . S
C1155 C1157 1.327 . S
C1155 H1178 0.950 . S
C1156 C1155 1.349 . S
C1156 C1168 1.349 . S
C1157 C1155 1.327 . S
C1157 C1173 1.429 . S
C1157 H1179 0.950 . S
C1158 H1154 0.949 . S
C1158 C1166 1.574 . S
C1158 C1174 1.368 . S
H1159 C1167 0.950 . S
H1160 C1165 0.950 . S
H1161 C1166 0.949 . S
H1162 C1168 0.950 . S
H1163 C1169 0.950 . S
H1164 C1170 0.949 . S
C1165 H1160 0.950 . S
C1165 C1167 1.327 . S
C1165 C1171 1.429 . S
C1166 C1158 1.574 . S
C1166 H1161 0.949 . S
C1166 C1172 1.368 . S
C1167 C1151 1.349 . S
C1167 H1159 0.950 . S
C1167 C1165 1.327 . S
C1168 C1156 1.349 . S
C1168 H1162 0.950 . S
C1168 C1169 1.327 . S
C1169 H1163 0.950 . S
C1169 C1168 1.327 . S
C1169 C1173 1.429 . S
C1170 C1153 1.574 . S
C1170 H1164 0.949 . S
C1170 C1174 1.368 . S
C1171 C1152 1.429 . S
C1171 C1165 1.429 . S
C1171 C1172 1.523 1_655 S
C1172 C1153 1.368 . S
C1172 C1166 1.368 . S
C1172 C1171 1.523 1_455 S
C1173 C1157 1.429 . S
C1173 C1169 1.429 . S
C1173 C1174 1.523 . S
C1174 C1158 1.368 . S
C1174 C1170 1.368 . S
C1174 C1173 1.523 . S
H1175 C1150 0.950 . S
H1176 C1152 0.950 . S
H1177 C1153 0.949 . S
H1178 C1155 0.950 . S
H1179 C1157 0.950 . S
C1180 C1181 1.349 . S
C1180 C1182 1.327 . S
C1180 H1205 0.950 . S
C1181 C1180 1.349 . S
C1181 C1197 1.349 . S
C1182 C1180 1.327 . S
C1182 C1201 1.429 . S
C1182 H1206 0.950 . S
C1183 C1200 1.574 . S
C1183 C1202 1.368 . S
C1183 H1207 0.949 . S
H1184 C1188 0.949 . S
C1185 C1186 1.349 . S
C1185 C1187 1.327 . S
C1185 H1208 0.950 . S
C1186 C1185 1.349 . S
C1186 C1198 1.349 . S
C1187 C1185 1.327 . S
C1187 C1203 1.429 . S
C1187 H1209 0.950 . S
C1188 H1184 0.949 . S
C1188 C1196 1.574 . S
C1188 C1204 1.368 . S
H1189 C1197 0.950 . S
H1190 C1195 0.950 . S
H1191 C1196 0.949 . S
H1192 C1198 0.950 . S
H1193 C1199 0.950 . S
H1194 C1200 0.949 . S
C1195 H1190 0.950 . S
C1195 C1197 1.327 . S
C1195 C1201 1.429 . S
C1196 C1188 1.574 . S
C1196 H1191 0.949 . S
C1196 C1202 1.368 . S
C1197 C1181 1.349 . S
C1197 H1189 0.950 . S
C1197 C1195 1.327 . S
C1198 C1186 1.349 . S
C1198 H1192 0.950 . S
C1198 C1199 1.327 . S
C1199 H1193 0.950 . S
C1199 C1198 1.327 . S
C1199 C1203 1.429 . S
C1200 C1183 1.574 . S
C1200 H1194 0.949 . S
C1200 C1204 1.368 . S
C1201 C1182 1.429 . S
C1201 C1195 1.429 . S
C1201 C1202 1.523 . S
C1202 C1183 1.368 . S
C1202 C1196 1.368 . S
C1202 C1201 1.523 . S
C1203 C1187 1.429 . S
C1203 C1199 1.429 . S
C1203 C1204 1.523 . S
C1204 C1188 1.368 . S
C1204 C1200 1.368 . S
C1204 C1203 1.523 . S
H1205 C1180 0.950 . S
H1206 C1182 0.950 . S
H1207 C1183 0.949 . S
H1208 C1185 0.950 . S
H1209 C1187 0.950 . S
C1210 C1211 1.349 . S
C1210 C1212 1.327 . S
C1210 H1235 0.950 . S
C1211 C1210 1.349 . S
C1211 C1227 1.349 . S
C1212 C1210 1.327 . S
C1212 C1231 1.429 . S
C1212 H1236 0.950 . S
C1213 C1230 1.574 . S
C1213 C1232 1.368 . S
C1213 H1237 0.949 . S
H1214 C1218 0.949 . S
C1215 C1216 1.349 . S
C1215 C1217 1.327 . S
C1215 H1238 0.950 . S
C1216 C1215 1.349 . S
C1216 C1228 1.349 . S
C1217 C1215 1.327 . S
C1217 C1233 1.429 . S
C1217 H1239 0.950 . S
C1218 H1214 0.949 . S
C1218 C1226 1.574 . S
C1218 C1234 1.368 . S
H1219 C1227 0.950 . S
H1220 C1225 0.950 . S
H1221 C1226 0.949 . S
H1222 C1228 0.950 . S
H1223 C1229 0.950 . S
H1224 C1230 0.949 . S
C1225 H1220 0.950 . S
C1225 C1227 1.327 . S
C1225 C1231 1.429 . S
C1226 C1218 1.574 . S
C1226 H1221 0.949 . S
C1226 C1232 1.368 . S
C1227 C1211 1.349 . S
C1227 H1219 0.950 . S
C1227 C1225 1.327 . S
C1228 C1216 1.349 . S
C1228 H1222 0.950 . S
C1228 C1229 1.327 . S
C1229 H1223 0.950 . S
C1229 C1228 1.327 . S
C1229 C1233 1.429 . S
C1230 C1213 1.574 . S
C1230 H1224 0.949 . S
C1230 C1234 1.368 . S
C1231 C1212 1.429 . S
C1231 C1225 1.429 . S
C1231 C1232 1.523 . S
C1232 C1213 1.368 . S
C1232 C1226 1.368 . S
C1232 C1231 1.523 . S
C1233 C1217 1.429 . S
C1233 C1229 1.429 . S
C1233 C1234 1.523 . S
C1234 C1218 1.368 . S
C1234 C1230 1.368 . S
C1234 C1233 1.523 . S
H1235 C1210 0.950 . S
H1236 C1212 0.950 . S
H1237 C1213 0.949 . S
H1238 C1215 0.950 . S
H1239 C1217 0.950 . S
C1240 C1241 1.346 1_655 S
C1240 C1242 1.327 . S
C1240 H1265 0.950 . S
C1241 C1240 1.346 1_455 S
C1241 C1257 1.354 . S
C1242 C1240 1.327 . S
C1242 C1261 1.429 1_655 S
C1242 H1266 0.950 . S
C1243 C1260 1.574 . S
C1243 C1262 1.368 . S
C1243 H1267 0.949 . S
H1244 C1248 0.949 . S
C1245 C1246 1.349 . S
C1245 C1247 1.327 . S
C1245 H1268 0.950 . S
C1246 C1245 1.349 . S
C1246 C1258 1.349 . S
C1247 C1245 1.327 . S
C1247 C1263 1.429 . S
C1247 H1269 0.950 . S
C1248 H1244 0.949 . S
C1248 C1256 1.574 . S
C1248 C1264 1.368 . S
H1249 C1257 0.950 . S
H1250 C1255 0.950 . S
H1251 C1256 0.968 . S
H1252 C1258 0.950 . S
H1253 C1259 0.950 . S
H1254 C1260 0.949 . S
C1255 H1250 0.950 . S
C1255 C1257 1.327 . S
C1255 C1261 1.429 . S
C1256 C1248 1.574 . S
C1256 H1251 0.968 . S
C1256 C1262 1.368 . S
C1257 C1241 1.354 . S
C1257 H1249 0.950 . S
C1257 C1255 1.327 . S
C1258 C1246 1.349 . S
C1258 H1252 0.950 . S
C1258 C1259 1.327 . S
C1259 H1253 0.950 . S
C1259 C1258 1.327 . S
C1259 C1263 1.429 . S
C1260 C1243 1.574 . S
C1260 H1254 0.949 . S
C1260 C1264 1.368 . S
C1261 C1242 1.429 1_455 S
C1261 C1255 1.429 . S
C1261 C1262 1.523 . S
C1262 C1243 1.368 . S
C1262 C1256 1.368 . S
C1262 C1261 1.523 . S
C1263 C1247 1.429 . S
C1263 C1259 1.429 . S
C1263 C1264 1.523 . S
C1264 C1248 1.368 . S
C1264 C1260 1.368 . S
C1264 C1263 1.523 . S
H1265 C1240 0.950 . S
H1266 C1242 0.950 . S
H1267 C1243 0.949 . S
H1268 C1245 0.950 . S
H1269 C1247 0.950 . S
C1270 C1271 1.349 . S
C1270 C1272 1.327 . S
C1270 H1295 0.950 . S
C1271 C1270 1.349 . S
C1271 C1287 1.349 . S
C1272 C1270 1.327 . S
C1272 C1291 1.429 . S
C1272 H1296 0.950 . S
C1273 C1290 1.574 . S
C1273 C1292 1.368 . S
C1273 H1297 0.949 . S
H1274 C1278 0.949 . S
C1275 C1276 1.349 . S
C1275 C1277 1.327 . S
C1275 H1298 0.950 . S
C1276 C1275 1.349 . S
C1276 C1288 1.349 . S
C1277 C1275 1.327 . S
C1277 C1293 1.429 . S
C1277 H1299 0.950 . S
C1278 H1274 0.949 . S
C1278 C1286 1.574 . S
C1278 C1294 1.368 . S
H1279 C1287 0.950 . S
H1280 C1285 0.950 . S
H1281 C1286 0.949 . S
H1282 C1288 0.950 . S
H1283 C1289 0.950 . S
H1284 C1290 0.949 . S
C1285 H1280 0.950 . S
C1285 C1287 1.327 . S
C1285 C1291 1.429 . S
C1286 C1278 1.574 . S
C1286 H1281 0.949 . S
C1286 C1292 1.368 . S
C1287 C1271 1.349 . S
C1287 H1279 0.950 . S
C1287 C1285 1.327 . S
C1288 C1276 1.349 . S
C1288 H1282 0.950 . S
C1288 C1289 1.327 . S
C1289 H1283 0.950 . S
C1289 C1288 1.327 . S
C1289 C1293 1.429 . S
C1290 C1273 1.574 . S
C1290 H1284 0.949 . S
C1290 C1294 1.368 . S
C1291 C1272 1.429 . S
C1291 C1285 1.429 . S
C1291 C1292 1.523 . S
C1292 C1273 1.368 . S
C1292 C1286 1.368 . S
C1292 C1291 1.523 . S
C1293 C1277 1.429 . S
C1293 C1289 1.429 . S
C1293 C1294 1.523 . S
C1294 C1278 1.368 . S
C1294 C1290 1.368 . S
C1294 C1293 1.523 . S
H1295 C1270 0.950 . S
H1296 C1272 0.950 . S
H1297 C1273 0.949 . S
H1298 C1275 0.950 . S
H1299 C1277 0.950 . S
C1300 C1301 1.349 . S
C1300 C1302 1.327 . S
C1300 H1325 0.950 . S
C1301 C1300 1.349 . S
C1301 C1317 1.349 . S
C1302 C1300 1.327 . S
C1302 C1321 1.429 . S
C1302 H1326 0.950 . S
C1303 C1320 1.574 . S
C1303 C1322 1.368 . S
C1303 H1327 0.949 . S
H1304 C1308 0.949 . S
C1305 C1306 1.349 . S
C1305 C1307 1.327 . S
C1305 H1328 0.950 . S
C1306 C1305 1.349 . S
C1306 C1318 1.349 . S
C1307 C1305 1.327 . S
C1307 C1323 1.429 . S
C1307 H1329 0.950 . S
C1308 H1304 0.949 . S
C1308 C1316 1.574 . S
C1308 C1324 1.368 . S
H1309 C1317 0.950 . S
H1310 C1315 0.950 . S
H1311 C1316 0.949 . S
H1312 C1318 0.950 . S
H1313 C1319 0.950 . S
H1314 C1320 0.949 . S
C1315 H1310 0.950 . S
C1315 C1317 1.327 . S
C1315 C1321 1.429 . S
C1316 C1308 1.574 . S
C1316 H1311 0.949 . S
C1316 C1322 1.368 . S
C1317 C1301 1.349 . S
C1317 H1309 0.950 . S
C1317 C1315 1.327 . S
C1318 C1306 1.349 . S
C1318 H1312 0.950 . S
C1318 C1319 1.327 . S
C1319 H1313 0.950 . S
C1319 C1318 1.327 . S
C1319 C1323 1.429 . S
C1320 C1303 1.574 . S
C1320 H1314 0.949 . S
C1320 C1324 1.368 . S
C1321 C1302 1.429 . S
C1321 C1315 1.429 . S
C1321 C1322 1.523 . S
C1322 C1303 1.368 . S
C1322 C1316 1.368 . S
C1322 C1321 1.523 . S
C1323 C1307 1.429 . S
C1323 C1319 1.429 . S
C1323 C1324 1.523 . S
C1324 C1308 1.368 . S
C1324 C1320 1.368 . S
C1324 C1323 1.523 . S
H1325 C1300 0.950 . S
H1326 C1302 0.950 . S
H1327 C1303 0.949 . S
H1328 C1305 0.950 . S
H1329 C1307 0.950 . S
C1330 C1331 1.349 . S
C1330 C1332 1.327 . S
C1330 H1355 0.950 . S
C1331 C1330 1.349 . S
C1331 C1347 1.349 . S
C1332 C1330 1.327 . S
C1332 C1351 1.429 . S
C1332 H1356 0.950 . S
C1333 C1350 1.574 . S
C1333 C1352 1.368 . S
C1333 H1357 0.949 . S
H1334 C1338 0.949 . S
C1335 C1336 1.349 . S
C1335 C1337 1.327 . S
C1335 H1358 0.950 . S
C1336 C1335 1.349 . S
C1336 C1348 1.349 . S
C1337 C1335 1.327 . S
C1337 C1353 1.429 . S
C1337 H1359 0.950 . S
C1338 H1334 0.949 . S
C1338 C1346 1.574 . S
C1338 C1354 1.368 . S
H1339 C1347 0.950 . S
H1340 C1345 0.950 . S
H1341 C1346 0.949 . S
H1342 C1348 0.950 . S
H1343 C1349 0.950 . S
H1344 C1350 0.949 . S
C1345 H1340 0.950 . S
C1345 C1347 1.327 . S
C1345 C1351 1.429 . S
C1346 C1338 1.574 . S
C1346 H1341 0.949 . S
C1346 C1352 1.368 . S
C1347 C1331 1.349 . S
C1347 H1339 0.950 . S
C1347 C1345 1.327 . S
C1348 C1336 1.349 . S
C1348 H1342 0.950 . S
C1348 C1349 1.327 . S
C1349 H1343 0.950 . S
C1349 C1348 1.327 . S
C1349 C1353 1.429 . S
C1350 C1333 1.574 . S
C1350 H1344 0.949 . S
C1350 C1354 1.368 . S
C1351 C1332 1.429 . S
C1351 C1345 1.429 . S
C1351 C1352 1.523 . S
C1352 C1333 1.368 . S
C1352 C1346 1.368 . S
C1352 C1351 1.523 . S
C1353 C1337 1.429 . S
C1353 C1349 1.429 . S
C1353 C1354 1.523 1_655 S
C1354 C1338 1.368 . S
C1354 C1350 1.368 . S
C1354 C1353 1.523 1_455 S
H1355 C1330 0.950 . S
H1356 C1332 0.950 . S
H1357 C1333 0.949 . S
H1358 C1335 0.950 . S
H1359 C1337 0.950 . S
C1360 C1361 1.349 . S
C1360 C1362 1.327 . S
C1360 H1385 0.950 . S
C1361 C1360 1.349 . S
C1361 C1377 1.349 . S
C1362 C1360 1.327 . S
C1362 C1381 1.429 . S
C1362 H1386 0.950 . S
C1363 C1380 1.574 . S
C1363 C1382 1.368 . S
C1363 H1387 0.949 . S
H1364 C1368 0.949 . S
C1365 C1366 1.349 . S
C1365 C1367 1.327 . S
C1365 H1388 0.950 . S
C1366 C1365 1.349 . S
C1366 C1378 1.349 . S
C1367 C1365 1.327 . S
C1367 C1383 1.429 . S
C1367 H1389 0.950 . S
C1368 H1364 0.949 . S
C1368 C1376 1.574 . S
C1368 C1384 1.368 . S
H1369 C1377 0.950 . S
H1370 C1375 0.950 . S
H1371 C1376 0.949 . S
H1372 C1378 0.950 . S
H1373 C1379 0.950 1_554 S
H1374 C1380 0.949 1_556 S
C1375 H1370 0.950 . S
C1375 C1377 1.327 . S
C1375 C1381 1.429 . S
C1376 C1368 1.574 . S
C1376 H1371 0.949 . S
C1376 C1382 1.368 1_565 S
C1377 C1361 1.349 . S
C1377 H1369 0.950 . S
C1377 C1375 1.327 . S
C1378 C1366 1.349 . S
C1378 H1372 0.950 . S
C1378 C1379 1.327 . S
C1379 H1373 0.950 1_556 S
C1379 C1378 1.327 . S
C1379 C1383 1.429 . S
C1380 C1363 1.574 . S
C1380 H1374 0.949 1_554 S
C1380 C1384 1.368 1_545 S
C1381 C1362 1.429 . S
C1381 C1375 1.429 . S
C1381 C1382 1.523 . S
C1382 C1363 1.368 . S
C1382 C1376 1.368 1_545 S
C1382 C1381 1.523 . S
C1383 C1367 1.429 . S
C1383 C1379 1.429 . S
C1383 C1384 1.523 1_556 S
C1384 C1368 1.368 . S
C1384 C1380 1.368 1_565 S
C1384 C1383 1.523 1_554 S
H1385 C1360 0.950 . S
H1386 C1362 0.950 . S
H1387 C1363 0.949 . S
H1388 C1365 0.950 . S
H1389 C1367 0.950 . S
C1390 C1391 1.349 . S
C1390 C1392 1.327 . S
C1390 H1415 0.950 . S
C1391 C1390 1.349 . S
C1391 C1407 1.349 . S
C1392 C1390 1.327 . S
C1392 C1411 1.429 . S
C1392 H1416 0.950 . S
C1393 C1410 1.574 . S
C1393 C1412 1.368 . S
C1393 H1417 0.949 . S
H1394 C1398 0.949 . S
C1395 C1396 1.349 . S
C1395 C1397 1.327 . S
C1395 H1418 0.950 . S
C1396 C1395 1.349 . S
C1396 C1408 1.349 . S
C1397 C1395 1.327 . S
C1397 C1413 1.429 . S
C1397 H1419 0.950 . S
C1398 H1394 0.949 . S
C1398 C1406 1.574 . S
C1398 C1414 1.368 . S
H1399 C1407 0.950 . S
H1400 C1405 0.950 . S
H1401 C1406 0.949 . S
H1402 C1408 0.950 . S
H1403 C1409 0.950 . S
H1404 C1410 0.949 . S
C1405 H1400 0.950 . S
C1405 C1407 1.327 . S
C1405 C1411 1.429 . S
C1406 C1398 1.574 . S
C1406 H1401 0.949 . S
C1406 C1412 1.368 . S
C1407 C1391 1.349 . S
C1407 H1399 0.950 . S
C1407 C1405 1.327 . S
C1408 C1396 1.349 . S
C1408 H1402 0.950 . S
C1408 C1409 1.327 . S
C1409 H1403 0.950 . S
C1409 C1408 1.327 . S
C1409 C1413 1.429 . S
C1410 C1393 1.574 . S
C1410 H1404 0.949 . S
C1410 C1414 1.368 . S
C1411 C1392 1.429 . S
C1411 C1405 1.429 . S
C1411 C1412 1.523 . S
C1412 C1393 1.368 . S
C1412 C1406 1.368 . S
C1412 C1411 1.523 . S
C1413 C1397 1.429 . S
C1413 C1409 1.429 . S
C1413 C1414 1.523 . S
C1414 C1398 1.368 . S
C1414 C1410 1.368 . S
C1414 C1413 1.523 . S
H1415 C1390 0.950 . S
H1416 C1392 0.950 . S
H1417 C1393 0.949 . S
H1418 C1395 0.950 . S
H1419 C1397 0.950 . S
C1420 C1421 1.349 . S
C1420 C1422 1.327 . S
C1420 H1445 0.950 . S
C1421 C1420 1.349 . S
C1421 C1437 1.349 . S
C1422 C1420 1.327 . S
C1422 C1441 1.429 . S
C1422 H1446 0.950 . S
C1423 C1440 1.574 . S
C1423 C1442 1.368 . S
C1423 H1447 0.949 . S
H1424 C1428 0.949 . S
C1425 C1426 1.349 . S
C1425 C1427 1.327 . S
C1425 H1448 0.950 . S
C1426 C1425 1.349 . S
C1426 C1438 1.349 . S
C1427 C1425 1.327 . S
C1427 C1443 1.429 . S
C1427 H1449 0.950 . S
C1428 H1424 0.949 . S
C1428 C1436 1.574 . S
C1428 C1444 1.368 . S
H1429 C1437 0.950 . S
H1430 C1435 0.950 . S
H1431 C1436 0.949 . S
H1432 C1438 0.950 . S
H1433 C1439 0.950 . S
H1434 C1440 0.949 . S
C1435 H1430 0.950 . S
C1435 C1437 1.327 . S
C1435 C1441 1.429 . S
C1436 C1428 1.574 . S
C1436 H1431 0.949 . S
C1436 C1442 1.368 1_565 S
C1437 C1421 1.349 . S
C1437 H1429 0.950 . S
C1437 C1435 1.327 . S
C1438 C1426 1.349 . S
C1438 H1432 0.950 . S
C1438 C1439 1.327 . S
C1439 H1433 0.950 . S
C1439 C1438 1.327 . S
C1439 C1443 1.429 . S
C1440 C1423 1.574 . S
C1440 H1434 0.949 . S
C1440 C1444 1.368 1_545 S
C1441 C1422 1.429 . S
C1441 C1435 1.429 . S
C1441 C1442 1.523 . S
C1442 C1423 1.368 . S
C1442 C1436 1.368 1_545 S
C1442 C1441 1.523 . S
C1443 C1427 1.429 . S
C1443 C1439 1.429 . S
C1443 C1444 1.523 . S
C1444 C1428 1.368 . S
C1444 C1440 1.368 1_565 S
C1444 C1443 1.523 . S
H1445 C1420 0.950 . S
H1446 C1422 0.950 . S
H1447 C1423 0.949 . S
H1448 C1425 0.950 . S
H1449 C1427 0.950 . S
C1450 C1451 1.349 . S
C1450 C1452 1.327 . S
C1450 H1475 0.950 . S
C1451 C1450 1.349 . S
C1451 C1467 1.349 . S
C1452 C1450 1.327 . S
C1452 C1471 1.429 . S
C1452 H1476 0.950 . S
C1453 C1470 1.574 . S
C1453 C1472 1.368 . S
C1453 H1477 0.949 . S
H1454 C1458 0.949 . S
C1455 C1456 1.349 . S
C1455 C1457 1.327 . S
C1455 H1478 0.950 . S
C1456 C1455 1.349 . S
C1456 C1468 1.349 . S
C1457 C1455 1.327 . S
C1457 C1473 1.429 . S
C1457 H1479 0.950 . S
C1458 H1454 0.949 . S
C1458 C1466 1.574 . S
C1458 C1474 1.368 . S
H1459 C1467 0.950 . S
H1460 C1465 0.950 . S
H1461 C1466 0.949 . S
H1462 C1468 0.950 . S
H1463 C1469 0.950 . S
H1464 C1470 0.949 . S
C1465 H1460 0.950 . S
C1465 C1467 1.327 . S
C1465 C1471 1.429 . S
C1466 C1458 1.574 . S
C1466 H1461 0.949 . S
C1466 C1472 1.368 . S
C1467 C1451 1.349 . S
C1467 H1459 0.950 . S
C1467 C1465 1.327 . S
C1468 C1456 1.349 . S
C1468 H1462 0.950 . S
C1468 C1469 1.327 . S
C1469 H1463 0.950 . S
C1469 C1468 1.327 . S
C1469 C1473 1.429 . S
C1470 C1453 1.574 . S
C1470 H1464 0.949 . S
C1470 C1474 1.368 . S
C1471 C1452 1.429 . S
C1471 C1465 1.429 . S
C1471 C1472 1.523 . S
C1472 C1453 1.368 . S
C1472 C1466 1.368 . S
C1472 C1471 1.523 . S
C1473 C1457 1.429 . S
C1473 C1469 1.429 . S
C1473 C1474 1.523 . S
C1474 C1458 1.368 . S
C1474 C1470 1.368 . S
C1474 C1473 1.523 . S
H1475 C1450 0.950 . S
H1476 C1452 0.950 . S
H1477 C1453 0.949 . S
H1478 C1455 0.950 . S
H1479 C1457 0.950 . S
C1480 C1481 1.349 . S
C1480 C1482 1.327 . S
C1480 H1505 0.950 . S
C1481 C1480 1.349 . S
C1481 C1497 1.349 . S
C1482 C1480 1.327 . S
C1482 C1501 1.429 . S
C1482 H1506 0.950 . S
C1483 C1500 1.574 . S
C1483 C1502 1.368 . S
C1483 H1507 0.949 . S
H1484 C1488 0.949 . S
C1485 C1486 1.349 . S
C1485 C1487 1.327 . S
C1485 H1508 0.950 . S
C1486 C1485 1.349 . S
C1486 C1498 1.349 . S
C1487 C1485 1.327 . S
C1487 C1503 1.429 . S
C1487 H1509 0.950 . S
C1488 H1484 0.949 . S
C1488 C1496 1.574 . S
C1488 C1504 1.368 . S
H1489 C1497 0.950 . S
H1490 C1495 0.950 . S
H1491 C1496 0.949 . S
H1492 C1498 0.950 . S
H1493 C1499 0.950 . S
H1494 C1500 0.949 . S
C1495 H1490 0.950 . S
C1495 C1497 1.327 . S
C1495 C1501 1.429 . S
C1496 C1488 1.574 . S
C1496 H1491 0.949 . S
C1496 C1502 1.368 . S
C1497 C1481 1.349 . S
C1497 H1489 0.950 . S
C1497 C1495 1.327 . S
C1498 C1486 1.349 . S
C1498 H1492 0.950 . S
C1498 C1499 1.327 . S
C1499 H1493 0.950 . S
C1499 C1498 1.327 . S
C1499 C1503 1.429 . S
C1500 C1483 1.574 . S
C1500 H1494 0.949 . S
C1500 C1504 1.368 . S
C1501 C1482 1.429 . S
C1501 C1495 1.429 . S
C1501 C1502 1.523 . S
C1502 C1483 1.368 . S
C1502 C1496 1.368 . S
C1502 C1501 1.523 . S
C1503 C1487 1.429 . S
C1503 C1499 1.429 . S
C1503 C1504 1.523 . S
C1504 C1488 1.368 . S
C1504 C1500 1.368 . S
C1504 C1503 1.523 . S
H1505 C1480 0.950 . S
H1506 C1482 0.950 . S
H1507 C1483 0.949 . S
H1508 C1485 0.950 . S
H1509 C1487 0.950 . S
C1510 C1511 1.349 . S
C1510 C1512 1.327 . S
C1510 H1535 0.950 . S
C1511 C1510 1.349 . S
C1511 C1527 1.349 . S
C1512 C1510 1.327 . S
C1512 C1531 1.429 . S
C1512 H1536 0.950 . S
C1513 C1530 1.574 . S
C1513 C1532 1.368 . S
C1513 H1537 0.949 . S
H1514 C1518 0.949 . S
C1515 C1516 1.349 . S
C1515 C1517 1.327 . S
C1515 H1538 0.950 . S
C1516 C1515 1.349 . S
C1516 C1528 1.349 . S
C1517 C1515 1.327 . S
C1517 C1533 1.429 . S
C1517 H1539 0.950 . S
C1518 H1514 0.949 . S
C1518 C1526 1.574 . S
C1518 C1534 1.368 . S
H1519 C1527 0.950 . S
H1520 C1525 0.950 . S
H1521 C1526 0.949 . S
H1522 C1528 0.950 . S
H1523 C1529 0.950 . S
H1524 C1530 0.949 . S
C1525 H1520 0.950 . S
C1525 C1527 1.327 . S
C1525 C1531 1.429 . S
C1526 C1518 1.574 . S
C1526 H1521 0.949 . S
C1526 C1532 1.368 . S
C1527 C1511 1.349 . S
C1527 H1519 0.950 . S
C1527 C1525 1.327 . S
C1528 C1516 1.349 . S
C1528 H1522 0.950 . S
C1528 C1529 1.327 . S
C1529 H1523 0.950 . S
C1529 C1528 1.327 . S
C1529 C1533 1.429 . S
C1530 C1513 1.574 . S
C1530 H1524 0.949 . S
C1530 C1534 1.368 . S
C1531 C1512 1.429 . S
C1531 C1525 1.429 . S
C1531 C1532 1.523 . S
C1532 C1513 1.368 . S
C1532 C1526 1.368 . S
C1532 C1531 1.523 . S
C1533 C1517 1.429 . S
C1533 C1529 1.429 . S
C1533 C1534 1.523 . S
C1534 C1518 1.368 . S
C1534 C1530 1.368 . S
C1534 C1533 1.523 . S
H1535 C1510 0.950 . S
H1536 C1512 0.950 . S
H1537 C1513 0.949 . S
H1538 C1515 0.950 . S
H1539 C1517 0.950 . S
C1540 C1541 1.349 . S
C1540 C1542 1.327 . S
C1540 H1565 0.950 . S
C1541 C1540 1.349 . S
C1541 C1557 1.349 . S
C1542 C1540 1.327 . S
C1542 C1561 1.429 . S
C1542 H1566 0.950 . S
C1543 C1560 1.574 . S
C1543 C1562 1.368 . S
C1543 H1567 0.949 . S
H1544 C1548 0.949 . S
C1545 C1546 1.349 . S
C1545 C1547 1.327 . S
C1545 H1568 0.950 . S
C1546 C1545 1.349 . S
C1546 C1558 1.349 . S
C1547 C1545 1.327 . S
C1547 C1563 1.429 . S
C1547 H1569 0.950 . S
C1548 H1544 0.949 . S
C1548 C1556 1.574 . S
C1548 C1564 1.368 . S
H1549 C1557 0.950 . S
H1550 C1555 0.950 . S
H1551 C1556 0.949 . S
H1552 C1558 0.950 . S
H1553 C1559 0.950 . S
H1554 C1560 0.949 . S
C1555 H1550 0.950 . S
C1555 C1557 1.327 . S
C1555 C1561 1.429 . S
C1556 C1548 1.574 . S
C1556 H1551 0.949 . S
C1556 C1562 1.368 . S
C1557 C1541 1.349 . S
C1557 H1549 0.950 . S
C1557 C1555 1.327 . S
C1558 C1546 1.349 . S
C1558 H1552 0.950 . S
C1558 C1559 1.327 . S
C1559 H1553 0.950 . S
C1559 C1558 1.327 . S
C1559 C1563 1.429 . S
C1560 C1543 1.574 . S
C1560 H1554 0.949 . S
C1560 C1564 1.368 . S
C1561 C1542 1.429 . S
C1561 C1555 1.429 . S
C1561 C1562 1.523 . S
C1562 C1543 1.368 . S
C1562 C1556 1.368 . S
C1562 C1561 1.523 . S
C1563 C1547 1.429 . S
C1563 C1559 1.429 . S
C1563 C1564 1.523 . S
C1564 C1548 1.368 . S
C1564 C1560 1.368 . S
C1564 C1563 1.523 . S
H1565 C1540 0.950 . S
H1566 C1542 0.950 . S
H1567 C1543 0.949 . S
H1568 C1545 0.950 . S
H1569 C1547 0.950 . S
C1570 C1571 1.349 . S
C1570 C1572 1.327 . S
C1570 H1595 0.950 . S
C1571 C1570 1.349 . S
C1571 C1587 1.349 . S
C1572 C1570 1.327 . S
C1572 C1591 1.429 . S
C1572 H1596 0.950 . S
C1573 C1590 1.574 . S
C1573 C1592 1.368 . S
C1573 H1597 0.949 . S
H1574 C1578 0.949 1_554 S
C1575 C1576 1.349 . S
C1575 C1577 1.327 . S
C1575 H1598 0.950 . S
C1576 C1575 1.349 . S
C1576 C1588 1.349 . S
C1577 C1575 1.327 . S
C1577 C1593 1.429 . S
C1577 H1599 0.950 1_554 S
C1578 H1574 0.949 1_556 S
C1578 C1586 1.574 . S
C1578 C1594 1.368 . S
H1579 C1587 0.950 . S
H1580 C1585 0.950 . S
H1581 C1586 0.949 . S
H1582 C1588 0.950 . S
H1583 C1589 0.950 . S
H1584 C1590 0.949 . S
C1585 H1580 0.950 . S
C1585 C1587 1.327 . S
C1585 C1591 1.429 . S
C1586 C1578 1.574 . S
C1586 H1581 0.949 . S
C1586 C1592 1.368 . S
C1587 C1571 1.349 . S
C1587 H1579 0.950 . S
C1587 C1585 1.327 . S
C1588 C1576 1.349 . S
C1588 H1582 0.950 . S
C1588 C1589 1.327 . S
C1589 H1583 0.950 . S
C1589 C1588 1.327 . S
C1589 C1593 1.429 . S
C1590 C1573 1.574 . S
C1590 H1584 0.949 . S
C1590 C1594 1.368 . S
C1591 C1572 1.429 . S
C1591 C1585 1.429 . S
C1591 C1592 1.523 . S
C1592 C1573 1.368 . S
C1592 C1586 1.368 . S
C1592 C1591 1.523 . S
C1593 C1577 1.429 . S
C1593 C1589 1.429 . S
C1593 C1594 1.523 1_554 S
C1594 C1578 1.368 . S
C1594 C1590 1.368 . S
C1594 C1593 1.523 1_556 S
H1595 C1570 0.950 . S
H1596 C1572 0.950 . S
H1597 C1573 0.949 . S
H1598 C1575 0.950 . S
H1599 C1577 0.950 1_556 S
C1600 C1601 1.349 . S
C1600 C1602 1.327 . S
C1600 H1625 0.950 . S
C1601 C1600 1.349 . S
C1601 C1617 1.349 . S
C1602 C1600 1.327 . S
C1602 C1621 1.429 . S
C1602 H1626 0.950 . S
C1603 C1620 1.574 . S
C1603 C1622 1.368 . S
C1603 H1627 0.949 . S
H1604 C1608 0.949 . S
C1605 C1606 1.349 . S
C1605 C1607 1.327 . S
C1605 H1628 0.950 . S
C1606 C1605 1.349 . S
C1606 C1618 1.349 . S
C1607 C1605 1.327 . S
C1607 C1623 1.429 . S
C1607 H1629 0.950 . S
C1608 H1604 0.949 . S
C1608 C1616 1.574 . S
C1608 C1624 1.368 . S
H1609 C1617 0.950 . S
H1610 C1615 0.950 . S
H1611 C1616 0.949 . S
H1612 C1618 0.950 . S
H1613 C1619 0.950 . S
H1614 C1620 0.949 . S
C1615 H1610 0.950 . S
C1615 C1617 1.327 . S
C1615 C1621 1.429 . S
C1616 C1608 1.574 . S
C1616 H1611 0.949 . S
C1616 C1622 1.368 . S
C1617 C1601 1.349 . S
C1617 H1609 0.950 . S
C1617 C1615 1.327 . S
C1618 C1606 1.349 . S
C1618 H1612 0.950 . S
C1618 C1619 1.327 . S
C1619 H1613 0.950 . S
C1619 C1618 1.327 . S
C1619 C1623 1.429 . S
C1620 C1603 1.574 . S
C1620 H1614 0.949 . S
C1620 C1624 1.368 . S
C1621 C1602 1.429 . S
C1621 C1615 1.429 . S
C1621 C1622 1.523 . S
C1622 C1603 1.368 . S
C1622 C1616 1.368 . S
C1622 C1621 1.523 . S
C1623 C1607 1.429 . S
C1623 C1619 1.429 . S
C1623 C1624 1.523 . S
C1624 C1608 1.368 . S
C1624 C1620 1.368 . S
C1624 C1623 1.523 . S
H1625 C1600 0.950 . S
H1626 C1602 0.950 . S
H1627 C1603 0.949 . S
H1628 C1605 0.950 . S
H1629 C1607 0.950 . S
C1630 C1631 1.349 . S
C1630 C1632 1.327 . S
C1630 H1655 0.950 . S
C1631 C1630 1.349 . S
C1631 C1647 1.349 . S
C1632 C1630 1.327 . S
C1632 C1651 1.429 . S
C1632 H1656 0.950 . S
C1633 C1650 1.574 . S
C1633 C1652 1.368 . S
C1633 H1657 0.949 . S
H1634 C1638 0.949 . S
C1635 C1636 1.349 . S
C1635 C1637 1.327 . S
C1635 H1658 0.950 . S
C1636 C1635 1.349 . S
C1636 C1648 1.349 . S
C1637 C1635 1.327 . S
C1637 C1653 1.429 . S
C1637 H1659 0.950 . S
C1638 H1634 0.949 . S
C1638 C1646 1.574 . S
C1638 C1654 1.368 . S
H1639 C1647 0.950 . S
H1640 C1645 0.950 . S
H1641 C1646 0.949 . S
H1642 C1648 0.950 . S
H1643 C1649 0.950 . S
H1644 C1650 0.949 . S
C1645 H1640 0.950 . S
C1645 C1647 1.327 . S
C1645 C1651 1.429 . S
C1646 C1638 1.574 . S
C1646 H1641 0.949 . S
C1646 C1652 1.368 . S
C1647 C1631 1.349 . S
C1647 H1639 0.950 . S
C1647 C1645 1.327 . S
C1648 C1636 1.349 . S
C1648 H1642 0.950 . S
C1648 C1649 1.327 . S
C1649 H1643 0.950 . S
C1649 C1648 1.327 . S
C1649 C1653 1.429 . S
C1650 C1633 1.574 . S
C1650 H1644 0.949 . S
C1650 C1654 1.368 . S
C1651 C1632 1.429 . S
C1651 C1645 1.429 . S
C1651 C1652 1.523 . S
C1652 C1633 1.368 . S
C1652 C1646 1.368 . S
C1652 C1651 1.523 . S
C1653 C1637 1.429 . S
C1653 C1649 1.429 . S
C1653 C1654 1.523 . S
C1654 C1638 1.368 . S
C1654 C1650 1.368 . S
C1654 C1653 1.523 . S
H1655 C1630 0.950 . S
H1656 C1632 0.950 . S
H1657 C1633 0.949 . S
H1658 C1635 0.950 . S
H1659 C1637 0.950 . S
C1660 C1661 1.349 . S
C1660 C1662 1.327 . S
C1660 H1685 0.950 . S
C1661 C1660 1.349 . S
C1661 C1677 1.349 . S
C1662 C1660 1.327 . S
C1662 C1681 1.429 . S
C1662 H1686 0.950 . S
C1663 C1680 1.574 . S
C1663 C1682 1.368 . S
C1663 H1687 0.949 . S
H1664 C1668 0.949 . S
C1665 C1666 1.349 . S
C1665 C1667 1.327 . S
C1665 H1688 0.950 . S
C1666 C1665 1.349 . S
C1666 C1678 1.349 . S
C1667 C1665 1.327 . S
C1667 C1683 1.429 . S
C1667 H1689 0.950 . S
C1668 H1664 0.949 . S
C1668 C1676 1.574 . S
C1668 C1684 1.368 . S
H1669 C1677 0.950 . S
H1670 C1675 0.950 . S
H1671 C1676 0.949 . S
H1672 C1678 0.950 . S
H1673 C1679 0.950 . S
H1674 C1680 0.949 . S
C1675 H1670 0.950 . S
C1675 C1677 1.327 . S
C1675 C1681 1.429 . S
C1676 C1668 1.574 . S
C1676 H1671 0.949 . S
C1676 C1682 1.368 . S
C1677 C1661 1.349 . S
C1677 H1669 0.950 . S
C1677 C1675 1.327 . S
C1678 C1666 1.349 . S
C1678 H1672 0.950 . S
C1678 C1679 1.327 . S
C1679 H1673 0.950 . S
C1679 C1678 1.327 . S
C1679 C1683 1.429 . S
C1680 C1663 1.574 . S
C1680 H1674 0.949 . S
C1680 C1684 1.368 . S
C1681 C1662 1.429 . S
C1681 C1675 1.429 . S
C1681 C1682 1.523 . S
C1682 C1663 1.368 . S
C1682 C1676 1.368 . S
C1682 C1681 1.523 . S
C1683 C1667 1.429 . S
C1683 C1679 1.429 . S
C1683 C1684 1.523 . S
C1684 C1668 1.368 . S
C1684 C1680 1.368 . S
C1684 C1683 1.523 . S
H1685 C1660 0.950 . S
H1686 C1662 0.950 . S
H1687 C1663 0.949 . S
H1688 C1665 0.950 . S
H1689 C1667 0.950 . S
C1690 C1691 1.349 . S
C1690 C1692 1.327 . S
C1690 H1715 0.950 . S
C1691 C1690 1.349 . S
C1691 C1707 1.349 . S
C1692 C1690 1.327 . S
C1692 C1711 1.429 . S
C1692 H1716 0.950 . S
C1693 C1710 1.574 . S
C1693 C1712 1.368 . S
C1693 H1717 0.949 . S
H1694 C1698 0.949 . S
C1695 C1696 1.349 . S
C1695 C1697 1.327 1_556 S
C1695 H1718 0.950 . S
C1696 C1695 1.349 . S
C1696 C1708 1.349 1_556 S
C1697 C1695 1.327 1_554 S
C1697 C1713 1.429 . S
C1697 H1719 0.950 . S
C1698 H1694 0.949 . S
C1698 C1706 1.574 . S
C1698 C1714 1.368 . S
H1699 C1707 0.950 . S
H1700 C1705 0.950 . S
H1701 C1706 0.949 . S
H1702 C1708 0.950 . S
H1703 C1709 0.950 . S
H1704 C1710 0.949 . S
C1705 H1700 0.950 . S
C1705 C1707 1.327 . S
C1705 C1711 1.429 . S
C1706 C1698 1.574 . S
C1706 H1701 0.949 . S
C1706 C1712 1.368 . S
C1707 C1691 1.349 . S
C1707 H1699 0.950 . S
C1707 C1705 1.327 . S
C1708 C1696 1.349 1_554 S
C1708 H1702 0.950 . S
C1708 C1709 1.327 . S
C1709 H1703 0.950 . S
C1709 C1708 1.327 . S
C1709 C1713 1.429 . S
C1710 C1693 1.574 . S
C1710 H1704 0.949 . S
C1710 C1714 1.368 . S
C1711 C1692 1.429 . S
C1711 C1705 1.429 . S
C1711 C1712 1.523 . S
C1712 C1693 1.368 . S
C1712 C1706 1.368 . S
C1712 C1711 1.523 . S
C1713 C1697 1.429 . S
C1713 C1709 1.429 . S
C1713 C1714 1.523 . S
C1714 C1698 1.368 . S
C1714 C1710 1.368 . S
C1714 C1713 1.523 . S
H1715 C1690 0.950 . S
H1716 C1692 0.950 . S
H1717 C1693 0.949 . S
H1718 C1695 0.950 . S
H1719 C1697 0.950 . S
C1720 C1721 1.349 . S
C1720 C1722 1.327 . S
C1720 H1745 0.950 . S
C1721 C1720 1.349 . S
C1721 C1737 1.349 . S
C1722 C1720 1.327 . S
C1722 C1741 1.429 . S
C1722 H1746 0.950 . S
C1723 C1740 1.574 . S
C1723 C1742 1.368 . S
C1723 H1747 0.949 . S
H1724 C1728 0.949 . S
C1725 C1726 1.349 . S
C1725 C1727 1.327 . S
C1725 H1748 0.950 . S
C1726 C1725 1.349 . S
C1726 C1738 1.349 . S
C1727 C1725 1.327 . S
C1727 C1743 1.429 . S
C1727 H1749 0.950 . S
C1728 H1724 0.949 . S
C1728 C1736 1.574 . S
C1728 C1744 1.368 . S
H1729 C1737 0.950 . S
H1730 C1735 0.950 . S
H1731 C1736 0.949 . S
H1732 C1738 0.950 . S
H1733 C1739 0.950 . S
H1734 C1740 0.949 . S
C1735 H1730 0.950 . S
C1735 C1737 1.327 . S
C1735 C1741 1.429 . S
C1736 C1728 1.574 . S
C1736 H1731 0.949 . S
C1736 C1742 1.368 . S
C1737 C1721 1.349 . S
C1737 H1729 0.950 . S
C1737 C1735 1.327 . S
C1738 C1726 1.349 . S
C1738 H1732 0.950 . S
C1738 C1739 1.327 . S
C1739 H1733 0.950 . S
C1739 C1738 1.327 . S
C1739 C1743 1.429 . S
C1740 C1723 1.574 . S
C1740 H1734 0.949 . S
C1740 C1744 1.368 . S
C1741 C1722 1.429 . S
C1741 C1735 1.429 . S
C1741 C1742 1.523 . S
C1742 C1723 1.368 . S
C1742 C1736 1.368 . S
C1742 C1741 1.523 . S
C1743 C1727 1.429 . S
C1743 C1739 1.429 . S
C1743 C1744 1.523 . S
C1744 C1728 1.368 . S
C1744 C1740 1.368 . S
C1744 C1743 1.523 . S
H1745 C1720 0.950 . S
H1746 C1722 0.950 . S
H1747 C1723 0.949 . S
H1748 C1725 0.950 . S
H1749 C1727 0.950 . S
C1750 C1751 1.349 . S
C1750 C1752 1.327 . S
C1750 H1775 0.950 . S
C1751 C1750 1.349 . S
C1751 C1767 1.349 . S
C1752 C1750 1.327 . S
C1752 C1771 1.429 . S
C1752 H1776 0.950 . S
C1753 C1770 1.574 . S
C1753 C1772 1.368 . S
C1753 H1777 0.949 . S
H1754 C1758 0.949 . S
C1755 C1756 1.349 . S
C1755 C1757 1.327 . S
C1755 H1778 0.950 . S
C1756 C1755 1.349 . S
C1756 C1768 1.349 1_455 S
C1757 C1755 1.327 . S
C1757 C1773 1.429 1_455 S
C1757 H1779 0.950 . S
C1758 H1754 0.949 . S
C1758 C1766 1.574 . S
C1758 C1774 1.368 . S
H1759 C1767 0.950 . S
H1760 C1765 0.950 . S
H1761 C1766 0.949 . S
H1762 C1768 0.950 . S
H1763 C1769 0.950 . S
H1764 C1770 0.947 1_455 S
C1765 H1760 0.950 . S
C1765 C1767 1.327 . S
C1765 C1771 1.429 . S
C1766 C1758 1.574 . S
C1766 H1761 0.949 . S
C1766 C1772 1.368 . S
C1767 C1751 1.349 . S
C1767 H1759 0.950 . S
C1767 C1765 1.327 . S
C1768 C1756 1.349 1_655 S
C1768 H1762 0.950 . S
C1768 C1769 1.327 . S
C1769 H1763 0.950 . S
C1769 C1768 1.327 . S
C1769 C1773 1.429 . S
C1770 C1753 1.574 . S
C1770 H1764 0.947 1_655 S
C1770 C1774 1.368 . S
C1771 C1752 1.429 . S
C1771 C1765 1.429 . S
C1771 C1772 1.523 . S
C1772 C1753 1.368 . S
C1772 C1766 1.368 . S
C1772 C1771 1.523 . S
C1773 C1757 1.429 1_655 S
C1773 C1769 1.429 . S
C1773 C1774 1.523 . S
C1774 C1758 1.368 . S
C1774 C1770 1.368 . S
C1774 C1773 1.523 . S
H1775 C1750 0.950 . S
H1776 C1752 0.950 . S
H1777 C1753 0.949 . S
H1778 C1755 0.950 . S
H1779 C1757 0.950 . S
C1780 C1781 1.349 . S
C1780 C1782 1.327 . S
C1780 H1805 0.950 . S
C1781 C1780 1.349 . S
C1781 C1797 1.349 . S
C1782 C1780 1.327 . S
C1782 C1801 1.429 . S
C1782 H1806 0.950 . S
C1783 C1800 1.574 . S
C1783 C1802 1.368 . S
C1783 H1807 0.949 . S
H1784 C1788 0.949 . S
C1785 C1786 1.349 . S
C1785 C1787 1.327 . S
C1785 H1808 0.950 . S
C1786 C1785 1.349 . S
C1786 C1798 1.349 . S
C1787 C1785 1.327 . S
C1787 C1803 1.429 . S
C1787 H1809 0.950 . S
C1788 H1784 0.949 . S
C1788 C1796 1.574 . S
C1788 C1804 1.368 . S
H1789 C1797 0.950 . S
H1790 C1795 0.950 . S
H1791 C1796 0.949 . S
H1792 C1798 0.950 . S
H1793 C1799 0.950 . S
H1794 C1800 0.949 . S
C1795 H1790 0.950 . S
C1795 C1797 1.327 . S
C1795 C1801 1.429 . S
C1796 C1788 1.574 . S
C1796 H1791 0.949 . S
C1796 C1802 1.368 . S
C1797 C1781 1.349 . S
C1797 H1789 0.950 . S
C1797 C1795 1.327 . S
C1798 C1786 1.349 . S
C1798 H1792 0.950 . S
C1798 C1799 1.327 . S
C1799 H1793 0.950 . S
C1799 C1798 1.327 . S
C1799 C1803 1.429 . S
C1800 C1783 1.574 . S
C1800 H1794 0.949 . S
C1800 C1804 1.368 . S
C1801 C1782 1.429 . S
C1801 C1795 1.429 . S
C1801 C1802 1.523 . S
C1802 C1783 1.368 . S
C1802 C1796 1.368 . S
C1802 C1801 1.523 . S
C1803 C1787 1.429 . S
C1803 C1799 1.429 . S
C1803 C1804 1.523 . S
C1804 C1788 1.368 . S
C1804 C1800 1.368 . S
C1804 C1803 1.523 . S
H1805 C1780 0.950 . S
H1806 C1782 0.950 . S
H1807 C1783 0.949 . S
H1808 C1785 0.950 . S
H1809 C1787 0.950 . S
C1810 C1811 1.349 . S
C1810 C1812 1.327 . S
C1810 H1835 0.950 . S
C1811 C1810 1.349 . S
C1811 C1827 1.349 . S
C1812 C1810 1.327 . S
C1812 C1831 1.429 . S
C1812 H1836 0.950 . S
C1813 C1830 1.574 . S
C1813 C1832 1.368 . S
C1813 H1837 0.949 . S
H1814 C1818 0.949 . S
C1815 C1816 1.349 . S
C1815 C1817 1.327 . S
C1815 H1838 0.950 . S
C1816 C1815 1.349 . S
C1816 C1828 1.349 . S
C1817 C1815 1.327 . S
C1817 C1833 1.429 . S
C1817 H1839 0.950 . S
C1818 H1814 0.949 . S
C1818 C1826 1.574 . S
C1818 C1834 1.368 . S
H1819 C1827 0.950 . S
H1820 C1825 0.950 . S
H1821 C1826 0.949 . S
H1822 C1828 0.950 . S
H1823 C1829 0.950 . S
H1824 C1830 0.949 . S
C1825 H1820 0.950 . S
C1825 C1827 1.327 . S
C1825 C1831 1.429 . S
C1826 C1818 1.574 . S
C1826 H1821 0.949 . S
C1826 C1832 1.368 . S
C1827 C1811 1.349 . S
C1827 H1819 0.950 . S
C1827 C1825 1.327 . S
C1828 C1816 1.349 . S
C1828 H1822 0.950 . S
C1828 C1829 1.327 . S
C1829 H1823 0.950 . S
C1829 C1828 1.327 . S
C1829 C1833 1.429 . S
C1830 C1813 1.574 . S
C1830 H1824 0.949 . S
C1830 C1834 1.368 . S
C1831 C1812 1.429 . S
C1831 C1825 1.429 . S
C1831 C1832 1.523 . S
C1832 C1813 1.368 . S
C1832 C1826 1.368 . S
C1832 C1831 1.523 . S
C1833 C1817 1.429 . S
C1833 C1829 1.429 . S
C1833 C1834 1.523 . S
C1834 C1818 1.368 . S
C1834 C1830 1.368 . S
C1834 C1833 1.523 . S
H1835 C1810 0.950 . S
H1836 C1812 0.950 . S
H1837 C1813 0.949 . S
H1838 C1815 0.950 . S
H1839 C1817 0.950 . S
C1840 C1841 1.349 . S
C1840 C1842 1.327 . S
C1840 H1865 0.950 . S
C1841 C1840 1.349 . S
C1841 C1857 1.349 . S
C1842 C1840 1.327 . S
C1842 C1861 1.429 . S
C1842 H1866 0.950 . S
C1843 C1860 1.574 . S
C1843 C1862 1.368 . S
C1843 H1867 0.949 . S
H1844 C1848 0.949 . S
C1845 C1846 1.349 . S
C1845 C1847 1.327 . S
C1845 H1868 0.950 . S
C1846 C1845 1.349 . S
C1846 C1858 1.349 . S
C1847 C1845 1.327 . S
C1847 C1863 1.429 1_554 S
C1847 H1869 0.950 . S
C1848 H1844 0.949 . S
C1848 C1856 1.574 . S
C1848 C1864 1.368 . S
H1849 C1857 0.950 . S
H1850 C1855 0.950 . S
H1851 C1856 0.949 . S
H1852 C1858 0.950 . S
H1853 C1859 0.950 1_556 S
H1854 C1860 0.949 . S
C1855 H1850 0.950 . S
C1855 C1857 1.327 . S
C1855 C1861 1.429 . S
C1856 C1848 1.574 . S
C1856 H1851 0.949 . S
C1856 C1862 1.368 . S
C1857 C1841 1.349 . S
C1857 H1849 0.950 . S
C1857 C1855 1.327 . S
C1858 C1846 1.349 . S
C1858 H1852 0.950 . S
C1858 C1859 1.327 . S
C1859 H1853 0.950 1_554 S
C1859 C1858 1.327 . S
C1859 C1863 1.429 1_554 S
C1860 C1843 1.574 . S
C1860 H1854 0.949 . S
C1860 C1864 1.368 . S
C1861 C1842 1.429 . S
C1861 C1855 1.429 . S
C1861 C1862 1.523 . S
C1862 C1843 1.368 . S
C1862 C1856 1.368 . S
C1862 C1861 1.523 . S
C1863 C1847 1.429 1_556 S
C1863 C1859 1.429 1_556 S
C1863 C1864 1.523 . S
C1864 C1848 1.368 . S
C1864 C1860 1.368 . S
C1864 C1863 1.523 . S
H1865 C1840 0.950 . S
H1866 C1842 0.950 . S
H1867 C1843 0.949 . S
H1868 C1845 0.950 . S
H1869 C1847 0.950 . S
C1870 C1871 1.349 . S
C1870 C1872 1.327 . S
C1870 H1895 0.950 . S
C1871 C1870 1.349 . S
C1871 C1887 1.349 . S
C1872 C1870 1.327 . S
C1872 C1891 1.429 . S
C1872 H1896 0.950 . S
C1873 C1890 1.574 . S
C1873 C1892 1.368 . S
C1873 H1897 0.949 . S
H1874 C1878 0.949 . S
C1875 C1876 1.349 . S
C1875 C1877 1.327 . S
C1875 H1898 0.950 . S
C1876 C1875 1.349 . S
C1876 C1888 1.349 . S
C1877 C1875 1.327 . S
C1877 C1893 1.429 . S
C1877 H1899 0.950 . S
C1878 H1874 0.949 . S
C1878 C1886 1.574 . S
C1878 C1894 1.368 . S
H1879 C1887 0.950 . S
H1880 C1885 0.950 . S
H1881 C1886 0.949 . S
H1882 C1888 0.950 . S
H1883 C1889 0.950 . S
H1884 C1890 0.949 . S
C1885 H1880 0.950 . S
C1885 C1887 1.327 . S
C1885 C1891 1.429 . S
C1886 C1878 1.574 . S
C1886 H1881 0.949 . S
C1886 C1892 1.368 . S
C1887 C1871 1.349 . S
C1887 H1879 0.950 . S
C1887 C1885 1.327 . S
C1888 C1876 1.349 . S
C1888 H1882 0.950 . S
C1888 C1889 1.327 . S
C1889 H1883 0.950 . S
C1889 C1888 1.327 . S
C1889 C1893 1.429 . S
C1890 C1873 1.574 . S
C1890 H1884 0.949 . S
C1890 C1894 1.368 . S
C1891 C1872 1.429 . S
C1891 C1885 1.429 . S
C1891 C1892 1.523 . S
C1892 C1873 1.368 . S
C1892 C1886 1.368 . S
C1892 C1891 1.523 . S
C1893 C1877 1.429 . S
C1893 C1889 1.429 . S
C1893 C1894 1.523 . S
C1894 C1878 1.368 . S
C1894 C1890 1.368 . S
C1894 C1893 1.523 . S
H1895 C1870 0.950 . S
H1896 C1872 0.950 . S
H1897 C1873 0.949 . S
H1898 C1875 0.950 . S
H1899 C1877 0.950 . S
C1900 C1901 1.349 . S
C1900 C1902 1.327 . S
C1900 H1925 0.955 1_655 S
C1901 C1900 1.349 . S
C1901 C1917 1.349 . S
C1902 C1900 1.327 . S
C1902 C1921 1.429 . S
C1902 H1926 0.950 . S
C1903 C1920 1.574 . S
C1903 C1922 1.368 . S
C1903 H1927 0.949 . S
H1904 C1908 0.949 . S
C1905 C1906 1.349 . S
C1905 C1907 1.327 . S
C1905 H1928 0.950 . S
C1906 C1905 1.349 . S
C1906 C1918 1.349 . S
C1907 C1905 1.327 . S
C1907 C1923 1.429 . S
C1907 H1929 0.950 . S
C1908 H1904 0.949 . S
C1908 C1916 1.574 . S
C1908 C1924 1.368 . S
H1909 C1917 0.950 . S
H1910 C1915 0.950 . S
H1911 C1916 0.949 . S
H1912 C1918 0.950 . S
H1913 C1919 0.950 . S
H1914 C1920 0.949 . S
C1915 H1910 0.950 . S
C1915 C1917 1.327 . S
C1915 C1921 1.429 . S
C1916 C1908 1.574 . S
C1916 H1911 0.949 . S
C1916 C1922 1.368 . S
C1917 C1901 1.349 . S
C1917 H1909 0.950 . S
C1917 C1915 1.327 . S
C1918 C1906 1.349 . S
C1918 H1912 0.950 . S
C1918 C1919 1.327 . S
C1919 H1913 0.950 . S
C1919 C1918 1.327 . S
C1919 C1923 1.429 . S
C1920 C1903 1.574 . S
C1920 H1914 0.949 . S
C1920 C1924 1.368 . S
C1921 C1902 1.429 . S
C1921 C1915 1.429 . S
C1921 C1922 1.523 . S
C1922 C1903 1.368 . S
C1922 C1916 1.368 . S
C1922 C1921 1.523 . S
C1923 C1907 1.429 . S
C1923 C1919 1.429 . S
C1923 C1924 1.523 . S
C1924 C1908 1.368 . S
C1924 C1920 1.368 . S
C1924 C1923 1.523 . S
H1925 C1900 0.955 1_455 S
H1926 C1902 0.950 . S
H1927 C1903 0.949 . S
H1928 C1905 0.950 . S
H1929 C1907 0.950 . S
C1930 C1931 1.349 . S
C1930 C1932 1.327 . S
C1930 H1955 0.950 . S
C1931 C1930 1.349 . S
C1931 C1947 1.349 . S
C1932 C1930 1.327 . S
C1932 C1951 1.429 . S
C1932 H1956 0.950 . S
C1933 C1950 1.574 . S
C1933 C1952 1.368 . S
C1933 H1957 0.949 . S
H1934 C1938 0.949 . S
C1935 C1936 1.349 . S
C1935 C1937 1.327 . S
C1935 H1958 0.950 . S
C1936 C1935 1.349 . S
C1936 C1948 1.349 . S
C1937 C1935 1.327 . S
C1937 C1953 1.429 . S
C1937 H1959 0.950 . S
C1938 H1934 0.949 . S
C1938 C1946 1.574 . S
C1938 C1954 1.368 . S
H1939 C1947 0.950 1_455 S
H1940 C1945 0.950 . S
H1941 C1946 0.949 . S
H1942 C1948 0.950 . S
H1943 C1949 0.950 . S
H1944 C1950 0.949 . S
C1945 H1940 0.950 . S
C1945 C1947 1.327 . S
C1945 C1951 1.429 . S
C1946 C1938 1.574 . S
C1946 H1941 0.949 . S
C1946 C1952 1.368 . S
C1947 C1931 1.349 . S
C1947 H1939 0.950 1_655 S
C1947 C1945 1.327 . S
C1948 C1936 1.349 . S
C1948 H1942 0.950 . S
C1948 C1949 1.327 . S
C1949 H1943 0.950 . S
C1949 C1948 1.327 . S
C1949 C1953 1.429 . S
C1950 C1933 1.574 . S
C1950 H1944 0.949 . S
C1950 C1954 1.368 . S
C1951 C1932 1.429 . S
C1951 C1945 1.429 . S
C1951 C1952 1.523 . S
C1952 C1933 1.368 . S
C1952 C1946 1.368 . S
C1952 C1951 1.523 . S
C1953 C1937 1.429 . S
C1953 C1949 1.429 . S
C1953 C1954 1.523 . S
C1954 C1938 1.368 . S
C1954 C1950 1.368 . S
C1954 C1953 1.523 . S
H1955 C1930 0.950 . S
H1956 C1932 0.950 . S
H1957 C1933 0.949 . S
H1958 C1935 0.950 . S
H1959 C1937 0.950 . S
C1960 C1961 1.349 . S
C1960 C1962 1.327 . S
C1960 H1985 0.950 . S
C1961 C1960 1.349 . S
C1961 C1977 1.349 . S
C1962 C1960 1.327 . S
C1962 C1981 1.429 . S
C1962 H1986 0.950 . S
C1963 C1980 1.574 . S
C1963 C1982 1.368 . S
C1963 H1987 0.949 . S
H1964 C1968 0.949 . S
C1965 C1966 1.349 . S
C1965 C1967 1.327 . S
C1965 H1988 0.950 . S
C1966 C1965 1.349 . S
C1966 C1978 1.349 . S
C1967 C1965 1.327 . S
C1967 C1983 1.429 . S
C1967 H1989 0.950 . S
C1968 H1964 0.949 . S
C1968 C1976 1.574 . S
C1968 C1984 1.368 . S
H1969 C1977 0.950 . S
H1970 C1975 0.950 . S
H1971 C1976 0.949 . S
H1972 C1978 0.950 . S
H1973 C1979 0.950 1_554 S
H1974 C1980 0.949 . S
C1975 H1970 0.950 . S
C1975 C1977 1.327 . S
C1975 C1981 1.429 . S
C1976 C1968 1.574 . S
C1976 H1971 0.949 . S
C1976 C1982 1.368 . S
C1977 C1961 1.349 . S
C1977 H1969 0.950 . S
C1977 C1975 1.327 . S
C1978 C1966 1.349 . S
C1978 H1972 0.950 . S
C1978 C1979 1.327 . S
C1979 H1973 0.950 1_556 S
C1979 C1978 1.327 . S
C1979 C1983 1.429 . S
C1980 C1963 1.574 . S
C1980 H1974 0.949 . S
C1980 C1984 1.368 . S
C1981 C1962 1.429 . S
C1981 C1975 1.429 . S
C1981 C1982 1.523 . S
C1982 C1963 1.368 . S
C1982 C1976 1.368 . S
C1982 C1981 1.523 . S
C1983 C1967 1.429 . S
C1983 C1979 1.429 . S
C1983 C1984 1.523 1_556 S
C1984 C1968 1.368 . S
C1984 C1980 1.368 . S
C1984 C1983 1.523 1_554 S
H1985 C1960 0.950 . S
H1986 C1962 0.950 . S
H1987 C1963 0.949 . S
H1988 C1965 0.950 . S
H1989 C1967 0.950 . S
C1990 C1991 1.349 . S
C1990 C1992 1.327 1_554 S
C1990 H2015 0.950 . S
C1991 C1990 1.349 . S
C1991 C2007 1.349 1_554 S
C1992 C1990 1.327 1_556 S
C1992 C2011 1.429 . S
C1992 H2016 0.950 . S
C1993 C2010 1.574 . S
C1993 C2012 1.368 . S
C1993 H2017 0.949 . S
H1994 C1998 0.949 . S
C1995 C1996 1.349 . S
C1995 C1997 1.327 . S
C1995 H2018 0.950 . S
C1996 C1995 1.349 . S
C1996 C2008 1.349 . S
C1997 C1995 1.327 . S
C1997 C2013 1.429 . S
C1997 H2019 0.950 . S
C1998 H1994 0.949 . S
C1998 C2006 1.574 . S
C1998 C2014 1.368 . S
H1999 C2007 0.950 1_554 S
H2000 C2005 0.950 . S
H2001 C2006 0.949 . S
H2002 C2008 0.950 . S
H2003 C2009 0.950 . S
H2004 C2010 0.949 . S
C2005 H2000 0.950 . S
C2005 C2007 1.327 . S
C2005 C2011 1.429 . S
C2006 C1998 1.574 . S
C2006 H2001 0.949 . S
C2006 C2012 1.368 . S
C2007 C1991 1.349 1_556 S
C2007 H1999 0.950 1_556 S
C2007 C2005 1.327 . S
C2008 C1996 1.349 . S
C2008 H2002 0.950 . S
C2008 C2009 1.327 . S
C2009 H2003 0.950 . S
C2009 C2008 1.327 . S
C2009 C2013 1.429 . S
C2010 C1993 1.574 . S
C2010 H2004 0.949 . S
C2010 C2014 1.368 . S
C2011 C1992 1.429 . S
C2011 C2005 1.429 . S
C2011 C2012 1.523 . S
C2012 C1993 1.368 . S
C2012 C2006 1.368 . S
C2012 C2011 1.523 . S
C2013 C1997 1.429 . S
C2013 C2009 1.429 . S
C2013 C2014 1.523 . S
C2014 C1998 1.368 . S
C2014 C2010 1.368 . S
C2014 C2013 1.523 . S
H2015 C1990 0.950 . S
H2016 C1992 0.950 . S
H2017 C1993 0.949 . S
H2018 C1995 0.950 . S
H2019 C1997 0.950 . S
C2020 C2021 1.349 . S
C2020 C2022 1.327 . S
C2020 H2045 0.950 . S
C2021 C2020 1.349 . S
C2021 C2037 1.349 . S
C2022 C2020 1.327 . S
C2022 C2041 1.429 . S
C2022 H2046 0.950 . S
C2023 C2040 1.574 . S
C2023 C2042 1.368 . S
C2023 H2047 0.949 . S
H2024 C2028 0.949 . S
C2025 C2026 1.349 . S
C2025 C2027 1.327 . S
C2025 H2048 0.950 . S
C2026 C2025 1.349 . S
C2026 C2038 1.349 . S
C2027 C2025 1.327 . S
C2027 C2043 1.429 . S
C2027 H2049 0.950 . S
C2028 H2024 0.949 . S
C2028 C2036 1.574 . S
C2028 C2044 1.368 . S
H2029 C2037 0.950 . S
H2030 C2035 0.950 . S
H2031 C2036 0.949 . S
H2032 C2038 0.950 . S
H2033 C2039 0.950 . S
H2034 C2040 0.949 . S
C2035 H2030 0.950 . S
C2035 C2037 1.327 . S
C2035 C2041 1.429 . S
C2036 C2028 1.574 . S
C2036 H2031 0.949 . S
C2036 C2042 1.368 . S
C2037 C2021 1.349 . S
C2037 H2029 0.950 . S
C2037 C2035 1.327 . S
C2038 C2026 1.349 . S
C2038 H2032 0.950 . S
C2038 C2039 1.327 . S
C2039 H2033 0.950 . S
C2039 C2038 1.327 . S
C2039 C2043 1.429 . S
C2040 C2023 1.574 . S
C2040 H2034 0.949 . S
C2040 C2044 1.368 . S
C2041 C2022 1.429 . S
C2041 C2035 1.429 . S
C2041 C2042 1.523 . S
C2042 C2023 1.368 . S
C2042 C2036 1.368 . S
C2042 C2041 1.523 . S
C2043 C2027 1.429 . S
C2043 C2039 1.429 . S
C2043 C2044 1.523 . S
C2044 C2028 1.368 . S
C2044 C2040 1.368 . S
C2044 C2043 1.523 . S
H2045 C2020 0.950 . S
H2046 C2022 0.950 . S
H2047 C2023 0.949 . S
H2048 C2025 0.950 . S
H2049 C2027 0.950 . S
C2050 C2051 1.349 . S
C2050 C2052 1.327 . S
C2050 H2075 0.950 . S
C2051 C2050 1.349 . S
C2051 C2067 1.349 . S
C2052 C2050 1.327 . S
C2052 C2071 1.429 . S
C2052 H2076 0.950 . S
C2053 C2070 1.574 . S
C2053 C2072 1.368 . S
C2053 H2077 0.949 . S
H2054 C2058 0.949 . S
C2055 C2056 1.349 . S
C2055 C2057 1.327 . S
C2055 H2078 0.950 . S
C2056 C2055 1.349 . S
C2056 C2068 1.349 . S
C2057 C2055 1.327 . S
C2057 C2073 1.429 . S
C2057 H2079 0.950 . S
C2058 H2054 0.949 . S
C2058 C2066 1.574 . S
C2058 C2074 1.368 . S
H2059 C2067 0.950 . S
H2060 C2065 0.950 . S
H2061 C2066 0.949 . S
H2062 C2068 0.950 . S
H2063 C2069 0.950 . S
H2064 C2070 0.949 . S
C2065 H2060 0.950 . S
C2065 C2067 1.327 . S
C2065 C2071 1.429 . S
C2066 C2058 1.574 . S
C2066 H2061 0.949 . S
C2066 C2072 1.368 . S
C2067 C2051 1.349 . S
C2067 H2059 0.950 . S
C2067 C2065 1.327 . S
C2068 C2056 1.349 . S
C2068 H2062 0.950 . S
C2068 C2069 1.327 . S
C2069 H2063 0.950 . S
C2069 C2068 1.327 . S
C2069 C2073 1.429 . S
C2070 C2053 1.574 . S
C2070 H2064 0.949 . S
C2070 C2074 1.368 . S
C2071 C2052 1.429 . S
C2071 C2065 1.429 . S
C2071 C2072 1.523 . S
C2072 C2053 1.368 . S
C2072 C2066 1.368 . S
C2072 C2071 1.523 . S
C2073 C2057 1.429 . S
C2073 C2069 1.429 . S
C2073 C2074 1.523 . S
C2074 C2058 1.368 . S
C2074 C2070 1.368 . S
C2074 C2073 1.523 . S
H2075 C2050 0.950 . S
H2076 C2052 0.950 . S
H2077 C2053 0.949 . S
H2078 C2055 0.950 . S
H2079 C2057 0.950 . S
C641 C9 1.964 . S
C646 C295 1.983 . S
C671 C49 1.977 . S
C676 C175 1.991 . S
C701 C209 2.568 . S
C706 C89 2.591 . S
C731 C129 2.550 . S
C736 C249 2.539 . S
C761 C445 0.679 . S
C766 C179 0.718 . S
C791 C325 0.986 . S
C796 C5 0.979 . S
C821 C405 0.997 . S
C826 C245 0.975 . S
C851 C85 0.709 . S
C856 C379 0.694 . S
C881 C375 1.983 . S
C886 C489 1.963 . S
C911 C409 1.977 . S
C916 C575 1.991 . S
C941 C529 2.591 1_556 S
C946 C329 2.568 . S
C971 C449 2.550 . S
C976 C609 2.540 . S
C1001 C579 0.718 . S
C1006 C125 0.679 . S
C1031 C485 0.979 . S
C1036 C205 0.986 . S
C1061 C45 0.997 . S
C1066 C605 0.975 . S
C1091 C299 0.694 . S
C1096 C525 0.709 . S
C1121 C528 0.470 . S
C1126 C8 0.739 . S
C1151 C448 0.519 . S
C1156 C48 0.724 . S
C1181 C488 0.739 . S
C1186 C88 0.470 . S
C1211 C408 0.724 . S
C1216 C128 0.518 . S
C1241 C178 0.807 . S
C1246 C608 0.531 . S
C1271 C378 0.807 . S
C1276 C208 0.521 . S
C1301 C248 0.532 . S
C1306 C578 0.801 . S
C1331 C298 0.807 . S
C1336 C328 0.521 . S
C1361 C18 1.658 . S
C1366 C168 1.676 . S
C1391 C58 1.570 . S
C1396 C218 1.510 . S
C1421 C258 1.048 . S
C1426 C98 1.094 . S
C1451 C138 1.250 . S
C1456 C288 1.245 . S
C1481 C418 1.571 . S
C1486 C338 1.510 . S
C1511 C458 1.251 . S
C1516 C368 1.245 . S
C1541 C498 1.658 . S
C1546 C568 1.677 . S
C1571 C618 1.049 . S
C1576 C538 1.095 . S
C1601 C15 1.028 . S
C1606 C289 1.052 . S
C1631 C55 1.026 . S
C1636 C169 1.049 . S
C1661 C215 0.370 . S
C1666 C95 0.412 . S
C1691 C255 0.398 . S
C1696 C135 0.447 . S
C1721 C459 2.809 . S
C1726 C165 2.755 . S
C1751 C339 3.530 . S
C1756 C19 3.553 . S
C1781 C419 3.577 1_554 S
C1786 C259 3.556 . S
C1811 C99 2.793 . S
C1816 C365 2.744 . S
C1841 C495 1.028 . S
C1846 C369 1.053 . S
C1871 C569 1.050 . S
C1876 C415 1.026 . S
C1901 C535 0.412 . S
C1906 C335 0.371 . S
C1931 C615 0.398 . S
C1936 C455 0.447 . S
C1961 C565 2.755 . S
C1966 C139 2.809 . S
C1991 C219 3.530 . S
C1996 C499 3.553 . S
C2021 C59 3.577 . S
C2026 C619 3.556 . S
C2051 C539 2.793 . S
C2056 C285 2.744 . S
