# Generated by pormake.
# Topology ukg, (4)-cn, num edge types: 1
# Building blocks:
#     Node 0, Type 0, BuildingBlock: CEKHIL_clean_sbu_0, # of connection points: 4
#     Node 1, Type 0, BuildingBlock: CEKHIL_clean_sbu_0, # of connection points: 4
#     Node 2, Type 0, BuildingBlock: CEKHIL_clean_sbu_0, # of connection points: 4
#     Node 3, Type 0, BuildingBlock: CEKHIL_clean_sbu_0, # of connection points: 4
#     Node 4, Type 0, BuildingBlock: CEKHIL_clean_sbu_0, # of connection points: 4
#     Node 5, Type 0, BuildingBlock: CEKHIL_clean_sbu_0, # of connection points: 4
#     Node 6, Type 0, BuildingBlock: CEKHIL_clean_sbu_0, # of connection points: 4
#     Node 7, Type 0, BuildingBlock: CEKHIL_clean_sbu_0, # of connection points: 4
#     Edge 8, Type (0, 0), BuildingBlock: FUNLAD_clean_linker_0, # of connection points: 2
#     Edge 9, Type (0, 0), BuildingBlock: FUNLAD_clean_linker_0, # of connection points: 2
#     Edge 10, Type (0, 0), BuildingBlock: FUNLAD_clean_linker_0, # of connection points: 2
#     Edge 11, Type (0, 0), BuildingBlock: FUNLAD_clean_linker_0, # of connection points: 2
#     Edge 12, Type (0, 0), BuildingBlock: FUNLAD_clean_linker_0, # of connection points: 2
#     Edge 13, Type (0, 0), BuildingBlock: FUNLAD_clean_linker_0, # of connection points: 2
#     Edge 14, Type (0, 0), BuildingBlock: FUNLAD_clean_linker_0, # of connection points: 2
#     Edge 15, Type (0, 0), BuildingBlock: FUNLAD_clean_linker_0, # of connection points: 2
#     Edge 16, Type (0, 0), BuildingBlock: FUNLAD_clean_linker_0, # of connection points: 2
#     Edge 17, Type (0, 0), BuildingBlock: FUNLAD_clean_linker_0, # of connection points: 2
#     Edge 18, Type (0, 0), BuildingBlock: FUNLAD_clean_linker_0, # of connection points: 2
#     Edge 19, Type (0, 0), BuildingBlock: FUNLAD_clean_linker_0, # of connection points: 2
#     Edge 20, Type (0, 0), BuildingBlock: FUNLAD_clean_linker_0, # of connection points: 2
#     Edge 21, Type (0, 0), BuildingBlock: FUNLAD_clean_linker_0, # of connection points: 2
#     Edge 22, Type (0, 0), BuildingBlock: FUNLAD_clean_linker_0, # of connection points: 2
#     Edge 23, Type (0, 0), BuildingBlock: FUNLAD_clean_linker_0, # of connection points: 2
# Relax obj value: 0.123
# Max RMSD: 0.207
# Mean RMSD: 0.202
data_MOF--net-ukg--node1-CEKHIL_clean_sbu_0--edge1-FUNLAD_clean_linker_0
_symmetry_space_group_name_H-M    P1
_symmetry_Int_Tables_number       1
_symmetry_cell_setting            triclinic
loop_
_symmetry_equiv_pos_as_xyz
'x, y, z'
_cell_length_a     35.199384
_cell_length_b     34.578379
_cell_length_c     43.521101
_cell_angle_alpha  89.964153
_cell_angle_beta   90.01267
_cell_angle_gamma 89.544507
loop_
_atom_site_label
_atom_site_type_symbol
_atom_site_fract_x
_atom_site_fract_y
_atom_site_fract_z
_atom_type_partial_charge
Co0 Co 0.03365 0.62397 0.15496 0.0
O1 O 0.05251 0.57878 0.13419 0.0
O2 O 0.03308 0.63264 0.1111 0.0
C3 C 0.99293 0.59406 0.18695 0.0
O4 O 0.01142 0.67558 0.16858 0.0
Co5 Co 0.0493 0.63402 0.22486 0.0
O6 O 0.01723 0.68094 0.21998 0.0
C7 C 0.10939 0.65319 0.18028 0.0
C8 C 0.04611 0.59746 0.1088 0.0
C9 C 0.00614 0.69378 0.19399 0.0
O10 O 0.08665 0.64557 0.15797 0.0
O11 O 0.10074 0.6478 0.20853 0.0
O12 O 0.9836 0.60125 0.15867 0.0
O13 O 0.02808 0.60046 0.19386 0.0
Co14 Co 0.34825 0.50654 0.65001 0.0
O15 O 0.39807 0.51355 0.63308 0.0
O16 O 0.34701 0.49906 0.60585 0.0
C17 C 0.36547 0.46788 0.68915 0.0
O18 O 0.29286 0.49534 0.66054 0.0
Co19 Co 0.3324 0.53787 0.7161 0.0
O20 O 0.28386 0.51006 0.71055 0.0
C21 C 0.33485 0.59199 0.66403 0.0
C22 C 0.38344 0.50541 0.60656 0.0
C23 C 0.27224 0.49634 0.68504 0.0
O24 O 0.33646 0.56347 0.64507 0.0
O25 O 0.33708 0.58778 0.6932 0.0
O26 O 0.36102 0.45368 0.66178 0.0
O27 O 0.36423 0.50511 0.691 0.0
Co28 Co 0.46787 0.87233 0.15061 0.0
O29 O 0.45774 0.91642 0.12523 0.0
O30 O 0.46859 0.85726 0.10763 0.0
C31 C 0.51122 0.90104 0.18091 0.0
O32 O 0.48138 0.82065 0.17031 0.0
Co33 Co 0.44867 0.87661 0.22032 0.0
O34 O 0.48223 0.83024 0.22147 0.0
C35 C 0.38752 0.86121 0.17569 0.0
C36 C 0.4624 0.89372 0.10183 0.0
C37 C 0.48938 0.80962 0.19783 0.0
O38 O 0.41196 0.86014 0.15368 0.0
O39 O 0.39611 0.8703 0.20335 0.0
O40 O 0.5209 0.8873 0.15428 0.0
O41 O 0.47524 0.90096 0.18681 0.0
Co42 Co 0.15488 0.97814 0.64198 0.0
O43 O 0.10817 0.9667 0.62146 0.0
O44 O 0.16237 0.97871 0.59771 0.0
C45 C 0.12992 0.02217 0.67435 0.0
O46 O 0.20819 0.99241 0.65667 0.0
Co47 Co 0.16027 0.95825 0.71173 0.0
O48 O 0.21013 0.984 0.70811 0.0
C49 C 0.16741 0.89617 0.66587 0.0
C50 C 0.12618 0.97131 0.59582 0.0
C51 C 0.22541 0.99417 0.68281 0.0
O52 O 0.16819 0.92142 0.64417 0.0
O53 O 0.16056 0.9048 0.69395 0.0
O54 O 0.13932 0.03188 0.64659 0.0
O55 O 0.13212 0.98568 0.68047 0.0
Co56 Co 0.96028 0.32023 0.85452 0.0
O57 O 0.92015 0.30398 0.88124 0.0
O58 O 0.91374 0.34763 0.84432 0.0
C59 C 0.9801 0.26008 0.84262 0.0
O60 O 0.99522 0.34262 0.82155 0.0
Co61 Co 0.04442 0.2997 0.86967 0.0
O62 O 0.05203 0.31288 0.82579 0.0
C63 C 0.00597 0.3646 0.902 0.0
C64 C 0.89788 0.32629 0.86531 0.0
C65 C 0.02868 0.33446 0.81122 0.0
O66 O 0.97634 0.36115 0.88483 0.0
O67 O 0.03447 0.34137 0.90078 0.0
O68 O 0.9514 0.27568 0.82849 0.0
O69 O 0.99373 0.27979 0.86523 0.0
Co70 Co 0.63701 0.47488 0.34758 0.0
O71 O 0.59178 0.4578 0.36776 0.0
O72 O 0.64574 0.47095 0.39154 0.0
C73 C 0.60955 0.52117 0.31874 0.0
O74 O 0.68872 0.49488 0.33347 0.0
Co75 Co 0.64304 0.46434 0.27665 0.0
O76 O 0.68378 0.50307 0.28219 0.0
C77 C 0.65829 0.39786 0.31746 0.0
C78 C 0.61016 0.46106 0.39341 0.0
C79 C 0.70091 0.50829 0.30766 0.0
O80 O 0.65448 0.41983 0.34113 0.0
O81 O 0.65211 0.40944 0.28993 0.0
O82 O 0.618 0.52765 0.34727 0.0
O83 O 0.61318 0.48567 0.30982 0.0
Co84 Co 0.5241 0.1759 0.84935 0.0
O85 O 0.56254 0.18982 0.87851 0.0
O86 O 0.57325 0.15725 0.83551 0.0
C87 C 0.49765 0.23518 0.84726 0.0
O88 O 0.49138 0.15792 0.81311 0.0
Co89 Co 0.43867 0.1812 0.86624 0.0
O90 O 0.43222 0.18069 0.82109 0.0
C91 C 0.48493 0.11476 0.88823 0.0
C92 C 0.58684 0.17428 0.85977 0.0
C93 C 0.45737 0.1656 0.80372 0.0
O94 O 0.51378 0.12678 0.87285 0.0
O95 O 0.45326 0.13323 0.88963 0.0
O96 O 0.52745 0.22682 0.831 0.0
O97 O 0.48632 0.20857 0.86597 0.0
Co98 Co 0.87437 0.02455 0.33387 0.0
O99 O 0.92188 0.03417 0.35391 0.0
O100 O 0.869 0.01787 0.37797 0.0
C101 C 0.8974 0.98554 0.29701 0.0
O102 O 0.82081 0.01077 0.31994 0.0
Co103 Co 0.86433 0.05336 0.26646 0.0
O104 O 0.81562 0.0253 0.26951 0.0
C105 C 0.85627 0.10869 0.31747 0.0
C106 C 0.90511 0.02568 0.3795 0.0
C107 C 0.80229 0.01142 0.29439 0.0
O108 O 0.85942 0.08092 0.33704 0.0
O109 O 0.86106 0.10405 0.28855 0.0
O110 O 0.89024 0.97207 0.3242 0.0
O111 O 0.89506 0.02265 0.29406 0.0
C112 C 0.03858 0.3996 0.94463 0.0
C113 C 0.00826 0.39761 0.92367 0.0
C114 C 0.04209 0.43102 0.96443 0.0
C115 C 0.01558 0.46168 0.96362 0.0
C116 C 0.98483 0.45943 0.94312 0.0
C117 C 0.98123 0.42779 0.92326 0.0
C118 C 0.01796 0.49486 0.98528 0.0
C119 C 0.05059 0.50539 0.99906 0.0
C120 C 0.05173 0.53264 0.02525 0.0
C121 C 0.07709 0.52475 0.04936 0.0
C122 C 0.07619 0.54685 0.07614 0.0
C123 C 0.05065 0.57799 0.07894 0.0
H124 H 0.00804 0.5722 0.00886 0.0
C125 C 0.02703 0.58766 0.05403 0.0
C126 C 0.02728 0.5649 0.02742 0.0
H127 H 0.00708 0.61159 0.05567 0.0
H128 H 0.05969 0.37672 0.94597 0.0
H129 H 0.06524 0.43046 0.98077 0.0
H130 H 0.96363 0.48229 0.94236 0.0
H131 H 0.95747 0.42718 0.90744 0.0
H132 H 0.99164 0.50977 0.99108 0.0
H133 H 0.07704 0.4908 0.99327 0.0
H134 H 0.09642 0.50025 0.04808 0.0
H135 H 0.09486 0.53899 0.09497 0.0
C136 C 0.44723 0.50838 0.58158 0.0
C137 C 0.40809 0.5011 0.57919 0.0
C138 C 0.47151 0.50159 0.55675 0.0
C139 C 0.45723 0.48708 0.52889 0.0
C140 C 0.41789 0.48101 0.52622 0.0
C141 C 0.39355 0.4878 0.55113 0.0
C142 C 0.48207 0.47882 0.50193 0.0
C143 C 0.51998 0.47263 0.5037 0.0
C144 C 0.54414 0.46542 0.4762 0.0
C145 C 0.58249 0.47654 0.47663 0.0
C146 C 0.60501 0.47317 0.45019 0.0
C147 C 0.58955 0.45831 0.42293 0.0
H148 H 0.50079 0.4375 0.44862 0.0
C149 C 0.552 0.44478 0.42317 0.0
C150 C 0.5296 0.44812 0.44949 0.0
H151 H 0.53941 0.43262 0.40266 0.0
H152 H 0.45933 0.51903 0.60281 0.0
H153 H 0.50129 0.50813 0.55957 0.0
H154 H 0.40598 0.47032 0.50492 0.0
H155 H 0.36353 0.48198 0.54855 0.0
H156 H 0.46815 0.47766 0.4797 0.0
H157 H 0.53434 0.47412 0.52572 0.0
H158 H 0.59462 0.48933 0.49709 0.0
H159 H 0.63386 0.48379 0.45072 0.0
C160 C 0.47218 0.94958 0.06707 0.0
C161 C 0.46423 0.91009 0.07052 0.0
C162 C 0.47558 0.96592 0.03799 0.0
C163 C 0.47064 0.9433 0.01154 0.0
C164 C 0.46183 0.90394 0.01481 0.0
C165 C 0.45929 0.88723 0.04415 0.0
C166 C 0.47212 0.96168 0.9808 0.0
C167 C 0.49776 0.98926 0.97438 0.0
C168 C 0.49465 0.01619 0.94794 0.0
C169 C 0.52733 0.03537 0.93772 0.0
C170 C 0.52448 0.06609 0.9169 0.0
C171 C 0.48872 0.0788 0.90647 0.0
H172 H 0.43319 0.01391 0.94387 0.0
C173 C 0.45617 0.0585 0.91565 0.0
C174 C 0.45908 0.02741 0.93605 0.0
H175 H 0.42822 0.06744 0.90785 0.0
H176 H 0.47628 0.96798 0.08692 0.0
H177 H 0.4813 0.99659 0.03626 0.0
H178 H 0.45734 0.8861 0.9947 0.0
H179 H 0.45306 0.85671 0.04622 0.0
H180 H 0.45079 0.95374 0.96396 0.0
H181 H 0.52093 0.99412 0.99043 0.0
H182 H 0.55502 0.02751 0.94677 0.0
H183 H 0.55008 0.08117 0.91031 0.0
C184 C 0.96612 0.03199 0.40816 0.0
C185 C 0.9275 0.02189 0.40816 0.0
C186 C 0.98897 0.02471 0.43377 0.0
C187 C 0.97379 0.00684 0.46002 0.0
C188 C 0.93478 -0.00169 0.46053 0.0
C189 C 0.91184 0.0056 0.43481 0.0
C190 C 0.99755 0.99739 0.48737 0.0
C191 C 0.03556 0.99158 0.48616 0.0
C192 C 0.05932 0.98294 0.51368 0.0
C193 C 0.09811 0.99248 0.51336 0.0
C194 C 0.1207 0.98708 0.53957 0.0
C195 C 0.10487 0.97178 0.56652 0.0
H196 H 0.01498 0.95611 0.54097 0.0
C197 C 0.06666 0.9602 0.56623 0.0
C198 C 0.04419 0.96554 0.54014 0.0
H199 H 0.05373 0.94775 0.5865 0.0
H200 H 0.979 0.04504 0.38812 0.0
H201 H 0.01841 0.03332 0.4328 0.0
H202 H 0.92218 0.98507 0.48063 0.0
H203 H 0.88219 0.99753 0.43553 0.0
H204 H 0.98279 0.9948 0.50915 0.0
H205 H 0.05035 0.99419 0.46439 0.0
H206 H 0.11068 0.00536 0.4931 0.0
H207 H 0.15004 0.99624 0.53908 0.0
C208 C 0.16611 0.69085 0.19714 0.0
C209 C 0.14551 0.67326 0.17331 0.0
C210 C 0.19699 0.71449 0.19059 0.0
C211 C 0.20821 0.72104 0.16005 0.0
C212 C 0.1892 0.70174 0.1363 0.0
C213 C 0.15785 0.67837 0.14281 0.0
C214 C 0.24013 0.74736 0.15286 0.0
C215 C 0.24566 0.78015 0.16899 0.0
C216 C 0.27984 0.80509 0.16673 0.0
C217 C 0.28605 0.83199 0.19033 0.0
C218 C 0.32009 0.85227 0.19209 0.0
C219 C 0.34872 0.84643 0.17006 0.0
H220 H 0.30331 0.78198 0.12417 0.0
C221 C 0.34135 0.82197 0.14497 0.0
C222 C 0.30728 0.8014 0.14332 0.0
H223 H 0.36272 0.81698 0.12748 0.0
H224 H 0.15768 0.68748 0.22092 0.0
H225 H 0.21197 0.72779 0.20953 0.0
H226 H 0.1978 0.70577 0.11262 0.0
H227 H 0.1428 0.66509 0.1239 0.0
H228 H 0.25908 0.73908 0.13434 0.0
H229 H 0.22495 0.78793 0.18652 0.0
H230 H 0.26527 0.83598 0.20845 0.0
H231 H 0.32459 0.87123 0.21153 0.0
C232 C 0.32632 0.66283 0.67235 0.0
C233 C 0.32456 0.63092 0.65243 0.0
C234 C 0.30827 0.69749 0.66472 0.0
C235 C 0.28806 0.701 0.63702 0.0
C236 C 0.28959 0.6707 0.61566 0.0
C237 C 0.3076 0.63573 0.62335 0.0
C238 C 0.26313 0.73499 0.63158 0.0
C239 C 0.24057 0.74823 0.65433 0.0
C240 C 0.21673 0.78379 0.6531 0.0
C241 C 0.19217 0.79108 0.67788 0.0
C242 C 0.17394 0.82678 0.68091 0.0
C243 C 0.17978 0.8561 0.65913 0.0
H244 H 0.23925 0.80787 0.61069 0.0
C245 C 0.20201 0.8479 0.63304 0.0
C246 C 0.22052 0.81213 0.63009 0.0
H247 H 0.20713 0.86992 0.61585 0.0
H248 H 0.33984 0.66044 0.69464 0.0
H249 H 0.30867 0.72103 0.68114 0.0
H250 H 0.2747 0.67312 0.59394 0.0
H251 H 0.306 0.61179 0.60738 0.0
H252 H 0.26224 0.74758 0.60877 0.0
H253 H 0.24019 0.73226 0.67589 0.0
H254 H 0.18844 0.76971 0.69584 0.0
H255 H 0.15669 0.83199 0.70113 0.0
C256 C 0.64983 0.19156 0.83772 0.0
C257 C 0.62759 0.18247 0.86348 0.0
C258 C 0.68543 0.20873 0.84149 0.0
C259 C 0.69953 0.21633 0.8711 0.0
C260 C 0.6785 0.20446 0.89675 0.0
C261 C 0.64256 0.18829 0.893 0.0
C262 C 0.73588 0.23677 0.87603 0.0
C263 C 0.74663 0.2672 0.85873 0.0
C264 C 0.78305 0.2882 0.86316 0.0
C265 C 0.79747 0.31042 0.83879 0.0
C266 C 0.83383 0.32643 0.84052 0.0
C267 C 0.85642 0.32041 0.86671 0.0
H268 H 0.79371 0.27064 0.9105 0.0
C269 C 0.84071 0.3013 0.89212 0.0
C270 C 0.80433 0.28562 0.89051 0.0
H271 H 0.85734 0.29666 0.91278 0.0
H272 H 0.63874 0.18773 0.81471 0.0
H273 H 0.70156 0.21662 0.82128 0.0
H274 H 0.68907 0.20952 0.91978 0.0
H275 H 0.62585 0.18166 0.91321 0.0
H276 H 0.75309 0.22713 0.89526 0.0
H277 H 0.72851 0.27638 0.83981 0.0
H278 H 0.78143 0.31364 0.81767 0.0
H279 H 0.84522 0.34094 0.82052 0.0
C280 C 0.695 0.34934 0.34871 0.0
C281 C 0.67501 0.35877 0.32169 0.0
C282 C 0.71699 0.3155 0.35038 0.0
C283 C 0.71905 0.29019 0.32508 0.0
C284 C 0.69694 0.29843 0.29898 0.0
C285 C 0.67526 0.33229 0.29724 0.0
C286 C 0.74597 0.25688 0.32342 0.0
C287 C 0.76822 0.244 0.34656 0.0
C288 C 0.79609 0.21228 0.34135 0.0
C289 C 0.80087 0.18302 0.36339 0.0
C290 C 0.82298 0.15023 0.35666 0.0
C291 C 0.8409 0.1465 0.32787 0.0
H292 H 0.81491 0.23308 0.29689 0.0
C293 C 0.83892 0.17764 0.30713 0.0
C294 C 0.8168 0.21015 0.3138 0.0
H295 H 0.85292 0.17615 0.28499 0.0
H296 H 0.69547 0.36914 0.36799 0.0
H297 H 0.73345 0.31048 0.37097 0.0
H298 H 0.69764 0.27938 0.27922 0.0
H299 H 0.65992 0.33843 0.27619 0.0
H300 H 0.74812 0.2424 0.3013 0.0
H301 H 0.76509 0.25519 0.36969 0.0
H302 H 0.78575 0.18445 0.38504 0.0
H303 H 0.82408 0.12691 0.37327 0.0
C304 C 0.77049 0.51428 0.31876 0.0
C305 C 0.73686 0.52965 0.30622 0.0
C306 C 0.80575 0.53018 0.31085 0.0
C307 C 0.80759 0.56193 0.29055 0.0
C308 C 0.77354 0.57906 0.28038 0.0
C309 C 0.73863 0.56287 0.28782 0.0
C310 C 0.84352 0.57618 0.2767 0.0
C311 C 0.8764 0.55598 0.27549 0.0
C312 C 0.90671 0.56665 0.25336 0.0
C313 C 0.94525 0.56247 0.26116 0.0
C314 C 0.97366 0.57163 0.23977 0.0
C315 C 0.9638 0.58405 0.21002 0.0
H316 H 0.86766 0.58113 0.21639 0.0
C317 C 0.92523 0.58736 0.20215 0.0
C318 C 0.89707 0.57886 0.22353 0.0
H319 H 0.91664 0.5967 0.17941 0.0
H320 H 0.7697 0.48855 0.33295 0.0
H321 H 0.83125 0.51668 0.31982 0.0
H322 H 0.77392 0.6037 0.26499 0.0
H323 H 0.71299 0.5753 0.278 0.0
H324 H 0.84152 0.60288 0.26354 0.0
H325 H 0.8805 0.5299 0.28897 0.0
H326 H 0.95335 0.55251 0.28385 0.0
H327 H 0.0032 0.56867 0.24638 0.0
C328 C 0.37801 0.4585 0.7452 0.0
C329 C 0.36835 0.44294 0.71647 0.0
C330 C 0.38282 0.43427 0.77064 0.0
C331 C 0.37781 0.39412 0.7677 0.0
C332 C 0.36597 0.37902 0.73941 0.0
C333 C 0.36159 0.40312 0.71395 0.0
C334 C 0.38808 0.36669 0.79251 0.0
C335 C 0.41839 0.37248 0.81069 0.0
C336 C 0.43815 0.33967 0.82566 0.0
C337 C 0.47781 0.33771 0.82336 0.0
C338 C 0.49719 0.30398 0.83148 0.0
C339 C 0.47733 0.27201 0.84285 0.0
H340 H 0.38779 0.3097 0.8413 0.0
C341 C 0.43799 0.27501 0.84767 0.0
C342 C 0.41839 0.30857 0.83882 0.0
H343 H 0.42215 0.25081 0.85669 0.0
H344 H 0.38281 0.48923 0.74785 0.0
H345 H 0.39109 0.44689 0.79238 0.0
H346 H 0.36178 0.3482 0.73661 0.0
H347 H 0.3535 0.39043 0.69218 0.0
H348 H 0.37534 0.33816 0.79167 0.0
H349 H 0.43367 0.39961 0.80924 0.0
H350 H 0.49362 0.36139 0.8134 0.0
H351 H 0.52765 0.30251 0.82798 0.0
C352 C 0.57759 0.90024 0.20078 0.0
C353 C 0.53985 0.91314 0.20361 0.0
C354 C 0.60538 0.91302 0.22119 0.0
C355 C 0.59603 0.9394 0.24464 0.0
C356 C 0.55816 0.95184 0.24774 0.0
C357 C 0.53014 0.93836 0.22768 0.0
C358 C 0.6261 0.95789 0.26328 0.0
C359 C 0.65882 0.93977 0.27077 0.0
C360 C 0.69286 0.96092 0.28144 0.0
C361 C 0.72022 0.94193 0.29967 0.0
C362 C 0.75521 0.95941 0.30584 0.0
C363 C 0.76362 0.9956 0.29304 0.0
H364 H 0.68083 0.01322 0.25535 0.0
C365 C 0.73584 0.01508 0.2757 0.0
C366 C 0.70074 -0.00189 0.27013 0.0
H367 H 0.74177 0.04301 0.26554 0.0
H368 H 0.5858 0.88063 0.1825 0.0
H369 H 0.63445 0.90362 0.2176 0.0
H370 H 0.55037 0.97253 0.26538 0.0
H371 H 0.50121 0.94874 0.23031 0.0
H372 H 0.62191 0.98804 0.26956 0.0
H373 H 0.66165 0.90878 0.26717 0.0
H374 H 0.71498 0.91307 0.30831 0.0
H375 H 0.77642 0.94371 0.31901 0.0
C376 C 0.98313 0.20617 0.80508 0.0
C377 C 0.99869 0.22492 0.83068 0.0
C378 C 0.00226 0.17529 0.79147 0.0
C379 C 0.03745 0.16263 0.80311 0.0
C380 C 0.05192 0.17968 0.82985 0.0
C381 C 0.03276 0.21086 0.84348 0.0
C382 C 0.05991 0.13302 0.7865 0.0
C383 C 0.06192 0.13384 0.75566 0.0
C384 C 0.08291 0.10528 0.73684 0.0
C385 C 0.09399 0.11623 0.70717 0.0
C386 C 0.11045 0.0894 0.6873 0.0
C387 C 0.11571 0.05086 0.69658 0.0
H388 H 0.0803 0.05738 0.76911 0.0
C389 C 0.10552 0.03994 0.72654 0.0
C390 C 0.08923 0.06697 0.74659 0.0
H391 H 0.10924 0.01035 0.73423 0.0
H392 H 0.95659 0.21593 0.795 0.0
H393 H 0.98984 0.1618 0.77142 0.0
H394 H 0.07881 0.17 0.83937 0.0
H395 H 0.04516 0.2246 0.86342 0.0
H396 H 0.07655 0.11226 0.79966 0.0
H397 H 0.04811 0.15748 0.74336 0.0
H398 H 0.08928 0.14554 0.6991 0.0
H399 H 0.11807 0.09868 0.66435 0.0
C400 C 0.07493 0.33861 0.76791 0.0
C401 C 0.04281 0.35366 0.78306 0.0
C402 C 0.09321 0.35991 0.74512 0.0
C403 C 0.07973 0.39692 0.73684 0.0
C404 C 0.04605 0.41076 0.75049 0.0
C405 C 0.02758 0.38925 0.77324 0.0
C406 C 0.10329 0.42404 0.71844 0.0
C407 C 0.13335 0.41282 0.70128 0.0
C408 C 0.16487 0.43922 0.69276 0.0
C409 C 0.19102 0.4277 0.67002 0.0
C410 C 0.22505 0.44784 0.66582 0.0
C411 C 0.23377 0.47944 0.68473 0.0
H412 H 0.15403 0.48203 0.72846 0.0
C413 C 0.2067 0.49226 0.70621 0.0
C414 C 0.1727 0.47249 0.7102 0.0
H415 H 0.21252 0.51669 0.72102 0.0
H416 H 0.08719 0.31108 0.77474 0.0
H417 H 0.11931 0.34816 0.7358 0.0
H418 H 0.03508 0.43922 0.74471 0.0
H419 H 0.00287 0.40165 0.78446 0.0
H420 H 0.09759 0.4547 0.72156 0.0
H421 H 0.137 0.38251 0.69542 0.0
H422 H 0.18593 0.402 0.65645 0.0
H423 H 0.24547 0.43721 0.64917 0.0
C424 C 0.58495 0.54856 0.26904 0.0
C425 C 0.60371 0.55352 0.29723 0.0
C426 C 0.57863 0.58034 0.24961 0.0
C427 C 0.59173 0.61724 0.25801 0.0
C428 C 0.61204 0.62146 0.28549 0.0
C429 C 0.6176 0.59012 0.30503 0.0
C430 C 0.58329 0.6528 0.24023 0.0
C431 C 0.55173 0.65803 0.22324 0.0
C432 C 0.53817 0.69749 0.21528 0.0
C433 C 0.51846 0.70438 0.18775 0.0
C434 C 0.50346 0.74121 0.18137 0.0
C435 C 0.50715 0.77132 0.20287 0.0
H436 H 0.55598 0.72331 0.25845 0.0
C437 C 0.5269 0.76424 0.23034 0.0
C438 C 0.54216 0.72786 0.23649 0.0
H439 H 0.53024 0.78677 0.2474 0.0
H440 H 0.57446 0.52041 0.2624 0.0
H441 H 0.56353 0.57594 0.22826 0.0
H442 H 0.6226 0.64949 0.29244 0.0
H443 H 0.63286 0.59464 0.32634 0.0
H444 H 0.60119 0.67764 0.24484 0.0
H445 H 0.53357 0.63386 0.21752 0.0
H446 H 0.51452 0.68125 0.17131 0.0
H447 H 0.4881 0.7458 0.1601 0.0
C448 C 0.45771 0.11738 0.76063 0.0
C449 C 0.44443 0.15237 0.77318 0.0
C450 C 0.43833 0.10016 0.73609 0.0
C451 C 0.40548 0.11787 0.72371 0.0
C452 C 0.39503 0.15483 0.73411 0.0
C453 C 0.41405 0.17175 0.75875 0.0
C454 C 0.37863 0.09724 0.70308 0.0
C455 C 0.3732 0.05878 0.70506 0.0
C456 C 0.33754 0.03973 0.69499 0.0
C457 C 0.32523 0.00766 0.71189 0.0
C458 C 0.28933 0.99219 0.70695 0.0
C459 C 0.26504 0.00786 0.68447 0.0
H460 H 0.32317 0.07824 0.65714 0.0
C461 C 0.27824 0.0381 0.66584 0.0
C462 C 0.31418 0.05415 0.67118 0.0
H463 H 0.26014 0.05051 0.64822 0.0
H464 H 0.48124 0.10194 0.77117 0.0
H465 H 0.44808 0.07226 0.72789 0.0
H466 H 0.37025 0.16945 0.72476 0.0
H467 H 0.40355 0.19907 0.76766 0.0
H468 H 0.35806 0.11488 0.69069 0.0
H469 H 0.39206 0.04167 0.71951 0.0
H470 H 0.34263 0.9957 0.73018 0.0
H471 H 0.28016 0.96846 0.72136 0.0
C472 C 0.00238 0.76122 0.21284 0.0
C473 C 0.98846 0.73242 0.19328 0.0
C474 C 0.98507 0.7975 0.21382 0.0
C475 C 0.953 0.80557 0.19559 0.0
C476 C 0.93925 0.77692 0.17572 0.0
C477 C 0.95734 0.74073 0.17412 0.0
C478 C 0.93092 0.84153 0.20078 0.0
C479 C 0.948 0.87485 0.20834 0.0
C480 C 0.92892 0.9053 0.22673 0.0
C481 C 0.94278 0.94327 0.22593 0.0
C482 C 0.93076 0.97046 0.24774 0.0
C483 C 0.90572 0.95953 0.27119 0.0
H484 H 0.89123 0.86614 0.25093 0.0
C485 C 0.89061 0.92215 0.27122 0.0
C486 C 0.90183 0.89535 0.24907 0.0
H487 H 0.871 0.91322 0.28901 0.0
H488 H 0.02649 0.75554 0.22771 0.0
H489 H 0.99571 0.81851 0.23006 0.0
H490 H 0.91418 0.78233 0.16188 0.0
H491 H 0.94612 0.7188 0.15892 0.0
H492 H 0.90018 0.83924 0.202 0.0
H493 H 0.97835 0.8779 0.20446 0.0
H494 H 0.96406 0.95142 0.2092 0.0
H495 H 0.94277 -0.00079 0.24737 0.0
loop_
_geom_bond_atom_site_label_1
_geom_bond_atom_site_label_2
_geom_bond_distance
_geom_bond_site_symmetry_2
_ccdc_geom_bond_type
Co0 O1 2.216 . S
Co0 O2 2.091 . S
Co0 O4 2.004 1_455 S
Co0 O10 2.021 . S
Co0 O12 2.137 1_455 S
Co0 O13 2.244 . S
O1 Co0 2.216 . S
O1 C8 1.247 . S
O2 Co0 2.091 . S
O2 C8 1.261 . S
C3 O12 1.247 . S
C3 O13 1.272 1_655 S
O4 Co0 2.004 1_655 S
O4 C9 1.259 . S
Co5 O6 2.061 . S
Co5 O11 2.052 . S
Co5 O13 2.135 . S
O6 Co5 2.061 . S
O6 C9 1.235 1_455 S
C7 O10 1.238 . S
C7 O11 1.241 . S
C8 O1 1.247 . S
C8 O2 1.261 . S
C9 O4 1.259 . S
C9 O6 1.235 1_655 S
O10 Co0 2.021 . S
O10 C7 1.238 . S
O11 Co5 2.052 . S
O11 C7 1.241 . S
O12 Co0 2.137 1_655 S
O12 C3 1.247 . S
O13 Co0 2.244 . S
O13 C3 1.272 1_455 S
O13 Co5 2.135 . S
Co14 O15 2.216 . S
Co14 O16 2.091 . S
Co14 O18 2.004 . S
Co14 O24 2.021 . S
Co14 O26 2.137 . S
Co14 O27 2.244 . S
O15 Co14 2.216 . S
O15 C22 1.247 . S
O16 Co14 2.091 . S
O16 C22 1.261 . S
C17 O26 1.247 . S
C17 O27 1.272 . S
O18 Co14 2.004 . S
O18 C23 1.259 . S
Co19 O20 2.061 . S
Co19 O25 2.052 . S
Co19 O27 2.135 . S
O20 Co19 2.061 . S
O20 C23 1.235 . S
C21 O24 1.238 . S
C21 O25 1.241 . S
C22 O15 1.247 . S
C22 O16 1.261 . S
C23 O18 1.259 . S
C23 O20 1.235 . S
O24 Co14 2.021 . S
O24 C21 1.238 . S
O25 Co19 2.052 . S
O25 C21 1.241 . S
O26 Co14 2.137 . S
O26 C17 1.247 . S
O27 Co14 2.244 . S
O27 C17 1.272 . S
O27 Co19 2.135 . S
Co28 O29 2.216 . S
Co28 O30 2.091 . S
Co28 O32 2.004 . S
Co28 O38 2.021 . S
Co28 O40 2.137 . S
Co28 O41 2.244 . S
O29 Co28 2.216 . S
O29 C36 1.247 . S
O30 Co28 2.091 . S
O30 C36 1.261 . S
C31 O40 1.247 . S
C31 O41 1.272 . S
O32 Co28 2.004 . S
O32 C37 1.259 . S
Co33 O34 2.061 . S
Co33 O39 2.052 . S
Co33 O41 2.135 . S
O34 Co33 2.061 . S
O34 C37 1.235 . S
C35 O38 1.238 . S
C35 O39 1.241 . S
C36 O29 1.247 . S
C36 O30 1.261 . S
C37 O32 1.259 . S
C37 O34 1.235 . S
O38 Co28 2.021 . S
O38 C35 1.238 . S
O39 Co33 2.052 . S
O39 C35 1.241 . S
O40 Co28 2.137 . S
O40 C31 1.247 . S
O41 Co28 2.244 . S
O41 C31 1.272 . S
O41 Co33 2.135 . S
Co42 O43 2.216 . S
Co42 O44 2.091 . S
Co42 O46 2.004 1_565 S
Co42 O52 2.021 . S
Co42 O54 2.137 1_565 S
Co42 O55 2.244 . S
O43 Co42 2.216 . S
O43 C50 1.247 . S
O44 Co42 2.091 . S
O44 C50 1.261 . S
C45 O54 1.247 . S
C45 O55 1.272 1_545 S
O46 Co42 2.004 1_545 S
O46 C51 1.259 . S
Co47 O48 2.061 . S
Co47 O53 2.052 . S
Co47 O55 2.135 . S
O48 Co47 2.061 . S
O48 C51 1.235 1_565 S
C49 O52 1.238 . S
C49 O53 1.241 . S
C50 O43 1.247 . S
C50 O44 1.261 . S
C51 O46 1.259 . S
C51 O48 1.235 1_545 S
O52 Co42 2.021 . S
O52 C49 1.238 . S
O53 Co47 2.052 . S
O53 C49 1.241 . S
O54 Co42 2.137 1_545 S
O54 C45 1.247 . S
O55 Co42 2.244 . S
O55 C45 1.272 1_565 S
O55 Co47 2.135 . S
Co56 O57 2.216 . S
Co56 O58 2.091 . S
Co56 O60 2.004 1_655 S
Co56 O66 2.021 . S
Co56 O68 2.137 . S
Co56 O69 2.244 1_655 S
O57 Co56 2.216 . S
O57 C64 1.247 . S
O58 Co56 2.091 . S
O58 C64 1.261 . S
C59 O68 1.247 1_455 S
C59 O69 1.272 . S
O60 Co56 2.004 1_455 S
O60 C65 1.259 . S
Co61 O62 2.061 . S
Co61 O67 2.052 . S
Co61 O69 2.135 . S
O62 Co61 2.061 . S
O62 C65 1.235 . S
C63 O66 1.238 . S
C63 O67 1.241 1_655 S
C64 O57 1.247 . S
C64 O58 1.261 . S
C65 O60 1.259 . S
C65 O62 1.235 . S
O66 Co56 2.021 . S
O66 C63 1.238 . S
O67 Co61 2.052 . S
O67 C63 1.241 1_455 S
O68 Co56 2.137 . S
O68 C59 1.247 1_655 S
O69 Co56 2.244 1_455 S
O69 C59 1.272 . S
O69 Co61 2.135 . S
Co70 O71 2.216 . S
Co70 O72 2.091 . S
Co70 O74 2.004 . S
Co70 O80 2.021 . S
Co70 O82 2.137 . S
Co70 O83 2.244 . S
O71 Co70 2.216 . S
O71 C78 1.247 . S
O72 Co70 2.091 . S
O72 C78 1.261 . S
C73 O82 1.247 . S
C73 O83 1.272 . S
O74 Co70 2.004 . S
O74 C79 1.259 . S
Co75 O76 2.061 . S
Co75 O81 2.052 . S
Co75 O83 2.135 . S
O76 Co75 2.061 . S
O76 C79 1.235 . S
C77 O80 1.238 . S
C77 O81 1.241 . S
C78 O71 1.247 . S
C78 O72 1.261 . S
C79 O74 1.259 . S
C79 O76 1.235 . S
O80 Co70 2.021 . S
O80 C77 1.238 . S
O81 Co75 2.052 . S
O81 C77 1.241 . S
O82 Co70 2.137 . S
O82 C73 1.247 . S
O83 Co70 2.244 . S
O83 C73 1.272 . S
O83 Co75 2.135 . S
Co84 O85 2.216 . S
Co84 O86 2.091 . S
Co84 O88 2.004 . S
Co84 O94 2.021 . S
Co84 O96 2.137 . S
Co84 O97 2.244 . S
O85 Co84 2.216 . S
O85 C92 1.247 . S
O86 Co84 2.091 . S
O86 C92 1.261 . S
C87 O96 1.247 . S
C87 O97 1.272 . S
O88 Co84 2.004 . S
O88 C93 1.259 . S
Co89 O90 2.061 . S
Co89 O95 2.052 . S
Co89 O97 2.135 . S
O90 Co89 2.061 . S
O90 C93 1.235 . S
C91 O94 1.238 . S
C91 O95 1.241 . S
C92 O85 1.247 . S
C92 O86 1.261 . S
C93 O88 1.259 . S
C93 O90 1.235 . S
O94 Co84 2.021 . S
O94 C91 1.238 . S
O95 Co89 2.052 . S
O95 C91 1.241 . S
O96 Co84 2.137 . S
O96 C87 1.247 . S
O97 Co84 2.244 . S
O97 C87 1.272 . S
O97 Co89 2.135 . S
Co98 O99 2.216 . S
Co98 O100 2.091 . S
Co98 O102 2.004 1_545 S
Co98 O108 2.021 . S
Co98 O110 2.137 1_545 S
Co98 O111 2.244 . S
O99 Co98 2.216 . S
O99 C106 1.247 . S
O100 Co98 2.091 . S
O100 C106 1.261 . S
C101 O110 1.247 . S
C101 O111 1.272 1_565 S
O102 Co98 2.004 1_565 S
O102 C107 1.259 . S
Co103 O104 2.061 . S
Co103 O109 2.052 . S
Co103 O111 2.135 . S
O104 Co103 2.061 . S
O104 C107 1.235 1_545 S
C105 O108 1.238 . S
C105 O109 1.241 . S
C106 O99 1.247 . S
C106 O100 1.261 . S
C107 O102 1.259 . S
C107 O104 1.235 1_565 S
O108 Co98 2.021 . S
O108 C105 1.238 . S
O109 Co103 2.052 . S
O109 C105 1.241 . S
O110 Co98 2.137 1_565 S
O110 C101 1.247 . S
O111 Co98 2.244 . S
O111 C101 1.272 1_545 S
O111 Co103 2.135 . S
C112 C113 1.386 1_455 S
C112 C114 1.383 . S
C112 H128 0.951 . S
C113 C112 1.386 1_655 S
C113 C117 1.383 . S
C114 C112 1.383 . S
C114 C115 1.405 . S
C114 H129 0.951 . S
C115 C114 1.405 . S
C115 C116 1.371 1_455 S
C115 C118 1.481 . S
C116 C115 1.371 1_655 S
C116 C117 1.367 . S
C116 H130 0.951 . S
C117 C113 1.383 . S
C117 C116 1.367 . S
C117 H131 0.950 . S
C118 C115 1.481 . S
C118 C119 1.284 1_556 S
C118 H132 0.950 1_455 S
C119 C118 1.284 1_554 S
C119 C120 1.490 . S
C119 H133 0.953 . S
C120 C119 1.490 . S
C120 C121 1.375 . S
C120 C126 1.404 . S
C121 C120 1.375 . S
C121 C122 1.369 . S
C121 H134 0.950 . S
C122 C121 1.369 . S
C122 C123 1.392 . S
C122 H135 0.951 . S
C123 C122 1.392 . S
C123 C125 1.384 . S
H124 C126 0.917 1_656 S
C125 C123 1.384 . S
C125 C126 1.385 . S
C125 H127 0.950 1_455 S
C126 C120 1.404 . S
C126 H124 0.917 1_454 S
C126 C125 1.385 . S
H127 C125 0.950 1_655 S
H128 C112 0.951 . S
H129 C114 0.951 . S
H130 C116 0.951 . S
H131 C117 0.950 . S
H132 C118 0.950 1_655 S
H133 C119 0.953 . S
H134 C121 0.950 . S
H135 C122 0.951 . S
C136 C137 1.386 . S
C136 C138 1.383 . S
C136 H152 0.951 . S
C137 C136 1.386 . S
C137 C141 1.383 . S
C138 C136 1.383 . S
C138 C139 1.402 . S
C138 H153 0.951 . S
C139 C138 1.402 . S
C139 C140 1.375 . S
C139 C142 1.481 . S
C140 C139 1.375 . S
C140 C141 1.367 . S
C140 H154 0.951 . S
C141 C137 1.383 . S
C141 C140 1.367 . S
C141 H155 0.950 . S
C142 C139 1.481 . S
C142 C143 1.297 . S
C142 H156 0.950 . S
C143 C142 1.297 . S
C143 C144 1.479 . S
C143 H157 0.950 . S
C144 C143 1.479 . S
C144 C145 1.375 . S
C144 C150 1.404 . S
C145 C144 1.375 . S
C145 C146 1.369 . S
C145 H158 0.950 . S
C146 C145 1.369 . S
C146 C147 1.392 . S
C146 H159 0.951 . S
C147 C146 1.392 . S
C147 C149 1.384 . S
H148 C150 0.949 . S
C149 C147 1.384 . S
C149 C150 1.385 . S
C149 H151 0.950 . S
C150 C144 1.404 . S
C150 H148 0.949 . S
C150 C149 1.385 . S
H151 C149 0.950 . S
H152 C136 0.951 . S
H153 C138 0.951 . S
H154 C140 0.951 . S
H155 C141 0.950 . S
H156 C142 0.950 . S
H157 C143 0.950 . S
H158 C145 0.950 . S
H159 C146 0.951 . S
C160 C161 1.386 . S
C160 C162 1.383 . S
C160 H176 0.951 . S
C161 C160 1.386 . S
C161 C165 1.383 . S
C162 C160 1.383 . S
C162 C163 1.402 . S
C162 H177 0.951 . S
C163 C162 1.402 . S
C163 C164 1.375 . S
C163 C166 1.481 1_554 S
C164 C163 1.375 . S
C164 C165 1.367 . S
C164 H178 0.951 . S
C165 C161 1.383 . S
C165 C164 1.367 . S
C165 H179 0.950 . S
C166 C163 1.481 1_556 S
C166 C167 1.297 1_565 S
C166 H180 0.950 . S
C167 C166 1.297 1_545 S
C167 C168 1.479 . S
C167 H181 0.950 . S
C168 C167 1.479 . S
C168 C169 1.375 . S
C168 C174 1.404 . S
C169 C168 1.375 . S
C169 C170 1.369 . S
C169 H182 0.950 . S
C170 C169 1.369 . S
C170 C171 1.392 . S
C170 H183 0.951 . S
C171 C170 1.392 . S
C171 C173 1.384 . S
H172 C174 0.949 . S
C173 C171 1.384 . S
C173 C174 1.385 . S
C173 H175 0.950 . S
C174 C168 1.404 . S
C174 H172 0.949 . S
C174 C173 1.385 . S
H175 C173 0.950 . S
H176 C160 0.951 . S
H177 C162 0.951 . S
H178 C164 0.951 . S
H179 C165 0.950 . S
H180 C166 0.950 . S
H181 C167 0.950 . S
H182 C169 0.950 . S
H183 C170 0.951 . S
C184 C185 1.386 1_565 S
C184 C186 1.383 . S
C184 H200 0.951 . S
C185 C184 1.386 1_545 S
C185 C189 1.383 . S
C186 C184 1.383 . S
C186 C187 1.402 1_565 S
C186 H201 0.951 . S
C187 C186 1.402 1_545 S
C187 C188 1.375 . S
C187 C190 1.481 . S
C188 C187 1.375 . S
C188 C189 1.367 . S
C188 H202 0.951 . S
C189 C185 1.383 . S
C189 C188 1.367 . S
C189 H203 0.950 . S
C190 C187 1.481 . S
C190 C191 1.297 1_655 S
C190 H204 0.950 . S
C191 C190 1.297 1_455 S
C191 C192 1.479 . S
C191 H205 0.950 1_545 S
C192 C191 1.479 . S
C192 C193 1.375 1_545 S
C192 C198 1.404 . S
C193 C192 1.375 1_565 S
C193 C194 1.369 . S
C193 H206 0.950 . S
C194 C193 1.369 . S
C194 C195 1.392 . S
C194 H207 0.951 . S
C195 C194 1.392 . S
C195 C197 1.384 1_565 S
H196 C198 0.949 . S
C197 C195 1.384 1_545 S
C197 C198 1.385 . S
C197 H199 0.950 . S
C198 C192 1.404 . S
C198 H196 0.949 . S
C198 C197 1.385 . S
H199 C197 0.950 . S
H200 C184 0.951 . S
H201 C186 0.951 . S
H202 C188 0.951 . S
H203 C189 0.950 . S
H204 C190 0.950 . S
H205 C191 0.950 1_565 S
H206 C193 0.950 . S
H207 C194 0.951 . S
C208 C209 1.386 . S
C208 C210 1.383 . S
C208 H224 0.951 . S
C209 C208 1.386 . S
C209 C213 1.383 . S
C210 C208 1.383 . S
C210 C211 1.402 . S
C210 H225 0.951 . S
C211 C210 1.402 . S
C211 C212 1.375 . S
C211 C214 1.481 . S
C212 C211 1.375 . S
C212 C213 1.367 . S
C212 H226 0.951 . S
C213 C209 1.383 . S
C213 C212 1.367 . S
C213 H227 0.950 . S
C214 C211 1.481 . S
C214 C215 1.297 . S
C214 H228 0.950 . S
C215 C214 1.297 . S
C215 C216 1.479 . S
C215 H229 0.950 . S
C216 C215 1.479 . S
C216 C217 1.375 . S
C216 C222 1.404 . S
C217 C216 1.375 . S
C217 C218 1.369 . S
C217 H230 0.950 . S
C218 C217 1.369 . S
C218 C219 1.392 . S
C218 H231 0.951 . S
C219 C218 1.392 . S
C219 C221 1.384 . S
H220 C222 0.949 . S
C221 C219 1.384 . S
C221 C222 1.385 . S
C221 H223 0.950 . S
C222 C216 1.404 . S
C222 H220 0.949 . S
C222 C221 1.385 . S
H223 C221 0.950 . S
H224 C208 0.951 . S
H225 C210 0.951 . S
H226 C212 0.951 . S
H227 C213 0.950 . S
H228 C214 0.950 . S
H229 C215 0.950 . S
H230 C217 0.950 . S
H231 C218 0.951 . S
C232 C233 1.386 . S
C232 C234 1.383 . S
C232 H248 0.951 . S
C233 C232 1.386 . S
C233 C237 1.383 . S
C234 C232 1.383 . S
C234 C235 1.402 . S
C234 H249 0.951 . S
C235 C234 1.402 . S
C235 C236 1.375 . S
C235 C238 1.481 . S
C236 C235 1.375 . S
C236 C237 1.367 . S
C236 H250 0.951 . S
C237 C233 1.383 . S
C237 C236 1.367 . S
C237 H251 0.950 . S
C238 C235 1.481 . S
C238 C239 1.297 . S
C238 H252 0.950 . S
C239 C238 1.297 . S
C239 C240 1.479 . S
C239 H253 0.950 . S
C240 C239 1.479 . S
C240 C241 1.375 . S
C240 C246 1.404 . S
C241 C240 1.375 . S
C241 C242 1.369 . S
C241 H254 0.950 . S
C242 C241 1.369 . S
C242 C243 1.392 . S
C242 H255 0.951 . S
C243 C242 1.392 . S
C243 C245 1.384 . S
H244 C246 0.949 . S
C245 C243 1.384 . S
C245 C246 1.385 . S
C245 H247 0.950 . S
C246 C240 1.404 . S
C246 H244 0.949 . S
C246 C245 1.385 . S
H247 C245 0.950 . S
H248 C232 0.951 . S
H249 C234 0.951 . S
H250 C236 0.951 . S
H251 C237 0.950 . S
H252 C238 0.950 . S
H253 C239 0.950 . S
H254 C241 0.950 . S
H255 C242 0.951 . S
C256 C257 1.386 . S
C256 C258 1.383 . S
C256 H272 0.951 . S
C257 C256 1.386 . S
C257 C261 1.383 . S
C258 C256 1.383 . S
C258 C259 1.402 . S
C258 H273 0.951 . S
C259 C258 1.402 . S
C259 C260 1.375 . S
C259 C262 1.481 . S
C260 C259 1.375 . S
C260 C261 1.367 . S
C260 H274 0.951 . S
C261 C257 1.383 . S
C261 C260 1.367 . S
C261 H275 0.950 . S
C262 C259 1.481 . S
C262 C263 1.297 . S
C262 H276 0.950 . S
C263 C262 1.297 . S
C263 C264 1.479 . S
C263 H277 0.950 . S
C264 C263 1.479 . S
C264 C265 1.375 . S
C264 C270 1.404 . S
C265 C264 1.375 . S
C265 C266 1.369 . S
C265 H278 0.950 . S
C266 C265 1.369 . S
C266 C267 1.392 . S
C266 H279 0.951 . S
C267 C266 1.392 . S
C267 C269 1.384 . S
H268 C270 0.949 . S
C269 C267 1.384 . S
C269 C270 1.385 . S
C269 H271 0.950 . S
C270 C264 1.404 . S
C270 H268 0.949 . S
C270 C269 1.385 . S
H271 C269 0.950 . S
H272 C256 0.951 . S
H273 C258 0.951 . S
H274 C260 0.951 . S
H275 C261 0.950 . S
H276 C262 0.950 . S
H277 C263 0.950 . S
H278 C265 0.950 . S
H279 C266 0.951 . S
C280 C281 1.386 . S
C280 C282 1.383 . S
C280 H296 0.951 . S
C281 C280 1.386 . S
C281 C285 1.383 . S
C282 C280 1.383 . S
C282 C283 1.402 . S
C282 H297 0.951 . S
C283 C282 1.402 . S
C283 C284 1.375 . S
C283 C286 1.481 . S
C284 C283 1.375 . S
C284 C285 1.367 . S
C284 H298 0.951 . S
C285 C281 1.383 . S
C285 C284 1.367 . S
C285 H299 0.950 . S
C286 C283 1.481 . S
C286 C287 1.297 . S
C286 H300 0.950 . S
C287 C286 1.297 . S
C287 C288 1.479 . S
C287 H301 0.950 . S
C288 C287 1.479 . S
C288 C289 1.375 . S
C288 C294 1.404 . S
C289 C288 1.375 . S
C289 C290 1.369 . S
C289 H302 0.950 . S
C290 C289 1.369 . S
C290 C291 1.392 . S
C290 H303 0.951 . S
C291 C290 1.392 . S
C291 C293 1.384 . S
H292 C294 0.949 . S
C293 C291 1.384 . S
C293 C294 1.385 . S
C293 H295 0.950 . S
C294 C288 1.404 . S
C294 H292 0.949 . S
C294 C293 1.385 . S
H295 C293 0.950 . S
H296 C280 0.951 . S
H297 C282 0.951 . S
H298 C284 0.951 . S
H299 C285 0.950 . S
H300 C286 0.950 . S
H301 C287 0.950 . S
H302 C289 0.950 . S
H303 C290 0.951 . S
C304 C305 1.386 . S
C304 C306 1.383 . S
C304 H320 0.951 . S
C305 C304 1.386 . S
C305 C309 1.383 . S
C306 C304 1.383 . S
C306 C307 1.402 . S
C306 H321 0.951 . S
C307 C306 1.402 . S
C307 C308 1.375 . S
C307 C310 1.481 . S
C308 C307 1.375 . S
C308 C309 1.367 . S
C308 H322 0.951 . S
C309 C305 1.383 . S
C309 C308 1.367 . S
C309 H323 0.950 . S
C310 C307 1.481 . S
C310 C311 1.297 . S
C310 H324 0.950 . S
C311 C310 1.297 . S
C311 C312 1.479 . S
C311 H325 0.950 . S
C312 C311 1.479 . S
C312 C313 1.375 . S
C312 C318 1.404 . S
C313 C312 1.375 . S
C313 C314 1.369 . S
C313 H326 0.950 . S
C314 C313 1.369 . S
C314 C315 1.392 . S
C314 H327 0.951 . S
C315 C314 1.392 . S
C315 C317 1.384 . S
H316 C318 0.949 . S
C317 C315 1.384 . S
C317 C318 1.385 . S
C317 H319 0.950 . S
C318 C312 1.404 . S
C318 H316 0.949 . S
C318 C317 1.385 . S
H319 C317 0.950 . S
H320 C304 0.951 . S
H321 C306 0.951 . S
H322 C308 0.951 . S
H323 C309 0.950 . S
H324 C310 0.950 . S
H325 C311 0.950 . S
H326 C313 0.950 . S
H327 C314 0.951 . S
C328 C329 1.386 . S
C328 C330 1.383 . S
C328 H344 0.951 . S
C329 C328 1.386 . S
C329 C333 1.383 . S
C330 C328 1.383 . S
C330 C331 1.402 . S
C330 H345 0.951 . S
C331 C330 1.402 . S
C331 C332 1.375 . S
C331 C334 1.481 . S
C332 C331 1.375 . S
C332 C333 1.367 . S
C332 H346 0.951 . S
C333 C329 1.383 . S
C333 C332 1.367 . S
C333 H347 0.950 . S
C334 C331 1.481 . S
C334 C335 1.297 . S
C334 H348 0.950 . S
C335 C334 1.297 . S
C335 C336 1.479 . S
C335 H349 0.950 . S
C336 C335 1.479 . S
C336 C337 1.375 . S
C336 C342 1.404 . S
C337 C336 1.375 . S
C337 C338 1.369 . S
C337 H350 0.950 . S
C338 C337 1.369 . S
C338 C339 1.392 . S
C338 H351 0.951 . S
C339 C338 1.392 . S
C339 C341 1.384 . S
H340 C342 0.949 . S
C341 C339 1.384 . S
C341 C342 1.385 . S
C341 H343 0.950 . S
C342 C336 1.404 . S
C342 H340 0.949 . S
C342 C341 1.385 . S
H343 C341 0.950 . S
H344 C328 0.951 . S
H345 C330 0.951 . S
H346 C332 0.951 . S
H347 C333 0.950 . S
H348 C334 0.950 . S
H349 C335 0.950 . S
H350 C337 0.950 . S
H351 C338 0.951 . S
C352 C353 1.386 . S
C352 C354 1.383 . S
C352 H368 0.951 . S
C353 C352 1.386 . S
C353 C357 1.383 . S
C354 C352 1.383 . S
C354 C355 1.402 . S
C354 H369 0.951 . S
C355 C354 1.402 . S
C355 C356 1.375 . S
C355 C358 1.481 . S
C356 C355 1.375 . S
C356 C357 1.367 . S
C356 H370 0.951 . S
C357 C353 1.383 . S
C357 C356 1.367 . S
C357 H371 0.950 . S
C358 C355 1.481 . S
C358 C359 1.297 . S
C358 H372 0.950 . S
C359 C358 1.297 . S
C359 C360 1.479 . S
C359 H373 0.950 . S
C360 C359 1.479 . S
C360 C361 1.375 . S
C360 C366 1.404 . S
C361 C360 1.375 . S
C361 C362 1.369 . S
C361 H374 0.950 . S
C362 C361 1.369 . S
C362 C363 1.392 . S
C362 H375 0.951 . S
C363 C362 1.392 . S
C363 C365 1.384 1_565 S
H364 C366 0.949 1_545 S
C365 C363 1.384 1_545 S
C365 C366 1.385 1_545 S
C365 H367 0.950 . S
C366 C360 1.404 . S
C366 H364 0.949 1_565 S
C366 C365 1.385 1_565 S
H367 C365 0.950 . S
H368 C352 0.951 . S
H369 C354 0.951 . S
H370 C356 0.951 . S
H371 C357 0.950 . S
H372 C358 0.950 . S
H373 C359 0.950 . S
H374 C361 0.950 . S
H375 C362 0.951 . S
C376 C377 1.386 . S
C376 C378 1.383 . S
C376 H392 0.951 . S
C377 C376 1.386 . S
C377 C381 1.383 . S
C378 C376 1.383 . S
C378 C379 1.402 . S
C378 H393 0.951 . S
C379 C378 1.402 . S
C379 C380 1.375 . S
C379 C382 1.481 . S
C380 C379 1.375 . S
C380 C381 1.367 . S
C380 H394 0.951 . S
C381 C377 1.383 . S
C381 C380 1.367 . S
C381 H395 0.950 1_455 S
C382 C379 1.481 . S
C382 C383 1.297 . S
C382 H396 0.950 . S
C383 C382 1.297 . S
C383 C384 1.479 . S
C383 H397 0.950 . S
C384 C383 1.479 . S
C384 C385 1.375 . S
C384 C390 1.404 . S
C385 C384 1.375 . S
C385 C386 1.369 . S
C385 H398 0.950 . S
C386 C385 1.369 . S
C386 C387 1.392 . S
C386 H399 0.951 . S
C387 C386 1.392 . S
C387 C389 1.384 . S
H388 C390 0.949 . S
C389 C387 1.384 . S
C389 C390 1.385 . S
C389 H391 0.950 . S
C390 C384 1.404 . S
C390 H388 0.949 . S
C390 C389 1.385 . S
H391 C389 0.950 . S
H392 C376 0.951 . S
H393 C378 0.951 . S
H394 C380 0.951 . S
H395 C381 0.950 1_655 S
H396 C382 0.950 . S
H397 C383 0.950 . S
H398 C385 0.950 . S
H399 C386 0.951 . S
C400 C401 1.386 . S
C400 C402 1.383 . S
C400 H416 0.951 . S
C401 C400 1.386 . S
C401 C405 1.383 . S
C402 C400 1.383 . S
C402 C403 1.402 . S
C402 H417 0.951 . S
C403 C402 1.402 . S
C403 C404 1.375 . S
C403 C406 1.481 . S
C404 C403 1.375 . S
C404 C405 1.367 . S
C404 H418 0.951 . S
C405 C401 1.383 . S
C405 C404 1.367 . S
C405 H419 0.950 . S
C406 C403 1.481 . S
C406 C407 1.297 . S
C406 H420 0.950 . S
C407 C406 1.297 . S
C407 C408 1.479 . S
C407 H421 0.950 . S
C408 C407 1.479 . S
C408 C409 1.375 . S
C408 C414 1.404 . S
C409 C408 1.375 . S
C409 C410 1.369 . S
C409 H422 0.950 . S
C410 C409 1.369 . S
C410 C411 1.392 . S
C410 H423 0.951 . S
C411 C410 1.392 . S
C411 C413 1.384 . S
H412 C414 0.949 . S
C413 C411 1.384 . S
C413 C414 1.385 . S
C413 H415 0.950 . S
C414 C408 1.404 . S
C414 H412 0.949 . S
C414 C413 1.385 . S
H415 C413 0.950 . S
H416 C400 0.951 . S
H417 C402 0.951 . S
H418 C404 0.951 . S
H419 C405 0.950 . S
H420 C406 0.950 . S
H421 C407 0.950 . S
H422 C409 0.950 . S
H423 C410 0.951 . S
C424 C425 1.386 . S
C424 C426 1.383 . S
C424 H440 0.951 . S
C425 C424 1.386 . S
C425 C429 1.383 . S
C426 C424 1.383 . S
C426 C427 1.402 . S
C426 H441 0.951 . S
C427 C426 1.402 . S
C427 C428 1.375 . S
C427 C430 1.481 . S
C428 C427 1.375 . S
C428 C429 1.367 . S
C428 H442 0.951 . S
C429 C425 1.383 . S
C429 C428 1.367 . S
C429 H443 0.950 . S
C430 C427 1.481 . S
C430 C431 1.297 . S
C430 H444 0.950 . S
C431 C430 1.297 . S
C431 C432 1.479 . S
C431 H445 0.950 . S
C432 C431 1.479 . S
C432 C433 1.375 . S
C432 C438 1.404 . S
C433 C432 1.375 . S
C433 C434 1.369 . S
C433 H446 0.950 . S
C434 C433 1.369 . S
C434 C435 1.392 . S
C434 H447 0.951 . S
C435 C434 1.392 . S
C435 C437 1.384 . S
H436 C438 0.949 . S
C437 C435 1.384 . S
C437 C438 1.385 . S
C437 H439 0.950 . S
C438 C432 1.404 . S
C438 H436 0.949 . S
C438 C437 1.385 . S
H439 C437 0.950 . S
H440 C424 0.951 . S
H441 C426 0.951 . S
H442 C428 0.951 . S
H443 C429 0.950 . S
H444 C430 0.950 . S
H445 C431 0.950 . S
H446 C433 0.950 . S
H447 C434 0.951 . S
C448 C449 1.386 . S
C448 C450 1.383 . S
C448 H464 0.951 . S
C449 C448 1.386 . S
C449 C453 1.383 . S
C450 C448 1.383 . S
C450 C451 1.402 . S
C450 H465 0.951 . S
C451 C450 1.402 . S
C451 C452 1.375 . S
C451 C454 1.481 . S
C452 C451 1.375 . S
C452 C453 1.367 . S
C452 H466 0.951 . S
C453 C449 1.383 . S
C453 C452 1.367 . S
C453 H467 0.950 . S
C454 C451 1.481 . S
C454 C455 1.297 . S
C454 H468 0.950 . S
C455 C454 1.297 . S
C455 C456 1.479 . S
C455 H469 0.950 . S
C456 C455 1.479 . S
C456 C457 1.375 . S
C456 C462 1.404 . S
C457 C456 1.375 . S
C457 C458 1.369 . S
C457 H470 0.950 . S
C458 C457 1.369 . S
C458 C459 1.392 . S
C458 H471 0.951 1_545 S
C459 C458 1.392 . S
C459 C461 1.384 . S
H460 C462 0.949 . S
C461 C459 1.384 . S
C461 C462 1.385 . S
C461 H463 0.950 . S
C462 C456 1.404 . S
C462 H460 0.949 . S
C462 C461 1.385 . S
H463 C461 0.950 . S
H464 C448 0.951 . S
H465 C450 0.951 . S
H466 C452 0.951 . S
H467 C453 0.950 . S
H468 C454 0.950 . S
H469 C455 0.950 . S
H470 C457 0.950 . S
H471 C458 0.951 1_565 S
C472 C473 1.386 1_455 S
C472 C474 1.383 1_455 S
C472 H488 0.951 . S
C473 C472 1.386 1_655 S
C473 C477 1.383 . S
C474 C472 1.383 1_655 S
C474 C475 1.402 . S
C474 H489 0.951 1_655 S
C475 C474 1.402 . S
C475 C476 1.375 . S
C475 C478 1.481 . S
C476 C475 1.375 . S
C476 C477 1.367 . S
C476 H490 0.951 . S
C477 C473 1.383 . S
C477 C476 1.367 . S
C477 H491 0.950 . S
C478 C475 1.481 . S
C478 C479 1.297 . S
C478 H492 0.950 . S
C479 C478 1.297 . S
C479 C480 1.479 . S
C479 H493 0.950 . S
C480 C479 1.479 . S
C480 C481 1.375 . S
C480 C486 1.404 . S
C481 C480 1.375 . S
C481 C482 1.369 . S
C481 H494 0.950 . S
C482 C481 1.369 . S
C482 C483 1.392 . S
C482 H495 0.951 . S
C483 C482 1.392 . S
C483 C485 1.384 . S
H484 C486 0.949 . S
C485 C483 1.384 . S
C485 C486 1.385 . S
C485 H487 0.950 . S
C486 C480 1.404 . S
C486 H484 0.949 . S
C486 C485 1.385 . S
H487 C485 0.950 . S
H488 C472 0.951 . S
H489 C474 0.951 1_455 S
H490 C476 0.951 . S
H491 C477 0.950 . S
H492 C478 0.950 . S
H493 C479 0.950 . S
H494 C481 0.950 . S
H495 C482 0.951 . S
C113 C63 1.561 . S
C123 C8 1.621 . S
C137 C22 1.613 . S
C147 C78 1.631 . S
C161 C36 1.619 . S
C171 C91 1.570 . S
C185 C106 1.625 . S
C195 C50 1.613 . S
C209 C7 1.495 . S
C219 C35 1.415 . S
C233 C21 1.415 . S
C243 C49 1.351 . S
C257 C92 1.348 . S
C267 C64 1.378 . S
C281 C77 1.339 . S
C291 C105 1.300 . S
C305 C79 0.941 . S
C315 C3 1.029 . S
C329 C17 0.849 . S
C339 C87 0.935 . S
C353 C31 0.977 . S
C363 C107 0.893 . S
C377 C59 0.910 . S
C387 C45 0.845 . S
C401 C65 0.915 . S
C411 C23 0.944 . S
C425 C73 0.922 . S
C435 C37 0.909 . S
C449 C93 0.861 . S
C459 C51 0.856 . S
C473 C9 0.958 . S
C483 C101 0.976 . S
