# Generated by pormake.
# Topology eta, (3)-cn, num edge types: 1
# Building blocks:
#     Node 0, Type 0, BuildingBlock: WUSLED_clean_sbu_0, # of connection points: 3
#     Node 1, Type 0, BuildingBlock: WUSLED_clean_sbu_0, # of connection points: 3
#     Node 2, Type 0, BuildingBlock: WUSLED_clean_sbu_0, # of connection points: 3
#     Node 3, Type 0, BuildingBlock: WUSLED_clean_sbu_0, # of connection points: 3
#     Node 4, Type 0, BuildingBlock: WUSLED_clean_sbu_0, # of connection points: 3
#     Node 5, Type 0, BuildingBlock: WUSLED_clean_sbu_0, # of connection points: 3
#     Edge 6, Type (0, 0), BuildingBlock: KIFKEQ_clean_linker_1, # of connection points: 2
#     Edge 7, Type (0, 0), BuildingBlock: KIFKEQ_clean_linker_1, # of connection points: 2
#     Edge 8, Type (0, 0), BuildingBlock: KIFKEQ_clean_linker_1, # of connection points: 2
#     Edge 9, Type (0, 0), BuildingBlock: KIFKEQ_clean_linker_1, # of connection points: 2
#     Edge 10, Type (0, 0), BuildingBlock: KIFKEQ_clean_linker_1, # of connection points: 2
#     Edge 11, Type (0, 0), BuildingBlock: KIFKEQ_clean_linker_1, # of connection points: 2
#     Edge 12, Type (0, 0), BuildingBlock: KIFKEQ_clean_linker_1, # of connection points: 2
#     Edge 13, Type (0, 0), BuildingBlock: KIFKEQ_clean_linker_1, # of connection points: 2
#     Edge 14, Type (0, 0), BuildingBlock: KIFKEQ_clean_linker_1, # of connection points: 2
# Relax obj value: 0.000
# Max RMSD: 0.005
# Mean RMSD: 0.004
data_MOF--net-eta--node1-WUSLED_clean_sbu_0--edge1-KIFKEQ_clean_linker_1
_symmetry_space_group_name_H-M    P1
_symmetry_Int_Tables_number       1
_symmetry_cell_setting            triclinic
loop_
_symmetry_equiv_pos_as_xyz
'x, y, z'
_cell_length_a     67.099589
_cell_length_b     67.880089
_cell_length_c     55.191028
_cell_angle_alpha  89.393436
_cell_angle_beta   90.214118
_cell_angle_gamma 120.93585
loop_
_atom_site_label
_atom_site_type_symbol
_atom_site_fract_x
_atom_site_fract_y
_atom_site_fract_z
_atom_type_partial_charge
C0 C 0.25759 0.61312 0.12764 0.0
C1 C 0.27308 0.63411 0.11611 0.0
C2 C 0.2864 0.61485 0.08925 0.0
C3 C 0.2873 0.63495 0.09713 0.0
C4 C 0.2712 0.59396 0.10117 0.0
C5 C 0.25691 0.59311 0.12005 0.0
U6 U 0.24395 0.62792 0.19026 0.0
O7 O 0.21711 0.63561 0.20091 0.0
O8 O 0.21703 0.60579 0.21676 0.0
C9 C 0.20606 0.61714 0.21467 0.0
C10 C 0.2413 0.61145 0.14675 0.0
C11 C 0.18081 0.60308 0.21085 0.0
C12 C 0.14735 0.57588 0.18723 0.0
C13 C 0.17148 0.58915 0.19039 0.0
C14 C 0.14175 0.59047 0.22487 0.0
C15 C 0.13218 0.57641 0.20444 0.0
C16 C 0.16581 0.60366 0.22801 0.0
C17 C 0.2942 0.66796 0.23215 0.0
C18 C 0.28971 0.67421 0.2746 0.0
C19 C 0.32695 0.69746 0.25471 0.0
C20 C 0.31752 0.68562 0.23316 0.0
C21 C 0.31324 0.69181 0.27579 0.0
C22 C 0.28027 0.66239 0.25295 0.0
C23 C 0.28495 0.65543 0.20934 0.0
O24 O 0.24074 0.60041 0.1667 0.0
O25 O 0.24037 0.63002 0.15085 0.0
O26 O 0.27418 0.66272 0.19526 0.0
O27 O 0.2742 0.63292 0.21103 0.0
H28 H 0.27402 0.64987 0.12145 0.0
H29 H 0.29854 0.65129 0.08821 0.0
H30 H 0.27028 0.5782 0.09589 0.0
H31 H 0.24512 0.57671 0.12859 0.0
H32 H 0.14059 0.56542 0.17119 0.0
H33 H 0.18285 0.58857 0.17689 0.0
H34 H 0.13063 0.59103 0.23867 0.0
H35 H 0.17273 0.61428 0.24394 0.0
H36 H 0.27869 0.66928 0.29049 0.0
H37 H 0.34498 0.71118 0.2548 0.0
H38 H 0.32849 0.69024 0.21723 0.0
H39 H 0.26218 0.64879 0.25249 0.0
C40 C 0.62603 0.23674 0.59086 0.0
C41 C 0.63439 0.25997 0.58556 0.0
C42 C 0.62795 0.26645 0.62749 0.0
C43 C 0.63534 0.27471 0.60371 0.0
C44 C 0.61993 0.24319 0.63268 0.0
C45 C 0.61897 0.22851 0.61454 0.0
U46 U 0.63942 0.22435 0.52735 0.0
O47 O 0.648 0.19875 0.51548 0.0
O48 O 0.61664 0.19744 0.50169 0.0
C49 C 0.62884 0.18729 0.50274 0.0
C50 C 0.62421 0.22078 0.57192 0.0
C51 C 0.61544 0.1623 0.50693 0.0
C52 C 0.59451 0.12908 0.53361 0.0
C53 C 0.60696 0.15294 0.53003 0.0
C54 C 0.59873 0.12376 0.491 0.0
C55 C 0.59033 0.11418 0.51413 0.0
C56 C 0.61116 0.14757 0.48746 0.0
C57 C 0.67678 0.27433 0.48385 0.0
C58 C 0.68679 0.26888 0.44317 0.0
C59 C 0.70031 0.30728 0.45769 0.0
C60 C 0.68917 0.29812 0.47986 0.0
C61 C 0.6993 0.29281 0.43904 0.0
C62 C 0.67563 0.25972 0.46539 0.0
C63 C 0.66522 0.26514 0.50733 0.0
O64 O 0.61211 0.21976 0.55269 0.0
O65 O 0.64358 0.22137 0.56659 0.0
O66 O 0.67374 0.25508 0.52072 0.0
O67 O 0.64239 0.25377 0.50691 0.0
H68 H 0.63995 0.26664 0.56734 0.0
H69 H 0.64138 0.29243 0.59898 0.0
H70 H 0.61449 0.23632 0.65084 0.0
H71 H 0.61259 0.21064 0.61898 0.0
H72 H 0.58851 0.12232 0.55169 0.0
H73 H 0.61011 0.16409 0.54528 0.0
H74 H 0.59552 0.11284 0.47552 0.0
H75 H 0.61747 0.1545 0.46948 0.0
H76 H 0.68583 0.25724 0.42933 0.0
H77 H 0.70942 0.32573 0.45506 0.0
H78 H 0.69016 0.30964 0.49389 0.0
H79 H 0.66615 0.24128 0.46821 0.0
C80 C 0.45954 0.65114 0.79272 0.0
C81 C 0.44029 0.65407 0.79205 0.0
C82 C 0.45549 0.67784 0.75559 0.0
C83 C 0.43824 0.66722 0.77358 0.0
C84 C 0.47491 0.67513 0.75661 0.0
C85 C 0.47687 0.66187 0.77498 0.0
U86 U 0.44486 0.62271 0.85539 0.0
O87 O 0.43661 0.58814 0.86672 0.0
O88 O 0.46696 0.61851 0.88196 0.0
C89 C 0.45526 0.596 0.88029 0.0
C90 C 0.4617 0.63685 0.81159 0.0
C91 C 0.46926 0.58525 0.87659 0.0
C92 C 0.49611 0.57938 0.85266 0.0
C93 C 0.48298 0.5899 0.85577 0.0
C94 C 0.48179 0.55944 0.89108 0.0
C95 C 0.49563 0.56397 0.87028 0.0
C96 C 0.46875 0.56998 0.89417 0.0
C97 C 0.4042 0.63181 0.89662 0.0
C98 C 0.39668 0.62058 0.93914 0.0
C99 C 0.37409 0.63417 0.91832 0.0
C100 C 0.38659 0.63708 0.89705 0.0
C101 C 0.37896 0.62589 0.93966 0.0
C102 C 0.40916 0.62346 0.91776 0.0
C103 C 0.41721 0.63537 0.87398 0.0
O104 O 0.4728 0.64768 0.83131 0.0
O105 O 0.44278 0.61697 0.81611 0.0
O106 O 0.40978 0.61721 0.86026 0.0
O107 O 0.43997 0.64761 0.87571 0.0
H108 H 0.4268 0.64608 0.80571 0.0
H109 H 0.42322 0.6692 0.77348 0.0
H110 H 0.48838 0.68287 0.74291 0.0
H111 H 0.49185 0.65982 0.77522 0.0
H112 H 0.50639 0.58309 0.83633 0.0
H113 H 0.4835 0.60161 0.84194 0.0
H114 H 0.48128 0.54798 0.90519 0.0
H115 H 0.45828 0.56623 0.91038 0.0
H116 H 0.40072 0.61396 0.95517 0.0
H117 H 0.36083 0.63875 0.91813 0.0
H118 H 0.38257 0.6436 0.88091 0.0
H119 H 0.42267 0.61921 0.91773 0.0
C120 C 0.83138 0.44048 0.12646 0.0
C121 C 0.80866 0.42143 0.12577 0.0
C122 C 0.80078 0.43639 0.0889 0.0
C123 C 0.79352 0.41935 0.10709 0.0
C124 C 0.82346 0.45561 0.08995 0.0
C125 C 0.8386 0.45758 0.10852 0.0
U126 U 0.84499 0.42785 0.19021 0.0
O127 O 0.87122 0.41959 0.20221 0.0
O128 O 0.87244 0.4505 0.21562 0.0
C129 C 0.88281 0.43854 0.21477 0.0
C130 C 0.84787 0.44271 0.14549 0.0
C131 C 0.90807 0.45189 0.21062 0.0
C132 C 0.94174 0.47832 0.18638 0.0
C133 C 0.91759 0.46541 0.18965 0.0
C134 C 0.94698 0.4641 0.22488 0.0
C135 C 0.95674 0.47784 0.204 0.0
C136 C 0.9229 0.45127 0.22812 0.0
C137 C 0.79472 0.39105 0.23434 0.0
C138 C 0.79387 0.36787 0.26874 0.0
C139 C 0.76635 0.38082 0.26658 0.0
C140 C 0.77608 0.39191 0.24453 0.0
C141 C 0.77496 0.36848 0.2789 0.0
C142 C 0.80369 0.37909 0.24671 0.0
C143 C 0.80409 0.4024 0.21067 0.0
O144 O 0.84891 0.45469 0.1645 0.0
O145 O 0.84787 0.42384 0.15115 0.0
O146 O 0.81402 0.39394 0.19724 0.0
O147 O 0.81545 0.42497 0.21067 0.0
H148 H 0.80267 0.4081 0.13957 0.0
H149 H 0.77609 0.40449 0.10697 0.0
H150 H 0.82968 0.4689 0.0761 0.0
H151 H 0.85607 0.47241 0.10876 0.0
H152 H 0.94865 0.48852 0.17 0.0
H153 H 0.90636 0.46603 0.17589 0.0
H154 H 0.95797 0.46358 0.23899 0.0
H155 H 0.91584 0.44098 0.24446 0.0
H156 H 0.80083 0.35838 0.27757 0.0
H157 H 0.75215 0.38209 0.27404 0.0
H158 H 0.76897 0.40113 0.23537 0.0
H159 H 0.81814 0.37823 0.23927 0.0
C160 C 0.41821 0.81796 0.46163 0.0
C161 C 0.40851 0.79419 0.46462 0.0
C162 C 0.39199 0.78771 0.42396 0.0
C163 C 0.39552 0.77918 0.44594 0.0
C164 C 0.4017 0.81157 0.42122 0.0
C165 C 0.41466 0.82652 0.43989 0.0
U166 U 0.44499 0.83096 0.52509 0.0
O167 O 0.47988 0.85786 0.53676 0.0
O168 O 0.44905 0.85709 0.55112 0.0
C169 C 0.47185 0.86839 0.54978 0.0
C170 C 0.43232 0.83408 0.48079 0.0
C171 C 0.48308 0.8933 0.54557 0.0
C172 C 0.48907 0.92597 0.52119 0.0
C173 C 0.47825 0.90217 0.52477 0.0
C174 C 0.50969 0.9322 0.5591 0.0
C175 C 0.50492 0.94129 0.53835 0.0
C176 C 0.49887 0.90844 0.56266 0.0
C177 C 0.43381 0.78126 0.56791 0.0
C178 C 0.45735 0.78297 0.6024 0.0
C179 C 0.41796 0.75086 0.59844 0.0
C180 C 0.41543 0.76043 0.57693 0.0
C181 C 0.43901 0.76191 0.61133 0.0
C182 C 0.45474 0.79262 0.58093 0.0
C183 C 0.43086 0.79045 0.54471 0.0
O184 O 0.42089 0.83386 0.50019 0.0
O185 O 0.45188 0.8349 0.48588 0.0
O186 O 0.44943 0.80136 0.53088 0.0
O187 O 0.41873 0.80066 0.54564 0.0
H188 H 0.41105 0.78728 0.48136 0.0
H189 H 0.38811 0.76091 0.44877 0.0
H190 H 0.39967 0.81879 0.40446 0.0
H191 H 0.42211 0.84483 0.43724 0.0
H192 H 0.48479 0.93234 0.50513 0.0
H193 H 0.46607 0.8907 0.51138 0.0
H194 H 0.52206 0.94343 0.57249 0.0
H195 H 0.50288 0.90188 0.57877 0.0
H196 H 0.47368 0.79204 0.61205 0.0
H197 H 0.4036 0.73451 0.60466 0.0
H198 H 0.39915 0.75139 0.56714 0.0
H199 H 0.46912 0.80883 0.57443 0.0
C200 C 0.62535 0.39947 0.79288 0.0
C201 C 0.63867 0.38915 0.79656 0.0
C202 C 0.62684 0.37079 0.75709 0.0
C203 C 0.63944 0.37495 0.7788 0.0
C204 C 0.61362 0.38131 0.75354 0.0
C205 C 0.6129 0.39549 0.77127 0.0
U206 U 0.64052 0.4274 0.85531 0.0
O207 O 0.65022 0.46242 0.86588 0.0
O208 O 0.61888 0.43272 0.88113 0.0
C209 C 0.63149 0.45521 0.87922 0.0
C210 C 0.6242 0.41433 0.81134 0.0
C211 C 0.61845 0.46697 0.8751 0.0
C212 C 0.5916 0.47342 0.8515 0.0
C213 C 0.60431 0.46242 0.85463 0.0
C214 C 0.60728 0.49374 0.8891 0.0
C215 C 0.59289 0.48919 0.86875 0.0
C216 C 0.61991 0.48273 0.89221 0.0
C217 C 0.67782 0.41535 0.89895 0.0
C218 C 0.69971 0.43855 0.93343 0.0
C219 C 0.69165 0.39958 0.92998 0.0
C220 C 0.67978 0.39713 0.9083 0.0
C221 C 0.70193 0.42037 0.94272 0.0
C222 C 0.68767 0.43603 0.91179 0.0
C223 C 0.6658 0.41246 0.87567 0.0
O224 O 0.61241 0.40377 0.83102 0.0
O225 O 0.64389 0.43337 0.81589 0.0
O226 O 0.67448 0.43065 0.86138 0.0
O227 O 0.64299 0.40111 0.87667 0.0
H228 H 0.64837 0.392 0.81321 0.0
H229 H 0.64958 0.36694 0.78225 0.0
H230 H 0.60399 0.37877 0.73692 0.0
H231 H 0.60259 0.40339 0.7681 0.0
H232 H 0.58089 0.46968 0.8355 0.0
H233 H 0.60303 0.45031 0.84119 0.0
H234 H 0.60842 0.50547 0.90293 0.0
H235 H 0.63067 0.48638 0.90817 0.0
H236 H 0.70719 0.45469 0.94295 0.0
H237 H 0.69325 0.38533 0.93647 0.0
H238 H 0.6723 0.38104 0.89866 0.0
H239 H 0.68621 0.45027 0.90502 0.0
H240 H 0.39537 0.63644 0.98625 0.0
H241 H 0.33228 0.60881 0.94431 0.0
H242 H 0.37349 0.63266 1.02303 0.0
H243 H 0.31063 0.6059 0.98078 0.0
H244 H 0.27378 0.58334 0.05298 0.0
H245 H 0.29655 0.58476 1.0181 0.0
H246 H 0.3537 0.64991 0.04204 0.0
H247 H 0.33131 0.64796 0.07764 0.0
C248 C 0.37682 0.62945 0.98488 0.0
C249 C 0.36561 0.62299 0.96228 0.0
C250 C 0.36432 0.62753 1.00593 0.0
C251 C 0.34028 0.61903 1.00491 0.0
C252 C 0.32905 0.61229 0.98234 0.0
C253 C 0.34154 0.61422 0.96134 0.0
C254 C 0.29134 0.5978 0.05108 0.0
C255 C 0.30066 0.61553 0.06821 0.0
C256 C 0.30431 0.59876 0.03085 0.0
C257 C 0.32694 0.61752 0.02712 0.0
C258 C 0.33642 0.6351 0.04442 0.0
C259 C 0.32345 0.63412 0.0647 0.0
H260 H 0.68341 0.27662 0.39336 0.0
H261 H 0.74184 0.3315 0.43104 0.0
H262 H 0.70216 0.29352 0.35467 0.0
H263 H 0.76007 0.34897 0.3924 0.0
H264 H 0.79657 0.36449 0.31949 0.0
H265 H 0.77876 0.34479 0.35754 0.0
H266 H 0.71111 0.32598 0.32946 0.0
H267 H 0.72874 0.34461 0.29107 0.0
C268 C 0.70031 0.29222 0.39342 0.0
C269 C 0.71105 0.30272 0.41537 0.0
C270 C 0.71095 0.30209 0.3712 0.0
C271 C 0.7326 0.32272 0.37034 0.0
C272 C 0.74351 0.33298 0.39231 0.0
C273 C 0.73289 0.32311 0.41451 0.0
C274 C 0.77786 0.35587 0.32129 0.0
C275 C 0.76414 0.35625 0.30215 0.0
C276 C 0.76765 0.3448 0.34325 0.0
C277 C 0.74347 0.33383 0.34667 0.0
C278 C 0.72975 0.334 0.32744 0.0
C279 C 0.73993 0.345 0.30549 0.0
H280 H 0.48895 0.71919 0.73647 0.0
H281 H 0.41657 0.66689 0.72924 0.0
H282 H 0.48524 0.74065 0.70279 0.0
H283 H 0.41288 0.6881 0.69535 0.0
H284 H 0.40819 0.74107 0.64875 0.0
H285 H 0.4123 0.72196 0.68444 0.0
H286 H 0.48041 0.73885 0.65977 0.0
H287 H 0.47638 0.75824 0.62433 0.0
C288 C 0.47227 0.71222 0.7276 0.0
C289 C 0.45307 0.69131 0.73553 0.0
C290 C 0.47014 0.7245 0.70824 0.0
C291 C 0.44877 0.71612 0.69624 0.0
C292 C 0.42951 0.6953 0.70437 0.0
C293 C 0.43162 0.6831 0.7238 0.0
C294 C 0.42403 0.74067 0.65096 0.0
C295 C 0.44194 0.75114 0.63366 0.0
C296 C 0.42638 0.72967 0.6714 0.0
C297 C 0.44665 0.72873 0.67501 0.0
C298 C 0.46469 0.7395 0.65784 0.0
C299 C 0.46239 0.75062 0.63747 0.0
H300 H 0.7723 0.39789 0.06274 0.0
H301 H 0.79366 0.46944 0.06906 0.0
H302 H 0.74779 0.39427 0.02837 0.0
H303 H 0.76887 0.4658 0.0349 0.0
H304 H 0.74382 0.45723 0.956 0.0
H305 H 0.76675 0.4611 0.99191 0.0
H306 H 0.7132 0.39375 1.01657 0.0
H307 H 0.69046 0.3898 0.98041 0.0
C308 C 0.7715 0.41278 0.057 0.0
C309 C 0.785 0.43397 0.06862 0.0
C310 C 0.7574 0.41071 0.03729 0.0
C311 C 0.75633 0.42976 0.02875 0.0
C312 C 0.76956 0.45087 0.04065 0.0
C313 C 0.78375 0.45296 0.06029 0.0
C314 C 0.73683 0.44336 0.96922 0.0
C315 C 0.71534 0.42317 0.96529 0.0
C316 C 0.74997 0.44558 0.98987 0.0
C317 C 0.7419 0.42771 1.00719 0.0
C318 C 0.72019 0.40769 1.00343 0.0
C319 C 0.70711 0.40543 0.98272 0.0
H320 H 0.39322 0.75006 0.40852 0.0
H321 H 0.36067 0.78965 0.39348 0.0
H322 H 0.37273 0.72529 0.37436 0.0
H323 H 0.34097 0.76552 0.35871 0.0
H324 H 0.29361 0.70633 0.30948 0.0
H325 H 0.31107 0.72755 0.3466 0.0
H326 H 0.37408 0.72755 0.3308 0.0
H327 H 0.35631 0.70551 0.29436 0.0
C328 C 0.38157 0.7534 0.39805 0.0
C329 C 0.3787 0.77194 0.40373 0.0
C330 C 0.37003 0.73935 0.37825 0.0
C331 C 0.35529 0.74347 0.36363 0.0
C332 C 0.35201 0.7617 0.36965 0.0
C333 C 0.36356 0.77573 0.38944 0.0
C334 C 0.31107 0.71057 0.3141 0.0
C335 C 0.32357 0.70427 0.29882 0.0
C336 C 0.32118 0.72297 0.33527 0.0
C337 C 0.34404 0.72937 0.3417 0.0
C338 C 0.35637 0.72274 0.3266 0.0
C339 C 0.34627 0.71035 0.30548 0.0
H340 H 0.66413 0.36801 0.74149 0.0
H341 H 0.59053 0.33875 0.72999 0.0
H342 H 0.66465 0.34272 0.71068 0.0
H343 H 0.59122 0.31416 0.69862 0.0
H344 H 0.59516 0.25633 0.66252 0.0
H345 H 0.59546 0.28121 0.69412 0.0
H346 H 0.66102 0.33673 0.6671 0.0
H347 H 0.66119 0.31149 0.63602 0.0
C348 C 0.64805 0.35616 0.73244 0.0
C349 C 0.62729 0.35543 0.73825 0.0
C350 C 0.64841 0.34185 0.71456 0.0
C351 C 0.62798 0.32639 0.70213 0.0
C352 C 0.60723 0.32565 0.708 0.0
C353 C 0.60688 0.33997 0.72581 0.0
C354 C 0.60979 0.27376 0.66346 0.0
C355 C 0.62818 0.28185 0.64671 0.0
C356 C 0.60982 0.28813 0.68143 0.0
C357 C 0.62822 0.31103 0.68315 0.0
C358 C 0.64667 0.31913 0.66647 0.0
C359 C 0.64663 0.30473 0.64845 0.0
H360 H 0.10623 0.53198 0.18861 0.0
H361 H 0.09986 0.58862 0.21351 0.0
H362 H 0.06402 0.50823 0.18556 0.0
H363 H 0.05772 0.56466 0.21137 0.0
H364 H 0.98296 0.52202 0.18667 0.0
H365 H 1.0252 0.54566 0.18387 0.0
H366 H 1.03104 0.48944 0.21276 0.0
H367 H 0.98886 0.46557 0.21467 0.0
C368 C 0.09585 0.53943 0.19326 0.0
C369 C 0.10648 0.56219 0.20143 0.0
C370 C 0.07162 0.52573 0.19177 0.0
C371 C 0.05741 0.53446 0.19834 0.0
C372 C 0.06808 0.5574 0.20594 0.0
C373 C 0.09228 0.57107 0.20747 0.0
C374 C 0.99324 0.51458 0.19204 0.0
C375 C 0.98248 0.49191 0.20102 0.0
C376 C 1.01749 0.52822 0.19069 0.0
C377 C 1.03158 0.51953 0.19823 0.0
C378 C 1.02078 0.49667 0.20661 0.0
C379 C 0.99656 0.48305 0.20798 0.0
H380 H 0.55172 0.08775 0.54233 0.0
H381 H 0.59979 0.083 0.49439 0.0
H382 H 0.53053 0.04613 0.54798 0.0
H383 H 0.57865 0.04147 0.50002 0.0
H384 H 0.52235 0.96589 0.49607 0.0
H385 H 0.54202 1.00738 0.49016 0.0
H386 H 0.53448 1.01573 0.56643 0.0
H387 H 0.51398 0.97419 0.57217 0.0
C388 C 0.55789 0.07787 0.53315 0.0
C389 C 0.57745 0.08877 0.51785 0.0
C390 C 0.54573 0.05398 0.53637 0.0
C391 C 0.55281 0.04039 0.52439 0.0
C392 C 0.57242 0.05132 0.50918 0.0
C393 C 0.58457 0.07517 0.50596 0.0
C394 C 0.52461 0.97654 0.51153 0.0
C395 C 0.51659 0.96664 0.53461 0.0
C396 C 0.53615 1.00038 0.50819 0.0
C397 C 0.53996 1.01496 0.52784 0.0
C398 C 0.53169 1.00504 0.55085 0.0
C399 C 0.52017 0.98121 0.5542 0.0
H400 H 0.5402 0.58313 0.85301 0.0
H401 H 0.48279 0.51943 0.88074 0.0
H402 H 0.56357 0.56515 0.84977 0.0
H403 H 0.5064 0.50174 0.8784 0.0
H404 H 0.54786 0.47016 0.85313 0.0
H405 H 0.52451 0.48824 0.85068 0.0
H406 H 0.58275 0.5517 0.87664 0.0
H407 H 0.60634 0.53391 0.87816 0.0
C408 C 0.5325 0.56525 0.85826 0.0
C409 C 0.50963 0.55278 0.86726 0.0
C410 C 0.54599 0.555 0.85665 0.0
C411 C 0.53694 0.53201 0.86393 0.0
C412 C 0.5139 0.51941 0.87241 0.0
C413 C 0.50043 0.52965 0.87404 0.0
C414 C 0.55581 0.48808 0.85793 0.0
C415 C 0.57897 0.50053 0.86596 0.0
C416 C 0.54233 0.49839 0.85679 0.0
C417 C 0.55167 0.52141 0.86361 0.0
C418 C 0.57501 0.53401 0.87105 0.0
C419 C 0.58847 0.52371 0.87221 0.0
loop_
_geom_bond_atom_site_label_1
_geom_bond_atom_site_label_2
_geom_bond_distance
_geom_bond_site_symmetry_2
_ccdc_geom_bond_type
C0 C1 1.264 . S
C0 C5 1.479 . S
C0 C10 1.465 . S
C1 C0 1.264 . S
C1 C3 1.339 . S
C1 H28 0.931 . S
C2 C3 1.395 . S
C2 C4 1.320 . S
C3 C1 1.339 . S
C3 C2 1.395 . S
C3 H29 0.929 . S
C4 C2 1.320 . S
C4 C5 1.405 . S
C4 H30 0.930 . S
C5 C0 1.479 . S
C5 C4 1.405 . S
C5 H31 0.931 . S
U6 O7 2.454 . S
U6 O8 2.458 . S
U6 C9 2.984 . S
U6 C10 2.847 . S
U6 C23 2.882 . S
U6 O24 2.441 . S
U6 O25 2.420 . S
U6 O26 2.455 . S
U6 O27 2.449 . S
O7 U6 2.454 . S
O7 C9 1.353 . S
O8 U6 2.458 . S
O8 C9 1.286 . S
C9 U6 2.984 . S
C9 O7 1.353 . S
C9 O8 1.286 . S
C9 C11 1.363 . S
C10 C0 1.465 . S
C10 U6 2.847 . S
C10 O24 1.249 . S
C10 O25 1.202 . S
C11 C9 1.363 . S
C11 C13 1.408 . S
C11 C16 1.342 . S
C12 C13 1.310 . S
C12 C15 1.461 . S
C12 H32 0.932 . S
C13 C11 1.408 . S
C13 C12 1.310 . S
C13 H33 0.930 . S
C14 C15 1.474 . S
C14 C16 1.285 . S
C14 H34 0.929 . S
C15 C12 1.461 . S
C15 C14 1.474 . S
C16 C11 1.342 . S
C16 C14 1.285 . S
C16 H35 0.930 . S
C17 C20 1.424 . S
C17 C22 1.245 . S
C17 C23 1.428 . S
C18 C21 1.260 . S
C18 C22 1.477 . S
C18 H36 0.932 . S
C19 C20 1.384 . S
C19 C21 1.479 . S
C19 H37 0.929 . S
C20 C17 1.424 . S
C20 C19 1.384 . S
C20 H38 0.928 . S
C21 C18 1.260 . S
C21 C19 1.479 . S
C22 C17 1.245 . S
C22 C18 1.477 . S
C22 H39 0.932 . S
C23 U6 2.882 . S
C23 C17 1.428 . S
C23 O26 1.301 . S
C23 O27 1.282 . S
O24 U6 2.441 . S
O24 C10 1.249 . S
O25 U6 2.420 . S
O25 C10 1.202 . S
O26 U6 2.455 . S
O26 C23 1.301 . S
O27 U6 2.449 . S
O27 C23 1.282 . S
H28 C1 0.931 . S
H29 C3 0.929 . S
H30 C4 0.930 . S
H31 C5 0.931 . S
H32 C12 0.932 . S
H33 C13 0.930 . S
H34 C14 0.929 . S
H35 C16 0.930 . S
H36 C18 0.932 . S
H37 C19 0.929 . S
H38 C20 0.928 . S
H39 C22 0.932 . S
C40 C41 1.264 . S
C40 C45 1.479 . S
C40 C50 1.465 . S
C41 C40 1.264 . S
C41 C43 1.339 . S
C41 H68 0.931 . S
C42 C43 1.395 . S
C42 C44 1.320 . S
C43 C41 1.339 . S
C43 C42 1.395 . S
C43 H69 0.929 . S
C44 C42 1.320 . S
C44 C45 1.405 . S
C44 H70 0.930 . S
C45 C40 1.479 . S
C45 C44 1.405 . S
C45 H71 0.931 . S
U46 O47 2.454 . S
U46 O48 2.458 . S
U46 C49 2.984 . S
U46 C50 2.847 . S
U46 C63 2.882 . S
U46 O64 2.441 . S
U46 O65 2.420 . S
U46 O66 2.455 . S
U46 O67 2.449 . S
O47 U46 2.454 . S
O47 C49 1.353 . S
O48 U46 2.458 . S
O48 C49 1.286 . S
C49 U46 2.984 . S
C49 O47 1.353 . S
C49 O48 1.286 . S
C49 C51 1.363 . S
C50 C40 1.465 . S
C50 U46 2.847 . S
C50 O64 1.249 . S
C50 O65 1.202 . S
C51 C49 1.363 . S
C51 C53 1.408 . S
C51 C56 1.342 . S
C52 C53 1.310 . S
C52 C55 1.461 . S
C52 H72 0.932 . S
C53 C51 1.408 . S
C53 C52 1.310 . S
C53 H73 0.930 . S
C54 C55 1.474 . S
C54 C56 1.285 . S
C54 H74 0.929 . S
C55 C52 1.461 . S
C55 C54 1.474 . S
C56 C51 1.342 . S
C56 C54 1.285 . S
C56 H75 0.930 . S
C57 C60 1.424 . S
C57 C62 1.245 . S
C57 C63 1.428 . S
C58 C61 1.260 . S
C58 C62 1.477 . S
C58 H76 0.932 . S
C59 C60 1.384 . S
C59 C61 1.479 . S
C59 H77 0.929 . S
C60 C57 1.424 . S
C60 C59 1.384 . S
C60 H78 0.928 . S
C61 C58 1.260 . S
C61 C59 1.479 . S
C62 C57 1.245 . S
C62 C58 1.477 . S
C62 H79 0.932 . S
C63 U46 2.882 . S
C63 C57 1.428 . S
C63 O66 1.301 . S
C63 O67 1.282 . S
O64 U46 2.441 . S
O64 C50 1.249 . S
O65 U46 2.420 . S
O65 C50 1.202 . S
O66 U46 2.455 . S
O66 C63 1.301 . S
O67 U46 2.449 . S
O67 C63 1.282 . S
H68 C41 0.931 . S
H69 C43 0.929 . S
H70 C44 0.930 . S
H71 C45 0.931 . S
H72 C52 0.932 . S
H73 C53 0.930 . S
H74 C54 0.929 . S
H75 C56 0.930 . S
H76 C58 0.932 . S
H77 C59 0.929 . S
H78 C60 0.928 . S
H79 C62 0.932 . S
C80 C81 1.264 . S
C80 C85 1.479 . S
C80 C90 1.465 . S
C81 C80 1.264 . S
C81 C83 1.339 . S
C81 H108 0.931 . S
C82 C83 1.395 . S
C82 C84 1.320 . S
C83 C81 1.339 . S
C83 C82 1.395 . S
C83 H109 0.929 . S
C84 C82 1.320 . S
C84 C85 1.405 . S
C84 H110 0.930 . S
C85 C80 1.479 . S
C85 C84 1.405 . S
C85 H111 0.931 . S
U86 O87 2.454 . S
U86 O88 2.458 . S
U86 C89 2.984 . S
U86 C90 2.847 . S
U86 C103 2.882 . S
U86 O104 2.441 . S
U86 O105 2.420 . S
U86 O106 2.455 . S
U86 O107 2.449 . S
O87 U86 2.454 . S
O87 C89 1.353 . S
O88 U86 2.458 . S
O88 C89 1.286 . S
C89 U86 2.984 . S
C89 O87 1.353 . S
C89 O88 1.286 . S
C89 C91 1.363 . S
C90 C80 1.465 . S
C90 U86 2.847 . S
C90 O104 1.249 . S
C90 O105 1.202 . S
C91 C89 1.363 . S
C91 C93 1.408 . S
C91 C96 1.342 . S
C92 C93 1.310 . S
C92 C95 1.461 . S
C92 H112 0.932 . S
C93 C91 1.408 . S
C93 C92 1.310 . S
C93 H113 0.930 . S
C94 C95 1.474 . S
C94 C96 1.285 . S
C94 H114 0.929 . S
C95 C92 1.461 . S
C95 C94 1.474 . S
C96 C91 1.342 . S
C96 C94 1.285 . S
C96 H115 0.930 . S
C97 C100 1.424 . S
C97 C102 1.245 . S
C97 C103 1.428 . S
C98 C101 1.260 . S
C98 C102 1.477 . S
C98 H116 0.932 . S
C99 C100 1.384 . S
C99 C101 1.479 . S
C99 H117 0.929 . S
C100 C97 1.424 . S
C100 C99 1.384 . S
C100 H118 0.928 . S
C101 C98 1.260 . S
C101 C99 1.479 . S
C102 C97 1.245 . S
C102 C98 1.477 . S
C102 H119 0.932 . S
C103 U86 2.882 . S
C103 C97 1.428 . S
C103 O106 1.301 . S
C103 O107 1.282 . S
O104 U86 2.441 . S
O104 C90 1.249 . S
O105 U86 2.420 . S
O105 C90 1.202 . S
O106 U86 2.455 . S
O106 C103 1.301 . S
O107 U86 2.449 . S
O107 C103 1.282 . S
H108 C81 0.931 . S
H109 C83 0.929 . S
H110 C84 0.930 . S
H111 C85 0.931 . S
H112 C92 0.932 . S
H113 C93 0.930 . S
H114 C94 0.929 . S
H115 C96 0.930 . S
H116 C98 0.932 . S
H117 C99 0.929 . S
H118 C100 0.928 . S
H119 C102 0.932 . S
C120 C121 1.264 . S
C120 C125 1.479 . S
C120 C130 1.465 . S
C121 C120 1.264 . S
C121 C123 1.339 . S
C121 H148 0.931 . S
C122 C123 1.395 . S
C122 C124 1.320 . S
C123 C121 1.339 . S
C123 C122 1.395 . S
C123 H149 0.929 . S
C124 C122 1.320 . S
C124 C125 1.405 . S
C124 H150 0.930 . S
C125 C120 1.479 . S
C125 C124 1.405 . S
C125 H151 0.931 . S
U126 O127 2.454 . S
U126 O128 2.458 . S
U126 C129 2.984 . S
U126 C130 2.847 . S
U126 C143 2.882 . S
U126 O144 2.441 . S
U126 O145 2.420 . S
U126 O146 2.455 . S
U126 O147 2.449 . S
O127 U126 2.454 . S
O127 C129 1.353 . S
O128 U126 2.458 . S
O128 C129 1.286 . S
C129 U126 2.984 . S
C129 O127 1.353 . S
C129 O128 1.286 . S
C129 C131 1.363 . S
C130 C120 1.465 . S
C130 U126 2.847 . S
C130 O144 1.249 . S
C130 O145 1.202 . S
C131 C129 1.363 . S
C131 C133 1.408 . S
C131 C136 1.342 . S
C132 C133 1.310 . S
C132 C135 1.461 . S
C132 H152 0.932 . S
C133 C131 1.408 . S
C133 C132 1.310 . S
C133 H153 0.930 . S
C134 C135 1.474 . S
C134 C136 1.285 . S
C134 H154 0.929 . S
C135 C132 1.461 . S
C135 C134 1.474 . S
C136 C131 1.342 . S
C136 C134 1.285 . S
C136 H155 0.930 . S
C137 C140 1.424 . S
C137 C142 1.245 . S
C137 C143 1.428 . S
C138 C141 1.260 . S
C138 C142 1.477 . S
C138 H156 0.932 . S
C139 C140 1.384 . S
C139 C141 1.479 . S
C139 H157 0.929 . S
C140 C137 1.424 . S
C140 C139 1.384 . S
C140 H158 0.928 . S
C141 C138 1.260 . S
C141 C139 1.479 . S
C142 C137 1.245 . S
C142 C138 1.477 . S
C142 H159 0.932 . S
C143 U126 2.882 . S
C143 C137 1.428 . S
C143 O146 1.301 . S
C143 O147 1.282 . S
O144 U126 2.441 . S
O144 C130 1.249 . S
O145 U126 2.420 . S
O145 C130 1.202 . S
O146 U126 2.455 . S
O146 C143 1.301 . S
O147 U126 2.449 . S
O147 C143 1.282 . S
H148 C121 0.931 . S
H149 C123 0.929 . S
H150 C124 0.930 . S
H151 C125 0.931 . S
H152 C132 0.932 . S
H153 C133 0.930 . S
H154 C134 0.929 . S
H155 C136 0.930 . S
H156 C138 0.932 . S
H157 C139 0.929 . S
H158 C140 0.928 . S
H159 C142 0.932 . S
C160 C161 1.264 . S
C160 C165 1.479 . S
C160 C170 1.465 . S
C161 C160 1.264 . S
C161 C163 1.339 . S
C161 H188 0.931 . S
C162 C163 1.395 . S
C162 C164 1.320 . S
C163 C161 1.339 . S
C163 C162 1.395 . S
C163 H189 0.929 . S
C164 C162 1.320 . S
C164 C165 1.405 . S
C164 H190 0.930 . S
C165 C160 1.479 . S
C165 C164 1.405 . S
C165 H191 0.931 . S
U166 O167 2.454 . S
U166 O168 2.458 . S
U166 C169 2.984 . S
U166 C170 2.847 . S
U166 C183 2.882 . S
U166 O184 2.441 . S
U166 O185 2.420 . S
U166 O186 2.455 . S
U166 O187 2.449 . S
O167 U166 2.454 . S
O167 C169 1.353 . S
O168 U166 2.458 . S
O168 C169 1.286 . S
C169 U166 2.984 . S
C169 O167 1.353 . S
C169 O168 1.286 . S
C169 C171 1.363 . S
C170 C160 1.465 . S
C170 U166 2.847 . S
C170 O184 1.249 . S
C170 O185 1.202 . S
C171 C169 1.363 . S
C171 C173 1.408 . S
C171 C176 1.342 . S
C172 C173 1.310 . S
C172 C175 1.461 . S
C172 H192 0.932 . S
C173 C171 1.408 . S
C173 C172 1.310 . S
C173 H193 0.930 . S
C174 C175 1.474 . S
C174 C176 1.285 . S
C174 H194 0.929 . S
C175 C172 1.461 . S
C175 C174 1.474 . S
C176 C171 1.342 . S
C176 C174 1.285 . S
C176 H195 0.930 . S
C177 C180 1.424 . S
C177 C182 1.245 . S
C177 C183 1.428 . S
C178 C181 1.260 . S
C178 C182 1.477 . S
C178 H196 0.932 . S
C179 C180 1.384 . S
C179 C181 1.479 . S
C179 H197 0.929 . S
C180 C177 1.424 . S
C180 C179 1.384 . S
C180 H198 0.928 . S
C181 C178 1.260 . S
C181 C179 1.479 . S
C182 C177 1.245 . S
C182 C178 1.477 . S
C182 H199 0.932 . S
C183 U166 2.882 . S
C183 C177 1.428 . S
C183 O186 1.301 . S
C183 O187 1.282 . S
O184 U166 2.441 . S
O184 C170 1.249 . S
O185 U166 2.420 . S
O185 C170 1.202 . S
O186 U166 2.455 . S
O186 C183 1.301 . S
O187 U166 2.449 . S
O187 C183 1.282 . S
H188 C161 0.931 . S
H189 C163 0.929 . S
H190 C164 0.930 . S
H191 C165 0.931 . S
H192 C172 0.932 . S
H193 C173 0.930 . S
H194 C174 0.929 . S
H195 C176 0.930 . S
H196 C178 0.932 . S
H197 C179 0.929 . S
H198 C180 0.928 . S
H199 C182 0.932 . S
C200 C201 1.264 . S
C200 C205 1.479 . S
C200 C210 1.465 . S
C201 C200 1.264 . S
C201 C203 1.339 . S
C201 H228 0.931 . S
C202 C203 1.395 . S
C202 C204 1.320 . S
C203 C201 1.339 . S
C203 C202 1.395 . S
C203 H229 0.929 . S
C204 C202 1.320 . S
C204 C205 1.405 . S
C204 H230 0.930 . S
C205 C200 1.479 . S
C205 C204 1.405 . S
C205 H231 0.931 . S
U206 O207 2.454 . S
U206 O208 2.458 . S
U206 C209 2.984 . S
U206 C210 2.847 . S
U206 C223 2.882 . S
U206 O224 2.441 . S
U206 O225 2.420 . S
U206 O226 2.455 . S
U206 O227 2.449 . S
O207 U206 2.454 . S
O207 C209 1.353 . S
O208 U206 2.458 . S
O208 C209 1.286 . S
C209 U206 2.984 . S
C209 O207 1.353 . S
C209 O208 1.286 . S
C209 C211 1.363 . S
C210 C200 1.465 . S
C210 U206 2.847 . S
C210 O224 1.249 . S
C210 O225 1.202 . S
C211 C209 1.363 . S
C211 C213 1.408 . S
C211 C216 1.342 . S
C212 C213 1.310 . S
C212 C215 1.461 . S
C212 H232 0.932 . S
C213 C211 1.408 . S
C213 C212 1.310 . S
C213 H233 0.930 . S
C214 C215 1.474 . S
C214 C216 1.285 . S
C214 H234 0.929 . S
C215 C212 1.461 . S
C215 C214 1.474 . S
C216 C211 1.342 . S
C216 C214 1.285 . S
C216 H235 0.930 . S
C217 C220 1.424 . S
C217 C222 1.245 . S
C217 C223 1.428 . S
C218 C221 1.260 . S
C218 C222 1.477 . S
C218 H236 0.932 . S
C219 C220 1.384 . S
C219 C221 1.479 . S
C219 H237 0.929 . S
C220 C217 1.424 . S
C220 C219 1.384 . S
C220 H238 0.928 . S
C221 C218 1.260 . S
C221 C219 1.479 . S
C222 C217 1.245 . S
C222 C218 1.477 . S
C222 H239 0.932 . S
C223 U206 2.882 . S
C223 C217 1.428 . S
C223 O226 1.301 . S
C223 O227 1.282 . S
O224 U206 2.441 . S
O224 C210 1.249 . S
O225 U206 2.420 . S
O225 C210 1.202 . S
O226 U206 2.455 . S
O226 C223 1.301 . S
O227 U206 2.449 . S
O227 C223 1.282 . S
H228 C201 0.931 . S
H229 C203 0.929 . S
H230 C204 0.930 . S
H231 C205 0.931 . S
H232 C212 0.932 . S
H233 C213 0.930 . S
H234 C214 0.929 . S
H235 C216 0.930 . S
H236 C218 0.932 . S
H237 C219 0.929 . S
H238 C220 0.928 . S
H239 C222 0.932 . S
H240 C248 0.950 . S
H241 C253 0.950 . S
H242 C250 0.950 1_554 S
H243 C252 0.950 . S
H244 C254 0.950 . S
H245 C256 0.950 1_556 S
H246 C258 0.950 . S
H247 C259 0.950 . S
C248 H240 0.950 . S
C248 C249 1.386 . S
C248 C250 1.391 . S
C249 C248 1.386 . S
C249 C253 1.393 . S
C250 H242 0.950 1_556 S
C250 C248 1.391 . S
C250 C251 1.400 . S
C251 C250 1.400 . S
C251 C252 1.398 . S
C251 C257 1.491 1_556 S
C252 H243 0.950 . S
C252 C251 1.398 . S
C252 C253 1.391 . S
C253 H241 0.950 . S
C253 C249 1.393 . S
C253 C252 1.391 . S
C254 H244 0.950 . S
C254 C255 1.386 . S
C254 C256 1.391 . S
C255 C254 1.386 . S
C255 C259 1.393 . S
C256 H245 0.950 1_554 S
C256 C254 1.391 . S
C256 C257 1.400 . S
C257 C251 1.491 1_554 S
C257 C256 1.400 . S
C257 C258 1.398 . S
C258 H246 0.950 . S
C258 C257 1.398 . S
C258 C259 1.391 . S
C259 H247 0.950 . S
C259 C255 1.393 . S
C259 C258 1.391 . S
H260 C268 0.950 . S
H261 C273 0.950 . S
H262 C270 0.950 . S
H263 C272 0.950 . S
H264 C274 0.950 . S
H265 C276 0.950 . S
H266 C278 0.950 . S
H267 C279 0.950 . S
C268 H260 0.950 . S
C268 C269 1.386 . S
C268 C270 1.391 . S
C269 C268 1.386 . S
C269 C273 1.393 . S
C270 H262 0.950 . S
C270 C268 1.391 . S
C270 C271 1.400 . S
C271 C270 1.400 . S
C271 C272 1.398 . S
C271 C277 1.491 . S
C272 H263 0.950 . S
C272 C271 1.398 . S
C272 C273 1.391 . S
C273 H261 0.950 . S
C273 C269 1.393 . S
C273 C272 1.391 . S
C274 H264 0.950 . S
C274 C275 1.386 . S
C274 C276 1.391 . S
C275 C274 1.386 . S
C275 C279 1.393 . S
C276 H265 0.950 . S
C276 C274 1.391 . S
C276 C277 1.400 . S
C277 C271 1.491 . S
C277 C276 1.400 . S
C277 C278 1.398 . S
C278 H266 0.950 . S
C278 C277 1.398 . S
C278 C279 1.391 . S
C279 H267 0.950 . S
C279 C275 1.393 . S
C279 C278 1.391 . S
H280 C288 0.950 . S
H281 C293 0.950 . S
H282 C290 0.950 . S
H283 C292 0.950 . S
H284 C294 0.950 . S
H285 C296 0.950 . S
H286 C298 0.950 . S
H287 C299 0.950 . S
C288 H280 0.950 . S
C288 C289 1.386 . S
C288 C290 1.391 . S
C289 C288 1.386 . S
C289 C293 1.393 . S
C290 H282 0.950 . S
C290 C288 1.391 . S
C290 C291 1.400 . S
C291 C290 1.400 . S
C291 C292 1.398 . S
C291 C297 1.491 . S
C292 H283 0.950 . S
C292 C291 1.398 . S
C292 C293 1.391 . S
C293 H281 0.950 . S
C293 C289 1.393 . S
C293 C292 1.391 . S
C294 H284 0.950 . S
C294 C295 1.386 . S
C294 C296 1.391 . S
C295 C294 1.386 . S
C295 C299 1.393 . S
C296 H285 0.950 . S
C296 C294 1.391 . S
C296 C297 1.400 . S
C297 C291 1.491 . S
C297 C296 1.400 . S
C297 C298 1.398 . S
C298 H286 0.950 . S
C298 C297 1.398 . S
C298 C299 1.391 . S
C299 H287 0.950 . S
C299 C295 1.393 . S
C299 C298 1.391 . S
H300 C308 0.950 . S
H301 C313 0.950 . S
H302 C310 0.950 . S
H303 C312 0.950 . S
H304 C314 0.950 . S
H305 C316 0.950 . S
H306 C318 0.950 . S
H307 C319 0.950 . S
C308 H300 0.950 . S
C308 C309 1.386 . S
C308 C310 1.391 . S
C309 C308 1.386 . S
C309 C313 1.393 . S
C310 H302 0.950 . S
C310 C308 1.391 . S
C310 C311 1.400 . S
C311 C310 1.400 . S
C311 C312 1.398 . S
C311 C317 1.491 1_554 S
C312 H303 0.950 . S
C312 C311 1.398 . S
C312 C313 1.391 . S
C313 H301 0.950 . S
C313 C309 1.393 . S
C313 C312 1.391 . S
C314 H304 0.950 . S
C314 C315 1.386 . S
C314 C316 1.391 . S
C315 C314 1.386 . S
C315 C319 1.393 . S
C316 H305 0.950 . S
C316 C314 1.391 . S
C316 C317 1.400 . S
C317 C311 1.491 1_556 S
C317 C316 1.400 . S
C317 C318 1.398 . S
C318 H306 0.950 . S
C318 C317 1.398 . S
C318 C319 1.391 . S
C319 H307 0.950 . S
C319 C315 1.393 . S
C319 C318 1.391 . S
H320 C328 0.950 . S
H321 C333 0.950 . S
H322 C330 0.950 . S
H323 C332 0.950 . S
H324 C334 0.950 . S
H325 C336 0.950 . S
H326 C338 0.950 . S
H327 C339 0.950 . S
C328 H320 0.950 . S
C328 C329 1.386 . S
C328 C330 1.391 . S
C329 C328 1.386 . S
C329 C333 1.393 . S
C330 H322 0.950 . S
C330 C328 1.391 . S
C330 C331 1.400 . S
C331 C330 1.400 . S
C331 C332 1.398 . S
C331 C337 1.491 . S
C332 H323 0.950 . S
C332 C331 1.398 . S
C332 C333 1.391 . S
C333 H321 0.950 . S
C333 C329 1.393 . S
C333 C332 1.391 . S
C334 H324 0.950 . S
C334 C335 1.386 . S
C334 C336 1.391 . S
C335 C334 1.386 . S
C335 C339 1.393 . S
C336 H325 0.950 . S
C336 C334 1.391 . S
C336 C337 1.400 . S
C337 C331 1.491 . S
C337 C336 1.400 . S
C337 C338 1.398 . S
C338 H326 0.950 . S
C338 C337 1.398 . S
C338 C339 1.391 . S
C339 H327 0.950 . S
C339 C335 1.393 . S
C339 C338 1.391 . S
H340 C348 0.950 . S
H341 C353 0.950 . S
H342 C350 0.950 . S
H343 C352 0.950 . S
H344 C354 0.950 . S
H345 C356 0.950 . S
H346 C358 0.950 . S
H347 C359 0.950 . S
C348 H340 0.950 . S
C348 C349 1.386 . S
C348 C350 1.391 . S
C349 C348 1.386 . S
C349 C353 1.393 . S
C350 H342 0.950 . S
C350 C348 1.391 . S
C350 C351 1.400 . S
C351 C350 1.400 . S
C351 C352 1.398 . S
C351 C357 1.491 . S
C352 H343 0.950 . S
C352 C351 1.398 . S
C352 C353 1.391 . S
C353 H341 0.950 . S
C353 C349 1.393 . S
C353 C352 1.391 . S
C354 H344 0.950 . S
C354 C355 1.386 . S
C354 C356 1.391 . S
C355 C354 1.386 . S
C355 C359 1.393 . S
C356 H345 0.950 . S
C356 C354 1.391 . S
C356 C357 1.400 . S
C357 C351 1.491 . S
C357 C356 1.400 . S
C357 C358 1.398 . S
C358 H346 0.950 . S
C358 C357 1.398 . S
C358 C359 1.391 . S
C359 H347 0.950 . S
C359 C355 1.393 . S
C359 C358 1.391 . S
H360 C368 0.950 . S
H361 C373 0.950 . S
H362 C370 0.950 . S
H363 C372 0.950 . S
H364 C374 0.950 . S
H365 C376 0.950 . S
H366 C378 0.950 . S
H367 C379 0.950 . S
C368 H360 0.950 . S
C368 C369 1.386 . S
C368 C370 1.391 . S
C369 C368 1.386 . S
C369 C373 1.393 . S
C370 H362 0.950 . S
C370 C368 1.391 . S
C370 C371 1.400 . S
C371 C370 1.400 . S
C371 C372 1.398 . S
C371 C377 1.491 1_455 S
C372 H363 0.950 . S
C372 C371 1.398 . S
C372 C373 1.391 . S
C373 H361 0.950 . S
C373 C369 1.393 . S
C373 C372 1.391 . S
C374 H364 0.950 . S
C374 C375 1.386 . S
C374 C376 1.391 . S
C375 C374 1.386 . S
C375 C379 1.393 . S
C376 H365 0.950 . S
C376 C374 1.391 . S
C376 C377 1.400 . S
C377 C371 1.491 1_655 S
C377 C376 1.400 . S
C377 C378 1.398 . S
C378 H366 0.950 . S
C378 C377 1.398 . S
C378 C379 1.391 . S
C379 H367 0.950 . S
C379 C375 1.393 . S
C379 C378 1.391 . S
H380 C388 0.950 . S
H381 C393 0.950 . S
H382 C390 0.950 . S
H383 C392 0.950 . S
H384 C394 0.950 . S
H385 C396 0.950 . S
H386 C398 0.950 . S
H387 C399 0.950 . S
C388 H380 0.950 . S
C388 C389 1.386 . S
C388 C390 1.391 . S
C389 C388 1.386 . S
C389 C393 1.393 . S
C390 H382 0.950 . S
C390 C388 1.391 . S
C390 C391 1.400 . S
C391 C390 1.400 . S
C391 C392 1.398 . S
C391 C397 1.491 1_545 S
C392 H383 0.950 . S
C392 C391 1.398 . S
C392 C393 1.391 . S
C393 H381 0.950 . S
C393 C389 1.393 . S
C393 C392 1.391 . S
C394 H384 0.950 . S
C394 C395 1.386 . S
C394 C396 1.391 . S
C395 C394 1.386 . S
C395 C399 1.393 . S
C396 H385 0.950 . S
C396 C394 1.391 . S
C396 C397 1.400 . S
C397 C391 1.491 1_565 S
C397 C396 1.400 . S
C397 C398 1.398 . S
C398 H386 0.950 . S
C398 C397 1.398 . S
C398 C399 1.391 . S
C399 H387 0.950 . S
C399 C395 1.393 . S
C399 C398 1.391 . S
H400 C408 0.950 . S
H401 C413 0.950 . S
H402 C410 0.950 . S
H403 C412 0.950 . S
H404 C414 0.950 . S
H405 C416 0.950 . S
H406 C418 0.950 . S
H407 C419 0.950 . S
C408 H400 0.950 . S
C408 C409 1.386 . S
C408 C410 1.391 . S
C409 C408 1.386 . S
C409 C413 1.393 . S
C410 H402 0.950 . S
C410 C408 1.391 . S
C410 C411 1.400 . S
C411 C410 1.400 . S
C411 C412 1.398 . S
C411 C417 1.491 . S
C412 H403 0.950 . S
C412 C411 1.398 . S
C412 C413 1.391 . S
C413 H401 0.950 . S
C413 C409 1.393 . S
C413 C412 1.391 . S
C414 H404 0.950 . S
C414 C415 1.386 . S
C414 C416 1.391 . S
C415 C414 1.386 . S
C415 C419 1.393 . S
C416 H405 0.950 . S
C416 C414 1.391 . S
C416 C417 1.400 . S
C417 C411 1.491 . S
C417 C416 1.400 . S
C417 C418 1.398 . S
C418 H406 0.950 . S
C418 C417 1.398 . S
C418 C419 1.391 . S
C419 H407 0.950 . S
C419 C415 1.393 . S
C419 C418 1.391 . S
C249 C101 1.488 . S
C255 C2 1.494 . S
C269 C61 1.490 . S
C275 C141 1.480 . S
C289 C82 1.481 . S
C295 C181 1.496 . S
C309 C122 1.495 . S
C315 C221 1.488 . S
C329 C162 1.494 . S
C335 C21 1.481 . S
C349 C202 1.491 . S
C355 C42 1.495 . S
C369 C15 1.503 . S
C375 C135 1.502 . S
C389 C55 1.500 . S
C395 C175 1.499 . S
C409 C95 1.504 . S
C415 C215 1.503 . S
