# Generated by pormake.
# Topology umg, (4)-cn, num edge types: 1
# Building blocks:
#     Node 0, Type 0, BuildingBlock: KOZSID_clean_sbu_0, # of connection points: 4
#     Node 1, Type 0, BuildingBlock: KOZSID_clean_sbu_0, # of connection points: 4
#     Node 2, Type 0, BuildingBlock: KOZSID_clean_sbu_0, # of connection points: 4
#     Node 3, Type 0, BuildingBlock: KOZSID_clean_sbu_0, # of connection points: 4
#     Node 4, Type 0, BuildingBlock: KOZSID_clean_sbu_0, # of connection points: 4
#     Node 5, Type 0, BuildingBlock: KOZSID_clean_sbu_0, # of connection points: 4
#     Node 6, Type 0, BuildingBlock: KOZSID_clean_sbu_0, # of connection points: 4
#     Node 7, Type 0, BuildingBlock: KOZSID_clean_sbu_0, # of connection points: 4
#     Node 8, Type 0, BuildingBlock: KOZSID_clean_sbu_0, # of connection points: 4
#     Node 9, Type 0, BuildingBlock: KOZSID_clean_sbu_0, # of connection points: 4
#     Node 10, Type 0, BuildingBlock: KOZSID_clean_sbu_0, # of connection points: 4
#     Node 11, Type 0, BuildingBlock: KOZSID_clean_sbu_0, # of connection points: 4
#     Edge 12, Type (0, 0), BuildingBlock: TEMPAE_clean_linker_10, # of connection points: 2
#     Edge 13, Type (0, 0), BuildingBlock: TEMPAE_clean_linker_10, # of connection points: 2
#     Edge 14, Type (0, 0), BuildingBlock: TEMPAE_clean_linker_10, # of connection points: 2
#     Edge 15, Type (0, 0), BuildingBlock: TEMPAE_clean_linker_10, # of connection points: 2
#     Edge 16, Type (0, 0), BuildingBlock: TEMPAE_clean_linker_10, # of connection points: 2
#     Edge 17, Type (0, 0), BuildingBlock: TEMPAE_clean_linker_10, # of connection points: 2
#     Edge 18, Type (0, 0), BuildingBlock: TEMPAE_clean_linker_10, # of connection points: 2
#     Edge 19, Type (0, 0), BuildingBlock: TEMPAE_clean_linker_10, # of connection points: 2
#     Edge 20, Type (0, 0), BuildingBlock: TEMPAE_clean_linker_10, # of connection points: 2
#     Edge 21, Type (0, 0), BuildingBlock: TEMPAE_clean_linker_10, # of connection points: 2
#     Edge 22, Type (0, 0), BuildingBlock: TEMPAE_clean_linker_10, # of connection points: 2
#     Edge 23, Type (0, 0), BuildingBlock: TEMPAE_clean_linker_10, # of connection points: 2
#     Edge 24, Type (0, 0), BuildingBlock: TEMPAE_clean_linker_10, # of connection points: 2
#     Edge 25, Type (0, 0), BuildingBlock: TEMPAE_clean_linker_10, # of connection points: 2
#     Edge 26, Type (0, 0), BuildingBlock: TEMPAE_clean_linker_10, # of connection points: 2
#     Edge 27, Type (0, 0), BuildingBlock: TEMPAE_clean_linker_10, # of connection points: 2
#     Edge 28, Type (0, 0), BuildingBlock: TEMPAE_clean_linker_10, # of connection points: 2
#     Edge 29, Type (0, 0), BuildingBlock: TEMPAE_clean_linker_10, # of connection points: 2
#     Edge 30, Type (0, 0), BuildingBlock: TEMPAE_clean_linker_10, # of connection points: 2
#     Edge 31, Type (0, 0), BuildingBlock: TEMPAE_clean_linker_10, # of connection points: 2
#     Edge 32, Type (0, 0), BuildingBlock: TEMPAE_clean_linker_10, # of connection points: 2
#     Edge 33, Type (0, 0), BuildingBlock: TEMPAE_clean_linker_10, # of connection points: 2
#     Edge 34, Type (0, 0), BuildingBlock: TEMPAE_clean_linker_10, # of connection points: 2
#     Edge 35, Type (0, 0), BuildingBlock: TEMPAE_clean_linker_10, # of connection points: 2
# Relax obj value: 0.044
# Max RMSD: 0.153
# Mean RMSD: 0.153
data_MOF--net-umg--node1-KOZSID_clean_sbu_0--edge1-TEMPAE_clean_linker_10
_symmetry_space_group_name_H-M    P1
_symmetry_Int_Tables_number       1
_symmetry_cell_setting            triclinic
loop_
_symmetry_equiv_pos_as_xyz
'x, y, z'
_cell_length_a     39.593655
_cell_length_b     39.597918
_cell_length_c     94.651989
_cell_angle_alpha  90.00103
_cell_angle_beta   90.00186
_cell_angle_gamma 120.12584
loop_
_atom_site_label
_atom_site_type_symbol
_atom_site_fract_x
_atom_site_fract_y
_atom_site_fract_z
_atom_type_partial_charge
C0 C 0.25535 0.52456 0.12181 0.0
C1 C 0.24353 0.49693 0.13248 0.0
C2 C 0.23878 0.4633 0.12637 0.0
C3 C 0.24789 0.47216 0.11233 0.0
N4 N 0.25798 0.5092 0.10928 0.0
Co5 Co 0.27221 0.53369 0.0903 0.0
N6 N 0.24797 0.4824 0.08046 0.0
C7 C 0.23802 0.44798 0.08662 0.0
C8 C 0.22041 0.41716 0.07739 0.0
C9 C 0.21985 0.4333 0.06461 0.0
C10 C 0.23774 0.47337 0.06666 0.0
N11 N 0.28711 0.55897 0.07147 0.0
C12 C 0.27567 0.54367 0.05835 0.0
C13 C 0.29736 0.5714 0.04808 0.0
C14 C 0.3228 0.60496 0.05503 0.0
C15 C 0.31572 0.59601 0.06909 0.0
N16 N 0.2965 0.58493 0.10007 0.0
C17 C 0.3238 0.61927 0.09463 0.0
C18 C 0.3353 0.64985 0.10388 0.0
C19 C 0.31391 0.63366 0.1159 0.0
C20 C 0.29047 0.59398 0.11328 0.0
N21 N 0.32232 0.53351 0.09115 0.0
C22 C 0.39001 0.52561 0.09264 0.0
C23 C 0.36641 0.51512 0.08048 0.0
C24 C 0.33364 0.51986 0.07987 0.0
C25 C 0.37876 0.541 0.10399 0.0
C26 C 0.34492 0.54435 0.10309 0.0
N27 N 0.22164 0.53245 0.08944 0.0
C28 C 0.18233 0.5628 0.08556 0.0
C29 C 0.14758 0.52767 0.08872 0.0
C30 C 0.15142 0.49521 0.09207 0.0
C31 C 0.18818 0.49833 0.09257 0.0
C32 C 0.21886 0.56448 0.08588 0.0
H33 H 0.18925 0.47267 0.0955 0.0
H34 H 0.24487 0.59172 0.08335 0.0
H35 H 0.31689 0.51137 0.07025 0.0
H36 H 0.33679 0.5553 0.11214 0.0
C37 C 0.23984 0.44522 0.10138 0.0
C38 C 0.26521 0.56542 0.12387 0.0
C39 C 0.24775 0.50231 0.05519 0.0
C40 C 0.33254 0.6225 0.08023 0.0
H41 H 0.23852 0.50057 0.14347 0.0
H42 H 0.228 0.43522 0.13143 0.0
H43 H 0.20809 0.38645 0.07976 0.0
H44 H 0.20777 0.41724 0.05492 0.0
H45 H 0.2961 0.56769 0.03674 0.0
H46 H 0.3438 0.63263 0.05037 0.0
H47 H 0.35562 0.68046 0.10193 0.0
H48 H 0.31556 0.6492 0.12552 0.0
H49 H 0.37227 0.50224 0.07141 0.0
H50 H 0.3958 0.55053 0.1136 0.0
H51 H 0.18162 0.58907 0.08303 0.0
H52 H 0.12614 0.46695 0.09419 0.0
C53 C 0.73436 0.24011 0.45765 0.0
C54 C 0.74537 0.22279 0.468 0.0
C55 C 0.76892 0.21133 0.46158 0.0
C56 C 0.77099 0.22223 0.44769 0.0
N57 N 0.75061 0.24048 0.44492 0.0
Co58 Co 0.74379 0.25905 0.42595 0.0
N59 N 0.77249 0.23607 0.41592 0.0
C60 C 0.78904 0.21698 0.42205 0.0
C61 C 0.80439 0.20222 0.41254 0.0
C62 C 0.79727 0.21244 0.39956 0.0
C63 C 0.77832 0.23345 0.40186 0.0
N64 N 0.73687 0.27784 0.40709 0.0
C65 C 0.74884 0.27421 0.39401 0.0
C66 C 0.74168 0.29573 0.38406 0.0
C67 C 0.72319 0.31205 0.39093 0.0
C68 C 0.72077 0.3004 0.40468 0.0
N69 N 0.7145 0.28143 0.43584 0.0
C70 C 0.70004 0.30261 0.42994 0.0
C71 C 0.68002 0.31282 0.43916 0.0
C72 C 0.68103 0.29655 0.45171 0.0
C73 C 0.70165 0.2772 0.44938 0.0
N74 N 0.79473 0.30956 0.42853 0.0
C75 C 0.86882 0.37949 0.42996 0.0
C76 C 0.83454 0.38058 0.42735 0.0
C77 C 0.79818 0.3456 0.4266 0.0
C78 C 0.865 0.34299 0.43235 0.0
C79 C 0.8283 0.30908 0.43179 0.0
N80 N 0.69378 0.20861 0.42343 0.0
C81 C 0.62412 0.17082 0.41853 0.0
C82 C 0.62312 0.13555 0.42164 0.0
C83 C 0.65856 0.13802 0.42517 0.0
C84 C 0.69274 0.17412 0.42614 0.0
C85 C 0.6596 0.2068 0.4194 0.0
H86 H 0.71799 0.17321 0.42926 0.0
H87 H 0.65891 0.23292 0.41696 0.0
H88 H 0.77343 0.34853 0.4243 0.0
H89 H 0.82825 0.28285 0.43395 0.0
C90 C 0.78781 0.21172 0.43675 0.0
C91 C 0.70707 0.25425 0.46025 0.0
C92 C 0.76627 0.25022 0.3904 0.0
C93 C 0.70381 0.31048 0.41553 0.0
H94 H 0.7364 0.21799 0.47897 0.0
H95 H 0.78162 0.19539 0.46633 0.0
H96 H 0.81834 0.18528 0.41476 0.0
H97 H 0.80486 0.20479 0.38957 0.0
H98 H 0.74904 0.29945 0.37295 0.0
H99 H 0.71298 0.33049 0.38646 0.0
H100 H 0.66547 0.32919 0.43692 0.0
H101 H 0.66743 0.29808 0.46143 0.0
H102 H 0.83585 0.40821 0.42551 0.0
H103 H 0.89043 0.34049 0.43475 0.0
H104 H 0.59767 0.17088 0.41569 0.0
H105 H 0.6603 0.11202 0.42721 0.0
C106 C 0.50078 0.74284 0.78829 0.0
C107 C 0.52931 0.7579 0.79868 0.0
C108 C 0.5626 0.78701 0.7924 0.0
C109 C 0.55263 0.7881 0.77855 0.0
N110 N 0.51524 0.7615 0.77579 0.0
Co111 Co 0.48923 0.75189 0.75711 0.0
N112 N 0.53963 0.77916 0.74676 0.0
C113 C 0.57457 0.80357 0.75263 0.0
C114 C 0.60464 0.81674 0.74308 0.0
C115 C 0.58746 0.80005 0.73041 0.0
C116 C 0.54753 0.77795 0.73284 0.0
N117 N 0.46244 0.74154 0.73858 0.0
C118 C 0.47658 0.74483 0.72529 0.0
C119 C 0.4481 0.73863 0.71535 0.0
C120 C 0.41524 0.73101 0.72268 0.0
C121 C 0.42535 0.73331 0.73664 0.0
N122 N 0.43884 0.72528 0.76738 0.0
C123 C 0.4043 0.71892 0.76243 0.0
C124 C 0.37445 0.70011 0.77199 0.0
C125 C 0.39136 0.69436 0.78369 0.0
C126 C 0.43069 0.70999 0.78056 0.0
N127 N 0.48991 0.80251 0.75846 0.0
C128 C 0.49738 0.87765 0.76044 0.0
C129 C 0.48854 0.85341 0.77235 0.0
C130 C 0.48433 0.81592 0.77111 0.0
C131 C 0.50172 0.86296 0.74751 0.0
C132 C 0.49844 0.82594 0.74677 0.0
N133 N 0.48986 0.70217 0.75583 0.0
C134 C 0.45772 0.63187 0.75291 0.0
C135 C 0.49315 0.6323 0.75497 0.0
C136 C 0.52661 0.66846 0.75748 0.0
C137 C 0.52428 0.70259 0.75806 0.0
C138 C 0.4568 0.66712 0.75318 0.0
H139 H 0.55064 0.72939 0.76047 0.0
H140 H 0.42935 0.66602 0.75134 0.0
H141 H 0.47716 0.79802 0.78046 0.0
H142 H 0.50362 0.81675 0.7367 0.0
C143 C 0.57864 0.80749 0.7674 0.0
C144 C 0.45985 0.71208 0.7906 0.0
C145 C 0.51768 0.75832 0.72169 0.0
C146 C 0.39991 0.72426 0.7481 0.0
H147 H 0.52649 0.74864 0.80958 0.0
H148 H 0.59113 0.8039 0.79719 0.0
H149 H 0.63557 0.83483 0.74517 0.0
H150 H 0.60284 0.80372 0.72058 0.0
H151 H 0.45091 0.74071 0.70397 0.0
H152 H 0.38729 0.72441 0.71834 0.0
H153 H 0.34379 0.6902 0.77042 0.0
H154 H 0.37649 0.68035 0.7934 0.0
H155 H 0.4846 0.86324 0.78257 0.0
H156 H 0.50881 0.88053 0.73802 0.0
H157 H 0.43106 0.60459 0.7509 0.0
H158 H 0.55451 0.67032 0.75929 0.0
C159 C 0.75251 0.47775 0.12104 0.0
C160 C 0.75694 0.50127 0.13261 0.0
C161 C 0.76154 0.53568 0.12741 0.0
C162 C 0.75908 0.53128 0.113 0.0
N163 N 0.75331 0.4963 0.10881 0.0
Co164 Co 0.74319 0.47707 0.08902 0.0
N165 N 0.76576 0.53065 0.08105 0.0
C166 C 0.77248 0.56257 0.08836 0.0
C167 C 0.78962 0.59589 0.0803 0.0
C168 C 0.79334 0.58405 0.06704 0.0
C169 C 0.77768 0.54389 0.06767 0.0
N170 N 0.73205 0.45719 0.06932 0.0
C171 C 0.74398 0.4764 0.05685 0.0
C172 C 0.72466 0.45135 0.0456 0.0
C173 C 0.70057 0.41532 0.05124 0.0
C174 C 0.70592 0.42034 0.06554 0.0
N175 N 0.72118 0.42352 0.09693 0.0
C176 C 0.69979 0.38995 0.08975 0.0
C177 C 0.69612 0.35799 0.09672 0.0
C178 C 0.71589 0.37213 0.10912 0.0
C179 C 0.72905 0.41199 0.10942 0.0
N180 N 0.69123 0.47335 0.08986 0.0
C181 C 0.62323 0.47957 0.09239 0.0
C182 C 0.63307 0.46064 0.1028 0.0
C183 C 0.66727 0.45811 0.10139 0.0
C184 C 0.64721 0.49357 0.08045 0.0
C185 C 0.68038 0.48963 0.07928 0.0
N186 N 0.79555 0.48223 0.08822 0.0
C187 C 0.8387 0.45707 0.0829 0.0
C188 C 0.87169 0.49181 0.08761 0.0
C189 C 0.86504 0.52154 0.09247 0.0
C190 C 0.82723 0.51602 0.09286 0.0
C191 C 0.8012 0.45306 0.08316 0.0
H192 H 0.8238 0.5395 0.09693 0.0
H193 H 0.77675 0.42622 0.07935 0.0
H194 H 0.67491 0.44484 0.10984 0.0
H195 H 0.69791 0.50109 0.06992 0.0
C196 C 0.76732 0.56073 0.10307 0.0
C197 C 0.74524 0.43725 0.12208 0.0
C198 C 0.77098 0.51862 0.05526 0.0
C199 C 0.69171 0.39039 0.07546 0.0
H200 H 0.75644 0.49433 0.14368 0.0
H201 H 0.7669 0.56115 0.13342 0.0
H202 H 0.79937 0.62546 0.08373 0.0
H203 H 0.8058 0.6029 0.05796 0.0
H204 H 0.72698 0.45825 0.03447 0.0
H205 H 0.68204 0.38852 0.04557 0.0
H206 H 0.68324 0.32838 0.09279 0.0
H207 H 0.72037 0.3547 0.11685 0.0
H208 H 0.61526 0.44915 0.11219 0.0
H209 H 0.6405 0.50784 0.07204 0.0
H210 H 0.84144 0.43273 0.07918 0.0
H211 H 0.88889 0.54946 0.09587 0.0
C212 C 0.28057 0.75652 0.45408 0.0
C213 C 0.26408 0.76788 0.46466 0.0
C214 C 0.23234 0.768 0.45874 0.0
C215 C 0.23131 0.75696 0.4449 0.0
N216 N 0.26049 0.75023 0.4418 0.0
Co217 Co 0.2695 0.7337 0.4231 0.0
N218 N 0.23834 0.75287 0.41309 0.0
C219 C 0.20921 0.75563 0.41927 0.0
C220 C 0.18512 0.75881 0.40968 0.0
C221 C 0.2002 0.75815 0.39669 0.0
C222 C 0.23429 0.75682 0.39898 0.0
N223 N 0.27902 0.71686 0.40456 0.0
C224 C 0.27183 0.72486 0.39134 0.0
C225 C 0.27274 0.69877 0.38168 0.0
C226 C 0.28303 0.67548 0.38901 0.0
C227 C 0.28641 0.68743 0.40277 0.0
N228 N 0.29979 0.71366 0.43308 0.0
C229 C 0.30703 0.68604 0.42819 0.0
C230 C 0.32812 0.6773 0.43751 0.0
C231 C 0.3343 0.7008 0.44901 0.0
C232 C 0.31654 0.72263 0.44603 0.0
N233 N 0.22092 0.68226 0.42524 0.0
C234 C 0.14535 0.61571 0.42831 0.0
C235 C 0.17105 0.63141 0.4399 0.0
C236 C 0.20869 0.66431 0.43811 0.0
C237 C 0.15971 0.63298 0.41509 0.0
C238 C 0.19678 0.66596 0.41383 0.0
N239 N 0.31664 0.78539 0.42099 0.0
C240 C 0.38602 0.82737 0.41729 0.0
C241 C 0.38325 0.86103 0.41979 0.0
C242 C 0.34592 0.85541 0.42251 0.0
C243 C 0.31351 0.81783 0.42323 0.0
C244 C 0.3524 0.78993 0.41783 0.0
H245 H 0.28575 0.81511 0.4258 0.0
H246 H 0.35534 0.76462 0.41592 0.0
H247 H 0.22734 0.67602 0.44726 0.0
H248 H 0.20501 0.67889 0.40353 0.0
C249 C 0.20699 0.75708 0.4341 0.0
C250 C 0.31307 0.7488 0.45617 0.0
C251 C 0.25915 0.75327 0.3879 0.0
C252 C 0.29863 0.67355 0.41414 0.0
H253 H 0.27359 0.77478 0.47552 0.0
H254 H 0.21301 0.77614 0.46385 0.0
H255 H 0.1588 0.75984 0.41182 0.0
H256 H 0.18482 0.75482 0.38693 0.0
H257 H 0.26543 0.69583 0.37057 0.0
H258 H 0.28702 0.65229 0.38481 0.0
H259 H 0.33874 0.65715 0.43597 0.0
H260 H 0.34959 0.70134 0.45856 0.0
H261 H 0.16189 0.61933 0.45038 0.0
H262 H 0.14225 0.62155 0.40563 0.0
H263 H 0.41398 0.82967 0.41522 0.0
H264 H 0.34138 0.87991 0.42409 0.0
C265 C 0.53082 0.2848 0.79073 0.0
C266 C 0.50252 0.26735 0.80111 0.0
C267 C 0.47015 0.23753 0.79465 0.0
C268 C 0.48043 0.23847 0.78072 0.0
N269 N 0.51713 0.267 0.77803 0.0
Co270 Co 0.54325 0.27946 0.75927 0.0
N271 N 0.4929 0.24948 0.74896 0.0
C272 C 0.45902 0.22229 0.75482 0.0
C273 C 0.42952 0.20389 0.74513 0.0
C274 C 0.44593 0.22006 0.73234 0.0
C275 C 0.48471 0.24776 0.73493 0.0
N276 N 0.56999 0.29323 0.74062 0.0
C277 C 0.55538 0.2912 0.72749 0.0
C278 C 0.58536 0.30813 0.7176 0.0
C279 C 0.6194 0.3188 0.72465 0.0
C280 C 0.60864 0.30886 0.73846 0.0
N281 N 0.59363 0.30843 0.76957 0.0
C282 C 0.6292 0.31915 0.76433 0.0
C283 C 0.65868 0.33862 0.77396 0.0
C284 C 0.64057 0.34039 0.78602 0.0
C285 C 0.60091 0.32194 0.78302 0.0
N286 N 0.54668 0.23089 0.76001 0.0
C287 C 0.54105 0.15642 0.76132 0.0
C288 C 0.53799 0.17227 0.74845 0.0
C289 C 0.5405 0.20899 0.74804 0.0
C290 C 0.54837 0.17951 0.77348 0.0
C291 C 0.55173 0.2167 0.77257 0.0
N292 N 0.53857 0.32706 0.75851 0.0
C293 C 0.56653 0.39692 0.7555 0.0
C294 C 0.52986 0.39389 0.75736 0.0
C295 C 0.49789 0.35662 0.75993 0.0
C296 C 0.50289 0.32398 0.76064 0.0
C297 C 0.57018 0.36325 0.75594 0.0
H298 H 0.4776 0.29613 0.76295 0.0
H299 H 0.5986 0.36655 0.75418 0.0
H300 H 0.53624 0.21896 0.73798 0.0
H301 H 0.55752 0.23355 0.78214 0.0
C302 C 0.45514 0.21788 0.76955 0.0
C303 C 0.57101 0.31669 0.79329 0.0
C304 C 0.51362 0.26874 0.72369 0.0
C305 C 0.63443 0.31842 0.74979 0.0
H306 H 0.50501 0.27532 0.81215 0.0
H307 H 0.44202 0.21851 0.79944 0.0
H308 H 0.39953 0.18163 0.74712 0.0
H309 H 0.43118 0.21167 0.72224 0.0
H310 H 0.58296 0.31156 0.70637 0.0
H311 H 0.6486 0.33309 0.72028 0.0
H312 H 0.6898 0.35196 0.77219 0.0
H313 H 0.65495 0.35413 0.79583 0.0
H314 H 0.53226 0.15575 0.73875 0.0
H315 H 0.55155 0.16894 0.78366 0.0
H316 H 0.59214 0.42504 0.75344 0.0
H317 H 0.46908 0.35271 0.76162 0.0
C318 C 0.4973 0.76328 0.5477 0.0
C319 C 0.52629 0.78074 0.53756 0.0
C320 C 0.561 0.79233 0.54429 0.0
C321 C 0.55134 0.78136 0.55814 0.0
N322 N 0.51246 0.76286 0.56059 0.0
Co323 Co 0.4859 0.74464 0.57941 0.0
N324 N 0.53702 0.76865 0.58989 0.0
C325 C 0.57309 0.78771 0.58404 0.0
C326 C 0.60263 0.80338 0.5938 0.0
C327 C 0.58444 0.79384 0.60664 0.0
C328 C 0.54457 0.77231 0.60404 0.0
N329 N 0.45898 0.72633 0.59811 0.0
C330 C 0.47379 0.73112 0.61137 0.0
C331 C 0.44452 0.70979 0.62118 0.0
C332 C 0.4101 0.69237 0.61399 0.0
C333 C 0.42016 0.70327 0.60022 0.0
N334 N 0.43478 0.72123 0.56904 0.0
C335 C 0.39875 0.69952 0.57465 0.0
C336 C 0.36903 0.68892 0.56513 0.0
C337 C 0.38707 0.70554 0.5527 0.0
C338 C 0.42693 0.72546 0.5554 0.0
N339 N 0.48717 0.69438 0.5775 0.0
C340 C 0.49271 0.62512 0.57737 0.0
C341 C 0.45696 0.62356 0.57964 0.0
C342 C 0.45488 0.65818 0.57972 0.0
C343 C 0.52505 0.66174 0.57461 0.0
C344 C 0.52158 0.69526 0.57454 0.0
N345 N 0.48557 0.79477 0.58131 0.0
C346 C 0.45283 0.83196 0.58549 0.0
C347 C 0.48712 0.86739 0.5824 0.0
C348 C 0.52049 0.8653 0.57922 0.0
C349 C 0.519 0.82941 0.57861 0.0
C350 C 0.45274 0.7962 0.58494 0.0
H351 H 0.54551 0.83058 0.5758 0.0
H352 H 0.42589 0.76992 0.58733 0.0
H353 H 0.4269 0.65483 0.58176 0.0
H354 H 0.54757 0.72155 0.57216 0.0
C355 C 0.57804 0.79248 0.56934 0.0
C356 C 0.45596 0.74916 0.54478 0.0
C357 C 0.51495 0.75611 0.61529 0.0
C358 C 0.39375 0.69221 0.58909 0.0
H359 H 0.52275 0.78565 0.52655 0.0
H360 H 0.58996 0.80856 0.53977 0.0
H361 H 0.6337 0.82059 0.59181 0.0
H362 H 0.59907 0.80237 0.61675 0.0
H363 H 0.44753 0.70697 0.63241 0.0
H364 H 0.38118 0.6738 0.61829 0.0
H365 H 0.33792 0.67228 0.56712 0.0
H366 H 0.37249 0.70401 0.54284 0.0
H367 H 0.43082 0.59588 0.58173 0.0
H368 H 0.55325 0.66465 0.5724 0.0
H369 H 0.42603 0.83163 0.58805 0.0
H370 H 0.5482 0.89146 0.5772 0.0
C371 C 0.74829 0.49957 0.88345 0.0
C372 C 0.76411 0.52704 0.87272 0.0
C373 C 0.79416 0.5603 0.87866 0.0
C374 C 0.79502 0.55138 0.89265 0.0
N375 N 0.76738 0.51466 0.89583 0.0
Co376 Co 0.75735 0.49024 0.91484 0.0
N377 N 0.78646 0.54149 0.92458 0.0
C378 C 0.81158 0.57557 0.9183 0.0
C379 C 0.82614 0.60658 0.92747 0.0
C380 C 0.80969 0.59094 0.94033 0.0
C381 C 0.78635 0.5509 0.93839 0.0
N382 N 0.74663 0.46501 0.9337 0.0
C383 C 0.75119 0.48054 0.94682 0.0
C384 C 0.74415 0.45254 0.95709 0.0
C385 C 0.73469 0.41863 0.95015 0.0
C386 C 0.73682 0.42762 0.93609 0.0
N387 N 0.7288 0.43903 0.90514 0.0
C388 C 0.72101 0.40445 0.91054 0.0
C389 C 0.70095 0.37395 0.90134 0.0
C390 C 0.69586 0.39044 0.88939 0.0
C391 C 0.71313 0.43021 0.89202 0.0
N392 N 0.80662 0.48883 0.9137 0.0
C393 C 0.88198 0.49705 0.91183 0.0
C394 C 0.85691 0.48604 0.90003 0.0
C395 C 0.81941 0.48169 0.90121 0.0
C396 C 0.8672 0.50199 0.92468 0.0
C397 C 0.83019 0.49829 0.92534 0.0
N398 N 0.7091 0.49309 0.91599 0.0
C399 C 0.63967 0.46426 0.92 0.0
C400 C 0.64129 0.49989 0.91689 0.0
C401 C 0.67798 0.53186 0.91354 0.0
C402 C 0.71095 0.52776 0.91298 0.0
C403 C 0.67386 0.46155 0.91958 0.0
H404 H 0.7381 0.55303 0.91004 0.0
H405 H 0.6718 0.43394 0.92203 0.0
H406 H 0.80123 0.47366 0.89191 0.0
H407 H 0.82124 0.50419 0.93532 0.0
C408 C 0.81532 0.57815 0.90351 0.0
C409 C 0.71638 0.45898 0.88156 0.0
C410 C 0.76696 0.52235 0.94994 0.0
C411 C 0.7264 0.40104 0.92494 0.0
H412 H 0.75476 0.52354 0.86182 0.0
H413 H 0.81187 0.58822 0.87353 0.0
H414 H 0.84514 0.63714 0.92501 0.0
H415 H 0.81448 0.60735 0.94998 0.0
H416 H 0.74698 0.45628 0.96842 0.0
H417 H 0.72714 0.39076 0.95482 0.0
H418 H 0.68983 0.34321 0.90329 0.0
H419 H 0.68121 0.37501 0.87983 0.0
H420 H 0.86637 0.48184 0.88979 0.0
H421 H 0.88414 0.50905 0.93431 0.0
H422 H 0.6122 0.43842 0.92254 0.0
H423 H 0.68164 0.56037 0.91143 0.0
C424 C 0.25978 0.7391 0.21572 0.0
C425 C 0.24724 0.75502 0.20534 0.0
C426 C 0.24378 0.78438 0.21169 0.0
C427 C 0.25431 0.78474 0.22556 0.0
N428 N 0.26412 0.75746 0.2283 0.0
Co429 Co 0.27989 0.74706 0.247 0.0
N430 N 0.25834 0.77579 0.25732 0.0
C431 C 0.24939 0.80131 0.25144 0.0
C432 C 0.23624 0.81786 0.26114 0.0
C433 C 0.23755 0.80223 0.27393 0.0
C434 C 0.25166 0.77704 0.27134 0.0
N435 N 0.29537 0.73562 0.26558 0.0
C436 C 0.28472 0.73924 0.27887 0.0
C437 C 0.30415 0.7294 0.28884 0.0
C438 C 0.32799 0.71983 0.28154 0.0
C439 C 0.32194 0.72432 0.26758 0.0
N440 N 0.30234 0.71925 0.23667 0.0
C441 C 0.32911 0.71094 0.24171 0.0
C442 C 0.33934 0.69159 0.23213 0.0
C443 C 0.31763 0.68745 0.22031 0.0
C444 C 0.29526 0.70452 0.22339 0.0
N445 N 0.33081 0.79688 0.24575 0.0
C446 C 0.39848 0.87207 0.24395 0.0
C447 C 0.38001 0.8568 0.25689 0.0
C448 C 0.34631 0.81971 0.25755 0.0
C449 C 0.38292 0.84838 0.23192 0.0
C450 C 0.34957 0.81077 0.23307 0.0
N451 N 0.22861 0.69816 0.2483 0.0
C452 C 0.18901 0.62812 0.25165 0.0
C453 C 0.15441 0.62944 0.24993 0.0
C454 C 0.15799 0.66589 0.2473 0.0
C455 C 0.195 0.69949 0.24633 0.0
C456 C 0.22569 0.66279 0.25101 0.0
H457 H 0.19622 0.72663 0.24392 0.0
H458 H 0.25169 0.66094 0.25268 0.0
H459 H 0.33234 0.81015 0.26766 0.0
H460 H 0.33851 0.79331 0.22363 0.0
C461 C 0.24894 0.80498 0.23669 0.0
C462 C 0.2692 0.708 0.21325 0.0
C463 C 0.26113 0.75721 0.28252 0.0
C464 C 0.33774 0.71466 0.25612 0.0
H465 H 0.24114 0.74626 0.19438 0.0
H466 H 0.23319 0.80212 0.2069 0.0
H467 H 0.22604 0.83816 0.25913 0.0
H468 H 0.22952 0.80901 0.28402 0.0
H469 H 0.30249 0.7304 0.30023 0.0
H470 H 0.34725 0.7105 0.2859 0.0
H471 H 0.35876 0.68013 0.23377 0.0
H472 H 0.31809 0.67335 0.21057 0.0
H473 H 0.39087 0.87399 0.26646 0.0
H474 H 0.39641 0.85884 0.22169 0.0
H475 H 0.1877 0.6006 0.25374 0.0
H476 H 0.1322 0.66837 0.24576 0.0
C477 C 0.52671 0.25297 0.55096 0.0
C478 C 0.49829 0.24239 0.54065 0.0
C479 C 0.46646 0.24084 0.54715 0.0
C480 C 0.47713 0.25042 0.56104 0.0
N481 N 0.51358 0.25784 0.56365 0.0
Co482 Co 0.54002 0.27114 0.58235 0.0
N483 N 0.48997 0.25149 0.59278 0.0
C484 C 0.45627 0.24551 0.58701 0.0
C485 C 0.42703 0.23483 0.59678 0.0
C486 C 0.44346 0.23464 0.60952 0.0
C487 C 0.48198 0.24506 0.60682 0.0
N488 N 0.5671 0.28378 0.60092 0.0
C489 C 0.55262 0.27128 0.61408 0.0
C490 C 0.58275 0.28399 0.62389 0.0
C491 C 0.61678 0.30709 0.61677 0.0
C492 C 0.60586 0.30647 0.603 0.0
N493 N 0.59009 0.29178 0.57194 0.0
C494 C 0.6259 0.31642 0.57708 0.0
C495 C 0.65507 0.32588 0.56736 0.0
C496 C 0.63646 0.30581 0.55537 0.0
C497 C 0.59686 0.28505 0.55851 0.0
N498 N 0.54444 0.32335 0.58166 0.0
C499 C 0.53653 0.39078 0.58024 0.0
C500 C 0.53439 0.37225 0.59316 0.0
C501 C 0.5381 0.33885 0.59362 0.0
C502 C 0.5452 0.37574 0.56815 0.0
C503 C 0.54951 0.34256 0.56911 0.0
N504 N 0.53417 0.2186 0.58302 0.0
C505 C 0.56044 0.17546 0.5859 0.0
C506 C 0.52352 0.14228 0.58347 0.0
C507 C 0.49225 0.14871 0.58094 0.0
C508 C 0.49821 0.18664 0.58062 0.0
C509 C 0.56507 0.21316 0.58572 0.0
H510 H 0.47338 0.18993 0.57837 0.0
H511 H 0.5937 0.23789 0.58765 0.0
H512 H 0.53444 0.32492 0.60371 0.0
H513 H 0.5555 0.33161 0.55956 0.0
C514 C 0.45222 0.24623 0.57228 0.0
C515 C 0.5665 0.26022 0.54839 0.0
C516 C 0.51097 0.25259 0.61797 0.0
C517 C 0.6315 0.32247 0.5916 0.0
H518 H 0.5003 0.23636 0.52962 0.0
H519 H 0.43835 0.23207 0.54242 0.0
H520 H 0.3972 0.22767 0.59488 0.0
H521 H 0.42893 0.22847 0.61965 0.0
H522 H 0.58045 0.27815 0.63512 0.0
H523 H 0.64606 0.32173 0.62108 0.0
H524 H 0.68626 0.34335 0.56904 0.0
H525 H 0.65047 0.30601 0.54553 0.0
H526 H 0.52934 0.38303 0.60297 0.0
H527 H 0.54736 0.38851 0.55784 0.0
H528 H 0.58585 0.17258 0.58774 0.0
H529 H 0.46292 0.12459 0.57932 0.0
C530 C 0.28935 0.52608 0.88172 0.0
C531 C 0.27784 0.49725 0.87153 0.0
C532 C 0.25423 0.46248 0.87816 0.0
C533 C 0.25264 0.47197 0.89199 0.0
N534 N 0.27333 0.51078 0.89455 0.0
Co535 Co 0.28117 0.53703 0.91341 0.0
N536 N 0.25203 0.48569 0.9237 0.0
C537 C 0.23453 0.44975 0.91774 0.0
C538 C 0.21885 0.41994 0.92738 0.0
C539 C 0.2267 0.4378 0.94028 0.0
C540 C 0.24643 0.47776 0.9378 0.0
N541 N 0.28939 0.56359 0.93217 0.0
C542 C 0.27787 0.54854 0.94535 0.0
C543 C 0.28637 0.57781 0.95521 0.0
C544 C 0.30519 0.6124 0.94817 0.0
C545 C 0.30652 0.60248 0.93442 0.0
N546 N 0.3106 0.58836 0.90323 0.0
C547 C 0.3257 0.62433 0.90896 0.0
C548 C 0.34566 0.65419 0.89956 0.0
C549 C 0.34389 0.63629 0.88707 0.0
C550 C 0.3229 0.59637 0.88961 0.0
N551 N 0.23061 0.53725 0.91104 0.0
C552 C 0.15697 0.53382 0.91016 0.0
C553 C 0.19153 0.56897 0.91286 0.0
C554 C 0.22767 0.56998 0.91334 0.0
C555 C 0.16026 0.50102 0.90738 0.0
C556 C 0.19678 0.50348 0.90766 0.0
N557 N 0.33082 0.53598 0.91573 0.0
C558 C 0.40088 0.56774 0.91971 0.0
C559 C 0.40098 0.53281 0.91703 0.0
C560 C 0.36493 0.4996 0.91422 0.0
C561 C 0.33098 0.50189 0.91348 0.0
C562 C 0.36565 0.5686 0.91911 0.0
H563 H 0.30519 0.47548 0.91089 0.0
H564 H 0.36707 0.59591 0.92122 0.0
H565 H 0.25266 0.59749 0.91573 0.0
H566 H 0.19651 0.47729 0.90518 0.0
C567 C 0.23557 0.44509 0.90307 0.0
C568 C 0.31678 0.56742 0.87887 0.0
C569 C 0.25946 0.50707 0.94914 0.0
C570 C 0.32307 0.62908 0.92339 0.0
H571 H 0.28649 0.50094 0.86053 0.0
H572 H 0.24112 0.4336 0.87355 0.0
H573 H 0.20427 0.38888 0.9253 0.0
H574 H 0.21911 0.42288 0.95034 0.0
H575 H 0.27961 0.57471 0.96637 0.0
H576 H 0.31626 0.64135 0.95253 0.0
H577 H 0.36079 0.68526 0.90165 0.0
H578 H 0.35733 0.65099 0.87726 0.0
H579 H 0.19061 0.59537 0.91498 0.0
H580 H 0.13456 0.47329 0.9049 0.0
H581 H 0.42782 0.59447 0.92198 0.0
H582 H 0.36254 0.47143 0.91256 0.0
C583 C 0.76138 0.28337 0.21862 0.0
C584 C 0.76685 0.26425 0.20729 0.0
C585 C 0.77206 0.23518 0.21283 0.0
C586 C 0.76893 0.23756 0.22718 0.0
N587 N 0.76223 0.26638 0.23104 0.0
Co588 Co 0.7509 0.2757 0.25068 0.0
N589 N 0.77305 0.24496 0.25917 0.0
C590 C 0.78043 0.21985 0.25213 0.0
C591 C 0.79703 0.2038 0.2605 0.0
C592 C 0.79974 0.21935 0.27369 0.0
C593 C 0.78404 0.2437 0.27271 0.0
N594 N 0.73899 0.28499 0.27024 0.0
C595 C 0.75059 0.27834 0.28291 0.0
C596 C 0.73119 0.28481 0.29392 0.0
C597 C 0.70736 0.29651 0.28795 0.0
C598 C 0.71296 0.29602 0.27369 0.0
N599 N 0.72887 0.30662 0.24229 0.0
C600 C 0.7073 0.31902 0.24919 0.0
C601 C 0.7035 0.34678 0.2419 0.0
C602 C 0.72332 0.35179 0.22956 0.0
C603 C 0.73663 0.32525 0.22964 0.0
N604 N 0.69897 0.22701 0.24968 0.0
C605 C 0.63033 0.15244 0.24736 0.0
C606 C 0.65204 0.16456 0.25992 0.0
C607 C 0.68601 0.20143 0.26083 0.0
C608 C 0.64325 0.17932 0.23611 0.0
C609 C 0.6771 0.21643 0.23754 0.0
N610 N 0.80322 0.32344 0.25162 0.0
C611 C 0.84538 0.39257 0.25626 0.0
C612 C 0.87866 0.39079 0.25227 0.0
C613 C 0.87314 0.3545 0.24798 0.0
C614 C 0.83549 0.3216 0.24755 0.0
C615 C 0.80813 0.35857 0.25606 0.0
H616 H 0.83262 0.29459 0.24384 0.0
H617 H 0.78333 0.3608 0.25947 0.0
H618 H 0.70239 0.20856 0.27053 0.0
H619 H 0.68607 0.23617 0.22867 0.0
C620 C 0.77658 0.21662 0.23739 0.0
C621 C 0.75254 0.31543 0.21712 0.0
C622 C 0.77693 0.26258 0.28492 0.0
C623 C 0.69901 0.31122 0.2635 0.0
H624 H 0.76642 0.27 0.19615 0.0
H625 H 0.77799 0.21511 0.20707 0.0
H626 H 0.80719 0.18415 0.25732 0.0
H627 H 0.81171 0.21315 0.28295 0.0
H628 H 0.7332 0.28078 0.30512 0.0
H629 H 0.68882 0.30515 0.29337 0.0
H630 H 0.69037 0.36348 0.24554 0.0
H631 H 0.72751 0.37297 0.22155 0.0
H632 H 0.64367 0.14508 0.26891 0.0
H633 H 0.6273 0.17178 0.22623 0.0
H634 H 0.84817 0.41992 0.25972 0.0
H635 H 0.8978 0.35165 0.2447 0.0
C636 C 0.21675 0.47156 0.97024 0.0
C637 C 0.25401 0.4958 0.96452 0.0
C638 C 0.21126 0.46486 0.98492 0.0
C639 C 0.24339 0.48509 0.99426 0.0
C640 C 0.28115 0.50927 0.98846 0.0
C641 C 0.2861 0.51299 0.97372 0.0
C642 C 0.17068 0.43676 0.99021 0.0
C643 C 0.31631 0.53285 0.99778 0.0
C644 C 0.22352 0.50875 0.03139 0.0
C645 C 0.23877 0.49062 0.03993 0.0
C646 C 0.22409 0.50658 0.01655 0.0
C647 C 0.23772 0.48339 0.01 0.0
C648 C 0.24952 0.46189 0.01867 0.0
C649 C 0.25137 0.46698 0.03344 0.0
C650 C 0.21237 0.53115 0.00793 0.0
C651 C 0.26179 0.43456 0.0125 0.0
H652 H 0.19164 0.45833 0.96327 0.0
H653 H 0.31502 0.53152 0.96936 0.0
H654 H 0.17063 0.4261 1.00105 0.0
H655 H 0.15299 0.45135 0.99012 0.0
H656 H 0.15602 0.41118 0.98303 0.0
H657 H 0.34143 0.55585 0.99176 0.0
H658 H 0.30917 0.54704 0.00648 0.0
H659 H 0.32561 0.51332 1.00259 0.0
H660 H 0.21401 0.52726 0.03634 0.0
H661 H 0.26417 0.45355 0.03981 0.0
H662 H 0.18455 0.51193 1.00238 0.0
H663 H 0.23484 0.54805 0.99981 0.0
H664 H 0.20822 0.55191 0.01458 0.0
H665 H 0.24976 0.42436 1.00176 0.0
H666 H 0.25208 0.40864 0.01943 0.0
H667 H 0.29411 0.4496 0.01198 0.0
C668 C 0.80887 0.25619 0.36942 0.0
C669 C 0.77172 0.24403 0.37506 0.0
C670 C 0.81452 0.25521 0.35474 0.0
C671 C 0.78276 0.24448 0.34533 0.0
C672 C 0.74506 0.23161 0.35105 0.0
C673 C 0.73985 0.22999 0.36578 0.0
C674 C 0.85493 0.26668 0.34958 0.0
C675 C 0.71023 0.22124 0.34171 0.0
C676 C 0.80494 0.2909 0.30865 0.0
C677 C 0.78718 0.25804 0.29982 0.0
C678 C 0.80466 0.28704 0.32345 0.0
C679 C 0.78886 0.2494 0.32961 0.0
C680 C 0.77493 0.21642 0.32058 0.0
C681 C 0.77283 0.22097 0.30589 0.0
C682 C 0.81896 0.32322 0.33242 0.0
C683 C 0.76049 0.17582 0.32624 0.0
H684 H 0.83381 0.26735 0.37645 0.0
H685 H 0.711 0.2202 0.37008 0.0
H686 H 0.85536 0.25843 0.33841 0.0
H687 H 0.87424 0.2987 0.35073 0.0
H688 H 0.86754 0.25267 0.35625 0.0
H689 H 0.68606 0.22129 0.34765 0.0
H690 H 0.71829 0.24194 0.33273 0.0
H691 H 0.69903 0.19155 0.33732 0.0
H692 H 0.81593 0.31959 0.30402 0.0
H693 H 0.75827 0.19519 0.29929 0.0
H694 H 0.84738 0.33071 0.33724 0.0
H695 H 0.79809 0.31822 0.3411 0.0
H696 H 0.82317 0.34877 0.32615 0.0
H697 H 0.77054 0.17586 0.33719 0.0
H698 H 0.77065 0.15999 0.31935 0.0
H699 H 0.72811 0.15919 0.326 0.0
C700 C 0.50905 0.72583 0.6981 0.0
C701 C 0.52818 0.75983 0.70633 0.0
C702 C 0.51128 0.72742 0.68324 0.0
C703 C 0.53537 0.76361 0.67638 0.0
C704 C 0.55737 0.79753 0.68472 0.0
C705 C 0.5523 0.79553 0.69949 0.0
C706 C 0.48571 0.69078 0.67489 0.0
C707 C 0.58525 0.83641 0.67808 0.0
C708 C 0.55057 0.75277 0.63706 0.0
C709 C 0.52549 0.76374 0.6307 0.0
C710 C 0.55637 0.75531 0.65182 0.0
C711 C 0.53443 0.76639 0.66057 0.0
C712 C 0.5095 0.77802 0.65414 0.0
C713 C 0.50655 0.77795 0.63933 0.0
C714 C 0.58526 0.74514 0.658 0.0
C715 C 0.48417 0.78847 0.6629 0.0
H716 H 0.49001 0.69825 0.70329 0.0
H717 H 0.56623 0.82226 0.7056 0.0
H718 H 0.46646 0.69574 0.66771 0.0
H719 H 0.50396 0.68319 0.66824 0.0
H720 H 0.46715 0.66545 0.68181 0.0
H721 H 0.60808 0.85592 0.68571 0.0
H722 H 0.59971 0.83273 0.66863 0.0
H723 H 0.56901 0.85111 0.67472 0.0
H724 H 0.56504 0.74133 0.63054 0.0
H725 H 0.48726 0.78664 0.63448 0.0
H726 H 0.56967 0.7144 0.66166 0.0
H727 H 0.60071 0.76401 0.66721 0.0
H728 H 0.60726 0.74824 0.65004 0.0
H729 H 0.4669 0.76486 0.67062 0.0
H730 H 0.46369 0.79321 0.65632 0.0
H731 H 0.50268 0.81548 0.669 0.0
C732 C 0.79997 0.51888 0.03175 0.0
C733 C 0.78238 0.53422 0.04051 0.0
C734 C 0.79997 0.5225 0.01696 0.0
C735 C 0.785 0.54497 0.01075 0.0
C736 C 0.77137 0.56434 0.01973 0.0
C737 C 0.76874 0.55744 0.0344 0.0
C738 C 0.81383 0.50007 0.0081 0.0
C739 C 0.75783 0.59116 0.01405 0.0
C740 C 0.80831 0.55805 0.97126 0.0
C741 C 0.77132 0.53462 0.96518 0.0
C742 C 0.81285 0.56465 0.98594 0.0
C743 C 0.78005 0.54464 0.99499 0.0
C744 C 0.74254 0.52115 0.98886 0.0
C745 C 0.73858 0.51785 0.97407 0.0
C746 C 0.85327 0.59225 0.9915 0.0
C747 C 0.70654 0.49769 0.99781 0.0
H748 H 0.81038 0.50076 0.03642 0.0
H749 H 0.75427 0.56881 0.04095 0.0
H750 H 0.79495 0.48682 0.9987 0.0
H751 H 0.84396 0.52022 0.00439 0.0
H752 H 0.81436 0.47641 0.01424 0.0
H753 H 0.76915 0.61758 0.02081 0.0
H754 H 0.7674 0.60056 0.00302 0.0
H755 H 0.7255 0.57622 0.01455 0.0
H756 H 0.83408 0.57038 0.96462 0.0
H757 H 0.70995 0.49956 0.96945 0.0
H758 H 0.87152 0.57837 0.99056 0.0
H759 H 0.85331 0.6009 1.00265 0.0
H760 H 0.86738 0.61908 0.98491 0.0
H761 H 0.71302 0.48515 0.00722 0.0
H762 H 0.68274 0.47339 0.99173 0.0
H763 H 0.69552 0.51693 1.00151 0.0
C764 C 0.23463 0.73386 0.30684 0.0
C765 C 0.2578 0.76492 0.29778 0.0
C766 C 0.23653 0.73912 0.32159 0.0
C767 C 0.26216 0.77644 0.32745 0.0
C768 C 0.28427 0.80835 0.31824 0.0
C769 C 0.28212 0.8021 0.30353 0.0
C770 C 0.21247 0.70425 0.33095 0.0
C771 C 0.31189 0.84874 0.32382 0.0
C772 C 0.24364 0.78449 0.36653 0.0
C773 C 0.26639 0.77055 0.37298 0.0
C774 C 0.24306 0.78838 0.35172 0.0
C775 C 0.26771 0.78072 0.34315 0.0
C776 C 0.29603 0.77431 0.34975 0.0
C777 C 0.29593 0.77085 0.36454 0.0
C778 C 0.21474 0.79886 0.3452 0.0
C779 C 0.32474 0.76837 0.34115 0.0
H780 H 0.21629 0.70503 0.3024 0.0
H781 H 0.30069 0.82601 0.29655 0.0
H782 H 0.23213 0.69798 0.33738 0.0
H783 H 0.19473 0.71069 0.33837 0.0
H784 H 0.1926 0.6777 0.32478 0.0
H785 H 0.31681 0.87148 0.3159 0.0
H786 H 0.30094 0.85484 0.33372 0.0
H787 H 0.34052 0.85123 0.32613 0.0
H788 H 0.22612 0.79253 0.3727 0.0
H789 H 0.31787 0.76593 0.36938 0.0
H790 H 0.19192 0.77333 0.33932 0.0
H791 H 0.23002 0.82301 0.3375 0.0
H792 H 0.20024 0.80769 0.35325 0.0
H793 H 0.30873 0.74143 0.33471 0.0
H794 H 0.34627 0.76568 0.34788 0.0
H795 H 0.34076 0.79309 0.33374 0.0
C796 C 0.52 0.24187 0.7004 0.0
C797 C 0.50257 0.2588 0.70844 0.0
C798 C 0.5157 0.23849 0.68565 0.0
C799 C 0.49076 0.24937 0.6788 0.0
C800 C 0.46964 0.26243 0.68709 0.0
C801 C 0.47662 0.26802 0.70176 0.0
C802 C 0.53983 0.22555 0.67737 0.0
C803 C 0.44054 0.27171 0.68051 0.0
C804 C 0.51866 0.28681 0.64113 0.0
C805 C 0.50047 0.25212 0.63325 0.0
C806 C 0.51514 0.28641 0.65591 0.0
C807 C 0.49029 0.2508 0.66296 0.0
C808 C 0.46836 0.21634 0.65484 0.0
C809 C 0.47452 0.21719 0.64012 0.0
C810 C 0.54004 0.32375 0.664 0.0
C811 C 0.43929 0.17823 0.66165 0.0
H812 H 0.53906 0.23344 0.7056 0.0
H813 H 0.46234 0.2803 0.70796 0.0
H814 H 0.52044 0.19795 0.67172 0.0
H815 H 0.55752 0.24783 0.6693 0.0
H816 H 0.55984 0.2208 0.68423 0.0
H817 H 0.41778 0.26782 0.68826 0.0
H818 H 0.45575 0.30261 0.67703 0.0
H819 H 0.42607 0.25296 0.67118 0.0
H820 H 0.53774 0.3141 0.63578 0.0
H821 H 0.45967 0.19041 0.63405 0.0
H822 H 0.55804 0.31924 0.67194 0.0
H823 H 0.52119 0.33235 0.66977 0.0
H824 H 0.55983 0.34829 0.65698 0.0
H825 H 0.45442 0.16256 0.66519 0.0
H826 H 0.41619 0.15905 0.65405 0.0
H827 H 0.42527 0.18304 0.67099 0.0
C828 C 0.235 0.64649 0.19888 0.0
C829 C 0.26131 0.68678 0.19945 0.0
C830 C 0.23177 0.62455 0.18668 0.0
C831 C 0.25599 0.64318 0.17482 0.0
C832 C 0.28206 0.68413 0.17529 0.0
C833 C 0.28437 0.70539 0.18758 0.0
C834 C 0.20333 0.58118 0.18667 0.0
C835 C 0.30872 0.7053 0.16303 0.0
C836 C 0.28204 0.58437 0.1494 0.0
C837 C 0.25875 0.58008 0.13762 0.0
C838 C 0.28074 0.60397 0.16166 0.0
C839 C 0.25552 0.61975 0.1622 0.0
C840 C 0.23116 0.61448 0.15042 0.0
C841 C 0.23336 0.59507 0.13825 0.0
C842 C 0.3075 0.60908 0.17384 0.0
C843 C 0.20362 0.63039 0.1505 0.0
H844 H 0.21771 0.63195 0.20815 0.0
H845 H 0.30541 0.73636 0.18813 0.0
H846 H 0.18448 0.57284 0.17715 0.0
H847 H 0.21959 0.56513 0.18626 0.0
H848 H 0.18444 0.57162 0.19622 0.0
H849 H 0.32596 0.73736 0.16475 0.0
H850 H 0.32925 0.69428 0.16138 0.0
H851 H 0.29149 0.69952 0.15318 0.0
H852 H 0.3024 0.57367 0.1488 0.0
H853 H 0.21588 0.59242 0.12905 0.0
H854 H 0.29042 0.5979 0.18374 0.0
H855 H 0.32857 0.6406 0.17545 0.0
H856 H 0.32413 0.59372 0.17205 0.0
H857 H 0.18485 0.6202 0.16006 0.0
H858 H 0.18463 0.62144 0.14099 0.0
H859 H 0.22059 0.66274 0.15093 0.0
C860 C 0.64547 0.22074 0.47459 0.0
C861 C 0.6857 0.24735 0.47397 0.0
C862 C 0.62327 0.21859 0.48656 0.0
C863 C 0.6416 0.24402 0.49815 0.0
C864 C 0.68255 0.27018 0.49769 0.0
C865 C 0.70406 0.27153 0.48561 0.0
C866 C 0.5799 0.1901 0.48656 0.0
C867 C 0.70342 0.29793 0.50974 0.0
C868 C 0.58312 0.27291 0.52255 0.0
C869 C 0.5789 0.25087 0.53469 0.0
C870 C 0.60233 0.27003 0.51045 0.0
C871 C 0.61791 0.24461 0.51048 0.0
C872 C 0.61243 0.2213 0.52259 0.0
C873 C 0.59328 0.22494 0.53456 0.0
C874 C 0.60754 0.29558 0.49785 0.0
C875 C 0.62824 0.19369 0.52314 0.0
H876 H 0.63117 0.20251 0.46547 0.0
H877 H 0.73501 0.29262 0.48502 0.0
H878 H 0.57138 0.17212 0.49631 0.0
H879 H 0.56381 0.20633 0.48651 0.0
H880 H 0.57056 0.17036 0.47725 0.0
H881 H 0.73552 0.31502 0.5081 0.0
H882 H 0.69236 0.31858 0.51089 0.0
H883 H 0.69739 0.28157 0.51981 0.0
H884 H 0.57303 0.29378 0.52277 0.0
H885 H 0.5908 0.20852 0.54405 0.0
H886 H 0.59699 0.27765 0.48811 0.0
H887 H 0.63903 0.31689 0.49633 0.0
H888 H 0.59169 0.31192 0.49911 0.0
H889 H 0.61856 0.17437 0.51372 0.0
H890 H 0.61875 0.17527 0.53279 0.0
H891 H 0.66062 0.21063 0.52294 0.0
C892 C 0.44366 0.70791 0.8165 0.0
C893 C 0.44585 0.68963 0.80413 0.0
C894 C 0.42393 0.68595 0.82857 0.0
C895 C 0.40575 0.6446 0.82829 0.0
C896 C 0.40901 0.62619 0.81592 0.0
C897 C 0.4287 0.64887 0.80398 0.0
C898 C 0.42111 0.70694 0.84143 0.0
C899 C 0.39045 0.58237 0.81511 0.0
C900 C 0.37728 0.59235 0.86405 0.0
C901 C 0.33769 0.58118 0.86504 0.0
C902 C 0.39946 0.61174 0.85198 0.0
C903 C 0.38179 0.62073 0.84066 0.0
C904 C 0.34141 0.60841 0.84149 0.0
C905 C 0.3199 0.58881 0.85366 0.0
C906 C 0.44217 0.62392 0.85157 0.0
C907 C 0.32127 0.6174 0.82977 0.0
H908 H 0.45596 0.73931 0.81651 0.0
H909 H 0.42968 0.63465 0.79432 0.0
H910 H 0.39015 0.69842 0.84328 0.0
H911 H 0.43137 0.69833 0.85094 0.0
H912 H 0.43853 0.73918 0.84027 0.0
H913 H 0.39833 0.57277 0.80524 0.0
H914 H 0.39949 0.57132 0.82429 0.0
H915 H 0.35821 0.56872 0.81557 0.0
H916 H 0.39119 0.58703 0.87297 0.0
H917 H 0.28948 0.58085 0.85454 0.0
H918 H 0.46016 0.65624 0.85176 0.0
H919 H 0.44907 0.61383 0.84162 0.0
H920 H 0.4508 0.6121 0.86065 0.0
H921 H 0.33426 0.64948 0.82878 0.0
H922 H 0.28941 0.60413 0.83167 0.0
H923 H 0.32572 0.60655 0.81954 0.0
C924 C 0.71636 0.38386 0.14076 0.0
C925 C 0.74697 0.42021 0.13625 0.0
C926 C 0.71982 0.36506 0.1528 0.0
C927 C 0.75129 0.38591 0.16237 0.0
C928 C 0.78043 0.42469 0.15866 0.0
C929 C 0.77911 0.44015 0.14533 0.0
C930 C 0.68948 0.32253 0.15478 0.0
C931 C 0.81307 0.4508 0.16856 0.0
C932 C 0.71983 0.33525 0.19838 0.0
C933 C 0.75199 0.33195 0.2027 0.0
C934 C 0.72117 0.35616 0.1862 0.0
C935 C 0.75221 0.36778 0.17635 0.0
C936 C 0.78291 0.36035 0.17988 0.0
C937 C 0.78355 0.34495 0.1933 0.0
C938 C 0.68921 0.3661 0.18442 0.0
C939 C 0.81531 0.36798 0.1697 0.0
H940 H 0.68978 0.36898 0.1346 0.0
H941 H 0.8029 0.46855 0.14222 0.0
H942 H 0.69798 0.30748 0.16269 0.0
H943 H 0.66131 0.32004 0.15789 0.0
H944 H 0.68421 0.30679 0.14457 0.0
H945 H 0.81836 0.48111 0.16803 0.0
H946 H 0.80703 0.44096 0.17971 0.0
H947 H 0.84043 0.45201 0.1651 0.0
H948 H 0.69382 0.32302 0.20488 0.0
H949 H 0.80853 0.34223 0.19627 0.0
H950 H 0.66159 0.33938 0.1815 0.0
H951 H 0.69618 0.3892 0.17644 0.0
H952 H 0.68371 0.37626 0.19465 0.0
H953 H 0.82186 0.34381 0.17019 0.0
H954 H 0.84231 0.39495 0.17293 0.0
H955 H 0.80824 0.371 0.1586 0.0
C956 C 0.42917 0.78368 0.53037 0.0
C957 C 0.44228 0.75675 0.53101 0.0
C958 C 0.40992 0.7866 0.51829 0.0
C959 C 0.40305 0.76157 0.50659 0.0
C960 C 0.41731 0.73505 0.50707 0.0
C961 C 0.43672 0.73298 0.51926 0.0
C962 C 0.39565 0.81548 0.51827 0.0
C963 C 0.4106 0.70765 0.49494 0.0
C964 C 0.3165 0.73456 0.48189 0.0
C965 C 0.33486 0.75696 0.46986 0.0
C966 C 0.33816 0.73661 0.49402 0.0
C967 C 0.37933 0.7616 0.49415 0.0
C968 C 0.39777 0.78518 0.48214 0.0
C969 C 0.37539 0.78232 0.47012 0.0
C970 C 0.31715 0.71073 0.50648 0.0
C971 C 0.44138 0.81241 0.48178 0.0
H972 H 0.43289 0.80161 0.53956 0.0
H973 H 0.44616 0.71163 0.51986 0.0
H974 H 0.40571 0.83371 0.50859 0.0
H975 H 0.36326 0.79957 0.51817 0.0
H976 H 0.40596 0.83495 0.52766 0.0
H977 H 0.42524 0.69028 0.49661 0.0
H978 H 0.37882 0.68726 0.4936 0.0
H979 H 0.42153 0.72433 0.48495 0.0
H980 H 0.28535 0.71412 0.48157 0.0
H981 H 0.38974 0.79903 0.46072 0.0
H982 H 0.32424 0.72841 0.51627 0.0
H983 H 0.32712 0.68932 0.50803 0.0
H984 H 0.28495 0.69449 0.50504 0.0
H985 H 0.45095 0.83156 0.49124 0.0
H986 H 0.45089 0.83101 0.47217 0.0
H987 H 0.45645 0.79518 0.48205 0.0
C988 C 0.65347 0.42971 0.86798 0.0
C989 C 0.69392 0.44454 0.86804 0.0
C990 C 0.63054 0.41017 0.85607 0.0
C991 C 0.64833 0.40464 0.84396 0.0
C992 C 0.68941 0.42032 0.84391 0.0
C993 C 0.71165 0.44001 0.85594 0.0
C994 C 0.58706 0.39433 0.85661 0.0
C995 C 0.70972 0.41497 0.83134 0.0
C996 C 0.5893 0.31889 0.81886 0.0
C997 C 0.58407 0.33747 0.80716 0.0
C998 C 0.60904 0.34016 0.83105 0.0
C999 C 0.62402 0.38109 0.83158 0.0
C1000 C 0.61745 0.39964 0.81994 0.0
C1001 C 0.5979 0.3777 0.80785 0.0
C1002 C 0.61549 0.31907 0.8431 0.0
C1003 C 0.63248 0.443 0.82002 0.0
H1004 H 0.63964 0.43251 0.87745 0.0
H1005 H 0.74275 0.45055 0.8561 0.0
H1006 H 0.57755 0.40433 0.84726 0.0
H1007 H 0.57147 0.36196 0.85626 0.0
H1008 H 0.57808 0.40351 0.86633 0.0
H1009 H 0.74193 0.43033 0.83268 0.0
H1010 H 0.69895 0.38342 0.82972 0.0
H1011 H 0.70285 0.426 0.82162 0.0
H1012 H 0.57955 0.288 0.8182 0.0
H1013 H 0.59461 0.39223 0.79869 0.0
H1014 H 0.60528 0.32522 0.85318 0.0
H1015 H 0.64718 0.32982 0.84427 0.0
H1016 H 0.60009 0.28696 0.84145 0.0
H1017 H 0.62311 0.45145 0.8298 0.0
H1018 H 0.62207 0.45243 0.81074 0.0
H1019 H 0.66487 0.45909 0.81994 0.0
C1020 C 0.94095 0.5225 0.09736 0.0
C1021 C 0.91253 0.49735 0.08757 0.0
C1022 C 0.97946 0.52912 0.09723 0.0
C1023 C 0.99025 0.5092 0.0874 0.0
C1024 C 0.96178 0.48326 0.07765 0.0
C1025 C 0.92372 0.47807 0.07772 0.0
C1026 C 1.00869 0.55751 0.10771 0.0
C1027 C 0.97145 0.4606 0.06719 0.0
C1028 C 0.09889 0.54702 0.07953 0.0
C1029 C 0.10762 0.52419 0.08859 0.0
C1030 C 0.06121 0.54281 0.07913 0.0
C1031 C 0.03078 0.51443 0.08772 0.0
C1032 C 0.03929 0.49136 0.09686 0.0
C1033 C 0.07738 0.49696 0.09737 0.0
C1034 C 0.05395 0.56885 0.06948 0.0
C1035 C 1.00798 0.46036 0.1061 0.0
H1036 H 0.9332 0.53696 0.10535 0.0
H1037 H 0.90287 0.45903 0.06991 0.0
H1038 H 0.01771 0.54181 0.11512 0.0
H1039 H 0.03533 0.57959 0.10211 0.0
H1040 H 0.99675 0.57291 0.11395 0.0
H1041 H 0.94607 0.44104 0.06046 0.0
H1042 H 0.99577 0.481 0.06025 0.0
H1043 H 0.9814 0.44266 0.07289 0.0
H1044 H 0.12131 0.56793 0.07256 0.0
H1045 H 0.08331 0.47982 0.1048 0.0
H1046 H 0.04248 0.58474 0.07567 0.0
H1047 H 0.03148 0.55092 0.06152 0.0
H1048 H 0.08083 0.59051 0.06387 0.0
H1049 H 0.99726 0.47402 0.11376 0.0
H1050 H 0.01862 0.44336 0.11207 0.0
H1051 H 0.98268 0.43986 0.09954 0.0
C1052 C 0.5564 0.08723 0.41146 0.0
C1053 C 0.58617 0.09626 0.42139 0.0
C1054 C 0.52292 0.04955 0.4108 0.0
C1055 C 0.51912 0.01978 0.42014 0.0
C1056 C 0.54878 0.02883 0.43027 0.0
C1057 C 0.58134 0.06679 0.43091 0.0
C1058 C 0.49163 0.04154 0.40005 0.0
C1059 C 0.54634 0.99823 0.44042 0.0
C1060 C 0.41963 0.93095 0.42861 0.0
C1061 C 0.41846 0.90169 0.41979 0.0
C1062 C 0.45142 0.96948 0.42847 0.0
C1063 C 0.48391 0.97936 0.41962 0.0
C1064 C 0.48342 0.95005 0.41085 0.0
C1065 C 0.45073 0.91185 0.41094 0.0
C1066 C 0.45029 0.99962 0.43793 0.0
C1067 C 0.51771 0.95896 0.40146 0.0
H1068 H 0.55954 0.10934 0.40399 0.0
H1069 H 0.60321 0.07329 0.43896 0.0
H1070 H 0.48843 0.01836 0.39266 0.0
H1071 H 0.46311 0.03065 0.40543 0.0
H1072 H 0.49822 0.06794 0.39383 0.0
H1073 H 0.57252 0.00945 0.4473 0.0
H1074 H 0.52018 0.98775 0.44723 0.0
H1075 H 0.54315 0.97266 0.43446 0.0
H1076 H 0.39577 0.9238 0.43584 0.0
H1077 H 0.45042 0.89007 0.40394 0.0
H1078 H 0.45589 0.0256 0.43166 0.0
H1079 H 0.47363 0.00956 0.44602 0.0
H1080 H 0.42179 0.98812 0.44342 0.0
H1081 H 0.52328 0.98291 0.39405 0.0
H1082 H 0.51295 0.93314 0.39524 0.0
H1083 H 0.54439 0.96914 0.40798 0.0
C1084 C 0.5483 0.46278 0.76456 0.0
C1085 C 0.52456 0.42897 0.75664 0.0
C1086 C 0.54231 0.49516 0.76441 0.0
C1087 C 0.5125 0.49449 0.75584 0.0
C1088 C 0.48893 0.46063 0.74763 0.0
C1089 C 0.49486 0.4283 0.74828 0.0
C1090 C 0.56766 0.52999 0.7736 0.0
C1091 C 0.45755 0.45864 0.73803 0.0
C1092 C 0.47365 0.56441 0.76374 0.0
C1093 C 0.49599 0.59581 0.75461 0.0
C1094 C 0.47884 0.53156 0.76434 0.0
C1095 C 0.50633 0.52927 0.75531 0.0
C1096 C 0.52813 0.56051 0.74579 0.0
C1097 C 0.52314 0.59344 0.74571 0.0
C1098 C 0.45554 0.49967 0.7749 0.0
C1099 C 0.55694 0.55926 0.73567 0.0
H1100 H 0.57103 0.46354 0.77116 0.0
H1101 H 0.47651 0.4025 0.74204 0.0
H1102 H 0.58438 0.55633 0.76695 0.0
H1103 H 0.5491 0.53589 0.7808 0.0
H1104 H 0.5886 0.52559 0.78004 0.0
H1105 H 0.44238 0.43078 0.73204 0.0
H1106 H 0.43559 0.46171 0.74431 0.0
H1107 H 0.47054 0.48323 0.7304 0.0
H1108 H 0.45299 0.56616 0.77079 0.0
H1109 H 0.5405 0.61749 0.7386 0.0
H1110 H 0.47564 0.49618 0.78214 0.0
H1111 H 0.43782 0.47142 0.76937 0.0
H1112 H 0.43573 0.50584 0.78129 0.0
H1113 H 0.5807 0.55863 0.74166 0.0
H1114 H 0.57015 0.58479 0.72843 0.0
H1115 H 0.54227 0.53218 0.72925 0.0
C1116 C 0.48867 0.07215 0.57476 0.0
C1117 C 0.51724 0.10135 0.58349 0.0
C1118 C 0.4815 0.03349 0.57489 0.0
C1119 C 0.504 0.02338 0.5837 0.0
C1120 C 0.53317 0.05261 0.59242 0.0
C1121 C 0.53919 0.09094 0.59231 0.0
C1122 C 0.44992 1.00345 0.56547 0.0
C1123 C 0.55837 0.04348 0.60181 0.0
C1124 C 0.4682 0.91561 0.59216 0.0
C1125 C 0.4891 0.90646 0.58236 0.0
C1126 C 0.47235 0.95323 0.59264 0.0
C1127 C 0.49836 0.98282 0.58321 0.0
C1128 C 0.51898 0.97357 0.57317 0.0
C1129 C 0.51373 0.93569 0.57274 0.0
C1130 C 0.44914 0.96146 0.60333 0.0
C1131 C 0.54715 1.00393 0.56293 0.0
H1132 H 0.47198 0.07948 0.5676 0.0
H1133 H 0.56095 0.11264 0.59927 0.0
H1134 H 0.46307 0.99322 0.5574 0.0
H1135 H 0.4293 0.97762 0.57178 0.0
H1136 H 0.43318 0.01516 0.55996 0.0
H1137 H 0.57967 0.06923 0.60802 0.0
H1138 H 0.53981 0.01959 0.60922 0.0
H1139 H 0.57468 0.03313 0.59528 0.0
H1140 H 0.44924 0.89367 0.5997 0.0
H1141 H 0.52925 0.92907 0.5648 0.0
H1142 H 0.43178 0.97256 0.59792 0.0
H1143 H 0.46925 0.98455 0.61074 0.0
H1144 H 0.42902 0.93511 0.60954 0.0
H1145 H 0.53156 0.01465 0.5562 0.0
H1146 H 0.56166 0.99243 0.55597 0.0
H1147 H 0.56998 0.02942 0.56883 0.0
C1148 C 0.44097 0.50397 0.90775 0.0
C1149 C 0.43764 0.53011 0.91696 0.0
C1150 C 0.47347 0.49856 0.90809 0.0
C1151 C 0.50454 0.52064 0.91758 0.0
C1152 C 0.50216 0.54799 0.92661 0.0
C1153 C 0.46874 0.55219 0.92628 0.0
C1154 C 0.47438 0.46889 0.89831 0.0
C1155 C 0.53495 0.57281 0.93667 0.0
C1156 C 0.57459 0.48321 0.92648 0.0
C1157 C 0.6056 0.50436 0.91701 0.0
C1158 C 0.54171 0.48826 0.92683 0.0
C1159 C 0.53979 0.51565 0.91769 0.0
C1160 C 0.57094 0.53715 0.90817 0.0
C1161 C 0.6029 0.53084 0.90779 0.0
C1162 C 0.50883 0.46403 0.93694 0.0
C1163 C 0.57051 0.56689 0.89829 0.0
H1164 H 0.41802 0.4875 0.90016 0.0
H1165 H 0.46676 0.57231 0.93352 0.0
H1166 H 0.49942 0.48359 0.89093 0.0
H1167 H 0.47855 0.44746 0.9045 0.0
H1168 H 0.44717 0.45279 0.892 0.0
H1169 H 0.52923 0.59341 0.94275 0.0
H1170 H 0.53928 0.55387 0.94421 0.0
H1171 H 0.56264 0.58982 0.93072 0.0
H1172 H 0.57612 0.46297 0.93379 0.0
H1173 H 0.62574 0.54669 0.9001 0.0
H1174 H 0.48123 0.44664 0.93098 0.0
H1175 H 0.50436 0.48337 0.94423 0.0
H1176 H 0.51448 0.4438 0.9433 0.0
H1177 H 0.54588 0.55219 0.89074 0.0
H1178 H 0.59805 0.58307 0.89217 0.0
H1179 H 0.56594 0.58824 0.90436 0.0
C1180 C 0.08693 0.59139 0.26056 0.0
C1181 C 0.11469 0.59346 0.25082 0.0
C1182 C 0.0489 0.5585 0.26122 0.0
C1183 C 0.03749 0.52708 0.2516 0.0
C1184 C 0.06543 0.52921 0.24167 0.0
C1185 C 0.1037 0.56196 0.24154 0.0
C1186 C 0.02089 0.55737 0.27228 0.0
C1187 C 0.05465 0.4972 0.23094 0.0
C1188 C 0.94949 0.42573 0.25983 0.0
C1189 C 0.91892 0.42622 0.25247 0.0
C1190 C 0.98777 0.45834 0.25984 0.0
C1191 C 0.99643 0.49221 0.25192 0.0
C1192 C 0.96565 0.49267 0.24435 0.0
C1193 C 0.92734 0.46006 0.24489 0.0
C1194 C 0.01897 0.45661 0.26843 0.0
C1195 C 0.97332 0.52742 0.23545 0.0
H1196 H 0.09517 0.61554 0.26779 0.0
H1197 H 0.12477 0.56349 0.23388 0.0
H1198 H 0.99534 0.55652 0.26712 0.0
H1199 H 1.00976 0.53043 0.27872 0.0
H1200 H 0.0347 0.58306 0.27944 0.0
H1201 H 0.07923 0.50348 0.22372 0.0
H1202 H 0.04546 0.4691 0.23638 0.0
H1203 H 0.02946 0.49336 0.22455 0.0
H1204 H 0.94329 0.39981 0.26576 0.0
H1205 H 0.90407 0.4606 0.23904 0.0
H1206 H 0.03227 0.48145 0.27595 0.0
H1207 H 0.04261 0.45937 0.26139 0.0
H1208 H 1.00735 0.42894 0.27448 0.0
H1209 H 0.98434 0.5538 0.24218 0.0
H1210 H 0.94672 0.52291 0.22984 0.0
H1211 H 0.99629 0.53334 0.22751 0.0
C1212 C 0.55068 0.45452 0.09476 0.0
C1213 C 0.5891 0.48601 0.09394 0.0
C1214 C 0.51833 0.46057 0.09504 0.0
C1215 C 0.52433 0.49912 0.09491 0.0
C1216 C 0.56326 0.53098 0.09458 0.0
C1217 C 0.59493 0.52405 0.09388 0.0
C1218 C 0.47761 0.4256 0.09497 0.0
C1219 C 0.57154 0.57257 0.09485 0.0
C1220 C 0.44461 0.51881 0.08099 0.0
C1221 C 0.42528 0.51987 0.09338 0.0
C1222 C 0.47592 0.5113 0.08135 0.0
C1223 C 0.4901 0.50618 0.09446 0.0
C1224 C 0.47181 0.50839 0.10704 0.0
C1225 C 0.43952 0.51451 0.10636 0.0
C1226 C 0.49374 0.50859 0.06759 0.0
C1227 C 0.48643 0.50434 0.12131 0.0
H1228 H 0.54588 0.42506 0.09469 0.0
H1229 H 0.62451 0.54855 0.0933 0.0
H1230 H 0.46087 0.42672 0.10418 0.0
H1231 H 0.46197 0.42611 0.08531 0.0
H1232 H 0.47768 0.39759 0.09528 0.0
H1233 H 0.60324 0.59401 0.09576 0.0
H1234 H 0.56041 0.5789 0.08505 0.0
H1235 H 0.55611 0.57682 0.10386 0.0
H1236 H 0.43558 0.52406 0.07084 0.0
H1237 H 0.42522 0.51455 0.11609 0.0
H1238 H 0.49361 0.48052 0.06707 0.0
H1239 H 0.52461 0.53238 0.06697 0.0
H1240 H 0.47791 0.51067 0.05825 0.0
H1241 H 0.48297 0.47487 0.12236 0.0
H1242 H 0.47064 0.50884 0.13014 0.0
H1243 H 0.51806 0.52587 0.12233 0.0
C1244 C 0.93929 0.41625 0.42236 0.0
C1245 C 0.90851 0.41551 0.43002 0.0
C1246 C 0.97723 0.4491 0.42257 0.0
C1247 C 0.98524 0.4821 0.43088 0.0
C1248 C 0.9543 0.48149 0.4387 0.0
C1249 C 0.91631 0.44848 0.43804 0.0
C1250 C 1.00875 0.44856 0.41376 0.0
C1251 C 0.96145 0.51557 0.4479 0.0
C1252 C 0.09331 0.55225 0.43968 0.0
C1253 C 0.10379 0.58231 0.42972 0.0
C1254 C 0.05473 0.52022 0.44049 0.0
C1255 C 0.02569 0.51751 0.43099 0.0
C1256 C 0.03585 0.54801 0.42113 0.0
C1257 C 0.07426 0.58002 0.42076 0.0
C1258 C 0.04519 0.48887 0.45138 0.0
C1259 C 1.00629 0.54644 0.41066 0.0
H1260 H 0.93352 0.39108 0.41604 0.0
H1261 H 0.89287 0.44806 0.4441 0.0
H1262 H 0.02089 0.47329 0.40619 0.0
H1263 H 0.0331 0.45238 0.42065 0.0
H1264 H 0.9978 0.42093 0.40774 0.0
H1265 H 0.93473 0.51026 0.45363 0.0
H1266 H 0.98463 0.52149 0.45574 0.0
H1267 H 0.97198 0.54224 0.44137 0.0
H1268 H 0.11542 0.55315 0.44666 0.0
H1269 H 0.08106 0.60336 0.41333 0.0
H1270 H 0.03782 0.46107 0.44603 0.0
H1271 H 0.01923 0.48356 0.45761 0.0
H1272 H 0.06988 0.49665 0.45874 0.0
H1273 H 0.99551 0.52003 0.40395 0.0
H1274 H 0.01861 0.57253 0.4037 0.0
H1275 H 0.9807 0.54417 0.41632 0.0
C1276 C 0.55538 0.1043 0.75248 0.0
C1277 C 0.53574 0.11588 0.76197 0.0
C1278 C 0.54982 0.06607 0.75267 0.0
C1279 C 0.523 0.03778 0.7623 0.0
C1280 C 0.50294 0.04929 0.77186 0.0
C1281 C 0.50993 0.08808 0.77171 0.0
C1282 C 0.5728 0.05596 0.74251 0.0
C1283 C 0.4733 0.0203 0.78207 0.0
C1284 C 0.4821 0.92964 0.75238 0.0
C1285 C 0.50276 0.91813 0.76138 0.0
C1286 C 0.48763 0.96784 0.75283 0.0
C1287 C 0.51553 0.99618 0.76219 0.0
C1288 C 0.53665 0.98472 0.77125 0.0
C1289 C 0.52961 0.94592 0.77089 0.0
C1290 C 0.46346 0.97786 0.74324 0.0
C1291 C 0.56747 0.01378 0.78111 0.0
H1292 H 0.57556 0.12543 0.74495 0.0
H1293 H 0.4942 0.09638 0.77898 0.0
H1294 H 0.58884 0.04413 0.7484 0.0
H1295 H 0.55264 0.03289 0.73512 0.0
H1296 H 0.59408 0.0816 0.73625 0.0
H1297 H 0.45982 0.03347 0.78873 0.0
H1298 H 0.44985 0.99535 0.77614 0.0
H1299 H 0.48725 1.00837 0.78907 0.0
H1300 H 0.46117 0.90847 0.74504 0.0
H1301 H 0.54606 0.93758 0.77779 0.0
H1302 H 0.48271 1.00081 0.73564 0.0
H1303 H 0.4482 0.9898 0.74955 0.0
H1304 H 0.44139 0.95214 0.73721 0.0
H1305 H 0.59019 0.03871 0.77496 0.0
H1306 H 0.58173 1.00065 0.78737 0.0
H1307 H 0.55436 0.02572 0.78851 0.0
C1308 C 0.47109 0.55489 0.57086 0.0
C1309 C 0.49706 0.58947 0.57799 0.0
C1310 C 0.47658 0.5222 0.57079 0.0
C1311 C 0.50835 0.52356 0.57828 0.0
C1312 C 0.53411 0.55815 0.58574 0.0
C1313 C 0.52839 0.59057 0.58539 0.0
C1314 C 0.44869 0.48638 0.56249 0.0
C1315 C 0.56781 0.56094 0.59415 0.0
C1316 C 0.50336 0.42769 0.58912 0.0
C1317 C 0.52893 0.4247 0.57949 0.0
C1318 C 0.49647 0.45939 0.58883 0.0
C1319 C 0.51465 0.48891 0.57843 0.0
C1320 C 0.53973 0.48579 0.56847 0.0
C1321 C 0.54683 0.45419 0.56919 0.0
C1322 C 0.46993 0.46147 0.59982 0.0
C1323 C 0.55942 0.51613 0.55705 0.0
H1324 H 0.44702 0.55375 0.565 0.0
H1325 H 0.54841 0.6169 0.59108 0.0
H1326 H 0.46502 0.48 0.5544 0.0
H1327 H 0.43443 0.46067 0.5696 0.0
H1328 H 0.42568 0.48988 0.55713 0.0
H1329 H 0.58467 0.58943 0.59966 0.0
H1330 H 0.55683 0.53724 0.60213 0.0
H1331 H 0.5879 0.55701 0.58707 0.0
H1332 H 0.48823 0.40499 0.59692 0.0
H1333 H 0.56699 0.45306 0.56174 0.0
H1334 H 0.44497 0.46174 0.59461 0.0
H1335 H 0.48603 0.48903 0.60591 0.0
H1336 H 0.45832 0.43655 0.60732 0.0
H1337 H 0.5373 0.51957 0.55101 0.0
H1338 H 0.57617 0.50848 0.54958 0.0
H1339 H 0.57969 0.54483 0.5619 0.0
C1340 C 0.08692 0.50074 0.91822 0.0
C1341 C 0.11754 0.53056 0.91041 0.0
C1342 C 0.04918 0.49604 0.91827 0.0
C1343 C 0.04121 0.52116 0.91004 0.0
C1344 C 0.07202 0.55129 0.90208 0.0
C1345 C 0.10983 0.55593 0.9025 0.0
C1346 C 0.01782 0.46421 0.92724 0.0
C1347 C 0.06488 0.57828 0.89292 0.0
C1348 C 0.9334 0.4837 0.90119 0.0
C1349 C 0.9232 0.50403 0.91091 0.0
C1350 C 0.97174 0.48975 0.90052 0.0
C1351 C 1.00084 0.51615 0.90998 0.0
C1352 C 0.99093 0.5369 0.91974 0.0
C1353 C 0.95276 0.53112 0.91993 0.0
C1354 C 0.981 0.46748 0.88974 0.0
C1355 C 0.02056 0.56488 0.93021 0.0
H1356 H 0.09266 0.48118 0.92445 0.0
H1357 H 0.13316 0.57878 0.89632 0.0
H1358 H 1.00586 0.47703 0.93477 0.0
H1359 H 0.99332 0.44338 0.92045 0.0
H1360 H 0.02887 0.44773 0.93332 0.0
H1361 H 0.09154 0.5997 0.88714 0.0
H1362 H 0.04157 0.56097 0.88512 0.0
H1363 H 0.05453 0.59448 0.89948 0.0
H1364 H 0.9113 0.46241 0.89422 0.0
H1365 H 0.9463 0.54818 0.92722 0.0
H1366 H 0.98841 0.44724 0.89518 0.0
H1367 H 1.00686 0.48798 0.88341 0.0
H1368 H 0.95617 0.45026 0.88245 0.0
H1369 H 0.0315 0.54927 0.93684 0.0
H1370 H 1.00827 0.57846 0.93726 0.0
H1371 H 0.04605 0.5884 0.92455 0.0
C1372 C 0.42982 0.94309 0.23683 0.0
C1373 C 0.43306 0.91277 0.24316 0.0
C1374 C 0.46113 0.98218 0.23708 0.0
C1375 C 0.49721 0.99143 0.24352 0.0
C1376 C 0.50082 0.96057 0.2496 0.0
C1377 C 0.46868 0.92195 0.24954 0.0
C1378 C 0.4552 0.01381 0.23076 0.0
C1379 C 0.53866 0.96839 0.2563 0.0
C1380 C 0.58985 0.08861 0.23405 0.0
C1381 C 0.59523 0.11183 0.24603 0.0
C1382 C 0.55838 0.04969 0.23309 0.0
C1383 C 0.53073 0.03331 0.24423 0.0
C1384 C 0.53555 0.05694 0.25621 0.0
C1385 C 0.5677 0.09546 0.25702 0.0
C1386 C 0.55525 0.02574 0.22024 0.0
C1387 C 0.50666 0.0415 0.26824 0.0
H1388 H 0.40226 0.93636 0.23204 0.0
H1389 H 0.4714 0.89875 0.2545 0.0
H1390 H 0.45932 0.03542 0.23904 0.0
H1391 H 0.47731 0.02967 0.22244 0.0
H1392 H 0.42566 1.00206 0.22609 0.0
H1393 H 0.5377 0.94112 0.25977 0.0
H1394 H 0.56308 0.98379 0.2487 0.0
H1395 H 0.54522 0.98774 0.2656 0.0
H1396 H 0.61101 0.10054 0.22555 0.0
H1397 H 0.57114 0.113 0.26628 0.0
H1398 H 0.52666 0.01527 0.21498 0.0
H1399 H 0.55666 0.99955 0.22349 0.0
H1400 H 0.57884 0.04251 0.21245 0.0
H1401 H 0.47671 0.03106 0.2642 0.0
H1402 H 0.51332 0.06391 0.2765 0.0
H1403 H 0.50675 0.01616 0.27319 0.0
loop_
_geom_bond_atom_site_label_1
_geom_bond_atom_site_label_2
_geom_bond_distance
_geom_bond_site_symmetry_2
_ccdc_geom_bond_type
C0 C1 1.443 . S
C0 N4 1.376 . S
C0 C38 1.389 . S
C1 C0 1.443 . S
C1 C2 1.340 . S
C1 H41 0.951 . S
C2 C1 1.340 . S
C2 C3 1.439 . S
C2 H42 0.950 . S
C3 C2 1.439 . S
C3 N4 1.374 . S
C3 C37 1.395 . S
N4 C0 1.376 . S
N4 C3 1.374 . S
N4 Co5 2.008 . S
Co5 N4 2.008 . S
Co5 N6 1.995 . S
Co5 N11 2.008 . S
Co5 N16 1.995 . S
Co5 N21 2.282 . S
Co5 N27 2.282 . S
N6 Co5 1.995 . S
N6 C7 1.376 . S
N6 C10 1.383 . S
C7 N6 1.376 . S
C7 C8 1.446 . S
C7 C37 1.391 . S
C8 C7 1.446 . S
C8 C9 1.339 . S
C8 H43 0.949 . S
C9 C8 1.339 . S
C9 C10 1.439 . S
C9 H44 0.950 . S
C10 N6 1.383 . S
C10 C9 1.439 . S
C10 C39 1.392 . S
N11 Co5 2.008 . S
N11 C12 1.376 . S
N11 C15 1.374 . S
C12 N11 1.376 . S
C12 C13 1.443 . S
C12 C39 1.389 . S
C13 C12 1.443 . S
C13 C14 1.340 . S
C13 H45 0.951 . S
C14 C13 1.340 . S
C14 C15 1.439 . S
C14 H46 0.950 . S
C15 N11 1.374 . S
C15 C14 1.439 . S
C15 C40 1.395 . S
N16 Co5 1.995 . S
N16 C17 1.376 . S
N16 C20 1.383 . S
C17 N16 1.376 . S
C17 C18 1.446 . S
C17 C40 1.391 . S
C18 C17 1.446 . S
C18 C19 1.339 . S
C18 H47 0.949 . S
C19 C18 1.339 . S
C19 C20 1.439 . S
C19 H48 0.950 . S
C20 N16 1.383 . S
C20 C19 1.439 . S
C20 C38 1.392 . S
N21 Co5 2.282 . S
N21 C24 1.332 . S
N21 C26 1.332 . S
C22 C23 1.386 . S
C22 C25 1.388 . S
C23 C22 1.386 . S
C23 C24 1.382 . S
C23 H49 0.950 . S
C24 N21 1.332 . S
C24 C23 1.382 . S
C24 H35 0.952 . S
C25 C22 1.388 . S
C25 C26 1.382 . S
C25 H50 0.950 . S
C26 N21 1.332 . S
C26 C25 1.382 . S
C26 H36 0.948 . S
N27 Co5 2.282 . S
N27 C31 1.332 . S
N27 C32 1.332 . S
C28 C29 1.388 . S
C28 C32 1.382 . S
C28 H51 0.950 . S
C29 C28 1.388 . S
C29 C30 1.386 . S
C30 C29 1.386 . S
C30 C31 1.382 . S
C30 H52 0.950 . S
C31 N27 1.332 . S
C31 C30 1.382 . S
C31 H33 0.952 . S
C32 N27 1.332 . S
C32 C28 1.382 . S
C32 H34 0.948 . S
H33 C31 0.952 . S
H34 C32 0.948 . S
H35 C24 0.952 . S
H36 C26 0.948 . S
C37 C3 1.395 . S
C37 C7 1.391 . S
C38 C0 1.389 . S
C38 C20 1.392 . S
C39 C10 1.392 . S
C39 C12 1.389 . S
C40 C15 1.395 . S
C40 C17 1.391 . S
H41 C1 0.951 . S
H42 C2 0.950 . S
H43 C8 0.949 . S
H44 C9 0.950 . S
H45 C13 0.951 . S
H46 C14 0.950 . S
H47 C18 0.949 . S
H48 C19 0.950 . S
H49 C23 0.950 . S
H50 C25 0.950 . S
H51 C28 0.950 . S
H52 C30 0.950 . S
C53 C54 1.443 . S
C53 N57 1.376 . S
C53 C91 1.389 . S
C54 C53 1.443 . S
C54 C55 1.340 . S
C54 H94 0.951 . S
C55 C54 1.340 . S
C55 C56 1.439 . S
C55 H95 0.950 . S
C56 C55 1.439 . S
C56 N57 1.374 . S
C56 C90 1.395 . S
N57 C53 1.376 . S
N57 C56 1.374 . S
N57 Co58 2.008 . S
Co58 N57 2.008 . S
Co58 N59 1.995 . S
Co58 N64 2.008 . S
Co58 N69 1.995 . S
Co58 N74 2.282 . S
Co58 N80 2.282 . S
N59 Co58 1.995 . S
N59 C60 1.376 . S
N59 C63 1.383 . S
C60 N59 1.376 . S
C60 C61 1.446 . S
C60 C90 1.391 . S
C61 C60 1.446 . S
C61 C62 1.339 . S
C61 H96 0.949 . S
C62 C61 1.339 . S
C62 C63 1.439 . S
C62 H97 0.950 . S
C63 N59 1.383 . S
C63 C62 1.439 . S
C63 C92 1.392 . S
N64 Co58 2.008 . S
N64 C65 1.376 . S
N64 C68 1.374 . S
C65 N64 1.376 . S
C65 C66 1.443 . S
C65 C92 1.389 . S
C66 C65 1.443 . S
C66 C67 1.340 . S
C66 H98 0.951 . S
C67 C66 1.340 . S
C67 C68 1.439 . S
C67 H99 0.950 . S
C68 N64 1.374 . S
C68 C67 1.439 . S
C68 C93 1.395 . S
N69 Co58 1.995 . S
N69 C70 1.376 . S
N69 C73 1.383 . S
C70 N69 1.376 . S
C70 C71 1.446 . S
C70 C93 1.391 . S
C71 C70 1.446 . S
C71 C72 1.339 . S
C71 H100 0.949 . S
C72 C71 1.339 . S
C72 C73 1.439 . S
C72 H101 0.950 . S
C73 N69 1.383 . S
C73 C72 1.439 . S
C73 C91 1.392 . S
N74 Co58 2.282 . S
N74 C77 1.332 . S
N74 C79 1.332 . S
C75 C76 1.386 . S
C75 C78 1.388 . S
C76 C75 1.386 . S
C76 C77 1.382 . S
C76 H102 0.950 . S
C77 N74 1.332 . S
C77 C76 1.382 . S
C77 H88 0.952 . S
C78 C75 1.388 . S
C78 C79 1.382 . S
C78 H103 0.950 . S
C79 N74 1.332 . S
C79 C78 1.382 . S
C79 H89 0.948 . S
N80 Co58 2.282 . S
N80 C84 1.332 . S
N80 C85 1.332 . S
C81 C82 1.388 . S
C81 C85 1.382 . S
C81 H104 0.950 . S
C82 C81 1.388 . S
C82 C83 1.386 . S
C83 C82 1.386 . S
C83 C84 1.382 . S
C83 H105 0.950 . S
C84 N80 1.332 . S
C84 C83 1.382 . S
C84 H86 0.952 . S
C85 N80 1.332 . S
C85 C81 1.382 . S
C85 H87 0.948 . S
H86 C84 0.952 . S
H87 C85 0.948 . S
H88 C77 0.952 . S
H89 C79 0.948 . S
C90 C56 1.395 . S
C90 C60 1.391 . S
C91 C53 1.389 . S
C91 C73 1.392 . S
C92 C63 1.392 . S
C92 C65 1.389 . S
C93 C68 1.395 . S
C93 C70 1.391 . S
H94 C54 0.951 . S
H95 C55 0.950 . S
H96 C61 0.949 . S
H97 C62 0.950 . S
H98 C66 0.951 . S
H99 C67 0.950 . S
H100 C71 0.949 . S
H101 C72 0.950 . S
H102 C76 0.950 . S
H103 C78 0.950 . S
H104 C81 0.950 . S
H105 C83 0.950 . S
C106 C107 1.443 . S
C106 N110 1.376 . S
C106 C144 1.389 . S
C107 C106 1.443 . S
C107 C108 1.340 . S
C107 H147 0.951 . S
C108 C107 1.340 . S
C108 C109 1.439 . S
C108 H148 0.950 . S
C109 C108 1.439 . S
C109 N110 1.374 . S
C109 C143 1.395 . S
N110 C106 1.376 . S
N110 C109 1.374 . S
N110 Co111 2.008 . S
Co111 N110 2.008 . S
Co111 N112 1.995 . S
Co111 N117 2.008 . S
Co111 N122 1.995 . S
Co111 N127 2.282 . S
Co111 N133 2.282 . S
N112 Co111 1.995 . S
N112 C113 1.376 . S
N112 C116 1.383 . S
C113 N112 1.376 . S
C113 C114 1.446 . S
C113 C143 1.391 . S
C114 C113 1.446 . S
C114 C115 1.339 . S
C114 H149 0.949 . S
C115 C114 1.339 . S
C115 C116 1.439 . S
C115 H150 0.950 . S
C116 N112 1.383 . S
C116 C115 1.439 . S
C116 C145 1.392 . S
N117 Co111 2.008 . S
N117 C118 1.376 . S
N117 C121 1.374 . S
C118 N117 1.376 . S
C118 C119 1.443 . S
C118 C145 1.389 . S
C119 C118 1.443 . S
C119 C120 1.340 . S
C119 H151 0.951 . S
C120 C119 1.340 . S
C120 C121 1.439 . S
C120 H152 0.950 . S
C121 N117 1.374 . S
C121 C120 1.439 . S
C121 C146 1.395 . S
N122 Co111 1.995 . S
N122 C123 1.376 . S
N122 C126 1.383 . S
C123 N122 1.376 . S
C123 C124 1.446 . S
C123 C146 1.391 . S
C124 C123 1.446 . S
C124 C125 1.339 . S
C124 H153 0.949 . S
C125 C124 1.339 . S
C125 C126 1.439 . S
C125 H154 0.950 . S
C126 N122 1.383 . S
C126 C125 1.439 . S
C126 C144 1.392 . S
N127 Co111 2.282 . S
N127 C130 1.332 . S
N127 C132 1.332 . S
C128 C129 1.386 . S
C128 C131 1.388 . S
C129 C128 1.386 . S
C129 C130 1.382 . S
C129 H155 0.950 . S
C130 N127 1.332 . S
C130 C129 1.382 . S
C130 H141 0.952 . S
C131 C128 1.388 . S
C131 C132 1.382 . S
C131 H156 0.950 . S
C132 N127 1.332 . S
C132 C131 1.382 . S
C132 H142 0.948 . S
N133 Co111 2.282 . S
N133 C137 1.332 . S
N133 C138 1.332 . S
C134 C135 1.388 . S
C134 C138 1.382 . S
C134 H157 0.950 . S
C135 C134 1.388 . S
C135 C136 1.386 . S
C136 C135 1.386 . S
C136 C137 1.382 . S
C136 H158 0.950 . S
C137 N133 1.332 . S
C137 C136 1.382 . S
C137 H139 0.952 . S
C138 N133 1.332 . S
C138 C134 1.382 . S
C138 H140 0.948 . S
H139 C137 0.952 . S
H140 C138 0.948 . S
H141 C130 0.952 . S
H142 C132 0.948 . S
C143 C109 1.395 . S
C143 C113 1.391 . S
C144 C106 1.389 . S
C144 C126 1.392 . S
C145 C116 1.392 . S
C145 C118 1.389 . S
C146 C121 1.395 . S
C146 C123 1.391 . S
H147 C107 0.951 . S
H148 C108 0.950 . S
H149 C114 0.949 . S
H150 C115 0.950 . S
H151 C119 0.951 . S
H152 C120 0.950 . S
H153 C124 0.949 . S
H154 C125 0.950 . S
H155 C129 0.950 . S
H156 C131 0.950 . S
H157 C134 0.950 . S
H158 C136 0.950 . S
C159 C160 1.443 . S
C159 N163 1.376 . S
C159 C197 1.389 . S
C160 C159 1.443 . S
C160 C161 1.340 . S
C160 H200 0.951 . S
C161 C160 1.340 . S
C161 C162 1.439 . S
C161 H201 0.950 . S
C162 C161 1.439 . S
C162 N163 1.374 . S
C162 C196 1.395 . S
N163 C159 1.376 . S
N163 C162 1.374 . S
N163 Co164 2.008 . S
Co164 N163 2.008 . S
Co164 N165 1.995 . S
Co164 N170 2.008 . S
Co164 N175 1.995 . S
Co164 N180 2.282 . S
Co164 N186 2.282 . S
N165 Co164 1.995 . S
N165 C166 1.376 . S
N165 C169 1.383 . S
C166 N165 1.376 . S
C166 C167 1.446 . S
C166 C196 1.391 . S
C167 C166 1.446 . S
C167 C168 1.339 . S
C167 H202 0.949 . S
C168 C167 1.339 . S
C168 C169 1.439 . S
C168 H203 0.950 . S
C169 N165 1.383 . S
C169 C168 1.439 . S
C169 C198 1.392 . S
N170 Co164 2.008 . S
N170 C171 1.376 . S
N170 C174 1.374 . S
C171 N170 1.376 . S
C171 C172 1.443 . S
C171 C198 1.389 . S
C172 C171 1.443 . S
C172 C173 1.340 . S
C172 H204 0.951 . S
C173 C172 1.340 . S
C173 C174 1.439 . S
C173 H205 0.950 . S
C174 N170 1.374 . S
C174 C173 1.439 . S
C174 C199 1.395 . S
N175 Co164 1.995 . S
N175 C176 1.376 . S
N175 C179 1.383 . S
C176 N175 1.376 . S
C176 C177 1.446 . S
C176 C199 1.391 . S
C177 C176 1.446 . S
C177 C178 1.339 . S
C177 H206 0.949 . S
C178 C177 1.339 . S
C178 C179 1.439 . S
C178 H207 0.950 . S
C179 N175 1.383 . S
C179 C178 1.439 . S
C179 C197 1.392 . S
N180 Co164 2.282 . S
N180 C183 1.332 . S
N180 C185 1.332 . S
C181 C182 1.386 . S
C181 C184 1.388 . S
C182 C181 1.386 . S
C182 C183 1.382 . S
C182 H208 0.950 . S
C183 N180 1.332 . S
C183 C182 1.382 . S
C183 H194 0.952 . S
C184 C181 1.388 . S
C184 C185 1.382 . S
C184 H209 0.950 . S
C185 N180 1.332 . S
C185 C184 1.382 . S
C185 H195 0.948 . S
N186 Co164 2.282 . S
N186 C190 1.332 . S
N186 C191 1.332 . S
C187 C188 1.388 . S
C187 C191 1.382 . S
C187 H210 0.950 . S
C188 C187 1.388 . S
C188 C189 1.386 . S
C189 C188 1.386 . S
C189 C190 1.382 . S
C189 H211 0.950 . S
C190 N186 1.332 . S
C190 C189 1.382 . S
C190 H192 0.952 . S
C191 N186 1.332 . S
C191 C187 1.382 . S
C191 H193 0.948 . S
H192 C190 0.952 . S
H193 C191 0.948 . S
H194 C183 0.952 . S
H195 C185 0.948 . S
C196 C162 1.395 . S
C196 C166 1.391 . S
C197 C159 1.389 . S
C197 C179 1.392 . S
C198 C169 1.392 . S
C198 C171 1.389 . S
C199 C174 1.395 . S
C199 C176 1.391 . S
H200 C160 0.951 . S
H201 C161 0.950 . S
H202 C167 0.949 . S
H203 C168 0.950 . S
H204 C172 0.951 . S
H205 C173 0.950 . S
H206 C177 0.949 . S
H207 C178 0.950 . S
H208 C182 0.950 . S
H209 C184 0.950 . S
H210 C187 0.950 . S
H211 C189 0.950 . S
C212 C213 1.443 . S
C212 N216 1.376 . S
C212 C250 1.389 . S
C213 C212 1.443 . S
C213 C214 1.340 . S
C213 H253 0.951 . S
C214 C213 1.340 . S
C214 C215 1.439 . S
C214 H254 0.950 . S
C215 C214 1.439 . S
C215 N216 1.374 . S
C215 C249 1.395 . S
N216 C212 1.376 . S
N216 C215 1.374 . S
N216 Co217 2.008 . S
Co217 N216 2.008 . S
Co217 N218 1.995 . S
Co217 N223 2.008 . S
Co217 N228 1.995 . S
Co217 N233 2.282 . S
Co217 N239 2.282 . S
N218 Co217 1.995 . S
N218 C219 1.376 . S
N218 C222 1.383 . S
C219 N218 1.376 . S
C219 C220 1.446 . S
C219 C249 1.391 . S
C220 C219 1.446 . S
C220 C221 1.339 . S
C220 H255 0.949 . S
C221 C220 1.339 . S
C221 C222 1.439 . S
C221 H256 0.950 . S
C222 N218 1.383 . S
C222 C221 1.439 . S
C222 C251 1.392 . S
N223 Co217 2.008 . S
N223 C224 1.376 . S
N223 C227 1.374 . S
C224 N223 1.376 . S
C224 C225 1.443 . S
C224 C251 1.389 . S
C225 C224 1.443 . S
C225 C226 1.340 . S
C225 H257 0.951 . S
C226 C225 1.340 . S
C226 C227 1.439 . S
C226 H258 0.950 . S
C227 N223 1.374 . S
C227 C226 1.439 . S
C227 C252 1.395 . S
N228 Co217 1.995 . S
N228 C229 1.376 . S
N228 C232 1.383 . S
C229 N228 1.376 . S
C229 C230 1.446 . S
C229 C252 1.391 . S
C230 C229 1.446 . S
C230 C231 1.339 . S
C230 H259 0.949 . S
C231 C230 1.339 . S
C231 C232 1.439 . S
C231 H260 0.950 . S
C232 N228 1.383 . S
C232 C231 1.439 . S
C232 C250 1.392 . S
N233 Co217 2.282 . S
N233 C236 1.332 . S
N233 C238 1.332 . S
C234 C235 1.386 . S
C234 C237 1.388 . S
C235 C234 1.386 . S
C235 C236 1.382 . S
C235 H261 0.950 . S
C236 N233 1.332 . S
C236 C235 1.382 . S
C236 H247 0.952 . S
C237 C234 1.388 . S
C237 C238 1.382 . S
C237 H262 0.950 . S
C238 N233 1.332 . S
C238 C237 1.382 . S
C238 H248 0.948 . S
N239 Co217 2.282 . S
N239 C243 1.332 . S
N239 C244 1.332 . S
C240 C241 1.388 . S
C240 C244 1.382 . S
C240 H263 0.950 . S
C241 C240 1.388 . S
C241 C242 1.386 . S
C242 C241 1.386 . S
C242 C243 1.382 . S
C242 H264 0.950 . S
C243 N239 1.332 . S
C243 C242 1.382 . S
C243 H245 0.952 . S
C244 N239 1.332 . S
C244 C240 1.382 . S
C244 H246 0.948 . S
H245 C243 0.952 . S
H246 C244 0.948 . S
H247 C236 0.952 . S
H248 C238 0.948 . S
C249 C215 1.395 . S
C249 C219 1.391 . S
C250 C212 1.389 . S
C250 C232 1.392 . S
C251 C222 1.392 . S
C251 C224 1.389 . S
C252 C227 1.395 . S
C252 C229 1.391 . S
H253 C213 0.951 . S
H254 C214 0.950 . S
H255 C220 0.949 . S
H256 C221 0.950 . S
H257 C225 0.951 . S
H258 C226 0.950 . S
H259 C230 0.949 . S
H260 C231 0.950 . S
H261 C235 0.950 . S
H262 C237 0.950 . S
H263 C240 0.950 . S
H264 C242 0.950 . S
C265 C266 1.443 . S
C265 N269 1.376 . S
C265 C303 1.389 . S
C266 C265 1.443 . S
C266 C267 1.340 . S
C266 H306 0.951 . S
C267 C266 1.340 . S
C267 C268 1.439 . S
C267 H307 0.950 . S
C268 C267 1.439 . S
C268 N269 1.374 . S
C268 C302 1.395 . S
N269 C265 1.376 . S
N269 C268 1.374 . S
N269 Co270 2.008 . S
Co270 N269 2.008 . S
Co270 N271 1.995 . S
Co270 N276 2.008 . S
Co270 N281 1.995 . S
Co270 N286 2.282 . S
Co270 N292 2.282 . S
N271 Co270 1.995 . S
N271 C272 1.376 . S
N271 C275 1.383 . S
C272 N271 1.376 . S
C272 C273 1.446 . S
C272 C302 1.391 . S
C273 C272 1.446 . S
C273 C274 1.339 . S
C273 H308 0.949 . S
C274 C273 1.339 . S
C274 C275 1.439 . S
C274 H309 0.950 . S
C275 N271 1.383 . S
C275 C274 1.439 . S
C275 C304 1.392 . S
N276 Co270 2.008 . S
N276 C277 1.376 . S
N276 C280 1.374 . S
C277 N276 1.376 . S
C277 C278 1.443 . S
C277 C304 1.389 . S
C278 C277 1.443 . S
C278 C279 1.340 . S
C278 H310 0.951 . S
C279 C278 1.340 . S
C279 C280 1.439 . S
C279 H311 0.950 . S
C280 N276 1.374 . S
C280 C279 1.439 . S
C280 C305 1.395 . S
N281 Co270 1.995 . S
N281 C282 1.376 . S
N281 C285 1.383 . S
C282 N281 1.376 . S
C282 C283 1.446 . S
C282 C305 1.391 . S
C283 C282 1.446 . S
C283 C284 1.339 . S
C283 H312 0.949 . S
C284 C283 1.339 . S
C284 C285 1.439 . S
C284 H313 0.950 . S
C285 N281 1.383 . S
C285 C284 1.439 . S
C285 C303 1.392 . S
N286 Co270 2.282 . S
N286 C289 1.332 . S
N286 C291 1.332 . S
C287 C288 1.386 . S
C287 C290 1.388 . S
C288 C287 1.386 . S
C288 C289 1.382 . S
C288 H314 0.950 . S
C289 N286 1.332 . S
C289 C288 1.382 . S
C289 H300 0.952 . S
C290 C287 1.388 . S
C290 C291 1.382 . S
C290 H315 0.950 . S
C291 N286 1.332 . S
C291 C290 1.382 . S
C291 H301 0.948 . S
N292 Co270 2.282 . S
N292 C296 1.332 . S
N292 C297 1.332 . S
C293 C294 1.388 . S
C293 C297 1.382 . S
C293 H316 0.950 . S
C294 C293 1.388 . S
C294 C295 1.386 . S
C295 C294 1.386 . S
C295 C296 1.382 . S
C295 H317 0.950 . S
C296 N292 1.332 . S
C296 C295 1.382 . S
C296 H298 0.952 . S
C297 N292 1.332 . S
C297 C293 1.382 . S
C297 H299 0.948 . S
H298 C296 0.952 . S
H299 C297 0.948 . S
H300 C289 0.952 . S
H301 C291 0.948 . S
C302 C268 1.395 . S
C302 C272 1.391 . S
C303 C265 1.389 . S
C303 C285 1.392 . S
C304 C275 1.392 . S
C304 C277 1.389 . S
C305 C280 1.395 . S
C305 C282 1.391 . S
H306 C266 0.951 . S
H307 C267 0.950 . S
H308 C273 0.949 . S
H309 C274 0.950 . S
H310 C278 0.951 . S
H311 C279 0.950 . S
H312 C283 0.949 . S
H313 C284 0.950 . S
H314 C288 0.950 . S
H315 C290 0.950 . S
H316 C293 0.950 . S
H317 C295 0.950 . S
C318 C319 1.443 . S
C318 N322 1.376 . S
C318 C356 1.389 . S
C319 C318 1.443 . S
C319 C320 1.340 . S
C319 H359 0.951 . S
C320 C319 1.340 . S
C320 C321 1.439 . S
C320 H360 0.950 . S
C321 C320 1.439 . S
C321 N322 1.374 . S
C321 C355 1.395 . S
N322 C318 1.376 . S
N322 C321 1.374 . S
N322 Co323 2.008 . S
Co323 N322 2.008 . S
Co323 N324 1.995 . S
Co323 N329 2.008 . S
Co323 N334 1.995 . S
Co323 N339 2.282 . S
Co323 N345 2.282 . S
N324 Co323 1.995 . S
N324 C325 1.376 . S
N324 C328 1.383 . S
C325 N324 1.376 . S
C325 C326 1.446 . S
C325 C355 1.391 . S
C326 C325 1.446 . S
C326 C327 1.339 . S
C326 H361 0.949 . S
C327 C326 1.339 . S
C327 C328 1.439 . S
C327 H362 0.950 . S
C328 N324 1.383 . S
C328 C327 1.439 . S
C328 C357 1.392 . S
N329 Co323 2.008 . S
N329 C330 1.376 . S
N329 C333 1.374 . S
C330 N329 1.376 . S
C330 C331 1.443 . S
C330 C357 1.389 . S
C331 C330 1.443 . S
C331 C332 1.340 . S
C331 H363 0.951 . S
C332 C331 1.340 . S
C332 C333 1.439 . S
C332 H364 0.950 . S
C333 N329 1.374 . S
C333 C332 1.439 . S
C333 C358 1.395 . S
N334 Co323 1.995 . S
N334 C335 1.376 . S
N334 C338 1.383 . S
C335 N334 1.376 . S
C335 C336 1.446 . S
C335 C358 1.391 . S
C336 C335 1.446 . S
C336 C337 1.339 . S
C336 H365 0.949 . S
C337 C336 1.339 . S
C337 C338 1.439 . S
C337 H366 0.950 . S
C338 N334 1.383 . S
C338 C337 1.439 . S
C338 C356 1.392 . S
N339 Co323 2.282 . S
N339 C342 1.332 . S
N339 C344 1.332 . S
C340 C341 1.386 . S
C340 C343 1.388 . S
C341 C340 1.386 . S
C341 C342 1.382 . S
C341 H367 0.950 . S
C342 N339 1.332 . S
C342 C341 1.382 . S
C342 H353 0.952 . S
C343 C340 1.388 . S
C343 C344 1.382 . S
C343 H368 0.950 . S
C344 N339 1.332 . S
C344 C343 1.382 . S
C344 H354 0.948 . S
N345 Co323 2.282 . S
N345 C349 1.332 . S
N345 C350 1.332 . S
C346 C347 1.388 . S
C346 C350 1.382 . S
C346 H369 0.950 . S
C347 C346 1.388 . S
C347 C348 1.386 . S
C348 C347 1.386 . S
C348 C349 1.382 . S
C348 H370 0.950 . S
C349 N345 1.332 . S
C349 C348 1.382 . S
C349 H351 0.952 . S
C350 N345 1.332 . S
C350 C346 1.382 . S
C350 H352 0.948 . S
H351 C349 0.952 . S
H352 C350 0.948 . S
H353 C342 0.952 . S
H354 C344 0.948 . S
C355 C321 1.395 . S
C355 C325 1.391 . S
C356 C318 1.389 . S
C356 C338 1.392 . S
C357 C328 1.392 . S
C357 C330 1.389 . S
C358 C333 1.395 . S
C358 C335 1.391 . S
H359 C319 0.951 . S
H360 C320 0.950 . S
H361 C326 0.949 . S
H362 C327 0.950 . S
H363 C331 0.951 . S
H364 C332 0.950 . S
H365 C336 0.949 . S
H366 C337 0.950 . S
H367 C341 0.950 . S
H368 C343 0.950 . S
H369 C346 0.950 . S
H370 C348 0.950 . S
C371 C372 1.443 . S
C371 N375 1.376 . S
C371 C409 1.389 . S
C372 C371 1.443 . S
C372 C373 1.340 . S
C372 H412 0.951 . S
C373 C372 1.340 . S
C373 C374 1.439 . S
C373 H413 0.950 . S
C374 C373 1.439 . S
C374 N375 1.374 . S
C374 C408 1.395 . S
N375 C371 1.376 . S
N375 C374 1.374 . S
N375 Co376 2.008 . S
Co376 N375 2.008 . S
Co376 N377 1.995 . S
Co376 N382 2.008 . S
Co376 N387 1.995 . S
Co376 N392 2.282 . S
Co376 N398 2.282 . S
N377 Co376 1.995 . S
N377 C378 1.376 . S
N377 C381 1.383 . S
C378 N377 1.376 . S
C378 C379 1.446 . S
C378 C408 1.391 . S
C379 C378 1.446 . S
C379 C380 1.339 . S
C379 H414 0.949 . S
C380 C379 1.339 . S
C380 C381 1.439 . S
C380 H415 0.950 . S
C381 N377 1.383 . S
C381 C380 1.439 . S
C381 C410 1.392 . S
N382 Co376 2.008 . S
N382 C383 1.376 . S
N382 C386 1.374 . S
C383 N382 1.376 . S
C383 C384 1.443 . S
C383 C410 1.389 . S
C384 C383 1.443 . S
C384 C385 1.340 . S
C384 H416 0.951 . S
C385 C384 1.340 . S
C385 C386 1.439 . S
C385 H417 0.950 . S
C386 N382 1.374 . S
C386 C385 1.439 . S
C386 C411 1.395 . S
N387 Co376 1.995 . S
N387 C388 1.376 . S
N387 C391 1.383 . S
C388 N387 1.376 . S
C388 C389 1.446 . S
C388 C411 1.391 . S
C389 C388 1.446 . S
C389 C390 1.339 . S
C389 H418 0.949 . S
C390 C389 1.339 . S
C390 C391 1.439 . S
C390 H419 0.950 . S
C391 N387 1.383 . S
C391 C390 1.439 . S
C391 C409 1.392 . S
N392 Co376 2.282 . S
N392 C395 1.332 . S
N392 C397 1.332 . S
C393 C394 1.386 . S
C393 C396 1.388 . S
C394 C393 1.386 . S
C394 C395 1.382 . S
C394 H420 0.950 . S
C395 N392 1.332 . S
C395 C394 1.382 . S
C395 H406 0.952 . S
C396 C393 1.388 . S
C396 C397 1.382 . S
C396 H421 0.950 . S
C397 N392 1.332 . S
C397 C396 1.382 . S
C397 H407 0.948 . S
N398 Co376 2.282 . S
N398 C402 1.332 . S
N398 C403 1.332 . S
C399 C400 1.388 . S
C399 C403 1.382 . S
C399 H422 0.950 . S
C400 C399 1.388 . S
C400 C401 1.386 . S
C401 C400 1.386 . S
C401 C402 1.382 . S
C401 H423 0.950 . S
C402 N398 1.332 . S
C402 C401 1.382 . S
C402 H404 0.952 . S
C403 N398 1.332 . S
C403 C399 1.382 . S
C403 H405 0.948 . S
H404 C402 0.952 . S
H405 C403 0.948 . S
H406 C395 0.952 . S
H407 C397 0.948 . S
C408 C374 1.395 . S
C408 C378 1.391 . S
C409 C371 1.389 . S
C409 C391 1.392 . S
C410 C381 1.392 . S
C410 C383 1.389 . S
C411 C386 1.395 . S
C411 C388 1.391 . S
H412 C372 0.951 . S
H413 C373 0.950 . S
H414 C379 0.949 . S
H415 C380 0.950 . S
H416 C384 0.951 . S
H417 C385 0.950 . S
H418 C389 0.949 . S
H419 C390 0.950 . S
H420 C394 0.950 . S
H421 C396 0.950 . S
H422 C399 0.950 . S
H423 C401 0.950 . S
C424 C425 1.443 . S
C424 N428 1.376 . S
C424 C462 1.389 . S
C425 C424 1.443 . S
C425 C426 1.340 . S
C425 H465 0.951 . S
C426 C425 1.340 . S
C426 C427 1.439 . S
C426 H466 0.950 . S
C427 C426 1.439 . S
C427 N428 1.374 . S
C427 C461 1.395 . S
N428 C424 1.376 . S
N428 C427 1.374 . S
N428 Co429 2.008 . S
Co429 N428 2.008 . S
Co429 N430 1.995 . S
Co429 N435 2.008 . S
Co429 N440 1.995 . S
Co429 N445 2.282 . S
Co429 N451 2.282 . S
N430 Co429 1.995 . S
N430 C431 1.376 . S
N430 C434 1.383 . S
C431 N430 1.376 . S
C431 C432 1.446 . S
C431 C461 1.391 . S
C432 C431 1.446 . S
C432 C433 1.339 . S
C432 H467 0.949 . S
C433 C432 1.339 . S
C433 C434 1.439 . S
C433 H468 0.950 . S
C434 N430 1.383 . S
C434 C433 1.439 . S
C434 C463 1.392 . S
N435 Co429 2.008 . S
N435 C436 1.376 . S
N435 C439 1.374 . S
C436 N435 1.376 . S
C436 C437 1.443 . S
C436 C463 1.389 . S
C437 C436 1.443 . S
C437 C438 1.340 . S
C437 H469 0.951 . S
C438 C437 1.340 . S
C438 C439 1.439 . S
C438 H470 0.950 . S
C439 N435 1.374 . S
C439 C438 1.439 . S
C439 C464 1.395 . S
N440 Co429 1.995 . S
N440 C441 1.376 . S
N440 C444 1.383 . S
C441 N440 1.376 . S
C441 C442 1.446 . S
C441 C464 1.391 . S
C442 C441 1.446 . S
C442 C443 1.339 . S
C442 H471 0.949 . S
C443 C442 1.339 . S
C443 C444 1.439 . S
C443 H472 0.950 . S
C444 N440 1.383 . S
C444 C443 1.439 . S
C444 C462 1.392 . S
N445 Co429 2.282 . S
N445 C448 1.332 . S
N445 C450 1.332 . S
C446 C447 1.386 . S
C446 C449 1.388 . S
C447 C446 1.386 . S
C447 C448 1.382 . S
C447 H473 0.950 . S
C448 N445 1.332 . S
C448 C447 1.382 . S
C448 H459 0.952 . S
C449 C446 1.388 . S
C449 C450 1.382 . S
C449 H474 0.950 . S
C450 N445 1.332 . S
C450 C449 1.382 . S
C450 H460 0.948 . S
N451 Co429 2.282 . S
N451 C455 1.332 . S
N451 C456 1.332 . S
C452 C453 1.388 . S
C452 C456 1.382 . S
C452 H475 0.950 . S
C453 C452 1.388 . S
C453 C454 1.386 . S
C454 C453 1.386 . S
C454 C455 1.382 . S
C454 H476 0.950 . S
C455 N451 1.332 . S
C455 C454 1.382 . S
C455 H457 0.952 . S
C456 N451 1.332 . S
C456 C452 1.382 . S
C456 H458 0.948 . S
H457 C455 0.952 . S
H458 C456 0.948 . S
H459 C448 0.952 . S
H460 C450 0.948 . S
C461 C427 1.395 . S
C461 C431 1.391 . S
C462 C424 1.389 . S
C462 C444 1.392 . S
C463 C434 1.392 . S
C463 C436 1.389 . S
C464 C439 1.395 . S
C464 C441 1.391 . S
H465 C425 0.951 . S
H466 C426 0.950 . S
H467 C432 0.949 . S
H468 C433 0.950 . S
H469 C437 0.951 . S
H470 C438 0.950 . S
H471 C442 0.949 . S
H472 C443 0.950 . S
H473 C447 0.950 . S
H474 C449 0.950 . S
H475 C452 0.950 . S
H476 C454 0.950 . S
C477 C478 1.443 . S
C477 N481 1.376 . S
C477 C515 1.389 . S
C478 C477 1.443 . S
C478 C479 1.340 . S
C478 H518 0.951 . S
C479 C478 1.340 . S
C479 C480 1.439 . S
C479 H519 0.950 . S
C480 C479 1.439 . S
C480 N481 1.374 . S
C480 C514 1.395 . S
N481 C477 1.376 . S
N481 C480 1.374 . S
N481 Co482 2.008 . S
Co482 N481 2.008 . S
Co482 N483 1.995 . S
Co482 N488 2.008 . S
Co482 N493 1.995 . S
Co482 N498 2.282 . S
Co482 N504 2.282 . S
N483 Co482 1.995 . S
N483 C484 1.376 . S
N483 C487 1.383 . S
C484 N483 1.376 . S
C484 C485 1.446 . S
C484 C514 1.391 . S
C485 C484 1.446 . S
C485 C486 1.339 . S
C485 H520 0.949 . S
C486 C485 1.339 . S
C486 C487 1.439 . S
C486 H521 0.950 . S
C487 N483 1.383 . S
C487 C486 1.439 . S
C487 C516 1.392 . S
N488 Co482 2.008 . S
N488 C489 1.376 . S
N488 C492 1.374 . S
C489 N488 1.376 . S
C489 C490 1.443 . S
C489 C516 1.389 . S
C490 C489 1.443 . S
C490 C491 1.340 . S
C490 H522 0.951 . S
C491 C490 1.340 . S
C491 C492 1.439 . S
C491 H523 0.950 . S
C492 N488 1.374 . S
C492 C491 1.439 . S
C492 C517 1.395 . S
N493 Co482 1.995 . S
N493 C494 1.376 . S
N493 C497 1.383 . S
C494 N493 1.376 . S
C494 C495 1.446 . S
C494 C517 1.391 . S
C495 C494 1.446 . S
C495 C496 1.339 . S
C495 H524 0.949 . S
C496 C495 1.339 . S
C496 C497 1.439 . S
C496 H525 0.950 . S
C497 N493 1.383 . S
C497 C496 1.439 . S
C497 C515 1.392 . S
N498 Co482 2.282 . S
N498 C501 1.332 . S
N498 C503 1.332 . S
C499 C500 1.386 . S
C499 C502 1.388 . S
C500 C499 1.386 . S
C500 C501 1.382 . S
C500 H526 0.950 . S
C501 N498 1.332 . S
C501 C500 1.382 . S
C501 H512 0.952 . S
C502 C499 1.388 . S
C502 C503 1.382 . S
C502 H527 0.950 . S
C503 N498 1.332 . S
C503 C502 1.382 . S
C503 H513 0.948 . S
N504 Co482 2.282 . S
N504 C508 1.332 . S
N504 C509 1.332 . S
C505 C506 1.388 . S
C505 C509 1.382 . S
C505 H528 0.950 . S
C506 C505 1.388 . S
C506 C507 1.386 . S
C507 C506 1.386 . S
C507 C508 1.382 . S
C507 H529 0.950 . S
C508 N504 1.332 . S
C508 C507 1.382 . S
C508 H510 0.952 . S
C509 N504 1.332 . S
C509 C505 1.382 . S
C509 H511 0.948 . S
H510 C508 0.952 . S
H511 C509 0.948 . S
H512 C501 0.952 . S
H513 C503 0.948 . S
C514 C480 1.395 . S
C514 C484 1.391 . S
C515 C477 1.389 . S
C515 C497 1.392 . S
C516 C487 1.392 . S
C516 C489 1.389 . S
C517 C492 1.395 . S
C517 C494 1.391 . S
H518 C478 0.951 . S
H519 C479 0.950 . S
H520 C485 0.949 . S
H521 C486 0.950 . S
H522 C490 0.951 . S
H523 C491 0.950 . S
H524 C495 0.949 . S
H525 C496 0.950 . S
H526 C500 0.950 . S
H527 C502 0.950 . S
H528 C505 0.950 . S
H529 C507 0.950 . S
C530 C531 1.443 . S
C530 N534 1.376 . S
C530 C568 1.389 . S
C531 C530 1.443 . S
C531 C532 1.340 . S
C531 H571 0.951 . S
C532 C531 1.340 . S
C532 C533 1.439 . S
C532 H572 0.950 . S
C533 C532 1.439 . S
C533 N534 1.374 . S
C533 C567 1.395 . S
N534 C530 1.376 . S
N534 C533 1.374 . S
N534 Co535 2.008 . S
Co535 N534 2.008 . S
Co535 N536 1.995 . S
Co535 N541 2.008 . S
Co535 N546 1.995 . S
Co535 N551 2.282 . S
Co535 N557 2.282 . S
N536 Co535 1.995 . S
N536 C537 1.376 . S
N536 C540 1.383 . S
C537 N536 1.376 . S
C537 C538 1.446 . S
C537 C567 1.391 . S
C538 C537 1.446 . S
C538 C539 1.339 . S
C538 H573 0.949 . S
C539 C538 1.339 . S
C539 C540 1.439 . S
C539 H574 0.950 . S
C540 N536 1.383 . S
C540 C539 1.439 . S
C540 C569 1.392 . S
N541 Co535 2.008 . S
N541 C542 1.376 . S
N541 C545 1.374 . S
C542 N541 1.376 . S
C542 C543 1.443 . S
C542 C569 1.389 . S
C543 C542 1.443 . S
C543 C544 1.340 . S
C543 H575 0.951 . S
C544 C543 1.340 . S
C544 C545 1.439 . S
C544 H576 0.950 . S
C545 N541 1.374 . S
C545 C544 1.439 . S
C545 C570 1.395 . S
N546 Co535 1.995 . S
N546 C547 1.376 . S
N546 C550 1.383 . S
C547 N546 1.376 . S
C547 C548 1.446 . S
C547 C570 1.391 . S
C548 C547 1.446 . S
C548 C549 1.339 . S
C548 H577 0.949 . S
C549 C548 1.339 . S
C549 C550 1.439 . S
C549 H578 0.950 . S
C550 N546 1.383 . S
C550 C549 1.439 . S
C550 C568 1.392 . S
N551 Co535 2.282 . S
N551 C554 1.332 . S
N551 C556 1.332 . S
C552 C553 1.386 . S
C552 C555 1.388 . S
C553 C552 1.386 . S
C553 C554 1.382 . S
C553 H579 0.950 . S
C554 N551 1.332 . S
C554 C553 1.382 . S
C554 H565 0.952 . S
C555 C552 1.388 . S
C555 C556 1.382 . S
C555 H580 0.950 . S
C556 N551 1.332 . S
C556 C555 1.382 . S
C556 H566 0.948 . S
N557 Co535 2.282 . S
N557 C561 1.332 . S
N557 C562 1.332 . S
C558 C559 1.388 . S
C558 C562 1.382 . S
C558 H581 0.950 . S
C559 C558 1.388 . S
C559 C560 1.386 . S
C560 C559 1.386 . S
C560 C561 1.382 . S
C560 H582 0.950 . S
C561 N557 1.332 . S
C561 C560 1.382 . S
C561 H563 0.952 . S
C562 N557 1.332 . S
C562 C558 1.382 . S
C562 H564 0.948 . S
H563 C561 0.952 . S
H564 C562 0.948 . S
H565 C554 0.952 . S
H566 C556 0.948 . S
C567 C533 1.395 . S
C567 C537 1.391 . S
C568 C530 1.389 . S
C568 C550 1.392 . S
C569 C540 1.392 . S
C569 C542 1.389 . S
C570 C545 1.395 . S
C570 C547 1.391 . S
H571 C531 0.951 . S
H572 C532 0.950 . S
H573 C538 0.949 . S
H574 C539 0.950 . S
H575 C543 0.951 . S
H576 C544 0.950 . S
H577 C548 0.949 . S
H578 C549 0.950 . S
H579 C553 0.950 . S
H580 C555 0.950 . S
H581 C558 0.950 . S
H582 C560 0.950 . S
C583 C584 1.443 . S
C583 N587 1.376 . S
C583 C621 1.389 . S
C584 C583 1.443 . S
C584 C585 1.340 . S
C584 H624 0.951 . S
C585 C584 1.340 . S
C585 C586 1.439 . S
C585 H625 0.950 . S
C586 C585 1.439 . S
C586 N587 1.374 . S
C586 C620 1.395 . S
N587 C583 1.376 . S
N587 C586 1.374 . S
N587 Co588 2.008 . S
Co588 N587 2.008 . S
Co588 N589 1.995 . S
Co588 N594 2.008 . S
Co588 N599 1.995 . S
Co588 N604 2.282 . S
Co588 N610 2.282 . S
N589 Co588 1.995 . S
N589 C590 1.376 . S
N589 C593 1.383 . S
C590 N589 1.376 . S
C590 C591 1.446 . S
C590 C620 1.391 . S
C591 C590 1.446 . S
C591 C592 1.339 . S
C591 H626 0.949 . S
C592 C591 1.339 . S
C592 C593 1.439 . S
C592 H627 0.950 . S
C593 N589 1.383 . S
C593 C592 1.439 . S
C593 C622 1.392 . S
N594 Co588 2.008 . S
N594 C595 1.376 . S
N594 C598 1.374 . S
C595 N594 1.376 . S
C595 C596 1.443 . S
C595 C622 1.389 . S
C596 C595 1.443 . S
C596 C597 1.340 . S
C596 H628 0.951 . S
C597 C596 1.340 . S
C597 C598 1.439 . S
C597 H629 0.950 . S
C598 N594 1.374 . S
C598 C597 1.439 . S
C598 C623 1.395 . S
N599 Co588 1.995 . S
N599 C600 1.376 . S
N599 C603 1.383 . S
C600 N599 1.376 . S
C600 C601 1.446 . S
C600 C623 1.391 . S
C601 C600 1.446 . S
C601 C602 1.339 . S
C601 H630 0.949 . S
C602 C601 1.339 . S
C602 C603 1.439 . S
C602 H631 0.950 . S
C603 N599 1.383 . S
C603 C602 1.439 . S
C603 C621 1.392 . S
N604 Co588 2.282 . S
N604 C607 1.332 . S
N604 C609 1.332 . S
C605 C606 1.386 . S
C605 C608 1.388 . S
C606 C605 1.386 . S
C606 C607 1.382 . S
C606 H632 0.950 . S
C607 N604 1.332 . S
C607 C606 1.382 . S
C607 H618 0.952 . S
C608 C605 1.388 . S
C608 C609 1.382 . S
C608 H633 0.950 . S
C609 N604 1.332 . S
C609 C608 1.382 . S
C609 H619 0.948 . S
N610 Co588 2.282 . S
N610 C614 1.332 . S
N610 C615 1.332 . S
C611 C612 1.388 . S
C611 C615 1.382 . S
C611 H634 0.950 . S
C612 C611 1.388 . S
C612 C613 1.386 . S
C613 C612 1.386 . S
C613 C614 1.382 . S
C613 H635 0.950 . S
C614 N610 1.332 . S
C614 C613 1.382 . S
C614 H616 0.952 . S
C615 N610 1.332 . S
C615 C611 1.382 . S
C615 H617 0.948 . S
H616 C614 0.952 . S
H617 C615 0.948 . S
H618 C607 0.952 . S
H619 C609 0.948 . S
C620 C586 1.395 . S
C620 C590 1.391 . S
C621 C583 1.389 . S
C621 C603 1.392 . S
C622 C593 1.392 . S
C622 C595 1.389 . S
C623 C598 1.395 . S
C623 C600 1.391 . S
H624 C584 0.951 . S
H625 C585 0.950 . S
H626 C591 0.949 . S
H627 C592 0.950 . S
H628 C596 0.951 . S
H629 C597 0.950 . S
H630 C601 0.949 . S
H631 C602 0.950 . S
H632 C606 0.950 . S
H633 C608 0.950 . S
H634 C611 0.950 . S
H635 C613 0.950 . S
C636 C637 1.391 . S
C636 C638 1.394 . S
C636 H652 0.931 . S
C637 C636 1.391 . S
C637 C641 1.376 . S
C638 C636 1.394 . S
C638 C639 1.369 . S
C638 C642 1.531 . S
C639 C638 1.369 . S
C639 C640 1.410 . S
C639 C647 1.503 1_556 S
C640 C639 1.410 . S
C640 C641 1.392 . S
C640 C643 1.511 . S
C641 C637 1.376 . S
C641 C640 1.392 . S
C641 H653 0.929 . S
C642 C638 1.531 . S
C642 H654 0.960 1_556 S
C642 H655 0.962 . S
C642 H656 0.960 . S
C643 C640 1.511 . S
C643 H657 0.961 . S
C643 H658 0.996 . S
C643 H659 0.961 . S
C644 C645 1.370 . S
C644 C646 1.363 . S
C644 H660 0.931 . S
C645 C644 1.370 . S
C645 C649 1.408 . S
C646 C644 1.363 . S
C646 C647 1.370 . S
C646 C650 1.524 . S
C647 C639 1.503 1_554 S
C647 C646 1.370 . S
C647 C648 1.403 . S
C648 C647 1.403 . S
C648 C649 1.404 . S
C648 C651 1.539 . S
C649 C645 1.408 . S
C649 C648 1.404 . S
C649 H661 0.930 . S
C650 C646 1.524 . S
C650 H662 0.956 . S
C650 H663 0.966 1_554 S
C650 H664 0.961 . S
C651 C648 1.539 . S
C651 H665 0.958 . S
C651 H666 0.961 . S
C651 H667 0.960 1_554 S
H652 C636 0.931 . S
H653 C641 0.929 . S
H654 C642 0.960 1_554 S
H655 C642 0.962 . S
H656 C642 0.960 . S
H657 C643 0.961 . S
H658 C643 0.996 . S
H659 C643 0.961 . S
H660 C644 0.931 . S
H661 C649 0.930 . S
H662 C650 0.956 . S
H663 C650 0.966 1_556 S
H664 C650 0.961 . S
H665 C651 0.958 . S
H666 C651 0.961 . S
H667 C651 0.960 1_556 S
C668 C669 1.391 . S
C668 C670 1.394 . S
C668 H684 0.931 . S
C669 C668 1.391 . S
C669 C673 1.376 . S
C670 C668 1.394 . S
C670 C671 1.369 . S
C670 C674 1.531 . S
C671 C670 1.369 . S
C671 C672 1.410 . S
C671 C679 1.503 . S
C672 C671 1.410 . S
C672 C673 1.392 . S
C672 C675 1.511 . S
C673 C669 1.376 . S
C673 C672 1.392 . S
C673 H685 0.929 . S
C674 C670 1.531 . S
C674 H686 0.960 . S
C674 H687 0.962 . S
C674 H688 0.960 . S
C675 C672 1.511 . S
C675 H689 0.961 . S
C675 H690 0.961 . S
C675 H691 0.961 . S
C676 C677 1.370 . S
C676 C678 1.363 . S
C676 H692 0.931 . S
C677 C676 1.370 . S
C677 C681 1.408 . S
C678 C676 1.363 . S
C678 C679 1.370 . S
C678 C682 1.524 . S
C679 C671 1.503 . S
C679 C678 1.370 . S
C679 C680 1.403 . S
C680 C679 1.403 . S
C680 C681 1.404 . S
C680 C683 1.539 . S
C681 C677 1.408 . S
C681 C680 1.404 . S
C681 H693 0.930 . S
C682 C678 1.524 . S
C682 H694 0.956 . S
C682 H695 0.961 . S
C682 H696 0.961 . S
C683 C680 1.539 . S
C683 H697 0.958 . S
C683 H698 0.961 . S
C683 H699 0.960 . S
H684 C668 0.931 . S
H685 C673 0.929 . S
H686 C674 0.960 . S
H687 C674 0.962 . S
H688 C674 0.960 . S
H689 C675 0.961 . S
H690 C675 0.961 . S
H691 C675 0.961 . S
H692 C676 0.931 . S
H693 C681 0.930 . S
H694 C682 0.956 . S
H695 C682 0.961 . S
H696 C682 0.961 . S
H697 C683 0.958 . S
H698 C683 0.961 . S
H699 C683 0.960 . S
C700 C701 1.391 . S
C700 C702 1.394 . S
C700 H716 0.931 . S
C701 C700 1.391 . S
C701 C705 1.376 . S
C702 C700 1.394 . S
C702 C703 1.369 . S
C702 C706 1.531 . S
C703 C702 1.369 . S
C703 C704 1.410 . S
C703 C711 1.503 . S
C704 C703 1.410 . S
C704 C705 1.392 . S
C704 C707 1.511 . S
C705 C701 1.376 . S
C705 C704 1.392 . S
C705 H717 0.929 . S
C706 C702 1.531 . S
C706 H718 0.960 . S
C706 H719 0.962 . S
C706 H720 0.960 . S
C707 C704 1.511 . S
C707 H721 0.961 . S
C707 H722 0.961 . S
C707 H723 0.961 . S
C708 C709 1.370 . S
C708 C710 1.363 . S
C708 H724 0.931 . S
C709 C708 1.370 . S
C709 C713 1.408 . S
C710 C708 1.363 . S
C710 C711 1.370 . S
C710 C714 1.524 . S
C711 C703 1.503 . S
C711 C710 1.370 . S
C711 C712 1.403 . S
C712 C711 1.403 . S
C712 C713 1.404 . S
C712 C715 1.539 . S
C713 C709 1.408 . S
C713 C712 1.404 . S
C713 H725 0.930 . S
C714 C710 1.524 . S
C714 H726 0.956 . S
C714 H727 0.961 . S
C714 H728 0.961 . S
C715 C712 1.539 . S
C715 H729 0.958 . S
C715 H730 0.961 . S
C715 H731 0.960 . S
H716 C700 0.931 . S
H717 C705 0.929 . S
H718 C706 0.960 . S
H719 C706 0.962 . S
H720 C706 0.960 . S
H721 C707 0.961 . S
H722 C707 0.961 . S
H723 C707 0.961 . S
H724 C708 0.931 . S
H725 C713 0.930 . S
H726 C714 0.956 . S
H727 C714 0.961 . S
H728 C714 0.961 . S
H729 C715 0.958 . S
H730 C715 0.961 . S
H731 C715 0.960 . S
C732 C733 1.391 . S
C732 C734 1.394 . S
C732 H748 0.931 . S
C733 C732 1.391 . S
C733 C737 1.376 . S
C734 C732 1.394 . S
C734 C735 1.369 . S
C734 C738 1.531 . S
C735 C734 1.369 . S
C735 C736 1.410 . S
C735 C743 1.503 1_554 S
C736 C735 1.410 . S
C736 C737 1.392 . S
C736 C739 1.511 . S
C737 C733 1.376 . S
C737 C736 1.392 . S
C737 H749 0.929 . S
C738 C734 1.531 . S
C738 H750 0.967 . S
C738 H751 0.962 . S
C738 H752 0.960 . S
C739 C736 1.511 . S
C739 H753 0.961 . S
C739 H754 0.961 1_554 S
C739 H755 0.961 . S
C740 C741 1.370 . S
C740 C742 1.363 . S
C740 H756 0.931 . S
C741 C740 1.370 . S
C741 C745 1.408 . S
C742 C740 1.363 . S
C742 C743 1.370 . S
C742 C746 1.524 . S
C743 C735 1.503 1_556 S
C743 C742 1.370 . S
C743 C744 1.403 . S
C744 C743 1.403 . S
C744 C745 1.404 . S
C744 C747 1.539 . S
C745 C741 1.408 . S
C745 C744 1.404 . S
C745 H757 0.930 . S
C746 C742 1.524 . S
C746 H758 0.956 1_556 S
C746 H759 0.961 1_556 S
C746 H760 0.961 . S
C747 C744 1.539 . S
C747 H761 0.958 . S
C747 H762 0.961 . S
C747 H763 0.960 . S
H748 C732 0.931 . S
H749 C737 0.929 . S
H750 C738 0.967 . S
H751 C738 0.962 . S
H752 C738 0.960 . S
H753 C739 0.961 . S
H754 C739 0.961 1_556 S
H755 C739 0.961 . S
H756 C740 0.931 . S
H757 C745 0.930 . S
H758 C746 0.956 1_554 S
H759 C746 0.961 1_554 S
H760 C746 0.961 . S
H761 C747 0.958 . S
H762 C747 0.961 . S
H763 C747 0.960 . S
C764 C765 1.391 . S
C764 C766 1.394 . S
C764 H780 0.931 . S
C765 C764 1.391 . S
C765 C769 1.376 . S
C766 C764 1.394 . S
C766 C767 1.369 . S
C766 C770 1.531 . S
C767 C766 1.369 . S
C767 C768 1.410 . S
C767 C775 1.503 . S
C768 C767 1.410 . S
C768 C769 1.392 . S
C768 C771 1.511 . S
C769 C765 1.376 . S
C769 C768 1.392 . S
C769 H781 0.929 . S
C770 C766 1.531 . S
C770 H782 0.960 . S
C770 H783 0.962 . S
C770 H784 0.960 . S
C771 C768 1.511 . S
C771 H785 0.961 . S
C771 H786 0.961 . S
C771 H787 0.961 . S
C772 C773 1.370 . S
C772 C774 1.363 . S
C772 H788 0.931 . S
C773 C772 1.370 . S
C773 C777 1.408 . S
C774 C772 1.363 . S
C774 C775 1.370 . S
C774 C778 1.524 . S
C775 C767 1.503 . S
C775 C774 1.370 . S
C775 C776 1.403 . S
C776 C775 1.403 . S
C776 C777 1.404 . S
C776 C779 1.539 . S
C777 C773 1.408 . S
C777 C776 1.404 . S
C777 H789 0.930 . S
C778 C774 1.524 . S
C778 H790 0.956 . S
C778 H791 0.961 . S
C778 H792 0.961 . S
C779 C776 1.539 . S
C779 H793 0.958 . S
C779 H794 0.961 . S
C779 H795 0.960 . S
H780 C764 0.931 . S
H781 C769 0.929 . S
H782 C770 0.960 . S
H783 C770 0.962 . S
H784 C770 0.960 . S
H785 C771 0.961 . S
H786 C771 0.961 . S
H787 C771 0.961 . S
H788 C772 0.931 . S
H789 C777 0.930 . S
H790 C778 0.956 . S
H791 C778 0.961 . S
H792 C778 0.961 . S
H793 C779 0.958 . S
H794 C779 0.961 . S
H795 C779 0.960 . S
C796 C797 1.391 . S
C796 C798 1.394 . S
C796 H812 0.931 . S
C797 C796 1.391 . S
C797 C801 1.376 . S
C798 C796 1.394 . S
C798 C799 1.369 . S
C798 C802 1.531 . S
C799 C798 1.369 . S
C799 C800 1.410 . S
C799 C807 1.503 . S
C800 C799 1.410 . S
C800 C801 1.392 . S
C800 C803 1.511 . S
C801 C797 1.376 . S
C801 C800 1.392 . S
C801 H813 0.929 . S
C802 C798 1.531 . S
C802 H814 0.960 . S
C802 H815 0.962 . S
C802 H816 0.960 . S
C803 C800 1.511 . S
C803 H817 0.961 . S
C803 H818 0.961 . S
C803 H819 0.961 . S
C804 C805 1.370 . S
C804 C806 1.363 . S
C804 H820 0.931 . S
C805 C804 1.370 . S
C805 C809 1.408 . S
C806 C804 1.363 . S
C806 C807 1.370 . S
C806 C810 1.524 . S
C807 C799 1.503 . S
C807 C806 1.370 . S
C807 C808 1.403 . S
C808 C807 1.403 . S
C808 C809 1.404 . S
C808 C811 1.539 . S
C809 C805 1.408 . S
C809 C808 1.404 . S
C809 H821 0.930 . S
C810 C806 1.524 . S
C810 H822 0.956 . S
C810 H823 0.961 . S
C810 H824 0.961 . S
C811 C808 1.539 . S
C811 H825 0.958 . S
C811 H826 0.961 . S
C811 H827 0.960 . S
H812 C796 0.931 . S
H813 C801 0.929 . S
H814 C802 0.960 . S
H815 C802 0.962 . S
H816 C802 0.960 . S
H817 C803 0.961 . S
H818 C803 0.961 . S
H819 C803 0.961 . S
H820 C804 0.931 . S
H821 C809 0.930 . S
H822 C810 0.956 . S
H823 C810 0.961 . S
H824 C810 0.961 . S
H825 C811 0.958 . S
H826 C811 0.961 . S
H827 C811 0.960 . S
C828 C829 1.391 . S
C828 C830 1.394 . S
C828 H844 0.931 . S
C829 C828 1.391 . S
C829 C833 1.376 . S
C830 C828 1.394 . S
C830 C831 1.369 . S
C830 C834 1.531 . S
C831 C830 1.369 . S
C831 C832 1.410 . S
C831 C839 1.503 . S
C832 C831 1.410 . S
C832 C833 1.392 . S
C832 C835 1.511 . S
C833 C829 1.376 . S
C833 C832 1.392 . S
C833 H845 0.929 . S
C834 C830 1.531 . S
C834 H846 0.960 . S
C834 H847 0.962 . S
C834 H848 0.960 . S
C835 C832 1.511 . S
C835 H849 0.961 . S
C835 H850 0.961 . S
C835 H851 0.961 . S
C836 C837 1.370 . S
C836 C838 1.363 . S
C836 H852 0.931 . S
C837 C836 1.370 . S
C837 C841 1.408 . S
C838 C836 1.363 . S
C838 C839 1.370 . S
C838 C842 1.524 . S
C839 C831 1.503 . S
C839 C838 1.370 . S
C839 C840 1.403 . S
C840 C839 1.403 . S
C840 C841 1.404 . S
C840 C843 1.539 . S
C841 C837 1.408 . S
C841 C840 1.404 . S
C841 H853 0.930 . S
C842 C838 1.524 . S
C842 H854 0.956 . S
C842 H855 0.961 . S
C842 H856 0.961 . S
C843 C840 1.539 . S
C843 H857 0.958 . S
C843 H858 0.961 . S
C843 H859 0.960 . S
H844 C828 0.931 . S
H845 C833 0.929 . S
H846 C834 0.960 . S
H847 C834 0.962 . S
H848 C834 0.960 . S
H849 C835 0.961 . S
H850 C835 0.961 . S
H851 C835 0.961 . S
H852 C836 0.931 . S
H853 C841 0.930 . S
H854 C842 0.956 . S
H855 C842 0.961 . S
H856 C842 0.961 . S
H857 C843 0.958 . S
H858 C843 0.961 . S
H859 C843 0.960 . S
C860 C861 1.391 . S
C860 C862 1.394 . S
C860 H876 0.931 . S
C861 C860 1.391 . S
C861 C865 1.376 . S
C862 C860 1.394 . S
C862 C863 1.369 . S
C862 C866 1.531 . S
C863 C862 1.369 . S
C863 C864 1.410 . S
C863 C871 1.503 . S
C864 C863 1.410 . S
C864 C865 1.392 . S
C864 C867 1.511 . S
C865 C861 1.376 . S
C865 C864 1.392 . S
C865 H877 0.929 . S
C866 C862 1.531 . S
C866 H878 0.960 . S
C866 H879 0.962 . S
C866 H880 0.960 . S
C867 C864 1.511 . S
C867 H881 0.961 . S
C867 H882 0.961 . S
C867 H883 0.961 . S
C868 C869 1.370 . S
C868 C870 1.363 . S
C868 H884 0.931 . S
C869 C868 1.370 . S
C869 C873 1.408 . S
C870 C868 1.363 . S
C870 C871 1.370 . S
C870 C874 1.524 . S
C871 C863 1.503 . S
C871 C870 1.370 . S
C871 C872 1.403 . S
C872 C871 1.403 . S
C872 C873 1.404 . S
C872 C875 1.539 . S
C873 C869 1.408 . S
C873 C872 1.404 . S
C873 H885 0.930 . S
C874 C870 1.524 . S
C874 H886 0.956 . S
C874 H887 0.961 . S
C874 H888 0.961 . S
C875 C872 1.539 . S
C875 H889 0.958 . S
C875 H890 0.961 . S
C875 H891 0.960 . S
H876 C860 0.931 . S
H877 C865 0.929 . S
H878 C866 0.960 . S
H879 C866 0.962 . S
H880 C866 0.960 . S
H881 C867 0.961 . S
H882 C867 0.961 . S
H883 C867 0.961 . S
H884 C868 0.931 . S
H885 C873 0.930 . S
H886 C874 0.956 . S
H887 C874 0.961 . S
H888 C874 0.961 . S
H889 C875 0.958 . S
H890 C875 0.961 . S
H891 C875 0.960 . S
C892 C893 1.391 . S
C892 C894 1.394 . S
C892 H908 0.931 . S
C893 C892 1.391 . S
C893 C897 1.376 . S
C894 C892 1.394 . S
C894 C895 1.369 . S
C894 C898 1.531 . S
C895 C894 1.369 . S
C895 C896 1.410 . S
C895 C903 1.503 . S
C896 C895 1.410 . S
C896 C897 1.392 . S
C896 C899 1.511 . S
C897 C893 1.376 . S
C897 C896 1.392 . S
C897 H909 0.929 . S
C898 C894 1.531 . S
C898 H910 0.960 . S
C898 H911 0.962 . S
C898 H912 0.960 . S
C899 C896 1.511 . S
C899 H913 0.961 . S
C899 H914 0.961 . S
C899 H915 0.961 . S
C900 C901 1.370 . S
C900 C902 1.363 . S
C900 H916 0.931 . S
C901 C900 1.370 . S
C901 C905 1.408 . S
C902 C900 1.363 . S
C902 C903 1.370 . S
C902 C906 1.524 . S
C903 C895 1.503 . S
C903 C902 1.370 . S
C903 C904 1.403 . S
C904 C903 1.403 . S
C904 C905 1.404 . S
C904 C907 1.539 . S
C905 C901 1.408 . S
C905 C904 1.404 . S
C905 H917 0.930 . S
C906 C902 1.524 . S
C906 H918 0.956 . S
C906 H919 0.961 . S
C906 H920 0.961 . S
C907 C904 1.539 . S
C907 H921 0.958 . S
C907 H922 0.961 . S
C907 H923 0.960 . S
H908 C892 0.931 . S
H909 C897 0.929 . S
H910 C898 0.960 . S
H911 C898 0.962 . S
H912 C898 0.960 . S
H913 C899 0.961 . S
H914 C899 0.961 . S
H915 C899 0.961 . S
H916 C900 0.931 . S
H917 C905 0.930 . S
H918 C906 0.956 . S
H919 C906 0.961 . S
H920 C906 0.961 . S
H921 C907 0.958 . S
H922 C907 0.961 . S
H923 C907 0.960 . S
C924 C925 1.391 . S
C924 C926 1.394 . S
C924 H940 0.931 . S
C925 C924 1.391 . S
C925 C929 1.376 . S
C926 C924 1.394 . S
C926 C927 1.369 . S
C926 C930 1.531 . S
C927 C926 1.369 . S
C927 C928 1.410 . S
C927 C935 1.503 . S
C928 C927 1.410 . S
C928 C929 1.392 . S
C928 C931 1.511 . S
C929 C925 1.376 . S
C929 C928 1.392 . S
C929 H941 0.929 . S
C930 C926 1.531 . S
C930 H942 0.960 . S
C930 H943 0.962 . S
C930 H944 0.960 . S
C931 C928 1.511 . S
C931 H945 0.961 . S
C931 H946 0.961 . S
C931 H947 0.961 . S
C932 C933 1.370 . S
C932 C934 1.363 . S
C932 H948 0.931 . S
C933 C932 1.370 . S
C933 C937 1.408 . S
C934 C932 1.363 . S
C934 C935 1.370 . S
C934 C938 1.524 . S
C935 C927 1.503 . S
C935 C934 1.370 . S
C935 C936 1.403 . S
C936 C935 1.403 . S
C936 C937 1.404 . S
C936 C939 1.539 . S
C937 C933 1.408 . S
C937 C936 1.404 . S
C937 H949 0.930 . S
C938 C934 1.524 . S
C938 H950 0.956 . S
C938 H951 0.961 . S
C938 H952 0.961 . S
C939 C936 1.539 . S
C939 H953 0.958 . S
C939 H954 0.961 . S
C939 H955 0.960 . S
H940 C924 0.931 . S
H941 C929 0.929 . S
H942 C930 0.960 . S
H943 C930 0.962 . S
H944 C930 0.960 . S
H945 C931 0.961 . S
H946 C931 0.961 . S
H947 C931 0.961 . S
H948 C932 0.931 . S
H949 C937 0.930 . S
H950 C938 0.956 . S
H951 C938 0.961 . S
H952 C938 0.961 . S
H953 C939 0.958 . S
H954 C939 0.961 . S
H955 C939 0.960 . S
C956 C957 1.391 . S
C956 C958 1.394 . S
C956 H972 0.931 . S
C957 C956 1.391 . S
C957 C961 1.376 . S
C958 C956 1.394 . S
C958 C959 1.369 . S
C958 C962 1.531 . S
C959 C958 1.369 . S
C959 C960 1.410 . S
C959 C967 1.503 . S
C960 C959 1.410 . S
C960 C961 1.392 . S
C960 C963 1.511 . S
C961 C957 1.376 . S
C961 C960 1.392 . S
C961 H973 0.929 . S
C962 C958 1.531 . S
C962 H974 0.960 . S
C962 H975 0.962 . S
C962 H976 0.960 . S
C963 C960 1.511 . S
C963 H977 0.961 . S
C963 H978 0.961 . S
C963 H979 0.961 . S
C964 C965 1.370 . S
C964 C966 1.363 . S
C964 H980 0.931 . S
C965 C964 1.370 . S
C965 C969 1.408 . S
C966 C964 1.363 . S
C966 C967 1.370 . S
C966 C970 1.524 . S
C967 C959 1.503 . S
C967 C966 1.370 . S
C967 C968 1.403 . S
C968 C967 1.403 . S
C968 C969 1.404 . S
C968 C971 1.539 . S
C969 C965 1.408 . S
C969 C968 1.404 . S
C969 H981 0.930 . S
C970 C966 1.524 . S
C970 H982 0.956 . S
C970 H983 0.961 . S
C970 H984 0.961 . S
C971 C968 1.539 . S
C971 H985 0.958 . S
C971 H986 0.961 . S
C971 H987 0.960 . S
H972 C956 0.931 . S
H973 C961 0.929 . S
H974 C962 0.960 . S
H975 C962 0.962 . S
H976 C962 0.960 . S
H977 C963 0.961 . S
H978 C963 0.961 . S
H979 C963 0.961 . S
H980 C964 0.931 . S
H981 C969 0.930 . S
H982 C970 0.956 . S
H983 C970 0.961 . S
H984 C970 0.961 . S
H985 C971 0.958 . S
H986 C971 0.961 . S
H987 C971 0.960 . S
C988 C989 1.391 . S
C988 C990 1.394 . S
C988 H1004 0.931 . S
C989 C988 1.391 . S
C989 C993 1.376 . S
C990 C988 1.394 . S
C990 C991 1.369 . S
C990 C994 1.531 . S
C991 C990 1.369 . S
C991 C992 1.410 . S
C991 C999 1.503 . S
C992 C991 1.410 . S
C992 C993 1.392 . S
C992 C995 1.511 . S
C993 C989 1.376 . S
C993 C992 1.392 . S
C993 H1005 0.929 . S
C994 C990 1.531 . S
C994 H1006 0.960 . S
C994 H1007 0.962 . S
C994 H1008 0.960 . S
C995 C992 1.511 . S
C995 H1009 0.961 . S
C995 H1010 0.961 . S
C995 H1011 0.961 . S
C996 C997 1.370 . S
C996 C998 1.363 . S
C996 H1012 0.931 . S
C997 C996 1.370 . S
C997 C1001 1.408 . S
C998 C996 1.363 . S
C998 C999 1.370 . S
C998 C1002 1.524 . S
C999 C991 1.503 . S
C999 C998 1.370 . S
C999 C1000 1.403 . S
C1000 C999 1.403 . S
C1000 C1001 1.404 . S
C1000 C1003 1.539 . S
C1001 C997 1.408 . S
C1001 C1000 1.404 . S
C1001 H1013 0.930 . S
C1002 C998 1.524 . S
C1002 H1014 0.956 . S
C1002 H1015 0.961 . S
C1002 H1016 0.961 . S
C1003 C1000 1.539 . S
C1003 H1017 0.958 . S
C1003 H1018 0.961 . S
C1003 H1019 0.960 . S
H1004 C988 0.931 . S
H1005 C993 0.929 . S
H1006 C994 0.960 . S
H1007 C994 0.962 . S
H1008 C994 0.960 . S
H1009 C995 0.961 . S
H1010 C995 0.961 . S
H1011 C995 0.961 . S
H1012 C996 0.931 . S
H1013 C1001 0.930 . S
H1014 C1002 0.956 . S
H1015 C1002 0.961 . S
H1016 C1002 0.961 . S
H1017 C1003 0.958 . S
H1018 C1003 0.961 . S
H1019 C1003 0.960 . S
C1020 C1021 1.391 . S
C1020 C1022 1.394 . S
C1020 H1036 0.931 . S
C1021 C1020 1.391 . S
C1021 C1025 1.376 . S
C1022 C1020 1.394 . S
C1022 C1023 1.369 . S
C1022 C1026 1.531 . S
C1023 C1022 1.369 . S
C1023 C1024 1.410 . S
C1023 C1031 1.503 1_655 S
C1024 C1023 1.410 . S
C1024 C1025 1.392 . S
C1024 C1027 1.511 . S
C1025 C1021 1.376 . S
C1025 C1024 1.392 . S
C1025 H1037 0.929 . S
C1026 C1022 1.531 . S
C1026 H1038 0.960 . S
C1026 H1039 0.962 . S
C1026 H1040 0.960 . S
C1027 C1024 1.511 . S
C1027 H1041 0.961 . S
C1027 H1042 0.961 1_655 S
C1027 H1043 0.961 . S
C1028 C1029 1.370 . S
C1028 C1030 1.363 . S
C1028 H1044 0.931 . S
C1029 C1028 1.370 . S
C1029 C1033 1.408 . S
C1030 C1028 1.363 . S
C1030 C1031 1.370 . S
C1030 C1034 1.524 . S
C1031 C1023 1.503 1_455 S
C1031 C1030 1.370 . S
C1031 C1032 1.403 . S
C1032 C1031 1.403 . S
C1032 C1033 1.404 . S
C1032 C1035 1.539 1_455 S
C1033 C1029 1.408 . S
C1033 C1032 1.404 . S
C1033 H1045 0.930 . S
C1034 C1030 1.524 . S
C1034 H1046 0.956 . S
C1034 H1047 0.961 . S
C1034 H1048 0.961 . S
C1035 C1032 1.539 1_655 S
C1035 H1049 0.958 . S
C1035 H1050 0.961 . S
C1035 H1051 0.960 . S
H1036 C1020 0.931 . S
H1037 C1025 0.929 . S
H1038 C1026 0.960 . S
H1039 C1026 0.962 . S
H1040 C1026 0.960 . S
H1041 C1027 0.961 . S
H1042 C1027 0.961 1_455 S
H1043 C1027 0.961 . S
H1044 C1028 0.931 . S
H1045 C1033 0.930 . S
H1046 C1034 0.956 . S
H1047 C1034 0.961 . S
H1048 C1034 0.961 . S
H1049 C1035 0.958 . S
H1050 C1035 0.961 . S
H1051 C1035 0.960 . S
C1052 C1053 1.391 . S
C1052 C1054 1.394 . S
C1052 H1068 0.931 . S
C1053 C1052 1.391 . S
C1053 C1057 1.376 . S
C1054 C1052 1.394 . S
C1054 C1055 1.369 . S
C1054 C1058 1.531 . S
C1055 C1054 1.369 . S
C1055 C1056 1.410 . S
C1055 C1063 1.503 1_545 S
C1056 C1055 1.410 . S
C1056 C1057 1.392 . S
C1056 C1059 1.511 1_545 S
C1057 C1053 1.376 . S
C1057 C1056 1.392 . S
C1057 H1069 0.929 . S
C1058 C1054 1.531 . S
C1058 H1070 0.960 . S
C1058 H1071 0.962 . S
C1058 H1072 0.960 . S
C1059 C1056 1.511 1_565 S
C1059 H1073 0.961 1_565 S
C1059 H1074 0.961 . S
C1059 H1075 0.961 . S
C1060 C1061 1.370 . S
C1060 C1062 1.363 . S
C1060 H1076 0.931 . S
C1061 C1060 1.370 . S
C1061 C1065 1.408 . S
C1062 C1060 1.363 . S
C1062 C1063 1.370 . S
C1062 C1066 1.524 1_565 S
C1063 C1055 1.503 1_565 S
C1063 C1062 1.370 . S
C1063 C1064 1.403 . S
C1064 C1063 1.403 . S
C1064 C1065 1.404 . S
C1064 C1067 1.539 . S
C1065 C1061 1.408 . S
C1065 C1064 1.404 . S
C1065 H1077 0.930 . S
C1066 C1062 1.524 1_545 S
C1066 H1078 0.956 . S
C1066 H1079 0.961 . S
C1066 H1080 0.961 1_545 S
C1067 C1064 1.539 . S
C1067 H1081 0.958 . S
C1067 H1082 0.961 . S
C1067 H1083 0.960 . S
H1068 C1052 0.931 . S
H1069 C1057 0.929 . S
H1070 C1058 0.960 . S
H1071 C1058 0.962 . S
H1072 C1058 0.960 . S
H1073 C1059 0.961 1_545 S
H1074 C1059 0.961 . S
H1075 C1059 0.961 . S
H1076 C1060 0.931 . S
H1077 C1065 0.930 . S
H1078 C1066 0.956 . S
H1079 C1066 0.961 . S
H1080 C1066 0.961 1_565 S
H1081 C1067 0.958 . S
H1082 C1067 0.961 . S
H1083 C1067 0.960 . S
C1084 C1085 1.391 . S
C1084 C1086 1.394 . S
C1084 H1100 0.931 . S
C1085 C1084 1.391 . S
C1085 C1089 1.376 . S
C1086 C1084 1.394 . S
C1086 C1087 1.369 . S
C1086 C1090 1.531 . S
C1087 C1086 1.369 . S
C1087 C1088 1.410 . S
C1087 C1095 1.503 . S
C1088 C1087 1.410 . S
C1088 C1089 1.392 . S
C1088 C1091 1.511 . S
C1089 C1085 1.376 . S
C1089 C1088 1.392 . S
C1089 H1101 0.929 . S
C1090 C1086 1.531 . S
C1090 H1102 0.960 . S
C1090 H1103 0.962 . S
C1090 H1104 0.960 . S
C1091 C1088 1.511 . S
C1091 H1105 0.961 . S
C1091 H1106 0.961 . S
C1091 H1107 0.961 . S
C1092 C1093 1.370 . S
C1092 C1094 1.363 . S
C1092 H1108 0.931 . S
C1093 C1092 1.370 . S
C1093 C1097 1.408 . S
C1094 C1092 1.363 . S
C1094 C1095 1.370 . S
C1094 C1098 1.524 . S
C1095 C1087 1.503 . S
C1095 C1094 1.370 . S
C1095 C1096 1.403 . S
C1096 C1095 1.403 . S
C1096 C1097 1.404 . S
C1096 C1099 1.539 . S
C1097 C1093 1.408 . S
C1097 C1096 1.404 . S
C1097 H1109 0.930 . S
C1098 C1094 1.524 . S
C1098 H1110 0.956 . S
C1098 H1111 0.961 . S
C1098 H1112 0.961 . S
C1099 C1096 1.539 . S
C1099 H1113 0.958 . S
C1099 H1114 0.961 . S
C1099 H1115 0.960 . S
H1100 C1084 0.931 . S
H1101 C1089 0.929 . S
H1102 C1090 0.960 . S
H1103 C1090 0.962 . S
H1104 C1090 0.960 . S
H1105 C1091 0.961 . S
H1106 C1091 0.961 . S
H1107 C1091 0.961 . S
H1108 C1092 0.931 . S
H1109 C1097 0.930 . S
H1110 C1098 0.956 . S
H1111 C1098 0.961 . S
H1112 C1098 0.961 . S
H1113 C1099 0.958 . S
H1114 C1099 0.961 . S
H1115 C1099 0.960 . S
C1116 C1117 1.391 . S
C1116 C1118 1.394 . S
C1116 H1132 0.931 . S
C1117 C1116 1.391 . S
C1117 C1121 1.376 . S
C1118 C1116 1.394 . S
C1118 C1119 1.369 . S
C1118 C1122 1.531 . S
C1119 C1118 1.369 . S
C1119 C1120 1.410 . S
C1119 C1127 1.503 1_545 S
C1120 C1119 1.410 . S
C1120 C1121 1.392 . S
C1120 C1123 1.511 . S
C1121 C1117 1.376 . S
C1121 C1120 1.392 . S
C1121 H1133 0.929 . S
C1122 C1118 1.531 . S
C1122 H1134 0.960 1_545 S
C1122 H1135 0.962 1_545 S
C1122 H1136 0.960 . S
C1123 C1120 1.511 . S
C1123 H1137 0.961 . S
C1123 H1138 0.961 . S
C1123 H1139 0.961 . S
C1124 C1125 1.370 . S
C1124 C1126 1.363 . S
C1124 H1140 0.931 . S
C1125 C1124 1.370 . S
C1125 C1129 1.408 . S
C1126 C1124 1.363 . S
C1126 C1127 1.370 . S
C1126 C1130 1.524 . S
C1127 C1119 1.503 1_565 S
C1127 C1126 1.370 . S
C1127 C1128 1.403 . S
C1128 C1127 1.403 . S
C1128 C1129 1.404 . S
C1128 C1131 1.539 1_565 S
C1129 C1125 1.408 . S
C1129 C1128 1.404 . S
C1129 H1141 0.930 . S
C1130 C1126 1.524 . S
C1130 H1142 0.956 . S
C1130 H1143 0.961 . S
C1130 H1144 0.961 . S
C1131 C1128 1.539 1_545 S
C1131 H1145 0.958 . S
C1131 H1146 0.961 . S
C1131 H1147 0.960 . S
H1132 C1116 0.931 . S
H1133 C1121 0.929 . S
H1134 C1122 0.960 1_565 S
H1135 C1122 0.962 1_565 S
H1136 C1122 0.960 . S
H1137 C1123 0.961 . S
H1138 C1123 0.961 . S
H1139 C1123 0.961 . S
H1140 C1124 0.931 . S
H1141 C1129 0.930 . S
H1142 C1130 0.956 . S
H1143 C1130 0.961 . S
H1144 C1130 0.961 . S
H1145 C1131 0.958 . S
H1146 C1131 0.961 . S
H1147 C1131 0.960 . S
C1148 C1149 1.391 . S
C1148 C1150 1.394 . S
C1148 H1164 0.931 . S
C1149 C1148 1.391 . S
C1149 C1153 1.376 . S
C1150 C1148 1.394 . S
C1150 C1151 1.369 . S
C1150 C1154 1.531 . S
C1151 C1150 1.369 . S
C1151 C1152 1.410 . S
C1151 C1159 1.503 . S
C1152 C1151 1.410 . S
C1152 C1153 1.392 . S
C1152 C1155 1.511 . S
C1153 C1149 1.376 . S
C1153 C1152 1.392 . S
C1153 H1165 0.929 . S
C1154 C1150 1.531 . S
C1154 H1166 0.960 . S
C1154 H1167 0.962 . S
C1154 H1168 0.960 . S
C1155 C1152 1.511 . S
C1155 H1169 0.961 . S
C1155 H1170 0.961 . S
C1155 H1171 0.961 . S
C1156 C1157 1.370 . S
C1156 C1158 1.363 . S
C1156 H1172 0.931 . S
C1157 C1156 1.370 . S
C1157 C1161 1.408 . S
C1158 C1156 1.363 . S
C1158 C1159 1.370 . S
C1158 C1162 1.524 . S
C1159 C1151 1.503 . S
C1159 C1158 1.370 . S
C1159 C1160 1.403 . S
C1160 C1159 1.403 . S
C1160 C1161 1.404 . S
C1160 C1163 1.539 . S
C1161 C1157 1.408 . S
C1161 C1160 1.404 . S
C1161 H1173 0.930 . S
C1162 C1158 1.524 . S
C1162 H1174 0.956 . S
C1162 H1175 0.961 . S
C1162 H1176 0.961 . S
C1163 C1160 1.539 . S
C1163 H1177 0.958 . S
C1163 H1178 0.961 . S
C1163 H1179 0.960 . S
H1164 C1148 0.931 . S
H1165 C1153 0.929 . S
H1166 C1154 0.960 . S
H1167 C1154 0.962 . S
H1168 C1154 0.960 . S
H1169 C1155 0.961 . S
H1170 C1155 0.961 . S
H1171 C1155 0.961 . S
H1172 C1156 0.931 . S
H1173 C1161 0.930 . S
H1174 C1162 0.956 . S
H1175 C1162 0.961 . S
H1176 C1162 0.961 . S
H1177 C1163 0.958 . S
H1178 C1163 0.961 . S
H1179 C1163 0.960 . S
C1180 C1181 1.391 . S
C1180 C1182 1.394 . S
C1180 H1196 0.931 . S
C1181 C1180 1.391 . S
C1181 C1185 1.376 . S
C1182 C1180 1.394 . S
C1182 C1183 1.369 . S
C1182 C1186 1.531 1_455 S
C1183 C1182 1.369 . S
C1183 C1184 1.410 . S
C1183 C1191 1.503 1_455 S
C1184 C1183 1.410 . S
C1184 C1185 1.392 . S
C1184 C1187 1.511 . S
C1185 C1181 1.376 . S
C1185 C1184 1.392 . S
C1185 H1197 0.929 . S
C1186 C1182 1.531 1_655 S
C1186 H1198 0.960 . S
C1186 H1199 0.962 . S
C1186 H1200 0.960 . S
C1187 C1184 1.511 . S
C1187 H1201 0.961 . S
C1187 H1202 0.961 . S
C1187 H1203 0.961 . S
C1188 C1189 1.370 . S
C1188 C1190 1.363 . S
C1188 H1204 0.931 . S
C1189 C1188 1.370 . S
C1189 C1193 1.408 . S
C1190 C1188 1.363 . S
C1190 C1191 1.370 . S
C1190 C1194 1.524 1_655 S
C1191 C1183 1.503 1_655 S
C1191 C1190 1.370 . S
C1191 C1192 1.403 . S
C1192 C1191 1.403 . S
C1192 C1193 1.404 . S
C1192 C1195 1.539 . S
C1193 C1189 1.408 . S
C1193 C1192 1.404 . S
C1193 H1205 0.930 . S
C1194 C1190 1.524 1_455 S
C1194 H1206 0.956 . S
C1194 H1207 0.961 . S
C1194 H1208 0.961 . S
C1195 C1192 1.539 . S
C1195 H1209 0.958 . S
C1195 H1210 0.961 . S
C1195 H1211 0.960 . S
H1196 C1180 0.931 . S
H1197 C1185 0.929 . S
H1198 C1186 0.960 . S
H1199 C1186 0.962 . S
H1200 C1186 0.960 . S
H1201 C1187 0.961 . S
H1202 C1187 0.961 . S
H1203 C1187 0.961 . S
H1204 C1188 0.931 . S
H1205 C1193 0.930 . S
H1206 C1194 0.956 . S
H1207 C1194 0.961 . S
H1208 C1194 0.961 . S
H1209 C1195 0.958 . S
H1210 C1195 0.961 . S
H1211 C1195 0.960 . S
C1212 C1213 1.391 . S
C1212 C1214 1.394 . S
C1212 H1228 0.931 . S
C1213 C1212 1.391 . S
C1213 C1217 1.376 . S
C1214 C1212 1.394 . S
C1214 C1215 1.369 . S
C1214 C1218 1.531 . S
C1215 C1214 1.369 . S
C1215 C1216 1.410 . S
C1215 C1223 1.503 . S
C1216 C1215 1.410 . S
C1216 C1217 1.392 . S
C1216 C1219 1.511 . S
C1217 C1213 1.376 . S
C1217 C1216 1.392 . S
C1217 H1229 0.929 . S
C1218 C1214 1.531 . S
C1218 H1230 0.960 . S
C1218 H1231 0.962 . S
C1218 H1232 0.960 . S
C1219 C1216 1.511 . S
C1219 H1233 0.961 . S
C1219 H1234 0.961 . S
C1219 H1235 0.961 . S
C1220 C1221 1.370 . S
C1220 C1222 1.363 . S
C1220 H1236 0.931 . S
C1221 C1220 1.370 . S
C1221 C1225 1.408 . S
C1222 C1220 1.363 . S
C1222 C1223 1.370 . S
C1222 C1226 1.524 . S
C1223 C1215 1.503 . S
C1223 C1222 1.370 . S
C1223 C1224 1.403 . S
C1224 C1223 1.403 . S
C1224 C1225 1.404 . S
C1224 C1227 1.539 . S
C1225 C1221 1.408 . S
C1225 C1224 1.404 . S
C1225 H1237 0.930 . S
C1226 C1222 1.524 . S
C1226 H1238 0.956 . S
C1226 H1239 0.961 . S
C1226 H1240 0.961 . S
C1227 C1224 1.539 . S
C1227 H1241 0.958 . S
C1227 H1242 0.961 . S
C1227 H1243 0.960 . S
H1228 C1212 0.931 . S
H1229 C1217 0.929 . S
H1230 C1218 0.960 . S
H1231 C1218 0.962 . S
H1232 C1218 0.960 . S
H1233 C1219 0.961 . S
H1234 C1219 0.961 . S
H1235 C1219 0.961 . S
H1236 C1220 0.931 . S
H1237 C1225 0.930 . S
H1238 C1226 0.956 . S
H1239 C1226 0.961 . S
H1240 C1226 0.961 . S
H1241 C1227 0.958 . S
H1242 C1227 0.961 . S
H1243 C1227 0.960 . S
C1244 C1245 1.391 . S
C1244 C1246 1.394 . S
C1244 H1260 0.931 . S
C1245 C1244 1.391 . S
C1245 C1249 1.376 . S
C1246 C1244 1.394 . S
C1246 C1247 1.369 . S
C1246 C1250 1.531 1_655 S
C1247 C1246 1.369 . S
C1247 C1248 1.410 . S
C1247 C1255 1.503 1_655 S
C1248 C1247 1.410 . S
C1248 C1249 1.392 . S
C1248 C1251 1.511 . S
C1249 C1245 1.376 . S
C1249 C1248 1.392 . S
C1249 H1261 0.929 . S
C1250 C1246 1.531 1_455 S
C1250 H1262 0.960 . S
C1250 H1263 0.962 . S
C1250 H1264 0.960 . S
C1251 C1248 1.511 . S
C1251 H1265 0.961 . S
C1251 H1266 0.961 . S
C1251 H1267 0.961 . S
C1252 C1253 1.370 . S
C1252 C1254 1.363 . S
C1252 H1268 0.931 . S
C1253 C1252 1.370 . S
C1253 C1257 1.408 . S
C1254 C1252 1.363 . S
C1254 C1255 1.370 . S
C1254 C1258 1.524 . S
C1255 C1247 1.503 1_455 S
C1255 C1254 1.370 . S
C1255 C1256 1.403 . S
C1256 C1255 1.403 . S
C1256 C1257 1.404 . S
C1256 C1259 1.539 . S
C1257 C1253 1.408 . S
C1257 C1256 1.404 . S
C1257 H1269 0.930 . S
C1258 C1254 1.524 . S
C1258 H1270 0.956 . S
C1258 H1271 0.961 1_455 S
C1258 H1272 0.961 . S
C1259 C1256 1.539 . S
C1259 H1273 0.958 . S
C1259 H1274 0.961 . S
C1259 H1275 0.960 1_455 S
H1260 C1244 0.931 . S
H1261 C1249 0.929 . S
H1262 C1250 0.960 . S
H1263 C1250 0.962 . S
H1264 C1250 0.960 . S
H1265 C1251 0.961 . S
H1266 C1251 0.961 . S
H1267 C1251 0.961 . S
H1268 C1252 0.931 . S
H1269 C1257 0.930 . S
H1270 C1258 0.956 . S
H1271 C1258 0.961 1_655 S
H1272 C1258 0.961 . S
H1273 C1259 0.958 . S
H1274 C1259 0.961 . S
H1275 C1259 0.960 1_655 S
C1276 C1277 1.391 . S
C1276 C1278 1.394 . S
C1276 H1292 0.931 . S
C1277 C1276 1.391 . S
C1277 C1281 1.376 . S
C1278 C1276 1.394 . S
C1278 C1279 1.369 . S
C1278 C1282 1.531 . S
C1279 C1278 1.369 . S
C1279 C1280 1.410 . S
C1279 C1287 1.503 1_545 S
C1280 C1279 1.410 . S
C1280 C1281 1.392 . S
C1280 C1283 1.511 . S
C1281 C1277 1.376 . S
C1281 C1280 1.392 . S
C1281 H1293 0.929 . S
C1282 C1278 1.531 . S
C1282 H1294 0.960 . S
C1282 H1295 0.962 . S
C1282 H1296 0.960 . S
C1283 C1280 1.511 . S
C1283 H1297 0.961 . S
C1283 H1298 0.961 1_545 S
C1283 H1299 0.961 . S
C1284 C1285 1.370 . S
C1284 C1286 1.363 . S
C1284 H1300 0.931 . S
C1285 C1284 1.370 . S
C1285 C1289 1.408 . S
C1286 C1284 1.363 . S
C1286 C1287 1.370 . S
C1286 C1290 1.524 . S
C1287 C1279 1.503 1_565 S
C1287 C1286 1.370 . S
C1287 C1288 1.403 . S
C1288 C1287 1.403 . S
C1288 C1289 1.404 . S
C1288 C1291 1.539 1_565 S
C1289 C1285 1.408 . S
C1289 C1288 1.404 . S
C1289 H1301 0.930 . S
C1290 C1286 1.524 . S
C1290 H1302 0.956 . S
C1290 H1303 0.961 . S
C1290 H1304 0.961 . S
C1291 C1288 1.539 1_545 S
C1291 H1305 0.958 . S
C1291 H1306 0.961 . S
C1291 H1307 0.960 . S
H1292 C1276 0.931 . S
H1293 C1281 0.929 . S
H1294 C1282 0.960 . S
H1295 C1282 0.962 . S
H1296 C1282 0.960 . S
H1297 C1283 0.961 . S
H1298 C1283 0.961 1_565 S
H1299 C1283 0.961 . S
H1300 C1284 0.931 . S
H1301 C1289 0.930 . S
H1302 C1290 0.956 . S
H1303 C1290 0.961 . S
H1304 C1290 0.961 . S
H1305 C1291 0.958 . S
H1306 C1291 0.961 . S
H1307 C1291 0.960 . S
C1308 C1309 1.391 . S
C1308 C1310 1.394 . S
C1308 H1324 0.931 . S
C1309 C1308 1.391 . S
C1309 C1313 1.376 . S
C1310 C1308 1.394 . S
C1310 C1311 1.369 . S
C1310 C1314 1.531 . S
C1311 C1310 1.369 . S
C1311 C1312 1.410 . S
C1311 C1319 1.503 . S
C1312 C1311 1.410 . S
C1312 C1313 1.392 . S
C1312 C1315 1.511 . S
C1313 C1309 1.376 . S
C1313 C1312 1.392 . S
C1313 H1325 0.929 . S
C1314 C1310 1.531 . S
C1314 H1326 0.960 . S
C1314 H1327 0.962 . S
C1314 H1328 0.960 . S
C1315 C1312 1.511 . S
C1315 H1329 0.961 . S
C1315 H1330 0.961 . S
C1315 H1331 0.961 . S
C1316 C1317 1.370 . S
C1316 C1318 1.363 . S
C1316 H1332 0.931 . S
C1317 C1316 1.370 . S
C1317 C1321 1.408 . S
C1318 C1316 1.363 . S
C1318 C1319 1.370 . S
C1318 C1322 1.524 . S
C1319 C1311 1.503 . S
C1319 C1318 1.370 . S
C1319 C1320 1.403 . S
C1320 C1319 1.403 . S
C1320 C1321 1.404 . S
C1320 C1323 1.539 . S
C1321 C1317 1.408 . S
C1321 C1320 1.404 . S
C1321 H1333 0.930 . S
C1322 C1318 1.524 . S
C1322 H1334 0.956 . S
C1322 H1335 0.961 . S
C1322 H1336 0.961 . S
C1323 C1320 1.539 . S
C1323 H1337 0.958 . S
C1323 H1338 0.961 . S
C1323 H1339 0.960 . S
H1324 C1308 0.931 . S
H1325 C1313 0.929 . S
H1326 C1314 0.960 . S
H1327 C1314 0.962 . S
H1328 C1314 0.960 . S
H1329 C1315 0.961 . S
H1330 C1315 0.961 . S
H1331 C1315 0.961 . S
H1332 C1316 0.931 . S
H1333 C1321 0.930 . S
H1334 C1322 0.956 . S
H1335 C1322 0.961 . S
H1336 C1322 0.961 . S
H1337 C1323 0.958 . S
H1338 C1323 0.961 . S
H1339 C1323 0.960 . S
C1340 C1341 1.391 . S
C1340 C1342 1.394 . S
C1340 H1356 0.931 . S
C1341 C1340 1.391 . S
C1341 C1345 1.376 . S
C1342 C1340 1.394 . S
C1342 C1343 1.369 . S
C1342 C1346 1.531 1_455 S
C1343 C1342 1.369 . S
C1343 C1344 1.410 . S
C1343 C1351 1.503 1_455 S
C1344 C1343 1.410 . S
C1344 C1345 1.392 . S
C1344 C1347 1.511 . S
C1345 C1341 1.376 . S
C1345 C1344 1.392 . S
C1345 H1357 0.929 . S
C1346 C1342 1.531 1_655 S
C1346 H1358 0.960 . S
C1346 H1359 0.962 . S
C1346 H1360 0.960 . S
C1347 C1344 1.511 . S
C1347 H1361 0.961 . S
C1347 H1362 0.961 . S
C1347 H1363 0.961 . S
C1348 C1349 1.370 . S
C1348 C1350 1.363 . S
C1348 H1364 0.931 . S
C1349 C1348 1.370 . S
C1349 C1353 1.408 . S
C1350 C1348 1.363 . S
C1350 C1351 1.370 . S
C1350 C1354 1.524 . S
C1351 C1343 1.503 1_655 S
C1351 C1350 1.370 . S
C1351 C1352 1.403 . S
C1352 C1351 1.403 . S
C1352 C1353 1.404 . S
C1352 C1355 1.539 . S
C1353 C1349 1.408 . S
C1353 C1352 1.404 . S
C1353 H1365 0.930 . S
C1354 C1350 1.524 . S
C1354 H1366 0.956 . S
C1354 H1367 0.961 1_655 S
C1354 H1368 0.961 . S
C1355 C1352 1.539 . S
C1355 H1369 0.958 . S
C1355 H1370 0.961 . S
C1355 H1371 0.960 1_655 S
H1356 C1340 0.931 . S
H1357 C1345 0.929 . S
H1358 C1346 0.960 . S
H1359 C1346 0.962 . S
H1360 C1346 0.960 . S
H1361 C1347 0.961 . S
H1362 C1347 0.961 . S
H1363 C1347 0.961 . S
H1364 C1348 0.931 . S
H1365 C1353 0.930 . S
H1366 C1354 0.956 . S
H1367 C1354 0.961 1_455 S
H1368 C1354 0.961 . S
H1369 C1355 0.958 . S
H1370 C1355 0.961 . S
H1371 C1355 0.960 1_455 S
C1372 C1373 1.391 . S
C1372 C1374 1.394 . S
C1372 H1388 0.931 . S
C1373 C1372 1.391 . S
C1373 C1377 1.376 . S
C1374 C1372 1.394 . S
C1374 C1375 1.369 . S
C1374 C1378 1.531 1_565 S
C1375 C1374 1.369 . S
C1375 C1376 1.410 . S
C1375 C1383 1.503 1_565 S
C1376 C1375 1.410 . S
C1376 C1377 1.392 . S
C1376 C1379 1.511 . S
C1377 C1373 1.376 . S
C1377 C1376 1.392 . S
C1377 H1389 0.929 . S
C1378 C1374 1.531 1_545 S
C1378 H1390 0.960 . S
C1378 H1391 0.962 . S
C1378 H1392 0.960 . S
C1379 C1376 1.511 . S
C1379 H1393 0.961 . S
C1379 H1394 0.961 . S
C1379 H1395 0.961 . S
C1380 C1381 1.370 . S
C1380 C1382 1.363 . S
C1380 H1396 0.931 . S
C1381 C1380 1.370 . S
C1381 C1385 1.408 . S
C1382 C1380 1.363 . S
C1382 C1383 1.370 . S
C1382 C1386 1.524 . S
C1383 C1375 1.503 1_545 S
C1383 C1382 1.370 . S
C1383 C1384 1.403 . S
C1384 C1383 1.403 . S
C1384 C1385 1.404 . S
C1384 C1387 1.539 . S
C1385 C1381 1.408 . S
C1385 C1384 1.404 . S
C1385 H1397 0.930 . S
C1386 C1382 1.524 . S
C1386 H1398 0.956 . S
C1386 H1399 0.961 1_545 S
C1386 H1400 0.961 . S
C1387 C1384 1.539 . S
C1387 H1401 0.958 . S
C1387 H1402 0.961 . S
C1387 H1403 0.960 1_545 S
H1388 C1372 0.931 . S
H1389 C1377 0.929 . S
H1390 C1378 0.960 . S
H1391 C1378 0.962 . S
H1392 C1378 0.960 . S
H1393 C1379 0.961 . S
H1394 C1379 0.961 . S
H1395 C1379 0.961 . S
H1396 C1380 0.931 . S
H1397 C1385 0.930 . S
H1398 C1386 0.956 . S
H1399 C1386 0.961 1_565 S
H1400 C1386 0.961 . S
H1401 C1387 0.958 . S
H1402 C1387 0.961 . S
H1403 C1387 0.960 1_565 S
C637 C569 1.856 . S
C645 C39 1.871 . S
C669 C92 1.842 . S
C677 C622 1.870 . S
C701 C145 1.873 . S
C709 C357 1.855 . S
C733 C198 1.860 . S
C741 C410 1.853 . S
C765 C463 1.843 . S
C773 C251 1.857 . S
C797 C304 1.879 . S
C805 C516 1.862 . S
C829 C462 1.937 . S
C837 C38 1.916 . S
C861 C91 1.937 . S
C869 C515 1.916 . S
C893 C144 1.916 . S
C901 C568 1.921 . S
C925 C197 1.909 . S
C933 C621 1.930 . S
C957 C356 1.912 . S
C965 C250 1.929 . S
C989 C409 1.931 . S
C997 C303 1.922 . S
C1021 C188 1.009 . S
C1029 C29 1.001 . S
C1053 C82 0.991 . S
C1061 C241 1.004 . S
C1085 C294 0.995 . S
C1093 C135 1.000 . S
C1117 C506 1.013 . S
C1125 C347 1.004 . S
C1149 C559 1.013 . S
C1157 C400 1.004 . S
C1181 C453 1.005 . S
C1189 C612 1.009 . S
C1213 C181 2.005 . S
C1221 C22 2.012 . S
C1245 C75 2.014 . S
C1253 C234 2.015 . S
C1277 C287 2.009 . S
C1285 C128 2.013 . S
C1309 C340 2.004 . S
C1317 C499 2.012 . S
C1341 C552 2.014 . S
C1349 C393 2.015 . S
C1373 C446 2.014 . S
C1381 C605 2.015 . S
