# Generated by pormake.
# Topology wjg, (4)-cn, num edge types: 1
# Building blocks:
#     Node 0, Type 0, BuildingBlock: ICAMEG_clean_sbu_1, # of connection points: 4
#     Node 1, Type 0, BuildingBlock: ICAMEG_clean_sbu_1, # of connection points: 4
#     Node 2, Type 0, BuildingBlock: ICAMEG_clean_sbu_1, # of connection points: 4
#     Node 3, Type 0, BuildingBlock: ICAMEG_clean_sbu_1, # of connection points: 4
#     Node 4, Type 0, BuildingBlock: ICAMEG_clean_sbu_1, # of connection points: 4
#     Node 5, Type 0, BuildingBlock: ICAMEG_clean_sbu_1, # of connection points: 4
#     Node 6, Type 0, BuildingBlock: ICAMEG_clean_sbu_1, # of connection points: 4
#     Node 7, Type 0, BuildingBlock: ICAMEG_clean_sbu_1, # of connection points: 4
#     Node 8, Type 0, BuildingBlock: ICAMEG_clean_sbu_1, # of connection points: 4
#     Node 9, Type 0, BuildingBlock: ICAMEG_clean_sbu_1, # of connection points: 4
#     Node 10, Type 0, BuildingBlock: ICAMEG_clean_sbu_1, # of connection points: 4
#     Node 11, Type 0, BuildingBlock: ICAMEG_clean_sbu_1, # of connection points: 4
#     Edge 12, Type (0, 0), BuildingBlock: MIFKUJ_clean_linker_0, # of connection points: 2
#     Edge 13, Type (0, 0), BuildingBlock: MIFKUJ_clean_linker_0, # of connection points: 2
#     Edge 14, Type (0, 0), BuildingBlock: MIFKUJ_clean_linker_0, # of connection points: 2
#     Edge 15, Type (0, 0), BuildingBlock: MIFKUJ_clean_linker_0, # of connection points: 2
#     Edge 16, Type (0, 0), BuildingBlock: MIFKUJ_clean_linker_0, # of connection points: 2
#     Edge 17, Type (0, 0), BuildingBlock: MIFKUJ_clean_linker_0, # of connection points: 2
#     Edge 18, Type (0, 0), BuildingBlock: MIFKUJ_clean_linker_0, # of connection points: 2
#     Edge 19, Type (0, 0), BuildingBlock: MIFKUJ_clean_linker_0, # of connection points: 2
#     Edge 20, Type (0, 0), BuildingBlock: MIFKUJ_clean_linker_0, # of connection points: 2
#     Edge 21, Type (0, 0), BuildingBlock: MIFKUJ_clean_linker_0, # of connection points: 2
#     Edge 22, Type (0, 0), BuildingBlock: MIFKUJ_clean_linker_0, # of connection points: 2
#     Edge 23, Type (0, 0), BuildingBlock: MIFKUJ_clean_linker_0, # of connection points: 2
#     Edge 24, Type (0, 0), BuildingBlock: MIFKUJ_clean_linker_0, # of connection points: 2
#     Edge 25, Type (0, 0), BuildingBlock: MIFKUJ_clean_linker_0, # of connection points: 2
#     Edge 26, Type (0, 0), BuildingBlock: MIFKUJ_clean_linker_0, # of connection points: 2
#     Edge 27, Type (0, 0), BuildingBlock: MIFKUJ_clean_linker_0, # of connection points: 2
#     Edge 28, Type (0, 0), BuildingBlock: MIFKUJ_clean_linker_0, # of connection points: 2
#     Edge 29, Type (0, 0), BuildingBlock: MIFKUJ_clean_linker_0, # of connection points: 2
#     Edge 30, Type (0, 0), BuildingBlock: MIFKUJ_clean_linker_0, # of connection points: 2
#     Edge 31, Type (0, 0), BuildingBlock: MIFKUJ_clean_linker_0, # of connection points: 2
#     Edge 32, Type (0, 0), BuildingBlock: MIFKUJ_clean_linker_0, # of connection points: 2
#     Edge 33, Type (0, 0), BuildingBlock: MIFKUJ_clean_linker_0, # of connection points: 2
#     Edge 34, Type (0, 0), BuildingBlock: MIFKUJ_clean_linker_0, # of connection points: 2
#     Edge 35, Type (0, 0), BuildingBlock: MIFKUJ_clean_linker_0, # of connection points: 2
# Relax obj value: 0.335
# Max RMSD: 0.121
# Mean RMSD: 0.117
data_MOF--net-wjg--node1-ICAMEG_clean_sbu_1--edge1-MIFKUJ_clean_linker_0
_symmetry_space_group_name_H-M    P1
_symmetry_Int_Tables_number       1
_symmetry_cell_setting            triclinic
loop_
_symmetry_equiv_pos_as_xyz
'x, y, z'
_cell_length_a     42.141878
_cell_length_b     41.949838
_cell_length_c     55.132176
_cell_angle_alpha  89.982919
_cell_angle_beta   89.986568
_cell_angle_gamma 120.15767
loop_
_atom_site_label
_atom_site_type_symbol
_atom_site_fract_x
_atom_site_fract_y
_atom_site_fract_z
_atom_type_partial_charge
Co0 Co 0.17013 0.43473 0.34568 0.0
Co1 Co 0.0823 0.3646 0.33544 0.0
O2 O 0.12269 0.41498 0.32965 0.0
C3 C 0.18106 0.50555 0.36463 0.0
O4 O 0.17838 0.49215 0.38654 0.0
C5 C 0.09038 0.37044 0.28237 0.0
O6 O 0.12567 0.38439 0.28608 0.0
O7 O 0.11443 0.34398 0.3277 0.0
O8 O 0.16689 0.38547 0.34551 0.0
H9 H 0.02374 0.23573 0.36867 0.0
H10 H 0.16541 0.47207 0.30136 0.0
O11 O 0.1751 0.48496 0.34613 0.0
H12 H 0.25464 0.43254 0.28186 0.0
H13 H 0.30335 0.52808 0.36044 0.0
H14 H 0.19787 0.40972 0.3866 0.0
H15 H 0.22561 0.42018 0.32222 0.0
H16 H 0.24349 0.50296 0.33997 0.0
O17 O 0.06838 0.36083 0.30032 0.0
H18 H 0.07393 0.29967 0.36255 0.0
H19 H 0.00466 0.32216 0.31863 0.0
H20 H 0.25734 0.43359 0.40736 0.0
H21 H 0.1942 0.48544 0.26087 0.0
H22 H 0.31063 0.49318 0.39428 0.0
H23 H 0.23905 0.46547 0.25087 0.0
O24 O 0.14504 0.42279 0.37743 0.0
H25 H 0.02787 0.44564 0.32153 0.0
H26 H 0.03033 0.35329 0.37566 0.0
H27 H 0.99093 0.37927 0.38598 0.0
H28 H 0.98945 0.4257 0.35876 0.0
H29 H 0.06713 0.41918 0.31203 0.0
H30 H 0.95373 0.25839 0.32421 0.0
H31 H 0.9631 0.21472 0.34944 0.0
O32 O 0.09567 0.367 0.37076 0.0
C33 C 0.14622 0.35392 0.33604 0.0
C34 C 0.01927 0.25454 0.35773 0.0
C35 C 0.97999 0.26725 0.33274 0.0
N36 N 0.04212 0.31471 0.34044 0.0
C37 C 0.04755 0.29082 0.35425 0.0
C38 C 0.00894 0.3033 0.32963 0.0
C39 C 0.98527 0.24276 0.3469 0.0
C40 C 0.18526 0.46373 0.29725 0.0
N41 N 0.19393 0.44554 0.31418 0.0
C42 C 0.20132 0.47119 0.27425 0.0
C43 C 0.22643 0.45991 0.26864 0.0
C44 C 0.23515 0.44139 0.286 0.0
C45 C 0.21851 0.43436 0.30881 0.0
C46 C 0.28037 0.50201 0.36624 0.0
C47 C 0.22094 0.43559 0.38072 0.0
C48 C 0.24637 0.48771 0.35477 0.0
N49 N 0.21722 0.45478 0.36198 0.0
C50 C 0.25457 0.44895 0.39254 0.0
C51 C 0.28445 0.4824 0.38521 0.0
C52 C 0.11811 0.39258 0.38485 0.0
C53 C 0.02822 0.42536 0.33351 0.0
C54 C 0.02996 0.37362 0.36379 0.0
C55 C 0.00753 0.38815 0.36969 0.0
C56 C 0.00669 0.41419 0.35441 0.0
N57 N 0.05088 0.38461 0.34321 0.0
C58 C 0.05032 0.41022 0.32818 0.0
Co59 Co 0.77472 0.18354 0.66089 0.0
Co60 Co 0.73995 0.09048 0.66845 0.0
O61 O 0.74066 0.13243 0.65254 0.0
C62 C 0.70301 0.1805 0.66411 0.0
O63 O 0.69101 0.15139 0.67814 0.0
C64 C 0.74874 0.08157 0.6166 0.0
O65 O 0.77564 0.1159 0.61749 0.0
O66 O 0.79376 0.11211 0.66385 0.0
O67 O 0.81523 0.17296 0.66676 0.0
H68 H 0.78339 0.02778 0.7262 0.0
H69 H 0.73361 0.16671 0.6146 0.0
O70 O 0.73529 0.19573 0.65531 0.0
H71 H 0.86431 0.23226 0.59136 0.0
H72 H 0.83102 0.32088 0.65159 0.0
H73 H 0.82988 0.22121 0.69971 0.0
H74 H 0.84621 0.22122 0.63444 0.0
H75 H 0.78991 0.25575 0.64053 0.0
O76 O 0.7311 0.06568 0.63589 0.0
H77 H 0.7841 0.08104 0.70665 0.0
H78 H 0.69356 0.00917 0.66247 0.0
H79 H 0.87167 0.28596 0.71129 0.0
H80 H 0.75051 0.1775 0.5713 0.0
H81 H 0.87239 0.33633 0.68715 0.0
H82 H 0.81628 0.21035 0.55945 0.0
O83 O 0.76046 0.1732 0.69548 0.0
H84 H 0.6115 0.0527 0.6424 0.0
H85 H 0.68944 0.05733 0.71058 0.0
H86 H 0.62308 0.03162 0.71714 0.0
H87 H 0.58362 0.02911 0.68288 0.0
H88 H 0.67806 0.0785 0.63669 0.0
H89 H 0.69202 0.95508 0.6814 0.0
H90 H 0.73708 0.96424 0.71358 0.0
O91 O 0.74918 0.11525 0.70113 0.0
C92 C 0.81993 0.14525 0.66592 0.0
C93 C 0.76351 0.02342 0.71227 0.0
C94 C 0.71226 0.98263 0.68709 0.0
N95 N 0.73867 0.04817 0.68363 0.0
C96 C 0.76371 0.05347 0.7012 0.0
C97 C 0.7133 0.01333 0.67641 0.0
C98 C 0.73755 0.98779 0.70516 0.0
C99 C 0.76229 0.18142 0.60959 0.0
N100 N 0.78888 0.19345 0.62703 0.0
C101 C 0.77169 0.1873 0.58504 0.0
C102 C 0.8086 0.20567 0.5784 0.0
C103 C 0.83556 0.21793 0.5963 0.0
C104 C 0.82514 0.21152 0.62066 0.0
C105 C 0.83107 0.29919 0.66219 0.0
C106 C 0.83032 0.24298 0.68897 0.0
C107 C 0.80784 0.26226 0.65602 0.0
N108 N 0.80787 0.23472 0.66927 0.0
C109 C 0.85392 0.27959 0.69568 0.0
C110 C 0.85427 0.30784 0.68215 0.0
C111 C 0.75448 0.14621 0.70916 0.0
C112 C 0.62839 0.05354 0.65745 0.0
C113 C 0.67247 0.05644 0.6956 0.0
C114 C 0.6349 0.04177 0.69941 0.0
C115 C 0.61277 0.04035 0.68017 0.0
N116 N 0.68756 0.06922 0.67324 0.0
C117 C 0.66606 0.06799 0.6543 0.0
Co118 Co 0.63624 0.73414 0.9961 0.0
Co119 Co 0.57647 0.76693 0.98619 0.0
O120 O 0.5922 0.73082 0.98164 0.0
C121 C 0.64834 0.73616 0.94374 0.0
O122 O 0.63963 0.76209 0.94344 0.0
C123 C 0.50838 0.69225 0.99298 0.0
O124 O 0.52668 0.67476 0.99078 0.0
O125 O 0.58348 0.76682 0.02178 0.0
O126 O 0.6248 0.74848 0.02823 0.0
H127 H 0.58651 0.88279 0.0202 0.0
H128 H 0.58625 0.66585 0.96884 0.0
O129 O 0.6485 0.72089 0.96373 0.0
H130 H 0.58654 0.62551 0.05282 0.0
H131 H 0.72695 0.69112 0.00923 0.0
H132 H 0.69452 0.78564 0.02972 0.0
H133 H 0.62362 0.69116 0.04165 0.0
H134 H 0.67165 0.68828 0.9918 0.0
O135 O 0.5241 0.72716 0.99089 0.0
H136 H 0.60587 0.83685 0.01375 0.0
H137 H 0.51293 0.77357 0.96898 0.0
H138 H 0.74986 0.78939 0.04772 0.0
H139 H 0.54935 0.59986 0.97912 0.0
H140 H 0.76638 0.74187 0.0375 0.0
H141 H 0.54917 0.57932 0.02141 0.0
O142 O 0.66696 0.78729 0.9879 0.0
H143 H 0.53375 0.70815 0.90407 0.0
H144 H 0.59794 0.82561 0.94881 0.0
H145 H 0.59135 0.82645 0.90443 0.0
H146 H 0.55899 0.76739 0.88175 0.0
H147 H 0.54131 0.70858 0.94834 0.0
H148 H 0.49234 0.81859 0.97515 0.0
H149 H 0.52936 0.87378 0.00084 0.0
O150 O 0.62788 0.80823 0.98236 0.0
C151 C 0.60379 0.76028 0.03563 0.0
C152 C 0.57023 0.85893 0.0089 0.0
C153 C 0.51735 0.82288 0.98364 0.0
N154 N 0.56074 0.80276 0.99082 0.0
C155 C 0.58111 0.83289 0.00512 0.0
C156 C 0.52909 0.79744 0.98025 0.0
C157 C 0.53813 0.85384 0.99805 0.0
C158 C 0.58668 0.65712 0.98722 0.0
N159 N 0.60703 0.68238 0.00462 0.0
C160 C 0.56556 0.61971 0.99296 0.0
C161 C 0.56542 0.60822 0.0167 0.0
C162 C 0.58632 0.63413 0.03434 0.0
C163 C 0.6071 0.67131 0.02793 0.0
C164 C 0.71997 0.71191 0.01389 0.0
C165 C 0.70134 0.76468 0.02537 0.0
C166 C 0.68872 0.71047 0.00406 0.0
N167 N 0.67964 0.73651 0.00999 0.0
C168 C 0.7328 0.76703 0.03553 0.0
C169 C 0.74208 0.74039 0.02976 0.0
C170 C 0.66021 0.8131 0.98354 0.0
C171 C 0.5477 0.73406 0.91377 0.0
C172 C 0.58376 0.79978 0.93911 0.0
C173 C 0.5801 0.80044 0.91396 0.0
C174 C 0.56193 0.7673 0.90124 0.0
N175 N 0.56956 0.76705 0.95132 0.0
C176 C 0.55184 0.73447 0.93892 0.0
Co177 Co 0.79951 0.57045 0.32803 0.0
Co178 Co 0.8936 0.62092 0.33139 0.0
O179 O 0.84806 0.5825 0.31692 0.0
C180 C 0.79575 0.49814 0.32833 0.0
O181 O 0.82716 0.51387 0.34 0.0
C182 C 0.89916 0.63942 0.27972 0.0
O183 O 0.86669 0.63611 0.28236 0.0
O184 O 0.87721 0.6577 0.32905 0.0
O185 O 0.81637 0.62342 0.33476 0.0
H186 H 0.97093 0.72521 0.3882 0.0
H187 H 0.80718 0.54323 0.28002 0.0
O188 O 0.7813 0.51711 0.32174 0.0
H189 H 0.75364 0.6219 0.26322 0.0
H190 H 0.66145 0.50219 0.3248 0.0
H191 H 0.77099 0.59365 0.3695 0.0
H192 H 0.76643 0.61156 0.30523 0.0
H193 H 0.72351 0.51908 0.31064 0.0
O194 O 0.9152 0.63495 0.29794 0.0
H195 H 0.91305 0.67641 0.37043 0.0
H196 H 0.9725 0.6478 0.32142 0.0
H197 H 0.70948 0.57781 0.38418 0.0
H198 H 0.7944 0.55248 0.23773 0.0
H199 H 0.65416 0.53178 0.36176 0.0
H200 H 0.76765 0.59225 0.22911 0.0
O201 O 0.81214 0.56445 0.36169 0.0
H202 H 0.91507 0.52064 0.30042 0.0
H203 H 0.92581 0.59771 0.37097 0.0
H204 H 0.9452 0.55137 0.37477 0.0
H205 H 0.93995 0.51251 0.3393 0.0
H206 H 0.89565 0.56703 0.29751 0.0
H207 H 0.03107 0.69654 0.33851 0.0
H208 H 0.03049 0.73552 0.37222 0.0
O209 O 0.872 0.6076 0.36493 0.0
C210 C 0.84596 0.65445 0.33307 0.0
C211 C 0.97154 0.70831 0.37358 0.0
C212 C 0.00529 0.69225 0.34566 0.0
N213 N 0.93943 0.65908 0.34508 0.0
C214 C 0.93885 0.68056 0.3635 0.0
C215 C 0.97206 0.66476 0.33603 0.0
C216 C 0.00495 0.71411 0.36458 0.0
C217 C 0.79504 0.56013 0.27643 0.0
N218 N 0.78741 0.57668 0.29507 0.0
C219 C 0.78805 0.56543 0.25244 0.0
C220 C 0.7731 0.58781 0.24761 0.0
C221 C 0.76526 0.60448 0.26674 0.0
C222 C 0.77264 0.59858 0.29049 0.0
C223 C 0.68534 0.52236 0.33468 0.0
C224 C 0.74706 0.57378 0.35956 0.0
C225 C 0.72054 0.53199 0.32678 0.0
N226 N 0.75083 0.55759 0.3391 0.0
C227 C 0.7123 0.56484 0.368 0.0
C228 C 0.68127 0.53898 0.35542 0.0
C229 C 0.84115 0.5838 0.37407 0.0
C230 C 0.91758 0.53748 0.31599 0.0
C231 C 0.92332 0.5808 0.35549 0.0
C232 C 0.93443 0.55468 0.35773 0.0
C233 C 0.9315 0.5329 0.33781 0.0
N234 N 0.90977 0.58518 0.33401 0.0
C235 C 0.90678 0.5639 0.31441 0.0
Co236 Co 0.21957 0.81439 0.66261 0.0
Co237 Co 0.26269 0.90854 0.6694 0.0
O238 O 0.25634 0.86421 0.65331 0.0
C239 C 0.28863 0.81187 0.66201 0.0
O240 O 0.30428 0.84259 0.6746 0.0
C241 C 0.25068 0.91698 0.61812 0.0
O242 O 0.22201 0.88377 0.6201 0.0
O243 O 0.20941 0.89146 0.66697 0.0
O244 O 0.18296 0.82997 0.66972 0.0
H245 H 0.23344 0.98064 0.7291 0.0
H246 H 0.25663 0.82626 0.61499 0.0
O247 O 0.25513 0.79731 0.6557 0.0
H248 H 0.12512 0.7722 0.59606 0.0
H249 H 0.15075 0.67612 0.65458 0.0
H250 H 0.16604 0.78184 0.70291 0.0
H251 H 0.14639 0.78214 0.6385 0.0
H252 H 0.19613 0.73974 0.64259 0.0
O253 O 0.27068 0.93262 0.63664 0.0
H254 H 0.22536 0.92426 0.70934 0.0
H255 H 0.31441 0.98867 0.66189 0.0
H256 H 0.12014 0.71871 0.71545 0.0
H257 H 0.23645 0.81612 0.57228 0.0
H258 H 0.11226 0.66531 0.6912 0.0
H259 H 0.1703 0.78918 0.5626 0.0
O260 O 0.23662 0.82457 0.6967 0.0
H261 H 0.3854 0.9342 0.63819 0.0
H262 H 0.31728 0.93884 0.70957 0.0
H263 H 0.38301 0.95893 0.7135 0.0
H264 H 0.41752 0.95673 0.67762 0.0
H265 H 0.31956 0.91406 0.63512 0.0
H266 H 0.32328 0.0458 0.68098 0.0
H267 H 0.28271 0.04196 0.71491 0.0
O268 O 0.2541 0.8844 0.70223 0.0
C269 C 0.18132 0.85949 0.66937 0.0
C270 C 0.2514 0.98267 0.7144 0.0
C271 C 0.30179 0.01924 0.68737 0.0
N272 N 0.26965 0.95321 0.68468 0.0
C273 C 0.24704 0.95084 0.70321 0.0
C274 C 0.2966 0.98683 0.67661 0.0
C275 C 0.27902 0.01706 0.70641 0.0
C276 C 0.22774 0.81397 0.61093 0.0
N277 N 0.20273 0.80467 0.62923 0.0
C278 C 0.21649 0.80848 0.58671 0.0
C279 C 0.17938 0.79343 0.58128 0.0
C280 C 0.15402 0.78393 0.60005 0.0
C281 C 0.16625 0.78973 0.62405 0.0
C282 C 0.15386 0.69917 0.66526 0.0
C283 C 0.16261 0.75875 0.69218 0.0
C284 C 0.17955 0.73524 0.65859 0.0
N285 N 0.18349 0.76447 0.67193 0.0
C286 C 0.13665 0.72307 0.69941 0.0
C287 C 0.13227 0.69312 0.68581 0.0
C288 C 0.24625 0.8526 0.71025 0.0
C289 C 0.37068 0.93539 0.65393 0.0
C290 C 0.33209 0.9377 0.69389 0.0
C291 C 0.36932 0.9492 0.69622 0.0
C292 C 0.38868 0.94798 0.67607 0.0
N293 N 0.31466 0.92545 0.67211 0.0
C294 C 0.33344 0.92417 0.65228 0.0
Co295 Co 0.36249 0.26896 0.001 0.0
Co296 Co 0.41414 0.228 0.98986 0.0
O297 O 0.40077 0.26521 0.9837 0.0
C298 C 0.34147 0.26049 0.94999 0.0
O299 O 0.34484 0.23108 0.95088 0.0
C300 C 0.48553 0.29736 0.99342 0.0
O301 O 0.47008 0.31009 0.00822 0.0
O302 O 0.41985 0.23994 0.02499 0.0
O303 O 0.37815 0.2574 0.03271 0.0
H304 H 0.41018 0.12152 0.03444 0.0
H305 H 0.41352 0.32974 0.96848 0.0
O306 O 0.34653 0.27959 0.96913 0.0
H307 H 0.43181 0.38553 0.04971 0.0
H308 H 0.2853 0.32694 0.0178 0.0
H309 H 0.30935 0.22719 0.04021 0.0
H310 H 0.38658 0.31974 0.04339 0.0
H311 H 0.33366 0.32054 0.99697 0.0
O312 O 0.46676 0.26535 0.9842 0.0
H313 H 0.39297 0.16869 0.0264 0.0
H314 H 0.46643 0.20901 0.96662 0.0
H315 H 0.26098 0.23276 0.06168 0.0
H316 H 0.45878 0.3957 0.97394 0.0
H317 H 0.24871 0.28293 0.05049 0.0
H318 H 0.46823 0.42399 0.0148 0.0
O319 O 0.32644 0.21546 0.99692 0.0
H320 H 0.43039 0.25919 0.90109 0.0
H321 H 0.37468 0.15846 0.9611 0.0
H322 H 0.36454 0.14389 0.91734 0.0
H323 H 0.39245 0.19445 0.8871 0.0
H324 H 0.43968 0.27254 0.94489 0.0
H325 H 0.48459 0.16239 0.9741 0.0
H326 H 0.45624 0.1181 0.00815 0.0
O327 O 0.36211 0.18975 0.99598 0.0
C328 C 0.40135 0.24799 0.03958 0.0
C329 C 0.42262 0.14057 0.01949 0.0
C330 C 0.46437 0.1635 0.98562 0.0
N331 N 0.42835 0.1913 0.99589 0.0
C332 C 0.41288 0.16726 0.01479 0.0
C333 C 0.45404 0.18989 0.9815 0.0
C334 C 0.44847 0.13867 0.00474 0.0
C335 C 0.41722 0.34193 0.98627 0.0
N336 N 0.39728 0.32098 0.00557 0.0
C337 C 0.443 0.37926 0.98927 0.0
C338 C 0.44833 0.3951 0.01221 0.0
C339 C 0.42792 0.37353 0.03181 0.0
C340 C 0.40241 0.33629 0.02813 0.0
C341 C 0.29047 0.30503 0.02289 0.0
C342 C 0.30438 0.24928 0.03541 0.0
C343 C 0.31776 0.30125 0.01114 0.0
N344 N 0.32457 0.27379 0.01759 0.0
C345 C 0.27686 0.25221 0.04755 0.0
C346 C 0.26995 0.28034 0.04124 0.0
C347 C 0.33097 0.18767 0.99739 0.0
C348 C 0.41823 0.23688 0.91411 0.0
C349 C 0.38699 0.18056 0.94799 0.0
C350 C 0.38118 0.17216 0.92328 0.0
C351 C 0.39688 0.20056 0.90628 0.0
N352 N 0.40795 0.21626 0.95552 0.0
C353 C 0.42355 0.24424 0.93894 0.0
Co354 Co 0.59266 0.8119 0.32925 0.0
Co355 Co 0.64474 0.90611 0.32946 0.0
O356 O 0.60528 0.85974 0.3427 0.0
C357 C 0.51994 0.80721 0.33263 0.0
O358 O 0.53413 0.84012 0.32284 0.0
C359 C 0.66062 0.90891 0.38152 0.0
O360 O 0.65595 0.87577 0.37865 0.0
O361 O 0.68038 0.88834 0.33199 0.0
O362 O 0.64507 0.82904 0.32144 0.0
H363 H 0.75227 0.98549 0.27563 0.0
H364 H 0.5671 0.81544 0.37872 0.0
O365 O 0.53984 0.7929 0.33667 0.0
H366 H 0.64252 0.75676 0.38862 0.0
H367 H 0.52439 0.6731 0.32664 0.0
H368 H 0.61431 0.78727 0.28502 0.0
H369 H 0.63303 0.7755 0.34815 0.0
H370 H 0.54199 0.73391 0.34408 0.0
O371 O 0.65762 0.92611 0.36339 0.0
H372 H 0.70208 0.92683 0.29173 0.0
H373 H 0.67209 0.98506 0.34095 0.0
H374 H 0.59773 0.72705 0.26704 0.0
H375 H 0.57596 0.79718 0.41959 0.0
H376 H 0.55246 0.66941 0.28789 0.0
H377 H 0.61405 0.76776 0.42473 0.0
O378 O 0.58608 0.82798 0.29684 0.0
H379 H 0.54505 0.92833 0.35979 0.0
H380 H 0.6245 0.94164 0.29028 0.0
H381 H 0.57949 0.96256 0.28641 0.0
H382 H 0.53943 0.95603 0.32136 0.0
H383 H 0.59015 0.90742 0.36278 0.0
H384 H 0.72217 0.04438 0.32555 0.0
H385 H 0.76257 0.04481 0.29257 0.0
O386 O 0.6328 0.8865 0.29523 0.0
C387 C 0.67633 0.85742 0.32539 0.0
C388 C 0.73476 0.98566 0.28993 0.0
C389 C 0.71789 0.01871 0.31797 0.0
N390 N 0.68394 0.95256 0.31705 0.0
C391 C 0.70621 0.95254 0.29905 0.0
C392 C 0.68962 0.98505 0.32664 0.0
C393 C 0.74054 0.01894 0.29946 0.0
C394 C 0.58344 0.80235 0.38081 0.0
N395 N 0.59942 0.79645 0.36107 0.0
C396 C 0.58848 0.79221 0.404 0.0
C397 C 0.60992 0.77577 0.40688 0.0
C398 C 0.62599 0.76969 0.38664 0.0
C399 C 0.62054 0.7804 0.36376 0.0
C400 C 0.54419 0.69801 0.3174 0.0
C401 C 0.59474 0.76231 0.29427 0.0
C402 C 0.5542 0.73253 0.32716 0.0
N403 N 0.57934 0.76411 0.31567 0.0
C404 C 0.58539 0.72829 0.28397 0.0
C405 C 0.55996 0.69596 0.29566 0.0
C406 C 0.60775 0.8571 0.28511 0.0
C407 C 0.56242 0.93142 0.34446 0.0
C408 C 0.60705 0.93856 0.30553 0.0
C409 C 0.58169 0.95055 0.30325 0.0
C410 C 0.55924 0.94691 0.32288 0.0
N411 N 0.61004 0.92346 0.32677 0.0
C412 C 0.58811 0.91977 0.34608 0.0
Co413 Co 0.78119 0.58277 0.67374 0.0
Co414 Co 0.7326 0.6267 0.66157 0.0
O415 O 0.74181 0.5928 0.68036 0.0
C416 C 0.71522 0.50872 0.67438 0.0
O417 O 0.69889 0.52219 0.66105 0.0
C418 C 0.74267 0.65398 0.71146 0.0
O419 O 0.77432 0.65506 0.71059 0.0
O420 O 0.78504 0.66653 0.66353 0.0
O421 O 0.81539 0.63531 0.66516 0.0
H422 H 0.75602 0.72022 0.5967 0.0
H423 H 0.74174 0.55931 0.72065 0.0
O424 O 0.74793 0.52965 0.68178 0.0
H425 H 0.8707 0.64657 0.74187 0.0
H426 H 0.85734 0.5234 0.69003 0.0
H427 H 0.83674 0.60372 0.63478 0.0
H428 H 0.85234 0.63021 0.69915 0.0
H429 H 0.80841 0.53787 0.69838 0.0
O430 O 0.72189 0.64402 0.69284 0.0
H431 H 0.76806 0.67708 0.61988 0.0
H432 H 0.67619 0.64932 0.66512 0.0
H433 H 0.88617 0.59026 0.62583 0.0
H434 H 0.75899 0.57457 0.7636 0.0
H435 H 0.89673 0.54983 0.65358 0.0
H436 H 0.8238 0.61874 0.77445 0.0
O437 O 0.76612 0.57218 0.63928 0.0
H438 H 0.61224 0.52585 0.69415 0.0
H439 H 0.67909 0.59425 0.62095 0.0
H440 H 0.61473 0.54417 0.61737 0.0
H441 H 0.58085 0.50963 0.65416 0.0
H442 H 0.67673 0.57584 0.69686 0.0
H443 H 0.66331 0.69241 0.64258 0.0
H444 H 0.7033 0.72809 0.60803 0.0
O445 O 0.74378 0.60962 0.63034 0.0
C446 C 0.81452 0.66508 0.66279 0.0
C447 C 0.7383 0.70471 0.61165 0.0
C448 C 0.68629 0.68914 0.63742 0.0
N449 N 0.72259 0.66042 0.64362 0.0
C450 C 0.7449 0.68014 0.62477 0.0
C451 C 0.69375 0.66484 0.65014 0.0
C452 C 0.70874 0.70915 0.61804 0.0
C453 C 0.77011 0.57812 0.72525 0.0
N454 N 0.79602 0.59365 0.70743 0.0
C455 C 0.77967 0.58684 0.74959 0.0
C456 C 0.81604 0.61165 0.75566 0.0
C457 C 0.84235 0.62729 0.73738 0.0
C458 C 0.83179 0.61794 0.71322 0.0
C459 C 0.8531 0.54117 0.67785 0.0
C460 C 0.84138 0.58637 0.64704 0.0
C461 C 0.82543 0.54943 0.68248 0.0
N462 N 0.82006 0.572 0.66724 0.0
C463 C 0.86932 0.57873 0.64184 0.0
C464 C 0.87519 0.556 0.65739 0.0
C465 C 0.7548 0.58735 0.62421 0.0
C466 C 0.62668 0.54077 0.678 0.0
C467 C 0.66457 0.57927 0.63703 0.0
C468 C 0.6281 0.551 0.6349 0.0
C469 C 0.6091 0.53165 0.65555 0.0
N470 N 0.68161 0.58808 0.65911 0.0
C471 C 0.66316 0.56923 0.67944 0.0
Co472 Co 0.10017 0.72717 0.99848 0.0
Co473 Co 0.1918 0.76454 0.01344 0.0
O474 O 0.14051 0.72603 0.01521 0.0
C475 C 0.08472 0.72555 0.05035 0.0
O476 O 0.1193 0.75128 0.05216 0.0
C477 C 0.19461 0.69874 0.99643 0.0
O478 O 0.16809 0.69155 0.98102 0.0
O479 O 0.18895 0.7666 0.97747 0.0
O480 O 0.12934 0.74294 0.96766 0.0
H481 H 0.29764 0.88511 0.9851 0.0
H482 H 0.08603 0.66039 0.02592 0.0
O483 O 0.07112 0.71218 0.0296 0.0
H484 H 0.05214 0.61935 0.94127 0.0
H485 H 0.96687 0.67807 0.97915 0.0
H486 H 0.0939 0.77634 0.96245 0.0
H487 H 0.07459 0.68411 0.95261 0.0
H488 H 0.01903 0.67821 0.99959 0.0
O489 O 0.20657 0.72637 0.01059 0.0
H490 H 0.23264 0.83635 0.98802 0.0
H491 H 0.26124 0.77392 0.03449 0.0
H492 H 0.04262 0.77712 0.94146 0.0
H493 H 0.06339 0.59529 0.01542 0.0
H494 H 0.97855 0.72772 0.94978 0.0
H495 H 0.04634 0.57443 0.97282 0.0
O496 O 0.11904 0.78002 0.0067 0.0
H497 H 0.16958 0.70056 0.09394 0.0
H498 H 0.22137 0.82092 0.05285 0.0
H499 H 0.22309 0.81863 0.09751 0.0
H500 H 0.19708 0.75809 0.11834 0.0
H501 H 0.16805 0.70415 0.04933 0.0
H502 H 0.3266 0.82186 0.03188 0.0
H503 H 0.34513 0.87802 0.00714 0.0
O504 O 0.17842 0.80352 0.01643 0.0
C505 C 0.16333 0.75806 0.96201 0.0
C506 C 0.28989 0.86083 0.99601 0.0
C507 C 0.30615 0.8253 0.02224 0.0
N508 N 0.24312 0.80249 0.01158 0.0
C509 C 0.25312 0.83318 0.9978 0.0
C510 C 0.26911 0.79821 0.0236 0.0
C511 C 0.31653 0.85681 0.00836 0.0
C512 C 0.07835 0.65144 0.00739 0.0
N513 N 0.08139 0.67594 0.98993 0.0
C514 C 0.06569 0.61458 0.00153 0.0
C515 C 0.05617 0.6029 0.97762 0.0
C516 C 0.05942 0.62809 0.95991 0.0
C517 C 0.07222 0.66473 0.96643 0.0
C518 C 0.99466 0.69972 0.97535 0.0
C519 C 0.06611 0.75464 0.96606 0.0
C520 C 0.02428 0.69999 0.98691 0.0
N521 N 0.05945 0.72714 0.98211 0.0
C522 C 0.03718 0.75528 0.95417 0.0
C523 C 0.00124 0.72758 0.95886 0.0
C524 C 0.15018 0.80662 0.01316 0.0
C525 C 0.18105 0.72711 0.08507 0.0
C526 C 0.20982 0.7945 0.06179 0.0
C527 C 0.211 0.79336 0.08708 0.0
C528 C 0.19644 0.75939 0.09876 0.0
N529 N 0.19459 0.76272 0.0485 0.0
C530 C 0.18038 0.72932 0.05982 0.0
Co531 Co 0.41533 0.18581 0.33416 0.0
Co532 Co 0.35364 0.09313 0.33047 0.0
O533 O 0.39671 0.13528 0.34478 0.0
C534 C 0.4828 0.18034 0.33209 0.0
O535 O 0.46486 0.15038 0.31891 0.0
C536 C 0.33834 0.0883 0.3826 0.0
O537 O 0.34729 0.12302 0.38082 0.0
O538 O 0.32347 0.11702 0.33486 0.0
O539 O 0.3648 0.17643 0.32768 0.0
H540 H 0.24409 0.0295 0.27549 0.0
H541 H 0.43965 0.17276 0.38172 0.0
O542 O 0.46659 0.19688 0.34015 0.0
H543 H 0.37717 0.24267 0.40009 0.0
H544 H 0.49933 0.32337 0.33817 0.0
H545 H 0.39816 0.22098 0.29346 0.0
H546 H 0.38336 0.22723 0.35783 0.0
H547 H 0.47437 0.2591 0.35174 0.0
O548 O 0.33873 0.07082 0.36376 0.0
H549 H 0.2986 0.08301 0.29316 0.0
H550 H 0.3165 0.01216 0.33897 0.0
H551 H 0.422 0.28485 0.27944 0.0
H552 H 0.43448 0.18797 0.42423 0.0
H553 H 0.47304 0.33657 0.3018 0.0
H554 H 0.4029 0.22303 0.43363 0.0
O555 O 0.41821 0.17172 0.30033 0.0
H556 H 0.44196 0.05233 0.35656 0.0
H557 H 0.36689 0.05562 0.28905 0.0
H558 H 0.4051 0.02707 0.28278 0.0
H559 H 0.44293 0.02523 0.3167 0.0
H560 H 0.40359 0.08089 0.36198 0.0
H561 H 0.26196 0.95787 0.32198 0.0
H562 H 0.22546 0.96637 0.28992 0.0
O563 O 0.36787 0.11543 0.297 0.0
C564 C 0.33195 0.15012 0.33032 0.0
C565 C 0.25985 0.02542 0.28938 0.0
C566 C 0.26985 0.98523 0.3155 0.0
N567 N 0.31088 0.05066 0.31688 0.0
C568 C 0.29081 0.05561 0.29939 0.0
C569 C 0.30065 0.01606 0.32509 0.0
C570 C 0.24939 0.99002 0.29751 0.0
C571 C 0.42632 0.18846 0.38565 0.0
N572 N 0.41201 0.19929 0.36732 0.0
C573 C 0.42331 0.19683 0.40976 0.0
C574 C 0.40552 0.21644 0.41503 0.0
C575 C 0.39105 0.22744 0.39622 0.0
C576 C 0.39456 0.21856 0.37234 0.0
C577 C 0.47708 0.30107 0.32827 0.0
C578 C 0.42018 0.24335 0.30341 0.0
C579 C 0.46288 0.26461 0.33585 0.0
N580 N 0.43465 0.23633 0.32351 0.0
C581 C 0.43367 0.27945 0.29532 0.0
C582 C 0.46234 0.30845 0.30786 0.0
C583 C 0.39475 0.14451 0.2878 0.0
C584 C 0.42552 0.05286 0.34166 0.0
C585 C 0.38337 0.05502 0.30388 0.0
C586 C 0.40488 0.03875 0.30023 0.0
C587 C 0.42608 0.03771 0.31928 0.0
N588 N 0.38288 0.06973 0.3259 0.0
C589 C 0.40364 0.06888 0.34465 0.0
Co590 Co 0.22789 0.43067 0.67954 0.0
Co591 Co 0.27028 0.38018 0.66674 0.0
O592 O 0.26897 0.42183 0.68171 0.0
C593 C 0.29121 0.50009 0.66107 0.0
O594 O 0.30086 0.48049 0.64765 0.0
C595 C 0.2762 0.37299 0.71896 0.0
O596 O 0.24978 0.38075 0.72052 0.0
O597 O 0.21907 0.34426 0.67686 0.0
O598 O 0.19212 0.3776 0.68462 0.0
H599 H 0.22357 0.26692 0.61485 0.0
H600 H 0.28855 0.47503 0.71383 0.0
O601 O 0.26282 0.4843 0.67449 0.0
H602 H 0.17736 0.41084 0.76448 0.0
H603 H 0.16242 0.50145 0.69482 0.0
H604 H 0.15513 0.39237 0.65553 0.0
H605 H 0.17355 0.40269 0.72008 0.0
H606 H 0.21371 0.48919 0.69816 0.0
O607 O 0.28852 0.37089 0.69824 0.0
H608 H 0.22161 0.31922 0.63368 0.0
H609 H 0.32349 0.35321 0.66865 0.0
H610 H 0.10313 0.40339 0.65191 0.0
H611 H 0.29352 0.48445 0.75813 0.0
H612 H 0.10658 0.4583 0.67164 0.0
H613 H 0.23769 0.452 0.78379 0.0
O614 O 0.22459 0.42242 0.64393 0.0
H615 H 0.39971 0.48363 0.67887 0.0
H616 H 0.31088 0.39552 0.62 0.0
H617 H 0.37376 0.44003 0.60655 0.0
H618 H 0.41869 0.48446 0.6361 0.0
H619 H 0.33646 0.43883 0.69148 0.0
H620 H 0.32642 0.30105 0.65035 0.0
H621 H 0.27626 0.25756 0.62317 0.0
O622 O 0.25114 0.38854 0.63549 0.0
C623 C 0.19139 0.34699 0.683 0.0
C624 C 0.24565 0.28575 0.6266 0.0
C625 C 0.30335 0.30487 0.64656 0.0
N626 N 0.27256 0.33938 0.65208 0.0
C627 C 0.24475 0.31548 0.63725 0.0
C628 C 0.30152 0.3343 0.6569 0.0
C629 C 0.27521 0.28049 0.63129 0.0
C630 C 0.26405 0.46124 0.72483 0.0
N631 N 0.23078 0.43847 0.71436 0.0
C632 C 0.26706 0.46654 0.74992 0.0
C633 C 0.23574 0.44828 0.76431 0.0
C634 C 0.20189 0.42514 0.75349 0.0
C635 C 0.19991 0.42056 0.72834 0.0
C636 C 0.16057 0.47741 0.68618 0.0
C637 C 0.15677 0.4162 0.6643 0.0
C638 C 0.18956 0.47038 0.68796 0.0
N639 N 0.18733 0.43998 0.67719 0.0
C640 C 0.12726 0.42235 0.66213 0.0
C641 C 0.12924 0.45318 0.67318 0.0
C642 C 0.23365 0.40486 0.6292 0.0
C643 C 0.38042 0.46435 0.66584 0.0
C644 C 0.33025 0.41484 0.63294 0.0
C645 C 0.36583 0.43992 0.62523 0.0
C646 C 0.39103 0.46483 0.64183 0.0
N647 N 0.32009 0.41448 0.65653 0.0
C648 C 0.34461 0.43883 0.6729 0.0
Co649 Co 0.90579 0.26989 0.99647 0.0
Co650 Co 0.81474 0.23179 0.01291 0.0
O651 O 0.86592 0.27035 0.01417 0.0
C652 C 0.92282 0.26956 0.04778 0.0
O653 O 0.88898 0.24207 0.04923 0.0
C654 C 0.80919 0.29695 0.9977 0.0
O655 O 0.83291 0.30356 0.98024 0.0
O656 O 0.81623 0.2311 0.97674 0.0
O657 O 0.87554 0.25418 0.96613 0.0
H658 H 0.7078 0.1125 0.98399 0.0
H659 H 0.92029 0.33614 0.02475 0.0
O660 O 0.93564 0.28481 0.02728 0.0
H661 H 0.95104 0.37839 0.94002 0.0
H662 H 0.03862 0.32057 0.9749 0.0
H663 H 0.91148 0.22164 0.95944 0.0
H664 H 0.92939 0.31356 0.95078 0.0
H665 H 0.98684 0.31945 0.99661 0.0
O666 O 0.79978 0.26999 0.01215 0.0
H667 H 0.7729 0.16112 0.98636 0.0
H668 H 0.74623 0.22124 0.03627 0.0
H669 H 0.96236 0.22183 0.9372 0.0
H670 H 0.94217 0.40129 0.01483 0.0
H671 H 0.02649 0.27157 0.94489 0.0
H672 H 0.95765 0.42277 0.9722 0.0
O673 O 0.8876 0.21696 0.00406 0.0
H674 H 0.84261 0.29281 0.09468 0.0
H675 H 0.787 0.17389 0.05147 0.0
H676 H 0.78863 0.17462 0.0962 0.0
H677 H 0.81673 0.23444 0.1181 0.0
H678 H 0.84052 0.29079 0.04997 0.0
H679 H 0.68078 0.17343 0.03426 0.0
H680 H 0.66122 0.1185 0.00806 0.0
O681 O 0.8282 0.19273 0.01393 0.0
C682 C 0.84142 0.23945 0.96091 0.0
C683 C 0.71599 0.13624 0.99555 0.0
C684 C 0.70082 0.17046 0.02374 0.0
N685 N 0.76339 0.19382 0.01161 0.0
C686 C 0.75283 0.1638 0.99702 0.0
C687 C 0.73791 0.19748 0.02477 0.0
C688 C 0.68987 0.13964 0.00903 0.0
C689 C 0.92727 0.34535 0.00619 0.0
N690 N 0.92381 0.32116 0.98839 0.0
C691 C 0.93951 0.38224 0.00067 0.0
C692 C 0.94815 0.39427 0.97674 0.0
C693 C 0.94444 0.36938 0.95867 0.0
C694 C 0.9321 0.3327 0.96486 0.0
C695 C 0.0108 0.29878 0.97137 0.0
C696 C 0.93929 0.24349 0.96278 0.0
C697 C 0.9814 0.29796 0.98365 0.0
N698 N 0.9462 0.27064 0.97918 0.0
C699 C 0.968 0.2434 0.95018 0.0
C700 C 0.00397 0.27129 0.95452 0.0
C701 C 0.85647 0.18991 0.01012 0.0
C702 C 0.83023 0.26657 0.08535 0.0
C703 C 0.79922 0.19998 0.06087 0.0
C704 C 0.80001 0.20024 0.0862 0.0
C705 C 0.81575 0.23381 0.09848 0.0
N706 N 0.81362 0.23223 0.04811 0.0
C707 C 0.82883 0.26524 0.06004 0.0
H708 H 0.21492 0.54397 0.32356 0.0
H709 H 0.26333 0.608 0.32161 0.0
H710 H 0.24156 0.62395 0.3958 0.0
H711 H 0.19433 0.5588 0.39836 0.0
H712 H 0.28086 0.6751 0.32571 0.0
H713 H 0.32183 0.67794 0.42497 0.0
H714 H 0.3146 0.63665 0.45908 0.0
H715 H 0.29838 0.55153 0.40895 0.0
H716 H 0.30579 0.59239 0.3745 0.0
H717 H 0.46805 0.82906 0.3329 0.0
H718 H 0.40218 0.79041 0.34201 0.0
H719 H 0.41707 0.69685 0.353 0.0
H720 H 0.48191 0.73485 0.34475 0.0
H721 H 0.37603 0.69835 0.38713 0.0
H722 H 0.38233 0.71309 0.29894 0.0
H723 H 0.39652 0.74954 0.26127 0.0
H724 H 0.32544 0.78994 0.28348 0.0
H725 H 0.31117 0.75399 0.32142 0.0
C726 C 0.21967 0.56122 0.33932 0.0
C727 C 0.20144 0.54603 0.36133 0.0
C728 C 0.24742 0.59807 0.33815 0.0
C729 C 0.25701 0.62066 0.3588 0.0
C730 C 0.23548 0.60679 0.37984 0.0
C731 C 0.20829 0.56958 0.38124 0.0
C732 C 0.29256 0.65607 0.35905 0.0
C733 C 0.3015 0.68048 0.33936 0.0
C734 C 0.31973 0.66338 0.37681 0.0
C735 C 0.31383 0.63802 0.39724 0.0
C736 C 0.31658 0.65035 0.42125 0.0
C737 C 0.31255 0.62707 0.44061 0.0
C738 C 0.3061 0.59151 0.43615 0.0
C739 C 0.3034 0.57907 0.41232 0.0
C740 C 0.30743 0.60224 0.39288 0.0
C741 C 0.45713 0.80027 0.33738 0.0
C742 C 0.48027 0.78509 0.33817 0.0
C743 C 0.41955 0.77823 0.34254 0.0
C744 C 0.40465 0.7407 0.34824 0.0
C745 C 0.42788 0.72579 0.34897 0.0
C746 C 0.46512 0.74765 0.34413 0.0
C747 C 0.36492 0.71579 0.35302 0.0
C748 C 0.35506 0.6937 0.37389 0.0
C749 C 0.33751 0.70976 0.33586 0.0
C750 C 0.3461 0.73131 0.31312 0.0
C751 C 0.36997 0.72998 0.29585 0.0
C752 C 0.37798 0.7505 0.27445 0.0
C753 C 0.362 0.77216 0.27002 0.0
C754 C 0.33788 0.77324 0.28696 0.0
C755 C 0.32982 0.75281 0.30841 0.0
H756 H 0.36822 0.78801 0.25344 0.0
H757 H 0.30311 0.57357 0.45115 0.0
H758 H 0.716 0.23482 0.63203 0.0
H759 H 0.69412 0.27826 0.6347 0.0
H760 H 0.62085 0.21459 0.6928 0.0
H761 H 0.64375 0.17124 0.69073 0.0
H762 H 0.63656 0.28593 0.63302 0.0
H763 H 0.62829 0.27465 0.7366 0.0
H764 H 0.64858 0.24981 0.77002 0.0
H765 H 0.74197 0.2677 0.72799 0.0
H766 H 0.7225 0.29312 0.69454 0.0
H767 H 0.64487 0.45454 0.66327 0.0
H768 H 0.6201 0.38771 0.6647 0.0
H769 H 0.72278 0.4058 0.69416 0.0
H770 H 0.74684 0.47178 0.69377 0.0
H771 H 0.67168 0.34741 0.71332 0.0
H772 H 0.70185 0.39557 0.63111 0.0
H773 H 0.69611 0.42657 0.5947 0.0
H774 H 0.58169 0.34528 0.58951 0.0
H775 H 0.58672 0.31406 0.62608 0.0
C776 C 0.69461 0.22948 0.64504 0.0
C777 C 0.68234 0.20019 0.66164 0.0
C778 C 0.68183 0.25424 0.6464 0.0
C779 C 0.65642 0.25017 0.66431 0.0
C780 C 0.64095 0.21857 0.6791 0.0
C781 C 0.65398 0.19377 0.67786 0.0
C782 C 0.6516 0.28212 0.6698 0.0
C783 C 0.64338 0.29898 0.65073 0.0
C784 C 0.66125 0.2996 0.69276 0.0
C785 C 0.67364 0.28525 0.71301 0.0
C786 C 0.65319 0.27336 0.73457 0.0
C787 C 0.66456 0.2592 0.7535 0.0
C788 C 0.69645 0.25704 0.75109 0.0
C789 C 0.71722 0.26929 0.72982 0.0
C790 C 0.70605 0.28359 0.71089 0.0
C791 C 0.66183 0.44413 0.67048 0.0
C792 C 0.69799 0.46848 0.6781 0.0
C793 C 0.64769 0.40596 0.67122 0.0
C794 C 0.66977 0.39166 0.67915 0.0
C795 C 0.70508 0.41599 0.68802 0.0
C796 C 0.71895 0.4539 0.68764 0.0
C797 C 0.65826 0.35209 0.67624 0.0
C798 C 0.66323 0.33368 0.69587 0.0
C799 C 0.6476 0.33417 0.65344 0.0
C800 C 0.64453 0.35282 0.63147 0.0
C801 C 0.67543 0.38448 0.62227 0.0
C802 C 0.67231 0.40206 0.60161 0.0
C803 C 0.63853 0.38797 0.58985 0.0
C804 C 0.60781 0.35621 0.59868 0.0
C805 C 0.61077 0.33858 0.61938 0.0
H806 H 0.63617 0.40161 0.57384 0.0
H807 H 0.70513 0.24595 0.76573 0.0
H808 H 0.45823 0.63286 0.96701 0.0
H809 H 0.39145 0.6083 0.96635 0.0
H810 H 0.40257 0.68169 0.0247 0.0
H811 H 0.46901 0.70708 0.02475 0.0
H812 H 0.33551 0.60589 0.0257 0.0
H813 H 0.40912 0.7161 0.97433 0.0
H814 H 0.45417 0.74718 0.94151 0.0
H815 H 0.38583 0.66 0.89234 0.0
H816 H 0.3406 0.62817 0.92504 0.0
H817 H 0.23938 0.69769 0.03132 0.0
H818 H 0.27878 0.67112 0.02889 0.0
H819 H 0.23317 0.62457 0.95891 0.0
H820 H 0.19362 0.65199 0.96107 0.0
H821 H 0.30583 0.66291 0.95699 0.0
H822 H 0.22147 0.56711 0.00728 0.0
H823 H 0.17783 0.53756 0.04097 0.0
H824 H 0.26473 0.59504 0.09249 0.0
H825 H 0.30883 0.62541 0.05917 0.0
C826 C 0.44609 0.64279 0.98014 0.0
C827 C 0.46839 0.67177 0.99591 0.0
C828 C 0.40812 0.6288 0.97976 0.0
C829 C 0.39225 0.64316 0.99555 0.0
C830 C 0.41432 0.67004 0.01257 0.0
C831 C 0.45218 0.68463 0.01251 0.0
C832 C 0.35428 0.63534 0.99201 0.0
C833 C 0.32857 0.61781 0.01059 0.0
C834 C 0.34515 0.65004 0.97189 0.0
C835 C 0.37175 0.66961 0.95212 0.0
C836 C 0.40383 0.70349 0.95654 0.0
C837 C 0.42939 0.72123 0.93798 0.0
C838 C 0.42293 0.7055 0.91487 0.0
C839 C 0.39082 0.6721 0.91026 0.0
C840 C 0.36522 0.6542 0.92879 0.0
C841 C 0.23713 0.68125 0.01556 0.0
C842 C 0.21362 0.67722 0.99627 0.0
C843 C 0.25947 0.66567 0.01431 0.0
C844 C 0.25868 0.64541 0.99384 0.0
C845 C 0.23403 0.63989 0.97495 0.0
C846 C 0.21142 0.65547 0.97623 0.0
C847 C 0.28713 0.63467 0.99128 0.0
C848 C 0.31147 0.64913 0.97159 0.0
C849 C 0.29482 0.61696 0.01039 0.0
C850 C 0.26851 0.59857 0.03064 0.0
C851 C 0.23128 0.57361 0.02579 0.0
C852 C 0.20644 0.55669 0.04484 0.0
C853 C 0.2185 0.5644 0.06885 0.0
C854 C 0.25544 0.58903 0.07388 0.0
C855 C 0.2804 0.60604 0.0549 0.0
H856 H 0.19922 0.5513 0.08357 0.0
H857 H 0.44277 0.71925 0.90053 0.0
H858 H 0.5313 0.16629 0.30753 0.0
H859 H 0.59839 0.20518 0.30699 0.0
H860 H 0.59165 0.27564 0.36133 0.0
H861 H 0.52554 0.23672 0.36246 0.0
H862 H 0.63343 0.27162 0.29177 0.0
H863 H 0.6641 0.32292 0.39315 0.0
H864 H 0.64904 0.29523 0.43395 0.0
H865 H 0.6269 0.19131 0.40449 0.0
H866 H 0.64237 0.21846 0.36353 0.0
H867 H 0.73034 0.45811 0.30521 0.0
H868 H 0.69167 0.39168 0.30379 0.0
H869 H 0.77446 0.37924 0.34164 0.0
H870 H 0.81334 0.44655 0.34377 0.0
H871 H 0.71201 0.33827 0.36226 0.0
H872 H 0.7504 0.34763 0.28201 0.0
H873 H 0.76813 0.37279 0.24066 0.0
H874 H 0.6583 0.3497 0.22696 0.0
H875 H 0.63997 0.32493 0.26833 0.0
C876 C 0.54433 0.18942 0.3199 0.0
C877 C 0.52311 0.19868 0.33484 0.0
C878 C 0.58265 0.21168 0.31952 0.0
C879 C 0.60026 0.24328 0.33422 0.0
C880 C 0.57906 0.25105 0.35019 0.0
C881 C 0.54102 0.22891 0.35062 0.0
C882 C 0.63952 0.27147 0.33057 0.0
C883 C 0.65095 0.28579 0.30713 0.0
C884 C 0.66327 0.2891 0.35043 0.0
C885 C 0.65445 0.2728 0.37519 0.0
C886 C 0.65639 0.29426 0.39536 0.0
C887 C 0.64766 0.27862 0.41853 0.0
C888 C 0.63701 0.24154 0.42181 0.0
C889 C 0.6351 0.22002 0.40192 0.0
C890 C 0.6438 0.23551 0.37871 0.0
C891 C 0.74074 0.44141 0.31294 0.0
C892 C 0.77486 0.45771 0.32478 0.0
C893 C 0.71866 0.40323 0.31188 0.0
C894 C 0.7303 0.38026 0.32227 0.0
C895 C 0.76498 0.39637 0.33337 0.0
C896 C 0.78717 0.43482 0.33455 0.0
C897 C 0.70405 0.33998 0.32379 0.0
C898 C 0.69518 0.32338 0.34679 0.0
C899 C 0.68317 0.31975 0.30344 0.0
C900 C 0.6938 0.33433 0.27835 0.0
C901 C 0.73003 0.34804 0.27023 0.0
C902 C 0.7402 0.36225 0.24677 0.0
C903 C 0.71435 0.36282 0.23119 0.0
C904 C 0.67827 0.34915 0.23903 0.0
C905 C 0.66795 0.33492 0.26248 0.0
H906 H 0.72229 0.37386 0.21304 0.0
H907 H 0.63024 0.22949 0.43977 0.0
H908 H 0.35946 0.83101 0.67416 0.0
H909 H 0.38897 0.79389 0.66807 0.0
H910 H 0.29123 0.71041 0.63226 0.0
H911 H 0.26254 0.74739 0.63742 0.0
H912 H 0.37212 0.73216 0.68662 0.0
H913 H 0.30184 0.65973 0.59419 0.0
H914 H 0.29194 0.67874 0.55394 0.0
H915 H 0.38061 0.78884 0.5664 0.0
H916 H 0.39152 0.77043 0.60659 0.0
H917 H 0.28128 0.54686 0.68978 0.0
H918 H 0.30977 0.61304 0.6863 0.0
H919 H 0.37757 0.61311 0.62757 0.0
H920 H 0.34798 0.54565 0.63056 0.0
H921 H 0.3487 0.65182 0.61497 0.0
H922 H 0.41827 0.65921 0.6818 0.0
H923 H 0.43468 0.64353 0.72114 0.0
H924 H 0.36105 0.67029 0.75761 0.0
H925 H 0.34369 0.68556 0.7185 0.0
C926 C 0.34467 0.80507 0.66454 0.0
C927 C 0.30855 0.79206 0.65643 0.0
C928 C 0.36156 0.78391 0.66105 0.0
C929 C 0.34265 0.74953 0.64934 0.0
C930 C 0.30703 0.73725 0.64066 0.0
C931 C 0.29035 0.75834 0.64395 0.0
C932 C 0.35723 0.72379 0.64881 0.0
C933 C 0.36772 0.71501 0.67084 0.0
C934 C 0.35373 0.70264 0.6279 0.0
C935 C 0.34756 0.71363 0.60348 0.0
C936 C 0.31953 0.68791 0.58829 0.0
C937 C 0.31365 0.69862 0.56549 0.0
C938 C 0.33563 0.73496 0.55762 0.0
C939 C 0.36357 0.76069 0.57253 0.0
C940 C 0.36959 0.75014 0.59534 0.0
C941 C 0.30256 0.56078 0.67627 0.0
C942 C 0.31206 0.54085 0.66027 0.0
C943 C 0.31929 0.59891 0.67452 0.0
C944 C 0.3464 0.61835 0.65696 0.0
C945 C 0.35694 0.59875 0.6414 0.0
C946 C 0.34001 0.56024 0.64311 0.0
C947 C 0.35953 0.65817 0.65336 0.0
C948 C 0.35454 0.66975 0.63052 0.0
C949 C 0.36939 0.68257 0.67332 0.0
C950 C 0.37975 0.67367 0.69711 0.0
C951 C 0.40544 0.66163 0.69818 0.0
C952 C 0.41491 0.6528 0.72046 0.0
C953 C 0.39895 0.65595 0.74186 0.0
C954 C 0.37348 0.66796 0.74102 0.0
C955 C 0.36389 0.67683 0.71879 0.0
H956 H 0.4063 0.64908 0.75909 0.0
H957 H 0.331 0.74319 0.53997 0.0
H958 H 0.79412 0.3312 0.96088 0.0
H959 H 0.74827 0.35078 0.96178 0.0
H960 H 0.73248 0.32726 0.03847 0.0
H961 H 0.77736 0.30682 0.0375 0.0
H962 H 0.67058 0.28978 0.01557 0.0
H963 H 0.76624 0.41567 0.016 0.0
H964 H 0.82308 0.47066 0.00229 0.0
H965 H 0.77389 0.46503 0.93306 0.0
H966 H 0.7169 0.40966 0.94622 0.0
H967 H 0.53817 0.35478 0.02026 0.0
H968 H 0.60396 0.37544 0.02079 0.0
H969 H 0.58913 0.30428 0.96026 0.0
H970 H 0.52386 0.28371 0.95943 0.0
H971 H 0.66874 0.39757 0.97998 0.0
H972 H 0.60643 0.24317 0.98903 0.0
H973 H 0.54835 0.18891 0.00224 0.0
H974 H 0.53335 0.25502 0.05538 0.0
H975 H 0.59167 0.3094 0.04281 0.0
C976 C 0.78166 0.33132 0.97804 0.0
C977 C 0.78886 0.31704 0.99904 0.0
C978 C 0.75553 0.3426 0.97857 0.0
C979 C 0.73677 0.34031 0.00019 0.0
C980 C 0.74639 0.32902 0.02156 0.0
C981 C 0.77204 0.31736 0.02098 0.0
C982 C 0.70351 0.34394 -0.00011 0.0
C983 C 0.67057 0.31374 0.00817 0.0
C984 C 0.70315 0.37499 0.99006 0.0
C985 C 0.73736 0.40832 0.98206 0.0
C986 C 0.76763 0.42597 0.99778 0.0
C987 C 0.79986 0.45725 0.99012 0.0
C988 C 0.80212 0.47129 0.9668 0.0
C989 C 0.77211 0.45411 0.95111 0.0
C990 C 0.73981 0.4228 0.95868 0.0
C991 C 0.54919 0.3446 0.0065 0.0
C992 C 0.52576 0.317 0.99016 0.0
C993 C 0.58679 0.35662 0.00674 0.0
C994 C 0.60114 0.34115 0.99065 0.0
C995 C 0.57846 0.31654 0.97276 0.0
C996 C 0.54109 0.30457 0.97249 0.0
C997 C 0.63667 0.34359 0.99566 0.0
C998 C 0.6695 0.37432 0.98795 0.0
C999 C 0.63732 0.31333 0.00634 0.0
C1000 C 0.60321 0.28035 0.01485 0.0
C1001 C 0.59086 0.24601 0.00366 0.0
C1002 C 0.5579 0.21526 0.01101 0.0
C1003 C 0.53714 0.21855 0.02959 0.0
C1004 C 0.54941 0.25253 0.04096 0.0
C1005 C 0.58241 0.2833 0.03373 0.0
H1006 H 0.51161 0.19477 0.03524 0.0
H1007 H 0.8271 0.49552 0.9609 0.0
H1008 H 0.12364 0.29334 0.3068 0.0
H1009 H 0.14873 0.25182 0.30538 0.0
H1010 H 0.22329 0.31292 0.36353 0.0
H1011 H 0.19948 0.35502 0.36439 0.0
H1012 H 0.25908 0.30241 0.33064 0.0
H1013 H 0.14541 0.2254 0.37124 0.0
H1014 H 0.07828 0.19316 0.37678 0.0
H1015 H 0.06373 0.12993 0.31225 0.0
H1016 H 0.13078 0.16225 0.3061 0.0
H1017 H 0.27457 0.13228 0.36105 0.0
H1018 H 0.23501 0.15986 0.36111 0.0
H1019 H 0.28463 0.21596 0.29404 0.0
H1020 H 0.32502 0.1899 0.29458 0.0
H1021 H 0.18524 0.16576 0.33302 0.0
H1022 H 0.30638 0.30196 0.2968 0.0
H1023 H 0.37414 0.33527 0.29666 0.0
H1024 H 0.3741 0.28153 0.36292 0.0
H1025 H 0.30638 0.24773 0.3634 0.0
C1026 C 0.14529 0.29775 0.31932 0.0
C1027 C 0.1598 0.32762 0.33556 0.0
C1028 C 0.15946 0.2739 0.31859 0.0
C1029 C 0.18779 0.2791 0.33445 0.0
C1030 C 0.20164 0.30846 0.351 0.0
C1031 C 0.18798 0.33255 0.35146 0.0
C1032 C 0.20449 0.25528 0.33324 0.0
C1033 C 0.24279 0.27254 0.33116 0.0
C1034 C 0.18342 0.21628 0.3343 0.0
C1035 C 0.14312 0.19651 0.33808 0.0
C1036 C 0.12789 0.20481 0.35814 0.0
C1037 C 0.08985 0.1865 0.36139 0.0
C1038 C 0.06675 0.15958 0.34484 0.0
C1039 C 0.08165 0.15083 0.32504 0.0
C1040 C 0.11968 0.16913 0.32166 0.0
C1041 C 0.27625 0.14983 0.3461 0.0
C1042 C 0.30295 0.15951 0.32798 0.0
C1043 C 0.25371 0.16551 0.34611 0.0
C1044 C 0.25751 0.1906 0.32786 0.0
C1045 C 0.28184 0.19734 0.30858 0.0
C1046 C 0.3048 0.18242 0.30885 0.0
C1047 C 0.23956 0.21307 0.33025 0.0
C1048 C 0.20125 0.19563 0.33248 0.0
C1049 C 0.26061 0.25205 0.33018 0.0
C1050 C 0.30134 0.2722 0.33003 0.0
C1051 C 0.32086 0.29729 0.31134 0.0
C1052 C 0.35923 0.31613 0.31116 0.0
C1053 C 0.37837 0.31037 0.32972 0.0
C1054 C 0.3592 0.2857 0.34847 0.0
C1055 C 0.32084 0.26663 0.34867 0.0
H1056 H 0.40806 0.32519 0.32966 0.0
H1057 H 0.03731 0.14544 0.3474 0.0
H1058 H 0.84971 0.10647 0.6455 0.0
H1059 H 0.91453 0.12238 0.64706 0.0
H1060 H 0.93959 0.21564 0.69262 0.0
H1061 H 0.87581 0.20078 0.6906 0.0
H1062 H 0.9808 0.21273 0.6374 0.0
H1063 H 0.98597 0.18985 0.73907 0.0
H1064 H 0.94669 0.14682 0.77096 0.0
H1065 H 0.89651 0.0597 0.7185 0.0
H1066 H 0.93594 0.10205 0.68639 0.0
H1067 H 0.1282 0.34192 0.69977 0.0
H1068 H 0.06679 0.28868 0.69752 0.0
H1069 H 0.11089 0.22153 0.67239 0.0
H1070 H 0.17315 0.27514 0.67425 0.0
H1071 H 0.03732 0.19244 0.71047 0.0
H1072 H 0.09245 0.24145 0.63055 0.0
H1073 H 0.13325 0.29688 0.60663 0.0
H1074 H 0.06069 0.33932 0.61848 0.0
H1075 H 0.02063 0.28525 0.64375 0.0
C1076 C 0.86911 0.13016 0.65597 0.0
C1077 C 0.85789 0.15256 0.66781 0.0
C1078 C 0.90595 0.13918 0.65681 0.0
C1079 C 0.9315 0.16998 0.67008 0.0
C1080 C 0.92008 0.19166 0.68239 0.0
C1081 C 0.88371 0.18322 0.68113 0.0
C1082 C 0.97084 0.1817 0.67043 0.0
C1083 C 0.99331 0.20721 0.65283 0.0
C1084 C 0.98682 0.17511 0.69096 0.0
C1085 C 0.96377 0.14919 0.7103 0.0
C1086 C 0.96675 0.16144 0.73437 0.0
C1087 C 0.94442 0.13719 0.75248 0.0
C1088 C 0.91906 0.10057 0.74675 0.0
C1089 C 0.91608 0.0881 0.7229 0.0
C1090 C 0.93837 0.11223 0.70473 0.0
C1091 C 0.1252 0.31575 0.6943 0.0
C1092 C 0.1556 0.31302 0.68668 0.0
C1093 C 0.09001 0.28527 0.69322 0.0
C1094 C 0.08452 0.25149 0.6846 0.0
C1095 C 0.11484 0.24752 0.67914 0.0
C1096 C 0.15029 0.27822 0.6801 0.0
C1097 C 0.04711 0.22328 0.67742 0.0
C1098 C 0.02502 0.19586 0.69411 0.0
C1099 C 0.03135 0.22845 0.65619 0.0
C1100 C 0.0536 0.2593 0.63917 0.0
C1101 C 0.08531 0.2627 0.62821 0.0
C1102 C 0.10843 0.294 0.61453 0.0
C1103 C 0.09948 0.32151 0.61096 0.0
C1104 C 0.06752 0.31792 0.62121 0.0
C1105 C 0.0447 0.28703 0.63533 0.0
H1106 H 0.11723 0.34554 0.6002 0.0
H1107 H 0.90176 0.08185 0.76079 0.0
H1108 H 0.89794 0.16446 0.98826 0.0
H1109 H 0.88142 0.09976 0.98382 0.0
H1110 H 0.78763 0.06683 0.03033 0.0
H1111 H 0.80385 0.13086 0.03488 0.0
H1112 H 0.81657 0.02179 0.03618 0.0
H1113 H 0.77833 0.07435 0.97159 0.0
H1114 H 0.79072 0.12013 0.93946 0.0
H1115 H 0.85912 0.08702 0.90235 0.0
H1116 H 0.84759 0.04145 0.93454 0.0
H1117 H 0.65805 0.87391 0.96827 0.0
H1118 H 0.70736 0.93782 0.97006 0.0
H1119 H 0.78237 0.90291 0.99451 0.0
H1120 H 0.733 0.83854 0.9929 0.0
H1121 H 0.77638 0.98162 0.95147 0.0
H1122 H 0.82947 0.9605 0.04232 0.0
H1123 H 0.80861 0.91499 0.07564 0.0
H1124 H 0.69674 0.88501 0.06172 0.0
H1125 H 0.71702 0.93077 0.02865 0.0
C1126 C 0.87445 0.1435 0.99811 0.0
C1127 C 0.85178 0.15265 0.01156 0.0
C1128 C 0.86507 0.1066 0.99555 0.0
C1129 C 0.83308 0.07857 0.00652 0.0
C1130 C 0.81245 0.08803 0.02174 0.0
C1131 C 0.8216 0.1247 0.02415 0.0
C1132 C 0.8174 0.03954 0.99939 0.0
C1133 C 0.80861 0.01298 0.01757 0.0
C1134 C 0.8062 0.02811 0.9752 0.0
C1135 C 0.81246 0.05484 0.95557 0.0
C1136 C 0.79616 0.07698 0.95663 0.0
C1137 C 0.80303 0.10289 0.93843 0.0
C1138 C 0.82577 0.10655 0.9189 0.0
C1139 C 0.84158 0.08421 0.91751 0.0
C1140 C 0.83491 0.05836 0.93573 0.0
C1141 C 0.68515 0.87963 0.97359 0.0
C1142 C 0.6914 0.8511 0.98081 0.0
C1143 C 0.71341 0.91623 0.97441 0.0
C1144 C 0.74837 0.92504 0.98262 0.0
C1145 C 0.75546 0.89659 0.98825 0.0
C1146 C 0.72718 0.85985 0.98734 0.0
C1147 C 0.77537 0.96389 0.98828 0.0
C1148 C 0.78593 0.99039 0.96987 0.0
C1149 C 0.78712 0.97528 0.0124 0.0
C1150 C 0.77476 0.94868 0.03284 0.0
C1151 C 0.80046 0.94431 0.04648 0.0
C1152 C 0.78873 0.91847 0.06531 0.0
C1153 C 0.75136 0.89702 0.07073 0.0
C1154 C 0.72566 0.90156 0.05746 0.0
C1155 C 0.73726 0.92744 0.03869 0.0
H1156 H 0.74232 0.87693 0.08524 0.0
H1157 H 0.83107 0.12663 0.90483 0.0
H1158 H 0.6802 0.80328 0.30108 0.0
H1159 H 0.72942 0.78933 0.30191 0.0
H1160 H 0.79579 0.88709 0.34445 0.0
H1161 H 0.74574 0.9011 0.34406 0.0
H1162 H 0.79981 0.8199 0.28893 0.0
H1163 H 0.84 0.86096 0.38674 0.0
H1164 H 0.81802 0.87752 0.42353 0.0
H1165 H 0.7064 0.80574 0.40162 0.0
H1166 H 0.72771 0.78839 0.36487 0.0
H1167 H 0.896 0.72503 0.31885 0.0
H1168 H 0.88763 0.77888 0.31921 0.0
H1169 H 0.78162 0.71343 0.35287 0.0
H1170 H 0.78959 0.65993 0.35257 0.0
H1171 H 0.81908 0.78454 0.37117 0.0
H1172 H 0.78714 0.71983 0.29303 0.0
H1173 H 0.80251 0.69664 0.25636 0.0
H1174 H 0.8874 0.80661 0.23864 0.0
H1175 H 0.87283 0.83033 0.27546 0.0
C1176 C 0.70538 0.82221 0.31038 0.0
C1177 C 0.70878 0.85293 0.32292 0.0
C1178 C 0.73373 0.81436 0.31061 0.0
C1179 C 0.76617 0.83696 0.32341 0.0
C1180 C 0.77083 0.86915 0.33459 0.0
C1181 C 0.74226 0.87712 0.33435 0.0
C1182 C 0.79217 0.82343 0.32729 0.0
C1183 C 0.80499 0.8131 0.30695 0.0
C1184 C 0.79878 0.81436 0.35078 0.0
C1185 C 0.78548 0.82381 0.37298 0.0
C1186 C 0.81078 0.84866 0.38984 0.0
C1187 C 0.79843 0.85816 0.41066 0.0
C1188 C 0.76082 0.84277 0.41484 0.0
C1189 C 0.73548 0.81768 0.39829 0.0
C1190 C 0.74768 0.808 0.37748 0.0
C1191 C 0.87119 0.72234 0.32668 0.0
C1192 C 0.84322 0.68809 0.33536 0.0
C1193 C 0.86653 0.75311 0.32692 0.0
C1194 C 0.83399 0.75005 0.33603 0.0
C1195 C 0.80704 0.71644 0.3459 0.0
C1196 C 0.81149 0.68574 0.34547 0.0
C1197 C 0.82532 0.77986 0.33278 0.0
C1198 C 0.81574 0.7931 0.35323 0.0
C1199 C 0.8209 0.7909 0.30938 0.0
C1200 C 0.82924 0.77677 0.2871 0.0
C1201 C 0.80923 0.73901 0.28138 0.0
C1202 C 0.81778 0.72577 0.26058 0.0
C1203 C 0.84599 0.75012 0.24522 0.0
C1204 C 0.86562 0.78777 0.25059 0.0
C1205 C 0.85725 0.80113 0.27142 0.0
H1206 H 0.85259 0.73983 0.22912 0.0
H1207 H 0.75131 0.85023 0.43093 0.0
H1208 H 0.11713 0.79776 0.68106 0.0
H1209 H 0.05556 0.78865 0.67928 0.0
H1210 H 0.09931 0.90255 0.65937 0.0
H1211 H 0.16186 0.91218 0.66087 0.0
H1212 H 0.0239 0.83689 0.70283 0.0
H1213 H 0.06521 0.89004 0.61877 0.0
H1214 H 0.10646 0.89996 0.58419 0.0
H1215 H 0.06823 0.78389 0.58153 0.0
H1216 H 0.02695 0.77343 0.61621 0.0
H1217 H 0.83228 0.73647 0.67282 0.0
H1218 H 0.89374 0.7917 0.67089 0.0
H1219 H 0.93756 0.7256 0.64293 0.0
H1220 H 0.87709 0.67107 0.64479 0.0
H1221 H 0.96974 0.79326 0.62121 0.0
H1222 H 0.937 0.73871 0.70285 0.0
H1223 H 0.89806 0.72009 0.73948 0.0
H1224 H 0.92152 0.83145 0.74915 0.0
H1225 H 0.96021 0.85057 0.71233 0.0
C1226 C 0.11398 0.82114 0.67654 0.0
C1227 C 0.14449 0.85563 0.6708 0.0
C1228 C 0.0787 0.81589 0.67572 0.0
C1229 C 0.07305 0.8449 0.66917 0.0
C1230 C 0.1033 0.87987 0.66446 0.0
C1231 C 0.13892 0.88526 0.66531 0.0
C1232 C 0.03502 0.83622 0.66478 0.0
C1233 C 0.01194 0.82893 0.68487 0.0
C1234 C 0.01962 0.82507 0.64144 0.0
C1235 C 0.04311 0.83101 0.62 0.0
C1236 C 0.06563 0.86669 0.61076 0.0
C1237 C 0.08902 0.8724 0.59118 0.0
C1238 C 0.08999 0.84258 0.58068 0.0
C1239 C 0.06743 0.80696 0.58966 0.0
C1240 C 0.04398 0.80111 0.60923 0.0
C1241 C 0.85499 0.734 0.66587 0.0
C1242 C 0.85001 0.69937 0.65932 0.0
C1243 C 0.88997 0.7655 0.66473 0.0
C1244 C 0.92017 0.76268 0.6568 0.0
C1245 C 0.91464 0.72849 0.64895 0.0
C1246 C 0.88005 0.69719 0.6503 0.0
C1247 C 0.95837 0.79348 0.65933 0.0
C1248 C 0.98143 0.80395 0.63894 0.0
C1249 C 0.97373 0.8073 0.68246 0.0
C1250 C 0.95106 0.79596 0.70475 0.0
C1251 C 0.93367 0.75916 0.71274 0.0
C1252 C 0.91166 0.74851 0.73351 0.0
C1253 C 0.90722 0.77454 0.74659 0.0
C1254 C 0.9249 0.8113 0.73896 0.0
C1255 C 0.94685 0.82206 0.71814 0.0
H1256 H 0.89016 0.76626 0.76266 0.0
H1257 H 0.10821 0.84707 0.56559 0.0
H1258 H 0.32369 0.14155 0.03327 0.0
H1259 H 0.27766 0.07632 0.03668 0.0
H1260 H 0.22174 0.08509 0.97372 0.0
H1261 H 0.26781 0.15134 0.97062 0.0
H1262 H 0.17465 0.0306 0.01521 0.0
H1263 H 0.27254 0.05744 0.95776 0.0
H1264 H 0.33717 0.09083 0.94457 0.0
H1265 H 0.36817 0.05271 0.00757 0.0
H1266 H 0.30353 0.01874 0.02103 0.0
H1267 H 0.11227 0.83539 0.99034 0.0
H1268 H 0.12972 0.90071 0.98876 0.0
H1269 H 0.21622 0.92654 0.04042 0.0
H1270 H 0.19945 0.86201 0.04179 0.0
H1271 H 0.24139 0.9636 0.99807 0.0
H1272 H 0.1432 0.93488 0.05501 0.0
H1273 H 0.07889 0.90219 0.06894 0.0
H1274 H 0.04773 0.94392 0.00785 0.0
H1275 H 0.11182 0.97642 0.99335 0.0
C1276 C 0.30099 0.12976 0.02057 0.0
C1277 C 0.29925 0.15095 0.00153 0.0
C1278 C 0.27464 0.09267 0.02262 0.0
C1279 C 0.24657 0.07599 0.00535 0.0
C1280 C 0.24312 0.09769 0.98729 0.0
C1281 C 0.26939 0.13527 0.98546 0.0
C1282 C 0.22583 0.03537 0.00402 0.0
C1283 C 0.1888 0.01568 0.01098 0.0
C1284 C 0.24458 0.01621 0.99873 0.0
C1285 C 0.2833 0.03571 0.99041 0.0
C1286 C 0.29317 0.05625 0.9688 0.0
C1287 C 0.32979 0.07526 0.96128 0.0
C1288 C 0.35682 0.07411 0.97528 0.0
C1289 C 0.34721 0.0536 0.99674 0.0
C1290 C 0.31056 0.03429 0.00427 0.0
C1291 C 0.13437 0.85492 0.00181 0.0
C1292 C 0.15496 0.84377 0.01587 0.0
C1293 C 0.14426 0.89217 0.00091 0.0
C1294 C 0.17448 0.91842 0.01429 0.0
C1295 C 0.19303 0.90672 0.02977 0.0
C1296 C 0.18346 0.86982 0.03051 0.0
C1297 C 0.19026 0.95839 0.01006 0.0
C1298 C 0.22668 0.9781 0.00189 0.0
C1299 C 0.1707 0.97717 0.01417 0.0
C1300 C 0.13223 0.9577 0.02293 0.0
C1301 C 0.12258 0.93678 0.04441 0.0
C1302 C 0.08618 0.91835 0.05244 0.0
C1303 C 0.05922 0.92087 0.03925 0.0
C1304 C 0.06863 0.94193 0.01803 0.0
C1305 C 0.10499 0.96038 0.00991 0.0
H1306 H 0.03106 0.90659 0.0455 0.0
H1307 H 0.38518 0.08902 0.96946 0.0
H1308 H 0.90094 0.24358 0.09349 0.0
H1309 H 0.93476 0.26724 0.13112 0.0
H1310 H 0.02762 0.35081 0.09144 0.0
H1311 H 0.99378 0.32693 0.05319 0.0
H1312 H 0.0462 0.31574 0.12858 0.0
H1313 H 0.97534 0.37576 0.1197 0.0
H1314 H 0.91838 0.37672 0.1112 0.0
H1315 H 0.86632 0.30658 0.1726 0.0
H1316 H 0.92279 0.30471 0.18125 0.0
H1317 H 0.12864 0.40192 0.24072 0.0
H1318 H 0.10482 0.39176 0.19926 0.0
H1319 H 0.99621 0.31553 0.226 0.0
H1320 H 0.01959 0.32673 0.26748 0.0
H1321 H 0.99086 0.35556 0.19269 0.0
H1322 H 0.05517 0.28785 0.19902 0.0
H1323 H 0.10845 0.28001 0.20697 0.0
H1324 H 0.16933 0.35813 0.15084 0.0
H1325 H 0.11653 0.36678 0.14277 0.0
C1326 C 0.92862 0.26689 0.0926 0.0
C1327 C 0.94462 0.28349 0.0703 0.0
C1328 C 0.94787 0.28045 0.1142 0.0
C1329 C 0.98346 0.31107 0.11408 0.0
C1330 C 8e-05 0.32722 0.09186 0.0
C1331 C 0.98072 0.31361 0.07008 0.0
C1332 C 0.00255 0.32623 0.13743 0.0
C1333 C 0.03465 0.32524 0.14247 0.0
C1334 C 0.98685 0.33773 0.15566 0.0
C1335 C 0.95329 0.33999 0.15106 0.0
C1336 C 0.95172 0.36046 0.13135 0.0
C1337 C 0.91951 0.36114 0.1265 0.0
C1338 C 0.88874 0.34169 0.14133 0.0
C1339 C 0.89019 0.32165 0.16113 0.0
C1340 C 0.92232 0.32083 0.16604 0.0
C1341 C 0.09967 0.38306 0.23773 0.0
C1342 C 0.07601 0.36496 0.25733 0.0
C1343 C 0.0861 0.37716 0.21401 0.0
C1344 C 0.04879 0.3524 0.2094 0.0
C1345 C 0.02509 0.33478 0.22904 0.0
C1346 C 0.0385 0.34112 0.25276 0.0
C1347 C 0.03425 0.34432 0.18419 0.0
C1348 C 0.00292 0.34668 0.17876 0.0
C1349 C 0.05038 0.33355 0.16572 0.0
C1350 C 0.08208 0.32828 0.17049 0.0
C1351 C 0.08002 0.30355 0.1885 0.0
C1352 C 0.11011 0.29893 0.19301 0.0
C1353 C 0.1423 0.31865 0.17947 0.0
C1354 C 0.14441 0.34294 0.16135 0.0
C1355 C 0.11441 0.3477 0.15679 0.0
H1356 H 0.16556 0.31503 0.18299 0.0
H1357 H 0.86379 0.34216 0.1375 0.0
H1358 H 0.70454 0.0075 0.60809 0.0
H1359 H 0.68751 0.97629 0.5686 0.0
H1360 H 0.7513 0.08087 0.53242 0.0
H1361 H 0.76878 0.11214 0.57161 0.0
H1362 H 0.67985 0.03565 0.51274 0.0
H1363 H 0.7864 0.02796 0.5367 0.0
H1364 H 0.82178 0.01134 0.56436 0.0
H1365 H 0.73706 0.89756 0.56113 0.0
H1366 H 0.70091 0.91361 0.53371 0.0
H1367 H 0.6901 0.98176 0.39306 0.0
H1368 H 0.70337 0.00936 0.43349 0.0
H1369 H 0.66057 0.90153 0.46557 0.0
H1370 H 0.64891 0.87407 0.42515 0.0
H1371 H 0.71833 0.94613 0.48868 0.0
H1372 H 0.61192 0.95062 0.46448 0.0
H1373 H 0.57359 0.96483 0.43791 0.0
H1374 H 0.65232 0.08042 0.44302 0.0
H1375 H 0.69141 0.06687 0.46936 0.0
C1376 C 0.71494 0.0238 0.59171 0.0
C1377 C 0.73815 0.06225 0.59297 0.0
C1378 C 0.70523 0.00595 0.5692 0.0
C1379 C 0.71826 0.02631 0.54763 0.0
C1380 C 0.74095 0.06469 0.54886 0.0
C1381 C 0.75105 0.08247 0.5713 0.0
C1382 C 0.70861 0.00775 0.52368 0.0
C1383 C 0.68849 0.0163 0.50732 0.0
C1384 C 0.71897 0.98171 0.517 0.0
C1385 C 0.74078 0.97204 0.53337 0.0
C1386 C 0.77517 0.99945 0.54206 0.0
C1387 C 0.79539 0.99012 0.55766 0.0
C1388 C 0.78163 0.95343 0.56456 0.0
C1389 C 0.74766 0.92597 0.55581 0.0
C1390 C 0.72731 0.93517 0.54022 0.0
C1391 C 0.68351 0.96397 0.40875 0.0
C1392 C 0.66841 0.92576 0.40594 0.0
C1393 C 0.69088 0.97973 0.43188 0.0
C1394 C 0.68235 0.95751 0.45271 0.0
C1395 C 0.6674 0.91932 0.44986 0.0
C1396 C 0.66068 0.90363 0.42672 0.0
C1397 C 0.68959 0.97409 0.47742 0.0
C1398 C 0.70933 0.96522 0.49399 0.0
C1399 C 0.67831 0.9994 0.48444 0.0
C1400 C 0.65476 0.00769 0.46873 0.0
C1401 C 0.62119 0.97905 0.45981 0.0
C1402 C 0.59931 0.98699 0.44481 0.0
C1403 C 0.61055 0.0235 0.43874 0.0
C1404 C 0.64366 0.05215 0.44772 0.0
C1405 C 0.66568 0.04436 0.4627 0.0
H1406 H 0.59357 0.02959 0.42712 0.0
H1407 H 0.79733 0.94626 0.57664 0.0
H1408 H 0.67536 0.77735 0.90306 0.0
H1409 H 0.68803 0.7586 0.86414 0.0
H1410 H 0.65283 0.6501 0.8929 0.0
H1411 H 0.64189 0.66956 0.93251 0.0
H1412 H 0.70819 0.6684 0.86528 0.0
H1413 H 0.59686 0.66869 0.85538 0.0
H1414 H 0.55489 0.69347 0.85818 0.0
H1415 H 0.62331 0.78098 0.80921 0.0
H1416 H 0.66612 0.75717 0.80648 0.0
H1417 H 0.67252 0.63349 0.72509 0.0
H1418 H 0.65194 0.64171 0.76495 0.0
H1419 H 0.76438 0.70095 0.78953 0.0
H1420 H 0.78483 0.6914 0.75024 0.0
H1421 H 0.66068 0.69629 0.79069 0.0
H1422 H 0.77315 0.68709 0.84662 0.0
H1423 H 0.80863 0.65498 0.8442 0.0
H1424 H 0.72312 0.56902 0.80168 0.0
H1425 H 0.68716 0.60056 0.80386 0.0
C1426 C 0.67046 0.74953 0.90113 0.0
C1427 C 0.65739 0.72478 0.9207 0.0
C1428 C 0.67749 0.73875 0.87881 0.0
C1429 C 0.67044 0.70261 0.87533 0.0
C1430 C 0.65826 0.67806 0.89508 0.0
C1431 C 0.65199 0.68915 0.91767 0.0
C1432 C 0.67581 0.69076 0.85102 0.0
C1433 C 0.69763 0.67434 0.849 0.0
C1434 C 0.661 0.69729 0.82975 0.0
C1435 C 0.63484 0.71123 0.83083 0.0
C1436 C 0.60306 0.69331 0.84528 0.0
C1437 C 0.57912 0.7072 0.84687 0.0
C1438 C 0.58645 0.73879 0.8339 0.0
C1439 C 0.61768 0.7565 0.81925 0.0
C1440 C 0.64178 0.7428 0.81766 0.0
C1441 C 0.6928 0.64838 0.73901 0.0
C1442 C 0.73024 0.66158 0.73464 0.0
C1443 C 0.68103 0.65305 0.76177 0.0
C1444 C 0.70651 0.67126 0.78045 0.0
C1445 C 0.74405 0.68582 0.77569 0.0
C1446 C 0.75576 0.6806 0.75314 0.0
C1447 C 0.69413 0.67519 0.80494 0.0
C1448 C 0.67091 0.69003 0.80699 0.0
C1449 C 0.70638 0.66581 0.82626 0.0
C1450 C 0.7276 0.64634 0.82528 0.0
C1451 C 0.76187 0.66126 0.83684 0.0
C1452 C 0.78212 0.64322 0.83544 0.0
C1453 C 0.76824 0.61008 0.82268 0.0
C1454 C 0.73399 0.59482 0.8114 0.0
C1455 C 0.7137 0.61281 0.81267 0.0
H1456 H 0.78397 0.59618 0.82158 0.0
H1457 H 0.56791 0.74952 0.83517 0.0
H1458 H 0.00972 0.69013 0.05462 0.0
H1459 H 0.97377 0.67123 0.0924 0.0
H1460 H 0.07348 0.71121 0.13377 0.0
H1461 H 0.10942 0.7307 0.09642 0.0
H1462 H 0.01447 0.63951 0.14798 0.0
H1463 H 0.03967 0.76367 0.13096 0.0
H1464 H 0.03833 0.81133 0.10551 0.0
H1465 H 0.92065 0.74769 0.10291 0.0
H1466 H 0.92135 0.69936 0.12806 0.0
H1467 H 0.96928 0.65713 0.26814 0.0
H1468 H 0.99677 0.66804 0.22777 0.0
H1469 H 0.89483 0.64799 0.1959 0.0
H1470 H 0.86749 0.63813 0.23625 0.0
H1471 H 0.94943 0.70456 0.1746 0.0
H1472 H 0.92218 0.58276 0.19393 0.0
H1473 H 0.92168 0.53362 0.21876 0.0
H1474 H 0.03934 0.5889 0.21583 0.0
H1475 H 0.0406 0.6387 0.19129 0.0
C1476 C 0.02386 0.69465 0.07179 0.0
C1477 C 0.06234 0.71208 0.07262 0.0
C1478 C 0.00336 0.68392 0.09329 0.0
C1479 C 0.02108 0.68996 0.11581 0.0
C1480 C 0.05935 0.7063 0.11656 0.0
C1481 C 0.07982 0.71757 0.09521 0.0
C1482 C 0.00017 0.68057 0.13881 0.0
C1483 C 0.00037 0.65379 0.15392 0.0
C1484 C 0.98102 0.69858 0.14613 0.0
C1485 C 0.98059 0.72769 0.13112 0.0
C1486 C 0.01353 0.75967 0.12476 0.0
C1487 C 0.01289 0.78684 0.11043 0.0
C1488 C 0.97944 0.78248 0.10252 0.0
C1489 C 0.94655 0.75099 0.109 0.0
C1490 C 0.94705 0.72371 0.1233 0.0
C1491 C 0.95273 0.65509 0.25254 0.0
C1492 C 0.91619 0.64668 0.25539 0.0
C1493 C 0.96841 0.66113 0.22945 0.0
C1494 C 0.94768 0.65821 0.20873 0.0
C1495 C 0.91134 0.65031 0.21159 0.0
C1496 C 0.89575 0.64464 0.23469 0.0
C1497 C 0.96406 0.66371 0.18413 0.0
C1498 C 0.96306 0.68981 0.16866 0.0
C1499 C 0.98211 0.64471 0.17634 0.0
C1500 C 0.98149 0.61464 0.19092 0.0
C1501 C 0.94797 0.58458 0.19871 0.0
C1502 C 0.94754 0.55659 0.21272 0.0
C1503 C 0.98046 0.55818 0.21891 0.0
C1504 C 0.01387 0.58772 0.21104 0.0
C1505 C 0.01445 0.61583 0.19706 0.0
H1506 H 0.98007 0.53648 0.22977 0.0
H1507 H 0.97899 0.80356 0.09144 0.0
H1508 H 0.35093 0.12119 0.42693 0.0
H1509 H 0.33613 0.09156 0.46674 0.0
H1510 H 0.28937 0.98485 0.43267 0.0
H1511 H 0.30451 0.01435 0.39259 0.0
H1512 H 0.24523 0.99086 0.47079 0.0
H1513 H 0.36865 0.01638 0.45611 0.0
H1514 H 0.43388 0.05615 0.4454 0.0
H1515 H 0.44871 0.12599 0.50636 0.0
H1516 H 0.38337 0.08693 0.51722 0.0
H1517 H 0.22677 0.88458 0.57405 0.0
H1518 H 0.24245 0.91371 0.53426 0.0
H1519 H 0.311 0.01965 0.56786 0.0
H1520 H 0.29666 0.99016 0.60789 0.0
H1521 H 0.34391 0.01466 0.52959 0.0
H1522 H 0.22261 0.99182 0.54493 0.0
H1523 H 0.15739 0.95444 0.55636 0.0
H1524 H 0.13782 0.88338 0.49531 0.0
H1525 H 0.20309 0.92006 0.48368 0.0
C1526 C 0.33743 0.0914 0.42785 0.0
C1527 C 0.32889 0.07008 0.40661 0.0
C1528 C 0.32909 0.07455 0.45063 0.0
C1529 C 0.3118 0.03607 0.45261 0.0
C1530 C 0.30272 0.01461 0.43147 0.0
C1531 C 0.31151 0.0315 0.40863 0.0
C1532 C 0.30353 0.0184 0.47683 0.0
C1533 C 0.26674 0.99559 0.48357 0.0
C1534 C 0.33165 0.02563 0.49369 0.0
C1535 C 0.37103 0.04893 0.48733 0.0
C1536 C 0.38574 0.04039 0.46711 0.0
C1537 C 0.42275 0.06277 0.46104 0.0
C1538 C 0.4454 0.09363 0.47516 0.0
C1539 C 0.43111 0.1021 0.49542 0.0
C1540 C 0.3941 0.07984 0.50156 0.0
C1541 C 0.24516 0.9141 0.57301 0.0
C1542 C 0.26026 0.93515 0.59412 0.0
C1543 C 0.25397 0.93078 0.55021 0.0
C1544 C 0.27727 0.96904 0.54801 0.0
C1545 C 0.29282 0.9901 0.56907 0.0
C1546 C 0.28453 0.97328 0.59194 0.0
C1547 C 0.28545 0.9869 0.52371 0.0
C1548 C 0.32226 0.00984 0.51691 0.0
C1549 C 0.25728 0.98021 0.50692 0.0
C1550 C 0.21782 0.95853 0.51354 0.0
C1551 C 0.20444 0.96812 0.534 0.0
C1552 C 0.16746 0.94705 0.54052 0.0
C1553 C 0.14349 0.9165 0.52661 0.0
C1554 C 0.15643 0.90704 0.50608 0.0
C1555 C 0.19341 0.92799 0.49949 0.0
H1556 H 0.11488 0.9002 0.5317 0.0
H1557 H 0.47405 0.11093 0.47042 0.0
H1558 H 0.33415 0.22804 0.90596 0.0
H1559 H 0.32579 0.24919 0.86658 0.0
H1560 H 0.32535 0.34144 0.90078 0.0
H1561 H 0.33346 0.32026 0.94053 0.0
H1562 H 0.27056 0.30665 0.86622 0.0
H1563 H 0.40095 0.35393 0.87256 0.0
H1564 H 0.45511 0.34743 0.88005 0.0
H1565 H 0.42533 0.27253 0.82005 0.0
H1566 H 0.37061 0.2781 0.81245 0.0
H1567 H 0.28368 0.40606 0.76227 0.0
H1568 H 0.29975 0.38999 0.80105 0.0
H1569 H 0.31469 0.30664 0.76566 0.0
H1570 H 0.30051 0.32428 0.72636 0.0
H1571 H 0.36254 0.33643 0.80096 0.0
H1572 H 0.23262 0.28576 0.79469 0.0
H1573 H 0.17581 0.28746 0.78717 0.0
H1574 H 0.20133 0.3628 0.8465 0.0
H1575 H 0.25858 0.36195 0.85417 0.0
C1576 C 0.33208 0.25274 0.9052 0.0
C1577 C 0.33455 0.27255 0.92639 0.0
C1578 C 0.32748 0.26486 0.88263 0.0
C1579 C 0.32546 0.29712 0.88076 0.0
C1580 C 0.327 0.31652 0.90189 0.0
C1581 C 0.33166 0.30443 0.92454 0.0
C1582 C 0.32195 0.31065 0.85667 0.0
C1583 C 0.29091 0.31372 0.85205 0.0
C1584 C 0.34797 0.31863 0.838 0.0
C1585 C 0.38153 0.31623 0.84205 0.0
C1586 C 0.40586 0.33595 0.86103 0.0
C1587 C 0.43666 0.33243 0.8653 0.0
C1588 C 0.44362 0.30953 0.85056 0.0
C1589 C 0.41989 0.29024 0.83146 0.0
C1590 C 0.389 0.2936 0.82714 0.0
C1591 C 0.29095 0.38469 0.76272 0.0
C1592 C 0.29046 0.36605 0.74147 0.0
C1593 C 0.29993 0.37538 0.7849 0.0
C1594 C 0.30726 0.34629 0.78641 0.0
C1595 C 0.3088 0.32897 0.76496 0.0
C1596 C 0.3007 0.33899 0.74256 0.0
C1597 C 0.31121 0.3328 0.81049 0.0
C1598 C 0.34222 0.32954 0.81511 0.0
C1599 C 0.28485 0.32405 0.82911 0.0
C1600 C 0.25004 0.32402 0.82487 0.0
C1601 C 0.22619 0.30282 0.80606 0.0
C1602 C 0.19392 0.30363 0.80177 0.0
C1603 C 0.18501 0.3253 0.81631 0.0
C1604 C 0.20829 0.34607 0.83524 0.0
C1605 C 0.24063 0.34539 0.83959 0.0
H1606 H 0.16003 0.32593 0.81294 0.0
H1607 H 0.46743 0.30676 0.85394 0.0
H1608 H 0.10962 0.42993 0.42207 0.0
H1609 H 0.1231 0.42628 0.4649 0.0
H1610 H 0.14399 0.33797 0.44791 0.0
H1611 H 0.12767 0.33983 0.40552 0.0
H1612 H 0.11722 0.32789 0.49139 0.0
H1613 H 0.21321 0.43428 0.44816 0.0
H1614 H 0.23325 0.49028 0.42335 0.0
H1615 H 0.20331 0.5393 0.48061 0.0
H1616 H 0.18251 0.48351 0.50563 0.0
H1617 H 0.25571 0.38104 0.58958 0.0
H1618 H 0.2336 0.37476 0.54774 0.0
H1619 H 0.16096 0.414 0.56935 0.0
H1620 H 0.18348 0.42153 0.6109 0.0
H1621 H 0.21598 0.44742 0.52351 0.0
H1622 H 0.08502 0.31742 0.54082 0.0
H1623 H 0.05769 0.25834 0.56306 0.0
H1624 H 0.15843 0.25685 0.55608 0.0
H1625 H 0.18588 0.31532 0.53324 0.0
C1626 C 0.11574 0.40889 0.4278 0.0
C1627 C 0.11744 0.38498 0.4108 0.0
C1628 C 0.12393 0.4071 0.45214 0.0
C1629 C 0.13587 0.38274 0.45949 0.0
C1630 C 0.13512 0.35717 0.44269 0.0
C1631 C 0.12569 0.35812 0.41853 0.0
C1632 C 0.15206 0.38586 0.48393 0.0
C1633 C 0.13905 0.35401 0.49824 0.0
C1634 C 0.18064 0.41994 0.49301 0.0
C1635 C 0.19604 0.45458 0.47871 0.0
C1636 C 0.21105 0.45706 0.4555 0.0
C1637 C 0.2224 0.48868 0.44137 0.0
C1638 C 0.21929 0.51813 0.45034 0.0
C1639 C 0.20553 0.51637 0.47365 0.0
C1640 C 0.194 0.4848 0.48783 0.0
C1641 C 0.23509 0.38841 0.58544 0.0
C1642 C 0.22148 0.40188 0.60365 0.0
C1643 C 0.22229 0.3845 0.56158 0.0
C1644 C 0.19512 0.39317 0.55568 0.0
C1645 C 0.18172 0.40687 0.57367 0.0
C1646 C 0.1948 0.41129 0.59739 0.0
C1647 C 0.1814 0.38942 0.53058 0.0
C1648 C 0.1946 0.42129 0.51634 0.0
C1649 C 0.15342 0.3554 0.52141 0.0
C1650 C 0.13771 0.32106 0.53584 0.0
C1651 C 0.10131 0.30448 0.54412 0.0
C1652 C 0.08571 0.27097 0.55663 0.0
C1653 C 0.10632 0.25385 0.56098 0.0
C1654 C 0.14255 0.2702 0.55279 0.0
C1655 C 0.15816 0.30356 0.5401 0.0
H1656 H 0.09425 0.228 0.57077 0.0
H1657 H 0.22748 0.54229 0.43921 0.0
H1658 H 0.88467 0.24557 0.92196 0.0
H1659 H 0.86572 0.22824 0.87995 0.0
H1660 H 0.7542 0.19551 0.89914 0.0
H1661 H 0.77267 0.21197 0.94137 0.0
H1662 H 0.75482 0.14609 0.8697 0.0
H1663 H 0.80957 0.27727 0.86982 0.0
H1664 H 0.85788 0.3414 0.87793 0.0
H1665 H 0.9321 0.32804 0.8314 0.0
H1666 H 0.88438 0.26361 0.82329 0.0
H1667 H 0.75136 0.20137 0.73349 0.0
H1668 H 0.76073 0.21535 0.77671 0.0
H1669 H 0.77319 0.12046 0.78823 0.0
H1670 H 0.76272 0.10562 0.74506 0.0
H1671 H 0.81841 0.23481 0.80279 0.0
H1672 H 0.74984 0.08887 0.84593 0.0
H1673 H 0.69755 0.02654 0.83821 0.0
H1674 H 0.64274 0.07293 0.79848 0.0
H1675 H 0.69443 0.13554 0.80626 0.0
C1676 C 0.85612 0.23487 0.9173 0.0
C1677 C 0.83028 0.23046 0.93512 0.0
C1678 C 0.84533 0.225 0.8932 0.0
C1679 C 0.80859 0.21094 0.88629 0.0
C1680 C 0.7827 0.2063 0.90402 0.0
C1681 C 0.79339 0.21595 0.92817 0.0
C1682 C 0.79723 0.20119 0.86056 0.0
C1683 C 0.76869 0.16548 0.85506 0.0
C1684 C 0.81482 0.22668 0.84146 0.0
C1685 C 0.84349 0.26551 0.84612 0.0
C1686 C 0.83627 0.28793 0.86145 0.0
C1687 C 0.86354 0.32434 0.86603 0.0
C1688 C 0.89806 0.33876 0.85523 0.0
C1689 C 0.90535 0.31682 0.83977 0.0
C1690 C 0.8782 0.28036 0.83516 0.0
C1691 C 0.7556 0.18313 0.74524 0.0
C1692 C 0.75633 0.15236 0.73575 0.0
C1693 C 0.76111 0.19128 0.76998 0.0
C1694 C 0.76763 0.16898 0.78583 0.0
C1695 C 0.76763 0.13779 0.7765 0.0
C1696 C 0.76171 0.12936 0.75176 0.0
C1697 C 0.77622 0.17949 0.81182 0.0
C1698 C 0.80439 0.21537 0.81738 0.0
C1699 C 0.75769 0.1544 0.83098 0.0
C1700 C 0.7262 0.11688 0.82648 0.0
C1701 C 0.72656 0.08577 0.83564 0.0
C1702 C 0.69704 0.05039 0.83123 0.0
C1703 C 0.6669 0.04577 0.8178 0.0
C1704 C 0.66616 0.07654 0.80881 0.0
C1705 C 0.69558 0.11198 0.81319 0.0
H1706 H 0.64409 0.01836 0.81439 0.0
H1707 H 0.91914 0.36695 0.8588 0.0
H1708 H 0.66411 0.89545 0.2533 0.0
H1709 H 0.66484 0.88326 0.2099 0.0
H1710 H 0.55012 0.80063 0.21305 0.0
H1711 H 0.54929 0.81197 0.25655 0.0
H1712 H 0.64273 0.80772 0.19179 0.0
H1713 H 0.51627 0.81095 0.15595 0.0
H1714 H 0.48171 0.84291 0.1642 0.0
H1715 H 0.57945 0.9365 0.19171 0.0
H1716 H 0.61469 0.90535 0.18329 0.0
H1717 H 0.546 0.74824 0.06398 0.0
H1718 H 0.54761 0.76687 0.10623 0.0
H1719 H 0.66546 0.81501 0.10683 0.0
H1720 H 0.66341 0.79413 0.06521 0.0
H1721 H 0.57379 0.82832 0.12668 0.0
H1722 H 0.69881 0.81969 0.16246 0.0
H1723 H 0.72896 0.78298 0.15576 0.0
H1724 H 0.6272 0.69208 0.13054 0.0
H1725 H 0.59635 0.72807 0.13739 0.0
C1726 C 0.63884 0.87525 0.24466 0.0
C1727 C 0.60663 0.85465 0.25834 0.0
C1728 C 0.6394 0.86815 0.21993 0.0
C1729 C 0.60757 0.84102 0.20838 0.0
C1730 C 0.57492 0.82175 0.22168 0.0
C1731 C 0.5745 0.8283 0.24649 0.0
C1732 C 0.60889 0.83096 0.18282 0.0
C1733 C 0.6282 0.81271 0.17739 0.0
C1734 C 0.58879 0.83635 0.1644 0.0
C1735 C 0.56801 0.85562 0.16922 0.0
C1736 C 0.53041 0.8384 0.16367 0.0
C1737 C 0.5107 0.85637 0.16839 0.0
C1738 C 0.52835 0.89166 0.17855 0.0
C1739 C 0.56577 0.9091 0.18394 0.0
C1740 C 0.58561 0.89127 0.17924 0.0
C1741 C 0.5721 0.76218 0.07337 0.0
C1742 C 0.60449 0.76919 0.06155 0.0
C1743 C 0.57309 0.77308 0.09744 0.0
C1744 C 0.60659 0.79199 0.10999 0.0
C1745 C 0.63908 0.79947 0.09796 0.0
C1746 C 0.63794 0.78759 0.07412 0.0
C1747 C 0.6075 0.8046 0.13539 0.0
C1748 C 0.58853 0.82332 0.14091 0.0
C1749 C 0.62725 0.79884 0.15406 0.0
C1750 C 0.6454 0.77675 0.1502 0.0
C1751 C 0.68285 0.79182 0.15558 0.0
C1752 C 0.70006 0.77115 0.15174 0.0
C1753 C 0.68003 0.73527 0.14265 0.0
C1754 C 0.64271 0.71993 0.13749 0.0
C1755 C 0.62536 0.74046 0.14132 0.0
H1756 H 0.69342 0.71933 0.13966 0.0
H1757 H 0.51303 0.90551 0.1822 0.0
H1758 H 0.86153 0.64042 0.40516 0.0
H1759 H 0.84662 0.63683 0.44815 0.0
H1760 H 0.798 0.51835 0.44583 0.0
H1761 H 0.81012 0.52199 0.4021 0.0
H1762 H 0.75648 0.52969 0.47054 0.0
H1763 H 0.88537 0.58261 0.47557 0.0
H1764 H 0.95071 0.62512 0.46648 0.0
H1765 H 0.94112 0.71633 0.49261 0.0
H1766 H 0.87557 0.67446 0.50155 0.0
H1767 H 0.75873 0.5304 0.60314 0.0
H1768 H 0.7729 0.52542 0.56068 0.0
H1769 H 0.77464 0.62672 0.54414 0.0
H1770 H 0.75969 0.6316 0.58634 0.0
H1771 H 0.84142 0.61928 0.53116 0.0
H1772 H 0.70741 0.55858 0.5236 0.0
H1773 H 0.6452 0.51066 0.53601 0.0
H1774 H 0.67074 0.42634 0.5184 0.0
H1775 H 0.73326 0.47383 0.50611 0.0
C1776 C 0.84828 0.61373 0.41401 0.0
C1777 C 0.83737 0.58151 0.40058 0.0
C1778 C 0.83989 0.61163 0.43865 0.0
C1779 C 0.82185 0.57735 0.45062 0.0
C1780 C 0.81191 0.54516 0.43717 0.0
C1781 C 0.8191 0.54719 0.41228 0.0
C1782 C 0.81146 0.57511 0.47669 0.0
C1783 C 0.77547 0.54896 0.48377 0.0
C1784 C 0.83592 0.60005 0.49428 0.0
C1785 C 0.87544 0.62538 0.48906 0.0
C1786 C 0.89713 0.61176 0.47924 0.0
C1787 C 0.93422 0.63575 0.47413 0.0
C1788 C 0.95004 0.67341 0.47892 0.0
C1789 C 0.92882 0.68715 0.4889 0.0
C1790 C 0.8917 0.66329 0.49402 0.0
C1791 C 0.76154 0.55132 0.59038 0.0
C1792 C 0.75817 0.58146 0.59811 0.0
C1793 C 0.76968 0.54843 0.56619 0.0
C1794 C 0.77503 0.57586 0.54946 0.0
C1795 C 0.7707 0.60539 0.55691 0.0
C1796 C 0.76191 0.60797 0.58098 0.0
C1797 C 0.78674 0.57469 0.52439 0.0
C1798 C 0.82291 0.60003 0.51771 0.0
C1799 C 0.76299 0.54822 0.50748 0.0
C1800 C 0.72506 0.51974 0.51412 0.0
C1801 C 0.69981 0.52983 0.52248 0.0
C1802 C 0.66448 0.50274 0.52947 0.0
C1803 C 0.65405 0.46548 0.52804 0.0
C1804 C 0.67886 0.45521 0.5195 0.0
C1805 C 0.71421 0.48219 0.51248 0.0
H1806 H 0.62673 0.44455 0.53353 0.0
H1807 H 0.97876 0.69193 0.47494 0.0
H1808 H 0.11875 0.74928 0.92324 0.0
H1809 H 0.13691 0.76668 0.88106 0.0
H1810 H 0.24972 0.80463 0.89983 0.0
H1811 H 0.23205 0.78801 0.94211 0.0
H1812 H 0.2461 0.85277 0.87072 0.0
H1813 H 0.19783 0.72265 0.87072 0.0
H1814 H 0.1522 0.65753 0.87882 0.0
H1815 H 0.07478 0.66567 0.83237 0.0
H1816 H 0.1198 0.73104 0.82428 0.0
H1817 H 0.25128 0.79845 0.73429 0.0
H1818 H 0.24268 0.78445 0.77757 0.0
H1819 H 0.22768 0.87778 0.78932 0.0
H1820 H 0.23786 0.89282 0.74618 0.0
H1821 H 0.18594 0.76326 0.80376 0.0
H1822 H 0.24783 0.9086 0.84681 0.0
H1823 H 0.29797 0.97213 0.83914 0.0
H1824 H 0.35751 0.9305 0.79987 0.0
H1825 H 0.30797 0.86673 0.80758 0.0
C1826 C 0.14742 0.76116 0.91844 0.0
C1827 C 0.17388 0.76706 0.93615 0.0
C1828 C 0.15775 0.77106 0.89426 0.0
C1829 C 0.19466 0.7867 0.88723 0.0
C1830 C 0.22111 0.79267 0.90484 0.0
C1831 C 0.21086 0.78293 0.92901 0.0
C1832 C 0.20571 0.7969 0.86151 0.0
C1833 C 0.23299 0.83321 0.85605 0.0
C1834 C 0.18915 0.77122 0.84241 0.0
C1835 C 0.16208 0.73184 0.84708 0.0
C1836 C 0.17098 0.71063 0.86237 0.0
C1837 C 0.14524 0.67367 0.86694 0.0
C1838 C 0.11058 0.6575 0.85616 0.0
C1839 C 0.10163 0.67825 0.84073 0.0
C1840 C 0.12726 0.71525 0.83614 0.0
C1841 C 0.24679 0.81638 0.74616 0.0
C1842 C 0.24534 0.84681 0.7368 0.0
C1843 C 0.24168 0.80823 0.77091 0.0
C1844 C 0.23461 0.83006 0.78684 0.0
C1845 C 0.23381 0.86088 0.77758 0.0
C1846 C 0.23957 0.86945 0.75285 0.0
C1847 C 0.22621 0.81933 0.81282 0.0
C1848 C 0.19923 0.78289 0.81836 0.0
C1849 C 0.24377 0.84467 0.83201 0.0
C1850 C 0.27401 0.8829 0.8276 0.0
C1851 C 0.2717 0.913 0.83664 0.0
C1852 C 0.3 0.94905 0.83226 0.0
C1853 C 0.33085 0.95534 0.81897 0.0
C1854 C 0.33354 0.92559 0.81009 0.0
C1855 C 0.30534 0.88949 0.81444 0.0
H1856 H 0.3527 0.98327 0.81557 0.0
H1857 H 0.09068 0.62888 0.85972 0.0
H1858 H 0.33795 0.12156 0.25615 0.0
H1859 H 0.34131 0.13848 0.2135 0.0
H1860 H 0.45969 0.19449 0.21672 0.0
H1861 H 0.45624 0.17959 0.25989 0.0
H1862 H 0.4434 0.23633 0.19503 0.0
H1863 H 0.40231 0.10873 0.18452 0.0
H1864 H 0.36356 0.04171 0.19086 0.0
H1865 H 0.26975 0.04529 0.16404 0.0
H1866 H 0.30783 0.11244 0.15784 0.0
H1867 H 0.45805 0.24726 0.06328 0.0
H1868 H 0.45912 0.22977 0.10558 0.0
H1869 H 0.35179 0.21612 0.11697 0.0
H1870 H 0.35079 0.2345 0.075 0.0
H1871 H 0.36481 0.15242 0.12978 0.0
H1872 H 0.41047 0.2832 0.14205 0.0
H1873 H 0.45312 0.34915 0.13408 0.0
H1874 H 0.54411 0.33653 0.15565 0.0
H1875 H 0.50201 0.27032 0.16339 0.0
C1876 C 0.36464 0.1368 0.24759 0.0
C1877 C 0.39684 0.14908 0.26123 0.0
C1878 C 0.36659 0.14642 0.22314 0.0
C1879 C 0.40079 0.16744 0.21161 0.0
C1880 C 0.43296 0.17841 0.2251 0.0
C1881 C 0.43101 0.16967 0.24972 0.0
C1882 C 0.40304 0.18011 0.18607 0.0
C1883 C 0.42661 0.21766 0.18076 0.0
C1884 C 0.38089 0.15614 0.1673 0.0
C1885 C 0.35789 0.1157 0.17091 0.0
C1886 C 0.37336 0.09528 0.18013 0.0
C1887 C 0.35152 0.05725 0.18367 0.0
C1888 C 0.3142 0.03927 0.17791 0.0
C1889 C 0.29866 0.05926 0.16852 0.0
C1890 C 0.32037 0.0973 0.16496 0.0
C1891 C 0.43493 0.24114 0.0749 0.0
C1892 C 0.40434 0.24233 0.06578 0.0
C1893 C 0.43557 0.23108 0.099 0.0
C1894 C 0.40543 0.22148 0.11423 0.0
C1895 C 0.37523 0.22336 0.10539 0.0
C1896 C 0.37487 0.23414 0.08146 0.0
C1897 C 0.40482 0.2082 0.13916 0.0
C1898 C 0.38163 0.17068 0.14421 0.0
C1899 C 0.4279 0.23192 0.15752 0.0
C1900 C 0.45315 0.27174 0.15302 0.0
C1901 C 0.43961 0.29441 0.14486 0.0
C1902 C 0.46367 0.33185 0.14044 0.0
C1903 C 0.50132 0.347 0.14428 0.0
C1904 C 0.51496 0.32475 0.15263 0.0
C1905 C 0.491 0.28727 0.15706 0.0
H1906 H 0.5199 0.376 0.14085 0.0
H1907 H 0.29733 0.00983 0.18068 0.0
loop_
_geom_bond_atom_site_label_1
_geom_bond_atom_site_label_2
_geom_bond_distance
_geom_bond_site_symmetry_2
_ccdc_geom_bond_type
Co0 O2 2.143 . S
Co0 O8 2.074 . S
Co0 O11 2.093 . S
Co0 O24 2.097 . S
Co0 N41 2.151 . S
Co0 N49 2.214 . S
Co1 O2 2.160 . S
Co1 O7 2.058 . S
Co1 O17 2.057 . S
Co1 O32 2.037 . S
Co1 N36 2.145 . S
Co1 N57 2.257 . S
O2 Co0 2.143 . S
O2 Co1 2.160 . S
C3 O4 1.278 . S
C3 O11 1.224 . S
O4 C3 1.278 . S
C5 O6 1.245 . S
C5 O17 1.232 . S
O6 C5 1.245 . S
O7 Co1 2.058 . S
O7 C33 1.269 . S
O8 Co0 2.074 . S
O8 C33 1.257 . S
H9 C34 0.930 . S
H10 C40 0.930 . S
O11 Co0 2.093 . S
O11 C3 1.224 . S
H12 C44 0.929 . S
H13 C46 0.930 . S
H14 C47 0.930 . S
H15 C45 0.929 . S
H16 C48 0.928 . S
O17 Co1 2.057 . S
O17 C5 1.232 . S
H18 C37 0.929 . S
H19 C38 0.929 . S
H20 C50 0.931 . S
H21 C42 0.929 . S
H22 C51 0.930 . S
H23 C43 0.931 . S
O24 Co0 2.097 . S
O24 C52 1.214 . S
H25 C53 0.929 . S
H26 C54 0.929 . S
H27 C55 0.930 . S
H28 C56 0.929 . S
H29 C58 0.930 . S
H30 C35 0.930 . S
H31 C39 0.930 . S
O32 Co1 2.037 . S
O32 C52 1.234 . S
C33 O7 1.269 . S
C33 O8 1.257 . S
C34 H9 0.930 . S
C34 C37 1.388 1_655 S
C34 C39 1.418 . S
C35 H30 0.930 . S
C35 C38 1.404 . S
C35 C39 1.353 . S
N36 Co1 2.145 . S
N36 C37 1.397 . S
N36 C38 1.334 1_455 S
C37 H18 0.929 . S
C37 C34 1.388 1_455 S
C37 N36 1.397 . S
C38 H19 0.929 . S
C38 C35 1.404 . S
C38 N36 1.334 1_655 S
C39 H31 0.930 . S
C39 C34 1.418 . S
C39 C35 1.353 . S
C40 H10 0.930 . S
C40 N41 1.330 . S
C40 C42 1.446 . S
N41 Co0 2.151 . S
N41 C40 1.330 . S
N41 C45 1.418 . S
C42 H21 0.929 . S
C42 C40 1.446 . S
C42 C43 1.332 . S
C43 H23 0.931 . S
C43 C42 1.332 . S
C43 C44 1.267 . S
C44 H12 0.929 . S
C44 C43 1.267 . S
C44 C45 1.251 . S
C45 H15 0.929 . S
C45 N41 1.418 . S
C45 C44 1.251 . S
C46 H13 0.930 . S
C46 C48 1.406 . S
C46 C51 1.261 . S
C47 H14 0.930 . S
C47 N49 1.325 . S
C47 C50 1.357 . S
C48 H16 0.928 . S
C48 C46 1.406 . S
C48 N49 1.261 . S
N49 Co0 2.214 . S
N49 C47 1.325 . S
N49 C48 1.261 . S
C50 H20 0.931 . S
C50 C47 1.357 . S
C50 C51 1.312 . S
C51 H22 0.930 . S
C51 C46 1.261 . S
C51 C50 1.312 . S
C52 O24 1.214 . S
C52 O32 1.234 . S
C53 H25 0.929 . S
C53 C56 1.391 . S
C53 C58 1.391 . S
C54 H26 0.929 . S
C54 C55 1.390 . S
C54 N57 1.391 . S
C55 H27 0.930 . S
C55 C54 1.390 . S
C55 C56 1.392 . S
C56 H28 0.929 . S
C56 C53 1.391 . S
C56 C55 1.392 . S
N57 Co1 2.257 . S
N57 C54 1.391 . S
N57 C58 1.388 . S
C58 H29 0.930 . S
C58 C53 1.391 . S
C58 N57 1.388 . S
Co59 O61 2.143 . S
Co59 O67 2.074 . S
Co59 O70 2.093 . S
Co59 O83 2.097 . S
Co59 N100 2.151 . S
Co59 N108 2.214 . S
Co60 O61 2.160 . S
Co60 O66 2.058 . S
Co60 O76 2.057 . S
Co60 O91 2.037 . S
Co60 N95 2.145 . S
Co60 N116 2.257 . S
O61 Co59 2.143 . S
O61 Co60 2.160 . S
C62 O63 1.278 . S
C62 O70 1.224 . S
O63 C62 1.278 . S
C64 O65 1.245 . S
C64 O76 1.232 . S
O65 C64 1.245 . S
O66 Co60 2.058 . S
O66 C92 1.269 . S
O67 Co59 2.074 . S
O67 C92 1.257 . S
H68 C93 0.930 . S
H69 C99 0.930 . S
O70 Co59 2.093 . S
O70 C62 1.224 . S
H71 C103 0.929 . S
H72 C105 0.930 . S
H73 C106 0.930 . S
H74 C104 0.929 . S
H75 C107 0.928 . S
O76 Co60 2.057 . S
O76 C64 1.232 . S
H77 C96 0.929 . S
H78 C97 0.929 . S
H79 C109 0.931 . S
H80 C101 0.929 . S
H81 C110 0.930 . S
H82 C102 0.931 . S
O83 Co59 2.097 . S
O83 C111 1.214 . S
H84 C112 0.929 . S
H85 C113 0.929 . S
H86 C114 0.930 . S
H87 C115 0.929 . S
H88 C117 0.930 . S
H89 C94 0.930 . S
H90 C98 0.930 . S
O91 Co60 2.037 . S
O91 C111 1.234 . S
C92 O66 1.269 . S
C92 O67 1.257 . S
C93 H68 0.930 . S
C93 C96 1.388 1_565 S
C93 C98 1.418 . S
C94 H89 0.930 . S
C94 C97 1.404 . S
C94 C98 1.353 . S
N95 Co60 2.145 . S
N95 C96 1.397 . S
N95 C97 1.334 1_545 S
C96 H77 0.929 . S
C96 C93 1.388 1_545 S
C96 N95 1.397 . S
C97 H78 0.929 . S
C97 C94 1.404 . S
C97 N95 1.334 1_565 S
C98 H90 0.930 . S
C98 C93 1.418 . S
C98 C94 1.353 . S
C99 H69 0.930 . S
C99 N100 1.330 . S
C99 C101 1.446 . S
N100 Co59 2.151 . S
N100 C99 1.330 . S
N100 C104 1.418 . S
C101 H80 0.929 . S
C101 C99 1.446 . S
C101 C102 1.332 . S
C102 H82 0.931 . S
C102 C101 1.332 . S
C102 C103 1.267 . S
C103 H71 0.929 . S
C103 C102 1.267 . S
C103 C104 1.251 . S
C104 H74 0.929 . S
C104 N100 1.418 . S
C104 C103 1.251 . S
C105 H72 0.930 . S
C105 C107 1.406 . S
C105 C110 1.261 . S
C106 H73 0.930 . S
C106 N108 1.325 . S
C106 C109 1.357 . S
C107 H75 0.928 . S
C107 C105 1.406 . S
C107 N108 1.261 . S
N108 Co59 2.214 . S
N108 C106 1.325 . S
N108 C107 1.261 . S
C109 H79 0.931 . S
C109 C106 1.357 . S
C109 C110 1.312 . S
C110 H81 0.930 . S
C110 C105 1.261 . S
C110 C109 1.312 . S
C111 O83 1.214 . S
C111 O91 1.234 . S
C112 H84 0.929 . S
C112 C115 1.391 . S
C112 C117 1.391 . S
C113 H85 0.929 . S
C113 C114 1.390 . S
C113 N116 1.391 . S
C114 H86 0.930 . S
C114 C113 1.390 . S
C114 C115 1.392 . S
C115 H87 0.929 . S
C115 C112 1.391 . S
C115 C114 1.392 . S
N116 Co60 2.257 . S
N116 C113 1.391 . S
N116 C117 1.388 . S
C117 H88 0.930 . S
C117 C112 1.391 . S
C117 N116 1.388 . S
Co118 O120 2.143 1_554 S
Co118 O126 2.074 . S
Co118 O129 2.093 1_554 S
Co118 O142 2.097 1_554 S
Co118 N159 2.151 . S
Co118 N167 2.214 . S
Co119 O120 2.160 1_554 S
Co119 O125 2.058 . S
Co119 O135 2.057 . S
Co119 O150 2.037 . S
Co119 N154 2.145 . S
Co119 N175 2.257 1_554 S
O120 Co118 2.143 1_556 S
O120 Co119 2.160 1_556 S
C121 O122 1.278 . S
C121 O129 1.224 . S
O122 C121 1.278 . S
C123 O124 1.245 . S
C123 O135 1.232 1_556 S
O124 C123 1.245 . S
O125 Co119 2.058 . S
O125 C151 1.269 . S
O126 Co118 2.074 . S
O126 C151 1.257 . S
H127 C152 0.930 . S
H128 C158 0.930 . S
O129 Co118 2.093 1_556 S
O129 C121 1.224 . S
H130 C162 0.929 . S
H131 C164 0.930 . S
H132 C165 0.930 . S
H133 C163 0.929 . S
H134 C166 0.928 1_556 S
O135 Co119 2.057 . S
O135 C123 1.232 1_554 S
H136 C155 0.929 . S
H137 C156 0.929 . S
H138 C168 0.931 . S
H139 C160 0.929 1_556 S
H140 C169 0.930 . S
H141 C161 0.931 . S
O142 Co118 2.097 1_556 S
O142 C170 1.217 . S
H143 C171 0.929 . S
H144 C172 0.929 . S
H145 C173 0.930 . S
H146 C174 0.929 . S
H147 C176 0.930 . S
H148 C153 0.930 . S
H149 C157 0.930 . S
O150 Co119 2.037 . S
O150 C170 1.231 1_554 S
C151 O125 1.269 . S
C151 O126 1.257 . S
C152 H127 0.930 . S
C152 C155 1.388 . S
C152 C157 1.418 . S
C153 H148 0.930 . S
C153 C156 1.404 . S
C153 C157 1.353 . S
N154 Co119 2.145 . S
N154 C155 1.397 . S
N154 C156 1.334 . S
C155 H136 0.929 . S
C155 C152 1.388 . S
C155 N154 1.397 . S
C156 H137 0.929 . S
C156 C153 1.404 . S
C156 N154 1.334 . S
C157 H149 0.930 . S
C157 C152 1.418 . S
C157 C153 1.353 . S
C158 H128 0.930 . S
C158 N159 1.330 1_556 S
C158 C160 1.446 1_556 S
N159 Co118 2.151 . S
N159 C158 1.330 1_554 S
N159 C163 1.418 . S
C160 H139 0.929 1_554 S
C160 C158 1.446 1_554 S
C160 C161 1.332 . S
C161 H141 0.931 . S
C161 C160 1.332 . S
C161 C162 1.267 . S
C162 H130 0.929 . S
C162 C161 1.267 . S
C162 C163 1.251 . S
C163 H133 0.929 . S
C163 N159 1.418 . S
C163 C162 1.251 . S
C164 H131 0.930 . S
C164 C166 1.406 . S
C164 C169 1.261 . S
C165 H132 0.930 . S
C165 N167 1.325 . S
C165 C168 1.357 . S
C166 H134 0.928 1_554 S
C166 C164 1.406 . S
C166 N167 1.261 . S
N167 Co118 2.214 . S
N167 C165 1.325 . S
N167 C166 1.261 . S
C168 H138 0.931 . S
C168 C165 1.357 . S
C168 C169 1.312 . S
C169 H140 0.930 . S
C169 C164 1.261 . S
C169 C168 1.312 . S
C170 O142 1.217 . S
C170 O150 1.231 1_556 S
C171 H143 0.929 . S
C171 C174 1.391 . S
C171 C176 1.391 . S
C172 H144 0.929 . S
C172 C173 1.390 . S
C172 N175 1.391 . S
C173 H145 0.930 . S
C173 C172 1.390 . S
C173 C174 1.392 . S
C174 H146 0.929 . S
C174 C171 1.391 . S
C174 C173 1.392 . S
N175 Co119 2.257 1_556 S
N175 C172 1.391 . S
N175 C176 1.388 . S
C176 H147 0.930 . S
C176 C171 1.391 . S
C176 N175 1.388 . S
Co177 O179 2.143 . S
Co177 O185 2.074 . S
Co177 O188 2.093 . S
Co177 O201 2.097 . S
Co177 N218 2.151 . S
Co177 N226 2.214 . S
Co178 O179 2.160 . S
Co178 O184 2.058 . S
Co178 O194 2.057 . S
Co178 O209 2.037 . S
Co178 N213 2.145 . S
Co178 N234 2.257 . S
O179 Co177 2.143 . S
O179 Co178 2.160 . S
C180 O181 1.278 . S
C180 O188 1.224 . S
O181 C180 1.278 . S
C182 O183 1.245 . S
C182 O194 1.232 . S
O183 C182 1.245 . S
O184 Co178 2.058 . S
O184 C210 1.269 . S
O185 Co177 2.074 . S
O185 C210 1.257 . S
H186 C211 0.930 . S
H187 C217 0.930 . S
O188 Co177 2.093 . S
O188 C180 1.224 . S
H189 C221 0.929 . S
H190 C223 0.930 . S
H191 C224 0.930 . S
H192 C222 0.929 . S
H193 C225 0.928 . S
O194 Co178 2.057 . S
O194 C182 1.232 . S
H195 C214 0.929 . S
H196 C215 0.929 . S
H197 C227 0.931 . S
H198 C219 0.929 . S
H199 C228 0.930 . S
H200 C220 0.931 . S
O201 Co177 2.097 . S
O201 C229 1.214 . S
H202 C230 0.929 . S
H203 C231 0.929 . S
H204 C232 0.930 . S
H205 C233 0.929 . S
H206 C235 0.930 . S
H207 C212 0.930 . S
H208 C216 0.930 . S
O209 Co178 2.037 . S
O209 C229 1.234 . S
C210 O184 1.269 . S
C210 O185 1.257 . S
C211 H186 0.930 . S
C211 C214 1.388 1_455 S
C211 C216 1.418 . S
C212 H207 0.930 . S
C212 C215 1.404 . S
C212 C216 1.353 . S
N213 Co178 2.145 . S
N213 C214 1.397 . S
N213 C215 1.334 1_655 S
C214 H195 0.929 . S
C214 C211 1.388 1_655 S
C214 N213 1.397 . S
C215 H196 0.929 . S
C215 C212 1.404 . S
C215 N213 1.334 1_455 S
C216 H208 0.930 . S
C216 C211 1.418 . S
C216 C212 1.353 . S
C217 H187 0.930 . S
C217 N218 1.330 . S
C217 C219 1.446 . S
N218 Co177 2.151 . S
N218 C217 1.330 . S
N218 C222 1.418 . S
C219 H198 0.929 . S
C219 C217 1.446 . S
C219 C220 1.332 . S
C220 H200 0.931 . S
C220 C219 1.332 . S
C220 C221 1.267 . S
C221 H189 0.929 . S
C221 C220 1.267 . S
C221 C222 1.251 . S
C222 H192 0.929 . S
C222 N218 1.418 . S
C222 C221 1.251 . S
C223 H190 0.930 . S
C223 C225 1.406 . S
C223 C228 1.261 . S
C224 H191 0.930 . S
C224 N226 1.325 . S
C224 C227 1.357 . S
C225 H193 0.928 . S
C225 C223 1.406 . S
C225 N226 1.261 . S
N226 Co177 2.214 . S
N226 C224 1.325 . S
N226 C225 1.261 . S
C227 H197 0.931 . S
C227 C224 1.357 . S
C227 C228 1.312 . S
C228 H199 0.930 . S
C228 C223 1.261 . S
C228 C227 1.312 . S
C229 O201 1.214 . S
C229 O209 1.234 . S
C230 H202 0.929 . S
C230 C233 1.391 . S
C230 C235 1.391 . S
C231 H203 0.929 . S
C231 C232 1.390 . S
C231 N234 1.391 . S
C232 H204 0.930 . S
C232 C231 1.390 . S
C232 C233 1.392 . S
C233 H205 0.929 . S
C233 C230 1.391 . S
C233 C232 1.392 . S
N234 Co178 2.257 . S
N234 C231 1.391 . S
N234 C235 1.388 . S
C235 H206 0.930 . S
C235 C230 1.391 . S
C235 N234 1.388 . S
Co236 O238 2.143 . S
Co236 O244 2.074 . S
Co236 O247 2.093 . S
Co236 O260 2.097 . S
Co236 N277 2.151 . S
Co236 N285 2.214 . S
Co237 O238 2.160 . S
Co237 O243 2.058 . S
Co237 O253 2.057 . S
Co237 O268 2.037 . S
Co237 N272 2.145 . S
Co237 N293 2.257 . S
O238 Co236 2.143 . S
O238 Co237 2.160 . S
C239 O240 1.278 . S
C239 O247 1.224 . S
O240 C239 1.278 . S
C241 O242 1.245 . S
C241 O253 1.232 . S
O242 C241 1.245 . S
O243 Co237 2.058 . S
O243 C269 1.269 . S
O244 Co236 2.074 . S
O244 C269 1.257 . S
H245 C270 0.930 . S
H246 C276 0.930 . S
O247 Co236 2.093 . S
O247 C239 1.224 . S
H248 C280 0.929 . S
H249 C282 0.930 . S
H250 C283 0.930 . S
H251 C281 0.929 . S
H252 C284 0.928 . S
O253 Co237 2.057 . S
O253 C241 1.232 . S
H254 C273 0.929 . S
H255 C274 0.929 . S
H256 C286 0.931 . S
H257 C278 0.929 . S
H258 C287 0.930 . S
H259 C279 0.931 . S
O260 Co236 2.097 . S
O260 C288 1.214 . S
H261 C289 0.929 . S
H262 C290 0.929 . S
H263 C291 0.930 . S
H264 C292 0.929 . S
H265 C294 0.930 . S
H266 C271 0.930 . S
H267 C275 0.930 . S
O268 Co237 2.037 . S
O268 C288 1.234 . S
C269 O243 1.269 . S
C269 O244 1.257 . S
C270 H245 0.930 . S
C270 C273 1.388 1_545 S
C270 C275 1.418 . S
C271 H266 0.930 . S
C271 C274 1.404 . S
C271 C275 1.353 . S
N272 Co237 2.145 . S
N272 C273 1.397 . S
N272 C274 1.334 1_565 S
C273 H254 0.929 . S
C273 C270 1.388 1_565 S
C273 N272 1.397 . S
C274 H255 0.929 . S
C274 C271 1.404 . S
C274 N272 1.334 1_545 S
C275 H267 0.930 . S
C275 C270 1.418 . S
C275 C271 1.353 . S
C276 H246 0.930 . S
C276 N277 1.330 . S
C276 C278 1.446 . S
N277 Co236 2.151 . S
N277 C276 1.330 . S
N277 C281 1.418 . S
C278 H257 0.929 . S
C278 C276 1.446 . S
C278 C279 1.332 . S
C279 H259 0.931 . S
C279 C278 1.332 . S
C279 C280 1.267 . S
C280 H248 0.929 . S
C280 C279 1.267 . S
C280 C281 1.251 . S
C281 H251 0.929 . S
C281 N277 1.418 . S
C281 C280 1.251 . S
C282 H249 0.930 . S
C282 C284 1.406 . S
C282 C287 1.261 . S
C283 H250 0.930 . S
C283 N285 1.325 . S
C283 C286 1.357 . S
C284 H252 0.928 . S
C284 C282 1.406 . S
C284 N285 1.261 . S
N285 Co236 2.214 . S
N285 C283 1.325 . S
N285 C284 1.261 . S
C286 H256 0.931 . S
C286 C283 1.357 . S
C286 C287 1.312 . S
C287 H258 0.930 . S
C287 C282 1.261 . S
C287 C286 1.312 . S
C288 O260 1.214 . S
C288 O268 1.234 . S
C289 H261 0.929 . S
C289 C292 1.391 . S
C289 C294 1.391 . S
C290 H262 0.929 . S
C290 C291 1.390 . S
C290 N293 1.391 . S
C291 H263 0.930 . S
C291 C290 1.390 . S
C291 C292 1.392 . S
C292 H264 0.929 . S
C292 C289 1.391 . S
C292 C291 1.392 . S
N293 Co237 2.257 . S
N293 C290 1.391 . S
N293 C294 1.388 . S
C294 H265 0.930 . S
C294 C289 1.391 . S
C294 N293 1.388 . S
Co295 O297 2.143 1_554 S
Co295 O303 2.074 . S
Co295 O306 2.093 1_554 S
Co295 O319 2.097 1_554 S
Co295 N336 2.151 . S
Co295 N344 2.214 . S
Co296 O297 2.160 1_554 S
Co296 O302 2.058 . S
Co296 O312 2.057 . S
Co296 O327 2.037 . S
Co296 N331 2.145 . S
Co296 N352 2.257 1_554 S
O297 Co295 2.143 1_556 S
O297 Co296 2.160 1_556 S
C298 O299 1.278 . S
C298 O306 1.224 . S
O299 C298 1.278 . S
C300 O301 1.245 . S
C300 O312 1.232 1_556 S
O301 C300 1.245 . S
O302 Co296 2.058 . S
O302 C328 1.269 . S
O303 Co295 2.074 . S
O303 C328 1.257 . S
H304 C329 0.930 . S
H305 C335 0.930 . S
O306 Co295 2.093 1_556 S
O306 C298 1.224 . S
H307 C339 0.929 . S
H308 C341 0.930 . S
H309 C342 0.930 . S
H310 C340 0.929 . S
H311 C343 0.928 1_556 S
O312 Co296 2.057 . S
O312 C300 1.232 1_554 S
H313 C332 0.929 . S
H314 C333 0.929 . S
H315 C345 0.931 . S
H316 C337 0.929 1_556 S
H317 C346 0.930 . S
H318 C338 0.931 . S
O319 Co295 2.097 1_556 S
O319 C347 1.217 . S
H320 C348 0.929 . S
H321 C349 0.929 . S
H322 C350 0.930 . S
H323 C351 0.929 . S
H324 C353 0.930 . S
H325 C330 0.930 . S
H326 C334 0.930 . S
O327 Co296 2.037 . S
O327 C347 1.231 1_554 S
C328 O302 1.269 . S
C328 O303 1.257 . S
C329 H304 0.930 . S
C329 C332 1.388 . S
C329 C334 1.418 . S
C330 H325 0.930 . S
C330 C333 1.404 . S
C330 C334 1.353 . S
N331 Co296 2.145 . S
N331 C332 1.397 . S
N331 C333 1.334 . S
C332 H313 0.929 . S
C332 C329 1.388 . S
C332 N331 1.397 . S
C333 H314 0.929 . S
C333 C330 1.404 . S
C333 N331 1.334 . S
C334 H326 0.930 . S
C334 C329 1.418 . S
C334 C330 1.353 . S
C335 H305 0.930 . S
C335 N336 1.330 1_556 S
C335 C337 1.446 1_556 S
N336 Co295 2.151 . S
N336 C335 1.330 1_554 S
N336 C340 1.418 . S
C337 H316 0.929 1_554 S
C337 C335 1.446 1_554 S
C337 C338 1.332 . S
C338 H318 0.931 . S
C338 C337 1.332 . S
C338 C339 1.267 . S
C339 H307 0.929 . S
C339 C338 1.267 . S
C339 C340 1.251 . S
C340 H310 0.929 . S
C340 N336 1.418 . S
C340 C339 1.251 . S
C341 H308 0.930 . S
C341 C343 1.406 . S
C341 C346 1.261 . S
C342 H309 0.930 . S
C342 N344 1.325 . S
C342 C345 1.357 . S
C343 H311 0.928 1_554 S
C343 C341 1.406 . S
C343 N344 1.261 . S
N344 Co295 2.214 . S
N344 C342 1.325 . S
N344 C343 1.261 . S
C345 H315 0.931 . S
C345 C342 1.357 . S
C345 C346 1.312 . S
C346 H317 0.930 . S
C346 C341 1.261 . S
C346 C345 1.312 . S
C347 O319 1.217 . S
C347 O327 1.231 1_556 S
C348 H320 0.929 . S
C348 C351 1.391 . S
C348 C353 1.391 . S
C349 H321 0.929 . S
C349 C350 1.390 . S
C349 N352 1.391 . S
C350 H322 0.930 . S
C350 C349 1.390 . S
C350 C351 1.392 . S
C351 H323 0.929 . S
C351 C348 1.391 . S
C351 C350 1.392 . S
N352 Co296 2.257 1_556 S
N352 C349 1.391 . S
N352 C353 1.388 . S
C353 H324 0.930 . S
C353 C348 1.391 . S
C353 N352 1.388 . S
Co354 O356 2.143 . S
Co354 O362 2.074 . S
Co354 O365 2.093 . S
Co354 O378 2.097 . S
Co354 N395 2.151 . S
Co354 N403 2.214 . S
Co355 O356 2.160 . S
Co355 O361 2.058 . S
Co355 O371 2.057 . S
Co355 O386 2.037 . S
Co355 N390 2.145 . S
Co355 N411 2.257 . S
O356 Co354 2.143 . S
O356 Co355 2.160 . S
C357 O358 1.278 . S
C357 O365 1.224 . S
O358 C357 1.278 . S
C359 O360 1.245 . S
C359 O371 1.232 . S
O360 C359 1.245 . S
O361 Co355 2.058 . S
O361 C387 1.269 . S
O362 Co354 2.074 . S
O362 C387 1.257 . S
H363 C388 0.930 . S
H364 C394 0.930 . S
O365 Co354 2.093 . S
O365 C357 1.224 . S
H366 C398 0.929 . S
H367 C400 0.930 . S
H368 C401 0.930 . S
H369 C399 0.929 . S
H370 C402 0.928 . S
O371 Co355 2.057 . S
O371 C359 1.232 . S
H372 C391 0.929 . S
H373 C392 0.929 . S
H374 C404 0.931 . S
H375 C396 0.929 . S
H376 C405 0.930 . S
H377 C397 0.931 . S
O378 Co354 2.097 . S
O378 C406 1.214 . S
H379 C407 0.929 . S
H380 C408 0.929 . S
H381 C409 0.930 . S
H382 C410 0.929 . S
H383 C412 0.930 . S
H384 C389 0.930 . S
H385 C393 0.930 . S
O386 Co355 2.037 . S
O386 C406 1.234 . S
C387 O361 1.269 . S
C387 O362 1.257 . S
C388 H363 0.930 . S
C388 C391 1.388 1_545 S
C388 C393 1.418 . S
C389 H384 0.930 . S
C389 C392 1.404 . S
C389 C393 1.353 . S
N390 Co355 2.145 . S
N390 C391 1.397 . S
N390 C392 1.334 1_565 S
C391 H372 0.929 . S
C391 C388 1.388 1_565 S
C391 N390 1.397 . S
C392 H373 0.929 . S
C392 C389 1.404 . S
C392 N390 1.334 1_545 S
C393 H385 0.930 . S
C393 C388 1.418 . S
C393 C389 1.353 . S
C394 H364 0.930 . S
C394 N395 1.330 . S
C394 C396 1.446 . S
N395 Co354 2.151 . S
N395 C394 1.330 . S
N395 C399 1.418 . S
C396 H375 0.929 . S
C396 C394 1.446 . S
C396 C397 1.332 . S
C397 H377 0.931 . S
C397 C396 1.332 . S
C397 C398 1.267 . S
C398 H366 0.929 . S
C398 C397 1.267 . S
C398 C399 1.251 . S
C399 H369 0.929 . S
C399 N395 1.418 . S
C399 C398 1.251 . S
C400 H367 0.930 . S
C400 C402 1.406 . S
C400 C405 1.261 . S
C401 H368 0.930 . S
C401 N403 1.325 . S
C401 C404 1.357 . S
C402 H370 0.928 . S
C402 C400 1.406 . S
C402 N403 1.261 . S
N403 Co354 2.214 . S
N403 C401 1.325 . S
N403 C402 1.261 . S
C404 H374 0.931 . S
C404 C401 1.357 . S
C404 C405 1.312 . S
C405 H376 0.930 . S
C405 C400 1.261 . S
C405 C404 1.312 . S
C406 O378 1.214 . S
C406 O386 1.234 . S
C407 H379 0.929 . S
C407 C410 1.391 . S
C407 C412 1.391 . S
C408 H380 0.929 . S
C408 C409 1.390 . S
C408 N411 1.391 . S
C409 H381 0.930 . S
C409 C408 1.390 . S
C409 C410 1.392 . S
C410 H382 0.929 . S
C410 C407 1.391 . S
C410 C409 1.392 . S
N411 Co355 2.257 . S
N411 C408 1.391 . S
N411 C412 1.388 . S
C412 H383 0.930 . S
C412 C407 1.391 . S
C412 N411 1.388 . S
Co413 O415 2.143 . S
Co413 O421 2.074 . S
Co413 O424 2.093 . S
Co413 O437 2.097 . S
Co413 N454 2.151 . S
Co413 N462 2.214 . S
Co414 O415 2.160 . S
Co414 O420 2.058 . S
Co414 O430 2.057 . S
Co414 O445 2.037 . S
Co414 N449 2.145 . S
Co414 N470 2.257 . S
O415 Co413 2.143 . S
O415 Co414 2.160 . S
C416 O417 1.278 . S
C416 O424 1.224 . S
O417 C416 1.278 . S
C418 O419 1.245 . S
C418 O430 1.232 . S
O419 C418 1.245 . S
O420 Co414 2.058 . S
O420 C446 1.269 . S
O421 Co413 2.074 . S
O421 C446 1.257 . S
H422 C447 0.930 . S
H423 C453 0.930 . S
O424 Co413 2.093 . S
O424 C416 1.224 . S
H425 C457 0.929 . S
H426 C459 0.930 . S
H427 C460 0.930 . S
H428 C458 0.929 . S
H429 C461 0.928 . S
O430 Co414 2.057 . S
O430 C418 1.232 . S
H431 C450 0.929 . S
H432 C451 0.929 . S
H433 C463 0.931 . S
H434 C455 0.929 . S
H435 C464 0.930 . S
H436 C456 0.931 . S
O437 Co413 2.097 . S
O437 C465 1.214 . S
H438 C466 0.929 . S
H439 C467 0.929 . S
H440 C468 0.930 . S
H441 C469 0.929 . S
H442 C471 0.930 . S
H443 C448 0.930 . S
H444 C452 0.930 . S
O445 Co414 2.037 . S
O445 C465 1.234 . S
C446 O420 1.269 . S
C446 O421 1.257 . S
C447 H422 0.930 . S
C447 C450 1.388 . S
C447 C452 1.418 . S
C448 H443 0.930 . S
C448 C451 1.404 . S
C448 C452 1.353 . S
N449 Co414 2.145 . S
N449 C450 1.397 . S
N449 C451 1.334 . S
C450 H431 0.929 . S
C450 C447 1.388 . S
C450 N449 1.397 . S
C451 H432 0.929 . S
C451 C448 1.404 . S
C451 N449 1.334 . S
C452 H444 0.930 . S
C452 C447 1.418 . S
C452 C448 1.353 . S
C453 H423 0.930 . S
C453 N454 1.330 . S
C453 C455 1.446 . S
N454 Co413 2.151 . S
N454 C453 1.330 . S
N454 C458 1.418 . S
C455 H434 0.929 . S
C455 C453 1.446 . S
C455 C456 1.332 . S
C456 H436 0.931 . S
C456 C455 1.332 . S
C456 C457 1.267 . S
C457 H425 0.929 . S
C457 C456 1.267 . S
C457 C458 1.251 . S
C458 H428 0.929 . S
C458 N454 1.418 . S
C458 C457 1.251 . S
C459 H426 0.930 . S
C459 C461 1.406 . S
C459 C464 1.261 . S
C460 H427 0.930 . S
C460 N462 1.325 . S
C460 C463 1.357 . S
C461 H429 0.928 . S
C461 C459 1.406 . S
C461 N462 1.261 . S
N462 Co413 2.214 . S
N462 C460 1.325 . S
N462 C461 1.261 . S
C463 H433 0.931 . S
C463 C460 1.357 . S
C463 C464 1.312 . S
C464 H435 0.930 . S
C464 C459 1.261 . S
C464 C463 1.312 . S
C465 O437 1.214 . S
C465 O445 1.234 . S
C466 H438 0.929 . S
C466 C469 1.391 . S
C466 C471 1.391 . S
C467 H439 0.929 . S
C467 C468 1.390 . S
C467 N470 1.391 . S
C468 H440 0.930 . S
C468 C467 1.390 . S
C468 C469 1.392 . S
C469 H441 0.929 . S
C469 C466 1.391 . S
C469 C468 1.392 . S
N470 Co414 2.257 . S
N470 C467 1.391 . S
N470 C471 1.388 . S
C471 H442 0.930 . S
C471 C466 1.391 . S
C471 N470 1.388 . S
Co472 O474 2.143 1_556 S
Co472 O480 2.074 . S
Co472 O483 2.093 1_556 S
Co472 O496 2.097 1_556 S
Co472 N513 2.151 . S
Co472 N521 2.214 . S
Co473 O474 2.160 1_556 S
Co473 O479 2.058 . S
Co473 O489 2.057 . S
Co473 O504 2.037 . S
Co473 N508 2.145 . S
Co473 N529 2.257 1_556 S
O474 Co472 2.143 1_554 S
O474 Co473 2.160 1_554 S
C475 O476 1.278 . S
C475 O483 1.224 . S
O476 C475 1.278 . S
C477 O478 1.245 . S
C477 O489 1.232 1_554 S
O478 C477 1.245 . S
O479 Co473 2.058 . S
O479 C505 1.269 . S
O480 Co472 2.074 . S
O480 C505 1.257 . S
H481 C506 0.930 . S
H482 C512 0.930 . S
O483 Co472 2.093 1_554 S
O483 C475 1.224 . S
H484 C516 0.934 . S
H485 C518 0.930 . S
H486 C519 0.930 . S
H487 C517 0.929 . S
H488 C520 0.928 1_554 S
O489 Co473 2.057 . S
O489 C477 1.232 1_556 S
H490 C509 0.929 . S
H491 C510 0.929 . S
H492 C522 0.931 . S
H493 C514 0.929 1_554 S
H494 C523 0.930 . S
H495 C515 0.931 . S
O496 Co472 2.097 1_554 S
O496 C524 1.217 . S
H497 C525 0.929 . S
H498 C526 0.929 . S
H499 C527 0.930 . S
H500 C528 0.929 . S
H501 C530 0.930 . S
H502 C507 0.930 . S
H503 C511 0.930 . S
O504 Co473 2.037 . S
O504 C524 1.231 1_556 S
C505 O479 1.269 . S
C505 O480 1.257 . S
C506 H481 0.930 . S
C506 C509 1.388 . S
C506 C511 1.418 . S
C507 H502 0.930 . S
C507 C510 1.404 . S
C507 C511 1.353 . S
N508 Co473 2.145 . S
N508 C509 1.397 . S
N508 C510 1.334 . S
C509 H490 0.929 . S
C509 C506 1.388 . S
C509 N508 1.397 . S
C510 H491 0.929 . S
C510 C507 1.404 . S
C510 N508 1.334 . S
C511 H503 0.930 . S
C511 C506 1.418 . S
C511 C507 1.353 . S
C512 H482 0.930 . S
C512 N513 1.330 1_554 S
C512 C514 1.446 1_554 S
N513 Co472 2.151 . S
N513 C512 1.330 1_556 S
N513 C517 1.418 . S
C514 H493 0.929 1_556 S
C514 C512 1.446 1_556 S
C514 C515 1.332 1_455 S
C515 H495 0.931 . S
C515 C514 1.332 1_655 S
C515 C516 1.264 . S
C516 H484 0.934 . S
C516 C515 1.264 . S
C516 C517 1.250 1_655 S
C517 H487 0.929 . S
C517 N513 1.418 . S
C517 C516 1.250 1_455 S
C518 H485 0.930 . S
C518 C520 1.406 . S
C518 C523 1.261 . S
C519 H486 0.930 . S
C519 N521 1.325 . S
C519 C522 1.357 . S
C520 H488 0.928 1_556 S
C520 C518 1.406 . S
C520 N521 1.261 1_655 S
N521 Co472 2.214 . S
N521 C519 1.325 . S
N521 C520 1.261 1_455 S
C522 H492 0.931 . S
C522 C519 1.357 . S
C522 C523 1.312 1_455 S
C523 H494 0.930 . S
C523 C518 1.261 . S
C523 C522 1.312 1_655 S
C524 O496 1.217 . S
C524 O504 1.231 1_554 S
C525 H497 0.929 . S
C525 C528 1.391 . S
C525 C530 1.391 . S
C526 H498 0.929 . S
C526 C527 1.390 . S
C526 N529 1.391 . S
C527 H499 0.930 . S
C527 C526 1.390 . S
C527 C528 1.392 . S
C528 H500 0.929 . S
C528 C525 1.391 . S
C528 C527 1.392 . S
N529 Co473 2.257 1_554 S
N529 C526 1.391 . S
N529 C530 1.388 . S
C530 H501 0.930 . S
C530 C525 1.391 . S
C530 N529 1.388 . S
Co531 O533 2.143 . S
Co531 O539 2.074 . S
Co531 O542 2.093 . S
Co531 O555 2.097 . S
Co531 N572 2.151 . S
Co531 N580 2.214 . S
Co532 O533 2.160 . S
Co532 O538 2.058 . S
Co532 O548 2.057 . S
Co532 O563 2.037 . S
Co532 N567 2.145 . S
Co532 N588 2.257 . S
O533 Co531 2.143 . S
O533 Co532 2.160 . S
C534 O535 1.278 . S
C534 O542 1.224 . S
O535 C534 1.278 . S
C536 O537 1.245 . S
C536 O548 1.232 . S
O537 C536 1.245 . S
O538 Co532 2.058 . S
O538 C564 1.269 . S
O539 Co531 2.074 . S
O539 C564 1.257 . S
H540 C565 0.930 . S
H541 C571 0.930 . S
O542 Co531 2.093 . S
O542 C534 1.224 . S
H543 C575 0.929 . S
H544 C577 0.930 . S
H545 C578 0.930 . S
H546 C576 0.929 . S
H547 C579 0.928 . S
O548 Co532 2.057 . S
O548 C536 1.232 . S
H549 C568 0.929 . S
H550 C569 0.929 . S
H551 C581 0.931 . S
H552 C573 0.929 . S
H553 C582 0.930 . S
H554 C574 0.931 . S
O555 Co531 2.097 . S
O555 C583 1.214 . S
H556 C584 0.929 . S
H557 C585 0.929 . S
H558 C586 0.930 . S
H559 C587 0.929 . S
H560 C589 0.930 . S
H561 C566 0.930 . S
H562 C570 0.930 . S
O563 Co532 2.037 . S
O563 C583 1.234 . S
C564 O538 1.269 . S
C564 O539 1.257 . S
C565 H540 0.930 . S
C565 C568 1.388 1_565 S
C565 C570 1.418 . S
C566 H561 0.930 . S
C566 C569 1.404 . S
C566 C570 1.353 . S
N567 Co532 2.145 . S
N567 C568 1.397 . S
N567 C569 1.334 1_545 S
C568 H549 0.929 . S
C568 C565 1.388 1_545 S
C568 N567 1.397 . S
C569 H550 0.929 . S
C569 C566 1.404 . S
C569 N567 1.334 1_565 S
C570 H562 0.930 . S
C570 C565 1.418 . S
C570 C566 1.353 . S
C571 H541 0.930 . S
C571 N572 1.330 . S
C571 C573 1.446 . S
N572 Co531 2.151 . S
N572 C571 1.330 . S
N572 C576 1.418 . S
C573 H552 0.929 . S
C573 C571 1.446 . S
C573 C574 1.332 . S
C574 H554 0.931 . S
C574 C573 1.332 . S
C574 C575 1.267 . S
C575 H543 0.929 . S
C575 C574 1.267 . S
C575 C576 1.251 . S
C576 H546 0.929 . S
C576 N572 1.418 . S
C576 C575 1.251 . S
C577 H544 0.930 . S
C577 C579 1.406 . S
C577 C582 1.261 . S
C578 H545 0.930 . S
C578 N580 1.325 . S
C578 C581 1.357 . S
C579 H547 0.928 . S
C579 C577 1.406 . S
C579 N580 1.261 . S
N580 Co531 2.214 . S
N580 C578 1.325 . S
N580 C579 1.261 . S
C581 H551 0.931 . S
C581 C578 1.357 . S
C581 C582 1.312 . S
C582 H553 0.930 . S
C582 C577 1.261 . S
C582 C581 1.312 . S
C583 O555 1.214 . S
C583 O563 1.234 . S
C584 H556 0.929 . S
C584 C587 1.391 . S
C584 C589 1.391 . S
C585 H557 0.929 . S
C585 C586 1.390 . S
C585 N588 1.391 . S
C586 H558 0.930 . S
C586 C585 1.390 . S
C586 C587 1.392 . S
C587 H559 0.929 . S
C587 C584 1.391 . S
C587 C586 1.392 . S
N588 Co532 2.257 . S
N588 C585 1.391 . S
N588 C589 1.388 . S
C589 H560 0.930 . S
C589 C584 1.391 . S
C589 N588 1.388 . S
Co590 O592 2.143 . S
Co590 O598 2.074 . S
Co590 O601 2.093 . S
Co590 O614 2.097 . S
Co590 N631 2.151 . S
Co590 N639 2.214 . S
Co591 O592 2.160 . S
Co591 O597 2.058 . S
Co591 O607 2.057 . S
Co591 O622 2.037 . S
Co591 N626 2.145 . S
Co591 N647 2.257 . S
O592 Co590 2.143 . S
O592 Co591 2.160 . S
C593 O594 1.278 . S
C593 O601 1.224 . S
O594 C593 1.278 . S
C595 O596 1.245 . S
C595 O607 1.232 . S
O596 C595 1.245 . S
O597 Co591 2.058 . S
O597 C623 1.269 . S
O598 Co590 2.074 . S
O598 C623 1.257 . S
H599 C624 0.930 . S
H600 C630 0.930 . S
O601 Co590 2.093 . S
O601 C593 1.224 . S
H602 C634 0.929 . S
H603 C636 0.930 . S
H604 C637 0.930 . S
H605 C635 0.929 . S
H606 C638 0.928 . S
O607 Co591 2.057 . S
O607 C595 1.232 . S
H608 C627 0.929 . S
H609 C628 0.929 . S
H610 C640 0.931 . S
H611 C632 0.929 . S
H612 C641 0.930 . S
H613 C633 0.931 . S
O614 Co590 2.097 . S
O614 C642 1.214 . S
H615 C643 0.929 . S
H616 C644 0.929 . S
H617 C645 0.930 . S
H618 C646 0.929 . S
H619 C648 0.930 . S
H620 C625 0.930 . S
H621 C629 0.930 . S
O622 Co591 2.037 . S
O622 C642 1.234 . S
C623 O597 1.269 . S
C623 O598 1.257 . S
C624 H599 0.930 . S
C624 C627 1.388 . S
C624 C629 1.418 . S
C625 H620 0.930 . S
C625 C628 1.404 . S
C625 C629 1.353 . S
N626 Co591 2.145 . S
N626 C627 1.397 . S
N626 C628 1.334 . S
C627 H608 0.929 . S
C627 C624 1.388 . S
C627 N626 1.397 . S
C628 H609 0.929 . S
C628 C625 1.404 . S
C628 N626 1.334 . S
C629 H621 0.930 . S
C629 C624 1.418 . S
C629 C625 1.353 . S
C630 H600 0.930 . S
C630 N631 1.330 . S
C630 C632 1.446 . S
N631 Co590 2.151 . S
N631 C630 1.330 . S
N631 C635 1.418 . S
C632 H611 0.929 . S
C632 C630 1.446 . S
C632 C633 1.332 . S
C633 H613 0.931 . S
C633 C632 1.332 . S
C633 C634 1.267 . S
C634 H602 0.929 . S
C634 C633 1.267 . S
C634 C635 1.251 . S
C635 H605 0.929 . S
C635 N631 1.418 . S
C635 C634 1.251 . S
C636 H603 0.930 . S
C636 C638 1.406 . S
C636 C641 1.261 . S
C637 H604 0.930 . S
C637 N639 1.325 . S
C637 C640 1.357 . S
C638 H606 0.928 . S
C638 C636 1.406 . S
C638 N639 1.261 . S
N639 Co590 2.214 . S
N639 C637 1.325 . S
N639 C638 1.261 . S
C640 H610 0.931 . S
C640 C637 1.357 . S
C640 C641 1.312 . S
C641 H612 0.930 . S
C641 C636 1.261 . S
C641 C640 1.312 . S
C642 O614 1.214 . S
C642 O622 1.234 . S
C643 H615 0.929 . S
C643 C646 1.391 . S
C643 C648 1.391 . S
C644 H616 0.929 . S
C644 C645 1.390 . S
C644 N647 1.391 . S
C645 H617 0.930 . S
C645 C644 1.390 . S
C645 C646 1.392 . S
C646 H618 0.929 . S
C646 C643 1.391 . S
C646 C645 1.392 . S
N647 Co591 2.257 . S
N647 C644 1.391 . S
N647 C648 1.388 . S
C648 H619 0.930 . S
C648 C643 1.391 . S
C648 N647 1.388 . S
Co649 O651 2.143 1_556 S
Co649 O657 2.074 . S
Co649 O660 2.093 1_556 S
Co649 O673 2.097 1_556 S
Co649 N690 2.151 . S
Co649 N698 2.214 . S
Co650 O651 2.160 1_556 S
Co650 O656 2.058 . S
Co650 O666 2.057 . S
Co650 O681 2.037 . S
Co650 N685 2.145 . S
Co650 N706 2.257 1_556 S
O651 Co649 2.143 1_554 S
O651 Co650 2.160 1_554 S
C652 O653 1.278 . S
C652 O660 1.224 . S
O653 C652 1.278 . S
C654 O655 1.245 . S
C654 O666 1.232 1_554 S
O655 C654 1.245 . S
O656 Co650 2.058 . S
O656 C682 1.269 . S
O657 Co649 2.074 . S
O657 C682 1.257 . S
H658 C683 0.930 . S
H659 C689 0.930 . S
O660 Co649 2.093 1_554 S
O660 C652 1.224 . S
H661 C693 0.934 . S
H662 C695 0.930 . S
H663 C696 0.930 . S
H664 C694 0.929 . S
H665 C697 0.928 1_554 S
O666 Co650 2.057 . S
O666 C654 1.232 1_556 S
H667 C686 0.929 . S
H668 C687 0.929 . S
H669 C699 0.931 . S
H670 C691 0.929 1_554 S
H671 C700 0.930 . S
H672 C692 0.931 . S
O673 Co649 2.097 1_554 S
O673 C701 1.217 . S
H674 C702 0.929 . S
H675 C703 0.929 . S
H676 C704 0.930 . S
H677 C705 0.929 . S
H678 C707 0.930 . S
H679 C684 0.930 . S
H680 C688 0.930 . S
O681 Co650 2.037 . S
O681 C701 1.231 1_556 S
C682 O656 1.269 . S
C682 O657 1.257 . S
C683 H658 0.930 . S
C683 C686 1.388 . S
C683 C688 1.418 . S
C684 H679 0.930 . S
C684 C687 1.404 . S
C684 C688 1.353 . S
N685 Co650 2.145 . S
N685 C686 1.397 . S
N685 C687 1.334 . S
C686 H667 0.929 . S
C686 C683 1.388 . S
C686 N685 1.397 . S
C687 H668 0.929 . S
C687 C684 1.404 . S
C687 N685 1.334 . S
C688 H680 0.930 . S
C688 C683 1.418 . S
C688 C684 1.353 . S
C689 H659 0.930 . S
C689 N690 1.330 1_554 S
C689 C691 1.446 1_554 S
N690 Co649 2.151 . S
N690 C689 1.330 1_556 S
N690 C694 1.418 . S
C691 H670 0.929 1_556 S
C691 C689 1.446 1_556 S
C691 C692 1.332 1_655 S
C692 H672 0.931 . S
C692 C691 1.332 1_455 S
C692 C693 1.264 . S
C693 H661 0.934 . S
C693 C692 1.264 . S
C693 C694 1.250 1_455 S
C694 H664 0.929 . S
C694 N690 1.418 . S
C694 C693 1.250 1_655 S
C695 H662 0.930 . S
C695 C697 1.406 . S
C695 C700 1.261 . S
C696 H663 0.930 . S
C696 N698 1.325 . S
C696 C699 1.357 . S
C697 H665 0.928 1_556 S
C697 C695 1.406 . S
C697 N698 1.261 1_455 S
N698 Co649 2.214 . S
N698 C696 1.325 . S
N698 C697 1.261 1_655 S
C699 H669 0.931 . S
C699 C696 1.357 . S
C699 C700 1.312 1_655 S
C700 H671 0.930 . S
C700 C695 1.261 . S
C700 C699 1.312 1_455 S
C701 O673 1.217 . S
C701 O681 1.231 1_554 S
C702 H674 0.929 . S
C702 C705 1.391 . S
C702 C707 1.391 . S
C703 H675 0.929 . S
C703 C704 1.390 . S
C703 N706 1.391 . S
C704 H676 0.930 . S
C704 C703 1.390 . S
C704 C705 1.392 . S
C705 H677 0.929 . S
C705 C702 1.391 . S
C705 C704 1.392 . S
N706 Co650 2.257 1_554 S
N706 C703 1.391 . S
N706 C707 1.388 . S
C707 H678 0.930 . S
C707 C702 1.391 . S
C707 N706 1.388 . S
H708 C726 0.951 . S
H709 C728 0.951 . S
H710 C730 0.950 . S
H711 C731 0.950 . S
H712 C733 0.950 . S
H713 C736 0.950 . S
H714 C737 0.950 . S
H715 C739 0.950 . S
H716 C740 0.950 . S
H717 C741 0.951 . S
H718 C743 0.951 . S
H719 C745 0.950 . S
H720 C746 0.950 . S
H721 C748 0.950 . S
H722 C751 0.950 . S
H723 C752 0.950 . S
H724 C754 0.950 . S
H725 C755 0.950 . S
C726 H708 0.951 . S
C726 C727 1.366 . S
C726 C728 1.388 . S
C727 C726 1.366 . S
C727 C731 1.385 . S
C728 H709 0.951 . S
C728 C726 1.388 . S
C728 C729 1.366 . S
C729 C728 1.366 . S
C729 C730 1.414 . S
C729 C732 1.499 . S
C730 H710 0.950 . S
C730 C729 1.414 . S
C730 C731 1.374 . S
C731 H711 0.950 . S
C731 C727 1.385 . S
C731 C730 1.374 . S
C732 C729 1.499 . S
C732 C733 1.373 . S
C732 C734 1.389 . S
C733 H712 0.950 . S
C733 C732 1.373 . S
C733 C749 1.377 . S
C734 C732 1.389 . S
C734 C735 1.524 . S
C734 C748 1.377 . S
C735 C734 1.524 . S
C735 C736 1.397 . S
C735 C740 1.363 . S
C736 H713 0.950 . S
C736 C735 1.397 . S
C736 C737 1.334 . S
C737 H714 0.950 . S
C737 C736 1.334 . S
C737 C738 1.287 . S
C738 C737 1.287 . S
C738 C739 1.524 . S
C738 H757 0.913 . S
C739 H715 0.950 . S
C739 C738 1.524 . S
C739 C740 1.415 . S
C740 H716 0.950 . S
C740 C735 1.363 . S
C740 C739 1.415 . S
C741 H717 0.951 . S
C741 C742 1.366 . S
C741 C743 1.388 . S
C742 C741 1.366 . S
C742 C746 1.385 . S
C743 H718 0.951 . S
C743 C741 1.388 . S
C743 C744 1.366 . S
C744 C743 1.366 . S
C744 C745 1.414 . S
C744 C747 1.499 . S
C745 H719 0.950 . S
C745 C744 1.414 . S
C745 C746 1.374 . S
C746 H720 0.950 . S
C746 C742 1.385 . S
C746 C745 1.374 . S
C747 C744 1.499 . S
C747 C748 1.373 . S
C747 C749 1.389 . S
C748 H721 0.950 . S
C748 C734 1.377 . S
C748 C747 1.373 . S
C749 C733 1.377 . S
C749 C747 1.389 . S
C749 C750 1.524 . S
C750 C749 1.524 . S
C750 C751 1.397 . S
C750 C755 1.363 . S
C751 H722 0.950 . S
C751 C750 1.397 . S
C751 C752 1.334 . S
C752 H723 0.950 . S
C752 C751 1.334 . S
C752 C753 1.287 . S
C753 C752 1.287 . S
C753 C754 1.524 . S
C753 H756 0.999 . S
C754 H724 0.950 . S
C754 C753 1.524 . S
C754 C755 1.415 . S
C755 H725 0.950 . S
C755 C750 1.363 . S
C755 C754 1.415 . S
H756 C753 0.999 . S
H757 C738 0.913 . S
H758 C776 0.951 . S
H759 C778 0.951 . S
H760 C780 0.950 . S
H761 C781 0.950 . S
H762 C783 0.950 . S
H763 C786 0.950 . S
H764 C787 0.950 . S
H765 C789 0.950 . S
H766 C790 0.950 . S
H767 C791 0.951 . S
H768 C793 0.951 . S
H769 C795 0.950 . S
H770 C796 0.950 . S
H771 C798 0.950 . S
H772 C801 0.950 . S
H773 C802 0.950 . S
H774 C804 0.950 . S
H775 C805 0.950 . S
C776 H758 0.951 . S
C776 C777 1.366 . S
C776 C778 1.388 . S
C777 C776 1.366 . S
C777 C781 1.385 . S
C778 H759 0.951 . S
C778 C776 1.388 . S
C778 C779 1.366 . S
C779 C778 1.366 . S
C779 C780 1.414 . S
C779 C782 1.499 . S
C780 H760 0.950 . S
C780 C779 1.414 . S
C780 C781 1.374 . S
C781 H761 0.950 . S
C781 C777 1.385 . S
C781 C780 1.374 . S
C782 C779 1.499 . S
C782 C783 1.373 . S
C782 C784 1.389 . S
C783 H762 0.950 . S
C783 C782 1.373 . S
C783 C799 1.377 . S
C784 C782 1.389 . S
C784 C785 1.524 . S
C784 C798 1.377 . S
C785 C784 1.524 . S
C785 C786 1.397 . S
C785 C790 1.363 . S
C786 H763 0.950 . S
C786 C785 1.397 . S
C786 C787 1.334 . S
C787 H764 0.950 . S
C787 C786 1.334 . S
C787 C788 1.287 . S
C788 C787 1.287 . S
C788 C789 1.524 . S
C788 H807 0.913 . S
C789 H765 0.950 . S
C789 C788 1.524 . S
C789 C790 1.415 . S
C790 H766 0.950 . S
C790 C785 1.363 . S
C790 C789 1.415 . S
C791 H767 0.951 . S
C791 C792 1.366 . S
C791 C793 1.388 . S
C792 C791 1.366 . S
C792 C796 1.385 . S
C793 H768 0.951 . S
C793 C791 1.388 . S
C793 C794 1.366 . S
C794 C793 1.366 . S
C794 C795 1.414 . S
C794 C797 1.499 . S
C795 H769 0.950 . S
C795 C794 1.414 . S
C795 C796 1.374 . S
C796 H770 0.950 . S
C796 C792 1.385 . S
C796 C795 1.374 . S
C797 C794 1.499 . S
C797 C798 1.373 . S
C797 C799 1.389 . S
C798 H771 0.950 . S
C798 C784 1.377 . S
C798 C797 1.373 . S
C799 C783 1.377 . S
C799 C797 1.389 . S
C799 C800 1.524 . S
C800 C799 1.524 . S
C800 C801 1.397 . S
C800 C805 1.363 . S
C801 H772 0.950 . S
C801 C800 1.397 . S
C801 C802 1.334 . S
C802 H773 0.950 . S
C802 C801 1.334 . S
C802 C803 1.287 . S
C803 C802 1.287 . S
C803 C804 1.524 . S
C803 H806 0.999 . S
C804 H774 0.950 . S
C804 C803 1.524 . S
C804 C805 1.415 . S
C805 H775 0.950 . S
C805 C800 1.363 . S
C805 C804 1.415 . S
H806 C803 0.999 . S
H807 C788 0.913 . S
H808 C826 0.951 . S
H809 C828 0.951 . S
H810 C830 0.950 . S
H811 C831 0.950 . S
H812 C833 0.950 . S
H813 C836 0.950 . S
H814 C837 0.950 . S
H815 C839 0.950 . S
H816 C840 0.950 . S
H817 C841 0.951 . S
H818 C843 0.951 . S
H819 C845 0.950 . S
H820 C846 0.950 . S
H821 C848 0.950 . S
H822 C851 0.950 . S
H823 C852 0.950 . S
H824 C854 0.950 . S
H825 C855 0.950 . S
C826 H808 0.951 . S
C826 C827 1.366 . S
C826 C828 1.388 . S
C827 C826 1.366 . S
C827 C831 1.385 1_556 S
C828 H809 0.951 . S
C828 C826 1.388 . S
C828 C829 1.366 . S
C829 C828 1.366 . S
C829 C830 1.414 1_556 S
C829 C832 1.499 . S
C830 H810 0.950 . S
C830 C829 1.414 1_554 S
C830 C831 1.374 . S
C831 H811 0.950 . S
C831 C827 1.385 1_554 S
C831 C830 1.374 . S
C832 C829 1.499 . S
C832 C833 1.373 1_556 S
C832 C834 1.389 . S
C833 H812 0.950 . S
C833 C832 1.373 1_554 S
C833 C849 1.377 . S
C834 C832 1.389 . S
C834 C835 1.524 . S
C834 C848 1.377 . S
C835 C834 1.524 . S
C835 C836 1.397 . S
C835 C840 1.363 . S
C836 H813 0.950 . S
C836 C835 1.397 . S
C836 C837 1.334 . S
C837 H814 0.950 . S
C837 C836 1.334 . S
C837 C838 1.287 . S
C838 C837 1.287 . S
C838 C839 1.524 . S
C838 H857 0.913 . S
C839 H815 0.950 . S
C839 C838 1.524 . S
C839 C840 1.415 . S
C840 H816 0.950 . S
C840 C835 1.363 . S
C840 C839 1.415 . S
C841 H817 0.951 . S
C841 C842 1.366 . S
C841 C843 1.388 . S
C842 C841 1.366 . S
C842 C846 1.385 1_554 S
C843 H818 0.951 . S
C843 C841 1.388 . S
C843 C844 1.366 . S
C844 C843 1.366 . S
C844 C845 1.414 1_554 S
C844 C847 1.501 . S
C845 H819 0.950 . S
C845 C844 1.414 1_556 S
C845 C846 1.374 . S
C846 H820 0.950 . S
C846 C842 1.385 1_556 S
C846 C845 1.374 . S
C847 C844 1.501 . S
C847 C848 1.332 1_554 S
C847 C849 1.428 . S
C848 H821 0.950 . S
C848 C834 1.377 . S
C848 C847 1.332 1_556 S
C849 C833 1.377 . S
C849 C847 1.428 . S
C849 C850 1.524 . S
C850 C849 1.524 . S
C850 C851 1.397 . S
C850 C855 1.363 . S
C851 H822 0.950 . S
C851 C850 1.397 . S
C851 C852 1.334 . S
C852 H823 0.950 . S
C852 C851 1.334 . S
C852 C853 1.287 . S
C853 C852 1.287 . S
C853 C854 1.524 . S
C853 H856 0.999 . S
C854 H824 0.950 . S
C854 C853 1.524 . S
C854 C855 1.415 . S
C855 H825 0.950 . S
C855 C850 1.363 . S
C855 C854 1.415 . S
H856 C853 0.999 . S
H857 C838 0.913 . S
H858 C876 0.951 . S
H859 C878 0.951 . S
H860 C880 0.950 . S
H861 C881 0.950 . S
H862 C883 0.950 . S
H863 C886 0.950 . S
H864 C887 0.950 . S
H865 C889 0.950 . S
H866 C890 0.950 . S
H867 C891 0.951 . S
H868 C893 0.951 . S
H869 C895 0.950 . S
H870 C896 0.950 . S
H871 C898 0.950 . S
H872 C901 0.950 . S
H873 C902 0.950 . S
H874 C904 0.950 . S
H875 C905 0.950 . S
C876 H858 0.951 . S
C876 C877 1.366 . S
C876 C878 1.388 . S
C877 C876 1.366 . S
C877 C881 1.385 . S
C878 H859 0.951 . S
C878 C876 1.388 . S
C878 C879 1.366 . S
C879 C878 1.366 . S
C879 C880 1.414 . S
C879 C882 1.499 . S
C880 H860 0.950 . S
C880 C879 1.414 . S
C880 C881 1.374 . S
C881 H861 0.950 . S
C881 C877 1.385 . S
C881 C880 1.374 . S
C882 C879 1.499 . S
C882 C883 1.373 . S
C882 C884 1.389 . S
C883 H862 0.950 . S
C883 C882 1.373 . S
C883 C899 1.377 . S
C884 C882 1.389 . S
C884 C885 1.524 . S
C884 C898 1.377 . S
C885 C884 1.524 . S
C885 C886 1.397 . S
C885 C890 1.363 . S
C886 H863 0.950 . S
C886 C885 1.397 . S
C886 C887 1.334 . S
C887 H864 0.950 . S
C887 C886 1.334 . S
C887 C888 1.287 . S
C888 C887 1.287 . S
C888 C889 1.524 . S
C888 H907 0.913 . S
C889 H865 0.950 . S
C889 C888 1.524 . S
C889 C890 1.415 . S
C890 H866 0.950 . S
C890 C885 1.363 . S
C890 C889 1.415 . S
C891 H867 0.951 . S
C891 C892 1.366 . S
C891 C893 1.388 . S
C892 C891 1.366 . S
C892 C896 1.385 . S
C893 H868 0.951 . S
C893 C891 1.388 . S
C893 C894 1.366 . S
C894 C893 1.366 . S
C894 C895 1.414 . S
C894 C897 1.499 . S
C895 H869 0.950 . S
C895 C894 1.414 . S
C895 C896 1.374 . S
C896 H870 0.950 . S
C896 C892 1.385 . S
C896 C895 1.374 . S
C897 C894 1.499 . S
C897 C898 1.373 . S
C897 C899 1.389 . S
C898 H871 0.950 . S
C898 C884 1.377 . S
C898 C897 1.373 . S
C899 C883 1.377 . S
C899 C897 1.389 . S
C899 C900 1.524 . S
C900 C899 1.524 . S
C900 C901 1.397 . S
C900 C905 1.363 . S
C901 H872 0.950 . S
C901 C900 1.397 . S
C901 C902 1.334 . S
C902 H873 0.950 . S
C902 C901 1.334 . S
C902 C903 1.287 . S
C903 C902 1.287 . S
C903 C904 1.524 . S
C903 H906 0.999 . S
C904 H874 0.950 . S
C904 C903 1.524 . S
C904 C905 1.415 . S
C905 H875 0.950 . S
C905 C900 1.363 . S
C905 C904 1.415 . S
H906 C903 0.999 . S
H907 C888 0.913 . S
H908 C926 0.951 . S
H909 C928 0.951 . S
H910 C930 0.950 . S
H911 C931 0.950 . S
H912 C933 0.950 . S
H913 C936 0.950 . S
H914 C937 0.950 . S
H915 C939 0.950 . S
H916 C940 0.950 . S
H917 C941 0.951 . S
H918 C943 0.951 . S
H919 C945 0.950 . S
H920 C946 0.950 . S
H921 C948 0.950 . S
H922 C951 0.950 . S
H923 C952 0.950 . S
H924 C954 0.950 . S
H925 C955 0.950 . S
C926 H908 0.951 . S
C926 C927 1.366 . S
C926 C928 1.388 . S
C927 C926 1.366 . S
C927 C931 1.385 . S
C928 H909 0.951 . S
C928 C926 1.388 . S
C928 C929 1.366 . S
C929 C928 1.366 . S
C929 C930 1.414 . S
C929 C932 1.499 . S
C930 H910 0.950 . S
C930 C929 1.414 . S
C930 C931 1.374 . S
C931 H911 0.950 . S
C931 C927 1.385 . S
C931 C930 1.374 . S
C932 C929 1.499 . S
C932 C933 1.373 . S
C932 C934 1.389 . S
C933 H912 0.950 . S
C933 C932 1.373 . S
C933 C949 1.377 . S
C934 C932 1.389 . S
C934 C935 1.524 . S
C934 C948 1.377 . S
C935 C934 1.524 . S
C935 C936 1.397 . S
C935 C940 1.363 . S
C936 H913 0.950 . S
C936 C935 1.397 . S
C936 C937 1.334 . S
C937 H914 0.950 . S
C937 C936 1.334 . S
C937 C938 1.287 . S
C938 C937 1.287 . S
C938 C939 1.524 . S
C938 H957 0.913 . S
C939 H915 0.950 . S
C939 C938 1.524 . S
C939 C940 1.415 . S
C940 H916 0.950 . S
C940 C935 1.363 . S
C940 C939 1.415 . S
C941 H917 0.951 . S
C941 C942 1.366 . S
C941 C943 1.388 . S
C942 C941 1.366 . S
C942 C946 1.385 . S
C943 H918 0.951 . S
C943 C941 1.388 . S
C943 C944 1.366 . S
C944 C943 1.366 . S
C944 C945 1.414 . S
C944 C947 1.499 . S
C945 H919 0.950 . S
C945 C944 1.414 . S
C945 C946 1.374 . S
C946 H920 0.950 . S
C946 C942 1.385 . S
C946 C945 1.374 . S
C947 C944 1.499 . S
C947 C948 1.373 . S
C947 C949 1.389 . S
C948 H921 0.950 . S
C948 C934 1.377 . S
C948 C947 1.373 . S
C949 C933 1.377 . S
C949 C947 1.389 . S
C949 C950 1.524 . S
C950 C949 1.524 . S
C950 C951 1.397 . S
C950 C955 1.363 . S
C951 H922 0.950 . S
C951 C950 1.397 . S
C951 C952 1.334 . S
C952 H923 0.950 . S
C952 C951 1.334 . S
C952 C953 1.287 . S
C953 C952 1.287 . S
C953 C954 1.524 . S
C953 H956 0.999 . S
C954 H924 0.950 . S
C954 C953 1.524 . S
C954 C955 1.415 . S
C955 H925 0.950 . S
C955 C950 1.363 . S
C955 C954 1.415 . S
H956 C953 0.999 . S
H957 C938 0.913 . S
H958 C976 0.951 . S
H959 C978 0.951 . S
H960 C980 0.950 . S
H961 C981 0.950 . S
H962 C983 0.950 . S
H963 C986 0.950 . S
H964 C987 0.950 . S
H965 C989 0.950 . S
H966 C990 0.950 . S
H967 C991 0.951 . S
H968 C993 0.951 . S
H969 C995 0.950 . S
H970 C996 0.950 . S
H971 C998 0.950 . S
H972 C1001 0.950 . S
H973 C1002 0.950 . S
H974 C1004 0.950 . S
H975 C1005 0.950 . S
C976 H958 0.951 . S
C976 C977 1.366 1_556 S
C976 C978 1.388 . S
C977 C976 1.366 1_554 S
C977 C981 1.385 . S
C978 H959 0.951 . S
C978 C976 1.388 . S
C978 C979 1.366 1_556 S
C979 C978 1.366 1_554 S
C979 C980 1.414 . S
C979 C982 1.499 . S
C980 H960 0.950 . S
C980 C979 1.414 . S
C980 C981 1.374 . S
C981 H961 0.950 . S
C981 C977 1.385 . S
C981 C980 1.374 . S
C982 C979 1.499 . S
C982 C983 1.373 . S
C982 C984 1.389 1_554 S
C983 H962 0.950 . S
C983 C982 1.373 . S
C983 C999 1.377 . S
C984 C982 1.389 1_556 S
C984 C985 1.524 . S
C984 C998 1.377 . S
C985 C984 1.524 . S
C985 C986 1.397 1_556 S
C985 C990 1.363 . S
C986 H963 0.950 . S
C986 C985 1.397 1_554 S
C986 C987 1.334 . S
C987 H964 0.950 . S
C987 C986 1.334 . S
C987 C988 1.287 1_554 S
C988 C987 1.287 1_556 S
C988 C989 1.524 . S
C988 H1007 0.913 . S
C989 H965 0.950 . S
C989 C988 1.524 . S
C989 C990 1.415 . S
C990 H966 0.950 . S
C990 C985 1.363 . S
C990 C989 1.415 . S
C991 H967 0.951 . S
C991 C992 1.366 1_554 S
C991 C993 1.388 . S
C992 C991 1.366 1_556 S
C992 C996 1.385 . S
C993 H968 0.951 . S
C993 C991 1.388 . S
C993 C994 1.366 1_554 S
C994 C993 1.366 1_556 S
C994 C995 1.414 . S
C994 C997 1.499 . S
C995 H969 0.950 . S
C995 C994 1.414 . S
C995 C996 1.374 . S
C996 H970 0.950 . S
C996 C992 1.385 . S
C996 C995 1.374 . S
C997 C994 1.499 . S
C997 C998 1.373 . S
C997 C999 1.389 1_556 S
C998 H971 0.950 . S
C998 C984 1.377 . S
C998 C997 1.373 . S
C999 C983 1.377 . S
C999 C997 1.389 1_554 S
C999 C1000 1.524 . S
C1000 C999 1.524 . S
C1000 C1001 1.397 1_554 S
C1000 C1005 1.363 . S
C1001 H972 0.950 . S
C1001 C1000 1.397 1_556 S
C1001 C1002 1.334 . S
C1002 H973 0.950 . S
C1002 C1001 1.334 . S
C1002 C1003 1.287 1_556 S
C1003 C1002 1.287 1_554 S
C1003 C1004 1.524 . S
C1003 H1006 0.999 . S
C1004 H974 0.950 . S
C1004 C1003 1.524 . S
C1004 C1005 1.415 . S
C1005 H975 0.950 . S
C1005 C1000 1.363 . S
C1005 C1004 1.415 . S
H1006 C1003 0.999 . S
H1007 C988 0.913 . S
H1008 C1026 0.951 . S
H1009 C1028 0.951 . S
H1010 C1030 0.950 . S
H1011 C1031 0.950 . S
H1012 C1033 0.950 . S
H1013 C1036 0.950 . S
H1014 C1037 0.950 . S
H1015 C1039 0.950 . S
H1016 C1040 0.950 . S
H1017 C1041 0.951 . S
H1018 C1043 0.951 . S
H1019 C1045 0.950 . S
H1020 C1046 0.950 . S
H1021 C1048 0.950 . S
H1022 C1051 0.950 . S
H1023 C1052 0.950 . S
H1024 C1054 0.950 . S
H1025 C1055 0.950 . S
C1026 H1008 0.951 . S
C1026 C1027 1.366 . S
C1026 C1028 1.388 . S
C1027 C1026 1.366 . S
C1027 C1031 1.385 . S
C1028 H1009 0.951 . S
C1028 C1026 1.388 . S
C1028 C1029 1.366 . S
C1029 C1028 1.366 . S
C1029 C1030 1.414 . S
C1029 C1032 1.499 . S
C1030 H1010 0.950 . S
C1030 C1029 1.414 . S
C1030 C1031 1.374 . S
C1031 H1011 0.950 . S
C1031 C1027 1.385 . S
C1031 C1030 1.374 . S
C1032 C1029 1.499 . S
C1032 C1033 1.373 . S
C1032 C1034 1.389 . S
C1033 H1012 0.950 . S
C1033 C1032 1.373 . S
C1033 C1049 1.377 . S
C1034 C1032 1.389 . S
C1034 C1035 1.524 . S
C1034 C1048 1.377 . S
C1035 C1034 1.524 . S
C1035 C1036 1.397 . S
C1035 C1040 1.363 . S
C1036 H1013 0.950 . S
C1036 C1035 1.397 . S
C1036 C1037 1.334 . S
C1037 H1014 0.950 . S
C1037 C1036 1.334 . S
C1037 C1038 1.287 . S
C1038 C1037 1.287 . S
C1038 C1039 1.524 . S
C1038 H1057 0.913 . S
C1039 H1015 0.950 . S
C1039 C1038 1.524 . S
C1039 C1040 1.415 . S
C1040 H1016 0.950 . S
C1040 C1035 1.363 . S
C1040 C1039 1.415 . S
C1041 H1017 0.951 . S
C1041 C1042 1.366 . S
C1041 C1043 1.388 . S
C1042 C1041 1.366 . S
C1042 C1046 1.385 . S
C1043 H1018 0.951 . S
C1043 C1041 1.388 . S
C1043 C1044 1.366 . S
C1044 C1043 1.366 . S
C1044 C1045 1.414 . S
C1044 C1047 1.499 . S
C1045 H1019 0.950 . S
C1045 C1044 1.414 . S
C1045 C1046 1.374 . S
C1046 H1020 0.950 . S
C1046 C1042 1.385 . S
C1046 C1045 1.374 . S
C1047 C1044 1.499 . S
C1047 C1048 1.373 . S
C1047 C1049 1.389 . S
C1048 H1021 0.950 . S
C1048 C1034 1.377 . S
C1048 C1047 1.373 . S
C1049 C1033 1.377 . S
C1049 C1047 1.389 . S
C1049 C1050 1.524 . S
C1050 C1049 1.524 . S
C1050 C1051 1.397 . S
C1050 C1055 1.363 . S
C1051 H1022 0.950 . S
C1051 C1050 1.397 . S
C1051 C1052 1.334 . S
C1052 H1023 0.950 . S
C1052 C1051 1.334 . S
C1052 C1053 1.287 . S
C1053 C1052 1.287 . S
C1053 C1054 1.524 . S
C1053 H1056 0.999 . S
C1054 H1024 0.950 . S
C1054 C1053 1.524 . S
C1054 C1055 1.415 . S
C1055 H1025 0.950 . S
C1055 C1050 1.363 . S
C1055 C1054 1.415 . S
H1056 C1053 0.999 . S
H1057 C1038 0.913 . S
H1058 C1076 0.951 . S
H1059 C1078 0.951 . S
H1060 C1080 0.950 . S
H1061 C1081 0.950 . S
H1062 C1083 0.950 . S
H1063 C1086 0.950 . S
H1064 C1087 0.950 . S
H1065 C1089 0.950 . S
H1066 C1090 0.959 . S
H1067 C1091 0.951 . S
H1068 C1093 0.951 . S
H1069 C1095 0.950 . S
H1070 C1096 0.950 . S
H1071 C1098 0.950 . S
H1072 C1101 0.950 . S
H1073 C1102 0.950 . S
H1074 C1104 0.950 . S
H1075 C1105 0.950 . S
C1076 H1058 0.951 . S
C1076 C1077 1.366 . S
C1076 C1078 1.388 . S
C1077 C1076 1.366 . S
C1077 C1081 1.385 . S
C1078 H1059 0.951 . S
C1078 C1076 1.388 . S
C1078 C1079 1.366 . S
C1079 C1078 1.366 . S
C1079 C1080 1.414 . S
C1079 C1082 1.499 . S
C1080 H1060 0.950 . S
C1080 C1079 1.414 . S
C1080 C1081 1.374 . S
C1081 H1061 0.950 . S
C1081 C1077 1.385 . S
C1081 C1080 1.374 . S
C1082 C1079 1.499 . S
C1082 C1083 1.373 . S
C1082 C1084 1.389 . S
C1083 H1062 0.950 . S
C1083 C1082 1.373 . S
C1083 C1099 1.377 1_655 S
C1084 C1082 1.389 . S
C1084 C1085 1.524 . S
C1084 C1098 1.377 1_655 S
C1085 C1084 1.524 . S
C1085 C1086 1.397 . S
C1085 C1090 1.363 . S
C1086 H1063 0.950 . S
C1086 C1085 1.397 . S
C1086 C1087 1.334 . S
C1087 H1064 0.950 . S
C1087 C1086 1.334 . S
C1087 C1088 1.287 . S
C1088 C1087 1.287 . S
C1088 C1089 1.524 . S
C1088 H1107 0.913 . S
C1089 H1065 0.950 . S
C1089 C1088 1.524 . S
C1089 C1090 1.415 . S
C1090 H1066 0.959 . S
C1090 C1085 1.363 . S
C1090 C1089 1.415 . S
C1091 H1067 0.951 . S
C1091 C1092 1.366 . S
C1091 C1093 1.388 . S
C1092 C1091 1.366 . S
C1092 C1096 1.385 . S
C1093 H1068 0.951 . S
C1093 C1091 1.388 . S
C1093 C1094 1.366 . S
C1094 C1093 1.366 . S
C1094 C1095 1.414 . S
C1094 C1097 1.499 . S
C1095 H1069 0.950 . S
C1095 C1094 1.414 . S
C1095 C1096 1.374 . S
C1096 H1070 0.950 . S
C1096 C1092 1.385 . S
C1096 C1095 1.374 . S
C1097 C1094 1.499 . S
C1097 C1098 1.373 . S
C1097 C1099 1.389 . S
C1098 H1071 0.950 . S
C1098 C1084 1.377 1_455 S
C1098 C1097 1.373 . S
C1099 C1083 1.377 1_455 S
C1099 C1097 1.389 . S
C1099 C1100 1.524 . S
C1100 C1099 1.524 . S
C1100 C1101 1.397 . S
C1100 C1105 1.363 . S
C1101 H1072 0.950 . S
C1101 C1100 1.397 . S
C1101 C1102 1.334 . S
C1102 H1073 0.950 . S
C1102 C1101 1.334 . S
C1102 C1103 1.287 . S
C1103 C1102 1.287 . S
C1103 C1104 1.524 . S
C1103 H1106 0.999 . S
C1104 H1074 0.950 . S
C1104 C1103 1.524 . S
C1104 C1105 1.415 . S
C1105 H1075 0.950 . S
C1105 C1100 1.363 . S
C1105 C1104 1.415 . S
H1106 C1103 0.999 . S
H1107 C1088 0.913 . S
H1108 C1126 0.951 . S
H1109 C1128 0.951 . S
H1110 C1130 0.950 . S
H1111 C1131 0.950 . S
H1112 C1133 0.950 . S
H1113 C1136 0.950 . S
H1114 C1137 0.950 . S
H1115 C1139 0.950 . S
H1116 C1140 0.950 . S
H1117 C1141 0.951 . S
H1118 C1143 0.951 . S
H1119 C1145 0.950 . S
H1120 C1146 0.950 . S
H1121 C1148 0.950 . S
H1122 C1151 0.950 . S
H1123 C1152 0.950 . S
H1124 C1154 0.950 . S
H1125 C1155 0.950 . S
C1126 H1108 0.951 . S
C1126 C1127 1.373 . S
C1126 C1128 1.388 . S
C1127 C1126 1.373 . S
C1127 C1131 1.378 1_556 S
C1128 H1109 0.951 . S
C1128 C1126 1.388 . S
C1128 C1129 1.366 . S
C1129 C1128 1.366 . S
C1129 C1130 1.414 1_556 S
C1129 C1132 1.500 . S
C1130 H1110 0.950 . S
C1130 C1129 1.414 1_554 S
C1130 C1131 1.374 . S
C1131 H1111 0.950 . S
C1131 C1127 1.378 1_554 S
C1131 C1130 1.374 . S
C1132 C1129 1.500 . S
C1132 C1133 1.344 1_556 S
C1132 C1134 1.417 . S
C1133 H1112 0.950 . S
C1133 C1132 1.344 1_554 S
C1133 C1149 1.377 1_545 S
C1134 C1132 1.417 . S
C1134 C1135 1.524 . S
C1134 C1148 1.377 1_545 S
C1135 C1134 1.524 . S
C1135 C1136 1.397 . S
C1135 C1140 1.363 . S
C1136 H1113 0.950 . S
C1136 C1135 1.397 . S
C1136 C1137 1.334 . S
C1137 H1114 0.950 . S
C1137 C1136 1.334 . S
C1137 C1138 1.287 . S
C1138 C1137 1.287 . S
C1138 C1139 1.524 . S
C1138 H1157 0.913 . S
C1139 H1115 0.950 . S
C1139 C1138 1.524 . S
C1139 C1140 1.415 . S
C1140 H1116 0.950 . S
C1140 C1135 1.363 . S
C1140 C1139 1.415 . S
C1141 H1117 0.951 . S
C1141 C1142 1.378 . S
C1141 C1143 1.388 . S
C1142 C1141 1.378 . S
C1142 C1146 1.373 1_554 S
C1143 H1118 0.951 . S
C1143 C1141 1.388 . S
C1143 C1144 1.366 . S
C1144 C1143 1.366 . S
C1144 C1145 1.414 1_554 S
C1144 C1147 1.500 . S
C1145 H1119 0.950 . S
C1145 C1144 1.414 1_556 S
C1145 C1146 1.374 . S
C1146 H1120 0.950 . S
C1146 C1142 1.373 1_556 S
C1146 C1145 1.374 . S
C1147 C1144 1.500 . S
C1147 C1148 1.335 1_554 S
C1147 C1149 1.426 . S
C1148 H1121 0.950 . S
C1148 C1134 1.377 1_565 S
C1148 C1147 1.335 1_556 S
C1149 C1133 1.377 1_565 S
C1149 C1147 1.426 . S
C1149 C1150 1.524 . S
C1150 C1149 1.524 . S
C1150 C1151 1.397 . S
C1150 C1155 1.363 . S
C1151 H1122 0.950 . S
C1151 C1150 1.397 . S
C1151 C1152 1.334 . S
C1152 H1123 0.950 . S
C1152 C1151 1.334 . S
C1152 C1153 1.287 . S
C1153 C1152 1.287 . S
C1153 C1154 1.524 . S
C1153 H1156 0.999 . S
C1154 H1124 0.950 . S
C1154 C1153 1.524 . S
C1154 C1155 1.415 . S
C1155 H1125 0.950 . S
C1155 C1150 1.363 . S
C1155 C1154 1.415 . S
H1156 C1153 0.999 . S
H1157 C1138 0.913 . S
H1158 C1176 0.951 . S
H1159 C1178 0.951 . S
H1160 C1180 0.950 . S
H1161 C1181 0.950 . S
H1162 C1183 0.950 . S
H1163 C1186 0.950 . S
H1164 C1187 0.950 . S
H1165 C1189 0.950 . S
H1166 C1190 0.950 . S
H1167 C1191 0.951 . S
H1168 C1193 0.951 . S
H1169 C1195 0.950 . S
H1170 C1196 0.950 . S
H1171 C1198 0.950 . S
H1172 C1201 0.950 . S
H1173 C1202 0.950 . S
H1174 C1204 0.950 . S
H1175 C1205 0.950 . S
C1176 H1158 0.951 . S
C1176 C1177 1.366 . S
C1176 C1178 1.388 . S
C1177 C1176 1.366 . S
C1177 C1181 1.385 . S
C1178 H1159 0.951 . S
C1178 C1176 1.388 . S
C1178 C1179 1.366 . S
C1179 C1178 1.366 . S
C1179 C1180 1.414 . S
C1179 C1182 1.499 . S
C1180 H1160 0.950 . S
C1180 C1179 1.414 . S
C1180 C1181 1.374 . S
C1181 H1161 0.950 . S
C1181 C1177 1.385 . S
C1181 C1180 1.374 . S
C1182 C1179 1.499 . S
C1182 C1183 1.373 . S
C1182 C1184 1.389 . S
C1183 H1162 0.950 . S
C1183 C1182 1.373 . S
C1183 C1199 1.377 . S
C1184 C1182 1.389 . S
C1184 C1185 1.524 . S
C1184 C1198 1.377 . S
C1185 C1184 1.524 . S
C1185 C1186 1.397 . S
C1185 C1190 1.363 . S
C1186 H1163 0.950 . S
C1186 C1185 1.397 . S
C1186 C1187 1.334 . S
C1187 H1164 0.950 . S
C1187 C1186 1.334 . S
C1187 C1188 1.287 . S
C1188 C1187 1.287 . S
C1188 C1189 1.524 . S
C1188 H1207 0.913 . S
C1189 H1165 0.950 . S
C1189 C1188 1.524 . S
C1189 C1190 1.415 . S
C1190 H1166 0.950 . S
C1190 C1185 1.363 . S
C1190 C1189 1.415 . S
C1191 H1167 0.951 . S
C1191 C1192 1.366 . S
C1191 C1193 1.388 . S
C1192 C1191 1.366 . S
C1192 C1196 1.385 . S
C1193 H1168 0.951 . S
C1193 C1191 1.388 . S
C1193 C1194 1.366 . S
C1194 C1193 1.366 . S
C1194 C1195 1.414 . S
C1194 C1197 1.499 . S
C1195 H1169 0.950 . S
C1195 C1194 1.414 . S
C1195 C1196 1.374 . S
C1196 H1170 0.950 . S
C1196 C1192 1.385 . S
C1196 C1195 1.374 . S
C1197 C1194 1.499 . S
C1197 C1198 1.373 . S
C1197 C1199 1.389 . S
C1198 H1171 0.950 . S
C1198 C1184 1.377 . S
C1198 C1197 1.373 . S
C1199 C1183 1.377 . S
C1199 C1197 1.389 . S
C1199 C1200 1.524 . S
C1200 C1199 1.524 . S
C1200 C1201 1.397 . S
C1200 C1205 1.363 . S
C1201 H1172 0.950 . S
C1201 C1200 1.397 . S
C1201 C1202 1.334 . S
C1202 H1173 0.950 . S
C1202 C1201 1.334 . S
C1202 C1203 1.287 . S
C1203 C1202 1.287 . S
C1203 C1204 1.524 . S
C1203 H1206 0.999 . S
C1204 H1174 0.950 . S
C1204 C1203 1.524 . S
C1204 C1205 1.415 . S
C1205 H1175 0.950 . S
C1205 C1200 1.363 . S
C1205 C1204 1.415 . S
H1206 C1203 0.999 . S
H1207 C1188 0.913 . S
H1208 C1226 0.951 . S
H1209 C1228 0.951 . S
H1210 C1230 0.950 . S
H1211 C1231 0.950 . S
H1212 C1233 0.950 . S
H1213 C1236 0.950 . S
H1214 C1237 0.950 . S
H1215 C1239 0.950 . S
H1216 C1240 0.950 . S
H1217 C1241 0.951 . S
H1218 C1243 0.951 . S
H1219 C1245 0.950 . S
H1220 C1246 0.950 . S
H1221 C1248 0.950 . S
H1222 C1251 0.950 . S
H1223 C1252 0.950 . S
H1224 C1254 0.950 . S
H1225 C1255 0.950 . S
C1226 H1208 0.951 . S
C1226 C1227 1.366 . S
C1226 C1228 1.388 . S
C1227 C1226 1.366 . S
C1227 C1231 1.385 . S
C1228 H1209 0.951 . S
C1228 C1226 1.388 . S
C1228 C1229 1.366 . S
C1229 C1228 1.366 . S
C1229 C1230 1.414 . S
C1229 C1232 1.499 . S
C1230 H1210 0.950 . S
C1230 C1229 1.414 . S
C1230 C1231 1.374 . S
C1231 H1211 0.950 . S
C1231 C1227 1.385 . S
C1231 C1230 1.374 . S
C1232 C1229 1.499 . S
C1232 C1233 1.373 . S
C1232 C1234 1.389 . S
C1233 H1212 0.950 . S
C1233 C1232 1.373 . S
C1233 C1249 1.377 1_455 S
C1234 C1232 1.389 . S
C1234 C1235 1.524 . S
C1234 C1248 1.377 1_455 S
C1235 C1234 1.524 . S
C1235 C1236 1.397 . S
C1235 C1240 1.363 . S
C1236 H1213 0.950 . S
C1236 C1235 1.397 . S
C1236 C1237 1.334 . S
C1237 H1214 0.950 . S
C1237 C1236 1.334 . S
C1237 C1238 1.287 . S
C1238 C1237 1.287 . S
C1238 C1239 1.524 . S
C1238 H1257 0.913 . S
C1239 H1215 0.950 . S
C1239 C1238 1.524 . S
C1239 C1240 1.415 . S
C1240 H1216 0.950 . S
C1240 C1235 1.363 . S
C1240 C1239 1.415 . S
C1241 H1217 0.951 . S
C1241 C1242 1.366 . S
C1241 C1243 1.388 . S
C1242 C1241 1.366 . S
C1242 C1246 1.385 . S
C1243 H1218 0.951 . S
C1243 C1241 1.388 . S
C1243 C1244 1.366 . S
C1244 C1243 1.366 . S
C1244 C1245 1.414 . S
C1244 C1247 1.499 . S
C1245 H1219 0.950 . S
C1245 C1244 1.414 . S
C1245 C1246 1.374 . S
C1246 H1220 0.950 . S
C1246 C1242 1.385 . S
C1246 C1245 1.374 . S
C1247 C1244 1.499 . S
C1247 C1248 1.373 . S
C1247 C1249 1.389 . S
C1248 H1221 0.950 . S
C1248 C1234 1.377 1_655 S
C1248 C1247 1.373 . S
C1249 C1233 1.377 1_655 S
C1249 C1247 1.389 . S
C1249 C1250 1.524 . S
C1250 C1249 1.524 . S
C1250 C1251 1.397 . S
C1250 C1255 1.363 . S
C1251 H1222 0.950 . S
C1251 C1250 1.397 . S
C1251 C1252 1.334 . S
C1252 H1223 0.950 . S
C1252 C1251 1.334 . S
C1252 C1253 1.287 . S
C1253 C1252 1.287 . S
C1253 C1254 1.524 . S
C1253 H1256 0.999 . S
C1254 H1224 0.950 . S
C1254 C1253 1.524 . S
C1254 C1255 1.415 . S
C1255 H1225 0.950 . S
C1255 C1250 1.363 . S
C1255 C1254 1.415 . S
H1256 C1253 0.999 . S
H1257 C1238 0.913 . S
H1258 C1276 0.951 . S
H1259 C1278 0.951 . S
H1260 C1280 0.950 . S
H1261 C1281 0.950 . S
H1262 C1283 0.950 . S
H1263 C1286 0.950 . S
H1264 C1287 0.950 . S
H1265 C1289 0.950 . S
H1266 C1290 0.950 . S
H1267 C1291 0.951 . S
H1268 C1293 0.951 . S
H1269 C1295 0.950 . S
H1270 C1296 0.950 . S
H1271 C1298 0.950 . S
H1272 C1301 0.950 . S
H1273 C1302 0.950 . S
H1274 C1304 0.950 . S
H1275 C1305 0.950 . S
C1276 H1258 0.951 . S
C1276 C1277 1.378 . S
C1276 C1278 1.388 . S
C1277 C1276 1.378 . S
C1277 C1281 1.372 1_554 S
C1278 H1259 0.951 . S
C1278 C1276 1.388 . S
C1278 C1279 1.351 1_554 S
C1279 C1278 1.351 1_556 S
C1279 C1280 1.428 . S
C1279 C1282 1.499 . S
C1280 H1260 0.950 . S
C1280 C1279 1.428 . S
C1280 C1281 1.374 . S
C1281 H1261 0.950 . S
C1281 C1277 1.372 1_556 S
C1281 C1280 1.374 . S
C1282 C1279 1.499 . S
C1282 C1283 1.373 . S
C1282 C1284 1.389 1_556 S
C1283 H1262 0.950 . S
C1283 C1282 1.373 . S
C1283 C1299 1.377 1_545 S
C1284 C1282 1.389 1_554 S
C1284 C1285 1.524 . S
C1284 C1298 1.377 1_545 S
C1285 C1284 1.524 . S
C1285 C1286 1.397 1_554 S
C1285 C1290 1.363 . S
C1286 H1263 0.950 . S
C1286 C1285 1.397 1_556 S
C1286 C1287 1.334 . S
C1287 H1264 0.950 . S
C1287 C1286 1.334 . S
C1287 C1288 1.287 1_556 S
C1288 C1287 1.287 1_554 S
C1288 C1289 1.524 . S
C1288 H1307 0.913 . S
C1289 H1265 0.950 . S
C1289 C1288 1.524 . S
C1289 C1290 1.415 . S
C1290 H1266 0.950 . S
C1290 C1285 1.363 . S
C1290 C1289 1.415 . S
C1291 H1267 0.951 . S
C1291 C1292 1.387 . S
C1291 C1293 1.388 . S
C1292 C1291 1.387 . S
C1292 C1296 1.363 1_556 S
C1293 H1268 0.951 . S
C1293 C1291 1.388 . S
C1293 C1294 1.360 1_556 S
C1294 C1293 1.360 1_554 S
C1294 C1295 1.419 . S
C1294 C1297 1.499 . S
C1295 H1269 0.950 . S
C1295 C1294 1.419 . S
C1295 C1296 1.374 . S
C1296 H1270 0.950 . S
C1296 C1292 1.363 1_554 S
C1296 C1295 1.374 . S
C1297 C1294 1.499 . S
C1297 C1298 1.373 . S
C1297 C1299 1.389 1_554 S
C1298 H1271 0.950 . S
C1298 C1284 1.377 1_565 S
C1298 C1297 1.373 . S
C1299 C1283 1.377 1_565 S
C1299 C1297 1.389 1_556 S
C1299 C1300 1.524 . S
C1300 C1299 1.524 . S
C1300 C1301 1.397 1_556 S
C1300 C1305 1.363 . S
C1301 H1272 0.950 . S
C1301 C1300 1.397 1_554 S
C1301 C1302 1.334 . S
C1302 H1273 0.950 . S
C1302 C1301 1.334 . S
C1302 C1303 1.287 1_554 S
C1303 C1302 1.287 1_556 S
C1303 C1304 1.524 . S
C1303 H1306 0.999 . S
C1304 H1274 0.950 . S
C1304 C1303 1.524 . S
C1304 C1305 1.415 . S
C1305 H1275 0.950 . S
C1305 C1300 1.363 . S
C1305 C1304 1.415 . S
H1306 C1303 0.999 . S
H1307 C1288 0.913 . S
H1308 C1326 0.951 . S
H1309 C1328 0.951 . S
H1310 C1330 0.950 . S
H1311 C1331 0.950 . S
H1312 C1333 0.950 . S
H1313 C1336 0.950 . S
H1314 C1337 0.950 . S
H1315 C1339 0.950 . S
H1316 C1340 0.950 . S
H1317 C1341 0.951 . S
H1318 C1343 0.951 . S
H1319 C1345 0.950 1_655 S
H1320 C1346 0.950 . S
H1321 C1348 0.950 . S
H1322 C1351 0.950 . S
H1323 C1352 0.950 . S
H1324 C1354 0.950 . S
H1325 C1355 0.950 . S
C1326 H1308 0.951 . S
C1326 C1327 1.366 . S
C1326 C1328 1.388 . S
C1327 C1326 1.366 . S
C1327 C1331 1.385 . S
C1328 H1309 0.951 . S
C1328 C1326 1.388 . S
C1328 C1329 1.366 . S
C1329 C1328 1.366 . S
C1329 C1330 1.414 . S
C1329 C1332 1.499 . S
C1330 H1310 0.950 . S
C1330 C1329 1.414 . S
C1330 C1331 1.374 . S
C1331 H1311 0.950 . S
C1331 C1327 1.385 . S
C1331 C1330 1.374 . S
C1332 C1329 1.499 . S
C1332 C1333 1.373 1_655 S
C1332 C1334 1.389 . S
C1333 H1312 0.950 . S
C1333 C1332 1.373 1_455 S
C1333 C1349 1.377 . S
C1334 C1332 1.389 . S
C1334 C1335 1.524 . S
C1334 C1348 1.377 . S
C1335 C1334 1.524 . S
C1335 C1336 1.397 . S
C1335 C1340 1.363 . S
C1336 H1313 0.950 . S
C1336 C1335 1.397 . S
C1336 C1337 1.334 . S
C1337 H1314 0.950 . S
C1337 C1336 1.334 . S
C1337 C1338 1.287 . S
C1338 C1337 1.287 . S
C1338 C1339 1.524 . S
C1338 H1357 0.913 . S
C1339 H1315 0.950 . S
C1339 C1338 1.524 . S
C1339 C1340 1.415 . S
C1340 H1316 0.950 . S
C1340 C1335 1.363 . S
C1340 C1339 1.415 . S
C1341 H1317 0.951 . S
C1341 C1342 1.366 . S
C1341 C1343 1.388 . S
C1342 C1341 1.366 . S
C1342 C1346 1.385 . S
C1343 H1318 0.951 . S
C1343 C1341 1.388 . S
C1343 C1344 1.366 . S
C1344 C1343 1.366 . S
C1344 C1345 1.414 . S
C1344 C1347 1.499 . S
C1345 H1319 0.950 1_455 S
C1345 C1344 1.414 . S
C1345 C1346 1.374 . S
C1346 H1320 0.950 . S
C1346 C1342 1.385 . S
C1346 C1345 1.374 . S
C1347 C1344 1.499 . S
C1347 C1348 1.373 1_455 S
C1347 C1349 1.389 . S
C1348 H1321 0.950 . S
C1348 C1334 1.377 . S
C1348 C1347 1.373 1_655 S
C1349 C1333 1.377 . S
C1349 C1347 1.389 . S
C1349 C1350 1.524 . S
C1350 C1349 1.524 . S
C1350 C1351 1.397 . S
C1350 C1355 1.363 . S
C1351 H1322 0.950 . S
C1351 C1350 1.397 . S
C1351 C1352 1.334 . S
C1352 H1323 0.950 . S
C1352 C1351 1.334 . S
C1352 C1353 1.287 . S
C1353 C1352 1.287 . S
C1353 C1354 1.524 . S
C1353 H1356 0.999 . S
C1354 H1324 0.950 . S
C1354 C1353 1.524 . S
C1354 C1355 1.415 . S
C1355 H1325 0.950 . S
C1355 C1350 1.363 . S
C1355 C1354 1.415 . S
H1356 C1353 0.999 . S
H1357 C1338 0.913 . S
H1358 C1376 0.951 1_565 S
H1359 C1378 0.963 . S
H1360 C1380 0.950 . S
H1361 C1381 0.950 . S
H1362 C1383 0.950 . S
H1363 C1386 0.950 . S
H1364 C1387 0.950 . S
H1365 C1389 0.950 . S
H1366 C1390 0.950 . S
H1367 C1391 0.951 1_545 S
H1368 C1393 0.963 . S
H1369 C1395 0.950 . S
H1370 C1396 0.950 . S
H1371 C1398 0.950 . S
H1372 C1401 0.950 . S
H1373 C1402 0.950 . S
H1374 C1404 0.950 . S
H1375 C1405 0.950 . S
C1376 H1358 0.951 1_545 S
C1376 C1377 1.366 . S
C1376 C1378 1.382 1_545 S
C1377 C1376 1.366 . S
C1377 C1381 1.385 . S
C1378 H1359 0.963 . S
C1378 C1376 1.382 1_565 S
C1378 C1379 1.360 1_565 S
C1379 C1378 1.360 1_545 S
C1379 C1380 1.414 . S
C1379 C1382 1.499 . S
C1380 H1360 0.950 . S
C1380 C1379 1.414 . S
C1380 C1381 1.374 . S
C1381 H1361 0.950 . S
C1381 C1377 1.385 . S
C1381 C1380 1.374 . S
C1382 C1379 1.499 . S
C1382 C1383 1.373 . S
C1382 C1384 1.389 1_545 S
C1383 H1362 0.950 . S
C1383 C1382 1.373 . S
C1383 C1399 1.377 . S
C1384 C1382 1.389 1_565 S
C1384 C1385 1.524 . S
C1384 C1398 1.377 . S
C1385 C1384 1.524 . S
C1385 C1386 1.397 . S
C1385 C1390 1.363 . S
C1386 H1363 0.950 . S
C1386 C1385 1.397 . S
C1386 C1387 1.334 . S
C1387 H1364 0.950 . S
C1387 C1386 1.334 . S
C1387 C1388 1.287 . S
C1388 C1387 1.287 . S
C1388 C1389 1.524 . S
C1388 H1407 0.913 . S
C1389 H1365 0.950 . S
C1389 C1388 1.524 . S
C1389 C1390 1.415 . S
C1390 H1366 0.950 . S
C1390 C1385 1.363 . S
C1390 C1389 1.415 . S
C1391 H1367 0.951 1_565 S
C1391 C1392 1.366 . S
C1391 C1393 1.382 1_565 S
C1392 C1391 1.366 . S
C1392 C1396 1.385 . S
C1393 H1368 0.963 . S
C1393 C1391 1.382 1_545 S
C1393 C1394 1.360 1_545 S
C1394 C1393 1.360 1_565 S
C1394 C1395 1.414 . S
C1394 C1397 1.499 . S
C1395 H1369 0.950 . S
C1395 C1394 1.414 . S
C1395 C1396 1.374 . S
C1396 H1370 0.950 . S
C1396 C1392 1.385 . S
C1396 C1395 1.374 . S
C1397 C1394 1.499 . S
C1397 C1398 1.373 . S
C1397 C1399 1.389 1_565 S
C1398 H1371 0.950 . S
C1398 C1384 1.377 . S
C1398 C1397 1.373 . S
C1399 C1383 1.377 . S
C1399 C1397 1.389 1_545 S
C1399 C1400 1.524 . S
C1400 C1399 1.524 . S
C1400 C1401 1.397 . S
C1400 C1405 1.363 . S
C1401 H1372 0.950 . S
C1401 C1400 1.397 . S
C1401 C1402 1.334 . S
C1402 H1373 0.950 . S
C1402 C1401 1.334 . S
C1402 C1403 1.287 . S
C1403 C1402 1.287 . S
C1403 C1404 1.524 . S
C1403 H1406 0.999 . S
C1404 H1374 0.950 . S
C1404 C1403 1.524 . S
C1404 C1405 1.415 . S
C1405 H1375 0.950 . S
C1405 C1400 1.363 . S
C1405 C1404 1.415 . S
H1406 C1403 0.999 . S
H1407 C1388 0.913 . S
H1408 C1426 0.951 . S
H1409 C1428 0.951 . S
H1410 C1430 0.950 . S
H1411 C1431 0.950 . S
H1412 C1433 0.950 . S
H1413 C1436 0.950 . S
H1414 C1437 0.950 . S
H1415 C1439 0.950 . S
H1416 C1440 0.950 . S
H1417 C1441 0.951 . S
H1418 C1443 0.951 . S
H1419 C1445 0.950 . S
H1420 C1446 0.950 . S
H1421 C1448 0.950 . S
H1422 C1451 0.950 . S
H1423 C1452 0.950 . S
H1424 C1454 0.950 . S
H1425 C1455 0.950 . S
C1426 H1408 0.951 . S
C1426 C1427 1.366 . S
C1426 C1428 1.388 . S
C1427 C1426 1.366 . S
C1427 C1431 1.385 . S
C1428 H1409 0.951 . S
C1428 C1426 1.388 . S
C1428 C1429 1.366 . S
C1429 C1428 1.366 . S
C1429 C1430 1.414 . S
C1429 C1432 1.499 . S
C1430 H1410 0.950 . S
C1430 C1429 1.414 . S
C1430 C1431 1.374 . S
C1431 H1411 0.950 . S
C1431 C1427 1.385 . S
C1431 C1430 1.374 . S
C1432 C1429 1.499 . S
C1432 C1433 1.373 . S
C1432 C1434 1.389 . S
C1433 H1412 0.950 . S
C1433 C1432 1.373 . S
C1433 C1449 1.377 . S
C1434 C1432 1.389 . S
C1434 C1435 1.524 . S
C1434 C1448 1.377 . S
C1435 C1434 1.524 . S
C1435 C1436 1.397 . S
C1435 C1440 1.363 . S
C1436 H1413 0.950 . S
C1436 C1435 1.397 . S
C1436 C1437 1.334 . S
C1437 H1414 0.950 . S
C1437 C1436 1.334 . S
C1437 C1438 1.287 . S
C1438 C1437 1.287 . S
C1438 C1439 1.524 . S
C1438 H1457 0.913 . S
C1439 H1415 0.950 . S
C1439 C1438 1.524 . S
C1439 C1440 1.415 . S
C1440 H1416 0.950 . S
C1440 C1435 1.363 . S
C1440 C1439 1.415 . S
C1441 H1417 0.951 . S
C1441 C1442 1.366 . S
C1441 C1443 1.388 . S
C1442 C1441 1.366 . S
C1442 C1446 1.385 . S
C1443 H1418 0.951 . S
C1443 C1441 1.388 . S
C1443 C1444 1.366 . S
C1444 C1443 1.366 . S
C1444 C1445 1.414 . S
C1444 C1447 1.499 . S
C1445 H1419 0.950 . S
C1445 C1444 1.414 . S
C1445 C1446 1.374 . S
C1446 H1420 0.950 . S
C1446 C1442 1.385 . S
C1446 C1445 1.374 . S
C1447 C1444 1.499 . S
C1447 C1448 1.373 . S
C1447 C1449 1.389 . S
C1448 H1421 0.950 . S
C1448 C1434 1.377 . S
C1448 C1447 1.373 . S
C1449 C1433 1.377 . S
C1449 C1447 1.389 . S
C1449 C1450 1.524 . S
C1450 C1449 1.524 . S
C1450 C1451 1.397 . S
C1450 C1455 1.363 . S
C1451 H1422 0.950 . S
C1451 C1450 1.397 . S
C1451 C1452 1.334 . S
C1452 H1423 0.950 . S
C1452 C1451 1.334 . S
C1452 C1453 1.287 . S
C1453 C1452 1.287 . S
C1453 C1454 1.524 . S
C1453 H1456 0.999 . S
C1454 H1424 0.950 . S
C1454 C1453 1.524 . S
C1454 C1455 1.415 . S
C1455 H1425 0.950 . S
C1455 C1450 1.363 . S
C1455 C1454 1.415 . S
H1456 C1453 0.999 . S
H1457 C1438 0.913 . S
H1458 C1476 0.951 . S
H1459 C1478 0.951 1_655 S
H1460 C1480 0.950 . S
H1461 C1481 0.950 . S
H1462 C1483 0.950 . S
H1463 C1486 0.950 . S
H1464 C1487 0.950 . S
H1465 C1489 0.950 1_655 S
H1466 C1490 0.949 1_655 S
H1467 C1491 0.951 . S
H1468 C1493 0.951 1_455 S
H1469 C1495 0.950 . S
H1470 C1496 0.950 . S
H1471 C1498 0.950 . S
H1472 C1501 0.950 . S
H1473 C1502 0.950 . S
H1474 C1504 0.950 1_455 S
H1475 C1505 0.950 . S
C1476 H1458 0.951 . S
C1476 C1477 1.366 . S
C1476 C1478 1.388 . S
C1477 C1476 1.366 . S
C1477 C1481 1.385 . S
C1478 H1459 0.951 1_455 S
C1478 C1476 1.388 . S
C1478 C1479 1.366 . S
C1479 C1478 1.366 . S
C1479 C1480 1.414 . S
C1479 C1482 1.499 . S
C1480 H1460 0.950 . S
C1480 C1479 1.414 . S
C1480 C1481 1.374 . S
C1481 H1461 0.950 . S
C1481 C1477 1.385 . S
C1481 C1480 1.374 . S
C1482 C1479 1.499 . S
C1482 C1483 1.373 . S
C1482 C1484 1.389 . S
C1483 H1462 0.950 . S
C1483 C1482 1.373 . S
C1483 C1499 1.377 1_455 S
C1484 C1482 1.389 . S
C1484 C1485 1.524 . S
C1484 C1498 1.377 1_455 S
C1485 C1484 1.524 . S
C1485 C1486 1.397 . S
C1485 C1490 1.364 . S
C1486 H1463 0.950 . S
C1486 C1485 1.397 . S
C1486 C1487 1.334 . S
C1487 H1464 0.950 . S
C1487 C1486 1.334 . S
C1487 C1488 1.287 . S
C1488 C1487 1.287 . S
C1488 C1489 1.524 . S
C1488 H1507 0.913 . S
C1489 H1465 0.950 1_455 S
C1489 C1488 1.524 . S
C1489 C1490 1.415 . S
C1490 H1466 0.949 1_455 S
C1490 C1485 1.364 . S
C1490 C1489 1.415 . S
C1491 H1467 0.951 . S
C1491 C1492 1.366 . S
C1491 C1493 1.388 . S
C1492 C1491 1.366 . S
C1492 C1496 1.385 . S
C1493 H1468 0.951 1_655 S
C1493 C1491 1.388 . S
C1493 C1494 1.366 . S
C1494 C1493 1.366 . S
C1494 C1495 1.414 . S
C1494 C1497 1.499 . S
C1495 H1469 0.950 . S
C1495 C1494 1.414 . S
C1495 C1496 1.374 . S
C1496 H1470 0.950 . S
C1496 C1492 1.385 . S
C1496 C1495 1.374 . S
C1497 C1494 1.499 . S
C1497 C1498 1.373 . S
C1497 C1499 1.389 . S
C1498 H1471 0.950 . S
C1498 C1484 1.377 1_655 S
C1498 C1497 1.373 . S
C1499 C1483 1.377 1_655 S
C1499 C1497 1.389 . S
C1499 C1500 1.524 . S
C1500 C1499 1.524 . S
C1500 C1501 1.397 . S
C1500 C1505 1.363 1_655 S
C1501 H1472 0.950 . S
C1501 C1500 1.397 . S
C1501 C1502 1.334 . S
C1502 H1473 0.950 . S
C1502 C1501 1.334 . S
C1502 C1503 1.287 . S
C1503 C1502 1.287 . S
C1503 C1504 1.524 . S
C1503 H1506 0.999 . S
C1504 H1474 0.950 1_655 S
C1504 C1503 1.524 . S
C1504 C1505 1.415 1_655 S
C1505 H1475 0.950 . S
C1505 C1500 1.363 1_455 S
C1505 C1504 1.415 1_455 S
H1506 C1503 0.999 . S
H1507 C1488 0.913 . S
H1508 C1526 0.951 . S
H1509 C1528 0.951 . S
H1510 C1530 0.950 . S
H1511 C1531 0.950 1_565 S
H1512 C1533 0.950 . S
H1513 C1536 0.950 1_565 S
H1514 C1537 0.950 . S
H1515 C1539 0.950 . S
H1516 C1540 0.950 . S
H1517 C1541 0.951 . S
H1518 C1543 0.951 . S
H1519 C1545 0.950 . S
H1520 C1546 0.950 1_545 S
H1521 C1548 0.950 . S
H1522 C1551 0.950 1_545 S
H1523 C1552 0.950 . S
H1524 C1554 0.950 . S
H1525 C1555 0.950 . S
C1526 H1508 0.951 . S
C1526 C1527 1.366 . S
C1526 C1528 1.388 . S
C1527 C1526 1.366 . S
C1527 C1531 1.385 . S
C1528 H1509 0.951 . S
C1528 C1526 1.388 . S
C1528 C1529 1.366 . S
C1529 C1528 1.366 . S
C1529 C1530 1.414 1_545 S
C1529 C1532 1.499 . S
C1530 H1510 0.950 . S
C1530 C1529 1.414 1_565 S
C1530 C1531 1.374 1_565 S
C1531 H1511 0.950 1_545 S
C1531 C1527 1.385 . S
C1531 C1530 1.374 1_545 S
C1532 C1529 1.499 . S
C1532 C1533 1.373 1_545 S
C1532 C1534 1.389 . S
C1533 H1512 0.950 . S
C1533 C1532 1.373 1_565 S
C1533 C1549 1.377 . S
C1534 C1532 1.389 . S
C1534 C1535 1.524 . S
C1534 C1548 1.377 . S
C1535 C1534 1.524 . S
C1535 C1536 1.397 . S
C1535 C1540 1.363 . S
C1536 H1513 0.950 1_545 S
C1536 C1535 1.397 . S
C1536 C1537 1.334 . S
C1537 H1514 0.950 . S
C1537 C1536 1.334 . S
C1537 C1538 1.287 . S
C1538 C1537 1.287 . S
C1538 C1539 1.524 . S
C1538 H1557 0.913 . S
C1539 H1515 0.950 . S
C1539 C1538 1.524 . S
C1539 C1540 1.415 . S
C1540 H1516 0.950 . S
C1540 C1535 1.363 . S
C1540 C1539 1.415 . S
C1541 H1517 0.951 . S
C1541 C1542 1.366 . S
C1541 C1543 1.388 . S
C1542 C1541 1.366 . S
C1542 C1546 1.385 . S
C1543 H1518 0.951 . S
C1543 C1541 1.388 . S
C1543 C1544 1.366 . S
C1544 C1543 1.366 . S
C1544 C1545 1.414 1_565 S
C1544 C1547 1.499 . S
C1545 H1519 0.950 . S
C1545 C1544 1.414 1_545 S
C1545 C1546 1.374 1_545 S
C1546 H1520 0.950 1_565 S
C1546 C1542 1.385 . S
C1546 C1545 1.374 1_565 S
C1547 C1544 1.499 . S
C1547 C1548 1.373 1_565 S
C1547 C1549 1.389 . S
C1548 H1521 0.950 . S
C1548 C1534 1.377 . S
C1548 C1547 1.373 1_545 S
C1549 C1533 1.377 . S
C1549 C1547 1.389 . S
C1549 C1550 1.524 . S
C1550 C1549 1.524 . S
C1550 C1551 1.397 . S
C1550 C1555 1.363 . S
C1551 H1522 0.950 1_565 S
C1551 C1550 1.397 . S
C1551 C1552 1.334 . S
C1552 H1523 0.950 . S
C1552 C1551 1.334 . S
C1552 C1553 1.287 . S
C1553 C1552 1.287 . S
C1553 C1554 1.524 . S
C1553 H1556 0.999 . S
C1554 H1524 0.950 . S
C1554 C1553 1.524 . S
C1554 C1555 1.415 . S
C1555 H1525 0.950 . S
C1555 C1550 1.363 . S
C1555 C1554 1.415 . S
H1556 C1553 0.999 . S
H1557 C1538 0.913 . S
H1558 C1576 0.951 . S
H1559 C1578 0.951 . S
H1560 C1580 0.950 . S
H1561 C1581 0.950 . S
H1562 C1583 0.950 . S
H1563 C1586 0.950 . S
H1564 C1587 0.950 . S
H1565 C1589 0.950 . S
H1566 C1590 0.950 . S
H1567 C1591 0.951 . S
H1568 C1593 0.951 . S
H1569 C1595 0.950 . S
H1570 C1596 0.950 . S
H1571 C1598 0.950 . S
H1572 C1601 0.950 . S
H1573 C1602 0.950 . S
H1574 C1604 0.950 . S
H1575 C1605 0.950 . S
C1576 H1558 0.951 . S
C1576 C1577 1.366 . S
C1576 C1578 1.388 . S
C1577 C1576 1.366 . S
C1577 C1581 1.385 . S
C1578 H1559 0.951 . S
C1578 C1576 1.388 . S
C1578 C1579 1.366 . S
C1579 C1578 1.366 . S
C1579 C1580 1.414 . S
C1579 C1582 1.499 . S
C1580 H1560 0.950 . S
C1580 C1579 1.414 . S
C1580 C1581 1.374 . S
C1581 H1561 0.950 . S
C1581 C1577 1.385 . S
C1581 C1580 1.374 . S
C1582 C1579 1.499 . S
C1582 C1583 1.373 . S
C1582 C1584 1.389 . S
C1583 H1562 0.950 . S
C1583 C1582 1.373 . S
C1583 C1599 1.377 . S
C1584 C1582 1.389 . S
C1584 C1585 1.524 . S
C1584 C1598 1.377 . S
C1585 C1584 1.524 . S
C1585 C1586 1.397 . S
C1585 C1590 1.363 . S
C1586 H1563 0.950 . S
C1586 C1585 1.397 . S
C1586 C1587 1.334 . S
C1587 H1564 0.950 . S
C1587 C1586 1.334 . S
C1587 C1588 1.287 . S
C1588 C1587 1.287 . S
C1588 C1589 1.524 . S
C1588 H1607 0.913 . S
C1589 H1565 0.950 . S
C1589 C1588 1.524 . S
C1589 C1590 1.415 . S
C1590 H1566 0.950 . S
C1590 C1585 1.363 . S
C1590 C1589 1.415 . S
C1591 H1567 0.951 . S
C1591 C1592 1.366 . S
C1591 C1593 1.388 . S
C1592 C1591 1.366 . S
C1592 C1596 1.385 . S
C1593 H1568 0.951 . S
C1593 C1591 1.388 . S
C1593 C1594 1.366 . S
C1594 C1593 1.366 . S
C1594 C1595 1.414 . S
C1594 C1597 1.499 . S
C1595 H1569 0.950 . S
C1595 C1594 1.414 . S
C1595 C1596 1.374 . S
C1596 H1570 0.950 . S
C1596 C1592 1.385 . S
C1596 C1595 1.374 . S
C1597 C1594 1.499 . S
C1597 C1598 1.373 . S
C1597 C1599 1.389 . S
C1598 H1571 0.950 . S
C1598 C1584 1.377 . S
C1598 C1597 1.373 . S
C1599 C1583 1.377 . S
C1599 C1597 1.389 . S
C1599 C1600 1.524 . S
C1600 C1599 1.524 . S
C1600 C1601 1.397 . S
C1600 C1605 1.363 . S
C1601 H1572 0.950 . S
C1601 C1600 1.397 . S
C1601 C1602 1.334 . S
C1602 H1573 0.950 . S
C1602 C1601 1.334 . S
C1602 C1603 1.287 . S
C1603 C1602 1.287 . S
C1603 C1604 1.524 . S
C1603 H1606 0.999 . S
C1604 H1574 0.950 . S
C1604 C1603 1.524 . S
C1604 C1605 1.415 . S
C1605 H1575 0.950 . S
C1605 C1600 1.363 . S
C1605 C1604 1.415 . S
H1606 C1603 0.999 . S
H1607 C1588 0.913 . S
H1608 C1626 0.951 . S
H1609 C1628 0.951 . S
H1610 C1630 0.950 . S
H1611 C1631 0.950 . S
H1612 C1633 0.950 . S
H1613 C1636 0.950 . S
H1614 C1637 0.950 . S
H1615 C1639 0.950 . S
H1616 C1640 0.950 . S
H1617 C1641 0.951 . S
H1618 C1643 0.951 . S
H1619 C1645 0.950 . S
H1620 C1646 0.950 . S
H1621 C1648 0.950 . S
H1622 C1651 0.950 . S
H1623 C1652 0.950 . S
H1624 C1654 0.950 . S
H1625 C1655 0.950 . S
C1626 H1608 0.951 . S
C1626 C1627 1.366 . S
C1626 C1628 1.388 . S
C1627 C1626 1.366 . S
C1627 C1631 1.385 . S
C1628 H1609 0.951 . S
C1628 C1626 1.388 . S
C1628 C1629 1.366 . S
C1629 C1628 1.366 . S
C1629 C1630 1.414 . S
C1629 C1632 1.499 . S
C1630 H1610 0.950 . S
C1630 C1629 1.414 . S
C1630 C1631 1.374 . S
C1631 H1611 0.950 . S
C1631 C1627 1.385 . S
C1631 C1630 1.374 . S
C1632 C1629 1.499 . S
C1632 C1633 1.373 . S
C1632 C1634 1.389 . S
C1633 H1612 0.950 . S
C1633 C1632 1.373 . S
C1633 C1649 1.377 . S
C1634 C1632 1.389 . S
C1634 C1635 1.524 . S
C1634 C1648 1.377 . S
C1635 C1634 1.524 . S
C1635 C1636 1.397 . S
C1635 C1640 1.363 . S
C1636 H1613 0.950 . S
C1636 C1635 1.397 . S
C1636 C1637 1.334 . S
C1637 H1614 0.950 . S
C1637 C1636 1.334 . S
C1637 C1638 1.287 . S
C1638 C1637 1.287 . S
C1638 C1639 1.524 . S
C1638 H1657 0.913 . S
C1639 H1615 0.950 . S
C1639 C1638 1.524 . S
C1639 C1640 1.415 . S
C1640 H1616 0.950 . S
C1640 C1635 1.363 . S
C1640 C1639 1.415 . S
C1641 H1617 0.951 . S
C1641 C1642 1.366 . S
C1641 C1643 1.388 . S
C1642 C1641 1.366 . S
C1642 C1646 1.385 . S
C1643 H1618 0.951 . S
C1643 C1641 1.388 . S
C1643 C1644 1.366 . S
C1644 C1643 1.366 . S
C1644 C1645 1.414 . S
C1644 C1647 1.499 . S
C1645 H1619 0.950 . S
C1645 C1644 1.414 . S
C1645 C1646 1.374 . S
C1646 H1620 0.950 . S
C1646 C1642 1.385 . S
C1646 C1645 1.374 . S
C1647 C1644 1.499 . S
C1647 C1648 1.373 . S
C1647 C1649 1.389 . S
C1648 H1621 0.950 . S
C1648 C1634 1.377 . S
C1648 C1647 1.373 . S
C1649 C1633 1.377 . S
C1649 C1647 1.389 . S
C1649 C1650 1.524 . S
C1650 C1649 1.524 . S
C1650 C1651 1.397 . S
C1650 C1655 1.363 . S
C1651 H1622 0.950 . S
C1651 C1650 1.397 . S
C1651 C1652 1.334 . S
C1652 H1623 0.950 . S
C1652 C1651 1.334 . S
C1652 C1653 1.287 . S
C1653 C1652 1.287 . S
C1653 C1654 1.524 . S
C1653 H1656 0.999 . S
C1654 H1624 0.950 . S
C1654 C1653 1.524 . S
C1654 C1655 1.415 . S
C1655 H1625 0.950 . S
C1655 C1650 1.363 . S
C1655 C1654 1.415 . S
H1656 C1653 0.999 . S
H1657 C1638 0.913 . S
H1658 C1676 0.951 . S
H1659 C1678 0.951 . S
H1660 C1680 0.950 . S
H1661 C1681 0.950 . S
H1662 C1683 0.950 . S
H1663 C1686 0.950 . S
H1664 C1687 0.950 . S
H1665 C1689 0.950 . S
H1666 C1690 0.950 . S
H1667 C1691 0.951 . S
H1668 C1693 0.951 . S
H1669 C1695 0.950 . S
H1670 C1696 0.950 . S
H1671 C1698 0.950 . S
H1672 C1701 0.950 . S
H1673 C1702 0.950 . S
H1674 C1704 0.950 . S
H1675 C1705 0.950 . S
C1676 H1658 0.951 . S
C1676 C1677 1.366 . S
C1676 C1678 1.388 . S
C1677 C1676 1.366 . S
C1677 C1681 1.385 . S
C1678 H1659 0.951 . S
C1678 C1676 1.388 . S
C1678 C1679 1.366 . S
C1679 C1678 1.366 . S
C1679 C1680 1.414 . S
C1679 C1682 1.499 . S
C1680 H1660 0.950 . S
C1680 C1679 1.414 . S
C1680 C1681 1.374 . S
C1681 H1661 0.950 . S
C1681 C1677 1.385 . S
C1681 C1680 1.374 . S
C1682 C1679 1.499 . S
C1682 C1683 1.373 . S
C1682 C1684 1.389 . S
C1683 H1662 0.950 . S
C1683 C1682 1.373 . S
C1683 C1699 1.377 . S
C1684 C1682 1.389 . S
C1684 C1685 1.524 . S
C1684 C1698 1.377 . S
C1685 C1684 1.524 . S
C1685 C1686 1.397 . S
C1685 C1690 1.363 . S
C1686 H1663 0.950 . S
C1686 C1685 1.397 . S
C1686 C1687 1.334 . S
C1687 H1664 0.950 . S
C1687 C1686 1.334 . S
C1687 C1688 1.287 . S
C1688 C1687 1.287 . S
C1688 C1689 1.524 . S
C1688 H1707 0.913 . S
C1689 H1665 0.950 . S
C1689 C1688 1.524 . S
C1689 C1690 1.415 . S
C1690 H1666 0.950 . S
C1690 C1685 1.363 . S
C1690 C1689 1.415 . S
C1691 H1667 0.951 . S
C1691 C1692 1.366 . S
C1691 C1693 1.388 . S
C1692 C1691 1.366 . S
C1692 C1696 1.385 . S
C1693 H1668 0.951 . S
C1693 C1691 1.388 . S
C1693 C1694 1.366 . S
C1694 C1693 1.366 . S
C1694 C1695 1.414 . S
C1694 C1697 1.499 . S
C1695 H1669 0.950 . S
C1695 C1694 1.414 . S
C1695 C1696 1.374 . S
C1696 H1670 0.950 . S
C1696 C1692 1.385 . S
C1696 C1695 1.374 . S
C1697 C1694 1.499 . S
C1697 C1698 1.373 . S
C1697 C1699 1.389 . S
C1698 H1671 0.950 . S
C1698 C1684 1.377 . S
C1698 C1697 1.373 . S
C1699 C1683 1.377 . S
C1699 C1697 1.389 . S
C1699 C1700 1.524 . S
C1700 C1699 1.524 . S
C1700 C1701 1.397 . S
C1700 C1705 1.363 . S
C1701 H1672 0.950 . S
C1701 C1700 1.397 . S
C1701 C1702 1.334 . S
C1702 H1673 0.950 . S
C1702 C1701 1.334 . S
C1702 C1703 1.287 . S
C1703 C1702 1.287 . S
C1703 C1704 1.524 . S
C1703 H1706 0.999 . S
C1704 H1674 0.950 . S
C1704 C1703 1.524 . S
C1704 C1705 1.415 . S
C1705 H1675 0.950 . S
C1705 C1700 1.363 . S
C1705 C1704 1.415 . S
H1706 C1703 0.999 . S
H1707 C1688 0.913 . S
H1708 C1726 0.951 . S
H1709 C1728 0.951 . S
H1710 C1730 0.950 . S
H1711 C1731 0.950 . S
H1712 C1733 0.950 . S
H1713 C1736 0.950 . S
H1714 C1737 0.950 . S
H1715 C1739 0.950 . S
H1716 C1740 0.950 . S
H1717 C1741 0.951 . S
H1718 C1743 0.951 . S
H1719 C1745 0.950 . S
H1720 C1746 0.950 . S
H1721 C1748 0.950 . S
H1722 C1751 0.950 . S
H1723 C1752 0.950 . S
H1724 C1754 0.950 . S
H1725 C1755 0.950 . S
C1726 H1708 0.951 . S
C1726 C1727 1.366 . S
C1726 C1728 1.388 . S
C1727 C1726 1.366 . S
C1727 C1731 1.385 . S
C1728 H1709 0.951 . S
C1728 C1726 1.388 . S
C1728 C1729 1.366 . S
C1729 C1728 1.366 . S
C1729 C1730 1.414 . S
C1729 C1732 1.499 . S
C1730 H1710 0.950 . S
C1730 C1729 1.414 . S
C1730 C1731 1.374 . S
C1731 H1711 0.950 . S
C1731 C1727 1.385 . S
C1731 C1730 1.374 . S
C1732 C1729 1.499 . S
C1732 C1733 1.373 . S
C1732 C1734 1.389 . S
C1733 H1712 0.950 . S
C1733 C1732 1.373 . S
C1733 C1749 1.377 . S
C1734 C1732 1.389 . S
C1734 C1735 1.524 . S
C1734 C1748 1.377 . S
C1735 C1734 1.524 . S
C1735 C1736 1.397 . S
C1735 C1740 1.363 . S
C1736 H1713 0.950 . S
C1736 C1735 1.397 . S
C1736 C1737 1.334 . S
C1737 H1714 0.950 . S
C1737 C1736 1.334 . S
C1737 C1738 1.287 . S
C1738 C1737 1.287 . S
C1738 C1739 1.524 . S
C1738 H1757 0.913 . S
C1739 H1715 0.950 . S
C1739 C1738 1.524 . S
C1739 C1740 1.415 . S
C1740 H1716 0.950 . S
C1740 C1735 1.363 . S
C1740 C1739 1.415 . S
C1741 H1717 0.951 . S
C1741 C1742 1.366 . S
C1741 C1743 1.388 . S
C1742 C1741 1.366 . S
C1742 C1746 1.385 . S
C1743 H1718 0.951 . S
C1743 C1741 1.388 . S
C1743 C1744 1.366 . S
C1744 C1743 1.366 . S
C1744 C1745 1.414 . S
C1744 C1747 1.499 . S
C1745 H1719 0.950 . S
C1745 C1744 1.414 . S
C1745 C1746 1.374 . S
C1746 H1720 0.950 . S
C1746 C1742 1.385 . S
C1746 C1745 1.374 . S
C1747 C1744 1.499 . S
C1747 C1748 1.373 . S
C1747 C1749 1.389 . S
C1748 H1721 0.950 . S
C1748 C1734 1.377 . S
C1748 C1747 1.373 . S
C1749 C1733 1.377 . S
C1749 C1747 1.389 . S
C1749 C1750 1.524 . S
C1750 C1749 1.524 . S
C1750 C1751 1.397 . S
C1750 C1755 1.363 . S
C1751 H1722 0.950 . S
C1751 C1750 1.397 . S
C1751 C1752 1.334 . S
C1752 H1723 0.950 . S
C1752 C1751 1.334 . S
C1752 C1753 1.287 . S
C1753 C1752 1.287 . S
C1753 C1754 1.524 . S
C1753 H1756 0.999 . S
C1754 H1724 0.950 . S
C1754 C1753 1.524 . S
C1754 C1755 1.415 . S
C1755 H1725 0.950 . S
C1755 C1750 1.363 . S
C1755 C1754 1.415 . S
H1756 C1753 0.999 . S
H1757 C1738 0.913 . S
H1758 C1776 0.951 . S
H1759 C1778 0.951 . S
H1760 C1780 0.950 . S
H1761 C1781 0.950 . S
H1762 C1783 0.950 . S
H1763 C1786 0.950 . S
H1764 C1787 0.950 . S
H1765 C1789 0.950 . S
H1766 C1790 0.950 . S
H1767 C1791 0.951 . S
H1768 C1793 0.951 . S
H1769 C1795 0.950 . S
H1770 C1796 0.950 . S
H1771 C1798 0.950 . S
H1772 C1801 0.950 . S
H1773 C1802 0.950 . S
H1774 C1804 0.950 . S
H1775 C1805 0.950 . S
C1776 H1758 0.951 . S
C1776 C1777 1.366 . S
C1776 C1778 1.388 . S
C1777 C1776 1.366 . S
C1777 C1781 1.385 . S
C1778 H1759 0.951 . S
C1778 C1776 1.388 . S
C1778 C1779 1.366 . S
C1779 C1778 1.366 . S
C1779 C1780 1.414 . S
C1779 C1782 1.499 . S
C1780 H1760 0.950 . S
C1780 C1779 1.414 . S
C1780 C1781 1.374 . S
C1781 H1761 0.950 . S
C1781 C1777 1.385 . S
C1781 C1780 1.374 . S
C1782 C1779 1.499 . S
C1782 C1783 1.373 . S
C1782 C1784 1.389 . S
C1783 H1762 0.950 . S
C1783 C1782 1.373 . S
C1783 C1799 1.377 . S
C1784 C1782 1.389 . S
C1784 C1785 1.524 . S
C1784 C1798 1.377 . S
C1785 C1784 1.524 . S
C1785 C1786 1.397 . S
C1785 C1790 1.363 . S
C1786 H1763 0.950 . S
C1786 C1785 1.397 . S
C1786 C1787 1.334 . S
C1787 H1764 0.950 . S
C1787 C1786 1.334 . S
C1787 C1788 1.287 . S
C1788 C1787 1.287 . S
C1788 C1789 1.524 . S
C1788 H1807 0.913 . S
C1789 H1765 0.950 . S
C1789 C1788 1.524 . S
C1789 C1790 1.415 . S
C1790 H1766 0.950 . S
C1790 C1785 1.363 . S
C1790 C1789 1.415 . S
C1791 H1767 0.951 . S
C1791 C1792 1.366 . S
C1791 C1793 1.388 . S
C1792 C1791 1.366 . S
C1792 C1796 1.385 . S
C1793 H1768 0.951 . S
C1793 C1791 1.388 . S
C1793 C1794 1.366 . S
C1794 C1793 1.366 . S
C1794 C1795 1.414 . S
C1794 C1797 1.499 . S
C1795 H1769 0.950 . S
C1795 C1794 1.414 . S
C1795 C1796 1.374 . S
C1796 H1770 0.950 . S
C1796 C1792 1.385 . S
C1796 C1795 1.374 . S
C1797 C1794 1.499 . S
C1797 C1798 1.373 . S
C1797 C1799 1.389 . S
C1798 H1771 0.950 . S
C1798 C1784 1.377 . S
C1798 C1797 1.373 . S
C1799 C1783 1.377 . S
C1799 C1797 1.389 . S
C1799 C1800 1.524 . S
C1800 C1799 1.524 . S
C1800 C1801 1.397 . S
C1800 C1805 1.363 . S
C1801 H1772 0.950 . S
C1801 C1800 1.397 . S
C1801 C1802 1.334 . S
C1802 H1773 0.950 . S
C1802 C1801 1.334 . S
C1802 C1803 1.287 . S
C1803 C1802 1.287 . S
C1803 C1804 1.524 . S
C1803 H1806 0.999 . S
C1804 H1774 0.950 . S
C1804 C1803 1.524 . S
C1804 C1805 1.415 . S
C1805 H1775 0.950 . S
C1805 C1800 1.363 . S
C1805 C1804 1.415 . S
H1806 C1803 0.999 . S
H1807 C1788 0.913 . S
H1808 C1826 0.951 . S
H1809 C1828 0.951 . S
H1810 C1830 0.950 . S
H1811 C1831 0.950 . S
H1812 C1833 0.950 . S
H1813 C1836 0.950 . S
H1814 C1837 0.950 . S
H1815 C1839 0.950 . S
H1816 C1840 0.950 . S
H1817 C1841 0.951 . S
H1818 C1843 0.951 . S
H1819 C1845 0.950 . S
H1820 C1846 0.950 . S
H1821 C1848 0.950 . S
H1822 C1851 0.950 . S
H1823 C1852 0.950 . S
H1824 C1854 0.950 . S
H1825 C1855 0.950 . S
C1826 H1808 0.951 . S
C1826 C1827 1.366 . S
C1826 C1828 1.388 . S
C1827 C1826 1.366 . S
C1827 C1831 1.385 . S
C1828 H1809 0.951 . S
C1828 C1826 1.388 . S
C1828 C1829 1.366 . S
C1829 C1828 1.366 . S
C1829 C1830 1.414 . S
C1829 C1832 1.499 . S
C1830 H1810 0.950 . S
C1830 C1829 1.414 . S
C1830 C1831 1.374 . S
C1831 H1811 0.950 . S
C1831 C1827 1.385 . S
C1831 C1830 1.374 . S
C1832 C1829 1.499 . S
C1832 C1833 1.373 . S
C1832 C1834 1.389 . S
C1833 H1812 0.950 . S
C1833 C1832 1.373 . S
C1833 C1849 1.377 . S
C1834 C1832 1.389 . S
C1834 C1835 1.524 . S
C1834 C1848 1.377 . S
C1835 C1834 1.524 . S
C1835 C1836 1.397 . S
C1835 C1840 1.363 . S
C1836 H1813 0.950 . S
C1836 C1835 1.397 . S
C1836 C1837 1.334 . S
C1837 H1814 0.950 . S
C1837 C1836 1.334 . S
C1837 C1838 1.287 . S
C1838 C1837 1.287 . S
C1838 C1839 1.524 . S
C1838 H1857 0.913 . S
C1839 H1815 0.950 . S
C1839 C1838 1.524 . S
C1839 C1840 1.415 . S
C1840 H1816 0.950 . S
C1840 C1835 1.363 . S
C1840 C1839 1.415 . S
C1841 H1817 0.951 . S
C1841 C1842 1.366 . S
C1841 C1843 1.388 . S
C1842 C1841 1.366 . S
C1842 C1846 1.385 . S
C1843 H1818 0.951 . S
C1843 C1841 1.388 . S
C1843 C1844 1.366 . S
C1844 C1843 1.366 . S
C1844 C1845 1.414 . S
C1844 C1847 1.499 . S
C1845 H1819 0.950 . S
C1845 C1844 1.414 . S
C1845 C1846 1.374 . S
C1846 H1820 0.950 . S
C1846 C1842 1.385 . S
C1846 C1845 1.374 . S
C1847 C1844 1.499 . S
C1847 C1848 1.373 . S
C1847 C1849 1.389 . S
C1848 H1821 0.950 . S
C1848 C1834 1.377 . S
C1848 C1847 1.373 . S
C1849 C1833 1.377 . S
C1849 C1847 1.389 . S
C1849 C1850 1.524 . S
C1850 C1849 1.524 . S
C1850 C1851 1.397 . S
C1850 C1855 1.363 . S
C1851 H1822 0.950 . S
C1851 C1850 1.397 . S
C1851 C1852 1.334 . S
C1852 H1823 0.950 . S
C1852 C1851 1.334 . S
C1852 C1853 1.287 . S
C1853 C1852 1.287 . S
C1853 C1854 1.524 . S
C1853 H1856 0.999 . S
C1854 H1824 0.950 . S
C1854 C1853 1.524 . S
C1854 C1855 1.415 . S
C1855 H1825 0.950 . S
C1855 C1850 1.363 . S
C1855 C1854 1.415 . S
H1856 C1853 0.999 . S
H1857 C1838 0.913 . S
H1858 C1876 0.951 . S
H1859 C1878 0.951 . S
H1860 C1880 0.950 . S
H1861 C1881 0.950 . S
H1862 C1883 0.950 . S
H1863 C1886 0.950 . S
H1864 C1887 0.950 . S
H1865 C1889 0.950 . S
H1866 C1890 0.950 . S
H1867 C1891 0.951 . S
H1868 C1893 0.951 . S
H1869 C1895 0.950 . S
H1870 C1896 0.950 . S
H1871 C1898 0.950 . S
H1872 C1901 0.950 . S
H1873 C1902 0.950 . S
H1874 C1904 0.950 . S
H1875 C1905 0.950 . S
C1876 H1858 0.951 . S
C1876 C1877 1.366 . S
C1876 C1878 1.388 . S
C1877 C1876 1.366 . S
C1877 C1881 1.385 . S
C1878 H1859 0.951 . S
C1878 C1876 1.388 . S
C1878 C1879 1.366 . S
C1879 C1878 1.366 . S
C1879 C1880 1.414 . S
C1879 C1882 1.499 . S
C1880 H1860 0.950 . S
C1880 C1879 1.414 . S
C1880 C1881 1.374 . S
C1881 H1861 0.950 . S
C1881 C1877 1.385 . S
C1881 C1880 1.374 . S
C1882 C1879 1.499 . S
C1882 C1883 1.373 . S
C1882 C1884 1.389 . S
C1883 H1862 0.950 . S
C1883 C1882 1.373 . S
C1883 C1899 1.377 . S
C1884 C1882 1.389 . S
C1884 C1885 1.524 . S
C1884 C1898 1.377 . S
C1885 C1884 1.524 . S
C1885 C1886 1.397 . S
C1885 C1890 1.363 . S
C1886 H1863 0.950 . S
C1886 C1885 1.397 . S
C1886 C1887 1.334 . S
C1887 H1864 0.950 . S
C1887 C1886 1.334 . S
C1887 C1888 1.287 . S
C1888 C1887 1.287 . S
C1888 C1889 1.524 . S
C1888 H1907 0.913 . S
C1889 H1865 0.950 . S
C1889 C1888 1.524 . S
C1889 C1890 1.415 . S
C1890 H1866 0.950 . S
C1890 C1885 1.363 . S
C1890 C1889 1.415 . S
C1891 H1867 0.951 . S
C1891 C1892 1.366 . S
C1891 C1893 1.388 . S
C1892 C1891 1.366 . S
C1892 C1896 1.385 . S
C1893 H1868 0.951 . S
C1893 C1891 1.388 . S
C1893 C1894 1.366 . S
C1894 C1893 1.366 . S
C1894 C1895 1.414 . S
C1894 C1897 1.499 . S
C1895 H1869 0.950 . S
C1895 C1894 1.414 . S
C1895 C1896 1.374 . S
C1896 H1870 0.950 . S
C1896 C1892 1.385 . S
C1896 C1895 1.374 . S
C1897 C1894 1.499 . S
C1897 C1898 1.373 . S
C1897 C1899 1.389 . S
C1898 H1871 0.950 . S
C1898 C1884 1.377 . S
C1898 C1897 1.373 . S
C1899 C1883 1.377 . S
C1899 C1897 1.389 . S
C1899 C1900 1.524 . S
C1900 C1899 1.524 . S
C1900 C1901 1.397 . S
C1900 C1905 1.363 . S
C1901 H1872 0.950 . S
C1901 C1900 1.397 . S
C1901 C1902 1.334 . S
C1902 H1873 0.950 . S
C1902 C1901 1.334 . S
C1902 C1903 1.287 . S
C1903 C1902 1.287 . S
C1903 C1904 1.524 . S
C1903 H1906 0.999 . S
C1904 H1874 0.950 . S
C1904 C1903 1.524 . S
C1904 C1905 1.415 . S
C1905 H1875 0.950 . S
C1905 C1900 1.363 . S
C1905 C1904 1.415 . S
H1906 C1903 0.999 . S
H1907 C1888 0.913 . S
C727 C3 1.708 . S
C742 C357 1.714 . S
C777 C62 1.715 . S
C792 C416 1.708 . S
C827 C123 1.609 . S
C842 C477 1.608 . S
C877 C534 1.714 . S
C892 C180 1.707 . S
C927 C239 1.714 . S
C942 C593 1.707 . S
C977 C654 1.608 . S
C992 C300 1.609 . S
C1027 C33 1.426 . S
C1042 C564 1.429 . S
C1077 C92 1.429 . S
C1092 C623 1.427 . S
C1127 C701 1.325 1_556 S
C1142 C170 1.325 1_554 S
C1177 C387 1.429 . S
C1192 C210 1.427 . S
C1227 C269 1.429 . S
C1242 C446 1.427 . S
C1277 C347 1.325 1_554 S
C1292 C524 1.324 1_556 S
C1327 C652 1.528 . S
C1342 C5 1.526 . S
C1377 C64 1.784 . S
C1392 C359 1.784 . S
C1427 C121 1.528 . S
C1442 C418 1.526 . S
C1477 C475 1.528 . S
C1492 C182 1.525 . S
C1527 C536 1.784 . S
C1542 C241 1.785 . S
C1577 C298 1.528 . S
C1592 C595 1.526 . S
C1627 C52 0.903 . S
C1642 C642 0.902 . S
C1677 C682 1.133 . S
C1692 C111 1.148 . S
C1727 C406 1.143 . S
C1742 C151 1.138 . S
C1777 C229 0.902 . S
C1792 C465 0.903 . S
C1827 C505 1.133 . S
C1842 C288 1.148 . S
C1877 C583 1.143 . S
C1892 C328 1.138 . S
