# Generated by pormake.
# Topology whz, (6)-cn, num edge types: 1
# Building blocks:
#     Node 0, Type 0, BuildingBlock: HISSIN_clean_sbu_0, # of connection points: 6
#     Node 1, Type 0, BuildingBlock: HISSIN_clean_sbu_0, # of connection points: 6
#     Node 2, Type 0, BuildingBlock: HISSIN_clean_sbu_0, # of connection points: 6
#     Node 3, Type 0, BuildingBlock: HISSIN_clean_sbu_0, # of connection points: 6
#     Node 4, Type 0, BuildingBlock: HISSIN_clean_sbu_0, # of connection points: 6
#     Node 5, Type 0, BuildingBlock: HISSIN_clean_sbu_0, # of connection points: 6
#     Node 6, Type 0, BuildingBlock: HISSIN_clean_sbu_0, # of connection points: 6
#     Node 7, Type 0, BuildingBlock: HISSIN_clean_sbu_0, # of connection points: 6
#     Node 8, Type 0, BuildingBlock: HISSIN_clean_sbu_0, # of connection points: 6
#     Node 9, Type 0, BuildingBlock: HISSIN_clean_sbu_0, # of connection points: 6
#     Node 10, Type 0, BuildingBlock: HISSIN_clean_sbu_0, # of connection points: 6
#     Node 11, Type 0, BuildingBlock: HISSIN_clean_sbu_0, # of connection points: 6
#     Node 12, Type 0, BuildingBlock: HISSIN_clean_sbu_0, # of connection points: 6
#     Node 13, Type 0, BuildingBlock: HISSIN_clean_sbu_0, # of connection points: 6
#     Node 14, Type 0, BuildingBlock: HISSIN_clean_sbu_0, # of connection points: 6
#     Node 15, Type 0, BuildingBlock: HISSIN_clean_sbu_0, # of connection points: 6
#     Edge 16, Type (0, 0), None
#     Edge 17, Type (0, 0), None
#     Edge 18, Type (0, 0), None
#     Edge 19, Type (0, 0), None
#     Edge 20, Type (0, 0), None
#     Edge 21, Type (0, 0), None
#     Edge 22, Type (0, 0), None
#     Edge 23, Type (0, 0), None
#     Edge 24, Type (0, 0), None
#     Edge 25, Type (0, 0), None
#     Edge 26, Type (0, 0), None
#     Edge 27, Type (0, 0), None
#     Edge 28, Type (0, 0), None
#     Edge 29, Type (0, 0), None
#     Edge 30, Type (0, 0), None
#     Edge 31, Type (0, 0), None
#     Edge 32, Type (0, 0), None
#     Edge 33, Type (0, 0), None
#     Edge 34, Type (0, 0), None
#     Edge 35, Type (0, 0), None
#     Edge 36, Type (0, 0), None
#     Edge 37, Type (0, 0), None
#     Edge 38, Type (0, 0), None
#     Edge 39, Type (0, 0), None
#     Edge 40, Type (0, 0), None
#     Edge 41, Type (0, 0), None
#     Edge 42, Type (0, 0), None
#     Edge 43, Type (0, 0), None
#     Edge 44, Type (0, 0), None
#     Edge 45, Type (0, 0), None
#     Edge 46, Type (0, 0), None
#     Edge 47, Type (0, 0), None
#     Edge 48, Type (0, 0), None
#     Edge 49, Type (0, 0), None
#     Edge 50, Type (0, 0), None
#     Edge 51, Type (0, 0), None
#     Edge 52, Type (0, 0), None
#     Edge 53, Type (0, 0), None
#     Edge 54, Type (0, 0), None
#     Edge 55, Type (0, 0), None
#     Edge 56, Type (0, 0), None
#     Edge 57, Type (0, 0), None
#     Edge 58, Type (0, 0), None
#     Edge 59, Type (0, 0), None
#     Edge 60, Type (0, 0), None
#     Edge 61, Type (0, 0), None
#     Edge 62, Type (0, 0), None
#     Edge 63, Type (0, 0), None
# Relax obj value: 1.210
# Max RMSD: 0.365
# Mean RMSD: 0.365
data_MOF--net-whz--node1-HISSIN_clean_sbu_0--edge1-none
_symmetry_space_group_name_H-M    P1
_symmetry_Int_Tables_number       1
_symmetry_cell_setting            triclinic
loop_
_symmetry_equiv_pos_as_xyz
'x, y, z'
_cell_length_a     16.092311
_cell_length_b     16.078418
_cell_length_c     41.009922
_cell_angle_alpha  89.913408
_cell_angle_beta   89.999103
_cell_angle_gamma 90.145079
loop_
_atom_site_label
_atom_site_type_symbol
_atom_site_fract_x
_atom_site_fract_y
_atom_site_fract_z
_atom_type_partial_charge
Eu0 Eu 0.38206 0.23866 0.24203 0.0
Eu1 Eu 0.35591 0.21981 0.16944 0.0
C2 C 0.40563 1.05559 0.21692 0.0
C3 C 0.41943 0.27832 0.32944 0.0
C4 C 0.38447 0.22463 0.35226 0.0
C5 C 0.28676 0.3338 0.31675 0.0
C6 C 0.2999 0.20745 0.34871 0.0
C7 C 0.3714 0.34739 0.32113 0.0
C8 C 0.24967 0.25905 0.32839 0.0
C9 C 0.44597 0.23367 0.30018 0.0
O10 O 0.23603 0.16008 0.18839 0.0
O11 O 0.25209 0.17925 0.24401 0.0
C12 C 0.20909 0.15038 0.21881 0.0
O13 O 0.29819 0.34642 0.23732 0.0
O14 O 0.3534 0.12757 0.12922 0.0
O15 O 0.3608 0.26159 0.1189 0.0
O16 O 0.2927 0.34809 0.18106 0.0
C17 C 0.27401 0.38129 0.21005 0.0
O18 O 0.48405 0.31762 0.22069 0.0
O19 O 0.49416 0.25255 0.17207 0.0
O20 O 0.4144 0.13528 0.20907 0.0
O21 O 0.39231 0.17967 0.28916 0.0
O22 O 0.47404 0.28043 0.27674 0.0
O23 O 0.41373 0.13349 0.20823 0.0
C24 C 0.36451 0.17086 1.07098 0.0
C25 C 0.36522 0.23832 1.04894 0.0
C26 C 0.36352 0.07682 1.02395 0.0
C27 C 0.35932 0.22517 1.01509 0.0
C28 C 0.36684 0.08985 1.05796 0.0
C29 C 0.35463 0.14423 1.00224 0.0
C30 C 0.36128 0.18606 0.10706 0.0
C31 C 0.52803 0.29716 0.19524 0.0
H32 H 0.42355 0.18157 0.36539 0.0
H33 H 0.2522 0.3814 0.30401 0.0
H34 H 0.27553 0.15341 0.36119 0.0
H35 H 0.39979 0.40057 0.30922 0.0
H36 H 0.36543 0.30168 1.05787 0.0
H37 H 0.36291 1.01369 1.01484 0.0
H38 H 0.35415 0.2785 0.99905 0.0
H39 H 0.36886 1.03641 1.07405 0.0
Eu40 Eu 0.65256 0.62533 0.49508 0.0
Eu41 Eu 0.66602 0.59779 0.42136 0.0
C42 C 0.83574 0.65319 0.46807 0.0
C43 C 0.61159 0.73853 0.5692 0.0
C44 C 0.62428 0.75305 0.60265 0.0
C45 C 0.46512 0.72515 0.57985 0.0
C46 C 0.55675 0.73832 0.6236 0.0
C47 C 0.52936 0.73307 0.55728 0.0
C48 C 0.4908 0.69259 0.60978 0.0
C49 C 0.67551 0.70075 0.54977 0.0
O50 O 0.71568 0.47454 0.44057 0.0
O51 O 0.70933 0.49561 0.49647 0.0
C52 C 0.72914 0.4494 0.47103 0.0
O53 O 0.53416 0.555 0.49055 0.0
O54 O 0.7585 0.59435 0.38124 0.0
O55 O 0.62484 0.60263 0.37071 0.0
O56 O 0.53964 0.53401 0.43458 0.0
C57 C 0.50311 0.52324 0.46363 0.0
O58 O 0.56541 0.72095 0.47382 0.0
O59 O 0.63115 0.73473 0.42525 0.0
O60 O 0.75568 0.64477 0.4613 0.0
O61 O 0.66794 0.61977 0.54758 0.0
O62 O 0.68775 0.73661 0.52165 0.0
O63 O 0.75772 0.64417 0.45979 0.0
C64 C 0.71637 0.60491 0.32286 0.0
C65 C 0.6497 0.60907 0.30056 0.0
C66 C 0.81146 0.60304 0.27615 0.0
C67 C 0.6636 0.60446 0.26667 0.0
C68 C 0.79763 0.60485 0.31012 0.0
C69 C 0.74459 0.59724 0.25408 0.0
C70 C 0.70044 0.60212 0.35895 0.0
C71 C 0.58394 0.76593 0.44815 0.0
H72 H 0.68584 0.76262 0.61258 0.0
H73 H 0.40257 0.71473 0.571 0.0
H74 H 0.56816 0.7355 0.64961 0.0
H75 H 0.51597 0.72612 0.53163 0.0
H76 H 0.58624 0.61156 0.30928 0.0
H77 H 0.87476 0.60196 0.26732 0.0
H78 H 0.61066 0.60237 0.25038 0.0
H79 H 0.85065 0.60472 0.32638 0.0
Eu80 Eu 0.24853 0.89066 0.74246 0.0
Eu81 Eu 0.27538 0.90972 0.66994 0.0
C82 C 0.22557 0.07389 0.71725 0.0
C83 C 0.21091 0.85001 0.82972 0.0
C84 C 0.24567 0.90319 0.85269 0.0
C85 C 0.34369 0.79435 0.81728 0.0
C86 C 0.33031 0.9202 0.84939 0.0
C87 C 0.2589 0.78102 0.82134 0.0
C88 C 0.38078 0.86877 0.82915 0.0
C89 C 0.18448 0.89525 0.80054 0.0
O90 O 0.3944 0.96995 0.68899 0.0
O91 O 0.37856 0.94924 0.74456 0.0
C92 C 0.42129 0.97879 0.71942 0.0
O93 O 0.33271 0.78322 0.73823 0.0
O94 O 0.27719 1.00089 0.62919 0.0
O95 O 0.27359 0.86633 0.61971 0.0
O96 O 0.3388 0.78198 0.682 0.0
C97 C 0.35738 0.74881 0.71102 0.0
O98 O 0.1478 0.81095 0.72083 0.0
O99 O 0.13725 0.87722 0.6724 0.0
O100 O 0.21657 0.99429 0.70939 0.0
O101 O 0.23831 0.94925 0.7896 0.0
O102 O 0.15625 0.84897 0.77704 0.0
O103 O 0.21723 0.99607 0.70858 0.0
C104 C 0.26991 0.955 0.57121 0.0
C105 C 0.27444 0.88666 0.54978 0.0
C106 C 0.26615 1.04671 0.52339 0.0
C107 C 0.28037 0.89852 0.51589 0.0
C108 C 0.26294 1.03512 0.5575 0.0
C109 C 0.27946 0.97888 0.50232 0.0
C110 C 0.27184 0.94141 0.60738 0.0
C111 C 0.10366 0.83197 0.69548 0.0
H112 H 0.20648 0.94604 0.86583 0.0
H113 H 0.37837 0.74688 0.80459 0.0
H114 H 0.35459 0.97396 0.86201 0.0
H115 H 0.23058 0.72822 0.80921 0.0
H116 H 0.27795 0.82385 0.55924 0.0
H117 H 0.26329 0.1093 0.5137 0.0
H118 H 0.28936 0.84486 0.50035 0.0
H119 H 0.25708 0.08902 0.57313 0.0
Eu120 Eu 0.97741 0.50134 0.99503 0.0
Eu121 Eu 0.96531 0.529 0.92142 0.0
C122 C 0.79484 0.47481 0.96764 0.0
C123 C 1.01957 0.3979 1.07075 0.0
C124 C 1.00768 0.39212 0.10459 0.0
C125 C 0.16412 0.42762 1.08006 0.0
C126 C 0.07333 0.41799 0.12458 0.0
C127 C 0.10127 0.40586 1.05847 0.0
C128 C 0.13562 0.46449 0.10873 0.0
C129 C 0.95423 0.42949 1.05042 0.0
O130 O 0.915 0.65229 0.94039 0.0
O131 O 0.92072 0.63097 0.99625 0.0
C132 C 0.90112 0.67731 0.97081 0.0
O133 O 0.09615 0.57145 0.99065 0.0
O134 O 0.87279 0.53127 0.8813 0.0
O135 O 1.0066 0.52584 0.87079 0.0
O136 O 0.09151 0.59284 0.9347 0.0
C137 C 0.12778 0.60323 0.96379 0.0
O138 O 1.0643 0.40431 0.97468 0.0
O139 O 1.00259 0.39235 0.92517 0.0
O140 O 0.87521 0.48068 0.961 0.0
O141 O 0.9574 0.51044 1.04713 0.0
O142 O 0.94521 0.39065 1.02277 0.0
O143 O 0.87315 0.48136 0.95949 0.0
C144 C 0.91521 0.52242 0.82296 0.0
C145 C 0.98202 0.51912 0.80072 0.0
C146 C 0.8203 0.52387 0.77622 0.0
C147 C 0.96824 0.52402 0.76685 0.0
C148 C 0.83399 0.52185 0.81018 0.0
C149 C 0.88725 0.53053 0.75422 0.0
C150 C 0.93101 0.52499 0.85903 0.0
C151 C 1.04806 0.36037 0.94854 0.0
H152 H 0.94687 0.381 0.11499 0.0
H153 H 0.22506 0.44213 1.07038 0.0
H154 H 1.06122 0.42726 0.15028 0.0
H155 H 0.11433 0.40501 1.03264 0.0
H156 H 1.04547 0.51714 0.80948 0.0
H157 H 0.75704 0.52462 0.76732 0.0
H158 H 1.02124 0.52687 0.75059 0.0
H159 H 0.78091 0.52136 0.82642 0.0
Eu160 Eu 0.77362 0.91661 1.01764 0.0
Eu161 Eu 0.74843 0.90081 0.94499 0.0
C162 C 0.85622 0.75777 0.97512 0.0
C163 C 0.76668 0.95907 0.11671 0.0
C164 C 0.77143 0.89049 0.13815 0.0
C165 C 0.7675 1.05042 0.16459 0.0
C166 C 0.77955 0.90198 0.17206 0.0
C167 C 0.76218 1.03915 0.13051 0.0
C168 C 0.7809 0.98232 0.18563 0.0
C169 C 0.76906 0.94621 1.08043 0.0
O170 O 0.65219 0.81468 0.96607 0.0
O171 O 0.63676 0.88117 1.01416 0.0
C172 C 0.60606 0.83431 0.99106 0.0
O173 O 0.71556 1.00255 0.97857 0.0
O174 O 0.74492 0.95677 0.89712 0.0
O175 O 0.65059 0.86968 0.91128 0.0
O176 O 0.71624 1.00438 0.97944 0.0
C177 C 0.72375 0.08234 0.97089 0.0
O178 O 0.89391 0.97593 0.99909 0.0
O179 O 0.87867 0.95775 0.94342 0.0
O180 O 0.83171 0.79271 0.94801 0.0
O181 O 0.77215 1.00633 1.05875 0.0
O182 O 0.77148 0.87154 1.06781 0.0
O183 O 0.83727 0.78992 1.0043 0.0
C184 C 0.70603 0.85724 0.85891 0.0
C185 C 0.7406 0.90452 0.83397 0.0
C186 C 0.83786 0.7981 0.87088 0.0
C187 C 0.82607 0.9186 0.83561 0.0
C188 C 0.7521 0.78792 0.86863 0.0
C189 C 0.8762 0.86947 0.85689 0.0
C190 C 0.68469 0.90889 0.88703 0.0
C191 C 0.92154 0.98525 0.96876 0.0
H192 H 0.77378 0.82776 0.12863 0.0
H193 H 0.7662 0.113 0.17426 0.0
H194 H 0.7886 0.8481 0.18754 0.0
H195 H 0.75689 0.09335 0.11494 0.0
H196 H 0.70185 0.94611 0.81998 0.0
H197 H 0.87223 0.75148 0.88423 0.0
H198 H 0.85097 0.96895 0.82111 0.0
H199 H 0.72296 0.7387 0.88268 0.0
Eu200 Eu 0.46446 0.5239 0.76677 0.0
Eu201 Eu 0.48331 0.49094 0.69501 0.0
C202 C 0.62423 0.6052 0.7246 0.0
C203 C 0.41631 0.51993 0.86516 0.0
C204 C 0.48366 0.51549 0.88709 0.0
C205 C 0.32263 0.52181 0.91226 0.0
C206 C 0.47086 0.52012 0.92097 0.0
C207 C 0.33541 0.52019 0.87823 0.0
C208 C 0.39038 0.52702 0.93399 0.0
C209 C 0.43125 0.52164 0.8291 0.0
O210 O 0.56989 0.4006 0.71931 0.0
O211 O 0.49346 0.38595 0.76486 0.0
C212 C 0.54509 0.35476 0.74372 0.0
O213 O 0.37817 0.46451 0.72807 0.0
O214 O 0.42755 0.47796 0.64762 0.0
O215 O 0.51484 0.38644 0.66381 0.0
O216 O 0.37645 0.46534 0.72891 0.0
C217 C 0.29942 0.47622 0.71968 0.0
O218 O 0.41136 0.64333 0.74625 0.0
O219 O 0.4277 0.62198 0.69075 0.0
O220 O 0.59083 0.5769 0.69761 0.0
O221 O 0.37317 0.53349 0.80708 0.0
O222 O 0.50653 0.51701 0.81714 0.0
O223 O 0.59143 0.58784 0.75385 0.0
C224 C 0.52437 0.43218 0.60954 0.0
C225 C 0.47607 0.46433 0.58436 0.0
C226 C 0.58169 0.56511 0.61996 0.0
C227 C 0.46043 0.54975 0.58541 0.0
C228 C 0.59408 0.47975 0.61758 0.0
C229 C 0.50821 0.60102 0.60668 0.0
C230 C 0.47453 0.41595 0.63888 0.0
C231 C 0.40229 0.66813 0.71558 0.0
H232 H 0.54686 0.51286 0.87808 0.0
H233 H 0.25963 0.52309 0.92141 0.0
H234 H 0.52435 0.52242 0.93699 0.0
H235 H 0.28195 0.52041 0.86219 0.0
H236 H 0.43584 0.42379 0.57051 0.0
H237 H 0.62803 0.60057 0.63305 0.0
H238 H 0.40985 0.57382 0.57093 0.0
H239 H 0.64504 0.45227 0.63106 0.0
Eu240 Eu 0.857 0.20981 0.51728 0.0
Eu241 Eu 0.88266 0.2268 0.44482 0.0
C242 C 0.77411 0.36902 0.4753 0.0
C243 C 0.86227 0.1642 0.61624 0.0
C244 C 0.86266 0.23228 0.63794 0.0
C245 C 0.85814 0.07176 0.66384 0.0
C246 C 0.85504 0.22028 0.67187 0.0
C247 C 0.86251 0.08366 0.62977 0.0
C248 C 0.84914 0.13979 0.68518 0.0
C249 C 0.86032 0.17808 0.57998 0.0
O250 O 0.97775 0.3137 0.46604 0.0
O251 O 0.99422 0.24505 0.51366 0.0
C252 C 1.0244 0.29335 0.49081 0.0
O253 O 0.91558 0.12439 0.47832 0.0
O254 O 0.88659 0.17144 0.39694 0.0
O255 O 0.9805 0.25881 0.4112 0.0
O256 O 0.91489 0.1226 0.47915 0.0
C257 C 0.90647 1.04486 0.47051 0.0
O258 O 0.737 0.15157 0.49796 0.0
O259 O 0.7524 0.17061 0.44242 0.0
O260 O 0.79904 0.33466 0.44815 0.0
O261 O 0.85138 0.11905 0.55816 0.0
O262 O 0.86446 0.25296 0.56755 0.0
O263 O 0.79276 0.33639 0.50444 0.0
C264 C 0.92488 0.27164 0.35885 0.0
C265 C 0.89014 0.22458 0.33392 0.0
C266 C 0.79318 0.33093 0.3709 0.0
C267 C 0.80462 0.21082 0.33556 0.0
C268 C 0.87897 0.34092 0.36865 0.0
C269 C 0.75461 0.2599 0.35684 0.0
C270 C 0.94657 0.21976 0.38691 0.0
C271 C 0.70935 0.14286 0.46765 0.0
H272 H 0.86416 0.29534 0.62863 0.0
H273 H 0.8574 1.00893 0.67328 0.0
H274 H 0.8502 0.27413 0.68759 0.0
H275 H 0.86449 1.02968 0.61403 0.0
H276 H 0.92872 0.18275 0.32 0.0
H277 H 0.75896 0.37746 0.3843 0.0
H278 H 0.77956 0.16068 0.32104 0.0
H279 H 0.90823 0.38987 0.38274 0.0
Eu280 Eu 0.1682 0.60461 0.26657 0.0
Eu281 Eu 0.15031 0.64235 0.19488 0.0
C282 C 1.00811 0.52646 0.22337 0.0
C283 C 0.21232 0.60741 0.36538 0.0
C284 C 0.14379 0.61361 0.38671 0.0
C285 C 0.30298 0.60434 0.41338 0.0
C286 C 0.15442 0.60995 0.42076 0.0
C287 C 0.29236 0.6056 0.37923 0.0
C288 C 0.23392 0.60172 0.43451 0.0
C289 C 0.19933 0.60593 0.32914 0.0
O290 O 1.05937 0.7259 0.22023 0.0
O291 O 0.13931 0.74236 0.26458 0.0
C292 C 0.08451 0.77217 0.2444 0.0
O293 O 0.25592 0.66382 0.22826 0.0
O294 O 0.20205 0.65757 0.14697 0.0
O295 O 0.12909 0.75671 0.16686 0.0
O296 O 0.25759 0.66291 0.22904 0.0
C297 C 0.33398 0.64948 0.21952 0.0
O298 O 0.21996 0.48559 0.24556 0.0
O299 O 0.20547 0.5105 0.19012 0.0
O300 O 1.0407 0.55783 0.19659 0.0
O301 O 0.25823 0.59394 0.30746 0.0
O302 O 0.12461 0.61087 0.31669 0.0
O303 O 1.04172 0.54091 0.25273 0.0
C304 C 0.10872 0.72169 0.11166 0.0
C305 C 0.1519 0.69239 1.08451 0.0
C306 C 1.04296 0.59088 0.11832 0.0
C307 C 0.16135 0.60608 1.08243 0.0
C308 C 1.03627 0.67723 0.11901 0.0
C309 C 0.11431 0.55438 0.10372 0.0
C310 C 0.16256 0.72648 0.14059 0.0
C311 C 0.22951 0.46238 0.21475 0.0
H312 H 0.08121 0.61722 0.37712 0.0
H313 H 0.36533 0.60214 0.42314 0.0
H314 H 0.09997 0.60893 0.43628 0.0
H315 H 0.34678 0.60391 0.3637 0.0
H316 H 0.19422 0.73288 1.07153 0.0
H317 H 0.99613 0.5551 0.13107 0.0
H318 H 0.20863 0.58168 1.06648 0.0
H319 H 0.98852 0.70474 0.13415 0.0
Eu320 Eu 0.88244 0.73118 0.74115 0.0
Eu321 Eu 0.84962 0.71955 0.67158 0.0
C322 C 0.87278 0.55304 0.71915 0.0
C323 C 1.00962 0.76929 0.81423 0.0
C324 C 1.02638 0.74999 0.84704 0.0
C325 C 0.99989 0.91327 0.8295 0.0
C326 C 1.01337 0.8128 0.87021 0.0
C327 C 1.00398 0.85359 0.80499 0.0
C328 C 0.96888 0.88253 0.85894 0.0
C329 C 0.96856 0.70881 0.79378 0.0
O330 O 0.72764 0.66589 0.68957 0.0
O331 O 0.75125 0.67475 0.74494 0.0
C332 C 0.70356 0.65288 0.72004 0.0
O333 O 0.8076 0.84707 0.74055 0.0
O334 O 0.84089 0.63407 0.62939 0.0
O335 O 0.86145 0.76789 0.62199 0.0
O336 O 0.78447 0.84477 0.68511 0.0
C337 C 0.774 0.87965 0.71435 0.0
O338 O 0.96701 0.82864 0.71943 0.0
O339 O 0.9869 0.75272 0.67455 0.0
O340 O 0.90803 0.62106 0.70644 0.0
O341 O 0.8873 0.71446 0.79369 0.0
O342 O 0.99978 0.70152 0.76461 0.0
O343 O 0.90353 0.62241 0.70786 0.0
C344 C 0.86097 0.683 0.57236 0.0
C345 C 0.86912 0.75215 0.5513 0.0
C346 C 0.85827 0.59341 0.52418 0.0
C347 C 0.86777 0.74219 0.51715 0.0
C348 C 0.8588 0.60326 0.55829 0.0
C349 C 0.85874 0.66284 0.50321 0.0
C350 C 0.85657 0.69426 0.60861 0.0
C351 C 1.01455 0.80839 0.6949 0.0
H352 H 1.03602 0.68651 0.85491 0.0
H353 H 0.98908 0.97711 0.82256 0.0
H354 H 1.01201 0.79597 0.89579 0.0
H355 H 0.99467 0.87207 0.77987 0.0
H356 H 0.87284 0.81449 0.56117 0.0
H357 H 0.85474 0.53129 0.51421 0.0
H358 H 0.86842 0.79693 0.50172 0.0
H359 H 0.85521 0.54844 0.57361 0.0
Eu360 Eu 0.15478 0.13356 0.99078 0.0
Eu361 Eu 0.16243 0.1069 0.92086 0.0
C362 C 0.33065 0.13025 0.96733 0.0
C363 C 0.11117 0.22902 1.06765 0.0
C364 C 0.1249 0.22372 0.10126 0.0
C365 C 0.97429 0.17241 1.07454 0.0
C366 C 0.06552 0.18198 0.1198 0.0
C367 C 1.03004 0.2168 1.05556 0.0
C368 C 1.00787 0.13405 0.10209 0.0
C369 C 0.17729 0.20596 1.04603 0.0
O370 O 0.21996 0.98434 0.93744 0.0
O371 O 0.20847 1.00211 0.99291 0.0
C372 C 0.23196 0.95729 0.96762 0.0
O373 O 1.03626 1.06214 0.99041 0.0
O374 O 0.24728 0.10908 0.87821 0.0
O375 O 0.11216 0.10687 0.87134 0.0
O376 O 1.0371 1.04197 0.9349 0.0
C377 C 1.00212 1.03102 0.96411 0.0
O378 O 1.05902 0.22394 0.97245 0.0
O379 O 0.12409 0.24364 0.92465 0.0
O380 O 0.26185 0.16521 0.95537 0.0
O381 O 0.18251 0.12537 1.04232 0.0
O382 O 0.17918 0.24639 1.01847 0.0
O383 O 0.26065 0.16041 0.95674 0.0
C384 C 0.1949 0.1134 0.82109 0.0
C385 C 0.12555 0.10022 0.80072 0.0
C386 C 0.28174 0.11982 0.7719 0.0
C387 C 0.13482 0.09122 0.76679 0.0
C388 C 0.27285 0.12592 0.80611 0.0
C389 C 0.21337 0.09873 0.75204 0.0
C390 C 0.18524 0.1114 0.85752 0.0
C391 C 0.07518 0.27191 0.94757 0.0
H392 H 0.1849 0.23817 0.11178 0.0
H393 H 0.91785 0.14987 1.06321 0.0
H394 H 0.08152 0.1654 0.14459 0.0
H395 H 1.01498 0.22767 1.03027 0.0
H396 H 1.06421 0.09371 0.81113 0.0
H397 H 0.34305 0.1261 0.76127 0.0
H398 H 0.08092 0.07551 0.7522 0.0
H399 H 0.32745 0.13759 0.82086 0.0
Eu400 Eu 0.75096 0.3968 0.24051 0.0
Eu401 Eu 0.78257 0.40929 0.17109 0.0
C402 C 0.75911 0.57535 0.21894 0.0
C403 C 0.62241 0.35982 0.31362 0.0
C404 C 0.60536 0.37985 0.34631 0.0
C405 C 0.63078 0.21608 0.32948 0.0
C406 C 0.61762 0.31737 0.36975 0.0
C407 C 0.62702 0.27531 0.30471 0.0
C408 C 0.66184 0.24721 0.35883 0.0
C409 C 0.66492 0.41944 0.29314 0.0
O410 O 0.90436 0.46529 0.18837 0.0
O411 O 0.88224 0.45418 0.24375 0.0
C412 C 0.92907 0.47783 0.21876 0.0
O413 O 0.82451 0.28005 0.23971 0.0
O414 O 0.78929 0.49473 0.12872 0.0
O415 O 0.77043 0.36063 0.12163 0.0
O416 O 0.84757 0.28333 0.18431 0.0
C417 C 0.85762 0.24749 0.21344 0.0
O418 O 0.66509 0.30011 0.21904 0.0
O419 O 0.64502 0.37659 0.17426 0.0
O420 O 0.72409 0.5074 0.20611 0.0
O421 O 0.74609 0.41237 0.29311 0.0
O422 O 0.63395 0.42744 0.26396 0.0
O423 O 0.72881 0.50606 0.20748 0.0
C424 C 0.76872 0.44528 1.07186 0.0
C425 C 0.76257 0.3758 1.05097 0.0
C426 C 0.76965 0.5346 1.02348 0.0
C427 C 0.76426 0.38554 1.01681 0.0
C428 C 0.76888 0.52497 1.05761 0.0
C429 C 0.77129 0.46498 1.0027 0.0
C430 C 0.77397 0.43426 0.10811 0.0
C431 C 0.61728 0.32081 0.19462 0.0
H432 H 0.59616 0.44353 0.35392 0.0
H433 H 0.64122 0.15202 0.32283 0.0
H434 H 0.61874 0.33464 0.39527 0.0
H435 H 0.63623 0.2563 0.27967 0.0
H436 H 0.76055 0.31345 1.06097 0.0
H437 H 0.77225 0.5967 1.01335 0.0
H438 H 0.76537 0.33068 1.00152 0.0
H439 H 0.77106 0.57995 1.07282 0.0
Eu440 Eu 0.47854 0.9916 0.49077 0.0
Eu441 Eu 0.46935 1.01893 0.42047 0.0
C442 C 0.30257 0.99244 0.46733 0.0
C443 C 0.53322 0.90892 0.56899 0.0
C444 C 0.51792 0.93621 0.60059 0.0
C445 C 0.6345 1.01485 0.56056 0.0
C446 C 0.54601 1.0155 0.60814 0.0
C447 C 0.60906 0.93346 0.55481 0.0
C448 C 0.59057 1.06045 0.58397 0.0
C449 C 0.46339 0.92114 0.54694 0.0
O450 O 0.41139 0.14045 0.43755 0.0
O451 O 0.42318 0.12221 0.49306 0.0
C452 C 0.39925 0.16696 0.46775 0.0
O453 O 0.59435 0.06716 0.4895 0.0
O454 O 0.38388 1.01804 0.37796 0.0
O455 O 0.51901 1.01911 0.37092 0.0
O456 O 0.59465 0.08429 0.43386 0.0
C457 C 0.62883 0.09709 0.46305 0.0
O458 O 0.57437 0.90223 0.47202 0.0
O459 O 0.50795 0.88251 0.42444 0.0
O460 O 0.37195 0.95873 0.45542 0.0
O461 O 0.44625 0.99963 0.54194 0.0
O462 O 0.46596 0.87879 0.51989 0.0
O463 O 0.37294 0.96306 0.45684 0.0
C464 C 0.4361 1.01462 0.32076 0.0
C465 C 0.50543 1.02857 0.30044 0.0
C466 C 0.34939 1.00893 0.27154 0.0
C467 C 0.49622 1.03814 0.26653 0.0
C468 C 0.35821 1.00223 0.30574 0.0
C469 C 0.41776 1.03052 0.25172 0.0
C470 C 0.44578 1.01576 0.35719 0.0
C471 C 0.55748 0.85439 0.4472 0.0
H472 H 0.46787 0.90947 0.61487 0.0
H473 H 0.678 1.04378 0.54397 0.0
H474 H 0.52124 1.0451 0.62973 0.0
H475 H 0.63163 0.90299 0.53304 0.0
H476 H 0.56673 1.0352 0.31087 0.0
H477 H 0.28813 1.00262 0.26087 0.0
H478 H 0.5501 1.0543 0.25198 0.0
H479 H 0.30363 0.9901 0.32046 0.0
Eu480 Eu 0.27749 0.40647 0.51644 0.0
Eu481 Eu 0.24695 0.39526 0.44335 0.0
C482 C 0.35225 0.24643 0.47219 0.0
C483 C 0.26595 0.44254 0.61575 0.0
C484 C 0.27727 0.37352 0.63658 0.0
C485 C 0.25691 0.53085 0.6644 0.0
C486 C 0.28302 0.38369 0.67059 0.0
C487 C 0.25297 0.52099 0.63021 0.0
C488 C 0.27549 0.46285 0.68485 0.0
C489 C 0.26982 0.43191 0.57941 0.0
O490 O 0.15888 0.30116 0.46531 0.0
O491 O 0.1413 0.37084 0.51247 0.0
C492 C 0.11273 0.31936 0.49058 0.0
O493 O 0.22967 0.49876 0.47751 0.0
O494 O 0.24357 0.41273 0.39086 0.0
O495 O 0.13142 0.43087 0.41981 0.0
O496 O 0.23078 0.50065 0.47864 0.0
C497 C 0.24338 0.57775 0.46965 0.0
O498 O 0.39828 0.46332 0.49832 0.0
O499 O 0.378 0.45281 0.44239 0.0
O500 O 0.31989 0.27837 0.44555 0.0
O501 O 0.26998 0.49339 0.55831 0.0
O502 O 0.27965 0.35852 0.56621 0.0
O503 O 0.34139 0.28148 0.50151 0.0
C504 C 0.11944 0.36097 0.37076 0.0
C505 C 0.10071 0.37925 0.33801 0.0
C506 C 0.12701 0.21636 0.35608 0.0
C507 C 0.11224 0.31546 0.31503 0.0
C508 C 0.1254 0.27697 0.3803 0.0
C509 C 0.15699 0.24576 0.32629 0.0
C510 C 0.16248 0.42136 0.39069 0.0
C511 C 0.42343 0.47604 0.46786 0.0
H512 H 0.28644 0.31198 0.62652 0.0
H513 H 0.2509 0.59261 0.67464 0.0
H514 H 0.29752 0.33021 0.68563 0.0
H515 H 0.24291 0.57529 0.61507 0.0
H516 H 0.09125 0.44259 0.32988 0.0
H517 H 0.13722 0.15258 0.36327 0.0
H518 H 0.11263 0.33149 0.28937 0.0
H519 H 0.13764 0.25922 0.4053 0.0
Eu520 Eu 0.97044 1.02271 0.26729 0.0
Eu521 Eu 0.98363 0.98781 0.19878 0.0
C522 C 0.12971 0.10172 0.22365 0.0
C523 C 0.93785 1.01199 0.36671 0.0
C524 C 1.00709 1.02425 0.38719 0.0
C525 C 0.85107 1.00016 0.41571 0.0
C526 C 0.99761 1.03053 0.42116 0.0
C527 C 0.8601 0.99676 0.38147 0.0
C528 C 0.91916 1.02075 0.43576 0.0
C529 C 0.94768 1.01559 0.3304 0.0
O530 O 0.08343 0.90958 0.22159 0.0
O531 O 1.00229 0.88586 0.2645 0.0
C532 C 1.06106 0.86045 0.2453 0.0
O533 O 0.87298 0.96108 0.23287 0.0
O534 O 0.93954 0.97568 0.1496 0.0
O535 O 0.98823 0.8671 0.17379 0.0
O536 O 0.87413 0.96492 0.23169 0.0
C537 C 0.80469 0.99596 0.22061 0.0
O538 O 0.91339 0.14276 0.24912 0.0
O539 O 0.92966 0.12035 0.19395 0.0
O540 O 0.09624 0.06883 0.19743 0.0
O541 O 0.88571 1.0236 0.30986 0.0
O542 O 1.02102 1.01836 0.31668 0.0
O543 O 0.0957 0.08889 0.253 0.0
C544 C 1.01904 0.88562 0.11793 0.0
C545 C 0.97825 0.90533 1.08887 0.0
C546 C 0.09873 1.0094 0.11406 0.0
C547 C 0.97733 0.98961 1.08033 0.0
C548 C 0.0958 0.92543 0.1222 0.0
C549 C 1.02921 1.04469 0.09794 0.0
C550 C 0.96452 0.89881 0.14615 0.0
C551 C 0.90401 0.16746 0.21853 0.0
H552 H 0.06837 1.03253 0.3769 0.0
H553 H 0.78981 0.9925 0.42625 0.0
H554 H 1.05122 1.04612 0.43594 0.0
H555 H 0.80576 0.98524 0.36655 0.0
H556 H 0.93073 0.86433 1.07941 0.0
H557 H 0.14898 1.04647 0.12392 0.0
H558 H 0.93095 1.01136 1.06344 0.0
H559 H 0.14018 0.90285 0.1399 0.0
Eu560 Eu 0.35479 0.71757 1.01615 0.0
Eu561 Eu 0.38612 0.7286 0.94521 0.0
C562 C 0.27873 0.87745 0.97219 0.0
C563 C 0.36617 0.68228 0.1154 0.0
C564 C 0.35969 0.75171 0.13625 0.0
C565 C 0.37145 0.59321 0.16399 0.0
C566 C 0.35412 0.74155 0.1703 0.0
C567 C 0.3748 0.60309 0.1298 0.0
C568 C 0.35734 0.66193 0.18453 0.0
C569 C 0.36217 0.69313 1.07911 0.0
O570 O 0.4706 0.82635 0.96643 0.0
O571 O 0.49086 0.75408 1.01254 0.0
C572 C 0.51797 0.80788 0.99125 0.0
O573 O 0.40878 0.6224 0.97961 0.0
O574 O 0.38902 0.71144 0.89275 0.0
O575 O 0.50225 0.69774 0.92139 0.0
O576 O 0.40821 0.62099 0.97938 0.0
C577 C 0.3787 0.54997 0.96915 0.0
O578 O 0.23328 0.66159 0.99855 0.0
O579 O 0.25412 0.67296 0.94294 0.0
O580 O 0.31154 0.84497 0.94584 0.0
O581 O 0.35745 0.63152 1.05824 0.0
O582 O 0.35758 0.76685 1.06567 0.0
O583 O 0.28978 0.84248 1.0015 0.0
C584 C 0.51099 0.7668 0.87204 0.0
C585 C 0.52967 0.7484 0.83933 0.0
C586 C 0.50303 0.9113 0.85715 0.0
C587 C 0.5183 0.8121 0.81624 0.0
C588 C 0.50451 0.85075 0.88146 0.0
C589 C 0.4735 0.88185 0.82733 0.0
C590 C 0.4703 0.70564 0.89235 0.0
C591 C 0.20789 0.64974 0.96816 0.0
H592 H 0.35405 0.81376 0.1262 0.0
H593 H 0.37472 0.53114 0.17418 0.0
H594 H 0.34327 0.79565 0.1854 0.0
H595 H 0.3813 0.54841 0.11463 0.0
H596 H 0.5395 0.68506 0.83133 0.0
H597 H 0.49276 0.97509 0.86422 0.0
H598 H 0.51818 0.79601 0.79061 0.0
H599 H 0.49256 0.86851 0.90645 0.0
Eu600 Eu 0.66043 0.10433 0.76763 0.0
Eu601 Eu 0.64787 0.13832 0.69936 0.0
C602 C 0.50043 1.02712 0.72427 0.0
C603 C 0.69245 0.11625 0.86708 0.0
C604 C 0.6232 0.10363 0.88754 0.0
C605 C 0.77907 0.12794 0.91611 0.0
C606 C 0.63262 0.09705 0.92151 0.0
C607 C 0.7701 0.13168 0.88187 0.0
C608 C 0.71102 0.10686 0.93615 0.0
C609 C 0.68283 0.11222 0.83077 0.0
O610 O 0.54706 0.21716 0.72108 0.0
O611 O 0.62737 0.24109 0.76421 0.0
C612 C 0.56867 0.26633 0.74485 0.0
O613 O 0.75991 0.16295 0.73318 0.0
O614 O 0.67685 0.14936 0.6482 0.0
O615 O 0.66555 0.26137 0.67783 0.0
O616 O 0.75839 0.15832 0.732 0.0
C617 C 0.82679 0.12643 0.72039 0.0
O618 O 0.71655 0.98337 0.75001 0.0
O619 O 0.70238 1.00639 0.69479 0.0
O620 O 0.53298 1.06132 0.69814 0.0
O621 O 0.74498 0.10522 0.81027 0.0
O622 O 0.60963 0.10817 0.81699 0.0
O623 O 0.53547 1.03799 0.75352 0.0
C624 C 0.6233 0.26761 0.62308 0.0
C625 C 0.66438 0.26794 0.59305 0.0
C626 C 0.51464 0.18669 0.59909 0.0
C627 C 0.64622 0.20179 0.5723 0.0
C628 C 0.53994 0.24121 0.62323 0.0
C629 C 0.57841 0.15089 0.5805 0.0
C630 C 0.67379 0.23096 0.64863 0.0
C631 C 0.72691 0.95898 0.71947 0.0
H632 H 0.56198 0.0952 0.87722 0.0
H633 H 0.84029 0.13566 0.92668 0.0
H634 H 0.57904 0.08113 0.93627 0.0
H635 H 0.82445 0.14344 0.86698 0.0
H636 H 0.72371 0.29903 0.59071 0.0
H637 H 0.45559 0.15507 0.60229 0.0
H638 H 0.69281 0.18233 0.55513 0.0
H639 H 0.50327 0.2424 0.64535 0.0
loop_
_geom_bond_atom_site_label_1
_geom_bond_atom_site_label_2
_geom_bond_distance
_geom_bond_site_symmetry_2
_ccdc_geom_bond_type
Eu0 C9 2.828 . S
Eu0 O11 2.392 . S
Eu0 O13 2.418 . S
Eu0 O18 2.373 . S
Eu0 O21 2.488 . S
Eu0 O22 2.471 . S
Eu0 O23 2.349 . S
Eu1 O10 2.373 . S
Eu1 O14 2.488 1_545 S
Eu1 O15 2.471 . S
Eu1 O16 2.349 . S
Eu1 O19 2.392 . S
Eu1 O20 2.418 1_545 S
Eu1 C30 2.828 . S
C2 O20 1.244 . S
C2 O23 1.265 1_565 S
C3 C4 1.379 . S
C3 C7 1.373 . S
C3 C9 1.505 . S
C4 C3 1.379 . S
C4 C6 1.369 . S
C4 H32 0.930 . S
C5 C7 1.383 . S
C5 C8 1.382 . S
C5 H33 0.930 . S
C6 C4 1.369 . S
C6 C8 1.392 . S
C6 H34 0.930 . S
C7 C3 1.373 . S
C7 C5 1.383 . S
C7 H35 0.931 . S
C8 C5 1.382 . S
C8 C6 1.392 . S
C9 Eu0 2.828 . S
C9 C3 1.505 . S
C9 O21 1.249 . S
C9 O22 1.244 . S
O10 Eu1 2.373 . S
O10 C12 1.258 . S
O11 Eu0 2.392 . S
O11 C12 1.242 . S
C12 O10 1.258 . S
C12 O11 1.242 . S
O13 Eu0 2.418 . S
O13 C17 1.244 . S
O14 Eu1 2.488 1_565 S
O14 C30 1.249 1_565 S
O15 Eu1 2.471 . S
O15 C30 1.244 . S
O16 Eu1 2.349 . S
O16 C17 1.265 . S
C17 O13 1.244 . S
C17 O16 1.265 . S
O18 Eu0 2.373 . S
O18 C31 1.258 . S
O19 Eu1 2.392 . S
O19 C31 1.242 . S
O20 Eu1 2.418 1_565 S
O20 C2 1.244 . S
O21 Eu0 2.488 . S
O21 C9 1.249 . S
O22 Eu0 2.471 . S
O22 C9 1.244 . S
O23 Eu0 2.349 . S
O23 C2 1.265 1_545 S
C24 C25 1.382 1_554 S
C24 C28 1.373 . S
C24 C30 1.505 1_565 S
C25 C24 1.382 1_556 S
C25 C27 1.372 . S
C25 H36 0.924 1_566 S
C26 C28 1.383 1_556 S
C26 C29 1.382 . S
C26 H37 0.930 . S
C27 C25 1.372 . S
C27 C29 1.392 . S
C27 H38 0.930 . S
C28 C24 1.373 . S
C28 C26 1.383 1_554 S
C28 H39 0.931 . S
C29 C26 1.382 . S
C29 C27 1.392 . S
C30 Eu1 2.828 . S
C30 O14 1.249 1_545 S
C30 O15 1.244 . S
C30 C24 1.505 1_545 S
C31 O18 1.258 . S
C31 O19 1.242 . S
H32 C4 0.930 . S
H33 C5 0.930 . S
H34 C6 0.930 . S
H35 C7 0.931 . S
H36 C25 0.924 1_544 S
H37 C26 0.930 . S
H38 C27 0.930 . S
H39 C28 0.931 . S
Eu40 C49 2.828 . S
Eu40 O51 2.392 . S
Eu40 O53 2.418 . S
Eu40 O58 2.373 . S
Eu40 O61 2.488 . S
Eu40 O62 2.471 . S
Eu40 O63 2.349 . S
Eu41 O50 2.373 . S
Eu41 O54 2.488 . S
Eu41 O55 2.471 . S
Eu41 O56 2.349 . S
Eu41 O59 2.392 . S
Eu41 O60 2.418 . S
Eu41 C70 2.828 . S
C42 O60 1.244 . S
C42 O63 1.265 . S
C43 C44 1.379 . S
C43 C47 1.373 . S
C43 C49 1.505 . S
C44 C43 1.379 . S
C44 C46 1.369 . S
C44 H72 0.930 . S
C45 C47 1.383 . S
C45 C48 1.382 . S
C45 H73 0.930 . S
C46 C44 1.369 . S
C46 C48 1.392 . S
C46 H74 0.930 . S
C47 C43 1.373 . S
C47 C45 1.383 . S
C47 H75 0.931 . S
C48 C45 1.382 . S
C48 C46 1.392 . S
C49 Eu40 2.828 . S
C49 C43 1.505 . S
C49 O61 1.249 . S
C49 O62 1.244 . S
O50 Eu41 2.373 . S
O50 C52 1.258 . S
O51 Eu40 2.392 . S
O51 C52 1.242 . S
C52 O50 1.258 . S
C52 O51 1.242 . S
O53 Eu40 2.418 . S
O53 C57 1.244 . S
O54 Eu41 2.488 . S
O54 C70 1.249 . S
O55 Eu41 2.471 . S
O55 C70 1.244 . S
O56 Eu41 2.349 . S
O56 C57 1.265 . S
C57 O53 1.244 . S
C57 O56 1.265 . S
O58 Eu40 2.373 . S
O58 C71 1.258 . S
O59 Eu41 2.392 . S
O59 C71 1.242 . S
O60 Eu41 2.418 . S
O60 C42 1.244 . S
O61 Eu40 2.488 . S
O61 C49 1.249 . S
O62 Eu40 2.471 . S
O62 C49 1.244 . S
O63 Eu40 2.349 . S
O63 C42 1.265 . S
C64 C65 1.379 . S
C64 C68 1.373 . S
C64 C70 1.505 . S
C65 C64 1.379 . S
C65 C67 1.369 . S
C65 H76 0.930 . S
C66 C68 1.383 . S
C66 C69 1.382 . S
C66 H77 0.930 . S
C67 C65 1.369 . S
C67 C69 1.392 . S
C67 H78 0.930 . S
C68 C64 1.373 . S
C68 C66 1.383 . S
C68 H79 0.931 . S
C69 C66 1.382 . S
C69 C67 1.392 . S
C70 Eu41 2.828 . S
C70 O54 1.249 . S
C70 O55 1.244 . S
C70 C64 1.505 . S
C71 O58 1.258 . S
C71 O59 1.242 . S
H72 C44 0.930 . S
H73 C45 0.930 . S
H74 C46 0.930 . S
H75 C47 0.931 . S
H76 C65 0.930 . S
H77 C66 0.930 . S
H78 C67 0.930 . S
H79 C68 0.931 . S
Eu80 C89 2.828 . S
Eu80 O91 2.392 . S
Eu80 O93 2.418 . S
Eu80 O98 2.373 . S
Eu80 O101 2.488 . S
Eu80 O102 2.471 . S
Eu80 O103 2.349 . S
Eu81 O90 2.373 . S
Eu81 O94 2.488 1_565 S
Eu81 O95 2.471 . S
Eu81 O96 2.349 . S
Eu81 O99 2.392 . S
Eu81 O100 2.418 1_565 S
Eu81 C110 2.828 . S
C82 O100 1.244 . S
C82 O103 1.265 1_545 S
C83 C84 1.379 . S
C83 C87 1.373 . S
C83 C89 1.505 . S
C84 C83 1.379 . S
C84 C86 1.369 . S
C84 H112 0.930 . S
C85 C87 1.383 . S
C85 C88 1.382 . S
C85 H113 0.930 . S
C86 C84 1.369 . S
C86 C88 1.392 . S
C86 H114 0.930 . S
C87 C83 1.373 . S
C87 C85 1.383 . S
C87 H115 0.931 . S
C88 C85 1.382 . S
C88 C86 1.392 . S
C89 Eu80 2.828 . S
C89 C83 1.505 . S
C89 O101 1.249 . S
C89 O102 1.244 . S
O90 Eu81 2.373 . S
O90 C92 1.258 . S
O91 Eu80 2.392 . S
O91 C92 1.242 . S
C92 O90 1.258 . S
C92 O91 1.242 . S
O93 Eu80 2.418 . S
O93 C97 1.244 . S
O94 Eu81 2.488 1_545 S
O94 C110 1.249 1_545 S
O95 Eu81 2.471 . S
O95 C110 1.244 . S
O96 Eu81 2.349 . S
O96 C97 1.265 . S
C97 O93 1.244 . S
C97 O96 1.265 . S
O98 Eu80 2.373 . S
O98 C111 1.258 . S
O99 Eu81 2.392 . S
O99 C111 1.242 . S
O100 Eu81 2.418 1_545 S
O100 C82 1.244 . S
O101 Eu80 2.488 . S
O101 C89 1.249 . S
O102 Eu80 2.471 . S
O102 C89 1.244 . S
O103 Eu80 2.349 . S
O103 C82 1.265 1_565 S
C104 C105 1.383 . S
C104 C108 1.373 . S
C104 C110 1.505 1_545 S
C105 C104 1.383 . S
C105 C107 1.373 . S
C105 H116 0.923 1_545 S
C106 C108 1.383 . S
C106 C109 1.382 . S
C106 H117 0.930 . S
C107 C105 1.373 . S
C107 C109 1.392 . S
C107 H118 0.930 . S
C108 C104 1.373 . S
C108 C106 1.383 . S
C108 H119 0.931 . S
C109 C106 1.382 . S
C109 C107 1.392 . S
C110 Eu81 2.828 . S
C110 O94 1.249 1_565 S
C110 O95 1.244 . S
C110 C104 1.505 1_565 S
C111 O98 1.258 . S
C111 O99 1.242 . S
H112 C84 0.930 . S
H113 C85 0.930 . S
H114 C86 0.930 . S
H115 C87 0.931 . S
H116 C105 0.923 1_565 S
H117 C106 0.930 . S
H118 C107 0.930 . S
H119 C108 0.931 . S
Eu120 C129 2.828 . S
Eu120 O131 2.392 . S
Eu120 O133 2.418 1_655 S
Eu120 O138 2.373 . S
Eu120 O141 2.488 1_655 S
Eu120 O142 2.471 . S
Eu120 O143 2.349 . S
Eu121 O130 2.373 . S
Eu121 O134 2.488 . S
Eu121 O135 2.471 . S
Eu121 O136 2.349 . S
Eu121 O139 2.392 . S
Eu121 O140 2.418 . S
Eu121 C150 2.828 . S
C122 O140 1.244 . S
C122 O143 1.265 . S
C123 C124 1.379 1_455 S
C123 C127 1.373 . S
C123 C129 1.505 1_455 S
C124 C123 1.379 1_655 S
C124 C126 1.369 1_656 S
C124 H152 0.930 . S
C125 C127 1.383 1_554 S
C125 C128 1.382 . S
C125 H153 0.930 . S
C126 C124 1.369 1_454 S
C126 C128 1.392 . S
C126 H154 0.930 1_455 S
C127 C123 1.373 . S
C127 C125 1.383 1_556 S
C127 H155 0.931 . S
C128 C125 1.382 . S
C128 C126 1.392 . S
C129 Eu120 2.828 . S
C129 C123 1.505 1_655 S
C129 O141 1.249 1_655 S
C129 O142 1.244 . S
O130 Eu121 2.373 . S
O130 C132 1.258 . S
O131 Eu120 2.392 . S
O131 C132 1.242 . S
C132 O130 1.258 . S
C132 O131 1.242 . S
O133 Eu120 2.418 1_455 S
O133 C137 1.244 1_455 S
O134 Eu121 2.488 . S
O134 C150 1.249 . S
O135 Eu121 2.471 . S
O135 C150 1.244 . S
O136 Eu121 2.349 . S
O136 C137 1.265 . S
C137 O133 1.244 1_655 S
C137 O136 1.265 . S
O138 Eu120 2.373 . S
O138 C151 1.258 . S
O139 Eu121 2.392 . S
O139 C151 1.242 . S
O140 Eu121 2.418 . S
O140 C122 1.244 . S
O141 Eu120 2.488 1_455 S
O141 C129 1.249 1_455 S
O142 Eu120 2.471 . S
O142 C129 1.244 . S
O143 Eu120 2.349 . S
O143 C122 1.265 . S
C144 C145 1.379 . S
C144 C148 1.373 . S
C144 C150 1.505 . S
C145 C144 1.379 . S
C145 C147 1.369 . S
C145 H156 0.930 . S
C146 C148 1.383 . S
C146 C149 1.382 . S
C146 H157 0.930 . S
C147 C145 1.369 . S
C147 C149 1.392 . S
C147 H158 0.930 . S
C148 C144 1.373 . S
C148 C146 1.383 . S
C148 H159 0.931 . S
C149 C146 1.382 . S
C149 C147 1.392 . S
C150 Eu121 2.828 . S
C150 O134 1.249 . S
C150 O135 1.244 . S
C150 C144 1.505 . S
C151 O138 1.258 . S
C151 O139 1.242 . S
H152 C124 0.930 . S
H153 C125 0.930 . S
H154 C126 0.930 1_655 S
H155 C127 0.931 . S
H156 C145 0.930 . S
H157 C146 0.930 . S
H158 C147 0.930 . S
H159 C148 0.931 . S
Eu160 C169 2.828 . S
Eu160 O171 2.392 . S
Eu160 O173 2.418 1_565 S
Eu160 O178 2.373 . S
Eu160 O181 2.488 1_565 S
Eu160 O182 2.471 . S
Eu160 O183 2.349 . S
Eu161 O170 2.373 . S
Eu161 O174 2.488 . S
Eu161 O175 2.471 . S
Eu161 O176 2.349 . S
Eu161 O179 2.392 . S
Eu161 O180 2.418 . S
Eu161 C190 2.828 . S
C162 O180 1.244 . S
C162 O183 1.265 . S
C163 C164 1.382 1_556 S
C163 C167 1.373 . S
C163 C169 1.505 1_545 S
C164 C163 1.382 1_554 S
C164 C166 1.372 . S
C164 H192 0.924 1_544 S
C165 C167 1.383 1_554 S
C165 C168 1.382 . S
C165 H193 0.930 . S
C166 C164 1.372 . S
C166 C168 1.392 . S
C166 H194 0.930 . S
C167 C163 1.373 . S
C167 C165 1.383 1_556 S
C167 H195 0.931 . S
C168 C165 1.382 . S
C168 C166 1.392 . S
C169 Eu160 2.828 . S
C169 C163 1.505 1_565 S
C169 O181 1.249 1_565 S
C169 O182 1.244 . S
O170 Eu161 2.373 . S
O170 C172 1.258 . S
O171 Eu160 2.392 . S
O171 C172 1.242 . S
C172 O170 1.258 . S
C172 O171 1.242 . S
O173 Eu160 2.418 1_545 S
O173 C177 1.244 . S
O174 Eu161 2.488 . S
O174 C190 1.249 . S
O175 Eu161 2.471 . S
O175 C190 1.244 . S
O176 Eu161 2.349 . S
O176 C177 1.265 1_565 S
C177 O173 1.244 . S
C177 O176 1.265 1_545 S
O178 Eu160 2.373 . S
O178 C191 1.258 . S
O179 Eu161 2.392 . S
O179 C191 1.242 . S
O180 Eu161 2.418 . S
O180 C162 1.244 . S
O181 Eu160 2.488 1_545 S
O181 C169 1.249 1_545 S
O182 Eu160 2.471 . S
O182 C169 1.244 . S
O183 Eu160 2.349 . S
O183 C162 1.265 . S
C184 C185 1.379 . S
C184 C188 1.373 . S
C184 C190 1.505 . S
C185 C184 1.379 . S
C185 C187 1.369 . S
C185 H196 0.930 . S
C186 C188 1.383 . S
C186 C189 1.382 . S
C186 H197 0.930 . S
C187 C185 1.369 . S
C187 C189 1.392 . S
C187 H198 0.930 . S
C188 C184 1.373 . S
C188 C186 1.383 . S
C188 H199 0.931 . S
C189 C186 1.382 . S
C189 C187 1.392 . S
C190 Eu161 2.828 . S
C190 O174 1.249 . S
C190 O175 1.244 . S
C190 C184 1.505 . S
C191 O178 1.258 . S
C191 O179 1.242 . S
H192 C164 0.924 1_566 S
H193 C165 0.930 . S
H194 C166 0.930 . S
H195 C167 0.931 . S
H196 C185 0.930 . S
H197 C186 0.930 . S
H198 C187 0.930 . S
H199 C188 0.931 . S
Eu200 C209 2.828 . S
Eu200 O211 2.392 . S
Eu200 O213 2.418 . S
Eu200 O218 2.373 . S
Eu200 O221 2.488 . S
Eu200 O222 2.471 . S
Eu200 O223 2.349 . S
Eu201 O210 2.373 . S
Eu201 O214 2.488 . S
Eu201 O215 2.471 . S
Eu201 O216 2.349 . S
Eu201 O219 2.392 . S
Eu201 O220 2.418 . S
Eu201 C230 2.828 . S
C202 O220 1.244 . S
C202 O223 1.265 . S
C203 C204 1.379 . S
C203 C207 1.373 . S
C203 C209 1.505 . S
C204 C203 1.379 . S
C204 C206 1.369 . S
C204 H232 0.930 . S
C205 C207 1.383 . S
C205 C208 1.382 . S
C205 H233 0.930 . S
C206 C204 1.369 . S
C206 C208 1.392 . S
C206 H234 0.930 . S
C207 C203 1.373 . S
C207 C205 1.383 . S
C207 H235 0.931 . S
C208 C205 1.382 . S
C208 C206 1.392 . S
C209 Eu200 2.828 . S
C209 C203 1.505 . S
C209 O221 1.249 . S
C209 O222 1.244 . S
O210 Eu201 2.373 . S
O210 C212 1.258 . S
O211 Eu200 2.392 . S
O211 C212 1.242 . S
C212 O210 1.258 . S
C212 O211 1.242 . S
O213 Eu200 2.418 . S
O213 C217 1.244 . S
O214 Eu201 2.488 . S
O214 C230 1.249 . S
O215 Eu201 2.471 . S
O215 C230 1.244 . S
O216 Eu201 2.349 . S
O216 C217 1.265 . S
C217 O213 1.244 . S
C217 O216 1.265 . S
O218 Eu200 2.373 . S
O218 C231 1.258 . S
O219 Eu201 2.392 . S
O219 C231 1.242 . S
O220 Eu201 2.418 . S
O220 C202 1.244 . S
O221 Eu200 2.488 . S
O221 C209 1.249 . S
O222 Eu200 2.471 . S
O222 C209 1.244 . S
O223 Eu200 2.349 . S
O223 C202 1.265 . S
C224 C225 1.379 . S
C224 C228 1.373 . S
C224 C230 1.505 . S
C225 C224 1.379 . S
C225 C227 1.369 . S
C225 H236 0.930 . S
C226 C228 1.383 . S
C226 C229 1.382 . S
C226 H237 0.930 . S
C227 C225 1.369 . S
C227 C229 1.392 . S
C227 H238 0.930 . S
C228 C224 1.373 . S
C228 C226 1.383 . S
C228 H239 0.931 . S
C229 C226 1.382 . S
C229 C227 1.392 . S
C230 Eu201 2.828 . S
C230 O214 1.249 . S
C230 O215 1.244 . S
C230 C224 1.505 . S
C231 O218 1.258 . S
C231 O219 1.242 . S
H232 C204 0.930 . S
H233 C205 0.930 . S
H234 C206 0.930 . S
H235 C207 0.931 . S
H236 C225 0.930 . S
H237 C226 0.930 . S
H238 C227 0.930 . S
H239 C228 0.931 . S
Eu240 C249 2.828 . S
Eu240 O251 2.392 . S
Eu240 O253 2.418 1_545 S
Eu240 O258 2.373 . S
Eu240 O261 2.488 1_545 S
Eu240 O262 2.471 . S
Eu240 O263 2.349 . S
Eu241 O250 2.373 . S
Eu241 O254 2.488 . S
Eu241 O255 2.471 . S
Eu241 O256 2.349 . S
Eu241 O259 2.392 . S
Eu241 O260 2.418 . S
Eu241 C270 2.828 . S
C242 O260 1.244 . S
C242 O263 1.265 . S
C243 C244 1.383 . S
C243 C247 1.373 . S
C243 C249 1.505 1_565 S
C244 C243 1.383 . S
C244 C246 1.373 . S
C244 H272 0.922 1_565 S
C245 C247 1.383 . S
C245 C248 1.382 . S
C245 H273 0.930 . S
C246 C244 1.373 . S
C246 C248 1.392 . S
C246 H274 0.930 . S
C247 C243 1.373 . S
C247 C245 1.383 . S
C247 H275 0.931 . S
C248 C245 1.382 . S
C248 C246 1.392 . S
C249 Eu240 2.828 . S
C249 C243 1.505 1_545 S
C249 O261 1.249 1_545 S
C249 O262 1.244 . S
O250 Eu241 2.373 . S
O250 C252 1.258 . S
O251 Eu240 2.392 . S
O251 C252 1.242 . S
C252 O250 1.258 . S
C252 O251 1.242 . S
O253 Eu240 2.418 1_565 S
O253 C257 1.244 . S
O254 Eu241 2.488 . S
O254 C270 1.249 . S
O255 Eu241 2.471 . S
O255 C270 1.244 . S
O256 Eu241 2.349 . S
O256 C257 1.265 1_545 S
C257 O253 1.244 . S
C257 O256 1.265 1_565 S
O258 Eu240 2.373 . S
O258 C271 1.258 . S
O259 Eu241 2.392 . S
O259 C271 1.242 . S
O260 Eu241 2.418 . S
O260 C242 1.244 . S
O261 Eu240 2.488 1_565 S
O261 C249 1.249 1_565 S
O262 Eu240 2.471 . S
O262 C249 1.244 . S
O263 Eu240 2.349 . S
O263 C242 1.265 . S
C264 C265 1.379 . S
C264 C268 1.373 . S
C264 C270 1.505 . S
C265 C264 1.379 . S
C265 C267 1.369 . S
C265 H276 0.930 . S
C266 C268 1.383 . S
C266 C269 1.382 . S
C266 H277 0.930 . S
C267 C265 1.369 . S
C267 C269 1.392 . S
C267 H278 0.930 . S
C268 C264 1.373 . S
C268 C266 1.383 . S
C268 H279 0.931 . S
C269 C266 1.382 . S
C269 C267 1.392 . S
C270 Eu241 2.828 . S
C270 O254 1.249 . S
C270 O255 1.244 . S
C270 C264 1.505 . S
C271 O258 1.258 . S
C271 O259 1.242 . S
H272 C244 0.922 1_545 S
H273 C245 0.930 . S
H274 C246 0.930 . S
H275 C247 0.931 . S
H276 C265 0.930 . S
H277 C266 0.930 . S
H278 C267 0.930 . S
H279 C268 0.931 . S
Eu280 C289 2.828 . S
Eu280 O291 2.392 . S
Eu280 O293 2.418 . S
Eu280 O298 2.373 . S
Eu280 O301 2.488 . S
Eu280 O302 2.471 . S
Eu280 O303 2.349 . S
Eu281 O290 2.373 . S
Eu281 O294 2.488 1_455 S
Eu281 O295 2.471 . S
Eu281 O296 2.349 . S
Eu281 O299 2.392 . S
Eu281 O300 2.418 1_455 S
Eu281 C310 2.828 . S
C282 O300 1.244 1_455 S
C282 O303 1.265 . S
C283 C284 1.379 . S
C283 C287 1.373 . S
C283 C289 1.505 . S
C284 C283 1.379 . S
C284 C286 1.369 . S
C284 H312 0.930 . S
C285 C287 1.383 . S
C285 C288 1.382 . S
C285 H313 0.930 . S
C286 C284 1.369 . S
C286 C288 1.392 . S
C286 H314 0.930 . S
C287 C283 1.373 . S
C287 C285 1.383 . S
C287 H315 0.931 . S
C288 C285 1.382 . S
C288 C286 1.392 . S
C289 Eu280 2.828 . S
C289 C283 1.505 . S
C289 O301 1.249 . S
C289 O302 1.244 . S
O290 Eu281 2.373 . S
O290 C292 1.258 . S
O291 Eu280 2.392 . S
O291 C292 1.242 . S
C292 O290 1.258 . S
C292 O291 1.242 . S
O293 Eu280 2.418 . S
O293 C297 1.244 . S
O294 Eu281 2.488 1_655 S
O294 C310 1.249 1_655 S
O295 Eu281 2.471 . S
O295 C310 1.244 . S
O296 Eu281 2.349 . S
O296 C297 1.265 . S
C297 O293 1.244 . S
C297 O296 1.265 . S
O298 Eu280 2.373 . S
O298 C311 1.258 . S
O299 Eu281 2.392 . S
O299 C311 1.242 . S
O300 Eu281 2.418 1_655 S
O300 C282 1.244 1_655 S
O301 Eu280 2.488 . S
O301 C289 1.249 . S
O302 Eu280 2.471 . S
O302 C289 1.244 . S
O303 Eu280 2.349 . S
O303 C282 1.265 . S
C304 C305 1.379 1_655 S
C304 C308 1.373 . S
C304 C310 1.505 1_655 S
C305 C304 1.379 1_455 S
C305 C307 1.369 1_454 S
C305 H316 0.930 . S
C306 C308 1.383 1_556 S
C306 C309 1.382 . S
C306 H317 0.930 . S
C307 C305 1.369 1_656 S
C307 C309 1.392 . S
C307 H318 0.930 1_655 S
C308 C304 1.373 . S
C308 C306 1.383 1_554 S
C308 H319 0.931 . S
C309 C306 1.382 . S
C309 C307 1.392 . S
C310 Eu281 2.828 . S
C310 O294 1.249 1_455 S
C310 O295 1.244 . S
C310 C304 1.505 1_455 S
C311 O298 1.258 . S
C311 O299 1.242 . S
H312 C284 0.930 . S
H313 C285 0.930 . S
H314 C286 0.930 . S
H315 C287 0.931 . S
H316 C305 0.930 . S
H317 C306 0.930 . S
H318 C307 0.930 1_455 S
H319 C308 0.931 . S
Eu320 C329 2.828 . S
Eu320 O331 2.392 . S
Eu320 O333 2.418 . S
Eu320 O338 2.373 . S
Eu320 O341 2.488 . S
Eu320 O342 2.471 . S
Eu320 O343 2.349 . S
Eu321 O330 2.373 . S
Eu321 O334 2.488 . S
Eu321 O335 2.471 . S
Eu321 O336 2.349 . S
Eu321 O339 2.392 . S
Eu321 O340 2.418 . S
Eu321 C350 2.828 . S
C322 O340 1.244 . S
C322 O343 1.265 . S
C323 C324 1.379 . S
C323 C327 1.373 . S
C323 C329 1.505 . S
C324 C323 1.379 . S
C324 C326 1.369 . S
C324 H352 0.930 . S
C325 C327 1.383 . S
C325 C328 1.382 . S
C325 H353 0.930 . S
C326 C324 1.369 . S
C326 C328 1.392 . S
C326 H354 0.930 . S
C327 C323 1.373 . S
C327 C325 1.383 . S
C327 H355 0.931 . S
C328 C325 1.382 . S
C328 C326 1.392 . S
C329 Eu320 2.828 . S
C329 C323 1.505 . S
C329 O341 1.249 . S
C329 O342 1.244 . S
O330 Eu321 2.373 . S
O330 C332 1.258 . S
O331 Eu320 2.392 . S
O331 C332 1.242 . S
C332 O330 1.258 . S
C332 O331 1.242 . S
O333 Eu320 2.418 . S
O333 C337 1.244 . S
O334 Eu321 2.488 . S
O334 C350 1.249 . S
O335 Eu321 2.471 . S
O335 C350 1.244 . S
O336 Eu321 2.349 . S
O336 C337 1.265 . S
C337 O333 1.244 . S
C337 O336 1.265 . S
O338 Eu320 2.373 . S
O338 C351 1.258 . S
O339 Eu321 2.392 . S
O339 C351 1.242 . S
O340 Eu321 2.418 . S
O340 C322 1.244 . S
O341 Eu320 2.488 . S
O341 C329 1.249 . S
O342 Eu320 2.471 . S
O342 C329 1.244 . S
O343 Eu320 2.349 . S
O343 C322 1.265 . S
C344 C345 1.379 . S
C344 C348 1.373 . S
C344 C350 1.505 . S
C345 C344 1.379 . S
C345 C347 1.369 . S
C345 H356 0.930 . S
C346 C348 1.383 . S
C346 C349 1.382 . S
C346 H357 0.930 . S
C347 C345 1.369 . S
C347 C349 1.392 . S
C347 H358 0.930 . S
C348 C344 1.373 . S
C348 C346 1.383 . S
C348 H359 0.931 . S
C349 C346 1.382 . S
C349 C347 1.392 . S
C350 Eu321 2.828 . S
C350 O334 1.249 . S
C350 O335 1.244 . S
C350 C344 1.505 . S
C351 O338 1.258 . S
C351 O339 1.242 . S
H352 C324 0.930 . S
H353 C325 0.930 . S
H354 C326 0.930 . S
H355 C327 0.931 . S
H356 C345 0.930 . S
H357 C346 0.930 . S
H358 C347 0.930 . S
H359 C348 0.931 . S
Eu360 C369 2.828 1_565 S
Eu360 O371 2.392 . S
Eu360 O373 2.418 1_455 S
Eu360 O378 2.373 1_565 S
Eu360 O381 2.488 1_455 S
Eu360 O382 2.471 1_565 S
Eu360 O383 2.349 1_565 S
Eu361 O370 2.373 1_545 S
Eu361 O374 2.488 . S
Eu361 O375 2.471 . S
Eu361 O376 2.349 . S
Eu361 O379 2.392 . S
Eu361 O380 2.418 . S
Eu361 C390 2.828 . S
C362 O380 1.244 . S
C362 O383 1.265 . S
C363 C364 1.379 1_655 S
C363 C367 1.373 . S
C363 C369 1.505 1_655 S
C364 C363 1.379 1_455 S
C364 C366 1.369 1_456 S
C364 H392 0.930 . S
C365 C367 1.383 1_554 S
C365 C368 1.382 . S
C365 H393 0.930 . S
C366 C364 1.369 1_654 S
C366 C368 1.392 . S
C366 H394 0.930 1_655 S
C367 C363 1.373 . S
C367 C365 1.383 1_556 S
C367 H395 0.931 . S
C368 C365 1.382 . S
C368 C366 1.392 . S
C369 Eu360 2.828 1_545 S
C369 C363 1.505 1_455 S
C369 O381 1.249 1_445 S
C369 O382 1.244 . S
O370 Eu361 2.373 1_565 S
O370 C372 1.258 . S
O371 Eu360 2.392 . S
O371 C372 1.242 . S
C372 O370 1.258 . S
C372 O371 1.242 . S
O373 Eu360 2.418 1_655 S
O373 C377 1.244 1_655 S
O374 Eu361 2.488 . S
O374 C390 1.249 . S
O375 Eu361 2.471 . S
O375 C390 1.244 . S
O376 Eu361 2.349 . S
O376 C377 1.265 1_545 S
C377 O373 1.244 1_455 S
C377 O376 1.265 1_565 S
O378 Eu360 2.373 1_545 S
O378 C391 1.258 . S
O379 Eu361 2.392 . S
O379 C391 1.242 . S
O380 Eu361 2.418 . S
O380 C362 1.244 . S
O381 Eu360 2.488 1_655 S
O381 C369 1.249 1_665 S
O382 Eu360 2.471 1_545 S
O382 C369 1.244 . S
O383 Eu360 2.349 1_545 S
O383 C362 1.265 . S
C384 C385 1.379 . S
C384 C388 1.373 1_565 S
C384 C390 1.505 1_565 S
C385 C384 1.379 . S
C385 C387 1.369 . S
C385 H396 0.930 . S
C386 C388 1.383 1_565 S
C386 C389 1.382 . S
C386 H397 0.930 1_565 S
C387 C385 1.369 . S
C387 C389 1.392 . S
C387 H398 0.930 . S
C388 C384 1.373 1_545 S
C388 C386 1.383 1_545 S
C388 H399 0.931 . S
C389 C386 1.382 . S
C389 C387 1.392 . S
C390 Eu361 2.828 . S
C390 O374 1.249 . S
C390 O375 1.244 . S
C390 C384 1.505 1_545 S
C391 O378 1.258 . S
C391 O379 1.242 . S
H392 C364 0.930 . S
H393 C365 0.930 . S
H394 C366 0.930 1_455 S
H395 C367 0.931 . S
H396 C385 0.930 . S
H397 C386 0.930 1_545 S
H398 C387 0.930 . S
H399 C388 0.931 . S
Eu400 C409 2.828 . S
Eu400 O411 2.392 . S
Eu400 O413 2.418 . S
Eu400 O418 2.373 . S
Eu400 O421 2.488 . S
Eu400 O422 2.471 . S
Eu400 O423 2.349 . S
Eu401 O410 2.373 . S
Eu401 O414 2.488 . S
Eu401 O415 2.471 . S
Eu401 O416 2.349 . S
Eu401 O419 2.392 . S
Eu401 O420 2.418 . S
Eu401 C430 2.828 . S
C402 O420 1.244 . S
C402 O423 1.265 . S
C403 C404 1.379 . S
C403 C407 1.373 . S
C403 C409 1.505 . S
C404 C403 1.379 . S
C404 C406 1.369 . S
C404 H432 0.930 . S
C405 C407 1.383 . S
C405 C408 1.382 . S
C405 H433 0.930 . S
C406 C404 1.369 . S
C406 C408 1.392 . S
C406 H434 0.930 . S
C407 C403 1.373 . S
C407 C405 1.383 . S
C407 H435 0.931 . S
C408 C405 1.382 . S
C408 C406 1.392 . S
C409 Eu400 2.828 . S
C409 C403 1.505 . S
C409 O421 1.249 . S
C409 O422 1.244 . S
O410 Eu401 2.373 . S
O410 C412 1.258 . S
O411 Eu400 2.392 . S
O411 C412 1.242 . S
C412 O410 1.258 . S
C412 O411 1.242 . S
O413 Eu400 2.418 . S
O413 C417 1.244 . S
O414 Eu401 2.488 . S
O414 C430 1.249 . S
O415 Eu401 2.471 . S
O415 C430 1.244 . S
O416 Eu401 2.349 . S
O416 C417 1.265 . S
C417 O413 1.244 . S
C417 O416 1.265 . S
O418 Eu400 2.373 . S
O418 C431 1.258 . S
O419 Eu401 2.392 . S
O419 C431 1.242 . S
O420 Eu401 2.418 . S
O420 C402 1.244 . S
O421 Eu400 2.488 . S
O421 C409 1.249 . S
O422 Eu400 2.471 . S
O422 C409 1.244 . S
O423 Eu400 2.349 . S
O423 C402 1.265 . S
C424 C425 1.379 1_554 S
C424 C428 1.373 . S
C424 C430 1.505 . S
C425 C424 1.379 1_556 S
C425 C427 1.369 . S
C425 H436 0.930 1_556 S
C426 C428 1.383 1_556 S
C426 C429 1.382 . S
C426 H437 0.930 . S
C427 C425 1.369 . S
C427 C429 1.392 . S
C427 H438 0.930 . S
C428 C424 1.373 . S
C428 C426 1.383 1_554 S
C428 H439 0.931 . S
C429 C426 1.382 . S
C429 C427 1.392 . S
C430 Eu401 2.828 . S
C430 O414 1.249 . S
C430 O415 1.244 . S
C430 C424 1.505 . S
C431 O418 1.258 . S
C431 O419 1.242 . S
H432 C404 0.930 . S
H433 C405 0.930 . S
H434 C406 0.930 . S
H435 C407 0.931 . S
H436 C425 0.930 1_554 S
H437 C426 0.930 . S
H438 C427 0.930 . S
H439 C428 0.931 . S
Eu440 C449 2.828 1_545 S
Eu440 O451 2.392 . S
Eu440 O453 2.418 . S
Eu440 O458 2.373 1_545 S
Eu440 O461 2.488 . S
Eu440 O462 2.471 1_545 S
Eu440 O463 2.349 1_545 S
Eu441 O450 2.373 1_565 S
Eu441 O454 2.488 . S
Eu441 O455 2.471 . S
Eu441 O456 2.349 . S
Eu441 O459 2.392 . S
Eu441 O460 2.418 . S
Eu441 C470 2.828 . S
C442 O460 1.244 . S
C442 O463 1.265 . S
C443 C444 1.379 . S
C443 C447 1.373 . S
C443 C449 1.505 . S
C444 C443 1.379 . S
C444 C446 1.369 . S
C444 H472 0.930 . S
C445 C447 1.383 . S
C445 C448 1.382 . S
C445 H473 0.930 . S
C446 C444 1.369 . S
C446 C448 1.392 . S
C446 H474 0.930 . S
C447 C443 1.373 . S
C447 C445 1.383 . S
C447 H475 0.931 . S
C448 C445 1.382 . S
C448 C446 1.392 . S
C449 Eu440 2.828 1_565 S
C449 C443 1.505 . S
C449 O461 1.249 1_565 S
C449 O462 1.244 . S
O450 Eu441 2.373 1_545 S
O450 C452 1.258 . S
O451 Eu440 2.392 . S
O451 C452 1.242 . S
C452 O450 1.258 . S
C452 O451 1.242 . S
O453 Eu440 2.418 . S
O453 C457 1.244 . S
O454 Eu441 2.488 . S
O454 C470 1.249 . S
O455 Eu441 2.471 . S
O455 C470 1.244 . S
O456 Eu441 2.349 . S
O456 C457 1.265 1_565 S
C457 O453 1.244 . S
C457 O456 1.265 1_545 S
O458 Eu440 2.373 1_565 S
O458 C471 1.258 . S
O459 Eu441 2.392 . S
O459 C471 1.242 . S
O460 Eu441 2.418 . S
O460 C442 1.244 . S
O461 Eu440 2.488 . S
O461 C449 1.249 1_545 S
O462 Eu440 2.471 1_565 S
O462 C449 1.244 . S
O463 Eu440 2.349 1_565 S
O463 C442 1.265 . S
C464 C465 1.379 . S
C464 C468 1.373 1_545 S
C464 C470 1.505 1_545 S
C465 C464 1.379 . S
C465 C467 1.369 . S
C465 H476 0.930 . S
C466 C468 1.383 1_545 S
C466 C469 1.382 . S
C466 H477 0.930 1_545 S
C467 C465 1.369 . S
C467 C469 1.392 . S
C467 H478 0.930 . S
C468 C464 1.373 1_565 S
C468 C466 1.383 1_565 S
C468 H479 0.931 . S
C469 C466 1.382 . S
C469 C467 1.392 . S
C470 Eu441 2.828 . S
C470 O454 1.249 . S
C470 O455 1.244 . S
C470 C464 1.505 1_565 S
C471 O458 1.258 . S
C471 O459 1.242 . S
H472 C444 0.930 . S
H473 C445 0.930 . S
H474 C446 0.930 . S
H475 C447 0.931 . S
H476 C465 0.930 . S
H477 C466 0.930 1_565 S
H478 C467 0.930 . S
H479 C468 0.931 . S
Eu480 C489 2.828 . S
Eu480 O491 2.392 . S
Eu480 O493 2.418 . S
Eu480 O498 2.373 . S
Eu480 O501 2.488 . S
Eu480 O502 2.471 . S
Eu480 O503 2.349 . S
Eu481 O490 2.373 . S
Eu481 O494 2.488 . S
Eu481 O495 2.471 . S
Eu481 O496 2.349 . S
Eu481 O499 2.392 . S
Eu481 O500 2.418 . S
Eu481 C510 2.828 . S
C482 O500 1.244 . S
C482 O503 1.265 . S
C483 C484 1.379 . S
C483 C487 1.373 . S
C483 C489 1.505 . S
C484 C483 1.379 . S
C484 C486 1.369 . S
C484 H512 0.930 . S
C485 C487 1.383 . S
C485 C488 1.382 . S
C485 H513 0.930 . S
C486 C484 1.369 . S
C486 C488 1.392 . S
C486 H514 0.930 . S
C487 C483 1.373 . S
C487 C485 1.383 . S
C487 H515 0.931 . S
C488 C485 1.382 . S
C488 C486 1.392 . S
C489 Eu480 2.828 . S
C489 C483 1.505 . S
C489 O501 1.249 . S
C489 O502 1.244 . S
O490 Eu481 2.373 . S
O490 C492 1.258 . S
O491 Eu480 2.392 . S
O491 C492 1.242 . S
C492 O490 1.258 . S
C492 O491 1.242 . S
O493 Eu480 2.418 . S
O493 C497 1.244 . S
O494 Eu481 2.488 . S
O494 C510 1.249 . S
O495 Eu481 2.471 . S
O495 C510 1.244 . S
O496 Eu481 2.349 . S
O496 C497 1.265 . S
C497 O493 1.244 . S
C497 O496 1.265 . S
O498 Eu480 2.373 . S
O498 C511 1.258 . S
O499 Eu481 2.392 . S
O499 C511 1.242 . S
O500 Eu481 2.418 . S
O500 C482 1.244 . S
O501 Eu480 2.488 . S
O501 C489 1.249 . S
O502 Eu480 2.471 . S
O502 C489 1.244 . S
O503 Eu480 2.349 . S
O503 C482 1.265 . S
C504 C505 1.379 . S
C504 C508 1.373 . S
C504 C510 1.505 . S
C505 C504 1.379 . S
C505 C507 1.369 . S
C505 H516 0.930 . S
C506 C508 1.383 . S
C506 C509 1.382 . S
C506 H517 0.930 . S
C507 C505 1.369 . S
C507 C509 1.392 . S
C507 H518 0.930 . S
C508 C504 1.373 . S
C508 C506 1.383 . S
C508 H519 0.931 . S
C509 C506 1.382 . S
C509 C507 1.392 . S
C510 Eu481 2.828 . S
C510 O494 1.249 . S
C510 O495 1.244 . S
C510 C504 1.505 . S
C511 O498 1.258 . S
C511 O499 1.242 . S
H512 C484 0.930 . S
H513 C485 0.930 . S
H514 C486 0.930 . S
H515 C487 0.931 . S
H516 C505 0.930 . S
H517 C506 0.930 . S
H518 C507 0.930 . S
H519 C508 0.931 . S
Eu520 C529 2.828 . S
Eu520 O531 2.392 . S
Eu520 O533 2.418 . S
Eu520 O538 2.373 1_565 S
Eu520 O541 2.488 . S
Eu520 O542 2.471 . S
Eu520 O543 2.349 . S
Eu521 O530 2.373 1_545 S
Eu521 O534 2.488 1_655 S
Eu521 O535 2.471 1_545 S
Eu521 O536 2.349 1_545 S
Eu521 O539 2.392 . S
Eu521 O540 2.418 1_655 S
Eu521 C550 2.828 1_545 S
C522 O540 1.244 1_655 S
C522 O543 1.265 1_545 S
C523 C524 1.379 . S
C523 C527 1.373 1_545 S
C523 C529 1.505 1_545 S
C524 C523 1.379 . S
C524 C526 1.369 . S
C524 H552 0.930 . S
C525 C527 1.383 1_545 S
C525 C528 1.382 . S
C525 H553 0.930 1_545 S
C526 C524 1.369 . S
C526 C528 1.392 . S
C526 H554 0.930 . S
C527 C523 1.373 1_565 S
C527 C525 1.383 1_565 S
C527 H555 0.931 . S
C528 C525 1.382 . S
C528 C526 1.392 . S
C529 Eu520 2.828 . S
C529 C523 1.505 1_565 S
C529 O541 1.249 . S
C529 O542 1.244 . S
O530 Eu521 2.373 1_565 S
O530 C532 1.258 . S
O531 Eu520 2.392 . S
O531 C532 1.242 . S
C532 O530 1.258 . S
C532 O531 1.242 . S
O533 Eu520 2.418 . S
O533 C537 1.244 . S
O534 Eu521 2.488 1_455 S
O534 C550 1.249 1_445 S
O535 Eu521 2.471 1_565 S
O535 C550 1.244 . S
O536 Eu521 2.349 1_565 S
O536 C537 1.265 . S
C537 O533 1.244 . S
C537 O536 1.265 . S
O538 Eu520 2.373 1_545 S
O538 C551 1.258 . S
O539 Eu521 2.392 . S
O539 C551 1.242 . S
O540 Eu521 2.418 1_455 S
O540 C522 1.244 1_455 S
O541 Eu520 2.488 . S
O541 C529 1.249 . S
O542 Eu520 2.471 . S
O542 C529 1.244 . S
O543 Eu520 2.349 . S
O543 C522 1.265 1_565 S
C544 C545 1.379 1_455 S
C544 C548 1.373 . S
C544 C550 1.505 1_455 S
C545 C544 1.379 1_655 S
C545 C547 1.369 1_654 S
C545 H556 0.930 . S
C546 C548 1.383 1_556 S
C546 C549 1.382 . S
C546 H557 0.930 . S
C547 C545 1.369 1_456 S
C547 C549 1.392 . S
C547 H558 0.930 1_455 S
C548 C544 1.373 . S
C548 C546 1.383 1_554 S
C548 H559 0.931 . S
C549 C546 1.382 . S
C549 C547 1.392 . S
C550 Eu521 2.828 1_565 S
C550 O534 1.249 1_665 S
C550 O535 1.244 . S
C550 C544 1.505 1_655 S
C551 O538 1.258 . S
C551 O539 1.242 . S
H552 C524 0.930 . S
H553 C525 0.930 1_565 S
H554 C526 0.930 . S
H555 C527 0.931 . S
H556 C545 0.930 . S
H557 C546 0.930 . S
H558 C547 0.930 1_655 S
H559 C548 0.931 . S
Eu560 C569 2.828 . S
Eu560 O571 2.392 . S
Eu560 O573 2.418 . S
Eu560 O578 2.373 . S
Eu560 O581 2.488 . S
Eu560 O582 2.471 . S
Eu560 O583 2.349 . S
Eu561 O570 2.373 . S
Eu561 O574 2.488 . S
Eu561 O575 2.471 . S
Eu561 O576 2.349 . S
Eu561 O579 2.392 . S
Eu561 O580 2.418 . S
Eu561 C590 2.828 . S
C562 O580 1.244 . S
C562 O583 1.265 . S
C563 C564 1.379 1_556 S
C563 C567 1.373 . S
C563 C569 1.505 . S
C564 C563 1.379 1_554 S
C564 C566 1.369 . S
C564 H592 0.930 1_554 S
C565 C567 1.383 1_554 S
C565 C568 1.382 . S
C565 H593 0.930 . S
C566 C564 1.369 . S
C566 C568 1.392 . S
C566 H594 0.930 . S
C567 C563 1.373 . S
C567 C565 1.383 1_556 S
C567 H595 0.931 . S
C568 C565 1.382 . S
C568 C566 1.392 . S
C569 Eu560 2.828 . S
C569 C563 1.505 . S
C569 O581 1.249 . S
C569 O582 1.244 . S
O570 Eu561 2.373 . S
O570 C572 1.258 . S
O571 Eu560 2.392 . S
O571 C572 1.242 . S
C572 O570 1.258 . S
C572 O571 1.242 . S
O573 Eu560 2.418 . S
O573 C577 1.244 . S
O574 Eu561 2.488 . S
O574 C590 1.249 . S
O575 Eu561 2.471 . S
O575 C590 1.244 . S
O576 Eu561 2.349 . S
O576 C577 1.265 . S
C577 O573 1.244 . S
C577 O576 1.265 . S
O578 Eu560 2.373 . S
O578 C591 1.258 . S
O579 Eu561 2.392 . S
O579 C591 1.242 . S
O580 Eu561 2.418 . S
O580 C562 1.244 . S
O581 Eu560 2.488 . S
O581 C569 1.249 . S
O582 Eu560 2.471 . S
O582 C569 1.244 . S
O583 Eu560 2.349 . S
O583 C562 1.265 . S
C584 C585 1.379 . S
C584 C588 1.373 . S
C584 C590 1.505 . S
C585 C584 1.379 . S
C585 C587 1.369 . S
C585 H596 0.930 . S
C586 C588 1.383 . S
C586 C589 1.382 . S
C586 H597 0.930 . S
C587 C585 1.369 . S
C587 C589 1.392 . S
C587 H598 0.930 . S
C588 C584 1.373 . S
C588 C586 1.383 . S
C588 H599 0.931 . S
C589 C586 1.382 . S
C589 C587 1.392 . S
C590 Eu561 2.828 . S
C590 O574 1.249 . S
C590 O575 1.244 . S
C590 C584 1.505 . S
C591 O578 1.258 . S
C591 O579 1.242 . S
H592 C564 0.930 1_556 S
H593 C565 0.930 . S
H594 C566 0.930 . S
H595 C567 0.931 . S
H596 C585 0.930 . S
H597 C586 0.930 . S
H598 C587 0.930 . S
H599 C588 0.931 . S
Eu600 C609 2.828 . S
Eu600 O611 2.392 . S
Eu600 O613 2.418 . S
Eu600 O618 2.373 1_545 S
Eu600 O621 2.488 . S
Eu600 O622 2.471 . S
Eu600 O623 2.349 . S
Eu601 O610 2.373 1_565 S
Eu601 O614 2.488 . S
Eu601 O615 2.471 1_565 S
Eu601 O616 2.349 1_565 S
Eu601 O619 2.392 . S
Eu601 O620 2.418 . S
Eu601 C630 2.828 1_565 S
C602 O620 1.244 . S
C602 O623 1.265 1_565 S
C603 C604 1.379 . S
C603 C607 1.373 1_565 S
C603 C609 1.505 1_565 S
C604 C603 1.379 . S
C604 C606 1.369 . S
C604 H632 0.930 . S
C605 C607 1.383 1_565 S
C605 C608 1.382 . S
C605 H633 0.930 1_565 S
C606 C604 1.369 . S
C606 C608 1.392 . S
C606 H634 0.930 . S
C607 C603 1.373 1_545 S
C607 C605 1.383 1_545 S
C607 H635 0.931 . S
C608 C605 1.382 . S
C608 C606 1.392 . S
C609 Eu600 2.828 . S
C609 C603 1.505 1_545 S
C609 O621 1.249 . S
C609 O622 1.244 . S
O610 Eu601 2.373 1_545 S
O610 C612 1.258 . S
O611 Eu600 2.392 . S
O611 C612 1.242 . S
C612 O610 1.258 . S
C612 O611 1.242 . S
O613 Eu600 2.418 . S
O613 C617 1.244 . S
O614 Eu601 2.488 . S
O614 C630 1.249 1_565 S
O615 Eu601 2.471 1_545 S
O615 C630 1.244 . S
O616 Eu601 2.349 1_545 S
O616 C617 1.265 . S
C617 O613 1.244 . S
C617 O616 1.265 . S
O618 Eu600 2.373 1_565 S
O618 C631 1.258 . S
O619 Eu601 2.392 . S
O619 C631 1.242 . S
O620 Eu601 2.418 . S
O620 C602 1.244 . S
O621 Eu600 2.488 . S
O621 C609 1.249 . S
O622 Eu600 2.471 . S
O622 C609 1.244 . S
O623 Eu600 2.349 . S
O623 C602 1.265 1_545 S
C624 C625 1.379 . S
C624 C628 1.373 . S
C624 C630 1.505 . S
C625 C624 1.379 . S
C625 C627 1.369 . S
C625 H636 0.930 . S
C626 C628 1.383 . S
C626 C629 1.382 . S
C626 H637 0.930 . S
C627 C625 1.369 . S
C627 C629 1.392 . S
C627 H638 0.930 . S
C628 C624 1.373 . S
C628 C626 1.383 . S
C628 H639 0.931 . S
C629 C626 1.382 . S
C629 C627 1.392 . S
C630 Eu601 2.828 1_545 S
C630 O614 1.249 1_545 S
C630 O615 1.244 . S
C630 C624 1.505 . S
C631 O618 1.258 . S
C631 O619 1.242 . S
H632 C604 0.930 . S
H633 C605 0.930 1_545 S
H634 C606 0.930 . S
H635 C607 0.931 . S
H636 C625 0.930 . S
H637 C626 0.930 . S
H638 C627 0.930 . S
H639 C628 0.931 . S
C8 C509 5.746 . S
C229 C48 5.747 . S
C88 C589 5.746 . S
C128 C309 5.749 1_454 S
C189 C328 5.746 . S
C408 C269 5.745 . S
C549 C368 5.746 1_466 S
C448 C629 5.748 1_565 S
C362 C29 5.010 1_545 S
C69 C402 5.011 . S
C109 C442 5.011 1_545 S
C322 C149 5.010 . S
C537 C168 5.009 1_565 S
C577 C208 5.010 . S
C248 C617 5.010 1_565 S
C497 C288 5.009 . S
C349 C42 5.009 . S
C389 C82 5.011 1_565 S
C429 C122 5.010 . S
C2 C469 5.010 1_565 S
C217 C488 5.009 . S
C528 C257 5.011 1_545 S
C297 C568 5.011 . S
C608 C177 5.010 1_565 S
C31 C431 4.010 . S
C71 C471 4.008 . S
C351 C111 4.010 1_655 S
C151 C391 4.008 1_655 S
C172 C572 4.010 . S
C212 C612 4.008 . S
C492 C252 4.010 1_455 S
C292 C532 4.008 1_455 S
C17 C311 3.748 . S
C511 C57 3.748 . S
C97 C231 3.748 . S
C137 C591 3.748 1_655 S
C162 C132 3.748 . S
C332 C202 3.749 . S
C242 C52 3.748 . S
C412 C282 3.749 1_655 S
C337 C631 3.749 . S
C191 C377 3.748 1_655 S
C551 C417 3.749 . S
C457 C271 3.748 . S
C482 C452 3.749 . S
C522 C12 3.748 1_655 S
C372 C562 3.749 . S
C92 C602 3.747 . S
