# Generated by pormake.
# Topology uks, (4)-cn, num edge types: 1
# Building blocks:
#     Node 0, Type 0, BuildingBlock: NAWXER_clean_sbu_0, # of connection points: 4
#     Node 1, Type 0, BuildingBlock: NAWXER_clean_sbu_0, # of connection points: 4
#     Node 2, Type 0, BuildingBlock: NAWXER_clean_sbu_0, # of connection points: 4
#     Node 3, Type 0, BuildingBlock: NAWXER_clean_sbu_0, # of connection points: 4
#     Node 4, Type 0, BuildingBlock: NAWXER_clean_sbu_0, # of connection points: 4
#     Node 5, Type 0, BuildingBlock: NAWXER_clean_sbu_0, # of connection points: 4
#     Node 6, Type 0, BuildingBlock: NAWXER_clean_sbu_0, # of connection points: 4
#     Node 7, Type 0, BuildingBlock: NAWXER_clean_sbu_0, # of connection points: 4
#     Node 8, Type 0, BuildingBlock: NAWXER_clean_sbu_0, # of connection points: 4
#     Node 9, Type 0, BuildingBlock: NAWXER_clean_sbu_0, # of connection points: 4
#     Node 10, Type 0, BuildingBlock: NAWXER_clean_sbu_0, # of connection points: 4
#     Node 11, Type 0, BuildingBlock: NAWXER_clean_sbu_0, # of connection points: 4
#     Node 12, Type 0, BuildingBlock: NAWXER_clean_sbu_0, # of connection points: 4
#     Node 13, Type 0, BuildingBlock: NAWXER_clean_sbu_0, # of connection points: 4
#     Node 14, Type 0, BuildingBlock: NAWXER_clean_sbu_0, # of connection points: 4
#     Node 15, Type 0, BuildingBlock: NAWXER_clean_sbu_0, # of connection points: 4
#     Node 16, Type 0, BuildingBlock: NAWXER_clean_sbu_0, # of connection points: 4
#     Node 17, Type 0, BuildingBlock: NAWXER_clean_sbu_0, # of connection points: 4
#     Node 18, Type 0, BuildingBlock: NAWXER_clean_sbu_0, # of connection points: 4
#     Node 19, Type 0, BuildingBlock: NAWXER_clean_sbu_0, # of connection points: 4
#     Node 20, Type 0, BuildingBlock: NAWXER_clean_sbu_0, # of connection points: 4
#     Node 21, Type 0, BuildingBlock: NAWXER_clean_sbu_0, # of connection points: 4
#     Node 22, Type 0, BuildingBlock: NAWXER_clean_sbu_0, # of connection points: 4
#     Node 23, Type 0, BuildingBlock: NAWXER_clean_sbu_0, # of connection points: 4
#     Edge 24, Type (0, 0), BuildingBlock: XIVTED_clean_linker_0, # of connection points: 2
#     Edge 25, Type (0, 0), BuildingBlock: XIVTED_clean_linker_0, # of connection points: 2
#     Edge 26, Type (0, 0), BuildingBlock: XIVTED_clean_linker_0, # of connection points: 2
#     Edge 27, Type (0, 0), BuildingBlock: XIVTED_clean_linker_0, # of connection points: 2
#     Edge 28, Type (0, 0), BuildingBlock: XIVTED_clean_linker_0, # of connection points: 2
#     Edge 29, Type (0, 0), BuildingBlock: XIVTED_clean_linker_0, # of connection points: 2
#     Edge 30, Type (0, 0), BuildingBlock: XIVTED_clean_linker_0, # of connection points: 2
#     Edge 31, Type (0, 0), BuildingBlock: XIVTED_clean_linker_0, # of connection points: 2
#     Edge 32, Type (0, 0), BuildingBlock: XIVTED_clean_linker_0, # of connection points: 2
#     Edge 33, Type (0, 0), BuildingBlock: XIVTED_clean_linker_0, # of connection points: 2
#     Edge 34, Type (0, 0), BuildingBlock: XIVTED_clean_linker_0, # of connection points: 2
#     Edge 35, Type (0, 0), BuildingBlock: XIVTED_clean_linker_0, # of connection points: 2
#     Edge 36, Type (0, 0), BuildingBlock: XIVTED_clean_linker_0, # of connection points: 2
#     Edge 37, Type (0, 0), BuildingBlock: XIVTED_clean_linker_0, # of connection points: 2
#     Edge 38, Type (0, 0), BuildingBlock: XIVTED_clean_linker_0, # of connection points: 2
#     Edge 39, Type (0, 0), BuildingBlock: XIVTED_clean_linker_0, # of connection points: 2
#     Edge 40, Type (0, 0), BuildingBlock: XIVTED_clean_linker_0, # of connection points: 2
#     Edge 41, Type (0, 0), BuildingBlock: XIVTED_clean_linker_0, # of connection points: 2
#     Edge 42, Type (0, 0), BuildingBlock: XIVTED_clean_linker_0, # of connection points: 2
#     Edge 43, Type (0, 0), BuildingBlock: XIVTED_clean_linker_0, # of connection points: 2
#     Edge 44, Type (0, 0), BuildingBlock: XIVTED_clean_linker_0, # of connection points: 2
#     Edge 45, Type (0, 0), BuildingBlock: XIVTED_clean_linker_0, # of connection points: 2
#     Edge 46, Type (0, 0), BuildingBlock: XIVTED_clean_linker_0, # of connection points: 2
#     Edge 47, Type (0, 0), BuildingBlock: XIVTED_clean_linker_0, # of connection points: 2
#     Edge 48, Type (0, 0), BuildingBlock: XIVTED_clean_linker_0, # of connection points: 2
#     Edge 49, Type (0, 0), BuildingBlock: XIVTED_clean_linker_0, # of connection points: 2
#     Edge 50, Type (0, 0), BuildingBlock: XIVTED_clean_linker_0, # of connection points: 2
#     Edge 51, Type (0, 0), BuildingBlock: XIVTED_clean_linker_0, # of connection points: 2
#     Edge 52, Type (0, 0), BuildingBlock: XIVTED_clean_linker_0, # of connection points: 2
#     Edge 53, Type (0, 0), BuildingBlock: XIVTED_clean_linker_0, # of connection points: 2
#     Edge 54, Type (0, 0), BuildingBlock: XIVTED_clean_linker_0, # of connection points: 2
#     Edge 55, Type (0, 0), BuildingBlock: XIVTED_clean_linker_0, # of connection points: 2
#     Edge 56, Type (0, 0), BuildingBlock: XIVTED_clean_linker_0, # of connection points: 2
#     Edge 57, Type (0, 0), BuildingBlock: XIVTED_clean_linker_0, # of connection points: 2
#     Edge 58, Type (0, 0), BuildingBlock: XIVTED_clean_linker_0, # of connection points: 2
#     Edge 59, Type (0, 0), BuildingBlock: XIVTED_clean_linker_0, # of connection points: 2
#     Edge 60, Type (0, 0), BuildingBlock: XIVTED_clean_linker_0, # of connection points: 2
#     Edge 61, Type (0, 0), BuildingBlock: XIVTED_clean_linker_0, # of connection points: 2
#     Edge 62, Type (0, 0), BuildingBlock: XIVTED_clean_linker_0, # of connection points: 2
#     Edge 63, Type (0, 0), BuildingBlock: XIVTED_clean_linker_0, # of connection points: 2
#     Edge 64, Type (0, 0), BuildingBlock: XIVTED_clean_linker_0, # of connection points: 2
#     Edge 65, Type (0, 0), BuildingBlock: XIVTED_clean_linker_0, # of connection points: 2
#     Edge 66, Type (0, 0), BuildingBlock: XIVTED_clean_linker_0, # of connection points: 2
#     Edge 67, Type (0, 0), BuildingBlock: XIVTED_clean_linker_0, # of connection points: 2
#     Edge 68, Type (0, 0), BuildingBlock: XIVTED_clean_linker_0, # of connection points: 2
#     Edge 69, Type (0, 0), BuildingBlock: XIVTED_clean_linker_0, # of connection points: 2
#     Edge 70, Type (0, 0), BuildingBlock: XIVTED_clean_linker_0, # of connection points: 2
#     Edge 71, Type (0, 0), BuildingBlock: XIVTED_clean_linker_0, # of connection points: 2
# Relax obj value: 0.065
# Max RMSD: 0.064
# Mean RMSD: 0.064
data_MOF--net-uks--node1-NAWXER_clean_sbu_0--edge1-XIVTED_clean_linker_0
_symmetry_space_group_name_H-M    P1
_symmetry_Int_Tables_number       1
_symmetry_cell_setting            triclinic
loop_
_symmetry_equiv_pos_as_xyz
'x, y, z'
_cell_length_a     54.400038
_cell_length_b     54.33229
_cell_length_c     54.017687
_cell_angle_alpha  89.759298
_cell_angle_beta   89.584872
_cell_angle_gamma 89.811294
loop_
_atom_site_label
_atom_site_type_symbol
_atom_site_fract_x
_atom_site_fract_y
_atom_site_fract_z
_atom_type_partial_charge
C0 C 0.06937 0.3995 0.7159 0.0
C1 C 0.15306 0.38347 0.74597 0.0
O2 O 0.08404 0.39077 0.69942 0.0
Zn3 Zn 0.12137 0.37856 0.69612 0.0
O4 O 0.07708 0.40275 0.73783 0.0
Zn5 Zn 0.11077 0.39158 0.73208 0.0
O6 O 0.12475 0.41904 0.70696 0.0
O7 O 0.13473 0.40091 0.67173 0.0
O8 O 0.13512 0.3918 0.75871 0.0
O9 O 0.14978 0.3782 0.72314 0.0
O10 O 0.11826 0.34394 0.68814 0.0
O11 O 0.10594 0.35303 0.72604 0.0
C12 C 0.13326 0.42029 0.68477 0.0
C13 C 0.10942 0.33711 0.7089 0.0
C14 C 0.59157 0.64959 0.19385 0.0
C15 C 0.67204 0.62742 0.22672 0.0
O16 O 0.59015 0.63921 0.21523 0.0
Zn17 Zn 0.61479 0.62304 0.24198 0.0
O18 O 0.61235 0.65139 0.18313 0.0
Zn19 Zn 0.63197 0.63635 0.20883 0.0
O20 O 0.62316 0.59806 0.20785 0.0
O21 O 0.60598 0.58794 0.24344 0.0
O22 O 0.66735 0.63588 0.20526 0.0
O23 O 0.6543 0.6218 0.24142 0.0
O24 O 0.61009 0.64513 0.27057 0.0
O25 O 0.62813 0.66246 0.23826 0.0
C26 C 0.61362 0.58166 0.22205 0.0
C27 C 0.62004 0.66394 0.26055 0.0
C28 C 0.34402 0.13692 0.73139 0.0
C29 C 0.42585 0.12992 0.69265 0.0
O30 O 0.34484 0.142 0.70823 0.0
Zn31 Zn 0.37003 0.14295 0.678 0.0
O32 O 0.36342 0.12943 0.74215 0.0
Zn33 Zn 0.3852 0.13096 0.71292 0.0
O34 O 0.38612 0.16957 0.70549 0.0
O35 O 0.36886 0.17784 0.66941 0.0
O36 O 0.42034 0.12404 0.71486 0.0
O37 O 0.40879 0.13662 0.6778 0.0
O38 O 0.35713 0.11822 0.65586 0.0
O39 O 0.37189 0.10208 0.69025 0.0
C40 C 0.37976 0.18513 0.68882 0.0
C41 C 0.36158 0.0994 0.66919 0.0
C42 C 0.93973 0.8855 0.21458 0.0
C43 C 0.85212 0.8892 0.23807 0.0
O44 O 0.93122 0.8892 0.23628 0.0
Zn45 Zn 0.8965 0.88782 0.22758 0.0
O46 O 0.92498 0.8821 0.19653 0.0
Zn47 Zn 0.88622 0.87952 0.18997 0.0
O48 O 0.88122 0.90729 0.16696 0.0
O49 O 0.89229 0.91927 0.20419 0.0
O50 O 0.85588 0.88438 0.21512 0.0
O51 O 0.87047 0.8924 0.25218 0.0
O52 O 0.89359 0.84989 0.21943 0.0
O53 O 0.88337 0.84418 0.18055 0.0
C54 C 0.88651 0.92461 0.18185 0.0
C55 C 0.88892 0.8352 0.20164 0.0
C56 C 0.13018 0.08466 0.80639 0.0
C57 C 0.11373 0.1658 0.77143 0.0
O58 O 0.12213 0.08937 0.78483 0.0
Zn59 Zn 0.12162 0.12482 0.788 0.0
O60 O 0.1346 0.10229 0.82135 0.0
Zn61 Zn 0.13285 0.14137 0.82227 0.0
O62 O 0.10819 0.14733 0.84798 0.0
O63 O 0.09281 0.13028 0.81449 0.0
O64 O 0.1213 0.16635 0.79385 0.0
O65 O 0.11147 0.14531 0.7604 0.0
O66 O 0.15964 0.13369 0.79036 0.0
O67 O 0.16758 0.14974 0.82691 0.0
C68 C 0.08979 0.13882 0.83639 0.0
C69 C 0.17499 0.14283 0.80564 0.0
C70 C 0.92874 0.63546 0.32113 0.0
C71 C 0.8456 0.62678 0.28818 0.0
O72 O 0.92796 0.62602 0.29941 0.0
Zn73 Zn 0.90146 0.61589 0.27205 0.0
O74 O 0.90886 0.6416 0.33208 0.0
Zn75 Zn 0.8867 0.63118 0.30612 0.0
O76 O 0.89164 0.59233 0.30655 0.0
O77 O 0.90595 0.57972 0.27049 0.0
O78 O 0.85117 0.63475 0.30953 0.0
O79 O 0.86263 0.61942 0.27347 0.0
O80 O 0.90896 0.63887 0.24433 0.0
O81 O 0.89509 0.65735 0.27797 0.0
C82 C 0.89889 0.57476 0.29251 0.0
C83 C 0.90307 0.6586 0.25565 0.0
C84 C 0.41144 0.36036 0.83672 0.0
C85 C 0.32605 0.36755 0.80812 0.0
O86 O 0.39224 0.35216 0.84749 0.0
Zn87 Zn 0.36828 0.36382 0.82349 0.0
O88 O 0.40929 0.37236 0.81635 0.0
Zn89 Zn 0.38065 0.38431 0.79196 0.0
O90 O 0.38281 0.4195 0.79354 0.0
O91 O 0.36874 0.40286 0.82819 0.0
O92 O 0.34189 0.37801 0.79395 0.0
O93 O 0.33319 0.3568 0.82779 0.0
O94 O 0.37796 0.34271 0.79126 0.0
O95 O 0.3888 0.36833 0.76115 0.0
C96 C 0.37457 0.42195 0.81546 0.0
C97 C 0.38523 0.34653 0.76893 0.0
C98 C 0.59075 0.87863 0.32784 0.0
C99 C 0.67728 0.88823 0.30106 0.0
O100 O 0.59776 0.88583 0.30645 0.0
Zn101 Zn 0.63333 0.88479 0.31295 0.0
O102 O 0.60684 0.87402 0.3444 0.0
Zn103 Zn 0.64547 0.87344 0.34947 0.0
O104 O 0.65009 0.8992 0.37439 0.0
O105 O 0.63755 0.91409 0.33858 0.0
O106 O 0.67438 0.8813 0.32361 0.0
O107 O 0.65841 0.8924 0.28782 0.0
O108 O 0.6392 0.84634 0.3178 0.0
O109 O 0.65024 0.83801 0.35623 0.0
C110 C 0.64388 0.91759 0.36109 0.0
C111 C 0.6452 0.83066 0.33447 0.0
C112 C 0.74339 0.10548 0.3633 0.0
C113 C 0.72439 0.12556 0.45075 0.0
O114 O 0.75765 0.1007 0.38137 0.0
Zn115 Zn 0.73662 0.11515 0.40763 0.0
O116 O 0.72323 0.11697 0.36731 0.0
Zn117 Zn 0.70196 0.13223 0.39619 0.0
O118 O 0.70276 0.16759 0.38775 0.0
O119 O 0.73912 0.1532 0.39847 0.0
O120 O 0.70855 0.1325 0.43473 0.0
O121 O 0.74385 0.11452 0.44351 0.0
O122 O 0.706 0.09108 0.40613 0.0
O123 O 0.6728 0.11094 0.39365 0.0
C124 C 0.72565 0.17115 0.39116 0.0
C125 C 0.68317 0.09099 0.40057 0.0
C126 C 0.86966 0.20135 0.93608 0.0
C127 C 0.89623 0.23779 0.85649 0.0
O128 O 0.87989 0.2222 0.93302 0.0
Zn129 Zn 0.88489 0.22061 0.89711 0.0
O130 O 0.86679 0.18727 0.91737 0.0
Zn131 Zn 0.87349 0.18745 0.87851 0.0
O132 O 0.89783 0.16149 0.87342 0.0
O133 O 0.91311 0.19381 0.89245 0.0
O134 O 0.88782 0.21585 0.85511 0.0
O135 O 0.8978 0.24818 0.87754 0.0
O136 O 0.84824 0.22065 0.88389 0.0
O137 O 0.83986 0.18513 0.86608 0.0
C138 C 0.91607 0.17236 0.88311 0.0
C139 C 0.83322 0.20672 0.87247 0.0
C140 C 0.82874 0.38285 0.42803 0.0
C141 C 0.79533 0.39879 0.34537 0.0
O142 O 0.80953 0.39504 0.42252 0.0
Zn143 Zn 0.81072 0.39082 0.38691 0.0
O144 O 0.84167 0.37315 0.41064 0.0
Zn145 Zn 0.84057 0.37034 0.37098 0.0
O146 O 0.86986 0.38798 0.35898 0.0
O147 O 0.84178 0.41239 0.37557 0.0
O148 O 0.81484 0.38555 0.34548 0.0
O149 O 0.78572 0.40563 0.36581 0.0
O150 O 0.80336 0.35237 0.38223 0.0
O151 O 0.83624 0.33496 0.36583 0.0
C152 C 0.8626 0.40955 0.36467 0.0
C153 C 0.81432 0.3331 0.37404 0.0
C154 C 0.60597 0.24235 0.87661 0.0
C155 C 0.62539 0.29342 0.94867 0.0
O156 O 0.60358 0.23577 0.89917 0.0
Zn157 Zn 0.61343 0.26739 0.91306 0.0
O158 O 0.61293 0.26423 0.87121 0.0
Zn159 Zn 0.62465 0.29712 0.88945 0.0
O160 O 0.65835 0.29867 0.87693 0.0
O161 O 0.65083 0.26639 0.90075 0.0
O162 O 0.62922 0.30437 0.92795 0.0
O163 O 0.6161 0.27198 0.94873 0.0
O164 O 0.58408 0.29144 0.90184 0.0
O165 O 0.6002 0.32076 0.87857 0.0
C166 C 0.66558 0.27862 0.88684 0.0
C167 C 0.58142 0.31096 0.88867 0.0
C168 C 0.72068 0.40353 0.18171 0.0
C169 C 0.67947 0.37115 0.10817 0.0
O170 O 0.7281 0.40675 0.15949 0.0
Zn171 Zn 0.70117 0.3884 0.14438 0.0
O172 O 0.70155 0.39057 0.18614 0.0
Zn173 Zn 0.67392 0.37055 0.1674 0.0
O174 O 0.68089 0.33696 0.17932 0.0
O175 O 0.71085 0.35207 0.15623 0.0
O176 O 0.66901 0.36501 0.12862 0.0
O177 O 0.69828 0.38498 0.10862 0.0
O178 O 0.67069 0.41127 0.15486 0.0
O179 O 0.64526 0.38988 0.1785 0.0
C180 C 0.70209 0.33448 0.16943 0.0
C181 C 0.65113 0.41019 0.1682 0.0
C182 C 0.64198 0.18106 0.71038 0.0
C183 C 0.66767 0.16278 0.62463 0.0
O184 O 0.63375 0.19603 0.694 0.0
Zn185 Zn 0.63563 0.20244 0.65494 0.0
O186 O 0.65662 0.16384 0.7039 0.0
Zn187 Zn 0.65583 0.17114 0.66826 0.0
O188 O 0.67585 0.20507 0.66661 0.0
O189 O 0.6514 0.23447 0.65284 0.0
O190 O 0.67335 0.15053 0.64389 0.0
O191 O 0.65391 0.18184 0.62686 0.0
O192 O 0.60136 0.19917 0.64646 0.0
O193 O 0.61741 0.16477 0.66123 0.0
C194 C 0.67237 0.22768 0.66061 0.0
C195 C 0.59873 0.17691 0.65338 0.0
C196 C 0.80329 0.17989 0.16728 0.0
C197 C 0.84827 0.10144 0.15239 0.0
O198 O 0.82598 0.1765 0.17213 0.0
Zn199 Zn 0.82865 0.14228 0.15972 0.0
O200 O 0.79112 0.16269 0.15695 0.0
Zn201 Zn 0.79534 0.12635 0.14356 0.0
O202 O 0.77244 0.10891 0.16621 0.0
O203 O 0.80546 0.12339 0.18466 0.0
O204 O 0.82601 0.10227 0.14496 0.0
O205 O 0.85779 0.12052 0.16209 0.0
O206 O 0.825 0.14804 0.12128 0.0
O207 O 0.79108 0.13086 0.10752 0.0
C208 C 0.7853 0.11145 0.18572 0.0
C209 C 0.8105 0.14336 0.10338 0.0
C210 C 0.88784 0.31542 0.68975 0.0
C211 C 0.87073 0.34589 0.60571 0.0
O212 O 0.89484 0.30556 0.66953 0.0
Zn213 Zn 0.88001 0.32979 0.64742 0.0
O214 O 0.87482 0.33511 0.68914 0.0
Zn215 Zn 0.85951 0.36022 0.66257 0.0
O216 O 0.82412 0.35643 0.66873 0.0
O217 O 0.84203 0.32305 0.65388 0.0
O218 O 0.86145 0.35948 0.62279 0.0
O219 O 0.88313 0.32692 0.61172 0.0
O220 O 0.90118 0.36145 0.65568 0.0
O221 O 0.87712 0.39012 0.67188 0.0
C222 C 0.82274 0.33408 0.66191 0.0
C223 C 0.8984 0.38284 0.66516 0.0
C224 C 0.3619 0.77096 0.10113 0.0
C225 C 0.43831 0.73011 0.12827 0.0
O226 O 0.38321 0.78063 0.09984 0.0
Zn227 Zn 0.40118 0.75204 0.11317 0.0
O228 O 0.35936 0.74908 0.10957 0.0
Zn229 Zn 0.38045 0.71981 0.12485 0.0
O230 O 0.36707 0.71861 0.15865 0.0
O231 O 0.38687 0.75303 0.14979 0.0
O232 O 0.41866 0.71752 0.13124 0.0
O233 O 0.43701 0.75137 0.11832 0.0
O234 O 0.39602 0.72498 0.0852 0.0
O235 O 0.37495 0.69385 0.10086 0.0
C236 C 0.37421 0.73999 0.16495 0.0
C237 C 0.38593 0.70387 0.08253 0.0
C238 C 0.35228 0.87195 0.40452 0.0
C239 C 0.35847 0.82413 0.32816 0.0
O240 O 0.34553 0.87873 0.38305 0.0
Zn241 Zn 0.3574 0.84991 0.36524 0.0
O242 O 0.36398 0.85161 0.40719 0.0
Zn243 Zn 0.3758 0.82125 0.38488 0.0
O244 O 0.41119 0.82172 0.38646 0.0
O245 O 0.39684 0.85264 0.36426 0.0
O246 O 0.36867 0.81364 0.34675 0.0
O247 O 0.34962 0.84572 0.3305 0.0
O248 O 0.33441 0.82221 0.38173 0.0
O249 O 0.35776 0.79443 0.40032 0.0
C250 C 0.41515 0.84054 0.373 0.0
C251 C 0.33653 0.80237 0.39446 0.0
C252 C 0.2032 0.83193 0.86947 0.0
C253 C 0.16609 0.91311 0.8632 0.0
O254 O 0.2134 0.85267 0.87256 0.0
Zn255 Zn 0.18475 0.87293 0.86713 0.0
O256 O 0.18038 0.83103 0.86384 0.0
Zn257 Zn 0.15072 0.85604 0.85762 0.0
O258 O 0.14309 0.85029 0.82272 0.0
O259 O 0.17816 0.86989 0.82823 0.0
O260 O 0.15081 0.89581 0.85851 0.0
O261 O 0.18781 0.90784 0.87005 0.0
O262 O 0.16153 0.8643 0.89785 0.0
O263 O 0.1278 0.84668 0.88419 0.0
C264 C 0.16186 0.86116 0.81375 0.0
C265 C 0.14064 0.85432 0.90218 0.0
C266 C 0.17975 0.71077 0.38984 0.0
C267 C 0.09905 0.67435 0.37678 0.0
O268 O 0.15903 0.7194 0.39668 0.0
Zn269 Zn 0.13933 0.69308 0.38339 0.0
O270 O 0.18069 0.69064 0.37756 0.0
Zn271 Zn 0.15592 0.66329 0.36384 0.0
O272 O 0.16078 0.66573 0.32815 0.0
O273 O 0.14384 0.69895 0.34434 0.0
O274 O 0.11654 0.66145 0.36731 0.0
O275 O 0.10413 0.69409 0.38814 0.0
O276 O 0.15114 0.66274 0.40593 0.0
O277 O 0.16806 0.63462 0.38173 0.0
C278 C 0.15216 0.68734 0.32541 0.0
C279 C 0.16216 0.64201 0.40328 0.0
C280 C 0.35851 0.64953 0.9093 0.0
C281 C 0.33154 0.64399 0.82265 0.0
O282 O 0.37069 0.65664 0.89037 0.0
Zn283 Zn 0.34658 0.64746 0.8653 0.0
O284 O 0.33725 0.63999 0.90646 0.0
Zn285 Zn 0.31252 0.63114 0.8778 0.0
O286 O 0.30986 0.59581 0.88054 0.0
O287 O 0.34625 0.60829 0.86721 0.0
O288 O 0.31614 0.63619 0.8389 0.0
O289 O 0.35231 0.65221 0.82951 0.0
O290 O 0.31718 0.67273 0.8727 0.0
O291 O 0.28455 0.65181 0.88516 0.0
C292 C 0.33149 0.59081 0.87294 0.0
C293 C 0.29472 0.67228 0.88006 0.0
C294 C 0.1059 0.84097 0.1506 0.0
C295 C 0.18865 0.82003 0.1212 0.0
O296 O 0.10689 0.81929 0.14127 0.0
Zn297 Zn 0.13412 0.79648 0.12293 0.0
O298 O 0.12493 0.85445 0.15014 0.0
Zn299 Zn 0.14718 0.83081 0.13523 0.0
O300 O 0.13569 0.83015 0.09711 0.0
O301 O 0.12189 0.79291 0.08948 0.0
O302 O 0.18164 0.83951 0.13214 0.0
O303 O 0.17294 0.80302 0.11685 0.0
O304 O 0.13461 0.76767 0.144 0.0
O305 O 0.14803 0.80121 0.16234 0.0
C306 C 0.12647 0.81461 0.08198 0.0
C307 C 0.14283 0.77817 0.16321 0.0
C308 C 0.26597 0.61496 0.65246 0.0
C309 C 0.22887 0.60969 0.56967 0.0
O310 O 0.24341 0.62164 0.65122 0.0
Zn311 Zn 0.21474 0.62564 0.62503 0.0
O312 O 0.277 0.60754 0.63297 0.0
Zn313 Zn 0.24885 0.61175 0.61053 0.0
O314 O 0.24527 0.65109 0.61086 0.0
O315 O 0.20852 0.66052 0.62569 0.0
O316 O 0.25109 0.60451 0.5749 0.0
O317 O 0.21444 0.61751 0.58673 0.0
O318 O 0.1902 0.60383 0.63792 0.0
O319 O 0.22307 0.58432 0.62369 0.0
C320 C 0.22924 0.66731 0.61711 0.0
C321 C 0.20153 0.58379 0.6336 0.0
C322 C 0.27494 0.84565 0.61605 0.0
C323 C 0.29759 0.93058 0.63336 0.0
O324 O 0.2589 0.86136 0.60866 0.0
Zn325 Zn 0.2537 0.90068 0.60805 0.0
O326 O 0.29466 0.85306 0.62609 0.0
Zn327 Zn 0.28667 0.88765 0.62513 0.0
O328 O 0.25505 0.88813 0.64882 0.0
O329 O 0.22381 0.90409 0.62832 0.0
O330 O 0.30893 0.91108 0.63965 0.0
O331 O 0.27716 0.92894 0.62182 0.0
O332 O 0.25375 0.90766 0.57242 0.0
O333 O 0.28973 0.89531 0.58644 0.0
C334 C 0.2324 0.89453 0.64801 0.0
C335 C 0.27633 0.90268 0.56845 0.0
H336 H 0.11721 0.17748 0.72181 0.0
H337 H 0.08344 0.31851 0.74778 0.0
H338 H 0.09735 0.2076 0.793 0.0
H339 H 0.12394 0.296 0.68262 0.0
H340 H 0.07972 0.27565 0.76015 0.0
H341 H 0.11174 0.21867 0.70325 0.0
C342 C 0.11133 0.19265 0.73341 0.0
C343 C 0.10794 0.18929 0.75898 0.0
C344 C 0.08928 0.28 0.74304 0.0
C345 C 0.10151 0.23597 0.73803 0.0
C346 C 0.09141 0.30451 0.73593 0.0
C347 C 0.1044 0.3109 0.71434 0.0
C348 C 0.10032 0.26157 0.72859 0.0
C349 C 0.11394 0.29188 0.69953 0.0
C350 C 0.10834 0.21608 0.72287 0.0
C351 C 0.10045 0.20947 0.77325 0.0
N352 N 0.11198 0.268 0.70709 0.0
N353 N 0.09755 0.23189 0.7626 0.0
H354 H 0.68721 0.61949 0.27416 0.0
H355 H 0.83004 0.62102 0.24083 0.0
H356 H 0.71508 0.63208 0.20015 0.0
H357 H 0.80267 0.63201 0.31522 0.0
H358 H 0.78798 0.62047 0.22584 0.0
H359 H 0.72929 0.61923 0.28955 0.0
C360 C 0.70218 0.62201 0.26108 0.0
C361 C 0.69759 0.62577 0.23576 0.0
C362 C 0.79114 0.62303 0.24543 0.0
C363 C 0.74582 0.62554 0.25339 0.0
C364 C 0.81517 0.62325 0.25408 0.0
C365 C 0.81991 0.62652 0.27939 0.0
C366 C 0.77156 0.62582 0.26218 0.0
C367 C 0.79985 0.62948 0.29558 0.0
C368 C 0.72619 0.62202 0.26995 0.0
C369 C 0.71774 0.62912 0.21978 0.0
N370 N 0.77649 0.62893 0.2867 0.0
N371 N 0.741 0.62885 0.22886 0.0
H372 H 0.40711 0.30383 0.78151 0.0
H373 H 0.3552 0.22646 0.67181 0.0
H374 H 0.37242 0.34085 0.7202 0.0
H375 H 0.41666 0.20318 0.71631 0.0
H376 H 0.36073 0.26875 0.6872 0.0
H377 H 0.41016 0.26654 0.75686 0.0
C378 C 0.40037 0.30408 0.76268 0.0
C379 C 0.38949 0.32525 0.7528 0.0
C380 C 0.37327 0.2544 0.6931 0.0
C381 C 0.3924 0.28255 0.72456 0.0
C382 C 0.37014 0.23036 0.68433 0.0
C383 C 0.38514 0.2113 0.69328 0.0
C384 C 0.3914 0.25905 0.71091 0.0
C385 C 0.40428 0.21723 0.70942 0.0
C386 C 0.40218 0.28286 0.74855 0.0
C387 C 0.38105 0.32477 0.72831 0.0
N388 N 0.40662 0.24046 0.71797 0.0
N389 N 0.38225 0.3035 0.71507 0.0
H390 H 0.69248 0.89414 0.25245 0.0
H391 H 0.8362 0.894 0.28634 0.0
H392 H 0.72024 0.88772 0.32685 0.0
H393 H 0.80933 0.88809 0.21163 0.0
H394 H 0.79364 0.89552 0.30139 0.0
H395 H 0.73502 0.89584 0.23693 0.0
C396 C 0.70745 0.89324 0.26552 0.0
C397 C 0.7027 0.89066 0.29098 0.0
C398 C 0.79706 0.89393 0.28168 0.0
C399 C 0.75143 0.89262 0.27339 0.0
C400 C 0.8214 0.8931 0.27309 0.0
C401 C 0.82645 0.8908 0.24768 0.0
C402 C 0.77755 0.8926 0.26478 0.0
C403 C 0.8064 0.88974 0.23139 0.0
C404 C 0.73175 0.89413 0.25666 0.0
C405 C 0.72292 0.88955 0.30705 0.0
N406 N 0.78291 0.89064 0.2402 0.0
N407 N 0.74628 0.89052 0.29801 0.0
H408 H 0.8155 0.09508 0.22174 0.0
H409 H 0.71113 0.10082 0.32555 0.0
H410 H 0.73868 0.10606 0.20578 0.0
H411 H 0.78848 0.09465 0.34168 0.0
H412 H 0.72021 0.09548 0.28175 0.0
H413 H 0.80512 0.08725 0.26499 0.0
C414 C 0.79632 0.09543 0.22731 0.0
C415 C 0.77791 0.10153 0.2102 0.0
C416 C 0.73522 0.09503 0.2948 0.0
C417 C 0.76593 0.09291 0.25998 0.0
C418 C 0.7301 0.09812 0.3199 0.0
C419 C 0.74916 0.0986 0.33735 0.0
C420 C 0.75965 0.09251 0.28685 0.0
C421 C 0.77325 0.09455 0.3289 0.0
C422 C 0.79044 0.09101 0.25206 0.0
C423 C 0.75341 0.10144 0.21836 0.0
N424 N 0.77785 0.092 0.30418 0.0
N425 N 0.74816 0.0976 0.2428 0.0
H426 H 0.90721 0.26958 0.70015 0.0
H427 H 0.89711 0.28773 0.84739 0.0
H428 H 0.88306 0.33682 0.73512 0.0
H429 H 0.9078 0.21743 0.812 0.0
H430 H 0.89957 0.30776 0.8066 0.0
H431 H 0.91465 0.25179 0.74125 0.0
C432 C 0.90366 0.28066 0.71641 0.0
C433 C 0.89421 0.30461 0.71416 0.0
C434 C 0.90168 0.28797 0.80784 0.0
C435 C 0.90277 0.28447 0.76121 0.0
C436 C 0.90046 0.27658 0.83113 0.0
C437 C 0.90198 0.25088 0.83306 0.0
C438 C 0.90461 0.27353 0.78642 0.0
C439 C 0.90621 0.23729 0.81134 0.0
C440 C 0.90788 0.27051 0.73988 0.0
C441 C 0.89004 0.31816 0.73593 0.0
N442 N 0.90719 0.24874 0.78896 0.0
N443 N 0.89423 0.30788 0.75849 0.0
H444 H 0.75011 0.4195 0.33517 0.0
H445 H 0.77051 0.40705 0.18889 0.0
H446 H 0.81787 0.3959 0.30042 0.0
H447 H 0.70035 0.42129 0.2237 0.0
H448 H 0.79047 0.4128 0.2291 0.0
H449 H 0.73363 0.4291 0.29406 0.0
C450 C 0.76155 0.41651 0.31896 0.0
C451 C 0.78517 0.4064 0.3212 0.0
C452 C 0.77075 0.41517 0.22781 0.0
C453 C 0.76665 0.41749 0.27427 0.0
C454 C 0.75945 0.41214 0.20483 0.0
C455 C 0.73382 0.41337 0.2032 0.0
C456 C 0.75619 0.41945 0.24907 0.0
C457 C 0.7202 0.41982 0.22438 0.0
C458 C 0.7522 0.42203 0.29551 0.0
C459 C 0.79934 0.40316 0.29958 0.0
N460 N 0.7315 0.42228 0.24652 0.0
N461 N 0.7898 0.40848 0.27706 0.0
H462 H 0.60046 0.20423 0.72549 0.0
H463 H 0.63162 0.19961 0.86967 0.0
H464 H 0.66283 0.16424 0.75411 0.0
H465 H 0.57778 0.24712 0.83598 0.0
H466 H 0.63778 0.17898 0.82957 0.0
H467 H 0.58686 0.2126 0.76744 0.0
C468 C 0.61135 0.19715 0.74067 0.0
C469 C 0.63314 0.18392 0.73623 0.0
C470 C 0.62412 0.19344 0.83115 0.0
C471 C 0.61753 0.19361 0.78478 0.0
C472 C 0.62034 0.20494 0.85408 0.0
C473 C 0.60394 0.22484 0.85605 0.0
C474 C 0.61131 0.20197 0.81027 0.0
C475 C 0.59038 0.23167 0.83521 0.0
C476 C 0.60347 0.20188 0.76471 0.0
C477 C 0.64607 0.17473 0.75672 0.0
N478 N 0.5945 0.2204 0.81319 0.0
N479 N 0.63825 0.18005 0.78019 0.0
H480 H 0.34813 0.81712 0.11662 0.0
H481 H 0.20749 0.7846 0.09084 0.0
H482 H 0.3234 0.75478 0.07467 0.0
H483 H 0.22923 0.84754 0.13385 0.0
H484 H 0.25035 0.77727 0.08001 0.0
H485 H 0.30564 0.8329 0.11766 0.0
C486 C 0.33393 0.8073 0.10681 0.0
C487 C 0.33919 0.7847 0.09544 0.0
C488 C 0.24585 0.79281 0.0917 0.0
C489 C 0.29068 0.80211 0.09715 0.0
C490 C 0.22129 0.79696 0.09798 0.0
C491 C 0.21471 0.81655 0.11354 0.0
C492 C 0.26422 0.80818 0.10119 0.0
C493 C 0.23348 0.83211 0.12193 0.0
C494 C 0.30964 0.8161 0.1077 0.0
C495 C 0.32007 0.77231 0.08357 0.0
N496 N 0.25742 0.82744 0.11588 0.0
N497 N 0.2967 0.78102 0.08496 0.0
H498 H 0.2907 0.8212 0.40085 0.0
H499 H 0.22614 0.69183 0.38802 0.0
H500 H 0.331 0.75271 0.40237 0.0
H501 H 0.18617 0.75837 0.40549 0.0
H502 H 0.26465 0.7134 0.39511 0.0
H503 H 0.25236 0.79843 0.405 0.0
C504 C 0.29146 0.80132 0.40236 0.0
C505 C 0.314 0.78875 0.40097 0.0
C506 C 0.24748 0.72324 0.39765 0.0
C507 C 0.27013 0.76254 0.40537 0.0
C508 C 0.22546 0.71099 0.39345 0.0
C509 C 0.20291 0.72344 0.39584 0.0
C510 C 0.24703 0.74825 0.40397 0.0
C511 C 0.20315 0.74813 0.40327 0.0
C512 C 0.26956 0.78834 0.40479 0.0
C513 C 0.31399 0.76306 0.40332 0.0
N514 N 0.2249 0.75983 0.40677 0.0
N515 N 0.2923 0.75072 0.40498 0.0
H516 H 0.25279 0.82594 0.87658 0.0
H517 H 0.24494 0.67893 0.88597 0.0
H518 H 0.18517 0.78511 0.87017 0.0
H519 H 0.31299 0.7189 0.87751 0.0
H520 H 0.22253 0.71809 0.88534 0.0
H521 H 0.27508 0.78707 0.88172 0.0
C522 C 0.24263 0.80883 0.87628 0.0
C523 C 0.21711 0.80877 0.87277 0.0
C524 C 0.24238 0.71825 0.88372 0.0
C525 C 0.24242 0.76431 0.87879 0.0
C526 C 0.25517 0.69592 0.88418 0.0
C527 C 0.28084 0.69564 0.8816 0.0
C528 C 0.25539 0.7404 0.88083 0.0
C529 C 0.29317 0.71822 0.87933 0.0
C530 C 0.25535 0.78666 0.87921 0.0
C531 C 0.20488 0.78604 0.87263 0.0
N532 N 0.28033 0.73966 0.87894 0.0
N533 N 0.21764 0.76474 0.87558 0.0
H534 H 0.19834 0.70716 0.62031 0.0
H535 H 0.30604 0.80621 0.62281 0.0
H536 H 0.27473 0.68743 0.61045 0.0
H537 H 0.23072 0.82476 0.60597 0.0
H538 H 0.295 0.76247 0.622 0.0
H539 H 0.20987 0.75066 0.6189 0.0
C540 C 0.2175 0.71197 0.61778 0.0
C541 C 0.23558 0.69367 0.61543 0.0
C542 C 0.28098 0.77618 0.61833 0.0
C543 C 0.24891 0.74327 0.61405 0.0
C544 C 0.28726 0.80109 0.61883 0.0
C545 C 0.2693 0.81914 0.6144 0.0
C546 C 0.25653 0.76937 0.61376 0.0
C547 C 0.24521 0.81149 0.60937 0.0
C548 C 0.22407 0.73677 0.61692 0.0
C549 C 0.26016 0.70094 0.6122 0.0
N550 N 0.2395 0.78721 0.60937 0.0
N551 N 0.26613 0.72519 0.61177 0.0
H552 H 0.88394 0.79521 0.16944 0.0
H553 H 0.91658 0.70005 0.27873 0.0
H554 H 0.89942 0.8134 0.24549 0.0
H555 H 0.89385 0.67392 0.20725 0.0
H556 H 0.91429 0.74199 0.26365 0.0
H557 H 0.88979 0.75116 0.17998 0.0
C558 C 0.88847 0.79005 0.18825 0.0
C559 C 0.89117 0.80822 0.20655 0.0
C560 C 0.90986 0.72727 0.25101 0.0
C561 C 0.89815 0.75813 0.21858 0.0
C562 C 0.91131 0.70319 0.25966 0.0
C563 C 0.90531 0.68343 0.24429 0.0
C564 C 0.90199 0.73206 0.22674 0.0
C565 C 0.89876 0.68867 0.21966 0.0
C566 C 0.89188 0.76494 0.19422 0.0
C567 C 0.89713 0.80036 0.23059 0.0
N568 N 0.89698 0.71258 0.21166 0.0
N569 N 0.90041 0.77618 0.23576 0.0
H570 H 0.19523 0.37328 0.72086 0.0
H571 H 0.28431 0.36083 0.83715 0.0
H572 H 0.16793 0.38579 0.79503 0.0
H573 H 0.30809 0.37594 0.76223 0.0
H574 H 0.2412 0.36413 0.8234 0.0
H575 H 0.23628 0.36798 0.7371 0.0
C576 C 0.19781 0.37488 0.74065 0.0
C577 C 0.17798 0.38012 0.75656 0.0
C578 C 0.25596 0.36669 0.81009 0.0
C579 C 0.22549 0.37397 0.77543 0.0
C580 C 0.28049 0.36467 0.81786 0.0
C581 C 0.29983 0.36817 0.80082 0.0
C582 C 0.25092 0.37178 0.78509 0.0
C583 C 0.29387 0.37324 0.77609 0.0
C584 C 0.22139 0.3719 0.74992 0.0
C585 C 0.1827 0.38192 0.78207 0.0
N586 N 0.27006 0.37479 0.76902 0.0
N587 N 0.20603 0.37881 0.79077 0.0
H588 H 0.66219 0.81241 0.29148 0.0
H589 H 0.60899 0.67585 0.3096 0.0
H590 H 0.62897 0.78957 0.36047 0.0
H591 H 0.64015 0.70589 0.24226 0.0
H592 H 0.61763 0.71528 0.33043 0.0
H593 H 0.65722 0.77114 0.27547 0.0
C594 C 0.65411 0.79849 0.30341 0.0
C595 C 0.64597 0.80442 0.3273 0.0
C596 C 0.62255 0.71306 0.31111 0.0
C597 C 0.63945 0.75678 0.30877 0.0
C598 C 0.61753 0.69063 0.29919 0.0
C599 C 0.62377 0.68745 0.27408 0.0
C600 C 0.63393 0.73227 0.29778 0.0
C601 C 0.63492 0.70725 0.26158 0.0
C602 C 0.6511 0.77485 0.29421 0.0
C603 C 0.63565 0.78562 0.34198 0.0
N604 N 0.63959 0.72857 0.27351 0.0
N605 N 0.63238 0.76262 0.33236 0.0
H606 H 0.30214 0.15667 0.71296 0.0
H607 H 0.2175 0.14144 0.83373 0.0
H608 H 0.33149 0.12517 0.78012 0.0
H609 H 0.19141 0.14932 0.75888 0.0
H610 H 0.26021 0.1417 0.81764 0.0
H611 H 0.26252 0.16087 0.73295 0.0
C612 C 0.30031 0.15057 0.732 0.0
C613 C 0.32026 0.1402 0.74472 0.0
C614 C 0.24503 0.1435 0.80488 0.0
C615 C 0.27426 0.14503 0.76796 0.0
C616 C 0.22076 0.14354 0.81403 0.0
C617 C 0.20092 0.14527 0.79757 0.0
C618 C 0.24926 0.14567 0.77924 0.0
C619 C 0.20609 0.14774 0.77223 0.0
C620 C 0.27752 0.15301 0.74345 0.0
C621 C 0.31658 0.13306 0.76955 0.0
N622 N 0.22962 0.14789 0.76393 0.0
N623 N 0.29391 0.13548 0.78039 0.0
H624 H 0.23236 0.85224 0.67441 0.0
H625 H 0.16635 0.90525 0.79098 0.0
H626 H 0.19674 0.92311 0.67051 0.0
H627 H 0.16526 0.82741 0.77623 0.0
H628 H 0.1783 0.913 0.74778 0.0
H629 H 0.20937 0.84305 0.7124 0.0
C630 C 0.2195 0.8658 0.68152 0.0
C631 C 0.21649 0.88852 0.66945 0.0
C632 C 0.17495 0.89427 0.75382 0.0
C633 C 0.19045 0.87828 0.71314 0.0
C634 C 0.16818 0.88984 0.77841 0.0
C635 C 0.16473 0.86568 0.78698 0.0
C636 C 0.17911 0.87432 0.73792 0.0
C637 C 0.16754 0.84629 0.77018 0.0
C638 C 0.20629 0.86047 0.70308 0.0
C639 C 0.19951 0.90538 0.67929 0.0
N640 N 0.17506 0.851 0.74651 0.0
N641 N 0.18744 0.90012 0.70089 0.0
H642 H 0.15824 0.66677 0.27911 0.0
H643 H 0.15181 0.79672 0.20915 0.0
H644 H 0.14546 0.73612 0.31577 0.0
H645 H 0.14028 0.72808 0.17105 0.0
H646 H 0.1551 0.77414 0.24809 0.0
H647 H 0.15691 0.68832 0.23898 0.0
C648 C 0.15524 0.68648 0.27874 0.0
C649 C 0.15188 0.69964 0.30085 0.0
C650 C 0.15188 0.76398 0.23122 0.0
C651 C 0.15057 0.72433 0.25518 0.0
C652 C 0.15008 0.77687 0.20892 0.0
C653 C 0.14568 0.76431 0.18675 0.0
C654 C 0.1495 0.73825 0.23146 0.0
C655 C 0.14357 0.73853 0.18771 0.0
C656 C 0.1544 0.69873 0.25586 0.0
C657 C 0.148 0.72516 0.29925 0.0
N658 N 0.14555 0.72632 0.2097 0.0
N659 N 0.14756 0.73663 0.27689 0.0
H660 H 0.28548 0.64729 0.80524 0.0
H661 H 0.31592 0.6179 0.66302 0.0
H662 H 0.36042 0.63767 0.78039 0.0
H663 H 0.24403 0.6174 0.69734 0.0
H664 H 0.33403 0.62659 0.70394 0.0
H665 H 0.27133 0.63984 0.76366 0.0
C666 C 0.29904 0.64373 0.79088 0.0
C667 C 0.32416 0.64289 0.79636 0.0
C668 C 0.31432 0.62442 0.70236 0.0
C669 C 0.30793 0.63381 0.74818 0.0
C670 C 0.30402 0.6193 0.67911 0.0
C671 C 0.27839 0.61711 0.6767 0.0
C672 C 0.29879 0.62734 0.72311 0.0
C673 C 0.26382 0.61922 0.69811 0.0
C674 C 0.29092 0.63934 0.76704 0.0
C675 C 0.34087 0.63851 0.77688 0.0
N676 N 0.27419 0.62429 0.72019 0.0
N677 N 0.33244 0.63389 0.75355 0.0
H678 H 0.36722 0.77528 0.32006 0.0
H679 H 0.36638 0.78822 0.17387 0.0
H680 H 0.34664 0.84227 0.28217 0.0
H681 H 0.36643 0.71743 0.21031 0.0
H682 H 0.359 0.80805 0.21352 0.0
H683 H 0.36709 0.75358 0.28055 0.0
C684 C 0.3626 0.78545 0.30343 0.0
C685 C 0.35717 0.81074 0.3044 0.0
C686 C 0.36039 0.78818 0.21294 0.0
C687 C 0.35703 0.78591 0.25909 0.0
C688 C 0.36472 0.77681 0.1903 0.0
C689 C 0.36728 0.75114 0.18888 0.0
C690 C 0.359 0.77386 0.23454 0.0
C691 C 0.3646 0.73727 0.21066 0.0
C692 C 0.3624 0.77297 0.28091 0.0
C693 C 0.35105 0.82283 0.2823 0.0
N694 N 0.36094 0.74886 0.23274 0.0
N695 N 0.3514 0.81035 0.26052 0.0
H696 H 0.67972 0.23106 0.89328 0.0
H697 H 0.82043 0.25422 0.8642 0.0
H698 H 0.70669 0.3011 0.86684 0.0
H699 H 0.78949 0.18148 0.87066 0.0
H700 H 0.77907 0.27165 0.86358 0.0
H701 H 0.71963 0.21268 0.88448 0.0
C702 C 0.6941 0.24266 0.88569 0.0
C703 C 0.68995 0.26781 0.88113 0.0
C704 C 0.78124 0.25186 0.86476 0.0
C705 C 0.73585 0.24666 0.87086 0.0
C706 C 0.80484 0.24188 0.86514 0.0
C707 C 0.80832 0.21638 0.86772 0.0
C708 C 0.76091 0.23629 0.86744 0.0
C709 C 0.78756 0.20122 0.86865 0.0
C710 C 0.71685 0.23203 0.88045 0.0
C711 C 0.70915 0.28172 0.87082 0.0
N712 N 0.76468 0.21146 0.86893 0.0
N713 N 0.7314 0.271 0.86628 0.0
H714 H 0.81854 0.28463 0.66465 0.0
H715 H 0.67298 0.27783 0.65109 0.0
H716 H 0.77445 0.35079 0.6632 0.0
H717 H 0.71929 0.21745 0.67439 0.0
H718 H 0.70882 0.30535 0.65312 0.0
H719 H 0.78144 0.26016 0.66562 0.0
C720 C 0.80097 0.29407 0.66455 0.0
C721 C 0.79963 0.31984 0.66374 0.0
C722 C 0.71096 0.2861 0.65792 0.0
C723 C 0.75665 0.29164 0.66479 0.0
C724 C 0.69058 0.27038 0.6567 0.0
C725 C 0.69312 0.24522 0.66243 0.0
C726 C 0.73397 0.27647 0.66467 0.0
C727 C 0.71634 0.23661 0.66967 0.0
C728 C 0.7797 0.28002 0.66521 0.0
C729 C 0.77627 0.33096 0.66388 0.0
N730 N 0.73576 0.25213 0.67043 0.0
N731 N 0.75559 0.31676 0.66417 0.0
H732 H 0.68779 0.28882 0.18694 0.0
H733 H 0.82171 0.22726 0.16996 0.0
H734 H 0.75116 0.32859 0.16001 0.0
H735 H 0.75455 0.18572 0.17666 0.0
H736 H 0.7975 0.26552 0.17364 0.0
H737 H 0.71337 0.25162 0.1903 0.0
C738 C 0.70706 0.28979 0.1819 0.0
C739 C 0.71721 0.31184 0.17295 0.0
C740 C 0.78815 0.24798 0.17453 0.0
C741 C 0.7467 0.2694 0.17694 0.0
C742 C 0.80199 0.22618 0.17261 0.0
C743 C 0.79014 0.20328 0.17281 0.0
C744 C 0.76236 0.2468 0.177 0.0
C745 C 0.76446 0.20297 0.17614 0.0
C746 C 0.72167 0.26855 0.18377 0.0
C747 C 0.7424 0.31197 0.16674 0.0
N748 N 0.75149 0.2243 0.17803 0.0
N749 N 0.75622 0.29115 0.16882 0.0
H750 H 0.83304 0.28663 0.36577 0.0
H751 H 0.704 0.21709 0.38558 0.0
H752 H 0.76545 0.32475 0.38328 0.0
H753 H 0.77459 0.18062 0.38624 0.0
H754 H 0.7252 0.25669 0.37976 0.0
H755 H 0.8109 0.24745 0.36816 0.0
C756 C 0.81355 0.2868 0.37 0.0
C757 C 0.80118 0.30907 0.37446 0.0
C758 C 0.73598 0.23996 0.38114 0.0
C759 C 0.77561 0.26421 0.37714 0.0
C760 C 0.72388 0.21736 0.38438 0.0
C761 C 0.73748 0.19545 0.38658 0.0
C762 C 0.76185 0.24061 0.37977 0.0
C763 C 0.76326 0.19698 0.38488 0.0
C764 C 0.8009 0.26441 0.37143 0.0
C765 C 0.77584 0.30807 0.37986 0.0
N766 N 0.77453 0.21905 0.38157 0.0
N767 N 0.76393 0.28608 0.38103 0.0
H768 H 0.16048 0.57545 0.66201 0.0
H769 H 0.16277 0.42931 0.64427 0.0
H770 H 0.21637 0.53777 0.61935 0.0
H771 H 0.12316 0.46588 0.70317 0.0
H772 H 0.17838 0.46937 0.6303 0.0
H773 H 0.14238 0.53566 0.6728 0.0
C774 C 0.1689 0.55882 0.65484 0.0
C775 C 0.19006 0.55992 0.63988 0.0
C776 C 0.1662 0.46856 0.64623 0.0
C777 C 0.16935 0.51438 0.65203 0.0
C778 C 0.15721 0.44575 0.65413 0.0
C779 C 0.14177 0.44426 0.67499 0.0
C780 C 0.15943 0.48998 0.65911 0.0
C781 C 0.13518 0.46614 0.68712 0.0
C782 C 0.15859 0.53613 0.66105 0.0
C783 C 0.20017 0.53777 0.6311 0.0
N784 N 0.14404 0.48808 0.67899 0.0
N785 N 0.1897 0.51589 0.63728 0.0
H786 H 0.48616 0.74541 0.11891 0.0
H787 H 0.54379 0.64184 0.20733 0.0
H788 H 0.44408 0.68992 0.15769 0.0
H789 H 0.58838 0.68288 0.15535 0.0
H790 H 0.50725 0.6619 0.19092 0.0
H791 H 0.52419 0.72555 0.13374 0.0
C792 C 0.48489 0.72917 0.13054 0.0
C793 C 0.46186 0.71934 0.13701 0.0
C794 C 0.52499 0.66649 0.18296 0.0
C795 C 0.50506 0.69668 0.15401 0.0
C796 C 0.5459 0.65501 0.19236 0.0
C797 C 0.56922 0.66061 0.18269 0.0
C798 C 0.52725 0.684 0.16386 0.0
C799 C 0.57075 0.67789 0.16326 0.0
C800 C 0.50656 0.71779 0.13889 0.0
C801 C 0.46133 0.69818 0.15207 0.0
N802 N 0.55005 0.68911 0.15456 0.0
N803 N 0.48249 0.6877 0.16006 0.0
H804 H 0.33782 0.94207 0.66148 0.0
H805 H 0.33042 0.08656 0.63156 0.0
H806 H 0.28156 0.9751 0.61605 0.0
H807 H 0.37537 0.05544 0.68941 0.0
H808 H 0.31578 0.04513 0.62179 0.0
H809 H 0.355 0.98302 0.66854 0.0
C810 C 0.32907 0.9579 0.65301 0.0
C811 C 0.30814 0.95514 0.63828 0.0
C812 C 0.32892 0.04741 0.63655 0.0
C813 C 0.32781 1.00199 0.64607 0.0
C814 C 0.33738 0.07102 0.64204 0.0
C815 C 0.35402 0.07449 0.66143 0.0
C816 C 0.33733 0.02714 0.65042 0.0
C817 C 0.36238 0.05367 0.67443 0.0
C818 C 0.33888 0.98127 0.65703 0.0
C819 C 0.29762 0.97634 0.6277 0.0
N820 N 0.35393 0.03092 0.66873 0.0
N821 N 0.30758 0.99883 0.63177 0.0
H822 H 0.08765 0.88803 0.15199 0.0
H823 H 0.97343 0.85805 0.23998 0.0
H824 H 0.07196 0.81394 0.17615 0.0
H825 H 0.96596 0.90675 0.17729 0.0
H826 H 0.01577 0.84851 0.22644 0.0
H827 H 0.04848 0.90168 0.1706 0.0
C828 C 0.07607 0.87472 0.16139 0.0
C829 C 0.08287 0.8498 0.16236 0.0
C830 C 1.00493 0.86163 0.21598 0.0
C831 C 0.03871 0.86537 0.18419 0.0
C832 C 0.98097 0.86724 0.2238 0.0
C833 C 0.96636 0.88327 0.20974 0.0
C834 C 0.01442 0.87264 0.19437 0.0
C835 C 0.97675 0.89434 0.18862 0.0
C836 C 0.0538 0.8825 0.17194 0.0
C837 C 0.06722 0.83327 0.17476 0.0
N838 N 1.00019 0.8889 0.18159 0.0
N839 N 0.04592 0.84136 0.18534 0.0
H840 H 0.18983 0.95522 0.87703 0.0
H841 H 0.11346 0.04163 0.786 0.0
H842 H 0.12721 0.92938 0.83602 0.0
H843 H 0.15733 0.06979 0.8458 0.0
H844 H 0.12101 0.99971 0.80132 0.0
H845 H 0.18046 0.99724 0.86351 0.0
C846 C 0.17398 0.95842 0.86541 0.0
C847 C 0.15925 0.93882 0.85768 0.0
C848 C 0.12888 0.01514 0.81108 0.0
C849 C 0.14874 0.98662 0.8418 0.0
C850 C 0.12471 0.03899 0.80226 0.0
C851 C 0.13474 0.05917 0.81467 0.0
C852 C 0.14346 0.01155 0.83218 0.0
C853 C 0.14912 0.05476 0.83573 0.0
C854 C 0.16866 0.98236 0.85768 0.0
C855 C 0.13897 0.94398 0.84255 0.0
N856 N 0.15314 0.03143 0.84375 0.0
N857 N 0.13444 0.96737 0.8349 0.0
H858 H 0.97161 0.61255 0.30929 0.0
H859 H 0.05665 0.69803 0.39188 0.0
H860 H 0.94124 0.66666 0.35923 0.0
H861 H 0.08237 0.63381 0.3525 0.0
H862 H 0.01427 0.68701 0.38141 0.0
H863 H 0.01223 0.62024 0.32589 0.0
C864 C 0.97348 0.62604 0.32386 0.0
C865 C 0.953 0.63911 0.33276 0.0
C866 C 0.02922 0.67524 0.37531 0.0
C867 C 0.99979 0.64819 0.35187 0.0
C868 C 0.05341 0.6815 0.38126 0.0
C869 C 0.07316 0.66694 0.37289 0.0
C870 C 0.0248 0.65437 0.36075 0.0
C871 C 0.06782 0.64572 0.35924 0.0
C872 C 0.99674 0.63038 0.33342 0.0
C873 C 0.95656 0.65618 0.35185 0.0
N874 N 0.04424 0.64023 0.35346 0.0
N875 N 0.9796 0.66045 0.36061 0.0
H876 H 0.30717 0.54795 0.8848 0.0
H877 H 0.3933 0.46588 0.79929 0.0
H878 H 0.37357 0.57538 0.85025 0.0
H879 H 0.34613 0.43403 0.85542 0.0
H880 H 0.38429 0.50672 0.81598 0.0
H881 H 0.31928 0.50609 0.87286 0.0
C882 C 0.32435 0.54516 0.87495 0.0
C883 C 0.33929 0.56519 0.8684 0.0
C884 C 0.37608 0.49075 0.82475 0.0
C885 C 0.35301 0.51765 0.85447 0.0
C886 C 0.38114 0.46749 0.81517 0.0
C887 C 0.37043 0.4466 0.82598 0.0
C888 C 0.35987 0.49313 0.84497 0.0
C889 C 0.35484 0.44969 0.84659 0.0
C890 C 0.33126 0.52132 0.86817 0.0
C891 C 0.36141 0.56053 0.85565 0.0
N892 N 0.34983 0.47257 0.85529 0.0
N893 N 0.36745 0.5373 0.84887 0.0
H894 H 0.43044 0.87349 0.33738 0.0
H895 H 0.57258 0.8569 0.36945 0.0
H896 H 0.45808 0.82386 0.39331 0.0
H897 H 0.54892 0.89023 0.30089 0.0
H898 H 0.53009 0.84876 0.38034 0.0
H899 H 0.4729 0.88368 0.32571 0.0
C900 C 0.4454 0.86485 0.34732 0.0
C901 C 0.44066 0.84779 0.36642 0.0
C902 C 0.53408 0.85784 0.36289 0.0
C903 C 0.48921 0.85942 0.35312 0.0
C904 C 0.55844 0.86263 0.35662 0.0
C905 C 0.56447 0.87431 0.33413 0.0
C906 C 0.51527 0.86488 0.34671 0.0
C907 C 0.54515 0.88115 0.31837 0.0
C908 C 0.46961 0.87059 0.34054 0.0
C909 C 0.46079 0.83707 0.37849 0.0
N910 N 0.52136 0.87638 0.325 0.0
N911 N 0.48411 0.84312 0.3717 0.0
H912 H 0.65412 0.18307 0.58079 0.0
H913 H 0.74509 0.10514 0.49328 0.0
H914 H 0.70236 0.12746 0.61096 0.0
H915 H 0.69092 0.15791 0.46873 0.0
H916 H 0.73228 0.11323 0.53653 0.0
H917 H 0.66953 0.17404 0.53977 0.0
C918 C 0.668 0.16885 0.57883 0.0
C919 C 0.6769 0.15604 0.59953 0.0
C920 C 0.72333 0.123 0.52157 0.0
C921 C 0.69496 0.14547 0.55186 0.0
C922 C 0.73071 0.11849 0.49694 0.0
C923 C 0.719 0.13075 0.47727 0.0
C924 C 0.70428 0.13997 0.52641 0.0
C925 C 0.70041 0.14779 0.48311 0.0
C926 C 0.67686 0.16367 0.55522 0.0
C927 C 0.6949 0.13776 0.59553 0.0
N928 N 0.69371 0.1518 0.50695 0.0
N929 N 0.7034 0.13302 0.57213 0.0
H930 H 0.84218 0.1805 0.09269 0.0
H931 H 0.84091 0.16136 0.94642 0.0
H932 H 0.79408 0.1286 0.05728 0.0
H933 H 0.87606 0.22293 0.98173 0.0
H934 H 0.82474 0.14813 0.98657 0.0
H935 H 0.8555 0.1953 0.05225 0.0
C936 C 0.83432 0.1722 0.07636 0.0
C937 C 0.81703 0.15311 0.07845 0.0
C938 C 0.83592 0.16456 0.98555 0.0
C939 C 0.83249 0.17008 0.03174 0.0
C940 C 0.84531 0.17212 0.96262 0.0
C941 C 0.86004 0.19329 0.96063 0.0
C942 C 0.84141 0.1781 1.00684 0.0
C943 C 0.86488 0.20649 0.98232 0.0
C944 C 0.84195 0.18077 0.05322 0.0
C945 C 0.80741 0.14333 0.05656 0.0
N946 N 0.85571 0.19861 1.0045 0.0
N947 N 0.81544 0.15179 0.03409 0.0
H948 H 0.88956 0.32346 0.56403 0.0
H949 H 0.80804 0.40317 0.46986 0.0
H950 H 0.84102 0.38218 0.58707 0.0
H951 H 0.86537 0.35324 0.44619 0.0
H952 H 0.8191 0.39493 0.51296 0.0
H953 H 0.88022 0.33324 0.52078 0.0
C954 C 0.87701 0.33845 0.56003 0.0
C955 C 0.86608 0.35199 0.57929 0.0
C956 C 0.82933 0.38585 0.49833 0.0
C957 C 0.85516 0.36321 0.52975 0.0
C958 C 0.823 0.39055 0.47369 0.0
C959 C 0.83577 0.3789 0.4543 0.0
C960 C 0.84845 0.36923 0.50372 0.0
C961 C 0.85501 0.36271 0.46048 0.0
C962 C 0.87169 0.34405 0.53531 0.0
C963 C 0.84994 0.37123 0.5729 0.0
N964 N 0.86067 0.35827 0.48459 0.0
N965 N 0.84491 0.37617 0.54875 0.0
H966 H 0.65181 0.33581 0.95407 0.0
H967 H 0.64388 0.33631 0.10202 0.0
H968 H 0.61546 0.27906 0.99669 0.0
H969 H 0.69409 0.38218 0.0604 0.0
H970 H 0.63011 0.31789 0.06343 0.0
H971 H 0.6643 0.3555 0.99253 0.0
C972 C 0.64635 0.3275 0.97152 0.0
C973 C 0.63253 0.30568 0.97209 0.0
C974 C 0.6441 0.33201 0.06271 0.0
C975 C 0.64681 0.32831 0.01633 0.0
C976 C 0.65194 0.34266 0.08476 0.0
C977 C 0.67024 0.36087 0.08454 0.0
C978 C 0.65443 0.33969 0.0401 0.0
C979 C 0.67999 0.3682 0.06152 0.0
C980 C 0.65358 0.33875 0.99349 0.0
C981 C 0.62612 0.29581 0.99531 0.0
N982 N 0.67195 0.35761 0.04024 0.0
N983 N 0.63326 0.30722 0.01647 0.0
H984 H 0.90571 0.53008 0.26825 0.0
H985 H 0.86583 0.45314 0.3886 0.0
H986 H 0.89147 0.56105 0.34041 0.0
H987 H 0.88755 0.41746 0.32076 0.0
H988 H 0.87879 0.49249 0.3713 0.0
H989 H 0.90211 0.48855 0.28659 0.0
C990 C 0.90203 0.52821 0.2879 0.0
C991 C 0.89862 0.5492 0.30269 0.0
C992 C 0.88114 0.4761 0.36019 0.0
C993 C 0.89456 0.50185 0.32377 0.0
C994 C 0.87386 0.45355 0.37019 0.0
C995 C 0.87573 0.43197 0.35618 0.0
C996 C 0.88993 0.47738 0.33566 0.0
C997 C 0.88609 0.43365 0.3323 0.0
C998 C 0.90001 0.50451 0.29836 0.0
C999 C 0.89396 0.54557 0.32808 0.0
N1000 N 0.89245 0.45604 0.32261 0.0
N1001 N 0.89195 0.52254 0.33766 0.0
H1002 H 0.45515 0.37929 0.82038 0.0
H1003 H 0.53786 0.2956 0.9092 0.0
H1004 H 0.42474 0.33043 0.87579 0.0
H1005 H 0.56763 0.34848 0.85731 0.0
H1006 H 0.49643 0.30941 0.89874 0.0
H1007 H 0.49632 0.36951 0.83503 0.0
C1008 C 0.45708 0.36657 0.83573 0.0
C1009 C 0.43636 0.35556 0.84676 0.0
C1010 C 0.51201 0.31813 0.88976 0.0
C1011 C 0.48375 0.34416 0.86363 0.0
C1012 C 0.53573 0.31026 0.89573 0.0
C1013 C 0.55635 0.3208 0.88403 0.0
C1014 C 0.50876 0.33661 0.87183 0.0
C1015 C 0.55234 0.33978 0.86679 0.0
C1016 C 0.48067 0.361 0.84412 0.0
C1017 C 0.44014 0.33932 0.86668 0.0
N1018 N 0.52905 0.34694 0.86109 0.0
N1019 N 0.46337 0.33399 0.87436 0.0
H1020 H 0.6927 0.05126 0.4296 0.0
H1021 H 0.62417 0.95875 0.33981 0.0
H1022 H 0.64591 0.07536 0.37009 0.0
H1023 H 0.6651 0.93511 0.40383 0.0
H1024 H 0.62848 1.00136 0.35297 0.0
H1025 H 0.67896 0.00908 0.42335 0.0
C1026 C 0.67912 0.04772 0.41549 0.0
C1027 C 0.67053 0.06687 0.40024 0.0
C1028 C 0.63632 0.9869 0.36431 0.0
C1029 C 0.65508 0.01831 0.39258 0.0
C1030 C 0.63395 0.96248 0.35678 0.0
C1031 C 0.64454 0.94322 0.3706 0.0
C1032 C 0.6496 0.99232 0.38576 0.0
C1033 C 0.65673 0.9493 0.39253 0.0
C1034 C 0.67134 0.02357 0.41188 0.0
C1035 C 0.65293 0.0612 0.38232 0.0
N1036 N 0.65917 0.97331 0.39928 0.0
N1037 N 0.64608 0.03735 0.37871 0.0
H1038 H 0.04915 0.11508 0.81957 0.0
H1039 H 0.9566 0.18706 0.90851 0.0
H1040 H 0.07297 0.16365 0.87763 0.0
H1041 H 0.93329 0.13481 0.85356 0.0
H1042 H 0.99923 0.17528 0.90069 0.0
H1043 H 0.00702 0.11886 0.83463 0.0
C1044 C 0.04556 0.12645 0.83563 0.0
C1045 C 0.06466 0.13931 0.84719 0.0
C1046 C 0.98482 0.16614 0.89055 0.0
C1047 C 0.01616 0.14379 0.86452 0.0
C1048 C 0.96041 0.17282 0.89502 0.0
C1049 C 0.9413 0.16209 0.88147 0.0
C1050 C 0.99029 0.14872 0.8722 0.0
C1051 C 0.9474 0.14362 0.86439 0.0
C1052 C 0.02143 0.12854 0.84426 0.0
C1053 C 0.05884 0.15351 0.86808 0.0
N1054 N 0.97139 0.13776 0.86001 0.0
N1055 N 0.03506 0.15558 0.87591 0.0
H1056 H 0.84077 0.06408 0.12004 0.0
H1057 H 0.90426 0.96406 0.20716 0.0
H1058 H 0.88332 0.08291 0.18422 0.0
H1059 H 0.86678 0.94565 0.13962 0.0
H1060 H 0.90006 0.0076 0.197 0.0
H1061 H 0.85389 0.0213 0.12437 0.0
C1062 C 0.85332 0.05929 0.1348 0.0
C1063 C 0.86088 0.07715 0.15187 0.0
C1064 C 0.89292 0.9941 0.18425 0.0
C1065 C 0.87559 0.02782 0.15728 0.0
C1066 C 0.89523 0.96913 0.19006 0.0
C1067 C 0.88563 0.95102 0.17434 0.0
C1068 C 0.88071 1.00128 0.16259 0.0
C1069 C 0.87438 0.95888 0.15235 0.0
C1070 C 0.86072 0.03478 0.13731 0.0
C1071 C 0.87714 0.06983 0.17057 0.0
N1072 N 0.87202 0.9834 0.14727 0.0
N1073 N 0.88365 0.04566 0.173 0.0
H1074 H 0.02918 0.40825 0.74631 0.0
H1075 H 0.93665 0.39191 0.63434 0.0
H1076 H 0.05071 0.40302 0.66945 0.0
H1077 H 0.91173 0.40316 0.70932 0.0
H1078 H 0.97816 0.40307 0.64658 0.0
H1079 H 0.9861 0.41244 0.7334 0.0
C1080 C 0.02492 0.40831 0.72675 0.0
C1081 C 0.04356 0.40487 0.70896 0.0
C1082 C 0.96362 0.40368 0.66037 0.0
C1083 C 0.99447 0.40971 0.69409 0.0
C1084 C 0.93986 0.39753 0.65327 0.0
C1085 C 0.92082 0.39678 0.67082 0.0
C1086 C 0.96859 0.40843 0.6854 0.0
C1087 C 0.92594 0.40385 0.6952 0.0
C1088 C 1.00034 0.41072 0.71939 0.0
C1089 C 0.03697 0.40519 0.68388 0.0
N1090 N 0.9495 0.40889 0.70193 0.0
N1091 N 0.01305 0.40732 0.67726 0.0
H1092 H 0.6486 0.45125 0.13938 0.0
H1093 H 0.60295 0.53943 0.24901 0.0
H1094 H 0.62513 0.42301 0.21037 0.0
H1095 H 0.62371 0.56412 0.17579 0.0
H1096 H 0.60684 0.49658 0.23487 0.0
H1097 H 0.63497 0.4922 0.15163 0.0
C1098 C 0.64013 0.4536 0.15744 0.0
C1099 C 0.63804 0.43361 0.17385 0.0
C1100 C 0.61028 0.51142 0.22188 0.0
C1101 C 0.62286 0.48095 0.18843 0.0
C1102 C 0.60802 0.53591 0.22992 0.0
C1103 C 0.61319 0.55553 0.21366 0.0
C1104 C 0.61774 0.50651 0.19738 0.0
C1105 C 0.61973 0.54974 0.18913 0.0
C1106 C 0.63244 0.47708 0.16451 0.0
C1107 C 0.62693 0.43785 0.19705 0.0
N1108 N 0.62195 0.52591 0.18187 0.0
N1109 N 0.62009 0.46111 0.2038 0.0
H1110 H 0.44262 0.14851 0.64875 0.0
H1111 H 0.58509 0.13666 0.6806 0.0
H1112 H 0.46826 0.11675 0.71734 0.0
H1113 H 0.55574 0.1925 0.63189 0.0
H1114 H 0.54334 0.12179 0.68842 0.0
H1115 H 0.485 0.15695 0.63676 0.0
C1116 C 0.45716 0.14298 0.66121 0.0
C1117 C 0.45178 0.13203 0.68425 0.0
C1118 C 0.54611 0.13713 0.67585 0.0
C1119 C 0.5005 0.14172 0.67041 0.0
C1120 C 0.56992 0.14555 0.67119 0.0
C1121 C 0.57392 0.16593 0.65557 0.0
C1122 C 0.52616 0.14891 0.66451 0.0
C1123 C 0.55351 0.17681 0.64411 0.0
C1124 C 0.48137 0.14795 0.65434 0.0
C1125 C 0.47152 0.12531 0.69949 0.0
N1126 N 0.5305 0.16816 0.64882 0.0
N1127 N 0.49505 0.13034 0.69233 0.0
H1128 H 0.37552 0.87469 0.44872 0.0
H1129 H 0.25375 0.91023 0.52321 0.0
H1130 H 0.30912 0.89733 0.41184 0.0
H1131 H 0.32485 0.89913 0.55651 0.0
H1132 H 0.27352 0.90897 0.48211 0.0
H1133 H 0.35769 0.88753 0.48811 0.0
C1134 C 0.35734 0.88289 0.44889 0.0
C1135 C 0.34378 0.88494 0.42702 0.0
C1136 C 0.28476 0.90711 0.49848 0.0
C1137 C 0.32277 0.89901 0.47229 0.0
C1138 C 0.27348 0.9078 0.52193 0.0
C1139 C 0.28758 0.90444 0.54337 0.0
C1140 C 0.31026 0.90299 0.49656 0.0
C1141 C 0.31311 0.90145 0.54057 0.0
C1142 C 0.34706 0.89012 0.47142 0.0
C1143 C 0.32025 0.89561 0.4283 0.0
N1144 N 0.32351 0.90059 0.5177 0.0
N1145 N 0.31027 0.90185 0.45065 0.0
H1146 H 0.10911 0.7863 0.04361 0.0
H1147 H 0.15289 0.88271 0.94131 0.0
H1148 H 0.1363 0.85893 0.06004 0.0
H1149 H 0.11118 0.81813 0.92257 0.0
H1150 H 0.14519 0.87452 0.98499 0.0
H1151 H 0.10793 0.7975 0.99956 0.0
C1152 C 0.11457 0.80467 0.03804 0.0
C1153 C 0.12304 0.82162 0.05561 0.0
C1154 C 0.13742 0.86223 0.97143 0.0
C1155 C 0.12186 0.83446 1.00523 0.0
C1156 C 0.14184 0.8669 0.94642 0.0
C1157 C 0.13275 0.85102 0.92828 0.0
C1158 C 0.12417 0.8412 0.97856 0.0
C1159 C 0.11845 0.83089 0.93599 0.0
C1160 C 0.11387 0.81104 0.01288 0.0
C1161 C 0.12981 0.84516 0.04725 0.0
N1162 N 0.11488 0.82632 0.96062 0.0
N1163 N 0.12929 0.85076 0.02273 0.0
H1164 H 0.18091 0.60876 0.5565 0.0
H1165 H 0.20493 0.61598 0.4104 0.0
H1166 H 0.25397 0.60544 0.52494 0.0
H1167 H 0.1385 0.63938 0.44755 0.0
H1168 H 0.22153 0.60245 0.45055 0.0
H1169 H 0.16385 0.61007 0.51515 0.0
C1170 C 0.19344 0.60817 0.54083 0.0
C1171 C 0.21899 0.60745 0.54426 0.0
C1172 C 0.20316 0.61013 0.44976 0.0
C1173 C 0.19935 0.60903 0.49649 0.0
C1174 C 0.19359 0.6176 0.42688 0.0
C1175 C 0.17032 0.62882 0.42574 0.0
C1176 C 0.18916 0.61365 0.47144 0.0
C1177 C 0.15654 0.63089 0.44764 0.0
C1178 C 0.18362 0.6089 0.51716 0.0
C1179 C 0.23418 0.60621 0.52314 0.0
N1180 N 0.1662 0.6235 0.46954 0.0
N1181 N 0.22413 0.60735 0.50007 0.0
H1182 H 0.41167 0.71867 0.04153 0.0
H1183 H 0.34223 0.62688 0.95127 0.0
H1184 H 0.36078 0.66299 0.06672 0.0
H1185 H 0.39468 0.68088 0.92569 0.0
H1186 H 0.35232 0.63688 0.99387 0.0
H1187 H 0.40903 0.70237 0.99966 0.0
C1188 C 0.40006 0.70287 0.03832 0.0
C1189 C 0.38621 0.69234 0.0577 0.0
C1190 C 0.36185 0.64642 0.97901 0.0
C1191 C 0.38307 0.67361 1.00957 0.0
C1192 C 0.35609 0.64071 0.95461 0.0
C1193 C 0.36744 0.65327 0.93484 0.0
C1194 C 0.37894 0.66501 0.98384 0.0
C1195 C 0.38544 0.6708 0.94035 0.0
C1196 C 0.3986 0.69355 0.01436 0.0
C1197 C 0.37169 0.67177 0.05238 0.0
N1198 N 0.39043 0.67637 0.96436 0.0
N1199 N 0.37032 0.66323 0.02878 0.0
loop_
_geom_bond_atom_site_label_1
_geom_bond_atom_site_label_2
_geom_bond_distance
_geom_bond_site_symmetry_2
_ccdc_geom_bond_type
C0 O2 1.247 . S
C0 O4 1.258 . S
C1 O8 1.247 . S
C1 O9 1.258 . S
O2 C0 1.247 . S
O2 Zn3 2.028 . S
Zn3 O2 2.028 . S
Zn3 O7 2.035 . S
Zn3 O9 2.035 . S
Zn3 O10 2.028 . S
O4 C0 1.258 . S
O4 Zn5 2.035 . S
Zn5 O4 2.035 . S
Zn5 O6 2.028 . S
Zn5 O8 2.028 . S
Zn5 O11 2.035 . S
O6 Zn5 2.028 . S
O6 C12 1.247 . S
O7 Zn3 2.035 . S
O7 C12 1.258 . S
O8 C1 1.247 . S
O8 Zn5 2.028 . S
O9 C1 1.258 . S
O9 Zn3 2.035 . S
O10 Zn3 2.028 . S
O10 C13 1.247 . S
O11 Zn5 2.035 . S
O11 C13 1.258 . S
C12 O6 1.247 . S
C12 O7 1.258 . S
C13 O10 1.247 . S
C13 O11 1.258 . S
C14 O16 1.247 . S
C14 O18 1.258 . S
C15 O22 1.247 . S
C15 O23 1.258 . S
O16 C14 1.247 . S
O16 Zn17 2.028 . S
Zn17 O16 2.028 . S
Zn17 O21 2.035 . S
Zn17 O23 2.035 . S
Zn17 O24 2.028 . S
O18 C14 1.258 . S
O18 Zn19 2.035 . S
Zn19 O18 2.035 . S
Zn19 O20 2.028 . S
Zn19 O22 2.028 . S
Zn19 O25 2.035 . S
O20 Zn19 2.028 . S
O20 C26 1.247 . S
O21 Zn17 2.035 . S
O21 C26 1.258 . S
O22 C15 1.247 . S
O22 Zn19 2.028 . S
O23 C15 1.258 . S
O23 Zn17 2.035 . S
O24 Zn17 2.028 . S
O24 C27 1.247 . S
O25 Zn19 2.035 . S
O25 C27 1.258 . S
C26 O20 1.247 . S
C26 O21 1.258 . S
C27 O24 1.247 . S
C27 O25 1.258 . S
C28 O30 1.247 . S
C28 O32 1.258 . S
C29 O36 1.247 . S
C29 O37 1.258 . S
O30 C28 1.247 . S
O30 Zn31 2.028 . S
Zn31 O30 2.028 . S
Zn31 O35 2.035 . S
Zn31 O37 2.035 . S
Zn31 O38 2.028 . S
O32 C28 1.258 . S
O32 Zn33 2.035 . S
Zn33 O32 2.035 . S
Zn33 O34 2.028 . S
Zn33 O36 2.028 . S
Zn33 O39 2.035 . S
O34 Zn33 2.028 . S
O34 C40 1.247 . S
O35 Zn31 2.035 . S
O35 C40 1.258 . S
O36 C29 1.247 . S
O36 Zn33 2.028 . S
O37 C29 1.258 . S
O37 Zn31 2.035 . S
O38 Zn31 2.028 . S
O38 C41 1.247 . S
O39 Zn33 2.035 . S
O39 C41 1.258 . S
C40 O34 1.247 . S
C40 O35 1.258 . S
C41 O38 1.247 . S
C41 O39 1.258 . S
C42 O44 1.247 . S
C42 O46 1.258 . S
C43 O50 1.247 . S
C43 O51 1.258 . S
O44 C42 1.247 . S
O44 Zn45 2.028 . S
Zn45 O44 2.028 . S
Zn45 O49 2.035 . S
Zn45 O51 2.035 . S
Zn45 O52 2.028 . S
O46 C42 1.258 . S
O46 Zn47 2.035 . S
Zn47 O46 2.035 . S
Zn47 O48 2.028 . S
Zn47 O50 2.028 . S
Zn47 O53 2.035 . S
O48 Zn47 2.028 . S
O48 C54 1.247 . S
O49 Zn45 2.035 . S
O49 C54 1.258 . S
O50 C43 1.247 . S
O50 Zn47 2.028 . S
O51 C43 1.258 . S
O51 Zn45 2.035 . S
O52 Zn45 2.028 . S
O52 C55 1.247 . S
O53 Zn47 2.035 . S
O53 C55 1.258 . S
C54 O48 1.247 . S
C54 O49 1.258 . S
C55 O52 1.247 . S
C55 O53 1.258 . S
C56 O58 1.247 . S
C56 O60 1.258 . S
C57 O64 1.247 . S
C57 O65 1.258 . S
O58 C56 1.247 . S
O58 Zn59 2.028 . S
Zn59 O58 2.028 . S
Zn59 O63 2.035 . S
Zn59 O65 2.035 . S
Zn59 O66 2.028 . S
O60 C56 1.258 . S
O60 Zn61 2.035 . S
Zn61 O60 2.035 . S
Zn61 O62 2.028 . S
Zn61 O64 2.028 . S
Zn61 O67 2.035 . S
O62 Zn61 2.028 . S
O62 C68 1.247 . S
O63 Zn59 2.035 . S
O63 C68 1.258 . S
O64 C57 1.247 . S
O64 Zn61 2.028 . S
O65 C57 1.258 . S
O65 Zn59 2.035 . S
O66 Zn59 2.028 . S
O66 C69 1.247 . S
O67 Zn61 2.035 . S
O67 C69 1.258 . S
C68 O62 1.247 . S
C68 O63 1.258 . S
C69 O66 1.247 . S
C69 O67 1.258 . S
C70 O72 1.247 . S
C70 O74 1.258 . S
C71 O78 1.247 . S
C71 O79 1.258 . S
O72 C70 1.247 . S
O72 Zn73 2.028 . S
Zn73 O72 2.028 . S
Zn73 O77 2.035 . S
Zn73 O79 2.035 . S
Zn73 O80 2.028 . S
O74 C70 1.258 . S
O74 Zn75 2.035 . S
Zn75 O74 2.035 . S
Zn75 O76 2.028 . S
Zn75 O78 2.028 . S
Zn75 O81 2.035 . S
O76 Zn75 2.028 . S
O76 C82 1.247 . S
O77 Zn73 2.035 . S
O77 C82 1.258 . S
O78 C71 1.247 . S
O78 Zn75 2.028 . S
O79 C71 1.258 . S
O79 Zn73 2.035 . S
O80 Zn73 2.028 . S
O80 C83 1.247 . S
O81 Zn75 2.035 . S
O81 C83 1.258 . S
C82 O76 1.247 . S
C82 O77 1.258 . S
C83 O80 1.247 . S
C83 O81 1.258 . S
C84 O86 1.247 . S
C84 O88 1.258 . S
C85 O92 1.247 . S
C85 O93 1.258 . S
O86 C84 1.247 . S
O86 Zn87 2.028 . S
Zn87 O86 2.028 . S
Zn87 O91 2.035 . S
Zn87 O93 2.035 . S
Zn87 O94 2.028 . S
O88 C84 1.258 . S
O88 Zn89 2.035 . S
Zn89 O88 2.035 . S
Zn89 O90 2.028 . S
Zn89 O92 2.028 . S
Zn89 O95 2.035 . S
O90 Zn89 2.028 . S
O90 C96 1.247 . S
O91 Zn87 2.035 . S
O91 C96 1.258 . S
O92 C85 1.247 . S
O92 Zn89 2.028 . S
O93 C85 1.258 . S
O93 Zn87 2.035 . S
O94 Zn87 2.028 . S
O94 C97 1.247 . S
O95 Zn89 2.035 . S
O95 C97 1.258 . S
C96 O90 1.247 . S
C96 O91 1.258 . S
C97 O94 1.247 . S
C97 O95 1.258 . S
C98 O100 1.247 . S
C98 O102 1.258 . S
C99 O106 1.247 . S
C99 O107 1.258 . S
O100 C98 1.247 . S
O100 Zn101 2.028 . S
Zn101 O100 2.028 . S
Zn101 O105 2.035 . S
Zn101 O107 2.035 . S
Zn101 O108 2.028 . S
O102 C98 1.258 . S
O102 Zn103 2.035 . S
Zn103 O102 2.035 . S
Zn103 O104 2.028 . S
Zn103 O106 2.028 . S
Zn103 O109 2.035 . S
O104 Zn103 2.028 . S
O104 C110 1.247 . S
O105 Zn101 2.035 . S
O105 C110 1.258 . S
O106 C99 1.247 . S
O106 Zn103 2.028 . S
O107 C99 1.258 . S
O107 Zn101 2.035 . S
O108 Zn101 2.028 . S
O108 C111 1.247 . S
O109 Zn103 2.035 . S
O109 C111 1.258 . S
C110 O104 1.247 . S
C110 O105 1.258 . S
C111 O108 1.247 . S
C111 O109 1.258 . S
C112 O114 1.247 . S
C112 O116 1.258 . S
C113 O120 1.247 . S
C113 O121 1.258 . S
O114 C112 1.247 . S
O114 Zn115 2.028 . S
Zn115 O114 2.028 . S
Zn115 O119 2.035 . S
Zn115 O121 2.035 . S
Zn115 O122 2.028 . S
O116 C112 1.258 . S
O116 Zn117 2.035 . S
Zn117 O116 2.035 . S
Zn117 O118 2.028 . S
Zn117 O120 2.028 . S
Zn117 O123 2.035 . S
O118 Zn117 2.028 . S
O118 C124 1.247 . S
O119 Zn115 2.035 . S
O119 C124 1.258 . S
O120 C113 1.247 . S
O120 Zn117 2.028 . S
O121 C113 1.258 . S
O121 Zn115 2.035 . S
O122 Zn115 2.028 . S
O122 C125 1.247 . S
O123 Zn117 2.035 . S
O123 C125 1.258 . S
C124 O118 1.247 . S
C124 O119 1.258 . S
C125 O122 1.247 . S
C125 O123 1.258 . S
C126 O128 1.247 . S
C126 O130 1.258 . S
C127 O134 1.247 . S
C127 O135 1.258 . S
O128 C126 1.247 . S
O128 Zn129 2.028 . S
Zn129 O128 2.028 . S
Zn129 O133 2.035 . S
Zn129 O135 2.035 . S
Zn129 O136 2.028 . S
O130 C126 1.258 . S
O130 Zn131 2.035 . S
Zn131 O130 2.035 . S
Zn131 O132 2.028 . S
Zn131 O134 2.028 . S
Zn131 O137 2.035 . S
O132 Zn131 2.028 . S
O132 C138 1.247 . S
O133 Zn129 2.035 . S
O133 C138 1.258 . S
O134 C127 1.247 . S
O134 Zn131 2.028 . S
O135 C127 1.258 . S
O135 Zn129 2.035 . S
O136 Zn129 2.028 . S
O136 C139 1.247 . S
O137 Zn131 2.035 . S
O137 C139 1.258 . S
C138 O132 1.247 . S
C138 O133 1.258 . S
C139 O136 1.247 . S
C139 O137 1.258 . S
C140 O142 1.247 . S
C140 O144 1.258 . S
C141 O148 1.247 . S
C141 O149 1.258 . S
O142 C140 1.247 . S
O142 Zn143 2.028 . S
Zn143 O142 2.028 . S
Zn143 O147 2.035 . S
Zn143 O149 2.035 . S
Zn143 O150 2.028 . S
O144 C140 1.258 . S
O144 Zn145 2.035 . S
Zn145 O144 2.035 . S
Zn145 O146 2.028 . S
Zn145 O148 2.028 . S
Zn145 O151 2.035 . S
O146 Zn145 2.028 . S
O146 C152 1.247 . S
O147 Zn143 2.035 . S
O147 C152 1.258 . S
O148 C141 1.247 . S
O148 Zn145 2.028 . S
O149 C141 1.258 . S
O149 Zn143 2.035 . S
O150 Zn143 2.028 . S
O150 C153 1.247 . S
O151 Zn145 2.035 . S
O151 C153 1.258 . S
C152 O146 1.247 . S
C152 O147 1.258 . S
C153 O150 1.247 . S
C153 O151 1.258 . S
C154 O156 1.247 . S
C154 O158 1.258 . S
C155 O162 1.247 . S
C155 O163 1.258 . S
O156 C154 1.247 . S
O156 Zn157 2.028 . S
Zn157 O156 2.028 . S
Zn157 O161 2.035 . S
Zn157 O163 2.035 . S
Zn157 O164 2.028 . S
O158 C154 1.258 . S
O158 Zn159 2.035 . S
Zn159 O158 2.035 . S
Zn159 O160 2.028 . S
Zn159 O162 2.028 . S
Zn159 O165 2.035 . S
O160 Zn159 2.028 . S
O160 C166 1.247 . S
O161 Zn157 2.035 . S
O161 C166 1.258 . S
O162 C155 1.247 . S
O162 Zn159 2.028 . S
O163 C155 1.258 . S
O163 Zn157 2.035 . S
O164 Zn157 2.028 . S
O164 C167 1.247 . S
O165 Zn159 2.035 . S
O165 C167 1.258 . S
C166 O160 1.247 . S
C166 O161 1.258 . S
C167 O164 1.247 . S
C167 O165 1.258 . S
C168 O170 1.247 . S
C168 O172 1.258 . S
C169 O176 1.247 . S
C169 O177 1.258 . S
O170 C168 1.247 . S
O170 Zn171 2.028 . S
Zn171 O170 2.028 . S
Zn171 O175 2.035 . S
Zn171 O177 2.035 . S
Zn171 O178 2.028 . S
O172 C168 1.258 . S
O172 Zn173 2.035 . S
Zn173 O172 2.035 . S
Zn173 O174 2.028 . S
Zn173 O176 2.028 . S
Zn173 O179 2.035 . S
O174 Zn173 2.028 . S
O174 C180 1.247 . S
O175 Zn171 2.035 . S
O175 C180 1.258 . S
O176 C169 1.247 . S
O176 Zn173 2.028 . S
O177 C169 1.258 . S
O177 Zn171 2.035 . S
O178 Zn171 2.028 . S
O178 C181 1.247 . S
O179 Zn173 2.035 . S
O179 C181 1.258 . S
C180 O174 1.247 . S
C180 O175 1.258 . S
C181 O178 1.247 . S
C181 O179 1.258 . S
C182 O184 1.247 . S
C182 O186 1.258 . S
C183 O190 1.247 . S
C183 O191 1.258 . S
O184 C182 1.247 . S
O184 Zn185 2.028 . S
Zn185 O184 2.028 . S
Zn185 O189 2.035 . S
Zn185 O191 2.035 . S
Zn185 O192 2.028 . S
O186 C182 1.258 . S
O186 Zn187 2.035 . S
Zn187 O186 2.035 . S
Zn187 O188 2.028 . S
Zn187 O190 2.028 . S
Zn187 O193 2.035 . S
O188 Zn187 2.028 . S
O188 C194 1.247 . S
O189 Zn185 2.035 . S
O189 C194 1.258 . S
O190 C183 1.247 . S
O190 Zn187 2.028 . S
O191 C183 1.258 . S
O191 Zn185 2.035 . S
O192 Zn185 2.028 . S
O192 C195 1.247 . S
O193 Zn187 2.035 . S
O193 C195 1.258 . S
C194 O188 1.247 . S
C194 O189 1.258 . S
C195 O192 1.247 . S
C195 O193 1.258 . S
C196 O198 1.247 . S
C196 O200 1.258 . S
C197 O204 1.247 . S
C197 O205 1.258 . S
O198 C196 1.247 . S
O198 Zn199 2.028 . S
Zn199 O198 2.028 . S
Zn199 O203 2.035 . S
Zn199 O205 2.035 . S
Zn199 O206 2.028 . S
O200 C196 1.258 . S
O200 Zn201 2.035 . S
Zn201 O200 2.035 . S
Zn201 O202 2.028 . S
Zn201 O204 2.028 . S
Zn201 O207 2.035 . S
O202 Zn201 2.028 . S
O202 C208 1.247 . S
O203 Zn199 2.035 . S
O203 C208 1.258 . S
O204 C197 1.247 . S
O204 Zn201 2.028 . S
O205 C197 1.258 . S
O205 Zn199 2.035 . S
O206 Zn199 2.028 . S
O206 C209 1.247 . S
O207 Zn201 2.035 . S
O207 C209 1.258 . S
C208 O202 1.247 . S
C208 O203 1.258 . S
C209 O206 1.247 . S
C209 O207 1.258 . S
C210 O212 1.247 . S
C210 O214 1.258 . S
C211 O218 1.247 . S
C211 O219 1.258 . S
O212 C210 1.247 . S
O212 Zn213 2.028 . S
Zn213 O212 2.028 . S
Zn213 O217 2.035 . S
Zn213 O219 2.035 . S
Zn213 O220 2.028 . S
O214 C210 1.258 . S
O214 Zn215 2.035 . S
Zn215 O214 2.035 . S
Zn215 O216 2.028 . S
Zn215 O218 2.028 . S
Zn215 O221 2.035 . S
O216 Zn215 2.028 . S
O216 C222 1.247 . S
O217 Zn213 2.035 . S
O217 C222 1.258 . S
O218 C211 1.247 . S
O218 Zn215 2.028 . S
O219 C211 1.258 . S
O219 Zn213 2.035 . S
O220 Zn213 2.028 . S
O220 C223 1.247 . S
O221 Zn215 2.035 . S
O221 C223 1.258 . S
C222 O216 1.247 . S
C222 O217 1.258 . S
C223 O220 1.247 . S
C223 O221 1.258 . S
C224 O226 1.247 . S
C224 O228 1.258 . S
C225 O232 1.247 . S
C225 O233 1.258 . S
O226 C224 1.247 . S
O226 Zn227 2.028 . S
Zn227 O226 2.028 . S
Zn227 O231 2.035 . S
Zn227 O233 2.035 . S
Zn227 O234 2.028 . S
O228 C224 1.258 . S
O228 Zn229 2.035 . S
Zn229 O228 2.035 . S
Zn229 O230 2.028 . S
Zn229 O232 2.028 . S
Zn229 O235 2.035 . S
O230 Zn229 2.028 . S
O230 C236 1.247 . S
O231 Zn227 2.035 . S
O231 C236 1.258 . S
O232 C225 1.247 . S
O232 Zn229 2.028 . S
O233 C225 1.258 . S
O233 Zn227 2.035 . S
O234 Zn227 2.028 . S
O234 C237 1.247 . S
O235 Zn229 2.035 . S
O235 C237 1.258 . S
C236 O230 1.247 . S
C236 O231 1.258 . S
C237 O234 1.247 . S
C237 O235 1.258 . S
C238 O240 1.247 . S
C238 O242 1.258 . S
C239 O246 1.247 . S
C239 O247 1.258 . S
O240 C238 1.247 . S
O240 Zn241 2.028 . S
Zn241 O240 2.028 . S
Zn241 O245 2.035 . S
Zn241 O247 2.035 . S
Zn241 O248 2.028 . S
O242 C238 1.258 . S
O242 Zn243 2.035 . S
Zn243 O242 2.035 . S
Zn243 O244 2.028 . S
Zn243 O246 2.028 . S
Zn243 O249 2.035 . S
O244 Zn243 2.028 . S
O244 C250 1.247 . S
O245 Zn241 2.035 . S
O245 C250 1.258 . S
O246 C239 1.247 . S
O246 Zn243 2.028 . S
O247 C239 1.258 . S
O247 Zn241 2.035 . S
O248 Zn241 2.028 . S
O248 C251 1.247 . S
O249 Zn243 2.035 . S
O249 C251 1.258 . S
C250 O244 1.247 . S
C250 O245 1.258 . S
C251 O248 1.247 . S
C251 O249 1.258 . S
C252 O254 1.247 . S
C252 O256 1.258 . S
C253 O260 1.247 . S
C253 O261 1.258 . S
O254 C252 1.247 . S
O254 Zn255 2.028 . S
Zn255 O254 2.028 . S
Zn255 O259 2.035 . S
Zn255 O261 2.035 . S
Zn255 O262 2.028 . S
O256 C252 1.258 . S
O256 Zn257 2.035 . S
Zn257 O256 2.035 . S
Zn257 O258 2.028 . S
Zn257 O260 2.028 . S
Zn257 O263 2.035 . S
O258 Zn257 2.028 . S
O258 C264 1.247 . S
O259 Zn255 2.035 . S
O259 C264 1.258 . S
O260 C253 1.247 . S
O260 Zn257 2.028 . S
O261 C253 1.258 . S
O261 Zn255 2.035 . S
O262 Zn255 2.028 . S
O262 C265 1.247 . S
O263 Zn257 2.035 . S
O263 C265 1.258 . S
C264 O258 1.247 . S
C264 O259 1.258 . S
C265 O262 1.247 . S
C265 O263 1.258 . S
C266 O268 1.247 . S
C266 O270 1.258 . S
C267 O274 1.247 . S
C267 O275 1.258 . S
O268 C266 1.247 . S
O268 Zn269 2.028 . S
Zn269 O268 2.028 . S
Zn269 O273 2.035 . S
Zn269 O275 2.035 . S
Zn269 O276 2.028 . S
O270 C266 1.258 . S
O270 Zn271 2.035 . S
Zn271 O270 2.035 . S
Zn271 O272 2.028 . S
Zn271 O274 2.028 . S
Zn271 O277 2.035 . S
O272 Zn271 2.028 . S
O272 C278 1.247 . S
O273 Zn269 2.035 . S
O273 C278 1.258 . S
O274 C267 1.247 . S
O274 Zn271 2.028 . S
O275 C267 1.258 . S
O275 Zn269 2.035 . S
O276 Zn269 2.028 . S
O276 C279 1.247 . S
O277 Zn271 2.035 . S
O277 C279 1.258 . S
C278 O272 1.247 . S
C278 O273 1.258 . S
C279 O276 1.247 . S
C279 O277 1.258 . S
C280 O282 1.247 . S
C280 O284 1.258 . S
C281 O288 1.247 . S
C281 O289 1.258 . S
O282 C280 1.247 . S
O282 Zn283 2.028 . S
Zn283 O282 2.028 . S
Zn283 O287 2.035 . S
Zn283 O289 2.035 . S
Zn283 O290 2.028 . S
O284 C280 1.258 . S
O284 Zn285 2.035 . S
Zn285 O284 2.035 . S
Zn285 O286 2.028 . S
Zn285 O288 2.028 . S
Zn285 O291 2.035 . S
O286 Zn285 2.028 . S
O286 C292 1.247 . S
O287 Zn283 2.035 . S
O287 C292 1.258 . S
O288 C281 1.247 . S
O288 Zn285 2.028 . S
O289 C281 1.258 . S
O289 Zn283 2.035 . S
O290 Zn283 2.028 . S
O290 C293 1.247 . S
O291 Zn285 2.035 . S
O291 C293 1.258 . S
C292 O286 1.247 . S
C292 O287 1.258 . S
C293 O290 1.247 . S
C293 O291 1.258 . S
C294 O296 1.247 . S
C294 O298 1.258 . S
C295 O302 1.247 . S
C295 O303 1.258 . S
O296 C294 1.247 . S
O296 Zn297 2.028 . S
Zn297 O296 2.028 . S
Zn297 O301 2.035 . S
Zn297 O303 2.035 . S
Zn297 O304 2.028 . S
O298 C294 1.258 . S
O298 Zn299 2.035 . S
Zn299 O298 2.035 . S
Zn299 O300 2.028 . S
Zn299 O302 2.028 . S
Zn299 O305 2.035 . S
O300 Zn299 2.028 . S
O300 C306 1.247 . S
O301 Zn297 2.035 . S
O301 C306 1.258 . S
O302 C295 1.247 . S
O302 Zn299 2.028 . S
O303 C295 1.258 . S
O303 Zn297 2.035 . S
O304 Zn297 2.028 . S
O304 C307 1.247 . S
O305 Zn299 2.035 . S
O305 C307 1.258 . S
C306 O300 1.247 . S
C306 O301 1.258 . S
C307 O304 1.247 . S
C307 O305 1.258 . S
C308 O310 1.247 . S
C308 O312 1.258 . S
C309 O316 1.247 . S
C309 O317 1.258 . S
O310 C308 1.247 . S
O310 Zn311 2.028 . S
Zn311 O310 2.028 . S
Zn311 O315 2.035 . S
Zn311 O317 2.035 . S
Zn311 O318 2.028 . S
O312 C308 1.258 . S
O312 Zn313 2.035 . S
Zn313 O312 2.035 . S
Zn313 O314 2.028 . S
Zn313 O316 2.028 . S
Zn313 O319 2.035 . S
O314 Zn313 2.028 . S
O314 C320 1.247 . S
O315 Zn311 2.035 . S
O315 C320 1.258 . S
O316 C309 1.247 . S
O316 Zn313 2.028 . S
O317 C309 1.258 . S
O317 Zn311 2.035 . S
O318 Zn311 2.028 . S
O318 C321 1.247 . S
O319 Zn313 2.035 . S
O319 C321 1.258 . S
C320 O314 1.247 . S
C320 O315 1.258 . S
C321 O318 1.247 . S
C321 O319 1.258 . S
C322 O324 1.247 . S
C322 O326 1.258 . S
C323 O330 1.247 . S
C323 O331 1.258 . S
O324 C322 1.247 . S
O324 Zn325 2.028 . S
Zn325 O324 2.028 . S
Zn325 O329 2.035 . S
Zn325 O331 2.035 . S
Zn325 O332 2.028 . S
O326 C322 1.258 . S
O326 Zn327 2.035 . S
Zn327 O326 2.035 . S
Zn327 O328 2.028 . S
Zn327 O330 2.028 . S
Zn327 O333 2.035 . S
O328 Zn327 2.028 . S
O328 C334 1.247 . S
O329 Zn325 2.035 . S
O329 C334 1.258 . S
O330 C323 1.247 . S
O330 Zn327 2.028 . S
O331 C323 1.258 . S
O331 Zn325 2.035 . S
O332 Zn325 2.028 . S
O332 C335 1.247 . S
O333 Zn327 2.035 . S
O333 C335 1.258 . S
C334 O328 1.247 . S
C334 O329 1.258 . S
C335 O332 1.247 . S
C335 O333 1.258 . S
H336 C342 0.930 . S
H337 C346 0.930 . S
H338 C351 0.929 . S
H339 C349 0.929 . S
H340 C344 0.929 . S
H341 C350 0.929 . S
C342 H336 0.930 . S
C342 C343 1.367 . S
C342 C350 1.378 . S
C343 C342 1.367 . S
C343 C351 1.433 . S
C344 H340 0.929 . S
C344 C346 1.378 . S
C344 C348 1.350 . S
C345 C348 1.463 . S
C345 C350 1.350 . S
C345 N353 1.427 . S
C346 H337 0.930 . S
C346 C344 1.378 . S
C346 C347 1.367 . S
C347 C346 1.367 . S
C347 C349 1.433 . S
C348 C344 1.350 . S
C348 C345 1.463 . S
C348 N352 1.427 . S
C349 H339 0.929 . S
C349 C347 1.433 . S
C349 N352 1.384 . S
C350 H341 0.929 . S
C350 C342 1.378 . S
C350 C345 1.350 . S
C351 H338 0.929 . S
C351 C343 1.433 . S
C351 N353 1.384 . S
N352 C348 1.427 . S
N352 C349 1.384 . S
N353 C345 1.427 . S
N353 C351 1.384 . S
H354 C360 0.930 . S
H355 C364 0.930 . S
H356 C369 0.929 . S
H357 C367 0.929 . S
H358 C362 0.929 . S
H359 C368 0.929 . S
C360 H354 0.930 . S
C360 C361 1.367 . S
C360 C368 1.378 . S
C361 C360 1.367 . S
C361 C369 1.433 . S
C362 H358 0.929 . S
C362 C364 1.378 . S
C362 C366 1.350 . S
C363 C366 1.463 . S
C363 C368 1.350 . S
C363 N371 1.427 . S
C364 H355 0.930 . S
C364 C362 1.378 . S
C364 C365 1.367 . S
C365 C364 1.367 . S
C365 C367 1.433 . S
C366 C362 1.350 . S
C366 C363 1.463 . S
C366 N370 1.427 . S
C367 H357 0.929 . S
C367 C365 1.433 . S
C367 N370 1.384 . S
C368 H359 0.929 . S
C368 C360 1.378 . S
C368 C363 1.350 . S
C369 H356 0.929 . S
C369 C361 1.433 . S
C369 N371 1.384 . S
N370 C366 1.427 . S
N370 C367 1.384 . S
N371 C363 1.427 . S
N371 C369 1.384 . S
H372 C378 0.930 . S
H373 C382 0.930 . S
H374 C387 0.929 . S
H375 C385 0.929 . S
H376 C380 0.929 . S
H377 C386 0.929 . S
C378 H372 0.930 . S
C378 C379 1.367 . S
C378 C386 1.378 . S
C379 C378 1.367 . S
C379 C387 1.433 . S
C380 H376 0.929 . S
C380 C382 1.378 . S
C380 C384 1.350 . S
C381 C384 1.463 . S
C381 C386 1.350 . S
C381 N389 1.427 . S
C382 H373 0.930 . S
C382 C380 1.378 . S
C382 C383 1.367 . S
C383 C382 1.367 . S
C383 C385 1.433 . S
C384 C380 1.350 . S
C384 C381 1.463 . S
C384 N388 1.427 . S
C385 H375 0.929 . S
C385 C383 1.433 . S
C385 N388 1.384 . S
C386 H377 0.929 . S
C386 C378 1.378 . S
C386 C381 1.350 . S
C387 H374 0.929 . S
C387 C379 1.433 . S
C387 N389 1.384 . S
N388 C384 1.427 . S
N388 C385 1.384 . S
N389 C381 1.427 . S
N389 C387 1.384 . S
H390 C396 0.930 . S
H391 C400 0.930 . S
H392 C405 0.929 . S
H393 C403 0.929 . S
H394 C398 0.929 . S
H395 C404 0.929 . S
C396 H390 0.930 . S
C396 C397 1.367 . S
C396 C404 1.378 . S
C397 C396 1.367 . S
C397 C405 1.433 . S
C398 H394 0.929 . S
C398 C400 1.378 . S
C398 C402 1.350 . S
C399 C402 1.463 . S
C399 C404 1.350 . S
C399 N407 1.427 . S
C400 H391 0.930 . S
C400 C398 1.378 . S
C400 C401 1.367 . S
C401 C400 1.367 . S
C401 C403 1.433 . S
C402 C398 1.350 . S
C402 C399 1.463 . S
C402 N406 1.427 . S
C403 H393 0.929 . S
C403 C401 1.433 . S
C403 N406 1.384 . S
C404 H395 0.929 . S
C404 C396 1.378 . S
C404 C399 1.350 . S
C405 H392 0.929 . S
C405 C397 1.433 . S
C405 N407 1.384 . S
N406 C402 1.427 . S
N406 C403 1.384 . S
N407 C399 1.427 . S
N407 C405 1.384 . S
H408 C414 0.930 . S
H409 C418 0.930 . S
H410 C423 0.929 . S
H411 C421 0.929 . S
H412 C416 0.929 . S
H413 C422 0.929 . S
C414 H408 0.930 . S
C414 C415 1.367 . S
C414 C422 1.378 . S
C415 C414 1.367 . S
C415 C423 1.433 . S
C416 H412 0.929 . S
C416 C418 1.378 . S
C416 C420 1.350 . S
C417 C420 1.463 . S
C417 C422 1.350 . S
C417 N425 1.427 . S
C418 H409 0.930 . S
C418 C416 1.378 . S
C418 C419 1.367 . S
C419 C418 1.367 . S
C419 C421 1.433 . S
C420 C416 1.350 . S
C420 C417 1.463 . S
C420 N424 1.427 . S
C421 H411 0.929 . S
C421 C419 1.433 . S
C421 N424 1.384 . S
C422 H413 0.929 . S
C422 C414 1.378 . S
C422 C417 1.350 . S
C423 H410 0.929 . S
C423 C415 1.433 . S
C423 N425 1.384 . S
N424 C420 1.427 . S
N424 C421 1.384 . S
N425 C417 1.427 . S
N425 C423 1.384 . S
H426 C432 0.930 . S
H427 C436 0.930 . S
H428 C441 0.929 . S
H429 C439 0.929 . S
H430 C434 0.929 . S
H431 C440 0.929 . S
C432 H426 0.930 . S
C432 C433 1.367 . S
C432 C440 1.378 . S
C433 C432 1.367 . S
C433 C441 1.433 . S
C434 H430 0.929 . S
C434 C436 1.378 . S
C434 C438 1.350 . S
C435 C438 1.463 . S
C435 C440 1.350 . S
C435 N443 1.427 . S
C436 H427 0.930 . S
C436 C434 1.378 . S
C436 C437 1.367 . S
C437 C436 1.367 . S
C437 C439 1.433 . S
C438 C434 1.350 . S
C438 C435 1.463 . S
C438 N442 1.427 . S
C439 H429 0.929 . S
C439 C437 1.433 . S
C439 N442 1.384 . S
C440 H431 0.929 . S
C440 C432 1.378 . S
C440 C435 1.350 . S
C441 H428 0.929 . S
C441 C433 1.433 . S
C441 N443 1.384 . S
N442 C438 1.427 . S
N442 C439 1.384 . S
N443 C435 1.427 . S
N443 C441 1.384 . S
H444 C450 0.930 . S
H445 C454 0.930 . S
H446 C459 0.929 . S
H447 C457 0.929 . S
H448 C452 0.929 . S
H449 C458 0.929 . S
C450 H444 0.930 . S
C450 C451 1.367 . S
C450 C458 1.378 . S
C451 C450 1.367 . S
C451 C459 1.433 . S
C452 H448 0.929 . S
C452 C454 1.378 . S
C452 C456 1.350 . S
C453 C456 1.463 . S
C453 C458 1.350 . S
C453 N461 1.427 . S
C454 H445 0.930 . S
C454 C452 1.378 . S
C454 C455 1.367 . S
C455 C454 1.367 . S
C455 C457 1.433 . S
C456 C452 1.350 . S
C456 C453 1.463 . S
C456 N460 1.427 . S
C457 H447 0.929 . S
C457 C455 1.433 . S
C457 N460 1.384 . S
C458 H449 0.929 . S
C458 C450 1.378 . S
C458 C453 1.350 . S
C459 H446 0.929 . S
C459 C451 1.433 . S
C459 N461 1.384 . S
N460 C456 1.427 . S
N460 C457 1.384 . S
N461 C453 1.427 . S
N461 C459 1.384 . S
H462 C468 0.930 . S
H463 C472 0.930 . S
H464 C477 0.929 . S
H465 C475 0.929 . S
H466 C470 0.929 . S
H467 C476 0.929 . S
C468 H462 0.930 . S
C468 C469 1.367 . S
C468 C476 1.378 . S
C469 C468 1.367 . S
C469 C477 1.433 . S
C470 H466 0.929 . S
C470 C472 1.378 . S
C470 C474 1.350 . S
C471 C474 1.463 . S
C471 C476 1.350 . S
C471 N479 1.427 . S
C472 H463 0.930 . S
C472 C470 1.378 . S
C472 C473 1.367 . S
C473 C472 1.367 . S
C473 C475 1.433 . S
C474 C470 1.350 . S
C474 C471 1.463 . S
C474 N478 1.427 . S
C475 H465 0.929 . S
C475 C473 1.433 . S
C475 N478 1.384 . S
C476 H467 0.929 . S
C476 C468 1.378 . S
C476 C471 1.350 . S
C477 H464 0.929 . S
C477 C469 1.433 . S
C477 N479 1.384 . S
N478 C474 1.427 . S
N478 C475 1.384 . S
N479 C471 1.427 . S
N479 C477 1.384 . S
H480 C486 0.930 . S
H481 C490 0.930 . S
H482 C495 0.929 . S
H483 C493 0.929 . S
H484 C488 0.929 . S
H485 C494 0.929 . S
C486 H480 0.930 . S
C486 C487 1.367 . S
C486 C494 1.378 . S
C487 C486 1.367 . S
C487 C495 1.433 . S
C488 H484 0.929 . S
C488 C490 1.378 . S
C488 C492 1.350 . S
C489 C492 1.463 . S
C489 C494 1.350 . S
C489 N497 1.427 . S
C490 H481 0.930 . S
C490 C488 1.378 . S
C490 C491 1.367 . S
C491 C490 1.367 . S
C491 C493 1.433 . S
C492 C488 1.350 . S
C492 C489 1.463 . S
C492 N496 1.427 . S
C493 H483 0.929 . S
C493 C491 1.433 . S
C493 N496 1.384 . S
C494 H485 0.929 . S
C494 C486 1.378 . S
C494 C489 1.350 . S
C495 H482 0.929 . S
C495 C487 1.433 . S
C495 N497 1.384 . S
N496 C492 1.427 . S
N496 C493 1.384 . S
N497 C489 1.427 . S
N497 C495 1.384 . S
H498 C504 0.930 . S
H499 C508 0.930 . S
H500 C513 0.929 . S
H501 C511 0.929 . S
H502 C506 0.929 . S
H503 C512 0.929 . S
C504 H498 0.930 . S
C504 C505 1.367 . S
C504 C512 1.378 . S
C505 C504 1.367 . S
C505 C513 1.433 . S
C506 H502 0.929 . S
C506 C508 1.378 . S
C506 C510 1.350 . S
C507 C510 1.463 . S
C507 C512 1.350 . S
C507 N515 1.427 . S
C508 H499 0.930 . S
C508 C506 1.378 . S
C508 C509 1.367 . S
C509 C508 1.367 . S
C509 C511 1.433 . S
C510 C506 1.350 . S
C510 C507 1.463 . S
C510 N514 1.427 . S
C511 H501 0.929 . S
C511 C509 1.433 . S
C511 N514 1.384 . S
C512 H503 0.929 . S
C512 C504 1.378 . S
C512 C507 1.350 . S
C513 H500 0.929 . S
C513 C505 1.433 . S
C513 N515 1.384 . S
N514 C510 1.427 . S
N514 C511 1.384 . S
N515 C507 1.427 . S
N515 C513 1.384 . S
H516 C522 0.930 . S
H517 C526 0.930 . S
H518 C531 0.929 . S
H519 C529 0.929 . S
H520 C524 0.929 . S
H521 C530 0.929 . S
C522 H516 0.930 . S
C522 C523 1.367 . S
C522 C530 1.378 . S
C523 C522 1.367 . S
C523 C531 1.433 . S
C524 H520 0.929 . S
C524 C526 1.378 . S
C524 C528 1.350 . S
C525 C528 1.463 . S
C525 C530 1.350 . S
C525 N533 1.427 . S
C526 H517 0.930 . S
C526 C524 1.378 . S
C526 C527 1.367 . S
C527 C526 1.367 . S
C527 C529 1.433 . S
C528 C524 1.350 . S
C528 C525 1.463 . S
C528 N532 1.427 . S
C529 H519 0.929 . S
C529 C527 1.433 . S
C529 N532 1.384 . S
C530 H521 0.929 . S
C530 C522 1.378 . S
C530 C525 1.350 . S
C531 H518 0.929 . S
C531 C523 1.433 . S
C531 N533 1.384 . S
N532 C528 1.427 . S
N532 C529 1.384 . S
N533 C525 1.427 . S
N533 C531 1.384 . S
H534 C540 0.930 . S
H535 C544 0.930 . S
H536 C549 0.929 . S
H537 C547 0.929 . S
H538 C542 0.929 . S
H539 C548 0.929 . S
C540 H534 0.930 . S
C540 C541 1.367 . S
C540 C548 1.378 . S
C541 C540 1.367 . S
C541 C549 1.433 . S
C542 H538 0.929 . S
C542 C544 1.378 . S
C542 C546 1.350 . S
C543 C546 1.463 . S
C543 C548 1.350 . S
C543 N551 1.427 . S
C544 H535 0.930 . S
C544 C542 1.378 . S
C544 C545 1.367 . S
C545 C544 1.367 . S
C545 C547 1.433 . S
C546 C542 1.350 . S
C546 C543 1.463 . S
C546 N550 1.427 . S
C547 H537 0.929 . S
C547 C545 1.433 . S
C547 N550 1.384 . S
C548 H539 0.929 . S
C548 C540 1.378 . S
C548 C543 1.350 . S
C549 H536 0.929 . S
C549 C541 1.433 . S
C549 N551 1.384 . S
N550 C546 1.427 . S
N550 C547 1.384 . S
N551 C543 1.427 . S
N551 C549 1.384 . S
H552 C558 0.930 . S
H553 C562 0.930 . S
H554 C567 0.929 . S
H555 C565 0.929 . S
H556 C560 0.929 . S
H557 C566 0.929 . S
C558 H552 0.930 . S
C558 C559 1.367 . S
C558 C566 1.378 . S
C559 C558 1.367 . S
C559 C567 1.433 . S
C560 H556 0.929 . S
C560 C562 1.378 . S
C560 C564 1.350 . S
C561 C564 1.463 . S
C561 C566 1.350 . S
C561 N569 1.427 . S
C562 H553 0.930 . S
C562 C560 1.378 . S
C562 C563 1.367 . S
C563 C562 1.367 . S
C563 C565 1.433 . S
C564 C560 1.350 . S
C564 C561 1.463 . S
C564 N568 1.427 . S
C565 H555 0.929 . S
C565 C563 1.433 . S
C565 N568 1.384 . S
C566 H557 0.929 . S
C566 C558 1.378 . S
C566 C561 1.350 . S
C567 H554 0.929 . S
C567 C559 1.433 . S
C567 N569 1.384 . S
N568 C564 1.427 . S
N568 C565 1.384 . S
N569 C561 1.427 . S
N569 C567 1.384 . S
H570 C576 0.930 . S
H571 C580 0.930 . S
H572 C585 0.929 . S
H573 C583 0.929 . S
H574 C578 0.929 . S
H575 C584 0.929 . S
C576 H570 0.930 . S
C576 C577 1.367 . S
C576 C584 1.378 . S
C577 C576 1.367 . S
C577 C585 1.433 . S
C578 H574 0.929 . S
C578 C580 1.378 . S
C578 C582 1.350 . S
C579 C582 1.463 . S
C579 C584 1.350 . S
C579 N587 1.427 . S
C580 H571 0.930 . S
C580 C578 1.378 . S
C580 C581 1.367 . S
C581 C580 1.367 . S
C581 C583 1.433 . S
C582 C578 1.350 . S
C582 C579 1.463 . S
C582 N586 1.427 . S
C583 H573 0.929 . S
C583 C581 1.433 . S
C583 N586 1.384 . S
C584 H575 0.929 . S
C584 C576 1.378 . S
C584 C579 1.350 . S
C585 H572 0.929 . S
C585 C577 1.433 . S
C585 N587 1.384 . S
N586 C582 1.427 . S
N586 C583 1.384 . S
N587 C579 1.427 . S
N587 C585 1.384 . S
H588 C594 0.930 . S
H589 C598 0.930 . S
H590 C603 0.929 . S
H591 C601 0.929 . S
H592 C596 0.929 . S
H593 C602 0.929 . S
C594 H588 0.930 . S
C594 C595 1.367 . S
C594 C602 1.378 . S
C595 C594 1.367 . S
C595 C603 1.433 . S
C596 H592 0.929 . S
C596 C598 1.378 . S
C596 C600 1.350 . S
C597 C600 1.463 . S
C597 C602 1.350 . S
C597 N605 1.427 . S
C598 H589 0.930 . S
C598 C596 1.378 . S
C598 C599 1.367 . S
C599 C598 1.367 . S
C599 C601 1.433 . S
C600 C596 1.350 . S
C600 C597 1.463 . S
C600 N604 1.427 . S
C601 H591 0.929 . S
C601 C599 1.433 . S
C601 N604 1.384 . S
C602 H593 0.929 . S
C602 C594 1.378 . S
C602 C597 1.350 . S
C603 H590 0.929 . S
C603 C595 1.433 . S
C603 N605 1.384 . S
N604 C600 1.427 . S
N604 C601 1.384 . S
N605 C597 1.427 . S
N605 C603 1.384 . S
H606 C612 0.930 . S
H607 C616 0.930 . S
H608 C621 0.929 . S
H609 C619 0.929 . S
H610 C614 0.929 . S
H611 C620 0.929 . S
C612 H606 0.930 . S
C612 C613 1.367 . S
C612 C620 1.378 . S
C613 C612 1.367 . S
C613 C621 1.433 . S
C614 H610 0.929 . S
C614 C616 1.378 . S
C614 C618 1.350 . S
C615 C618 1.463 . S
C615 C620 1.350 . S
C615 N623 1.427 . S
C616 H607 0.930 . S
C616 C614 1.378 . S
C616 C617 1.367 . S
C617 C616 1.367 . S
C617 C619 1.433 . S
C618 C614 1.350 . S
C618 C615 1.463 . S
C618 N622 1.427 . S
C619 H609 0.929 . S
C619 C617 1.433 . S
C619 N622 1.384 . S
C620 H611 0.929 . S
C620 C612 1.378 . S
C620 C615 1.350 . S
C621 H608 0.929 . S
C621 C613 1.433 . S
C621 N623 1.384 . S
N622 C618 1.427 . S
N622 C619 1.384 . S
N623 C615 1.427 . S
N623 C621 1.384 . S
H624 C630 0.930 . S
H625 C634 0.930 . S
H626 C639 0.929 . S
H627 C637 0.929 . S
H628 C632 0.929 . S
H629 C638 0.929 . S
C630 H624 0.930 . S
C630 C631 1.367 . S
C630 C638 1.378 . S
C631 C630 1.367 . S
C631 C639 1.433 . S
C632 H628 0.929 . S
C632 C634 1.378 . S
C632 C636 1.350 . S
C633 C636 1.463 . S
C633 C638 1.350 . S
C633 N641 1.427 . S
C634 H625 0.930 . S
C634 C632 1.378 . S
C634 C635 1.367 . S
C635 C634 1.367 . S
C635 C637 1.433 . S
C636 C632 1.350 . S
C636 C633 1.463 . S
C636 N640 1.427 . S
C637 H627 0.929 . S
C637 C635 1.433 . S
C637 N640 1.384 . S
C638 H629 0.929 . S
C638 C630 1.378 . S
C638 C633 1.350 . S
C639 H626 0.929 . S
C639 C631 1.433 . S
C639 N641 1.384 . S
N640 C636 1.427 . S
N640 C637 1.384 . S
N641 C633 1.427 . S
N641 C639 1.384 . S
H642 C648 0.930 . S
H643 C652 0.930 . S
H644 C657 0.929 . S
H645 C655 0.929 . S
H646 C650 0.929 . S
H647 C656 0.929 . S
C648 H642 0.930 . S
C648 C649 1.367 . S
C648 C656 1.378 . S
C649 C648 1.367 . S
C649 C657 1.433 . S
C650 H646 0.929 . S
C650 C652 1.378 . S
C650 C654 1.350 . S
C651 C654 1.463 . S
C651 C656 1.350 . S
C651 N659 1.427 . S
C652 H643 0.930 . S
C652 C650 1.378 . S
C652 C653 1.367 . S
C653 C652 1.367 . S
C653 C655 1.433 . S
C654 C650 1.350 . S
C654 C651 1.463 . S
C654 N658 1.427 . S
C655 H645 0.929 . S
C655 C653 1.433 . S
C655 N658 1.384 . S
C656 H647 0.929 . S
C656 C648 1.378 . S
C656 C651 1.350 . S
C657 H644 0.929 . S
C657 C649 1.433 . S
C657 N659 1.384 . S
N658 C654 1.427 . S
N658 C655 1.384 . S
N659 C651 1.427 . S
N659 C657 1.384 . S
H660 C666 0.930 . S
H661 C670 0.930 . S
H662 C675 0.929 . S
H663 C673 0.929 . S
H664 C668 0.929 . S
H665 C674 0.929 . S
C666 H660 0.930 . S
C666 C667 1.367 . S
C666 C674 1.378 . S
C667 C666 1.367 . S
C667 C675 1.433 . S
C668 H664 0.929 . S
C668 C670 1.378 . S
C668 C672 1.350 . S
C669 C672 1.463 . S
C669 C674 1.350 . S
C669 N677 1.427 . S
C670 H661 0.930 . S
C670 C668 1.378 . S
C670 C671 1.367 . S
C671 C670 1.367 . S
C671 C673 1.433 . S
C672 C668 1.350 . S
C672 C669 1.463 . S
C672 N676 1.427 . S
C673 H663 0.929 . S
C673 C671 1.433 . S
C673 N676 1.384 . S
C674 H665 0.929 . S
C674 C666 1.378 . S
C674 C669 1.350 . S
C675 H662 0.929 . S
C675 C667 1.433 . S
C675 N677 1.384 . S
N676 C672 1.427 . S
N676 C673 1.384 . S
N677 C669 1.427 . S
N677 C675 1.384 . S
H678 C684 0.930 . S
H679 C688 0.930 . S
H680 C693 0.929 . S
H681 C691 0.929 . S
H682 C686 0.929 . S
H683 C692 0.929 . S
C684 H678 0.930 . S
C684 C685 1.367 . S
C684 C692 1.378 . S
C685 C684 1.367 . S
C685 C693 1.433 . S
C686 H682 0.929 . S
C686 C688 1.378 . S
C686 C690 1.350 . S
C687 C690 1.463 . S
C687 C692 1.350 . S
C687 N695 1.427 . S
C688 H679 0.930 . S
C688 C686 1.378 . S
C688 C689 1.367 . S
C689 C688 1.367 . S
C689 C691 1.433 . S
C690 C686 1.350 . S
C690 C687 1.463 . S
C690 N694 1.427 . S
C691 H681 0.929 . S
C691 C689 1.433 . S
C691 N694 1.384 . S
C692 H683 0.929 . S
C692 C684 1.378 . S
C692 C687 1.350 . S
C693 H680 0.929 . S
C693 C685 1.433 . S
C693 N695 1.384 . S
N694 C690 1.427 . S
N694 C691 1.384 . S
N695 C687 1.427 . S
N695 C693 1.384 . S
H696 C702 0.930 . S
H697 C706 0.930 . S
H698 C711 0.929 . S
H699 C709 0.929 . S
H700 C704 0.929 . S
H701 C710 0.929 . S
C702 H696 0.930 . S
C702 C703 1.367 . S
C702 C710 1.378 . S
C703 C702 1.367 . S
C703 C711 1.433 . S
C704 H700 0.929 . S
C704 C706 1.378 . S
C704 C708 1.350 . S
C705 C708 1.463 . S
C705 C710 1.350 . S
C705 N713 1.427 . S
C706 H697 0.930 . S
C706 C704 1.378 . S
C706 C707 1.367 . S
C707 C706 1.367 . S
C707 C709 1.433 . S
C708 C704 1.350 . S
C708 C705 1.463 . S
C708 N712 1.427 . S
C709 H699 0.929 . S
C709 C707 1.433 . S
C709 N712 1.384 . S
C710 H701 0.929 . S
C710 C702 1.378 . S
C710 C705 1.350 . S
C711 H698 0.929 . S
C711 C703 1.433 . S
C711 N713 1.384 . S
N712 C708 1.427 . S
N712 C709 1.384 . S
N713 C705 1.427 . S
N713 C711 1.384 . S
H714 C720 0.930 . S
H715 C724 0.930 . S
H716 C729 0.929 . S
H717 C727 0.929 . S
H718 C722 0.929 . S
H719 C728 0.929 . S
C720 H714 0.930 . S
C720 C721 1.367 . S
C720 C728 1.378 . S
C721 C720 1.367 . S
C721 C729 1.433 . S
C722 H718 0.929 . S
C722 C724 1.378 . S
C722 C726 1.350 . S
C723 C726 1.463 . S
C723 C728 1.350 . S
C723 N731 1.427 . S
C724 H715 0.930 . S
C724 C722 1.378 . S
C724 C725 1.367 . S
C725 C724 1.367 . S
C725 C727 1.433 . S
C726 C722 1.350 . S
C726 C723 1.463 . S
C726 N730 1.427 . S
C727 H717 0.929 . S
C727 C725 1.433 . S
C727 N730 1.384 . S
C728 H719 0.929 . S
C728 C720 1.378 . S
C728 C723 1.350 . S
C729 H716 0.929 . S
C729 C721 1.433 . S
C729 N731 1.384 . S
N730 C726 1.427 . S
N730 C727 1.384 . S
N731 C723 1.427 . S
N731 C729 1.384 . S
H732 C738 0.930 . S
H733 C742 0.930 . S
H734 C747 0.929 . S
H735 C745 0.929 . S
H736 C740 0.929 . S
H737 C746 0.929 . S
C738 H732 0.930 . S
C738 C739 1.367 . S
C738 C746 1.378 . S
C739 C738 1.367 . S
C739 C747 1.433 . S
C740 H736 0.929 . S
C740 C742 1.378 . S
C740 C744 1.350 . S
C741 C744 1.463 . S
C741 C746 1.350 . S
C741 N749 1.427 . S
C742 H733 0.930 . S
C742 C740 1.378 . S
C742 C743 1.367 . S
C743 C742 1.367 . S
C743 C745 1.433 . S
C744 C740 1.350 . S
C744 C741 1.463 . S
C744 N748 1.427 . S
C745 H735 0.929 . S
C745 C743 1.433 . S
C745 N748 1.384 . S
C746 H737 0.929 . S
C746 C738 1.378 . S
C746 C741 1.350 . S
C747 H734 0.929 . S
C747 C739 1.433 . S
C747 N749 1.384 . S
N748 C744 1.427 . S
N748 C745 1.384 . S
N749 C741 1.427 . S
N749 C747 1.384 . S
H750 C756 0.930 . S
H751 C760 0.930 . S
H752 C765 0.929 . S
H753 C763 0.929 . S
H754 C758 0.929 . S
H755 C764 0.929 . S
C756 H750 0.930 . S
C756 C757 1.367 . S
C756 C764 1.378 . S
C757 C756 1.367 . S
C757 C765 1.433 . S
C758 H754 0.929 . S
C758 C760 1.378 . S
C758 C762 1.350 . S
C759 C762 1.463 . S
C759 C764 1.350 . S
C759 N767 1.427 . S
C760 H751 0.930 . S
C760 C758 1.378 . S
C760 C761 1.367 . S
C761 C760 1.367 . S
C761 C763 1.433 . S
C762 C758 1.350 . S
C762 C759 1.463 . S
C762 N766 1.427 . S
C763 H753 0.929 . S
C763 C761 1.433 . S
C763 N766 1.384 . S
C764 H755 0.929 . S
C764 C756 1.378 . S
C764 C759 1.350 . S
C765 H752 0.929 . S
C765 C757 1.433 . S
C765 N767 1.384 . S
N766 C762 1.427 . S
N766 C763 1.384 . S
N767 C759 1.427 . S
N767 C765 1.384 . S
H768 C774 0.930 . S
H769 C778 0.930 . S
H770 C783 0.929 . S
H771 C781 0.929 . S
H772 C776 0.929 . S
H773 C782 0.929 . S
C774 H768 0.930 . S
C774 C775 1.367 . S
C774 C782 1.378 . S
C775 C774 1.367 . S
C775 C783 1.433 . S
C776 H772 0.929 . S
C776 C778 1.378 . S
C776 C780 1.350 . S
C777 C780 1.463 . S
C777 C782 1.350 . S
C777 N785 1.427 . S
C778 H769 0.930 . S
C778 C776 1.378 . S
C778 C779 1.367 . S
C779 C778 1.367 . S
C779 C781 1.433 . S
C780 C776 1.350 . S
C780 C777 1.463 . S
C780 N784 1.427 . S
C781 H771 0.929 . S
C781 C779 1.433 . S
C781 N784 1.384 . S
C782 H773 0.929 . S
C782 C774 1.378 . S
C782 C777 1.350 . S
C783 H770 0.929 . S
C783 C775 1.433 . S
C783 N785 1.384 . S
N784 C780 1.427 . S
N784 C781 1.384 . S
N785 C777 1.427 . S
N785 C783 1.384 . S
H786 C792 0.930 . S
H787 C796 0.930 . S
H788 C801 0.929 . S
H789 C799 0.929 . S
H790 C794 0.929 . S
H791 C800 0.929 . S
C792 H786 0.930 . S
C792 C793 1.367 . S
C792 C800 1.378 . S
C793 C792 1.367 . S
C793 C801 1.433 . S
C794 H790 0.929 . S
C794 C796 1.378 . S
C794 C798 1.350 . S
C795 C798 1.463 . S
C795 C800 1.350 . S
C795 N803 1.427 . S
C796 H787 0.930 . S
C796 C794 1.378 . S
C796 C797 1.367 . S
C797 C796 1.367 . S
C797 C799 1.433 . S
C798 C794 1.350 . S
C798 C795 1.463 . S
C798 N802 1.427 . S
C799 H789 0.929 . S
C799 C797 1.433 . S
C799 N802 1.384 . S
C800 H791 0.929 . S
C800 C792 1.378 . S
C800 C795 1.350 . S
C801 H788 0.929 . S
C801 C793 1.433 . S
C801 N803 1.384 . S
N802 C798 1.427 . S
N802 C799 1.384 . S
N803 C795 1.427 . S
N803 C801 1.384 . S
H804 C810 0.930 . S
H805 C814 0.930 . S
H806 C819 0.929 . S
H807 C817 0.929 . S
H808 C812 0.929 . S
H809 C818 0.929 . S
C810 H804 0.930 . S
C810 C811 1.367 . S
C810 C818 1.378 . S
C811 C810 1.367 . S
C811 C819 1.433 . S
C812 H808 0.929 . S
C812 C814 1.378 . S
C812 C816 1.350 . S
C813 C816 1.463 1_565 S
C813 C818 1.350 . S
C813 N821 1.427 . S
C814 H805 0.930 . S
C814 C812 1.378 . S
C814 C815 1.367 . S
C815 C814 1.367 . S
C815 C817 1.433 . S
C816 C812 1.350 . S
C816 C813 1.463 1_545 S
C816 N820 1.427 . S
C817 H807 0.929 . S
C817 C815 1.433 . S
C817 N820 1.384 . S
C818 H809 0.929 . S
C818 C810 1.378 . S
C818 C813 1.350 . S
C819 H806 0.929 . S
C819 C811 1.433 . S
C819 N821 1.384 . S
N820 C816 1.427 . S
N820 C817 1.384 . S
N821 C813 1.427 . S
N821 C819 1.384 . S
H822 C828 0.930 . S
H823 C832 0.930 . S
H824 C837 0.929 . S
H825 C835 0.929 . S
H826 C830 0.929 . S
H827 C836 0.929 . S
C828 H822 0.930 . S
C828 C829 1.367 . S
C828 C836 1.378 . S
C829 C828 1.367 . S
C829 C837 1.433 . S
C830 H826 0.929 . S
C830 C832 1.378 . S
C830 C834 1.350 . S
C831 C834 1.463 1_455 S
C831 C836 1.350 . S
C831 N839 1.427 . S
C832 H823 0.930 . S
C832 C830 1.378 . S
C832 C833 1.367 . S
C833 C832 1.367 . S
C833 C835 1.433 . S
C834 C830 1.350 . S
C834 C831 1.463 1_655 S
C834 N838 1.427 . S
C835 H825 0.929 . S
C835 C833 1.433 . S
C835 N838 1.384 . S
C836 H827 0.929 . S
C836 C828 1.378 . S
C836 C831 1.350 . S
C837 H824 0.929 . S
C837 C829 1.433 . S
C837 N839 1.384 . S
N838 C834 1.427 . S
N838 C835 1.384 . S
N839 C831 1.427 . S
N839 C837 1.384 . S
H840 C846 0.930 . S
H841 C850 0.930 . S
H842 C855 0.929 . S
H843 C853 0.929 . S
H844 C848 0.929 . S
H845 C854 0.929 . S
C846 H840 0.930 . S
C846 C847 1.367 . S
C846 C854 1.378 . S
C847 C846 1.367 . S
C847 C855 1.433 . S
C848 H844 0.929 . S
C848 C850 1.378 . S
C848 C852 1.350 . S
C849 C852 1.463 1_565 S
C849 C854 1.350 . S
C849 N857 1.427 . S
C850 H841 0.930 . S
C850 C848 1.378 . S
C850 C851 1.367 . S
C851 C850 1.367 . S
C851 C853 1.433 . S
C852 C848 1.350 . S
C852 C849 1.463 1_545 S
C852 N856 1.427 . S
C853 H843 0.929 . S
C853 C851 1.433 . S
C853 N856 1.384 . S
C854 H845 0.929 . S
C854 C846 1.378 . S
C854 C849 1.350 . S
C855 H842 0.929 . S
C855 C847 1.433 . S
C855 N857 1.384 . S
N856 C852 1.427 . S
N856 C853 1.384 . S
N857 C849 1.427 . S
N857 C855 1.384 . S
H858 C864 0.930 . S
H859 C868 0.930 . S
H860 C873 0.929 . S
H861 C871 0.929 . S
H862 C866 0.929 . S
H863 C872 0.929 . S
C864 H858 0.930 . S
C864 C865 1.367 . S
C864 C872 1.378 . S
C865 C864 1.367 . S
C865 C873 1.433 . S
C866 H862 0.929 . S
C866 C868 1.378 . S
C866 C870 1.350 . S
C867 C870 1.463 1_655 S
C867 C872 1.350 . S
C867 N875 1.427 . S
C868 H859 0.930 . S
C868 C866 1.378 . S
C868 C869 1.367 . S
C869 C868 1.367 . S
C869 C871 1.433 . S
C870 C866 1.350 . S
C870 C867 1.463 1_455 S
C870 N874 1.427 . S
C871 H861 0.929 . S
C871 C869 1.433 . S
C871 N874 1.384 . S
C872 H863 0.929 . S
C872 C864 1.378 . S
C872 C867 1.350 . S
C873 H860 0.929 . S
C873 C865 1.433 . S
C873 N875 1.384 . S
N874 C870 1.427 . S
N874 C871 1.384 . S
N875 C867 1.427 . S
N875 C873 1.384 . S
H876 C882 0.930 . S
H877 C886 0.930 . S
H878 C891 0.929 . S
H879 C889 0.929 . S
H880 C884 0.929 . S
H881 C890 0.929 . S
C882 H876 0.930 . S
C882 C883 1.367 . S
C882 C890 1.378 . S
C883 C882 1.367 . S
C883 C891 1.433 . S
C884 H880 0.929 . S
C884 C886 1.378 . S
C884 C888 1.350 . S
C885 C888 1.463 . S
C885 C890 1.350 . S
C885 N893 1.427 . S
C886 H877 0.930 . S
C886 C884 1.378 . S
C886 C887 1.367 . S
C887 C886 1.367 . S
C887 C889 1.433 . S
C888 C884 1.350 . S
C888 C885 1.463 . S
C888 N892 1.427 . S
C889 H879 0.929 . S
C889 C887 1.433 . S
C889 N892 1.384 . S
C890 H881 0.929 . S
C890 C882 1.378 . S
C890 C885 1.350 . S
C891 H878 0.929 . S
C891 C883 1.433 . S
C891 N893 1.384 . S
N892 C888 1.427 . S
N892 C889 1.384 . S
N893 C885 1.427 . S
N893 C891 1.384 . S
H894 C900 0.930 . S
H895 C904 0.930 . S
H896 C909 0.929 . S
H897 C907 0.929 . S
H898 C902 0.929 . S
H899 C908 0.929 . S
C900 H894 0.930 . S
C900 C901 1.367 . S
C900 C908 1.378 . S
C901 C900 1.367 . S
C901 C909 1.433 . S
C902 H898 0.929 . S
C902 C904 1.378 . S
C902 C906 1.350 . S
C903 C906 1.463 . S
C903 C908 1.350 . S
C903 N911 1.427 . S
C904 H895 0.930 . S
C904 C902 1.378 . S
C904 C905 1.367 . S
C905 C904 1.367 . S
C905 C907 1.433 . S
C906 C902 1.350 . S
C906 C903 1.463 . S
C906 N910 1.427 . S
C907 H897 0.929 . S
C907 C905 1.433 . S
C907 N910 1.384 . S
C908 H899 0.929 . S
C908 C900 1.378 . S
C908 C903 1.350 . S
C909 H896 0.929 . S
C909 C901 1.433 . S
C909 N911 1.384 . S
N910 C906 1.427 . S
N910 C907 1.384 . S
N911 C903 1.427 . S
N911 C909 1.384 . S
H912 C918 0.930 . S
H913 C922 0.930 . S
H914 C927 0.929 . S
H915 C925 0.929 . S
H916 C920 0.929 . S
H917 C926 0.929 . S
C918 H912 0.930 . S
C918 C919 1.367 . S
C918 C926 1.378 . S
C919 C918 1.367 . S
C919 C927 1.433 . S
C920 H916 0.929 . S
C920 C922 1.378 . S
C920 C924 1.350 . S
C921 C924 1.463 . S
C921 C926 1.350 . S
C921 N929 1.427 . S
C922 H913 0.930 . S
C922 C920 1.378 . S
C922 C923 1.367 . S
C923 C922 1.367 . S
C923 C925 1.433 . S
C924 C920 1.350 . S
C924 C921 1.463 . S
C924 N928 1.427 . S
C925 H915 0.929 . S
C925 C923 1.433 . S
C925 N928 1.384 . S
C926 H917 0.929 . S
C926 C918 1.378 . S
C926 C921 1.350 . S
C927 H914 0.929 . S
C927 C919 1.433 . S
C927 N929 1.384 . S
N928 C924 1.427 . S
N928 C925 1.384 . S
N929 C921 1.427 . S
N929 C927 1.384 . S
H930 C936 0.930 . S
H931 C940 0.930 . S
H932 C945 0.929 . S
H933 C943 0.929 . S
H934 C938 0.929 . S
H935 C944 0.929 . S
C936 H930 0.930 . S
C936 C937 1.367 . S
C936 C944 1.378 . S
C937 C936 1.367 . S
C937 C945 1.433 . S
C938 H934 0.929 . S
C938 C940 1.378 . S
C938 C942 1.350 . S
C939 C942 1.463 1_554 S
C939 C944 1.350 . S
C939 N947 1.427 . S
C940 H931 0.930 . S
C940 C938 1.378 . S
C940 C941 1.367 . S
C941 C940 1.367 . S
C941 C943 1.433 . S
C942 C938 1.350 . S
C942 C939 1.463 1_556 S
C942 N946 1.427 . S
C943 H933 0.929 . S
C943 C941 1.433 . S
C943 N946 1.384 . S
C944 H935 0.929 . S
C944 C936 1.378 . S
C944 C939 1.350 . S
C945 H932 0.929 . S
C945 C937 1.433 . S
C945 N947 1.384 . S
N946 C942 1.427 . S
N946 C943 1.384 . S
N947 C939 1.427 . S
N947 C945 1.384 . S
H948 C954 0.930 . S
H949 C958 0.930 . S
H950 C963 0.929 . S
H951 C961 0.929 . S
H952 C956 0.929 . S
H953 C962 0.929 . S
C954 H948 0.930 . S
C954 C955 1.367 . S
C954 C962 1.378 . S
C955 C954 1.367 . S
C955 C963 1.433 . S
C956 H952 0.929 . S
C956 C958 1.378 . S
C956 C960 1.350 . S
C957 C960 1.463 . S
C957 C962 1.350 . S
C957 N965 1.427 . S
C958 H949 0.930 . S
C958 C956 1.378 . S
C958 C959 1.367 . S
C959 C958 1.367 . S
C959 C961 1.433 . S
C960 C956 1.350 . S
C960 C957 1.463 . S
C960 N964 1.427 . S
C961 H951 0.929 . S
C961 C959 1.433 . S
C961 N964 1.384 . S
C962 H953 0.929 . S
C962 C954 1.378 . S
C962 C957 1.350 . S
C963 H950 0.929 . S
C963 C955 1.433 . S
C963 N965 1.384 . S
N964 C960 1.427 . S
N964 C961 1.384 . S
N965 C957 1.427 . S
N965 C963 1.384 . S
H966 C972 0.930 . S
H967 C976 0.930 . S
H968 C981 0.929 . S
H969 C979 0.929 . S
H970 C974 0.929 . S
H971 C980 0.929 . S
C972 H966 0.930 . S
C972 C973 1.367 . S
C972 C980 1.378 . S
C973 C972 1.367 . S
C973 C981 1.433 . S
C974 H970 0.929 . S
C974 C976 1.378 . S
C974 C978 1.350 . S
C975 C978 1.463 1_556 S
C975 C980 1.350 . S
C975 N983 1.427 . S
C976 H967 0.930 . S
C976 C974 1.378 . S
C976 C977 1.367 . S
C977 C976 1.367 . S
C977 C979 1.433 . S
C978 C974 1.350 . S
C978 C975 1.463 1_554 S
C978 N982 1.427 . S
C979 H969 0.929 . S
C979 C977 1.433 . S
C979 N982 1.384 . S
C980 H971 0.929 . S
C980 C972 1.378 . S
C980 C975 1.350 . S
C981 H968 0.929 . S
C981 C973 1.433 . S
C981 N983 1.384 . S
N982 C978 1.427 . S
N982 C979 1.384 . S
N983 C975 1.427 . S
N983 C981 1.384 . S
H984 C990 0.930 . S
H985 C994 0.930 . S
H986 C999 0.929 . S
H987 C997 0.929 . S
H988 C992 0.929 . S
H989 C998 0.929 . S
C990 H984 0.930 . S
C990 C991 1.367 . S
C990 C998 1.378 . S
C991 C990 1.367 . S
C991 C999 1.433 . S
C992 H988 0.929 . S
C992 C994 1.378 . S
C992 C996 1.350 . S
C993 C996 1.463 . S
C993 C998 1.350 . S
C993 N1001 1.427 . S
C994 H985 0.930 . S
C994 C992 1.378 . S
C994 C995 1.367 . S
C995 C994 1.367 . S
C995 C997 1.433 . S
C996 C992 1.350 . S
C996 C993 1.463 . S
C996 N1000 1.427 . S
C997 H987 0.929 . S
C997 C995 1.433 . S
C997 N1000 1.384 . S
C998 H989 0.929 . S
C998 C990 1.378 . S
C998 C993 1.350 . S
C999 H986 0.929 . S
C999 C991 1.433 . S
C999 N1001 1.384 . S
N1000 C996 1.427 . S
N1000 C997 1.384 . S
N1001 C993 1.427 . S
N1001 C999 1.384 . S
H1002 C1008 0.930 . S
H1003 C1012 0.930 . S
H1004 C1017 0.929 . S
H1005 C1015 0.929 . S
H1006 C1010 0.929 . S
H1007 C1016 0.929 . S
C1008 H1002 0.930 . S
C1008 C1009 1.367 . S
C1008 C1016 1.378 . S
C1009 C1008 1.367 . S
C1009 C1017 1.433 . S
C1010 H1006 0.929 . S
C1010 C1012 1.378 . S
C1010 C1014 1.350 . S
C1011 C1014 1.463 . S
C1011 C1016 1.350 . S
C1011 N1019 1.427 . S
C1012 H1003 0.930 . S
C1012 C1010 1.378 . S
C1012 C1013 1.367 . S
C1013 C1012 1.367 . S
C1013 C1015 1.433 . S
C1014 C1010 1.350 . S
C1014 C1011 1.463 . S
C1014 N1018 1.427 . S
C1015 H1005 0.929 . S
C1015 C1013 1.433 . S
C1015 N1018 1.384 . S
C1016 H1007 0.929 . S
C1016 C1008 1.378 . S
C1016 C1011 1.350 . S
C1017 H1004 0.929 . S
C1017 C1009 1.433 . S
C1017 N1019 1.384 . S
N1018 C1014 1.427 . S
N1018 C1015 1.384 . S
N1019 C1011 1.427 . S
N1019 C1017 1.384 . S
H1020 C1026 0.930 . S
H1021 C1030 0.930 . S
H1022 C1035 0.929 . S
H1023 C1033 0.929 . S
H1024 C1028 0.929 . S
H1025 C1034 0.929 . S
C1026 H1020 0.930 . S
C1026 C1027 1.367 . S
C1026 C1034 1.378 . S
C1027 C1026 1.367 . S
C1027 C1035 1.433 . S
C1028 H1024 0.929 . S
C1028 C1030 1.378 . S
C1028 C1032 1.350 . S
C1029 C1032 1.463 1_545 S
C1029 C1034 1.350 . S
C1029 N1037 1.427 . S
C1030 H1021 0.930 . S
C1030 C1028 1.378 . S
C1030 C1031 1.367 . S
C1031 C1030 1.367 . S
C1031 C1033 1.433 . S
C1032 C1028 1.350 . S
C1032 C1029 1.463 1_565 S
C1032 N1036 1.427 . S
C1033 H1023 0.929 . S
C1033 C1031 1.433 . S
C1033 N1036 1.384 . S
C1034 H1025 0.929 . S
C1034 C1026 1.378 . S
C1034 C1029 1.350 . S
C1035 H1022 0.929 . S
C1035 C1027 1.433 . S
C1035 N1037 1.384 . S
N1036 C1032 1.427 . S
N1036 C1033 1.384 . S
N1037 C1029 1.427 . S
N1037 C1035 1.384 . S
H1038 C1044 0.930 . S
H1039 C1048 0.930 . S
H1040 C1053 0.929 . S
H1041 C1051 0.929 . S
H1042 C1046 0.929 . S
H1043 C1052 0.929 . S
C1044 H1038 0.930 . S
C1044 C1045 1.367 . S
C1044 C1052 1.378 . S
C1045 C1044 1.367 . S
C1045 C1053 1.433 . S
C1046 H1042 0.929 . S
C1046 C1048 1.378 . S
C1046 C1050 1.350 . S
C1047 C1050 1.463 1_455 S
C1047 C1052 1.350 . S
C1047 N1055 1.427 . S
C1048 H1039 0.930 . S
C1048 C1046 1.378 . S
C1048 C1049 1.367 . S
C1049 C1048 1.367 . S
C1049 C1051 1.433 . S
C1050 C1046 1.350 . S
C1050 C1047 1.463 1_655 S
C1050 N1054 1.427 . S
C1051 H1041 0.929 . S
C1051 C1049 1.433 . S
C1051 N1054 1.384 . S
C1052 H1043 0.929 . S
C1052 C1044 1.378 . S
C1052 C1047 1.350 . S
C1053 H1040 0.929 . S
C1053 C1045 1.433 . S
C1053 N1055 1.384 . S
N1054 C1050 1.427 . S
N1054 C1051 1.384 . S
N1055 C1047 1.427 . S
N1055 C1053 1.384 . S
H1056 C1062 0.930 . S
H1057 C1066 0.930 . S
H1058 C1071 0.929 . S
H1059 C1069 0.929 . S
H1060 C1064 0.929 . S
H1061 C1070 0.929 . S
C1062 H1056 0.930 . S
C1062 C1063 1.367 . S
C1062 C1070 1.378 . S
C1063 C1062 1.367 . S
C1063 C1071 1.433 . S
C1064 H1060 0.929 . S
C1064 C1066 1.378 . S
C1064 C1068 1.350 . S
C1065 C1068 1.463 1_545 S
C1065 C1070 1.350 . S
C1065 N1073 1.427 . S
C1066 H1057 0.930 . S
C1066 C1064 1.378 . S
C1066 C1067 1.367 . S
C1067 C1066 1.367 . S
C1067 C1069 1.433 . S
C1068 C1064 1.350 . S
C1068 C1065 1.463 1_565 S
C1068 N1072 1.427 . S
C1069 H1059 0.929 . S
C1069 C1067 1.433 . S
C1069 N1072 1.384 . S
C1070 H1061 0.929 . S
C1070 C1062 1.378 . S
C1070 C1065 1.350 . S
C1071 H1058 0.929 . S
C1071 C1063 1.433 . S
C1071 N1073 1.384 . S
N1072 C1068 1.427 . S
N1072 C1069 1.384 . S
N1073 C1065 1.427 . S
N1073 C1071 1.384 . S
H1074 C1080 0.930 . S
H1075 C1084 0.930 . S
H1076 C1089 0.929 . S
H1077 C1087 0.929 . S
H1078 C1082 0.929 . S
H1079 C1088 0.929 . S
C1080 H1074 0.930 . S
C1080 C1081 1.367 . S
C1080 C1088 1.378 . S
C1081 C1080 1.367 . S
C1081 C1089 1.433 . S
C1082 H1078 0.929 . S
C1082 C1084 1.378 . S
C1082 C1086 1.350 . S
C1083 C1086 1.463 1_455 S
C1083 C1088 1.350 . S
C1083 N1091 1.427 . S
C1084 H1075 0.930 . S
C1084 C1082 1.378 . S
C1084 C1085 1.367 . S
C1085 C1084 1.367 . S
C1085 C1087 1.433 . S
C1086 C1082 1.350 . S
C1086 C1083 1.463 1_655 S
C1086 N1090 1.427 . S
C1087 H1077 0.929 . S
C1087 C1085 1.433 . S
C1087 N1090 1.384 . S
C1088 H1079 0.929 . S
C1088 C1080 1.378 . S
C1088 C1083 1.350 . S
C1089 H1076 0.929 . S
C1089 C1081 1.433 . S
C1089 N1091 1.384 . S
N1090 C1086 1.427 . S
N1090 C1087 1.384 . S
N1091 C1083 1.427 . S
N1091 C1089 1.384 . S
H1092 C1098 0.930 . S
H1093 C1102 0.930 . S
H1094 C1107 0.929 . S
H1095 C1105 0.929 . S
H1096 C1100 0.929 . S
H1097 C1106 0.929 . S
C1098 H1092 0.930 . S
C1098 C1099 1.367 . S
C1098 C1106 1.378 . S
C1099 C1098 1.367 . S
C1099 C1107 1.433 . S
C1100 H1096 0.929 . S
C1100 C1102 1.378 . S
C1100 C1104 1.350 . S
C1101 C1104 1.463 . S
C1101 C1106 1.350 . S
C1101 N1109 1.427 . S
C1102 H1093 0.930 . S
C1102 C1100 1.378 . S
C1102 C1103 1.367 . S
C1103 C1102 1.367 . S
C1103 C1105 1.433 . S
C1104 C1100 1.350 . S
C1104 C1101 1.463 . S
C1104 N1108 1.427 . S
C1105 H1095 0.929 . S
C1105 C1103 1.433 . S
C1105 N1108 1.384 . S
C1106 H1097 0.929 . S
C1106 C1098 1.378 . S
C1106 C1101 1.350 . S
C1107 H1094 0.929 . S
C1107 C1099 1.433 . S
C1107 N1109 1.384 . S
N1108 C1104 1.427 . S
N1108 C1105 1.384 . S
N1109 C1101 1.427 . S
N1109 C1107 1.384 . S
H1110 C1116 0.930 . S
H1111 C1120 0.930 . S
H1112 C1125 0.929 . S
H1113 C1123 0.929 . S
H1114 C1118 0.929 . S
H1115 C1124 0.929 . S
C1116 H1110 0.930 . S
C1116 C1117 1.367 . S
C1116 C1124 1.378 . S
C1117 C1116 1.367 . S
C1117 C1125 1.433 . S
C1118 H1114 0.929 . S
C1118 C1120 1.378 . S
C1118 C1122 1.350 . S
C1119 C1122 1.463 . S
C1119 C1124 1.350 . S
C1119 N1127 1.427 . S
C1120 H1111 0.930 . S
C1120 C1118 1.378 . S
C1120 C1121 1.367 . S
C1121 C1120 1.367 . S
C1121 C1123 1.433 . S
C1122 C1118 1.350 . S
C1122 C1119 1.463 . S
C1122 N1126 1.427 . S
C1123 H1113 0.929 . S
C1123 C1121 1.433 . S
C1123 N1126 1.384 . S
C1124 H1115 0.929 . S
C1124 C1116 1.378 . S
C1124 C1119 1.350 . S
C1125 H1112 0.929 . S
C1125 C1117 1.433 . S
C1125 N1127 1.384 . S
N1126 C1122 1.427 . S
N1126 C1123 1.384 . S
N1127 C1119 1.427 . S
N1127 C1125 1.384 . S
H1128 C1134 0.930 . S
H1129 C1138 0.930 . S
H1130 C1143 0.929 . S
H1131 C1141 0.929 . S
H1132 C1136 0.929 . S
H1133 C1142 0.929 . S
C1134 H1128 0.930 . S
C1134 C1135 1.367 . S
C1134 C1142 1.378 . S
C1135 C1134 1.367 . S
C1135 C1143 1.433 . S
C1136 H1132 0.929 . S
C1136 C1138 1.378 . S
C1136 C1140 1.350 . S
C1137 C1140 1.463 . S
C1137 C1142 1.350 . S
C1137 N1145 1.427 . S
C1138 H1129 0.930 . S
C1138 C1136 1.378 . S
C1138 C1139 1.367 . S
C1139 C1138 1.367 . S
C1139 C1141 1.433 . S
C1140 C1136 1.350 . S
C1140 C1137 1.463 . S
C1140 N1144 1.427 . S
C1141 H1131 0.929 . S
C1141 C1139 1.433 . S
C1141 N1144 1.384 . S
C1142 H1133 0.929 . S
C1142 C1134 1.378 . S
C1142 C1137 1.350 . S
C1143 H1130 0.929 . S
C1143 C1135 1.433 . S
C1143 N1145 1.384 . S
N1144 C1140 1.427 . S
N1144 C1141 1.384 . S
N1145 C1137 1.427 . S
N1145 C1143 1.384 . S
H1146 C1152 0.930 . S
H1147 C1156 0.930 . S
H1148 C1161 0.929 . S
H1149 C1159 0.929 . S
H1150 C1154 0.926 . S
H1151 C1160 0.926 . S
C1152 H1146 0.930 . S
C1152 C1153 1.367 . S
C1152 C1160 1.378 . S
C1153 C1152 1.367 . S
C1153 C1161 1.433 . S
C1154 H1150 0.926 . S
C1154 C1156 1.378 . S
C1154 C1158 1.350 . S
C1155 C1158 1.463 1_554 S
C1155 C1160 1.350 . S
C1155 N1163 1.427 . S
C1156 H1147 0.930 . S
C1156 C1154 1.378 . S
C1156 C1157 1.367 . S
C1157 C1156 1.367 . S
C1157 C1159 1.433 . S
C1158 C1154 1.350 . S
C1158 C1155 1.463 1_556 S
C1158 N1162 1.427 . S
C1159 H1149 0.929 . S
C1159 C1157 1.433 . S
C1159 N1162 1.384 . S
C1160 H1151 0.926 . S
C1160 C1152 1.378 . S
C1160 C1155 1.350 . S
C1161 H1148 0.929 . S
C1161 C1153 1.433 . S
C1161 N1163 1.384 . S
N1162 C1158 1.427 . S
N1162 C1159 1.384 . S
N1163 C1155 1.427 . S
N1163 C1161 1.384 . S
H1164 C1170 0.930 . S
H1165 C1174 0.930 . S
H1166 C1179 0.929 . S
H1167 C1177 0.929 . S
H1168 C1172 0.929 . S
H1169 C1178 0.929 . S
C1170 H1164 0.930 . S
C1170 C1171 1.367 . S
C1170 C1178 1.378 . S
C1171 C1170 1.367 . S
C1171 C1179 1.433 . S
C1172 H1168 0.929 . S
C1172 C1174 1.378 . S
C1172 C1176 1.350 . S
C1173 C1176 1.463 . S
C1173 C1178 1.350 . S
C1173 N1181 1.427 . S
C1174 H1165 0.930 . S
C1174 C1172 1.378 . S
C1174 C1175 1.367 . S
C1175 C1174 1.367 . S
C1175 C1177 1.433 . S
C1176 C1172 1.350 . S
C1176 C1173 1.463 . S
C1176 N1180 1.427 . S
C1177 H1167 0.929 . S
C1177 C1175 1.433 . S
C1177 N1180 1.384 . S
C1178 H1169 0.929 . S
C1178 C1170 1.378 . S
C1178 C1173 1.350 . S
C1179 H1166 0.929 . S
C1179 C1171 1.433 . S
C1179 N1181 1.384 . S
N1180 C1176 1.427 . S
N1180 C1177 1.384 . S
N1181 C1173 1.427 . S
N1181 C1179 1.384 . S
H1182 C1188 0.930 . S
H1183 C1192 0.930 . S
H1184 C1197 0.929 . S
H1185 C1195 0.929 . S
H1186 C1190 0.931 . S
H1187 C1196 0.931 . S
C1188 H1182 0.930 . S
C1188 C1189 1.367 . S
C1188 C1196 1.378 . S
C1189 C1188 1.367 . S
C1189 C1197 1.433 . S
C1190 H1186 0.931 . S
C1190 C1192 1.378 . S
C1190 C1194 1.350 . S
C1191 C1194 1.463 1_554 S
C1191 C1196 1.350 . S
C1191 N1199 1.427 . S
C1192 H1183 0.930 . S
C1192 C1190 1.378 . S
C1192 C1193 1.367 . S
C1193 C1192 1.367 . S
C1193 C1195 1.433 . S
C1194 C1190 1.350 . S
C1194 C1191 1.463 1_556 S
C1194 N1198 1.427 . S
C1195 H1185 0.929 . S
C1195 C1193 1.433 . S
C1195 N1198 1.384 . S
C1196 H1187 0.931 . S
C1196 C1188 1.378 . S
C1196 C1191 1.350 . S
C1197 H1184 0.929 . S
C1197 C1189 1.433 . S
C1197 N1199 1.384 . S
N1198 C1194 1.427 . S
N1198 C1195 1.384 . S
N1199 C1191 1.427 . S
N1199 C1197 1.384 . S
C343 C57 1.467 . S
C347 C13 1.464 . S
C361 C15 1.464 . S
C365 C71 1.467 . S
C379 C97 1.470 . S
C383 C40 1.464 . S
C397 C99 1.464 . S
C401 C43 1.468 . S
C415 C208 1.470 . S
C419 C112 1.466 . S
C433 C210 1.469 . S
C437 C127 1.464 . S
C451 C141 1.469 . S
C455 C168 1.463 . S
C469 C182 1.470 . S
C473 C154 1.464 . S
C487 C224 1.465 . S
C491 C295 1.471 . S
C505 C251 1.471 . S
C509 C266 1.465 . S
C523 C252 1.464 . S
C527 C293 1.470 . S
C541 C320 1.469 . S
C545 C322 1.469 . S
C559 C55 1.470 . S
C563 C83 1.468 . S
C577 C1 1.468 . S
C581 C85 1.469 . S
C595 C111 1.464 . S
C599 C27 1.467 . S
C613 C28 1.467 . S
C617 C69 1.470 . S
C631 C334 1.465 . S
C635 C264 1.471 . S
C649 C278 1.470 . S
C653 C307 1.468 . S
C667 C281 1.463 . S
C671 C308 1.469 . S
C685 C239 1.464 . S
C689 C236 1.466 . S
C703 C166 1.464 . S
C707 C139 1.467 . S
C721 C222 1.464 . S
C725 C194 1.468 . S
C739 C180 1.468 . S
C743 C196 1.469 . S
C757 C153 1.466 . S
C761 C124 1.471 . S
C775 C321 1.490 . S
C779 C12 1.490 . S
C793 C225 1.491 . S
C797 C14 1.490 . S
C811 C323 1.491 . S
C815 C41 1.489 . S
C829 C294 1.491 . S
C833 C42 1.490 . S
C847 C253 1.492 . S
C851 C56 1.490 . S
C865 C70 1.491 . S
C869 C267 1.490 . S
C883 C292 1.492 . S
C887 C96 1.490 . S
C901 C250 1.489 . S
C905 C98 1.491 . S
C919 C183 1.490 . S
C923 C113 1.491 . S
C937 C209 1.490 . S
C941 C126 1.489 . S
C955 C211 1.490 . S
C959 C140 1.492 . S
C973 C155 1.490 . S
C977 C169 1.489 . S
C991 C82 1.491 . S
C995 C152 1.491 . S
C1009 C84 1.491 . S
C1013 C167 1.491 . S
C1027 C125 1.491 . S
C1031 C110 1.490 . S
C1045 C68 1.491 . S
C1049 C138 1.492 . S
C1063 C197 1.491 . S
C1067 C54 1.490 . S
C1081 C0 1.491 . S
C1085 C223 1.490 . S
C1099 C181 1.492 . S
C1103 C26 1.490 . S
C1117 C29 1.490 . S
C1121 C195 1.489 . S
C1135 C238 1.490 . S
C1139 C335 1.492 . S
C1153 C306 1.491 . S
C1157 C265 1.491 . S
C1171 C309 1.491 . S
C1175 C279 1.490 . S
C1189 C237 1.491 . S
C1193 C280 1.491 . S
