# Generated by pormake.
# Topology lta, (4)-cn, num edge types: 1
# Building blocks:
#     Node 0, Type 0, BuildingBlock: NAHDIM_clean_sbu_0, # of connection points: 4
#     Node 1, Type 0, BuildingBlock: NAHDIM_clean_sbu_0, # of connection points: 4
#     Node 2, Type 0, BuildingBlock: NAHDIM_clean_sbu_0, # of connection points: 4
#     Node 3, Type 0, BuildingBlock: NAHDIM_clean_sbu_0, # of connection points: 4
#     Node 4, Type 0, BuildingBlock: NAHDIM_clean_sbu_0, # of connection points: 4
#     Node 5, Type 0, BuildingBlock: NAHDIM_clean_sbu_0, # of connection points: 4
#     Node 6, Type 0, BuildingBlock: NAHDIM_clean_sbu_0, # of connection points: 4
#     Node 7, Type 0, BuildingBlock: NAHDIM_clean_sbu_0, # of connection points: 4
#     Node 8, Type 0, BuildingBlock: NAHDIM_clean_sbu_0, # of connection points: 4
#     Node 9, Type 0, BuildingBlock: NAHDIM_clean_sbu_0, # of connection points: 4
#     Node 10, Type 0, BuildingBlock: NAHDIM_clean_sbu_0, # of connection points: 4
#     Node 11, Type 0, BuildingBlock: NAHDIM_clean_sbu_0, # of connection points: 4
#     Node 12, Type 0, BuildingBlock: NAHDIM_clean_sbu_0, # of connection points: 4
#     Node 13, Type 0, BuildingBlock: NAHDIM_clean_sbu_0, # of connection points: 4
#     Node 14, Type 0, BuildingBlock: NAHDIM_clean_sbu_0, # of connection points: 4
#     Node 15, Type 0, BuildingBlock: NAHDIM_clean_sbu_0, # of connection points: 4
#     Node 16, Type 0, BuildingBlock: NAHDIM_clean_sbu_0, # of connection points: 4
#     Node 17, Type 0, BuildingBlock: NAHDIM_clean_sbu_0, # of connection points: 4
#     Node 18, Type 0, BuildingBlock: NAHDIM_clean_sbu_0, # of connection points: 4
#     Node 19, Type 0, BuildingBlock: NAHDIM_clean_sbu_0, # of connection points: 4
#     Node 20, Type 0, BuildingBlock: NAHDIM_clean_sbu_0, # of connection points: 4
#     Node 21, Type 0, BuildingBlock: NAHDIM_clean_sbu_0, # of connection points: 4
#     Node 22, Type 0, BuildingBlock: NAHDIM_clean_sbu_0, # of connection points: 4
#     Node 23, Type 0, BuildingBlock: NAHDIM_clean_sbu_0, # of connection points: 4
#     Edge 24, Type (0, 0), BuildingBlock: UVAHIK_clean_linker_0, # of connection points: 2
#     Edge 25, Type (0, 0), BuildingBlock: UVAHIK_clean_linker_0, # of connection points: 2
#     Edge 26, Type (0, 0), BuildingBlock: UVAHIK_clean_linker_0, # of connection points: 2
#     Edge 27, Type (0, 0), BuildingBlock: UVAHIK_clean_linker_0, # of connection points: 2
#     Edge 28, Type (0, 0), BuildingBlock: UVAHIK_clean_linker_0, # of connection points: 2
#     Edge 29, Type (0, 0), BuildingBlock: UVAHIK_clean_linker_0, # of connection points: 2
#     Edge 30, Type (0, 0), BuildingBlock: UVAHIK_clean_linker_0, # of connection points: 2
#     Edge 31, Type (0, 0), BuildingBlock: UVAHIK_clean_linker_0, # of connection points: 2
#     Edge 32, Type (0, 0), BuildingBlock: UVAHIK_clean_linker_0, # of connection points: 2
#     Edge 33, Type (0, 0), BuildingBlock: UVAHIK_clean_linker_0, # of connection points: 2
#     Edge 34, Type (0, 0), BuildingBlock: UVAHIK_clean_linker_0, # of connection points: 2
#     Edge 35, Type (0, 0), BuildingBlock: UVAHIK_clean_linker_0, # of connection points: 2
#     Edge 36, Type (0, 0), BuildingBlock: UVAHIK_clean_linker_0, # of connection points: 2
#     Edge 37, Type (0, 0), BuildingBlock: UVAHIK_clean_linker_0, # of connection points: 2
#     Edge 38, Type (0, 0), BuildingBlock: UVAHIK_clean_linker_0, # of connection points: 2
#     Edge 39, Type (0, 0), BuildingBlock: UVAHIK_clean_linker_0, # of connection points: 2
#     Edge 40, Type (0, 0), BuildingBlock: UVAHIK_clean_linker_0, # of connection points: 2
#     Edge 41, Type (0, 0), BuildingBlock: UVAHIK_clean_linker_0, # of connection points: 2
#     Edge 42, Type (0, 0), BuildingBlock: UVAHIK_clean_linker_0, # of connection points: 2
#     Edge 43, Type (0, 0), BuildingBlock: UVAHIK_clean_linker_0, # of connection points: 2
#     Edge 44, Type (0, 0), BuildingBlock: UVAHIK_clean_linker_0, # of connection points: 2
#     Edge 45, Type (0, 0), BuildingBlock: UVAHIK_clean_linker_0, # of connection points: 2
#     Edge 46, Type (0, 0), BuildingBlock: UVAHIK_clean_linker_0, # of connection points: 2
#     Edge 47, Type (0, 0), BuildingBlock: UVAHIK_clean_linker_0, # of connection points: 2
#     Edge 48, Type (0, 0), BuildingBlock: UVAHIK_clean_linker_0, # of connection points: 2
#     Edge 49, Type (0, 0), BuildingBlock: UVAHIK_clean_linker_0, # of connection points: 2
#     Edge 50, Type (0, 0), BuildingBlock: UVAHIK_clean_linker_0, # of connection points: 2
#     Edge 51, Type (0, 0), BuildingBlock: UVAHIK_clean_linker_0, # of connection points: 2
#     Edge 52, Type (0, 0), BuildingBlock: UVAHIK_clean_linker_0, # of connection points: 2
#     Edge 53, Type (0, 0), BuildingBlock: UVAHIK_clean_linker_0, # of connection points: 2
#     Edge 54, Type (0, 0), BuildingBlock: UVAHIK_clean_linker_0, # of connection points: 2
#     Edge 55, Type (0, 0), BuildingBlock: UVAHIK_clean_linker_0, # of connection points: 2
#     Edge 56, Type (0, 0), BuildingBlock: UVAHIK_clean_linker_0, # of connection points: 2
#     Edge 57, Type (0, 0), BuildingBlock: UVAHIK_clean_linker_0, # of connection points: 2
#     Edge 58, Type (0, 0), BuildingBlock: UVAHIK_clean_linker_0, # of connection points: 2
#     Edge 59, Type (0, 0), BuildingBlock: UVAHIK_clean_linker_0, # of connection points: 2
#     Edge 60, Type (0, 0), BuildingBlock: UVAHIK_clean_linker_0, # of connection points: 2
#     Edge 61, Type (0, 0), BuildingBlock: UVAHIK_clean_linker_0, # of connection points: 2
#     Edge 62, Type (0, 0), BuildingBlock: UVAHIK_clean_linker_0, # of connection points: 2
#     Edge 63, Type (0, 0), BuildingBlock: UVAHIK_clean_linker_0, # of connection points: 2
#     Edge 64, Type (0, 0), BuildingBlock: UVAHIK_clean_linker_0, # of connection points: 2
#     Edge 65, Type (0, 0), BuildingBlock: UVAHIK_clean_linker_0, # of connection points: 2
#     Edge 66, Type (0, 0), BuildingBlock: UVAHIK_clean_linker_0, # of connection points: 2
#     Edge 67, Type (0, 0), BuildingBlock: UVAHIK_clean_linker_0, # of connection points: 2
#     Edge 68, Type (0, 0), BuildingBlock: UVAHIK_clean_linker_0, # of connection points: 2
#     Edge 69, Type (0, 0), BuildingBlock: UVAHIK_clean_linker_0, # of connection points: 2
#     Edge 70, Type (0, 0), BuildingBlock: UVAHIK_clean_linker_0, # of connection points: 2
#     Edge 71, Type (0, 0), BuildingBlock: UVAHIK_clean_linker_0, # of connection points: 2
# Relax obj value: 0.181
# Max RMSD: 0.066
# Mean RMSD: 0.066
data_MOF--net-lta--node1-NAHDIM_clean_sbu_0--edge1-UVAHIK_clean_linker_0
_symmetry_space_group_name_H-M    P1
_symmetry_Int_Tables_number       1
_symmetry_cell_setting            triclinic
loop_
_symmetry_equiv_pos_as_xyz
'x, y, z'
_cell_length_a     73.357721
_cell_length_b     73.363501
_cell_length_c     73.342874
_cell_angle_alpha  90.038598
_cell_angle_beta   90.043581
_cell_angle_gamma 89.969224
loop_
_atom_site_label
_atom_site_type_symbol
_atom_site_fract_x
_atom_site_fract_y
_atom_site_fract_z
_atom_type_partial_charge
C0 C 0.16464 0.2972 0.51353 0.0
O1 O 0.16936 0.31308 0.50677 0.0
O2 O 0.13048 0.33083 0.54037 0.0
Zn3 Zn 0.13085 0.31578 0.51752 0.0
O4 O 0.13824 0.33146 0.49626 0.0
C5 C 0.09493 0.31761 0.5044 0.0
O6 O 0.10035 0.33446 0.50174 0.0
O7 O 0.14856 0.29503 0.51959 0.0
C8 C 0.13603 0.32526 0.48022 0.0
O9 O 0.12941 0.30877 0.47804 0.0
C10 C 0.1442 0.3405 0.54462 0.0
O11 O 0.15867 0.34017 0.53409 0.0
O12 O 0.10567 0.30641 0.51211 0.0
C13 C 0.69919 0.16059 0.49944 0.0
O14 O 0.68206 0.16288 0.49472 0.0
O15 O 0.67155 0.12631 0.53092 0.0
Zn16 Zn 0.68665 0.12478 0.50813 0.0
O17 O 0.67027 0.1254 0.48628 0.0
C18 C 0.70766 0.09381 0.52114 0.0
O19 O 0.70616 0.10157 0.53722 0.0
O20 O 0.70418 0.14545 0.5062 0.0
C21 C 0.65769 0.1137 0.48422 0.0
O22 O 0.65546 0.101 0.49663 0.0
C23 C 0.65731 0.13618 0.53094 0.0
O24 O 0.65323 0.14561 0.51628 0.0
O25 O 0.70048 0.10136 0.50732 0.0
C26 C 0.81783 0.69219 0.51254 0.0
O27 O 0.8124 0.67528 0.5103 0.0
O28 O 0.84632 0.65738 0.53731 0.0
Zn29 Zn 0.85098 0.67362 0.51568 0.0
O30 O 0.84601 0.65984 0.4925 0.0
C31 C 0.88819 0.66818 0.51124 0.0
O32 O 0.88165 0.65164 0.50911 0.0
O33 O 0.83454 0.69528 0.51586 0.0
C34 C 0.8525 0.6651 0.47733 0.0
O35 O 0.8625 0.67993 0.47674 0.0
C36 C 0.83653 0.64319 0.53558 0.0
O37 O 0.82908 0.63957 0.5197 0.0
O38 O 0.87728 0.68103 0.51518 0.0
C39 C 0.29056 0.8304 0.50289 0.0
O40 O 0.30536 0.82708 0.49337 0.0
O41 O 0.32188 0.86999 0.52498 0.0
Zn42 Zn 0.30491 0.86678 0.50373 0.0
O43 O 0.31959 0.86142 0.4813 0.0
C44 C 0.28393 0.89937 0.51149 0.0
O45 O 0.28648 0.89482 0.52862 0.0
O46 O 0.28766 0.8464 0.50882 0.0
C47 C 0.33071 0.87344 0.47576 0.0
O48 O 0.33207 0.88885 0.4848 0.0
C49 C 0.3352 0.859 0.5263 0.0
O50 O 0.33716 0.8462 0.51392 0.0
O51 O 0.29059 0.88946 0.49897 0.0
C52 C 0.14487 0.70176 0.49407 0.0
O53 O 0.14658 0.68494 0.49995 0.0
O54 O 0.12004 0.67289 0.45659 0.0
Zn55 Zn 0.11252 0.68669 0.47904 0.0
O56 O 0.11119 0.66892 0.49978 0.0
C57 C 0.07629 0.6871 0.4666 0.0
O58 O 0.08265 0.67265 0.45814 0.0
O59 O 0.13097 0.70607 0.48464 0.0
C60 C 0.10905 0.6742 0.51614 0.0
O61 O 0.10776 0.69172 0.51961 0.0
C62 C 0.13139 0.65988 0.45792 0.0
O63 O 0.13886 0.65644 0.47383 0.0
O64 O 0.08718 0.69669 0.47606 0.0
C65 C 0.28861 0.14678 0.49772 0.0
O66 O 0.30343 0.1463 0.50775 0.0
O67 O 0.31674 0.11242 0.46337 0.0
Zn68 Zn 0.3017 0.11186 0.48621 0.0
O69 O 0.31823 0.11222 0.508 0.0
C70 C 0.27855 0.08207 0.47408 0.0
O71 O 0.27909 0.0902 0.45813 0.0
O72 O 0.28508 0.13354 0.48712 0.0
C73 C 0.33247 0.10246 0.50919 0.0
O74 O 0.33674 0.09146 0.4957 0.0
C75 C 0.32927 0.12428 0.46204 0.0
O76 O 0.33172 0.13589 0.47547 0.0
O77 O 0.28702 0.08901 0.48749 0.0
C78 C 0.84339 0.28578 0.46497 0.0
O79 O 0.84094 0.3033 0.46225 0.0
O80 O 0.87798 0.31938 0.45854 0.0
Zn81 Zn 0.87936 0.29741 0.47494 0.0
O82 O 0.87782 0.30594 0.50085 0.0
C83 C 0.91213 0.28654 0.45657 0.0
O84 O 0.9041 0.29432 0.44257 0.0
O85 O 0.85895 0.28006 0.47001 0.0
C86 C 0.89069 0.31582 0.5069 0.0
O87 O 0.90455 0.3195 0.49617 0.0
C88 C 0.87012 0.33401 0.46351 0.0
O89 O 0.86209 0.33466 0.4795 0.0
O90 O 0.90363 0.28541 0.4716 0.0
C91 C 0.69746 0.84206 0.47771 0.0
O92 O 0.67981 0.83973 0.47577 0.0
O93 O 0.67154 0.8812 0.45973 0.0
Zn94 Zn 0.68598 0.87847 0.48275 0.0
O95 O 0.66884 0.8726 0.5032 0.0
C96 C 0.70701 0.91164 0.47751 0.0
O97 O 0.70625 0.90748 0.4601 0.0
O98 O 0.70359 0.858 0.48044 0.0
C99 C 0.67362 0.87548 0.51961 0.0
O100 O 0.68983 0.88233 0.52293 0.0
C101 C 0.65962 0.8937 0.45853 0.0
O102 O 0.65755 0.9051 0.4722 0.0
O103 O 0.69936 0.90133 0.48907 0.0
C104 C 0.49728 0.15641 0.29729 0.0
O105 O 0.48812 0.15804 0.31259 0.0
O106 O 0.52496 0.11939 0.32711 0.0
Zn107 Zn 0.50315 0.12016 0.31061 0.0
O108 O 0.48082 0.12274 0.32629 0.0
C109 C 0.51443 0.08601 0.29415 0.0
O110 O 0.5305 0.09025 0.30084 0.0
O111 O 0.50501 0.14137 0.29358 0.0
C112 C 0.46566 0.11532 0.32243 0.0
O113 O 0.46419 0.10552 0.30751 0.0
C114 C 0.52579 0.13049 0.34038 0.0
O115 O 0.51262 0.14244 0.34257 0.0
O116 O 0.50116 0.0969 0.29638 0.0
C117 C 0.83214 0.49431 0.29529 0.0
O118 O 0.83099 0.48577 0.31098 0.0
O119 O 0.86301 0.53212 0.32345 0.0
Zn120 Zn 0.86553 0.50807 0.31066 0.0
O121 O 0.86392 0.48844 0.32952 0.0
C122 C 0.90173 0.51754 0.29693 0.0
O123 O 0.89841 0.53385 0.30355 0.0
O124 O 0.8456 0.50478 0.29228 0.0
C125 C 0.87566 0.48761 0.34222 0.0
O126 O 0.88878 0.49978 0.34281 0.0
C127 C 0.84883 0.53405 0.33319 0.0
O128 O 0.83673 0.52085 0.33352 0.0
O129 O 0.88968 0.5052 0.29829 0.0
C130 C 0.50007 0.82989 0.29529 0.0
O131 O 0.50449 0.82792 0.31254 0.0
O132 O 0.46376 0.8592 0.32181 0.0
Zn133 Zn 0.48674 0.86435 0.30788 0.0
O134 O 0.5075 0.86703 0.3255 0.0
C135 C 0.47744 0.90132 0.30365 0.0
O136 O 0.47189 0.89847 0.32044 0.0
O137 O 0.49215 0.84441 0.29016 0.0
C138 C 0.52208 0.87502 0.32068 0.0
O139 O 0.52354 0.88115 0.30392 0.0
C140 C 0.4643 0.85005 0.3365 0.0
O141 O 0.47993 0.84319 0.34194 0.0
O142 O 0.48414 0.88811 0.2947 0.0
C143 C 0.15377 0.49283 0.2953 0.0
O144 O 0.15649 0.50021 0.31139 0.0
O145 O 0.12459 0.45745 0.32622 0.0
Zn146 Zn 0.1209 0.4808 0.31242 0.0
O147 O 0.12381 0.50156 0.32994 0.0
C148 C 0.08682 0.4704 0.29388 0.0
O149 O 0.094 0.45411 0.29187 0.0
O150 O 0.13947 0.48344 0.29255 0.0
C151 C 0.1189 0.51757 0.32555 0.0
O152 O 0.11141 0.52035 0.30952 0.0
C153 C 0.13821 0.457 0.33693 0.0
O154 O 0.14907 0.4712 0.33771 0.0
O155 O 0.09582 0.48278 0.30196 0.0
C156 C 0.49779 0.83176 0.69429 0.0
O157 O 0.48826 0.83094 0.67915 0.0
O158 O 0.53156 0.86652 0.6663 0.0
Zn159 Zn 0.50823 0.86705 0.68054 0.0
O160 O 0.48728 0.86577 0.66291 0.0
C161 C 0.51912 0.90078 0.69866 0.0
O162 O 0.53563 0.89665 0.69306 0.0
O163 O 0.50739 0.8458 0.69758 0.0
C164 C 0.47215 0.87369 0.6658 0.0
O165 O 0.46994 0.8832 0.68083 0.0
C166 C 0.53277 0.85549 0.65299 0.0
O167 O 0.51894 0.84471 0.64933 0.0
O168 O 0.50598 0.89015 0.69497 0.0
C169 C 0.1603 0.52553 0.70175 0.0
O170 O 0.16314 0.5258 0.68406 0.0
O171 O 0.12465 0.53964 0.67075 0.0
Zn172 Zn 0.12457 0.51948 0.68924 0.0
O173 O 0.1298 0.49581 0.67638 0.0
C174 C 0.0906 0.53307 0.70289 0.0
O175 O 0.09786 0.54879 0.69836 0.0
O176 O 0.14416 0.52347 0.70763 0.0
C177 C 0.11842 0.48279 0.67542 0.0
O178 O 0.10245 0.48449 0.68332 0.0
C179 C 0.11742 0.53666 0.65529 0.0
O180 O 0.11047 0.52052 0.65186 0.0
O181 O 0.09991 0.5186 0.70096 0.0
C182 C 0.48946 0.15232 0.6975 0.0
O183 O 0.49791 0.15443 0.68186 0.0
O184 O 0.46226 0.11386 0.66846 0.0
Zn185 Zn 0.48479 0.11607 0.68383 0.0
O186 O 0.50587 0.12036 0.66698 0.0
C187 C 0.47744 0.08467 0.70682 0.0
O188 O 0.46112 0.09185 0.7085 0.0
O189 O 0.48251 0.13694 0.70136 0.0
C190 C 0.52211 0.11577 0.67086 0.0
O191 O 0.52551 0.1078 0.68653 0.0
C192 C 0.45972 0.12578 0.65616 0.0
O193 O 0.47139 0.13927 0.65463 0.0
O194 O 0.48934 0.09279 0.69724 0.0
C195 C 0.83896 0.4608 0.69664 0.0
O196 O 0.83387 0.45792 0.67971 0.0
O197 O 0.87375 0.44572 0.66354 0.0
Zn198 Zn 0.87179 0.4687 0.67848 0.0
O199 O 0.86051 0.48865 0.66344 0.0
C200 C 0.90515 0.48893 0.67811 0.0
O201 O 0.89784 0.4957 0.66323 0.0
O202 O 0.85544 0.46496 0.69988 0.0
C203 C 0.85785 0.50448 0.66993 0.0
O204 O 0.86257 0.50793 0.68687 0.0
C205 C 0.86431 0.44397 0.64911 0.0
O206 O 0.85324 0.45718 0.64426 0.0
O207 O 0.89668 0.47668 0.68694 0.0
C208 C 0.28032 0.51913 0.14897 0.0
O209 O 0.29344 0.53128 0.14938 0.0
O210 O 0.31463 0.5279 0.11602 0.0
Zn211 Zn 0.29875 0.50551 0.11664 0.0
O212 O 0.31441 0.48357 0.12115 0.0
C213 C 0.28182 0.51457 0.08202 0.0
O214 O 0.28579 0.53146 0.08644 0.0
O215 O 0.28 0.50727 0.13635 0.0
C216 C 0.32706 0.48006 0.10987 0.0
O217 O 0.32935 0.49085 0.09577 0.0
C218 C 0.32828 0.52868 0.12668 0.0
O219 O 0.33147 0.51498 0.13776 0.0
O220 O 0.28605 0.50174 0.09282 0.0
C221 C 0.29951 0.48622 0.83177 0.0
O222 O 0.31713 0.48783 0.82901 0.0
O223 O 0.32415 0.45601 0.86844 0.0
Zn224 Zn 0.31103 0.47998 0.86845 0.0
O225 O 0.32947 0.50004 0.86648 0.0
C226 C 0.28687 0.4715 0.89872 0.0
O227 O 0.28494 0.45562 0.89066 0.0
O228 O 0.29377 0.48216 0.84758 0.0
C229 C 0.32551 0.51606 0.87172 0.0
O230 O 0.30924 0.51928 0.87849 0.0
C231 C 0.33304 0.45181 0.88271 0.0
O232 O 0.33263 0.46292 0.89677 0.0
O233 O 0.2972 0.48344 0.89166 0.0
C234 C 0.50114 0.293 0.83315 0.0
O235 O 0.49263 0.3087 0.83176 0.0
O236 O 0.53446 0.32381 0.86444 0.0
Zn237 Zn 0.51243 0.30791 0.86749 0.0
O238 O 0.49032 0.32397 0.86783 0.0
C239 C 0.51875 0.3046 0.90522 0.0
O240 O 0.52403 0.3215 0.90255 0.0
O241 O 0.51065 0.28971 0.84725 0.0
C242 C 0.47469 0.31778 0.87198 0.0
O243 O 0.47291 0.30038 0.87581 0.0
C244 C 0.53371 0.33738 0.85371 0.0
O245 O 0.51886 0.34002 0.84403 0.0
O246 O 0.51346 0.29524 0.89165 0.0
C247 C 0.7036 0.50277 0.83089 0.0
O248 O 0.68636 0.49896 0.8279 0.0
O249 O 0.67593 0.53314 0.86582 0.0
Zn250 Zn 0.68982 0.50949 0.86641 0.0
O251 O 0.67256 0.48858 0.86308 0.0
C252 C 0.71077 0.51842 0.89891 0.0
O253 O 0.71223 0.5347 0.8916 0.0
O254 O 0.70845 0.50828 0.84657 0.0
C255 C 0.65972 0.48564 0.87429 0.0
O256 O 0.65764 0.49664 0.88829 0.0
C257 C 0.66222 0.53459 0.85532 0.0
O258 O 0.65778 0.52077 0.84483 0.0
O259 O 0.70201 0.50608 0.89052 0.0
C260 C 0.49115 0.69567 0.8346 0.0
O261 O 0.4989 0.67969 0.8323 0.0
O262 O 0.46628 0.66596 0.87191 0.0
Zn263 Zn 0.48792 0.68274 0.87114 0.0
O264 O 0.5106 0.66779 0.86764 0.0
C265 C 0.47675 0.70066 0.90461 0.0
O266 O 0.46025 0.69592 0.89949 0.0
O267 O 0.48523 0.70006 0.85027 0.0
C268 C 0.5261 0.67249 0.87377 0.0
O269 O 0.52766 0.68777 0.883 0.0
C270 C 0.46639 0.65169 0.86208 0.0
O271 O 0.48059 0.64838 0.85169 0.0
O272 O 0.49024 0.69662 0.89455 0.0
C273 C 0.70249 0.47152 0.15076 0.0
O274 O 0.68875 0.46007 0.15126 0.0
O275 O 0.67002 0.46203 0.11572 0.0
Zn276 Zn 0.68615 0.48424 0.11687 0.0
O277 O 0.67041 0.50633 0.12016 0.0
C278 C 0.7042 0.47481 0.08281 0.0
O279 O 0.69947 0.45801 0.08677 0.0
O280 O 0.70389 0.48262 0.13755 0.0
C281 C 0.65929 0.51029 0.10748 0.0
O282 O 0.65877 0.49996 0.09285 0.0
C283 C 0.65573 0.46187 0.12551 0.0
O284 O 0.65226 0.47592 0.13606 0.0
O285 O 0.70002 0.48763 0.09366 0.0
C286 C 0.51016 0.6931 0.15766 0.0
O287 O 0.51309 0.67571 0.16075 0.0
O288 O 0.52138 0.66259 0.12053 0.0
Zn289 Zn 0.50015 0.6799 0.12228 0.0
O290 O 0.47729 0.6658 0.12754 0.0
C291 C 0.5095 0.70216 0.09102 0.0
O292 O 0.52533 0.70382 0.09925 0.0
O293 O 0.50456 0.69811 0.14206 0.0
C294 C 0.46189 0.67036 0.12106 0.0
O295 O 0.4606 0.68514 0.11104 0.0
C296 C 0.52064 0.64698 0.12801 0.0
O297 O 0.5059 0.64233 0.13703 0.0
O298 O 0.49703 0.69276 0.09844 0.0
C299 C 0.49074 0.29548 0.15977 0.0
O300 O 0.49929 0.31113 0.16138 0.0
O301 O 0.46025 0.32471 0.12431 0.0
Zn302 Zn 0.48278 0.30921 0.12404 0.0
O303 O 0.50454 0.32571 0.12602 0.0
C304 C 0.4722 0.29489 0.08859 0.0
O305 O 0.45656 0.30292 0.09197 0.0
O306 O 0.48253 0.29175 0.14498 0.0
C307 C 0.51996 0.32145 0.11937 0.0
O308 O 0.52187 0.30573 0.11098 0.0
C309 C 0.45924 0.33809 0.13527 0.0
O310 O 0.47278 0.3411 0.14662 0.0
O311 O 0.48479 0.29548 0.10046 0.0
C312 C 0.12994 0.4259 0.34846 0.0
C313 C 0.14089 0.44158 0.34959 0.0
C314 C 0.13159 0.41206 0.36145 0.0
C315 C 0.14401 0.40593 0.40895 0.0
H316 H 0.14576 0.35432 0.39767 0.0
C317 C 0.14991 0.3529 0.46605 0.0
C318 C 0.13937 0.33704 0.46429 0.0
C319 C 0.15205 0.3647 0.45129 0.0
C320 C 0.14509 0.36868 0.40106 0.0
H321 H 0.1626 0.45473 0.36484 0.0
H322 H 0.16528 0.43068 0.38755 0.0
H323 H 0.14562 0.37662 0.37291 0.0
H324 H 0.12306 0.32087 0.44566 0.0
H325 H 0.12624 0.34175 0.42009 0.0
H326 H 0.14276 0.39824 0.43696 0.0
C327 C 0.15541 0.42915 0.37667 0.0
C328 C 0.14508 0.38141 0.38688 0.0
C329 C 0.1539 0.44287 0.36361 0.0
C330 C 0.13135 0.33297 0.44738 0.0
C331 C 0.13327 0.3449 0.43268 0.0
C332 C 0.1438 0.39326 0.42309 0.0
C333 C 0.14408 0.41376 0.37588 0.0
C334 C 0.14455 0.40014 0.39072 0.0
C335 C 0.14344 0.36105 0.43452 0.0
C336 C 0.14433 0.37446 0.41935 0.0
H337 H 0.11984 0.42449 0.33777 0.0
H338 H 0.12263 0.40035 0.36061 0.0
H339 H 0.14329 0.42031 0.41228 0.0
H340 H 0.15642 0.35627 0.47888 0.0
H341 H 0.16033 0.37678 0.45309 0.0
C342 C 0.64835 0.12802 0.45472 0.0
C343 C 0.64543 0.1148 0.46827 0.0
C344 C 0.6365 0.12947 0.43991 0.0
C345 C 0.60101 0.10447 0.41424 0.0
H346 H 0.58639 0.15293 0.39899 0.0
C347 C 0.54099 0.14079 0.36911 0.0
C348 C 0.54083 0.12934 0.35375 0.0
C349 C 0.55469 0.13916 0.38222 0.0
C350 C 0.59027 0.1393 0.40313 0.0
H351 H 0.6279 0.09258 0.47677 0.0
H352 H 0.60703 0.09529 0.45103 0.0
H353 H 0.60824 0.14942 0.42374 0.0
H354 H 0.55513 0.10746 0.33988 0.0
H355 H 0.5792 0.10479 0.36269 0.0
H356 H 0.58258 0.09436 0.39401 0.0
C357 C 0.61864 0.10437 0.45174 0.0
C358 C 0.60296 0.13729 0.41718 0.0
C359 C 0.63054 0.10289 0.46655 0.0
C360 C 0.55484 0.11644 0.35161 0.0
C361 C 0.56856 0.11483 0.36473 0.0
C362 C 0.5883 0.10649 0.4002 0.0
C363 C 0.62142 0.11777 0.43832 0.0
C364 C 0.60839 0.11985 0.42297 0.0
C365 C 0.56856 0.12608 0.38025 0.0
C366 C 0.58269 0.12393 0.39458 0.0
H367 H 0.65976 0.13735 0.45558 0.0
H368 H 0.63918 0.13975 0.42966 0.0
H369 H 0.60507 0.09085 0.41825 0.0
H370 H 0.53037 0.15083 0.37119 0.0
H371 H 0.55415 0.14787 0.39414 0.0
C372 C 0.83648 0.64015 0.4606 0.0
C373 C 0.84977 0.65391 0.46082 0.0
C374 C 0.83464 0.62876 0.44548 0.0
C375 C 0.84795 0.62317 0.39682 0.0
H376 H 0.83963 0.57207 0.40742 0.0
C377 C 0.85985 0.56398 0.34554 0.0
C378 C 0.84679 0.54995 0.3454 0.0
C379 C 0.85874 0.57807 0.35835 0.0
C380 C 0.84173 0.58633 0.40422 0.0
H381 H 0.87129 0.66683 0.44523 0.0
H382 H 0.86845 0.64659 0.41902 0.0
H383 H 0.84052 0.59397 0.43226 0.0
H384 H 0.8219 0.54015 0.35803 0.0
H385 H 0.82007 0.56466 0.38036 0.0
H386 H 0.84974 0.6152 0.36872 0.0
C387 C 0.85918 0.64482 0.43036 0.0
C388 C 0.84218 0.59892 0.41845 0.0
C389 C 0.86088 0.65637 0.44543 0.0
C390 C 0.83225 0.55068 0.35784 0.0
C391 C 0.83122 0.56466 0.37068 0.0
C392 C 0.84766 0.6105 0.38256 0.0
C393 C 0.8462 0.6307 0.43031 0.0
C394 C 0.84528 0.6175 0.41496 0.0
C395 C 0.84464 0.57829 0.37129 0.0
C396 C 0.84452 0.59196 0.38615 0.0
H397 H 0.82758 0.63807 0.47219 0.0
H398 H 0.82422 0.61831 0.44575 0.0
H399 H 0.85016 0.6374 0.39362 0.0
H400 H 0.87119 0.56383 0.33609 0.0
H401 H 0.86931 0.58836 0.35859 0.0
C402 C 0.35489 0.88313 0.45381 0.0
C403 C 0.34228 0.86997 0.45964 0.0
C404 C 0.36615 0.87972 0.43887 0.0
C405 C 0.38603 0.84221 0.41221 0.0
H406 H 0.39783 0.88105 0.3784 0.0
C407 C 0.43154 0.85711 0.34299 0.0
C408 C 0.44804 0.84896 0.34834 0.0
C409 C 0.41679 0.85783 0.355 0.0
C410 C 0.39449 0.86995 0.38754 0.0
H411 H 0.33142 0.84299 0.45422 0.0
H412 H 0.35102 0.83712 0.428 0.0
H413 H 0.37521 0.88628 0.40209 0.0
H414 H 0.46173 0.83446 0.37019 0.0
H415 H 0.43613 0.83595 0.39121 0.0
H416 H 0.40532 0.82587 0.39762 0.0
C417 C 0.35232 0.84999 0.43513 0.0
C418 C 0.3817 0.87304 0.40127 0.0
C419 C 0.34104 0.85339 0.45009 0.0
C420 C 0.44922 0.84085 0.36565 0.0
C421 C 0.43448 0.84161 0.37767 0.0
C422 C 0.39883 0.83911 0.39846 0.0
C423 C 0.36506 0.86309 0.4294 0.0
C424 C 0.37755 0.85931 0.41395 0.0
C425 C 0.41824 0.85045 0.37262 0.0
C426 C 0.40341 0.85304 0.38614 0.0
H427 H 0.35622 0.89602 0.4609 0.0
H428 H 0.37601 0.88999 0.43498 0.0
H429 H 0.38322 0.83138 0.42184 0.0
H430 H 0.43014 0.86336 0.32969 0.0
H431 H 0.40435 0.86446 0.3506 0.0
C432 C 0.12036 0.5694 0.64616 0.0
C433 C 0.11643 0.55125 0.64147 0.0
C434 C 0.11898 0.58323 0.63314 0.0
C435 C 0.09833 0.59337 0.58806 0.0
H436 H 0.13386 0.6325 0.58723 0.0
C437 C 0.10713 0.64205 0.52714 0.0
C438 C 0.1088 0.66072 0.53107 0.0
C439 C 0.1073 0.62921 0.54116 0.0
C440 C 0.12374 0.62175 0.58744 0.0
H441 H 0.10828 0.5333 0.61943 0.0
H442 H 0.10638 0.55728 0.59662 0.0
H443 H 0.13599 0.6089 0.61057 0.0
H444 H 0.11191 0.6806 0.55276 0.0
H445 H 0.1124 0.65805 0.5773 0.0
H446 H 0.08641 0.60602 0.56461 0.0
C447 C 0.11006 0.56096 0.61044 0.0
C448 C 0.12492 0.60825 0.60082 0.0
C449 C 0.11127 0.54718 0.62349 0.0
C450 C 0.11057 0.66631 0.54932 0.0
C451 C 0.11095 0.65342 0.56334 0.0
C452 C 0.09727 0.60676 0.5746 0.0
C453 C 0.11379 0.57918 0.61512 0.0
C454 C 0.11229 0.59383 0.60122 0.0
C455 C 0.10932 0.63476 0.55938 0.0
C456 C 0.11002 0.62101 0.57411 0.0
H457 H 0.12426 0.57298 0.65995 0.0
H458 H 0.12171 0.59713 0.63729 0.0
H459 H 0.08815 0.58269 0.58819 0.0
H460 H 0.10574 0.63732 0.51322 0.0
H461 H 0.10619 0.61489 0.53772 0.0
C462 C 0.33921 0.11524 0.54007 0.0
C463 C 0.3443 0.10393 0.52545 0.0
C464 C 0.35055 0.11714 0.55524 0.0
C465 C 0.38923 0.09568 0.57944 0.0
H466 H 0.39592 0.14423 0.5993 0.0
C467 C 0.44273 0.13644 0.62861 0.0
C468 C 0.44471 0.1238 0.64286 0.0
C469 C 0.42936 0.134 0.6153 0.0
C470 C 0.39425 0.1306 0.59387 0.0
H471 H 0.36518 0.08557 0.51538 0.0
H472 H 0.38512 0.08909 0.54178 0.0
H473 H 0.37517 0.13965 0.57379 0.0
H474 H 0.43385 0.09892 0.65459 0.0
H475 H 0.41032 0.09479 0.63141 0.0
H476 H 0.40879 0.08675 0.59916 0.0
C477 C 0.37223 0.0963 0.54161 0.0
C478 C 0.3822 0.12793 0.57938 0.0
C479 C 0.36086 0.09436 0.52643 0.0
C480 C 0.43273 0.10888 0.64374 0.0
C481 C 0.41932 0.10644 0.63041 0.0
C482 C 0.40131 0.09835 0.59393 0.0
C483 C 0.36726 0.10781 0.55612 0.0
C484 C 0.37964 0.11047 0.57191 0.0
C485 C 0.41762 0.11888 0.61594 0.0
C486 C 0.40406 0.11587 0.60121 0.0
H487 H 0.32649 0.12273 0.5398 0.0
H488 H 0.34619 0.12589 0.5663 0.0
H489 H 0.38741 0.08202 0.57412 0.0
H490 H 0.45175 0.14807 0.62751 0.0
H491 H 0.42856 0.14372 0.60421 0.0
C492 C 0.85652 0.42642 0.621 0.0
C493 C 0.86616 0.4276 0.63751 0.0
C494 C 0.8588 0.41143 0.60953 0.0
C495 C 0.85944 0.37468 0.59118 0.0
H496 H 0.90881 0.35794 0.58243 0.0
C497 C 0.87449 0.32055 0.53657 0.0
C498 C 0.88916 0.32461 0.52496 0.0
C499 C 0.8721 0.33017 0.55283 0.0
C500 C 0.89494 0.36246 0.58472 0.0
H501 H 0.88539 0.41372 0.65519 0.0
H502 H 0.88922 0.38736 0.6352 0.0
H503 H 0.90313 0.3807 0.60596 0.0
H504 H 0.91325 0.34143 0.52166 0.0
H505 H 0.90888 0.35846 0.54974 0.0
H506 H 0.85137 0.35726 0.56929 0.0
C507 C 0.88009 0.39819 0.63103 0.0
C508 C 0.89165 0.37534 0.59836 0.0
C509 C 0.87784 0.41325 0.6425 0.0
C510 C 0.9018 0.33797 0.53029 0.0
C511 C 0.89935 0.34765 0.54649 0.0
C512 C 0.86274 0.36187 0.5775 0.0
C513 C 0.87071 0.3972 0.61433 0.0
C514 C 0.87392 0.38192 0.60144 0.0
C515 C 0.88428 0.34412 0.55778 0.0
C516 C 0.88059 0.35592 0.57383 0.0
H517 H 0.84744 0.43725 0.61671 0.0
H518 H 0.8516 0.41127 0.59664 0.0
H519 H 0.84558 0.37924 0.59342 0.0
H520 H 0.8646 0.31021 0.53291 0.0
H521 H 0.86051 0.32691 0.56137 0.0
C522 C 0.549 0.84579 0.62465 0.0
C523 C 0.54907 0.85547 0.64117 0.0
C524 C 0.56396 0.8466 0.61292 0.0
C525 C 0.60368 0.87553 0.60214 0.0
H526 H 0.61769 0.83414 0.57235 0.0
C527 C 0.66467 0.87781 0.55245 0.0
C528 C 0.6609 0.8716 0.53472 0.0
C529 C 0.65228 0.87475 0.56658 0.0
C530 C 0.61388 0.84581 0.58057 0.0
H531 H 0.56514 0.87306 0.6587 0.0
H532 H 0.59145 0.87411 0.63845 0.0
H533 H 0.59401 0.83054 0.59542 0.0
H534 H 0.64142 0.8569 0.51797 0.0
H535 H 0.61987 0.85147 0.54269 0.0
H536 H 0.62359 0.89077 0.58724 0.0
C537 C 0.57966 0.86625 0.63432 0.0
C538 C 0.60029 0.84378 0.59374 0.0
C539 C 0.56462 0.86557 0.64598 0.0
C540 C 0.64469 0.86191 0.53148 0.0
C541 C 0.63241 0.85869 0.54565 0.0
C542 C 0.61738 0.8775 0.58909 0.0
C543 C 0.57941 0.85697 0.61753 0.0
C544 C 0.59483 0.8587 0.6045 0.0
C545 C 0.636 0.86524 0.56329 0.0
C546 C 0.62242 0.86273 0.578 0.0
H547 H 0.5372 0.83793 0.62051 0.0
H548 H 0.56316 0.8395 0.6 0.0
H549 H 0.59964 0.88739 0.60996 0.0
H550 H 0.67705 0.8853 0.55538 0.0
H551 H 0.65543 0.87982 0.5801 0.0
C552 C 0.33848 0.1126 0.43127 0.0
C553 C 0.34146 0.12451 0.446 0.0
C554 C 0.35044 0.11237 0.41645 0.0
C555 C 0.3869 0.1392 0.39393 0.0
H556 H 0.40162 0.0922 0.37467 0.0
C557 C 0.45114 0.12921 0.34998 0.0
C558 C 0.45001 0.11735 0.33496 0.0
C559 C 0.43665 0.13074 0.36219 0.0
C560 C 0.39745 0.10544 0.37972 0.0
H561 H 0.3592 0.14567 0.45661 0.0
H562 H 0.38019 0.14504 0.43096 0.0
H563 H 0.37853 0.09369 0.39849 0.0
H564 H 0.43267 0.09799 0.32084 0.0
H565 H 0.40733 0.10065 0.34227 0.0
H566 H 0.4062 0.15088 0.37543 0.0
C567 C 0.36846 0.13609 0.43068 0.0
C568 C 0.3842 0.10631 0.39336 0.0
C569 C 0.35648 0.13636 0.44546 0.0
C570 C 0.43397 0.10722 0.33229 0.0
C571 C 0.4195 0.10867 0.3446 0.0
C572 C 0.40021 0.13832 0.38035 0.0
C573 C 0.36566 0.12401 0.41606 0.0
C574 C 0.37892 0.12319 0.40077 0.0
C575 C 0.42073 0.12039 0.35972 0.0
C576 C 0.40576 0.12142 0.37325 0.0
H577 H 0.32697 0.10336 0.43123 0.0
H578 H 0.34775 0.10308 0.40529 0.0
H579 H 0.38291 0.15244 0.3991 0.0
H580 H 0.4633 0.13722 0.35242 0.0
H581 H 0.43808 0.13972 0.37384 0.0
C582 C 0.8612 0.36625 0.45676 0.0
C583 C 0.87031 0.35021 0.45156 0.0
C584 C 0.86168 0.38167 0.44561 0.0
C585 C 0.85611 0.40804 0.41404 0.0
H586 H 0.90165 0.42181 0.39101 0.0
C587 C 0.86018 0.46038 0.35563 0.0
C588 C 0.87473 0.47284 0.35587 0.0
C589 C 0.85951 0.44611 0.36818 0.0
C590 C 0.88887 0.41824 0.39748 0.0
H591 H 0.88699 0.33774 0.43054 0.0
H592 H 0.88772 0.36462 0.41106 0.0
H593 H 0.90082 0.39553 0.41135 0.0
H594 H 0.89983 0.48027 0.36965 0.0
H595 H 0.89861 0.45532 0.39162 0.0
H596 H 0.84418 0.43081 0.40023 0.0
C597 C 0.88037 0.36532 0.42385 0.0
C598 C 0.88836 0.40307 0.40895 0.0
C599 C 0.87985 0.34989 0.43495 0.0
C600 C 0.88847 0.47086 0.36908 0.0
C601 C 0.88783 0.45653 0.3816 0.0
C602 C 0.85661 0.42317 0.40251 0.0
C603 C 0.87133 0.38138 0.42908 0.0
C604 C 0.87195 0.39775 0.41727 0.0
C605 C 0.87338 0.44396 0.38121 0.0
C606 C 0.87298 0.42836 0.39403 0.0
H607 H 0.85376 0.36694 0.46949 0.0
H608 H 0.85471 0.3939 0.45008 0.0
H609 H 0.84324 0.40419 0.42016 0.0
H610 H 0.84936 0.46153 0.34564 0.0
H611 H 0.84831 0.43652 0.36741 0.0
C612 C 0.53536 0.87125 0.35188 0.0
C613 C 0.53696 0.87788 0.33399 0.0
C614 C 0.54918 0.87429 0.3646 0.0
C615 C 0.59798 0.8855 0.36858 0.0
H616 H 0.58475 0.89758 0.41833 0.0
C617 C 0.63324 0.90748 0.44177 0.0
C618 C 0.64718 0.89436 0.44267 0.0
C619 C 0.62054 0.90711 0.42757 0.0
C620 C 0.5887 0.89444 0.40445 0.0
H621 H 0.55439 0.89285 0.31538 0.0
H622 H 0.57849 0.89827 0.33767 0.0
H623 H 0.56097 0.89382 0.39546 0.0
H624 H 0.65908 0.87095 0.42903 0.0
H625 H 0.63683 0.8702 0.40441 0.0
H626 H 0.62574 0.88625 0.37758 0.0
C627 C 0.5666 0.89056 0.34179 0.0
C628 C 0.57505 0.89205 0.3914 0.0
C629 C 0.55276 0.88751 0.32905 0.0
C630 C 0.64851 0.88125 0.42875 0.0
C631 C 0.63581 0.88088 0.41456 0.0
C632 C 0.61164 0.88789 0.38165 0.0
C633 C 0.56493 0.88405 0.35973 0.0
C634 C 0.57952 0.88736 0.37337 0.0
C635 C 0.6215 0.89362 0.41397 0.0
C636 C 0.60714 0.89222 0.39977 0.0
H637 H 0.52339 0.86371 0.35611 0.0
H638 H 0.54761 0.86884 0.37823 0.0
H639 H 0.60186 0.88178 0.35483 0.0
H640 H 0.6319 0.91782 0.45222 0.0
H641 H 0.60984 0.91729 0.42733 0.0
C642 C 0.14507 0.63164 0.44466 0.0
C643 C 0.13421 0.64727 0.44247 0.0
C644 C 0.14584 0.61846 0.43096 0.0
C645 C 0.13575 0.60922 0.3825 0.0
H646 H 0.12729 0.55998 0.39974 0.0
C647 C 0.11486 0.55024 0.33457 0.0
C648 C 0.12212 0.5329 0.33819 0.0
C649 C 0.11783 0.56465 0.34668 0.0
C650 C 0.12996 0.57358 0.39468 0.0
H651 H 0.11648 0.66184 0.42378 0.0
H652 H 0.11781 0.63877 0.39988 0.0
H653 H 0.1308 0.58461 0.42163 0.0
H654 H 0.13858 0.51714 0.35708 0.0
H655 H 0.14401 0.5423 0.37799 0.0
H656 H 0.1348 0.59814 0.3555 0.0
C657 C 0.12575 0.63675 0.41217 0.0
C658 C 0.13197 0.5877 0.40724 0.0
C659 C 0.12492 0.64992 0.42591 0.0
C660 C 0.13263 0.5303 0.354 0.0
C661 C 0.13569 0.54471 0.36603 0.0
C662 C 0.13383 0.59504 0.3699 0.0
C663 C 0.13583 0.62067 0.41477 0.0
C664 C 0.13479 0.60567 0.40129 0.0
C665 C 0.12821 0.56201 0.3626 0.0
C666 C 0.1308 0.57708 0.37586 0.0
H667 H 0.1525 0.62925 0.4572 0.0
H668 H 0.15395 0.60632 0.43319 0.0
H669 H 0.13804 0.62293 0.37755 0.0
H670 H 0.10669 0.55265 0.3225 0.0
H671 H 0.11167 0.57775 0.34376 0.0
C672 C 0.36395 0.8494 0.54184 0.0
C673 C 0.34841 0.86058 0.54144 0.0
C674 C 0.37653 0.85084 0.55604 0.0
C675 C 0.3924 0.88208 0.59219 0.0
H676 H 0.41503 0.83827 0.61128 0.0
C677 C 0.44116 0.88241 0.65433 0.0
C678 C 0.45723 0.87216 0.65234 0.0
C679 C 0.42717 0.88102 0.64146 0.0
C680 C 0.4089 0.85062 0.606 0.0
H681 H 0.33381 0.88201 0.55568 0.0
H682 H 0.35567 0.88433 0.58068 0.0
H683 H 0.39173 0.83579 0.58771 0.0
H684 H 0.47118 0.85233 0.63536 0.0
H685 H 0.44677 0.84992 0.61296 0.0
H686 H 0.40962 0.89688 0.61057 0.0
C687 C 0.35826 0.87463 0.56984 0.0
C688 C 0.39559 0.84922 0.59248 0.0
C689 C 0.34569 0.87323 0.55557 0.0
C690 C 0.45897 0.86042 0.6373 0.0
C691 C 0.44495 0.85894 0.62452 0.0
C692 C 0.40567 0.88347 0.6058 0.0
C693 C 0.37382 0.86344 0.57024 0.0
C694 C 0.38733 0.86494 0.58526 0.0
C695 C 0.42892 0.86924 0.62644 0.0
C696 C 0.4142 0.86777 0.61269 0.0
H697 H 0.36651 0.83958 0.5311 0.0
H698 H 0.38853 0.84224 0.55574 0.0
H699 H 0.38647 0.89447 0.58677 0.0
H700 H 0.43941 0.89158 0.66578 0.0
H701 H 0.4149 0.88902 0.64335 0.0
C702 C 0.13996 0.4645 0.6563 0.0
C703 C 0.12278 0.46637 0.66457 0.0
C704 C 0.14374 0.44955 0.64514 0.0
C705 C 0.12784 0.40326 0.63266 0.0
H706 H 0.15206 0.41381 0.58689 0.0
C707 C 0.12752 0.35409 0.57114 0.0
C708 C 0.14341 0.35289 0.5605 0.0
C709 C 0.12633 0.36672 0.58535 0.0
C710 C 0.14555 0.41055 0.59973 0.0
H711 H 0.09626 0.45375 0.66801 0.0
H712 H 0.10279 0.42778 0.64832 0.0
H713 H 0.14755 0.43809 0.60902 0.0
H714 H 0.17077 0.36351 0.55689 0.0
H715 H 0.16873 0.38545 0.58178 0.0
H716 H 0.12554 0.37575 0.62313 0.0
C717 C 0.11341 0.43777 0.65064 0.0
C718 C 0.14296 0.42448 0.61243 0.0
C719 C 0.10963 0.45271 0.66184 0.0
C720 C 0.15829 0.36418 0.56474 0.0
C721 C 0.15709 0.37681 0.57894 0.0
C722 C 0.13041 0.38931 0.61993 0.0
C723 C 0.13042 0.43615 0.64197 0.0
C724 C 0.13396 0.42104 0.62898 0.0
C725 C 0.14101 0.37841 0.58922 0.0
C726 C 0.13917 0.39285 0.60327 0.0
H727 H 0.15044 0.47471 0.65824 0.0
H728 H 0.15707 0.44855 0.6389 0.0
H729 H 0.12106 0.40013 0.6454 0.0
H730 H 0.11582 0.34557 0.56824 0.0
H731 H 0.11369 0.36773 0.59289 0.0
C732 C 0.5544 0.11187 0.66037 0.0
C733 C 0.53687 0.1191 0.65759 0.0
C734 C 0.56809 0.11451 0.64739 0.0
C735 C 0.57404 0.12547 0.59864 0.0
H736 H 0.6242 0.13495 0.61243 0.0
C737 C 0.62803 0.14528 0.54573 0.0
C738 C 0.64472 0.13593 0.54665 0.0
C739 C 0.61547 0.14402 0.55995 0.0
C740 C 0.61027 0.13219 0.60841 0.0
H741 H 0.52011 0.13524 0.6393 0.0
H742 H 0.54401 0.1401 0.61689 0.0
H743 H 0.60104 0.13124 0.6361 0.0
H744 H 0.6616 0.1184 0.56348 0.0
H745 H 0.63959 0.11621 0.58836 0.0
H746 H 0.58321 0.12648 0.571 0.0
C747 C 0.5471 0.13204 0.62887 0.0
C748 C 0.59702 0.13003 0.62194 0.0
C749 C 0.53342 0.12933 0.64177 0.0
C750 C 0.64883 0.12574 0.56235 0.0
C751 C 0.63629 0.12455 0.57664 0.0
C752 C 0.58724 0.12771 0.58516 0.0
C753 C 0.56453 0.12449 0.63141 0.0
C754 C 0.57874 0.1267 0.61718 0.0
C755 C 0.61936 0.13344 0.57543 0.0
C756 C 0.60547 0.13115 0.58989 0.0
H757 H 0.55747 0.10391 0.67242 0.0
H758 H 0.58132 0.10837 0.64967 0.0
H759 H 0.56018 0.12252 0.5945 0.0
H760 H 0.62446 0.15332 0.53387 0.0
H761 H 0.60264 0.15124 0.55877 0.0
C762 C 0.84303 0.51499 0.64117 0.0
C763 C 0.85136 0.51922 0.65789 0.0
C764 C 0.83838 0.5288 0.62896 0.0
C765 C 0.83327 0.57913 0.62422 0.0
H766 H 0.84411 0.56857 0.57355 0.0
C767 C 0.84234 0.63393 0.56798 0.0
C768 C 0.83472 0.63012 0.5508 0.0
C769 C 0.84188 0.62089 0.58185 0.0
C770 C 0.84078 0.57165 0.58761 0.0
H771 H 0.86083 0.54122 0.67521 0.0
H772 H 0.85325 0.56533 0.65365 0.0
H773 H 0.84783 0.54484 0.59632 0.0
H774 H 0.82 0.60991 0.53495 0.0
H775 H 0.81931 0.58717 0.55913 0.0
H776 H 0.82687 0.60626 0.61536 0.0
C777 C 0.84994 0.55139 0.6501 0.0
C778 C 0.84285 0.55803 0.60068 0.0
C779 C 0.85438 0.53757 0.66243 0.0
C780 C 0.82609 0.61325 0.54799 0.0
C781 C 0.82574 0.60019 0.5618 0.0
C782 C 0.83136 0.59285 0.61111 0.0
C783 C 0.8422 0.54714 0.63305 0.0
C784 C 0.83916 0.56158 0.61916 0.0
C785 C 0.8339 0.60376 0.57875 0.0
C786 C 0.83514 0.58922 0.59269 0.0
H787 H 0.84033 0.50097 0.6374 0.0
H788 H 0.83203 0.52506 0.61616 0.0
H789 H 0.8301 0.58228 0.63829 0.0
H790 H 0.84903 0.64683 0.57059 0.0
H791 H 0.84837 0.62395 0.59477 0.0
C792 C 0.35397 0.46112 0.10093 0.0
C793 C 0.33928 0.4643 0.11278 0.0
C794 C 0.3657 0.44641 0.10381 0.0
C795 C 0.38152 0.41478 0.13953 0.0
H796 H 0.40032 0.38759 0.09827 0.0
C797 C 0.42914 0.34763 0.12227 0.0
C798 C 0.4437 0.35088 0.13431 0.0
C799 C 0.41509 0.36035 0.12045 0.0
C800 C 0.39503 0.39488 0.10997 0.0
H801 H 0.32524 0.45442 0.13686 0.0
H802 H 0.34559 0.42859 0.14174 0.0
H803 H 0.37804 0.41166 0.09325 0.0
H804 H 0.45467 0.36981 0.15423 0.0
H805 H 0.43034 0.39211 0.15083 0.0
H806 H 0.39836 0.39782 0.15627 0.0
C807 C 0.3482 0.43763 0.13037 0.0
C808 C 0.38244 0.40885 0.10706 0.0
C809 C 0.33648 0.45238 0.12752 0.0
C810 C 0.44365 0.36688 0.14484 0.0
C811 C 0.42963 0.37963 0.14297 0.0
C812 C 0.39409 0.40077 0.14244 0.0
C813 C 0.36297 0.43451 0.11858 0.0
C814 C 0.37568 0.41909 0.12178 0.0
C815 C 0.41531 0.37662 0.13058 0.0
C816 C 0.40113 0.39078 0.12768 0.0
H817 H 0.35654 0.47009 0.08949 0.0
H818 H 0.37711 0.44455 0.09464 0.0
H819 H 0.37669 0.4225 0.15115 0.0
H820 H 0.42871 0.33537 0.11404 0.0
H821 H 0.4041 0.35749 0.111 0.0
C822 C 0.45193 0.62225 0.85292 0.0
C823 C 0.45093 0.6388 0.86251 0.0
C824 C 0.43751 0.60986 0.8535 0.0
C825 C 0.3973 0.59714 0.88091 0.0
H826 H 0.38446 0.56955 0.83764 0.0
C827 C 0.33567 0.54802 0.87808 0.0
C828 C 0.33906 0.53087 0.87023 0.0
C829 C 0.34861 0.56194 0.87683 0.0
C830 C 0.38798 0.57708 0.84985 0.0
H831 H 0.43391 0.65546 0.88006 0.0
H832 H 0.40858 0.63395 0.88082 0.0
H833 H 0.40818 0.59274 0.83589 0.0
H834 H 0.35861 0.5149 0.85479 0.0
H835 H 0.38114 0.53921 0.85259 0.0
H836 H 0.37702 0.58144 0.89482 0.0
C837 C 0.42065 0.63041 0.8731 0.0
C838 C 0.40158 0.59034 0.84887 0.0
C839 C 0.43513 0.64278 0.87258 0.0
C840 C 0.35558 0.52796 0.86099 0.0
C841 C 0.36844 0.54191 0.85963 0.0
C842 C 0.38361 0.58394 0.88185 0.0
C843 C 0.4217 0.61378 0.86361 0.0
C844 C 0.40656 0.60038 0.86444 0.0
C845 C 0.36511 0.55902 0.86757 0.0
C846 C 0.37897 0.57365 0.86638 0.0
H847 H 0.46394 0.61872 0.8451 0.0
H848 H 0.4389 0.59706 0.84629 0.0
H849 H 0.40096 0.60445 0.89321 0.0
H850 H 0.32306 0.55069 0.88529 0.0
H851 H 0.34563 0.57504 0.88296 0.0
C852 C 0.44152 0.3237 0.87778 0.0
C853 C 0.45888 0.33024 0.87301 0.0
C854 C 0.42677 0.3357 0.87932 0.0
C855 C 0.41651 0.38411 0.88731 0.0
H856 H 0.36895 0.37247 0.86733 0.0
C857 C 0.34693 0.42464 0.86733 0.0
C858 C 0.34496 0.43556 0.88296 0.0
C859 C 0.35951 0.41032 0.86709 0.0
C860 C 0.38217 0.3759 0.87296 0.0
H861 H 0.47431 0.35442 0.86576 0.0
H862 H 0.44863 0.37523 0.86837 0.0
H863 H 0.3939 0.35052 0.86444 0.0
H864 H 0.35395 0.43946 0.91089 0.0
H865 H 0.37576 0.41442 0.91048 0.0
H866 H 0.40503 0.40962 0.89543 0.0
C867 C 0.44645 0.3609 0.87116 0.0
C868 C 0.39639 0.36329 0.87144 0.0
C869 C 0.46114 0.34894 0.86957 0.0
C870 C 0.35526 0.43141 0.89857 0.0
C871 C 0.36782 0.41711 0.89832 0.0
C872 C 0.40232 0.39666 0.88888 0.0
C873 C 0.42914 0.35444 0.8762 0.0
C874 C 0.41376 0.36737 0.87843 0.0
C875 C 0.37035 0.40666 0.88246 0.0
C876 C 0.38503 0.39277 0.88161 0.0
H877 H 0.43934 0.30936 0.88051 0.0
H878 H 0.41361 0.33036 0.88334 0.0
H879 H 0.42969 0.38755 0.89304 0.0
H880 H 0.33916 0.42746 0.85509 0.0
H881 H 0.36124 0.4026 0.85462 0.0
C882 C 0.63305 0.4666 0.8838 0.0
C883 C 0.6474 0.46994 0.87158 0.0
C884 C 0.62151 0.45167 0.88124 0.0
C885 C 0.60562 0.41924 0.8462 0.0
H886 H 0.59014 0.39094 0.88804 0.0
C887 C 0.56388 0.34881 0.86485 0.0
C888 C 0.54848 0.35107 0.85365 0.0
C889 C 0.57699 0.36255 0.86612 0.0
C890 C 0.59449 0.39857 0.87618 0.0
H891 H 0.66091 0.46023 0.8471 0.0
H892 H 0.64091 0.43411 0.84279 0.0
H893 H 0.61098 0.41643 0.89232 0.0
H894 H 0.5351 0.36924 0.83452 0.0
H895 H 0.55787 0.39326 0.83688 0.0
H896 H 0.5893 0.40123 0.83004 0.0
C897 C 0.63843 0.44315 0.8542 0.0
C898 C 0.60624 0.41333 0.87867 0.0
C899 C 0.64995 0.45807 0.85675 0.0
C900 C 0.5468 0.36707 0.84327 0.0
C901 C 0.5599 0.38081 0.84456 0.0
C902 C 0.59386 0.40448 0.84371 0.0
C903 C 0.62409 0.43977 0.86643 0.0
C904 C 0.61186 0.42389 0.86372 0.0
C905 C 0.57498 0.37884 0.85623 0.0
C906 C 0.5881 0.39403 0.85869 0.0
H907 H 0.63068 0.47553 0.89533 0.0
H908 H 0.61043 0.44957 0.89076 0.0
H909 H 0.60958 0.42721 0.83442 0.0
H910 H 0.56563 0.3366 0.87295 0.0
H911 H 0.58861 0.3605 0.875 0.0
C912 C 0.65515 0.56595 0.867 0.0
C913 C 0.65076 0.55116 0.85562 0.0
C914 C 0.64369 0.58116 0.86793 0.0
C915 C 0.60553 0.60422 0.84392 0.0
H916 H 0.59409 0.62318 0.89195 0.0
C917 C 0.54077 0.64555 0.85896 0.0
C918 C 0.54211 0.66067 0.87066 0.0
C919 C 0.55568 0.63406 0.85629 0.0
C920 C 0.59736 0.61824 0.87842 0.0
H921 H 0.63108 0.54089 0.83605 0.0
H922 H 0.61102 0.56718 0.83789 0.0
H923 H 0.6174 0.59969 0.88868 0.0
H924 H 0.56022 0.67569 0.8886 0.0
H925 H 0.58631 0.65545 0.88399 0.0
H926 H 0.58507 0.62239 0.83376 0.0
C927 C 0.62344 0.56721 0.84589 0.0
C928 C 0.61073 0.6048 0.87653 0.0
C929 C 0.63489 0.55206 0.84493 0.0
C930 C 0.55876 0.66415 0.87951 0.0
C931 C 0.57366 0.65253 0.87694 0.0
C932 C 0.59212 0.61759 0.84583 0.0
C933 C 0.62761 0.58188 0.85751 0.0
C934 C 0.61473 0.5974 0.8593 0.0
C935 C 0.57224 0.63734 0.86534 0.0
C936 C 0.58767 0.62449 0.86313 0.0
H937 H 0.66733 0.56571 0.87535 0.0
H938 H 0.6474 0.59233 0.87685 0.0
H939 H 0.60854 0.59907 0.83042 0.0
H940 H 0.52815 0.6425 0.85191 0.0
H941 H 0.55411 0.62232 0.84746 0.0
C942 C 0.64699 0.53675 0.12522 0.0
C943 C 0.64662 0.52583 0.10947 0.0
C944 C 0.63456 0.55103 0.12735 0.0
C945 C 0.60267 0.58062 0.1018 0.0
H946 H 0.57924 0.58621 0.14885 0.0
C947 C 0.53502 0.61677 0.13447 0.0
C948 C 0.53608 0.63413 0.12647 0.0
C949 C 0.54942 0.60445 0.13279 0.0
C950 C 0.58561 0.58477 0.13561 0.0
H951 H 0.6331 0.52147 0.08351 0.0
H952 H 0.6113 0.54621 0.08734 0.0
H953 H 0.60266 0.56299 0.14483 0.0
H954 H 0.5532 0.65227 0.1106 0.0
H955 H 0.57844 0.63077 0.1078 0.0
H956 H 0.5852 0.60202 0.09244 0.0
C957 C 0.62134 0.54391 0.09794 0.0
C958 C 0.59919 0.57162 0.13337 0.0
C959 C 0.63376 0.52965 0.09579 0.0
C960 C 0.55193 0.63897 0.11687 0.0
C961 C 0.56635 0.62663 0.11519 0.0
C962 C 0.5891 0.59378 0.10405 0.0
C963 C 0.62151 0.55468 0.11379 0.0
C964 C 0.60775 0.56928 0.11639 0.0
C965 C 0.56523 0.60921 0.12309 0.0
C966 C 0.58029 0.59588 0.12094 0.0
H967 H 0.65678 0.53421 0.13598 0.0
H968 H 0.63519 0.55923 0.13962 0.0
H969 H 0.60916 0.57929 0.08861 0.0
H970 H 0.52299 0.61259 0.14193 0.0
H971 H 0.54802 0.59105 0.13881 0.0
C972 C 0.35565 0.5453 0.13827 0.0
C973 C 0.34021 0.5449 0.12694 0.0
C974 C 0.36705 0.56051 0.13852 0.0
C975 C 0.38053 0.60016 0.11095 0.0
H976 H 0.40261 0.6162 0.15627 0.0
C977 C 0.42962 0.66155 0.11411 0.0
C978 C 0.44594 0.65833 0.12364 0.0
C979 C 0.41507 0.64933 0.11549 0.0
C980 C 0.39657 0.61184 0.14351 0.0
H981 H 0.32451 0.56023 0.1071 0.0
H982 H 0.34437 0.58691 0.10767 0.0
H983 H 0.3801 0.59174 0.15669 0.0
H984 H 0.45957 0.64012 0.14257 0.0
H985 H 0.43422 0.61885 0.14494 0.0
H986 H 0.39719 0.62013 0.09776 0.0
C987 C 0.34776 0.57535 0.1162 0.0
C988 C 0.38373 0.59781 0.14373 0.0
C989 C 0.33635 0.56009 0.11593 0.0
C990 C 0.44719 0.64298 0.13503 0.0
C991 C 0.43263 0.63085 0.13648 0.0
C992 C 0.39334 0.61424 0.11074 0.0
C993 C 0.36327 0.57571 0.12748 0.0
C994 C 0.37579 0.59159 0.12742 0.0
C995 C 0.41652 0.63375 0.12652 0.0
C996 C 0.40171 0.62002 0.12698 0.0
H997 H 0.35905 0.5338 0.14688 0.0
H998 H 0.37906 0.56021 0.14713 0.0
H999 H 0.37485 0.59555 0.09812 0.0
H1000 H 0.42821 0.67328 0.10526 0.0
H1001 H 0.40274 0.652 0.1078 0.0
C1002 C 0.62726 0.44636 0.1358 0.0
C1003 C 0.64326 0.44605 0.12531 0.0
C1004 C 0.61533 0.43156 0.13563 0.0
C1005 C 0.60182 0.39181 0.10814 0.0
H1006 H 0.5776 0.37726 0.15281 0.0
C1007 C 0.55186 0.33083 0.11158 0.0
C1008 C 0.53543 0.33426 0.12082 0.0
C1009 C 0.56626 0.34328 0.11258 0.0
C1010 C 0.58421 0.38123 0.14022 0.0
H1011 H 0.65939 0.42992 0.10647 0.0
H1012 H 0.63857 0.40394 0.10632 0.0
H1013 H 0.60069 0.40113 0.15371 0.0
H1014 H 0.5213 0.35327 0.13857 0.0
H1015 H 0.54637 0.37493 0.14027 0.0
H1016 H 0.58518 0.37196 0.09466 0.0
C1017 C 0.63517 0.41574 0.11452 0.0
C1018 C 0.5974 0.39491 0.14072 0.0
C1019 C 0.64713 0.43058 0.11467 0.0
C1020 C 0.53378 0.35023 0.13127 0.0
C1021 C 0.54819 0.36259 0.13236 0.0
C1022 C 0.58865 0.37806 0.10766 0.0
C1023 C 0.61913 0.41608 0.125 0.0
C1024 C 0.60615 0.40057 0.12464 0.0
C1025 C 0.56454 0.3593 0.12295 0.0
C1026 C 0.57951 0.37284 0.12365 0.0
H1027 H 0.62383 0.45809 0.14409 0.0
H1028 H 0.60294 0.43241 0.14361 0.0
H1029 H 0.60816 0.39599 0.09549 0.0
H1030 H 0.55356 0.31864 0.10343 0.0
H1031 H 0.57876 0.34033 0.10531 0.0
C1032 C 0.0697 0.32066 0.48199 0.0
C1033 C 0.07734 0.31149 0.49693 0.0
C1034 C 0.0531 0.31503 0.47467 0.0
C1035 C 0.01901 0.27722 0.47535 0.0
H1036 H 0.98658 0.31583 0.45946 0.0
C1037 C 0.94031 0.2738 0.47087 0.0
C1038 C 0.9319 0.28284 0.4562 0.0
C1039 C 0.95926 0.27379 0.4726 0.0
C1040 C -0.0044 0.30486 0.46353 0.0
H1041 H 0.07382 0.28913 0.51586 0.0
H1042 H 0.04423 0.27983 0.50373 0.0
H1043 H 0.01707 0.32337 0.46966 0.0
H1044 H 0.93679 0.2975 0.43098 0.0
H1045 H 0.9699 0.29768 0.43419 0.0
H1046 H -0.00325 0.2589 0.47019 0.0
C1047 C 0.05131 0.29102 0.49725 0.0
C1048 C 0.01314 0.30916 0.46937 0.0
C1049 C 0.06817 0.29644 0.50433 0.0
C1050 C 0.94285 0.29051 0.44249 0.0
C1051 C 0.96178 0.29068 0.44434 0.0
C1052 C 0.00126 0.27295 0.46978 0.0
C1053 C 0.0435 0.30035 0.48239 0.0
C1054 C 0.02508 0.29543 0.47545 0.0
C1055 C 0.97008 0.28294 0.45977 0.0
C1056 C 0.98941 0.28678 0.46389 0.0
H1057 H 0.07667 0.3321 0.47578 0.0
H1058 H 0.04782 0.32225 0.46293 0.0
H1059 H 0.02789 0.26625 0.47966 0.0
H1060 H 0.93222 0.26764 0.48156 0.0
H1061 H 0.96534 0.26778 0.48464 0.0
C1062 C 0.71919 0.06843 0.50169 0.0
C1063 C 0.71615 0.07566 0.51916 0.0
C1064 C 0.725 0.05047 0.49955 0.0
C1065 C 0.72009 0.00711 0.52248 0.0
H1066 H 0.74962 0.98963 0.48224 0.0
C1067 C 0.71831 0.93195 0.50238 0.0
C1068 C 0.71534 0.92888 0.48369 0.0
C1069 C 0.72415 0.94896 0.50857 0.0
C1070 C 0.74137 0.9943 0.49356 0.0
H1071 H 0.71799 0.07015 0.54816 0.0
H1072 H 0.72809 0.0386 0.5444 0.0
H1073 H 0.75009 0.02197 0.49027 0.0
H1074 H 0.71716 0.94086 0.45674 0.0
H1075 H 0.72686 0.97073 0.46757 0.0
H1076 H 0.71058 0.97979 0.52523 0.0
C1077 C 0.72583 0.04685 0.53236 0.0
C1078 C 0.74168 0.01278 0.49818 0.0
C1079 C 0.72008 0.0649 0.53451 0.0
C1080 C 0.71929 0.94284 0.47123 0.0
C1081 C 0.72498 0.95993 0.47744 0.0
C1082 C 0.71974 0.98868 0.51784 0.0
C1083 C 0.72785 0.03931 0.51484 0.0
C1084 C 0.73057 0.01946 0.5123 0.0
C1085 C 0.72697 0.96331 0.49623 0.0
C1086 C 0.72992 0.98217 0.50296 0.0
H1087 H 0.71644 0.07642 0.48958 0.0
H1088 H 0.72623 0.04504 0.48587 0.0
H1089 H 0.71118 0.01184 0.53326 0.0
H1090 H 0.71566 0.92136 0.51231 0.0
H1091 H 0.72589 0.95102 0.52309 0.0
C1092 C 0.91555 0.68871 0.51189 0.0
C1093 C 0.90756 0.67191 0.50733 0.0
C1094 C 0.93378 0.69222 0.50752 0.0
C1095 C 0.97642 0.66825 0.4944 0.0
H1096 H 0.99163 0.7158 0.477 0.0
C1097 C 0.04455 0.67763 0.45914 0.0
C1098 C 0.05639 0.68988 0.46792 0.0
C1099 C 0.02598 0.67774 0.46307 0.0
C1100 C 0.9875 0.70251 0.48191 0.0
H1101 H 0.91226 0.64576 0.49433 0.0
H1102 H 0.94365 0.65201 0.48627 0.0
H1103 H 0.95994 0.71103 0.48647 0.0
H1104 H 0.05778 0.71291 0.48646 0.0
H1105 H 0.02506 0.71317 0.49314 0.0
H1106 H 0.00377 0.6596 0.48932 0.0
C1107 C 0.93615 0.66232 0.49372 0.0
C1108 C 0.96944 0.69978 0.48744 0.0
C1109 C 0.91808 0.65875 0.49827 0.0
C1110 C 0.04902 0.70323 0.47956 0.0
C1111 C 0.03033 0.70343 0.48337 0.0
C1112 C 0.99429 0.67091 0.48864 0.0
C1113 C 0.94429 0.67904 0.49836 0.0
C1114 C 0.96365 0.68252 0.49353 0.0
C1115 C 0.01884 0.6902 0.47569 0.0
C1116 C -7e-05 0.68797 0.48215 0.0
H1117 H 0.90774 0.69912 0.51889 0.0
H1118 H 0.93967 0.70516 0.51148 0.0
H1119 H 0.97262 0.65494 0.4995 0.0
H1120 H 0.04973 0.6673 0.44994 0.0
H1121 H 0.01729 0.66757 0.45679 0.0
C1122 C 0.26449 0.05383 0.4609 0.0
C1123 C 0.26985 0.06405 0.4762 0.0
C1124 C 0.25879 0.03576 0.46294 0.0
C1125 C 0.24614 0.00051 0.49727 0.0
H1126 H 0.27479 0.96864 0.46636 0.0
C1127 C 0.2718 0.93017 0.51982 0.0
C1128 C 0.27476 0.91662 0.50663 0.0
C1129 C 0.26527 0.94731 0.51469 0.0
C1130 C 0.26629 0.97721 0.47486 0.0
H1131 H 0.27203 0.06388 0.50571 0.0
H1132 H 0.26235 0.03247 0.50922 0.0
H1133 H 0.2732 0.00089 0.45946 0.0
H1134 H 0.2718 0.90985 0.47797 0.0
H1135 H 0.26011 0.93962 0.4691 0.0
H1136 H 0.23994 0.97682 0.51315 0.0
C1137 C 0.26242 0.03832 0.49566 0.0
C1138 C 0.26537 -0.00424 0.47087 0.0
C1139 C 0.26818 0.0563 0.49363 0.0
C1140 C 0.26995 0.92013 0.48841 0.0
C1141 C 0.26328 0.93719 0.48332 0.0
C1142 C 0.24703 0.9819 0.50125 0.0
C1143 C 0.25824 0.02766 0.48031 0.0
C1144 C 0.25583 0.00771 0.4824 0.0
C1145 C 0.26144 0.95117 0.49629 0.0
C1146 C 0.25764 0.97016 0.49043 0.0
H1147 H 0.2655 0.05948 0.4473 0.0
H1148 H 0.25545 0.02791 0.45087 0.0
H1149 H 0.23846 0.00937 0.50624 0.0
H1150 H 0.27534 0.92784 0.53397 0.0
H1151 H 0.2642 0.95781 0.52502 0.0
C1152 C 0.47081 0.93456 0.30643 0.0
C1153 C 0.47772 0.91998 0.29612 0.0
C1154 C 0.47283 0.95245 0.30038 0.0
C1155 C 0.50327 0.98014 0.27237 0.0
H1156 H 0.46819 0.01775 0.28449 0.0
C1157 C 0.49442 0.06386 0.27772 0.0
C1158 C 0.51104 0.06773 0.28643 0.0
C1159 C 0.48996 0.04599 0.27296 0.0
C1160 C 0.47805 0.00747 0.28059 0.0
H1161 H 0.49134 0.91266 0.2709 0.0
H1162 H 0.49475 0.94401 0.26025 0.0
H1163 H 0.45949 0.98592 0.28686 0.0
H1164 H 0.53654 0.05612 0.29586 0.0
H1165 H 0.52858 0.02492 0.28811 0.0
H1166 H 0.52191 0.00173 0.26629 0.0
C1167 C 0.48799 0.94157 0.27314 0.0
C1168 C 0.4731 0.98919 0.2822 0.0
C1169 C 0.48596 0.92362 0.2792 0.0
C1170 C 0.52361 0.05357 0.2892 0.0
C1171 C 0.51907 0.03566 0.28462 0.0
C1172 C 0.5082 -0.00155 0.27065 0.0
C1173 C 0.48177 0.95619 0.28384 0.0
C1174 C 0.48587 0.97533 0.27878 0.0
C1175 C 0.50194 0.03158 0.277 0.0
C1176 C 0.49585 0.01233 0.27538 0.0
H1177 H 0.46436 0.93222 0.3195 0.0
H1178 H 0.46811 0.96338 0.3091 0.0
H1179 H 0.51346 0.9698 0.26967 0.0
H1180 H 0.48455 0.07455 0.27515 0.0
H1181 H 0.47682 0.04337 0.26673 0.0
C1182 C 0.93434 0.5254 0.29054 0.0
C1183 C 0.91993 0.51283 0.28968 0.0
C1184 C 0.95199 0.52015 0.28563 0.0
C1185 C 0.98028 0.47919 0.28433 0.0
H1186 H 0.01561 0.51146 0.26197 0.0
C1187 C 0.0565 0.46043 0.28146 0.0
C1188 C 0.06806 0.47437 0.28768 0.0
C1189 C 0.03831 0.46423 0.27709 0.0
C1190 C 0.00588 0.50228 0.26821 0.0
H1191 H 0.91251 0.48524 0.28191 0.0
H1192 H 0.94324 0.47618 0.27327 0.0
H1193 H 0.98347 0.52015 0.26259 0.0
H1194 H 0.06987 0.50337 0.29338 0.0
H1195 H 0.03832 0.50989 0.28603 0.0
H1196 H 0.0027 0.46167 0.29062 0.0
C1197 C 0.94097 0.48998 0.27802 0.0
C1198 C 0.98751 0.50727 0.26857 0.0
C1199 C 0.92335 0.49521 0.28293 0.0
C1200 C 0.06131 0.49227 0.28872 0.0
C1201 C 0.04323 0.49607 0.28432 0.0
C1202 C -0.00135 0.47423 0.284 0.0
C1203 C 0.95555 0.50225 0.27975 0.0
C1204 C 0.97459 0.49598 0.27706 0.0
C1205 C 0.03142 0.48206 0.27877 0.0
C1206 C 0.01172 0.48595 0.27639 0.0
H1207 H 0.93215 0.53908 0.29564 0.0
H1208 H 0.96297 0.52988 0.28728 0.0
H1209 H 0.97071 0.47028 0.29117 0.0
H1210 H 0.06133 0.44651 0.28042 0.0
H1211 H 0.02956 0.45318 0.27269 0.0
C1212 C 0.49802 0.92205 0.71487 0.0
C1213 C 0.51536 0.91846 0.70755 0.0
C1214 C 0.49362 0.93942 0.72123 0.0
C1215 C 0.51287 0.98504 0.7325 0.0
H1216 H 0.46699 0.00229 0.71266 0.0
C1217 C 0.49932 0.05934 0.71299 0.0
C1218 C 0.48157 0.06644 0.71433 0.0
C1219 C 0.50291 0.04133 0.71785 0.0
C1220 C 0.47964 -0.00234 0.71871 0.0
H1221 H 0.54203 0.92998 0.70215 0.0
H1222 H 0.53423 0.96044 0.71285 0.0
H1223 H 0.47448 0.97015 0.71084 0.0
H1224 H 0.45391 0.0606 0.72297 0.0
H1225 H 0.46022 0.02902 0.73149 0.0
H1226 H 0.51831 0.01285 0.73958 0.0
C1227 C 0.52409 0.94978 0.71393 0.0
C1228 C 0.48396 0.97918 0.71766 0.0
C1229 C 0.52853 0.93234 0.70767 0.0
C1230 C 0.4677 0.05547 0.72165 0.0
C1231 C 0.47129 0.03738 0.72647 0.0
C1232 C 0.50854 0.00357 0.73353 0.0
C1233 C 0.50641 0.95364 0.7203 0.0
C1234 C 0.50084 0.97273 0.72408 0.0
C1235 C 0.48883 0.02999 0.72415 0.0
C1236 C 0.49211 0.01014 0.72616 0.0
H1237 H 0.48763 0.91156 0.71521 0.0
H1238 H 0.48 0.94187 0.72639 0.0
H1239 H 0.52584 0.98043 0.73785 0.0
H1240 H 0.51035 0.06748 0.70753 0.0
H1241 H 0.51652 0.03602 0.71571 0.0
C1242 C 0.93396 0.48515 0.69601 0.0
C1243 C 0.92294 0.49575 0.6845 0.0
C1244 C 0.95121 0.49136 0.70123 0.0
C1245 C 0.98671 0.52407 0.68648 0.0
H1246 H 0.00919 0.51088 0.7325 0.0
C1247 C 0.05932 0.54655 0.70345 0.0
C1248 C 0.07096 0.53177 0.70707 0.0
C1249 C 0.04044 0.54433 0.70421 0.0
C1250 C 0.003 0.51472 0.71965 0.0
H1251 H 0.92078 0.52152 0.67023 0.0
H1252 H 0.95045 0.53269 0.67988 0.0
H1253 H 0.97728 0.50303 0.72687 0.0
H1254 H 0.07202 0.50353 0.7158 0.0
H1255 H 0.039 0.49975 0.71729 0.0
H1256 H 0.0124 0.53573 0.67929 0.0
C1257 C 0.9462 0.51929 0.68435 0.0
C1258 C 0.98479 0.51012 0.71634 0.0
C1259 C 0.92914 0.51293 0.67887 0.0
C1260 C 0.06338 0.51514 0.71281 0.0
C1261 C 0.0445 0.51299 0.71377 0.0
C1262 C 0.00476 0.52888 0.6899 0.0
C1263 C 0.95763 0.50844 0.69529 0.0
C1264 C 0.97651 0.51449 0.69958 0.0
C1265 C 0.03288 0.52737 0.70884 0.0
C1266 C 0.01316 0.52402 0.70638 0.0
H1267 H 0.9295 0.47183 0.70053 0.0
H1268 H 0.9597 0.48251 0.70944 0.0
H1269 H 0.98101 0.52732 0.67325 0.0
H1270 H 0.06473 0.55956 0.69906 0.0
H1271 H 0.03172 0.55567 0.7005 0.0
C1272 C 0.27871 0.49291 0.92383 0.0
C1273 C 0.27826 0.47521 0.91653 0.0
C1274 C 0.27241 0.49626 0.94144 0.0
C1275 C 0.26902 0.47307 0.98483 0.0
H1276 H 0.24674 0.51847 0.00031 0.0
C1277 C 0.26782 0.49242 0.06027 0.0
C1278 C 0.27406 0.51015 0.06397 0.0
C1279 C 0.26255 0.48751 0.04266 0.0
C1280 C 0.25294 0.50572 -0.0038 0.0
H1281 H 0.26991 0.44731 0.92155 0.0
H1282 H 0.25898 0.45318 0.95251 0.0
H1283 H 0.24755 0.51068 0.96792 0.0
H1284 H 0.27868 0.53693 0.05239 0.0
H1285 H 0.26997 0.52826 0.02153 0.0
H1286 H 0.27531 0.46847 0.01284 0.0
C1287 C 0.26432 0.46442 0.94458 0.0
C1288 C 0.25336 0.50124 0.97769 0.0
C1289 C 0.27053 0.46107 0.92686 0.0
C1290 C 0.27397 0.52315 0.04994 0.0
C1291 C 0.26884 0.5182 0.03227 0.0
C1292 C 0.26866 0.47756 0.0033 0.0
C1293 C 0.26559 0.48198 0.95217 0.0
C1294 C 0.26191 0.48514 0.97178 0.0
C1295 C 0.26357 0.50018 0.02834 0.0
C1296 C 0.26112 0.4942 0.00915 0.0
H1297 H 0.28446 0.50414 0.91616 0.0
H1298 H 0.2738 0.50989 0.94696 0.0
H1299 H 0.27592 0.46068 0.9807 0.0
H1300 H 0.26747 0.48216 0.07087 0.0
H1301 H 0.25821 0.47363 0.04016 0.0
C1302 C 0.50853 0.28057 0.92726 0.0
C1303 C 0.51716 0.29736 0.92394 0.0
C1304 C 0.50529 0.27478 0.94513 0.0
C1305 C 0.51763 0.2839 0.99338 0.0
H1306 H 0.46792 0.26904 0.00343 0.0
C1307 C 0.46449 0.29126 0.05557 0.0
C1308 C 0.47621 0.28758 0.07025 0.0
C1309 C 0.46972 0.287 0.03777 0.0
C1310 C 0.48187 0.27309 0.00084 0.0
H1311 H 0.52993 0.32079 0.9367 0.0
H1312 H 0.52417 0.31081 0.96772 0.0
H1313 H 0.47803 0.27231 0.97193 0.0
H1314 H 0.5019 0.2751 0.07799 0.0
H1315 H 0.51086 0.26733 0.04697 0.0
H1316 H 0.52119 0.28587 0.02219 0.0
C1317 C 0.52002 0.30201 0.9566 0.0
C1318 C 0.48773 0.27476 0.9828 0.0
C1319 C 0.52321 0.30781 0.93879 0.0
C1320 C 0.49267 0.27835 0.06692 0.0
C1321 C 0.49785 0.27396 0.04914 0.0
C1322 C 0.51177 0.28229 0.01139 0.0
C1323 C 0.51072 0.28561 0.95998 0.0
C1324 C 0.5055 0.28077 0.97889 0.0
C1325 C 0.48673 0.27883 0.03431 0.0
C1326 C 0.49366 0.27741 0.01534 0.0
H1327 H 0.50377 0.27217 0.91609 0.0
H1328 H 0.49825 0.262 0.94732 0.0
H1329 H 0.53149 0.28829 0.9908 0.0
H1330 H 0.45169 0.29833 0.05768 0.0
H1331 H 0.46089 0.2911 0.02667 0.0
C1332 C 0.72442 0.52884 0.92851 0.0
C1333 C 0.71793 0.51467 0.91736 0.0
C1334 C 0.72921 0.5254 0.94665 0.0
C1335 C 0.73815 0.48831 0.98011 0.0
H1336 H 0.71374 0.52077 0.01391 0.0
C1337 C 0.71341 0.46624 0.05106 0.0
C1338 C 0.71275 0.47922 0.06512 0.0
C1339 C 0.71937 0.4712 0.03367 0.0
C1340 C 0.72103 0.51176 0.00476 0.0
H1341 H 0.71248 0.48561 0.91612 0.0
H1342 H 0.72061 0.47971 0.94765 0.0
H1343 H 0.71512 0.52869 0.98183 0.0
H1344 H 0.71911 0.50719 0.07238 0.0
H1345 H 0.72974 0.51573 0.04214 0.0
H1346 H 0.74339 0.47102 0.00305 0.0
C1347 C 0.72214 0.49343 0.94244 0.0
C1348 C 0.72183 0.51633 0.98633 0.0
C1349 C 0.71729 0.49687 0.92439 0.0
C1350 C 0.71921 0.49694 0.06175 0.0
C1351 C 0.72525 0.50186 0.04441 0.0
C1352 C 0.73737 0.48374 -0.00141 0.0
C1353 C 0.72771 0.50773 0.95391 0.0
C1354 C 0.72991 0.50439 0.97372 0.0
C1355 C 0.72488 0.4892 0.03004 0.0
C1356 C 0.72833 0.49518 0.01102 0.0
H1357 H 0.72517 0.54268 0.92345 0.0
H1358 H 0.73363 0.53666 0.95513 0.0
H1359 H 0.7447 0.47897 0.97072 0.0
H1360 H 0.70857 0.45247 0.05325 0.0
H1361 H 0.71874 0.46115 0.02286 0.0
C1362 C 0.46611 0.70903 0.93594 0.0
C1363 C 0.47997 0.70882 0.92274 0.0
C1364 C 0.46991 0.71447 0.9538 0.0
C1365 C 0.50863 0.71559 0.98532 0.0
H1366 H 0.47332 0.7374 0.01805 0.0
C1367 C 0.52112 0.71703 0.06254 0.0
C1368 C 0.50654 0.70979 0.07262 0.0
C1369 C 0.51859 0.72227 0.04438 0.0
C1370 C 0.48335 0.73137 0.00904 0.0
H1371 H 0.50831 0.71551 0.91752 0.0
H1372 H 0.51482 0.72532 0.94857 0.0
H1373 H 0.46742 0.73715 0.98525 0.0
H1374 H 0.47764 0.70347 0.07197 0.0
H1375 H 0.4733 0.71242 0.04038 0.0
H1376 H 0.52423 0.7092 0.00906 0.0
C1377 C 0.50114 0.72083 0.94527 0.0
C1378 C 0.47996 0.73119 0.99028 0.0
C1379 C 0.49739 0.71526 0.92746 0.0
C1380 C 0.48919 0.70886 0.06453 0.0
C1381 C 0.48665 0.71417 0.04646 0.0
C1382 C 0.51203 0.71582 0.00402 0.0
C1383 C 0.4876 0.71995 0.95878 0.0
C1384 C 0.49232 0.72282 0.97827 0.0
C1385 C 0.50141 0.72049 0.03604 0.0
C1386 C 0.49918 0.72322 0.01613 0.0
H1387 H 0.45254 0.70417 0.93271 0.0
H1388 H 0.45919 0.71345 0.96389 0.0
H1389 H 0.51833 0.70878 0.97652 0.0
H1390 H 0.53462 0.71803 0.06843 0.0
H1391 H 0.53017 0.72727 0.03672 0.0
C1392 C 0.19398 0.28342 0.50328 0.0
C1393 C 0.17754 0.28179 0.51296 0.0
C1394 C 0.20584 0.26864 0.50187 0.0
C1395 C 0.21896 0.22588 0.52364 0.0
H1396 H 0.23845 0.21375 0.47597 0.0
C1397 C 0.27815 0.17529 0.5131 0.0
C1398 C 0.27587 0.16226 0.49924 0.0
C1399 C 0.26585 0.18969 0.51489 0.0
C1400 C 0.23303 0.21694 0.48933 0.0
H1401 H 0.16081 0.26354 0.52911 0.0
H1402 H 0.18172 0.23769 0.52678 0.0
H1403 H 0.21735 0.23933 0.47914 0.0
H1404 H 0.25904 0.15417 0.47627 0.0
H1405 H 0.23763 0.17948 0.47934 0.0
H1406 H 0.23469 0.20349 0.53383 0.0
C1407 C 0.18534 0.25043 0.52027 0.0
C1408 C 0.2211 0.23163 0.49117 0.0
C1409 C 0.17337 0.26519 0.52154 0.0
C1410 C 0.26115 0.164 0.4871 0.0
C1411 C 0.24894 0.1785 0.48879 0.0
C1412 C 0.23103 0.21128 0.52183 0.0
C1413 C 0.20158 0.25199 0.51026 0.0
C1414 C 0.214 0.23626 0.50834 0.0
C1415 C 0.25114 0.19141 0.50277 0.0
C1416 C 0.23818 0.20671 0.50466 0.0
H1417 H 0.19759 0.29603 0.49652 0.0
H1418 H 0.21838 0.27024 0.49426 0.0
H1419 H 0.21373 0.22924 0.53704 0.0
H1420 H 0.28935 0.17432 0.52268 0.0
H1421 H 0.26795 0.19959 0.52566 0.0
C1422 C 0.70759 0.19152 0.48777 0.0
C1423 C 0.71288 0.17465 0.49515 0.0
C1424 C 0.72072 0.20424 0.48246 0.0
C1425 C 0.76842 0.20707 0.46805 0.0
H1426 H 0.7655 0.25769 0.48297 0.0
C1427 C 0.83029 0.25457 0.4682 0.0
C1428 C 0.82782 0.2731 0.46407 0.0
C1429 C 0.81536 0.24288 0.46919 0.0
C1430 C 0.76633 0.24369 0.47837 0.0
H1431 H 0.73606 0.15805 0.50317 0.0
H1432 H 0.75889 0.18023 0.49392 0.0
H1433 H 0.74081 0.23681 0.49077 0.0
H1434 H 0.80787 0.29374 0.45688 0.0
H1435 H 0.78176 0.2732 0.45844 0.0
H1436 H 0.79399 0.2138 0.45584 0.0
C1437 C 0.74461 0.18353 0.49205 0.0
C1438 C 0.75224 0.23174 0.4829 0.0
C1439 C 0.73152 0.1709 0.49748 0.0
C1440 C 0.8102 0.27954 0.46021 0.0
C1441 C 0.79523 0.26782 0.46119 0.0
C1442 C 0.78245 0.219 0.46344 0.0
C1443 C 0.73934 0.20021 0.48429 0.0
C1444 C 0.75337 0.21325 0.47813 0.0
C1445 C 0.79764 0.24945 0.46601 0.0
C1446 C 0.78175 0.23734 0.46891 0.0
H1447 H 0.69332 0.1948 0.48584 0.0
H1448 H 0.71633 0.21701 0.4765 0.0
H1449 H 0.76944 0.19293 0.4639 0.0
H1450 H 0.8437 0.24917 0.47122 0.0
H1451 H 0.81766 0.22885 0.47317 0.0
C1452 C 0.7867 0.70388 0.50524 0.0
C1453 C 0.80501 0.7074 0.50959 0.0
C1454 C 0.77483 0.71817 0.50116 0.0
C1455 C 0.7747 0.76547 0.48489 0.0
H1456 H 0.72547 0.76634 0.50412 0.0
C1457 C 0.72858 0.82884 0.48166 0.0
C1458 C 0.70987 0.82626 0.47848 0.0
C1459 C 0.74011 0.81392 0.48401 0.0
C1460 C 0.73909 0.76614 0.49841 0.0
H1461 H 0.82517 0.7287 0.51352 0.0
H1462 H 0.80437 0.75368 0.50656 0.0
H1463 H 0.74574 0.74119 0.51196 0.0
H1464 H 0.68869 0.806 0.47452 0.0
H1465 H 0.70893 0.77988 0.47845 0.0
H1466 H 0.76808 0.79047 0.47142 0.0
C1467 C 0.79928 0.73983 0.50605 0.0
C1468 C 0.7507 0.75177 0.50295 0.0
C1469 C 0.81114 0.72553 0.51017 0.0
C1470 C 0.70303 0.80843 0.47706 0.0
C1471 C 0.71459 0.79348 0.47942 0.0
C1472 C 0.76308 0.77982 0.48033 0.0
C1473 C 0.78106 0.73627 0.50133 0.0
C1474 C 0.76865 0.75137 0.49634 0.0
C1475 C 0.73318 0.79609 0.4832 0.0
C1476 C 0.7452 0.78036 0.48715 0.0
H1477 H 0.78156 0.69005 0.50466 0.0
H1478 H 0.76089 0.71501 0.49744 0.0
H1479 H 0.78837 0.76533 0.47933 0.0
H1480 H 0.73429 0.84241 0.48282 0.0
H1481 H 0.75435 0.81637 0.48709 0.0
C1482 C 0.15921 0.73227 0.48919 0.0
C1483 C 0.15929 0.71522 0.49787 0.0
C1484 C 0.1734 0.74459 0.49212 0.0
C1485 C 0.22137 0.74626 0.50684 0.0
H1486 H 0.21228 0.79829 0.50854 0.0
C1487 C 0.27776 0.79964 0.49584 0.0
C1488 C 0.27671 0.8161 0.50555 0.0
C1489 C 0.26381 0.78679 0.49717 0.0
C1490 C 0.21506 0.78379 0.50836 0.0
H1491 H 0.17394 0.69792 0.51689 0.0
H1492 H 0.1985 0.71957 0.52227 0.0
H1493 H 0.18669 0.77727 0.50713 0.0
H1494 H 0.26073 0.83164 0.52501 0.0
H1495 H 0.23658 0.80904 0.52764 0.0
H1496 H 0.24974 0.75278 0.50833 0.0
C1497 C 0.1877 0.72326 0.5129 0.0
C1498 C 0.20039 0.77176 0.5073 0.0
C1499 C 0.17358 0.7109 0.50988 0.0
C1500 C 0.26182 0.81915 0.51719 0.0
C1501 C 0.24794 0.80625 0.51863 0.0
C1502 C 0.23604 0.75829 0.50801 0.0
C1503 C 0.18787 0.74016 0.5039 0.0
C1504 C 0.20338 0.75288 0.50627 0.0
C1505 C 0.2486 0.79009 0.50836 0.0
C1506 C 0.23305 0.7772 0.50853 0.0
H1507 H 0.14841 0.73595 0.47982 0.0
H1508 H 0.17325 0.75739 0.48478 0.0
H1509 H 0.22415 0.73179 0.5059 0.0
H1510 H 0.28906 0.79691 0.48674 0.0
H1511 H 0.26464 0.77457 0.48892 0.0
C1512 C 0.48734 0.18733 0.28696 0.0
C1513 C 0.49796 0.17164 0.28417 0.0
C1514 C 0.48728 0.20133 0.27407 0.0
C1515 C 0.49663 0.20954 0.22546 0.0
H1516 H 0.49444 0.26043 0.23964 0.0
C1517 C 0.5022 0.28502 0.19015 0.0
C1518 C 0.49122 0.28205 0.17473 0.0
C1519 C 0.50319 0.27194 0.20394 0.0
C1520 C 0.4952 0.24629 0.23547 0.0
H1521 H 0.51731 0.15854 0.26602 0.0
H1522 H 0.51745 0.18309 0.24371 0.0
H1523 H 0.49693 0.23696 0.26305 0.0
H1524 H 0.4723 0.26327 0.16188 0.0
H1525 H 0.47378 0.24064 0.18607 0.0
H1526 H 0.49532 0.21883 0.1979 0.0
C1527 C 0.50886 0.18443 0.25565 0.0
C1528 C 0.49642 0.23284 0.24888 0.0
C1529 C 0.50886 0.1704 0.26848 0.0
C1530 C 0.481 0.26591 0.17353 0.0
C1531 C 0.48193 0.25289 0.18734 0.0
C1532 C 0.49546 0.22297 0.21207 0.0
C1533 C 0.4979 0.19994 0.25818 0.0
C1534 C 0.49709 0.21432 0.24402 0.0
C1535 C 0.49317 0.25567 0.20261 0.0
C1536 C 0.49463 0.24149 0.21692 0.0
H1537 H 0.47878 0.18868 0.2989 0.0
H1538 H 0.47853 0.21301 0.27632 0.0
H1539 H 0.49689 0.19539 0.22126 0.0
H1540 H 0.51027 0.29731 0.19145 0.0
H1541 H 0.51212 0.27441 0.21545 0.0
C1542 C 0.81971 0.50022 0.26414 0.0
C1543 C 0.81837 0.49117 0.28096 0.0
C1544 C 0.80711 0.49679 0.25032 0.0
C1545 C 0.76103 0.47907 0.2418 0.0
H1546 H 0.77866 0.47462 0.19214 0.0
C1547 C 0.71385 0.461 0.18121 0.0
C1548 C 0.71606 0.47191 0.16562 0.0
C1549 C 0.72648 0.46188 0.19545 0.0
C1550 C 0.77354 0.47592 0.20593 0.0
H1551 H 0.80265 0.47158 0.29656 0.0
H1552 H 0.78069 0.46551 0.27232 0.0
H1553 H 0.80033 0.47919 0.21693 0.0
H1554 H 0.73333 0.49211 0.15263 0.0
H1555 H 0.75523 0.49367 0.17746 0.0
H1556 H 0.7342 0.47596 0.23072 0.0
C1557 C 0.79142 0.47536 0.26991 0.0
C1558 C 0.78592 0.47857 0.22011 0.0
C1559 C 0.80403 0.47879 0.28376 0.0
C1560 C 0.73124 0.48351 0.16445 0.0
C1561 C 0.74386 0.48433 0.17862 0.0
C1562 C 0.74863 0.47639 0.2276 0.0
C1563 C 0.79292 0.48423 0.25301 0.0
C1564 C 0.77978 0.48043 0.23815 0.0
C1565 C 0.74158 0.4736 0.1943 0.0
C1566 C 0.75475 0.47505 0.20951 0.0
H1567 H 0.83054 0.50991 0.26158 0.0
H1568 H 0.80842 0.50408 0.23755 0.0
H1569 H 0.7559 0.48061 0.25556 0.0
H1570 H 0.7023 0.4519 0.18249 0.0
H1571 H 0.72448 0.45335 0.20733 0.0
C1572 C 0.50927 0.7252 0.16896 0.0
C1573 C 0.51276 0.70668 0.1723 0.0
C1574 C 0.51098 0.738 0.18291 0.0
C1575 C 0.50951 0.74197 0.23267 0.0
H1576 H 0.52789 0.79056 0.22296 0.0
C1577 C 0.51132 0.79856 0.28761 0.0
C1578 C 0.50423 0.81543 0.28192 0.0
C1579 C 0.5149 0.78483 0.2749 0.0
C1580 C 0.5227 0.77705 0.22585 0.0
H1581 H 0.52122 0.68708 0.19278 0.0
H1582 H 0.52433 0.70953 0.21718 0.0
H1583 H 0.52996 0.76718 0.19939 0.0
H1584 H 0.49558 0.83123 0.25843 0.0
H1585 H 0.50176 0.80729 0.23633 0.0
H1586 H 0.50194 0.75197 0.25902 0.0
C1587 C 0.52006 0.71409 0.20379 0.0
C1588 C 0.52386 0.76368 0.21237 0.0
C1589 C 0.51835 0.70126 0.18981 0.0
C1590 C 0.50103 0.81838 0.26327 0.0
C1591 C 0.5047 0.80472 0.25058 0.0
C1592 C 0.50839 0.75534 0.24618 0.0
C1593 C 0.51626 0.73257 0.20051 0.0
C1594 C 0.51691 0.74612 0.21549 0.0
C1595 C 0.51159 0.78778 0.25626 0.0
C1596 C 0.51461 0.77311 0.24274 0.0
H1597 H 0.50492 0.72983 0.15562 0.0
H1598 H 0.50767 0.75209 0.18001 0.0
H1599 H 0.50386 0.72861 0.23542 0.0
H1600 H 0.51396 0.7959 0.3019 0.0
H1601 H 0.52031 0.77193 0.27962 0.0
C1602 C 0.16448 0.48764 0.26336 0.0
C1603 C 0.16679 0.49615 0.28037 0.0
C1604 C 0.17653 0.49123 0.24911 0.0
C1605 C 0.22263 0.50877 0.23962 0.0
H1606 H 0.20381 0.5142 0.19049 0.0
C1607 C 0.26827 0.52952 0.17914 0.0
C1608 C 0.26645 0.51861 0.1635 0.0
C1609 C 0.25565 0.52818 0.19331 0.0
C1610 C 0.20924 0.51264 0.20413 0.0
H1611 H 0.18353 0.51506 0.2958 0.0
H1612 H 0.2044 0.5215 0.27085 0.0
H1613 H 0.18275 0.50882 0.21563 0.0
H1614 H 0.24972 0.49813 0.15019 0.0
H1615 H 0.22774 0.49582 0.17491 0.0
H1616 H 0.24914 0.51256 0.22807 0.0
C1617 C 0.19344 0.51186 0.2686 0.0
C1618 C 0.19721 0.5095 0.21851 0.0
C1619 C 0.18144 0.50822 0.28288 0.0
C1620 C 0.25153 0.50669 0.16209 0.0
C1621 C 0.23887 0.50544 0.17619 0.0
C1622 C 0.23465 0.51199 0.22525 0.0
C1623 C 0.19109 0.50345 0.25155 0.0
C1624 C 0.2038 0.50735 0.23638 0.0
C1625 C 0.24092 0.51602 0.19201 0.0
C1626 C 0.22807 0.51378 0.20736 0.0
H1627 H 0.15336 0.47822 0.26103 0.0
H1628 H 0.17454 0.48431 0.23621 0.0
H1629 H 0.22815 0.50694 0.2532 0.0
H1630 H 0.27961 0.53886 0.1806 0.0
H1631 H 0.25743 0.53661 0.20532 0.0
C1632 C 0.48036 0.72514 0.82132 0.0
C1633 C 0.48999 0.70871 0.81932 0.0
C1634 C 0.47997 0.73784 0.80718 0.0
C1635 C 0.48874 0.74353 0.75778 0.0
H1636 H 0.49498 0.79426 0.77126 0.0
C1637 C 0.4844 0.8025 0.7056 0.0
C1638 C 0.49688 0.81686 0.70777 0.0
C1639 C 0.48306 0.78886 0.71881 0.0
C1640 C 0.49337 0.78014 0.76725 0.0
H1641 H 0.50646 0.69252 0.80083 0.0
H1642 H 0.50609 0.71487 0.77629 0.0
H1643 H 0.49335 0.77117 0.79494 0.0
H1644 H 0.5181 0.82793 0.7252 0.0
H1645 H 0.51599 0.80399 0.74801 0.0
H1646 H 0.48937 0.75252 0.73003 0.0
C1647 C 0.49859 0.71782 0.78866 0.0
C1648 C 0.49217 0.76693 0.78084 0.0
C1649 C 0.4989 0.70506 0.80277 0.0
C1650 C 0.50823 0.81712 0.7232 0.0
C1651 C 0.50695 0.80346 0.73633 0.0
C1652 C 0.49 0.75677 0.74416 0.0
C1653 C 0.48929 0.73444 0.79079 0.0
C1654 C 0.48991 0.74847 0.77627 0.0
C1655 C 0.49421 0.78929 0.73439 0.0
C1656 C 0.49245 0.7752 0.74876 0.0
H1657 H 0.47322 0.72827 0.83386 0.0
H1658 H 0.47241 0.75038 0.80913 0.0
H1659 H 0.48681 0.72943 0.75383 0.0
H1660 H 0.47544 0.80195 0.69387 0.0
H1661 H 0.473 0.77821 0.71701 0.0
C1662 C 0.26763 0.49138 0.82109 0.0
C1663 C 0.28638 0.49084 0.81724 0.0
C1664 C 0.25522 0.49704 0.80787 0.0
C1665 C 0.24851 0.50183 0.7588 0.0
H1666 H 0.2102 0.53526 0.7734 0.0
C1667 C 0.19381 0.52652 0.70809 0.0
C1668 C 0.17581 0.52563 0.71457 0.0
C1669 C 0.20849 0.52478 0.72011 0.0
C1670 C 0.22077 0.52587 0.76914 0.0
H1671 H 0.30679 0.49539 0.79633 0.0
H1672 H 0.28496 0.50518 0.77309 0.0
H1673 H 0.23369 0.52658 0.79528 0.0
H1674 H 0.15908 0.52296 0.73881 0.0
H1675 H 0.1846 0.5197 0.75968 0.0
H1676 H 0.23531 0.50067 0.73282 0.0
C1677 C 0.27996 0.50123 0.78641 0.0
C1678 C 0.2342 0.52091 0.78165 0.0
C1679 C 0.29242 0.49566 0.79971 0.0
C1680 C 0.17278 0.52369 0.73338 0.0
C1681 C 0.18743 0.52193 0.74537 0.0
C1682 C 0.23502 0.50673 0.74629 0.0
C1683 C 0.26127 0.50221 0.79047 0.0
C1684 C 0.24799 0.50858 0.77671 0.0
C1685 C 0.20544 0.52215 0.73883 0.0
C1686 C 0.22081 0.51854 0.75144 0.0
H1687 H 0.2625 0.48771 0.83444 0.0
H1688 H 0.24085 0.49735 0.81126 0.0
H1689 H 0.25894 0.49221 0.75468 0.0
H1690 H 0.19659 0.52811 0.69368 0.0
H1691 H 0.22222 0.52526 0.71471 0.0
C1692 C 0.4787 0.16573 0.72696 0.0
C1693 C 0.48874 0.16745 0.71075 0.0
C1694 C 0.47868 0.17977 0.73982 0.0
C1695 C 0.48937 0.22875 0.74589 0.0
H1696 H 0.49391 0.21518 0.79678 0.0
C1697 C 0.48704 0.28167 0.80421 0.0
C1698 C 0.49929 0.27909 0.81872 0.0
C1699 C 0.48496 0.26826 0.79085 0.0
C1700 C 0.49277 0.2192 0.78262 0.0
H1701 H 0.50639 0.18532 0.69516 0.0
H1702 H 0.50663 0.20963 0.71773 0.0
H1703 H 0.49164 0.19151 0.77365 0.0
H1704 H 0.51918 0.26059 0.83045 0.0
H1705 H 0.51582 0.2374 0.80697 0.0
H1706 H 0.49117 0.25645 0.75484 0.0
C1707 C 0.49853 0.19759 0.7204 0.0
C1708 C 0.49121 0.20563 0.76938 0.0
C1709 C 0.49848 0.1836 0.7075 0.0
C1710 C 0.50955 0.26294 0.8195 0.0
C1711 C 0.50753 0.24959 0.80611 0.0
C1712 C 0.49101 0.24233 0.75914 0.0
C1713 C 0.48875 0.19577 0.73677 0.0
C1714 C 0.4896 0.21025 0.75086 0.0
C1715 C 0.49513 0.25204 0.79169 0.0
C1716 C 0.49286 0.23769 0.77764 0.0
H1717 H 0.47095 0.1535 0.7298 0.0
H1718 H 0.47077 0.17807 0.75217 0.0
H1719 H 0.48795 0.23276 0.73175 0.0
H1720 H 0.47888 0.29395 0.80328 0.0
H1721 H 0.47515 0.27048 0.78003 0.0
C1722 C 0.71207 0.49209 0.79967 0.0
C1723 C 0.71737 0.49904 0.81672 0.0
C1724 C 0.72515 0.4873 0.78673 0.0
C1725 C 0.77324 0.47395 0.78274 0.0
H1726 H 0.76659 0.486 0.7317 0.0
C1727 C 0.83019 0.46736 0.72892 0.0
C1728 C 0.82523 0.46168 0.7113 0.0
C1729 C 0.81688 0.47039 0.74216 0.0
C1730 C 0.7685 0.48228 0.74586 0.0
H1731 H 0.74053 0.50689 0.8334 0.0
H1732 H 0.76336 0.49868 0.8107 0.0
H1733 H 0.74366 0.49529 0.75386 0.0
H1734 H 0.80253 0.45374 0.69404 0.0
H1735 H 0.77933 0.4588 0.71725 0.0
H1736 H 0.79815 0.46102 0.77474 0.0
C1737 C 0.74909 0.49668 0.80747 0.0
C1738 C 0.7554 0.48766 0.75855 0.0
C1739 C 0.73601 0.50151 0.82041 0.0
C1740 C 0.80678 0.45826 0.70745 0.0
C1741 C 0.79348 0.46126 0.7207 0.0
C1742 C 0.78634 0.46855 0.77005 0.0
C1743 C 0.74379 0.48935 0.79058 0.0
C1744 C 0.75768 0.48361 0.77712 0.0
C1745 C 0.79835 0.46775 0.73805 0.0
C1746 C 0.78413 0.47272 0.75148 0.0
H1747 H 0.69781 0.49001 0.79642 0.0
H1748 H 0.72067 0.48155 0.77388 0.0
H1749 H 0.7752 0.47038 0.79694 0.0
H1750 H 0.8443 0.47012 0.73232 0.0
H1751 H 0.82105 0.47551 0.75538 0.0
loop_
_geom_bond_atom_site_label_1
_geom_bond_atom_site_label_2
_geom_bond_distance
_geom_bond_site_symmetry_2
_ccdc_geom_bond_type
C0 O1 1.160 . S
C0 O7 1.185 . S
O1 C0 1.160 . S
O2 Zn3 1.899 . S
O2 C10 1.284 . S
Zn3 O2 1.899 . S
Zn3 O4 2.032 . S
Zn3 O7 2.086 . S
Zn3 O12 1.977 . S
O4 Zn3 2.032 . S
O4 C8 1.278 . S
C5 O6 1.203 . S
C5 O12 1.267 . S
O6 C5 1.203 . S
O7 C0 1.185 . S
O7 Zn3 2.086 . S
C8 O4 1.278 . S
C8 O9 1.211 . S
O9 C8 1.211 . S
C10 O2 1.284 . S
C10 O11 1.273 . S
O11 C10 1.273 . S
O12 Zn3 1.977 . S
O12 C5 1.267 . S
C13 O14 1.160 . S
C13 O20 1.185 . S
O14 C13 1.160 . S
O15 Zn16 1.899 . S
O15 C23 1.284 . S
Zn16 O15 1.899 . S
Zn16 O17 2.032 . S
Zn16 O20 2.086 . S
Zn16 O25 1.977 . S
O17 Zn16 2.032 . S
O17 C21 1.278 . S
C18 O19 1.203 . S
C18 O25 1.267 . S
O19 C18 1.203 . S
O20 C13 1.185 . S
O20 Zn16 2.086 . S
C21 O17 1.278 . S
C21 O22 1.211 . S
O22 C21 1.211 . S
C23 O15 1.284 . S
C23 O24 1.273 . S
O24 C23 1.273 . S
O25 Zn16 1.977 . S
O25 C18 1.267 . S
C26 O27 1.160 . S
C26 O33 1.185 . S
O27 C26 1.160 . S
O28 Zn29 1.899 . S
O28 C36 1.284 . S
Zn29 O28 1.899 . S
Zn29 O30 2.032 . S
Zn29 O33 2.086 . S
Zn29 O38 1.977 . S
O30 Zn29 2.032 . S
O30 C34 1.278 . S
C31 O32 1.203 . S
C31 O38 1.267 . S
O32 C31 1.203 . S
O33 C26 1.185 . S
O33 Zn29 2.086 . S
C34 O30 1.278 . S
C34 O35 1.211 . S
O35 C34 1.211 . S
C36 O28 1.284 . S
C36 O37 1.273 . S
O37 C36 1.273 . S
O38 Zn29 1.977 . S
O38 C31 1.267 . S
C39 O40 1.160 . S
C39 O46 1.185 . S
O40 C39 1.160 . S
O41 Zn42 1.899 . S
O41 C49 1.284 . S
Zn42 O41 1.899 . S
Zn42 O43 2.032 . S
Zn42 O46 2.086 . S
Zn42 O51 1.977 . S
O43 Zn42 2.032 . S
O43 C47 1.278 . S
C44 O45 1.203 . S
C44 O51 1.267 . S
O45 C44 1.203 . S
O46 C39 1.185 . S
O46 Zn42 2.086 . S
C47 O43 1.278 . S
C47 O48 1.211 . S
O48 C47 1.211 . S
C49 O41 1.284 . S
C49 O50 1.273 . S
O50 C49 1.273 . S
O51 Zn42 1.977 . S
O51 C44 1.267 . S
C52 O53 1.160 . S
C52 O59 1.185 . S
O53 C52 1.160 . S
O54 Zn55 1.899 . S
O54 C62 1.284 . S
Zn55 O54 1.899 . S
Zn55 O56 2.032 . S
Zn55 O59 2.086 . S
Zn55 O64 1.977 . S
O56 Zn55 2.032 . S
O56 C60 1.278 . S
C57 O58 1.203 . S
C57 O64 1.267 . S
O58 C57 1.203 . S
O59 C52 1.185 . S
O59 Zn55 2.086 . S
C60 O56 1.278 . S
C60 O61 1.211 . S
O61 C60 1.211 . S
C62 O54 1.284 . S
C62 O63 1.273 . S
O63 C62 1.273 . S
O64 Zn55 1.977 . S
O64 C57 1.267 . S
C65 O66 1.160 . S
C65 O72 1.185 . S
O66 C65 1.160 . S
O67 Zn68 1.899 . S
O67 C75 1.284 . S
Zn68 O67 1.899 . S
Zn68 O69 2.032 . S
Zn68 O72 2.086 . S
Zn68 O77 1.977 . S
O69 Zn68 2.032 . S
O69 C73 1.278 . S
C70 O71 1.203 . S
C70 O77 1.267 . S
O71 C70 1.203 . S
O72 C65 1.185 . S
O72 Zn68 2.086 . S
C73 O69 1.278 . S
C73 O74 1.211 . S
O74 C73 1.211 . S
C75 O67 1.284 . S
C75 O76 1.273 . S
O76 C75 1.273 . S
O77 Zn68 1.977 . S
O77 C70 1.267 . S
C78 O79 1.160 . S
C78 O85 1.185 . S
O79 C78 1.160 . S
O80 Zn81 1.899 . S
O80 C88 1.284 . S
Zn81 O80 1.899 . S
Zn81 O82 2.032 . S
Zn81 O85 2.086 . S
Zn81 O90 1.977 . S
O82 Zn81 2.032 . S
O82 C86 1.278 . S
C83 O84 1.203 . S
C83 O90 1.267 . S
O84 C83 1.203 . S
O85 C78 1.185 . S
O85 Zn81 2.086 . S
C86 O82 1.278 . S
C86 O87 1.211 . S
O87 C86 1.211 . S
C88 O80 1.284 . S
C88 O89 1.273 . S
O89 C88 1.273 . S
O90 Zn81 1.977 . S
O90 C83 1.267 . S
C91 O92 1.160 . S
C91 O98 1.185 . S
O92 C91 1.160 . S
O93 Zn94 1.899 . S
O93 C101 1.284 . S
Zn94 O93 1.899 . S
Zn94 O95 2.032 . S
Zn94 O98 2.086 . S
Zn94 O103 1.977 . S
O95 Zn94 2.032 . S
O95 C99 1.278 . S
C96 O97 1.203 . S
C96 O103 1.267 . S
O97 C96 1.203 . S
O98 C91 1.185 . S
O98 Zn94 2.086 . S
C99 O95 1.278 . S
C99 O100 1.211 . S
O100 C99 1.211 . S
C101 O93 1.284 . S
C101 O102 1.273 . S
O102 C101 1.273 . S
O103 Zn94 1.977 . S
O103 C96 1.267 . S
C104 O105 1.160 . S
C104 O111 1.185 . S
O105 C104 1.160 . S
O106 Zn107 1.899 . S
O106 C114 1.284 . S
Zn107 O106 1.899 . S
Zn107 O108 2.032 . S
Zn107 O111 2.086 . S
Zn107 O116 1.977 . S
O108 Zn107 2.032 . S
O108 C112 1.278 . S
C109 O110 1.203 . S
C109 O116 1.267 . S
O110 C109 1.203 . S
O111 C104 1.185 . S
O111 Zn107 2.086 . S
C112 O108 1.278 . S
C112 O113 1.211 . S
O113 C112 1.211 . S
C114 O106 1.284 . S
C114 O115 1.273 . S
O115 C114 1.273 . S
O116 Zn107 1.977 . S
O116 C109 1.267 . S
C117 O118 1.160 . S
C117 O124 1.185 . S
O118 C117 1.160 . S
O119 Zn120 1.899 . S
O119 C127 1.284 . S
Zn120 O119 1.899 . S
Zn120 O121 2.032 . S
Zn120 O124 2.086 . S
Zn120 O129 1.977 . S
O121 Zn120 2.032 . S
O121 C125 1.278 . S
C122 O123 1.203 . S
C122 O129 1.267 . S
O123 C122 1.203 . S
O124 C117 1.185 . S
O124 Zn120 2.086 . S
C125 O121 1.278 . S
C125 O126 1.211 . S
O126 C125 1.211 . S
C127 O119 1.284 . S
C127 O128 1.273 . S
O128 C127 1.273 . S
O129 Zn120 1.977 . S
O129 C122 1.267 . S
C130 O131 1.160 . S
C130 O137 1.185 . S
O131 C130 1.160 . S
O132 Zn133 1.899 . S
O132 C140 1.284 . S
Zn133 O132 1.899 . S
Zn133 O134 2.032 . S
Zn133 O137 2.086 . S
Zn133 O142 1.977 . S
O134 Zn133 2.032 . S
O134 C138 1.278 . S
C135 O136 1.203 . S
C135 O142 1.267 . S
O136 C135 1.203 . S
O137 C130 1.185 . S
O137 Zn133 2.086 . S
C138 O134 1.278 . S
C138 O139 1.211 . S
O139 C138 1.211 . S
C140 O132 1.284 . S
C140 O141 1.273 . S
O141 C140 1.273 . S
O142 Zn133 1.977 . S
O142 C135 1.267 . S
C143 O144 1.160 . S
C143 O150 1.185 . S
O144 C143 1.160 . S
O145 Zn146 1.899 . S
O145 C153 1.284 . S
Zn146 O145 1.899 . S
Zn146 O147 2.032 . S
Zn146 O150 2.086 . S
Zn146 O155 1.977 . S
O147 Zn146 2.032 . S
O147 C151 1.278 . S
C148 O149 1.203 . S
C148 O155 1.267 . S
O149 C148 1.203 . S
O150 C143 1.185 . S
O150 Zn146 2.086 . S
C151 O147 1.278 . S
C151 O152 1.211 . S
O152 C151 1.211 . S
C153 O145 1.284 . S
C153 O154 1.273 . S
O154 C153 1.273 . S
O155 Zn146 1.977 . S
O155 C148 1.267 . S
C156 O157 1.160 . S
C156 O163 1.185 . S
O157 C156 1.160 . S
O158 Zn159 1.899 . S
O158 C166 1.284 . S
Zn159 O158 1.899 . S
Zn159 O160 2.032 . S
Zn159 O163 2.086 . S
Zn159 O168 1.977 . S
O160 Zn159 2.032 . S
O160 C164 1.278 . S
C161 O162 1.203 . S
C161 O168 1.267 . S
O162 C161 1.203 . S
O163 C156 1.185 . S
O163 Zn159 2.086 . S
C164 O160 1.278 . S
C164 O165 1.211 . S
O165 C164 1.211 . S
C166 O158 1.284 . S
C166 O167 1.273 . S
O167 C166 1.273 . S
O168 Zn159 1.977 . S
O168 C161 1.267 . S
C169 O170 1.160 . S
C169 O176 1.185 . S
O170 C169 1.160 . S
O171 Zn172 1.899 . S
O171 C179 1.284 . S
Zn172 O171 1.899 . S
Zn172 O173 2.032 . S
Zn172 O176 2.086 . S
Zn172 O181 1.977 . S
O173 Zn172 2.032 . S
O173 C177 1.278 . S
C174 O175 1.203 . S
C174 O181 1.267 . S
O175 C174 1.203 . S
O176 C169 1.185 . S
O176 Zn172 2.086 . S
C177 O173 1.278 . S
C177 O178 1.211 . S
O178 C177 1.211 . S
C179 O171 1.284 . S
C179 O180 1.273 . S
O180 C179 1.273 . S
O181 Zn172 1.977 . S
O181 C174 1.267 . S
C182 O183 1.160 . S
C182 O189 1.185 . S
O183 C182 1.160 . S
O184 Zn185 1.899 . S
O184 C192 1.284 . S
Zn185 O184 1.899 . S
Zn185 O186 2.032 . S
Zn185 O189 2.086 . S
Zn185 O194 1.977 . S
O186 Zn185 2.032 . S
O186 C190 1.278 . S
C187 O188 1.203 . S
C187 O194 1.267 . S
O188 C187 1.203 . S
O189 C182 1.185 . S
O189 Zn185 2.086 . S
C190 O186 1.278 . S
C190 O191 1.211 . S
O191 C190 1.211 . S
C192 O184 1.284 . S
C192 O193 1.273 . S
O193 C192 1.273 . S
O194 Zn185 1.977 . S
O194 C187 1.267 . S
C195 O196 1.160 . S
C195 O202 1.185 . S
O196 C195 1.160 . S
O197 Zn198 1.899 . S
O197 C205 1.284 . S
Zn198 O197 1.899 . S
Zn198 O199 2.032 . S
Zn198 O202 2.086 . S
Zn198 O207 1.977 . S
O199 Zn198 2.032 . S
O199 C203 1.278 . S
C200 O201 1.203 . S
C200 O207 1.267 . S
O201 C200 1.203 . S
O202 C195 1.185 . S
O202 Zn198 2.086 . S
C203 O199 1.278 . S
C203 O204 1.211 . S
O204 C203 1.211 . S
C205 O197 1.284 . S
C205 O206 1.273 . S
O206 C205 1.273 . S
O207 Zn198 1.977 . S
O207 C200 1.267 . S
C208 O209 1.160 . S
C208 O215 1.185 . S
O209 C208 1.160 . S
O210 Zn211 1.899 . S
O210 C218 1.284 . S
Zn211 O210 1.899 . S
Zn211 O212 2.032 . S
Zn211 O215 2.086 . S
Zn211 O220 1.977 . S
O212 Zn211 2.032 . S
O212 C216 1.278 . S
C213 O214 1.203 . S
C213 O220 1.267 . S
O214 C213 1.203 . S
O215 C208 1.185 . S
O215 Zn211 2.086 . S
C216 O212 1.278 . S
C216 O217 1.211 . S
O217 C216 1.211 . S
C218 O210 1.284 . S
C218 O219 1.273 . S
O219 C218 1.273 . S
O220 Zn211 1.977 . S
O220 C213 1.267 . S
C221 O222 1.160 . S
C221 O228 1.185 . S
O222 C221 1.160 . S
O223 Zn224 1.899 . S
O223 C231 1.284 . S
Zn224 O223 1.899 . S
Zn224 O225 2.032 . S
Zn224 O228 2.086 . S
Zn224 O233 1.977 . S
O225 Zn224 2.032 . S
O225 C229 1.278 . S
C226 O227 1.203 . S
C226 O233 1.267 . S
O227 C226 1.203 . S
O228 C221 1.185 . S
O228 Zn224 2.086 . S
C229 O225 1.278 . S
C229 O230 1.211 . S
O230 C229 1.211 . S
C231 O223 1.284 . S
C231 O232 1.273 . S
O232 C231 1.273 . S
O233 Zn224 1.977 . S
O233 C226 1.267 . S
C234 O235 1.160 . S
C234 O241 1.185 . S
O235 C234 1.160 . S
O236 Zn237 1.899 . S
O236 C244 1.284 . S
Zn237 O236 1.899 . S
Zn237 O238 2.032 . S
Zn237 O241 2.086 . S
Zn237 O246 1.977 . S
O238 Zn237 2.032 . S
O238 C242 1.278 . S
C239 O240 1.203 . S
C239 O246 1.267 . S
O240 C239 1.203 . S
O241 C234 1.185 . S
O241 Zn237 2.086 . S
C242 O238 1.278 . S
C242 O243 1.211 . S
O243 C242 1.211 . S
C244 O236 1.284 . S
C244 O245 1.273 . S
O245 C244 1.273 . S
O246 Zn237 1.977 . S
O246 C239 1.267 . S
C247 O248 1.160 . S
C247 O254 1.185 . S
O248 C247 1.160 . S
O249 Zn250 1.899 . S
O249 C257 1.284 . S
Zn250 O249 1.899 . S
Zn250 O251 2.032 . S
Zn250 O254 2.086 . S
Zn250 O259 1.977 . S
O251 Zn250 2.032 . S
O251 C255 1.278 . S
C252 O253 1.203 . S
C252 O259 1.267 . S
O253 C252 1.203 . S
O254 C247 1.185 . S
O254 Zn250 2.086 . S
C255 O251 1.278 . S
C255 O256 1.211 . S
O256 C255 1.211 . S
C257 O249 1.284 . S
C257 O258 1.273 . S
O258 C257 1.273 . S
O259 Zn250 1.977 . S
O259 C252 1.267 . S
C260 O261 1.160 . S
C260 O267 1.185 . S
O261 C260 1.160 . S
O262 Zn263 1.899 . S
O262 C270 1.284 . S
Zn263 O262 1.899 . S
Zn263 O264 2.032 . S
Zn263 O267 2.086 . S
Zn263 O272 1.977 . S
O264 Zn263 2.032 . S
O264 C268 1.278 . S
C265 O266 1.203 . S
C265 O272 1.267 . S
O266 C265 1.203 . S
O267 C260 1.185 . S
O267 Zn263 2.086 . S
C268 O264 1.278 . S
C268 O269 1.211 . S
O269 C268 1.211 . S
C270 O262 1.284 . S
C270 O271 1.273 . S
O271 C270 1.273 . S
O272 Zn263 1.977 . S
O272 C265 1.267 . S
C273 O274 1.160 . S
C273 O280 1.185 . S
O274 C273 1.160 . S
O275 Zn276 1.899 . S
O275 C283 1.284 . S
Zn276 O275 1.899 . S
Zn276 O277 2.032 . S
Zn276 O280 2.086 . S
Zn276 O285 1.977 . S
O277 Zn276 2.032 . S
O277 C281 1.278 . S
C278 O279 1.203 . S
C278 O285 1.267 . S
O279 C278 1.203 . S
O280 C273 1.185 . S
O280 Zn276 2.086 . S
C281 O277 1.278 . S
C281 O282 1.211 . S
O282 C281 1.211 . S
C283 O275 1.284 . S
C283 O284 1.273 . S
O284 C283 1.273 . S
O285 Zn276 1.977 . S
O285 C278 1.267 . S
C286 O287 1.160 . S
C286 O293 1.185 . S
O287 C286 1.160 . S
O288 Zn289 1.899 . S
O288 C296 1.284 . S
Zn289 O288 1.899 . S
Zn289 O290 2.032 . S
Zn289 O293 2.086 . S
Zn289 O298 1.977 . S
O290 Zn289 2.032 . S
O290 C294 1.278 . S
C291 O292 1.203 . S
C291 O298 1.267 . S
O292 C291 1.203 . S
O293 C286 1.185 . S
O293 Zn289 2.086 . S
C294 O290 1.278 . S
C294 O295 1.211 . S
O295 C294 1.211 . S
C296 O288 1.284 . S
C296 O297 1.273 . S
O297 C296 1.273 . S
O298 Zn289 1.977 . S
O298 C291 1.267 . S
C299 O300 1.160 . S
C299 O306 1.185 . S
O300 C299 1.160 . S
O301 Zn302 1.899 . S
O301 C309 1.284 . S
Zn302 O301 1.899 . S
Zn302 O303 2.032 . S
Zn302 O306 2.086 . S
Zn302 O311 1.977 . S
O303 Zn302 2.032 . S
O303 C307 1.278 . S
C304 O305 1.203 . S
C304 O311 1.267 . S
O305 C304 1.203 . S
O306 C299 1.185 . S
O306 Zn302 2.086 . S
C307 O303 1.278 . S
C307 O308 1.211 . S
O308 C307 1.211 . S
C309 O301 1.284 . S
C309 O310 1.273 . S
O310 C309 1.273 . S
O311 Zn302 1.977 . S
O311 C304 1.267 . S
C312 C313 1.349 . S
C312 C314 1.327 . S
C312 H337 0.950 . S
C313 C312 1.349 . S
C313 C329 1.349 . S
C314 C312 1.327 . S
C314 C333 1.429 . S
C314 H338 0.950 . S
C315 C332 1.574 . S
C315 C334 1.368 . S
C315 H339 0.949 . S
H316 C320 0.949 . S
C317 C318 1.349 . S
C317 C319 1.327 . S
C317 H340 0.950 . S
C318 C317 1.349 . S
C318 C330 1.349 . S
C319 C317 1.327 . S
C319 C335 1.429 . S
C319 H341 0.950 . S
C320 H316 0.949 . S
C320 C328 1.574 . S
C320 C336 1.368 . S
H321 C329 0.950 . S
H322 C327 0.950 . S
H323 C328 0.949 . S
H324 C330 0.950 . S
H325 C331 0.950 . S
H326 C332 0.949 . S
C327 H322 0.950 . S
C327 C329 1.327 . S
C327 C333 1.429 . S
C328 C320 1.574 . S
C328 H323 0.949 . S
C328 C334 1.368 . S
C329 C313 1.349 . S
C329 H321 0.950 . S
C329 C327 1.327 . S
C330 C318 1.349 . S
C330 H324 0.950 . S
C330 C331 1.327 . S
C331 H325 0.950 . S
C331 C330 1.327 . S
C331 C335 1.429 . S
C332 C315 1.574 . S
C332 H326 0.949 . S
C332 C336 1.368 . S
C333 C314 1.429 . S
C333 C327 1.429 . S
C333 C334 1.523 . S
C334 C315 1.368 . S
C334 C328 1.368 . S
C334 C333 1.523 . S
C335 C319 1.429 . S
C335 C331 1.429 . S
C335 C336 1.523 . S
C336 C320 1.368 . S
C336 C332 1.368 . S
C336 C335 1.523 . S
H337 C312 0.950 . S
H338 C314 0.950 . S
H339 C315 0.949 . S
H340 C317 0.950 . S
H341 C319 0.950 . S
C342 C343 1.349 . S
C342 C344 1.327 . S
C342 H367 0.950 . S
C343 C342 1.349 . S
C343 C359 1.349 . S
C344 C342 1.327 . S
C344 C363 1.429 . S
C344 H368 0.950 . S
C345 C362 1.574 . S
C345 C364 1.368 . S
C345 H369 0.949 . S
H346 C350 0.949 . S
C347 C348 1.349 . S
C347 C349 1.327 . S
C347 H370 0.950 . S
C348 C347 1.349 . S
C348 C360 1.349 . S
C349 C347 1.327 . S
C349 C365 1.429 . S
C349 H371 0.950 . S
C350 H346 0.949 . S
C350 C358 1.574 . S
C350 C366 1.368 . S
H351 C359 0.950 . S
H352 C357 0.950 . S
H353 C358 0.949 . S
H354 C360 0.950 . S
H355 C361 0.950 . S
H356 C362 0.949 . S
C357 H352 0.950 . S
C357 C359 1.327 . S
C357 C363 1.429 . S
C358 C350 1.574 . S
C358 H353 0.949 . S
C358 C364 1.368 . S
C359 C343 1.349 . S
C359 H351 0.950 . S
C359 C357 1.327 . S
C360 C348 1.349 . S
C360 H354 0.950 . S
C360 C361 1.327 . S
C361 H355 0.950 . S
C361 C360 1.327 . S
C361 C365 1.429 . S
C362 C345 1.574 . S
C362 H356 0.949 . S
C362 C366 1.368 . S
C363 C344 1.429 . S
C363 C357 1.429 . S
C363 C364 1.523 . S
C364 C345 1.368 . S
C364 C358 1.368 . S
C364 C363 1.523 . S
C365 C349 1.429 . S
C365 C361 1.429 . S
C365 C366 1.523 . S
C366 C350 1.368 . S
C366 C362 1.368 . S
C366 C365 1.523 . S
H367 C342 0.950 . S
H368 C344 0.950 . S
H369 C345 0.949 . S
H370 C347 0.950 . S
H371 C349 0.950 . S
C372 C373 1.349 . S
C372 C374 1.327 . S
C372 H397 0.950 . S
C373 C372 1.349 . S
C373 C389 1.349 . S
C374 C372 1.327 . S
C374 C393 1.429 . S
C374 H398 0.950 . S
C375 C392 1.574 . S
C375 C394 1.368 . S
C375 H399 0.949 . S
H376 C380 0.949 . S
C377 C378 1.349 . S
C377 C379 1.327 . S
C377 H400 0.950 . S
C378 C377 1.349 . S
C378 C390 1.349 . S
C379 C377 1.327 . S
C379 C395 1.429 . S
C379 H401 0.950 . S
C380 H376 0.949 . S
C380 C388 1.574 . S
C380 C396 1.368 . S
H381 C389 0.950 . S
H382 C387 0.950 . S
H383 C388 0.949 . S
H384 C390 0.950 . S
H385 C391 0.950 . S
H386 C392 0.949 . S
C387 H382 0.950 . S
C387 C389 1.327 . S
C387 C393 1.429 . S
C388 C380 1.574 . S
C388 H383 0.949 . S
C388 C394 1.368 . S
C389 C373 1.349 . S
C389 H381 0.950 . S
C389 C387 1.327 . S
C390 C378 1.349 . S
C390 H384 0.950 . S
C390 C391 1.327 . S
C391 H385 0.950 . S
C391 C390 1.327 . S
C391 C395 1.429 . S
C392 C375 1.574 . S
C392 H386 0.949 . S
C392 C396 1.368 . S
C393 C374 1.429 . S
C393 C387 1.429 . S
C393 C394 1.523 . S
C394 C375 1.368 . S
C394 C388 1.368 . S
C394 C393 1.523 . S
C395 C379 1.429 . S
C395 C391 1.429 . S
C395 C396 1.523 . S
C396 C380 1.368 . S
C396 C392 1.368 . S
C396 C395 1.523 . S
H397 C372 0.950 . S
H398 C374 0.950 . S
H399 C375 0.949 . S
H400 C377 0.950 . S
H401 C379 0.950 . S
C402 C403 1.349 . S
C402 C404 1.327 . S
C402 H427 0.950 . S
C403 C402 1.349 . S
C403 C419 1.349 . S
C404 C402 1.327 . S
C404 C423 1.429 . S
C404 H428 0.950 . S
C405 C422 1.574 . S
C405 C424 1.368 . S
C405 H429 0.949 . S
H406 C410 0.949 . S
C407 C408 1.349 . S
C407 C409 1.327 . S
C407 H430 0.950 . S
C408 C407 1.349 . S
C408 C420 1.349 . S
C409 C407 1.327 . S
C409 C425 1.429 . S
C409 H431 0.950 . S
C410 H406 0.949 . S
C410 C418 1.574 . S
C410 C426 1.368 . S
H411 C419 0.950 . S
H412 C417 0.950 . S
H413 C418 0.949 . S
H414 C420 0.950 . S
H415 C421 0.950 . S
H416 C422 0.949 . S
C417 H412 0.950 . S
C417 C419 1.327 . S
C417 C423 1.429 . S
C418 C410 1.574 . S
C418 H413 0.949 . S
C418 C424 1.368 . S
C419 C403 1.349 . S
C419 H411 0.950 . S
C419 C417 1.327 . S
C420 C408 1.349 . S
C420 H414 0.950 . S
C420 C421 1.327 . S
C421 H415 0.950 . S
C421 C420 1.327 . S
C421 C425 1.429 . S
C422 C405 1.574 . S
C422 H416 0.949 . S
C422 C426 1.368 . S
C423 C404 1.429 . S
C423 C417 1.429 . S
C423 C424 1.523 . S
C424 C405 1.368 . S
C424 C418 1.368 . S
C424 C423 1.523 . S
C425 C409 1.429 . S
C425 C421 1.429 . S
C425 C426 1.523 . S
C426 C410 1.368 . S
C426 C422 1.368 . S
C426 C425 1.523 . S
H427 C402 0.950 . S
H428 C404 0.950 . S
H429 C405 0.949 . S
H430 C407 0.950 . S
H431 C409 0.950 . S
C432 C433 1.349 . S
C432 C434 1.327 . S
C432 H457 0.950 . S
C433 C432 1.349 . S
C433 C449 1.349 . S
C434 C432 1.327 . S
C434 C453 1.429 . S
C434 H458 0.950 . S
C435 C452 1.574 . S
C435 C454 1.368 . S
C435 H459 0.949 . S
H436 C440 0.949 . S
C437 C438 1.349 . S
C437 C439 1.327 . S
C437 H460 0.950 . S
C438 C437 1.349 . S
C438 C450 1.349 . S
C439 C437 1.327 . S
C439 C455 1.429 . S
C439 H461 0.950 . S
C440 H436 0.949 . S
C440 C448 1.574 . S
C440 C456 1.368 . S
H441 C449 0.950 . S
H442 C447 0.950 . S
H443 C448 0.949 . S
H444 C450 0.950 . S
H445 C451 0.950 . S
H446 C452 0.949 . S
C447 H442 0.950 . S
C447 C449 1.327 . S
C447 C453 1.429 . S
C448 C440 1.574 . S
C448 H443 0.949 . S
C448 C454 1.368 . S
C449 C433 1.349 . S
C449 H441 0.950 . S
C449 C447 1.327 . S
C450 C438 1.349 . S
C450 H444 0.950 . S
C450 C451 1.327 . S
C451 H445 0.950 . S
C451 C450 1.327 . S
C451 C455 1.429 . S
C452 C435 1.574 . S
C452 H446 0.949 . S
C452 C456 1.368 . S
C453 C434 1.429 . S
C453 C447 1.429 . S
C453 C454 1.523 . S
C454 C435 1.368 . S
C454 C448 1.368 . S
C454 C453 1.523 . S
C455 C439 1.429 . S
C455 C451 1.429 . S
C455 C456 1.523 . S
C456 C440 1.368 . S
C456 C452 1.368 . S
C456 C455 1.523 . S
H457 C432 0.950 . S
H458 C434 0.950 . S
H459 C435 0.949 . S
H460 C437 0.950 . S
H461 C439 0.950 . S
C462 C463 1.349 . S
C462 C464 1.327 . S
C462 H487 0.950 . S
C463 C462 1.349 . S
C463 C479 1.349 . S
C464 C462 1.327 . S
C464 C483 1.429 . S
C464 H488 0.950 . S
C465 C482 1.574 . S
C465 C484 1.368 . S
C465 H489 0.949 . S
H466 C470 0.949 . S
C467 C468 1.349 . S
C467 C469 1.327 . S
C467 H490 0.950 . S
C468 C467 1.349 . S
C468 C480 1.349 . S
C469 C467 1.327 . S
C469 C485 1.429 . S
C469 H491 0.950 . S
C470 H466 0.949 . S
C470 C478 1.574 . S
C470 C486 1.368 . S
H471 C479 0.950 . S
H472 C477 0.950 . S
H473 C478 0.949 . S
H474 C480 0.950 . S
H475 C481 0.950 . S
H476 C482 0.949 . S
C477 H472 0.950 . S
C477 C479 1.327 . S
C477 C483 1.429 . S
C478 C470 1.574 . S
C478 H473 0.949 . S
C478 C484 1.368 . S
C479 C463 1.349 . S
C479 H471 0.950 . S
C479 C477 1.327 . S
C480 C468 1.349 . S
C480 H474 0.950 . S
C480 C481 1.327 . S
C481 H475 0.950 . S
C481 C480 1.327 . S
C481 C485 1.429 . S
C482 C465 1.574 . S
C482 H476 0.949 . S
C482 C486 1.368 . S
C483 C464 1.429 . S
C483 C477 1.429 . S
C483 C484 1.523 . S
C484 C465 1.368 . S
C484 C478 1.368 . S
C484 C483 1.523 . S
C485 C469 1.429 . S
C485 C481 1.429 . S
C485 C486 1.523 . S
C486 C470 1.368 . S
C486 C482 1.368 . S
C486 C485 1.523 . S
H487 C462 0.950 . S
H488 C464 0.950 . S
H489 C465 0.949 . S
H490 C467 0.950 . S
H491 C469 0.950 . S
C492 C493 1.349 . S
C492 C494 1.327 . S
C492 H517 0.950 . S
C493 C492 1.349 . S
C493 C509 1.349 . S
C494 C492 1.327 . S
C494 C513 1.429 . S
C494 H518 0.950 . S
C495 C512 1.574 . S
C495 C514 1.368 . S
C495 H519 0.949 . S
H496 C500 0.949 . S
C497 C498 1.349 . S
C497 C499 1.327 . S
C497 H520 0.950 . S
C498 C497 1.349 . S
C498 C510 1.349 . S
C499 C497 1.327 . S
C499 C515 1.429 . S
C499 H521 0.950 . S
C500 H496 0.949 . S
C500 C508 1.574 . S
C500 C516 1.368 . S
H501 C509 0.950 . S
H502 C507 0.950 . S
H503 C508 0.949 . S
H504 C510 0.950 . S
H505 C511 0.950 . S
H506 C512 0.949 . S
C507 H502 0.950 . S
C507 C509 1.327 . S
C507 C513 1.429 . S
C508 C500 1.574 . S
C508 H503 0.949 . S
C508 C514 1.368 . S
C509 C493 1.349 . S
C509 H501 0.950 . S
C509 C507 1.327 . S
C510 C498 1.349 . S
C510 H504 0.950 . S
C510 C511 1.327 . S
C511 H505 0.950 . S
C511 C510 1.327 . S
C511 C515 1.429 . S
C512 C495 1.574 . S
C512 H506 0.949 . S
C512 C516 1.368 . S
C513 C494 1.429 . S
C513 C507 1.429 . S
C513 C514 1.523 . S
C514 C495 1.368 . S
C514 C508 1.368 . S
C514 C513 1.523 . S
C515 C499 1.429 . S
C515 C511 1.429 . S
C515 C516 1.523 . S
C516 C500 1.368 . S
C516 C512 1.368 . S
C516 C515 1.523 . S
H517 C492 0.950 . S
H518 C494 0.950 . S
H519 C495 0.949 . S
H520 C497 0.950 . S
H521 C499 0.950 . S
C522 C523 1.349 . S
C522 C524 1.327 . S
C522 H547 0.950 . S
C523 C522 1.349 . S
C523 C539 1.349 . S
C524 C522 1.327 . S
C524 C543 1.429 . S
C524 H548 0.950 . S
C525 C542 1.574 . S
C525 C544 1.368 . S
C525 H549 0.949 . S
H526 C530 0.949 . S
C527 C528 1.349 . S
C527 C529 1.327 . S
C527 H550 0.950 . S
C528 C527 1.349 . S
C528 C540 1.349 . S
C529 C527 1.327 . S
C529 C545 1.429 . S
C529 H551 0.950 . S
C530 H526 0.949 . S
C530 C538 1.574 . S
C530 C546 1.368 . S
H531 C539 0.950 . S
H532 C537 0.950 . S
H533 C538 0.949 . S
H534 C540 0.950 . S
H535 C541 0.950 . S
H536 C542 0.949 . S
C537 H532 0.950 . S
C537 C539 1.327 . S
C537 C543 1.429 . S
C538 C530 1.574 . S
C538 H533 0.949 . S
C538 C544 1.368 . S
C539 C523 1.349 . S
C539 H531 0.950 . S
C539 C537 1.327 . S
C540 C528 1.349 . S
C540 H534 0.950 . S
C540 C541 1.327 . S
C541 H535 0.950 . S
C541 C540 1.327 . S
C541 C545 1.429 . S
C542 C525 1.574 . S
C542 H536 0.949 . S
C542 C546 1.368 . S
C543 C524 1.429 . S
C543 C537 1.429 . S
C543 C544 1.523 . S
C544 C525 1.368 . S
C544 C538 1.368 . S
C544 C543 1.523 . S
C545 C529 1.429 . S
C545 C541 1.429 . S
C545 C546 1.523 . S
C546 C530 1.368 . S
C546 C542 1.368 . S
C546 C545 1.523 . S
H547 C522 0.950 . S
H548 C524 0.950 . S
H549 C525 0.949 . S
H550 C527 0.950 . S
H551 C529 0.950 . S
C552 C553 1.349 . S
C552 C554 1.327 . S
C552 H577 0.950 . S
C553 C552 1.349 . S
C553 C569 1.349 . S
C554 C552 1.327 . S
C554 C573 1.429 . S
C554 H578 0.950 . S
C555 C572 1.574 . S
C555 C574 1.368 . S
C555 H579 0.949 . S
H556 C560 0.949 . S
C557 C558 1.349 . S
C557 C559 1.327 . S
C557 H580 0.950 . S
C558 C557 1.349 . S
C558 C570 1.349 . S
C559 C557 1.327 . S
C559 C575 1.429 . S
C559 H581 0.950 . S
C560 H556 0.949 . S
C560 C568 1.574 . S
C560 C576 1.368 . S
H561 C569 0.950 . S
H562 C567 0.950 . S
H563 C568 0.949 . S
H564 C570 0.950 . S
H565 C571 0.950 . S
H566 C572 0.949 . S
C567 H562 0.950 . S
C567 C569 1.327 . S
C567 C573 1.429 . S
C568 C560 1.574 . S
C568 H563 0.949 . S
C568 C574 1.368 . S
C569 C553 1.349 . S
C569 H561 0.950 . S
C569 C567 1.327 . S
C570 C558 1.349 . S
C570 H564 0.950 . S
C570 C571 1.327 . S
C571 H565 0.950 . S
C571 C570 1.327 . S
C571 C575 1.429 . S
C572 C555 1.574 . S
C572 H566 0.949 . S
C572 C576 1.368 . S
C573 C554 1.429 . S
C573 C567 1.429 . S
C573 C574 1.523 . S
C574 C555 1.368 . S
C574 C568 1.368 . S
C574 C573 1.523 . S
C575 C559 1.429 . S
C575 C571 1.429 . S
C575 C576 1.523 . S
C576 C560 1.368 . S
C576 C572 1.368 . S
C576 C575 1.523 . S
H577 C552 0.950 . S
H578 C554 0.950 . S
H579 C555 0.949 . S
H580 C557 0.950 . S
H581 C559 0.950 . S
C582 C583 1.349 . S
C582 C584 1.327 . S
C582 H607 0.950 . S
C583 C582 1.349 . S
C583 C599 1.349 . S
C584 C582 1.327 . S
C584 C603 1.429 . S
C584 H608 0.950 . S
C585 C602 1.574 . S
C585 C604 1.368 . S
C585 H609 0.949 . S
H586 C590 0.949 . S
C587 C588 1.349 . S
C587 C589 1.327 . S
C587 H610 0.950 . S
C588 C587 1.349 . S
C588 C600 1.349 . S
C589 C587 1.327 . S
C589 C605 1.429 . S
C589 H611 0.950 . S
C590 H586 0.949 . S
C590 C598 1.574 . S
C590 C606 1.368 . S
H591 C599 0.950 . S
H592 C597 0.950 . S
H593 C598 0.949 . S
H594 C600 0.950 . S
H595 C601 0.950 . S
H596 C602 0.949 . S
C597 H592 0.950 . S
C597 C599 1.327 . S
C597 C603 1.429 . S
C598 C590 1.574 . S
C598 H593 0.949 . S
C598 C604 1.368 . S
C599 C583 1.349 . S
C599 H591 0.950 . S
C599 C597 1.327 . S
C600 C588 1.349 . S
C600 H594 0.950 . S
C600 C601 1.327 . S
C601 H595 0.950 . S
C601 C600 1.327 . S
C601 C605 1.429 . S
C602 C585 1.574 . S
C602 H596 0.949 . S
C602 C606 1.368 . S
C603 C584 1.429 . S
C603 C597 1.429 . S
C603 C604 1.523 . S
C604 C585 1.368 . S
C604 C598 1.368 . S
C604 C603 1.523 . S
C605 C589 1.429 . S
C605 C601 1.429 . S
C605 C606 1.523 . S
C606 C590 1.368 . S
C606 C602 1.368 . S
C606 C605 1.523 . S
H607 C582 0.950 . S
H608 C584 0.950 . S
H609 C585 0.949 . S
H610 C587 0.950 . S
H611 C589 0.950 . S
C612 C613 1.349 . S
C612 C614 1.327 . S
C612 H637 0.950 . S
C613 C612 1.349 . S
C613 C629 1.349 . S
C614 C612 1.327 . S
C614 C633 1.429 . S
C614 H638 0.950 . S
C615 C632 1.574 . S
C615 C634 1.368 . S
C615 H639 0.949 . S
H616 C620 0.949 . S
C617 C618 1.349 . S
C617 C619 1.327 . S
C617 H640 0.950 . S
C618 C617 1.349 . S
C618 C630 1.349 . S
C619 C617 1.327 . S
C619 C635 1.429 . S
C619 H641 0.950 . S
C620 H616 0.949 . S
C620 C628 1.574 . S
C620 C636 1.368 . S
H621 C629 0.950 . S
H622 C627 0.950 . S
H623 C628 0.949 . S
H624 C630 0.950 . S
H625 C631 0.950 . S
H626 C632 0.949 . S
C627 H622 0.950 . S
C627 C629 1.327 . S
C627 C633 1.429 . S
C628 C620 1.574 . S
C628 H623 0.949 . S
C628 C634 1.368 . S
C629 C613 1.349 . S
C629 H621 0.950 . S
C629 C627 1.327 . S
C630 C618 1.349 . S
C630 H624 0.950 . S
C630 C631 1.327 . S
C631 H625 0.950 . S
C631 C630 1.327 . S
C631 C635 1.429 . S
C632 C615 1.574 . S
C632 H626 0.949 . S
C632 C636 1.368 . S
C633 C614 1.429 . S
C633 C627 1.429 . S
C633 C634 1.523 . S
C634 C615 1.368 . S
C634 C628 1.368 . S
C634 C633 1.523 . S
C635 C619 1.429 . S
C635 C631 1.429 . S
C635 C636 1.523 . S
C636 C620 1.368 . S
C636 C632 1.368 . S
C636 C635 1.523 . S
H637 C612 0.950 . S
H638 C614 0.950 . S
H639 C615 0.949 . S
H640 C617 0.950 . S
H641 C619 0.950 . S
C642 C643 1.349 . S
C642 C644 1.327 . S
C642 H667 0.950 . S
C643 C642 1.349 . S
C643 C659 1.349 . S
C644 C642 1.327 . S
C644 C663 1.429 . S
C644 H668 0.950 . S
C645 C662 1.574 . S
C645 C664 1.368 . S
C645 H669 0.949 . S
H646 C650 0.949 . S
C647 C648 1.349 . S
C647 C649 1.327 . S
C647 H670 0.950 . S
C648 C647 1.349 . S
C648 C660 1.349 . S
C649 C647 1.327 . S
C649 C665 1.429 . S
C649 H671 0.950 . S
C650 H646 0.949 . S
C650 C658 1.574 . S
C650 C666 1.368 . S
H651 C659 0.950 . S
H652 C657 0.950 . S
H653 C658 0.949 . S
H654 C660 0.950 . S
H655 C661 0.950 . S
H656 C662 0.949 . S
C657 H652 0.950 . S
C657 C659 1.327 . S
C657 C663 1.429 . S
C658 C650 1.574 . S
C658 H653 0.949 . S
C658 C664 1.368 . S
C659 C643 1.349 . S
C659 H651 0.950 . S
C659 C657 1.327 . S
C660 C648 1.349 . S
C660 H654 0.950 . S
C660 C661 1.327 . S
C661 H655 0.950 . S
C661 C660 1.327 . S
C661 C665 1.429 . S
C662 C645 1.574 . S
C662 H656 0.949 . S
C662 C666 1.368 . S
C663 C644 1.429 . S
C663 C657 1.429 . S
C663 C664 1.523 . S
C664 C645 1.368 . S
C664 C658 1.368 . S
C664 C663 1.523 . S
C665 C649 1.429 . S
C665 C661 1.429 . S
C665 C666 1.523 . S
C666 C650 1.368 . S
C666 C662 1.368 . S
C666 C665 1.523 . S
H667 C642 0.950 . S
H668 C644 0.950 . S
H669 C645 0.949 . S
H670 C647 0.950 . S
H671 C649 0.950 . S
C672 C673 1.349 . S
C672 C674 1.327 . S
C672 H697 0.950 . S
C673 C672 1.349 . S
C673 C689 1.349 . S
C674 C672 1.327 . S
C674 C693 1.429 . S
C674 H698 0.950 . S
C675 C692 1.574 . S
C675 C694 1.368 . S
C675 H699 0.949 . S
H676 C680 0.949 . S
C677 C678 1.349 . S
C677 C679 1.327 . S
C677 H700 0.950 . S
C678 C677 1.349 . S
C678 C690 1.349 . S
C679 C677 1.327 . S
C679 C695 1.429 . S
C679 H701 0.950 . S
C680 H676 0.949 . S
C680 C688 1.574 . S
C680 C696 1.368 . S
H681 C689 0.950 . S
H682 C687 0.950 . S
H683 C688 0.949 . S
H684 C690 0.950 . S
H685 C691 0.950 . S
H686 C692 0.949 . S
C687 H682 0.950 . S
C687 C689 1.327 . S
C687 C693 1.429 . S
C688 C680 1.574 . S
C688 H683 0.949 . S
C688 C694 1.368 . S
C689 C673 1.349 . S
C689 H681 0.950 . S
C689 C687 1.327 . S
C690 C678 1.349 . S
C690 H684 0.950 . S
C690 C691 1.327 . S
C691 H685 0.950 . S
C691 C690 1.327 . S
C691 C695 1.429 . S
C692 C675 1.574 . S
C692 H686 0.949 . S
C692 C696 1.368 . S
C693 C674 1.429 . S
C693 C687 1.429 . S
C693 C694 1.523 . S
C694 C675 1.368 . S
C694 C688 1.368 . S
C694 C693 1.523 . S
C695 C679 1.429 . S
C695 C691 1.429 . S
C695 C696 1.523 . S
C696 C680 1.368 . S
C696 C692 1.368 . S
C696 C695 1.523 . S
H697 C672 0.950 . S
H698 C674 0.950 . S
H699 C675 0.949 . S
H700 C677 0.950 . S
H701 C679 0.950 . S
C702 C703 1.349 . S
C702 C704 1.327 . S
C702 H727 0.950 . S
C703 C702 1.349 . S
C703 C719 1.349 . S
C704 C702 1.327 . S
C704 C723 1.429 . S
C704 H728 0.950 . S
C705 C722 1.574 . S
C705 C724 1.368 . S
C705 H729 0.949 . S
H706 C710 0.949 . S
C707 C708 1.349 . S
C707 C709 1.327 . S
C707 H730 0.950 . S
C708 C707 1.349 . S
C708 C720 1.349 . S
C709 C707 1.327 . S
C709 C725 1.429 . S
C709 H731 0.950 . S
C710 H706 0.949 . S
C710 C718 1.574 . S
C710 C726 1.368 . S
H711 C719 0.950 . S
H712 C717 0.950 . S
H713 C718 0.949 . S
H714 C720 0.950 . S
H715 C721 0.950 . S
H716 C722 0.949 . S
C717 H712 0.950 . S
C717 C719 1.327 . S
C717 C723 1.429 . S
C718 C710 1.574 . S
C718 H713 0.949 . S
C718 C724 1.368 . S
C719 C703 1.349 . S
C719 H711 0.950 . S
C719 C717 1.327 . S
C720 C708 1.349 . S
C720 H714 0.950 . S
C720 C721 1.327 . S
C721 H715 0.950 . S
C721 C720 1.327 . S
C721 C725 1.429 . S
C722 C705 1.574 . S
C722 H716 0.949 . S
C722 C726 1.368 . S
C723 C704 1.429 . S
C723 C717 1.429 . S
C723 C724 1.523 . S
C724 C705 1.368 . S
C724 C718 1.368 . S
C724 C723 1.523 . S
C725 C709 1.429 . S
C725 C721 1.429 . S
C725 C726 1.523 . S
C726 C710 1.368 . S
C726 C722 1.368 . S
C726 C725 1.523 . S
H727 C702 0.950 . S
H728 C704 0.950 . S
H729 C705 0.949 . S
H730 C707 0.950 . S
H731 C709 0.950 . S
C732 C733 1.349 . S
C732 C734 1.327 . S
C732 H757 0.950 . S
C733 C732 1.349 . S
C733 C749 1.349 . S
C734 C732 1.327 . S
C734 C753 1.429 . S
C734 H758 0.950 . S
C735 C752 1.574 . S
C735 C754 1.368 . S
C735 H759 0.949 . S
H736 C740 0.949 . S
C737 C738 1.349 . S
C737 C739 1.327 . S
C737 H760 0.950 . S
C738 C737 1.349 . S
C738 C750 1.349 . S
C739 C737 1.327 . S
C739 C755 1.429 . S
C739 H761 0.950 . S
C740 H736 0.949 . S
C740 C748 1.574 . S
C740 C756 1.368 . S
H741 C749 0.950 . S
H742 C747 0.950 . S
H743 C748 0.949 . S
H744 C750 0.950 . S
H745 C751 0.950 . S
H746 C752 0.949 . S
C747 H742 0.950 . S
C747 C749 1.327 . S
C747 C753 1.429 . S
C748 C740 1.574 . S
C748 H743 0.949 . S
C748 C754 1.368 . S
C749 C733 1.349 . S
C749 H741 0.950 . S
C749 C747 1.327 . S
C750 C738 1.349 . S
C750 H744 0.950 . S
C750 C751 1.327 . S
C751 H745 0.950 . S
C751 C750 1.327 . S
C751 C755 1.429 . S
C752 C735 1.574 . S
C752 H746 0.949 . S
C752 C756 1.368 . S
C753 C734 1.429 . S
C753 C747 1.429 . S
C753 C754 1.523 . S
C754 C735 1.368 . S
C754 C748 1.368 . S
C754 C753 1.523 . S
C755 C739 1.429 . S
C755 C751 1.429 . S
C755 C756 1.523 . S
C756 C740 1.368 . S
C756 C752 1.368 . S
C756 C755 1.523 . S
H757 C732 0.950 . S
H758 C734 0.950 . S
H759 C735 0.949 . S
H760 C737 0.950 . S
H761 C739 0.950 . S
C762 C763 1.349 . S
C762 C764 1.327 . S
C762 H787 0.950 . S
C763 C762 1.349 . S
C763 C779 1.349 . S
C764 C762 1.327 . S
C764 C783 1.429 . S
C764 H788 0.950 . S
C765 C782 1.574 . S
C765 C784 1.368 . S
C765 H789 0.949 . S
H766 C770 0.949 . S
C767 C768 1.349 . S
C767 C769 1.327 . S
C767 H790 0.950 . S
C768 C767 1.349 . S
C768 C780 1.349 . S
C769 C767 1.327 . S
C769 C785 1.429 . S
C769 H791 0.950 . S
C770 H766 0.949 . S
C770 C778 1.574 . S
C770 C786 1.368 . S
H771 C779 0.950 . S
H772 C777 0.950 . S
H773 C778 0.949 . S
H774 C780 0.950 . S
H775 C781 0.950 . S
H776 C782 0.949 . S
C777 H772 0.950 . S
C777 C779 1.327 . S
C777 C783 1.429 . S
C778 C770 1.574 . S
C778 H773 0.949 . S
C778 C784 1.368 . S
C779 C763 1.349 . S
C779 H771 0.950 . S
C779 C777 1.327 . S
C780 C768 1.349 . S
C780 H774 0.950 . S
C780 C781 1.327 . S
C781 H775 0.950 . S
C781 C780 1.327 . S
C781 C785 1.429 . S
C782 C765 1.574 . S
C782 H776 0.949 . S
C782 C786 1.368 . S
C783 C764 1.429 . S
C783 C777 1.429 . S
C783 C784 1.523 . S
C784 C765 1.368 . S
C784 C778 1.368 . S
C784 C783 1.523 . S
C785 C769 1.429 . S
C785 C781 1.429 . S
C785 C786 1.523 . S
C786 C770 1.368 . S
C786 C782 1.368 . S
C786 C785 1.523 . S
H787 C762 0.950 . S
H788 C764 0.950 . S
H789 C765 0.949 . S
H790 C767 0.950 . S
H791 C769 0.950 . S
C792 C793 1.349 . S
C792 C794 1.327 . S
C792 H817 0.950 . S
C793 C792 1.349 . S
C793 C809 1.349 . S
C794 C792 1.327 . S
C794 C813 1.429 . S
C794 H818 0.950 . S
C795 C812 1.574 . S
C795 C814 1.368 . S
C795 H819 0.949 . S
H796 C800 0.949 . S
C797 C798 1.349 . S
C797 C799 1.327 . S
C797 H820 0.950 . S
C798 C797 1.349 . S
C798 C810 1.349 . S
C799 C797 1.327 . S
C799 C815 1.429 . S
C799 H821 0.950 . S
C800 H796 0.949 . S
C800 C808 1.574 . S
C800 C816 1.368 . S
H801 C809 0.950 . S
H802 C807 0.950 . S
H803 C808 0.949 . S
H804 C810 0.950 . S
H805 C811 0.950 . S
H806 C812 0.949 . S
C807 H802 0.950 . S
C807 C809 1.327 . S
C807 C813 1.429 . S
C808 C800 1.574 . S
C808 H803 0.949 . S
C808 C814 1.368 . S
C809 C793 1.349 . S
C809 H801 0.950 . S
C809 C807 1.327 . S
C810 C798 1.349 . S
C810 H804 0.950 . S
C810 C811 1.327 . S
C811 H805 0.950 . S
C811 C810 1.327 . S
C811 C815 1.429 . S
C812 C795 1.574 . S
C812 H806 0.949 . S
C812 C816 1.368 . S
C813 C794 1.429 . S
C813 C807 1.429 . S
C813 C814 1.523 . S
C814 C795 1.368 . S
C814 C808 1.368 . S
C814 C813 1.523 . S
C815 C799 1.429 . S
C815 C811 1.429 . S
C815 C816 1.523 . S
C816 C800 1.368 . S
C816 C812 1.368 . S
C816 C815 1.523 . S
H817 C792 0.950 . S
H818 C794 0.950 . S
H819 C795 0.949 . S
H820 C797 0.950 . S
H821 C799 0.950 . S
C822 C823 1.349 . S
C822 C824 1.327 . S
C822 H847 0.950 . S
C823 C822 1.349 . S
C823 C839 1.349 . S
C824 C822 1.327 . S
C824 C843 1.429 . S
C824 H848 0.950 . S
C825 C842 1.574 . S
C825 C844 1.368 . S
C825 H849 0.949 . S
H826 C830 0.949 . S
C827 C828 1.349 . S
C827 C829 1.327 . S
C827 H850 0.950 . S
C828 C827 1.349 . S
C828 C840 1.349 . S
C829 C827 1.327 . S
C829 C845 1.429 . S
C829 H851 0.950 . S
C830 H826 0.949 . S
C830 C838 1.574 . S
C830 C846 1.368 . S
H831 C839 0.950 . S
H832 C837 0.950 . S
H833 C838 0.949 . S
H834 C840 0.950 . S
H835 C841 0.950 . S
H836 C842 0.949 . S
C837 H832 0.950 . S
C837 C839 1.327 . S
C837 C843 1.429 . S
C838 C830 1.574 . S
C838 H833 0.949 . S
C838 C844 1.368 . S
C839 C823 1.349 . S
C839 H831 0.950 . S
C839 C837 1.327 . S
C840 C828 1.349 . S
C840 H834 0.950 . S
C840 C841 1.327 . S
C841 H835 0.950 . S
C841 C840 1.327 . S
C841 C845 1.429 . S
C842 C825 1.574 . S
C842 H836 0.949 . S
C842 C846 1.368 . S
C843 C824 1.429 . S
C843 C837 1.429 . S
C843 C844 1.523 . S
C844 C825 1.368 . S
C844 C838 1.368 . S
C844 C843 1.523 . S
C845 C829 1.429 . S
C845 C841 1.429 . S
C845 C846 1.523 . S
C846 C830 1.368 . S
C846 C842 1.368 . S
C846 C845 1.523 . S
H847 C822 0.950 . S
H848 C824 0.950 . S
H849 C825 0.949 . S
H850 C827 0.950 . S
H851 C829 0.950 . S
C852 C853 1.349 . S
C852 C854 1.327 . S
C852 H877 0.950 . S
C853 C852 1.349 . S
C853 C869 1.349 . S
C854 C852 1.327 . S
C854 C873 1.429 . S
C854 H878 0.950 . S
C855 C872 1.574 . S
C855 C874 1.368 . S
C855 H879 0.949 . S
H856 C860 0.949 . S
C857 C858 1.349 . S
C857 C859 1.327 . S
C857 H880 0.950 . S
C858 C857 1.349 . S
C858 C870 1.349 . S
C859 C857 1.327 . S
C859 C875 1.429 . S
C859 H881 0.950 . S
C860 H856 0.949 . S
C860 C868 1.574 . S
C860 C876 1.368 . S
H861 C869 0.950 . S
H862 C867 0.950 . S
H863 C868 0.949 . S
H864 C870 0.950 . S
H865 C871 0.950 . S
H866 C872 0.949 . S
C867 H862 0.950 . S
C867 C869 1.327 . S
C867 C873 1.429 . S
C868 C860 1.574 . S
C868 H863 0.949 . S
C868 C874 1.368 . S
C869 C853 1.349 . S
C869 H861 0.950 . S
C869 C867 1.327 . S
C870 C858 1.349 . S
C870 H864 0.950 . S
C870 C871 1.327 . S
C871 H865 0.950 . S
C871 C870 1.327 . S
C871 C875 1.429 . S
C872 C855 1.574 . S
C872 H866 0.949 . S
C872 C876 1.368 . S
C873 C854 1.429 . S
C873 C867 1.429 . S
C873 C874 1.523 . S
C874 C855 1.368 . S
C874 C868 1.368 . S
C874 C873 1.523 . S
C875 C859 1.429 . S
C875 C871 1.429 . S
C875 C876 1.523 . S
C876 C860 1.368 . S
C876 C872 1.368 . S
C876 C875 1.523 . S
H877 C852 0.950 . S
H878 C854 0.950 . S
H879 C855 0.949 . S
H880 C857 0.950 . S
H881 C859 0.950 . S
C882 C883 1.349 . S
C882 C884 1.327 . S
C882 H907 0.950 . S
C883 C882 1.349 . S
C883 C899 1.349 . S
C884 C882 1.327 . S
C884 C903 1.429 . S
C884 H908 0.950 . S
C885 C902 1.574 . S
C885 C904 1.368 . S
C885 H909 0.949 . S
H886 C890 0.949 . S
C887 C888 1.349 . S
C887 C889 1.327 . S
C887 H910 0.950 . S
C888 C887 1.349 . S
C888 C900 1.349 . S
C889 C887 1.327 . S
C889 C905 1.429 . S
C889 H911 0.950 . S
C890 H886 0.949 . S
C890 C898 1.574 . S
C890 C906 1.368 . S
H891 C899 0.950 . S
H892 C897 0.950 . S
H893 C898 0.949 . S
H894 C900 0.950 . S
H895 C901 0.950 . S
H896 C902 0.949 . S
C897 H892 0.950 . S
C897 C899 1.327 . S
C897 C903 1.429 . S
C898 C890 1.574 . S
C898 H893 0.949 . S
C898 C904 1.368 . S
C899 C883 1.349 . S
C899 H891 0.950 . S
C899 C897 1.327 . S
C900 C888 1.349 . S
C900 H894 0.950 . S
C900 C901 1.327 . S
C901 H895 0.950 . S
C901 C900 1.327 . S
C901 C905 1.429 . S
C902 C885 1.574 . S
C902 H896 0.949 . S
C902 C906 1.368 . S
C903 C884 1.429 . S
C903 C897 1.429 . S
C903 C904 1.523 . S
C904 C885 1.368 . S
C904 C898 1.368 . S
C904 C903 1.523 . S
C905 C889 1.429 . S
C905 C901 1.429 . S
C905 C906 1.523 . S
C906 C890 1.368 . S
C906 C902 1.368 . S
C906 C905 1.523 . S
H907 C882 0.950 . S
H908 C884 0.950 . S
H909 C885 0.949 . S
H910 C887 0.950 . S
H911 C889 0.950 . S
C912 C913 1.349 . S
C912 C914 1.327 . S
C912 H937 0.950 . S
C913 C912 1.349 . S
C913 C929 1.349 . S
C914 C912 1.327 . S
C914 C933 1.429 . S
C914 H938 0.950 . S
C915 C932 1.574 . S
C915 C934 1.368 . S
C915 H939 0.949 . S
H916 C920 0.949 . S
C917 C918 1.349 . S
C917 C919 1.327 . S
C917 H940 0.950 . S
C918 C917 1.349 . S
C918 C930 1.349 . S
C919 C917 1.327 . S
C919 C935 1.429 . S
C919 H941 0.950 . S
C920 H916 0.949 . S
C920 C928 1.574 . S
C920 C936 1.368 . S
H921 C929 0.950 . S
H922 C927 0.950 . S
H923 C928 0.949 . S
H924 C930 0.950 . S
H925 C931 0.950 . S
H926 C932 0.949 . S
C927 H922 0.950 . S
C927 C929 1.327 . S
C927 C933 1.429 . S
C928 C920 1.574 . S
C928 H923 0.949 . S
C928 C934 1.368 . S
C929 C913 1.349 . S
C929 H921 0.950 . S
C929 C927 1.327 . S
C930 C918 1.349 . S
C930 H924 0.950 . S
C930 C931 1.327 . S
C931 H925 0.950 . S
C931 C930 1.327 . S
C931 C935 1.429 . S
C932 C915 1.574 . S
C932 H926 0.949 . S
C932 C936 1.368 . S
C933 C914 1.429 . S
C933 C927 1.429 . S
C933 C934 1.523 . S
C934 C915 1.368 . S
C934 C928 1.368 . S
C934 C933 1.523 . S
C935 C919 1.429 . S
C935 C931 1.429 . S
C935 C936 1.523 . S
C936 C920 1.368 . S
C936 C932 1.368 . S
C936 C935 1.523 . S
H937 C912 0.950 . S
H938 C914 0.950 . S
H939 C915 0.949 . S
H940 C917 0.950 . S
H941 C919 0.950 . S
C942 C943 1.349 . S
C942 C944 1.327 . S
C942 H967 0.950 . S
C943 C942 1.349 . S
C943 C959 1.349 . S
C944 C942 1.327 . S
C944 C963 1.429 . S
C944 H968 0.950 . S
C945 C962 1.574 . S
C945 C964 1.368 . S
C945 H969 0.949 . S
H946 C950 0.949 . S
C947 C948 1.349 . S
C947 C949 1.327 . S
C947 H970 0.950 . S
C948 C947 1.349 . S
C948 C960 1.349 . S
C949 C947 1.327 . S
C949 C965 1.429 . S
C949 H971 0.950 . S
C950 H946 0.949 . S
C950 C958 1.574 . S
C950 C966 1.368 . S
H951 C959 0.950 . S
H952 C957 0.950 . S
H953 C958 0.949 . S
H954 C960 0.950 . S
H955 C961 0.950 . S
H956 C962 0.949 . S
C957 H952 0.950 . S
C957 C959 1.327 . S
C957 C963 1.429 . S
C958 C950 1.574 . S
C958 H953 0.949 . S
C958 C964 1.368 . S
C959 C943 1.349 . S
C959 H951 0.950 . S
C959 C957 1.327 . S
C960 C948 1.349 . S
C960 H954 0.950 . S
C960 C961 1.327 . S
C961 H955 0.950 . S
C961 C960 1.327 . S
C961 C965 1.429 . S
C962 C945 1.574 . S
C962 H956 0.949 . S
C962 C966 1.368 . S
C963 C944 1.429 . S
C963 C957 1.429 . S
C963 C964 1.523 . S
C964 C945 1.368 . S
C964 C958 1.368 . S
C964 C963 1.523 . S
C965 C949 1.429 . S
C965 C961 1.429 . S
C965 C966 1.523 . S
C966 C950 1.368 . S
C966 C962 1.368 . S
C966 C965 1.523 . S
H967 C942 0.950 . S
H968 C944 0.950 . S
H969 C945 0.949 . S
H970 C947 0.950 . S
H971 C949 0.950 . S
C972 C973 1.349 . S
C972 C974 1.327 . S
C972 H997 0.950 . S
C973 C972 1.349 . S
C973 C989 1.349 . S
C974 C972 1.327 . S
C974 C993 1.429 . S
C974 H998 0.950 . S
C975 C992 1.574 . S
C975 C994 1.368 . S
C975 H999 0.949 . S
H976 C980 0.949 . S
C977 C978 1.349 . S
C977 C979 1.327 . S
C977 H1000 0.950 . S
C978 C977 1.349 . S
C978 C990 1.349 . S
C979 C977 1.327 . S
C979 C995 1.429 . S
C979 H1001 0.950 . S
C980 H976 0.949 . S
C980 C988 1.574 . S
C980 C996 1.368 . S
H981 C989 0.950 . S
H982 C987 0.950 . S
H983 C988 0.949 . S
H984 C990 0.950 . S
H985 C991 0.950 . S
H986 C992 0.949 . S
C987 H982 0.950 . S
C987 C989 1.327 . S
C987 C993 1.429 . S
C988 C980 1.574 . S
C988 H983 0.949 . S
C988 C994 1.368 . S
C989 C973 1.349 . S
C989 H981 0.950 . S
C989 C987 1.327 . S
C990 C978 1.349 . S
C990 H984 0.950 . S
C990 C991 1.327 . S
C991 H985 0.950 . S
C991 C990 1.327 . S
C991 C995 1.429 . S
C992 C975 1.574 . S
C992 H986 0.949 . S
C992 C996 1.368 . S
C993 C974 1.429 . S
C993 C987 1.429 . S
C993 C994 1.523 . S
C994 C975 1.368 . S
C994 C988 1.368 . S
C994 C993 1.523 . S
C995 C979 1.429 . S
C995 C991 1.429 . S
C995 C996 1.523 . S
C996 C980 1.368 . S
C996 C992 1.368 . S
C996 C995 1.523 . S
H997 C972 0.950 . S
H998 C974 0.950 . S
H999 C975 0.949 . S
H1000 C977 0.950 . S
H1001 C979 0.950 . S
C1002 C1003 1.349 . S
C1002 C1004 1.327 . S
C1002 H1027 0.950 . S
C1003 C1002 1.349 . S
C1003 C1019 1.349 . S
C1004 C1002 1.327 . S
C1004 C1023 1.429 . S
C1004 H1028 0.950 . S
C1005 C1022 1.574 . S
C1005 C1024 1.368 . S
C1005 H1029 0.949 . S
H1006 C1010 0.949 . S
C1007 C1008 1.349 . S
C1007 C1009 1.327 . S
C1007 H1030 0.950 . S
C1008 C1007 1.349 . S
C1008 C1020 1.349 . S
C1009 C1007 1.327 . S
C1009 C1025 1.429 . S
C1009 H1031 0.950 . S
C1010 H1006 0.949 . S
C1010 C1018 1.574 . S
C1010 C1026 1.368 . S
H1011 C1019 0.950 . S
H1012 C1017 0.950 . S
H1013 C1018 0.949 . S
H1014 C1020 0.950 . S
H1015 C1021 0.950 . S
H1016 C1022 0.949 . S
C1017 H1012 0.950 . S
C1017 C1019 1.327 . S
C1017 C1023 1.429 . S
C1018 C1010 1.574 . S
C1018 H1013 0.949 . S
C1018 C1024 1.368 . S
C1019 C1003 1.349 . S
C1019 H1011 0.950 . S
C1019 C1017 1.327 . S
C1020 C1008 1.349 . S
C1020 H1014 0.950 . S
C1020 C1021 1.327 . S
C1021 H1015 0.950 . S
C1021 C1020 1.327 . S
C1021 C1025 1.429 . S
C1022 C1005 1.574 . S
C1022 H1016 0.949 . S
C1022 C1026 1.368 . S
C1023 C1004 1.429 . S
C1023 C1017 1.429 . S
C1023 C1024 1.523 . S
C1024 C1005 1.368 . S
C1024 C1018 1.368 . S
C1024 C1023 1.523 . S
C1025 C1009 1.429 . S
C1025 C1021 1.429 . S
C1025 C1026 1.523 . S
C1026 C1010 1.368 . S
C1026 C1022 1.368 . S
C1026 C1025 1.523 . S
H1027 C1002 0.950 . S
H1028 C1004 0.950 . S
H1029 C1005 0.949 . S
H1030 C1007 0.950 . S
H1031 C1009 0.950 . S
C1032 C1033 1.349 . S
C1032 C1034 1.327 . S
C1032 H1057 0.950 . S
C1033 C1032 1.349 . S
C1033 C1049 1.349 . S
C1034 C1032 1.327 . S
C1034 C1053 1.429 . S
C1034 H1058 0.950 . S
C1035 C1052 1.574 1_455 S
C1035 C1054 1.368 . S
C1035 H1059 0.949 . S
H1036 C1040 0.949 . S
C1037 C1038 1.349 . S
C1037 C1039 1.327 . S
C1037 H1060 0.950 . S
C1038 C1037 1.349 . S
C1038 C1050 1.349 . S
C1039 C1037 1.327 . S
C1039 C1055 1.429 . S
C1039 H1061 0.950 . S
C1040 H1036 0.949 . S
C1040 C1048 1.574 1_655 S
C1040 C1056 1.368 . S
H1041 C1049 0.950 . S
H1042 C1047 0.950 . S
H1043 C1048 0.949 . S
H1044 C1050 0.950 . S
H1045 C1051 0.950 . S
H1046 C1052 0.949 . S
C1047 H1042 0.950 . S
C1047 C1049 1.327 . S
C1047 C1053 1.429 . S
C1048 C1040 1.574 1_455 S
C1048 H1043 0.949 . S
C1048 C1054 1.368 . S
C1049 C1033 1.349 . S
C1049 H1041 0.950 . S
C1049 C1047 1.327 . S
C1050 C1038 1.349 . S
C1050 H1044 0.950 . S
C1050 C1051 1.327 . S
C1051 H1045 0.950 . S
C1051 C1050 1.327 . S
C1051 C1055 1.429 . S
C1052 C1035 1.574 1_655 S
C1052 H1046 0.949 . S
C1052 C1056 1.368 . S
C1053 C1034 1.429 . S
C1053 C1047 1.429 . S
C1053 C1054 1.523 . S
C1054 C1035 1.368 . S
C1054 C1048 1.368 . S
C1054 C1053 1.523 . S
C1055 C1039 1.429 . S
C1055 C1051 1.429 . S
C1055 C1056 1.523 . S
C1056 C1040 1.368 . S
C1056 C1052 1.368 . S
C1056 C1055 1.523 . S
H1057 C1032 0.950 . S
H1058 C1034 0.950 . S
H1059 C1035 0.949 . S
H1060 C1037 0.950 . S
H1061 C1039 0.950 . S
C1062 C1063 1.349 . S
C1062 C1064 1.327 . S
C1062 H1087 0.950 . S
C1063 C1062 1.349 . S
C1063 C1079 1.349 . S
C1064 C1062 1.327 . S
C1064 C1083 1.429 . S
C1064 H1088 0.950 . S
C1065 C1082 1.574 1_545 S
C1065 C1084 1.368 . S
C1065 H1089 0.949 . S
H1066 C1070 0.949 . S
C1067 C1068 1.349 . S
C1067 C1069 1.327 . S
C1067 H1090 0.950 . S
C1068 C1067 1.349 . S
C1068 C1080 1.349 . S
C1069 C1067 1.327 . S
C1069 C1085 1.429 . S
C1069 H1091 0.950 . S
C1070 H1066 0.949 . S
C1070 C1078 1.574 1_565 S
C1070 C1086 1.368 . S
H1071 C1079 0.950 . S
H1072 C1077 0.950 . S
H1073 C1078 0.949 . S
H1074 C1080 0.950 . S
H1075 C1081 0.950 . S
H1076 C1082 0.949 . S
C1077 H1072 0.950 . S
C1077 C1079 1.327 . S
C1077 C1083 1.429 . S
C1078 C1070 1.574 1_545 S
C1078 H1073 0.949 . S
C1078 C1084 1.368 . S
C1079 C1063 1.349 . S
C1079 H1071 0.950 . S
C1079 C1077 1.327 . S
C1080 C1068 1.349 . S
C1080 H1074 0.950 . S
C1080 C1081 1.327 . S
C1081 H1075 0.950 . S
C1081 C1080 1.327 . S
C1081 C1085 1.429 . S
C1082 C1065 1.574 1_565 S
C1082 H1076 0.949 . S
C1082 C1086 1.368 . S
C1083 C1064 1.429 . S
C1083 C1077 1.429 . S
C1083 C1084 1.523 . S
C1084 C1065 1.368 . S
C1084 C1078 1.368 . S
C1084 C1083 1.523 . S
C1085 C1069 1.429 . S
C1085 C1081 1.429 . S
C1085 C1086 1.523 . S
C1086 C1070 1.368 . S
C1086 C1082 1.368 . S
C1086 C1085 1.523 . S
H1087 C1062 0.950 . S
H1088 C1064 0.950 . S
H1089 C1065 0.949 . S
H1090 C1067 0.950 . S
H1091 C1069 0.950 . S
C1092 C1093 1.349 . S
C1092 C1094 1.327 . S
C1092 H1117 0.950 . S
C1093 C1092 1.349 . S
C1093 C1109 1.349 . S
C1094 C1092 1.327 . S
C1094 C1113 1.429 . S
C1094 H1118 0.950 . S
C1095 C1112 1.574 1_655 S
C1095 C1114 1.368 . S
C1095 H1119 0.949 . S
H1096 C1100 0.949 . S
C1097 C1098 1.349 . S
C1097 C1099 1.327 . S
C1097 H1120 0.950 . S
C1098 C1097 1.349 . S
C1098 C1110 1.349 . S
C1099 C1097 1.327 . S
C1099 C1115 1.429 . S
C1099 H1121 0.950 . S
C1100 H1096 0.949 . S
C1100 C1108 1.574 1_455 S
C1100 C1116 1.368 . S
H1101 C1109 0.950 . S
H1102 C1107 0.950 . S
H1103 C1108 0.949 . S
H1104 C1110 0.950 . S
H1105 C1111 0.950 . S
H1106 C1112 0.949 . S
C1107 H1102 0.950 . S
C1107 C1109 1.327 . S
C1107 C1113 1.429 . S
C1108 C1100 1.574 1_655 S
C1108 H1103 0.949 . S
C1108 C1114 1.368 . S
C1109 C1093 1.349 . S
C1109 H1101 0.950 . S
C1109 C1107 1.327 . S
C1110 C1098 1.349 . S
C1110 H1104 0.950 . S
C1110 C1111 1.327 . S
C1111 H1105 0.950 . S
C1111 C1110 1.327 . S
C1111 C1115 1.429 . S
C1112 C1095 1.574 1_455 S
C1112 H1106 0.949 . S
C1112 C1116 1.368 . S
C1113 C1094 1.429 . S
C1113 C1107 1.429 . S
C1113 C1114 1.523 . S
C1114 C1095 1.368 . S
C1114 C1108 1.368 . S
C1114 C1113 1.523 . S
C1115 C1099 1.429 . S
C1115 C1111 1.429 . S
C1115 C1116 1.523 . S
C1116 C1100 1.368 . S
C1116 C1112 1.368 . S
C1116 C1115 1.523 . S
H1117 C1092 0.950 . S
H1118 C1094 0.950 . S
H1119 C1095 0.949 . S
H1120 C1097 0.950 . S
H1121 C1099 0.950 . S
C1122 C1123 1.349 . S
C1122 C1124 1.327 . S
C1122 H1147 0.950 . S
C1123 C1122 1.349 . S
C1123 C1139 1.349 . S
C1124 C1122 1.327 . S
C1124 C1143 1.429 . S
C1124 H1148 0.950 . S
C1125 C1142 1.574 1_545 S
C1125 C1144 1.368 . S
C1125 H1149 0.949 . S
H1126 C1130 0.949 . S
C1127 C1128 1.349 . S
C1127 C1129 1.327 . S
C1127 H1150 0.950 . S
C1128 C1127 1.349 . S
C1128 C1140 1.349 . S
C1129 C1127 1.327 . S
C1129 C1145 1.429 . S
C1129 H1151 0.950 . S
C1130 H1126 0.949 . S
C1130 C1138 1.574 1_565 S
C1130 C1146 1.368 . S
H1131 C1139 0.950 . S
H1132 C1137 0.950 . S
H1133 C1138 0.949 . S
H1134 C1140 0.950 . S
H1135 C1141 0.950 . S
H1136 C1142 0.949 . S
C1137 H1132 0.950 . S
C1137 C1139 1.327 . S
C1137 C1143 1.429 . S
C1138 C1130 1.574 1_545 S
C1138 H1133 0.949 . S
C1138 C1144 1.368 . S
C1139 C1123 1.349 . S
C1139 H1131 0.950 . S
C1139 C1137 1.327 . S
C1140 C1128 1.349 . S
C1140 H1134 0.950 . S
C1140 C1141 1.327 . S
C1141 H1135 0.950 . S
C1141 C1140 1.327 . S
C1141 C1145 1.429 . S
C1142 C1125 1.574 1_565 S
C1142 H1136 0.949 . S
C1142 C1146 1.368 . S
C1143 C1124 1.429 . S
C1143 C1137 1.429 . S
C1143 C1144 1.523 . S
C1144 C1125 1.368 . S
C1144 C1138 1.368 . S
C1144 C1143 1.523 . S
C1145 C1129 1.429 . S
C1145 C1141 1.429 . S
C1145 C1146 1.523 . S
C1146 C1130 1.368 . S
C1146 C1142 1.368 . S
C1146 C1145 1.523 . S
H1147 C1122 0.950 . S
H1148 C1124 0.950 . S
H1149 C1125 0.949 . S
H1150 C1127 0.950 . S
H1151 C1129 0.950 . S
C1152 C1153 1.349 . S
C1152 C1154 1.327 . S
C1152 H1177 0.950 . S
C1153 C1152 1.349 . S
C1153 C1169 1.349 . S
C1154 C1152 1.327 . S
C1154 C1173 1.429 . S
C1154 H1178 0.950 . S
C1155 C1172 1.574 1_565 S
C1155 C1174 1.368 . S
C1155 H1179 0.949 . S
H1156 C1160 0.949 . S
C1157 C1158 1.349 . S
C1157 C1159 1.327 . S
C1157 H1180 0.950 . S
C1158 C1157 1.349 . S
C1158 C1170 1.349 . S
C1159 C1157 1.327 . S
C1159 C1175 1.429 . S
C1159 H1181 0.950 . S
C1160 H1156 0.949 . S
C1160 C1168 1.574 1_545 S
C1160 C1176 1.368 . S
H1161 C1169 0.950 . S
H1162 C1167 0.950 . S
H1163 C1168 0.949 . S
H1164 C1170 0.950 . S
H1165 C1171 0.950 . S
H1166 C1172 0.949 . S
C1167 H1162 0.950 . S
C1167 C1169 1.327 . S
C1167 C1173 1.429 . S
C1168 C1160 1.574 1_565 S
C1168 H1163 0.949 . S
C1168 C1174 1.368 . S
C1169 C1153 1.349 . S
C1169 H1161 0.950 . S
C1169 C1167 1.327 . S
C1170 C1158 1.349 . S
C1170 H1164 0.950 . S
C1170 C1171 1.327 . S
C1171 H1165 0.950 . S
C1171 C1170 1.327 . S
C1171 C1175 1.429 . S
C1172 C1155 1.574 1_545 S
C1172 H1166 0.949 . S
C1172 C1176 1.368 . S
C1173 C1154 1.429 . S
C1173 C1167 1.429 . S
C1173 C1174 1.523 . S
C1174 C1155 1.368 . S
C1174 C1168 1.368 . S
C1174 C1173 1.523 . S
C1175 C1159 1.429 . S
C1175 C1171 1.429 . S
C1175 C1176 1.523 . S
C1176 C1160 1.368 . S
C1176 C1172 1.368 . S
C1176 C1175 1.523 . S
H1177 C1152 0.950 . S
H1178 C1154 0.950 . S
H1179 C1155 0.949 . S
H1180 C1157 0.950 . S
H1181 C1159 0.950 . S
C1182 C1183 1.349 . S
C1182 C1184 1.327 . S
C1182 H1207 0.950 . S
C1183 C1182 1.349 . S
C1183 C1199 1.349 . S
C1184 C1182 1.327 . S
C1184 C1203 1.429 . S
C1184 H1208 0.950 . S
C1185 C1202 1.574 1_655 S
C1185 C1204 1.368 . S
C1185 H1209 0.949 . S
H1186 C1190 0.949 . S
C1187 C1188 1.349 . S
C1187 C1189 1.327 . S
C1187 H1210 0.950 . S
C1188 C1187 1.349 . S
C1188 C1200 1.349 . S
C1189 C1187 1.327 . S
C1189 C1205 1.429 . S
C1189 H1211 0.950 . S
C1190 H1186 0.949 . S
C1190 C1198 1.574 1_455 S
C1190 C1206 1.368 . S
H1191 C1199 0.950 . S
H1192 C1197 0.950 . S
H1193 C1198 0.949 . S
H1194 C1200 0.950 . S
H1195 C1201 0.950 . S
H1196 C1202 0.949 . S
C1197 H1192 0.950 . S
C1197 C1199 1.327 . S
C1197 C1203 1.429 . S
C1198 C1190 1.574 1_655 S
C1198 H1193 0.949 . S
C1198 C1204 1.368 . S
C1199 C1183 1.349 . S
C1199 H1191 0.950 . S
C1199 C1197 1.327 . S
C1200 C1188 1.349 . S
C1200 H1194 0.950 . S
C1200 C1201 1.327 . S
C1201 H1195 0.950 . S
C1201 C1200 1.327 . S
C1201 C1205 1.429 . S
C1202 C1185 1.574 1_455 S
C1202 H1196 0.949 . S
C1202 C1206 1.368 . S
C1203 C1184 1.429 . S
C1203 C1197 1.429 . S
C1203 C1204 1.523 . S
C1204 C1185 1.368 . S
C1204 C1198 1.368 . S
C1204 C1203 1.523 . S
C1205 C1189 1.429 . S
C1205 C1201 1.429 . S
C1205 C1206 1.523 . S
C1206 C1190 1.368 . S
C1206 C1202 1.368 . S
C1206 C1205 1.523 . S
H1207 C1182 0.950 . S
H1208 C1184 0.950 . S
H1209 C1185 0.949 . S
H1210 C1187 0.950 . S
H1211 C1189 0.950 . S
C1212 C1213 1.349 . S
C1212 C1214 1.327 . S
C1212 H1237 0.950 . S
C1213 C1212 1.349 . S
C1213 C1229 1.349 . S
C1214 C1212 1.327 . S
C1214 C1233 1.429 . S
C1214 H1238 0.950 . S
C1215 C1232 1.574 1_565 S
C1215 C1234 1.368 . S
C1215 H1239 0.949 . S
H1216 C1220 0.949 . S
C1217 C1218 1.349 . S
C1217 C1219 1.327 . S
C1217 H1240 0.950 . S
C1218 C1217 1.349 . S
C1218 C1230 1.349 . S
C1219 C1217 1.327 . S
C1219 C1235 1.429 . S
C1219 H1241 0.950 . S
C1220 H1216 0.949 . S
C1220 C1228 1.574 1_545 S
C1220 C1236 1.368 . S
H1221 C1229 0.950 . S
H1222 C1227 0.950 . S
H1223 C1228 0.949 . S
H1224 C1230 0.950 . S
H1225 C1231 0.950 . S
H1226 C1232 0.949 . S
C1227 H1222 0.950 . S
C1227 C1229 1.327 . S
C1227 C1233 1.429 . S
C1228 C1220 1.574 1_565 S
C1228 H1223 0.949 . S
C1228 C1234 1.368 . S
C1229 C1213 1.349 . S
C1229 H1221 0.950 . S
C1229 C1227 1.327 . S
C1230 C1218 1.349 . S
C1230 H1224 0.950 . S
C1230 C1231 1.327 . S
C1231 H1225 0.950 . S
C1231 C1230 1.327 . S
C1231 C1235 1.429 . S
C1232 C1215 1.574 1_545 S
C1232 H1226 0.949 . S
C1232 C1236 1.368 . S
C1233 C1214 1.429 . S
C1233 C1227 1.429 . S
C1233 C1234 1.523 . S
C1234 C1215 1.368 . S
C1234 C1228 1.368 . S
C1234 C1233 1.523 . S
C1235 C1219 1.429 . S
C1235 C1231 1.429 . S
C1235 C1236 1.523 . S
C1236 C1220 1.368 . S
C1236 C1232 1.368 . S
C1236 C1235 1.523 . S
H1237 C1212 0.950 . S
H1238 C1214 0.950 . S
H1239 C1215 0.949 . S
H1240 C1217 0.950 . S
H1241 C1219 0.950 . S
C1242 C1243 1.349 . S
C1242 C1244 1.327 . S
C1242 H1267 0.950 . S
C1243 C1242 1.349 . S
C1243 C1259 1.349 . S
C1244 C1242 1.327 . S
C1244 C1263 1.429 . S
C1244 H1268 0.950 . S
C1245 C1262 1.574 1_655 S
C1245 C1264 1.368 . S
C1245 H1269 0.949 . S
H1246 C1250 0.949 . S
C1247 C1248 1.349 . S
C1247 C1249 1.327 . S
C1247 H1270 0.950 . S
C1248 C1247 1.349 . S
C1248 C1260 1.349 . S
C1249 C1247 1.327 . S
C1249 C1265 1.429 . S
C1249 H1271 0.950 . S
C1250 H1246 0.949 . S
C1250 C1258 1.574 1_455 S
C1250 C1266 1.368 . S
H1251 C1259 0.950 . S
H1252 C1257 0.950 . S
H1253 C1258 0.949 . S
H1254 C1260 0.950 . S
H1255 C1261 0.950 . S
H1256 C1262 0.949 . S
C1257 H1252 0.950 . S
C1257 C1259 1.327 . S
C1257 C1263 1.429 . S
C1258 C1250 1.574 1_655 S
C1258 H1253 0.949 . S
C1258 C1264 1.368 . S
C1259 C1243 1.349 . S
C1259 H1251 0.950 . S
C1259 C1257 1.327 . S
C1260 C1248 1.349 . S
C1260 H1254 0.950 . S
C1260 C1261 1.327 . S
C1261 H1255 0.950 . S
C1261 C1260 1.327 . S
C1261 C1265 1.429 . S
C1262 C1245 1.574 1_455 S
C1262 H1256 0.949 . S
C1262 C1266 1.368 . S
C1263 C1244 1.429 . S
C1263 C1257 1.429 . S
C1263 C1264 1.523 . S
C1264 C1245 1.368 . S
C1264 C1258 1.368 . S
C1264 C1263 1.523 . S
C1265 C1249 1.429 . S
C1265 C1261 1.429 . S
C1265 C1266 1.523 . S
C1266 C1250 1.368 . S
C1266 C1262 1.368 . S
C1266 C1265 1.523 . S
H1267 C1242 0.950 . S
H1268 C1244 0.950 . S
H1269 C1245 0.949 . S
H1270 C1247 0.950 . S
H1271 C1249 0.950 . S
C1272 C1273 1.349 . S
C1272 C1274 1.327 . S
C1272 H1297 0.950 . S
C1273 C1272 1.349 . S
C1273 C1289 1.349 . S
C1274 C1272 1.327 . S
C1274 C1293 1.429 . S
C1274 H1298 0.950 . S
C1275 C1292 1.574 1_556 S
C1275 C1294 1.368 . S
C1275 H1299 0.949 . S
H1276 C1280 0.949 . S
C1277 C1278 1.349 . S
C1277 C1279 1.327 . S
C1277 H1300 0.950 . S
C1278 C1277 1.349 . S
C1278 C1290 1.349 . S
C1279 C1277 1.327 . S
C1279 C1295 1.429 . S
C1279 H1301 0.950 . S
C1280 H1276 0.949 . S
C1280 C1288 1.574 1_554 S
C1280 C1296 1.368 . S
H1281 C1289 0.950 . S
H1282 C1287 0.950 . S
H1283 C1288 0.949 . S
H1284 C1290 0.950 . S
H1285 C1291 0.950 . S
H1286 C1292 0.949 . S
C1287 H1282 0.950 . S
C1287 C1289 1.327 . S
C1287 C1293 1.429 . S
C1288 C1280 1.574 1_556 S
C1288 H1283 0.949 . S
C1288 C1294 1.368 . S
C1289 C1273 1.349 . S
C1289 H1281 0.950 . S
C1289 C1287 1.327 . S
C1290 C1278 1.349 . S
C1290 H1284 0.950 . S
C1290 C1291 1.327 . S
C1291 H1285 0.950 . S
C1291 C1290 1.327 . S
C1291 C1295 1.429 . S
C1292 C1275 1.574 1_554 S
C1292 H1286 0.949 . S
C1292 C1296 1.368 . S
C1293 C1274 1.429 . S
C1293 C1287 1.429 . S
C1293 C1294 1.523 . S
C1294 C1275 1.368 . S
C1294 C1288 1.368 . S
C1294 C1293 1.523 . S
C1295 C1279 1.429 . S
C1295 C1291 1.429 . S
C1295 C1296 1.523 . S
C1296 C1280 1.368 . S
C1296 C1292 1.368 . S
C1296 C1295 1.523 . S
H1297 C1272 0.950 . S
H1298 C1274 0.950 . S
H1299 C1275 0.949 . S
H1300 C1277 0.950 . S
H1301 C1279 0.950 . S
C1302 C1303 1.349 . S
C1302 C1304 1.327 . S
C1302 H1327 0.950 . S
C1303 C1302 1.349 . S
C1303 C1319 1.349 . S
C1304 C1302 1.327 . S
C1304 C1323 1.429 . S
C1304 H1328 0.950 . S
C1305 C1322 1.574 1_556 S
C1305 C1324 1.368 . S
C1305 H1329 0.949 . S
H1306 C1310 0.949 . S
C1307 C1308 1.349 . S
C1307 C1309 1.327 . S
C1307 H1330 0.950 . S
C1308 C1307 1.349 . S
C1308 C1320 1.349 . S
C1309 C1307 1.327 . S
C1309 C1325 1.429 . S
C1309 H1331 0.950 . S
C1310 H1306 0.949 . S
C1310 C1318 1.574 1_554 S
C1310 C1326 1.368 . S
H1311 C1319 0.950 . S
H1312 C1317 0.950 . S
H1313 C1318 0.949 . S
H1314 C1320 0.950 . S
H1315 C1321 0.950 . S
H1316 C1322 0.949 . S
C1317 H1312 0.950 . S
C1317 C1319 1.327 . S
C1317 C1323 1.429 . S
C1318 C1310 1.574 1_556 S
C1318 H1313 0.949 . S
C1318 C1324 1.368 . S
C1319 C1303 1.349 . S
C1319 H1311 0.950 . S
C1319 C1317 1.327 . S
C1320 C1308 1.349 . S
C1320 H1314 0.950 . S
C1320 C1321 1.327 . S
C1321 H1315 0.950 . S
C1321 C1320 1.327 . S
C1321 C1325 1.429 . S
C1322 C1305 1.574 1_554 S
C1322 H1316 0.949 . S
C1322 C1326 1.368 . S
C1323 C1304 1.429 . S
C1323 C1317 1.429 . S
C1323 C1324 1.523 . S
C1324 C1305 1.368 . S
C1324 C1318 1.368 . S
C1324 C1323 1.523 . S
C1325 C1309 1.429 . S
C1325 C1321 1.429 . S
C1325 C1326 1.523 . S
C1326 C1310 1.368 . S
C1326 C1322 1.368 . S
C1326 C1325 1.523 . S
H1327 C1302 0.950 . S
H1328 C1304 0.950 . S
H1329 C1305 0.949 . S
H1330 C1307 0.950 . S
H1331 C1309 0.950 . S
C1332 C1333 1.349 . S
C1332 C1334 1.327 . S
C1332 H1357 0.950 . S
C1333 C1332 1.349 . S
C1333 C1349 1.349 . S
C1334 C1332 1.327 . S
C1334 C1353 1.429 . S
C1334 H1358 0.950 . S
C1335 C1352 1.574 1_556 S
C1335 C1354 1.368 . S
C1335 H1359 0.949 . S
H1336 C1340 0.949 . S
C1337 C1338 1.349 . S
C1337 C1339 1.327 . S
C1337 H1360 0.950 . S
C1338 C1337 1.349 . S
C1338 C1350 1.349 . S
C1339 C1337 1.327 . S
C1339 C1355 1.429 . S
C1339 H1361 0.950 . S
C1340 H1336 0.949 . S
C1340 C1348 1.574 1_554 S
C1340 C1356 1.368 . S
H1341 C1349 0.950 . S
H1342 C1347 0.950 . S
H1343 C1348 0.949 . S
H1344 C1350 0.950 . S
H1345 C1351 0.950 . S
H1346 C1352 0.949 . S
C1347 H1342 0.950 . S
C1347 C1349 1.327 . S
C1347 C1353 1.429 . S
C1348 C1340 1.574 1_556 S
C1348 H1343 0.949 . S
C1348 C1354 1.368 . S
C1349 C1333 1.349 . S
C1349 H1341 0.950 . S
C1349 C1347 1.327 . S
C1350 C1338 1.349 . S
C1350 H1344 0.950 . S
C1350 C1351 1.327 . S
C1351 H1345 0.950 . S
C1351 C1350 1.327 . S
C1351 C1355 1.429 . S
C1352 C1335 1.574 1_554 S
C1352 H1346 0.949 . S
C1352 C1356 1.368 . S
C1353 C1334 1.429 . S
C1353 C1347 1.429 . S
C1353 C1354 1.523 . S
C1354 C1335 1.368 . S
C1354 C1348 1.368 . S
C1354 C1353 1.523 . S
C1355 C1339 1.429 . S
C1355 C1351 1.429 . S
C1355 C1356 1.523 . S
C1356 C1340 1.368 . S
C1356 C1352 1.368 . S
C1356 C1355 1.523 . S
H1357 C1332 0.950 . S
H1358 C1334 0.950 . S
H1359 C1335 0.949 . S
H1360 C1337 0.950 . S
H1361 C1339 0.950 . S
C1362 C1363 1.349 . S
C1362 C1364 1.327 . S
C1362 H1387 0.950 . S
C1363 C1362 1.349 . S
C1363 C1379 1.349 . S
C1364 C1362 1.327 . S
C1364 C1383 1.429 . S
C1364 H1388 0.950 . S
C1365 C1382 1.574 1_556 S
C1365 C1384 1.368 . S
C1365 H1389 0.949 . S
H1366 C1370 0.949 . S
C1367 C1368 1.349 . S
C1367 C1369 1.327 . S
C1367 H1390 0.950 . S
C1368 C1367 1.349 . S
C1368 C1380 1.349 . S
C1369 C1367 1.327 . S
C1369 C1385 1.429 . S
C1369 H1391 0.950 . S
C1370 H1366 0.949 . S
C1370 C1378 1.574 1_554 S
C1370 C1386 1.368 . S
H1371 C1379 0.950 . S
H1372 C1377 0.950 . S
H1373 C1378 0.949 . S
H1374 C1380 0.950 . S
H1375 C1381 0.950 . S
H1376 C1382 0.949 . S
C1377 H1372 0.950 . S
C1377 C1379 1.327 . S
C1377 C1383 1.429 . S
C1378 C1370 1.574 1_556 S
C1378 H1373 0.949 . S
C1378 C1384 1.368 . S
C1379 C1363 1.349 . S
C1379 H1371 0.950 . S
C1379 C1377 1.327 . S
C1380 C1368 1.349 . S
C1380 H1374 0.950 . S
C1380 C1381 1.327 . S
C1381 H1375 0.950 . S
C1381 C1380 1.327 . S
C1381 C1385 1.429 . S
C1382 C1365 1.574 1_554 S
C1382 H1376 0.949 . S
C1382 C1386 1.368 . S
C1383 C1364 1.429 . S
C1383 C1377 1.429 . S
C1383 C1384 1.523 . S
C1384 C1365 1.368 . S
C1384 C1378 1.368 . S
C1384 C1383 1.523 . S
C1385 C1369 1.429 . S
C1385 C1381 1.429 . S
C1385 C1386 1.523 . S
C1386 C1370 1.368 . S
C1386 C1382 1.368 . S
C1386 C1385 1.523 . S
H1387 C1362 0.950 . S
H1388 C1364 0.950 . S
H1389 C1365 0.949 . S
H1390 C1367 0.950 . S
H1391 C1369 0.950 . S
C1392 C1393 1.349 . S
C1392 C1394 1.327 . S
C1392 H1417 0.950 . S
C1393 C1392 1.349 . S
C1393 C1409 1.349 . S
C1394 C1392 1.327 . S
C1394 C1413 1.429 . S
C1394 H1418 0.950 . S
C1395 C1412 1.574 . S
C1395 C1414 1.368 . S
C1395 H1419 0.949 . S
H1396 C1400 0.949 . S
C1397 C1398 1.349 . S
C1397 C1399 1.327 . S
C1397 H1420 0.950 . S
C1398 C1397 1.349 . S
C1398 C1410 1.349 . S
C1399 C1397 1.327 . S
C1399 C1415 1.429 . S
C1399 H1421 0.950 . S
C1400 H1396 0.949 . S
C1400 C1408 1.574 . S
C1400 C1416 1.368 . S
H1401 C1409 0.950 . S
H1402 C1407 0.950 . S
H1403 C1408 0.949 . S
H1404 C1410 0.950 . S
H1405 C1411 0.950 . S
H1406 C1412 0.949 . S
C1407 H1402 0.950 . S
C1407 C1409 1.327 . S
C1407 C1413 1.429 . S
C1408 C1400 1.574 . S
C1408 H1403 0.949 . S
C1408 C1414 1.368 . S
C1409 C1393 1.349 . S
C1409 H1401 0.950 . S
C1409 C1407 1.327 . S
C1410 C1398 1.349 . S
C1410 H1404 0.950 . S
C1410 C1411 1.327 . S
C1411 H1405 0.950 . S
C1411 C1410 1.327 . S
C1411 C1415 1.429 . S
C1412 C1395 1.574 . S
C1412 H1406 0.949 . S
C1412 C1416 1.368 . S
C1413 C1394 1.429 . S
C1413 C1407 1.429 . S
C1413 C1414 1.523 . S
C1414 C1395 1.368 . S
C1414 C1408 1.368 . S
C1414 C1413 1.523 . S
C1415 C1399 1.429 . S
C1415 C1411 1.429 . S
C1415 C1416 1.523 . S
C1416 C1400 1.368 . S
C1416 C1412 1.368 . S
C1416 C1415 1.523 . S
H1417 C1392 0.950 . S
H1418 C1394 0.950 . S
H1419 C1395 0.949 . S
H1420 C1397 0.950 . S
H1421 C1399 0.950 . S
C1422 C1423 1.349 . S
C1422 C1424 1.327 . S
C1422 H1447 0.950 . S
C1423 C1422 1.349 . S
C1423 C1439 1.349 . S
C1424 C1422 1.327 . S
C1424 C1443 1.429 . S
C1424 H1448 0.950 . S
C1425 C1442 1.574 . S
C1425 C1444 1.368 . S
C1425 H1449 0.949 . S
H1426 C1430 0.949 . S
C1427 C1428 1.349 . S
C1427 C1429 1.327 . S
C1427 H1450 0.950 . S
C1428 C1427 1.349 . S
C1428 C1440 1.349 . S
C1429 C1427 1.327 . S
C1429 C1445 1.429 . S
C1429 H1451 0.950 . S
C1430 H1426 0.949 . S
C1430 C1438 1.574 . S
C1430 C1446 1.368 . S
H1431 C1439 0.950 . S
H1432 C1437 0.950 . S
H1433 C1438 0.949 . S
H1434 C1440 0.950 . S
H1435 C1441 0.950 . S
H1436 C1442 0.949 . S
C1437 H1432 0.950 . S
C1437 C1439 1.327 . S
C1437 C1443 1.429 . S
C1438 C1430 1.574 . S
C1438 H1433 0.949 . S
C1438 C1444 1.368 . S
C1439 C1423 1.349 . S
C1439 H1431 0.950 . S
C1439 C1437 1.327 . S
C1440 C1428 1.349 . S
C1440 H1434 0.950 . S
C1440 C1441 1.327 . S
C1441 H1435 0.950 . S
C1441 C1440 1.327 . S
C1441 C1445 1.429 . S
C1442 C1425 1.574 . S
C1442 H1436 0.949 . S
C1442 C1446 1.368 . S
C1443 C1424 1.429 . S
C1443 C1437 1.429 . S
C1443 C1444 1.523 . S
C1444 C1425 1.368 . S
C1444 C1438 1.368 . S
C1444 C1443 1.523 . S
C1445 C1429 1.429 . S
C1445 C1441 1.429 . S
C1445 C1446 1.523 . S
C1446 C1430 1.368 . S
C1446 C1442 1.368 . S
C1446 C1445 1.523 . S
H1447 C1422 0.950 . S
H1448 C1424 0.950 . S
H1449 C1425 0.949 . S
H1450 C1427 0.950 . S
H1451 C1429 0.950 . S
C1452 C1453 1.349 . S
C1452 C1454 1.327 . S
C1452 H1477 0.950 . S
C1453 C1452 1.349 . S
C1453 C1469 1.349 . S
C1454 C1452 1.327 . S
C1454 C1473 1.429 . S
C1454 H1478 0.950 . S
C1455 C1472 1.574 . S
C1455 C1474 1.368 . S
C1455 H1479 0.949 . S
H1456 C1460 0.949 . S
C1457 C1458 1.349 . S
C1457 C1459 1.327 . S
C1457 H1480 0.950 . S
C1458 C1457 1.349 . S
C1458 C1470 1.349 . S
C1459 C1457 1.327 . S
C1459 C1475 1.429 . S
C1459 H1481 0.950 . S
C1460 H1456 0.949 . S
C1460 C1468 1.574 . S
C1460 C1476 1.368 . S
H1461 C1469 0.950 . S
H1462 C1467 0.950 . S
H1463 C1468 0.949 . S
H1464 C1470 0.950 . S
H1465 C1471 0.950 . S
H1466 C1472 0.949 . S
C1467 H1462 0.950 . S
C1467 C1469 1.327 . S
C1467 C1473 1.429 . S
C1468 C1460 1.574 . S
C1468 H1463 0.949 . S
C1468 C1474 1.368 . S
C1469 C1453 1.349 . S
C1469 H1461 0.950 . S
C1469 C1467 1.327 . S
C1470 C1458 1.349 . S
C1470 H1464 0.950 . S
C1470 C1471 1.327 . S
C1471 H1465 0.950 . S
C1471 C1470 1.327 . S
C1471 C1475 1.429 . S
C1472 C1455 1.574 . S
C1472 H1466 0.949 . S
C1472 C1476 1.368 . S
C1473 C1454 1.429 . S
C1473 C1467 1.429 . S
C1473 C1474 1.523 . S
C1474 C1455 1.368 . S
C1474 C1468 1.368 . S
C1474 C1473 1.523 . S
C1475 C1459 1.429 . S
C1475 C1471 1.429 . S
C1475 C1476 1.523 . S
C1476 C1460 1.368 . S
C1476 C1472 1.368 . S
C1476 C1475 1.523 . S
H1477 C1452 0.950 . S
H1478 C1454 0.950 . S
H1479 C1455 0.949 . S
H1480 C1457 0.950 . S
H1481 C1459 0.950 . S
C1482 C1483 1.349 . S
C1482 C1484 1.327 . S
C1482 H1507 0.950 . S
C1483 C1482 1.349 . S
C1483 C1499 1.349 . S
C1484 C1482 1.327 . S
C1484 C1503 1.429 . S
C1484 H1508 0.950 . S
C1485 C1502 1.574 . S
C1485 C1504 1.368 . S
C1485 H1509 0.949 . S
H1486 C1490 0.949 . S
C1487 C1488 1.349 . S
C1487 C1489 1.327 . S
C1487 H1510 0.950 . S
C1488 C1487 1.349 . S
C1488 C1500 1.349 . S
C1489 C1487 1.327 . S
C1489 C1505 1.429 . S
C1489 H1511 0.950 . S
C1490 H1486 0.949 . S
C1490 C1498 1.574 . S
C1490 C1506 1.368 . S
H1491 C1499 0.950 . S
H1492 C1497 0.950 . S
H1493 C1498 0.949 . S
H1494 C1500 0.950 . S
H1495 C1501 0.950 . S
H1496 C1502 0.949 . S
C1497 H1492 0.950 . S
C1497 C1499 1.327 . S
C1497 C1503 1.429 . S
C1498 C1490 1.574 . S
C1498 H1493 0.949 . S
C1498 C1504 1.368 . S
C1499 C1483 1.349 . S
C1499 H1491 0.950 . S
C1499 C1497 1.327 . S
C1500 C1488 1.349 . S
C1500 H1494 0.950 . S
C1500 C1501 1.327 . S
C1501 H1495 0.950 . S
C1501 C1500 1.327 . S
C1501 C1505 1.429 . S
C1502 C1485 1.574 . S
C1502 H1496 0.949 . S
C1502 C1506 1.368 . S
C1503 C1484 1.429 . S
C1503 C1497 1.429 . S
C1503 C1504 1.523 . S
C1504 C1485 1.368 . S
C1504 C1498 1.368 . S
C1504 C1503 1.523 . S
C1505 C1489 1.429 . S
C1505 C1501 1.429 . S
C1505 C1506 1.523 . S
C1506 C1490 1.368 . S
C1506 C1502 1.368 . S
C1506 C1505 1.523 . S
H1507 C1482 0.950 . S
H1508 C1484 0.950 . S
H1509 C1485 0.949 . S
H1510 C1487 0.950 . S
H1511 C1489 0.950 . S
C1512 C1513 1.349 . S
C1512 C1514 1.327 . S
C1512 H1537 0.950 . S
C1513 C1512 1.349 . S
C1513 C1529 1.349 . S
C1514 C1512 1.327 . S
C1514 C1533 1.429 . S
C1514 H1538 0.950 . S
C1515 C1532 1.574 . S
C1515 C1534 1.368 . S
C1515 H1539 0.949 . S
H1516 C1520 0.949 . S
C1517 C1518 1.349 . S
C1517 C1519 1.327 . S
C1517 H1540 0.950 . S
C1518 C1517 1.349 . S
C1518 C1530 1.349 . S
C1519 C1517 1.327 . S
C1519 C1535 1.429 . S
C1519 H1541 0.950 . S
C1520 H1516 0.949 . S
C1520 C1528 1.574 . S
C1520 C1536 1.368 . S
H1521 C1529 0.950 . S
H1522 C1527 0.950 . S
H1523 C1528 0.949 . S
H1524 C1530 0.950 . S
H1525 C1531 0.950 . S
H1526 C1532 0.949 . S
C1527 H1522 0.950 . S
C1527 C1529 1.327 . S
C1527 C1533 1.429 . S
C1528 C1520 1.574 . S
C1528 H1523 0.949 . S
C1528 C1534 1.368 . S
C1529 C1513 1.349 . S
C1529 H1521 0.950 . S
C1529 C1527 1.327 . S
C1530 C1518 1.349 . S
C1530 H1524 0.950 . S
C1530 C1531 1.327 . S
C1531 H1525 0.950 . S
C1531 C1530 1.327 . S
C1531 C1535 1.429 . S
C1532 C1515 1.574 . S
C1532 H1526 0.949 . S
C1532 C1536 1.368 . S
C1533 C1514 1.429 . S
C1533 C1527 1.429 . S
C1533 C1534 1.523 . S
C1534 C1515 1.368 . S
C1534 C1528 1.368 . S
C1534 C1533 1.523 . S
C1535 C1519 1.429 . S
C1535 C1531 1.429 . S
C1535 C1536 1.523 . S
C1536 C1520 1.368 . S
C1536 C1532 1.368 . S
C1536 C1535 1.523 . S
H1537 C1512 0.950 . S
H1538 C1514 0.950 . S
H1539 C1515 0.949 . S
H1540 C1517 0.950 . S
H1541 C1519 0.950 . S
C1542 C1543 1.349 . S
C1542 C1544 1.327 . S
C1542 H1567 0.950 . S
C1543 C1542 1.349 . S
C1543 C1559 1.349 . S
C1544 C1542 1.327 . S
C1544 C1563 1.429 . S
C1544 H1568 0.950 . S
C1545 C1562 1.574 . S
C1545 C1564 1.368 . S
C1545 H1569 0.949 . S
H1546 C1550 0.949 . S
C1547 C1548 1.349 . S
C1547 C1549 1.327 . S
C1547 H1570 0.950 . S
C1548 C1547 1.349 . S
C1548 C1560 1.349 . S
C1549 C1547 1.327 . S
C1549 C1565 1.429 . S
C1549 H1571 0.950 . S
C1550 H1546 0.949 . S
C1550 C1558 1.574 . S
C1550 C1566 1.368 . S
H1551 C1559 0.950 . S
H1552 C1557 0.950 . S
H1553 C1558 0.949 . S
H1554 C1560 0.950 . S
H1555 C1561 0.950 . S
H1556 C1562 0.949 . S
C1557 H1552 0.950 . S
C1557 C1559 1.327 . S
C1557 C1563 1.429 . S
C1558 C1550 1.574 . S
C1558 H1553 0.949 . S
C1558 C1564 1.368 . S
C1559 C1543 1.349 . S
C1559 H1551 0.950 . S
C1559 C1557 1.327 . S
C1560 C1548 1.349 . S
C1560 H1554 0.950 . S
C1560 C1561 1.327 . S
C1561 H1555 0.950 . S
C1561 C1560 1.327 . S
C1561 C1565 1.429 . S
C1562 C1545 1.574 . S
C1562 H1556 0.949 . S
C1562 C1566 1.368 . S
C1563 C1544 1.429 . S
C1563 C1557 1.429 . S
C1563 C1564 1.523 . S
C1564 C1545 1.368 . S
C1564 C1558 1.368 . S
C1564 C1563 1.523 . S
C1565 C1549 1.429 . S
C1565 C1561 1.429 . S
C1565 C1566 1.523 . S
C1566 C1550 1.368 . S
C1566 C1562 1.368 . S
C1566 C1565 1.523 . S
H1567 C1542 0.950 . S
H1568 C1544 0.950 . S
H1569 C1545 0.949 . S
H1570 C1547 0.950 . S
H1571 C1549 0.950 . S
C1572 C1573 1.349 . S
C1572 C1574 1.327 . S
C1572 H1597 0.950 . S
C1573 C1572 1.349 . S
C1573 C1589 1.349 . S
C1574 C1572 1.327 . S
C1574 C1593 1.429 . S
C1574 H1598 0.950 . S
C1575 C1592 1.574 . S
C1575 C1594 1.368 . S
C1575 H1599 0.949 . S
H1576 C1580 0.949 . S
C1577 C1578 1.349 . S
C1577 C1579 1.327 . S
C1577 H1600 0.950 . S
C1578 C1577 1.349 . S
C1578 C1590 1.349 . S
C1579 C1577 1.327 . S
C1579 C1595 1.429 . S
C1579 H1601 0.950 . S
C1580 H1576 0.949 . S
C1580 C1588 1.574 . S
C1580 C1596 1.368 . S
H1581 C1589 0.950 . S
H1582 C1587 0.950 . S
H1583 C1588 0.949 . S
H1584 C1590 0.950 . S
H1585 C1591 0.950 . S
H1586 C1592 0.949 . S
C1587 H1582 0.950 . S
C1587 C1589 1.327 . S
C1587 C1593 1.429 . S
C1588 C1580 1.574 . S
C1588 H1583 0.949 . S
C1588 C1594 1.368 . S
C1589 C1573 1.349 . S
C1589 H1581 0.950 . S
C1589 C1587 1.327 . S
C1590 C1578 1.349 . S
C1590 H1584 0.950 . S
C1590 C1591 1.327 . S
C1591 H1585 0.950 . S
C1591 C1590 1.327 . S
C1591 C1595 1.429 . S
C1592 C1575 1.574 . S
C1592 H1586 0.949 . S
C1592 C1596 1.368 . S
C1593 C1574 1.429 . S
C1593 C1587 1.429 . S
C1593 C1594 1.523 . S
C1594 C1575 1.368 . S
C1594 C1588 1.368 . S
C1594 C1593 1.523 . S
C1595 C1579 1.429 . S
C1595 C1591 1.429 . S
C1595 C1596 1.523 . S
C1596 C1580 1.368 . S
C1596 C1592 1.368 . S
C1596 C1595 1.523 . S
H1597 C1572 0.950 . S
H1598 C1574 0.950 . S
H1599 C1575 0.949 . S
H1600 C1577 0.950 . S
H1601 C1579 0.950 . S
C1602 C1603 1.349 . S
C1602 C1604 1.327 . S
C1602 H1627 0.950 . S
C1603 C1602 1.349 . S
C1603 C1619 1.349 . S
C1604 C1602 1.327 . S
C1604 C1623 1.429 . S
C1604 H1628 0.950 . S
C1605 C1622 1.574 . S
C1605 C1624 1.368 . S
C1605 H1629 0.949 . S
H1606 C1610 0.949 . S
C1607 C1608 1.349 . S
C1607 C1609 1.327 . S
C1607 H1630 0.950 . S
C1608 C1607 1.349 . S
C1608 C1620 1.349 . S
C1609 C1607 1.327 . S
C1609 C1625 1.429 . S
C1609 H1631 0.950 . S
C1610 H1606 0.949 . S
C1610 C1618 1.574 . S
C1610 C1626 1.368 . S
H1611 C1619 0.950 . S
H1612 C1617 0.950 . S
H1613 C1618 0.949 . S
H1614 C1620 0.950 . S
H1615 C1621 0.950 . S
H1616 C1622 0.949 . S
C1617 H1612 0.950 . S
C1617 C1619 1.327 . S
C1617 C1623 1.429 . S
C1618 C1610 1.574 . S
C1618 H1613 0.949 . S
C1618 C1624 1.368 . S
C1619 C1603 1.349 . S
C1619 H1611 0.950 . S
C1619 C1617 1.327 . S
C1620 C1608 1.349 . S
C1620 H1614 0.950 . S
C1620 C1621 1.327 . S
C1621 H1615 0.950 . S
C1621 C1620 1.327 . S
C1621 C1625 1.429 . S
C1622 C1605 1.574 . S
C1622 H1616 0.949 . S
C1622 C1626 1.368 . S
C1623 C1604 1.429 . S
C1623 C1617 1.429 . S
C1623 C1624 1.523 . S
C1624 C1605 1.368 . S
C1624 C1618 1.368 . S
C1624 C1623 1.523 . S
C1625 C1609 1.429 . S
C1625 C1621 1.429 . S
C1625 C1626 1.523 . S
C1626 C1610 1.368 . S
C1626 C1622 1.368 . S
C1626 C1625 1.523 . S
H1627 C1602 0.950 . S
H1628 C1604 0.950 . S
H1629 C1605 0.949 . S
H1630 C1607 0.950 . S
H1631 C1609 0.950 . S
C1632 C1633 1.349 . S
C1632 C1634 1.327 . S
C1632 H1657 0.950 . S
C1633 C1632 1.349 . S
C1633 C1649 1.349 . S
C1634 C1632 1.327 . S
C1634 C1653 1.429 . S
C1634 H1658 0.950 . S
C1635 C1652 1.574 . S
C1635 C1654 1.368 . S
C1635 H1659 0.949 . S
H1636 C1640 0.949 . S
C1637 C1638 1.349 . S
C1637 C1639 1.327 . S
C1637 H1660 0.950 . S
C1638 C1637 1.349 . S
C1638 C1650 1.349 . S
C1639 C1637 1.327 . S
C1639 C1655 1.429 . S
C1639 H1661 0.950 . S
C1640 H1636 0.949 . S
C1640 C1648 1.574 . S
C1640 C1656 1.368 . S
H1641 C1649 0.950 . S
H1642 C1647 0.950 . S
H1643 C1648 0.949 . S
H1644 C1650 0.950 . S
H1645 C1651 0.950 . S
H1646 C1652 0.949 . S
C1647 H1642 0.950 . S
C1647 C1649 1.327 . S
C1647 C1653 1.429 . S
C1648 C1640 1.574 . S
C1648 H1643 0.949 . S
C1648 C1654 1.368 . S
C1649 C1633 1.349 . S
C1649 H1641 0.950 . S
C1649 C1647 1.327 . S
C1650 C1638 1.349 . S
C1650 H1644 0.950 . S
C1650 C1651 1.327 . S
C1651 H1645 0.950 . S
C1651 C1650 1.327 . S
C1651 C1655 1.429 . S
C1652 C1635 1.574 . S
C1652 H1646 0.949 . S
C1652 C1656 1.368 . S
C1653 C1634 1.429 . S
C1653 C1647 1.429 . S
C1653 C1654 1.523 . S
C1654 C1635 1.368 . S
C1654 C1648 1.368 . S
C1654 C1653 1.523 . S
C1655 C1639 1.429 . S
C1655 C1651 1.429 . S
C1655 C1656 1.523 . S
C1656 C1640 1.368 . S
C1656 C1652 1.368 . S
C1656 C1655 1.523 . S
H1657 C1632 0.950 . S
H1658 C1634 0.950 . S
H1659 C1635 0.949 . S
H1660 C1637 0.950 . S
H1661 C1639 0.950 . S
C1662 C1663 1.349 . S
C1662 C1664 1.327 . S
C1662 H1687 0.950 . S
C1663 C1662 1.349 . S
C1663 C1679 1.349 . S
C1664 C1662 1.327 . S
C1664 C1683 1.429 . S
C1664 H1688 0.950 . S
C1665 C1682 1.574 . S
C1665 C1684 1.368 . S
C1665 H1689 0.949 . S
H1666 C1670 0.949 . S
C1667 C1668 1.349 . S
C1667 C1669 1.327 . S
C1667 H1690 0.950 . S
C1668 C1667 1.349 . S
C1668 C1680 1.349 . S
C1669 C1667 1.327 . S
C1669 C1685 1.429 . S
C1669 H1691 0.950 . S
C1670 H1666 0.949 . S
C1670 C1678 1.574 . S
C1670 C1686 1.368 . S
H1671 C1679 0.950 . S
H1672 C1677 0.950 . S
H1673 C1678 0.949 . S
H1674 C1680 0.950 . S
H1675 C1681 0.950 . S
H1676 C1682 0.949 . S
C1677 H1672 0.950 . S
C1677 C1679 1.327 . S
C1677 C1683 1.429 . S
C1678 C1670 1.574 . S
C1678 H1673 0.949 . S
C1678 C1684 1.368 . S
C1679 C1663 1.349 . S
C1679 H1671 0.950 . S
C1679 C1677 1.327 . S
C1680 C1668 1.349 . S
C1680 H1674 0.950 . S
C1680 C1681 1.327 . S
C1681 H1675 0.950 . S
C1681 C1680 1.327 . S
C1681 C1685 1.429 . S
C1682 C1665 1.574 . S
C1682 H1676 0.949 . S
C1682 C1686 1.368 . S
C1683 C1664 1.429 . S
C1683 C1677 1.429 . S
C1683 C1684 1.523 . S
C1684 C1665 1.368 . S
C1684 C1678 1.368 . S
C1684 C1683 1.523 . S
C1685 C1669 1.429 . S
C1685 C1681 1.429 . S
C1685 C1686 1.523 . S
C1686 C1670 1.368 . S
C1686 C1682 1.368 . S
C1686 C1685 1.523 . S
H1687 C1662 0.950 . S
H1688 C1664 0.950 . S
H1689 C1665 0.949 . S
H1690 C1667 0.950 . S
H1691 C1669 0.950 . S
C1692 C1693 1.349 . S
C1692 C1694 1.327 . S
C1692 H1717 0.950 . S
C1693 C1692 1.349 . S
C1693 C1709 1.349 . S
C1694 C1692 1.327 . S
C1694 C1713 1.429 . S
C1694 H1718 0.950 . S
C1695 C1712 1.574 . S
C1695 C1714 1.368 . S
C1695 H1719 0.949 . S
H1696 C1700 0.949 . S
C1697 C1698 1.349 . S
C1697 C1699 1.327 . S
C1697 H1720 0.950 . S
C1698 C1697 1.349 . S
C1698 C1710 1.349 . S
C1699 C1697 1.327 . S
C1699 C1715 1.429 . S
C1699 H1721 0.950 . S
C1700 H1696 0.949 . S
C1700 C1708 1.574 . S
C1700 C1716 1.368 . S
H1701 C1709 0.950 . S
H1702 C1707 0.950 . S
H1703 C1708 0.949 . S
H1704 C1710 0.950 . S
H1705 C1711 0.950 . S
H1706 C1712 0.949 . S
C1707 H1702 0.950 . S
C1707 C1709 1.327 . S
C1707 C1713 1.429 . S
C1708 C1700 1.574 . S
C1708 H1703 0.949 . S
C1708 C1714 1.368 . S
C1709 C1693 1.349 . S
C1709 H1701 0.950 . S
C1709 C1707 1.327 . S
C1710 C1698 1.349 . S
C1710 H1704 0.950 . S
C1710 C1711 1.327 . S
C1711 H1705 0.950 . S
C1711 C1710 1.327 . S
C1711 C1715 1.429 . S
C1712 C1695 1.574 . S
C1712 H1706 0.949 . S
C1712 C1716 1.368 . S
C1713 C1694 1.429 . S
C1713 C1707 1.429 . S
C1713 C1714 1.523 . S
C1714 C1695 1.368 . S
C1714 C1708 1.368 . S
C1714 C1713 1.523 . S
C1715 C1699 1.429 . S
C1715 C1711 1.429 . S
C1715 C1716 1.523 . S
C1716 C1700 1.368 . S
C1716 C1712 1.368 . S
C1716 C1715 1.523 . S
H1717 C1692 0.950 . S
H1718 C1694 0.950 . S
H1719 C1695 0.949 . S
H1720 C1697 0.950 . S
H1721 C1699 0.950 . S
C1722 C1723 1.349 . S
C1722 C1724 1.327 . S
C1722 H1747 0.950 . S
C1723 C1722 1.349 . S
C1723 C1739 1.349 . S
C1724 C1722 1.327 . S
C1724 C1743 1.429 . S
C1724 H1748 0.950 . S
C1725 C1742 1.574 . S
C1725 C1744 1.368 . S
C1725 H1749 0.949 . S
H1726 C1730 0.949 . S
C1727 C1728 1.349 . S
C1727 C1729 1.327 . S
C1727 H1750 0.950 . S
C1728 C1727 1.349 . S
C1728 C1740 1.349 . S
C1729 C1727 1.327 . S
C1729 C1745 1.429 . S
C1729 H1751 0.950 . S
C1730 H1726 0.949 . S
C1730 C1738 1.574 . S
C1730 C1746 1.368 . S
H1731 C1739 0.950 . S
H1732 C1737 0.950 . S
H1733 C1738 0.949 . S
H1734 C1740 0.950 . S
H1735 C1741 0.950 . S
H1736 C1742 0.949 . S
C1737 H1732 0.950 . S
C1737 C1739 1.327 . S
C1737 C1743 1.429 . S
C1738 C1730 1.574 . S
C1738 H1733 0.949 . S
C1738 C1744 1.368 . S
C1739 C1723 1.349 . S
C1739 H1731 0.950 . S
C1739 C1737 1.327 . S
C1740 C1728 1.349 . S
C1740 H1734 0.950 . S
C1740 C1741 1.327 . S
C1741 H1735 0.950 . S
C1741 C1740 1.327 . S
C1741 C1745 1.429 . S
C1742 C1725 1.574 . S
C1742 H1736 0.949 . S
C1742 C1746 1.368 . S
C1743 C1724 1.429 . S
C1743 C1737 1.429 . S
C1743 C1744 1.523 . S
C1744 C1725 1.368 . S
C1744 C1738 1.368 . S
C1744 C1743 1.523 . S
C1745 C1729 1.429 . S
C1745 C1741 1.429 . S
C1745 C1746 1.523 . S
C1746 C1730 1.368 . S
C1746 C1742 1.368 . S
C1746 C1745 1.523 . S
H1747 C1722 0.950 . S
H1748 C1724 0.950 . S
H1749 C1725 0.949 . S
H1750 C1727 0.950 . S
H1751 C1729 0.950 . S
C313 C153 1.370 . S
C318 C8 1.347 . S
C343 C21 1.347 . S
C348 C114 1.370 . S
C373 C34 1.347 . S
C378 C127 1.370 . S
C403 C47 1.347 . S
C408 C140 1.370 . S
C433 C179 1.370 . S
C438 C60 1.347 . S
C463 C73 1.347 . S
C468 C192 1.370 . S
C493 C205 1.370 . S
C498 C86 1.347 . S
C523 C166 1.370 . S
C528 C99 1.347 . S
C553 C75 1.370 . S
C558 C112 1.347 . S
C583 C88 1.370 . S
C588 C125 1.347 . S
C613 C138 1.347 . S
C618 C101 1.370 . S
C643 C62 1.370 . S
C648 C151 1.347 . S
C673 C49 1.370 . S
C678 C164 1.347 . S
C703 C177 1.347 . S
C708 C10 1.370 . S
C733 C190 1.347 . S
C738 C23 1.370 . S
C763 C203 1.347 . S
C768 C36 1.370 . S
C793 C216 1.347 . S
C798 C309 1.370 . S
C823 C270 1.370 . S
C828 C229 1.347 . S
C853 C242 1.347 . S
C858 C231 1.370 . S
C883 C255 1.347 . S
C888 C244 1.370 . S
C913 C257 1.370 . S
C918 C268 1.347 . S
C943 C281 1.347 . S
C948 C296 1.370 . S
C973 C218 1.370 . S
C978 C294 1.347 . S
C1003 C283 1.370 . S
C1008 C307 1.347 . S
C1033 C5 1.269 . S
C1038 C83 1.269 . S
C1063 C18 1.269 . S
C1068 C96 1.269 . S
C1093 C31 1.269 . S
C1098 C57 1.269 . S
C1123 C70 1.269 . S
C1128 C44 1.269 . S
C1153 C135 1.269 . S
C1158 C109 1.269 . S
C1183 C122 1.269 . S
C1188 C148 1.269 . S
C1213 C161 1.269 . S
C1218 C187 1.269 . S
C1243 C200 1.269 . S
C1248 C174 1.269 . S
C1273 C226 1.269 . S
C1278 C213 1.269 . S
C1303 C239 1.269 . S
C1308 C304 1.269 . S
C1333 C252 1.269 . S
C1338 C278 1.269 . S
C1363 C265 1.269 . S
C1368 C291 1.269 . S
C1393 C0 0.835 . S
C1398 C65 0.835 . S
C1423 C13 0.835 . S
C1428 C78 0.835 . S
C1453 C26 0.835 . S
C1458 C91 0.835 . S
C1483 C52 0.835 . S
C1488 C39 0.835 . S
C1513 C104 0.835 . S
C1518 C299 0.835 . S
C1543 C117 0.835 . S
C1548 C273 0.835 . S
C1573 C286 0.835 . S
C1578 C130 0.835 . S
C1603 C143 0.835 . S
C1608 C208 0.835 . S
C1633 C260 0.835 . S
C1638 C156 0.835 . S
C1663 C221 0.835 . S
C1668 C169 0.835 . S
C1693 C182 0.835 . S
C1698 C234 0.835 . S
C1723 C247 0.835 . S
C1728 C195 0.835 . S
