# Generated by pormake.
# Topology yfj, (5)-cn, num edge types: 1
# Building blocks:
#     Node 0, Type 0, BuildingBlock: BEQFEK_clean_sbu_0, # of connection points: 5
#     Node 1, Type 0, BuildingBlock: BEQFEK_clean_sbu_0, # of connection points: 5
#     Node 2, Type 0, BuildingBlock: BEQFEK_clean_sbu_0, # of connection points: 5
#     Node 3, Type 0, BuildingBlock: BEQFEK_clean_sbu_0, # of connection points: 5
#     Node 4, Type 0, BuildingBlock: BEQFEK_clean_sbu_0, # of connection points: 5
#     Node 5, Type 0, BuildingBlock: BEQFEK_clean_sbu_0, # of connection points: 5
#     Node 6, Type 0, BuildingBlock: BEQFEK_clean_sbu_0, # of connection points: 5
#     Node 7, Type 0, BuildingBlock: BEQFEK_clean_sbu_0, # of connection points: 5
#     Node 8, Type 0, BuildingBlock: BEQFEK_clean_sbu_0, # of connection points: 5
#     Node 9, Type 0, BuildingBlock: BEQFEK_clean_sbu_0, # of connection points: 5
#     Node 10, Type 0, BuildingBlock: BEQFEK_clean_sbu_0, # of connection points: 5
#     Node 11, Type 0, BuildingBlock: BEQFEK_clean_sbu_0, # of connection points: 5
#     Node 12, Type 0, BuildingBlock: BEQFEK_clean_sbu_0, # of connection points: 5
#     Node 13, Type 0, BuildingBlock: BEQFEK_clean_sbu_0, # of connection points: 5
#     Node 14, Type 0, BuildingBlock: BEQFEK_clean_sbu_0, # of connection points: 5
#     Node 15, Type 0, BuildingBlock: BEQFEK_clean_sbu_0, # of connection points: 5
#     Edge 16, Type (0, 0), BuildingBlock: MIFKUJ_clean_linker_0, # of connection points: 2
#     Edge 17, Type (0, 0), BuildingBlock: MIFKUJ_clean_linker_0, # of connection points: 2
#     Edge 18, Type (0, 0), BuildingBlock: MIFKUJ_clean_linker_0, # of connection points: 2
#     Edge 19, Type (0, 0), BuildingBlock: MIFKUJ_clean_linker_0, # of connection points: 2
#     Edge 20, Type (0, 0), BuildingBlock: MIFKUJ_clean_linker_0, # of connection points: 2
#     Edge 21, Type (0, 0), BuildingBlock: MIFKUJ_clean_linker_0, # of connection points: 2
#     Edge 22, Type (0, 0), BuildingBlock: MIFKUJ_clean_linker_0, # of connection points: 2
#     Edge 23, Type (0, 0), BuildingBlock: MIFKUJ_clean_linker_0, # of connection points: 2
#     Edge 24, Type (0, 0), BuildingBlock: MIFKUJ_clean_linker_0, # of connection points: 2
#     Edge 25, Type (0, 0), BuildingBlock: MIFKUJ_clean_linker_0, # of connection points: 2
#     Edge 26, Type (0, 0), BuildingBlock: MIFKUJ_clean_linker_0, # of connection points: 2
#     Edge 27, Type (0, 0), BuildingBlock: MIFKUJ_clean_linker_0, # of connection points: 2
#     Edge 28, Type (0, 0), BuildingBlock: MIFKUJ_clean_linker_0, # of connection points: 2
#     Edge 29, Type (0, 0), BuildingBlock: MIFKUJ_clean_linker_0, # of connection points: 2
#     Edge 30, Type (0, 0), BuildingBlock: MIFKUJ_clean_linker_0, # of connection points: 2
#     Edge 31, Type (0, 0), BuildingBlock: MIFKUJ_clean_linker_0, # of connection points: 2
#     Edge 32, Type (0, 0), BuildingBlock: MIFKUJ_clean_linker_0, # of connection points: 2
#     Edge 33, Type (0, 0), BuildingBlock: MIFKUJ_clean_linker_0, # of connection points: 2
#     Edge 34, Type (0, 0), BuildingBlock: MIFKUJ_clean_linker_0, # of connection points: 2
#     Edge 35, Type (0, 0), BuildingBlock: MIFKUJ_clean_linker_0, # of connection points: 2
#     Edge 36, Type (0, 0), BuildingBlock: MIFKUJ_clean_linker_0, # of connection points: 2
#     Edge 37, Type (0, 0), BuildingBlock: MIFKUJ_clean_linker_0, # of connection points: 2
#     Edge 38, Type (0, 0), BuildingBlock: MIFKUJ_clean_linker_0, # of connection points: 2
#     Edge 39, Type (0, 0), BuildingBlock: MIFKUJ_clean_linker_0, # of connection points: 2
#     Edge 40, Type (0, 0), BuildingBlock: MIFKUJ_clean_linker_0, # of connection points: 2
#     Edge 41, Type (0, 0), BuildingBlock: MIFKUJ_clean_linker_0, # of connection points: 2
#     Edge 42, Type (0, 0), BuildingBlock: MIFKUJ_clean_linker_0, # of connection points: 2
#     Edge 43, Type (0, 0), BuildingBlock: MIFKUJ_clean_linker_0, # of connection points: 2
#     Edge 44, Type (0, 0), BuildingBlock: MIFKUJ_clean_linker_0, # of connection points: 2
#     Edge 45, Type (0, 0), BuildingBlock: MIFKUJ_clean_linker_0, # of connection points: 2
#     Edge 46, Type (0, 0), BuildingBlock: MIFKUJ_clean_linker_0, # of connection points: 2
#     Edge 47, Type (0, 0), BuildingBlock: MIFKUJ_clean_linker_0, # of connection points: 2
#     Edge 48, Type (0, 0), BuildingBlock: MIFKUJ_clean_linker_0, # of connection points: 2
#     Edge 49, Type (0, 0), BuildingBlock: MIFKUJ_clean_linker_0, # of connection points: 2
#     Edge 50, Type (0, 0), BuildingBlock: MIFKUJ_clean_linker_0, # of connection points: 2
#     Edge 51, Type (0, 0), BuildingBlock: MIFKUJ_clean_linker_0, # of connection points: 2
#     Edge 52, Type (0, 0), BuildingBlock: MIFKUJ_clean_linker_0, # of connection points: 2
#     Edge 53, Type (0, 0), BuildingBlock: MIFKUJ_clean_linker_0, # of connection points: 2
#     Edge 54, Type (0, 0), BuildingBlock: MIFKUJ_clean_linker_0, # of connection points: 2
#     Edge 55, Type (0, 0), BuildingBlock: MIFKUJ_clean_linker_0, # of connection points: 2
# Relax obj value: 0.517
# Max RMSD: 0.221
# Mean RMSD: 0.221
data_MOF--net-yfj--node1-BEQFEK_clean_sbu_0--edge1-MIFKUJ_clean_linker_0
_symmetry_space_group_name_H-M    P1
_symmetry_Int_Tables_number       1
_symmetry_cell_setting            triclinic
loop_
_symmetry_equiv_pos_as_xyz
'x, y, z'
_cell_length_a     58.42836
_cell_length_b     58.423282
_cell_length_c     61.618285
_cell_angle_alpha  89.998861
_cell_angle_beta   90.000444
_cell_angle_gamma 89.98482
loop_
_atom_site_label
_atom_site_type_symbol
_atom_site_fract_x
_atom_site_fract_y
_atom_site_fract_z
_atom_type_partial_charge
Co0 Co 0.089 0.13821 0.3571 0.0
Co1 Co 0.11174 0.1504 0.31191 0.0
C2 C 0.13691 0.12395 0.34533 0.0
O3 O 0.1202 0.12559 0.35841 0.0
O4 O 0.13601 0.1325 0.32637 0.0
C5 C 0.07978 0.10777 0.39182 0.0
O6 O 0.09253 0.09417 0.37989 0.0
C7 C 0.13659 0.1434 0.27059 0.0
C8 C 0.12753 0.17434 0.25195 0.0
C9 C 0.14071 0.1546 0.25098 0.0
N10 N 0.12203 0.1561 0.28256 0.0
N11 N 0.11664 0.17454 0.27124 0.0
C12 C 0.14532 0.12045 0.27749 0.0
H13 H 0.13339 0.11239 0.28921 0.0
H14 H 0.14751 0.10901 0.26326 0.0
H15 H 0.16214 0.12265 0.28557 0.0
C16 C 0.05652 0.11415 0.32859 0.0
N17 N 0.07416 0.12865 0.3314 0.0
N18 N 0.08372 0.13305 0.31247 0.0
C19 C 0.0726 0.12089 0.29707 0.0
C20 C 0.05505 0.1085 0.30677 0.0
C21 C 0.04362 0.10329 0.34687 0.0
H22 H 0.04047 0.11606 0.35984 0.0
H23 H 0.05398 0.0891 0.35369 0.0
H24 H 0.02701 0.09622 0.34135 0.0
O25 O 0.09129 0.17161 0.35858 0.0
O26 O 0.10943 0.18066 0.32802 0.0
H27 H 0.08355 0.13687 0.26754 0.0
H28 H 0.06625 0.11149 0.26371 0.0
C29 C 0.07979 0.1195 0.27381 0.0
H30 H 0.09556 0.10904 0.27256 0.0
H31 H 0.10572 0.1874 0.27679 0.0
O32 O 0.0743 0.12733 0.38436 0.0
C33 C 0.10067 0.18635 0.34627 0.0
Co34 Co 0.87109 0.5977 0.60162 0.0
Co35 Co 0.85457 0.61861 0.55691 0.0
C36 C 0.88808 0.64271 0.58608 0.0
O37 O 0.88841 0.62625 0.59953 0.0
O38 O 0.87515 0.64232 0.56943 0.0
C39 C 0.90094 0.5857 0.63695 0.0
O40 O 0.91701 0.59482 0.62482 0.0
C41 C 0.85664 0.64455 0.51537 0.0
C42 C 0.83095 0.62676 0.49529 0.0
C43 C 0.84647 0.64466 0.49502 0.0
N44 N 0.84748 0.62748 0.52728 0.0
N45 N 0.83207 0.61697 0.51511 0.0
C46 C 0.87571 0.65968 0.52285 0.0
H47 H 0.889 0.64929 0.53109 0.0
H48 H 0.88368 0.66902 0.50911 0.0
H49 H 0.86877 0.67229 0.53456 0.0
C50 C 0.88958 0.5622 0.57311 0.0
N51 N 0.87579 0.58032 0.57628 0.0
N52 N 0.87048 0.58956 0.55743 0.0
C53 C 0.88161 0.57793 0.54168 0.0
C54 C 0.89404 0.56015 0.55108 0.0
C55 C 0.90196 0.5502 0.59106 0.0
H56 H 0.89056 0.5483 0.60532 0.0
H57 H 0.91702 0.56058 0.59581 0.0
H58 H 0.90804 0.53306 0.58593 0.0
O59 O 0.8388 0.60491 0.60566 0.0
O60 O 0.82514 0.61851 0.57471 0.0
H61 H 0.86565 0.58499 0.51126 0.0
H62 H 0.8946 0.57462 0.50888 0.0
C63 C 0.88296 0.58563 0.51856 0.0
H64 H 0.88901 0.60362 0.51796 0.0
H65 H 0.82238 0.603 0.52029 0.0
O66 O 0.88086 0.58336 0.62929 0.0
C67 C 0.82229 0.61285 0.59458 0.0
Co68 Co 0.40149 0.37022 0.85055 0.0
Co69 Co 0.38637 0.34945 0.80518 0.0
C70 C 0.35576 0.37964 0.83167 0.0
O71 O 0.3709 0.38306 0.84605 0.0
O72 O 0.35928 0.36628 0.81578 0.0
C73 C 0.40431 0.40238 0.88527 0.0
O74 O 0.39045 0.41403 0.87265 0.0
C75 C 0.36416 0.35315 0.76263 0.0
C76 C 0.376 0.32247 0.74507 0.0
C77 C 0.36162 0.34127 0.74327 0.0
N78 N 0.37897 0.34177 0.77547 0.0
N79 N 0.3861 0.32348 0.76478 0.0
C80 C 0.35353 0.37568 0.76837 0.0
H81 H 0.36529 0.38576 0.77878 0.0
H82 H 0.34942 0.38567 0.75355 0.0
H83 H 0.33744 0.37262 0.77749 0.0
C84 C 0.43685 0.39146 0.82366 0.0
N85 N 0.41961 0.37648 0.82608 0.0
N86 N 0.41309 0.36889 0.80689 0.0
C87 C 0.42594 0.37935 0.79158 0.0
C88 C 0.44148 0.39388 0.80174 0.0
C89 C 0.44628 0.40564 0.84181 0.0
H90 H 0.45019 0.39449 0.8559 0.0
H91 H 0.43316 0.41826 0.84694 0.0
H92 H 0.46197 0.41496 0.83686 0.0
O93 O 0.39864 0.33707 0.85526 0.0
O94 O 0.38901 0.32093 0.8239 0.0
H95 H 0.42102 0.35878 0.76324 0.0
H96 H 0.43605 0.38542 0.75833 0.0
C97 C 0.42209 0.37714 0.76769 0.0
H98 H 0.40559 0.38535 0.76337 0.0
H99 H 0.39752 0.31147 0.77107 0.0
O100 O 0.41294 0.38377 0.87827 0.0
C101 C 0.39371 0.31938 0.84414 0.0
Co102 Co 0.63162 0.91065 0.10046 0.0
Co103 Co 0.64691 0.88853 0.0558 0.0
C104 C 0.61918 0.86263 0.08799 0.0
O105 O 0.61856 0.87966 0.10076 0.0
O106 O 0.62997 0.86345 0.07011 0.0
C107 C 0.60001 0.91904 0.1344 0.0
O108 O 0.5868 0.9068 0.12164 0.0
C109 C 0.64146 0.86252 0.0151 0.0
C110 C 0.67119 0.87363 0.99572 0.0
C111 C 0.65253 0.85895 0.99537 0.0
N112 N 0.65319 0.87826 0.0266 0.0
N113 N 0.67091 0.88489 0.01484 0.0
C114 C 0.61935 0.85217 0.02251 0.0
H115 H 0.60989 0.86439 0.03297 0.0
H116 H 0.60845 0.84743 0.00846 0.0
H117 H 0.62302 0.83657 0.03218 0.0
C118 C 0.6083 0.94276 0.07118 0.0
N119 N 0.62319 0.92556 0.07453 0.0
N120 N 0.62851 0.91602 0.05581 0.0
C121 C 0.61654 0.92668 0.03999 0.0
C122 C 0.60338 0.94399 0.0492 0.0
C123 C 0.59615 0.95517 0.08902 0.0
H124 H 0.60819 0.95876 0.1025 0.0
H125 H 0.58213 0.9442 0.09523 0.0
H126 H 0.58864 0.97148 0.08319 0.0
O127 O 0.66506 0.90825 0.1031 0.0
O128 O 0.67668 0.89209 0.07232 0.0
H129 H 0.6335 0.91677 0.01067 0.0
H130 H 0.60667 0.93164 0.00652 0.0
C131 C 0.61583 0.91904 0.01684 0.0
H132 H 0.60692 0.90233 0.01581 0.0
H133 H 0.68295 0.89691 0.01996 0.0
O134 O 0.61972 0.92496 0.1276 0.0
C135 C 0.68093 0.90022 0.09117 0.0
Co136 Co 0.09425 0.36457 0.90465 0.0
Co137 Co 0.11381 0.35098 0.95117 0.0
C138 C 0.1413 0.37778 0.9199 0.0
O139 O 0.12534 0.37735 0.90597 0.0
O140 O 0.13933 0.368 0.93817 0.0
C141 C 0.08924 0.39582 0.87006 0.0
O142 O 0.10092 0.40867 0.8836 0.0
C143 C 0.14055 0.3523 0.99213 0.0
C144 C 0.11782 0.33471 0.01533 0.0
C145 C 0.13854 0.34614 0.01385 0.0
N146 N 0.12165 0.34539 0.98138 0.0
N147 N 0.10827 0.33465 0.99537 0.0
C148 C 0.16103 0.36274 0.98138 0.0
H149 H 0.16541 0.35269 0.9667 0.0
H150 H 0.15695 0.38054 0.97641 0.0
H151 H 0.17622 0.36281 0.99214 0.0
C152 C 0.06077 0.3892 0.93137 0.0
N153 N 0.07787 0.37391 0.92949 0.0
N154 N 0.08659 0.36968 0.94884 0.0
C155 C 0.07577 0.3831 0.96347 0.0
C156 C 0.0589 0.39568 0.95291 0.0
C157 C 0.04893 0.40011 0.91249 0.0
H158 H 0.04646 0.38741 0.89933 0.0
H159 H 0.05965 0.41434 0.90626 0.0
H160 H 0.03209 0.40722 0.91738 0.0
O161 O 0.09652 0.33107 0.90298 0.0
O162 O 0.11159 0.32091 0.93476 0.0
H163 H 0.07848 0.37057 0.99587 0.0
H164 H 0.07515 0.40114 0.99419 0.0
C165 C 0.08331 0.38602 0.98651 0.0
H166 H 0.1022 0.38785 0.98716 0.0
H167 H 0.09243 0.32757 0.99138 0.0
O168 O 0.08215 0.37634 0.87645 0.0
C169 C 0.10431 0.31583 0.91577 0.0
Co170 Co 0.62348 0.60143 0.15275 0.0
Co171 Co 0.6451 0.61668 0.19751 0.0
C172 C 0.61434 0.64732 0.17106 0.0
O173 O 0.61063 0.63213 0.15676 0.0
O174 O 0.62779 0.64373 0.18692 0.0
C175 C 0.59183 0.59658 0.11739 0.0
O176 O 0.58014 0.6119 0.12837 0.0
C177 C 0.64044 0.63561 0.24136 0.0
C178 C 0.67553 0.6331 0.25437 0.0
C179 C 0.65387 0.64141 0.25914 0.0
N180 N 0.65352 0.62438 0.22684 0.0
N181 N 0.67443 0.62268 0.23486 0.0
C182 C 0.61642 0.64319 0.23691 0.0
H183 H 0.61656 0.66147 0.232 0.0
H184 H 0.60877 0.63286 0.22366 0.0
H185 H 0.60565 0.6416 0.25162 0.0
C186 C 0.60245 0.56645 0.18027 0.0
N187 N 0.6174 0.58368 0.17753 0.0
N188 N 0.62599 0.58975 0.19645 0.0
C189 C 0.61664 0.57628 0.21193 0.0
C190 C 0.60147 0.56105 0.20219 0.0
C191 C 0.58691 0.55813 0.16261 0.0
H192 H 0.57692 0.57279 0.15622 0.0
H193 H 0.57479 0.54483 0.16825 0.0
H194 H 0.59737 0.5512 0.14909 0.0
O195 O 0.65665 0.604 0.14762 0.0
O196 O 0.67331 0.61369 0.17868 0.0
H197 H 0.61631 0.56279 0.24451 0.0
H198 H 0.61079 0.59301 0.24221 0.0
C199 C 0.62113 0.57865 0.23571 0.0
H200 H 0.63948 0.58245 0.23856 0.0
H201 H 0.68819 0.61537 0.2266 0.0
O202 O 0.6102 0.58858 0.12551 0.0
C203 C 0.67454 0.60879 0.15849 0.0
Co204 Co 0.40734 0.13173 0.40617 0.0
Co205 Co 0.38817 0.14741 0.45193 0.0
C206 C 0.35998 0.11991 0.42105 0.0
O207 O 0.37609 0.11953 0.40721 0.0
O208 O 0.36222 0.13017 0.43913 0.0
C209 C 0.41363 0.10231 0.36959 0.0
O210 O 0.39877 0.0896 0.38011 0.0
C211 C 0.36663 0.14174 0.49507 0.0
C212 C 0.37335 0.17521 0.5104 0.0
C213 C 0.36221 0.15455 0.51366 0.0
N214 N 0.37974 0.15429 0.48154 0.0
N215 N 0.38393 0.17416 0.49098 0.0
C216 C 0.35635 0.11915 0.48902 0.0
H217 H 0.36672 0.11071 0.47625 0.0
H218 H 0.35515 0.10764 0.50323 0.0
H219 H 0.33878 0.12201 0.48275 0.0
C220 C 0.44056 0.10785 0.43366 0.0
N221 N 0.42336 0.12292 0.43131 0.0
N222 N 0.41558 0.12901 0.45054 0.0
C223 C 0.42774 0.11773 0.46583 0.0
C224 C 0.44401 0.104 0.45566 0.0
C225 C 0.45061 0.09473 0.41506 0.0
H226 H 0.4566 0.10688 0.40244 0.0
H227 H 0.43711 0.08384 0.40777 0.0
H228 H 0.46501 0.08359 0.42004 0.0
O229 O 0.4056 0.1651 0.40378 0.0
O230 O 0.39086 0.17711 0.43502 0.0
H231 H 0.42009 0.13681 0.49462 0.0
H232 H 0.43721 0.11141 0.49919 0.0
C233 C 0.42289 0.11879 0.48964 0.0
H234 H 0.40708 0.10898 0.49316 0.0
H235 H 0.39325 0.18737 0.4838 0.0
O236 O 0.42111 0.12047 0.37852 0.0
C237 C 0.39831 0.18114 0.41589 0.0
Co238 Co 0.86301 0.90265 0.64904 0.0
Co239 Co 0.85156 0.88394 0.69618 0.0
C240 C 0.87559 0.85514 0.66433 0.0
O241 O 0.87346 0.87072 0.65013 0.0
O242 O 0.86848 0.85789 0.68363 0.0
C243 C 0.89459 0.90608 0.61462 0.0
O244 O 0.90666 0.8938 0.62835 0.0
C245 C 0.85257 0.85858 0.73794 0.0
C246 C 0.83502 0.88231 0.7603 0.0
C247 C 0.84577 0.86121 0.75938 0.0
N248 N 0.84607 0.87723 0.72659 0.0
N249 N 0.83544 0.89126 0.7401 0.0
C250 C 0.86671 0.83951 0.72883 0.0
H251 H 0.85694 0.83069 0.71586 0.0
H252 H 0.88251 0.84674 0.72159 0.0
H253 H 0.87169 0.82689 0.74142 0.0
C254 C 0.89035 0.93525 0.6744 0.0
N255 N 0.87434 0.91877 0.67334 0.0
N256 N 0.87041 0.91076 0.693 0.0
C257 C 0.88448 0.9216 0.70707 0.0
C258 C 0.89753 0.93751 0.69571 0.0
C259 C 0.9004 0.94701 0.65506 0.0
H260 H 0.88702 0.94985 0.64258 0.0
H261 H 0.91406 0.93611 0.64804 0.0
H262 H 0.90808 0.96367 0.65975 0.0
O263 O 0.82953 0.90245 0.64842 0.0
O264 O 0.82105 0.88632 0.68016 0.0
H265 H 0.87309 0.91975 0.73991 0.0
H266 H 0.90371 0.92205 0.73715 0.0
C267 C 0.88804 0.9143 0.73011 0.0
H268 H 0.88928 0.89538 0.73097 0.0
H269 H 0.82876 0.90713 0.7356 0.0
O270 O 0.8752 0.9138 0.62063 0.0
C271 C 0.81496 0.89429 0.66167 0.0
Co272 Co 0.59588 0.62616 0.85231 0.0
Co273 Co 0.61578 0.64504 0.80804 0.0
C274 C 0.64324 0.61482 0.83774 0.0
O275 O 0.62672 0.61283 0.85103 0.0
O276 O 0.64145 0.62706 0.82072 0.0
C277 C 0.58735 0.59538 0.8877 0.0
O278 O 0.60251 0.58259 0.87766 0.0
C279 C 0.63993 0.64257 0.76594 0.0
C280 C 0.62734 0.67326 0.74884 0.0
C281 C 0.64222 0.6549 0.74673 0.0
N282 N 0.62471 0.6533 0.77886 0.0
N283 N 0.61719 0.6716 0.76845 0.0
C284 C 0.65097 0.62019 0.77146 0.0
H285 H 0.63966 0.60998 0.78219 0.0
H286 H 0.65479 0.61024 0.75655 0.0
H287 H 0.66723 0.6235 0.78018 0.0
C288 C 0.56283 0.60478 0.82301 0.0
N289 N 0.57992 0.61971 0.82653 0.0
N290 N 0.58845 0.62651 0.80781 0.0
C291 C 0.57717 0.61551 0.79174 0.0
C292 C 0.56051 0.60145 0.80085 0.0
C293 C 0.55169 0.59111 0.84062 0.0
H294 H 0.54653 0.60262 0.85406 0.0
H295 H 0.5642 0.57855 0.84707 0.0
H296 H 0.53643 0.58178 0.83461 0.0
O297 O 0.59909 0.65913 0.85687 0.0
O298 O 0.61253 0.67392 0.82627 0.0
H299 H 0.58542 0.63448 0.76309 0.0
H300 H 0.57092 0.60763 0.75799 0.0
C301 C 0.58378 0.61641 0.76832 0.0
H302 H 0.60061 0.60795 0.76614 0.0
H303 H 0.60527 0.68309 0.7748 0.0
O304 O 0.58087 0.614 0.87891 0.0
C305 C 0.60591 0.67626 0.84593 0.0
Co306 Co 0.37002 0.09772 0.10566 0.0
Co307 Co 0.35062 0.11573 0.06078 0.0
C308 C 0.38089 0.14422 0.08936 0.0
O309 O 0.38361 0.12827 0.10309 0.0
O310 O 0.36795 0.1418 0.07295 0.0
C311 C 0.4024 0.091 0.13972 0.0
O312 O 0.41503 0.10414 0.12725 0.0
C313 C 0.35569 0.1393 0.01892 0.0
C314 C 0.32416 0.13012 1.0013 0.0
C315 C 0.34385 0.1433 0.99968 0.0
N316 N 0.34343 0.12483 0.03138 0.0
N317 N 0.32462 0.11931 0.02066 0.0
C318 C 0.37888 0.1481 0.02501 0.0
H319 H 0.3878 0.13562 0.03563 0.0
H320 H 0.38943 0.15131 0.01035 0.0
H321 H 0.37696 0.16438 0.03411 0.0
C322 C 0.39108 0.06329 0.07733 0.0
N323 N 0.37649 0.08079 0.08037 0.0
N324 N 0.36941 0.08851 0.06141 0.0
C325 C 0.37983 0.07623 0.04565 0.0
C326 C 0.39382 0.05982 0.05524 0.0
C327 C 0.40465 0.05248 0.0952 0.0
H328 H 0.39332 0.04881 0.1092 0.0
H329 H 0.4181 0.06461 0.1006 0.0
H330 H 0.413 0.03639 0.08984 0.0
O331 O 0.33681 0.10085 0.10999 0.0
O332 O 0.3217 0.11251 0.07879 0.0
H333 H 0.35974 0.08383 0.01749 0.0
H334 H 0.38519 0.06703 0.01208 0.0
C335 C 0.37794 0.08121 0.02192 0.0
H336 H 0.38744 0.09715 0.01819 0.0
H337 H 0.31193 0.1085 0.0267 0.0
O338 O 0.3829 0.08446 0.13288 0.0
C339 C 0.31951 0.10671 0.09872 0.0
Co340 Co 0.91174 0.8607 0.34769 0.0
Co341 Co 0.88867 0.85138 0.30184 0.0
C342 C 0.86484 0.87847 0.33543 0.0
O343 O 0.88132 0.87516 0.34849 0.0
O344 O 0.86524 0.87043 0.31625 0.0
C345 C 0.92032 0.88827 0.38462 0.0
O346 O 0.90866 0.90309 0.373 0.0
C347 C 0.86082 0.85446 0.26161 0.0
C348 C 0.8825 0.83675 0.23759 0.0
C349 C 0.86216 0.84874 0.23973 0.0
N350 N 0.87977 0.84683 0.27179 0.0
N351 N 0.89249 0.83597 0.25732 0.0
C352 C 0.84088 0.86499 0.27313 0.0
H353 H 0.8375 0.85536 0.2883 0.0
H354 H 0.84506 0.88296 0.27739 0.0
H355 H 0.82512 0.86461 0.26311 0.0
C356 C 0.94466 0.88561 0.32056 0.0
N357 N 0.92733 0.87059 0.32258 0.0
N358 N 0.91738 0.86768 0.30357 0.0
C359 C 0.92774 0.88153 0.28901 0.0
C360 C 0.94546 0.89322 0.29925 0.0
C361 C 0.95712 0.89583 0.33943 0.0
H362 H 0.96003 0.88264 0.35206 0.0
H363 H 0.94658 0.90977 0.34647 0.0
H364 H 0.97379 0.90316 0.33436 0.0
O365 O 0.9077 0.82749 0.34782 0.0
O366 O 0.88879 0.82063 0.31717 0.0
H367 H 0.92207 0.87073 0.2564 0.0
H368 H 0.92732 0.90087 0.25894 0.0
C369 C 0.91881 0.88597 0.26663 0.0
H370 H 0.90006 0.88893 0.26726 0.0
H371 H 0.9082 0.82833 0.26085 0.0
O372 O 0.92596 0.86927 0.37603 0.0
C373 C 0.8974 0.81382 0.33511 0.0
Co374 Co 0.13902 0.41339 0.60474 0.0
Co375 Co 0.1495 0.39061 0.55902 0.0
C376 C 0.12305 0.36597 0.59257 0.0
O377 O 0.1258 0.38236 0.60585 0.0
O378 O 0.13095 0.36692 0.57337 0.0
C379 C 0.10955 0.42193 0.64018 0.0
O380 O 0.09563 0.40981 0.62799 0.0
C381 C 0.14666 0.36293 0.51852 0.0
C382 C 0.16726 0.38336 0.49561 0.0
C383 C 0.15403 0.36374 0.49705 0.0
N384 N 0.15471 0.38147 0.52912 0.0
N385 N 0.16719 0.39347 0.5153 0.0
C386 C 0.13385 0.34389 0.5293 0.0
H387 H 0.11631 0.34985 0.53328 0.0
H388 H 0.13286 0.32842 0.51895 0.0
H389 H 0.14264 0.33911 0.54459 0.0
C390 C 0.11417 0.44603 0.57699 0.0
N391 N 0.12903 0.42861 0.57937 0.0
N392 N 0.13244 0.41875 0.56039 0.0
C393 C 0.11899 0.42914 0.54553 0.0
C394 C 0.10712 0.44689 0.55552 0.0
C395 C 0.10408 0.45914 0.59553 0.0
H396 H 0.11721 0.46198 0.60823 0.0
H397 H 0.08979 0.44913 0.60261 0.0
H398 H 0.09725 0.47589 0.59004 0.0
O399 O 0.17239 0.41042 0.60546 0.0
O400 O 0.18004 0.39193 0.57475 0.0
H401 H 0.13129 0.42303 0.51345 0.0
H402 H 0.10119 0.4295 0.51464 0.0
C403 C 0.11539 0.42043 0.52295 0.0
H404 H 0.11173 0.4018 0.52342 0.0
H405 H 0.17552 0.40871 0.51925 0.0
O406 O 0.12896 0.42767 0.63254 0.0
C407 C 0.1865 0.40055 0.59283 0.0
Co408 Co 0.59812 0.86083 0.40156 0.0
Co409 Co 0.61501 0.8477 0.44897 0.0
C410 C 0.64615 0.86957 0.41677 0.0
O411 O 0.63051 0.86956 0.40247 0.0
O412 O 0.64261 0.8618 0.43577 0.0
C413 C 0.59577 0.88911 0.36404 0.0
O414 O 0.61042 0.90128 0.37537 0.0
C415 C 0.63761 0.85325 0.49167 0.0
C416 C 0.62042 0.82725 0.51185 0.0
C417 C 0.63748 0.84373 0.51235 0.0
N418 N 0.62167 0.8427 0.47942 0.0
N419 N 0.61141 0.8272 0.49167 0.0
C420 C 0.6518 0.87298 0.48409 0.0
H421 H 0.64235 0.88311 0.47178 0.0
H422 H 0.65652 0.88428 0.49786 0.0
H423 H 0.66771 0.86625 0.47666 0.0
C424 C 0.5673 0.89061 0.4266 0.0
N425 N 0.58278 0.87362 0.4256 0.0
N426 N 0.58949 0.86829 0.44541 0.0
C427 C 0.57832 0.88194 0.45962 0.0
C428 C 0.56397 0.89655 0.44813 0.0
C429 C 0.55739 0.90232 0.40716 0.0
H430 H 0.55266 0.88944 0.39473 0.0
H431 H 0.57046 0.91389 0.40008 0.0
H432 H 0.54208 0.91257 0.41157 0.0
O433 O 0.59615 0.82743 0.40187 0.0
O434 O 0.61012 0.8171 0.43401 0.0
H435 H 0.58173 0.86563 0.49051 0.0
H436 H 0.57171 0.8949 0.49195 0.0
C437 C 0.58341 0.88297 0.48339 0.0
H438 H 0.60131 0.88876 0.48578 0.0
H439 H 0.59834 0.81648 0.48623 0.0
O440 O 0.58671 0.87154 0.37273 0.0
C441 C 0.60213 0.81202 0.4153 0.0
Co442 Co 0.13481 0.09557 0.65472 0.0
Co443 Co 0.14952 0.11563 0.70066 0.0
C444 C 0.12317 0.14348 0.66892 0.0
O445 O 0.12354 0.12712 0.65539 0.0
O446 O 0.13249 0.14156 0.68748 0.0
C447 C 0.10271 0.09016 0.62085 0.0
O448 O 0.09061 0.10307 0.63401 0.0
C449 C 0.14747 0.14095 0.74251 0.0
C450 C 0.17039 0.12077 0.76356 0.0
C451 C 0.15603 0.13966 0.76356 0.0
N452 N 0.156 0.12343 0.73076 0.0
N453 N 0.16982 0.11153 0.74348 0.0
C454 C 0.13342 0.15985 0.73301 0.0
H455 H 0.11694 0.15283 0.72703 0.0
H456 H 0.13013 0.17386 0.7447 0.0
H457 H 0.14287 0.16723 0.71908 0.0
C458 C 0.11059 0.06265 0.68223 0.0
N459 N 0.12548 0.08001 0.67993 0.0
N460 N 0.13047 0.08863 0.69913 0.0
C461 C 0.1181 0.07731 0.71426 0.0
C462 C 0.10522 0.06037 0.70406 0.0
C463 C 0.09925 0.05094 0.66347 0.0
H464 H 0.112 0.04755 0.65054 0.0
H465 H 0.08585 0.06238 0.65679 0.0
H466 H 0.09108 0.03461 0.66822 0.0
O467 O 0.16812 0.09652 0.65261 0.0
O468 O 0.17943 0.11215 0.68376 0.0
H469 H 0.10472 0.07328 0.74685 0.0
H470 H 0.11297 0.10214 0.73932 0.0
C471 C 0.11733 0.08373 0.73775 0.0
H472 H 0.1345 0.08108 0.74498 0.0
H473 H 0.17876 0.09699 0.73851 0.0
O474 O 0.12215 0.08288 0.62714 0.0
C475 C 0.18391 0.10411 0.66487 0.0
Co476 Co 0.91119 0.63853 0.90213 0.0
Co477 Co 0.88712 0.64908 0.94696 0.0
C478 C 0.86399 0.62156 0.91293 0.0
O479 O 0.88074 0.6242 0.90003 0.0
O480 O 0.86413 0.63004 0.93193 0.0
C481 C 0.92348 0.60993 0.86668 0.0
O482 O 0.9127 0.59446 0.87829 0.0
C483 C 0.86053 0.64197 0.98734 0.0
C484 C 0.87088 0.67162 0.00723 0.0
C485 C 0.8565 0.65274 0.00716 0.0
N486 N 0.87623 0.65412 0.97619 0.0
N487 N 0.8824 0.67177 0.98826 0.0
C488 C 0.85058 0.61986 0.97953 0.0
H489 H 0.8631 0.61066 0.96919 0.0
H490 H 0.8457 0.60872 0.99337 0.0
H491 H 0.83511 0.62351 0.96967 0.0
C492 C 0.94388 0.61485 0.93101 0.0
N493 N 0.92606 0.6291 0.92794 0.0
N494 N 0.91591 0.63301 0.9467 0.0
C495 C 0.92676 0.62078 0.9622 0.0
C496 C 0.94482 0.60882 0.9528 0.0
C497 C 0.95724 0.60423 0.91289 0.0
H498 H 0.95952 0.61672 0.89954 0.0
H499 H 0.94774 0.58918 0.90665 0.0
H500 H 0.97429 0.59836 0.91844 0.0
O501 O 0.90743 0.67176 0.90126 0.0
O502 O 0.8882 0.67974 0.93144 0.0
H503 H 0.91559 0.63594 0.99198 0.0
H504 H 0.93123 0.60946 0.99535 0.0
C505 C 0.91859 0.61867 0.98511 0.0
H506 H 0.90214 0.60922 0.98536 0.0
H507 H 0.89426 0.68411 0.98344 0.0
O508 O 0.9267 0.62974 0.87468 0.0
C509 C 0.89723 0.68599 0.9135 0.0
Co510 Co 0.36327 0.40479 0.15425 0.0
Co511 Co 0.35136 0.38486 0.20089 0.0
C512 C 0.37854 0.35827 0.16852 0.0
O513 O 0.37753 0.37428 0.15461 0.0
O514 O 0.36887 0.35994 0.18693 0.0
C515 C 0.39046 0.41268 0.11649 0.0
O516 O 0.40532 0.40023 0.12729 0.0
C517 C 0.35293 0.35699 0.24109 0.0
C518 C 0.33892 0.38056 0.26571 0.0
C519 C 0.34853 0.35902 0.26321 0.0
N520 N 0.34689 0.37663 0.23112 0.0
N521 N 0.33819 0.3905 0.24595 0.0
C522 C 0.36064 0.33597 0.22927 0.0
H523 H 0.35037 0.33389 0.21428 0.0
H524 H 0.37891 0.33784 0.22471 0.0
H525 H 0.35849 0.32034 0.23928 0.0
C526 C 0.38898 0.43786 0.18027 0.0
N527 N 0.37326 0.42113 0.17885 0.0
N528 N 0.36937 0.41258 0.19834 0.0
C529 C 0.3832 0.42342 0.21266 0.0
C530 C 0.39592 0.43987 0.20167 0.0
C531 C 0.39944 0.44958 0.16111 0.0
H532 H 0.3861 0.45322 0.14878 0.0
H533 H 0.41249 0.43817 0.15377 0.0
H534 H 0.40787 0.4658 0.16601 0.0
O535 O 0.3299 0.40176 0.15404 0.0
O536 O 0.3205 0.38673 0.18596 0.0
H537 H 0.37301 0.4215 0.24585 0.0
H538 H 0.4035 0.42245 0.24208 0.0
C539 C 0.38727 0.4155 0.23544 0.0
H540 H 0.38781 0.39654 0.236 0.0
H541 H 0.33212 0.40693 0.24265 0.0
O542 O 0.37186 0.41845 0.12573 0.0
C543 C 0.31497 0.39411 0.16716 0.0
H544 H 0.056 0.13281 0.42193 0.0
H545 H 0.05482 0.12646 0.46114 0.0
H546 H 0.09343 0.06406 0.45327 0.0
H547 H 0.09426 0.06999 0.41407 0.0
H548 H 0.06275 0.05931 0.48527 0.0
H549 H 0.12039 0.11344 0.46532 0.0
H550 H 0.13581 0.14806 0.44769 0.0
H551 H 0.09177 0.19018 0.48666 0.0
H552 H 0.07582 0.15576 0.50428 0.0
H553 H 0.12001 0.06095 0.59003 0.0
H554 H 0.11099 0.06059 0.5511 0.0
H555 H 0.061 0.11386 0.56095 0.0
H556 H 0.06947 0.11403 0.59974 0.0
H557 H 0.0964 0.1227 0.52835 0.0
H558 H 0.04081 0.06614 0.54981 0.0
H559 H 0.02822 0.0304 0.5674 0.0
H560 H 0.07239 0.99153 0.52563 0.0
H561 H 0.08556 0.02711 0.50803 0.0
C562 C 0.06384 0.1175 0.42849 0.0
C563 C 0.0755 0.10208 0.41489 0.0
C564 C 0.06324 0.11394 0.45091 0.0
C565 C 0.07448 0.09504 0.46017 0.0
C566 C 0.08474 0.07882 0.4465 0.0
C567 C 0.08524 0.08229 0.42407 0.0
C568 C 0.07723 0.09321 0.48407 0.0
C569 C 0.07024 0.0731 0.49467 0.0
C570 C 0.08701 0.11122 0.49635 0.0
C571 C 0.09672 0.132 0.48595 0.0
C572 C 0.11387 0.13008 0.47002 0.0
C573 C 0.12272 0.14966 0.46004 0.0
C574 C 0.11472 0.17131 0.466 0.0
C575 C 0.09791 0.1734 0.48202 0.0
C576 C 0.08896 0.15386 0.49202 0.0
C577 C 0.10682 0.07228 0.58394 0.0
C578 C 0.0955 0.08754 0.59796 0.0
C579 C 0.10169 0.07205 0.56174 0.0
C580 C 0.08539 0.08726 0.55323 0.0
C581 C 0.07364 0.10202 0.56726 0.0
C582 C 0.07845 0.102 0.58944 0.0
C583 C 0.08168 0.08895 0.52952 0.0
C584 C 0.0887 0.10901 0.51895 0.0
C585 C 0.07235 0.07074 0.51729 0.0
C586 C 0.06436 0.04932 0.52776 0.0
C587 C 0.04802 0.05 0.54452 0.0
C588 C 0.04074 0.02976 0.55446 0.0
C589 C 0.04954 0.00871 0.54767 0.0
C590 C 0.06561 0.00785 0.53089 0.0
C591 C 0.07298 0.02805 0.52092 0.0
H592 H 0.04388 0.99306 0.55538 0.0
H593 H 0.12158 0.18645 0.45825 0.0
H594 H 0.92973 0.64168 0.83466 0.0
H595 H 0.92908 0.63501 0.79555 0.0
H596 H 0.92628 0.56212 0.8067 0.0
H597 H 0.92599 0.56877 0.84588 0.0
H598 H 0.95224 0.61533 0.76553 0.0
H599 H 0.89064 0.53691 0.77108 0.0
H600 H 0.86039 0.52228 0.79537 0.0
H601 H 0.8481 0.59028 0.81911 0.0
H602 H 0.878 0.60536 0.79474 0.0
H603 H 0.94109 0.57601 0.65785 0.0
H604 H 0.94796 0.57643 0.69709 0.0
H605 H 0.87661 0.59197 0.70803 0.0
H606 H 0.8695 0.58998 0.66916 0.0
H607 H 0.88843 0.56719 0.73838 0.0
H608 H 0.92182 0.63366 0.70664 0.0
H609 H 0.94664 0.65552 0.68174 0.0
H610 H 0.00618 0.62427 0.70983 0.0
H611 H 0.98172 0.60186 0.73461 0.0
C612 C 0.9294 0.6242 0.82879 0.0
C613 C 0.92764 0.60574 0.84334 0.0
C614 C 0.92904 0.62041 0.8064 0.0
C615 C 0.92713 0.59808 0.79814 0.0
C616 C 0.92717 0.57954 0.81267 0.0
C617 C 0.92715 0.58334 0.83507 0.0
C618 C 0.92348 0.59432 0.7745 0.0
C619 C 0.93837 0.60471 0.75958 0.0
C620 C 0.90489 0.58114 0.76665 0.0
C621 C 0.88678 0.57219 0.78128 0.0
C622 C 0.88144 0.54874 0.78145 0.0
C623 C 0.86435 0.54037 0.79522 0.0
C624 C 0.85239 0.55533 0.80882 0.0
C625 C 0.85744 0.5787 0.80863 0.0
C626 C 0.87447 0.58716 0.79485 0.0
C627 C 0.92685 0.57905 0.66873 0.0
C628 C 0.90479 0.58294 0.66049 0.0
C629 C 0.9308 0.57951 0.69114 0.0
C630 C 0.91293 0.58479 0.70562 0.0
C631 C 0.89073 0.58783 0.69733 0.0
C632 C 0.88666 0.58668 0.67504 0.0
C633 C 0.91729 0.58809 0.72926 0.0
C634 C 0.90249 0.57762 0.74425 0.0
C635 C 0.93516 0.6023 0.73709 0.0
C636 C 0.94992 0.6159 0.72233 0.0
C637 C 0.9402 0.63134 0.70742 0.0
C638 C 0.95419 0.64384 0.69333 0.0
C639 C 0.97795 0.64127 0.69419 0.0
C640 C 0.98777 0.62622 0.70916 0.0
C641 C 0.97385 0.6136 0.72322 0.0
H642 H 0.98875 0.65096 0.68328 0.0
H643 H 0.83918 0.54882 0.81948 0.0
H644 H 0.35994 0.4309 0.08742 0.0
H645 H 0.36387 0.43277 0.04794 0.0
H646 H 0.43199 0.40471 0.05272 0.0
H647 H 0.42831 0.40302 0.09216 0.0
H648 H 0.43123 0.43712 0.02293 0.0
H649 H 0.38683 0.37132 0.03948 0.0
H650 H 0.35566 0.3474 0.05402 0.0
H651 H 0.30659 0.38538 0.01669 0.0
H652 H 0.33744 0.40985 1.00221 0.0
H653 H 0.43591 0.3872 0.91489 0.0
H654 H 0.43563 0.39379 0.95425 0.0
H655 H 0.37622 0.43697 0.94749 0.0
H656 H 0.37665 0.43098 0.90827 0.0
H657 H 0.37279 0.39808 0.97777 0.0
H658 H 0.42065 0.46271 0.96016 0.0
H659 H 0.45411 0.48162 0.94365 0.0
H660 H 0.49918 0.44016 0.98218 0.0
H661 H 0.46597 0.42073 0.99869 0.0
C662 C 0.3759 0.42546 0.08011 0.0
C663 C 0.39378 0.41671 0.09296 0.0
C664 C 0.37805 0.42637 0.05751 0.0
C665 C 0.3981 0.41854 0.04733 0.0
C666 C 0.41634 0.41079 0.06019 0.0
C667 C 0.41419 0.40982 0.08276 0.0
C668 C 0.39983 0.41773 0.02328 0.0
C669 C 0.41852 0.42842 0.01309 0.0
C670 C 0.38321 0.40647 0.01037 0.0
C671 C 0.36445 0.39262 0.01995 0.0
C672 C 0.36937 0.37482 0.03461 0.0
C673 C 0.35177 0.36107 0.04275 0.0
C674 C 0.32919 0.36479 0.03618 0.0
C675 C 0.32412 0.38244 0.02166 0.0
C676 C 0.34164 0.3963 0.01353 0.0
C677 C 0.42308 0.39845 0.92176 0.0
C678 C 0.40632 0.40857 0.90848 0.0
C679 C 0.42295 0.40221 0.9442 0.0
C680 C 0.40589 0.41585 0.95369 0.0
C681 C 0.38956 0.42645 0.94042 0.0
C682 C 0.38992 0.42307 0.918 0.0
C683 C 0.40396 0.41762 0.97758 0.0
C684 C 0.3853 0.40698 0.98769 0.0
C685 C 0.42084 0.42844 0.99039 0.0
C686 C 0.44082 0.44009 0.98048 0.0
C687 C 0.43769 0.45745 0.96495 0.0
C688 C 0.45662 0.46831 0.95563 0.0
C689 C 0.47876 0.46205 0.96181 0.0
C690 C 0.48202 0.44496 0.97738 0.0
C691 C 0.46315 0.43404 0.98673 0.0
H692 H 0.49338 0.47048 0.95459 0.0
H693 H 0.31559 0.35408 0.04245 0.0
H694 H 0.5691 0.86591 0.33463 0.0
H695 H 0.56579 0.87313 0.29563 0.0
H696 H 0.61155 0.93074 0.30167 0.0
H697 H 0.61449 0.924 0.34059 0.0
H698 H 0.57902 0.94181 0.27546 0.0
H699 H 0.62926 0.8777 0.28178 0.0
H700 H 0.64358 0.83917 0.29087 0.0
H701 H 0.58848 0.80878 0.25491 0.0
H702 H 0.57365 0.84715 0.2458 0.0
H703 H 0.62231 0.94413 0.16556 0.0
H704 H 0.61636 0.94221 0.2049 0.0
H705 H 0.55917 0.89672 0.19527 0.0
H706 H 0.56469 0.8988 0.15605 0.0
H707 H 0.59477 0.87966 0.22274 0.0
H708 H 0.54778 0.94658 0.21402 0.0
H709 H 0.53929 0.98587 0.20183 0.0
H710 H 0.59429 0.0117 0.24102 0.0
H711 H 0.60334 0.9725 0.25321 0.0
C712 C 0.57825 0.88027 0.32769 0.0
C713 C 0.59207 0.89437 0.34076 0.0
C714 C 0.57649 0.88426 0.30534 0.0
C715 C 0.58867 0.9023 0.2956 0.0
C716 C 0.60198 0.91672 0.30875 0.0
C717 C 0.60366 0.91281 0.33105 0.0
C718 C 0.5878 0.90616 0.27173 0.0
C719 C 0.58265 0.92822 0.26397 0.0
C720 C 0.59223 0.88841 0.25662 0.0
C721 C 0.60018 0.86533 0.26333 0.0
C722 C 0.61999 0.86282 0.27608 0.0
C723 C 0.62829 0.841 0.2811 0.0
C724 C 0.61701 0.82156 0.27337 0.0
C725 C 0.59724 0.82387 0.26082 0.0
C726 C 0.58887 0.84564 0.25574 0.0
C727 C 0.60813 0.93416 0.17179 0.0
C728 C 0.59409 0.92149 0.15767 0.0
C729 C 0.60475 0.9331 0.19426 0.0
C730 C 0.58739 0.91924 0.20295 0.0
C731 C 0.57268 0.90748 0.18886 0.0
C732 C 0.57584 0.90877 0.16643 0.0
C733 C 0.58604 0.91517 0.22665 0.0
C734 C 0.59086 0.8931 0.23432 0.0
C735 C 0.58183 0.93298 0.24163 0.0
C736 C 0.57637 0.95657 0.23437 0.0
C737 C 0.5582 0.96061 0.21989 0.0
C738 C 0.55326 0.98287 0.21301 0.0
C739 C 0.56627 0.00126 0.2206 0.0
C740 C 0.58423 0.99743 0.23513 0.0
C741 C 0.58926 0.9752 0.24205 0.0
H742 H 0.56242 0.01848 0.21526 0.0
H743 H 0.62355 0.80469 0.27718 0.0
H744 H 0.13407 0.44605 0.67054 0.0
H745 H 0.12843 0.44587 0.7099 0.0
H746 H 0.06863 0.40334 0.7021 0.0
H747 H 0.07367 0.40409 0.66287 0.0
H748 H 0.06124 0.43188 0.73348 0.0
H749 H 0.12229 0.38116 0.7144 0.0
H750 H 0.15903 0.36976 0.69794 0.0
H751 H 0.19461 0.41748 0.73879 0.0
H752 H 0.15802 0.42944 0.75528 0.0
H753 H 0.06247 0.37698 0.8381 0.0
H754 H 0.06378 0.38545 0.7991 0.0
H755 H 0.1153 0.43688 0.81059 0.0
H756 H 0.11393 0.42879 0.84941 0.0
H757 H 0.12689 0.40538 0.77796 0.0
H758 H 0.06349 0.45383 0.79815 0.0
H759 H 0.02592 0.46203 0.81466 0.0
H760 H 0.99397 0.41381 0.77167 0.0
H761 H 0.03141 0.40509 0.7551 0.0
C762 C 0.11949 0.437 0.67719 0.0
C763 C 0.10445 0.42491 0.66356 0.0
C764 C 0.11637 0.43678 0.69971 0.0
C765 C 0.09841 0.42413 0.70903 0.0
C766 C 0.08267 0.41313 0.69535 0.0
C767 C 0.08562 0.41356 0.67287 0.0
C768 C 0.09659 0.4213 0.73297 0.0
C769 C 0.07557 0.42591 0.74315 0.0
C770 C 0.1153 0.41363 0.7457 0.0
C771 C 0.13736 0.40643 0.73586 0.0
C772 C 0.13792 0.38938 0.71974 0.0
C773 C 0.15872 0.38279 0.71042 0.0
C774 C 0.17913 0.39296 0.71725 0.0
C775 C 0.17878 0.40967 0.73347 0.0
C776 C 0.15801 0.41637 0.74281 0.0
C777 C 0.07381 0.39033 0.83233 0.0
C778 C 0.08798 0.40229 0.84686 0.0
C779 C 0.07454 0.39515 0.81008 0.0
C780 C 0.0896 0.41185 0.802 0.0
C781 C 0.10352 0.42399 0.8165 0.0
C782 C 0.10259 0.41942 0.83872 0.0
C783 C 0.09161 0.416 0.77835 0.0
C784 C 0.11266 0.41153 0.76825 0.0
C785 C 0.07282 0.42332 0.76566 0.0
C786 C 0.05029 0.42865 0.77552 0.0
C787 C 0.04848 0.44484 0.79233 0.0
C788 C 0.0272 0.44961 0.80168 0.0
C789 C 0.00758 0.43841 0.79425 0.0
C790 C 0.00918 0.42246 0.77743 0.0
C791 C 0.03042 0.41761 0.76804 0.0
H792 H 0.99112 0.44213 0.80151 0.0
H793 H 0.19522 0.38783 0.71001 0.0
H794 H 0.55522 0.61693 0.91279 0.0
H795 H 0.54978 0.61297 0.95194 0.0
H796 H 0.6006 0.55942 0.95356 0.0
H797 H 0.60566 0.5628 0.91437 0.0
H798 H 0.56786 0.55048 0.98218 0.0
H799 H 0.6147 0.61528 0.96414 0.0
H800 H 0.62415 0.65165 0.9459 0.0
H801 H 0.56712 0.68432 0.97709 0.0
H802 H 0.55712 0.64803 0.99527 0.0
H803 H 0.61237 0.56619 0.08962 0.0
H804 H 0.60535 0.56193 0.05068 0.0
H805 H 0.55052 0.6112 0.05457 0.0
H806 H 0.55739 0.61558 0.09344 0.0
H807 H 0.58219 0.62197 0.02345 0.0
H808 H 0.53848 0.55616 0.04459 0.0
H809 H 0.53162 0.51942 0.06318 0.0
H810 H 0.58606 0.48832 0.02682 0.0
H811 H 0.59347 0.52497 0.00822 0.0
C812 C 0.56492 0.604 0.9214 0.0
C813 C 0.58112 0.59041 0.91051 0.0
C814 C 0.56186 0.60182 0.94381 0.0
C815 C 0.57519 0.58628 0.95577 0.0
C816 C 0.59021 0.57161 0.9447 0.0
C817 C 0.59312 0.57362 0.92227 0.0
C818 C 0.57493 0.58659 0.97988 0.0
C819 C 0.57111 0.56608 0.99121 0.0
C820 C 0.57897 0.60699 0.99171 0.0
C821 C 0.585 0.62887 0.98086 0.0
C822 C 0.60406 0.63018 0.96698 0.0
C823 C 0.60954 0.65078 0.95666 0.0
C824 C 0.5962 0.67027 0.96027 0.0
C825 C 0.5774 0.6692 0.97426 0.0
C826 C 0.57183 0.64862 0.98458 0.0
C827 C 0.59854 0.57581 0.08228 0.0
C828 C 0.58555 0.59135 0.09463 0.0
C829 C 0.5945 0.5733 0.06002 0.0
C830 C 0.5774 0.58625 0.04974 0.0
C831 C 0.56382 0.60106 0.06219 0.0
C832 C 0.56775 0.60349 0.08444 0.0
C833 C 0.57505 0.58589 0.02577 0.0
C834 C 0.57858 0.60642 0.01444 0.0
C835 C 0.57111 0.56546 0.01403 0.0
C836 C 0.56665 0.54338 0.02514 0.0
C837 C 0.54912 0.54154 0.04069 0.0
C838 C 0.5451 0.52072 0.0512 0.0
C839 C 0.55843 0.50156 0.04622 0.0
C840 C 0.57576 0.50318 0.03067 0.0
C841 C 0.57986 0.52396 0.02012 0.0
H842 H 0.55529 0.48546 0.05437 0.0
H843 H 0.60046 0.6862 0.95227 0.0
H844 H 0.39491 0.06903 0.34412 0.0
H845 H 0.39903 0.06427 0.30507 0.0
H846 H 0.44805 0.11949 0.30348 0.0
H847 H 0.44344 0.12484 0.34263 0.0
H848 H 0.41776 0.12581 0.27339 0.0
H849 H 0.46351 0.06209 0.29415 0.0
H850 H 0.47346 0.02669 0.31377 0.0
H851 H 0.41691 0.99191 0.28391 0.0
H852 H 0.4064 0.02721 0.26434 0.0
H853 H 0.43865 0.10967 0.16137 0.0
H854 H 0.44613 0.10843 0.20035 0.0
H855 H 0.38869 0.06307 0.20918 0.0
H856 H 0.38094 0.06427 0.17013 0.0
H857 H 0.42754 0.05176 0.23505 0.0
H858 H 0.3806 0.11724 0.21695 0.0
H859 H 0.37144 0.15279 0.19721 0.0
H860 H 0.43218 0.18448 0.22238 0.0
H861 H 0.44193 0.14893 0.242 0.0
C862 C 0.40688 0.07994 0.33557 0.0
C863 C 0.4188 0.09737 0.34652 0.0
C864 C 0.40931 0.07711 0.31319 0.0
C865 C 0.42403 0.09137 0.30127 0.0
C866 C 0.43659 0.10827 0.31229 0.0
C867 C 0.43401 0.11125 0.3347 0.0
C868 C 0.4248 0.08979 0.27718 0.0
C869 C 0.42043 0.10968 0.26505 0.0
C870 C 0.42778 0.06868 0.26619 0.0
C871 C 0.43407 0.04737 0.27789 0.0
C872 C 0.45309 0.04695 0.29189 0.0
C873 C 0.45885 0.02689 0.30298 0.0
C874 C 0.4458 0.00708 0.30012 0.0
C875 C 0.42699 0.00728 0.28612 0.0
C876 C 0.42115 0.0273 0.27499 0.0
C877 C 0.42781 0.09909 0.1715 0.0
C878 C 0.40904 0.08724 0.16265 0.0
C879 C 0.4321 0.09847 0.1938 0.0
C880 C 0.41779 0.0859 0.20765 0.0
C881 C 0.3999 0.07291 0.19874 0.0
C882 C 0.39547 0.07366 0.17644 0.0
C883 C 0.42039 0.08768 0.23152 0.0
C884 C 0.42527 0.06788 0.24352 0.0
C885 C 0.41806 0.10889 0.24241 0.0
C886 C 0.41216 0.13031 0.23071 0.0
C887 C 0.39213 0.1317 0.21811 0.0
C888 C 0.38681 0.15186 0.20697 0.0
C889 C 0.40127 0.17084 0.20847 0.0
C890 C 0.42104 0.16973 0.22119 0.0
C891 C 0.42647 0.14958 0.23232 0.0
H892 H 0.39712 0.18642 0.19982 0.0
H893 H 0.45029 0.99156 0.30873 0.0
H894 H 0.94234 0.86093 0.41434 0.0
H895 H 0.94257 0.86526 0.45386 0.0
H896 H 0.90335 0.92757 0.44791 0.0
H897 H 0.90381 0.92381 0.4086 0.0
H898 H 0.93227 0.93366 0.47788 0.0
H899 H 0.87917 0.87328 0.462 0.0
H900 H 0.86407 0.8363 0.44908 0.0
H901 H 0.91337 0.80048 0.48795 0.0
H902 H 0.92895 0.83725 0.50099 0.0
H903 H 0.8769 0.93332 0.58242 0.0
H904 H 0.88663 0.93242 0.54369 0.0
H905 H 0.93817 0.88127 0.55627 0.0
H906 H 0.92884 0.88224 0.59486 0.0
H907 H 0.90618 0.8692 0.52398 0.0
H908 H 0.95552 0.93208 0.54247 0.0
H909 H 0.96469 0.9698 0.55818 0.0
H910 H 0.91666 0.00189 0.51509 0.0
H911 H 0.90697 0.96432 0.49931 0.0
C912 C 0.93407 0.87573 0.42147 0.0
C913 C 0.92302 0.89199 0.40829 0.0
C914 C 0.93401 0.87807 0.4441 0.0
C915 C 0.92258 0.89652 0.45399 0.0
C916 C 0.91227 0.91316 0.44077 0.0
C917 C 0.91254 0.91097 0.41821 0.0
C918 C 0.92095 0.89851 0.47806 0.0
C919 C 0.92637 0.91957 0.48788 0.0
C920 C 0.91362 0.88008 0.49133 0.0
C921 C 0.90539 0.85803 0.48229 0.0
C922 C 0.887 0.85753 0.46757 0.0
C923 C 0.87825 0.83661 0.46035 0.0
C924 C 0.88763 0.81607 0.46783 0.0
C925 C 0.90603 0.8164 0.48229 0.0
C926 C 0.91485 0.83727 0.48958 0.0
C927 C 0.89056 0.92218 0.57697 0.0
C928 C 0.90205 0.90784 0.59171 0.0
C929 C 0.89614 0.92173 0.55488 0.0
C930 C 0.91314 0.9068 0.54716 0.0
C931 C 0.92503 0.89294 0.56192 0.0
C932 C 0.9197 0.8936 0.58399 0.0
C933 C 0.91727 0.90428 0.52355 0.0
C934 C 0.91231 0.88314 0.51389 0.0
C935 C 0.92451 0.92272 0.51042 0.0
C936 C 0.93038 0.94535 0.51984 0.0
C937 C 0.94677 0.94715 0.53646 0.0
C938 C 0.9521 0.96851 0.54536 0.0
C939 C 0.94123 0.98822 0.53767 0.0
C940 C 0.92505 0.98661 0.52104 0.0
C941 C 0.91966 0.96529 0.5121 0.0
H942 H 0.94538 0.00474 0.54458 0.0
H943 H 0.88072 0.7999 0.46232 0.0
H944 H 0.27932 0.1271 0.08474 0.0
H945 H 0.24439 0.13347 0.10615 0.0
H946 H 0.27454 0.09716 0.16 0.0
H947 H 0.30882 0.09027 0.13879 0.0
H948 H 0.23153 0.08646 0.15774 0.0
H949 H 0.27452 0.15737 0.15553 0.0
H950 H 0.29303 0.19022 0.13753 0.0
H951 H 0.22879 0.20956 0.10906 0.0
H952 H 0.20996 0.17662 0.1267 0.0
H953 H 0.18207 0.13182 0.25292 0.0
H954 H 0.20738 0.12179 0.22301 0.0
H955 H 0.16161 0.15474 0.17791 0.0
H956 H 0.13564 0.16428 0.20787 0.0
H957 H 0.20705 0.16653 0.17111 0.0
H958 H 0.16346 0.09783 0.1788 0.0
H959 H 0.14597 0.06566 0.19868 0.0
H960 H 0.21253 0.04251 0.21845 0.0
H961 H 0.23042 0.07476 0.19896 0.0
C962 C 0.27831 0.12014 0.10101 0.0
C963 C 0.29703 0.10833 0.11004 0.0
C964 C 0.25839 0.12395 0.11331 0.0
C965 C 0.25689 0.11613 0.1349 0.0
C966 C 0.27516 0.10344 0.14347 0.0
C967 C 0.2949 0.09959 0.13125 0.0
C968 C 0.23701 0.12179 0.14919 0.0
C969 C 0.22626 0.10399 0.16067 0.0
C970 C 0.22962 0.14461 0.15277 0.0
C971 C 0.24091 0.16439 0.1422 0.0
C972 C 0.26439 0.16853 0.1453 0.0
C973 C 0.27493 0.18718 0.13518 0.0
C974 C 0.26211 0.20192 0.1221 0.0
C975 C 0.23871 0.19809 0.11916 0.0
C976 C 0.22809 0.17944 0.12921 0.0
C977 C 0.17688 0.13631 0.23664 0.0
C978 C 0.15629 0.14814 0.2328 0.0
C979 C 0.19159 0.13078 0.21951 0.0
C980 C 0.18624 0.13715 0.19812 0.0
C981 C 0.16603 0.14949 0.19424 0.0
C982 C 0.1512 0.15489 0.21139 0.0
C983 C 0.20212 0.13125 0.18002 0.0
C984 C 0.21207 0.14898 0.16787 0.0
C985 C 0.20895 0.10839 0.17597 0.0
C986 C 0.19827 0.08881 0.18752 0.0
C987 C 0.17437 0.08597 0.1875 0.0
C988 C 0.16438 0.06771 0.19869 0.0
C989 C 0.17812 0.05208 0.20985 0.0
C990 C 0.2019 0.05464 0.2098 0.0
C991 C 0.21198 0.07289 0.19866 0.0
H992 H 0.17036 0.03795 0.2185 0.0
H993 H 0.2703 0.21635 0.11429 0.0
H994 H 0.84435 0.6912 0.49588 0.0
H995 H 0.85081 0.71786 0.46584 0.0
H996 H 0.86584 0.66087 0.42351 0.0
H997 H 0.85784 0.63426 0.45329 0.0
H998 H 0.88373 0.73009 0.44408 0.0
H999 H 0.8564 0.67218 0.37125 0.0
H1000 H 0.82804 0.64207 0.36322 0.0
H1001 H 0.78521 0.66653 0.41488 0.0
H1002 H 0.81315 0.69696 0.42304 0.0
H1003 H 0.92729 0.78442 0.35406 0.0
H1004 H 0.91751 0.75203 0.37743 0.0
H1005 H 0.84619 0.7605 0.3611 0.0
H1006 H 0.85619 0.79214 0.33673 0.0
H1007 H 0.85355 0.71731 0.36979 0.0
H1008 H 0.87006 0.78757 0.40431 0.0
H1009 H 0.89307 0.82208 0.41156 0.0
H1010 H 0.94611 0.78063 0.43951 0.0
H1011 H 0.92382 0.74574 0.43165 0.0
C1012 C 0.84889 0.68445 0.48008 0.0
C1013 C 0.8506 0.66073 0.47683 0.0
C1014 C 0.85267 0.69968 0.4629 0.0
C1015 C 0.8586 0.69155 0.44213 0.0
C1016 C 0.86066 0.66774 0.43907 0.0
C1017 C 0.85627 0.65249 0.45613 0.0
C1018 C 0.86311 0.70799 0.42394 0.0
C1019 C 0.87705 0.72719 0.42789 0.0
C1020 C 0.85397 0.70487 0.40279 0.0
C1021 C 0.837 0.6867 0.39789 0.0
C1022 C 0.84089 0.67118 0.38085 0.0
C1023 C 0.82489 0.65405 0.37628 0.0
C1024 C 0.80487 0.65234 0.38858 0.0
C1025 C 0.80076 0.66781 0.40542 0.0
C1026 C 0.81669 0.68499 0.41004 0.0
C1027 C 0.90966 0.77872 0.35478 0.0
C1028 C 0.8925 0.7907 0.34358 0.0
C1029 C 0.90403 0.76036 0.36831 0.0
C1030 C 0.88101 0.75425 0.37161 0.0
C1031 C 0.86405 0.76494 0.35896 0.0
C1032 C 0.86978 0.78296 0.34494 0.0
C1033 C 0.87458 0.73881 0.38992 0.0
C1034 C 0.86022 0.72001 0.38601 0.0
C1035 C 0.88234 0.74294 0.41139 0.0
C1036 C 0.89537 0.76396 0.41712 0.0
C1037 C 0.88672 0.78576 0.41183 0.0
C1038 C 0.8997 0.80539 0.41592 0.0
C1039 C 0.92112 0.80353 0.42583 0.0
C1040 C 0.92957 0.78203 0.43172 0.0
C1041 C 0.9168 0.7623 0.42739 0.0
H1042 H 0.93106 0.81876 0.42916 0.0
H1043 H 0.79252 0.63906 0.38502 0.0
H1044 H 0.36998 0.33889 0.69963 0.0
H1045 H 0.34343 0.34795 0.66982 0.0
H1046 H 0.29046 0.36302 0.71641 0.0
H1047 H 0.31677 0.35397 0.74605 0.0
H1048 H 0.27443 0.33696 0.68208 0.0
H1049 H 0.31858 0.4057 0.6939 0.0
H1050 H 0.35416 0.42818 0.69685 0.0
H1051 H 0.37139 0.41119 0.63104 0.0
H1052 H 0.33604 0.38831 0.62782 0.0
H1053 H 0.21093 0.42753 0.62038 0.0
H1054 H 0.24495 0.41671 0.64108 0.0
H1055 H 0.2483 0.35276 0.60633 0.0
H1056 H 0.21433 0.36366 0.58526 0.0
H1057 H 0.29083 0.4017 0.63226 0.0
H1058 H 0.25446 0.31238 0.64597 0.0
H1059 H 0.21727 0.29239 0.64385 0.0
H1060 H 0.18243 0.35439 0.66149 0.0
H1061 H 0.2194 0.37464 0.66388 0.0
C1062 C 0.35265 0.34412 0.70344 0.0
C1063 C 0.3456 0.34624 0.72515 0.0
C1064 C 0.33753 0.34932 0.68644 0.0
C1065 C 0.31498 0.35634 0.69088 0.0
C1066 C 0.30776 0.35772 0.71257 0.0
C1067 C 0.32291 0.35282 0.72951 0.0
C1068 C 0.29896 0.36284 0.67312 0.0
C1069 C 0.27818 0.35095 0.67106 0.0
C1070 C 0.30364 0.38126 0.65882 0.0
C1071 C 0.32482 0.39508 0.66071 0.0
C1072 C 0.33006 0.40659 0.68012 0.0
C1073 C 0.35016 0.41944 0.68183 0.0
C1074 C 0.36506 0.42106 0.66416 0.0
C1075 C 0.35985 0.40988 0.64473 0.0
C1076 C 0.33979 0.39698 0.64295 0.0
C1077 C 0.21933 0.41147 0.61666 0.0
C1078 C 0.20993 0.39643 0.60121 0.0
C1079 C 0.2388 0.40533 0.62849 0.0
C1080 C 0.24904 0.38386 0.6254 0.0
C1081 C 0.24062 0.36941 0.60899 0.0
C1082 C 0.2213 0.37572 0.59687 0.0
C1083 C 0.26651 0.37567 0.64115 0.0
C1084 C 0.28742 0.38735 0.64295 0.0
C1085 C 0.26186 0.35726 0.65541 0.0
C1086 C 0.23965 0.34502 0.6549 0.0
C1087 C 0.23886 0.32167 0.64951 0.0
C1088 C 0.21782 0.31032 0.64822 0.0
C1089 C 0.19749 0.32213 0.65246 0.0
C1090 C 0.19817 0.34528 0.65814 0.0
C1091 C 0.21915 0.3567 0.65944 0.0
H1092 H 0.18123 0.31333 0.65137 0.0
H1093 H 0.38062 0.43101 0.66552 0.0
H1094 H 0.63543 0.81535 0.9995 0.0
H1095 H 0.62763 0.78774 0.97085 0.0
H1096 H 0.65162 0.83588 0.92292 0.0
H1097 H 0.65862 0.86413 0.95167 0.0
H1098 H 0.61395 0.81366 0.90828 0.0
H1099 H 0.6855 0.79208 0.93881 0.0
H1100 H 0.71317 0.78265 0.96766 0.0
H1101 H 0.672 0.72524 0.98684 0.0
H1102 H 0.64388 0.73452 0.9583 0.0
H1103 H 0.62424 0.71731 0.83134 0.0
H1104 H 0.63226 0.75166 0.85327 0.0
H1105 H 0.60161 0.71929 0.909 0.0
H1106 H 0.5932 0.68554 0.88752 0.0
H1107 H 0.64684 0.73578 0.91588 0.0
H1108 H 0.57388 0.76017 0.88652 0.0
H1109 H 0.54703 0.76984 0.85704 0.0
H1110 H 0.59288 0.82207 0.8344 0.0
H1111 H 0.62018 0.81247 0.86359 0.0
C1112 C 0.63846 0.8204 0.98287 0.0
C1113 C 0.64713 0.84222 0.97788 0.0
C1114 C 0.63434 0.80439 0.96646 0.0
C1115 C 0.63921 0.8096 0.94467 0.0
C1116 C 0.64769 0.83145 0.93957 0.0
C1117 C 0.65178 0.84753 0.95603 0.0
C1118 C 0.63587 0.79194 0.92747 0.0
C1119 C 0.62148 0.79676 0.90974 0.0
C1120 C 0.64561 0.76981 0.92931 0.0
C1121 C 0.66248 0.76412 0.94651 0.0
C1122 C 0.68225 0.77755 0.94928 0.0
C1123 C 0.69803 0.77221 0.96557 0.0
C1124 C 0.69432 0.75339 0.9791 0.0
C1125 C 0.67484 0.73983 0.97635 0.0
C1126 C 0.65898 0.74511 0.9601 0.0
C1127 C 0.61883 0.71771 0.84815 0.0
C1128 C 0.6082 0.6985 0.85761 0.0
C1129 C 0.62347 0.73732 0.86067 0.0
C1130 C 0.6177 0.73792 0.88283 0.0
C1131 C 0.60637 0.71915 0.892 0.0
C1132 C 0.60152 0.69982 0.87957 0.0
C1133 C 0.62444 0.75731 0.89712 0.0
C1134 C 0.63957 0.75279 0.91429 0.0
C1135 C 0.61555 0.77967 0.89461 0.0
C1136 C 0.59921 0.78538 0.87704 0.0
C1137 C 0.57836 0.77354 0.87511 0.0
C1138 C 0.56303 0.77905 0.85849 0.0
C1139 C 0.56828 0.7965 0.84381 0.0
C1140 C 0.58886 0.80852 0.84575 0.0
C1141 C 0.60426 0.80305 0.86233 0.0
H1142 H 0.55638 0.80075 0.83096 0.0
H1143 H 0.70657 0.74928 0.99169 0.0
H1144 H 0.15075 0.31823 0.04755 0.0
H1145 H 0.17779 0.32649 0.07704 0.0
H1146 H 0.18833 0.3943 0.0512 0.0
H1147 H 0.16128 0.38616 0.02195 0.0
H1148 H 0.22842 0.3747 0.06063 0.0
H1149 H 0.15647 0.38512 0.09704 0.0
H1150 H 0.11794 0.37405 0.10954 0.0
H1151 H 0.14658 0.31779 0.14523 0.0
H1152 H 0.18527 0.32834 0.13269 0.0
H1153 H 0.29152 0.42461 0.14264 0.0
H1154 H 0.25754 0.41699 0.12072 0.0
H1155 H 0.25225 0.34966 0.14899 0.0
H1156 H 0.2859 0.35767 0.17172 0.0
H1157 H 0.20977 0.36718 0.1389 0.0
H1158 H 0.28217 0.35774 0.10269 0.0
H1159 H 0.32065 0.37108 0.09214 0.0
H1160 H 0.29087 0.4264 0.05601 0.0
H1161 H 0.2522 0.4137 0.06675 0.0
C1162 C 0.15882 0.3349 0.04824 0.0
C1163 C 0.15439 0.35131 0.03209 0.0
C1164 C 0.17422 0.33964 0.06512 0.0
C1165 C 0.18521 0.36103 0.06635 0.0
C1166 C 0.18033 0.37759 0.05049 0.0
C1167 C 0.16497 0.37286 0.03367 0.0
C1168 C 0.20217 0.36611 0.0838 0.0
C1169 C 0.22421 0.37327 0.07772 0.0
C1170 C 0.19697 0.36375 0.10616 0.0
C1171 C 0.17374 0.35737 0.11373 0.0
C1172 C 0.15453 0.37027 0.1074 0.0
C1173 C 0.13267 0.36411 0.11452 0.0
C1174 C 0.12981 0.34519 0.12812 0.0
C1175 C 0.14882 0.33242 0.13467 0.0
C1176 C 0.17072 0.33849 0.12757 0.0
C1177 C 0.28264 0.40848 0.14473 0.0
C1178 C 0.29137 0.39169 0.15879 0.0
C1179 C 0.26331 0.40407 0.13208 0.0
C1180 C 0.25274 0.38249 0.1327 0.0
C1181 C 0.26022 0.36637 0.14811 0.0
C1182 C 0.27938 0.37098 0.16115 0.0
C1183 C 0.23579 0.37606 0.11567 0.0
C1184 C 0.21392 0.36852 0.12179 0.0
C1185 C 0.24111 0.37806 0.09328 0.0
C1186 C 0.26428 0.3849 0.08572 0.0
C1187 C 0.28382 0.37279 0.09255 0.0
C1188 C 0.30566 0.3803 0.08663 0.0
C1189 C 0.30819 0.39972 0.07361 0.0
C1190 C 0.28887 0.41147 0.06623 0.0
C1191 C 0.26698 0.40412 0.07223 0.0
H1192 H 0.32512 0.40553 0.06907 0.0
H1193 H 0.11286 0.34045 0.13362 0.0
H1194 H 0.63491 0.77937 0.4224 0.0
H1195 H 0.64188 0.74571 0.39946 0.0
H1196 H 0.57807 0.75773 0.3662 0.0
H1197 H 0.57143 0.79163 0.38852 0.0
H1198 H 0.62088 0.70473 0.38517 0.0
H1199 H 0.58756 0.75713 0.31372 0.0
H1200 H 0.57884 0.79762 0.30571 0.0
H1201 H 0.63378 0.81899 0.3473 0.0
H1202 H 0.64291 0.77864 0.35543 0.0
H1203 H 0.61804 0.63717 0.28761 0.0
H1204 H 0.60791 0.66302 0.31753 0.0
H1205 H 0.66665 0.70494 0.30283 0.0
H1206 H 0.67667 0.67924 0.27282 0.0
H1207 H 0.62744 0.73065 0.30866 0.0
H1208 H 0.6682 0.67061 0.34562 0.0
H1209 H 0.67624 0.63067 0.35608 0.0
H1210 H 0.60929 0.62501 0.3843 0.0
H1211 H 0.60073 0.66485 0.37374 0.0
C1212 C 0.62197 0.77428 0.41077 0.0
C1213 C 0.60273 0.78822 0.40709 0.0
C1214 C 0.626 0.75509 0.39761 0.0
C1215 C 0.61075 0.74953 0.38076 0.0
C1216 C 0.59027 0.76193 0.37882 0.0
C1217 C 0.58644 0.78124 0.39166 0.0
C1218 C 0.61767 0.73329 0.36332 0.0
C1219 C 0.62223 0.71034 0.36844 0.0
C1220 C 0.61984 0.74069 0.34151 0.0
C1221 C 0.6158 0.76489 0.33527 0.0
C1222 C 0.59792 0.77047 0.32097 0.0
C1223 C 0.59282 0.79339 0.31652 0.0
C1224 C 0.60563 0.81086 0.32614 0.0
C1225 C 0.6238 0.80545 0.33996 0.0
C1226 C 0.62894 0.78256 0.34449 0.0
C1227 C 0.6286 0.65205 0.29063 0.0
C1228 C 0.64789 0.65646 0.27767 0.0
C1229 C 0.62295 0.66667 0.30786 0.0
C1230 C 0.63651 0.68595 0.31243 0.0
C1231 C 0.65589 0.69024 0.29957 0.0
C1232 C 0.66165 0.67551 0.28251 0.0
C1233 C 0.63037 0.70189 0.33039 0.0
C1234 C 0.62601 0.72492 0.32535 0.0
C1235 C 0.62859 0.69454 0.35225 0.0
C1236 C 0.63375 0.67064 0.3587 0.0
C1237 C 0.65512 0.66079 0.3539 0.0
C1238 C 0.65979 0.63818 0.35987 0.0
C1239 C 0.64327 0.62529 0.3708 0.0
C1240 C 0.62206 0.63501 0.37582 0.0
C1241 C 0.6173 0.65761 0.36986 0.0
H1242 H 0.64691 0.60779 0.37541 0.0
H1243 H 0.60156 0.82859 0.32278 0.0
H1244 H 0.21874 0.13395 0.67556 0.0
H1245 H 0.25281 0.14238 0.6535 0.0
H1246 H 0.23521 0.0873 0.61006 0.0
H1247 H 0.20144 0.07882 0.6318 0.0
H1248 H 0.29197 0.11755 0.63596 0.0
H1249 H 0.23644 0.10946 0.55904 0.0
H1250 H 0.19579 0.11231 0.54851 0.0
H1251 H 0.18347 0.15888 0.60114 0.0
H1252 H 0.22411 0.1566 0.61176 0.0
H1253 H 0.36046 0.11612 0.53939 0.0
H1254 H 0.333 0.10771 0.56843 0.0
H1255 H 0.30161 0.17379 0.55891 0.0
H1256 H 0.32862 0.18193 0.5295 0.0
H1257 H 0.26975 0.1413 0.56152 0.0
H1258 H 0.33555 0.16328 0.60279 0.0
H1259 H 0.37599 0.162 0.61417 0.0
H1260 H 0.36801 0.09199 0.63398 0.0
H1261 H 0.32758 0.09275 0.62244 0.0
C1262 C 0.22255 0.12319 0.66171 0.0
C1263 C 0.2072 0.1059 0.65531 0.0
C1264 C 0.24199 0.12807 0.64908 0.0
C1265 C 0.2463 0.11573 0.62991 0.0
C1266 C 0.23206 0.09725 0.62461 0.0
C1267 C 0.21274 0.09242 0.6371 0.0
C1268 C 0.26391 0.12349 0.61407 0.0
C1269 C 0.28717 0.12276 0.61969 0.0
C1270 C 0.25762 0.13066 0.59293 0.0
C1271 C 0.23328 0.13268 0.5863 0.0
C1272 C 0.22508 0.12041 0.56828 0.0
C1273 C 0.20204 0.12191 0.56231 0.0
C1274 C 0.18704 0.13571 0.57419 0.0
C1275 C 0.19509 0.14814 0.592 0.0
C1276 C 0.21812 0.14674 0.59801 0.0
C1277 C 0.34744 0.12865 0.54325 0.0
C1278 C 0.34627 0.14942 0.53179 0.0
C1279 C 0.33199 0.12401 0.5601 0.0
C1280 C 0.3152 0.14013 0.56594 0.0
C1281 C 0.31432 0.16104 0.5547 0.0
C1282 C 0.3298 0.1657 0.53794 0.0
C1283 C 0.29801 0.13497 0.58317 0.0
C1284 C 0.2747 0.13616 0.57778 0.0
C1285 C 0.30432 0.1285 0.60453 0.0
C1286 C 0.32859 0.12802 0.61157 0.0
C1287 C 0.34246 0.14755 0.60942 0.0
C1288 C 0.36538 0.14693 0.61593 0.0
C1289 C 0.37458 0.12691 0.62474 0.0
C1290 C 0.36086 0.10748 0.62712 0.0
C1291 C 0.33794 0.108 0.62062 0.0
H1292 H 0.39232 0.12646 0.62977 0.0
H1293 H 0.1692 0.1368 0.56957 0.0
H1294 H 0.85894 0.71279 0.91708 0.0
H1295 H 0.84926 0.74568 0.89403 0.0
H1296 H 0.91726 0.74438 0.86678 0.0
H1297 H 0.92661 0.71111 0.88907 0.0
H1298 H 0.86227 0.78818 0.88433 0.0
H1299 H 0.91521 0.75053 0.81292 0.0
H1300 H 0.92938 0.71292 0.80057 0.0
H1301 H 0.87482 0.67942 0.83476 0.0
H1302 H 0.8601 0.71682 0.847 0.0
H1303 H 0.8663 0.86984 0.79827 0.0
H1304 H 0.87424 0.84255 0.82758 0.0
H1305 H 0.83993 0.78944 0.79127 0.0
H1306 H 0.83311 0.81649 0.76162 0.0
H1307 H 0.87549 0.77208 0.80626 0.0
H1308 H 0.81677 0.81704 0.83898 0.0
H1309 H 0.79738 0.85219 0.85137 0.0
H1310 H 0.85374 0.8671 0.8938 0.0
H1311 H 0.87361 0.83218 0.88145 0.0
C1312 C 0.87201 0.71999 0.90665 0.0
C1313 C 0.89346 0.70928 0.90472 0.0
C1314 C 0.86644 0.73874 0.89341 0.0
C1315 C 0.88232 0.74713 0.8782 0.0
C1316 C 0.9045 0.73786 0.87794 0.0
C1317 C 0.90991 0.71894 0.89082 0.0
C1318 C 0.8752 0.76384 0.86116 0.0
C1319 C 0.8652 0.78473 0.86726 0.0
C1320 C 0.87828 0.75906 0.83879 0.0
C1321 C 0.8867 0.73649 0.83105 0.0
C1322 C 0.90617 0.73515 0.8177 0.0
C1323 C 0.9143 0.71386 0.81073 0.0
C1324 C 0.90306 0.69379 0.81693 0.0
C1325 C 0.88356 0.69497 0.83002 0.0
C1326 C 0.87532 0.71621 0.83698 0.0
C1327 C 0.86039 0.85234 0.7967 0.0
C1328 C 0.84929 0.84515 0.77768 0.0
C1329 C 0.86479 0.83676 0.8135 0.0
C1330 C 0.85752 0.81384 0.81188 0.0
C1331 C 0.8459 0.8069 0.79299 0.0
C1332 C 0.84193 0.82235 0.77605 0.0
C1333 C 0.86283 0.7968 0.82932 0.0
C1334 C 0.87253 0.77572 0.8233 0.0
C1335 C 0.85867 0.80111 0.85165 0.0
C1336 C 0.84677 0.8221 0.85914 0.0
C1337 C 0.8251 0.8279 0.85084 0.0
C1338 C 0.81402 0.84777 0.85787 0.0
C1339 C 0.82435 0.8619 0.87332 0.0
C1340 C 0.84577 0.85615 0.88181 0.0
C1341 C 0.85694 0.83631 0.87482 0.0
H1342 H 0.81574 0.87727 0.87874 0.0
H1343 H 0.90941 0.67734 0.81156 0.0
H1344 H 0.68659 0.63975 0.74826 0.0
H1345 H 0.7131 0.63453 0.71813 0.0
H1346 H 0.6613 0.65739 0.67324 0.0
H1347 H 0.63431 0.66215 0.70353 0.0
H1348 H 0.68567 0.61992 0.65726 0.0
H1349 H 0.70226 0.69338 0.68622 0.0
H1350 H 0.71026 0.72209 0.71454 0.0
H1351 H 0.7716 0.68616 0.73223 0.0
H1352 H 0.7638 0.65702 0.70423 0.0
H1353 H 0.78129 0.63059 0.57883 0.0
H1354 H 0.74668 0.6397 0.60014 0.0
H1355 H 0.77942 0.61388 0.65783 0.0
H1356 H 0.81332 0.60448 0.63711 0.0
H1357 H 0.76099 0.65878 0.66207 0.0
H1358 H 0.74068 0.58282 0.63593 0.0
H1359 H 0.73233 0.55438 0.60744 0.0
H1360 H 0.67771 0.59659 0.58348 0.0
H1361 H 0.68597 0.62545 0.61168 0.0
C1362 C 0.68057 0.64312 0.73197 0.0
C1363 C 0.65814 0.65089 0.72827 0.0
C1364 C 0.69589 0.64044 0.71474 0.0
C1365 C 0.68927 0.6457 0.69338 0.0
C1366 C 0.66679 0.65319 0.68955 0.0
C1367 C 0.65143 0.65598 0.70687 0.0
C1368 C 0.70622 0.64385 0.67539 0.0
C1369 C 0.70196 0.62879 0.65806 0.0
C1370 C 0.7275 0.6554 0.67636 0.0
C1371 C 0.73235 0.67292 0.6932 0.0
C1372 C 0.71737 0.6915 0.69625 0.0
C1373 C 0.72188 0.70787 0.71223 0.0
C1374 C 0.7414 0.70593 0.7252 0.0
C1375 C 0.75648 0.68763 0.72218 0.0
C1376 C 0.75203 0.6712 0.70623 0.0
C1377 C 0.78096 0.62663 0.59599 0.0
C1378 C 0.80024 0.61688 0.60617 0.0
C1379 C 0.7612 0.63186 0.60814 0.0
C1380 C 0.76058 0.62762 0.63062 0.0
C1381 C 0.77956 0.61747 0.64057 0.0
C1382 C 0.79899 0.61204 0.62855 0.0
C1383 C 0.74077 0.63425 0.64443 0.0
C1384 C 0.74451 0.6503 0.66101 0.0
C1385 C 0.71905 0.62372 0.64265 0.0
C1386 C 0.71416 0.60643 0.62569 0.0
C1387 C 0.72706 0.58616 0.62443 0.0
C1388 C 0.72231 0.56993 0.60838 0.0
C1389 C 0.70456 0.57372 0.59361 0.0
C1390 C 0.69149 0.59371 0.5949 0.0
C1391 C 0.6962 0.61 0.61091 0.0
H1392 H 0.70089 0.56113 0.5812 0.0
H1393 H 0.74487 0.71862 0.73756 0.0
H1394 H 0.3351 0.13798 0.95637 0.0
H1395 H 0.34311 0.16499 0.92683 0.0
H1396 H 0.37277 0.21206 0.97283 0.0
H1397 H 0.36404 0.18568 1.0023 0.0
H1398 H 0.34541 0.23417 0.9463 0.0
H1399 H 0.40588 0.17898 0.93775 0.0
H1400 H 0.42228 0.14048 0.93251 0.0
H1401 H 0.3867 0.13409 0.87184 0.0
H1402 H 0.36983 0.17246 0.87686 0.0
H1403 H 0.4098 0.30952 0.88448 0.0
H1404 H 0.40068 0.2767 0.90713 0.0
H1405 H 0.36313 0.24615 0.85437 0.0
H1406 H 0.3721 0.2794 0.83129 0.0
H1407 H 0.39084 0.21419 0.88093 0.0
H1408 H 0.33287 0.27168 0.88901 0.0
H1409 H 0.31825 0.31082 0.89475 0.0
H1410 H 0.35073 0.31318 0.95721 0.0
H1411 H 0.36589 0.27419 0.9517 0.0
C1412 C 0.34345 0.15405 0.96014 0.0
C1413 C 0.34953 0.15933 0.98166 0.0
C1414 C 0.34813 0.16943 0.94321 0.0
C1415 C 0.3589 0.19048 0.94748 0.0
C1416 C 0.36465 0.19588 0.96902 0.0
C1417 C 0.35997 0.18055 0.98589 0.0
C1418 C 0.36366 0.20729 0.92977 0.0
C1419 C 0.35549 0.22976 0.93211 0.0
C1420 C 0.37626 0.20152 0.91086 0.0
C1421 C 0.38638 0.17847 0.90781 0.0
C1422 C 0.40139 0.16928 0.92338 0.0
C1423 C 0.4108 0.1475 0.92044 0.0
C1424 C 0.40547 0.13481 0.90189 0.0
C1425 C 0.39077 0.14392 0.88622 0.0
C1426 C 0.38129 0.16568 0.8891 0.0
C1427 C 0.39985 0.29575 0.87745 0.0
C1428 C 0.39146 0.29731 0.85606 0.0
C1429 C 0.39465 0.27695 0.8905 0.0
C1430 C 0.38091 0.25915 0.88259 0.0
C1431 C 0.37369 0.25977 0.86082 0.0
C1432 C 0.37888 0.27876 0.84764 0.0
C1433 C 0.37297 0.24102 0.89781 0.0
C1434 C 0.38052 0.2184 0.89501 0.0
C1435 C 0.35989 0.24663 0.91642 0.0
C1436 C 0.35066 0.27005 0.91986 0.0
C1437 C 0.33705 0.28061 0.9039 0.0
C1438 C 0.32865 0.30276 0.90712 0.0
C1439 C 0.33358 0.31448 0.92632 0.0
C1440 C 0.34692 0.30408 0.94234 0.0
C1441 C 0.35541 0.28194 0.93919 0.0
H1442 H 0.32701 0.3316 0.92882 0.0
H1443 H 0.41278 0.11796 0.89963 0.0
H1444 H 0.8389 0.88892 0.23354 0.0
H1445 H 0.81091 0.89781 0.20531 0.0
H1446 H 0.82223 0.83163 0.17624 0.0
H1447 H 0.85007 0.82244 0.20485 0.0
H1448 H 0.81853 0.86711 0.14544 0.0
H1449 H 0.77666 0.83856 0.2068 0.0
H1450 H 0.7657 0.83685 0.2454 0.0
H1451 H 0.74245 0.90652 0.24262 0.0
H1452 H 0.75363 0.90876 0.20406 0.0
H1453 H 0.71381 0.86772 0.08296 0.0
H1454 H 0.74778 0.85963 0.10505 0.0
H1455 H 0.73398 0.91959 0.1438 0.0
H1456 H 0.6998 0.92725 0.1223 0.0
H1457 H 0.73944 0.88508 0.1692 0.0
H1458 H 0.78147 0.91446 0.10831 0.0
H1459 H 0.79332 0.91715 0.06999 0.0
H1460 H 0.81656 0.84744 0.07168 0.0
H1461 H 0.80456 0.84424 0.10995 0.0
C1462 C 0.83516 0.87608 0.22137 0.0
C1463 C 0.84603 0.85461 0.22191 0.0
C1464 C 0.81934 0.88129 0.20509 0.0
C1465 C 0.81416 0.86524 0.18886 0.0
C1466 C 0.82585 0.84423 0.18867 0.0
C1467 C 0.84168 0.83897 0.20505 0.0
C1468 C 0.79579 0.87014 0.17276 0.0
C1469 C 0.80115 0.87077 0.15055 0.0
C1470 C 0.77321 0.8753 0.17947 0.0
C1471 C 0.76617 0.87389 0.20258 0.0
C1472 C 0.76936 0.85357 0.21445 0.0
C1473 C 0.76309 0.8525 0.23633 0.0
C1474 C 0.75343 0.87158 0.24647 0.0
C1475 C 0.74996 0.89176 0.23474 0.0
C1476 C 0.75624 0.89293 0.21288 0.0
C1477 C 0.7184 0.8795 0.09582 0.0
C1478 C 0.70406 0.89807 0.10093 0.0
C1479 C 0.73784 0.87485 0.10849 0.0
C1480 C 0.7435 0.88894 0.12623 0.0
C1481 C 0.72994 0.9083 0.13038 0.0
C1482 C 0.71043 0.91275 0.11798 0.0
C1483 C 0.76215 0.88262 0.1417 0.0
C1484 C 0.7568 0.88152 0.16393 0.0
C1485 C 0.7847 0.87717 0.13494 0.0
C1486 C 0.79188 0.87904 0.11193 0.0
C1487 C 0.78892 0.89964 0.10046 0.0
C1488 C 0.79571 0.90127 0.07876 0.0
C1489 C 0.80563 0.88245 0.06839 0.0
C1490 C 0.80884 0.86199 0.07972 0.0
C1491 C 0.80207 0.86026 0.10142 0.0
H1492 H 0.81087 0.88375 0.05159 0.0
H1493 H 0.7486 0.87072 0.26341 0.0
H1494 H 0.1365 0.2157 0.33931 0.0
H1495 H 0.14595 0.24981 0.36081 0.0
H1496 H 0.08221 0.24328 0.3955 0.0
H1497 H 0.07286 0.20911 0.37438 0.0
H1498 H 0.09462 0.28961 0.38624 0.0
H1499 H 0.12611 0.22079 0.41831 0.0
H1500 H 0.14859 0.18507 0.4173 0.0
H1501 H 0.20875 0.22309 0.39989 0.0
H1502 H 0.18652 0.25905 0.40061 0.0
H1503 H 0.113 0.34343 0.48739 0.0
H1504 H 0.10465 0.31658 0.45804 0.0
H1505 H 0.17421 0.32243 0.43525 0.0
H1506 H 0.18285 0.34878 0.46519 0.0
H1507 H 0.16104 0.2785 0.43536 0.0
H1508 H 0.12983 0.34849 0.40833 0.0
H1509 H 0.10665 0.38374 0.4094 0.0
H1510 H 0.04552 0.34377 0.41701 0.0
H1511 H 0.06837 0.30826 0.41629 0.0
C1512 C 0.1242 0.22196 0.35105 0.0
C1513 C 0.10395 0.2097 0.35518 0.0
C1514 C 0.12969 0.24134 0.36344 0.0
C1515 C 0.11487 0.24894 0.37992 0.0
C1516 C 0.09389 0.23774 0.3829 0.0
C1517 C 0.08858 0.21819 0.37081 0.0
C1518 C 0.12204 0.26706 0.39547 0.0
C1519 C 0.10908 0.28721 0.39704 0.0
C1520 C 0.14112 0.26404 0.40933 0.0
C1521 C 0.15462 0.24255 0.40928 0.0
C1522 C 0.1441 0.22151 0.41414 0.0
C1523 C 0.1568 0.20123 0.41364 0.0
C1524 C 0.18007 0.2018 0.40844 0.0
C1525 C 0.19072 0.22268 0.40387 0.0
C1526 C 0.17808 0.24301 0.40435 0.0
C1527 C 0.12664 0.3387 0.47637 0.0
C1528 C 0.14876 0.34775 0.47895 0.0
C1529 C 0.12175 0.3236 0.45936 0.0
C1530 C 0.13875 0.31753 0.44427 0.0
C1531 C 0.16081 0.32679 0.44668 0.0
C1532 C 0.16571 0.3419 0.46373 0.0
C1533 C 0.13353 0.30119 0.42632 0.0
C1534 C 0.14679 0.28122 0.42436 0.0
C1535 C 0.11468 0.3044 0.41213 0.0
C1536 C 0.10085 0.32571 0.41242 0.0
C1537 C 0.11146 0.34721 0.41038 0.0
C1538 C 0.09838 0.36724 0.4109 0.0
C1539 C 0.07464 0.366 0.41332 0.0
C1540 C 0.06392 0.34471 0.41516 0.0
C1541 C 0.07692 0.32462 0.41466 0.0
H1542 H 0.06454 0.38153 0.41373 0.0
H1543 H 0.18987 0.18608 0.40801 0.0
H1544 H 0.68376 0.85076 0.51142 0.0
H1545 H 0.70925 0.85867 0.54197 0.0
H1546 H 0.65201 0.85503 0.586 0.0
H1547 H 0.62628 0.84719 0.55529 0.0
H1548 H 0.68111 0.89276 0.59407 0.0
H1549 H 0.68677 0.81166 0.58496 0.0
H1550 H 0.69231 0.77579 0.56455 0.0
H1551 H 0.76014 0.797 0.54683 0.0
H1552 H 0.75488 0.83317 0.56688 0.0
H1553 H 0.78427 0.86043 0.67188 0.0
H1554 H 0.74883 0.8512 0.65228 0.0
H1555 H 0.75701 0.91187 0.6132 0.0
H1556 H 0.79239 0.92099 0.63246 0.0
H1557 H 0.74771 0.84219 0.60822 0.0
H1558 H 0.70393 0.93082 0.59764 0.0
H1559 H 0.6978 0.96616 0.61874 0.0
H1560 H 0.70477 0.92838 0.67814 0.0
H1561 H 0.71062 0.89276 0.65742 0.0
C1562 C 0.6765 0.852 0.52754 0.0
C1563 C 0.65292 0.84879 0.5309 0.0
C1564 C 0.69115 0.85629 0.54503 0.0
C1565 C 0.68257 0.85741 0.5663 0.0
C1566 C 0.659 0.8543 0.56973 0.0
C1567 C 0.64435 0.84974 0.55221 0.0
C1568 C 0.69838 0.86171 0.58482 0.0
C1569 C 0.69561 0.88166 0.59726 0.0
C1570 C 0.71707 0.847 0.58927 0.0
C1571 C 0.72036 0.8252 0.57731 0.0
C1572 C 0.7028 0.80875 0.57658 0.0
C1573 C 0.7059 0.78835 0.5651 0.0
C1574 C 0.72655 0.78413 0.55437 0.0
C1575 C 0.74415 0.8003 0.55514 0.0
C1576 C 0.74113 0.82074 0.56659 0.0
C1577 C 0.77812 0.87215 0.65957 0.0
C1578 C 0.79113 0.89144 0.65372 0.0
C1579 C 0.75797 0.86676 0.64825 0.0
C1580 C 0.75024 0.88083 0.63124 0.0
C1581 C 0.76248 0.90085 0.62636 0.0
C1582 C 0.78273 0.90604 0.63739 0.0
C1583 C 0.73088 0.87362 0.61706 0.0
C1584 C 0.73305 0.85316 0.60529 0.0
C1585 C 0.71162 0.88781 0.61333 0.0
C1586 C 0.70789 0.90913 0.62594 0.0
C1587 C 0.70405 0.93002 0.6152 0.0
C1588 C 0.70064 0.95012 0.6271 0.0
C1589 C 0.70095 0.94953 0.64977 0.0
C1590 C 0.70462 0.92883 0.66058 0.0
C1591 C 0.70802 0.90869 0.64877 0.0
H1592 H 0.69832 0.9651 0.65895 0.0
H1593 H 0.72891 0.76833 0.54548 0.0
H1594 H 0.14001 0.28643 0.92276 0.0
H1595 H 0.14949 0.25233 0.9012 0.0
H1596 H 0.08582 0.25898 0.86644 0.0
H1597 H 0.07657 0.29332 0.88746 0.0
H1598 H 0.09944 0.21175 0.87735 0.0
H1599 H 0.12763 0.28136 0.84372 0.0
H1600 H 0.1494 0.31752 0.84364 0.0
H1601 H 0.21119 0.28074 0.85809 0.0
H1602 H 0.18967 0.24437 0.8586 0.0
H1603 H 0.11454 0.15659 0.77655 0.0
H1604 H 0.10669 0.18297 0.80639 0.0
H1605 H 0.17807 0.18175 0.82433 0.0
H1606 H 0.18612 0.15605 0.79372 0.0
H1607 H 0.16317 0.22419 0.82541 0.0
H1608 H 0.13624 0.15384 0.85475 0.0
H1609 H 0.11468 0.11759 0.85573 0.0
H1610 H 0.05141 0.15462 0.85071 0.0
H1611 H 0.07261 0.1911 0.84939 0.0
C1612 C 0.12774 0.28019 0.91099 0.0
C1613 C 0.10753 0.29251 0.90681 0.0
C1614 C 0.13324 0.26082 0.89858 0.0
C1615 C 0.11842 0.25322 0.88212 0.0
C1616 C 0.09747 0.26451 0.87907 0.0
C1617 C 0.09221 0.28412 0.8911 0.0
C1618 C 0.12557 0.23505 0.86662 0.0
C1619 C 0.11331 0.21443 0.86592 0.0
C1620 C 0.14399 0.2384 0.85205 0.0
C1621 C 0.157 0.26019 0.85148 0.0
C1622 C 0.14582 0.28101 0.84708 0.0
C1623 C 0.15811 0.30154 0.84692 0.0
C1624 C 0.18165 0.30144 0.85093 0.0
C1625 C 0.19294 0.2808 0.85503 0.0
C1626 C 0.18071 0.26022 0.85526 0.0
C1627 C 0.12863 0.16222 0.78664 0.0
C1628 C 0.15106 0.15479 0.7824 0.0
C1629 C 0.12406 0.17703 0.80396 0.0
C1630 C 0.14174 0.18433 0.81781 0.0
C1631 C 0.16412 0.17647 0.81389 0.0
C1632 C 0.1687 0.16171 0.79646 0.0
C1633 C 0.13689 0.20072 0.83587 0.0
C1634 C 0.14953 0.22117 0.83701 0.0
C1635 C 0.11889 0.19711 0.85095 0.0
C1636 C 0.10604 0.17521 0.8518 0.0
C1637 C 0.11774 0.15426 0.8537 0.0
C1638 C 0.10558 0.13366 0.85434 0.0
C1639 C 0.0817 0.1338 0.85324 0.0
C1640 C 0.06992 0.15454 0.85154 0.0
C1641 C 0.082 0.17519 0.85088 0.0
H1642 H 0.07231 0.11784 0.85373 0.0
H1643 H 0.19113 0.31736 0.8508 0.0
H1644 H 0.86097 0.65902 0.05084 0.0
H1645 H 0.83269 0.65133 0.07929 0.0
H1646 H 0.78558 0.62612 0.03098 0.0
H1647 H 0.81325 0.63473 1.00255 0.0
H1648 H 0.76414 0.65343 0.0576 0.0
H1649 H 0.81583 0.58998 0.06651 0.0
H1650 H 0.85323 0.57145 0.07249 0.0
H1651 H 0.85952 0.60542 0.134 0.0
H1652 H 0.82227 0.62439 0.12825 0.0
H1653 H 0.68333 0.59362 0.11756 0.0
H1654 H 0.71688 0.60095 0.09531 0.0
H1655 H 0.74959 0.63496 0.14906 0.0
H1656 H 0.71566 0.62773 0.17176 0.0
H1657 H 0.77976 0.60602 0.12278 0.0
H1658 H 0.72635 0.66764 0.11415 0.0
H1659 H 0.68832 0.68471 0.10792 0.0
H1660 H 0.68506 0.65289 0.04518 0.0
H1661 H 0.72294 0.63532 0.05118 0.0
C1662 C 0.84462 0.65169 0.04632 0.0
C1663 C 0.83968 0.64687 0.02444 0.0
C1664 C 0.82851 0.64717 0.06263 0.0
C1665 C 0.80708 0.63774 0.0574 0.0
C1666 C 0.80205 0.63316 0.03552 0.0
C1667 C 0.8181 0.63775 0.01924 0.0
C1668 C 0.78948 0.6334 0.07449 0.0
C1669 C 0.76758 0.64287 0.07172 0.0
C1670 C 0.79402 0.62021 0.09334 0.0
C1671 C 0.81639 0.60881 0.09683 0.0
C1672 C 0.82528 0.59365 0.08123 0.0
C1673 C 0.84643 0.58304 0.08459 0.0
C1674 C 0.85878 0.58731 0.10359 0.0
C1675 C 0.84996 0.60216 0.11928 0.0
C1676 C 0.82882 0.61283 0.11598 0.0
C1677 C 0.69769 0.60244 0.12488 0.0
C1678 C 0.6966 0.61034 0.14646 0.0
C1679 C 0.71691 0.60661 0.11206 0.0
C1680 C 0.73559 0.61882 0.12039 0.0
C1681 C 0.73529 0.62558 0.14229 0.0
C1682 C 0.7159 0.62142 0.15524 0.0
C1683 C 0.75447 0.62566 0.10553 0.0
C1684 C 0.77651 0.61673 0.10873 0.0
C1685 C 0.75011 0.63927 0.08698 0.0
C1686 C 0.72742 0.65002 0.0832 0.0
C1687 C 0.71746 0.66415 0.09909 0.0
C1688 C 0.69593 0.67393 0.09559 0.0
C1689 C 0.68426 0.66985 0.07618 0.0
C1690 C 0.69412 0.65602 0.06021 0.0
C1691 C 0.71563 0.64617 0.06365 0.0
H1692 H 0.6676 0.67744 0.0735 0.0
H1693 H 0.87515 0.57908 0.10616 0.0
H1694 H 0.32375 0.35074 0.30004 0.0
H1695 H 0.33231 0.3233 0.32912 0.0
H1696 H 0.39419 0.30347 0.29592 0.0
H1697 H 0.38602 0.33109 0.26722 0.0
H1698 H 0.36948 0.2664 0.30864 0.0
H1699 H 0.39619 0.33662 0.34071 0.0
H1700 H 0.39272 0.37655 0.35326 0.0
H1701 H 0.33926 0.35691 0.39731 0.0
H1702 H 0.34221 0.31689 0.38479 0.0
H1703 H 0.42536 0.19962 0.38467 0.0
H1704 H 0.41709 0.23291 0.36213 0.0
H1705 H 0.35733 0.24747 0.40083 0.0
H1706 H 0.36591 0.21423 0.42392 0.0
H1707 H 0.37804 0.28712 0.38633 0.0
H1708 H 0.35188 0.21685 0.35516 0.0
H1709 H 0.35528 0.17683 0.34286 0.0
H1710 H 0.40678 0.19654 0.2968 0.0
H1711 H 0.40397 0.23664 0.30909 0.0
C1712 C 0.33919 0.34053 0.29899 0.0
C1713 C 0.35381 0.34257 0.28096 0.0
C1714 C 0.3441 0.32491 0.31564 0.0
C1715 C 0.36386 0.31121 0.31469 0.0
C1716 C 0.3787 0.31361 0.29691 0.0
C1717 C 0.37386 0.32926 0.28036 0.0
C1718 C 0.36895 0.29395 0.33183 0.0
C1719 C 0.3716 0.27101 0.32558 0.0
C1720 C 0.37101 0.29979 0.35407 0.0
C1721 C 0.36924 0.32381 0.36163 0.0
C1722 C 0.38356 0.34085 0.35293 0.0
C1723 C 0.38171 0.36349 0.36007 0.0
C1724 C 0.36573 0.36927 0.37602 0.0
C1725 C 0.35161 0.35241 0.38492 0.0
C1726 C 0.35336 0.32975 0.37782 0.0
C1727 C 0.41077 0.21023 0.38876 0.0
C1728 C 0.39617 0.20417 0.40597 0.0
C1729 C 0.40598 0.2292 0.37576 0.0
C1730 C 0.38623 0.24233 0.37938 0.0
C1731 C 0.37258 0.23748 0.39761 0.0
C1732 C 0.37754 0.21854 0.41086 0.0
C1733 C 0.37902 0.25969 0.36302 0.0
C1734 C 0.37584 0.28255 0.3694 0.0
C1735 C 0.37633 0.2538 0.34084 0.0
C1736 C 0.37786 0.22973 0.33319 0.0
C1737 C 0.36404 0.21263 0.34251 0.0
C1738 C 0.36586 0.18993 0.33553 0.0
C1739 C 0.38128 0.18413 0.3191 0.0
C1740 C 0.39487 0.20105 0.30955 0.0
C1741 C 0.39316 0.22377 0.31651 0.0
H1742 H 0.38268 0.16655 0.31373 0.0
H1743 H 0.36433 0.38681 0.38153 0.0
H1744 H 0.07394 0.06908 0.29209 0.0
H1745 H 0.05415 0.0331 0.28424 0.0
H1746 H 0.9891 0.06649 0.29446 0.0
H1747 H 0.00908 0.10236 0.30288 0.0
H1748 H 0.99094 0.02915 0.3173 0.0
H1749 H 0.00732 0.047 0.2432 0.0
H1750 H 0.03136 0.05805 0.21203 0.0
H1751 H 0.07234 0.99773 0.22075 0.0
H1752 H 0.04875 0.98647 0.25217 0.0
H1753 H 0.92431 0.93341 0.29048 0.0
H1754 H 0.94235 0.97082 0.28489 0.0
H1755 H 0.00901 0.9392 0.28771 0.0
H1756 H 0.99087 0.90165 0.2933 0.0
H1757 H 0.00499 0.97583 0.25603 0.0
H1758 H 0.99041 0.95999 0.33159 0.0
H1759 H 0.96607 0.94846 0.36239 0.0
H1760 H 0.92146 0.00548 0.35032 0.0
H1761 H 0.94536 0.01714 0.31919 0.0
C1762 C 0.0554 0.06881 0.29205 0.0
C1763 C 0.04294 0.08836 0.29796 0.0
C1764 C 0.04408 0.04827 0.28755 0.0
C1765 C 0.02007 0.04704 0.28861 0.0
C1766 C 0.00761 0.06697 0.29355 0.0
C1767 C 0.01896 0.08745 0.29823 0.0
C1768 C 0.00817 0.02462 0.28663 0.0
C1769 C 0.9937 0.01776 0.30364 0.0
C1770 C 0.01221 0.00936 0.26915 0.0
C1771 C 0.02636 0.01599 0.25016 0.0
C1772 C 0.02156 0.03617 0.23857 0.0
C1773 C 0.03509 0.04246 0.22084 0.0
C1774 C 0.0534 0.02862 0.21444 0.0
C1775 C 0.05817 0.00844 0.22573 0.0
C1776 C 0.0447 0.00208 0.24349 0.0
C1777 C 0.94278 0.93442 0.28927 0.0
C1778 C 0.95629 0.91479 0.29215 0.0
C1779 C 0.95306 0.95574 0.28617 0.0
C1780 C 0.977 0.95776 0.28601 0.0
C1781 C 0.99051 0.93796 0.28768 0.0
C1782 C 0.9802 0.9166 0.29091 0.0
C1783 C 0.9878 0.98071 0.28655 0.0
C1784 C 0.00212 0.98749 0.26945 0.0
C1785 C 0.98365 0.99598 0.30392 0.0
C1786 C 0.96953 0.9893 0.32292 0.0
C1787 C 0.97532 0.96998 0.33541 0.0
C1788 C 0.96161 0.96343 0.35293 0.0
C1789 C 0.94218 0.97619 0.35827 0.0
C1790 C 0.93649 0.99559 0.34614 0.0
C1791 C 0.95012 0.00219 0.32856 0.0
H1792 H 0.93158 0.97107 0.37183 0.0
H1793 H 0.06386 0.03353 0.20071 0.0
H1794 H 0.06597 0.42777 0.54647 0.0
H1795 H 0.02995 0.44764 0.53888 0.0
H1796 H 0.06552 0.51241 0.53983 0.0
H1797 H 0.10144 0.49241 0.54817 0.0
H1798 H 0.02948 0.51505 0.564 0.0
H1799 H 0.04265 0.48768 0.49186 0.0
H1800 H 0.05122 0.45896 0.46369 0.0
H1801 H 0.99038 0.4218 0.48058 0.0
H1802 H 0.9816 0.45013 0.50907 0.0
H1803 H 0.93302 0.57976 0.53624 0.0
H1804 H 0.96974 0.56066 0.52973 0.0
H1805 H 0.93788 0.49509 0.54075 0.0
H1806 H 0.90105 0.51425 0.54719 0.0
H1807 H 0.97238 0.49431 0.50771 0.0
H1808 H 0.96242 0.51821 0.58232 0.0
H1809 H 0.95382 0.5459 0.61143 0.0
H1810 H 0.00853 0.58914 0.58944 0.0
H1811 H 0.01753 0.5616 0.56025 0.0
C1812 C 0.06608 0.4462 0.54455 0.0
C1813 C 0.08636 0.45865 0.54763 0.0
C1814 C 0.04554 0.45756 0.54016 0.0
C1815 C 0.04498 0.48156 0.53849 0.0
C1816 C 0.06548 0.49391 0.54096 0.0
C1817 C 0.08599 0.48253 0.54559 0.0
C1818 C 0.02278 0.49385 0.53605 0.0
C1819 C 0.01728 0.5108 0.55135 0.0
C1820 C 0.00644 0.48792 0.51999 0.0
C1821 C 0.01156 0.47096 0.50272 0.0
C1822 C 0.03117 0.47331 0.48967 0.0
C1823 C 0.03606 0.4571 0.47363 0.0
C1824 C 0.02138 0.43854 0.47038 0.0
C1825 C 0.00174 0.43618 0.48312 0.0
C1826 C 0.99679 0.45233 0.4992 0.0
C1827 C 0.93373 0.56123 0.53649 0.0
C1828 C 0.91432 0.54838 0.54208 0.0
C1829 C 0.9547 0.55035 0.53293 0.0
C1830 C 0.95656 0.52648 0.535 0.0
C1831 C 0.93679 0.51351 0.53903 0.0
C1832 C 0.9158 0.52442 0.54268 0.0
C1833 C 0.97942 0.51544 0.5355 0.0
C1834 C 0.98489 0.49869 0.52004 0.0
C1835 C 0.99579 0.52146 0.55142 0.0
C1836 C 0.9905 0.53798 0.56899 0.0
C1837 C 0.97253 0.53369 0.58362 0.0
C1838 C 0.9676 0.54933 0.60015 0.0
C1839 C 0.98051 0.56934 0.60218 0.0
C1840 C 0.9985 0.57366 0.58781 0.0
C1841 C 0.00358 0.55801 0.57132 0.0
H1842 H 0.97662 0.58146 0.61496 0.0
H1843 H 0.0252 0.42601 0.45796 0.0
H1844 H 0.42537 0.4333 0.78443 0.0
H1845 H 0.44746 0.46786 0.77628 0.0
H1846 H 0.51006 0.43129 0.79 0.0
H1847 H 0.48771 0.39705 0.79905 0.0
H1848 H 0.5102 0.46845 0.81149 0.0
H1849 H 0.49483 0.45173 0.7373 0.0
H1850 H 0.47149 0.44188 0.70531 0.0
H1851 H 0.43324 0.50416 0.71269 0.0
H1852 H 0.45613 0.51424 0.74493 0.0
H1853 H 0.58058 0.5626 0.78643 0.0
H1854 H 0.56149 0.52615 0.77842 0.0
H1855 H 0.49573 0.55869 0.78609 0.0
H1856 H 0.51489 0.59511 0.79449 0.0
H1857 H 0.49969 0.52302 0.75058 0.0
H1858 H 0.51166 0.53524 0.82817 0.0
H1859 H 0.53531 0.54467 0.86012 0.0
H1860 H 0.58144 0.48991 0.84439 0.0
H1861 H 0.55798 0.48011 0.81237 0.0
C1862 C 0.44389 0.43256 0.78503 0.0
C1863 C 0.45497 0.41262 0.79209 0.0
C1864 C 0.45654 0.45228 0.78034 0.0
C1865 C 0.48054 0.45224 0.78233 0.0
C1866 C 0.49162 0.43182 0.78833 0.0
C1867 C 0.47892 0.41222 0.79331 0.0
C1868 C 0.49374 0.474 0.78056 0.0
C1869 C 0.50821 0.48004 0.79786 0.0
C1870 C 0.49086 0.48958 0.7631 0.0
C1871 C 0.4771 0.48365 0.74365 0.0
C1872 C 0.48134 0.46325 0.7322 0.0
C1873 C 0.4682 0.45764 0.714 0.0
C1874 C 0.45086 0.47236 0.707 0.0
C1875 C 0.44666 0.49276 0.71814 0.0
C1876 C 0.45974 0.49845 0.73637 0.0
C1877 C 0.56206 0.56208 0.78564 0.0
C1878 C 0.5491 0.58153 0.79086 0.0
C1879 C 0.55119 0.5413 0.78117 0.0
C1880 C 0.52722 0.53976 0.78172 0.0
C1881 C 0.51423 0.5596 0.78542 0.0
C1882 C 0.52513 0.58034 0.79018 0.0
C1883 C 0.51592 0.51706 0.78138 0.0
C1884 C 0.50181 0.51104 0.76388 0.0
C1885 C 0.51919 0.50134 0.79852 0.0
C1886 C 0.53323 0.50711 0.81779 0.0
C1887 C 0.52693 0.52531 0.83147 0.0
C1888 C 0.54026 0.53069 0.8496 0.0
C1889 C 0.55995 0.51801 0.8542 0.0
C1890 C 0.56623 0.49977 0.84077 0.0
C1891 C 0.55288 0.49425 0.82267 0.0
H1892 H 0.57029 0.52225 0.86821 0.0
H1893 H 0.4407 0.46798 0.69291 0.0
H1894 H 0.43238 0.07651 0.03666 0.0
H1895 H 0.46709 0.05499 0.02769 0.0
H1896 H 0.43225 0.99184 0.04301 0.0
H1897 H 0.39783 0.0136 0.05274 0.0
H1898 H 0.47017 0.99308 0.06376 0.0
H1899 H 0.45057 0.00661 0.98978 0.0
H1900 H 0.43923 0.0292 0.95774 0.0
H1901 H 0.50101 0.06864 0.96261 0.0
H1902 H 0.51258 0.04651 0.99489 0.0
H1903 H 0.56406 0.92333 0.03684 0.0
H1904 H 0.52715 0.94194 0.02979 0.0
H1905 H 0.55933 0.00813 0.03494 0.0
H1906 H 0.59626 0.98947 0.04235 0.0
H1907 H 0.52228 0.0031 1.00087 0.0
H1908 H 0.53783 0.99309 0.07798 0.0
H1909 H 0.54911 0.97035 0.10997 0.0
H1910 H 0.49424 0.92322 0.09767 0.0
H1911 H 0.48263 0.94575 0.06558 0.0
C1912 C 0.43203 0.05798 0.03743 0.0
C1913 C 0.41255 0.04659 0.04519 0.0
C1914 C 0.45183 0.04566 0.03229 0.0
C1915 C 0.45235 0.0217 0.03452 0.0
C1916 C 0.43234 0.01028 0.04116 0.0
C1917 C 0.41265 0.02264 0.04655 0.0
C1918 C 0.47431 0.00891 0.03234 0.0
C1919 C 0.48123 0.99496 0.04973 0.0
C1920 C 0.4892 0.0117 0.01435 0.0
C1921 C 0.48236 0.025 0.99488 0.0
C1922 C 0.46166 0.02021 0.98413 0.0
C1923 C 0.45521 0.03292 0.9659 0.0
C1924 C 0.46937 0.05038 0.95817 0.0
C1925 C 0.49005 0.05512 0.96863 0.0
C1926 C 0.49658 0.04248 0.98687 0.0
C1927 C 0.56333 0.94183 0.03573 0.0
C1928 C 0.58286 0.95506 0.03998 0.0
C1929 C 0.54229 0.95242 0.03178 0.0
C1930 C 0.54055 0.97639 0.0319 0.0
C1931 C 0.56039 0.98962 0.03462 0.0
C1932 C 0.58141 0.97901 0.03884 0.0
C1933 C 0.51773 0.98746 0.03217 0.0
C1934 C 0.51085 0.0011 0.01461 0.0
C1935 C 0.50274 0.98437 0.04991 0.0
C1936 C 0.50952 0.97094 0.06929 0.0
C1937 C 0.52827 0.97779 0.08203 0.0
C1938 C 0.53469 0.96498 0.10019 0.0
C1939 C 0.5225 0.94527 0.10577 0.0
C1940 C 0.50372 0.93845 0.09329 0.0
C1941 C 0.49716 0.95127 0.07516 0.0
H1942 H 0.52755 0.93533 0.1198 0.0
H1943 H 0.46434 0.0602 0.94406 0.0
H1944 H 0.07789 0.43718 0.96038 0.0
H1945 H 0.05788 0.47335 0.96699 0.0
H1946 H 0.99342 0.43724 0.96865 0.0
H1947 H 0.01355 0.40117 0.96118 0.0
H1948 H 0.98973 0.47216 0.94337 0.0
H1949 H 0.01916 0.46252 0.01529 0.0
H1950 H 0.04872 0.45547 0.04306 0.0
H1951 H 0.08492 0.51571 0.02271 0.0
H1952 H 0.05575 0.52296 0.9946 0.0
H1953 H 0.92532 0.56988 0.96806 0.0
H1954 H 0.94445 0.53337 0.97546 0.0
H1955 H 0.00996 0.5649 0.9633 0.0
H1956 H 0.99079 0.60158 0.95621 0.0
H1957 H 0.01156 0.53192 0.99672 0.0
H1958 H 0.98442 0.53917 0.92305 0.0
H1959 H 0.95517 0.54659 0.89506 0.0
H1960 H 0.91491 0.49056 0.91905 0.0
H1961 H 0.94381 0.48298 0.94738 0.0
C1962 C 0.05951 0.43701 0.9627 0.0
C1963 C 0.04719 0.41653 0.96061 0.0
C1964 C 0.04806 0.45764 0.96653 0.0
C1965 C 0.02409 0.45808 0.96863 0.0
C1966 C 0.01189 0.43738 0.96717 0.0
C1967 C 0.02335 0.41679 0.96308 0.0
C1968 C 0.01166 0.48028 0.97045 0.0
C1969 C 0.99423 0.48496 0.95538 0.0
C1970 C 0.01787 0.49739 0.98569 0.0
C1971 C 0.03534 0.49319 1.00273 0.0
C1972 C 0.0335 0.47419 0.01664 0.0
C1973 C 0.05018 0.47017 0.03245 0.0
C1974 C 0.06871 0.48511 0.03462 0.0
C1975 C 0.07056 0.50414 0.02101 0.0
C1976 C 0.05394 0.50824 0.00515 0.0
C1977 C 0.94384 0.56915 0.96766 0.0
C1978 C 0.95665 0.58841 0.96151 0.0
C1979 C 0.95473 0.54829 0.97174 0.0
C1980 C 0.9786 0.54636 0.96962 0.0
C1981 C 0.99154 0.56601 0.965 0.0
C1982 C 0.98061 0.58689 0.9609 0.0
C1983 C 0.9897 0.5235 0.96979 0.0
C1984 C 0.00693 0.51884 0.98502 0.0
C1985 C 0.98336 0.50635 0.95471 0.0
C1986 C 0.96616 0.51065 0.93747 0.0
C1987 C 0.96926 0.52852 0.92245 0.0
C1988 C 0.95275 0.53275 0.90652 0.0
C1989 C 0.93316 0.51911 0.90533 0.0
C1990 C 0.93008 0.50114 0.92002 0.0
C1991 C 0.94652 0.49685 0.936 0.0
H1992 H 0.92039 0.52243 0.893 0.0
H1993 H 0.08161 0.48195 0.04687 0.0
H1994 H 0.43911 0.42853 0.19032 0.0
H1995 H 0.47459 0.44844 0.19987 0.0
H1996 H 0.43613 0.49633 0.23878 0.0
H1997 H 0.40045 0.47615 0.22924 0.0
H1998 H 0.46592 0.51719 0.20936 0.0
H1999 H 0.4698 0.45927 0.26385 0.0
H2000 H 0.46824 0.4199 0.27817 0.0
H2001 H 0.52509 0.4009 0.23785 0.0
H2002 H 0.52678 0.44007 0.22302 0.0
H2003 H 0.56894 0.5738 0.23141 0.0
H2004 H 0.53464 0.55199 0.24138 0.0
H2005 H 0.55982 0.49405 0.20507 0.0
H2006 H 0.5943 0.51569 0.19556 0.0
H2007 H 0.53516 0.48002 0.24001 0.0
H2008 H 0.52696 0.53339 0.18083 0.0
H2009 H 0.52902 0.57151 0.16377 0.0
H2010 H 0.48042 0.59751 0.20989 0.0
H2011 H 0.47839 0.55958 0.22748 0.0
C2012 C 0.43834 0.44315 0.20112 0.0
C2013 C 0.41724 0.45095 0.20907 0.0
C2014 C 0.45856 0.45443 0.20665 0.0
C2015 C 0.45803 0.47376 0.22018 0.0
C2016 C 0.43691 0.48138 0.2284 0.0
C2017 C 0.41663 0.4699 0.22302 0.0
C2018 C 0.47943 0.48674 0.22432 0.0
C2019 C 0.48089 0.50928 0.21661 0.0
C2020 C 0.49912 0.47616 0.2332 0.0
C2021 C 0.49833 0.45261 0.24223 0.0
C2022 C 0.48188 0.44667 0.25792 0.0
C2023 C 0.48098 0.42439 0.26615 0.0
C2024 C 0.49654 0.4079 0.25891 0.0
C2025 C 0.51306 0.41369 0.24345 0.0
C2026 C 0.51401 0.43594 0.23515 0.0
C2027 C 0.56749 0.55612 0.22629 0.0
C2028 C 0.58403 0.54639 0.21259 0.0
C2029 C 0.54785 0.54373 0.23184 0.0
C2030 C 0.54445 0.52155 0.22359 0.0
C2031 C 0.56202 0.51115 0.21157 0.0
C2032 C 0.58167 0.5235 0.2061 0.0
C2033 C 0.52166 0.51036 0.22487 0.0
C2034 C 0.52 0.48813 0.23335 0.0
C2035 C 0.50181 0.52105 0.21638 0.0
C2036 C 0.50273 0.54375 0.20563 0.0
C2037 C 0.51683 0.54728 0.18742 0.0
C2038 C 0.51799 0.56884 0.17765 0.0
C2039 C 0.50491 0.58694 0.18578 0.0
C2040 C 0.49058 0.58348 0.20365 0.0
C2041 C 0.48942 0.56196 0.21353 0.0
H2042 H 0.50582 0.60362 0.17819 0.0
H2043 H 0.49581 0.39066 0.26529 0.0
H2044 H 0.5768 0.94021 0.44035 0.0
H2045 H 0.55649 0.97534 0.45043 0.0
H2046 H 0.50493 0.93518 0.48302 0.0
H2047 H 0.52554 0.89988 0.47306 0.0
H2048 H 0.48738 0.96733 0.45323 0.0
H2049 H 0.53956 0.96601 0.51303 0.0
H2050 H 0.57737 0.96286 0.53054 0.0
H2051 H 0.60045 0.0225 0.49621 0.0
H2052 H 0.56289 0.02582 0.47822 0.0
H2053 H 0.42848 0.06791 0.4794 0.0
H2054 H 0.44936 0.03251 0.48746 0.0
H2055 H 0.51061 0.06165 0.45975 0.0
H2056 H 0.48987 0.09726 0.4523 0.0
H2057 H 0.52135 0.03318 0.49263 0.0
H2058 H 0.47413 0.03138 0.42877 0.0
H2059 H 0.43801 0.03532 0.40842 0.0
H2060 H 0.40767 0.98212 0.44694 0.0
H2061 H 0.44353 0.97814 0.46779 0.0
C2062 C 0.56131 0.93898 0.44994 0.0
C2063 C 0.55265 0.91753 0.45603 0.0
C2064 C 0.54978 0.959 0.45574 0.0
C2065 C 0.5293 0.95788 0.46761 0.0
C2066 C 0.52077 0.9364 0.47395 0.0
C2067 C 0.53251 0.91633 0.46835 0.0
C2068 C 0.51616 0.97913 0.47195 0.0
C2069 C 0.49454 0.98153 0.46233 0.0
C2070 C 0.52586 0.99788 0.48322 0.0
C2071 C 0.54843 0.99607 0.49417 0.0
C2072 C 0.55275 0.97837 0.50909 0.0
C2073 C 0.57413 0.97657 0.51912 0.0
C2074 C 0.59131 0.99245 0.51447 0.0
C2075 C 0.58713 0.01021 0.4998 0.0
C2076 C 0.56578 0.01207 0.4897 0.0
C2077 C 0.4466 0.067 0.47578 0.0
C2078 C 0.45761 0.08511 0.46507 0.0
C2079 C 0.45847 0.04673 0.48022 0.0
C2080 C 0.48142 0.04424 0.47376 0.0
C2081 C 0.49291 0.06312 0.46479 0.0
C2082 C 0.48107 0.08341 0.46049 0.0
C2083 C 0.49263 0.0214 0.4738 0.0
C2084 C 0.51394 0.01878 0.48403 0.0
C2085 C 0.48288 0.00252 0.46271 0.0
C2086 C 0.46141 0.00465 0.45001 0.0
C2087 C 0.4597 0.02063 0.433 0.0
C2088 C 0.43929 0.02287 0.42137 0.0
C2089 C 0.42053 0.00902 0.42642 0.0
C2090 C 0.42219 0.99286 0.44308 0.0
C2091 C 0.44256 0.99061 0.45482 0.0
H2092 H 0.40474 0.01077 0.4174 0.0
H2093 H 0.60786 0.99102 0.52225 0.0
H2094 H 0.10022 0.01424 0.70343 0.0
H2095 H 0.06452 0.99292 0.70877 0.0
H2096 H 0.03077 0.05492 0.72919 0.0
H2097 H 0.06638 0.07643 0.72325 0.0
H2098 H 0.01798 0.00854 0.7521 0.0
H2099 H 0.02162 0.04828 0.68276 0.0
H2100 H 0.04089 0.05997 0.64891 0.0
H2101 H 0.05005 0.98945 0.6313 0.0
H2102 H 0.03093 0.97735 0.66516 0.0
H2103 H 0.90309 0.9736 0.72345 0.0
H2104 H 0.93891 0.99429 0.73114 0.0
H2105 H 0.97597 0.9462 0.69117 0.0
H2106 H 0.94027 0.92608 0.68318 0.0
H2107 H 0.98657 0.98775 0.67989 0.0
H2108 H 0.98056 0.94752 0.74762 0.0
H2109 H 0.9619 0.93519 0.78155 0.0
H2110 H 0.9579 0.00507 0.80283 0.0
H2111 H 0.97625 0.01785 0.76886 0.0
C2112 C 0.08534 0.02313 0.70968 0.0
C2113 C 0.0859 0.0469 0.71282 0.0
C2114 C 0.06502 0.01099 0.71274 0.0
C2115 C 0.04504 0.02241 0.71926 0.0
C2116 C 0.04607 0.04581 0.72428 0.0
C2117 C 0.06638 0.05805 0.72094 0.0
C2118 C 0.02269 0.01064 0.71753 0.0
C2119 C 0.01086 0.0042 0.73637 0.0
C2120 C 0.01372 0.00474 0.69699 0.0
C2121 C 0.02507 0.01192 0.67657 0.0
C2122 C 0.0279 0.03527 0.67174 0.0
C2123 C 0.03872 0.04197 0.65253 0.0
C2124 C 0.04675 0.02546 0.63799 0.0
C2125 C 0.04385 0.00222 0.64259 0.0
C2126 C 0.03298 0.99543 0.66176 0.0
C2127 C 0.91902 0.9674 0.71664 0.0
C2128 C 0.91909 0.94844 0.70268 0.0
C2129 C 0.93944 0.97912 0.72105 0.0
C2130 C 0.9602 0.9718 0.71174 0.0
C2131 C 0.96022 0.95228 0.69843 0.0
C2132 C 0.93987 0.94076 0.69392 0.0
C2133 C 0.9817 0.98514 0.71451 0.0
C2134 C 0.99346 0.99202 0.69574 0.0
C2135 C 0.99053 0.99131 0.73514 0.0
C2136 C 0.97955 0.98366 0.75559 0.0
C2137 C 0.97553 0.96028 0.75945 0.0
C2138 C 0.96504 0.9532 0.77871 0.0
C2139 C 0.95866 0.96934 0.79431 0.0
C2140 C 0.96282 0.99259 0.79071 0.0
C2141 C 0.97327 0.99976 0.77146 0.0
H2142 H 0.95055 0.96383 0.80921 0.0
H2143 H 0.05519 0.03069 0.62316 0.0
H2144 H 0.32032 0.11934 0.44485 0.0
H2145 H 0.28225 0.10852 0.43199 0.0
H2146 H 0.31107 0.08724 0.37079 0.0
H2147 H 0.34911 0.09786 0.38341 0.0
H2148 H 0.2785 0.12185 0.36779 0.0
H2149 H 0.28679 0.04823 0.40126 0.0
H2150 H 0.29512 0.02157 0.43125 0.0
H2151 H 0.23997 0.05024 0.46843 0.0
H2152 H 0.2315 0.07731 0.43879 0.0
H2153 H 0.17173 0.10638 0.3209 0.0
H2154 H 0.20944 0.0944 0.33374 0.0
H2155 H 0.18838 0.10662 0.39987 0.0
H2156 H 0.15045 0.11783 0.38721 0.0
H2157 H 0.21798 0.07181 0.39844 0.0
H2158 H 0.2141 0.1488 0.3711 0.0
H2159 H 0.20528 0.17861 0.34402 0.0
H2160 H 0.25203 0.1475 0.29905 0.0
H2161 H 0.26092 0.11732 0.32581 0.0
C2162 C 0.31865 0.11184 0.42886 0.0
C2163 C 0.33769 0.10984 0.41503 0.0
C2164 C 0.29691 0.10554 0.42159 0.0
C2165 C 0.29395 0.09713 0.40046 0.0
C2166 C 0.31309 0.0937 0.38717 0.0
C2167 C 0.3348 0.09987 0.39442 0.0
C2168 C 0.27081 0.09543 0.39108 0.0
C2169 C 0.26541 0.11048 0.37412 0.0
C2170 C 0.25363 0.08126 0.40001 0.0
C2171 C 0.25862 0.06492 0.41784 0.0
C2172 C 0.27655 0.04898 0.41589 0.0
C2173 C 0.28127 0.03377 0.43282 0.0
C2174 C 0.26811 0.03424 0.45175 0.0
C2175 C 0.25016 0.0499 0.45376 0.0
C2176 C 0.24537 0.06516 0.43689 0.0
C2177 C 0.17503 0.10615 0.33818 0.0
C2178 C 0.15837 0.11352 0.35302 0.0
C2179 C 0.19652 0.09922 0.3455 0.0
C2180 C 0.20181 0.10013 0.36771 0.0
C2181 C 0.18465 0.10584 0.38266 0.0
C2182 C 0.16303 0.11239 0.37538 0.0
C2183 C 0.22578 0.09815 0.3751 0.0
C2184 C 0.23126 0.08272 0.39179 0.0
C2185 C 0.24305 0.11241 0.36636 0.0
C2186 C 0.23797 0.13067 0.35033 0.0
C2187 C 0.22239 0.14824 0.35538 0.0
C2188 C 0.21739 0.16521 0.3401 0.0
C2189 C 0.22803 0.1649 0.3198 0.0
C2190 C 0.24377 0.14768 0.31476 0.0
C2191 C 0.2488 0.13065 0.32998 0.0
H2192 H 0.22413 0.17804 0.30798 0.0
H2193 H 0.2718 0.02244 0.46483 0.0
H2194 H 0.92235 0.64743 0.61599 0.0
H2195 H 0.93768 0.68339 0.63012 0.0
H2196 H 0.89864 0.72083 0.58245 0.0
H2197 H 0.88348 0.68517 0.56817 0.0
H2198 H 0.93865 0.74317 0.59314 0.0
H2199 H 0.87455 0.70363 0.63042 0.0
H2200 H 0.85887 0.67065 0.65056 0.0
H2201 H 0.91116 0.67825 0.699 0.0
H2202 H 0.92748 0.71092 0.67883 0.0
H2203 H 0.87565 0.83616 0.62436 0.0
H2204 H 0.89294 0.80026 0.61322 0.0
H2205 H 0.91875 0.78993 0.67819 0.0
H2206 H 0.90013 0.82555 0.68975 0.0
H2207 H 0.90147 0.75288 0.66497 0.0
H2208 H 0.95553 0.80232 0.63292 0.0
H2209 H 0.96884 0.83625 0.61276 0.0
H2210 H 0.93586 0.81159 0.55506 0.0
H2211 H 0.92204 0.77769 0.57491 0.0
C2212 C 0.91753 0.6633 0.60812 0.0
C2213 C 0.90128 0.66353 0.59126 0.0
C2214 C 0.92643 0.68379 0.61615 0.0
C2215 C 0.91893 0.70473 0.60758 0.0
C2216 C 0.90464 0.70483 0.58929 0.0
C2217 C 0.89586 0.68438 0.58118 0.0
C2218 C 0.9219 0.72627 0.61978 0.0
C2219 C 0.93085 0.7454 0.60898 0.0
C2220 C 0.91241 0.7289 0.64077 0.0
C2221 C 0.9024 0.70947 0.65299 0.0
C2222 C 0.88278 0.69814 0.64529 0.0
C2223 C 0.87381 0.67949 0.65668 0.0
C2224 C 0.88411 0.67226 0.67598 0.0
C2225 C 0.90331 0.68376 0.68398 0.0
C2226 C 0.91245 0.7023 0.67255 0.0
C2227 C 0.88513 0.82632 0.63626 0.0
C2228 C 0.88653 0.83354 0.65792 0.0
C2229 C 0.89532 0.80593 0.6298 0.0
C2230 C 0.90784 0.79271 0.64468 0.0
C2231 C 0.90941 0.79999 0.66637 0.0
C2232 C 0.89868 0.82021 0.67298 0.0
C2233 C 0.91704 0.77021 0.6378 0.0
C2234 C 0.91037 0.75082 0.64964 0.0
C2235 C 0.92871 0.76743 0.6178 0.0
C2236 C 0.93776 0.78738 0.60546 0.0
C2237 C 0.9511 0.80411 0.61593 0.0
C2238 C 0.95871 0.82337 0.60456 0.0
C2239 C 0.9532 0.82607 0.58264 0.0
C2240 C 0.94016 0.80945 0.57202 0.0
C2241 C 0.9325 0.79016 0.58332 0.0
H2242 H 0.95902 0.84105 0.57389 0.0
H2243 H 0.87716 0.6578 0.68478 0.0
H2244 H 0.14812 0.41542 0.89473 0.0
H2245 H 0.18459 0.42862 0.87971 0.0
H2246 H 0.21975 0.37517 0.91491 0.0
H2247 H 0.18365 0.36301 0.9309 0.0
H2248 H 0.24652 0.40877 0.91227 0.0
H2249 H 0.19854 0.36842 0.86077 0.0
H2250 H 0.1631 0.36243 0.83975 0.0
H2251 H 0.17178 0.42789 0.80914 0.0
H2252 H 0.2072 0.43436 0.83019 0.0
H2253 H 0.31495 0.36196 0.81898 0.0
H2254 H 0.27728 0.37389 0.83165 0.0
H2255 H 0.30744 0.4327 0.86303 0.0
H2256 H 0.34541 0.42 0.85142 0.0
H2257 H 0.24756 0.40616 0.83175 0.0
H2258 H 0.28502 0.43871 0.91282 0.0
H2259 H 0.32026 0.43487 0.9347 0.0
H2260 H 0.33285 0.36877 0.90668 0.0
H2261 H 0.29752 0.37204 0.88499 0.0
C2262 C 0.16378 0.40694 0.89962 0.0
C2263 C 0.16321 0.3881 0.91375 0.0
C2264 C 0.18454 0.41441 0.891 0.0
C2265 C 0.20481 0.40251 0.89573 0.0
C2266 C 0.20435 0.38465 0.911 0.0
C2267 C 0.18371 0.37764 0.92011 0.0
C2268 C 0.22603 0.4067 0.88325 0.0
C2269 C 0.24672 0.40858 0.89465 0.0
C2270 C 0.22632 0.40602 0.86025 0.0
C2271 C 0.20533 0.402 0.84724 0.0
C2272 C 0.19284 0.38157 0.84962 0.0
C2273 C 0.17276 0.37809 0.83771 0.0
C2274 C 0.16514 0.39482 0.82319 0.0
C2275 C 0.17767 0.41499 0.82045 0.0
C2276 C 0.19775 0.41857 0.83235 0.0
C2277 C 0.31346 0.3777 0.82816 0.0
C2278 C 0.33301 0.38975 0.83476 0.0
C2279 C 0.29191 0.3846 0.83529 0.0
C2280 C 0.28965 0.40386 0.84877 0.0
C2281 C 0.30892 0.41745 0.85312 0.0
C2282 C 0.33055 0.4102 0.84651 0.0
C2283 C 0.26804 0.40736 0.86082 0.0
C2284 C 0.24731 0.40711 0.84934 0.0
C2285 C 0.26773 0.40806 0.88381 0.0
C2286 C 0.28882 0.40579 0.89708 0.0
C2287 C 0.29529 0.42335 0.9114 0.0
C2288 C 0.31526 0.42125 0.92378 0.0
C2289 C 0.3288 0.4016 0.92205 0.0
C2290 C 0.32236 0.38397 0.90801 0.0
C2291 C 0.30237 0.38594 0.89567 0.0
H2292 H 0.34422 0.4 0.93166 0.0
H2293 H 0.14957 0.39213 0.81402 0.0
H2294 H 0.63075 0.81939 0.0759 0.0
H2295 H 0.61682 0.78378 0.09155 0.0
H2296 H 0.56865 0.82158 0.13088 0.0
H2297 H 0.58357 0.85742 0.11611 0.0
H2298 H 0.58819 0.79381 0.15516 0.0
H2299 H 0.55116 0.78385 0.0883 0.0
H2300 H 0.54593 0.78377 0.0486 0.0
H2301 H 0.59695 0.7313 0.04224 0.0
H2302 H 0.60277 0.73128 0.08185 0.0
H2303 H 0.57422 0.65792 0.15096 0.0
H2304 H 0.56062 0.69605 0.14097 0.0
H2305 H 0.61924 0.72599 0.17292 0.0
H2306 H 0.63196 0.68811 0.18405 0.0
H2307 H 0.57902 0.72128 0.11439 0.0
H2308 H 0.61464 0.78075 0.18398 0.0
H2309 H 0.61507 0.78186 0.22396 0.0
H2310 H 0.55758 0.73618 0.22605 0.0
H2311 H 0.55646 0.73513 0.18607 0.0
C2312 C 0.61691 0.82007 0.08759 0.0
C2313 C 0.60835 0.84111 0.09492 0.0
C2314 C 0.60879 0.79967 0.09643 0.0
C2315 C 0.59142 0.79991 0.11224 0.0
C2316 C 0.58207 0.82094 0.11876 0.0
C2317 C 0.59058 0.84138 0.11029 0.0
C2318 C 0.58502 0.77841 0.12351 0.0
C2319 C 0.58586 0.77796 0.14629 0.0
C2320 C 0.58095 0.75787 0.11201 0.0
C2321 C 0.57742 0.75761 0.08811 0.0
C2322 C 0.56135 0.77236 0.07844 0.0
C2323 C 0.55828 0.77233 0.05593 0.0
C2324 C 0.5711 0.75755 0.0429 0.0
C2325 C 0.587 0.74273 0.05236 0.0
C2326 C 0.59016 0.74269 0.07485 0.0
C2327 C 0.58379 0.67275 0.15634 0.0
C2328 C 0.60422 0.67015 0.16809 0.0
C2329 C 0.57603 0.69451 0.15063 0.0
C2330 C 0.58882 0.71401 0.15618 0.0
C2331 C 0.60866 0.71139 0.16887 0.0
C2332 C 0.61608 0.68967 0.17507 0.0
C2333 C 0.58367 0.73646 0.14603 0.0
C2334 C 0.58063 0.73714 0.12341 0.0
C2335 C 0.58492 0.75725 0.15778 0.0
C2336 C 0.58552 0.75779 0.18193 0.0
C2337 C 0.60197 0.77106 0.19293 0.0
C2338 C 0.60235 0.77165 0.21561 0.0
C2339 C 0.58639 0.75907 0.22753 0.0
C2340 C 0.56998 0.74587 0.21679 0.0
C2341 C 0.56947 0.74526 0.19411 0.0
H2342 H 0.58672 0.75956 0.24509 0.0
H2343 H 0.56871 0.75757 0.02549 0.0
H2344 H 0.68408 0.61926 0.81634 0.0
H2345 H 0.72167 0.60704 0.82903 0.0
H2346 H 0.69056 0.57465 0.88459 0.0
H2347 H 0.65286 0.58677 0.87205 0.0
H2348 H 0.72202 0.60633 0.89574 0.0
H2349 H 0.71869 0.54245 0.84793 0.0
H2350 H 0.71249 0.52218 0.81334 0.0
H2351 H 0.76676 0.56072 0.78384 0.0
H2352 H 0.77307 0.5815 0.81813 0.0
H2353 H 0.83304 0.597 0.93655 0.0
H2354 H 0.79619 0.58214 0.92396 0.0
H2355 H 0.81124 0.60609 0.85919 0.0
H2356 H 0.8485 0.61968 0.87145 0.0
H2357 H 0.7863 0.5697 0.85623 0.0
H2358 H 0.78218 0.63982 0.89879 0.0
H2359 H 0.7887 0.66286 0.93179 0.0
H2360 H 0.74811 0.61577 0.96896 0.0
H2361 H 0.74159 0.59231 0.9362 0.0
C2362 C 0.68512 0.60902 0.83094 0.0
C2363 C 0.66547 0.60425 0.8433 0.0
C2364 C 0.70664 0.60193 0.83812 0.0
C2365 C 0.70886 0.58988 0.85772 0.0
C2366 C 0.68917 0.5839 0.8694 0.0
C2367 C 0.66765 0.59092 0.86222 0.0
C2368 C 0.73173 0.58679 0.86754 0.0
C2369 C 0.73595 0.59776 0.88738 0.0
C2370 C 0.74996 0.57613 0.85632 0.0
C2371 C 0.74626 0.56364 0.83563 0.0
C2372 C 0.72919 0.54674 0.83403 0.0
C2373 C 0.72568 0.53514 0.81447 0.0
C2374 C 0.7392 0.54019 0.7964 0.0
C2375 C 0.7563 0.55683 0.79785 0.0
C2376 C 0.75987 0.5685 0.81736 0.0
C2377 C 0.82857 0.59871 0.91957 0.0
C2378 C 0.8433 0.60991 0.90505 0.0
C2379 C 0.80757 0.59021 0.91238 0.0
C2380 C 0.80066 0.59363 0.89078 0.0
C2381 C 0.81611 0.60335 0.87596 0.0
C2382 C 0.83735 0.61126 0.88301 0.0
C2383 C 0.77661 0.58981 0.88407 0.0
C2384 C 0.7722 0.57767 0.86484 0.0
C2385 C 0.75816 0.59983 0.89557 0.0
C2386 C 0.76162 0.6142 0.91514 0.0
C2387 C 0.77472 0.63436 0.91403 0.0
C2388 C 0.77842 0.64748 0.93268 0.0
C2389 C 0.76889 0.64073 0.95248 0.0
C2390 C 0.75553 0.62094 0.95363 0.0
C2391 C 0.75181 0.60773 0.93503 0.0
H2392 H 0.77182 0.65088 0.96691 0.0
H2393 H 0.73645 0.53118 0.78127 0.0
H2394 H 0.36542 0.18609 0.07725 0.0
H2395 H 0.38008 0.22302 0.08886 0.0
H2396 H 0.43647 0.18954 0.12133 0.0
H2397 H 0.42078 0.15231 0.11092 0.0
H2398 H 0.42047 0.21685 0.14733 0.0
H2399 H 0.44397 0.22782 0.07576 0.0
H2400 H 0.44265 0.22701 0.03579 0.0
H2401 H 0.38685 0.27483 0.03617 0.0
H2402 H 0.38754 0.27567 0.07613 0.0
H2403 H 0.41501 0.35321 0.14143 0.0
H2404 H 0.43177 0.31731 0.12859 0.0
H2405 H 0.38387 0.27955 0.16825 0.0
H2406 H 0.36816 0.31525 0.18195 0.0
H2407 H 0.41407 0.28861 0.10488 0.0
H2408 H 0.39809 0.2274 0.17961 0.0
H2409 H 0.40422 0.22791 0.21916 0.0
H2410 H 0.45476 0.28069 0.21192 0.0
H2411 H 0.44929 0.28022 0.17226 0.0
C2412 C 0.38118 0.18664 0.08651 0.0
C2413 C 0.39186 0.16643 0.09339 0.0
C2414 C 0.38975 0.20781 0.09296 0.0
C2415 C 0.40964 0.2092 0.10575 0.0
C2416 C 0.42109 0.18895 0.11152 0.0
C2417 C 0.41214 0.16772 0.10558 0.0
C2418 C 0.41637 0.23146 0.11541 0.0
C2419 C 0.41947 0.23255 0.138 0.0
C2420 C 0.41624 0.25195 0.10318 0.0
C2421 C 0.41584 0.25179 0.07903 0.0
C2422 C 0.43135 0.2381 0.06734 0.0
C2423 C 0.4307 0.23763 0.04467 0.0
C2424 C 0.41468 0.25086 0.03344 0.0
C2425 C 0.39929 0.26462 0.04488 0.0
C2426 C 0.39984 0.26514 0.06756 0.0
C2427 C 0.40848 0.33718 0.14773 0.0
C2428 C 0.39029 0.33691 0.16263 0.0
C2429 C 0.41807 0.3167 0.14042 0.0
C2430 C 0.40931 0.29563 0.14758 0.0
C2431 C 0.39153 0.29547 0.16296 0.0
C2432 C 0.38236 0.31593 0.17067 0.0
C2433 C 0.41627 0.27393 0.13694 0.0
C2434 C 0.41588 0.27295 0.11416 0.0
C2435 C 0.41977 0.25357 0.14894 0.0
C2436 C 0.42323 0.2538 0.17287 0.0
C2437 C 0.41067 0.23899 0.18639 0.0
C2438 C 0.41399 0.2393 0.20886 0.0
C2439 C 0.42985 0.25434 0.21804 0.0
C2440 C 0.44244 0.26908 0.20478 0.0
C2441 C 0.43922 0.26881 0.1823 0.0
H2442 H 0.43238 0.25456 0.23544 0.0
H2443 H 0.41419 0.25045 0.01589 0.0
H2444 H 0.85909 0.89964 0.37456 0.0
H2445 H 0.8229 0.91087 0.39112 0.0
H2446 H 0.78739 0.89436 0.33179 0.0
H2447 H 0.82349 0.88337 0.31495 0.0
H2448 H 0.76691 0.9307 0.35519 0.0
H2449 H 0.79554 0.85295 0.36663 0.0
H2450 H 0.82528 0.82557 0.37825 0.0
H2451 H 0.82452 0.85454 0.44231 0.0
H2452 H 0.79501 0.88231 0.43093 0.0
H2453 H 0.66236 0.87771 0.37611 0.0
H2454 H 0.70043 0.89046 0.36584 0.0
H2455 H 0.71948 0.89506 0.43339 0.0
H2456 H 0.68139 0.88165 0.44381 0.0
H2457 H 0.75035 0.87246 0.41173 0.0
H2458 H 0.7133 0.94395 0.40125 0.0
H2459 H 0.6832 0.97026 0.38845 0.0
H2460 H 0.69887 0.9531 0.32235 0.0
H2461 H 0.72886 0.92643 0.33473 0.0
C2462 C 0.84369 0.89895 0.3648 0.0
C2463 C 0.84406 0.88996 0.34361 0.0
C2464 C 0.82306 0.90551 0.37429 0.0
C2465 C 0.80253 0.90299 0.36278 0.0
C2466 C 0.80311 0.89634 0.34093 0.0
C2467 C 0.82376 0.88987 0.33138 0.0
C2468 C 0.78047 0.90308 0.37436 0.0
C2469 C 0.76319 0.91811 0.36764 0.0
C2470 C 0.77596 0.88689 0.39089 0.0
C2471 C 0.79327 0.86984 0.39789 0.0
C2472 C 0.80181 0.85354 0.38316 0.0
C2473 C 0.81862 0.83796 0.3897 0.0
C2474 C 0.82684 0.83835 0.41099 0.0
C2475 C 0.81819 0.85428 0.42581 0.0
C2476 C 0.80142 0.86994 0.41933 0.0
C2477 C 0.67453 0.88165 0.38884 0.0
C2478 C 0.66891 0.87849 0.41081 0.0
C2479 C 0.69626 0.88917 0.38293 0.0
C2480 C 0.71268 0.89412 0.39886 0.0
C2481 C 0.707 0.89144 0.42084 0.0
C2482 C 0.68528 0.88367 0.42678 0.0
C2483 C 0.73635 0.89982 0.39231 0.0
C2484 C 0.75404 0.88569 0.39988 0.0
C2485 C 0.74112 0.9168 0.37653 0.0
C2486 C 0.72331 0.93311 0.36895 0.0
C2487 C 0.71027 0.9457 0.38398 0.0
C2488 C 0.69322 0.96069 0.3768 0.0
C2489 C 0.68911 0.96334 0.3546 0.0
C2490 C 0.70209 0.95104 0.33954 0.0
C2491 C 0.71915 0.93602 0.34663 0.0
H2492 H 0.67589 0.97493 0.34908 0.0
H2493 H 0.83986 0.82627 0.416 0.0
H2494 H 0.11768 0.18273 0.69295 0.0
H2495 H 0.10645 0.22039 0.67951 0.0
H2496 H 0.09432 0.19176 0.61604 0.0
H2497 H 0.10559 0.15412 0.6292 0.0
H2498 H 0.12642 0.22653 0.61677 0.0
H2499 H 0.05049 0.21269 0.64333 0.0
H2500 H 0.02162 0.20199 0.67068 0.0
H2501 H 0.04266 0.25813 0.71098 0.0
H2502 H 0.0719 0.26898 0.68401 0.0
H2503 H 0.10619 0.33083 0.56809 0.0
H2504 H 0.09482 0.29302 0.58098 0.0
H2505 H 0.10418 0.31511 0.6472 0.0
H2506 H 0.11518 0.35311 0.63448 0.0
H2507 H 0.06942 0.28295 0.64341 0.0
H2508 H 0.14833 0.29239 0.62305 0.0
H2509 H 0.17964 0.30409 0.59862 0.0
H2510 H 0.15593 0.25663 0.55036 0.0
H2511 H 0.1243 0.24484 0.57448 0.0
C2512 C 0.1123 0.18433 0.67625 0.0
C2513 C 0.11305 0.16549 0.66207 0.0
C2514 C 0.10566 0.20583 0.66865 0.0
C2515 C 0.0996 0.20876 0.6468 0.0
C2516 C 0.09895 0.18976 0.63296 0.0
C2517 C 0.10549 0.16828 0.64054 0.0
C2518 C 0.09733 0.23196 0.63767 0.0
C2519 C 0.11357 0.23868 0.6222 0.0
C2520 C 0.08117 0.24797 0.64549 0.0
C2521 C 0.06352 0.24155 0.6617 0.0
C2522 C 0.0491 0.22265 0.6581 0.0
C2523 C 0.03263 0.21658 0.67353 0.0
C2524 C 0.03034 0.22934 0.69258 0.0
C2525 C 0.04447 0.24825 0.69622 0.0
C2526 C 0.06097 0.25439 0.68085 0.0
C2527 C 0.10543 0.32778 0.58538 0.0
C2528 C 0.11219 0.34471 0.60024 0.0
C2529 C 0.09877 0.30624 0.59273 0.0
C2530 C 0.09912 0.30125 0.61499 0.0
C2531 C 0.10385 0.31868 0.62994 0.0
C2532 C 0.1103 0.34032 0.62262 0.0
C2533 C 0.09831 0.27726 0.62238 0.0
C2534 C 0.08183 0.27054 0.63766 0.0
C2535 C 0.1146 0.26123 0.61483 0.0
C2536 C 0.13383 0.26793 0.60044 0.0
C2537 C 0.14973 0.28455 0.60718 0.0
C2538 C 0.16753 0.29119 0.5934 0.0
C2539 C 0.16972 0.28117 0.57291 0.0
C2540 C 0.15418 0.26441 0.56621 0.0
C2541 C 0.13632 0.25772 0.57994 0.0
H2542 H 0.1835 0.28634 0.56224 0.0
H2543 H 0.01759 0.22461 0.7045 0.0
loop_
_geom_bond_atom_site_label_1
_geom_bond_atom_site_label_2
_geom_bond_distance
_geom_bond_site_symmetry_2
_ccdc_geom_bond_type
Co0 O3 1.970 . S
Co0 N17 1.989 . S
Co0 O25 1.967 . S
Co0 O32 1.920 . S
Co1 O4 1.966 . S
Co1 N10 2.022 . S
Co1 N18 1.993 . S
Co1 O26 1.941 . S
C2 O3 1.258 . S
C2 O4 1.263 . S
O3 Co0 1.970 . S
O3 C2 1.258 . S
O4 Co1 1.966 . S
O4 C2 1.263 . S
C5 O6 1.235 . S
C5 O32 1.289 . S
O6 C5 1.235 . S
C7 C9 1.400 . S
C7 N10 1.351 . S
C7 C12 1.501 . S
C8 C9 1.387 . S
C8 N11 1.341 . S
C9 C7 1.400 . S
C9 C8 1.387 . S
N10 Co1 2.022 . S
N10 C7 1.351 . S
N10 N11 1.365 . S
N11 C8 1.341 . S
N11 N10 1.365 . S
N11 H31 0.862 . S
C12 C7 1.501 . S
C12 H13 0.961 . S
C12 H14 0.961 . S
C12 H15 0.960 . S
H13 C12 0.961 . S
H14 C12 0.961 . S
H15 C12 0.960 . S
C16 N17 1.342 . S
C16 C20 1.401 . S
C16 C21 1.499 . S
N17 Co0 1.989 . S
N17 C16 1.342 . S
N17 N18 1.388 . S
N18 Co1 1.993 . S
N18 N17 1.388 . S
N18 C19 1.346 . S
C19 N18 1.346 . S
C19 C20 1.396 . S
C19 C29 1.510 . S
C20 C16 1.401 . S
C20 C19 1.396 . S
C21 C16 1.499 . S
C21 H22 0.959 . S
C21 H23 0.960 . S
C21 H24 0.961 . S
H22 C21 0.959 . S
H23 C21 0.960 . S
H24 C21 0.961 . S
O25 Co0 1.967 . S
O25 C33 1.258 . S
O26 Co1 1.941 . S
O26 C33 1.266 . S
H27 C29 0.959 . S
H28 C29 0.961 . S
C29 C19 1.510 . S
C29 H27 0.959 . S
C29 H28 0.961 . S
C29 H30 0.960 . S
H30 C29 0.960 . S
H31 N11 0.862 . S
O32 Co0 1.920 . S
O32 C5 1.289 . S
C33 O25 1.258 . S
C33 O26 1.266 . S
Co34 O37 1.970 . S
Co34 N51 1.989 . S
Co34 O59 1.967 . S
Co34 O66 1.920 . S
Co35 O38 1.966 . S
Co35 N44 2.022 . S
Co35 N52 1.993 . S
Co35 O60 1.941 . S
C36 O37 1.258 . S
C36 O38 1.263 . S
O37 Co34 1.970 . S
O37 C36 1.258 . S
O38 Co35 1.966 . S
O38 C36 1.263 . S
C39 O40 1.235 . S
C39 O66 1.289 . S
O40 C39 1.235 . S
C41 C43 1.400 . S
C41 N44 1.351 . S
C41 C46 1.501 . S
C42 C43 1.387 . S
C42 N45 1.341 . S
C43 C41 1.400 . S
C43 C42 1.387 . S
N44 Co35 2.022 . S
N44 C41 1.351 . S
N44 N45 1.365 . S
N45 C42 1.341 . S
N45 N44 1.365 . S
N45 H65 0.862 . S
C46 C41 1.501 . S
C46 H47 0.961 . S
C46 H48 0.961 . S
C46 H49 0.960 . S
H47 C46 0.961 . S
H48 C46 0.961 . S
H49 C46 0.960 . S
C50 N51 1.342 . S
C50 C54 1.401 . S
C50 C55 1.499 . S
N51 Co34 1.989 . S
N51 C50 1.342 . S
N51 N52 1.388 . S
N52 Co35 1.993 . S
N52 N51 1.388 . S
N52 C53 1.346 . S
C53 N52 1.346 . S
C53 C54 1.396 . S
C53 C63 1.510 . S
C54 C50 1.401 . S
C54 C53 1.396 . S
C55 C50 1.499 . S
C55 H56 0.959 . S
C55 H57 0.960 . S
C55 H58 0.961 . S
H56 C55 0.959 . S
H57 C55 0.960 . S
H58 C55 0.961 . S
O59 Co34 1.967 . S
O59 C67 1.258 . S
O60 Co35 1.941 . S
O60 C67 1.266 . S
H61 C63 0.959 . S
H62 C63 0.961 . S
C63 C53 1.510 . S
C63 H61 0.959 . S
C63 H62 0.961 . S
C63 H64 0.960 . S
H64 C63 0.960 . S
H65 N45 0.862 . S
O66 Co34 1.920 . S
O66 C39 1.289 . S
C67 O59 1.258 . S
C67 O60 1.266 . S
Co68 O71 1.970 . S
Co68 N85 1.989 . S
Co68 O93 1.967 . S
Co68 O100 1.920 . S
Co69 O72 1.966 . S
Co69 N78 2.022 . S
Co69 N86 1.993 . S
Co69 O94 1.941 . S
C70 O71 1.258 . S
C70 O72 1.263 . S
O71 Co68 1.970 . S
O71 C70 1.258 . S
O72 Co69 1.966 . S
O72 C70 1.263 . S
C73 O74 1.235 . S
C73 O100 1.289 . S
O74 C73 1.235 . S
C75 C77 1.400 . S
C75 N78 1.351 . S
C75 C80 1.501 . S
C76 C77 1.387 . S
C76 N79 1.341 . S
C77 C75 1.400 . S
C77 C76 1.387 . S
N78 Co69 2.022 . S
N78 C75 1.351 . S
N78 N79 1.365 . S
N79 C76 1.341 . S
N79 N78 1.365 . S
N79 H99 0.862 . S
C80 C75 1.501 . S
C80 H81 0.961 . S
C80 H82 0.961 . S
C80 H83 0.960 . S
H81 C80 0.961 . S
H82 C80 0.961 . S
H83 C80 0.960 . S
C84 N85 1.342 . S
C84 C88 1.401 . S
C84 C89 1.499 . S
N85 Co68 1.989 . S
N85 C84 1.342 . S
N85 N86 1.388 . S
N86 Co69 1.993 . S
N86 N85 1.388 . S
N86 C87 1.346 . S
C87 N86 1.346 . S
C87 C88 1.396 . S
C87 C97 1.510 . S
C88 C84 1.401 . S
C88 C87 1.396 . S
C89 C84 1.499 . S
C89 H90 0.959 . S
C89 H91 0.960 . S
C89 H92 0.961 . S
H90 C89 0.959 . S
H91 C89 0.960 . S
H92 C89 0.961 . S
O93 Co68 1.967 . S
O93 C101 1.258 . S
O94 Co69 1.941 . S
O94 C101 1.266 . S
H95 C97 0.959 . S
H96 C97 0.961 . S
C97 C87 1.510 . S
C97 H95 0.959 . S
C97 H96 0.961 . S
C97 H98 0.960 . S
H98 C97 0.960 . S
H99 N79 0.862 . S
O100 Co68 1.920 . S
O100 C73 1.289 . S
C101 O93 1.258 . S
C101 O94 1.266 . S
Co102 O105 1.970 . S
Co102 N119 1.989 . S
Co102 O127 1.967 . S
Co102 O134 1.920 . S
Co103 O106 1.966 . S
Co103 N112 2.022 . S
Co103 N120 1.993 . S
Co103 O128 1.941 . S
C104 O105 1.258 . S
C104 O106 1.263 . S
O105 Co102 1.970 . S
O105 C104 1.258 . S
O106 Co103 1.966 . S
O106 C104 1.263 . S
C107 O108 1.235 . S
C107 O134 1.289 . S
O108 C107 1.235 . S
C109 C111 1.400 1_554 S
C109 N112 1.351 . S
C109 C114 1.501 . S
C110 C111 1.387 . S
C110 N113 1.341 1_556 S
C111 C109 1.400 1_556 S
C111 C110 1.387 . S
N112 Co103 2.022 . S
N112 C109 1.351 . S
N112 N113 1.365 . S
N113 C110 1.341 1_554 S
N113 N112 1.365 . S
N113 H133 0.862 . S
C114 C109 1.501 . S
C114 H115 0.961 . S
C114 H116 0.961 . S
C114 H117 0.960 . S
H115 C114 0.961 . S
H116 C114 0.961 . S
H117 C114 0.960 . S
C118 N119 1.342 . S
C118 C122 1.401 . S
C118 C123 1.499 . S
N119 Co102 1.989 . S
N119 C118 1.342 . S
N119 N120 1.388 . S
N120 Co103 1.993 . S
N120 N119 1.388 . S
N120 C121 1.346 . S
C121 N120 1.346 . S
C121 C122 1.396 . S
C121 C131 1.510 . S
C122 C118 1.401 . S
C122 C121 1.396 . S
C123 C118 1.499 . S
C123 H124 0.959 . S
C123 H125 0.960 . S
C123 H126 0.961 . S
H124 C123 0.959 . S
H125 C123 0.960 . S
H126 C123 0.961 . S
O127 Co102 1.967 . S
O127 C135 1.258 . S
O128 Co103 1.941 . S
O128 C135 1.266 . S
H129 C131 0.959 . S
H130 C131 0.961 . S
C131 C121 1.510 . S
C131 H129 0.959 . S
C131 H130 0.961 . S
C131 H132 0.960 . S
H132 C131 0.960 . S
H133 N113 0.862 . S
O134 Co102 1.920 . S
O134 C107 1.289 . S
C135 O127 1.258 . S
C135 O128 1.266 . S
Co136 O139 1.970 . S
Co136 N153 1.989 . S
Co136 O161 1.967 . S
Co136 O168 1.920 . S
Co137 O140 1.966 . S
Co137 N146 2.022 . S
Co137 N154 1.993 . S
Co137 O162 1.941 . S
C138 O139 1.258 . S
C138 O140 1.263 . S
O139 Co136 1.970 . S
O139 C138 1.258 . S
O140 Co137 1.966 . S
O140 C138 1.263 . S
C141 O142 1.235 . S
C141 O168 1.289 . S
O142 C141 1.235 . S
C143 C145 1.400 1_556 S
C143 N146 1.351 . S
C143 C148 1.501 . S
C144 C145 1.387 . S
C144 N147 1.341 1_554 S
C145 C143 1.400 1_554 S
C145 C144 1.387 . S
N146 Co137 2.022 . S
N146 C143 1.351 . S
N146 N147 1.365 . S
N147 C144 1.341 1_556 S
N147 N146 1.365 . S
N147 H167 0.862 . S
C148 C143 1.501 . S
C148 H149 0.961 . S
C148 H150 0.961 . S
C148 H151 0.960 . S
H149 C148 0.961 . S
H150 C148 0.961 . S
H151 C148 0.960 . S
C152 N153 1.342 . S
C152 C156 1.401 . S
C152 C157 1.499 . S
N153 Co136 1.989 . S
N153 C152 1.342 . S
N153 N154 1.388 . S
N154 Co137 1.993 . S
N154 N153 1.388 . S
N154 C155 1.346 . S
C155 N154 1.346 . S
C155 C156 1.396 . S
C155 C165 1.510 . S
C156 C152 1.401 . S
C156 C155 1.396 . S
C157 C152 1.499 . S
C157 H158 0.959 . S
C157 H159 0.960 . S
C157 H160 0.961 . S
H158 C157 0.959 . S
H159 C157 0.960 . S
H160 C157 0.961 . S
O161 Co136 1.967 . S
O161 C169 1.258 . S
O162 Co137 1.941 . S
O162 C169 1.266 . S
H163 C165 0.959 . S
H164 C165 0.961 . S
C165 C155 1.510 . S
C165 H163 0.959 . S
C165 H164 0.961 . S
C165 H166 0.960 . S
H166 C165 0.960 . S
H167 N147 0.862 . S
O168 Co136 1.920 . S
O168 C141 1.289 . S
C169 O161 1.258 . S
C169 O162 1.266 . S
Co170 O173 1.970 . S
Co170 N187 1.989 . S
Co170 O195 1.967 . S
Co170 O202 1.920 . S
Co171 O174 1.966 . S
Co171 N180 2.022 . S
Co171 N188 1.993 . S
Co171 O196 1.941 . S
C172 O173 1.258 . S
C172 O174 1.263 . S
O173 Co170 1.970 . S
O173 C172 1.258 . S
O174 Co171 1.966 . S
O174 C172 1.263 . S
C175 O176 1.235 . S
C175 O202 1.289 . S
O176 C175 1.235 . S
C177 C179 1.400 . S
C177 N180 1.351 . S
C177 C182 1.501 . S
C178 C179 1.387 . S
C178 N181 1.341 . S
C179 C177 1.400 . S
C179 C178 1.387 . S
N180 Co171 2.022 . S
N180 C177 1.351 . S
N180 N181 1.365 . S
N181 C178 1.341 . S
N181 N180 1.365 . S
N181 H201 0.862 . S
C182 C177 1.501 . S
C182 H183 0.961 . S
C182 H184 0.961 . S
C182 H185 0.960 . S
H183 C182 0.961 . S
H184 C182 0.961 . S
H185 C182 0.960 . S
C186 N187 1.342 . S
C186 C190 1.401 . S
C186 C191 1.499 . S
N187 Co170 1.989 . S
N187 C186 1.342 . S
N187 N188 1.388 . S
N188 Co171 1.993 . S
N188 N187 1.388 . S
N188 C189 1.346 . S
C189 N188 1.346 . S
C189 C190 1.396 . S
C189 C199 1.510 . S
C190 C186 1.401 . S
C190 C189 1.396 . S
C191 C186 1.499 . S
C191 H192 0.959 . S
C191 H193 0.960 . S
C191 H194 0.961 . S
H192 C191 0.959 . S
H193 C191 0.960 . S
H194 C191 0.961 . S
O195 Co170 1.967 . S
O195 C203 1.258 . S
O196 Co171 1.941 . S
O196 C203 1.266 . S
H197 C199 0.959 . S
H198 C199 0.961 . S
C199 C189 1.510 . S
C199 H197 0.959 . S
C199 H198 0.961 . S
C199 H200 0.960 . S
H200 C199 0.960 . S
H201 N181 0.862 . S
O202 Co170 1.920 . S
O202 C175 1.289 . S
C203 O195 1.258 . S
C203 O196 1.266 . S
Co204 O207 1.970 . S
Co204 N221 1.989 . S
Co204 O229 1.967 . S
Co204 O236 1.920 . S
Co205 O208 1.966 . S
Co205 N214 2.022 . S
Co205 N222 1.993 . S
Co205 O230 1.941 . S
C206 O207 1.258 . S
C206 O208 1.263 . S
O207 Co204 1.970 . S
O207 C206 1.258 . S
O208 Co205 1.966 . S
O208 C206 1.263 . S
C209 O210 1.235 . S
C209 O236 1.289 . S
O210 C209 1.235 . S
C211 C213 1.400 . S
C211 N214 1.351 . S
C211 C216 1.501 . S
C212 C213 1.387 . S
C212 N215 1.341 . S
C213 C211 1.400 . S
C213 C212 1.387 . S
N214 Co205 2.022 . S
N214 C211 1.351 . S
N214 N215 1.365 . S
N215 C212 1.341 . S
N215 N214 1.365 . S
N215 H235 0.862 . S
C216 C211 1.501 . S
C216 H217 0.961 . S
C216 H218 0.961 . S
C216 H219 0.960 . S
H217 C216 0.961 . S
H218 C216 0.961 . S
H219 C216 0.960 . S
C220 N221 1.342 . S
C220 C224 1.401 . S
C220 C225 1.499 . S
N221 Co204 1.989 . S
N221 C220 1.342 . S
N221 N222 1.388 . S
N222 Co205 1.993 . S
N222 N221 1.388 . S
N222 C223 1.346 . S
C223 N222 1.346 . S
C223 C224 1.396 . S
C223 C233 1.510 . S
C224 C220 1.401 . S
C224 C223 1.396 . S
C225 C220 1.499 . S
C225 H226 0.959 . S
C225 H227 0.960 . S
C225 H228 0.961 . S
H226 C225 0.959 . S
H227 C225 0.960 . S
H228 C225 0.961 . S
O229 Co204 1.967 . S
O229 C237 1.258 . S
O230 Co205 1.941 . S
O230 C237 1.266 . S
H231 C233 0.959 . S
H232 C233 0.961 . S
C233 C223 1.510 . S
C233 H231 0.959 . S
C233 H232 0.961 . S
C233 H234 0.960 . S
H234 C233 0.960 . S
H235 N215 0.862 . S
O236 Co204 1.920 . S
O236 C209 1.289 . S
C237 O229 1.258 . S
C237 O230 1.266 . S
Co238 O241 1.970 . S
Co238 N255 1.989 . S
Co238 O263 1.967 . S
Co238 O270 1.920 . S
Co239 O242 1.966 . S
Co239 N248 2.022 . S
Co239 N256 1.993 . S
Co239 O264 1.941 . S
C240 O241 1.258 . S
C240 O242 1.263 . S
O241 Co238 1.970 . S
O241 C240 1.258 . S
O242 Co239 1.966 . S
O242 C240 1.263 . S
C243 O244 1.235 . S
C243 O270 1.289 . S
O244 C243 1.235 . S
C245 C247 1.400 . S
C245 N248 1.351 . S
C245 C250 1.501 . S
C246 C247 1.387 . S
C246 N249 1.341 . S
C247 C245 1.400 . S
C247 C246 1.387 . S
N248 Co239 2.022 . S
N248 C245 1.351 . S
N248 N249 1.365 . S
N249 C246 1.341 . S
N249 N248 1.365 . S
N249 H269 0.862 . S
C250 C245 1.501 . S
C250 H251 0.961 . S
C250 H252 0.961 . S
C250 H253 0.960 . S
H251 C250 0.961 . S
H252 C250 0.961 . S
H253 C250 0.960 . S
C254 N255 1.342 . S
C254 C258 1.401 . S
C254 C259 1.499 . S
N255 Co238 1.989 . S
N255 C254 1.342 . S
N255 N256 1.388 . S
N256 Co239 1.993 . S
N256 N255 1.388 . S
N256 C257 1.346 . S
C257 N256 1.346 . S
C257 C258 1.396 . S
C257 C267 1.510 . S
C258 C254 1.401 . S
C258 C257 1.396 . S
C259 C254 1.499 . S
C259 H260 0.959 . S
C259 H261 0.960 . S
C259 H262 0.961 . S
H260 C259 0.959 . S
H261 C259 0.960 . S
H262 C259 0.961 . S
O263 Co238 1.967 . S
O263 C271 1.258 . S
O264 Co239 1.941 . S
O264 C271 1.266 . S
H265 C267 0.959 . S
H266 C267 0.961 . S
C267 C257 1.510 . S
C267 H265 0.959 . S
C267 H266 0.961 . S
C267 H268 0.960 . S
H268 C267 0.960 . S
H269 N249 0.862 . S
O270 Co238 1.920 . S
O270 C243 1.289 . S
C271 O263 1.258 . S
C271 O264 1.266 . S
Co272 O275 1.970 . S
Co272 N289 1.989 . S
Co272 O297 1.967 . S
Co272 O304 1.920 . S
Co273 O276 1.966 . S
Co273 N282 2.022 . S
Co273 N290 1.993 . S
Co273 O298 1.941 . S
C274 O275 1.258 . S
C274 O276 1.263 . S
O275 Co272 1.970 . S
O275 C274 1.258 . S
O276 Co273 1.966 . S
O276 C274 1.263 . S
C277 O278 1.235 . S
C277 O304 1.289 . S
O278 C277 1.235 . S
C279 C281 1.400 . S
C279 N282 1.351 . S
C279 C284 1.501 . S
C280 C281 1.387 . S
C280 N283 1.341 . S
C281 C279 1.400 . S
C281 C280 1.387 . S
N282 Co273 2.022 . S
N282 C279 1.351 . S
N282 N283 1.365 . S
N283 C280 1.341 . S
N283 N282 1.365 . S
N283 H303 0.862 . S
C284 C279 1.501 . S
C284 H285 0.961 . S
C284 H286 0.961 . S
C284 H287 0.960 . S
H285 C284 0.961 . S
H286 C284 0.961 . S
H287 C284 0.960 . S
C288 N289 1.342 . S
C288 C292 1.401 . S
C288 C293 1.499 . S
N289 Co272 1.989 . S
N289 C288 1.342 . S
N289 N290 1.388 . S
N290 Co273 1.993 . S
N290 N289 1.388 . S
N290 C291 1.346 . S
C291 N290 1.346 . S
C291 C292 1.396 . S
C291 C301 1.510 . S
C292 C288 1.401 . S
C292 C291 1.396 . S
C293 C288 1.499 . S
C293 H294 0.959 . S
C293 H295 0.960 . S
C293 H296 0.961 . S
H294 C293 0.959 . S
H295 C293 0.960 . S
H296 C293 0.961 . S
O297 Co272 1.967 . S
O297 C305 1.258 . S
O298 Co273 1.941 . S
O298 C305 1.266 . S
H299 C301 0.959 . S
H300 C301 0.961 . S
C301 C291 1.510 . S
C301 H299 0.959 . S
C301 H300 0.961 . S
C301 H302 0.960 . S
H302 C301 0.960 . S
H303 N283 0.862 . S
O304 Co272 1.920 . S
O304 C277 1.289 . S
C305 O297 1.258 . S
C305 O298 1.266 . S
Co306 O309 1.970 . S
Co306 N323 1.989 . S
Co306 O331 1.967 . S
Co306 O338 1.920 . S
Co307 O310 1.966 . S
Co307 N316 2.022 . S
Co307 N324 1.993 . S
Co307 O332 1.941 . S
C308 O309 1.258 . S
C308 O310 1.263 . S
O309 Co306 1.970 . S
O309 C308 1.258 . S
O310 Co307 1.966 . S
O310 C308 1.263 . S
C311 O312 1.235 . S
C311 O338 1.289 . S
O312 C311 1.235 . S
C313 C315 1.400 1_554 S
C313 N316 1.351 . S
C313 C318 1.501 . S
C314 C315 1.387 . S
C314 N317 1.341 1_556 S
C315 C313 1.400 1_556 S
C315 C314 1.387 . S
N316 Co307 2.022 . S
N316 C313 1.351 . S
N316 N317 1.365 . S
N317 C314 1.341 1_554 S
N317 N316 1.365 . S
N317 H337 0.862 . S
C318 C313 1.501 . S
C318 H319 0.961 . S
C318 H320 0.961 . S
C318 H321 0.960 . S
H319 C318 0.961 . S
H320 C318 0.961 . S
H321 C318 0.960 . S
C322 N323 1.342 . S
C322 C326 1.401 . S
C322 C327 1.499 . S
N323 Co306 1.989 . S
N323 C322 1.342 . S
N323 N324 1.388 . S
N324 Co307 1.993 . S
N324 N323 1.388 . S
N324 C325 1.346 . S
C325 N324 1.346 . S
C325 C326 1.396 . S
C325 C335 1.510 . S
C326 C322 1.401 . S
C326 C325 1.396 . S
C327 C322 1.499 . S
C327 H328 0.959 . S
C327 H329 0.960 . S
C327 H330 0.961 . S
H328 C327 0.959 . S
H329 C327 0.960 . S
H330 C327 0.961 . S
O331 Co306 1.967 . S
O331 C339 1.258 . S
O332 Co307 1.941 . S
O332 C339 1.266 . S
H333 C335 0.959 . S
H334 C335 0.961 . S
C335 C325 1.510 . S
C335 H333 0.959 . S
C335 H334 0.961 . S
C335 H336 0.960 . S
H336 C335 0.960 . S
H337 N317 0.862 . S
O338 Co306 1.920 . S
O338 C311 1.289 . S
C339 O331 1.258 . S
C339 O332 1.266 . S
Co340 O343 1.970 . S
Co340 N357 1.989 . S
Co340 O365 1.967 . S
Co340 O372 1.920 . S
Co341 O344 1.966 . S
Co341 N350 2.022 . S
Co341 N358 1.993 . S
Co341 O366 1.941 . S
C342 O343 1.258 . S
C342 O344 1.263 . S
O343 Co340 1.970 . S
O343 C342 1.258 . S
O344 Co341 1.966 . S
O344 C342 1.263 . S
C345 O346 1.235 . S
C345 O372 1.289 . S
O346 C345 1.235 . S
C347 C349 1.400 . S
C347 N350 1.351 . S
C347 C352 1.501 . S
C348 C349 1.387 . S
C348 N351 1.341 . S
C349 C347 1.400 . S
C349 C348 1.387 . S
N350 Co341 2.022 . S
N350 C347 1.351 . S
N350 N351 1.365 . S
N351 C348 1.341 . S
N351 N350 1.365 . S
N351 H371 0.862 . S
C352 C347 1.501 . S
C352 H353 0.961 . S
C352 H354 0.961 . S
C352 H355 0.960 . S
H353 C352 0.961 . S
H354 C352 0.961 . S
H355 C352 0.960 . S
C356 N357 1.342 . S
C356 C360 1.401 . S
C356 C361 1.499 . S
N357 Co340 1.989 . S
N357 C356 1.342 . S
N357 N358 1.388 . S
N358 Co341 1.993 . S
N358 N357 1.388 . S
N358 C359 1.346 . S
C359 N358 1.346 . S
C359 C360 1.396 . S
C359 C369 1.510 . S
C360 C356 1.401 . S
C360 C359 1.396 . S
C361 C356 1.499 . S
C361 H362 0.959 . S
C361 H363 0.960 . S
C361 H364 0.961 . S
H362 C361 0.959 . S
H363 C361 0.960 . S
H364 C361 0.961 . S
O365 Co340 1.967 . S
O365 C373 1.258 . S
O366 Co341 1.941 . S
O366 C373 1.266 . S
H367 C369 0.959 . S
H368 C369 0.961 . S
C369 C359 1.510 . S
C369 H367 0.959 . S
C369 H368 0.961 . S
C369 H370 0.960 . S
H370 C369 0.960 . S
H371 N351 0.862 . S
O372 Co340 1.920 . S
O372 C345 1.289 . S
C373 O365 1.258 . S
C373 O366 1.266 . S
Co374 O377 1.970 . S
Co374 N391 1.989 . S
Co374 O399 1.967 . S
Co374 O406 1.920 . S
Co375 O378 1.966 . S
Co375 N384 2.022 . S
Co375 N392 1.993 . S
Co375 O400 1.941 . S
C376 O377 1.258 . S
C376 O378 1.263 . S
O377 Co374 1.970 . S
O377 C376 1.258 . S
O378 Co375 1.966 . S
O378 C376 1.263 . S
C379 O380 1.235 . S
C379 O406 1.289 . S
O380 C379 1.235 . S
C381 C383 1.400 . S
C381 N384 1.351 . S
C381 C386 1.501 . S
C382 C383 1.387 . S
C382 N385 1.341 . S
C383 C381 1.400 . S
C383 C382 1.387 . S
N384 Co375 2.022 . S
N384 C381 1.351 . S
N384 N385 1.365 . S
N385 C382 1.341 . S
N385 N384 1.365 . S
N385 H405 0.862 . S
C386 C381 1.501 . S
C386 H387 0.961 . S
C386 H388 0.961 . S
C386 H389 0.960 . S
H387 C386 0.961 . S
H388 C386 0.961 . S
H389 C386 0.960 . S
C390 N391 1.342 . S
C390 C394 1.401 . S
C390 C395 1.499 . S
N391 Co374 1.989 . S
N391 C390 1.342 . S
N391 N392 1.388 . S
N392 Co375 1.993 . S
N392 N391 1.388 . S
N392 C393 1.346 . S
C393 N392 1.346 . S
C393 C394 1.396 . S
C393 C403 1.510 . S
C394 C390 1.401 . S
C394 C393 1.396 . S
C395 C390 1.499 . S
C395 H396 0.959 . S
C395 H397 0.960 . S
C395 H398 0.961 . S
H396 C395 0.959 . S
H397 C395 0.960 . S
H398 C395 0.961 . S
O399 Co374 1.967 . S
O399 C407 1.258 . S
O400 Co375 1.941 . S
O400 C407 1.266 . S
H401 C403 0.959 . S
H402 C403 0.961 . S
C403 C393 1.510 . S
C403 H401 0.959 . S
C403 H402 0.961 . S
C403 H404 0.960 . S
H404 C403 0.960 . S
H405 N385 0.862 . S
O406 Co374 1.920 . S
O406 C379 1.289 . S
C407 O399 1.258 . S
C407 O400 1.266 . S
Co408 O411 1.970 . S
Co408 N425 1.989 . S
Co408 O433 1.967 . S
Co408 O440 1.920 . S
Co409 O412 1.966 . S
Co409 N418 2.022 . S
Co409 N426 1.993 . S
Co409 O434 1.941 . S
C410 O411 1.258 . S
C410 O412 1.263 . S
O411 Co408 1.970 . S
O411 C410 1.258 . S
O412 Co409 1.966 . S
O412 C410 1.263 . S
C413 O414 1.235 . S
C413 O440 1.289 . S
O414 C413 1.235 . S
C415 C417 1.400 . S
C415 N418 1.351 . S
C415 C420 1.501 . S
C416 C417 1.387 . S
C416 N419 1.341 . S
C417 C415 1.400 . S
C417 C416 1.387 . S
N418 Co409 2.022 . S
N418 C415 1.351 . S
N418 N419 1.365 . S
N419 C416 1.341 . S
N419 N418 1.365 . S
N419 H439 0.862 . S
C420 C415 1.501 . S
C420 H421 0.961 . S
C420 H422 0.961 . S
C420 H423 0.960 . S
H421 C420 0.961 . S
H422 C420 0.961 . S
H423 C420 0.960 . S
C424 N425 1.342 . S
C424 C428 1.401 . S
C424 C429 1.499 . S
N425 Co408 1.989 . S
N425 C424 1.342 . S
N425 N426 1.388 . S
N426 Co409 1.993 . S
N426 N425 1.388 . S
N426 C427 1.346 . S
C427 N426 1.346 . S
C427 C428 1.396 . S
C427 C437 1.510 . S
C428 C424 1.401 . S
C428 C427 1.396 . S
C429 C424 1.499 . S
C429 H430 0.959 . S
C429 H431 0.960 . S
C429 H432 0.961 . S
H430 C429 0.959 . S
H431 C429 0.960 . S
H432 C429 0.961 . S
O433 Co408 1.967 . S
O433 C441 1.258 . S
O434 Co409 1.941 . S
O434 C441 1.266 . S
H435 C437 0.959 . S
H436 C437 0.961 . S
C437 C427 1.510 . S
C437 H435 0.959 . S
C437 H436 0.961 . S
C437 H438 0.960 . S
H438 C437 0.960 . S
H439 N419 0.862 . S
O440 Co408 1.920 . S
O440 C413 1.289 . S
C441 O433 1.258 . S
C441 O434 1.266 . S
Co442 O445 1.970 . S
Co442 N459 1.989 . S
Co442 O467 1.967 . S
Co442 O474 1.920 . S
Co443 O446 1.966 . S
Co443 N452 2.022 . S
Co443 N460 1.993 . S
Co443 O468 1.941 . S
C444 O445 1.258 . S
C444 O446 1.263 . S
O445 Co442 1.970 . S
O445 C444 1.258 . S
O446 Co443 1.966 . S
O446 C444 1.263 . S
C447 O448 1.235 . S
C447 O474 1.289 . S
O448 C447 1.235 . S
C449 C451 1.400 . S
C449 N452 1.351 . S
C449 C454 1.501 . S
C450 C451 1.387 . S
C450 N453 1.341 . S
C451 C449 1.400 . S
C451 C450 1.387 . S
N452 Co443 2.022 . S
N452 C449 1.351 . S
N452 N453 1.365 . S
N453 C450 1.341 . S
N453 N452 1.365 . S
N453 H473 0.862 . S
C454 C449 1.501 . S
C454 H455 0.961 . S
C454 H456 0.961 . S
C454 H457 0.960 . S
H455 C454 0.961 . S
H456 C454 0.961 . S
H457 C454 0.960 . S
C458 N459 1.342 . S
C458 C462 1.401 . S
C458 C463 1.499 . S
N459 Co442 1.989 . S
N459 C458 1.342 . S
N459 N460 1.388 . S
N460 Co443 1.993 . S
N460 N459 1.388 . S
N460 C461 1.346 . S
C461 N460 1.346 . S
C461 C462 1.396 . S
C461 C471 1.510 . S
C462 C458 1.401 . S
C462 C461 1.396 . S
C463 C458 1.499 . S
C463 H464 0.959 . S
C463 H465 0.960 . S
C463 H466 0.961 . S
H464 C463 0.959 . S
H465 C463 0.960 . S
H466 C463 0.961 . S
O467 Co442 1.967 . S
O467 C475 1.258 . S
O468 Co443 1.941 . S
O468 C475 1.266 . S
H469 C471 0.959 . S
H470 C471 0.961 . S
C471 C461 1.510 . S
C471 H469 0.959 . S
C471 H470 0.961 . S
C471 H472 0.960 . S
H472 C471 0.960 . S
H473 N453 0.862 . S
O474 Co442 1.920 . S
O474 C447 1.289 . S
C475 O467 1.258 . S
C475 O468 1.266 . S
Co476 O479 1.970 . S
Co476 N493 1.989 . S
Co476 O501 1.967 . S
Co476 O508 1.920 . S
Co477 O480 1.966 . S
Co477 N486 2.022 . S
Co477 N494 1.993 . S
Co477 O502 1.941 . S
C478 O479 1.258 . S
C478 O480 1.263 . S
O479 Co476 1.970 . S
O479 C478 1.258 . S
O480 Co477 1.966 . S
O480 C478 1.263 . S
C481 O482 1.235 . S
C481 O508 1.289 . S
O482 C481 1.235 . S
C483 C485 1.400 1_556 S
C483 N486 1.351 . S
C483 C488 1.501 . S
C484 C485 1.387 . S
C484 N487 1.341 1_554 S
C485 C483 1.400 1_554 S
C485 C484 1.387 . S
N486 Co477 2.022 . S
N486 C483 1.351 . S
N486 N487 1.365 . S
N487 C484 1.341 1_556 S
N487 N486 1.365 . S
N487 H507 0.862 . S
C488 C483 1.501 . S
C488 H489 0.961 . S
C488 H490 0.961 . S
C488 H491 0.960 . S
H489 C488 0.961 . S
H490 C488 0.961 . S
H491 C488 0.960 . S
C492 N493 1.342 . S
C492 C496 1.401 . S
C492 C497 1.499 . S
N493 Co476 1.989 . S
N493 C492 1.342 . S
N493 N494 1.388 . S
N494 Co477 1.993 . S
N494 N493 1.388 . S
N494 C495 1.346 . S
C495 N494 1.346 . S
C495 C496 1.396 . S
C495 C505 1.510 . S
C496 C492 1.401 . S
C496 C495 1.396 . S
C497 C492 1.499 . S
C497 H498 0.959 . S
C497 H499 0.960 . S
C497 H500 0.961 . S
H498 C497 0.959 . S
H499 C497 0.960 . S
H500 C497 0.961 . S
O501 Co476 1.967 . S
O501 C509 1.258 . S
O502 Co477 1.941 . S
O502 C509 1.266 . S
H503 C505 0.959 . S
H504 C505 0.961 . S
C505 C495 1.510 . S
C505 H503 0.959 . S
C505 H504 0.961 . S
C505 H506 0.960 . S
H506 C505 0.960 . S
H507 N487 0.862 . S
O508 Co476 1.920 . S
O508 C481 1.289 . S
C509 O501 1.258 . S
C509 O502 1.266 . S
Co510 O513 1.970 . S
Co510 N527 1.989 . S
Co510 O535 1.967 . S
Co510 O542 1.920 . S
Co511 O514 1.966 . S
Co511 N520 2.022 . S
Co511 N528 1.993 . S
Co511 O536 1.941 . S
C512 O513 1.258 . S
C512 O514 1.263 . S
O513 Co510 1.970 . S
O513 C512 1.258 . S
O514 Co511 1.966 . S
O514 C512 1.263 . S
C515 O516 1.235 . S
C515 O542 1.289 . S
O516 C515 1.235 . S
C517 C519 1.400 . S
C517 N520 1.351 . S
C517 C522 1.501 . S
C518 C519 1.387 . S
C518 N521 1.341 . S
C519 C517 1.400 . S
C519 C518 1.387 . S
N520 Co511 2.022 . S
N520 C517 1.351 . S
N520 N521 1.365 . S
N521 C518 1.341 . S
N521 N520 1.365 . S
N521 H541 0.862 . S
C522 C517 1.501 . S
C522 H523 0.961 . S
C522 H524 0.961 . S
C522 H525 0.960 . S
H523 C522 0.961 . S
H524 C522 0.961 . S
H525 C522 0.960 . S
C526 N527 1.342 . S
C526 C530 1.401 . S
C526 C531 1.499 . S
N527 Co510 1.989 . S
N527 C526 1.342 . S
N527 N528 1.388 . S
N528 Co511 1.993 . S
N528 N527 1.388 . S
N528 C529 1.346 . S
C529 N528 1.346 . S
C529 C530 1.396 . S
C529 C539 1.510 . S
C530 C526 1.401 . S
C530 C529 1.396 . S
C531 C526 1.499 . S
C531 H532 0.959 . S
C531 H533 0.960 . S
C531 H534 0.961 . S
H532 C531 0.959 . S
H533 C531 0.960 . S
H534 C531 0.961 . S
O535 Co510 1.967 . S
O535 C543 1.258 . S
O536 Co511 1.941 . S
O536 C543 1.266 . S
H537 C539 0.959 . S
H538 C539 0.961 . S
C539 C529 1.510 . S
C539 H537 0.959 . S
C539 H538 0.961 . S
C539 H540 0.960 . S
H540 C539 0.960 . S
H541 N521 0.862 . S
O542 Co510 1.920 . S
O542 C515 1.289 . S
C543 O535 1.258 . S
C543 O536 1.266 . S
H544 C562 0.951 . S
H545 C564 0.951 . S
H546 C566 0.950 . S
H547 C567 0.950 . S
H548 C569 0.950 . S
H549 C572 0.950 . S
H550 C573 0.950 . S
H551 C575 0.950 . S
H552 C576 0.950 . S
H553 C577 0.951 . S
H554 C579 0.951 . S
H555 C581 0.950 . S
H556 C582 0.950 . S
H557 C584 0.950 . S
H558 C587 0.950 . S
H559 C588 0.950 . S
H560 C590 0.950 . S
H561 C591 0.950 . S
C562 H544 0.951 . S
C562 C563 1.366 . S
C562 C564 1.388 . S
C563 C562 1.366 . S
C563 C567 1.385 . S
C564 H545 0.951 . S
C564 C562 1.388 . S
C564 C565 1.366 . S
C565 C564 1.366 . S
C565 C566 1.414 . S
C565 C568 1.499 . S
C566 H546 0.950 . S
C566 C565 1.414 . S
C566 C567 1.374 . S
C567 H547 0.950 . S
C567 C563 1.385 . S
C567 C566 1.374 . S
C568 C565 1.499 . S
C568 C569 1.373 . S
C568 C570 1.389 . S
C569 H548 0.950 . S
C569 C568 1.373 . S
C569 C585 1.377 . S
C570 C568 1.389 . S
C570 C571 1.524 . S
C570 C584 1.377 . S
C571 C570 1.524 . S
C571 C572 1.397 . S
C571 C576 1.363 . S
C572 H549 0.950 . S
C572 C571 1.397 . S
C572 C573 1.334 . S
C573 H550 0.950 . S
C573 C572 1.334 . S
C573 C574 1.287 . S
C574 C573 1.287 . S
C574 C575 1.524 . S
C574 H593 0.913 . S
C575 H551 0.950 . S
C575 C574 1.524 . S
C575 C576 1.415 . S
C576 H552 0.950 . S
C576 C571 1.363 . S
C576 C575 1.415 . S
C577 H553 0.951 . S
C577 C578 1.366 . S
C577 C579 1.388 . S
C578 C577 1.366 . S
C578 C582 1.385 . S
C579 H554 0.951 . S
C579 C577 1.388 . S
C579 C580 1.366 . S
C580 C579 1.366 . S
C580 C581 1.414 . S
C580 C583 1.499 . S
C581 H555 0.950 . S
C581 C580 1.414 . S
C581 C582 1.374 . S
C582 H556 0.950 . S
C582 C578 1.385 . S
C582 C581 1.374 . S
C583 C580 1.499 . S
C583 C584 1.373 . S
C583 C585 1.389 . S
C584 H557 0.950 . S
C584 C570 1.377 . S
C584 C583 1.373 . S
C585 C569 1.377 . S
C585 C583 1.389 . S
C585 C586 1.524 . S
C586 C585 1.524 . S
C586 C587 1.397 . S
C586 C591 1.363 . S
C587 H558 0.950 . S
C587 C586 1.397 . S
C587 C588 1.334 . S
C588 H559 0.950 . S
C588 C587 1.334 . S
C588 C589 1.287 . S
C589 C588 1.287 . S
C589 C590 1.524 . S
C589 H592 0.999 . S
C590 H560 0.950 . S
C590 C589 1.524 . S
C590 C591 1.415 . S
C591 H561 0.950 . S
C591 C586 1.363 . S
C591 C590 1.415 . S
H592 C589 0.999 . S
H593 C574 0.913 . S
H594 C612 0.951 . S
H595 C614 0.951 . S
H596 C616 0.950 . S
H597 C617 0.950 . S
H598 C619 0.950 . S
H599 C622 0.950 . S
H600 C623 0.950 . S
H601 C625 0.950 . S
H602 C626 0.950 . S
H603 C627 0.951 . S
H604 C629 0.951 . S
H605 C631 0.950 . S
H606 C632 0.950 . S
H607 C634 0.950 . S
H608 C637 0.950 . S
H609 C638 0.950 . S
H610 C640 0.950 . S
H611 C641 0.950 . S
C612 H594 0.951 . S
C612 C613 1.366 . S
C612 C614 1.388 . S
C613 C612 1.366 . S
C613 C617 1.385 . S
C614 H595 0.951 . S
C614 C612 1.388 . S
C614 C615 1.366 . S
C615 C614 1.366 . S
C615 C616 1.414 . S
C615 C618 1.499 . S
C616 H596 0.950 . S
C616 C615 1.414 . S
C616 C617 1.374 . S
C617 H597 0.950 . S
C617 C613 1.385 . S
C617 C616 1.374 . S
C618 C615 1.499 . S
C618 C619 1.373 . S
C618 C620 1.389 . S
C619 H598 0.950 . S
C619 C618 1.373 . S
C619 C635 1.377 . S
C620 C618 1.389 . S
C620 C621 1.524 . S
C620 C634 1.377 . S
C621 C620 1.524 . S
C621 C622 1.397 . S
C621 C626 1.363 . S
C622 H599 0.950 . S
C622 C621 1.397 . S
C622 C623 1.334 . S
C623 H600 0.950 . S
C623 C622 1.334 . S
C623 C624 1.287 . S
C624 C623 1.287 . S
C624 C625 1.524 . S
C624 H643 0.913 . S
C625 H601 0.950 . S
C625 C624 1.524 . S
C625 C626 1.415 . S
C626 H602 0.950 . S
C626 C621 1.363 . S
C626 C625 1.415 . S
C627 H603 0.951 . S
C627 C628 1.366 . S
C627 C629 1.388 . S
C628 C627 1.366 . S
C628 C632 1.385 . S
C629 H604 0.951 . S
C629 C627 1.388 . S
C629 C630 1.366 . S
C630 C629 1.366 . S
C630 C631 1.414 . S
C630 C633 1.499 . S
C631 H605 0.950 . S
C631 C630 1.414 . S
C631 C632 1.374 . S
C632 H606 0.950 . S
C632 C628 1.385 . S
C632 C631 1.374 . S
C633 C630 1.499 . S
C633 C634 1.373 . S
C633 C635 1.389 . S
C634 H607 0.950 . S
C634 C620 1.377 . S
C634 C633 1.373 . S
C635 C619 1.377 . S
C635 C633 1.389 . S
C635 C636 1.524 . S
C636 C635 1.524 . S
C636 C637 1.397 . S
C636 C641 1.363 . S
C637 H608 0.950 . S
C637 C636 1.397 . S
C637 C638 1.334 . S
C638 H609 0.950 . S
C638 C637 1.334 . S
C638 C639 1.287 . S
C639 C638 1.287 . S
C639 C640 1.524 . S
C639 H642 0.999 . S
C640 H610 0.950 . S
C640 C639 1.524 . S
C640 C641 1.415 . S
C641 H611 0.950 . S
C641 C636 1.363 . S
C641 C640 1.415 . S
H642 C639 0.999 . S
H643 C624 0.913 . S
H644 C662 0.951 . S
H645 C664 0.951 . S
H646 C666 0.950 . S
H647 C667 0.950 . S
H648 C669 0.950 . S
H649 C672 0.950 . S
H650 C673 0.950 . S
H651 C675 0.950 . S
H652 C676 0.950 . S
H653 C677 0.951 . S
H654 C679 0.951 . S
H655 C681 0.950 . S
H656 C682 0.950 . S
H657 C684 0.950 . S
H658 C687 0.950 . S
H659 C688 0.950 . S
H660 C690 0.950 . S
H661 C691 0.950 . S
C662 H644 0.951 . S
C662 C663 1.366 . S
C662 C664 1.388 . S
C663 C662 1.366 . S
C663 C667 1.385 . S
C664 H645 0.951 . S
C664 C662 1.388 . S
C664 C665 1.366 . S
C665 C664 1.366 . S
C665 C666 1.414 . S
C665 C668 1.499 . S
C666 H646 0.950 . S
C666 C665 1.414 . S
C666 C667 1.374 . S
C667 H647 0.950 . S
C667 C663 1.385 . S
C667 C666 1.374 . S
C668 C665 1.499 . S
C668 C669 1.373 . S
C668 C670 1.389 . S
C669 H648 0.950 . S
C669 C668 1.373 . S
C669 C685 1.377 1_554 S
C670 C668 1.389 . S
C670 C671 1.524 . S
C670 C684 1.377 1_554 S
C671 C670 1.524 . S
C671 C672 1.397 . S
C671 C676 1.363 . S
C672 H649 0.950 . S
C672 C671 1.397 . S
C672 C673 1.334 . S
C673 H650 0.950 . S
C673 C672 1.334 . S
C673 C674 1.287 . S
C674 C673 1.287 . S
C674 C675 1.524 . S
C674 H693 0.913 . S
C675 H651 0.950 . S
C675 C674 1.524 . S
C675 C676 1.415 . S
C676 H652 0.950 . S
C676 C671 1.363 . S
C676 C675 1.415 . S
C677 H653 0.951 . S
C677 C678 1.366 . S
C677 C679 1.388 . S
C678 C677 1.366 . S
C678 C682 1.385 . S
C679 H654 0.951 . S
C679 C677 1.388 . S
C679 C680 1.366 . S
C680 C679 1.366 . S
C680 C681 1.414 . S
C680 C683 1.499 . S
C681 H655 0.950 . S
C681 C680 1.414 . S
C681 C682 1.374 . S
C682 H656 0.950 . S
C682 C678 1.385 . S
C682 C681 1.374 . S
C683 C680 1.499 . S
C683 C684 1.373 . S
C683 C685 1.389 . S
C684 H657 0.950 . S
C684 C670 1.377 1_556 S
C684 C683 1.373 . S
C685 C669 1.377 1_556 S
C685 C683 1.389 . S
C685 C686 1.524 . S
C686 C685 1.524 . S
C686 C687 1.397 . S
C686 C691 1.363 . S
C687 H658 0.950 . S
C687 C686 1.397 . S
C687 C688 1.334 . S
C688 H659 0.950 . S
C688 C687 1.334 . S
C688 C689 1.287 . S
C689 C688 1.287 . S
C689 C690 1.524 . S
C689 H692 0.999 . S
C690 H660 0.950 . S
C690 C689 1.524 . S
C690 C691 1.415 . S
C691 H661 0.950 . S
C691 C686 1.363 . S
C691 C690 1.415 . S
H692 C689 0.999 . S
H693 C674 0.913 . S
H694 C712 0.951 . S
H695 C714 0.951 . S
H696 C716 0.950 . S
H697 C717 0.950 . S
H698 C719 0.950 . S
H699 C722 0.950 . S
H700 C723 0.950 . S
H701 C725 0.950 . S
H702 C726 0.950 . S
H703 C727 0.951 . S
H704 C729 0.951 . S
H705 C731 0.950 . S
H706 C732 0.950 . S
H707 C734 0.950 . S
H708 C737 0.950 . S
H709 C738 0.950 . S
H710 C740 0.950 . S
H711 C741 0.950 . S
C712 H694 0.951 . S
C712 C713 1.366 . S
C712 C714 1.388 . S
C713 C712 1.366 . S
C713 C717 1.385 . S
C714 H695 0.951 . S
C714 C712 1.388 . S
C714 C715 1.366 . S
C715 C714 1.366 . S
C715 C716 1.414 . S
C715 C718 1.499 . S
C716 H696 0.950 . S
C716 C715 1.414 . S
C716 C717 1.374 . S
C717 H697 0.950 . S
C717 C713 1.385 . S
C717 C716 1.374 . S
C718 C715 1.499 . S
C718 C719 1.373 . S
C718 C720 1.389 . S
C719 H698 0.950 . S
C719 C718 1.373 . S
C719 C735 1.377 . S
C720 C718 1.389 . S
C720 C721 1.524 . S
C720 C734 1.377 . S
C721 C720 1.524 . S
C721 C722 1.397 . S
C721 C726 1.363 . S
C722 H699 0.950 . S
C722 C721 1.397 . S
C722 C723 1.334 . S
C723 H700 0.950 . S
C723 C722 1.334 . S
C723 C724 1.287 . S
C724 C723 1.287 . S
C724 C725 1.524 . S
C724 H743 0.913 . S
C725 H701 0.950 . S
C725 C724 1.524 . S
C725 C726 1.415 . S
C726 H702 0.950 . S
C726 C721 1.363 . S
C726 C725 1.415 . S
C727 H703 0.951 . S
C727 C728 1.366 . S
C727 C729 1.388 . S
C728 C727 1.366 . S
C728 C732 1.385 . S
C729 H704 0.951 . S
C729 C727 1.388 . S
C729 C730 1.366 . S
C730 C729 1.366 . S
C730 C731 1.414 . S
C730 C733 1.499 . S
C731 H705 0.950 . S
C731 C730 1.414 . S
C731 C732 1.374 . S
C732 H706 0.950 . S
C732 C728 1.385 . S
C732 C731 1.374 . S
C733 C730 1.499 . S
C733 C734 1.373 . S
C733 C735 1.389 . S
C734 H707 0.950 . S
C734 C720 1.377 . S
C734 C733 1.373 . S
C735 C719 1.377 . S
C735 C733 1.389 . S
C735 C736 1.524 . S
C736 C735 1.524 . S
C736 C737 1.397 . S
C736 C741 1.363 . S
C737 H708 0.950 . S
C737 C736 1.397 . S
C737 C738 1.334 . S
C738 H709 0.950 . S
C738 C737 1.334 . S
C738 C739 1.287 . S
C739 C738 1.287 . S
C739 C740 1.524 . S
C739 H742 0.999 . S
C740 H710 0.950 . S
C740 C739 1.524 . S
C740 C741 1.415 . S
C741 H711 0.950 . S
C741 C736 1.363 . S
C741 C740 1.415 . S
H742 C739 0.999 . S
H743 C724 0.913 . S
H744 C762 0.951 . S
H745 C764 0.951 . S
H746 C766 0.950 . S
H747 C767 0.950 . S
H748 C769 0.950 . S
H749 C772 0.950 . S
H750 C773 0.950 . S
H751 C775 0.950 . S
H752 C776 0.950 . S
H753 C777 0.951 . S
H754 C779 0.951 . S
H755 C781 0.950 . S
H756 C782 0.950 . S
H757 C784 0.950 . S
H758 C787 0.950 . S
H759 C788 0.950 . S
H760 C790 0.950 . S
H761 C791 0.950 . S
C762 H744 0.951 . S
C762 C763 1.366 . S
C762 C764 1.388 . S
C763 C762 1.366 . S
C763 C767 1.385 . S
C764 H745 0.951 . S
C764 C762 1.388 . S
C764 C765 1.366 . S
C765 C764 1.366 . S
C765 C766 1.414 . S
C765 C768 1.499 . S
C766 H746 0.950 . S
C766 C765 1.414 . S
C766 C767 1.374 . S
C767 H747 0.950 . S
C767 C763 1.385 . S
C767 C766 1.374 . S
C768 C765 1.499 . S
C768 C769 1.373 . S
C768 C770 1.389 . S
C769 H748 0.950 . S
C769 C768 1.373 . S
C769 C785 1.377 . S
C770 C768 1.389 . S
C770 C771 1.524 . S
C770 C784 1.377 . S
C771 C770 1.524 . S
C771 C772 1.397 . S
C771 C776 1.363 . S
C772 H749 0.950 . S
C772 C771 1.397 . S
C772 C773 1.334 . S
C773 H750 0.950 . S
C773 C772 1.334 . S
C773 C774 1.287 . S
C774 C773 1.287 . S
C774 C775 1.524 . S
C774 H793 0.913 . S
C775 H751 0.950 . S
C775 C774 1.524 . S
C775 C776 1.415 . S
C776 H752 0.950 . S
C776 C771 1.363 . S
C776 C775 1.415 . S
C777 H753 0.951 . S
C777 C778 1.366 . S
C777 C779 1.388 . S
C778 C777 1.366 . S
C778 C782 1.385 . S
C779 H754 0.951 . S
C779 C777 1.388 . S
C779 C780 1.366 . S
C780 C779 1.366 . S
C780 C781 1.414 . S
C780 C783 1.499 . S
C781 H755 0.950 . S
C781 C780 1.414 . S
C781 C782 1.374 . S
C782 H756 0.950 . S
C782 C778 1.385 . S
C782 C781 1.374 . S
C783 C780 1.499 . S
C783 C784 1.373 . S
C783 C785 1.389 . S
C784 H757 0.950 . S
C784 C770 1.377 . S
C784 C783 1.373 . S
C785 C769 1.377 . S
C785 C783 1.389 . S
C785 C786 1.524 . S
C786 C785 1.524 . S
C786 C787 1.397 . S
C786 C791 1.363 . S
C787 H758 0.950 . S
C787 C786 1.397 . S
C787 C788 1.334 . S
C788 H759 0.950 . S
C788 C787 1.334 . S
C788 C789 1.287 . S
C789 C788 1.287 . S
C789 C790 1.524 . S
C789 H792 0.999 . S
C790 H760 0.950 . S
C790 C789 1.524 . S
C790 C791 1.415 . S
C791 H761 0.950 . S
C791 C786 1.363 . S
C791 C790 1.415 . S
H792 C789 0.999 . S
H793 C774 0.913 . S
H794 C812 0.951 . S
H795 C814 0.951 . S
H796 C816 0.950 . S
H797 C817 0.950 . S
H798 C819 0.950 . S
H799 C822 0.950 . S
H800 C823 0.950 . S
H801 C825 0.950 . S
H802 C826 0.950 1_554 S
H803 C827 0.951 . S
H804 C829 0.951 . S
H805 C831 0.950 . S
H806 C832 0.950 . S
H807 C834 0.950 . S
H808 C837 0.950 . S
H809 C838 0.950 . S
H810 C840 0.950 . S
H811 C841 0.950 1_556 S
C812 H794 0.951 . S
C812 C813 1.366 . S
C812 C814 1.388 . S
C813 C812 1.366 . S
C813 C817 1.385 . S
C814 H795 0.951 . S
C814 C812 1.388 . S
C814 C815 1.366 . S
C815 C814 1.366 . S
C815 C816 1.414 . S
C815 C818 1.499 . S
C816 H796 0.950 . S
C816 C815 1.414 . S
C816 C817 1.374 . S
C817 H797 0.950 . S
C817 C813 1.385 . S
C817 C816 1.374 . S
C818 C815 1.499 . S
C818 C819 1.373 . S
C818 C820 1.389 . S
C819 H798 0.950 . S
C819 C818 1.373 . S
C819 C835 1.377 1_556 S
C820 C818 1.389 . S
C820 C821 1.524 . S
C820 C834 1.377 1_556 S
C821 C820 1.524 . S
C821 C822 1.397 . S
C821 C826 1.363 . S
C822 H799 0.950 . S
C822 C821 1.397 . S
C822 C823 1.334 . S
C823 H800 0.950 . S
C823 C822 1.334 . S
C823 C824 1.287 . S
C824 C823 1.287 . S
C824 C825 1.524 . S
C824 H843 0.913 . S
C825 H801 0.950 . S
C825 C824 1.524 . S
C825 C826 1.415 . S
C826 H802 0.950 1_556 S
C826 C821 1.363 . S
C826 C825 1.415 . S
C827 H803 0.951 . S
C827 C828 1.366 . S
C827 C829 1.388 . S
C828 C827 1.366 . S
C828 C832 1.385 . S
C829 H804 0.951 . S
C829 C827 1.388 . S
C829 C830 1.366 . S
C830 C829 1.366 . S
C830 C831 1.414 . S
C830 C833 1.499 . S
C831 H805 0.950 . S
C831 C830 1.414 . S
C831 C832 1.374 . S
C832 H806 0.950 . S
C832 C828 1.385 . S
C832 C831 1.374 . S
C833 C830 1.499 . S
C833 C834 1.373 . S
C833 C835 1.389 . S
C834 H807 0.950 . S
C834 C820 1.377 1_554 S
C834 C833 1.373 . S
C835 C819 1.377 1_554 S
C835 C833 1.389 . S
C835 C836 1.524 . S
C836 C835 1.524 . S
C836 C837 1.397 . S
C836 C841 1.363 . S
C837 H808 0.950 . S
C837 C836 1.397 . S
C837 C838 1.334 . S
C838 H809 0.950 . S
C838 C837 1.334 . S
C838 C839 1.287 . S
C839 C838 1.287 . S
C839 C840 1.524 . S
C839 H842 0.999 . S
C840 H810 0.950 . S
C840 C839 1.524 . S
C840 C841 1.415 . S
C841 H811 0.950 1_554 S
C841 C836 1.363 . S
C841 C840 1.415 . S
H842 C839 0.999 . S
H843 C824 0.913 . S
H844 C862 0.951 . S
H845 C864 0.951 . S
H846 C866 0.950 . S
H847 C867 0.950 . S
H848 C869 0.950 . S
H849 C872 0.950 . S
H850 C873 0.950 . S
H851 C875 0.950 . S
H852 C876 0.950 . S
H853 C877 0.951 . S
H854 C879 0.951 . S
H855 C881 0.950 . S
H856 C882 0.950 . S
H857 C884 0.950 . S
H858 C887 0.950 . S
H859 C888 0.950 . S
H860 C890 0.950 . S
H861 C891 0.950 . S
C862 H844 0.951 . S
C862 C863 1.366 . S
C862 C864 1.388 . S
C863 C862 1.366 . S
C863 C867 1.385 . S
C864 H845 0.951 . S
C864 C862 1.388 . S
C864 C865 1.366 . S
C865 C864 1.366 . S
C865 C866 1.414 . S
C865 C868 1.499 . S
C866 H846 0.950 . S
C866 C865 1.414 . S
C866 C867 1.374 . S
C867 H847 0.950 . S
C867 C863 1.385 . S
C867 C866 1.374 . S
C868 C865 1.499 . S
C868 C869 1.373 . S
C868 C870 1.389 . S
C869 H848 0.950 . S
C869 C868 1.373 . S
C869 C885 1.377 . S
C870 C868 1.389 . S
C870 C871 1.524 . S
C870 C884 1.377 . S
C871 C870 1.524 . S
C871 C872 1.397 . S
C871 C876 1.363 . S
C872 H849 0.950 . S
C872 C871 1.397 . S
C872 C873 1.334 . S
C873 H850 0.950 . S
C873 C872 1.334 . S
C873 C874 1.287 . S
C874 C873 1.287 . S
C874 C875 1.524 . S
C874 H893 0.913 . S
C875 H851 0.950 . S
C875 C874 1.524 . S
C875 C876 1.415 . S
C876 H852 0.950 . S
C876 C871 1.363 . S
C876 C875 1.415 . S
C877 H853 0.951 . S
C877 C878 1.366 . S
C877 C879 1.388 . S
C878 C877 1.366 . S
C878 C882 1.385 . S
C879 H854 0.951 . S
C879 C877 1.388 . S
C879 C880 1.366 . S
C880 C879 1.366 . S
C880 C881 1.414 . S
C880 C883 1.499 . S
C881 H855 0.950 . S
C881 C880 1.414 . S
C881 C882 1.374 . S
C882 H856 0.950 . S
C882 C878 1.385 . S
C882 C881 1.374 . S
C883 C880 1.499 . S
C883 C884 1.373 . S
C883 C885 1.389 . S
C884 H857 0.950 . S
C884 C870 1.377 . S
C884 C883 1.373 . S
C885 C869 1.377 . S
C885 C883 1.389 . S
C885 C886 1.524 . S
C886 C885 1.524 . S
C886 C887 1.397 . S
C886 C891 1.363 . S
C887 H858 0.950 . S
C887 C886 1.397 . S
C887 C888 1.334 . S
C888 H859 0.950 . S
C888 C887 1.334 . S
C888 C889 1.287 . S
C889 C888 1.287 . S
C889 C890 1.524 . S
C889 H892 0.999 . S
C890 H860 0.950 . S
C890 C889 1.524 . S
C890 C891 1.415 . S
C891 H861 0.950 . S
C891 C886 1.363 . S
C891 C890 1.415 . S
H892 C889 0.999 . S
H893 C874 0.913 . S
H894 C912 0.951 . S
H895 C914 0.951 . S
H896 C916 0.950 . S
H897 C917 0.950 . S
H898 C919 0.950 . S
H899 C922 0.950 . S
H900 C923 0.950 . S
H901 C925 0.950 . S
H902 C926 0.950 . S
H903 C927 0.951 . S
H904 C929 0.951 . S
H905 C931 0.950 . S
H906 C932 0.950 . S
H907 C934 0.950 . S
H908 C937 0.950 . S
H909 C938 0.950 . S
H910 C940 0.950 . S
H911 C941 0.950 . S
C912 H894 0.951 . S
C912 C913 1.366 . S
C912 C914 1.388 . S
C913 C912 1.366 . S
C913 C917 1.385 . S
C914 H895 0.951 . S
C914 C912 1.388 . S
C914 C915 1.366 . S
C915 C914 1.366 . S
C915 C916 1.414 . S
C915 C918 1.499 . S
C916 H896 0.950 . S
C916 C915 1.414 . S
C916 C917 1.374 . S
C917 H897 0.950 . S
C917 C913 1.385 . S
C917 C916 1.374 . S
C918 C915 1.499 . S
C918 C919 1.373 . S
C918 C920 1.389 . S
C919 H898 0.950 . S
C919 C918 1.373 . S
C919 C935 1.377 . S
C920 C918 1.389 . S
C920 C921 1.524 . S
C920 C934 1.377 . S
C921 C920 1.524 . S
C921 C922 1.397 . S
C921 C926 1.363 . S
C922 H899 0.950 . S
C922 C921 1.397 . S
C922 C923 1.334 . S
C923 H900 0.950 . S
C923 C922 1.334 . S
C923 C924 1.287 . S
C924 C923 1.287 . S
C924 C925 1.524 . S
C924 H943 0.913 . S
C925 H901 0.950 . S
C925 C924 1.524 . S
C925 C926 1.415 . S
C926 H902 0.950 . S
C926 C921 1.363 . S
C926 C925 1.415 . S
C927 H903 0.951 . S
C927 C928 1.366 . S
C927 C929 1.388 . S
C928 C927 1.366 . S
C928 C932 1.385 . S
C929 H904 0.951 . S
C929 C927 1.388 . S
C929 C930 1.366 . S
C930 C929 1.366 . S
C930 C931 1.414 . S
C930 C933 1.499 . S
C931 H905 0.950 . S
C931 C930 1.414 . S
C931 C932 1.374 . S
C932 H906 0.950 . S
C932 C928 1.385 . S
C932 C931 1.374 . S
C933 C930 1.499 . S
C933 C934 1.373 . S
C933 C935 1.389 . S
C934 H907 0.950 . S
C934 C920 1.377 . S
C934 C933 1.373 . S
C935 C919 1.377 . S
C935 C933 1.389 . S
C935 C936 1.524 . S
C936 C935 1.524 . S
C936 C937 1.397 . S
C936 C941 1.363 . S
C937 H908 0.950 . S
C937 C936 1.397 . S
C937 C938 1.334 . S
C938 H909 0.950 . S
C938 C937 1.334 . S
C938 C939 1.287 . S
C939 C938 1.287 . S
C939 C940 1.524 . S
C939 H942 0.999 . S
C940 H910 0.950 . S
C940 C939 1.524 . S
C940 C941 1.415 . S
C941 H911 0.950 . S
C941 C936 1.363 . S
C941 C940 1.415 . S
H942 C939 0.999 . S
H943 C924 0.913 . S
H944 C962 0.951 . S
H945 C964 0.951 . S
H946 C966 0.950 . S
H947 C967 0.950 . S
H948 C969 0.950 . S
H949 C972 0.950 . S
H950 C973 0.950 . S
H951 C975 0.950 . S
H952 C976 0.950 . S
H953 C977 0.951 . S
H954 C979 0.951 . S
H955 C981 0.950 . S
H956 C982 0.950 . S
H957 C984 0.950 . S
H958 C987 0.950 . S
H959 C988 0.950 . S
H960 C990 0.950 . S
H961 C991 0.950 . S
C962 H944 0.951 . S
C962 C963 1.366 . S
C962 C964 1.388 . S
C963 C962 1.366 . S
C963 C967 1.385 . S
C964 H945 0.951 . S
C964 C962 1.388 . S
C964 C965 1.366 . S
C965 C964 1.366 . S
C965 C966 1.414 . S
C965 C968 1.499 . S
C966 H946 0.950 . S
C966 C965 1.414 . S
C966 C967 1.374 . S
C967 H947 0.950 . S
C967 C963 1.385 . S
C967 C966 1.374 . S
C968 C965 1.499 . S
C968 C969 1.373 . S
C968 C970 1.389 . S
C969 H948 0.950 . S
C969 C968 1.373 . S
C969 C985 1.377 . S
C970 C968 1.389 . S
C970 C971 1.524 . S
C970 C984 1.377 . S
C971 C970 1.524 . S
C971 C972 1.397 . S
C971 C976 1.363 . S
C972 H949 0.950 . S
C972 C971 1.397 . S
C972 C973 1.334 . S
C973 H950 0.950 . S
C973 C972 1.334 . S
C973 C974 1.287 . S
C974 C973 1.287 . S
C974 C975 1.524 . S
C974 H993 0.913 . S
C975 H951 0.950 . S
C975 C974 1.524 . S
C975 C976 1.415 . S
C976 H952 0.950 . S
C976 C971 1.363 . S
C976 C975 1.415 . S
C977 H953 0.951 . S
C977 C978 1.366 . S
C977 C979 1.388 . S
C978 C977 1.366 . S
C978 C982 1.385 . S
C979 H954 0.951 . S
C979 C977 1.388 . S
C979 C980 1.366 . S
C980 C979 1.366 . S
C980 C981 1.414 . S
C980 C983 1.499 . S
C981 H955 0.950 . S
C981 C980 1.414 . S
C981 C982 1.374 . S
C982 H956 0.950 . S
C982 C978 1.385 . S
C982 C981 1.374 . S
C983 C980 1.499 . S
C983 C984 1.373 . S
C983 C985 1.389 . S
C984 H957 0.950 . S
C984 C970 1.377 . S
C984 C983 1.373 . S
C985 C969 1.377 . S
C985 C983 1.389 . S
C985 C986 1.524 . S
C986 C985 1.524 . S
C986 C987 1.397 . S
C986 C991 1.363 . S
C987 H958 0.950 . S
C987 C986 1.397 . S
C987 C988 1.334 . S
C988 H959 0.950 . S
C988 C987 1.334 . S
C988 C989 1.287 . S
C989 C988 1.287 . S
C989 C990 1.524 . S
C989 H992 0.999 . S
C990 H960 0.950 . S
C990 C989 1.524 . S
C990 C991 1.415 . S
C991 H961 0.950 . S
C991 C986 1.363 . S
C991 C990 1.415 . S
H992 C989 0.999 . S
H993 C974 0.913 . S
H994 C1012 0.951 . S
H995 C1014 0.951 . S
H996 C1016 0.950 . S
H997 C1017 0.950 . S
H998 C1019 0.950 . S
H999 C1022 0.950 . S
H1000 C1023 0.950 . S
H1001 C1025 0.950 . S
H1002 C1026 0.950 . S
H1003 C1027 0.951 . S
H1004 C1029 0.951 . S
H1005 C1031 0.950 . S
H1006 C1032 0.950 . S
H1007 C1034 0.950 . S
H1008 C1037 0.950 . S
H1009 C1038 0.950 . S
H1010 C1040 0.950 . S
H1011 C1041 0.950 . S
C1012 H994 0.951 . S
C1012 C1013 1.366 . S
C1012 C1014 1.388 . S
C1013 C1012 1.366 . S
C1013 C1017 1.385 . S
C1014 H995 0.951 . S
C1014 C1012 1.388 . S
C1014 C1015 1.366 . S
C1015 C1014 1.366 . S
C1015 C1016 1.414 . S
C1015 C1018 1.499 . S
C1016 H996 0.950 . S
C1016 C1015 1.414 . S
C1016 C1017 1.374 . S
C1017 H997 0.950 . S
C1017 C1013 1.385 . S
C1017 C1016 1.374 . S
C1018 C1015 1.499 . S
C1018 C1019 1.373 . S
C1018 C1020 1.389 . S
C1019 H998 0.950 . S
C1019 C1018 1.373 . S
C1019 C1035 1.377 . S
C1020 C1018 1.389 . S
C1020 C1021 1.524 . S
C1020 C1034 1.377 . S
C1021 C1020 1.524 . S
C1021 C1022 1.397 . S
C1021 C1026 1.363 . S
C1022 H999 0.950 . S
C1022 C1021 1.397 . S
C1022 C1023 1.334 . S
C1023 H1000 0.950 . S
C1023 C1022 1.334 . S
C1023 C1024 1.287 . S
C1024 C1023 1.287 . S
C1024 C1025 1.524 . S
C1024 H1043 0.913 . S
C1025 H1001 0.950 . S
C1025 C1024 1.524 . S
C1025 C1026 1.415 . S
C1026 H1002 0.950 . S
C1026 C1021 1.363 . S
C1026 C1025 1.415 . S
C1027 H1003 0.951 . S
C1027 C1028 1.366 . S
C1027 C1029 1.388 . S
C1028 C1027 1.366 . S
C1028 C1032 1.385 . S
C1029 H1004 0.951 . S
C1029 C1027 1.388 . S
C1029 C1030 1.366 . S
C1030 C1029 1.366 . S
C1030 C1031 1.414 . S
C1030 C1033 1.499 . S
C1031 H1005 0.950 . S
C1031 C1030 1.414 . S
C1031 C1032 1.374 . S
C1032 H1006 0.950 . S
C1032 C1028 1.385 . S
C1032 C1031 1.374 . S
C1033 C1030 1.499 . S
C1033 C1034 1.373 . S
C1033 C1035 1.389 . S
C1034 H1007 0.950 . S
C1034 C1020 1.377 . S
C1034 C1033 1.373 . S
C1035 C1019 1.377 . S
C1035 C1033 1.389 . S
C1035 C1036 1.524 . S
C1036 C1035 1.524 . S
C1036 C1037 1.397 . S
C1036 C1041 1.363 . S
C1037 H1008 0.950 . S
C1037 C1036 1.397 . S
C1037 C1038 1.334 . S
C1038 H1009 0.950 . S
C1038 C1037 1.334 . S
C1038 C1039 1.287 . S
C1039 C1038 1.287 . S
C1039 C1040 1.524 . S
C1039 H1042 0.999 . S
C1040 H1010 0.950 . S
C1040 C1039 1.524 . S
C1040 C1041 1.415 . S
C1041 H1011 0.950 . S
C1041 C1036 1.363 . S
C1041 C1040 1.415 . S
H1042 C1039 0.999 . S
H1043 C1024 0.913 . S
H1044 C1062 0.951 . S
H1045 C1064 0.951 . S
H1046 C1066 0.950 . S
H1047 C1067 0.950 . S
H1048 C1069 0.950 . S
H1049 C1072 0.950 . S
H1050 C1073 0.950 . S
H1051 C1075 0.950 . S
H1052 C1076 0.950 . S
H1053 C1077 0.951 . S
H1054 C1079 0.951 . S
H1055 C1081 0.950 . S
H1056 C1082 0.950 . S
H1057 C1084 0.950 . S
H1058 C1087 0.950 . S
H1059 C1088 0.950 . S
H1060 C1090 0.950 . S
H1061 C1091 0.950 . S
C1062 H1044 0.951 . S
C1062 C1063 1.366 . S
C1062 C1064 1.388 . S
C1063 C1062 1.366 . S
C1063 C1067 1.385 . S
C1064 H1045 0.951 . S
C1064 C1062 1.388 . S
C1064 C1065 1.366 . S
C1065 C1064 1.366 . S
C1065 C1066 1.414 . S
C1065 C1068 1.499 . S
C1066 H1046 0.950 . S
C1066 C1065 1.414 . S
C1066 C1067 1.374 . S
C1067 H1047 0.950 . S
C1067 C1063 1.385 . S
C1067 C1066 1.374 . S
C1068 C1065 1.499 . S
C1068 C1069 1.373 . S
C1068 C1070 1.389 . S
C1069 H1048 0.950 . S
C1069 C1068 1.373 . S
C1069 C1085 1.377 . S
C1070 C1068 1.389 . S
C1070 C1071 1.524 . S
C1070 C1084 1.377 . S
C1071 C1070 1.524 . S
C1071 C1072 1.397 . S
C1071 C1076 1.363 . S
C1072 H1049 0.950 . S
C1072 C1071 1.397 . S
C1072 C1073 1.334 . S
C1073 H1050 0.950 . S
C1073 C1072 1.334 . S
C1073 C1074 1.287 . S
C1074 C1073 1.287 . S
C1074 C1075 1.524 . S
C1074 H1093 0.913 . S
C1075 H1051 0.950 . S
C1075 C1074 1.524 . S
C1075 C1076 1.415 . S
C1076 H1052 0.950 . S
C1076 C1071 1.363 . S
C1076 C1075 1.415 . S
C1077 H1053 0.951 . S
C1077 C1078 1.366 . S
C1077 C1079 1.388 . S
C1078 C1077 1.366 . S
C1078 C1082 1.385 . S
C1079 H1054 0.951 . S
C1079 C1077 1.388 . S
C1079 C1080 1.366 . S
C1080 C1079 1.366 . S
C1080 C1081 1.414 . S
C1080 C1083 1.499 . S
C1081 H1055 0.950 . S
C1081 C1080 1.414 . S
C1081 C1082 1.374 . S
C1082 H1056 0.950 . S
C1082 C1078 1.385 . S
C1082 C1081 1.374 . S
C1083 C1080 1.499 . S
C1083 C1084 1.373 . S
C1083 C1085 1.389 . S
C1084 H1057 0.950 . S
C1084 C1070 1.377 . S
C1084 C1083 1.373 . S
C1085 C1069 1.377 . S
C1085 C1083 1.389 . S
C1085 C1086 1.524 . S
C1086 C1085 1.524 . S
C1086 C1087 1.397 . S
C1086 C1091 1.363 . S
C1087 H1058 0.950 . S
C1087 C1086 1.397 . S
C1087 C1088 1.334 . S
C1088 H1059 0.950 . S
C1088 C1087 1.334 . S
C1088 C1089 1.287 . S
C1089 C1088 1.287 . S
C1089 C1090 1.524 . S
C1089 H1092 0.999 . S
C1090 H1060 0.950 . S
C1090 C1089 1.524 . S
C1090 C1091 1.415 . S
C1091 H1061 0.950 . S
C1091 C1086 1.363 . S
C1091 C1090 1.415 . S
H1092 C1089 0.999 . S
H1093 C1074 0.913 . S
H1094 C1112 0.951 . S
H1095 C1114 0.951 . S
H1096 C1116 0.950 . S
H1097 C1117 0.950 . S
H1098 C1119 0.950 . S
H1099 C1122 0.950 . S
H1100 C1123 0.950 . S
H1101 C1125 0.950 . S
H1102 C1126 0.950 . S
H1103 C1127 0.951 . S
H1104 C1129 0.951 . S
H1105 C1131 0.950 . S
H1106 C1132 0.950 . S
H1107 C1134 0.950 . S
H1108 C1137 0.950 . S
H1109 C1138 0.950 . S
H1110 C1140 0.950 . S
H1111 C1141 0.950 . S
C1112 H1094 0.951 . S
C1112 C1113 1.366 . S
C1112 C1114 1.388 . S
C1113 C1112 1.366 . S
C1113 C1117 1.385 . S
C1114 H1095 0.951 . S
C1114 C1112 1.388 . S
C1114 C1115 1.366 . S
C1115 C1114 1.366 . S
C1115 C1116 1.414 . S
C1115 C1118 1.499 . S
C1116 H1096 0.950 . S
C1116 C1115 1.414 . S
C1116 C1117 1.374 . S
C1117 H1097 0.950 . S
C1117 C1113 1.385 . S
C1117 C1116 1.374 . S
C1118 C1115 1.499 . S
C1118 C1119 1.373 . S
C1118 C1120 1.389 . S
C1119 H1098 0.950 . S
C1119 C1118 1.373 . S
C1119 C1135 1.377 . S
C1120 C1118 1.389 . S
C1120 C1121 1.524 . S
C1120 C1134 1.377 . S
C1121 C1120 1.524 . S
C1121 C1122 1.397 . S
C1121 C1126 1.363 . S
C1122 H1099 0.950 . S
C1122 C1121 1.397 . S
C1122 C1123 1.334 . S
C1123 H1100 0.950 . S
C1123 C1122 1.334 . S
C1123 C1124 1.287 . S
C1124 C1123 1.287 . S
C1124 C1125 1.524 . S
C1124 H1143 0.913 . S
C1125 H1101 0.950 . S
C1125 C1124 1.524 . S
C1125 C1126 1.415 . S
C1126 H1102 0.950 . S
C1126 C1121 1.363 . S
C1126 C1125 1.415 . S
C1127 H1103 0.951 . S
C1127 C1128 1.366 . S
C1127 C1129 1.388 . S
C1128 C1127 1.366 . S
C1128 C1132 1.385 . S
C1129 H1104 0.951 . S
C1129 C1127 1.388 . S
C1129 C1130 1.366 . S
C1130 C1129 1.366 . S
C1130 C1131 1.414 . S
C1130 C1133 1.499 . S
C1131 H1105 0.950 . S
C1131 C1130 1.414 . S
C1131 C1132 1.374 . S
C1132 H1106 0.950 . S
C1132 C1128 1.385 . S
C1132 C1131 1.374 . S
C1133 C1130 1.499 . S
C1133 C1134 1.373 . S
C1133 C1135 1.389 . S
C1134 H1107 0.950 . S
C1134 C1120 1.377 . S
C1134 C1133 1.373 . S
C1135 C1119 1.377 . S
C1135 C1133 1.389 . S
C1135 C1136 1.524 . S
C1136 C1135 1.524 . S
C1136 C1137 1.397 . S
C1136 C1141 1.363 . S
C1137 H1108 0.950 . S
C1137 C1136 1.397 . S
C1137 C1138 1.334 . S
C1138 H1109 0.950 . S
C1138 C1137 1.334 . S
C1138 C1139 1.287 . S
C1139 C1138 1.287 . S
C1139 C1140 1.524 . S
C1139 H1142 0.999 . S
C1140 H1110 0.950 . S
C1140 C1139 1.524 . S
C1140 C1141 1.415 . S
C1141 H1111 0.950 . S
C1141 C1136 1.363 . S
C1141 C1140 1.415 . S
H1142 C1139 0.999 . S
H1143 C1124 0.913 . S
H1144 C1162 0.951 . S
H1145 C1164 0.951 . S
H1146 C1166 0.950 . S
H1147 C1167 0.950 . S
H1148 C1169 0.950 . S
H1149 C1172 0.950 . S
H1150 C1173 0.950 . S
H1151 C1175 0.950 . S
H1152 C1176 0.950 . S
H1153 C1177 0.951 . S
H1154 C1179 0.951 . S
H1155 C1181 0.950 . S
H1156 C1182 0.950 . S
H1157 C1184 0.950 . S
H1158 C1187 0.950 . S
H1159 C1188 0.950 . S
H1160 C1190 0.950 . S
H1161 C1191 0.950 . S
C1162 H1144 0.951 . S
C1162 C1163 1.366 . S
C1162 C1164 1.388 . S
C1163 C1162 1.366 . S
C1163 C1167 1.385 . S
C1164 H1145 0.951 . S
C1164 C1162 1.388 . S
C1164 C1165 1.366 . S
C1165 C1164 1.366 . S
C1165 C1166 1.414 . S
C1165 C1168 1.499 . S
C1166 H1146 0.950 . S
C1166 C1165 1.414 . S
C1166 C1167 1.374 . S
C1167 H1147 0.950 . S
C1167 C1163 1.385 . S
C1167 C1166 1.374 . S
C1168 C1165 1.499 . S
C1168 C1169 1.373 . S
C1168 C1170 1.389 . S
C1169 H1148 0.950 . S
C1169 C1168 1.373 . S
C1169 C1185 1.377 . S
C1170 C1168 1.389 . S
C1170 C1171 1.524 . S
C1170 C1184 1.377 . S
C1171 C1170 1.524 . S
C1171 C1172 1.397 . S
C1171 C1176 1.363 . S
C1172 H1149 0.950 . S
C1172 C1171 1.397 . S
C1172 C1173 1.334 . S
C1173 H1150 0.950 . S
C1173 C1172 1.334 . S
C1173 C1174 1.287 . S
C1174 C1173 1.287 . S
C1174 C1175 1.524 . S
C1174 H1193 0.913 . S
C1175 H1151 0.950 . S
C1175 C1174 1.524 . S
C1175 C1176 1.415 . S
C1176 H1152 0.950 . S
C1176 C1171 1.363 . S
C1176 C1175 1.415 . S
C1177 H1153 0.951 . S
C1177 C1178 1.366 . S
C1177 C1179 1.388 . S
C1178 C1177 1.366 . S
C1178 C1182 1.385 . S
C1179 H1154 0.951 . S
C1179 C1177 1.388 . S
C1179 C1180 1.366 . S
C1180 C1179 1.366 . S
C1180 C1181 1.414 . S
C1180 C1183 1.499 . S
C1181 H1155 0.950 . S
C1181 C1180 1.414 . S
C1181 C1182 1.374 . S
C1182 H1156 0.950 . S
C1182 C1178 1.385 . S
C1182 C1181 1.374 . S
C1183 C1180 1.499 . S
C1183 C1184 1.373 . S
C1183 C1185 1.389 . S
C1184 H1157 0.950 . S
C1184 C1170 1.377 . S
C1184 C1183 1.373 . S
C1185 C1169 1.377 . S
C1185 C1183 1.389 . S
C1185 C1186 1.524 . S
C1186 C1185 1.524 . S
C1186 C1187 1.397 . S
C1186 C1191 1.363 . S
C1187 H1158 0.950 . S
C1187 C1186 1.397 . S
C1187 C1188 1.334 . S
C1188 H1159 0.950 . S
C1188 C1187 1.334 . S
C1188 C1189 1.287 . S
C1189 C1188 1.287 . S
C1189 C1190 1.524 . S
C1189 H1192 0.999 . S
C1190 H1160 0.950 . S
C1190 C1189 1.524 . S
C1190 C1191 1.415 . S
C1191 H1161 0.950 . S
C1191 C1186 1.363 . S
C1191 C1190 1.415 . S
H1192 C1189 0.999 . S
H1193 C1174 0.913 . S
H1194 C1212 0.951 . S
H1195 C1214 0.951 . S
H1196 C1216 0.950 . S
H1197 C1217 0.950 . S
H1198 C1219 0.950 . S
H1199 C1222 0.950 . S
H1200 C1223 0.950 . S
H1201 C1225 0.950 . S
H1202 C1226 0.950 . S
H1203 C1227 0.951 . S
H1204 C1229 0.951 . S
H1205 C1231 0.950 . S
H1206 C1232 0.950 . S
H1207 C1234 0.950 . S
H1208 C1237 0.950 . S
H1209 C1238 0.950 . S
H1210 C1240 0.950 . S
H1211 C1241 0.950 . S
C1212 H1194 0.951 . S
C1212 C1213 1.366 . S
C1212 C1214 1.388 . S
C1213 C1212 1.366 . S
C1213 C1217 1.385 . S
C1214 H1195 0.951 . S
C1214 C1212 1.388 . S
C1214 C1215 1.366 . S
C1215 C1214 1.366 . S
C1215 C1216 1.414 . S
C1215 C1218 1.499 . S
C1216 H1196 0.950 . S
C1216 C1215 1.414 . S
C1216 C1217 1.374 . S
C1217 H1197 0.950 . S
C1217 C1213 1.385 . S
C1217 C1216 1.374 . S
C1218 C1215 1.499 . S
C1218 C1219 1.373 . S
C1218 C1220 1.389 . S
C1219 H1198 0.950 . S
C1219 C1218 1.373 . S
C1219 C1235 1.377 . S
C1220 C1218 1.389 . S
C1220 C1221 1.524 . S
C1220 C1234 1.377 . S
C1221 C1220 1.524 . S
C1221 C1222 1.397 . S
C1221 C1226 1.363 . S
C1222 H1199 0.950 . S
C1222 C1221 1.397 . S
C1222 C1223 1.334 . S
C1223 H1200 0.950 . S
C1223 C1222 1.334 . S
C1223 C1224 1.287 . S
C1224 C1223 1.287 . S
C1224 C1225 1.524 . S
C1224 H1243 0.913 . S
C1225 H1201 0.950 . S
C1225 C1224 1.524 . S
C1225 C1226 1.415 . S
C1226 H1202 0.950 . S
C1226 C1221 1.363 . S
C1226 C1225 1.415 . S
C1227 H1203 0.951 . S
C1227 C1228 1.366 . S
C1227 C1229 1.388 . S
C1228 C1227 1.366 . S
C1228 C1232 1.385 . S
C1229 H1204 0.951 . S
C1229 C1227 1.388 . S
C1229 C1230 1.366 . S
C1230 C1229 1.366 . S
C1230 C1231 1.414 . S
C1230 C1233 1.499 . S
C1231 H1205 0.950 . S
C1231 C1230 1.414 . S
C1231 C1232 1.374 . S
C1232 H1206 0.950 . S
C1232 C1228 1.385 . S
C1232 C1231 1.374 . S
C1233 C1230 1.499 . S
C1233 C1234 1.373 . S
C1233 C1235 1.389 . S
C1234 H1207 0.950 . S
C1234 C1220 1.377 . S
C1234 C1233 1.373 . S
C1235 C1219 1.377 . S
C1235 C1233 1.389 . S
C1235 C1236 1.524 . S
C1236 C1235 1.524 . S
C1236 C1237 1.397 . S
C1236 C1241 1.363 . S
C1237 H1208 0.950 . S
C1237 C1236 1.397 . S
C1237 C1238 1.334 . S
C1238 H1209 0.950 . S
C1238 C1237 1.334 . S
C1238 C1239 1.287 . S
C1239 C1238 1.287 . S
C1239 C1240 1.524 . S
C1239 H1242 0.999 . S
C1240 H1210 0.950 . S
C1240 C1239 1.524 . S
C1240 C1241 1.415 . S
C1241 H1211 0.950 . S
C1241 C1236 1.363 . S
C1241 C1240 1.415 . S
H1242 C1239 0.999 . S
H1243 C1224 0.913 . S
H1244 C1262 0.951 . S
H1245 C1264 0.951 . S
H1246 C1266 0.950 . S
H1247 C1267 0.950 . S
H1248 C1269 0.950 . S
H1249 C1272 0.950 . S
H1250 C1273 0.950 . S
H1251 C1275 0.950 . S
H1252 C1276 0.950 . S
H1253 C1277 0.951 . S
H1254 C1279 0.951 . S
H1255 C1281 0.950 . S
H1256 C1282 0.950 . S
H1257 C1284 0.950 . S
H1258 C1287 0.950 . S
H1259 C1288 0.950 . S
H1260 C1290 0.950 . S
H1261 C1291 0.950 . S
C1262 H1244 0.951 . S
C1262 C1263 1.366 . S
C1262 C1264 1.388 . S
C1263 C1262 1.366 . S
C1263 C1267 1.385 . S
C1264 H1245 0.951 . S
C1264 C1262 1.388 . S
C1264 C1265 1.366 . S
C1265 C1264 1.366 . S
C1265 C1266 1.414 . S
C1265 C1268 1.499 . S
C1266 H1246 0.950 . S
C1266 C1265 1.414 . S
C1266 C1267 1.374 . S
C1267 H1247 0.950 . S
C1267 C1263 1.385 . S
C1267 C1266 1.374 . S
C1268 C1265 1.499 . S
C1268 C1269 1.373 . S
C1268 C1270 1.389 . S
C1269 H1248 0.950 . S
C1269 C1268 1.373 . S
C1269 C1285 1.377 . S
C1270 C1268 1.389 . S
C1270 C1271 1.524 . S
C1270 C1284 1.377 . S
C1271 C1270 1.524 . S
C1271 C1272 1.397 . S
C1271 C1276 1.363 . S
C1272 H1249 0.950 . S
C1272 C1271 1.397 . S
C1272 C1273 1.334 . S
C1273 H1250 0.950 . S
C1273 C1272 1.334 . S
C1273 C1274 1.287 . S
C1274 C1273 1.287 . S
C1274 C1275 1.524 . S
C1274 H1293 0.913 . S
C1275 H1251 0.950 . S
C1275 C1274 1.524 . S
C1275 C1276 1.415 . S
C1276 H1252 0.950 . S
C1276 C1271 1.363 . S
C1276 C1275 1.415 . S
C1277 H1253 0.951 . S
C1277 C1278 1.366 . S
C1277 C1279 1.388 . S
C1278 C1277 1.366 . S
C1278 C1282 1.385 . S
C1279 H1254 0.951 . S
C1279 C1277 1.388 . S
C1279 C1280 1.366 . S
C1280 C1279 1.366 . S
C1280 C1281 1.414 . S
C1280 C1283 1.499 . S
C1281 H1255 0.950 . S
C1281 C1280 1.414 . S
C1281 C1282 1.374 . S
C1282 H1256 0.950 . S
C1282 C1278 1.385 . S
C1282 C1281 1.374 . S
C1283 C1280 1.499 . S
C1283 C1284 1.373 . S
C1283 C1285 1.389 . S
C1284 H1257 0.950 . S
C1284 C1270 1.377 . S
C1284 C1283 1.373 . S
C1285 C1269 1.377 . S
C1285 C1283 1.389 . S
C1285 C1286 1.524 . S
C1286 C1285 1.524 . S
C1286 C1287 1.397 . S
C1286 C1291 1.363 . S
C1287 H1258 0.950 . S
C1287 C1286 1.397 . S
C1287 C1288 1.334 . S
C1288 H1259 0.950 . S
C1288 C1287 1.334 . S
C1288 C1289 1.287 . S
C1289 C1288 1.287 . S
C1289 C1290 1.524 . S
C1289 H1292 0.999 . S
C1290 H1260 0.950 . S
C1290 C1289 1.524 . S
C1290 C1291 1.415 . S
C1291 H1261 0.950 . S
C1291 C1286 1.363 . S
C1291 C1290 1.415 . S
H1292 C1289 0.999 . S
H1293 C1274 0.913 . S
H1294 C1312 0.951 . S
H1295 C1314 0.951 . S
H1296 C1316 0.950 . S
H1297 C1317 0.950 . S
H1298 C1319 0.950 . S
H1299 C1322 0.950 . S
H1300 C1323 0.950 . S
H1301 C1325 0.950 . S
H1302 C1326 0.950 . S
H1303 C1327 0.951 . S
H1304 C1329 0.951 . S
H1305 C1331 0.950 . S
H1306 C1332 0.950 . S
H1307 C1334 0.950 . S
H1308 C1337 0.950 . S
H1309 C1338 0.950 . S
H1310 C1340 0.950 . S
H1311 C1341 0.950 . S
C1312 H1294 0.951 . S
C1312 C1313 1.366 . S
C1312 C1314 1.388 . S
C1313 C1312 1.366 . S
C1313 C1317 1.385 . S
C1314 H1295 0.951 . S
C1314 C1312 1.388 . S
C1314 C1315 1.366 . S
C1315 C1314 1.366 . S
C1315 C1316 1.414 . S
C1315 C1318 1.499 . S
C1316 H1296 0.950 . S
C1316 C1315 1.414 . S
C1316 C1317 1.374 . S
C1317 H1297 0.950 . S
C1317 C1313 1.385 . S
C1317 C1316 1.374 . S
C1318 C1315 1.499 . S
C1318 C1319 1.373 . S
C1318 C1320 1.389 . S
C1319 H1298 0.950 . S
C1319 C1318 1.373 . S
C1319 C1335 1.377 . S
C1320 C1318 1.389 . S
C1320 C1321 1.524 . S
C1320 C1334 1.377 . S
C1321 C1320 1.524 . S
C1321 C1322 1.397 . S
C1321 C1326 1.363 . S
C1322 H1299 0.950 . S
C1322 C1321 1.397 . S
C1322 C1323 1.334 . S
C1323 H1300 0.950 . S
C1323 C1322 1.334 . S
C1323 C1324 1.287 . S
C1324 C1323 1.287 . S
C1324 C1325 1.524 . S
C1324 H1343 0.913 . S
C1325 H1301 0.950 . S
C1325 C1324 1.524 . S
C1325 C1326 1.415 . S
C1326 H1302 0.950 . S
C1326 C1321 1.363 . S
C1326 C1325 1.415 . S
C1327 H1303 0.951 . S
C1327 C1328 1.366 . S
C1327 C1329 1.388 . S
C1328 C1327 1.366 . S
C1328 C1332 1.385 . S
C1329 H1304 0.951 . S
C1329 C1327 1.388 . S
C1329 C1330 1.366 . S
C1330 C1329 1.366 . S
C1330 C1331 1.414 . S
C1330 C1333 1.499 . S
C1331 H1305 0.950 . S
C1331 C1330 1.414 . S
C1331 C1332 1.374 . S
C1332 H1306 0.950 . S
C1332 C1328 1.385 . S
C1332 C1331 1.374 . S
C1333 C1330 1.499 . S
C1333 C1334 1.373 . S
C1333 C1335 1.389 . S
C1334 H1307 0.950 . S
C1334 C1320 1.377 . S
C1334 C1333 1.373 . S
C1335 C1319 1.377 . S
C1335 C1333 1.389 . S
C1335 C1336 1.524 . S
C1336 C1335 1.524 . S
C1336 C1337 1.397 . S
C1336 C1341 1.363 . S
C1337 H1308 0.950 . S
C1337 C1336 1.397 . S
C1337 C1338 1.334 . S
C1338 H1309 0.950 . S
C1338 C1337 1.334 . S
C1338 C1339 1.287 . S
C1339 C1338 1.287 . S
C1339 C1340 1.524 . S
C1339 H1342 0.999 . S
C1340 H1310 0.950 . S
C1340 C1339 1.524 . S
C1340 C1341 1.415 . S
C1341 H1311 0.950 . S
C1341 C1336 1.363 . S
C1341 C1340 1.415 . S
H1342 C1339 0.999 . S
H1343 C1324 0.913 . S
H1344 C1362 0.951 . S
H1345 C1364 0.951 . S
H1346 C1366 0.950 . S
H1347 C1367 0.950 . S
H1348 C1369 0.950 . S
H1349 C1372 0.950 . S
H1350 C1373 0.950 . S
H1351 C1375 0.950 . S
H1352 C1376 0.950 . S
H1353 C1377 0.951 . S
H1354 C1379 0.951 . S
H1355 C1381 0.950 . S
H1356 C1382 0.950 . S
H1357 C1384 0.950 . S
H1358 C1387 0.950 . S
H1359 C1388 0.950 . S
H1360 C1390 0.950 . S
H1361 C1391 0.950 . S
C1362 H1344 0.951 . S
C1362 C1363 1.366 . S
C1362 C1364 1.388 . S
C1363 C1362 1.366 . S
C1363 C1367 1.385 . S
C1364 H1345 0.951 . S
C1364 C1362 1.388 . S
C1364 C1365 1.366 . S
C1365 C1364 1.366 . S
C1365 C1366 1.414 . S
C1365 C1368 1.499 . S
C1366 H1346 0.950 . S
C1366 C1365 1.414 . S
C1366 C1367 1.374 . S
C1367 H1347 0.950 . S
C1367 C1363 1.385 . S
C1367 C1366 1.374 . S
C1368 C1365 1.499 . S
C1368 C1369 1.373 . S
C1368 C1370 1.389 . S
C1369 H1348 0.950 . S
C1369 C1368 1.373 . S
C1369 C1385 1.377 . S
C1370 C1368 1.389 . S
C1370 C1371 1.524 . S
C1370 C1384 1.377 . S
C1371 C1370 1.524 . S
C1371 C1372 1.397 . S
C1371 C1376 1.363 . S
C1372 H1349 0.950 . S
C1372 C1371 1.397 . S
C1372 C1373 1.334 . S
C1373 H1350 0.950 . S
C1373 C1372 1.334 . S
C1373 C1374 1.287 . S
C1374 C1373 1.287 . S
C1374 C1375 1.524 . S
C1374 H1393 0.913 . S
C1375 H1351 0.950 . S
C1375 C1374 1.524 . S
C1375 C1376 1.415 . S
C1376 H1352 0.950 . S
C1376 C1371 1.363 . S
C1376 C1375 1.415 . S
C1377 H1353 0.951 . S
C1377 C1378 1.366 . S
C1377 C1379 1.388 . S
C1378 C1377 1.366 . S
C1378 C1382 1.385 . S
C1379 H1354 0.951 . S
C1379 C1377 1.388 . S
C1379 C1380 1.366 . S
C1380 C1379 1.366 . S
C1380 C1381 1.414 . S
C1380 C1383 1.499 . S
C1381 H1355 0.950 . S
C1381 C1380 1.414 . S
C1381 C1382 1.374 . S
C1382 H1356 0.950 . S
C1382 C1378 1.385 . S
C1382 C1381 1.374 . S
C1383 C1380 1.499 . S
C1383 C1384 1.373 . S
C1383 C1385 1.389 . S
C1384 H1357 0.950 . S
C1384 C1370 1.377 . S
C1384 C1383 1.373 . S
C1385 C1369 1.377 . S
C1385 C1383 1.389 . S
C1385 C1386 1.524 . S
C1386 C1385 1.524 . S
C1386 C1387 1.397 . S
C1386 C1391 1.363 . S
C1387 H1358 0.950 . S
C1387 C1386 1.397 . S
C1387 C1388 1.334 . S
C1388 H1359 0.950 . S
C1388 C1387 1.334 . S
C1388 C1389 1.287 . S
C1389 C1388 1.287 . S
C1389 C1390 1.524 . S
C1389 H1392 0.999 . S
C1390 H1360 0.950 . S
C1390 C1389 1.524 . S
C1390 C1391 1.415 . S
C1391 H1361 0.950 . S
C1391 C1386 1.363 . S
C1391 C1390 1.415 . S
H1392 C1389 0.999 . S
H1393 C1374 0.913 . S
H1394 C1412 0.951 . S
H1395 C1414 0.951 . S
H1396 C1416 0.950 . S
H1397 C1417 0.950 . S
H1398 C1419 0.950 . S
H1399 C1422 0.950 . S
H1400 C1423 0.950 . S
H1401 C1425 0.950 . S
H1402 C1426 0.950 . S
H1403 C1427 0.951 . S
H1404 C1429 0.951 . S
H1405 C1431 0.950 . S
H1406 C1432 0.950 . S
H1407 C1434 0.950 . S
H1408 C1437 0.950 . S
H1409 C1438 0.950 . S
H1410 C1440 0.950 . S
H1411 C1441 0.950 . S
C1412 H1394 0.951 . S
C1412 C1413 1.366 . S
C1412 C1414 1.388 . S
C1413 C1412 1.366 . S
C1413 C1417 1.385 . S
C1414 H1395 0.951 . S
C1414 C1412 1.388 . S
C1414 C1415 1.366 . S
C1415 C1414 1.366 . S
C1415 C1416 1.414 . S
C1415 C1418 1.499 . S
C1416 H1396 0.950 . S
C1416 C1415 1.414 . S
C1416 C1417 1.374 . S
C1417 H1397 0.950 . S
C1417 C1413 1.385 . S
C1417 C1416 1.374 . S
C1418 C1415 1.499 . S
C1418 C1419 1.373 . S
C1418 C1420 1.389 . S
C1419 H1398 0.950 . S
C1419 C1418 1.373 . S
C1419 C1435 1.377 . S
C1420 C1418 1.389 . S
C1420 C1421 1.524 . S
C1420 C1434 1.377 . S
C1421 C1420 1.524 . S
C1421 C1422 1.397 . S
C1421 C1426 1.363 . S
C1422 H1399 0.950 . S
C1422 C1421 1.397 . S
C1422 C1423 1.334 . S
C1423 H1400 0.950 . S
C1423 C1422 1.334 . S
C1423 C1424 1.287 . S
C1424 C1423 1.287 . S
C1424 C1425 1.524 . S
C1424 H1443 0.913 . S
C1425 H1401 0.950 . S
C1425 C1424 1.524 . S
C1425 C1426 1.415 . S
C1426 H1402 0.950 . S
C1426 C1421 1.363 . S
C1426 C1425 1.415 . S
C1427 H1403 0.951 . S
C1427 C1428 1.366 . S
C1427 C1429 1.388 . S
C1428 C1427 1.366 . S
C1428 C1432 1.385 . S
C1429 H1404 0.951 . S
C1429 C1427 1.388 . S
C1429 C1430 1.366 . S
C1430 C1429 1.366 . S
C1430 C1431 1.414 . S
C1430 C1433 1.499 . S
C1431 H1405 0.950 . S
C1431 C1430 1.414 . S
C1431 C1432 1.374 . S
C1432 H1406 0.950 . S
C1432 C1428 1.385 . S
C1432 C1431 1.374 . S
C1433 C1430 1.499 . S
C1433 C1434 1.373 . S
C1433 C1435 1.389 . S
C1434 H1407 0.950 . S
C1434 C1420 1.377 . S
C1434 C1433 1.373 . S
C1435 C1419 1.377 . S
C1435 C1433 1.389 . S
C1435 C1436 1.524 . S
C1436 C1435 1.524 . S
C1436 C1437 1.397 . S
C1436 C1441 1.363 . S
C1437 H1408 0.950 . S
C1437 C1436 1.397 . S
C1437 C1438 1.334 . S
C1438 H1409 0.950 . S
C1438 C1437 1.334 . S
C1438 C1439 1.287 . S
C1439 C1438 1.287 . S
C1439 C1440 1.524 . S
C1439 H1442 0.999 . S
C1440 H1410 0.950 . S
C1440 C1439 1.524 . S
C1440 C1441 1.415 . S
C1441 H1411 0.950 . S
C1441 C1436 1.363 . S
C1441 C1440 1.415 . S
H1442 C1439 0.999 . S
H1443 C1424 0.913 . S
H1444 C1462 0.951 . S
H1445 C1464 0.951 . S
H1446 C1466 0.950 . S
H1447 C1467 0.950 . S
H1448 C1469 0.950 . S
H1449 C1472 0.950 . S
H1450 C1473 0.950 . S
H1451 C1475 0.950 . S
H1452 C1476 0.950 . S
H1453 C1477 0.951 . S
H1454 C1479 0.951 . S
H1455 C1481 0.950 . S
H1456 C1482 0.950 . S
H1457 C1484 0.950 . S
H1458 C1487 0.950 . S
H1459 C1488 0.950 . S
H1460 C1490 0.950 . S
H1461 C1491 0.950 . S
C1462 H1444 0.951 . S
C1462 C1463 1.366 . S
C1462 C1464 1.388 . S
C1463 C1462 1.366 . S
C1463 C1467 1.385 . S
C1464 H1445 0.951 . S
C1464 C1462 1.388 . S
C1464 C1465 1.366 . S
C1465 C1464 1.366 . S
C1465 C1466 1.414 . S
C1465 C1468 1.499 . S
C1466 H1446 0.950 . S
C1466 C1465 1.414 . S
C1466 C1467 1.374 . S
C1467 H1447 0.950 . S
C1467 C1463 1.385 . S
C1467 C1466 1.374 . S
C1468 C1465 1.499 . S
C1468 C1469 1.373 . S
C1468 C1470 1.389 . S
C1469 H1448 0.950 . S
C1469 C1468 1.373 . S
C1469 C1485 1.377 . S
C1470 C1468 1.389 . S
C1470 C1471 1.524 . S
C1470 C1484 1.377 . S
C1471 C1470 1.524 . S
C1471 C1472 1.397 . S
C1471 C1476 1.363 . S
C1472 H1449 0.950 . S
C1472 C1471 1.397 . S
C1472 C1473 1.334 . S
C1473 H1450 0.950 . S
C1473 C1472 1.334 . S
C1473 C1474 1.287 . S
C1474 C1473 1.287 . S
C1474 C1475 1.524 . S
C1474 H1493 0.913 . S
C1475 H1451 0.950 . S
C1475 C1474 1.524 . S
C1475 C1476 1.415 . S
C1476 H1452 0.950 . S
C1476 C1471 1.363 . S
C1476 C1475 1.415 . S
C1477 H1453 0.951 . S
C1477 C1478 1.366 . S
C1477 C1479 1.388 . S
C1478 C1477 1.366 . S
C1478 C1482 1.385 . S
C1479 H1454 0.951 . S
C1479 C1477 1.388 . S
C1479 C1480 1.366 . S
C1480 C1479 1.366 . S
C1480 C1481 1.414 . S
C1480 C1483 1.499 . S
C1481 H1455 0.950 . S
C1481 C1480 1.414 . S
C1481 C1482 1.374 . S
C1482 H1456 0.950 . S
C1482 C1478 1.385 . S
C1482 C1481 1.374 . S
C1483 C1480 1.499 . S
C1483 C1484 1.373 . S
C1483 C1485 1.389 . S
C1484 H1457 0.950 . S
C1484 C1470 1.377 . S
C1484 C1483 1.373 . S
C1485 C1469 1.377 . S
C1485 C1483 1.389 . S
C1485 C1486 1.524 . S
C1486 C1485 1.524 . S
C1486 C1487 1.397 . S
C1486 C1491 1.363 . S
C1487 H1458 0.950 . S
C1487 C1486 1.397 . S
C1487 C1488 1.334 . S
C1488 H1459 0.950 . S
C1488 C1487 1.334 . S
C1488 C1489 1.287 . S
C1489 C1488 1.287 . S
C1489 C1490 1.524 . S
C1489 H1492 0.999 . S
C1490 H1460 0.950 . S
C1490 C1489 1.524 . S
C1490 C1491 1.415 . S
C1491 H1461 0.950 . S
C1491 C1486 1.363 . S
C1491 C1490 1.415 . S
H1492 C1489 0.999 . S
H1493 C1474 0.913 . S
H1494 C1512 0.951 . S
H1495 C1514 0.951 . S
H1496 C1516 0.950 . S
H1497 C1517 0.950 . S
H1498 C1519 0.950 . S
H1499 C1522 0.950 . S
H1500 C1523 0.950 . S
H1501 C1525 0.950 . S
H1502 C1526 0.950 . S
H1503 C1527 0.951 . S
H1504 C1529 0.951 . S
H1505 C1531 0.950 . S
H1506 C1532 0.950 . S
H1507 C1534 0.950 . S
H1508 C1537 0.950 . S
H1509 C1538 0.950 . S
H1510 C1540 0.950 . S
H1511 C1541 0.950 . S
C1512 H1494 0.951 . S
C1512 C1513 1.366 . S
C1512 C1514 1.388 . S
C1513 C1512 1.366 . S
C1513 C1517 1.385 . S
C1514 H1495 0.951 . S
C1514 C1512 1.388 . S
C1514 C1515 1.366 . S
C1515 C1514 1.366 . S
C1515 C1516 1.414 . S
C1515 C1518 1.499 . S
C1516 H1496 0.950 . S
C1516 C1515 1.414 . S
C1516 C1517 1.374 . S
C1517 H1497 0.950 . S
C1517 C1513 1.385 . S
C1517 C1516 1.374 . S
C1518 C1515 1.499 . S
C1518 C1519 1.373 . S
C1518 C1520 1.389 . S
C1519 H1498 0.950 . S
C1519 C1518 1.373 . S
C1519 C1535 1.377 . S
C1520 C1518 1.389 . S
C1520 C1521 1.524 . S
C1520 C1534 1.377 . S
C1521 C1520 1.524 . S
C1521 C1522 1.397 . S
C1521 C1526 1.363 . S
C1522 H1499 0.950 . S
C1522 C1521 1.397 . S
C1522 C1523 1.334 . S
C1523 H1500 0.950 . S
C1523 C1522 1.334 . S
C1523 C1524 1.287 . S
C1524 C1523 1.287 . S
C1524 C1525 1.524 . S
C1524 H1543 0.913 . S
C1525 H1501 0.950 . S
C1525 C1524 1.524 . S
C1525 C1526 1.415 . S
C1526 H1502 0.950 . S
C1526 C1521 1.363 . S
C1526 C1525 1.415 . S
C1527 H1503 0.951 . S
C1527 C1528 1.366 . S
C1527 C1529 1.388 . S
C1528 C1527 1.366 . S
C1528 C1532 1.385 . S
C1529 H1504 0.951 . S
C1529 C1527 1.388 . S
C1529 C1530 1.366 . S
C1530 C1529 1.366 . S
C1530 C1531 1.414 . S
C1530 C1533 1.499 . S
C1531 H1505 0.950 . S
C1531 C1530 1.414 . S
C1531 C1532 1.374 . S
C1532 H1506 0.950 . S
C1532 C1528 1.385 . S
C1532 C1531 1.374 . S
C1533 C1530 1.499 . S
C1533 C1534 1.373 . S
C1533 C1535 1.389 . S
C1534 H1507 0.950 . S
C1534 C1520 1.377 . S
C1534 C1533 1.373 . S
C1535 C1519 1.377 . S
C1535 C1533 1.389 . S
C1535 C1536 1.524 . S
C1536 C1535 1.524 . S
C1536 C1537 1.397 . S
C1536 C1541 1.363 . S
C1537 H1508 0.950 . S
C1537 C1536 1.397 . S
C1537 C1538 1.334 . S
C1538 H1509 0.950 . S
C1538 C1537 1.334 . S
C1538 C1539 1.287 . S
C1539 C1538 1.287 . S
C1539 C1540 1.524 . S
C1539 H1542 0.999 . S
C1540 H1510 0.950 . S
C1540 C1539 1.524 . S
C1540 C1541 1.415 . S
C1541 H1511 0.950 . S
C1541 C1536 1.363 . S
C1541 C1540 1.415 . S
H1542 C1539 0.999 . S
H1543 C1524 0.913 . S
H1544 C1562 0.951 . S
H1545 C1564 0.951 . S
H1546 C1566 0.950 . S
H1547 C1567 0.950 . S
H1548 C1569 0.950 . S
H1549 C1572 0.950 . S
H1550 C1573 0.950 . S
H1551 C1575 0.950 . S
H1552 C1576 0.950 . S
H1553 C1577 0.951 . S
H1554 C1579 0.951 . S
H1555 C1581 0.950 . S
H1556 C1582 0.950 . S
H1557 C1584 0.950 . S
H1558 C1587 0.950 . S
H1559 C1588 0.950 . S
H1560 C1590 0.950 . S
H1561 C1591 0.950 . S
C1562 H1544 0.951 . S
C1562 C1563 1.366 . S
C1562 C1564 1.388 . S
C1563 C1562 1.366 . S
C1563 C1567 1.385 . S
C1564 H1545 0.951 . S
C1564 C1562 1.388 . S
C1564 C1565 1.366 . S
C1565 C1564 1.366 . S
C1565 C1566 1.414 . S
C1565 C1568 1.499 . S
C1566 H1546 0.950 . S
C1566 C1565 1.414 . S
C1566 C1567 1.374 . S
C1567 H1547 0.950 . S
C1567 C1563 1.385 . S
C1567 C1566 1.374 . S
C1568 C1565 1.499 . S
C1568 C1569 1.373 . S
C1568 C1570 1.389 . S
C1569 H1548 0.950 . S
C1569 C1568 1.373 . S
C1569 C1585 1.377 . S
C1570 C1568 1.389 . S
C1570 C1571 1.524 . S
C1570 C1584 1.377 . S
C1571 C1570 1.524 . S
C1571 C1572 1.397 . S
C1571 C1576 1.363 . S
C1572 H1549 0.950 . S
C1572 C1571 1.397 . S
C1572 C1573 1.334 . S
C1573 H1550 0.950 . S
C1573 C1572 1.334 . S
C1573 C1574 1.287 . S
C1574 C1573 1.287 . S
C1574 C1575 1.524 . S
C1574 H1593 0.913 . S
C1575 H1551 0.950 . S
C1575 C1574 1.524 . S
C1575 C1576 1.415 . S
C1576 H1552 0.950 . S
C1576 C1571 1.363 . S
C1576 C1575 1.415 . S
C1577 H1553 0.951 . S
C1577 C1578 1.366 . S
C1577 C1579 1.388 . S
C1578 C1577 1.366 . S
C1578 C1582 1.385 . S
C1579 H1554 0.951 . S
C1579 C1577 1.388 . S
C1579 C1580 1.366 . S
C1580 C1579 1.366 . S
C1580 C1581 1.414 . S
C1580 C1583 1.499 . S
C1581 H1555 0.950 . S
C1581 C1580 1.414 . S
C1581 C1582 1.374 . S
C1582 H1556 0.950 . S
C1582 C1578 1.385 . S
C1582 C1581 1.374 . S
C1583 C1580 1.499 . S
C1583 C1584 1.373 . S
C1583 C1585 1.389 . S
C1584 H1557 0.950 . S
C1584 C1570 1.377 . S
C1584 C1583 1.373 . S
C1585 C1569 1.377 . S
C1585 C1583 1.389 . S
C1585 C1586 1.524 . S
C1586 C1585 1.524 . S
C1586 C1587 1.397 . S
C1586 C1591 1.363 . S
C1587 H1558 0.950 . S
C1587 C1586 1.397 . S
C1587 C1588 1.334 . S
C1588 H1559 0.950 . S
C1588 C1587 1.334 . S
C1588 C1589 1.287 . S
C1589 C1588 1.287 . S
C1589 C1590 1.524 . S
C1589 H1592 0.999 . S
C1590 H1560 0.950 . S
C1590 C1589 1.524 . S
C1590 C1591 1.415 . S
C1591 H1561 0.950 . S
C1591 C1586 1.363 . S
C1591 C1590 1.415 . S
H1592 C1589 0.999 . S
H1593 C1574 0.913 . S
H1594 C1612 0.951 . S
H1595 C1614 0.951 . S
H1596 C1616 0.950 . S
H1597 C1617 0.950 . S
H1598 C1619 0.950 . S
H1599 C1622 0.950 . S
H1600 C1623 0.950 . S
H1601 C1625 0.950 . S
H1602 C1626 0.950 . S
H1603 C1627 0.951 . S
H1604 C1629 0.951 . S
H1605 C1631 0.950 . S
H1606 C1632 0.950 . S
H1607 C1634 0.950 . S
H1608 C1637 0.950 . S
H1609 C1638 0.950 . S
H1610 C1640 0.950 . S
H1611 C1641 0.950 . S
C1612 H1594 0.951 . S
C1612 C1613 1.366 . S
C1612 C1614 1.388 . S
C1613 C1612 1.366 . S
C1613 C1617 1.385 . S
C1614 H1595 0.951 . S
C1614 C1612 1.388 . S
C1614 C1615 1.366 . S
C1615 C1614 1.366 . S
C1615 C1616 1.414 . S
C1615 C1618 1.499 . S
C1616 H1596 0.950 . S
C1616 C1615 1.414 . S
C1616 C1617 1.374 . S
C1617 H1597 0.950 . S
C1617 C1613 1.385 . S
C1617 C1616 1.374 . S
C1618 C1615 1.499 . S
C1618 C1619 1.373 . S
C1618 C1620 1.389 . S
C1619 H1598 0.950 . S
C1619 C1618 1.373 . S
C1619 C1635 1.377 . S
C1620 C1618 1.389 . S
C1620 C1621 1.524 . S
C1620 C1634 1.377 . S
C1621 C1620 1.524 . S
C1621 C1622 1.397 . S
C1621 C1626 1.363 . S
C1622 H1599 0.950 . S
C1622 C1621 1.397 . S
C1622 C1623 1.334 . S
C1623 H1600 0.950 . S
C1623 C1622 1.334 . S
C1623 C1624 1.287 . S
C1624 C1623 1.287 . S
C1624 C1625 1.524 . S
C1624 H1643 0.913 . S
C1625 H1601 0.950 . S
C1625 C1624 1.524 . S
C1625 C1626 1.415 . S
C1626 H1602 0.950 . S
C1626 C1621 1.363 . S
C1626 C1625 1.415 . S
C1627 H1603 0.951 . S
C1627 C1628 1.366 . S
C1627 C1629 1.388 . S
C1628 C1627 1.366 . S
C1628 C1632 1.385 . S
C1629 H1604 0.951 . S
C1629 C1627 1.388 . S
C1629 C1630 1.366 . S
C1630 C1629 1.366 . S
C1630 C1631 1.414 . S
C1630 C1633 1.499 . S
C1631 H1605 0.950 . S
C1631 C1630 1.414 . S
C1631 C1632 1.374 . S
C1632 H1606 0.950 . S
C1632 C1628 1.385 . S
C1632 C1631 1.374 . S
C1633 C1630 1.499 . S
C1633 C1634 1.373 . S
C1633 C1635 1.389 . S
C1634 H1607 0.950 . S
C1634 C1620 1.377 . S
C1634 C1633 1.373 . S
C1635 C1619 1.377 . S
C1635 C1633 1.389 . S
C1635 C1636 1.524 . S
C1636 C1635 1.524 . S
C1636 C1637 1.397 . S
C1636 C1641 1.363 . S
C1637 H1608 0.950 . S
C1637 C1636 1.397 . S
C1637 C1638 1.334 . S
C1638 H1609 0.950 . S
C1638 C1637 1.334 . S
C1638 C1639 1.287 . S
C1639 C1638 1.287 . S
C1639 C1640 1.524 . S
C1639 H1642 0.999 . S
C1640 H1610 0.950 . S
C1640 C1639 1.524 . S
C1640 C1641 1.415 . S
C1641 H1611 0.950 . S
C1641 C1636 1.363 . S
C1641 C1640 1.415 . S
H1642 C1639 0.999 . S
H1643 C1624 0.913 . S
H1644 C1662 0.951 . S
H1645 C1664 0.951 . S
H1646 C1666 0.950 . S
H1647 C1667 0.950 . S
H1648 C1669 0.950 . S
H1649 C1672 0.950 . S
H1650 C1673 0.950 . S
H1651 C1675 0.950 . S
H1652 C1676 0.950 . S
H1653 C1677 0.951 . S
H1654 C1679 0.951 . S
H1655 C1681 0.950 . S
H1656 C1682 0.950 . S
H1657 C1684 0.950 . S
H1658 C1687 0.950 . S
H1659 C1688 0.950 . S
H1660 C1690 0.950 . S
H1661 C1691 0.950 . S
C1662 H1644 0.951 . S
C1662 C1663 1.366 . S
C1662 C1664 1.388 . S
C1663 C1662 1.366 . S
C1663 C1667 1.385 . S
C1664 H1645 0.951 . S
C1664 C1662 1.388 . S
C1664 C1665 1.366 . S
C1665 C1664 1.366 . S
C1665 C1666 1.414 . S
C1665 C1668 1.499 . S
C1666 H1646 0.950 . S
C1666 C1665 1.414 . S
C1666 C1667 1.374 . S
C1667 H1647 0.950 . S
C1667 C1663 1.385 . S
C1667 C1666 1.374 . S
C1668 C1665 1.499 . S
C1668 C1669 1.373 . S
C1668 C1670 1.389 . S
C1669 H1648 0.950 . S
C1669 C1668 1.373 . S
C1669 C1685 1.377 . S
C1670 C1668 1.389 . S
C1670 C1671 1.524 . S
C1670 C1684 1.377 . S
C1671 C1670 1.524 . S
C1671 C1672 1.397 . S
C1671 C1676 1.363 . S
C1672 H1649 0.950 . S
C1672 C1671 1.397 . S
C1672 C1673 1.334 . S
C1673 H1650 0.950 . S
C1673 C1672 1.334 . S
C1673 C1674 1.287 . S
C1674 C1673 1.287 . S
C1674 C1675 1.524 . S
C1674 H1693 0.913 . S
C1675 H1651 0.950 . S
C1675 C1674 1.524 . S
C1675 C1676 1.415 . S
C1676 H1652 0.950 . S
C1676 C1671 1.363 . S
C1676 C1675 1.415 . S
C1677 H1653 0.951 . S
C1677 C1678 1.366 . S
C1677 C1679 1.388 . S
C1678 C1677 1.366 . S
C1678 C1682 1.385 . S
C1679 H1654 0.951 . S
C1679 C1677 1.388 . S
C1679 C1680 1.366 . S
C1680 C1679 1.366 . S
C1680 C1681 1.414 . S
C1680 C1683 1.499 . S
C1681 H1655 0.950 . S
C1681 C1680 1.414 . S
C1681 C1682 1.374 . S
C1682 H1656 0.950 . S
C1682 C1678 1.385 . S
C1682 C1681 1.374 . S
C1683 C1680 1.499 . S
C1683 C1684 1.373 . S
C1683 C1685 1.389 . S
C1684 H1657 0.950 . S
C1684 C1670 1.377 . S
C1684 C1683 1.373 . S
C1685 C1669 1.377 . S
C1685 C1683 1.389 . S
C1685 C1686 1.524 . S
C1686 C1685 1.524 . S
C1686 C1687 1.397 . S
C1686 C1691 1.363 . S
C1687 H1658 0.950 . S
C1687 C1686 1.397 . S
C1687 C1688 1.334 . S
C1688 H1659 0.950 . S
C1688 C1687 1.334 . S
C1688 C1689 1.287 . S
C1689 C1688 1.287 . S
C1689 C1690 1.524 . S
C1689 H1692 0.999 . S
C1690 H1660 0.950 . S
C1690 C1689 1.524 . S
C1690 C1691 1.415 . S
C1691 H1661 0.950 . S
C1691 C1686 1.363 . S
C1691 C1690 1.415 . S
H1692 C1689 0.999 . S
H1693 C1674 0.913 . S
H1694 C1712 0.951 . S
H1695 C1714 0.951 . S
H1696 C1716 0.950 . S
H1697 C1717 0.950 . S
H1698 C1719 0.950 . S
H1699 C1722 0.950 . S
H1700 C1723 0.950 . S
H1701 C1725 0.950 . S
H1702 C1726 0.950 . S
H1703 C1727 0.951 . S
H1704 C1729 0.951 . S
H1705 C1731 0.950 . S
H1706 C1732 0.950 . S
H1707 C1734 0.950 . S
H1708 C1737 0.950 . S
H1709 C1738 0.950 . S
H1710 C1740 0.950 . S
H1711 C1741 0.950 . S
C1712 H1694 0.951 . S
C1712 C1713 1.366 . S
C1712 C1714 1.388 . S
C1713 C1712 1.366 . S
C1713 C1717 1.385 . S
C1714 H1695 0.951 . S
C1714 C1712 1.388 . S
C1714 C1715 1.366 . S
C1715 C1714 1.366 . S
C1715 C1716 1.414 . S
C1715 C1718 1.499 . S
C1716 H1696 0.950 . S
C1716 C1715 1.414 . S
C1716 C1717 1.374 . S
C1717 H1697 0.950 . S
C1717 C1713 1.385 . S
C1717 C1716 1.374 . S
C1718 C1715 1.499 . S
C1718 C1719 1.373 . S
C1718 C1720 1.389 . S
C1719 H1698 0.950 . S
C1719 C1718 1.373 . S
C1719 C1735 1.377 . S
C1720 C1718 1.389 . S
C1720 C1721 1.524 . S
C1720 C1734 1.377 . S
C1721 C1720 1.524 . S
C1721 C1722 1.397 . S
C1721 C1726 1.363 . S
C1722 H1699 0.950 . S
C1722 C1721 1.397 . S
C1722 C1723 1.334 . S
C1723 H1700 0.950 . S
C1723 C1722 1.334 . S
C1723 C1724 1.287 . S
C1724 C1723 1.287 . S
C1724 C1725 1.524 . S
C1724 H1743 0.913 . S
C1725 H1701 0.950 . S
C1725 C1724 1.524 . S
C1725 C1726 1.415 . S
C1726 H1702 0.950 . S
C1726 C1721 1.363 . S
C1726 C1725 1.415 . S
C1727 H1703 0.951 . S
C1727 C1728 1.366 . S
C1727 C1729 1.388 . S
C1728 C1727 1.366 . S
C1728 C1732 1.385 . S
C1729 H1704 0.951 . S
C1729 C1727 1.388 . S
C1729 C1730 1.366 . S
C1730 C1729 1.366 . S
C1730 C1731 1.414 . S
C1730 C1733 1.499 . S
C1731 H1705 0.950 . S
C1731 C1730 1.414 . S
C1731 C1732 1.374 . S
C1732 H1706 0.950 . S
C1732 C1728 1.385 . S
C1732 C1731 1.374 . S
C1733 C1730 1.499 . S
C1733 C1734 1.373 . S
C1733 C1735 1.389 . S
C1734 H1707 0.950 . S
C1734 C1720 1.377 . S
C1734 C1733 1.373 . S
C1735 C1719 1.377 . S
C1735 C1733 1.389 . S
C1735 C1736 1.524 . S
C1736 C1735 1.524 . S
C1736 C1737 1.397 . S
C1736 C1741 1.363 . S
C1737 H1708 0.950 . S
C1737 C1736 1.397 . S
C1737 C1738 1.334 . S
C1738 H1709 0.950 . S
C1738 C1737 1.334 . S
C1738 C1739 1.287 . S
C1739 C1738 1.287 . S
C1739 C1740 1.524 . S
C1739 H1742 0.999 . S
C1740 H1710 0.950 . S
C1740 C1739 1.524 . S
C1740 C1741 1.415 . S
C1741 H1711 0.950 . S
C1741 C1736 1.363 . S
C1741 C1740 1.415 . S
H1742 C1739 0.999 . S
H1743 C1724 0.913 . S
H1744 C1762 0.951 . S
H1745 C1764 0.951 . S
H1746 C1766 0.950 1_655 S
H1747 C1767 0.950 . S
H1748 C1769 0.950 . S
H1749 C1772 0.950 . S
H1750 C1773 0.950 . S
H1751 C1775 0.950 . S
H1752 C1776 0.950 . S
H1753 C1777 0.951 . S
H1754 C1779 0.951 . S
H1755 C1781 0.950 1_455 S
H1756 C1782 0.950 . S
H1757 C1784 0.950 . S
H1758 C1787 0.950 . S
H1759 C1788 0.950 . S
H1760 C1790 0.950 . S
H1761 C1791 0.950 . S
C1762 H1744 0.951 . S
C1762 C1763 1.366 . S
C1762 C1764 1.388 . S
C1763 C1762 1.366 . S
C1763 C1767 1.385 . S
C1764 H1745 0.951 . S
C1764 C1762 1.388 . S
C1764 C1765 1.366 . S
C1765 C1764 1.366 . S
C1765 C1766 1.414 . S
C1765 C1768 1.499 . S
C1766 H1746 0.950 1_455 S
C1766 C1765 1.414 . S
C1766 C1767 1.374 . S
C1767 H1747 0.950 . S
C1767 C1763 1.385 . S
C1767 C1766 1.374 . S
C1768 C1765 1.499 . S
C1768 C1769 1.373 1_455 S
C1768 C1770 1.389 . S
C1769 H1748 0.950 . S
C1769 C1768 1.373 1_655 S
C1769 C1785 1.377 1_545 S
C1770 C1768 1.389 . S
C1770 C1771 1.524 . S
C1770 C1784 1.377 1_545 S
C1771 C1770 1.524 . S
C1771 C1772 1.397 . S
C1771 C1776 1.363 1_545 S
C1772 H1749 0.950 . S
C1772 C1771 1.397 . S
C1772 C1773 1.334 . S
C1773 H1750 0.950 . S
C1773 C1772 1.334 . S
C1773 C1774 1.287 . S
C1774 C1773 1.287 . S
C1774 C1775 1.524 1_545 S
C1774 H1793 0.913 . S
C1775 H1751 0.950 . S
C1775 C1774 1.524 1_565 S
C1775 C1776 1.415 . S
C1776 H1752 0.950 . S
C1776 C1771 1.363 1_565 S
C1776 C1775 1.415 . S
C1777 H1753 0.951 . S
C1777 C1778 1.366 . S
C1777 C1779 1.388 . S
C1778 C1777 1.366 . S
C1778 C1782 1.385 . S
C1779 H1754 0.951 . S
C1779 C1777 1.388 . S
C1779 C1780 1.366 . S
C1780 C1779 1.366 . S
C1780 C1781 1.414 . S
C1780 C1783 1.499 . S
C1781 H1755 0.950 1_655 S
C1781 C1780 1.414 . S
C1781 C1782 1.374 . S
C1782 H1756 0.950 . S
C1782 C1778 1.385 . S
C1782 C1781 1.374 . S
C1783 C1780 1.499 . S
C1783 C1784 1.373 1_655 S
C1783 C1785 1.389 . S
C1784 H1757 0.950 . S
C1784 C1770 1.377 1_565 S
C1784 C1783 1.373 1_455 S
C1785 C1769 1.377 1_565 S
C1785 C1783 1.389 . S
C1785 C1786 1.524 . S
C1786 C1785 1.524 . S
C1786 C1787 1.397 . S
C1786 C1791 1.363 1_565 S
C1787 H1758 0.950 . S
C1787 C1786 1.397 . S
C1787 C1788 1.334 . S
C1788 H1759 0.950 . S
C1788 C1787 1.334 . S
C1788 C1789 1.287 . S
C1789 C1788 1.287 . S
C1789 C1790 1.524 1_565 S
C1789 H1792 0.999 . S
C1790 H1760 0.950 . S
C1790 C1789 1.524 1_545 S
C1790 C1791 1.415 . S
C1791 H1761 0.950 . S
C1791 C1786 1.363 1_545 S
C1791 C1790 1.415 . S
H1792 C1789 0.999 . S
H1793 C1774 0.913 . S
H1794 C1812 0.951 . S
H1795 C1814 0.951 . S
H1796 C1816 0.950 . S
H1797 C1817 0.950 . S
H1798 C1819 0.950 . S
H1799 C1822 0.950 . S
H1800 C1823 0.950 . S
H1801 C1825 0.950 . S
H1802 C1826 0.950 . S
H1803 C1827 0.951 . S
H1804 C1829 0.951 . S
H1805 C1831 0.950 . S
H1806 C1832 0.950 . S
H1807 C1834 0.950 . S
H1808 C1837 0.950 . S
H1809 C1838 0.950 . S
H1810 C1840 0.950 . S
H1811 C1841 0.950 . S
C1812 H1794 0.951 . S
C1812 C1813 1.366 . S
C1812 C1814 1.388 . S
C1813 C1812 1.366 . S
C1813 C1817 1.385 . S
C1814 H1795 0.951 . S
C1814 C1812 1.388 . S
C1814 C1815 1.366 . S
C1815 C1814 1.366 . S
C1815 C1816 1.414 . S
C1815 C1818 1.499 . S
C1816 H1796 0.950 . S
C1816 C1815 1.414 . S
C1816 C1817 1.374 . S
C1817 H1797 0.950 . S
C1817 C1813 1.385 . S
C1817 C1816 1.374 . S
C1818 C1815 1.499 . S
C1818 C1819 1.373 . S
C1818 C1820 1.428 . S
C1819 H1798 0.950 . S
C1819 C1818 1.373 . S
C1819 C1835 1.337 1_455 S
C1820 C1818 1.428 . S
C1820 C1821 1.524 . S
C1820 C1834 1.337 1_455 S
C1821 C1820 1.524 . S
C1821 C1822 1.406 . S
C1821 C1826 1.353 1_455 S
C1822 H1799 0.950 . S
C1822 C1821 1.406 . S
C1822 C1823 1.334 . S
C1823 H1800 0.950 . S
C1823 C1822 1.334 . S
C1823 C1824 1.298 . S
C1824 C1823 1.298 . S
C1824 C1825 1.513 1_455 S
C1824 H1843 0.914 . S
C1825 H1801 0.950 . S
C1825 C1824 1.513 1_655 S
C1825 C1826 1.415 . S
C1826 H1802 0.950 . S
C1826 C1821 1.353 1_655 S
C1826 C1825 1.415 . S
C1827 H1803 0.951 . S
C1827 C1828 1.366 . S
C1827 C1829 1.388 . S
C1828 C1827 1.366 . S
C1828 C1832 1.385 . S
C1829 H1804 0.951 . S
C1829 C1827 1.388 . S
C1829 C1830 1.366 . S
C1830 C1829 1.366 . S
C1830 C1831 1.414 . S
C1830 C1833 1.499 . S
C1831 H1805 0.950 . S
C1831 C1830 1.414 . S
C1831 C1832 1.374 . S
C1832 H1806 0.950 . S
C1832 C1828 1.385 . S
C1832 C1831 1.374 . S
C1833 C1830 1.499 . S
C1833 C1834 1.373 . S
C1833 C1835 1.428 . S
C1834 H1807 0.950 . S
C1834 C1820 1.337 1_655 S
C1834 C1833 1.373 . S
C1835 C1819 1.337 1_655 S
C1835 C1833 1.428 . S
C1835 C1836 1.524 . S
C1836 C1835 1.524 . S
C1836 C1837 1.406 . S
C1836 C1841 1.353 1_655 S
C1837 H1808 0.950 . S
C1837 C1836 1.406 . S
C1837 C1838 1.334 . S
C1838 H1809 0.950 . S
C1838 C1837 1.334 . S
C1838 C1839 1.298 . S
C1839 C1838 1.298 . S
C1839 C1840 1.513 1_655 S
C1839 H1842 0.999 1_655 S
C1840 H1810 0.950 . S
C1840 C1839 1.513 1_455 S
C1840 C1841 1.415 . S
C1841 H1811 0.950 . S
C1841 C1836 1.353 1_455 S
C1841 C1840 1.415 . S
H1842 C1839 0.999 1_455 S
H1843 C1824 0.914 . S
H1844 C1862 0.951 . S
H1845 C1864 0.951 . S
H1846 C1866 0.950 . S
H1847 C1867 0.950 . S
H1848 C1869 0.950 . S
H1849 C1872 0.950 . S
H1850 C1873 0.950 . S
H1851 C1875 0.950 . S
H1852 C1876 0.950 . S
H1853 C1877 0.951 . S
H1854 C1879 0.951 . S
H1855 C1881 0.950 . S
H1856 C1882 0.950 . S
H1857 C1884 0.950 . S
H1858 C1887 0.950 . S
H1859 C1888 0.950 . S
H1860 C1890 0.950 . S
H1861 C1891 0.950 . S
C1862 H1844 0.951 . S
C1862 C1863 1.366 . S
C1862 C1864 1.388 . S
C1863 C1862 1.366 . S
C1863 C1867 1.385 . S
C1864 H1845 0.951 . S
C1864 C1862 1.388 . S
C1864 C1865 1.366 . S
C1865 C1864 1.366 . S
C1865 C1866 1.414 . S
C1865 C1868 1.499 . S
C1866 H1846 0.950 . S
C1866 C1865 1.414 . S
C1866 C1867 1.374 . S
C1867 H1847 0.950 . S
C1867 C1863 1.385 . S
C1867 C1866 1.374 . S
C1868 C1865 1.499 . S
C1868 C1869 1.373 . S
C1868 C1870 1.389 . S
C1869 H1848 0.950 . S
C1869 C1868 1.373 . S
C1869 C1885 1.377 . S
C1870 C1868 1.389 . S
C1870 C1871 1.524 . S
C1870 C1884 1.377 . S
C1871 C1870 1.524 . S
C1871 C1872 1.397 . S
C1871 C1876 1.363 . S
C1872 H1849 0.950 . S
C1872 C1871 1.397 . S
C1872 C1873 1.334 . S
C1873 H1850 0.950 . S
C1873 C1872 1.334 . S
C1873 C1874 1.287 . S
C1874 C1873 1.287 . S
C1874 C1875 1.524 . S
C1874 H1893 0.913 . S
C1875 H1851 0.950 . S
C1875 C1874 1.524 . S
C1875 C1876 1.415 . S
C1876 H1852 0.950 . S
C1876 C1871 1.363 . S
C1876 C1875 1.415 . S
C1877 H1853 0.951 . S
C1877 C1878 1.366 . S
C1877 C1879 1.388 . S
C1878 C1877 1.366 . S
C1878 C1882 1.385 . S
C1879 H1854 0.951 . S
C1879 C1877 1.388 . S
C1879 C1880 1.366 . S
C1880 C1879 1.366 . S
C1880 C1881 1.414 . S
C1880 C1883 1.499 . S
C1881 H1855 0.950 . S
C1881 C1880 1.414 . S
C1881 C1882 1.374 . S
C1882 H1856 0.950 . S
C1882 C1878 1.385 . S
C1882 C1881 1.374 . S
C1883 C1880 1.499 . S
C1883 C1884 1.373 . S
C1883 C1885 1.389 . S
C1884 H1857 0.950 . S
C1884 C1870 1.377 . S
C1884 C1883 1.373 . S
C1885 C1869 1.377 . S
C1885 C1883 1.389 . S
C1885 C1886 1.524 . S
C1886 C1885 1.524 . S
C1886 C1887 1.397 . S
C1886 C1891 1.363 . S
C1887 H1858 0.950 . S
C1887 C1886 1.397 . S
C1887 C1888 1.334 . S
C1888 H1859 0.950 . S
C1888 C1887 1.334 . S
C1888 C1889 1.287 . S
C1889 C1888 1.287 . S
C1889 C1890 1.524 . S
C1889 H1892 0.999 . S
C1890 H1860 0.950 . S
C1890 C1889 1.524 . S
C1890 C1891 1.415 . S
C1891 H1861 0.950 . S
C1891 C1886 1.363 . S
C1891 C1890 1.415 . S
H1892 C1889 0.999 . S
H1893 C1874 0.913 . S
H1894 C1912 0.951 . S
H1895 C1914 0.951 . S
H1896 C1916 0.950 1_565 S
H1897 C1917 0.950 . S
H1898 C1919 0.950 . S
H1899 C1922 0.917 1_565 S
H1900 C1923 0.950 . S
H1901 C1925 0.950 . S
H1902 C1926 0.950 . S
H1903 C1927 0.951 . S
H1904 C1929 0.951 . S
H1905 C1931 0.950 1_545 S
H1906 C1932 0.950 . S
H1907 C1934 0.950 . S
H1908 C1937 0.917 1_545 S
H1909 C1938 0.950 . S
H1910 C1940 0.950 . S
H1911 C1941 0.950 . S
C1912 H1894 0.951 . S
C1912 C1913 1.366 . S
C1912 C1914 1.388 . S
C1913 C1912 1.366 . S
C1913 C1917 1.385 . S
C1914 H1895 0.951 . S
C1914 C1912 1.388 . S
C1914 C1915 1.366 . S
C1915 C1914 1.366 . S
C1915 C1916 1.414 . S
C1915 C1918 1.499 . S
C1916 H1896 0.950 1_545 S
C1916 C1915 1.414 . S
C1916 C1917 1.374 . S
C1917 H1897 0.950 . S
C1917 C1913 1.385 . S
C1917 C1916 1.374 . S
C1918 C1915 1.499 . S
C1918 C1919 1.379 . S
C1918 C1920 1.389 . S
C1919 H1898 0.950 . S
C1919 C1918 1.379 . S
C1919 C1935 1.371 1_545 S
C1920 C1918 1.389 . S
C1920 C1921 1.524 . S
C1920 C1934 1.371 1_545 S
C1921 C1920 1.524 . S
C1921 C1922 1.397 . S
C1921 C1926 1.363 . S
C1922 H1899 0.917 1_545 S
C1922 C1921 1.397 . S
C1922 C1923 1.334 1_554 S
C1923 H1900 0.950 . S
C1923 C1922 1.334 1_556 S
C1923 C1924 1.287 . S
C1924 C1923 1.287 . S
C1924 C1925 1.524 . S
C1924 H1943 0.913 . S
C1925 H1901 0.950 . S
C1925 C1924 1.524 . S
C1925 C1926 1.415 1_556 S
C1926 H1902 0.950 . S
C1926 C1921 1.363 . S
C1926 C1925 1.415 1_554 S
C1927 H1903 0.951 . S
C1927 C1928 1.366 . S
C1927 C1929 1.388 . S
C1928 C1927 1.366 . S
C1928 C1932 1.385 . S
C1929 H1904 0.951 . S
C1929 C1927 1.388 . S
C1929 C1930 1.366 . S
C1930 C1929 1.366 . S
C1930 C1931 1.414 . S
C1930 C1933 1.499 . S
C1931 H1905 0.950 1_565 S
C1931 C1930 1.414 . S
C1931 C1932 1.374 . S
C1932 H1906 0.950 . S
C1932 C1928 1.385 . S
C1932 C1931 1.374 . S
C1933 C1930 1.499 . S
C1933 C1934 1.379 . S
C1933 C1935 1.389 . S
C1934 H1907 0.950 . S
C1934 C1920 1.371 1_565 S
C1934 C1933 1.379 . S
C1935 C1919 1.371 1_565 S
C1935 C1933 1.389 . S
C1935 C1936 1.524 . S
C1936 C1935 1.524 . S
C1936 C1937 1.397 . S
C1936 C1941 1.363 . S
C1937 H1908 0.917 1_565 S
C1937 C1936 1.397 . S
C1937 C1938 1.334 . S
C1938 H1909 0.950 . S
C1938 C1937 1.334 . S
C1938 C1939 1.287 . S
C1939 C1938 1.287 . S
C1939 C1940 1.524 . S
C1939 H1942 0.999 . S
C1940 H1910 0.950 . S
C1940 C1939 1.524 . S
C1940 C1941 1.415 . S
C1941 H1911 0.950 . S
C1941 C1936 1.363 . S
C1941 C1940 1.415 . S
H1942 C1939 0.999 . S
H1943 C1924 0.913 . S
H1944 C1962 0.951 . S
H1945 C1964 0.951 . S
H1946 C1966 0.950 . S
H1947 C1967 0.950 . S
H1948 C1969 0.950 . S
H1949 C1972 0.950 . S
H1950 C1973 0.950 . S
H1951 C1975 0.950 . S
H1952 C1976 0.950 . S
H1953 C1977 0.951 . S
H1954 C1979 0.951 . S
H1955 C1981 0.950 . S
H1956 C1982 0.950 . S
H1957 C1984 0.950 . S
H1958 C1987 0.950 . S
H1959 C1988 0.950 . S
H1960 C1990 0.950 . S
H1961 C1991 0.950 . S
C1962 H1944 0.951 . S
C1962 C1963 1.366 . S
C1962 C1964 1.388 . S
C1963 C1962 1.366 . S
C1963 C1967 1.385 . S
C1964 H1945 0.951 . S
C1964 C1962 1.388 . S
C1964 C1965 1.366 . S
C1965 C1964 1.366 . S
C1965 C1966 1.414 . S
C1965 C1968 1.499 . S
C1966 H1946 0.950 . S
C1966 C1965 1.414 . S
C1966 C1967 1.374 . S
C1967 H1947 0.950 . S
C1967 C1963 1.385 . S
C1967 C1966 1.374 . S
C1968 C1965 1.499 . S
C1968 C1969 1.373 1_455 S
C1968 C1970 1.389 . S
C1969 H1948 0.950 . S
C1969 C1968 1.373 1_655 S
C1969 C1985 1.377 . S
C1970 C1968 1.389 . S
C1970 C1971 1.524 . S
C1970 C1984 1.377 . S
C1971 C1970 1.524 . S
C1971 C1972 1.397 . S
C1971 C1976 1.363 . S
C1972 H1949 0.950 . S
C1972 C1971 1.397 . S
C1972 C1973 1.334 . S
C1973 H1950 0.950 . S
C1973 C1972 1.334 . S
C1973 C1974 1.287 . S
C1974 C1973 1.287 . S
C1974 C1975 1.524 . S
C1974 H1993 0.913 . S
C1975 H1951 0.950 . S
C1975 C1974 1.524 . S
C1975 C1976 1.415 . S
C1976 H1952 0.950 . S
C1976 C1971 1.363 . S
C1976 C1975 1.415 . S
C1977 H1953 0.951 . S
C1977 C1978 1.366 . S
C1977 C1979 1.388 . S
C1978 C1977 1.366 . S
C1978 C1982 1.385 . S
C1979 H1954 0.951 . S
C1979 C1977 1.388 . S
C1979 C1980 1.366 . S
C1980 C1979 1.366 . S
C1980 C1981 1.414 . S
C1980 C1983 1.499 . S
C1981 H1955 0.950 . S
C1981 C1980 1.414 . S
C1981 C1982 1.374 . S
C1982 H1956 0.950 . S
C1982 C1978 1.385 . S
C1982 C1981 1.374 . S
C1983 C1980 1.499 . S
C1983 C1984 1.373 1_655 S
C1983 C1985 1.389 . S
C1984 H1957 0.950 . S
C1984 C1970 1.377 . S
C1984 C1983 1.373 1_455 S
C1985 C1969 1.377 . S
C1985 C1983 1.389 . S
C1985 C1986 1.524 . S
C1986 C1985 1.524 . S
C1986 C1987 1.397 . S
C1986 C1991 1.363 . S
C1987 H1958 0.950 . S
C1987 C1986 1.397 . S
C1987 C1988 1.334 . S
C1988 H1959 0.950 . S
C1988 C1987 1.334 . S
C1988 C1989 1.287 . S
C1989 C1988 1.287 . S
C1989 C1990 1.524 . S
C1989 H1992 0.999 . S
C1990 H1960 0.950 . S
C1990 C1989 1.524 . S
C1990 C1991 1.415 . S
C1991 H1961 0.950 . S
C1991 C1986 1.363 . S
C1991 C1990 1.415 . S
H1992 C1989 0.999 . S
H1993 C1974 0.913 . S
H1994 C2012 0.951 . S
H1995 C2014 0.951 . S
H1996 C2016 0.950 . S
H1997 C2017 0.950 . S
H1998 C2019 0.950 . S
H1999 C2022 0.950 . S
H2000 C2023 0.950 . S
H2001 C2025 0.950 . S
H2002 C2026 0.950 . S
H2003 C2027 0.951 . S
H2004 C2029 0.951 . S
H2005 C2031 0.950 . S
H2006 C2032 0.950 . S
H2007 C2034 0.950 . S
H2008 C2037 0.950 . S
H2009 C2038 0.950 . S
H2010 C2040 0.950 . S
H2011 C2041 0.950 . S
C2012 H1994 0.951 . S
C2012 C2013 1.366 . S
C2012 C2014 1.388 . S
C2013 C2012 1.366 . S
C2013 C2017 1.385 . S
C2014 H1995 0.951 . S
C2014 C2012 1.388 . S
C2014 C2015 1.366 . S
C2015 C2014 1.366 . S
C2015 C2016 1.414 . S
C2015 C2018 1.499 . S
C2016 H1996 0.950 . S
C2016 C2015 1.414 . S
C2016 C2017 1.374 . S
C2017 H1997 0.950 . S
C2017 C2013 1.385 . S
C2017 C2016 1.374 . S
C2018 C2015 1.499 . S
C2018 C2019 1.373 . S
C2018 C2020 1.389 . S
C2019 H1998 0.950 . S
C2019 C2018 1.373 . S
C2019 C2035 1.377 . S
C2020 C2018 1.389 . S
C2020 C2021 1.524 . S
C2020 C2034 1.377 . S
C2021 C2020 1.524 . S
C2021 C2022 1.397 . S
C2021 C2026 1.363 . S
C2022 H1999 0.950 . S
C2022 C2021 1.397 . S
C2022 C2023 1.334 . S
C2023 H2000 0.950 . S
C2023 C2022 1.334 . S
C2023 C2024 1.287 . S
C2024 C2023 1.287 . S
C2024 C2025 1.524 . S
C2024 H2043 0.913 . S
C2025 H2001 0.950 . S
C2025 C2024 1.524 . S
C2025 C2026 1.415 . S
C2026 H2002 0.950 . S
C2026 C2021 1.363 . S
C2026 C2025 1.415 . S
C2027 H2003 0.951 . S
C2027 C2028 1.366 . S
C2027 C2029 1.388 . S
C2028 C2027 1.366 . S
C2028 C2032 1.385 . S
C2029 H2004 0.951 . S
C2029 C2027 1.388 . S
C2029 C2030 1.366 . S
C2030 C2029 1.366 . S
C2030 C2031 1.414 . S
C2030 C2033 1.499 . S
C2031 H2005 0.950 . S
C2031 C2030 1.414 . S
C2031 C2032 1.374 . S
C2032 H2006 0.950 . S
C2032 C2028 1.385 . S
C2032 C2031 1.374 . S
C2033 C2030 1.499 . S
C2033 C2034 1.373 . S
C2033 C2035 1.389 . S
C2034 H2007 0.950 . S
C2034 C2020 1.377 . S
C2034 C2033 1.373 . S
C2035 C2019 1.377 . S
C2035 C2033 1.389 . S
C2035 C2036 1.524 . S
C2036 C2035 1.524 . S
C2036 C2037 1.397 . S
C2036 C2041 1.363 . S
C2037 H2008 0.950 . S
C2037 C2036 1.397 . S
C2037 C2038 1.334 . S
C2038 H2009 0.950 . S
C2038 C2037 1.334 . S
C2038 C2039 1.287 . S
C2039 C2038 1.287 . S
C2039 C2040 1.524 . S
C2039 H2042 0.999 . S
C2040 H2010 0.950 . S
C2040 C2039 1.524 . S
C2040 C2041 1.415 . S
C2041 H2011 0.950 . S
C2041 C2036 1.363 . S
C2041 C2040 1.415 . S
H2042 C2039 0.999 . S
H2043 C2024 0.913 . S
H2044 C2062 0.951 . S
H2045 C2064 0.951 . S
H2046 C2066 0.950 . S
H2047 C2067 0.950 . S
H2048 C2069 0.950 . S
H2049 C2072 0.950 . S
H2050 C2073 0.950 . S
H2051 C2075 0.950 . S
H2052 C2076 0.950 . S
H2053 C2077 0.951 . S
H2054 C2079 0.951 . S
H2055 C2081 0.950 . S
H2056 C2082 0.950 . S
H2057 C2084 0.950 . S
H2058 C2087 0.950 . S
H2059 C2088 0.950 . S
H2060 C2090 0.950 . S
H2061 C2091 0.950 . S
C2062 H2044 0.951 . S
C2062 C2063 1.366 . S
C2062 C2064 1.388 . S
C2063 C2062 1.366 . S
C2063 C2067 1.385 . S
C2064 H2045 0.951 . S
C2064 C2062 1.388 . S
C2064 C2065 1.366 . S
C2065 C2064 1.366 . S
C2065 C2066 1.414 . S
C2065 C2068 1.499 . S
C2066 H2046 0.950 . S
C2066 C2065 1.414 . S
C2066 C2067 1.374 . S
C2067 H2047 0.950 . S
C2067 C2063 1.385 . S
C2067 C2066 1.374 . S
C2068 C2065 1.499 . S
C2068 C2069 1.373 . S
C2068 C2070 1.417 . S
C2069 H2048 0.950 . S
C2069 C2068 1.373 . S
C2069 C2085 1.348 1_565 S
C2070 C2068 1.417 . S
C2070 C2071 1.524 1_565 S
C2070 C2084 1.348 1_565 S
C2071 C2070 1.524 1_545 S
C2071 C2072 1.395 1_545 S
C2071 C2076 1.364 . S
C2072 H2049 0.950 . S
C2072 C2071 1.395 1_565 S
C2072 C2073 1.334 . S
C2073 H2050 0.950 . S
C2073 C2072 1.334 . S
C2073 C2074 1.263 1_565 S
C2074 C2073 1.263 1_545 S
C2074 C2075 1.547 . S
C2074 H2093 0.913 . S
C2075 H2051 0.950 . S
C2075 C2074 1.547 . S
C2075 C2076 1.415 . S
C2076 H2052 0.950 . S
C2076 C2071 1.364 . S
C2076 C2075 1.415 . S
C2077 H2053 0.951 . S
C2077 C2078 1.366 . S
C2077 C2079 1.388 . S
C2078 C2077 1.366 . S
C2078 C2082 1.385 . S
C2079 H2054 0.951 . S
C2079 C2077 1.388 . S
C2079 C2080 1.366 . S
C2080 C2079 1.366 . S
C2080 C2081 1.414 . S
C2080 C2083 1.499 . S
C2081 H2055 0.950 . S
C2081 C2080 1.414 . S
C2081 C2082 1.374 . S
C2082 H2056 0.950 . S
C2082 C2078 1.385 . S
C2082 C2081 1.374 . S
C2083 C2080 1.499 . S
C2083 C2084 1.373 . S
C2083 C2085 1.417 . S
C2084 H2057 0.950 . S
C2084 C2070 1.348 1_545 S
C2084 C2083 1.373 . S
C2085 C2069 1.348 1_545 S
C2085 C2083 1.417 . S
C2085 C2086 1.524 1_545 S
C2086 C2085 1.524 1_565 S
C2086 C2087 1.395 1_565 S
C2086 C2091 1.364 . S
C2087 H2058 0.950 . S
C2087 C2086 1.395 1_545 S
C2087 C2088 1.334 . S
C2088 H2059 0.950 . S
C2088 C2087 1.334 . S
C2088 C2089 1.263 1_545 S
C2089 C2088 1.263 1_565 S
C2089 C2090 1.547 . S
C2089 H2092 1.001 . S
C2090 H2060 0.950 . S
C2090 C2089 1.547 . S
C2090 C2091 1.415 . S
C2091 H2061 0.950 . S
C2091 C2086 1.364 . S
C2091 C2090 1.415 . S
H2092 C2089 1.001 . S
H2093 C2074 0.913 . S
H2094 C2112 0.951 . S
H2095 C2114 0.951 . S
H2096 C2116 0.950 . S
H2097 C2117 0.950 . S
H2098 C2119 0.950 . S
H2099 C2122 0.950 . S
H2100 C2123 0.950 . S
H2101 C2125 0.950 . S
H2102 C2126 0.950 1_565 S
H2103 C2127 0.951 . S
H2104 C2129 0.951 . S
H2105 C2131 0.950 . S
H2106 C2132 0.950 . S
H2107 C2134 0.950 . S
H2108 C2137 0.950 . S
H2109 C2138 0.950 . S
H2110 C2140 0.950 . S
H2111 C2141 0.950 1_545 S
C2112 H2094 0.951 . S
C2112 C2113 1.366 . S
C2112 C2114 1.388 . S
C2113 C2112 1.366 . S
C2113 C2117 1.385 . S
C2114 H2095 0.951 . S
C2114 C2112 1.388 . S
C2114 C2115 1.366 . S
C2115 C2114 1.366 . S
C2115 C2116 1.414 . S
C2115 C2118 1.499 . S
C2116 H2096 0.950 . S
C2116 C2115 1.414 . S
C2116 C2117 1.374 . S
C2117 H2097 0.950 . S
C2117 C2113 1.385 . S
C2117 C2116 1.374 . S
C2118 C2115 1.499 . S
C2118 C2119 1.373 . S
C2118 C2120 1.389 . S
C2119 H2098 0.950 . S
C2119 C2118 1.373 . S
C2119 C2135 1.377 1_445 S
C2120 C2118 1.389 . S
C2120 C2121 1.524 . S
C2120 C2134 1.377 1_445 S
C2121 C2120 1.524 . S
C2121 C2122 1.397 . S
C2121 C2126 1.363 . S
C2122 H2099 0.950 . S
C2122 C2121 1.397 . S
C2122 C2123 1.334 . S
C2123 H2100 0.950 . S
C2123 C2122 1.334 . S
C2123 C2124 1.287 . S
C2124 C2123 1.287 . S
C2124 C2125 1.524 . S
C2124 H2143 0.913 . S
C2125 H2101 0.950 . S
C2125 C2124 1.524 . S
C2125 C2126 1.415 . S
C2126 H2102 0.950 1_545 S
C2126 C2121 1.363 . S
C2126 C2125 1.415 . S
C2127 H2103 0.951 . S
C2127 C2128 1.366 . S
C2127 C2129 1.388 . S
C2128 C2127 1.366 . S
C2128 C2132 1.385 . S
C2129 H2104 0.951 . S
C2129 C2127 1.388 . S
C2129 C2130 1.366 . S
C2130 C2129 1.366 . S
C2130 C2131 1.414 . S
C2130 C2133 1.499 . S
C2131 H2105 0.950 . S
C2131 C2130 1.414 . S
C2131 C2132 1.374 . S
C2132 H2106 0.950 . S
C2132 C2128 1.385 . S
C2132 C2131 1.374 . S
C2133 C2130 1.499 . S
C2133 C2134 1.373 . S
C2133 C2135 1.389 . S
C2134 H2107 0.950 . S
C2134 C2120 1.377 1_665 S
C2134 C2133 1.373 . S
C2135 C2119 1.377 1_665 S
C2135 C2133 1.389 . S
C2135 C2136 1.524 . S
C2136 C2135 1.524 . S
C2136 C2137 1.397 . S
C2136 C2141 1.363 . S
C2137 H2108 0.950 . S
C2137 C2136 1.397 . S
C2137 C2138 1.334 . S
C2138 H2109 0.950 . S
C2138 C2137 1.334 . S
C2138 C2139 1.287 . S
C2139 C2138 1.287 . S
C2139 C2140 1.524 . S
C2139 H2142 0.999 . S
C2140 H2110 0.950 . S
C2140 C2139 1.524 . S
C2140 C2141 1.415 . S
C2141 H2111 0.950 1_565 S
C2141 C2136 1.363 . S
C2141 C2140 1.415 . S
H2142 C2139 0.999 . S
H2143 C2124 0.913 . S
H2144 C2162 0.951 . S
H2145 C2164 0.951 . S
H2146 C2166 0.950 . S
H2147 C2167 0.950 . S
H2148 C2169 0.950 . S
H2149 C2172 0.950 . S
H2150 C2173 0.950 . S
H2151 C2175 0.950 . S
H2152 C2176 0.950 . S
H2153 C2177 0.951 . S
H2154 C2179 0.951 . S
H2155 C2181 0.950 . S
H2156 C2182 0.950 . S
H2157 C2184 0.950 . S
H2158 C2187 0.950 . S
H2159 C2188 0.950 . S
H2160 C2190 0.950 . S
H2161 C2191 0.950 . S
C2162 H2144 0.951 . S
C2162 C2163 1.366 . S
C2162 C2164 1.388 . S
C2163 C2162 1.366 . S
C2163 C2167 1.385 . S
C2164 H2145 0.951 . S
C2164 C2162 1.388 . S
C2164 C2165 1.366 . S
C2165 C2164 1.366 . S
C2165 C2166 1.414 . S
C2165 C2168 1.499 . S
C2166 H2146 0.950 . S
C2166 C2165 1.414 . S
C2166 C2167 1.374 . S
C2167 H2147 0.950 . S
C2167 C2163 1.385 . S
C2167 C2166 1.374 . S
C2168 C2165 1.499 . S
C2168 C2169 1.373 . S
C2168 C2170 1.389 . S
C2169 H2148 0.950 . S
C2169 C2168 1.373 . S
C2169 C2185 1.377 . S
C2170 C2168 1.389 . S
C2170 C2171 1.524 . S
C2170 C2184 1.377 . S
C2171 C2170 1.524 . S
C2171 C2172 1.397 . S
C2171 C2176 1.363 . S
C2172 H2149 0.950 . S
C2172 C2171 1.397 . S
C2172 C2173 1.334 . S
C2173 H2150 0.950 . S
C2173 C2172 1.334 . S
C2173 C2174 1.287 . S
C2174 C2173 1.287 . S
C2174 C2175 1.524 . S
C2174 H2193 0.913 . S
C2175 H2151 0.950 . S
C2175 C2174 1.524 . S
C2175 C2176 1.415 . S
C2176 H2152 0.950 . S
C2176 C2171 1.363 . S
C2176 C2175 1.415 . S
C2177 H2153 0.951 . S
C2177 C2178 1.366 . S
C2177 C2179 1.388 . S
C2178 C2177 1.366 . S
C2178 C2182 1.385 . S
C2179 H2154 0.951 . S
C2179 C2177 1.388 . S
C2179 C2180 1.366 . S
C2180 C2179 1.366 . S
C2180 C2181 1.414 . S
C2180 C2183 1.499 . S
C2181 H2155 0.950 . S
C2181 C2180 1.414 . S
C2181 C2182 1.374 . S
C2182 H2156 0.950 . S
C2182 C2178 1.385 . S
C2182 C2181 1.374 . S
C2183 C2180 1.499 . S
C2183 C2184 1.373 . S
C2183 C2185 1.389 . S
C2184 H2157 0.950 . S
C2184 C2170 1.377 . S
C2184 C2183 1.373 . S
C2185 C2169 1.377 . S
C2185 C2183 1.389 . S
C2185 C2186 1.524 . S
C2186 C2185 1.524 . S
C2186 C2187 1.397 . S
C2186 C2191 1.363 . S
C2187 H2158 0.950 . S
C2187 C2186 1.397 . S
C2187 C2188 1.334 . S
C2188 H2159 0.950 . S
C2188 C2187 1.334 . S
C2188 C2189 1.287 . S
C2189 C2188 1.287 . S
C2189 C2190 1.524 . S
C2189 H2192 0.999 . S
C2190 H2160 0.950 . S
C2190 C2189 1.524 . S
C2190 C2191 1.415 . S
C2191 H2161 0.950 . S
C2191 C2186 1.363 . S
C2191 C2190 1.415 . S
H2192 C2189 0.999 . S
H2193 C2174 0.913 . S
H2194 C2212 0.951 . S
H2195 C2214 0.951 . S
H2196 C2216 0.950 . S
H2197 C2217 0.950 . S
H2198 C2219 0.950 . S
H2199 C2222 0.950 . S
H2200 C2223 0.950 . S
H2201 C2225 0.950 . S
H2202 C2226 0.950 . S
H2203 C2227 0.951 . S
H2204 C2229 0.951 . S
H2205 C2231 0.950 . S
H2206 C2232 0.950 . S
H2207 C2234 0.950 . S
H2208 C2237 0.950 . S
H2209 C2238 0.950 . S
H2210 C2240 0.950 . S
H2211 C2241 0.950 . S
C2212 H2194 0.951 . S
C2212 C2213 1.366 . S
C2212 C2214 1.388 . S
C2213 C2212 1.366 . S
C2213 C2217 1.385 . S
C2214 H2195 0.951 . S
C2214 C2212 1.388 . S
C2214 C2215 1.366 . S
C2215 C2214 1.366 . S
C2215 C2216 1.414 . S
C2215 C2218 1.499 . S
C2216 H2196 0.950 . S
C2216 C2215 1.414 . S
C2216 C2217 1.374 . S
C2217 H2197 0.950 . S
C2217 C2213 1.385 . S
C2217 C2216 1.374 . S
C2218 C2215 1.499 . S
C2218 C2219 1.373 . S
C2218 C2220 1.389 . S
C2219 H2198 0.950 . S
C2219 C2218 1.373 . S
C2219 C2235 1.377 . S
C2220 C2218 1.389 . S
C2220 C2221 1.524 . S
C2220 C2234 1.377 . S
C2221 C2220 1.524 . S
C2221 C2222 1.397 . S
C2221 C2226 1.363 . S
C2222 H2199 0.950 . S
C2222 C2221 1.397 . S
C2222 C2223 1.334 . S
C2223 H2200 0.950 . S
C2223 C2222 1.334 . S
C2223 C2224 1.287 . S
C2224 C2223 1.287 . S
C2224 C2225 1.524 . S
C2224 H2243 0.913 . S
C2225 H2201 0.950 . S
C2225 C2224 1.524 . S
C2225 C2226 1.415 . S
C2226 H2202 0.950 . S
C2226 C2221 1.363 . S
C2226 C2225 1.415 . S
C2227 H2203 0.951 . S
C2227 C2228 1.366 . S
C2227 C2229 1.388 . S
C2228 C2227 1.366 . S
C2228 C2232 1.385 . S
C2229 H2204 0.951 . S
C2229 C2227 1.388 . S
C2229 C2230 1.366 . S
C2230 C2229 1.366 . S
C2230 C2231 1.414 . S
C2230 C2233 1.499 . S
C2231 H2205 0.950 . S
C2231 C2230 1.414 . S
C2231 C2232 1.374 . S
C2232 H2206 0.950 . S
C2232 C2228 1.385 . S
C2232 C2231 1.374 . S
C2233 C2230 1.499 . S
C2233 C2234 1.373 . S
C2233 C2235 1.389 . S
C2234 H2207 0.950 . S
C2234 C2220 1.377 . S
C2234 C2233 1.373 . S
C2235 C2219 1.377 . S
C2235 C2233 1.389 . S
C2235 C2236 1.524 . S
C2236 C2235 1.524 . S
C2236 C2237 1.397 . S
C2236 C2241 1.363 . S
C2237 H2208 0.950 . S
C2237 C2236 1.397 . S
C2237 C2238 1.334 . S
C2238 H2209 0.950 . S
C2238 C2237 1.334 . S
C2238 C2239 1.287 . S
C2239 C2238 1.287 . S
C2239 C2240 1.524 . S
C2239 H2242 0.999 . S
C2240 H2210 0.950 . S
C2240 C2239 1.524 . S
C2240 C2241 1.415 . S
C2241 H2211 0.950 . S
C2241 C2236 1.363 . S
C2241 C2240 1.415 . S
H2242 C2239 0.999 . S
H2243 C2224 0.913 . S
H2244 C2262 0.951 . S
H2245 C2264 0.951 . S
H2246 C2266 0.950 . S
H2247 C2267 0.950 . S
H2248 C2269 0.950 . S
H2249 C2272 0.950 . S
H2250 C2273 0.950 . S
H2251 C2275 0.950 . S
H2252 C2276 0.950 . S
H2253 C2277 0.951 . S
H2254 C2279 0.951 . S
H2255 C2281 0.950 . S
H2256 C2282 0.950 . S
H2257 C2284 0.950 . S
H2258 C2287 0.950 . S
H2259 C2288 0.950 . S
H2260 C2290 0.950 . S
H2261 C2291 0.950 . S
C2262 H2244 0.951 . S
C2262 C2263 1.366 . S
C2262 C2264 1.388 . S
C2263 C2262 1.366 . S
C2263 C2267 1.385 . S
C2264 H2245 0.951 . S
C2264 C2262 1.388 . S
C2264 C2265 1.366 . S
C2265 C2264 1.366 . S
C2265 C2266 1.414 . S
C2265 C2268 1.499 . S
C2266 H2246 0.950 . S
C2266 C2265 1.414 . S
C2266 C2267 1.374 . S
C2267 H2247 0.950 . S
C2267 C2263 1.385 . S
C2267 C2266 1.374 . S
C2268 C2265 1.499 . S
C2268 C2269 1.373 . S
C2268 C2270 1.389 . S
C2269 H2248 0.950 . S
C2269 C2268 1.373 . S
C2269 C2285 1.377 . S
C2270 C2268 1.389 . S
C2270 C2271 1.524 . S
C2270 C2284 1.377 . S
C2271 C2270 1.524 . S
C2271 C2272 1.397 . S
C2271 C2276 1.363 . S
C2272 H2249 0.950 . S
C2272 C2271 1.397 . S
C2272 C2273 1.334 . S
C2273 H2250 0.950 . S
C2273 C2272 1.334 . S
C2273 C2274 1.287 . S
C2274 C2273 1.287 . S
C2274 C2275 1.524 . S
C2274 H2293 0.913 . S
C2275 H2251 0.950 . S
C2275 C2274 1.524 . S
C2275 C2276 1.415 . S
C2276 H2252 0.950 . S
C2276 C2271 1.363 . S
C2276 C2275 1.415 . S
C2277 H2253 0.951 . S
C2277 C2278 1.366 . S
C2277 C2279 1.388 . S
C2278 C2277 1.366 . S
C2278 C2282 1.385 . S
C2279 H2254 0.951 . S
C2279 C2277 1.388 . S
C2279 C2280 1.366 . S
C2280 C2279 1.366 . S
C2280 C2281 1.414 . S
C2280 C2283 1.499 . S
C2281 H2255 0.950 . S
C2281 C2280 1.414 . S
C2281 C2282 1.374 . S
C2282 H2256 0.950 . S
C2282 C2278 1.385 . S
C2282 C2281 1.374 . S
C2283 C2280 1.499 . S
C2283 C2284 1.373 . S
C2283 C2285 1.389 . S
C2284 H2257 0.950 . S
C2284 C2270 1.377 . S
C2284 C2283 1.373 . S
C2285 C2269 1.377 . S
C2285 C2283 1.389 . S
C2285 C2286 1.524 . S
C2286 C2285 1.524 . S
C2286 C2287 1.397 . S
C2286 C2291 1.363 . S
C2287 H2258 0.950 . S
C2287 C2286 1.397 . S
C2287 C2288 1.334 . S
C2288 H2259 0.950 . S
C2288 C2287 1.334 . S
C2288 C2289 1.287 . S
C2289 C2288 1.287 . S
C2289 C2290 1.524 . S
C2289 H2292 0.999 . S
C2290 H2260 0.950 . S
C2290 C2289 1.524 . S
C2290 C2291 1.415 . S
C2291 H2261 0.950 . S
C2291 C2286 1.363 . S
C2291 C2290 1.415 . S
H2292 C2289 0.999 . S
H2293 C2274 0.913 . S
H2294 C2312 0.951 . S
H2295 C2314 0.951 . S
H2296 C2316 0.950 . S
H2297 C2317 0.950 . S
H2298 C2319 0.950 . S
H2299 C2322 0.950 . S
H2300 C2323 0.950 . S
H2301 C2325 0.950 . S
H2302 C2326 0.950 . S
H2303 C2327 0.951 . S
H2304 C2329 0.951 . S
H2305 C2331 0.950 . S
H2306 C2332 0.950 . S
H2307 C2334 0.950 . S
H2308 C2337 0.950 . S
H2309 C2338 0.950 . S
H2310 C2340 0.950 . S
H2311 C2341 0.950 . S
C2312 H2294 0.951 . S
C2312 C2313 1.366 . S
C2312 C2314 1.388 . S
C2313 C2312 1.366 . S
C2313 C2317 1.385 . S
C2314 H2295 0.951 . S
C2314 C2312 1.388 . S
C2314 C2315 1.366 . S
C2315 C2314 1.366 . S
C2315 C2316 1.414 . S
C2315 C2318 1.499 . S
C2316 H2296 0.950 . S
C2316 C2315 1.414 . S
C2316 C2317 1.374 . S
C2317 H2297 0.950 . S
C2317 C2313 1.385 . S
C2317 C2316 1.374 . S
C2318 C2315 1.499 . S
C2318 C2319 1.373 . S
C2318 C2320 1.389 . S
C2319 H2298 0.950 . S
C2319 C2318 1.373 . S
C2319 C2335 1.377 . S
C2320 C2318 1.389 . S
C2320 C2321 1.524 . S
C2320 C2334 1.377 . S
C2321 C2320 1.524 . S
C2321 C2322 1.397 . S
C2321 C2326 1.363 . S
C2322 H2299 0.950 . S
C2322 C2321 1.397 . S
C2322 C2323 1.334 . S
C2323 H2300 0.950 . S
C2323 C2322 1.334 . S
C2323 C2324 1.287 . S
C2324 C2323 1.287 . S
C2324 C2325 1.524 . S
C2324 H2343 0.913 . S
C2325 H2301 0.950 . S
C2325 C2324 1.524 . S
C2325 C2326 1.415 . S
C2326 H2302 0.950 . S
C2326 C2321 1.363 . S
C2326 C2325 1.415 . S
C2327 H2303 0.951 . S
C2327 C2328 1.366 . S
C2327 C2329 1.388 . S
C2328 C2327 1.366 . S
C2328 C2332 1.385 . S
C2329 H2304 0.951 . S
C2329 C2327 1.388 . S
C2329 C2330 1.366 . S
C2330 C2329 1.366 . S
C2330 C2331 1.414 . S
C2330 C2333 1.499 . S
C2331 H2305 0.950 . S
C2331 C2330 1.414 . S
C2331 C2332 1.374 . S
C2332 H2306 0.950 . S
C2332 C2328 1.385 . S
C2332 C2331 1.374 . S
C2333 C2330 1.499 . S
C2333 C2334 1.373 . S
C2333 C2335 1.389 . S
C2334 H2307 0.950 . S
C2334 C2320 1.377 . S
C2334 C2333 1.373 . S
C2335 C2319 1.377 . S
C2335 C2333 1.389 . S
C2335 C2336 1.524 . S
C2336 C2335 1.524 . S
C2336 C2337 1.397 . S
C2336 C2341 1.363 . S
C2337 H2308 0.950 . S
C2337 C2336 1.397 . S
C2337 C2338 1.334 . S
C2338 H2309 0.950 . S
C2338 C2337 1.334 . S
C2338 C2339 1.287 . S
C2339 C2338 1.287 . S
C2339 C2340 1.524 . S
C2339 H2342 0.999 . S
C2340 H2310 0.950 . S
C2340 C2339 1.524 . S
C2340 C2341 1.415 . S
C2341 H2311 0.950 . S
C2341 C2336 1.363 . S
C2341 C2340 1.415 . S
H2342 C2339 0.999 . S
H2343 C2324 0.913 . S
H2344 C2362 0.951 . S
H2345 C2364 0.951 . S
H2346 C2366 0.950 . S
H2347 C2367 0.950 . S
H2348 C2369 0.950 . S
H2349 C2372 0.950 . S
H2350 C2373 0.950 . S
H2351 C2375 0.950 . S
H2352 C2376 0.950 . S
H2353 C2377 0.951 . S
H2354 C2379 0.951 . S
H2355 C2381 0.950 . S
H2356 C2382 0.950 . S
H2357 C2384 0.950 . S
H2358 C2387 0.950 . S
H2359 C2388 0.950 . S
H2360 C2390 0.950 . S
H2361 C2391 0.950 . S
C2362 H2344 0.951 . S
C2362 C2363 1.366 . S
C2362 C2364 1.388 . S
C2363 C2362 1.366 . S
C2363 C2367 1.385 . S
C2364 H2345 0.951 . S
C2364 C2362 1.388 . S
C2364 C2365 1.366 . S
C2365 C2364 1.366 . S
C2365 C2366 1.414 . S
C2365 C2368 1.499 . S
C2366 H2346 0.950 . S
C2366 C2365 1.414 . S
C2366 C2367 1.374 . S
C2367 H2347 0.950 . S
C2367 C2363 1.385 . S
C2367 C2366 1.374 . S
C2368 C2365 1.499 . S
C2368 C2369 1.373 . S
C2368 C2370 1.389 . S
C2369 H2348 0.950 . S
C2369 C2368 1.373 . S
C2369 C2385 1.377 . S
C2370 C2368 1.389 . S
C2370 C2371 1.524 . S
C2370 C2384 1.377 . S
C2371 C2370 1.524 . S
C2371 C2372 1.397 . S
C2371 C2376 1.363 . S
C2372 H2349 0.950 . S
C2372 C2371 1.397 . S
C2372 C2373 1.334 . S
C2373 H2350 0.950 . S
C2373 C2372 1.334 . S
C2373 C2374 1.287 . S
C2374 C2373 1.287 . S
C2374 C2375 1.524 . S
C2374 H2393 0.913 . S
C2375 H2351 0.950 . S
C2375 C2374 1.524 . S
C2375 C2376 1.415 . S
C2376 H2352 0.950 . S
C2376 C2371 1.363 . S
C2376 C2375 1.415 . S
C2377 H2353 0.951 . S
C2377 C2378 1.366 . S
C2377 C2379 1.388 . S
C2378 C2377 1.366 . S
C2378 C2382 1.385 . S
C2379 H2354 0.951 . S
C2379 C2377 1.388 . S
C2379 C2380 1.366 . S
C2380 C2379 1.366 . S
C2380 C2381 1.414 . S
C2380 C2383 1.499 . S
C2381 H2355 0.950 . S
C2381 C2380 1.414 . S
C2381 C2382 1.374 . S
C2382 H2356 0.950 . S
C2382 C2378 1.385 . S
C2382 C2381 1.374 . S
C2383 C2380 1.499 . S
C2383 C2384 1.373 . S
C2383 C2385 1.389 . S
C2384 H2357 0.950 . S
C2384 C2370 1.377 . S
C2384 C2383 1.373 . S
C2385 C2369 1.377 . S
C2385 C2383 1.389 . S
C2385 C2386 1.524 . S
C2386 C2385 1.524 . S
C2386 C2387 1.397 . S
C2386 C2391 1.363 . S
C2387 H2358 0.950 . S
C2387 C2386 1.397 . S
C2387 C2388 1.334 . S
C2388 H2359 0.950 . S
C2388 C2387 1.334 . S
C2388 C2389 1.287 . S
C2389 C2388 1.287 . S
C2389 C2390 1.524 . S
C2389 H2392 0.999 . S
C2390 H2360 0.950 . S
C2390 C2389 1.524 . S
C2390 C2391 1.415 . S
C2391 H2361 0.950 . S
C2391 C2386 1.363 . S
C2391 C2390 1.415 . S
H2392 C2389 0.999 . S
H2393 C2374 0.913 . S
H2394 C2412 0.951 . S
H2395 C2414 0.951 . S
H2396 C2416 0.950 . S
H2397 C2417 0.950 . S
H2398 C2419 0.950 . S
H2399 C2422 0.950 . S
H2400 C2423 0.950 . S
H2401 C2425 0.950 . S
H2402 C2426 0.950 . S
H2403 C2427 0.951 . S
H2404 C2429 0.951 . S
H2405 C2431 0.950 . S
H2406 C2432 0.950 . S
H2407 C2434 0.950 . S
H2408 C2437 0.950 . S
H2409 C2438 0.950 . S
H2410 C2440 0.950 . S
H2411 C2441 0.950 . S
C2412 H2394 0.951 . S
C2412 C2413 1.366 . S
C2412 C2414 1.388 . S
C2413 C2412 1.366 . S
C2413 C2417 1.385 . S
C2414 H2395 0.951 . S
C2414 C2412 1.388 . S
C2414 C2415 1.366 . S
C2415 C2414 1.366 . S
C2415 C2416 1.414 . S
C2415 C2418 1.499 . S
C2416 H2396 0.950 . S
C2416 C2415 1.414 . S
C2416 C2417 1.374 . S
C2417 H2397 0.950 . S
C2417 C2413 1.385 . S
C2417 C2416 1.374 . S
C2418 C2415 1.499 . S
C2418 C2419 1.373 . S
C2418 C2420 1.389 . S
C2419 H2398 0.950 . S
C2419 C2418 1.373 . S
C2419 C2435 1.377 . S
C2420 C2418 1.389 . S
C2420 C2421 1.524 . S
C2420 C2434 1.377 . S
C2421 C2420 1.524 . S
C2421 C2422 1.397 . S
C2421 C2426 1.363 . S
C2422 H2399 0.950 . S
C2422 C2421 1.397 . S
C2422 C2423 1.334 . S
C2423 H2400 0.950 . S
C2423 C2422 1.334 . S
C2423 C2424 1.287 . S
C2424 C2423 1.287 . S
C2424 C2425 1.524 . S
C2424 H2443 0.913 . S
C2425 H2401 0.950 . S
C2425 C2424 1.524 . S
C2425 C2426 1.415 . S
C2426 H2402 0.950 . S
C2426 C2421 1.363 . S
C2426 C2425 1.415 . S
C2427 H2403 0.951 . S
C2427 C2428 1.366 . S
C2427 C2429 1.388 . S
C2428 C2427 1.366 . S
C2428 C2432 1.385 . S
C2429 H2404 0.951 . S
C2429 C2427 1.388 . S
C2429 C2430 1.366 . S
C2430 C2429 1.366 . S
C2430 C2431 1.414 . S
C2430 C2433 1.499 . S
C2431 H2405 0.950 . S
C2431 C2430 1.414 . S
C2431 C2432 1.374 . S
C2432 H2406 0.950 . S
C2432 C2428 1.385 . S
C2432 C2431 1.374 . S
C2433 C2430 1.499 . S
C2433 C2434 1.373 . S
C2433 C2435 1.389 . S
C2434 H2407 0.950 . S
C2434 C2420 1.377 . S
C2434 C2433 1.373 . S
C2435 C2419 1.377 . S
C2435 C2433 1.389 . S
C2435 C2436 1.524 . S
C2436 C2435 1.524 . S
C2436 C2437 1.397 . S
C2436 C2441 1.363 . S
C2437 H2408 0.950 . S
C2437 C2436 1.397 . S
C2437 C2438 1.334 . S
C2438 H2409 0.950 . S
C2438 C2437 1.334 . S
C2438 C2439 1.287 . S
C2439 C2438 1.287 . S
C2439 C2440 1.524 . S
C2439 H2442 0.999 . S
C2440 H2410 0.950 . S
C2440 C2439 1.524 . S
C2440 C2441 1.415 . S
C2441 H2411 0.950 . S
C2441 C2436 1.363 . S
C2441 C2440 1.415 . S
H2442 C2439 0.999 . S
H2443 C2424 0.913 . S
H2444 C2462 0.951 . S
H2445 C2464 0.951 . S
H2446 C2466 0.950 . S
H2447 C2467 0.950 . S
H2448 C2469 0.950 . S
H2449 C2472 0.950 . S
H2450 C2473 0.950 . S
H2451 C2475 0.950 . S
H2452 C2476 0.950 . S
H2453 C2477 0.951 . S
H2454 C2479 0.951 . S
H2455 C2481 0.950 . S
H2456 C2482 0.950 . S
H2457 C2484 0.950 . S
H2458 C2487 0.950 . S
H2459 C2488 0.950 . S
H2460 C2490 0.950 . S
H2461 C2491 0.950 . S
C2462 H2444 0.951 . S
C2462 C2463 1.366 . S
C2462 C2464 1.388 . S
C2463 C2462 1.366 . S
C2463 C2467 1.385 . S
C2464 H2445 0.951 . S
C2464 C2462 1.388 . S
C2464 C2465 1.366 . S
C2465 C2464 1.366 . S
C2465 C2466 1.414 . S
C2465 C2468 1.499 . S
C2466 H2446 0.950 . S
C2466 C2465 1.414 . S
C2466 C2467 1.374 . S
C2467 H2447 0.950 . S
C2467 C2463 1.385 . S
C2467 C2466 1.374 . S
C2468 C2465 1.499 . S
C2468 C2469 1.373 . S
C2468 C2470 1.389 . S
C2469 H2448 0.950 . S
C2469 C2468 1.373 . S
C2469 C2485 1.377 . S
C2470 C2468 1.389 . S
C2470 C2471 1.524 . S
C2470 C2484 1.377 . S
C2471 C2470 1.524 . S
C2471 C2472 1.397 . S
C2471 C2476 1.363 . S
C2472 H2449 0.950 . S
C2472 C2471 1.397 . S
C2472 C2473 1.334 . S
C2473 H2450 0.950 . S
C2473 C2472 1.334 . S
C2473 C2474 1.287 . S
C2474 C2473 1.287 . S
C2474 C2475 1.524 . S
C2474 H2493 0.913 . S
C2475 H2451 0.950 . S
C2475 C2474 1.524 . S
C2475 C2476 1.415 . S
C2476 H2452 0.950 . S
C2476 C2471 1.363 . S
C2476 C2475 1.415 . S
C2477 H2453 0.951 . S
C2477 C2478 1.366 . S
C2477 C2479 1.388 . S
C2478 C2477 1.366 . S
C2478 C2482 1.385 . S
C2479 H2454 0.951 . S
C2479 C2477 1.388 . S
C2479 C2480 1.366 . S
C2480 C2479 1.366 . S
C2480 C2481 1.414 . S
C2480 C2483 1.499 . S
C2481 H2455 0.950 . S
C2481 C2480 1.414 . S
C2481 C2482 1.374 . S
C2482 H2456 0.950 . S
C2482 C2478 1.385 . S
C2482 C2481 1.374 . S
C2483 C2480 1.499 . S
C2483 C2484 1.373 . S
C2483 C2485 1.389 . S
C2484 H2457 0.950 . S
C2484 C2470 1.377 . S
C2484 C2483 1.373 . S
C2485 C2469 1.377 . S
C2485 C2483 1.389 . S
C2485 C2486 1.524 . S
C2486 C2485 1.524 . S
C2486 C2487 1.397 . S
C2486 C2491 1.363 . S
C2487 H2458 0.950 . S
C2487 C2486 1.397 . S
C2487 C2488 1.334 . S
C2488 H2459 0.950 . S
C2488 C2487 1.334 . S
C2488 C2489 1.287 . S
C2489 C2488 1.287 . S
C2489 C2490 1.524 . S
C2489 H2492 0.999 . S
C2490 H2460 0.950 . S
C2490 C2489 1.524 . S
C2490 C2491 1.415 . S
C2491 H2461 0.950 . S
C2491 C2486 1.363 . S
C2491 C2490 1.415 . S
H2492 C2489 0.999 . S
H2493 C2474 0.913 . S
H2494 C2512 0.951 . S
H2495 C2514 0.951 . S
H2496 C2516 0.950 . S
H2497 C2517 0.950 . S
H2498 C2519 0.950 . S
H2499 C2522 0.950 . S
H2500 C2523 0.950 . S
H2501 C2525 0.950 . S
H2502 C2526 0.950 . S
H2503 C2527 0.951 . S
H2504 C2529 0.951 . S
H2505 C2531 0.950 . S
H2506 C2532 0.950 . S
H2507 C2534 0.950 . S
H2508 C2537 0.950 . S
H2509 C2538 0.950 . S
H2510 C2540 0.950 . S
H2511 C2541 0.950 . S
C2512 H2494 0.951 . S
C2512 C2513 1.366 . S
C2512 C2514 1.388 . S
C2513 C2512 1.366 . S
C2513 C2517 1.385 . S
C2514 H2495 0.951 . S
C2514 C2512 1.388 . S
C2514 C2515 1.366 . S
C2515 C2514 1.366 . S
C2515 C2516 1.414 . S
C2515 C2518 1.499 . S
C2516 H2496 0.950 . S
C2516 C2515 1.414 . S
C2516 C2517 1.374 . S
C2517 H2497 0.950 . S
C2517 C2513 1.385 . S
C2517 C2516 1.374 . S
C2518 C2515 1.499 . S
C2518 C2519 1.373 . S
C2518 C2520 1.389 . S
C2519 H2498 0.950 . S
C2519 C2518 1.373 . S
C2519 C2535 1.377 . S
C2520 C2518 1.389 . S
C2520 C2521 1.524 . S
C2520 C2534 1.377 . S
C2521 C2520 1.524 . S
C2521 C2522 1.397 . S
C2521 C2526 1.363 . S
C2522 H2499 0.950 . S
C2522 C2521 1.397 . S
C2522 C2523 1.334 . S
C2523 H2500 0.950 . S
C2523 C2522 1.334 . S
C2523 C2524 1.287 . S
C2524 C2523 1.287 . S
C2524 C2525 1.524 . S
C2524 H2543 0.913 . S
C2525 H2501 0.950 . S
C2525 C2524 1.524 . S
C2525 C2526 1.415 . S
C2526 H2502 0.950 . S
C2526 C2521 1.363 . S
C2526 C2525 1.415 . S
C2527 H2503 0.951 . S
C2527 C2528 1.366 . S
C2527 C2529 1.388 . S
C2528 C2527 1.366 . S
C2528 C2532 1.385 . S
C2529 H2504 0.951 . S
C2529 C2527 1.388 . S
C2529 C2530 1.366 . S
C2530 C2529 1.366 . S
C2530 C2531 1.414 . S
C2530 C2533 1.499 . S
C2531 H2505 0.950 . S
C2531 C2530 1.414 . S
C2531 C2532 1.374 . S
C2532 H2506 0.950 . S
C2532 C2528 1.385 . S
C2532 C2531 1.374 . S
C2533 C2530 1.499 . S
C2533 C2534 1.373 . S
C2533 C2535 1.389 . S
C2534 H2507 0.950 . S
C2534 C2520 1.377 . S
C2534 C2533 1.373 . S
C2535 C2519 1.377 . S
C2535 C2533 1.389 . S
C2535 C2536 1.524 . S
C2536 C2535 1.524 . S
C2536 C2537 1.397 . S
C2536 C2541 1.363 . S
C2537 H2508 0.950 . S
C2537 C2536 1.397 . S
C2537 C2538 1.334 . S
C2538 H2509 0.950 . S
C2538 C2537 1.334 . S
C2538 C2539 1.287 . S
C2539 C2538 1.287 . S
C2539 C2540 1.524 . S
C2539 H2542 0.999 . S
C2540 H2510 0.950 . S
C2540 C2539 1.524 . S
C2540 C2541 1.415 . S
C2541 H2511 0.950 . S
C2541 C2536 1.363 . S
C2541 C2540 1.415 . S
H2542 C2539 0.999 . S
H2543 C2524 0.913 . S
C563 C5 0.805 . S
C578 C447 0.805 . S
C613 C481 0.805 . S
C628 C39 0.805 . S
C663 C515 0.805 . S
C678 C73 0.804 . S
C713 C413 0.805 . S
C728 C107 0.804 . S
C763 C379 0.804 . S
C778 C141 0.804 . S
C813 C277 0.804 . S
C828 C175 0.804 . S
C863 C209 0.804 . S
C878 C311 0.805 . S
C913 C345 0.804 . S
C928 C243 0.804 . S
C963 C339 1.594 . S
C978 C9 1.663 . S
C1013 C43 1.663 . S
C1028 C373 1.593 . S
C1063 C77 1.663 . S
C1078 C407 1.594 . S
C1113 C111 1.663 . S
C1128 C305 1.593 . S
C1163 C145 1.663 . S
C1178 C543 1.594 . S
C1213 C441 1.594 . S
C1228 C179 1.663 . S
C1263 C475 1.594 . S
C1278 C213 1.663 . S
C1313 C509 1.594 . S
C1328 C247 1.663 . S
C1363 C281 1.663 . S
C1378 C67 1.593 . S
C1413 C315 1.663 . S
C1428 C101 1.594 . S
C1463 C349 1.663 . S
C1478 C135 1.593 . S
C1513 C33 1.594 . S
C1528 C383 1.663 . S
C1563 C417 1.663 . S
C1578 C271 1.593 . S
C1613 C169 1.594 . S
C1628 C451 1.663 . S
C1663 C485 1.663 . S
C1678 C203 1.594 . S
C1713 C519 1.663 . S
C1728 C237 1.594 . S
C1763 C20 1.694 . S
C1778 C360 1.695 . S
C1813 C394 1.694 . S
C1828 C54 1.695 . S
C1863 C88 1.694 . S
C1878 C292 1.695 . S
C1913 C326 1.694 . S
C1928 C122 1.695 . S
C1963 C156 1.695 . S
C1978 C496 1.695 . S
C2013 C530 1.695 . S
C2028 C190 1.695 . S
C2063 C428 1.694 . S
C2078 C224 1.695 . S
C2113 C462 1.695 . S
C2128 C258 1.694 . S
C2163 C206 0.505 . S
C2178 C2 0.505 . S
C2213 C36 0.506 . S
C2228 C240 0.506 . S
C2263 C138 0.506 . S
C2278 C70 0.506 . S
C2313 C104 0.504 . S
C2328 C172 0.504 . S
C2363 C274 0.504 . S
C2378 C478 0.504 . S
C2413 C308 0.504 . S
C2428 C512 0.504 . S
C2463 C342 0.506 . S
C2478 C410 0.506 . S
C2513 C444 0.505 . S
C2528 C376 0.505 . S
