# Generated by pormake.
# Topology pcl, (4)-cn, num edge types: 1
# Building blocks:
#     Node 0, Type 0, BuildingBlock: AZAVOO_clean_sbu_0, # of connection points: 4
#     Node 1, Type 0, BuildingBlock: AZAVOO_clean_sbu_0, # of connection points: 4
#     Node 2, Type 0, BuildingBlock: AZAVOO_clean_sbu_0, # of connection points: 4
#     Node 3, Type 0, BuildingBlock: AZAVOO_clean_sbu_0, # of connection points: 4
#     Node 4, Type 0, BuildingBlock: AZAVOO_clean_sbu_0, # of connection points: 4
#     Node 5, Type 0, BuildingBlock: AZAVOO_clean_sbu_0, # of connection points: 4
#     Node 6, Type 0, BuildingBlock: AZAVOO_clean_sbu_0, # of connection points: 4
#     Node 7, Type 0, BuildingBlock: AZAVOO_clean_sbu_0, # of connection points: 4
#     Node 8, Type 0, BuildingBlock: AZAVOO_clean_sbu_0, # of connection points: 4
#     Node 9, Type 0, BuildingBlock: AZAVOO_clean_sbu_0, # of connection points: 4
#     Node 10, Type 0, BuildingBlock: AZAVOO_clean_sbu_0, # of connection points: 4
#     Node 11, Type 0, BuildingBlock: AZAVOO_clean_sbu_0, # of connection points: 4
#     Node 12, Type 0, BuildingBlock: AZAVOO_clean_sbu_0, # of connection points: 4
#     Node 13, Type 0, BuildingBlock: AZAVOO_clean_sbu_0, # of connection points: 4
#     Node 14, Type 0, BuildingBlock: AZAVOO_clean_sbu_0, # of connection points: 4
#     Node 15, Type 0, BuildingBlock: AZAVOO_clean_sbu_0, # of connection points: 4
#     Edge 16, Type (0, 0), BuildingBlock: OJICUG_clean_linker_0, # of connection points: 2
#     Edge 17, Type (0, 0), BuildingBlock: OJICUG_clean_linker_0, # of connection points: 2
#     Edge 18, Type (0, 0), BuildingBlock: OJICUG_clean_linker_0, # of connection points: 2
#     Edge 19, Type (0, 0), BuildingBlock: OJICUG_clean_linker_0, # of connection points: 2
#     Edge 20, Type (0, 0), BuildingBlock: OJICUG_clean_linker_0, # of connection points: 2
#     Edge 21, Type (0, 0), BuildingBlock: OJICUG_clean_linker_0, # of connection points: 2
#     Edge 22, Type (0, 0), BuildingBlock: OJICUG_clean_linker_0, # of connection points: 2
#     Edge 23, Type (0, 0), BuildingBlock: OJICUG_clean_linker_0, # of connection points: 2
#     Edge 24, Type (0, 0), BuildingBlock: OJICUG_clean_linker_0, # of connection points: 2
#     Edge 25, Type (0, 0), BuildingBlock: OJICUG_clean_linker_0, # of connection points: 2
#     Edge 26, Type (0, 0), BuildingBlock: OJICUG_clean_linker_0, # of connection points: 2
#     Edge 27, Type (0, 0), BuildingBlock: OJICUG_clean_linker_0, # of connection points: 2
#     Edge 28, Type (0, 0), BuildingBlock: OJICUG_clean_linker_0, # of connection points: 2
#     Edge 29, Type (0, 0), BuildingBlock: OJICUG_clean_linker_0, # of connection points: 2
#     Edge 30, Type (0, 0), BuildingBlock: OJICUG_clean_linker_0, # of connection points: 2
#     Edge 31, Type (0, 0), BuildingBlock: OJICUG_clean_linker_0, # of connection points: 2
#     Edge 32, Type (0, 0), BuildingBlock: OJICUG_clean_linker_0, # of connection points: 2
#     Edge 33, Type (0, 0), BuildingBlock: OJICUG_clean_linker_0, # of connection points: 2
#     Edge 34, Type (0, 0), BuildingBlock: OJICUG_clean_linker_0, # of connection points: 2
#     Edge 35, Type (0, 0), BuildingBlock: OJICUG_clean_linker_0, # of connection points: 2
#     Edge 36, Type (0, 0), BuildingBlock: OJICUG_clean_linker_0, # of connection points: 2
#     Edge 37, Type (0, 0), BuildingBlock: OJICUG_clean_linker_0, # of connection points: 2
#     Edge 38, Type (0, 0), BuildingBlock: OJICUG_clean_linker_0, # of connection points: 2
#     Edge 39, Type (0, 0), BuildingBlock: OJICUG_clean_linker_0, # of connection points: 2
#     Edge 40, Type (0, 0), BuildingBlock: OJICUG_clean_linker_0, # of connection points: 2
#     Edge 41, Type (0, 0), BuildingBlock: OJICUG_clean_linker_0, # of connection points: 2
#     Edge 42, Type (0, 0), BuildingBlock: OJICUG_clean_linker_0, # of connection points: 2
#     Edge 43, Type (0, 0), BuildingBlock: OJICUG_clean_linker_0, # of connection points: 2
#     Edge 44, Type (0, 0), BuildingBlock: OJICUG_clean_linker_0, # of connection points: 2
#     Edge 45, Type (0, 0), BuildingBlock: OJICUG_clean_linker_0, # of connection points: 2
#     Edge 46, Type (0, 0), BuildingBlock: OJICUG_clean_linker_0, # of connection points: 2
#     Edge 47, Type (0, 0), BuildingBlock: OJICUG_clean_linker_0, # of connection points: 2
# Relax obj value: 0.075
# Max RMSD: 0.074
# Mean RMSD: 0.073
data_MOF--net-pcl--node1-AZAVOO_clean_sbu_0--edge1-OJICUG_clean_linker_0
_symmetry_space_group_name_H-M    P1
_symmetry_Int_Tables_number       1
_symmetry_cell_setting            triclinic
loop_
_symmetry_equiv_pos_as_xyz
'x, y, z'
_cell_length_a     28.172789
_cell_length_b     38.099256
_cell_length_c     33.863245
_cell_angle_alpha  90.003339
_cell_angle_beta   90.061421
_cell_angle_gamma 89.977132
loop_
_atom_site_label
_atom_site_type_symbol
_atom_site_fract_x
_atom_site_fract_y
_atom_site_fract_z
_atom_type_partial_charge
Mg0 Mg 0.16931 0.37957 0.0689 0.0
O1 O 0.0879 0.37406 0.07231 0.0
O2 O 0.05884 0.38524 0.01208 0.0
Mg3 Mg 0.12003 0.39423 0.96959 0.0
C4 C 0.05299 0.37779 0.0485 0.0
C5 C 0.20039 0.38195 0.15348 0.0
O6 O 0.21731 0.4103 0.13653 0.0
O7 O 0.17542 0.32473 0.04046 0.0
O8 O 0.14634 0.33861 0.98105 0.0
O9 O 0.16237 0.43773 0.07744 0.0
O10 O 0.16299 0.41182 0.0193 0.0
C11 C 0.16427 0.31637 0.00502 0.0
C12 C 0.15877 0.44016 0.03952 0.0
O13 O 0.17785 0.35986 0.13237 0.0
Mg14 Mg 0.85941 0.64107 0.56359 0.0
O15 O 0.94065 0.6397 0.56824 0.0
O16 O 0.97047 0.63056 0.50797 0.0
Mg17 Mg 0.90883 0.63003 0.46438 0.0
C18 C 0.97577 0.63501 0.54504 0.0
C19 C 0.81396 0.6631 0.64238 0.0
O20 O 0.77864 0.6694 0.61804 0.0
O21 O 0.86179 0.69754 0.54088 0.0
O22 O 0.89082 0.68716 0.48048 0.0
O23 O 0.85643 0.58326 0.56791 0.0
O24 O 0.86132 0.61186 0.5113 0.0
C25 C 0.87528 0.70822 0.50692 0.0
C26 C 0.86021 0.58237 0.52988 0.0
O27 O 0.85439 0.65541 0.62832 0.0
Mg28 Mg 0.15661 0.63153 0.92699 0.0
O29 O 0.07543 0.63653 0.91889 0.0
O30 O 0.04296 0.62873 0.97856 0.0
Mg31 Mg 0.1014 0.62357 0.02453 0.0
C32 C 0.03923 0.63392 0.94146 0.0
C33 C 0.2028 0.62327 0.85079 0.0
O34 O 0.22315 0.60289 0.87714 0.0
O35 O 0.16076 0.68769 0.95023 0.0
O36 O 0.12719 0.67923 0.00943 0.0
O37 O 0.1514 0.57387 0.9223 0.0
O38 O 0.14803 0.60231 0.97899 0.0
C39 C 0.14671 0.69913 0.98373 0.0
C40 C 0.14639 0.57298 0.96018 0.0
O41 O 0.17121 0.64487 0.8624 0.0
Mg42 Mg 0.81875 0.39359 0.4152 0.0
O43 O 0.89802 0.37906 0.41374 0.0
O44 O 0.92521 0.3834 0.47565 0.0
Mg45 Mg 0.86444 0.39906 0.51662 0.0
C46 C 0.93169 0.37717 0.439 0.0
C47 C 0.79084 0.40086 0.32994 0.0
O48 O 0.78057 0.43101 0.34668 0.0
O49 O 0.8002 0.33951 0.44081 0.0
O50 O 0.82435 0.34811 0.50318 0.0
O51 O 0.8371 0.45044 0.40907 0.0
O52 O 0.82915 0.42347 0.46623 0.0
C53 C 0.80451 0.32936 0.47661 0.0
C54 C 0.83923 0.45166 0.44716 0.0
O55 O 0.80812 0.37639 0.35116 0.0
Mg56 Mg 0.741 0.61302 0.87208 0.0
O57 O 0.81839 0.62556 0.88754 0.0
O58 O 0.83818 0.67751 0.86164 0.0
Mg59 Mg 0.77071 0.70085 0.83467 0.0
C60 C 0.84877 0.64965 0.88064 0.0
C61 C 0.70514 0.55066 0.92379 0.0
O62 O 0.66464 0.56396 0.91161 0.0
O63 O 0.71521 0.6492 0.92161 0.0
O64 O 0.73478 0.70131 0.8955 0.0
O65 O 0.76518 0.59318 0.81316 0.0
O66 O 0.74319 0.64792 0.82451 0.0
C67 C 0.71721 0.68266 0.9232 0.0
C68 C 0.76019 0.62506 0.80055 0.0
O69 O 0.74363 0.56525 0.91312 0.0
Mg70 Mg 0.2383 0.35779 0.39554 0.0
O71 O 0.15698 0.3582 0.40201 0.0
O72 O 0.12646 0.31744 0.36183 0.0
Mg73 Mg 0.188 0.28911 0.33186 0.0
C74 C 0.12149 0.34196 0.38716 0.0
C75 C 0.28276 0.41426 0.44925 0.0
O76 O 0.31626 0.40866 0.42302 0.0
O77 O 0.24294 0.30865 0.43457 0.0
O78 O 0.21391 0.26917 0.39214 0.0
O79 O 0.23375 0.39388 0.34396 0.0
O80 O 0.23193 0.33623 0.33851 0.0
C81 C 0.23175 0.27709 0.42572 0.0
C82 C 0.22909 0.36647 0.32172 0.0
O83 O 0.24521 0.39576 0.44771 0.0
Mg84 Mg 0.7452 0.37642 0.08926 0.0
O85 O 0.82649 0.37302 0.0853 0.0
O86 O 0.85263 0.33186 0.12704 0.0
Mg87 Mg 0.78769 0.30655 0.15522 0.0
C88 C 0.86022 0.35573 0.10138 0.0
C89 C 0.70668 0.4312 0.02971 0.0
O90 O 0.66908 0.42512 0.0516 0.0
O91 O 0.73856 0.3272 0.05071 0.0
O92 O 0.76405 0.28721 0.09413 0.0
O93 O 0.75117 0.41293 0.14032 0.0
O94 O 0.7477 0.35536 0.14663 0.0
C95 C 0.74809 0.29546 0.06001 0.0
C96 C 0.75311 0.38561 0.16297 0.0
O97 O 0.7443 0.41367 0.03627 0.0
Mg98 Mg 0.26973 0.59259 0.61463 0.0
O99 O 0.19375 0.60964 0.60002 0.0
O100 O 0.1796 0.66145 0.62892 0.0
Mg101 Mg 0.24755 0.67885 0.66029 0.0
C102 C 0.1663 0.63538 0.60794 0.0
C103 C 0.30055 0.53317 0.55515 0.0
O104 O 0.3427 0.54525 0.56471 0.0
O105 O 0.29821 0.63126 0.56844 0.0
O106 O 0.28652 0.68173 0.60106 0.0
O107 O 0.24545 0.5683 0.67126 0.0
O108 O 0.26751 0.62365 0.66586 0.0
C109 C 0.30176 0.66458 0.57126 0.0
C110 C 0.25011 0.59896 0.68727 0.0
O111 O 0.26393 0.54773 0.56974 0.0
Mg112 Mg 0.65187 0.86325 0.06473 0.0
O113 O 0.57098 0.85926 0.07067 0.0
O114 O 0.5387 0.86576 0.01078 0.0
Mg115 Mg 0.59897 0.86967 0.96623 0.0
C116 C 0.53488 0.86142 0.04799 0.0
C117 C 0.70165 0.84413 0.14277 0.0
O118 O 0.73681 0.83972 0.11782 0.0
O119 O 0.65585 0.80675 0.04269 0.0
O120 O 0.62386 0.81391 0.98265 0.0
O121 O 0.6478 0.92091 0.06851 0.0
O122 O 0.64514 0.89166 0.01217 0.0
C123 C 0.64267 0.79456 0.00929 0.0
C124 C 0.64302 0.92125 0.03053 0.0
O125 O 0.66022 0.84974 0.12945 0.0
Mg126 Mg 0.32163 0.09505 0.57168 0.0
O127 O 0.40017 0.11115 0.57162 0.0
O128 O 0.42636 0.10583 0.50955 0.0
Mg129 Mg 0.3653 0.08817 0.46984 0.0
C130 C 0.43329 0.11301 0.54593 0.0
C131 C 0.29713 0.0888 0.65755 0.0
O132 O 0.28778 0.05816 0.64161 0.0
O133 O 0.3003 0.14822 0.54475 0.0
O134 O 0.32341 0.13848 0.4824 0.0
O135 O 0.34292 0.03886 0.5794 0.0
O136 O 0.33246 0.06402 0.52148 0.0
C137 C 0.3033 0.15749 0.50856 0.0
C138 C 0.34462 0.03671 0.54137 0.0
O139 O 0.31208 0.11345 0.63544 0.0
Mg140 Mg 0.66668 0.11114 0.91525 0.0
O141 O 0.58671 0.12361 0.91565 0.0
O142 O 0.56229 0.11824 0.97821 0.0
Mg143 Mg 0.62509 0.1039 0.0177 0.0
C144 C 0.55402 0.12447 0.9418 0.0
C145 C 0.69287 0.10477 0.82981 0.0
O146 O 0.70547 0.07517 0.8467 0.0
O147 O 0.68399 0.16553 0.94091 0.0
O148 O 0.66284 0.15556 0.0037 0.0
O149 O 0.65076 0.05378 0.90915 0.0
O150 O 0.65946 0.08069 0.96624 0.0
C151 C 0.68094 0.17506 0.97701 0.0
C152 C 0.65012 0.05232 0.94725 0.0
O153 O 0.6745 0.12876 0.85105 0.0
Mg154 Mg 0.36243 0.84592 0.42954 0.0
O155 O 0.44379 0.84348 0.42093 0.0
O156 O 0.47561 0.85202 0.48077 0.0
Mg157 Mg 0.41725 0.85556 0.52693 0.0
C158 C 0.47977 0.84719 0.44364 0.0
C159 C 0.31292 0.85149 0.35503 0.0
O160 O 0.29184 0.87051 0.38223 0.0
O161 O 0.36114 0.78966 0.45286 0.0
O162 O 0.39351 0.79923 0.51226 0.0
O163 O 0.3645 0.90375 0.42432 0.0
O164 O 0.36993 0.87581 0.48119 0.0
C165 C 0.37507 0.77869 0.48661 0.0
C166 C 0.36993 0.90507 0.46216 0.0
O167 O 0.34723 0.83173 0.36539 0.0
Mg168 Mg 0.24832 0.11383 0.8978 0.0
O169 O 0.32806 0.12367 0.90595 0.0
O170 O 0.34959 0.16742 0.86575 0.0
Mg171 Mg 0.28345 0.1863 0.83266 0.0
C172 C 0.35951 0.1442 0.89166 0.0
C173 C 0.20821 0.06345 0.96101 0.0
O174 O 0.16953 0.07261 0.94188 0.0
O175 O 0.23155 0.16237 0.93502 0.0
O176 O 0.24822 0.20403 0.89048 0.0
O177 O 0.26285 0.07739 0.84782 0.0
O178 O 0.25174 0.13427 0.84023 0.0
C179 C 0.23261 0.19445 0.92422 0.0
C180 C 0.26209 0.10442 0.82469 0.0
O181 O 0.24748 0.07741 0.95127 0.0
Mg182 Mg 0.77221 0.89138 0.37392 0.0
O183 O 0.69727 0.87232 0.38867 0.0
O184 O 0.6846 0.82016 0.36028 0.0
Mg185 Mg 0.75454 0.80359 0.33114 0.0
C186 C 0.67043 0.84623 0.38082 0.0
C187 C 0.80011 0.95386 0.4286 0.0
O188 O 0.8421 0.94326 0.41666 0.0
O189 O 0.8027 0.85508 0.42172 0.0
O190 O 0.79196 0.80338 0.39128 0.0
O191 O 0.74502 0.91192 0.31607 0.0
O192 O 0.77428 0.85866 0.32441 0.0
C193 C 0.80669 0.82169 0.42041 0.0
C194 C 0.75409 0.88114 0.30174 0.0
O195 O 0.7635 0.93726 0.41702 0.0
Mg196 Mg 0.238 0.88314 0.12092 0.0
O197 O 0.31578 0.87177 0.10589 0.0
O198 O 0.33682 0.82036 0.13272 0.0
Mg199 Mg 0.271 0.79712 0.16196 0.0
C200 C 0.34655 0.84794 0.11292 0.0
C201 C 0.20118 0.9463 0.06975 0.0
O202 O 0.16084 0.93656 0.0858 0.0
O203 O 0.21449 0.84484 0.07296 0.0
O204 O 0.23447 0.7938 0.10139 0.0
O205 O 0.25925 0.90697 0.17832 0.0
O206 O 0.2439 0.85052 0.1706 0.0
C207 C 0.21686 0.81141 0.07283 0.0
C208 C 0.25834 0.87562 0.19302 0.0
O209 O 0.23869 0.92915 0.07774 0.0
Mg210 Mg 0.73987 0.12857 0.58917 0.0
O211 O 0.65867 0.13006 0.58236 0.0
O212 O 0.62937 0.17103 0.62289 0.0
Mg213 Mg 0.69187 0.19805 0.65294 0.0
C214 C 0.6237 0.14684 0.59725 0.0
C215 C 0.78401 0.07391 0.53289 0.0
O216 O 0.81953 0.08122 0.55669 0.0
O217 O 0.7463 0.17761 0.55034 0.0
O218 O 0.71774 0.21747 0.59253 0.0
O219 O 0.7333 0.09238 0.64044 0.0
O220 O 0.73401 0.15005 0.64618 0.0
C221 C 0.73545 0.20926 0.55903 0.0
C222 C 0.72939 0.11982 0.66272 0.0
O223 O 0.74529 0.09071 0.53689 0.0
C224 C 0.96541 0.38624 0.04105 0.0
C225 C 0.00391 0.37332 0.06317 0.0
H226 H 0.89007 0.39121 0.03595 0.0
C227 C 0.99486 0.35562 0.09877 0.0
H228 H 0.97116 0.40024 0.01362 0.0
C229 C 0.94819 0.35017 0.11141 0.0
C230 C 0.90969 0.36274 0.089 0.0
H231 H 0.02374 0.34537 0.11647 0.0
H232 H 0.94232 0.33597 0.13869 0.0
C233 C 0.91887 0.38121 0.05393 0.0
C234 C 0.06082 0.61651 0.54211 0.0
C235 C 0.02431 0.63476 0.56153 0.0
H236 H 0.13423 0.60196 0.54195 0.0
C237 C 0.03474 0.653 0.59653 0.0
H238 H 0.05374 0.60208 0.51517 0.0
C239 C 0.08101 0.65346 0.61146 0.0
C240 C 0.11744 0.63503 0.59215 0.0
H241 H 0.00732 0.66739 0.61203 0.0
H242 H 0.08815 0.66795 0.63834 0.0
C243 C 0.10682 0.61631 0.55751 0.0
C244 C 0.93612 0.66199 0.87673 0.0
C245 C 0.8978 0.64512 0.89537 0.0
H246 H 0.01132 0.67105 0.87621 0.0
C247 C 0.90666 0.62385 0.92842 0.0
H248 H 0.93035 0.67836 0.85102 0.0
C249 C 0.95268 0.62017 0.94313 0.0
C250 C 0.99102 0.63705 0.92461 0.0
H251 H 0.87786 0.61056 0.94342 0.0
H252 H 0.95826 0.60397 0.96902 0.0
C253 C 0.98243 0.65765 0.89095 0.0
C254 C 0.03333 0.34249 0.37686 0.0
C255 C 0.07297 0.35146 0.40006 0.0
H256 H 0.95765 0.3439 0.3707 0.0
C257 C 0.06571 0.36909 0.43598 0.0
H258 H 0.03776 0.32901 0.34893 0.0
C259 C 0.01981 0.37713 0.4487 0.0
C260 C 0.98017 0.36826 0.42546 0.0
H261 H 0.09546 0.37625 0.4546 0.0
H262 H 0.01545 0.3906 0.47663 0.0
C263 C 0.98744 0.35109 0.38925 0.0
C264 C 0.4338 0.83599 0.11565 0.0
C265 C 0.39494 0.85212 0.09698 0.0
H266 H 0.50884 0.82684 0.11512 0.0
C267 C 0.40257 0.87184 0.06252 0.0
H268 H 0.42893 0.82078 0.14237 0.0
C269 C 0.44807 0.87473 0.04655 0.0
C270 C 0.48696 0.85866 0.06524 0.0
H271 H 0.37322 0.88444 0.04744 0.0
H272 H 0.45285 0.88977 0.01969 0.0
C273 C 0.47951 0.83958 0.10018 0.0
C274 C 0.56728 0.12085 0.54815 0.0
C275 C 0.57496 0.13827 0.58414 0.0
H276 H 0.51654 0.09972 0.50761 0.0
C277 C 0.53559 0.14771 0.60735 0.0
H278 H 0.59684 0.11339 0.52952 0.0
C279 C 0.48953 0.13954 0.59501 0.0
C280 C 0.48185 0.12232 0.55888 0.0
H281 H 0.54036 0.16108 0.63531 0.0
H282 H 0.45994 0.1469 0.61366 0.0
C283 C 0.52122 0.11323 0.5355 0.0
C284 C 0.49409 0.14735 0.89324 0.0
C285 C 0.50437 0.13103 0.92947 0.0
H286 H 0.44016 0.1648 0.85313 0.0
C287 C 0.46659 0.11989 0.95352 0.0
H288 H 0.52241 0.15627 0.87411 0.0
C289 C 0.41962 0.12426 0.94127 0.0
C290 C 0.40929 0.14045 0.90501 0.0
H291 H 0.47328 0.10705 0.98152 0.0
H292 H 0.39137 0.11497 0.96026 0.0
C293 C 0.44699 0.15233 0.88131 0.0
C294 C 0.53858 0.82826 0.39208 0.0
C295 C 0.52815 0.84694 0.42678 0.0
H296 H 0.59226 0.8128 0.35063 0.0
C297 C 0.56472 0.86539 0.44594 0.0
H298 H 0.5111 0.81374 0.37678 0.0
C299 C 0.61069 0.86537 0.43071 0.0
C300 C 0.62143 0.84628 0.3964 0.0
H301 H 0.55772 0.88021 0.47262 0.0
H302 H 0.638 0.87995 0.44615 0.0
C303 C 0.585 0.82759 0.37728 0.0
C304 C 0.20175 0.34434 0.21453 0.0
C305 C 0.20621 0.37737 0.19657 0.0
H306 H 0.20653 0.31472 0.26805 0.0
C307 C 0.21703 0.40666 0.22016 0.0
H308 H 0.1936 0.32131 0.19703 0.0
C309 C 0.22348 0.40307 0.2608 0.0
C310 C 0.21995 0.37 0.27883 0.0
H311 H 0.22041 0.43255 0.20725 0.0
H312 H 0.23195 0.42622 0.27798 0.0
C313 C 0.20908 0.34063 0.25525 0.0
C314 C 0.82785 0.62899 0.70425 0.0
C315 C 0.80393 0.65621 0.6844 0.0
H316 H 0.83181 0.59705 0.75636 0.0
C317 C 0.76678 0.67379 0.70357 0.0
H318 H 0.85625 0.61466 0.68992 0.0
C319 C 0.75347 0.6641 0.74179 0.0
C320 C 0.77604 0.63593 0.76095 0.0
H321 H 0.74762 0.69467 0.6888 0.0
H322 H 0.72447 0.67795 0.75587 0.0
C323 C 0.81357 0.6186 0.74202 0.0
C324 C 0.20516 0.6438 0.78017 0.0
C325 C 0.21343 0.61767 0.80854 0.0
H326 H 0.21027 0.65839 0.71925 0.0
C327 C 0.23207 0.58516 0.79637 0.0
H328 H 0.1905 0.66897 0.7887 0.0
C329 C 0.2426 0.57893 0.75676 0.0
C330 C 0.23581 0.60533 0.72855 0.0
H331 H 0.2383 0.56428 0.81746 0.0
H332 H 0.25721 0.5537 0.74836 0.0
C333 C 0.21678 0.6378 0.7405 0.0
C334 C 0.7675 0.42248 0.22276 0.0
C335 C 0.76373 0.38905 0.20562 0.0
H336 H 0.77886 0.45228 0.27535 0.0
C337 C 0.76961 0.35926 0.22974 0.0
H338 H 0.76306 0.44597 0.20513 0.0
C339 C 0.77942 0.36288 0.27007 0.0
C340 C 0.78252 0.39636 0.28716 0.0
H341 H 0.76631 0.33311 0.21768 0.0
H342 H 0.78358 0.33952 0.28797 0.0
C343 C 0.77648 0.42608 0.26308 0.0
C344 C 0.76449 0.84471 0.24128 0.0
C345 C 0.73904 0.87071 0.26174 0.0
H346 H 0.77272 0.81603 0.18721 0.0
C347 C 0.69925 0.8861 0.24383 0.0
H348 H 0.79528 0.83237 0.25455 0.0
C349 C 0.68545 0.87588 0.20585 0.0
C350 C 0.71202 0.85082 0.18479 0.0
H351 H 0.67879 0.90593 0.25918 0.0
H352 H 0.65513 0.88865 0.19238 0.0
C353 C 0.75153 0.83524 0.2029 0.0
C354 C 0.27664 0.13078 0.75764 0.0
C355 C 0.27345 0.10106 0.7822 0.0
H356 H 0.28738 0.15036 0.69886 0.0
C357 C 0.2796 0.06766 0.7655 0.0
H358 H 0.27169 0.15689 0.76943 0.0
C359 C 0.28771 0.06396 0.7251 0.0
C360 C 0.2905 0.09358 0.70048 0.0
H361 H 0.27729 0.04422 0.7835 0.0
H362 H 0.29169 0.03775 0.71315 0.0
C363 C 0.28557 0.12709 0.71718 0.0
C364 C 0.70778 0.07951 0.76311 0.0
C365 C 0.70017 0.10922 0.7869 0.0
H366 H 0.72233 0.05958 0.7054 0.0
C367 C 0.70105 0.14261 0.76943 0.0
H368 H 0.70709 0.05337 0.77566 0.0
C369 C 0.71048 0.1462 0.72903 0.0
C370 C 0.71827 0.11643 0.70527 0.0
H371 H 0.69557 0.16596 0.7871 0.0
H372 H 0.71215 0.17232 0.71666 0.0
C373 C 0.71643 0.08306 0.72276 0.0
C374 C 0.26535 0.89463 0.26286 0.0
C375 C 0.27373 0.86905 0.234 0.0
H376 H 0.27039 0.90872 0.32367 0.0
C377 C 0.29595 0.83742 0.24494 0.0
H378 H 0.24826 0.91921 0.25525 0.0
C379 C 0.30947 0.83153 0.28424 0.0
C380 C 0.29991 0.85687 0.31323 0.0
H381 H 0.30359 0.81748 0.22319 0.0
H382 H 0.32675 0.80708 0.29201 0.0
C383 C 0.27777 0.88846 0.30209 0.0
C384 C 0.22479 0.22835 0.98773 0.0
C385 C 0.21016 0.22155 0.9488 0.0
H386 H 0.2217 0.26431 0.03669 0.0
C387 C 0.17606 0.24319 0.93119 0.0
H388 H 0.25114 0.21182 0.00177 0.0
C389 C 0.15874 0.27239 0.95103 0.0
C390 C 0.17588 0.28125 0.98878 0.0
H391 H 0.16384 0.23811 0.90136 0.0
H392 H 0.13347 0.289 0.93576 0.0
C393 C 0.2079 0.25827 0.00761 0.0
C394 C 0.8246 0.76219 0.50677 0.0
C395 C 0.86612 0.74478 0.49455 0.0
H396 H 0.77272 0.80154 0.4922 0.0
C397 C 0.89313 0.75922 0.46373 0.0
H398 H 0.80293 0.75148 0.53026 0.0
C399 C 0.87607 0.78786 0.44238 0.0
C400 C 0.8319 0.80261 0.45161 0.0
H401 H 0.9254 0.74646 0.45386 0.0
H402 H 0.89524 0.79633 0.41634 0.0
C403 C 0.80733 0.79086 0.48511 0.0
C404 C 0.14742 0.78046 0.04576 0.0
C405 C 0.19451 0.7914 0.04096 0.0
H406 H 0.09475 0.74239 0.03035 0.0
C407 C 0.22251 0.77623 0.01129 0.0
H408 H 0.12558 0.79158 0.06894 0.0
C409 C 0.20471 0.74837 0.98875 0.0
C410 C 0.15923 0.73492 -0.00345 0.0
H411 H 0.25924 0.78404 0.00771 0.0
H412 H 0.22817 0.73518 0.9682 0.0
C413 C 0.12993 0.75231 0.02381 0.0
C414 C 0.78043 0.2343 0.501 0.0
C415 C 0.74685 0.23829 0.53149 0.0
H416 H 0.82527 0.26065 0.45884 0.0
C417 C 0.72777 0.27178 0.53872 0.0
H418 H 0.79578 0.20884 0.49472 0.0
C419 C 0.74464 0.30097 0.51847 0.0
C420 C 0.78046 0.29739 0.49014 0.0
H421 H 0.70138 0.27582 0.56153 0.0
H422 H 0.73129 0.32672 0.52636 0.0
C423 C 0.79723 0.2638 0.48041 0.0
C424 C 0.70178 0.74593 0.00639 0.0
C425 C 0.65606 0.75858 -0.00226 0.0
H426 H 0.75769 0.71095 0.98871 0.0
C427 C 0.62756 0.74013 0.97075 0.0
H428 H 0.72464 0.75994 0.02675 0.0
C429 C 0.64612 0.71172 0.94979 0.0
C430 C 0.69354 0.70169 0.95519 0.0
H431 H 0.59224 0.74942 0.96355 0.0
H432 H 0.62493 0.69989 0.92661 0.0
C433 C 0.7207 0.71792 0.98474 0.0
C434 C 0.29188 0.22289 0.50589 0.0
C435 C 0.27838 0.18895 0.49432 0.0
H436 H 0.28752 0.27807 0.49307 0.0
C437 C 0.24497 0.18478 0.46404 0.0
H438 H 0.31795 0.22656 0.52905 0.0
C439 C 0.22739 0.2138 0.44384 0.0
C440 C 0.24345 0.24779 0.45296 0.0
H441 H 0.23399 0.15878 0.45477 0.0
H442 H 0.20297 0.20928 0.41963 0.0
C443 C 0.27454 0.25224 0.48523 0.0
C444 C 0.75631 0.23297 0.03999 0.0
C445 C 0.73737 0.26641 0.03231 0.0
H446 H 0.75314 0.17802 0.02782 0.0
C447 C 0.70451 0.27031 0.00119 0.0
H448 H 0.78219 0.22902 0.06325 0.0
C449 C 0.68817 0.24072 0.98043 0.0
C450 C 0.70464 0.20716 0.99067 0.0
H451 H 0.68933 0.29576 -0.00545 0.0
H452 H 0.66061 0.24379 0.95836 0.0
C453 C 0.7399 0.20372 0.01958 0.0
C454 C 0.37148 0.69912 0.55161 0.0
C455 C 0.32741 0.68478 0.54128 0.0
H456 H 0.42201 0.73988 0.54134 0.0
C457 C 0.30378 0.69714 0.50755 0.0
H458 H 0.38994 0.69013 0.57784 0.0
C459 C 0.3221 0.7258 0.48651 0.0
C460 C 0.36378 0.74258 0.49952 0.0
H461 H 0.26928 0.68674 0.4996 0.0
H462 H 0.30132 0.7368 0.46259 0.0
C463 C 0.38961 0.7277 0.53085 0.0
C464 C 0.14476 0.50785 0.95921 0.0
C465 C 0.14258 0.53914 0.98096 0.0
H466 H 0.15261 0.45238 0.96052 0.0
C467 C 0.14181 0.53753 0.02242 0.0
H468 H 0.14552 0.50818 0.92722 0.0
C469 C 0.14529 0.50517 0.04171 0.0
C470 C 0.14983 0.47403 0.01979 0.0
H471 H 0.1403 0.56126 0.03997 0.0
H472 H 0.14602 0.50467 0.07368 0.0
C473 C 0.14865 0.47571 0.97839 0.0
C474 C 0.85687 0.51703 0.52961 0.0
C475 C 0.86134 0.54861 0.50859 0.0
H476 H 0.84608 0.46172 0.52675 0.0
C477 C 0.86294 0.54764 0.46714 0.0
H478 H 0.85558 0.51688 0.56158 0.0
C479 C 0.85799 0.51581 0.44708 0.0
C480 C 0.85104 0.48446 0.46813 0.0
H481 H 0.86628 0.57154 0.45009 0.0
H482 H 0.85777 0.51599 0.41509 0.0
C483 C 0.85156 0.48531 0.50959 0.0
C484 C 0.74876 0.47283 0.984 0.0
C485 C 0.70629 0.4603 0.00061 0.0
H486 H 0.78186 0.51137 0.94704 0.0
C487 C 0.66346 0.47716 0.99087 0.0
H488 H 0.7824 0.46052 0.991 0.0
C489 C 0.66313 0.50617 0.96559 0.0
C490 C 0.70567 0.51925 0.94969 0.0
H491 H 0.6301 0.46818 0.00309 0.0
H492 H 0.6295 0.51866 0.959 0.0
C493 C 0.74849 0.50209 0.95896 0.0
C494 C 0.33125 0.46082 0.48251 0.0
C495 C 0.28746 0.44359 0.47782 0.0
H496 H 0.36973 0.50238 0.51053 0.0
C497 C 0.24801 0.45585 0.49916 0.0
H498 H 0.36236 0.45208 0.46652 0.0
C499 C 0.25212 0.48504 0.52409 0.0
C500 C 0.2959 0.50237 0.52857 0.0
H501 H 0.21371 0.44329 0.49608 0.0
H502 H 0.22097 0.49398 0.5399 0.0
C503 C 0.33547 0.48972 0.50773 0.0
C504 C 0.63681 0.98739 0.94743 0.0
C505 C 0.64116 0.01909 0.96833 0.0
H506 H 0.63403 0.93133 0.95072 0.0
C507 C 0.6412 0.01834 0.00979 0.0
H508 H 0.63666 0.98713 0.91544 0.0
C509 C 0.63922 0.98651 0.02994 0.0
C510 C 0.63767 0.9547 0.00908 0.0
H511 H 0.6447 0.04218 0.02686 0.0
H512 H 0.64098 0.98686 0.0619 0.0
C513 C 0.63525 0.95543 0.96764 0.0
C514 C 0.37302 0.94094 0.52411 0.0
C515 C 0.37174 0.93916 0.48269 0.0
H516 H 0.3659 0.9735 0.57531 0.0
C517 C 0.36674 0.97029 0.46088 0.0
H518 H 0.37685 0.91739 0.54172 0.0
C519 C 0.35993 0.00224 0.48003 0.0
C520 C 0.35853 0.00385 0.52143 0.0
H521 H 0.36573 0.96983 0.4289 0.0
H522 H 0.35374 0.02533 0.46221 0.0
C523 C 0.36662 0.97307 0.54333 0.0
C524 C 0.2469 0.99075 0.03049 0.0
C525 C 0.20306 0.97703 0.04296 0.0
H526 H 0.28297 0.02908 -0.00465 0.0
C527 C 0.16103 0.99296 0.02955 0.0
H528 H 0.27996 0.97923 0.04047 0.0
C529 C 0.16276 0.02146 0.00356 0.0
C530 C 0.20657 0.03488 0.99067 0.0
H531 H 0.12668 0.98312 0.03866 0.0
H532 H 0.12969 0.03274 0.99328 0.0
C533 C 0.24864 0.01946 0.00479 0.0
C534 C 0.83248 0.02911 0.49682 0.0
C535 C 0.78802 0.04441 0.5045 0.0
H536 H 0.87114 0.98877 0.46688 0.0
C537 C 0.74747 0.02999 0.48648 0.0
H538 H 0.86443 0.03955 0.51019 0.0
C539 C 0.75125 0.0005 0.46196 0.0
C540 C 0.79573 0.98506 0.45457 0.0
H541 H 0.71266 0.04104 0.49194 0.0
H542 H 0.71931 0.98983 0.4488 0.0
C543 C 0.83632 -7e-05 0.472 0.0
loop_
_geom_bond_atom_site_label_1
_geom_bond_atom_site_label_2
_geom_bond_distance
_geom_bond_site_symmetry_2
_ccdc_geom_bond_type
Mg0 O1 2.028 . S
Mg0 O7 1.986 . S
Mg0 O9 2.114 . S
Mg0 O10 2.251 . S
Mg0 O13 2.010 . S
O1 Mg0 2.028 . S
O1 C4 1.250 . S
O2 Mg3 2.028 1_554 S
O2 C4 1.248 . S
Mg3 O2 2.028 1_556 S
Mg3 O8 2.032 1_556 S
Mg3 O10 2.079 1_556 S
C4 O1 1.250 . S
C4 O2 1.248 . S
C5 O6 1.264 . S
C5 O13 1.249 . S
O6 C5 1.264 . S
O7 Mg0 1.986 . S
O7 C11 1.246 . S
O8 Mg3 2.032 1_554 S
O8 C11 1.259 . S
O9 Mg0 2.114 . S
O9 C12 1.252 . S
O10 Mg0 2.251 . S
O10 Mg3 2.079 1_554 S
O10 C12 1.273 . S
C11 O7 1.246 . S
C11 O8 1.259 . S
C12 O9 1.252 . S
C12 O10 1.273 . S
O13 Mg0 2.010 . S
O13 C5 1.249 . S
Mg14 O15 2.028 . S
Mg14 O21 1.986 . S
Mg14 O23 2.114 . S
Mg14 O24 2.251 . S
Mg14 O27 2.010 . S
O15 Mg14 2.028 . S
O15 C18 1.250 . S
O16 Mg17 2.028 . S
O16 C18 1.248 . S
Mg17 O16 2.028 . S
Mg17 O22 2.032 . S
Mg17 O24 2.079 . S
C18 O15 1.250 . S
C18 O16 1.248 . S
C19 O20 1.264 . S
C19 O27 1.249 . S
O20 C19 1.264 . S
O21 Mg14 1.986 . S
O21 C25 1.246 . S
O22 Mg17 2.032 . S
O22 C25 1.259 . S
O23 Mg14 2.114 . S
O23 C26 1.252 . S
O24 Mg14 2.251 . S
O24 Mg17 2.079 . S
O24 C26 1.273 . S
C25 O21 1.246 . S
C25 O22 1.259 . S
C26 O23 1.252 . S
C26 O24 1.273 . S
O27 Mg14 2.010 . S
O27 C19 1.249 . S
Mg28 O29 2.028 . S
Mg28 O35 1.986 . S
Mg28 O37 2.114 . S
Mg28 O38 2.251 . S
Mg28 O41 2.010 . S
O29 Mg28 2.028 . S
O29 C32 1.250 . S
O30 Mg31 2.028 1_556 S
O30 C32 1.248 . S
Mg31 O30 2.028 1_554 S
Mg31 O36 2.032 1_554 S
Mg31 O38 2.079 1_554 S
C32 O29 1.250 . S
C32 O30 1.248 . S
C33 O34 1.264 . S
C33 O41 1.249 . S
O34 C33 1.264 . S
O35 Mg28 1.986 . S
O35 C39 1.246 . S
O36 Mg31 2.032 1_556 S
O36 C39 1.259 . S
O37 Mg28 2.114 . S
O37 C40 1.252 . S
O38 Mg28 2.251 . S
O38 Mg31 2.079 1_556 S
O38 C40 1.273 . S
C39 O35 1.246 . S
C39 O36 1.259 . S
C40 O37 1.252 . S
C40 O38 1.273 . S
O41 Mg28 2.010 . S
O41 C33 1.249 . S
Mg42 O43 2.028 . S
Mg42 O49 1.986 . S
Mg42 O51 2.114 . S
Mg42 O52 2.251 . S
Mg42 O55 2.010 . S
O43 Mg42 2.028 . S
O43 C46 1.250 . S
O44 Mg45 2.028 . S
O44 C46 1.248 . S
Mg45 O44 2.028 . S
Mg45 O50 2.032 . S
Mg45 O52 2.079 . S
C46 O43 1.250 . S
C46 O44 1.248 . S
C47 O48 1.264 . S
C47 O55 1.249 . S
O48 C47 1.264 . S
O49 Mg42 1.986 . S
O49 C53 1.246 . S
O50 Mg45 2.032 . S
O50 C53 1.259 . S
O51 Mg42 2.114 . S
O51 C54 1.252 . S
O52 Mg42 2.251 . S
O52 Mg45 2.079 . S
O52 C54 1.273 . S
C53 O49 1.246 . S
C53 O50 1.259 . S
C54 O51 1.252 . S
C54 O52 1.273 . S
O55 Mg42 2.010 . S
O55 C47 1.249 . S
Mg56 O57 2.028 . S
Mg56 O63 1.986 . S
Mg56 O65 2.114 . S
Mg56 O66 2.251 . S
Mg56 O69 2.010 . S
O57 Mg56 2.028 . S
O57 C60 1.250 . S
O58 Mg59 2.028 . S
O58 C60 1.248 . S
Mg59 O58 2.028 . S
Mg59 O64 2.032 . S
Mg59 O66 2.079 . S
C60 O57 1.250 . S
C60 O58 1.248 . S
C61 O62 1.264 . S
C61 O69 1.249 . S
O62 C61 1.264 . S
O63 Mg56 1.986 . S
O63 C67 1.246 . S
O64 Mg59 2.032 . S
O64 C67 1.259 . S
O65 Mg56 2.114 . S
O65 C68 1.252 . S
O66 Mg56 2.251 . S
O66 Mg59 2.079 . S
O66 C68 1.273 . S
C67 O63 1.246 . S
C67 O64 1.259 . S
C68 O65 1.252 . S
C68 O66 1.273 . S
O69 Mg56 2.010 . S
O69 C61 1.249 . S
Mg70 O71 2.028 . S
Mg70 O77 1.986 . S
Mg70 O79 2.114 . S
Mg70 O80 2.251 . S
Mg70 O83 2.010 . S
O71 Mg70 2.028 . S
O71 C74 1.250 . S
O72 Mg73 2.028 . S
O72 C74 1.248 . S
Mg73 O72 2.028 . S
Mg73 O78 2.032 . S
Mg73 O80 2.079 . S
C74 O71 1.250 . S
C74 O72 1.248 . S
C75 O76 1.264 . S
C75 O83 1.249 . S
O76 C75 1.264 . S
O77 Mg70 1.986 . S
O77 C81 1.246 . S
O78 Mg73 2.032 . S
O78 C81 1.259 . S
O79 Mg70 2.114 . S
O79 C82 1.252 . S
O80 Mg70 2.251 . S
O80 Mg73 2.079 . S
O80 C82 1.273 . S
C81 O77 1.246 . S
C81 O78 1.259 . S
C82 O79 1.252 . S
C82 O80 1.273 . S
O83 Mg70 2.010 . S
O83 C75 1.249 . S
Mg84 O85 2.028 . S
Mg84 O91 1.986 . S
Mg84 O93 2.114 . S
Mg84 O94 2.251 . S
Mg84 O97 2.010 . S
O85 Mg84 2.028 . S
O85 C88 1.250 . S
O86 Mg87 2.028 . S
O86 C88 1.248 . S
Mg87 O86 2.028 . S
Mg87 O92 2.032 . S
Mg87 O94 2.079 . S
C88 O85 1.250 . S
C88 O86 1.248 . S
C89 O90 1.264 . S
C89 O97 1.249 . S
O90 C89 1.264 . S
O91 Mg84 1.986 . S
O91 C95 1.246 . S
O92 Mg87 2.032 . S
O92 C95 1.259 . S
O93 Mg84 2.114 . S
O93 C96 1.252 . S
O94 Mg84 2.251 . S
O94 Mg87 2.079 . S
O94 C96 1.273 . S
C95 O91 1.246 . S
C95 O92 1.259 . S
C96 O93 1.252 . S
C96 O94 1.273 . S
O97 Mg84 2.010 . S
O97 C89 1.249 . S
Mg98 O99 2.028 . S
Mg98 O105 1.986 . S
Mg98 O107 2.114 . S
Mg98 O108 2.251 . S
Mg98 O111 2.010 . S
O99 Mg98 2.028 . S
O99 C102 1.250 . S
O100 Mg101 2.028 . S
O100 C102 1.248 . S
Mg101 O100 2.028 . S
Mg101 O106 2.032 . S
Mg101 O108 2.079 . S
C102 O99 1.250 . S
C102 O100 1.248 . S
C103 O104 1.264 . S
C103 O111 1.249 . S
O104 C103 1.264 . S
O105 Mg98 1.986 . S
O105 C109 1.246 . S
O106 Mg101 2.032 . S
O106 C109 1.259 . S
O107 Mg98 2.114 . S
O107 C110 1.252 . S
O108 Mg98 2.251 . S
O108 Mg101 2.079 . S
O108 C110 1.273 . S
C109 O105 1.246 . S
C109 O106 1.259 . S
C110 O107 1.252 . S
C110 O108 1.273 . S
O111 Mg98 2.010 . S
O111 C103 1.249 . S
Mg112 O113 2.028 . S
Mg112 O119 1.986 . S
Mg112 O121 2.114 . S
Mg112 O122 2.251 . S
Mg112 O125 2.010 . S
O113 Mg112 2.028 . S
O113 C116 1.250 . S
O114 Mg115 2.028 1_554 S
O114 C116 1.248 . S
Mg115 O114 2.028 1_556 S
Mg115 O120 2.032 1_556 S
Mg115 O122 2.079 1_556 S
C116 O113 1.250 . S
C116 O114 1.248 . S
C117 O118 1.264 . S
C117 O125 1.249 . S
O118 C117 1.264 . S
O119 Mg112 1.986 . S
O119 C123 1.246 . S
O120 Mg115 2.032 1_554 S
O120 C123 1.259 . S
O121 Mg112 2.114 . S
O121 C124 1.252 . S
O122 Mg112 2.251 . S
O122 Mg115 2.079 1_554 S
O122 C124 1.273 . S
C123 O119 1.246 . S
C123 O120 1.259 . S
C124 O121 1.252 . S
C124 O122 1.273 . S
O125 Mg112 2.010 . S
O125 C117 1.249 . S
Mg126 O127 2.028 . S
Mg126 O133 1.986 . S
Mg126 O135 2.114 . S
Mg126 O136 2.251 . S
Mg126 O139 2.010 . S
O127 Mg126 2.028 . S
O127 C130 1.250 . S
O128 Mg129 2.028 . S
O128 C130 1.248 . S
Mg129 O128 2.028 . S
Mg129 O134 2.032 . S
Mg129 O136 2.079 . S
C130 O127 1.250 . S
C130 O128 1.248 . S
C131 O132 1.264 . S
C131 O139 1.249 . S
O132 C131 1.264 . S
O133 Mg126 1.986 . S
O133 C137 1.246 . S
O134 Mg129 2.032 . S
O134 C137 1.259 . S
O135 Mg126 2.114 . S
O135 C138 1.252 . S
O136 Mg126 2.251 . S
O136 Mg129 2.079 . S
O136 C138 1.273 . S
C137 O133 1.246 . S
C137 O134 1.259 . S
C138 O135 1.252 . S
C138 O136 1.273 . S
O139 Mg126 2.010 . S
O139 C131 1.249 . S
Mg140 O141 2.028 . S
Mg140 O147 1.986 . S
Mg140 O149 2.114 . S
Mg140 O150 2.251 . S
Mg140 O153 2.010 . S
O141 Mg140 2.028 . S
O141 C144 1.250 . S
O142 Mg143 2.028 1_556 S
O142 C144 1.248 . S
Mg143 O142 2.028 1_554 S
Mg143 O148 2.032 1_554 S
Mg143 O150 2.079 1_554 S
C144 O141 1.250 . S
C144 O142 1.248 . S
C145 O146 1.264 . S
C145 O153 1.249 . S
O146 C145 1.264 . S
O147 Mg140 1.986 . S
O147 C151 1.246 . S
O148 Mg143 2.032 1_556 S
O148 C151 1.259 . S
O149 Mg140 2.114 . S
O149 C152 1.252 . S
O150 Mg140 2.251 . S
O150 Mg143 2.079 1_556 S
O150 C152 1.273 . S
C151 O147 1.246 . S
C151 O148 1.259 . S
C152 O149 1.252 . S
C152 O150 1.273 . S
O153 Mg140 2.010 . S
O153 C145 1.249 . S
Mg154 O155 2.028 . S
Mg154 O161 1.986 . S
Mg154 O163 2.114 . S
Mg154 O164 2.251 . S
Mg154 O167 2.010 . S
O155 Mg154 2.028 . S
O155 C158 1.250 . S
O156 Mg157 2.028 . S
O156 C158 1.248 . S
Mg157 O156 2.028 . S
Mg157 O162 2.032 . S
Mg157 O164 2.079 . S
C158 O155 1.250 . S
C158 O156 1.248 . S
C159 O160 1.264 . S
C159 O167 1.249 . S
O160 C159 1.264 . S
O161 Mg154 1.986 . S
O161 C165 1.246 . S
O162 Mg157 2.032 . S
O162 C165 1.259 . S
O163 Mg154 2.114 . S
O163 C166 1.252 . S
O164 Mg154 2.251 . S
O164 Mg157 2.079 . S
O164 C166 1.273 . S
C165 O161 1.246 . S
C165 O162 1.259 . S
C166 O163 1.252 . S
C166 O164 1.273 . S
O167 Mg154 2.010 . S
O167 C159 1.249 . S
Mg168 O169 2.028 . S
Mg168 O175 1.986 . S
Mg168 O177 2.114 . S
Mg168 O178 2.251 . S
Mg168 O181 2.010 . S
O169 Mg168 2.028 . S
O169 C172 1.250 . S
O170 Mg171 2.028 . S
O170 C172 1.248 . S
Mg171 O170 2.028 . S
Mg171 O176 2.032 . S
Mg171 O178 2.079 . S
C172 O169 1.250 . S
C172 O170 1.248 . S
C173 O174 1.264 . S
C173 O181 1.249 . S
O174 C173 1.264 . S
O175 Mg168 1.986 . S
O175 C179 1.246 . S
O176 Mg171 2.032 . S
O176 C179 1.259 . S
O177 Mg168 2.114 . S
O177 C180 1.252 . S
O178 Mg168 2.251 . S
O178 Mg171 2.079 . S
O178 C180 1.273 . S
C179 O175 1.246 . S
C179 O176 1.259 . S
C180 O177 1.252 . S
C180 O178 1.273 . S
O181 Mg168 2.010 . S
O181 C173 1.249 . S
Mg182 O183 2.028 . S
Mg182 O189 1.986 . S
Mg182 O191 2.114 . S
Mg182 O192 2.251 . S
Mg182 O195 2.010 . S
O183 Mg182 2.028 . S
O183 C186 1.250 . S
O184 Mg185 2.028 . S
O184 C186 1.248 . S
Mg185 O184 2.028 . S
Mg185 O190 2.032 . S
Mg185 O192 2.079 . S
C186 O183 1.250 . S
C186 O184 1.248 . S
C187 O188 1.264 . S
C187 O195 1.249 . S
O188 C187 1.264 . S
O189 Mg182 1.986 . S
O189 C193 1.246 . S
O190 Mg185 2.032 . S
O190 C193 1.259 . S
O191 Mg182 2.114 . S
O191 C194 1.252 . S
O192 Mg182 2.251 . S
O192 Mg185 2.079 . S
O192 C194 1.273 . S
C193 O189 1.246 . S
C193 O190 1.259 . S
C194 O191 1.252 . S
C194 O192 1.273 . S
O195 Mg182 2.010 . S
O195 C187 1.249 . S
Mg196 O197 2.028 . S
Mg196 O203 1.986 . S
Mg196 O205 2.114 . S
Mg196 O206 2.251 . S
Mg196 O209 2.010 . S
O197 Mg196 2.028 . S
O197 C200 1.250 . S
O198 Mg199 2.028 . S
O198 C200 1.248 . S
Mg199 O198 2.028 . S
Mg199 O204 2.032 . S
Mg199 O206 2.079 . S
C200 O197 1.250 . S
C200 O198 1.248 . S
C201 O202 1.264 . S
C201 O209 1.249 . S
O202 C201 1.264 . S
O203 Mg196 1.986 . S
O203 C207 1.246 . S
O204 Mg199 2.032 . S
O204 C207 1.259 . S
O205 Mg196 2.114 . S
O205 C208 1.252 . S
O206 Mg196 2.251 . S
O206 Mg199 2.079 . S
O206 C208 1.273 . S
C207 O203 1.246 . S
C207 O204 1.259 . S
C208 O205 1.252 . S
C208 O206 1.273 . S
O209 Mg196 2.010 . S
O209 C201 1.249 . S
Mg210 O211 2.028 . S
Mg210 O217 1.986 . S
Mg210 O219 2.114 . S
Mg210 O220 2.251 . S
Mg210 O223 2.010 . S
O211 Mg210 2.028 . S
O211 C214 1.250 . S
O212 Mg213 2.028 . S
O212 C214 1.248 . S
Mg213 O212 2.028 . S
Mg213 O218 2.032 . S
Mg213 O220 2.079 . S
C214 O211 1.250 . S
C214 O212 1.248 . S
C215 O216 1.264 . S
C215 O223 1.249 . S
O216 C215 1.264 . S
O217 Mg210 1.986 . S
O217 C221 1.246 . S
O218 Mg213 2.032 . S
O218 C221 1.259 . S
O219 Mg210 2.114 . S
O219 C222 1.252 . S
O220 Mg210 2.251 . S
O220 Mg213 2.079 . S
O220 C222 1.273 . S
C221 O217 1.246 . S
C221 O218 1.259 . S
C222 O219 1.252 . S
C222 O220 1.273 . S
O223 Mg210 2.010 . S
O223 C215 1.249 . S
C224 C225 1.387 . S
C224 H228 0.950 . S
C224 C233 1.390 1_455 S
C225 C224 1.387 . S
C225 C227 1.387 . S
H226 C233 0.950 . S
C227 C225 1.387 . S
C227 C229 1.390 1_455 S
C227 H231 0.950 . S
H228 C224 0.950 . S
C229 C227 1.390 1_655 S
C229 C230 1.387 . S
C229 H232 0.950 . S
C230 C229 1.387 . S
C230 C233 1.387 . S
H231 C227 0.950 . S
H232 C229 0.950 . S
C233 C224 1.390 1_655 S
C233 H226 0.950 . S
C233 C230 1.387 . S
C234 C235 1.387 . S
C234 H238 0.950 . S
C234 C243 1.390 1_655 S
C235 C234 1.387 . S
C235 C237 1.387 . S
H236 C243 0.950 . S
C237 C235 1.387 . S
C237 C239 1.390 1_655 S
C237 H241 0.950 . S
H238 C234 0.950 . S
C239 C237 1.390 1_455 S
C239 C240 1.387 . S
C239 H242 0.950 . S
C240 C239 1.387 . S
C240 C243 1.387 . S
H241 C237 0.950 . S
H242 C239 0.950 . S
C243 C234 1.390 1_455 S
C243 H236 0.950 . S
C243 C240 1.387 . S
C244 C245 1.387 . S
C244 H248 0.950 . S
C244 C253 1.390 1_655 S
C245 C244 1.387 . S
C245 C247 1.387 . S
H246 C253 0.950 . S
C247 C245 1.387 . S
C247 C249 1.390 1_655 S
C247 H251 0.950 . S
H248 C244 0.950 . S
C249 C247 1.390 1_455 S
C249 C250 1.387 . S
C249 H252 0.950 . S
C250 C249 1.387 . S
C250 C253 1.387 . S
H251 C247 0.950 . S
H252 C249 0.950 . S
C253 C244 1.390 1_455 S
C253 H246 0.950 . S
C253 C250 1.387 . S
C254 C255 1.387 . S
C254 H258 0.950 . S
C254 C263 1.390 1_455 S
C255 C254 1.387 . S
C255 C257 1.387 . S
H256 C263 0.950 . S
C257 C255 1.387 . S
C257 C259 1.390 1_455 S
C257 H261 0.950 . S
H258 C254 0.950 . S
C259 C257 1.390 1_655 S
C259 C260 1.387 . S
C259 H262 0.950 . S
C260 C259 1.387 . S
C260 C263 1.387 . S
H261 C257 0.950 . S
H262 C259 0.950 . S
C263 C254 1.390 1_655 S
C263 H256 0.950 . S
C263 C260 1.387 . S
C264 C265 1.387 . S
C264 H268 0.950 . S
C264 C273 1.390 . S
C265 C264 1.387 . S
C265 C267 1.387 . S
H266 C273 0.950 . S
C267 C265 1.387 . S
C267 C269 1.390 . S
C267 H271 0.950 . S
H268 C264 0.950 . S
C269 C267 1.390 . S
C269 C270 1.387 . S
C269 H272 0.950 . S
C270 C269 1.387 . S
C270 C273 1.387 . S
H271 C267 0.950 . S
H272 C269 0.950 . S
C273 C264 1.390 . S
C273 H266 0.950 . S
C273 C270 1.387 . S
C274 C275 1.387 . S
C274 H278 0.950 . S
C274 C283 1.390 . S
C275 C274 1.387 . S
C275 C277 1.387 . S
H276 C283 0.950 . S
C277 C275 1.387 . S
C277 C279 1.390 . S
C277 H281 0.950 . S
H278 C274 0.950 . S
C279 C277 1.390 . S
C279 C280 1.387 . S
C279 H282 0.950 . S
C280 C279 1.387 . S
C280 C283 1.387 . S
H281 C277 0.950 . S
H282 C279 0.950 . S
C283 C274 1.390 . S
C283 H276 0.950 . S
C283 C280 1.387 . S
C284 C285 1.387 . S
C284 H288 0.950 . S
C284 C293 1.390 . S
C285 C284 1.387 . S
C285 C287 1.387 . S
H286 C293 0.950 . S
C287 C285 1.387 . S
C287 C289 1.390 . S
C287 H291 0.950 . S
H288 C284 0.950 . S
C289 C287 1.390 . S
C289 C290 1.387 . S
C289 H292 0.950 . S
C290 C289 1.387 . S
C290 C293 1.387 . S
H291 C287 0.950 . S
H292 C289 0.950 . S
C293 C284 1.390 . S
C293 H286 0.950 . S
C293 C290 1.387 . S
C294 C295 1.387 . S
C294 H298 0.950 . S
C294 C303 1.390 . S
C295 C294 1.387 . S
C295 C297 1.387 . S
H296 C303 0.950 . S
C297 C295 1.387 . S
C297 C299 1.390 . S
C297 H301 0.950 . S
H298 C294 0.950 . S
C299 C297 1.390 . S
C299 C300 1.387 . S
C299 H302 0.950 . S
C300 C299 1.387 . S
C300 C303 1.387 . S
H301 C297 0.950 . S
H302 C299 0.950 . S
C303 C294 1.390 . S
C303 H296 0.950 . S
C303 C300 1.387 . S
C304 C305 1.387 . S
C304 H308 0.950 . S
C304 C313 1.390 . S
C305 C304 1.387 . S
C305 C307 1.387 . S
H306 C313 0.950 . S
C307 C305 1.387 . S
C307 C309 1.390 . S
C307 H311 0.950 . S
H308 C304 0.950 . S
C309 C307 1.390 . S
C309 C310 1.387 . S
C309 H312 0.950 . S
C310 C309 1.387 . S
C310 C313 1.387 . S
H311 C307 0.950 . S
H312 C309 0.950 . S
C313 C304 1.390 . S
C313 H306 0.950 . S
C313 C310 1.387 . S
C314 C315 1.387 . S
C314 H318 0.950 . S
C314 C323 1.390 . S
C315 C314 1.387 . S
C315 C317 1.387 . S
H316 C323 0.950 . S
C317 C315 1.387 . S
C317 C319 1.390 . S
C317 H321 0.950 . S
H318 C314 0.950 . S
C319 C317 1.390 . S
C319 C320 1.387 . S
C319 H322 0.950 . S
C320 C319 1.387 . S
C320 C323 1.387 . S
H321 C317 0.950 . S
H322 C319 0.950 . S
C323 C314 1.390 . S
C323 H316 0.950 . S
C323 C320 1.387 . S
C324 C325 1.387 . S
C324 H328 0.950 . S
C324 C333 1.390 . S
C325 C324 1.387 . S
C325 C327 1.387 . S
H326 C333 0.950 . S
C327 C325 1.387 . S
C327 C329 1.390 . S
C327 H331 0.950 . S
H328 C324 0.950 . S
C329 C327 1.390 . S
C329 C330 1.387 . S
C329 H332 0.950 . S
C330 C329 1.387 . S
C330 C333 1.387 . S
H331 C327 0.950 . S
H332 C329 0.950 . S
C333 C324 1.390 . S
C333 H326 0.950 . S
C333 C330 1.387 . S
C334 C335 1.387 . S
C334 H338 0.950 . S
C334 C343 1.390 . S
C335 C334 1.387 . S
C335 C337 1.387 . S
H336 C343 0.950 . S
C337 C335 1.387 . S
C337 C339 1.390 . S
C337 H341 0.950 . S
H338 C334 0.950 . S
C339 C337 1.390 . S
C339 C340 1.387 . S
C339 H342 0.950 . S
C340 C339 1.387 . S
C340 C343 1.387 . S
H341 C337 0.950 . S
H342 C339 0.950 . S
C343 C334 1.390 . S
C343 H336 0.950 . S
C343 C340 1.387 . S
C344 C345 1.387 . S
C344 H348 0.950 . S
C344 C353 1.390 . S
C345 C344 1.387 . S
C345 C347 1.387 . S
H346 C353 0.950 . S
C347 C345 1.387 . S
C347 C349 1.390 . S
C347 H351 0.950 . S
H348 C344 0.950 . S
C349 C347 1.390 . S
C349 C350 1.387 . S
C349 H352 0.950 . S
C350 C349 1.387 . S
C350 C353 1.387 . S
H351 C347 0.950 . S
H352 C349 0.950 . S
C353 C344 1.390 . S
C353 H346 0.950 . S
C353 C350 1.387 . S
C354 C355 1.387 . S
C354 H358 0.950 . S
C354 C363 1.390 . S
C355 C354 1.387 . S
C355 C357 1.387 . S
H356 C363 0.950 . S
C357 C355 1.387 . S
C357 C359 1.390 . S
C357 H361 0.950 . S
H358 C354 0.950 . S
C359 C357 1.390 . S
C359 C360 1.387 . S
C359 H362 0.950 . S
C360 C359 1.387 . S
C360 C363 1.387 . S
H361 C357 0.950 . S
H362 C359 0.950 . S
C363 C354 1.390 . S
C363 H356 0.950 . S
C363 C360 1.387 . S
C364 C365 1.387 . S
C364 H368 0.950 . S
C364 C373 1.390 . S
C365 C364 1.387 . S
C365 C367 1.387 . S
H366 C373 0.950 . S
C367 C365 1.387 . S
C367 C369 1.390 . S
C367 H371 0.950 . S
H368 C364 0.950 . S
C369 C367 1.390 . S
C369 C370 1.387 . S
C369 H372 0.950 . S
C370 C369 1.387 . S
C370 C373 1.387 . S
H371 C367 0.950 . S
H372 C369 0.950 . S
C373 C364 1.390 . S
C373 H366 0.950 . S
C373 C370 1.387 . S
C374 C375 1.387 . S
C374 H378 0.950 . S
C374 C383 1.390 . S
C375 C374 1.387 . S
C375 C377 1.387 . S
H376 C383 0.950 . S
C377 C375 1.387 . S
C377 C379 1.390 . S
C377 H381 0.950 . S
H378 C374 0.950 . S
C379 C377 1.390 . S
C379 C380 1.387 . S
C379 H382 0.950 . S
C380 C379 1.387 . S
C380 C383 1.387 . S
H381 C377 0.950 . S
H382 C379 0.950 . S
C383 C374 1.390 . S
C383 H376 0.950 . S
C383 C380 1.387 . S
C384 C385 1.387 1_554 S
C384 H388 0.950 . S
C384 C393 1.390 . S
C385 C384 1.387 1_556 S
C385 C387 1.387 . S
H386 C393 0.950 . S
C387 C385 1.387 . S
C387 C389 1.390 . S
C387 H391 0.950 . S
H388 C384 0.950 . S
C389 C387 1.390 . S
C389 C390 1.387 1_556 S
C389 H392 0.950 . S
C390 C389 1.387 1_554 S
C390 C393 1.387 . S
H391 C387 0.950 . S
H392 C389 0.950 . S
C393 C384 1.390 . S
C393 H386 0.950 . S
C393 C390 1.387 . S
C394 C395 1.387 . S
C394 H398 0.950 . S
C394 C403 1.390 . S
C395 C394 1.387 . S
C395 C397 1.387 . S
H396 C403 0.950 . S
C397 C395 1.387 . S
C397 C399 1.390 . S
C397 H401 0.950 . S
H398 C394 0.950 . S
C399 C397 1.390 . S
C399 C400 1.387 . S
C399 H402 0.950 . S
C400 C399 1.387 . S
C400 C403 1.387 . S
H401 C397 0.950 . S
H402 C399 0.950 . S
C403 C394 1.390 . S
C403 H396 0.950 . S
C403 C400 1.387 . S
C404 C405 1.387 . S
C404 H408 0.950 . S
C404 C413 1.390 . S
C405 C404 1.387 . S
C405 C407 1.387 1_554 S
H406 C413 0.950 . S
C407 C405 1.387 1_556 S
C407 C409 1.390 . S
C407 H411 0.950 . S
H408 C404 0.950 . S
C409 C407 1.390 . S
C409 C410 1.387 . S
C409 H412 0.950 . S
C410 C409 1.387 . S
C410 C413 1.387 1_556 S
H411 C407 0.950 . S
H412 C409 0.950 . S
C413 C404 1.390 . S
C413 H406 0.950 . S
C413 C410 1.387 1_554 S
C414 C415 1.387 . S
C414 H418 0.950 . S
C414 C423 1.390 . S
C415 C414 1.387 . S
C415 C417 1.387 . S
H416 C423 0.950 . S
C417 C415 1.387 . S
C417 C419 1.390 . S
C417 H421 0.950 . S
H418 C414 0.950 . S
C419 C417 1.390 . S
C419 C420 1.387 . S
C419 H422 0.950 . S
C420 C419 1.387 . S
C420 C423 1.387 . S
H421 C417 0.950 . S
H422 C419 0.950 . S
C423 C414 1.390 . S
C423 H416 0.950 . S
C423 C420 1.387 . S
C424 C425 1.387 . S
C424 H428 0.950 . S
C424 C433 1.390 1_554 S
C425 C424 1.387 . S
C425 C427 1.387 . S
H426 C433 0.950 . S
C427 C425 1.387 . S
C427 C429 1.390 1_554 S
C427 H431 0.950 . S
H428 C424 0.950 . S
C429 C427 1.390 1_556 S
C429 C430 1.387 . S
C429 H432 0.950 . S
C430 C429 1.387 . S
C430 C433 1.387 . S
H431 C427 0.950 . S
H432 C429 0.950 . S
C433 C424 1.390 1_556 S
C433 H426 0.950 . S
C433 C430 1.387 . S
C434 C435 1.387 . S
C434 H438 0.950 . S
C434 C443 1.390 . S
C435 C434 1.387 . S
C435 C437 1.387 . S
H436 C443 0.950 . S
C437 C435 1.387 . S
C437 C439 1.390 . S
C437 H441 0.950 . S
H438 C434 0.950 . S
C439 C437 1.390 . S
C439 C440 1.387 . S
C439 H442 0.950 . S
C440 C439 1.387 . S
C440 C443 1.387 . S
H441 C437 0.950 . S
H442 C439 0.950 . S
C443 C434 1.390 . S
C443 H436 0.950 . S
C443 C440 1.387 . S
C444 C445 1.387 . S
C444 H448 0.950 . S
C444 C453 1.390 . S
C445 C444 1.387 . S
C445 C447 1.387 1_554 S
H446 C453 0.950 . S
C447 C445 1.387 1_556 S
C447 C449 1.390 . S
C447 H451 0.950 . S
H448 C444 0.950 . S
C449 C447 1.390 . S
C449 C450 1.387 . S
C449 H452 0.950 . S
C450 C449 1.387 . S
C450 C453 1.387 1_556 S
H451 C447 0.950 . S
H452 C449 0.950 . S
C453 C444 1.390 . S
C453 H446 0.950 . S
C453 C450 1.387 1_554 S
C454 C455 1.387 . S
C454 H458 0.950 . S
C454 C463 1.390 . S
C455 C454 1.387 . S
C455 C457 1.387 . S
H456 C463 0.950 . S
C457 C455 1.387 . S
C457 C459 1.390 . S
C457 H461 0.950 . S
H458 C454 0.950 . S
C459 C457 1.390 . S
C459 C460 1.387 . S
C459 H462 0.950 . S
C460 C459 1.387 . S
C460 C463 1.387 . S
H461 C457 0.950 . S
H462 C459 0.950 . S
C463 C454 1.390 . S
C463 H456 0.950 . S
C463 C460 1.387 . S
C464 C465 1.387 . S
C464 H468 0.950 . S
C464 C473 1.390 1_556 S
C465 C464 1.387 . S
C465 C467 1.387 . S
H466 C473 0.950 . S
C467 C465 1.387 . S
C467 C469 1.390 1_556 S
C467 H471 0.950 . S
H468 C464 0.950 . S
C469 C467 1.390 1_554 S
C469 C470 1.387 . S
C469 H472 0.950 . S
C470 C469 1.387 . S
C470 C473 1.387 . S
H471 C467 0.950 . S
H472 C469 0.950 . S
C473 C464 1.390 1_554 S
C473 H466 0.950 . S
C473 C470 1.387 . S
C474 C475 1.387 . S
C474 H478 0.950 . S
C474 C483 1.390 . S
C475 C474 1.387 . S
C475 C477 1.387 . S
H476 C483 0.950 . S
C477 C475 1.387 . S
C477 C479 1.390 . S
C477 H481 0.950 . S
H478 C474 0.950 . S
C479 C477 1.390 . S
C479 C480 1.387 . S
C479 H482 0.950 . S
C480 C479 1.387 . S
C480 C483 1.387 . S
H481 C477 0.950 . S
H482 C479 0.950 . S
C483 C474 1.390 . S
C483 H476 0.950 . S
C483 C480 1.387 . S
C484 C485 1.387 . S
C484 H488 0.950 . S
C484 C493 1.390 1_554 S
C485 C484 1.387 . S
C485 C487 1.387 . S
H486 C493 0.950 . S
C487 C485 1.387 . S
C487 C489 1.390 1_554 S
C487 H491 0.950 . S
H488 C484 0.950 . S
C489 C487 1.390 1_556 S
C489 C490 1.387 . S
C489 H492 0.950 . S
C490 C489 1.387 . S
C490 C493 1.387 . S
H491 C487 0.950 . S
H492 C489 0.950 . S
C493 C484 1.390 1_556 S
C493 H486 0.950 . S
C493 C490 1.387 . S
C494 C495 1.387 . S
C494 H498 0.950 . S
C494 C503 1.390 . S
C495 C494 1.387 . S
C495 C497 1.387 . S
H496 C503 0.950 . S
C497 C495 1.387 . S
C497 C499 1.390 . S
C497 H501 0.950 . S
H498 C494 0.950 . S
C499 C497 1.390 . S
C499 C500 1.387 . S
C499 H502 0.950 . S
C500 C499 1.387 . S
C500 C503 1.387 . S
H501 C497 0.950 . S
H502 C499 0.950 . S
C503 C494 1.390 . S
C503 H496 0.950 . S
C503 C500 1.387 . S
C504 C505 1.387 . S
C504 H508 0.950 . S
C504 C513 1.390 1_546 S
C505 C504 1.387 . S
C505 C507 1.387 . S
H506 C513 0.950 . S
C507 C505 1.387 . S
C507 C509 1.390 1_546 S
C507 H511 0.950 . S
H508 C504 0.950 . S
C509 C507 1.390 1_564 S
C509 C510 1.387 . S
C509 H512 0.950 . S
C510 C509 1.387 . S
C510 C513 1.387 . S
H511 C507 0.950 . S
H512 C509 0.950 . S
C513 C504 1.390 1_564 S
C513 H506 0.950 . S
C513 C510 1.387 . S
C514 C515 1.387 . S
C514 H518 0.950 . S
C514 C523 1.390 1_565 S
C515 C514 1.387 . S
C515 C517 1.387 . S
H516 C523 0.950 . S
C517 C515 1.387 . S
C517 C519 1.390 1_565 S
C517 H521 0.950 . S
H518 C514 0.950 . S
C519 C517 1.390 1_545 S
C519 C520 1.387 . S
C519 H522 0.950 . S
C520 C519 1.387 . S
C520 C523 1.387 . S
H521 C517 0.950 . S
H522 C519 0.950 . S
C523 C514 1.390 1_545 S
C523 H516 0.950 . S
C523 C520 1.387 . S
C524 C525 1.387 . S
C524 H528 0.950 . S
C524 C533 1.390 1_564 S
C525 C524 1.387 . S
C525 C527 1.387 . S
H526 C533 0.950 . S
C527 C525 1.387 . S
C527 C529 1.390 1_564 S
C527 H531 0.950 . S
H528 C524 0.950 . S
C529 C527 1.390 1_546 S
C529 C530 1.387 . S
C529 H532 0.950 . S
C530 C529 1.387 . S
C530 C533 1.387 . S
H531 C527 0.950 . S
H532 C529 0.950 . S
C533 C524 1.390 1_546 S
C533 H526 0.950 . S
C533 C530 1.387 . S
C534 C535 1.387 . S
C534 H538 0.950 . S
C534 C543 1.390 1_545 S
C535 C534 1.387 . S
C535 C537 1.387 . S
H536 C543 0.950 . S
C537 C535 1.387 . S
C537 C539 1.390 1_545 S
C537 H541 0.950 . S
H538 C534 0.950 . S
C539 C537 1.390 1_565 S
C539 C540 1.387 . S
C539 H542 0.950 . S
C540 C539 1.387 . S
C540 C543 1.387 . S
H541 C537 0.950 . S
H542 C539 0.950 . S
C543 C534 1.390 1_565 S
C543 H536 0.950 . S
C543 C540 1.387 . S
C225 C4 1.477 . S
C230 C88 1.478 . S
C235 C18 1.477 . S
C240 C102 1.478 . S
C245 C60 1.480 . S
C250 C32 1.478 . S
C255 C74 1.480 . S
C260 C46 1.478 . S
C265 C200 1.480 . S
C270 C116 1.478 . S
C275 C214 1.478 . S
C280 C130 1.477 . S
C285 C144 1.478 . S
C290 C172 1.480 . S
C295 C158 1.478 . S
C300 C186 1.480 . S
C305 C5 1.330 . S
C310 C82 1.471 . S
C315 C19 1.329 . S
C320 C68 1.470 . S
C325 C33 1.333 . S
C330 C110 1.471 . S
C335 C96 1.470 . S
C340 C47 1.328 . S
C345 C194 1.471 . S
C350 C117 1.332 . S
C355 C180 1.471 . S
C360 C131 1.332 . S
C365 C145 1.331 . S
C370 C222 1.470 . S
C375 C208 1.470 . S
C380 C159 1.331 . S
C385 C179 1.377 . S
C390 C11 1.370 . S
C395 C25 1.368 . S
C400 C193 1.376 . S
C405 C207 1.374 . S
C410 C39 1.369 . S
C415 C221 1.374 . S
C420 C53 1.370 . S
C425 C123 1.368 . S
C430 C67 1.376 . S
C435 C137 1.371 . S
C440 C81 1.377 . S
C445 C95 1.374 . S
C450 C151 1.369 . S
C455 C109 1.374 . S
C460 C165 1.368 . S
C465 C40 1.564 . S
C470 C12 1.564 . S
C475 C26 1.565 . S
C480 C54 1.565 . S
C485 C89 1.228 . S
C490 C61 1.228 . S
C495 C75 1.229 . S
C500 C103 1.229 . S
C505 C152 1.564 . S
C510 C124 1.564 . S
C515 C166 1.564 . S
C520 C138 1.564 . S
C525 C201 1.228 . S
C530 C173 1.228 . S
C535 C215 1.229 . S
C540 C187 1.229 . S
