# Generated by pormake.
# Topology zfk, (5)-cn, num edge types: 1
# Building blocks:
#     Node 0, Type 0, BuildingBlock: XOMCOT_clean_sbu_0, # of connection points: 5
#     Node 1, Type 0, BuildingBlock: XOMCOT_clean_sbu_0, # of connection points: 5
#     Node 2, Type 0, BuildingBlock: XOMCOT_clean_sbu_0, # of connection points: 5
#     Node 3, Type 0, BuildingBlock: XOMCOT_clean_sbu_0, # of connection points: 5
#     Node 4, Type 0, BuildingBlock: XOMCOT_clean_sbu_0, # of connection points: 5
#     Node 5, Type 0, BuildingBlock: XOMCOT_clean_sbu_0, # of connection points: 5
#     Node 6, Type 0, BuildingBlock: XOMCOT_clean_sbu_0, # of connection points: 5
#     Node 7, Type 0, BuildingBlock: XOMCOT_clean_sbu_0, # of connection points: 5
#     Node 8, Type 0, BuildingBlock: XOMCOT_clean_sbu_0, # of connection points: 5
#     Node 9, Type 0, BuildingBlock: XOMCOT_clean_sbu_0, # of connection points: 5
#     Node 10, Type 0, BuildingBlock: XOMCOT_clean_sbu_0, # of connection points: 5
#     Node 11, Type 0, BuildingBlock: XOMCOT_clean_sbu_0, # of connection points: 5
#     Node 12, Type 0, BuildingBlock: XOMCOT_clean_sbu_0, # of connection points: 5
#     Node 13, Type 0, BuildingBlock: XOMCOT_clean_sbu_0, # of connection points: 5
#     Node 14, Type 0, BuildingBlock: XOMCOT_clean_sbu_0, # of connection points: 5
#     Node 15, Type 0, BuildingBlock: XOMCOT_clean_sbu_0, # of connection points: 5
#     Edge 16, Type (0, 0), BuildingBlock: CIFDUS_clean_linker_0, # of connection points: 2
#     Edge 17, Type (0, 0), BuildingBlock: CIFDUS_clean_linker_0, # of connection points: 2
#     Edge 18, Type (0, 0), BuildingBlock: CIFDUS_clean_linker_0, # of connection points: 2
#     Edge 19, Type (0, 0), BuildingBlock: CIFDUS_clean_linker_0, # of connection points: 2
#     Edge 20, Type (0, 0), BuildingBlock: CIFDUS_clean_linker_0, # of connection points: 2
#     Edge 21, Type (0, 0), BuildingBlock: CIFDUS_clean_linker_0, # of connection points: 2
#     Edge 22, Type (0, 0), BuildingBlock: CIFDUS_clean_linker_0, # of connection points: 2
#     Edge 23, Type (0, 0), BuildingBlock: CIFDUS_clean_linker_0, # of connection points: 2
#     Edge 24, Type (0, 0), BuildingBlock: CIFDUS_clean_linker_0, # of connection points: 2
#     Edge 25, Type (0, 0), BuildingBlock: CIFDUS_clean_linker_0, # of connection points: 2
#     Edge 26, Type (0, 0), BuildingBlock: CIFDUS_clean_linker_0, # of connection points: 2
#     Edge 27, Type (0, 0), BuildingBlock: CIFDUS_clean_linker_0, # of connection points: 2
#     Edge 28, Type (0, 0), BuildingBlock: CIFDUS_clean_linker_0, # of connection points: 2
#     Edge 29, Type (0, 0), BuildingBlock: CIFDUS_clean_linker_0, # of connection points: 2
#     Edge 30, Type (0, 0), BuildingBlock: CIFDUS_clean_linker_0, # of connection points: 2
#     Edge 31, Type (0, 0), BuildingBlock: CIFDUS_clean_linker_0, # of connection points: 2
#     Edge 32, Type (0, 0), BuildingBlock: CIFDUS_clean_linker_0, # of connection points: 2
#     Edge 33, Type (0, 0), BuildingBlock: CIFDUS_clean_linker_0, # of connection points: 2
#     Edge 34, Type (0, 0), BuildingBlock: CIFDUS_clean_linker_0, # of connection points: 2
#     Edge 35, Type (0, 0), BuildingBlock: CIFDUS_clean_linker_0, # of connection points: 2
#     Edge 36, Type (0, 0), BuildingBlock: CIFDUS_clean_linker_0, # of connection points: 2
#     Edge 37, Type (0, 0), BuildingBlock: CIFDUS_clean_linker_0, # of connection points: 2
#     Edge 38, Type (0, 0), BuildingBlock: CIFDUS_clean_linker_0, # of connection points: 2
#     Edge 39, Type (0, 0), BuildingBlock: CIFDUS_clean_linker_0, # of connection points: 2
#     Edge 40, Type (0, 0), BuildingBlock: CIFDUS_clean_linker_0, # of connection points: 2
#     Edge 41, Type (0, 0), BuildingBlock: CIFDUS_clean_linker_0, # of connection points: 2
#     Edge 42, Type (0, 0), BuildingBlock: CIFDUS_clean_linker_0, # of connection points: 2
#     Edge 43, Type (0, 0), BuildingBlock: CIFDUS_clean_linker_0, # of connection points: 2
#     Edge 44, Type (0, 0), BuildingBlock: CIFDUS_clean_linker_0, # of connection points: 2
#     Edge 45, Type (0, 0), BuildingBlock: CIFDUS_clean_linker_0, # of connection points: 2
#     Edge 46, Type (0, 0), BuildingBlock: CIFDUS_clean_linker_0, # of connection points: 2
#     Edge 47, Type (0, 0), BuildingBlock: CIFDUS_clean_linker_0, # of connection points: 2
#     Edge 48, Type (0, 0), BuildingBlock: CIFDUS_clean_linker_0, # of connection points: 2
#     Edge 49, Type (0, 0), BuildingBlock: CIFDUS_clean_linker_0, # of connection points: 2
#     Edge 50, Type (0, 0), BuildingBlock: CIFDUS_clean_linker_0, # of connection points: 2
#     Edge 51, Type (0, 0), BuildingBlock: CIFDUS_clean_linker_0, # of connection points: 2
#     Edge 52, Type (0, 0), BuildingBlock: CIFDUS_clean_linker_0, # of connection points: 2
#     Edge 53, Type (0, 0), BuildingBlock: CIFDUS_clean_linker_0, # of connection points: 2
#     Edge 54, Type (0, 0), BuildingBlock: CIFDUS_clean_linker_0, # of connection points: 2
#     Edge 55, Type (0, 0), BuildingBlock: CIFDUS_clean_linker_0, # of connection points: 2
# Relax obj value: 0.340
# Max RMSD: 0.199
# Mean RMSD: 0.199
data_MOF--net-zfk--node1-XOMCOT_clean_sbu_0--edge1-CIFDUS_clean_linker_0
_symmetry_space_group_name_H-M    P1
_symmetry_Int_Tables_number       1
_symmetry_cell_setting            triclinic
loop_
_symmetry_equiv_pos_as_xyz
'x, y, z'
_cell_length_a     26.210189
_cell_length_b     26.245947
_cell_length_c     59.116791
_cell_angle_alpha  90.261561
_cell_angle_beta   89.727124
_cell_angle_gamma 89.8703
loop_
_atom_site_label
_atom_site_type_symbol
_atom_site_fract_x
_atom_site_fract_y
_atom_site_fract_z
_atom_type_partial_charge
Co0 Co 0.02063 0.25517 0.14905 0.0
C1 C 0.07157 0.29223 0.19181 0.0
C2 C 0.02627 0.22569 0.19657 0.0
C3 C 0.03828 0.24488 0.21737 0.0
N4 N 0.04814 0.25392 0.18008 0.0
N5 N 0.06605 0.28738 0.21463 0.0
H6 H 0.08793 0.32552 0.1839 0.0
H7 H 0.99737 0.19706 0.19404 0.0
C8 C 0.02984 0.14441 0.15945 0.0
O9 O 0.07614 0.15809 0.16536 0.0
N10 N 0.99017 0.25858 0.11859 0.0
C11 C 0.99452 0.2989 0.10461 0.0
C12 C 0.98154 0.28469 0.08307 0.0
C13 C 0.97294 0.22035 0.10496 0.0
N14 N 0.96882 0.23495 0.08296 0.0
C15 C 0.12167 0.26571 0.13375 0.0
C16 C 0.10891 0.19837 0.09792 0.0
C17 C 0.14181 0.23943 0.0954 0.0
C18 C 0.15111 0.27098 0.11426 0.0
C19 C 0.08036 0.19443 0.11779 0.0
N20 N 0.08296 0.23135 0.13432 0.0
H21 H 0.12575 0.29346 0.14716 0.0
H22 H 0.0518 0.16512 0.11821 0.0
H23 H 1.01024 0.33559 0.10899 0.0
H24 H 0.96741 0.18169 0.11068 0.0
O25 O 0.03702 0.3267 0.14729 0.0
O26 O 0.96506 0.29963 0.16164 0.0
O27 O 0.99806 0.17949 0.1529 0.0
C28 C 0.99458 0.33854 0.15687 0.0
H29 H 0.02208 0.23202 0.23323 0.0
H30 H 0.98598 0.30849 0.06831 0.0
H31 H 0.10329 0.17129 0.08428 0.0
H32 H 0.17943 0.30093 0.11364 0.0
Co33 Co 0.31207 0.05189 0.66683 0.0
C34 C 0.27088 0.08241 0.71235 0.0
C35 C 0.35183 0.07263 0.71308 0.0
C36 C 0.33412 0.07816 0.73505 0.0
N37 N 0.3121 0.07464 0.69865 0.0
N38 N 0.28299 0.08387 0.73461 0.0
H39 H 0.23204 0.08379 0.70648 0.0
H40 H 0.39089 0.0647 0.70828 0.0
C41 C 0.42 1.01327 0.65656 0.0
O42 O 0.41053 0.02255 0.63526 0.0
N43 N 0.3103 0.02616 0.63548 0.0
C44 C 0.30523 0.97614 0.63054 0.0
C45 C 0.31202 0.96852 0.60771 0.0
C46 C 0.31918 0.04839 0.61505 0.0
N47 N 0.3214 1.01382 0.59795 0.0
C48 C 0.316 0.14875 0.64589 0.0
C49 C 0.42114 0.15653 0.64357 0.0
C50 C 0.39131 0.18198 0.62764 0.0
C51 C 0.33814 0.18195 0.63067 0.0
C52 C 0.39676 0.1243 0.65918 0.0
N53 N 0.34545 0.1151 0.65747 0.0
H54 H 0.27508 0.14586 0.64573 0.0
H55 H 0.41965 0.10485 0.67152 0.0
H56 H 0.29991 0.94642 0.64292 0.0
H57 H 0.32869 0.08778 0.61267 0.0
O58 O 0.2422 0.07526 0.66363 0.0
O59 O 0.26136 0.99824 0.6749 0.0
O60 O 0.38348 1.01762 0.67138 0.0
C61 C 0.22577 0.03126 0.66975 0.0
H62 H 0.35708 0.07634 0.75019 0.0
H63 H 0.31215 0.93204 0.59909 0.0
H64 H 0.46232 0.15954 0.64327 0.0
H65 H 0.31317 0.20357 0.61983 0.0
Co66 Co 0.48814 0.30114 0.1647 0.0
C67 C 0.45732 0.26956 0.2122 0.0
C68 C 0.51656 0.32549 0.2114 0.0
C69 C 0.51062 0.30947 0.23332 0.0
N70 N 0.48211 0.30208 0.19795 0.0
N71 N 0.47347 0.27437 0.23391 0.0
H72 H 0.43128 0.24018 0.2067 0.0
H73 H 0.54699 0.34978 0.20546 0.0
C74 C 0.4921 0.41096 0.17658 0.0
O75 O 0.45309 0.3988 0.1895 0.0
N76 N 0.4966 0.29746 0.13137 0.0
C77 C 0.47777 0.25917 0.11859 0.0
C78 C 0.48415 0.27012 0.09615 0.0
C79 C 0.51431 0.33185 0.11591 0.0
N80 N 0.50708 0.31579 0.09413 0.0
C81 C 0.38205 0.29472 0.16299 0.0
C82 C 0.38341 0.35392 0.1244 0.0
C83 C 0.35431 0.30961 0.12484 0.0
C84 C 0.34933 0.28306 0.14527 0.0
C85 C 0.41547 0.36389 0.14258 0.0
N86 N 0.42036 0.32874 0.15957 0.0
H87 H 0.38315 0.26916 0.17719 0.0
H88 H 0.44375 0.39295 0.13986 0.0
H89 H 0.45784 0.22615 0.12486 0.0
H90 H 0.53034 0.36844 0.12042 0.0
O91 O 0.46852 0.23041 0.16494 0.0
O92 O 0.54798 0.25515 0.16844 0.0
O93 O 0.51577 0.37503 0.16556 0.0
C94 C 0.51541 0.2173 0.16746 0.0
H95 H 0.53443 0.31992 0.24752 0.0
H96 H 0.4701 0.24704 0.08231 0.0
H97 H 0.3864 0.37674 0.10923 0.0
H98 H 0.32419 0.25051 0.14673 0.0
Co99 Co 0.24819 0.43761 0.65936 0.0
C100 C 0.27399 0.44847 0.70846 0.0
C101 C 0.24359 0.37425 0.70258 0.0
C102 C 0.26042 0.37713 0.72472 0.0
N103 N 0.25219 0.41914 0.69202 0.0
N104 N 0.2803 0.42371 0.72836 0.0
H105 H 0.2867 0.48712 0.70589 0.0
H106 H 0.22747 0.34065 0.69483 0.0
C107 C 0.13838 0.43745 0.67249 0.0
O108 O 0.14971 0.39369 0.68179 0.0
N109 N 0.24674 0.45884 0.62722 0.0
C110 C 0.28615 0.45473 0.61251 0.0
C111 C 0.2696 0.4647 0.59098 0.0
C112 C 0.20667 0.47308 0.61402 0.0
N113 N 0.21935 0.47558 0.59167 0.0
C114 C 0.25856 0.33387 0.65105 0.0
C115 C 0.20211 0.34511 0.61196 0.0
C116 C 0.24831 0.31856 0.6111 0.0
C117 C 0.27322 0.30814 0.63154 0.0
C118 C 0.18807 0.36893 0.63241 0.0
N119 N 0.22231 0.37098 0.64989 0.0
H120 H 0.28475 0.33263 0.66508 0.0
H121 H 0.15547 0.39405 0.63218 0.0
H122 H 0.32428 0.44247 0.61665 0.0
H123 H 0.16832 0.47848 0.62042 0.0
O124 O 0.31927 0.41947 0.6564 0.0
O125 O 0.29386 0.49636 0.66586 0.0
O126 O 0.17465 0.46438 0.66378 0.0
C127 C 0.33202 0.465 0.662 0.0
H128 H 0.26058 0.34624 0.73678 0.0
H129 H 0.29241 0.4605 0.57578 0.0
H130 H 0.18029 0.35193 0.59675 0.0
H131 H 0.30839 0.28658 0.63186 0.0
Co132 Co 0.05651 0.03578 0.91291 0.0
C133 C 0.11908 0.04249 0.86852 0.0
C134 C 0.03851 0.05174 0.86476 0.0
C135 C 0.06113 0.05681 0.84384 0.0
N136 N 0.07451 0.04336 0.88055 0.0
N137 N 0.11202 0.05135 0.84608 0.0
H138 H 0.15614 0.03652 0.87564 0.0
H139 H 0.9981 0.05465 0.86833 0.0
C140 C 0.04148 0.14583 0.90223 0.0
O141 O 0.08496 0.13955 0.89144 0.0
N142 N 0.03697 0.02652 0.94476 0.0
C143 C 0.06058 0.99349 0.95863 0.0
C144 C 0.04559 1.00269 0.9805 0.0
C145 C 1.00713 0.05541 0.95874 0.0
N146 N 1.01236 0.04206 0.98087 0.0
C147 C 0.16553 0.05531 0.91878 0.0
C148 C 0.14939 0.14011 0.94575 0.0
C149 C 0.19777 0.131 0.93696 0.0
C150 C 0.20687 0.08701 0.92404 0.0
C151 C 0.10964 0.10963 0.93899 0.0
N152 N 0.11702 0.07053 0.92394 0.0
H153 H 0.17222 0.0197 0.91007 0.0
H154 H 0.07222 0.12042 0.94476 0.0
H155 H 0.08995 0.96679 0.95356 0.0
H156 H 0.98505 0.08771 0.95303 0.0
O157 O 0.08214 0.96584 0.91212 0.0
O158 O 1.0032 0.98745 0.90389 0.0
O159 O 0.02013 0.10643 0.91147 0.0
C160 C 0.03687 0.95105 0.90629 0.0
H161 H 0.0412 0.06357 0.82816 0.0
H162 H 0.06155 0.98415 0.99516 0.0
H163 H 0.14134 0.17355 0.95602 0.0
H164 H 0.24468 0.07826 0.91764 0.0
Co165 Co 0.47095 0.11231 0.42055 0.0
C166 C 0.45253 0.15061 0.37321 0.0
C167 C 0.47503 0.21105 0.39551 0.0
C168 C 0.46665 0.23117 0.3745 0.0
N169 N 0.46524 0.16051 0.39516 0.0
N170 N 0.45261 0.1935 0.3604 0.0
H171 H 0.44241 0.1132 0.36693 0.0
H172 H 0.48813 0.23296 0.40967 0.0
C173 C 0.35854 0.11483 0.40876 0.0
O174 O 0.3655 0.16402 0.40626 0.0
N175 N 0.47762 0.06413 0.44573 0.0
C176 C 0.52093 0.05388 0.45723 0.0
C177 C 0.50895 0.02935 0.47706 0.0
C178 C 0.43993 0.04441 0.45888 0.0
N179 N 0.45801 0.02428 0.47827 0.0
C180 C 0.47762 0.2011 0.44935 0.0
C181 C 0.38218 0.19429 0.46827 0.0
C182 C 0.40696 0.24141 0.46832 0.0
C183 C 0.45817 0.24245 0.46163 0.0
C184 C 0.40098 0.15614 0.45416 0.0
N185 N 0.44615 0.16221 0.44281 0.0
H186 H 0.51621 0.20351 0.44307 0.0
H187 H 0.37683 0.12387 0.45144 0.0
H188 H 0.55875 0.06651 0.45267 0.0
H189 H 0.39982 0.0461 0.45494 0.0
O190 O 0.54282 0.12941 0.42254 0.0
O191 O 0.51365 0.06733 0.4012 0.0
O192 O 0.39725 0.08662 0.41414 0.0
C193 C 0.55309 0.09326 0.40834 0.0
H194 H 0.47105 0.27077 0.36981 0.0
H195 H 0.53528 0.01986 0.49047 0.0
H196 H 0.34331 0.19092 0.47444 0.0
H197 H 0.47984 0.2775 0.46242 0.0
Co198 Co 0.46805 0.49424 0.91375 0.0
C199 C 0.41397 0.48084 0.86752 0.0
C200 C 0.49494 0.4892 0.86538 0.0
C201 C 0.47608 0.48299 0.84381 0.0
N202 N 0.45634 0.48803 0.88059 0.0
N203 N 0.42509 0.47739 0.84505 0.0
H204 H 0.37578 0.47667 0.87385 0.0
H205 H 0.53478 0.49313 0.8697 0.0
C206 C 0.48689 0.38462 0.9022 0.0
O207 O 0.44593 0.39063 0.88984 0.0
N208 N 0.48034 0.50233 0.94659 0.0
C209 C 0.45642 0.53795 0.95932 0.0
C210 C 0.46624 0.52968 0.98175 0.0
C211 C 0.50471 0.47233 0.96202 0.0
N212 N 0.49626 0.4882 0.98377 0.0
C213 C 0.35796 0.47692 0.91566 0.0
C214 C 0.36774 0.38851 0.9404 0.0
C215 C 0.3206 0.39977 0.9307 0.0
C216 C 0.31497 0.44596 0.91902 0.0
C217 C 0.40892 0.41922 0.93604 0.0
N218 N 0.40506 0.45992 0.92188 0.0
H219 H 0.35402 0.51274 0.90688 0.0
H220 H 0.44492 0.40741 0.9429 0.0
H221 H 0.43057 0.56663 0.95304 0.0
H222 H 0.5259 0.43828 0.95756 0.0
O223 O 0.44368 0.56484 0.91251 0.0
O224 O 0.52375 0.542 0.9075 0.0
O225 O 0.50493 0.42378 0.91294 0.0
C226 C 0.49037 0.57895 0.90869 0.0
H227 H 0.49859 0.48082 0.82844 0.0
H228 H 0.44936 0.55091 0.99563 0.0
H229 H 0.37455 0.35369 0.94969 0.0
H230 H 0.27858 0.45689 0.91191 0.0
Co231 Co 0.06923 0.46107 0.39963 0.0
C232 C 0.05422 0.43126 0.35165 0.0
C233 C 0.08685 0.50588 0.35421 0.0
C234 C 0.08726 0.4909 0.33171 0.0
N235 N 0.06695 0.46802 0.36674 0.0
N236 N 0.06758 0.44349 0.33016 0.0
H237 H 0.03927 0.39459 0.35666 0.0
H238 H 0.10333 0.54035 0.36106 0.0
C239 C 0.18113 0.47437 0.40962 0.0
O240 O 0.1756 0.43391 0.4224 0.0
N241 N 0.06952 0.4554 0.4331 0.0
C242 C 0.03654 0.42807 0.44579 0.0
C243 C 0.04854 0.4332 0.46833 0.0
C244 C 0.09891 0.47976 0.44871 0.0
N245 N 0.08832 0.46534 0.47031 0.0
C246 C 0.09134 0.35441 0.40872 0.0
C247 C 0.17786 0.35352 0.38184 0.0
C248 C 0.17397 0.31918 0.39974 0.0
C249 C 0.12757 0.31595 0.41158 0.0
C250 C 0.14175 0.39174 0.3801 0.0
N251 N 0.10244 0.39517 0.39538 0.0
H252 H 0.05705 0.3535 0.41872 0.0
H253 H 0.15037 0.42273 0.36879 0.0
H254 H 1.00561 0.40527 0.43924 0.0
H255 H 0.12735 0.50787 0.44447 0.0
O256 O 0.99855 0.43894 0.39908 0.0
O257 O 0.02258 0.5191 0.4026 0.0
O258 O 0.1413 0.49445 0.40021 0.0
C259 C 0.98515 0.48632 0.40127 0.0
H260 H 0.10447 0.5117 0.31789 0.0
H261 H 0.02999 0.41342 0.4821 0.0
H262 H 0.21245 0.35686 0.37187 0.0
H263 H 0.12205 0.28786 0.42473 0.0
Co264 Co 0.98488 0.53717 0.91424 0.0
C265 C 0.93079 0.52256 0.86895 0.0
C266 C 1.00861 0.54592 0.86597 0.0
C267 C 0.98908 0.53959 0.84457 0.0
N268 N 0.97196 0.53642 0.88145 0.0
N269 N 0.93986 0.52507 0.8463 0.0
H270 H 0.8953 0.50975 0.87597 0.0
H271 H 0.04742 0.55635 0.87002 0.0
C272 C 1.0028 0.64459 0.89897 0.0
O273 O 0.96178 0.63657 0.88679 0.0
N274 N 0.99927 0.53624 0.94682 0.0
C275 C 0.97584 0.50546 0.96182 0.0
C276 C 0.98663 0.52158 0.98343 0.0
C277 C 0.02469 0.5706 0.95982 0.0
N278 N 1.01673 0.56311 0.98233 0.0
C279 C 0.87473 0.55593 0.91625 0.0
C280 C 0.88508 0.64944 0.93728 0.0
C281 C 0.83736 0.63568 0.9289 0.0
C282 C 0.83164 0.58728 0.91901 0.0
C283 C 0.92626 0.6177 0.93388 0.0
N284 N 0.92208 0.57382 0.92153 0.0
H285 H 0.86998 0.51772 0.9099 0.0
H286 H 0.96235 0.63092 0.94008 0.0
H287 H 0.94935 0.4755 0.95751 0.0
H288 H 0.04546 0.60261 0.95296 0.0
O289 O 0.96023 0.46701 0.91592 0.0
O290 O 0.04003 0.48808 0.90891 0.0
O291 O 0.0214 0.60712 0.91058 0.0
C292 C 1.00647 0.45183 0.91165 0.0
H293 H 1.01033 0.54413 0.82899 0.0
H294 H 0.96979 0.50635 0.99871 0.0
H295 H 0.89187 0.68614 0.94514 0.0
H296 H 0.79472 0.57426 0.91325 0.0
Co297 Co 0.96689 0.04062 0.40777 0.0
C298 C 0.9788 0.97913 0.36461 0.0
C299 C 0.95998 0.05749 0.35882 0.0
C300 C 0.96182 0.03245 0.33829 0.0
N301 N 0.97026 0.02422 0.37542 0.0
N302 N 0.97316 0.9828 0.34175 0.0
H303 H 0.98705 0.94414 0.37347 0.0
H304 H 0.95077 0.09725 0.36152 0.0
C305 C 0.8557 0.06738 0.41487 0.0
O306 O 0.85812 0.03833 0.4328 0.0
N307 N 0.96351 0.06011 0.44034 0.0
C308 C 0.97646 0.10713 0.44775 0.0
C309 C 0.96758 0.11128 0.47058 0.0
C310 C 0.94566 0.03661 0.45945 0.0
N311 N 0.94794 0.06715 0.47808 0.0
C312 C 0.95343 0.9407 0.42716 0.0
C313 C 0.86388 0.92046 0.40426 0.0
C314 C 0.87989 0.88721 0.42116 0.0
C315 C 0.92645 0.89607 0.43203 0.0
C316 C 0.8918 0.964 0.39999 0.0
N317 N 0.93348 0.97586 0.41274 0.0
H318 H 0.98881 0.94848 0.43584 0.0
H319 H 0.87888 0.98916 0.38678 0.0
H320 H 0.99004 0.13779 0.43722 0.0
H321 H 0.9294 0.99897 0.45992 0.0
O322 O 0.03826 0.01901 0.41119 0.0
O323 O 1.01488 0.09677 0.4023 0.0
O324 O 0.89639 0.07522 0.40292 0.0
C325 C 0.05226 0.06515 0.40633 0.0
H326 H 0.95492 0.05001 0.32208 0.0
H327 H 0.97331 0.14515 0.48077 0.0
H328 H 0.82951 0.91326 0.39464 0.0
H329 H 0.94076 0.86991 0.44463 0.0
Co330 Co 0.54805 0.99433 0.91417 0.0
C331 C 0.60843 1.00911 0.87028 0.0
C332 C 0.53573 0.97393 0.8656 0.0
C333 C 0.55861 0.97945 0.84474 0.0
N334 N 0.56743 0.99084 0.88191 0.0
N335 N 0.60457 1.00139 0.8476 0.0
H336 H 0.63917 0.03037 0.87773 0.0
H337 H 0.49806 0.95863 0.86865 0.0
C338 C 0.53415 0.88435 0.90159 0.0
O339 O 0.57834 0.89053 0.89138 0.0
N340 N 0.52723 0.99992 0.946 0.0
C341 C 0.55041 0.03024 0.96126 0.0
C342 C 0.53453 1.01723 0.98263 0.0
C343 C 0.49659 0.96922 0.95854 0.0
N344 N 0.50126 0.97821 0.98113 0.0
C345 C 0.65735 0.97197 0.91825 0.0
C346 C 0.64171 0.88644 0.94448 0.0
C347 C 0.68968 0.89517 0.93529 0.0
C348 C 0.69848 0.93932 0.9227 0.0
C349 C 0.60204 0.91846 0.93889 0.0
N350 N 0.60899 0.95848 0.92443 0.0
H351 H 0.66446 1.00726 0.90974 0.0
H352 H 0.56483 0.90787 0.94487 0.0
H353 H 0.58022 0.05726 0.95739 0.0
H354 H 0.4748 0.93818 0.9514 0.0
O355 O 0.57242 0.06462 0.91535 0.0
O356 O 0.49426 0.04248 0.90594 0.0
O357 O 0.51249 0.92364 0.911 0.0
C358 C 0.52707 0.07912 0.90938 0.0
H359 H 0.5426 0.96771 0.82871 0.0
H360 H 0.55016 0.03244 0.99816 0.0
H361 H 0.63398 0.85271 0.95444 0.0
H362 H 0.73605 0.9477 0.916 0.0
Co363 Co 0.56999 0.53681 0.40769 0.0
C364 C 0.5665 0.59616 0.36295 0.0
C365 C 0.58781 0.51788 0.35948 0.0
C366 C 0.58904 0.53997 0.3384 0.0
N367 N 0.57467 0.55305 0.37516 0.0
N368 N 0.57581 0.58949 0.34044 0.0
H369 H 0.55318 0.63152 0.37 0.0
H370 H 0.597 0.47862 0.36322 0.0
C371 C 0.68005 0.52451 0.39568 0.0
O372 O 0.67312 0.56766 0.38492 0.0
N373 N 0.56447 0.51854 0.43978 0.0
C374 C 0.53129 0.53938 0.45469 0.0
C375 C 0.544 0.5244 0.47623 0.0
C376 C 0.59682 0.49061 0.45267 0.0
N377 N 0.58567 0.49422 0.47512 0.0
C378 C 0.58234 0.6465 0.41277 0.0
C379 C 0.67082 0.63951 0.43772 0.0
C380 C 0.65614 0.68707 0.42948 0.0
C381 C 0.60966 0.6909 0.41784 0.0
C382 C 0.64371 0.59663 0.4315 0.0
N383 N 0.60257 0.59983 0.41744 0.0
H384 H 0.54537 0.64965 0.405 0.0
H385 H 0.6577 0.5605 0.43739 0.0
H386 H 0.50177 0.5665 0.45047 0.0
H387 H 0.62979 0.47076 0.44594 0.0
O388 O 0.49907 0.5594 0.40793 0.0
O389 O 0.52352 0.48086 0.40014 0.0
O390 O 0.64136 0.50293 0.40534 0.0
C391 C 0.4859 0.51319 0.40278 0.0
H392 H 0.60001 0.52086 0.32287 0.0
H393 H 0.5262 0.53811 0.49166 0.0
H394 H 0.7044 0.63495 0.44814 0.0
H395 H 0.59533 0.72727 0.41206 0.0
Co396 Co 0.99684 0.75161 0.16646 0.0
C397 C 0.96705 0.79506 0.21214 0.0
C398 C 0.02275 0.73581 0.21414 0.0
C399 C 1.01873 0.75875 0.235 0.0
N400 N 0.98954 0.75732 0.19962 0.0
N401 N 0.98398 0.7966 0.23393 0.0
H402 H 0.94191 0.82337 0.20503 0.0
H403 H 0.05189 0.70851 0.20947 0.0
C404 C 1.00301 0.64243 0.18058 0.0
O405 O 0.9644 0.65438 0.19385 0.0
N406 N 1.00708 0.74813 0.13344 0.0
C407 C 0.98805 0.78148 0.11832 0.0
C408 C 0.99593 0.76303 0.09678 0.0
C409 C 0.02683 0.70977 0.12055 0.0
N410 N 0.01991 0.71765 0.09804 0.0
C411 C 0.89068 0.75509 0.16494 0.0
C412 C 0.89236 0.69073 0.12769 0.0
C413 C 0.86169 0.73403 0.12747 0.0
C414 C 0.85679 0.76327 0.1473 0.0
C415 C 0.92552 0.68419 0.1458 0.0
N416 N 0.92987 0.72165 0.16198 0.0
H417 H 0.89158 0.78261 0.17851 0.0
H418 H 0.95445 0.65541 0.14359 0.0
H419 H 0.96687 0.81563 0.12248 0.0
H420 H 0.04343 0.67554 0.12747 0.0
O421 O 0.97542 0.82183 0.16369 0.0
O422 O 0.05524 0.79982 0.16869 0.0
O423 O 0.02612 0.67854 0.16968 0.0
C424 C 0.02184 0.83659 0.1659 0.0
H425 H 0.04327 0.7509 0.24922 0.0
H426 H 0.9817 0.78024 0.08144 0.0
H427 H 0.89514 0.66593 0.11303 0.0
H428 H 0.83062 0.79525 0.14821 0.0
Co429 Co 0.81324 1.01559 0.66805 0.0
C430 C 0.76377 0.02979 0.71362 0.0
C431 C 0.84402 0.04371 0.71528 0.0
C432 C 0.82347 0.04776 0.73685 0.0
N433 N 0.80652 0.0324 0.70053 0.0
N434 N 0.7728 0.03885 0.73583 0.0
H435 H 0.72699 1.01847 0.70733 0.0
H436 H 0.88397 0.04716 0.71095 0.0
C437 C 0.92301 0.05078 0.65483 0.0
O438 O 0.91845 0.03623 0.63376 0.0
N439 N 0.81632 0.99826 0.63551 0.0
C440 C 0.80225 0.95237 0.62727 0.0
C441 C 0.80619 0.95231 0.6041 0.0
C442 C 0.82533 0.02673 0.61667 0.0
N443 N 0.82144 0.99877 0.59729 0.0
C444 C 0.82728 0.92234 0.6915 0.0
C445 C 0.88879 0.88066 0.65816 0.0
C446 C 0.85503 0.84985 0.67011 0.0
C447 C 0.83173 0.86976 0.68961 0.0
C448 C 0.88528 0.93303 0.66132 0.0
N449 N 0.84909 0.95297 0.67559 0.0
H450 H 0.79958 0.93707 0.70335 0.0
H451 H 0.90352 0.95574 0.6488 0.0
H452 H 0.79011 0.92061 0.63753 0.0
H453 H 0.83523 0.06674 0.61711 0.0
O454 O 0.74473 0.98771 0.66828 0.0
O455 O 0.76128 0.06815 0.66104 0.0
O456 O 0.88371 0.05239 0.66816 0.0
C457 C 0.72695 0.03221 0.66337 0.0
H458 H 0.84463 0.056 0.7521 0.0
H459 H 0.79961 0.91989 0.59312 0.0
H460 H 0.90918 0.86628 0.64346 0.0
H461 H 0.80736 0.8461 0.70004 0.0
Co462 Co 0.52157 0.80094 0.16363 0.0
C463 C 0.56595 0.76013 0.20707 0.0
C464 C 0.51677 0.82411 0.21218 0.0
C465 C 0.52692 0.80302 0.23284 0.0
N466 N 0.54223 0.79861 0.1957 0.0
N467 N 0.55733 0.7622 0.22982 0.0
H468 H 0.58541 0.72878 0.19878 0.0
H469 H 0.48774 0.85262 0.20942 0.0
C470 C 0.52484 0.91069 0.17648 0.0
O471 O 0.56915 0.89805 0.18517 0.0
N472 N 0.49819 0.80098 0.132 0.0
C473 C 0.51013 0.76494 0.11646 0.0
C474 C 0.49866 0.78249 0.09525 0.0
C475 C 0.47854 0.83992 0.11967 0.0
N476 N 0.47951 0.83005 0.09706 0.0
C477 C 0.62507 0.79324 0.15268 0.0
C478 C 0.61302 0.85807 0.11617 0.0
C479 C 0.64395 0.81525 0.1139 0.0
C480 C 0.65382 0.7855 0.13312 0.0
C481 C 0.58532 0.8645 0.13618 0.0
N482 N 0.58621 0.82762 0.15262 0.0
H483 H 0.6282 0.76588 0.16618 0.0
H484 H 0.55674 0.894 0.13616 0.0
H485 H 0.53009 0.72976 0.11982 0.0
H486 H 0.46776 0.87629 0.12691 0.0
O487 O 0.53957 0.73011 0.16053 0.0
O488 O 0.46397 0.7554 0.1721 0.0
O489 O 0.49615 0.87513 0.16814 0.0
C490 C 0.4948 0.71731 0.1673 0.0
H491 H 0.50853 0.81372 0.24861 0.0
H492 H 0.50839 0.76325 0.07958 0.0
H493 H 0.60709 0.88372 0.10211 0.0
H494 H 0.68088 0.75424 0.13251 0.0
Co495 Co 0.74624 0.4745 0.66351 0.0
C496 C 0.78406 0.49799 0.71053 0.0
C497 C 0.72833 0.43886 0.71028 0.0
C498 C 0.74804 0.44274 0.73177 0.0
N499 N 0.74935 0.47475 0.69688 0.0
N500 N 0.78339 0.47999 0.73206 0.0
H501 H 0.81185 0.52501 0.70449 0.0
H502 H 0.70283 0.40925 0.70454 0.0
C503 C 0.63733 0.4635 0.6764 0.0
O504 O 0.64844 0.49878 0.69142 0.0
N505 N 0.74612 0.47195 0.63024 0.0
C506 C 0.77861 0.49813 0.61687 0.0
C507 C 0.76371 0.49352 0.59472 0.0
C508 C 0.71169 0.45144 0.61566 0.0
N509 N 0.72128 0.4647 0.59383 0.0
C510 C 0.73404 0.5811 0.67283 0.0
C511 C 0.6642 0.59744 0.63843 0.0
C512 C 0.68938 0.63837 0.64819 0.0
C513 C 0.72112 0.63039 0.66687 0.0
C514 C 0.67576 0.54865 0.64597 0.0
N515 N 0.71337 0.54078 0.6617 0.0
H516 H 0.76413 0.57601 0.68478 0.0
H517 H 0.65736 0.51719 0.63763 0.0
H518 H 0.80946 0.52187 0.62279 0.0
H519 H 0.67859 0.43 0.62101 0.0
O520 O 0.81631 0.49755 0.66269 0.0
O521 O 0.79458 0.41669 0.6641 0.0
O522 O 0.67397 0.44317 0.66462 0.0
C523 C 0.83117 0.45066 0.66348 0.0
H524 H 0.73932 0.41743 0.74564 0.0
H525 H 0.78075 0.51323 0.58054 0.0
H526 H 0.63932 0.60263 0.62404 0.0
H527 H 0.74128 0.66186 0.67469 0.0
H528 H 0.97809 0.14024 0.98505 0.0
H529 H 1.00697 1.0038 1.02351 0.0
H530 H 0.99395 0.05056 0.05858 0.0
H531 H 0.98222 0.13201 0.07879 0.0
H532 H 0.94447 0.26653 0.04053 0.0
H533 H 0.95253 0.21865 1.00542 0.0
C534 C 0.9806 0.1203 1.001 0.0
C535 C 0.99531 0.06853 1.00128 0.0
C536 C 0.97195 0.14734 1.02145 0.0
C537 C 0.99771 0.04388 1.02244 0.0
C538 C 0.98988 0.0706 0.0427 0.0
C539 C 0.97462 0.15086 0.0629 0.0
C540 C 0.96421 0.20363 0.06265 0.0
C541 C 0.97831 0.12271 0.04249 0.0
C542 C 0.9543 0.22658 0.04155 0.0
C543 C 0.95861 0.19906 1.02128 0.0
H544 H 0.38964 0.08358 0.50024 0.0
H545 H 0.46646 0.93865 0.50247 0.0
H546 H 0.42841 0.92119 0.53959 0.0
H547 H 0.3781 0.9496 0.57239 0.0
H548 H 0.30489 0.09668 0.57174 0.0
H549 H 0.33717 0.11159 0.53329 0.0
C550 C 0.39696 0.0478 0.50874 0.0
C551 C 0.42998 1.01184 0.49854 0.0
C552 C 0.37633 0.03898 0.53049 0.0
C553 C 0.44062 0.96632 0.50993 0.0
C554 C 0.41913 0.95659 0.53118 0.0
C555 C 0.36843 0.98458 0.56373 0.0
C556 C 0.33883 0.02193 0.57495 0.0
C557 C 0.38759 0.99295 0.54177 0.0
C558 C 0.32785 0.06755 0.56358 0.0
C559 C 0.34611 0.07591 0.54154 0.0
H560 H 0.51087 0.41826 0.08563 0.0
H561 H 0.52387 0.27111 0.05334 0.0
H562 H 0.52446 0.31088 1.01629 0.0
H563 H 0.51375 0.38729 0.99232 0.0
H564 H 0.50687 0.53494 1.02448 0.0
H565 H 0.51208 0.49558 0.06159 0.0
C566 C 0.51483 0.39493 0.07055 0.0
C567 C 0.51598 0.34138 0.0726 0.0
C568 C 0.51578 0.41826 0.0489 0.0
C569 C 0.52128 0.3122 0.05257 0.0
C570 C 0.52193 0.33499 1.03119 0.0
C571 C 0.51446 0.41098 1.00737 0.0
C572 C 0.50867 0.46422 1.00529 0.0
C573 C 0.51795 0.38798 1.02902 0.0
C574 C 0.50979 0.49386 1.0253 0.0
C575 C 0.51298 0.47134 0.04671 0.0
H576 H 0.05602 0.4553 0.51408 0.0
H577 H 0.18575 0.50044 0.47362 0.0
H578 H 0.23606 0.5119 0.50781 0.0
H579 H 0.24552 0.50404 0.54904 0.0
H580 H 0.1177 0.45407 0.58944 0.0
H581 H 0.06471 0.4502 0.55558 0.0
C582 C 0.09527 0.46759 0.51259 0.0
C583 C 0.11666 0.47666 0.49091 0.0
C584 C 0.12465 0.47327 0.53246 0.0
C585 C 0.16758 0.49355 0.48978 0.0
C586 C 0.19672 0.49979 0.50944 0.0
C587 C 0.20609 0.49223 0.55056 0.0
C588 C 0.18613 0.47905 0.57204 0.0
C589 C 0.17596 0.48898 0.53085 0.0
C590 C 0.13441 0.46495 0.57341 0.0
C591 C 0.10405 0.46227 0.55392 0.0
H592 H 0.03367 0.74082 0.05378 0.0
H593 H 0.02301 0.61405 0.09976 0.0
H594 H 0.02608 0.55466 0.06786 0.0
H595 H 0.02485 0.53868 1.0267 0.0
H596 H 0.03156 0.66572 0.98071 0.0
H597 H 0.03752 0.72458 1.01267 0.0
C598 C 0.03211 0.70021 0.05688 0.0
C599 C 0.02769 0.68229 0.07933 0.0
C600 C 0.03307 0.6661 0.03835 0.0
C601 C 0.0268 0.6293 0.08286 0.0
C602 C 0.02815 0.59518 0.06453 0.0
C603 C 0.0278 0.57922 1.0236 0.0
C604 C 0.02733 0.59739 1.00111 0.0
C605 C 0.03024 0.61315 0.04217 0.0
C606 C 0.03223 0.65019 0.99763 0.0
C607 C 0.03518 0.68407 1.01599 0.0
H608 H 0.86591 1.01191 0.49224 0.0
H609 H 0.99179 0.10208 0.51632 0.0
H610 H 0.96194 0.09262 0.55525 0.0
H611 H 0.90043 0.05756 0.58306 0.0
H612 H 0.77463 0.96723 0.55912 0.0
H613 H 0.80339 0.97815 0.52005 0.0
C614 C 0.88704 0.029 0.50603 0.0
C615 C 0.93123 0.05764 0.50119 0.0
C616 C 0.86923 0.02382 0.52861 0.0
C617 C 0.95756 0.08013 0.5194 0.0
C618 C 0.94045 0.07476 0.54176 0.0
C619 C 0.87885 0.04109 0.56926 0.0
C620 C 0.83523 1.01172 0.57416 0.0
C621 C 0.89616 0.04692 0.54665 0.0
C622 C 0.80837 0.98988 0.55595 0.0
C623 C 0.82493 0.99597 0.53353 0.0
H624 H 0.49268 1.00565 1.02531 0.0
H625 H 0.47417 0.87791 0.97983 0.0
H626 H 0.45983 0.82181 1.01198 0.0
H627 H 0.46083 0.80712 0.05308 0.0
H628 H 0.48635 0.9337 0.09849 0.0
H629 H 0.48914 0.99172 0.06642 0.0
C630 C 0.48546 0.96557 1.02233 0.0
C631 C 0.48523 0.94637 0.99993 0.0
C632 C 0.47869 0.933 0.04101 0.0
C633 C 0.4744 0.89433 0.99664 0.0
C634 C 0.46661 0.86193 1.01513 0.0
C635 C 0.46692 0.84739 0.05606 0.0
C636 C 0.47385 0.8655 0.0784 0.0
C637 C 0.47 0.88057 0.0374 0.0
C638 C 0.48047 0.91823 0.08172 0.0
C639 C 0.48256 0.95156 0.06327 0.0
H640 H 0.55386 0.47548 0.51805 0.0
H641 H 0.68839 0.47956 0.47574 0.0
H642 H 0.742 0.46542 0.50875 0.0
H643 H 0.75158 0.45982 0.55012 0.0
H644 H 0.61772 0.45852 0.59276 0.0
H645 H 0.56324 0.46303 0.55931 0.0
C646 C 0.59489 0.47301 0.516 0.0
C647 C 0.61678 0.47905 0.49425 0.0
C648 C 0.62579 0.46554 0.53523 0.0
C649 C 0.6701 0.47473 0.49204 0.0
C650 C 0.70097 0.46704 0.51103 0.0
C651 C 0.71046 0.46014 0.55211 0.0
C652 C 0.68898 0.45925 0.57407 0.0
C653 C 0.67935 0.46357 0.53276 0.0
C654 C 0.6355 0.45877 0.5762 0.0
C655 C 0.60428 0.46185 0.55702 0.0
H656 H 0.09591 0.06714 0.16906 0.0
H657 H 0.93945 0.09367 0.14974 0.0
H658 H 0.92436 1.00122 0.14992 0.0
H659 H 0.95561 0.91324 0.15572 0.0
H660 H 0.11246 0.88722 0.17446 0.0
H661 H 0.12741 0.97961 0.17422 0.0
C662 C 0.05822 0.05314 0.1649 0.0
C663 C 1.01864 0.08814 0.15951 0.0
C664 C 0.05007 0.99994 0.16489 0.0
C665 C 0.97051 0.06829 0.15405 0.0
C666 C 0.96199 1.01527 0.15414 0.0
C667 C 0.99328 0.92752 0.15976 0.0
C668 C 0.033 0.89272 0.16517 0.0
C669 C 1.00148 0.98077 0.15955 0.0
C670 C 0.08131 0.91256 0.17021 0.0
C671 C 0.08973 0.96552 0.17011 0.0
H672 H 0.4951 0.07008 0.63776 0.0
H673 H 0.47066 0.95779 0.68965 0.0
H674 H 0.56331 0.95485 0.69656 0.0
H675 H 0.6518 0.98113 0.68613 0.0
H676 H 0.67398 0.09931 0.63662 0.0
H677 H 0.58142 0.10358 0.63067 0.0
C678 C 0.50975 0.04523 0.65081 0.0
C679 C 0.4755 1.01369 0.66303 0.0
C680 C 0.56276 0.0449 0.65504 0.0
C681 C 0.49566 0.98231 0.67997 0.0
C682 C 0.54878 0.9806 0.68384 0.0
C683 C 0.63639 1.00832 0.6742 0.0
C684 C 0.67026 0.03975 0.66167 0.0
C685 C 0.58279 1.01125 0.67124 0.0
C686 C 0.64926 0.07491 0.6465 0.0
C687 C 0.59623 0.07708 0.64303 0.0
H688 H 0.54977 0.63836 0.1502 0.0
H689 H 0.41592 0.67053 0.19064 0.0
H690 H 0.40496 0.57878 0.1973 0.0
H691 H 0.4347 0.49035 0.1924 0.0
H692 H 0.56774 0.45803 0.15134 0.0
H693 H 0.57812 0.54964 0.14439 0.0
C694 C 0.51788 0.62552 0.16042 0.0
C695 C 0.48355 0.66174 0.16993 0.0
C696 C 0.51215 0.57282 0.16424 0.0
C697 C 0.44256 0.6439 0.18299 0.0
C698 C 0.43661 0.59138 0.1869 0.0
C699 C 0.4663 0.50297 0.18196 0.0
C700 C 0.50086 0.46672 0.17259 0.0
C701 C 0.47145 0.55561 0.17778 0.0
C702 C 0.54091 0.48457 0.15894 0.0
C703 C 0.54666 0.53704 0.15491 0.0
H704 H 0.05806 0.37323 0.6785 0.0
H705 H 0.09251 0.52755 0.65879 0.0
H706 H 1.0009 0.54434 0.65388 0.0
H707 H 0.91092 0.51528 0.65578 0.0
H708 H 0.87785 0.35992 0.67426 0.0
H709 H 0.96931 0.34337 0.67888 0.0
C710 C 0.04588 0.41082 0.67321 0.0
C711 C 0.08273 0.44938 0.66934 0.0
C712 C 0.99327 0.41982 0.67009 0.0
C713 C 0.06549 0.4973 0.66209 0.0
C714 C 1.01297 0.50681 0.65925 0.0
C715 C 0.92362 0.47762 0.66072 0.0
C716 C 0.88708 0.43881 0.6647 0.0
C717 C 0.9765 0.46838 0.66327 0.0
C718 C 0.90467 0.39037 0.67098 0.0
C719 C 0.95709 0.38102 0.67372 0.0
H720 H 0.94538 0.3676 0.91949 0.0
H721 H 0.09818 0.41018 0.89971 0.0
H722 H 0.12127 0.32053 0.89562 0.0
H723 H 0.09872 0.23073 0.89683 0.0
H724 H 0.94756 0.18441 0.9172 0.0
H725 H 0.92337 0.2747 0.92201 0.0
C726 C 0.98375 0.35727 0.91428 0.0
C727 C 0.01992 0.39623 0.90978 0.0
C728 C 0.99704 0.30491 0.91202 0.0
C729 C 0.06947 0.38164 0.90323 0.0
C730 C 0.08273 0.33015 0.90087 0.0
C731 C 0.06015 0.23985 0.90222 0.0
C732 C 0.02475 0.2001 0.90627 0.0
C733 C 0.04684 0.29156 0.90505 0.0
C734 C 0.97556 0.21368 0.91377 0.0
C735 C 0.96178 0.26549 0.91649 0.0
H736 H 0.1392 1.00667 0.41337 0.0
H737 H 0.09105 0.15988 0.39787 0.0
H738 H 0.17993 0.18747 0.39683 0.0
H739 H 0.27143 0.16914 0.40044 0.0
H740 H 0.32183 1.01698 0.41639 0.0
H741 H 0.23263 0.98819 0.41694 0.0
C742 C 0.14808 0.04611 0.40972 0.0
C743 C 0.10766 0.08102 0.40566 0.0
C744 C 0.20003 0.06199 0.40914 0.0
C745 C 0.12063 0.13194 0.40101 0.0
C746 C 0.17176 0.14784 0.40042 0.0
C747 C 0.26335 0.12947 0.40397 0.0
C748 C 0.30423 0.09534 0.40826 0.0
C749 C 0.21181 0.11331 0.40444 0.0
C750 C 0.29187 0.04425 0.41287 0.0
C751 C 0.24057 0.0278 0.41326 0.0
H752 H 0.43578 0.2986 0.89099 0.0
H753 H 0.57606 0.34742 0.92214 0.0
H754 H 0.60123 0.25752 0.92691 0.0
H755 H 0.58294 0.16425 0.92175 0.0
H756 H 0.44024 0.11921 0.89154 0.0
H757 H 0.41671 0.20848 0.8869 0.0
C758 C 0.47221 0.29016 0.89876 0.0
C759 C 0.50425 0.33052 0.90592 0.0
C760 C 0.48596 0.23866 0.90161 0.0
C761 C 0.55066 0.31769 0.91631 0.0
C762 C 0.56501 0.26611 0.91902 0.0
C763 C 0.54672 0.17399 0.9141 0.0
C764 C 0.51352 0.13446 0.90687 0.0
C765 C 0.53299 0.22612 0.91165 0.0
C766 C 0.46662 0.14823 0.89723 0.0
C767 C 0.45312 0.19949 0.89455 0.0
H768 H 0.40126 0.57506 0.39917 0.0
H769 H 0.44583 0.41715 0.40421 0.0
H770 H 0.35615 0.39209 0.40588 0.0
H771 H 0.26532 0.41474 0.40785 0.0
H772 H 0.21843 0.57146 0.40117 0.0
H773 H 0.3085 0.5972 0.39793 0.0
C774 C 0.39136 0.53509 0.40045 0.0
C775 C 0.43075 0.49806 0.40168 0.0
C776 C 0.33918 0.52076 0.40115 0.0
C777 C 0.41682 0.4465 0.40318 0.0
C778 C 0.36535 0.43212 0.40422 0.0
C779 C 0.27457 0.45465 0.40556 0.0
C780 C 0.2348 0.49124 0.405 0.0
C781 C 0.32627 0.4689 0.40351 0.0
C782 C 0.24791 0.54252 0.40164 0.0
C783 C 0.29955 0.55718 0.39991 0.0
H784 H 0.95137 0.72954 0.88593 0.0
H785 H 0.0899 0.68404 0.91948 0.0
H786 H 0.11309 0.77432 0.92428 0.0
H787 H 0.09333 0.86691 0.91895 0.0
H788 H 0.95204 0.90959 0.8869 0.0
H789 H 0.93078 0.81976 0.88158 0.0
C790 C 0.98701 0.73888 0.89419 0.0
C791 C 0.01918 0.69924 0.90204 0.0
C792 C 0.99951 0.79075 0.89722 0.0
C793 C 0.06452 0.71315 0.91307 0.0
C794 C 0.07771 0.76497 0.91583 0.0
C795 C 0.05793 0.85657 0.91072 0.0
C796 C 0.02446 0.89555 0.90319 0.0
C797 C 0.04548 0.80423 0.90796 0.0
C798 C 0.97858 0.88098 0.89284 0.0
C799 C 0.96641 0.82941 0.88977 0.0
H800 H 0.77744 1.0036 0.40536 0.0
H801 H 0.81537 0.163 0.40874 0.0
H802 H 0.72458 0.18521 0.40522 0.0
H803 H 0.63358 0.15862 0.40562 0.0
H804 H 0.59611 0.99919 0.40063 0.0
H805 H 0.68728 0.97754 0.40004 0.0
C806 C 0.76595 0.04328 0.40465 0.0
C807 C 0.8034 0.08169 0.40712 0.0
C808 C 0.71358 0.0556 0.40259 0.0
C809 C 0.78771 0.13282 0.40649 0.0
C810 C 0.73563 0.14541 0.40472 0.0
C811 C 0.64537 0.11916 0.4039 0.0
C812 C 0.60773 0.08051 0.40321 0.0
C813 C 0.69808 0.1071 0.40339 0.0
C814 C 0.62388 0.02968 0.40096 0.0
C815 C 0.67616 1.01731 0.40081 0.0
H816 H 0.43205 0.66525 0.91735 0.0
H817 H 0.58177 0.61772 0.89489 0.0
H818 H 0.60713 0.70662 0.89081 0.0
H819 H 0.58771 0.79744 0.89331 0.0
H820 H 0.44005 0.84822 0.9169 0.0
H821 H 0.41316 0.75879 0.92087 0.0
C822 C 0.47019 0.67433 0.91148 0.0
C823 C 0.50483 0.63417 0.90629 0.0
C824 C 0.48491 0.72627 0.90935 0.0
C825 C 0.55419 0.64719 0.89897 0.0
C826 C 0.56876 0.69827 0.89661 0.0
C827 C 0.54933 0.78945 0.89921 0.0
C828 C 0.51576 0.83031 0.90448 0.0
C829 C 0.5345 0.73807 0.90167 0.0
C830 C 0.4667 0.81813 0.91253 0.0
C831 C 0.45136 0.76678 0.91479 0.0
H832 H 0.7642 0.58409 0.39535 0.0
H833 H 0.71826 0.42781 0.40436 0.0
H834 H 0.80849 0.40238 0.40728 0.0
H835 H 0.90095 0.42467 0.40559 0.0
H836 H 0.94463 0.58209 0.39781 0.0
H837 H 0.85476 0.6069 0.39612 0.0
C838 C 0.77366 0.54428 0.39791 0.0
C839 C 0.73413 0.50772 0.39923 0.0
C840 C 0.82542 0.53022 0.39975 0.0
C841 C 0.74758 0.45669 0.40315 0.0
C842 C 0.79928 0.44221 0.40474 0.0
C843 C 0.89084 0.46447 0.40359 0.0
C844 C 0.92996 0.50146 0.40163 0.0
C845 C 0.83863 0.4786 0.40279 0.0
C846 C 0.91578 0.55281 0.39931 0.0
C847 C 0.86424 0.567 0.39829 0.0
H848 H 0.94712 0.5609 0.19574 0.0
H849 H 0.07356 0.59784 0.15172 0.0
H850 H 0.07957 0.50824 0.14016 0.0
H851 H 0.04883 0.41993 0.1422 0.0
H852 H 0.92207 0.38196 0.18574 0.0
H853 H 0.91576 0.47186 0.19754 0.0
C854 C 0.97644 0.54958 0.18373 0.0
C855 C 1.0103 0.58683 0.1748 0.0
C856 C 0.9791 0.49782 0.17686 0.0
C857 C 0.04736 0.57066 0.15909 0.0
C858 C 0.05057 0.51926 0.15237 0.0
C859 C 0.01943 0.43103 0.15422 0.0
C860 C 0.98565 0.39361 0.16295 0.0
C861 C 1.0165 0.48262 0.16104 0.0
C862 C 0.94812 0.40946 0.1785 0.0
C863 C 0.94488 0.46095 0.18537 0.0
H864 H 0.99382 0.97532 0.65336 0.0
H865 H 0.97293 0.13062 0.67551 0.0
H866 H 0.06472 0.13672 0.68359 0.0
H867 H 0.15201 0.10017 0.68081 0.0
H868 H 0.17213 0.94348 0.66044 0.0
H869 H 0.07942 0.9352 0.65556 0.0
C870 C 1.00911 1.01023 0.66043 0.0
C871 C 0.97628 0.05259 0.66384 0.0
C872 C 0.06187 1.01312 0.66521 0.0
C873 C 0.99696 0.09745 0.67291 0.0
C874 C 0.04959 0.10094 0.67738 0.0
C875 C 0.13607 0.06383 0.6757 0.0
C876 C 0.16932 0.02241 0.67091 0.0
C877 C 0.0826 0.05939 0.6731 0.0
C878 C 0.14776 0.97571 0.66442 0.0
C879 C 0.09468 0.97121 0.66145 0.0
H880 H 0.58863 0.99019 0.18568 0.0
H881 H 0.43794 0.95776 0.16022 0.0
H882 H 0.42339 0.04929 0.15472 0.0
H883 H 0.45317 0.13807 0.15735 0.0
H884 H 0.60444 0.17064 0.18194 0.0
H885 H 0.61934 0.07893 0.18729 0.0
C886 C 0.5523 1.00283 0.17902 0.0
C887 C 0.51406 0.96652 0.17363 0.0
C888 C 0.5446 0.05552 0.17559 0.0
C889 C 0.4678 0.98433 0.16473 0.0
C890 C 0.45962 0.03678 0.16152 0.0
C891 C 0.48965 0.12535 0.16385 0.0
C892 C 0.52774 0.16169 0.1693 0.0
C893 C 0.49772 0.07265 0.16689 0.0
C894 C 0.57463 0.14394 0.17751 0.0
C895 C 0.58294 0.09143 0.18067 0.0
H896 H 0.41173 0.41175 0.64443 0.0
H897 H 0.37754 0.54252 0.68637 0.0
H898 H 0.46883 0.55217 0.69461 0.0
H899 H 0.55726 0.52134 0.69112 0.0
H900 H 0.59201 0.39148 0.64861 0.0
H901 H 0.50099 0.38321 0.63953 0.0
C902 C 0.42415 0.44279 0.65524 0.0
C903 C 0.38748 0.47656 0.66477 0.0
C904 C 0.47663 0.4477 0.66 0.0
C905 C 0.40461 0.51647 0.67862 0.0
C906 C 0.45684 0.52159 0.68348 0.0
C907 C 0.54526 0.49086 0.67993 0.0
C908 C 0.58195 0.4564 0.67087 0.0
C909 C 0.49304 0.487 0.67452 0.0
C910 C 0.56504 0.41807 0.65607 0.0
C911 C 0.51292 0.41355 0.65081 0.0
H912 H 0.0648 0.46835 0.2854 0.0
H913 H 0.07889 0.34096 0.33092 0.0
H914 H 0.08485 0.28269 0.29898 0.0
H915 H 0.08377 0.26661 0.25829 0.0
H916 H 0.06591 0.39142 0.21188 0.0
H917 H 0.06601 0.45183 0.24373 0.0
C918 C 0.06932 0.42787 0.28831 0.0
C919 C 0.07044 0.40933 0.31077 0.0
C920 C 0.07287 0.394 0.26962 0.0
C921 C 0.07641 0.35658 0.31406 0.0
C922 C 0.08046 0.32307 0.29572 0.0
C923 C 0.08013 0.30707 0.25508 0.0
C924 C 0.07473 0.32417 0.23262 0.0
C925 C 0.07834 0.34122 0.27347 0.0
C926 C 0.07083 0.37696 0.22886 0.0
C927 C 0.07019 0.41152 0.24715 0.0
H928 H 0.2965 0.0429 0.7765 0.0
H929 H 0.18875 0.12665 0.73603 0.0
H930 H 0.12687 0.12453 0.76697 0.0
H931 H 0.10244 0.09825 0.80532 0.0
H932 H 0.20897 1.01292 0.84583 0.0
H933 H 0.27215 1.0175 0.81541 0.0
C934 C 0.25977 0.06126 0.77449 0.0
C935 C 0.24764 0.08484 0.7537 0.0
C936 C 0.22388 0.05971 0.79247 0.0
C937 C 0.19927 0.10771 0.75155 0.0
C938 C 0.16376 0.10667 0.76935 0.0
C939 C 0.13919 0.08013 0.80758 0.0
C940 C 0.15021 0.05495 0.82811 0.0
C941 C 0.17541 0.08241 0.78982 0.0
C942 C 0.19896 0.03292 0.83052 0.0
C943 C 0.23524 0.03529 0.81298 0.0
H944 H 0.49513 0.14919 0.32318 0.0
H945 H 0.3823 0.25834 0.34501 0.0
H946 H 0.373 0.28905 0.30626 0.0
H947 H 0.40647 0.29379 0.26718 0.0
H948 H 0.52086 0.1871 0.24502 0.0
H949 H 0.52003 0.14614 0.28233 0.0
C950 C 0.46733 0.17841 0.31922 0.0
C951 C 0.43919 0.20133 0.33695 0.0
C952 C 0.46307 0.19682 0.29676 0.0
C953 C 0.40411 0.24003 0.33164 0.0
C954 C 0.39906 0.25784 0.3095 0.0
C955 C 0.42969 0.26037 0.27038 0.0
C956 C 0.46294 0.24279 0.25331 0.0
C957 C 0.42961 0.23783 0.29204 0.0
C958 C 0.49417 0.20045 0.25778 0.0
C959 C 0.49404 0.17746 0.27921 0.0
H960 H 0.43437 0.50829 0.80148 0.0
H961 H 0.33878 0.41988 0.84588 0.0
H962 H 0.28484 0.39582 0.81384 0.0
H963 H 0.26611 0.39747 0.77256 0.0
H964 H 0.36144 0.48763 0.72867 0.0
H965 H 0.4136 0.51312 0.76084 0.0
C966 C 0.40175 0.48374 0.80419 0.0
C967 C 0.39107 0.46589 0.82625 0.0
C968 C 0.3706 0.4702 0.78561 0.0
C969 C 0.34795 0.4347 0.8293 0.0
C970 C 0.31717 0.42061 0.81087 0.0
C971 C 0.29822 0.42278 0.77004 0.0
C972 C 0.30939 0.44059 0.74799 0.0
C973 C 0.32828 0.43774 0.78886 0.0
C974 C 0.35112 0.47377 0.74528 0.0
C975 C 0.38136 0.48816 0.76375 0.0
H976 H 0.95045 0.55126 0.80192 0.0
H977 H 0.84949 0.47324 0.84815 0.0
H978 H 0.79176 0.45425 0.81714 0.0
H979 H 0.76987 0.45853 0.77677 0.0
H980 H 0.87338 0.53258 0.73033 0.0
H981 H 0.92949 0.55407 0.76154 0.0
C982 C 0.91624 0.5296 0.80538 0.0
C983 C 0.90514 0.51378 0.82773 0.0
C984 C 0.88316 0.51802 0.78729 0.0
C985 C 0.85955 0.48661 0.83146 0.0
C986 C 0.82634 0.47538 0.81358 0.0
C987 C 0.80484 0.47893 0.77327 0.0
C988 C 0.81672 0.49354 0.75083 0.0
C989 C 0.83781 0.49069 0.79139 0.0
C990 C 0.86219 0.52096 0.74714 0.0
C991 C 0.89479 0.53314 0.7651 0.0
H992 H 1.00433 0.78922 0.27901 0.0
H993 H 0.94232 0.89172 0.22917 0.0
H994 H 0.93219 0.95736 0.25819 0.0
H995 H 0.94341 0.98707 0.29736 0.0
H996 H 1.00999 0.88595 0.34667 0.0
H997 H 1.016 0.81908 0.31811 0.0
C998 C 0.98897 0.82592 0.27425 0.0
C999 C 0.9746 0.83487 0.25151 0.0
C1000 C 0.98417 0.86424 0.29103 0.0
C1001 C 0.95354 0.88281 0.24628 0.0
C1002 C 0.94804 0.9208 0.26295 0.0
C1003 C 0.95972 0.95079 0.30207 0.0
C1004 C 0.97643 0.94258 0.32458 0.0
C1005 C 0.96373 0.91219 0.28535 0.0
C1006 C 0.99645 0.8942 0.32984 0.0
C1007 C 1.0001 0.85564 0.31337 0.0
H1008 H 0.58631 0.02141 0.8034 0.0
H1009 H 0.70774 1.00544 0.8518 0.0
H1010 H 0.77097 1.01705 0.82164 0.0
H1011 H 0.79196 0.02751 0.78103 0.0
H1012 H 0.66926 0.04509 0.73312 0.0
H1013 H 0.60706 0.03603 0.76338 0.0
C1014 C 0.62657 0.02033 0.80742 0.0
C1015 C 0.64192 1.0122 0.82999 0.0
C1016 C 0.66284 0.0268 0.78993 0.0
C1017 C 0.69452 1.01201 0.83474 0.0
C1018 C 0.73081 1.01831 0.81741 0.0
C1019 C 0.75173 0.02993 0.77712 0.0
C1020 C 0.73604 0.0363 0.75441 0.0
C1021 C 0.71549 0.02523 0.79485 0.0
C1022 C 0.68324 0.03906 0.75007 0.0
C1023 C 0.64727 0.03423 0.76751 0.0
H1024 H 0.56765 0.77863 0.27471 0.0
H1025 H 0.56839 0.65944 0.22428 0.0
H1026 H 0.57453 0.59525 0.2541 0.0
H1027 H 0.57461 0.57278 0.29465 0.0
H1028 H 0.57389 0.69301 0.34487 0.0
H1029 H 0.57109 0.75639 0.31504 0.0
C1030 C 0.56926 0.73861 0.27018 0.0
C1031 C 0.56743 0.72423 0.24711 0.0
C1032 C 0.57185 0.70181 0.28747 0.0
C1033 C 0.57036 0.67202 0.24171 0.0
C1034 C 0.57331 0.63516 0.25885 0.0
C1035 C 0.57432 0.61272 0.29926 0.0
C1036 C 0.57406 0.62732 0.32241 0.0
C1037 C 0.57336 0.64955 0.28184 0.0
C1038 C 0.57317 0.6798 0.32753 0.0
C1039 C 0.57201 0.71642 0.31035 0.0
H1040 H 0.29916 0.35892 0.09289 0.0
H1041 H 0.36329 0.21252 0.10947 0.0
H1042 H 0.30178 0.17007 0.08518 0.0
H1043 H 0.21121 0.17577 0.07639 0.0
H1044 H 0.14165 0.32122 0.0659 0.0
H1045 H 0.22434 0.36302 0.06764 0.0
C1046 C 0.30114 0.31804 0.09023 0.0
C1047 C 0.33256 0.28824 0.104 0.0
C1048 C 0.26425 0.29383 0.07699 0.0
C1049 C 0.33676 0.23559 0.09992 0.0
C1050 C 0.30195 0.21136 0.08588 0.0
C1051 C 0.21494 0.21619 0.07294 0.0
C1052 C 0.17147 0.24697 0.07442 0.0
C1053 C 0.26191 0.23977 0.07678 0.0
C1054 C 0.17553 0.29766 0.06704 0.0
C1055 C 0.22279 0.32183 0.06869 0.0
H1056 H 0.33439 0.36295 0.59727 0.0
H1057 H 0.22687 0.24872 0.57725 0.0
H1058 H 0.29659 0.19282 0.56543 0.0
H1059 H 0.37365 0.16223 0.5836 0.0
H1060 H 0.45665 0.26473 0.62614 0.0
H1061 H 0.42047 0.33733 0.60633 0.0
C1062 C 0.32667 0.3268 0.58908 0.0
C1063 C 0.27638 0.3081 0.58976 0.0
C1064 C 0.36628 0.2911 0.5877 0.0
C1065 C 0.26559 0.26291 0.57802 0.0
C1066 C 0.30583 0.23048 0.57175 0.0
C1067 C 0.38563 0.20085 0.58745 0.0
C1068 C 0.4126 0.20892 0.60772 0.0
C1069 C 0.35504 0.24121 0.57994 0.0
C1070 C 0.43252 0.25767 0.61163 0.0
C1071 C 0.41053 0.29933 0.60061 0.0
H1072 H 0.21445 0.1972 0.90401 0.0
H1073 H 0.25192 0.16281 0.97314 0.0
H1074 H 0.28182 0.25021 0.97894 0.0
H1075 H 0.29397 0.33623 0.96462 0.0
H1076 H 0.26409 0.36904 0.89446 0.0
H1077 H 0.2288 0.28365 0.88932 0.0
C1078 C 0.2313 0.20853 0.92 0.0
C1079 C 0.23307 0.17374 0.93793 0.0
C1080 C 0.24626 0.25907 0.92338 0.0
C1081 C 0.2524 0.18884 0.95896 0.0
C1082 C 0.26799 0.23895 0.96241 0.0
C1083 C 0.27932 0.32479 0.94823 0.0
C1084 C 0.28255 0.35844 0.92985 0.0
C1085 C 0.26403 0.27449 0.94486 0.0
C1086 C 0.26184 0.34395 0.90892 0.0
C1087 C 0.24307 0.29468 0.9058 0.0
H1088 H 0.19872 0.32368 0.44397 0.0
H1089 H 0.25767 0.27912 0.37838 0.0
H1090 H 0.34326 0.27236 0.39411 0.0
H1091 H 0.39898 0.27348 0.42641 0.0
H1092 H 0.33706 0.29647 0.49335 0.0
H1093 H 0.25528 0.32271 0.47696 0.0
C1094 C 0.22992 0.31094 0.43322 0.0
C1095 C 0.2218 0.3014 0.41005 0.0
C1096 C 0.27867 0.3063 0.44243 0.0
C1097 C 0.263 0.28638 0.39627 0.0
C1098 C 0.31192 0.28331 0.40516 0.0
C1099 C 0.36822 0.28636 0.43742 0.0
C1100 C 0.37371 0.28311 0.46101 0.0
C1101 C 0.32005 0.29341 0.42815 0.0
C1102 C 0.33368 0.29939 0.47514 0.0
C1103 C 0.28661 0.31252 0.46577 0.0
H1104 H 0.8131 0.70258 0.96222 0.0
H1105 H 0.77287 0.65845 0.8942 0.0
H1106 H 0.72647 0.73864 0.88946 0.0
H1107 H 0.70417 0.82432 0.90363 0.0
H1108 H 0.74993 0.87016 0.97055 0.0
H1109 H 0.79153 0.78747 0.97621 0.0
C1110 C 0.79399 0.71043 0.94637 0.0
C1111 C 0.7971 0.67511 0.92845 0.0
C1112 C 0.77105 0.75784 0.94318 0.0
C1113 C 0.77077 0.6849 0.90829 0.0
C1114 C 0.74532 0.73119 0.90539 0.0
C1115 C 0.72487 0.8165 0.9191 0.0
C1116 C 0.72618 0.85328 0.93636 0.0
C1117 C 0.74703 0.76862 0.92239 0.0
C1118 C 0.75058 0.84264 0.95682 0.0
C1119 C 0.77319 0.79521 0.96019 0.0
H1120 H 0.75904 0.68363 0.42643 0.0
H1121 H 0.63345 0.78839 0.43668 0.0
H1122 H 0.69333 0.85973 0.43714 0.0
H1123 H 0.78057 0.89199 0.43225 0.0
H1124 H 0.90541 0.78667 0.42266 0.0
H1125 H 0.84629 0.71478 0.42562 0.0
C1126 C 0.74456 0.72182 0.42946 0.0
C1127 C 0.69169 0.73059 0.43158 0.0
C1128 C 0.77903 0.76221 0.43003 0.0
C1129 C 0.67381 0.78063 0.4347 0.0
C1130 C 0.70803 0.82132 0.43514 0.0
C1131 C 0.79472 0.85315 0.43115 0.0
C1132 C 0.84684 0.84413 0.42705 0.0
C1133 C 0.76056 0.81249 0.43247 0.0
C1134 C 0.86535 0.79409 0.42589 0.0
C1135 C 0.83157 0.75324 0.42736 0.0
H1136 H 0.79545 0.68283 0.10079 0.0
H1137 H 0.87491 0.82543 0.10732 0.0
H1138 H 0.80591 0.86981 0.08834 0.0
H1139 H 0.71277 0.86995 0.09016 0.0
H1140 H 0.63118 0.72868 0.08845 0.0
H1141 H 0.7103 0.68153 0.08307 0.0
C1142 C 0.79882 0.72297 0.09672 0.0
C1143 C 0.83758 0.75189 0.10661 0.0
C1144 C 0.75774 0.74853 0.08682 0.0
C1145 C 0.84345 0.80332 0.10068 0.0
C1146 C 0.80398 0.82871 0.08985 0.0
C1147 C 0.71226 0.82923 0.08686 0.0
C1148 C 0.66839 0.80162 0.09224 0.0
C1149 C 0.75848 0.80259 0.08582 0.0
C1150 C 0.66615 0.74994 0.08598 0.0
C1151 C 0.71163 0.7228 0.08342 0.0
H1152 H 0.75385 0.84467 0.66446 0.0
H1153 H 0.89472 0.77064 0.64495 0.0
H1154 H 0.84622 0.7057 0.62425 0.0
H1155 H 0.76537 0.66061 0.62052 0.0
H1156 H 0.62942 0.72358 0.65063 0.0
H1157 H 0.67252 0.80511 0.65622 0.0
C1158 C 0.77414 0.81392 0.65598 0.0
C1159 C 0.82762 0.8103 0.65735 0.0
C1160 C 0.74621 0.77619 0.64517 0.0
C1161 C 0.85344 0.77259 0.6449 0.0
C1162 C 0.82577 0.73608 0.63288 0.0
C1163 C 0.74472 0.69341 0.62716 0.0
C1164 C 0.69556 0.68634 0.63615 0.0
C1165 C 0.77221 0.73621 0.63393 0.0
C1166 C 0.66781 0.72837 0.64411 0.0
C1167 C 0.69303 0.77423 0.64797 0.0
loop_
_geom_bond_atom_site_label_1
_geom_bond_atom_site_label_2
_geom_bond_distance
_geom_bond_site_symmetry_2
_ccdc_geom_bond_type
Co0 N4 2.148 . S
Co0 N10 2.128 . S
Co0 N20 2.194 . S
Co0 O25 2.351 . S
Co0 O26 2.155 1_455 S
Co0 O27 2.096 1_455 S
C1 N4 1.301 . S
C1 N5 1.328 . S
C1 H6 0.930 . S
C2 C3 1.333 . S
C2 N4 1.317 1_655 S
C2 H7 0.930 . S
C3 C2 1.333 . S
C3 N5 1.350 1_655 S
C3 H29 0.931 . S
N4 Co0 2.148 . S
N4 C1 1.301 . S
N4 C2 1.317 1_455 S
N5 C1 1.328 . S
N5 C3 1.350 1_455 S
H6 C1 0.930 . S
H7 C2 0.930 . S
C8 O9 1.224 1_655 S
C8 O27 1.247 . S
O9 C8 1.224 1_455 S
N10 Co0 2.128 . S
N10 C11 1.355 . S
N10 C13 1.311 1_455 S
C11 N10 1.355 . S
C11 C12 1.363 . S
C11 H23 0.929 . S
C12 C11 1.363 . S
C12 N14 1.375 . S
C12 H30 0.931 . S
C13 N10 1.311 1_655 S
C13 N14 1.347 1_655 S
C13 H24 0.929 . S
N14 C12 1.375 . S
N14 C13 1.347 1_455 S
C15 C18 1.365 . S
C15 N20 1.328 . S
C15 H21 0.929 . S
C16 C17 1.362 . S
C16 C19 1.378 . S
C16 H31 0.929 . S
C17 C16 1.362 . S
C17 C18 1.366 . S
C18 C15 1.365 . S
C18 C17 1.366 . S
C18 H32 0.930 . S
C19 C16 1.378 . S
C19 N20 1.315 . S
C19 H22 0.930 . S
N20 Co0 2.194 . S
N20 C15 1.328 . S
N20 C19 1.315 . S
H21 C15 0.929 . S
H22 C19 0.930 . S
H23 C11 0.929 . S
H24 C13 0.929 . S
O25 Co0 2.351 . S
O25 C28 1.244 1_455 S
O26 Co0 2.155 1_655 S
O26 C28 1.240 . S
O27 Co0 2.096 1_655 S
O27 C8 1.247 . S
C28 O25 1.244 1_655 S
C28 O26 1.240 . S
H29 C3 0.931 . S
H30 C12 0.931 . S
H31 C16 0.929 . S
H32 C18 0.930 . S
Co33 N37 2.148 . S
Co33 N43 2.128 . S
Co33 N53 2.194 . S
Co33 O58 2.351 . S
Co33 O59 2.155 1_545 S
Co33 O60 2.096 1_545 S
C34 N37 1.301 . S
C34 N38 1.328 . S
C34 H39 0.930 . S
C35 C36 1.333 . S
C35 N37 1.317 1_565 S
C35 H40 0.930 . S
C36 C35 1.333 . S
C36 N38 1.350 1_565 S
C36 H62 0.931 . S
N37 Co33 2.148 . S
N37 C34 1.301 . S
N37 C35 1.317 1_545 S
N38 C34 1.328 . S
N38 C36 1.350 1_545 S
H39 C34 0.930 . S
H40 C35 0.930 . S
C41 O42 1.224 1_565 S
C41 O60 1.247 . S
O42 C41 1.224 1_545 S
N43 Co33 2.128 . S
N43 C44 1.355 . S
N43 C46 1.311 1_545 S
C44 N43 1.355 . S
C44 C45 1.363 . S
C44 H56 0.929 . S
C45 C44 1.363 . S
C45 N47 1.375 . S
C45 H63 0.931 . S
C46 N43 1.311 1_565 S
C46 N47 1.347 1_565 S
C46 H57 0.929 . S
N47 C45 1.375 . S
N47 C46 1.347 1_545 S
C48 C51 1.365 . S
C48 N53 1.328 . S
C48 H54 0.929 . S
C49 C50 1.362 . S
C49 C52 1.378 . S
C49 H64 0.929 . S
C50 C49 1.362 . S
C50 C51 1.366 . S
C51 C48 1.365 . S
C51 C50 1.366 . S
C51 H65 0.930 . S
C52 C49 1.378 . S
C52 N53 1.315 . S
C52 H55 0.930 . S
N53 Co33 2.194 . S
N53 C48 1.328 . S
N53 C52 1.315 . S
H54 C48 0.929 . S
H55 C52 0.930 . S
H56 C44 0.929 . S
H57 C46 0.929 . S
O58 Co33 2.351 . S
O58 C61 1.244 1_545 S
O59 Co33 2.155 1_565 S
O59 C61 1.240 . S
O60 Co33 2.096 1_565 S
O60 C41 1.247 . S
C61 O58 1.244 1_565 S
C61 O59 1.240 . S
H62 C36 0.931 . S
H63 C45 0.931 . S
H64 C49 0.929 . S
H65 C51 0.930 . S
Co66 N70 2.148 . S
Co66 N76 2.128 . S
Co66 N86 2.194 . S
Co66 O91 2.351 . S
Co66 O92 2.155 . S
Co66 O93 2.096 . S
C67 N70 1.301 . S
C67 N71 1.328 . S
C67 H72 0.930 . S
C68 C69 1.333 . S
C68 N70 1.317 . S
C68 H73 0.930 . S
C69 C68 1.333 . S
C69 N71 1.350 . S
C69 H95 0.931 . S
N70 Co66 2.148 . S
N70 C67 1.301 . S
N70 C68 1.317 . S
N71 C67 1.328 . S
N71 C69 1.350 . S
H72 C67 0.930 . S
H73 C68 0.930 . S
C74 O75 1.224 . S
C74 O93 1.247 . S
O75 C74 1.224 . S
N76 Co66 2.128 . S
N76 C77 1.355 . S
N76 C79 1.311 . S
C77 N76 1.355 . S
C77 C78 1.363 . S
C77 H89 0.929 . S
C78 C77 1.363 . S
C78 N80 1.375 . S
C78 H96 0.931 . S
C79 N76 1.311 . S
C79 N80 1.347 . S
C79 H90 0.929 . S
N80 C78 1.375 . S
N80 C79 1.347 . S
C81 C84 1.365 . S
C81 N86 1.328 . S
C81 H87 0.929 . S
C82 C83 1.362 . S
C82 C85 1.378 . S
C82 H97 0.929 . S
C83 C82 1.362 . S
C83 C84 1.366 . S
C84 C81 1.365 . S
C84 C83 1.366 . S
C84 H98 0.930 . S
C85 C82 1.378 . S
C85 N86 1.315 . S
C85 H88 0.930 . S
N86 Co66 2.194 . S
N86 C81 1.328 . S
N86 C85 1.315 . S
H87 C81 0.929 . S
H88 C85 0.930 . S
H89 C77 0.929 . S
H90 C79 0.929 . S
O91 Co66 2.351 . S
O91 C94 1.244 . S
O92 Co66 2.155 . S
O92 C94 1.240 . S
O93 Co66 2.096 . S
O93 C74 1.247 . S
C94 O91 1.244 . S
C94 O92 1.240 . S
H95 C69 0.931 . S
H96 C78 0.931 . S
H97 C82 0.929 . S
H98 C84 0.930 . S
Co99 N103 2.148 . S
Co99 N109 2.128 . S
Co99 N119 2.194 . S
Co99 O124 2.351 . S
Co99 O125 2.155 . S
Co99 O126 2.096 . S
C100 N103 1.301 . S
C100 N104 1.328 . S
C100 H105 0.930 . S
C101 C102 1.333 . S
C101 N103 1.317 . S
C101 H106 0.930 . S
C102 C101 1.333 . S
C102 N104 1.350 . S
C102 H128 0.931 . S
N103 Co99 2.148 . S
N103 C100 1.301 . S
N103 C101 1.317 . S
N104 C100 1.328 . S
N104 C102 1.350 . S
H105 C100 0.930 . S
H106 C101 0.930 . S
C107 O108 1.224 . S
C107 O126 1.247 . S
O108 C107 1.224 . S
N109 Co99 2.128 . S
N109 C110 1.355 . S
N109 C112 1.311 . S
C110 N109 1.355 . S
C110 C111 1.363 . S
C110 H122 0.929 . S
C111 C110 1.363 . S
C111 N113 1.375 . S
C111 H129 0.931 . S
C112 N109 1.311 . S
C112 N113 1.347 . S
C112 H123 0.929 . S
N113 C111 1.375 . S
N113 C112 1.347 . S
C114 C117 1.365 . S
C114 N119 1.328 . S
C114 H120 0.929 . S
C115 C116 1.362 . S
C115 C118 1.378 . S
C115 H130 0.929 . S
C116 C115 1.362 . S
C116 C117 1.366 . S
C117 C114 1.365 . S
C117 C116 1.366 . S
C117 H131 0.930 . S
C118 C115 1.378 . S
C118 N119 1.315 . S
C118 H121 0.930 . S
N119 Co99 2.194 . S
N119 C114 1.328 . S
N119 C118 1.315 . S
H120 C114 0.929 . S
H121 C118 0.930 . S
H122 C110 0.929 . S
H123 C112 0.929 . S
O124 Co99 2.351 . S
O124 C127 1.244 . S
O125 Co99 2.155 . S
O125 C127 1.240 . S
O126 Co99 2.096 . S
O126 C107 1.247 . S
C127 O124 1.244 . S
C127 O125 1.240 . S
H128 C102 0.931 . S
H129 C111 0.931 . S
H130 C115 0.929 . S
H131 C117 0.930 . S
Co132 N136 2.148 . S
Co132 N142 2.128 . S
Co132 N152 2.194 . S
Co132 O157 2.351 . S
Co132 O158 2.155 1_455 S
Co132 O159 2.096 1_455 S
C133 N136 1.301 . S
C133 N137 1.328 . S
C133 H138 0.930 . S
C134 C135 1.333 . S
C134 N136 1.317 1_655 S
C134 H139 0.930 . S
C135 C134 1.333 . S
C135 N137 1.350 1_655 S
C135 H161 0.931 . S
N136 Co132 2.148 . S
N136 C133 1.301 . S
N136 C134 1.317 1_455 S
N137 C133 1.328 . S
N137 C135 1.350 1_455 S
H138 C133 0.930 . S
H139 C134 0.930 . S
C140 O141 1.224 1_655 S
C140 O159 1.247 . S
O141 C140 1.224 1_455 S
N142 Co132 2.128 . S
N142 C143 1.355 . S
N142 C145 1.311 1_455 S
C143 N142 1.355 . S
C143 C144 1.363 . S
C143 H155 0.929 . S
C144 C143 1.363 . S
C144 N146 1.375 . S
C144 H162 0.931 . S
C145 N142 1.311 1_655 S
C145 N146 1.347 1_655 S
C145 H156 0.929 . S
N146 C144 1.375 . S
N146 C145 1.347 1_455 S
C147 C150 1.365 . S
C147 N152 1.328 . S
C147 H153 0.929 . S
C148 C149 1.362 . S
C148 C151 1.378 . S
C148 H163 0.929 . S
C149 C148 1.362 . S
C149 C150 1.366 . S
C150 C147 1.365 . S
C150 C149 1.366 . S
C150 H164 0.930 . S
C151 C148 1.378 . S
C151 N152 1.315 . S
C151 H154 0.930 . S
N152 Co132 2.194 . S
N152 C147 1.328 . S
N152 C151 1.315 . S
H153 C147 0.929 . S
H154 C151 0.930 . S
H155 C143 0.929 . S
H156 C145 0.929 . S
O157 Co132 2.351 . S
O157 C160 1.244 1_455 S
O158 Co132 2.155 1_655 S
O158 C160 1.240 . S
O159 Co132 2.096 1_655 S
O159 C140 1.247 . S
C160 O157 1.244 1_655 S
C160 O158 1.240 . S
H161 C135 0.931 . S
H162 C144 0.931 . S
H163 C148 0.929 . S
H164 C150 0.930 . S
Co165 N169 2.148 . S
Co165 N175 2.128 . S
Co165 N185 2.194 . S
Co165 O190 2.351 . S
Co165 O191 2.155 1_545 S
Co165 O192 2.096 1_545 S
C166 N169 1.301 . S
C166 N170 1.328 . S
C166 H171 0.930 . S
C167 C168 1.333 . S
C167 N169 1.317 1_565 S
C167 H172 0.930 . S
C168 C167 1.333 . S
C168 N170 1.350 1_565 S
C168 H194 0.931 . S
N169 Co165 2.148 . S
N169 C166 1.301 . S
N169 C167 1.317 1_545 S
N170 C166 1.328 . S
N170 C168 1.350 1_545 S
H171 C166 0.930 . S
H172 C167 0.930 . S
C173 O174 1.224 1_565 S
C173 O192 1.247 . S
O174 C173 1.224 1_545 S
N175 Co165 2.128 . S
N175 C176 1.355 . S
N175 C178 1.311 1_545 S
C176 N175 1.355 . S
C176 C177 1.363 . S
C176 H188 0.929 . S
C177 C176 1.363 . S
C177 N179 1.375 . S
C177 H195 0.931 . S
C178 N175 1.311 1_565 S
C178 N179 1.347 1_565 S
C178 H189 0.929 . S
N179 C177 1.375 . S
N179 C178 1.347 1_545 S
C180 C183 1.365 . S
C180 N185 1.328 . S
C180 H186 0.929 . S
C181 C182 1.362 . S
C181 C184 1.378 . S
C181 H196 0.929 . S
C182 C181 1.362 . S
C182 C183 1.366 . S
C183 C180 1.365 . S
C183 C182 1.366 . S
C183 H197 0.930 . S
C184 C181 1.378 . S
C184 N185 1.315 . S
C184 H187 0.930 . S
N185 Co165 2.194 . S
N185 C180 1.328 . S
N185 C184 1.315 . S
H186 C180 0.929 . S
H187 C184 0.930 . S
H188 C176 0.929 . S
H189 C178 0.929 . S
O190 Co165 2.351 . S
O190 C193 1.244 1_545 S
O191 Co165 2.155 1_565 S
O191 C193 1.240 . S
O192 Co165 2.096 1_565 S
O192 C173 1.247 . S
C193 O190 1.244 1_565 S
C193 O191 1.240 . S
H194 C168 0.931 . S
H195 C177 0.931 . S
H196 C181 0.929 . S
H197 C183 0.930 . S
Co198 N202 2.148 . S
Co198 N208 2.128 . S
Co198 N218 2.194 . S
Co198 O223 2.351 . S
Co198 O224 2.155 . S
Co198 O225 2.096 . S
C199 N202 1.301 . S
C199 N203 1.328 . S
C199 H204 0.930 . S
C200 C201 1.333 . S
C200 N202 1.317 . S
C200 H205 0.930 . S
C201 C200 1.333 . S
C201 N203 1.350 . S
C201 H227 0.931 . S
N202 Co198 2.148 . S
N202 C199 1.301 . S
N202 C200 1.317 . S
N203 C199 1.328 . S
N203 C201 1.350 . S
H204 C199 0.930 . S
H205 C200 0.930 . S
C206 O207 1.224 . S
C206 O225 1.247 . S
O207 C206 1.224 . S
N208 Co198 2.128 . S
N208 C209 1.355 . S
N208 C211 1.311 . S
C209 N208 1.355 . S
C209 C210 1.363 . S
C209 H221 0.929 . S
C210 C209 1.363 . S
C210 N212 1.375 . S
C210 H228 0.931 . S
C211 N208 1.311 . S
C211 N212 1.347 . S
C211 H222 0.929 . S
N212 C210 1.375 . S
N212 C211 1.347 . S
C213 C216 1.365 . S
C213 N218 1.328 . S
C213 H219 0.929 . S
C214 C215 1.362 . S
C214 C217 1.378 . S
C214 H229 0.929 . S
C215 C214 1.362 . S
C215 C216 1.366 . S
C216 C213 1.365 . S
C216 C215 1.366 . S
C216 H230 0.930 . S
C217 C214 1.378 . S
C217 N218 1.315 . S
C217 H220 0.930 . S
N218 Co198 2.194 . S
N218 C213 1.328 . S
N218 C217 1.315 . S
H219 C213 0.929 . S
H220 C217 0.930 . S
H221 C209 0.929 . S
H222 C211 0.929 . S
O223 Co198 2.351 . S
O223 C226 1.244 . S
O224 Co198 2.155 . S
O224 C226 1.240 . S
O225 Co198 2.096 . S
O225 C206 1.247 . S
C226 O223 1.244 . S
C226 O224 1.240 . S
H227 C201 0.931 . S
H228 C210 0.931 . S
H229 C214 0.929 . S
H230 C216 0.930 . S
Co231 N235 2.148 . S
Co231 N241 2.128 . S
Co231 N251 2.194 . S
Co231 O256 2.351 . S
Co231 O257 2.155 . S
Co231 O258 2.096 . S
C232 N235 1.301 . S
C232 N236 1.328 . S
C232 H237 0.930 . S
C233 C234 1.333 . S
C233 N235 1.317 . S
C233 H238 0.930 . S
C234 C233 1.333 . S
C234 N236 1.350 . S
C234 H260 0.931 . S
N235 Co231 2.148 . S
N235 C232 1.301 . S
N235 C233 1.317 . S
N236 C232 1.328 . S
N236 C234 1.350 . S
H237 C232 0.930 . S
H238 C233 0.930 . S
C239 O240 1.224 . S
C239 O258 1.247 . S
O240 C239 1.224 . S
N241 Co231 2.128 . S
N241 C242 1.355 . S
N241 C244 1.311 . S
C242 N241 1.355 . S
C242 C243 1.363 . S
C242 H254 0.929 . S
C243 C242 1.363 . S
C243 N245 1.375 . S
C243 H261 0.931 . S
C244 N241 1.311 . S
C244 N245 1.347 . S
C244 H255 0.929 . S
N245 C243 1.375 . S
N245 C244 1.347 . S
C246 C249 1.365 . S
C246 N251 1.328 . S
C246 H252 0.929 . S
C247 C248 1.362 . S
C247 C250 1.378 . S
C247 H262 0.929 . S
C248 C247 1.362 . S
C248 C249 1.366 . S
C249 C246 1.365 . S
C249 C248 1.366 . S
C249 H263 0.930 . S
C250 C247 1.378 . S
C250 N251 1.315 . S
C250 H253 0.930 . S
N251 Co231 2.194 . S
N251 C246 1.328 . S
N251 C250 1.315 . S
H252 C246 0.929 . S
H253 C250 0.930 . S
H254 C242 0.929 . S
H255 C244 0.929 . S
O256 Co231 2.351 . S
O256 C259 1.244 . S
O257 Co231 2.155 . S
O257 C259 1.240 . S
O258 Co231 2.096 . S
O258 C239 1.247 . S
C259 O256 1.244 . S
C259 O257 1.240 . S
H260 C234 0.931 . S
H261 C243 0.931 . S
H262 C247 0.929 . S
H263 C249 0.930 . S
Co264 N268 2.148 . S
Co264 N274 2.128 . S
Co264 N284 2.194 . S
Co264 O289 2.351 . S
Co264 O290 2.155 1_655 S
Co264 O291 2.096 1_655 S
C265 N268 1.301 . S
C265 N269 1.328 . S
C265 H270 0.930 . S
C266 C267 1.333 . S
C266 N268 1.317 1_455 S
C266 H271 0.930 . S
C267 C266 1.333 . S
C267 N269 1.350 1_455 S
C267 H293 0.931 . S
N268 Co264 2.148 . S
N268 C265 1.301 . S
N268 C266 1.317 1_655 S
N269 C265 1.328 . S
N269 C267 1.350 1_655 S
H270 C265 0.930 . S
H271 C266 0.930 . S
C272 O273 1.224 1_455 S
C272 O291 1.247 . S
O273 C272 1.224 1_655 S
N274 Co264 2.128 . S
N274 C275 1.355 . S
N274 C277 1.311 1_655 S
C275 N274 1.355 . S
C275 C276 1.363 . S
C275 H287 0.929 . S
C276 C275 1.363 . S
C276 N278 1.375 . S
C276 H294 0.931 . S
C277 N274 1.311 1_455 S
C277 N278 1.347 1_455 S
C277 H288 0.929 . S
N278 C276 1.375 . S
N278 C277 1.347 1_655 S
C279 C282 1.365 . S
C279 N284 1.328 . S
C279 H285 0.929 . S
C280 C281 1.362 . S
C280 C283 1.378 . S
C280 H295 0.929 . S
C281 C280 1.362 . S
C281 C282 1.366 . S
C282 C279 1.365 . S
C282 C281 1.366 . S
C282 H296 0.930 . S
C283 C280 1.378 . S
C283 N284 1.315 . S
C283 H286 0.930 . S
N284 Co264 2.194 . S
N284 C279 1.328 . S
N284 C283 1.315 . S
H285 C279 0.929 . S
H286 C283 0.930 . S
H287 C275 0.929 . S
H288 C277 0.929 . S
O289 Co264 2.351 . S
O289 C292 1.244 1_655 S
O290 Co264 2.155 1_455 S
O290 C292 1.240 . S
O291 Co264 2.096 1_455 S
O291 C272 1.247 . S
C292 O289 1.244 1_455 S
C292 O290 1.240 . S
H293 C267 0.931 . S
H294 C276 0.931 . S
H295 C280 0.929 . S
H296 C282 0.930 . S
Co297 N301 2.148 . S
Co297 N307 2.128 . S
Co297 N317 2.194 . S
Co297 O322 2.351 . S
Co297 O323 2.155 1_565 S
Co297 O324 2.096 1_565 S
C298 N301 1.301 . S
C298 N302 1.328 . S
C298 H303 0.930 . S
C299 C300 1.333 . S
C299 N301 1.317 1_545 S
C299 H304 0.930 . S
C300 C299 1.333 . S
C300 N302 1.350 1_545 S
C300 H326 0.931 . S
N301 Co297 2.148 . S
N301 C298 1.301 . S
N301 C299 1.317 1_565 S
N302 C298 1.328 . S
N302 C300 1.350 1_565 S
H303 C298 0.930 . S
H304 C299 0.930 . S
C305 O306 1.224 1_545 S
C305 O324 1.247 . S
O306 C305 1.224 1_565 S
N307 Co297 2.128 . S
N307 C308 1.355 . S
N307 C310 1.311 1_565 S
C308 N307 1.355 . S
C308 C309 1.363 . S
C308 H320 0.929 . S
C309 C308 1.363 . S
C309 N311 1.375 . S
C309 H327 0.931 . S
C310 N307 1.311 1_545 S
C310 N311 1.347 1_545 S
C310 H321 0.929 . S
N311 C309 1.375 . S
N311 C310 1.347 1_565 S
C312 C315 1.365 . S
C312 N317 1.328 . S
C312 H318 0.929 . S
C313 C314 1.362 . S
C313 C316 1.378 . S
C313 H328 0.929 . S
C314 C313 1.362 . S
C314 C315 1.366 . S
C315 C312 1.365 . S
C315 C314 1.366 . S
C315 H329 0.930 . S
C316 C313 1.378 . S
C316 N317 1.315 . S
C316 H319 0.930 . S
N317 Co297 2.194 . S
N317 C312 1.328 . S
N317 C316 1.315 . S
H318 C312 0.929 . S
H319 C316 0.930 . S
H320 C308 0.929 . S
H321 C310 0.929 . S
O322 Co297 2.351 . S
O322 C325 1.244 1_565 S
O323 Co297 2.155 1_545 S
O323 C325 1.240 . S
O324 Co297 2.096 1_545 S
O324 C305 1.247 . S
C325 O322 1.244 1_545 S
C325 O323 1.240 . S
H326 C300 0.931 . S
H327 C309 0.931 . S
H328 C313 0.929 . S
H329 C315 0.930 . S
Co330 N334 2.148 . S
Co330 N340 2.128 . S
Co330 N350 2.194 . S
Co330 O355 2.351 . S
Co330 O356 2.155 . S
Co330 O357 2.096 . S
C331 N334 1.301 . S
C331 N335 1.328 . S
C331 H336 0.930 . S
C332 C333 1.333 . S
C332 N334 1.317 . S
C332 H337 0.930 . S
C333 C332 1.333 . S
C333 N335 1.350 . S
C333 H359 0.931 . S
N334 Co330 2.148 . S
N334 C331 1.301 . S
N334 C332 1.317 . S
N335 C331 1.328 . S
N335 C333 1.350 . S
H336 C331 0.930 . S
H337 C332 0.930 . S
C338 O339 1.224 . S
C338 O357 1.247 . S
O339 C338 1.224 . S
N340 Co330 2.128 . S
N340 C341 1.355 . S
N340 C343 1.311 . S
C341 N340 1.355 . S
C341 C342 1.363 . S
C341 H353 0.929 . S
C342 C341 1.363 . S
C342 N344 1.375 . S
C342 H360 0.931 . S
C343 N340 1.311 . S
C343 N344 1.347 . S
C343 H354 0.929 . S
N344 C342 1.375 . S
N344 C343 1.347 . S
C345 C348 1.365 . S
C345 N350 1.328 . S
C345 H351 0.929 . S
C346 C347 1.362 . S
C346 C349 1.378 . S
C346 H361 0.929 . S
C347 C346 1.362 . S
C347 C348 1.366 . S
C348 C345 1.365 . S
C348 C347 1.366 . S
C348 H362 0.930 . S
C349 C346 1.378 . S
C349 N350 1.315 . S
C349 H352 0.930 . S
N350 Co330 2.194 . S
N350 C345 1.328 . S
N350 C349 1.315 . S
H351 C345 0.929 . S
H352 C349 0.930 . S
H353 C341 0.929 . S
H354 C343 0.929 . S
O355 Co330 2.351 . S
O355 C358 1.244 . S
O356 Co330 2.155 . S
O356 C358 1.240 . S
O357 Co330 2.096 . S
O357 C338 1.247 . S
C358 O355 1.244 . S
C358 O356 1.240 . S
H359 C333 0.931 . S
H360 C342 0.931 . S
H361 C346 0.929 . S
H362 C348 0.930 . S
Co363 N367 2.148 . S
Co363 N373 2.128 . S
Co363 N383 2.194 . S
Co363 O388 2.351 . S
Co363 O389 2.155 . S
Co363 O390 2.096 . S
C364 N367 1.301 . S
C364 N368 1.328 . S
C364 H369 0.930 . S
C365 C366 1.333 . S
C365 N367 1.317 . S
C365 H370 0.930 . S
C366 C365 1.333 . S
C366 N368 1.350 . S
C366 H392 0.931 . S
N367 Co363 2.148 . S
N367 C364 1.301 . S
N367 C365 1.317 . S
N368 C364 1.328 . S
N368 C366 1.350 . S
H369 C364 0.930 . S
H370 C365 0.930 . S
C371 O372 1.224 . S
C371 O390 1.247 . S
O372 C371 1.224 . S
N373 Co363 2.128 . S
N373 C374 1.355 . S
N373 C376 1.311 . S
C374 N373 1.355 . S
C374 C375 1.363 . S
C374 H386 0.929 . S
C375 C374 1.363 . S
C375 N377 1.375 . S
C375 H393 0.931 . S
C376 N373 1.311 . S
C376 N377 1.347 . S
C376 H387 0.929 . S
N377 C375 1.375 . S
N377 C376 1.347 . S
C378 C381 1.365 . S
C378 N383 1.328 . S
C378 H384 0.929 . S
C379 C380 1.362 . S
C379 C382 1.378 . S
C379 H394 0.929 . S
C380 C379 1.362 . S
C380 C381 1.366 . S
C381 C378 1.365 . S
C381 C380 1.366 . S
C381 H395 0.930 . S
C382 C379 1.378 . S
C382 N383 1.315 . S
C382 H385 0.930 . S
N383 Co363 2.194 . S
N383 C378 1.328 . S
N383 C382 1.315 . S
H384 C378 0.929 . S
H385 C382 0.930 . S
H386 C374 0.929 . S
H387 C376 0.929 . S
O388 Co363 2.351 . S
O388 C391 1.244 . S
O389 Co363 2.155 . S
O389 C391 1.240 . S
O390 Co363 2.096 . S
O390 C371 1.247 . S
C391 O388 1.244 . S
C391 O389 1.240 . S
H392 C366 0.931 . S
H393 C375 0.931 . S
H394 C379 0.929 . S
H395 C381 0.930 . S
Co396 N400 2.148 . S
Co396 N406 2.128 . S
Co396 N416 2.194 . S
Co396 O421 2.351 . S
Co396 O422 2.155 1_655 S
Co396 O423 2.096 1_655 S
C397 N400 1.301 . S
C397 N401 1.328 . S
C397 H402 0.930 . S
C398 C399 1.333 . S
C398 N400 1.317 1_455 S
C398 H403 0.930 . S
C399 C398 1.333 . S
C399 N401 1.350 1_455 S
C399 H425 0.931 . S
N400 Co396 2.148 . S
N400 C397 1.301 . S
N400 C398 1.317 1_655 S
N401 C397 1.328 . S
N401 C399 1.350 1_655 S
H402 C397 0.930 . S
H403 C398 0.930 . S
C404 O405 1.224 1_455 S
C404 O423 1.247 . S
O405 C404 1.224 1_655 S
N406 Co396 2.128 . S
N406 C407 1.355 . S
N406 C409 1.311 1_655 S
C407 N406 1.355 . S
C407 C408 1.363 . S
C407 H419 0.929 . S
C408 C407 1.363 . S
C408 N410 1.375 . S
C408 H426 0.931 . S
C409 N406 1.311 1_455 S
C409 N410 1.347 1_455 S
C409 H420 0.929 . S
N410 C408 1.375 . S
N410 C409 1.347 1_655 S
C411 C414 1.365 . S
C411 N416 1.328 . S
C411 H417 0.929 . S
C412 C413 1.362 . S
C412 C415 1.378 . S
C412 H427 0.929 . S
C413 C412 1.362 . S
C413 C414 1.366 . S
C414 C411 1.365 . S
C414 C413 1.366 . S
C414 H428 0.930 . S
C415 C412 1.378 . S
C415 N416 1.315 . S
C415 H418 0.930 . S
N416 Co396 2.194 . S
N416 C411 1.328 . S
N416 C415 1.315 . S
H417 C411 0.929 . S
H418 C415 0.930 . S
H419 C407 0.929 . S
H420 C409 0.929 . S
O421 Co396 2.351 . S
O421 C424 1.244 1_655 S
O422 Co396 2.155 1_455 S
O422 C424 1.240 . S
O423 Co396 2.096 1_455 S
O423 C404 1.247 . S
C424 O421 1.244 1_455 S
C424 O422 1.240 . S
H425 C399 0.931 . S
H426 C408 0.931 . S
H427 C412 0.929 . S
H428 C414 0.930 . S
Co429 N433 2.148 . S
Co429 N439 2.128 . S
Co429 N449 2.194 . S
Co429 O454 2.351 . S
Co429 O455 2.155 1_565 S
Co429 O456 2.096 1_565 S
C430 N433 1.301 . S
C430 N434 1.328 . S
C430 H435 0.930 . S
C431 C432 1.333 . S
C431 N433 1.317 1_545 S
C431 H436 0.930 . S
C432 C431 1.333 . S
C432 N434 1.350 1_545 S
C432 H458 0.931 . S
N433 Co429 2.148 . S
N433 C430 1.301 . S
N433 C431 1.317 1_565 S
N434 C430 1.328 . S
N434 C432 1.350 1_565 S
H435 C430 0.930 . S
H436 C431 0.930 . S
C437 O438 1.224 1_545 S
C437 O456 1.247 . S
O438 C437 1.224 1_565 S
N439 Co429 2.128 . S
N439 C440 1.355 . S
N439 C442 1.311 1_565 S
C440 N439 1.355 . S
C440 C441 1.363 . S
C440 H452 0.929 . S
C441 C440 1.363 . S
C441 N443 1.375 . S
C441 H459 0.931 . S
C442 N439 1.311 1_545 S
C442 N443 1.347 1_545 S
C442 H453 0.929 . S
N443 C441 1.375 . S
N443 C442 1.347 1_565 S
C444 C447 1.365 . S
C444 N449 1.328 . S
C444 H450 0.929 . S
C445 C446 1.362 . S
C445 C448 1.378 . S
C445 H460 0.929 . S
C446 C445 1.362 . S
C446 C447 1.366 . S
C447 C444 1.365 . S
C447 C446 1.366 . S
C447 H461 0.930 . S
C448 C445 1.378 . S
C448 N449 1.315 . S
C448 H451 0.930 . S
N449 Co429 2.194 . S
N449 C444 1.328 . S
N449 C448 1.315 . S
H450 C444 0.929 . S
H451 C448 0.930 . S
H452 C440 0.929 . S
H453 C442 0.929 . S
O454 Co429 2.351 . S
O454 C457 1.244 1_565 S
O455 Co429 2.155 1_545 S
O455 C457 1.240 . S
O456 Co429 2.096 1_545 S
O456 C437 1.247 . S
C457 O454 1.244 1_545 S
C457 O455 1.240 . S
H458 C432 0.931 . S
H459 C441 0.931 . S
H460 C445 0.929 . S
H461 C447 0.930 . S
Co462 N466 2.148 . S
Co462 N472 2.128 . S
Co462 N482 2.194 . S
Co462 O487 2.351 . S
Co462 O488 2.155 . S
Co462 O489 2.096 . S
C463 N466 1.301 . S
C463 N467 1.328 . S
C463 H468 0.930 . S
C464 C465 1.333 . S
C464 N466 1.317 . S
C464 H469 0.930 . S
C465 C464 1.333 . S
C465 N467 1.350 . S
C465 H491 0.931 . S
N466 Co462 2.148 . S
N466 C463 1.301 . S
N466 C464 1.317 . S
N467 C463 1.328 . S
N467 C465 1.350 . S
H468 C463 0.930 . S
H469 C464 0.930 . S
C470 O471 1.224 . S
C470 O489 1.247 . S
O471 C470 1.224 . S
N472 Co462 2.128 . S
N472 C473 1.355 . S
N472 C475 1.311 . S
C473 N472 1.355 . S
C473 C474 1.363 . S
C473 H485 0.929 . S
C474 C473 1.363 . S
C474 N476 1.375 . S
C474 H492 0.931 . S
C475 N472 1.311 . S
C475 N476 1.347 . S
C475 H486 0.929 . S
N476 C474 1.375 . S
N476 C475 1.347 . S
C477 C480 1.365 . S
C477 N482 1.328 . S
C477 H483 0.929 . S
C478 C479 1.362 . S
C478 C481 1.378 . S
C478 H493 0.929 . S
C479 C478 1.362 . S
C479 C480 1.366 . S
C480 C477 1.365 . S
C480 C479 1.366 . S
C480 H494 0.930 . S
C481 C478 1.378 . S
C481 N482 1.315 . S
C481 H484 0.930 . S
N482 Co462 2.194 . S
N482 C477 1.328 . S
N482 C481 1.315 . S
H483 C477 0.929 . S
H484 C481 0.930 . S
H485 C473 0.929 . S
H486 C475 0.929 . S
O487 Co462 2.351 . S
O487 C490 1.244 . S
O488 Co462 2.155 . S
O488 C490 1.240 . S
O489 Co462 2.096 . S
O489 C470 1.247 . S
C490 O487 1.244 . S
C490 O488 1.240 . S
H491 C465 0.931 . S
H492 C474 0.931 . S
H493 C478 0.929 . S
H494 C480 0.930 . S
Co495 N499 2.148 . S
Co495 N505 2.128 . S
Co495 N515 2.194 . S
Co495 O520 2.351 . S
Co495 O521 2.155 . S
Co495 O522 2.096 . S
C496 N499 1.301 . S
C496 N500 1.328 . S
C496 H501 0.930 . S
C497 C498 1.333 . S
C497 N499 1.317 . S
C497 H502 0.930 . S
C498 C497 1.333 . S
C498 N500 1.350 . S
C498 H524 0.931 . S
N499 Co495 2.148 . S
N499 C496 1.301 . S
N499 C497 1.317 . S
N500 C496 1.328 . S
N500 C498 1.350 . S
H501 C496 0.930 . S
H502 C497 0.930 . S
C503 O504 1.224 . S
C503 O522 1.247 . S
O504 C503 1.224 . S
N505 Co495 2.128 . S
N505 C506 1.355 . S
N505 C508 1.311 . S
C506 N505 1.355 . S
C506 C507 1.363 . S
C506 H518 0.929 . S
C507 C506 1.363 . S
C507 N509 1.375 . S
C507 H525 0.931 . S
C508 N505 1.311 . S
C508 N509 1.347 . S
C508 H519 0.929 . S
N509 C507 1.375 . S
N509 C508 1.347 . S
C510 C513 1.365 . S
C510 N515 1.328 . S
C510 H516 0.929 . S
C511 C512 1.362 . S
C511 C514 1.378 . S
C511 H526 0.929 . S
C512 C511 1.362 . S
C512 C513 1.366 . S
C513 C510 1.365 . S
C513 C512 1.366 . S
C513 H527 0.930 . S
C514 C511 1.378 . S
C514 N515 1.315 . S
C514 H517 0.930 . S
N515 Co495 2.194 . S
N515 C510 1.328 . S
N515 C514 1.315 . S
H516 C510 0.929 . S
H517 C514 0.930 . S
H518 C506 0.929 . S
H519 C508 0.929 . S
O520 Co495 2.351 . S
O520 C523 1.244 . S
O521 Co495 2.155 . S
O521 C523 1.240 . S
O522 Co495 2.096 . S
O522 C503 1.247 . S
C523 O520 1.244 . S
C523 O521 1.240 . S
H524 C498 0.931 . S
H525 C507 0.931 . S
H526 C511 0.929 . S
H527 C513 0.930 . S
H528 C534 0.931 . S
H529 C537 0.930 . S
H530 C538 0.930 1_554 S
H531 C539 0.930 . S
H532 C542 0.929 1_455 S
H533 C543 0.931 1_556 S
C534 H528 0.931 . S
C534 C535 1.354 1_455 S
C534 C536 1.414 1_455 S
C535 C534 1.354 1_655 S
C535 C537 1.419 . S
C536 C534 1.414 1_655 S
C536 C541 1.425 1_556 S
C536 C543 1.409 1_656 S
C537 H529 0.930 . S
C537 C535 1.419 . S
C537 C538 1.362 . S
C538 H530 0.930 1_556 S
C538 C537 1.362 . S
C538 C541 1.409 1_556 S
C539 H531 0.930 . S
C539 C540 1.355 . S
C539 C541 1.415 . S
C540 C539 1.355 . S
C540 C542 1.421 . S
C541 C536 1.425 1_554 S
C541 C538 1.409 1_554 S
C541 C539 1.415 . S
C542 H532 0.929 1_655 S
C542 C540 1.421 . S
C542 C543 1.362 1_655 S
C543 H533 0.931 1_554 S
C543 C536 1.409 1_454 S
C543 C542 1.362 1_455 S
H544 C550 0.933 . S
H545 C553 0.930 . S
H546 C554 0.930 . S
H547 C555 0.930 . S
H548 C558 0.930 1_545 S
H549 C559 0.932 . S
C550 H544 0.933 . S
C550 C551 1.353 1_545 S
C550 C552 1.414 1_545 S
C551 C550 1.353 1_565 S
C551 C553 1.419 . S
C552 C550 1.414 1_565 S
C552 C557 1.425 . S
C552 C559 1.408 1_565 S
C553 H545 0.930 . S
C553 C551 1.419 . S
C553 C554 1.362 . S
C554 H546 0.930 . S
C554 C553 1.362 . S
C554 C557 1.409 . S
C555 H547 0.930 . S
C555 C556 1.355 . S
C555 C557 1.415 . S
C556 C555 1.355 . S
C556 C558 1.419 . S
C557 C552 1.425 . S
C557 C554 1.409 . S
C557 C555 1.415 . S
C558 H548 0.930 1_565 S
C558 C556 1.419 . S
C558 C559 1.362 1_565 S
C559 H549 0.932 . S
C559 C552 1.408 1_545 S
C559 C558 1.362 1_545 S
H560 C566 0.930 . S
H561 C569 0.930 . S
H562 C570 0.946 . S
H563 C571 0.930 . S
H564 C574 0.930 . S
H565 C575 0.946 . S
C566 H560 0.930 . S
C566 C567 1.355 . S
C566 C568 1.415 . S
C567 C566 1.355 . S
C567 C569 1.419 . S
C568 C566 1.415 . S
C568 C573 1.425 1_554 S
C568 C575 1.409 1_554 S
C569 H561 0.930 . S
C569 C567 1.419 . S
C569 C570 1.362 . S
C570 H562 0.946 . S
C570 C569 1.362 . S
C570 C573 1.409 1_554 S
C571 H563 0.930 . S
C571 C572 1.355 . S
C571 C573 1.415 . S
C572 C571 1.355 . S
C572 C574 1.419 . S
C573 C568 1.425 1_556 S
C573 C570 1.409 1_556 S
C573 C571 1.415 . S
C574 H564 0.930 . S
C574 C572 1.419 . S
C574 C575 1.362 . S
C575 H565 0.946 . S
C575 C568 1.409 1_556 S
C575 C574 1.362 . S
H576 C582 0.930 . S
H577 C585 0.930 . S
H578 C586 0.930 . S
H579 C587 0.930 . S
H580 C590 0.930 . S
H581 C591 0.930 . S
C582 H576 0.930 . S
C582 C583 1.355 . S
C582 C584 1.415 . S
C583 C582 1.355 . S
C583 C585 1.419 . S
C584 C582 1.415 . S
C584 C589 1.425 . S
C584 C591 1.409 . S
C585 H577 0.930 . S
C585 C583 1.419 . S
C585 C586 1.362 . S
C586 H578 0.930 . S
C586 C585 1.362 . S
C586 C589 1.409 . S
C587 H579 0.930 . S
C587 C588 1.355 . S
C587 C589 1.415 . S
C588 C587 1.355 . S
C588 C590 1.419 . S
C589 C584 1.425 . S
C589 C586 1.409 . S
C589 C587 1.415 . S
C590 H580 0.930 . S
C590 C588 1.419 . S
C590 C591 1.362 . S
C591 H581 0.930 . S
C591 C584 1.409 . S
C591 C590 1.362 . S
H592 C598 0.930 . S
H593 C601 0.930 . S
H594 C602 0.930 . S
H595 C603 0.930 . S
H596 C606 0.930 . S
H597 C607 0.930 . S
C598 H592 0.930 . S
C598 C599 1.355 1_655 S
C598 C600 1.415 . S
C599 C598 1.355 1_455 S
C599 C601 1.419 . S
C600 C598 1.415 . S
C600 C605 1.425 1_654 S
C600 C607 1.409 1_554 S
C601 H593 0.930 . S
C601 C599 1.419 . S
C601 C602 1.362 . S
C602 H594 0.930 . S
C602 C601 1.362 . S
C602 C605 1.409 1_554 S
C603 H595 0.930 . S
C603 C604 1.355 . S
C603 C605 1.415 . S
C604 C603 1.355 . S
C604 C606 1.419 1_455 S
C605 C600 1.425 1_456 S
C605 C602 1.409 1_556 S
C605 C603 1.415 . S
C606 H596 0.930 . S
C606 C604 1.419 1_655 S
C606 C607 1.362 . S
C607 H597 0.930 . S
C607 C600 1.409 1_556 S
C607 C606 1.362 . S
H608 C614 0.930 . S
H609 C617 0.930 . S
H610 C618 0.930 . S
H611 C619 0.930 . S
H612 C622 0.930 . S
H613 C623 0.930 . S
C614 H608 0.930 . S
C614 C615 1.355 . S
C614 C616 1.415 . S
C615 C614 1.355 . S
C615 C617 1.419 1_545 S
C616 C614 1.415 . S
C616 C621 1.425 1_545 S
C616 C623 1.409 . S
C617 H609 0.930 . S
C617 C615 1.419 1_565 S
C617 C618 1.362 . S
C618 H610 0.930 . S
C618 C617 1.362 . S
C618 C621 1.409 . S
C619 H611 0.930 . S
C619 C620 1.355 1_565 S
C619 C621 1.415 . S
C620 C619 1.355 1_545 S
C620 C622 1.419 . S
C621 C616 1.425 1_565 S
C621 C618 1.409 . S
C621 C619 1.415 . S
C622 H612 0.930 . S
C622 C620 1.419 . S
C622 C623 1.362 . S
C623 H613 0.930 . S
C623 C616 1.409 . S
C623 C622 1.362 . S
H624 C630 0.930 . S
H625 C633 0.930 . S
H626 C634 0.930 . S
H627 C635 0.930 . S
H628 C638 0.930 . S
H629 C639 0.930 . S
C630 H624 0.930 . S
C630 C631 1.355 . S
C630 C632 1.415 . S
C631 C630 1.355 . S
C631 C633 1.419 . S
C632 C630 1.415 . S
C632 C637 1.425 1_556 S
C632 C639 1.409 1_556 S
C633 H625 0.930 . S
C633 C631 1.419 . S
C633 C634 1.362 . S
C634 H626 0.930 . S
C634 C633 1.362 . S
C634 C637 1.409 1_556 S
C635 H627 0.930 . S
C635 C636 1.355 . S
C635 C637 1.415 . S
C636 C635 1.355 . S
C636 C638 1.419 . S
C637 C632 1.425 1_554 S
C637 C634 1.409 1_554 S
C637 C635 1.415 . S
C638 H628 0.930 . S
C638 C636 1.419 . S
C638 C639 1.362 . S
C639 H629 0.930 . S
C639 C632 1.409 1_554 S
C639 C638 1.362 . S
H640 C646 0.930 . S
H641 C649 0.930 . S
H642 C650 0.930 . S
H643 C651 0.930 . S
H644 C654 0.930 . S
H645 C655 0.930 . S
C646 H640 0.930 . S
C646 C647 1.355 . S
C646 C648 1.415 . S
C647 C646 1.355 . S
C647 C649 1.419 . S
C648 C646 1.415 . S
C648 C653 1.425 . S
C648 C655 1.409 . S
C649 H641 0.930 . S
C649 C647 1.419 . S
C649 C650 1.362 . S
C650 H642 0.930 . S
C650 C649 1.362 . S
C650 C653 1.409 . S
C651 H643 0.930 . S
C651 C652 1.355 . S
C651 C653 1.415 . S
C652 C651 1.355 . S
C652 C654 1.419 . S
C653 C648 1.425 . S
C653 C650 1.409 . S
C653 C651 1.415 . S
C654 H644 0.930 . S
C654 C652 1.419 . S
C654 C655 1.362 . S
C655 H645 0.930 . S
C655 C648 1.409 . S
C655 C654 1.362 . S
H656 C662 0.930 . S
H657 C665 0.930 . S
H658 C666 0.930 . S
H659 C667 0.930 . S
H660 C670 0.930 . S
H661 C671 0.930 . S
C662 H656 0.930 . S
C662 C663 1.355 . S
C662 C664 1.415 . S
C663 C662 1.355 . S
C663 C665 1.419 1_655 S
C664 C662 1.415 . S
C664 C669 1.425 1_655 S
C664 C671 1.409 . S
C665 H657 0.930 . S
C665 C663 1.419 1_455 S
C665 C666 1.362 . S
C666 H658 0.930 . S
C666 C665 1.362 . S
C666 C669 1.409 . S
C667 H659 0.930 . S
C667 C668 1.355 1_545 S
C667 C669 1.415 . S
C668 C667 1.355 1_565 S
C668 C670 1.419 1_455 S
C669 C664 1.425 1_455 S
C669 C666 1.409 . S
C669 C667 1.415 . S
C670 H660 0.930 . S
C670 C668 1.419 1_655 S
C670 C671 1.362 1_565 S
C671 H661 0.930 . S
C671 C664 1.409 . S
C671 C670 1.362 1_545 S
H672 C678 0.930 . S
H673 C681 0.930 . S
H674 C682 0.930 . S
H675 C683 0.930 . S
H676 C686 0.930 . S
H677 C687 0.930 . S
C678 H672 0.930 . S
C678 C679 1.355 . S
C678 C680 1.415 . S
C679 C678 1.355 . S
C679 C681 1.419 1_565 S
C680 C678 1.415 . S
C680 C685 1.425 1_565 S
C680 C687 1.409 . S
C681 H673 0.930 . S
C681 C679 1.419 1_545 S
C681 C682 1.362 . S
C682 H674 0.930 . S
C682 C681 1.362 . S
C682 C685 1.409 . S
C683 H675 0.930 . S
C683 C684 1.355 . S
C683 C685 1.415 . S
C684 C683 1.355 . S
C684 C686 1.419 1_545 S
C685 C680 1.425 1_545 S
C685 C682 1.409 . S
C685 C683 1.415 . S
C686 H676 0.930 . S
C686 C684 1.419 1_565 S
C686 C687 1.362 . S
C687 H677 0.930 . S
C687 C680 1.409 . S
C687 C686 1.362 . S
H688 C694 0.930 . S
H689 C697 0.930 . S
H690 C698 0.930 . S
H691 C699 0.930 . S
H692 C702 0.930 . S
H693 C703 0.930 . S
C694 H688 0.930 . S
C694 C695 1.355 . S
C694 C696 1.415 . S
C695 C694 1.355 . S
C695 C697 1.419 . S
C696 C694 1.415 . S
C696 C701 1.425 . S
C696 C703 1.409 . S
C697 H689 0.930 . S
C697 C695 1.419 . S
C697 C698 1.362 . S
C698 H690 0.930 . S
C698 C697 1.362 . S
C698 C701 1.409 . S
C699 H691 0.930 . S
C699 C700 1.355 . S
C699 C701 1.415 . S
C700 C699 1.355 . S
C700 C702 1.419 . S
C701 C696 1.425 . S
C701 C698 1.409 . S
C701 C699 1.415 . S
C702 H692 0.930 . S
C702 C700 1.419 . S
C702 C703 1.362 . S
C703 H693 0.930 . S
C703 C696 1.409 . S
C703 C702 1.362 . S
H704 C710 0.930 . S
H705 C713 0.930 . S
H706 C714 0.930 . S
H707 C715 0.930 . S
H708 C718 0.930 . S
H709 C719 0.930 . S
C710 H704 0.930 . S
C710 C711 1.355 . S
C710 C712 1.415 . S
C711 C710 1.355 . S
C711 C713 1.419 . S
C712 C710 1.415 . S
C712 C717 1.425 . S
C712 C719 1.409 . S
C713 H705 0.930 . S
C713 C711 1.419 . S
C713 C714 1.362 . S
C714 H706 0.930 . S
C714 C713 1.362 . S
C714 C717 1.409 . S
C715 H707 0.930 . S
C715 C716 1.355 1_455 S
C715 C717 1.415 . S
C716 C715 1.355 1_655 S
C716 C718 1.419 . S
C717 C712 1.425 . S
C717 C714 1.409 . S
C717 C715 1.415 . S
C718 H708 0.930 . S
C718 C716 1.419 . S
C718 C719 1.362 1_655 S
C719 H709 0.930 . S
C719 C712 1.409 . S
C719 C718 1.362 1_455 S
H720 C726 0.930 . S
H721 C729 0.930 . S
H722 C730 0.930 . S
H723 C731 0.930 1_455 S
H724 C734 0.930 . S
H725 C735 0.930 . S
C726 H720 0.930 . S
C726 C727 1.355 1_655 S
C726 C728 1.415 . S
C727 C726 1.355 1_455 S
C727 C729 1.419 . S
C728 C726 1.415 . S
C728 C733 1.426 . S
C728 C735 1.409 . S
C729 H721 0.930 . S
C729 C727 1.419 . S
C729 C730 1.362 . S
C730 H722 0.930 . S
C730 C729 1.362 . S
C730 C733 1.407 1_455 S
C731 H723 0.930 1_655 S
C731 C732 1.355 . S
C731 C733 1.415 . S
C732 C731 1.355 . S
C732 C734 1.419 . S
C733 C728 1.426 . S
C733 C730 1.407 1_655 S
C733 C731 1.415 . S
C734 H724 0.930 . S
C734 C732 1.419 . S
C734 C735 1.362 . S
C735 H725 0.930 . S
C735 C728 1.409 . S
C735 C734 1.362 . S
H736 C742 0.930 . S
H737 C745 0.930 . S
H738 C746 0.930 . S
H739 C747 0.930 . S
H740 C750 0.930 . S
H741 C751 0.930 . S
C742 H736 0.930 . S
C742 C743 1.355 1_455 S
C742 C744 1.415 . S
C743 C742 1.355 1_655 S
C743 C745 1.419 1_545 S
C744 C742 1.415 . S
C744 C749 1.425 1_545 S
C744 C751 1.409 . S
C745 H737 0.930 . S
C745 C743 1.419 1_565 S
C745 C746 1.362 1_655 S
C746 H738 0.930 . S
C746 C745 1.362 1_455 S
C746 C749 1.409 . S
C747 H739 0.930 . S
C747 C748 1.355 . S
C747 C749 1.415 . S
C748 C747 1.355 . S
C748 C750 1.419 1_565 S
C749 C744 1.425 1_565 S
C749 C746 1.409 . S
C749 C747 1.415 . S
C750 H740 0.930 . S
C750 C748 1.419 1_545 S
C750 C751 1.362 . S
C751 H741 0.930 . S
C751 C744 1.409 . S
C751 C750 1.362 . S
H752 C758 0.930 . S
H753 C761 0.930 . S
H754 C762 0.930 . S
H755 C763 0.930 1_565 S
H756 C766 0.930 1_565 S
H757 C767 0.930 . S
C758 H752 0.930 . S
C758 C759 1.355 . S
C758 C760 1.415 . S
C759 C758 1.355 . S
C759 C761 1.419 . S
C760 C758 1.415 . S
C760 C765 1.425 . S
C760 C767 1.409 . S
C761 H753 0.930 . S
C761 C759 1.419 . S
C761 C762 1.362 . S
C762 H754 0.930 . S
C762 C761 1.362 . S
C762 C765 1.409 . S
C763 H755 0.930 1_545 S
C763 C764 1.355 1_545 S
C763 C765 1.415 . S
C764 C763 1.355 1_565 S
C764 C766 1.419 1_565 S
C765 C760 1.425 . S
C765 C762 1.409 . S
C765 C763 1.415 . S
C766 H756 0.930 1_545 S
C766 C764 1.419 1_545 S
C766 C767 1.362 . S
C767 H757 0.930 . S
C767 C760 1.409 . S
C767 C766 1.362 . S
H768 C774 0.930 . S
H769 C777 0.930 . S
H770 C778 0.930 . S
H771 C779 0.930 . S
H772 C782 0.930 . S
H773 C783 0.930 . S
C774 H768 0.930 . S
C774 C775 1.355 . S
C774 C776 1.415 . S
C775 C774 1.355 . S
C775 C777 1.419 . S
C776 C774 1.415 . S
C776 C781 1.425 . S
C776 C783 1.409 . S
C777 H769 0.930 . S
C777 C775 1.419 . S
C777 C778 1.362 . S
C778 H770 0.930 . S
C778 C777 1.362 . S
C778 C781 1.409 . S
C779 H771 0.930 . S
C779 C780 1.355 . S
C779 C781 1.415 . S
C780 C779 1.355 . S
C780 C782 1.419 . S
C781 C776 1.425 . S
C781 C778 1.409 . S
C781 C779 1.415 . S
C782 H772 0.930 . S
C782 C780 1.419 . S
C782 C783 1.362 . S
C783 H773 0.930 . S
C783 C776 1.409 . S
C783 C782 1.362 . S
H784 C790 0.930 . S
H785 C793 0.930 . S
H786 C794 0.930 . S
H787 C795 0.930 1_545 S
H788 C798 0.930 1_545 S
H789 C799 0.930 . S
C790 H784 0.930 . S
C790 C791 1.355 1_655 S
C790 C792 1.415 . S
C791 C790 1.355 1_455 S
C791 C793 1.419 . S
C792 C790 1.415 . S
C792 C797 1.425 1_655 S
C792 C799 1.409 . S
C793 H785 0.930 . S
C793 C791 1.419 . S
C793 C794 1.362 . S
C794 H786 0.930 . S
C794 C793 1.362 . S
C794 C797 1.409 . S
C795 H787 0.930 1_565 S
C795 C796 1.355 1_465 S
C795 C797 1.415 . S
C796 C795 1.355 1_645 S
C796 C798 1.419 1_545 S
C797 C792 1.425 1_455 S
C797 C794 1.409 . S
C797 C795 1.415 . S
C798 H788 0.930 1_565 S
C798 C796 1.419 1_565 S
C798 C799 1.362 . S
C799 H789 0.930 . S
C799 C792 1.409 . S
C799 C798 1.362 . S
H800 C806 0.930 . S
H801 C809 0.930 . S
H802 C810 0.930 . S
H803 C811 0.930 . S
H804 C814 0.930 . S
H805 C815 0.930 . S
C806 H800 0.930 . S
C806 C807 1.355 . S
C806 C808 1.415 . S
C807 C806 1.355 . S
C807 C809 1.419 1_545 S
C808 C806 1.415 . S
C808 C813 1.425 1_545 S
C808 C815 1.409 . S
C809 H801 0.930 . S
C809 C807 1.419 1_565 S
C809 C810 1.362 . S
C810 H802 0.930 . S
C810 C809 1.362 . S
C810 C813 1.409 . S
C811 H803 0.930 . S
C811 C812 1.355 . S
C811 C813 1.415 . S
C812 C811 1.355 . S
C812 C814 1.419 1_565 S
C813 C808 1.425 1_565 S
C813 C810 1.409 . S
C813 C811 1.415 . S
C814 H804 0.930 . S
C814 C812 1.419 1_545 S
C814 C815 1.362 . S
C815 H805 0.930 . S
C815 C808 1.409 . S
C815 C814 1.362 . S
H816 C822 0.930 . S
H817 C825 0.930 . S
H818 C826 0.930 . S
H819 C827 0.930 . S
H820 C830 0.930 . S
H821 C831 0.930 . S
C822 H816 0.930 . S
C822 C823 1.355 . S
C822 C824 1.415 . S
C823 C822 1.355 . S
C823 C825 1.419 . S
C824 C822 1.415 . S
C824 C829 1.425 . S
C824 C831 1.409 . S
C825 H817 0.930 . S
C825 C823 1.419 . S
C825 C826 1.362 . S
C826 H818 0.930 . S
C826 C825 1.362 . S
C826 C829 1.409 . S
C827 H819 0.930 . S
C827 C828 1.355 . S
C827 C829 1.415 . S
C828 C827 1.355 . S
C828 C830 1.419 . S
C829 C824 1.425 . S
C829 C826 1.409 . S
C829 C827 1.415 . S
C830 H820 0.930 . S
C830 C828 1.419 . S
C830 C831 1.362 . S
C831 H821 0.930 . S
C831 C824 1.409 . S
C831 C830 1.362 . S
H832 C838 0.930 . S
H833 C841 0.930 . S
H834 C842 0.930 . S
H835 C843 0.930 1_455 S
H836 C846 0.930 1_455 S
H837 C847 0.930 . S
C838 H832 0.930 . S
C838 C839 1.355 . S
C838 C840 1.415 . S
C839 C838 1.355 . S
C839 C841 1.419 . S
C840 C838 1.415 . S
C840 C845 1.425 . S
C840 C847 1.409 . S
C841 H833 0.930 . S
C841 C839 1.419 . S
C841 C842 1.362 . S
C842 H834 0.930 . S
C842 C841 1.362 . S
C842 C845 1.409 . S
C843 H835 0.930 1_655 S
C843 C844 1.355 1_655 S
C843 C845 1.415 . S
C844 C843 1.355 1_455 S
C844 C846 1.419 1_455 S
C845 C840 1.425 . S
C845 C842 1.409 . S
C845 C843 1.415 . S
C846 H836 0.930 1_655 S
C846 C844 1.419 1_655 S
C846 C847 1.362 . S
C847 H837 0.930 . S
C847 C840 1.409 . S
C847 C846 1.362 . S
H848 C854 0.930 1_655 S
H849 C857 0.930 . S
H850 C858 0.930 . S
H851 C859 0.930 . S
H852 C862 0.930 . S
H853 C863 0.930 . S
C854 H848 0.930 1_455 S
C854 C855 1.355 . S
C854 C856 1.415 1_455 S
C855 C854 1.355 . S
C855 C857 1.419 . S
C856 C854 1.415 1_655 S
C856 C861 1.425 1_655 S
C856 C863 1.409 . S
C857 H849 0.930 . S
C857 C855 1.419 . S
C857 C858 1.362 . S
C858 H850 0.930 . S
C858 C857 1.362 . S
C858 C861 1.409 . S
C859 H851 0.930 . S
C859 C860 1.355 1_455 S
C859 C861 1.415 . S
C860 C859 1.355 1_655 S
C860 C862 1.419 . S
C861 C856 1.425 1_455 S
C861 C858 1.409 . S
C861 C859 1.415 . S
C862 H852 0.930 . S
C862 C860 1.419 . S
C862 C863 1.362 . S
C863 H853 0.930 . S
C863 C856 1.409 . S
C863 C862 1.362 . S
H864 C870 0.930 1_565 S
H865 C873 0.930 . S
H866 C874 0.930 . S
H867 C875 0.930 1_455 S
H868 C878 0.930 1_455 S
H869 C879 0.930 . S
C870 H864 0.930 1_545 S
C870 C871 1.355 . S
C870 C872 1.415 1_545 S
C871 C870 1.355 . S
C871 C873 1.419 . S
C872 C870 1.415 1_565 S
C872 C877 1.425 1_565 S
C872 C879 1.409 . S
C873 H865 0.930 . S
C873 C871 1.419 . S
C873 C874 1.362 . S
C874 H866 0.930 . S
C874 C873 1.362 . S
C874 C877 1.409 . S
C875 H867 0.930 1_655 S
C875 C876 1.355 1_645 S
C875 C877 1.415 . S
C876 C875 1.355 1_465 S
C876 C878 1.419 1_455 S
C877 C872 1.425 1_545 S
C877 C874 1.409 . S
C877 C875 1.415 . S
C878 H868 0.930 1_655 S
C878 C876 1.419 1_655 S
C878 C879 1.362 . S
C879 H869 0.930 . S
C879 C872 1.409 . S
C879 C878 1.362 . S
H880 C886 0.930 . S
H881 C889 0.930 . S
H882 C890 0.930 . S
H883 C891 0.930 . S
H884 C894 0.930 . S
H885 C895 0.930 . S
C886 H880 0.930 . S
C886 C887 1.355 . S
C886 C888 1.415 . S
C887 C886 1.355 . S
C887 C889 1.419 . S
C888 C886 1.415 . S
C888 C893 1.425 . S
C888 C895 1.409 . S
C889 H881 0.930 . S
C889 C887 1.419 . S
C889 C890 1.362 . S
C890 H882 0.930 . S
C890 C889 1.362 . S
C890 C893 1.409 . S
C891 H883 0.930 . S
C891 C892 1.355 1_565 S
C891 C893 1.415 . S
C892 C891 1.355 1_545 S
C892 C894 1.419 . S
C893 C888 1.425 . S
C893 C890 1.409 . S
C893 C891 1.415 . S
C894 H884 0.930 . S
C894 C892 1.419 . S
C894 C895 1.362 1_545 S
C895 H885 0.930 . S
C895 C888 1.409 . S
C895 C894 1.362 1_565 S
H896 C902 0.930 . S
H897 C905 0.930 . S
H898 C906 0.930 . S
H899 C907 0.930 . S
H900 C910 0.930 . S
H901 C911 0.930 . S
C902 H896 0.930 . S
C902 C903 1.355 . S
C902 C904 1.415 . S
C903 C902 1.355 . S
C903 C905 1.419 . S
C904 C902 1.415 . S
C904 C909 1.425 . S
C904 C911 1.409 . S
C905 H897 0.930 . S
C905 C903 1.419 . S
C905 C906 1.362 . S
C906 H898 0.930 . S
C906 C905 1.362 . S
C906 C909 1.409 . S
C907 H899 0.930 . S
C907 C908 1.355 . S
C907 C909 1.415 . S
C908 C907 1.355 . S
C908 C910 1.419 . S
C909 C904 1.425 . S
C909 C906 1.409 . S
C909 C907 1.415 . S
C910 H900 0.930 . S
C910 C908 1.419 . S
C910 C911 1.362 . S
C911 H901 0.930 . S
C911 C904 1.409 . S
C911 C910 1.362 . S
H912 C918 0.930 . S
H913 C921 0.930 . S
H914 C922 0.930 . S
H915 C923 0.930 . S
H916 C926 0.930 . S
H917 C927 0.930 . S
C918 H912 0.930 . S
C918 C919 1.355 . S
C918 C920 1.415 . S
C919 C918 1.355 . S
C919 C921 1.419 . S
C920 C918 1.415 . S
C920 C925 1.425 . S
C920 C927 1.409 . S
C921 H913 0.930 . S
C921 C919 1.419 . S
C921 C922 1.362 . S
C922 H914 0.930 . S
C922 C921 1.362 . S
C922 C925 1.409 . S
C923 H915 0.930 . S
C923 C924 1.355 . S
C923 C925 1.415 . S
C924 C923 1.355 . S
C924 C926 1.419 . S
C925 C920 1.425 . S
C925 C922 1.409 . S
C925 C923 1.415 . S
C926 H916 0.930 . S
C926 C924 1.419 . S
C926 C927 1.362 . S
C927 H917 0.930 . S
C927 C920 1.409 . S
C927 C926 1.362 . S
H928 C934 0.930 . S
H929 C937 0.930 . S
H930 C938 0.930 . S
H931 C939 0.930 . S
H932 C942 0.930 . S
H933 C943 0.930 . S
C934 H928 0.930 . S
C934 C935 1.355 . S
C934 C936 1.415 . S
C935 C934 1.355 . S
C935 C937 1.419 . S
C936 C934 1.415 . S
C936 C941 1.425 . S
C936 C943 1.409 . S
C937 H929 0.930 . S
C937 C935 1.419 . S
C937 C938 1.362 . S
C938 H930 0.930 . S
C938 C937 1.362 . S
C938 C941 1.409 . S
C939 H931 0.930 . S
C939 C940 1.355 . S
C939 C941 1.415 . S
C940 C939 1.355 . S
C940 C942 1.419 . S
C941 C936 1.425 . S
C941 C938 1.409 . S
C941 C939 1.415 . S
C942 H932 0.930 . S
C942 C940 1.419 . S
C942 C943 1.362 . S
C943 H933 0.930 . S
C943 C936 1.409 . S
C943 C942 1.362 . S
H944 C950 0.930 . S
H945 C953 0.930 . S
H946 C954 0.930 . S
H947 C955 0.930 . S
H948 C958 0.930 . S
H949 C959 0.930 . S
C950 H944 0.930 . S
C950 C951 1.355 . S
C950 C952 1.415 . S
C951 C950 1.355 . S
C951 C953 1.419 . S
C952 C950 1.415 . S
C952 C957 1.425 . S
C952 C959 1.409 . S
C953 H945 0.930 . S
C953 C951 1.419 . S
C953 C954 1.362 . S
C954 H946 0.930 . S
C954 C953 1.362 . S
C954 C957 1.409 . S
C955 H947 0.930 . S
C955 C956 1.355 . S
C955 C957 1.415 . S
C956 C955 1.355 . S
C956 C958 1.419 . S
C957 C952 1.425 . S
C957 C954 1.409 . S
C957 C955 1.415 . S
C958 H948 0.930 . S
C958 C956 1.419 . S
C958 C959 1.362 . S
C959 H949 0.930 . S
C959 C952 1.409 . S
C959 C958 1.362 . S
H960 C966 0.930 . S
H961 C969 0.930 . S
H962 C970 0.930 . S
H963 C971 0.930 . S
H964 C974 0.930 . S
H965 C975 0.930 . S
C966 H960 0.930 . S
C966 C967 1.355 . S
C966 C968 1.415 . S
C967 C966 1.355 . S
C967 C969 1.419 . S
C968 C966 1.415 . S
C968 C973 1.425 . S
C968 C975 1.409 . S
C969 H961 0.930 . S
C969 C967 1.419 . S
C969 C970 1.362 . S
C970 H962 0.930 . S
C970 C969 1.362 . S
C970 C973 1.409 . S
C971 H963 0.930 . S
C971 C972 1.355 . S
C971 C973 1.415 . S
C972 C971 1.355 . S
C972 C974 1.419 . S
C973 C968 1.425 . S
C973 C970 1.409 . S
C973 C971 1.415 . S
C974 H964 0.930 . S
C974 C972 1.419 . S
C974 C975 1.362 . S
C975 H965 0.930 . S
C975 C968 1.409 . S
C975 C974 1.362 . S
H976 C982 0.930 . S
H977 C985 0.930 1_455 S
H978 C986 0.930 . S
H979 C987 0.930 . S
H980 C990 0.930 . S
H981 C991 0.930 . S
C982 H976 0.930 . S
C982 C983 1.355 . S
C982 C984 1.415 . S
C983 C982 1.355 . S
C983 C985 1.419 . S
C984 C982 1.415 . S
C984 C989 1.425 . S
C984 C991 1.409 . S
C985 H977 0.930 1_655 S
C985 C983 1.419 . S
C985 C986 1.362 . S
C986 H978 0.930 . S
C986 C985 1.362 . S
C986 C989 1.409 . S
C987 H979 0.930 . S
C987 C988 1.355 . S
C987 C989 1.415 . S
C988 C987 1.355 . S
C988 C990 1.419 . S
C989 C984 1.425 . S
C989 C986 1.409 . S
C989 C987 1.415 . S
C990 H980 0.930 . S
C990 C988 1.419 . S
C990 C991 1.362 . S
C991 H981 0.930 . S
C991 C984 1.409 . S
C991 C990 1.362 . S
H992 C998 0.930 . S
H993 C1001 0.930 . S
H994 C1002 0.930 . S
H995 C1003 0.930 . S
H996 C1006 0.930 . S
H997 C1007 0.930 . S
C998 H992 0.930 . S
C998 C999 1.355 . S
C998 C1000 1.415 . S
C999 C998 1.355 . S
C999 C1001 1.419 . S
C1000 C998 1.415 . S
C1000 C1005 1.425 . S
C1000 C1007 1.409 . S
C1001 H993 0.930 . S
C1001 C999 1.419 . S
C1001 C1002 1.362 . S
C1002 H994 0.930 . S
C1002 C1001 1.362 . S
C1002 C1005 1.409 . S
C1003 H995 0.930 . S
C1003 C1004 1.355 . S
C1003 C1005 1.415 . S
C1004 C1003 1.355 . S
C1004 C1006 1.419 . S
C1005 C1000 1.425 . S
C1005 C1002 1.409 . S
C1005 C1003 1.415 . S
C1006 H996 0.930 . S
C1006 C1004 1.419 . S
C1006 C1007 1.362 . S
C1007 H997 0.930 . S
C1007 C1000 1.409 . S
C1007 C1006 1.362 . S
H1008 C1014 0.930 . S
H1009 C1017 0.930 . S
H1010 C1018 0.930 . S
H1011 C1019 0.930 . S
H1012 C1022 0.930 1_545 S
H1013 C1023 0.930 1_545 S
C1014 H1008 0.930 . S
C1014 C1015 1.355 . S
C1014 C1016 1.415 . S
C1015 C1014 1.355 . S
C1015 C1017 1.419 . S
C1016 C1014 1.415 . S
C1016 C1021 1.425 . S
C1016 C1023 1.409 . S
C1017 H1009 0.930 . S
C1017 C1015 1.419 . S
C1017 C1018 1.362 . S
C1018 H1010 0.930 . S
C1018 C1017 1.362 . S
C1018 C1021 1.409 . S
C1019 H1011 0.930 . S
C1019 C1020 1.355 . S
C1019 C1021 1.415 . S
C1020 C1019 1.355 . S
C1020 C1022 1.419 . S
C1021 C1016 1.425 . S
C1021 C1018 1.409 . S
C1021 C1019 1.415 . S
C1022 H1012 0.930 1_565 S
C1022 C1020 1.419 . S
C1022 C1023 1.362 . S
C1023 H1013 0.930 1_565 S
C1023 C1016 1.409 . S
C1023 C1022 1.362 . S
H1024 C1030 0.930 . S
H1025 C1033 0.930 . S
H1026 C1034 0.930 . S
H1027 C1035 0.930 . S
H1028 C1038 0.930 . S
H1029 C1039 0.930 . S
C1030 H1024 0.930 . S
C1030 C1031 1.355 . S
C1030 C1032 1.415 . S
C1031 C1030 1.355 . S
C1031 C1033 1.419 . S
C1032 C1030 1.415 . S
C1032 C1037 1.425 . S
C1032 C1039 1.409 . S
C1033 H1025 0.930 . S
C1033 C1031 1.419 . S
C1033 C1034 1.362 . S
C1034 H1026 0.930 . S
C1034 C1033 1.362 . S
C1034 C1037 1.409 . S
C1035 H1027 0.930 . S
C1035 C1036 1.355 . S
C1035 C1037 1.415 . S
C1036 C1035 1.355 . S
C1036 C1038 1.419 . S
C1037 C1032 1.425 . S
C1037 C1034 1.409 . S
C1037 C1035 1.415 . S
C1038 H1028 0.930 . S
C1038 C1036 1.419 . S
C1038 C1039 1.362 . S
C1039 H1029 0.930 . S
C1039 C1032 1.409 . S
C1039 C1038 1.362 . S
H1040 C1046 0.930 . S
H1041 C1049 0.930 . S
H1042 C1050 0.930 . S
H1043 C1051 0.930 . S
H1044 C1054 0.930 . S
H1045 C1055 0.930 . S
C1046 H1040 0.930 . S
C1046 C1047 1.355 . S
C1046 C1048 1.415 . S
C1047 C1046 1.355 . S
C1047 C1049 1.419 . S
C1048 C1046 1.415 . S
C1048 C1053 1.425 . S
C1048 C1055 1.409 . S
C1049 H1041 0.930 . S
C1049 C1047 1.419 . S
C1049 C1050 1.362 . S
C1050 H1042 0.930 . S
C1050 C1049 1.362 . S
C1050 C1053 1.409 . S
C1051 H1043 0.930 . S
C1051 C1052 1.355 . S
C1051 C1053 1.415 . S
C1052 C1051 1.355 . S
C1052 C1054 1.419 . S
C1053 C1048 1.425 . S
C1053 C1050 1.409 . S
C1053 C1051 1.415 . S
C1054 H1044 0.930 . S
C1054 C1052 1.419 . S
C1054 C1055 1.362 . S
C1055 H1045 0.930 . S
C1055 C1048 1.409 . S
C1055 C1054 1.362 . S
H1056 C1062 0.930 . S
H1057 C1065 0.930 . S
H1058 C1066 0.930 . S
H1059 C1067 0.930 . S
H1060 C1070 0.930 . S
H1061 C1071 0.930 . S
C1062 H1056 0.930 . S
C1062 C1063 1.355 . S
C1062 C1064 1.415 . S
C1063 C1062 1.355 . S
C1063 C1065 1.419 . S
C1064 C1062 1.415 . S
C1064 C1069 1.425 . S
C1064 C1071 1.409 . S
C1065 H1057 0.930 . S
C1065 C1063 1.419 . S
C1065 C1066 1.362 . S
C1066 H1058 0.930 . S
C1066 C1065 1.362 . S
C1066 C1069 1.409 . S
C1067 H1059 0.930 . S
C1067 C1068 1.355 . S
C1067 C1069 1.415 . S
C1068 C1067 1.355 . S
C1068 C1070 1.419 . S
C1069 C1064 1.425 . S
C1069 C1066 1.409 . S
C1069 C1067 1.415 . S
C1070 H1060 0.930 . S
C1070 C1068 1.419 . S
C1070 C1071 1.362 . S
C1071 H1061 0.930 . S
C1071 C1064 1.409 . S
C1071 C1070 1.362 . S
H1072 C1078 0.930 . S
H1073 C1081 0.930 . S
H1074 C1082 0.930 . S
H1075 C1083 0.930 . S
H1076 C1086 0.930 . S
H1077 C1087 0.930 . S
C1078 H1072 0.930 . S
C1078 C1079 1.355 . S
C1078 C1080 1.415 . S
C1079 C1078 1.355 . S
C1079 C1081 1.419 . S
C1080 C1078 1.415 . S
C1080 C1085 1.425 . S
C1080 C1087 1.409 . S
C1081 H1073 0.930 . S
C1081 C1079 1.419 . S
C1081 C1082 1.362 . S
C1082 H1074 0.930 . S
C1082 C1081 1.362 . S
C1082 C1085 1.409 . S
C1083 H1075 0.930 . S
C1083 C1084 1.355 . S
C1083 C1085 1.415 . S
C1084 C1083 1.355 . S
C1084 C1086 1.419 . S
C1085 C1080 1.425 . S
C1085 C1082 1.409 . S
C1085 C1083 1.415 . S
C1086 H1076 0.930 . S
C1086 C1084 1.419 . S
C1086 C1087 1.362 . S
C1087 H1077 0.930 . S
C1087 C1080 1.409 . S
C1087 C1086 1.362 . S
H1088 C1094 0.930 . S
H1089 C1097 0.930 . S
H1090 C1098 0.930 . S
H1091 C1099 0.930 . S
H1092 C1102 0.930 . S
H1093 C1103 0.930 . S
C1094 H1088 0.930 . S
C1094 C1095 1.355 . S
C1094 C1096 1.415 . S
C1095 C1094 1.355 . S
C1095 C1097 1.419 . S
C1096 C1094 1.415 . S
C1096 C1101 1.425 . S
C1096 C1103 1.409 . S
C1097 H1089 0.930 . S
C1097 C1095 1.419 . S
C1097 C1098 1.362 . S
C1098 H1090 0.930 . S
C1098 C1097 1.362 . S
C1098 C1101 1.409 . S
C1099 H1091 0.930 . S
C1099 C1100 1.355 . S
C1099 C1101 1.415 . S
C1100 C1099 1.355 . S
C1100 C1102 1.419 . S
C1101 C1096 1.425 . S
C1101 C1098 1.409 . S
C1101 C1099 1.415 . S
C1102 H1092 0.930 . S
C1102 C1100 1.419 . S
C1102 C1103 1.362 . S
C1103 H1093 0.930 . S
C1103 C1096 1.409 . S
C1103 C1102 1.362 . S
H1104 C1110 0.930 . S
H1105 C1113 0.930 . S
H1106 C1114 0.930 . S
H1107 C1115 0.930 . S
H1108 C1118 0.930 . S
H1109 C1119 0.930 . S
C1110 H1104 0.930 . S
C1110 C1111 1.355 . S
C1110 C1112 1.415 . S
C1111 C1110 1.355 . S
C1111 C1113 1.419 . S
C1112 C1110 1.415 . S
C1112 C1117 1.425 . S
C1112 C1119 1.409 . S
C1113 H1105 0.930 . S
C1113 C1111 1.419 . S
C1113 C1114 1.362 . S
C1114 H1106 0.930 . S
C1114 C1113 1.362 . S
C1114 C1117 1.409 . S
C1115 H1107 0.930 . S
C1115 C1116 1.355 . S
C1115 C1117 1.415 . S
C1116 C1115 1.355 . S
C1116 C1118 1.419 . S
C1117 C1112 1.425 . S
C1117 C1114 1.409 . S
C1117 C1115 1.415 . S
C1118 H1108 0.930 . S
C1118 C1116 1.419 . S
C1118 C1119 1.362 . S
C1119 H1109 0.930 . S
C1119 C1112 1.409 . S
C1119 C1118 1.362 . S
H1120 C1126 0.930 . S
H1121 C1129 0.930 . S
H1122 C1130 0.930 . S
H1123 C1131 0.930 . S
H1124 C1134 0.930 . S
H1125 C1135 0.930 . S
C1126 H1120 0.930 . S
C1126 C1127 1.355 . S
C1126 C1128 1.415 . S
C1127 C1126 1.355 . S
C1127 C1129 1.419 . S
C1128 C1126 1.415 . S
C1128 C1133 1.425 . S
C1128 C1135 1.409 . S
C1129 H1121 0.930 . S
C1129 C1127 1.419 . S
C1129 C1130 1.362 . S
C1130 H1122 0.930 . S
C1130 C1129 1.362 . S
C1130 C1133 1.409 . S
C1131 H1123 0.930 . S
C1131 C1132 1.355 . S
C1131 C1133 1.415 . S
C1132 C1131 1.355 . S
C1132 C1134 1.419 . S
C1133 C1128 1.425 . S
C1133 C1130 1.409 . S
C1133 C1131 1.415 . S
C1134 H1124 0.930 . S
C1134 C1132 1.419 . S
C1134 C1135 1.362 . S
C1135 H1125 0.930 . S
C1135 C1128 1.409 . S
C1135 C1134 1.362 . S
H1136 C1142 0.930 . S
H1137 C1145 0.930 . S
H1138 C1146 0.930 . S
H1139 C1147 0.930 . S
H1140 C1150 0.930 . S
H1141 C1151 0.930 . S
C1142 H1136 0.930 . S
C1142 C1143 1.355 . S
C1142 C1144 1.415 . S
C1143 C1142 1.355 . S
C1143 C1145 1.419 . S
C1144 C1142 1.415 . S
C1144 C1149 1.425 . S
C1144 C1151 1.409 . S
C1145 H1137 0.930 . S
C1145 C1143 1.419 . S
C1145 C1146 1.362 . S
C1146 H1138 0.930 . S
C1146 C1145 1.362 . S
C1146 C1149 1.409 . S
C1147 H1139 0.930 . S
C1147 C1148 1.355 . S
C1147 C1149 1.415 . S
C1148 C1147 1.355 . S
C1148 C1150 1.419 . S
C1149 C1144 1.425 . S
C1149 C1146 1.409 . S
C1149 C1147 1.415 . S
C1150 H1140 0.930 . S
C1150 C1148 1.419 . S
C1150 C1151 1.362 . S
C1151 H1141 0.930 . S
C1151 C1144 1.409 . S
C1151 C1150 1.362 . S
H1152 C1158 0.930 . S
H1153 C1161 0.930 . S
H1154 C1162 0.930 . S
H1155 C1163 0.930 . S
H1156 C1166 0.930 . S
H1157 C1167 0.930 . S
C1158 H1152 0.930 . S
C1158 C1159 1.355 . S
C1158 C1160 1.415 . S
C1159 C1158 1.355 . S
C1159 C1161 1.419 . S
C1160 C1158 1.415 . S
C1160 C1165 1.425 . S
C1160 C1167 1.409 . S
C1161 H1153 0.930 . S
C1161 C1159 1.419 . S
C1161 C1162 1.362 . S
C1162 H1154 0.930 . S
C1162 C1161 1.362 . S
C1162 C1165 1.409 . S
C1163 H1155 0.930 . S
C1163 C1164 1.355 . S
C1163 C1165 1.415 . S
C1164 C1163 1.355 . S
C1164 C1166 1.419 . S
C1165 C1160 1.425 . S
C1165 C1162 1.409 . S
C1165 C1163 1.415 . S
C1166 H1156 0.930 . S
C1166 C1164 1.419 . S
C1166 C1167 1.362 . S
C1167 H1157 0.930 . S
C1167 C1160 1.409 . S
C1167 C1166 1.362 . S
C535 N146 1.534 1_655 S
C540 N14 1.545 1_655 S
C551 N179 1.534 1_565 S
C556 N47 1.545 1_565 S
C567 N80 1.531 . S
C572 N212 1.569 . S
C583 N245 1.574 . S
C588 N113 1.533 . S
C599 N410 1.594 1_455 S
C604 N278 1.574 1_455 S
C615 N311 1.534 1_545 S
C620 N443 1.545 1_545 S
C631 N344 1.593 . S
C636 N476 1.554 . S
C647 N377 1.590 . S
C652 N509 1.583 . S
C663 C8 1.791 . S
C668 C424 1.919 . S
C679 C41 1.777 . S
C684 C457 1.912 . S
C695 C490 1.963 . S
C700 C74 1.857 . S
C711 C107 1.781 . S
C716 C523 1.914 . S
C727 C292 1.968 . S
C732 C140 1.856 . S
C743 C325 1.913 . S
C748 C173 1.774 . S
C759 C206 1.865 . S
C764 C358 1.972 . S
C775 C391 1.972 . S
C780 C239 1.865 . S
C791 C272 1.860 . S
C796 C160 1.966 . S
C807 C305 1.775 . S
C812 C193 1.914 . S
C823 C226 1.911 . S
C828 C338 1.775 . S
C839 C371 1.857 . S
C844 C259 1.969 . S
C855 C404 1.850 . S
C860 C28 1.958 . S
C871 C437 1.847 . S
C876 C61 1.956 . S
C887 C470 1.774 . S
C892 C94 1.912 . S
C903 C127 1.912 . S
C908 C503 1.774 . S
C919 N236 1.825 . S
C924 N5 1.814 . S
C935 N38 1.820 . S
C940 N137 1.818 . S
C951 N170 1.819 . S
C956 N71 1.826 . S
C967 N203 1.820 . S
C972 N104 1.825 . S
C983 N269 1.827 . S
C988 N500 1.818 . S
C999 N401 1.812 . S
C1004 N302 1.830 . S
C1015 N335 1.819 . S
C1020 N434 1.826 . S
C1031 N467 1.827 . S
C1036 N368 1.818 . S
C1047 C83 0.801 . S
C1052 C17 0.835 . S
C1063 C116 0.807 . S
C1068 C50 0.769 . S
C1079 C149 0.863 . S
C1084 C215 0.863 . S
C1095 C248 0.844 . S
C1100 C182 0.861 . S
C1111 C281 0.718 . S
C1116 C347 0.752 . S
C1127 C380 0.812 . S
C1132 C314 0.775 . S
C1143 C413 0.860 . S
C1148 C479 0.841 . S
C1159 C446 0.756 . S
C1164 C512 0.795 . S
