# Generated by pormake.
# Topology whr, (6)-cn, num edge types: 1
# Building blocks:
#     Node 0, Type 0, BuildingBlock: IZENUY_clean_sbu_0, # of connection points: 6
#     Node 1, Type 0, BuildingBlock: IZENUY_clean_sbu_0, # of connection points: 6
#     Node 2, Type 0, BuildingBlock: IZENUY_clean_sbu_0, # of connection points: 6
#     Node 3, Type 0, BuildingBlock: IZENUY_clean_sbu_0, # of connection points: 6
#     Node 4, Type 0, BuildingBlock: IZENUY_clean_sbu_0, # of connection points: 6
#     Node 5, Type 0, BuildingBlock: IZENUY_clean_sbu_0, # of connection points: 6
#     Node 6, Type 0, BuildingBlock: IZENUY_clean_sbu_0, # of connection points: 6
#     Node 7, Type 0, BuildingBlock: IZENUY_clean_sbu_0, # of connection points: 6
#     Node 8, Type 0, BuildingBlock: IZENUY_clean_sbu_0, # of connection points: 6
#     Node 9, Type 0, BuildingBlock: IZENUY_clean_sbu_0, # of connection points: 6
#     Node 10, Type 0, BuildingBlock: IZENUY_clean_sbu_0, # of connection points: 6
#     Node 11, Type 0, BuildingBlock: IZENUY_clean_sbu_0, # of connection points: 6
#     Node 12, Type 0, BuildingBlock: IZENUY_clean_sbu_0, # of connection points: 6
#     Node 13, Type 0, BuildingBlock: IZENUY_clean_sbu_0, # of connection points: 6
#     Node 14, Type 0, BuildingBlock: IZENUY_clean_sbu_0, # of connection points: 6
#     Node 15, Type 0, BuildingBlock: IZENUY_clean_sbu_0, # of connection points: 6
#     Edge 16, Type (0, 0), None
#     Edge 17, Type (0, 0), None
#     Edge 18, Type (0, 0), None
#     Edge 19, Type (0, 0), None
#     Edge 20, Type (0, 0), None
#     Edge 21, Type (0, 0), None
#     Edge 22, Type (0, 0), None
#     Edge 23, Type (0, 0), None
#     Edge 24, Type (0, 0), None
#     Edge 25, Type (0, 0), None
#     Edge 26, Type (0, 0), None
#     Edge 27, Type (0, 0), None
#     Edge 28, Type (0, 0), None
#     Edge 29, Type (0, 0), None
#     Edge 30, Type (0, 0), None
#     Edge 31, Type (0, 0), None
#     Edge 32, Type (0, 0), None
#     Edge 33, Type (0, 0), None
#     Edge 34, Type (0, 0), None
#     Edge 35, Type (0, 0), None
#     Edge 36, Type (0, 0), None
#     Edge 37, Type (0, 0), None
#     Edge 38, Type (0, 0), None
#     Edge 39, Type (0, 0), None
#     Edge 40, Type (0, 0), None
#     Edge 41, Type (0, 0), None
#     Edge 42, Type (0, 0), None
#     Edge 43, Type (0, 0), None
#     Edge 44, Type (0, 0), None
#     Edge 45, Type (0, 0), None
#     Edge 46, Type (0, 0), None
#     Edge 47, Type (0, 0), None
#     Edge 48, Type (0, 0), None
#     Edge 49, Type (0, 0), None
#     Edge 50, Type (0, 0), None
#     Edge 51, Type (0, 0), None
#     Edge 52, Type (0, 0), None
#     Edge 53, Type (0, 0), None
#     Edge 54, Type (0, 0), None
#     Edge 55, Type (0, 0), None
#     Edge 56, Type (0, 0), None
#     Edge 57, Type (0, 0), None
#     Edge 58, Type (0, 0), None
#     Edge 59, Type (0, 0), None
#     Edge 60, Type (0, 0), None
#     Edge 61, Type (0, 0), None
#     Edge 62, Type (0, 0), None
#     Edge 63, Type (0, 0), None
# Relax obj value: 0.340
# Max RMSD: 0.260
# Mean RMSD: 0.260
data_MOF--net-whr--node1-IZENUY_clean_sbu_0--edge1-none
_symmetry_space_group_name_H-M    P1
_symmetry_Int_Tables_number       1
_symmetry_cell_setting            triclinic
loop_
_symmetry_equiv_pos_as_xyz
'x, y, z'
_cell_length_a     21.394411
_cell_length_b     21.395229
_cell_length_c     13.023034
_cell_angle_alpha  90.000083
_cell_angle_beta   89.999904
_cell_angle_gamma 90.000341
loop_
_atom_site_label
_atom_site_type_symbol
_atom_site_fract_x
_atom_site_fract_y
_atom_site_fract_z
_atom_type_partial_charge
Fe0 Fe 0.21497 0.09373 0.18044 0.0
Fe1 Fe 0.33398 1.0428 0.0807 0.0
O2 O 0.28009 0.10539 0.10056 0.0
Fe3 Fe 0.29423 0.17959 0.04751 0.0
O4 O 0.2198 0.18439 0.98396 0.0
O5 O 0.16472 0.1514 0.11577 0.0
O6 O 0.18453 1.03622 0.09271 0.0
C7 C 0.21402 0.98683 0.07276 0.0
C8 C 0.24875 0.20816 0.25111 0.0
O9 O 0.27225 0.98188 0.09234 0.0
C10 C 0.41345 0.15054 0.07005 0.0
O11 O 0.25229 1.03371 0.26038 0.0
O12 O 0.35174 1.03981 0.21785 0.0
O13 O 0.26253 0.22463 0.15967 0.0
O14 O 0.24359 0.15089 0.27185 0.0
C15 C 0.32255 0.089 0.88883 0.0
O16 O 0.40481 0.09269 0.05401 0.0
O17 O 0.36913 0.17969 0.11044 0.0
C18 C 0.30932 1.02484 0.2813 0.0
O19 O 0.31777 1.04237 0.9468 0.0
O20 O 0.32354 0.145 0.92385 0.0
C21 C 0.16864 0.17914 1.03023 0.0
Fe22 Fe 1.04282 0.76774 0.98503 0.0
Fe23 Fe 0.17962 0.80748 1.01822 0.0
O24 O 0.10541 0.82163 0.96516 0.0
Fe25 Fe 0.09376 0.88675 0.88528 0.0
O26 O 1.03625 0.91719 0.97302 0.0
O27 O 0.98189 0.82947 0.97339 0.0
O28 O 1.04239 0.78395 0.11893 0.0
C29 C 0.08903 0.77917 0.1769 0.0
C30 C 1.02486 0.79241 0.78443 0.0
O31 O 0.14503 0.77818 0.14188 0.0
C32 C 0.20819 0.85297 0.81462 0.0
O33 O 0.09271 0.69691 1.01171 0.0
O34 O 0.17971 0.73259 0.95529 0.0
O35 O 1.03373 0.84943 0.80535 0.0
O36 O 1.03983 0.74998 0.84788 0.0
C37 C 0.17915 0.93308 0.03551 0.0
O38 O 0.22466 0.83919 0.90606 0.0
O39 O 0.15091 0.85812 0.79388 0.0
C40 C 0.15056 0.68827 0.99567 0.0
O41 O 0.18442 0.88192 0.08178 0.0
O42 O 0.15143 0.937 0.94996 0.0
C43 C 0.98686 0.8877 0.99297 0.0
Fe44 Fe 0.8075 0.9221 0.0475 0.0
Fe45 Fe 0.88677 1.00796 0.18044 0.0
O46 O 0.82165 0.99631 0.10056 0.0
Fe47 Fe 0.76776 0.05889 0.08069 0.0
O48 O 0.78397 0.05932 0.9468 0.0
O49 O 0.77819 0.95669 0.92385 0.0
O50 O 0.88194 0.9173 0.98395 0.0
C51 C 0.9331 0.92257 1.03021 0.0
C52 C 0.68829 0.95116 0.07005 0.0
O53 O 0.93702 0.95029 0.11577 0.0
C54 C 0.79242 0.07685 0.2813 0.0
O55 O 0.83921 0.87706 0.15967 0.0
O56 O 0.85814 0.95081 0.27185 0.0
O57 O 0.69692 1.009 0.05401 0.0
O58 O 0.73261 0.922 0.11044 0.0
C59 C 0.88772 0.11486 0.07276 0.0
O60 O 0.84945 0.06798 0.26038 0.0
O61 O 0.74999 0.06188 0.21784 0.0
C62 C 0.85299 0.89353 0.2511 0.0
O63 O 0.91721 0.06547 0.0927 0.0
O64 O 0.82949 0.11982 0.09234 0.0
C65 C 0.77919 1.01269 0.88882 0.0
Fe66 Fe 1.00798 0.21494 0.88528 0.0
Fe67 Fe 0.05892 0.33395 0.98503 0.0
O68 O 0.99633 0.28006 0.96516 0.0
Fe69 Fe 0.92212 0.29421 1.01822 0.0
O70 O 0.91731 0.21977 0.08178 0.0
O71 O 0.95031 0.16469 0.94996 0.0
O72 O 0.06549 0.1845 0.97302 0.0
C73 C 0.11488 0.214 0.99298 0.0
C74 C 0.89355 0.24872 0.81462 0.0
O75 O 0.11984 0.27223 0.97339 0.0
C76 C 0.95118 0.41342 0.99567 0.0
O77 O 0.06801 0.25226 0.80535 0.0
O78 O 0.06191 0.35172 0.84788 0.0
O79 O 0.87708 0.2625 0.90606 0.0
O80 O 0.95083 0.24357 0.79388 0.0
C81 C 1.01271 0.32252 0.1769 0.0
O82 O 1.00902 0.40478 1.01171 0.0
O83 O 0.92202 0.3691 0.95529 0.0
C84 C 0.07688 0.30929 0.78442 0.0
O85 O 0.05935 0.31775 0.11893 0.0
O86 O 0.95671 0.32352 0.14188 0.0
C87 C 0.92259 0.16861 0.03551 0.0
Fe88 Fe 0.88678 0.09373 0.68044 0.0
Fe89 Fe 0.76775 1.0428 0.5807 0.0
O90 O 0.82165 0.10539 0.60057 0.0
Fe91 Fe 0.80751 0.1796 0.5475 0.0
O92 O 0.88195 0.18439 0.48396 0.0
O93 O 0.93702 0.1514 0.61579 0.0
O94 O 0.91721 1.03623 0.59267 0.0
C95 C 0.88771 0.98684 0.57272 0.0
C96 C 0.85295 0.20812 0.75111 0.0
O97 O 0.82948 0.98188 0.59232 0.0
C98 C 0.68829 0.15055 0.57004 0.0
O99 O 0.84946 1.03369 0.76035 0.0
O100 O 0.75 1.03981 0.71786 0.0
O101 O 0.83921 0.22463 0.65968 0.0
O102 O 0.85816 0.15086 0.77187 0.0
C103 C 0.77915 0.089 0.38884 0.0
O104 O 0.69692 0.0927 0.55403 0.0
O105 O 0.73261 0.17971 0.61041 0.0
C106 C 0.79244 1.02482 0.78128 0.0
O107 O 0.78395 1.04237 0.4468 0.0
O108 O 0.77821 0.14501 0.42383 0.0
C109 C 0.93311 0.17914 0.53025 0.0
Fe110 Fe 0.09375 0.21494 0.38529 0.0
Fe111 Fe 1.04282 0.33396 0.48502 0.0
O112 O 0.10541 0.28006 0.46516 0.0
Fe113 Fe 0.17962 0.2942 0.51823 0.0
O114 O 0.18442 0.21976 0.58176 0.0
O115 O 0.15143 0.16469 0.44993 0.0
O116 O 1.03625 0.1845 0.47305 0.0
C117 C 0.98687 0.214 0.49301 0.0
C118 C 0.20815 0.24876 0.31462 0.0
O119 O 0.9819 0.27223 0.4734 0.0
C120 C 0.15057 0.41342 0.49568 0.0
O121 O 1.03371 0.25225 0.30537 0.0
O122 O 1.03983 0.35171 0.34786 0.0
O123 O 0.22466 0.26251 0.40605 0.0
O124 O 0.15089 0.24355 0.29386 0.0
C125 C 0.08903 0.32256 0.67689 0.0
O126 O 0.09272 0.40479 0.51169 0.0
O127 O 0.17973 0.3691 0.45532 0.0
C128 C 1.02484 0.30927 0.28444 0.0
O129 O 1.04239 0.31776 0.61892 0.0
O130 O 0.14503 0.3235 0.6419 0.0
C131 C 0.17917 0.16861 0.53548 0.0
Fe132 Fe 0.21496 1.00797 0.68044 0.0
Fe133 Fe 0.33399 0.05889 0.58071 0.0
O134 O 0.28009 0.99631 0.60057 0.0
Fe135 Fe 0.29422 0.9221 0.5475 0.0
O136 O 0.21978 0.9173 0.48396 0.0
O137 O 0.16471 0.95029 0.61579 0.0
O138 O 0.18453 0.06547 0.59267 0.0
C139 C 0.21403 0.11485 0.57271 0.0
C140 C 0.24879 0.89357 0.75111 0.0
O141 O 0.27226 0.11981 0.59233 0.0
C142 C 0.41344 0.95114 0.57004 0.0
O143 O 0.25227 0.068 0.76036 0.0
O144 O 0.35174 0.06188 0.71786 0.0
O145 O 0.26253 0.87706 0.65967 0.0
O146 O 0.24357 0.95083 0.77187 0.0
C147 C 0.32259 1.01269 0.38884 0.0
O148 O 0.40482 1.00899 0.55404 0.0
O149 O 0.36912 0.92199 0.61041 0.0
C150 C 0.3093 0.07687 0.78128 0.0
O151 O 0.31779 0.05933 0.44681 0.0
O152 O 0.32352 0.95668 0.42383 0.0
C153 C 0.16863 0.92255 0.53025 0.0
Fe154 Fe 1.00799 0.88676 0.38529 0.0
Fe155 Fe 0.05891 0.76774 0.48502 0.0
O156 O 0.99632 0.82163 0.46516 0.0
Fe157 Fe 0.92211 0.80749 0.51823 0.0
O158 O 0.91731 0.88193 0.58177 0.0
O159 O 0.9503 0.937 0.44994 0.0
O160 O 0.06548 0.91719 0.47306 0.0
C161 C 0.11487 0.88769 0.49302 0.0
C162 C 0.89358 0.85293 0.31462 0.0
O163 O 0.11983 0.82947 0.4734 0.0
C164 C 0.95117 0.68828 0.49568 0.0
O165 O 0.06802 0.84945 0.30537 0.0
O166 O 0.0619 0.74999 0.34787 0.0
O167 O 0.87707 0.83919 0.40605 0.0
O168 O 0.95085 0.85814 0.29386 0.0
C169 C 1.01271 0.77913 0.67689 0.0
O170 O 1.00902 0.69691 0.51169 0.0
O171 O 0.92201 0.73259 0.45532 0.0
C172 C 0.07689 0.79242 0.28444 0.0
O173 O 0.05935 0.78393 0.61892 0.0
O174 O 0.9567 0.77819 0.6419 0.0
C175 C 0.92258 0.93309 0.53549 0.0
Fe176 Fe 0.83398 0.54281 0.58068 0.0
Fe177 Fe 0.79421 0.6796 0.54748 0.0
O178 O 0.78009 0.6054 0.60056 0.0
Fe179 Fe 0.71497 0.59374 0.68045 0.0
O180 O 0.68452 0.53624 0.59272 0.0
O181 O 0.77224 0.48189 0.59232 0.0
O182 O 0.81777 0.54238 0.44678 0.0
C183 C 0.82255 0.58902 0.38881 0.0
C184 C 0.80932 0.52483 0.78129 0.0
O185 O 0.82354 0.64502 0.42383 0.0
C186 C 0.74875 0.70817 0.75109 0.0
O187 O 0.90481 0.5927 0.55402 0.0
O188 O 0.86911 0.67976 0.61039 0.0
O189 O 0.75229 0.53371 0.76037 0.0
O190 O 0.85174 0.5398 0.71783 0.0
C191 C 0.66862 0.67913 0.53023 0.0
O192 O 0.7625 0.72464 0.65965 0.0
O193 O 0.74361 0.65089 0.77185 0.0
C194 C 0.91342 0.65054 0.57009 0.0
O195 O 0.71977 0.68436 0.48394 0.0
O196 O 0.66471 0.65142 0.6158 0.0
C197 C 0.71401 0.48685 0.57275 0.0
Fe198 Fe 0.54283 0.26775 0.48505 0.0
Fe199 Fe 0.67963 0.30751 0.51825 0.0
O200 O 0.60542 0.32163 0.46517 0.0
Fe201 Fe 0.59377 0.38675 0.38528 0.0
O202 O 0.53626 0.4172 0.47301 0.0
O203 O 0.48191 0.32948 0.47341 0.0
O204 O 0.54241 0.28396 0.61895 0.0
C205 C 0.58904 0.27917 0.67692 0.0
C206 C 0.52485 0.29241 0.28444 0.0
O207 O 0.64504 0.27818 0.6419 0.0
C208 C 0.70819 0.35297 0.31463 0.0
O209 O 0.59272 0.19692 0.51171 0.0
O210 O 0.67978 0.23261 0.45534 0.0
O211 O 0.53373 0.34943 0.30536 0.0
O212 O 0.53982 0.24998 0.3479 0.0
C213 C 0.67914 0.4331 0.53551 0.0
O214 O 0.72467 0.33922 0.40608 0.0
O215 O 0.65092 0.35811 0.29388 0.0
C216 C 0.65056 0.1883 0.49564 0.0
O217 O 0.68439 0.38194 0.5818 0.0
O218 O 0.65144 0.437 0.44993 0.0
C219 C 0.48687 0.38771 0.49298 0.0
Fe220 Fe 0.26776 0.55889 0.58068 0.0
Fe221 Fe 0.30752 0.42209 0.54748 0.0
O222 O 0.32165 0.4963 0.60056 0.0
Fe223 Fe 0.38677 0.50795 0.68045 0.0
O224 O 0.41722 0.56545 0.59272 0.0
O225 O 0.3295 0.61981 0.59231 0.0
O226 O 0.28397 0.55931 0.44678 0.0
C227 C 0.27919 0.51267 0.38881 0.0
C228 C 0.29242 0.57686 0.78129 0.0
O229 O 0.2782 0.45667 0.42383 0.0
C230 C 0.35299 0.39352 0.75109 0.0
O231 O 0.19693 0.50899 0.55402 0.0
O232 O 0.23262 0.42194 0.61039 0.0
O233 O 0.34945 0.56798 0.76037 0.0
O234 O 0.25 0.56189 0.71783 0.0
C235 C 0.43312 0.42258 0.53021 0.0
O236 O 0.33924 0.37705 0.65964 0.0
O237 O 0.35813 0.4508 0.77185 0.0
C238 C 0.18832 0.45115 0.57009 0.0
O239 O 0.38196 0.41733 0.48393 0.0
O240 O 0.43702 0.45028 0.6158 0.0
C241 C 0.38773 0.61484 0.57275 0.0
Fe242 Fe 0.55891 0.83395 0.48504 0.0
Fe243 Fe 0.42211 0.79419 0.51825 0.0
O244 O 0.49632 0.78006 0.46517 0.0
Fe245 Fe 0.50797 0.71495 0.38528 0.0
O246 O 0.56548 0.6845 0.47301 0.0
O247 O 0.61983 0.77222 0.47341 0.0
O248 O 0.55933 0.81774 0.61894 0.0
C249 C 0.51269 0.82252 0.67692 0.0
C250 C 0.57688 0.80929 0.28444 0.0
O251 O 0.45669 0.82351 0.6419 0.0
C252 C 0.39354 0.74872 0.31463 0.0
O253 O 0.50902 0.90478 0.51171 0.0
O254 O 0.42195 0.86909 0.45534 0.0
O255 O 0.568 0.75227 0.30536 0.0
O256 O 0.56191 0.85171 0.3479 0.0
C257 C 0.4226 0.6686 0.53551 0.0
O258 O 0.37707 0.76247 0.40608 0.0
O259 O 0.45082 0.74359 0.29388 0.0
C260 C 0.45117 0.91339 0.49564 0.0
O261 O 0.41734 0.71975 0.5818 0.0
O262 O 0.4503 0.66469 0.44993 0.0
C263 C 0.61486 0.71399 0.49299 0.0
Fe264 Fe 0.38677 0.59373 0.18044 0.0
Fe265 Fe 0.26775 0.54281 0.08069 0.0
O266 O 0.32165 0.6054 0.10056 0.0
Fe267 Fe 0.30753 0.67961 0.04747 0.0
O268 O 0.38198 0.68436 0.98394 0.0
O269 O 0.43702 0.65142 0.11582 0.0
O270 O 0.41722 0.53624 0.09268 0.0
C271 C 0.38772 0.48686 0.07271 0.0
C272 C 0.35295 0.70813 0.2511 0.0
O273 O 0.32949 0.48189 0.0923 0.0
C274 C 0.18832 0.65055 0.07008 0.0
O275 O 0.34946 0.53369 0.26035 0.0
O276 O 0.25 0.5398 0.21785 0.0
O277 O 0.33923 0.72464 0.15965 0.0
O278 O 0.35814 0.65086 0.27187 0.0
C279 C 0.27915 0.58902 0.88882 0.0
O280 O 0.19692 0.5927 0.05404 0.0
O281 O 0.23262 0.67977 0.11037 0.0
C282 C 0.29244 0.52481 0.28127 0.0
O283 O 0.28395 0.54238 0.94679 0.0
O284 O 0.27822 0.64502 0.92381 0.0
C285 C 0.43312 0.67913 1.03025 0.0
Fe286 Fe 0.59376 0.71494 0.88528 0.0
Fe287 Fe 0.54283 0.83395 0.98503 0.0
O288 O 0.60542 0.78006 0.96516 0.0
Fe289 Fe 0.67963 0.79418 1.01826 0.0
O290 O 0.68439 0.71974 0.08178 0.0
O291 O 0.65144 0.66469 0.94991 0.0
O292 O 0.53626 0.6845 0.97305 0.0
C293 C 0.48688 0.71399 0.99303 0.0
C294 C 0.70816 0.74877 0.81463 0.0
O295 O 0.48191 0.77222 0.97342 0.0
C296 C 0.65057 0.91339 0.99565 0.0
O297 O 0.53371 0.75225 0.80538 0.0
O298 O 0.53983 0.85171 0.84788 0.0
O299 O 0.72467 0.76248 0.90607 0.0
O300 O 0.65089 0.74357 0.79386 0.0
C301 C 0.58904 0.82256 0.17691 0.0
O302 O 0.59272 0.90479 1.01168 0.0
O303 O 0.6798 0.86909 0.95536 0.0
C304 C 0.52483 0.80927 0.78446 0.0
O305 O 0.5424 0.81776 0.11894 0.0
O306 O 0.64505 0.82349 0.14192 0.0
C307 C 0.67916 0.66859 0.03547 0.0
Fe308 Fe 0.71496 0.50796 0.18045 0.0
Fe309 Fe 0.83398 0.55889 0.08069 0.0
O310 O 0.78009 0.4963 0.10056 0.0
Fe311 Fe 0.7942 0.42209 0.04747 0.0
O312 O 0.71976 0.41733 0.98394 0.0
O313 O 0.66471 0.45028 0.11582 0.0
O314 O 0.68452 0.56546 0.09268 0.0
C315 C 0.71402 0.61484 0.0727 0.0
C316 C 0.74879 0.39356 0.2511 0.0
O317 O 0.77225 0.6198 0.0923 0.0
C318 C 0.91342 0.45114 0.07008 0.0
O319 O 0.75227 0.568 0.26035 0.0
O320 O 0.85174 0.56189 0.21785 0.0
O321 O 0.7625 0.37706 0.15965 0.0
O322 O 0.74359 0.45083 0.27187 0.0
C323 C 0.82259 0.51268 0.88882 0.0
O324 O 0.90482 0.50899 0.05404 0.0
O325 O 0.86911 0.42192 0.11037 0.0
C326 C 0.8093 0.57688 0.28127 0.0
O327 O 0.81779 0.55931 0.94679 0.0
O328 O 0.82352 0.45667 0.92381 0.0
C329 C 0.66861 0.42257 1.03025 0.0
Fe330 Fe 0.55891 0.26774 0.98504 0.0
Fe331 Fe 0.4221 0.30751 1.01826 0.0
O332 O 0.49631 0.32163 0.96516 0.0
Fe333 Fe 0.50798 0.38675 0.88528 0.0
O334 O 0.56547 0.4172 0.97305 0.0
O335 O 0.61983 0.32948 0.97343 0.0
O336 O 0.55933 0.28393 0.11894 0.0
C337 C 0.5127 0.27913 0.17691 0.0
C338 C 0.5769 0.29242 0.78446 0.0
O339 O 0.45669 0.2782 0.14192 0.0
C340 C 0.39358 0.35293 0.81463 0.0
O341 O 0.50902 0.19691 1.01168 0.0
O342 O 0.42194 0.23261 0.95536 0.0
O343 O 0.56802 0.34945 0.80538 0.0
O344 O 0.56191 0.24999 0.84788 0.0
C345 C 0.42259 0.4331 0.03549 0.0
O346 O 0.37707 0.33921 0.90608 0.0
O347 O 0.45085 0.35812 0.79386 0.0
C348 C 0.45117 0.1883 0.99565 0.0
O349 O 0.41734 0.38195 0.08179 0.0
O350 O 0.45029 0.437 0.94991 0.0
C351 C 0.61485 0.3877 0.99303 0.0
loop_
_geom_bond_atom_site_label_1
_geom_bond_atom_site_label_2
_geom_bond_distance
_geom_bond_site_symmetry_2
_ccdc_geom_bond_type
Fe0 O2 1.918 . S
Fe0 O5 1.997 . S
Fe0 O6 2.002 1_545 S
Fe0 O11 1.976 . S
Fe0 O14 1.996 . S
Fe1 O2 1.918 . S
Fe1 O9 1.997 1_545 S
Fe1 O12 1.996 1_545 S
Fe1 O16 1.976 . S
Fe1 O19 2.002 1_554 S
O2 Fe0 1.918 . S
O2 Fe1 1.918 . S
O2 Fe3 1.918 . S
Fe3 O2 1.918 . S
Fe3 O4 2.002 1_554 S
Fe3 O13 1.976 . S
Fe3 O17 1.996 . S
Fe3 O20 1.997 1_554 S
O4 Fe3 2.002 1_556 S
O4 C21 1.295 . S
O5 Fe0 1.997 . S
O5 C21 1.235 1_554 S
O6 Fe0 2.002 1_565 S
O6 C7 1.295 . S
C7 O6 1.295 . S
C7 O9 1.235 . S
C8 O13 1.287 . S
C8 O14 1.255 . S
O9 Fe1 1.997 1_565 S
O9 C7 1.235 . S
C10 O16 1.287 . S
C10 O17 1.255 . S
O11 Fe0 1.976 . S
O11 C18 1.287 1_545 S
O12 Fe1 1.996 1_565 S
O12 C18 1.255 . S
O13 Fe3 1.976 . S
O13 C8 1.287 . S
O14 Fe0 1.996 . S
O14 C8 1.255 . S
C15 O19 1.295 . S
C15 O20 1.235 . S
O16 Fe1 1.976 . S
O16 C10 1.287 . S
O17 Fe3 1.996 . S
O17 C10 1.255 . S
C18 O11 1.287 1_565 S
C18 O12 1.255 . S
O19 Fe1 2.002 1_556 S
O19 C15 1.295 . S
O20 Fe3 1.997 1_556 S
O20 C15 1.235 . S
C21 O4 1.295 . S
C21 O5 1.235 1_556 S
Fe22 O24 1.918 . S
Fe22 O27 1.997 1_455 S
Fe22 O28 2.002 1_556 S
Fe22 O33 1.976 . S
Fe22 O36 1.996 1_455 S
Fe23 O24 1.918 . S
Fe23 O31 1.997 1_556 S
Fe23 O34 1.996 . S
Fe23 O38 1.976 . S
Fe23 O41 2.002 1_556 S
O24 Fe22 1.918 . S
O24 Fe23 1.918 . S
O24 Fe25 1.918 . S
Fe25 O24 1.918 . S
Fe25 O26 2.002 1_455 S
Fe25 O35 1.976 . S
Fe25 O39 1.996 . S
Fe25 O42 1.997 . S
O26 Fe25 2.002 1_655 S
O26 C43 1.295 . S
O27 Fe22 1.997 1_655 S
O27 C43 1.235 . S
O28 Fe22 2.002 1_554 S
O28 C29 1.295 . S
C29 O28 1.295 . S
C29 O31 1.235 . S
C30 O35 1.287 1_655 S
C30 O36 1.255 . S
O31 Fe23 1.997 1_554 S
O31 C29 1.235 . S
C32 O38 1.287 . S
C32 O39 1.255 . S
O33 Fe22 1.976 . S
O33 C40 1.287 . S
O34 Fe23 1.996 . S
O34 C40 1.255 . S
O35 Fe25 1.976 . S
O35 C30 1.287 1_455 S
O36 Fe22 1.996 1_655 S
O36 C30 1.255 . S
C37 O41 1.295 . S
C37 O42 1.235 1_554 S
O38 Fe23 1.976 . S
O38 C32 1.287 . S
O39 Fe25 1.996 . S
O39 C32 1.255 . S
C40 O33 1.287 . S
C40 O34 1.255 . S
O41 Fe23 2.002 1_554 S
O41 C37 1.295 . S
O42 Fe25 1.997 . S
O42 C37 1.235 1_556 S
C43 O26 1.295 . S
C43 O27 1.235 . S
Fe44 O46 1.918 . S
Fe44 O49 1.997 1_554 S
Fe44 O50 2.002 1_554 S
Fe44 O55 1.976 . S
Fe44 O58 1.996 . S
Fe45 O46 1.918 . S
Fe45 O53 1.997 . S
Fe45 O56 1.996 . S
Fe45 O60 1.976 . S
Fe45 O63 2.002 1_565 S
O46 Fe44 1.918 . S
O46 Fe45 1.918 . S
O46 Fe47 1.918 . S
Fe47 O46 1.918 . S
Fe47 O48 2.002 1_554 S
Fe47 O57 1.976 . S
Fe47 O61 1.996 1_565 S
Fe47 O64 1.997 1_565 S
O48 Fe47 2.002 1_556 S
O48 C65 1.295 . S
O49 Fe44 1.997 1_556 S
O49 C65 1.235 . S
O50 Fe44 2.002 1_556 S
O50 C51 1.295 . S
C51 O50 1.295 . S
C51 O53 1.235 1_556 S
C52 O57 1.287 . S
C52 O58 1.255 . S
O53 Fe45 1.997 . S
O53 C51 1.235 1_554 S
C54 O60 1.287 1_545 S
C54 O61 1.255 . S
O55 Fe44 1.976 . S
O55 C62 1.287 . S
O56 Fe45 1.996 . S
O56 C62 1.255 . S
O57 Fe47 1.976 . S
O57 C52 1.287 . S
O58 Fe44 1.996 . S
O58 C52 1.255 . S
C59 O63 1.295 . S
C59 O64 1.235 . S
O60 Fe45 1.976 . S
O60 C54 1.287 1_565 S
O61 Fe47 1.996 1_545 S
O61 C54 1.255 . S
C62 O55 1.287 . S
C62 O56 1.255 . S
O63 Fe45 2.002 1_545 S
O63 C59 1.295 . S
O64 Fe47 1.997 1_545 S
O64 C59 1.235 . S
C65 O48 1.295 . S
C65 O49 1.235 . S
Fe66 O68 1.918 . S
Fe66 O71 1.997 . S
Fe66 O72 2.002 1_655 S
Fe66 O77 1.976 . S
Fe66 O80 1.996 . S
Fe67 O68 1.918 . S
Fe67 O75 1.997 1_655 S
Fe67 O78 1.996 1_655 S
Fe67 O82 1.976 . S
Fe67 O85 2.002 1_556 S
O68 Fe66 1.918 . S
O68 Fe67 1.918 . S
O68 Fe69 1.918 . S
Fe69 O68 1.918 . S
Fe69 O70 2.002 1_556 S
Fe69 O79 1.976 . S
Fe69 O83 1.996 . S
Fe69 O86 1.997 1_556 S
O70 Fe69 2.002 1_554 S
O70 C87 1.295 . S
O71 Fe66 1.997 . S
O71 C87 1.235 1_556 S
O72 Fe66 2.002 1_455 S
O72 C73 1.295 . S
C73 O72 1.295 . S
C73 O75 1.235 . S
C74 O79 1.287 . S
C74 O80 1.255 . S
O75 Fe67 1.997 1_455 S
O75 C73 1.235 . S
C76 O82 1.287 . S
C76 O83 1.255 . S
O77 Fe66 1.976 . S
O77 C84 1.287 1_655 S
O78 Fe67 1.996 1_455 S
O78 C84 1.255 . S
O79 Fe69 1.976 . S
O79 C74 1.287 . S
O80 Fe66 1.996 . S
O80 C74 1.255 . S
C81 O85 1.295 . S
C81 O86 1.235 . S
O82 Fe67 1.976 . S
O82 C76 1.287 . S
O83 Fe69 1.996 . S
O83 C76 1.255 . S
C84 O77 1.287 1_455 S
C84 O78 1.255 . S
O85 Fe67 2.002 1_554 S
O85 C81 1.295 . S
O86 Fe69 1.997 1_554 S
O86 C81 1.235 . S
C87 O70 1.295 . S
C87 O71 1.235 1_554 S
Fe88 O90 1.918 . S
Fe88 O93 1.997 . S
Fe88 O94 2.002 1_545 S
Fe88 O99 1.976 . S
Fe88 O102 1.996 . S
Fe89 O90 1.918 . S
Fe89 O97 1.997 1_545 S
Fe89 O100 1.996 1_545 S
Fe89 O104 1.976 . S
Fe89 O107 2.002 . S
O90 Fe88 1.918 . S
O90 Fe89 1.918 . S
O90 Fe91 1.918 . S
Fe91 O90 1.918 . S
Fe91 O92 2.002 . S
Fe91 O101 1.976 . S
Fe91 O105 1.996 . S
Fe91 O108 1.997 . S
O92 Fe91 2.002 . S
O92 C109 1.295 . S
O93 Fe88 1.997 . S
O93 C109 1.235 . S
O94 Fe88 2.002 1_565 S
O94 C95 1.295 . S
C95 O94 1.295 . S
C95 O97 1.235 . S
C96 O101 1.287 . S
C96 O102 1.255 . S
O97 Fe89 1.997 1_565 S
O97 C95 1.235 . S
C98 O104 1.287 . S
C98 O105 1.255 . S
O99 Fe88 1.976 . S
O99 C106 1.287 1_545 S
O100 Fe89 1.996 1_565 S
O100 C106 1.255 . S
O101 Fe91 1.976 . S
O101 C96 1.287 . S
O102 Fe88 1.996 . S
O102 C96 1.255 . S
C103 O107 1.295 . S
C103 O108 1.235 . S
O104 Fe89 1.976 . S
O104 C98 1.287 . S
O105 Fe91 1.996 . S
O105 C98 1.255 . S
C106 O99 1.287 1_565 S
C106 O100 1.255 . S
O107 Fe89 2.002 . S
O107 C103 1.295 . S
O108 Fe91 1.997 . S
O108 C103 1.235 . S
C109 O92 1.295 . S
C109 O93 1.235 . S
Fe110 O112 1.918 . S
Fe110 O115 1.997 . S
Fe110 O116 2.002 1_455 S
Fe110 O121 1.976 . S
Fe110 O124 1.996 . S
Fe111 O112 1.918 . S
Fe111 O119 1.997 1_455 S
Fe111 O122 1.996 1_455 S
Fe111 O126 1.976 . S
Fe111 O129 2.002 . S
O112 Fe110 1.918 . S
O112 Fe111 1.918 . S
O112 Fe113 1.918 . S
Fe113 O112 1.918 . S
Fe113 O114 2.002 . S
Fe113 O123 1.976 . S
Fe113 O127 1.996 . S
Fe113 O130 1.997 . S
O114 Fe113 2.002 . S
O114 C131 1.295 . S
O115 Fe110 1.997 . S
O115 C131 1.235 . S
O116 Fe110 2.002 1_655 S
O116 C117 1.295 . S
C117 O116 1.295 . S
C117 O119 1.235 . S
C118 O123 1.287 . S
C118 O124 1.255 . S
O119 Fe111 1.997 1_655 S
O119 C117 1.235 . S
C120 O126 1.287 . S
C120 O127 1.255 . S
O121 Fe110 1.976 . S
O121 C128 1.287 1_455 S
O122 Fe111 1.996 1_655 S
O122 C128 1.255 . S
O123 Fe113 1.976 . S
O123 C118 1.287 . S
O124 Fe110 1.996 . S
O124 C118 1.255 . S
C125 O129 1.295 . S
C125 O130 1.235 . S
O126 Fe111 1.976 . S
O126 C120 1.287 . S
O127 Fe113 1.996 . S
O127 C120 1.255 . S
C128 O121 1.287 1_655 S
C128 O122 1.255 . S
O129 Fe111 2.002 . S
O129 C125 1.295 . S
O130 Fe113 1.997 . S
O130 C125 1.235 . S
C131 O114 1.295 . S
C131 O115 1.235 . S
Fe132 O134 1.918 . S
Fe132 O137 1.997 . S
Fe132 O138 2.002 1_565 S
Fe132 O143 1.976 . S
Fe132 O146 1.996 . S
Fe133 O134 1.918 . S
Fe133 O141 1.997 1_565 S
Fe133 O144 1.996 1_565 S
Fe133 O148 1.976 . S
Fe133 O151 2.002 . S
O134 Fe132 1.918 . S
O134 Fe133 1.918 . S
O134 Fe135 1.918 . S
Fe135 O134 1.918 . S
Fe135 O136 2.002 . S
Fe135 O145 1.976 . S
Fe135 O149 1.996 . S
Fe135 O152 1.997 . S
O136 Fe135 2.002 . S
O136 C153 1.295 . S
O137 Fe132 1.997 . S
O137 C153 1.235 . S
O138 Fe132 2.002 1_545 S
O138 C139 1.295 . S
C139 O138 1.295 . S
C139 O141 1.235 . S
C140 O145 1.287 . S
C140 O146 1.255 . S
O141 Fe133 1.997 1_545 S
O141 C139 1.235 . S
C142 O148 1.287 . S
C142 O149 1.255 . S
O143 Fe132 1.976 . S
O143 C150 1.287 1_565 S
O144 Fe133 1.996 1_545 S
O144 C150 1.255 . S
O145 Fe135 1.976 . S
O145 C140 1.287 . S
O146 Fe132 1.996 . S
O146 C140 1.255 . S
C147 O151 1.295 . S
C147 O152 1.235 . S
O148 Fe133 1.976 . S
O148 C142 1.287 . S
O149 Fe135 1.996 . S
O149 C142 1.255 . S
C150 O143 1.287 1_545 S
C150 O144 1.255 . S
O151 Fe133 2.002 . S
O151 C147 1.295 . S
O152 Fe135 1.997 . S
O152 C147 1.235 . S
C153 O136 1.295 . S
C153 O137 1.235 . S
Fe154 O156 1.918 . S
Fe154 O159 1.997 . S
Fe154 O160 2.002 1_655 S
Fe154 O165 1.976 . S
Fe154 O168 1.996 . S
Fe155 O156 1.918 . S
Fe155 O163 1.997 1_655 S
Fe155 O166 1.996 1_655 S
Fe155 O170 1.976 . S
Fe155 O173 2.002 . S
O156 Fe154 1.918 . S
O156 Fe155 1.918 . S
O156 Fe157 1.918 . S
Fe157 O156 1.918 . S
Fe157 O158 2.002 . S
Fe157 O167 1.976 . S
Fe157 O171 1.996 . S
Fe157 O174 1.997 . S
O158 Fe157 2.002 . S
O158 C175 1.295 . S
O159 Fe154 1.997 . S
O159 C175 1.235 . S
O160 Fe154 2.002 1_455 S
O160 C161 1.295 . S
C161 O160 1.295 . S
C161 O163 1.235 . S
C162 O167 1.287 . S
C162 O168 1.255 . S
O163 Fe155 1.997 1_455 S
O163 C161 1.235 . S
C164 O170 1.287 . S
C164 O171 1.255 . S
O165 Fe154 1.976 . S
O165 C172 1.287 1_655 S
O166 Fe155 1.996 1_455 S
O166 C172 1.255 . S
O167 Fe157 1.976 . S
O167 C162 1.287 . S
O168 Fe154 1.996 . S
O168 C162 1.255 . S
C169 O173 1.295 . S
C169 O174 1.235 . S
O170 Fe155 1.976 . S
O170 C164 1.287 . S
O171 Fe157 1.996 . S
O171 C164 1.255 . S
C172 O165 1.287 1_455 S
C172 O166 1.255 . S
O173 Fe155 2.002 . S
O173 C169 1.295 . S
O174 Fe157 1.997 . S
O174 C169 1.235 . S
C175 O158 1.295 . S
C175 O159 1.235 . S
Fe176 O178 1.918 . S
Fe176 O181 1.997 . S
Fe176 O182 2.002 . S
Fe176 O187 1.976 . S
Fe176 O190 1.996 . S
Fe177 O178 1.918 . S
Fe177 O185 1.997 . S
Fe177 O188 1.996 . S
Fe177 O192 1.976 . S
Fe177 O195 2.002 . S
O178 Fe176 1.918 . S
O178 Fe177 1.918 . S
O178 Fe179 1.918 . S
Fe179 O178 1.918 . S
Fe179 O180 2.002 . S
Fe179 O189 1.976 . S
Fe179 O193 1.996 . S
Fe179 O196 1.997 . S
O180 Fe179 2.002 . S
O180 C197 1.295 . S
O181 Fe176 1.997 . S
O181 C197 1.235 . S
O182 Fe176 2.002 . S
O182 C183 1.295 . S
C183 O182 1.295 . S
C183 O185 1.235 . S
C184 O189 1.287 . S
C184 O190 1.255 . S
O185 Fe177 1.997 . S
O185 C183 1.235 . S
C186 O192 1.287 . S
C186 O193 1.255 . S
O187 Fe176 1.976 . S
O187 C194 1.287 . S
O188 Fe177 1.996 . S
O188 C194 1.255 . S
O189 Fe179 1.976 . S
O189 C184 1.287 . S
O190 Fe176 1.996 . S
O190 C184 1.255 . S
C191 O195 1.295 . S
C191 O196 1.235 . S
O192 Fe177 1.976 . S
O192 C186 1.287 . S
O193 Fe179 1.996 . S
O193 C186 1.255 . S
C194 O187 1.287 . S
C194 O188 1.255 . S
O195 Fe177 2.002 . S
O195 C191 1.295 . S
O196 Fe179 1.997 . S
O196 C191 1.235 . S
C197 O180 1.295 . S
C197 O181 1.235 . S
Fe198 O200 1.918 . S
Fe198 O203 1.997 . S
Fe198 O204 2.002 . S
Fe198 O209 1.976 . S
Fe198 O212 1.996 . S
Fe199 O200 1.918 . S
Fe199 O207 1.997 . S
Fe199 O210 1.996 . S
Fe199 O214 1.976 . S
Fe199 O217 2.002 . S
O200 Fe198 1.918 . S
O200 Fe199 1.918 . S
O200 Fe201 1.918 . S
Fe201 O200 1.918 . S
Fe201 O202 2.002 . S
Fe201 O211 1.976 . S
Fe201 O215 1.996 . S
Fe201 O218 1.997 . S
O202 Fe201 2.002 . S
O202 C219 1.295 . S
O203 Fe198 1.997 . S
O203 C219 1.235 . S
O204 Fe198 2.002 . S
O204 C205 1.295 . S
C205 O204 1.295 . S
C205 O207 1.235 . S
C206 O211 1.287 . S
C206 O212 1.255 . S
O207 Fe199 1.997 . S
O207 C205 1.235 . S
C208 O214 1.287 . S
C208 O215 1.255 . S
O209 Fe198 1.976 . S
O209 C216 1.287 . S
O210 Fe199 1.996 . S
O210 C216 1.255 . S
O211 Fe201 1.976 . S
O211 C206 1.287 . S
O212 Fe198 1.996 . S
O212 C206 1.255 . S
C213 O217 1.295 . S
C213 O218 1.235 . S
O214 Fe199 1.976 . S
O214 C208 1.287 . S
O215 Fe201 1.996 . S
O215 C208 1.255 . S
C216 O209 1.287 . S
C216 O210 1.255 . S
O217 Fe199 2.002 . S
O217 C213 1.295 . S
O218 Fe201 1.997 . S
O218 C213 1.235 . S
C219 O202 1.295 . S
C219 O203 1.235 . S
Fe220 O222 1.918 . S
Fe220 O225 1.997 . S
Fe220 O226 2.002 . S
Fe220 O231 1.976 . S
Fe220 O234 1.996 . S
Fe221 O222 1.918 . S
Fe221 O229 1.997 . S
Fe221 O232 1.996 . S
Fe221 O236 1.976 . S
Fe221 O239 2.002 . S
O222 Fe220 1.918 . S
O222 Fe221 1.918 . S
O222 Fe223 1.918 . S
Fe223 O222 1.918 . S
Fe223 O224 2.002 . S
Fe223 O233 1.976 . S
Fe223 O237 1.996 . S
Fe223 O240 1.997 . S
O224 Fe223 2.002 . S
O224 C241 1.295 . S
O225 Fe220 1.997 . S
O225 C241 1.235 . S
O226 Fe220 2.002 . S
O226 C227 1.295 . S
C227 O226 1.295 . S
C227 O229 1.235 . S
C228 O233 1.287 . S
C228 O234 1.255 . S
O229 Fe221 1.997 . S
O229 C227 1.235 . S
C230 O236 1.287 . S
C230 O237 1.255 . S
O231 Fe220 1.976 . S
O231 C238 1.287 . S
O232 Fe221 1.996 . S
O232 C238 1.255 . S
O233 Fe223 1.976 . S
O233 C228 1.287 . S
O234 Fe220 1.996 . S
O234 C228 1.255 . S
C235 O239 1.295 . S
C235 O240 1.235 . S
O236 Fe221 1.976 . S
O236 C230 1.287 . S
O237 Fe223 1.996 . S
O237 C230 1.255 . S
C238 O231 1.287 . S
C238 O232 1.255 . S
O239 Fe221 2.002 . S
O239 C235 1.295 . S
O240 Fe223 1.997 . S
O240 C235 1.235 . S
C241 O224 1.295 . S
C241 O225 1.235 . S
Fe242 O244 1.918 . S
Fe242 O247 1.997 . S
Fe242 O248 2.002 . S
Fe242 O253 1.976 . S
Fe242 O256 1.996 . S
Fe243 O244 1.918 . S
Fe243 O251 1.997 . S
Fe243 O254 1.996 . S
Fe243 O258 1.976 . S
Fe243 O261 2.002 . S
O244 Fe242 1.918 . S
O244 Fe243 1.918 . S
O244 Fe245 1.918 . S
Fe245 O244 1.918 . S
Fe245 O246 2.002 . S
Fe245 O255 1.976 . S
Fe245 O259 1.996 . S
Fe245 O262 1.997 . S
O246 Fe245 2.002 . S
O246 C263 1.295 . S
O247 Fe242 1.997 . S
O247 C263 1.235 . S
O248 Fe242 2.002 . S
O248 C249 1.295 . S
C249 O248 1.295 . S
C249 O251 1.235 . S
C250 O255 1.287 . S
C250 O256 1.255 . S
O251 Fe243 1.997 . S
O251 C249 1.235 . S
C252 O258 1.287 . S
C252 O259 1.255 . S
O253 Fe242 1.976 . S
O253 C260 1.287 . S
O254 Fe243 1.996 . S
O254 C260 1.255 . S
O255 Fe245 1.976 . S
O255 C250 1.287 . S
O256 Fe242 1.996 . S
O256 C250 1.255 . S
C257 O261 1.295 . S
C257 O262 1.235 . S
O258 Fe243 1.976 . S
O258 C252 1.287 . S
O259 Fe245 1.996 . S
O259 C252 1.255 . S
C260 O253 1.287 . S
C260 O254 1.255 . S
O261 Fe243 2.002 . S
O261 C257 1.295 . S
O262 Fe245 1.997 . S
O262 C257 1.235 . S
C263 O246 1.295 . S
C263 O247 1.235 . S
Fe264 O266 1.918 . S
Fe264 O269 1.997 . S
Fe264 O270 2.002 . S
Fe264 O275 1.976 . S
Fe264 O278 1.996 . S
Fe265 O266 1.918 . S
Fe265 O273 1.997 . S
Fe265 O276 1.996 . S
Fe265 O280 1.976 . S
Fe265 O283 2.002 1_554 S
O266 Fe264 1.918 . S
O266 Fe265 1.918 . S
O266 Fe267 1.918 . S
Fe267 O266 1.918 . S
Fe267 O268 2.002 1_554 S
Fe267 O277 1.976 . S
Fe267 O281 1.996 . S
Fe267 O284 1.997 1_554 S
O268 Fe267 2.002 1_556 S
O268 C285 1.295 . S
O269 Fe264 1.997 . S
O269 C285 1.235 1_554 S
O270 Fe264 2.002 . S
O270 C271 1.295 . S
C271 O270 1.295 . S
C271 O273 1.235 . S
C272 O277 1.287 . S
C272 O278 1.255 . S
O273 Fe265 1.997 . S
O273 C271 1.235 . S
C274 O280 1.287 . S
C274 O281 1.255 . S
O275 Fe264 1.976 . S
O275 C282 1.287 . S
O276 Fe265 1.996 . S
O276 C282 1.255 . S
O277 Fe267 1.976 . S
O277 C272 1.287 . S
O278 Fe264 1.996 . S
O278 C272 1.255 . S
C279 O283 1.295 . S
C279 O284 1.235 . S
O280 Fe265 1.976 . S
O280 C274 1.287 . S
O281 Fe267 1.996 . S
O281 C274 1.255 . S
C282 O275 1.287 . S
C282 O276 1.255 . S
O283 Fe265 2.002 1_556 S
O283 C279 1.295 . S
O284 Fe267 1.997 1_556 S
O284 C279 1.235 . S
C285 O268 1.295 . S
C285 O269 1.235 1_556 S
Fe286 O288 1.918 . S
Fe286 O291 1.997 . S
Fe286 O292 2.002 . S
Fe286 O297 1.976 . S
Fe286 O300 1.996 . S
Fe287 O288 1.918 . S
Fe287 O295 1.997 . S
Fe287 O298 1.996 . S
Fe287 O302 1.976 . S
Fe287 O305 2.002 1_556 S
O288 Fe286 1.918 . S
O288 Fe287 1.918 . S
O288 Fe289 1.918 . S
Fe289 O288 1.918 . S
Fe289 O290 2.002 1_556 S
Fe289 O299 1.976 . S
Fe289 O303 1.996 . S
Fe289 O306 1.997 1_556 S
O290 Fe289 2.002 1_554 S
O290 C307 1.295 . S
O291 Fe286 1.997 . S
O291 C307 1.235 1_556 S
O292 Fe286 2.002 . S
O292 C293 1.295 . S
C293 O292 1.295 . S
C293 O295 1.235 . S
C294 O299 1.287 . S
C294 O300 1.255 . S
O295 Fe287 1.997 . S
O295 C293 1.235 . S
C296 O302 1.287 . S
C296 O303 1.255 . S
O297 Fe286 1.976 . S
O297 C304 1.287 . S
O298 Fe287 1.996 . S
O298 C304 1.255 . S
O299 Fe289 1.976 . S
O299 C294 1.287 . S
O300 Fe286 1.996 . S
O300 C294 1.255 . S
C301 O305 1.295 . S
C301 O306 1.235 . S
O302 Fe287 1.976 . S
O302 C296 1.287 . S
O303 Fe289 1.996 . S
O303 C296 1.255 . S
C304 O297 1.287 . S
C304 O298 1.255 . S
O305 Fe287 2.002 1_554 S
O305 C301 1.295 . S
O306 Fe289 1.997 1_554 S
O306 C301 1.235 . S
C307 O290 1.295 . S
C307 O291 1.235 1_554 S
Fe308 O310 1.918 . S
Fe308 O313 1.997 . S
Fe308 O314 2.002 . S
Fe308 O319 1.976 . S
Fe308 O322 1.996 . S
Fe309 O310 1.918 . S
Fe309 O317 1.997 . S
Fe309 O320 1.996 . S
Fe309 O324 1.976 . S
Fe309 O327 2.002 1_554 S
O310 Fe308 1.918 . S
O310 Fe309 1.918 . S
O310 Fe311 1.918 . S
Fe311 O310 1.918 . S
Fe311 O312 2.002 1_554 S
Fe311 O321 1.976 . S
Fe311 O325 1.996 . S
Fe311 O328 1.997 1_554 S
O312 Fe311 2.002 1_556 S
O312 C329 1.295 . S
O313 Fe308 1.997 . S
O313 C329 1.235 1_554 S
O314 Fe308 2.002 . S
O314 C315 1.295 . S
C315 O314 1.295 . S
C315 O317 1.235 . S
C316 O321 1.287 . S
C316 O322 1.255 . S
O317 Fe309 1.997 . S
O317 C315 1.235 . S
C318 O324 1.287 . S
C318 O325 1.255 . S
O319 Fe308 1.976 . S
O319 C326 1.287 . S
O320 Fe309 1.996 . S
O320 C326 1.255 . S
O321 Fe311 1.976 . S
O321 C316 1.287 . S
O322 Fe308 1.996 . S
O322 C316 1.255 . S
C323 O327 1.295 . S
C323 O328 1.235 . S
O324 Fe309 1.976 . S
O324 C318 1.287 . S
O325 Fe311 1.996 . S
O325 C318 1.255 . S
C326 O319 1.287 . S
C326 O320 1.255 . S
O327 Fe309 2.002 1_556 S
O327 C323 1.295 . S
O328 Fe311 1.997 1_556 S
O328 C323 1.235 . S
C329 O312 1.295 . S
C329 O313 1.235 1_556 S
Fe330 O332 1.918 . S
Fe330 O335 1.997 . S
Fe330 O336 2.002 1_556 S
Fe330 O341 1.976 . S
Fe330 O344 1.996 . S
Fe331 O332 1.918 . S
Fe331 O339 1.997 1_556 S
Fe331 O342 1.996 . S
Fe331 O346 1.976 . S
Fe331 O349 2.002 1_556 S
O332 Fe330 1.918 . S
O332 Fe331 1.918 . S
O332 Fe333 1.918 . S
Fe333 O332 1.918 . S
Fe333 O334 2.002 . S
Fe333 O343 1.976 . S
Fe333 O347 1.996 . S
Fe333 O350 1.997 . S
O334 Fe333 2.002 . S
O334 C351 1.295 . S
O335 Fe330 1.997 . S
O335 C351 1.235 . S
O336 Fe330 2.002 1_554 S
O336 C337 1.295 . S
C337 O336 1.295 . S
C337 O339 1.235 . S
C338 O343 1.287 . S
C338 O344 1.255 . S
O339 Fe331 1.997 1_554 S
O339 C337 1.235 . S
C340 O346 1.287 . S
C340 O347 1.255 . S
O341 Fe330 1.976 . S
O341 C348 1.287 . S
O342 Fe331 1.996 . S
O342 C348 1.255 . S
O343 Fe333 1.976 . S
O343 C338 1.287 . S
O344 Fe330 1.996 . S
O344 C338 1.255 . S
C345 O349 1.295 . S
C345 O350 1.235 1_554 S
O346 Fe331 1.976 . S
O346 C340 1.287 . S
O347 Fe333 1.996 . S
O347 C340 1.255 . S
C348 O341 1.287 . S
C348 O342 1.255 . S
O349 Fe331 2.002 1_554 S
O349 C345 1.295 . S
O350 Fe333 1.997 . S
O350 C345 1.235 1_556 S
C351 O334 1.295 . S
C351 O335 1.235 . S
C8 C118 1.457 . S
C32 C140 1.457 . S
C162 C62 1.457 . S
C96 C74 1.457 . S
C294 C186 1.457 . S
C208 C316 1.457 . S
C340 C230 1.457 . S
C272 C252 1.457 . S
C7 C37 1.831 . S
C51 C43 1.831 . S
C87 C59 1.831 . S
C73 C21 1.831 . S
C95 C175 1.831 . S
C109 C117 1.831 . S
C131 C139 1.831 . S
C153 C161 1.831 . S
C197 C213 1.831 . S
C235 C219 1.831 . S
C241 C257 1.831 . S
C263 C191 1.831 . S
C345 C271 1.831 . S
C285 C293 1.831 . S
C307 C315 1.831 . S
C351 C329 1.831 . S
C150 C15 1.616 . S
C172 C29 1.616 . S
C65 C106 1.616 . S
C81 C128 1.616 . S
C54 C103 1.616 . S
C125 C84 1.616 . S
C147 C18 1.616 . S
C30 C169 1.616 . S
C183 C326 1.616 . S
C205 C338 1.616 . S
C282 C227 1.616 . S
C249 C304 1.616 . S
C279 C228 1.616 . S
C301 C250 1.616 . S
C323 C184 1.616 . S
C206 C337 1.616 . S
C348 C10 1.769 1_556 S
C274 C40 1.769 1_554 S
C52 C296 1.769 1_554 S
C318 C76 1.769 1_554 S
C98 C216 1.769 . S
C120 C238 1.769 . S
C260 C142 1.769 . S
C164 C194 1.769 . S
