# Generated by pormake.
# Topology umy, (4)-cn, num edge types: 1
# Building blocks:
#     Node 0, Type 0, BuildingBlock: GALJAG_clean_sbu_0, # of connection points: 4
#     Node 1, Type 0, BuildingBlock: GALJAG_clean_sbu_0, # of connection points: 4
#     Node 2, Type 0, BuildingBlock: GALJAG_clean_sbu_0, # of connection points: 4
#     Node 3, Type 0, BuildingBlock: GALJAG_clean_sbu_0, # of connection points: 4
#     Node 4, Type 0, BuildingBlock: GALJAG_clean_sbu_0, # of connection points: 4
#     Node 5, Type 0, BuildingBlock: GALJAG_clean_sbu_0, # of connection points: 4
#     Node 6, Type 0, BuildingBlock: GALJAG_clean_sbu_0, # of connection points: 4
#     Node 7, Type 0, BuildingBlock: GALJAG_clean_sbu_0, # of connection points: 4
#     Node 8, Type 0, BuildingBlock: GALJAG_clean_sbu_0, # of connection points: 4
#     Node 9, Type 0, BuildingBlock: GALJAG_clean_sbu_0, # of connection points: 4
#     Node 10, Type 0, BuildingBlock: GALJAG_clean_sbu_0, # of connection points: 4
#     Node 11, Type 0, BuildingBlock: GALJAG_clean_sbu_0, # of connection points: 4
#     Edge 12, Type (0, 0), BuildingBlock: MIFKUJ_clean_linker_0, # of connection points: 2
#     Edge 13, Type (0, 0), BuildingBlock: MIFKUJ_clean_linker_0, # of connection points: 2
#     Edge 14, Type (0, 0), BuildingBlock: MIFKUJ_clean_linker_0, # of connection points: 2
#     Edge 15, Type (0, 0), BuildingBlock: MIFKUJ_clean_linker_0, # of connection points: 2
#     Edge 16, Type (0, 0), BuildingBlock: MIFKUJ_clean_linker_0, # of connection points: 2
#     Edge 17, Type (0, 0), BuildingBlock: MIFKUJ_clean_linker_0, # of connection points: 2
#     Edge 18, Type (0, 0), BuildingBlock: MIFKUJ_clean_linker_0, # of connection points: 2
#     Edge 19, Type (0, 0), BuildingBlock: MIFKUJ_clean_linker_0, # of connection points: 2
#     Edge 20, Type (0, 0), BuildingBlock: MIFKUJ_clean_linker_0, # of connection points: 2
#     Edge 21, Type (0, 0), BuildingBlock: MIFKUJ_clean_linker_0, # of connection points: 2
#     Edge 22, Type (0, 0), BuildingBlock: MIFKUJ_clean_linker_0, # of connection points: 2
#     Edge 23, Type (0, 0), BuildingBlock: MIFKUJ_clean_linker_0, # of connection points: 2
#     Edge 24, Type (0, 0), BuildingBlock: MIFKUJ_clean_linker_0, # of connection points: 2
#     Edge 25, Type (0, 0), BuildingBlock: MIFKUJ_clean_linker_0, # of connection points: 2
#     Edge 26, Type (0, 0), BuildingBlock: MIFKUJ_clean_linker_0, # of connection points: 2
#     Edge 27, Type (0, 0), BuildingBlock: MIFKUJ_clean_linker_0, # of connection points: 2
#     Edge 28, Type (0, 0), BuildingBlock: MIFKUJ_clean_linker_0, # of connection points: 2
#     Edge 29, Type (0, 0), BuildingBlock: MIFKUJ_clean_linker_0, # of connection points: 2
#     Edge 30, Type (0, 0), BuildingBlock: MIFKUJ_clean_linker_0, # of connection points: 2
#     Edge 31, Type (0, 0), BuildingBlock: MIFKUJ_clean_linker_0, # of connection points: 2
#     Edge 32, Type (0, 0), BuildingBlock: MIFKUJ_clean_linker_0, # of connection points: 2
#     Edge 33, Type (0, 0), BuildingBlock: MIFKUJ_clean_linker_0, # of connection points: 2
#     Edge 34, Type (0, 0), BuildingBlock: MIFKUJ_clean_linker_0, # of connection points: 2
#     Edge 35, Type (0, 0), BuildingBlock: MIFKUJ_clean_linker_0, # of connection points: 2
# Relax obj value: 0.077
# Max RMSD: 0.075
# Mean RMSD: 0.075
data_MOF--net-umy--node1-GALJAG_clean_sbu_0--edge1-MIFKUJ_clean_linker_0
_symmetry_space_group_name_H-M    P1
_symmetry_Int_Tables_number       1
_symmetry_cell_setting            triclinic
loop_
_symmetry_equiv_pos_as_xyz
'x, y, z'
_cell_length_a     45.571473
_cell_length_b     45.583873
_cell_length_c     78.049459
_cell_angle_alpha  89.99006
_cell_angle_beta   90.003427
_cell_angle_gamma 120.0071
loop_
_atom_site_label
_atom_site_type_symbol
_atom_site_fract_x
_atom_site_fract_y
_atom_site_fract_z
_atom_type_partial_charge
In0 In 0.05452 0.33829 0.13896 0.0
O1 O 0.05622 0.30859 0.11586 0.0
O2 O 0.10178 0.35294 0.12314 0.0
C3 C 0.99408 0.29158 0.15189 0.0
C4 C 0.04321 0.38559 0.12478 0.0
C5 C 0.09416 0.34718 0.16644 0.0
O6 O 0.01207 0.28376 0.14284 0.0
O7 O 0.00608 0.32297 0.15394 0.0
O8 O 0.09266 0.37148 0.15957 0.0
O9 O 0.07624 0.31891 0.15928 0.0
C10 C 0.08724 0.32844 0.11284 0.0
O11 O 0.05732 0.38973 0.1392 0.0
O12 O 0.03439 0.3575 0.11772 0.0
In13 In 0.72499 0.05993 0.30998 0.0
O14 O 0.67664 0.06287 0.30819 0.0
O15 O 0.68503 0.0342 0.28929 0.0
C16 C 0.74961 0.10287 0.33685 0.0
C17 C 0.76449 0.09179 0.28283 0.0
C18 C 0.71909 0.0029 0.3239 0.0
O19 O 0.71834 0.08525 0.33377 0.0
O20 O 0.7684 0.09911 0.3263 0.0
O21 O 0.74628 0.02547 0.31726 0.0
O22 O 0.69494 0.00882 0.32318 0.0
C23 C 0.66613 0.04495 0.29483 0.0
O24 O 0.75789 0.06252 0.28741 0.0
O25 O 0.75158 0.10507 0.29211 0.0
In26 In 0.65397 0.71105 0.47397 0.0
O27 O 0.59828 0.67592 0.46762 0.0
O28 O 0.63286 0.65968 0.46061 0.0
C29 C 0.64756 0.7404 0.50267 0.0
C30 C 0.67011 0.75493 0.4476 0.0
C31 C 0.69894 0.69626 0.48776 0.0
O32 O 0.6227 0.71496 0.49593 0.0
O33 O 0.67516 0.7515 0.49471 0.0
O34 O 0.70658 0.71717 0.47561 0.0
O35 O 0.66826 0.68184 0.4924 0.0
C36 C 0.60262 0.65343 0.46068 0.0
O37 O 0.68599 0.73944 0.45058 0.0
O38 O 0.64652 0.74858 0.45798 0.0
In39 In 0.93029 0.65538 0.64269 0.0
O40 O 0.90666 0.59941 0.63594 0.0
O41 O 0.95738 0.63268 0.62805 0.0
C42 C 0.89173 0.64755 0.67029 0.0
C43 C 0.90531 0.67387 0.61612 0.0
C44 C 0.98927 0.6974 0.65833 0.0
O45 O 0.89644 0.62406 0.66491 0.0
O46 O 0.90604 0.67448 0.6616 0.0
O47 O 0.97619 0.70776 0.64734 0.0
O48 O 0.97322 0.66584 0.66088 0.0
C49 C 0.93251 0.60289 0.6282 0.0
O50 O 0.93658 0.6843 0.61762 0.0
O51 O 0.88717 0.65473 0.62802 0.0
In52 In 0.28067 0.94489 0.80714 0.0
O53 O 0.24682 0.94042 0.78459 0.0
O54 O 0.24193 0.89506 0.79501 0.0
C55 C 0.29537 0.00722 0.8174 0.0
C56 C 0.33761 0.9536 0.79185 0.0
C57 C 0.25549 0.90985 0.83653 0.0
O58 O 0.26867 0.98779 0.80923 0.0
O59 O 0.31511 0.99569 0.8197 0.0
O60 O 0.27501 0.90509 0.82692 0.0
O61 O 0.24847 0.9317 0.83117 0.0
C62 C 0.23234 0.90852 0.78387 0.0
O63 O 0.33178 0.94672 0.80758 0.0
O64 O 0.31498 0.95634 0.78397 0.0
In65 In 0.34059 0.27837 0.97512 0.0
O66 O 0.39573 0.31086 0.96702 0.0
O67 O 0.36253 0.33005 0.9623 0.0
C68 C 0.35134 0.25246 0.00392 0.0
C69 C 0.32512 0.2353 0.94851 0.0
C70 C 0.29382 0.29129 0.98844 0.0
O71 O 0.37336 0.28068 0.99787 0.0
O72 O 0.32431 0.23738 0.99536 0.0
O73 O 0.28601 0.26641 0.97862 0.0
O74 O 0.32517 0.30991 0.99115 0.0
C75 C 0.39206 0.33449 0.961 0.0
O76 O 0.31304 0.25478 0.94988 0.0
O77 O 0.34427 0.23725 0.96062 0.0
In78 In 0.65846 0.94082 0.68813 0.0
O79 O 0.69239 0.93671 0.70833 0.0
O80 O 0.64116 0.89678 0.70665 0.0
C81 C 0.70296 0.00029 0.67339 0.0
C82 C 0.61281 0.95394 0.70297 0.0
C83 C 0.64869 0.89829 0.6619 0.0
O84 O 0.71053 0.98891 0.68637 0.0
O85 O 0.67291 0.98217 0.66825 0.0
O86 O 0.6259 0.90433 0.66693 0.0
O87 O 0.67595 0.91315 0.6703 0.0
C88 C 0.66941 0.90866 0.71411 0.0
O89 O 0.60604 0.93558 0.68981 0.0
O90 O 0.64272 0.96614 0.70842 0.0
In91 In 0.71799 0.66796 0.85952 0.0
O92 O 0.7454 0.69873 0.8834 0.0
O93 O 0.74925 0.65532 0.87745 0.0
C94 C 0.71051 0.71918 0.84752 0.0
C95 C 0.66103 0.61521 0.87196 0.0
C96 C 0.74147 0.65569 0.83022 0.0
O97 O 0.73899 0.7231 0.85172 0.0
O98 O 0.68581 0.68976 0.84993 0.0
O99 O 0.71031 0.64378 0.83308 0.0
O100 O 0.76071 0.67326 0.84226 0.0
C101 C 0.75685 0.67962 0.88757 0.0
O102 O 0.68201 0.61159 0.86298 0.0
O103 O 0.66848 0.64554 0.87444 0.0
In104 In 0.05619 0.71988 0.02186 0.0
O105 O 0.06293 0.75254 0.04527 0.0
O106 O 0.1062 0.75152 0.0358 0.0
C107 C 0.99562 0.71 0.01108 0.0
C108 C 0.04359 0.66136 0.03673 0.0
C109 C 0.09398 0.74742 0.99346 0.0
O110 O 0.01619 0.73583 0.01946 0.0
O111 O 0.00526 0.68883 0.00851 0.0
O112 O 0.08888 0.71962 -0.00041 0.0
O113 O 0.08028 0.76117 0.00171 0.0
C114 C 0.09413 0.76267 0.04691 0.0
O115 O 0.05539 0.66932 0.02173 0.0
O116 O 0.03765 0.68256 0.04399 0.0
In117 In 0.34803 0.05774 0.1894 0.0
O118 O 0.39988 0.06169 0.19014 0.0
O119 O 0.36602 0.03693 0.21088 0.0
C120 C 0.35659 0.09819 0.16243 0.0
C121 C 0.33483 0.08908 0.21495 0.0
C122 C 0.30604 0.99749 0.17475 0.0
O123 O 0.38135 0.09874 0.17 0.0
O124 O 0.32798 0.07794 0.16871 0.0
O125 O 0.2956 0.0113 0.18527 0.0
O126 O 0.33757 0.0135 0.1722 0.0
C127 C 0.39474 0.04658 0.20433 0.0
O128 O 0.31449 0.05867 0.21088 0.0
O129 O 0.36145 0.10355 0.20602 0.0
In130 In 0.27144 0.33215 0.35513 0.0
O131 O 0.24185 0.29873 0.37791 0.0
O132 O 0.23666 0.34148 0.37233 0.0
C133 C 0.28655 0.28777 0.34073 0.0
C134 C 0.32791 0.38126 0.37021 0.0
C135 C 0.24432 0.34272 0.32664 0.0
O136 O 0.2605 0.27851 0.34987 0.0
O137 O 0.30542 0.31943 0.33927 0.0
O138 O 0.27252 0.36488 0.3326 0.0
O139 O 0.22953 0.31578 0.33526 0.0
C140 C 0.22877 0.31645 0.38197 0.0
O141 O 0.30768 0.38726 0.36195 0.0
O142 O 0.31999 0.35049 0.37063 0.0
In143 In 0.94221 0.28126 0.52305 0.0
O144 O 0.91553 0.31096 0.52926 0.0
O145 O 0.96794 0.33405 0.53501 0.0
C146 C 0.90718 0.26537 0.49331 0.0
C147 C 0.91882 0.23751 0.54958 0.0
C148 C -0.00016 0.28428 0.51238 0.0
O149 O 0.89319 0.25374 0.50758 0.0
O150 O 0.93865 0.28551 0.49407 0.0
O151 O 0.97419 0.25683 0.51694 0.0
O152 O 0.99665 0.31013 0.51376 0.0
C153 C 0.94143 0.3362 0.53537 0.0
O154 O 0.9439 0.26702 0.55101 0.0
O155 O 0.90651 0.22984 0.5347 0.0
H156 H 0.03357 0.64747 0.07078 0.0
H157 H 0.02974 0.59862 0.08586 0.0
H158 H 0.03872 0.55703 0.03784 0.0
H159 H 0.04327 0.60631 0.02262 0.0
H160 H 0.98529 0.5095 0.06247 0.0
H161 H 0.10495 0.59236 0.05836 0.0
H162 H 0.15468 0.64941 0.06187 0.0
H163 H 0.13606 0.64513 0.116 0.0
H164 H 0.08586 0.58821 0.11276 0.0
H165 H 0.02623 0.38744 0.09155 0.0
H166 H 0.0223 0.43277 0.07705 0.0
H167 H 0.04529 0.4885 0.12456 0.0
H168 H 0.05061 0.44367 0.13898 0.0
H169 H 0.08076 0.52927 0.10051 0.0
H170 H 0.96363 0.44732 0.10612 0.0
H171 H 0.91192 0.39136 0.10385 0.0
H172 H 0.92228 0.39436 0.04911 0.0
H173 H 0.97434 0.45017 0.05105 0.0
C174 C 0.03444 0.62779 0.06341 0.0
C175 C 0.03884 0.63068 0.04554 0.0
C176 C 0.03228 0.59998 0.07204 0.0
C177 C 0.03406 0.57442 0.06293 0.0
C178 C 0.03725 0.57658 0.04503 0.0
C179 C 0.03997 0.60471 0.0364 0.0
C180 C 0.0342 0.5463 0.07224 0.0
C181 C 0.00627 0.51357 0.07064 0.0
C182 C 0.06113 0.55211 0.0833 0.0
C183 C 0.09145 0.5862 0.08528 0.0
C184 C 0.11128 0.60371 0.07099 0.0
C185 C 0.13958 0.636 0.07293 0.0
C186 C 0.14847 0.65093 0.08914 0.0
C187 C 0.12911 0.63355 0.10345 0.0
C188 C 0.10075 0.60127 0.10156 0.0
C189 C 0.03017 0.40923 0.09893 0.0
C190 C 0.03869 0.41206 0.11639 0.0
C191 C 0.02772 0.43506 0.09065 0.0
C192 C 0.033 0.46388 0.09975 0.0
C193 C 0.04108 0.4665 0.11727 0.0
C194 C 0.04403 0.44087 0.12551 0.0
C195 C 0.03176 0.49199 0.09079 0.0
C196 C 0.05957 0.5249 0.09243 0.0
C197 C 0.00441 0.48636 0.07998 0.0
C198 C 0.97308 0.4528 0.07875 0.0
C199 C 0.95504 0.43593 0.0936 0.0
C200 C 0.92564 0.40426 0.09238 0.0
C201 C 0.91387 0.38928 0.07635 0.0
C202 C 0.93145 0.40598 0.06151 0.0
C203 C 0.96089 0.43766 0.06267 0.0
H204 H 0.8911 0.36475 0.07543 0.0
H205 H 0.17039 0.67593 0.09062 0.0
H206 H 0.6493 0.02541 0.26168 0.0
H207 H 0.60062 0.02039 0.24579 0.0
H208 H 0.56453 0.04513 0.29155 0.0
H209 H 0.61371 0.05114 0.30745 0.0
H210 H 0.51368 0.98528 0.26831 0.0
H211 H 0.60025 0.10542 0.26947 0.0
H212 H 0.65859 0.15241 0.26498 0.0
H213 H 0.65339 0.12485 0.212 0.0
H214 H 0.59515 0.07732 0.21626 0.0
H215 H 0.39633 0.03086 0.23779 0.0
H216 H 0.44065 0.02536 0.25243 0.0
H217 H 0.49527 0.04407 0.20475 0.0
H218 H 0.45165 0.05122 0.19023 0.0
H219 H 0.53735 0.07876 0.22796 0.0
H220 H 0.45132 0.96311 0.22447 0.0
H221 H 0.39428 0.9131 0.22738 0.0
H222 H 0.39867 0.92692 0.28193 0.0
H223 H 0.45558 0.97732 0.27933 0.0
C224 C 0.63078 0.02939 0.2684 0.0
C225 C 0.63525 0.03881 0.28575 0.0
C226 C 0.60307 0.02651 0.25932 0.0
C227 C 0.57919 0.03241 0.26756 0.0
C228 C 0.58277 0.04039 0.28506 0.0
C229 C 0.61085 0.04395 0.29407 0.0
C230 C 0.55181 0.03261 0.25761 0.0
C231 C 0.51858 0.00578 0.2596 0.0
C232 C 0.55874 0.05881 0.24584 0.0
C233 C 0.59354 0.08761 0.24324 0.0
C234 C 0.61168 0.10919 0.25691 0.0
C235 C 0.64469 0.13596 0.2544 0.0
C236 C 0.65973 0.14155 0.23823 0.0
C237 C 0.64173 0.12045 0.22452 0.0
C238 C 0.60872 0.09361 0.22698 0.0
C239 C 0.41769 0.03356 0.23042 0.0
C240 C 0.42062 0.04144 0.21289 0.0
C241 C 0.44292 0.03018 0.23877 0.0
C242 C 0.47109 0.03372 0.22966 0.0
C243 C 0.47378 0.04118 0.21206 0.0
C244 C 0.44885 0.0452 0.20377 0.0
C245 C 0.49857 0.03143 0.23867 0.0
C246 C 0.53206 0.05796 0.23654 0.0
C247 C 0.49186 0.00451 0.25004 0.0
C248 C 0.45762 0.97419 0.25168 0.0
C249 C 0.44003 0.95565 0.23708 0.0
C250 C 0.40773 0.9272 0.23867 0.0
C251 C 0.39283 0.91688 0.25482 0.0
C252 C 0.41024 0.93496 0.26942 0.0
C253 C 0.44253 0.96345 0.2679 0.0
H254 H 0.36783 0.89485 0.25603 0.0
H255 H 0.68529 0.16228 0.23631 0.0
H256 H 0.53979 0.64227 0.45274 0.0
H257 H 0.4942 0.59315 0.43833 0.0
H258 H 0.55616 0.54612 0.43657 0.0
H259 H 0.60256 0.59613 0.45036 0.0
H260 H 0.52675 0.5376 0.40746 0.0
H261 H 0.48706 0.51935 0.46491 0.0
H262 H 0.47224 0.53305 0.49301 0.0
H263 H 0.3973 0.55037 0.4692 0.0
H264 H 0.412 0.53725 0.44091 0.0
H265 H 0.38093 0.37729 0.38396 0.0
H266 H 0.42912 0.42136 0.40006 0.0
H267 H 0.38945 0.48896 0.39349 0.0
H268 H 0.34162 0.44536 0.37718 0.0
H269 H 0.40798 0.48229 0.42819 0.0
H270 H 0.45247 0.50284 0.3702 0.0
H271 H 0.46732 0.4862 0.34292 0.0
H272 H 0.53334 0.4599 0.36962 0.0
H273 H 0.51849 0.47595 0.39711 0.0
C274 C 0.54362 0.62137 0.44938 0.0
C275 C 0.57463 0.62291 0.45272 0.0
C276 C 0.51745 0.59318 0.44123 0.0
C277 C 0.52144 0.56558 0.43663 0.0
C278 C 0.55243 0.56704 0.44003 0.0
C279 C 0.57887 0.59554 0.44795 0.0
C280 C 0.49367 0.53588 0.42771 0.0
C281 C 0.50091 0.52514 0.4122 0.0
C282 C 0.45982 0.51967 0.43375 0.0
C283 C 0.45084 0.52757 0.45076 0.0
C284 C 0.46759 0.52632 0.46564 0.0
C285 C 0.45918 0.53395 0.48161 0.0
C286 C 0.43389 0.54264 0.48288 0.0
C287 C 0.4169 0.54366 0.46819 0.0
C288 C 0.42523 0.53609 0.45219 0.0
C289 C 0.38264 0.40163 0.38588 0.0
C290 C 0.35762 0.40799 0.37932 0.0
C291 C 0.41012 0.42671 0.39504 0.0
C292 C 0.41271 0.4583 0.39792 0.0
C293 C 0.38778 0.46467 0.39139 0.0
C294 C 0.36061 0.43983 0.38203 0.0
C295 C 0.44116 0.48471 0.40795 0.0
C296 C 0.43396 0.49468 0.42364 0.0
C297 C 0.47506 0.49973 0.40225 0.0
C298 C 0.48406 0.49021 0.38572 0.0
C299 C 0.4699 0.4932 0.37027 0.0
C300 C 0.47838 0.48395 0.35477 0.0
C301 C 0.50118 0.4719 0.35454 0.0
C302 C 0.51563 0.46918 0.36982 0.0
C303 C 0.50722 0.47837 0.38536 0.0
H304 H 0.50772 0.46476 0.34253 0.0
H305 H 0.42742 0.54853 0.49526 0.0
H306 H 0.98701 0.60293 0.61386 0.0
H307 H 0.9875 0.55732 0.59767 0.0
H308 H 0.8798 0.49417 0.60562 0.0
H309 H 0.87935 0.53943 0.62228 0.0
H310 H 0.9095 0.45794 0.60926 0.0
H311 H 0.91202 0.53512 0.56746 0.0
H312 H 0.93222 0.59048 0.55353 0.0
H313 H 0.02892 0.59869 0.54423 0.0
H314 H 0.00951 0.54363 0.55842 0.0
H315 H 0.88538 0.34029 0.54324 0.0
H316 H 0.88326 0.38618 0.55842 0.0
H317 H 0.99244 0.44276 0.56047 0.0
H318 H 0.9948 0.39676 0.54545 0.0
H319 H 0.96004 0.48147 0.55102 0.0
H320 H 0.9547 0.40256 0.59427 0.0
H321 H 0.93093 0.34587 0.60729 0.0
H322 H 0.83405 0.33949 0.61213 0.0
H323 H 0.85715 0.39599 0.59891 0.0
C324 C 0.96348 0.57924 0.61224 0.0
C325 C 0.93311 0.57473 0.61925 0.0
C326 C 0.96375 0.55328 0.60291 0.0
C327 C 0.93357 0.52256 0.60016 0.0
C328 C 0.90335 0.5177 0.60753 0.0
C329 C 0.90313 0.54357 0.61702 0.0
C330 C 0.93354 0.49565 0.5895 0.0
C331 C 0.92014 0.46302 0.59644 0.0
C332 C 0.94765 0.50231 0.5728 0.0
C333 C 0.9594 0.53537 0.56416 0.0
C334 C 0.93768 0.54884 0.56256 0.0
C335 C 0.94898 0.58015 0.5546 0.0
C336 C 0.98184 0.59811 0.54801 0.0
C337 C 0.00347 0.58476 0.54935 0.0
C338 C 0.99234 0.55349 0.55735 0.0
C339 C 0.90894 0.36264 0.54678 0.0
C340 C 0.94027 0.36496 0.54325 0.0
C341 C 0.90767 0.38874 0.55547 0.0
C342 C 0.93769 0.41763 0.56062 0.0
C343 C 0.96904 0.42059 0.55657 0.0
C344 C 0.97033 0.39431 0.54806 0.0
C345 C 0.93634 0.44413 0.57088 0.0
C346 C 0.9494 0.47657 0.56383 0.0
C347 C 0.92138 0.43716 0.58734 0.0
C348 C 0.90758 0.40336 0.59546 0.0
C349 C 0.92827 0.38896 0.59799 0.0
C350 C 0.91493 0.35688 0.60543 0.0
C351 C 0.88099 0.33907 0.61051 0.0
C352 C 0.86033 0.35332 0.60818 0.0
C353 C 0.87354 0.38538 0.60073 0.0
H354 H 0.87073 0.31428 0.6163 0.0
H355 H 0.99053 0.62235 0.54184 0.0
H356 H 0.55086 0.94011 0.69108 0.0
H357 H 0.5071 0.94541 0.70674 0.0
H358 H 0.57279 0.98353 0.75078 0.0
H359 H 0.61688 0.97885 0.73513 0.0
H360 H 0.50542 0.92797 0.75732 0.0
H361 H 0.56191 0.03734 0.73009 0.0
H362 H 0.58564 0.07648 0.70559 0.0
H363 H 0.48739 0.03032 0.68201 0.0
H364 H 0.46315 0.99055 0.70627 0.0
H365 H 0.39625 0.96335 0.80651 0.0
H366 H 0.4461 0.9684 0.79191 0.0
H367 H 0.39653 0.95559 0.74309 0.0
H368 H 0.34744 0.95219 0.75759 0.0
H369 H 0.45882 0.00117 0.73973 0.0
H370 H 0.40213 0.88973 0.76433 0.0
H371 H 0.3763 0.84725 0.78735 0.0
H372 H 0.47146 0.89241 0.81399 0.0
H373 H 0.49776 0.93545 0.79122 0.0
C374 C 0.55607 0.94994 0.70404 0.0
C375 C 0.58722 0.95909 0.71191 0.0
C376 C 0.53114 0.95301 0.71293 0.0
C377 C 0.53685 0.96492 0.72987 0.0
C378 C 0.56801 0.97433 0.7377 0.0
C379 C 0.59315 0.97175 0.72873 0.0
C380 C 0.50969 0.96613 0.73964 0.0
C381 C 0.49552 0.94435 0.75369 0.0
C382 C 0.49629 0.98679 0.7345 0.0
C383 C 0.51079 0.01075 0.71993 0.0
C384 C 0.54542 0.03533 0.71961 0.0
C385 C 0.55895 0.05767 0.70578 0.0
C386 C 0.53806 0.05583 0.69223 0.0
C387 C 0.50356 0.03169 0.69251 0.0
C388 C 0.48991 0.00927 0.7063 0.0
C389 C 0.39612 0.96175 0.79267 0.0
C390 C 0.36799 0.95723 0.78317 0.0
C391 C 0.42452 0.96446 0.78433 0.0
C392 C 0.42489 0.96176 0.76639 0.0
C393 C 0.39691 0.95776 0.75692 0.0
C394 C 0.36882 0.9557 0.76522 0.0
C395 C 0.45412 0.96271 0.75744 0.0
C396 C 0.46873 0.98488 0.74349 0.0
C397 C 0.46754 0.9419 0.76248 0.0
C398 C 0.45181 0.91602 0.77617 0.0
C399 C 0.41748 0.89075 0.77516 0.0
C400 C 0.40276 0.86655 0.78815 0.0
C401 C 0.4222 0.86719 0.80215 0.0
C402 C 0.45642 0.89198 0.80315 0.0
C403 C 0.47125 0.91627 0.79021 0.0
H404 H 0.41076 0.84843 0.81219 0.0
H405 H 0.54858 0.07316 0.68154 0.0
H406 H 0.39449 0.3939 0.95311 0.0
H407 H 0.43977 0.44264 0.93812 0.0
H408 H 0.49659 0.3904 0.93406 0.0
H409 H 0.45204 0.34227 0.94972 0.0
H410 H 0.53782 0.45268 0.94126 0.0
H411 H 0.44998 0.39667 0.89976 0.0
H412 H 0.39213 0.37089 0.88796 0.0
H413 H 0.39518 0.46634 0.8919 0.0
H414 H 0.45292 0.4926 0.90394 0.0
H415 H 0.64675 0.54974 0.87343 0.0
H416 H 0.59965 0.50259 0.88844 0.0
H417 H 0.5609 0.56801 0.90316 0.0
H418 H 0.60825 0.61553 0.88831 0.0
H419 H 0.51084 0.50051 0.8905 0.0
H420 H 0.60287 0.55533 0.93143 0.0
H421 H 0.66224 0.5782 0.94045 0.0
H422 H 0.65199 0.47982 0.93465 0.0
H423 H 0.59272 0.45649 0.92529 0.0
C424 C 0.41674 0.39294 0.94908 0.0
C425 C 0.41977 0.36433 0.9525 0.0
C426 C 0.4425 0.42069 0.94043 0.0
C427 C 0.47132 0.41994 0.93466 0.0
C428 C 0.47459 0.39156 0.93836 0.0
C429 C 0.44911 0.36406 0.94727 0.0
C430 C 0.49803 0.44863 0.92472 0.0
C431 C 0.53186 0.46283 0.93007 0.0
C432 C 0.49034 0.46219 0.91018 0.0
C433 C 0.45563 0.44651 0.90292 0.0
C434 C 0.43821 0.4121 0.89824 0.0
C435 C 0.40546 0.39741 0.89148 0.0
C436 C 0.38995 0.41694 0.88923 0.0
C437 C 0.4072 0.45123 0.89368 0.0
C438 C 0.43996 0.46604 0.90045 0.0
C439 C 0.62803 0.55402 0.87973 0.0
C440 C 0.63118 0.58629 0.8798 0.0
C441 C 0.60124 0.52712 0.8883 0.0
C442 C 0.57709 0.53203 0.89697 0.0
C443 C 0.57941 0.56387 0.89653 0.0
C444 C 0.60645 0.59092 0.88811 0.0
C445 C 0.55025 0.50422 0.90709 0.0
C446 C 0.51653 0.49028 0.90176 0.0
C447 C 0.5581 0.49039 0.9214 0.0
C448 C 0.59344 0.50424 0.92751 0.0
C449 C 0.61334 0.53862 0.93197 0.0
C450 C 0.64697 0.55166 0.93716 0.0
C451 C 0.66091 0.53049 0.93807 0.0
C452 C 0.64117 0.4962 0.93391 0.0
C453 C 0.60755 0.48305 0.92868 0.0
H454 H 0.68698 0.54063 0.942 0.0
H455 H 0.36459 0.40552 0.884 0.0
H456 H 0.0612 0.2782 0.08878 0.0
H457 H 0.0909 0.27122 0.06436 0.0
H458 H 0.18291 0.36134 0.07945 0.0
H459 H 0.15333 0.36868 0.10373 0.0
H460 H 0.17224 0.35993 0.04514 0.0
H461 H 0.17084 0.2835 0.08858 0.0
H462 H 0.1437 0.23633 0.10921 0.0
H463 H 0.08672 0.16823 0.06845 0.0
H464 H 0.11322 0.21513 0.0476 0.0
H465 H 0.30528 0.34382 0.00926 0.0
H466 H 0.26395 0.34951 0.02666 0.0
H467 H 0.18348 0.25666 0.00529 0.0
H468 H 0.22494 0.25061 0.9879 0.0
H469 H 0.18117 0.25623 0.03967 0.0
H470 H 0.18874 0.33166 0.9956 0.0
H471 H 0.21679 0.37889 0.97509 0.0
H472 H 0.26254 0.44896 0.0167 0.0
H473 H 0.23516 0.40209 0.03746 0.0
C474 C 0.08776 0.2965 0.08688 0.0
C475 C 0.10503 0.32389 0.09819 0.0
C476 C 0.10467 0.29247 0.07295 0.0
C477 C 0.13914 0.31566 0.07017 0.0
C478 C 0.15628 0.34322 0.08135 0.0
C479 C 0.13941 0.34727 0.09526 0.0
C480 C 0.15774 0.311 0.05586 0.0
C481 C 0.1744 0.33736 0.04397 0.0
C482 C 0.15959 0.28108 0.05406 0.0
C483 C 0.1437 0.25289 0.06658 0.0
C484 C 0.15231 0.25852 0.08404 0.0
C485 C 0.13709 0.23183 0.09577 0.0
C486 C 0.11341 0.19932 0.09015 0.0
C487 C 0.105 0.19343 0.07279 0.0
C488 C 0.12012 0.22005 0.06101 0.0
C489 C 0.27873 0.32488 0.00805 0.0
C490 C 0.26832 0.29671 0.99727 0.0
C491 C 0.2551 0.32825 0.01794 0.0
C492 C 0.2206 0.30363 0.01717 0.0
C493 C 0.20999 0.27597 0.00603 0.0
C494 C 0.23365 0.27261 0.99608 0.0
C495 C 0.19633 0.30549 0.02912 0.0
C496 C 0.17859 0.27859 0.0406 0.0
C497 C 0.19354 0.33494 0.03054 0.0
C498 C 0.21004 0.36328 0.01809 0.0
C499 C 0.20498 0.3571 0.00038 0.0
C500 C 0.22073 0.38382 0.98871 0.0
C501 C 0.24148 0.4169 0.99459 0.0
C502 C 0.24646 0.42332 0.01216 0.0
C503 C 0.23079 0.39669 0.02389 0.0
H504 H 0.25365 0.43755 0.98553 0.0
H505 H 0.10166 0.17869 0.09924 0.0
H506 H 0.79491 0.06847 0.26089 0.0
H507 H 0.82908 0.09724 0.23561 0.0
H508 H 0.81471 0.18247 0.24512 0.0
H509 H 0.78023 0.15372 0.27026 0.0
H510 H 0.80757 0.16603 0.2114 0.0
H511 H 0.88752 0.18566 0.25648 0.0
H512 H 0.91358 0.16927 0.27949 0.0
H513 H 0.93609 0.11202 0.24348 0.0
H514 H 0.90972 0.12771 0.22028 0.0
H515 H 0.94965 0.30229 0.17044 0.0
H516 H 0.90457 0.26191 0.18921 0.0
H517 H 0.9252 0.18337 0.17328 0.0
H518 H 0.97038 0.22369 0.15443 0.0
H519 H 0.92653 0.19075 0.20809 0.0
H520 H 0.85192 0.17756 0.16219 0.0
H521 H 0.827 0.19599 0.13954 0.0
H522 H 0.79555 0.24321 0.17724 0.0
H523 H 0.82073 0.2255 0.20012 0.0
C524 C 0.79903 0.09333 0.25758 0.0
C525 C 0.78513 0.10898 0.26759 0.0
C526 C 0.81855 0.10972 0.24315 0.0
C527 C 0.82461 0.14208 0.23859 0.0
C528 C 0.81027 0.15748 0.24842 0.0
C529 C 0.79077 0.14112 0.26283 0.0
C530 C 0.84667 0.1604 0.22384 0.0
C531 C 0.83366 0.17167 0.21071 0.0
C532 C 0.88042 0.16698 0.22277 0.0
C533 C 0.89628 0.15752 0.23669 0.0
C534 C 0.89776 0.16933 0.2535 0.0
C535 C 0.91264 0.16021 0.26656 0.0
C536 C 0.92638 0.13952 0.26296 0.0
C537 C 0.92536 0.12798 0.24626 0.0
C538 C 0.91047 0.13699 0.23315 0.0
C539 C 0.94412 0.27625 0.17067 0.0
C540 C 0.9636 0.26614 0.16105 0.0
C541 C 0.91828 0.25318 0.18135 0.0
C542 C 0.91154 0.21965 0.18259 0.0
C543 C 0.93003 0.20914 0.17246 0.0
C544 C 0.95572 0.23216 0.16168 0.0
C545 C 0.88758 0.19673 0.1957 0.0
C546 C 0.90029 0.18468 0.20861 0.0
C547 C 0.85367 0.18968 0.19659 0.0
C548 C 0.83848 0.20041 0.18287 0.0
C549 C 0.83996 0.19212 0.16565 0.0
C550 C 0.82573 0.20239 0.15277 0.0
C551 C 0.80977 0.22082 0.15694 0.0
C552 C 0.80794 0.22896 0.17402 0.0
C553 C 0.82216 0.21877 0.18696 0.0
H554 H 0.79876 0.22874 0.14695 0.0
H555 H 0.93791 0.13251 0.27309 0.0
H556 H 0.72644 0.78233 0.4272 0.0
H557 H 0.73909 0.82138 0.40303 0.0
H558 H 0.64381 0.81816 0.41076 0.0
H559 H 0.63125 0.77969 0.435 0.0
H560 H 0.65831 0.81008 0.37583 0.0
H561 H 0.71043 0.88282 0.42526 0.0
H562 H 0.74896 0.90371 0.45012 0.0
H563 H 0.83384 0.92879 0.41722 0.0
H564 H 0.79569 0.90757 0.39219 0.0
H565 H 0.66317 0.95252 0.33942 0.0
H566 H 0.65938 0.90645 0.35688 0.0
H567 H 0.76445 0.93974 0.34644 0.0
H568 H 0.76858 0.98655 0.32911 0.0
H569 H 0.75179 0.92932 0.37969 0.0
H570 H 0.70155 0.86526 0.32955 0.0
H571 H 0.66372 0.84447 0.30445 0.0
H572 H 0.57679 0.80222 0.33752 0.0
H573 H 0.61408 0.82318 0.36284 0.0
C574 C 0.70823 0.78997 0.42371 0.0
C575 C 0.67794 0.77815 0.43298 0.0
C576 C 0.71548 0.8122 0.40994 0.0
C577 C 0.69234 0.82253 0.40517 0.0
C578 C 0.66188 0.81032 0.41424 0.0
C579 C 0.65485 0.78853 0.42813 0.0
C580 C 0.69996 0.84679 0.391 0.0
C581 C 0.67866 0.8362 0.37663 0.0
C582 C 0.72727 0.88044 0.39187 0.0
C583 C 0.75018 0.89319 0.4069 0.0
C584 C 0.73727 0.89247 0.42336 0.0
C585 C 0.75904 0.90444 0.43747 0.0
C586 C 0.79381 0.91745 0.43526 0.0
C587 C 0.80689 0.91862 0.41892 0.0
C588 C 0.78521 0.90663 0.40477 0.0
C589 C 0.68537 0.94979 0.34064 0.0
C590 C 0.71619 0.97313 0.33293 0.0
C591 C 0.68312 0.9233 0.35054 0.0
C592 C 0.71153 0.91939 0.35281 0.0
C593 C 0.7422 0.94223 0.3448 0.0
C594 C 0.74449 0.96886 0.33488 0.0
C595 C 0.70952 0.89294 0.3646 0.0
C596 C 0.73186 0.90306 0.37859 0.0
C597 C 0.68329 0.85876 0.36329 0.0
C598 C 0.66066 0.84599 0.34811 0.0
C599 C 0.67437 0.85175 0.33148 0.0
C600 C 0.65302 0.8399 0.3172 0.0
C601 C 0.61788 0.82208 0.31939 0.0
C602 C 0.60402 0.81602 0.33585 0.0
C603 C 0.62526 0.82784 0.35017 0.0
H604 H 0.60139 0.81292 0.30832 0.0
H605 H 0.81064 0.92673 0.4462 0.0
H606 H 0.69006 0.66226 0.51763 0.0
H607 H 0.73409 0.6643 0.53622 0.0
H608 H 0.81016 0.7242 0.49868 0.0
H609 H 0.7661 0.72276 0.47997 0.0
H610 H 0.81655 0.66873 0.51706 0.0
H611 H 0.80903 0.76815 0.5264 0.0
H612 H 0.78041 0.80126 0.53096 0.0
H613 H 0.73661 0.74694 0.57762 0.0
H614 H 0.76446 0.713 0.57317 0.0
H615 H 0.93625 0.70522 0.58604 0.0
H616 H 0.90953 0.71532 0.5611 0.0
H617 H 0.81436 0.67086 0.58826 0.0
H618 H 0.84068 0.66082 0.61302 0.0
H619 H 0.82857 0.72954 0.57169 0.0
H620 H 0.83048 0.62538 0.55982 0.0
H621 H 0.85902 0.59218 0.55511 0.0
H622 H 0.91458 0.65675 0.51296 0.0
H623 H 0.88672 0.69065 0.51761 0.0
C624 C 0.71604 0.67531 0.51315 0.0
C625 C 0.7247 0.69256 0.49741 0.0
C626 C 0.74114 0.67651 0.5238 0.0
C627 C 0.77526 0.69468 0.51884 0.0
C628 C 0.78389 0.7101 0.50268 0.0
C629 C 0.75874 0.70926 0.49205 0.0
C630 C 0.80165 0.69958 0.53132 0.0
C631 C 0.81987 0.68264 0.52885 0.0
C632 C 0.80572 0.71769 0.54666 0.0
C633 C 0.78866 0.73784 0.54937 0.0
C634 C 0.793 0.76299 0.53753 0.0
C635 C 0.77697 0.78195 0.54012 0.0
C636 C 0.75672 0.7762 0.55457 0.0
C637 C 0.75233 0.75137 0.56643 0.0
C638 C 0.76825 0.73227 0.56389 0.0
C639 C 0.90972 0.69791 0.58668 0.0
C640 C 0.89048 0.68215 0.60141 0.0
C641 C 0.8945 0.70357 0.57245 0.0
C642 C 0.85996 0.69365 0.57284 0.0
C643 C 0.84107 0.67876 0.58772 0.0
C644 C 0.85612 0.67293 0.60183 0.0
C645 C 0.84264 0.69765 0.55775 0.0
C646 C 0.82601 0.71631 0.55973 0.0
C647 C 0.84022 0.68124 0.54198 0.0
C648 C 0.85686 0.6608 0.5392 0.0
C649 C 0.84901 0.63268 0.54965 0.0
C650 C 0.86502 0.6137 0.54698 0.0
C651 C 0.88867 0.62242 0.53378 0.0
C652 C 0.89632 0.65008 0.52321 0.0
C653 C 0.88043 0.66918 0.52585 0.0
H654 H 0.90098 0.60766 0.53169 0.0
H655 H 0.74459 0.79112 0.55662 0.0
H656 H 0.02617 0.76657 0.6567 0.0
H657 H 0.06995 0.80476 0.67683 0.0
H658 H 0.06208 0.71865 0.70397 0.0
H659 H 0.01835 0.68044 0.68401 0.0
H660 H 0.0562 0.76287 0.72517 0.0
H661 H 0.13087 0.76778 0.68028 0.0
H662 H 0.1533 0.77702 0.65082 0.0
H663 H 0.17538 0.88024 0.6527 0.0
H664 H 0.15263 0.87148 0.68211 0.0
H665 H 0.19655 0.83986 0.78082 0.0
H666 H 0.15628 0.80651 0.75835 0.0
H667 H 0.17096 0.89825 0.73445 0.0
H668 H 0.2116 0.93191 0.75689 0.0
H669 H 0.17275 0.85418 0.71116 0.0
H670 H 0.09994 0.85019 0.75618 0.0
H671 H 0.07743 0.84138 0.78561 0.0
H672 H 0.05115 0.73691 0.78337 0.0
H673 H 0.07397 0.74522 0.754 0.0
C674 C 0.03422 0.75583 0.66679 0.0
C675 C 0.01879 0.72055 0.66884 0.0
C676 C 0.05922 0.77765 0.67825 0.0
C677 C 0.06917 0.76448 0.69189 0.0
C678 C 0.05464 0.72929 0.69357 0.0
C679 C 0.02977 0.70751 0.68211 0.0
C680 C 0.09306 0.78714 0.7051 0.0
C681 C 0.08184 0.78256 0.72214 0.0
C682 C 0.12605 0.81355 0.70102 0.0
C683 C 0.13969 0.81885 0.68333 0.0
C684 C 0.14021 0.79236 0.67436 0.0
C685 C 0.15305 0.79753 0.65768 0.0
C686 C 0.16566 0.82917 0.64987 0.0
C687 C 0.16555 0.85573 0.65875 0.0
C688 C 0.15271 0.85068 0.67543 0.0
C689 C 0.1911 0.85294 0.77083 0.0
C690 C 0.2071 0.88846 0.77063 0.0
C691 C 0.16804 0.83386 0.75803 0.0
C692 C 0.16046 0.84992 0.74483 0.0
C693 C 0.17648 0.88541 0.74455 0.0
C694 C 0.19952 0.90455 0.7574 0.0
C695 C 0.13604 0.82948 0.73126 0.0
C696 C 0.14707 0.83456 0.71417 0.0
C697 C 0.10278 0.80355 0.73527 0.0
C698 C 0.08897 0.79842 0.75293 0.0
C699 C 0.08963 0.82541 0.76201 0.0
C700 C 0.07676 0.82049 0.77867 0.0
C701 C 0.06295 0.78863 0.78637 0.0
C702 C 0.0619 0.76159 0.7774 0.0
C703 C 0.07477 0.76638 0.76074 0.0
H704 H 0.053 0.78487 0.79927 0.0
H705 H 0.17561 0.83313 0.63696 0.0
H706 H 0.34669 0.04775 0.83891 0.0
H707 H 0.34845 0.09069 0.85822 0.0
H708 H 0.25726 0.07936 0.83534 0.0
H709 H 0.25494 0.03578 0.81601 0.0
H710 H 0.3151 0.15178 0.84634 0.0
H711 H 0.23865 0.03764 0.86626 0.0
H712 H 0.22308 0.97841 0.87204 0.0
H713 H 0.30759 0.01231 0.90635 0.0
H714 H 0.32393 0.07181 0.90057 0.0
H715 H 0.28406 0.22526 0.92084 0.0
H716 H 0.27525 0.18889 0.89594 0.0
H717 H 0.3437 0.15937 0.91772 0.0
H718 H 0.35196 0.19485 0.94264 0.0
H719 H 0.28946 0.10598 0.90558 0.0
H720 H 0.36785 0.21898 0.88539 0.0
H721 H 0.38662 0.27889 0.87925 0.0
H722 H 0.30188 0.2486 0.84547 0.0
H723 H 0.28235 0.18847 0.8516 0.0
C724 C 0.32747 0.05497 0.83765 0.0
C725 C 0.30044 0.03813 0.8261 0.0
C726 C 0.32855 0.07952 0.84868 0.0
C727 C 0.30282 0.08783 0.84824 0.0
C728 C 0.27733 0.07321 0.83579 0.0
C729 C 0.27603 0.04832 0.82481 0.0
C730 C 0.3004 0.10812 0.86231 0.0
C731 C 0.30887 0.14174 0.85926 0.0
C732 C 0.29274 0.09492 0.87912 0.0
C733 C 0.28267 0.05916 0.88286 0.0
C734 C 0.25407 0.03246 0.87493 0.0
C735 C 0.24508 0.99884 0.87822 0.0
C736 C 0.2644 0.99159 0.88951 0.0
C737 C 0.29267 0.01796 0.89759 0.0
C738 C 0.30178 0.05164 0.89433 0.0
C739 C 0.29705 0.21085 0.92031 0.0
C740 C 0.31868 0.21285 0.93366 0.0
C741 C 0.29215 0.19025 0.90606 0.0
C742 C 0.30907 0.17166 0.90491 0.0
C743 C 0.33033 0.17343 0.91835 0.0
C744 C 0.33508 0.19378 0.93258 0.0
C745 C 0.3049 0.15019 0.88981 0.0
C746 C 0.29515 0.11611 0.89266 0.0
C747 C 0.3116 0.16315 0.87287 0.0
C748 C 0.32342 0.19926 0.86911 0.0
C749 C 0.35308 0.2251 0.87676 0.0
C750 C 0.36388 0.2591 0.87326 0.0
C751 C 0.34539 0.26755 0.86202 0.0
C752 C 0.31613 0.24201 0.85421 0.0
C753 C 0.30519 0.20798 0.85768 0.0
H754 H 0.35379 0.29388 0.85934 0.0
H755 H 0.25741 0.96554 0.89205 0.0
H756 H 0.65188 0.71623 0.83748 0.0
H757 H 0.64612 0.75381 0.81716 0.0
H758 H 0.75479 0.81805 0.81577 0.0
H759 H 0.76077 0.78073 0.83628 0.0
H760 H 0.71958 0.85417 0.81304 0.0
H761 H 0.71917 0.75731 0.78859 0.0
H762 H 0.69872 0.69615 0.78648 0.0
H763 H 0.60028 0.67783 0.77157 0.0
H764 H 0.61961 0.73871 0.77446 0.0
H765 H 0.72876 0.92662 0.73082 0.0
H766 H 0.73715 0.89797 0.75528 0.0
H767 H 0.63051 0.82364 0.75504 0.0
H768 H 0.62215 0.85165 0.73038 0.0
H769 H 0.66697 0.7938 0.7588 0.0
H770 H 0.6656 0.8891 0.78464 0.0
H771 H 0.6841 0.94959 0.78857 0.0
H772 H 0.78475 0.97049 0.80048 0.0
H773 H 0.76694 0.91017 0.7964 0.0
C774 C 0.67451 0.7388 0.83318 0.0
C775 C 0.7068 0.74531 0.83824 0.0
C776 C 0.67117 0.76023 0.82158 0.0
C777 C 0.70008 0.78826 0.81474 0.0
C778 C 0.73221 0.79643 0.82087 0.0
C779 C 0.73558 0.77504 0.83254 0.0
C780 C 0.69693 0.8064 0.79978 0.0
C781 C 0.70839 0.84114 0.80111 0.0
C782 C 0.68206 0.78913 0.7843 0.0
C783 C 0.67076 0.75262 0.78194 0.0
C784 C 0.69305 0.74024 0.78504 0.0
C785 C 0.68163 0.70559 0.78376 0.0
C786 C 0.64825 0.68313 0.77886 0.0
C787 C 0.62614 0.69526 0.77536 0.0
C788 C 0.63727 0.72983 0.77691 0.0
C789 C 0.70714 0.90415 0.73599 0.0
C790 C 0.6748 0.89137 0.72872 0.0
C791 C 0.71193 0.88791 0.75001 0.0
C792 C 0.68437 0.85891 0.75712 0.0
C793 C 0.65213 0.846 0.74977 0.0
C794 C 0.64738 0.86205 0.7357 0.0
C795 C 0.68901 0.8416 0.77209 0.0
C796 C 0.67808 0.80694 0.77072 0.0
C797 C 0.7043 0.85894 0.78751 0.0
C798 C 0.71501 0.89518 0.79004 0.0
C799 C 0.69174 0.90664 0.78797 0.0
C800 C 0.70209 0.94088 0.79025 0.0
C801 C 0.73561 0.96388 0.79473 0.0
C802 C 0.75881 0.95266 0.79699 0.0
C803 C 0.7486 0.91844 0.79471 0.0
H804 H 0.74357 0.99038 0.79649 0.0
H805 H 0.63953 0.65634 0.77776 0.0
H806 H 0.77398 0.63566 0.90149 0.0
H807 H 0.80813 0.64374 0.92701 0.0
H808 H 0.81968 0.74274 0.9345 0.0
H809 H 0.78515 0.73471 0.90887 0.0
H810 H 0.88034 0.74268 0.93603 0.0
H811 H 0.77174 0.68297 0.96165 0.0
H812 H 0.71215 0.63819 0.96527 0.0
H813 H 0.7428 0.56351 0.96991 0.0
H814 H 0.80258 0.60775 0.96604 0.0
H815 H 0.97455 0.75651 0.01076 0.0
H816 H 0.9275 0.75366 0.99423 0.0
H817 H 0.89993 0.65308 0.97718 0.0
H818 H 0.94676 0.65569 0.99368 0.0
H819 H 0.84376 0.66012 0.98393 0.0
H820 H 0.9503 0.71858 0.95302 0.0
H821 H 0.01008 0.76299 0.9494 0.0
H822 H 0.98244 0.83987 0.95453 0.0
H823 H 0.92252 0.79585 0.95844 0.0
C824 C 0.78365 0.65911 0.9086 0.0
C825 C 0.77704 0.68463 0.90318 0.0
C826 C 0.80293 0.66357 0.92325 0.0
C827 C 0.81607 0.69367 0.93273 0.0
C828 C 0.80954 0.71925 0.92738 0.0
C829 C 0.78988 0.71465 0.91278 0.0
C830 C 0.83835 0.69885 0.94757 0.0
C831 C 0.87213 0.72516 0.94674 0.0
C832 C 0.82768 0.67559 0.96136 0.0
C833 C 0.7917 0.64872 0.96347 0.0
C834 C 0.76578 0.65696 0.96328 0.0
C835 C 0.73197 0.63168 0.96542 0.0
C836 C 0.72372 0.59806 0.96786 0.0
C837 C 0.74926 0.5896 0.96807 0.0
C838 C 0.78312 0.61478 0.96592 0.0
C839 C 0.95805 0.73354 0.00375 0.0
C840 C 0.96449 0.70645 0.00334 0.0
C841 C 0.93125 0.73199 0.99431 0.0
C842 C 0.91056 0.70332 0.98434 0.0
C843 C 0.91564 0.67542 0.9848 0.0
C844 C 0.94249 0.67701 0.99416 0.0
C845 C 0.88578 0.70345 0.97214 0.0
C846 C 0.85166 0.67809 0.97343 0.0
C847 C 0.89609 0.72752 0.95874 0.0
C848 C 0.93203 0.75397 0.95624 0.0
C849 C 0.95702 0.74496 0.95351 0.0
C850 C 0.99092 0.77005 0.95139 0.0
C851 C 7e-05 0.80423 0.95179 0.0
C852 C 0.97533 0.81338 0.95426 0.0
C853 C 0.9414 0.78838 0.95644 0.0
H854 H 0.02632 0.82362 0.95014 0.0
H855 H 0.69755 0.57856 0.96962 0.0
H856 H 0.23674 0.96143 0.17567 0.0
H857 H 0.1991 0.91727 0.15556 0.0
H858 H 0.28584 0.92215 0.13053 0.0
H859 H 0.3235 0.96623 0.15048 0.0
H860 H 0.24436 0.92958 0.10817 0.0
H861 H 0.23343 0.85379 0.15353 0.0
H862 H 0.2218 0.83106 0.18295 0.0
H863 H 0.11987 0.81246 0.17929 0.0
H864 H 0.13105 0.83554 0.14991 0.0
H865 H 0.16221 0.79104 0.05152 0.0
H866 H 0.19653 0.82819 0.07483 0.0
H867 H 0.10722 0.82216 0.09735 0.0
H868 H 0.07262 0.78483 0.07404 0.0
H869 H 0.14836 0.81501 0.12134 0.0
H870 H 0.15924 0.89093 0.07619 0.0
H871 H 0.17062 0.91359 0.04675 0.0
H872 H 0.27264 0.93241 0.05019 0.0
H873 H 0.26171 0.90937 0.07958 0.0
C874 C 0.24771 0.95258 0.16609 0.0
C875 C 0.28304 0.96737 0.16457 0.0
C876 C 0.2262 0.92735 0.15463 0.0
C877 C 0.23974 0.91655 0.14154 0.0
C878 C 0.27493 0.93026 0.1405 0.0
C879 C 0.29638 0.95535 0.15195 0.0
C880 C 0.21758 0.89303 0.12808 0.0
C881 C 0.22368 0.90433 0.11103 0.0
C882 C 0.18998 0.86056 0.1319 0.0
C883 C 0.1832 0.84675 0.14958 0.0
C884 C 0.20863 0.84516 0.15905 0.0
C885 C 0.2021 0.83214 0.17571 0.0
C886 C 0.17014 0.82042 0.18301 0.0
C887 C 0.14463 0.82161 0.17364 0.0
C888 C 0.15104 0.83463 0.15697 0.0
C889 C 0.14988 0.79763 0.06143 0.0
C890 C 0.1148 0.78523 0.06093 0.0
C891 C 0.1695 0.81886 0.07471 0.0
C892 C 0.1544 0.82807 0.08772 0.0
C893 C 0.11929 0.81531 0.08741 0.0
C894 C 0.09964 0.79418 0.07406 0.0
C895 C 0.17548 0.85147 0.10147 0.0
C896 C 0.16909 0.84025 0.11853 0.0
C897 C 0.20283 0.8841 0.09769 0.0
C898 C 0.20954 0.8981 0.08003 0.0
C899 C 0.18401 0.89963 0.07062 0.0
C900 C 0.1904 0.91259 0.05395 0.0
C901 C 0.22231 0.92435 0.04659 0.0
C902 C 0.24792 0.92325 0.0559 0.0
C903 C 0.24166 0.91026 0.07257 0.0
H904 H 0.2272 0.93438 0.03368 0.0
H905 H 0.16513 0.81033 0.1959 0.0
H906 H 0.37705 0.15265 0.22693 0.0
H907 H 0.36732 0.18127 0.25084 0.0
H908 H 0.26902 0.09337 0.25936 0.0
H909 H 0.27853 0.0645 0.2353 0.0
H910 H 0.26707 0.15249 0.25991 0.0
H911 H 0.33203 0.10904 0.2862 0.0
H912 H 0.37963 0.0982 0.28921 0.0
H913 H 0.44951 0.20512 0.29241 0.0
H914 H 0.40236 0.21665 0.28916 0.0
H915 H 0.24435 0.2196 0.33746 0.0
H916 H 0.25176 0.18094 0.31855 0.0
H917 H 0.34982 0.2626 0.30329 0.0
H918 H 0.34259 0.30142 0.32213 0.0
H919 H 0.34868 0.20117 0.3081 0.0
H920 H 0.28494 0.24451 0.27886 0.0
H921 H 0.23788 0.25613 0.27557 0.0
H922 H 0.16613 0.14953 0.27767 0.0
H923 H 0.21279 0.13732 0.28126 0.0
C924 C 0.35335 0.13938 0.23389 0.0
C925 C 0.32855 0.10633 0.22928 0.0
C926 C 0.34792 0.1557 0.2476 0.0
C927 C 0.31764 0.13925 0.25699 0.0
C928 C 0.29261 0.1064 0.2523 0.0
C929 C 0.29809 0.08997 0.23859 0.0
C930 C 0.31204 0.15689 0.27146 0.0
C931 C 0.28451 0.16254 0.27063 0.0
C932 C 0.33521 0.17052 0.28525 0.0
C933 C 0.36366 0.16371 0.2873 0.0
C934 C 0.35757 0.13026 0.28741 0.0
C935 C 0.38447 0.12399 0.28918 0.0
C936 C 0.41758 0.15096 0.29096 0.0
C937 C 0.42385 0.18426 0.29102 0.0
C938 C 0.39704 0.19068 0.28923 0.0
C939 C 0.26772 0.22918 0.33028 0.0
C940 C 0.2928 0.26355 0.33114 0.0
C941 C 0.27185 0.2071 0.31947 0.0
C942 C 0.30116 0.21906 0.30941 0.0
C943 C 0.32702 0.25294 0.31095 0.0
C944 C 0.3228 0.27508 0.32167 0.0
C945 C 0.30397 0.197 0.29641 0.0
C946 C 0.33099 0.19064 0.2975 0.0
C947 C 0.28039 0.18276 0.28283 0.0
C948 C 0.25232 0.19003 0.28054 0.0
C949 C 0.25911 0.22357 0.27877 0.0
C950 C 0.23252 0.23026 0.27683 0.0
C951 C 0.19903 0.20359 0.27646 0.0
C952 C 0.19208 0.17016 0.27799 0.0
C953 C 0.21859 0.16334 0.27998 0.0
H954 H 0.17847 0.20882 0.27495 0.0
H955 H 0.43837 0.14604 0.29233 0.0
H956 H 0.20978 0.35834 0.39673 0.0
H957 H 0.1752 0.34786 0.4224 0.0
H958 H 0.16386 0.24846 0.42724 0.0
H959 H 0.19907 0.259 0.40159 0.0
H960 H 0.10175 0.25198 0.42989 0.0
H961 H 0.21319 0.30204 0.45406 0.0
H962 H 0.27383 0.34475 0.45632 0.0
H963 H 0.24848 0.42217 0.46597 0.0
H964 H 0.18766 0.38001 0.4635 0.0
H965 H 0.01168 0.23191 0.50657 0.0
H966 H 0.05566 0.23281 0.48817 0.0
H967 H 0.0975 0.34007 0.47997 0.0
H968 H 0.05432 0.3395 0.49863 0.0
H969 H 0.1469 0.32553 0.48125 0.0
H970 H 0.03938 0.28131 0.45231 0.0
H971 H 0.97811 0.24221 0.44846 0.0
H972 H 0.99535 0.15791 0.44596 0.0
H973 H 0.05671 0.19651 0.45006 0.0
C974 C 0.19991 0.33423 0.40324 0.0
C975 C 0.20707 0.30946 0.39719 0.0
C976 C 0.18033 0.32836 0.41793 0.0
C977 C 0.1673 0.29753 0.42674 0.0
C978 C 0.17388 0.27246 0.4206 0.0
C979 C 0.19394 0.27852 0.40601 0.0
C980 C 0.14626 0.29162 0.44217 0.0
C981 C 0.11171 0.26743 0.44132 0.0
C982 C 0.15927 0.31247 0.45682 0.0
C983 C 0.19584 0.33787 0.45849 0.0
C984 C 0.22053 0.32821 0.45654 0.0
C985 C 0.25495 0.35232 0.45788 0.0
C986 C 0.26501 0.38616 0.46126 0.0
C987 C 0.24065 0.39595 0.46335 0.0
C988 C 0.2062 0.37194 0.46201 0.0
C989 C 0.03073 0.2558 0.50114 0.0
C990 C 0.02936 0.28556 0.50385 0.0
C991 C 0.05574 0.25625 0.49058 0.0
C992 C 0.07942 0.28637 0.48242 0.0
C993 C 0.07943 0.31651 0.48608 0.0
C994 C 0.05465 0.31613 0.49672 0.0
C995 C 0.10218 0.28625 0.46888 0.0
C996 C 0.13704 0.30944 0.47003 0.0
C997 C 0.08936 0.26492 0.45433 0.0
C998 C 0.05255 0.24172 0.4517 0.0
C999 C 0.03006 0.2544 0.45106 0.0
C1000 C 0.99533 0.23235 0.44882 0.0
C1001 C 0.98284 0.19759 0.44701 0.0
C1002 C 0.00506 0.18483 0.44739 0.0
C1003 C 0.03981 0.20678 0.44968 0.0
H1004 H 0.95594 0.18055 0.44528 0.0
H1005 H 0.29166 0.40479 0.46229 0.0
H1006 H 0.85885 0.17837 0.55 0.0
H1007 H 0.82848 0.1445 0.57497 0.0
H1008 H 0.91153 0.21148 0.60763 0.0
H1009 H 0.94209 0.24612 0.58261 0.0
H1010 H 0.87873 0.13471 0.61312 0.0
H1011 H 0.85474 0.22599 0.6102 0.0
H1012 H 0.83922 0.26393 0.59523 0.0
H1013 H 0.74339 0.17861 0.58107 0.0
H1014 H 0.75863 0.14005 0.59564 0.0
H1015 H 0.76789 0.04659 0.68286 0.0
H1016 H 0.81029 0.09403 0.66574 0.0
H1017 H 0.73679 0.06868 0.62532 0.0
H1018 H 0.69428 0.02237 0.64254 0.0
H1019 H 0.77239 0.13386 0.62796 0.0
H1020 H 0.79822 0.04264 0.62574 0.0
H1021 H 0.81279 0.00182 0.63822 0.0
H1022 H 0.9033 0.08368 0.66004 0.0
H1023 H 0.88902 0.12497 0.64784 0.0
C1024 C 0.87091 0.1857 0.56244 0.0
C1025 C 0.90276 0.21496 0.56439 0.0
C1026 C 0.8535 0.16637 0.57668 0.0
C1027 C 0.86773 0.17576 0.59307 0.0
C1028 C 0.90023 0.20398 0.59503 0.0
C1029 C 0.91756 0.22367 0.58076 0.0
C1030 C 0.84746 0.15676 0.6081 0.0
C1031 C 0.85587 0.135 0.6167 0.0
C1032 C 0.81745 0.15691 0.61245 0.0
C1033 C 0.80794 0.1801 0.60393 0.0
C1034 C 0.83047 0.21528 0.60379 0.0
C1035 C 0.8217 0.23691 0.59539 0.0
C1036 C 0.79035 0.2237 0.5872 0.0
C1037 C 0.76767 0.18882 0.58742 0.0
C1038 C 0.77635 0.16706 0.59575 0.0
C1039 C 0.76076 0.05151 0.67041 0.0
C1040 C 0.72787 0.03072 0.66399 0.0
C1041 C 0.78502 0.07847 0.66061 0.0
C1042 C 0.77691 0.0846 0.64411 0.0
C1043 C 0.74369 0.06452 0.638 0.0
C1044 C 0.71941 0.03796 0.64785 0.0
C1045 C 0.80295 0.11079 0.63274 0.0
C1046 C 0.79563 0.134 0.62476 0.0
C1047 C 0.83373 0.11161 0.6288 0.0
C1048 C 0.84235 0.08683 0.63607 0.0
C1049 C 0.8211 0.0519 0.6333 0.0
C1050 C 0.82932 0.02869 0.6403 0.0
C1051 C 0.85889 0.04014 0.64996 0.0
C1052 C 0.88036 0.07484 0.65259 0.0
C1053 C 0.87223 0.09815 0.64563 0.0
H1054 H 0.86522 0.02214 0.65537 0.0
H1055 H 0.78362 0.24049 0.58071 0.0
H1056 H 0.26348 0.40144 0.30901 0.0
H1057 H 0.24192 0.40751 0.28116 0.0
H1058 H 0.17381 0.29954 0.27937 0.0
H1059 H 0.19465 0.29336 0.30725 0.0
H1060 H 0.21446 0.32932 0.24892 0.0
H1061 H 0.14111 0.34478 0.28845 0.0
H1062 H 0.12954 0.37241 0.31259 0.0
H1063 H 0.18078 0.46786 0.28627 0.0
H1064 H 0.19308 0.44085 0.26206 0.0
H1065 H 0.09524 0.29698 0.18467 0.0
H1066 H 0.12586 0.30206 0.21109 0.0
H1067 H 0.16922 0.41064 0.20992 0.0
H1068 H 0.13767 0.40555 0.18355 0.0
H1069 H 0.14839 0.38794 0.2411 0.0
H1070 H 0.21726 0.37334 0.20042 0.0
H1071 H 0.23104 0.34781 0.17612 0.0
H1072 H 0.19277 0.25448 0.20395 0.0
H1073 H 0.17828 0.27927 0.22833 0.0
C1074 C 0.24374 0.37908 0.30271 0.0
C1075 C 0.23061 0.34696 0.31029 0.0
C1076 C 0.23149 0.38259 0.28685 0.0
C1077 C 0.20633 0.35396 0.27827 0.0
C1078 C 0.19326 0.3219 0.28582 0.0
C1079 C 0.20505 0.31846 0.30176 0.0
C1080 C 0.19374 0.3571 0.2613 0.0
C1081 C 0.19981 0.3419 0.24717 0.0
C1082 C 0.17582 0.37468 0.25901 0.0
C1083 C 0.16839 0.39089 0.27355 0.0
C1084 C 0.15021 0.37173 0.28789 0.0
C1085 C 0.14345 0.38725 0.30157 0.0
C1086 C 0.15452 0.42189 0.30099 0.0
C1087 C 0.17228 0.44105 0.28671 0.0
C1088 C 0.17914 0.42564 0.27301 0.0
C1089 C 0.11147 0.32199 0.18995 0.0
C1090 C 0.11417 0.3509 0.18201 0.0
C1091 C 0.12913 0.32489 0.20503 0.0
C1092 C 0.15032 0.35679 0.21237 0.0
C1093 C 0.15313 0.38578 0.20445 0.0
C1094 C 0.1352 0.38286 0.18937 0.0
C1095 C 0.16835 0.35938 0.22864 0.0
C1096 C 0.16343 0.37571 0.24269 0.0
C1097 C 0.18777 0.3432 0.23081 0.0
C1098 C 0.19645 0.32812 0.21617 0.0
C1099 C 0.21154 0.34729 0.20131 0.0
C1100 C 0.21951 0.33296 0.18753 0.0
C1101 C 0.21272 0.29953 0.18848 0.0
C1102 C 0.198 0.28037 0.20323 0.0
C1103 C 0.18993 0.29457 0.21705 0.0
H1104 H 0.21893 0.28848 0.17779 0.0
H1105 H 0.14924 0.43386 0.31159 0.0
H1106 H 0.83872 0.23095 0.48849 0.0
H1107 H 0.80823 0.2087 0.4615 0.0
H1108 H 0.90343 0.25152 0.4344 0.0
H1109 H 0.93393 0.27483 0.46124 0.0
H1110 H 0.859 0.25806 0.41576 0.0
H1111 H 0.85927 0.16703 0.44697 0.0
H1112 H 0.84869 0.12961 0.47183 0.0
H1113 H 0.74228 0.09551 0.46904 0.0
H1114 H 0.7523 0.13308 0.44428 0.0
H1115 H 0.81577 0.14725 0.34432 0.0
H1116 H 0.83859 0.18028 0.37056 0.0
H1117 H 0.73717 0.14081 0.39011 0.0
H1118 H 0.71411 0.10768 0.36383 0.0
H1119 H 0.77989 0.13406 0.41279 0.0
H1120 H 0.78094 0.22171 0.37859 0.0
H1121 H 0.79367 0.2581 0.35312 0.0
H1122 H 0.9002 0.29738 0.36073 0.0
H1123 H 0.8881 0.26085 0.38613 0.0
C1124 C 0.85308 0.23593 0.47673 0.0
C1125 C 0.88865 0.25441 0.47694 0.0
C1126 C 0.83567 0.22311 0.46134 0.0
C1127 C 0.85356 0.22791 0.44597 0.0
C1128 C 0.88908 0.24747 0.44609 0.0
C1129 C 0.90648 0.26071 0.46144 0.0
C1130 C 0.83553 0.21119 0.4299 0.0
C1131 C 0.84187 0.23092 0.41508 0.0
C1132 C 0.81267 0.17584 0.42908 0.0
C1133 C 0.80658 0.15313 0.44391 0.0
C1134 C 0.83365 0.15172 0.45174 0.0
C1135 C 0.82775 0.13047 0.4658 0.0
C1136 C 0.79485 0.11027 0.47205 0.0
C1137 C 0.76776 0.11122 0.46421 0.0
C1138 C 0.77353 0.13247 0.45016 0.0
C1139 C 0.79831 0.14591 0.35412 0.0
C1140 C 0.76318 0.12484 0.35207 0.0
C1141 C 0.81137 0.16491 0.36906 0.0
C1142 C 0.78954 0.16313 0.38221 0.0
C1143 C 0.75441 0.14258 0.38007 0.0
C1144 C 0.74129 0.12375 0.36506 0.0
C1145 C 0.80363 0.18088 0.39864 0.0
C1146 C 0.79663 0.16127 0.41353 0.0
C1147 C 0.8262 0.21622 0.39943 0.0
C1148 C 0.83358 0.23833 0.3842 0.0
C1149 C 0.80707 0.2379 0.37476 0.0
C1150 C 0.81418 0.2586 0.36035 0.0
C1151 C 0.84772 0.27999 0.35529 0.0
C1152 C 0.87423 0.28078 0.36466 0.0
C1153 C 0.86726 0.26012 0.37908 0.0
H1154 H 0.85316 0.29599 0.34413 0.0
H1155 H 0.79033 0.09383 0.48293 0.0
H1156 H 0.59475 0.86821 0.63993 0.0
H1157 H 0.59112 0.83825 0.61325 0.0
H1158 H 0.69028 0.8515 0.62284 0.0
H1159 H 0.69424 0.88176 0.64933 0.0
H1160 H 0.68547 0.87103 0.59104 0.0
H1161 H 0.61825 0.77404 0.62711 0.0
H1162 H 0.57137 0.73891 0.64686 0.0
H1163 H 0.49907 0.72992 0.60892 0.0
H1164 H 0.54556 0.76539 0.58902 0.0
H1165 H 0.69716 0.77156 0.52633 0.0
H1166 H 0.69371 0.79486 0.5539 0.0
H1167 H 0.58983 0.76651 0.54345 0.0
H1168 H 0.59257 0.74099 0.51623 0.0
H1169 H 0.59456 0.75549 0.5752 0.0
H1170 H 0.66041 0.85202 0.53911 0.0
H1171 H 0.70662 0.88745 0.51907 0.0
H1172 H 0.78032 0.89867 0.55667 0.0
H1173 H 0.73455 0.86303 0.57687 0.0
C1174 C 0.61557 0.86435 0.63644 0.0
C1175 C 0.64483 0.87741 0.64668 0.0
C1176 C 0.61343 0.84715 0.62122 0.0
C1177 C 0.6404 0.84255 0.61609 0.0
C1178 C 0.66922 0.85484 0.62654 0.0
C1179 C 0.6714 0.87205 0.6417 0.0
C1180 C 0.63965 0.82677 0.59935 0.0
C1181 C 0.66579 0.8456 0.58766 0.0
C1182 C 0.61335 0.79409 0.59471 0.0
C1183 C 0.5854 0.77265 0.60664 0.0
C1184 C 0.59236 0.7648 0.62303 0.0
C1185 C 0.56586 0.74478 0.63424 0.0
C1186 C 0.53226 0.73227 0.62917 0.0
C1187 C 0.5251 0.73967 0.61285 0.0
C1188 C 0.55152 0.7597 0.60159 0.0
C1189 C 0.67362 0.77041 0.5299 0.0
C1190 C 0.64525 0.75495 0.51911 0.0
C1191 C 0.67171 0.78387 0.54563 0.0
C1192 C 0.64185 0.7834 0.55059 0.0
C1193 C 0.61325 0.76743 0.53989 0.0
C1194 C 0.61484 0.75301 0.52433 0.0
C1195 C 0.64068 0.7996 0.56693 0.0
C1196 C 0.61416 0.78098 0.57853 0.0
C1197 C 0.66648 0.83269 0.57147 0.0
C1198 C 0.69405 0.85472 0.55946 0.0
C1199 C 0.68648 0.86198 0.54308 0.0
C1200 C 0.71258 0.88209 0.53169 0.0
C1201 C 0.74638 0.89527 0.53659 0.0
C1202 C 0.75414 0.88846 0.5529 0.0
C1203 C 0.72813 0.86837 0.56434 0.0
H1204 H 0.76655 0.91079 0.52774 0.0
H1205 H 0.51178 0.71678 0.63787 0.0
H1206 H 0.8842 0.69698 0.68548 0.0
H1207 H 0.85518 0.69362 0.71227 0.0
H1208 H 0.82564 0.58806 0.71715 0.0
H1209 H 0.85557 0.59155 0.69045 0.0
H1210 H 0.79242 0.65934 0.72252 0.0
H1211 H 0.82429 0.56945 0.75972 0.0
H1212 H 0.86792 0.55246 0.76016 0.0
H1213 H 0.94084 0.64902 0.73928 0.0
H1214 H 0.89777 0.6667 0.73891 0.0
H1215 H 0.70498 0.62046 0.80218 0.0
H1216 H 0.727 0.61449 0.77458 0.0
H1217 H 0.82921 0.67445 0.79353 0.0
H1218 H 0.80738 0.67998 0.8212 0.0
H1219 H 0.82338 0.62245 0.776 0.0
H1220 H 0.79408 0.70906 0.7671 0.0
H1221 H 0.75794 0.73512 0.76606 0.0
H1222 H 0.69048 0.65821 0.73104 0.0
H1223 H 0.72613 0.63156 0.73195 0.0
C1224 C 0.87141 0.67299 0.69221 0.0
C1225 C 0.87229 0.64456 0.68594 0.0
C1226 C 0.85472 0.67108 0.70749 0.0
C1227 C 0.83849 0.64069 0.7168 0.0
C1228 C 0.83845 0.61192 0.71031 0.0
C1229 C 0.85542 0.6139 0.69504 0.0
C1230 C 0.82252 0.63975 0.7335 0.0
C1231 C 0.79897 0.651 0.7342 0.0
C1232 C 0.83149 0.62941 0.74877 0.0
C1233 C 0.8577 0.6192 0.74911 0.0
C1234 C 0.84967 0.58706 0.75527 0.0
C1235 C 0.87429 0.57732 0.7555 0.0
C1236 C 0.90709 0.5996 0.74969 0.0
C1237 C 0.91538 0.63173 0.7437 0.0
C1238 C 0.89087 0.64161 0.74347 0.0
C1239 C 0.73214 0.63216 0.80048 0.0
C1240 C 0.7545 0.65073 0.81382 0.0
C1241 C 0.74467 0.62887 0.78469 0.0
C1242 C 0.77976 0.6443 0.78195 0.0
C1243 C 0.80205 0.66228 0.79538 0.0
C1244 C 0.78955 0.66551 0.81116 0.0
C1245 C 0.79344 0.64229 0.76503 0.0
C1246 C 0.81644 0.63032 0.76429 0.0
C1247 C 0.78472 0.65293 0.74978 0.0
C1248 C 0.76256 0.66812 0.74974 0.0
C1249 C 0.77134 0.6975 0.75932 0.0
C1250 C 0.75104 0.71247 0.75869 0.0
C1251 C 0.72196 0.69834 0.74847 0.0
C1252 C 0.71303 0.66912 0.73894 0.0
C1253 C 0.73328 0.6541 0.73949 0.0
H1254 H 0.70638 0.71006 0.74792 0.0
H1255 H 0.92611 0.59199 0.74986 0.0
H1256 H 0.25727 0.85433 0.84863 0.0
H1257 H 0.23405 0.82456 0.87584 0.0
H1258 H 0.20094 0.89553 0.88856 0.0
H1259 H 0.22364 0.92501 0.86144 0.0
H1260 H 0.23347 0.88332 0.91563 0.0
H1261 H 0.14515 0.82057 0.87404 0.0
H1262 H 0.12168 0.78784 0.84746 0.0
H1263 H 0.14601 0.71324 0.86501 0.0
H1264 H 0.1701 0.74583 0.89162 0.0
H1265 H 0.10801 0.80704 0.97865 0.0
H1266 H 0.14026 0.83242 0.95255 0.0
H1267 H 0.15769 0.74825 0.94661 0.0
H1268 H 0.12494 0.72238 0.97277 0.0
H1269 H 0.13892 0.76428 0.9166 0.0
H1270 H 0.22129 0.82359 0.95977 0.0
H1271 H 0.24435 0.85607 0.98645 0.0
H1272 H 0.23223 0.93696 0.96618 0.0
H1273 H 0.20859 0.90474 0.93946 0.0
C1274 C 0.24505 0.86353 0.85726 0.0
C1275 C 0.2421 0.89186 0.85291 0.0
C1276 C 0.23179 0.84652 0.87276 0.0
C1277 C 0.2157 0.85781 0.88416 0.0
C1278 C 0.2133 0.88644 0.87994 0.0
C1279 C 0.22614 0.90315 0.86441 0.0
C1280 C 0.20072 0.83965 0.9004 0.0
C1281 C 0.21269 0.85735 0.91587 0.0
C1282 C 0.17431 0.80546 0.90068 0.0
C1283 C 0.15982 0.78585 0.88471 0.0
C1284 C 0.1458 0.79736 0.87216 0.0
C1285 C 0.13232 0.7788 0.85711 0.0
C1286 C 0.13246 0.74854 0.85452 0.0
C1287 C 0.14599 0.73673 0.86702 0.0
C1288 C 0.15955 0.75522 0.88209 0.0
C1289 C 0.1188 0.79395 0.97185 0.0
C1290 C 0.11407 0.76278 0.97779 0.0
C1291 C 0.13737 0.80857 0.95696 0.0
C1292 C 0.15179 0.79247 0.94776 0.0
C1293 C 0.1469 0.76117 0.95357 0.0
C1294 C 0.12829 0.74649 0.96852 0.0
C1295 C 0.17119 0.80818 0.93187 0.0
C1296 C 0.16008 0.79006 0.91644 0.0
C1297 C 0.1985 0.84198 0.93163 0.0
C1298 C 0.2129 0.8616 0.94765 0.0
C1299 C 0.22329 0.84819 0.96104 0.0
C1300 C 0.23651 0.86658 0.97617 0.0
C1301 C 0.23969 0.89853 0.97802 0.0
C1302 C 0.22973 0.91219 0.96473 0.0
C1303 C 0.21645 0.89389 0.94958 0.0
H1304 H 0.24991 0.91272 0.98974 0.0
H1305 H 0.122 0.7342 0.84286 0.0
H1306 H 0.41514 0.14735 0.1475 0.0
H1307 H 0.4204 0.17702 0.12039 0.0
H1308 H 0.31165 0.12233 0.11489 0.0
H1309 H 0.30617 0.09299 0.14188 0.0
H1310 H 0.34734 0.12027 0.08571 0.0
H1311 H 0.34856 0.20146 0.12642 0.0
H1312 H 0.37095 0.23994 0.15124 0.0
H1313 H 0.46753 0.29622 0.12632 0.0
H1314 H 0.44581 0.25775 0.10144 0.0
H1315 H 0.30385 0.19813 0.02165 0.0
H1316 H 0.31117 0.17486 0.04836 0.0
H1317 H 0.41728 0.25086 0.04902 0.0
H1318 H 0.40976 0.27508 0.02243 0.0
H1319 H 0.39177 0.24383 0.07991 0.0
H1320 H 0.39056 0.16749 0.03813 0.0
H1321 H 0.37011 0.12925 0.01317 0.0
H1322 H 0.27726 0.06365 0.03958 0.0
H1323 H 0.29692 0.10176 0.06461 0.0
C1324 C 0.39239 0.14194 0.14056 0.0
C1325 C 0.36025 0.11787 0.14677 0.0
C1326 C 0.39544 0.15888 0.12512 0.0
C1327 C 0.36639 0.15175 0.11568 0.0
C1328 C 0.33434 0.12806 0.12199 0.0
C1329 C 0.33127 0.11144 0.13744 0.0
C1330 C 0.36902 0.16803 0.09893 0.0
C1331 C 0.35684 0.14725 0.08441 0.0
C1332 C 0.38269 0.20337 0.09723 0.0
C1333 C 0.39569 0.22648 0.11217 0.0
C1334 C 0.37466 0.22184 0.12631 0.0
C1335 C 0.38721 0.2437 0.14037 0.0
C1336 C 0.42068 0.27044 0.14038 0.0
C1337 C 0.44163 0.27545 0.12631 0.0
C1338 C 0.42921 0.25364 0.11222 0.0
C1339 C 0.32879 0.20983 0.02744 0.0
C1340 C 0.35629 0.23828 0.01992 0.0
C1341 C 0.33299 0.1964 0.04267 0.0
C1342 C 0.36494 0.21068 0.05053 0.0
C1343 C 0.39245 0.23933 0.04313 0.0
C1344 C 0.38815 0.25307 0.02794 0.0
C1345 C 0.3691 0.1959 0.06666 0.0
C1346 C 0.38268 0.21691 0.08108 0.0
C1347 C 0.35709 0.16074 0.06824 0.0
C1348 C 0.34516 0.13764 0.05322 0.0
C1349 C 0.36568 0.14504 0.03858 0.0
C1350 C 0.35424 0.12336 0.02442 0.0
C1351 C 0.32239 0.09407 0.02478 0.0
C1352 C 0.30193 0.08636 0.03931 0.0
C1353 C 0.31323 0.10797 0.0535 0.0
H1354 H 0.31358 0.07733 0.0138 0.0
H1355 H 0.43034 0.28734 0.15128 0.0
loop_
_geom_bond_atom_site_label_1
_geom_bond_atom_site_label_2
_geom_bond_distance
_geom_bond_site_symmetry_2
_ccdc_geom_bond_type
In0 O1 2.294 . S
In0 O2 2.326 . S
In0 O6 2.266 . S
In0 O7 2.326 . S
In0 O8 2.266 . S
In0 O9 2.326 . S
In0 O11 2.294 . S
In0 O12 2.326 . S
O1 In0 2.294 . S
O1 C10 1.240 . S
O2 In0 2.326 . S
O2 C10 1.252 . S
C3 O6 1.252 . S
C3 O7 1.260 . S
C4 O11 1.240 . S
C4 O12 1.252 . S
C5 O8 1.252 . S
C5 O9 1.260 . S
O6 In0 2.266 . S
O6 C3 1.252 . S
O7 In0 2.326 . S
O7 C3 1.260 . S
O8 In0 2.266 . S
O8 C5 1.252 . S
O9 In0 2.326 . S
O9 C5 1.260 . S
C10 O1 1.240 . S
C10 O2 1.252 . S
O11 In0 2.294 . S
O11 C4 1.240 . S
O12 In0 2.326 . S
O12 C4 1.252 . S
In13 O14 2.294 . S
In13 O15 2.326 . S
In13 O19 2.266 . S
In13 O20 2.326 . S
In13 O21 2.266 . S
In13 O22 2.326 . S
In13 O24 2.294 . S
In13 O25 2.326 . S
O14 In13 2.294 . S
O14 C23 1.240 . S
O15 In13 2.326 . S
O15 C23 1.252 . S
C16 O19 1.252 . S
C16 O20 1.260 . S
C17 O24 1.240 . S
C17 O25 1.252 . S
C18 O21 1.252 . S
C18 O22 1.260 . S
O19 In13 2.266 . S
O19 C16 1.252 . S
O20 In13 2.326 . S
O20 C16 1.260 . S
O21 In13 2.266 . S
O21 C18 1.252 . S
O22 In13 2.326 . S
O22 C18 1.260 . S
C23 O14 1.240 . S
C23 O15 1.252 . S
O24 In13 2.294 . S
O24 C17 1.240 . S
O25 In13 2.326 . S
O25 C17 1.252 . S
In26 O27 2.294 . S
In26 O28 2.326 . S
In26 O32 2.266 . S
In26 O33 2.326 . S
In26 O34 2.266 . S
In26 O35 2.326 . S
In26 O37 2.294 . S
In26 O38 2.326 . S
O27 In26 2.294 . S
O27 C36 1.240 . S
O28 In26 2.326 . S
O28 C36 1.252 . S
C29 O32 1.252 . S
C29 O33 1.260 . S
C30 O37 1.240 . S
C30 O38 1.252 . S
C31 O34 1.252 . S
C31 O35 1.260 . S
O32 In26 2.266 . S
O32 C29 1.252 . S
O33 In26 2.326 . S
O33 C29 1.260 . S
O34 In26 2.266 . S
O34 C31 1.252 . S
O35 In26 2.326 . S
O35 C31 1.260 . S
C36 O27 1.240 . S
C36 O28 1.252 . S
O37 In26 2.294 . S
O37 C30 1.240 . S
O38 In26 2.326 . S
O38 C30 1.252 . S
In39 O40 2.294 . S
In39 O41 2.326 . S
In39 O45 2.266 . S
In39 O46 2.326 . S
In39 O47 2.266 . S
In39 O48 2.326 . S
In39 O50 2.294 . S
In39 O51 2.326 . S
O40 In39 2.294 . S
O40 C49 1.240 . S
O41 In39 2.326 . S
O41 C49 1.252 . S
C42 O45 1.252 . S
C42 O46 1.260 . S
C43 O50 1.240 . S
C43 O51 1.252 . S
C44 O47 1.252 . S
C44 O48 1.260 . S
O45 In39 2.266 . S
O45 C42 1.252 . S
O46 In39 2.326 . S
O46 C42 1.260 . S
O47 In39 2.266 . S
O47 C44 1.252 . S
O48 In39 2.326 . S
O48 C44 1.260 . S
C49 O40 1.240 . S
C49 O41 1.252 . S
O50 In39 2.294 . S
O50 C43 1.240 . S
O51 In39 2.326 . S
O51 C43 1.252 . S
In52 O53 2.294 . S
In52 O54 2.326 . S
In52 O58 2.266 . S
In52 O59 2.326 . S
In52 O60 2.266 . S
In52 O61 2.326 . S
In52 O63 2.294 . S
In52 O64 2.326 . S
O53 In52 2.294 . S
O53 C62 1.240 . S
O54 In52 2.326 . S
O54 C62 1.252 . S
C55 O58 1.252 . S
C55 O59 1.260 . S
C56 O63 1.240 . S
C56 O64 1.252 . S
C57 O60 1.252 . S
C57 O61 1.260 . S
O58 In52 2.266 . S
O58 C55 1.252 . S
O59 In52 2.326 . S
O59 C55 1.260 . S
O60 In52 2.266 . S
O60 C57 1.252 . S
O61 In52 2.326 . S
O61 C57 1.260 . S
C62 O53 1.240 . S
C62 O54 1.252 . S
O63 In52 2.294 . S
O63 C56 1.240 . S
O64 In52 2.326 . S
O64 C56 1.252 . S
In65 O66 2.294 . S
In65 O67 2.326 . S
In65 O71 2.266 1_556 S
In65 O72 2.326 . S
In65 O73 2.266 . S
In65 O74 2.353 . S
In65 O76 2.294 . S
In65 O77 2.326 . S
O66 In65 2.294 . S
O66 C75 1.240 . S
O67 In65 2.326 . S
O67 C75 1.252 . S
C68 O71 1.252 . S
C68 O72 1.260 1_554 S
C69 O76 1.240 . S
C69 O77 1.252 . S
C70 O73 1.252 . S
C70 O74 1.269 . S
O71 In65 2.266 1_554 S
O71 C68 1.252 . S
O72 In65 2.326 . S
O72 C68 1.260 1_556 S
O73 In65 2.266 . S
O73 C70 1.252 . S
O74 In65 2.353 . S
O74 C70 1.269 . S
C75 O66 1.240 . S
C75 O67 1.252 . S
O76 In65 2.294 . S
O76 C69 1.240 . S
O77 In65 2.326 . S
O77 C69 1.252 . S
In78 O79 2.294 . S
In78 O80 2.326 . S
In78 O84 2.266 . S
In78 O85 2.326 . S
In78 O86 2.266 . S
In78 O87 2.326 . S
In78 O89 2.294 . S
In78 O90 2.326 . S
O79 In78 2.294 . S
O79 C88 1.240 . S
O80 In78 2.326 . S
O80 C88 1.252 . S
C81 O84 1.252 . S
C81 O85 1.260 . S
C82 O89 1.240 . S
C82 O90 1.252 . S
C83 O86 1.252 . S
C83 O87 1.260 . S
O84 In78 2.266 . S
O84 C81 1.252 . S
O85 In78 2.326 . S
O85 C81 1.260 . S
O86 In78 2.266 . S
O86 C83 1.252 . S
O87 In78 2.326 . S
O87 C83 1.260 . S
C88 O79 1.240 . S
C88 O80 1.252 . S
O89 In78 2.294 . S
O89 C82 1.240 . S
O90 In78 2.326 . S
O90 C82 1.252 . S
In91 O92 2.294 . S
In91 O93 2.326 . S
In91 O97 2.266 . S
In91 O98 2.326 . S
In91 O99 2.266 . S
In91 O100 2.326 . S
In91 O102 2.294 . S
In91 O103 2.326 . S
O92 In91 2.294 . S
O92 C101 1.240 . S
O93 In91 2.326 . S
O93 C101 1.252 . S
C94 O97 1.252 . S
C94 O98 1.260 . S
C95 O102 1.240 . S
C95 O103 1.252 . S
C96 O99 1.252 . S
C96 O100 1.260 . S
O97 In91 2.266 . S
O97 C94 1.252 . S
O98 In91 2.326 . S
O98 C94 1.260 . S
O99 In91 2.266 . S
O99 C96 1.252 . S
O100 In91 2.326 . S
O100 C96 1.260 . S
C101 O92 1.240 . S
C101 O93 1.252 . S
O102 In91 2.294 . S
O102 C95 1.240 . S
O103 In91 2.326 . S
O103 C95 1.252 . S
In104 O105 2.294 . S
In104 O106 2.326 . S
In104 O110 2.266 . S
In104 O111 2.353 . S
In104 O112 2.266 1_554 S
In104 O113 2.326 . S
In104 O115 2.294 . S
In104 O116 2.326 . S
O105 In104 2.294 . S
O105 C114 1.240 . S
O106 In104 2.326 . S
O106 C114 1.252 . S
C107 O110 1.252 . S
C107 O111 1.269 . S
C108 O115 1.240 . S
C108 O116 1.252 . S
C109 O112 1.252 . S
C109 O113 1.260 1_556 S
O110 In104 2.266 . S
O110 C107 1.252 . S
O111 In104 2.353 . S
O111 C107 1.269 . S
O112 In104 2.266 1_556 S
O112 C109 1.252 . S
O113 In104 2.326 . S
O113 C109 1.260 1_554 S
C114 O105 1.240 . S
C114 O106 1.252 . S
O115 In104 2.294 . S
O115 C108 1.240 . S
O116 In104 2.326 . S
O116 C108 1.252 . S
In117 O118 2.294 . S
In117 O119 2.326 . S
In117 O123 2.266 . S
In117 O124 2.326 . S
In117 O125 2.266 . S
In117 O126 2.326 . S
In117 O128 2.294 . S
In117 O129 2.326 . S
O118 In117 2.294 . S
O118 C127 1.240 . S
O119 In117 2.326 . S
O119 C127 1.252 . S
C120 O123 1.252 . S
C120 O124 1.260 . S
C121 O128 1.240 . S
C121 O129 1.252 . S
C122 O125 1.252 . S
C122 O126 1.260 . S
O123 In117 2.266 . S
O123 C120 1.252 . S
O124 In117 2.326 . S
O124 C120 1.260 . S
O125 In117 2.266 . S
O125 C122 1.252 . S
O126 In117 2.326 . S
O126 C122 1.260 . S
C127 O118 1.240 . S
C127 O119 1.252 . S
O128 In117 2.294 . S
O128 C121 1.240 . S
O129 In117 2.326 . S
O129 C121 1.252 . S
In130 O131 2.294 . S
In130 O132 2.326 . S
In130 O136 2.266 . S
In130 O137 2.326 . S
In130 O138 2.266 . S
In130 O139 2.326 . S
In130 O141 2.294 . S
In130 O142 2.326 . S
O131 In130 2.294 . S
O131 C140 1.240 . S
O132 In130 2.326 . S
O132 C140 1.252 . S
C133 O136 1.252 . S
C133 O137 1.260 . S
C134 O141 1.240 . S
C134 O142 1.252 . S
C135 O138 1.252 . S
C135 O139 1.260 . S
O136 In130 2.266 . S
O136 C133 1.252 . S
O137 In130 2.326 . S
O137 C133 1.260 . S
O138 In130 2.266 . S
O138 C135 1.252 . S
O139 In130 2.326 . S
O139 C135 1.260 . S
C140 O131 1.240 . S
C140 O132 1.252 . S
O141 In130 2.294 . S
O141 C134 1.240 . S
O142 In130 2.326 . S
O142 C134 1.252 . S
In143 O144 2.294 . S
In143 O145 2.326 . S
In143 O149 2.266 . S
In143 O150 2.326 . S
In143 O151 2.266 . S
In143 O152 2.326 . S
In143 O154 2.294 . S
In143 O155 2.326 . S
O144 In143 2.294 . S
O144 C153 1.240 . S
O145 In143 2.326 . S
O145 C153 1.252 . S
C146 O149 1.252 . S
C146 O150 1.260 . S
C147 O154 1.240 . S
C147 O155 1.252 . S
C148 O151 1.252 . S
C148 O152 1.260 . S
O149 In143 2.266 . S
O149 C146 1.252 . S
O150 In143 2.326 . S
O150 C146 1.260 . S
O151 In143 2.266 . S
O151 C148 1.252 . S
O152 In143 2.326 . S
O152 C148 1.260 . S
C153 O144 1.240 . S
C153 O145 1.252 . S
O154 In143 2.294 . S
O154 C147 1.240 . S
O155 In143 2.326 . S
O155 C147 1.252 . S
H156 C174 0.951 . S
H157 C176 0.951 . S
H158 C178 0.950 . S
H159 C179 0.950 . S
H160 C181 0.950 . S
H161 C184 0.950 . S
H162 C185 0.950 . S
H163 C187 0.950 . S
H164 C188 0.950 . S
H165 C189 0.951 . S
H166 C191 0.951 . S
H167 C193 0.950 . S
H168 C194 0.950 . S
H169 C196 0.950 . S
H170 C199 0.950 . S
H171 C200 0.950 . S
H172 C202 0.950 . S
H173 C203 0.950 . S
C174 H156 0.951 . S
C174 C175 1.366 . S
C174 C176 1.388 . S
C175 C174 1.366 . S
C175 C179 1.385 . S
C176 H157 0.951 . S
C176 C174 1.388 . S
C176 C177 1.366 . S
C177 C176 1.366 . S
C177 C178 1.414 . S
C177 C180 1.499 . S
C178 H158 0.950 . S
C178 C177 1.414 . S
C178 C179 1.374 . S
C179 H159 0.950 . S
C179 C175 1.385 . S
C179 C178 1.374 . S
C180 C177 1.499 . S
C180 C181 1.373 . S
C180 C182 1.389 . S
C181 H160 0.950 . S
C181 C180 1.373 . S
C181 C197 1.377 . S
C182 C180 1.389 . S
C182 C183 1.524 . S
C182 C196 1.377 . S
C183 C182 1.524 . S
C183 C184 1.397 . S
C183 C188 1.363 . S
C184 H161 0.950 . S
C184 C183 1.397 . S
C184 C185 1.334 . S
C185 H162 0.950 . S
C185 C184 1.334 . S
C185 C186 1.287 . S
C186 C185 1.287 . S
C186 C187 1.524 . S
C186 H205 0.913 . S
C187 H163 0.950 . S
C187 C186 1.524 . S
C187 C188 1.415 . S
C188 H164 0.950 . S
C188 C183 1.363 . S
C188 C187 1.415 . S
C189 H165 0.951 . S
C189 C190 1.366 . S
C189 C191 1.388 . S
C190 C189 1.366 . S
C190 C194 1.385 . S
C191 H166 0.951 . S
C191 C189 1.388 . S
C191 C192 1.366 . S
C192 C191 1.366 . S
C192 C193 1.414 . S
C192 C195 1.499 . S
C193 H167 0.950 . S
C193 C192 1.414 . S
C193 C194 1.374 . S
C194 H168 0.950 . S
C194 C190 1.385 . S
C194 C193 1.374 . S
C195 C192 1.499 . S
C195 C196 1.373 . S
C195 C197 1.389 . S
C196 H169 0.950 . S
C196 C182 1.377 . S
C196 C195 1.373 . S
C197 C181 1.377 . S
C197 C195 1.389 . S
C197 C198 1.524 1_455 S
C198 C197 1.524 1_655 S
C198 C199 1.397 . S
C198 C203 1.363 . S
C199 H170 0.950 . S
C199 C198 1.397 . S
C199 C200 1.334 . S
C200 H171 0.950 . S
C200 C199 1.334 . S
C200 C201 1.287 . S
C201 C200 1.287 . S
C201 C202 1.524 . S
C201 H204 0.999 . S
C202 H172 0.950 . S
C202 C201 1.524 . S
C202 C203 1.415 . S
C203 H173 0.950 . S
C203 C198 1.363 . S
C203 C202 1.415 . S
H204 C201 0.999 . S
H205 C186 0.913 . S
H206 C224 0.951 . S
H207 C226 0.951 . S
H208 C228 0.950 . S
H209 C229 0.950 . S
H210 C231 0.950 . S
H211 C234 0.950 . S
H212 C235 0.950 . S
H213 C237 0.950 . S
H214 C238 0.950 . S
H215 C239 0.951 . S
H216 C241 0.951 . S
H217 C243 0.950 . S
H218 C244 0.950 . S
H219 C246 0.950 . S
H220 C249 0.950 . S
H221 C250 0.950 . S
H222 C252 0.950 . S
H223 C253 0.950 . S
C224 H206 0.951 . S
C224 C225 1.366 . S
C224 C226 1.388 . S
C225 C224 1.366 . S
C225 C229 1.385 . S
C226 H207 0.951 . S
C226 C224 1.388 . S
C226 C227 1.366 . S
C227 C226 1.366 . S
C227 C228 1.414 . S
C227 C230 1.499 . S
C228 H208 0.950 . S
C228 C227 1.414 . S
C228 C229 1.374 . S
C229 H209 0.950 . S
C229 C225 1.385 . S
C229 C228 1.374 . S
C230 C227 1.499 . S
C230 C231 1.373 . S
C230 C232 1.389 . S
C231 H210 0.950 . S
C231 C230 1.373 . S
C231 C247 1.377 . S
C232 C230 1.389 . S
C232 C233 1.524 . S
C232 C246 1.377 . S
C233 C232 1.524 . S
C233 C234 1.397 . S
C233 C238 1.363 . S
C234 H211 0.950 . S
C234 C233 1.397 . S
C234 C235 1.334 . S
C235 H212 0.950 . S
C235 C234 1.334 . S
C235 C236 1.287 . S
C236 C235 1.287 . S
C236 C237 1.524 . S
C236 H255 0.913 . S
C237 H213 0.950 . S
C237 C236 1.524 . S
C237 C238 1.415 . S
C238 H214 0.950 . S
C238 C233 1.363 . S
C238 C237 1.415 . S
C239 H215 0.951 . S
C239 C240 1.366 . S
C239 C241 1.388 . S
C240 C239 1.366 . S
C240 C244 1.385 . S
C241 H216 0.951 . S
C241 C239 1.388 . S
C241 C242 1.366 . S
C242 C241 1.366 . S
C242 C243 1.414 . S
C242 C245 1.499 . S
C243 H217 0.950 . S
C243 C242 1.414 . S
C243 C244 1.374 . S
C244 H218 0.950 . S
C244 C240 1.385 . S
C244 C243 1.374 . S
C245 C242 1.499 . S
C245 C246 1.373 . S
C245 C247 1.389 . S
C246 H219 0.950 . S
C246 C232 1.377 . S
C246 C245 1.373 . S
C247 C231 1.377 . S
C247 C245 1.389 . S
C247 C248 1.524 1_545 S
C248 C247 1.524 1_565 S
C248 C249 1.397 . S
C248 C253 1.363 . S
C249 H220 0.950 . S
C249 C248 1.397 . S
C249 C250 1.334 . S
C250 H221 0.950 . S
C250 C249 1.334 . S
C250 C251 1.287 . S
C251 C250 1.287 . S
C251 C252 1.524 . S
C251 H254 0.999 . S
C252 H222 0.950 . S
C252 C251 1.524 . S
C252 C253 1.415 . S
C253 H223 0.950 . S
C253 C248 1.363 . S
C253 C252 1.415 . S
H254 C251 0.999 . S
H255 C236 0.913 . S
H256 C274 0.951 . S
H257 C276 0.951 . S
H258 C278 0.950 . S
H259 C279 0.950 . S
H260 C281 0.950 . S
H261 C284 0.950 . S
H262 C285 0.950 . S
H263 C287 0.950 . S
H264 C288 0.950 . S
H265 C289 0.951 . S
H266 C291 0.951 . S
H267 C293 0.950 . S
H268 C294 0.950 . S
H269 C296 0.950 . S
H270 C299 0.950 . S
H271 C300 0.950 . S
H272 C302 0.950 . S
H273 C303 0.950 . S
C274 H256 0.951 . S
C274 C275 1.366 . S
C274 C276 1.388 . S
C275 C274 1.366 . S
C275 C279 1.385 . S
C276 H257 0.951 . S
C276 C274 1.388 . S
C276 C277 1.366 . S
C277 C276 1.366 . S
C277 C278 1.414 . S
C277 C280 1.499 . S
C278 H258 0.950 . S
C278 C277 1.414 . S
C278 C279 1.374 . S
C279 H259 0.950 . S
C279 C275 1.385 . S
C279 C278 1.374 . S
C280 C277 1.499 . S
C280 C281 1.373 . S
C280 C282 1.389 . S
C281 H260 0.950 . S
C281 C280 1.373 . S
C281 C297 1.377 . S
C282 C280 1.389 . S
C282 C283 1.524 . S
C282 C296 1.377 . S
C283 C282 1.524 . S
C283 C284 1.397 . S
C283 C288 1.363 . S
C284 H261 0.950 . S
C284 C283 1.397 . S
C284 C285 1.334 . S
C285 H262 0.950 . S
C285 C284 1.334 . S
C285 C286 1.287 . S
C286 C285 1.287 . S
C286 C287 1.524 . S
C286 H305 0.913 . S
C287 H263 0.950 . S
C287 C286 1.524 . S
C287 C288 1.415 . S
C288 H264 0.950 . S
C288 C283 1.363 . S
C288 C287 1.415 . S
C289 H265 0.951 . S
C289 C290 1.366 . S
C289 C291 1.388 . S
C290 C289 1.366 . S
C290 C294 1.385 . S
C291 H266 0.951 . S
C291 C289 1.388 . S
C291 C292 1.366 . S
C292 C291 1.366 . S
C292 C293 1.414 . S
C292 C295 1.499 . S
C293 H267 0.950 . S
C293 C292 1.414 . S
C293 C294 1.374 . S
C294 H268 0.950 . S
C294 C290 1.385 . S
C294 C293 1.374 . S
C295 C292 1.499 . S
C295 C296 1.373 . S
C295 C297 1.389 . S
C296 H269 0.950 . S
C296 C282 1.377 . S
C296 C295 1.373 . S
C297 C281 1.377 . S
C297 C295 1.389 . S
C297 C298 1.524 . S
C298 C297 1.524 . S
C298 C299 1.397 . S
C298 C303 1.363 . S
C299 H270 0.950 . S
C299 C298 1.397 . S
C299 C300 1.334 . S
C300 H271 0.950 . S
C300 C299 1.334 . S
C300 C301 1.287 . S
C301 C300 1.287 . S
C301 C302 1.524 . S
C301 H304 0.999 . S
C302 H272 0.950 . S
C302 C301 1.524 . S
C302 C303 1.415 . S
C303 H273 0.950 . S
C303 C298 1.363 . S
C303 C302 1.415 . S
H304 C301 0.999 . S
H305 C286 0.913 . S
H306 C324 0.951 . S
H307 C326 0.951 . S
H308 C328 0.950 . S
H309 C329 0.950 . S
H310 C331 0.950 . S
H311 C334 0.950 . S
H312 C335 0.950 . S
H313 C337 0.950 . S
H314 C338 0.950 . S
H315 C339 0.951 . S
H316 C341 0.951 . S
H317 C343 0.950 . S
H318 C344 0.950 . S
H319 C346 0.950 . S
H320 C349 0.950 . S
H321 C350 0.950 . S
H322 C352 0.950 . S
H323 C353 0.950 . S
C324 H306 0.951 . S
C324 C325 1.366 . S
C324 C326 1.388 . S
C325 C324 1.366 . S
C325 C329 1.385 . S
C326 H307 0.951 . S
C326 C324 1.388 . S
C326 C327 1.366 . S
C327 C326 1.366 . S
C327 C328 1.414 . S
C327 C330 1.499 . S
C328 H308 0.950 . S
C328 C327 1.414 . S
C328 C329 1.374 . S
C329 H309 0.950 . S
C329 C325 1.385 . S
C329 C328 1.374 . S
C330 C327 1.499 . S
C330 C331 1.373 . S
C330 C332 1.389 . S
C331 H310 0.950 . S
C331 C330 1.373 . S
C331 C347 1.377 . S
C332 C330 1.389 . S
C332 C333 1.524 . S
C332 C346 1.377 . S
C333 C332 1.524 . S
C333 C334 1.397 . S
C333 C338 1.363 1_655 S
C334 H311 0.950 . S
C334 C333 1.397 . S
C334 C335 1.334 . S
C335 H312 0.950 . S
C335 C334 1.334 . S
C335 C336 1.287 1_655 S
C336 C335 1.287 1_455 S
C336 C337 1.524 . S
C336 H355 0.913 . S
C337 H313 0.950 . S
C337 C336 1.524 . S
C337 C338 1.415 . S
C338 H314 0.950 . S
C338 C333 1.363 1_455 S
C338 C337 1.415 . S
C339 H315 0.951 . S
C339 C340 1.366 . S
C339 C341 1.388 . S
C340 C339 1.366 . S
C340 C344 1.385 . S
C341 H316 0.951 . S
C341 C339 1.388 . S
C341 C342 1.366 . S
C342 C341 1.366 . S
C342 C343 1.414 . S
C342 C345 1.499 . S
C343 H317 0.950 . S
C343 C342 1.414 . S
C343 C344 1.374 . S
C344 H318 0.950 . S
C344 C340 1.385 . S
C344 C343 1.374 . S
C345 C342 1.499 . S
C345 C346 1.373 . S
C345 C347 1.389 . S
C346 H319 0.950 . S
C346 C332 1.377 . S
C346 C345 1.373 . S
C347 C331 1.377 . S
C347 C345 1.389 . S
C347 C348 1.524 . S
C348 C347 1.524 . S
C348 C349 1.397 . S
C348 C353 1.363 . S
C349 H320 0.950 . S
C349 C348 1.397 . S
C349 C350 1.334 . S
C350 H321 0.950 . S
C350 C349 1.334 . S
C350 C351 1.287 . S
C351 C350 1.287 . S
C351 C352 1.524 . S
C351 H354 0.999 . S
C352 H322 0.950 . S
C352 C351 1.524 . S
C352 C353 1.415 . S
C353 H323 0.950 . S
C353 C348 1.363 . S
C353 C352 1.415 . S
H354 C351 0.999 . S
H355 C336 0.913 . S
H356 C374 0.951 . S
H357 C376 0.951 . S
H358 C378 0.950 . S
H359 C379 0.950 . S
H360 C381 0.950 . S
H361 C384 0.950 . S
H362 C385 0.950 . S
H363 C387 0.950 . S
H364 C388 0.950 1_565 S
H365 C389 0.951 . S
H366 C391 0.951 . S
H367 C393 0.950 . S
H368 C394 0.950 . S
H369 C396 0.950 . S
H370 C399 0.950 . S
H371 C400 0.950 . S
H372 C402 0.950 . S
H373 C403 0.950 . S
C374 H356 0.951 . S
C374 C375 1.366 . S
C374 C376 1.388 . S
C375 C374 1.366 . S
C375 C379 1.385 . S
C376 H357 0.951 . S
C376 C374 1.388 . S
C376 C377 1.366 . S
C377 C376 1.366 . S
C377 C378 1.414 . S
C377 C380 1.499 . S
C378 H358 0.950 . S
C378 C377 1.414 . S
C378 C379 1.374 . S
C379 H359 0.950 . S
C379 C375 1.385 . S
C379 C378 1.374 . S
C380 C377 1.499 . S
C380 C381 1.373 . S
C380 C382 1.389 . S
C381 H360 0.950 . S
C381 C380 1.373 . S
C381 C397 1.377 . S
C382 C380 1.389 . S
C382 C383 1.524 . S
C382 C396 1.377 . S
C383 C382 1.524 . S
C383 C384 1.397 1_565 S
C383 C388 1.363 1_565 S
C384 H361 0.950 . S
C384 C383 1.397 1_545 S
C384 C385 1.334 . S
C385 H362 0.950 . S
C385 C384 1.334 . S
C385 C386 1.287 . S
C386 C385 1.287 . S
C386 C387 1.524 . S
C386 H405 0.913 . S
C387 H363 0.950 . S
C387 C386 1.524 . S
C387 C388 1.415 . S
C388 H364 0.950 1_545 S
C388 C383 1.363 1_545 S
C388 C387 1.415 . S
C389 H365 0.951 . S
C389 C390 1.366 . S
C389 C391 1.388 . S
C390 C389 1.366 . S
C390 C394 1.385 . S
C391 H366 0.951 . S
C391 C389 1.388 . S
C391 C392 1.366 . S
C392 C391 1.366 . S
C392 C393 1.414 . S
C392 C395 1.499 . S
C393 H367 0.950 . S
C393 C392 1.414 . S
C393 C394 1.374 . S
C394 H368 0.950 . S
C394 C390 1.385 . S
C394 C393 1.374 . S
C395 C392 1.499 . S
C395 C396 1.373 . S
C395 C397 1.389 . S
C396 H369 0.950 . S
C396 C382 1.377 . S
C396 C395 1.373 . S
C397 C381 1.377 . S
C397 C395 1.389 . S
C397 C398 1.524 . S
C398 C397 1.524 . S
C398 C399 1.397 . S
C398 C403 1.363 . S
C399 H370 0.950 . S
C399 C398 1.397 . S
C399 C400 1.334 . S
C400 H371 0.950 . S
C400 C399 1.334 . S
C400 C401 1.287 . S
C401 C400 1.287 . S
C401 C402 1.524 . S
C401 H404 0.999 . S
C402 H372 0.950 . S
C402 C401 1.524 . S
C402 C403 1.415 . S
C403 H373 0.950 . S
C403 C398 1.363 . S
C403 C402 1.415 . S
H404 C401 0.999 . S
H405 C386 0.913 . S
H406 C424 0.951 . S
H407 C426 0.951 . S
H408 C428 0.950 . S
H409 C429 0.950 . S
H410 C431 0.950 . S
H411 C434 0.950 . S
H412 C435 0.950 . S
H413 C437 0.950 . S
H414 C438 0.950 . S
H415 C439 0.951 . S
H416 C441 0.951 . S
H417 C443 0.950 . S
H418 C444 0.950 . S
H419 C446 0.950 . S
H420 C449 0.950 . S
H421 C450 0.950 . S
H422 C452 0.950 . S
H423 C453 0.950 . S
C424 H406 0.951 . S
C424 C425 1.366 . S
C424 C426 1.388 . S
C425 C424 1.366 . S
C425 C429 1.385 . S
C426 H407 0.951 . S
C426 C424 1.388 . S
C426 C427 1.366 . S
C427 C426 1.366 . S
C427 C428 1.414 . S
C427 C430 1.499 . S
C428 H408 0.950 . S
C428 C427 1.414 . S
C428 C429 1.374 . S
C429 H409 0.950 . S
C429 C425 1.385 . S
C429 C428 1.374 . S
C430 C427 1.499 . S
C430 C431 1.373 . S
C430 C432 1.389 . S
C431 H410 0.950 . S
C431 C430 1.373 . S
C431 C447 1.377 . S
C432 C430 1.389 . S
C432 C433 1.524 . S
C432 C446 1.377 . S
C433 C432 1.524 . S
C433 C434 1.397 . S
C433 C438 1.363 . S
C434 H411 0.950 . S
C434 C433 1.397 . S
C434 C435 1.334 . S
C435 H412 0.950 . S
C435 C434 1.334 . S
C435 C436 1.287 . S
C436 C435 1.287 . S
C436 C437 1.524 . S
C436 H455 0.913 . S
C437 H413 0.950 . S
C437 C436 1.524 . S
C437 C438 1.415 . S
C438 H414 0.950 . S
C438 C433 1.363 . S
C438 C437 1.415 . S
C439 H415 0.951 . S
C439 C440 1.366 . S
C439 C441 1.388 . S
C440 C439 1.366 . S
C440 C444 1.385 . S
C441 H416 0.951 . S
C441 C439 1.388 . S
C441 C442 1.366 . S
C442 C441 1.366 . S
C442 C443 1.414 . S
C442 C445 1.499 . S
C443 H417 0.950 . S
C443 C442 1.414 . S
C443 C444 1.374 . S
C444 H418 0.950 . S
C444 C440 1.385 . S
C444 C443 1.374 . S
C445 C442 1.499 . S
C445 C446 1.373 . S
C445 C447 1.389 . S
C446 H419 0.950 . S
C446 C432 1.377 . S
C446 C445 1.373 . S
C447 C431 1.377 . S
C447 C445 1.389 . S
C447 C448 1.524 . S
C448 C447 1.524 . S
C448 C449 1.397 . S
C448 C453 1.363 . S
C449 H420 0.950 . S
C449 C448 1.397 . S
C449 C450 1.334 . S
C450 H421 0.950 . S
C450 C449 1.334 . S
C450 C451 1.287 . S
C451 C450 1.287 . S
C451 C452 1.524 . S
C451 H454 0.999 . S
C452 H422 0.950 . S
C452 C451 1.524 . S
C452 C453 1.415 . S
C453 H423 0.950 . S
C453 C448 1.363 . S
C453 C452 1.415 . S
H454 C451 0.999 . S
H455 C436 0.913 . S
H456 C474 0.951 . S
H457 C476 0.951 . S
H458 C478 0.950 . S
H459 C479 0.950 . S
H460 C481 0.950 . S
H461 C484 0.950 . S
H462 C485 0.950 . S
H463 C487 0.950 . S
H464 C488 0.950 . S
H465 C489 0.951 . S
H466 C491 0.951 . S
H467 C493 0.950 . S
H468 C494 0.950 . S
H469 C496 0.950 . S
H470 C499 0.950 . S
H471 C500 0.902 1_556 S
H472 C502 0.950 . S
H473 C503 0.950 . S
C474 H456 0.951 . S
C474 C475 1.366 . S
C474 C476 1.388 . S
C475 C474 1.366 . S
C475 C479 1.385 . S
C476 H457 0.951 . S
C476 C474 1.388 . S
C476 C477 1.366 . S
C477 C476 1.366 . S
C477 C478 1.414 . S
C477 C480 1.499 . S
C478 H458 0.950 . S
C478 C477 1.414 . S
C478 C479 1.374 . S
C479 H459 0.950 . S
C479 C475 1.385 . S
C479 C478 1.374 . S
C480 C477 1.499 . S
C480 C481 1.373 . S
C480 C482 1.389 . S
C481 H460 0.950 . S
C481 C480 1.373 . S
C481 C497 1.377 . S
C482 C480 1.389 . S
C482 C483 1.524 . S
C482 C496 1.377 . S
C483 C482 1.524 . S
C483 C484 1.397 . S
C483 C488 1.363 . S
C484 H461 0.950 . S
C484 C483 1.397 . S
C484 C485 1.334 . S
C485 H462 0.950 . S
C485 C484 1.334 . S
C485 C486 1.287 . S
C486 C485 1.287 . S
C486 C487 1.524 . S
C486 H505 0.913 . S
C487 H463 0.950 . S
C487 C486 1.524 . S
C487 C488 1.415 . S
C488 H464 0.950 . S
C488 C483 1.363 . S
C488 C487 1.415 . S
C489 H465 0.951 . S
C489 C490 1.366 . S
C489 C491 1.388 . S
C490 C489 1.366 . S
C490 C494 1.385 . S
C491 H466 0.951 . S
C491 C489 1.388 . S
C491 C492 1.366 . S
C492 C491 1.366 . S
C492 C493 1.414 . S
C492 C495 1.499 . S
C493 H467 0.950 . S
C493 C492 1.414 . S
C493 C494 1.374 . S
C494 H468 0.950 . S
C494 C490 1.385 . S
C494 C493 1.374 . S
C495 C492 1.499 . S
C495 C496 1.373 . S
C495 C497 1.389 . S
C496 H469 0.950 . S
C496 C482 1.377 . S
C496 C495 1.373 . S
C497 C481 1.377 . S
C497 C495 1.389 . S
C497 C498 1.524 . S
C498 C497 1.524 . S
C498 C499 1.397 . S
C498 C503 1.363 . S
C499 H470 0.950 . S
C499 C498 1.397 . S
C499 C500 1.372 . S
C500 H471 0.902 1_554 S
C500 C499 1.372 . S
C500 C501 1.300 . S
C501 C500 1.300 . S
C501 C502 1.524 . S
C501 H504 0.999 1_554 S
C502 H472 0.950 . S
C502 C501 1.524 . S
C502 C503 1.415 . S
C503 H473 0.950 . S
C503 C498 1.363 . S
C503 C502 1.415 . S
H504 C501 0.999 1_556 S
H505 C486 0.913 . S
H506 C524 0.951 . S
H507 C526 0.951 . S
H508 C528 0.950 . S
H509 C529 0.950 . S
H510 C531 0.950 . S
H511 C534 0.950 . S
H512 C535 0.950 . S
H513 C537 0.950 . S
H514 C538 0.950 . S
H515 C539 0.951 . S
H516 C541 0.951 . S
H517 C543 0.950 . S
H518 C544 0.950 1_455 S
H519 C546 0.950 . S
H520 C549 0.950 . S
H521 C550 0.950 . S
H522 C552 0.950 . S
H523 C553 0.950 . S
C524 H506 0.951 . S
C524 C525 1.366 . S
C524 C526 1.388 . S
C525 C524 1.366 . S
C525 C529 1.385 . S
C526 H507 0.951 . S
C526 C524 1.388 . S
C526 C527 1.366 . S
C527 C526 1.366 . S
C527 C528 1.414 . S
C527 C530 1.499 . S
C528 H508 0.950 . S
C528 C527 1.414 . S
C528 C529 1.374 . S
C529 H509 0.950 . S
C529 C525 1.385 . S
C529 C528 1.374 . S
C530 C527 1.499 . S
C530 C531 1.373 . S
C530 C532 1.389 . S
C531 H510 0.950 . S
C531 C530 1.373 . S
C531 C547 1.377 . S
C532 C530 1.389 . S
C532 C533 1.524 . S
C532 C546 1.377 . S
C533 C532 1.524 . S
C533 C534 1.397 . S
C533 C538 1.363 . S
C534 H511 0.950 . S
C534 C533 1.397 . S
C534 C535 1.334 . S
C535 H512 0.950 . S
C535 C534 1.334 . S
C535 C536 1.287 . S
C536 C535 1.287 . S
C536 C537 1.524 . S
C536 H555 0.913 . S
C537 H513 0.950 . S
C537 C536 1.524 . S
C537 C538 1.415 . S
C538 H514 0.950 . S
C538 C533 1.363 . S
C538 C537 1.415 . S
C539 H515 0.951 . S
C539 C540 1.366 . S
C539 C541 1.388 . S
C540 C539 1.366 . S
C540 C544 1.385 . S
C541 H516 0.951 . S
C541 C539 1.388 . S
C541 C542 1.366 . S
C542 C541 1.366 . S
C542 C543 1.414 . S
C542 C545 1.499 . S
C543 H517 0.950 . S
C543 C542 1.414 . S
C543 C544 1.374 . S
C544 H518 0.950 1_655 S
C544 C540 1.385 . S
C544 C543 1.374 . S
C545 C542 1.499 . S
C545 C546 1.373 . S
C545 C547 1.389 . S
C546 H519 0.950 . S
C546 C532 1.377 . S
C546 C545 1.373 . S
C547 C531 1.377 . S
C547 C545 1.389 . S
C547 C548 1.524 . S
C548 C547 1.524 . S
C548 C549 1.397 . S
C548 C553 1.363 . S
C549 H520 0.950 . S
C549 C548 1.397 . S
C549 C550 1.334 . S
C550 H521 0.950 . S
C550 C549 1.334 . S
C550 C551 1.287 . S
C551 C550 1.287 . S
C551 C552 1.524 . S
C551 H554 0.999 . S
C552 H522 0.950 . S
C552 C551 1.524 . S
C552 C553 1.415 . S
C553 H523 0.950 . S
C553 C548 1.363 . S
C553 C552 1.415 . S
H554 C551 0.999 . S
H555 C536 0.913 . S
H556 C574 0.951 . S
H557 C576 0.951 . S
H558 C578 0.950 . S
H559 C579 0.950 . S
H560 C581 0.950 . S
H561 C584 0.950 . S
H562 C585 0.950 . S
H563 C587 0.950 . S
H564 C588 0.950 . S
H565 C589 0.951 . S
H566 C591 0.951 . S
H567 C593 0.950 . S
H568 C594 0.950 1_545 S
H569 C596 0.950 . S
H570 C599 0.950 . S
H571 C600 0.950 . S
H572 C602 0.950 . S
H573 C603 0.950 . S
C574 H556 0.951 . S
C574 C575 1.366 . S
C574 C576 1.388 . S
C575 C574 1.366 . S
C575 C579 1.385 . S
C576 H557 0.951 . S
C576 C574 1.388 . S
C576 C577 1.366 . S
C577 C576 1.366 . S
C577 C578 1.414 . S
C577 C580 1.499 . S
C578 H558 0.950 . S
C578 C577 1.414 . S
C578 C579 1.374 . S
C579 H559 0.950 . S
C579 C575 1.385 . S
C579 C578 1.374 . S
C580 C577 1.499 . S
C580 C581 1.373 . S
C580 C582 1.389 . S
C581 H560 0.950 . S
C581 C580 1.373 . S
C581 C597 1.377 . S
C582 C580 1.389 . S
C582 C583 1.524 . S
C582 C596 1.377 . S
C583 C582 1.524 . S
C583 C584 1.397 . S
C583 C588 1.363 . S
C584 H561 0.950 . S
C584 C583 1.397 . S
C584 C585 1.334 . S
C585 H562 0.950 . S
C585 C584 1.334 . S
C585 C586 1.287 . S
C586 C585 1.287 . S
C586 C587 1.524 . S
C586 H605 0.913 . S
C587 H563 0.950 . S
C587 C586 1.524 . S
C587 C588 1.415 . S
C588 H564 0.950 . S
C588 C583 1.363 . S
C588 C587 1.415 . S
C589 H565 0.951 . S
C589 C590 1.366 . S
C589 C591 1.388 . S
C590 C589 1.366 . S
C590 C594 1.385 . S
C591 H566 0.951 . S
C591 C589 1.388 . S
C591 C592 1.366 . S
C592 C591 1.366 . S
C592 C593 1.414 . S
C592 C595 1.499 . S
C593 H567 0.950 . S
C593 C592 1.414 . S
C593 C594 1.374 . S
C594 H568 0.950 1_565 S
C594 C590 1.385 . S
C594 C593 1.374 . S
C595 C592 1.499 . S
C595 C596 1.373 . S
C595 C597 1.389 . S
C596 H569 0.950 . S
C596 C582 1.377 . S
C596 C595 1.373 . S
C597 C581 1.377 . S
C597 C595 1.389 . S
C597 C598 1.524 . S
C598 C597 1.524 . S
C598 C599 1.397 . S
C598 C603 1.363 . S
C599 H570 0.950 . S
C599 C598 1.397 . S
C599 C600 1.334 . S
C600 H571 0.950 . S
C600 C599 1.334 . S
C600 C601 1.287 . S
C601 C600 1.287 . S
C601 C602 1.524 . S
C601 H604 0.999 . S
C602 H572 0.950 . S
C602 C601 1.524 . S
C602 C603 1.415 . S
C603 H573 0.950 . S
C603 C598 1.363 . S
C603 C602 1.415 . S
H604 C601 0.999 . S
H605 C586 0.913 . S
H606 C624 0.951 . S
H607 C626 0.951 . S
H608 C628 0.950 . S
H609 C629 0.950 . S
H610 C631 0.950 . S
H611 C634 0.950 . S
H612 C635 0.950 . S
H613 C637 0.950 . S
H614 C638 0.950 . S
H615 C639 0.951 . S
H616 C641 0.951 . S
H617 C643 0.950 . S
H618 C644 0.950 . S
H619 C646 0.950 . S
H620 C649 0.950 . S
H621 C650 0.950 . S
H622 C652 0.950 . S
H623 C653 0.950 . S
C624 H606 0.951 . S
C624 C625 1.366 . S
C624 C626 1.388 . S
C625 C624 1.366 . S
C625 C629 1.385 . S
C626 H607 0.951 . S
C626 C624 1.388 . S
C626 C627 1.366 . S
C627 C626 1.366 . S
C627 C628 1.414 . S
C627 C630 1.499 . S
C628 H608 0.950 . S
C628 C627 1.414 . S
C628 C629 1.374 . S
C629 H609 0.950 . S
C629 C625 1.385 . S
C629 C628 1.374 . S
C630 C627 1.499 . S
C630 C631 1.373 . S
C630 C632 1.389 . S
C631 H610 0.950 . S
C631 C630 1.373 . S
C631 C647 1.377 . S
C632 C630 1.389 . S
C632 C633 1.524 . S
C632 C646 1.377 . S
C633 C632 1.524 . S
C633 C634 1.397 . S
C633 C638 1.363 . S
C634 H611 0.950 . S
C634 C633 1.397 . S
C634 C635 1.334 . S
C635 H612 0.950 . S
C635 C634 1.334 . S
C635 C636 1.287 . S
C636 C635 1.287 . S
C636 C637 1.524 . S
C636 H655 0.913 . S
C637 H613 0.950 . S
C637 C636 1.524 . S
C637 C638 1.415 . S
C638 H614 0.950 . S
C638 C633 1.363 . S
C638 C637 1.415 . S
C639 H615 0.951 . S
C639 C640 1.366 . S
C639 C641 1.388 . S
C640 C639 1.366 . S
C640 C644 1.385 . S
C641 H616 0.951 . S
C641 C639 1.388 . S
C641 C642 1.366 . S
C642 C641 1.366 . S
C642 C643 1.414 . S
C642 C645 1.499 . S
C643 H617 0.950 . S
C643 C642 1.414 . S
C643 C644 1.374 . S
C644 H618 0.950 . S
C644 C640 1.385 . S
C644 C643 1.374 . S
C645 C642 1.499 . S
C645 C646 1.373 . S
C645 C647 1.389 . S
C646 H619 0.950 . S
C646 C632 1.377 . S
C646 C645 1.373 . S
C647 C631 1.377 . S
C647 C645 1.389 . S
C647 C648 1.524 . S
C648 C647 1.524 . S
C648 C649 1.397 . S
C648 C653 1.363 . S
C649 H620 0.950 . S
C649 C648 1.397 . S
C649 C650 1.334 . S
C650 H621 0.950 . S
C650 C649 1.334 . S
C650 C651 1.287 . S
C651 C650 1.287 . S
C651 C652 1.524 . S
C651 H654 0.999 . S
C652 H622 0.950 . S
C652 C651 1.524 . S
C652 C653 1.415 . S
C653 H623 0.950 . S
C653 C648 1.363 . S
C653 C652 1.415 . S
H654 C651 0.999 . S
H655 C636 0.913 . S
H656 C674 0.951 . S
H657 C676 0.951 . S
H658 C678 0.950 . S
H659 C679 0.950 1_655 S
H660 C681 0.950 . S
H661 C684 0.950 . S
H662 C685 0.950 . S
H663 C687 0.950 . S
H664 C688 0.950 . S
H665 C689 0.951 . S
H666 C691 0.951 . S
H667 C693 0.950 . S
H668 C694 0.950 . S
H669 C696 0.950 . S
H670 C699 0.950 . S
H671 C700 0.950 . S
H672 C702 0.950 . S
H673 C703 0.950 . S
C674 H656 0.951 . S
C674 C675 1.366 . S
C674 C676 1.388 . S
C675 C674 1.366 . S
C675 C679 1.385 . S
C676 H657 0.951 . S
C676 C674 1.388 . S
C676 C677 1.366 . S
C677 C676 1.366 . S
C677 C678 1.414 . S
C677 C680 1.499 . S
C678 H658 0.950 . S
C678 C677 1.414 . S
C678 C679 1.374 . S
C679 H659 0.950 1_455 S
C679 C675 1.385 . S
C679 C678 1.374 . S
C680 C677 1.499 . S
C680 C681 1.373 . S
C680 C682 1.389 . S
C681 H660 0.950 . S
C681 C680 1.373 . S
C681 C697 1.377 . S
C682 C680 1.389 . S
C682 C683 1.524 . S
C682 C696 1.377 . S
C683 C682 1.524 . S
C683 C684 1.397 . S
C683 C688 1.363 . S
C684 H661 0.950 . S
C684 C683 1.397 . S
C684 C685 1.334 . S
C685 H662 0.950 . S
C685 C684 1.334 . S
C685 C686 1.287 . S
C686 C685 1.287 . S
C686 C687 1.524 . S
C686 H705 0.913 . S
C687 H663 0.950 . S
C687 C686 1.524 . S
C687 C688 1.415 . S
C688 H664 0.950 . S
C688 C683 1.363 . S
C688 C687 1.415 . S
C689 H665 0.951 . S
C689 C690 1.366 . S
C689 C691 1.388 . S
C690 C689 1.366 . S
C690 C694 1.385 . S
C691 H666 0.951 . S
C691 C689 1.388 . S
C691 C692 1.366 . S
C692 C691 1.366 . S
C692 C693 1.414 . S
C692 C695 1.499 . S
C693 H667 0.950 . S
C693 C692 1.414 . S
C693 C694 1.374 . S
C694 H668 0.950 . S
C694 C690 1.385 . S
C694 C693 1.374 . S
C695 C692 1.499 . S
C695 C696 1.373 . S
C695 C697 1.389 . S
C696 H669 0.950 . S
C696 C682 1.377 . S
C696 C695 1.373 . S
C697 C681 1.377 . S
C697 C695 1.389 . S
C697 C698 1.524 . S
C698 C697 1.524 . S
C698 C699 1.397 . S
C698 C703 1.363 . S
C699 H670 0.950 . S
C699 C698 1.397 . S
C699 C700 1.334 . S
C700 H671 0.950 . S
C700 C699 1.334 . S
C700 C701 1.287 . S
C701 C700 1.287 . S
C701 C702 1.524 . S
C701 H704 0.999 . S
C702 H672 0.950 . S
C702 C701 1.524 . S
C702 C703 1.415 . S
C703 H673 0.950 . S
C703 C698 1.363 . S
C703 C702 1.415 . S
H704 C701 0.999 . S
H705 C686 0.913 . S
H706 C724 0.951 . S
H707 C726 0.951 . S
H708 C728 0.950 . S
H709 C729 0.950 . S
H710 C731 0.950 . S
H711 C734 0.950 . S
H712 C735 0.950 . S
H713 C737 0.950 . S
H714 C738 0.950 . S
H715 C739 0.951 . S
H716 C741 0.951 . S
H717 C743 0.950 . S
H718 C744 0.950 . S
H719 C746 0.950 . S
H720 C749 0.950 . S
H721 C750 0.950 . S
H722 C752 0.950 . S
H723 C753 0.950 . S
C724 H706 0.951 . S
C724 C725 1.366 . S
C724 C726 1.388 . S
C725 C724 1.366 . S
C725 C729 1.385 . S
C726 H707 0.951 . S
C726 C724 1.388 . S
C726 C727 1.366 . S
C727 C726 1.366 . S
C727 C728 1.414 . S
C727 C730 1.499 . S
C728 H708 0.950 . S
C728 C727 1.414 . S
C728 C729 1.374 . S
C729 H709 0.950 . S
C729 C725 1.385 . S
C729 C728 1.374 . S
C730 C727 1.499 . S
C730 C731 1.373 . S
C730 C732 1.389 . S
C731 H710 0.950 . S
C731 C730 1.373 . S
C731 C747 1.377 . S
C732 C730 1.389 . S
C732 C733 1.524 . S
C732 C746 1.377 . S
C733 C732 1.524 . S
C733 C734 1.397 . S
C733 C738 1.363 . S
C734 H711 0.950 . S
C734 C733 1.397 . S
C734 C735 1.335 1_545 S
C735 H712 0.950 . S
C735 C734 1.335 1_565 S
C735 C736 1.294 1_565 S
C736 C735 1.294 1_545 S
C736 C737 1.533 . S
C736 H755 0.893 1_545 S
C737 H713 0.950 . S
C737 C736 1.533 . S
C737 C738 1.415 . S
C738 H714 0.950 . S
C738 C733 1.363 . S
C738 C737 1.415 . S
C739 H715 0.951 . S
C739 C740 1.366 . S
C739 C741 1.388 . S
C740 C739 1.366 . S
C740 C744 1.385 . S
C741 H716 0.951 . S
C741 C739 1.388 . S
C741 C742 1.366 . S
C742 C741 1.366 . S
C742 C743 1.414 . S
C742 C745 1.499 . S
C743 H717 0.950 . S
C743 C742 1.414 . S
C743 C744 1.374 . S
C744 H718 0.950 . S
C744 C740 1.385 . S
C744 C743 1.374 . S
C745 C742 1.499 . S
C745 C746 1.373 . S
C745 C747 1.389 . S
C746 H719 0.950 . S
C746 C732 1.377 . S
C746 C745 1.373 . S
C747 C731 1.377 . S
C747 C745 1.389 . S
C747 C748 1.524 . S
C748 C747 1.524 . S
C748 C749 1.397 . S
C748 C753 1.363 . S
C749 H720 0.950 . S
C749 C748 1.397 . S
C749 C750 1.334 . S
C750 H721 0.950 . S
C750 C749 1.334 . S
C750 C751 1.287 . S
C751 C750 1.287 . S
C751 C752 1.524 . S
C751 H754 0.999 . S
C752 H722 0.950 . S
C752 C751 1.524 . S
C752 C753 1.415 . S
C753 H723 0.950 . S
C753 C748 1.363 . S
C753 C752 1.415 . S
H754 C751 0.999 . S
H755 C736 0.893 1_565 S
H756 C774 0.951 . S
H757 C776 0.951 . S
H758 C778 0.950 . S
H759 C779 0.950 . S
H760 C781 0.950 . S
H761 C784 0.950 . S
H762 C785 0.950 . S
H763 C787 0.950 . S
H764 C788 0.950 . S
H765 C789 0.951 . S
H766 C791 0.951 . S
H767 C793 0.950 . S
H768 C794 0.950 . S
H769 C796 0.950 . S
H770 C799 0.950 . S
H771 C800 0.950 . S
H772 C802 0.950 . S
H773 C803 0.950 . S
C774 H756 0.951 . S
C774 C775 1.366 . S
C774 C776 1.388 . S
C775 C774 1.366 . S
C775 C779 1.385 . S
C776 H757 0.951 . S
C776 C774 1.388 . S
C776 C777 1.366 . S
C777 C776 1.366 . S
C777 C778 1.414 . S
C777 C780 1.499 . S
C778 H758 0.950 . S
C778 C777 1.414 . S
C778 C779 1.374 . S
C779 H759 0.950 . S
C779 C775 1.385 . S
C779 C778 1.374 . S
C780 C777 1.499 . S
C780 C781 1.373 . S
C780 C782 1.389 . S
C781 H760 0.950 . S
C781 C780 1.373 . S
C781 C797 1.377 . S
C782 C780 1.389 . S
C782 C783 1.524 . S
C782 C796 1.377 . S
C783 C782 1.524 . S
C783 C784 1.397 . S
C783 C788 1.363 . S
C784 H761 0.950 . S
C784 C783 1.397 . S
C784 C785 1.334 . S
C785 H762 0.950 . S
C785 C784 1.334 . S
C785 C786 1.287 . S
C786 C785 1.287 . S
C786 C787 1.524 . S
C786 H805 0.913 . S
C787 H763 0.950 . S
C787 C786 1.524 . S
C787 C788 1.415 . S
C788 H764 0.950 . S
C788 C783 1.363 . S
C788 C787 1.415 . S
C789 H765 0.951 . S
C789 C790 1.366 . S
C789 C791 1.388 . S
C790 C789 1.366 . S
C790 C794 1.385 . S
C791 H766 0.951 . S
C791 C789 1.388 . S
C791 C792 1.366 . S
C792 C791 1.366 . S
C792 C793 1.414 . S
C792 C795 1.499 . S
C793 H767 0.950 . S
C793 C792 1.414 . S
C793 C794 1.374 . S
C794 H768 0.950 . S
C794 C790 1.385 . S
C794 C793 1.374 . S
C795 C792 1.499 . S
C795 C796 1.373 . S
C795 C797 1.389 . S
C796 H769 0.950 . S
C796 C782 1.377 . S
C796 C795 1.373 . S
C797 C781 1.377 . S
C797 C795 1.389 . S
C797 C798 1.524 . S
C798 C797 1.524 . S
C798 C799 1.397 . S
C798 C803 1.363 . S
C799 H770 0.950 . S
C799 C798 1.397 . S
C799 C800 1.334 . S
C800 H771 0.950 . S
C800 C799 1.334 . S
C800 C801 1.287 . S
C801 C800 1.287 . S
C801 C802 1.524 . S
C801 H804 0.999 . S
C802 H772 0.950 . S
C802 C801 1.524 . S
C802 C803 1.415 . S
C803 H773 0.950 . S
C803 C798 1.363 . S
C803 C802 1.415 . S
H804 C801 0.999 . S
H805 C786 0.913 . S
H806 C824 0.951 . S
H807 C826 0.951 . S
H808 C828 0.950 . S
H809 C829 0.950 . S
H810 C831 0.950 . S
H811 C834 0.950 . S
H812 C835 0.950 . S
H813 C837 0.950 . S
H814 C838 0.950 . S
H815 C839 0.950 . S
H816 C841 0.951 . S
H817 C843 0.950 . S
H818 C844 0.950 . S
H819 C846 0.950 . S
H820 C849 0.950 . S
H821 C850 0.950 1_455 S
H822 C852 0.950 1_455 S
H823 C853 0.950 . S
C824 H806 0.951 . S
C824 C825 1.366 . S
C824 C826 1.388 . S
C825 C824 1.366 . S
C825 C829 1.385 . S
C826 H807 0.951 . S
C826 C824 1.388 . S
C826 C827 1.366 . S
C827 C826 1.366 . S
C827 C828 1.414 . S
C827 C830 1.499 . S
C828 H808 0.950 . S
C828 C827 1.414 . S
C828 C829 1.374 . S
C829 H809 0.950 . S
C829 C825 1.385 . S
C829 C828 1.374 . S
C830 C827 1.499 . S
C830 C831 1.373 . S
C830 C832 1.389 . S
C831 H810 0.950 . S
C831 C830 1.373 . S
C831 C847 1.377 . S
C832 C830 1.389 . S
C832 C833 1.524 . S
C832 C846 1.377 . S
C833 C832 1.524 . S
C833 C834 1.397 . S
C833 C838 1.363 . S
C834 H811 0.950 . S
C834 C833 1.397 . S
C834 C835 1.334 . S
C835 H812 0.950 . S
C835 C834 1.334 . S
C835 C836 1.287 . S
C836 C835 1.287 . S
C836 C837 1.524 . S
C836 H855 0.913 . S
C837 H813 0.950 . S
C837 C836 1.524 . S
C837 C838 1.415 . S
C838 H814 0.950 . S
C838 C833 1.363 . S
C838 C837 1.415 . S
C839 H815 0.950 . S
C839 C840 1.366 . S
C839 C841 1.388 . S
C840 C839 1.366 . S
C840 C844 1.385 . S
C841 H816 0.951 . S
C841 C839 1.388 . S
C841 C842 1.366 . S
C842 C841 1.366 . S
C842 C843 1.414 . S
C842 C845 1.499 . S
C843 H817 0.950 . S
C843 C842 1.414 . S
C843 C844 1.374 . S
C844 H818 0.950 . S
C844 C840 1.385 . S
C844 C843 1.374 . S
C845 C842 1.499 . S
C845 C846 1.373 . S
C845 C847 1.389 . S
C846 H819 0.950 . S
C846 C832 1.377 . S
C846 C845 1.373 . S
C847 C831 1.377 . S
C847 C845 1.389 . S
C847 C848 1.524 . S
C848 C847 1.524 . S
C848 C849 1.397 . S
C848 C853 1.363 . S
C849 H820 0.950 . S
C849 C848 1.397 . S
C849 C850 1.334 . S
C850 H821 0.950 1_655 S
C850 C849 1.334 . S
C850 C851 1.287 1_655 S
C851 C850 1.287 1_455 S
C851 C852 1.524 1_455 S
C851 H854 0.999 . S
C852 H822 0.950 1_655 S
C852 C851 1.524 1_655 S
C852 C853 1.415 . S
C853 H823 0.950 . S
C853 C848 1.363 . S
C853 C852 1.415 . S
H854 C851 0.999 . S
H855 C836 0.913 . S
H856 C874 0.951 . S
H857 C876 0.951 . S
H858 C878 0.950 . S
H859 C879 0.950 1_545 S
H860 C881 0.950 . S
H861 C884 0.950 . S
H862 C885 0.950 . S
H863 C887 0.950 . S
H864 C888 0.950 . S
H865 C889 0.951 . S
H866 C891 0.951 . S
H867 C893 0.950 . S
H868 C894 0.950 . S
H869 C896 0.950 . S
H870 C899 0.950 . S
H871 C900 0.950 . S
H872 C902 0.950 . S
H873 C903 0.950 . S
C874 H856 0.951 . S
C874 C875 1.366 . S
C874 C876 1.388 . S
C875 C874 1.366 . S
C875 C879 1.385 . S
C876 H857 0.951 . S
C876 C874 1.388 . S
C876 C877 1.366 . S
C877 C876 1.366 . S
C877 C878 1.414 . S
C877 C880 1.499 . S
C878 H858 0.950 . S
C878 C877 1.414 . S
C878 C879 1.374 . S
C879 H859 0.950 1_565 S
C879 C875 1.385 . S
C879 C878 1.374 . S
C880 C877 1.499 . S
C880 C881 1.373 . S
C880 C882 1.389 . S
C881 H860 0.950 . S
C881 C880 1.373 . S
C881 C897 1.377 . S
C882 C880 1.389 . S
C882 C883 1.524 . S
C882 C896 1.377 . S
C883 C882 1.524 . S
C883 C884 1.397 . S
C883 C888 1.363 . S
C884 H861 0.950 . S
C884 C883 1.397 . S
C884 C885 1.334 . S
C885 H862 0.950 . S
C885 C884 1.334 . S
C885 C886 1.287 . S
C886 C885 1.287 . S
C886 C887 1.524 . S
C886 H905 0.913 . S
C887 H863 0.950 . S
C887 C886 1.524 . S
C887 C888 1.415 . S
C888 H864 0.950 . S
C888 C883 1.363 . S
C888 C887 1.415 . S
C889 H865 0.951 . S
C889 C890 1.366 . S
C889 C891 1.388 . S
C890 C889 1.366 . S
C890 C894 1.385 . S
C891 H866 0.951 . S
C891 C889 1.388 . S
C891 C892 1.366 . S
C892 C891 1.366 . S
C892 C893 1.414 . S
C892 C895 1.499 . S
C893 H867 0.950 . S
C893 C892 1.414 . S
C893 C894 1.374 . S
C894 H868 0.950 . S
C894 C890 1.385 . S
C894 C893 1.374 . S
C895 C892 1.499 . S
C895 C896 1.373 . S
C895 C897 1.389 . S
C896 H869 0.950 . S
C896 C882 1.377 . S
C896 C895 1.373 . S
C897 C881 1.377 . S
C897 C895 1.389 . S
C897 C898 1.524 . S
C898 C897 1.524 . S
C898 C899 1.397 . S
C898 C903 1.363 . S
C899 H870 0.950 . S
C899 C898 1.397 . S
C899 C900 1.334 . S
C900 H871 0.950 . S
C900 C899 1.334 . S
C900 C901 1.287 . S
C901 C900 1.287 . S
C901 C902 1.524 . S
C901 H904 0.999 . S
C902 H872 0.950 . S
C902 C901 1.524 . S
C902 C903 1.415 . S
C903 H873 0.950 . S
C903 C898 1.363 . S
C903 C902 1.415 . S
H904 C901 0.999 . S
H905 C886 0.913 . S
H906 C924 0.951 . S
H907 C926 0.951 . S
H908 C928 0.950 . S
H909 C929 0.950 . S
H910 C931 0.950 . S
H911 C934 0.950 . S
H912 C935 0.950 . S
H913 C937 0.950 . S
H914 C938 0.950 . S
H915 C939 0.951 . S
H916 C941 0.951 . S
H917 C943 0.950 . S
H918 C944 0.950 . S
H919 C946 0.950 . S
H920 C949 0.950 . S
H921 C950 0.950 . S
H922 C952 0.950 . S
H923 C953 0.950 . S
C924 H906 0.951 . S
C924 C925 1.366 . S
C924 C926 1.388 . S
C925 C924 1.366 . S
C925 C929 1.385 . S
C926 H907 0.951 . S
C926 C924 1.388 . S
C926 C927 1.366 . S
C927 C926 1.366 . S
C927 C928 1.414 . S
C927 C930 1.499 . S
C928 H908 0.950 . S
C928 C927 1.414 . S
C928 C929 1.374 . S
C929 H909 0.950 . S
C929 C925 1.385 . S
C929 C928 1.374 . S
C930 C927 1.499 . S
C930 C931 1.373 . S
C930 C932 1.389 . S
C931 H910 0.950 . S
C931 C930 1.373 . S
C931 C947 1.377 . S
C932 C930 1.389 . S
C932 C933 1.524 . S
C932 C946 1.377 . S
C933 C932 1.524 . S
C933 C934 1.397 . S
C933 C938 1.363 . S
C934 H911 0.950 . S
C934 C933 1.397 . S
C934 C935 1.334 . S
C935 H912 0.950 . S
C935 C934 1.334 . S
C935 C936 1.287 . S
C936 C935 1.287 . S
C936 C937 1.524 . S
C936 H955 0.913 . S
C937 H913 0.950 . S
C937 C936 1.524 . S
C937 C938 1.415 . S
C938 H914 0.950 . S
C938 C933 1.363 . S
C938 C937 1.415 . S
C939 H915 0.951 . S
C939 C940 1.366 . S
C939 C941 1.388 . S
C940 C939 1.366 . S
C940 C944 1.385 . S
C941 H916 0.951 . S
C941 C939 1.388 . S
C941 C942 1.366 . S
C942 C941 1.366 . S
C942 C943 1.414 . S
C942 C945 1.499 . S
C943 H917 0.950 . S
C943 C942 1.414 . S
C943 C944 1.374 . S
C944 H918 0.950 . S
C944 C940 1.385 . S
C944 C943 1.374 . S
C945 C942 1.499 . S
C945 C946 1.373 . S
C945 C947 1.389 . S
C946 H919 0.950 . S
C946 C932 1.377 . S
C946 C945 1.373 . S
C947 C931 1.377 . S
C947 C945 1.389 . S
C947 C948 1.524 . S
C948 C947 1.524 . S
C948 C949 1.397 . S
C948 C953 1.363 . S
C949 H920 0.950 . S
C949 C948 1.397 . S
C949 C950 1.334 . S
C950 H921 0.950 . S
C950 C949 1.334 . S
C950 C951 1.287 . S
C951 C950 1.287 . S
C951 C952 1.524 . S
C951 H954 0.999 . S
C952 H922 0.950 . S
C952 C951 1.524 . S
C952 C953 1.415 . S
C953 H923 0.950 . S
C953 C948 1.363 . S
C953 C952 1.415 . S
H954 C951 0.999 . S
H955 C936 0.913 . S
H956 C974 0.951 . S
H957 C976 0.951 . S
H958 C978 0.950 . S
H959 C979 0.950 . S
H960 C981 0.950 . S
H961 C984 0.950 . S
H962 C985 0.950 . S
H963 C987 0.950 . S
H964 C988 0.950 . S
H965 C989 0.951 . S
H966 C991 0.951 . S
H967 C993 0.950 . S
H968 C994 0.950 . S
H969 C996 0.950 . S
H970 C999 0.950 . S
H971 C1000 0.950 . S
H972 C1002 0.950 1_655 S
H973 C1003 0.950 . S
C974 H956 0.951 . S
C974 C975 1.366 . S
C974 C976 1.388 . S
C975 C974 1.366 . S
C975 C979 1.385 . S
C976 H957 0.951 . S
C976 C974 1.388 . S
C976 C977 1.366 . S
C977 C976 1.366 . S
C977 C978 1.414 . S
C977 C980 1.499 . S
C978 H958 0.950 . S
C978 C977 1.414 . S
C978 C979 1.374 . S
C979 H959 0.950 . S
C979 C975 1.385 . S
C979 C978 1.374 . S
C980 C977 1.499 . S
C980 C981 1.373 . S
C980 C982 1.389 . S
C981 H960 0.950 . S
C981 C980 1.373 . S
C981 C997 1.377 . S
C982 C980 1.389 . S
C982 C983 1.524 . S
C982 C996 1.377 . S
C983 C982 1.524 . S
C983 C984 1.397 . S
C983 C988 1.363 . S
C984 H961 0.950 . S
C984 C983 1.397 . S
C984 C985 1.334 . S
C985 H962 0.950 . S
C985 C984 1.334 . S
C985 C986 1.287 . S
C986 C985 1.287 . S
C986 C987 1.524 . S
C986 H1005 0.913 . S
C987 H963 0.950 . S
C987 C986 1.524 . S
C987 C988 1.415 . S
C988 H964 0.950 . S
C988 C983 1.363 . S
C988 C987 1.415 . S
C989 H965 0.951 . S
C989 C990 1.366 . S
C989 C991 1.388 . S
C990 C989 1.366 . S
C990 C994 1.385 . S
C991 H966 0.951 . S
C991 C989 1.388 . S
C991 C992 1.366 . S
C992 C991 1.366 . S
C992 C993 1.414 . S
C992 C995 1.499 . S
C993 H967 0.950 . S
C993 C992 1.414 . S
C993 C994 1.374 . S
C994 H968 0.950 . S
C994 C990 1.385 . S
C994 C993 1.374 . S
C995 C992 1.499 . S
C995 C996 1.373 . S
C995 C997 1.389 . S
C996 H969 0.950 . S
C996 C982 1.377 . S
C996 C995 1.373 . S
C997 C981 1.377 . S
C997 C995 1.389 . S
C997 C998 1.524 . S
C998 C997 1.524 . S
C998 C999 1.397 . S
C998 C1003 1.363 . S
C999 H970 0.950 . S
C999 C998 1.397 . S
C999 C1000 1.334 1_455 S
C1000 H971 0.950 . S
C1000 C999 1.334 1_655 S
C1000 C1001 1.287 . S
C1001 C1000 1.287 . S
C1001 C1002 1.524 1_655 S
C1001 H1004 0.999 . S
C1002 H972 0.950 1_455 S
C1002 C1001 1.524 1_455 S
C1002 C1003 1.415 . S
C1003 H973 0.950 . S
C1003 C998 1.363 . S
C1003 C1002 1.415 . S
H1004 C1001 0.999 . S
H1005 C986 0.913 . S
H1006 C1024 0.951 . S
H1007 C1026 0.951 . S
H1008 C1028 0.950 . S
H1009 C1029 0.950 . S
H1010 C1031 0.950 . S
H1011 C1034 0.950 . S
H1012 C1035 0.950 . S
H1013 C1037 0.950 . S
H1014 C1038 0.950 . S
H1015 C1039 0.951 . S
H1016 C1041 0.951 . S
H1017 C1043 0.950 . S
H1018 C1044 0.950 1_565 S
H1019 C1046 0.950 . S
H1020 C1049 0.950 . S
H1021 C1050 0.950 . S
H1022 C1052 0.950 . S
H1023 C1053 0.950 . S
C1024 H1006 0.951 . S
C1024 C1025 1.366 . S
C1024 C1026 1.388 . S
C1025 C1024 1.366 . S
C1025 C1029 1.385 . S
C1026 H1007 0.951 . S
C1026 C1024 1.388 . S
C1026 C1027 1.366 . S
C1027 C1026 1.366 . S
C1027 C1028 1.414 . S
C1027 C1030 1.499 . S
C1028 H1008 0.950 . S
C1028 C1027 1.414 . S
C1028 C1029 1.374 . S
C1029 H1009 0.950 . S
C1029 C1025 1.385 . S
C1029 C1028 1.374 . S
C1030 C1027 1.499 . S
C1030 C1031 1.373 . S
C1030 C1032 1.389 . S
C1031 H1010 0.950 . S
C1031 C1030 1.373 . S
C1031 C1047 1.377 . S
C1032 C1030 1.389 . S
C1032 C1033 1.524 . S
C1032 C1046 1.377 . S
C1033 C1032 1.524 . S
C1033 C1034 1.397 . S
C1033 C1038 1.363 . S
C1034 H1011 0.950 . S
C1034 C1033 1.397 . S
C1034 C1035 1.334 . S
C1035 H1012 0.950 . S
C1035 C1034 1.334 . S
C1035 C1036 1.287 . S
C1036 C1035 1.287 . S
C1036 C1037 1.524 . S
C1036 H1055 0.913 . S
C1037 H1013 0.950 . S
C1037 C1036 1.524 . S
C1037 C1038 1.415 . S
C1038 H1014 0.950 . S
C1038 C1033 1.363 . S
C1038 C1037 1.415 . S
C1039 H1015 0.951 . S
C1039 C1040 1.366 . S
C1039 C1041 1.388 . S
C1040 C1039 1.366 . S
C1040 C1044 1.385 . S
C1041 H1016 0.951 . S
C1041 C1039 1.388 . S
C1041 C1042 1.366 . S
C1042 C1041 1.366 . S
C1042 C1043 1.414 . S
C1042 C1045 1.499 . S
C1043 H1017 0.950 . S
C1043 C1042 1.414 . S
C1043 C1044 1.374 . S
C1044 H1018 0.950 1_545 S
C1044 C1040 1.385 . S
C1044 C1043 1.374 . S
C1045 C1042 1.499 . S
C1045 C1046 1.373 . S
C1045 C1047 1.389 . S
C1046 H1019 0.950 . S
C1046 C1032 1.377 . S
C1046 C1045 1.373 . S
C1047 C1031 1.377 . S
C1047 C1045 1.389 . S
C1047 C1048 1.524 . S
C1048 C1047 1.524 . S
C1048 C1049 1.397 . S
C1048 C1053 1.363 . S
C1049 H1020 0.950 . S
C1049 C1048 1.397 . S
C1049 C1050 1.334 . S
C1050 H1021 0.950 . S
C1050 C1049 1.334 . S
C1050 C1051 1.287 . S
C1051 C1050 1.287 . S
C1051 C1052 1.524 . S
C1051 H1054 0.999 . S
C1052 H1022 0.950 . S
C1052 C1051 1.524 . S
C1052 C1053 1.415 . S
C1053 H1023 0.950 . S
C1053 C1048 1.363 . S
C1053 C1052 1.415 . S
H1054 C1051 0.999 . S
H1055 C1036 0.913 . S
H1056 C1074 0.951 . S
H1057 C1076 0.951 . S
H1058 C1078 0.950 . S
H1059 C1079 0.950 . S
H1060 C1081 0.950 . S
H1061 C1084 0.950 . S
H1062 C1085 0.950 . S
H1063 C1087 0.950 . S
H1064 C1088 0.950 . S
H1065 C1089 0.951 . S
H1066 C1091 0.951 . S
H1067 C1093 0.950 . S
H1068 C1094 0.950 . S
H1069 C1096 0.950 . S
H1070 C1099 0.950 . S
H1071 C1100 0.950 . S
H1072 C1102 0.950 . S
H1073 C1103 0.950 . S
C1074 H1056 0.951 . S
C1074 C1075 1.366 . S
C1074 C1076 1.388 . S
C1075 C1074 1.366 . S
C1075 C1079 1.385 . S
C1076 H1057 0.951 . S
C1076 C1074 1.388 . S
C1076 C1077 1.366 . S
C1077 C1076 1.366 . S
C1077 C1078 1.414 . S
C1077 C1080 1.499 . S
C1078 H1058 0.950 . S
C1078 C1077 1.414 . S
C1078 C1079 1.374 . S
C1079 H1059 0.950 . S
C1079 C1075 1.385 . S
C1079 C1078 1.374 . S
C1080 C1077 1.499 . S
C1080 C1081 1.373 . S
C1080 C1082 1.389 . S
C1081 H1060 0.950 . S
C1081 C1080 1.373 . S
C1081 C1097 1.377 . S
C1082 C1080 1.389 . S
C1082 C1083 1.524 . S
C1082 C1096 1.377 . S
C1083 C1082 1.524 . S
C1083 C1084 1.397 . S
C1083 C1088 1.363 . S
C1084 H1061 0.950 . S
C1084 C1083 1.397 . S
C1084 C1085 1.334 . S
C1085 H1062 0.950 . S
C1085 C1084 1.334 . S
C1085 C1086 1.287 . S
C1086 C1085 1.287 . S
C1086 C1087 1.524 . S
C1086 H1105 0.913 . S
C1087 H1063 0.950 . S
C1087 C1086 1.524 . S
C1087 C1088 1.415 . S
C1088 H1064 0.950 . S
C1088 C1083 1.363 . S
C1088 C1087 1.415 . S
C1089 H1065 0.951 . S
C1089 C1090 1.366 . S
C1089 C1091 1.388 . S
C1090 C1089 1.366 . S
C1090 C1094 1.385 . S
C1091 H1066 0.951 . S
C1091 C1089 1.388 . S
C1091 C1092 1.366 . S
C1092 C1091 1.366 . S
C1092 C1093 1.414 . S
C1092 C1095 1.499 . S
C1093 H1067 0.950 . S
C1093 C1092 1.414 . S
C1093 C1094 1.374 . S
C1094 H1068 0.950 . S
C1094 C1090 1.385 . S
C1094 C1093 1.374 . S
C1095 C1092 1.499 . S
C1095 C1096 1.373 . S
C1095 C1097 1.389 . S
C1096 H1069 0.950 . S
C1096 C1082 1.377 . S
C1096 C1095 1.373 . S
C1097 C1081 1.377 . S
C1097 C1095 1.389 . S
C1097 C1098 1.524 . S
C1098 C1097 1.524 . S
C1098 C1099 1.397 . S
C1098 C1103 1.363 . S
C1099 H1070 0.950 . S
C1099 C1098 1.397 . S
C1099 C1100 1.334 . S
C1100 H1071 0.950 . S
C1100 C1099 1.334 . S
C1100 C1101 1.287 . S
C1101 C1100 1.287 . S
C1101 C1102 1.524 . S
C1101 H1104 0.999 . S
C1102 H1072 0.950 . S
C1102 C1101 1.524 . S
C1102 C1103 1.415 . S
C1103 H1073 0.950 . S
C1103 C1098 1.363 . S
C1103 C1102 1.415 . S
H1104 C1101 0.999 . S
H1105 C1086 0.913 . S
H1106 C1124 0.951 . S
H1107 C1126 0.951 . S
H1108 C1128 0.950 . S
H1109 C1129 0.950 . S
H1110 C1131 0.950 . S
H1111 C1134 0.950 . S
H1112 C1135 0.950 . S
H1113 C1137 0.950 . S
H1114 C1138 0.950 . S
H1115 C1139 0.951 . S
H1116 C1141 0.951 . S
H1117 C1143 0.950 . S
H1118 C1144 0.950 . S
H1119 C1146 0.950 . S
H1120 C1149 0.950 . S
H1121 C1150 0.950 . S
H1122 C1152 0.950 . S
H1123 C1153 0.950 . S
C1124 H1106 0.951 . S
C1124 C1125 1.366 . S
C1124 C1126 1.388 . S
C1125 C1124 1.366 . S
C1125 C1129 1.385 . S
C1126 H1107 0.951 . S
C1126 C1124 1.388 . S
C1126 C1127 1.366 . S
C1127 C1126 1.366 . S
C1127 C1128 1.414 . S
C1127 C1130 1.499 . S
C1128 H1108 0.950 . S
C1128 C1127 1.414 . S
C1128 C1129 1.374 . S
C1129 H1109 0.950 . S
C1129 C1125 1.385 . S
C1129 C1128 1.374 . S
C1130 C1127 1.499 . S
C1130 C1131 1.373 . S
C1130 C1132 1.389 . S
C1131 H1110 0.950 . S
C1131 C1130 1.373 . S
C1131 C1147 1.377 . S
C1132 C1130 1.389 . S
C1132 C1133 1.524 . S
C1132 C1146 1.377 . S
C1133 C1132 1.524 . S
C1133 C1134 1.397 . S
C1133 C1138 1.363 . S
C1134 H1111 0.950 . S
C1134 C1133 1.397 . S
C1134 C1135 1.334 . S
C1135 H1112 0.950 . S
C1135 C1134 1.334 . S
C1135 C1136 1.287 . S
C1136 C1135 1.287 . S
C1136 C1137 1.524 . S
C1136 H1155 0.913 . S
C1137 H1113 0.950 . S
C1137 C1136 1.524 . S
C1137 C1138 1.415 . S
C1138 H1114 0.950 . S
C1138 C1133 1.363 . S
C1138 C1137 1.415 . S
C1139 H1115 0.951 . S
C1139 C1140 1.366 . S
C1139 C1141 1.388 . S
C1140 C1139 1.366 . S
C1140 C1144 1.385 . S
C1141 H1116 0.951 . S
C1141 C1139 1.388 . S
C1141 C1142 1.366 . S
C1142 C1141 1.366 . S
C1142 C1143 1.414 . S
C1142 C1145 1.499 . S
C1143 H1117 0.950 . S
C1143 C1142 1.414 . S
C1143 C1144 1.374 . S
C1144 H1118 0.950 . S
C1144 C1140 1.385 . S
C1144 C1143 1.374 . S
C1145 C1142 1.499 . S
C1145 C1146 1.373 . S
C1145 C1147 1.389 . S
C1146 H1119 0.950 . S
C1146 C1132 1.377 . S
C1146 C1145 1.373 . S
C1147 C1131 1.377 . S
C1147 C1145 1.389 . S
C1147 C1148 1.524 . S
C1148 C1147 1.524 . S
C1148 C1149 1.397 . S
C1148 C1153 1.363 . S
C1149 H1120 0.950 . S
C1149 C1148 1.397 . S
C1149 C1150 1.334 . S
C1150 H1121 0.950 . S
C1150 C1149 1.334 . S
C1150 C1151 1.287 . S
C1151 C1150 1.287 . S
C1151 C1152 1.524 . S
C1151 H1154 0.999 . S
C1152 H1122 0.950 . S
C1152 C1151 1.524 . S
C1152 C1153 1.415 . S
C1153 H1123 0.950 . S
C1153 C1148 1.363 . S
C1153 C1152 1.415 . S
H1154 C1151 0.999 . S
H1155 C1136 0.913 . S
H1156 C1174 0.951 . S
H1157 C1176 0.951 . S
H1158 C1178 0.950 . S
H1159 C1179 0.950 . S
H1160 C1181 0.950 . S
H1161 C1184 0.950 . S
H1162 C1185 0.950 . S
H1163 C1187 0.950 . S
H1164 C1188 0.950 . S
H1165 C1189 0.951 . S
H1166 C1191 0.951 . S
H1167 C1193 0.950 . S
H1168 C1194 0.950 . S
H1169 C1196 0.950 . S
H1170 C1199 0.950 . S
H1171 C1200 0.950 . S
H1172 C1202 0.950 . S
H1173 C1203 0.950 . S
C1174 H1156 0.951 . S
C1174 C1175 1.366 . S
C1174 C1176 1.388 . S
C1175 C1174 1.366 . S
C1175 C1179 1.385 . S
C1176 H1157 0.951 . S
C1176 C1174 1.388 . S
C1176 C1177 1.366 . S
C1177 C1176 1.366 . S
C1177 C1178 1.414 . S
C1177 C1180 1.499 . S
C1178 H1158 0.950 . S
C1178 C1177 1.414 . S
C1178 C1179 1.374 . S
C1179 H1159 0.950 . S
C1179 C1175 1.385 . S
C1179 C1178 1.374 . S
C1180 C1177 1.499 . S
C1180 C1181 1.373 . S
C1180 C1182 1.389 . S
C1181 H1160 0.950 . S
C1181 C1180 1.373 . S
C1181 C1197 1.377 . S
C1182 C1180 1.389 . S
C1182 C1183 1.524 . S
C1182 C1196 1.377 . S
C1183 C1182 1.524 . S
C1183 C1184 1.397 . S
C1183 C1188 1.363 . S
C1184 H1161 0.950 . S
C1184 C1183 1.397 . S
C1184 C1185 1.334 . S
C1185 H1162 0.950 . S
C1185 C1184 1.334 . S
C1185 C1186 1.287 . S
C1186 C1185 1.287 . S
C1186 C1187 1.524 . S
C1186 H1205 0.913 . S
C1187 H1163 0.950 . S
C1187 C1186 1.524 . S
C1187 C1188 1.415 . S
C1188 H1164 0.950 . S
C1188 C1183 1.363 . S
C1188 C1187 1.415 . S
C1189 H1165 0.951 . S
C1189 C1190 1.366 . S
C1189 C1191 1.388 . S
C1190 C1189 1.366 . S
C1190 C1194 1.385 . S
C1191 H1166 0.951 . S
C1191 C1189 1.388 . S
C1191 C1192 1.366 . S
C1192 C1191 1.366 . S
C1192 C1193 1.414 . S
C1192 C1195 1.499 . S
C1193 H1167 0.950 . S
C1193 C1192 1.414 . S
C1193 C1194 1.374 . S
C1194 H1168 0.950 . S
C1194 C1190 1.385 . S
C1194 C1193 1.374 . S
C1195 C1192 1.499 . S
C1195 C1196 1.373 . S
C1195 C1197 1.389 . S
C1196 H1169 0.950 . S
C1196 C1182 1.377 . S
C1196 C1195 1.373 . S
C1197 C1181 1.377 . S
C1197 C1195 1.389 . S
C1197 C1198 1.524 . S
C1198 C1197 1.524 . S
C1198 C1199 1.397 . S
C1198 C1203 1.363 . S
C1199 H1170 0.950 . S
C1199 C1198 1.397 . S
C1199 C1200 1.334 . S
C1200 H1171 0.950 . S
C1200 C1199 1.334 . S
C1200 C1201 1.287 . S
C1201 C1200 1.287 . S
C1201 C1202 1.524 . S
C1201 H1204 0.999 . S
C1202 H1172 0.950 . S
C1202 C1201 1.524 . S
C1202 C1203 1.415 . S
C1203 H1173 0.950 . S
C1203 C1198 1.363 . S
C1203 C1202 1.415 . S
H1204 C1201 0.999 . S
H1205 C1186 0.913 . S
H1206 C1224 0.951 . S
H1207 C1226 0.951 . S
H1208 C1228 0.950 . S
H1209 C1229 0.950 . S
H1210 C1231 0.950 . S
H1211 C1234 0.950 . S
H1212 C1235 0.950 . S
H1213 C1237 0.950 . S
H1214 C1238 0.950 . S
H1215 C1239 0.951 . S
H1216 C1241 0.951 . S
H1217 C1243 0.950 . S
H1218 C1244 0.950 . S
H1219 C1246 0.950 . S
H1220 C1249 0.950 . S
H1221 C1250 0.950 . S
H1222 C1252 0.950 . S
H1223 C1253 0.950 . S
C1224 H1206 0.951 . S
C1224 C1225 1.366 . S
C1224 C1226 1.388 . S
C1225 C1224 1.366 . S
C1225 C1229 1.385 . S
C1226 H1207 0.951 . S
C1226 C1224 1.388 . S
C1226 C1227 1.366 . S
C1227 C1226 1.366 . S
C1227 C1228 1.414 . S
C1227 C1230 1.499 . S
C1228 H1208 0.950 . S
C1228 C1227 1.414 . S
C1228 C1229 1.374 . S
C1229 H1209 0.950 . S
C1229 C1225 1.385 . S
C1229 C1228 1.374 . S
C1230 C1227 1.499 . S
C1230 C1231 1.373 . S
C1230 C1232 1.389 . S
C1231 H1210 0.950 . S
C1231 C1230 1.373 . S
C1231 C1247 1.377 . S
C1232 C1230 1.389 . S
C1232 C1233 1.524 . S
C1232 C1246 1.377 . S
C1233 C1232 1.524 . S
C1233 C1234 1.397 . S
C1233 C1238 1.363 . S
C1234 H1211 0.950 . S
C1234 C1233 1.397 . S
C1234 C1235 1.334 . S
C1235 H1212 0.950 . S
C1235 C1234 1.334 . S
C1235 C1236 1.287 . S
C1236 C1235 1.287 . S
C1236 C1237 1.524 . S
C1236 H1255 0.913 . S
C1237 H1213 0.950 . S
C1237 C1236 1.524 . S
C1237 C1238 1.415 . S
C1238 H1214 0.950 . S
C1238 C1233 1.363 . S
C1238 C1237 1.415 . S
C1239 H1215 0.951 . S
C1239 C1240 1.366 . S
C1239 C1241 1.388 . S
C1240 C1239 1.366 . S
C1240 C1244 1.385 . S
C1241 H1216 0.951 . S
C1241 C1239 1.388 . S
C1241 C1242 1.366 . S
C1242 C1241 1.366 . S
C1242 C1243 1.414 . S
C1242 C1245 1.499 . S
C1243 H1217 0.950 . S
C1243 C1242 1.414 . S
C1243 C1244 1.374 . S
C1244 H1218 0.950 . S
C1244 C1240 1.385 . S
C1244 C1243 1.374 . S
C1245 C1242 1.499 . S
C1245 C1246 1.373 . S
C1245 C1247 1.389 . S
C1246 H1219 0.950 . S
C1246 C1232 1.377 . S
C1246 C1245 1.373 . S
C1247 C1231 1.377 . S
C1247 C1245 1.389 . S
C1247 C1248 1.524 . S
C1248 C1247 1.524 . S
C1248 C1249 1.397 . S
C1248 C1253 1.363 . S
C1249 H1220 0.950 . S
C1249 C1248 1.397 . S
C1249 C1250 1.334 . S
C1250 H1221 0.950 . S
C1250 C1249 1.334 . S
C1250 C1251 1.287 . S
C1251 C1250 1.287 . S
C1251 C1252 1.524 . S
C1251 H1254 0.999 . S
C1252 H1222 0.950 . S
C1252 C1251 1.524 . S
C1252 C1253 1.415 . S
C1253 H1223 0.950 . S
C1253 C1248 1.363 . S
C1253 C1252 1.415 . S
H1254 C1251 0.999 . S
H1255 C1236 0.913 . S
H1256 C1274 0.951 . S
H1257 C1276 0.951 . S
H1258 C1278 0.950 . S
H1259 C1279 0.950 . S
H1260 C1281 0.950 . S
H1261 C1284 0.950 . S
H1262 C1285 0.950 . S
H1263 C1287 0.950 . S
H1264 C1288 0.950 . S
H1265 C1289 0.951 . S
H1266 C1291 0.951 . S
H1267 C1293 0.950 . S
H1268 C1294 0.950 . S
H1269 C1296 0.950 . S
H1270 C1299 0.950 . S
H1271 C1300 0.950 . S
H1272 C1302 0.950 . S
H1273 C1303 0.950 . S
C1274 H1256 0.951 . S
C1274 C1275 1.366 . S
C1274 C1276 1.388 . S
C1275 C1274 1.366 . S
C1275 C1279 1.385 . S
C1276 H1257 0.951 . S
C1276 C1274 1.388 . S
C1276 C1277 1.366 . S
C1277 C1276 1.366 . S
C1277 C1278 1.414 . S
C1277 C1280 1.499 . S
C1278 H1258 0.950 . S
C1278 C1277 1.414 . S
C1278 C1279 1.374 . S
C1279 H1259 0.950 . S
C1279 C1275 1.385 . S
C1279 C1278 1.374 . S
C1280 C1277 1.499 . S
C1280 C1281 1.373 . S
C1280 C1282 1.389 . S
C1281 H1260 0.950 . S
C1281 C1280 1.373 . S
C1281 C1297 1.377 . S
C1282 C1280 1.389 . S
C1282 C1283 1.524 . S
C1282 C1296 1.377 . S
C1283 C1282 1.524 . S
C1283 C1284 1.397 . S
C1283 C1288 1.363 . S
C1284 H1261 0.950 . S
C1284 C1283 1.397 . S
C1284 C1285 1.334 . S
C1285 H1262 0.950 . S
C1285 C1284 1.334 . S
C1285 C1286 1.287 . S
C1286 C1285 1.287 . S
C1286 C1287 1.524 . S
C1286 H1305 0.913 . S
C1287 H1263 0.950 . S
C1287 C1286 1.524 . S
C1287 C1288 1.415 . S
C1288 H1264 0.950 . S
C1288 C1283 1.363 . S
C1288 C1287 1.415 . S
C1289 H1265 0.951 . S
C1289 C1290 1.366 . S
C1289 C1291 1.388 . S
C1290 C1289 1.366 . S
C1290 C1294 1.385 . S
C1291 H1266 0.951 . S
C1291 C1289 1.388 . S
C1291 C1292 1.366 . S
C1292 C1291 1.366 . S
C1292 C1293 1.414 . S
C1292 C1295 1.499 . S
C1293 H1267 0.950 . S
C1293 C1292 1.414 . S
C1293 C1294 1.374 . S
C1294 H1268 0.950 . S
C1294 C1290 1.385 . S
C1294 C1293 1.374 . S
C1295 C1292 1.499 . S
C1295 C1296 1.373 . S
C1295 C1297 1.389 . S
C1296 H1269 0.950 . S
C1296 C1282 1.377 . S
C1296 C1295 1.373 . S
C1297 C1281 1.377 . S
C1297 C1295 1.389 . S
C1297 C1298 1.524 . S
C1298 C1297 1.524 . S
C1298 C1299 1.397 . S
C1298 C1303 1.363 . S
C1299 H1270 0.950 . S
C1299 C1298 1.397 . S
C1299 C1300 1.334 . S
C1300 H1271 0.950 . S
C1300 C1299 1.334 . S
C1300 C1301 1.287 . S
C1301 C1300 1.287 . S
C1301 C1302 1.524 . S
C1301 H1304 0.999 . S
C1302 H1272 0.950 . S
C1302 C1301 1.524 . S
C1302 C1303 1.415 . S
C1303 H1273 0.950 . S
C1303 C1298 1.363 . S
C1303 C1302 1.415 . S
H1304 C1301 0.999 . S
H1305 C1286 0.913 . S
H1306 C1324 0.951 . S
H1307 C1326 0.951 . S
H1308 C1328 0.950 . S
H1309 C1329 0.950 . S
H1310 C1331 0.950 . S
H1311 C1334 0.950 . S
H1312 C1335 0.950 . S
H1313 C1337 0.950 . S
H1314 C1338 0.950 . S
H1315 C1339 0.951 . S
H1316 C1341 0.951 . S
H1317 C1343 0.950 . S
H1318 C1344 0.950 . S
H1319 C1346 0.950 . S
H1320 C1349 0.950 . S
H1321 C1350 0.950 . S
H1322 C1352 0.950 . S
H1323 C1353 0.950 . S
C1324 H1306 0.951 . S
C1324 C1325 1.366 . S
C1324 C1326 1.388 . S
C1325 C1324 1.366 . S
C1325 C1329 1.385 . S
C1326 H1307 0.951 . S
C1326 C1324 1.388 . S
C1326 C1327 1.366 . S
C1327 C1326 1.366 . S
C1327 C1328 1.414 . S
C1327 C1330 1.499 . S
C1328 H1308 0.950 . S
C1328 C1327 1.414 . S
C1328 C1329 1.374 . S
C1329 H1309 0.950 . S
C1329 C1325 1.385 . S
C1329 C1328 1.374 . S
C1330 C1327 1.499 . S
C1330 C1331 1.373 . S
C1330 C1332 1.389 . S
C1331 H1310 0.950 . S
C1331 C1330 1.373 . S
C1331 C1347 1.377 . S
C1332 C1330 1.389 . S
C1332 C1333 1.524 . S
C1332 C1346 1.377 . S
C1333 C1332 1.524 . S
C1333 C1334 1.397 . S
C1333 C1338 1.363 . S
C1334 H1311 0.950 . S
C1334 C1333 1.397 . S
C1334 C1335 1.334 . S
C1335 H1312 0.950 . S
C1335 C1334 1.334 . S
C1335 C1336 1.287 . S
C1336 C1335 1.287 . S
C1336 C1337 1.524 . S
C1336 H1355 0.913 . S
C1337 H1313 0.950 . S
C1337 C1336 1.524 . S
C1337 C1338 1.415 . S
C1338 H1314 0.950 . S
C1338 C1333 1.363 . S
C1338 C1337 1.415 . S
C1339 H1315 0.951 . S
C1339 C1340 1.366 . S
C1339 C1341 1.388 . S
C1340 C1339 1.366 . S
C1340 C1344 1.385 . S
C1341 H1316 0.951 . S
C1341 C1339 1.388 . S
C1341 C1342 1.366 . S
C1342 C1341 1.366 . S
C1342 C1343 1.414 . S
C1342 C1345 1.499 . S
C1343 H1317 0.950 . S
C1343 C1342 1.414 . S
C1343 C1344 1.374 . S
C1344 H1318 0.950 . S
C1344 C1340 1.385 . S
C1344 C1343 1.374 . S
C1345 C1342 1.499 . S
C1345 C1346 1.373 . S
C1345 C1347 1.389 . S
C1346 H1319 0.950 . S
C1346 C1332 1.377 . S
C1346 C1345 1.373 . S
C1347 C1331 1.377 . S
C1347 C1345 1.389 . S
C1347 C1348 1.524 . S
C1348 C1347 1.524 . S
C1348 C1349 1.397 . S
C1348 C1353 1.363 . S
C1349 H1320 0.950 . S
C1349 C1348 1.397 . S
C1349 C1350 1.334 . S
C1350 H1321 0.950 . S
C1350 C1349 1.334 . S
C1350 C1351 1.287 . S
C1351 C1350 1.287 . S
C1351 C1352 1.524 . S
C1351 H1354 0.999 . S
C1352 H1322 0.950 . S
C1352 C1351 1.524 . S
C1352 C1353 1.415 . S
C1353 H1323 0.950 . S
C1353 C1348 1.363 . S
C1353 C1352 1.415 . S
H1354 C1351 0.999 . S
H1355 C1336 0.913 . S
C175 C108 1.279 . S
C190 C4 1.279 . S
C225 C23 1.279 . S
C240 C127 1.279 . S
C275 C36 1.279 . S
C290 C134 1.279 . S
C325 C49 1.279 . S
C340 C153 1.279 . S
C375 C82 1.279 . S
C390 C56 1.279 . S
C425 C75 1.279 . S
C440 C95 1.279 . S
C475 C10 1.530 . S
C490 C70 1.516 1_554 S
C525 C17 1.531 . S
C540 C3 1.516 1_655 S
C575 C30 1.531 . S
C590 C18 1.516 1_565 S
C625 C31 1.516 . S
C640 C43 1.530 . S
C675 C44 1.516 1_455 S
C690 C62 1.530 . S
C725 C55 1.516 1_545 S
C740 C69 1.530 . S
C775 C94 1.516 . S
C790 C88 1.530 . S
C825 C101 1.530 . S
C840 C107 1.516 1_656 S
C875 C122 1.516 1_565 S
C890 C114 1.530 . S
C925 C121 1.530 . S
C940 C133 1.516 . S
C975 C140 1.530 . S
C990 C148 1.516 1_455 S
C1025 C147 1.531 . S
C1040 C81 1.516 1_545 S
C1075 C135 1.238 . S
C1090 C5 1.238 . S
C1125 C146 1.238 . S
C1140 C16 1.238 . S
C1175 C83 1.238 . S
C1190 C29 1.238 . S
C1225 C42 1.238 . S
C1240 C96 1.238 . S
C1275 C57 1.238 . S
C1290 C109 1.238 . S
C1325 C120 1.238 . S
C1340 C68 1.238 . S
