# Generated by pormake.
# Topology zni, (4)-cn, num edge types: 1
# Building blocks:
#     Node 0, Type 0, BuildingBlock: CEKHIL_clean_sbu_0, # of connection points: 4
#     Node 1, Type 0, BuildingBlock: CEKHIL_clean_sbu_0, # of connection points: 4
#     Node 2, Type 0, BuildingBlock: CEKHIL_clean_sbu_0, # of connection points: 4
#     Node 3, Type 0, BuildingBlock: CEKHIL_clean_sbu_0, # of connection points: 4
#     Node 4, Type 0, BuildingBlock: CEKHIL_clean_sbu_0, # of connection points: 4
#     Node 5, Type 0, BuildingBlock: CEKHIL_clean_sbu_0, # of connection points: 4
#     Node 6, Type 0, BuildingBlock: CEKHIL_clean_sbu_0, # of connection points: 4
#     Node 7, Type 0, BuildingBlock: CEKHIL_clean_sbu_0, # of connection points: 4
#     Node 8, Type 0, BuildingBlock: CEKHIL_clean_sbu_0, # of connection points: 4
#     Node 9, Type 0, BuildingBlock: CEKHIL_clean_sbu_0, # of connection points: 4
#     Node 10, Type 0, BuildingBlock: CEKHIL_clean_sbu_0, # of connection points: 4
#     Node 11, Type 0, BuildingBlock: CEKHIL_clean_sbu_0, # of connection points: 4
#     Node 12, Type 0, BuildingBlock: CEKHIL_clean_sbu_0, # of connection points: 4
#     Node 13, Type 0, BuildingBlock: CEKHIL_clean_sbu_0, # of connection points: 4
#     Node 14, Type 0, BuildingBlock: CEKHIL_clean_sbu_0, # of connection points: 4
#     Node 15, Type 0, BuildingBlock: CEKHIL_clean_sbu_0, # of connection points: 4
#     Node 16, Type 0, BuildingBlock: CEKHIL_clean_sbu_0, # of connection points: 4
#     Node 17, Type 0, BuildingBlock: CEKHIL_clean_sbu_0, # of connection points: 4
#     Node 18, Type 0, BuildingBlock: CEKHIL_clean_sbu_0, # of connection points: 4
#     Node 19, Type 0, BuildingBlock: CEKHIL_clean_sbu_0, # of connection points: 4
#     Node 20, Type 0, BuildingBlock: CEKHIL_clean_sbu_0, # of connection points: 4
#     Node 21, Type 0, BuildingBlock: CEKHIL_clean_sbu_0, # of connection points: 4
#     Node 22, Type 0, BuildingBlock: CEKHIL_clean_sbu_0, # of connection points: 4
#     Node 23, Type 0, BuildingBlock: CEKHIL_clean_sbu_0, # of connection points: 4
#     Node 24, Type 0, BuildingBlock: CEKHIL_clean_sbu_0, # of connection points: 4
#     Node 25, Type 0, BuildingBlock: CEKHIL_clean_sbu_0, # of connection points: 4
#     Node 26, Type 0, BuildingBlock: CEKHIL_clean_sbu_0, # of connection points: 4
#     Node 27, Type 0, BuildingBlock: CEKHIL_clean_sbu_0, # of connection points: 4
#     Node 28, Type 0, BuildingBlock: CEKHIL_clean_sbu_0, # of connection points: 4
#     Node 29, Type 0, BuildingBlock: CEKHIL_clean_sbu_0, # of connection points: 4
#     Node 30, Type 0, BuildingBlock: CEKHIL_clean_sbu_0, # of connection points: 4
#     Node 31, Type 0, BuildingBlock: CEKHIL_clean_sbu_0, # of connection points: 4
#     Edge 32, Type (0, 0), BuildingBlock: UVAHIK_clean_linker_0, # of connection points: 2
#     Edge 33, Type (0, 0), BuildingBlock: UVAHIK_clean_linker_0, # of connection points: 2
#     Edge 34, Type (0, 0), BuildingBlock: UVAHIK_clean_linker_0, # of connection points: 2
#     Edge 35, Type (0, 0), BuildingBlock: UVAHIK_clean_linker_0, # of connection points: 2
#     Edge 36, Type (0, 0), BuildingBlock: UVAHIK_clean_linker_0, # of connection points: 2
#     Edge 37, Type (0, 0), BuildingBlock: UVAHIK_clean_linker_0, # of connection points: 2
#     Edge 38, Type (0, 0), BuildingBlock: UVAHIK_clean_linker_0, # of connection points: 2
#     Edge 39, Type (0, 0), BuildingBlock: UVAHIK_clean_linker_0, # of connection points: 2
#     Edge 40, Type (0, 0), BuildingBlock: UVAHIK_clean_linker_0, # of connection points: 2
#     Edge 41, Type (0, 0), BuildingBlock: UVAHIK_clean_linker_0, # of connection points: 2
#     Edge 42, Type (0, 0), BuildingBlock: UVAHIK_clean_linker_0, # of connection points: 2
#     Edge 43, Type (0, 0), BuildingBlock: UVAHIK_clean_linker_0, # of connection points: 2
#     Edge 44, Type (0, 0), BuildingBlock: UVAHIK_clean_linker_0, # of connection points: 2
#     Edge 45, Type (0, 0), BuildingBlock: UVAHIK_clean_linker_0, # of connection points: 2
#     Edge 46, Type (0, 0), BuildingBlock: UVAHIK_clean_linker_0, # of connection points: 2
#     Edge 47, Type (0, 0), BuildingBlock: UVAHIK_clean_linker_0, # of connection points: 2
#     Edge 48, Type (0, 0), BuildingBlock: UVAHIK_clean_linker_0, # of connection points: 2
#     Edge 49, Type (0, 0), BuildingBlock: UVAHIK_clean_linker_0, # of connection points: 2
#     Edge 50, Type (0, 0), BuildingBlock: UVAHIK_clean_linker_0, # of connection points: 2
#     Edge 51, Type (0, 0), BuildingBlock: UVAHIK_clean_linker_0, # of connection points: 2
#     Edge 52, Type (0, 0), BuildingBlock: UVAHIK_clean_linker_0, # of connection points: 2
#     Edge 53, Type (0, 0), BuildingBlock: UVAHIK_clean_linker_0, # of connection points: 2
#     Edge 54, Type (0, 0), BuildingBlock: UVAHIK_clean_linker_0, # of connection points: 2
#     Edge 55, Type (0, 0), BuildingBlock: UVAHIK_clean_linker_0, # of connection points: 2
#     Edge 56, Type (0, 0), BuildingBlock: UVAHIK_clean_linker_0, # of connection points: 2
#     Edge 57, Type (0, 0), BuildingBlock: UVAHIK_clean_linker_0, # of connection points: 2
#     Edge 58, Type (0, 0), BuildingBlock: UVAHIK_clean_linker_0, # of connection points: 2
#     Edge 59, Type (0, 0), BuildingBlock: UVAHIK_clean_linker_0, # of connection points: 2
#     Edge 60, Type (0, 0), BuildingBlock: UVAHIK_clean_linker_0, # of connection points: 2
#     Edge 61, Type (0, 0), BuildingBlock: UVAHIK_clean_linker_0, # of connection points: 2
#     Edge 62, Type (0, 0), BuildingBlock: UVAHIK_clean_linker_0, # of connection points: 2
#     Edge 63, Type (0, 0), BuildingBlock: UVAHIK_clean_linker_0, # of connection points: 2
#     Edge 64, Type (0, 0), BuildingBlock: UVAHIK_clean_linker_0, # of connection points: 2
#     Edge 65, Type (0, 0), BuildingBlock: UVAHIK_clean_linker_0, # of connection points: 2
#     Edge 66, Type (0, 0), BuildingBlock: UVAHIK_clean_linker_0, # of connection points: 2
#     Edge 67, Type (0, 0), BuildingBlock: UVAHIK_clean_linker_0, # of connection points: 2
#     Edge 68, Type (0, 0), BuildingBlock: UVAHIK_clean_linker_0, # of connection points: 2
#     Edge 69, Type (0, 0), BuildingBlock: UVAHIK_clean_linker_0, # of connection points: 2
#     Edge 70, Type (0, 0), BuildingBlock: UVAHIK_clean_linker_0, # of connection points: 2
#     Edge 71, Type (0, 0), BuildingBlock: UVAHIK_clean_linker_0, # of connection points: 2
#     Edge 72, Type (0, 0), BuildingBlock: UVAHIK_clean_linker_0, # of connection points: 2
#     Edge 73, Type (0, 0), BuildingBlock: UVAHIK_clean_linker_0, # of connection points: 2
#     Edge 74, Type (0, 0), BuildingBlock: UVAHIK_clean_linker_0, # of connection points: 2
#     Edge 75, Type (0, 0), BuildingBlock: UVAHIK_clean_linker_0, # of connection points: 2
#     Edge 76, Type (0, 0), BuildingBlock: UVAHIK_clean_linker_0, # of connection points: 2
#     Edge 77, Type (0, 0), BuildingBlock: UVAHIK_clean_linker_0, # of connection points: 2
#     Edge 78, Type (0, 0), BuildingBlock: UVAHIK_clean_linker_0, # of connection points: 2
#     Edge 79, Type (0, 0), BuildingBlock: UVAHIK_clean_linker_0, # of connection points: 2
#     Edge 80, Type (0, 0), BuildingBlock: UVAHIK_clean_linker_0, # of connection points: 2
#     Edge 81, Type (0, 0), BuildingBlock: UVAHIK_clean_linker_0, # of connection points: 2
#     Edge 82, Type (0, 0), BuildingBlock: UVAHIK_clean_linker_0, # of connection points: 2
#     Edge 83, Type (0, 0), BuildingBlock: UVAHIK_clean_linker_0, # of connection points: 2
#     Edge 84, Type (0, 0), BuildingBlock: UVAHIK_clean_linker_0, # of connection points: 2
#     Edge 85, Type (0, 0), BuildingBlock: UVAHIK_clean_linker_0, # of connection points: 2
#     Edge 86, Type (0, 0), BuildingBlock: UVAHIK_clean_linker_0, # of connection points: 2
#     Edge 87, Type (0, 0), BuildingBlock: UVAHIK_clean_linker_0, # of connection points: 2
#     Edge 88, Type (0, 0), BuildingBlock: UVAHIK_clean_linker_0, # of connection points: 2
#     Edge 89, Type (0, 0), BuildingBlock: UVAHIK_clean_linker_0, # of connection points: 2
#     Edge 90, Type (0, 0), BuildingBlock: UVAHIK_clean_linker_0, # of connection points: 2
#     Edge 91, Type (0, 0), BuildingBlock: UVAHIK_clean_linker_0, # of connection points: 2
#     Edge 92, Type (0, 0), BuildingBlock: UVAHIK_clean_linker_0, # of connection points: 2
#     Edge 93, Type (0, 0), BuildingBlock: UVAHIK_clean_linker_0, # of connection points: 2
#     Edge 94, Type (0, 0), BuildingBlock: UVAHIK_clean_linker_0, # of connection points: 2
#     Edge 95, Type (0, 0), BuildingBlock: UVAHIK_clean_linker_0, # of connection points: 2
# Relax obj value: 0.229
# Max RMSD: 0.114
# Mean RMSD: 0.114
data_MOF--net-zni--node1-CEKHIL_clean_sbu_0--edge1-UVAHIK_clean_linker_0
_symmetry_space_group_name_H-M    P1
_symmetry_Int_Tables_number       1
_symmetry_cell_setting            triclinic
loop_
_symmetry_equiv_pos_as_xyz
'x, y, z'
_cell_length_a     74.322762
_cell_length_b     74.320394
_cell_length_c     38.09115
_cell_angle_alpha  89.987195
_cell_angle_beta   90.020216
_cell_angle_gamma 89.996836
loop_
_atom_site_label
_atom_site_type_symbol
_atom_site_fract_x
_atom_site_fract_y
_atom_site_fract_z
_atom_type_partial_charge
Co0 Co 0.09193 0.09175 0.42113 0.0
O1 O 0.08517 0.06768 0.40933 0.0
O2 O 0.09528 0.0881 0.37153 0.0
C3 C 0.10837 0.08438 0.46832 0.0
O4 O 0.10065 0.11757 0.42392 0.0
Co5 Co 0.07973 0.10878 0.49133 0.0
O6 O 0.09613 0.1288 0.47793 0.0
C7 C 0.05352 0.10316 0.43454 0.0
C8 C 0.0896 0.07181 0.37738 0.0
C9 C 0.10242 0.13012 0.4469 0.0
O10 O 0.06651 0.09996 0.4132 0.0
O11 O 0.05573 0.10515 0.46766 0.0
O12 O 0.11537 0.08346 0.43714 0.0
O13 O 0.09143 0.08827 0.46965 0.0
Co14 Co 0.15645 0.83618 0.66706 0.0
O15 O 0.18127 0.83253 0.65582 0.0
O16 O 0.16016 0.84082 0.61784 0.0
C17 C 0.16165 0.85233 0.71551 0.0
O18 O 0.12984 0.84223 0.66911 0.0
Co19 Co 0.13976 0.82117 0.735 0.0
O20 O 0.1182 0.83545 0.72186 0.0
C21 C 0.14771 0.79653 0.67651 0.0
C22 C 0.17697 0.83711 0.62402 0.0
C23 C 0.11684 0.84234 0.69135 0.0
O24 O 0.15121 0.81015 0.65687 0.0
O25 O 0.1443 0.79797 0.70934 0.0
O26 O 0.16181 0.86005 0.68493 0.0
O27 O 0.15962 0.83505 0.71581 0.0
Co28 Co 0.40443 0.90733 0.91548 0.0
O29 O 0.41152 0.93144 0.90487 0.0
O30 O 0.40273 0.91117 0.86557 0.0
C31 C 0.38657 0.91465 0.96037 0.0
O32 O 0.39565 0.88147 0.91678 0.0
Co33 Co 0.41405 0.88995 0.98657 0.0
O34 O 0.39725 0.8706 0.97167 0.0
C35 C 0.44218 0.89431 0.93272 0.0
C36 C 0.40825 0.92742 0.87236 0.0
C37 C 0.39243 0.86917 0.93969 0.0
O38 O 0.43008 0.89923 0.91062 0.0
O39 O 0.43879 0.89129 0.96516 0.0
O40 O 0.38044 0.91537 0.92849 0.0
O41 O 0.40343 0.91082 0.96404 0.0
Co42 Co 0.34267 0.15897 0.16722 0.0
O43 O 0.3178 0.1639 0.15867 0.0
O44 O 0.33788 0.15692 0.11772 0.0
C45 C 0.33803 0.14058 0.21285 0.0
O46 O 0.36914 0.1522 0.16631 0.0
Co47 Co 0.36084 0.17047 0.2364 0.0
O48 O 0.38083 0.15473 0.22041 0.0
C49 C 0.35339 0.19778 0.18233 0.0
C50 C 0.32133 0.16085 0.12585 0.0
C51 C 0.38199 0.14982 0.18844 0.0
O52 O 0.3486 0.18515 0.16131 0.0
O53 O 0.35755 0.19494 0.2145 0.0
O54 O 0.33685 0.13451 0.18096 0.0
O55 O 0.3405 0.15774 0.21614 0.0
Co56 Co 0.09361 0.91013 0.07861 0.0
O57 O 0.08785 0.93464 0.0889 0.0
O58 O 0.09549 0.914 0.12843 0.0
C59 C 0.11207 0.91586 0.0336 0.0
O60 O 0.10101 0.88388 0.07754 0.0
Co61 Co 0.08266 0.89329 0.00748 0.0
O62 O 0.09817 0.87291 0.02288 0.0
C63 C 0.05509 0.89997 0.06116 0.0
C64 C 0.09095 0.93053 0.12145 0.0
C65 C 0.10327 0.87134 0.05471 0.0
O66 O 0.06757 0.90333 0.08354 0.0
O67 O 0.0581 0.89738 0.02845 0.0
O68 O 0.118 0.91681 0.06562 0.0
O69 O 0.09497 0.9132 0.03001 0.0
Co70 Co 0.33929 0.84174 0.32666 0.0
O71 O 0.31418 0.8381 0.3349 0.0
O72 O 0.33436 0.84454 0.37602 0.0
C73 C 0.3357 0.85988 0.28028 0.0
O74 O 0.36606 0.8473 0.32771 0.0
Co75 Co 0.35697 0.82854 0.25809 0.0
O76 O 0.37841 0.84191 0.27492 0.0
C77 C 0.34788 0.80225 0.31299 0.0
C78 C 0.31769 0.84135 0.36765 0.0
C79 C 0.37943 0.84776 0.3063 0.0
O80 O 0.34394 0.81533 0.33367 0.0
O81 O 0.35204 0.80457 0.28068 0.0
O82 O 0.3347 0.8663 0.31191 0.0
O83 O 0.33734 0.84259 0.27768 0.0
Co84 Co 0.40499 0.08885 0.5764 0.0
O85 O 0.4118 0.0648 0.58815 0.0
O86 O 0.40299 0.08558 0.62642 0.0
C87 C 0.3873 0.08135 0.53131 0.0
O88 O 0.39651 0.11474 0.57379 0.0
Co89 Co 0.41544 0.10523 0.50472 0.0
O90 O 0.39945 0.12543 0.51897 0.0
C91 C 0.44307 0.10024 0.55907 0.0
C92 C 0.40844 0.06922 0.62043 0.0
C93 C 0.3941 0.12708 0.55062 0.0
O94 O 0.43066 0.09682 0.58154 0.0
O95 O 0.44006 0.10221 0.52619 0.0
O96 O 0.38099 0.08092 0.56308 0.0
O97 O 0.40423 0.0849 0.528 0.0
Co98 Co 0.15869 0.15679 0.82877 0.0
O99 O 0.18347 0.16174 0.83819 0.0
O100 O 0.16316 0.15412 0.87829 0.0
C101 C 0.16379 0.13911 0.78221 0.0
O102 O 0.13224 0.14991 0.82864 0.0
Co103 Co 0.14093 0.16906 0.75948 0.0
O104 O 0.12084 0.15317 0.77441 0.0
C105 C 0.14832 0.19575 0.8148 0.0
C106 C 0.17972 0.15828 0.87077 0.0
C107 C 0.1195 0.14785 0.80612 0.0
O108 O 0.15261 0.18288 0.83571 0.0
O109 O 0.14454 0.19323 0.78235 0.0
O110 O 0.16483 0.13255 0.81376 0.0
O111 O 0.16113 0.15627 0.77999 0.0
Co112 Co 0.90616 0.90972 0.57378 0.0
O113 O 0.91351 0.93398 0.58269 0.0
O114 O 0.90438 0.9146 0.6233 0.0
C115 C 0.88864 0.91649 0.52767 0.0
O116 O 0.89682 0.88399 0.5745 0.0
Co117 Co 0.91543 0.89042 0.50425 0.0
O118 O 0.89786 0.8721 0.52038 0.0
C119 C 0.94343 0.89465 0.55867 0.0
C120 C 0.90993 0.9307 0.61542 0.0
C121 C 0.89313 0.87139 0.55249 0.0
O122 O 0.93165 0.90121 0.57978 0.0
O123 O 0.93992 0.89048 0.52675 0.0
O124 O 0.88245 0.91812 0.55941 0.0
O125 O 0.9054 0.91205 0.52496 0.0
Co126 Co 0.83879 0.15284 0.32119 0.0
O127 O 0.8141 0.15786 0.33136 0.0
O128 O 0.835 0.15144 0.37112 0.0
C129 C 0.83302 0.13408 0.2768 0.0
O130 O 0.86525 0.14634 0.32067 0.0
Co131 Co 0.85583 0.16303 0.25019 0.0
O132 O 0.8763 0.14769 0.26589 0.0
C133 C 0.84863 0.19126 0.30256 0.0
C134 C 0.81832 0.15533 0.36405 0.0
C135 C 0.87786 0.14364 0.29825 0.0
O136 O 0.84483 0.17905 0.32522 0.0
O137 O 0.85181 0.18787 0.27017 0.0
O138 O 0.83278 0.12816 0.30886 0.0
O139 O 0.83559 0.15115 0.27261 0.0
Co140 Co 0.59391 0.08618 0.07455 0.0
O141 O 0.58751 0.06184 0.08538 0.0
O142 O 0.59587 0.08243 0.12439 0.0
C143 C 0.61192 0.07962 0.0292 0.0
O144 O 0.602 0.11227 0.0733 0.0
Co145 Co 0.58355 0.10348 0.0036 0.0
O146 O 0.59964 0.12339 0.01869 0.0
C147 C 0.55578 0.09849 0.05799 0.0
C148 C 0.59079 0.06602 0.11784 0.0
C149 C 0.60462 0.12481 0.0506 0.0
O150 O 0.56808 0.09365 0.07979 0.0
O151 O 0.55896 0.10168 0.02553 0.0
O152 O 0.61803 0.07873 0.06111 0.0
O153 O 0.59492 0.08294 0.02592 0.0
Co154 Co 0.65836 0.84144 0.83268 0.0
O155 O 0.68311 0.83687 0.84303 0.0
O156 O 0.66202 0.84276 0.88269 0.0
C157 C 0.66346 0.8606 0.78842 0.0
O158 O 0.63177 0.84754 0.83159 0.0
Co159 Co 0.64227 0.83037 0.76105 0.0
O160 O 0.62109 0.84467 0.77671 0.0
C161 C 0.64982 0.80263 0.81392 0.0
C162 C 0.67879 0.8392 0.87571 0.0
C163 C 0.61919 0.84937 0.80869 0.0
O164 O 0.65283 0.81507 0.83655 0.0
O165 O 0.64704 0.80577 0.78131 0.0
O166 O 0.66391 0.86625 0.82068 0.0
O167 O 0.66154 0.84344 0.78416 0.0
Co168 Co 0.90434 0.09327 0.91239 0.0
O169 O 0.90957 0.06848 0.90352 0.0
O170 O 0.90296 0.08874 0.86266 0.0
C171 C 0.88557 0.08801 0.95723 0.0
O172 O 0.89745 0.11973 0.91166 0.0
Co173 Co 0.91464 0.11116 0.98266 0.0
O174 O 0.89927 0.13129 0.96597 0.0
C175 C 0.9428 0.10399 0.93007 0.0
C176 C 0.90698 0.07219 0.87062 0.0
C177 C 0.89485 0.13256 0.93374 0.0
O178 O 0.93056 0.0994 0.908 0.0
O179 O 0.93939 0.10789 0.96215 0.0
O180 O 0.87975 0.08714 0.92511 0.0
O181 O 0.90263 0.09077 0.9611 0.0
Co182 Co 0.65784 0.15696 0.66526 0.0
O183 O 0.68275 0.16166 0.65654 0.0
O184 O 0.66257 0.1546 0.61579 0.0
C185 C 0.66268 0.13898 0.71131 0.0
O186 O 0.63133 0.15048 0.66425 0.0
Co187 Co 0.63934 0.16834 0.73395 0.0
O188 O 0.6199 0.15167 0.71871 0.0
C189 C 0.6469 0.19568 0.67971 0.0
C190 C 0.67914 0.15851 0.62378 0.0
C191 C 0.6187 0.14738 0.68643 0.0
O192 O 0.65208 0.18312 0.65887 0.0
O193 O 0.64239 0.19278 0.71168 0.0
O194 O 0.66348 0.13252 0.67968 0.0
O195 O 0.66011 0.15612 0.71419 0.0
Co196 Co 0.59141 0.9089 0.42621 0.0
O197 O 0.58455 0.93298 0.41424 0.0
O198 O 0.5937 0.91221 0.37632 0.0
C199 C 0.60878 0.91659 0.4717 0.0
O200 O 0.6002 0.88303 0.42842 0.0
Co201 Co 0.58157 0.89161 0.4972 0.0
O202 O 0.59861 0.87231 0.48335 0.0
C203 C 0.55377 0.89515 0.44225 0.0
C204 C 0.58825 0.92857 0.38207 0.0
C205 C 0.6035 0.87081 0.45144 0.0
O206 O 0.56576 0.90085 0.42062 0.0
O207 O 0.55712 0.89167 0.47453 0.0
O208 O 0.61525 0.91702 0.44005 0.0
O209 O 0.59191 0.91269 0.47479 0.0
Co210 Co 0.84107 0.84256 0.17262 0.0
O211 O 0.81646 0.8359 0.16544 0.0
O212 O 0.83556 0.84374 0.12332 0.0
C213 C 0.83552 0.86094 0.21801 0.0
O214 O 0.86705 0.85092 0.16996 0.0
Co215 Co 0.8611 0.83367 0.24151 0.0
O216 O 0.87935 0.85102 0.22382 0.0
C217 C 0.8543 0.80491 0.18966 0.0
C218 C 0.81942 0.83881 0.13234 0.0
C219 C 0.87983 0.85496 0.19129 0.0
O220 O 0.84864 0.81677 0.16773 0.0
O221 O 0.85864 0.80869 0.22138 0.0
O222 O 0.83366 0.86674 0.18604 0.0
O223 O 0.83949 0.8441 0.22144 0.0
Co224 Co 0.59936 0.58697 0.92416 0.0
O225 O 0.59379 0.56217 0.91585 0.0
O226 O 0.59918 0.58249 0.87442 0.0
C227 C 0.61942 0.58168 0.96655 0.0
O228 O 0.60624 0.61338 0.92241 0.0
Co229 Co 0.5918 0.60532 0.99519 0.0
O230 O 0.6079 0.62458 0.97703 0.0
C231 C 0.56174 0.59843 0.94629 0.0
C232 C 0.59539 0.56594 0.88272 0.0
C233 C 0.6106 0.62587 0.94411 0.0
O234 O 0.57309 0.59321 0.92296 0.0
O235 O 0.56633 0.60269 0.97764 0.0
O236 O 0.62434 0.58082 0.93389 0.0
O237 O 0.60256 0.58452 0.97259 0.0
Co238 Co 0.65525 0.34053 0.16025 0.0
O239 O 0.68007 0.33493 0.15245 0.0
O240 O 0.6604 0.342 0.1108 0.0
C241 C 0.66022 0.35914 0.20545 0.0
O242 O 0.62894 0.34785 0.15826 0.0
Co243 Co 0.63607 0.33063 0.22933 0.0
O244 O 0.61748 0.34792 0.21279 0.0
C245 C 0.6434 0.30231 0.17694 0.0
C246 C 0.6768 0.33775 0.11944 0.0
C247 C 0.61646 0.35181 0.18029 0.0
O248 O 0.64876 0.31445 0.15533 0.0
O249 O 0.63889 0.30579 0.20869 0.0
O250 O 0.66161 0.36499 0.17342 0.0
O251 O 0.65712 0.34212 0.20912 0.0
Co252 Co 0.90099 0.40599 0.41788 0.0
O253 O 0.90672 0.43086 0.41064 0.0
O254 O 0.89964 0.41141 0.36859 0.0
C255 C 0.88248 0.41096 0.46324 0.0
O256 O 0.89359 0.37976 0.41494 0.0
Co257 Co 0.91036 0.38601 0.48633 0.0
O258 O 0.89355 0.36727 0.46858 0.0
C259 C 0.93902 0.39386 0.43485 0.0
C260 C 0.904 0.42773 0.37754 0.0
C261 C 0.8898 0.36679 0.43598 0.0
O262 O 0.92704 0.39941 0.41305 0.0
O263 O 0.9353 0.38909 0.46636 0.0
O264 O 0.87655 0.41245 0.43127 0.0
O265 O 0.89944 0.40753 0.46674 0.0
Co266 Co 0.83898 0.65828 0.67343 0.0
O267 O 0.8141 0.66365 0.66546 0.0
O268 O 0.83367 0.65572 0.62424 0.0
C269 C 0.83424 0.64066 0.72032 0.0
O270 O 0.8653 0.65092 0.67168 0.0
Co271 Co 0.85832 0.66984 0.74152 0.0
O272 O 0.878 0.65391 0.72481 0.0
C273 C 0.85029 0.69695 0.68721 0.0
C274 C 0.81728 0.66009 0.63269 0.0
C275 C 0.87854 0.64867 0.69297 0.0
O276 O 0.84538 0.68429 0.66631 0.0
O277 O 0.85464 0.69415 0.7193 0.0
O278 O 0.83263 0.63413 0.68884 0.0
O279 O 0.83736 0.65775 0.72236 0.0
Co280 Co 0.5974 0.41048 0.57208 0.0
O281 O 0.59217 0.43494 0.58399 0.0
O282 O 0.59953 0.41355 0.62209 0.0
C283 C 0.61536 0.41701 0.52679 0.0
O284 O 0.60439 0.38416 0.56967 0.0
Co285 Co 0.58616 0.39437 0.50071 0.0
O286 O 0.60107 0.37336 0.51506 0.0
C287 C 0.55876 0.40082 0.55495 0.0
C288 C 0.59523 0.43026 0.61627 0.0
C289 C 0.60624 0.37159 0.54679 0.0
O290 O 0.5713 0.40398 0.57733 0.0
O291 O 0.56171 0.39841 0.52216 0.0
O292 O 0.6218 0.41703 0.55849 0.0
O293 O 0.59826 0.41432 0.52364 0.0
Co294 Co 0.8419 0.34812 0.82844 0.0
O295 O 0.8171 0.34263 0.83643 0.0
O296 O 0.83706 0.34869 0.87816 0.0
C297 C 0.83661 0.3675 0.78482 0.0
O298 O 0.86831 0.35505 0.83024 0.0
Co299 Co 0.86047 0.33938 0.75838 0.0
O300 O 0.87979 0.35559 0.77576 0.0
C301 C 0.85345 0.31014 0.80893 0.0
C302 C 0.82058 0.34473 0.86954 0.0
C303 C 0.88096 0.35889 0.80849 0.0
O304 O 0.84814 0.3219 0.83138 0.0
O305 O 0.85785 0.31419 0.77738 0.0
O306 O 0.83572 0.37289 0.81718 0.0
O307 O 0.83954 0.35055 0.77975 0.0
Co308 Co 0.90667 0.58988 0.07979 0.0
O309 O 0.91271 0.5653 0.08932 0.0
O310 O 0.90442 0.58539 0.12932 0.0
C311 C 0.88907 0.58397 0.03341 0.0
O312 O 0.89871 0.61599 0.08006 0.0
Co313 Co 0.91738 0.60852 0.01039 0.0
O314 O 0.90148 0.62834 0.02659 0.0
C315 C 0.94493 0.60202 0.06472 0.0
C316 C 0.90921 0.56899 0.12193 0.0
C317 C 0.8963 0.62906 0.05844 0.0
O318 O 0.93252 0.59707 0.08615 0.0
O319 O 0.94186 0.60577 0.03244 0.0
O320 O 0.88264 0.58268 0.06503 0.0
O321 O 0.90605 0.58749 0.031 0.0
Co322 Co 0.65506 0.65647 0.33435 0.0
O323 O 0.67984 0.66117 0.34451 0.0
O324 O 0.65917 0.65373 0.384 0.0
C325 C 0.66048 0.63881 0.28787 0.0
O326 O 0.62856 0.64982 0.33363 0.0
Co327 Co 0.63772 0.66873 0.26481 0.0
O328 O 0.61729 0.65319 0.27936 0.0
C329 C 0.6451 0.69548 0.32006 0.0
C330 C 0.67583 0.65772 0.37697 0.0
C331 C 0.61583 0.6479 0.31106 0.0
O332 O 0.64921 0.68262 0.34115 0.0
O333 O 0.64141 0.69291 0.28759 0.0
O334 O 0.66107 0.63219 0.31943 0.0
O335 O 0.65791 0.65598 0.28556 0.0
Co336 Co 0.40319 0.41232 0.07094 0.0
O337 O 0.4082 0.43695 0.08169 0.0
O338 O 0.40087 0.41602 0.12077 0.0
C339 C 0.38527 0.41828 0.0253 0.0
O340 O 0.39635 0.38592 0.06962 0.0
Co341 Co 0.41465 0.39552 0.00039 0.0
O342 O 0.39968 0.37467 0.01536 0.0
C343 C 0.44191 0.40261 0.05463 0.0
C344 C 0.40496 0.4327 0.11411 0.0
C345 C 0.39451 0.37317 0.04714 0.0
O346 O 0.42931 0.40604 0.07673 0.0
O347 O 0.43904 0.39979 0.02194 0.0
O348 O 0.37878 0.41856 0.05694 0.0
O349 O 0.40238 0.41565 0.02233 0.0
Co350 Co 0.34613 0.65247 0.83469 0.0
O351 O 0.32105 0.65742 0.84037 0.0
O352 O 0.34006 0.6514 0.8838 0.0
C353 C 0.34251 0.63328 0.79 0.0
O354 O 0.37259 0.64592 0.83878 0.0
Co355 Co 0.36602 0.66263 0.76665 0.0
O356 O 0.38578 0.64756 0.7859 0.0
C357 C 0.35654 0.69103 0.81718 0.0
C358 C 0.32375 0.65514 0.87372 0.0
C359 C 0.38608 0.64329 0.8183 0.0
O360 O 0.35168 0.6788 0.83905 0.0
O361 O 0.36147 0.6875 0.78571 0.0
O362 O 0.34076 0.62771 0.82214 0.0
O363 O 0.34513 0.65036 0.78582 0.0
Co364 Co 0.08923 0.58597 0.56946 0.0
O365 O 0.08251 0.56194 0.58201 0.0
O366 O 0.09163 0.58301 0.61939 0.0
C367 C 0.1068 0.57848 0.52408 0.0
O368 O 0.09791 0.61182 0.56624 0.0
Co369 Co 0.07839 0.60237 0.49807 0.0
O370 O 0.0953 0.62201 0.51101 0.0
C371 C 0.05111 0.59866 0.55367 0.0
C372 C 0.08632 0.56656 0.61403 0.0
C373 C 0.10074 0.62382 0.54254 0.0
O374 O 0.0636 0.59401 0.57518 0.0
O375 O 0.05396 0.60131 0.5209 0.0
O376 O 0.11304 0.57786 0.5559 0.0
O377 O 0.08981 0.58198 0.52094 0.0
Co378 Co 0.15564 0.3444 0.33057 0.0
O379 O 0.18036 0.33874 0.33887 0.0
O380 O 0.16079 0.34691 0.37991 0.0
C381 C 0.16088 0.36192 0.28377 0.0
O382 O 0.12936 0.35194 0.33154 0.0
Co383 Co 0.1369 0.33265 0.26196 0.0
O384 O 0.11733 0.34894 0.27777 0.0
C385 C 0.1442 0.30574 0.31695 0.0
C386 C 0.17713 0.34229 0.3716 0.0
C387 C 0.11643 0.35424 0.30954 0.0
O388 O 0.14895 0.31849 0.33776 0.0
O389 O 0.14022 0.30838 0.28463 0.0
O390 O 0.16231 0.36846 0.31527 0.0
O391 O 0.15764 0.34485 0.28169 0.0
Co392 Co 0.40188 0.58939 0.42301 0.0
O393 O 0.40774 0.56499 0.41188 0.0
O394 O 0.3995 0.58576 0.37316 0.0
C395 C 0.3844 0.58249 0.46873 0.0
O396 O 0.39402 0.61554 0.42465 0.0
Co397 Co 0.41275 0.60659 0.49333 0.0
O398 O 0.39642 0.62651 0.47928 0.0
C399 C 0.44022 0.60117 0.43856 0.0
C400 C 0.40419 0.56921 0.37956 0.0
C401 C 0.39132 0.62799 0.44748 0.0
O402 O 0.42777 0.59652 0.41697 0.0
O403 O 0.43721 0.60444 0.47105 0.0
O404 O 0.3778 0.58219 0.43718 0.0
O405 O 0.40139 0.58584 0.47162 0.0
Co406 Co 0.15971 0.65738 0.16656 0.0
O407 O 0.18439 0.66225 0.15635 0.0
O408 O 0.16356 0.65555 0.11665 0.0
C409 C 0.16519 0.63887 0.21146 0.0
O410 O 0.13321 0.65078 0.16749 0.0
Co411 Co 0.14296 0.66856 0.23726 0.0
O412 O 0.12259 0.65298 0.22246 0.0
C413 C 0.14951 0.69614 0.18324 0.0
C414 C 0.18024 0.65946 0.12372 0.0
C415 C 0.12079 0.64829 0.19048 0.0
O416 O 0.15384 0.68363 0.16157 0.0
O417 O 0.14594 0.69311 0.21561 0.0
O418 O 0.16557 0.63279 0.17952 0.0
O419 O 0.1629 0.65601 0.2152 0.0
Co420 Co 0.0964 0.4095 0.92203 0.0
O421 O 0.08935 0.43354 0.91049 0.0
O422 O 0.09898 0.41313 0.87224 0.0
C423 C 0.1134 0.41702 0.96838 0.0
O424 O 0.10529 0.38372 0.92437 0.0
Co425 Co 0.0854 0.3924 0.99294 0.0
O426 O 0.10164 0.37242 0.97859 0.0
C427 C 0.05826 0.39801 0.9378 0.0
C428 C 0.09325 0.42938 0.8783 0.0
C429 C 0.10746 0.37116 0.9472 0.0
O430 O 0.07088 0.40119 0.9156 0.0
O431 O 0.06105 0.39603 0.97076 0.0
O432 O 0.12005 0.41791 0.93688 0.0
O433 O 0.09652 0.413 0.97048 0.0
Co434 Co 0.34394 0.34281 0.65969 0.0
O435 O 0.31899 0.33781 0.65231 0.0
O436 O 0.33863 0.34436 0.61029 0.0
C437 C 0.33953 0.36157 0.70483 0.0
O438 O 0.37041 0.34947 0.65747 0.0
Co439 Co 0.36297 0.33237 0.72864 0.0
O440 O 0.38195 0.34919 0.71197 0.0
C441 C 0.35492 0.30429 0.6762 0.0
C442 C 0.32217 0.34053 0.61925 0.0
C443 C 0.38302 0.35308 0.67947 0.0
O444 O 0.34978 0.31659 0.65472 0.0
O445 O 0.35957 0.30762 0.70795 0.0
O446 O 0.33822 0.36741 0.67279 0.0
O447 O 0.34222 0.34447 0.70857 0.0
C448 C 0.07824 0.04276 0.35427 0.0
C449 C 0.08875 0.05823 0.3495 0.0
C450 C 0.0783 0.02914 0.3292 0.0
C451 C 0.0908 0.01917 0.23726 0.0
H452 H 0.08846 0.96991 0.27061 0.0
C453 C 0.08056 0.9604 0.14228 0.0
C454 C 0.08989 0.94435 0.14887 0.0
C455 C 0.08039 0.97411 0.16717 0.0
C456 C 0.08934 0.98356 0.26085 0.0
H457 H 0.10742 0.07184 0.31483 0.0
H458 H 0.10804 0.04774 0.27132 0.0
H459 H 0.0889 0.99444 0.31267 0.0
H460 H 0.10624 0.92985 0.18652 0.0
H461 H 0.10647 0.95407 0.22977 0.0
H462 H 0.09207 0.00826 0.18551 0.0
C463 C 0.0994 0.04628 0.29403 0.0
C464 C 0.0893 0.99766 0.28495 0.0
C465 C 0.0991 0.06006 0.31893 0.0
C466 C 0.09885 0.94208 0.18098 0.0
C467 C 0.09891 0.95593 0.20573 0.0
C468 C 0.09109 0.00506 0.21317 0.0
C469 C 0.08913 0.03058 0.29909 0.0
C470 C 0.08981 0.01563 0.27342 0.0
C471 C 0.0898 0.97216 0.19894 0.0
C472 C 0.09015 0.9871 0.22467 0.0
H473 H 0.06999 0.04112 0.3775 0.0
H474 H 0.06987 0.01747 0.33349 0.0
H475 H 0.09107 0.03284 0.22745 0.0
H476 H 0.0734 0.96241 0.11781 0.0
H477 H 0.07285 0.98623 0.16145 0.0
C478 C 0.18608 0.84104 0.5613 0.0
C479 C 0.19083 0.83847 0.59662 0.0
C480 C 0.19942 0.8424 0.53563 0.0
C481 C 0.24702 0.85345 0.5234 0.0
H482 H 0.24368 0.82337 0.44051 0.0
C483 C 0.30692 0.84276 0.42976 0.0
C484 C 0.30312 0.84181 0.39374 0.0
C485 C 0.29291 0.84317 0.45417 0.0
C486 C 0.2447 0.83207 0.46323 0.0
H487 H 0.21315 0.83551 0.63295 0.0
H488 H 0.23637 0.83796 0.58818 0.0
H489 H 0.2193 0.82318 0.48326 0.0
H490 H 0.2818 0.84093 0.35482 0.0
H491 H 0.25744 0.84207 0.39722 0.0
H492 H 0.27234 0.86245 0.50339 0.0
C493 C 0.22238 0.83897 0.58036 0.0
C494 C 0.23074 0.83193 0.48767 0.0
C495 C 0.20909 0.83744 0.6059 0.0
C496 C 0.28514 0.84147 0.38249 0.0
C497 C 0.27117 0.84204 0.40679 0.0
C498 C 0.26091 0.85371 0.49882 0.0
C499 C 0.21768 0.84142 0.54503 0.0
C500 C 0.23188 0.84248 0.5181 0.0
C501 C 0.27489 0.84278 0.44289 0.0
C502 C 0.25997 0.8429 0.46862 0.0
H503 H 0.17209 0.84192 0.55348 0.0
H504 H 0.1955 0.84437 0.5085 0.0
H505 H 0.24808 0.86185 0.54655 0.0
H506 H 0.32069 0.843 0.43911 0.0
H507 H 0.29621 0.8435 0.48186 0.0
C508 C 0.42112 0.04061 0.64305 0.0
C509 C 0.41041 0.05591 0.64861 0.0
C510 C 0.42209 0.02719 0.66845 0.0
C511 C 0.3958 0.00631 0.73625 0.0
H512 H 0.44113 0.98617 0.76817 0.0
C513 C 0.40099 0.93953 0.8129 0.0
C514 C 0.41028 0.94107 0.84483 0.0
C515 C 0.40172 0.95347 0.78835 0.0
C516 C 0.42841 0.99169 0.75938 0.0
H517 H 0.39258 0.06944 0.68507 0.0
H518 H 0.39399 0.04558 0.72949 0.0
H519 H 0.44119 0.01192 0.72804 0.0
H520 H 0.42819 0.95785 0.87571 0.0
H521 H 0.42975 0.98199 0.83243 0.0
H522 H 0.38303 0.98592 0.76721 0.0
C523 C 0.40168 0.04415 0.7055 0.0
C524 C 0.42844 0.00634 0.73653 0.0
C525 C 0.40096 0.05777 0.68028 0.0
C526 C 0.42083 0.95639 0.85131 0.0
C527 C 0.4218 0.97014 0.82657 0.0
C528 C 0.39577 0.99148 0.75867 0.0
C529 C 0.41214 0.02871 0.69956 0.0
C530 C 0.41214 0.01377 0.7249 0.0
C531 C 0.41201 0.96892 0.79521 0.0
C532 C 0.41208 0.9841 0.77041 0.0
H533 H 0.4286 0.03891 0.61887 0.0
H534 H 0.43015 0.01533 0.66328 0.0
H535 H 0.38308 0.01174 0.72725 0.0
H536 H 0.39273 0.92786 0.80741 0.0
H537 H 0.39416 0.95225 0.76414 0.0
C538 C 0.212 0.16008 0.88738 0.0
C539 C 0.1939 0.1587 0.89764 0.0
C540 C 0.22562 0.16019 0.91245 0.0
C541 C 0.23493 0.17092 0.00355 0.0
H542 H 0.27643 0.13991 0.9911 0.0
C543 C 0.28892 0.16269 0.11018 0.0
C544 C 0.30693 0.16129 0.09942 0.0
C545 C 0.27509 0.16249 0.08555 0.0
C546 C 0.26506 0.14884 0.99468 0.0
H547 H 0.17578 0.1565 0.94205 0.0
H548 H 0.19976 0.15693 0.98617 0.0
H549 H 0.25203 0.13911 0.94831 0.0
H550 H 0.32469 0.15886 0.05454 0.0
H551 H 0.30048 0.15897 0.01121 0.0
H552 H 0.24803 0.18095 0.04948 0.0
C553 C 0.2033 0.15788 0.95864 0.0
C554 C 0.25108 0.1483 0.97032 0.0
C555 C 0.18964 0.15757 0.93347 0.0
C556 C 0.3109 0.15989 0.06352 0.0
C557 C 0.29704 0.15984 0.03879 0.0
C558 C 0.24898 0.17159 0.02776 0.0
C559 C 0.22139 0.1591 0.94825 0.0
C560 C 0.23592 0.15934 0.97457 0.0
C561 C 0.27898 0.16103 0.04959 0.0
C562 C 0.26419 0.16054 0.02359 0.0
H563 H 0.21568 0.16094 0.85992 0.0
H564 H 0.23947 0.16134 0.90385 0.0
H565 H 0.22345 0.17973 0.00709 0.0
H566 H 0.28545 0.16366 0.13774 0.0
H567 H 0.26132 0.16312 0.09478 0.0
C568 C 0.9142 0.96287 0.63134 0.0
C569 C 0.91135 0.945 0.64196 0.0
C570 C 0.91452 0.9767 0.656 0.0
C571 C 0.9222 0.98656 0.74835 0.0
H572 H 0.89215 0.02832 0.73097 0.0
C573 C 0.90931 0.03991 0.85423 0.0
C574 C 0.90825 0.058 0.84384 0.0
C575 C 0.91024 0.02628 0.82923 0.0
C576 C 0.90084 0.01691 0.73595 0.0
H577 H 0.90704 0.92746 0.68668 0.0
H578 H 0.90784 0.95175 0.73005 0.0
H579 H 0.89306 0.004 0.68808 0.0
H580 H 0.90755 0.07612 0.79928 0.0
H581 H 0.90966 0.05228 0.75537 0.0
H582 H 0.93024 -0.0005 0.7959 0.0
C583 C 0.90977 0.95498 0.70257 0.0
C584 C 0.90129 0.00297 0.71148 0.0
C585 C 0.90925 0.94113 0.6778 0.0
C586 C 0.90827 0.06226 0.80797 0.0
C587 C 0.90939 0.04861 0.78287 0.0
C588 C 0.92191 0.00058 0.77266 0.0
C589 C 0.91219 0.97288 0.69176 0.0
C590 C 0.9119 0.98766 0.71757 0.0
C591 C 0.91033 0.03046 0.79327 0.0
C592 C 0.91114 0.01586 0.76684 0.0
H593 H 0.91586 0.96626 0.60387 0.0
H594 H 0.91659 0.99039 0.64711 0.0
H595 H 0.93065 0.97496 0.75337 0.0
H596 H 0.90917 0.03621 0.88174 0.0
H597 H 0.91058 0.01245 0.83814 0.0
C598 C 0.78636 0.15831 0.38218 0.0
C599 C 0.80453 0.15659 0.39159 0.0
C600 C 0.77309 0.15919 0.40789 0.0
C601 C 0.76448 0.14802 0.50044 0.0
H602 H 0.72341 0.1796 0.48754 0.0
C603 C 0.7115 0.16042 0.60773 0.0
C604 C 0.69345 0.15904 0.59718 0.0
C605 C 0.72523 0.16054 0.58286 0.0
C606 C 0.73475 0.17064 0.49128 0.0
H607 H 0.8232 0.15467 0.43518 0.0
H608 H 0.79997 0.15662 0.48039 0.0
H609 H 0.74757 0.17958 0.44423 0.0
H610 H 0.6755 0.15689 0.55248 0.0
H611 H 0.69962 0.15728 0.50877 0.0
H612 H 0.75168 0.13929 0.54777 0.0
C613 C 0.79597 0.15694 0.45305 0.0
C614 C 0.74856 0.1706 0.46654 0.0
C615 C 0.80926 0.15592 0.42723 0.0
C616 C 0.68932 0.15796 0.56129 0.0
C617 C 0.70307 0.15826 0.53634 0.0
C618 C 0.75074 0.14819 0.52533 0.0
C619 C 0.77774 0.15853 0.4436 0.0
C620 C 0.7635 0.15918 0.47072 0.0
C621 C 0.72113 0.15945 0.54699 0.0
C622 C 0.73572 0.15942 0.52082 0.0
H623 H 0.7823 0.15874 0.35487 0.0
H624 H 0.75916 0.16007 0.39973 0.0
H625 H 0.77566 0.13887 0.5041 0.0
H626 H 0.71509 0.16126 0.63525 0.0
H627 H 0.73905 0.16164 0.59166 0.0
C628 C 0.59633 0.93945 0.32219 0.0
C629 C 0.58686 0.94187 0.35367 0.0
C630 C 0.59606 0.95281 0.29643 0.0
C631 C 0.58627 0.00138 0.28515 0.0
H632 H 0.58789 0.98909 0.18635 0.0
C633 C 0.59795 0.05484 0.17799 0.0
C634 C 0.58914 0.05249 0.14576 0.0
C635 C 0.59722 0.04139 0.20355 0.0
C636 C 0.58719 0.99279 0.21382 0.0
H637 H 0.56907 0.95962 0.38251 0.0
H638 H 0.56793 0.98257 0.33703 0.0
H639 H 0.58654 0.96526 0.22986 0.0
H640 H 0.57211 0.0347 0.11526 0.0
H641 H 0.57017 0.0116 0.16029 0.0
H642 H 0.5861 0.0289 0.26908 0.0
C643 C 0.57612 0.97074 0.33261 0.0
C644 C 0.58671 0.97909 0.23881 0.0
C645 C 0.57664 0.95753 0.35856 0.0
C646 C 0.57919 0.03675 0.13981 0.0
C647 C 0.5782 0.02346 0.16552 0.0
C648 C 0.58648 0.01508 0.26014 0.0
C649 C 0.58606 0.96868 0.30148 0.0
C650 C 0.58629 0.98322 0.27479 0.0
C651 C 0.58742 0.02549 0.19751 0.0
C652 C 0.58699 0.01095 0.22417 0.0
H653 H 0.60441 0.92752 0.31793 0.0
H654 H 0.60408 0.95087 0.27301 0.0
H655 H 0.58627 0.00508 0.31265 0.0
H656 H 0.60582 0.06683 0.18309 0.0
H657 H 0.6047 0.04331 0.22766 0.0
C658 C 0.68776 0.83816 0.93899 0.0
C659 C 0.69255 0.83801 0.90335 0.0
C660 C 0.70104 0.83704 0.96486 0.0
C661 C 0.74871 0.82403 0.97777 0.0
H662 H 0.74524 0.85428 0.06042 0.0
C663 C 0.80839 0.83835 0.07041 0.0
C664 C 0.80482 0.83712 0.10651 0.0
C665 C 0.79433 0.83735 0.04618 0.0
C666 C 0.74627 0.84564 0.0376 0.0
H667 H 0.71488 0.83679 0.86673 0.0
H668 H 0.73797 0.83533 0.91166 0.0
H669 H 0.72103 0.85461 0.01718 0.0
H670 H 0.78386 0.83375 0.14566 0.0
H671 H 0.75934 0.83215 0.10327 0.0
H672 H 0.77421 0.81546 -0.00213 0.0
C673 C 0.72401 0.83583 0.91978 0.0
C674 C 0.7324 0.84577 0.01294 0.0
C675 C 0.71078 0.83679 0.89401 0.0
C676 C 0.78701 0.83473 0.11797 0.0
C677 C 0.77297 0.83391 0.09379 0.0
C678 C 0.76264 0.82403 0.00227 0.0
C679 C 0.71931 0.83588 0.95548 0.0
C680 C 0.73354 0.83506 0.98262 0.0
C681 C 0.77651 0.83528 0.05773 0.0
C682 C 0.76157 0.83491 0.03226 0.0
H683 H 0.67379 0.83903 0.94687 0.0
H684 H 0.69699 0.83693 0.99217 0.0
H685 H 0.74984 0.81537 0.95501 0.0
H686 H 0.822 0.8402 0.06089 0.0
H687 H 0.79735 0.83857 0.01846 0.0
C688 C 0.59505 0.43816 0.68006 0.0
C689 C 0.59398 0.44352 0.6448 0.0
C690 C 0.59392 0.45093 0.70686 0.0
C691 C 0.57936 0.49778 0.72415 0.0
H692 H 0.6116 0.49396 0.80388 0.0
C693 C 0.59351 0.55614 0.8201 0.0
C694 C 0.5935 0.5518 0.85596 0.0
C695 C 0.59236 0.54256 0.79491 0.0
C696 C 0.6024 0.49508 0.78192 0.0
H697 H 0.59102 0.46637 0.60977 0.0
H698 H 0.58951 0.48862 0.65631 0.0
H699 H 0.61189 0.47064 0.75888 0.0
H700 H 0.59207 0.52996 0.89372 0.0
H701 H 0.59018 0.50627 0.84965 0.0
H702 H 0.57025 0.5225 0.74689 0.0
C703 C 0.59078 0.47457 0.66345 0.0
C704 C 0.60251 0.48171 0.75623 0.0
C705 C 0.59177 0.46182 0.63676 0.0
C706 C 0.59212 0.5337 0.86623 0.0
C707 C 0.59113 0.52013 0.84108 0.0
C708 C 0.57937 0.51122 0.74969 0.0
C709 C 0.59181 0.46928 0.69879 0.0
C710 C 0.59108 0.48299 0.72695 0.0
C711 C 0.59134 0.52444 0.80523 0.0
C712 C 0.59095 0.51001 0.77867 0.0
H713 H 0.59668 0.42412 0.68697 0.0
H714 H 0.59455 0.44642 0.73387 0.0
H715 H 0.57016 0.49898 0.70222 0.0
H716 H 0.59455 0.57 0.81149 0.0
H717 H 0.59268 0.54618 0.76737 0.0
C718 C 0.78822 0.34166 0.88465 0.0
C719 C 0.80618 0.34307 0.8958 0.0
C720 C 0.77435 0.34055 0.90908 0.0
C721 C 0.76405 0.32762 -0.00111 0.0
H722 H 0.72264 0.35883 0.98708 0.0
C723 C 0.70924 0.33482 0.10445 0.0
C724 C 0.69134 0.33682 0.09333 0.0
C725 C 0.72323 0.33489 0.08014 0.0
C726 C 0.73396 0.34982 0.99045 0.0
H727 H 0.8238 0.34418 0.94113 0.0
H728 H 0.79937 0.34204 0.98412 0.0
H729 H 0.74742 0.36046 0.94537 0.0
H730 H 0.67392 0.33995 0.04807 0.0
H731 H 0.69838 0.33962 0.00534 0.0
H732 H 0.75052 0.31676 0.04364 0.0
C733 C 0.79614 0.34182 0.95639 0.0
C734 C 0.74817 0.35084 0.96669 0.0
C735 C 0.81006 0.34312 0.93187 0.0
C736 C 0.68762 0.33849 0.05736 0.0
C737 C 0.70163 0.33841 0.03296 0.0
C738 C 0.74975 0.32648 0.02252 0.0
C739 C 0.77817 0.34068 0.94512 0.0
C740 C 0.76333 0.33975 0.97073 0.0
C741 C 0.7196 0.3368 0.04415 0.0
C742 C 0.73457 0.3376 0.01857 0.0
H743 H 0.78481 0.3416 0.85699 0.0
H744 H 0.76061 0.33948 0.89976 0.0
H745 H 0.77552 0.31879 0.00226 0.0
H746 H 0.71252 0.3336 0.13206 0.0
H747 H 0.73692 0.33389 0.08968 0.0
C748 C 0.90517 0.43837 0.31546 0.0
C749 C 0.90544 0.44224 0.35149 0.0
C750 C 0.90622 0.45225 0.2909 0.0
C751 C 0.91907 0.50014 0.28149 0.0
H752 H 0.88968 0.49718 0.19754 0.0
C753 C 0.90808 0.55925 0.18468 0.0
C754 C 0.91002 0.55491 0.149 0.0
C755 C 0.90811 0.54567 0.21003 0.0
C756 C 0.89803 0.49809 0.22078 0.0
H757 H 0.90693 0.46358 0.39024 0.0
H758 H 0.90826 0.48783 0.34745 0.0
H759 H 0.88846 0.473 0.24067 0.0
H760 H 0.91375 0.53311 0.1118 0.0
H761 H 0.91364 0.50945 0.15606 0.0
H762 H 0.92832 0.52549 0.26166 0.0
C763 C 0.90768 0.47409 0.33806 0.0
C764 C 0.89741 0.48424 0.24539 0.0
C765 C 0.90681 0.4602 0.36258 0.0
C766 C 0.91221 0.53685 0.13912 0.0
C767 C 0.91205 0.5233 0.16436 0.0
C768 C 0.91955 0.51409 0.25699 0.0
C769 C 0.90736 0.47027 0.30195 0.0
C770 C 0.908 0.48506 0.27592 0.0
C771 C 0.90988 0.52758 0.19997 0.0
C772 C 0.90912 0.5131 0.22636 0.0
H773 H 0.90423 0.42461 0.30622 0.0
H774 H 0.90625 0.44885 0.26326 0.0
H775 H 0.92757 0.50106 0.30451 0.0
H776 H 0.90639 0.57308 0.19299 0.0
H777 H 0.90633 0.54926 0.23737 0.0
C778 C 0.6853 0.65697 0.43997 0.0
C779 C 0.68983 0.65795 0.40425 0.0
C780 C 0.69879 0.65709 0.46552 0.0
C781 C 0.74635 0.64675 0.47849 0.0
H782 H 0.74357 0.6799 0.55689 0.0
C783 C 0.80645 0.65858 0.57069 0.0
C784 C 0.8027 0.66043 0.6066 0.0
C785 C 0.79245 0.65836 0.54625 0.0
C786 C 0.74444 0.67039 0.53543 0.0
H787 H 0.71191 0.65973 0.36711 0.0
H788 H 0.73539 0.6598 0.41168 0.0
H789 H 0.71905 0.67873 0.51434 0.0
H790 H 0.78146 0.66346 0.64524 0.0
H791 H 0.75707 0.66265 0.60276 0.0
H792 H 0.77156 0.63818 0.49962 0.0
C793 C 0.72146 0.65891 0.41992 0.0
C794 C 0.73041 0.66975 0.51111 0.0
C795 C 0.70802 0.65899 0.39447 0.0
C796 C 0.78476 0.66214 0.61766 0.0
C797 C 0.77078 0.66177 0.5933 0.0
C798 C 0.76029 0.64725 0.50296 0.0
C799 C 0.71697 0.65797 0.45562 0.0
C800 C 0.73134 0.65803 0.48231 0.0
C801 C 0.77446 0.65983 0.55733 0.0
C802 C 0.75955 0.65917 0.53155 0.0
H803 H 0.67137 0.65616 0.44818 0.0
H804 H 0.69504 0.65627 0.49296 0.0
H805 H 0.74725 0.63744 0.45667 0.0
H806 H 0.82017 0.65732 0.56146 0.0
H807 H 0.79575 0.65715 0.51866 0.0
C808 C 0.4068 0.46472 0.1325 0.0
C809 C 0.4055 0.44648 0.14176 0.0
C810 C 0.40692 0.47797 0.15831 0.0
C811 C 0.39467 0.48598 0.25074 0.0
H812 H 0.42532 0.52787 0.23968 0.0
C813 C 0.40683 0.53729 0.36091 0.0
C814 C 0.40494 0.5555 0.3518 0.0
C815 C 0.40698 0.52407 0.33503 0.0
C816 C 0.4166 0.51631 0.24288 0.0
H817 H 0.40352 0.42771 0.18514 0.0
H818 H 0.40421 0.45091 0.23052 0.0
H819 H 0.42594 0.50414 0.19547 0.0
H820 H 0.40195 0.57427 0.30859 0.0
H821 H 0.40245 0.55102 0.26304 0.0
H822 H 0.38564 0.49807 0.29857 0.0
C823 C 0.40475 0.45498 0.20323 0.0
C824 C 0.41692 0.50274 0.21762 0.0
C825 C 0.40447 0.44169 0.17732 0.0
C826 C 0.40342 0.56031 0.31628 0.0
C827 C 0.40377 0.54706 0.2903 0.0
C828 C 0.3945 0.49947 0.27616 0.0
C829 C 0.40592 0.47327 0.19396 0.0
C830 C 0.40591 0.48746 0.22122 0.0
C831 C 0.40541 0.52884 0.29955 0.0
C832 C 0.40544 0.51474 0.27238 0.0
H833 H 0.40747 0.46882 0.10524 0.0
H834 H 0.40748 0.49193 0.15023 0.0
H835 H 0.38579 0.47455 0.25396 0.0
H836 H 0.408 0.53318 0.3881 0.0
H837 H 0.40845 0.51011 0.34274 0.0
C838 C 0.18968 0.65887 0.06066 0.0
C839 C 0.19415 0.66039 0.09634 0.0
C840 C 0.20316 0.65945 0.03512 0.0
C841 C 0.25063 0.67309 0.02196 0.0
H842 H 0.24899 0.63906 0.94487 0.0
C843 C 0.3119 0.65669 0.93501 0.0
C844 C 0.30875 0.65653 0.89869 0.0
C845 C 0.2975 0.65798 0.95839 0.0
C846 C 0.24951 0.64873 0.96612 0.0
H847 H 0.21611 0.66366 0.13339 0.0
H848 H 0.23952 0.66424 0.08914 0.0
H849 H 0.22417 0.64016 0.98673 0.0
H850 H 0.28817 0.65748 0.85823 0.0
H851 H 0.26308 0.65956 0.89913 0.0
H852 H 0.27621 0.6813 0.00176 0.0
C853 C 0.22566 0.66303 0.08066 0.0
C854 C 0.23529 0.64943 0.98996 0.0
C855 C 0.21224 0.66257 0.10605 0.0
C856 C 0.291 0.6576 0.88613 0.0
C857 C 0.27663 0.6587 0.90947 0.0
C858 C 0.2649 0.67227 -0.00168 0.0
C859 C 0.2213 0.66147 0.04493 0.0
C860 C 0.23578 0.66151 0.0183 0.0
C861 C 0.27976 0.65891 0.94576 0.0
C862 C 0.26451 0.66001 0.97037 0.0
H863 H 0.17582 0.65724 0.05249 0.0
H864 H 0.19938 0.65839 0.00774 0.0
H865 H 0.25124 0.68278 0.04316 0.0
H866 H 0.32545 0.65588 0.94535 0.0
H867 H 0.3002 0.65798 0.98634 0.0
C868 C 0.10076 0.44072 0.81839 0.0
C869 C 0.09151 0.4428 0.85022 0.0
C870 C 0.09991 0.45415 0.79281 0.0
C871 C 0.08852 0.50242 0.78223 0.0
H872 H 0.08795 0.49018 0.68337 0.0
C873 C 0.0951 0.5561 0.6738 0.0
C874 C 0.08547 0.55333 0.6426 0.0
C875 C 0.09555 0.54274 0.69954 0.0
C876 C 0.08787 0.49384 0.71088 0.0
H877 H 0.07361 0.46007 0.87994 0.0
H878 H 0.07151 0.48311 0.83489 0.0
H879 H 0.08874 0.46631 0.7269 0.0
H880 H 0.06813 0.53492 0.61427 0.0
H881 H 0.06826 0.51193 0.65972 0.0
H882 H 0.08684 0.52991 0.76627 0.0
C883 C 0.07994 0.4715 0.83001 0.0
C884 C 0.08862 0.48014 0.73584 0.0
C885 C 0.08102 0.45823 0.85572 0.0
C886 C 0.0758 0.5373 0.63801 0.0
C887 C 0.07601 0.52408 0.66392 0.0
C888 C 0.08752 0.51611 0.75728 0.0
C889 C 0.08957 0.46975 0.79846 0.0
C890 C 0.08893 0.48427 0.77182 0.0
C891 C 0.08615 0.5265 0.69471 0.0
C892 C 0.08717 0.51198 0.72131 0.0
H893 H 0.10904 0.42897 0.81365 0.0
H894 H 0.10768 0.45247 0.76898 0.0
H895 H 0.08907 0.50611 0.80971 0.0
H896 H 0.10278 0.56832 0.67783 0.0
H897 H 0.10369 0.54497 0.72272 0.0
C898 C 0.18799 0.3429 0.43373 0.0
C899 C 0.19167 0.34144 0.39773 0.0
C900 C 0.20201 0.34225 0.45812 0.0
C901 C 0.2496 0.32823 0.46736 0.0
H902 H 0.24892 0.3605 0.54734 0.0
C903 C 0.31101 0.34067 0.55733 0.0
C904 C 0.30747 0.33985 0.59349 0.0
C905 C 0.29683 0.34045 0.53326 0.0
C906 C 0.24919 0.35134 0.52521 0.0
H907 H 0.21279 0.33836 0.35884 0.0
H908 H 0.23718 0.3377 0.40114 0.0
H909 H 0.22392 0.36081 0.50586 0.0
H910 H 0.28644 0.33813 0.63292 0.0
H911 H 0.26177 0.3379 0.59089 0.0
H912 H 0.2751 0.31907 0.4865 0.0
C913 C 0.22352 0.33888 0.41076 0.0
C914 C 0.23487 0.35145 0.50158 0.0
C915 C 0.20953 0.33937 0.38649 0.0
C916 C 0.28958 0.33876 0.60518 0.0
C917 C 0.27545 0.33874 0.5812 0.0
C918 C 0.26401 0.32826 0.49081 0.0
C919 C 0.21993 0.34027 0.44683 0.0
C920 C 0.23492 0.33989 0.4724 0.0
C921 C 0.27895 0.33963 0.54508 0.0
C922 C 0.26389 0.33979 0.51993 0.0
H923 H 0.17431 0.34444 0.44307 0.0
H924 H 0.19881 0.34313 0.4858 0.0
H925 H 0.24991 0.31895 0.44545 0.0
H926 H 0.32469 0.34151 0.54766 0.0
H927 H 0.29982 0.34124 0.50547 0.0
C928 C 0.11468 0.1505 0.40033 0.0
C929 C 0.11097 0.14724 0.43596 0.0
C930 C 0.12102 0.16726 0.38934 0.0
C931 C 0.12131 0.21478 0.4171 0.0
H932 H 0.15331 0.22037 0.33742 0.0
C933 C 0.14449 0.28436 0.36784 0.0
C934 C 0.14288 0.28729 0.33147 0.0
C935 C 0.1426 0.26711 0.38184 0.0
C936 C 0.14431 0.21898 0.35963 0.0
H937 H 0.11197 0.1588 0.48824 0.0
H938 H 0.12344 0.18792 0.46913 0.0
H939 H 0.14722 0.19035 0.36061 0.0
H940 H 0.13845 0.2742 0.28125 0.0
H941 H 0.1352 0.24405 0.30582 0.0
H942 H 0.1184 0.24342 0.41603 0.0
C943 C 0.12099 0.17764 0.44955 0.0
C944 C 0.14079 0.2018 0.3729 0.0
C945 C 0.1145 0.1609 0.46054 0.0
C946 C 0.13972 0.27246 0.30938 0.0
C947 C 0.13797 0.25516 0.3234 0.0
C948 C 0.12495 0.23194 0.40402 0.0
C949 C 0.12396 0.18115 0.41372 0.0
C950 C 0.12903 0.19947 0.40148 0.0
C951 C 0.13921 0.25235 0.35981 0.0
C952 C 0.13629 0.2342 0.37487 0.0
H953 H 0.1121 0.14032 0.38062 0.0
H954 H 0.12293 0.16951 0.3615 0.0
H955 H 0.11193 0.2135 0.43871 0.0
H956 H 0.14697 0.29544 0.38568 0.0
H957 H 0.14378 0.2653 0.40997 0.0
C958 C 0.97348 0.87956 0.55452 0.0
C959 C 0.96179 0.89131 0.57223 0.0
C960 C 0.99053 0.87581 0.56807 0.0
C961 C 0.02921 0.87655 0.59182 0.0
H962 H 0.03523 0.87203 0.69252 0.0
C963 C 0.09872 0.86229 0.65198 0.0
C964 C 0.09946 0.85024 0.68038 0.0
C965 C 0.08224 0.869 0.64021 0.0
C966 C 0.03377 0.87309 0.66432 0.0
H967 H 0.95903 0.90873 0.61762 0.0
H968 H 0.98899 0.90265 0.64065 0.0
H969 H 0.00592 0.87988 0.66866 0.0
H970 H 0.08349 0.83599 0.71906 0.0
H971 H 0.05469 0.84716 0.69779 0.0
H972 H 0.05676 0.86881 0.58728 0.0
C973 C 0.98482 0.89591 0.6168 0.0
C974 C 0.01699 0.87787 0.65062 0.0
C975 C 0.96766 0.89949 0.60348 0.0
C976 C 0.08338 0.84533 0.69721 0.0
C977 C 0.06685 0.85183 0.6851 0.0
C978 C 0.04591 0.87156 0.60547 0.0
C979 C 0.99642 0.88391 0.59942 0.0
C980 C 0.01446 0.87954 0.61416 0.0
C981 C 0.06605 0.8636 0.65619 0.0
C982 C 0.04841 0.86966 0.64189 0.0
H983 H 0.96932 0.87291 0.53056 0.0
H984 H 0.99892 0.86623 0.55427 0.0
H985 H 0.02788 0.87799 0.56365 0.0
H986 H 0.1109 0.86652 0.63873 0.0
H987 H 0.08222 0.87836 0.61843 0.0
C988 C 0.38267 0.84823 0.89178 0.0
C989 C 0.38412 0.8521 0.92781 0.0
C990 C 0.37671 0.83138 0.88048 0.0
C991 C 0.37391 0.78452 0.91171 0.0
H992 H 0.34719 0.77727 0.82539 0.0
C993 C 0.35311 0.71399 0.86487 0.0
C994 C 0.35689 0.70994 0.82953 0.0
C995 C 0.35423 0.73164 0.87713 0.0
C996 C 0.35472 0.77912 0.84947 0.0
H997 H 0.37934 0.84165 0.98017 0.0
H998 H 0.36855 0.81241 0.96043 0.0
H999 H 0.35229 0.8078 0.84704 0.0
H1000 H 0.36427 0.72148 0.77919 0.0
H1001 H 0.36623 0.75234 0.80077 0.0
H1002 H 0.3764 0.75589 0.91407 0.0
C1003 C 0.37251 0.82223 0.94091 0.0
C1004 C 0.35766 0.79659 0.86188 0.0
C1005 C 0.37861 0.83904 0.95223 0.0
C1006 C 0.36134 0.72408 0.80657 0.0
C1007 C 0.36235 0.74178 0.81885 0.0
C1008 C 0.37086 0.7671 0.89946 0.0
C1009 C 0.37191 0.81803 0.90491 0.0
C1010 C 0.36748 0.79951 0.89296 0.0
C1011 C 0.35904 0.74569 0.85437 0.0
C1012 C 0.3614 0.76422 0.86804 0.0
H1013 H 0.3868 0.85796 0.87221 0.0
H1014 H 0.37661 0.82858 0.85258 0.0
H1015 H 0.38184 0.78624 0.93533 0.0
H1016 H 0.34954 0.70349 0.88331 0.0
H1017 H 0.35139 0.73429 0.90454 0.0
C1018 C 0.41271 0.13704 0.1997 0.0
C1019 C 0.39908 0.14182 0.17587 0.0
C1020 C 0.42916 0.13036 0.18765 0.0
C1021 C 0.45182 0.11109 0.10917 0.0
H1022 H 0.49492 0.12899 0.15474 0.0
C1023 C 0.52307 0.10561 0.04872 0.0
C1024 C 0.53727 0.10109 0.07152 0.0
C1025 C 0.50583 0.10892 0.0619 0.0
C1026 C 0.48301 0.12369 0.14201 0.0
H1027 H 0.39197 0.14297 0.12062 0.0
H1028 H 0.42074 0.13172 0.09966 0.0
H1029 H 0.46552 0.13771 0.17709 0.0
H1030 H 0.54428 0.09609 0.12605 0.0
H1031 H 0.51426 0.10191 0.14884 0.0
H1032 H 0.46947 0.09742 0.07355 0.0
C1033 C 0.41863 0.13283 0.1277 0.0
C1034 C 0.46614 0.12865 0.15486 0.0
C1035 C 0.40214 0.13939 0.13975 0.0
C1036 C 0.53372 0.09961 0.10769 0.0
C1037 C 0.51653 0.10303 0.12083 0.0
C1038 C 0.46872 0.10622 0.09617 0.0
C1039 C 0.43242 0.12841 0.15148 0.0
C1040 C 0.45033 0.12248 0.13853 0.0
C1041 C 0.50245 0.10789 0.09814 0.0
C1042 C 0.48448 0.11253 0.1124 0.0
H1043 H 0.41075 0.13856 0.22772 0.0
H1044 H 0.43935 0.12678 0.20673 0.0
H1045 H 0.43993 0.10587 0.09628 0.0
H1046 H 0.52529 0.10683 0.02073 0.0
H1047 H 0.49527 0.11278 0.04381 0.0
C1048 C 0.14976 0.71815 0.13341 0.0
C1049 C 0.14793 0.71475 0.16958 0.0
C1050 C 0.14722 0.73545 0.12004 0.0
C1051 C 0.14598 0.7834 0.14409 0.0
H1052 H 0.11445 0.7877 0.06339 0.0
C1053 C 0.11409 0.85077 0.10235 0.0
C1054 C 0.11133 0.85412 0.06641 0.0
C1055 C 0.12057 0.83413 0.11374 0.0
C1056 C 0.12355 0.78677 0.08552 0.0
H1057 H 0.14254 0.72708 0.22016 0.0
H1058 H 0.13812 0.75732 0.19668 0.0
H1059 H 0.12222 0.75802 0.08568 0.0
H1060 H 0.11396 0.84279 0.01415 0.0
H1061 H 0.12561 0.81388 0.03401 0.0
H1062 H 0.1473 0.81216 0.14401 0.0
C1063 C 0.14157 0.74654 0.17877 0.0
C1064 C 0.12796 0.76974 0.09835 0.0
C1065 C 0.144 0.72919 0.19217 0.0
C1066 C 0.11575 0.84062 0.04205 0.0
C1067 C 0.12235 0.824 0.05345 0.0
C1068 C 0.14168 0.80046 0.13111 0.0
C1069 C 0.14291 0.74978 0.14251 0.0
C1070 C 0.13906 0.76788 0.12798 0.0
C1071 C 0.12458 0.82046 0.08948 0.0
C1072 C 0.13023 0.80235 0.10189 0.0
H1073 H 0.15285 0.70739 0.1152 0.0
H1074 H 0.14855 0.7376 0.09203 0.0
H1075 H 0.15476 0.78235 0.16671 0.0
H1076 H 0.11081 0.86083 0.12189 0.0
H1077 H 0.12188 0.83182 0.14169 0.0
C1078 C 0.52942 0.90073 0.39814 0.0
C1079 C 0.53532 0.89216 0.42894 0.0
C1080 C 0.51213 0.89759 0.38511 0.0
C1081 C 0.46758 0.87829 0.40996 0.0
H1082 H 0.46113 0.87583 0.30911 0.0
C1083 C 0.39768 0.86585 0.34889 0.0
C1084 C 0.39688 0.85477 0.31905 0.0
C1085 C 0.41423 0.87193 0.36163 0.0
C1086 C 0.4627 0.87629 0.33735 0.0
H1087 H 0.52776 0.87351 0.47016 0.0
H1088 H 0.49791 0.86749 0.44682 0.0
H1089 H 0.49057 0.88288 0.333 0.0
H1090 H 0.41281 0.84141 0.27912 0.0
H1091 H 0.44165 0.85141 0.30198 0.0
H1092 H 0.43997 0.87067 0.41436 0.0
C1093 C 0.50637 0.87708 0.4332 0.0
C1094 C 0.47957 0.88064 0.3511 0.0
C1095 C 0.52355 0.88044 0.44652 0.0
C1096 C 0.41296 0.85005 0.30203 0.0
C1097 C 0.42952 0.85589 0.31506 0.0
C1098 C 0.45077 0.87368 0.39622 0.0
C1099 C 0.50042 0.88558 0.40227 0.0
C1100 C 0.48227 0.8816 0.38761 0.0
C1101 C 0.4304 0.86686 0.34514 0.0
C1102 C 0.44812 0.87251 0.35973 0.0
H1103 H 0.53812 0.90998 0.38417 0.0
H1104 H 0.50793 0.90467 0.36165 0.0
H1105 H 0.46903 0.8792 0.43819 0.0
H1106 H 0.3855 0.86987 0.3624 0.0
H1107 H 0.41432 0.88065 0.3844 0.0
C1108 C 0.38162 0.15776 0.53733 0.0
C1109 C 0.38595 0.14433 0.56192 0.0
C1110 C 0.37546 0.17459 0.54849 0.0
C1111 C 0.35801 0.19943 0.6265 0.0
H1112 H 0.37861 0.24068 0.57888 0.0
C1113 C 0.35993 0.27118 0.68572 0.0
C1114 C 0.35595 0.28556 0.663 0.0
C1115 C 0.36151 0.25365 0.67271 0.0
C1116 C 0.37257 0.22931 0.59219 0.0
H1117 H 0.38659 0.13793 0.61755 0.0
H1118 H 0.37633 0.16728 0.63689 0.0
H1119 H 0.38467 0.21056 0.55688 0.0
H1120 H 0.35015 0.29264 0.60879 0.0
H1121 H 0.35304 0.26215 0.58629 0.0
H1122 H 0.34641 0.21833 0.6625 0.0
C1123 C 0.37737 0.16477 0.60896 0.0
C1124 C 0.37598 0.21202 0.5795 0.0
C1125 C 0.38338 0.14792 0.59782 0.0
C1126 C 0.3533 0.28194 0.6271 0.0
C1127 C 0.35502 0.26447 0.6141 0.0
C1128 C 0.35474 0.21674 0.63937 0.0
C1129 C 0.37362 0.17842 0.58448 0.0
C1130 C 0.36887 0.19684 0.59664 0.0
C1131 C 0.35928 0.25018 0.6367 0.0
C1132 C 0.36209 0.23183 0.62246 0.0
H1133 H 0.38327 0.15539 0.50946 0.0
H1134 H 0.37236 0.18467 0.52888 0.0
H1135 H 0.35208 0.18808 0.64004 0.0
H1136 H 0.362 0.27346 0.71352 0.0
H1137 H 0.36495 0.24289 0.69069 0.0
C1138 C 0.09873 0.13764 0.85398 0.0
C1139 C 0.10226 0.13992 0.81799 0.0
C1140 C 0.08197 0.13146 0.86536 0.0
C1141 C 0.03474 0.12862 0.83588 0.0
H1142 H 0.02922 0.09852 0.91836 0.0
C1143 C 0.96547 0.1032 0.88141 0.0
C1144 C 0.96159 0.10545 0.9173 0.0
C1145 C 0.98296 0.10556 0.86887 0.0
C1146 C 0.03059 0.10699 0.89538 0.0
H1147 H 0.09118 0.13666 0.76566 0.0
H1148 H 0.06211 0.1255 0.78547 0.0
H1149 H 0.05934 0.10552 0.89662 0.0
H1150 H 0.97324 0.1114 0.96827 0.0
H1151 H 0.00379 0.1155 0.94624 0.0
H1152 H 0.00601 0.13011 0.83467 0.0
C1153 C 0.07214 0.12894 0.80497 0.0
C1154 C 0.04782 0.11104 0.88295 0.0
C1155 C 0.08885 0.13526 0.7936 0.0
C1156 C 0.97572 0.10961 0.94047 0.0
C1157 C 0.99325 0.11186 0.92791 0.0
C1158 C 0.01755 0.12448 0.84815 0.0
C1159 C 0.06838 0.12727 0.84101 0.0
C1160 C 0.05011 0.12204 0.85321 0.0
C1161 C 0.99699 0.1101 0.89191 0.0
C1162 C 0.01529 0.11375 0.87818 0.0
H1163 H 0.10873 0.14113 0.87352 0.0
H1164 H 0.07949 0.13055 0.89332 0.0
H1165 H 0.03597 0.13742 0.81334 0.0
H1166 H 0.95497 0.09991 0.86278 0.0
H1167 H 0.98549 0.1039 0.84105 0.0
C1168 C 0.84838 0.71886 0.63726 0.0
C1169 C 0.85142 0.71552 0.67314 0.0
C1170 C 0.85026 0.73619 0.62359 0.0
C1171 C 0.85192 0.78424 0.64778 0.0
H1172 H 0.88017 0.78885 0.56269 0.0
C1173 C 0.88268 0.85158 0.60175 0.0
C1174 C 0.88433 0.85478 0.56551 0.0
C1175 C 0.87618 0.83511 0.61409 0.0
C1176 C 0.87196 0.78784 0.58609 0.0
H1177 H 0.85833 0.72798 0.72291 0.0
H1178 H 0.86165 0.75821 0.69892 0.0
H1179 H 0.87342 0.7591 0.58576 0.0
H1180 H 0.8794 0.84353 0.51381 0.0
H1181 H 0.86771 0.81499 0.53534 0.0
H1182 H 0.85057 0.81302 0.64823 0.0
C1183 C 0.85772 0.74739 0.68147 0.0
C1184 C 0.86813 0.77076 0.59935 0.0
C1185 C 0.85594 0.73003 0.69515 0.0
C1186 C 0.87852 0.84145 0.5419 0.0
C1187 C 0.87191 0.82503 0.55425 0.0
C1188 C 0.85566 0.80136 0.63439 0.0
C1189 C 0.85512 0.75061 0.64547 0.0
C1190 C 0.85824 0.76877 0.63052 0.0
C1191 C 0.87105 0.8215 0.59048 0.0
C1192 C 0.86589 0.80336 0.60356 0.0
H1193 H 0.84479 0.70805 0.61952 0.0
H1194 H 0.84796 0.73831 0.59581 0.0
H1195 H 0.84407 0.78311 0.67163 0.0
H1196 H 0.88703 0.86154 0.6207 0.0
H1197 H 0.87587 0.83281 0.64216 0.0
C1198 C 0.90633 0.1259 0.29071 0.0
C1199 C 0.89527 0.13691 0.31142 0.0
C1200 C 0.92289 0.11983 0.30369 0.0
C1201 C 0.94982 0.1172 0.38715 0.0
H1202 H 0.98949 0.11093 0.32246 0.0
C1203 C 0.02034 0.09827 0.43811 0.0
C1204 C 0.03528 0.10499 0.41989 0.0
C1205 C 0.00307 0.0999 0.42392 0.0
C1206 C 0.97867 0.11288 0.34108 0.0
H1207 H 0.8929 0.15056 0.36145 0.0
H1208 H 0.92199 0.14107 0.38316 0.0
H1209 H 0.96005 0.11865 0.29994 0.0
H1210 H 0.04404 0.11889 0.37298 0.0
H1211 H 0.01396 0.12298 0.34936 0.0
H1212 H 0.96866 0.11301 0.42846 0.0
C1213 C 0.91775 0.13623 0.35768 0.0
C1214 C 0.96158 0.11696 0.328 0.0
C1215 C 0.90107 0.14186 0.3451 0.0
C1216 C 0.0327 0.11347 0.3874 0.0
C1217 C 0.01541 0.11562 0.37371 0.0
C1218 C 0.96699 0.11365 0.40027 0.0
C1219 C 0.92892 0.12505 0.3373 0.0
C1220 C 0.94692 0.11941 0.35088 0.0
C1221 C 0.00029 0.10883 0.3917 0.0
C1222 C 0.98175 0.11161 0.37748 0.0
H1223 H 0.90208 0.1218 0.26471 0.0
H1224 H 0.93086 0.11098 0.28737 0.0
H1225 H 0.93888 0.11844 0.40572 0.0
H1226 H 0.02205 0.09145 0.46303 0.0
H1227 H 0.99196 0.09405 0.43828 0.0
C1228 C 0.63767 0.26935 0.18687 0.0
C1229 C 0.64201 0.28355 0.16397 0.0
C1230 C 0.63587 0.25179 0.17414 0.0
C1231 C 0.62516 0.2271 0.09365 0.0
H1232 H 0.64486 0.18593 0.14297 0.0
C1233 C 0.61719 0.15554 0.03844 0.0
C1234 C 0.6125 0.14206 0.06265 0.0
C1235 C 0.62303 0.17239 0.05008 0.0
C1236 C 0.63914 0.19727 0.12903 0.0
H1237 H 0.64813 0.29029 0.10975 0.0
H1238 H 0.64488 0.25974 0.08775 0.0
H1239 H 0.65044 0.21623 0.16527 0.0
H1240 H 0.6109 0.13556 0.11815 0.0
H1241 H 0.62066 0.16498 0.13833 0.0
H1242 H 0.61342 0.20829 0.05799 0.0
C1243 C 0.64279 0.26222 0.11547 0.0
C1244 C 0.64236 0.21461 0.14181 0.0
C1245 C 0.64472 0.27973 0.12818 0.0
C1246 C 0.61441 0.14561 0.09872 0.0
C1247 C 0.62012 0.16249 0.11034 0.0
C1248 C 0.62183 0.20979 0.08103 0.0
C1249 C 0.63822 0.24809 0.13825 0.0
C1250 C 0.63532 0.22969 0.12432 0.0
C1251 C 0.62421 0.1762 0.08618 0.0
C1252 C 0.62869 0.19464 0.09865 0.0
H1253 H 0.63553 0.27178 0.21458 0.0
H1254 H 0.63219 0.24117 0.19225 0.0
H1255 H 0.61934 0.23846 0.07989 0.0
H1256 H 0.61606 0.15321 0.01046 0.0
H1257 H 0.62643 0.18251 0.03072 0.0
C1258 C 0.59799 0.85886 0.85637 0.0
C1259 C 0.60155 0.85646 0.82041 0.0
C1260 C 0.58106 0.86455 0.86771 0.0
C1261 C 0.53364 0.86612 0.83902 0.0
H1262 H 0.52814 0.89763 0.91947 0.0
C1263 C 0.46451 0.89277 0.88353 0.0
C1264 C 0.46077 0.89162 0.91967 0.0
C1265 C 0.48187 0.88967 0.87094 0.0
C1266 C 0.52949 0.88873 0.8971 0.0
H1267 H 0.59021 0.8588 0.7681 0.0
H1268 H 0.56078 0.86907 0.78787 0.0
H1269 H 0.55822 0.89056 0.89775 0.0
H1270 H 0.47252 0.88665 0.97096 0.0
H1271 H 0.50285 0.88126 0.94886 0.0
H1272 H 0.50491 0.86434 0.83838 0.0
C1273 C 0.57098 0.86615 0.80736 0.0
C1274 C 0.5467 0.88465 0.88467 0.0
C1275 C 0.58789 0.86035 0.79601 0.0
C1276 C 0.4749 0.88761 0.94297 0.0
C1277 C 0.49231 0.88462 0.93036 0.0
C1278 C 0.51645 0.87029 0.85131 0.0
C1279 C 0.56729 0.8681 0.84337 0.0
C1280 C 0.54899 0.87318 0.85563 0.0
C1281 C 0.49592 0.88547 0.89419 0.0
C1282 C 0.5142 0.88153 0.88061 0.0
H1283 H 0.60816 0.85595 0.87595 0.0
H1284 H 0.57863 0.86567 0.89565 0.0
H1285 H 0.53489 0.85698 0.81702 0.0
H1286 H 0.454 0.89587 0.86479 0.0
H1287 H 0.48431 0.89061 0.84297 0.0
C1288 C 0.85198 0.28671 0.85612 0.0
C1289 C 0.85511 0.2912 0.82076 0.0
C1290 C 0.85447 0.26913 0.86797 0.0
C1291 C 0.85773 0.22194 0.83954 0.0
H1292 H 0.88538 0.21617 0.92516 0.0
C1293 C 0.88651 0.15339 0.88454 0.0
C1294 C 0.88746 0.14985 0.92077 0.0
C1295 C 0.88093 0.17023 0.87233 0.0
C1296 C 0.87737 0.2175 0.90156 0.0
H1297 H 0.86282 0.28048 0.76993 0.0
H1298 H 0.86715 0.2497 0.79077 0.0
H1299 H 0.87859 0.24622 0.90367 0.0
H1300 H 0.88245 0.16099 0.9725 0.0
H1301 H 0.87232 0.19016 0.9512 0.0
H1302 H 0.85646 0.19318 0.83749 0.0
C1303 C 0.86272 0.25987 0.80921 0.0
C1304 C 0.87353 0.23475 0.88919 0.0
C1305 C 0.86033 0.27753 0.79734 0.0
C1306 C 0.88208 0.16332 0.94444 0.0
C1307 C 0.87636 0.18009 0.93221 0.0
C1308 C 0.86146 0.20464 0.85207 0.0
C1309 C 0.86006 0.25556 0.84476 0.0
C1310 C 0.86373 0.23716 0.858 0.0
C1311 C 0.87604 0.18388 0.89603 0.0
C1312 C 0.87139 0.20221 0.88319 0.0
H1313 H 0.84785 0.29683 0.87493 0.0
H1314 H 0.85208 0.26614 0.89542 0.0
H1315 H 0.85 0.22341 0.81561 0.0
H1316 H 0.89059 0.14335 0.86554 0.0
H1317 H 0.88104 0.17271 0.84431 0.0
C1318 C 0.59544 0.14456 0.63978 0.0
C1319 C 0.60167 0.1398 0.67327 0.0
C1320 C 0.57893 0.1382 0.62757 0.0
C1321 C 0.53632 0.11695 0.65902 0.0
H1322 H 0.52771 0.11355 0.55895 0.0
C1323 C 0.46447 0.1111 0.60462 0.0
C1324 C 0.46155 0.10266 0.5722 0.0
C1325 C 0.48193 0.11389 0.61695 0.0
C1326 C 0.52984 0.11404 0.58703 0.0
H1327 H 0.59597 0.12412 0.71983 0.0
H1328 H 0.56765 0.11199 0.69779 0.0
H1329 H 0.55764 0.12008 0.58001 0.0
H1330 H 0.4744 0.08996 0.52767 0.0
H1331 H 0.50489 0.09371 0.55007 0.0
H1332 H 0.50882 0.10967 0.66613 0.0
C1333 C 0.57502 0.1213 0.68139 0.0
C1334 C 0.54707 0.11821 0.5992 0.0
C1335 C 0.59134 0.12813 0.69402 0.0
C1336 C 0.47636 0.09669 0.55261 0.0
C1337 C 0.49384 0.09898 0.56544 0.0
C1338 C 0.51922 0.11226 0.64689 0.0
C1339 C 0.56844 0.12645 0.64814 0.0
C1340 C 0.55048 0.12021 0.63535 0.0
C1341 C 0.49692 0.10781 0.59766 0.0
C1342 C 0.51558 0.11119 0.61067 0.0
H1343 H 0.60308 0.15372 0.62341 0.0
H1344 H 0.57427 0.14295 0.60231 0.0
H1345 H 0.5382 0.11849 0.68703 0.0
H1346 H 0.45325 0.11599 0.62005 0.0
H1347 H 0.48357 0.12118 0.64133 0.0
C1348 C 0.64637 0.71707 0.37058 0.0
C1349 C 0.64412 0.714 0.33438 0.0
C1350 C 0.64465 0.73437 0.38445 0.0
C1351 C 0.64507 0.78254 0.36119 0.0
H1352 H 0.61467 0.78768 0.44329 0.0
C1353 C 0.6147 0.85047 0.40377 0.0
C1354 C 0.61207 0.85383 0.43974 0.0
C1355 C 0.62114 0.83382 0.39233 0.0
C1356 C 0.62349 0.78651 0.42078 0.0
H1357 H 0.63879 0.72691 0.28431 0.0
H1358 H 0.63577 0.75711 0.30864 0.0
H1359 H 0.62122 0.75782 0.42053 0.0
H1360 H 0.61512 0.8426 0.492 0.0
H1361 H 0.6267 0.81368 0.47205 0.0
H1362 H 0.64725 0.81126 0.36129 0.0
C1363 C 0.63894 0.74608 0.32619 0.0
C1364 C 0.6272 0.76937 0.40767 0.0
C1365 C 0.64056 0.72875 0.3123 0.0
C1366 C 0.61679 0.84041 0.46408 0.0
C1367 C 0.62334 0.82379 0.45263 0.0
C1368 C 0.64146 0.79971 0.37444 0.0
C1369 C 0.64076 0.74903 0.36246 0.0
C1370 C 0.63783 0.76721 0.37749 0.0
C1371 C 0.62525 0.82016 0.41658 0.0
C1372 C 0.63041 0.80191 0.40413 0.0
H1373 H 0.64921 0.70607 0.3884 0.0
H1374 H 0.64633 0.73627 0.41246 0.0
H1375 H 0.65352 0.78126 0.33816 0.0
H1376 H 0.61122 0.86047 0.38423 0.0
H1377 H 0.62223 0.83146 0.36436 0.0
C1378 C 0.90657 0.87523 0.19685 0.0
C1379 C 0.89633 0.86313 0.17689 0.0
C1380 C 0.92269 0.88219 0.18359 0.0
C1381 C 0.95069 0.88425 0.10122 0.0
H1382 H 0.98884 0.89358 0.168 0.0
C1383 C 0.02186 0.90408 0.05409 0.0
C1384 C 0.03652 0.89824 0.07429 0.0
C1385 C 0.0043 0.9023 0.06683 0.0
C1386 C 0.97848 0.89077 0.14881 0.0
H1387 H 0.89482 0.84871 0.12759 0.0
H1388 H 0.9233 0.85975 0.10538 0.0
H1389 H 0.95939 0.88527 0.18911 0.0
H1390 H 0.04445 0.88568 0.12319 0.0
H1391 H 0.014 0.88138 0.1444 0.0
H1392 H 0.97019 0.88815 0.06091 0.0
C1393 C 0.91871 0.8647 0.13053 0.0
C1394 C 0.96132 0.88637 0.16104 0.0
C1395 C 0.90238 0.8582 0.14338 0.0
C1396 C 0.03336 0.89048 0.10726 0.0
C1397 C 0.01582 0.8882 0.11955 0.0
C1398 C 0.96798 0.88812 0.08899 0.0
C1399 C 0.9292 0.87674 0.15048 0.0
C1400 C 0.94718 0.88281 0.13745 0.0
C1401 C 0.00098 0.89412 0.09962 0.0
C1402 C 0.98222 0.89122 0.11259 0.0
H1403 H 0.90208 0.87937 0.22268 0.0
H1404 H 0.93002 0.89177 0.19949 0.0
H1405 H 0.94016 0.88214 0.08205 0.0
H1406 H 0.024 0.91028 0.02869 0.0
H1407 H 0.99338 0.90743 0.05093 0.0
C1408 C 0.65428 0.76947 0.80589 0.0
C1409 C 0.64865 0.78395 0.82678 0.0
C1410 C 0.65303 0.75182 0.81848 0.0
C1411 C 0.64382 0.72551 0.90097 0.0
H1412 H 0.63373 0.68741 0.83454 0.0
C1413 C 0.63033 0.65307 0.94885 0.0
C1414 C 0.6178 0.64286 0.92987 0.0
C1415 C 0.63666 0.66942 0.93543 0.0
C1416 C 0.63627 0.69789 0.85363 0.0
H1417 H 0.63701 0.79144 0.8768 0.0
H1418 H 0.63369 0.76086 0.89785 0.0
H1419 H 0.63901 0.71758 0.81329 0.0
H1420 H 0.6019 0.64166 0.88228 0.0
H1421 H 0.61188 0.67051 0.85995 0.0
H1422 H 0.63952 0.7062 0.94145 0.0
C1423 C 0.63992 0.7629 0.87249 0.0
C1424 C 0.63971 0.71525 0.8413 0.0
C1425 C 0.64165 0.78051 0.8603 0.0
C1426 C 0.61172 0.6492 0.89728 0.0
C1427 C 0.61763 0.66574 0.88434 0.0
C1428 C 0.63987 0.70827 0.91335 0.0
C1429 C 0.64564 0.74825 0.85187 0.0
C1430 C 0.64329 0.72941 0.8648 0.0
C1431 C 0.63018 0.67615 0.90319 0.0
C1432 C 0.63579 0.69422 0.8899 0.0
H1433 H 0.65989 0.7718 0.78004 0.0
H1434 H 0.65796 0.74103 0.802 0.0
H1435 H 0.64703 0.73583 0.92001 0.0
H1436 H 0.63536 0.64834 0.97391 0.0
H1437 H 0.64662 0.67673 0.95045 0.0
C1438 C 0.47519 0.40612 0.04762 0.0
C1439 C 0.46042 0.40083 0.06806 0.0
C1440 C 0.49273 0.40383 0.06019 0.0
C1441 C 0.51861 0.39134 0.14163 0.0
H1442 H 0.55584 0.38054 0.07376 0.0
C1443 C 0.59027 0.37266 0.18716 0.0
C1444 C 0.59982 0.36013 0.16689 0.0
C1445 C 0.57425 0.38014 0.17457 0.0
C1446 C 0.5456 0.38325 0.09324 0.0
H1447 H 0.45226 0.3889 0.1174 0.0
H1448 H 0.48262 0.38375 0.13838 0.0
H1449 H 0.526 0.38805 0.05351 0.0
H1450 H 0.60016 0.34544 0.11783 0.0
H1451 H 0.57176 0.35739 0.09685 0.0
H1452 H 0.53774 0.38495 0.18138 0.0
C1453 C 0.48094 0.39048 0.11341 0.0
C1454 C 0.52843 0.38799 0.08151 0.0
C1455 C 0.46344 0.39327 0.10127 0.0
C1456 C 0.59312 0.35522 0.13384 0.0
C1457 C 0.57686 0.36226 0.12169 0.0
C1458 C 0.53562 0.38607 0.15336 0.0
C1459 C 0.49589 0.39568 0.09306 0.0
C1460 C 0.51459 0.3919 0.10552 0.0
C1461 C 0.56712 0.37483 0.14186 0.0
C1462 C 0.54934 0.38172 0.12936 0.0
H1463 H 0.47318 0.41216 0.02203 0.0
H1464 H 0.50375 0.40846 0.044 0.0
H1465 H 0.50857 0.39473 0.16109 0.0
H1466 H 0.5953 0.3768 0.21261 0.0
H1467 H 0.56751 0.39008 0.19062 0.0
C1468 C 0.85731 0.21326 0.34866 0.0
C1469 C 0.85022 0.20993 0.31518 0.0
C1470 C 0.85923 0.23083 0.36088 0.0
C1471 C 0.85951 0.27864 0.33038 0.0
H1472 H 0.85982 0.28707 0.43072 0.0
C1473 C 0.88786 0.34422 0.38791 0.0
C1474 C 0.88219 0.35016 0.42105 0.0
C1475 C 0.88169 0.32791 0.37437 0.0
C1476 C 0.85942 0.2852 0.40256 0.0
H1477 H 0.83915 0.22221 0.26841 0.0
H1478 H 0.84141 0.25296 0.29045 0.0
H1479 H 0.85219 0.25764 0.40867 0.0
H1480 H 0.86501 0.34426 0.46542 0.0
H1481 H 0.85319 0.31635 0.44092 0.0
H1482 H 0.8655 0.30651 0.32419 0.0
C1483 C 0.84623 0.24211 0.3069 0.0
C1484 C 0.85542 0.26805 0.38983 0.0
C1485 C 0.8448 0.22448 0.29426 0.0
C1486 C 0.86972 0.33983 0.43993 0.0
C1487 C 0.86309 0.32374 0.42591 0.0
C1488 C 0.86297 0.29593 0.34308 0.0
C1489 C 0.8536 0.24556 0.34036 0.0
C1490 C 0.85595 0.26435 0.35359 0.0
C1491 C 0.86925 0.31734 0.39318 0.0
C1492 C 0.86351 0.29938 0.37943 0.0
H1493 H 0.86181 0.20226 0.36515 0.0
H1494 H 0.8655 0.23277 0.38624 0.0
H1495 H 0.86019 0.27646 0.30232 0.0
H1496 H 0.89762 0.35188 0.37297 0.0
H1497 H 0.8872 0.32341 0.34959 0.0
C1498 C 0.89785 0.63802 0.64314 0.0
C1499 C 0.89542 0.64063 0.6794 0.0
C1500 C 0.91423 0.63169 0.63006 0.0
C1501 C 0.9623 0.62878 0.65407 0.0
H1502 H 0.96506 0.59732 0.57302 0.0
C1503 C 0.02963 0.60041 0.60425 0.0
C1504 C 0.03276 0.60154 0.56788 0.0
C1505 C 0.01258 0.60385 0.61804 0.0
C1506 C 0.96447 0.6062 0.59554 0.0
H1507 H 0.9081 0.63785 0.73045 0.0
H1508 H 0.9365 0.62646 0.70768 0.0
H1509 H 0.9357 0.60521 0.59739 0.0
H1510 H 0.02018 0.60674 0.51745 0.0
H1511 H 0.99036 0.61273 0.54166 0.0
H1512 H 0.99104 0.62974 0.65225 0.0
C1513 C 0.9259 0.62974 0.68927 0.0
C1514 C 0.94767 0.61074 0.60949 0.0
C1515 C 0.90956 0.63619 0.70234 0.0
C1516 C 0.01828 0.6058 0.54558 0.0
C1517 C 0.00117 0.60913 0.5594 0.0
C1518 C 0.97906 0.62415 0.64027 0.0
C1519 C 0.92854 0.6277 0.65292 0.0
C1520 C 0.94638 0.62217 0.63883 0.0
C1521 C 0.9982 0.60839 0.59581 0.0
C1522 C 0.98033 0.61288 0.61077 0.0
H1523 H 0.88727 0.64133 0.62467 0.0
H1524 H 0.91584 0.63048 0.6019 0.0
H1525 H 0.96183 0.6379 0.67621 0.0
H1526 H 0.04041 0.59709 0.62228 0.0
H1527 H 0.01064 0.60294 0.64617 0.0
C1528 C 0.64163 0.22885 0.68752 0.0
C1529 C 0.64553 0.21419 0.66546 0.0
C1530 C 0.63963 0.24615 0.67358 0.0
C1531 C 0.62722 0.26926 0.59235 0.0
H1532 H 0.64803 0.31126 0.63704 0.0
C1533 C 0.61749 0.34031 0.53442 0.0
C1534 C 0.61373 0.35411 0.55856 0.0
C1535 C 0.62346 0.32348 0.5461 0.0
C1536 C 0.64199 0.29969 0.6244 0.0
H1537 H 0.65067 0.20635 0.61141 0.0
H1538 H 0.64704 0.23646 0.58729 0.0
H1539 H 0.65425 0.28137 0.66071 0.0
H1540 H 0.61369 0.36109 0.61394 0.0
H1541 H 0.62361 0.3318 0.63417 0.0
H1542 H 0.61449 0.28746 0.55673 0.0
C1543 C 0.64547 0.23453 0.61532 0.0
C1544 C 0.64559 0.28259 0.63795 0.0
C1545 C 0.64763 0.21729 0.62924 0.0
C1546 C 0.61649 0.35082 0.59453 0.0
C1547 C 0.62232 0.334 0.60618 0.0
C1548 C 0.62349 0.28635 0.57898 0.0
C1549 C 0.64132 0.24911 0.63729 0.0
C1550 C 0.63814 0.26722 0.62221 0.0
C1551 C 0.62569 0.32005 0.58218 0.0
C1552 C 0.63069 0.30181 0.59501 0.0
H1553 H 0.63996 0.22697 0.71553 0.0
H1554 H 0.63628 0.25713 0.6911 0.0
H1555 H 0.62112 0.25766 0.57993 0.0
H1556 H 0.61566 0.34242 0.50651 0.0
H1557 H 0.62623 0.31314 0.52683 0.0
C1558 C 0.02513 0.40248 0.94429 0.0
C1559 C 0.03974 0.39623 0.92446 0.0
C1560 C 0.00758 0.40088 0.93145 0.0
C1561 C 0.98165 0.38945 0.84969 0.0
H1562 H 0.94309 0.38236 0.9166 0.0
C1563 C 0.9088 0.37762 0.80252 0.0
C1564 C 0.89805 0.36596 0.8225 0.0
C1565 C 0.92538 0.38357 0.81548 0.0
C1566 C 0.95368 0.38404 0.89739 0.0
H1567 H 0.04761 0.38319 0.87605 0.0
H1568 H 0.01708 0.37921 0.85463 0.0
H1569 H 0.97332 0.38729 0.93763 0.0
H1570 H 0.89616 0.35126 0.87146 0.0
H1571 H 0.92535 0.3606 0.89312 0.0
H1572 H 0.96229 0.38464 0.80947 0.0
C1573 C 0.01899 0.38615 0.87931 0.0
C1574 C 0.9711 0.38729 0.90956 0.0
C1575 C 0.03654 0.38825 0.89171 0.0
C1576 C 0.9041 0.36043 0.85567 0.0
C1577 C 0.92085 0.36595 0.86821 0.0
C1578 C 0.96432 0.38569 0.83753 0.0
C1579 C 0.00421 0.39249 0.89892 0.0
C1580 C 0.98541 0.3899 0.88591 0.0
C1581 C 0.93181 0.37758 0.84829 0.0
C1582 C 0.95008 0.38275 0.86119 0.0
H1583 H 0.02729 0.4089 0.96948 0.0
H1584 H 0.99673 0.40636 0.94706 0.0
H1585 H 0.99211 0.39184 0.83049 0.0
H1586 H 0.90434 0.3822 0.77696 0.0
H1587 H 0.93312 0.39285 0.79963 0.0
C1588 C 0.85509 0.78213 0.14123 0.0
C1589 C 0.85623 0.78612 0.17725 0.0
C1590 C 0.85747 0.76455 0.12924 0.0
C1591 C 0.87745 0.72106 0.15572 0.0
H1592 H 0.85079 0.70294 0.07561 0.0
C1593 C 0.88506 0.64811 0.10805 0.0
C1594 C 0.88835 0.646 0.07191 0.0
C1595 C 0.87921 0.66458 0.1214 0.0
C1596 C 0.85836 0.70787 0.09793 0.0
H1597 H 0.86024 0.7746 0.22901 0.0
H1598 H 0.86397 0.74385 0.20816 0.0
H1599 H 0.84406 0.73285 0.0987 0.0
H1600 H 0.88722 0.65939 0.0213 0.0
H1601 H 0.87692 0.68817 0.04474 0.0
H1602 H 0.8917 0.69606 0.15496 0.0
C1603 C 0.86167 0.75441 0.18908 0.0
C1604 C 0.85457 0.72501 0.11111 0.0
C1605 C 0.85945 0.77204 0.20106 0.0
C1606 C 0.88491 0.66056 0.04927 0.0
C1607 C 0.87892 0.67702 0.06266 0.0
C1608 C 0.88113 0.7039 0.14273 0.0
C1609 C 0.86088 0.75047 0.15298 0.0
C1610 C 0.86419 0.73189 0.13998 0.0
C1611 C 0.87637 0.67929 0.09894 0.0
C1612 C 0.87173 0.69718 0.11355 0.0
H1613 H 0.85271 0.79265 0.1221 0.0
H1614 H 0.85706 0.76209 0.10123 0.0
H1615 H 0.88538 0.72602 0.17753 0.0
H1616 H 0.88747 0.63719 0.12628 0.0
H1617 H 0.87711 0.66589 0.14943 0.0
C1618 C 0.58486 0.63601 0.29858 0.0
C1619 C 0.5985 0.64011 0.32288 0.0
C1620 C 0.56816 0.62966 0.31001 0.0
C1621 C 0.5445 0.61026 0.38736 0.0
H1622 H 0.50221 0.63016 0.34206 0.0
C1623 C 0.47316 0.60718 0.44766 0.0
C1624 C 0.45877 0.60335 0.42487 0.0
C1625 C 0.49049 0.60993 0.43446 0.0
C1626 C 0.51389 0.6243 0.3547 0.0
H1627 H 0.60535 0.64034 0.37829 0.0
H1628 H 0.57618 0.62967 0.39819 0.0
H1629 H 0.53197 0.63796 0.32021 0.0
H1630 H 0.45147 0.59904 0.37027 0.0
H1631 H 0.48167 0.6039 0.3474 0.0
H1632 H 0.52628 0.59698 0.42243 0.0
C1633 C 0.57845 0.63106 0.37024 0.0
C1634 C 0.53096 0.62873 0.34212 0.0
C1635 C 0.59518 0.63729 0.35881 0.0
C1636 C 0.46219 0.60203 0.38863 0.0
C1637 C 0.47948 0.60489 0.37545 0.0
C1638 C 0.5274 0.60593 0.40008 0.0
C1639 C 0.56466 0.62736 0.34602 0.0
C1640 C 0.5465 0.62186 0.35842 0.0
C1641 C 0.49378 0.60901 0.39818 0.0
C1642 C 0.51193 0.61299 0.38399 0.0
H1643 H 0.587 0.63785 0.27068 0.0
H1644 H 0.55796 0.62663 0.29059 0.0
H1645 H 0.55616 0.6045 0.40019 0.0
H1646 H 0.47104 0.60825 0.47571 0.0
H1647 H 0.50122 0.61324 0.45259 0.0
C1648 C 0.38315 0.34186 0.03556 0.0
C1649 C 0.38701 0.35578 0.05938 0.0
C1650 C 0.37716 0.32512 0.04762 0.0
C1651 C 0.35871 0.30175 0.12643 0.0
H1652 H 0.37934 0.25948 0.08243 0.0
C1653 C 0.35861 0.23098 0.1901 0.0
C1654 C 0.35475 0.21629 0.16806 0.0
C1655 C 0.36067 0.24826 0.1761 0.0
C1656 C 0.3733 0.27115 0.09473 0.0
H1657 H 0.38719 0.36308 0.11459 0.0
H1658 H 0.37721 0.33391 0.13551 0.0
H1659 H 0.3861 0.28916 0.05887 0.0
H1660 H 0.34967 0.20841 0.114 0.0
H1661 H 0.35338 0.23848 0.0898 0.0
H1662 H 0.34637 0.28361 0.16295 0.0
C1663 C 0.37846 0.33596 0.10747 0.0
C1664 C 0.37711 0.28818 0.08116 0.0
C1665 C 0.38431 0.3527 0.09543 0.0
C1666 C 0.3527 0.21936 0.13182 0.0
C1667 C 0.3549 0.23658 0.11785 0.0
C1668 C 0.35503 0.2847 0.14018 0.0
C1669 C 0.375 0.32188 0.08378 0.0
C1670 C 0.36998 0.30372 0.09698 0.0
C1671 C 0.35906 0.25118 0.13977 0.0
C1672 C 0.36237 0.26924 0.12459 0.0
H1673 H 0.38493 0.3438 0.00759 0.0
H1674 H 0.37431 0.31468 0.02858 0.0
H1675 H 0.35274 0.31339 0.13893 0.0
H1676 H 0.36024 0.22912 0.21812 0.0
H1677 H 0.36401 0.25925 0.1936 0.0
C1678 C 0.4172 0.63066 0.81133 0.0
C1679 C 0.40288 0.63577 0.83331 0.0
C1680 C 0.43335 0.62442 0.82561 0.0
C1681 C 0.46086 0.62771 0.90488 0.0
H1682 H 0.48677 0.58739 0.8647 0.0
C1683 C 0.52929 0.60457 0.9606 0.0
C1684 C 0.5426 0.60019 0.93582 0.0
C1685 C 0.51142 0.60703 0.95016 0.0
C1686 C 0.47978 0.59877 0.87605 0.0
H1687 H 0.39425 0.63795 0.88762 0.0
H1688 H 0.42252 0.62716 0.91242 0.0
H1689 H 0.45702 0.59517 0.84224 0.0
H1690 H 0.54743 0.59469 0.8806 0.0
H1691 H 0.5165 0.59938 0.86242 0.0
H1692 H 0.48376 0.63173 0.93791 0.0
C1693 C 0.42121 0.62807 0.88415 0.0
C1694 C 0.46272 0.60319 0.86322 0.0
C1695 C 0.405 0.63417 0.86989 0.0
C1696 C 0.53755 0.59801 0.90048 0.0
C1697 C 0.51974 0.60057 0.89004 0.0
C1698 C 0.47796 0.62339 0.91754 0.0
C1699 C 0.4356 0.62328 0.86217 0.0
C1700 C 0.45318 0.61782 0.87725 0.0
C1701 C 0.50646 0.60526 0.91467 0.0
C1702 C 0.48773 0.609 0.90299 0.0
H1703 H 0.41602 0.63166 0.78306 0.0
H1704 H 0.44427 0.62098 0.80803 0.0
H1705 H 0.4539 0.6392 0.91592 0.0
H1706 H 0.53267 0.60623 0.98807 0.0
H1707 H 0.50148 0.61037 0.96991 0.0
C1708 C 0.11418 0.644 0.58825 0.0
C1709 C 0.1098 0.64079 0.55289 0.0
C1710 C 0.12147 0.66047 0.5986 0.0
C1711 C 0.12342 0.70785 0.57097 0.0
H1712 H 0.15755 0.71164 0.64766 0.0
C1713 C 0.14781 0.7765 0.62345 0.0
C1714 C 0.14694 0.77845 0.66016 0.0
C1715 C 0.14595 0.75956 0.60795 0.0
C1716 C 0.148 0.71078 0.62624 0.0
H1717 H 0.11045 0.65218 0.50042 0.0
H1718 H 0.12342 0.68085 0.51848 0.0
H1719 H 0.14984 0.68207 0.62422 0.0
H1720 H 0.14404 0.76397 0.70935 0.0
H1721 H 0.14079 0.73449 0.68226 0.0
H1722 H 0.1214 0.73655 0.57336 0.0
C1723 C 0.12087 0.67072 0.53829 0.0
C1724 C 0.14355 0.69385 0.61285 0.0
C1725 C 0.1135 0.65424 0.52793 0.0
C1726 C 0.14472 0.76299 0.68101 0.0
C1727 C 0.14298 0.74606 0.66551 0.0
C1728 C 0.12794 0.72477 0.58424 0.0
C1729 C 0.12467 0.67413 0.57384 0.0
C1730 C 0.13092 0.69216 0.58553 0.0
C1731 C 0.14334 0.74419 0.62881 0.0
C1732 C 0.14 0.72639 0.61247 0.0
H1733 H 0.11154 0.63397 0.60824 0.0
H1734 H 0.124 0.6627 0.62626 0.0
H1735 H 0.11346 0.70705 0.55027 0.0
H1736 H 0.14957 0.78809 0.60657 0.0
H1737 H 0.14645 0.7585 0.57961 0.0
C1738 C 0.08598 0.36755 0.29826 0.0
C1739 C 0.09934 0.36219 0.32219 0.0
C1740 C 0.06924 0.37352 0.3102 0.0
C1741 C 0.04441 0.38859 0.38991 0.0
H1742 H 0.00312 0.3706 0.33849 0.0
C1743 C 0.97183 0.38763 0.44551 0.0
C1744 C 0.95788 0.39255 0.42244 0.0
C1745 C 0.98947 0.38579 0.43327 0.0
C1746 C 0.0145 0.37592 0.3529 0.0
H1747 H 0.10577 0.35947 0.37752 0.0
H1748 H 0.07647 0.36942 0.39828 0.0
H1749 H 0.03326 0.36437 0.31697 0.0
H1750 H 0.95172 0.39979 0.36848 0.0
H1751 H 0.98241 0.3965 0.3473 0.0
H1752 H 0.02545 0.39969 0.42641 0.0
C1753 C 0.079 0.36933 0.37028 0.0
C1754 C 0.03181 0.37241 0.34051 0.0
C1755 C 0.0958 0.36353 0.35835 0.0
C1756 C 0.96206 0.39589 0.38701 0.0
C1757 C 0.97965 0.39394 0.37478 0.0
C1758 C 0.02705 0.39199 0.40246 0.0
C1759 C 0.0654 0.37409 0.34634 0.0
C1760 C 0.047 0.37864 0.35889 0.0
C1761 C 0.9935 0.38871 0.39768 0.0
C1762 C 0.01194 0.38563 0.38412 0.0
H1763 H 0.08833 0.36691 0.27023 0.0
H1764 H 0.05923 0.37747 0.29103 0.0
H1765 H 0.05578 0.39381 0.40447 0.0
H1766 H 0.96911 0.385 0.47297 0.0
H1767 H -0.00014 0.3816 0.45146 0.0
C1768 C 0.37997 0.64826 0.39978 0.0
C1769 C 0.38294 0.64506 0.43572 0.0
C1770 C 0.37333 0.66481 0.38826 0.0
C1771 C 0.37046 0.71229 0.41573 0.0
H1772 H 0.33948 0.71639 0.33416 0.0
C1773 C 0.34626 0.78101 0.36407 0.0
C1774 C 0.34845 0.7838 0.32777 0.0
C1775 C 0.34807 0.76382 0.37847 0.0
C1776 C 0.34817 0.71543 0.35691 0.0
H1777 H 0.38045 0.65657 0.48784 0.0
H1778 H 0.36853 0.68535 0.46775 0.0
H1779 H 0.34656 0.68669 0.35784 0.0
H1780 H 0.35362 0.77049 0.27805 0.0
H1781 H 0.35677 0.74051 0.30329 0.0
H1782 H 0.37215 0.74102 0.41464 0.0
C1783 C 0.37175 0.67516 0.44841 0.0
C1784 C 0.35227 0.69843 0.37045 0.0
C1785 C 0.3785 0.65863 0.45995 0.0
C1786 C 0.35191 0.76887 0.30611 0.0
C1787 C 0.3536 0.75165 0.32052 0.0
C1788 C 0.36627 0.72927 0.40234 0.0
C1789 C 0.36936 0.67856 0.41237 0.0
C1790 C 0.36369 0.69664 0.39972 0.0
C1791 C 0.35198 0.749 0.35692 0.0
C1792 C 0.35529 0.73101 0.3725 0.0
H1793 H 0.38325 0.63815 0.38033 0.0
H1794 H 0.37191 0.667 0.36029 0.0
H1795 H 0.37954 0.71143 0.43791 0.0
H1796 H 0.34351 0.79216 0.38158 0.0
H1797 H 0.34654 0.76215 0.40656 0.0
C1798 C 0.96701 0.60219 0.11449 0.0
C1799 C 0.9635 0.60397 0.07836 0.0
C1800 C 0.98434 0.60487 0.12765 0.0
C1801 C 0.03218 0.60626 0.10251 0.0
H1802 H 0.03699 0.63751 0.18349 0.0
C1803 C 0.09981 0.63805 0.14299 0.0
C1804 C 0.10343 0.64048 0.17891 0.0
C1805 C 0.08307 0.63171 0.13186 0.0
C1806 C 0.03591 0.62849 0.16126 0.0
H1807 H 0.97564 0.60949 0.02764 0.0
H1808 H 0.00587 0.61415 0.05071 0.0
H1809 H 0.00716 0.62973 0.16193 0.0
H1810 H 0.09247 0.63743 0.23139 0.0
H1811 H 0.06339 0.62605 0.21196 0.0
H1812 H 0.06094 0.60505 0.10174 0.0
C1813 C 0.99519 0.61062 0.06878 0.0
C1814 C 0.0188 0.62408 0.14886 0.0
C1815 C 0.97783 0.60806 0.05561 0.0
C1816 C 0.09009 0.6359 0.20349 0.0
C1817 C 0.07337 0.62945 0.19235 0.0
C1818 C 0.04932 0.61058 0.11504 0.0
C1819 C 0.99858 0.60926 0.10497 0.0
C1820 C 0.01675 0.61307 0.11915 0.0
C1821 C 0.06958 0.62752 0.15637 0.0
C1822 C 0.05139 0.62192 0.14434 0.0
H1823 H 0.95633 0.599 0.1328 0.0
H1824 H 0.9866 0.60354 0.15563 0.0
H1825 H 0.03099 0.59755 0.07983 0.0
H1826 H 0.10975 0.64146 0.12329 0.0
H1827 H 0.08055 0.63062 0.10394 0.0
C1828 C 0.14407 0.22908 0.80734 0.0
C1829 C 0.14723 0.21422 0.82936 0.0
C1830 C 0.14243 0.24637 0.82144 0.0
C1831 C 0.12974 0.26947 0.90248 0.0
H1832 H 0.15154 0.31121 0.85866 0.0
C1833 C 0.11973 0.34034 0.96002 0.0
C1834 C 0.11591 0.35407 0.93573 0.0
C1835 C 0.12611 0.32364 0.94861 0.0
C1836 C 0.14525 0.29971 0.87108 0.0
H1837 H 0.15149 0.20601 0.8835 0.0
H1838 H 0.14851 0.23613 0.9079 0.0
H1839 H 0.15757 0.28124 0.83516 0.0
H1840 H 0.11648 0.36116 0.88042 0.0
H1841 H 0.12717 0.33203 0.86059 0.0
H1842 H 0.11694 0.28782 0.93767 0.0
C1843 C 0.14722 0.23436 0.87978 0.0
C1844 C 0.14873 0.28256 0.85762 0.0
C1845 C 0.14899 0.21711 0.86571 0.0
C1846 C 0.11927 0.35092 0.89992 0.0
C1847 C 0.12553 0.3342 0.88851 0.0
C1848 C 0.12615 0.2866 0.91577 0.0
C1849 C 0.14378 0.24915 0.85784 0.0
C1850 C 0.14088 0.26729 0.87302 0.0
C1851 C 0.12873 0.32024 0.91264 0.0
C1852 C 0.13371 0.30196 0.90004 0.0
H1853 H 0.1427 0.22737 0.77924 0.0
H1854 H 0.13962 0.25751 0.80392 0.0
H1855 H 0.12331 0.25796 0.91462 0.0
H1856 H 0.11747 0.34235 0.98784 0.0
H1857 H 0.12878 0.31331 0.96798 0.0
C1858 C 0.40642 0.35592 0.63301 0.0
C1859 C 0.39986 0.36097 0.66608 0.0
C1860 C 0.42288 0.3625 0.62094 0.0
C1861 C 0.46476 0.38504 0.65289 0.0
H1862 H 0.47442 0.3872 0.55307 0.0
C1863 C 0.53707 0.39115 0.601 0.0
C1864 C 0.54021 0.39899 0.56809 0.0
C1865 C 0.51953 0.38848 0.61297 0.0
C1866 C 0.47198 0.38707 0.58107 0.0
H1867 H 0.40485 0.37744 0.71191 0.0
H1868 H 0.43301 0.38993 0.69005 0.0
H1869 H 0.4444 0.38032 0.5732 0.0
H1870 H 0.52764 0.41086 0.52236 0.0
H1871 H 0.497 0.40734 0.54406 0.0
H1872 H 0.49202 0.393 0.66076 0.0
C1873 C 0.42599 0.38022 0.67393 0.0
C1874 C 0.45471 0.3827 0.59272 0.0
C1875 C 0.40976 0.37319 0.68644 0.0
C1876 C 0.52553 0.4046 0.54772 0.0
C1877 C 0.50795 0.40243 0.56014 0.0
C1878 C 0.48189 0.38994 0.64124 0.0
C1879 C 0.43296 0.37475 0.64121 0.0
C1880 C 0.45093 0.38115 0.62881 0.0
C1881 C 0.50467 0.39407 0.59275 0.0
C1882 C 0.48592 0.39057 0.60514 0.0
H1883 H 0.39911 0.34636 0.61695 0.0
H1884 H 0.42785 0.35753 0.59607 0.0
H1885 H 0.46262 0.38386 0.68088 0.0
H1886 H 0.54819 0.38652 0.61706 0.0
H1887 H 0.51773 0.38158 0.63773 0.0
C1888 C 0.13783 0.07911 0.49836 0.0
C1889 C 0.11914 0.08175 0.50031 0.0
C1890 C 0.1481 0.07795 0.52903 0.0
C1891 C 0.14441 0.07453 0.62646 0.0
H1892 H 0.18202 0.11065 0.62579 0.0
C1893 C 0.16519 0.13563 0.7174 0.0
C1894 C 0.16535 0.12772 0.7508 0.0
C1895 C 0.16574 0.12494 0.68743 0.0
C1896 C 0.17175 0.10032 0.62637 0.0
H1897 H 0.09637 0.08423 0.53555 0.0
H1898 H 0.11419 0.08259 0.58878 0.0
H1899 H 0.17023 0.09938 0.57046 0.0
H1900 H 0.16703 0.10249 0.77927 0.0
H1901 H 0.16779 0.08369 0.72655 0.0
H1902 H 0.1447 0.0768 0.68234 0.0
C1903 C 0.12099 0.08112 0.5638 0.0
C1904 C 0.16511 0.0937 0.59466 0.0
C1905 C 0.11078 0.08232 0.53326 0.0
C1906 C 0.16675 0.10892 0.75376 0.0
C1907 C 0.16723 0.09817 0.72366 0.0
C1908 C 0.15097 0.08123 0.65818 0.0
C1909 C 0.1398 0.07933 0.56206 0.0
C1910 C 0.15057 0.08162 0.59444 0.0
C1911 C 0.16644 0.10609 0.6902 0.0
C1912 C 0.16388 0.09504 0.65828 0.0
H1913 H 0.14459 0.07845 0.47321 0.0
H1914 H 0.16256 0.0765 0.52691 0.0
H1915 H 0.13349 0.06488 0.62701 0.0
H1916 H 0.16421 0.15009 0.71433 0.0
H1917 H 0.16472 0.13147 0.66208 0.0
C1918 C 0.17366 0.85514 0.776 0.0
C1919 C 0.16399 0.86258 0.74798 0.0
C1920 C 0.17528 0.86452 0.80753 0.0
C1921 C 0.16328 0.90835 0.85137 0.0
H1922 H 0.15747 0.87707 0.93204 0.0
C1923 C 0.1177 0.91982 0.96982 0.0
C1924 C 0.12428 0.91568 0.00336 0.0
C1925 C 0.12864 0.91761 0.94044 0.0
C1926 C 0.15953 0.88601 0.90993 0.0
H1927 H 0.14887 0.88566 0.72995 0.0
H1928 H 0.15033 0.90148 0.78574 0.0
H1929 H 0.16537 0.86417 0.87592 0.0
H1930 H 0.14758 0.90686 0.03303 0.0
H1931 H 0.16651 0.90217 0.98115 0.0
H1932 H 0.15537 0.92992 0.88551 0.0
C1933 C 0.15746 0.88885 0.78333 0.0
C1934 C 0.16414 0.87865 0.87757 0.0
C1935 C 0.15638 0.87971 0.75141 0.0
C1936 C 0.14223 0.91015 0.00735 0.0
C1937 C 0.15306 0.90753 0.97785 0.0
C1938 C 0.15819 0.91565 0.88366 0.0
C1939 C 0.16665 0.88122 0.8121 0.0
C1940 C 0.1654 0.88961 0.84751 0.0
C1941 C 0.14618 0.91087 0.94417 0.0
C1942 C 0.15573 0.90441 0.91282 0.0
H1943 H 0.17996 0.84205 0.77352 0.0
H1944 H 0.18295 0.85842 0.82856 0.0
H1945 H 0.16469 0.91731 0.82914 0.0
H1946 H 0.10393 0.92421 0.9662 0.0
H1947 H 0.123 0.92001 0.91463 0.0
C1948 C 0.35966 0.9068 0.99552 0.0
C1949 C 0.37501 0.91742 0.99083 0.0
C1950 C 0.35035 0.90738 0.0273 0.0
C1951 C 0.3312 0.91035 0.09641 0.0
H1952 H 0.36499 0.91242 0.17388 0.0
C1953 C 0.33798 0.89016 0.25249 0.0
C1954 C 0.33488 0.87159 0.24927 0.0
C1955 C 0.33823 0.9011 0.22269 0.0
C1956 C 0.35525 0.91221 0.15271 0.0
H1957 H 0.39179 0.93822 0.01315 0.0
H1958 H 0.37482 0.94032 0.06775 0.0
H1959 H 0.37425 0.92274 0.1166 0.0
H1960 H 0.3286 0.85 0.21304 0.0
H1961 H 0.32888 0.86916 0.16097 0.0
H1962 H 0.31291 0.89795 0.13267 0.0
C1963 C 0.37042 0.9308 0.04804 0.0
C1964 C 0.3605 0.91823 0.11967 0.0
C1965 C 0.38009 0.92972 0.01677 0.0
C1966 C 0.33118 0.86426 0.21613 0.0
C1967 C 0.3311 0.87524 0.18646 0.0
C1968 C 0.3261 0.90393 0.12941 0.0
C1969 C 0.356 0.91896 0.0545 0.0
C1970 C 0.34882 0.91666 0.09069 0.0
C1971 C 0.33502 0.89365 0.18943 0.0
C1972 C 0.33837 0.90421 0.15739 0.0
H1973 H 0.35563 0.8972 0.97561 0.0
H1974 H 0.33951 0.89787 0.03118 0.0
H1975 H 0.32164 0.90944 0.07504 0.0
H1976 H 0.34081 0.89613 0.27783 0.0
H1977 H 0.34141 0.91525 0.22546 0.0
C1978 C 0.38093 0.06718 0.47393 0.0
C1979 C 0.37579 0.07905 0.50059 0.0
C1980 C 0.37139 0.06669 0.44244 0.0
C1981 C 0.36178 0.0804 0.37141 0.0
H1982 H 0.3144 0.10124 0.35884 0.0
C1983 C 0.33331 0.13566 0.27679 0.0
C1984 C 0.33687 0.12857 0.24339 0.0
C1985 C 0.33305 0.12441 0.30607 0.0
C1986 C 0.32753 0.09511 0.36197 0.0
H1987 H 0.35643 0.09909 0.51675 0.0
H1988 H 0.34055 0.09946 0.4609 0.0
H1989 H 0.32285 0.0889 0.41598 0.0
H1990 H 0.34233 0.1042 0.21396 0.0
H1991 H 0.34263 0.08459 0.26567 0.0
H1992 H 0.36647 0.08686 0.31754 0.0
C1993 C 0.35133 0.08983 0.46433 0.0
C1994 C 0.33248 0.08821 0.3947 0.0
C1995 C 0.3605 0.08981 0.49631 0.0
C1996 C 0.33961 0.10998 0.23952 0.0
C1997 C 0.33969 0.09877 0.26893 0.0
C1998 C 0.35668 0.08688 0.33861 0.0
C1999 C 0.35706 0.07871 0.43648 0.0
C2000 C 0.35003 0.08166 0.40032 0.0
C2001 C 0.33664 0.10597 0.30246 0.0
C2002 C 0.33986 0.09506 0.33411 0.0
H2003 H 0.39259 0.05858 0.47718 0.0
H2004 H 0.37583 0.05749 0.4222 0.0
H2005 H 0.37549 0.07574 0.37442 0.0
H2006 H 0.33101 0.14994 0.28039 0.0
H2007 H 0.33096 0.13029 0.33178 0.0
C2008 C 0.83069 0.89132 0.24491 0.0
C2009 C 0.8331 0.87267 0.24875 0.0
C2010 C 0.82928 0.90235 0.27455 0.0
C2011 C 0.82404 0.9008 0.3719 0.0
H2012 H 0.86108 0.93749 0.37134 0.0
C2013 C 0.85862 0.92165 0.49949 0.0
C2014 C 0.87731 0.91924 0.49646 0.0
C2015 C 0.84792 0.92301 0.46939 0.0
C2016 C 0.85045 0.92751 0.37188 0.0
H2017 H 0.83507 0.85081 0.28627 0.0
H2018 H 0.83293 0.8699 0.3376 0.0
H2019 H 0.85025 0.92528 0.31599 0.0
H2020 H 0.89959 0.9174 0.45993 0.0
H2021 H 0.88108 0.91946 0.40777 0.0
H2022 H 0.82563 0.90164 0.42782 0.0
C2023 C 0.83183 0.8761 0.31196 0.0
C2024 C 0.84411 0.92063 0.34013 0.0
C2025 C 0.83334 0.86516 0.2825 0.0
C2026 C 0.88521 0.91911 0.46306 0.0
C2027 C 0.87459 0.92057 0.43313 0.0
C2028 C 0.83049 0.90757 0.40364 0.0
C2029 C 0.83009 0.89485 0.30839 0.0
C2030 C 0.83179 0.90631 0.34 0.0
C2031 C 0.85579 0.92214 0.43588 0.0
C2032 C 0.84468 0.92005 0.40386 0.0
H2033 H 0.83033 0.89743 0.21911 0.0
H2034 H 0.82797 0.91676 0.27104 0.0
H2035 H 0.81417 0.89008 0.37246 0.0
H2036 H 0.85221 0.92193 0.52502 0.0
H2037 H 0.83347 0.92423 0.47228 0.0
C2038 C 0.88086 0.08155 0.02051 0.0
C2039 C 0.87358 0.08581 0.98757 0.0
C2040 C 0.86978 0.0804 0.04988 0.0
C2041 C 0.83192 0.10279 0.08466 0.0
H2042 H 0.83765 0.06915 0.16169 0.0
C2043 C 0.8167 0.12674 0.22217 0.0
C2044 C 0.82999 0.12231 0.24671 0.0
C2045 C 0.81516 0.11699 0.19107 0.0
C2046 C 0.83587 0.07869 0.14048 0.0
H2047 H 0.849 0.09149 0.95896 0.0
H2048 H 0.82961 0.09021 0.01101 0.0
H2049 H 0.84832 0.06104 0.10315 0.0
H2050 H 0.8515 0.10393 0.25969 0.0
H2051 H 0.84992 0.08766 0.20427 0.0
H2052 H 0.82132 0.12123 0.1218 0.0
C2053 C 0.84385 0.08744 0.01378 0.0
C2054 C 0.84182 0.07394 0.10695 0.0
C2055 C 0.85493 0.08826 0.98418 0.0
C2056 C 0.84115 0.10747 0.24087 0.0
C2057 C 0.84005 0.09806 0.20921 0.0
C2058 C 0.82632 0.10768 0.11819 0.0
C2059 C 0.85126 0.08377 0.04694 0.0
C2060 C 0.84061 0.08631 0.0792 0.0
C2061 C 0.82744 0.10312 0.18333 0.0
C2062 C 0.82903 0.09604 0.14691 0.0
H2063 H 0.89519 0.07943 0.02373 0.0
H2064 H 0.87587 0.07786 0.07526 0.0
H2065 H 0.83097 0.11262 0.06373 0.0
H2066 H 0.80777 0.13803 0.2267 0.0
H2067 H 0.80489 0.12091 0.17241 0.0
C2068 C 0.65548 0.11153 0.74574 0.0
C2069 C 0.66509 0.12762 0.74228 0.0
C2070 C 0.65635 0.10181 0.77707 0.0
C2071 C 0.66668 0.11021 0.8707 0.0
H2072 H 0.65086 0.06068 0.8788 0.0
C2073 C 0.64226 0.08228 0.00167 0.0
C2074 C 0.62382 0.0785 -0.00148 0.0
C2075 C 0.65301 0.0835 0.97169 0.0
C2076 C 0.65564 0.07442 0.8769 0.0
H2077 H 0.68436 0.14549 0.76662 0.0
H2078 H 0.68699 0.12793 0.82035 0.0
H2079 H 0.66065 0.07218 0.82183 0.0
H2080 H 0.60239 0.07159 0.96235 0.0
H2081 H 0.62123 0.07346 0.91004 0.0
H2082 H 0.6614 0.11244 0.92563 0.0
C2083 C 0.67796 0.12321 0.80005 0.0
C2084 C 0.66103 0.08111 0.84427 0.0
C2085 C 0.67657 0.13324 0.76926 0.0
C2086 C 0.61656 0.07469 0.96536 0.0
C2087 C 0.62736 0.07554 0.93553 0.0
C2088 C 0.66172 0.1034 0.90333 0.0
C2089 C 0.66727 0.10777 0.80505 0.0
C2090 C 0.66572 0.09937 0.84042 0.0
C2091 C 0.64551 0.08054 0.93835 0.0
C2092 C 0.65536 0.08573 0.90636 0.0
H2093 H 0.64656 0.10703 0.72503 0.0
H2094 H 0.64768 0.0902 0.77984 0.0
H2095 H 0.66992 0.12438 0.86912 0.0
H2096 H 0.64815 0.08524 0.02703 0.0
H2097 H 0.66696 0.08749 0.97435 0.0
C2098 C 0.63623 0.9101 0.50655 0.0
C2099 C 0.62005 0.91951 0.50261 0.0
C2100 C 0.64548 0.91074 0.53843 0.0
C2101 C 0.63484 0.9191 0.63177 0.0
H2102 H 0.68405 0.90281 0.64305 0.0
C2103 C 0.66001 0.89131 0.76283 0.0
C2104 C 0.66423 0.87303 0.75848 0.0
C2105 C 0.65905 0.90268 0.73368 0.0
C2106 C 0.67039 0.90769 0.64029 0.0
H2107 H 0.60161 0.93832 0.52665 0.0
H2108 H 0.61837 0.9406 0.58144 0.0
H2109 H 0.67406 0.9142 0.58611 0.0
H2110 H 0.67196 0.8525 0.72101 0.0
H2111 H 0.67053 0.87242 0.67015 0.0
H2112 H 0.63118 0.91232 0.68578 0.0
C2113 C 0.62353 0.93189 0.56101 0.0
C2114 C 0.66457 0.91403 0.60766 0.0
C2115 C 0.61396 0.93072 0.52961 0.0
C2116 C 0.66853 0.86652 0.72496 0.0
C2117 C 0.66793 0.87795 0.69598 0.0
C2118 C 0.64078 0.9132 0.66445 0.0
C2119 C 0.63891 0.9212 0.56655 0.0
C2120 C 0.64644 0.9189 0.60251 0.0
C2121 C 0.66271 0.89598 0.69998 0.0
C2122 C 0.65832 0.90663 0.66852 0.0
H2123 H 0.64107 0.90134 0.48586 0.0
H2124 H 0.65709 0.9021 0.54156 0.0
H2125 H 0.62074 0.92246 0.62914 0.0
H2126 H 0.65667 0.89664 0.78848 0.0
H2127 H 0.65488 0.91653 0.73725 0.0
C2128 C 0.63025 0.56584 0.01944 0.0
C2129 C 0.63219 0.57996 0.99543 0.0
C2130 C 0.64017 0.5658 0.05052 0.0
C2131 C 0.64689 0.57858 0.12361 0.0
H2132 H 0.68973 0.60714 0.13965 0.0
C2133 C 0.66653 0.63566 0.22397 0.0
C2134 C 0.66311 0.62756 0.25655 0.0
C2135 C 0.66848 0.62515 0.19394 0.0
C2136 C 0.6779 0.59889 0.13556 0.0
H2137 H 0.64635 0.60456 0.98329 0.0
H2138 H 0.66292 0.60527 0.03847 0.0
H2139 H 0.6835 0.59556 0.08087 0.0
H2140 H 0.65965 0.60214 0.28371 0.0
H2141 H 0.66249 0.58372 0.23066 0.0
H2142 H 0.64101 0.58242 0.17796 0.0
C2143 C 0.65442 0.59377 0.03315 0.0
C2144 C 0.67425 0.59236 0.10192 0.0
C2145 C 0.64484 0.59351 0.00162 0.0
C2146 C 0.66219 0.60871 0.25882 0.0
C2147 C 0.66389 0.59819 0.22861 0.0
C2148 C 0.65069 0.58486 0.15723 0.0
C2149 C 0.65164 0.58028 0.05864 0.0
C2150 C 0.65818 0.58296 0.09517 0.0
C2151 C 0.66684 0.60636 0.19586 0.0
C2152 C 0.66572 0.59584 0.16309 0.0
H2153 H 0.62058 0.5552 0.01475 0.0
H2154 H 0.63806 0.55494 0.06901 0.0
H2155 H 0.63428 0.57158 0.11964 0.0
H2156 H 0.66745 0.65016 0.22155 0.0
H2157 H 0.67044 0.63181 0.16891 0.0
C2158 C 0.64162 0.40816 0.49053 0.0
C2159 C 0.62673 0.41934 0.49586 0.0
C2160 C 0.65046 0.40824 0.45818 0.0
C2161 C 0.66872 0.41032 0.38789 0.0
H2162 H 0.63395 0.41321 0.31214 0.0
C2163 C 0.65929 0.38976 0.23236 0.0
C2164 C 0.66194 0.37114 0.23589 0.0
C2165 C 0.65969 0.40088 0.26194 0.0
C2166 C 0.64398 0.41278 0.3328 0.0
H2167 H 0.61035 0.44058 0.47393 0.0
H2168 H 0.62654 0.44177 0.41835 0.0
H2169 H 0.62578 0.42389 0.36984 0.0
H2170 H 0.66816 0.34962 0.27234 0.0
H2171 H 0.66911 0.36906 0.32389 0.0
H2172 H 0.68616 0.39738 0.35078 0.0
C2173 C 0.63091 0.43222 0.43804 0.0
C2174 C 0.63935 0.41899 0.36608 0.0
C2175 C 0.6217 0.43167 0.4699 0.0
C2176 C 0.66592 0.36393 0.26902 0.0
C2177 C 0.66669 0.37506 0.29839 0.0
C2178 C 0.67319 0.40374 0.35466 0.0
C2179 C 0.64479 0.41985 0.43102 0.0
C2180 C 0.65137 0.41714 0.39447 0.0
C2181 C 0.66318 0.39354 0.29522 0.0
C2182 C 0.66057 0.40432 0.32728 0.0
H2183 H 0.6456 0.39851 0.51039 0.0
H2184 H 0.66091 0.39833 0.45389 0.0
H2185 H 0.67853 0.40916 0.40877 0.0
H2186 H 0.65623 0.39563 0.20701 0.0
H2187 H 0.65682 0.41509 0.25902 0.0
C2188 C 0.8447 0.39366 0.74767 0.0
C2189 C 0.83295 0.37952 0.7554 0.0
C2190 C 0.84271 0.40325 0.71637 0.0
C2191 C 0.82499 0.39459 0.62799 0.0
H2192 H 0.84849 0.44021 0.61005 0.0
C2193 C 0.8787 0.41792 0.52645 0.0
C2194 C 0.87087 0.4137 0.49398 0.0
C2195 C 0.86805 0.41971 0.55627 0.0
C2196 C 0.84153 0.42762 0.61467 0.0
H2197 H 0.80904 0.36518 0.73925 0.0
H2198 H 0.80483 0.38256 0.68551 0.0
H2199 H 0.83929 0.43261 0.66978 0.0
H2200 H 0.84578 0.40871 0.46667 0.0
H2201 H 0.82707 0.41109 0.51962 0.0
H2202 H 0.8279 0.38934 0.57316 0.0
C2203 C 0.81605 0.38586 0.70247 0.0
C2204 C 0.83642 0.42317 0.64886 0.0
C2205 C 0.81837 0.37596 0.73323 0.0
C2206 C 0.8521 0.4119 0.49152 0.0
C2207 C 0.84143 0.41335 0.52163 0.0
C2208 C 0.82982 0.39918 0.59382 0.0
C2209 C 0.82871 0.39903 0.69274 0.0
C2210 C 0.82914 0.4061 0.65622 0.0
C2211 C 0.84939 0.41703 0.55432 0.0
C2212 C 0.83911 0.41523 0.58726 0.0
H2213 H 0.85605 0.39651 0.76465 0.0
H2214 H 0.8529 0.41309 0.70976 0.0
H2215 H 0.81952 0.38128 0.63236 0.0
H2216 H 0.89313 0.41955 0.52897 0.0
H2217 H 0.87457 0.42222 0.58124 0.0
C2218 C 0.85895 0.58041 0.0047 0.0
C2219 C 0.87774 0.58193 0.00198 0.0
C2220 C 0.84832 0.57974 0.97442 0.0
C2221 C 0.85095 0.57547 0.87693 0.0
H2222 H 0.81572 0.61391 0.87755 0.0
C2223 C 0.83335 0.63741 0.7852 0.0
C2224 C 0.83252 0.62941 0.75192 0.0
C2225 C 0.83242 0.62687 0.81535 0.0
C2226 C 0.82533 0.60295 0.87699 0.0
H2227 H 0.90024 0.58293 0.96579 0.0
H2228 H 0.88185 0.58209 0.91333 0.0
H2229 H 0.82711 0.60222 0.9329 0.0
H2230 H 0.82935 0.60421 0.72387 0.0
H2231 H 0.82792 0.58565 0.77693 0.0
H2232 H 0.85051 0.57746 0.82102 0.0
C2233 C 0.87521 0.58114 0.93858 0.0
C2234 C 0.83171 0.5961 0.90872 0.0
C2235 C 0.88577 0.5819 0.96869 0.0
C2236 C 0.83016 0.6107 0.74928 0.0
C2237 C 0.82929 0.6001 0.77957 0.0
C2238 C 0.84466 0.58241 0.8452 0.0
C2239 C 0.85635 0.58045 0.94104 0.0
C2240 C 0.84545 0.58313 0.90892 0.0
C2241 C 0.83066 0.60808 0.81291 0.0
C2242 C 0.83268 0.59703 0.84503 0.0
H2243 H 0.85244 0.58026 0.03013 0.0
H2244 H 0.83382 0.57917 0.97709 0.0
H2245 H 0.86123 0.56514 0.87638 0.0
H2246 H 0.83509 0.6518 0.78805 0.0
H2247 H 0.83393 0.63343 0.84056 0.0
C2248 C 0.34063 0.39223 0.73145 0.0
C2249 C 0.33793 0.37363 0.73518 0.0
C2250 C 0.34021 0.40344 0.76088 0.0
C2251 C 0.35605 0.41539 0.83155 0.0
H2252 H 0.32167 0.41191 0.9078 0.0
C2253 C 0.3589 0.40986 0.98894 0.0
C2254 C 0.37396 0.42078 0.99434 0.0
C2255 C 0.34992 0.41028 0.95675 0.0
C2256 C 0.33143 0.41303 0.88683 0.0
H2257 H 0.33161 0.35223 0.77185 0.0
H2258 H 0.33069 0.37182 0.82316 0.0
H2259 H 0.31379 0.40031 0.8498 0.0
H2260 H 0.39053 0.44198 0.97276 0.0
H2261 H 0.37413 0.44377 0.91746 0.0
H2262 H 0.37445 0.42623 0.8685 0.0
C2263 C 0.33314 0.37774 0.79761 0.0
C2264 C 0.32681 0.40656 0.8536 0.0
C2265 C 0.33391 0.36652 0.76837 0.0
C2266 C 0.37906 0.43323 0.96863 0.0
C2267 C 0.36972 0.43413 0.93695 0.0
C2268 C 0.36082 0.42148 0.86483 0.0
C2269 C 0.33668 0.39621 0.79423 0.0
C2270 C 0.33938 0.40705 0.82615 0.0
C2271 C 0.35563 0.42201 0.92982 0.0
C2272 C 0.34888 0.41964 0.89332 0.0
H2273 H 0.3437 0.39802 0.70604 0.0
H2274 H 0.34313 0.41763 0.75781 0.0
H2275 H 0.36603 0.41576 0.81083 0.0
H2276 H 0.35485 0.40015 0.00865 0.0
H2277 H 0.33933 0.40056 0.95236 0.0
C2278 C 0.34332 0.60249 0.76383 0.0
C2279 C 0.34062 0.62108 0.75993 0.0
C2280 C 0.3424 0.59115 0.73462 0.0
C2281 C 0.35716 0.57927 0.66279 0.0
H2282 H 0.32165 0.5832 0.58859 0.0
C2283 C 0.35806 0.58888 0.50666 0.0
C2284 C 0.37343 0.57866 0.49961 0.0
C2285 C 0.34934 0.58711 0.53892 0.0
C2286 C 0.33171 0.58192 0.60899 0.0
H2287 H 0.33381 0.64234 0.72328 0.0
H2288 H 0.33199 0.62254 0.67242 0.0
H2289 H 0.31442 0.59386 0.64756 0.0
H2290 H 0.39081 0.55734 0.51809 0.0
H2291 H 0.37489 0.55324 0.57347 0.0
H2292 H 0.37522 0.56932 0.6243 0.0
C2293 C 0.33482 0.61672 0.69792 0.0
C2294 C 0.32746 0.58784 0.64278 0.0
C2295 C 0.33613 0.62806 0.72687 0.0
C2296 C 0.3791 0.56556 0.52357 0.0
C2297 C 0.37003 0.56333 0.55529 0.0
C2298 C 0.36156 0.57373 0.62896 0.0
C2299 C 0.33832 0.59825 0.7014 0.0
C2300 C 0.34048 0.58732 0.66944 0.0
C2301 C 0.35562 0.57474 0.56423 0.0
C2302 C 0.34921 0.57588 0.60118 0.0
H2303 H 0.34675 0.59681 0.78917 0.0
H2304 H 0.34533 0.57696 0.73773 0.0
H2305 H 0.36746 0.57886 0.68292 0.0
H2306 H 0.35355 0.59906 0.48827 0.0
H2307 H 0.33848 0.59634 0.54474 0.0
C2308 C 0.1115 0.57438 0.45988 0.0
C2309 C 0.11873 0.57716 0.49346 0.0
C2310 C 0.12259 0.57505 0.4304 0.0
C2311 C 0.1589 0.60115 0.40107 0.0
H2312 H 0.15778 0.57088 0.31824 0.0
C2313 C 0.17796 0.63165 0.26979 0.0
C2314 C 0.16672 0.62695 0.24179 0.0
C2315 C 0.1783 0.62115 0.3001 0.0
C2316 C 0.15817 0.57955 0.34106 0.0
H2317 H 0.14327 0.58184 0.52296 0.0
H2318 H 0.16256 0.58373 0.47105 0.0
H2319 H 0.14612 0.5594 0.37388 0.0
H2320 H 0.14756 0.60751 0.22221 0.0
H2321 H 0.14685 0.58995 0.27608 0.0
H2322 H 0.169 0.62197 0.3685 0.0
C2323 C 0.1484 0.58071 0.46774 0.0
C2324 C 0.1517 0.57286 0.37292 0.0
C2325 C 0.13736 0.57971 0.4973 0.0
C2326 C 0.15633 0.61129 0.24371 0.0
C2327 C 0.15613 0.60113 0.27453 0.0
C2328 C 0.16492 0.608 0.36918 0.0
C2329 C 0.141 0.57881 0.43406 0.0
C2330 C 0.15149 0.58385 0.40282 0.0
C2331 C 0.16677 0.60621 0.30356 0.0
C2332 C 0.16401 0.59754 0.33839 0.0
H2333 H 0.09719 0.57226 0.45631 0.0
H2334 H 0.11657 0.5738 0.4046 0.0
H2335 H 0.15867 0.60995 0.42375 0.0
H2336 H 0.18633 0.64356 0.26835 0.0
H2337 H 0.18715 0.62517 0.32126 0.0
C2338 C 0.16282 0.36508 0.21895 0.0
C2339 C 0.16343 0.37307 0.25225 0.0
C2340 C 0.1648 0.37553 0.18888 0.0
C2341 C 0.17436 0.39897 0.12785 0.0
H2342 H 0.1401 0.43825 0.12544 0.0
C2343 C 0.14324 0.42103 -0.00209 0.0
C2344 C 0.12441 0.4198 -0.0 0.0
C2345 C 0.15357 0.42209 0.02855 0.0
C2346 C 0.14997 0.42752 0.12575 0.0
H2347 H 0.16725 0.39813 0.28047 0.0
H2348 H 0.17054 0.41653 0.22756 0.0
H2349 H 0.1493 0.42575 0.18168 0.0
H2350 H 0.10153 0.4199 0.03528 0.0
H2351 H 0.11937 0.42145 0.08837 0.0
H2352 H 0.17359 0.39948 0.07186 0.0
C2353 C 0.16852 0.40217 0.22483 0.0
C2354 C 0.15537 0.42046 0.158 0.0
C2355 C 0.16658 0.39166 0.25503 0.0
C2356 C 0.11603 0.42067 0.03291 0.0
C2357 C 0.12629 0.42184 0.06336 0.0
C2358 C 0.16885 0.40594 0.09561 0.0
C2359 C 0.16744 0.39422 0.19143 0.0
C2360 C 0.16665 0.40531 0.15918 0.0
C2361 C 0.14518 0.42209 0.06162 0.0
C2362 C 0.15564 0.41944 0.09429 0.0
H2363 H 0.16048 0.35077 0.216 0.0
H2364 H 0.16347 0.36902 0.16358 0.0
H2365 H 0.18347 0.38759 0.12811 0.0
H2366 H 0.15002 0.42053 0.97276 0.0
H2367 H 0.1681 0.4223 0.02645 0.0
loop_
_geom_bond_atom_site_label_1
_geom_bond_atom_site_label_2
_geom_bond_distance
_geom_bond_site_symmetry_2
_ccdc_geom_bond_type
Co0 O1 2.216 . S
Co0 O2 2.091 . S
Co0 O4 2.004 . S
Co0 O10 2.021 . S
Co0 O12 2.137 . S
Co0 O13 2.244 . S
O1 Co0 2.216 . S
O1 C8 1.247 . S
O2 Co0 2.091 . S
O2 C8 1.261 . S
C3 O12 1.247 . S
C3 O13 1.272 . S
O4 Co0 2.004 . S
O4 C9 1.259 . S
Co5 O6 2.061 . S
Co5 O11 2.052 . S
Co5 O13 2.135 . S
O6 Co5 2.061 . S
O6 C9 1.235 . S
C7 O10 1.238 . S
C7 O11 1.241 . S
C8 O1 1.247 . S
C8 O2 1.261 . S
C9 O4 1.259 . S
C9 O6 1.235 . S
O10 Co0 2.021 . S
O10 C7 1.238 . S
O11 Co5 2.052 . S
O11 C7 1.241 . S
O12 Co0 2.137 . S
O12 C3 1.247 . S
O13 Co0 2.244 . S
O13 C3 1.272 . S
O13 Co5 2.135 . S
Co14 O15 2.216 . S
Co14 O16 2.091 . S
Co14 O18 2.004 . S
Co14 O24 2.021 . S
Co14 O26 2.137 . S
Co14 O27 2.244 . S
O15 Co14 2.216 . S
O15 C22 1.247 . S
O16 Co14 2.091 . S
O16 C22 1.261 . S
C17 O26 1.247 . S
C17 O27 1.272 . S
O18 Co14 2.004 . S
O18 C23 1.259 . S
Co19 O20 2.061 . S
Co19 O25 2.052 . S
Co19 O27 2.135 . S
O20 Co19 2.061 . S
O20 C23 1.235 . S
C21 O24 1.238 . S
C21 O25 1.241 . S
C22 O15 1.247 . S
C22 O16 1.261 . S
C23 O18 1.259 . S
C23 O20 1.235 . S
O24 Co14 2.021 . S
O24 C21 1.238 . S
O25 Co19 2.052 . S
O25 C21 1.241 . S
O26 Co14 2.137 . S
O26 C17 1.247 . S
O27 Co14 2.244 . S
O27 C17 1.272 . S
O27 Co19 2.135 . S
Co28 O29 2.216 . S
Co28 O30 2.091 . S
Co28 O32 2.004 . S
Co28 O38 2.021 . S
Co28 O40 2.137 . S
Co28 O41 2.244 . S
O29 Co28 2.216 . S
O29 C36 1.247 . S
O30 Co28 2.091 . S
O30 C36 1.261 . S
C31 O40 1.247 . S
C31 O41 1.272 . S
O32 Co28 2.004 . S
O32 C37 1.259 . S
Co33 O34 2.061 . S
Co33 O39 2.052 . S
Co33 O41 2.135 . S
O34 Co33 2.061 . S
O34 C37 1.235 . S
C35 O38 1.238 . S
C35 O39 1.241 . S
C36 O29 1.247 . S
C36 O30 1.261 . S
C37 O32 1.259 . S
C37 O34 1.235 . S
O38 Co28 2.021 . S
O38 C35 1.238 . S
O39 Co33 2.052 . S
O39 C35 1.241 . S
O40 Co28 2.137 . S
O40 C31 1.247 . S
O41 Co28 2.244 . S
O41 C31 1.272 . S
O41 Co33 2.135 . S
Co42 O43 2.216 . S
Co42 O44 2.091 . S
Co42 O46 2.004 . S
Co42 O52 2.021 . S
Co42 O54 2.137 . S
Co42 O55 2.244 . S
O43 Co42 2.216 . S
O43 C50 1.247 . S
O44 Co42 2.091 . S
O44 C50 1.261 . S
C45 O54 1.247 . S
C45 O55 1.272 . S
O46 Co42 2.004 . S
O46 C51 1.259 . S
Co47 O48 2.061 . S
Co47 O53 2.052 . S
Co47 O55 2.135 . S
O48 Co47 2.061 . S
O48 C51 1.235 . S
C49 O52 1.238 . S
C49 O53 1.241 . S
C50 O43 1.247 . S
C50 O44 1.261 . S
C51 O46 1.259 . S
C51 O48 1.235 . S
O52 Co42 2.021 . S
O52 C49 1.238 . S
O53 Co47 2.052 . S
O53 C49 1.241 . S
O54 Co42 2.137 . S
O54 C45 1.247 . S
O55 Co42 2.244 . S
O55 C45 1.272 . S
O55 Co47 2.135 . S
Co56 O57 2.216 . S
Co56 O58 2.091 . S
Co56 O60 2.004 . S
Co56 O66 2.021 . S
Co56 O68 2.137 . S
Co56 O69 2.244 . S
O57 Co56 2.216 . S
O57 C64 1.247 . S
O58 Co56 2.091 . S
O58 C64 1.261 . S
C59 O68 1.247 . S
C59 O69 1.272 . S
O60 Co56 2.004 . S
O60 C65 1.259 . S
Co61 O62 2.061 . S
Co61 O67 2.052 . S
Co61 O69 2.135 . S
O62 Co61 2.061 . S
O62 C65 1.235 . S
C63 O66 1.238 . S
C63 O67 1.241 . S
C64 O57 1.247 . S
C64 O58 1.261 . S
C65 O60 1.259 . S
C65 O62 1.235 . S
O66 Co56 2.021 . S
O66 C63 1.238 . S
O67 Co61 2.052 . S
O67 C63 1.241 . S
O68 Co56 2.137 . S
O68 C59 1.247 . S
O69 Co56 2.244 . S
O69 C59 1.272 . S
O69 Co61 2.135 . S
Co70 O71 2.216 . S
Co70 O72 2.091 . S
Co70 O74 2.004 . S
Co70 O80 2.021 . S
Co70 O82 2.137 . S
Co70 O83 2.244 . S
O71 Co70 2.216 . S
O71 C78 1.247 . S
O72 Co70 2.091 . S
O72 C78 1.261 . S
C73 O82 1.247 . S
C73 O83 1.272 . S
O74 Co70 2.004 . S
O74 C79 1.259 . S
Co75 O76 2.061 . S
Co75 O81 2.052 . S
Co75 O83 2.135 . S
O76 Co75 2.061 . S
O76 C79 1.235 . S
C77 O80 1.238 . S
C77 O81 1.241 . S
C78 O71 1.247 . S
C78 O72 1.261 . S
C79 O74 1.259 . S
C79 O76 1.235 . S
O80 Co70 2.021 . S
O80 C77 1.238 . S
O81 Co75 2.052 . S
O81 C77 1.241 . S
O82 Co70 2.137 . S
O82 C73 1.247 . S
O83 Co70 2.244 . S
O83 C73 1.272 . S
O83 Co75 2.135 . S
Co84 O85 2.216 . S
Co84 O86 2.091 . S
Co84 O88 2.004 . S
Co84 O94 2.021 . S
Co84 O96 2.137 . S
Co84 O97 2.244 . S
O85 Co84 2.216 . S
O85 C92 1.247 . S
O86 Co84 2.091 . S
O86 C92 1.261 . S
C87 O96 1.247 . S
C87 O97 1.272 . S
O88 Co84 2.004 . S
O88 C93 1.259 . S
Co89 O90 2.061 . S
Co89 O95 2.052 . S
Co89 O97 2.135 . S
O90 Co89 2.061 . S
O90 C93 1.235 . S
C91 O94 1.238 . S
C91 O95 1.241 . S
C92 O85 1.247 . S
C92 O86 1.261 . S
C93 O88 1.259 . S
C93 O90 1.235 . S
O94 Co84 2.021 . S
O94 C91 1.238 . S
O95 Co89 2.052 . S
O95 C91 1.241 . S
O96 Co84 2.137 . S
O96 C87 1.247 . S
O97 Co84 2.244 . S
O97 C87 1.272 . S
O97 Co89 2.135 . S
Co98 O99 2.216 . S
Co98 O100 2.091 . S
Co98 O102 2.004 . S
Co98 O108 2.021 . S
Co98 O110 2.137 . S
Co98 O111 2.244 . S
O99 Co98 2.216 . S
O99 C106 1.247 . S
O100 Co98 2.091 . S
O100 C106 1.261 . S
C101 O110 1.247 . S
C101 O111 1.272 . S
O102 Co98 2.004 . S
O102 C107 1.259 . S
Co103 O104 2.061 . S
Co103 O109 2.052 . S
Co103 O111 2.135 . S
O104 Co103 2.061 . S
O104 C107 1.235 . S
C105 O108 1.238 . S
C105 O109 1.241 . S
C106 O99 1.247 . S
C106 O100 1.261 . S
C107 O102 1.259 . S
C107 O104 1.235 . S
O108 Co98 2.021 . S
O108 C105 1.238 . S
O109 Co103 2.052 . S
O109 C105 1.241 . S
O110 Co98 2.137 . S
O110 C101 1.247 . S
O111 Co98 2.244 . S
O111 C101 1.272 . S
O111 Co103 2.135 . S
Co112 O113 2.216 . S
Co112 O114 2.091 . S
Co112 O116 2.004 . S
Co112 O122 2.021 . S
Co112 O124 2.137 . S
Co112 O125 2.244 . S
O113 Co112 2.216 . S
O113 C120 1.247 . S
O114 Co112 2.091 . S
O114 C120 1.261 . S
C115 O124 1.247 . S
C115 O125 1.272 . S
O116 Co112 2.004 . S
O116 C121 1.259 . S
Co117 O118 2.061 . S
Co117 O123 2.052 . S
Co117 O125 2.135 . S
O118 Co117 2.061 . S
O118 C121 1.235 . S
C119 O122 1.238 . S
C119 O123 1.241 . S
C120 O113 1.247 . S
C120 O114 1.261 . S
C121 O116 1.259 . S
C121 O118 1.235 . S
O122 Co112 2.021 . S
O122 C119 1.238 . S
O123 Co117 2.052 . S
O123 C119 1.241 . S
O124 Co112 2.137 . S
O124 C115 1.247 . S
O125 Co112 2.244 . S
O125 C115 1.272 . S
O125 Co117 2.135 . S
Co126 O127 2.216 . S
Co126 O128 2.091 . S
Co126 O130 2.004 . S
Co126 O136 2.021 . S
Co126 O138 2.137 . S
Co126 O139 2.244 . S
O127 Co126 2.216 . S
O127 C134 1.247 . S
O128 Co126 2.091 . S
O128 C134 1.261 . S
C129 O138 1.247 . S
C129 O139 1.272 . S
O130 Co126 2.004 . S
O130 C135 1.259 . S
Co131 O132 2.061 . S
Co131 O137 2.052 . S
Co131 O139 2.135 . S
O132 Co131 2.061 . S
O132 C135 1.235 . S
C133 O136 1.238 . S
C133 O137 1.241 . S
C134 O127 1.247 . S
C134 O128 1.261 . S
C135 O130 1.259 . S
C135 O132 1.235 . S
O136 Co126 2.021 . S
O136 C133 1.238 . S
O137 Co131 2.052 . S
O137 C133 1.241 . S
O138 Co126 2.137 . S
O138 C129 1.247 . S
O139 Co126 2.244 . S
O139 C129 1.272 . S
O139 Co131 2.135 . S
Co140 O141 2.216 . S
Co140 O142 2.091 . S
Co140 O144 2.004 . S
Co140 O150 2.021 . S
Co140 O152 2.137 . S
Co140 O153 2.244 . S
O141 Co140 2.216 . S
O141 C148 1.247 . S
O142 Co140 2.091 . S
O142 C148 1.261 . S
C143 O152 1.247 . S
C143 O153 1.272 . S
O144 Co140 2.004 . S
O144 C149 1.259 . S
Co145 O146 2.061 . S
Co145 O151 2.052 . S
Co145 O153 2.135 . S
O146 Co145 2.061 . S
O146 C149 1.235 . S
C147 O150 1.238 . S
C147 O151 1.241 . S
C148 O141 1.247 . S
C148 O142 1.261 . S
C149 O144 1.259 . S
C149 O146 1.235 . S
O150 Co140 2.021 . S
O150 C147 1.238 . S
O151 Co145 2.052 . S
O151 C147 1.241 . S
O152 Co140 2.137 . S
O152 C143 1.247 . S
O153 Co140 2.244 . S
O153 C143 1.272 . S
O153 Co145 2.135 . S
Co154 O155 2.216 . S
Co154 O156 2.091 . S
Co154 O158 2.004 . S
Co154 O164 2.021 . S
Co154 O166 2.137 . S
Co154 O167 2.244 . S
O155 Co154 2.216 . S
O155 C162 1.247 . S
O156 Co154 2.091 . S
O156 C162 1.261 . S
C157 O166 1.247 . S
C157 O167 1.272 . S
O158 Co154 2.004 . S
O158 C163 1.259 . S
Co159 O160 2.061 . S
Co159 O165 2.052 . S
Co159 O167 2.135 . S
O160 Co159 2.061 . S
O160 C163 1.235 . S
C161 O164 1.238 . S
C161 O165 1.241 . S
C162 O155 1.247 . S
C162 O156 1.261 . S
C163 O158 1.259 . S
C163 O160 1.235 . S
O164 Co154 2.021 . S
O164 C161 1.238 . S
O165 Co159 2.052 . S
O165 C161 1.241 . S
O166 Co154 2.137 . S
O166 C157 1.247 . S
O167 Co154 2.244 . S
O167 C157 1.272 . S
O167 Co159 2.135 . S
Co168 O169 2.216 . S
Co168 O170 2.091 . S
Co168 O172 2.004 . S
Co168 O178 2.021 . S
Co168 O180 2.137 . S
Co168 O181 2.244 . S
O169 Co168 2.216 . S
O169 C176 1.247 . S
O170 Co168 2.091 . S
O170 C176 1.261 . S
C171 O180 1.247 . S
C171 O181 1.272 . S
O172 Co168 2.004 . S
O172 C177 1.259 . S
Co173 O174 2.061 . S
Co173 O179 2.052 . S
Co173 O181 2.135 . S
O174 Co173 2.061 . S
O174 C177 1.235 . S
C175 O178 1.238 . S
C175 O179 1.241 . S
C176 O169 1.247 . S
C176 O170 1.261 . S
C177 O172 1.259 . S
C177 O174 1.235 . S
O178 Co168 2.021 . S
O178 C175 1.238 . S
O179 Co173 2.052 . S
O179 C175 1.241 . S
O180 Co168 2.137 . S
O180 C171 1.247 . S
O181 Co168 2.244 . S
O181 C171 1.272 . S
O181 Co173 2.135 . S
Co182 O183 2.216 . S
Co182 O184 2.091 . S
Co182 O186 2.004 . S
Co182 O192 2.021 . S
Co182 O194 2.137 . S
Co182 O195 2.244 . S
O183 Co182 2.216 . S
O183 C190 1.247 . S
O184 Co182 2.091 . S
O184 C190 1.261 . S
C185 O194 1.247 . S
C185 O195 1.272 . S
O186 Co182 2.004 . S
O186 C191 1.259 . S
Co187 O188 2.061 . S
Co187 O193 2.052 . S
Co187 O195 2.135 . S
O188 Co187 2.061 . S
O188 C191 1.235 . S
C189 O192 1.238 . S
C189 O193 1.241 . S
C190 O183 1.247 . S
C190 O184 1.261 . S
C191 O186 1.259 . S
C191 O188 1.235 . S
O192 Co182 2.021 . S
O192 C189 1.238 . S
O193 Co187 2.052 . S
O193 C189 1.241 . S
O194 Co182 2.137 . S
O194 C185 1.247 . S
O195 Co182 2.244 . S
O195 C185 1.272 . S
O195 Co187 2.135 . S
Co196 O197 2.216 . S
Co196 O198 2.091 . S
Co196 O200 2.004 . S
Co196 O206 2.021 . S
Co196 O208 2.137 . S
Co196 O209 2.244 . S
O197 Co196 2.216 . S
O197 C204 1.247 . S
O198 Co196 2.091 . S
O198 C204 1.261 . S
C199 O208 1.247 . S
C199 O209 1.272 . S
O200 Co196 2.004 . S
O200 C205 1.259 . S
Co201 O202 2.061 . S
Co201 O207 2.052 . S
Co201 O209 2.135 . S
O202 Co201 2.061 . S
O202 C205 1.235 . S
C203 O206 1.238 . S
C203 O207 1.241 . S
C204 O197 1.247 . S
C204 O198 1.261 . S
C205 O200 1.259 . S
C205 O202 1.235 . S
O206 Co196 2.021 . S
O206 C203 1.238 . S
O207 Co201 2.052 . S
O207 C203 1.241 . S
O208 Co196 2.137 . S
O208 C199 1.247 . S
O209 Co196 2.244 . S
O209 C199 1.272 . S
O209 Co201 2.135 . S
Co210 O211 2.216 . S
Co210 O212 2.091 . S
Co210 O214 2.004 . S
Co210 O220 2.021 . S
Co210 O222 2.137 . S
Co210 O223 2.244 . S
O211 Co210 2.216 . S
O211 C218 1.247 . S
O212 Co210 2.091 . S
O212 C218 1.261 . S
C213 O222 1.247 . S
C213 O223 1.272 . S
O214 Co210 2.004 . S
O214 C219 1.259 . S
Co215 O216 2.061 . S
Co215 O221 2.052 . S
Co215 O223 2.135 . S
O216 Co215 2.061 . S
O216 C219 1.235 . S
C217 O220 1.238 . S
C217 O221 1.241 . S
C218 O211 1.247 . S
C218 O212 1.261 . S
C219 O214 1.259 . S
C219 O216 1.235 . S
O220 Co210 2.021 . S
O220 C217 1.238 . S
O221 Co215 2.052 . S
O221 C217 1.241 . S
O222 Co210 2.137 . S
O222 C213 1.247 . S
O223 Co210 2.244 . S
O223 C213 1.272 . S
O223 Co215 2.135 . S
Co224 O225 2.216 . S
Co224 O226 2.091 . S
Co224 O228 2.004 . S
Co224 O234 2.021 . S
Co224 O236 2.137 . S
Co224 O237 2.244 . S
O225 Co224 2.216 . S
O225 C232 1.247 . S
O226 Co224 2.091 . S
O226 C232 1.261 . S
C227 O236 1.247 . S
C227 O237 1.272 . S
O228 Co224 2.004 . S
O228 C233 1.259 . S
Co229 O230 2.061 . S
Co229 O235 2.052 . S
Co229 O237 2.135 . S
O230 Co229 2.061 . S
O230 C233 1.235 . S
C231 O234 1.238 . S
C231 O235 1.241 . S
C232 O225 1.247 . S
C232 O226 1.261 . S
C233 O228 1.259 . S
C233 O230 1.235 . S
O234 Co224 2.021 . S
O234 C231 1.238 . S
O235 Co229 2.052 . S
O235 C231 1.241 . S
O236 Co224 2.137 . S
O236 C227 1.247 . S
O237 Co224 2.244 . S
O237 C227 1.272 . S
O237 Co229 2.135 . S
Co238 O239 2.216 . S
Co238 O240 2.091 . S
Co238 O242 2.004 . S
Co238 O248 2.021 . S
Co238 O250 2.137 . S
Co238 O251 2.244 . S
O239 Co238 2.216 . S
O239 C246 1.247 . S
O240 Co238 2.091 . S
O240 C246 1.261 . S
C241 O250 1.247 . S
C241 O251 1.272 . S
O242 Co238 2.004 . S
O242 C247 1.259 . S
Co243 O244 2.061 . S
Co243 O249 2.052 . S
Co243 O251 2.135 . S
O244 Co243 2.061 . S
O244 C247 1.235 . S
C245 O248 1.238 . S
C245 O249 1.241 . S
C246 O239 1.247 . S
C246 O240 1.261 . S
C247 O242 1.259 . S
C247 O244 1.235 . S
O248 Co238 2.021 . S
O248 C245 1.238 . S
O249 Co243 2.052 . S
O249 C245 1.241 . S
O250 Co238 2.137 . S
O250 C241 1.247 . S
O251 Co238 2.244 . S
O251 C241 1.272 . S
O251 Co243 2.135 . S
Co252 O253 2.216 . S
Co252 O254 2.091 . S
Co252 O256 2.004 . S
Co252 O262 2.021 . S
Co252 O264 2.137 . S
Co252 O265 2.244 . S
O253 Co252 2.216 . S
O253 C260 1.247 . S
O254 Co252 2.091 . S
O254 C260 1.261 . S
C255 O264 1.247 . S
C255 O265 1.272 . S
O256 Co252 2.004 . S
O256 C261 1.259 . S
Co257 O258 2.061 . S
Co257 O263 2.052 . S
Co257 O265 2.135 . S
O258 Co257 2.061 . S
O258 C261 1.235 . S
C259 O262 1.238 . S
C259 O263 1.241 . S
C260 O253 1.247 . S
C260 O254 1.261 . S
C261 O256 1.259 . S
C261 O258 1.235 . S
O262 Co252 2.021 . S
O262 C259 1.238 . S
O263 Co257 2.052 . S
O263 C259 1.241 . S
O264 Co252 2.137 . S
O264 C255 1.247 . S
O265 Co252 2.244 . S
O265 C255 1.272 . S
O265 Co257 2.135 . S
Co266 O267 2.216 . S
Co266 O268 2.091 . S
Co266 O270 2.004 . S
Co266 O276 2.021 . S
Co266 O278 2.137 . S
Co266 O279 2.244 . S
O267 Co266 2.216 . S
O267 C274 1.247 . S
O268 Co266 2.091 . S
O268 C274 1.261 . S
C269 O278 1.247 . S
C269 O279 1.272 . S
O270 Co266 2.004 . S
O270 C275 1.259 . S
Co271 O272 2.061 . S
Co271 O277 2.052 . S
Co271 O279 2.135 . S
O272 Co271 2.061 . S
O272 C275 1.235 . S
C273 O276 1.238 . S
C273 O277 1.241 . S
C274 O267 1.247 . S
C274 O268 1.261 . S
C275 O270 1.259 . S
C275 O272 1.235 . S
O276 Co266 2.021 . S
O276 C273 1.238 . S
O277 Co271 2.052 . S
O277 C273 1.241 . S
O278 Co266 2.137 . S
O278 C269 1.247 . S
O279 Co266 2.244 . S
O279 C269 1.272 . S
O279 Co271 2.135 . S
Co280 O281 2.216 . S
Co280 O282 2.091 . S
Co280 O284 2.004 . S
Co280 O290 2.021 . S
Co280 O292 2.137 . S
Co280 O293 2.244 . S
O281 Co280 2.216 . S
O281 C288 1.247 . S
O282 Co280 2.091 . S
O282 C288 1.261 . S
C283 O292 1.247 . S
C283 O293 1.272 . S
O284 Co280 2.004 . S
O284 C289 1.259 . S
Co285 O286 2.061 . S
Co285 O291 2.052 . S
Co285 O293 2.135 . S
O286 Co285 2.061 . S
O286 C289 1.235 . S
C287 O290 1.238 . S
C287 O291 1.241 . S
C288 O281 1.247 . S
C288 O282 1.261 . S
C289 O284 1.259 . S
C289 O286 1.235 . S
O290 Co280 2.021 . S
O290 C287 1.238 . S
O291 Co285 2.052 . S
O291 C287 1.241 . S
O292 Co280 2.137 . S
O292 C283 1.247 . S
O293 Co280 2.244 . S
O293 C283 1.272 . S
O293 Co285 2.135 . S
Co294 O295 2.216 . S
Co294 O296 2.091 . S
Co294 O298 2.004 . S
Co294 O304 2.021 . S
Co294 O306 2.137 . S
Co294 O307 2.244 . S
O295 Co294 2.216 . S
O295 C302 1.247 . S
O296 Co294 2.091 . S
O296 C302 1.261 . S
C297 O306 1.247 . S
C297 O307 1.272 . S
O298 Co294 2.004 . S
O298 C303 1.259 . S
Co299 O300 2.061 . S
Co299 O305 2.052 . S
Co299 O307 2.135 . S
O300 Co299 2.061 . S
O300 C303 1.235 . S
C301 O304 1.238 . S
C301 O305 1.241 . S
C302 O295 1.247 . S
C302 O296 1.261 . S
C303 O298 1.259 . S
C303 O300 1.235 . S
O304 Co294 2.021 . S
O304 C301 1.238 . S
O305 Co299 2.052 . S
O305 C301 1.241 . S
O306 Co294 2.137 . S
O306 C297 1.247 . S
O307 Co294 2.244 . S
O307 C297 1.272 . S
O307 Co299 2.135 . S
Co308 O309 2.216 . S
Co308 O310 2.091 . S
Co308 O312 2.004 . S
Co308 O318 2.021 . S
Co308 O320 2.137 . S
Co308 O321 2.244 . S
O309 Co308 2.216 . S
O309 C316 1.247 . S
O310 Co308 2.091 . S
O310 C316 1.261 . S
C311 O320 1.247 . S
C311 O321 1.272 . S
O312 Co308 2.004 . S
O312 C317 1.259 . S
Co313 O314 2.061 . S
Co313 O319 2.052 . S
Co313 O321 2.135 . S
O314 Co313 2.061 . S
O314 C317 1.235 . S
C315 O318 1.238 . S
C315 O319 1.241 . S
C316 O309 1.247 . S
C316 O310 1.261 . S
C317 O312 1.259 . S
C317 O314 1.235 . S
O318 Co308 2.021 . S
O318 C315 1.238 . S
O319 Co313 2.052 . S
O319 C315 1.241 . S
O320 Co308 2.137 . S
O320 C311 1.247 . S
O321 Co308 2.244 . S
O321 C311 1.272 . S
O321 Co313 2.135 . S
Co322 O323 2.216 . S
Co322 O324 2.091 . S
Co322 O326 2.004 . S
Co322 O332 2.021 . S
Co322 O334 2.137 . S
Co322 O335 2.244 . S
O323 Co322 2.216 . S
O323 C330 1.247 . S
O324 Co322 2.091 . S
O324 C330 1.261 . S
C325 O334 1.247 . S
C325 O335 1.272 . S
O326 Co322 2.004 . S
O326 C331 1.259 . S
Co327 O328 2.061 . S
Co327 O333 2.052 . S
Co327 O335 2.135 . S
O328 Co327 2.061 . S
O328 C331 1.235 . S
C329 O332 1.238 . S
C329 O333 1.241 . S
C330 O323 1.247 . S
C330 O324 1.261 . S
C331 O326 1.259 . S
C331 O328 1.235 . S
O332 Co322 2.021 . S
O332 C329 1.238 . S
O333 Co327 2.052 . S
O333 C329 1.241 . S
O334 Co322 2.137 . S
O334 C325 1.247 . S
O335 Co322 2.244 . S
O335 C325 1.272 . S
O335 Co327 2.135 . S
Co336 O337 2.216 . S
Co336 O338 2.091 . S
Co336 O340 2.004 . S
Co336 O346 2.021 . S
Co336 O348 2.137 . S
Co336 O349 2.244 . S
O337 Co336 2.216 . S
O337 C344 1.247 . S
O338 Co336 2.091 . S
O338 C344 1.261 . S
C339 O348 1.247 . S
C339 O349 1.272 . S
O340 Co336 2.004 . S
O340 C345 1.259 . S
Co341 O342 2.061 . S
Co341 O347 2.052 . S
Co341 O349 2.135 . S
O342 Co341 2.061 . S
O342 C345 1.235 . S
C343 O346 1.238 . S
C343 O347 1.241 . S
C344 O337 1.247 . S
C344 O338 1.261 . S
C345 O340 1.259 . S
C345 O342 1.235 . S
O346 Co336 2.021 . S
O346 C343 1.238 . S
O347 Co341 2.052 . S
O347 C343 1.241 . S
O348 Co336 2.137 . S
O348 C339 1.247 . S
O349 Co336 2.244 . S
O349 C339 1.272 . S
O349 Co341 2.135 . S
Co350 O351 2.216 . S
Co350 O352 2.091 . S
Co350 O354 2.004 . S
Co350 O360 2.021 . S
Co350 O362 2.137 . S
Co350 O363 2.244 . S
O351 Co350 2.216 . S
O351 C358 1.247 . S
O352 Co350 2.091 . S
O352 C358 1.261 . S
C353 O362 1.247 . S
C353 O363 1.272 . S
O354 Co350 2.004 . S
O354 C359 1.259 . S
Co355 O356 2.061 . S
Co355 O361 2.052 . S
Co355 O363 2.135 . S
O356 Co355 2.061 . S
O356 C359 1.235 . S
C357 O360 1.238 . S
C357 O361 1.241 . S
C358 O351 1.247 . S
C358 O352 1.261 . S
C359 O354 1.259 . S
C359 O356 1.235 . S
O360 Co350 2.021 . S
O360 C357 1.238 . S
O361 Co355 2.052 . S
O361 C357 1.241 . S
O362 Co350 2.137 . S
O362 C353 1.247 . S
O363 Co350 2.244 . S
O363 C353 1.272 . S
O363 Co355 2.135 . S
Co364 O365 2.216 . S
Co364 O366 2.091 . S
Co364 O368 2.004 . S
Co364 O374 2.021 . S
Co364 O376 2.137 . S
Co364 O377 2.244 . S
O365 Co364 2.216 . S
O365 C372 1.247 . S
O366 Co364 2.091 . S
O366 C372 1.261 . S
C367 O376 1.247 . S
C367 O377 1.272 . S
O368 Co364 2.004 . S
O368 C373 1.259 . S
Co369 O370 2.061 . S
Co369 O375 2.052 . S
Co369 O377 2.135 . S
O370 Co369 2.061 . S
O370 C373 1.235 . S
C371 O374 1.238 . S
C371 O375 1.241 . S
C372 O365 1.247 . S
C372 O366 1.261 . S
C373 O368 1.259 . S
C373 O370 1.235 . S
O374 Co364 2.021 . S
O374 C371 1.238 . S
O375 Co369 2.052 . S
O375 C371 1.241 . S
O376 Co364 2.137 . S
O376 C367 1.247 . S
O377 Co364 2.244 . S
O377 C367 1.272 . S
O377 Co369 2.135 . S
Co378 O379 2.216 . S
Co378 O380 2.091 . S
Co378 O382 2.004 . S
Co378 O388 2.021 . S
Co378 O390 2.137 . S
Co378 O391 2.244 . S
O379 Co378 2.216 . S
O379 C386 1.247 . S
O380 Co378 2.091 . S
O380 C386 1.261 . S
C381 O390 1.247 . S
C381 O391 1.272 . S
O382 Co378 2.004 . S
O382 C387 1.259 . S
Co383 O384 2.061 . S
Co383 O389 2.052 . S
Co383 O391 2.135 . S
O384 Co383 2.061 . S
O384 C387 1.235 . S
C385 O388 1.238 . S
C385 O389 1.241 . S
C386 O379 1.247 . S
C386 O380 1.261 . S
C387 O382 1.259 . S
C387 O384 1.235 . S
O388 Co378 2.021 . S
O388 C385 1.238 . S
O389 Co383 2.052 . S
O389 C385 1.241 . S
O390 Co378 2.137 . S
O390 C381 1.247 . S
O391 Co378 2.244 . S
O391 C381 1.272 . S
O391 Co383 2.135 . S
Co392 O393 2.216 . S
Co392 O394 2.091 . S
Co392 O396 2.004 . S
Co392 O402 2.021 . S
Co392 O404 2.137 . S
Co392 O405 2.244 . S
O393 Co392 2.216 . S
O393 C400 1.247 . S
O394 Co392 2.091 . S
O394 C400 1.261 . S
C395 O404 1.247 . S
C395 O405 1.272 . S
O396 Co392 2.004 . S
O396 C401 1.259 . S
Co397 O398 2.061 . S
Co397 O403 2.052 . S
Co397 O405 2.135 . S
O398 Co397 2.061 . S
O398 C401 1.235 . S
C399 O402 1.238 . S
C399 O403 1.241 . S
C400 O393 1.247 . S
C400 O394 1.261 . S
C401 O396 1.259 . S
C401 O398 1.235 . S
O402 Co392 2.021 . S
O402 C399 1.238 . S
O403 Co397 2.052 . S
O403 C399 1.241 . S
O404 Co392 2.137 . S
O404 C395 1.247 . S
O405 Co392 2.244 . S
O405 C395 1.272 . S
O405 Co397 2.135 . S
Co406 O407 2.216 . S
Co406 O408 2.091 . S
Co406 O410 2.004 . S
Co406 O416 2.021 . S
Co406 O418 2.137 . S
Co406 O419 2.244 . S
O407 Co406 2.216 . S
O407 C414 1.247 . S
O408 Co406 2.091 . S
O408 C414 1.261 . S
C409 O418 1.247 . S
C409 O419 1.272 . S
O410 Co406 2.004 . S
O410 C415 1.259 . S
Co411 O412 2.061 . S
Co411 O417 2.052 . S
Co411 O419 2.135 . S
O412 Co411 2.061 . S
O412 C415 1.235 . S
C413 O416 1.238 . S
C413 O417 1.241 . S
C414 O407 1.247 . S
C414 O408 1.261 . S
C415 O410 1.259 . S
C415 O412 1.235 . S
O416 Co406 2.021 . S
O416 C413 1.238 . S
O417 Co411 2.052 . S
O417 C413 1.241 . S
O418 Co406 2.137 . S
O418 C409 1.247 . S
O419 Co406 2.244 . S
O419 C409 1.272 . S
O419 Co411 2.135 . S
Co420 O421 2.216 . S
Co420 O422 2.091 . S
Co420 O424 2.004 . S
Co420 O430 2.021 . S
Co420 O432 2.137 . S
Co420 O433 2.244 . S
O421 Co420 2.216 . S
O421 C428 1.247 . S
O422 Co420 2.091 . S
O422 C428 1.261 . S
C423 O432 1.247 . S
C423 O433 1.272 . S
O424 Co420 2.004 . S
O424 C429 1.259 . S
Co425 O426 2.061 . S
Co425 O431 2.052 . S
Co425 O433 2.135 . S
O426 Co425 2.061 . S
O426 C429 1.235 . S
C427 O430 1.238 . S
C427 O431 1.241 . S
C428 O421 1.247 . S
C428 O422 1.261 . S
C429 O424 1.259 . S
C429 O426 1.235 . S
O430 Co420 2.021 . S
O430 C427 1.238 . S
O431 Co425 2.052 . S
O431 C427 1.241 . S
O432 Co420 2.137 . S
O432 C423 1.247 . S
O433 Co420 2.244 . S
O433 C423 1.272 . S
O433 Co425 2.135 . S
Co434 O435 2.216 . S
Co434 O436 2.091 . S
Co434 O438 2.004 . S
Co434 O444 2.021 . S
Co434 O446 2.137 . S
Co434 O447 2.244 . S
O435 Co434 2.216 . S
O435 C442 1.247 . S
O436 Co434 2.091 . S
O436 C442 1.261 . S
C437 O446 1.247 . S
C437 O447 1.272 . S
O438 Co434 2.004 . S
O438 C443 1.259 . S
Co439 O440 2.061 . S
Co439 O445 2.052 . S
Co439 O447 2.135 . S
O440 Co439 2.061 . S
O440 C443 1.235 . S
C441 O444 1.238 . S
C441 O445 1.241 . S
C442 O435 1.247 . S
C442 O436 1.261 . S
C443 O438 1.259 . S
C443 O440 1.235 . S
O444 Co434 2.021 . S
O444 C441 1.238 . S
O445 Co439 2.052 . S
O445 C441 1.241 . S
O446 Co434 2.137 . S
O446 C437 1.247 . S
O447 Co434 2.244 . S
O447 C437 1.272 . S
O447 Co439 2.135 . S
C448 C449 1.349 . S
C448 C450 1.327 . S
C448 H473 0.950 . S
C449 C448 1.349 . S
C449 C465 1.349 . S
C450 C448 1.327 . S
C450 C469 1.429 . S
C450 H474 0.950 . S
C451 C468 1.574 . S
C451 C470 1.368 . S
C451 H475 0.949 . S
H452 C456 0.949 . S
C453 C454 1.349 . S
C453 C455 1.327 . S
C453 H476 0.950 . S
C454 C453 1.349 . S
C454 C466 1.349 . S
C455 C453 1.327 . S
C455 C471 1.429 . S
C455 H477 0.950 . S
C456 H452 0.949 . S
C456 C464 1.574 . S
C456 C472 1.368 . S
H457 C465 0.950 . S
H458 C463 0.950 . S
H459 C464 0.949 . S
H460 C466 0.950 . S
H461 C467 0.950 . S
H462 C468 0.949 . S
C463 H458 0.950 . S
C463 C465 1.327 . S
C463 C469 1.429 . S
C464 C456 1.574 . S
C464 H459 0.949 . S
C464 C470 1.368 1_565 S
C465 C449 1.349 . S
C465 H457 0.950 . S
C465 C463 1.327 . S
C466 C454 1.349 . S
C466 H460 0.950 . S
C466 C467 1.327 . S
C467 H461 0.950 . S
C467 C466 1.327 . S
C467 C471 1.429 . S
C468 C451 1.574 . S
C468 H462 0.949 . S
C468 C472 1.368 1_545 S
C469 C450 1.429 . S
C469 C463 1.429 . S
C469 C470 1.523 . S
C470 C451 1.368 . S
C470 C464 1.368 1_545 S
C470 C469 1.523 . S
C471 C455 1.429 . S
C471 C467 1.429 . S
C471 C472 1.523 . S
C472 C456 1.368 . S
C472 C468 1.368 1_565 S
C472 C471 1.523 . S
H473 C448 0.950 . S
H474 C450 0.950 . S
H475 C451 0.949 . S
H476 C453 0.950 . S
H477 C455 0.950 . S
C478 C479 1.349 . S
C478 C480 1.327 . S
C478 H503 0.950 . S
C479 C478 1.349 . S
C479 C495 1.349 . S
C480 C478 1.327 . S
C480 C499 1.429 . S
C480 H504 0.950 . S
C481 C498 1.574 . S
C481 C500 1.368 . S
C481 H505 0.949 . S
H482 C486 0.949 . S
C483 C484 1.349 . S
C483 C485 1.327 . S
C483 H506 0.950 . S
C484 C483 1.349 . S
C484 C496 1.349 . S
C485 C483 1.327 . S
C485 C501 1.429 . S
C485 H507 0.950 . S
C486 H482 0.949 . S
C486 C494 1.574 . S
C486 C502 1.368 . S
H487 C495 0.950 . S
H488 C493 0.950 . S
H489 C494 0.949 . S
H490 C496 0.950 . S
H491 C497 0.950 . S
H492 C498 0.949 . S
C493 H488 0.950 . S
C493 C495 1.327 . S
C493 C499 1.429 . S
C494 C486 1.574 . S
C494 H489 0.949 . S
C494 C500 1.368 . S
C495 C479 1.349 . S
C495 H487 0.950 . S
C495 C493 1.327 . S
C496 C484 1.349 . S
C496 H490 0.950 . S
C496 C497 1.327 . S
C497 H491 0.950 . S
C497 C496 1.327 . S
C497 C501 1.429 . S
C498 C481 1.574 . S
C498 H492 0.949 . S
C498 C502 1.368 . S
C499 C480 1.429 . S
C499 C493 1.429 . S
C499 C500 1.523 . S
C500 C481 1.368 . S
C500 C494 1.368 . S
C500 C499 1.523 . S
C501 C485 1.429 . S
C501 C497 1.429 . S
C501 C502 1.523 . S
C502 C486 1.368 . S
C502 C498 1.368 . S
C502 C501 1.523 . S
H503 C478 0.950 . S
H504 C480 0.950 . S
H505 C481 0.949 . S
H506 C483 0.950 . S
H507 C485 0.950 . S
C508 C509 1.349 . S
C508 C510 1.327 . S
C508 H533 0.950 . S
C509 C508 1.349 . S
C509 C525 1.349 . S
C510 C508 1.327 . S
C510 C529 1.429 . S
C510 H534 0.950 . S
C511 C528 1.574 1_545 S
C511 C530 1.368 . S
C511 H535 0.949 . S
H512 C516 0.949 . S
C513 C514 1.349 . S
C513 C515 1.327 . S
C513 H536 0.950 . S
C514 C513 1.349 . S
C514 C526 1.349 . S
C515 C513 1.327 . S
C515 C531 1.429 . S
C515 H537 0.950 . S
C516 H512 0.949 . S
C516 C524 1.574 1_565 S
C516 C532 1.368 . S
H517 C525 0.950 . S
H518 C523 0.950 . S
H519 C524 0.949 . S
H520 C526 0.950 . S
H521 C527 0.950 . S
H522 C528 0.949 . S
C523 H518 0.950 . S
C523 C525 1.327 . S
C523 C529 1.429 . S
C524 C516 1.574 1_545 S
C524 H519 0.949 . S
C524 C530 1.368 . S
C525 C509 1.349 . S
C525 H517 0.950 . S
C525 C523 1.327 . S
C526 C514 1.349 . S
C526 H520 0.950 . S
C526 C527 1.327 . S
C527 H521 0.950 . S
C527 C526 1.327 . S
C527 C531 1.429 . S
C528 C511 1.574 1_565 S
C528 H522 0.949 . S
C528 C532 1.368 . S
C529 C510 1.429 . S
C529 C523 1.429 . S
C529 C530 1.523 . S
C530 C511 1.368 . S
C530 C524 1.368 . S
C530 C529 1.523 . S
C531 C515 1.429 . S
C531 C527 1.429 . S
C531 C532 1.523 . S
C532 C516 1.368 . S
C532 C528 1.368 . S
C532 C531 1.523 . S
H533 C508 0.950 . S
H534 C510 0.950 . S
H535 C511 0.949 . S
H536 C513 0.950 . S
H537 C515 0.950 . S
C538 C539 1.349 . S
C538 C540 1.327 . S
C538 H563 0.950 . S
C539 C538 1.349 . S
C539 C555 1.349 . S
C540 C538 1.327 . S
C540 C559 1.429 . S
C540 H564 0.950 . S
C541 C558 1.574 . S
C541 C560 1.368 1_554 S
C541 H565 0.949 . S
H542 C546 0.949 . S
C543 C544 1.349 . S
C543 C545 1.327 . S
C543 H566 0.950 . S
C544 C543 1.349 . S
C544 C556 1.349 . S
C545 C543 1.327 . S
C545 C561 1.429 . S
C545 H567 0.950 . S
C546 H542 0.949 . S
C546 C554 1.574 . S
C546 C562 1.368 1_556 S
H547 C555 0.950 . S
H548 C553 0.950 . S
H549 C554 0.949 . S
H550 C556 0.950 . S
H551 C557 0.950 . S
H552 C558 0.949 . S
C553 H548 0.950 . S
C553 C555 1.327 . S
C553 C559 1.429 . S
C554 C546 1.574 . S
C554 H549 0.949 . S
C554 C560 1.368 . S
C555 C539 1.349 . S
C555 H547 0.950 . S
C555 C553 1.327 . S
C556 C544 1.349 . S
C556 H550 0.950 . S
C556 C557 1.327 . S
C557 H551 0.950 . S
C557 C556 1.327 . S
C557 C561 1.429 . S
C558 C541 1.574 . S
C558 H552 0.949 . S
C558 C562 1.368 . S
C559 C540 1.429 . S
C559 C553 1.429 . S
C559 C560 1.523 . S
C560 C541 1.368 1_556 S
C560 C554 1.368 . S
C560 C559 1.523 . S
C561 C545 1.429 . S
C561 C557 1.429 . S
C561 C562 1.523 . S
C562 C546 1.368 1_554 S
C562 C558 1.368 . S
C562 C561 1.523 . S
H563 C538 0.950 . S
H564 C540 0.950 . S
H565 C541 0.949 . S
H566 C543 0.950 . S
H567 C545 0.950 . S
C568 C569 1.349 . S
C568 C570 1.327 . S
C568 H593 0.950 . S
C569 C568 1.349 . S
C569 C585 1.349 . S
C570 C568 1.327 . S
C570 C589 1.429 . S
C570 H594 0.950 . S
C571 C588 1.574 . S
C571 C590 1.368 . S
C571 H595 0.949 . S
H572 C576 0.949 . S
C573 C574 1.349 . S
C573 C575 1.327 . S
C573 H596 0.950 . S
C574 C573 1.349 . S
C574 C586 1.349 . S
C575 C573 1.327 . S
C575 C591 1.429 . S
C575 H597 0.950 . S
C576 H572 0.949 . S
C576 C584 1.574 . S
C576 C592 1.368 . S
H577 C585 0.950 . S
H578 C583 0.950 . S
H579 C584 0.949 . S
H580 C586 0.950 . S
H581 C587 0.950 . S
H582 C588 0.949 . S
C583 H578 0.950 . S
C583 C585 1.327 . S
C583 C589 1.429 . S
C584 C576 1.574 . S
C584 H579 0.949 . S
C584 C590 1.368 1_545 S
C585 C569 1.349 . S
C585 H577 0.950 . S
C585 C583 1.327 . S
C586 C574 1.349 . S
C586 H580 0.950 . S
C586 C587 1.327 . S
C587 H581 0.950 . S
C587 C586 1.327 . S
C587 C591 1.429 . S
C588 C571 1.574 . S
C588 H582 0.949 . S
C588 C592 1.368 1_565 S
C589 C570 1.429 . S
C589 C583 1.429 . S
C589 C590 1.523 . S
C590 C571 1.368 . S
C590 C584 1.368 1_565 S
C590 C589 1.523 . S
C591 C575 1.429 . S
C591 C587 1.429 . S
C591 C592 1.523 . S
C592 C576 1.368 . S
C592 C588 1.368 1_545 S
C592 C591 1.523 . S
H593 C568 0.950 . S
H594 C570 0.950 . S
H595 C571 0.949 . S
H596 C573 0.950 . S
H597 C575 0.950 . S
C598 C599 1.349 . S
C598 C600 1.327 . S
C598 H623 0.950 . S
C599 C598 1.349 . S
C599 C615 1.349 . S
C600 C598 1.327 . S
C600 C619 1.429 . S
C600 H624 0.950 . S
C601 C618 1.574 . S
C601 C620 1.368 . S
C601 H625 0.949 . S
H602 C606 0.949 . S
C603 C604 1.349 . S
C603 C605 1.327 . S
C603 H626 0.950 . S
C604 C603 1.349 . S
C604 C616 1.349 . S
C605 C603 1.327 . S
C605 C621 1.429 . S
C605 H627 0.950 . S
C606 H602 0.949 . S
C606 C614 1.574 . S
C606 C622 1.368 . S
H607 C615 0.950 . S
H608 C613 0.950 . S
H609 C614 0.949 . S
H610 C616 0.950 . S
H611 C617 0.950 . S
H612 C618 0.949 . S
C613 H608 0.950 . S
C613 C615 1.327 . S
C613 C619 1.429 . S
C614 C606 1.574 . S
C614 H609 0.949 . S
C614 C620 1.368 . S
C615 C599 1.349 . S
C615 H607 0.950 . S
C615 C613 1.327 . S
C616 C604 1.349 . S
C616 H610 0.950 . S
C616 C617 1.327 . S
C617 H611 0.950 . S
C617 C616 1.327 . S
C617 C621 1.429 . S
C618 C601 1.574 . S
C618 H612 0.949 . S
C618 C622 1.368 . S
C619 C600 1.429 . S
C619 C613 1.429 . S
C619 C620 1.523 . S
C620 C601 1.368 . S
C620 C614 1.368 . S
C620 C619 1.523 . S
C621 C605 1.429 . S
C621 C617 1.429 . S
C621 C622 1.523 . S
C622 C606 1.368 . S
C622 C618 1.368 . S
C622 C621 1.523 . S
H623 C598 0.950 . S
H624 C600 0.950 . S
H625 C601 0.949 . S
H626 C603 0.950 . S
H627 C605 0.950 . S
C628 C629 1.349 . S
C628 C630 1.327 . S
C628 H653 0.950 . S
C629 C628 1.349 . S
C629 C645 1.349 . S
C630 C628 1.327 . S
C630 C649 1.429 . S
C630 H654 0.950 . S
C631 C648 1.574 . S
C631 C650 1.368 1_545 S
C631 H655 0.949 . S
H632 C636 0.949 . S
C633 C634 1.349 . S
C633 C635 1.327 . S
C633 H656 0.950 . S
C634 C633 1.349 . S
C634 C646 1.349 . S
C635 C633 1.327 . S
C635 C651 1.429 . S
C635 H657 0.950 . S
C636 H632 0.949 . S
C636 C644 1.574 . S
C636 C652 1.368 1_565 S
H637 C645 0.950 . S
H638 C643 0.950 . S
H639 C644 0.949 . S
H640 C646 0.950 . S
H641 C647 0.950 . S
H642 C648 0.949 . S
C643 H638 0.950 . S
C643 C645 1.327 . S
C643 C649 1.429 . S
C644 C636 1.574 . S
C644 H639 0.949 . S
C644 C650 1.368 . S
C645 C629 1.349 . S
C645 H637 0.950 . S
C645 C643 1.327 . S
C646 C634 1.349 . S
C646 H640 0.950 . S
C646 C647 1.327 . S
C647 H641 0.950 . S
C647 C646 1.327 . S
C647 C651 1.429 . S
C648 C631 1.574 . S
C648 H642 0.949 . S
C648 C652 1.368 . S
C649 C630 1.429 . S
C649 C643 1.429 . S
C649 C650 1.523 . S
C650 C631 1.368 1_565 S
C650 C644 1.368 . S
C650 C649 1.523 . S
C651 C635 1.429 . S
C651 C647 1.429 . S
C651 C652 1.523 . S
C652 C636 1.368 1_545 S
C652 C648 1.368 . S
C652 C651 1.523 . S
H653 C628 0.950 . S
H654 C630 0.950 . S
H655 C631 0.949 . S
H656 C633 0.950 . S
H657 C635 0.950 . S
C658 C659 1.349 . S
C658 C660 1.327 . S
C658 H683 0.950 . S
C659 C658 1.349 . S
C659 C675 1.349 . S
C660 C658 1.327 . S
C660 C679 1.429 . S
C660 H684 0.950 . S
C661 C678 1.574 . S
C661 C680 1.368 . S
C661 H685 0.949 . S
H662 C666 0.949 . S
C663 C664 1.349 . S
C663 C665 1.327 . S
C663 H686 0.950 . S
C664 C663 1.349 . S
C664 C676 1.349 . S
C665 C663 1.327 . S
C665 C681 1.429 . S
C665 H687 0.950 . S
C666 H662 0.949 . S
C666 C674 1.574 . S
C666 C682 1.368 . S
H667 C675 0.950 . S
H668 C673 0.950 . S
H669 C674 0.949 . S
H670 C676 0.950 . S
H671 C677 0.950 . S
H672 C678 0.949 . S
C673 H668 0.950 . S
C673 C675 1.327 . S
C673 C679 1.429 . S
C674 C666 1.574 . S
C674 H669 0.949 . S
C674 C680 1.368 1_554 S
C675 C659 1.349 . S
C675 H667 0.950 . S
C675 C673 1.327 . S
C676 C664 1.349 . S
C676 H670 0.950 . S
C676 C677 1.327 . S
C677 H671 0.950 . S
C677 C676 1.327 . S
C677 C681 1.429 . S
C678 C661 1.574 . S
C678 H672 0.949 . S
C678 C682 1.368 1_556 S
C679 C660 1.429 . S
C679 C673 1.429 . S
C679 C680 1.523 . S
C680 C661 1.368 . S
C680 C674 1.368 1_556 S
C680 C679 1.523 . S
C681 C665 1.429 . S
C681 C677 1.429 . S
C681 C682 1.523 . S
C682 C666 1.368 . S
C682 C678 1.368 1_554 S
C682 C681 1.523 . S
H683 C658 0.950 . S
H684 C660 0.950 . S
H685 C661 0.949 . S
H686 C663 0.950 . S
H687 C665 0.950 . S
C688 C689 1.349 . S
C688 C690 1.327 . S
C688 H713 0.950 . S
C689 C688 1.349 . S
C689 C705 1.349 . S
C690 C688 1.327 . S
C690 C709 1.429 . S
C690 H714 0.950 . S
C691 C708 1.574 . S
C691 C710 1.368 . S
C691 H715 0.949 . S
H692 C696 0.949 . S
C693 C694 1.349 . S
C693 C695 1.327 . S
C693 H716 0.950 . S
C694 C693 1.349 . S
C694 C706 1.349 . S
C695 C693 1.327 . S
C695 C711 1.429 . S
C695 H717 0.950 . S
C696 H692 0.949 . S
C696 C704 1.574 . S
C696 C712 1.368 . S
H697 C705 0.950 . S
H698 C703 0.950 . S
H699 C704 0.949 . S
H700 C706 0.950 . S
H701 C707 0.950 . S
H702 C708 0.949 . S
C703 H698 0.950 . S
C703 C705 1.327 . S
C703 C709 1.429 . S
C704 C696 1.574 . S
C704 H699 0.949 . S
C704 C710 1.368 . S
C705 C689 1.349 . S
C705 H697 0.950 . S
C705 C703 1.327 . S
C706 C694 1.349 . S
C706 H700 0.950 . S
C706 C707 1.327 . S
C707 H701 0.950 . S
C707 C706 1.327 . S
C707 C711 1.429 . S
C708 C691 1.574 . S
C708 H702 0.949 . S
C708 C712 1.368 . S
C709 C690 1.429 . S
C709 C703 1.429 . S
C709 C710 1.523 . S
C710 C691 1.368 . S
C710 C704 1.368 . S
C710 C709 1.523 . S
C711 C695 1.429 . S
C711 C707 1.429 . S
C711 C712 1.523 . S
C712 C696 1.368 . S
C712 C708 1.368 . S
C712 C711 1.523 . S
H713 C688 0.950 . S
H714 C690 0.950 . S
H715 C691 0.949 . S
H716 C693 0.950 . S
H717 C695 0.950 . S
C718 C719 1.349 . S
C718 C720 1.327 . S
C718 H743 0.950 . S
C719 C718 1.349 . S
C719 C735 1.349 . S
C720 C718 1.327 . S
C720 C739 1.429 . S
C720 H744 0.950 . S
C721 C738 1.574 . S
C721 C740 1.368 1_554 S
C721 H745 0.949 . S
H722 C726 0.949 . S
C723 C724 1.349 . S
C723 C725 1.327 . S
C723 H746 0.950 . S
C724 C723 1.349 . S
C724 C736 1.349 . S
C725 C723 1.327 . S
C725 C741 1.429 . S
C725 H747 0.950 . S
C726 H722 0.949 . S
C726 C734 1.574 . S
C726 C742 1.368 1_556 S
H727 C735 0.950 . S
H728 C733 0.950 . S
H729 C734 0.949 . S
H730 C736 0.950 . S
H731 C737 0.950 . S
H732 C738 0.949 . S
C733 H728 0.950 . S
C733 C735 1.327 . S
C733 C739 1.429 . S
C734 C726 1.574 . S
C734 H729 0.949 . S
C734 C740 1.368 . S
C735 C719 1.349 . S
C735 H727 0.950 . S
C735 C733 1.327 . S
C736 C724 1.349 . S
C736 H730 0.950 . S
C736 C737 1.327 . S
C737 H731 0.950 . S
C737 C736 1.327 . S
C737 C741 1.429 . S
C738 C721 1.574 . S
C738 H732 0.949 . S
C738 C742 1.368 . S
C739 C720 1.429 . S
C739 C733 1.429 . S
C739 C740 1.523 . S
C740 C721 1.368 1_556 S
C740 C734 1.368 . S
C740 C739 1.523 . S
C741 C725 1.429 . S
C741 C737 1.429 . S
C741 C742 1.523 . S
C742 C726 1.368 1_554 S
C742 C738 1.368 . S
C742 C741 1.523 . S
H743 C718 0.950 . S
H744 C720 0.950 . S
H745 C721 0.949 . S
H746 C723 0.950 . S
H747 C725 0.950 . S
C748 C749 1.349 . S
C748 C750 1.327 . S
C748 H773 0.950 . S
C749 C748 1.349 . S
C749 C765 1.349 . S
C750 C748 1.327 . S
C750 C769 1.429 . S
C750 H774 0.950 . S
C751 C768 1.574 . S
C751 C770 1.368 . S
C751 H775 0.949 . S
H752 C756 0.949 . S
C753 C754 1.349 . S
C753 C755 1.327 . S
C753 H776 0.950 . S
C754 C753 1.349 . S
C754 C766 1.349 . S
C755 C753 1.327 . S
C755 C771 1.429 . S
C755 H777 0.950 . S
C756 H752 0.949 . S
C756 C764 1.574 . S
C756 C772 1.368 . S
H757 C765 0.950 . S
H758 C763 0.950 . S
H759 C764 0.949 . S
H760 C766 0.950 . S
H761 C767 0.950 . S
H762 C768 0.949 . S
C763 H758 0.950 . S
C763 C765 1.327 . S
C763 C769 1.429 . S
C764 C756 1.574 . S
C764 H759 0.949 . S
C764 C770 1.368 . S
C765 C749 1.349 . S
C765 H757 0.950 . S
C765 C763 1.327 . S
C766 C754 1.349 . S
C766 H760 0.950 . S
C766 C767 1.327 . S
C767 H761 0.950 . S
C767 C766 1.327 . S
C767 C771 1.429 . S
C768 C751 1.574 . S
C768 H762 0.949 . S
C768 C772 1.368 . S
C769 C750 1.429 . S
C769 C763 1.429 . S
C769 C770 1.523 . S
C770 C751 1.368 . S
C770 C764 1.368 . S
C770 C769 1.523 . S
C771 C755 1.429 . S
C771 C767 1.429 . S
C771 C772 1.523 . S
C772 C756 1.368 . S
C772 C768 1.368 . S
C772 C771 1.523 . S
H773 C748 0.950 . S
H774 C750 0.950 . S
H775 C751 0.949 . S
H776 C753 0.950 . S
H777 C755 0.950 . S
C778 C779 1.349 . S
C778 C780 1.327 . S
C778 H803 0.950 . S
C779 C778 1.349 . S
C779 C795 1.349 . S
C780 C778 1.327 . S
C780 C799 1.429 . S
C780 H804 0.950 . S
C781 C798 1.574 . S
C781 C800 1.368 . S
C781 H805 0.949 . S
H782 C786 0.949 . S
C783 C784 1.349 . S
C783 C785 1.327 . S
C783 H806 0.950 . S
C784 C783 1.349 . S
C784 C796 1.349 . S
C785 C783 1.327 . S
C785 C801 1.429 . S
C785 H807 0.950 . S
C786 H782 0.949 . S
C786 C794 1.574 . S
C786 C802 1.368 . S
H787 C795 0.950 . S
H788 C793 0.950 . S
H789 C794 0.949 . S
H790 C796 0.950 . S
H791 C797 0.950 . S
H792 C798 0.949 . S
C793 H788 0.950 . S
C793 C795 1.327 . S
C793 C799 1.429 . S
C794 C786 1.574 . S
C794 H789 0.949 . S
C794 C800 1.368 . S
C795 C779 1.349 . S
C795 H787 0.950 . S
C795 C793 1.327 . S
C796 C784 1.349 . S
C796 H790 0.950 . S
C796 C797 1.327 . S
C797 H791 0.950 . S
C797 C796 1.327 . S
C797 C801 1.429 . S
C798 C781 1.574 . S
C798 H792 0.949 . S
C798 C802 1.368 . S
C799 C780 1.429 . S
C799 C793 1.429 . S
C799 C800 1.523 . S
C800 C781 1.368 . S
C800 C794 1.368 . S
C800 C799 1.523 . S
C801 C785 1.429 . S
C801 C797 1.429 . S
C801 C802 1.523 . S
C802 C786 1.368 . S
C802 C798 1.368 . S
C802 C801 1.523 . S
H803 C778 0.950 . S
H804 C780 0.950 . S
H805 C781 0.949 . S
H806 C783 0.950 . S
H807 C785 0.950 . S
C808 C809 1.349 . S
C808 C810 1.327 . S
C808 H833 0.950 . S
C809 C808 1.349 . S
C809 C825 1.349 . S
C810 C808 1.327 . S
C810 C829 1.429 . S
C810 H834 0.950 . S
C811 C828 1.574 . S
C811 C830 1.368 . S
C811 H835 0.949 . S
H812 C816 0.949 . S
C813 C814 1.349 . S
C813 C815 1.327 . S
C813 H836 0.950 . S
C814 C813 1.349 . S
C814 C826 1.349 . S
C815 C813 1.327 . S
C815 C831 1.429 . S
C815 H837 0.950 . S
C816 H812 0.949 . S
C816 C824 1.574 . S
C816 C832 1.368 . S
H817 C825 0.950 . S
H818 C823 0.950 . S
H819 C824 0.949 . S
H820 C826 0.950 . S
H821 C827 0.950 . S
H822 C828 0.949 . S
C823 H818 0.950 . S
C823 C825 1.327 . S
C823 C829 1.429 . S
C824 C816 1.574 . S
C824 H819 0.949 . S
C824 C830 1.368 . S
C825 C809 1.349 . S
C825 H817 0.950 . S
C825 C823 1.327 . S
C826 C814 1.349 . S
C826 H820 0.950 . S
C826 C827 1.327 . S
C827 H821 0.950 . S
C827 C826 1.327 . S
C827 C831 1.429 . S
C828 C811 1.574 . S
C828 H822 0.949 . S
C828 C832 1.368 . S
C829 C810 1.429 . S
C829 C823 1.429 . S
C829 C830 1.523 . S
C830 C811 1.368 . S
C830 C824 1.368 . S
C830 C829 1.523 . S
C831 C815 1.429 . S
C831 C827 1.429 . S
C831 C832 1.523 . S
C832 C816 1.368 . S
C832 C828 1.368 . S
C832 C831 1.523 . S
H833 C808 0.950 . S
H834 C810 0.950 . S
H835 C811 0.949 . S
H836 C813 0.950 . S
H837 C815 0.950 . S
C838 C839 1.349 . S
C838 C840 1.327 . S
C838 H863 0.950 . S
C839 C838 1.349 . S
C839 C855 1.349 . S
C840 C838 1.327 . S
C840 C859 1.429 . S
C840 H864 0.950 . S
C841 C858 1.574 . S
C841 C860 1.368 . S
C841 H865 0.949 . S
H842 C846 0.949 . S
C843 C844 1.349 . S
C843 C845 1.327 . S
C843 H866 0.950 . S
C844 C843 1.349 . S
C844 C856 1.349 . S
C845 C843 1.327 . S
C845 C861 1.429 . S
C845 H867 0.950 . S
C846 H842 0.949 . S
C846 C854 1.574 . S
C846 C862 1.368 . S
H847 C855 0.950 . S
H848 C853 0.950 . S
H849 C854 0.949 . S
H850 C856 0.950 . S
H851 C857 0.950 . S
H852 C858 0.949 . S
C853 H848 0.950 . S
C853 C855 1.327 . S
C853 C859 1.429 . S
C854 C846 1.574 . S
C854 H849 0.949 . S
C854 C860 1.368 1_556 S
C855 C839 1.349 . S
C855 H847 0.950 . S
C855 C853 1.327 . S
C856 C844 1.349 . S
C856 H850 0.950 . S
C856 C857 1.327 . S
C857 H851 0.950 . S
C857 C856 1.327 . S
C857 C861 1.429 . S
C858 C841 1.574 . S
C858 H852 0.949 . S
C858 C862 1.368 1_554 S
C859 C840 1.429 . S
C859 C853 1.429 . S
C859 C860 1.523 . S
C860 C841 1.368 . S
C860 C854 1.368 1_554 S
C860 C859 1.523 . S
C861 C845 1.429 . S
C861 C857 1.429 . S
C861 C862 1.523 . S
C862 C846 1.368 . S
C862 C858 1.368 1_556 S
C862 C861 1.523 . S
H863 C838 0.950 . S
H864 C840 0.950 . S
H865 C841 0.949 . S
H866 C843 0.950 . S
H867 C845 0.950 . S
C868 C869 1.349 . S
C868 C870 1.327 . S
C868 H893 0.950 . S
C869 C868 1.349 . S
C869 C885 1.349 . S
C870 C868 1.327 . S
C870 C889 1.429 . S
C870 H894 0.950 . S
C871 C888 1.574 . S
C871 C890 1.368 . S
C871 H895 0.949 . S
H872 C876 0.949 . S
C873 C874 1.349 . S
C873 C875 1.327 . S
C873 H896 0.950 . S
C874 C873 1.349 . S
C874 C886 1.349 . S
C875 C873 1.327 . S
C875 C891 1.429 . S
C875 H897 0.950 . S
C876 H872 0.949 . S
C876 C884 1.574 . S
C876 C892 1.368 . S
H877 C885 0.950 . S
H878 C883 0.950 . S
H879 C884 0.949 . S
H880 C886 0.950 . S
H881 C887 0.950 . S
H882 C888 0.949 . S
C883 H878 0.950 . S
C883 C885 1.327 . S
C883 C889 1.429 . S
C884 C876 1.574 . S
C884 H879 0.949 . S
C884 C890 1.368 . S
C885 C869 1.349 . S
C885 H877 0.950 . S
C885 C883 1.327 . S
C886 C874 1.349 . S
C886 H880 0.950 . S
C886 C887 1.327 . S
C887 H881 0.950 . S
C887 C886 1.327 . S
C887 C891 1.429 . S
C888 C871 1.574 . S
C888 H882 0.949 . S
C888 C892 1.368 . S
C889 C870 1.429 . S
C889 C883 1.429 . S
C889 C890 1.523 . S
C890 C871 1.368 . S
C890 C884 1.368 . S
C890 C889 1.523 . S
C891 C875 1.429 . S
C891 C887 1.429 . S
C891 C892 1.523 . S
C892 C876 1.368 . S
C892 C888 1.368 . S
C892 C891 1.523 . S
H893 C868 0.950 . S
H894 C870 0.950 . S
H895 C871 0.949 . S
H896 C873 0.950 . S
H897 C875 0.950 . S
C898 C899 1.349 . S
C898 C900 1.327 . S
C898 H923 0.950 . S
C899 C898 1.349 . S
C899 C915 1.349 . S
C900 C898 1.327 . S
C900 C919 1.429 . S
C900 H924 0.950 . S
C901 C918 1.574 . S
C901 C920 1.368 . S
C901 H925 0.949 . S
H902 C906 0.949 . S
C903 C904 1.349 . S
C903 C905 1.327 . S
C903 H926 0.950 . S
C904 C903 1.349 . S
C904 C916 1.349 . S
C905 C903 1.327 . S
C905 C921 1.429 . S
C905 H927 0.950 . S
C906 H902 0.949 . S
C906 C914 1.574 . S
C906 C922 1.368 . S
H907 C915 0.950 . S
H908 C913 0.950 . S
H909 C914 0.949 . S
H910 C916 0.950 . S
H911 C917 0.950 . S
H912 C918 0.949 . S
C913 H908 0.950 . S
C913 C915 1.327 . S
C913 C919 1.429 . S
C914 C906 1.574 . S
C914 H909 0.949 . S
C914 C920 1.368 . S
C915 C899 1.349 . S
C915 H907 0.950 . S
C915 C913 1.327 . S
C916 C904 1.349 . S
C916 H910 0.950 . S
C916 C917 1.327 . S
C917 H911 0.950 . S
C917 C916 1.327 . S
C917 C921 1.429 . S
C918 C901 1.574 . S
C918 H912 0.949 . S
C918 C922 1.368 . S
C919 C900 1.429 . S
C919 C913 1.429 . S
C919 C920 1.523 . S
C920 C901 1.368 . S
C920 C914 1.368 . S
C920 C919 1.523 . S
C921 C905 1.429 . S
C921 C917 1.429 . S
C921 C922 1.523 . S
C922 C906 1.368 . S
C922 C918 1.368 . S
C922 C921 1.523 . S
H923 C898 0.950 . S
H924 C900 0.950 . S
H925 C901 0.949 . S
H926 C903 0.950 . S
H927 C905 0.950 . S
C928 C929 1.349 . S
C928 C930 1.327 . S
C928 H953 0.950 . S
C929 C928 1.349 . S
C929 C945 1.349 . S
C930 C928 1.327 . S
C930 C949 1.429 . S
C930 H954 0.950 . S
C931 C948 1.574 . S
C931 C950 1.368 . S
C931 H955 0.949 . S
H932 C936 0.949 . S
C933 C934 1.349 . S
C933 C935 1.327 . S
C933 H956 0.950 . S
C934 C933 1.349 . S
C934 C946 1.349 . S
C935 C933 1.327 . S
C935 C951 1.429 . S
C935 H957 0.950 . S
C936 H932 0.949 . S
C936 C944 1.574 . S
C936 C952 1.368 . S
H937 C945 0.950 . S
H938 C943 0.950 . S
H939 C944 0.949 . S
H940 C946 0.950 . S
H941 C947 0.950 . S
H942 C948 0.949 . S
C943 H938 0.950 . S
C943 C945 1.327 . S
C943 C949 1.429 . S
C944 C936 1.574 . S
C944 H939 0.949 . S
C944 C950 1.368 . S
C945 C929 1.349 . S
C945 H937 0.950 . S
C945 C943 1.327 . S
C946 C934 1.349 . S
C946 H940 0.950 . S
C946 C947 1.327 . S
C947 H941 0.950 . S
C947 C946 1.327 . S
C947 C951 1.429 . S
C948 C931 1.574 . S
C948 H942 0.949 . S
C948 C952 1.368 . S
C949 C930 1.429 . S
C949 C943 1.429 . S
C949 C950 1.523 . S
C950 C931 1.368 . S
C950 C944 1.368 . S
C950 C949 1.523 . S
C951 C935 1.429 . S
C951 C947 1.429 . S
C951 C952 1.523 . S
C952 C936 1.368 . S
C952 C948 1.368 . S
C952 C951 1.523 . S
H953 C928 0.950 . S
H954 C930 0.950 . S
H955 C931 0.949 . S
H956 C933 0.950 . S
H957 C935 0.950 . S
C958 C959 1.349 . S
C958 C960 1.327 . S
C958 H983 0.950 . S
C959 C958 1.349 . S
C959 C975 1.349 . S
C960 C958 1.327 . S
C960 C979 1.429 . S
C960 H984 0.950 . S
C961 C978 1.574 . S
C961 C980 1.368 1_455 S
C961 H985 0.949 1_455 S
H962 C966 0.949 . S
C963 C964 1.349 . S
C963 C965 1.327 . S
C963 H986 0.950 . S
C964 C963 1.349 . S
C964 C976 1.349 . S
C965 C963 1.327 . S
C965 C981 1.429 . S
C965 H987 0.950 . S
C966 H962 0.949 . S
C966 C974 1.574 . S
C966 C982 1.368 . S
H967 C975 0.950 . S
H968 C973 0.950 . S
H969 C974 0.949 1_655 S
H970 C976 0.950 . S
H971 C977 0.950 . S
H972 C978 0.949 . S
C973 H968 0.950 . S
C973 C975 1.327 . S
C973 C979 1.429 . S
C974 C966 1.574 . S
C974 H969 0.949 1_455 S
C974 C980 1.368 1_455 S
C975 C959 1.349 . S
C975 H967 0.950 . S
C975 C973 1.327 . S
C976 C964 1.349 . S
C976 H970 0.950 . S
C976 C977 1.327 . S
C977 H971 0.950 . S
C977 C976 1.327 . S
C977 C981 1.429 . S
C978 C961 1.574 . S
C978 H972 0.949 . S
C978 C982 1.368 . S
C979 C960 1.429 . S
C979 C973 1.429 . S
C979 C980 1.523 . S
C980 C961 1.368 1_655 S
C980 C974 1.368 1_655 S
C980 C979 1.523 . S
C981 C965 1.429 . S
C981 C977 1.429 . S
C981 C982 1.523 . S
C982 C966 1.368 . S
C982 C978 1.368 . S
C982 C981 1.523 . S
H983 C958 0.950 . S
H984 C960 0.950 . S
H985 C961 0.949 1_655 S
H986 C963 0.950 . S
H987 C965 0.950 . S
C988 C989 1.349 . S
C988 C990 1.327 . S
C988 H1013 0.950 . S
C989 C988 1.349 . S
C989 C1005 1.349 . S
C990 C988 1.327 . S
C990 C1009 1.429 . S
C990 H1014 0.950 . S
C991 C1008 1.574 . S
C991 C1010 1.368 . S
C991 H1015 0.949 . S
H992 C996 0.949 . S
C993 C994 1.349 . S
C993 C995 1.327 . S
C993 H1016 0.950 . S
C994 C993 1.349 . S
C994 C1006 1.349 . S
C995 C993 1.327 . S
C995 C1011 1.429 . S
C995 H1017 0.950 . S
C996 H992 0.949 . S
C996 C1004 1.574 . S
C996 C1012 1.368 . S
H997 C1005 0.950 . S
H998 C1003 0.950 . S
H999 C1004 0.949 . S
H1000 C1006 0.950 . S
H1001 C1007 0.950 . S
H1002 C1008 0.949 . S
C1003 H998 0.950 . S
C1003 C1005 1.327 . S
C1003 C1009 1.429 . S
C1004 C996 1.574 . S
C1004 H999 0.949 . S
C1004 C1010 1.368 . S
C1005 C989 1.349 . S
C1005 H997 0.950 . S
C1005 C1003 1.327 . S
C1006 C994 1.349 . S
C1006 H1000 0.950 . S
C1006 C1007 1.327 . S
C1007 H1001 0.950 . S
C1007 C1006 1.327 . S
C1007 C1011 1.429 . S
C1008 C991 1.574 . S
C1008 H1002 0.949 . S
C1008 C1012 1.368 . S
C1009 C990 1.429 . S
C1009 C1003 1.429 . S
C1009 C1010 1.523 . S
C1010 C991 1.368 . S
C1010 C1004 1.368 . S
C1010 C1009 1.523 . S
C1011 C995 1.429 . S
C1011 C1007 1.429 . S
C1011 C1012 1.523 . S
C1012 C996 1.368 . S
C1012 C1008 1.368 . S
C1012 C1011 1.523 . S
H1013 C988 0.950 . S
H1014 C990 0.950 . S
H1015 C991 0.949 . S
H1016 C993 0.950 . S
H1017 C995 0.950 . S
C1018 C1019 1.349 . S
C1018 C1020 1.327 . S
C1018 H1043 0.950 . S
C1019 C1018 1.349 . S
C1019 C1035 1.349 . S
C1020 C1018 1.327 . S
C1020 C1039 1.429 . S
C1020 H1044 0.950 . S
C1021 C1038 1.574 . S
C1021 C1040 1.368 . S
C1021 H1045 0.949 . S
H1022 C1026 0.949 . S
C1023 C1024 1.349 . S
C1023 C1025 1.327 . S
C1023 H1046 0.950 . S
C1024 C1023 1.349 . S
C1024 C1036 1.349 . S
C1025 C1023 1.327 . S
C1025 C1041 1.429 . S
C1025 H1047 0.950 . S
C1026 H1022 0.949 . S
C1026 C1034 1.574 . S
C1026 C1042 1.368 . S
H1027 C1035 0.950 . S
H1028 C1033 0.950 . S
H1029 C1034 0.949 . S
H1030 C1036 0.950 . S
H1031 C1037 0.950 . S
H1032 C1038 0.949 . S
C1033 H1028 0.950 . S
C1033 C1035 1.327 . S
C1033 C1039 1.429 . S
C1034 C1026 1.574 . S
C1034 H1029 0.949 . S
C1034 C1040 1.368 . S
C1035 C1019 1.349 . S
C1035 H1027 0.950 . S
C1035 C1033 1.327 . S
C1036 C1024 1.349 . S
C1036 H1030 0.950 . S
C1036 C1037 1.327 . S
C1037 H1031 0.950 . S
C1037 C1036 1.327 . S
C1037 C1041 1.429 . S
C1038 C1021 1.574 . S
C1038 H1032 0.949 . S
C1038 C1042 1.368 . S
C1039 C1020 1.429 . S
C1039 C1033 1.429 . S
C1039 C1040 1.523 . S
C1040 C1021 1.368 . S
C1040 C1034 1.368 . S
C1040 C1039 1.523 . S
C1041 C1025 1.429 . S
C1041 C1037 1.429 . S
C1041 C1042 1.523 . S
C1042 C1026 1.368 . S
C1042 C1038 1.368 . S
C1042 C1041 1.523 . S
H1043 C1018 0.950 . S
H1044 C1020 0.950 . S
H1045 C1021 0.949 . S
H1046 C1023 0.950 . S
H1047 C1025 0.950 . S
C1048 C1049 1.349 . S
C1048 C1050 1.327 . S
C1048 H1073 0.950 . S
C1049 C1048 1.349 . S
C1049 C1065 1.349 . S
C1050 C1048 1.327 . S
C1050 C1069 1.429 . S
C1050 H1074 0.950 . S
C1051 C1068 1.574 . S
C1051 C1070 1.368 . S
C1051 H1075 0.949 . S
H1052 C1056 0.949 . S
C1053 C1054 1.349 . S
C1053 C1055 1.327 . S
C1053 H1076 0.950 . S
C1054 C1053 1.349 . S
C1054 C1066 1.349 . S
C1055 C1053 1.327 . S
C1055 C1071 1.429 . S
C1055 H1077 0.950 . S
C1056 H1052 0.949 . S
C1056 C1064 1.574 . S
C1056 C1072 1.368 . S
H1057 C1065 0.950 . S
H1058 C1063 0.950 . S
H1059 C1064 0.949 . S
H1060 C1066 0.950 . S
H1061 C1067 0.950 . S
H1062 C1068 0.949 . S
C1063 H1058 0.950 . S
C1063 C1065 1.327 . S
C1063 C1069 1.429 . S
C1064 C1056 1.574 . S
C1064 H1059 0.949 . S
C1064 C1070 1.368 . S
C1065 C1049 1.349 . S
C1065 H1057 0.950 . S
C1065 C1063 1.327 . S
C1066 C1054 1.349 . S
C1066 H1060 0.950 . S
C1066 C1067 1.327 . S
C1067 H1061 0.950 . S
C1067 C1066 1.327 . S
C1067 C1071 1.429 . S
C1068 C1051 1.574 . S
C1068 H1062 0.949 . S
C1068 C1072 1.368 . S
C1069 C1050 1.429 . S
C1069 C1063 1.429 . S
C1069 C1070 1.523 . S
C1070 C1051 1.368 . S
C1070 C1064 1.368 . S
C1070 C1069 1.523 . S
C1071 C1055 1.429 . S
C1071 C1067 1.429 . S
C1071 C1072 1.523 . S
C1072 C1056 1.368 . S
C1072 C1068 1.368 . S
C1072 C1071 1.523 . S
H1073 C1048 0.950 . S
H1074 C1050 0.950 . S
H1075 C1051 0.949 . S
H1076 C1053 0.950 . S
H1077 C1055 0.950 . S
C1078 C1079 1.349 . S
C1078 C1080 1.327 . S
C1078 H1103 0.950 . S
C1079 C1078 1.349 . S
C1079 C1095 1.349 . S
C1080 C1078 1.327 . S
C1080 C1099 1.429 . S
C1080 H1104 0.950 . S
C1081 C1098 1.574 . S
C1081 C1100 1.368 . S
C1081 H1105 0.949 . S
H1082 C1086 0.949 . S
C1083 C1084 1.349 . S
C1083 C1085 1.327 . S
C1083 H1106 0.950 . S
C1084 C1083 1.349 . S
C1084 C1096 1.349 . S
C1085 C1083 1.327 . S
C1085 C1101 1.429 . S
C1085 H1107 0.950 . S
C1086 H1082 0.949 . S
C1086 C1094 1.574 . S
C1086 C1102 1.368 . S
H1087 C1095 0.950 . S
H1088 C1093 0.950 . S
H1089 C1094 0.949 . S
H1090 C1096 0.950 . S
H1091 C1097 0.950 . S
H1092 C1098 0.949 . S
C1093 H1088 0.950 . S
C1093 C1095 1.327 . S
C1093 C1099 1.429 . S
C1094 C1086 1.574 . S
C1094 H1089 0.949 . S
C1094 C1100 1.368 . S
C1095 C1079 1.349 . S
C1095 H1087 0.950 . S
C1095 C1093 1.327 . S
C1096 C1084 1.349 . S
C1096 H1090 0.950 . S
C1096 C1097 1.327 . S
C1097 H1091 0.950 . S
C1097 C1096 1.327 . S
C1097 C1101 1.429 . S
C1098 C1081 1.574 . S
C1098 H1092 0.949 . S
C1098 C1102 1.368 . S
C1099 C1080 1.429 . S
C1099 C1093 1.429 . S
C1099 C1100 1.523 . S
C1100 C1081 1.368 . S
C1100 C1094 1.368 . S
C1100 C1099 1.523 . S
C1101 C1085 1.429 . S
C1101 C1097 1.429 . S
C1101 C1102 1.523 . S
C1102 C1086 1.368 . S
C1102 C1098 1.368 . S
C1102 C1101 1.523 . S
H1103 C1078 0.950 . S
H1104 C1080 0.950 . S
H1105 C1081 0.949 . S
H1106 C1083 0.950 . S
H1107 C1085 0.950 . S
C1108 C1109 1.349 . S
C1108 C1110 1.327 . S
C1108 H1133 0.950 . S
C1109 C1108 1.349 . S
C1109 C1125 1.349 . S
C1110 C1108 1.327 . S
C1110 C1129 1.429 . S
C1110 H1134 0.950 . S
C1111 C1128 1.574 . S
C1111 C1130 1.368 . S
C1111 H1135 0.949 . S
H1112 C1116 0.949 . S
C1113 C1114 1.349 . S
C1113 C1115 1.327 . S
C1113 H1136 0.950 . S
C1114 C1113 1.349 . S
C1114 C1126 1.349 . S
C1115 C1113 1.327 . S
C1115 C1131 1.429 . S
C1115 H1137 0.950 . S
C1116 H1112 0.949 . S
C1116 C1124 1.574 . S
C1116 C1132 1.368 . S
H1117 C1125 0.950 . S
H1118 C1123 0.950 . S
H1119 C1124 0.949 . S
H1120 C1126 0.950 . S
H1121 C1127 0.950 . S
H1122 C1128 0.949 . S
C1123 H1118 0.950 . S
C1123 C1125 1.327 . S
C1123 C1129 1.429 . S
C1124 C1116 1.574 . S
C1124 H1119 0.949 . S
C1124 C1130 1.368 . S
C1125 C1109 1.349 . S
C1125 H1117 0.950 . S
C1125 C1123 1.327 . S
C1126 C1114 1.349 . S
C1126 H1120 0.950 . S
C1126 C1127 1.327 . S
C1127 H1121 0.950 . S
C1127 C1126 1.327 . S
C1127 C1131 1.429 . S
C1128 C1111 1.574 . S
C1128 H1122 0.949 . S
C1128 C1132 1.368 . S
C1129 C1110 1.429 . S
C1129 C1123 1.429 . S
C1129 C1130 1.523 . S
C1130 C1111 1.368 . S
C1130 C1124 1.368 . S
C1130 C1129 1.523 . S
C1131 C1115 1.429 . S
C1131 C1127 1.429 . S
C1131 C1132 1.523 . S
C1132 C1116 1.368 . S
C1132 C1128 1.368 . S
C1132 C1131 1.523 . S
H1133 C1108 0.950 . S
H1134 C1110 0.950 . S
H1135 C1111 0.949 . S
H1136 C1113 0.950 . S
H1137 C1115 0.950 . S
C1138 C1139 1.349 . S
C1138 C1140 1.327 . S
C1138 H1163 0.950 . S
C1139 C1138 1.349 . S
C1139 C1155 1.349 . S
C1140 C1138 1.327 . S
C1140 C1159 1.429 . S
C1140 H1164 0.950 . S
C1141 C1158 1.574 . S
C1141 C1160 1.368 . S
C1141 H1165 0.949 . S
H1142 C1146 0.949 1_655 S
C1143 C1144 1.349 . S
C1143 C1145 1.327 . S
C1143 H1166 0.950 . S
C1144 C1143 1.349 . S
C1144 C1156 1.349 . S
C1145 C1143 1.327 . S
C1145 C1161 1.429 . S
C1145 H1167 0.950 . S
C1146 H1142 0.949 1_455 S
C1146 C1154 1.574 . S
C1146 C1162 1.368 1_455 S
H1147 C1155 0.950 . S
H1148 C1153 0.950 . S
H1149 C1154 0.949 . S
H1150 C1156 0.950 . S
H1151 C1157 0.950 . S
H1152 C1158 0.949 1_655 S
C1153 H1148 0.950 . S
C1153 C1155 1.327 . S
C1153 C1159 1.429 . S
C1154 C1146 1.574 . S
C1154 H1149 0.949 . S
C1154 C1160 1.368 . S
C1155 C1139 1.349 . S
C1155 H1147 0.950 . S
C1155 C1153 1.327 . S
C1156 C1144 1.349 . S
C1156 H1150 0.950 . S
C1156 C1157 1.327 . S
C1157 H1151 0.950 . S
C1157 C1156 1.327 . S
C1157 C1161 1.429 . S
C1158 C1141 1.574 . S
C1158 H1152 0.949 1_455 S
C1158 C1162 1.368 1_455 S
C1159 C1140 1.429 . S
C1159 C1153 1.429 . S
C1159 C1160 1.523 . S
C1160 C1141 1.368 . S
C1160 C1154 1.368 . S
C1160 C1159 1.523 . S
C1161 C1145 1.429 . S
C1161 C1157 1.429 . S
C1161 C1162 1.523 . S
C1162 C1146 1.368 1_655 S
C1162 C1158 1.368 1_655 S
C1162 C1161 1.523 . S
H1163 C1138 0.950 . S
H1164 C1140 0.950 . S
H1165 C1141 0.949 . S
H1166 C1143 0.950 . S
H1167 C1145 0.950 . S
C1168 C1169 1.349 . S
C1168 C1170 1.327 . S
C1168 H1193 0.950 . S
C1169 C1168 1.349 . S
C1169 C1185 1.349 . S
C1170 C1168 1.327 . S
C1170 C1189 1.429 . S
C1170 H1194 0.950 . S
C1171 C1188 1.574 . S
C1171 C1190 1.368 . S
C1171 H1195 0.949 . S
H1172 C1176 0.949 . S
C1173 C1174 1.349 . S
C1173 C1175 1.327 . S
C1173 H1196 0.950 . S
C1174 C1173 1.349 . S
C1174 C1186 1.349 . S
C1175 C1173 1.327 . S
C1175 C1191 1.429 . S
C1175 H1197 0.950 . S
C1176 H1172 0.949 . S
C1176 C1184 1.574 . S
C1176 C1192 1.368 . S
H1177 C1185 0.950 . S
H1178 C1183 0.950 . S
H1179 C1184 0.949 . S
H1180 C1186 0.950 . S
H1181 C1187 0.950 . S
H1182 C1188 0.949 . S
C1183 H1178 0.950 . S
C1183 C1185 1.327 . S
C1183 C1189 1.429 . S
C1184 C1176 1.574 . S
C1184 H1179 0.949 . S
C1184 C1190 1.368 . S
C1185 C1169 1.349 . S
C1185 H1177 0.950 . S
C1185 C1183 1.327 . S
C1186 C1174 1.349 . S
C1186 H1180 0.950 . S
C1186 C1187 1.327 . S
C1187 H1181 0.950 . S
C1187 C1186 1.327 . S
C1187 C1191 1.429 . S
C1188 C1171 1.574 . S
C1188 H1182 0.949 . S
C1188 C1192 1.368 . S
C1189 C1170 1.429 . S
C1189 C1183 1.429 . S
C1189 C1190 1.523 . S
C1190 C1171 1.368 . S
C1190 C1184 1.368 . S
C1190 C1189 1.523 . S
C1191 C1175 1.429 . S
C1191 C1187 1.429 . S
C1191 C1192 1.523 . S
C1192 C1176 1.368 . S
C1192 C1188 1.368 . S
C1192 C1191 1.523 . S
H1193 C1168 0.950 . S
H1194 C1170 0.950 . S
H1195 C1171 0.949 . S
H1196 C1173 0.950 . S
H1197 C1175 0.950 . S
C1198 C1199 1.349 . S
C1198 C1200 1.327 . S
C1198 H1223 0.950 . S
C1199 C1198 1.349 . S
C1199 C1215 1.349 . S
C1200 C1198 1.327 . S
C1200 C1219 1.429 . S
C1200 H1224 0.950 . S
C1201 C1218 1.574 . S
C1201 C1220 1.368 . S
C1201 H1225 0.949 . S
H1202 C1206 0.949 1_455 S
C1203 C1204 1.349 . S
C1203 C1205 1.327 . S
C1203 H1226 0.950 . S
C1204 C1203 1.349 . S
C1204 C1216 1.349 . S
C1205 C1203 1.327 . S
C1205 C1221 1.429 . S
C1205 H1227 0.950 . S
C1206 H1202 0.949 1_655 S
C1206 C1214 1.574 . S
C1206 C1222 1.368 1_655 S
H1207 C1215 0.950 . S
H1208 C1213 0.950 . S
H1209 C1214 0.949 . S
H1210 C1216 0.950 . S
H1211 C1217 0.950 . S
H1212 C1218 0.949 1_455 S
C1213 H1208 0.950 . S
C1213 C1215 1.327 . S
C1213 C1219 1.429 . S
C1214 C1206 1.574 . S
C1214 H1209 0.949 . S
C1214 C1220 1.368 . S
C1215 C1199 1.349 . S
C1215 H1207 0.950 . S
C1215 C1213 1.327 . S
C1216 C1204 1.349 . S
C1216 H1210 0.950 . S
C1216 C1217 1.327 . S
C1217 H1211 0.950 . S
C1217 C1216 1.327 . S
C1217 C1221 1.429 . S
C1218 C1201 1.574 . S
C1218 H1212 0.949 1_655 S
C1218 C1222 1.368 1_655 S
C1219 C1200 1.429 . S
C1219 C1213 1.429 . S
C1219 C1220 1.523 . S
C1220 C1201 1.368 . S
C1220 C1214 1.368 . S
C1220 C1219 1.523 . S
C1221 C1205 1.429 . S
C1221 C1217 1.429 . S
C1221 C1222 1.523 . S
C1222 C1206 1.368 1_455 S
C1222 C1218 1.368 1_455 S
C1222 C1221 1.523 . S
H1223 C1198 0.950 . S
H1224 C1200 0.950 . S
H1225 C1201 0.949 . S
H1226 C1203 0.950 . S
H1227 C1205 0.950 . S
C1228 C1229 1.349 . S
C1228 C1230 1.327 . S
C1228 H1253 0.950 . S
C1229 C1228 1.349 . S
C1229 C1245 1.349 . S
C1230 C1228 1.327 . S
C1230 C1249 1.429 . S
C1230 H1254 0.950 . S
C1231 C1248 1.574 . S
C1231 C1250 1.368 . S
C1231 H1255 0.949 . S
H1232 C1236 0.949 . S
C1233 C1234 1.349 . S
C1233 C1235 1.327 . S
C1233 H1256 0.950 . S
C1234 C1233 1.349 . S
C1234 C1246 1.349 . S
C1235 C1233 1.327 . S
C1235 C1251 1.429 . S
C1235 H1257 0.950 . S
C1236 H1232 0.949 . S
C1236 C1244 1.574 . S
C1236 C1252 1.368 . S
H1237 C1245 0.950 . S
H1238 C1243 0.950 . S
H1239 C1244 0.949 . S
H1240 C1246 0.950 . S
H1241 C1247 0.950 . S
H1242 C1248 0.949 . S
C1243 H1238 0.950 . S
C1243 C1245 1.327 . S
C1243 C1249 1.429 . S
C1244 C1236 1.574 . S
C1244 H1239 0.949 . S
C1244 C1250 1.368 . S
C1245 C1229 1.349 . S
C1245 H1237 0.950 . S
C1245 C1243 1.327 . S
C1246 C1234 1.349 . S
C1246 H1240 0.950 . S
C1246 C1247 1.327 . S
C1247 H1241 0.950 . S
C1247 C1246 1.327 . S
C1247 C1251 1.429 . S
C1248 C1231 1.574 . S
C1248 H1242 0.949 . S
C1248 C1252 1.368 . S
C1249 C1230 1.429 . S
C1249 C1243 1.429 . S
C1249 C1250 1.523 . S
C1250 C1231 1.368 . S
C1250 C1244 1.368 . S
C1250 C1249 1.523 . S
C1251 C1235 1.429 . S
C1251 C1247 1.429 . S
C1251 C1252 1.523 . S
C1252 C1236 1.368 . S
C1252 C1248 1.368 . S
C1252 C1251 1.523 . S
H1253 C1228 0.950 . S
H1254 C1230 0.950 . S
H1255 C1231 0.949 . S
H1256 C1233 0.950 . S
H1257 C1235 0.950 . S
C1258 C1259 1.349 . S
C1258 C1260 1.327 . S
C1258 H1283 0.950 . S
C1259 C1258 1.349 . S
C1259 C1275 1.349 . S
C1260 C1258 1.327 . S
C1260 C1279 1.429 . S
C1260 H1284 0.950 . S
C1261 C1278 1.574 . S
C1261 C1280 1.368 . S
C1261 H1285 0.949 . S
H1262 C1266 0.949 . S
C1263 C1264 1.349 . S
C1263 C1265 1.327 . S
C1263 H1286 0.950 . S
C1264 C1263 1.349 . S
C1264 C1276 1.349 . S
C1265 C1263 1.327 . S
C1265 C1281 1.429 . S
C1265 H1287 0.950 . S
C1266 H1262 0.949 . S
C1266 C1274 1.574 . S
C1266 C1282 1.368 . S
H1267 C1275 0.950 . S
H1268 C1273 0.950 . S
H1269 C1274 0.949 . S
H1270 C1276 0.950 . S
H1271 C1277 0.950 . S
H1272 C1278 0.949 . S
C1273 H1268 0.950 . S
C1273 C1275 1.327 . S
C1273 C1279 1.429 . S
C1274 C1266 1.574 . S
C1274 H1269 0.949 . S
C1274 C1280 1.368 . S
C1275 C1259 1.349 . S
C1275 H1267 0.950 . S
C1275 C1273 1.327 . S
C1276 C1264 1.349 . S
C1276 H1270 0.950 . S
C1276 C1277 1.327 . S
C1277 H1271 0.950 . S
C1277 C1276 1.327 . S
C1277 C1281 1.429 . S
C1278 C1261 1.574 . S
C1278 H1272 0.949 . S
C1278 C1282 1.368 . S
C1279 C1260 1.429 . S
C1279 C1273 1.429 . S
C1279 C1280 1.523 . S
C1280 C1261 1.368 . S
C1280 C1274 1.368 . S
C1280 C1279 1.523 . S
C1281 C1265 1.429 . S
C1281 C1277 1.429 . S
C1281 C1282 1.523 . S
C1282 C1266 1.368 . S
C1282 C1278 1.368 . S
C1282 C1281 1.523 . S
H1283 C1258 0.950 . S
H1284 C1260 0.950 . S
H1285 C1261 0.949 . S
H1286 C1263 0.950 . S
H1287 C1265 0.950 . S
C1288 C1289 1.349 . S
C1288 C1290 1.327 . S
C1288 H1313 0.950 . S
C1289 C1288 1.349 . S
C1289 C1305 1.349 . S
C1290 C1288 1.327 . S
C1290 C1309 1.429 . S
C1290 H1314 0.950 . S
C1291 C1308 1.574 . S
C1291 C1310 1.368 . S
C1291 H1315 0.949 . S
H1292 C1296 0.949 . S
C1293 C1294 1.349 . S
C1293 C1295 1.327 . S
C1293 H1316 0.950 . S
C1294 C1293 1.349 . S
C1294 C1306 1.349 . S
C1295 C1293 1.327 . S
C1295 C1311 1.429 . S
C1295 H1317 0.950 . S
C1296 H1292 0.949 . S
C1296 C1304 1.574 . S
C1296 C1312 1.368 . S
H1297 C1305 0.950 . S
H1298 C1303 0.950 . S
H1299 C1304 0.949 . S
H1300 C1306 0.950 . S
H1301 C1307 0.950 . S
H1302 C1308 0.949 . S
C1303 H1298 0.950 . S
C1303 C1305 1.327 . S
C1303 C1309 1.429 . S
C1304 C1296 1.574 . S
C1304 H1299 0.949 . S
C1304 C1310 1.368 . S
C1305 C1289 1.349 . S
C1305 H1297 0.950 . S
C1305 C1303 1.327 . S
C1306 C1294 1.349 . S
C1306 H1300 0.950 . S
C1306 C1307 1.327 . S
C1307 H1301 0.950 . S
C1307 C1306 1.327 . S
C1307 C1311 1.429 . S
C1308 C1291 1.574 . S
C1308 H1302 0.949 . S
C1308 C1312 1.368 . S
C1309 C1290 1.429 . S
C1309 C1303 1.429 . S
C1309 C1310 1.523 . S
C1310 C1291 1.368 . S
C1310 C1304 1.368 . S
C1310 C1309 1.523 . S
C1311 C1295 1.429 . S
C1311 C1307 1.429 . S
C1311 C1312 1.523 . S
C1312 C1296 1.368 . S
C1312 C1308 1.368 . S
C1312 C1311 1.523 . S
H1313 C1288 0.950 . S
H1314 C1290 0.950 . S
H1315 C1291 0.949 . S
H1316 C1293 0.950 . S
H1317 C1295 0.950 . S
C1318 C1319 1.349 . S
C1318 C1320 1.327 . S
C1318 H1343 0.950 . S
C1319 C1318 1.349 . S
C1319 C1335 1.349 . S
C1320 C1318 1.327 . S
C1320 C1339 1.429 . S
C1320 H1344 0.950 . S
C1321 C1338 1.574 . S
C1321 C1340 1.368 . S
C1321 H1345 0.949 . S
H1322 C1326 0.949 . S
C1323 C1324 1.349 . S
C1323 C1325 1.327 . S
C1323 H1346 0.950 . S
C1324 C1323 1.349 . S
C1324 C1336 1.349 . S
C1325 C1323 1.327 . S
C1325 C1341 1.429 . S
C1325 H1347 0.950 . S
C1326 H1322 0.949 . S
C1326 C1334 1.574 . S
C1326 C1342 1.368 . S
H1327 C1335 0.950 . S
H1328 C1333 0.950 . S
H1329 C1334 0.949 . S
H1330 C1336 0.950 . S
H1331 C1337 0.950 . S
H1332 C1338 0.949 . S
C1333 H1328 0.950 . S
C1333 C1335 1.327 . S
C1333 C1339 1.429 . S
C1334 C1326 1.574 . S
C1334 H1329 0.949 . S
C1334 C1340 1.368 . S
C1335 C1319 1.349 . S
C1335 H1327 0.950 . S
C1335 C1333 1.327 . S
C1336 C1324 1.349 . S
C1336 H1330 0.950 . S
C1336 C1337 1.327 . S
C1337 H1331 0.950 . S
C1337 C1336 1.327 . S
C1337 C1341 1.429 . S
C1338 C1321 1.574 . S
C1338 H1332 0.949 . S
C1338 C1342 1.368 . S
C1339 C1320 1.429 . S
C1339 C1333 1.429 . S
C1339 C1340 1.523 . S
C1340 C1321 1.368 . S
C1340 C1334 1.368 . S
C1340 C1339 1.523 . S
C1341 C1325 1.429 . S
C1341 C1337 1.429 . S
C1341 C1342 1.523 . S
C1342 C1326 1.368 . S
C1342 C1338 1.368 . S
C1342 C1341 1.523 . S
H1343 C1318 0.950 . S
H1344 C1320 0.950 . S
H1345 C1321 0.949 . S
H1346 C1323 0.950 . S
H1347 C1325 0.950 . S
C1348 C1349 1.349 . S
C1348 C1350 1.327 . S
C1348 H1373 0.950 . S
C1349 C1348 1.349 . S
C1349 C1365 1.349 . S
C1350 C1348 1.327 . S
C1350 C1369 1.429 . S
C1350 H1374 0.950 . S
C1351 C1368 1.574 . S
C1351 C1370 1.368 . S
C1351 H1375 0.949 . S
H1352 C1356 0.949 . S
C1353 C1354 1.349 . S
C1353 C1355 1.327 . S
C1353 H1376 0.950 . S
C1354 C1353 1.349 . S
C1354 C1366 1.349 . S
C1355 C1353 1.327 . S
C1355 C1371 1.429 . S
C1355 H1377 0.950 . S
C1356 H1352 0.949 . S
C1356 C1364 1.574 . S
C1356 C1372 1.368 . S
H1357 C1365 0.950 . S
H1358 C1363 0.950 . S
H1359 C1364 0.949 . S
H1360 C1366 0.950 . S
H1361 C1367 0.950 . S
H1362 C1368 0.949 . S
C1363 H1358 0.950 . S
C1363 C1365 1.327 . S
C1363 C1369 1.429 . S
C1364 C1356 1.574 . S
C1364 H1359 0.949 . S
C1364 C1370 1.368 . S
C1365 C1349 1.349 . S
C1365 H1357 0.950 . S
C1365 C1363 1.327 . S
C1366 C1354 1.349 . S
C1366 H1360 0.950 . S
C1366 C1367 1.327 . S
C1367 H1361 0.950 . S
C1367 C1366 1.327 . S
C1367 C1371 1.429 . S
C1368 C1351 1.574 . S
C1368 H1362 0.949 . S
C1368 C1372 1.368 . S
C1369 C1350 1.429 . S
C1369 C1363 1.429 . S
C1369 C1370 1.523 . S
C1370 C1351 1.368 . S
C1370 C1364 1.368 . S
C1370 C1369 1.523 . S
C1371 C1355 1.429 . S
C1371 C1367 1.429 . S
C1371 C1372 1.523 . S
C1372 C1356 1.368 . S
C1372 C1368 1.368 . S
C1372 C1371 1.523 . S
H1373 C1348 0.950 . S
H1374 C1350 0.950 . S
H1375 C1351 0.949 . S
H1376 C1353 0.950 . S
H1377 C1355 0.950 . S
C1378 C1379 1.349 . S
C1378 C1380 1.327 . S
C1378 H1403 0.950 . S
C1379 C1378 1.349 . S
C1379 C1395 1.349 . S
C1380 C1378 1.327 . S
C1380 C1399 1.429 . S
C1380 H1404 0.950 . S
C1381 C1398 1.574 . S
C1381 C1400 1.368 . S
C1381 H1405 0.949 . S
H1382 C1386 0.949 1_455 S
C1383 C1384 1.349 . S
C1383 C1385 1.327 . S
C1383 H1406 0.950 . S
C1384 C1383 1.349 . S
C1384 C1396 1.349 . S
C1385 C1383 1.327 . S
C1385 C1401 1.429 . S
C1385 H1407 0.950 . S
C1386 H1382 0.949 1_655 S
C1386 C1394 1.574 . S
C1386 C1402 1.368 1_655 S
H1387 C1395 0.950 . S
H1388 C1393 0.950 . S
H1389 C1394 0.949 . S
H1390 C1396 0.950 . S
H1391 C1397 0.950 . S
H1392 C1398 0.949 1_455 S
C1393 H1388 0.950 . S
C1393 C1395 1.327 . S
C1393 C1399 1.429 . S
C1394 C1386 1.574 . S
C1394 H1389 0.949 . S
C1394 C1400 1.368 . S
C1395 C1379 1.349 . S
C1395 H1387 0.950 . S
C1395 C1393 1.327 . S
C1396 C1384 1.349 . S
C1396 H1390 0.950 . S
C1396 C1397 1.327 . S
C1397 H1391 0.950 . S
C1397 C1396 1.327 . S
C1397 C1401 1.429 . S
C1398 C1381 1.574 . S
C1398 H1392 0.949 1_655 S
C1398 C1402 1.368 1_655 S
C1399 C1380 1.429 . S
C1399 C1393 1.429 . S
C1399 C1400 1.523 . S
C1400 C1381 1.368 . S
C1400 C1394 1.368 . S
C1400 C1399 1.523 . S
C1401 C1385 1.429 . S
C1401 C1397 1.429 . S
C1401 C1402 1.523 . S
C1402 C1386 1.368 1_455 S
C1402 C1398 1.368 1_455 S
C1402 C1401 1.523 . S
H1403 C1378 0.950 . S
H1404 C1380 0.950 . S
H1405 C1381 0.949 . S
H1406 C1383 0.950 . S
H1407 C1385 0.950 . S
C1408 C1409 1.349 . S
C1408 C1410 1.327 . S
C1408 H1433 0.950 . S
C1409 C1408 1.349 . S
C1409 C1425 1.349 . S
C1410 C1408 1.327 . S
C1410 C1429 1.429 . S
C1410 H1434 0.950 . S
C1411 C1428 1.574 . S
C1411 C1430 1.368 . S
C1411 H1435 0.949 . S
H1412 C1416 0.949 . S
C1413 C1414 1.349 . S
C1413 C1415 1.327 . S
C1413 H1436 0.950 . S
C1414 C1413 1.349 . S
C1414 C1426 1.349 . S
C1415 C1413 1.327 . S
C1415 C1431 1.429 . S
C1415 H1437 0.950 . S
C1416 H1412 0.949 . S
C1416 C1424 1.574 . S
C1416 C1432 1.368 . S
H1417 C1425 0.950 . S
H1418 C1423 0.950 . S
H1419 C1424 0.949 . S
H1420 C1426 0.950 . S
H1421 C1427 0.950 . S
H1422 C1428 0.949 . S
C1423 H1418 0.950 . S
C1423 C1425 1.327 . S
C1423 C1429 1.429 . S
C1424 C1416 1.574 . S
C1424 H1419 0.949 . S
C1424 C1430 1.368 . S
C1425 C1409 1.349 . S
C1425 H1417 0.950 . S
C1425 C1423 1.327 . S
C1426 C1414 1.349 . S
C1426 H1420 0.950 . S
C1426 C1427 1.327 . S
C1427 H1421 0.950 . S
C1427 C1426 1.327 . S
C1427 C1431 1.429 . S
C1428 C1411 1.574 . S
C1428 H1422 0.949 . S
C1428 C1432 1.368 . S
C1429 C1410 1.429 . S
C1429 C1423 1.429 . S
C1429 C1430 1.523 . S
C1430 C1411 1.368 . S
C1430 C1424 1.368 . S
C1430 C1429 1.523 . S
C1431 C1415 1.429 . S
C1431 C1427 1.429 . S
C1431 C1432 1.523 . S
C1432 C1416 1.368 . S
C1432 C1428 1.368 . S
C1432 C1431 1.523 . S
H1433 C1408 0.950 . S
H1434 C1410 0.950 . S
H1435 C1411 0.949 . S
H1436 C1413 0.950 . S
H1437 C1415 0.950 . S
C1438 C1439 1.349 . S
C1438 C1440 1.327 . S
C1438 H1463 0.950 . S
C1439 C1438 1.349 . S
C1439 C1455 1.349 . S
C1440 C1438 1.327 . S
C1440 C1459 1.429 . S
C1440 H1464 0.950 . S
C1441 C1458 1.574 . S
C1441 C1460 1.368 . S
C1441 H1465 0.949 . S
H1442 C1446 0.949 . S
C1443 C1444 1.349 . S
C1443 C1445 1.327 . S
C1443 H1466 0.950 . S
C1444 C1443 1.349 . S
C1444 C1456 1.349 . S
C1445 C1443 1.327 . S
C1445 C1461 1.429 . S
C1445 H1467 0.950 . S
C1446 H1442 0.949 . S
C1446 C1454 1.574 . S
C1446 C1462 1.368 . S
H1447 C1455 0.950 . S
H1448 C1453 0.950 . S
H1449 C1454 0.949 . S
H1450 C1456 0.950 . S
H1451 C1457 0.950 . S
H1452 C1458 0.949 . S
C1453 H1448 0.950 . S
C1453 C1455 1.327 . S
C1453 C1459 1.429 . S
C1454 C1446 1.574 . S
C1454 H1449 0.949 . S
C1454 C1460 1.368 . S
C1455 C1439 1.349 . S
C1455 H1447 0.950 . S
C1455 C1453 1.327 . S
C1456 C1444 1.349 . S
C1456 H1450 0.950 . S
C1456 C1457 1.327 . S
C1457 H1451 0.950 . S
C1457 C1456 1.327 . S
C1457 C1461 1.429 . S
C1458 C1441 1.574 . S
C1458 H1452 0.949 . S
C1458 C1462 1.368 . S
C1459 C1440 1.429 . S
C1459 C1453 1.429 . S
C1459 C1460 1.523 . S
C1460 C1441 1.368 . S
C1460 C1454 1.368 . S
C1460 C1459 1.523 . S
C1461 C1445 1.429 . S
C1461 C1457 1.429 . S
C1461 C1462 1.523 . S
C1462 C1446 1.368 . S
C1462 C1458 1.368 . S
C1462 C1461 1.523 . S
H1463 C1438 0.950 . S
H1464 C1440 0.950 . S
H1465 C1441 0.949 . S
H1466 C1443 0.950 . S
H1467 C1445 0.950 . S
C1468 C1469 1.349 . S
C1468 C1470 1.327 . S
C1468 H1493 0.950 . S
C1469 C1468 1.349 . S
C1469 C1485 1.349 . S
C1470 C1468 1.327 . S
C1470 C1489 1.429 . S
C1470 H1494 0.950 . S
C1471 C1488 1.574 . S
C1471 C1490 1.368 . S
C1471 H1495 0.949 . S
H1472 C1476 0.949 . S
C1473 C1474 1.349 . S
C1473 C1475 1.327 . S
C1473 H1496 0.950 . S
C1474 C1473 1.349 . S
C1474 C1486 1.349 . S
C1475 C1473 1.327 . S
C1475 C1491 1.429 . S
C1475 H1497 0.950 . S
C1476 H1472 0.949 . S
C1476 C1484 1.574 . S
C1476 C1492 1.368 . S
H1477 C1485 0.950 . S
H1478 C1483 0.950 . S
H1479 C1484 0.949 . S
H1480 C1486 0.950 . S
H1481 C1487 0.950 . S
H1482 C1488 0.949 . S
C1483 H1478 0.950 . S
C1483 C1485 1.327 . S
C1483 C1489 1.429 . S
C1484 C1476 1.574 . S
C1484 H1479 0.949 . S
C1484 C1490 1.368 . S
C1485 C1469 1.349 . S
C1485 H1477 0.950 . S
C1485 C1483 1.327 . S
C1486 C1474 1.349 . S
C1486 H1480 0.950 . S
C1486 C1487 1.327 . S
C1487 H1481 0.950 . S
C1487 C1486 1.327 . S
C1487 C1491 1.429 . S
C1488 C1471 1.574 . S
C1488 H1482 0.949 . S
C1488 C1492 1.368 . S
C1489 C1470 1.429 . S
C1489 C1483 1.429 . S
C1489 C1490 1.523 . S
C1490 C1471 1.368 . S
C1490 C1484 1.368 . S
C1490 C1489 1.523 . S
C1491 C1475 1.429 . S
C1491 C1487 1.429 . S
C1491 C1492 1.523 . S
C1492 C1476 1.368 . S
C1492 C1488 1.368 . S
C1492 C1491 1.523 . S
H1493 C1468 0.950 . S
H1494 C1470 0.950 . S
H1495 C1471 0.949 . S
H1496 C1473 0.950 . S
H1497 C1475 0.950 . S
C1498 C1499 1.349 . S
C1498 C1500 1.327 . S
C1498 H1523 0.950 . S
C1499 C1498 1.349 . S
C1499 C1515 1.349 . S
C1500 C1498 1.327 . S
C1500 C1519 1.429 . S
C1500 H1524 0.950 . S
C1501 C1518 1.574 . S
C1501 C1520 1.368 . S
C1501 H1525 0.949 . S
H1502 C1506 0.949 1_455 S
C1503 C1504 1.349 . S
C1503 C1505 1.327 . S
C1503 H1526 0.950 . S
C1504 C1503 1.349 . S
C1504 C1516 1.349 . S
C1505 C1503 1.327 . S
C1505 C1521 1.429 . S
C1505 H1527 0.950 . S
C1506 H1502 0.949 1_655 S
C1506 C1514 1.574 . S
C1506 C1522 1.368 1_655 S
H1507 C1515 0.950 . S
H1508 C1513 0.950 . S
H1509 C1514 0.949 . S
H1510 C1516 0.950 . S
H1511 C1517 0.950 . S
H1512 C1518 0.949 1_455 S
C1513 H1508 0.950 . S
C1513 C1515 1.327 . S
C1513 C1519 1.429 . S
C1514 C1506 1.574 . S
C1514 H1509 0.949 . S
C1514 C1520 1.368 . S
C1515 C1499 1.349 . S
C1515 H1507 0.950 . S
C1515 C1513 1.327 . S
C1516 C1504 1.349 . S
C1516 H1510 0.950 . S
C1516 C1517 1.327 . S
C1517 H1511 0.950 . S
C1517 C1516 1.327 . S
C1517 C1521 1.429 . S
C1518 C1501 1.574 . S
C1518 H1512 0.949 1_655 S
C1518 C1522 1.368 1_655 S
C1519 C1500 1.429 . S
C1519 C1513 1.429 . S
C1519 C1520 1.523 . S
C1520 C1501 1.368 . S
C1520 C1514 1.368 . S
C1520 C1519 1.523 . S
C1521 C1505 1.429 . S
C1521 C1517 1.429 . S
C1521 C1522 1.523 . S
C1522 C1506 1.368 1_455 S
C1522 C1518 1.368 1_455 S
C1522 C1521 1.523 . S
H1523 C1498 0.950 . S
H1524 C1500 0.950 . S
H1525 C1501 0.949 . S
H1526 C1503 0.950 . S
H1527 C1505 0.950 . S
C1528 C1529 1.349 . S
C1528 C1530 1.327 . S
C1528 H1553 0.950 . S
C1529 C1528 1.349 . S
C1529 C1545 1.349 . S
C1530 C1528 1.327 . S
C1530 C1549 1.429 . S
C1530 H1554 0.950 . S
C1531 C1548 1.574 . S
C1531 C1550 1.368 . S
C1531 H1555 0.949 . S
H1532 C1536 0.949 . S
C1533 C1534 1.349 . S
C1533 C1535 1.327 . S
C1533 H1556 0.950 . S
C1534 C1533 1.349 . S
C1534 C1546 1.349 . S
C1535 C1533 1.327 . S
C1535 C1551 1.429 . S
C1535 H1557 0.950 . S
C1536 H1532 0.949 . S
C1536 C1544 1.574 . S
C1536 C1552 1.368 . S
H1537 C1545 0.950 . S
H1538 C1543 0.950 . S
H1539 C1544 0.949 . S
H1540 C1546 0.950 . S
H1541 C1547 0.950 . S
H1542 C1548 0.949 . S
C1543 H1538 0.950 . S
C1543 C1545 1.327 . S
C1543 C1549 1.429 . S
C1544 C1536 1.574 . S
C1544 H1539 0.949 . S
C1544 C1550 1.368 . S
C1545 C1529 1.349 . S
C1545 H1537 0.950 . S
C1545 C1543 1.327 . S
C1546 C1534 1.349 . S
C1546 H1540 0.950 . S
C1546 C1547 1.327 . S
C1547 H1541 0.950 . S
C1547 C1546 1.327 . S
C1547 C1551 1.429 . S
C1548 C1531 1.574 . S
C1548 H1542 0.949 . S
C1548 C1552 1.368 . S
C1549 C1530 1.429 . S
C1549 C1543 1.429 . S
C1549 C1550 1.523 . S
C1550 C1531 1.368 . S
C1550 C1544 1.368 . S
C1550 C1549 1.523 . S
C1551 C1535 1.429 . S
C1551 C1547 1.429 . S
C1551 C1552 1.523 . S
C1552 C1536 1.368 . S
C1552 C1548 1.368 . S
C1552 C1551 1.523 . S
H1553 C1528 0.950 . S
H1554 C1530 0.950 . S
H1555 C1531 0.949 . S
H1556 C1533 0.950 . S
H1557 C1535 0.950 . S
C1558 C1559 1.349 . S
C1558 C1560 1.327 . S
C1558 H1583 0.950 . S
C1559 C1558 1.349 . S
C1559 C1575 1.349 . S
C1560 C1558 1.327 . S
C1560 C1579 1.429 . S
C1560 H1584 0.950 . S
C1561 C1578 1.574 . S
C1561 C1580 1.368 1_655 S
C1561 H1585 0.949 1_655 S
H1562 C1566 0.949 . S
C1563 C1564 1.349 . S
C1563 C1565 1.327 . S
C1563 H1586 0.950 . S
C1564 C1563 1.349 . S
C1564 C1576 1.349 . S
C1565 C1563 1.327 . S
C1565 C1581 1.429 . S
C1565 H1587 0.950 . S
C1566 H1562 0.949 . S
C1566 C1574 1.574 . S
C1566 C1582 1.368 . S
H1567 C1575 0.950 . S
H1568 C1573 0.950 . S
H1569 C1574 0.949 1_455 S
H1570 C1576 0.950 . S
H1571 C1577 0.950 . S
H1572 C1578 0.949 . S
C1573 H1568 0.950 . S
C1573 C1575 1.327 . S
C1573 C1579 1.429 . S
C1574 C1566 1.574 . S
C1574 H1569 0.949 1_655 S
C1574 C1580 1.368 1_655 S
C1575 C1559 1.349 . S
C1575 H1567 0.950 . S
C1575 C1573 1.327 . S
C1576 C1564 1.349 . S
C1576 H1570 0.950 . S
C1576 C1577 1.327 . S
C1577 H1571 0.950 . S
C1577 C1576 1.327 . S
C1577 C1581 1.429 . S
C1578 C1561 1.574 . S
C1578 H1572 0.949 . S
C1578 C1582 1.368 . S
C1579 C1560 1.429 . S
C1579 C1573 1.429 . S
C1579 C1580 1.523 . S
C1580 C1561 1.368 1_455 S
C1580 C1574 1.368 1_455 S
C1580 C1579 1.523 . S
C1581 C1565 1.429 . S
C1581 C1577 1.429 . S
C1581 C1582 1.523 . S
C1582 C1566 1.368 . S
C1582 C1578 1.368 . S
C1582 C1581 1.523 . S
H1583 C1558 0.950 . S
H1584 C1560 0.950 . S
H1585 C1561 0.949 1_455 S
H1586 C1563 0.950 . S
H1587 C1565 0.950 . S
C1588 C1589 1.349 . S
C1588 C1590 1.327 . S
C1588 H1613 0.950 . S
C1589 C1588 1.349 . S
C1589 C1605 1.349 . S
C1590 C1588 1.327 . S
C1590 C1609 1.429 . S
C1590 H1614 0.950 . S
C1591 C1608 1.574 . S
C1591 C1610 1.368 . S
C1591 H1615 0.949 . S
H1592 C1596 0.949 . S
C1593 C1594 1.349 . S
C1593 C1595 1.327 . S
C1593 H1616 0.950 . S
C1594 C1593 1.349 . S
C1594 C1606 1.349 . S
C1595 C1593 1.327 . S
C1595 C1611 1.429 . S
C1595 H1617 0.950 . S
C1596 H1592 0.949 . S
C1596 C1604 1.574 . S
C1596 C1612 1.368 . S
H1597 C1605 0.950 . S
H1598 C1603 0.950 . S
H1599 C1604 0.949 . S
H1600 C1606 0.950 . S
H1601 C1607 0.950 . S
H1602 C1608 0.949 . S
C1603 H1598 0.950 . S
C1603 C1605 1.327 . S
C1603 C1609 1.429 . S
C1604 C1596 1.574 . S
C1604 H1599 0.949 . S
C1604 C1610 1.368 . S
C1605 C1589 1.349 . S
C1605 H1597 0.950 . S
C1605 C1603 1.327 . S
C1606 C1594 1.349 . S
C1606 H1600 0.950 . S
C1606 C1607 1.327 . S
C1607 H1601 0.950 . S
C1607 C1606 1.327 . S
C1607 C1611 1.429 . S
C1608 C1591 1.574 . S
C1608 H1602 0.949 . S
C1608 C1612 1.368 . S
C1609 C1590 1.429 . S
C1609 C1603 1.429 . S
C1609 C1610 1.523 . S
C1610 C1591 1.368 . S
C1610 C1604 1.368 . S
C1610 C1609 1.523 . S
C1611 C1595 1.429 . S
C1611 C1607 1.429 . S
C1611 C1612 1.523 . S
C1612 C1596 1.368 . S
C1612 C1608 1.368 . S
C1612 C1611 1.523 . S
H1613 C1588 0.950 . S
H1614 C1590 0.950 . S
H1615 C1591 0.949 . S
H1616 C1593 0.950 . S
H1617 C1595 0.950 . S
C1618 C1619 1.349 . S
C1618 C1620 1.327 . S
C1618 H1643 0.950 . S
C1619 C1618 1.349 . S
C1619 C1635 1.349 . S
C1620 C1618 1.327 . S
C1620 C1639 1.429 . S
C1620 H1644 0.950 . S
C1621 C1638 1.574 . S
C1621 C1640 1.368 . S
C1621 H1645 0.949 . S
H1622 C1626 0.949 . S
C1623 C1624 1.349 . S
C1623 C1625 1.327 . S
C1623 H1646 0.950 . S
C1624 C1623 1.349 . S
C1624 C1636 1.349 . S
C1625 C1623 1.327 . S
C1625 C1641 1.429 . S
C1625 H1647 0.950 . S
C1626 H1622 0.949 . S
C1626 C1634 1.574 . S
C1626 C1642 1.368 . S
H1627 C1635 0.950 . S
H1628 C1633 0.950 . S
H1629 C1634 0.949 . S
H1630 C1636 0.950 . S
H1631 C1637 0.950 . S
H1632 C1638 0.949 . S
C1633 H1628 0.950 . S
C1633 C1635 1.327 . S
C1633 C1639 1.429 . S
C1634 C1626 1.574 . S
C1634 H1629 0.949 . S
C1634 C1640 1.368 . S
C1635 C1619 1.349 . S
C1635 H1627 0.950 . S
C1635 C1633 1.327 . S
C1636 C1624 1.349 . S
C1636 H1630 0.950 . S
C1636 C1637 1.327 . S
C1637 H1631 0.950 . S
C1637 C1636 1.327 . S
C1637 C1641 1.429 . S
C1638 C1621 1.574 . S
C1638 H1632 0.949 . S
C1638 C1642 1.368 . S
C1639 C1620 1.429 . S
C1639 C1633 1.429 . S
C1639 C1640 1.523 . S
C1640 C1621 1.368 . S
C1640 C1634 1.368 . S
C1640 C1639 1.523 . S
C1641 C1625 1.429 . S
C1641 C1637 1.429 . S
C1641 C1642 1.523 . S
C1642 C1626 1.368 . S
C1642 C1638 1.368 . S
C1642 C1641 1.523 . S
H1643 C1618 0.950 . S
H1644 C1620 0.950 . S
H1645 C1621 0.949 . S
H1646 C1623 0.950 . S
H1647 C1625 0.950 . S
C1648 C1649 1.349 . S
C1648 C1650 1.327 . S
C1648 H1673 0.950 . S
C1649 C1648 1.349 . S
C1649 C1665 1.349 . S
C1650 C1648 1.327 . S
C1650 C1669 1.429 . S
C1650 H1674 0.950 . S
C1651 C1668 1.574 . S
C1651 C1670 1.368 . S
C1651 H1675 0.949 . S
H1652 C1656 0.949 . S
C1653 C1654 1.349 . S
C1653 C1655 1.327 . S
C1653 H1676 0.950 . S
C1654 C1653 1.349 . S
C1654 C1666 1.349 . S
C1655 C1653 1.327 . S
C1655 C1671 1.429 . S
C1655 H1677 0.950 . S
C1656 H1652 0.949 . S
C1656 C1664 1.574 . S
C1656 C1672 1.368 . S
H1657 C1665 0.950 . S
H1658 C1663 0.950 . S
H1659 C1664 0.949 . S
H1660 C1666 0.950 . S
H1661 C1667 0.950 . S
H1662 C1668 0.949 . S
C1663 H1658 0.950 . S
C1663 C1665 1.327 . S
C1663 C1669 1.429 . S
C1664 C1656 1.574 . S
C1664 H1659 0.949 . S
C1664 C1670 1.368 . S
C1665 C1649 1.349 . S
C1665 H1657 0.950 . S
C1665 C1663 1.327 . S
C1666 C1654 1.349 . S
C1666 H1660 0.950 . S
C1666 C1667 1.327 . S
C1667 H1661 0.950 . S
C1667 C1666 1.327 . S
C1667 C1671 1.429 . S
C1668 C1651 1.574 . S
C1668 H1662 0.949 . S
C1668 C1672 1.368 . S
C1669 C1650 1.429 . S
C1669 C1663 1.429 . S
C1669 C1670 1.523 . S
C1670 C1651 1.368 . S
C1670 C1664 1.368 . S
C1670 C1669 1.523 . S
C1671 C1655 1.429 . S
C1671 C1667 1.429 . S
C1671 C1672 1.523 . S
C1672 C1656 1.368 . S
C1672 C1668 1.368 . S
C1672 C1671 1.523 . S
H1673 C1648 0.950 . S
H1674 C1650 0.950 . S
H1675 C1651 0.949 . S
H1676 C1653 0.950 . S
H1677 C1655 0.950 . S
C1678 C1679 1.349 . S
C1678 C1680 1.327 . S
C1678 H1703 0.950 . S
C1679 C1678 1.349 . S
C1679 C1695 1.349 . S
C1680 C1678 1.327 . S
C1680 C1699 1.429 . S
C1680 H1704 0.950 . S
C1681 C1698 1.574 . S
C1681 C1700 1.368 . S
C1681 H1705 0.949 . S
H1682 C1686 0.949 . S
C1683 C1684 1.349 . S
C1683 C1685 1.327 . S
C1683 H1706 0.950 . S
C1684 C1683 1.349 . S
C1684 C1696 1.349 . S
C1685 C1683 1.327 . S
C1685 C1701 1.429 . S
C1685 H1707 0.950 . S
C1686 H1682 0.949 . S
C1686 C1694 1.574 . S
C1686 C1702 1.368 . S
H1687 C1695 0.950 . S
H1688 C1693 0.950 . S
H1689 C1694 0.949 . S
H1690 C1696 0.950 . S
H1691 C1697 0.950 . S
H1692 C1698 0.949 . S
C1693 H1688 0.950 . S
C1693 C1695 1.327 . S
C1693 C1699 1.429 . S
C1694 C1686 1.574 . S
C1694 H1689 0.949 . S
C1694 C1700 1.368 . S
C1695 C1679 1.349 . S
C1695 H1687 0.950 . S
C1695 C1693 1.327 . S
C1696 C1684 1.349 . S
C1696 H1690 0.950 . S
C1696 C1697 1.327 . S
C1697 H1691 0.950 . S
C1697 C1696 1.327 . S
C1697 C1701 1.429 . S
C1698 C1681 1.574 . S
C1698 H1692 0.949 . S
C1698 C1702 1.368 . S
C1699 C1680 1.429 . S
C1699 C1693 1.429 . S
C1699 C1700 1.523 . S
C1700 C1681 1.368 . S
C1700 C1694 1.368 . S
C1700 C1699 1.523 . S
C1701 C1685 1.429 . S
C1701 C1697 1.429 . S
C1701 C1702 1.523 . S
C1702 C1686 1.368 . S
C1702 C1698 1.368 . S
C1702 C1701 1.523 . S
H1703 C1678 0.950 . S
H1704 C1680 0.950 . S
H1705 C1681 0.949 . S
H1706 C1683 0.950 . S
H1707 C1685 0.950 . S
C1708 C1709 1.349 . S
C1708 C1710 1.327 . S
C1708 H1733 0.950 . S
C1709 C1708 1.349 . S
C1709 C1725 1.349 . S
C1710 C1708 1.327 . S
C1710 C1729 1.429 . S
C1710 H1734 0.950 . S
C1711 C1728 1.574 . S
C1711 C1730 1.368 . S
C1711 H1735 0.949 . S
H1712 C1716 0.949 . S
C1713 C1714 1.349 . S
C1713 C1715 1.327 . S
C1713 H1736 0.950 . S
C1714 C1713 1.349 . S
C1714 C1726 1.349 . S
C1715 C1713 1.327 . S
C1715 C1731 1.429 . S
C1715 H1737 0.950 . S
C1716 H1712 0.949 . S
C1716 C1724 1.574 . S
C1716 C1732 1.368 . S
H1717 C1725 0.950 . S
H1718 C1723 0.950 . S
H1719 C1724 0.949 . S
H1720 C1726 0.950 . S
H1721 C1727 0.950 . S
H1722 C1728 0.949 . S
C1723 H1718 0.950 . S
C1723 C1725 1.327 . S
C1723 C1729 1.429 . S
C1724 C1716 1.574 . S
C1724 H1719 0.949 . S
C1724 C1730 1.368 . S
C1725 C1709 1.349 . S
C1725 H1717 0.950 . S
C1725 C1723 1.327 . S
C1726 C1714 1.349 . S
C1726 H1720 0.950 . S
C1726 C1727 1.327 . S
C1727 H1721 0.950 . S
C1727 C1726 1.327 . S
C1727 C1731 1.429 . S
C1728 C1711 1.574 . S
C1728 H1722 0.949 . S
C1728 C1732 1.368 . S
C1729 C1710 1.429 . S
C1729 C1723 1.429 . S
C1729 C1730 1.523 . S
C1730 C1711 1.368 . S
C1730 C1724 1.368 . S
C1730 C1729 1.523 . S
C1731 C1715 1.429 . S
C1731 C1727 1.429 . S
C1731 C1732 1.523 . S
C1732 C1716 1.368 . S
C1732 C1728 1.368 . S
C1732 C1731 1.523 . S
H1733 C1708 0.950 . S
H1734 C1710 0.950 . S
H1735 C1711 0.949 . S
H1736 C1713 0.950 . S
H1737 C1715 0.950 . S
C1738 C1739 1.349 . S
C1738 C1740 1.327 . S
C1738 H1763 0.950 . S
C1739 C1738 1.349 . S
C1739 C1755 1.349 . S
C1740 C1738 1.327 . S
C1740 C1759 1.429 . S
C1740 H1764 0.950 . S
C1741 C1758 1.574 . S
C1741 C1760 1.368 . S
C1741 H1765 0.949 . S
H1742 C1746 0.949 1_655 S
C1743 C1744 1.349 . S
C1743 C1745 1.327 . S
C1743 H1766 0.950 . S
C1744 C1743 1.349 . S
C1744 C1756 1.349 . S
C1745 C1743 1.327 . S
C1745 C1761 1.429 . S
C1745 H1767 0.950 . S
C1746 H1742 0.949 1_455 S
C1746 C1754 1.574 . S
C1746 C1762 1.368 1_455 S
H1747 C1755 0.950 . S
H1748 C1753 0.950 . S
H1749 C1754 0.949 . S
H1750 C1756 0.950 . S
H1751 C1757 0.950 . S
H1752 C1758 0.949 1_655 S
C1753 H1748 0.950 . S
C1753 C1755 1.327 . S
C1753 C1759 1.429 . S
C1754 C1746 1.574 . S
C1754 H1749 0.949 . S
C1754 C1760 1.368 . S
C1755 C1739 1.349 . S
C1755 H1747 0.950 . S
C1755 C1753 1.327 . S
C1756 C1744 1.349 . S
C1756 H1750 0.950 . S
C1756 C1757 1.327 . S
C1757 H1751 0.950 . S
C1757 C1756 1.327 . S
C1757 C1761 1.429 . S
C1758 C1741 1.574 . S
C1758 H1752 0.949 1_455 S
C1758 C1762 1.368 1_455 S
C1759 C1740 1.429 . S
C1759 C1753 1.429 . S
C1759 C1760 1.523 . S
C1760 C1741 1.368 . S
C1760 C1754 1.368 . S
C1760 C1759 1.523 . S
C1761 C1745 1.429 . S
C1761 C1757 1.429 . S
C1761 C1762 1.523 . S
C1762 C1746 1.368 1_655 S
C1762 C1758 1.368 1_655 S
C1762 C1761 1.523 . S
H1763 C1738 0.950 . S
H1764 C1740 0.950 . S
H1765 C1741 0.949 . S
H1766 C1743 0.950 . S
H1767 C1745 0.950 . S
C1768 C1769 1.349 . S
C1768 C1770 1.327 . S
C1768 H1793 0.950 . S
C1769 C1768 1.349 . S
C1769 C1785 1.349 . S
C1770 C1768 1.327 . S
C1770 C1789 1.429 . S
C1770 H1794 0.950 . S
C1771 C1788 1.574 . S
C1771 C1790 1.368 . S
C1771 H1795 0.949 . S
H1772 C1776 0.949 . S
C1773 C1774 1.349 . S
C1773 C1775 1.327 . S
C1773 H1796 0.950 . S
C1774 C1773 1.349 . S
C1774 C1786 1.349 . S
C1775 C1773 1.327 . S
C1775 C1791 1.429 . S
C1775 H1797 0.950 . S
C1776 H1772 0.949 . S
C1776 C1784 1.574 . S
C1776 C1792 1.368 . S
H1777 C1785 0.950 . S
H1778 C1783 0.950 . S
H1779 C1784 0.949 . S
H1780 C1786 0.950 . S
H1781 C1787 0.950 . S
H1782 C1788 0.949 . S
C1783 H1778 0.950 . S
C1783 C1785 1.327 . S
C1783 C1789 1.429 . S
C1784 C1776 1.574 . S
C1784 H1779 0.949 . S
C1784 C1790 1.368 . S
C1785 C1769 1.349 . S
C1785 H1777 0.950 . S
C1785 C1783 1.327 . S
C1786 C1774 1.349 . S
C1786 H1780 0.950 . S
C1786 C1787 1.327 . S
C1787 H1781 0.950 . S
C1787 C1786 1.327 . S
C1787 C1791 1.429 . S
C1788 C1771 1.574 . S
C1788 H1782 0.949 . S
C1788 C1792 1.368 . S
C1789 C1770 1.429 . S
C1789 C1783 1.429 . S
C1789 C1790 1.523 . S
C1790 C1771 1.368 . S
C1790 C1784 1.368 . S
C1790 C1789 1.523 . S
C1791 C1775 1.429 . S
C1791 C1787 1.429 . S
C1791 C1792 1.523 . S
C1792 C1776 1.368 . S
C1792 C1788 1.368 . S
C1792 C1791 1.523 . S
H1793 C1768 0.950 . S
H1794 C1770 0.950 . S
H1795 C1771 0.949 . S
H1796 C1773 0.950 . S
H1797 C1775 0.950 . S
C1798 C1799 1.349 . S
C1798 C1800 1.327 . S
C1798 H1823 0.950 . S
C1799 C1798 1.349 . S
C1799 C1815 1.349 . S
C1800 C1798 1.327 . S
C1800 C1819 1.429 . S
C1800 H1824 0.950 . S
C1801 C1818 1.574 . S
C1801 C1820 1.368 1_455 S
C1801 H1825 0.949 1_455 S
H1802 C1806 0.949 . S
C1803 C1804 1.349 . S
C1803 C1805 1.327 . S
C1803 H1826 0.950 . S
C1804 C1803 1.349 . S
C1804 C1816 1.349 . S
C1805 C1803 1.327 . S
C1805 C1821 1.429 . S
C1805 H1827 0.950 . S
C1806 H1802 0.949 . S
C1806 C1814 1.574 . S
C1806 C1822 1.368 . S
H1807 C1815 0.950 . S
H1808 C1813 0.950 . S
H1809 C1814 0.949 1_655 S
H1810 C1816 0.950 . S
H1811 C1817 0.950 . S
H1812 C1818 0.949 . S
C1813 H1808 0.950 . S
C1813 C1815 1.327 . S
C1813 C1819 1.429 . S
C1814 C1806 1.574 . S
C1814 H1809 0.949 1_455 S
C1814 C1820 1.368 1_455 S
C1815 C1799 1.349 . S
C1815 H1807 0.950 . S
C1815 C1813 1.327 . S
C1816 C1804 1.349 . S
C1816 H1810 0.950 . S
C1816 C1817 1.327 . S
C1817 H1811 0.950 . S
C1817 C1816 1.327 . S
C1817 C1821 1.429 . S
C1818 C1801 1.574 . S
C1818 H1812 0.949 . S
C1818 C1822 1.368 . S
C1819 C1800 1.429 . S
C1819 C1813 1.429 . S
C1819 C1820 1.523 . S
C1820 C1801 1.368 1_655 S
C1820 C1814 1.368 1_655 S
C1820 C1819 1.523 . S
C1821 C1805 1.429 . S
C1821 C1817 1.429 . S
C1821 C1822 1.523 . S
C1822 C1806 1.368 . S
C1822 C1818 1.368 . S
C1822 C1821 1.523 . S
H1823 C1798 0.950 . S
H1824 C1800 0.950 . S
H1825 C1801 0.949 1_655 S
H1826 C1803 0.950 . S
H1827 C1805 0.950 . S
C1828 C1829 1.349 . S
C1828 C1830 1.327 . S
C1828 H1853 0.950 . S
C1829 C1828 1.349 . S
C1829 C1845 1.349 . S
C1830 C1828 1.327 . S
C1830 C1849 1.429 . S
C1830 H1854 0.950 . S
C1831 C1848 1.574 . S
C1831 C1850 1.368 . S
C1831 H1855 0.949 . S
H1832 C1836 0.949 . S
C1833 C1834 1.349 . S
C1833 C1835 1.327 . S
C1833 H1856 0.950 . S
C1834 C1833 1.349 . S
C1834 C1846 1.349 . S
C1835 C1833 1.327 . S
C1835 C1851 1.429 . S
C1835 H1857 0.950 . S
C1836 H1832 0.949 . S
C1836 C1844 1.574 . S
C1836 C1852 1.368 . S
H1837 C1845 0.950 . S
H1838 C1843 0.950 . S
H1839 C1844 0.949 . S
H1840 C1846 0.950 . S
H1841 C1847 0.950 . S
H1842 C1848 0.949 . S
C1843 H1838 0.950 . S
C1843 C1845 1.327 . S
C1843 C1849 1.429 . S
C1844 C1836 1.574 . S
C1844 H1839 0.949 . S
C1844 C1850 1.368 . S
C1845 C1829 1.349 . S
C1845 H1837 0.950 . S
C1845 C1843 1.327 . S
C1846 C1834 1.349 . S
C1846 H1840 0.950 . S
C1846 C1847 1.327 . S
C1847 H1841 0.950 . S
C1847 C1846 1.327 . S
C1847 C1851 1.429 . S
C1848 C1831 1.574 . S
C1848 H1842 0.949 . S
C1848 C1852 1.368 . S
C1849 C1830 1.429 . S
C1849 C1843 1.429 . S
C1849 C1850 1.523 . S
C1850 C1831 1.368 . S
C1850 C1844 1.368 . S
C1850 C1849 1.523 . S
C1851 C1835 1.429 . S
C1851 C1847 1.429 . S
C1851 C1852 1.523 . S
C1852 C1836 1.368 . S
C1852 C1848 1.368 . S
C1852 C1851 1.523 . S
H1853 C1828 0.950 . S
H1854 C1830 0.950 . S
H1855 C1831 0.949 . S
H1856 C1833 0.950 . S
H1857 C1835 0.950 . S
C1858 C1859 1.349 . S
C1858 C1860 1.327 . S
C1858 H1883 0.950 . S
C1859 C1858 1.349 . S
C1859 C1875 1.349 . S
C1860 C1858 1.327 . S
C1860 C1879 1.429 . S
C1860 H1884 0.950 . S
C1861 C1878 1.574 . S
C1861 C1880 1.368 . S
C1861 H1885 0.949 . S
H1862 C1866 0.949 . S
C1863 C1864 1.349 . S
C1863 C1865 1.327 . S
C1863 H1886 0.950 . S
C1864 C1863 1.349 . S
C1864 C1876 1.349 . S
C1865 C1863 1.327 . S
C1865 C1881 1.429 . S
C1865 H1887 0.950 . S
C1866 H1862 0.949 . S
C1866 C1874 1.574 . S
C1866 C1882 1.368 . S
H1867 C1875 0.950 . S
H1868 C1873 0.950 . S
H1869 C1874 0.949 . S
H1870 C1876 0.950 . S
H1871 C1877 0.950 . S
H1872 C1878 0.949 . S
C1873 H1868 0.950 . S
C1873 C1875 1.327 . S
C1873 C1879 1.429 . S
C1874 C1866 1.574 . S
C1874 H1869 0.949 . S
C1874 C1880 1.368 . S
C1875 C1859 1.349 . S
C1875 H1867 0.950 . S
C1875 C1873 1.327 . S
C1876 C1864 1.349 . S
C1876 H1870 0.950 . S
C1876 C1877 1.327 . S
C1877 H1871 0.950 . S
C1877 C1876 1.327 . S
C1877 C1881 1.429 . S
C1878 C1861 1.574 . S
C1878 H1872 0.949 . S
C1878 C1882 1.368 . S
C1879 C1860 1.429 . S
C1879 C1873 1.429 . S
C1879 C1880 1.523 . S
C1880 C1861 1.368 . S
C1880 C1874 1.368 . S
C1880 C1879 1.523 . S
C1881 C1865 1.429 . S
C1881 C1877 1.429 . S
C1881 C1882 1.523 . S
C1882 C1866 1.368 . S
C1882 C1878 1.368 . S
C1882 C1881 1.523 . S
H1883 C1858 0.950 . S
H1884 C1860 0.950 . S
H1885 C1861 0.949 . S
H1886 C1863 0.950 . S
H1887 C1865 0.950 . S
C1888 C1889 1.349 . S
C1888 C1890 1.327 . S
C1888 H1913 0.950 . S
C1889 C1888 1.349 . S
C1889 C1905 1.349 . S
C1890 C1888 1.327 . S
C1890 C1909 1.429 . S
C1890 H1914 0.950 . S
C1891 C1908 1.574 . S
C1891 C1910 1.368 . S
C1891 H1915 0.949 . S
H1892 C1896 0.949 . S
C1893 C1894 1.349 . S
C1893 C1895 1.327 . S
C1893 H1916 0.950 . S
C1894 C1893 1.349 . S
C1894 C1906 1.349 . S
C1895 C1893 1.327 . S
C1895 C1911 1.429 . S
C1895 H1917 0.950 . S
C1896 H1892 0.949 . S
C1896 C1904 1.574 . S
C1896 C1912 1.368 . S
H1897 C1905 0.950 . S
H1898 C1903 0.950 . S
H1899 C1904 0.949 . S
H1900 C1906 0.950 . S
H1901 C1907 0.950 . S
H1902 C1908 0.949 . S
C1903 H1898 0.950 . S
C1903 C1905 1.327 . S
C1903 C1909 1.429 . S
C1904 C1896 1.574 . S
C1904 H1899 0.949 . S
C1904 C1910 1.368 . S
C1905 C1889 1.349 . S
C1905 H1897 0.950 . S
C1905 C1903 1.327 . S
C1906 C1894 1.349 . S
C1906 H1900 0.950 . S
C1906 C1907 1.327 . S
C1907 H1901 0.950 . S
C1907 C1906 1.327 . S
C1907 C1911 1.429 . S
C1908 C1891 1.574 . S
C1908 H1902 0.949 . S
C1908 C1912 1.368 . S
C1909 C1890 1.429 . S
C1909 C1903 1.429 . S
C1909 C1910 1.523 . S
C1910 C1891 1.368 . S
C1910 C1904 1.368 . S
C1910 C1909 1.523 . S
C1911 C1895 1.429 . S
C1911 C1907 1.429 . S
C1911 C1912 1.523 . S
C1912 C1896 1.368 . S
C1912 C1908 1.368 . S
C1912 C1911 1.523 . S
H1913 C1888 0.950 . S
H1914 C1890 0.950 . S
H1915 C1891 0.949 . S
H1916 C1893 0.950 . S
H1917 C1895 0.950 . S
C1918 C1919 1.349 . S
C1918 C1920 1.327 . S
C1918 H1943 0.950 . S
C1919 C1918 1.349 . S
C1919 C1935 1.349 . S
C1920 C1918 1.327 . S
C1920 C1939 1.429 . S
C1920 H1944 0.950 . S
C1921 C1938 1.574 . S
C1921 C1940 1.368 . S
C1921 H1945 0.949 . S
H1922 C1926 0.949 . S
C1923 C1924 1.349 . S
C1923 C1925 1.327 1_554 S
C1923 H1946 0.950 . S
C1924 C1923 1.349 . S
C1924 C1936 1.349 . S
C1925 C1923 1.327 1_556 S
C1925 C1941 1.429 . S
C1925 H1947 0.950 . S
C1926 H1922 0.949 . S
C1926 C1934 1.574 . S
C1926 C1942 1.368 . S
H1927 C1935 0.950 . S
H1928 C1933 0.950 . S
H1929 C1934 0.949 . S
H1930 C1936 0.950 . S
H1931 C1937 0.950 . S
H1932 C1938 0.949 . S
C1933 H1928 0.950 . S
C1933 C1935 1.327 . S
C1933 C1939 1.429 . S
C1934 C1926 1.574 . S
C1934 H1929 0.949 . S
C1934 C1940 1.368 . S
C1935 C1919 1.349 . S
C1935 H1927 0.950 . S
C1935 C1933 1.327 . S
C1936 C1924 1.349 . S
C1936 H1930 0.950 . S
C1936 C1937 1.327 1_554 S
C1937 H1931 0.950 . S
C1937 C1936 1.327 1_556 S
C1937 C1941 1.429 . S
C1938 C1921 1.574 . S
C1938 H1932 0.949 . S
C1938 C1942 1.368 . S
C1939 C1920 1.429 . S
C1939 C1933 1.429 . S
C1939 C1940 1.523 . S
C1940 C1921 1.368 . S
C1940 C1934 1.368 . S
C1940 C1939 1.523 . S
C1941 C1925 1.429 . S
C1941 C1937 1.429 . S
C1941 C1942 1.523 . S
C1942 C1926 1.368 . S
C1942 C1938 1.368 . S
C1942 C1941 1.523 . S
H1943 C1918 0.950 . S
H1944 C1920 0.950 . S
H1945 C1921 0.949 . S
H1946 C1923 0.950 . S
H1947 C1925 0.950 . S
C1948 C1949 1.349 . S
C1948 C1950 1.327 1_556 S
C1948 H1973 0.950 . S
C1949 C1948 1.349 . S
C1949 C1965 1.349 . S
C1950 C1948 1.327 1_554 S
C1950 C1969 1.429 . S
C1950 H1974 0.950 . S
C1951 C1968 1.574 . S
C1951 C1970 1.368 . S
C1951 H1975 0.949 . S
H1952 C1956 0.949 . S
C1953 C1954 1.349 . S
C1953 C1955 1.327 . S
C1953 H1976 0.950 . S
C1954 C1953 1.349 . S
C1954 C1966 1.349 . S
C1955 C1953 1.327 . S
C1955 C1971 1.429 . S
C1955 H1977 0.950 . S
C1956 H1952 0.949 . S
C1956 C1964 1.574 . S
C1956 C1972 1.368 . S
H1957 C1965 0.950 . S
H1958 C1963 0.950 . S
H1959 C1964 0.949 . S
H1960 C1966 0.950 . S
H1961 C1967 0.950 . S
H1962 C1968 0.949 . S
C1963 H1958 0.950 . S
C1963 C1965 1.327 1_554 S
C1963 C1969 1.429 . S
C1964 C1956 1.574 . S
C1964 H1959 0.949 . S
C1964 C1970 1.368 . S
C1965 C1949 1.349 . S
C1965 H1957 0.950 . S
C1965 C1963 1.327 1_556 S
C1966 C1954 1.349 . S
C1966 H1960 0.950 . S
C1966 C1967 1.327 . S
C1967 H1961 0.950 . S
C1967 C1966 1.327 . S
C1967 C1971 1.429 . S
C1968 C1951 1.574 . S
C1968 H1962 0.949 . S
C1968 C1972 1.368 . S
C1969 C1950 1.429 . S
C1969 C1963 1.429 . S
C1969 C1970 1.523 . S
C1970 C1951 1.368 . S
C1970 C1964 1.368 . S
C1970 C1969 1.523 . S
C1971 C1955 1.429 . S
C1971 C1967 1.429 . S
C1971 C1972 1.523 . S
C1972 C1956 1.368 . S
C1972 C1968 1.368 . S
C1972 C1971 1.523 . S
H1973 C1948 0.950 . S
H1974 C1950 0.950 . S
H1975 C1951 0.949 . S
H1976 C1953 0.950 . S
H1977 C1955 0.950 . S
C1978 C1979 1.349 . S
C1978 C1980 1.327 . S
C1978 H2003 0.950 . S
C1979 C1978 1.349 . S
C1979 C1995 1.349 . S
C1980 C1978 1.327 . S
C1980 C1999 1.429 . S
C1980 H2004 0.950 . S
C1981 C1998 1.574 . S
C1981 C2000 1.368 . S
C1981 H2005 0.949 . S
H1982 C1986 0.949 . S
C1983 C1984 1.349 . S
C1983 C1985 1.327 . S
C1983 H2006 0.950 . S
C1984 C1983 1.349 . S
C1984 C1996 1.349 . S
C1985 C1983 1.327 . S
C1985 C2001 1.429 . S
C1985 H2007 0.950 . S
C1986 H1982 0.949 . S
C1986 C1994 1.574 . S
C1986 C2002 1.368 . S
H1987 C1995 0.950 . S
H1988 C1993 0.950 . S
H1989 C1994 0.949 . S
H1990 C1996 0.950 . S
H1991 C1997 0.950 . S
H1992 C1998 0.949 . S
C1993 H1988 0.950 . S
C1993 C1995 1.327 . S
C1993 C1999 1.429 . S
C1994 C1986 1.574 . S
C1994 H1989 0.949 . S
C1994 C2000 1.368 . S
C1995 C1979 1.349 . S
C1995 H1987 0.950 . S
C1995 C1993 1.327 . S
C1996 C1984 1.349 . S
C1996 H1990 0.950 . S
C1996 C1997 1.327 . S
C1997 H1991 0.950 . S
C1997 C1996 1.327 . S
C1997 C2001 1.429 . S
C1998 C1981 1.574 . S
C1998 H1992 0.949 . S
C1998 C2002 1.368 . S
C1999 C1980 1.429 . S
C1999 C1993 1.429 . S
C1999 C2000 1.523 . S
C2000 C1981 1.368 . S
C2000 C1994 1.368 . S
C2000 C1999 1.523 . S
C2001 C1985 1.429 . S
C2001 C1997 1.429 . S
C2001 C2002 1.523 . S
C2002 C1986 1.368 . S
C2002 C1998 1.368 . S
C2002 C2001 1.523 . S
H2003 C1978 0.950 . S
H2004 C1980 0.950 . S
H2005 C1981 0.949 . S
H2006 C1983 0.950 . S
H2007 C1985 0.950 . S
C2008 C2009 1.349 . S
C2008 C2010 1.327 . S
C2008 H2033 0.950 . S
C2009 C2008 1.349 . S
C2009 C2025 1.349 . S
C2010 C2008 1.327 . S
C2010 C2029 1.429 . S
C2010 H2034 0.950 . S
C2011 C2028 1.574 . S
C2011 C2030 1.368 . S
C2011 H2035 0.949 . S
H2012 C2016 0.949 . S
C2013 C2014 1.349 . S
C2013 C2015 1.327 . S
C2013 H2036 0.950 . S
C2014 C2013 1.349 . S
C2014 C2026 1.349 . S
C2015 C2013 1.327 . S
C2015 C2031 1.429 . S
C2015 H2037 0.950 . S
C2016 H2012 0.949 . S
C2016 C2024 1.574 . S
C2016 C2032 1.368 . S
H2017 C2025 0.950 . S
H2018 C2023 0.950 . S
H2019 C2024 0.949 . S
H2020 C2026 0.950 . S
H2021 C2027 0.950 . S
H2022 C2028 0.949 . S
C2023 H2018 0.950 . S
C2023 C2025 1.327 . S
C2023 C2029 1.429 . S
C2024 C2016 1.574 . S
C2024 H2019 0.949 . S
C2024 C2030 1.368 . S
C2025 C2009 1.349 . S
C2025 H2017 0.950 . S
C2025 C2023 1.327 . S
C2026 C2014 1.349 . S
C2026 H2020 0.950 . S
C2026 C2027 1.327 . S
C2027 H2021 0.950 . S
C2027 C2026 1.327 . S
C2027 C2031 1.429 . S
C2028 C2011 1.574 . S
C2028 H2022 0.949 . S
C2028 C2032 1.368 . S
C2029 C2010 1.429 . S
C2029 C2023 1.429 . S
C2029 C2030 1.523 . S
C2030 C2011 1.368 . S
C2030 C2024 1.368 . S
C2030 C2029 1.523 . S
C2031 C2015 1.429 . S
C2031 C2027 1.429 . S
C2031 C2032 1.523 . S
C2032 C2016 1.368 . S
C2032 C2028 1.368 . S
C2032 C2031 1.523 . S
H2033 C2008 0.950 . S
H2034 C2010 0.950 . S
H2035 C2011 0.949 . S
H2036 C2013 0.950 . S
H2037 C2015 0.950 . S
C2038 C2039 1.345 1_554 S
C2038 C2040 1.333 . S
C2038 H2063 0.948 1_554 S
C2039 C2038 1.345 1_556 S
C2039 C2055 1.349 . S
C2040 C2038 1.333 . S
C2040 C2059 1.429 . S
C2040 H2064 0.950 . S
C2041 C2058 1.574 . S
C2041 C2060 1.368 . S
C2041 H2065 0.949 . S
H2042 C2046 0.949 . S
C2043 C2044 1.349 . S
C2043 C2045 1.327 . S
C2043 H2066 0.950 . S
C2044 C2043 1.349 . S
C2044 C2056 1.349 . S
C2045 C2043 1.327 . S
C2045 C2061 1.429 . S
C2045 H2067 0.950 . S
C2046 H2042 0.949 . S
C2046 C2054 1.574 . S
C2046 C2062 1.368 . S
H2047 C2055 0.950 . S
H2048 C2053 0.950 . S
H2049 C2054 0.949 . S
H2050 C2056 0.950 . S
H2051 C2057 0.950 . S
H2052 C2058 0.949 . S
C2053 H2048 0.950 . S
C2053 C2055 1.327 1_554 S
C2053 C2059 1.429 . S
C2054 C2046 1.574 . S
C2054 H2049 0.949 . S
C2054 C2060 1.368 . S
C2055 C2039 1.349 . S
C2055 H2047 0.950 . S
C2055 C2053 1.327 1_556 S
C2056 C2044 1.349 . S
C2056 H2050 0.950 . S
C2056 C2057 1.327 . S
C2057 H2051 0.950 . S
C2057 C2056 1.327 . S
C2057 C2061 1.429 . S
C2058 C2041 1.574 . S
C2058 H2052 0.949 . S
C2058 C2062 1.368 . S
C2059 C2040 1.429 . S
C2059 C2053 1.429 . S
C2059 C2060 1.523 . S
C2060 C2041 1.368 . S
C2060 C2054 1.368 . S
C2060 C2059 1.523 . S
C2061 C2045 1.429 . S
C2061 C2057 1.429 . S
C2061 C2062 1.523 . S
C2062 C2046 1.368 . S
C2062 C2058 1.368 . S
C2062 C2061 1.523 . S
H2063 C2038 0.948 1_556 S
H2064 C2040 0.950 . S
H2065 C2041 0.949 . S
H2066 C2043 0.950 . S
H2067 C2045 0.950 . S
C2068 C2069 1.349 . S
C2068 C2070 1.327 . S
C2068 H2093 0.950 . S
C2069 C2068 1.349 . S
C2069 C2085 1.349 . S
C2070 C2068 1.327 . S
C2070 C2089 1.429 . S
C2070 H2094 0.950 . S
C2071 C2088 1.574 . S
C2071 C2090 1.368 . S
C2071 H2095 0.949 . S
H2072 C2076 0.949 . S
C2073 C2074 1.349 . S
C2073 C2075 1.327 1_554 S
C2073 H2096 0.950 . S
C2074 C2073 1.349 . S
C2074 C2086 1.363 . S
C2075 C2073 1.327 1_556 S
C2075 C2091 1.429 . S
C2075 H2097 0.950 . S
C2076 H2072 0.949 . S
C2076 C2084 1.574 . S
C2076 C2092 1.368 . S
H2077 C2085 0.950 . S
H2078 C2083 0.950 . S
H2079 C2084 0.949 . S
H2080 C2086 0.960 . S
H2081 C2087 0.950 . S
H2082 C2088 0.949 . S
C2083 H2078 0.950 . S
C2083 C2085 1.327 . S
C2083 C2089 1.429 . S
C2084 C2076 1.574 . S
C2084 H2079 0.949 . S
C2084 C2090 1.368 . S
C2085 C2069 1.349 . S
C2085 H2077 0.950 . S
C2085 C2083 1.327 . S
C2086 C2074 1.363 . S
C2086 H2080 0.960 . S
C2086 C2087 1.304 1_554 S
C2087 H2081 0.950 . S
C2087 C2086 1.304 1_556 S
C2087 C2091 1.429 . S
C2088 C2071 1.574 . S
C2088 H2082 0.949 . S
C2088 C2092 1.368 . S
C2089 C2070 1.429 . S
C2089 C2083 1.429 . S
C2089 C2090 1.523 . S
C2090 C2071 1.368 . S
C2090 C2084 1.368 . S
C2090 C2089 1.523 . S
C2091 C2075 1.429 . S
C2091 C2087 1.429 . S
C2091 C2092 1.523 . S
C2092 C2076 1.368 . S
C2092 C2088 1.368 . S
C2092 C2091 1.523 . S
H2093 C2068 0.950 . S
H2094 C2070 0.950 . S
H2095 C2071 0.949 . S
H2096 C2073 0.950 . S
H2097 C2075 0.950 . S
C2098 C2099 1.349 . S
C2098 C2100 1.327 . S
C2098 H2123 0.950 . S
C2099 C2098 1.349 . S
C2099 C2115 1.349 . S
C2100 C2098 1.327 . S
C2100 C2119 1.429 . S
C2100 H2124 0.950 . S
C2101 C2118 1.574 . S
C2101 C2120 1.368 . S
C2101 H2125 0.949 . S
H2102 C2106 0.949 . S
C2103 C2104 1.349 . S
C2103 C2105 1.327 . S
C2103 H2126 0.950 . S
C2104 C2103 1.349 . S
C2104 C2116 1.349 . S
C2105 C2103 1.327 . S
C2105 C2121 1.429 . S
C2105 H2127 0.950 . S
C2106 H2102 0.949 . S
C2106 C2114 1.574 . S
C2106 C2122 1.368 . S
H2107 C2115 0.950 . S
H2108 C2113 0.950 . S
H2109 C2114 0.949 . S
H2110 C2116 0.950 . S
H2111 C2117 0.950 . S
H2112 C2118 0.949 . S
C2113 H2108 0.950 . S
C2113 C2115 1.327 . S
C2113 C2119 1.429 . S
C2114 C2106 1.574 . S
C2114 H2109 0.949 . S
C2114 C2120 1.368 . S
C2115 C2099 1.349 . S
C2115 H2107 0.950 . S
C2115 C2113 1.327 . S
C2116 C2104 1.349 . S
C2116 H2110 0.950 . S
C2116 C2117 1.327 . S
C2117 H2111 0.950 . S
C2117 C2116 1.327 . S
C2117 C2121 1.429 . S
C2118 C2101 1.574 . S
C2118 H2112 0.949 . S
C2118 C2122 1.368 . S
C2119 C2100 1.429 . S
C2119 C2113 1.429 . S
C2119 C2120 1.523 . S
C2120 C2101 1.368 . S
C2120 C2114 1.368 . S
C2120 C2119 1.523 . S
C2121 C2105 1.429 . S
C2121 C2117 1.429 . S
C2121 C2122 1.523 . S
C2122 C2106 1.368 . S
C2122 C2118 1.368 . S
C2122 C2121 1.523 . S
H2123 C2098 0.950 . S
H2124 C2100 0.950 . S
H2125 C2101 0.949 . S
H2126 C2103 0.950 . S
H2127 C2105 0.950 . S
C2128 C2129 1.349 . S
C2128 C2130 1.327 1_556 S
C2128 H2153 0.950 . S
C2129 C2128 1.349 . S
C2129 C2145 1.349 . S
C2130 C2128 1.327 1_554 S
C2130 C2149 1.429 . S
C2130 H2154 0.950 . S
C2131 C2148 1.574 . S
C2131 C2150 1.368 . S
C2131 H2155 0.949 . S
H2132 C2136 0.949 . S
C2133 C2134 1.349 . S
C2133 C2135 1.327 . S
C2133 H2156 0.950 . S
C2134 C2133 1.349 . S
C2134 C2146 1.349 . S
C2135 C2133 1.327 . S
C2135 C2151 1.429 . S
C2135 H2157 0.950 . S
C2136 H2132 0.949 . S
C2136 C2144 1.574 . S
C2136 C2152 1.368 . S
H2137 C2145 0.950 . S
H2138 C2143 0.950 . S
H2139 C2144 0.949 . S
H2140 C2146 0.950 . S
H2141 C2147 0.950 . S
H2142 C2148 0.949 . S
C2143 H2138 0.950 . S
C2143 C2145 1.327 1_554 S
C2143 C2149 1.429 . S
C2144 C2136 1.574 . S
C2144 H2139 0.949 . S
C2144 C2150 1.368 . S
C2145 C2129 1.349 . S
C2145 H2137 0.950 . S
C2145 C2143 1.327 1_556 S
C2146 C2134 1.349 . S
C2146 H2140 0.950 . S
C2146 C2147 1.327 . S
C2147 H2141 0.950 . S
C2147 C2146 1.327 . S
C2147 C2151 1.429 . S
C2148 C2131 1.574 . S
C2148 H2142 0.949 . S
C2148 C2152 1.368 . S
C2149 C2130 1.429 . S
C2149 C2143 1.429 . S
C2149 C2150 1.523 . S
C2150 C2131 1.368 . S
C2150 C2144 1.368 . S
C2150 C2149 1.523 . S
C2151 C2135 1.429 . S
C2151 C2147 1.429 . S
C2151 C2152 1.523 . S
C2152 C2136 1.368 . S
C2152 C2148 1.368 . S
C2152 C2151 1.523 . S
H2153 C2128 0.950 . S
H2154 C2130 0.950 . S
H2155 C2131 0.949 . S
H2156 C2133 0.950 . S
H2157 C2135 0.950 . S
C2158 C2159 1.349 . S
C2158 C2160 1.327 . S
C2158 H2183 0.950 . S
C2159 C2158 1.349 . S
C2159 C2175 1.349 . S
C2160 C2158 1.327 . S
C2160 C2179 1.429 . S
C2160 H2184 0.950 . S
C2161 C2178 1.574 . S
C2161 C2180 1.368 . S
C2161 H2185 0.949 . S
H2162 C2166 0.949 . S
C2163 C2164 1.349 . S
C2163 C2165 1.327 . S
C2163 H2186 0.950 . S
C2164 C2163 1.349 . S
C2164 C2176 1.349 . S
C2165 C2163 1.327 . S
C2165 C2181 1.429 . S
C2165 H2187 0.950 . S
C2166 H2162 0.949 . S
C2166 C2174 1.574 . S
C2166 C2182 1.368 . S
H2167 C2175 0.950 . S
H2168 C2173 0.950 . S
H2169 C2174 0.949 . S
H2170 C2176 0.950 . S
H2171 C2177 0.950 . S
H2172 C2178 0.949 . S
C2173 H2168 0.950 . S
C2173 C2175 1.327 . S
C2173 C2179 1.429 . S
C2174 C2166 1.574 . S
C2174 H2169 0.949 . S
C2174 C2180 1.368 . S
C2175 C2159 1.349 . S
C2175 H2167 0.950 . S
C2175 C2173 1.327 . S
C2176 C2164 1.349 . S
C2176 H2170 0.950 . S
C2176 C2177 1.327 . S
C2177 H2171 0.950 . S
C2177 C2176 1.327 . S
C2177 C2181 1.429 . S
C2178 C2161 1.574 . S
C2178 H2172 0.949 . S
C2178 C2182 1.368 . S
C2179 C2160 1.429 . S
C2179 C2173 1.429 . S
C2179 C2180 1.523 . S
C2180 C2161 1.368 . S
C2180 C2174 1.368 . S
C2180 C2179 1.523 . S
C2181 C2165 1.429 . S
C2181 C2177 1.429 . S
C2181 C2182 1.523 . S
C2182 C2166 1.368 . S
C2182 C2178 1.368 . S
C2182 C2181 1.523 . S
H2183 C2158 0.950 . S
H2184 C2160 0.950 . S
H2185 C2161 0.949 . S
H2186 C2163 0.950 . S
H2187 C2165 0.950 . S
C2188 C2189 1.349 . S
C2188 C2190 1.327 . S
C2188 H2213 0.950 . S
C2189 C2188 1.349 . S
C2189 C2205 1.349 . S
C2190 C2188 1.327 . S
C2190 C2209 1.429 . S
C2190 H2214 0.950 . S
C2191 C2208 1.574 . S
C2191 C2210 1.368 . S
C2191 H2215 0.949 . S
H2192 C2196 0.949 . S
C2193 C2194 1.349 . S
C2193 C2195 1.327 . S
C2193 H2216 0.950 . S
C2194 C2193 1.349 . S
C2194 C2206 1.349 . S
C2195 C2193 1.327 . S
C2195 C2211 1.429 . S
C2195 H2217 0.950 . S
C2196 H2192 0.949 . S
C2196 C2204 1.574 . S
C2196 C2212 1.368 . S
H2197 C2205 0.950 . S
H2198 C2203 0.950 . S
H2199 C2204 0.949 . S
H2200 C2206 0.950 . S
H2201 C2207 0.950 . S
H2202 C2208 0.949 . S
C2203 H2198 0.950 . S
C2203 C2205 1.327 . S
C2203 C2209 1.429 . S
C2204 C2196 1.574 . S
C2204 H2199 0.949 . S
C2204 C2210 1.368 . S
C2205 C2189 1.349 . S
C2205 H2197 0.950 . S
C2205 C2203 1.327 . S
C2206 C2194 1.349 . S
C2206 H2200 0.950 . S
C2206 C2207 1.327 . S
C2207 H2201 0.950 . S
C2207 C2206 1.327 . S
C2207 C2211 1.429 . S
C2208 C2191 1.574 . S
C2208 H2202 0.949 . S
C2208 C2212 1.368 . S
C2209 C2190 1.429 . S
C2209 C2203 1.429 . S
C2209 C2210 1.523 . S
C2210 C2191 1.368 . S
C2210 C2204 1.368 . S
C2210 C2209 1.523 . S
C2211 C2195 1.429 . S
C2211 C2207 1.429 . S
C2211 C2212 1.523 . S
C2212 C2196 1.368 . S
C2212 C2208 1.368 . S
C2212 C2211 1.523 . S
H2213 C2188 0.950 . S
H2214 C2190 0.950 . S
H2215 C2191 0.949 . S
H2216 C2193 0.950 . S
H2217 C2195 0.950 . S
C2218 C2219 1.349 . S
C2218 C2220 1.327 1_554 S
C2218 H2243 0.950 . S
C2219 C2218 1.349 . S
C2219 C2235 1.349 . S
C2220 C2218 1.327 1_556 S
C2220 C2239 1.429 . S
C2220 H2244 0.950 . S
C2221 C2238 1.574 . S
C2221 C2240 1.368 . S
C2221 H2245 0.949 . S
H2222 C2226 0.949 . S
C2223 C2224 1.349 . S
C2223 C2225 1.327 . S
C2223 H2246 0.950 . S
C2224 C2223 1.349 . S
C2224 C2236 1.349 . S
C2225 C2223 1.327 . S
C2225 C2241 1.429 . S
C2225 H2247 0.950 . S
C2226 H2222 0.949 . S
C2226 C2234 1.574 . S
C2226 C2242 1.368 . S
H2227 C2235 0.950 . S
H2228 C2233 0.950 . S
H2229 C2234 0.949 . S
H2230 C2236 0.950 . S
H2231 C2237 0.950 . S
H2232 C2238 0.949 . S
C2233 H2228 0.950 . S
C2233 C2235 1.327 1_556 S
C2233 C2239 1.429 . S
C2234 C2226 1.574 . S
C2234 H2229 0.949 . S
C2234 C2240 1.368 . S
C2235 C2219 1.349 . S
C2235 H2227 0.950 . S
C2235 C2233 1.327 1_554 S
C2236 C2224 1.349 . S
C2236 H2230 0.950 . S
C2236 C2237 1.327 . S
C2237 H2231 0.950 . S
C2237 C2236 1.327 . S
C2237 C2241 1.429 . S
C2238 C2221 1.574 . S
C2238 H2232 0.949 . S
C2238 C2242 1.368 . S
C2239 C2220 1.429 . S
C2239 C2233 1.429 . S
C2239 C2240 1.523 . S
C2240 C2221 1.368 . S
C2240 C2234 1.368 . S
C2240 C2239 1.523 . S
C2241 C2225 1.429 . S
C2241 C2237 1.429 . S
C2241 C2242 1.523 . S
C2242 C2226 1.368 . S
C2242 C2238 1.368 . S
C2242 C2241 1.523 . S
H2243 C2218 0.950 . S
H2244 C2220 0.950 . S
H2245 C2221 0.949 . S
H2246 C2223 0.950 . S
H2247 C2225 0.950 . S
C2248 C2249 1.349 . S
C2248 C2250 1.327 . S
C2248 H2273 0.950 . S
C2249 C2248 1.349 . S
C2249 C2265 1.349 . S
C2250 C2248 1.327 . S
C2250 C2269 1.429 . S
C2250 H2274 0.950 . S
C2251 C2268 1.574 . S
C2251 C2270 1.368 . S
C2251 H2275 0.949 . S
H2252 C2256 0.949 . S
C2253 C2254 1.349 . S
C2253 C2255 1.327 1_554 S
C2253 H2276 0.950 . S
C2254 C2253 1.349 . S
C2254 C2266 1.349 . S
C2255 C2253 1.327 1_556 S
C2255 C2271 1.429 . S
C2255 H2277 0.950 . S
C2256 H2252 0.949 . S
C2256 C2264 1.574 . S
C2256 C2272 1.368 . S
H2257 C2265 0.950 . S
H2258 C2263 0.950 . S
H2259 C2264 0.949 . S
H2260 C2266 0.950 . S
H2261 C2267 0.950 . S
H2262 C2268 0.949 . S
C2263 H2258 0.950 . S
C2263 C2265 1.327 . S
C2263 C2269 1.429 . S
C2264 C2256 1.574 . S
C2264 H2259 0.949 . S
C2264 C2270 1.368 . S
C2265 C2249 1.349 . S
C2265 H2257 0.950 . S
C2265 C2263 1.327 . S
C2266 C2254 1.349 . S
C2266 H2260 0.950 . S
C2266 C2267 1.327 1_554 S
C2267 H2261 0.950 . S
C2267 C2266 1.327 1_556 S
C2267 C2271 1.429 . S
C2268 C2251 1.574 . S
C2268 H2262 0.949 . S
C2268 C2272 1.368 . S
C2269 C2250 1.429 . S
C2269 C2263 1.429 . S
C2269 C2270 1.523 . S
C2270 C2251 1.368 . S
C2270 C2264 1.368 . S
C2270 C2269 1.523 . S
C2271 C2255 1.429 . S
C2271 C2267 1.429 . S
C2271 C2272 1.523 . S
C2272 C2256 1.368 . S
C2272 C2268 1.368 . S
C2272 C2271 1.523 . S
H2273 C2248 0.950 . S
H2274 C2250 0.950 . S
H2275 C2251 0.949 . S
H2276 C2253 0.950 . S
H2277 C2255 0.950 . S
C2278 C2279 1.349 . S
C2278 C2280 1.327 . S
C2278 H2303 0.950 . S
C2279 C2278 1.349 . S
C2279 C2295 1.349 . S
C2280 C2278 1.327 . S
C2280 C2299 1.429 . S
C2280 H2304 0.950 . S
C2281 C2298 1.574 . S
C2281 C2300 1.368 . S
C2281 H2305 0.949 . S
H2282 C2286 0.949 . S
C2283 C2284 1.349 . S
C2283 C2285 1.327 . S
C2283 H2306 0.950 . S
C2284 C2283 1.349 . S
C2284 C2296 1.349 . S
C2285 C2283 1.327 . S
C2285 C2301 1.429 . S
C2285 H2307 0.950 . S
C2286 H2282 0.949 . S
C2286 C2294 1.574 . S
C2286 C2302 1.368 . S
H2287 C2295 0.950 . S
H2288 C2293 0.950 . S
H2289 C2294 0.949 . S
H2290 C2296 0.950 . S
H2291 C2297 0.950 . S
H2292 C2298 0.949 . S
C2293 H2288 0.950 . S
C2293 C2295 1.327 . S
C2293 C2299 1.429 . S
C2294 C2286 1.574 . S
C2294 H2289 0.949 . S
C2294 C2300 1.368 . S
C2295 C2279 1.349 . S
C2295 H2287 0.950 . S
C2295 C2293 1.327 . S
C2296 C2284 1.349 . S
C2296 H2290 0.950 . S
C2296 C2297 1.327 . S
C2297 H2291 0.950 . S
C2297 C2296 1.327 . S
C2297 C2301 1.429 . S
C2298 C2281 1.574 . S
C2298 H2292 0.949 . S
C2298 C2302 1.368 . S
C2299 C2280 1.429 . S
C2299 C2293 1.429 . S
C2299 C2300 1.523 . S
C2300 C2281 1.368 . S
C2300 C2294 1.368 . S
C2300 C2299 1.523 . S
C2301 C2285 1.429 . S
C2301 C2297 1.429 . S
C2301 C2302 1.523 . S
C2302 C2286 1.368 . S
C2302 C2298 1.368 . S
C2302 C2301 1.523 . S
H2303 C2278 0.950 . S
H2304 C2280 0.950 . S
H2305 C2281 0.949 . S
H2306 C2283 0.950 . S
H2307 C2285 0.950 . S
C2308 C2309 1.349 . S
C2308 C2310 1.327 . S
C2308 H2333 0.950 . S
C2309 C2308 1.349 . S
C2309 C2325 1.349 . S
C2310 C2308 1.327 . S
C2310 C2329 1.429 . S
C2310 H2334 0.950 . S
C2311 C2328 1.574 . S
C2311 C2330 1.368 . S
C2311 H2335 0.949 . S
H2312 C2316 0.949 . S
C2313 C2314 1.349 . S
C2313 C2315 1.327 . S
C2313 H2336 0.950 . S
C2314 C2313 1.349 . S
C2314 C2326 1.349 . S
C2315 C2313 1.327 . S
C2315 C2331 1.429 . S
C2315 H2337 0.950 . S
C2316 H2312 0.949 . S
C2316 C2324 1.574 . S
C2316 C2332 1.368 . S
H2317 C2325 0.950 . S
H2318 C2323 0.950 . S
H2319 C2324 0.949 . S
H2320 C2326 0.950 . S
H2321 C2327 0.950 . S
H2322 C2328 0.949 . S
C2323 H2318 0.950 . S
C2323 C2325 1.327 . S
C2323 C2329 1.429 . S
C2324 C2316 1.574 . S
C2324 H2319 0.949 . S
C2324 C2330 1.368 . S
C2325 C2309 1.349 . S
C2325 H2317 0.950 . S
C2325 C2323 1.327 . S
C2326 C2314 1.349 . S
C2326 H2320 0.950 . S
C2326 C2327 1.327 . S
C2327 H2321 0.950 . S
C2327 C2326 1.327 . S
C2327 C2331 1.429 . S
C2328 C2311 1.574 . S
C2328 H2322 0.949 . S
C2328 C2332 1.368 . S
C2329 C2310 1.429 . S
C2329 C2323 1.429 . S
C2329 C2330 1.523 . S
C2330 C2311 1.368 . S
C2330 C2324 1.368 . S
C2330 C2329 1.523 . S
C2331 C2315 1.429 . S
C2331 C2327 1.429 . S
C2331 C2332 1.523 . S
C2332 C2316 1.368 . S
C2332 C2328 1.368 . S
C2332 C2331 1.523 . S
H2333 C2308 0.950 . S
H2334 C2310 0.950 . S
H2335 C2311 0.949 . S
H2336 C2313 0.950 . S
H2337 C2315 0.950 . S
C2338 C2339 1.349 . S
C2338 C2340 1.327 . S
C2338 H2363 0.950 . S
C2339 C2338 1.349 . S
C2339 C2355 1.349 . S
C2340 C2338 1.327 . S
C2340 C2359 1.429 . S
C2340 H2364 0.950 . S
C2341 C2358 1.574 . S
C2341 C2360 1.368 . S
C2341 H2365 0.949 . S
H2342 C2346 0.949 . S
C2343 C2344 1.349 . S
C2343 C2345 1.327 1_556 S
C2343 H2366 0.950 . S
C2344 C2343 1.349 . S
C2344 C2356 1.349 . S
C2345 C2343 1.327 1_554 S
C2345 C2361 1.429 . S
C2345 H2367 0.950 . S
C2346 H2342 0.949 . S
C2346 C2354 1.574 . S
C2346 C2362 1.368 . S
H2347 C2355 0.950 . S
H2348 C2353 0.950 . S
H2349 C2354 0.949 . S
H2350 C2356 0.950 . S
H2351 C2357 0.950 . S
H2352 C2358 0.949 . S
C2353 H2348 0.950 . S
C2353 C2355 1.327 . S
C2353 C2359 1.429 . S
C2354 C2346 1.574 . S
C2354 H2349 0.949 . S
C2354 C2360 1.368 . S
C2355 C2339 1.349 . S
C2355 H2347 0.950 . S
C2355 C2353 1.327 . S
C2356 C2344 1.349 . S
C2356 H2350 0.950 . S
C2356 C2357 1.327 1_556 S
C2357 H2351 0.950 . S
C2357 C2356 1.327 1_554 S
C2357 C2361 1.429 . S
C2358 C2341 1.574 . S
C2358 H2352 0.949 . S
C2358 C2362 1.368 . S
C2359 C2340 1.429 . S
C2359 C2353 1.429 . S
C2359 C2360 1.523 . S
C2360 C2341 1.368 . S
C2360 C2354 1.368 . S
C2360 C2359 1.523 . S
C2361 C2345 1.429 . S
C2361 C2357 1.429 . S
C2361 C2362 1.523 . S
C2362 C2346 1.368 . S
C2362 C2358 1.368 . S
C2362 C2361 1.523 . S
H2363 C2338 0.950 . S
H2364 C2340 0.950 . S
H2365 C2341 0.949 . S
H2366 C2343 0.950 . S
H2367 C2345 0.950 . S
C449 C8 1.415 . S
C454 C64 1.415 . S
C479 C22 1.415 . S
C484 C78 1.415 . S
C509 C92 1.415 . S
C514 C36 1.415 . S
C539 C106 1.415 . S
C544 C50 1.415 . S
C569 C120 1.415 . S
C574 C176 1.415 . S
C599 C134 1.415 . S
C604 C190 1.415 . S
C629 C204 1.415 . S
C634 C148 1.415 . S
C659 C162 1.415 . S
C664 C218 1.415 . S
C689 C288 1.415 . S
C694 C232 1.415 . S
C719 C302 1.415 . S
C724 C246 1.415 . S
C749 C260 1.415 . S
C754 C316 1.415 . S
C779 C330 1.415 . S
C784 C274 1.415 . S
C809 C344 1.415 . S
C814 C400 1.415 . S
C839 C414 1.415 . S
C844 C358 1.415 . S
C869 C428 1.415 . S
C874 C372 1.415 . S
C899 C386 1.415 . S
C904 C442 1.415 . S
C929 C9 1.500 . S
C934 C385 1.490 . S
C959 C119 1.490 . S
C964 C23 1.500 . S
C989 C37 1.500 . S
C994 C357 1.490 . S
C1019 C51 1.500 . S
C1024 C147 1.490 . S
C1049 C413 1.490 . S
C1054 C65 1.500 . S
C1079 C203 1.490 . S
C1084 C79 1.500 . S
C1109 C93 1.500 . S
C1114 C441 1.490 . S
C1139 C107 1.500 . S
C1144 C175 1.490 . S
C1169 C273 1.490 . S
C1174 C121 1.500 . S
C1199 C135 1.500 . S
C1204 C7 1.490 . S
C1229 C245 1.490 . S
C1234 C149 1.500 . S
C1259 C163 1.500 . S
C1264 C35 1.490 . S
C1289 C301 1.490 . S
C1294 C177 1.500 . S
C1319 C191 1.500 . S
C1324 C91 1.490 . S
C1349 C329 1.490 . S
C1354 C205 1.500 . S
C1379 C219 1.500 . S
C1384 C63 1.490 . S
C1409 C161 1.490 . S
C1414 C233 1.500 . S
C1439 C343 1.490 . S
C1444 C247 1.500 . S
C1469 C133 1.490 . S
C1474 C261 1.500 . S
C1499 C275 1.500 . S
C1504 C371 1.490 . S
C1529 C189 1.490 . S
C1534 C289 1.500 . S
C1559 C427 1.490 . S
C1564 C303 1.500 . S
C1589 C217 1.490 . S
C1594 C317 1.500 . S
C1619 C331 1.500 . S
C1624 C399 1.490 . S
C1649 C345 1.500 . S
C1654 C49 1.490 . S
C1679 C359 1.500 . S
C1684 C231 1.490 . S
C1709 C373 1.500 . S
C1714 C21 1.490 . S
C1739 C387 1.500 . S
C1744 C259 1.490 . S
C1769 C401 1.500 . S
C1774 C77 1.490 . S
C1799 C315 1.490 . S
C1804 C415 1.500 . S
C1829 C105 1.490 . S
C1834 C429 1.500 . S
C1859 C443 1.500 . S
C1864 C287 1.490 . S
C1889 C3 0.822 . S
C1894 C101 0.822 . S
C1919 C17 0.822 . S
C1924 C59 0.822 . S
C1949 C31 0.822 . S
C1954 C73 0.822 . S
C1979 C87 0.822 . S
C1984 C45 0.822 . S
C2009 C213 0.822 . S
C2014 C115 0.822 . S
C2039 C171 0.822 . S
C2044 C129 0.822 . S
C2069 C185 0.822 . S
C2074 C143 0.822 . S
C2099 C199 0.822 . S
C2104 C157 0.822 . S
C2129 C227 0.822 . S
C2134 C325 0.822 . S
C2159 C283 0.822 . S
C2164 C241 0.822 . S
C2189 C297 0.822 . S
C2194 C255 0.822 . S
C2219 C311 0.822 . S
C2224 C269 0.822 . S
C2249 C437 0.822 . S
C2254 C339 0.822 . S
C2279 C353 0.822 . S
C2284 C395 0.822 . S
C2309 C367 0.822 . S
C2314 C409 0.822 . S
C2339 C381 0.822 . S
C2344 C423 0.822 . S
