# Generated by pormake.
# Topology sml, (6)-cn, num edge types: 1
# Building blocks:
#     Node 0, Type 0, BuildingBlock: IZENUY_clean_sbu_0, # of connection points: 6
#     Node 1, Type 0, BuildingBlock: IZENUY_clean_sbu_0, # of connection points: 6
#     Node 2, Type 0, BuildingBlock: IZENUY_clean_sbu_0, # of connection points: 6
#     Node 3, Type 0, BuildingBlock: IZENUY_clean_sbu_0, # of connection points: 6
#     Node 4, Type 0, BuildingBlock: IZENUY_clean_sbu_0, # of connection points: 6
#     Node 5, Type 0, BuildingBlock: IZENUY_clean_sbu_0, # of connection points: 6
#     Edge 6, Type (0, 0), BuildingBlock: OJICUG_clean_linker_0, # of connection points: 2
#     Edge 7, Type (0, 0), BuildingBlock: OJICUG_clean_linker_0, # of connection points: 2
#     Edge 8, Type (0, 0), BuildingBlock: OJICUG_clean_linker_0, # of connection points: 2
#     Edge 9, Type (0, 0), BuildingBlock: OJICUG_clean_linker_0, # of connection points: 2
#     Edge 10, Type (0, 0), BuildingBlock: OJICUG_clean_linker_0, # of connection points: 2
#     Edge 11, Type (0, 0), BuildingBlock: OJICUG_clean_linker_0, # of connection points: 2
#     Edge 12, Type (0, 0), BuildingBlock: OJICUG_clean_linker_0, # of connection points: 2
#     Edge 13, Type (0, 0), BuildingBlock: OJICUG_clean_linker_0, # of connection points: 2
#     Edge 14, Type (0, 0), BuildingBlock: OJICUG_clean_linker_0, # of connection points: 2
#     Edge 15, Type (0, 0), BuildingBlock: OJICUG_clean_linker_0, # of connection points: 2
#     Edge 16, Type (0, 0), BuildingBlock: OJICUG_clean_linker_0, # of connection points: 2
#     Edge 17, Type (0, 0), BuildingBlock: OJICUG_clean_linker_0, # of connection points: 2
#     Edge 18, Type (0, 0), BuildingBlock: OJICUG_clean_linker_0, # of connection points: 2
#     Edge 19, Type (0, 0), BuildingBlock: OJICUG_clean_linker_0, # of connection points: 2
#     Edge 20, Type (0, 0), BuildingBlock: OJICUG_clean_linker_0, # of connection points: 2
#     Edge 21, Type (0, 0), BuildingBlock: OJICUG_clean_linker_0, # of connection points: 2
#     Edge 22, Type (0, 0), BuildingBlock: OJICUG_clean_linker_0, # of connection points: 2
#     Edge 23, Type (0, 0), BuildingBlock: OJICUG_clean_linker_0, # of connection points: 2
# Relax obj value: 0.327
# Max RMSD: 0.283
# Mean RMSD: 0.283
data_MOF--net-sml--node1-IZENUY_clean_sbu_0--edge1-OJICUG_clean_linker_0
_symmetry_space_group_name_H-M    P1
_symmetry_Int_Tables_number       1
_symmetry_cell_setting            triclinic
loop_
_symmetry_equiv_pos_as_xyz
'x, y, z'
_cell_length_a     30.004946
_cell_length_b     30.022015
_cell_length_c     10.647612
_cell_angle_alpha  89.91315
_cell_angle_beta   89.949701
_cell_angle_gamma 119.9858
loop_
_atom_site_label
_atom_site_type_symbol
_atom_site_fract_x
_atom_site_fract_y
_atom_site_fract_z
_atom_type_partial_charge
Fe0 Fe 0.29359 0.47073 0.0811 0.0
Fe1 Fe 0.19586 0.37055 0.00949 0.0
O2 O 0.23262 0.43849 0.00938 0.0
Fe3 Fe 0.20872 0.47471 0.93316 0.0
O4 O 0.20706 0.50309 0.07952 0.0
O5 O 0.28713 0.5275 0.12985 0.0
O6 O 0.26699 0.44294 0.2311 0.0
C7 C 0.23769 0.39594 0.25448 0.0
C8 C 0.31717 0.53459 0.88728 0.0
O9 O 0.21686 0.3631 0.16727 0.0
C10 C 0.18975 0.39987 0.76296 0.0
O11 O 0.31095 0.42071 0.04321 0.0
O12 O 0.24579 0.36526 0.92983 0.0
O13 O 0.27324 0.5311 0.89382 0.0
O14 O 0.3229 0.49949 0.93386 0.0
C15 C 0.12104 0.39477 0.05136 0.0
O16 O 0.16898 0.36705 0.85082 0.0
O17 O 0.21075 0.44735 0.78496 0.0
C18 C 0.29257 0.38637 0.95826 0.0
O19 O 0.14344 0.37152 0.08933 0.0
O20 O 0.13983 0.42661 0.96099 0.0
C21 C 0.24766 0.53313 0.13755 0.0
Fe22 Fe 0.83917 0.28549 0.41587 0.0
Fe23 Fe 0.84467 0.18956 0.34335 0.0
O24 O 0.81166 0.22456 0.34414 0.0
Fe25 Fe 0.75119 0.19929 0.26964 0.0
O26 O 0.72152 0.19787 0.41665 0.0
O27 O 0.77552 0.2785 0.46264 0.0
O28 O 0.84009 0.25884 0.56573 0.0
C29 C 0.85919 0.23071 0.58889 0.0
C30 C 0.79889 0.3074 0.21882 0.0
O31 O 0.87286 0.2113 0.50131 0.0
C32 C 0.8077 0.18132 0.09776 0.0
O33 O 0.90703 0.30394 0.3802 0.0
O34 O 0.8988 0.24048 0.2627 0.0
O35 O 0.75855 0.26338 0.22764 0.0
O36 O 0.83975 0.31441 0.26832 0.0
C37 C 0.74671 0.11242 0.38709 0.0
O38 O 0.82158 0.16208 0.18524 0.0
O39 O 0.77995 0.20088 0.12063 0.0
C40 C 0.92359 0.28701 0.29315 0.0
O41 O 0.79258 0.13622 0.42324 0.0
O42 O 0.73157 0.13079 0.30013 0.0
C43 C 0.73079 0.23874 0.47111 0.0
Fe44 Fe 0.56604 0.74095 0.6093 0.0
Fe45 Fe 0.57137 0.83139 0.75251 0.0
O46 O 0.60296 0.80178 0.6802 0.0
Fe47 Fe 0.67091 0.83239 0.68007 0.0
O48 O 0.66996 0.77933 0.76207 0.0
O49 O 0.61289 0.71891 0.641 0.0
O50 O 0.53747 0.71318 0.7578 0.0
C51 C 0.50744 0.72452 0.81286 0.0
C52 C 0.6411 0.79178 0.43443 0.0
O53 O 0.51337 0.7694 0.8006 0.0
C54 C 0.6565 0.91385 0.62923 0.0
O55 O 0.51107 0.75095 0.56606 0.0
O56 O 0.54283 0.83269 0.60563 0.0
O57 O 0.67461 0.80865 0.52164 0.0
O58 O 0.59364 0.76676 0.45881 0.0
C59 C 0.64487 0.84549 0.92494 0.0
O60 O 0.62262 0.89841 0.71561 0.0
O61 O 0.67632 0.88721 0.59875 0.0
C62 C 0.50833 0.79187 0.5569 0.0
O63 O 0.5983 0.83015 0.90187 0.0
O64 O 0.67806 0.8614 0.8373 0.0
C65 C 0.64592 0.7332 0.7285 0.0
Fe66 Fe 0.8406 0.55985 0.94541 0.0
Fe67 Fe 0.75479 0.56127 0.09532 0.0
O68 O 0.81518 0.59478 0.01911 0.0
Fe69 Fe 0.84992 0.66282 0.0185 0.0
O70 O 0.90392 0.66461 0.09843 0.0
O71 O 0.90901 0.60817 0.97758 0.0
O72 O 0.84121 0.53105 0.0923 0.0
C73 C 0.80032 0.49888 0.14564 0.0
C74 C 0.86269 0.63512 0.77266 0.0
O75 O 0.76066 0.50382 0.13801 0.0
C76 C 0.75203 0.64311 0.97328 0.0
O77 O 0.77608 0.50414 0.90143 0.0
O78 O 0.72392 0.53281 0.94972 0.0
O79 O 0.87781 0.66826 0.86017 0.0
O80 O 0.84134 0.5877 0.79613 0.0
C81 C 0.81324 0.63555 0.26481 0.0
O82 O 0.73701 0.61142 0.06438 0.0
O83 O 0.79813 0.66482 0.93796 0.0
C84 C 0.73178 0.50027 0.89515 0.0
O85 O 0.78433 0.5884 0.24299 0.0
O86 O 0.82755 0.66848 0.17671 0.0
C87 C 0.92722 0.64168 0.06421 0.0
Fe88 Fe 0.29826 0.83264 0.27236 0.0
Fe89 Fe 0.21034 0.74773 0.42286 0.0
O90 O 0.23794 0.80805 0.34656 0.0
Fe91 Fe 0.20544 0.84359 0.34575 0.0
O92 O 0.25807 0.89707 0.42541 0.0
O93 O 0.31896 0.9013 0.30313 0.0
O94 O 0.3278 0.83343 0.41907 0.0
C95 C 0.31825 0.7927 0.47459 0.0
C96 C 0.24561 0.85526 0.09973 0.0
O97 O 0.27348 0.75323 0.46678 0.0
C98 C 0.12603 0.74632 0.3011 0.0
O99 O 0.28902 0.76776 0.23019 0.0
O100 O 0.20795 0.71678 0.27733 0.0
O101 O 0.22826 0.87115 0.18728 0.0
O102 O 0.27103 0.83318 0.12316 0.0
C103 C 0.19514 0.8068 0.59214 0.0
O104 O 0.14253 0.73061 0.39112 0.0
O105 O 0.15116 0.79234 0.26559 0.0
C106 C 0.24844 0.72358 0.22514 0.0
O107 O 0.21266 0.77727 0.57041 0.0
O108 O 0.17715 0.8217 0.504 0.0
C109 C 0.30422 0.91988 0.39035 0.0
Fe110 Fe 0.47909 0.20336 0.74657 0.0
Fe111 Fe 0.37806 0.19722 0.66725 0.0
O112 O 0.44616 0.2305 0.66913 0.0
Fe113 Fe 0.48171 0.29084 0.59504 0.0
O114 O 0.51045 0.32041 0.74154 0.0
O115 O 0.53671 0.26654 0.78951 0.0
O116 O 0.4516 0.20613 0.89357 0.0
C117 C 0.40439 0.18821 0.91435 0.0
C118 C 0.541 0.24095 0.54765 0.0
O119 O 0.37178 0.16934 0.82592 0.0
C120 C 0.40653 0.23798 0.42179 0.0
O121 O 0.42874 0.13539 0.71617 0.0
O122 O 0.37628 0.14341 0.58767 0.0
O123 O 0.53734 0.28152 0.55221 0.0
O124 O 0.50772 0.20065 0.60142 0.0
C125 C 0.3992 0.29556 0.71218 0.0
O126 O 0.37321 0.21971 0.50904 0.0
O127 O 0.45398 0.26389 0.44529 0.0
C128 C 0.39727 0.11863 0.62486 0.0
O129 O 0.37574 0.2492 0.74536 0.0
O130 O 0.43368 0.31132 0.62734 0.0
C131 C 0.54188 0.31122 0.79673 0.0
C132 C 0.33127 0.31926 0.71603 0.0
C133 C 0.37885 0.32803 0.76025 0.0
H134 H 0.26733 0.33058 0.74313 0.0
C135 C 0.40017 0.3589 0.8675 0.0
H136 H 0.31352 0.29467 0.63542 0.0
C137 C 0.37343 0.3796 0.93118 0.0
C138 C 0.3245 0.36883 0.88968 0.0
H139 H 0.43629 0.36495 0.90534 0.0
H140 H 0.39002 0.40216 0.01521 0.0
C141 C 0.30457 0.33941 0.77939 0.0
C142 C 0.05985 0.39383 0.21251 0.0
C143 C 0.06829 0.37569 0.09812 0.0
H144 H 1.00704 0.38062 0.36441 0.0
C145 C 0.02816 0.33098 0.04547 0.0
H146 H 0.09095 0.42754 0.25664 0.0
C147 C 0.98115 0.30358 0.10814 0.0
C148 C 0.97277 0.32024 0.22511 0.0
H149 H 0.03419 0.31549 0.95936 0.0
H150 H 0.95183 0.2681 0.06637 0.0
C151 C 1.01214 0.36671 0.27482 0.0
C152 C 0.73414 0.02516 0.40698 0.0
C153 C 0.71565 0.05879 0.43139 0.0
H154 H 0.73108 0.95472 0.45069 0.0
C155 C 0.67572 0.04424 0.51966 0.0
H156 H 0.76571 0.03599 0.34177 0.0
C157 C 0.65555 0.99698 0.58446 0.0
C158 C 0.6755 0.96399 0.56252 0.0
H159 H 0.6619 0.07037 0.54274 0.0
H160 H 0.62538 0.98689 0.6533 0.0
C161 C 0.71443 0.97862 0.47108 0.0
C162 C 0.69705 0.68875 0.71621 0.0
C163 C 0.66276 0.69873 0.78282 0.0
H164 H 0.75172 0.66283 0.72525 0.0
C165 C 0.65364 0.68508 0.91077 0.0
H166 H 0.70543 0.69975 0.61832 0.0
C167 C 0.6801 0.66384 0.97253 0.0
C168 C 0.71713 0.65723 0.90774 0.0
H169 H 0.62773 0.69298 0.96436 0.0
H170 H 0.67392 0.65561 0.07213 0.0
C171 C 0.72404 0.66836 0.77812 0.0
C172 C 0.07087 0.72003 0.10901 0.0
C173 C 0.07609 0.71248 0.23774 0.0
H174 H 1.01975 0.70236 0.95204 0.0
C175 C 0.03264 0.67581 0.30396 0.0
H176 H 0.10384 0.74743 0.05489 0.0
C177 C 0.98439 0.65011 0.24457 0.0
C178 C 0.97899 0.65966 0.1175 0.0
H179 H 0.03537 0.66912 0.40291 0.0
H180 H 0.95096 0.62409 0.29918 0.0
C181 C 1.02293 0.69381 0.04943 0.0
C182 C 0.37468 0.0254 0.62954 0.0
C183 C 0.38201 0.06878 0.56219 0.0
H184 H 0.34439 0.9437 0.62608 0.0
C185 C 0.37032 0.0635 0.43289 0.0
H186 H 0.38329 0.0282 0.72895 0.0
C187 C 0.3489 1.01551 0.37381 0.0
C188 C 0.33837 0.97162 0.44296 0.0
H189 H 0.37636 0.09643 0.37797 0.0
H190 H 0.33779 1.01226 0.27597 0.0
C191 C 0.35243 0.97711 0.57063 0.0
C192 C 0.25184 0.40805 0.60159 0.0
C193 C 0.20027 0.38491 0.64003 0.0
H194 H 0.30417 0.42786 0.44785 0.0
C195 C 0.16108 0.35549 0.55399 0.0
H196 H 0.28267 0.43064 0.66701 0.0
C197 C 0.17354 0.35365 0.4275 0.0
C198 C 0.22515 0.3813 0.38727 0.0
H199 H 0.12107 0.33767 0.58197 0.0
H200 H 0.14275 0.3349 0.35971 0.0
C201 C 0.26418 0.4062 0.47657 0.0
C202 C 0.85921 0.24438 0.9356 0.0
C203 C 0.83302 0.19279 0.9743 0.0
H204 H 0.89031 0.29698 0.7821 0.0
C205 C 0.82556 0.1542 0.88857 0.0
H206 H 0.86571 0.27478 1.00074 0.0
C207 C 0.83988 0.16707 0.7621 0.0
C208 C 0.86168 0.2185 0.72172 0.0
H209 H 0.80512 0.11416 0.91676 0.0
H210 H 0.82952 0.13654 0.69443 0.0
C211 C 0.87363 0.25714 0.81085 0.0
C212 C 0.62432 0.76599 0.212 0.0
C213 C 0.65569 0.80279 0.30074 0.0
H214 H 0.59682 0.75159 0.02356 0.0
C215 C 0.69138 0.85283 0.25952 0.0
H216 H 0.59661 0.72714 0.24087 0.0
C217 C 0.69152 0.86705 0.13329 0.0
C218 C 0.65602 0.8311 0.04842 0.0
H219 H 0.71579 0.8819 0.32645 0.0
H220 H 0.71629 0.90665 0.10481 0.0
C221 C 0.62432 0.78006 0.08768 0.0
C222 C 0.8504 0.68394 0.59762 0.0
C223 C 0.86698 0.6501 0.63956 0.0
H224 H 0.81952 0.70607 0.442 0.0
C225 C 0.87517 0.62026 0.55163 0.0
H226 H 0.84368 0.7072 0.66421 0.0
C227 C 0.86116 0.61935 0.42714 0.0
C228 C 0.8393 0.64871 0.38719 0.0
H229 H 0.88811 0.59404 0.58136 0.0
H230 H 0.8638 0.59255 0.36369 0.0
C231 C 0.8364 0.68318 0.47118 0.0
C232 C 0.17142 0.83059 0.79885 0.0
C233 C 0.20846 0.8329 0.71439 0.0
H234 H 0.15505 0.83808 0.99216 0.0
C235 C 0.25964 0.85388 0.75392 0.0
H236 H 0.1317 0.81439 0.76998 0.0
C237 C 0.27288 0.86744 0.87849 0.0
C238 C 0.23507 0.85981 0.96678 0.0
H239 H 0.28884 0.85609 0.69004 0.0
H240 H 0.3119 0.87963 0.90787 0.0
C241 C 0.18483 0.84426 0.9253 0.0
C242 C 0.41939 0.26541 0.20005 0.0
C243 C 0.39128 0.22709 0.28917 0.0
H244 H 0.44393 0.28236 0.00922 0.0
C245 C 0.35801 0.17641 0.24858 0.0
H246 H 0.445 0.30477 0.22895 0.0
C247 C 0.35804 0.16323 0.12198 0.0
C248 C 0.39073 0.20101 0.03613 0.0
H249 H 0.33591 0.1463 0.31614 0.0
H250 H 0.33609 0.12329 0.09385 0.0
C251 C 0.4189 0.25252 0.07464 0.0
C252 C 0.2978 0.6298 0.1674 0.0
C253 C 0.25164 0.58231 0.17732 0.0
H254 H 0.3334 0.71246 0.17239 0.0
C255 C 0.20572 0.58252 0.2007 0.0
H256 H 0.33369 0.63094 0.14654 0.0
C257 C 0.20515 0.62836 0.20883 0.0
C258 C 0.25077 0.67613 0.19796 0.0
H259 H 0.1694 0.54679 0.208 0.0
H260 H 0.16839 0.62604 0.2251 0.0
C261 C 0.29741 0.67643 0.17861 0.0
C262 C 0.63769 0.19655 0.51814 0.0
C263 C 0.68476 0.24253 0.50469 0.0
H264 H 0.55645 0.15997 0.53204 0.0
C265 C 0.68443 0.28931 0.50033 0.0
H266 H 0.63618 0.15972 0.52105 0.0
C267 C 0.63763 0.28957 0.50859 0.0
C268 C 0.59055 0.24301 0.51924 0.0
H269 H 0.71995 0.32536 0.48725 0.0
H270 H 0.63836 0.32601 0.50816 0.0
C271 C 0.59158 0.19671 0.5229 0.0
C272 C 0.41251 0.58843 0.89441 0.0
C273 C 0.36486 0.58498 0.86847 0.0
H274 H 0.49389 0.63569 0.90612 0.0
C275 C 0.36421 0.63043 0.83919 0.0
H276 H 0.41504 0.55479 0.91958 0.0
C277 C 0.41059 0.67773 0.8308 0.0
C278 C 0.45802 0.68015 0.85341 0.0
H279 H 0.32815 0.62934 0.82134 0.0
H280 H 0.4095 0.71167 0.80092 0.0
C281 C 0.45804 0.63519 0.88873 0.0
C282 C 0.84281 0.40203 0.1936 0.0
C283 C 0.79649 0.35471 0.19169 0.0
H284 H 0.87969 0.48352 0.19116 0.0
C285 C 0.74979 0.35507 0.18325 0.0
H286 H 0.87965 0.40375 0.20096 0.0
C287 C 0.74994 0.40203 0.17532 0.0
C288 C 0.79674 0.44914 0.17796 0.0
H289 H 0.71338 0.31934 0.18413 0.0
H290 H 0.71378 0.40144 0.16399 0.0
C291 C 0.84285 0.44819 0.18939 0.0
C292 C 0.41025 0.83501 0.5322 0.0
C293 C 0.36394 0.78901 0.51147 0.0
H294 H 0.49125 0.87226 0.55425 0.0
C295 C 0.36514 0.74279 0.50294 0.0
H296 H 0.41093 0.87139 0.53853 0.0
C297 C 0.41216 0.74314 0.51316 0.0
C298 C 0.45863 0.78978 0.53039 0.0
H299 H 0.33023 0.70682 0.48428 0.0
H300 H 0.41208 0.70707 0.50814 0.0
C301 C 0.45669 0.83552 0.53961 0.0
C302 C 0.63747 0.44982 0.86086 0.0
C303 C 0.68496 0.45112 0.86131 0.0
H304 H 0.55601 0.40495 0.8497 0.0
C305 C 0.685 0.40441 0.84833 0.0
H306 H 0.63546 0.48467 0.87159 0.0
C307 C 0.63833 0.35768 0.83402 0.0
C308 C 0.59104 0.35704 0.83427 0.0
H309 H 0.72082 0.40388 0.85083 0.0
H310 H 0.63935 0.32248 0.81974 0.0
C311 C 0.59151 0.40371 0.84965 0.0
loop_
_geom_bond_atom_site_label_1
_geom_bond_atom_site_label_2
_geom_bond_distance
_geom_bond_site_symmetry_2
_ccdc_geom_bond_type
Fe0 O2 1.918 1_554 S
Fe0 O5 1.997 . S
Fe0 O6 2.002 . S
Fe0 O11 1.976 . S
Fe0 O14 1.996 1_554 S
Fe1 O2 1.918 . S
Fe1 O9 1.997 1_556 S
Fe1 O12 1.996 . S
Fe1 O16 1.976 . S
Fe1 O19 2.002 1_556 S
O2 Fe0 1.918 1_556 S
O2 Fe1 1.918 . S
O2 Fe3 1.918 . S
Fe3 O2 1.918 . S
Fe3 O4 2.002 1_556 S
Fe3 O13 1.976 . S
Fe3 O17 1.996 . S
Fe3 O20 1.997 . S
O4 Fe3 2.002 1_554 S
O4 C21 1.295 . S
O5 Fe0 1.997 . S
O5 C21 1.235 . S
O6 Fe0 2.002 . S
O6 C7 1.295 . S
C7 O6 1.295 . S
C7 O9 1.235 . S
C8 O13 1.287 . S
C8 O14 1.255 . S
O9 Fe1 1.997 1_554 S
O9 C7 1.235 . S
C10 O16 1.287 . S
C10 O17 1.255 . S
O11 Fe0 1.976 . S
O11 C18 1.287 . S
O12 Fe1 1.996 . S
O12 C18 1.255 1_556 S
O13 Fe3 1.976 . S
O13 C8 1.287 . S
O14 Fe0 1.996 1_556 S
O14 C8 1.255 . S
C15 O19 1.295 1_556 S
C15 O20 1.236 . S
O16 Fe1 1.976 . S
O16 C10 1.287 . S
O17 Fe3 1.996 . S
O17 C10 1.255 . S
C18 O11 1.287 . S
C18 O12 1.255 1_554 S
O19 Fe1 2.002 1_554 S
O19 C15 1.295 1_554 S
O20 Fe3 1.997 . S
O20 C15 1.236 . S
C21 O4 1.295 . S
C21 O5 1.235 . S
Fe22 O24 1.918 . S
Fe22 O27 1.997 . S
Fe22 O28 2.002 . S
Fe22 O33 1.976 . S
Fe22 O36 1.996 . S
Fe23 O24 1.918 . S
Fe23 O31 1.997 . S
Fe23 O34 1.996 . S
Fe23 O38 1.976 . S
Fe23 O41 2.002 . S
O24 Fe22 1.918 . S
O24 Fe23 1.918 . S
O24 Fe25 1.918 . S
Fe25 O24 1.918 . S
Fe25 O26 2.002 . S
Fe25 O35 1.976 . S
Fe25 O39 1.996 . S
Fe25 O42 1.997 . S
O26 Fe25 2.002 . S
O26 C43 1.295 . S
O27 Fe22 1.997 . S
O27 C43 1.235 . S
O28 Fe22 2.002 . S
O28 C29 1.295 . S
C29 O28 1.295 . S
C29 O31 1.235 . S
C30 O35 1.287 . S
C30 O36 1.255 . S
O31 Fe23 1.997 . S
O31 C29 1.235 . S
C32 O38 1.287 . S
C32 O39 1.255 . S
O33 Fe22 1.976 . S
O33 C40 1.287 . S
O34 Fe23 1.996 . S
O34 C40 1.255 . S
O35 Fe25 1.976 . S
O35 C30 1.287 . S
O36 Fe22 1.996 . S
O36 C30 1.255 . S
C37 O41 1.295 . S
C37 O42 1.235 . S
O38 Fe23 1.976 . S
O38 C32 1.287 . S
O39 Fe25 1.996 . S
O39 C32 1.255 . S
C40 O33 1.287 . S
C40 O34 1.255 . S
O41 Fe23 2.002 . S
O41 C37 1.295 . S
O42 Fe25 1.997 . S
O42 C37 1.235 . S
C43 O26 1.295 . S
C43 O27 1.235 . S
Fe44 O46 1.918 . S
Fe44 O49 1.997 . S
Fe44 O50 2.002 . S
Fe44 O55 1.976 . S
Fe44 O58 1.996 . S
Fe45 O46 1.918 . S
Fe45 O53 1.997 . S
Fe45 O56 1.996 . S
Fe45 O60 1.976 . S
Fe45 O63 2.002 . S
O46 Fe44 1.918 . S
O46 Fe45 1.918 . S
O46 Fe47 1.918 . S
Fe47 O46 1.918 . S
Fe47 O48 2.002 . S
Fe47 O57 1.976 . S
Fe47 O61 1.996 . S
Fe47 O64 1.997 . S
O48 Fe47 2.002 . S
O48 C65 1.295 . S
O49 Fe44 1.997 . S
O49 C65 1.235 . S
O50 Fe44 2.002 . S
O50 C51 1.295 . S
C51 O50 1.295 . S
C51 O53 1.235 . S
C52 O57 1.287 . S
C52 O58 1.255 . S
O53 Fe45 1.997 . S
O53 C51 1.235 . S
C54 O60 1.287 . S
C54 O61 1.255 . S
O55 Fe44 1.976 . S
O55 C62 1.287 . S
O56 Fe45 1.996 . S
O56 C62 1.255 . S
O57 Fe47 1.976 . S
O57 C52 1.287 . S
O58 Fe44 1.996 . S
O58 C52 1.255 . S
C59 O63 1.295 . S
C59 O64 1.235 . S
O60 Fe45 1.976 . S
O60 C54 1.287 . S
O61 Fe47 1.996 . S
O61 C54 1.255 . S
C62 O55 1.287 . S
C62 O56 1.255 . S
O63 Fe45 2.002 . S
O63 C59 1.295 . S
O64 Fe47 1.997 . S
O64 C59 1.235 . S
C65 O48 1.295 . S
C65 O49 1.235 . S
Fe66 O68 1.918 . S
Fe66 O71 1.997 . S
Fe66 O72 2.002 1_556 S
Fe66 O77 1.976 . S
Fe66 O80 1.996 . S
Fe67 O68 1.918 1_554 S
Fe67 O75 1.997 . S
Fe67 O78 1.996 1_554 S
Fe67 O82 1.976 . S
Fe67 O85 2.002 . S
O68 Fe66 1.918 . S
O68 Fe67 1.918 1_556 S
O68 Fe69 1.918 . S
Fe69 O68 1.918 . S
Fe69 O70 2.002 1_556 S
Fe69 O79 1.976 . S
Fe69 O83 1.996 . S
Fe69 O86 1.997 1_556 S
O70 Fe69 2.002 1_554 S
O70 C87 1.295 1_554 S
O71 Fe66 1.997 . S
O71 C87 1.236 . S
O72 Fe66 2.002 1_554 S
O72 C73 1.295 . S
C73 O72 1.295 . S
C73 O75 1.235 . S
C74 O79 1.287 . S
C74 O80 1.255 . S
O75 Fe67 1.997 . S
O75 C73 1.235 . S
C76 O82 1.287 . S
C76 O83 1.255 1_554 S
O77 Fe66 1.976 . S
O77 C84 1.287 . S
O78 Fe67 1.996 1_556 S
O78 C84 1.255 . S
O79 Fe69 1.976 . S
O79 C74 1.287 . S
O80 Fe66 1.996 . S
O80 C74 1.255 . S
C81 O85 1.295 . S
C81 O86 1.235 . S
O82 Fe67 1.976 . S
O82 C76 1.287 . S
O83 Fe69 1.996 . S
O83 C76 1.255 1_556 S
C84 O77 1.287 . S
C84 O78 1.255 . S
O85 Fe67 2.002 . S
O85 C81 1.295 . S
O86 Fe69 1.997 1_554 S
O86 C81 1.235 . S
C87 O70 1.295 1_556 S
C87 O71 1.236 . S
Fe88 O90 1.918 . S
Fe88 O93 1.997 . S
Fe88 O94 2.002 . S
Fe88 O99 1.976 . S
Fe88 O102 1.996 . S
Fe89 O90 1.918 . S
Fe89 O97 1.997 . S
Fe89 O100 1.996 . S
Fe89 O104 1.976 . S
Fe89 O107 2.002 . S
O90 Fe88 1.918 . S
O90 Fe89 1.918 . S
O90 Fe91 1.918 . S
Fe91 O90 1.918 . S
Fe91 O92 2.002 . S
Fe91 O101 1.976 . S
Fe91 O105 1.996 . S
Fe91 O108 1.997 . S
O92 Fe91 2.002 . S
O92 C109 1.295 . S
O93 Fe88 1.997 . S
O93 C109 1.235 . S
O94 Fe88 2.002 . S
O94 C95 1.295 . S
C95 O94 1.295 . S
C95 O97 1.235 . S
C96 O101 1.287 . S
C96 O102 1.255 . S
O97 Fe89 1.997 . S
O97 C95 1.235 . S
C98 O104 1.287 . S
C98 O105 1.255 . S
O99 Fe88 1.976 . S
O99 C106 1.287 . S
O100 Fe89 1.996 . S
O100 C106 1.255 . S
O101 Fe91 1.976 . S
O101 C96 1.287 . S
O102 Fe88 1.996 . S
O102 C96 1.255 . S
C103 O107 1.295 . S
C103 O108 1.235 . S
O104 Fe89 1.976 . S
O104 C98 1.287 . S
O105 Fe91 1.996 . S
O105 C98 1.255 . S
C106 O99 1.287 . S
C106 O100 1.255 . S
O107 Fe89 2.002 . S
O107 C103 1.295 . S
O108 Fe91 1.997 . S
O108 C103 1.235 . S
C109 O92 1.295 . S
C109 O93 1.235 . S
Fe110 O112 1.918 . S
Fe110 O115 1.997 . S
Fe110 O116 2.002 . S
Fe110 O121 1.976 . S
Fe110 O124 1.996 . S
Fe111 O112 1.918 . S
Fe111 O119 1.997 . S
Fe111 O122 1.996 . S
Fe111 O126 1.976 . S
Fe111 O129 2.002 . S
O112 Fe110 1.918 . S
O112 Fe111 1.918 . S
O112 Fe113 1.918 . S
Fe113 O112 1.918 . S
Fe113 O114 2.002 . S
Fe113 O123 1.976 . S
Fe113 O127 1.996 . S
Fe113 O130 1.997 . S
O114 Fe113 2.002 . S
O114 C131 1.295 . S
O115 Fe110 1.997 . S
O115 C131 1.235 . S
O116 Fe110 2.002 . S
O116 C117 1.295 . S
C117 O116 1.295 . S
C117 O119 1.235 . S
C118 O123 1.287 . S
C118 O124 1.255 . S
O119 Fe111 1.997 . S
O119 C117 1.235 . S
C120 O126 1.287 . S
C120 O127 1.255 . S
O121 Fe110 1.976 . S
O121 C128 1.287 . S
O122 Fe111 1.996 . S
O122 C128 1.255 . S
O123 Fe113 1.976 . S
O123 C118 1.287 . S
O124 Fe110 1.996 . S
O124 C118 1.255 . S
C125 O129 1.295 . S
C125 O130 1.235 . S
O126 Fe111 1.976 . S
O126 C120 1.287 . S
O127 Fe113 1.996 . S
O127 C120 1.255 . S
C128 O121 1.287 . S
C128 O122 1.255 . S
O129 Fe111 2.002 . S
O129 C125 1.295 . S
O130 Fe113 1.997 . S
O130 C125 1.235 . S
C131 O114 1.295 . S
C131 O115 1.235 . S
C132 C133 1.387 . S
C132 H136 0.950 . S
C132 C141 1.390 . S
C133 C132 1.387 . S
C133 C135 1.387 . S
H134 C141 0.950 1_554 S
C135 C133 1.387 . S
C135 C137 1.390 . S
C135 H139 0.950 . S
H136 C132 0.950 . S
C137 C135 1.390 . S
C137 C138 1.387 . S
C137 H140 0.950 . S
C138 C137 1.387 . S
C138 C141 1.387 . S
H139 C135 0.950 . S
H140 C137 0.950 . S
C141 C132 1.390 . S
C141 H134 0.950 1_556 S
C141 C138 1.387 . S
C142 C143 1.387 . S
C142 H146 0.950 . S
C142 C151 1.390 1_455 S
C143 C142 1.387 . S
C143 C145 1.387 . S
H144 C151 0.950 . S
C145 C143 1.387 . S
C145 C147 1.390 1_455 S
C145 H149 0.950 . S
H146 C142 0.950 . S
C147 C145 1.390 1_655 S
C147 C148 1.387 . S
C147 H150 0.950 . S
C148 C147 1.387 . S
C148 C151 1.387 . S
H149 C145 0.950 . S
H150 C147 0.950 . S
C151 C142 1.390 1_655 S
C151 H144 0.950 . S
C151 C148 1.387 . S
C152 C153 1.387 . S
C152 H156 0.950 . S
C152 C161 1.390 1_545 S
C153 C152 1.387 . S
C153 C155 1.387 . S
H154 C161 0.950 . S
C155 C153 1.387 . S
C155 C157 1.390 1_545 S
C155 H159 0.950 . S
H156 C152 0.950 . S
C157 C155 1.390 1_565 S
C157 C158 1.387 . S
C157 H160 0.950 . S
C158 C157 1.387 . S
C158 C161 1.387 . S
H159 C155 0.950 . S
H160 C157 0.950 . S
C161 C152 1.390 1_565 S
C161 H154 0.950 . S
C161 C158 1.387 . S
C162 C163 1.387 . S
C162 H166 0.950 . S
C162 C171 1.390 . S
C163 C162 1.387 . S
C163 C165 1.387 . S
H164 C171 0.950 1_554 S
C165 C163 1.387 . S
C165 C167 1.390 . S
C165 H169 0.950 . S
H166 C162 0.950 . S
C167 C165 1.390 . S
C167 C168 1.387 . S
C167 H170 0.950 . S
C168 C167 1.387 . S
C168 C171 1.387 . S
H169 C165 0.950 . S
H170 C167 0.950 . S
C171 C162 1.390 . S
C171 H164 0.950 1_556 S
C171 C168 1.387 . S
C172 C173 1.387 . S
C172 H176 0.950 . S
C172 C181 1.376 1_455 S
C173 C172 1.387 . S
C173 C175 1.387 1_455 S
H174 C181 0.955 1_455 S
C175 C173 1.387 1_655 S
C175 C177 1.390 . S
C175 H179 0.950 . S
H176 C172 0.950 . S
C177 C175 1.390 . S
C177 C178 1.387 . S
C177 H180 0.950 . S
C178 C177 1.387 . S
C178 C181 1.397 . S
H179 C175 0.950 . S
H180 C177 0.950 . S
C181 C172 1.376 1_655 S
C181 H174 0.955 1_655 S
C181 C178 1.397 . S
C182 C183 1.387 . S
C182 H186 0.950 . S
C182 C191 1.390 1_545 S
C183 C182 1.387 . S
C183 C185 1.387 . S
H184 C191 0.950 . S
C185 C183 1.387 . S
C185 C187 1.390 1_545 S
C185 H189 0.950 . S
H186 C182 0.950 . S
C187 C185 1.390 1_565 S
C187 C188 1.387 . S
C187 H190 0.950 . S
C188 C187 1.387 . S
C188 C191 1.387 . S
H189 C185 0.950 . S
H190 C187 0.950 . S
C191 C182 1.390 1_565 S
C191 H184 0.950 . S
C191 C188 1.387 . S
C192 C193 1.387 . S
C192 H196 0.950 . S
C192 C201 1.390 . S
C193 C192 1.387 . S
C193 C195 1.387 . S
H194 C201 0.950 . S
C195 C193 1.387 . S
C195 C197 1.390 . S
C195 H199 0.950 . S
H196 C192 0.950 . S
C197 C195 1.390 . S
C197 C198 1.387 . S
C197 H200 0.950 . S
C198 C197 1.387 . S
C198 C201 1.387 . S
H199 C195 0.950 . S
H200 C197 0.950 . S
C201 C192 1.390 . S
C201 H194 0.950 . S
C201 C198 1.387 . S
C202 C203 1.387 . S
C202 H206 0.950 . S
C202 C211 1.390 . S
C203 C202 1.387 . S
C203 C205 1.387 . S
H204 C211 0.950 . S
C205 C203 1.387 . S
C205 C207 1.390 . S
C205 H209 0.950 . S
H206 C202 0.950 . S
C207 C205 1.390 . S
C207 C208 1.387 . S
C207 H210 0.950 . S
C208 C207 1.387 . S
C208 C211 1.387 . S
H209 C205 0.950 . S
H210 C207 0.950 . S
C211 C202 1.390 . S
C211 H204 0.950 . S
C211 C208 1.387 . S
C212 C213 1.387 . S
C212 H216 0.950 . S
C212 C221 1.390 . S
C213 C212 1.387 . S
C213 C215 1.387 . S
H214 C221 0.950 . S
C215 C213 1.387 . S
C215 C217 1.390 . S
C215 H219 0.950 . S
H216 C212 0.950 . S
C217 C215 1.390 . S
C217 C218 1.387 . S
C217 H220 0.950 . S
C218 C217 1.387 . S
C218 C221 1.387 . S
H219 C215 0.950 . S
H220 C217 0.950 . S
C221 C212 1.390 . S
C221 H214 0.950 . S
C221 C218 1.387 . S
C222 C223 1.387 . S
C222 H226 0.950 . S
C222 C231 1.390 . S
C223 C222 1.387 . S
C223 C225 1.387 . S
H224 C231 0.950 . S
C225 C223 1.387 . S
C225 C227 1.390 . S
C225 H229 0.950 . S
H226 C222 0.950 . S
C227 C225 1.390 . S
C227 C228 1.387 . S
C227 H230 0.950 . S
C228 C227 1.387 . S
C228 C231 1.387 . S
H229 C225 0.950 . S
H230 C227 0.950 . S
C231 C222 1.390 . S
C231 H224 0.950 . S
C231 C228 1.387 . S
C232 C233 1.387 . S
C232 H236 0.950 . S
C232 C241 1.390 . S
C233 C232 1.387 . S
C233 C235 1.387 . S
H234 C241 0.950 . S
C235 C233 1.387 . S
C235 C237 1.390 . S
C235 H239 0.950 . S
H236 C232 0.950 . S
C237 C235 1.390 . S
C237 C238 1.387 . S
C237 H240 0.950 . S
C238 C237 1.387 . S
C238 C241 1.387 . S
H239 C235 0.950 . S
H240 C237 0.950 . S
C241 C232 1.390 . S
C241 H234 0.950 . S
C241 C238 1.387 . S
C242 C243 1.387 . S
C242 H246 0.950 . S
C242 C251 1.390 . S
C243 C242 1.387 . S
C243 C245 1.387 . S
H244 C251 0.950 . S
C245 C243 1.387 . S
C245 C247 1.390 . S
C245 H249 0.950 . S
H246 C242 0.950 . S
C247 C245 1.390 . S
C247 C248 1.387 . S
C247 H250 0.950 . S
C248 C247 1.387 . S
C248 C251 1.387 . S
H249 C245 0.950 . S
H250 C247 0.950 . S
C251 C242 1.390 . S
C251 H244 0.950 . S
C251 C248 1.387 . S
C252 C253 1.387 . S
C252 H256 0.950 1_554 S
C252 C261 1.390 . S
C253 C252 1.387 . S
C253 C255 1.387 . S
H254 C261 0.950 1_556 S
C255 C253 1.387 . S
C255 C257 1.390 . S
C255 H259 0.950 . S
H256 C252 0.950 1_556 S
C257 C255 1.390 . S
C257 C258 1.387 . S
C257 H260 0.950 . S
C258 C257 1.387 . S
C258 C261 1.387 . S
H259 C255 0.950 . S
H260 C257 0.950 . S
C261 C252 1.390 . S
C261 H254 0.950 1_554 S
C261 C258 1.387 . S
C262 C263 1.387 . S
C262 H266 0.950 . S
C262 C271 1.390 . S
C263 C262 1.387 . S
C263 C265 1.387 . S
H264 C271 0.950 . S
C265 C263 1.387 . S
C265 C267 1.390 . S
C265 H269 0.950 . S
H266 C262 0.950 . S
C267 C265 1.390 . S
C267 C268 1.387 . S
C267 H270 0.950 . S
C268 C267 1.387 . S
C268 C271 1.387 . S
H269 C265 0.950 . S
H270 C267 0.950 . S
C271 C262 1.390 . S
C271 H264 0.950 . S
C271 C268 1.387 . S
C272 C273 1.387 . S
C272 H276 0.950 1_556 S
C272 C281 1.390 . S
C273 C272 1.387 . S
C273 C275 1.387 . S
H274 C281 0.950 1_554 S
C275 C273 1.387 . S
C275 C277 1.390 . S
C275 H279 0.950 . S
H276 C272 0.950 1_554 S
C277 C275 1.390 . S
C277 C278 1.387 . S
C277 H280 0.950 . S
C278 C277 1.387 . S
C278 C281 1.387 . S
H279 C275 0.950 . S
H280 C277 0.950 . S
C281 C272 1.390 . S
C281 H274 0.950 1_556 S
C281 C278 1.387 . S
C282 C283 1.387 . S
C282 H286 0.950 . S
C282 C291 1.390 . S
C283 C282 1.387 . S
C283 C285 1.387 . S
H284 C291 0.950 . S
C285 C283 1.387 . S
C285 C287 1.390 . S
C285 H289 0.950 1_554 S
H286 C282 0.950 . S
C287 C285 1.390 . S
C287 C288 1.387 . S
C287 H290 0.950 1_554 S
C288 C287 1.387 . S
C288 C291 1.387 . S
H289 C285 0.950 1_556 S
H290 C287 0.950 1_556 S
C291 C282 1.390 . S
C291 H284 0.950 . S
C291 C288 1.387 . S
C292 C293 1.387 . S
C292 H296 0.950 . S
C292 C301 1.390 . S
C293 C292 1.387 . S
C293 C295 1.387 . S
H294 C301 0.950 . S
C295 C293 1.387 . S
C295 C297 1.390 . S
C295 H299 0.950 . S
H296 C292 0.950 . S
C297 C295 1.390 . S
C297 C298 1.387 . S
C297 H300 0.950 . S
C298 C297 1.387 . S
C298 C301 1.387 . S
H299 C295 0.950 . S
H300 C297 0.950 . S
C301 C292 1.390 . S
C301 H294 0.950 . S
C301 C298 1.387 . S
C302 C303 1.387 . S
C302 H306 0.950 1_556 S
C302 C311 1.390 . S
C303 C302 1.387 . S
C303 C305 1.387 . S
H304 C311 0.950 1_554 S
C305 C303 1.387 . S
C305 C307 1.390 . S
C305 H309 0.950 . S
H306 C302 0.950 1_554 S
C307 C305 1.390 . S
C307 C308 1.387 . S
C307 H310 0.950 . S
C308 C307 1.387 . S
C308 C311 1.387 . S
H309 C305 0.950 . S
H310 C307 0.950 . S
C311 C302 1.390 . S
C311 H304 0.950 1_556 S
C311 C308 1.387 . S
C133 C125 1.792 . S
C138 C18 1.757 1_556 S
C143 C15 1.789 1_554 S
C148 C40 1.754 . S
C153 C37 1.793 . S
C158 C54 1.757 . S
C163 C65 1.792 . S
C168 C76 1.757 1_556 S
C173 C98 1.756 . S
C178 C87 1.791 1_554 S
C183 C128 1.754 . S
C188 C109 1.790 . S
C193 C10 1.209 . S
C198 C7 1.228 . S
C203 C32 1.207 1_556 S
C208 C29 1.229 . S
C213 C52 1.209 . S
C218 C59 1.228 1_554 S
C223 C74 1.207 . S
C228 C81 1.227 . S
C233 C103 1.228 . S
C238 C96 1.206 1_556 S
C243 C120 1.209 . S
C248 C117 1.227 1_554 S
C253 C21 1.333 . S
C258 C106 1.358 . S
C263 C43 1.333 . S
C268 C118 1.357 . S
C273 C8 1.359 . S
C278 C51 1.334 . S
C283 C30 1.358 . S
C288 C73 1.334 . S
C293 C95 1.332 . S
C298 C62 1.357 . S
C303 C84 1.359 . S
C308 C131 1.334 . S
