# Generated by pormake.
# Topology rob, (6)-cn, num edge types: 1
# Building blocks:
#     Node 0, Type 0, BuildingBlock: BETFAJ_clean_sbu_0, # of connection points: 6
#     Node 1, Type 0, BuildingBlock: BETFAJ_clean_sbu_0, # of connection points: 6
#     Node 2, Type 0, BuildingBlock: BETFAJ_clean_sbu_0, # of connection points: 6
#     Node 3, Type 0, BuildingBlock: BETFAJ_clean_sbu_0, # of connection points: 6
#     Edge 4, Type (0, 0), BuildingBlock: XUDNAN_clean_linker_2, # of connection points: 2
#     Edge 5, Type (0, 0), BuildingBlock: XUDNAN_clean_linker_2, # of connection points: 2
#     Edge 6, Type (0, 0), BuildingBlock: XUDNAN_clean_linker_2, # of connection points: 2
#     Edge 7, Type (0, 0), BuildingBlock: XUDNAN_clean_linker_2, # of connection points: 2
#     Edge 8, Type (0, 0), BuildingBlock: XUDNAN_clean_linker_2, # of connection points: 2
#     Edge 9, Type (0, 0), BuildingBlock: XUDNAN_clean_linker_2, # of connection points: 2
#     Edge 10, Type (0, 0), BuildingBlock: XUDNAN_clean_linker_2, # of connection points: 2
#     Edge 11, Type (0, 0), BuildingBlock: XUDNAN_clean_linker_2, # of connection points: 2
#     Edge 12, Type (0, 0), BuildingBlock: XUDNAN_clean_linker_2, # of connection points: 2
#     Edge 13, Type (0, 0), BuildingBlock: XUDNAN_clean_linker_2, # of connection points: 2
#     Edge 14, Type (0, 0), BuildingBlock: XUDNAN_clean_linker_2, # of connection points: 2
#     Edge 15, Type (0, 0), BuildingBlock: XUDNAN_clean_linker_2, # of connection points: 2
# Relax obj value: 0.157
# Max RMSD: 0.197
# Mean RMSD: 0.197
data_MOF--net-rob--node1-BETFAJ_clean_sbu_0--edge1-XUDNAN_clean_linker_2
_symmetry_space_group_name_H-M    P1
_symmetry_Int_Tables_number       1
_symmetry_cell_setting            triclinic
loop_
_symmetry_equiv_pos_as_xyz
'x, y, z'
_cell_length_a     16.44979
_cell_length_b     23.373322
_cell_length_c     37.235468
_cell_angle_alpha  89.959352
_cell_angle_beta   125.96079
_cell_angle_gamma 89.731596
loop_
_atom_site_label
_atom_site_type_symbol
_atom_site_fract_x
_atom_site_fract_y
_atom_site_fract_z
_atom_type_partial_charge
Sm0 Sm 0.16658 0.27902 0.99052 0.0
Sm1 Sm 0.37883 0.25573 0.01858 0.0
C2 C 1.00862 0.28089 0.99298 0.0
C3 C 1.00629 0.28867 0.0319 0.0
C4 C 0.93919 0.25778 0.03613 0.0
C5 C 0.94617 0.26029 0.07563 0.0
C6 C 1.02101 0.29342 0.11174 0.0
C7 C 0.08546 0.32575 0.1065 0.0
C8 C 0.07864 0.32312 0.06735 0.0
C9 C 0.26723 0.37592 0.99594 0.0
C10 C 0.35696 0.26342 0.09654 0.0
C11 C 0.54341 0.25088 0.02101 0.0
C12 C 0.56392 0.2491 0.98714 0.0
C13 C 0.52795 0.29185 0.95439 0.0
C14 C 0.54236 0.28708 0.92092 0.0
C15 C 0.59346 0.2396 0.91949 0.0
C16 C 0.63075 0.19747 0.95285 0.0
C17 C 0.61637 0.20228 0.98623 0.0
C18 C 0.27616 0.15956 0.01334 0.0
C19 C 0.19083 0.27171 0.91288 0.0
O20 O 0.0508 0.23354 0.99283 0.0
O21 O 0.03669 0.32513 0.98131 0.0
O22 O 0.30681 0.3348 0.02355 0.0
O23 O 0.17177 0.36794 0.96642 0.0
O24 O 0.26072 0.25812 0.06458 0.0
O25 O 0.42352 0.27264 0.08829 0.0
O26 O 0.50757 0.2985 0.0251 0.0
O27 O 0.50041 0.20568 0.02341 0.0
O28 O 0.23833 0.20026 0.98545 0.0
O29 O 0.37114 0.16779 0.04368 0.0
O30 O 0.28654 0.27893 0.94508 0.0
O31 O 0.12409 0.26136 0.921 0.0
H32 H 0.88345 0.23039 0.00946 0.0
H33 H 0.89564 0.23455 0.07848 0.0
H34 H 0.14278 0.35261 0.13307 0.0
H35 H 0.13214 0.347 0.06532 0.0
H36 H 0.48762 0.32871 0.95426 0.0
H37 H 0.5139 0.32085 0.89634 0.0
H38 H 0.6693 0.15987 0.95272 0.0
H39 H 0.6448 0.1687 0.01099 0.0
Sm40 Sm 0.6925 0.80931 0.00793 0.0
Sm41 Sm 0.83559 0.73629 1.00052 0.0
C42 C 0.58117 0.84944 0.03245 0.0
C43 C 0.57512 0.83711 0.06986 0.0
C44 C 0.5715 0.78058 0.08181 0.0
C45 C 0.56559 0.7697 0.11719 0.0
C46 C 0.56448 0.81498 0.14178 0.0
C47 C 0.57105 0.8714 0.13061 0.0
C48 C 0.57585 0.88233 0.09487 0.0
C49 C 0.83296 0.87098 0.00657 0.0
C50 C 0.88676 0.74464 0.09694 0.0
C51 C 0.94721 0.69674 0.97604 0.0
C52 C 0.95325 0.70967 0.93869 0.0
C53 C 0.95896 0.76636 0.92766 0.0
C54 C 0.96469 0.77782 0.89231 0.0
C55 C 0.96359 0.73298 0.86683 0.0
C56 C 0.95492 0.67645 0.87708 0.0
C57 C 0.95028 0.66493 0.91279 0.0
C58 C 0.69664 0.67421 1.00266 0.0
C59 C 0.64117 0.80127 0.91156 0.0
O60 O 0.55054 0.80947 1.00248 0.0
O61 O 0.66335 0.87431 0.04283 0.0
O62 O 0.84921 0.82462 0.02734 0.0
O63 O 0.7409 0.88824 0.98733 0.0
O64 O 0.79344 0.76345 0.0756 0.0
O65 O 0.92915 0.73634 0.07628 0.0
O66 O 0.97786 0.73636 1.00625 0.0
O67 O 0.86503 0.67169 0.96549 0.0
O68 O 0.67915 0.72045 0.9815 0.0
O69 O 0.78878 0.65736 0.02155 0.0
O70 O 0.73435 0.78224 0.93282 0.0
O71 O 0.59889 0.80956 0.93224 0.0
H72 H 0.57278 0.74472 0.06372 0.0
H73 H 0.56179 0.72575 0.12533 0.0
H74 H 0.56957 0.90717 0.14871 0.0
H75 H 0.57951 0.92623 0.08657 0.0
H76 H 0.95942 0.80191 0.94644 0.0
H77 H 0.97012 0.82186 0.88489 0.0
H78 H 0.95465 0.641 0.85829 0.0
H79 H 0.94496 0.62094 0.92036 0.0
Sm80 Sm 0.35328 0.80622 0.51061 0.0
Sm81 Sm 0.17283 0.74543 0.49757 0.0
C82 C 0.4992 0.83535 0.50373 0.0
C83 C 0.51696 0.82384 0.46972 0.0
C84 C 0.4994 0.76941 0.45054 0.0
C85 C 0.5053 0.76053 0.41497 0.0
C86 C 0.52789 0.80594 0.39731 0.0
C87 C 0.54876 0.85997 0.4176 0.0
C88 C 0.54326 0.86876 0.45339 0.0
C89 C 0.20244 0.87807 0.49486 0.0
C90 C 0.17611 0.74789 0.41351 0.0
C91 C 0.02677 0.71627 0.50435 0.0
C92 C 1.00917 0.72761 0.53842 0.0
C93 C 0.02839 0.78172 0.55821 0.0
C94 C 0.02278 0.79033 0.59388 0.0
C95 C 0.99878 0.74495 0.61102 0.0
C96 C 0.97622 0.69127 0.5901 0.0
C97 C 0.98147 0.68275 0.55422 0.0
C98 C 0.32359 0.67364 0.51311 0.0
C99 C 0.35053 0.80338 0.5948 0.0
O100 O 0.50592 0.79177 0.5275 0.0
O101 O 0.42258 0.86866 0.49103 0.0
O102 O 0.18976 0.83114 0.4754 0.0
O103 O 0.29734 0.89007 0.5222 0.0
O104 O 0.27163 0.76118 0.4427 0.0
O105 O 0.11282 0.74637 0.42437 0.0
O106 O 1.02028 0.76001 0.48074 0.0
O107 O 0.10322 0.68288 0.51693 0.0
O108 O 0.33619 0.72043 0.53272 0.0
O109 O 0.22867 0.66164 0.48582 0.0
O110 O 0.25491 0.79023 0.56563 0.0
O111 O 0.41362 0.80502 0.58384 0.0
H112 H 0.47853 0.73391 0.46225 0.0
H113 H 0.49056 0.71807 0.40088 0.0
H114 H 0.56539 0.89612 0.40477 0.0
H115 H 0.55643 0.91121 0.46742 0.0
H116 H 0.05036 0.81715 0.54691 0.0
H117 H 0.03886 0.83253 0.60848 0.0
H118 H 0.95847 0.65515 0.60252 0.0
H119 H 0.96703 0.64054 0.53971 0.0
Sm120 Sm 0.85093 0.29374 0.50175 0.0
Sm121 Sm 0.67245 0.25857 0.50379 0.0
C122 C 0.98355 0.30398 0.48324 0.0
C123 C 0.99044 0.30316 0.44539 0.0
C124 C 0.92877 0.26807 0.4082 0.0
C125 C 0.94112 0.2663 0.37394 0.0
C126 C 1.01498 0.29973 0.37619 0.0
C127 C 0.07472 0.33569 0.41308 0.0
C128 C 0.06263 0.33726 0.44724 0.0
C129 C 0.76211 0.38176 0.51633 0.0
C130 C 0.62292 0.27928 0.40864 0.0
C131 C 0.54626 0.251 0.52613 0.0
C132 C 0.55387 0.24237 0.56761 0.0
C133 C 0.51816 0.28476 0.58197 0.0
C134 C 0.52772 0.27813 0.62177 0.0
C135 C 0.57295 0.22873 0.64818 0.0
C136 C 0.60647 0.18578 0.63308 0.0
C137 C 0.5975 0.19258 0.59351 0.0
C138 C 0.76173 0.17009 0.4899 0.0
C139 C 0.90298 0.27007 0.59723 0.0
O140 O 0.96431 0.25554 0.49443 0.0
O141 O 0.93756 0.34771 0.48596 0.0
O142 O 0.71584 0.34161 0.48891 0.0
O143 O 0.85829 0.37794 0.53564 0.0
O144 O 0.72101 0.27759 0.4291 0.0
O145 O 0.58157 0.27958 0.4301 0.0
O146 O 0.579 0.29977 0.52208 0.0
O147 O 0.56949 0.2077 0.51139 0.0
O148 O 0.80751 0.21075 0.51683 0.0
O149 O 0.66573 0.17313 0.47127 0.0
O150 O 0.80496 0.26897 0.57699 0.0
O151 O 0.94332 0.27357 0.57548 0.0
H152 H 0.87218 0.24146 0.40594 0.0
H153 H 0.89462 0.23775 0.34627 0.0
H154 H 0.13137 0.36262 0.41569 0.0
H155 H 0.11073 0.36478 0.47549 0.0
H156 H 0.48406 0.32356 0.56267 0.0
H157 H 0.50214 0.31249 0.6324 0.0
H158 H 0.64009 0.14665 0.65188 0.0
H159 H 0.62558 0.15889 0.58348 0.0
H160 H 0.72128 0.57057 0.04313 0.0
H161 H 0.49634 0.69808 0.95671 0.0
H162 H 0.36476 0.63766 0.94959 0.0
H163 H 0.57238 0.44788 0.98567 0.0
H164 H 0.61972 0.40597 0.03496 0.0
H165 H 0.69714 0.46025 0.03506 0.0
H166 H 0.71906 0.50801 0.10306 0.0
H167 H 0.64153 0.45373 0.10298 0.0
H168 H 0.60939 0.52826 0.10012 0.0
H169 H 0.25646 0.56091 0.94692 0.0
H170 H 0.17771 0.47431 0.95106 0.0
H171 H 0.47179 0.39726 0.04287 0.0
C172 C 0.64438 0.58593 0.02302 0.0
C173 C 0.61885 0.63905 1.00033 0.0
C174 C 0.51753 0.65764 0.97433 0.0
C175 C 0.44233 0.62358 0.97012 0.0
C176 C 0.46968 0.57117 0.99241 0.0
C177 C 0.56828 0.55247 0.01864 0.0
C178 C 0.57666 0.49368 0.03819 0.0
C179 C 0.61897 0.44935 0.02252 0.0
C180 C 0.64043 0.49609 0.08911 0.0
C181 C 0.46714 0.48198 0.01833 0.0
C182 C 0.40699 0.5273 0.99193 0.0
C183 C 0.30289 0.5255 0.96791 0.0
C184 C 0.25886 0.47597 0.97048 0.0
C185 C 0.31847 0.42882 0.99722 0.0
C186 C 0.42426 0.43244 0.02212 0.0
H187 H 0.30539 0.573 0.47148 0.0
H188 H 0.52664 0.68968 0.57213 0.0
H189 H 0.66293 0.62742 0.58422 0.0
H190 H 0.44164 0.4423 0.52666 0.0
H191 H 0.40271 0.40689 0.47596 0.0
H192 H 0.32294 0.4605 0.47539 0.0
H193 H 0.32065 0.51723 0.41496 0.0
H194 H 0.40029 0.46376 0.4153 0.0
H195 H 0.43776 0.53775 0.42489 0.0
H196 H 0.77494 0.55223 0.58491 0.0
H197 H 0.8543 0.47044 0.57416 0.0
H198 H 0.55986 0.40238 0.47317 0.0
C199 C 0.38255 0.58536 0.49615 0.0
C200 C 0.40556 0.63626 0.52084 0.0
C201 C 0.50738 0.65104 0.55273 0.0
C202 C 0.58522 0.61585 0.55988 0.0
C203 C 0.55993 0.56592 0.53495 0.0
C204 C 0.46102 0.55063 0.50377 0.0
C205 C 0.454 0.49488 0.48124 0.0
C206 C 0.40226 0.44841 0.49037 0.0
C207 C 0.39999 0.50397 0.43113 0.0
C208 C 0.56441 0.48124 0.50445 0.0
C209 C 0.62426 0.5227 0.53537 0.0
C210 C 0.72873 0.51953 0.56083 0.0
C211 C 0.77313 0.47291 0.55446 0.0
C212 C 0.71333 0.43003 0.52288 0.0
C213 C 0.60756 0.43438 0.49767 0.0
H214 H 0.07063 0.13966 0.96404 0.0
H215 H 0.36167 0.0625 0.06112 0.0
H216 H 0.27893 0.97827 0.06573 0.0
H217 H 0.96243 0.09669 0.01982 0.0
H218 H 0.83877 0.08431 0.96973 0.0
H219 H 0.91991 0.13591 0.96993 0.0
H220 H 0.90162 0.0836 0.90436 0.0
H221 H 0.82064 0.03164 0.90406 0.0
H222 H 0.93183 1.00842 0.90929 0.0
H223 H 0.16731 0.90403 0.06264 0.0
H224 H 0.0328 0.84613 0.05488 0.0
H225 H 0.8121 0.97291 0.96434 0.0
C226 C 0.11667 0.10504 0.9862 0.0
C227 C 0.22278 0.10792 0.01243 0.0
C228 C 0.28037 0.06138 0.04072 0.0
C229 C 0.23405 1.01322 0.04356 0.0
C230 C 0.12967 1.01227 0.0183 0.0
C231 C 0.07137 0.057 0.99037 0.0
C232 C 0.96085 0.04665 0.96955 0.0
C233 C 0.91799 0.09365 0.98308 0.0
C234 C 0.90018 0.04231 0.9188 0.0
C235 C 0.96668 0.98924 0.99029 0.0
C236 C 0.06485 0.97004 0.01786 0.0
C237 C 0.09007 0.91853 0.04112 0.0
C238 C 1.01315 0.8859 0.03651 0.0
C239 C 0.91215 0.90502 0.00919 0.0
C240 C 0.88872 0.95724 0.98553 0.0
H241 H 0.96413 0.14999 0.5331 0.0
H242 H 0.67029 0.08078 0.4327 0.0
H243 H 0.75028 0.99887 0.42244 0.0
H244 H 0.08174 0.10962 0.4796 0.0
H245 H 0.20086 0.09232 0.53095 0.0
H246 H 0.12025 0.14565 0.53005 0.0
H247 H 0.12354 0.08989 0.59107 0.0
H248 H 0.20405 0.03635 0.59215 0.0
H249 H 0.0871 1.01572 0.58231 0.0
H250 H 0.86284 0.92374 0.42354 0.0
H251 H 0.99956 0.86157 0.43598 0.0
H252 H 0.21999 0.97929 0.53585 0.0
C253 C 0.91672 0.11774 0.50881 0.0
C254 C 0.81093 0.12177 0.48363 0.0
C255 C 0.75147 0.07853 0.45237 0.0
C256 C 0.79623 0.03185 0.44628 0.0
C257 C 0.90072 0.02898 0.4717 0.0
C258 C 0.96025 0.0708 0.50232 0.0
C259 C 0.07079 0.05735 0.52556 0.0
C260 C 0.12138 0.104 0.51595 0.0
C261 C 0.1245 0.04935 0.57575 0.0
C262 C 0.06417 1.00132 0.50346 0.0
C263 C 0.96538 0.98572 0.47241 0.0
C264 C 0.94047 0.93553 0.4478 0.0
C265 C 1.01857 0.90041 0.45515 0.0
C266 C 0.1203 0.91548 0.48694 0.0
C267 C 0.14293 0.96666 0.51129 0.0
H268 H 0.66796 0.32348 0.35517 0.0
H269 H 0.43933 0.22912 0.35367 0.0
H270 H 0.34888 0.2127 0.27305 0.0
H271 H 0.49476 0.39206 0.24602 0.0
H272 H 0.58504 0.38825 0.23342 0.0
H273 H 0.62727 0.39493 0.29013 0.0
H274 H 0.7366 0.30492 0.30985 0.0
H275 H 0.69197 0.29526 0.25307 0.0
H276 H 0.6794 0.23826 0.28211 0.0
H277 H 0.29116 0.20144 0.19519 0.0
H278 H 0.25598 0.20498 0.12139 0.0
H279 H 0.52224 0.30803 0.17341 0.0
C280 C 0.59779 0.30026 0.33765 0.0
C281 C 0.56002 0.27742 0.36019 0.0
C282 C 0.46838 0.24733 0.33657 0.0
C283 C 0.41718 0.23755 0.29105 0.0
C284 C 0.45805 0.25932 0.27004 0.0
C285 C 0.54512 0.29102 0.2923 0.0
C286 C 0.57324 0.30951 0.26198 0.0
C287 C 0.56981 0.37508 0.25762 0.0
C288 C 0.67643 0.28546 0.27771 0.0
C289 C 0.48958 0.28197 0.21929 0.0
C290 C 0.42413 0.25327 0.22479 0.0
C291 C 0.34103 0.22433 0.19031 0.0
C292 C 0.32204 0.22655 0.1486 0.0
C293 C 0.38646 0.25708 0.14188 0.0
C294 C 0.47239 0.28417 0.17783 0.0
H295 H 0.66899 0.85996 0.22641 0.0
H296 H 0.42649 0.74452 0.13653 0.0
H297 H 0.39519 0.7277 0.19286 0.0
H298 H 0.75931 0.77841 0.32767 0.0
H299 H 0.78957 0.84132 0.36121 0.0
H300 H 0.79561 0.84324 0.31444 0.0
H301 H 0.67341 0.92988 0.28194 0.0
H302 H 0.66714 0.92827 0.32862 0.0
H303 H 0.55343 0.92436 0.27296 0.0
H304 H 0.38261 0.72771 0.25639 0.0
H305 H 0.3941 0.74097 0.32472 0.0
H306 H 0.64947 0.85338 0.37608 0.0
C307 C 0.60954 0.83106 0.21874 0.0
C308 C 0.55018 0.80343 0.17706 0.0
C309 C 0.47359 0.76558 0.16836 0.0
C310 C 0.45496 0.75596 0.20008 0.0
C311 C 0.51419 0.78404 0.24065 0.0
C312 C 0.59057 0.82043 0.25035 0.0
C313 C 0.64276 0.84519 0.29664 0.0
C314 C 0.75336 0.82588 0.32677 0.0
C315 C 0.63358 0.91082 0.29491 0.0
C316 C 0.58199 0.8181 0.31088 0.0
C317 C 0.50851 0.78287 0.27805 0.0
C318 C 0.44089 0.75445 0.28265 0.0
C319 C 0.44855 0.762 0.32187 0.0
C320 C 0.52358 0.79756 0.35639 0.0
C321 C 0.59112 0.82593 0.35052 0.0
H322 H 0.70561 0.78566 0.85894 0.0
H323 H 0.44846 0.84261 0.8549 0.0
H324 H 0.35255 0.85753 0.77399 0.0
H325 H 0.66885 0.88331 0.77291 0.0
H326 H 0.70752 0.83016 0.75061 0.0
H327 H 0.75882 0.82882 0.80868 0.0
H328 H 0.70087 0.72425 0.80109 0.0
H329 H 0.64896 0.72534 0.74304 0.0
H330 H 0.57052 0.7068 0.76036 0.0
H331 H 0.28144 0.8602 0.69388 0.0
H332 H 0.23588 0.84736 0.61857 0.0
H333 H 0.53889 0.78882 0.67364 0.0
C334 C 0.62957 0.80208 0.84125 0.0
C335 C 0.58462 0.81324 0.86341 0.0
C336 C 0.48462 0.83401 0.83879 0.0
C337 C 0.42971 0.8428 0.79284 0.0
C338 C 0.4761 0.83094 0.77209 0.0
C339 C 0.57379 0.81108 0.79543 0.0
C340 C 0.60392 0.79837 0.7647 0.0
C341 C 0.68984 0.83753 0.77483 0.0
C342 C 0.63267 0.73492 0.76746 0.0
C343 C 0.50673 0.81292 0.72018 0.0
C344 C 0.43458 0.83217 0.72543 0.0
C345 C 0.33731 0.84554 0.68934 0.0
C346 C 0.31218 0.83794 0.64668 0.0
C347 C 0.38393 0.81719 0.64029 0.0
C348 C 0.48309 0.80562 0.67758 0.0
H349 H 0.44956 0.26349 0.6726 0.0
H350 H 0.73527 0.18076 0.72422 0.0
H351 H 0.77131 0.17556 0.79815 0.0
H352 H 0.52985 0.34826 0.76815 0.0
H353 H 0.4166 0.33817 0.7645 0.0
H354 H 0.41232 0.33551 0.71508 0.0
H355 H 0.33196 0.23536 0.69752 0.0
H356 H 0.33728 0.23681 0.74724 0.0
H357 H 0.39534 0.17875 0.73805 0.0
H358 H 0.78105 0.18308 0.86758 0.0
H359 H 0.75829 0.19672 0.92669 0.0
H360 H 0.462 0.26943 0.83052 0.0
C361 C 0.51993 0.24452 0.69946 0.0
C362 C 0.59032 0.22322 0.69233 0.0
C363 C 0.68016 0.19747 0.72844 0.0
C364 C 0.70156 0.19447 0.77079 0.0
C365 C 0.63152 0.21648 0.77674 0.0
C366 C 0.54183 0.24032 0.74202 0.0
C367 C 0.47855 0.25939 0.75746 0.0
C368 C 0.45818 0.32419 0.75091 0.0
C369 C 0.37995 0.22556 0.73364 0.0
C370 C 0.54784 0.24366 0.8064 0.0
C371 C 0.63566 0.219 0.81671 0.0
C372 C 0.71203 0.20173 0.85978 0.0
C373 C 0.69804 0.20936 0.89318 0.0
C374 C 0.60795 0.23364 0.88354 0.0
C375 C 0.53218 0.25119 0.83935 0.0
H376 H 0.82176 0.76074 0.14926 0.0
H377 H 0.08014 0.70433 0.15406 0.0
H378 H 0.1761 0.69091 0.23515 0.0
H379 H 0.95497 0.84156 0.24678 0.0
H380 H 0.87675 0.82323 0.26426 0.0
H381 H 0.825 0.82316 0.20622 0.0
H382 H 0.76909 0.71834 0.19988 0.0
H383 H 0.82015 0.71821 0.25793 0.0
H384 H 0.86004 0.66468 0.23638 0.0
H385 H 0.24696 0.68974 0.31528 0.0
H386 H 0.29189 0.70386 0.39036 0.0
H387 H 0.98774 0.76107 0.33441 0.0
C388 C 0.89808 0.74472 0.16714 0.0
C389 C 0.94336 0.73329 0.14516 0.0
C390 C 0.04372 0.7131 0.17005 0.0
C391 C 0.09867 0.70518 0.2161 0.0
C392 C 0.05194 0.71733 0.23666 0.0
C393 C 0.95388 0.73662 0.21304 0.0
C394 C 0.92333 0.74986 0.24355 0.0
C395 C 0.89333 0.81322 0.23999 0.0
C396 C 0.83813 0.71038 0.23386 0.0
C397 C 1.02069 0.73628 0.28826 0.0
C398 C 0.0933 0.71704 0.2833 0.0
C399 C 0.19073 0.70442 0.31959 0.0
C400 C 0.21549 0.71275 0.36211 0.0
C401 C 0.14322 0.73349 0.36819 0.0
C402 C 0.04395 0.74432 0.33073 0.0
H403 H 0.8757 0.29619 0.2846 0.0
H404 H 0.19625 0.29414 0.38914 0.0
H405 H 0.23016 0.29117 0.33297 0.0
H406 H 0.8831 0.19947 0.20983 0.0
H407 H 0.78738 0.23758 0.16027 0.0
H408 H 0.78688 0.23887 0.20853 0.0
H409 H 0.78861 0.34948 0.20792 0.0
H410 H 0.78927 0.34864 0.15971 0.0
H411 H 0.88622 0.38603 0.20893 0.0
H412 H 0.23106 0.29188 0.26688 0.0
H413 H 0.20042 0.2918 0.19394 0.0
H414 H 0.8786 0.29233 0.12974 0.0
C415 C 0.95289 0.29455 0.2956 0.0
C416 C 0.03332 0.29586 0.34144 0.0
C417 C 0.13336 0.2942 0.35437 0.0
C418 C 0.15345 0.29218 0.32268 0.0
C419 C 0.0728 0.29171 0.27795 0.0
C420 C 0.97445 0.29265 0.26421 0.0
C421 C 0.90216 0.29257 0.21376 0.0
C422 C 0.83598 0.23891 0.19713 0.0
C423 C 0.83778 0.34744 0.19658 0.0
C424 C 0.9756 0.29125 0.2015 0.0
C425 C 0.07345 0.29101 0.23923 0.0
C426 C 0.15493 0.29144 0.23703 0.0
C427 C 0.13647 0.29184 0.19525 0.0
C428 C 0.03705 0.29207 0.15571 0.0
C429 C 0.95551 0.29146 0.15913 0.0
H430 H 0.84872 0.23832 0.65057 0.0
H431 H 0.10149 0.29982 0.65349 0.0
H432 H 0.20256 0.30646 0.73526 0.0
H433 H 0.88043 0.3274 0.73283 0.0
H434 H 0.84763 0.27504 0.75772 0.0
H435 H 0.79571 0.27032 0.69964 0.0
H436 H 0.86493 0.1673 0.71026 0.0
H437 H 0.91685 0.16973 0.7685 0.0
H438 H 0.99665 0.15332 0.75154 0.0
H439 H 0.27074 0.31173 0.81487 0.0
H440 H 0.30835 0.31004 0.88892 0.0
H441 H 1.01078 0.24335 0.8342 0.0
C442 C 0.92566 0.25273 0.66833 0.0
C443 C 0.96746 0.26888 0.64586 0.0
C444 C 0.06844 0.28707 0.67024 0.0
C445 C 0.12612 0.2911 0.71654 0.0
C446 C 0.08154 0.27609 0.73749 0.0
C447 C 0.98417 0.25663 0.71429 0.0
C448 C 0.95361 0.24382 0.74461 0.0
C449 C 0.86399 0.28134 0.73298 0.0
C450 C 0.93162 0.17975 0.74365 0.0
C451 C 0.0484 0.26047 0.78863 0.0
C452 C 0.12119 0.27875 0.78365 0.0
C453 C 0.21477 0.29702 0.81926 0.0
C454 C 0.23517 0.29575 0.86125 0.0
C455 C 0.1626 0.27596 0.86744 0.0
C456 C 0.06756 0.25866 0.8305 0.0
H457 H 0.87561 0.69846 0.63166 0.0
H458 H 0.13499 0.80795 0.68442 0.0
H459 H 0.14723 0.82036 0.75299 0.0
H460 H 0.76889 0.77391 0.68117 0.0
H461 H 0.72998 0.70924 0.69329 0.0
H462 H 0.73647 0.71177 0.64666 0.0
H463 H 0.85518 0.62361 0.67764 0.0
H464 H 0.84936 0.62089 0.72442 0.0
H465 H 0.9693 0.62551 0.73329 0.0
H466 H 0.1351 0.81969 0.81663 0.0
H467 H 0.10381 0.80228 0.8729 0.0
H468 H 0.85677 0.69021 0.78147 0.0
C469 C 0.93493 0.72511 0.65757 0.0
C470 C 1.00346 0.7529 0.65205 0.0
C471 C 0.07981 0.78742 0.68702 0.0
C472 C 0.08788 0.79447 0.72637 0.0
C473 C 1.01928 0.76665 0.73063 0.0
C474 C 0.94438 0.73251 0.69732 0.0
C475 C 0.8829 0.70572 0.71133 0.0
C476 C 0.77306 0.7264 0.68132 0.0
C477 C 0.88965 0.64004 0.7117 0.0
C478 C 0.93635 0.72937 0.75799 0.0
C479 C 1.0139 0.76502 0.7681 0.0
C480 C 0.07437 0.79203 0.80907 0.0
C481 C 0.05573 0.78209 0.84076 0.0
C482 C 0.97785 0.74501 0.8316 0.0
C483 C 0.91722 0.7185 0.7895 0.0
loop_
_geom_bond_atom_site_label_1
_geom_bond_atom_site_label_2
_geom_bond_distance
_geom_bond_site_symmetry_2
_ccdc_geom_bond_type
Sm0 C2 2.846 1_556 S
Sm0 O20 2.543 1_556 S
Sm0 O21 2.450 1_556 S
Sm0 O22 2.681 . S
Sm0 O23 2.464 1_556 S
Sm0 O24 2.396 1_556 S
Sm0 O28 2.386 1_556 S
Sm0 O31 2.408 . S
Sm1 C11 2.846 1_554 S
Sm1 O22 2.386 1_554 S
Sm1 O25 2.408 . S
Sm1 O26 2.543 1_554 S
Sm1 O27 2.450 1_554 S
Sm1 O28 2.681 . S
Sm1 O29 2.464 1_554 S
Sm1 O30 2.396 1_554 S
C2 Sm0 2.846 1_554 S
C2 C3 1.506 . S
C2 O20 1.261 . S
C2 O21 1.242 . S
C3 C2 1.506 . S
C3 C4 1.358 . S
C3 C8 1.382 . S
C4 C3 1.358 . S
C4 C5 1.385 . S
C4 H32 0.930 . S
C5 C4 1.385 . S
C5 C6 1.395 . S
C5 H33 0.929 . S
C6 C5 1.395 . S
C6 C7 1.335 . S
C7 C6 1.335 . S
C7 C8 1.398 . S
C7 H34 0.930 . S
C8 C3 1.382 . S
C8 C7 1.398 . S
C8 H35 0.929 . S
C9 O22 1.271 1_554 S
C9 O23 1.251 . S
C10 O24 1.252 . S
C10 O25 1.272 . S
C11 Sm1 2.846 1_556 S
C11 C12 1.506 . S
C11 O26 1.261 . S
C11 O27 1.242 . S
C12 C11 1.506 . S
C12 C13 1.358 . S
C12 C17 1.382 . S
C13 C12 1.358 . S
C13 C14 1.385 . S
C13 H36 0.930 . S
C14 C13 1.385 . S
C14 C15 1.395 . S
C14 H37 0.929 . S
C15 C14 1.395 . S
C15 C16 1.335 . S
C16 C15 1.335 . S
C16 C17 1.398 . S
C16 H38 0.930 . S
C17 C12 1.382 . S
C17 C16 1.398 . S
C17 H39 0.929 . S
C18 O28 1.271 1_556 S
C18 O29 1.251 . S
C19 O30 1.252 . S
C19 O31 1.272 . S
O20 Sm0 2.543 1_554 S
O20 C2 1.261 . S
O21 Sm0 2.450 1_554 S
O21 C2 1.242 . S
O22 Sm0 2.681 . S
O22 Sm1 2.386 1_556 S
O22 C9 1.271 1_556 S
O23 Sm0 2.464 1_554 S
O23 C9 1.251 . S
O24 Sm0 2.396 1_554 S
O24 C10 1.252 . S
O25 Sm1 2.408 . S
O25 C10 1.272 . S
O26 Sm1 2.543 1_556 S
O26 C11 1.261 . S
O27 Sm1 2.450 1_556 S
O27 C11 1.242 . S
O28 Sm0 2.386 1_554 S
O28 Sm1 2.681 . S
O28 C18 1.271 1_554 S
O29 Sm1 2.464 1_556 S
O29 C18 1.251 . S
O30 Sm1 2.396 1_556 S
O30 C19 1.252 . S
O31 Sm0 2.408 . S
O31 C19 1.272 . S
H32 C4 0.930 . S
H33 C5 0.929 . S
H34 C7 0.930 . S
H35 C8 0.929 . S
H36 C13 0.930 . S
H37 C14 0.929 . S
H38 C16 0.930 . S
H39 C17 0.929 . S
Sm40 C42 2.846 1_556 S
Sm40 O60 2.543 1_556 S
Sm40 O61 2.450 1_556 S
Sm40 O62 2.681 . S
Sm40 O63 2.464 1_556 S
Sm40 O64 2.396 1_556 S
Sm40 O68 2.386 1_556 S
Sm40 O71 2.408 . S
Sm41 C51 2.846 1_554 S
Sm41 O62 2.386 1_554 S
Sm41 O65 2.408 . S
Sm41 O66 2.543 1_554 S
Sm41 O67 2.450 1_554 S
Sm41 O68 2.681 . S
Sm41 O69 2.464 1_554 S
Sm41 O70 2.396 1_554 S
C42 Sm40 2.846 1_554 S
C42 C43 1.506 . S
C42 O60 1.261 . S
C42 O61 1.242 . S
C43 C42 1.506 . S
C43 C44 1.358 . S
C43 C48 1.382 . S
C44 C43 1.358 . S
C44 C45 1.385 . S
C44 H72 0.930 . S
C45 C44 1.385 . S
C45 C46 1.395 . S
C45 H73 0.929 . S
C46 C45 1.395 . S
C46 C47 1.335 . S
C47 C46 1.335 . S
C47 C48 1.398 . S
C47 H74 0.930 . S
C48 C43 1.382 . S
C48 C47 1.398 . S
C48 H75 0.929 . S
C49 O62 1.271 1_554 S
C49 O63 1.251 . S
C50 O64 1.252 . S
C50 O65 1.272 . S
C51 Sm41 2.846 1_556 S
C51 C52 1.506 . S
C51 O66 1.261 . S
C51 O67 1.242 . S
C52 C51 1.506 . S
C52 C53 1.358 . S
C52 C57 1.382 . S
C53 C52 1.358 . S
C53 C54 1.385 . S
C53 H76 0.930 . S
C54 C53 1.385 . S
C54 C55 1.395 . S
C54 H77 0.929 . S
C55 C54 1.395 . S
C55 C56 1.335 . S
C56 C55 1.335 . S
C56 C57 1.398 . S
C56 H78 0.930 . S
C57 C52 1.382 . S
C57 C56 1.398 . S
C57 H79 0.929 . S
C58 O68 1.271 1_556 S
C58 O69 1.251 . S
C59 O70 1.252 . S
C59 O71 1.272 . S
O60 Sm40 2.543 1_554 S
O60 C42 1.261 . S
O61 Sm40 2.450 1_554 S
O61 C42 1.242 . S
O62 Sm40 2.681 . S
O62 Sm41 2.386 1_556 S
O62 C49 1.271 1_556 S
O63 Sm40 2.464 1_554 S
O63 C49 1.251 . S
O64 Sm40 2.396 1_554 S
O64 C50 1.252 . S
O65 Sm41 2.408 . S
O65 C50 1.272 . S
O66 Sm41 2.543 1_556 S
O66 C51 1.261 . S
O67 Sm41 2.450 1_556 S
O67 C51 1.242 . S
O68 Sm40 2.386 1_554 S
O68 Sm41 2.681 . S
O68 C58 1.271 1_554 S
O69 Sm41 2.464 1_556 S
O69 C58 1.251 . S
O70 Sm41 2.396 1_556 S
O70 C59 1.252 . S
O71 Sm40 2.408 . S
O71 C59 1.272 . S
H72 C44 0.930 . S
H73 C45 0.929 . S
H74 C47 0.930 . S
H75 C48 0.929 . S
H76 C53 0.930 . S
H77 C54 0.929 . S
H78 C56 0.930 . S
H79 C57 0.929 . S
Sm80 C82 2.846 . S
Sm80 O100 2.543 . S
Sm80 O101 2.450 . S
Sm80 O102 2.681 . S
Sm80 O103 2.464 . S
Sm80 O104 2.396 . S
Sm80 O108 2.386 . S
Sm80 O111 2.408 . S
Sm81 C91 2.846 . S
Sm81 O102 2.386 . S
Sm81 O105 2.408 . S
Sm81 O106 2.543 . S
Sm81 O107 2.450 . S
Sm81 O108 2.681 . S
Sm81 O109 2.464 . S
Sm81 O110 2.396 . S
C82 Sm80 2.846 . S
C82 C83 1.506 . S
C82 O100 1.261 . S
C82 O101 1.242 . S
C83 C82 1.506 . S
C83 C84 1.358 . S
C83 C88 1.382 . S
C84 C83 1.358 . S
C84 C85 1.385 . S
C84 H112 0.930 . S
C85 C84 1.385 . S
C85 C86 1.395 . S
C85 H113 0.929 . S
C86 C85 1.395 . S
C86 C87 1.335 . S
C87 C86 1.335 . S
C87 C88 1.398 . S
C87 H114 0.930 . S
C88 C83 1.382 . S
C88 C87 1.398 . S
C88 H115 0.929 . S
C89 O102 1.271 . S
C89 O103 1.251 . S
C90 O104 1.252 . S
C90 O105 1.272 . S
C91 Sm81 2.846 . S
C91 C92 1.506 . S
C91 O106 1.261 . S
C91 O107 1.242 . S
C92 C91 1.506 . S
C92 C93 1.358 . S
C92 C97 1.382 . S
C93 C92 1.358 . S
C93 C94 1.385 . S
C93 H116 0.930 . S
C94 C93 1.385 . S
C94 C95 1.395 . S
C94 H117 0.929 . S
C95 C94 1.395 . S
C95 C96 1.335 . S
C96 C95 1.335 . S
C96 C97 1.398 . S
C96 H118 0.930 . S
C97 C92 1.382 . S
C97 C96 1.398 . S
C97 H119 0.929 . S
C98 O108 1.271 . S
C98 O109 1.251 . S
C99 O110 1.252 . S
C99 O111 1.272 . S
O100 Sm80 2.543 . S
O100 C82 1.261 . S
O101 Sm80 2.450 . S
O101 C82 1.242 . S
O102 Sm80 2.681 . S
O102 Sm81 2.386 . S
O102 C89 1.271 . S
O103 Sm80 2.464 . S
O103 C89 1.251 . S
O104 Sm80 2.396 . S
O104 C90 1.252 . S
O105 Sm81 2.408 . S
O105 C90 1.272 . S
O106 Sm81 2.543 . S
O106 C91 1.261 . S
O107 Sm81 2.450 . S
O107 C91 1.242 . S
O108 Sm80 2.386 . S
O108 Sm81 2.681 . S
O108 C98 1.271 . S
O109 Sm81 2.464 . S
O109 C98 1.251 . S
O110 Sm81 2.396 . S
O110 C99 1.252 . S
O111 Sm80 2.408 . S
O111 C99 1.272 . S
H112 C84 0.930 . S
H113 C85 0.929 . S
H114 C87 0.930 . S
H115 C88 0.929 . S
H116 C93 0.930 . S
H117 C94 0.929 . S
H118 C96 0.930 . S
H119 C97 0.929 . S
Sm120 C122 2.846 . S
Sm120 O140 2.543 . S
Sm120 O141 2.450 . S
Sm120 O142 2.681 . S
Sm120 O143 2.464 . S
Sm120 O144 2.396 . S
Sm120 O148 2.386 . S
Sm120 O151 2.408 . S
Sm121 C131 2.846 . S
Sm121 O142 2.386 . S
Sm121 O145 2.408 . S
Sm121 O146 2.543 . S
Sm121 O147 2.450 . S
Sm121 O148 2.681 . S
Sm121 O149 2.464 . S
Sm121 O150 2.396 . S
C122 Sm120 2.846 . S
C122 C123 1.506 . S
C122 O140 1.261 . S
C122 O141 1.242 . S
C123 C122 1.506 . S
C123 C124 1.358 . S
C123 C128 1.382 . S
C124 C123 1.358 . S
C124 C125 1.385 . S
C124 H152 0.930 . S
C125 C124 1.385 . S
C125 C126 1.395 . S
C125 H153 0.929 . S
C126 C125 1.395 . S
C126 C127 1.335 . S
C127 C126 1.335 . S
C127 C128 1.398 . S
C127 H154 0.930 . S
C128 C123 1.382 . S
C128 C127 1.398 . S
C128 H155 0.929 . S
C129 O142 1.271 . S
C129 O143 1.251 . S
C130 O144 1.252 . S
C130 O145 1.272 . S
C131 Sm121 2.846 . S
C131 C132 1.506 . S
C131 O146 1.261 . S
C131 O147 1.242 . S
C132 C131 1.506 . S
C132 C133 1.358 . S
C132 C137 1.382 . S
C133 C132 1.358 . S
C133 C134 1.385 . S
C133 H156 0.930 . S
C134 C133 1.385 . S
C134 C135 1.395 . S
C134 H157 0.929 . S
C135 C134 1.395 . S
C135 C136 1.335 . S
C136 C135 1.335 . S
C136 C137 1.398 . S
C136 H158 0.930 . S
C137 C132 1.382 . S
C137 C136 1.398 . S
C137 H159 0.929 . S
C138 O148 1.271 . S
C138 O149 1.251 . S
C139 O150 1.252 . S
C139 O151 1.272 . S
O140 Sm120 2.543 . S
O140 C122 1.261 . S
O141 Sm120 2.450 . S
O141 C122 1.242 . S
O142 Sm120 2.681 . S
O142 Sm121 2.386 . S
O142 C129 1.271 . S
O143 Sm120 2.464 . S
O143 C129 1.251 . S
O144 Sm120 2.396 . S
O144 C130 1.252 . S
O145 Sm121 2.408 . S
O145 C130 1.272 . S
O146 Sm121 2.543 . S
O146 C131 1.261 . S
O147 Sm121 2.450 . S
O147 C131 1.242 . S
O148 Sm120 2.386 . S
O148 Sm121 2.681 . S
O148 C138 1.271 . S
O149 Sm121 2.464 . S
O149 C138 1.251 . S
O150 Sm121 2.396 . S
O150 C139 1.252 . S
O151 Sm120 2.408 . S
O151 C139 1.272 . S
H152 C124 0.930 . S
H153 C125 0.929 . S
H154 C127 0.930 . S
H155 C128 0.929 . S
H156 C133 0.930 . S
H157 C134 0.929 . S
H158 C136 0.930 . S
H159 C137 0.929 . S
H160 C172 0.930 . S
H161 C174 0.930 . S
H162 C175 0.930 . S
H163 C179 0.959 . S
H164 C179 0.959 . S
H165 C179 0.961 . S
H166 C180 0.960 . S
H167 C180 0.961 . S
H168 C180 0.959 . S
H169 C183 0.929 . S
H170 C184 0.931 . S
H171 C186 0.930 . S
C172 H160 0.930 . S
C172 C173 1.399 . S
C172 C177 1.399 1_556 S
C173 C172 1.399 . S
C173 C174 1.379 1_556 S
C174 H161 0.930 . S
C174 C173 1.379 1_554 S
C174 C175 1.386 . S
C175 H162 0.930 . S
C175 C174 1.386 . S
C175 C176 1.390 . S
C176 C175 1.390 . S
C176 C177 1.394 . S
C176 C182 1.465 . S
C177 C172 1.399 1_554 S
C177 C176 1.394 . S
C177 C178 1.516 . S
C178 C177 1.516 . S
C178 C179 1.502 1_554 S
C178 C180 1.561 . S
C178 C181 1.526 . S
C179 H163 0.959 . S
C179 H164 0.959 . S
C179 H165 0.961 . S
C179 C178 1.502 1_556 S
C180 H166 0.960 . S
C180 H167 0.961 . S
C180 H168 0.959 . S
C180 C178 1.561 . S
C181 C178 1.526 . S
C181 C182 1.396 . S
C181 C186 1.390 . S
C182 C176 1.465 . S
C182 C181 1.396 . S
C182 C183 1.399 . S
C183 H169 0.929 . S
C183 C182 1.399 . S
C183 C184 1.385 . S
C184 H170 0.931 . S
C184 C183 1.385 . S
C184 C185 1.389 . S
C185 C184 1.389 . S
C185 C186 1.387 . S
C186 H171 0.930 . S
C186 C181 1.390 . S
C186 C185 1.387 . S
H187 C199 0.930 . S
H188 C201 0.930 . S
H189 C202 0.930 . S
H190 C206 0.959 . S
H191 C206 0.959 . S
H192 C206 0.961 . S
H193 C207 0.960 . S
H194 C207 0.961 . S
H195 C207 0.959 . S
H196 C210 0.929 . S
H197 C211 0.931 . S
H198 C213 0.930 . S
C199 H187 0.930 . S
C199 C200 1.399 . S
C199 C204 1.399 . S
C200 C199 1.399 . S
C200 C201 1.376 . S
C201 H188 0.930 . S
C201 C200 1.376 . S
C201 C202 1.388 . S
C202 H189 0.930 . S
C202 C201 1.388 . S
C202 C203 1.390 . S
C203 C202 1.390 . S
C203 C204 1.394 . S
C203 C209 1.465 . S
C204 C199 1.399 . S
C204 C203 1.394 . S
C204 C205 1.516 . S
C205 C204 1.516 . S
C205 C206 1.502 . S
C205 C207 1.561 . S
C205 C208 1.526 . S
C206 H190 0.959 . S
C206 H191 0.959 . S
C206 H192 0.961 . S
C206 C205 1.502 . S
C207 H193 0.960 . S
C207 H194 0.961 . S
C207 H195 0.959 . S
C207 C205 1.561 . S
C208 C205 1.526 . S
C208 C209 1.396 . S
C208 C213 1.390 . S
C209 C203 1.465 . S
C209 C208 1.396 . S
C209 C210 1.399 . S
C210 H196 0.929 . S
C210 C209 1.399 . S
C210 C211 1.385 . S
C211 H197 0.931 . S
C211 C210 1.385 . S
C211 C212 1.389 . S
C212 C211 1.389 . S
C212 C213 1.387 . S
C213 H198 0.930 . S
C213 C208 1.390 . S
C213 C212 1.387 . S
H214 C226 0.930 . S
H215 C228 0.930 . S
H216 C229 0.930 1_655 S
H217 C233 0.959 1_565 S
H218 C233 0.959 . S
H219 C233 0.961 . S
H220 C234 0.960 . S
H221 C234 0.961 . S
H222 C234 0.959 . S
H223 C237 0.929 . S
H224 C238 0.931 . S
H225 C240 0.930 . S
C226 H214 0.930 . S
C226 C227 1.399 1_554 S
C226 C231 1.399 . S
C227 C226 1.399 1_556 S
C227 C228 1.376 . S
C228 H215 0.930 . S
C228 C227 1.376 . S
C228 C229 1.388 . S
C229 H216 0.930 1_455 S
C229 C228 1.388 . S
C229 C230 1.390 . S
C230 C229 1.390 . S
C230 C231 1.394 1_556 S
C230 C236 1.465 1_445 S
C231 C226 1.399 . S
C231 C230 1.394 1_554 S
C231 C232 1.516 . S
C232 C231 1.516 . S
C232 C233 1.502 . S
C232 C234 1.561 1_455 S
C232 C235 1.526 1_445 S
C233 H217 0.959 1_545 S
C233 H218 0.959 . S
C233 H219 0.961 . S
C233 C232 1.502 . S
C234 H220 0.960 . S
C234 H221 0.961 . S
C234 H222 0.959 . S
C234 C232 1.561 1_655 S
C235 C232 1.526 1_665 S
C235 C236 1.396 1_554 S
C235 C240 1.390 . S
C236 C230 1.465 1_665 S
C236 C235 1.396 1_556 S
C236 C237 1.399 . S
C237 H223 0.929 . S
C237 C236 1.399 . S
C237 C238 1.385 . S
C238 H224 0.931 . S
C238 C237 1.385 . S
C238 C239 1.389 1_556 S
C239 C238 1.389 1_554 S
C239 C240 1.387 . S
C240 H225 0.930 . S
C240 C235 1.390 . S
C240 C239 1.387 . S
H241 C253 0.930 . S
H242 C255 0.930 . S
H243 C256 0.930 1_565 S
H244 C260 0.959 . S
H245 C260 0.959 . S
H246 C260 0.961 . S
H247 C261 0.960 . S
H248 C261 0.961 . S
H249 C261 0.959 . S
H250 C264 0.929 . S
H251 C265 0.931 . S
H252 C267 0.930 . S
C253 H241 0.930 . S
C253 C254 1.399 . S
C253 C258 1.399 . S
C254 C253 1.399 . S
C254 C255 1.376 . S
C255 H242 0.930 . S
C255 C254 1.376 . S
C255 C256 1.388 . S
C256 H243 0.930 1_545 S
C256 C255 1.388 . S
C256 C257 1.390 . S
C257 C256 1.390 . S
C257 C258 1.394 . S
C257 C263 1.465 1_645 S
C258 C253 1.399 . S
C258 C257 1.394 . S
C258 C259 1.516 1_655 S
C259 C258 1.516 1_455 S
C259 C260 1.502 1_455 S
C259 C261 1.561 . S
C259 C262 1.526 1_545 S
C260 H244 0.959 . S
C260 H245 0.959 . S
C260 H246 0.961 . S
C260 C259 1.502 1_655 S
C261 H247 0.960 . S
C261 H248 0.961 . S
C261 H249 0.959 . S
C261 C259 1.561 . S
C262 C259 1.526 1_565 S
C262 C263 1.396 . S
C262 C267 1.390 . S
C263 C257 1.465 1_465 S
C263 C262 1.396 . S
C263 C264 1.399 . S
C264 H250 0.929 . S
C264 C263 1.399 . S
C264 C265 1.385 . S
C265 H251 0.931 . S
C265 C264 1.385 . S
C265 C266 1.389 . S
C266 C265 1.389 . S
C266 C267 1.387 . S
C267 H252 0.930 . S
C267 C262 1.390 . S
C267 C266 1.387 . S
H268 C280 0.930 . S
H269 C282 0.930 . S
H270 C283 0.930 . S
H271 C287 0.959 . S
H272 C287 0.959 . S
H273 C287 0.961 . S
H274 C288 0.960 . S
H275 C288 0.961 . S
H276 C288 0.959 . S
H277 C291 0.929 . S
H278 C292 0.931 . S
H279 C294 0.930 . S
C280 H268 0.930 . S
C280 C281 1.399 . S
C280 C285 1.399 . S
C281 C280 1.399 . S
C281 C282 1.376 . S
C282 H269 0.930 . S
C282 C281 1.376 . S
C282 C283 1.388 . S
C283 H270 0.930 . S
C283 C282 1.388 . S
C283 C284 1.390 . S
C284 C283 1.390 . S
C284 C285 1.394 . S
C284 C290 1.465 . S
C285 C280 1.399 . S
C285 C284 1.394 . S
C285 C286 1.516 . S
C286 C285 1.516 . S
C286 C287 1.502 . S
C286 C288 1.561 . S
C286 C289 1.526 . S
C287 H271 0.959 . S
C287 H272 0.959 . S
C287 H273 0.961 . S
C287 C286 1.502 . S
C288 H274 0.960 . S
C288 H275 0.961 . S
C288 H276 0.959 . S
C288 C286 1.561 . S
C289 C286 1.526 . S
C289 C290 1.396 . S
C289 C294 1.390 . S
C290 C284 1.465 . S
C290 C289 1.396 . S
C290 C291 1.399 . S
C291 H277 0.929 . S
C291 C290 1.399 . S
C291 C292 1.385 . S
C292 H278 0.931 . S
C292 C291 1.385 . S
C292 C293 1.389 . S
C293 C292 1.389 . S
C293 C294 1.387 . S
C294 H279 0.930 . S
C294 C289 1.390 . S
C294 C293 1.387 . S
H295 C307 0.930 . S
H296 C309 0.930 . S
H297 C310 0.930 . S
H298 C314 0.959 . S
H299 C314 0.959 . S
H300 C314 0.961 . S
H301 C315 0.960 . S
H302 C315 0.961 . S
H303 C315 0.959 . S
H304 C318 0.929 . S
H305 C319 0.931 . S
H306 C321 0.930 . S
C307 H295 0.930 . S
C307 C308 1.399 . S
C307 C312 1.399 . S
C308 C307 1.399 . S
C308 C309 1.376 . S
C309 H296 0.930 . S
C309 C308 1.376 . S
C309 C310 1.388 . S
C310 H297 0.930 . S
C310 C309 1.388 . S
C310 C311 1.390 . S
C311 C310 1.390 . S
C311 C312 1.394 . S
C311 C317 1.465 . S
C312 C307 1.399 . S
C312 C311 1.394 . S
C312 C313 1.516 . S
C313 C312 1.516 . S
C313 C314 1.502 . S
C313 C315 1.561 . S
C313 C316 1.526 . S
C314 H298 0.959 . S
C314 H299 0.959 . S
C314 H300 0.961 . S
C314 C313 1.502 . S
C315 H301 0.960 . S
C315 H302 0.961 . S
C315 H303 0.959 . S
C315 C313 1.561 . S
C316 C313 1.526 . S
C316 C317 1.396 . S
C316 C321 1.390 . S
C317 C311 1.465 . S
C317 C316 1.396 . S
C317 C318 1.399 . S
C318 H304 0.929 . S
C318 C317 1.399 . S
C318 C319 1.385 . S
C319 H305 0.931 . S
C319 C318 1.385 . S
C319 C320 1.389 . S
C320 C319 1.389 . S
C320 C321 1.387 . S
C321 H306 0.930 . S
C321 C316 1.390 . S
C321 C320 1.387 . S
H322 C334 0.930 . S
H323 C336 0.930 . S
H324 C337 0.930 . S
H325 C341 0.959 . S
H326 C341 0.959 . S
H327 C341 0.961 . S
H328 C342 0.960 . S
H329 C342 0.961 . S
H330 C342 0.959 . S
H331 C345 0.929 . S
H332 C346 0.931 . S
H333 C348 0.930 . S
C334 H322 0.930 . S
C334 C335 1.399 . S
C334 C339 1.399 . S
C335 C334 1.399 . S
C335 C336 1.376 . S
C336 H323 0.930 . S
C336 C335 1.376 . S
C336 C337 1.388 . S
C337 H324 0.930 . S
C337 C336 1.388 . S
C337 C338 1.390 . S
C338 C337 1.390 . S
C338 C339 1.394 . S
C338 C344 1.465 . S
C339 C334 1.399 . S
C339 C338 1.394 . S
C339 C340 1.516 . S
C340 C339 1.516 . S
C340 C341 1.502 . S
C340 C342 1.561 . S
C340 C343 1.526 . S
C341 H325 0.959 . S
C341 H326 0.959 . S
C341 H327 0.961 . S
C341 C340 1.502 . S
C342 H328 0.960 . S
C342 H329 0.961 . S
C342 H330 0.959 . S
C342 C340 1.561 . S
C343 C340 1.526 . S
C343 C344 1.396 . S
C343 C348 1.390 . S
C344 C338 1.465 . S
C344 C343 1.396 . S
C344 C345 1.399 . S
C345 H331 0.929 . S
C345 C344 1.399 . S
C345 C346 1.385 . S
C346 H332 0.931 . S
C346 C345 1.385 . S
C346 C347 1.389 . S
C347 C346 1.389 . S
C347 C348 1.387 . S
C348 H333 0.930 . S
C348 C343 1.390 . S
C348 C347 1.387 . S
H349 C361 0.930 . S
H350 C363 0.930 . S
H351 C364 0.930 . S
H352 C368 0.959 . S
H353 C368 0.959 . S
H354 C368 0.961 . S
H355 C369 0.960 . S
H356 C369 0.961 . S
H357 C369 0.959 . S
H358 C372 0.929 . S
H359 C373 0.931 . S
H360 C375 0.930 . S
C361 H349 0.930 . S
C361 C362 1.399 . S
C361 C366 1.399 . S
C362 C361 1.399 . S
C362 C363 1.376 . S
C363 H350 0.930 . S
C363 C362 1.376 . S
C363 C364 1.388 . S
C364 H351 0.930 . S
C364 C363 1.388 . S
C364 C365 1.390 . S
C365 C364 1.390 . S
C365 C366 1.394 . S
C365 C371 1.465 . S
C366 C361 1.399 . S
C366 C365 1.394 . S
C366 C367 1.516 . S
C367 C366 1.516 . S
C367 C368 1.502 . S
C367 C369 1.561 . S
C367 C370 1.526 . S
C368 H352 0.959 . S
C368 H353 0.959 . S
C368 H354 0.961 . S
C368 C367 1.502 . S
C369 H355 0.960 . S
C369 H356 0.961 . S
C369 H357 0.959 . S
C369 C367 1.561 . S
C370 C367 1.526 . S
C370 C371 1.396 . S
C370 C375 1.390 . S
C371 C365 1.465 . S
C371 C370 1.396 . S
C371 C372 1.399 . S
C372 H358 0.929 . S
C372 C371 1.399 . S
C372 C373 1.385 . S
C373 H359 0.931 . S
C373 C372 1.385 . S
C373 C374 1.389 . S
C374 C373 1.389 . S
C374 C375 1.387 . S
C375 H360 0.930 . S
C375 C370 1.390 . S
C375 C374 1.387 . S
H376 C388 0.930 . S
H377 C390 0.934 . S
H378 C391 0.930 . S
H379 C395 0.959 . S
H380 C395 0.959 . S
H381 C395 0.961 . S
H382 C396 0.960 1_655 S
H383 C396 0.961 1_655 S
H384 C396 0.959 . S
H385 C399 0.929 . S
H386 C400 0.931 . S
H387 C402 0.930 . S
C388 H376 0.930 . S
C388 C389 1.399 . S
C388 C393 1.399 . S
C389 C388 1.399 . S
C389 C390 1.376 . S
C390 H377 0.934 . S
C390 C389 1.376 . S
C390 C391 1.388 1_655 S
C391 H378 0.930 . S
C391 C390 1.388 1_455 S
C391 C392 1.390 . S
C392 C391 1.390 . S
C392 C393 1.394 1_455 S
C392 C398 1.465 . S
C393 C388 1.399 . S
C393 C392 1.394 1_655 S
C393 C394 1.516 . S
C394 C393 1.516 . S
C394 C395 1.502 . S
C394 C396 1.561 1_655 S
C394 C397 1.526 1_655 S
C395 H379 0.959 . S
C395 H380 0.959 . S
C395 H381 0.961 . S
C395 C394 1.502 . S
C396 H382 0.960 1_455 S
C396 H383 0.961 1_455 S
C396 H384 0.959 . S
C396 C394 1.561 1_455 S
C397 C394 1.526 1_455 S
C397 C398 1.396 . S
C397 C402 1.390 . S
C398 C392 1.465 . S
C398 C397 1.396 . S
C398 C399 1.399 . S
C399 H385 0.929 . S
C399 C398 1.399 . S
C399 C400 1.385 . S
C400 H386 0.931 . S
C400 C399 1.385 . S
C400 C401 1.389 . S
C401 C400 1.389 . S
C401 C402 1.387 . S
C402 H387 0.930 . S
C402 C397 1.390 . S
C402 C401 1.387 . S
H403 C415 0.930 . S
H404 C417 0.930 . S
H405 C418 0.930 . S
H406 C422 0.959 . S
H407 C422 0.959 . S
H408 C422 0.961 . S
H409 C423 0.960 . S
H410 C423 0.961 . S
H411 C423 0.959 . S
H412 C426 0.929 . S
H413 C427 0.931 . S
H414 C429 0.930 . S
C415 H403 0.930 . S
C415 C416 1.399 . S
C415 C420 1.399 . S
C416 C415 1.399 . S
C416 C417 1.376 1_655 S
C417 H404 0.930 . S
C417 C416 1.376 1_455 S
C417 C418 1.388 . S
C418 H405 0.930 . S
C418 C417 1.388 . S
C418 C419 1.390 . S
C419 C418 1.390 . S
C419 C420 1.394 1_455 S
C419 C425 1.465 . S
C420 C415 1.399 . S
C420 C419 1.394 1_655 S
C420 C421 1.516 . S
C421 C420 1.516 . S
C421 C422 1.502 . S
C421 C423 1.561 . S
C421 C424 1.526 . S
C422 H406 0.959 . S
C422 H407 0.959 . S
C422 H408 0.961 . S
C422 C421 1.502 . S
C423 H409 0.960 . S
C423 H410 0.961 . S
C423 H411 0.959 . S
C423 C421 1.561 . S
C424 C421 1.526 . S
C424 C425 1.396 1_655 S
C424 C429 1.390 . S
C425 C419 1.465 . S
C425 C424 1.396 1_455 S
C425 C426 1.399 . S
C426 H412 0.929 . S
C426 C425 1.399 . S
C426 C427 1.385 . S
C427 H413 0.931 . S
C427 C426 1.385 . S
C427 C428 1.389 . S
C428 C427 1.389 . S
C428 C429 1.387 1_455 S
C429 H414 0.930 . S
C429 C424 1.390 . S
C429 C428 1.387 1_655 S
H430 C442 0.930 . S
H431 C444 0.930 . S
H432 C445 0.930 . S
H433 C449 0.959 . S
H434 C449 0.959 . S
H435 C449 0.961 . S
H436 C450 0.962 1_655 S
H437 C450 0.961 . S
H438 C450 0.959 . S
H439 C453 0.929 . S
H440 C454 0.931 . S
H441 C456 0.930 . S
C442 H430 0.930 . S
C442 C443 1.399 . S
C442 C447 1.399 . S
C443 C442 1.399 . S
C443 C444 1.376 . S
C444 H431 0.930 . S
C444 C443 1.376 . S
C444 C445 1.388 1_655 S
C445 H432 0.930 . S
C445 C444 1.388 1_455 S
C445 C446 1.390 . S
C446 C445 1.390 . S
C446 C447 1.394 1_455 S
C446 C452 1.465 . S
C447 C442 1.399 . S
C447 C446 1.394 1_655 S
C447 C448 1.516 . S
C448 C447 1.516 . S
C448 C449 1.502 . S
C448 C450 1.561 1_655 S
C448 C451 1.526 1_655 S
C449 H433 0.959 . S
C449 H434 0.959 . S
C449 H435 0.961 . S
C449 C448 1.502 . S
C450 H436 0.962 1_455 S
C450 H437 0.961 . S
C450 H438 0.959 . S
C450 C448 1.561 1_455 S
C451 C448 1.526 1_455 S
C451 C452 1.396 . S
C451 C456 1.390 . S
C452 C446 1.465 . S
C452 C451 1.396 . S
C452 C453 1.399 . S
C453 H439 0.929 . S
C453 C452 1.399 . S
C453 C454 1.385 . S
C454 H440 0.931 . S
C454 C453 1.385 . S
C454 C455 1.389 . S
C455 C454 1.389 . S
C455 C456 1.387 . S
C456 H441 0.930 . S
C456 C451 1.390 . S
C456 C455 1.387 . S
H457 C469 0.930 . S
H458 C471 0.930 . S
H459 C472 0.930 . S
H460 C476 0.959 . S
H461 C476 0.959 . S
H462 C476 0.961 . S
H463 C477 0.960 . S
H464 C477 0.961 1_655 S
H465 C477 0.959 . S
H466 C480 0.929 . S
H467 C481 0.931 . S
H468 C483 0.930 . S
C469 H457 0.930 . S
C469 C470 1.399 1_655 S
C469 C474 1.399 . S
C470 C469 1.399 1_455 S
C470 C471 1.376 . S
C471 H458 0.930 . S
C471 C470 1.376 . S
C471 C472 1.388 . S
C472 H459 0.930 . S
C472 C471 1.388 . S
C472 C473 1.390 . S
C473 C472 1.390 . S
C473 C474 1.394 1_455 S
C473 C479 1.465 . S
C474 C469 1.399 . S
C474 C473 1.394 1_655 S
C474 C475 1.516 . S
C475 C474 1.516 . S
C475 C476 1.502 . S
C475 C477 1.561 1_655 S
C475 C478 1.526 . S
C476 H460 0.959 . S
C476 H461 0.959 . S
C476 H462 0.961 . S
C476 C475 1.502 . S
C477 H463 0.960 . S
C477 H464 0.961 1_455 S
C477 H465 0.959 . S
C477 C475 1.561 1_455 S
C478 C475 1.526 . S
C478 C479 1.396 1_655 S
C478 C483 1.390 . S
C479 C473 1.465 . S
C479 C478 1.396 1_455 S
C479 C480 1.399 . S
C480 H466 0.929 . S
C480 C479 1.399 . S
C480 C481 1.385 . S
C481 H467 0.931 . S
C481 C480 1.385 . S
C481 C482 1.389 1_455 S
C482 C481 1.389 1_655 S
C482 C483 1.387 . S
C483 H468 0.930 . S
C483 C478 1.390 . S
C483 C482 1.387 . S
C173 C58 1.585 . S
C185 C9 1.565 . S
C200 C98 1.592 . S
C212 C129 1.564 . S
C227 C18 1.584 . S
C239 C49 1.575 . S
C254 C138 1.581 . S
C266 C89 1.578 . S
C281 C130 1.711 . S
C293 C10 1.711 . S
C308 C46 0.999 . S
C320 C86 0.964 . S
C335 C59 1.710 . S
C347 C99 1.714 . S
C362 C135 0.988 . S
C374 C15 1.026 . S
C389 C50 1.691 . S
C401 C90 1.682 . S
C416 C126 1.027 . S
C428 C6 0.978 . S
C443 C139 1.710 . S
C455 C19 1.714 . S
C470 C95 0.966 . S
C482 C55 0.997 . S
