# Generated by pormake.
# Topology wld, (5)-cn, num edge types: 1
# Building blocks:
#     Node 0, Type 0, BuildingBlock: XOMCOT_clean_sbu_1, # of connection points: 5
#     Node 1, Type 0, BuildingBlock: XOMCOT_clean_sbu_1, # of connection points: 5
#     Node 2, Type 0, BuildingBlock: XOMCOT_clean_sbu_1, # of connection points: 5
#     Node 3, Type 0, BuildingBlock: XOMCOT_clean_sbu_1, # of connection points: 5
#     Node 4, Type 0, BuildingBlock: XOMCOT_clean_sbu_1, # of connection points: 5
#     Node 5, Type 0, BuildingBlock: XOMCOT_clean_sbu_1, # of connection points: 5
#     Node 6, Type 0, BuildingBlock: XOMCOT_clean_sbu_1, # of connection points: 5
#     Node 7, Type 0, BuildingBlock: XOMCOT_clean_sbu_1, # of connection points: 5
#     Node 8, Type 0, BuildingBlock: XOMCOT_clean_sbu_1, # of connection points: 5
#     Node 9, Type 0, BuildingBlock: XOMCOT_clean_sbu_1, # of connection points: 5
#     Node 10, Type 0, BuildingBlock: XOMCOT_clean_sbu_1, # of connection points: 5
#     Node 11, Type 0, BuildingBlock: XOMCOT_clean_sbu_1, # of connection points: 5
#     Edge 12, Type (0, 0), BuildingBlock: XUDNAN_clean_linker_2, # of connection points: 2
#     Edge 13, Type (0, 0), BuildingBlock: XUDNAN_clean_linker_2, # of connection points: 2
#     Edge 14, Type (0, 0), BuildingBlock: XUDNAN_clean_linker_2, # of connection points: 2
#     Edge 15, Type (0, 0), BuildingBlock: XUDNAN_clean_linker_2, # of connection points: 2
#     Edge 16, Type (0, 0), BuildingBlock: XUDNAN_clean_linker_2, # of connection points: 2
#     Edge 17, Type (0, 0), BuildingBlock: XUDNAN_clean_linker_2, # of connection points: 2
#     Edge 18, Type (0, 0), BuildingBlock: XUDNAN_clean_linker_2, # of connection points: 2
#     Edge 19, Type (0, 0), BuildingBlock: XUDNAN_clean_linker_2, # of connection points: 2
#     Edge 20, Type (0, 0), BuildingBlock: XUDNAN_clean_linker_2, # of connection points: 2
#     Edge 21, Type (0, 0), BuildingBlock: XUDNAN_clean_linker_2, # of connection points: 2
#     Edge 22, Type (0, 0), BuildingBlock: XUDNAN_clean_linker_2, # of connection points: 2
#     Edge 23, Type (0, 0), BuildingBlock: XUDNAN_clean_linker_2, # of connection points: 2
#     Edge 24, Type (0, 0), BuildingBlock: XUDNAN_clean_linker_2, # of connection points: 2
#     Edge 25, Type (0, 0), BuildingBlock: XUDNAN_clean_linker_2, # of connection points: 2
#     Edge 26, Type (0, 0), BuildingBlock: XUDNAN_clean_linker_2, # of connection points: 2
#     Edge 27, Type (0, 0), BuildingBlock: XUDNAN_clean_linker_2, # of connection points: 2
#     Edge 28, Type (0, 0), BuildingBlock: XUDNAN_clean_linker_2, # of connection points: 2
#     Edge 29, Type (0, 0), BuildingBlock: XUDNAN_clean_linker_2, # of connection points: 2
#     Edge 30, Type (0, 0), BuildingBlock: XUDNAN_clean_linker_2, # of connection points: 2
#     Edge 31, Type (0, 0), BuildingBlock: XUDNAN_clean_linker_2, # of connection points: 2
#     Edge 32, Type (0, 0), BuildingBlock: XUDNAN_clean_linker_2, # of connection points: 2
#     Edge 33, Type (0, 0), BuildingBlock: XUDNAN_clean_linker_2, # of connection points: 2
#     Edge 34, Type (0, 0), BuildingBlock: XUDNAN_clean_linker_2, # of connection points: 2
#     Edge 35, Type (0, 0), BuildingBlock: XUDNAN_clean_linker_2, # of connection points: 2
#     Edge 36, Type (0, 0), BuildingBlock: XUDNAN_clean_linker_2, # of connection points: 2
#     Edge 37, Type (0, 0), BuildingBlock: XUDNAN_clean_linker_2, # of connection points: 2
#     Edge 38, Type (0, 0), BuildingBlock: XUDNAN_clean_linker_2, # of connection points: 2
#     Edge 39, Type (0, 0), BuildingBlock: XUDNAN_clean_linker_2, # of connection points: 2
#     Edge 40, Type (0, 0), BuildingBlock: XUDNAN_clean_linker_2, # of connection points: 2
#     Edge 41, Type (0, 0), BuildingBlock: XUDNAN_clean_linker_2, # of connection points: 2
# Relax obj value: 0.226
# Max RMSD: 0.209
# Mean RMSD: 0.209
data_MOF--net-wld--node1-XOMCOT_clean_sbu_1--edge1-XUDNAN_clean_linker_2
_symmetry_space_group_name_H-M    P1
_symmetry_Int_Tables_number       1
_symmetry_cell_setting            triclinic
loop_
_symmetry_equiv_pos_as_xyz
'x, y, z'
_cell_length_a     37.10712
_cell_length_b     37.103488
_cell_length_c     52.39152
_cell_angle_alpha  90.005103
_cell_angle_beta   89.99154
_cell_angle_gamma 119.96682
loop_
_atom_site_label
_atom_site_type_symbol
_atom_site_fract_x
_atom_site_fract_y
_atom_site_fract_z
_atom_type_partial_charge
C0 C 0.36611 0.20003 0.07516 0.0
C1 C 0.38858 0.17966 0.07668 0.0
N2 N 0.42792 0.20769 0.08317 0.0
N3 N 0.39149 0.24085 0.08007 0.0
C4 C 0.42856 0.24415 0.08556 0.0
H5 H 0.33395 0.18631 0.06939 0.0
Co6 Co 0.38011 0.28382 0.07407 0.0
C7 C 0.46271 0.35407 0.05981 0.0
O8 O 0.44718 0.36516 0.04086 0.0
N9 N 0.36818 0.32658 0.06819 0.0
C10 C 0.36731 0.38594 0.07116 0.0
C11 C 0.38589 0.36415 0.07972 0.0
C12 C 0.33857 0.32612 0.05297 0.0
N13 N 0.33745 0.36195 0.05432 0.0
O14 O 0.3837 0.27592 0.03838 0.0
H15 H 0.41065 0.37504 0.09364 0.0
H16 H 0.31821 0.30003 0.04109 0.0
O17 O 0.43913 0.32356 0.07416 0.0
C18 C 0.3524 0.24652 0.02713 0.0
O19 O 0.31586 0.23039 0.03829 0.0
N20 N 0.3752 0.28906 0.10912 0.0
C21 C 0.35784 0.29003 0.16073 0.0
C22 C 0.39877 0.31312 0.15168 0.0
C23 C 0.40696 0.31184 0.12576 0.0
C24 C 0.33531 0.26637 0.11759 0.0
C25 C 0.3259 0.26622 0.14339 0.0
H26 H 0.43877 0.32933 0.1193 0.0
H27 H 0.31069 0.24826 0.10413 0.0
H28 H 0.45636 0.27316 0.08982 0.0
H29 H 0.37726 0.14718 0.07247 0.0
H30 H 0.37463 0.41669 0.07735 0.0
H31 H 0.42427 0.33149 0.1646 0.0
H32 H 0.29388 0.24813 0.14967 0.0
C33 C 0.80353 0.19951 0.07541 0.0
C34 C 0.82563 0.24204 0.07854 0.0
N35 N 0.79897 0.25441 0.08631 0.0
N36 N 0.76297 0.18535 0.08057 0.0
C37 C 0.76147 0.21955 0.08769 0.0
H38 H 0.81608 0.18051 0.06868 0.0
Co39 Co 0.71905 0.13191 0.07376 0.0
C40 C 0.65476 0.14997 0.05359 0.0
O41 O 0.64883 0.12736 0.03305 0.0
N42 N 0.67524 0.07787 0.06708 0.0
C43 C 0.61372 0.01953 0.06683 0.0
C44 C 0.63488 0.06072 0.07399 0.0
C45 C 0.67788 0.0462 0.05634 0.0
N46 N 0.64091 0.01046 0.05566 0.0
O47 O 0.73256 0.14176 0.03835 0.0
H48 H 0.6216 0.07687 0.08394 0.0
H49 H 0.70659 0.04863 0.04995 0.0
O50 O 0.68164 0.15378 0.07014 0.0
C51 C 0.75831 0.13204 0.02915 0.0
O52 O 0.77145 0.11198 0.04356 0.0
N53 N 0.70775 0.12233 0.10855 0.0
C54 C 0.68553 0.09184 0.15787 0.0
C55 C 0.66978 0.11555 0.14694 0.0
C56 C 0.68171 0.13108 0.12227 0.0
C57 C 0.72521 0.10138 0.11945 0.0
C58 C 0.71467 0.08595 0.14428 0.0
H59 H 0.66831 0.14837 0.11408 0.0
H60 H 0.74586 0.0949 0.1083 0.0
H61 H 0.73317 0.21946 0.09254 0.0
H62 H 0.85845 0.26241 0.07483 0.0
H63 H 0.58087 0.99809 0.06958 0.0
H64 H 0.64737 0.12083 0.15708 0.0
H65 H 0.72724 0.06754 0.15219 0.0
C66 C 0.79807 0.60878 0.12571 0.0
C67 C 0.75569 0.58262 0.12418 0.0
N68 N 0.74861 0.54849 0.11109 0.0
N69 N 0.81759 0.59108 0.11381 0.0
C70 C 0.78648 0.55448 0.10492 0.0
H71 H 0.81354 0.63988 0.13355 0.0
Co72 Co 0.87381 0.6191 0.10537 0.0
C73 C 0.86951 0.54586 0.07394 0.0
O74 O 0.88177 0.56111 0.05093 0.0
N75 N 0.93022 0.64942 0.09703 0.0
C76 C 0.995 0.70223 0.10024 0.0
C77 C 0.95741 0.68043 0.11231 0.0
C78 C 0.95207 0.6532 0.07551 0.0
N79 N 0.99161 0.68513 0.07714 0.0
O80 O 0.85914 0.63224 0.07345 0.0
H81 H 0.94972 0.68841 0.13055 0.0
H82 H 0.93863 0.63546 0.05832 0.0
O83 O 0.8677 0.56834 0.09167 0.0
C84 C 0.86539 0.66879 0.06982 0.0
O85 O 0.88596 0.69762 0.08706 0.0
N86 N 0.88807 0.60654 0.1374 0.0
C87 C 0.92558 0.60504 0.18325 0.0
C88 C 0.92553 0.58169 0.16226 0.0
C89 C 0.90728 0.58336 0.13944 0.0
C90 C 0.88527 0.62721 0.15815 0.0
C91 C 0.90384 0.62688 0.18134 0.0
H92 H 0.9116 0.56824 0.12313 0.0
H93 H 0.87162 0.64683 0.15622 0.0
H94 H 0.79104 0.53399 0.09239 0.0
H95 H 0.73198 0.58882 0.13138 0.0
H96 H 0.02223 0.72979 0.10734 0.0
H97 H 0.94147 0.56395 0.16297 0.0
H98 H 0.90358 0.64583 0.19698 0.0
C99 C 0.23275 0.39757 0.39695 0.0
C100 C 0.2149 0.42248 0.39813 0.0
N101 N 0.24187 0.45838 0.40974 0.0
N102 N 0.27109 0.4179 0.40746 0.0
C103 C 0.27553 0.45478 0.41488 0.0
H104 H 0.21711 0.36557 0.39072 0.0
Co105 Co 0.30651 0.39834 0.41832 0.0
C106 C 0.37654 0.48479 0.42873 0.0
O107 O 0.37136 0.48104 0.45358 0.0
N108 N 0.34144 0.37874 0.42954 0.0
C109 C 0.39501 0.37011 0.43913 0.0
C110 C 0.38329 0.39822 0.43148 0.0
C111 C 0.3286 0.33882 0.43576 0.0
N112 N 0.36051 0.33261 0.44186 0.0
O113 O 0.29701 0.40929 0.45262 0.0
H114 H 0.40443 0.43044 0.42694 0.0
H115 H 0.29629 0.31472 0.43558 0.0
O116 O 0.35338 0.45435 0.41413 0.0
C117 C 0.26713 0.37795 0.46352 0.0
O118 O 0.24966 0.3419 0.45177 0.0
N119 N 0.31283 0.38441 0.38492 0.0
C120 C 0.31709 0.35222 0.33747 0.0
C121 C 0.35101 0.389 0.34688 0.0
C122 C 0.34839 0.40441 0.37073 0.0
C123 C 0.28016 0.34802 0.3765 0.0
C124 C 0.28123 0.33181 0.35268 0.0
H125 H 0.37569 0.43125 0.37809 0.0
H126 H 0.25338 0.33086 0.38868 0.0
H127 H 0.30181 0.47751 0.42568 0.0
H128 H 0.18331 0.41343 0.39283 0.0
H129 H 0.42666 0.3768 0.44184 0.0
H130 H 0.37994 0.40505 0.33636 0.0
H131 H 0.25421 0.30333 0.34641 0.0
C132 C 0.62634 0.83313 0.36715 0.0
C133 C 0.60797 0.79099 0.36285 0.0
N134 N 0.57776 0.77121 0.38035 0.0
N135 N 0.60726 0.83984 0.387 0.0
C136 C 0.57816 0.80147 0.39477 0.0
H137 H 0.65246 0.85707 0.35674 0.0
Co138 Co 0.61984 0.88989 0.40251 0.0
C139 C 0.53854 0.86521 0.42724 0.0
O140 O 0.55546 0.88234 0.44922 0.0
N141 N 0.63344 0.94019 0.41782 0.0
C142 C 0.63801 1.0004 0.42822 0.0
C143 C 0.61203 0.96073 0.41931 0.0
C144 C 0.67225 0.96798 0.42549 0.0
N145 N 0.67603 0.00501 0.43186 0.0
O146 O 0.62338 0.86723 0.43438 0.0
H147 H 0.5804 0.94876 0.41286 0.0
H148 H 0.69764 0.96152 0.42533 0.0
O149 O 0.56117 0.86754 0.40835 0.0
C150 C 0.65272 0.85984 0.43903 0.0
O151 O 0.68401 0.87319 0.42296 0.0
N152 N 0.61735 0.91231 0.37095 0.0
C153 C 0.62166 0.94874 0.32351 0.0
C154 C 0.58474 0.93055 0.33786 0.0
C155 C 0.58304 0.91212 0.36133 0.0
C156 C 0.654 0.93138 0.35795 0.0
C157 C 0.65671 0.94908 0.334 0.0
H158 H 0.55406 0.89843 0.37164 0.0
H159 H 0.68116 0.93215 0.3661 0.0
H160 H 0.55774 0.79581 0.41087 0.0
H161 H 0.61679 0.77606 0.34836 0.0
H162 H 0.63019 0.02471 0.43029 0.0
H163 H 0.55721 0.93074 0.33126 0.0
H164 H 0.68589 0.96227 0.32376 0.0
C165 C 0.18902 0.78498 0.41038 0.0
C166 C 0.23136 0.80451 0.40633 0.0
N167 N 0.24361 0.77637 0.41003 0.0
N168 N 0.17502 0.74502 0.41706 0.0
C169 C 0.20906 0.74068 0.41637 0.0
H170 H 0.16993 0.7994 0.40949 0.0
Co171 Co 0.12191 0.70814 0.42919 0.0
C172 C 0.14362 0.65073 0.45512 0.0
O173 O 0.13736 0.66197 0.4777 0.0
N174 N 0.06873 0.67153 0.44122 0.0
C175 C 0.00736 0.6145 0.44658 0.0
C176 C 0.04766 0.62975 0.43862 0.0
C177 C 0.04066 0.68101 0.45073 0.0
N178 N 0.00296 0.6468 0.45409 0.0
O179 O 0.14022 0.73035 0.46247 0.0
H180 H 0.06017 0.61158 0.43037 0.0
H181 H 0.04712 0.71251 0.45383 0.0
O182 O 0.13782 0.66633 0.43494 0.0
C183 C 0.14139 0.76429 0.46803 0.0
O184 O 0.12467 0.77917 0.45212 0.0
N185 N 0.10431 0.68906 0.39624 0.0
C186 C 0.07284 0.66481 0.34712 0.0
C187 C 0.10011 0.65277 0.35756 0.0
C188 C 0.11586 0.66556 0.38215 0.0
C189 C 0.07856 0.70169 0.38633 0.0
C190 C 0.06234 0.68984 0.36182 0.0
H191 H 0.13743 0.65671 0.38963 0.0
H192 H 0.0706 0.72114 0.39761 0.0
H193 H 0.20932 0.71263 0.4216 0.0
H194 H 0.25166 0.83689 0.40145 0.0
H195 H 0.983 0.58219 0.44645 0.0
H196 H 0.10906 0.63345 0.34691 0.0
H197 H 0.04232 0.7008 0.35435 0.0
C198 C 0.59236 0.77918 0.88346 0.0
C199 C 0.5676 0.79675 0.87957 0.0
N200 N 0.53654 0.78052 0.89685 0.0
N201 N 0.57677 0.75214 0.90308 0.0
C202 C 0.54315 0.754 0.9109 0.0
H203 H 0.62012 0.78601 0.87291 0.0
Co204 Co 0.59698 0.72094 0.91874 0.0
C205 C 0.51586 0.64798 0.93807 0.0
O206 O 0.52936 0.64083 0.95959 0.0
N207 N 0.61759 0.69011 0.93445 0.0
C208 C 0.633 0.64128 0.94461 0.0
C209 C 0.60559 0.6495 0.9317 0.0
C210 C 0.65236 0.70597 0.94877 0.0
N211 N 0.66259 0.67697 0.95527 0.0
O212 O 0.59503 0.74454 0.95076 0.0
H213 H 0.57952 0.62761 0.92027 0.0
H214 H 0.67024 0.73849 0.95387 0.0
O215 O 0.54058 0.67696 0.92321 0.0
C216 C 0.62389 0.78206 0.95378 0.0
O217 O 0.65325 0.79878 0.93637 0.0
N218 N 0.60052 0.69962 0.88712 0.0
C219 C 0.61463 0.66873 0.84225 0.0
C220 C 0.57406 0.65363 0.85119 0.0
C221 C 0.56752 0.67002 0.87353 0.0
C222 C 0.64009 0.71553 0.87824 0.0
C223 C 0.64789 0.70065 0.85566 0.0
H224 H 0.53594 0.65836 0.87984 0.0
H225 H 0.66576 0.73936 0.88908 0.0
H226 H 0.52453 0.73708 0.92724 0.0
H227 H 0.57198 0.81946 0.86513 0.0
H228 H 0.63207 0.61168 0.94517 0.0
H229 H 0.54768 0.62943 0.84095 0.0
H230 H 0.67962 0.71308 0.84912 0.0
C231 C 0.20048 0.82611 0.88285 0.0
C232 C 0.18133 0.78366 0.87858 0.0
N233 N 0.1995 0.76784 0.89371 0.0
N234 N 0.23074 0.83679 0.90037 0.0
C235 C 0.22932 0.80083 0.90646 0.0
H236 H 0.19211 0.84748 0.87435 0.0
Co237 Co 0.26472 0.8865 0.91726 0.0
C238 C 0.34789 0.89177 0.91488 0.0
O239 O 0.36706 0.93154 0.90903 0.0
N240 N 0.29905 0.93614 0.93569 0.0
C241 C 0.34453 0.97775 0.96497 0.0
C242 C 0.32413 0.93823 0.95508 0.0
C243 C 0.30321 0.97461 0.93525 0.0
N244 N 0.33127 1.00051 0.95246 0.0
O245 O 0.24293 0.85786 0.94861 0.0
H246 H 0.32712 0.91235 0.96192 0.0
H247 H 0.28587 0.98385 0.92306 0.0
O248 O 0.30857 0.87199 0.91843 0.0
C249 C 0.21326 0.86065 0.95867 0.0
O250 O 0.20366 0.88765 0.94934 0.0
N251 N 0.28328 0.91361 0.88557 0.0
C252 C 0.30798 0.95723 0.83972 0.0
C253 C 0.3169 0.92544 0.84478 0.0
C254 C 0.30357 0.90341 0.8677 0.0
C255 C 0.26997 0.94072 0.87941 0.0
C256 C 0.28324 0.96406 0.85699 0.0
H257 H 0.30929 0.87796 0.87085 0.0
H258 H 0.24858 0.94396 0.89185 0.0
H259 H 0.24942 0.79895 0.92062 0.0
H260 H 0.15518 0.76582 0.86603 0.0
H261 H 0.36639 0.98863 0.9807 0.0
H262 H 0.33452 0.91812 0.83135 0.0
H263 H 0.27378 0.9868 0.85302 0.0
C264 C 0.17429 0.37775 0.89137 0.0
C265 C 0.21724 0.3994 0.89104 0.0
N266 N 0.22992 0.44008 0.89371 0.0
N267 N 0.16039 0.40484 0.89448 0.0
C268 C 0.19509 0.44254 0.89578 0.0
H269 H 0.15453 0.34429 0.89105 0.0
Co270 Co 0.10677 0.39132 0.90373 0.0
C271 C 0.11016 0.47067 0.88609 0.0
O272 O 0.07975 0.45195 0.86951 0.0
N273 N 0.05262 0.37677 0.91456 0.0
C274 C 0.99451 0.37471 0.92775 0.0
C275 C 0.03417 0.3998 0.91872 0.0
C276 C 0.02396 0.33822 0.92242 0.0
N277 N 0.98799 0.33578 0.92992 0.0
O278 O 0.12557 0.40242 0.9381 0.0
H279 H 0.0484 0.43295 0.9164 0.0
H280 H 0.02979 0.31244 0.92301 0.0
O281 O 0.12129 0.44946 0.89987 0.0
C282 C 0.12653 0.37235 0.94913 0.0
O283 O 0.10751 0.3356 0.93815 0.0
N284 N 0.08944 0.37828 0.86931 0.0
C285 C 0.0653 0.35189 0.81897 0.0
C286 C 0.10007 0.39096 0.82411 0.0
C287 C 0.11197 0.40331 0.84941 0.0
C288 C 0.05694 0.33947 0.86448 0.0
C289 C 0.04368 0.32617 0.83966 0.0
H290 H 0.13962 0.4329 0.85297 0.0
H291 H 0.04167 0.31772 0.87972 0.0
H292 H 0.19525 0.47113 0.9001 0.0
H293 H 0.23752 0.38632 0.88976 0.0
H294 H 0.97236 0.38458 0.93243 0.0
H295 H 0.11859 0.41142 0.80878 0.0
H296 H 0.01677 0.29564 0.83684 0.0
C297 C 0.78311 0.59175 0.6175 0.0
C298 C 0.79959 0.5658 0.61645 0.0
N299 N 0.78449 0.54183 0.59553 0.0
N300 N 0.75704 0.58355 0.5976 0.0
C301 C 0.7591 0.55336 0.58431 0.0
H302 H 0.78986 0.61507 0.63193 0.0
Co303 Co 0.72541 0.60874 0.59028 0.0
C304 C 0.64102 0.53774 0.57494 0.0
O305 O 0.62172 0.55911 0.57687 0.0
N306 N 0.69379 0.63531 0.58289 0.0
C307 C 0.65023 0.66009 0.58666 0.0
C308 C 0.66719 0.63945 0.59877 0.0
C309 C 0.69256 0.65466 0.56115 0.0
N310 N 0.66599 0.66957 0.56297 0.0
O311 O 0.74611 0.61746 0.55635 0.0
H312 H 0.659 0.6273 0.61789 0.0
H313 H 0.7101 0.65721 0.5441 0.0
O314 O 0.67982 0.55464 0.57988 0.0
C315 C 0.78313 0.64732 0.5534 0.0
O316 O 0.80128 0.67289 0.57261 0.0
N317 N 0.70797 0.60128 0.62432 0.0
C318 C 0.68723 0.60189 0.67545 0.0
C319 C 0.66609 0.56551 0.66068 0.0
C320 C 0.67744 0.56561 0.63523 0.0
C321 C 0.73002 0.63632 0.63856 0.0
C322 C 0.7204 0.63726 0.66415 0.0
H323 H 0.66114 0.53717 0.62445 0.0
H324 H 0.75491 0.66393 0.62974 0.0
H325 H 0.74201 0.5398 0.56688 0.0
H326 H 0.82141 0.56497 0.62982 0.0
H327 H 0.62801 0.66768 0.59477 0.0
H328 H 0.6403 0.53737 0.66839 0.0
H329 H 0.73878 0.66564 0.67486 0.0
C330 C 0.41166 0.18477 0.60982 0.0
C331 C 0.42997 0.22738 0.60735 0.0
N332 N 0.45386 0.23903 0.58622 0.0
N333 N 0.42448 0.16983 0.5905 0.0
C334 C 0.44896 0.20348 0.5761 0.0
H335 H 0.39115 0.16613 0.62506 0.0
Co336 Co 0.41105 0.11512 0.58343 0.0
C337 C 0.50642 0.16166 0.58407 0.0
O338 O 0.51082 0.19404 0.59689 0.0
N339 N 0.39671 0.0603 0.57618 0.0
C340 C 0.39534 0.99975 0.57639 0.0
C341 C 0.41777 0.04098 0.58322 0.0
C342 C 0.3614 0.03013 0.56541 0.0
N343 N 0.35974 0.99289 0.56523 0.0
O344 O 0.40833 0.12605 0.548 0.0
H345 H 0.44682 0.0555 0.59358 0.0
H346 H 0.33654 0.03491 0.55883 0.0
O347 O 0.4701 0.13113 0.57917 0.0
C348 C 0.3734 0.12138 0.54095 0.0
O349 O 0.34238 0.1059 0.55727 0.0
N350 N 0.41036 0.10356 0.61834 0.0
C351 C 0.39609 0.08162 0.66971 0.0
C352 C 0.43655 0.10783 0.66077 0.0
C353 C 0.44313 0.11821 0.63489 0.0
C354 C 0.37081 0.07821 0.62684 0.0
C355 C 0.36297 0.06641 0.65241 0.0
H356 H 0.47443 0.13819 0.62863 0.0
H357 H 0.34509 0.06729 0.6136 0.0
H358 H 0.46494 0.20213 0.55919 0.0
H359 H 0.42749 0.24828 0.62071 0.0
H360 H 0.4045 0.97665 0.57966 0.0
H361 H 0.46288 0.12001 0.67365 0.0
H362 H 0.33123 0.04642 0.65871 0.0
C363 C 0.84497 0.20438 0.58427 0.0
C364 C 0.80242 0.17914 0.58564 0.0
N365 N 0.78485 0.1981 0.57317 0.0
N366 N 0.8542 0.23944 0.57125 0.0
C367 C 0.81669 0.23387 0.5642 0.0
H368 H 0.86729 0.19668 0.59185 0.0
Co369 Co 0.90602 0.28325 0.56038 0.0
C370 C 0.86219 0.32708 0.57919 0.0
O371 O 0.84934 0.30317 0.59955 0.0
N372 N 0.9573 0.32539 0.54901 0.0
C373 C 0.01184 0.38341 0.5348 0.0
C374 C 0.96972 0.36381 0.53988 0.0
C375 C 0.99195 0.32228 0.54925 0.0
N376 N 0.0258 0.35716 0.54085 0.0
O377 O 0.88576 0.27038 0.52631 0.0
H378 H 0.94967 0.37688 0.53715 0.0
H379 H 0.99195 0.29437 0.55519 0.0
O380 O 0.88536 0.32275 0.56282 0.0
C381 C 0.89672 0.24765 0.51425 0.0
O382 O 0.92535 0.24105 0.5243 0.0
N383 N 0.92732 0.29368 0.59377 0.0
C384 C 0.96214 0.29978 0.64201 0.0
C385 C 0.95238 0.32988 0.63355 0.0
C386 C 0.93637 0.32706 0.60898 0.0
C387 C 0.93976 0.2663 0.60082 0.0
C388 C 0.95706 0.26863 0.62474 0.0
H389 H 0.93185 0.352 0.60234 0.0
H390 H 0.93674 0.2427 0.58749 0.0
H391 H 0.81268 0.2554 0.55225 0.0
H392 H 0.78571 0.14942 0.59528 0.0
H393 H 0.03065 0.41466 0.52746 0.0
H394 H 0.95669 0.3553 0.6457 0.0
H395 H 0.9666 0.24623 0.62945 0.0
H396 H 0.57745 0.12614 0.03323 0.0
H397 H 0.6676 0.20971 0.08857 0.0
H398 H 0.61885 0.2325 0.1022 0.0
H399 H 0.53513 0.19349 0.01611 0.0
H400 H 0.48252 0.15083 0.01349 0.0
H401 H 0.52553 0.14263 0.00687 0.0
H402 H 0.49738 0.08338 0.04038 0.0
H403 H 0.45458 0.09176 0.04729 0.0
H404 H 0.48842 0.0939 0.07265 0.0
H405 H 0.56036 0.24508 0.11097 0.0
H406 H 0.49561 0.24833 0.11324 0.0
H407 H 0.44204 0.15619 0.05298 0.0
C408 C 0.58717 0.14974 0.0479 0.0
C409 C 0.62657 0.16626 0.05974 0.0
C410 C 0.63777 0.19657 0.07917 0.0
C411 C 0.61021 0.20974 0.08711 0.0
C412 C 0.57138 0.19223 0.0755 0.0
C413 C 0.55979 0.16307 0.05623 0.0
C414 C 0.51558 0.14849 0.04753 0.0
C415 C 0.51466 0.15953 0.01933 0.0
C416 C 0.48733 0.1016 0.05225 0.0
C417 C 0.50429 0.17394 0.06501 0.0
C418 C 0.53704 0.199 0.08093 0.0
C419 C 0.53448 0.22567 0.09859 0.0
C420 C 0.49764 0.22732 0.09975 0.0
C421 C 0.46379 0.2024 0.08342 0.0
C422 C 0.46711 0.17502 0.06603 0.0
H423 H 0.84636 0.32053 0.05579 0.0
H424 H 0.76912 0.2824 0.1235 0.0
H425 H 0.78033 0.35372 0.12809 0.0
H426 H 0.92064 0.42576 0.07545 0.0
H427 H 0.92403 0.44773 0.04425 0.0
H428 H 0.9122 0.39455 0.0473 0.0
H429 H 0.84512 0.37007 0.02078 0.0
H430 H 0.85656 0.42311 0.01768 0.0
H431 H 0.80741 0.38431 0.03082 0.0
H432 H 0.80096 0.42858 0.12577 0.0
H433 H 0.82493 0.50155 0.11535 0.0
H434 H 0.88396 0.49054 0.04645 0.0
C435 C 0.83233 0.32747 0.07171 0.0
C436 C 0.80728 0.29632 0.08952 0.0
C437 C 0.78852 0.30607 0.10982 0.0
C438 C 0.79479 0.34638 0.11255 0.0
C439 C 0.81933 0.37631 0.09453 0.0
C440 C 0.83748 0.36733 0.07434 0.0
C441 C 0.86041 0.40462 0.05683 0.0
C442 C 0.90709 0.41902 0.05592 0.0
C443 C 0.84121 0.39494 0.02994 0.0
C444 C 0.8525 0.4361 0.07045 0.0
C445 C 0.82915 0.41909 0.0923 0.0
C446 C 0.81887 0.44213 0.10858 0.0
C447 C 0.83262 0.48366 0.1024 0.0
C448 C 0.8558 0.50176 0.0798 0.0
C449 C 0.86582 0.47749 0.06363 0.0
H450 H 0.67941 0.55186 0.09805 0.0
H451 H 0.72878 0.46829 0.10557 0.0
H452 H 0.66133 0.40953 0.09143 0.0
H453 H 0.57638 0.48099 0.1206 0.0
H454 H 0.5512 0.49837 0.09835 0.0
H455 H 0.60346 0.5337 0.10885 0.0
H456 H 0.62771 0.54763 0.06193 0.0
H457 H 0.57591 0.51167 0.05097 0.0
H458 H 0.61885 0.50484 0.04151 0.0
H459 H 0.58786 0.35958 0.07864 0.0
H460 H 0.51363 0.32193 0.0664 0.0
H461 H 0.51236 0.43809 0.06557 0.0
C462 C 0.67585 0.52113 0.09689 0.0
C463 C 0.70914 0.51444 0.10305 0.0
C464 C 0.70365 0.47398 0.10082 0.0
C465 C 0.6655 0.44049 0.09287 0.0
C466 C 0.63331 0.44811 0.08695 0.0
C467 C 0.63811 0.48744 0.08871 0.0
C468 C 0.59855 0.48717 0.08114 0.0
C469 C 0.58139 0.50086 0.10358 0.0
C470 C 0.6057 0.51443 0.05747 0.0
C471 C 0.57061 0.44146 0.07511 0.0
C472 C 0.59127 0.41948 0.07872 0.0
C473 C 0.57145 0.37648 0.07559 0.0
C474 C 0.52928 0.35534 0.06883 0.0
C475 C 0.5076 0.37724 0.06511 0.0
C476 C 0.52862 0.42086 0.06794 0.0
H477 H 0.18881 0.48214 0.38994 0.0
H478 H 0.276 0.50665 0.45184 0.0
H479 H 0.2599 0.55795 0.46971 0.0
H480 H 0.21226 0.58959 0.38326 0.0
H481 H 0.15919 0.5754 0.37637 0.0
H482 H 0.17812 0.54078 0.36777 0.0
H483 H 0.11821 0.48161 0.39359 0.0
H484 H 0.09932 0.51612 0.40248 0.0
H485 H 0.11179 0.48975 0.42682 0.0
H486 H 0.23004 0.60159 0.48357 0.0
H487 H 0.19611 0.64399 0.48847 0.0
H488 H 0.13099 0.59524 0.41684 0.0
C489 C 0.20446 0.49828 0.40725 0.0
C490 C 0.23373 0.49012 0.41935 0.0
C491 C 0.25399 0.51249 0.44181 0.0
C492 C 0.24474 0.54155 0.45235 0.0
C493 C 0.21513 0.54806 0.44034 0.0
C494 C 0.19582 0.52778 0.41802 0.0
C495 C 0.16611 0.54179 0.40863 0.0
C496 C 0.17975 0.56317 0.38246 0.0
C497 C 0.12119 0.50513 0.40784 0.0
C498 C 0.1715 0.57265 0.42936 0.0
C499 C 0.19949 0.57525 0.44765 0.0
C500 C 0.20844 0.60028 0.46922 0.0
C501 C 0.18884 0.624 0.47194 0.0
C502 C 0.16124 0.623 0.45297 0.0
C503 C 0.15237 0.59686 0.43148 0.0
H504 H 0.54391 0.72817 0.42423 0.0
H505 H 0.54917 0.7144 0.3423 0.0
H506 H 0.50001 0.63905 0.34623 0.0
H507 H 0.53743 0.6302 0.44157 0.0
H508 H 0.50194 0.6203 0.46763 0.0
H509 H 0.53858 0.67304 0.45854 0.0
H510 H 0.47818 0.68826 0.45269 0.0
H511 H 0.44128 0.63561 0.46173 0.0
H512 H 0.43567 0.65592 0.43167 0.0
H513 H 0.44724 0.56701 0.35841 0.0
H514 H 0.3964 0.50103 0.37819 0.0
H515 H 0.42659 0.55983 0.45285 0.0
C516 C 0.53465 0.70926 0.40714 0.0
C517 C 0.5503 0.72709 0.38291 0.0
C518 C 0.53792 0.70128 0.36103 0.0
C519 C 0.50988 0.65853 0.36307 0.0
C520 C 0.49482 0.64203 0.38717 0.0
C521 C 0.50694 0.66642 0.40887 0.0
C522 C 0.48574 0.64076 0.43243 0.0
C523 C 0.51784 0.6411 0.45114 0.0
C524 C 0.4586 0.65605 0.44538 0.0
C525 C 0.45936 0.59818 0.42048 0.0
C526 C 0.4651 0.59981 0.39436 0.0
C527 C 0.44294 0.56512 0.37889 0.0
C528 C 0.41414 0.52762 0.3904 0.0
C529 C 0.40795 0.52478 0.41719 0.0
C530 C 0.43101 0.56071 0.43239 0.0
H531 H 0.48428 0.88906 0.44542 0.0
H532 H 0.49111 0.795 0.39994 0.0
H533 H 0.41569 0.76106 0.39144 0.0
H534 H 0.38094 0.82311 0.47244 0.0
H535 H 0.36629 0.86254 0.46979 0.0
H536 H 0.42011 0.87737 0.47417 0.0
H537 H 0.43952 0.92277 0.43337 0.0
H538 H 0.38573 0.90782 0.42876 0.0
H539 H 0.41397 0.89942 0.40366 0.0
H540 H 0.33973 0.73695 0.38822 0.0
H541 H 0.26857 0.72709 0.38794 0.0
H542 H 0.31182 0.84013 0.43192 0.0
C543 C 0.4696 0.86092 0.43406 0.0
C544 C 0.49315 0.84413 0.42365 0.0
C545 C 0.47339 0.80804 0.40823 0.0
C546 C 0.43063 0.78857 0.40332 0.0
C547 C 0.40827 0.80609 0.41357 0.0
C548 C 0.42704 0.84167 0.4284 0.0
C549 C 0.39631 0.8556 0.43562 0.0
C550 C 0.39057 0.85458 0.46474 0.0
C551 C 0.40969 0.89897 0.42469 0.0
C552 C 0.35741 0.82227 0.42256 0.0
C553 C 0.36491 0.7937 0.41026 0.0
C554 C 0.33353 0.75929 0.39758 0.0
C555 C 0.29336 0.75391 0.3975 0.0
C556 C 0.28521 0.78318 0.40956 0.0
C557 C 0.31767 0.81786 0.42214 0.0
H558 H 0.42837 0.91951 0.89935 0.0
H559 H 0.31928 0.81173 0.93052 0.0
H560 H 0.35575 0.77167 0.92857 0.0
H561 H 0.45652 0.86379 0.85556 0.0
H562 H 0.51176 0.89656 0.86019 0.0
H563 H 0.47765 0.91754 0.86453 0.0
H564 H 0.50607 0.94093 0.91036 0.0
H565 H 0.5405 0.92032 0.90609 0.0
H566 H 0.50482 0.90327 0.93262 0.0
H567 H 0.40304 0.7429 0.92278 0.0
H568 H 0.45924 0.72747 0.91449 0.0
H569 H 0.53828 0.85357 0.88718 0.0
C570 C 0.41226 0.88759 0.90596 0.0
C571 C 0.37088 0.86874 0.91502 0.0
C572 C 0.35084 0.82681 0.92335 0.0
C573 C 0.37132 0.80377 0.92235 0.0
C574 C 0.41183 0.82309 0.913 0.0
C575 C 0.43223 0.86406 0.90505 0.0
C576 C 0.47572 0.87715 0.89565 0.0
C577 C 0.48068 0.88948 0.8673 0.0
C578 C 0.50872 0.91251 0.91217 0.0
C579 C 0.47647 0.83706 0.89953 0.0
C580 C 0.43927 0.80636 0.90959 0.0
C581 C 0.43239 0.76672 0.91502 0.0
C582 C 0.46459 0.75831 0.91033 0.0
C583 C 0.50323 0.78936 0.9003 0.0
C584 C 0.50898 0.82913 0.89462 0.0
H585 H 0.10345 0.52836 0.85654 0.0
H586 H 0.1581 0.51486 0.92665 0.0
H587 H 0.18575 0.58915 0.93613 0.0
H588 H 0.18895 0.63121 0.84073 0.0
H589 H 0.15553 0.64901 0.82784 0.0
H590 H 0.13988 0.59462 0.82644 0.0
H591 H 0.07129 0.57629 0.84983 0.0
H592 H 0.08685 0.63065 0.85147 0.0
H593 H 0.07347 0.60001 0.88026 0.0
H594 H 0.20409 0.66304 0.93933 0.0
H595 H 0.21803 0.73438 0.93453 0.0
H596 H 0.15575 0.70268 0.86085 0.0
C597 C 0.1213 0.54107 0.87386 0.0
C598 C 0.12839 0.51572 0.89094 0.0
C599 C 0.15224 0.53361 0.91328 0.0
C600 C 0.16798 0.57576 0.91888 0.0
C601 C 0.16001 0.59972 0.90183 0.0
C602 C 0.13773 0.5833 0.87962 0.0
C603 C 0.13445 0.61634 0.86436 0.0
C604 C 0.156 0.6232 0.8383 0.0
C605 C 0.0888 0.60514 0.86131 0.0
C606 C 0.15804 0.65376 0.88165 0.0
C607 C 0.1722 0.64323 0.9032 0.0
C608 C 0.19381 0.67189 0.92234 0.0
C609 C 0.20185 0.71268 0.91926 0.0
C610 C 0.18889 0.72493 0.89698 0.0
C611 C 0.16623 0.69466 0.87807 0.0
H612 H 0.45799 0.56789 0.95304 0.0
H613 H 0.47491 0.66965 0.90408 0.0
H614 H 0.40366 0.62738 0.88809 0.0
H615 H 0.40041 0.48775 0.90748 0.0
H616 H 0.36551 0.45027 0.93037 0.0
H617 H 0.41709 0.4893 0.93998 0.0
H618 H 0.38607 0.51364 0.97587 0.0
H619 H 0.33442 0.47444 0.96648 0.0
H620 H 0.3478 0.52824 0.96795 0.0
H621 H 0.33158 0.5753 0.87695 0.0
H622 H 0.26169 0.51406 0.87051 0.0
H623 H 0.29101 0.44332 0.92393 0.0
C624 C 0.44638 0.58137 0.93926 0.0
C625 C 0.47194 0.62233 0.93007 0.0
C626 C 0.45593 0.63858 0.91161 0.0
C627 C 0.41543 0.61477 0.90234 0.0
C628 C 0.39127 0.57444 0.91143 0.0
C629 C 0.40593 0.55762 0.92941 0.0
C630 C 0.37368 0.51258 0.9349 0.0
C631 C 0.39017 0.48325 0.92775 0.0
C632 C 0.35967 0.50691 0.96297 0.0
C633 C 0.33897 0.50697 0.91709 0.0
C634 C 0.34979 0.54329 0.90398 0.0
C635 C 0.32274 0.54655 0.88696 0.0
C636 C 0.28329 0.51179 0.88338 0.0
C637 C 0.27155 0.47419 0.89642 0.0
C638 C 0.29982 0.4716 0.91336 0.0
H639 H 0.78838 0.48456 0.62527 0.0
H640 H 0.80125 0.52815 0.54735 0.0
H641 H 0.82154 0.47655 0.53385 0.0
H642 H 0.8731 0.4667 0.62638 0.0
H643 H 0.84713 0.4199 0.64525 0.0
H644 H 0.83245 0.45918 0.6483 0.0
H645 H 0.75588 0.40453 0.63776 0.0
H646 H 0.77035 0.36503 0.63486 0.0
H647 H 0.74435 0.37441 0.60884 0.0
H648 H 0.84581 0.42337 0.53003 0.0
H649 H 0.8658 0.3693 0.53532 0.0
H650 H 0.83264 0.35851 0.61549 0.0
C651 C 0.79532 0.483 0.60536 0.0
C652 C 0.7936 0.51028 0.5873 0.0
C653 C 0.80229 0.50723 0.56135 0.0
C654 C 0.81395 0.4782 0.5536 0.0
C655 C 0.81588 0.452 0.57201 0.0
C656 C 0.80608 0.45371 0.59728 0.0
C657 C 0.81007 0.42197 0.61332 0.0
C658 C 0.84263 0.44322 0.63456 0.0
C659 C 0.76764 0.38957 0.62434 0.0
C660 C 0.82481 0.40286 0.59333 0.0
C661 C 0.82809 0.42056 0.56961 0.0
C662 C 0.84285 0.40898 0.54846 0.0
C663 C 0.8543 0.37841 0.55166 0.0
C664 C 0.85056 0.35955 0.57577 0.0
C665 C 0.83546 0.37199 0.59675 0.0
H666 H 0.55852 0.48489 0.58489 0.0
H667 H 0.66941 0.48838 0.55528 0.0
H668 H 0.63065 0.41189 0.55091 0.0
H669 H 0.52728 0.39777 0.62319 0.0
H670 H 0.47221 0.37599 0.61813 0.0
H671 H 0.50655 0.43124 0.61546 0.0
H672 H 0.47962 0.43006 0.56961 0.0
H673 H 0.44494 0.37473 0.57224 0.0
H674 H 0.48139 0.3954 0.54616 0.0
H675 H 0.58186 0.33538 0.55274 0.0
H676 H 0.52786 0.26374 0.56288 0.0
H677 H 0.44871 0.30909 0.59268 0.0
C678 C 0.57432 0.46961 0.57688 0.0
C679 C 0.61686 0.49251 0.57018 0.0
C680 C 0.63683 0.47138 0.56047 0.0
C681 C 0.615 0.428 0.55779 0.0
C682 C 0.57328 0.40624 0.565 0.0
C683 C 0.55312 0.42626 0.5744 0.0
C684 C 0.50934 0.3953 0.58304 0.0
C685 C 0.50353 0.40039 0.61165 0.0
C686 C 0.47691 0.39911 0.56679 0.0
C687 C 0.50849 0.35477 0.57772 0.0
C688 C 0.54539 0.36183 0.56682 0.0
C689 C 0.55264 0.32942 0.56098 0.0
C690 C 0.5216 0.28873 0.56673 0.0
C691 C 0.48387 0.28072 0.57849 0.0
C692 C 0.47722 0.31428 0.58376 0.0
H693 H 0.75001 0.24672 0.57619 0.0
H694 H 0.72152 0.11918 0.56667 0.0
H695 H 0.64631 0.09617 0.56464 0.0
H696 H 0.6673 0.22396 0.61811 0.0
H697 H 0.65743 0.26367 0.60596 0.0
H698 H 0.7088 0.27035 0.60374 0.0
H699 H 0.70875 0.28082 0.55492 0.0
H700 H 0.65729 0.2742 0.5569 0.0
H701 H 0.6672 0.24176 0.53578 0.0
H702 H 0.5742 0.08744 0.5645 0.0
H703 H 0.51078 0.09229 0.57062 0.0
H704 H 0.58705 0.22526 0.58327 0.0
C705 C 0.7279 0.21407 0.57319 0.0
C706 C 0.74133 0.18468 0.57122 0.0
C707 C 0.71161 0.14204 0.56817 0.0
C708 C 0.669 0.12882 0.56683 0.0
C709 C 0.65674 0.15864 0.56897 0.0
C710 C 0.68535 0.20034 0.57235 0.0
C711 C 0.66411 0.22569 0.57633 0.0
C712 C 0.67506 0.24716 0.6026 0.0
C713 C 0.67498 0.25749 0.55468 0.0
C714 C 0.61899 0.19165 0.57503 0.0
C715 C 0.61536 0.15333 0.57026 0.0
C716 C 0.57668 0.11726 0.56833 0.0
C717 C 0.5408 0.12031 0.57186 0.0
C718 C 0.54391 0.15902 0.57781 0.0
C719 C 0.58361 0.19513 0.57899 0.0
H720 H 0.29332 0.18009 0.00014 0.0
H721 H 0.42668 0.25434 0.0119 0.0
H722 H 0.43633 0.20189 0.98888 0.0
H723 H 0.28458 0.08678 0.01276 0.0
H724 H 0.2456 0.05682 0.98917 0.0
H725 H 0.24927 0.10357 0.0018 0.0
H726 H 0.25782 0.13375 0.9562 0.0
H727 H 0.25344 0.08668 0.94328 0.0
H728 H 0.29802 0.13637 0.93564 0.0
H729 H 0.43029 0.13579 0.97272 0.0
H730 H 0.40928 0.06351 0.96034 0.0
H731 H 0.28051 0.03292 0.9573 0.0
C732 C 0.3247 0.18618 0.99695 0.0
C733 C 0.35921 0.22151 0.0077 0.0
C734 C 0.39975 0.22788 0.00356 0.0
C735 C 0.40556 0.19811 0.99057 0.0
C736 C 0.37065 0.16259 0.98136 0.0
C737 C 0.33105 0.15691 0.98386 0.0
C738 C 0.29844 0.11429 0.97441 0.0
C739 C 0.26769 0.08889 0.99581 0.0
C740 C 0.27559 0.11801 0.95098 0.0
C741 C 0.3257 0.09621 0.96722 0.0
C742 C 0.3673 0.12466 0.97128 0.0
C743 C 0.39798 0.11367 0.96875 0.0
C744 C 0.38582 0.07261 0.9619 0.0
C745 C 0.34348 0.04316 0.95751 0.0
C746 C 0.31318 0.05533 0.95983 0.0
H747 H 0.78645 0.21205 0.01501 0.0
H748 H 0.78757 0.09989 0.99351 0.0
H749 H 0.84166 0.13957 0.96114 0.0
H750 H 0.81334 0.2653 0.95075 0.0
H751 H 0.84664 0.31517 0.96533 0.0
H752 H 0.80144 0.27639 0.98215 0.0
H753 H 0.84788 0.28128 0.0204 0.0
H754 H 0.89296 0.3202 0.00377 0.0
H755 H 0.89164 0.27371 0.01523 0.0
H756 H 0.90205 0.19269 0.936 0.0
H757 H 0.96406 0.25501 0.91957 0.0
H758 H 0.92698 0.33337 0.96014 0.0
C759 C 0.79663 0.19556 0.00254 0.0
C760 C 0.78223 0.15281 0.0061 0.0
C761 C 0.79776 0.1325 0.99055 0.0
C762 C 0.82845 0.15479 0.97219 0.0
C763 C 0.84347 0.1974 0.9699 0.0
C764 C 0.82794 0.21758 0.98457 0.0
C765 C 0.85345 0.26431 0.98116 0.0
C766 C 0.82714 0.28128 0.96912 0.0
C767 C 0.87266 0.28616 0.00665 0.0
C768 C 0.88639 0.26732 0.96285 0.0
C769 C 0.87969 0.22839 0.95627 0.0
C770 C 0.90736 0.22334 0.94078 0.0
C771 C 0.94281 0.25901 0.93179 0.0
C772 C 0.95069 0.2993 0.93858 0.0
C773 C 0.92171 0.30322 0.95417 0.0
H774 H 0.79345 0.61312 0.04585 0.0
H775 H 0.88829 0.74364 0.04762 0.0
H776 H 0.84824 0.75919 0.01615 0.0
H777 H 0.76508 0.60761 0.97787 0.0
H778 H 0.71054 0.57344 0.9842 0.0
H779 H 0.74906 0.57192 0.0044 0.0
H780 H 0.71512 0.58473 0.04392 0.0
H781 H 0.67691 0.58694 0.02387 0.0
H782 H 0.70876 0.62982 0.04477 0.0
H783 H 0.79608 0.76116 0.98681 0.0
H784 H 0.73531 0.74995 0.96175 0.0
H785 H 0.67242 0.61854 0.98103 0.0
C786 C 0.80633 0.64477 0.03904 0.0
C787 C 0.84423 0.67717 0.04879 0.0
C788 C 0.85945 0.71841 0.04016 0.0
C789 C 0.83696 0.72749 0.02231 0.0
C790 C 0.7992 0.695 0.0135 0.0
C791 C 0.78396 0.65446 0.02155 0.0
C792 C 0.74107 0.62587 0.0107 0.0
C793 C 0.74148 0.59276 0.99325 0.0
C794 C 0.70858 0.60568 0.0321 0.0
C795 C 0.73438 0.65679 0.99552 0.0
C796 C 0.76843 0.69637 0.99721 0.0
C797 C 0.76923 0.73028 0.9853 0.0
C798 C 0.73428 0.7236 0.97127 0.0
C799 C 0.69871 0.68334 0.96943 0.0
C800 C 0.69911 0.64958 0.98171 0.0
H801 H 0.08753 0.41281 0.50959 0.0
H802 H 0.059 0.31606 0.5657 0.0
H803 H 0.12623 0.32061 0.55713 0.0
H804 H 0.13202 0.38253 0.46476 0.0
H805 H 0.17339 0.43334 0.45578 0.0
H806 H 0.12632 0.42765 0.46913 0.0
H807 H 0.16925 0.48142 0.50318 0.0
H808 H 0.21773 0.48619 0.49262 0.0
H809 H 0.20113 0.47186 0.52502 0.0
H810 H 0.18914 0.32577 0.53695 0.0
H811 H 0.24368 0.33256 0.50702 0.0
H812 H 0.23576 0.43 0.46659 0.0
C813 C 0.09583 0.39343 0.52065 0.0
C814 C 0.06741 0.36366 0.53809 0.0
C815 C 0.07955 0.3385 0.55182 0.0
C816 C 0.11806 0.34122 0.54734 0.0
C817 C 0.14472 0.36995 0.52948 0.0
C818 C 0.13443 0.39607 0.51661 0.0
C819 C 0.1674 0.42209 0.49707 0.0
C820 C 0.14865 0.416 0.47011 0.0
C821 C 0.19015 0.46813 0.50492 0.0
C822 C 0.19589 0.40389 0.49941 0.0
C823 C 0.18278 0.37457 0.51871 0.0
C824 C 0.20067 0.34966 0.5224 0.0
C825 C 0.23169 0.35376 0.5054 0.0
C826 C 0.24479 0.38282 0.4852 0.0
C827 C 0.22766 0.4091 0.48269 0.0
H828 H 0.71031 0.83928 0.45602 0.0
H829 H 0.58306 0.81174 0.4674 0.0
H830 H 0.57205 0.75728 0.49844 0.0
H831 H 0.68945 0.73366 0.46041 0.0
H832 H 0.73671 0.747 0.47744 0.0
H833 H 0.73507 0.78397 0.45586 0.0
H834 H 0.75907 0.83866 0.49213 0.0
H835 H 0.76128 0.80205 0.51372 0.0
H836 H 0.73026 0.82545 0.52164 0.0
H837 H 0.57428 0.70588 0.5278 0.0
H838 H 0.59112 0.6637 0.55643 0.0
H839 H 0.7172 0.72443 0.52698 0.0
C840 C 0.68024 0.82201 0.46519 0.0
C841 C 0.64762 0.82997 0.45936 0.0
C842 C 0.60867 0.80656 0.47172 0.0
C843 C 0.60199 0.77532 0.48925 0.0
C844 C 0.63459 0.76796 0.49432 0.0
C845 C 0.67307 0.79081 0.48289 0.0
C846 C 0.70303 0.77703 0.49221 0.0
C847 C 0.71687 0.75937 0.47016 0.0
C848 C 0.74063 0.81293 0.50573 0.0
C849 C 0.67545 0.74315 0.51088 0.0
C850 C 0.636 0.73827 0.51155 0.0
C851 C 0.60509 0.70951 0.52753 0.0
C852 C 0.61501 0.68582 0.54378 0.0
C853 C 0.65554 0.69103 0.54407 0.0
C854 C 0.68589 0.71953 0.52698 0.0
H855 H 0.30196 0.98154 0.52931 0.0
H856 H 0.34161 0.91505 0.57969 0.0
H857 H 0.28615 0.84839 0.56257 0.0
H858 H 0.19035 0.90784 0.53391 0.0
H859 H 0.18122 0.91416 0.50085 0.0
H860 H 0.22293 0.95665 0.51796 0.0
H861 H 0.27556 0.96132 0.48372 0.0
H862 H 0.23404 0.91904 0.46648 0.0
H863 H 0.27882 0.9156 0.47621 0.0
H864 H 0.22912 0.78895 0.5378 0.0
H865 H 0.1755 0.74192 0.50711 0.0
H866 H 0.17137 0.84743 0.47466 0.0
C867 C 0.29861 0.95306 0.53714 0.0
C868 C 0.32636 0.95378 0.55588 0.0
C869 C 0.32124 0.91554 0.56511 0.0
C870 C 0.28954 0.87741 0.55566 0.0
C871 C 0.26292 0.87793 0.53712 0.0
C872 C 0.26705 0.91477 0.52802 0.0
C873 C 0.23555 0.90692 0.50731 0.0
C874 C 0.20574 0.9223 0.51551 0.0
C875 C 0.2573 0.92689 0.48194 0.0
C876 C 0.2134 0.85992 0.50593 0.0
C877 C 0.22952 0.8437 0.52331 0.0
C878 C 0.21582 0.80122 0.52437 0.0
C879 C 0.18534 0.77475 0.5069 0.0
C880 C 0.16888 0.7909 0.48872 0.0
C881 C 0.18265 0.83394 0.48866 0.0
H882 H 0.68529 0.99818 0.01884 0.0
H883 H 0.57735 0.93319 0.06799 0.0
H884 H 0.56266 0.86631 0.04887 0.0
H885 H 0.64129 0.93661 0.96402 0.0
H886 H 0.68861 0.93812 0.95427 0.0
H887 H 0.69108 0.98032 0.97258 0.0
H888 H 0.73635 0.97076 0.0066 0.0
H889 H 0.73397 0.92842 0.98841 0.0
H890 H 0.71754 0.92057 0.02131 0.0
H891 H 0.55854 0.80643 0.02276 0.0
H892 H 0.56501 0.75965 0.99167 0.0
H893 H 0.67708 0.86484 0.9613 0.0
C894 C 0.65896 0.96995 0.026 0.0
C895 C 0.63261 0.97113 0.04504 0.0
C896 C 0.59783 0.93328 0.05327 0.0
C897 C 0.5894 0.89506 0.04265 0.0
C898 C 0.61611 0.89516 0.0239 0.0
C899 C 0.65022 0.9317 0.01572 0.0
C900 C 0.67348 0.9238 0.99479 0.0
C901 C 0.67359 0.94602 0.96996 0.0
C902 C 0.71797 0.93664 0.0033 0.0
C903 C 0.64694 0.8771 0.99227 0.0
C904 C 0.61402 0.86099 0.00923 0.0
C905 C 0.58444 0.81868 0.00957 0.0
C906 C 0.5884 0.79234 0.99189 0.0
C907 C 0.62168 0.8085 0.97416 0.0
C908 C 0.65149 0.85135 0.97473 0.0
H909 H 0.03084 0.76452 0.06121 0.0
H910 H 0.02179 0.64497 0.04897 0.0
H911 H 0.08075 0.67753 0.01822 0.0
H912 H 0.05391 0.79901 0.99531 0.0
H913 H 0.08822 0.85252 0.00409 0.0
H914 H 0.04568 0.8191 0.02472 0.0
H915 H 0.09757 0.83652 0.06212 0.0
H916 H 0.14035 0.86944 0.0415 0.0
H917 H 0.14065 0.82736 0.0585 0.0
H918 H 0.14396 0.72529 0.99095 0.0
H919 H 0.19877 0.78117 0.96462 0.0
H920 H 0.16264 0.86817 0.99338 0.0
C921 C 0.04123 0.74529 0.05186 0.0
C922 C 0.02232 0.70246 0.05735 0.0
C923 C 0.03607 0.67785 0.04474 0.0
C924 C 0.06959 0.69615 0.0275 0.0
C925 C 0.08828 0.73887 0.02292 0.0
C926 C 0.07394 0.76288 0.03437 0.0
C927 C 0.09821 0.80771 0.02572 0.0
C928 C 0.06981 0.82031 0.01162 0.0
C929 C 0.12051 0.83697 0.04831 0.0
C930 C 0.12889 0.80548 0.00774 0.0
C931 C 0.12313 0.76569 0.0066 0.0
C932 C 0.1485 0.75645 0.99159 0.0
C933 C 0.17977 0.78845 0.97688 0.0
C934 C 0.18489 0.82895 0.97703 0.0
C935 C 0.15938 0.8375 0.9929 0.0
H936 H 0.13522 0.31468 0.97655 0.0
H937 H 0.18897 0.44789 0.96645 0.0
H938 H 0.24775 0.46001 0.99432 0.0
H939 H 0.16824 0.31744 0.04343 0.0
H940 H 0.17857 0.27544 0.03815 0.0
H941 H 0.13858 0.27791 0.02005 0.0
H942 H 0.17415 0.27513 0.9781 0.0
H943 H 0.21461 0.27337 0.99601 0.0
H944 H 0.22785 0.31353 0.97249 0.0
H945 H 0.30413 0.45697 0.01973 0.0
H946 H 0.35157 0.43933 0.0424 0.0
H947 H 0.2603 0.30805 0.03573 0.0
C948 C 0.15872 0.34648 0.98074 0.0
C949 C 0.15725 0.38034 0.96951 0.0
C950 C 0.18905 0.42146 0.97516 0.0
C951 C 0.2227 0.42864 0.99085 0.0
C952 C 0.22383 0.39441 0.00091 0.0
C953 C 0.19239 0.35415 0.99631 0.0
C954 C 0.20208 0.32265 0.00802 0.0
C955 C 0.16996 0.29685 0.02864 0.0
C956 C 0.20484 0.29453 0.98742 0.0
C957 C 0.24424 0.3514 0.01959 0.0
C958 C 0.25623 0.39266 0.01539 0.0
C959 C 0.29472 0.42478 0.02349 0.0
C960 C 0.32145 0.41442 0.03641 0.0
C961 C 0.3097 0.37227 0.04104 0.0
C962 C 0.27047 0.34052 0.03243 0.0
H963 H 0.99597 0.69768 0.48845 0.0
H964 H 0.92437 0.59136 0.43925 0.0
H965 H 0.85928 0.58528 0.45579 0.0
H966 H 0.93104 0.65812 0.54143 0.0
H967 H 0.93691 0.70716 0.55164 0.0
H968 H 0.97768 0.70611 0.5337 0.0
H969 H 0.97427 0.75557 0.50005 0.0
H970 H 0.93327 0.75661 0.5179 0.0
H971 H 0.92542 0.7414 0.48478 0.0
H972 H 0.80215 0.58674 0.48042 0.0
H973 H 0.75747 0.59387 0.51259 0.0
H974 H 0.86626 0.69974 0.54545 0.0
C975 C 0.9666 0.67377 0.48075 0.0
C976 C 0.9652 0.64503 0.46257 0.0
C977 C 0.92614 0.61347 0.45338 0.0
C978 C 0.88902 0.61002 0.46247 0.0
C979 C 0.89145 0.63847 0.48069 0.0
C980 C 0.92924 0.66977 0.48974 0.0
C981 C 0.92322 0.6941 0.51086 0.0
C982 C 0.94339 0.69117 0.53588 0.0
C983 C 0.94004 0.73962 0.50291 0.0
C984 C 0.87621 0.6709 0.51275 0.0
C985 C 0.85842 0.63928 0.49494 0.0
C986 C 0.81565 0.6118 0.49419 0.0
C987 C 0.7905 0.61614 0.51252 0.0
C988 C 0.80829 0.64753 0.53144 0.0
C989 C 0.85158 0.67581 0.53104 0.0
H990 H 0.43053 0.19695 0.52151 0.0
H991 H 0.30622 0.09304 0.50977 0.0
H992 H 0.29303 0.13401 0.47772 0.0
H993 H 0.40026 0.26918 0.52433 0.0
H994 H 0.44535 0.31101 0.5091 0.0
H995 H 0.44963 0.27088 0.52559 0.0
H996 H 0.47846 0.2547 0.48498 0.0
H997 H 0.47504 0.29533 0.46823 0.0
H998 H 0.4497 0.24323 0.45551 0.0
H999 H 0.28978 0.189 0.45201 0.0
H1000 H 0.29573 0.25358 0.43513 0.0
H1001 H 0.41983 0.32385 0.46747 0.0
C1002 C 0.40123 0.18225 0.51144 0.0
C1003 C 0.36963 0.1416 0.51771 0.0
C1004 C 0.33103 0.12393 0.50482 0.0
C1005 C 0.32329 0.14699 0.48664 0.0
C1006 C 0.35434 0.18786 0.48187 0.0
C1007 C 0.39262 0.20536 0.49387 0.0
C1008 C 0.41819 0.25161 0.48848 0.0
C1009 C 0.42894 0.27715 0.51334 0.0
C1010 C 0.45768 0.2618 0.47339 0.0
C1011 C 0.38781 0.25759 0.47224 0.0
C1012 C 0.35158 0.22032 0.46819 0.0
C1013 C 0.31817 0.21833 0.45485 0.0
C1014 C 0.32172 0.25541 0.44556 0.0
C1015 C 0.35819 0.29424 0.44998 0.0
C1016 C 0.39176 0.29492 0.46328 0.0
H1017 H 0.81343 0.21639 0.50647 0.0
H1018 H 0.92144 0.21456 0.47655 0.0
H1019 H 0.87602 0.1559 0.44838 0.0
H1020 H 0.75276 0.11212 0.51237 0.0
H1021 H 0.70399 0.10822 0.50344 0.0
H1022 H 0.74482 0.15585 0.51676 0.0
H1023 H 0.74309 0.19708 0.47762 0.0
H1024 H 0.70168 0.14975 0.4641 0.0
H1025 H 0.74854 0.18106 0.44604 0.0
H1026 H 0.81922 0.09138 0.42887 0.0
H1027 H 0.7547 0.02729 0.41729 0.0
H1028 H 0.68289 0.06882 0.46105 0.0
C1029 C 0.82761 0.20488 0.49312 0.0
C1030 C 0.87097 0.22036 0.49332 0.0
C1031 C 0.88832 0.20341 0.47639 0.0
C1032 C 0.86276 0.17008 0.46036 0.0
C1033 C 0.81992 0.15407 0.46153 0.0
C1034 C 0.80241 0.17119 0.47721 0.0
C1035 C 0.75532 0.14515 0.47704 0.0
C1036 C 0.73823 0.12936 0.504 0.0
C1037 C 0.73603 0.16973 0.4655 0.0
C1038 C 0.74923 0.1099 0.45965 0.0
C1039 C 0.78687 0.116 0.45063 0.0
C1040 C 0.78949 0.08653 0.4355 0.0
C1041 C 0.75268 0.04994 0.42928 0.0
C1042 C 0.71367 0.0429 0.4383 0.0
C1043 C 0.71212 0.07356 0.45355 0.0
H1044 H 0.35678 0.39453 0.29358 0.0
H1045 H 0.2835 0.2697 0.32449 0.0
H1046 H 0.28601 0.24043 0.28279 0.0
H1047 H 0.31294 0.3735 0.23133 0.0
H1048 H 0.36149 0.40676 0.21534 0.0
H1049 H 0.35365 0.41809 0.24761 0.0
H1050 H 0.42003 0.41716 0.26193 0.0
H1051 H 0.42814 0.4059 0.22968 0.0
H1052 H 0.42477 0.37201 0.25536 0.0
H1053 H 0.29448 0.22452 0.23731 0.0
H1054 H 0.31134 0.22344 0.19171 0.0
H1055 H 0.38265 0.35829 0.19128 0.0
C1056 C 0.34164 0.36104 0.29177 0.0
C1057 C 0.31954 0.33454 0.31241 0.0
C1058 C 0.29978 0.29082 0.30892 0.0
C1059 C 0.30133 0.27381 0.28533 0.0
C1060 C 0.32317 0.30085 0.26543 0.0
C1061 C 0.34329 0.34351 0.26845 0.0
C1062 C 0.36495 0.36569 0.24407 0.0
C1063 C 0.34718 0.39259 0.234 0.0
C1064 C 0.41228 0.39172 0.248 0.0
C1065 C 0.35354 0.3288 0.2268 0.0
C1066 C 0.32926 0.29167 0.23946 0.0
C1067 C 0.31372 0.25338 0.22724 0.0
C1068 C 0.32328 0.25306 0.20137 0.0
C1069 C 0.34841 0.29074 0.18812 0.0
C1070 C 0.36384 0.32902 0.20109 0.0
H1071 H 0.72705 0.09639 0.20217 0.0
H1072 H 0.60476 0.03614 0.1673 0.0
H1073 H 0.57486 0.99368 0.20616 0.0
H1074 H 0.71816 0.00865 0.23471 0.0
H1075 H 0.74485 0.03651 0.26316 0.0
H1076 H 0.75671 0.06312 0.23294 0.0
H1077 H 0.73999 0.11773 0.25175 0.0
H1078 H 0.72844 0.09149 0.28211 0.0
H1079 H 0.69027 0.10057 0.26671 0.0
H1080 H 0.55979 0.9536 0.24664 0.0
H1081 H 0.55817 0.92309 0.28844 0.0
H1082 H 0.68889 0.01469 0.29945 0.0
C1083 C 0.69395 0.07449 0.20295 0.0
C1084 C 0.66801 0.06933 0.18196 0.0
C1085 C 0.62487 0.04057 0.18341 0.0
C1086 C 0.60773 0.01628 0.20529 0.0
C1087 C 0.63411 0.02174 0.22563 0.0
C1088 C 0.67614 0.0506 0.2249 0.0
C1089 C 0.69732 0.05048 0.2496 0.0
C1090 C 0.73126 0.039 0.2448 0.0
C1091 C 0.71504 0.09257 0.26336 0.0
C1092 C 0.6608 0.01638 0.26402 0.0
C1093 C 0.62478 1.00008 0.24974 0.0
C1094 C 0.58755 0.96676 0.25832 0.0
C1095 C 0.58695 0.94986 0.2823 0.0
C1096 C 0.62317 0.96677 0.2978 0.0
C1097 C 0.66056 1.0006 0.28831 0.0
H1098 H 0.90827 0.60782 0.23424 0.0
H1099 H 0.00386 0.6157 0.18288 0.0
H1100 H 0.04992 0.62733 0.21945 0.0
H1101 H 0.97679 0.68898 0.27556 0.0
H1102 H 0.94865 0.66435 0.30436 0.0
H1103 H 0.92152 0.65328 0.27435 0.0
H1104 H 0.89364 0.57447 0.28095 0.0
H1105 H 0.92063 0.58531 0.31104 0.0
H1106 H 0.9298 0.55633 0.2868 0.0
H1107 H 0.08746 0.64252 0.26085 0.0
H1108 H 0.11404 0.66033 0.30485 0.0
H1109 H 0.99432 0.64198 0.32975 0.0
C1110 C 0.93878 0.61173 0.23073 0.0
C1111 C 0.95213 0.61019 0.2057 0.0
C1112 C 0.99242 0.61563 0.20191 0.0
C1113 C 0.019 0.62254 0.22254 0.0
C1114 C 0.00495 0.62399 0.24691 0.0
C1115 C 0.96582 0.61866 0.25116 0.0
C1116 C 0.95914 0.62328 0.27922 0.0
C1117 C 0.95106 0.65964 0.28362 0.0
C1118 C 0.9237 0.58241 0.29014 0.0
C1119 C 1.00092 0.63278 0.28991 0.0
C1120 C 0.02676 0.63279 0.27095 0.0
C1121 C 0.06738 0.64212 0.27596 0.0
C1122 C 0.08211 0.65197 0.30106 0.0
C1123 C 0.05627 0.65239 0.32083 0.0
C1124 C 0.01501 0.64227 0.31507 0.0
H1125 H 0.69019 0.66866 0.70039 0.0
H1126 H 0.65462 0.53889 0.71136 0.0
H1127 H 0.63074 0.5415 0.75486 0.0
H1128 H 0.73179 0.70138 0.76397 0.0
H1129 H 0.71456 0.7389 0.76613 0.0
H1130 H 0.72735 0.7262 0.73551 0.0
H1131 H 0.65422 0.70691 0.71863 0.0
H1132 H 0.64108 0.71928 0.74922 0.0
H1133 H 0.60866 0.66859 0.7354 0.0
H1134 H 0.60839 0.55777 0.79677 0.0
H1135 H 0.59468 0.58828 0.83511 0.0
H1136 H 0.65123 0.70857 0.79788 0.0
C1137 C 0.67812 0.64083 0.71193 0.0
C1138 C 0.67421 0.60347 0.70215 0.0
C1139 C 0.65723 0.56771 0.71802 0.0
C1140 C 0.64383 0.56893 0.74289 0.0
C1141 C 0.64816 0.60627 0.75177 0.0
C1142 C 0.66541 0.6417 0.73688 0.0
C1143 C 0.66765 0.67826 0.75112 0.0
C1144 C 0.71304 0.71324 0.75438 0.0
C1145 C 0.64133 0.69418 0.73779 0.0
C1146 C 0.64872 0.65781 0.77635 0.0
C1147 C 0.63723 0.61615 0.77627 0.0
C1148 C 0.61763 0.59043 0.79715 0.0
C1149 C 0.60986 0.60788 0.81872 0.0
C1150 C 0.62225 0.65064 0.81928 0.0
C1151 C 0.64195 0.67587 0.79788 0.0
H1152 H 0.30147 0.93118 0.79016 0.0
H1153 H 0.35144 0.04173 0.83742 0.0
H1154 H 0.38092 0.08586 0.79907 0.0
H1155 H 0.38593 0.96826 0.74532 0.0
H1156 H 0.35276 0.94424 0.71809 0.0
H1157 H 0.33641 0.92141 0.74929 0.0
H1158 H 0.2685 0.92462 0.74482 0.0
H1159 H 0.28459 0.94734 0.71358 0.0
H1160 H 0.27161 0.97363 0.7377 0.0
H1161 H 0.40684 0.1176 0.75584 0.0
H1162 H 0.42226 0.13514 0.71006 0.0
H1163 H 0.35211 0.00407 0.69079 0.0
C1164 C 0.31875 0.96468 0.79235 0.0
C1165 C 0.32448 0.98325 0.81662 0.0
C1166 C 0.3467 0.02712 0.81888 0.0
C1167 C 0.36367 0.05233 0.79727 0.0
C1168 C 0.35762 0.03309 0.77358 0.0
C1169 C 0.33529 0.99031 0.77093 0.0
C1170 C 0.33208 0.97756 0.7432 0.0
C1171 C 0.35305 0.95132 0.73872 0.0
C1172 C 0.28648 0.95443 0.73431 0.0
C1173 C 0.35628 0.01985 0.73069 0.0
C1174 C 0.37115 0.05146 0.74857 0.0
C1175 C 0.39519 0.09315 0.74164 0.0
C1176 C 0.40394 0.10282 0.71569 0.0
C1177 C 0.38821 0.07093 0.69707 0.0
C1178 C 0.36416 0.02898 0.70471 0.0
H1179 H 0.06651 0.39777 0.77709 0.0
H1180 H 0.03407 0.27268 0.80035 0.0
H1181 H 0.00542 0.24662 0.75769 0.0
H1182 H 0.97944 0.37142 0.73857 0.0
H1183 H 0.0073 0.40903 0.71388 0.0
H1184 H 0.02682 0.41884 0.74608 0.0
H1185 H 0.09734 0.42849 0.7304 0.0
H1186 H 0.0782 0.4192 0.69807 0.0
H1187 H 0.09813 0.38805 0.71174 0.0
H1188 H 0.97419 0.2328 0.71446 0.0
H1189 H 0.94876 0.23273 0.6713 0.0
H1190 H 0.00874 0.36781 0.67362 0.0
C1191 C 0.05414 0.36504 0.77311 0.0
C1192 C 0.05188 0.33723 0.79237 0.0
C1193 C 0.03507 0.29453 0.78628 0.0
C1194 C 0.01902 0.2794 0.76199 0.0
C1195 C 0.02073 0.30742 0.74375 0.0
C1196 C 0.03853 0.34943 0.74877 0.0
C1197 C 0.03628 0.3727 0.72559 0.0
C1198 C 0.01095 0.39426 0.73139 0.0
C1199 C 0.08009 0.40395 0.71587 0.0
C1200 C 0.01355 0.33695 0.70702 0.0
C1201 C 0.00478 0.29963 0.718 0.0
C1202 C 0.98182 0.26193 0.70535 0.0
C1203 C 0.96778 0.26235 0.68064 0.0
C1204 C 0.97731 0.30033 0.66848 0.0
C1205 C 1.00061 0.33811 0.68208 0.0
loop_
_geom_bond_atom_site_label_1
_geom_bond_atom_site_label_2
_geom_bond_distance
_geom_bond_site_symmetry_2
_ccdc_geom_bond_type
C0 C1 1.351 . S
C0 N3 1.368 . S
C0 H5 0.931 . S
C1 C0 1.351 . S
C1 N2 1.373 . S
C1 H29 0.930 . S
N2 C1 1.373 . S
N2 C4 1.340 . S
N3 C0 1.368 . S
N3 C4 1.321 . S
N3 Co6 2.135 . S
C4 N2 1.340 . S
C4 N3 1.321 . S
C4 H28 0.930 . S
H5 C0 0.931 . S
Co6 N3 2.135 . S
Co6 N9 2.121 . S
Co6 O14 2.055 . S
Co6 O17 2.039 . S
Co6 N20 2.140 . S
C7 O8 1.227 . S
C7 O17 1.265 . S
O8 C7 1.227 . S
N9 Co6 2.121 . S
N9 C11 1.375 . S
N9 C12 1.313 . S
C10 C11 1.338 . S
C10 N13 1.377 . S
C10 H30 0.930 . S
C11 N9 1.375 . S
C11 C10 1.338 . S
C11 H15 0.931 . S
C12 N9 1.313 . S
C12 N13 1.344 . S
C12 H16 0.930 . S
N13 C10 1.377 . S
N13 C12 1.344 . S
O14 Co6 2.055 . S
O14 C18 1.253 . S
H15 C11 0.931 . S
H16 C12 0.930 . S
O17 Co6 2.039 . S
O17 C7 1.265 . S
C18 O14 1.253 . S
C18 O19 1.227 . S
O19 C18 1.227 . S
N20 Co6 2.140 . S
N20 C23 1.346 . S
N20 C24 1.345 . S
C21 C22 1.387 . S
C21 C25 1.391 . S
C22 C21 1.387 . S
C22 C23 1.369 . S
C22 H31 0.929 . S
C23 N20 1.346 . S
C23 C22 1.369 . S
C23 H26 0.928 . S
C24 N20 1.345 . S
C24 C25 1.371 . S
C24 H27 0.931 . S
C25 C21 1.391 . S
C25 C24 1.371 . S
C25 H32 0.930 . S
H26 C23 0.928 . S
H27 C24 0.931 . S
H28 C4 0.930 . S
H29 C1 0.930 . S
H30 C10 0.930 . S
H31 C22 0.929 . S
H32 C25 0.930 . S
C33 C34 1.351 . S
C33 N36 1.368 . S
C33 H38 0.931 . S
C34 C33 1.351 . S
C34 N35 1.373 . S
C34 H62 0.930 . S
N35 C34 1.373 . S
N35 C37 1.340 . S
N36 C33 1.368 . S
N36 C37 1.321 . S
N36 Co39 2.135 . S
C37 N35 1.340 . S
C37 N36 1.321 . S
C37 H61 0.930 . S
H38 C33 0.931 . S
Co39 N36 2.135 . S
Co39 N42 2.121 . S
Co39 O47 2.055 . S
Co39 O50 2.039 . S
Co39 N53 2.140 . S
C40 O41 1.227 . S
C40 O50 1.265 . S
O41 C40 1.227 . S
N42 Co39 2.121 . S
N42 C44 1.375 . S
N42 C45 1.313 . S
C43 C44 1.338 . S
C43 N46 1.377 . S
C43 H63 0.930 . S
C44 N42 1.375 . S
C44 C43 1.338 . S
C44 H48 0.931 . S
C45 N42 1.313 . S
C45 N46 1.344 . S
C45 H49 0.930 . S
N46 C43 1.377 . S
N46 C45 1.344 . S
O47 Co39 2.055 . S
O47 C51 1.253 . S
H48 C44 0.931 . S
H49 C45 0.930 . S
O50 Co39 2.039 . S
O50 C40 1.265 . S
C51 O47 1.253 . S
C51 O52 1.227 . S
O52 C51 1.227 . S
N53 Co39 2.140 . S
N53 C56 1.346 . S
N53 C57 1.345 . S
C54 C55 1.387 . S
C54 C58 1.391 . S
C55 C54 1.387 . S
C55 C56 1.369 . S
C55 H64 0.929 . S
C56 N53 1.346 . S
C56 C55 1.369 . S
C56 H59 0.928 . S
C57 N53 1.345 . S
C57 C58 1.371 . S
C57 H60 0.931 . S
C58 C54 1.391 . S
C58 C57 1.371 . S
C58 H65 0.930 . S
H59 C56 0.928 . S
H60 C57 0.931 . S
H61 C37 0.930 . S
H62 C34 0.930 . S
H63 C43 0.930 . S
H64 C55 0.929 . S
H65 C58 0.930 . S
C66 C67 1.351 . S
C66 N69 1.368 . S
C66 H71 0.931 . S
C67 C66 1.351 . S
C67 N68 1.373 . S
C67 H95 0.930 . S
N68 C67 1.373 . S
N68 C70 1.340 . S
N69 C66 1.368 . S
N69 C70 1.321 . S
N69 Co72 2.135 . S
C70 N68 1.340 . S
C70 N69 1.321 . S
C70 H94 0.930 . S
H71 C66 0.931 . S
Co72 N69 2.135 . S
Co72 N75 2.121 . S
Co72 O80 2.055 . S
Co72 O83 2.039 . S
Co72 N86 2.140 . S
C73 O74 1.227 . S
C73 O83 1.265 . S
O74 C73 1.227 . S
N75 Co72 2.121 . S
N75 C77 1.375 . S
N75 C78 1.313 . S
C76 C77 1.338 . S
C76 N79 1.377 . S
C76 H96 0.930 . S
C77 N75 1.375 . S
C77 C76 1.338 . S
C77 H81 0.931 . S
C78 N75 1.313 . S
C78 N79 1.344 . S
C78 H82 0.930 . S
N79 C76 1.377 . S
N79 C78 1.344 . S
O80 Co72 2.055 . S
O80 C84 1.253 . S
H81 C77 0.931 . S
H82 C78 0.930 . S
O83 Co72 2.039 . S
O83 C73 1.265 . S
C84 O80 1.253 . S
C84 O85 1.227 . S
O85 C84 1.227 . S
N86 Co72 2.140 . S
N86 C89 1.346 . S
N86 C90 1.345 . S
C87 C88 1.387 . S
C87 C91 1.391 . S
C88 C87 1.387 . S
C88 C89 1.369 . S
C88 H97 0.929 . S
C89 N86 1.346 . S
C89 C88 1.369 . S
C89 H92 0.928 . S
C90 N86 1.345 . S
C90 C91 1.371 . S
C90 H93 0.931 . S
C91 C87 1.391 . S
C91 C90 1.371 . S
C91 H98 0.930 . S
H92 C89 0.928 . S
H93 C90 0.931 . S
H94 C70 0.930 . S
H95 C67 0.930 . S
H96 C76 0.930 . S
H97 C88 0.929 . S
H98 C91 0.930 . S
C99 C100 1.351 . S
C99 N102 1.368 . S
C99 H104 0.931 . S
C100 C99 1.351 . S
C100 N101 1.373 . S
C100 H128 0.930 . S
N101 C100 1.373 . S
N101 C103 1.340 . S
N102 C99 1.368 . S
N102 C103 1.321 . S
N102 Co105 2.135 . S
C103 N101 1.340 . S
C103 N102 1.321 . S
C103 H127 0.930 . S
H104 C99 0.931 . S
Co105 N102 2.135 . S
Co105 N108 2.121 . S
Co105 O113 2.055 . S
Co105 O116 2.039 . S
Co105 N119 2.140 . S
C106 O107 1.227 . S
C106 O116 1.265 . S
O107 C106 1.227 . S
N108 Co105 2.121 . S
N108 C110 1.375 . S
N108 C111 1.313 . S
C109 C110 1.338 . S
C109 N112 1.377 . S
C109 H129 0.930 . S
C110 N108 1.375 . S
C110 C109 1.338 . S
C110 H114 0.931 . S
C111 N108 1.313 . S
C111 N112 1.344 . S
C111 H115 0.930 . S
N112 C109 1.377 . S
N112 C111 1.344 . S
O113 Co105 2.055 . S
O113 C117 1.253 . S
H114 C110 0.931 . S
H115 C111 0.930 . S
O116 Co105 2.039 . S
O116 C106 1.265 . S
C117 O113 1.253 . S
C117 O118 1.227 . S
O118 C117 1.227 . S
N119 Co105 2.140 . S
N119 C122 1.346 . S
N119 C123 1.345 . S
C120 C121 1.387 . S
C120 C124 1.391 . S
C121 C120 1.387 . S
C121 C122 1.369 . S
C121 H130 0.929 . S
C122 N119 1.346 . S
C122 C121 1.369 . S
C122 H125 0.928 . S
C123 N119 1.345 . S
C123 C124 1.371 . S
C123 H126 0.931 . S
C124 C120 1.391 . S
C124 C123 1.371 . S
C124 H131 0.930 . S
H125 C122 0.928 . S
H126 C123 0.931 . S
H127 C103 0.930 . S
H128 C100 0.930 . S
H129 C109 0.930 . S
H130 C121 0.929 . S
H131 C124 0.930 . S
C132 C133 1.351 . S
C132 N135 1.368 . S
C132 H137 0.931 . S
C133 C132 1.351 . S
C133 N134 1.373 . S
C133 H161 0.930 . S
N134 C133 1.373 . S
N134 C136 1.340 . S
N135 C132 1.368 . S
N135 C136 1.321 . S
N135 Co138 2.135 . S
C136 N134 1.340 . S
C136 N135 1.321 . S
C136 H160 0.930 . S
H137 C132 0.931 . S
Co138 N135 2.135 . S
Co138 N141 2.121 . S
Co138 O146 2.055 . S
Co138 O149 2.039 . S
Co138 N152 2.140 . S
C139 O140 1.227 . S
C139 O149 1.265 . S
O140 C139 1.227 . S
N141 Co138 2.121 . S
N141 C143 1.375 . S
N141 C144 1.313 . S
C142 C143 1.338 . S
C142 N145 1.377 . S
C142 H162 0.930 . S
C143 N141 1.375 . S
C143 C142 1.338 . S
C143 H147 0.931 . S
C144 N141 1.313 . S
C144 N145 1.344 . S
C144 H148 0.930 . S
N145 C142 1.377 . S
N145 C144 1.344 . S
O146 Co138 2.055 . S
O146 C150 1.253 . S
H147 C143 0.931 . S
H148 C144 0.930 . S
O149 Co138 2.039 . S
O149 C139 1.265 . S
C150 O146 1.253 . S
C150 O151 1.227 . S
O151 C150 1.227 . S
N152 Co138 2.140 . S
N152 C155 1.346 . S
N152 C156 1.345 . S
C153 C154 1.387 . S
C153 C157 1.391 . S
C154 C153 1.387 . S
C154 C155 1.369 . S
C154 H163 0.929 . S
C155 N152 1.346 . S
C155 C154 1.369 . S
C155 H158 0.928 . S
C156 N152 1.345 . S
C156 C157 1.371 . S
C156 H159 0.931 . S
C157 C153 1.391 . S
C157 C156 1.371 . S
C157 H164 0.930 . S
H158 C155 0.928 . S
H159 C156 0.931 . S
H160 C136 0.930 . S
H161 C133 0.930 . S
H162 C142 0.930 . S
H163 C154 0.929 . S
H164 C157 0.930 . S
C165 C166 1.351 . S
C165 N168 1.368 . S
C165 H170 0.931 . S
C166 C165 1.351 . S
C166 N167 1.373 . S
C166 H194 0.930 . S
N167 C166 1.373 . S
N167 C169 1.340 . S
N168 C165 1.368 . S
N168 C169 1.321 . S
N168 Co171 2.135 . S
C169 N167 1.340 . S
C169 N168 1.321 . S
C169 H193 0.930 . S
H170 C165 0.931 . S
Co171 N168 2.135 . S
Co171 N174 2.121 . S
Co171 O179 2.055 . S
Co171 O182 2.039 . S
Co171 N185 2.140 . S
C172 O173 1.227 . S
C172 O182 1.265 . S
O173 C172 1.227 . S
N174 Co171 2.121 . S
N174 C176 1.375 . S
N174 C177 1.313 . S
C175 C176 1.338 . S
C175 N178 1.377 . S
C175 H195 0.930 . S
C176 N174 1.375 . S
C176 C175 1.338 . S
C176 H180 0.931 . S
C177 N174 1.313 . S
C177 N178 1.344 . S
C177 H181 0.930 . S
N178 C175 1.377 . S
N178 C177 1.344 . S
O179 Co171 2.055 . S
O179 C183 1.253 . S
H180 C176 0.931 . S
H181 C177 0.930 . S
O182 Co171 2.039 . S
O182 C172 1.265 . S
C183 O179 1.253 . S
C183 O184 1.227 . S
O184 C183 1.227 . S
N185 Co171 2.140 . S
N185 C188 1.346 . S
N185 C189 1.345 . S
C186 C187 1.387 . S
C186 C190 1.391 . S
C187 C186 1.387 . S
C187 C188 1.369 . S
C187 H196 0.929 . S
C188 N185 1.346 . S
C188 C187 1.369 . S
C188 H191 0.928 . S
C189 N185 1.345 . S
C189 C190 1.371 . S
C189 H192 0.931 . S
C190 C186 1.391 . S
C190 C189 1.371 . S
C190 H197 0.930 . S
H191 C188 0.928 . S
H192 C189 0.931 . S
H193 C169 0.930 . S
H194 C166 0.930 . S
H195 C175 0.930 . S
H196 C187 0.929 . S
H197 C190 0.930 . S
C198 C199 1.351 . S
C198 N201 1.368 . S
C198 H203 0.931 . S
C199 C198 1.351 . S
C199 N200 1.373 . S
C199 H227 0.930 . S
N200 C199 1.373 . S
N200 C202 1.340 . S
N201 C198 1.368 . S
N201 C202 1.321 . S
N201 Co204 2.135 . S
C202 N200 1.340 . S
C202 N201 1.321 . S
C202 H226 0.930 . S
H203 C198 0.931 . S
Co204 N201 2.135 . S
Co204 N207 2.121 . S
Co204 O212 2.055 . S
Co204 O215 2.039 . S
Co204 N218 2.140 . S
C205 O206 1.227 . S
C205 O215 1.265 . S
O206 C205 1.227 . S
N207 Co204 2.121 . S
N207 C209 1.375 . S
N207 C210 1.313 . S
C208 C209 1.338 . S
C208 N211 1.377 . S
C208 H228 0.930 . S
C209 N207 1.375 . S
C209 C208 1.338 . S
C209 H213 0.931 . S
C210 N207 1.313 . S
C210 N211 1.344 . S
C210 H214 0.930 . S
N211 C208 1.377 . S
N211 C210 1.344 . S
O212 Co204 2.055 . S
O212 C216 1.253 . S
H213 C209 0.931 . S
H214 C210 0.930 . S
O215 Co204 2.039 . S
O215 C205 1.265 . S
C216 O212 1.253 . S
C216 O217 1.227 . S
O217 C216 1.227 . S
N218 Co204 2.140 . S
N218 C221 1.346 . S
N218 C222 1.345 . S
C219 C220 1.387 . S
C219 C223 1.391 . S
C220 C219 1.387 . S
C220 C221 1.369 . S
C220 H229 0.929 . S
C221 N218 1.346 . S
C221 C220 1.369 . S
C221 H224 0.928 . S
C222 N218 1.345 . S
C222 C223 1.371 . S
C222 H225 0.931 . S
C223 C219 1.391 . S
C223 C222 1.371 . S
C223 H230 0.930 . S
H224 C221 0.928 . S
H225 C222 0.931 . S
H226 C202 0.930 . S
H227 C199 0.930 . S
H228 C208 0.930 . S
H229 C220 0.929 . S
H230 C223 0.930 . S
C231 C232 1.351 . S
C231 N234 1.368 . S
C231 H236 0.931 . S
C232 C231 1.351 . S
C232 N233 1.373 . S
C232 H260 0.930 . S
N233 C232 1.373 . S
N233 C235 1.340 . S
N234 C231 1.368 . S
N234 C235 1.321 . S
N234 Co237 2.135 . S
C235 N233 1.340 . S
C235 N234 1.321 . S
C235 H259 0.930 . S
H236 C231 0.931 . S
Co237 N234 2.135 . S
Co237 N240 2.121 . S
Co237 O245 2.055 . S
Co237 O248 2.039 . S
Co237 N251 2.140 . S
C238 O239 1.227 . S
C238 O248 1.265 . S
O239 C238 1.227 . S
N240 Co237 2.121 . S
N240 C242 1.375 . S
N240 C243 1.313 . S
C241 C242 1.338 . S
C241 N244 1.377 . S
C241 H261 0.930 . S
C242 N240 1.375 . S
C242 C241 1.338 . S
C242 H246 0.931 . S
C243 N240 1.313 . S
C243 N244 1.344 . S
C243 H247 0.930 . S
N244 C241 1.377 . S
N244 C243 1.344 . S
O245 Co237 2.055 . S
O245 C249 1.253 . S
H246 C242 0.931 . S
H247 C243 0.930 . S
O248 Co237 2.039 . S
O248 C238 1.265 . S
C249 O245 1.253 . S
C249 O250 1.227 . S
O250 C249 1.227 . S
N251 Co237 2.140 . S
N251 C254 1.346 . S
N251 C255 1.345 . S
C252 C253 1.387 . S
C252 C256 1.391 . S
C253 C252 1.387 . S
C253 C254 1.369 . S
C253 H262 0.929 . S
C254 N251 1.346 . S
C254 C253 1.369 . S
C254 H257 0.928 . S
C255 N251 1.345 . S
C255 C256 1.371 . S
C255 H258 0.931 . S
C256 C252 1.391 . S
C256 C255 1.371 . S
C256 H263 0.930 . S
H257 C254 0.928 . S
H258 C255 0.931 . S
H259 C235 0.930 . S
H260 C232 0.930 . S
H261 C241 0.930 . S
H262 C253 0.929 . S
H263 C256 0.930 . S
C264 C265 1.351 . S
C264 N267 1.368 . S
C264 H269 0.931 . S
C265 C264 1.351 . S
C265 N266 1.373 . S
C265 H293 0.930 . S
N266 C265 1.373 . S
N266 C268 1.340 . S
N267 C264 1.368 . S
N267 C268 1.321 . S
N267 Co270 2.135 . S
C268 N266 1.340 . S
C268 N267 1.321 . S
C268 H292 0.930 . S
H269 C264 0.931 . S
Co270 N267 2.135 . S
Co270 N273 2.121 . S
Co270 O278 2.055 . S
Co270 O281 2.039 . S
Co270 N284 2.140 . S
C271 O272 1.227 . S
C271 O281 1.265 . S
O272 C271 1.227 . S
N273 Co270 2.121 . S
N273 C275 1.375 . S
N273 C276 1.313 . S
C274 C275 1.338 . S
C274 N277 1.377 . S
C274 H294 0.930 . S
C275 N273 1.375 . S
C275 C274 1.338 . S
C275 H279 0.931 . S
C276 N273 1.313 . S
C276 N277 1.344 . S
C276 H280 0.930 . S
N277 C274 1.377 . S
N277 C276 1.344 . S
O278 Co270 2.055 . S
O278 C282 1.253 . S
H279 C275 0.931 . S
H280 C276 0.930 . S
O281 Co270 2.039 . S
O281 C271 1.265 . S
C282 O278 1.253 . S
C282 O283 1.227 . S
O283 C282 1.227 . S
N284 Co270 2.140 . S
N284 C287 1.346 . S
N284 C288 1.345 . S
C285 C286 1.387 . S
C285 C289 1.391 . S
C286 C285 1.387 . S
C286 C287 1.369 . S
C286 H295 0.929 . S
C287 N284 1.346 . S
C287 C286 1.369 . S
C287 H290 0.928 . S
C288 N284 1.345 . S
C288 C289 1.371 . S
C288 H291 0.931 . S
C289 C285 1.391 . S
C289 C288 1.371 . S
C289 H296 0.930 . S
H290 C287 0.928 . S
H291 C288 0.931 . S
H292 C268 0.930 . S
H293 C265 0.930 . S
H294 C274 0.930 . S
H295 C286 0.929 . S
H296 C289 0.930 . S
C297 C298 1.351 . S
C297 N300 1.368 . S
C297 H302 0.931 . S
C298 C297 1.351 . S
C298 N299 1.373 . S
C298 H326 0.930 . S
N299 C298 1.373 . S
N299 C301 1.340 . S
N300 C297 1.368 . S
N300 C301 1.321 . S
N300 Co303 2.135 . S
C301 N299 1.340 . S
C301 N300 1.321 . S
C301 H325 0.930 . S
H302 C297 0.931 . S
Co303 N300 2.135 . S
Co303 N306 2.121 . S
Co303 O311 2.055 . S
Co303 O314 2.039 . S
Co303 N317 2.140 . S
C304 O305 1.227 . S
C304 O314 1.265 . S
O305 C304 1.227 . S
N306 Co303 2.121 . S
N306 C308 1.375 . S
N306 C309 1.313 . S
C307 C308 1.338 . S
C307 N310 1.377 . S
C307 H327 0.930 . S
C308 N306 1.375 . S
C308 C307 1.338 . S
C308 H312 0.931 . S
C309 N306 1.313 . S
C309 N310 1.344 . S
C309 H313 0.930 . S
N310 C307 1.377 . S
N310 C309 1.344 . S
O311 Co303 2.055 . S
O311 C315 1.253 . S
H312 C308 0.931 . S
H313 C309 0.930 . S
O314 Co303 2.039 . S
O314 C304 1.265 . S
C315 O311 1.253 . S
C315 O316 1.227 . S
O316 C315 1.227 . S
N317 Co303 2.140 . S
N317 C320 1.346 . S
N317 C321 1.345 . S
C318 C319 1.387 . S
C318 C322 1.391 . S
C319 C318 1.387 . S
C319 C320 1.369 . S
C319 H328 0.929 . S
C320 N317 1.346 . S
C320 C319 1.369 . S
C320 H323 0.928 . S
C321 N317 1.345 . S
C321 C322 1.371 . S
C321 H324 0.931 . S
C322 C318 1.391 . S
C322 C321 1.371 . S
C322 H329 0.930 . S
H323 C320 0.928 . S
H324 C321 0.931 . S
H325 C301 0.930 . S
H326 C298 0.930 . S
H327 C307 0.930 . S
H328 C319 0.929 . S
H329 C322 0.930 . S
C330 C331 1.351 . S
C330 N333 1.368 . S
C330 H335 0.931 . S
C331 C330 1.351 . S
C331 N332 1.373 . S
C331 H359 0.930 . S
N332 C331 1.373 . S
N332 C334 1.340 . S
N333 C330 1.368 . S
N333 C334 1.321 . S
N333 Co336 2.135 . S
C334 N332 1.340 . S
C334 N333 1.321 . S
C334 H358 0.930 . S
H335 C330 0.931 . S
Co336 N333 2.135 . S
Co336 N339 2.121 . S
Co336 O344 2.055 . S
Co336 O347 2.039 . S
Co336 N350 2.140 . S
C337 O338 1.227 . S
C337 O347 1.265 . S
O338 C337 1.227 . S
N339 Co336 2.121 . S
N339 C341 1.375 . S
N339 C342 1.313 . S
C340 C341 1.338 . S
C340 N343 1.377 . S
C340 H360 0.930 . S
C341 N339 1.375 . S
C341 C340 1.338 . S
C341 H345 0.931 . S
C342 N339 1.313 . S
C342 N343 1.344 . S
C342 H346 0.930 . S
N343 C340 1.377 . S
N343 C342 1.344 . S
O344 Co336 2.055 . S
O344 C348 1.253 . S
H345 C341 0.931 . S
H346 C342 0.930 . S
O347 Co336 2.039 . S
O347 C337 1.265 . S
C348 O344 1.253 . S
C348 O349 1.227 . S
O349 C348 1.227 . S
N350 Co336 2.140 . S
N350 C353 1.346 . S
N350 C354 1.345 . S
C351 C352 1.387 . S
C351 C355 1.391 . S
C352 C351 1.387 . S
C352 C353 1.369 . S
C352 H361 0.929 . S
C353 N350 1.346 . S
C353 C352 1.369 . S
C353 H356 0.928 . S
C354 N350 1.345 . S
C354 C355 1.371 . S
C354 H357 0.931 . S
C355 C351 1.391 . S
C355 C354 1.371 . S
C355 H362 0.930 . S
H356 C353 0.928 . S
H357 C354 0.931 . S
H358 C334 0.930 . S
H359 C331 0.930 . S
H360 C340 0.930 . S
H361 C352 0.929 . S
H362 C355 0.930 . S
C363 C364 1.351 . S
C363 N366 1.368 . S
C363 H368 0.931 . S
C364 C363 1.351 . S
C364 N365 1.373 . S
C364 H392 0.930 . S
N365 C364 1.373 . S
N365 C367 1.340 . S
N366 C363 1.368 . S
N366 C367 1.321 . S
N366 Co369 2.135 . S
C367 N365 1.340 . S
C367 N366 1.321 . S
C367 H391 0.930 . S
H368 C363 0.931 . S
Co369 N366 2.135 . S
Co369 N372 2.121 . S
Co369 O377 2.055 . S
Co369 O380 2.039 . S
Co369 N383 2.140 . S
C370 O371 1.227 . S
C370 O380 1.265 . S
O371 C370 1.227 . S
N372 Co369 2.121 . S
N372 C374 1.375 . S
N372 C375 1.313 . S
C373 C374 1.338 . S
C373 N376 1.377 . S
C373 H393 0.930 . S
C374 N372 1.375 . S
C374 C373 1.338 . S
C374 H378 0.931 . S
C375 N372 1.313 . S
C375 N376 1.344 . S
C375 H379 0.930 . S
N376 C373 1.377 . S
N376 C375 1.344 . S
O377 Co369 2.055 . S
O377 C381 1.253 . S
H378 C374 0.931 . S
H379 C375 0.930 . S
O380 Co369 2.039 . S
O380 C370 1.265 . S
C381 O377 1.253 . S
C381 O382 1.227 . S
O382 C381 1.227 . S
N383 Co369 2.140 . S
N383 C386 1.346 . S
N383 C387 1.345 . S
C384 C385 1.387 . S
C384 C388 1.391 . S
C385 C384 1.387 . S
C385 C386 1.369 . S
C385 H394 0.929 . S
C386 N383 1.346 . S
C386 C385 1.369 . S
C386 H389 0.928 . S
C387 N383 1.345 . S
C387 C388 1.371 . S
C387 H390 0.931 . S
C388 C384 1.391 . S
C388 C387 1.371 . S
C388 H395 0.930 . S
H389 C386 0.928 . S
H390 C387 0.931 . S
H391 C367 0.930 . S
H392 C364 0.930 . S
H393 C373 0.930 . S
H394 C385 0.929 . S
H395 C388 0.930 . S
H396 C408 0.930 . S
H397 C410 0.930 . S
H398 C411 0.930 . S
H399 C415 0.959 . S
H400 C415 0.959 . S
H401 C415 0.961 . S
H402 C416 0.960 . S
H403 C416 0.961 . S
H404 C416 0.959 . S
H405 C419 0.929 . S
H406 C420 0.931 . S
H407 C422 0.930 . S
C408 H396 0.930 . S
C408 C409 1.399 . S
C408 C413 1.399 . S
C409 C408 1.399 . S
C409 C410 1.376 . S
C410 H397 0.930 . S
C410 C409 1.376 . S
C410 C411 1.388 . S
C411 H398 0.930 . S
C411 C410 1.388 . S
C411 C412 1.390 . S
C412 C411 1.390 . S
C412 C413 1.394 . S
C412 C418 1.465 . S
C413 C408 1.399 . S
C413 C412 1.394 . S
C413 C414 1.516 . S
C414 C413 1.516 . S
C414 C415 1.502 . S
C414 C416 1.561 . S
C414 C417 1.526 . S
C415 H399 0.959 . S
C415 H400 0.959 . S
C415 H401 0.961 . S
C415 C414 1.502 . S
C416 H402 0.960 . S
C416 H403 0.961 . S
C416 H404 0.959 . S
C416 C414 1.561 . S
C417 C414 1.526 . S
C417 C418 1.396 . S
C417 C422 1.390 . S
C418 C412 1.465 . S
C418 C417 1.396 . S
C418 C419 1.399 . S
C419 H405 0.929 . S
C419 C418 1.399 . S
C419 C420 1.385 . S
C420 H406 0.931 . S
C420 C419 1.385 . S
C420 C421 1.389 . S
C421 C420 1.389 . S
C421 C422 1.387 . S
C422 H407 0.930 . S
C422 C417 1.390 . S
C422 C421 1.387 . S
H423 C435 0.930 . S
H424 C437 0.930 . S
H425 C438 0.930 . S
H426 C442 0.959 . S
H427 C442 0.959 . S
H428 C442 0.961 . S
H429 C443 0.960 . S
H430 C443 0.961 . S
H431 C443 0.959 . S
H432 C446 0.929 . S
H433 C447 0.931 . S
H434 C449 0.930 . S
C435 H423 0.930 . S
C435 C436 1.399 . S
C435 C440 1.399 . S
C436 C435 1.399 . S
C436 C437 1.376 . S
C437 H424 0.930 . S
C437 C436 1.376 . S
C437 C438 1.388 . S
C438 H425 0.930 . S
C438 C437 1.388 . S
C438 C439 1.390 . S
C439 C438 1.390 . S
C439 C440 1.394 . S
C439 C445 1.465 . S
C440 C435 1.399 . S
C440 C439 1.394 . S
C440 C441 1.516 . S
C441 C440 1.516 . S
C441 C442 1.502 . S
C441 C443 1.561 . S
C441 C444 1.526 . S
C442 H426 0.959 . S
C442 H427 0.959 . S
C442 H428 0.961 . S
C442 C441 1.502 . S
C443 H429 0.960 . S
C443 H430 0.961 . S
C443 H431 0.959 . S
C443 C441 1.561 . S
C444 C441 1.526 . S
C444 C445 1.396 . S
C444 C449 1.390 . S
C445 C439 1.465 . S
C445 C444 1.396 . S
C445 C446 1.399 . S
C446 H432 0.929 . S
C446 C445 1.399 . S
C446 C447 1.385 . S
C447 H433 0.931 . S
C447 C446 1.385 . S
C447 C448 1.389 . S
C448 C447 1.389 . S
C448 C449 1.387 . S
C449 H434 0.930 . S
C449 C444 1.390 . S
C449 C448 1.387 . S
H450 C462 0.930 . S
H451 C464 0.930 . S
H452 C465 0.930 . S
H453 C469 0.959 . S
H454 C469 0.959 . S
H455 C469 0.961 . S
H456 C470 0.960 . S
H457 C470 0.961 . S
H458 C470 0.959 . S
H459 C473 0.929 . S
H460 C474 0.931 . S
H461 C476 0.930 . S
C462 H450 0.930 . S
C462 C463 1.399 . S
C462 C467 1.399 . S
C463 C462 1.399 . S
C463 C464 1.376 . S
C464 H451 0.930 . S
C464 C463 1.376 . S
C464 C465 1.388 . S
C465 H452 0.930 . S
C465 C464 1.388 . S
C465 C466 1.390 . S
C466 C465 1.390 . S
C466 C467 1.394 . S
C466 C472 1.465 . S
C467 C462 1.399 . S
C467 C466 1.394 . S
C467 C468 1.516 . S
C468 C467 1.516 . S
C468 C469 1.502 . S
C468 C470 1.561 . S
C468 C471 1.526 . S
C469 H453 0.959 . S
C469 H454 0.959 . S
C469 H455 0.961 . S
C469 C468 1.502 . S
C470 H456 0.960 . S
C470 H457 0.961 . S
C470 H458 0.959 . S
C470 C468 1.561 . S
C471 C468 1.526 . S
C471 C472 1.396 . S
C471 C476 1.390 . S
C472 C466 1.465 . S
C472 C471 1.396 . S
C472 C473 1.399 . S
C473 H459 0.929 . S
C473 C472 1.399 . S
C473 C474 1.385 . S
C474 H460 0.931 . S
C474 C473 1.385 . S
C474 C475 1.389 . S
C475 C474 1.389 . S
C475 C476 1.387 . S
C476 H461 0.930 . S
C476 C471 1.390 . S
C476 C475 1.387 . S
H477 C489 0.930 . S
H478 C491 0.930 . S
H479 C492 0.930 . S
H480 C496 0.959 . S
H481 C496 0.959 . S
H482 C496 0.961 . S
H483 C497 0.960 . S
H484 C497 0.961 . S
H485 C497 0.959 . S
H486 C500 0.929 . S
H487 C501 0.931 . S
H488 C503 0.930 . S
C489 H477 0.930 . S
C489 C490 1.399 . S
C489 C494 1.399 . S
C490 C489 1.399 . S
C490 C491 1.376 . S
C491 H478 0.930 . S
C491 C490 1.376 . S
C491 C492 1.388 . S
C492 H479 0.930 . S
C492 C491 1.388 . S
C492 C493 1.390 . S
C493 C492 1.390 . S
C493 C494 1.394 . S
C493 C499 1.465 . S
C494 C489 1.399 . S
C494 C493 1.394 . S
C494 C495 1.516 . S
C495 C494 1.516 . S
C495 C496 1.502 . S
C495 C497 1.561 . S
C495 C498 1.526 . S
C496 H480 0.959 . S
C496 H481 0.959 . S
C496 H482 0.961 . S
C496 C495 1.502 . S
C497 H483 0.960 . S
C497 H484 0.961 . S
C497 H485 0.959 . S
C497 C495 1.561 . S
C498 C495 1.526 . S
C498 C499 1.396 . S
C498 C503 1.390 . S
C499 C493 1.465 . S
C499 C498 1.396 . S
C499 C500 1.399 . S
C500 H486 0.929 . S
C500 C499 1.399 . S
C500 C501 1.385 . S
C501 H487 0.931 . S
C501 C500 1.385 . S
C501 C502 1.389 . S
C502 C501 1.389 . S
C502 C503 1.387 . S
C503 H488 0.930 . S
C503 C498 1.390 . S
C503 C502 1.387 . S
H504 C516 0.930 . S
H505 C518 0.930 . S
H506 C519 0.930 . S
H507 C523 0.959 . S
H508 C523 0.959 . S
H509 C523 0.961 . S
H510 C524 0.960 . S
H511 C524 0.961 . S
H512 C524 0.959 . S
H513 C527 0.929 . S
H514 C528 0.931 . S
H515 C530 0.930 . S
C516 H504 0.930 . S
C516 C517 1.399 . S
C516 C521 1.399 . S
C517 C516 1.399 . S
C517 C518 1.376 . S
C518 H505 0.930 . S
C518 C517 1.376 . S
C518 C519 1.388 . S
C519 H506 0.930 . S
C519 C518 1.388 . S
C519 C520 1.390 . S
C520 C519 1.390 . S
C520 C521 1.394 . S
C520 C526 1.465 . S
C521 C516 1.399 . S
C521 C520 1.394 . S
C521 C522 1.516 . S
C522 C521 1.516 . S
C522 C523 1.502 . S
C522 C524 1.561 . S
C522 C525 1.526 . S
C523 H507 0.959 . S
C523 H508 0.959 . S
C523 H509 0.961 . S
C523 C522 1.502 . S
C524 H510 0.960 . S
C524 H511 0.961 . S
C524 H512 0.959 . S
C524 C522 1.561 . S
C525 C522 1.526 . S
C525 C526 1.396 . S
C525 C530 1.390 . S
C526 C520 1.465 . S
C526 C525 1.396 . S
C526 C527 1.399 . S
C527 H513 0.929 . S
C527 C526 1.399 . S
C527 C528 1.385 . S
C528 H514 0.931 . S
C528 C527 1.385 . S
C528 C529 1.389 . S
C529 C528 1.389 . S
C529 C530 1.387 . S
C530 H515 0.930 . S
C530 C525 1.390 . S
C530 C529 1.387 . S
H531 C543 0.930 . S
H532 C545 0.930 . S
H533 C546 0.930 . S
H534 C550 0.959 . S
H535 C550 0.959 . S
H536 C550 0.961 . S
H537 C551 0.960 . S
H538 C551 0.961 . S
H539 C551 0.959 . S
H540 C554 0.929 . S
H541 C555 0.931 . S
H542 C557 0.930 . S
C543 H531 0.930 . S
C543 C544 1.399 . S
C543 C548 1.399 . S
C544 C543 1.399 . S
C544 C545 1.376 . S
C545 H532 0.930 . S
C545 C544 1.376 . S
C545 C546 1.388 . S
C546 H533 0.930 . S
C546 C545 1.388 . S
C546 C547 1.390 . S
C547 C546 1.390 . S
C547 C548 1.394 . S
C547 C553 1.465 . S
C548 C543 1.399 . S
C548 C547 1.394 . S
C548 C549 1.516 . S
C549 C548 1.516 . S
C549 C550 1.502 . S
C549 C551 1.561 . S
C549 C552 1.526 . S
C550 H534 0.959 . S
C550 H535 0.959 . S
C550 H536 0.961 . S
C550 C549 1.502 . S
C551 H537 0.960 . S
C551 H538 0.961 . S
C551 H539 0.959 . S
C551 C549 1.561 . S
C552 C549 1.526 . S
C552 C553 1.396 . S
C552 C557 1.390 . S
C553 C547 1.465 . S
C553 C552 1.396 . S
C553 C554 1.399 . S
C554 H540 0.929 . S
C554 C553 1.399 . S
C554 C555 1.385 . S
C555 H541 0.931 . S
C555 C554 1.385 . S
C555 C556 1.389 . S
C556 C555 1.389 . S
C556 C557 1.387 . S
C557 H542 0.930 . S
C557 C552 1.390 . S
C557 C556 1.387 . S
H558 C570 0.930 . S
H559 C572 0.930 . S
H560 C573 0.930 . S
H561 C577 0.959 . S
H562 C577 0.959 . S
H563 C577 0.961 . S
H564 C578 0.960 . S
H565 C578 0.961 . S
H566 C578 0.959 . S
H567 C581 0.929 . S
H568 C582 0.931 . S
H569 C584 0.930 . S
C570 H558 0.930 . S
C570 C571 1.399 . S
C570 C575 1.399 . S
C571 C570 1.399 . S
C571 C572 1.376 . S
C572 H559 0.930 . S
C572 C571 1.376 . S
C572 C573 1.388 . S
C573 H560 0.930 . S
C573 C572 1.388 . S
C573 C574 1.390 . S
C574 C573 1.390 . S
C574 C575 1.394 . S
C574 C580 1.465 . S
C575 C570 1.399 . S
C575 C574 1.394 . S
C575 C576 1.516 . S
C576 C575 1.516 . S
C576 C577 1.502 . S
C576 C578 1.561 . S
C576 C579 1.526 . S
C577 H561 0.959 . S
C577 H562 0.959 . S
C577 H563 0.961 . S
C577 C576 1.502 . S
C578 H564 0.960 . S
C578 H565 0.961 . S
C578 H566 0.959 . S
C578 C576 1.561 . S
C579 C576 1.526 . S
C579 C580 1.396 . S
C579 C584 1.390 . S
C580 C574 1.465 . S
C580 C579 1.396 . S
C580 C581 1.399 . S
C581 H567 0.929 . S
C581 C580 1.399 . S
C581 C582 1.385 . S
C582 H568 0.931 . S
C582 C581 1.385 . S
C582 C583 1.389 . S
C583 C582 1.389 . S
C583 C584 1.387 . S
C584 H569 0.930 . S
C584 C579 1.390 . S
C584 C583 1.387 . S
H585 C597 0.930 . S
H586 C599 0.930 . S
H587 C600 0.930 . S
H588 C604 0.959 . S
H589 C604 0.959 . S
H590 C604 0.961 . S
H591 C605 0.960 . S
H592 C605 0.961 . S
H593 C605 0.959 . S
H594 C608 0.929 . S
H595 C609 0.931 . S
H596 C611 0.930 . S
C597 H585 0.930 . S
C597 C598 1.399 . S
C597 C602 1.399 . S
C598 C597 1.399 . S
C598 C599 1.376 . S
C599 H586 0.930 . S
C599 C598 1.376 . S
C599 C600 1.388 . S
C600 H587 0.930 . S
C600 C599 1.388 . S
C600 C601 1.390 . S
C601 C600 1.390 . S
C601 C602 1.394 . S
C601 C607 1.465 . S
C602 C597 1.399 . S
C602 C601 1.394 . S
C602 C603 1.516 . S
C603 C602 1.516 . S
C603 C604 1.502 . S
C603 C605 1.561 . S
C603 C606 1.526 . S
C604 H588 0.959 . S
C604 H589 0.959 . S
C604 H590 0.961 . S
C604 C603 1.502 . S
C605 H591 0.960 . S
C605 H592 0.961 . S
C605 H593 0.959 . S
C605 C603 1.561 . S
C606 C603 1.526 . S
C606 C607 1.396 . S
C606 C611 1.390 . S
C607 C601 1.465 . S
C607 C606 1.396 . S
C607 C608 1.399 . S
C608 H594 0.929 . S
C608 C607 1.399 . S
C608 C609 1.385 . S
C609 H595 0.931 . S
C609 C608 1.385 . S
C609 C610 1.389 . S
C610 C609 1.389 . S
C610 C611 1.387 . S
C611 H596 0.930 . S
C611 C606 1.390 . S
C611 C610 1.387 . S
H612 C624 0.930 . S
H613 C626 0.930 . S
H614 C627 0.930 . S
H615 C631 0.959 . S
H616 C631 0.959 . S
H617 C631 0.961 . S
H618 C632 0.960 . S
H619 C632 0.961 . S
H620 C632 0.959 . S
H621 C635 0.929 . S
H622 C636 0.931 . S
H623 C638 0.930 . S
C624 H612 0.930 . S
C624 C625 1.399 . S
C624 C629 1.399 . S
C625 C624 1.399 . S
C625 C626 1.376 . S
C626 H613 0.930 . S
C626 C625 1.376 . S
C626 C627 1.388 . S
C627 H614 0.930 . S
C627 C626 1.388 . S
C627 C628 1.390 . S
C628 C627 1.390 . S
C628 C629 1.394 . S
C628 C634 1.465 . S
C629 C624 1.399 . S
C629 C628 1.394 . S
C629 C630 1.516 . S
C630 C629 1.516 . S
C630 C631 1.502 . S
C630 C632 1.561 . S
C630 C633 1.526 . S
C631 H615 0.959 . S
C631 H616 0.959 . S
C631 H617 0.961 . S
C631 C630 1.502 . S
C632 H618 0.960 . S
C632 H619 0.961 . S
C632 H620 0.959 . S
C632 C630 1.561 . S
C633 C630 1.526 . S
C633 C634 1.396 . S
C633 C638 1.390 . S
C634 C628 1.465 . S
C634 C633 1.396 . S
C634 C635 1.399 . S
C635 H621 0.929 . S
C635 C634 1.399 . S
C635 C636 1.385 . S
C636 H622 0.931 . S
C636 C635 1.385 . S
C636 C637 1.389 . S
C637 C636 1.389 . S
C637 C638 1.387 . S
C638 H623 0.930 . S
C638 C633 1.390 . S
C638 C637 1.387 . S
H639 C651 0.930 . S
H640 C653 0.930 . S
H641 C654 0.930 . S
H642 C658 0.959 . S
H643 C658 0.959 . S
H644 C658 0.961 . S
H645 C659 0.960 . S
H646 C659 0.961 . S
H647 C659 0.959 . S
H648 C662 0.929 . S
H649 C663 0.931 . S
H650 C665 0.930 . S
C651 H639 0.930 . S
C651 C652 1.399 . S
C651 C656 1.399 . S
C652 C651 1.399 . S
C652 C653 1.376 . S
C653 H640 0.930 . S
C653 C652 1.376 . S
C653 C654 1.388 . S
C654 H641 0.930 . S
C654 C653 1.388 . S
C654 C655 1.390 . S
C655 C654 1.390 . S
C655 C656 1.394 . S
C655 C661 1.465 . S
C656 C651 1.399 . S
C656 C655 1.394 . S
C656 C657 1.516 . S
C657 C656 1.516 . S
C657 C658 1.502 . S
C657 C659 1.561 . S
C657 C660 1.526 . S
C658 H642 0.959 . S
C658 H643 0.959 . S
C658 H644 0.961 . S
C658 C657 1.502 . S
C659 H645 0.960 . S
C659 H646 0.961 . S
C659 H647 0.959 . S
C659 C657 1.561 . S
C660 C657 1.526 . S
C660 C661 1.396 . S
C660 C665 1.390 . S
C661 C655 1.465 . S
C661 C660 1.396 . S
C661 C662 1.399 . S
C662 H648 0.929 . S
C662 C661 1.399 . S
C662 C663 1.385 . S
C663 H649 0.931 . S
C663 C662 1.385 . S
C663 C664 1.389 . S
C664 C663 1.389 . S
C664 C665 1.387 . S
C665 H650 0.930 . S
C665 C660 1.390 . S
C665 C664 1.387 . S
H666 C678 0.930 . S
H667 C680 0.930 . S
H668 C681 0.930 . S
H669 C685 0.959 . S
H670 C685 0.959 . S
H671 C685 0.961 . S
H672 C686 0.960 . S
H673 C686 0.961 . S
H674 C686 0.959 . S
H675 C689 0.929 . S
H676 C690 0.931 . S
H677 C692 0.930 . S
C678 H666 0.930 . S
C678 C679 1.399 . S
C678 C683 1.399 . S
C679 C678 1.399 . S
C679 C680 1.376 . S
C680 H667 0.930 . S
C680 C679 1.376 . S
C680 C681 1.388 . S
C681 H668 0.930 . S
C681 C680 1.388 . S
C681 C682 1.390 . S
C682 C681 1.390 . S
C682 C683 1.394 . S
C682 C688 1.465 . S
C683 C678 1.399 . S
C683 C682 1.394 . S
C683 C684 1.516 . S
C684 C683 1.516 . S
C684 C685 1.502 . S
C684 C686 1.561 . S
C684 C687 1.526 . S
C685 H669 0.959 . S
C685 H670 0.959 . S
C685 H671 0.961 . S
C685 C684 1.502 . S
C686 H672 0.960 . S
C686 H673 0.961 . S
C686 H674 0.959 . S
C686 C684 1.561 . S
C687 C684 1.526 . S
C687 C688 1.396 . S
C687 C692 1.390 . S
C688 C682 1.465 . S
C688 C687 1.396 . S
C688 C689 1.399 . S
C689 H675 0.929 . S
C689 C688 1.399 . S
C689 C690 1.385 . S
C690 H676 0.931 . S
C690 C689 1.385 . S
C690 C691 1.389 . S
C691 C690 1.389 . S
C691 C692 1.387 . S
C692 H677 0.930 . S
C692 C687 1.390 . S
C692 C691 1.387 . S
H693 C705 0.930 . S
H694 C707 0.930 . S
H695 C708 0.930 . S
H696 C712 0.959 . S
H697 C712 0.959 . S
H698 C712 0.961 . S
H699 C713 0.960 . S
H700 C713 0.961 . S
H701 C713 0.959 . S
H702 C716 0.929 . S
H703 C717 0.931 . S
H704 C719 0.930 . S
C705 H693 0.930 . S
C705 C706 1.399 . S
C705 C710 1.399 . S
C706 C705 1.399 . S
C706 C707 1.376 . S
C707 H694 0.930 . S
C707 C706 1.376 . S
C707 C708 1.388 . S
C708 H695 0.930 . S
C708 C707 1.388 . S
C708 C709 1.390 . S
C709 C708 1.390 . S
C709 C710 1.394 . S
C709 C715 1.465 . S
C710 C705 1.399 . S
C710 C709 1.394 . S
C710 C711 1.516 . S
C711 C710 1.516 . S
C711 C712 1.502 . S
C711 C713 1.561 . S
C711 C714 1.526 . S
C712 H696 0.959 . S
C712 H697 0.959 . S
C712 H698 0.961 . S
C712 C711 1.502 . S
C713 H699 0.960 . S
C713 H700 0.961 . S
C713 H701 0.959 . S
C713 C711 1.561 . S
C714 C711 1.526 . S
C714 C715 1.396 . S
C714 C719 1.390 . S
C715 C709 1.465 . S
C715 C714 1.396 . S
C715 C716 1.399 . S
C716 H702 0.929 . S
C716 C715 1.399 . S
C716 C717 1.385 . S
C717 H703 0.931 . S
C717 C716 1.385 . S
C717 C718 1.389 . S
C718 C717 1.389 . S
C718 C719 1.387 . S
C719 H704 0.930 . S
C719 C714 1.390 . S
C719 C718 1.387 . S
H720 C732 0.930 . S
H721 C734 0.930 . S
H722 C735 0.930 1_556 S
H723 C739 0.959 . S
H724 C739 0.959 . S
H725 C739 0.961 . S
H726 C740 0.960 . S
H727 C740 0.961 . S
H728 C740 0.959 . S
H729 C743 0.929 . S
H730 C744 0.931 . S
H731 C746 0.930 . S
C732 H720 0.930 . S
C732 C733 1.399 . S
C732 C737 1.399 . S
C733 C732 1.399 . S
C733 C734 1.376 . S
C734 H721 0.930 . S
C734 C733 1.376 . S
C734 C735 1.388 . S
C735 H722 0.930 1_554 S
C735 C734 1.388 . S
C735 C736 1.390 . S
C736 C735 1.390 . S
C736 C737 1.394 . S
C736 C742 1.465 1_554 S
C737 C732 1.399 . S
C737 C736 1.394 . S
C737 C738 1.516 . S
C738 C737 1.516 . S
C738 C739 1.502 . S
C738 C740 1.561 1_545 S
C738 C741 1.526 1_554 S
C739 H723 0.959 . S
C739 H724 0.959 . S
C739 H725 0.961 . S
C739 C738 1.502 . S
C740 H726 0.960 . S
C740 H727 0.961 . S
C740 H728 0.959 . S
C740 C738 1.561 1_565 S
C741 C738 1.526 1_556 S
C741 C742 1.396 . S
C741 C746 1.390 1_545 S
C742 C736 1.465 1_556 S
C742 C741 1.396 . S
C742 C743 1.399 . S
C743 H729 0.929 . S
C743 C742 1.399 . S
C743 C744 1.385 . S
C744 H730 0.931 . S
C744 C743 1.385 . S
C744 C745 1.389 1_545 S
C745 C744 1.389 1_565 S
C745 C746 1.387 . S
C746 H731 0.930 . S
C746 C741 1.390 1_565 S
C746 C745 1.387 . S
H747 C759 0.930 . S
H748 C761 0.930 . S
H749 C762 0.930 . S
H750 C766 0.959 1_556 S
H751 C766 0.959 . S
H752 C766 0.961 . S
H753 C767 0.960 . S
H754 C767 0.961 1_455 S
H755 C767 0.959 1_455 S
H756 C770 0.929 . S
H757 C771 0.931 1_455 S
H758 C773 0.930 . S
C759 H747 0.930 . S
C759 C760 1.399 . S
C759 C764 1.399 . S
C760 C759 1.399 . S
C760 C761 1.376 . S
C761 H748 0.930 . S
C761 C760 1.376 . S
C761 C762 1.388 . S
C762 H749 0.930 . S
C762 C761 1.388 . S
C762 C763 1.390 . S
C763 C762 1.390 . S
C763 C764 1.394 . S
C763 C769 1.465 1_554 S
C764 C759 1.399 . S
C764 C763 1.394 . S
C764 C765 1.516 . S
C765 C764 1.516 . S
C765 C766 1.502 . S
C765 C767 1.561 . S
C765 C768 1.526 1_554 S
C766 H750 0.959 1_554 S
C766 H751 0.959 . S
C766 H752 0.961 . S
C766 C765 1.502 . S
C767 H753 0.960 . S
C767 H754 0.961 1_655 S
C767 H755 0.959 1_655 S
C767 C765 1.561 . S
C768 C765 1.526 1_556 S
C768 C769 1.396 . S
C768 C773 1.390 1_655 S
C769 C763 1.465 1_556 S
C769 C768 1.396 . S
C769 C770 1.399 . S
C770 H756 0.929 . S
C770 C769 1.399 . S
C770 C771 1.385 . S
C771 H757 0.931 1_655 S
C771 C770 1.385 . S
C771 C772 1.389 1_655 S
C772 C771 1.389 1_455 S
C772 C773 1.387 . S
C773 H758 0.930 . S
C773 C768 1.390 1_455 S
C773 C772 1.387 . S
H774 C786 0.930 . S
H775 C788 0.930 . S
H776 C789 0.930 . S
H777 C793 0.959 . S
H778 C793 0.959 . S
H779 C793 0.961 1_554 S
H780 C794 0.960 . S
H781 C794 0.961 . S
H782 C794 0.959 . S
H783 C797 0.929 . S
H784 C798 0.931 . S
H785 C800 0.930 . S
C786 H774 0.930 . S
C786 C787 1.399 . S
C786 C791 1.399 . S
C787 C786 1.399 . S
C787 C788 1.376 . S
C788 H775 0.930 . S
C788 C787 1.376 . S
C788 C789 1.388 . S
C789 H776 0.930 . S
C789 C788 1.388 . S
C789 C790 1.390 . S
C790 C789 1.390 . S
C790 C791 1.394 . S
C790 C796 1.465 1_554 S
C791 C786 1.399 . S
C791 C790 1.394 . S
C791 C792 1.516 . S
C792 C791 1.516 . S
C792 C793 1.502 1_554 S
C792 C794 1.561 . S
C792 C795 1.526 1_554 S
C793 H777 0.959 . S
C793 H778 0.959 . S
C793 H779 0.961 1_556 S
C793 C792 1.502 1_556 S
C794 H780 0.960 . S
C794 H781 0.961 . S
C794 H782 0.959 . S
C794 C792 1.561 . S
C795 C792 1.526 1_556 S
C795 C796 1.396 . S
C795 C800 1.390 . S
C796 C790 1.465 1_556 S
C796 C795 1.396 . S
C796 C797 1.399 . S
C797 H783 0.929 . S
C797 C796 1.399 . S
C797 C798 1.385 . S
C798 H784 0.931 . S
C798 C797 1.385 . S
C798 C799 1.389 . S
C799 C798 1.389 . S
C799 C800 1.387 . S
C800 H785 0.930 . S
C800 C795 1.390 . S
C800 C799 1.387 . S
H801 C813 0.930 . S
H802 C815 0.930 . S
H803 C816 0.930 . S
H804 C820 0.959 . S
H805 C820 0.959 . S
H806 C820 0.961 . S
H807 C821 0.960 . S
H808 C821 0.961 . S
H809 C821 0.959 . S
H810 C824 0.929 . S
H811 C825 0.931 . S
H812 C827 0.930 . S
C813 H801 0.930 . S
C813 C814 1.399 1_455 S
C813 C818 1.399 . S
C814 C813 1.399 1_655 S
C814 C815 1.376 . S
C815 H802 0.930 . S
C815 C814 1.376 . S
C815 C816 1.388 1_655 S
C816 H803 0.930 . S
C816 C815 1.388 1_455 S
C816 C817 1.390 . S
C817 C816 1.390 . S
C817 C818 1.394 . S
C817 C823 1.465 . S
C818 C813 1.399 . S
C818 C817 1.394 . S
C818 C819 1.516 . S
C819 C818 1.516 . S
C819 C820 1.502 . S
C819 C821 1.561 . S
C819 C822 1.526 . S
C820 H804 0.959 . S
C820 H805 0.959 . S
C820 H806 0.961 . S
C820 C819 1.502 . S
C821 H807 0.960 . S
C821 H808 0.961 . S
C821 H809 0.959 . S
C821 C819 1.561 . S
C822 C819 1.526 . S
C822 C823 1.396 . S
C822 C827 1.390 . S
C823 C817 1.465 . S
C823 C822 1.396 . S
C823 C824 1.399 . S
C824 H810 0.929 . S
C824 C823 1.399 . S
C824 C825 1.385 . S
C825 H811 0.931 . S
C825 C824 1.385 . S
C825 C826 1.389 . S
C826 C825 1.389 . S
C826 C827 1.387 . S
C827 H812 0.930 . S
C827 C822 1.390 . S
C827 C826 1.387 . S
H828 C840 0.930 . S
H829 C842 0.930 . S
H830 C843 0.930 . S
H831 C847 0.959 . S
H832 C847 0.959 . S
H833 C847 0.961 . S
H834 C848 0.960 . S
H835 C848 0.961 . S
H836 C848 0.959 . S
H837 C851 0.929 . S
H838 C852 0.931 . S
H839 C854 0.930 . S
C840 H828 0.930 . S
C840 C841 1.399 . S
C840 C845 1.399 . S
C841 C840 1.399 . S
C841 C842 1.376 . S
C842 H829 0.930 . S
C842 C841 1.376 . S
C842 C843 1.388 . S
C843 H830 0.930 . S
C843 C842 1.388 . S
C843 C844 1.390 . S
C844 C843 1.390 . S
C844 C845 1.394 . S
C844 C850 1.465 . S
C845 C840 1.399 . S
C845 C844 1.394 . S
C845 C846 1.516 . S
C846 C845 1.516 . S
C846 C847 1.502 . S
C846 C848 1.561 . S
C846 C849 1.526 . S
C847 H831 0.959 . S
C847 H832 0.959 . S
C847 H833 0.961 . S
C847 C846 1.502 . S
C848 H834 0.960 . S
C848 H835 0.961 . S
C848 H836 0.959 . S
C848 C846 1.561 . S
C849 C846 1.526 . S
C849 C850 1.396 . S
C849 C854 1.390 . S
C850 C844 1.465 . S
C850 C849 1.396 . S
C850 C851 1.399 . S
C851 H837 0.929 . S
C851 C850 1.399 . S
C851 C852 1.385 . S
C852 H838 0.931 . S
C852 C851 1.385 . S
C852 C853 1.389 . S
C853 C852 1.389 . S
C853 C854 1.387 . S
C854 H839 0.930 . S
C854 C849 1.390 . S
C854 C853 1.387 . S
H855 C867 0.930 . S
H856 C869 0.930 . S
H857 C870 0.930 . S
H858 C874 0.959 . S
H859 C874 0.959 . S
H860 C874 0.961 1_545 S
H861 C875 0.960 . S
H862 C875 0.961 . S
H863 C875 0.968 . S
H864 C878 0.929 . S
H865 C879 0.931 . S
H866 C881 0.930 . S
C867 H855 0.930 . S
C867 C868 1.399 . S
C867 C872 1.399 1_545 S
C868 C867 1.399 . S
C868 C869 1.376 1_545 S
C869 H856 0.930 . S
C869 C868 1.376 1_565 S
C869 C870 1.388 . S
C870 H857 0.930 . S
C870 C869 1.388 . S
C870 C871 1.390 . S
C871 C870 1.390 . S
C871 C872 1.394 . S
C871 C877 1.465 . S
C872 C867 1.399 1_565 S
C872 C871 1.394 . S
C872 C873 1.516 . S
C873 C872 1.516 . S
C873 C874 1.502 . S
C873 C875 1.561 1_565 S
C873 C876 1.526 . S
C874 H858 0.959 . S
C874 H859 0.959 . S
C874 H860 0.961 1_565 S
C874 C873 1.502 . S
C875 H861 0.960 . S
C875 H862 0.961 . S
C875 H863 0.968 . S
C875 C873 1.561 1_545 S
C876 C873 1.526 . S
C876 C877 1.396 . S
C876 C881 1.390 . S
C877 C871 1.465 . S
C877 C876 1.396 . S
C877 C878 1.399 . S
C878 H864 0.929 . S
C878 C877 1.399 . S
C878 C879 1.385 . S
C879 H865 0.931 . S
C879 C878 1.385 . S
C879 C880 1.389 . S
C880 C879 1.389 . S
C880 C881 1.387 . S
C881 H866 0.930 . S
C881 C876 1.390 . S
C881 C880 1.387 . S
H882 C894 0.930 . S
H883 C896 0.930 . S
H884 C897 0.930 . S
H885 C901 0.959 . S
H886 C901 0.959 . S
H887 C901 0.961 1_545 S
H888 C902 0.960 . S
H889 C902 0.961 . S
H890 C902 0.959 . S
H891 C905 0.929 1_554 S
H892 C906 0.931 . S
H893 C908 0.930 . S
C894 H882 0.930 . S
C894 C895 1.399 . S
C894 C899 1.399 1_545 S
C895 C894 1.399 . S
C895 C896 1.376 1_545 S
C896 H883 0.930 . S
C896 C895 1.376 1_565 S
C896 C897 1.388 . S
C897 H884 0.930 . S
C897 C896 1.388 . S
C897 C898 1.390 . S
C898 C897 1.390 . S
C898 C899 1.394 . S
C898 C904 1.465 1_554 S
C899 C894 1.399 1_565 S
C899 C898 1.394 . S
C899 C900 1.516 1_554 S
C900 C899 1.516 1_556 S
C900 C901 1.502 . S
C900 C902 1.561 1_565 S
C900 C903 1.526 . S
C901 H885 0.959 . S
C901 H886 0.959 . S
C901 H887 0.961 1_565 S
C901 C900 1.502 . S
C902 H888 0.960 . S
C902 H889 0.961 . S
C902 H890 0.959 . S
C902 C900 1.561 1_545 S
C903 C900 1.526 . S
C903 C904 1.396 . S
C903 C908 1.390 . S
C904 C898 1.465 1_556 S
C904 C903 1.396 . S
C904 C905 1.399 . S
C905 H891 0.929 1_556 S
C905 C904 1.399 . S
C905 C906 1.385 . S
C906 H892 0.931 . S
C906 C905 1.385 . S
C906 C907 1.389 . S
C907 C906 1.389 . S
C907 C908 1.387 . S
C908 H893 0.930 . S
C908 C903 1.390 . S
C908 C907 1.387 . S
H909 C921 0.930 . S
H910 C923 0.930 . S
H911 C924 0.946 . S
H912 C928 0.959 1_556 S
H913 C928 0.959 1_556 S
H914 C928 0.961 . S
H915 C929 0.960 . S
H916 C929 0.961 . S
H917 C929 0.959 . S
H918 C932 0.929 . S
H919 C933 0.931 . S
H920 C935 0.930 . S
C921 H909 0.930 . S
C921 C922 1.399 1_455 S
C921 C926 1.399 . S
C922 C921 1.399 1_655 S
C922 C923 1.376 . S
C923 H910 0.930 . S
C923 C922 1.376 . S
C923 C924 1.388 1_655 S
C924 H911 0.946 . S
C924 C923 1.388 1_455 S
C924 C925 1.390 . S
C925 C924 1.390 . S
C925 C926 1.394 . S
C925 C931 1.465 1_554 S
C926 C921 1.399 . S
C926 C925 1.394 . S
C926 C927 1.516 . S
C927 C926 1.516 . S
C927 C928 1.502 . S
C927 C929 1.561 . S
C927 C930 1.526 1_554 S
C928 H912 0.959 1_554 S
C928 H913 0.959 1_554 S
C928 H914 0.961 . S
C928 C927 1.502 . S
C929 H915 0.960 . S
C929 H916 0.961 . S
C929 H917 0.959 . S
C929 C927 1.561 . S
C930 C927 1.526 1_556 S
C930 C931 1.396 . S
C930 C935 1.390 . S
C931 C925 1.465 1_556 S
C931 C930 1.396 . S
C931 C932 1.399 . S
C932 H918 0.929 . S
C932 C931 1.399 . S
C932 C933 1.385 . S
C933 H919 0.931 . S
C933 C932 1.385 . S
C933 C934 1.389 . S
C934 C933 1.389 . S
C934 C935 1.387 . S
C935 H920 0.930 . S
C935 C930 1.390 . S
C935 C934 1.387 . S
H936 C948 0.930 . S
H937 C950 0.930 . S
H938 C951 0.930 1_554 S
H939 C955 0.959 . S
H940 C955 0.959 . S
H941 C955 0.961 . S
H942 C956 0.960 . S
H943 C956 0.961 . S
H944 C956 0.959 . S
H945 C959 0.929 . S
H946 C960 0.931 . S
H947 C962 0.930 . S
C948 H936 0.930 . S
C948 C949 1.399 . S
C948 C953 1.399 . S
C949 C948 1.399 . S
C949 C950 1.376 . S
C950 H937 0.930 . S
C950 C949 1.376 . S
C950 C951 1.388 . S
C951 H938 0.930 1_556 S
C951 C950 1.388 . S
C951 C952 1.390 . S
C952 C951 1.390 . S
C952 C953 1.394 . S
C952 C958 1.465 1_556 S
C953 C948 1.399 . S
C953 C952 1.394 . S
C953 C954 1.516 . S
C954 C953 1.516 . S
C954 C955 1.502 . S
C954 C956 1.561 . S
C954 C957 1.526 1_556 S
C955 H939 0.959 . S
C955 H940 0.959 . S
C955 H941 0.961 . S
C955 C954 1.502 . S
C956 H942 0.960 . S
C956 H943 0.961 . S
C956 H944 0.959 . S
C956 C954 1.561 . S
C957 C954 1.526 1_554 S
C957 C958 1.396 . S
C957 C962 1.390 . S
C958 C952 1.465 1_554 S
C958 C957 1.396 . S
C958 C959 1.399 . S
C959 H945 0.929 . S
C959 C958 1.399 . S
C959 C960 1.385 . S
C960 H946 0.931 . S
C960 C959 1.385 . S
C960 C961 1.389 . S
C961 C960 1.389 . S
C961 C962 1.387 . S
C962 H947 0.930 . S
C962 C957 1.390 . S
C962 C961 1.387 . S
H963 C975 0.930 . S
H964 C977 0.930 . S
H965 C978 0.930 . S
H966 C982 0.959 . S
H967 C982 0.959 1_655 S
H968 C982 0.961 . S
H969 C983 0.960 . S
H970 C983 0.961 . S
H971 C983 0.959 . S
H972 C986 0.929 . S
H973 C987 0.931 . S
H974 C989 0.930 . S
C975 H963 0.930 . S
C975 C976 1.399 . S
C975 C980 1.399 1_455 S
C976 C975 1.399 . S
C976 C977 1.376 1_455 S
C977 H964 0.930 . S
C977 C976 1.376 1_655 S
C977 C978 1.388 . S
C978 H965 0.930 . S
C978 C977 1.388 . S
C978 C979 1.390 . S
C979 C978 1.390 . S
C979 C980 1.394 . S
C979 C985 1.465 . S
C980 C975 1.399 1_655 S
C980 C979 1.394 . S
C980 C981 1.516 . S
C981 C980 1.516 . S
C981 C982 1.502 1_655 S
C981 C983 1.561 . S
C981 C984 1.526 . S
C982 H966 0.959 . S
C982 H967 0.959 1_455 S
C982 H968 0.961 . S
C982 C981 1.502 1_455 S
C983 H969 0.960 . S
C983 H970 0.961 . S
C983 H971 0.959 . S
C983 C981 1.561 . S
C984 C981 1.526 . S
C984 C985 1.396 . S
C984 C989 1.390 . S
C985 C979 1.465 . S
C985 C984 1.396 . S
C985 C986 1.399 . S
C986 H972 0.929 . S
C986 C985 1.399 . S
C986 C987 1.385 . S
C987 H973 0.931 . S
C987 C986 1.385 . S
C987 C988 1.389 . S
C988 C987 1.389 . S
C988 C989 1.387 . S
C989 H974 0.930 . S
C989 C984 1.390 . S
C989 C988 1.387 . S
H990 C1002 0.930 . S
H991 C1004 0.930 . S
H992 C1005 0.930 . S
H993 C1009 0.959 . S
H994 C1009 0.959 . S
H995 C1009 0.961 . S
H996 C1010 0.960 . S
H997 C1010 0.961 . S
H998 C1010 0.959 . S
H999 C1013 0.929 . S
H1000 C1014 0.931 . S
H1001 C1016 0.930 . S
C1002 H990 0.930 . S
C1002 C1003 1.399 . S
C1002 C1007 1.399 . S
C1003 C1002 1.399 . S
C1003 C1004 1.376 . S
C1004 H991 0.930 . S
C1004 C1003 1.376 . S
C1004 C1005 1.388 . S
C1005 H992 0.930 . S
C1005 C1004 1.388 . S
C1005 C1006 1.390 . S
C1006 C1005 1.390 . S
C1006 C1007 1.394 . S
C1006 C1012 1.465 . S
C1007 C1002 1.399 . S
C1007 C1006 1.394 . S
C1007 C1008 1.516 . S
C1008 C1007 1.516 . S
C1008 C1009 1.502 . S
C1008 C1010 1.561 . S
C1008 C1011 1.526 . S
C1009 H993 0.959 . S
C1009 H994 0.959 . S
C1009 H995 0.961 . S
C1009 C1008 1.502 . S
C1010 H996 0.960 . S
C1010 H997 0.961 . S
C1010 H998 0.959 . S
C1010 C1008 1.561 . S
C1011 C1008 1.526 . S
C1011 C1012 1.396 . S
C1011 C1016 1.390 . S
C1012 C1006 1.465 . S
C1012 C1011 1.396 . S
C1012 C1013 1.399 . S
C1013 H999 0.929 . S
C1013 C1012 1.399 . S
C1013 C1014 1.385 . S
C1014 H1000 0.931 . S
C1014 C1013 1.385 . S
C1014 C1015 1.389 . S
C1015 C1014 1.389 . S
C1015 C1016 1.387 . S
C1016 H1001 0.930 . S
C1016 C1011 1.390 . S
C1016 C1015 1.387 . S
H1017 C1029 0.930 . S
H1018 C1031 0.930 . S
H1019 C1032 0.930 . S
H1020 C1036 0.959 . S
H1021 C1036 0.959 . S
H1022 C1036 0.961 . S
H1023 C1037 0.960 . S
H1024 C1037 0.961 . S
H1025 C1037 0.959 . S
H1026 C1040 0.929 . S
H1027 C1041 0.931 . S
H1028 C1043 0.930 . S
C1029 H1017 0.930 . S
C1029 C1030 1.399 . S
C1029 C1034 1.399 . S
C1030 C1029 1.399 . S
C1030 C1031 1.376 . S
C1031 H1018 0.930 . S
C1031 C1030 1.376 . S
C1031 C1032 1.388 . S
C1032 H1019 0.930 . S
C1032 C1031 1.388 . S
C1032 C1033 1.390 . S
C1033 C1032 1.390 . S
C1033 C1034 1.394 . S
C1033 C1039 1.465 . S
C1034 C1029 1.399 . S
C1034 C1033 1.394 . S
C1034 C1035 1.516 . S
C1035 C1034 1.516 . S
C1035 C1036 1.502 . S
C1035 C1037 1.561 . S
C1035 C1038 1.526 . S
C1036 H1020 0.959 . S
C1036 H1021 0.959 . S
C1036 H1022 0.961 . S
C1036 C1035 1.502 . S
C1037 H1023 0.960 . S
C1037 H1024 0.961 . S
C1037 H1025 0.959 . S
C1037 C1035 1.561 . S
C1038 C1035 1.526 . S
C1038 C1039 1.396 . S
C1038 C1043 1.390 . S
C1039 C1033 1.465 . S
C1039 C1038 1.396 . S
C1039 C1040 1.399 1_545 S
C1040 H1026 0.929 . S
C1040 C1039 1.399 1_565 S
C1040 C1041 1.385 . S
C1041 H1027 0.931 . S
C1041 C1040 1.385 . S
C1041 C1042 1.389 . S
C1042 C1041 1.389 . S
C1042 C1043 1.387 1_565 S
C1043 H1028 0.930 . S
C1043 C1038 1.390 . S
C1043 C1042 1.387 1_545 S
H1044 C1056 0.930 . S
H1045 C1058 0.930 . S
H1046 C1059 0.930 . S
H1047 C1063 0.959 . S
H1048 C1063 0.959 . S
H1049 C1063 0.961 . S
H1050 C1064 0.960 . S
H1051 C1064 0.961 . S
H1052 C1064 0.959 . S
H1053 C1067 0.929 . S
H1054 C1068 0.931 . S
H1055 C1070 0.930 . S
C1056 H1044 0.930 . S
C1056 C1057 1.399 . S
C1056 C1061 1.399 . S
C1057 C1056 1.399 . S
C1057 C1058 1.376 . S
C1058 H1045 0.930 . S
C1058 C1057 1.376 . S
C1058 C1059 1.388 . S
C1059 H1046 0.930 . S
C1059 C1058 1.388 . S
C1059 C1060 1.390 . S
C1060 C1059 1.390 . S
C1060 C1061 1.394 . S
C1060 C1066 1.465 . S
C1061 C1056 1.399 . S
C1061 C1060 1.394 . S
C1061 C1062 1.516 . S
C1062 C1061 1.516 . S
C1062 C1063 1.502 . S
C1062 C1064 1.561 . S
C1062 C1065 1.526 . S
C1063 H1047 0.959 . S
C1063 H1048 0.959 . S
C1063 H1049 0.961 . S
C1063 C1062 1.502 . S
C1064 H1050 0.960 . S
C1064 H1051 0.961 . S
C1064 H1052 0.959 . S
C1064 C1062 1.561 . S
C1065 C1062 1.526 . S
C1065 C1066 1.396 . S
C1065 C1070 1.390 . S
C1066 C1060 1.465 . S
C1066 C1065 1.396 . S
C1066 C1067 1.399 . S
C1067 H1053 0.929 . S
C1067 C1066 1.399 . S
C1067 C1068 1.385 . S
C1068 H1054 0.931 . S
C1068 C1067 1.385 . S
C1068 C1069 1.389 . S
C1069 C1068 1.389 . S
C1069 C1070 1.387 . S
C1070 H1055 0.930 . S
C1070 C1065 1.390 . S
C1070 C1069 1.387 . S
H1071 C1083 0.930 . S
H1072 C1085 0.930 . S
H1073 C1086 0.930 1_565 S
H1074 C1090 0.959 . S
H1075 C1090 0.959 . S
H1076 C1090 0.961 . S
H1077 C1091 0.960 . S
H1078 C1091 0.961 . S
H1079 C1091 0.959 . S
H1080 C1094 0.929 . S
H1081 C1095 0.931 . S
H1082 C1097 0.930 . S
C1083 H1071 0.930 . S
C1083 C1084 1.399 . S
C1083 C1088 1.399 . S
C1084 C1083 1.399 . S
C1084 C1085 1.376 . S
C1085 H1072 0.930 . S
C1085 C1084 1.376 . S
C1085 C1086 1.388 . S
C1086 H1073 0.930 1_545 S
C1086 C1085 1.388 . S
C1086 C1087 1.390 . S
C1087 C1086 1.390 . S
C1087 C1088 1.394 . S
C1087 C1093 1.465 1_545 S
C1088 C1083 1.399 . S
C1088 C1087 1.394 . S
C1088 C1089 1.516 . S
C1089 C1088 1.516 . S
C1089 C1090 1.502 . S
C1089 C1091 1.561 . S
C1089 C1092 1.526 1_545 S
C1090 H1074 0.959 . S
C1090 H1075 0.959 . S
C1090 H1076 0.961 . S
C1090 C1089 1.502 . S
C1091 H1077 0.960 . S
C1091 H1078 0.961 . S
C1091 H1079 0.959 . S
C1091 C1089 1.561 . S
C1092 C1089 1.526 1_565 S
C1092 C1093 1.396 . S
C1092 C1097 1.390 . S
C1093 C1087 1.465 1_565 S
C1093 C1092 1.396 . S
C1093 C1094 1.399 . S
C1094 H1080 0.929 . S
C1094 C1093 1.399 . S
C1094 C1095 1.385 . S
C1095 H1081 0.931 . S
C1095 C1094 1.385 . S
C1095 C1096 1.389 . S
C1096 C1095 1.389 . S
C1096 C1097 1.387 . S
C1097 H1082 0.930 . S
C1097 C1092 1.390 . S
C1097 C1096 1.387 . S
H1098 C1110 0.930 . S
H1099 C1112 0.930 . S
H1100 C1113 0.930 . S
H1101 C1117 0.959 . S
H1102 C1117 0.959 . S
H1103 C1117 0.961 . S
H1104 C1118 0.960 . S
H1105 C1118 0.961 . S
H1106 C1118 0.959 . S
H1107 C1121 0.929 . S
H1108 C1122 0.931 . S
H1109 C1124 0.930 . S
C1110 H1098 0.930 . S
C1110 C1111 1.399 . S
C1110 C1115 1.399 . S
C1111 C1110 1.399 . S
C1111 C1112 1.376 . S
C1112 H1099 0.930 . S
C1112 C1111 1.376 . S
C1112 C1113 1.388 1_655 S
C1113 H1100 0.930 . S
C1113 C1112 1.388 1_455 S
C1113 C1114 1.390 1_455 S
C1114 C1113 1.390 1_655 S
C1114 C1115 1.394 . S
C1114 C1120 1.465 1_655 S
C1115 C1110 1.399 . S
C1115 C1114 1.394 . S
C1115 C1116 1.516 . S
C1116 C1115 1.516 . S
C1116 C1117 1.502 . S
C1116 C1118 1.561 . S
C1116 C1119 1.526 1_655 S
C1117 H1101 0.959 . S
C1117 H1102 0.959 . S
C1117 H1103 0.961 . S
C1117 C1116 1.502 . S
C1118 H1104 0.960 . S
C1118 H1105 0.961 . S
C1118 H1106 0.959 . S
C1118 C1116 1.561 . S
C1119 C1116 1.526 1_455 S
C1119 C1120 1.396 . S
C1119 C1124 1.390 . S
C1120 C1114 1.465 1_455 S
C1120 C1119 1.396 . S
C1120 C1121 1.399 . S
C1121 H1107 0.929 . S
C1121 C1120 1.399 . S
C1121 C1122 1.385 . S
C1122 H1108 0.931 . S
C1122 C1121 1.385 . S
C1122 C1123 1.389 . S
C1123 C1122 1.389 . S
C1123 C1124 1.387 . S
C1124 H1109 0.930 . S
C1124 C1119 1.390 . S
C1124 C1123 1.387 . S
H1125 C1137 0.930 . S
H1126 C1139 0.930 . S
H1127 C1140 0.930 . S
H1128 C1144 0.959 . S
H1129 C1144 0.959 . S
H1130 C1144 0.961 . S
H1131 C1145 0.960 . S
H1132 C1145 0.961 . S
H1133 C1145 0.959 . S
H1134 C1148 0.929 . S
H1135 C1149 0.931 . S
H1136 C1151 0.930 . S
C1137 H1125 0.930 . S
C1137 C1138 1.399 . S
C1137 C1142 1.399 . S
C1138 C1137 1.399 . S
C1138 C1139 1.376 . S
C1139 H1126 0.930 . S
C1139 C1138 1.376 . S
C1139 C1140 1.388 . S
C1140 H1127 0.930 . S
C1140 C1139 1.388 . S
C1140 C1141 1.390 . S
C1141 C1140 1.390 . S
C1141 C1142 1.394 . S
C1141 C1147 1.465 . S
C1142 C1137 1.399 . S
C1142 C1141 1.394 . S
C1142 C1143 1.516 . S
C1143 C1142 1.516 . S
C1143 C1144 1.502 . S
C1143 C1145 1.561 . S
C1143 C1146 1.526 . S
C1144 H1128 0.959 . S
C1144 H1129 0.959 . S
C1144 H1130 0.961 . S
C1144 C1143 1.502 . S
C1145 H1131 0.960 . S
C1145 H1132 0.961 . S
C1145 H1133 0.959 . S
C1145 C1143 1.561 . S
C1146 C1143 1.526 . S
C1146 C1147 1.396 . S
C1146 C1151 1.390 . S
C1147 C1141 1.465 . S
C1147 C1146 1.396 . S
C1147 C1148 1.399 . S
C1148 H1134 0.929 . S
C1148 C1147 1.399 . S
C1148 C1149 1.385 . S
C1149 H1135 0.931 . S
C1149 C1148 1.385 . S
C1149 C1150 1.389 . S
C1150 C1149 1.389 . S
C1150 C1151 1.387 . S
C1151 H1136 0.930 . S
C1151 C1146 1.390 . S
C1151 C1150 1.387 . S
H1152 C1164 0.930 . S
H1153 C1166 0.930 . S
H1154 C1167 0.951 . S
H1155 C1171 0.959 . S
H1156 C1171 0.959 . S
H1157 C1171 0.961 . S
H1158 C1172 0.960 . S
H1159 C1172 0.961 . S
H1160 C1172 0.959 . S
H1161 C1175 0.929 . S
H1162 C1176 0.931 . S
H1163 C1178 0.930 . S
C1164 H1152 0.930 . S
C1164 C1165 1.399 . S
C1164 C1169 1.399 . S
C1165 C1164 1.399 . S
C1165 C1166 1.376 . S
C1166 H1153 0.930 . S
C1166 C1165 1.376 . S
C1166 C1167 1.371 1_565 S
C1167 H1154 0.951 . S
C1167 C1166 1.371 1_545 S
C1167 C1168 1.386 1_545 S
C1168 C1167 1.386 1_565 S
C1168 C1169 1.394 . S
C1168 C1174 1.465 1_565 S
C1169 C1164 1.399 . S
C1169 C1168 1.394 . S
C1169 C1170 1.516 . S
C1170 C1169 1.516 . S
C1170 C1171 1.502 . S
C1170 C1172 1.561 . S
C1170 C1173 1.526 1_565 S
C1171 H1155 0.959 . S
C1171 H1156 0.959 . S
C1171 H1157 0.961 . S
C1171 C1170 1.502 . S
C1172 H1158 0.960 . S
C1172 H1159 0.961 . S
C1172 H1160 0.959 . S
C1172 C1170 1.561 . S
C1173 C1170 1.526 1_545 S
C1173 C1174 1.396 . S
C1173 C1178 1.390 . S
C1174 C1168 1.465 1_545 S
C1174 C1173 1.396 . S
C1174 C1175 1.399 . S
C1175 H1161 0.929 . S
C1175 C1174 1.399 . S
C1175 C1176 1.385 . S
C1176 H1162 0.931 . S
C1176 C1175 1.385 . S
C1176 C1177 1.389 . S
C1177 C1176 1.389 . S
C1177 C1178 1.387 . S
C1178 H1163 0.930 . S
C1178 C1173 1.390 . S
C1178 C1177 1.387 . S
H1179 C1191 0.930 . S
H1180 C1193 0.930 . S
H1181 C1194 0.930 . S
H1182 C1198 0.959 . S
H1183 C1198 0.959 . S
H1184 C1198 0.961 . S
H1185 C1199 0.960 . S
H1186 C1199 0.961 . S
H1187 C1199 0.959 . S
H1188 C1202 0.929 . S
H1189 C1203 0.931 . S
H1190 C1205 0.930 . S
C1191 H1179 0.930 . S
C1191 C1192 1.399 . S
C1191 C1196 1.399 . S
C1192 C1191 1.399 . S
C1192 C1193 1.376 . S
C1193 H1180 0.930 . S
C1193 C1192 1.376 . S
C1193 C1194 1.388 . S
C1194 H1181 0.930 . S
C1194 C1193 1.388 . S
C1194 C1195 1.390 . S
C1195 C1194 1.390 . S
C1195 C1196 1.394 . S
C1195 C1201 1.465 1_455 S
C1196 C1191 1.399 . S
C1196 C1195 1.394 . S
C1196 C1197 1.516 1_455 S
C1197 C1196 1.516 1_655 S
C1197 C1198 1.502 . S
C1197 C1199 1.561 1_655 S
C1197 C1200 1.526 . S
C1198 H1182 0.959 . S
C1198 H1183 0.959 . S
C1198 H1184 0.961 . S
C1198 C1197 1.502 . S
C1199 H1185 0.960 . S
C1199 H1186 0.961 . S
C1199 H1187 0.959 . S
C1199 C1197 1.561 1_455 S
C1200 C1197 1.526 . S
C1200 C1201 1.396 . S
C1200 C1205 1.390 . S
C1201 C1195 1.465 1_655 S
C1201 C1200 1.396 . S
C1201 C1202 1.399 . S
C1202 H1188 0.929 . S
C1202 C1201 1.399 . S
C1202 C1203 1.385 . S
C1203 H1189 0.931 . S
C1203 C1202 1.385 . S
C1203 C1204 1.389 . S
C1204 C1203 1.389 . S
C1204 C1205 1.387 . S
C1205 H1190 0.930 . S
C1205 C1200 1.390 . S
C1205 C1204 1.387 . S
C409 C40 1.581 . S
C421 N2 1.388 . S
C436 N35 1.488 . S
C448 C73 1.507 . S
C463 N68 1.387 . S
C475 C7 1.578 . S
C490 N101 1.411 . S
C502 C172 1.573 . S
C517 N134 1.498 . S
C529 C106 1.502 . S
C544 C139 1.508 . S
C556 N167 1.483 . S
C571 C238 1.564 . S
C583 N200 1.399 . S
C598 C271 1.566 . S
C610 N233 1.397 . S
C625 C205 1.522 . S
C637 N266 1.492 . S
C652 N299 1.402 . S
C664 C370 1.560 . S
C679 C304 1.579 . S
C691 N332 1.388 . S
C706 N365 1.420 . S
C718 C337 1.546 . S
C733 C18 1.337 . S
C745 N244 1.338 . S
C760 C51 1.344 . S
C772 N277 1.341 . S
C787 C84 1.347 . S
C799 N211 1.338 . S
C814 N376 1.342 . S
C826 C117 1.342 . S
C841 C150 1.313 . S
C853 N310 1.285 . S
C868 N343 1.283 . S
C880 C183 1.313 . S
C895 N46 1.339 . S
C907 C216 1.327 . S
C922 N79 1.271 . S
C934 C249 1.322 . S
C949 C282 1.312 . S
C961 N13 1.295 . S
C976 N178 1.299 . S
C988 C315 1.313 . S
C1003 C348 1.324 . S
C1015 N112 1.337 . S
C1030 C381 1.346 . S
C1042 N145 1.327 . S
C1057 C120 1.328 . S
C1069 C21 1.383 . S
C1084 C54 1.327 . S
C1096 C153 1.366 . S
C1111 C87 1.326 . S
C1123 C186 1.377 . S
C1138 C318 1.353 . S
C1150 C219 1.327 . S
C1165 C252 1.353 . S
C1177 C351 1.390 . S
C1192 C285 1.391 . S
C1204 C384 1.371 . S
