# Generated by pormake.
# Topology smc, (6)-cn, num edge types: 1
# Building blocks:
#     Node 0, Type 0, BuildingBlock: KUMJIN_clean_sbu_0, # of connection points: 6
#     Node 1, Type 0, BuildingBlock: KUMJIN_clean_sbu_0, # of connection points: 6
#     Node 2, Type 0, BuildingBlock: KUMJIN_clean_sbu_0, # of connection points: 6
#     Node 3, Type 0, BuildingBlock: KUMJIN_clean_sbu_0, # of connection points: 6
#     Node 4, Type 0, BuildingBlock: KUMJIN_clean_sbu_0, # of connection points: 6
#     Node 5, Type 0, BuildingBlock: KUMJIN_clean_sbu_0, # of connection points: 6
#     Node 6, Type 0, BuildingBlock: KUMJIN_clean_sbu_0, # of connection points: 6
#     Node 7, Type 0, BuildingBlock: KUMJIN_clean_sbu_0, # of connection points: 6
#     Node 8, Type 0, BuildingBlock: KUMJIN_clean_sbu_0, # of connection points: 6
#     Edge 9, Type (0, 0), BuildingBlock: TEMPAE_clean_linker_10, # of connection points: 2
#     Edge 10, Type (0, 0), BuildingBlock: TEMPAE_clean_linker_10, # of connection points: 2
#     Edge 11, Type (0, 0), BuildingBlock: TEMPAE_clean_linker_10, # of connection points: 2
#     Edge 12, Type (0, 0), BuildingBlock: TEMPAE_clean_linker_10, # of connection points: 2
#     Edge 13, Type (0, 0), BuildingBlock: TEMPAE_clean_linker_10, # of connection points: 2
#     Edge 14, Type (0, 0), BuildingBlock: TEMPAE_clean_linker_10, # of connection points: 2
#     Edge 15, Type (0, 0), BuildingBlock: TEMPAE_clean_linker_10, # of connection points: 2
#     Edge 16, Type (0, 0), BuildingBlock: TEMPAE_clean_linker_10, # of connection points: 2
#     Edge 17, Type (0, 0), BuildingBlock: TEMPAE_clean_linker_10, # of connection points: 2
#     Edge 18, Type (0, 0), BuildingBlock: TEMPAE_clean_linker_10, # of connection points: 2
#     Edge 19, Type (0, 0), BuildingBlock: TEMPAE_clean_linker_10, # of connection points: 2
#     Edge 20, Type (0, 0), BuildingBlock: TEMPAE_clean_linker_10, # of connection points: 2
#     Edge 21, Type (0, 0), BuildingBlock: TEMPAE_clean_linker_10, # of connection points: 2
#     Edge 22, Type (0, 0), BuildingBlock: TEMPAE_clean_linker_10, # of connection points: 2
#     Edge 23, Type (0, 0), BuildingBlock: TEMPAE_clean_linker_10, # of connection points: 2
#     Edge 24, Type (0, 0), BuildingBlock: TEMPAE_clean_linker_10, # of connection points: 2
#     Edge 25, Type (0, 0), BuildingBlock: TEMPAE_clean_linker_10, # of connection points: 2
#     Edge 26, Type (0, 0), BuildingBlock: TEMPAE_clean_linker_10, # of connection points: 2
#     Edge 27, Type (0, 0), BuildingBlock: TEMPAE_clean_linker_10, # of connection points: 2
#     Edge 28, Type (0, 0), BuildingBlock: TEMPAE_clean_linker_10, # of connection points: 2
#     Edge 29, Type (0, 0), BuildingBlock: TEMPAE_clean_linker_10, # of connection points: 2
#     Edge 30, Type (0, 0), BuildingBlock: TEMPAE_clean_linker_10, # of connection points: 2
#     Edge 31, Type (0, 0), BuildingBlock: TEMPAE_clean_linker_10, # of connection points: 2
#     Edge 32, Type (0, 0), BuildingBlock: TEMPAE_clean_linker_10, # of connection points: 2
#     Edge 33, Type (0, 0), BuildingBlock: TEMPAE_clean_linker_10, # of connection points: 2
#     Edge 34, Type (0, 0), BuildingBlock: TEMPAE_clean_linker_10, # of connection points: 2
#     Edge 35, Type (0, 0), BuildingBlock: TEMPAE_clean_linker_10, # of connection points: 2
# Relax obj value: 0.110
# Max RMSD: 0.287
# Mean RMSD: 0.287
data_MOF--net-smc--node1-KUMJIN_clean_sbu_0--edge1-TEMPAE_clean_linker_10
_symmetry_space_group_name_H-M    P1
_symmetry_Int_Tables_number       1
_symmetry_cell_setting            triclinic
loop_
_symmetry_equiv_pos_as_xyz
'x, y, z'
_cell_length_a     38.369959
_cell_length_b     38.402329
_cell_length_c     41.043459
_cell_angle_alpha  90.050459
_cell_angle_beta   89.917508
_cell_angle_gamma 119.98133
loop_
_atom_site_label
_atom_site_type_symbol
_atom_site_fract_x
_atom_site_fract_y
_atom_site_fract_z
_atom_type_partial_charge
Eu0 Eu 0.06256 0.50769 0.9972 0.0
C1 C 1.01538 0.34828 0.07031 0.0
C2 C 0.05534 0.32489 0.04226 0.0
C3 C 0.03786 0.30781 0.09921 0.0
C4 C 0.03462 0.34663 0.04243 0.0
C5 C 1.01606 0.32824 0.09887 0.0
C6 C 0.05765 0.30631 0.071 0.0
C7 C 0.97109 0.34749 0.12379 0.0
N8 N 0.99455 0.3682 0.0691 0.0
C9 C 0.97133 0.36689 0.09489 0.0
C10 C 0.99401 0.32855 0.12595 0.0
Eu11 Eu 0.99794 0.40241 0.02005 0.0
N12 N 0.03115 0.36433 0.01498 0.0
C13 C 0.04495 0.35854 0.98592 0.0
C14 C 0.072 0.32139 0.01297 0.0
C15 C 0.0662 0.33775 0.98457 0.0
H16 H 0.95393 0.38192 0.09347 0.0
H17 H 0.07807 0.33436 0.9616 0.0
H18 H 0.07371 0.28978 0.0714 0.0
H19 H 0.95343 0.34736 0.14441 0.0
H20 H 0.04074 0.37076 0.96368 0.0
H21 H 0.02992 0.55978 0.11199 0.0
H22 H 0.08829 0.30511 0.01184 0.0
H23 H 0.04777 0.52847 0.91926 0.0
H24 H 0.03854 0.51256 0.07778 0.0
H25 H 0.03562 0.57763 0.89134 0.0
H26 H 0.039 0.29247 0.12098 0.0
H27 H 0.0284 0.61756 0.08708 0.0
H28 H 0.03222 0.65621 0.03684 0.0
H29 H 0.99385 0.31361 0.14838 0.0
H30 H 0.03198 0.65997 0.97712 0.0
N31 N 0.04126 0.54209 0.03309 0.0
C32 C 0.0379 0.53721 0.06616 0.0
C33 C 0.03159 0.59637 0.0717 0.0
C34 C 0.03407 0.60075 0.03783 0.0
C35 C 0.0326 0.56392 0.08584 0.0
C36 C 0.0374 0.57191 0.01881 0.0
H37 H 0.02939 0.6289 0.92305 0.0
N38 N 0.04025 0.54573 0.96718 0.0
C39 C 0.03529 0.57654 0.91769 0.0
C40 C 0.03678 0.57372 0.98501 0.0
C41 C 0.04073 0.5476 0.93383 0.0
C42 C 0.03209 0.60558 0.93566 0.0
C43 C 0.03366 0.60496 0.96965 0.0
O44 O 0.11532 0.54187 0.96645 0.0
O45 O 0.06242 0.45067 0.00832 0.0
O46 O 0.03496 0.43072 0.06468 0.0
O47 O 0.08291 0.496 0.0483 0.0
O48 O 0.09151 0.48111 0.96613 0.0
O49 O 0.11363 0.56591 0.01343 0.0
O50 O 0.93286 0.36602 0.02936 0.0
O51 O 0.99986 0.45989 0.00617 0.0
O52 O 1.02032 0.47277 0.95398 0.0
O53 O 1.00575 0.40765 0.96555 0.0
O54 O 0.96427 0.4298 0.04553 0.0
O55 O 0.95842 0.35404 0.98704 0.0
C56 C 0.08512 0.45172 0.98519 0.0
C57 C 0.14608 0.61343 0.96973 0.0
C58 C 0.1816 0.68779 0.97041 0.0
C59 C 0.16968 0.65058 0.9864 0.0
C60 C 0.16938 0.68707 0.93804 0.0
C61 C 0.13657 0.61469 0.93679 0.0
C62 C 0.14739 0.65096 0.92143 0.0
C63 C 0.0673 0.46587 0.07017 0.0
C64 C 0.13227 0.57329 0.98547 0.0
C65 C 0.03334 0.63525 0.98856 0.0
C66 C 0.03359 0.63317 0.02256 0.0
C67 C 0.97587 0.46046 0.02678 0.0
C68 C 0.89995 0.29872 0.00981 0.0
C69 C 0.85761 0.2812 0.01218 0.0
C70 C 0.83243 0.23897 0.01544 0.0
C71 C 0.85088 0.21508 0.01569 0.0
C72 C 0.91706 0.27394 0.01134 0.0
C73 C 0.89262 0.23245 0.01407 0.0
C74 C 1.00696 0.43472 0.94522 0.0
C75 C 0.92602 0.34253 1.00445 0.0
H76 H 0.17873 0.65056 0.01138 0.0
H77 H 0.17819 0.71481 0.92503 0.0
H78 H 0.1208 0.58753 0.92249 0.0
H79 H 0.1392 0.6511 0.89622 0.0
H80 H 0.84458 0.30053 0.01167 0.0
H81 H 0.83312 0.18262 0.01679 0.0
H82 H 0.94937 0.2866 0.00987 0.0
H83 H 0.9061 0.21352 0.01459 0.0
Eu84 Eu 0.54241 0.5657 0.99565 0.0
C85 C 0.7033 0.67669 0.06741 0.0
C86 C 0.72929 0.73934 0.03775 0.0
C87 C 0.748 0.74 0.09438 0.0
C88 C 0.7055 0.69706 0.03897 0.0
C89 C 0.7252 0.69786 0.09521 0.0
C90 C 0.74984 0.76072 0.06577 0.0
C91 C 0.70272 0.63401 0.12186 0.0
N92 N 0.68118 0.63592 0.06737 0.0
C93 C 0.6816 0.61432 0.09368 0.0
C94 C 0.72439 0.67597 0.12272 0.0
Eu95 Eu 0.64723 0.60468 0.0184 0.0
N96 N 0.68631 0.67542 0.01204 0.0
C97 C 0.69203 0.69407 0.9826 0.0
C98 C 0.73285 0.75877 0.00808 0.0
C99 C 0.71455 0.73597 0.9803 0.0
H100 H 0.66512 0.58187 0.09305 0.0
H101 H 0.71803 0.7506 0.95703 0.0
H102 H 0.76806 0.79321 0.06533 0.0
H103 H 0.70238 0.61682 0.14286 0.0
H104 H 0.67879 0.67685 0.96076 0.0
H105 H 0.49177 0.48769 0.11329 0.0
H106 H 0.75066 0.79121 0.00616 0.0
H107 H 0.51873 0.52641 0.91917 0.0
H108 H 0.53865 0.54129 0.07716 0.0
H109 H 0.46789 0.46416 0.89324 0.0
H110 H 0.76475 0.75682 0.1156 0.0
H111 H 0.43299 0.42745 0.09043 0.0
H112 H 0.39292 0.39013 0.04143 0.0
H113 H 0.74085 0.69113 0.14455 0.0
H114 H 0.38735 0.38318 0.9819 0.0
N115 N 0.50779 0.51225 0.03345 0.0
C116 C 0.51349 0.51556 0.06644 0.0
C117 C 0.45397 0.45083 0.07423 0.0
C118 C 0.44873 0.44713 0.04046 0.0
C119 C 0.48699 0.48484 0.08721 0.0
C120 C 0.47729 0.47807 0.02034 0.0
H121 H 0.41697 0.40872 0.92685 0.0
N122 N 0.5024 0.5041 0.96779 0.0
C123 C 0.46976 0.46622 0.91954 0.0
C124 C 0.47454 0.47388 0.98667 0.0
C125 C 0.49958 0.50112 0.93453 0.0
C126 C 0.44091 0.43515 0.93858 0.0
C127 C 0.44256 0.43903 0.97248 0.0
O128 O 0.50851 0.58361 0.96403 0.0
O129 O 0.60031 0.62221 1.00466 0.0
O130 O 0.62108 0.61853 0.06194 0.0
O131 O 0.55555 0.60053 0.04571 0.0
O132 O 0.57005 0.61893 0.96198 0.0
O133 O 0.48543 0.56135 0.01201 0.0
O134 O 0.67863 0.57076 0.02589 0.0
O135 O 0.58901 0.54947 1.00563 0.0
O136 O 0.57577 0.55509 0.95287 0.0
O137 O 0.64231 0.60321 0.96369 0.0
O138 O 0.61848 0.5449 0.04584 0.0
O139 O 0.70097 0.6179 0.99006 0.0
C140 C 0.5997 0.64277 0.98047 0.0
C141 C 0.43705 0.5436 0.96881 0.0
C142 C 0.36295 0.50286 0.97186 0.0
C143 C 0.40059 0.52945 0.98663 0.0
C144 C 0.36251 0.49068 0.9395 0.0
C145 C 0.43467 0.53208 0.93593 0.0
C146 C 0.39795 0.50538 0.92173 0.0
C147 C 0.58632 0.61675 0.06702 0.0
C148 C 0.47758 0.57079 0.98349 0.0
C149 C 0.4126 0.40963 0.99243 0.0
C150 C 0.41571 0.41364 0.02633 0.0
C151 C 0.5878 0.52552 0.02709 0.0
C152 C 0.74879 0.60604 0.01714 0.0
C153 C 0.76799 0.58312 0.01219 0.0
C154 C 0.8071 0.59651 0.02474 0.0
C155 C 0.82551 0.63229 0.0432 0.0
C156 C 0.76901 0.64235 0.03433 0.0
C157 C 0.80681 0.65507 0.0476 0.0
C158 C 0.61441 0.5766 0.94426 0.0
C159 C 0.70738 0.59183 1.00532 0.0
H160 H 0.40145 0.539 0.0116 0.0
H161 H 0.33432 0.47073 0.92743 0.0
H162 H 0.4613 0.54362 0.92086 0.0
H163 H 0.39692 0.49644 0.89657 0.0
H164 H 0.7528 0.55548 0.99829 0.0
H165 H 0.85463 0.64292 0.05441 0.0
H166 H 0.75557 0.66091 0.03761 0.0
H167 H 0.82174 0.68279 0.06138 0.0
Eu168 Eu 0.48771 0.99137 0.99222 0.0
C169 C 0.37042 0.03007 0.06381 0.0
C170 C 0.30927 0.98956 0.03319 0.0
C171 C 0.30541 1.00302 0.09054 0.0
C172 C 0.35164 1.01202 0.0349 0.0
C173 C 0.34753 0.02685 0.0917 0.0
C174 C 0.28633 0.98414 0.0614 0.0
C175 C 0.40919 0.0746 0.11857 0.0
N176 N 0.41111 0.05327 0.06397 0.0
C177 C 0.43058 0.07692 0.09025 0.0
C178 C 0.36755 0.04893 0.11949 0.0
Eu179 Eu 0.44545 0.05451 0.01556 0.0
N180 N 0.37466 0.01893 0.0079 0.0
C181 C 0.35707 1.00722 0.97796 0.0
C182 C 0.2912 0.97467 1.00291 0.0
C183 C 0.31521 0.98419 0.97508 0.0
H184 H 0.46281 0.09664 0.08962 0.0
H185 H 0.30151 0.97386 0.95139 0.0
H186 H 0.25377 0.96669 0.06063 0.0
H187 H 0.42483 0.09252 0.13966 0.0
H188 H 0.37519 0.01447 0.9562 0.0
H189 H 0.57375 0.02425 0.10602 0.0
H190 H 0.25876 0.95709 1.00058 0.0
H191 H 0.52057 1.00171 0.91413 0.0
H192 H 0.51615 1.01189 0.07262 0.0
H193 H 0.58238 0.01643 0.88501 0.0
H194 H 0.28727 0.99991 0.11178 0.0
H195 H 0.6356 0.03266 0.08013 0.0
H196 H 0.67332 0.03681 0.02923 0.0
H197 H 0.35105 0.04725 0.14144 0.0
H198 H 0.67646 0.03702 0.96952 0.0
N199 N 0.544 1.01284 0.02737 0.0
C200 C 0.54238 0.01515 0.06054 0.0
C201 C 0.61021 0.0273 0.06509 0.0
C202 C 0.61232 0.02616 0.03113 0.0
C203 C 0.57536 0.02253 0.07979 0.0
C204 C 0.57844 0.01915 0.01258 0.0
H205 H 0.64331 0.03055 0.91581 0.0
N206 N 0.5473 1.01256 0.96134 0.0
C207 C 0.5824 0.01789 0.91134 0.0
C208 C 0.58017 0.01912 0.97874 0.0
C209 C 0.54764 1.01057 0.92804 0.0
C210 C 0.61659 0.02551 0.92881 0.0
C211 C 0.6157 0.02579 0.96286 0.0
O212 O 0.46711 0.93785 0.96211 0.0
O213 O 0.43037 0.99076 1.00281 0.0
O214 O 0.43804 0.01813 0.06024 0.0
O215 O 0.45513 0.97025 0.04312 0.0
O216 O 0.43354 0.96458 0.95959 0.0
O217 O 0.49525 0.94046 0.00808 0.0
O218 O 0.47803 0.11974 0.02329 0.0
O219 O 0.50217 0.05394 1.00283 0.0
O220 O 0.49742 0.03501 0.94967 0.0
O221 O 0.4485 0.05235 0.96073 0.0
O222 O 0.50466 0.08745 0.04309 0.0
O223 O 0.4293 0.09397 0.98898 0.0
C224 C 0.40949 0.9689 0.97911 0.0
C225 C 0.50712 0.90625 0.96392 0.0
C226 C 0.54385 0.86878 0.96327 0.0
C227 C 0.52008 0.88194 0.98004 0.0
C228 C 0.55484 0.8806 0.93081 0.0
C229 C 0.51689 0.9152 0.93074 0.0
C230 C 0.5412 0.90332 0.91467 0.0
C231 C 0.44067 0.98564 0.06528 0.0
C232 C 0.48219 0.92107 0.9806 0.0
C233 C 0.64909 0.03209 0.98133 0.0
C234 C 0.64731 0.03203 0.01533 0.0
C235 C 0.52537 0.07745 0.02454 0.0
C236 C 0.44077 0.15289 0.01721 0.0
C237 C 0.46296 0.19509 0.01276 0.0
C238 C 0.44956 0.22011 0.02678 0.0
C239 C 0.41434 0.2019 0.046 0.0
C240 C 0.40513 0.13593 0.03546 0.0
C241 C 0.39228 0.16032 0.04998 0.0
C242 C 0.47539 0.05155 0.94122 0.0
C243 C 0.45542 0.12667 1.00394 0.0
H244 H 0.51151 0.87308 1.00515 0.0
H245 H 0.57288 0.87088 0.91748 0.0
H246 H 0.50551 0.93123 0.9168 0.0
H247 H 0.54889 0.91114 0.88931 0.0
H248 H 0.49013 0.20815 0.99817 0.0
H249 H 0.4037 0.21982 0.05824 0.0
H250 H 0.38728 0.10379 0.03869 0.0
H251 H 0.36508 0.14691 0.06452 0.0
Eu252 Eu 0.72926 0.83733 0.32958 0.0
C253 C 0.67899 0.6794 0.4073 0.0
C254 C 0.71702 0.6524 0.38108 0.0
C255 C 0.69615 0.6356 0.43752 0.0
C256 C 0.69846 0.67616 0.38004 0.0
C257 C 0.67693 0.65851 0.43614 0.0
C258 C 0.71635 0.63273 0.41011 0.0
C259 C 0.63484 0.68237 0.45946 0.0
N260 N 0.66053 0.70163 0.40512 0.0
C261 C 0.63766 0.7025 0.43035 0.0
C262 C 0.6547 0.66042 0.46243 0.0
Eu263 Eu 0.66502 0.73333 0.35449 0.0
N264 N 0.69747 0.69453 0.35208 0.0
C265 C 0.71235 0.68825 0.32382 0.0
C266 C 0.73464 0.64811 0.35264 0.0
C267 C 0.73189 0.66577 0.32379 0.0
H268 H 0.62184 0.71903 0.42814 0.0
H269 H 0.7445 0.66179 0.30144 0.0
H270 H 0.73062 0.61452 0.41139 0.0
H271 H 0.61718 0.68363 0.47954 0.0
H272 H 0.70972 0.70088 0.30116 0.0
H273 H 0.70319 0.88896 0.4477 0.0
H274 H 0.74939 0.63031 0.35246 0.0
H275 H 0.70531 0.85593 0.2536 0.0
H276 H 0.70784 0.84089 0.41168 0.0
H277 H 0.69156 0.90524 0.22818 0.0
H278 H 0.69517 0.6196 0.45955 0.0
H279 H 0.70283 0.94823 0.4247 0.0
H280 H 0.70447 0.98747 0.37544 0.0
H281 H 0.65231 0.64471 0.48497 0.0
H282 H 0.7002 0.99116 0.31595 0.0
N283 N 0.7107 0.87199 0.36784 0.0
C284 C 0.70823 0.86643 0.40086 0.0
C285 C 0.70457 0.92682 0.40854 0.0
C286 C 0.7053 0.93147 0.37474 0.0
C287 C 0.70496 0.89354 0.4216 0.0
C288 C 0.70683 0.90236 0.35472 0.0
H289 H 0.69103 0.95853 0.26148 0.0
N290 N 0.70434 0.87509 0.30244 0.0
C291 C 0.69436 0.90493 0.2544 0.0
C292 C 0.70352 0.90391 0.32115 0.0
C293 C 0.70067 0.87583 0.26928 0.0
C294 C 0.69444 0.93515 0.27323 0.0
C295 C 0.69974 0.93533 0.30691 0.0
O296 O 0.77845 0.87079 0.29541 0.0
O297 O 0.72946 0.78063 0.34065 0.0
O298 O 0.70462 0.76127 0.39793 0.0
O299 O 0.75191 0.82617 0.38008 0.0
O300 O 0.75738 0.81016 0.29798 0.0
O301 O 0.78224 0.89557 0.34317 0.0
O302 O 0.59936 0.70189 0.36015 0.0
O303 O 0.66665 0.79027 0.33907 0.0
O304 O 0.68577 0.80089 0.28736 0.0
O305 O 0.67183 0.73626 0.29994 0.0
O306 O 0.6331 0.76259 0.37998 0.0
O307 O 0.62588 0.67842 0.32695 0.0
C308 C 0.75157 0.78111 0.31717 0.0
C309 C 0.81003 0.94237 0.29847 0.0
C310 C 0.84666 0.01662 0.29853 0.0
C311 C 0.83622 0.97957 0.31409 0.0
C312 C 0.83029 0.0159 0.26783 0.0
C313 C 0.79648 0.94344 0.26681 0.0
C314 C 0.80575 0.97967 0.25206 0.0
C315 C 0.73765 0.7962 0.40221 0.0
C316 C 0.7977 0.90242 0.31393 0.0
C317 C 0.70192 0.96625 0.32659 0.0
C318 C 0.70446 0.96421 0.36046 0.0
C319 C 0.64372 0.79207 0.36007 0.0
C320 C 0.56509 0.63141 0.35342 0.0
C321 C 0.52301 0.61214 0.34798 0.0
C322 C 0.49698 0.57338 0.36102 0.0
C323 C 0.51396 0.55538 0.38043 0.0
C324 C 0.58075 0.61164 0.37176 0.0
C325 C 0.55534 0.57419 0.38546 0.0
C326 C 0.67222 0.76259 0.27922 0.0
C327 C 0.59268 0.67238 0.3408 0.0
H328 H 0.8485 0.97972 0.33787 0.0
H329 H 0.83779 0.04369 0.25541 0.0
H330 H 0.77872 0.91616 0.25305 0.0
H331 H 0.79436 0.97968 0.22795 0.0
H332 H 0.51083 0.62698 0.3333 0.0
H333 H 0.4952 0.52651 0.39193 0.0
H334 H 0.6127 0.62517 0.3756 0.0
H335 H 0.56782 0.55959 0.40006 0.0
Eu336 Eu 0.21344 0.90057 0.32413 0.0
C337 C 0.37385 1.01191 0.39609 0.0
C338 C 0.39988 0.0744 0.36619 0.0
C339 C 0.41825 0.0754 0.42297 0.0
C340 C 0.37616 0.03212 0.36753 0.0
C341 C 0.39546 0.03326 0.42395 0.0
C342 C 0.42026 0.09594 0.39421 0.0
C343 C 0.37254 0.96958 0.45103 0.0
N344 N 0.35166 0.97114 0.39623 0.0
C345 C 0.35177 0.94971 0.42278 0.0
C346 C 0.39422 1.01155 0.45171 0.0
Eu347 Eu 0.31794 0.93964 0.34727 0.0
N348 N 0.35701 1.01034 0.34063 0.0
C349 C 0.36267 0.02886 0.31114 0.0
C350 C 0.40345 0.09368 0.33645 0.0
C351 C 0.38516 0.07075 0.30872 0.0
H352 H 0.33522 0.91726 0.42231 0.0
H353 H 0.38861 0.08528 0.2854 0.0
H354 H 0.43843 0.12843 0.39367 0.0
H355 H 0.37189 0.95253 0.47223 0.0
H356 H 0.34939 1.01155 0.28934 0.0
H357 H 0.16344 0.82442 0.44274 0.0
H358 H 0.42122 0.12612 0.33444 0.0
H359 H 0.19047 0.85886 0.24813 0.0
H360 H 0.21017 0.87724 0.40614 0.0
H361 H 0.1404 0.79574 0.22308 0.0
H362 H 0.4348 0.09235 0.4442 0.0
H363 H 0.10468 0.76369 0.42046 0.0
H364 H 0.06485 0.72514 0.37181 0.0
H365 H 0.41038 0.02686 0.47361 0.0
H366 H 0.0595 0.71684 0.31237 0.0
N367 N 0.17897 0.84776 0.36264 0.0
C368 C 0.18488 0.85151 0.39561 0.0
C369 C 0.12551 0.78686 0.40403 0.0
C370 C 0.12024 0.7825 0.3703 0.0
C371 C 0.1585 0.82113 0.41668 0.0
C372 C 0.1486 0.81321 0.34989 0.0
H373 H 0.08943 0.74107 0.25723 0.0
N374 N 0.17389 0.83808 0.29714 0.0
C375 C 0.14197 0.79859 0.24935 0.0
C376 C 0.14604 0.80822 0.3163 0.0
C377 C 0.17145 0.83403 0.26392 0.0
C378 C 0.11308 0.76796 0.26867 0.0
C379 C 0.11439 0.77281 0.30247 0.0
O380 O 0.17996 0.91777 0.29135 0.0
O381 O 0.2711 0.95726 0.33344 0.0
O382 O 0.2916 0.95382 0.39056 0.0
O383 O 0.22607 0.93561 0.37417 0.0
O384 O 0.24132 0.95386 0.29051 0.0
O385 O 0.1561 0.89639 0.33927 0.0
O386 O 0.34926 0.90583 0.35564 0.0
O387 O 0.25998 0.88424 0.33405 0.0
O388 O 0.24716 0.89069 0.28127 0.0
O389 O 0.31385 0.93802 0.29247 0.0
O390 O 0.28879 0.88 0.37488 0.0
O391 O 0.37191 0.95257 0.31943 0.0
C392 C 0.27059 0.97786 0.30924 0.0
C393 C 0.10844 0.8784 0.29547 0.0
C394 C 0.03428 0.84043 0.29729 0.0
C395 C 0.07179 0.86667 0.3123 0.0
C396 C 0.03393 0.82581 0.2659 0.0
C397 C 0.10637 0.86479 0.26326 0.0
C398 C 0.06964 0.83816 0.24899 0.0
C399 C 0.25679 0.95198 0.39557 0.0
C400 C 0.14879 0.90551 0.31043 0.0
C401 C 0.08451 0.74371 0.32265 0.0
C402 C 0.08749 0.74849 0.35649 0.0
C403 C 0.25856 0.86041 0.35574 0.0
C404 C 0.41947 0.94082 0.34714 0.0
C405 C 0.43829 0.91742 0.34297 0.0
C406 C 0.47738 0.93084 0.35552 0.0
C407 C 0.49623 0.96722 0.37319 0.0
C408 C 0.44002 0.97758 0.36366 0.0
C409 C 0.47786 0.9904 0.37691 0.0
C410 C 0.28585 0.91198 0.27278 0.0
C411 C 0.37815 0.92663 0.33511 0.0
H412 H 0.0724 0.878 0.33659 0.0
H413 H 1.00569 0.80581 0.25391 0.0
H414 H 0.13323 0.87478 0.24874 0.0
H415 H 0.06883 0.82753 0.22441 0.0
H416 H 0.42282 0.88937 0.32962 0.0
H417 H 0.52544 0.97796 0.38429 0.0
H418 H 0.42681 0.99645 0.36642 0.0
H419 H 0.49308 0.01853 0.39014 0.0
Eu420 Eu 0.15059 0.32027 0.32706 0.0
C421 C 0.04084 0.37051 0.40063 0.0
C422 C 0.97778 0.33385 0.37149 0.0
C423 C 0.97783 0.35214 0.4282 0.0
C424 C 1.02011 0.3523 0.37233 0.0
C425 C 1.02001 0.37144 0.42864 0.0
C426 C 0.95673 0.33315 0.39974 0.0
C427 C 0.08425 0.41294 0.45474 0.0
N428 N 0.08165 0.38913 0.40022 0.0
C429 C 0.10359 0.41127 0.42637 0.0
C430 C 0.04227 0.39273 0.45595 0.0
Eu431 Eu 0.11231 0.38629 0.3509 0.0
N432 N 0.04143 0.35465 0.34516 0.0
C433 C 0.02238 0.34157 0.31588 0.0
C434 C 0.95796 0.31786 0.34198 0.0
C435 C 0.98042 0.3222 0.31397 0.0
H436 H 0.13606 0.42722 0.42546 0.0
H437 H 0.96548 0.31094 0.29082 0.0
H438 H 0.92422 0.31891 0.39959 0.0
H439 H 0.10172 0.42993 0.47559 0.0
H440 H 0.03932 0.34541 0.29387 0.0
H441 H 0.22881 0.34627 0.44462 0.0
H442 H 0.92547 0.30326 0.34036 0.0
H443 H 0.19064 0.33802 0.25049 0.0
H444 H 0.17522 0.33997 0.40889 0.0
H445 H 0.25327 0.3507 0.22446 0.0
H446 H 0.96127 0.35221 0.44958 0.0
H447 H 0.28924 0.34839 0.42131 0.0
H448 H 0.3269 0.347 0.37202 0.0
H449 H 0.02737 0.39422 0.47792 0.0
H450 H 0.33412 0.34973 0.31249 0.0
N451 N 0.20403 0.33844 0.36486 0.0
C452 C 0.20083 0.34054 0.39792 0.0
C453 C 0.26575 0.346 0.40526 0.0
C454 C 0.2695 0.34505 0.37145 0.0
C455 C 0.23164 0.34464 0.41849 0.0
C456 C 0.2384 0.34266 0.35154 0.0
H457 H 0.30872 0.35486 0.25777 0.0
N458 N 0.21251 0.34278 0.29916 0.0
C459 C 0.25098 0.34974 0.25077 0.0
C460 C 0.24276 0.34493 0.31786 0.0
C461 C 0.21583 0.34394 0.26588 0.0
C462 C 0.28206 0.35175 0.26963 0.0
C463 C 0.27792 0.34857 0.30349 0.0
O464 O 0.1315 0.26899 0.29457 0.0
O465 O 0.09421 0.32165 0.33718 0.0
O466 O 0.09893 0.34639 0.39443 0.0
O467 O 0.11615 0.29849 0.37744 0.0
O468 O 0.09659 0.29482 0.29414 0.0
O469 O 0.156 0.26755 0.34129 0.0
O470 O 0.14669 0.45156 0.35866 0.0
O471 O 0.16742 0.38326 0.33716 0.0
O472 O 0.16061 0.36417 0.28457 0.0
O473 O 0.11297 0.38304 0.2961 0.0
O474 O 0.17229 0.41662 0.37801 0.0
O475 O 0.099 0.42721 0.32335 0.0
C476 C 0.07301 0.30032 0.31327 0.0
C477 C 0.17134 0.23718 0.29615 0.0
C478 C 0.20968 0.20125 0.29518 0.0
C479 C 0.18433 0.21259 0.31182 0.0
C480 C 0.22201 0.21505 0.26327 0.0
C481 C 0.18272 0.24823 0.26346 0.0
C482 C 0.20838 0.23801 0.24754 0.0
C483 C 0.10043 0.31323 0.39919 0.0
C484 C 0.14511 0.25056 0.31272 0.0
C485 C 0.30743 0.34793 0.32319 0.0
C486 C 0.30327 0.34627 0.35709 0.0
C487 C 0.19154 0.40565 0.35873 0.0
C488 C 0.11187 0.48713 0.35077 0.0
C489 C 0.13479 0.52921 0.3455 0.0
C490 C 0.12177 0.55517 0.3583 0.0
C491 C 0.0864 0.53808 0.37733 0.0
C492 C 0.07599 0.47139 0.36859 0.0
C493 C 0.06367 0.4967 0.3821 0.0
C494 C 0.13909 0.38134 0.27627 0.0
C495 C 0.12552 0.45957 0.3385 0.0
H496 H 0.17476 0.2023 0.33652 0.0
H497 H 0.24125 0.20678 0.24999 0.0
H498 H 0.17176 0.26489 0.24984 0.0
H499 H 0.21728 0.24747 0.2226 0.0
H500 H 0.16211 0.54144 0.33114 0.0
H501 H 0.07606 0.55675 0.38871 0.0
H502 H 0.05742 0.43946 0.37217 0.0
H503 H 0.03627 0.48415 0.39635 0.0
Eu504 Eu 0.39532 0.16971 0.65985 0.0
C505 C 0.34887 0.01642 0.74025 0.0
C506 C 0.39009 0.9924 0.71523 0.0
C507 C 0.37067 0.97742 0.7721 0.0
C508 C 0.36904 1.01373 0.71333 0.0
C509 C 0.34854 0.99741 0.76971 0.0
C510 C 0.39172 0.97524 0.74499 0.0
C511 C 0.30111 0.01564 0.79108 0.0
N512 N 0.3273 0.03544 0.73695 0.0
C513 C 0.3023 0.03396 0.76134 0.0
C514 C 0.32479 0.9978 0.79546 0.0
Eu515 Eu 0.33104 0.06628 0.68604 0.0
N516 N 0.36558 0.02939 0.68469 0.0
C517 C 0.37968 0.02187 0.65653 0.0
C518 C 0.40739 0.98747 0.68685 0.0
C519 C 0.40157 1.0017 0.65726 0.0
H520 H 0.28388 0.04765 0.75807 0.0
H521 H 0.41376 0.99699 0.63497 0.0
H522 H 0.40801 0.95902 0.74699 0.0
H523 H 0.28197 0.01533 0.8106 0.0
H524 H 0.37505 0.03221 0.63341 0.0
H525 H 0.36655 0.22926 0.77229 0.0
H526 H 0.424 0.97149 0.6873 0.0
H527 H 0.37959 0.18663 0.58117 0.0
H528 H 0.37388 0.17984 0.74006 0.0
H529 H 0.3671 0.23438 0.55117 0.0
H530 H 0.37108 0.96292 0.79462 0.0
H531 H 0.36475 0.28571 0.74507 0.0
H532 H 0.36738 0.32139 0.69336 0.0
H533 H 0.32373 0.98353 0.8185 0.0
H534 H 0.36529 0.32148 0.63356 0.0
N535 N 0.37555 0.20672 0.69423 0.0
C536 C 0.37308 0.20383 0.72745 0.0
C537 C 0.36739 0.26354 0.73057 0.0
C538 C 0.36899 0.26591 0.69658 0.0
C539 C 0.36854 0.23184 0.74601 0.0
C540 C 0.37164 0.23587 0.67875 0.0
H541 H 0.36157 0.2874 0.58076 0.0
N542 N 0.37321 0.20673 0.62824 0.0
C543 C 0.36734 0.23478 0.57754 0.0
C544 C 0.37025 0.23576 0.64492 0.0
C545 C 0.37302 0.20671 0.59486 0.0
C546 C 0.36452 0.26481 0.59431 0.0
C547 C 0.36681 0.2661 0.6283 0.0
O548 O 0.44726 0.20195 0.62797 0.0
O549 O 0.39561 0.11348 0.67294 0.0
O550 O 0.36719 0.09664 0.7305 0.0
O551 O 0.4164 0.15995 0.71143 0.0
O552 O 0.42287 0.14123 0.62942 0.0
O553 O 0.44736 0.22802 0.67451 0.0
O554 O 0.26524 0.03519 0.69039 0.0
O555 O 0.33254 0.12297 0.66995 0.0
O556 O 0.35154 0.13276 0.618 0.0
O557 O 0.33794 0.06852 0.63139 0.0
O558 O 0.29855 0.0953 0.71078 0.0
O559 O 0.29258 1.00983 0.66011 0.0
C560 C 0.41782 0.11343 0.6498 0.0
C561 C 0.48006 0.27367 0.62981 0.0
C562 C 0.52082 0.34771 0.62842 0.0
C563 C 0.50578 0.31085 0.64563 0.0
C564 C 0.50878 0.34697 0.59605 0.0
C565 C 0.47025 0.27452 0.59687 0.0
C566 C 0.48371 0.31073 0.5805 0.0
C567 C 0.40051 0.13136 0.73459 0.0
C568 C 0.46528 0.2339 0.64633 0.0
C569 C 0.36693 0.29745 0.64597 0.0
C570 C 0.36822 0.29745 0.68002 0.0
C571 C 0.30942 0.12483 0.69084 0.0
C572 C 0.23142 0.96447 0.68684 0.0
C573 C 0.18941 0.94505 0.68118 0.0
C574 C 0.16321 0.90719 0.69554 0.0
C575 C 0.17992 0.8902 0.71637 0.0
C576 C 0.24689 0.94584 0.70684 0.0
C577 C 0.22128 0.90922 0.72172 0.0
C578 C 0.33811 0.09439 0.61027 0.0
C579 C 0.25908 1.00452 0.67277 0.0
H580 H 0.51505 0.31103 0.67057 0.0
H581 H 0.51971 0.3747 0.58245 0.0
H582 H 0.45258 0.24708 0.58328 0.0
H583 H 0.47542 0.31065 0.55529 0.0
H584 H 0.17741 0.95905 0.66533 0.0
H585 H 0.16096 0.86201 0.72876 0.0
H586 H 0.27884 0.95965 0.71107 0.0
H587 H 0.23355 0.89546 0.73752 0.0
Eu588 Eu 0.8793 0.23359 0.66318 0.0
C589 C 0.03847 0.34083 0.73971 0.0
C590 C 0.06375 0.40607 0.71448 0.0
C591 C 0.08209 0.40152 0.77031 0.0
C592 C 0.04062 0.36374 0.713 0.0
C593 C 0.06008 0.3594 0.76835 0.0
C594 C 0.08372 0.42482 0.74349 0.0
C595 C 0.0385 0.29334 0.79031 0.0
N596 N 1.01683 0.30017 0.73706 0.0
C597 C 1.01738 0.27628 0.76151 0.0
C598 C 0.05986 0.33507 0.79379 0.0
Eu599 Eu 0.98374 0.27336 0.6868 0.0
N600 N 0.02197 0.34463 0.68503 0.0
C601 C 0.02762 0.36609 0.65708 0.0
C602 C 0.06719 0.42824 0.68643 0.0
C603 C 0.04947 0.40811 0.65749 0.0
H604 H 1.00142 0.24401 0.75889 0.0
H605 H 0.05289 0.42491 0.6354 0.0
H606 H 0.10137 0.45729 0.74515 0.0
H607 H 0.03851 0.27429 0.80972 0.0
H608 H 1.01494 0.35105 0.63434 0.0
H609 H 0.82648 0.15253 0.77943 0.0
H610 H 0.08449 0.46079 0.6866 0.0
H611 H 0.85941 0.19521 0.58596 0.0
H612 H 0.87433 0.20697 0.74445 0.0
H613 H 0.81022 0.13312 0.55901 0.0
H614 H 0.09848 0.41634 0.79226 0.0
H615 H 0.7682 0.09297 0.75525 0.0
H616 H 0.72949 0.05686 0.70535 0.0
H617 H 0.07639 0.3482 0.81607 0.0
H618 H 0.7261 0.05094 0.6457 0.0
N619 N 0.84455 0.17913 0.70007 0.0
C620 C 0.84945 0.18156 0.73315 0.0
C621 C 0.78964 0.11673 0.73954 0.0
C622 C 0.78535 0.11383 0.70568 0.0
C623 C 0.82238 0.15034 0.75327 0.0
C624 C 0.8145 0.14522 0.68625 0.0
H625 H 0.75804 0.07718 0.59142 0.0
N626 N 0.84132 0.17233 0.6343 0.0
C627 C 0.81096 0.13488 0.58534 0.0
C628 C 0.8129 0.14168 0.65251 0.0
C629 C 0.83995 0.16971 0.60098 0.0
C630 C 0.78139 0.10352 0.6037 0.0
C631 C 0.78159 0.10697 0.6376 0.0
O632 O 0.8443 0.24978 0.63121 0.0
O633 O 0.93603 0.2904 0.67403 0.0
O634 O 0.95672 0.28436 0.73124 0.0
O635 O 0.89167 0.26694 0.71398 0.0
O636 O 0.90582 0.28903 0.63185 0.0
O637 O 0.82165 0.2279 0.67938 0.0
O638 O 1.01466 0.23841 0.69041 0.0
O639 O 0.9264 0.21784 0.67211 0.0
O640 O 0.91516 0.22689 0.62013 0.0
O641 O 0.9799 0.27766 0.63237 0.0
O642 O 0.955 0.21268 0.71271 0.0
O643 O 0.03868 0.28987 0.65889 0.0
C644 C 0.93507 0.31221 0.65095 0.0
C645 C 0.77284 0.20895 0.63629 0.0
C646 C 0.6986 0.16869 0.63914 0.0
C647 C 0.73624 0.1957 0.65379 0.0
C648 C 0.69833 0.15522 0.60726 0.0
C649 C 0.77056 0.19612 0.60382 0.0
C650 C 0.73387 0.16903 0.58979 0.0
C651 C 0.92182 0.28242 0.73594 0.0
C652 C 0.8134 0.23676 0.65077 0.0
C653 C 0.7509 0.07725 0.65682 0.0
C654 C 0.75279 0.08066 0.69079 0.0
C655 C 0.92509 0.19348 0.69325 0.0
C656 C 0.08527 0.27462 0.68421 0.0
C657 C 0.10404 0.25138 0.67848 0.0
C658 C 0.14265 0.26341 0.69159 0.0
C659 C 0.16094 0.29807 0.71138 0.0
C660 C 0.10537 0.30974 0.70291 0.0
C661 C 0.14262 0.32105 0.71669 0.0
C662 C 0.95338 0.25175 0.61172 0.0
C663 C 0.04444 0.26201 0.67158 0.0
H664 H 0.73701 0.20626 0.67841 0.0
H665 H 0.6702 0.13492 0.59527 0.0
H666 H 0.79723 0.20706 0.58889 0.0
H667 H 0.73295 0.15911 0.56494 0.0
H668 H 0.08897 0.2246 0.66354 0.0
H669 H 0.18968 0.30762 0.72293 0.0
H670 H 0.09224 0.3285 0.70698 0.0
H671 H 0.15745 0.34787 0.73158 0.0
Eu672 Eu 0.81644 0.65572 0.66459 0.0
C673 C 0.71188 0.70604 0.74563 0.0
C674 C 0.64588 0.66563 0.72175 0.0
C675 C 0.65202 0.68728 0.77813 0.0
C676 C 0.6882 0.6853 0.71927 0.0
C677 C 0.69411 0.70809 0.77513 0.0
C678 C 0.62794 0.66583 0.75156 0.0
C679 C 0.76062 0.75469 0.79523 0.0
N680 N 0.75243 0.72655 0.74165 0.0
C681 C 0.77683 0.75194 0.76544 0.0
C682 C 0.71911 0.73225 0.80027 0.0
Eu683 Eu 0.77792 0.72065 0.6905 0.0
N684 N 0.70653 0.68701 0.69052 0.0
C685 C 0.68427 0.67237 0.66279 0.0
C686 C 0.62289 0.64793 0.69382 0.0
C687 C 0.64222 0.65192 0.66409 0.0
H688 H 0.80891 0.76958 0.76168 0.0
H689 H 0.62477 0.6395 0.64211 0.0
H690 H 0.5955 0.65063 0.75399 0.0
H691 H 0.78014 0.77415 0.81426 0.0
H692 H 0.69874 0.67595 0.63952 0.0
H693 H 0.90597 0.68455 0.7763 0.0
H694 H 0.59032 0.63247 0.6947 0.0
H695 H 0.8488 0.67164 0.58562 0.0
H696 H 0.84925 0.67796 0.74461 0.0
H697 H 0.90881 0.68396 0.55522 0.0
H698 H 0.6378 0.68823 0.80068 0.0
H699 H 0.96347 0.68516 0.7486 0.0
H700 H 0.99585 0.68197 0.6966 0.0
H701 H 0.70662 0.7346 0.82331 0.0
H702 H 0.99768 0.68424 0.63681 0.0
N703 N 0.87353 0.67515 0.69853 0.0
C704 C 0.87361 0.67806 0.73175 0.0
C705 C 0.93862 0.68273 0.73432 0.0
C706 C 0.93901 0.68092 0.70032 0.0
C707 C 0.90618 0.68224 0.75003 0.0
C708 C 0.90628 0.67856 0.68277 0.0
H709 H 0.96726 0.68867 0.58432 0.0
N710 N 0.87536 0.67741 0.63255 0.0
C711 C 0.90905 0.68348 0.58159 0.0
C712 C 0.90733 0.67996 0.64894 0.0
C713 C 0.87544 0.67791 0.59916 0.0
C714 C 0.94184 0.68582 0.59808 0.0
C715 C 0.94095 0.68324 0.63205 0.0
O716 O 0.79681 0.60394 0.63254 0.0
O717 O 0.76004 0.65573 0.67777 0.0
O718 O 0.77162 0.68487 0.73521 0.0
O719 O 0.78705 0.63623 0.71692 0.0
O720 O 0.75994 0.62823 0.63447 0.0
O721 O 0.82166 0.60317 0.67939 0.0
O722 O 0.81301 0.78649 0.69354 0.0
O723 O 0.83287 0.71855 0.67442 0.0
O724 O 0.82372 0.69986 0.62297 0.0
O725 O 0.77234 0.71251 0.63601 0.0
O726 O 0.83951 0.75299 0.71496 0.0
O727 O 0.75992 0.75859 0.66382 0.0
C728 C 0.73728 0.63341 0.65489 0.0
C729 C 0.83613 0.57152 0.63484 0.0
C730 C 0.87291 0.53411 0.6347 0.0
C731 C 0.84831 0.5466 0.65099 0.0
C732 C 0.88566 0.54731 0.60277 0.0
C733 C 0.84778 0.582 0.60212 0.0
C734 C 0.87298 0.57082 0.58661 0.0
C735 C 0.77389 0.65211 0.73983 0.0
C736 C 0.81034 0.58565 0.65103 0.0
C737 C 0.97216 0.68277 0.64944 0.0
C738 C 0.97106 0.68136 0.68348 0.0
C739 C 0.85796 0.74167 0.69516 0.0
C740 C 0.77615 0.82038 0.68951 0.0
C741 C 0.79885 0.86224 0.68334 0.0
C742 C 0.78729 0.88876 0.69724 0.0
C743 C 0.75361 0.87256 0.71818 0.0
C744 C 0.74205 0.80541 0.70954 0.0
C745 C 0.73117 0.83136 0.72402 0.0
C746 C 0.79847 0.71283 0.61504 0.0
C747 C 0.78834 0.79233 0.67587 0.0
H748 H 0.83838 0.53664 0.67569 0.0
H749 H 0.90443 0.53815 0.58986 0.0
H750 H 0.83722 0.59871 0.58814 0.0
H751 H 0.88211 0.57982 0.56163 0.0
H752 H 0.82484 0.87387 0.66744 0.0
H753 H 0.74446 0.89182 0.73022 0.0
H754 H 0.72377 0.77358 0.71409 0.0
H755 H 0.70513 0.81946 0.73985 0.0
C756 C 0.31155 0.51717 0.99686 0.0
C757 C 0.32312 0.48917 0.98791 0.0
C758 C 0.27068 0.50514 1.00229 0.0
C759 C 0.24059 0.46406 0.99883 0.0
C760 C 0.25271 0.43529 0.993 0.0
C761 C 0.29365 0.44818 0.98743 0.0
C762 C 0.25941 0.53694 0.00877 0.0
C763 C 0.22221 0.39117 0.98962 0.0
C764 C 0.13269 0.43889 0.01935 0.0
C765 C 0.11927 0.44385 0.98882 0.0
C766 C 0.17123 0.4429 0.02292 0.0
C767 C 0.19708 0.45269 0.99548 0.0
C768 C 0.1821 0.45435 0.96433 0.0
C769 C 0.14346 0.44953 0.96142 0.0
C770 C 0.18501 0.43865 0.05626 0.0
C771 C 0.20788 0.46392 0.93414 0.0
H772 H 0.33397 0.54887 0.99698 0.0
H773 H 0.30234 0.4263 0.98054 0.0
H774 H 0.24476 0.54069 0.9868 0.0
H775 H 0.23748 0.52766 0.02911 0.0
H776 H 0.28605 0.56646 0.01482 0.0
H777 H 0.23619 0.37217 0.99328 0.0
H778 H 0.19717 0.38185 0.00727 0.0
H779 H 0.20915 0.38535 0.96477 0.0
H780 H 0.11408 0.43394 0.04063 0.0
H781 H 0.13313 0.4529 0.93767 0.0
H782 H 0.20888 0.46852 0.06486 0.0
H783 H 0.1983 0.41881 0.05528 0.0
H784 H 0.15996 0.42616 0.07421 0.0
H785 H 0.23417 0.49474 0.93609 0.0
H786 H 0.1911 0.4621 0.91157 0.0
H787 H 0.21962 0.44286 0.93183 0.0
C788 C 0.59636 0.85246 0.98156 0.0
C789 C 0.55552 0.8403 0.97735 0.0
C790 C 0.60913 0.82414 0.98611 0.0
C791 C 0.58053 0.78248 0.98553 0.0
C792 C 0.53904 0.7702 0.98284 0.0
C793 C 0.52707 0.79922 0.97897 0.0
C794 C 0.65347 0.83879 0.98971 0.0
C795 C 0.50739 0.72622 0.98189 0.0
C796 C 0.60754 0.70504 0.9545 0.0
C797 C 0.60623 0.68443 0.98312 0.0
C798 C 0.60135 0.73827 0.95511 0.0
C799 C 0.59381 0.75163 0.98516 0.0
C800 C 0.59552 0.73287 0.01435 0.0
C801 C 0.60123 0.69936 0.01287 0.0
C802 C 0.59998 0.75718 0.92328 0.0
C803 C 0.58838 0.7463 0.04701 0.0
H804 H 0.61852 0.88415 0.97971 0.0
H805 H 0.49563 0.78964 0.97491 0.0
H806 H 0.65873 0.82292 0.01002 0.0
H807 H 0.66492 0.83209 0.96712 0.0
H808 H 0.67114 0.87169 0.99426 0.0
H809 H 0.47639 0.72154 0.98169 0.0
H810 H 0.5116 0.71216 0.95971 0.0
H811 H 0.51054 0.71032 1.00324 0.0
H812 H 0.61081 0.69345 0.93129 0.0
H813 H 0.59847 0.68297 0.03476 0.0
H814 H 0.61953 0.79031 0.92444 0.0
H815 H 0.56881 0.75074 0.91871 0.0
H816 H 0.60969 0.74568 0.90236 0.0
H817 H 0.60536 0.77957 0.04892 0.0
H818 H 0.59727 0.73357 0.0675 0.0
H819 H 0.55595 0.73636 0.04967 0.0
C820 C 0.35093 0.90771 0.95574 0.0
C821 C 0.36838 0.93288 0.98283 0.0
C822 C 0.31763 0.86874 0.95897 0.0
C823 C 0.3004 0.85426 0.99009 0.0
C824 C 0.31576 0.88071 0.01721 0.0
C825 C 0.34976 0.91954 0.01335 0.0
C826 C 0.30222 0.8423 0.92911 0.0
C827 C 0.29732 0.86742 0.05053 0.0
C828 C 0.19822 0.75842 0.98341 0.0
C829 C 0.2088 0.72828 0.98515 0.0
C830 C 0.22698 0.79939 0.98776 0.0
C831 C 0.26771 0.81093 0.99377 0.0
C832 C 0.27785 0.78035 0.99834 0.0
C833 C 0.24833 0.73947 0.99402 0.0
C834 C 0.21425 0.83042 0.98307 0.0
C835 C 0.32068 0.79099 1.00511 0.0
H836 H 0.36482 0.91778 0.932 0.0
H837 H 0.36266 0.93869 0.03444 0.0
H838 H 0.30668 0.81606 0.93202 0.0
H839 H 0.26948 0.83053 0.92619 0.0
H840 H 0.31775 0.85853 0.90649 0.0
H841 H 0.30975 0.89264 0.06828 0.0
H842 H 0.26423 0.85433 0.0493 0.0
H843 H 0.30303 0.84353 0.05957 0.0
H844 H 0.16775 0.75011 0.97652 0.0
H845 H 0.25696 0.71659 0.99507 0.0
H846 H 0.22297 0.84343 0.95826 0.0
H847 H 0.22948 0.85542 1.00077 0.0
H848 H 0.18118 0.81708 0.98566 0.0
H849 H 0.33928 0.80474 0.98303 0.0
H850 H 0.32297 0.76421 0.01194 0.0
H851 H 0.33357 0.81347 0.02502 0.0
C852 C 0.44903 0.28486 0.01944 0.0
C853 C 0.47123 0.26492 0.02182 0.0
C854 C 0.46789 0.32695 0.01869 0.0
C855 C 0.51034 0.35055 0.01906 0.0
C856 C 0.53322 0.33075 0.01952 0.0
C857 C 0.51348 0.28826 0.02117 0.0
C858 C 0.44215 0.34624 0.01859 0.0
C859 C 0.57857 0.35449 0.01907 0.0
C860 C 0.55588 0.46135 0.99439 0.0
C861 C 0.56571 0.4808 0.02472 0.0
C862 C 0.53866 0.41922 0.99204 0.0
C863 C 0.53031 0.39572 0.02076 0.0
C864 C 0.5395 0.41537 0.05145 0.0
C865 C 0.55772 0.45756 0.05299 0.0
C866 C 0.52988 0.39996 0.95876 0.0
C867 C 0.52982 0.39178 0.08279 0.0
H868 H 0.41647 0.26747 0.01872 0.0
H869 H 0.53119 0.27351 0.02296 0.0
H870 H 0.44993 0.36616 0.99712 0.0
H871 H 0.40945 0.32396 0.01787 0.0
H872 H 0.44855 0.36498 0.04078 0.0
H873 H 0.59201 0.33486 0.01639 0.0
H874 H 0.58925 0.3765 0.99875 0.0
H875 H 0.58973 0.3718 0.04206 0.0
H876 H 0.56276 0.47919 0.97239 0.0
H877 H 0.56549 0.47249 0.07647 0.0
H878 H 0.49695 0.38056 0.95551 0.0
H879 H 0.54348 0.38048 0.95638 0.0
H880 H 0.54152 0.42261 0.93887 0.0
H881 H 0.49712 0.36973 0.08395 0.0
H882 H 0.53825 0.41141 0.10465 0.0
H883 H 0.54593 0.37454 0.0836 0.0
C884 C 0.59163 0.12508 0.0502 0.0
C885 C 0.57027 0.10219 0.02301 0.0
C886 C 0.63366 0.15088 0.04926 0.0
C887 C 0.65566 0.15259 0.02089 0.0
C888 C 0.63409 0.12987 0.99316 0.0
C889 C 0.59169 0.10618 0.99423 0.0
C890 C 0.65426 0.1759 0.07897 0.0
C891 C 0.65576 0.13007 0.96242 0.0
C892 C 0.76504 0.23416 1.00263 0.0
C893 C 0.78724 0.21906 0.01843 0.0
C894 C 0.72252 0.2139 1.00418 0.0
C895 C 0.70109 0.17646 0.02081 0.0
C896 C 0.72357 0.1619 0.03763 0.0
C897 C 0.76582 0.18358 0.03672 0.0
C898 C 0.7014 0.2335 0.98797 0.0
C899 C 0.70408 0.12346 0.0571 0.0
H900 H 0.57532 0.12322 0.07233 0.0
H901 H 0.57532 0.0906 0.97254 0.0
H902 H 0.66517 0.15963 0.09441 0.0
H903 H 0.68044 0.2054 0.07219 0.0
H904 H 0.6332 0.18126 0.09389 0.0
H905 H 0.63504 0.10847 0.94401 0.0
H906 H 0.67063 0.16045 0.95139 0.0
H907 H 0.67952 0.12257 0.96817 0.0
H908 H 0.78066 0.26162 0.98855 0.0
H909 H 0.78206 0.1722 0.05053 0.0
H910 H 0.66918 0.21958 0.99469 0.0
H911 H 0.7039 0.23195 0.96112 0.0
H912 H 0.71663 0.26589 0.99451 0.0
H913 H 0.70949 0.13087 0.08342 0.0
H914 H 0.7183 0.10519 0.05107 0.0
H915 H 0.67135 0.10504 0.05307 0.0
C916 C 0.93721 0.49041 0.05141 0.0
C917 C 0.95269 0.48188 0.02351 0.0
C918 C 0.91269 0.50798 0.04918 0.0
C919 C 0.90159 0.51558 0.01816 0.0
C920 C 0.91672 0.50637 0.9898 0.0
C921 C 0.94256 0.49025 0.99283 0.0
C922 C 0.89906 0.51885 0.08014 0.0
C923 C 0.90564 0.51338 0.95615 0.0
C924 C 0.81081 0.53226 0.01947 0.0
C925 C 0.82973 0.57447 0.01895 0.0
C926 C 0.83352 0.51245 0.01757 0.0
C927 C 0.87616 0.53528 0.0158 0.0
C928 C 0.8949 0.57761 0.01391 0.0
C929 C 0.87167 0.59647 0.01481 0.0
C930 C 0.81198 0.46715 0.01832 0.0
C931 C 0.93987 0.60333 0.01266 0.0
H932 H 0.94473 0.48369 0.07516 0.0
H933 H 0.95378 0.48299 0.97114 0.0
H934 H 0.90915 0.55144 0.08019 0.0
H935 H 0.86573 0.50232 0.08147 0.0
H936 H 0.91101 0.51185 0.1023 0.0
H937 H 0.91254 0.49703 0.93719 0.0
H938 H 0.87317 0.50378 0.95486 0.0
H939 H 0.92295 0.54592 0.95036 0.0
H940 H 0.77846 0.5147 0.02245 0.0
H941 H 0.88676 0.62895 0.0131 0.0
H942 H 0.81853 0.4569 0.04158 0.0
H943 H 0.82301 0.45572 0.99827 0.0
H944 H 0.77887 0.45365 0.016 0.0
H945 H 0.95262 0.59922 0.03561 0.0
H946 H 0.95012 0.6358 0.00966 0.0
H947 H 0.95172 0.59354 0.99219 0.0
C948 C 0.80491 0.77028 0.29273 0.0
C949 C 0.78699 0.77521 0.32086 0.0
C950 C 0.84467 0.77729 0.29306 0.0
C951 C 0.86733 0.78942 0.32235 0.0
C952 C 0.84833 0.79149 0.35133 0.0
C953 C 0.80878 0.78496 0.35006 0.0
C954 C 0.86339 0.77467 0.26146 0.0
C955 C 0.87076 0.80351 0.38327 0.0
C956 C 0.96708 0.78942 0.31977 0.0
C957 C 0.99458 0.82964 0.31197 0.0
C958 C 0.92601 0.77629 0.32516 0.0
C959 C 0.91172 0.80376 0.32176 0.0
C960 C 0.93982 0.84482 0.31535 0.0
C961 C 0.98085 0.85725 0.31073 0.0
C962 C 0.89757 0.73256 0.33273 0.0
C963 C 0.92617 0.87523 0.31123 0.0
H964 H 0.78868 0.76355 0.26986 0.0
H965 H 0.79647 0.79099 0.37135 0.0
H966 H 0.88719 0.80521 0.25404 0.0
H967 H 0.87789 0.75613 0.26463 0.0
H968 H 0.84096 0.76157 0.24149 0.0
H969 H 0.85036 0.79808 0.40426 0.0
H970 H 0.88694 0.7867 0.38727 0.0
H971 H 0.89357 0.83598 0.38267 0.0
H972 H 0.97743 0.76782 0.32013 0.0
H973 H 1.00177 0.88809 0.3039 0.0
H974 H 0.87835 0.71768 0.31121 0.0
H975 H 0.87734 0.72956 0.35321 0.0
H976 H 0.91389 0.71641 0.33911 0.0
H977 H 0.90649 0.86743 0.28948 0.0
H978 H 0.95184 0.90629 0.30819 0.0
H979 H 0.90815 0.87461 0.33261 0.0
C980 C 0.19407 0.13194 0.31128 0.0
C981 C 0.22215 0.17306 0.30879 0.0
C982 C 0.20658 0.10324 0.31477 0.0
C983 C 0.24826 0.11588 0.31609 0.0
C984 C 0.27657 0.15763 0.31586 0.0
C985 C 0.26324 0.18559 0.31184 0.0
C986 C 0.17522 0.05917 0.31494 0.0
C987 C 0.32112 0.17271 0.31804 0.0
C988 C 0.27285 0.03473 0.342 0.0
C989 C 0.27627 0.01927 0.31198 0.0
C990 C 0.26609 0.0676 0.34395 0.0
C991 C 0.262 0.08535 0.315 0.0
C992 C 0.26821 0.07166 0.28459 0.0
C993 C 0.27534 0.03902 0.28349 0.0
C994 C 0.26042 0.0813 0.377 0.0
C995 C 0.26461 0.08967 0.25299 0.0
H996 H 0.16239 0.12201 0.30821 0.0
H997 H 0.28513 0.2173 0.30945 0.0
H998 H 0.17834 0.04463 0.2926 0.0
H999 H 0.17979 0.04399 0.33613 0.0
H1000 H 0.14412 0.05421 0.31591 0.0
H1001 H 0.33881 0.20576 0.32177 0.0
H1002 H 0.32754 0.15769 0.33835 0.0
H1003 H 0.33152 0.16528 0.29521 0.0
H1004 H 0.27237 0.01934 0.3639 0.0
H1005 H 0.27759 0.02719 0.26007 0.0
H1006 H 0.22779 0.06838 0.38179 0.0
H1007 H 0.27464 0.11451 0.37802 0.0
H1008 H 0.27323 0.07137 0.39672 0.0
H1009 H 0.23307 0.08271 0.24972 0.0
H1010 H 0.2733 0.07793 0.23159 0.0
H1011 H 0.28386 0.12286 0.25355 0.0
C1012 C 1.01922 0.24328 0.34627 0.0
C1013 C 0.03179 0.26445 0.31678 0.0
C1014 C 0.98631 0.2037 0.34786 0.0
C1015 C 0.96562 0.18406 0.31899 0.0
C1016 C 0.9767 0.206 0.28932 0.0
C1017 C 1.00948 0.24575 0.28862 0.0
C1018 C 0.9754 0.18201 0.38016 0.0
C1019 C 0.95569 0.18662 0.25783 0.0
C1020 C 0.9177 0.06978 0.31047 0.0
C1021 C 0.87651 0.05689 0.31185 0.0
C1022 C 0.94696 0.11081 0.31389 0.0
C1023 C 0.93486 0.13983 0.31916 0.0
C1024 C 0.89328 0.12651 0.32259 0.0
C1025 C 0.86469 0.0854 0.31848 0.0
C1026 C 0.9908 0.12339 0.30985 0.0
C1027 C 0.87882 0.15593 0.32887 0.0
H1028 H 0.03699 0.25622 0.36768 0.0
H1029 H 1.01931 0.26144 0.26553 0.0
H1030 H 0.94262 0.16818 0.3847 0.0
H1031 H 0.98251 0.15734 0.37963 0.0
H1032 H 0.99191 0.20229 0.40079 0.0
H1033 H 0.96555 0.20849 0.2374 0.0
H1034 H 0.96211 0.16233 0.25127 0.0
H1035 H 0.92264 0.17263 0.26071 0.0
H1036 H 0.92699 0.0481 0.30453 0.0
H1037 H 0.83286 0.07572 0.31896 0.0
H1038 H 1.00852 0.1421 0.3308 0.0
H1039 H 1.00286 0.14205 0.28757 0.0
H1040 H 0.99553 0.09719 0.30777 0.0
H1041 H 0.89613 0.17661 0.34906 0.0
H1042 H 0.84629 0.14052 0.33506 0.0
H1043 H 0.88387 0.17459 0.30683 0.0
C1044 C 0.22817 0.79612 0.32317 0.0
C1045 C 0.23687 0.81567 0.35344 0.0
C1046 C 0.2116 0.75403 0.32101 0.0
C1047 C 0.20252 0.73062 0.34986 0.0
C1048 C 0.2105 0.75036 0.38047 0.0
C1049 C 0.22826 0.79253 0.38184 0.0
C1050 C 0.20411 0.73478 0.28778 0.0
C1051 C 0.19992 0.72688 0.41191 0.0
C1052 C 0.12155 0.61962 0.34824 0.0
C1053 C 0.14369 0.59979 0.35221 0.0
C1054 C 0.14035 0.6617 0.34696 0.0
C1055 C 0.18275 0.6854 0.34835 0.0
C1056 C 0.20566 0.66566 0.35017 0.0
C1057 C 0.18593 0.62318 0.35237 0.0
C1058 C 0.11453 0.68086 0.34549 0.0
C1059 C 0.251 0.6895 0.35064 0.0
H1060 H 0.23546 0.81388 0.30108 0.0
H1061 H 0.23517 0.80752 0.4053 0.0
H1062 H 0.21547 0.71329 0.28669 0.0
H1063 H 0.17132 0.71761 0.28294 0.0
H1064 H 0.21866 0.75742 0.26811 0.0
H1065 H 0.20738 0.74656 0.43368 0.0
H1066 H 0.16725 0.70459 0.41241 0.0
H1067 H 0.21627 0.70993 0.41356 0.0
H1068 H 0.08902 0.60215 0.34687 0.0
H1069 H 0.20358 0.60849 0.35527 0.0
H1070 H 0.12301 0.70066 0.32389 0.0
H1071 H 0.12007 0.69968 0.36751 0.0
H1072 H 0.08189 0.65849 0.34413 0.0
H1073 H 0.26227 0.71136 0.33021 0.0
H1074 H 0.26456 0.6699 0.34877 0.0
H1075 H 0.26141 0.70697 0.37361 0.0
C1076 C 0.25578 0.43903 0.3259 0.0
C1077 C 0.23632 0.42837 0.35624 0.0
C1078 C 0.29792 0.46434 0.32362 0.0
C1079 C 0.32147 0.47868 0.3524 0.0
C1080 C 0.30181 0.4671 0.38307 0.0
C1081 C 0.25961 0.44287 0.38456 0.0
C1082 C 0.3171 0.47589 0.29033 0.0
C1083 C 0.32542 0.48005 0.41444 0.0
C1084 C 0.43256 0.5087 0.35089 0.0
C1085 C 0.45237 0.55064 0.3548 0.0
C1086 C 0.39046 0.48542 0.34948 0.0
C1087 C 0.36672 0.5041 0.35079 0.0
C1088 C 0.38646 0.54673 0.35257 0.0
C1089 C 0.42897 0.56947 0.35482 0.0
C1090 C 0.3713 0.44048 0.34798 0.0
C1091 C 0.3626 0.5682 0.353 0.0
H1092 H 0.23791 0.4286 0.30387 0.0
H1093 H 0.24469 0.43493 0.40807 0.0
H1094 H 0.33884 0.50865 0.2892 0.0
H1095 H 0.33399 0.45998 0.2854 0.0
H1096 H 0.2944 0.46795 0.27074 0.0
H1097 H 0.3058 0.46793 0.43626 0.0
H1098 H 0.3477 0.46964 0.41486 0.0
H1099 H 0.34243 0.51333 0.41606 0.0
H1100 H 0.45008 0.49367 0.34967 0.0
H1101 H 0.44367 0.60181 0.35769 0.0
H1102 H 0.35134 0.42914 0.32647 0.0
H1103 H 0.3526 0.42724 0.37008 0.0
H1104 H 0.39368 0.43024 0.34642 0.0
H1105 H 0.34076 0.55755 0.33255 0.0
H1106 H 0.38221 0.60133 0.3511 0.0
H1107 H 0.34507 0.56119 0.37596 0.0
C1108 C 0.54139 0.92973 0.34561 0.0
C1109 C 0.49957 0.90824 0.35047 0.0
C1110 C 0.56429 0.91049 0.34516 0.0
C1111 C 0.54528 0.86824 0.34837 0.0
C1112 C 0.50269 0.84586 0.35105 0.0
C1113 C 0.48035 0.86608 0.35237 0.0
C1114 C 0.60922 0.93575 0.34266 0.0
C1115 C 0.48085 0.80063 0.35333 0.0
C1116 C 0.60944 0.82059 0.32587 0.0
C1117 C 0.62074 0.81368 0.35661 0.0
C1118 C 0.58406 0.83722 0.32271 0.0
C1119 C 0.57041 0.84824 0.35098 0.0
C1120 C 0.58259 0.842 0.38204 0.0
C1121 C 0.60676 0.82406 0.38445 0.0
C1122 C 0.57186 0.84278 0.28905 0.0
C1123 C 0.57048 0.85476 0.41283 0.0
H1124 H 0.55664 0.96211 0.34289 0.0
H1125 H 0.44807 0.84894 0.35596 0.0
H1126 H 0.62297 0.93049 0.36447 0.0
H1127 H 0.61967 0.92651 0.3209 0.0
H1128 H 0.61982 0.96841 0.34085 0.0
H1129 H 0.44768 0.7873 0.3519 0.0
H1130 H 0.49079 0.78798 0.33342 0.0
H1131 H 0.48831 0.79146 0.37673 0.0
H1132 H 0.61944 0.81184 0.30425 0.0
H1133 H 0.61516 0.81847 0.40826 0.0
H1134 H 0.58918 0.875 0.28224 0.0
H1135 H 0.53943 0.83343 0.28838 0.0
H1136 H 0.57785 0.82539 0.27042 0.0
H1137 H 0.58112 0.88745 0.41189 0.0
H1138 H 0.58301 0.84853 0.43502 0.0
H1139 H 0.53722 0.83883 0.41497 0.0
C1140 C 0.62911 0.11459 0.65507 0.0
C1141 C 0.65858 0.1556 0.65476 0.0
C1142 C 0.58809 0.10182 0.6602 0.0
C1143 C 0.57583 0.1307 0.66484 0.0
C1144 C 0.60588 0.17191 0.6674 0.0
C1145 C 0.64682 0.18385 0.6624 0.0
C1146 C 0.55768 0.05758 0.65773 0.0
C1147 C 0.59448 0.20384 0.67261 0.0
C1148 C 0.47764 0.11303 0.62688 0.0
C1149 C 0.4533 0.10764 0.65415 0.0
C1150 C 0.51674 0.11906 0.63008 0.0
C1151 C 0.53215 0.11892 0.6614 0.0
C1152 C 0.50638 0.10973 0.68885 0.0
C1153 C 0.46738 0.10455 0.68498 0.0
C1154 C 0.54241 0.12797 0.59989 0.0
C1155 C 0.52064 0.10717 0.72245 0.0
H1156 H 0.63788 0.09251 0.64915 0.0
H1157 H 0.6692 0.21556 0.66187 0.0
H1158 H 0.53293 0.04876 0.67558 0.0
H1159 H 0.54417 0.05094 0.63302 0.0
H1160 H 0.57179 0.03875 0.66176 0.0
H1161 H 0.62108 0.23365 0.67805 0.0
H1162 H 0.5797 0.20662 0.65032 0.0
H1163 H 0.5726 0.19531 0.69293 0.0
H1164 H 0.46691 0.11504 0.60291 0.0
H1165 H 0.44876 0.09992 0.70619 0.0
H1166 H 0.55453 0.10717 0.59824 0.0
H1167 H 0.56846 0.159 0.60129 0.0
H1168 H 0.52543 0.1252 0.57721 0.0
H1169 H 0.4957 0.09494 0.7405 0.0
H1170 H 0.54414 0.13756 0.73036 0.0
H1171 H 0.53453 0.08784 0.72225 0.0
C1172 C 0.92675 0.36258 0.68431 0.0
C1173 C 0.94007 0.35304 0.65562 0.0
C1174 C 0.92007 0.39544 0.68599 0.0
C1175 C 0.92521 0.41873 0.65776 0.0
C1176 C 0.94046 0.41047 0.62903 0.0
C1177 C 0.94772 0.37788 0.62836 0.0
C1178 C 0.90461 0.40331 0.71737 0.0
C1179 C 0.94623 0.43411 0.59819 0.0
C1180 C 0.85693 0.46353 0.64431 0.0
C1181 C 0.88352 0.50475 0.64856 0.0
C1182 C 0.8698 0.43524 0.64829 0.0
C1183 C 0.91031 0.44833 0.65704 0.0
C1184 C 0.93666 0.48979 0.6632 0.0
C1185 C 0.92313 0.51753 0.65842 0.0
C1186 C 0.84059 0.39152 0.64115 0.0
C1187 C 0.97971 0.50512 0.67327 0.0
H1188 H 0.91804 0.34241 0.70466 0.0
H1189 H 0.95692 0.37016 0.60576 0.0
H1190 H 0.92156 0.43581 0.72344 0.0
H1191 H 0.87254 0.39467 0.71446 0.0
H1192 H 0.90701 0.38607 0.73811 0.0
H1193 H 0.96182 0.42664 0.57893 0.0
H1194 H 0.91645 0.42752 0.58875 0.0
H1195 H 0.96388 0.46683 0.60318 0.0
H1196 H 0.82666 0.45368 0.63579 0.0
H1197 H 0.94406 0.54947 0.66094 0.0
H1198 H 0.83912 0.37252 0.66203 0.0
H1199 H 0.85119 0.38177 0.61969 0.0
H1200 H 0.80977 0.3859 0.63607 0.0
H1201 H 0.98113 0.48659 0.69339 0.0
H1202 H 0.99473 0.53702 0.68125 0.0
H1203 H 0.99683 0.50269 0.65245 0.0
C1204 C 0.66755 0.58292 0.63708 0.0
C1205 C 0.69781 0.59632 0.66082 0.0
C1206 C 0.63544 0.5428 0.63662 0.0
C1207 C 0.63439 0.51459 0.65953 0.0
C1208 C 0.66419 0.5283 0.68417 0.0
C1209 C 0.6951 0.56888 0.6846 0.0
C1210 C 0.60431 0.52996 0.61004 0.0
C1211 C 0.66498 0.49961 0.70891 0.0
C1212 C 0.54074 0.40904 0.66329 0.0
C1213 C 0.55152 0.38748 0.64187 0.0
C1214 C 0.5676 0.45016 0.67001 0.0
C1215 C 0.60598 0.47023 0.65478 0.0
C1216 C 0.6174 0.4479 0.63422 0.0
C1217 C 0.59008 0.40708 0.62795 0.0
C1218 C 0.55441 0.47254 0.69241 0.0
C1219 C 0.65822 0.46744 0.61803 0.0
H1220 H 0.67013 0.60331 0.61776 0.0
H1221 H 0.71939 0.57816 0.70168 0.0
H1222 H 0.60947 0.51166 0.59179 0.0
H1223 H 0.57364 0.51094 0.62018 0.0
H1224 H 0.60557 0.55614 0.59739 0.0
H1225 H 0.69428 0.51263 0.72175 0.0
H1226 H 0.64099 0.49211 0.72724 0.0
H1227 H 0.65916 0.4711 0.69729 0.0
H1228 H 0.51068 0.39426 0.67357 0.0
H1229 H 0.59829 0.39068 0.61101 0.0
H1230 H 0.55354 0.49704 0.67878 0.0
H1231 H 0.57648 0.48674 0.71246 0.0
H1232 H 0.52423 0.45257 0.70314 0.0
H1233 H 0.66138 0.4916 0.60138 0.0
H1234 H 0.66313 0.44563 0.60379 0.0
H1235 H 0.68227 0.48159 0.63667 0.0
C1236 C 0.85127 0.95623 0.68911 0.0
C1237 C 0.80904 0.93311 0.69031 0.0
C1238 C 0.8711 0.99864 0.68636 0.0
C1239 C 0.84832 0.01854 0.68521 0.0
C1240 C 0.80585 0.99502 0.68501 0.0
C1241 C 0.78691 0.95299 0.68701 0.0
C1242 C 0.91644 0.02227 0.68567 0.0
C1243 C 0.78022 0.01437 0.6841 0.0
C1244 C 0.89506 0.12553 0.71893 0.0
C1245 C 0.90322 0.14878 0.69065 0.0
C1246 C 0.87712 0.08338 0.71742 0.0
C1247 C 0.86834 0.06374 0.68674 0.0
C1248 C 0.87694 0.08725 0.65798 0.0
C1249 C 0.89388 0.12938 0.6603 0.0
C1250 C 0.86724 0.05983 0.74879 0.0
C1251 C 0.86841 0.06807 0.62469 0.0
H1252 H 0.86885 0.9414 0.69149 0.0
H1253 H 0.75432 0.9356 0.6868 0.0
H1254 H 0.92702 0.04389 0.66507 0.0
H1255 H 0.9278 0.03999 0.70845 0.0
H1256 H 0.92976 1.0025 0.68329 0.0
H1257 H 0.74753 0.99213 0.68292 0.0
H1258 H 0.78612 0.03308 0.70624 0.0
H1259 H 0.78858 0.03428 0.66259 0.0
H1260 H 0.90249 0.14042 0.74243 0.0
H1261 H 0.90089 0.14725 0.63831 0.0
H1262 H 0.88332 0.04257 0.74977 0.0
H1263 H 0.83453 0.0378 0.74985 0.0
H1264 H 0.87554 0.07948 0.77063 0.0
H1265 H 0.87877 0.0458 0.62317 0.0
H1266 H 0.88319 0.09069 0.60503 0.0
H1267 H 0.83553 0.05182 0.62019 0.0
C1268 C 0.92643 0.77926 0.71997 0.0
C1269 C 0.90266 0.7639 0.69198 0.0
C1270 C 0.96861 0.80309 0.71799 0.0
C1271 C 0.98782 0.81324 0.68711 0.0
C1272 C 0.96381 0.79797 0.65862 0.0
C1273 C 0.92161 0.77326 0.66142 0.0
C1274 C 0.99268 0.81719 0.7491 0.0
C1275 C 0.98255 0.80794 0.62514 0.0
C1276 C 0.09553 0.90352 0.68798 0.0
C1277 C 0.11866 0.88443 0.68923 0.0
C1278 C 0.05304 0.88095 0.68571 0.0
C1279 C 0.03305 0.83828 0.68509 0.0
C1280 C 0.05653 0.81929 0.68503 0.0
C1281 C 0.09865 0.84236 0.68655 0.0
C1282 C 0.02945 0.9027 0.68502 0.0
C1283 C 0.0371 0.7743 0.68456 0.0
H1284 H 0.9119 0.77234 0.74364 0.0
H1285 H 0.90336 0.76222 0.63964 0.0
H1286 H 1.01016 0.85051 0.74971 0.0
H1287 H 0.97333 0.80635 0.77116 0.0
H1288 H 1.01456 0.80631 0.75008 0.0
H1289 H 0.95959 0.79859 0.60559 0.0
H1290 H 1.00384 0.84072 0.62296 0.0
H1291 H 0.99992 0.79234 0.62112 0.0
H1292 H 0.11044 0.93597 0.68994 0.0
H1293 H 0.116 0.82714 0.68637 0.0
H1294 H 1.01214 0.89686 0.70799 0.0
H1295 H 1.00744 0.89126 0.6647 0.0
H1296 H 0.04924 0.9357 0.68218 0.0
H1297 H 1.01792 0.76168 0.70651 0.0
H1298 H 0.05933 0.76381 0.68393 0.0
H1299 H 1.01758 0.76256 0.66284 0.0
C1300 C 0.27157 0.15557 0.71568 0.0
C1301 C 0.28664 0.14676 0.68766 0.0
C1302 C 0.24734 0.17351 0.71371 0.0
C1303 C 0.23628 0.18152 0.68283 0.0
C1304 C 0.25114 0.17222 0.65432 0.0
C1305 C 0.27648 0.15544 0.65709 0.0
C1306 C 0.23391 0.18428 0.74484 0.0
C1307 C 0.24033 0.17986 0.62079 0.0
C1308 C 0.14587 0.19899 0.68482 0.0
C1309 C 0.16502 0.24122 0.68503 0.0
C1310 C 0.16838 0.17898 0.68248 0.0
C1311 C 0.21107 0.20157 0.68083 0.0
C1312 C 0.23003 0.24398 0.67961 0.0
C1313 C 0.207 0.26307 0.68111 0.0
C1314 C 0.1466 0.13367 0.68269 0.0
C1315 C 0.27501 0.26947 0.67817 0.0
H1316 H 0.27911 0.1487 0.73936 0.0
H1317 H 0.28737 0.14802 0.63529 0.0
H1318 H 0.24452 0.21697 0.74521 0.0
H1319 H 0.20058 0.16819 0.74608 0.0
H1320 H 0.24553 0.17667 0.76688 0.0
H1321 H 0.24651 0.16311 0.6017 0.0
H1322 H 0.2081 0.17121 0.6196 0.0
H1323 H 0.25845 0.21237 0.61511 0.0
H1324 H 0.11349 0.18157 0.68764 0.0
H1325 H 0.22226 0.2956 0.68004 0.0
H1326 H 0.15319 0.12293 0.7057 0.0
H1327 H 0.15741 0.12248 0.66232 0.0
H1328 H 0.1135 0.12039 0.68054 0.0
H1329 H 0.28811 0.2643 0.70047 0.0
H1330 H 0.28547 0.30209 0.67623 0.0
H1331 H 0.28632 0.26038 0.65689 0.0
C1332 C 0.1497 0.44061 0.24407 0.0
C1333 C 0.14434 0.40166 0.24432 0.0
C1334 C 0.14502 0.45792 0.21539 0.0
C1335 C 0.13388 0.43551 0.18605 0.0
C1336 C 0.13106 0.39713 0.1857 0.0
C1337 C 0.13652 0.3807 0.21482 0.0
C1338 C 0.14888 0.49896 0.21724 0.0
C1339 C 0.11899 0.37205 0.15512 0.0
C1340 C 0.06284 0.44807 0.12872 0.0
C1341 C 0.0874 0.46806 0.10181 0.0
C1342 C 0.07781 0.43813 0.15622 0.0
C1343 C 0.11895 0.4492 0.15759 0.0
C1344 C 0.14479 0.4723 0.13166 0.0
C1345 C 0.12866 0.48118 0.10388 0.0
C1346 C 0.04891 0.41391 0.18315 0.0
C1347 C 0.1891 0.48617 0.13271 0.0
H1348 H 0.15567 0.45694 0.26686 0.0
H1349 H 0.13177 0.3504 0.21494 0.0
H1350 H 0.16543 0.51747 0.19581 0.0
H1351 H 0.11845 0.49566 0.21712 0.0
H1352 H 0.16459 0.51529 0.23978 0.0
H1353 H 0.12123 0.34446 0.15785 0.0
H1354 H 0.08746 0.36309 0.14901 0.0
H1355 H 0.13808 0.38988 0.13434 0.0
H1356 H 0.03103 0.43825 0.1275 0.0
H1357 H 0.14785 0.49621 0.08313 0.0
H1358 H 0.05997 0.42927 0.20692 0.0
H1359 H 0.04691 0.38413 0.18498 0.0
H1360 H 1.0182 0.40907 0.17901 0.0
H1361 H 0.20211 0.50065 0.15645 0.0
H1362 H 0.20594 0.50778 0.11286 0.0
H1363 H 0.19349 0.45984 0.1304 0.0
C1364 C 0.63224 0.75707 0.22832 0.0
C1365 C 0.65719 0.74683 0.24589 0.0
C1366 C 0.61352 0.73678 0.19901 0.0
C1367 C 0.62038 0.70603 0.18681 0.0
C1368 C 0.64616 0.69635 0.20438 0.0
C1369 C 0.66386 0.71654 0.23353 0.0
C1370 C 0.58579 0.74764 0.18142 0.0
C1371 C 0.65512 0.6644 0.19246 0.0
C1372 C 0.56109 0.62572 0.12203 0.0
C1373 C 0.58704 0.64167 0.09523 0.0
C1374 C 0.56949 0.64774 0.15158 0.0
C1375 C 0.6045 0.68644 0.15423 0.0
C1376 C 0.62873 0.70355 0.12632 0.0
C1377 C 0.62004 0.68088 0.09766 0.0
C1378 C 0.54243 0.62847 0.18055 0.0
C1379 C 0.66624 0.74445 0.12745 0.0
H1380 H 0.62621 0.77978 0.23806 0.0
H1381 H 0.68299 0.7083 0.24694 0.0
H1382 H 0.59634 0.757 0.15607 0.0
H1383 H 0.55523 0.72084 0.17995 0.0
H1384 H 0.58369 0.77228 0.19379 0.0
H1385 H 0.67855 0.66293 0.20729 0.0
H1386 H 0.62729 0.63459 0.1933 0.0
H1387 H 0.66535 0.67019 0.16678 0.0
H1388 H 0.53593 0.59526 0.12068 0.0
H1389 H 0.64059 0.69347 0.07732 0.0
H1390 H 0.53751 0.65076 0.19396 0.0
H1391 H 0.55697 0.61717 0.19756 0.0
H1392 H 0.51282 0.60279 0.17323 0.0
H1393 H 0.6783 0.75588 0.10272 0.0
H1394 H 0.68972 0.74247 0.14176 0.0
H1395 H 0.66021 0.76663 0.13971 0.0
C1396 C 0.39487 0.92395 0.09891 0.0
C1397 C 0.42279 0.96525 0.09692 0.0
C1398 C 0.37003 0.9075 0.1268 0.0
C1399 C 0.37264 0.93303 0.15295 0.0
C1400 C 0.4024 0.97424 0.15159 0.0
C1401 C 0.4272 0.98953 0.12399 0.0
C1402 C 0.33989 0.86315 0.12774 0.0
C1403 C 0.40691 1.00287 0.1787 0.0
C1404 C 0.28684 0.91425 0.21129 0.0
C1405 C 0.30067 0.90686 0.24059 0.0
C1406 C 0.30837 0.91987 0.18188 0.0
C1407 C 0.34433 0.91769 0.18171 0.0
C1408 C 0.35626 0.90685 0.21085 0.0
C1409 C 0.33462 0.90202 0.23983 0.0
C1410 C 0.29465 0.93169 0.15161 0.0
C1411 C 0.39374 0.90342 0.21212 0.0
H1412 H 0.39079 0.90496 0.07804 0.0
H1413 H 0.44899 0.02137 0.12286 0.0
H1414 H 0.34121 0.85011 0.1515 0.0
H1415 H 0.30907 0.85853 0.12522 0.0
H1416 H 0.34507 0.84653 0.10793 0.0
H1417 H 0.43226 0.0338 0.17437 0.0
H1418 H 0.37878 1.00419 0.18108 0.0
H1419 H 0.41199 0.99202 0.20226 0.0
H1420 H 0.26102 0.91861 0.21178 0.0
H1421 H 0.3455 0.89632 0.26244 0.0
H1422 H 0.29502 0.91407 0.13032 0.0
H1423 H 0.3159 0.96383 0.14641 0.0
H1424 H 0.26396 0.92746 0.15437 0.0
H1425 H 0.3955 0.88687 0.1906 0.0
H1426 H 0.39492 0.88792 0.23459 0.0
H1427 H 0.42067 0.93393 0.21168 0.0
C1428 C 0.48469 0.11045 0.90907 0.0
C1429 C 0.48075 0.07207 0.90931 0.0
C1430 C 0.4802 0.12765 0.88024 0.0
C1431 C 0.47044 0.10558 0.85075 0.0
C1432 C 0.46921 0.06792 0.85043 0.0
C1433 C 0.47467 0.0517 0.87968 0.0
C1434 C 0.48275 0.16811 0.88205 0.0
C1435 C 0.45924 0.04348 0.81958 0.0
C1436 C 0.39737 0.11475 0.79341 0.0
C1437 C 0.42132 0.13463 0.76617 0.0
C1438 C 0.41319 0.10592 0.82096 0.0
C1439 C 0.45467 0.11831 0.82221 0.0
C1440 C 0.47989 0.14156 0.79604 0.0
C1441 C 0.46288 0.14909 0.7681 0.0
C1442 C 0.38484 0.0813 0.84806 0.0
C1443 C 0.52456 0.15725 0.79712 0.0
H1444 H 0.48944 0.12639 0.93194 0.0
H1445 H 0.47124 0.02192 0.87975 0.0
H1446 H 0.49859 0.18671 0.86046 0.0
H1447 H 0.45194 0.16384 0.88232 0.0
H1448 H 0.49855 0.18483 0.90443 0.0
H1449 H 0.45793 0.01421 0.82333 0.0
H1450 H 0.42981 0.03779 0.81014 0.0
H1451 H 0.4821 0.06068 0.80063 0.0
H1452 H 0.36538 0.10409 0.79245 0.0
H1453 H 0.48169 0.16423 0.7472 0.0
H1454 H 0.39542 0.09716 0.87168 0.0
H1455 H 0.38429 0.05222 0.85025 0.0
H1456 H 0.35363 0.07501 0.84386 0.0
H1457 H 0.53721 0.17259 0.82066 0.0
H1458 H 0.54068 0.17864 0.77696 0.0
H1459 H 0.53038 0.13178 0.7954 0.0
C1460 C 0.96539 0.42644 0.89478 0.0
C1461 C 0.99369 0.4201 0.91138 0.0
C1462 C 0.94736 0.40541 0.86554 0.0
C1463 C 0.95807 0.37764 0.85261 0.0
C1464 C 0.98754 0.37233 0.86901 0.0
C1465 C 1.00472 0.39338 0.89797 0.0
C1466 C 0.91592 0.41184 0.84909 0.0
C1467 C 1.00067 0.34381 0.85624 0.0
C1468 C 0.89939 0.29176 0.79192 0.0
C1469 C 0.92231 0.30786 0.76359 0.0
C1470 C 0.90839 0.31523 0.82068 0.0
C1471 C 0.94097 0.3556 0.82103 0.0
C1472 C 0.96206 0.3725 0.79169 0.0
C1473 C 0.9529 0.3484 0.76377 0.0
C1474 C 0.88488 0.29594 0.85129 0.0
C1475 C 0.99685 0.41513 0.79041 0.0
H1476 H 0.95603 0.44634 0.90537 0.0
H1477 H 0.02653 0.38826 0.91063 0.0
H1478 H 0.92357 0.41948 0.82302 0.0
H1479 H 0.88647 0.38356 0.84997 0.0
H1480 H 0.91266 0.43611 0.86089 0.0
H1481 H 0.02651 0.3458 0.87003 0.0
H1482 H 0.97524 0.31247 0.8577 0.0
H1483 H 1.00931 0.35035 0.83028 0.0
H1484 H 0.87633 0.26029 0.79226 0.0
H1485 H 0.9713 0.36095 0.7422 0.0
H1486 H 0.87738 0.31674 0.86423 0.0
H1487 H 0.90352 0.28924 0.86795 0.0
H1488 H 0.85663 0.26743 0.84605 0.0
H1489 H 0.9884 0.43607 0.80177 0.0
H1490 H 1.00703 0.42522 0.76504 0.0
H1491 H 0.02252 0.41723 0.80446 0.0
C1492 C 0.75919 0.6558 0.79845 0.0
C1493 C 0.75644 0.63172 0.77167 0.0
C1494 C 0.7338 0.63993 0.82569 0.0
C1495 C 0.7047 0.59847 0.82675 0.0
C1496 C 0.70398 0.57323 0.80111 0.0
C1497 C 0.73011 0.59012 0.77404 0.0
C1498 C 0.7368 0.66816 0.85261 0.0
C1499 C 0.6741 0.52878 0.80112 0.0
C1500 C 0.6635 0.56606 0.91258 0.0
C1501 C 0.62957 0.57094 0.91246 0.0
C1502 C 0.68625 0.57144 0.8842 0.0
C1503 C 0.67532 0.58262 0.85475 0.0
C1504 C 0.63921 0.58447 0.85391 0.0
C1505 C 0.61667 0.57855 0.88278 0.0
C1506 C 0.72375 0.56814 0.88639 0.0
C1507 C 0.62597 0.59538 0.82289 0.0
H1508 H 0.78016 0.68783 0.7974 0.0
H1509 H 0.72833 0.57095 0.75415 0.0
H1510 H 0.70851 0.66935 0.85381 0.0
H1511 H 0.74066 0.65703 0.8765 0.0
H1512 H 0.76232 0.69917 0.84895 0.0
H1513 H 0.6844 0.51207 0.78544 0.0
H1514 H 0.66867 0.51605 0.82608 0.0
H1515 H 0.645 0.52383 0.79138 0.0
H1516 H 0.67359 0.5601 0.93549 0.0
H1517 H 0.59074 0.58274 0.88257 0.0
H1518 H 0.75069 0.5986 0.88494 0.0
H1519 H 0.72524 0.55035 0.86567 0.0
H1520 H 0.72514 0.55392 0.90955 0.0
H1521 H 0.64976 0.62541 0.81458 0.0
H1522 H 0.59744 0.59585 0.82596 0.0
H1523 H 0.62192 0.57357 0.80345 0.0
C1524 C 0.76966 0.76413 0.43281 0.0
C1525 C 0.76227 0.79638 0.43037 0.0
C1526 C 0.78343 0.75565 0.46169 0.0
C1527 C 0.78946 0.77952 0.48966 0.0
C1528 C 0.78475 0.81392 0.48691 0.0
C1529 C 0.77108 0.82195 0.45726 0.0
C1530 C 0.78773 0.71867 0.46298 0.0
C1531 C 0.79156 0.84072 0.51587 0.0
C1532 C 0.76045 0.72079 0.56938 0.0
C1533 C 0.79752 0.72787 0.58177 0.0
C1534 C 0.75778 0.73796 0.53998 0.0
C1535 C 0.7932 0.76385 0.52233 0.0
C1536 C 0.83094 0.7713 0.53467 0.0
C1537 C 0.83265 0.7529 0.5641 0.0
C1538 C 0.71673 0.7284 0.52797 0.0
C1539 C 0.86953 0.7995 0.51722 0.0
H1540 H 0.76257 0.74391 0.41233 0.0
H1541 H 0.76484 0.8465 0.45588 0.0
H1542 H 0.81651 0.72558 0.47465 0.0
H1543 H 0.76304 0.6953 0.47799 0.0
H1544 H 0.78659 0.70611 0.43836 0.0
H1545 H 0.79522 0.87018 0.50845 0.0
H1546 H 0.76535 0.82587 0.53254 0.0
H1547 H 0.8186 0.84592 0.52967 0.0
H1548 H 0.73313 0.70167 0.58291 0.0
H1549 H 0.86148 0.75926 0.57388 0.0
H1550 H 0.71321 0.72019 0.50183 0.0
H1551 H 0.7135 0.75541 0.53046 0.0
H1552 H 0.69198 0.70338 0.5418 0.0
H1553 H 0.8686 0.78948 0.49172 0.0
H1554 H 0.89633 0.80163 0.52947 0.0
H1555 H 0.87297 0.82994 0.51615 0.0
C1556 C 0.29059 0.01512 0.42765 0.0
C1557 C 0.25715 0.97631 0.42417 0.0
C1558 C 0.29875 0.03697 0.45673 0.0
C1559 C 0.27343 0.01948 0.48403 0.0
C1560 C 0.23805 0.98123 0.48032 0.0
C1561 C 0.23025 0.96003 0.45037 0.0
C1562 C 0.3367 0.07744 0.45891 0.0
C1563 C 0.2098 0.96159 0.50858 0.0
C1564 C 0.32962 0.04759 0.56496 0.0
C1565 C 0.32326 0.07825 0.57692 0.0
C1566 C 0.31282 0.02789 0.5354 0.0
C1567 C 0.28813 0.03834 0.51707 0.0
C1568 C 0.2814 0.06931 0.52897 0.0
C1569 C 0.29935 0.08919 0.55861 0.0
C1570 C 0.32191 0.99597 0.52367 0.0
C1571 C 0.25485 0.08104 0.51055 0.0
H1572 H 0.31183 0.02805 0.40779 0.0
H1573 H 0.20471 0.92987 0.44825 0.0
H1574 H 0.33104 0.09955 0.47174 0.0
H1575 H 0.3596 0.07435 0.47311 0.0
H1576 H 0.34933 0.08967 0.43447 0.0
H1577 H 0.18038 0.93622 0.50052 0.0
H1578 H 0.22348 0.94978 0.52597 0.0
H1579 H 0.20462 0.9838 0.52184 0.0
H1580 H 0.34802 0.03886 0.57888 0.0
H1581 H 0.29362 0.11227 0.56795 0.0
H1582 H 0.33535 1.00363 0.49896 0.0
H1583 H 0.29363 0.96665 0.52188 0.0
H1584 H 0.34295 0.99244 0.54006 0.0
H1585 H 0.26711 0.09163 0.48576 0.0
H1586 H 0.25196 0.1051 0.52315 0.0
H1587 H 0.22443 0.05438 0.50757 0.0
C1588 C 0.99855 0.29008 0.56566 0.0
C1589 C 0.96884 0.25288 0.5781 0.0
C1590 C 1.01878 0.29303 0.53636 0.0
C1591 C 1.00983 0.25779 0.51871 0.0
C1592 C 0.97958 0.21994 0.53094 0.0
C1593 C 0.9592 0.21793 0.56039 0.0
C1594 C 0.05028 0.33416 0.52458 0.0
C1595 C 0.96956 0.18156 0.51337 0.0
C1596 C 0.03579 0.28195 0.42936 0.0
C1597 C 0.07536 0.28895 0.42736 0.0
C1598 C 1.0129 0.26815 0.458 0.0
C1599 C 0.03003 0.26182 0.48626 0.0
C1600 C 0.06915 0.26635 0.48402 0.0
C1601 C 0.09145 0.27992 0.45457 0.0
C1602 C 0.97164 0.264 0.45871 0.0
C1603 C 0.08851 0.25941 0.51333 0.0
H1604 H 1.00641 0.31729 0.5792 0.0
H1605 H 0.93699 0.189 0.57017 0.0
H1606 H 0.04587 0.33784 0.49842 0.0
H1607 H 0.04973 0.35875 0.53844 0.0
H1608 H 0.08055 0.33747 0.52721 0.0
H1609 H 0.94471 0.15467 0.52539 0.0
H1610 H 0.96089 0.18273 0.4878 0.0
H1611 H 0.99661 0.17814 0.51254 0.0
H1612 H 0.02311 0.2892 0.40867 0.0
H1613 H 0.12218 0.28589 0.45356 0.0
H1614 H 0.97282 0.28893 0.47328 0.0
H1615 H 0.94955 0.23543 0.47055 0.0
H1616 H 0.96059 0.26485 0.43389 0.0
H1617 H 0.09908 0.28533 0.53019 0.0
H1618 H 0.11473 0.25615 0.50639 0.0
H1619 H 0.06645 0.23212 0.52675 0.0
loop_
_geom_bond_atom_site_label_1
_geom_bond_atom_site_label_2
_geom_bond_distance
_geom_bond_site_symmetry_2
_ccdc_geom_bond_type
Eu0 N31 2.657 1_556 S
Eu0 N38 2.609 . S
Eu0 O44 2.558 . S
Eu0 O45 2.612 1_556 S
Eu0 O47 2.339 1_556 S
Eu0 O48 2.563 . S
Eu0 O49 2.419 1_556 S
Eu0 O51 2.375 1_456 S
Eu0 O52 2.432 . S
Eu0 C64 2.848 . S
C1 C4 1.429 . S
C1 C5 1.411 . S
C1 N8 1.359 1_455 S
C2 C4 1.420 1_556 S
C2 C6 1.423 1_556 S
C2 C14 1.392 . S
C3 C5 1.420 . S
C3 C6 1.351 . S
C3 H26 0.931 . S
C4 C1 1.429 . S
C4 C2 1.420 1_554 S
C4 N12 1.362 1_554 S
C5 C1 1.411 . S
C5 C3 1.420 . S
C5 C10 1.395 . S
C6 C2 1.423 1_554 S
C6 C3 1.351 . S
C6 H18 0.930 . S
C7 C9 1.418 . S
C7 C10 1.361 1_655 S
C7 H19 0.937 . S
N8 C1 1.359 1_655 S
N8 C9 1.326 . S
N8 Eu11 2.624 . S
C9 C7 1.418 . S
C9 N8 1.326 . S
C9 H16 0.930 . S
C10 C5 1.395 . S
C10 C7 1.361 1_455 S
C10 H29 0.930 . S
Eu11 N8 2.624 . S
Eu11 N12 2.657 1_654 S
Eu11 O45 2.380 1_655 S
Eu11 O46 2.432 1_655 S
Eu11 O50 2.558 . S
Eu11 O51 2.619 . S
Eu11 O53 2.339 1_554 S
Eu11 O54 2.563 . S
Eu11 O55 2.419 1_554 S
Eu11 C75 2.848 . S
N12 C4 1.362 1_556 S
N12 Eu11 2.657 1_456 S
N12 C13 1.334 . S
C13 N12 1.334 . S
C13 C15 1.413 . S
C13 H20 0.929 . S
C14 C2 1.392 . S
C14 C15 1.367 . S
C14 H22 0.930 . S
C15 C13 1.413 . S
C15 C14 1.367 . S
C15 H17 0.930 . S
H16 C9 0.930 . S
H17 C15 0.930 . S
H18 C6 0.930 . S
H19 C7 0.937 . S
H20 C13 0.929 . S
H21 C35 0.930 . S
H22 C14 0.930 . S
H23 C41 0.930 . S
H24 C32 0.929 1_455 S
H25 C39 0.930 . S
H26 C3 0.931 . S
H27 C33 0.930 . S
H28 C66 0.930 . S
H29 C10 0.930 . S
H30 C65 0.931 . S
N31 Eu0 2.657 1_554 S
N31 C32 1.334 1_455 S
N31 C36 1.362 1_454 S
C32 H24 0.929 1_655 S
C32 N31 1.334 1_655 S
C32 C35 1.413 . S
C33 H27 0.930 . S
C33 C34 1.392 . S
C33 C35 1.367 . S
C34 C33 1.392 . S
C34 C36 1.420 1_554 S
C34 C66 1.423 1_554 S
C35 H21 0.930 . S
C35 C32 1.413 . S
C35 C33 1.367 . S
C36 N31 1.362 1_656 S
C36 C34 1.420 1_556 S
C36 C40 1.429 . S
H37 C42 0.930 . S
N38 Eu0 2.609 . S
N38 C40 1.377 1_455 S
N38 C41 1.321 . S
C39 H25 0.930 . S
C39 C41 1.400 . S
C39 C42 1.386 1_455 S
C40 C36 1.429 . S
C40 N38 1.377 1_655 S
C40 C43 1.411 . S
C41 H23 0.930 . S
C41 N38 1.321 . S
C41 C39 1.400 . S
C42 H37 0.930 . S
C42 C39 1.386 1_655 S
C42 C43 1.395 . S
C43 C40 1.411 . S
C43 C42 1.395 . S
C43 C65 1.420 . S
O44 Eu0 2.558 . S
O44 C64 1.257 . S
O45 Eu0 2.612 1_554 S
O45 Eu11 2.380 1_455 S
O45 C56 1.276 1_554 S
O46 Eu11 2.432 1_455 S
O46 C63 1.264 . S
O47 Eu0 2.339 1_554 S
O47 C63 1.254 . S
O48 Eu0 2.563 . S
O48 C56 1.235 . S
O49 Eu0 2.419 1_554 S
O49 C64 1.249 1_554 S
O50 Eu11 2.558 . S
O50 C75 1.257 . S
O51 Eu0 2.375 1_654 S
O51 Eu11 2.619 . S
O51 C67 1.282 . S
O52 Eu0 2.432 . S
O52 C74 1.264 1_455 S
O53 Eu11 2.339 1_556 S
O53 C74 1.254 . S
O54 Eu11 2.563 . S
O54 C67 1.235 . S
O55 Eu11 2.419 1_556 S
O55 C75 1.249 1_556 S
C56 O45 1.276 1_556 S
C56 O48 1.235 . S
C57 C59 1.393 1_556 S
C57 C61 1.395 . S
C57 C64 1.492 . S
C58 C59 1.392 . S
C58 C60 1.386 1_554 S
C59 C57 1.393 1_554 S
C59 C58 1.392 . S
C59 H76 0.930 . S
C60 C58 1.386 1_556 S
C60 C62 1.395 . S
C60 H77 0.930 . S
C61 C57 1.395 . S
C61 C62 1.379 . S
C61 H78 0.930 . S
C62 C60 1.395 . S
C62 C61 1.379 . S
C62 H79 0.930 . S
C63 O46 1.264 . S
C63 O47 1.254 . S
C64 Eu0 2.848 . S
C64 O44 1.257 . S
C64 O49 1.249 1_556 S
C64 C57 1.492 . S
C65 H30 0.931 . S
C65 C43 1.420 . S
C65 C66 1.351 . S
C66 H28 0.930 . S
C66 C34 1.423 1_556 S
C66 C65 1.351 . S
C67 O51 1.282 . S
C67 O54 1.235 . S
C68 C69 1.393 1_554 S
C68 C72 1.395 . S
C68 C75 1.492 . S
C69 C68 1.393 1_556 S
C69 C70 1.392 . S
C69 H80 0.930 . S
C70 C69 1.392 . S
C70 C71 1.386 1_556 S
C71 C70 1.386 1_554 S
C71 C73 1.395 . S
C71 H81 0.930 . S
C72 C68 1.395 . S
C72 C73 1.379 . S
C72 H82 0.930 . S
C73 C71 1.395 . S
C73 C72 1.379 . S
C73 H83 0.930 . S
C74 O52 1.264 1_655 S
C74 O53 1.254 . S
C75 Eu11 2.848 . S
C75 O50 1.257 . S
C75 O55 1.249 1_554 S
C75 C68 1.492 . S
H76 C59 0.930 . S
H77 C60 0.930 . S
H78 C61 0.930 . S
H79 C62 0.930 . S
H80 C69 0.930 . S
H81 C71 0.930 . S
H82 C72 0.930 . S
H83 C73 0.930 . S
Eu84 N115 2.657 1_556 S
Eu84 N122 2.609 . S
Eu84 O128 2.558 . S
Eu84 O129 2.612 1_556 S
Eu84 O131 2.339 1_556 S
Eu84 O132 2.563 . S
Eu84 O133 2.419 1_556 S
Eu84 O135 2.375 1_556 S
Eu84 O136 2.432 . S
Eu84 C148 2.848 . S
C85 C88 1.429 . S
C85 C89 1.411 . S
C85 N92 1.377 . S
C86 C88 1.420 1_556 S
C86 C90 1.423 1_556 S
C86 C98 1.392 . S
C87 C89 1.420 . S
C87 C90 1.351 . S
C87 H110 0.931 . S
C88 C85 1.429 . S
C88 C86 1.420 1_554 S
C88 N96 1.362 1_554 S
C89 C85 1.411 . S
C89 C87 1.420 . S
C89 C94 1.395 . S
C90 C86 1.423 1_554 S
C90 C87 1.351 . S
C90 H102 0.930 . S
C91 C93 1.400 . S
C91 C94 1.386 . S
C91 H103 0.930 . S
N92 C85 1.377 . S
N92 C93 1.321 . S
N92 Eu95 2.609 . S
C93 C91 1.400 . S
C93 N92 1.321 . S
C93 H100 0.930 . S
C94 C89 1.395 . S
C94 C91 1.386 . S
C94 H113 0.930 . S
Eu95 N92 2.609 . S
Eu95 N96 2.657 1_554 S
Eu95 O129 2.380 . S
Eu95 O130 2.432 . S
Eu95 O134 2.558 . S
Eu95 O135 2.619 . S
Eu95 O137 2.339 1_554 S
Eu95 O138 2.563 . S
Eu95 O139 2.419 1_554 S
Eu95 C159 2.848 . S
N96 C88 1.362 1_556 S
N96 Eu95 2.657 1_556 S
N96 C97 1.334 . S
C97 N96 1.334 . S
C97 C99 1.413 . S
C97 H104 0.929 . S
C98 C86 1.392 . S
C98 C99 1.367 . S
C98 H106 0.930 . S
C99 C97 1.413 . S
C99 C98 1.367 . S
C99 H101 0.930 . S
H100 C93 0.930 . S
H101 C99 0.930 . S
H102 C90 0.930 . S
H103 C91 0.930 . S
H104 C97 0.929 . S
H105 C119 0.930 . S
H106 C98 0.930 . S
H107 C125 0.930 . S
H108 C116 0.929 . S
H109 C123 0.930 . S
H110 C87 0.931 . S
H111 C117 0.930 . S
H112 C150 0.930 . S
H113 C94 0.930 . S
H114 C149 0.931 . S
N115 Eu84 2.657 1_554 S
N115 C116 1.334 . S
N115 C120 1.362 1_554 S
C116 H108 0.929 . S
C116 N115 1.334 . S
C116 C119 1.413 . S
C117 H111 0.930 . S
C117 C118 1.392 . S
C117 C119 1.367 . S
C118 C117 1.392 . S
C118 C120 1.420 1_554 S
C118 C150 1.423 1_554 S
C119 H105 0.930 . S
C119 C116 1.413 . S
C119 C117 1.367 . S
C120 N115 1.362 1_556 S
C120 C118 1.420 1_556 S
C120 C124 1.429 . S
H121 C126 0.930 . S
N122 Eu84 2.609 . S
N122 C124 1.377 . S
N122 C125 1.321 . S
C123 H109 0.930 . S
C123 C125 1.400 . S
C123 C126 1.386 . S
C124 C120 1.429 . S
C124 N122 1.377 . S
C124 C127 1.411 . S
C125 H107 0.930 . S
C125 N122 1.321 . S
C125 C123 1.400 . S
C126 H121 0.930 . S
C126 C123 1.386 . S
C126 C127 1.395 . S
C127 C124 1.411 . S
C127 C126 1.395 . S
C127 C149 1.420 . S
O128 Eu84 2.558 . S
O128 C148 1.257 . S
O129 Eu84 2.612 1_554 S
O129 Eu95 2.380 . S
O129 C140 1.276 1_554 S
O130 Eu95 2.432 . S
O130 C147 1.264 . S
O131 Eu84 2.339 1_554 S
O131 C147 1.254 . S
O132 Eu84 2.563 . S
O132 C140 1.235 . S
O133 Eu84 2.419 1_554 S
O133 C148 1.249 1_554 S
O134 Eu95 2.558 . S
O134 C159 1.257 . S
O135 Eu84 2.375 1_554 S
O135 Eu95 2.619 . S
O135 C151 1.282 . S
O136 Eu84 2.432 . S
O136 C158 1.264 . S
O137 Eu95 2.339 1_556 S
O137 C158 1.254 . S
O138 Eu95 2.563 . S
O138 C151 1.235 . S
O139 Eu95 2.419 1_556 S
O139 C159 1.249 1_556 S
C140 O129 1.276 1_556 S
C140 O132 1.235 . S
C141 C143 1.393 1_556 S
C141 C145 1.395 . S
C141 C148 1.492 . S
C142 C143 1.392 . S
C142 C144 1.386 1_554 S
C143 C141 1.393 1_554 S
C143 C142 1.392 . S
C143 H160 0.930 . S
C144 C142 1.386 1_556 S
C144 C146 1.395 . S
C144 H161 0.930 . S
C145 C141 1.395 . S
C145 C146 1.379 . S
C145 H162 0.930 . S
C146 C144 1.395 . S
C146 C145 1.379 . S
C146 H163 0.930 . S
C147 O130 1.264 . S
C147 O131 1.254 . S
C148 Eu84 2.848 . S
C148 O128 1.257 . S
C148 O133 1.249 1_556 S
C148 C141 1.492 . S
C149 H114 0.931 . S
C149 C127 1.420 . S
C149 C150 1.351 . S
C150 H112 0.930 . S
C150 C118 1.423 1_556 S
C150 C149 1.351 . S
C151 O135 1.282 . S
C151 O138 1.235 . S
C152 C153 1.393 1_554 S
C152 C156 1.395 . S
C152 C159 1.492 . S
C153 C152 1.393 1_556 S
C153 C154 1.392 . S
C153 H164 0.930 . S
C154 C153 1.392 . S
C154 C155 1.386 1_556 S
C155 C154 1.386 1_554 S
C155 C157 1.395 . S
C155 H165 0.930 . S
C156 C152 1.395 . S
C156 C157 1.379 . S
C156 H166 0.930 . S
C157 C155 1.395 . S
C157 C156 1.379 . S
C157 H167 0.930 . S
C158 O136 1.264 . S
C158 O137 1.254 . S
C159 Eu95 2.848 . S
C159 O134 1.257 . S
C159 O139 1.249 1_554 S
C159 C152 1.492 . S
H160 C143 0.930 . S
H161 C144 0.930 . S
H162 C145 0.930 . S
H163 C146 0.930 . S
H164 C153 0.930 . S
H165 C155 0.930 . S
H166 C156 0.930 . S
H167 C157 0.930 . S
Eu168 N199 2.657 1_566 S
Eu168 N206 2.609 . S
Eu168 O212 2.558 . S
Eu168 O213 2.612 1_556 S
Eu168 O215 2.339 1_556 S
Eu168 O216 2.563 . S
Eu168 O217 2.419 1_556 S
Eu168 O219 2.375 1_566 S
Eu168 O220 2.421 1_565 S
Eu168 C232 2.848 . S
C169 C172 1.429 . S
C169 C173 1.411 . S
C169 N176 1.377 1_565 S
C170 C172 1.420 1_556 S
C170 C174 1.423 1_556 S
C170 C182 1.392 . S
C171 C173 1.420 . S
C171 C174 1.351 . S
C171 H194 0.931 . S
C172 C169 1.429 . S
C172 C170 1.420 1_554 S
C172 N180 1.362 1_564 S
C173 C169 1.411 . S
C173 C171 1.420 . S
C173 C178 1.395 . S
C174 C170 1.423 1_554 S
C174 C171 1.351 . S
C174 H186 0.930 . S
C175 C177 1.400 . S
C175 C178 1.386 1_545 S
C175 H187 0.930 . S
N176 C169 1.377 1_545 S
N176 C177 1.321 . S
N176 Eu179 2.609 . S
C177 C175 1.400 . S
C177 N176 1.321 . S
C177 H184 0.930 . S
C178 C173 1.395 . S
C178 C175 1.386 1_565 S
C178 H197 0.930 . S
Eu179 N176 2.609 . S
Eu179 N180 2.657 1_554 S
Eu179 O213 2.380 1_545 S
Eu179 O214 2.432 . S
Eu179 O218 2.558 . S
Eu179 O219 2.619 . S
Eu179 O221 2.339 1_554 S
Eu179 O222 2.563 . S
Eu179 O223 2.419 1_554 S
Eu179 C243 2.848 . S
N180 C172 1.362 1_546 S
N180 Eu179 2.657 1_556 S
N180 C181 1.334 1_545 S
C181 N180 1.334 1_565 S
C181 C183 1.413 . S
C181 H188 0.929 1_565 S
C182 C170 1.392 . S
C182 C183 1.367 . S
C182 H190 0.930 . S
C183 C181 1.413 . S
C183 C182 1.367 . S
C183 H185 0.930 . S
H184 C177 0.930 . S
H185 C183 0.930 . S
H186 C174 0.930 . S
H187 C175 0.930 . S
H188 C181 0.929 1_545 S
H189 C203 0.930 . S
H190 C182 0.930 . S
H191 C209 0.930 . S
H192 C200 0.929 . S
H193 C207 0.930 . S
H194 C171 0.931 . S
H195 C201 0.930 . S
H196 C234 0.930 . S
H197 C178 0.930 . S
H198 C233 0.931 . S
N199 Eu168 2.657 1_544 S
N199 C200 1.334 . S
N199 C204 1.362 1_554 S
C200 H192 0.929 . S
C200 N199 1.334 . S
C200 C203 1.413 . S
C201 H195 0.930 . S
C201 C202 1.392 . S
C201 C203 1.367 . S
C202 C201 1.392 . S
C202 C204 1.420 1_554 S
C202 C234 1.423 1_554 S
C203 H189 0.930 . S
C203 C200 1.413 . S
C203 C201 1.367 . S
C204 N199 1.362 1_556 S
C204 C202 1.420 1_556 S
C204 C208 1.429 . S
H205 C210 0.930 . S
N206 Eu168 2.609 . S
N206 C208 1.377 1_565 S
N206 C209 1.321 . S
C207 H193 0.930 . S
C207 C209 1.400 . S
C207 C210 1.386 1_565 S
C208 C204 1.429 . S
C208 N206 1.377 1_545 S
C208 C211 1.411 . S
C209 H191 0.930 . S
C209 N206 1.321 . S
C209 C207 1.400 . S
C210 H205 0.930 . S
C210 C207 1.386 1_545 S
C210 C211 1.395 . S
C211 C208 1.411 . S
C211 C210 1.395 . S
C211 C233 1.420 . S
O212 Eu168 2.558 . S
O212 C232 1.257 . S
O213 Eu168 2.612 1_554 S
O213 Eu179 2.380 1_565 S
O213 C224 1.276 1_554 S
O214 Eu179 2.432 . S
O214 C231 1.264 1_545 S
O215 Eu168 2.339 1_554 S
O215 C231 1.254 . S
O216 Eu168 2.563 . S
O216 C224 1.235 . S
O217 Eu168 2.419 1_554 S
O217 C232 1.249 1_554 S
O218 Eu179 2.558 . S
O218 C243 1.257 . S
O219 Eu168 2.375 1_544 S
O219 Eu179 2.619 . S
O219 C235 1.282 . S
O220 Eu168 2.421 1_545 S
O220 C242 1.284 . S
O221 Eu179 2.339 1_556 S
O221 C242 1.254 . S
O222 Eu179 2.563 . S
O222 C235 1.235 . S
O223 Eu179 2.419 1_556 S
O223 C243 1.249 1_556 S
C224 O213 1.276 1_556 S
C224 O216 1.235 . S
C225 C227 1.393 1_556 S
C225 C229 1.395 . S
C225 C232 1.492 . S
C226 C227 1.392 . S
C226 C228 1.386 1_554 S
C227 C225 1.393 1_554 S
C227 C226 1.392 . S
C227 H244 0.930 . S
C228 C226 1.386 1_556 S
C228 C230 1.395 . S
C228 H245 0.930 . S
C229 C225 1.395 . S
C229 C230 1.379 . S
C229 H246 0.930 . S
C230 C228 1.395 . S
C230 C229 1.379 . S
C230 H247 0.930 . S
C231 O214 1.264 1_565 S
C231 O215 1.254 . S
C232 Eu168 2.848 . S
C232 O212 1.257 . S
C232 O217 1.249 1_556 S
C232 C225 1.492 . S
C233 H198 0.931 . S
C233 C211 1.420 . S
C233 C234 1.351 . S
C234 H196 0.930 . S
C234 C202 1.423 1_556 S
C234 C233 1.351 . S
C235 O219 1.282 . S
C235 O222 1.235 . S
C236 C237 1.393 1_554 S
C236 C240 1.395 . S
C236 C243 1.492 . S
C237 C236 1.393 1_556 S
C237 C238 1.392 . S
C237 H248 0.930 . S
C238 C237 1.392 . S
C238 C239 1.386 1_556 S
C239 C238 1.386 1_554 S
C239 C241 1.395 . S
C239 H249 0.930 . S
C240 C236 1.395 . S
C240 C241 1.379 . S
C240 H250 0.930 . S
C241 C239 1.395 . S
C241 C240 1.379 . S
C241 H251 0.930 . S
C242 O220 1.284 . S
C242 O221 1.254 . S
C243 Eu179 2.848 . S
C243 O218 1.257 . S
C243 O223 1.249 1_554 S
C243 C236 1.492 . S
H244 C227 0.930 . S
H245 C228 0.930 . S
H246 C229 0.930 . S
H247 C230 0.930 . S
H248 C237 0.930 . S
H249 C239 0.930 . S
H250 C240 0.930 . S
H251 C241 0.930 . S
Eu252 N283 2.657 . S
Eu252 N290 2.609 . S
Eu252 O296 2.558 . S
Eu252 O297 2.612 . S
Eu252 O299 2.339 . S
Eu252 O300 2.563 . S
Eu252 O301 2.419 . S
Eu252 O303 2.380 . S
Eu252 O304 2.432 . S
Eu252 C316 2.848 . S
C253 C256 1.429 . S
C253 C257 1.411 . S
C253 N260 1.377 . S
C254 C256 1.420 . S
C254 C258 1.423 . S
C254 C266 1.392 . S
C255 C257 1.420 . S
C255 C258 1.351 . S
C255 H278 0.931 . S
C256 C253 1.429 . S
C256 C254 1.420 . S
C256 N264 1.362 . S
C257 C253 1.411 . S
C257 C255 1.420 . S
C257 C262 1.395 . S
C258 C254 1.423 . S
C258 C255 1.351 . S
C258 H270 0.930 . S
C259 C261 1.400 . S
C259 C262 1.386 . S
C259 H271 0.930 . S
N260 C253 1.377 . S
N260 C261 1.321 . S
N260 Eu263 2.609 . S
C261 C259 1.400 . S
C261 N260 1.321 . S
C261 H268 0.930 . S
C262 C257 1.395 . S
C262 C259 1.386 . S
C262 H281 0.930 . S
Eu263 N260 2.609 . S
Eu263 N264 2.657 . S
Eu263 O297 2.380 . S
Eu263 O298 2.432 . S
Eu263 O302 2.558 . S
Eu263 O303 2.612 . S
Eu263 O305 2.339 . S
Eu263 O306 2.563 . S
Eu263 O307 2.419 . S
Eu263 C327 2.848 . S
N264 C256 1.362 . S
N264 Eu263 2.657 . S
N264 C265 1.334 . S
C265 N264 1.334 . S
C265 C267 1.413 . S
C265 H272 0.929 . S
C266 C254 1.392 . S
C266 C267 1.367 . S
C266 H274 0.930 . S
C267 C265 1.413 . S
C267 C266 1.367 . S
C267 H269 0.930 . S
H268 C261 0.930 . S
H269 C267 0.930 . S
H270 C258 0.930 . S
H271 C259 0.930 . S
H272 C265 0.929 . S
H273 C287 0.930 . S
H274 C266 0.930 . S
H275 C293 0.930 . S
H276 C284 0.929 . S
H277 C291 0.930 . S
H278 C255 0.931 . S
H279 C285 0.930 . S
H280 C318 0.930 . S
H281 C262 0.930 . S
H282 C317 0.931 . S
N283 Eu252 2.657 . S
N283 C284 1.334 . S
N283 C288 1.362 . S
C284 H276 0.929 . S
C284 N283 1.334 . S
C284 C287 1.413 . S
C285 H279 0.930 . S
C285 C286 1.392 . S
C285 C287 1.367 . S
C286 C285 1.392 . S
C286 C288 1.420 . S
C286 C318 1.423 . S
C287 H273 0.930 . S
C287 C284 1.413 . S
C287 C285 1.367 . S
C288 N283 1.362 . S
C288 C286 1.420 . S
C288 C292 1.429 . S
H289 C294 0.930 . S
N290 Eu252 2.609 . S
N290 C292 1.377 . S
N290 C293 1.321 . S
C291 H277 0.930 . S
C291 C293 1.400 . S
C291 C294 1.386 . S
C292 C288 1.429 . S
C292 N290 1.377 . S
C292 C295 1.411 . S
C293 H275 0.930 . S
C293 N290 1.321 . S
C293 C291 1.400 . S
C294 H289 0.930 . S
C294 C291 1.386 . S
C294 C295 1.395 . S
C295 C292 1.411 . S
C295 C294 1.395 . S
C295 C317 1.420 . S
O296 Eu252 2.558 . S
O296 C316 1.257 . S
O297 Eu252 2.612 . S
O297 Eu263 2.380 . S
O297 C308 1.276 . S
O298 Eu263 2.432 . S
O298 C315 1.264 . S
O299 Eu252 2.339 . S
O299 C315 1.254 . S
O300 Eu252 2.563 . S
O300 C308 1.235 . S
O301 Eu252 2.419 . S
O301 C316 1.249 . S
O302 Eu263 2.558 . S
O302 C327 1.257 . S
O303 Eu252 2.380 . S
O303 Eu263 2.612 . S
O303 C319 1.276 . S
O304 Eu252 2.432 . S
O304 C326 1.264 . S
O305 Eu263 2.339 . S
O305 C326 1.254 . S
O306 Eu263 2.563 . S
O306 C319 1.235 . S
O307 Eu263 2.419 . S
O307 C327 1.249 . S
C308 O297 1.276 . S
C308 O300 1.235 . S
C309 C311 1.393 . S
C309 C313 1.395 . S
C309 C316 1.492 . S
C310 C311 1.392 1_545 S
C310 C312 1.386 . S
C311 C309 1.393 . S
C311 C310 1.392 1_565 S
C311 H328 0.930 . S
C312 C310 1.386 . S
C312 C314 1.395 . S
C312 H329 0.930 . S
C313 C309 1.395 . S
C313 C314 1.379 1_565 S
C313 H330 0.930 . S
C314 C312 1.395 . S
C314 C313 1.379 1_545 S
C314 H331 0.930 . S
C315 O298 1.264 . S
C315 O299 1.254 . S
C316 Eu252 2.848 . S
C316 O296 1.257 . S
C316 O301 1.249 . S
C316 C309 1.492 . S
C317 H282 0.931 . S
C317 C295 1.420 . S
C317 C318 1.351 . S
C318 H280 0.930 . S
C318 C286 1.423 . S
C318 C317 1.351 . S
C319 O303 1.276 . S
C319 O306 1.235 . S
C320 C321 1.393 . S
C320 C324 1.395 . S
C320 C327 1.492 . S
C321 C320 1.393 . S
C321 C322 1.392 . S
C321 H332 0.930 . S
C322 C321 1.392 . S
C322 C323 1.386 . S
C323 C322 1.386 . S
C323 C325 1.395 . S
C323 H333 0.930 . S
C324 C320 1.395 . S
C324 C325 1.379 . S
C324 H334 0.930 . S
C325 C323 1.395 . S
C325 C324 1.379 . S
C325 H335 0.930 . S
C326 O304 1.264 . S
C326 O305 1.254 . S
C327 Eu263 2.848 . S
C327 O302 1.257 . S
C327 O307 1.249 . S
C327 C320 1.492 . S
H328 C311 0.930 . S
H329 C312 0.930 . S
H330 C313 0.930 . S
H331 C314 0.930 . S
H332 C321 0.930 . S
H333 C323 0.930 . S
H334 C324 0.930 . S
H335 C325 0.930 . S
Eu336 N367 2.657 . S
Eu336 N374 2.609 . S
Eu336 O380 2.558 . S
Eu336 O381 2.612 . S
Eu336 O383 2.339 . S
Eu336 O384 2.563 . S
Eu336 O385 2.419 . S
Eu336 O387 2.380 . S
Eu336 O388 2.432 . S
Eu336 C400 2.848 . S
C337 C340 1.429 . S
C337 C341 1.411 1_565 S
C337 N344 1.377 . S
C338 C340 1.420 1_545 S
C338 C342 1.423 . S
C338 C350 1.392 . S
C339 C341 1.420 . S
C339 C342 1.351 . S
C339 H362 0.931 . S
C340 C337 1.429 . S
C340 C338 1.420 1_565 S
C340 N348 1.362 . S
C341 C337 1.411 1_545 S
C341 C339 1.420 . S
C341 C346 1.395 . S
C342 C338 1.423 . S
C342 C339 1.351 . S
C342 H354 0.930 . S
C343 C345 1.400 . S
C343 C346 1.386 1_565 S
C343 H355 0.930 . S
N344 C337 1.377 . S
N344 C345 1.321 . S
N344 Eu347 2.609 . S
C345 C343 1.400 . S
C345 N344 1.321 . S
C345 H352 0.930 . S
C346 C341 1.395 . S
C346 C343 1.386 1_545 S
C346 H365 0.930 . S
Eu347 N344 2.609 . S
Eu347 N348 2.657 . S
Eu347 O381 2.380 . S
Eu347 O382 2.432 . S
Eu347 O386 2.558 . S
Eu347 O387 2.612 . S
Eu347 O389 2.339 . S
Eu347 O390 2.563 . S
Eu347 O391 2.419 . S
Eu347 C411 2.848 . S
N348 C340 1.362 . S
N348 Eu347 2.657 . S
N348 C349 1.334 . S
C349 N348 1.334 . S
C349 C351 1.413 1_565 S
C349 H356 0.929 . S
C350 C338 1.392 . S
C350 C351 1.367 . S
C350 H358 0.930 . S
C351 C349 1.413 1_545 S
C351 C350 1.367 . S
C351 H353 0.930 . S
H352 C345 0.930 . S
H353 C351 0.930 . S
H354 C342 0.930 . S
H355 C343 0.930 . S
H356 C349 0.929 . S
H357 C371 0.930 . S
H358 C350 0.930 . S
H359 C377 0.930 . S
H360 C368 0.929 . S
H361 C375 0.930 . S
H362 C339 0.931 . S
H363 C369 0.930 . S
H364 C402 0.930 . S
H365 C346 0.930 . S
H366 C401 0.931 . S
N367 Eu336 2.657 . S
N367 C368 1.334 . S
N367 C372 1.362 . S
C368 H360 0.929 . S
C368 N367 1.334 . S
C368 C371 1.413 . S
C369 H363 0.930 . S
C369 C370 1.392 . S
C369 C371 1.367 . S
C370 C369 1.392 . S
C370 C372 1.420 . S
C370 C402 1.423 . S
C371 H357 0.930 . S
C371 C368 1.413 . S
C371 C369 1.367 . S
C372 N367 1.362 . S
C372 C370 1.420 . S
C372 C376 1.429 . S
H373 C378 0.930 . S
N374 Eu336 2.609 . S
N374 C376 1.377 . S
N374 C377 1.321 . S
C375 H361 0.930 . S
C375 C377 1.400 . S
C375 C378 1.386 . S
C376 C372 1.429 . S
C376 N374 1.377 . S
C376 C379 1.411 . S
C377 H359 0.930 . S
C377 N374 1.321 . S
C377 C375 1.400 . S
C378 H373 0.930 . S
C378 C375 1.386 . S
C378 C379 1.395 . S
C379 C376 1.411 . S
C379 C378 1.395 . S
C379 C401 1.420 . S
O380 Eu336 2.558 . S
O380 C400 1.257 . S
O381 Eu336 2.612 . S
O381 Eu347 2.380 . S
O381 C392 1.276 . S
O382 Eu347 2.432 . S
O382 C399 1.264 . S
O383 Eu336 2.339 . S
O383 C399 1.254 . S
O384 Eu336 2.563 . S
O384 C392 1.235 . S
O385 Eu336 2.419 . S
O385 C400 1.249 . S
O386 Eu347 2.558 . S
O386 C411 1.257 . S
O387 Eu336 2.380 . S
O387 Eu347 2.612 . S
O387 C403 1.276 . S
O388 Eu336 2.432 . S
O388 C410 1.264 . S
O389 Eu347 2.339 . S
O389 C410 1.254 . S
O390 Eu347 2.563 . S
O390 C403 1.235 . S
O391 Eu347 2.419 . S
O391 C411 1.249 . S
C392 O381 1.276 . S
C392 O384 1.235 . S
C393 C395 1.393 . S
C393 C397 1.395 . S
C393 C400 1.492 . S
C394 C395 1.392 1_655 S
C394 C396 1.386 . S
C395 C393 1.393 . S
C395 C394 1.392 1_455 S
C395 H412 0.930 . S
C396 C394 1.386 . S
C396 C398 1.395 . S
C396 H413 0.930 . S
C397 C393 1.395 . S
C397 C398 1.379 1_455 S
C397 H414 0.930 . S
C398 C396 1.395 . S
C398 C397 1.379 1_655 S
C398 H415 0.930 . S
C399 O382 1.264 . S
C399 O383 1.254 . S
C400 Eu336 2.848 . S
C400 O380 1.257 . S
C400 O385 1.249 . S
C400 C393 1.492 . S
C401 H366 0.931 . S
C401 C379 1.420 . S
C401 C402 1.351 . S
C402 H364 0.930 . S
C402 C370 1.423 . S
C402 C401 1.351 . S
C403 O387 1.276 . S
C403 O390 1.235 . S
C404 C405 1.393 . S
C404 C408 1.395 . S
C404 C411 1.492 . S
C405 C404 1.393 . S
C405 C406 1.392 . S
C405 H416 0.930 . S
C406 C405 1.392 . S
C406 C407 1.386 . S
C407 C406 1.386 . S
C407 C409 1.395 . S
C407 H417 0.930 . S
C408 C404 1.395 . S
C408 C409 1.379 . S
C408 H418 0.930 . S
C409 C407 1.395 . S
C409 C408 1.379 . S
C409 H419 0.930 . S
C410 O388 1.264 . S
C410 O389 1.254 . S
C411 Eu347 2.848 . S
C411 O386 1.257 . S
C411 O391 1.249 . S
C411 C404 1.492 . S
H412 C395 0.930 . S
H413 C396 0.930 . S
H414 C397 0.930 . S
H415 C398 0.930 . S
H416 C405 0.930 . S
H417 C407 0.930 . S
H418 C408 0.930 . S
H419 C409 0.930 . S
Eu420 N451 2.657 . S
Eu420 N458 2.609 . S
Eu420 O464 2.558 . S
Eu420 O465 2.612 . S
Eu420 O467 2.339 . S
Eu420 O468 2.563 . S
Eu420 O469 2.419 . S
Eu420 O471 2.380 . S
Eu420 O472 2.432 . S
Eu420 C484 2.848 . S
C421 C424 1.429 . S
C421 C425 1.411 1_455 S
C421 N428 1.377 . S
C422 C424 1.420 1_655 S
C422 C426 1.423 . S
C422 C434 1.392 . S
C423 C425 1.420 . S
C423 C426 1.351 . S
C423 H446 0.931 . S
C424 C421 1.429 . S
C424 C422 1.420 1_455 S
C424 N432 1.362 . S
C425 C421 1.411 1_655 S
C425 C423 1.420 . S
C425 C430 1.395 . S
C426 C422 1.423 . S
C426 C423 1.351 . S
C426 H438 0.930 . S
C427 C429 1.400 . S
C427 C430 1.386 1_455 S
C427 H439 0.930 . S
N428 C421 1.377 . S
N428 C429 1.321 . S
N428 Eu431 2.609 . S
C429 C427 1.400 . S
C429 N428 1.321 . S
C429 H436 0.930 . S
C430 C425 1.395 . S
C430 C427 1.386 1_655 S
C430 H449 0.930 . S
Eu431 N428 2.609 . S
Eu431 N432 2.657 . S
Eu431 O465 2.380 . S
Eu431 O466 2.432 . S
Eu431 O470 2.558 . S
Eu431 O471 2.612 . S
Eu431 O473 2.339 . S
Eu431 O474 2.563 . S
Eu431 O475 2.419 . S
Eu431 C495 2.848 . S
N432 C424 1.362 . S
N432 Eu431 2.657 . S
N432 C433 1.334 . S
C433 N432 1.334 . S
C433 C435 1.413 . S
C433 H440 0.929 . S
C434 C422 1.392 . S
C434 C435 1.367 1_655 S
C434 H442 0.930 . S
C435 C433 1.413 . S
C435 C434 1.367 1_455 S
C435 H437 0.930 . S
H436 C429 0.930 . S
H437 C435 0.930 . S
H438 C426 0.930 . S
H439 C427 0.930 . S
H440 C433 0.929 . S
H441 C455 0.930 . S
H442 C434 0.930 . S
H443 C461 0.930 . S
H444 C452 0.929 . S
H445 C459 0.930 . S
H446 C423 0.931 . S
H447 C453 0.930 . S
H448 C486 0.930 . S
H449 C430 0.930 . S
H450 C485 0.931 . S
N451 Eu420 2.657 . S
N451 C452 1.334 . S
N451 C456 1.362 . S
C452 H444 0.929 . S
C452 N451 1.334 . S
C452 C455 1.413 . S
C453 H447 0.930 . S
C453 C454 1.392 . S
C453 C455 1.367 . S
C454 C453 1.392 . S
C454 C456 1.420 . S
C454 C486 1.423 . S
C455 H441 0.930 . S
C455 C452 1.413 . S
C455 C453 1.367 . S
C456 N451 1.362 . S
C456 C454 1.420 . S
C456 C460 1.429 . S
H457 C462 0.930 . S
N458 Eu420 2.609 . S
N458 C460 1.377 . S
N458 C461 1.321 . S
C459 H445 0.930 . S
C459 C461 1.400 . S
C459 C462 1.386 . S
C460 C456 1.429 . S
C460 N458 1.377 . S
C460 C463 1.411 . S
C461 H443 0.930 . S
C461 N458 1.321 . S
C461 C459 1.400 . S
C462 H457 0.930 . S
C462 C459 1.386 . S
C462 C463 1.395 . S
C463 C460 1.411 . S
C463 C462 1.395 . S
C463 C485 1.420 . S
O464 Eu420 2.558 . S
O464 C484 1.257 . S
O465 Eu420 2.612 . S
O465 Eu431 2.380 . S
O465 C476 1.276 . S
O466 Eu431 2.432 . S
O466 C483 1.264 . S
O467 Eu420 2.339 . S
O467 C483 1.254 . S
O468 Eu420 2.563 . S
O468 C476 1.235 . S
O469 Eu420 2.419 . S
O469 C484 1.249 . S
O470 Eu431 2.558 . S
O470 C495 1.257 . S
O471 Eu420 2.380 . S
O471 Eu431 2.612 . S
O471 C487 1.276 . S
O472 Eu420 2.432 . S
O472 C494 1.264 . S
O473 Eu431 2.339 . S
O473 C494 1.254 . S
O474 Eu431 2.563 . S
O474 C487 1.235 . S
O475 Eu431 2.419 . S
O475 C495 1.249 . S
C476 O465 1.276 . S
C476 O468 1.235 . S
C477 C479 1.393 . S
C477 C481 1.395 . S
C477 C484 1.492 . S
C478 C479 1.392 . S
C478 C480 1.386 . S
C479 C477 1.393 . S
C479 C478 1.392 . S
C479 H496 0.930 . S
C480 C478 1.386 . S
C480 C482 1.395 . S
C480 H497 0.930 . S
C481 C477 1.395 . S
C481 C482 1.379 . S
C481 H498 0.930 . S
C482 C480 1.395 . S
C482 C481 1.379 . S
C482 H499 0.930 . S
C483 O466 1.264 . S
C483 O467 1.254 . S
C484 Eu420 2.848 . S
C484 O464 1.257 . S
C484 O469 1.249 . S
C484 C477 1.492 . S
C485 H450 0.931 . S
C485 C463 1.420 . S
C485 C486 1.351 . S
C486 H448 0.930 . S
C486 C454 1.423 . S
C486 C485 1.351 . S
C487 O471 1.276 . S
C487 O474 1.235 . S
C488 C489 1.393 . S
C488 C492 1.395 . S
C488 C495 1.492 . S
C489 C488 1.393 . S
C489 C490 1.392 . S
C489 H500 0.930 . S
C490 C489 1.392 . S
C490 C491 1.386 . S
C491 C490 1.386 . S
C491 C493 1.395 . S
C491 H501 0.930 . S
C492 C488 1.395 . S
C492 C493 1.379 . S
C492 H502 0.930 . S
C493 C491 1.395 . S
C493 C492 1.379 . S
C493 H503 0.930 . S
C494 O472 1.264 . S
C494 O473 1.254 . S
C495 Eu431 2.848 . S
C495 O470 1.257 . S
C495 O475 1.249 . S
C495 C488 1.492 . S
H496 C479 0.930 . S
H497 C480 0.930 . S
H498 C481 0.930 . S
H499 C482 0.930 . S
H500 C489 0.930 . S
H501 C491 0.930 . S
H502 C492 0.930 . S
H503 C493 0.930 . S
Eu504 N535 2.657 . S
Eu504 N542 2.609 . S
Eu504 O548 2.558 . S
Eu504 O549 2.612 . S
Eu504 O551 2.339 . S
Eu504 O552 2.563 . S
Eu504 O553 2.419 . S
Eu504 O555 2.380 . S
Eu504 O556 2.432 . S
Eu504 C568 2.848 . S
C505 C508 1.429 . S
C505 C509 1.411 . S
C505 N512 1.377 . S
C506 C508 1.420 . S
C506 C510 1.423 1_545 S
C506 C518 1.392 . S
C507 C509 1.420 1_565 S
C507 C510 1.351 . S
C507 H530 0.931 . S
C508 C505 1.429 . S
C508 C506 1.420 . S
C508 N516 1.362 . S
C509 C505 1.411 . S
C509 C507 1.420 1_545 S
C509 C514 1.395 1_545 S
C510 C506 1.423 1_565 S
C510 C507 1.351 . S
C510 H522 0.930 . S
C511 C513 1.400 . S
C511 C514 1.386 1_545 S
C511 H523 0.930 . S
N512 C505 1.377 . S
N512 C513 1.321 . S
N512 Eu515 2.609 . S
C513 C511 1.400 . S
C513 N512 1.321 . S
C513 H520 0.930 . S
C514 C509 1.395 1_565 S
C514 C511 1.386 1_565 S
C514 H533 0.930 . S
Eu515 N512 2.609 . S
Eu515 N516 2.657 . S
Eu515 O549 2.380 . S
Eu515 O550 2.432 . S
Eu515 O554 2.558 . S
Eu515 O555 2.612 . S
Eu515 O557 2.339 . S
Eu515 O558 2.563 . S
Eu515 O559 2.419 . S
Eu515 C579 2.848 . S
N516 C508 1.362 . S
N516 Eu515 2.657 . S
N516 C517 1.334 . S
C517 N516 1.334 . S
C517 C519 1.413 . S
C517 H524 0.929 . S
C518 C506 1.392 . S
C518 C519 1.367 . S
C518 H526 0.930 1_545 S
C519 C517 1.413 . S
C519 C518 1.367 . S
C519 H521 0.930 . S
H520 C513 0.930 . S
H521 C519 0.930 . S
H522 C510 0.930 . S
H523 C511 0.930 . S
H524 C517 0.929 . S
H525 C539 0.930 . S
H526 C518 0.930 1_565 S
H527 C545 0.930 . S
H528 C536 0.929 . S
H529 C543 0.930 . S
H530 C507 0.931 . S
H531 C537 0.930 . S
H532 C570 0.930 . S
H533 C514 0.930 . S
H534 C569 0.931 . S
N535 Eu504 2.657 . S
N535 C536 1.334 . S
N535 C540 1.362 . S
C536 H528 0.929 . S
C536 N535 1.334 . S
C536 C539 1.413 . S
C537 H531 0.930 . S
C537 C538 1.392 . S
C537 C539 1.367 . S
C538 C537 1.392 . S
C538 C540 1.420 . S
C538 C570 1.423 . S
C539 H525 0.930 . S
C539 C536 1.413 . S
C539 C537 1.367 . S
C540 N535 1.362 . S
C540 C538 1.420 . S
C540 C544 1.429 . S
H541 C546 0.930 . S
N542 Eu504 2.609 . S
N542 C544 1.377 . S
N542 C545 1.321 . S
C543 H529 0.930 . S
C543 C545 1.400 . S
C543 C546 1.386 . S
C544 C540 1.429 . S
C544 N542 1.377 . S
C544 C547 1.411 . S
C545 H527 0.930 . S
C545 N542 1.321 . S
C545 C543 1.400 . S
C546 H541 0.930 . S
C546 C543 1.386 . S
C546 C547 1.395 . S
C547 C544 1.411 . S
C547 C546 1.395 . S
C547 C569 1.420 . S
O548 Eu504 2.558 . S
O548 C568 1.257 . S
O549 Eu504 2.612 . S
O549 Eu515 2.380 . S
O549 C560 1.276 . S
O550 Eu515 2.432 . S
O550 C567 1.264 . S
O551 Eu504 2.339 . S
O551 C567 1.254 . S
O552 Eu504 2.563 . S
O552 C560 1.235 . S
O553 Eu504 2.419 . S
O553 C568 1.249 . S
O554 Eu515 2.558 . S
O554 C579 1.257 . S
O555 Eu504 2.380 . S
O555 Eu515 2.612 . S
O555 C571 1.276 . S
O556 Eu504 2.432 . S
O556 C578 1.264 . S
O557 Eu515 2.339 . S
O557 C578 1.254 . S
O558 Eu515 2.563 . S
O558 C571 1.235 . S
O559 Eu515 2.419 . S
O559 C579 1.249 . S
C560 O549 1.276 . S
C560 O552 1.235 . S
C561 C563 1.393 . S
C561 C565 1.395 . S
C561 C568 1.492 . S
C562 C563 1.392 . S
C562 C564 1.386 . S
C563 C561 1.393 . S
C563 C562 1.392 . S
C563 H580 0.930 . S
C564 C562 1.386 . S
C564 C566 1.395 . S
C564 H581 0.930 . S
C565 C561 1.395 . S
C565 C566 1.379 . S
C565 H582 0.930 . S
C566 C564 1.395 . S
C566 C565 1.379 . S
C566 H583 0.930 . S
C567 O550 1.264 . S
C567 O551 1.254 . S
C568 Eu504 2.848 . S
C568 O548 1.257 . S
C568 O553 1.249 . S
C568 C561 1.492 . S
C569 H534 0.931 . S
C569 C547 1.420 . S
C569 C570 1.351 . S
C570 H532 0.930 . S
C570 C538 1.423 . S
C570 C569 1.351 . S
C571 O555 1.276 . S
C571 O558 1.235 . S
C572 C573 1.393 . S
C572 C576 1.395 . S
C572 C579 1.492 1_565 S
C573 C572 1.393 . S
C573 C574 1.392 . S
C573 H584 0.930 . S
C574 C573 1.392 . S
C574 C575 1.386 . S
C575 C574 1.386 . S
C575 C577 1.395 . S
C575 H585 0.930 . S
C576 C572 1.395 . S
C576 C577 1.379 . S
C576 H586 0.930 . S
C577 C575 1.395 . S
C577 C576 1.379 . S
C577 H587 0.930 . S
C578 O556 1.264 . S
C578 O557 1.254 . S
C579 Eu515 2.848 . S
C579 O554 1.257 . S
C579 O559 1.249 . S
C579 C572 1.492 1_545 S
H580 C563 0.930 . S
H581 C564 0.930 . S
H582 C565 0.930 . S
H583 C566 0.930 . S
H584 C573 0.930 . S
H585 C575 0.930 . S
H586 C576 0.930 . S
H587 C577 0.930 . S
Eu588 N619 2.657 . S
Eu588 N626 2.609 . S
Eu588 O632 2.558 . S
Eu588 O633 2.612 . S
Eu588 O635 2.339 . S
Eu588 O636 2.563 . S
Eu588 O637 2.419 . S
Eu588 O639 2.380 . S
Eu588 O640 2.432 . S
Eu588 C652 2.848 . S
C589 C592 1.429 . S
C589 C593 1.411 1_655 S
C589 N596 1.377 . S
C590 C592 1.420 1_455 S
C590 C594 1.423 . S
C590 C602 1.392 . S
C591 C593 1.420 . S
C591 C594 1.351 . S
C591 H614 0.931 . S
C592 C589 1.429 . S
C592 C590 1.420 1_655 S
C592 N600 1.362 . S
C593 C589 1.411 1_455 S
C593 C591 1.420 . S
C593 C598 1.395 . S
C594 C590 1.423 . S
C594 C591 1.351 . S
C594 H606 0.930 . S
C595 C597 1.400 . S
C595 C598 1.386 1_655 S
C595 H607 0.930 . S
N596 C589 1.377 . S
N596 C597 1.321 . S
N596 Eu599 2.609 . S
C597 C595 1.400 . S
C597 N596 1.321 . S
C597 H604 0.930 . S
C598 C593 1.395 . S
C598 C595 1.386 1_455 S
C598 H617 0.930 . S
Eu599 N596 2.609 . S
Eu599 N600 2.657 . S
Eu599 O633 2.380 . S
Eu599 O634 2.432 . S
Eu599 O638 2.558 . S
Eu599 O639 2.612 . S
Eu599 O641 2.339 . S
Eu599 O642 2.563 . S
Eu599 O643 2.419 . S
Eu599 C663 2.848 1_655 S
N600 C592 1.362 . S
N600 Eu599 2.657 . S
N600 C601 1.334 . S
C601 N600 1.334 . S
C601 C603 1.413 . S
C601 H608 0.929 . S
C602 C590 1.392 . S
C602 C603 1.367 1_455 S
C602 H610 0.930 . S
C603 C601 1.413 . S
C603 C602 1.367 1_655 S
C603 H605 0.930 . S
H604 C597 0.930 . S
H605 C603 0.930 . S
H606 C594 0.930 . S
H607 C595 0.930 . S
H608 C601 0.929 . S
H609 C623 0.930 . S
H610 C602 0.930 . S
H611 C629 0.930 . S
H612 C620 0.929 . S
H613 C627 0.930 . S
H614 C591 0.931 . S
H615 C621 0.930 . S
H616 C654 0.930 1_565 S
H617 C598 0.930 . S
H618 C653 0.931 1_565 S
N619 Eu588 2.657 . S
N619 C620 1.334 . S
N619 C624 1.362 . S
C620 H612 0.929 . S
C620 N619 1.334 . S
C620 C623 1.413 . S
C621 H615 0.930 . S
C621 C622 1.392 . S
C621 C623 1.367 . S
C622 C621 1.392 . S
C622 C624 1.420 . S
C622 C654 1.423 . S
C623 H609 0.930 . S
C623 C620 1.413 . S
C623 C621 1.367 . S
C624 N619 1.362 . S
C624 C622 1.420 . S
C624 C628 1.429 . S
H625 C630 0.930 . S
N626 Eu588 2.609 . S
N626 C628 1.377 . S
N626 C629 1.321 . S
C627 H613 0.930 . S
C627 C629 1.400 . S
C627 C630 1.386 . S
C628 C624 1.429 . S
C628 N626 1.377 . S
C628 C631 1.411 . S
C629 H611 0.930 . S
C629 N626 1.321 . S
C629 C627 1.400 . S
C630 H625 0.930 . S
C630 C627 1.386 . S
C630 C631 1.395 . S
C631 C628 1.411 . S
C631 C630 1.395 . S
C631 C653 1.420 . S
O632 Eu588 2.558 . S
O632 C652 1.257 . S
O633 Eu588 2.612 . S
O633 Eu599 2.380 . S
O633 C644 1.276 . S
O634 Eu599 2.432 . S
O634 C651 1.264 . S
O635 Eu588 2.339 . S
O635 C651 1.254 . S
O636 Eu588 2.563 . S
O636 C644 1.235 . S
O637 Eu588 2.419 . S
O637 C652 1.249 . S
O638 Eu599 2.558 . S
O638 C663 1.257 1_655 S
O639 Eu588 2.380 . S
O639 Eu599 2.612 . S
O639 C655 1.276 . S
O640 Eu588 2.432 . S
O640 C662 1.264 . S
O641 Eu599 2.339 . S
O641 C662 1.254 . S
O642 Eu599 2.563 . S
O642 C655 1.235 . S
O643 Eu599 2.419 . S
O643 C663 1.249 1_655 S
C644 O633 1.276 . S
C644 O636 1.235 . S
C645 C647 1.393 . S
C645 C649 1.395 . S
C645 C652 1.492 . S
C646 C647 1.392 . S
C646 C648 1.386 . S
C647 C645 1.393 . S
C647 C646 1.392 . S
C647 H664 0.930 . S
C648 C646 1.386 . S
C648 C650 1.395 . S
C648 H665 0.930 . S
C649 C645 1.395 . S
C649 C650 1.379 . S
C649 H666 0.930 . S
C650 C648 1.395 . S
C650 C649 1.379 . S
C650 H667 0.930 . S
C651 O634 1.264 . S
C651 O635 1.254 . S
C652 Eu588 2.848 . S
C652 O632 1.257 . S
C652 O637 1.249 . S
C652 C645 1.492 . S
C653 H618 0.931 1_545 S
C653 C631 1.420 . S
C653 C654 1.351 . S
C654 H616 0.930 1_545 S
C654 C622 1.423 . S
C654 C653 1.351 . S
C655 O639 1.276 . S
C655 O642 1.235 . S
C656 C657 1.393 . S
C656 C660 1.395 . S
C656 C663 1.492 . S
C657 C656 1.393 . S
C657 C658 1.392 . S
C657 H668 0.930 . S
C658 C657 1.392 . S
C658 C659 1.386 . S
C659 C658 1.386 . S
C659 C661 1.395 . S
C659 H669 0.930 . S
C660 C656 1.395 . S
C660 C661 1.379 . S
C660 H670 0.930 . S
C661 C659 1.395 . S
C661 C660 1.379 . S
C661 H671 0.930 . S
C662 O640 1.264 . S
C662 O641 1.254 . S
C663 Eu599 2.848 1_455 S
C663 O638 1.257 1_455 S
C663 O643 1.249 1_455 S
C663 C656 1.492 . S
H664 C647 0.930 . S
H665 C648 0.930 . S
H666 C649 0.930 . S
H667 C650 0.930 . S
H668 C657 0.930 . S
H669 C659 0.930 . S
H670 C660 0.930 . S
H671 C661 0.930 . S
Eu672 N703 2.657 . S
Eu672 N710 2.609 . S
Eu672 O716 2.558 . S
Eu672 O717 2.612 . S
Eu672 O719 2.339 . S
Eu672 O720 2.563 . S
Eu672 O721 2.419 . S
Eu672 O723 2.380 . S
Eu672 O724 2.432 . S
Eu672 C736 2.848 . S
C673 C676 1.429 . S
C673 C677 1.411 . S
C673 N680 1.377 . S
C674 C676 1.420 . S
C674 C678 1.423 . S
C674 C686 1.392 . S
C675 C677 1.420 . S
C675 C678 1.351 . S
C675 H698 0.931 . S
C676 C673 1.429 . S
C676 C674 1.420 . S
C676 N684 1.362 . S
C677 C673 1.411 . S
C677 C675 1.420 . S
C677 C682 1.395 . S
C678 C674 1.423 . S
C678 C675 1.351 . S
C678 H690 0.930 . S
C679 C681 1.400 . S
C679 C682 1.386 . S
C679 H691 0.930 . S
N680 C673 1.377 . S
N680 C681 1.321 . S
N680 Eu683 2.609 . S
C681 C679 1.400 . S
C681 N680 1.321 . S
C681 H688 0.930 . S
C682 C677 1.395 . S
C682 C679 1.386 . S
C682 H701 0.930 . S
Eu683 N680 2.609 . S
Eu683 N684 2.657 . S
Eu683 O717 2.380 . S
Eu683 O718 2.432 . S
Eu683 O722 2.558 . S
Eu683 O723 2.612 . S
Eu683 O725 2.339 . S
Eu683 O726 2.563 . S
Eu683 O727 2.419 . S
Eu683 C747 2.848 . S
N684 C676 1.362 . S
N684 Eu683 2.657 . S
N684 C685 1.334 . S
C685 N684 1.334 . S
C685 C687 1.413 . S
C685 H692 0.929 . S
C686 C674 1.392 . S
C686 C687 1.367 . S
C686 H694 0.930 . S
C687 C685 1.413 . S
C687 C686 1.367 . S
C687 H689 0.930 . S
H688 C681 0.930 . S
H689 C687 0.930 . S
H690 C678 0.930 . S
H691 C679 0.930 . S
H692 C685 0.929 . S
H693 C707 0.930 . S
H694 C686 0.930 . S
H695 C713 0.930 . S
H696 C704 0.929 . S
H697 C711 0.930 . S
H698 C675 0.931 . S
H699 C705 0.930 1_455 S
H700 C738 0.930 . S
H701 C682 0.930 . S
H702 C737 0.931 . S
N703 Eu672 2.657 . S
N703 C704 1.334 . S
N703 C708 1.362 . S
C704 H696 0.929 . S
C704 N703 1.334 . S
C704 C707 1.413 . S
C705 H699 0.930 1_655 S
C705 C706 1.392 . S
C705 C707 1.367 . S
C706 C705 1.392 . S
C706 C708 1.420 . S
C706 C738 1.423 1_655 S
C707 H693 0.930 . S
C707 C704 1.413 . S
C707 C705 1.367 . S
C708 N703 1.362 . S
C708 C706 1.420 . S
C708 C712 1.429 . S
H709 C714 0.930 . S
N710 Eu672 2.609 . S
N710 C712 1.377 . S
N710 C713 1.321 . S
C711 H697 0.930 . S
C711 C713 1.400 . S
C711 C714 1.386 . S
C712 C708 1.429 . S
C712 N710 1.377 . S
C712 C715 1.411 . S
C713 H695 0.930 . S
C713 N710 1.321 . S
C713 C711 1.400 . S
C714 H709 0.930 . S
C714 C711 1.386 . S
C714 C715 1.395 . S
C715 C712 1.411 . S
C715 C714 1.395 . S
C715 C737 1.420 1_655 S
O716 Eu672 2.558 . S
O716 C736 1.257 . S
O717 Eu672 2.612 . S
O717 Eu683 2.380 . S
O717 C728 1.276 . S
O718 Eu683 2.432 . S
O718 C735 1.264 . S
O719 Eu672 2.339 . S
O719 C735 1.254 . S
O720 Eu672 2.563 . S
O720 C728 1.235 . S
O721 Eu672 2.419 . S
O721 C736 1.249 . S
O722 Eu683 2.558 . S
O722 C747 1.257 . S
O723 Eu672 2.380 . S
O723 Eu683 2.612 . S
O723 C739 1.276 . S
O724 Eu672 2.432 . S
O724 C746 1.264 . S
O725 Eu683 2.339 . S
O725 C746 1.254 . S
O726 Eu683 2.563 . S
O726 C739 1.235 . S
O727 Eu683 2.419 . S
O727 C747 1.249 . S
C728 O717 1.276 . S
C728 O720 1.235 . S
C729 C731 1.393 . S
C729 C733 1.395 . S
C729 C736 1.492 . S
C730 C731 1.392 . S
C730 C732 1.386 . S
C731 C729 1.393 . S
C731 C730 1.392 . S
C731 H748 0.930 . S
C732 C730 1.386 . S
C732 C734 1.395 . S
C732 H749 0.930 . S
C733 C729 1.395 . S
C733 C734 1.379 . S
C733 H750 0.930 . S
C734 C732 1.395 . S
C734 C733 1.379 . S
C734 H751 0.930 . S
C735 O718 1.264 . S
C735 O719 1.254 . S
C736 Eu672 2.848 . S
C736 O716 1.257 . S
C736 O721 1.249 . S
C736 C729 1.492 . S
C737 H702 0.931 . S
C737 C715 1.420 1_455 S
C737 C738 1.351 . S
C738 H700 0.930 . S
C738 C706 1.423 1_455 S
C738 C737 1.351 . S
C739 O723 1.276 . S
C739 O726 1.235 . S
C740 C741 1.393 . S
C740 C744 1.395 . S
C740 C747 1.492 . S
C741 C740 1.393 . S
C741 C742 1.392 . S
C741 H752 0.930 . S
C742 C741 1.392 . S
C742 C743 1.386 . S
C743 C742 1.386 . S
C743 C745 1.395 . S
C743 H753 0.930 . S
C744 C740 1.395 . S
C744 C745 1.379 . S
C744 H754 0.930 . S
C745 C743 1.395 . S
C745 C744 1.379 . S
C745 H755 0.930 . S
C746 O724 1.264 . S
C746 O725 1.254 . S
C747 Eu683 2.848 . S
C747 O722 1.257 . S
C747 O727 1.249 . S
C747 C740 1.492 . S
H748 C731 0.930 . S
H749 C732 0.930 . S
H750 C733 0.930 . S
H751 C734 0.930 . S
H752 C741 0.930 . S
H753 C743 0.930 . S
H754 C744 0.930 . S
H755 C745 0.930 . S
C756 C757 1.391 . S
C756 C758 1.394 . S
C756 H772 0.931 . S
C757 C756 1.391 . S
C757 C761 1.376 1_554 S
C758 C756 1.394 . S
C758 C759 1.369 . S
C758 C762 1.531 . S
C759 C758 1.369 . S
C759 C760 1.410 1_554 S
C759 C767 1.503 . S
C760 C759 1.410 1_556 S
C760 C761 1.392 . S
C760 C763 1.511 . S
C761 C757 1.376 1_556 S
C761 C760 1.392 . S
C761 H773 0.929 . S
C762 C758 1.531 . S
C762 H774 0.960 . S
C762 H775 0.962 . S
C762 H776 0.960 . S
C763 C760 1.511 . S
C763 H777 0.961 . S
C763 H778 0.961 . S
C763 H779 0.961 . S
C764 C765 1.370 . S
C764 C766 1.363 . S
C764 H780 0.931 . S
C765 C764 1.370 . S
C765 C769 1.408 1_554 S
C766 C764 1.363 . S
C766 C767 1.370 . S
C766 C770 1.524 . S
C767 C759 1.503 . S
C767 C766 1.370 . S
C767 C768 1.403 1_554 S
C768 C767 1.403 1_556 S
C768 C769 1.404 . S
C768 C771 1.539 . S
C769 C765 1.408 1_556 S
C769 C768 1.404 . S
C769 H781 0.930 . S
C770 C766 1.524 . S
C770 H782 0.956 . S
C770 H783 0.961 . S
C770 H784 0.961 . S
C771 C768 1.539 . S
C771 H785 0.958 . S
C771 H786 0.961 . S
C771 H787 0.960 . S
H772 C756 0.931 . S
H773 C761 0.929 . S
H774 C762 0.960 . S
H775 C762 0.962 . S
H776 C762 0.960 . S
H777 C763 0.961 . S
H778 C763 0.961 . S
H779 C763 0.961 . S
H780 C764 0.931 . S
H781 C769 0.930 . S
H782 C770 0.956 . S
H783 C770 0.961 . S
H784 C770 0.961 . S
H785 C771 0.958 . S
H786 C771 0.961 . S
H787 C771 0.960 . S
C788 C789 1.391 . S
C788 C790 1.394 . S
C788 H804 0.931 . S
C789 C788 1.391 . S
C789 C793 1.376 . S
C790 C788 1.394 . S
C790 C791 1.369 . S
C790 C794 1.531 . S
C791 C790 1.369 . S
C791 C792 1.410 . S
C791 C799 1.503 . S
C792 C791 1.410 . S
C792 C793 1.392 . S
C792 C795 1.511 . S
C793 C789 1.376 . S
C793 C792 1.392 . S
C793 H805 0.929 . S
C794 C790 1.531 . S
C794 H806 0.960 . S
C794 H807 0.962 . S
C794 H808 0.960 . S
C795 C792 1.511 . S
C795 H809 0.961 1_554 S
C795 H810 0.961 1_554 S
C795 H811 0.961 . S
C796 C797 1.370 1_556 S
C796 C798 1.363 . S
C796 H812 0.931 . S
C797 C796 1.370 1_554 S
C797 C801 1.408 . S
C798 C796 1.363 . S
C798 C799 1.370 1_556 S
C798 C802 1.524 . S
C799 C791 1.503 . S
C799 C798 1.370 1_554 S
C799 C800 1.403 . S
C800 C799 1.403 . S
C800 C801 1.404 . S
C800 C803 1.539 . S
C801 C797 1.408 . S
C801 C800 1.404 . S
C801 H813 0.930 . S
C802 C798 1.524 . S
C802 H814 0.956 . S
C802 H815 0.961 . S
C802 H816 0.961 . S
C803 C800 1.539 . S
C803 H817 0.958 . S
C803 H818 0.961 . S
C803 H819 0.960 . S
H804 C788 0.931 . S
H805 C793 0.929 . S
H806 C794 0.960 . S
H807 C794 0.962 . S
H808 C794 0.960 . S
H809 C795 0.961 1_556 S
H810 C795 0.961 1_556 S
H811 C795 0.961 . S
H812 C796 0.931 . S
H813 C801 0.930 . S
H814 C802 0.956 . S
H815 C802 0.961 . S
H816 C802 0.961 . S
H817 C803 0.958 . S
H818 C803 0.961 . S
H819 C803 0.960 . S
C820 C821 1.391 1_556 S
C820 C822 1.389 1_556 S
C820 H836 0.931 . S
C821 C820 1.391 1_554 S
C821 C825 1.376 . S
C822 C820 1.389 1_554 S
C822 C823 1.385 . S
C822 C826 1.521 1_554 S
C823 C822 1.385 . S
C823 C824 1.410 . S
C823 C831 1.503 . S
C824 C823 1.410 . S
C824 C825 1.392 . S
C824 C827 1.511 . S
C825 C821 1.376 . S
C825 C824 1.392 . S
C825 H837 0.929 . S
C826 C822 1.521 1_556 S
C826 H838 0.960 1_556 S
C826 H839 0.962 . S
C826 H840 0.960 . S
C827 C824 1.511 . S
C827 H841 0.961 . S
C827 H842 0.961 . S
C827 H843 0.961 . S
C828 C829 1.370 1_556 S
C828 C830 1.363 . S
C828 H844 0.931 . S
C829 C828 1.370 1_554 S
C829 C833 1.408 . S
C830 C828 1.363 . S
C830 C831 1.370 1_556 S
C830 C834 1.524 . S
C831 C823 1.503 . S
C831 C830 1.370 1_554 S
C831 C832 1.403 . S
C832 C831 1.403 . S
C832 C833 1.404 . S
C832 C835 1.539 . S
C833 C829 1.408 . S
C833 C832 1.404 . S
C833 H845 0.930 . S
C834 C830 1.524 . S
C834 H846 0.956 . S
C834 H847 0.961 . S
C834 H848 0.961 . S
C835 C832 1.539 . S
C835 H849 0.958 . S
C835 H850 0.961 . S
C835 H851 0.960 . S
H836 C820 0.931 . S
H837 C825 0.929 . S
H838 C826 0.960 1_554 S
H839 C826 0.962 . S
H840 C826 0.960 . S
H841 C827 0.961 . S
H842 C827 0.961 . S
H843 C827 0.961 . S
H844 C828 0.931 . S
H845 C833 0.930 . S
H846 C834 0.956 . S
H847 C834 0.961 . S
H848 C834 0.961 . S
H849 C835 0.958 . S
H850 C835 0.961 . S
H851 C835 0.960 . S
C852 C853 1.391 . S
C852 C854 1.394 . S
C852 H868 0.931 . S
C853 C852 1.391 . S
C853 C857 1.376 1_556 S
C854 C852 1.394 . S
C854 C855 1.384 . S
C854 C858 1.531 . S
C855 C854 1.384 . S
C855 C856 1.399 1_556 S
C855 C863 1.502 1_556 S
C856 C855 1.399 1_554 S
C856 C857 1.392 . S
C856 C859 1.511 . S
C857 C853 1.376 1_554 S
C857 C856 1.392 . S
C857 H869 0.929 . S
C858 C854 1.531 . S
C858 H870 0.960 . S
C858 H871 0.962 . S
C858 H872 0.960 . S
C859 C856 1.511 . S
C859 H873 0.961 . S
C859 H874 0.961 . S
C859 H875 0.961 . S
C860 C861 1.370 1_556 S
C860 C862 1.363 . S
C860 H876 0.931 . S
C861 C860 1.370 1_554 S
C861 C865 1.408 . S
C862 C860 1.363 . S
C862 C863 1.354 1_556 S
C862 C866 1.524 . S
C863 C855 1.502 1_554 S
C863 C862 1.354 1_554 S
C863 C864 1.419 . S
C864 C863 1.419 . S
C864 C865 1.404 . S
C864 C867 1.539 . S
C865 C861 1.408 . S
C865 C864 1.404 . S
C865 H877 0.930 . S
C866 C862 1.524 . S
C866 H878 0.956 . S
C866 H879 0.961 . S
C866 H880 0.961 . S
C867 C864 1.539 . S
C867 H881 0.958 . S
C867 H882 0.961 . S
C867 H883 0.960 . S
H868 C852 0.931 . S
H869 C857 0.929 . S
H870 C858 0.960 . S
H871 C858 0.962 . S
H872 C858 0.960 . S
H873 C859 0.961 . S
H874 C859 0.961 . S
H875 C859 0.961 . S
H876 C860 0.931 . S
H877 C865 0.930 . S
H878 C866 0.956 . S
H879 C866 0.961 . S
H880 C866 0.961 . S
H881 C867 0.958 . S
H882 C867 0.961 . S
H883 C867 0.960 . S
C884 C885 1.391 . S
C884 C886 1.394 . S
C884 H900 0.931 . S
C885 C884 1.391 . S
C885 C889 1.376 1_554 S
C886 C884 1.394 . S
C886 C887 1.369 . S
C886 C890 1.531 . S
C887 C886 1.369 . S
C887 C888 1.410 1_554 S
C887 C895 1.503 1_554 S
C888 C887 1.410 1_556 S
C888 C889 1.392 . S
C888 C891 1.511 . S
C889 C885 1.376 1_556 S
C889 C888 1.392 . S
C889 H901 0.929 . S
C890 C886 1.531 . S
C890 H902 0.960 . S
C890 H903 0.962 1_554 S
C890 H904 0.960 . S
C891 C888 1.511 . S
C891 H905 0.961 . S
C891 H906 0.961 . S
C891 H907 0.961 1_556 S
C892 C893 1.370 . S
C892 C894 1.363 . S
C892 H908 0.931 . S
C893 C892 1.370 . S
C893 C897 1.408 1_556 S
C894 C892 1.363 . S
C894 C895 1.370 . S
C894 C898 1.524 . S
C895 C887 1.503 1_556 S
C895 C894 1.370 . S
C895 C896 1.403 1_556 S
C896 C895 1.403 1_554 S
C896 C897 1.404 . S
C896 C899 1.539 . S
C897 C893 1.408 1_554 S
C897 C896 1.404 . S
C897 H909 0.930 . S
C898 C894 1.524 . S
C898 H910 0.956 . S
C898 H911 0.961 . S
C898 H912 0.961 . S
C899 C896 1.539 . S
C899 H913 0.958 . S
C899 H914 0.961 . S
C899 H915 0.960 . S
H900 C884 0.931 . S
H901 C889 0.929 . S
H902 C890 0.960 . S
H903 C890 0.962 1_556 S
H904 C890 0.960 . S
H905 C891 0.961 . S
H906 C891 0.961 . S
H907 C891 0.961 1_554 S
H908 C892 0.931 . S
H909 C897 0.930 . S
H910 C898 0.956 . S
H911 C898 0.961 . S
H912 C898 0.961 . S
H913 C899 0.958 . S
H914 C899 0.961 . S
H915 C899 0.960 . S
C916 C917 1.391 . S
C916 C918 1.394 . S
C916 H932 0.931 . S
C917 C916 1.391 . S
C917 C921 1.376 1_554 S
C918 C916 1.394 . S
C918 C919 1.369 . S
C918 C922 1.531 . S
C919 C918 1.369 . S
C919 C920 1.410 1_554 S
C919 C927 1.503 1_554 S
C920 C919 1.410 1_556 S
C920 C921 1.392 . S
C920 C923 1.511 . S
C921 C917 1.376 1_556 S
C921 C920 1.392 . S
C921 H933 0.929 . S
C922 C918 1.531 . S
C922 H934 0.960 . S
C922 H935 0.962 . S
C922 H936 0.960 . S
C923 C920 1.511 . S
C923 H937 0.961 . S
C923 H938 0.961 . S
C923 H939 0.961 . S
C924 C925 1.370 . S
C924 C926 1.363 . S
C924 H940 0.931 . S
C925 C924 1.370 . S
C925 C929 1.408 1_556 S
C926 C924 1.363 . S
C926 C927 1.370 . S
C926 C930 1.524 . S
C927 C919 1.503 1_556 S
C927 C926 1.370 . S
C927 C928 1.403 1_556 S
C928 C927 1.403 1_554 S
C928 C929 1.404 . S
C928 C931 1.539 . S
C929 C925 1.408 1_554 S
C929 C928 1.404 . S
C929 H941 0.930 . S
C930 C926 1.524 . S
C930 H942 0.956 . S
C930 H943 0.961 . S
C930 H944 0.961 . S
C931 C928 1.539 . S
C931 H945 0.958 . S
C931 H946 0.961 . S
C931 H947 0.960 . S
H932 C916 0.931 . S
H933 C921 0.929 . S
H934 C922 0.960 . S
H935 C922 0.962 . S
H936 C922 0.960 . S
H937 C923 0.961 . S
H938 C923 0.961 . S
H939 C923 0.961 . S
H940 C924 0.931 . S
H941 C929 0.930 . S
H942 C930 0.956 . S
H943 C930 0.961 . S
H944 C930 0.961 . S
H945 C931 0.958 . S
H946 C931 0.961 . S
H947 C931 0.960 . S
C948 C949 1.391 . S
C948 C950 1.394 . S
C948 H964 0.931 . S
C949 C948 1.391 . S
C949 C953 1.376 . S
C950 C948 1.394 . S
C950 C951 1.369 . S
C950 C954 1.531 . S
C951 C950 1.369 . S
C951 C952 1.410 . S
C951 C959 1.503 . S
C952 C951 1.410 . S
C952 C953 1.392 . S
C952 C955 1.511 . S
C953 C949 1.376 . S
C953 C952 1.392 . S
C953 H965 0.929 . S
C954 C950 1.531 . S
C954 H966 0.960 . S
C954 H967 0.962 . S
C954 H968 0.960 . S
C955 C952 1.511 . S
C955 H969 0.961 . S
C955 H970 0.961 . S
C955 H971 0.961 . S
C956 C957 1.370 . S
C956 C958 1.363 . S
C956 H972 0.931 . S
C957 C956 1.370 . S
C957 C961 1.408 . S
C958 C956 1.363 . S
C958 C959 1.370 . S
C958 C962 1.524 . S
C959 C951 1.503 . S
C959 C958 1.370 . S
C959 C960 1.403 . S
C960 C959 1.403 . S
C960 C961 1.404 . S
C960 C963 1.539 . S
C961 C957 1.408 . S
C961 C960 1.404 . S
C961 H973 0.930 . S
C962 C958 1.524 . S
C962 H974 0.956 . S
C962 H975 0.961 . S
C962 H976 0.961 . S
C963 C960 1.539 . S
C963 H977 0.958 . S
C963 H978 0.961 . S
C963 H979 0.960 . S
H964 C948 0.931 . S
H965 C953 0.929 . S
H966 C954 0.960 . S
H967 C954 0.962 . S
H968 C954 0.960 . S
H969 C955 0.961 . S
H970 C955 0.961 . S
H971 C955 0.961 . S
H972 C956 0.931 . S
H973 C961 0.930 . S
H974 C962 0.956 . S
H975 C962 0.961 . S
H976 C962 0.961 . S
H977 C963 0.958 . S
H978 C963 0.961 . S
H979 C963 0.960 . S
C980 C981 1.391 . S
C980 C982 1.394 . S
C980 H996 0.931 . S
C981 C980 1.391 . S
C981 C985 1.376 . S
C982 C980 1.394 . S
C982 C983 1.369 . S
C982 C986 1.531 . S
C983 C982 1.369 . S
C983 C984 1.410 . S
C983 C991 1.503 . S
C984 C983 1.410 . S
C984 C985 1.392 . S
C984 C987 1.511 . S
C985 C981 1.376 . S
C985 C984 1.392 . S
C985 H997 0.929 . S
C986 C982 1.531 . S
C986 H998 0.960 1_545 S
C986 H999 0.962 1_545 S
C986 H1000 0.960 . S
C987 C984 1.511 . S
C987 H1001 0.961 . S
C987 H1002 0.961 . S
C987 H1003 0.961 . S
C988 C989 1.370 . S
C988 C990 1.343 1_565 S
C988 H1004 0.931 . S
C989 C988 1.370 . S
C989 C993 1.408 . S
C990 C988 1.343 1_545 S
C990 C991 1.383 . S
C990 C994 1.533 . S
C991 C983 1.503 . S
C991 C990 1.383 . S
C991 C992 1.403 . S
C992 C991 1.403 . S
C992 C993 1.404 1_545 S
C992 C995 1.539 . S
C993 C989 1.408 . S
C993 C992 1.404 1_565 S
C993 H1005 0.930 . S
C994 C990 1.533 . S
C994 H1006 0.956 . S
C994 H1007 0.961 . S
C994 H1008 0.961 1_545 S
C995 C992 1.539 . S
C995 H1009 0.958 . S
C995 H1010 0.961 . S
C995 H1011 0.960 . S
H996 C980 0.931 . S
H997 C985 0.929 . S
H998 C986 0.960 1_565 S
H999 C986 0.962 1_565 S
H1000 C986 0.960 . S
H1001 C987 0.961 . S
H1002 C987 0.961 . S
H1003 C987 0.961 . S
H1004 C988 0.931 . S
H1005 C993 0.930 . S
H1006 C994 0.956 . S
H1007 C994 0.961 . S
H1008 C994 0.961 1_565 S
H1009 C995 0.958 . S
H1010 C995 0.961 . S
H1011 C995 0.960 . S
C1012 C1013 1.391 . S
C1012 C1014 1.394 . S
C1012 H1028 0.931 . S
C1013 C1012 1.391 . S
C1013 C1017 1.376 . S
C1014 C1012 1.394 . S
C1014 C1015 1.369 1_455 S
C1014 C1018 1.531 . S
C1015 C1014 1.369 1_655 S
C1015 C1016 1.410 . S
C1015 C1023 1.503 . S
C1016 C1015 1.410 . S
C1016 C1017 1.392 1_655 S
C1016 C1019 1.511 . S
C1017 C1013 1.376 . S
C1017 C1016 1.392 1_455 S
C1017 H1029 0.929 . S
C1018 C1014 1.531 . S
C1018 H1030 0.960 . S
C1018 H1031 0.962 . S
C1018 H1032 0.960 . S
C1019 C1016 1.511 . S
C1019 H1033 0.961 . S
C1019 H1034 0.961 . S
C1019 H1035 0.961 . S
C1020 C1021 1.370 . S
C1020 C1022 1.363 . S
C1020 H1036 0.931 . S
C1021 C1020 1.370 . S
C1021 C1025 1.408 . S
C1022 C1020 1.363 . S
C1022 C1023 1.370 . S
C1022 C1026 1.524 . S
C1023 C1015 1.503 . S
C1023 C1022 1.370 . S
C1023 C1024 1.403 . S
C1024 C1023 1.403 . S
C1024 C1025 1.404 . S
C1024 C1027 1.539 . S
C1025 C1021 1.408 . S
C1025 C1024 1.404 . S
C1025 H1037 0.930 . S
C1026 C1022 1.524 . S
C1026 H1038 0.968 . S
C1026 H1039 0.961 . S
C1026 H1040 0.961 . S
C1027 C1024 1.539 . S
C1027 H1041 0.958 . S
C1027 H1042 0.961 . S
C1027 H1043 0.960 . S
H1028 C1012 0.931 . S
H1029 C1017 0.929 . S
H1030 C1018 0.960 . S
H1031 C1018 0.962 . S
H1032 C1018 0.960 . S
H1033 C1019 0.961 . S
H1034 C1019 0.961 . S
H1035 C1019 0.961 . S
H1036 C1020 0.931 . S
H1037 C1025 0.930 . S
H1038 C1026 0.968 . S
H1039 C1026 0.961 . S
H1040 C1026 0.961 . S
H1041 C1027 0.958 . S
H1042 C1027 0.961 . S
H1043 C1027 0.960 . S
C1044 C1045 1.391 . S
C1044 C1046 1.394 . S
C1044 H1060 0.931 . S
C1045 C1044 1.391 . S
C1045 C1049 1.376 . S
C1046 C1044 1.394 . S
C1046 C1047 1.369 . S
C1046 C1050 1.531 . S
C1047 C1046 1.369 . S
C1047 C1048 1.410 . S
C1047 C1055 1.503 . S
C1048 C1047 1.410 . S
C1048 C1049 1.392 . S
C1048 C1051 1.511 . S
C1049 C1045 1.376 . S
C1049 C1048 1.392 . S
C1049 H1061 0.929 . S
C1050 C1046 1.531 . S
C1050 H1062 0.960 . S
C1050 H1063 0.962 . S
C1050 H1064 0.960 . S
C1051 C1048 1.511 . S
C1051 H1065 0.961 . S
C1051 H1066 0.961 . S
C1051 H1067 0.961 . S
C1052 C1053 1.370 . S
C1052 C1054 1.363 . S
C1052 H1068 0.931 . S
C1053 C1052 1.370 . S
C1053 C1057 1.408 . S
C1054 C1052 1.363 . S
C1054 C1055 1.370 . S
C1054 C1058 1.524 . S
C1055 C1047 1.503 . S
C1055 C1054 1.370 . S
C1055 C1056 1.403 . S
C1056 C1055 1.403 . S
C1056 C1057 1.404 . S
C1056 C1059 1.539 . S
C1057 C1053 1.408 . S
C1057 C1056 1.404 . S
C1057 H1069 0.930 . S
C1058 C1054 1.524 . S
C1058 H1070 0.956 . S
C1058 H1071 0.961 . S
C1058 H1072 0.961 . S
C1059 C1056 1.539 . S
C1059 H1073 0.958 . S
C1059 H1074 0.961 . S
C1059 H1075 0.960 . S
H1060 C1044 0.931 . S
H1061 C1049 0.929 . S
H1062 C1050 0.960 . S
H1063 C1050 0.962 . S
H1064 C1050 0.960 . S
H1065 C1051 0.961 . S
H1066 C1051 0.961 . S
H1067 C1051 0.961 . S
H1068 C1052 0.931 . S
H1069 C1057 0.930 . S
H1070 C1058 0.956 . S
H1071 C1058 0.961 . S
H1072 C1058 0.961 . S
H1073 C1059 0.958 . S
H1074 C1059 0.961 . S
H1075 C1059 0.960 . S
C1076 C1077 1.391 . S
C1076 C1078 1.394 . S
C1076 H1092 0.931 . S
C1077 C1076 1.391 . S
C1077 C1081 1.376 . S
C1078 C1076 1.394 . S
C1078 C1079 1.369 . S
C1078 C1082 1.531 . S
C1079 C1078 1.369 . S
C1079 C1080 1.410 . S
C1079 C1087 1.503 . S
C1080 C1079 1.410 . S
C1080 C1081 1.392 . S
C1080 C1083 1.511 . S
C1081 C1077 1.376 . S
C1081 C1080 1.392 . S
C1081 H1093 0.929 . S
C1082 C1078 1.531 . S
C1082 H1094 0.960 . S
C1082 H1095 0.962 . S
C1082 H1096 0.960 . S
C1083 C1080 1.511 . S
C1083 H1097 0.961 . S
C1083 H1098 0.961 . S
C1083 H1099 0.961 . S
C1084 C1085 1.370 . S
C1084 C1086 1.363 . S
C1084 H1100 0.931 . S
C1085 C1084 1.370 . S
C1085 C1089 1.408 . S
C1086 C1084 1.363 . S
C1086 C1087 1.370 . S
C1086 C1090 1.524 . S
C1087 C1079 1.503 . S
C1087 C1086 1.370 . S
C1087 C1088 1.403 . S
C1088 C1087 1.403 . S
C1088 C1089 1.404 . S
C1088 C1091 1.539 . S
C1089 C1085 1.408 . S
C1089 C1088 1.404 . S
C1089 H1101 0.930 . S
C1090 C1086 1.524 . S
C1090 H1102 0.956 . S
C1090 H1103 0.961 . S
C1090 H1104 0.961 . S
C1091 C1088 1.539 . S
C1091 H1105 0.958 . S
C1091 H1106 0.961 . S
C1091 H1107 0.960 . S
H1092 C1076 0.931 . S
H1093 C1081 0.929 . S
H1094 C1082 0.960 . S
H1095 C1082 0.962 . S
H1096 C1082 0.960 . S
H1097 C1083 0.961 . S
H1098 C1083 0.961 . S
H1099 C1083 0.961 . S
H1100 C1084 0.931 . S
H1101 C1089 0.930 . S
H1102 C1090 0.956 . S
H1103 C1090 0.961 . S
H1104 C1090 0.961 . S
H1105 C1091 0.958 . S
H1106 C1091 0.961 . S
H1107 C1091 0.960 . S
C1108 C1109 1.391 . S
C1108 C1110 1.394 . S
C1108 H1124 0.931 . S
C1109 C1108 1.391 . S
C1109 C1113 1.376 . S
C1110 C1108 1.394 . S
C1110 C1111 1.369 . S
C1110 C1114 1.531 . S
C1111 C1110 1.369 . S
C1111 C1112 1.410 . S
C1111 C1119 1.503 . S
C1112 C1111 1.410 . S
C1112 C1113 1.392 . S
C1112 C1115 1.511 . S
C1113 C1109 1.376 . S
C1113 C1112 1.392 . S
C1113 H1125 0.929 . S
C1114 C1110 1.531 . S
C1114 H1126 0.960 . S
C1114 H1127 0.962 . S
C1114 H1128 0.960 . S
C1115 C1112 1.511 . S
C1115 H1129 0.961 . S
C1115 H1130 0.961 . S
C1115 H1131 0.961 . S
C1116 C1117 1.370 . S
C1116 C1118 1.363 . S
C1116 H1132 0.931 . S
C1117 C1116 1.370 . S
C1117 C1121 1.408 . S
C1118 C1116 1.363 . S
C1118 C1119 1.370 . S
C1118 C1122 1.524 . S
C1119 C1111 1.503 . S
C1119 C1118 1.370 . S
C1119 C1120 1.403 . S
C1120 C1119 1.403 . S
C1120 C1121 1.404 . S
C1120 C1123 1.539 . S
C1121 C1117 1.408 . S
C1121 C1120 1.404 . S
C1121 H1133 0.930 . S
C1122 C1118 1.524 . S
C1122 H1134 0.956 . S
C1122 H1135 0.961 . S
C1122 H1136 0.961 . S
C1123 C1120 1.539 . S
C1123 H1137 0.958 . S
C1123 H1138 0.961 . S
C1123 H1139 0.960 . S
H1124 C1108 0.931 . S
H1125 C1113 0.929 . S
H1126 C1114 0.960 . S
H1127 C1114 0.962 . S
H1128 C1114 0.960 . S
H1129 C1115 0.961 . S
H1130 C1115 0.961 . S
H1131 C1115 0.961 . S
H1132 C1116 0.931 . S
H1133 C1121 0.930 . S
H1134 C1122 0.956 . S
H1135 C1122 0.961 . S
H1136 C1122 0.961 . S
H1137 C1123 0.958 . S
H1138 C1123 0.961 . S
H1139 C1123 0.960 . S
C1140 C1141 1.391 . S
C1140 C1142 1.394 . S
C1140 H1156 0.931 . S
C1141 C1140 1.391 . S
C1141 C1145 1.376 . S
C1142 C1140 1.394 . S
C1142 C1143 1.369 . S
C1142 C1146 1.531 . S
C1143 C1142 1.369 . S
C1143 C1144 1.410 . S
C1143 C1151 1.503 . S
C1144 C1143 1.410 . S
C1144 C1145 1.392 . S
C1144 C1147 1.511 . S
C1145 C1141 1.376 . S
C1145 C1144 1.392 . S
C1145 H1157 0.929 . S
C1146 C1142 1.531 . S
C1146 H1158 0.960 . S
C1146 H1159 0.962 . S
C1146 H1160 0.960 . S
C1147 C1144 1.511 . S
C1147 H1161 0.961 . S
C1147 H1162 0.961 . S
C1147 H1163 0.961 . S
C1148 C1149 1.370 . S
C1148 C1150 1.363 . S
C1148 H1164 0.931 . S
C1149 C1148 1.370 . S
C1149 C1153 1.408 . S
C1150 C1148 1.363 . S
C1150 C1151 1.370 . S
C1150 C1154 1.524 . S
C1151 C1143 1.503 . S
C1151 C1150 1.370 . S
C1151 C1152 1.403 . S
C1152 C1151 1.403 . S
C1152 C1153 1.404 . S
C1152 C1155 1.539 . S
C1153 C1149 1.408 . S
C1153 C1152 1.404 . S
C1153 H1165 0.930 . S
C1154 C1150 1.524 . S
C1154 H1166 0.956 . S
C1154 H1167 0.961 . S
C1154 H1168 0.961 . S
C1155 C1152 1.539 . S
C1155 H1169 0.958 . S
C1155 H1170 0.961 . S
C1155 H1171 0.960 . S
H1156 C1140 0.931 . S
H1157 C1145 0.929 . S
H1158 C1146 0.960 . S
H1159 C1146 0.962 . S
H1160 C1146 0.960 . S
H1161 C1147 0.961 . S
H1162 C1147 0.961 . S
H1163 C1147 0.961 . S
H1164 C1148 0.931 . S
H1165 C1153 0.930 . S
H1166 C1154 0.956 . S
H1167 C1154 0.961 . S
H1168 C1154 0.961 . S
H1169 C1155 0.958 . S
H1170 C1155 0.961 . S
H1171 C1155 0.960 . S
C1172 C1173 1.391 . S
C1172 C1174 1.394 . S
C1172 H1188 0.931 . S
C1173 C1172 1.391 . S
C1173 C1177 1.376 . S
C1174 C1172 1.394 . S
C1174 C1175 1.369 . S
C1174 C1178 1.531 . S
C1175 C1174 1.369 . S
C1175 C1176 1.410 . S
C1175 C1183 1.503 . S
C1176 C1175 1.410 . S
C1176 C1177 1.392 . S
C1176 C1179 1.511 . S
C1177 C1173 1.376 . S
C1177 C1176 1.392 . S
C1177 H1189 0.929 . S
C1178 C1174 1.531 . S
C1178 H1190 0.960 . S
C1178 H1191 0.962 . S
C1178 H1192 0.960 . S
C1179 C1176 1.511 . S
C1179 H1193 0.961 . S
C1179 H1194 0.961 . S
C1179 H1195 0.961 . S
C1180 C1181 1.370 . S
C1180 C1182 1.363 . S
C1180 H1196 0.931 . S
C1181 C1180 1.370 . S
C1181 C1185 1.408 . S
C1182 C1180 1.363 . S
C1182 C1183 1.370 . S
C1182 C1186 1.524 . S
C1183 C1175 1.503 . S
C1183 C1182 1.370 . S
C1183 C1184 1.403 . S
C1184 C1183 1.403 . S
C1184 C1185 1.404 . S
C1184 C1187 1.539 . S
C1185 C1181 1.408 . S
C1185 C1184 1.404 . S
C1185 H1197 0.930 . S
C1186 C1182 1.524 . S
C1186 H1198 0.956 . S
C1186 H1199 0.961 . S
C1186 H1200 0.961 . S
C1187 C1184 1.539 . S
C1187 H1201 0.958 . S
C1187 H1202 0.961 . S
C1187 H1203 0.960 . S
H1188 C1172 0.931 . S
H1189 C1177 0.929 . S
H1190 C1178 0.960 . S
H1191 C1178 0.962 . S
H1192 C1178 0.960 . S
H1193 C1179 0.961 . S
H1194 C1179 0.961 . S
H1195 C1179 0.961 . S
H1196 C1180 0.931 . S
H1197 C1185 0.930 . S
H1198 C1186 0.956 . S
H1199 C1186 0.961 . S
H1200 C1186 0.961 . S
H1201 C1187 0.958 . S
H1202 C1187 0.961 . S
H1203 C1187 0.960 . S
C1204 C1205 1.391 . S
C1204 C1206 1.394 . S
C1204 H1220 0.931 . S
C1205 C1204 1.391 . S
C1205 C1209 1.376 . S
C1206 C1204 1.394 . S
C1206 C1207 1.369 . S
C1206 C1210 1.531 . S
C1207 C1206 1.369 . S
C1207 C1208 1.410 . S
C1207 C1215 1.503 . S
C1208 C1207 1.410 . S
C1208 C1209 1.392 . S
C1208 C1211 1.511 . S
C1209 C1205 1.376 . S
C1209 C1208 1.392 . S
C1209 H1221 0.929 . S
C1210 C1206 1.531 . S
C1210 H1222 0.960 . S
C1210 H1223 0.962 . S
C1210 H1224 0.960 . S
C1211 C1208 1.511 . S
C1211 H1225 0.961 . S
C1211 H1226 0.961 . S
C1211 H1227 0.961 . S
C1212 C1213 1.370 . S
C1212 C1214 1.363 . S
C1212 H1228 0.931 . S
C1213 C1212 1.370 . S
C1213 C1217 1.408 . S
C1214 C1212 1.363 . S
C1214 C1215 1.370 . S
C1214 C1218 1.524 . S
C1215 C1207 1.503 . S
C1215 C1214 1.370 . S
C1215 C1216 1.403 . S
C1216 C1215 1.403 . S
C1216 C1217 1.404 . S
C1216 C1219 1.539 . S
C1217 C1213 1.408 . S
C1217 C1216 1.404 . S
C1217 H1229 0.930 . S
C1218 C1214 1.524 . S
C1218 H1230 0.956 . S
C1218 H1231 0.961 . S
C1218 H1232 0.961 . S
C1219 C1216 1.539 . S
C1219 H1233 0.958 . S
C1219 H1234 0.961 . S
C1219 H1235 0.960 . S
H1220 C1204 0.931 . S
H1221 C1209 0.929 . S
H1222 C1210 0.960 . S
H1223 C1210 0.962 . S
H1224 C1210 0.960 . S
H1225 C1211 0.961 . S
H1226 C1211 0.961 . S
H1227 C1211 0.961 . S
H1228 C1212 0.931 . S
H1229 C1217 0.930 . S
H1230 C1218 0.956 . S
H1231 C1218 0.961 . S
H1232 C1218 0.961 . S
H1233 C1219 0.958 . S
H1234 C1219 0.961 . S
H1235 C1219 0.960 . S
C1236 C1237 1.391 . S
C1236 C1238 1.394 . S
C1236 H1252 0.931 . S
C1237 C1236 1.391 . S
C1237 C1241 1.376 . S
C1238 C1236 1.394 . S
C1238 C1239 1.369 . S
C1238 C1242 1.532 . S
C1239 C1238 1.369 . S
C1239 C1240 1.410 . S
C1239 C1247 1.503 1_565 S
C1240 C1239 1.410 . S
C1240 C1241 1.392 . S
C1240 C1243 1.511 . S
C1241 C1237 1.376 . S
C1241 C1240 1.392 . S
C1241 H1253 0.929 . S
C1242 C1238 1.532 . S
C1242 H1254 0.958 1_565 S
C1242 H1255 0.962 1_565 S
C1242 H1256 0.962 . S
C1243 C1240 1.511 . S
C1243 H1257 0.961 . S
C1243 H1258 0.961 . S
C1243 H1259 0.961 . S
C1244 C1245 1.370 . S
C1244 C1246 1.363 . S
C1244 H1260 0.931 . S
C1245 C1244 1.370 . S
C1245 C1249 1.408 . S
C1246 C1244 1.363 . S
C1246 C1247 1.370 . S
C1246 C1250 1.524 . S
C1247 C1239 1.503 1_545 S
C1247 C1246 1.370 . S
C1247 C1248 1.403 . S
C1248 C1247 1.403 . S
C1248 C1249 1.404 . S
C1248 C1251 1.539 . S
C1249 C1245 1.408 . S
C1249 C1248 1.404 . S
C1249 H1261 0.930 . S
C1250 C1246 1.524 . S
C1250 H1262 0.956 . S
C1250 H1263 0.961 . S
C1250 H1264 0.961 . S
C1251 C1248 1.539 . S
C1251 H1265 0.958 . S
C1251 H1266 0.961 . S
C1251 H1267 0.960 1_545 S
H1252 C1236 0.931 . S
H1253 C1241 0.929 . S
H1254 C1242 0.958 1_545 S
H1255 C1242 0.962 1_545 S
H1256 C1242 0.962 . S
H1257 C1243 0.961 . S
H1258 C1243 0.961 . S
H1259 C1243 0.961 . S
H1260 C1244 0.931 . S
H1261 C1249 0.930 . S
H1262 C1250 0.956 . S
H1263 C1250 0.961 . S
H1264 C1250 0.961 . S
H1265 C1251 0.958 . S
H1266 C1251 0.961 . S
H1267 C1251 0.960 1_565 S
C1268 C1269 1.391 . S
C1268 C1270 1.394 . S
C1268 H1284 0.931 . S
C1269 C1268 1.391 . S
C1269 C1273 1.376 . S
C1270 C1268 1.394 . S
C1270 C1271 1.369 . S
C1270 C1274 1.531 1_655 S
C1271 C1270 1.369 . S
C1271 C1272 1.410 . S
C1271 C1279 1.503 1_655 S
C1272 C1271 1.410 . S
C1272 C1273 1.392 . S
C1272 C1275 1.511 . S
C1273 C1269 1.376 . S
C1273 C1272 1.392 . S
C1273 H1285 0.929 . S
C1274 C1270 1.531 1_455 S
C1274 H1286 0.960 . S
C1274 H1287 0.962 . S
C1274 H1288 0.960 1_455 S
C1275 C1272 1.511 . S
C1275 H1289 0.961 . S
C1275 H1290 0.961 . S
C1275 H1291 0.961 . S
C1276 C1277 1.370 . S
C1276 C1278 1.363 . S
C1276 H1292 0.931 . S
C1277 C1276 1.370 . S
C1277 C1281 1.408 . S
C1278 C1276 1.363 . S
C1278 C1279 1.370 . S
C1278 C1282 1.524 . S
C1279 C1271 1.503 1_455 S
C1279 C1278 1.370 . S
C1279 C1280 1.403 . S
C1280 C1279 1.403 . S
C1280 C1281 1.404 . S
C1280 C1283 1.539 . S
C1281 C1277 1.408 . S
C1281 C1280 1.404 . S
C1281 H1293 0.930 . S
C1282 C1278 1.524 . S
C1282 H1294 0.956 . S
C1282 H1295 0.961 . S
C1282 H1296 0.961 . S
C1283 C1280 1.539 . S
C1283 H1297 0.958 . S
C1283 H1298 0.961 . S
C1283 H1299 0.939 1_455 S
H1284 C1268 0.931 . S
H1285 C1273 0.929 . S
H1286 C1274 0.960 . S
H1287 C1274 0.962 . S
H1288 C1274 0.960 1_655 S
H1289 C1275 0.961 . S
H1290 C1275 0.961 . S
H1291 C1275 0.961 . S
H1292 C1276 0.931 . S
H1293 C1281 0.930 . S
H1294 C1282 0.956 . S
H1295 C1282 0.961 . S
H1296 C1282 0.961 . S
H1297 C1283 0.958 . S
H1298 C1283 0.961 . S
H1299 C1283 0.939 1_655 S
C1300 C1301 1.391 . S
C1300 C1302 1.394 . S
C1300 H1316 0.931 . S
C1301 C1300 1.391 . S
C1301 C1305 1.376 . S
C1302 C1300 1.394 . S
C1302 C1303 1.369 . S
C1302 C1306 1.531 . S
C1303 C1302 1.369 . S
C1303 C1304 1.410 . S
C1303 C1311 1.503 . S
C1304 C1303 1.410 . S
C1304 C1305 1.392 . S
C1304 C1307 1.511 . S
C1305 C1301 1.376 . S
C1305 C1304 1.392 . S
C1305 H1317 0.929 . S
C1306 C1302 1.531 . S
C1306 H1318 0.960 . S
C1306 H1319 0.962 . S
C1306 H1320 0.960 . S
C1307 C1304 1.511 . S
C1307 H1321 0.961 . S
C1307 H1322 0.961 . S
C1307 H1323 0.961 . S
C1308 C1309 1.370 . S
C1308 C1310 1.363 . S
C1308 H1324 0.931 . S
C1309 C1308 1.370 . S
C1309 C1313 1.408 . S
C1310 C1308 1.363 . S
C1310 C1311 1.370 . S
C1310 C1314 1.524 . S
C1311 C1303 1.503 . S
C1311 C1310 1.370 . S
C1311 C1312 1.403 . S
C1312 C1311 1.403 . S
C1312 C1313 1.404 . S
C1312 C1315 1.539 . S
C1313 C1309 1.408 . S
C1313 C1312 1.404 . S
C1313 H1325 0.930 . S
C1314 C1310 1.524 . S
C1314 H1326 0.956 . S
C1314 H1327 0.961 . S
C1314 H1328 0.961 . S
C1315 C1312 1.539 . S
C1315 H1329 0.958 . S
C1315 H1330 0.961 . S
C1315 H1331 0.960 . S
H1316 C1300 0.931 . S
H1317 C1305 0.929 . S
H1318 C1306 0.960 . S
H1319 C1306 0.962 . S
H1320 C1306 0.960 . S
H1321 C1307 0.961 . S
H1322 C1307 0.961 . S
H1323 C1307 0.961 . S
H1324 C1308 0.931 . S
H1325 C1313 0.930 . S
H1326 C1314 0.956 . S
H1327 C1314 0.961 . S
H1328 C1314 0.961 . S
H1329 C1315 0.958 . S
H1330 C1315 0.961 . S
H1331 C1315 0.960 . S
C1332 C1333 1.391 . S
C1332 C1334 1.394 . S
C1332 H1348 0.931 . S
C1333 C1332 1.391 . S
C1333 C1337 1.376 . S
C1334 C1332 1.394 . S
C1334 C1335 1.369 . S
C1334 C1338 1.531 . S
C1335 C1334 1.369 . S
C1335 C1336 1.410 . S
C1335 C1343 1.503 . S
C1336 C1335 1.410 . S
C1336 C1337 1.392 . S
C1336 C1339 1.511 . S
C1337 C1333 1.376 . S
C1337 C1336 1.392 . S
C1337 H1349 0.929 . S
C1338 C1334 1.531 . S
C1338 H1350 0.960 . S
C1338 H1351 0.962 . S
C1338 H1352 0.960 . S
C1339 C1336 1.511 . S
C1339 H1353 0.961 . S
C1339 H1354 0.961 . S
C1339 H1355 0.961 . S
C1340 C1341 1.370 . S
C1340 C1342 1.363 . S
C1340 H1356 0.931 . S
C1341 C1340 1.370 . S
C1341 C1345 1.408 . S
C1342 C1340 1.363 . S
C1342 C1343 1.370 . S
C1342 C1346 1.524 . S
C1343 C1335 1.503 . S
C1343 C1342 1.370 . S
C1343 C1344 1.403 . S
C1344 C1343 1.403 . S
C1344 C1345 1.404 . S
C1344 C1347 1.539 . S
C1345 C1341 1.408 . S
C1345 C1344 1.404 . S
C1345 H1357 0.930 . S
C1346 C1342 1.524 . S
C1346 H1358 0.956 . S
C1346 H1359 0.961 . S
C1346 H1360 0.961 . S
C1347 C1344 1.539 . S
C1347 H1361 0.958 . S
C1347 H1362 0.961 . S
C1347 H1363 0.960 . S
H1348 C1332 0.931 . S
H1349 C1337 0.929 . S
H1350 C1338 0.960 . S
H1351 C1338 0.962 . S
H1352 C1338 0.960 . S
H1353 C1339 0.961 . S
H1354 C1339 0.961 . S
H1355 C1339 0.961 . S
H1356 C1340 0.931 . S
H1357 C1345 0.930 . S
H1358 C1346 0.956 . S
H1359 C1346 0.961 . S
H1360 C1346 0.961 . S
H1361 C1347 0.958 . S
H1362 C1347 0.961 . S
H1363 C1347 0.960 . S
C1364 C1365 1.391 . S
C1364 C1366 1.394 . S
C1364 H1380 0.931 . S
C1365 C1364 1.391 . S
C1365 C1369 1.376 . S
C1366 C1364 1.394 . S
C1366 C1367 1.369 . S
C1366 C1370 1.531 . S
C1367 C1366 1.369 . S
C1367 C1368 1.410 . S
C1367 C1375 1.503 . S
C1368 C1367 1.410 . S
C1368 C1369 1.392 . S
C1368 C1371 1.511 . S
C1369 C1365 1.376 . S
C1369 C1368 1.392 . S
C1369 H1381 0.929 . S
C1370 C1366 1.531 . S
C1370 H1382 0.960 . S
C1370 H1383 0.962 . S
C1370 H1384 0.960 . S
C1371 C1368 1.511 . S
C1371 H1385 0.961 . S
C1371 H1386 0.961 . S
C1371 H1387 0.961 . S
C1372 C1373 1.370 . S
C1372 C1374 1.363 . S
C1372 H1388 0.931 . S
C1373 C1372 1.370 . S
C1373 C1377 1.408 . S
C1374 C1372 1.363 . S
C1374 C1375 1.370 . S
C1374 C1378 1.524 . S
C1375 C1367 1.503 . S
C1375 C1374 1.370 . S
C1375 C1376 1.403 . S
C1376 C1375 1.403 . S
C1376 C1377 1.404 . S
C1376 C1379 1.539 . S
C1377 C1373 1.408 . S
C1377 C1376 1.404 . S
C1377 H1389 0.930 . S
C1378 C1374 1.524 . S
C1378 H1390 0.956 . S
C1378 H1391 0.961 . S
C1378 H1392 0.961 . S
C1379 C1376 1.539 . S
C1379 H1393 0.958 . S
C1379 H1394 0.961 . S
C1379 H1395 0.960 . S
H1380 C1364 0.931 . S
H1381 C1369 0.929 . S
H1382 C1370 0.960 . S
H1383 C1370 0.962 . S
H1384 C1370 0.960 . S
H1385 C1371 0.961 . S
H1386 C1371 0.961 . S
H1387 C1371 0.961 . S
H1388 C1372 0.931 . S
H1389 C1377 0.930 . S
H1390 C1378 0.956 . S
H1391 C1378 0.961 . S
H1392 C1378 0.961 . S
H1393 C1379 0.958 . S
H1394 C1379 0.961 . S
H1395 C1379 0.960 . S
C1396 C1397 1.391 . S
C1396 C1398 1.394 . S
C1396 H1412 0.931 . S
C1397 C1396 1.391 . S
C1397 C1401 1.376 . S
C1398 C1396 1.394 . S
C1398 C1399 1.369 . S
C1398 C1402 1.531 . S
C1399 C1398 1.369 . S
C1399 C1400 1.410 . S
C1399 C1407 1.503 . S
C1400 C1399 1.410 . S
C1400 C1401 1.392 . S
C1400 C1403 1.511 . S
C1401 C1397 1.376 . S
C1401 C1400 1.392 . S
C1401 H1413 0.955 . S
C1402 C1398 1.531 . S
C1402 H1414 0.960 . S
C1402 H1415 0.962 . S
C1402 H1416 0.960 . S
C1403 C1400 1.511 . S
C1403 H1417 0.961 1_565 S
C1403 H1418 0.961 . S
C1403 H1419 0.962 . S
C1404 C1405 1.370 . S
C1404 C1406 1.363 . S
C1404 H1420 0.931 . S
C1405 C1404 1.370 . S
C1405 C1409 1.408 . S
C1406 C1404 1.363 . S
C1406 C1407 1.370 . S
C1406 C1410 1.524 . S
C1407 C1399 1.503 . S
C1407 C1406 1.370 . S
C1407 C1408 1.403 . S
C1408 C1407 1.403 . S
C1408 C1409 1.404 . S
C1408 C1411 1.539 . S
C1409 C1405 1.408 . S
C1409 C1408 1.404 . S
C1409 H1421 0.930 . S
C1410 C1406 1.524 . S
C1410 H1422 0.956 . S
C1410 H1423 0.961 . S
C1410 H1424 0.961 . S
C1411 C1408 1.539 . S
C1411 H1425 0.958 . S
C1411 H1426 0.961 . S
C1411 H1427 0.960 . S
H1412 C1396 0.931 . S
H1413 C1401 0.955 . S
H1414 C1402 0.960 . S
H1415 C1402 0.962 . S
H1416 C1402 0.960 . S
H1417 C1403 0.961 1_545 S
H1418 C1403 0.961 . S
H1419 C1403 0.962 . S
H1420 C1404 0.931 . S
H1421 C1409 0.930 . S
H1422 C1410 0.956 . S
H1423 C1410 0.961 . S
H1424 C1410 0.961 . S
H1425 C1411 0.958 . S
H1426 C1411 0.961 . S
H1427 C1411 0.960 . S
C1428 C1429 1.391 . S
C1428 C1430 1.394 . S
C1428 H1444 0.931 . S
C1429 C1428 1.391 . S
C1429 C1433 1.376 . S
C1430 C1428 1.394 . S
C1430 C1431 1.369 . S
C1430 C1434 1.531 . S
C1431 C1430 1.369 . S
C1431 C1432 1.410 . S
C1431 C1439 1.503 . S
C1432 C1431 1.410 . S
C1432 C1433 1.392 . S
C1432 C1435 1.511 . S
C1433 C1429 1.376 . S
C1433 C1432 1.392 . S
C1433 H1445 0.929 . S
C1434 C1430 1.531 . S
C1434 H1446 0.960 . S
C1434 H1447 0.962 . S
C1434 H1448 0.960 . S
C1435 C1432 1.511 . S
C1435 H1449 0.961 . S
C1435 H1450 0.961 . S
C1435 H1451 0.961 . S
C1436 C1437 1.370 . S
C1436 C1438 1.363 . S
C1436 H1452 0.931 . S
C1437 C1436 1.370 . S
C1437 C1441 1.408 . S
C1438 C1436 1.363 . S
C1438 C1439 1.370 . S
C1438 C1442 1.524 . S
C1439 C1431 1.503 . S
C1439 C1438 1.370 . S
C1439 C1440 1.403 . S
C1440 C1439 1.403 . S
C1440 C1441 1.404 . S
C1440 C1443 1.539 . S
C1441 C1437 1.408 . S
C1441 C1440 1.404 . S
C1441 H1453 0.930 . S
C1442 C1438 1.524 . S
C1442 H1454 0.956 . S
C1442 H1455 0.961 . S
C1442 H1456 0.961 . S
C1443 C1440 1.539 . S
C1443 H1457 0.958 . S
C1443 H1458 0.961 . S
C1443 H1459 0.960 . S
H1444 C1428 0.931 . S
H1445 C1433 0.929 . S
H1446 C1434 0.960 . S
H1447 C1434 0.962 . S
H1448 C1434 0.960 . S
H1449 C1435 0.961 . S
H1450 C1435 0.961 . S
H1451 C1435 0.961 . S
H1452 C1436 0.931 . S
H1453 C1441 0.930 . S
H1454 C1442 0.956 . S
H1455 C1442 0.961 . S
H1456 C1442 0.961 . S
H1457 C1443 0.958 . S
H1458 C1443 0.961 . S
H1459 C1443 0.960 . S
C1460 C1461 1.391 . S
C1460 C1462 1.394 . S
C1460 H1476 0.931 . S
C1461 C1460 1.391 . S
C1461 C1465 1.376 . S
C1462 C1460 1.394 . S
C1462 C1463 1.369 . S
C1462 C1466 1.531 . S
C1463 C1462 1.369 . S
C1463 C1464 1.410 . S
C1463 C1471 1.503 . S
C1464 C1463 1.410 . S
C1464 C1465 1.392 . S
C1464 C1467 1.511 . S
C1465 C1461 1.376 . S
C1465 C1464 1.392 . S
C1465 H1477 0.929 . S
C1466 C1462 1.531 . S
C1466 H1478 0.960 . S
C1466 H1479 0.962 . S
C1466 H1480 0.960 . S
C1467 C1464 1.511 . S
C1467 H1481 0.961 . S
C1467 H1482 0.961 . S
C1467 H1483 0.961 . S
C1468 C1469 1.370 . S
C1468 C1470 1.363 . S
C1468 H1484 0.931 . S
C1469 C1468 1.370 . S
C1469 C1473 1.408 . S
C1470 C1468 1.363 . S
C1470 C1471 1.370 . S
C1470 C1474 1.524 . S
C1471 C1463 1.503 . S
C1471 C1470 1.370 . S
C1471 C1472 1.403 . S
C1472 C1471 1.403 . S
C1472 C1473 1.404 . S
C1472 C1475 1.539 . S
C1473 C1469 1.408 . S
C1473 C1472 1.404 . S
C1473 H1485 0.930 . S
C1474 C1470 1.524 . S
C1474 H1486 0.956 . S
C1474 H1487 0.961 . S
C1474 H1488 0.961 . S
C1475 C1472 1.539 . S
C1475 H1489 0.958 . S
C1475 H1490 0.961 . S
C1475 H1491 0.960 . S
H1476 C1460 0.931 . S
H1477 C1465 0.929 . S
H1478 C1466 0.960 . S
H1479 C1466 0.962 . S
H1480 C1466 0.960 . S
H1481 C1467 0.961 . S
H1482 C1467 0.961 . S
H1483 C1467 0.961 . S
H1484 C1468 0.931 . S
H1485 C1473 0.930 . S
H1486 C1474 0.956 . S
H1487 C1474 0.961 . S
H1488 C1474 0.961 . S
H1489 C1475 0.958 . S
H1490 C1475 0.961 . S
H1491 C1475 0.960 . S
C1492 C1493 1.391 . S
C1492 C1494 1.394 . S
C1492 H1508 0.931 . S
C1493 C1492 1.391 . S
C1493 C1497 1.376 . S
C1494 C1492 1.394 . S
C1494 C1495 1.369 . S
C1494 C1498 1.531 . S
C1495 C1494 1.369 . S
C1495 C1496 1.410 . S
C1495 C1503 1.503 . S
C1496 C1495 1.410 . S
C1496 C1497 1.392 . S
C1496 C1499 1.511 . S
C1497 C1493 1.376 . S
C1497 C1496 1.392 . S
C1497 H1509 0.929 . S
C1498 C1494 1.531 . S
C1498 H1510 0.960 . S
C1498 H1511 0.962 . S
C1498 H1512 0.960 . S
C1499 C1496 1.511 . S
C1499 H1513 0.961 . S
C1499 H1514 0.961 . S
C1499 H1515 0.961 . S
C1500 C1501 1.370 . S
C1500 C1502 1.363 . S
C1500 H1516 0.931 . S
C1501 C1500 1.370 . S
C1501 C1505 1.408 . S
C1502 C1500 1.363 . S
C1502 C1503 1.370 . S
C1502 C1506 1.524 . S
C1503 C1495 1.503 . S
C1503 C1502 1.370 . S
C1503 C1504 1.403 . S
C1504 C1503 1.403 . S
C1504 C1505 1.404 . S
C1504 C1507 1.539 . S
C1505 C1501 1.408 . S
C1505 C1504 1.404 . S
C1505 H1517 0.930 . S
C1506 C1502 1.524 . S
C1506 H1518 0.956 . S
C1506 H1519 0.961 . S
C1506 H1520 0.961 . S
C1507 C1504 1.539 . S
C1507 H1521 0.958 . S
C1507 H1522 0.961 . S
C1507 H1523 0.960 . S
H1508 C1492 0.931 . S
H1509 C1497 0.929 . S
H1510 C1498 0.960 . S
H1511 C1498 0.962 . S
H1512 C1498 0.960 . S
H1513 C1499 0.961 . S
H1514 C1499 0.961 . S
H1515 C1499 0.961 . S
H1516 C1500 0.931 . S
H1517 C1505 0.930 . S
H1518 C1506 0.956 . S
H1519 C1506 0.961 . S
H1520 C1506 0.961 . S
H1521 C1507 0.958 . S
H1522 C1507 0.961 . S
H1523 C1507 0.960 . S
C1524 C1525 1.391 . S
C1524 C1526 1.394 . S
C1524 H1540 0.931 . S
C1525 C1524 1.391 . S
C1525 C1529 1.376 . S
C1526 C1524 1.394 . S
C1526 C1527 1.369 . S
C1526 C1530 1.531 . S
C1527 C1526 1.369 . S
C1527 C1528 1.410 . S
C1527 C1535 1.503 . S
C1528 C1527 1.410 . S
C1528 C1529 1.392 . S
C1528 C1531 1.511 . S
C1529 C1525 1.376 . S
C1529 C1528 1.392 . S
C1529 H1541 0.929 . S
C1530 C1526 1.531 . S
C1530 H1542 0.960 . S
C1530 H1543 0.962 . S
C1530 H1544 0.960 . S
C1531 C1528 1.511 . S
C1531 H1545 0.961 . S
C1531 H1546 0.961 . S
C1531 H1547 0.961 . S
C1532 C1533 1.370 . S
C1532 C1534 1.363 . S
C1532 H1548 0.931 . S
C1533 C1532 1.370 . S
C1533 C1537 1.408 . S
C1534 C1532 1.363 . S
C1534 C1535 1.370 . S
C1534 C1538 1.524 . S
C1535 C1527 1.503 . S
C1535 C1534 1.370 . S
C1535 C1536 1.403 . S
C1536 C1535 1.403 . S
C1536 C1537 1.404 . S
C1536 C1539 1.539 . S
C1537 C1533 1.408 . S
C1537 C1536 1.404 . S
C1537 H1549 0.930 . S
C1538 C1534 1.524 . S
C1538 H1550 0.956 . S
C1538 H1551 0.961 . S
C1538 H1552 0.961 . S
C1539 C1536 1.539 . S
C1539 H1553 0.958 . S
C1539 H1554 0.961 . S
C1539 H1555 0.960 . S
H1540 C1524 0.931 . S
H1541 C1529 0.929 . S
H1542 C1530 0.960 . S
H1543 C1530 0.962 . S
H1544 C1530 0.960 . S
H1545 C1531 0.961 . S
H1546 C1531 0.961 . S
H1547 C1531 0.961 . S
H1548 C1532 0.931 . S
H1549 C1537 0.930 . S
H1550 C1538 0.956 . S
H1551 C1538 0.961 . S
H1552 C1538 0.961 . S
H1553 C1539 0.958 . S
H1554 C1539 0.961 . S
H1555 C1539 0.960 . S
C1556 C1557 1.391 . S
C1556 C1558 1.394 . S
C1556 H1572 0.931 . S
C1557 C1556 1.391 . S
C1557 C1561 1.376 . S
C1558 C1556 1.394 . S
C1558 C1559 1.369 . S
C1558 C1562 1.531 1_565 S
C1559 C1558 1.369 . S
C1559 C1560 1.410 . S
C1559 C1567 1.503 1_565 S
C1560 C1559 1.410 . S
C1560 C1561 1.392 . S
C1560 C1563 1.511 . S
C1561 C1557 1.376 . S
C1561 C1560 1.392 . S
C1561 H1573 0.929 . S
C1562 C1558 1.531 1_545 S
C1562 H1574 0.960 . S
C1562 H1575 0.962 . S
C1562 H1576 0.960 . S
C1563 C1560 1.511 . S
C1563 H1577 0.961 . S
C1563 H1578 0.961 . S
C1563 H1579 0.961 . S
C1564 C1565 1.370 . S
C1564 C1566 1.363 . S
C1564 H1580 0.931 . S
C1565 C1564 1.370 . S
C1565 C1569 1.408 . S
C1566 C1564 1.363 . S
C1566 C1567 1.370 . S
C1566 C1570 1.524 1_545 S
C1567 C1559 1.503 1_545 S
C1567 C1566 1.370 . S
C1567 C1568 1.403 . S
C1568 C1567 1.403 . S
C1568 C1569 1.404 . S
C1568 C1571 1.539 . S
C1569 C1565 1.408 . S
C1569 C1568 1.404 . S
C1569 H1581 0.930 . S
C1570 C1566 1.524 1_565 S
C1570 H1582 0.956 . S
C1570 H1583 0.961 . S
C1570 H1584 0.961 . S
C1571 C1568 1.539 . S
C1571 H1585 0.958 . S
C1571 H1586 0.961 . S
C1571 H1587 0.960 . S
H1572 C1556 0.931 . S
H1573 C1561 0.929 . S
H1574 C1562 0.960 . S
H1575 C1562 0.962 . S
H1576 C1562 0.960 . S
H1577 C1563 0.961 . S
H1578 C1563 0.961 . S
H1579 C1563 0.961 . S
H1580 C1564 0.931 . S
H1581 C1569 0.930 . S
H1582 C1570 0.956 . S
H1583 C1570 0.961 . S
H1584 C1570 0.961 . S
H1585 C1571 0.958 . S
H1586 C1571 0.961 . S
H1587 C1571 0.960 . S
C1588 C1589 1.391 . S
C1588 C1590 1.394 . S
C1588 H1604 0.931 . S
C1589 C1588 1.391 . S
C1589 C1593 1.376 . S
C1590 C1588 1.394 . S
C1590 C1591 1.369 1_655 S
C1590 C1594 1.531 1_655 S
C1591 C1590 1.369 1_455 S
C1591 C1592 1.410 1_455 S
C1591 C1599 1.503 . S
C1592 C1591 1.410 1_655 S
C1592 C1593 1.392 . S
C1592 C1595 1.511 . S
C1593 C1589 1.376 . S
C1593 C1592 1.392 . S
C1593 H1605 0.929 . S
C1594 C1590 1.531 1_455 S
C1594 H1606 0.960 . S
C1594 H1607 0.962 . S
C1594 H1608 0.960 . S
C1595 C1592 1.511 . S
C1595 H1609 0.961 . S
C1595 H1610 0.961 . S
C1595 H1611 0.961 1_655 S
C1596 C1597 1.370 . S
C1596 C1598 1.363 . S
C1596 H1612 0.931 . S
C1597 C1596 1.370 . S
C1597 C1601 1.408 . S
C1598 C1596 1.363 . S
C1598 C1599 1.370 . S
C1598 C1602 1.524 1_455 S
C1599 C1591 1.503 . S
C1599 C1598 1.370 . S
C1599 C1600 1.403 . S
C1600 C1599 1.403 . S
C1600 C1601 1.404 . S
C1600 C1603 1.539 . S
C1601 C1597 1.408 . S
C1601 C1600 1.404 . S
C1601 H1613 0.930 . S
C1602 C1598 1.524 1_655 S
C1602 H1614 0.956 . S
C1602 H1615 0.961 . S
C1602 H1616 0.961 . S
C1603 C1600 1.539 . S
C1603 H1617 0.958 . S
C1603 H1618 0.961 . S
C1603 H1619 0.960 . S
H1604 C1588 0.931 . S
H1605 C1593 0.929 . S
H1606 C1594 0.960 . S
H1607 C1594 0.962 . S
H1608 C1594 0.960 . S
H1609 C1595 0.961 . S
H1610 C1595 0.961 . S
H1611 C1595 0.961 1_455 S
H1612 C1596 0.931 . S
H1613 C1601 0.930 . S
H1614 C1602 0.956 . S
H1615 C1602 0.961 . S
H1616 C1602 0.961 . S
H1617 C1603 0.958 . S
H1618 C1603 0.961 . S
H1619 C1603 0.960 . S
C757 C142 1.151 . S
C765 C56 1.331 1_554 S
C789 C226 1.238 . S
C797 C140 1.342 1_554 S
C821 C224 1.332 1_554 S
C829 C58 1.203 . S
C853 C238 1.110 . S
C861 C151 1.328 . S
C885 C235 1.322 . S
C893 C70 1.151 . S
C917 C67 1.333 . S
C925 C154 1.155 . S
C949 C308 1.293 . S
C957 C394 1.192 . S
C981 C478 1.104 . S
C989 C392 1.348 . S
C1013 C476 1.364 . S
C1021 C310 1.191 . S
C1045 C403 1.320 . S
C1053 C490 1.200 . S
C1077 C487 1.312 . S
C1085 C322 1.190 . S
C1109 C406 1.110 . S
C1117 C319 1.327 . S
C1141 C646 1.240 . S
C1149 C560 1.340 . S
C1173 C644 1.380 . S
C1181 C730 1.176 . S
C1205 C728 1.308 . S
C1213 C562 1.168 . S
C1237 C742 1.190 . S
C1245 C655 1.339 . S
C1269 C739 1.338 . S
C1277 C574 1.204 . S
C1301 C571 1.333 . S
C1309 C658 1.155 . S
C1333 C494 2.579 . S
C1341 C63 2.643 . S
C1365 C326 2.554 . S
C1373 C147 2.627 . S
C1397 C231 2.639 . S
C1405 C410 2.562 . S
C1429 C242 2.586 . S
C1437 C567 2.640 . S
C1461 C74 2.567 . S
C1469 C651 2.628 . S
C1493 C735 2.609 . S
C1501 C158 2.563 . S
C1525 C315 2.643 . S
C1533 C746 2.577 . S
C1557 C399 2.630 . S
C1565 C578 2.577 . S
C1589 C662 2.558 . S
C1597 C483 2.642 . S
