# Generated by pormake.
# Topology wkj, (6)-cn, num edge types: 1
# Building blocks:
#     Node 0, Type 0, BuildingBlock: BETDEL_clean_sbu_0, # of connection points: 6
#     Node 1, Type 0, BuildingBlock: BETDEL_clean_sbu_0, # of connection points: 6
#     Node 2, Type 0, BuildingBlock: BETDEL_clean_sbu_0, # of connection points: 6
#     Node 3, Type 0, BuildingBlock: BETDEL_clean_sbu_0, # of connection points: 6
#     Node 4, Type 0, BuildingBlock: BETDEL_clean_sbu_0, # of connection points: 6
#     Node 5, Type 0, BuildingBlock: BETDEL_clean_sbu_0, # of connection points: 6
#     Node 6, Type 0, BuildingBlock: BETDEL_clean_sbu_0, # of connection points: 6
#     Node 7, Type 0, BuildingBlock: BETDEL_clean_sbu_0, # of connection points: 6
#     Node 8, Type 0, BuildingBlock: BETDEL_clean_sbu_0, # of connection points: 6
#     Node 9, Type 0, BuildingBlock: BETDEL_clean_sbu_0, # of connection points: 6
#     Node 10, Type 0, BuildingBlock: BETDEL_clean_sbu_0, # of connection points: 6
#     Node 11, Type 0, BuildingBlock: BETDEL_clean_sbu_0, # of connection points: 6
#     Edge 12, Type (0, 0), None
#     Edge 13, Type (0, 0), None
#     Edge 14, Type (0, 0), None
#     Edge 15, Type (0, 0), None
#     Edge 16, Type (0, 0), None
#     Edge 17, Type (0, 0), None
#     Edge 18, Type (0, 0), None
#     Edge 19, Type (0, 0), None
#     Edge 20, Type (0, 0), None
#     Edge 21, Type (0, 0), None
#     Edge 22, Type (0, 0), None
#     Edge 23, Type (0, 0), None
#     Edge 24, Type (0, 0), None
#     Edge 25, Type (0, 0), None
#     Edge 26, Type (0, 0), None
#     Edge 27, Type (0, 0), None
#     Edge 28, Type (0, 0), None
#     Edge 29, Type (0, 0), None
#     Edge 30, Type (0, 0), None
#     Edge 31, Type (0, 0), None
#     Edge 32, Type (0, 0), None
#     Edge 33, Type (0, 0), None
#     Edge 34, Type (0, 0), None
#     Edge 35, Type (0, 0), None
#     Edge 36, Type (0, 0), None
#     Edge 37, Type (0, 0), None
#     Edge 38, Type (0, 0), None
#     Edge 39, Type (0, 0), None
#     Edge 40, Type (0, 0), None
#     Edge 41, Type (0, 0), None
#     Edge 42, Type (0, 0), None
#     Edge 43, Type (0, 0), None
#     Edge 44, Type (0, 0), None
#     Edge 45, Type (0, 0), None
#     Edge 46, Type (0, 0), None
#     Edge 47, Type (0, 0), None
# Relax obj value: 0.603
# Max RMSD: 0.195
# Mean RMSD: 0.195
data_MOF--net-wkj--node1-BETDEL_clean_sbu_0--edge1-none
_symmetry_space_group_name_H-M    P1
_symmetry_Int_Tables_number       1
_symmetry_cell_setting            triclinic
loop_
_symmetry_equiv_pos_as_xyz
'x, y, z'
_cell_length_a     22.981242
_cell_length_b     22.981065
_cell_length_c     11.842757
_cell_angle_alpha  89.995264
_cell_angle_beta   90.006185
_cell_angle_gamma 119.99924
loop_
_atom_site_label
_atom_site_type_symbol
_atom_site_fract_x
_atom_site_fract_y
_atom_site_fract_z
_atom_type_partial_charge
Dy0 Dy 0.33611 0.02451 0.4305 0.0
C1 C 0.54727 0.21347 0.18745 0.0
C2 C 0.23376 -0.0318 0.57767 0.0
Dy3 Dy 0.45748 0.10796 0.31429 0.0
O4 O 0.27876 0.03132 0.57476 0.0
O5 O 0.24375 0.93682 0.49542 0.0
O6 O 0.28846 0.0681 0.31847 0.0
O7 O 0.38478 0.13049 0.38225 0.0
C8 C 0.33891 0.12825 0.32182 0.0
C9 C 0.43998 -0.01264 0.33214 0.0
O10 O 0.50884 0.12817 0.48716 0.0
O11 O 0.4122 0.0501 0.57805 0.0
O12 O 0.56223 0.18163 0.26264 0.0
O13 O 0.4838 0.19308 0.19672 0.0
O14 O 0.46905 0.02546 0.24548 0.0
O15 O 0.42518 0.01615 0.40758 0.0
O16 O 0.30677 -0.04671 0.28298 0.0
O17 O 0.38263 0.04004 0.17197 0.0
C18 C 0.47851 0.09428 0.58068 0.0
C19 C 0.33145 -0.02377 0.18162 0.0
Dy20 Dy 0.26378 0.36002 0.76384 0.0
C21 C 0.28597 0.57118 0.52077 0.0
C22 C 0.21773 0.25766 0.91102 0.0
Dy23 Dy 0.30169 0.48139 0.64762 0.0
O24 O 0.1996 0.30266 0.9081 0.0
O25 O 0.25909 0.26765 0.82877 0.0
O26 O 0.17255 0.31238 0.6518 0.0
O27 O 0.20647 0.40869 0.71559 0.0
C28 C 0.16283 0.36282 0.65515 0.0
C29 C 0.4048 0.46389 0.66547 0.0
O30 O 0.33283 0.53274 0.82047 0.0
O31 O 0.31427 0.43611 0.91138 0.0
O32 O 0.33278 0.58614 0.59596 0.0
O33 O 0.24288 0.50771 0.53006 0.0
O34 O 0.39576 0.49296 0.5788 0.0
O35 O 0.36121 0.44909 0.74091 0.0
O36 O 0.30565 0.33068 0.61633 0.0
O37 O 0.29477 0.40655 0.5053 0.0
C38 C 0.3364 0.50242 0.91401 0.0
C39 C 0.30739 0.35536 0.51496 0.0
Dy40 Dy 0.85592 0.28767 1.0972 0.0
C41 C 0.66696 0.30988 0.85411 0.0
C42 C 0.91223 0.24161 0.24438 0.0
Dy43 Dy 0.77247 0.32559 0.98096 0.0
O44 O 0.8491 0.22349 0.24146 0.0
O45 O -0.0564 0.28298 0.16212 0.0
O46 O 0.81233 0.19644 0.98516 0.0
O47 O 0.74993 0.23036 1.04894 0.0
C48 C 0.75218 0.18673 0.98851 0.0
C49 C 0.89308 0.4287 0.9988 0.0
O50 O 0.75225 0.35673 0.15381 0.0
O51 O 0.83032 0.33816 0.24473 0.0
O52 O 0.69881 0.35668 0.92929 0.0
O53 O 0.68735 0.26679 0.8634 0.0
O54 O 0.85497 0.41966 0.91213 0.0
O55 O 0.86428 0.3851 1.07425 0.0
O56 O 0.92714 0.32954 0.94969 0.0
O57 O 0.84039 0.31866 0.83865 0.0
C58 C 0.78614 0.36029 0.24735 0.0
C59 C 0.90419 0.33128 0.84831 0.0
Dy60 Dy 0.52043 0.87982 0.43055 0.0
C61 C 0.30925 0.69088 0.18747 0.0
C62 C 0.6228 0.93613 0.57773 0.0
Dy63 Dy 0.39905 0.79639 0.3143 0.0
O64 O 0.5778 0.873 0.57482 0.0
O65 O 0.6128 -0.0325 0.49546 0.0
O66 O 0.56807 0.83623 0.31853 0.0
O67 O 0.47174 0.77384 0.38226 0.0
C68 C 0.51762 0.77608 0.32183 0.0
C69 C 0.41662 0.91702 0.33212 0.0
O70 O 0.3477 0.77618 0.48715 0.0
O71 O 0.44434 0.85422 0.57808 0.0
O72 O 0.2943 0.72274 0.26263 0.0
O73 O 0.37273 0.71127 0.19676 0.0
O74 O 0.3875 0.87891 0.24549 0.0
O75 O 0.43138 0.8882 0.40759 0.0
O76 O 0.5498 0.95104 0.28302 0.0
O77 O 0.4739 0.8643 0.17199 0.0
C78 C 0.37803 0.81006 0.58069 0.0
C79 C 0.5251 0.9281 0.18165 0.0
Dy80 Dy 0.59279 0.54434 0.76387 0.0
C81 C 0.57054 0.33316 0.52082 0.0
C82 C 0.63883 0.6467 0.91104 0.0
Dy83 Dy 0.55483 0.42296 0.64763 0.0
O84 O 0.65696 0.60171 0.90814 0.0
O85 O 0.59747 0.63671 0.82876 0.0
O86 O 0.68402 0.59199 0.65185 0.0
O87 O 0.65007 0.49565 0.71559 0.0
C88 C 0.69371 0.54153 0.65515 0.0
C89 C 0.45178 0.44053 0.66545 0.0
O90 O 0.52369 0.3716 0.8205 0.0
O91 O 0.54229 0.46825 0.91141 0.0
O92 O 0.52373 0.3182 0.59598 0.0
O93 O 0.61363 0.39663 0.53009 0.0
O94 O 0.46076 0.41141 0.57882 0.0
O95 O 0.49536 0.45529 0.74092 0.0
O96 O 0.55093 0.57371 0.61633 0.0
O97 O 0.56177 0.49781 0.50532 0.0
C98 C 0.52014 0.40193 0.91403 0.0
C99 C 0.54918 0.54901 0.51496 0.0
Dy100 Dy 0.0006 0.61668 1.09718 0.0
C101 C 0.18955 0.59444 0.85414 0.0
C102 C -0.05571 0.66272 0.24435 0.0
Dy103 Dy 0.08404 0.57873 0.98096 0.0
O104 O 0.00742 0.68085 0.24145 0.0
O105 O 0.91292 0.62137 0.16207 0.0
O106 O 0.0442 0.70793 0.98516 0.0
O107 O 0.10658 0.67397 1.04891 0.0
C108 C 0.10435 0.71761 0.98847 0.0
C109 C -0.03659 0.47567 0.99878 0.0
O110 O 0.10425 0.54758 0.15383 0.0
O111 O 0.0262 0.56618 0.24472 0.0
O112 O 0.15769 0.54763 0.92931 0.0
O113 O 0.16916 0.63753 0.86342 0.0
O114 O 0.00152 0.48465 0.91216 0.0
O115 O -0.00777 0.51925 1.07424 0.0
O116 O -0.07061 0.57483 0.94964 0.0
O117 O 0.01612 0.58566 0.83863 0.0
C118 C 0.07036 0.54403 0.24735 0.0
C119 C -0.04767 0.57307 0.84827 0.0
Dy120 Dy 0.85593 0.54431 0.49831 0.0
C121 C 0.66701 0.33324 0.74128 0.0
C122 C 0.91221 0.64661 0.35126 0.0
Dy123 Dy 0.77245 0.42294 0.61459 0.0
O124 O 0.84907 0.60166 0.35404 0.0
O125 O -0.05634 0.63666 0.43345 0.0
O126 O 0.81234 0.59196 0.61032 0.0
O127 O 0.74994 0.49564 0.54653 0.0
C128 C 0.75218 0.54153 0.60689 0.0
C129 C 0.89307 0.44045 0.59678 0.0
O130 O 0.75224 0.37158 0.44172 0.0
O131 O 0.83033 0.46821 0.3508 0.0
O132 O 0.6988 0.31816 0.66619 0.0
O133 O 0.68736 0.39671 0.73215 0.0
O134 O 0.85497 0.41139 0.68344 0.0
O135 O 0.86427 0.45524 0.52132 0.0
O136 O 0.92713 0.57367 0.64587 0.0
O137 O 0.84038 0.4978 0.7569 0.0
C138 C 0.78615 0.40191 0.3482 0.0
C139 C 0.90418 0.54899 0.74724 0.0
Dy140 Dy 0.2638 0.87984 0.83166 0.0
C141 C 0.28594 0.69091 1.07464 0.0
C142 C 0.21778 0.93613 0.68459 0.0
Dy143 Dy 0.30169 0.79636 0.94793 0.0
O144 O 0.19959 0.87298 0.68739 0.0
O145 O 0.25917 -0.03243 0.76679 0.0
O146 O 0.17256 0.83625 0.94368 0.0
O147 O 0.20648 0.77385 0.87987 0.0
C148 C 0.16282 0.77608 0.94023 0.0
C149 C 0.4048 0.91698 0.93011 0.0
O150 O 0.33284 0.77616 0.77507 0.0
O151 O 0.31431 0.85425 0.68415 0.0
O152 O 0.3328 0.7227 0.99954 0.0
O153 O 0.24282 0.71126 1.06549 0.0
O154 O 0.39576 0.87888 1.01678 0.0
O155 O 0.36121 0.88818 0.85466 0.0
O156 O 0.30564 0.95104 0.97921 0.0
O157 O 0.29477 0.86429 1.09024 0.0
C158 C 0.33643 0.81007 0.68155 0.0
C159 C 0.30739 0.92809 1.08058 0.0
Dy160 Dy 0.33612 0.28771 0.16501 0.0
C161 C 0.54719 0.30984 0.40798 0.0
C162 C 0.23383 0.24169 1.01794 0.0
Dy163 Dy 0.45749 0.3256 0.28128 0.0
O164 O 0.27877 0.2235 1.02075 0.0
O165 O 0.24377 0.28309 1.10013 0.0
O166 O 0.28848 0.19647 0.27703 0.0
O167 O 0.3848 0.23039 0.21321 0.0
C168 C 0.3389 0.18672 0.27357 0.0
C169 C 0.43999 0.42871 0.26345 0.0
O170 O 0.50885 0.35674 1.10842 0.0
O171 O 0.41222 0.33822 1.01749 0.0
O172 O 0.56227 0.3567 0.33288 0.0
O173 O 0.48372 0.26672 0.39885 0.0
O174 O 0.46905 0.41966 0.35011 0.0
O175 O 0.4252 0.38512 0.18799 0.0
O176 O 0.30677 0.32955 0.31256 0.0
O177 O 0.38265 0.31868 0.42359 0.0
C178 C 0.47852 0.36033 1.01489 0.0
C179 C 0.33146 0.33129 0.41393 0.0
Dy180 Dy 0.00057 0.36 0.49835 0.0
C181 C 0.18951 0.5711 0.74131 0.0
C182 C -0.0557 0.25771 0.3513 0.0
Dy183 Dy 0.08405 0.4814 0.61462 0.0
O184 O 0.00744 0.30266 0.3541 0.0
O185 O 0.91285 0.26765 0.43348 0.0
O186 O 0.04419 0.31237 0.61036 0.0
O187 O 0.10656 0.4087 0.54657 0.0
C188 C 0.10435 0.36281 0.60693 0.0
C189 C -0.03659 0.46383 0.5968 0.0
O190 O 0.10425 0.53274 0.44175 0.0
O191 O 0.02617 0.43611 0.35083 0.0
O192 O 0.15771 0.58617 0.66622 0.0
O193 O 0.16916 0.50763 0.73218 0.0
O194 O 0.00153 0.49295 0.68343 0.0
O195 O -0.00777 0.44907 0.52134 0.0
O196 O -0.07061 0.33064 0.64592 0.0
O197 O 0.01613 0.40654 0.75694 0.0
C198 C 0.07035 0.50242 0.34823 0.0
C199 C -0.04766 0.35535 0.74728 0.0
Dy200 Dy 0.59275 0.02449 0.83168 0.0
C201 C 0.57057 0.21341 1.07462 0.0
C202 C 0.63876 -0.03179 0.68464 0.0
Dy203 Dy 0.55483 0.10796 0.94795 0.0
O204 O 0.65696 0.03135 0.68742 0.0
O205 O 0.59738 0.93676 0.76683 0.0
O206 O 0.684 0.0681 0.94368 0.0
O207 O 0.65004 0.13047 0.8799 0.0
C208 C 0.69371 0.12825 0.94027 0.0
C209 C 0.45177 -0.01268 0.93013 0.0
O210 O 0.52369 0.12817 0.77507 0.0
O211 O 0.54224 0.05009 0.68416 0.0
O212 O 0.5237 0.18161 0.99953 0.0
O213 O 0.6137 0.19306 1.06551 0.0
O214 O 0.46075 0.02543 1.01676 0.0
O215 O 0.49535 0.01614 0.85467 0.0
O216 O 0.55093 -0.0467 0.97925 0.0
O217 O 0.56177 0.04004 1.09027 0.0
C218 C 0.52011 0.09427 0.68155 0.0
C219 C 0.54918 -0.02376 1.08062 0.0
Dy220 Dy 0.52043 0.61666 0.16499 0.0
C221 C 0.30933 0.59448 0.40794 0.0
C222 C 0.62272 0.66267 1.01794 0.0
Dy223 Dy 0.39903 0.57873 0.28127 0.0
O224 O 0.57777 0.68087 1.02072 0.0
O225 O 0.61278 0.62128 1.10014 0.0
O226 O 0.56807 0.70791 0.27699 0.0
O227 O 0.47173 0.67395 0.21322 0.0
C228 C 0.51763 0.71762 0.27359 0.0
C229 C 0.41662 0.47568 0.26346 0.0
O230 O 0.34769 0.54759 1.10839 0.0
O231 O 0.44432 0.56615 1.01748 0.0
O232 O 0.29426 0.54761 0.33286 0.0
O233 O 0.3728 0.6376 0.39882 0.0
O234 O 0.38749 0.48466 0.35009 0.0
O235 O 0.43137 0.51925 0.188 0.0
O236 O 0.5498 0.57484 0.31257 0.0
O237 O 0.4739 0.58567 0.42358 0.0
C238 C 0.37801 0.54402 1.01487 0.0
C239 C 0.5251 0.57308 0.41393 0.0
loop_
_geom_bond_atom_site_label_1
_geom_bond_atom_site_label_2
_geom_bond_distance
_geom_bond_site_symmetry_2
_ccdc_geom_bond_type
Dy0 O4 2.398 . S
Dy0 O5 2.491 1_545 S
Dy0 O6 2.403 . S
Dy0 O7 2.664 . S
Dy0 O11 2.326 . S
Dy0 O15 2.310 . S
Dy0 O16 2.351 . S
C1 O12 1.185 1_556 S
C1 O13 1.355 1_556 S
C2 O4 1.185 . S
C2 O5 1.355 1_545 S
Dy3 O7 2.310 . S
Dy3 O10 2.351 . S
Dy3 O12 2.398 . S
Dy3 O13 2.491 . S
Dy3 O14 2.403 . S
Dy3 O15 2.664 . S
Dy3 O17 2.326 . S
O4 Dy0 2.398 . S
O4 C2 1.185 . S
O5 Dy0 2.491 1_565 S
O5 C2 1.355 1_565 S
O6 Dy0 2.403 . S
O6 C8 1.254 . S
O7 Dy0 2.664 . S
O7 Dy3 2.310 . S
O7 C8 1.268 . S
C8 O6 1.254 . S
C8 O7 1.268 . S
C9 O14 1.254 . S
C9 O15 1.268 . S
O10 Dy3 2.351 . S
O10 C18 1.249 . S
O11 Dy0 2.326 . S
O11 C18 1.267 . S
O12 C1 1.185 1_554 S
O12 Dy3 2.398 . S
O13 C1 1.355 1_554 S
O13 Dy3 2.491 . S
O14 Dy3 2.403 . S
O14 C9 1.254 . S
O15 Dy0 2.310 . S
O15 Dy3 2.664 . S
O15 C9 1.268 . S
O16 Dy0 2.351 . S
O16 C19 1.249 . S
O17 Dy3 2.326 . S
O17 C19 1.267 . S
C18 O10 1.249 . S
C18 O11 1.267 . S
C19 O16 1.249 . S
C19 O17 1.267 . S
Dy20 O24 2.398 . S
Dy20 O25 2.491 . S
Dy20 O26 2.403 . S
Dy20 O27 2.664 . S
Dy20 O31 2.326 . S
Dy20 O35 2.310 . S
Dy20 O36 2.351 . S
C21 O32 1.185 . S
C21 O33 1.355 . S
C22 O24 1.185 . S
C22 O25 1.355 . S
Dy23 O27 2.310 . S
Dy23 O30 2.351 . S
Dy23 O32 2.398 . S
Dy23 O33 2.491 . S
Dy23 O34 2.403 . S
Dy23 O35 2.664 . S
Dy23 O37 2.326 . S
O24 Dy20 2.398 . S
O24 C22 1.185 . S
O25 Dy20 2.491 . S
O25 C22 1.355 . S
O26 Dy20 2.403 . S
O26 C28 1.254 . S
O27 Dy20 2.664 . S
O27 Dy23 2.310 . S
O27 C28 1.268 . S
C28 O26 1.254 . S
C28 O27 1.268 . S
C29 O34 1.254 . S
C29 O35 1.268 . S
O30 Dy23 2.351 . S
O30 C38 1.249 . S
O31 Dy20 2.326 . S
O31 C38 1.267 . S
O32 C21 1.185 . S
O32 Dy23 2.398 . S
O33 C21 1.355 . S
O33 Dy23 2.491 . S
O34 Dy23 2.403 . S
O34 C29 1.254 . S
O35 Dy20 2.310 . S
O35 Dy23 2.664 . S
O35 C29 1.268 . S
O36 Dy20 2.351 . S
O36 C39 1.249 . S
O37 Dy23 2.326 . S
O37 C39 1.267 . S
C38 O30 1.249 . S
C38 O31 1.267 . S
C39 O36 1.249 . S
C39 O37 1.267 . S
Dy40 O44 2.398 1_556 S
Dy40 O45 2.491 1_656 S
Dy40 O46 2.403 . S
Dy40 O47 2.664 . S
Dy40 O51 2.326 1_556 S
Dy40 O55 2.310 . S
Dy40 O56 2.351 . S
C41 O52 1.185 . S
C41 O53 1.355 . S
C42 O44 1.185 . S
C42 O45 1.355 1_655 S
Dy43 O47 2.310 . S
Dy43 O50 2.351 . S
Dy43 O52 2.398 . S
Dy43 O53 2.491 . S
Dy43 O54 2.403 . S
Dy43 O55 2.664 . S
Dy43 O57 2.326 . S
O44 Dy40 2.398 1_554 S
O44 C42 1.185 . S
O45 Dy40 2.491 1_454 S
O45 C42 1.355 1_455 S
O46 Dy40 2.403 . S
O46 C48 1.254 . S
O47 Dy40 2.664 . S
O47 Dy43 2.310 . S
O47 C48 1.268 . S
C48 O46 1.254 . S
C48 O47 1.268 . S
C49 O54 1.254 . S
C49 O55 1.268 . S
O50 Dy43 2.351 . S
O50 C58 1.249 1_556 S
O51 Dy40 2.326 1_554 S
O51 C58 1.267 . S
O52 C41 1.185 . S
O52 Dy43 2.398 . S
O53 C41 1.355 . S
O53 Dy43 2.491 . S
O54 Dy43 2.403 . S
O54 C49 1.254 . S
O55 Dy40 2.310 . S
O55 Dy43 2.664 . S
O55 C49 1.268 . S
O56 Dy40 2.351 . S
O56 C59 1.249 . S
O57 Dy43 2.326 . S
O57 C59 1.267 . S
C58 O50 1.249 1_554 S
C58 O51 1.267 . S
C59 O56 1.249 . S
C59 O57 1.267 . S
Dy60 O64 2.398 . S
Dy60 O65 2.491 1_565 S
Dy60 O66 2.403 . S
Dy60 O67 2.664 . S
Dy60 O71 2.326 . S
Dy60 O75 2.310 . S
Dy60 O76 2.351 . S
C61 O72 1.185 1_556 S
C61 O73 1.355 1_556 S
C62 O64 1.185 . S
C62 O65 1.355 1_565 S
Dy63 O67 2.310 . S
Dy63 O70 2.351 . S
Dy63 O72 2.398 . S
Dy63 O73 2.491 . S
Dy63 O74 2.403 . S
Dy63 O75 2.664 . S
Dy63 O77 2.326 . S
O64 Dy60 2.398 . S
O64 C62 1.185 . S
O65 Dy60 2.491 1_545 S
O65 C62 1.355 1_545 S
O66 Dy60 2.403 . S
O66 C68 1.254 . S
O67 Dy60 2.664 . S
O67 Dy63 2.310 . S
O67 C68 1.268 . S
C68 O66 1.254 . S
C68 O67 1.268 . S
C69 O74 1.254 . S
C69 O75 1.268 . S
O70 Dy63 2.351 . S
O70 C78 1.249 . S
O71 Dy60 2.326 . S
O71 C78 1.267 . S
O72 C61 1.185 1_554 S
O72 Dy63 2.398 . S
O73 C61 1.355 1_554 S
O73 Dy63 2.491 . S
O74 Dy63 2.403 . S
O74 C69 1.254 . S
O75 Dy60 2.310 . S
O75 Dy63 2.664 . S
O75 C69 1.268 . S
O76 Dy60 2.351 . S
O76 C79 1.249 . S
O77 Dy63 2.326 . S
O77 C79 1.267 . S
C78 O70 1.249 . S
C78 O71 1.267 . S
C79 O76 1.249 . S
C79 O77 1.267 . S
Dy80 O84 2.398 . S
Dy80 O85 2.491 . S
Dy80 O86 2.403 . S
Dy80 O87 2.664 . S
Dy80 O91 2.326 . S
Dy80 O95 2.310 . S
Dy80 O96 2.351 . S
C81 O92 1.185 . S
C81 O93 1.355 . S
C82 O84 1.185 . S
C82 O85 1.355 . S
Dy83 O87 2.310 . S
Dy83 O90 2.351 . S
Dy83 O92 2.398 . S
Dy83 O93 2.491 . S
Dy83 O94 2.403 . S
Dy83 O95 2.664 . S
Dy83 O97 2.326 . S
O84 Dy80 2.398 . S
O84 C82 1.185 . S
O85 Dy80 2.491 . S
O85 C82 1.355 . S
O86 Dy80 2.403 . S
O86 C88 1.254 . S
O87 Dy80 2.664 . S
O87 Dy83 2.310 . S
O87 C88 1.268 . S
C88 O86 1.254 . S
C88 O87 1.268 . S
C89 O94 1.254 . S
C89 O95 1.268 . S
O90 Dy83 2.351 . S
O90 C98 1.249 . S
O91 Dy80 2.326 . S
O91 C98 1.267 . S
O92 C81 1.185 . S
O92 Dy83 2.398 . S
O93 C81 1.355 . S
O93 Dy83 2.491 . S
O94 Dy83 2.403 . S
O94 C89 1.254 . S
O95 Dy80 2.310 . S
O95 Dy83 2.664 . S
O95 C89 1.268 . S
O96 Dy80 2.351 . S
O96 C99 1.249 . S
O97 Dy83 2.326 . S
O97 C99 1.267 . S
C98 O90 1.249 . S
C98 O91 1.267 . S
C99 O96 1.249 . S
C99 O97 1.267 . S
Dy100 O104 2.398 1_556 S
Dy100 O105 2.491 1_456 S
Dy100 O106 2.403 . S
Dy100 O107 2.664 . S
Dy100 O111 2.326 1_556 S
Dy100 O115 2.310 . S
Dy100 O116 2.351 . S
C101 O112 1.185 . S
C101 O113 1.355 . S
C102 O104 1.185 . S
C102 O105 1.355 1_455 S
Dy103 O107 2.310 . S
Dy103 O110 2.351 . S
Dy103 O112 2.398 . S
Dy103 O113 2.491 . S
Dy103 O114 2.403 . S
Dy103 O115 2.664 . S
Dy103 O117 2.326 . S
O104 Dy100 2.398 1_554 S
O104 C102 1.185 . S
O105 Dy100 2.491 1_654 S
O105 C102 1.355 1_655 S
O106 Dy100 2.403 . S
O106 C108 1.254 . S
O107 Dy100 2.664 . S
O107 Dy103 2.310 . S
O107 C108 1.268 . S
C108 O106 1.254 . S
C108 O107 1.268 . S
C109 O114 1.254 . S
C109 O115 1.268 . S
O110 Dy103 2.351 . S
O110 C118 1.249 1_556 S
O111 Dy100 2.326 1_554 S
O111 C118 1.267 . S
O112 C101 1.185 . S
O112 Dy103 2.398 . S
O113 C101 1.355 . S
O113 Dy103 2.491 . S
O114 Dy103 2.403 . S
O114 C109 1.254 . S
O115 Dy100 2.310 . S
O115 Dy103 2.664 . S
O115 C109 1.268 . S
O116 Dy100 2.351 . S
O116 C119 1.249 . S
O117 Dy103 2.326 . S
O117 C119 1.267 . S
C118 O110 1.249 1_554 S
C118 O111 1.267 . S
C119 O116 1.249 . S
C119 O117 1.267 . S
Dy120 O124 2.398 . S
Dy120 O125 2.491 1_655 S
Dy120 O126 2.403 . S
Dy120 O127 2.664 . S
Dy120 O131 2.326 . S
Dy120 O135 2.310 . S
Dy120 O136 2.351 . S
C121 O132 1.185 . S
C121 O133 1.355 . S
C122 O124 1.185 . S
C122 O125 1.355 1_655 S
Dy123 O127 2.310 . S
Dy123 O130 2.351 . S
Dy123 O132 2.398 . S
Dy123 O133 2.491 . S
Dy123 O134 2.403 . S
Dy123 O135 2.664 . S
Dy123 O137 2.326 . S
O124 Dy120 2.398 . S
O124 C122 1.185 . S
O125 Dy120 2.491 1_455 S
O125 C122 1.355 1_455 S
O126 Dy120 2.403 . S
O126 C128 1.254 . S
O127 Dy120 2.664 . S
O127 Dy123 2.310 . S
O127 C128 1.268 . S
C128 O126 1.254 . S
C128 O127 1.268 . S
C129 O134 1.254 . S
C129 O135 1.268 . S
O130 Dy123 2.351 . S
O130 C138 1.249 . S
O131 Dy120 2.326 . S
O131 C138 1.267 . S
O132 C121 1.185 . S
O132 Dy123 2.398 . S
O133 C121 1.355 . S
O133 Dy123 2.491 . S
O134 Dy123 2.403 . S
O134 C129 1.254 . S
O135 Dy120 2.310 . S
O135 Dy123 2.664 . S
O135 C129 1.268 . S
O136 Dy120 2.351 . S
O136 C139 1.249 . S
O137 Dy123 2.326 . S
O137 C139 1.267 . S
C138 O130 1.249 . S
C138 O131 1.267 . S
C139 O136 1.249 . S
C139 O137 1.267 . S
Dy140 O144 2.398 . S
Dy140 O145 2.491 1_565 S
Dy140 O146 2.403 . S
Dy140 O147 2.664 . S
Dy140 O151 2.326 . S
Dy140 O155 2.310 . S
Dy140 O156 2.351 . S
C141 O152 1.185 1_554 S
C141 O153 1.355 1_554 S
C142 O144 1.185 . S
C142 O145 1.355 1_565 S
Dy143 O147 2.310 . S
Dy143 O150 2.351 . S
Dy143 O152 2.398 . S
Dy143 O153 2.491 . S
Dy143 O154 2.403 . S
Dy143 O155 2.664 . S
Dy143 O157 2.326 . S
O144 Dy140 2.398 . S
O144 C142 1.185 . S
O145 Dy140 2.491 1_545 S
O145 C142 1.355 1_545 S
O146 Dy140 2.403 . S
O146 C148 1.254 . S
O147 Dy140 2.664 . S
O147 Dy143 2.310 . S
O147 C148 1.268 . S
C148 O146 1.254 . S
C148 O147 1.268 . S
C149 O154 1.254 . S
C149 O155 1.268 . S
O150 Dy143 2.351 . S
O150 C158 1.249 . S
O151 Dy140 2.326 . S
O151 C158 1.267 . S
O152 C141 1.185 1_556 S
O152 Dy143 2.398 . S
O153 C141 1.355 1_556 S
O153 Dy143 2.491 . S
O154 Dy143 2.403 . S
O154 C149 1.254 . S
O155 Dy140 2.310 . S
O155 Dy143 2.664 . S
O155 C149 1.268 . S
O156 Dy140 2.351 . S
O156 C159 1.249 . S
O157 Dy143 2.326 . S
O157 C159 1.267 . S
C158 O150 1.249 . S
C158 O151 1.267 . S
C159 O156 1.249 . S
C159 O157 1.267 . S
Dy160 O164 2.398 1_554 S
Dy160 O165 2.491 1_554 S
Dy160 O166 2.403 . S
Dy160 O167 2.664 . S
Dy160 O171 2.326 1_554 S
Dy160 O175 2.310 . S
Dy160 O176 2.351 . S
C161 O172 1.185 . S
C161 O173 1.355 . S
C162 O164 1.185 . S
C162 O165 1.355 . S
Dy163 O167 2.310 . S
Dy163 O170 2.351 . S
Dy163 O172 2.398 . S
Dy163 O173 2.491 . S
Dy163 O174 2.403 . S
Dy163 O175 2.664 . S
Dy163 O177 2.326 . S
O164 Dy160 2.398 1_556 S
O164 C162 1.185 . S
O165 Dy160 2.491 1_556 S
O165 C162 1.355 . S
O166 Dy160 2.403 . S
O166 C168 1.254 . S
O167 Dy160 2.664 . S
O167 Dy163 2.310 . S
O167 C168 1.268 . S
C168 O166 1.254 . S
C168 O167 1.268 . S
C169 O174 1.254 . S
C169 O175 1.268 . S
O170 Dy163 2.351 . S
O170 C178 1.249 1_554 S
O171 Dy160 2.326 1_556 S
O171 C178 1.267 . S
O172 C161 1.185 . S
O172 Dy163 2.398 . S
O173 C161 1.355 . S
O173 Dy163 2.491 . S
O174 Dy163 2.403 . S
O174 C169 1.254 . S
O175 Dy160 2.310 . S
O175 Dy163 2.664 . S
O175 C169 1.268 . S
O176 Dy160 2.351 . S
O176 C179 1.249 . S
O177 Dy163 2.326 . S
O177 C179 1.267 . S
C178 O170 1.249 1_556 S
C178 O171 1.267 . S
C179 O176 1.249 . S
C179 O177 1.267 . S
Dy180 O184 2.398 . S
Dy180 O185 2.491 1_455 S
Dy180 O186 2.403 . S
Dy180 O187 2.664 . S
Dy180 O191 2.326 . S
Dy180 O195 2.310 . S
Dy180 O196 2.351 . S
C181 O192 1.185 . S
C181 O193 1.355 . S
C182 O184 1.185 . S
C182 O185 1.355 1_455 S
Dy183 O187 2.310 . S
Dy183 O190 2.351 . S
Dy183 O192 2.398 . S
Dy183 O193 2.491 . S
Dy183 O194 2.403 . S
Dy183 O195 2.664 . S
Dy183 O197 2.326 . S
O184 Dy180 2.398 . S
O184 C182 1.185 . S
O185 Dy180 2.491 1_655 S
O185 C182 1.355 1_655 S
O186 Dy180 2.403 . S
O186 C188 1.254 . S
O187 Dy180 2.664 . S
O187 Dy183 2.310 . S
O187 C188 1.268 . S
C188 O186 1.254 . S
C188 O187 1.268 . S
C189 O194 1.254 . S
C189 O195 1.268 . S
O190 Dy183 2.351 . S
O190 C198 1.249 . S
O191 Dy180 2.326 . S
O191 C198 1.267 . S
O192 C181 1.185 . S
O192 Dy183 2.398 . S
O193 C181 1.355 . S
O193 Dy183 2.491 . S
O194 Dy183 2.403 . S
O194 C189 1.254 . S
O195 Dy180 2.310 . S
O195 Dy183 2.664 . S
O195 C189 1.268 . S
O196 Dy180 2.351 . S
O196 C199 1.249 . S
O197 Dy183 2.326 . S
O197 C199 1.267 . S
C198 O190 1.249 . S
C198 O191 1.267 . S
C199 O196 1.249 . S
C199 O197 1.267 . S
Dy200 O204 2.398 . S
Dy200 O205 2.491 1_545 S
Dy200 O206 2.403 . S
Dy200 O207 2.664 . S
Dy200 O211 2.326 . S
Dy200 O215 2.310 . S
Dy200 O216 2.351 . S
C201 O212 1.185 1_554 S
C201 O213 1.355 1_554 S
C202 O204 1.185 . S
C202 O205 1.355 1_545 S
Dy203 O207 2.310 . S
Dy203 O210 2.351 . S
Dy203 O212 2.398 . S
Dy203 O213 2.491 . S
Dy203 O214 2.403 . S
Dy203 O215 2.664 . S
Dy203 O217 2.326 . S
O204 Dy200 2.398 . S
O204 C202 1.185 . S
O205 Dy200 2.491 1_565 S
O205 C202 1.355 1_565 S
O206 Dy200 2.403 . S
O206 C208 1.254 . S
O207 Dy200 2.664 . S
O207 Dy203 2.310 . S
O207 C208 1.268 . S
C208 O206 1.254 . S
C208 O207 1.268 . S
C209 O214 1.254 . S
C209 O215 1.268 . S
O210 Dy203 2.351 . S
O210 C218 1.249 . S
O211 Dy200 2.326 . S
O211 C218 1.267 . S
O212 C201 1.185 1_556 S
O212 Dy203 2.398 . S
O213 C201 1.355 1_556 S
O213 Dy203 2.491 . S
O214 Dy203 2.403 . S
O214 C209 1.254 . S
O215 Dy200 2.310 . S
O215 Dy203 2.664 . S
O215 C209 1.268 . S
O216 Dy200 2.351 . S
O216 C219 1.249 . S
O217 Dy203 2.326 . S
O217 C219 1.267 . S
C218 O210 1.249 . S
C218 O211 1.267 . S
C219 O216 1.249 . S
C219 O217 1.267 . S
Dy220 O224 2.398 1_554 S
Dy220 O225 2.491 1_554 S
Dy220 O226 2.403 . S
Dy220 O227 2.664 . S
Dy220 O231 2.326 1_554 S
Dy220 O235 2.310 . S
Dy220 O236 2.351 . S
C221 O232 1.185 . S
C221 O233 1.355 . S
C222 O224 1.185 . S
C222 O225 1.355 . S
Dy223 O227 2.310 . S
Dy223 O230 2.351 . S
Dy223 O232 2.398 . S
Dy223 O233 2.491 . S
Dy223 O234 2.403 . S
Dy223 O235 2.664 . S
Dy223 O237 2.326 . S
O224 Dy220 2.398 1_556 S
O224 C222 1.185 . S
O225 Dy220 2.491 1_556 S
O225 C222 1.355 . S
O226 Dy220 2.403 . S
O226 C228 1.254 . S
O227 Dy220 2.664 . S
O227 Dy223 2.310 . S
O227 C228 1.268 . S
C228 O226 1.254 . S
C228 O227 1.268 . S
C229 O234 1.254 . S
C229 O235 1.268 . S
O230 Dy223 2.351 . S
O230 C238 1.249 1_554 S
O231 Dy220 2.326 1_556 S
O231 C238 1.267 . S
O232 C221 1.185 . S
O232 Dy223 2.398 . S
O233 C221 1.355 . S
O233 Dy223 2.491 . S
O234 Dy223 2.403 . S
O234 C229 1.254 . S
O235 Dy220 2.310 . S
O235 Dy223 2.664 . S
O235 C229 1.268 . S
O236 Dy220 2.351 . S
O236 C239 1.249 . S
O237 Dy223 2.326 . S
O237 C239 1.267 . S
C238 O230 1.249 1_556 S
C238 O231 1.267 . S
C239 O236 1.249 . S
C239 O237 1.267 . S
C8 C168 2.068 . S
C28 C188 2.068 . S
C48 C208 2.068 . S
C228 C68 2.068 . S
C88 C128 2.068 . S
C148 C108 2.068 . S
C201 C1 0.309 1_554 S
C221 C21 0.309 . S
C41 C121 0.309 . S
C141 C61 0.309 1_554 S
C161 C81 0.309 . S
C101 C181 0.309 . S
C159 C19 3.114 1_566 S
C179 C39 3.114 . S
C199 C59 3.114 1_455 S
C79 C219 3.114 1_564 S
C99 C239 3.114 . S
C119 C139 3.114 1_455 S
C9 C69 0.179 1_545 S
C29 C89 0.179 . S
C49 C109 0.179 1_655 S
C189 C129 0.179 1_455 S
C149 C209 0.179 1_565 S
C229 C169 0.179 . S
C142 C2 0.834 1_565 S
C162 C22 0.834 . S
C42 C182 0.834 1_655 S
C202 C62 0.834 1_545 S
C222 C82 0.834 . S
C102 C122 0.834 1_455 S
C18 C218 3.685 . S
C38 C238 3.685 . S
C58 C138 3.685 . S
C78 C158 3.685 . S
C98 C178 3.685 . S
C198 C118 3.685 . S
