# Generated by pormake.
# Topology umh, (4)-cn, num edge types: 1
# Building blocks:
#     Node 0, Type 0, BuildingBlock: ICAMEG_clean_sbu_1, # of connection points: 4
#     Node 1, Type 0, BuildingBlock: ICAMEG_clean_sbu_1, # of connection points: 4
#     Node 2, Type 0, BuildingBlock: ICAMEG_clean_sbu_1, # of connection points: 4
#     Node 3, Type 0, BuildingBlock: ICAMEG_clean_sbu_1, # of connection points: 4
#     Node 4, Type 0, BuildingBlock: ICAMEG_clean_sbu_1, # of connection points: 4
#     Node 5, Type 0, BuildingBlock: ICAMEG_clean_sbu_1, # of connection points: 4
#     Node 6, Type 0, BuildingBlock: ICAMEG_clean_sbu_1, # of connection points: 4
#     Node 7, Type 0, BuildingBlock: ICAMEG_clean_sbu_1, # of connection points: 4
#     Node 8, Type 0, BuildingBlock: ICAMEG_clean_sbu_1, # of connection points: 4
#     Node 9, Type 0, BuildingBlock: ICAMEG_clean_sbu_1, # of connection points: 4
#     Node 10, Type 0, BuildingBlock: ICAMEG_clean_sbu_1, # of connection points: 4
#     Node 11, Type 0, BuildingBlock: ICAMEG_clean_sbu_1, # of connection points: 4
#     Node 12, Type 0, BuildingBlock: ICAMEG_clean_sbu_1, # of connection points: 4
#     Node 13, Type 0, BuildingBlock: ICAMEG_clean_sbu_1, # of connection points: 4
#     Node 14, Type 0, BuildingBlock: ICAMEG_clean_sbu_1, # of connection points: 4
#     Node 15, Type 0, BuildingBlock: ICAMEG_clean_sbu_1, # of connection points: 4
#     Edge 16, Type (0, 0), BuildingBlock: CIFDUS_clean_linker_0, # of connection points: 2
#     Edge 17, Type (0, 0), BuildingBlock: CIFDUS_clean_linker_0, # of connection points: 2
#     Edge 18, Type (0, 0), BuildingBlock: CIFDUS_clean_linker_0, # of connection points: 2
#     Edge 19, Type (0, 0), BuildingBlock: CIFDUS_clean_linker_0, # of connection points: 2
#     Edge 20, Type (0, 0), BuildingBlock: CIFDUS_clean_linker_0, # of connection points: 2
#     Edge 21, Type (0, 0), BuildingBlock: CIFDUS_clean_linker_0, # of connection points: 2
#     Edge 22, Type (0, 0), BuildingBlock: CIFDUS_clean_linker_0, # of connection points: 2
#     Edge 23, Type (0, 0), BuildingBlock: CIFDUS_clean_linker_0, # of connection points: 2
#     Edge 24, Type (0, 0), BuildingBlock: CIFDUS_clean_linker_0, # of connection points: 2
#     Edge 25, Type (0, 0), BuildingBlock: CIFDUS_clean_linker_0, # of connection points: 2
#     Edge 26, Type (0, 0), BuildingBlock: CIFDUS_clean_linker_0, # of connection points: 2
#     Edge 27, Type (0, 0), BuildingBlock: CIFDUS_clean_linker_0, # of connection points: 2
#     Edge 28, Type (0, 0), BuildingBlock: CIFDUS_clean_linker_0, # of connection points: 2
#     Edge 29, Type (0, 0), BuildingBlock: CIFDUS_clean_linker_0, # of connection points: 2
#     Edge 30, Type (0, 0), BuildingBlock: CIFDUS_clean_linker_0, # of connection points: 2
#     Edge 31, Type (0, 0), BuildingBlock: CIFDUS_clean_linker_0, # of connection points: 2
#     Edge 32, Type (0, 0), BuildingBlock: CIFDUS_clean_linker_0, # of connection points: 2
#     Edge 33, Type (0, 0), BuildingBlock: CIFDUS_clean_linker_0, # of connection points: 2
#     Edge 34, Type (0, 0), BuildingBlock: CIFDUS_clean_linker_0, # of connection points: 2
#     Edge 35, Type (0, 0), BuildingBlock: CIFDUS_clean_linker_0, # of connection points: 2
#     Edge 36, Type (0, 0), BuildingBlock: CIFDUS_clean_linker_0, # of connection points: 2
#     Edge 37, Type (0, 0), BuildingBlock: CIFDUS_clean_linker_0, # of connection points: 2
#     Edge 38, Type (0, 0), BuildingBlock: CIFDUS_clean_linker_0, # of connection points: 2
#     Edge 39, Type (0, 0), BuildingBlock: CIFDUS_clean_linker_0, # of connection points: 2
#     Edge 40, Type (0, 0), BuildingBlock: CIFDUS_clean_linker_0, # of connection points: 2
#     Edge 41, Type (0, 0), BuildingBlock: CIFDUS_clean_linker_0, # of connection points: 2
#     Edge 42, Type (0, 0), BuildingBlock: CIFDUS_clean_linker_0, # of connection points: 2
#     Edge 43, Type (0, 0), BuildingBlock: CIFDUS_clean_linker_0, # of connection points: 2
#     Edge 44, Type (0, 0), BuildingBlock: CIFDUS_clean_linker_0, # of connection points: 2
#     Edge 45, Type (0, 0), BuildingBlock: CIFDUS_clean_linker_0, # of connection points: 2
#     Edge 46, Type (0, 0), BuildingBlock: CIFDUS_clean_linker_0, # of connection points: 2
#     Edge 47, Type (0, 0), BuildingBlock: CIFDUS_clean_linker_0, # of connection points: 2
# Relax obj value: 0.087
# Max RMSD: 0.245
# Mean RMSD: 0.245
data_MOF--net-umh--node1-ICAMEG_clean_sbu_1--edge1-CIFDUS_clean_linker_0
_symmetry_space_group_name_H-M    P1
_symmetry_Int_Tables_number       1
_symmetry_cell_setting            triclinic
loop_
_symmetry_equiv_pos_as_xyz
'x, y, z'
_cell_length_a     37.541854
_cell_length_b     37.494391
_cell_length_c     50.289887
_cell_angle_alpha  89.99927
_cell_angle_beta   90.026615
_cell_angle_gamma 90.096951
loop_
_atom_site_label
_atom_site_type_symbol
_atom_site_fract_x
_atom_site_fract_y
_atom_site_fract_z
_atom_type_partial_charge
Co0 Co 0.28705 0.07224 0.13014 0.0
Co1 Co 0.35579 0.1096 0.16637 0.0
O2 O 0.33704 0.08105 0.13745 0.0
C3 C 0.3163 0.10835 0.08305 0.0
O4 O 0.32952 0.13106 0.10026 0.0
C5 C 0.38359 0.03755 0.17403 0.0
O6 O 0.3503 0.02781 0.17091 0.0
O7 O 0.32272 0.08721 0.19215 0.0
O8 O 0.27689 0.06344 0.16907 0.0
H9 H 0.349 0.18934 0.24653 0.0
H10 H 0.3426 0.03329 0.09983 0.0
O11 O 0.29707 0.08237 0.09127 0.0
H12 H 0.27246 0.94048 0.14561 0.0
H13 H 0.18633 0.02296 0.07526 0.0
H14 H 0.2183 0.09128 0.15559 0.0
H15 H 0.25663 0.00404 0.1502 0.0
H16 H 0.24936 0.03433 0.08645 0.0
O17 O 0.39172 0.07066 0.17341 0.0
H18 H 0.32463 0.15334 0.20968 0.0
H19 H 0.42922 0.12526 0.1854 0.0
H20 H 0.15497 0.0803 0.14533 0.0
H21 H 0.35927 0.97007 0.09458 0.0
H22 H 0.13865 0.04591 0.10488 0.0
H23 H 0.32416 0.92318 0.11766 0.0
O24 O 0.27487 0.12299 0.1358 0.0
H25 H 0.44367 0.11062 0.09101 0.0
H26 H 0.37538 0.18475 0.15386 0.0
H27 H 0.41402 0.21379 0.12059 0.0
H28 H 0.44844 0.17663 0.08883 0.0
H29 H 0.40452 0.0827 0.12448 0.0
H30 H 0.45475 0.16072 0.22214 0.0
H31 H 0.4145 0.19324 0.25291 0.0
O32 O 0.31922 0.14789 0.15974 0.0
C33 C 0.29285 0.07105 0.19091 0.0
C34 C 0.36681 0.17542 0.23319 0.0
C35 C 0.42616 0.15931 0.21952 0.0
N36 N 0.37551 0.13754 0.19528 0.0
C37 C 0.35317 0.15508 0.21224 0.0
C38 C 0.41157 0.13922 0.1988 0.0
C39 C 0.40357 0.17755 0.23678 0.0
C40 C 0.32694 0.013 0.10967 0.0
N41 N 0.29852 0.02229 0.12514 0.0
C42 C 0.3366 0.97726 0.10673 0.0
C43 C 0.31693 0.95097 0.11972 0.0
C44 C 0.28792 0.96066 0.13541 0.0
C45 C 0.27909 0.99668 0.13795 0.0
C46 C 0.1931 0.0379 0.09297 0.0
C47 C 0.2114 0.07604 0.1381 0.0
C48 C 0.22872 0.04447 0.09938 0.0
N49 N 0.23745 0.06316 0.12179 0.0
C50 C 0.1755 0.07002 0.13233 0.0
C51 C 0.16636 0.05077 0.10961 0.0
C52 C 0.28877 0.14917 0.14825 0.0
C53 C 0.42889 0.12709 0.1048 0.0
C54 C 0.39034 0.16842 0.14014 0.0
C55 C 0.4122 0.185 0.12136 0.0
C56 C 0.43152 0.16413 0.10356 0.0
N57 N 0.38787 0.13208 0.14121 0.0
C58 C 0.40683 0.11143 0.12388 0.0
Co59 Co 0.41284 0.2936 0.62838 0.0
Co60 Co 0.38756 0.36434 0.6682 0.0
O61 O 0.41151 0.34403 0.6374 0.0
C62 C 0.38031 0.32844 0.58145 0.0
O63 O 0.36003 0.34583 0.59827 0.0
C64 C 0.46288 0.38435 0.67402 0.0
O65 O 0.46951 0.35045 0.66988 0.0
O66 O 0.40726 0.32695 0.69232 0.0
O67 O 0.42169 0.28026 0.66639 0.0
H68 H 0.31315 0.36163 0.7512 0.0
H69 H 0.45819 0.34492 0.59885 0.0
O70 O 0.4033 0.30619 0.59008 0.0
H71 H 0.54159 0.25997 0.64028 0.0
H72 H 0.44546 0.18937 0.57029 0.0
H73 H 0.38474 0.22703 0.65252 0.0
H74 H 0.4767 0.25279 0.64597 0.0
H75 H 0.44389 0.25284 0.58318 0.0
O76 O 0.43069 0.39518 0.67483 0.0
H77 H 0.34315 0.33575 0.71207 0.0
H78 H 0.38237 0.43792 0.6902 0.0
H79 H 0.38582 0.16328 0.6405 0.0
H80 H 0.52286 0.353 0.59254 0.0
H81 H 0.41636 0.14408 0.5991 0.0
H82 H 0.56504 0.31041 0.61343 0.0
O83 O 0.36088 0.28844 0.63468 0.0
H84 H 0.3931 0.45674 0.5959 0.0
H85 H 0.31505 0.39447 0.65969 0.0
H86 H 0.28927 0.43901 0.62917 0.0
H87 H 0.32842 0.4705 0.59699 0.0
H88 H 0.41769 0.41177 0.6266 0.0
H89 H 0.35304 0.46489 0.72922 0.0
H90 H 0.31799 0.42666 0.75996 0.0
O91 O 0.34451 0.33362 0.66166 0.0
C92 C 0.41846 0.29509 0.68915 0.0
C93 C 0.32824 0.37859 0.7379 0.0
C94 C 0.35067 0.43654 0.72558 0.0
N95 N 0.36421 0.38536 0.69878 0.0
C96 C 0.34519 0.3641 0.71567 0.0
C97 C 0.36729 0.42111 0.70357 0.0
C98 C 0.331 0.41507 0.74282 0.0
C99 C 0.47637 0.32605 0.60774 0.0
N100 N 0.4637 0.29829 0.62261 0.0
C101 C 0.51296 0.33085 0.6042 0.0
C102 C 0.53662 0.30697 0.61596 0.0
C103 C 0.52348 0.27867 0.63104 0.0
C104 C 0.48672 0.27476 0.63421 0.0
C105 C 0.43211 0.19739 0.58839 0.0
C106 C 0.39821 0.21886 0.63455 0.0
C107 C 0.43107 0.23329 0.59576 0.0
N108 N 0.41441 0.24358 0.61866 0.0
C109 C 0.39868 0.18273 0.62781 0.0
C110 C 0.41579 0.17199 0.60457 0.0
C111 C 0.33783 0.30515 0.64852 0.0
C112 C 0.37579 0.44325 0.60987 0.0
C113 C 0.33222 0.40799 0.6457 0.0
C114 C 0.3175 0.43325 0.62851 0.0
C115 C 0.33948 0.45092 0.61047 0.0
N116 N 0.36784 0.4006 0.64498 0.0
C117 C 0.38958 0.41787 0.62738 0.0
Co118 Co 0.20366 0.41732 0.13049 0.0
Co119 Co 0.13597 0.38503 0.17035 0.0
O120 O 0.15388 0.41028 0.13953 0.0
C121 C 0.17155 0.37627 0.08681 0.0
O122 O 0.15919 0.35593 0.10591 0.0
C123 C 0.10998 0.45832 0.17488 0.0
O124 O 0.14316 0.46717 0.17007 0.0
O125 O 0.17093 0.40897 0.1939 0.0
O126 O 0.21572 0.43036 0.16848 0.0
H127 H 0.14524 0.31324 0.25445 0.0
H128 H 0.1473 0.45353 0.09905 0.0
O129 O 0.19157 0.40283 0.09265 0.0
H130 H 0.22083 0.5501 0.13691 0.0
H131 H 0.30222 0.45817 0.06997 0.0
H132 H 0.27341 0.40051 0.15539 0.0
H133 H 0.23588 0.48705 0.14533 0.0
H134 H 0.23967 0.4492 0.08351 0.0
O135 O 0.10135 0.42539 0.17634 0.0
H136 H 0.16841 0.34489 0.21505 0.0
H137 H 0.06326 0.37301 0.19215 0.0
H138 H 0.33631 0.40915 0.14281 0.0
H139 H 0.13139 0.51617 0.09002 0.0
H140 H 0.35105 0.43818 0.09978 0.0
H141 H 0.1682 0.56496 0.10911 0.0
O142 O 0.21557 0.36727 0.13928 0.0
H143 H 0.04399 0.37928 0.09784 0.0
H144 H 0.11393 0.30943 0.16244 0.0
H145 H 0.07268 0.27839 0.132 0.0
H146 H 0.03738 0.31339 0.0994 0.0
H147 H 0.08573 0.4092 0.12851 0.0
H148 H 0.03893 0.3419 0.23142 0.0
H149 H 0.08005 0.31156 0.2628 0.0
O150 O 0.17114 0.34522 0.16472 0.0
C151 C 0.2008 0.42478 0.19107 0.0
C152 C 0.12704 0.32622 0.24086 0.0
C153 C 0.06737 0.34236 0.22795 0.0
N154 N 0.11716 0.36043 0.20121 0.0
C155 C 0.14 0.34409 0.21848 0.0
C156 C 0.08129 0.35998 0.20579 0.0
C157 C 0.09046 0.32533 0.24555 0.0
C158 C 0.16369 0.47461 0.10716 0.0
N159 N 0.19264 0.46667 0.12253 0.0
C160 C 0.15446 0.51003 0.10209 0.0
C161 C 0.17509 0.53739 0.11284 0.0
C162 C 0.20462 0.52907 0.12845 0.0
C163 C 0.213 0.49335 0.13316 0.0
C164 C 0.29615 0.44556 0.08879 0.0
C165 C 0.27962 0.41336 0.13676 0.0
C166 C 0.26079 0.44035 0.09653 0.0
N167 N 0.25294 0.4246 0.12033 0.0
C168 C 0.31529 0.41809 0.12968 0.0
C169 C 0.32353 0.43435 0.10553 0.0
C170 C 0.20138 0.34257 0.15312 0.0
C171 C 0.05912 0.36376 0.11203 0.0
C172 C 0.0986 0.32483 0.14833 0.0
C173 C 0.07527 0.30712 0.13117 0.0
C174 C 0.05546 0.32678 0.11289 0.0
N175 N 0.10203 0.3611 0.14737 0.0
C176 C 0.08266 0.38057 0.12953 0.0
Co177 Co 0.08129 0.2058 0.62904 0.0
Co178 Co 0.1065 0.1356 0.66943 0.0
O179 O 0.08255 0.15551 0.63847 0.0
C180 C 0.11388 0.17044 0.58241 0.0
O181 O 0.13405 0.15317 0.59939 0.0
C182 C 0.03109 0.11586 0.67536 0.0
O183 O 0.02453 0.14975 0.67113 0.0
O184 O 0.08706 0.17346 0.69329 0.0
O185 O 0.07257 0.21968 0.66693 0.0
H186 H 0.18086 0.13924 0.75249 0.0
H187 H 0.03585 0.15415 0.5999 0.0
O188 O 0.0908 0.19271 0.59086 0.0
H189 H 0.9526 0.23973 0.64072 0.0
H190 H 0.04875 0.30929 0.57018 0.0
H191 H 0.10954 0.27265 0.65268 0.0
H192 H 0.01751 0.24693 0.64633 0.0
H193 H 0.05024 0.24599 0.58354 0.0
O194 O 0.06326 0.10499 0.67628 0.0
H195 H 0.15107 0.16465 0.71307 0.0
H196 H 0.11146 0.06232 0.692 0.0
H197 H 0.10854 0.33624 0.64018 0.0
H198 H 0.97115 0.14603 0.59369 0.0
H199 H 0.07796 0.35492 0.59864 0.0
H200 H 0.92905 0.18895 0.61427 0.0
O201 O 0.13326 0.21094 0.63532 0.0
H202 H 0.10049 0.04211 0.59792 0.0
H203 H 0.17888 0.10513 0.66112 0.0
H204 H 0.20445 0.06003 0.63098 0.0
H205 H 0.16512 0.02816 0.5991 0.0
H206 H 0.07611 0.08764 0.62823 0.0
H207 H 0.14062 0.03581 0.73128 0.0
H208 H 0.17573 0.07437 0.76178 0.0
O209 O 0.14965 0.16608 0.66261 0.0
C210 C 0.07599 0.20532 0.68983 0.0
C211 C 0.16574 0.12215 0.73929 0.0
C212 C 0.1431 0.0641 0.72741 0.0
N213 N 0.12982 0.11493 0.70016 0.0
C214 C 0.14891 0.13636 0.71691 0.0
C215 C 0.1266 0.07926 0.70524 0.0
C216 C 0.16281 0.08575 0.74451 0.0
C217 C 0.0177 0.17316 0.60866 0.0
N218 N 0.03042 0.20111 0.62331 0.0
C219 C 0.98109 0.16834 0.60518 0.0
C220 C 0.95748 0.1924 0.61677 0.0
C221 C 0.97068 0.22089 0.63162 0.0
C222 C 0.00745 0.22482 0.63474 0.0
C223 C 0.06211 0.30149 0.58834 0.0
C224 C 0.09605 0.28059 0.63465 0.0
C225 C 0.06311 0.26569 0.59597 0.0
N226 N 0.07979 0.25569 0.61894 0.0
C227 C 0.09563 0.31663 0.62764 0.0
C228 C 0.0785 0.32708 0.60432 0.0
C229 C 0.15632 0.19437 0.64925 0.0
C230 C 0.11788 0.05576 0.61176 0.0
C231 C 0.16163 0.09144 0.64725 0.0
C232 C 0.17624 0.06587 0.63028 0.0
C233 C 0.15415 0.04798 0.61241 0.0
N234 N 0.12603 0.09893 0.64649 0.0
C235 C 0.1042 0.08146 0.62906 0.0
Co236 Co 0.30821 0.41168 0.38117 0.0
Co237 Co 0.38041 0.37491 0.34865 0.0
O238 O 0.35899 0.40404 0.3763 0.0
C239 C 0.33378 0.37748 0.43032 0.0
O240 O 0.35004 0.35516 0.41435 0.0
C241 C 0.40751 0.4473 0.34033 0.0
O242 O 0.37417 0.45721 0.34262 0.0
O243 O 0.34841 0.39529 0.3211 0.0
O244 O 0.30153 0.42015 0.34194 0.0
H245 H 0.38052 0.2919 0.2702 0.0
H246 H 0.36028 0.45231 0.41373 0.0
O247 O 0.31464 0.40244 0.42054 0.0
H248 H 0.29225 0.54292 0.3641 0.0
H249 H 0.2014 0.4588 0.43019 0.0
H250 H 0.24257 0.39072 0.35218 0.0
H251 H 0.27804 0.47897 0.35927 0.0
H252 H 0.26558 0.44911 0.42249 0.0
O253 O 0.4156 0.41431 0.34181 0.0
H254 H 0.35307 0.32851 0.30542 0.0
H255 H 0.45535 0.3607 0.3325 0.0
H256 H 0.17819 0.39997 0.35899 0.0
H257 H 0.37527 0.51596 0.41926 0.0
H258 H 0.15723 0.43423 0.39825 0.0
H259 H 0.34125 0.56175 0.39423 0.0
O260 O 0.2976 0.36037 0.37551 0.0
H261 H 0.46328 0.3802 0.42707 0.0
H262 H 0.40196 0.30106 0.36343 0.0
H263 H 0.43942 0.27485 0.39867 0.0
H264 H 0.47034 0.31454 0.43083 0.0
H265 H 0.42535 0.40525 0.39165 0.0
H266 H 0.48394 0.32469 0.29743 0.0
H267 H 0.44641 0.28982 0.26606 0.0
O268 O 0.34503 0.33577 0.35513 0.0
C269 C 0.31876 0.41188 0.32085 0.0
C270 C 0.39716 0.30687 0.28381 0.0
C271 C 0.4552 0.32531 0.29907 0.0
N272 N 0.40262 0.34642 0.32113 0.0
C273 C 0.38177 0.32755 0.30384 0.0
C274 C 0.43888 0.3457 0.31884 0.0
C275 C 0.43413 0.30575 0.28148 0.0
C276 C 0.34507 0.47211 0.40303 0.0
N277 N 0.31816 0.46197 0.38634 0.0
C278 C 0.35379 0.5081 0.40614 0.0
C279 C 0.33472 0.53377 0.39206 0.0
C280 C 0.30723 0.52322 0.37514 0.0
C281 C 0.29931 0.48698 0.37248 0.0
C282 C 0.2102 0.44388 0.41299 0.0
C283 C 0.23366 0.40584 0.36921 0.0
C284 C 0.24649 0.43825 0.40856 0.0
N285 N 0.25777 0.41958 0.38681 0.0
C286 C 0.19717 0.4109 0.37301 0.0
C287 C 0.18543 0.43009 0.39505 0.0
C288 C 0.31373 0.33396 0.36504 0.0
C289 C 0.45001 0.36264 0.41313 0.0
C290 C 0.41535 0.31848 0.37734 0.0
C291 C 0.43656 0.3035 0.39723 0.0
C292 C 0.45392 0.32579 0.41525 0.0
N293 N 0.41159 0.35464 0.37543 0.0
C294 C 0.42864 0.37667 0.39296 0.0
Co295 Co 0.09515 0.3109 0.88955 0.0
Co296 Co 0.12369 0.37328 0.84357 0.0
O297 O 0.09998 0.35949 0.87636 0.0
C298 C 0.13529 0.34969 0.9309 0.0
O299 O 0.15429 0.36237 0.91116 0.0
C300 C 0.05021 0.39898 0.83818 0.0
O301 O 0.04043 0.36677 0.84537 0.0
O302 O 0.09944 0.33457 0.82345 0.0
O303 O 0.08195 0.29299 0.85309 0.0
H304 H 0.19185 0.35227 0.75906 0.0
H305 H 0.05726 0.36996 0.91666 0.0
O306 O 0.1096 0.32817 0.92611 0.0
H307 H 0.96317 0.28789 0.88576 0.0
H308 H 0.05872 0.21926 0.95741 0.0
H309 H 0.11535 0.23892 0.87018 0.0
H310 H 0.02655 0.27398 0.87805 0.0
H311 H 0.06476 0.28006 0.93913 0.0
O312 O 0.08317 0.40642 0.83565 0.0
H313 H 0.16243 0.33484 0.80096 0.0
H314 H 0.13385 0.44262 0.81558 0.0
H315 H 0.10968 0.17768 0.88758 0.0
H316 H 0.99423 0.38484 0.9249 0.0
H317 H 0.08117 0.16755 0.93152 0.0
H318 H 0.94669 0.34372 0.9093 0.0
O319 O 0.14566 0.30002 0.88153 0.0
H320 H 0.13042 0.47537 0.90815 0.0
H321 H 0.19889 0.39836 0.84739 0.0
H322 H 0.23019 0.44453 0.87345 0.0
H323 H 0.19587 0.48342 0.9041 0.0
H324 H 0.10027 0.42864 0.88192 0.0
H325 H 0.16275 0.4612 0.77374 0.0
H326 H 0.19215 0.41587 0.74522 0.0
O327 O 0.16424 0.34028 0.85123 0.0
C328 C 0.08542 0.30451 0.82926 0.0
C329 C 0.17925 0.37229 0.77136 0.0
C330 C 0.16287 0.43342 0.77958 0.0
N331 N 0.14675 0.38774 0.8108 0.0
C332 C 0.16265 0.3626 0.79514 0.0
C333 C 0.14649 0.42274 0.80322 0.0
C334 C 0.17937 0.40798 0.7636 0.0
C335 C 0.03672 0.35174 0.91009 0.0
N336 N 0.04555 0.32104 0.89705 0.0
C337 C 0.00108 0.36038 0.9147 0.0
C338 C 0.97442 0.33732 0.9059 0.0
C339 C 0.98365 0.306 0.89268 0.0
C340 C 0.01957 0.29828 0.88836 0.0
C341 C 0.07111 0.22332 0.93821 0.0
C342 C 0.10269 0.23469 0.88921 0.0
C343 C 0.07464 0.25767 0.92778 0.0
N344 N 0.09009 0.26296 0.9035 0.0
C345 C 0.09965 0.19997 0.89901 0.0
C346 C 0.0837 0.19431 0.92367 0.0
C347 C 0.16911 0.31292 0.86592 0.0
C348 C 0.14565 0.45864 0.89482 0.0
C349 C 0.18381 0.41513 0.86073 0.0
C350 C 0.20165 0.44128 0.87539 0.0
C351 C 0.18238 0.46311 0.89257 0.0
N352 N 0.14779 0.41087 0.86309 0.0
C353 C 0.1287 0.43224 0.87983 0.0
Co354 Co 0.18913 0.08817 0.38272 0.0
Co355 Co 0.11687 0.12467 0.35005 0.0
O356 O 0.13834 0.09578 0.37782 0.0
C357 C 0.16348 0.12265 0.43168 0.0
O358 O 0.14742 0.14499 0.41561 0.0
C359 C 0.08969 0.05228 0.34203 0.0
O360 O 0.12301 0.04235 0.34447 0.0
O361 O 0.14875 0.10396 0.32259 0.0
O362 O 0.19577 0.07942 0.34353 0.0
H363 H 0.11665 0.20703 0.27121 0.0
H364 H 0.13708 0.04776 0.41543 0.0
O365 O 0.18267 0.09766 0.42203 0.0
H366 H 0.20515 0.95682 0.36622 0.0
H367 H 0.29596 0.04141 0.43198 0.0
H368 H 0.25476 0.10895 0.35368 0.0
H369 H 0.2193 0.02074 0.3611 0.0
H370 H 0.23178 0.05105 0.4242 0.0
O371 O 0.08161 0.08528 0.34341 0.0
H372 H 0.14415 0.17063 0.30655 0.0
H373 H 0.0419 0.13888 0.33391 0.0
H374 H 0.31914 0.09974 0.36056 0.0
H375 H 0.12216 0.98414 0.42124 0.0
H376 H 0.34012 0.06575 0.39996 0.0
H377 H 0.1562 0.93819 0.39642 0.0
O378 O 0.19975 0.13945 0.37684 0.0
H379 H 0.03431 0.12021 0.4286 0.0
H380 H 0.09547 0.1987 0.36447 0.0
H381 H 0.05821 0.22528 0.39965 0.0
H382 H 0.02737 0.18591 0.43206 0.0
H383 H 0.07203 0.09479 0.39323 0.0
H384 H 0.01327 0.17467 0.29871 0.0
H385 H 0.05075 0.20922 0.26715 0.0
O386 O 0.15232 0.16382 0.35627 0.0
C387 C 0.1784 0.08737 0.32242 0.0
C388 C 0.10004 0.1922 0.2849 0.0
C389 C 0.04201 0.174 0.30032 0.0
N390 N 0.09463 0.15296 0.3224 0.0
C391 C 0.11545 0.17164 0.305 0.0
C392 C 0.05836 0.15373 0.32016 0.0
C393 C 0.06306 0.19338 0.28262 0.0
C394 C 0.1523 0.02789 0.40482 0.0
N395 N 0.17919 0.03792 0.38809 0.0
C396 C 0.14362 0.99192 0.40809 0.0
C397 C 0.1627 0.96615 0.39413 0.0
C398 C 0.19016 0.97659 0.37717 0.0
C399 C 0.19804 0.01281 0.37435 0.0
C400 C 0.28715 0.05621 0.41471 0.0
C401 C 0.26367 0.09394 0.37077 0.0
C402 C 0.25087 0.06181 0.41024 0.0
N403 N 0.23957 0.08032 0.38842 0.0
C404 C 0.30017 0.0889 0.37461 0.0
C405 C 0.31191 0.06986 0.39673 0.0
C406 C 0.18363 0.16574 0.36618 0.0
C407 C 0.04753 0.13763 0.41456 0.0
C408 C 0.08211 0.18142 0.37849 0.0
C409 C 0.06101 0.19661 0.39835 0.0
C410 C 0.04369 0.1745 0.41651 0.0
N411 N 0.0858 0.14524 0.37675 0.0
C412 C 0.06879 0.12339 0.39442 0.0
Co413 Co 0.41614 0.20041 0.89221 0.0
Co414 Co 0.39018 0.13208 0.85029 0.0
O415 O 0.4142 0.15056 0.88166 0.0
C416 C 0.38052 0.16316 0.93675 0.0
O417 O 0.36151 0.14686 0.91852 0.0
C418 C 0.46553 0.11332 0.84388 0.0
O419 O 0.47218 0.14681 0.84961 0.0
O420 O 0.40954 0.17108 0.82763 0.0
O421 O 0.42675 0.21575 0.85471 0.0
H422 H 0.31609 0.13937 0.76722 0.0
H423 H 0.45906 0.14676 0.92135 0.0
O424 O 0.40433 0.18576 0.92983 0.0
H425 H 0.54596 0.23229 0.88457 0.0
H426 H 0.44783 0.30043 0.95463 0.0
H427 H 0.39078 0.26891 0.86949 0.0
H428 H 0.48151 0.2409 0.87745 0.0
H429 H 0.4457 0.23784 0.93954 0.0
O430 O 0.43339 0.10235 0.84251 0.0
H431 H 0.34571 0.16303 0.80734 0.0
H432 H 0.38527 0.05992 0.82583 0.0
H433 H 0.39243 0.33183 0.8837 0.0
H434 H 0.52325 0.1372 0.92905 0.0
H435 H 0.42113 0.34794 0.92658 0.0
H436 H 0.56719 0.1801 0.91051 0.0
O437 O 0.36479 0.20689 0.88469 0.0
H438 H 0.3965 0.03484 0.91892 0.0
H439 H 0.31773 0.10127 0.8581 0.0
H440 H 0.2923 0.05455 0.88698 0.0
H441 H 0.3318 0.02097 0.91767 0.0
H442 H 0.42076 0.08197 0.88987 0.0
H443 H 0.35627 0.03516 0.78581 0.0
H444 H 0.32127 0.07499 0.75626 0.0
O445 O 0.34717 0.16199 0.8578 0.0
C446 C 0.42209 0.20231 0.83157 0.0
C447 C 0.33115 0.12172 0.78 0.0
C448 C 0.35374 0.06324 0.79042 0.0
N449 N 0.36689 0.1128 0.81901 0.0
C450 C 0.34788 0.13494 0.80278 0.0
C451 C 0.37015 0.07741 0.81301 0.0
C452 C 0.3341 0.08561 0.77384 0.0
C453 C 0.47801 0.16574 0.91348 0.0
N454 N 0.46658 0.19447 0.89913 0.0
C455 C 0.51432 0.16011 0.9178 0.0
C456 C 0.53896 0.18416 0.90735 0.0
C457 C 0.52707 0.21345 0.89279 0.0
C458 C 0.49056 0.21817 0.88881 0.0
C459 C 0.43529 0.29376 0.93589 0.0
C460 C 0.40344 0.27573 0.88809 0.0
C461 C 0.43395 0.25837 0.92727 0.0
N462 N 0.41829 0.24978 0.90358 0.0
C463 C 0.40424 0.31139 0.89607 0.0
C464 C 0.42032 0.3204 0.92014 0.0
C465 C 0.34139 0.19063 0.87086 0.0
C466 C 0.37904 0.04922 0.90558 0.0
C467 C 0.33508 0.08678 0.87141 0.0
C468 C 0.32054 0.06033 0.88769 0.0
C469 C 0.34272 0.04148 0.90489 0.0
N470 N 0.37072 0.0942 0.87219 0.0
C471 C 0.39265 0.07582 0.88899 0.0
Co472 Co 0.69304 0.90814 0.88815 0.0
Co473 Co 0.6293 0.87835 0.84366 0.0
O474 O 0.64406 0.90317 0.8758 0.0
C475 C 0.65515 0.87094 0.93108 0.0
O476 O 0.64207 0.85049 0.91228 0.0
C477 C 0.60274 0.95156 0.83751 0.0
O478 O 0.635 0.96207 0.84388 0.0
O479 O 0.66724 0.90231 0.82251 0.0
O480 O 0.70993 0.91943 0.85137 0.0
H481 H 0.64807 0.80722 0.76018 0.0
H482 H 0.63506 0.94813 0.91487 0.0
O483 O 0.67672 0.89605 0.92514 0.0
H484 H 0.71736 0.03977 0.88045 0.0
H485 H 0.78689 0.94738 0.95341 0.0
H486 H 0.76405 0.88563 0.86852 0.0
H487 H 0.7304 0.97582 0.87433 0.0
H488 H 0.7256 0.94109 0.93624 0.0
O489 O 0.59575 0.9184 0.83562 0.0
H490 H 0.66658 0.83834 0.80116 0.0
H491 H 0.55927 0.86702 0.81695 0.0
H492 H 0.82577 0.8915 0.8848 0.0
H493 H 0.62107 0.01177 0.92153 0.0
H494 H 0.83749 0.92259 0.92756 0.0
H495 H 0.66232 0.05808 0.90415 0.0
O496 O 0.70316 0.8569 0.88141 0.0
H497 H 0.52959 0.87332 0.9102 0.0
H498 H 0.60435 0.80316 0.84896 0.0
H499 H 0.55913 0.77253 0.8763 0.0
H500 H 0.52137 0.8077 0.9072 0.0
H501 H 0.57535 0.90279 0.88269 0.0
H502 H 0.5396 0.83647 0.77602 0.0
H503 H 0.58415 0.80611 0.74741 0.0
O504 O 0.66248 0.83805 0.85153 0.0
C505 C 0.69757 0.91605 0.82782 0.0
C506 C 0.62839 0.82023 0.77254 0.0
C507 C 0.56752 0.83669 0.78141 0.0
N508 N 0.61399 0.85417 0.81153 0.0
C509 C 0.6387 0.83779 0.7958 0.0
C510 C 0.57881 0.85401 0.80452 0.0
C511 C 0.59253 0.81966 0.76536 0.0
C512 C 0.65334 0.96813 0.90753 0.0
N513 N 0.68362 0.95829 0.89438 0.0
C514 C 0.6452 0.00412 0.91125 0.0
C515 C 0.66833 0.0301 0.90145 0.0
C516 C 0.69921 0.01984 0.88814 0.0
C517 C 0.70644 0.9836 0.88472 0.0
C518 C 0.78214 0.93388 0.93471 0.0
C519 C 0.76899 0.89943 0.88701 0.0
C520 C 0.7475 0.9302 0.92492 0.0
N521 N 0.74134 0.91336 0.90125 0.0
C522 C 0.80397 0.90256 0.89619 0.0
C523 C 0.81052 0.91997 0.9202 0.0
C524 C 0.68974 0.83314 0.86627 0.0
C525 C 0.54583 0.85772 0.89678 0.0
C526 C 0.58809 0.8186 0.86242 0.0
C527 C 0.56247 0.80114 0.87779 0.0
C528 C 0.54127 0.82089 0.89511 0.0
N529 N 0.59246 0.85471 0.8642 0.0
C530 C 0.57169 0.87428 0.88106 0.0
Co531 Co 0.58158 0.7061 0.39043 0.0
Co532 Co 0.60897 0.63889 0.34802 0.0
O533 O 0.58344 0.65645 0.37908 0.0
C534 C 0.61312 0.66768 0.43562 0.0
O535 O 0.63316 0.65158 0.41795 0.0
C536 C 0.53444 0.61767 0.33969 0.0
O537 O 0.526 0.65091 0.34486 0.0
O538 O 0.58968 0.67804 0.32535 0.0
O539 O 0.57388 0.72243 0.35307 0.0
H540 H 0.68654 0.64947 0.267 0.0
H541 H 0.53566 0.65226 0.41677 0.0
O542 O 0.59012 0.69058 0.42812 0.0
H543 H 0.45302 0.74009 0.37791 0.0
H544 H 0.54621 0.8053 0.4524 0.0
H545 H 0.6107 0.77451 0.37018 0.0
H546 H 0.51803 0.74797 0.3736 0.0
H547 H 0.54851 0.74301 0.43667 0.0
O548 O 0.56701 0.60828 0.33907 0.0
H549 H 0.65459 0.67164 0.30654 0.0
H550 H 0.61615 0.5673 0.32279 0.0
H551 H 0.60891 0.83716 0.38505 0.0
H552 H 0.47086 0.64342 0.42166 0.0
H553 H 0.57646 0.8529 0.42645 0.0
H554 H 0.42907 0.68748 0.40207 0.0
O555 O 0.63374 0.71202 0.38538 0.0
H556 H 0.60156 0.54084 0.41598 0.0
H557 H 0.68136 0.6083 0.35647 0.0
H558 H 0.70636 0.56156 0.38547 0.0
H559 H 0.66633 0.52745 0.4155 0.0
H560 H 0.57776 0.58806 0.38686 0.0
H561 H 0.64745 0.54404 0.2833 0.0
H562 H 0.68311 0.58523 0.25519 0.0
O563 O 0.65122 0.66901 0.35691 0.0
C564 C 0.57801 0.70947 0.3298 0.0
C565 C 0.6712 0.63124 0.27915 0.0
C566 C 0.64921 0.57207 0.28828 0.0
N567 N 0.6338 0.62073 0.31706 0.0
C568 C 0.65314 0.64362 0.3016 0.0
C569 C 0.63148 0.58541 0.31057 0.0
C570 C 0.66922 0.5952 0.27252 0.0
C571 C 0.51764 0.67173 0.40844 0.0
N572 N 0.53058 0.7007 0.39507 0.0
C573 C 0.48098 0.66651 0.41117 0.0
C574 C 0.45754 0.69122 0.40014 0.0
C575 C 0.47096 0.72073 0.38657 0.0
C576 C 0.50778 0.72504 0.38417 0.0
C577 C 0.56036 0.7988 0.43429 0.0
C578 C 0.59634 0.78119 0.3881 0.0
C579 C 0.56179 0.76358 0.42531 0.0
N580 N 0.57944 0.75522 0.40239 0.0
C581 C 0.5955 0.8167 0.39647 0.0
C582 C 0.57733 0.8255 0.41972 0.0
C583 C 0.65732 0.69621 0.37147 0.0
C584 C 0.61926 0.55548 0.40295 0.0
C585 C 0.66381 0.59367 0.36955 0.0
C586 C 0.67809 0.56716 0.38587 0.0
C587 C 0.65561 0.54801 0.4027 0.0
N588 N 0.62814 0.6009 0.36995 0.0
C589 C 0.60592 0.58215 0.38634 0.0
Co590 Co 0.79862 0.5823 0.89067 0.0
Co591 Co 0.86467 0.60722 0.84652 0.0
O592 O 0.84787 0.58403 0.87872 0.0
C593 C 0.83822 0.6191 0.93291 0.0
O594 O 0.85269 0.63771 0.91364 0.0
C595 C 0.88476 0.5319 0.84128 0.0
O596 O 0.85165 0.52465 0.84764 0.0
O597 O 0.82514 0.58618 0.82533 0.0
O598 O 0.78156 0.5706 0.8539 0.0
H599 H 0.8525 0.67814 0.76224 0.0
H600 H 0.85381 0.54017 0.91885 0.0
O601 O 0.8152 0.59505 0.92752 0.0
H602 H 0.76675 0.45206 0.88579 0.0
H603 H 0.70202 0.55164 0.95616 0.0
H604 H 0.72913 0.60748 0.86974 0.0
H605 H 0.75762 0.51638 0.87801 0.0
H606 H 0.76373 0.5536 0.93933 0.0
O607 O 0.89486 0.56425 0.83901 0.0
H608 H 0.83114 0.64949 0.80345 0.0
H609 H 0.93559 0.61242 0.82024 0.0
H610 H 0.66703 0.60594 0.88568 0.0
H611 H 0.8639 0.47614 0.92718 0.0
H612 H 0.65315 0.57784 0.92921 0.0
H613 H 0.82024 0.43159 0.91051 0.0
O614 O 0.79155 0.63361 0.88266 0.0
H615 H 0.96443 0.60518 0.91319 0.0
H616 H 0.89487 0.68045 0.85185 0.0
H617 H 0.94222 0.70777 0.87914 0.0
H618 H 0.97738 0.67003 0.91008 0.0
H619 H 0.91663 0.57903 0.88572 0.0
H620 H 0.95805 0.64044 0.77912 0.0
H621 H 0.91639 0.67372 0.74987 0.0
O622 O 0.83453 0.6502 0.85386 0.0
C623 C 0.79418 0.57378 0.83041 0.0
C624 C 0.87094 0.66383 0.77488 0.0
C625 C 0.93017 0.64263 0.78433 0.0
N626 N 0.88217 0.62962 0.81433 0.0
C627 C 0.85902 0.64766 0.79827 0.0
C628 C 0.9173 0.62677 0.80756 0.0
C629 C 0.90678 0.6613 0.76793 0.0
C630 C 0.8345 0.52096 0.91179 0.0
N631 N 0.80505 0.53198 0.89812 0.0
C632 C 0.84043 0.48474 0.91646 0.0
C633 C 0.81595 0.45975 0.90707 0.0
C634 C 0.78594 0.47122 0.89319 0.0
C635 C 0.78092 0.50765 0.88882 0.0
C636 C 0.70771 0.56387 0.93713 0.0
C637 C 0.72325 0.595 0.88859 0.0
C638 C 0.74259 0.5651 0.92752 0.0
N639 N 0.74994 0.58036 0.90345 0.0
C640 C 0.68806 0.5943 0.89756 0.0
C641 C 0.6803 0.57857 0.922 0.0
C642 C 0.80684 0.65658 0.86783 0.0
C643 C 0.94936 0.62188 0.89973 0.0
C644 C 0.91003 0.66387 0.86529 0.0
C645 C 0.93685 0.67947 0.88066 0.0
C646 C 0.95658 0.65828 0.898 0.0
N647 N 0.9031 0.62816 0.8671 0.0
C648 C 0.92237 0.60719 0.88403 0.0
Co649 Co 0.91603 0.79342 0.39001 0.0
Co650 Co 0.88847 0.86053 0.34757 0.0
O651 O 0.91399 0.84305 0.37866 0.0
C652 C 0.88404 0.83177 0.43498 0.0
O653 O 0.8641 0.84775 0.41718 0.0
C654 C 0.96296 0.88185 0.33944 0.0
O655 O 0.9714 0.8486 0.34458 0.0
O656 O 0.90787 0.82141 0.32494 0.0
O657 O 0.92404 0.77717 0.35268 0.0
H658 H 0.81108 0.84977 0.26641 0.0
H659 H 0.96151 0.84749 0.41654 0.0
O660 O 0.90717 0.80891 0.42765 0.0
H661 H 0.04482 0.76006 0.37802 0.0
H662 H 0.95148 0.69435 0.45209 0.0
H663 H 0.88737 0.72489 0.36961 0.0
H664 H 0.97988 0.75187 0.37344 0.0
H665 H 0.94896 0.75665 0.43639 0.0
O666 O 0.9304 0.89121 0.3387 0.0
H667 H 0.84299 0.82768 0.30601 0.0
H668 H 0.88121 0.93209 0.32231 0.0
H669 H 0.88939 0.66223 0.38445 0.0
H670 H 0.02625 0.85665 0.42169 0.0
H671 H 0.92165 0.64662 0.42599 0.0
H672 H 0.06837 0.81279 0.40228 0.0
O673 O 0.86393 0.78725 0.38475 0.0
H674 H 0.89555 0.95858 0.41555 0.0
H675 H 0.81601 0.89098 0.35587 0.0
H676 H 0.79085 0.93764 0.38485 0.0
H677 H 0.83075 0.97181 0.41497 0.0
H678 H 0.91951 0.91144 0.38646 0.0
H679 H 0.84994 0.95528 0.28276 0.0
H680 H 0.81442 0.91401 0.25459 0.0
O681 O 0.84627 0.83032 0.3564 0.0
C682 C 0.91981 0.79009 0.3294 0.0
C683 C 0.82636 0.86804 0.27858 0.0
C684 C 0.84822 0.92725 0.28774 0.0
N685 N 0.86366 0.87863 0.31656 0.0
C686 C 0.8444 0.8557 0.30107 0.0
C687 C 0.86593 0.91396 0.31007 0.0
C688 C 0.82828 0.90408 0.27195 0.0
C689 C 0.97969 0.8281 0.40828 0.0
N690 N 0.96696 0.79907 0.39487 0.0
C691 C 0.01631 0.8335 0.41116 0.0
C692 C 0.03993 0.80891 0.40023 0.0
C693 C 0.02673 0.77933 0.38661 0.0
C694 C 0.98995 0.77485 0.38406 0.0
C695 C 0.93742 0.70079 0.43393 0.0
C696 C 0.90165 0.71826 0.38759 0.0
C697 C 0.93587 0.73602 0.42496 0.0
N698 N 0.91832 0.74431 0.40197 0.0
C699 C 0.90261 0.68275 0.39595 0.0
C700 C 0.92068 0.67403 0.41927 0.0
C701 C 0.84027 0.80302 0.37088 0.0
C702 C 0.8779 0.94391 0.40249 0.0
C703 C 0.8335 0.90564 0.369 0.0
C704 C 0.81913 0.93211 0.3853 0.0
C705 C 0.84153 0.95129 0.40218 0.0
N706 N 0.86918 0.8985 0.36945 0.0
C707 C 0.89133 0.91728 0.38588 0.0
Co708 Co 0.70122 0.57585 0.62898 0.0
Co709 Co 0.6371 0.6146 0.66888 0.0
O710 O 0.65215 0.58624 0.63858 0.0
C711 C 0.67053 0.61273 0.58288 0.0
O712 O 0.65817 0.63581 0.60016 0.0
C713 C 0.60447 0.54397 0.67641 0.0
O714 O 0.63658 0.53135 0.67231 0.0
O715 O 0.67107 0.58956 0.69291 0.0
O716 O 0.71383 0.56602 0.66691 0.0
H717 H 0.65469 0.69067 0.7501 0.0
H718 H 0.64183 0.53931 0.60104 0.0
O719 O 0.68921 0.5864 0.59083 0.0
H720 H 0.71163 0.44342 0.64321 0.0
H721 H 0.79592 0.52335 0.5701 0.0
H722 H 0.77238 0.59262 0.65153 0.0
H723 H 0.73055 0.50624 0.64725 0.0
H724 H 0.73427 0.53665 0.58384 0.0
O725 O 0.59947 0.57764 0.67669 0.0
H726 H 0.67398 0.65495 0.71151 0.0
H727 H 0.5662 0.63339 0.69141 0.0
H728 H 0.83443 0.57974 0.63867 0.0
H729 H 0.62203 0.47685 0.59641 0.0
H730 H 0.84651 0.54485 0.59766 0.0
H731 H 0.65694 0.42842 0.61771 0.0
O732 O 0.71574 0.62639 0.63431 0.0
H733 H 0.54379 0.62258 0.59741 0.0
H734 H 0.61993 0.69102 0.659 0.0
H735 H 0.58015 0.72308 0.62816 0.0
H736 H 0.54173 0.68878 0.59706 0.0
H737 H 0.58419 0.59162 0.62842 0.0
H738 H 0.54571 0.66866 0.72991 0.0
H739 H 0.59013 0.69775 0.75946 0.0
O740 O 0.67463 0.65149 0.66113 0.0
C741 C 0.70032 0.57277 0.68967 0.0
C742 C 0.63508 0.67824 0.73731 0.0
C743 C 0.57392 0.66584 0.72599 0.0
N744 N 0.62123 0.6424 0.69912 0.0
C745 C 0.64584 0.65808 0.71539 0.0
C746 C 0.58566 0.64585 0.70427 0.0
C747 C 0.59885 0.68217 0.74257 0.0
C748 C 0.65741 0.51834 0.61008 0.0
N749 N 0.68744 0.52637 0.62424 0.0
C750 C 0.64598 0.48304 0.6075 0.0
C751 C 0.66555 0.45588 0.61948 0.0
C752 C 0.69623 0.46428 0.63381 0.0
C753 C 0.7068 0.49989 0.63603 0.0
C754 C 0.791 0.53851 0.58803 0.0
C755 C 0.77744 0.57726 0.63376 0.0
C756 C 0.75617 0.54618 0.59588 0.0
N757 N 0.74977 0.56516 0.61858 0.0
C758 C 0.81262 0.57012 0.62653 0.0
C759 C 0.81938 0.55058 0.60351 0.0
C760 C 0.7036 0.65257 0.64775 0.0
C761 C 0.56033 0.63781 0.61091 0.0
C762 C 0.60332 0.67593 0.64551 0.0
C763 C 0.58079 0.69422 0.62813 0.0
C764 C 0.55923 0.67496 0.6107 0.0
N765 N 0.60429 0.63949 0.64558 0.0
C766 C 0.58314 0.62043 0.62861 0.0
Co767 Co 0.90517 0.68246 0.1314 0.0
Co768 Co 0.87268 0.62043 0.17616 0.0
O769 O 0.8979 0.63391 0.14396 0.0
C770 C 0.86527 0.64608 0.08916 0.0
O771 O 0.84474 0.63427 0.10834 0.0
C772 C 0.94494 0.59202 0.18204 0.0
O773 O 0.95562 0.62434 0.17594 0.0
O774 O 0.89778 0.6579 0.19714 0.0
O775 O 0.91768 0.69912 0.16807 0.0
H776 H 0.80255 0.64225 0.25965 0.0
H777 H 0.94174 0.62225 0.10461 0.0
O778 O 0.89161 0.66639 0.09459 0.0
H779 H 0.03777 0.70007 0.13819 0.0
H780 H 0.94782 0.77366 0.06523 0.0
H781 H 0.887 0.75487 0.15097 0.0
H782 H 0.97473 0.71648 0.14457 0.0
H783 H 0.93872 0.71287 0.0828 0.0
O784 O 0.91174 0.58544 0.18418 0.0
H785 H 0.83408 0.65944 0.21855 0.0
H786 H 0.85909 0.55098 0.20312 0.0
H787 H 0.89569 0.81611 0.13428 0.0
H788 H 0.00442 0.60488 0.09772 0.0
H789 H 0.92633 0.82581 0.0911 0.0
H790 H 0.05293 0.64384 0.11468 0.0
O791 O 0.85479 0.69521 0.13858 0.0
H792 H 0.86383 0.52008 0.11021 0.0
H793 H 0.79667 0.5986 0.17071 0.0
H794 H 0.76434 0.55431 0.14357 0.0
H795 H 0.79799 0.51466 0.11304 0.0
H796 H 0.89503 0.56494 0.13752 0.0
H797 H 0.82805 0.53261 0.24416 0.0
H798 H 0.79936 0.57842 0.27266 0.0
O799 O 0.83364 0.65524 0.1682 0.0
C800 C 0.91302 0.68752 0.19172 0.0
C801 C 0.81483 0.62203 0.24734 0.0
C802 C 0.82919 0.5605 0.23867 0.0
N803 N 0.8481 0.6062 0.20836 0.0
C804 C 0.83263 0.63159 0.22401 0.0
C805 C 0.84678 0.57105 0.21549 0.0
C806 C 0.81309 0.58621 0.25465 0.0
C807 C 0.96272 0.63956 0.11177 0.0
N808 N 0.95461 0.67045 0.12482 0.0
C809 C 0.99815 0.6295 0.10791 0.0
C810 C 0.02535 0.65135 0.11747 0.0
C811 C 0.01687 0.68289 0.13068 0.0
C812 C 0.98114 0.69204 0.13424 0.0
C813 C 0.93452 0.76979 0.08411 0.0
C814 C 0.90055 0.7589 0.13228 0.0
C815 C 0.92925 0.73544 0.09413 0.0
N816 N 0.91265 0.73038 0.11802 0.0
C817 C 0.90531 0.79363 0.12287 0.0
C818 C 0.92246 0.79904 0.09863 0.0
C819 C 0.83033 0.68299 0.15365 0.0
C820 C 0.84888 0.53713 0.12349 0.0
C821 C 0.81147 0.58147 0.15745 0.0
C822 C 0.79304 0.55639 0.14217 0.0
C823 C 0.81194 0.53414 0.12506 0.0
N824 N 0.8477 0.58426 0.15579 0.0
C825 C 0.86642 0.56247 0.1391 0.0
Co826 Co 0.79338 0.92366 0.62752 0.0
Co827 Co 0.8573 0.88531 0.66784 0.0
O828 O 0.84241 0.91366 0.63751 0.0
C829 C 0.825 0.88719 0.58168 0.0
O830 O 0.83718 0.86414 0.59905 0.0
C831 C 0.88957 0.9561 0.67578 0.0
O832 O 0.85747 0.96866 0.67153 0.0
O833 O 0.82291 0.91008 0.69163 0.0
O834 O 0.78008 0.93306 0.66538 0.0
H835 H 0.83924 0.80939 0.74907 0.0
H836 H 0.85281 0.96092 0.6002 0.0
O837 O 0.80608 0.91342 0.58946 0.0
H838 H 0.78158 0.05588 0.64214 0.0
H839 H 0.69917 0.97575 0.56794 0.0
H840 H 0.72201 0.90606 0.64931 0.0
H841 H 0.76319 0.99286 0.64581 0.0
H842 H 0.76071 0.96286 0.58222 0.0
O843 O 0.89465 0.92244 0.67595 0.0
H844 H 0.82018 0.8448 0.71025 0.0
H845 H 0.92806 0.86682 0.6908 0.0
H846 H 0.66006 0.91851 0.63591 0.0
H847 H 0.87209 0.02358 0.59594 0.0
H848 H 0.64833 0.95361 0.59494 0.0
H849 H 0.83645 0.07155 0.61712 0.0
O850 O 0.77923 0.87296 0.63257 0.0
H851 H 0.95138 0.87798 0.59697 0.0
H852 H 0.87501 0.80901 0.65802 0.0
H853 H 0.91528 0.77723 0.6274 0.0
H854 H 0.95381 0.81178 0.59657 0.0
H855 H 0.9105 0.90865 0.62775 0.0
H856 H 0.94832 0.83184 0.72952 0.0
H857 H 0.90374 0.80271 0.75889 0.0
O858 O 0.82003 0.84823 0.65985 0.0
C859 C 0.79341 0.92638 0.68822 0.0
C860 C 0.85892 0.82184 0.73636 0.0
C861 C 0.92015 0.83449 0.72541 0.0
N862 N 0.873 0.85756 0.69817 0.0
C863 C 0.84829 0.84183 0.71432 0.0
C864 C 0.90853 0.85431 0.70356 0.0
C865 C 0.89512 0.81814 0.74188 0.0
C866 C 0.83692 0.98168 0.60918 0.0
N867 N 0.80679 0.97328 0.62308 0.0
C868 C 0.84806 0.0171 0.60682 0.0
C869 C 0.82808 0.044 0.61874 0.0
C870 C 0.7973 0.03522 0.63279 0.0
C871 C 0.78703 -0.0005 0.63481 0.0
C872 C 0.70393 0.96049 0.58586 0.0
C873 C 0.71711 0.92153 0.63157 0.0
C874 C 0.73871 0.95306 0.59402 0.0
N875 N 0.74491 0.93397 0.6167 0.0
C876 C 0.68198 0.92841 0.62403 0.0
C877 C 0.67542 0.94807 0.60102 0.0
C878 C 0.79127 0.8469 0.6462 0.0
C879 C 0.93479 0.86263 0.61036 0.0
C880 C 0.89167 0.82421 0.64465 0.0
C881 C 0.91447 0.80608 0.62739 0.0
C882 C 0.9361 0.82549 0.61012 0.0
N883 N 0.89049 0.86064 0.64474 0.0
C884 C 0.91171 0.87986 0.62792 0.0
Co885 Co 0.59004 0.81533 0.13115 0.0
Co886 Co 0.62301 0.87844 0.1749 0.0
O887 O 0.59728 0.86417 0.14308 0.0
C888 C 0.62876 0.85101 0.08796 0.0
O889 O 0.6495 0.86366 0.10673 0.0
C890 C 0.5507 0.90646 0.18123 0.0
O891 O 0.54016 0.87391 0.17572 0.0
O892 O 0.59856 0.8412 0.19658 0.0
O893 O 0.57837 0.79937 0.16811 0.0
H894 H 0.69488 0.85878 0.25791 0.0
H895 H 0.5526 0.87477 0.10408 0.0
O896 O 0.60275 0.8306 0.094 0.0
H897 H 0.45769 0.79718 0.13959 0.0
H898 H 0.54661 0.72248 0.06653 0.0
H899 H 0.60902 0.74345 0.15139 0.0
H900 H 0.52095 0.7812 0.14544 0.0
H901 H 0.55567 0.78369 0.08329 0.0
O902 O 0.58388 0.91337 0.18289 0.0
H903 H 0.66268 0.84055 0.21733 0.0
H904 H 0.63665 0.94852 0.20095 0.0
H905 H 0.60039 0.68181 0.1355 0.0
H906 H 0.4897 0.89171 0.0977 0.0
H907 H 0.56895 0.67102 0.09276 0.0
H908 H 0.44176 0.85286 0.11564 0.0
O909 O 0.64065 0.80304 0.13796 0.0
H910 H 0.62999 0.97767 0.10788 0.0
H911 H 0.69878 0.90055 0.16842 0.0
H912 H 0.73031 0.94457 0.14054 0.0
H913 H 0.69584 0.98352 0.11 0.0
H914 H 0.59958 0.93308 0.13592 0.0
H915 H 0.66834 0.96792 0.24146 0.0
H916 H 0.69789 0.92289 0.27018 0.0
O917 O 0.6621 0.84372 0.16695 0.0
C918 C 0.58342 0.81138 0.1916 0.0
C919 C 0.68223 0.87866 0.24551 0.0
C920 C 0.66729 0.93992 0.2363 0.0
N921 N 0.6481 0.89348 0.20669 0.0
C922 C 0.66405 0.86851 0.22247 0.0
C923 C 0.64932 0.92877 0.21342 0.0
C924 C 0.68387 0.91463 0.2524 0.0
C925 C 0.53187 0.85751 0.11165 0.0
N926 N 0.54041 0.82692 0.12495 0.0
C927 C 0.49631 0.86732 0.10809 0.0
C928 C 0.46942 0.84554 0.1182 0.0
C929 C 0.47835 0.81431 0.13165 0.0
C930 C 0.5142 0.8054 0.13491 0.0
C931 C 0.56027 0.72683 0.08521 0.0
C932 C 0.59513 0.73895 0.13288 0.0
C933 C 0.56551 0.76141 0.09478 0.0
N934 N 0.58258 0.76708 0.11842 0.0
C935 C 0.5904 0.70399 0.12394 0.0
C936 C 0.5728 0.69796 0.09994 0.0
C937 C 0.66531 0.81571 0.15266 0.0
C938 C 0.64529 0.96093 0.12117 0.0
C939 C 0.68362 0.91738 0.15516 0.0
C940 C 0.7016 0.9423 0.13946 0.0
C941 C 0.68224 0.96416 0.12234 0.0
N942 N 0.64737 0.91436 0.15389 0.0
C943 C 0.6282 0.93574 0.13719 0.0
H944 H 0.33477 0.11412 0.95794 0.0
H945 H 0.41048 0.19583 0.97993 0.0
H946 H 0.39746 0.18554 0.02686 0.0
H947 H 0.36386 0.15456 0.06154 0.0
H948 H 0.28828 0.07252 0.04014 0.0
H949 H 0.30207 0.08178 0.99302 0.0
C950 C 0.34848 0.12969 0.97297 0.0
C951 C 0.37347 0.1559 0.96531 0.0
C952 C 0.34082 0.12367 1.00001 0.0
C953 C 0.39111 0.17557 0.98516 0.0
C954 C 0.38363 0.16974 0.01203 0.0
C955 C 0.35026 0.13867 0.04662 0.0
C956 C 0.3248 0.11305 0.05442 0.0
C957 C 0.35838 0.14407 0.01966 0.0
C958 C 0.30787 0.09249 0.03474 0.0
C959 C 0.31575 0.0978 1.00779 0.0
H960 H 0.37854 0.33229 0.45591 0.0
H961 H 0.30002 0.41399 0.4704 0.0
H962 H 0.3078 0.40636 0.51842 0.0
H963 H 0.3364 0.37578 0.55629 0.0
H964 H 0.41503 0.2943 0.54112 0.0
H965 H 0.40765 0.3027 0.49336 0.0
C966 C 0.36299 0.34845 0.46951 0.0
C967 C 0.33852 0.37354 0.45949 0.0
C968 C 0.36763 0.34396 0.49702 0.0
C969 C 0.31896 0.39442 0.47752 0.0
C970 C 0.32339 0.39005 0.50499 0.0
C971 C 0.35194 0.35983 0.54255 0.0
C972 C 0.37615 0.3343 0.55239 0.0
C973 C 0.34756 0.36478 0.51498 0.0
C974 C 0.39617 0.31408 0.53422 0.0
C975 C 0.39195 0.31884 0.50685 0.0
H976 H 0.10946 0.32169 0.97716 0.0
H977 H 0.18235 0.40099 0.94687 0.0
H978 H 0.19976 0.41683 0.99211 0.0
H979 H 0.19534 0.40739 0.04063 0.0
H980 H 0.12281 0.32729 0.07041 0.0
H981 H 0.10445 0.31282 0.02534 0.0
C982 C 0.12903 0.34255 0.98044 0.0
C983 C 0.14459 0.35997 0.95858 0.0
C984 C 0.13921 0.35141 1.00657 0.0
C985 C 0.17001 0.38692 0.96328 0.0
C986 C 0.18002 0.39607 0.9892 0.0
C987 C 0.17551 0.38682 0.03723 0.0
C988 C 0.16074 0.3684 0.05899 0.0
C989 C 0.165 0.37834 0.01104 0.0
C990 C 0.13496 0.34182 0.05415 0.0
C991 C 0.12428 0.33349 0.0283 0.0
H992 H 0.15857 0.12356 0.55759 0.0
H993 H 0.0794 0.20433 0.54184 0.0
H994 H 0.08773 0.1963 0.49413 0.0
H995 H 0.11788 0.16729 0.45692 0.0
H996 H 0.19691 0.08627 0.47199 0.0
H997 H 0.18816 0.0935 0.51995 0.0
C998 C 0.14311 0.13941 0.54374 0.0
C999 C 0.11848 0.16465 0.55339 0.0
C1000 C 0.14805 0.1347 0.51621 0.0
C1001 C 0.09857 0.18477 0.53507 0.0
C1002 C 0.10334 0.18023 0.50774 0.0
C1003 C 0.13334 0.15121 0.47063 0.0
C1004 C 0.15824 0.12642 0.46081 0.0
C1005 C 0.12811 0.15544 0.4981 0.0
C1006 C 0.17766 0.10561 0.47897 0.0
C1007 C 0.17266 0.10975 0.50641 0.0
H1008 H 0.59826 0.82252 0.04359 0.0
H1009 H 0.6763 0.89995 0.06926 0.0
H1010 H 0.69067 0.91365 0.02309 0.0
H1011 H 0.68234 0.90261 0.97541 0.0
H1012 H 0.60496 0.82455 0.94968 0.0
H1013 H 0.58912 0.81229 0.99582 0.0
C1014 C 0.61829 0.84251 0.03908 0.0
C1015 C 0.63626 0.86003 0.05987 0.0
C1016 C 0.62667 0.85011 0.01245 0.0
C1017 C 0.66219 0.88585 0.05367 0.0
C1018 C 0.67043 0.89376 0.02725 0.0
C1019 C 0.66192 0.883 0.97987 0.0
C1020 C 0.64502 0.86443 0.9591 0.0
C1021 C 0.65305 0.87587 1.00648 0.0
C1022 C 0.6186 0.8391 0.96527 0.0
C1023 C 0.60945 0.83207 0.99168 0.0
H1024 H 0.62447 0.65981 0.56063 0.0
H1025 H 0.69855 0.57593 0.54086 0.0
H1026 H 0.68648 0.5849 0.49357 0.0
H1027 H 0.65613 0.61759 0.45787 0.0
H1028 H 0.58187 0.70129 0.47779 0.0
H1029 H 0.59272 0.69114 0.52505 0.0
C1030 C 0.63804 0.64348 0.546 0.0
C1031 C 0.66261 0.61743 0.55427 0.0
C1032 C 0.63094 0.64872 0.51888 0.0
C1033 C 0.6796 0.59625 0.53504 0.0
C1034 C 0.67274 0.60137 0.50799 0.0
C1035 C 0.64225 0.6336 0.47253 0.0
C1036 C 0.61839 0.66032 0.46426 0.0
C1037 C 0.64865 0.62769 0.49969 0.0
C1038 C 0.60042 0.68059 0.48356 0.0
C1039 C 0.60666 0.67486 0.51061 0.0
H1040 H 0.80934 0.59118 0.97805 0.0
H1041 H 0.89053 0.66392 0.95031 0.0
H1042 H 0.90672 0.67798 0.99608 0.0
H1043 H 0.89697 0.67086 0.04405 0.0
H1044 H 0.81538 0.59856 0.07178 0.0
H1045 H 0.80041 0.58313 0.02602 0.0
C1046 C 0.83066 0.61001 0.98201 0.0
C1047 C 0.84852 0.62657 0.96076 0.0
C1048 C 0.83978 0.61817 1.00841 0.0
C1049 C 0.87612 0.65091 0.96627 0.0
C1050 C 0.88548 0.65898 0.99246 0.0
C1051 C 0.87601 0.65163 0.04009 0.0
C1052 C 0.85725 0.63607 0.06133 0.0
C1053 C 0.86734 0.64296 0.01369 0.0
C1054 C 0.83015 0.61117 0.05582 0.0
C1055 C 0.82155 0.60226 0.02964 0.0
H1056 H 0.84086 0.88197 0.45682 0.0
H1057 H 0.91492 0.79836 0.47742 0.0
H1058 H 0.90361 0.80873 0.52458 0.0
H1059 H 0.87145 0.84018 0.55986 0.0
H1060 H 0.79751 0.92392 0.53941 0.0
H1061 H 0.81014 0.91481 0.49223 0.0
C1062 C 0.8546 0.86603 0.47161 0.0
C1063 C 0.87853 0.83926 0.46357 0.0
C1064 C 0.84793 0.87206 0.4987 0.0
C1065 C 0.89632 0.81909 0.48303 0.0
C1066 C 0.88982 0.82495 0.51002 0.0
C1067 C 0.85804 0.85646 0.54511 0.0
C1068 C 0.83334 0.8825 0.55315 0.0
C1069 C 0.86544 0.85112 0.51806 0.0
C1070 C 0.81656 0.90362 0.53376 0.0
C1071 C 0.82374 0.8984 0.50678 0.0
H1072 H 0.17669 0.27477 0.14865 0.0
H1073 H 0.27196 0.33626 0.16254 0.0
H1074 H 0.30762 0.28188 0.16348 0.0
H1075 H 0.31214 0.21682 0.15848 0.0
H1076 H 0.21719 0.1559 0.14126 0.0
H1077 H 0.18127 0.20969 0.14344 0.0
C1078 C 0.20518 0.27605 0.15217 0.0
C1079 C 0.22175 0.30925 0.15555 0.0
C1080 C 0.22571 0.24475 0.15186 0.0
C1081 C 0.25874 0.31086 0.15972 0.0
C1082 C 0.27914 0.27981 0.16028 0.0
C1083 C 0.2836 0.21533 0.15529 0.0
C1084 C 0.26753 0.18234 0.14966 0.0
C1085 C 0.263 0.2466 0.15601 0.0
C1086 C 0.23044 0.18094 0.14544 0.0
C1087 C 0.20973 0.21171 0.14676 0.0
H1088 H 0.31935 0.2354 0.64891 0.0
H1089 H 0.27487 0.34135 0.65058 0.0
H1090 H 0.21461 0.31621 0.65056 0.0
H1091 H 0.17483 0.26408 0.64932 0.0
H1092 H 0.21929 0.15814 0.65118 0.0
H1093 H 0.27957 0.18326 0.65067 0.0
C1094 C 0.29645 0.25297 0.64924 0.0
C1095 C 0.30146 0.29017 0.64946 0.0
C1096 C 0.26203 0.23831 0.64988 0.0
C1097 C 0.27162 0.31265 0.6504 0.0
C1098 C 0.23723 0.29828 0.65032 0.0
C1099 C 0.19773 0.24651 0.64959 0.0
C1100 C 0.19272 0.20932 0.65001 0.0
C1101 C 0.23215 0.26117 0.64992 0.0
C1102 C 0.22255 0.18684 0.65087 0.0
C1103 C 0.25696 0.2012 0.65049 0.0
H1104 H 0.24242 0.32328 0.36507 0.0
H1105 H 0.34266 0.26711 0.36387 0.0
H1106 H 0.311 0.21004 0.36449 0.0
H1107 H 0.25496 0.17639 0.36588 0.0
H1108 H 0.15471 0.23256 0.36454 0.0
H1109 H 0.18638 0.28962 0.36436 0.0
C1110 C 0.25736 0.29856 0.36501 0.0
C1111 C 0.29484 0.29939 0.36468 0.0
C1112 C 0.23902 0.26597 0.36491 0.0
C1113 C 0.31382 0.26715 0.36413 0.0
C1114 C 0.29574 0.23456 0.36455 0.0
C1115 C 0.24002 0.20111 0.36563 0.0
C1116 C 0.20254 0.20028 0.36548 0.0
C1117 C 0.25837 0.23369 0.36505 0.0
C1118 C 0.18356 0.23251 0.36468 0.0
C1119 C 0.20164 0.2651 0.36463 0.0
H1120 H 0.32786 0.26011 0.86392 0.0
H1121 H 0.27631 0.15814 0.87353 0.0
H1122 H 0.21781 0.18739 0.87306 0.0
H1123 H 0.18202 0.24234 0.87112 0.0
H1124 H 0.23409 0.34361 0.85849 0.0
H1125 H 0.29217 0.31421 0.85888 0.0
C1126 C 0.30379 0.24435 0.86597 0.0
C1127 C 0.30611 0.20724 0.86917 0.0
C1128 C 0.27062 0.26121 0.86514 0.0
C1129 C 0.2749 0.18682 0.87113 0.0
C1130 C 0.24162 0.20353 0.87093 0.0
C1131 C 0.20611 0.25792 0.86848 0.0
C1132 C 0.20396 0.29509 0.86508 0.0
C1133 C 0.23924 0.24075 0.86818 0.0
C1134 C 0.2352 0.31498 0.86115 0.0
C1135 C 0.26834 0.29821 0.86144 0.0
H1136 H 0.76023 0.81814 0.86647 0.0
H1137 H 0.65635 0.76891 0.86554 0.0
H1138 H 0.68369 0.70979 0.8663 0.0
H1139 H 0.73699 0.67235 0.8677 0.0
H1140 H 0.84114 0.72081 0.8651 0.0
H1141 H 0.81394 0.78026 0.86509 0.0
C1142 C 0.74369 0.7944 0.86648 0.0
C1143 C 0.7064 0.79767 0.86614 0.0
C1144 C 0.75963 0.76057 0.86623 0.0
C1145 C 0.68511 0.76689 0.8657 0.0
C1146 C 0.70072 0.73316 0.86622 0.0
C1147 C 0.75371 0.69595 0.86718 0.0
C1148 C 0.79093 0.6924 0.8667 0.0
C1149 C 0.73791 0.72973 0.86656 0.0
C1150 C 0.81238 0.72305 0.86548 0.0
C1151 C 0.79685 0.75694 0.86556 0.0
H1152 H 0.67683 0.76545 0.37285 0.0
H1153 H 0.71929 0.6587 0.37118 0.0
H1154 H 0.78001 0.68249 0.37198 0.0
H1155 H 0.8208 0.73377 0.37261 0.0
H1156 H 0.77828 0.84049 0.3705 0.0
H1157 H 0.71759 0.8167 0.37171 0.0
C1158 C 0.69942 0.74747 0.3728 0.0
C1159 C 0.6938 0.71046 0.37212 0.0
C1160 C 0.73409 0.76135 0.37252 0.0
C1161 C 0.72314 0.68732 0.3716 0.0
C1162 C 0.75777 0.70089 0.37213 0.0
C1163 C 0.7982 0.75174 0.37254 0.0
C1164 C 0.80381 0.78875 0.37162 0.0
C1165 C 0.76353 0.73786 0.37252 0.0
C1166 C 0.77446 0.81188 0.3711 0.0
C1167 C 0.73984 0.79831 0.37187 0.0
H1168 H 0.81553 0.77859 0.64908 0.0
H1169 H 0.71921 0.84069 0.64385 0.0
H1170 H 0.68338 0.78635 0.64507 0.0
H1171 H 0.67929 0.72085 0.64728 0.0
H1172 H 0.77569 0.65857 0.64852 0.0
H1173 H 0.81152 0.713 0.64922 0.0
C1174 C 0.78671 0.78016 0.64829 0.0
C1175 C 0.77007 0.81361 0.64652 0.0
C1176 C 0.76624 0.74869 0.64826 0.0
C1177 C 0.73269 0.81526 0.64512 0.0
C1178 C 0.71214 0.78419 0.64589 0.0
C1179 C 0.70812 0.71929 0.64781 0.0
C1180 C 0.72482 0.6858 0.64801 0.0
C1181 C 0.72861 0.75073 0.64742 0.0
C1182 C 0.76223 0.68407 0.64827 0.0
C1183 C 0.78274 0.71519 0.64873 0.0
H1184 H 0.82134 0.75433 0.15259 0.0
H1185 H 0.76336 0.65509 0.15636 0.0
H1186 H 0.70687 0.6877 0.15579 0.0
H1187 H 0.67431 0.74443 0.15365 0.0
H1188 H 0.73228 0.84378 0.15354 0.0
H1189 H 0.7888 0.81116 0.15331 0.0
C1190 C 0.7963 0.7399 0.15323 0.0
C1191 C 0.79632 0.70244 0.15423 0.0
C1192 C 0.76414 0.75883 0.15357 0.0
C1193 C 0.76385 0.68396 0.1556 0.0
C1194 C 0.73165 0.70256 0.1552 0.0
C1195 C 0.69935 0.75887 0.15351 0.0
C1196 C 0.69933 0.79634 0.15331 0.0
C1197 C 0.73152 0.73997 0.15407 0.0
C1198 C 0.73181 0.81489 0.15369 0.0
C1199 C 0.76402 0.79628 0.15349 0.0
H1200 H 0.24642 0.0668 0.31065 0.0
H1201 H 0.14384 0.08638 0.27464 0.0
H1202 H 0.16928 0.07756 0.23061 0.0
H1203 H 0.22189 0.07096 0.20199 0.0
H1204 H 0.32503 0.05532 0.23786 0.0
H1205 H 0.2981 0.05518 0.28204 0.0
C1206 C 0.2295 0.06863 0.29322 0.0
C1207 C 0.19336 0.07769 0.29606 0.0
C1208 C 0.24445 0.06427 0.26778 0.0
C1209 C 0.17188 0.07989 0.27314 0.0
C1210 C 0.18637 0.07479 0.24786 0.0
C1211 C 0.2383 0.06662 0.21942 0.0
C1212 C 0.27537 0.06328 0.21664 0.0
C1213 C 0.22281 0.06789 0.24488 0.0
C1214 C 0.29639 0.0581 0.2395 0.0
C1215 C 0.28105 0.05819 0.26479 0.0
H1216 H 0.42535 0.31797 0.74059 0.0
H1217 H 0.42824 0.22294 0.69207 0.0
H1218 H 0.43247 0.18612 0.73182 0.0
H1219 H 0.43007 0.18039 0.78032 0.0
H1220 H 0.42893 0.27509 0.82913 0.0
H1221 H 0.42984 0.31236 0.78932 0.0
C1222 C 0.42731 0.28923 0.73866 0.0
C1223 C 0.42592 0.27336 0.71326 0.0
C1224 C 0.42994 0.26804 0.76169 0.0
C1225 C 0.42897 0.23604 0.71125 0.0
C1226 C 0.43133 0.21486 0.73403 0.0
C1227 C 0.43048 0.20919 0.78232 0.0
C1228 C 0.42887 0.22482 0.80777 0.0
C1229 C 0.43102 0.23051 0.75934 0.0
C1230 C 0.42995 0.26222 0.80988 0.0
C1231 C 0.4303 0.28362 0.78707 0.0
H1232 H 0.27213 0.42303 0.20072 0.0
H1233 H 0.17115 0.4461 0.23765 0.0
H1234 H 0.19958 0.44799 0.28129 0.0
H1235 H 0.2515 0.43534 0.30945 0.0
H1236 H 0.35181 0.40857 0.27251 0.0
H1237 H 0.32538 0.41601 0.22865 0.0
C1238 C 0.25657 0.42946 0.21821 0.0
C1239 C 0.21961 0.43431 0.21594 0.0
C1240 C 0.27287 0.42917 0.24342 0.0
C1241 C 0.19969 0.44215 0.2389 0.0
C1242 C 0.21588 0.44303 0.2639 0.0
C1243 C 0.26775 0.43164 0.29184 0.0
C1244 C 0.30349 0.42094 0.29443 0.0
C1245 C 0.25222 0.43529 0.26651 0.0
C1246 C 0.32409 0.41639 0.27126 0.0
C1247 C 0.30902 0.42068 0.24606 0.0
H1248 H 0.07336 0.18456 0.74206 0.0
H1249 H 0.06431 0.27725 0.69145 0.0
H1250 H 0.0632 0.3158 0.73034 0.0
H1251 H 0.07091 0.32389 0.77834 0.0
H1252 H 0.07839 0.23169 0.82938 0.0
H1253 H 0.07339 0.19244 0.79076 0.0
C1254 C 0.07064 0.21315 0.7395 0.0
C1255 C 0.06956 0.22786 0.7137 0.0
C1256 C 0.06989 0.23539 0.76206 0.0
C1257 C 0.06556 0.26501 0.71093 0.0
C1258 C 0.06499 0.28721 0.73321 0.0
C1259 C 0.07093 0.29519 0.7811 0.0
C1260 C 0.0756 0.28083 0.80674 0.0
C1261 C 0.06809 0.27278 0.75882 0.0
C1262 C 0.075 0.24356 0.80993 0.0
C1263 C 0.07234 0.22105 0.78779 0.0
H1264 H 0.67719 0.93331 0.77759 0.0
H1265 H 0.77017 0.92084 0.82721 0.0
H1266 H 0.80865 0.92665 0.7884 0.0
H1267 H 0.81542 0.92813 0.73985 0.0
H1268 H 0.72248 0.9427 0.69039 0.0
H1269 H 0.68465 0.94379 0.7297 0.0
C1270 C 0.7059 0.93238 0.77996 0.0
C1271 C 0.72072 0.92594 0.80519 0.0
C1272 C 0.72792 0.93591 0.75756 0.0
C1273 C 0.75799 0.92548 0.80802 0.0
C1274 C 0.78006 0.92867 0.78579 0.0
C1275 C 0.78696 0.93214 0.73766 0.0
C1276 C 0.77181 0.93451 0.71211 0.0
C1277 C 0.76525 0.9328 0.76038 0.0
C1278 C 0.73493 0.94036 0.70973 0.0
C1279 C 0.71317 0.94086 0.73223 0.0
H1280 H 0.56966 0.69059 0.27775 0.0
H1281 H 0.57208 0.78209 0.32989 0.0
H1282 H 0.57102 0.82188 0.29166 0.0
H1283 H 0.57551 0.83074 0.24345 0.0
H1284 H 0.57064 0.73951 0.19117 0.0
H1285 H 0.56605 0.69982 0.2294 0.0
C1286 C 0.5695 0.71924 0.28077 0.0
C1287 C 0.57163 0.73321 0.3067 0.0
C1288 C 0.56863 0.74213 0.25865 0.0
C1289 C 0.57079 0.77045 0.31022 0.0
C1290 C 0.57027 0.79333 0.28833 0.0
C1291 C 0.57294 0.80221 0.24037 0.0
C1292 C 0.57412 0.78817 0.21444 0.0
C1293 C 0.57014 0.77946 0.26246 0.0
C1294 C 0.57015 0.75115 0.21086 0.0
C1295 C 0.56764 0.72833 0.23275 0.0
H1296 H 0.81449 0.55728 0.7801 0.0
H1297 H 0.72135 0.57187 0.82916 0.0
H1298 H 0.68334 0.5696 0.78982 0.0
H1299 H 0.6774 0.57058 0.74112 0.0
H1300 H 0.77059 0.55412 0.69232 0.0
H1301 H 0.80754 0.5496 0.73196 0.0
C1302 C 0.78582 0.55943 0.78224 0.0
C1303 C 0.77088 0.56545 0.80749 0.0
C1304 C 0.7641 0.55805 0.75955 0.0
C1305 C 0.73363 0.56751 0.80997 0.0
C1306 C 0.71184 0.56637 0.78745 0.0
C1307 C 0.7057 0.56547 0.73914 0.0
C1308 C 0.72123 0.56347 0.71369 0.0
C1309 C 0.72691 0.56278 0.76207 0.0
C1310 C 0.75787 0.55619 0.71156 0.0
C1311 C 0.77913 0.55369 0.73426 0.0
H1312 H 0.92716 0.8089 0.27725 0.0
H1313 H 0.92718 0.71761 0.32964 0.0
H1314 H 0.92829 0.67768 0.29151 0.0
H1315 H 0.92285 0.66854 0.24341 0.0
H1316 H 0.92505 0.75953 0.19082 0.0
H1317 H 0.93002 0.7995 0.22888 0.0
C1318 C 0.92788 0.78028 0.28035 0.0
C1319 C 0.92637 0.76638 0.30633 0.0
C1320 C 0.92873 0.75731 0.25828 0.0
C1321 C 0.92794 0.72918 0.30994 0.0
C1322 C 0.9285 0.70622 0.2881 0.0
C1323 C 0.92494 0.69709 0.24022 0.0
C1324 C 0.92286 0.71098 0.21428 0.0
C1325 C 0.9279 0.71998 0.2622 0.0
C1326 C 0.92624 0.74802 0.21053 0.0
C1327 C 0.92895 0.77098 0.23233 0.0
H1328 H 0.45549 0.04567 0.18217 0.0
H1329 H 0.37338 0.96602 0.1714 0.0
H1330 H 0.41752 0.91896 0.17377 0.0
H1331 H 0.47915 0.89998 0.17752 0.0
H1332 H 0.56243 0.97822 0.18805 0.0
H1333 H 0.5181 0.02605 0.18739 0.0
C1334 C 0.4473 0.01801 0.18049 0.0
C1335 C 0.41112 0.00954 0.17661 0.0
C1336 C 0.47298 0.99072 0.18185 0.0
C1337 C 0.40097 0.9735 0.17446 0.0
C1338 C 0.42621 0.94642 0.17578 0.0
C1339 C 0.48771 0.92745 0.17988 0.0
C1340 C 0.52406 0.93546 0.18283 0.0
C1341 C 0.46225 0.9547 0.17931 0.0
C1342 C 0.53457 0.97127 0.18581 0.0
C1343 C 0.50925 0.99866 0.18536 0.0
H1344 H 0.60649 0.47177 0.67371 0.0
H1345 H 0.53373 0.55982 0.68351 0.0
H1346 H 0.48344 0.51822 0.68449 0.0
H1347 H 0.46001 0.45675 0.68108 0.0
H1348 H 0.53367 0.36944 0.67077 0.0
H1349 H 0.58357 0.41091 0.67153 0.0
C1350 C 0.57969 0.48197 0.67626 0.0
C1351 C 0.57398 0.51892 0.67855 0.0
C1352 C 0.55095 0.45799 0.67664 0.0
C1353 C 0.53896 0.53151 0.68174 0.0
C1354 C 0.51016 0.50773 0.68225 0.0
C1355 C 0.48699 0.44678 0.67917 0.0
C1356 C 0.49296 0.40994 0.67589 0.0
C1357 C 0.5158 0.47089 0.6795 0.0
C1358 C 0.52815 0.39757 0.67338 0.0
C1359 C 0.55681 0.42129 0.67377 0.0
H1360 H 0.03859 0.45188 0.18552 0.0
H1361 H 0.1209 0.52943 0.16885 0.0
H1362 H 0.07746 0.57724 0.17066 0.0
H1363 H 0.01628 0.59731 0.17566 0.0
H1364 H 0.93287 0.521 0.19192 0.0
H1365 H 0.9766 0.47264 0.19178 0.0
C1366 C 0.04699 0.47925 0.18242 0.0
C1367 C 0.08301 0.48692 0.17707 0.0
C1368 C 0.02173 0.50694 0.18344 0.0
C1369 C 0.09343 0.5226 0.17308 0.0
C1370 C 0.06859 0.55009 0.17407 0.0
C1371 C 0.00758 0.57016 0.1794 0.0
C1372 C 0.97135 0.56284 0.18382 0.0
C1373 C 0.0327 0.54257 0.17909 0.0
C1374 C 0.96064 0.52742 0.18851 0.0
C1375 C 0.98562 0.49973 0.18837 0.0
H1376 H 0.88748 0.02837 0.67364 0.0
H1377 H 0.96024 0.94026 0.68319 0.0
H1378 H 0.01047 0.98188 0.68483 0.0
H1379 H 0.0339 0.04339 0.68202 0.0
H1380 H 0.9603 0.13082 0.67197 0.0
H1381 H 0.9104 0.08931 0.67214 0.0
C1382 C 0.91427 0.01817 0.67628 0.0
C1383 C 0.92 0.98119 0.6783 0.0
C1384 C 0.94299 0.04217 0.67705 0.0
C1385 C 0.95499 0.96858 0.68161 0.0
C1386 C 0.98377 0.99238 0.68251 0.0
C1387 C 0.00693 0.05338 0.68006 0.0
C1388 C 0.00098 0.09026 0.67702 0.0
C1389 C 0.97812 0.02925 0.68003 0.0
C1390 C 0.9658 0.10266 0.67442 0.0
C1391 C 0.93715 0.07891 0.67446 0.0
H1392 H 0.54312 0.54621 0.3334 0.0
H1393 H 0.46244 0.62751 0.34149 0.0
H1394 H 0.41608 0.58181 0.34134 0.0
H1395 H 0.39871 0.51898 0.34093 0.0
H1396 H 0.47924 0.43738 0.33395 0.0
H1397 H 0.52551 0.48323 0.33163 0.0
C1398 C 0.51538 0.55401 0.33489 0.0
C1399 C 0.50628 0.59026 0.33744 0.0
C1400 C 0.48888 0.5276 0.33513 0.0
C1401 C 0.4702 0.59984 0.33944 0.0
C1402 C 0.44367 0.57372 0.33944 0.0
C1403 C 0.42635 0.51113 0.33871 0.0
C1404 C 0.43551 0.47479 0.33764 0.0
C1405 C 0.45275 0.53754 0.3376 0.0
C1406 C 0.47147 0.46517 0.33486 0.0
C1407 C 0.49794 0.49136 0.33353 0.0
H1408 H 0.97873 0.39295 0.84511 0.0
H1409 H 0.06097 0.46886 0.82478 0.0
H1410 H 0.01672 0.51644 0.82275 0.0
H1411 H 0.95515 0.53698 0.82869 0.0
H1412 H 0.87324 0.46093 0.84956 0.0
H1413 H 0.91697 0.41296 0.84927 0.0
C1414 C 0.987 0.41983 0.84001 0.0
C1415 C 0.02314 0.4273 0.83516 0.0
C1416 C 0.9615 0.4471 0.83904 0.0
C1417 C 0.03333 0.46234 0.82863 0.0
C1418 C 0.00805 0.4896 0.8275 0.0
C1419 C 0.94679 0.50987 0.83298 0.0
C1420 C 0.91096 0.50262 0.83917 0.0
C1421 C 0.97213 0.48236 0.83296 0.0
C1422 C 0.90062 0.46732 0.84467 0.0
C1423 C 0.92563 0.43982 0.84458 0.0
H1424 H 0.95425 0.95337 0.33364 0.0
H1425 H 0.03496 0.87203 0.34148 0.0
H1426 H 0.08125 0.91778 0.34199 0.0
H1427 H 0.09854 0.98062 0.3422 0.0
H1428 H 0.01799 0.06224 0.33545 0.0
H1429 H 0.97179 0.01639 0.33251 0.0
C1430 C 0.98198 0.94557 0.33521 0.0
C1431 C 0.99111 0.9093 0.3375 0.0
C1432 C 0.00844 0.97201 0.33583 0.0
C1433 C 0.02717 0.89973 0.33963 0.0
C1434 C 0.05367 0.92587 0.34 0.0
C1435 C 0.07092 0.98848 0.33991 0.0
C1436 C 0.06172 0.02482 0.33908 0.0
C1437 C 0.04456 0.96207 0.33842 0.0
C1438 C 0.02578 0.03445 0.33618 0.0
C1439 C -0.00064 0.00826 0.3345 0.0
H1440 H 0.60706 0.02326 0.84468 0.0
H1441 H 0.53297 0.93904 0.82501 0.0
H1442 H 0.48417 0.98194 0.82414 0.0
H1443 H 0.46205 0.04285 0.83099 0.0
H1444 H 0.53626 0.12677 0.85114 0.0
H1445 H 0.58541 0.08444 0.84966 0.0
C1446 C 0.58031 0.01429 0.83995 0.0
C1447 C 0.57372 0.97797 0.83498 0.0
C1448 C 0.55231 0.03901 0.83967 0.0
C1449 C 0.53883 0.96684 0.82896 0.0
C1450 C 0.51086 0.99134 0.8285 0.0
C1451 C 0.489 0.05193 0.83488 0.0
C1452 C 0.4954 0.08792 0.84121 0.0
C1453 C 0.51721 0.02742 0.83414 0.0
C1454 C 0.53052 0.09924 0.84616 0.0
C1455 C 0.55869 0.07504 0.84538 0.0
loop_
_geom_bond_atom_site_label_1
_geom_bond_atom_site_label_2
_geom_bond_distance
_geom_bond_site_symmetry_2
_ccdc_geom_bond_type
Co0 O2 2.143 . S
Co0 O8 2.074 . S
Co0 O11 2.093 . S
Co0 O24 2.097 . S
Co0 N41 2.151 . S
Co0 N49 2.214 . S
Co1 O2 2.160 . S
Co1 O7 2.058 . S
Co1 O17 2.057 . S
Co1 O32 2.037 . S
Co1 N36 2.145 . S
Co1 N57 2.257 . S
O2 Co0 2.143 . S
O2 Co1 2.160 . S
C3 O4 1.278 . S
C3 O11 1.224 . S
O4 C3 1.278 . S
C5 O6 1.245 . S
C5 O17 1.232 . S
O6 C5 1.245 . S
O7 Co1 2.058 . S
O7 C33 1.269 . S
O8 Co0 2.074 . S
O8 C33 1.257 . S
H9 C34 0.930 . S
H10 C40 0.930 . S
O11 Co0 2.093 . S
O11 C3 1.224 . S
H12 C44 0.929 . S
H13 C46 0.930 . S
H14 C47 0.930 . S
H15 C45 0.929 . S
H16 C48 0.928 . S
O17 Co1 2.057 . S
O17 C5 1.232 . S
H18 C37 0.929 . S
H19 C38 0.929 . S
H20 C50 0.931 . S
H21 C42 0.929 . S
H22 C51 0.930 . S
H23 C43 0.931 . S
O24 Co0 2.097 . S
O24 C52 1.214 . S
H25 C53 0.929 . S
H26 C54 0.929 . S
H27 C55 0.930 . S
H28 C56 0.929 . S
H29 C58 0.930 . S
H30 C35 0.930 . S
H31 C39 0.930 . S
O32 Co1 2.037 . S
O32 C52 1.234 . S
C33 O7 1.269 . S
C33 O8 1.257 . S
C34 H9 0.930 . S
C34 C37 1.388 . S
C34 C39 1.418 . S
C35 H30 0.930 . S
C35 C38 1.404 . S
C35 C39 1.353 . S
N36 Co1 2.145 . S
N36 C37 1.397 . S
N36 C38 1.334 . S
C37 H18 0.929 . S
C37 C34 1.388 . S
C37 N36 1.397 . S
C38 H19 0.929 . S
C38 C35 1.404 . S
C38 N36 1.334 . S
C39 H31 0.930 . S
C39 C34 1.418 . S
C39 C35 1.353 . S
C40 H10 0.930 . S
C40 N41 1.330 . S
C40 C42 1.446 1_545 S
N41 Co0 2.151 . S
N41 C40 1.330 . S
N41 C45 1.418 . S
C42 H21 0.929 . S
C42 C40 1.446 1_565 S
C42 C43 1.332 . S
C43 H23 0.931 . S
C43 C42 1.332 . S
C43 C44 1.267 . S
C44 H12 0.929 . S
C44 C43 1.267 . S
C44 C45 1.251 1_565 S
C45 H15 0.929 . S
C45 N41 1.418 . S
C45 C44 1.251 1_545 S
C46 H13 0.930 . S
C46 C48 1.406 . S
C46 C51 1.261 . S
C47 H14 0.930 . S
C47 N49 1.325 . S
C47 C50 1.357 . S
C48 H16 0.928 . S
C48 C46 1.406 . S
C48 N49 1.261 . S
N49 Co0 2.214 . S
N49 C47 1.325 . S
N49 C48 1.261 . S
C50 H20 0.931 . S
C50 C47 1.357 . S
C50 C51 1.312 . S
C51 H22 0.930 . S
C51 C46 1.261 . S
C51 C50 1.312 . S
C52 O24 1.214 . S
C52 O32 1.234 . S
C53 H25 0.929 . S
C53 C56 1.391 . S
C53 C58 1.391 . S
C54 H26 0.929 . S
C54 C55 1.390 . S
C54 N57 1.391 . S
C55 H27 0.930 . S
C55 C54 1.390 . S
C55 C56 1.392 . S
C56 H28 0.929 . S
C56 C53 1.391 . S
C56 C55 1.392 . S
N57 Co1 2.257 . S
N57 C54 1.391 . S
N57 C58 1.388 . S
C58 H29 0.930 . S
C58 C53 1.391 . S
C58 N57 1.388 . S
Co59 O61 2.143 . S
Co59 O67 2.074 . S
Co59 O70 2.093 . S
Co59 O83 2.097 . S
Co59 N100 2.151 . S
Co59 N108 2.214 . S
Co60 O61 2.160 . S
Co60 O66 2.058 . S
Co60 O76 2.057 . S
Co60 O91 2.037 . S
Co60 N95 2.145 . S
Co60 N116 2.257 . S
O61 Co59 2.143 . S
O61 Co60 2.160 . S
C62 O63 1.278 . S
C62 O70 1.224 . S
O63 C62 1.278 . S
C64 O65 1.245 . S
C64 O76 1.232 . S
O65 C64 1.245 . S
O66 Co60 2.058 . S
O66 C92 1.269 . S
O67 Co59 2.074 . S
O67 C92 1.257 . S
H68 C93 0.930 . S
H69 C99 0.930 . S
O70 Co59 2.093 . S
O70 C62 1.224 . S
H71 C103 0.929 . S
H72 C105 0.930 . S
H73 C106 0.930 . S
H74 C104 0.929 . S
H75 C107 0.928 . S
O76 Co60 2.057 . S
O76 C64 1.232 . S
H77 C96 0.929 . S
H78 C97 0.929 . S
H79 C109 0.931 . S
H80 C101 0.929 . S
H81 C110 0.930 . S
H82 C102 0.931 . S
O83 Co59 2.097 . S
O83 C111 1.214 . S
H84 C112 0.929 . S
H85 C113 0.929 . S
H86 C114 0.930 . S
H87 C115 0.929 . S
H88 C117 0.930 . S
H89 C94 0.930 . S
H90 C98 0.930 . S
O91 Co60 2.037 . S
O91 C111 1.234 . S
C92 O66 1.269 . S
C92 O67 1.257 . S
C93 H68 0.930 . S
C93 C96 1.388 . S
C93 C98 1.418 . S
C94 H89 0.930 . S
C94 C97 1.404 . S
C94 C98 1.353 . S
N95 Co60 2.145 . S
N95 C96 1.397 . S
N95 C97 1.334 . S
C96 H77 0.929 . S
C96 C93 1.388 . S
C96 N95 1.397 . S
C97 H78 0.929 . S
C97 C94 1.404 . S
C97 N95 1.334 . S
C98 H90 0.930 . S
C98 C93 1.418 . S
C98 C94 1.353 . S
C99 H69 0.930 . S
C99 N100 1.330 . S
C99 C101 1.446 . S
N100 Co59 2.151 . S
N100 C99 1.330 . S
N100 C104 1.418 . S
C101 H80 0.929 . S
C101 C99 1.446 . S
C101 C102 1.332 . S
C102 H82 0.931 . S
C102 C101 1.332 . S
C102 C103 1.267 . S
C103 H71 0.929 . S
C103 C102 1.267 . S
C103 C104 1.251 . S
C104 H74 0.929 . S
C104 N100 1.418 . S
C104 C103 1.251 . S
C105 H72 0.930 . S
C105 C107 1.406 . S
C105 C110 1.261 . S
C106 H73 0.930 . S
C106 N108 1.325 . S
C106 C109 1.357 . S
C107 H75 0.928 . S
C107 C105 1.406 . S
C107 N108 1.261 . S
N108 Co59 2.214 . S
N108 C106 1.325 . S
N108 C107 1.261 . S
C109 H79 0.931 . S
C109 C106 1.357 . S
C109 C110 1.312 . S
C110 H81 0.930 . S
C110 C105 1.261 . S
C110 C109 1.312 . S
C111 O83 1.214 . S
C111 O91 1.234 . S
C112 H84 0.929 . S
C112 C115 1.391 . S
C112 C117 1.391 . S
C113 H85 0.929 . S
C113 C114 1.390 . S
C113 N116 1.391 . S
C114 H86 0.930 . S
C114 C113 1.390 . S
C114 C115 1.392 . S
C115 H87 0.929 . S
C115 C112 1.391 . S
C115 C114 1.392 . S
N116 Co60 2.257 . S
N116 C113 1.391 . S
N116 C117 1.388 . S
C117 H88 0.930 . S
C117 C112 1.391 . S
C117 N116 1.388 . S
Co118 O120 2.143 . S
Co118 O126 2.074 . S
Co118 O129 2.093 . S
Co118 O142 2.097 . S
Co118 N159 2.151 . S
Co118 N167 2.214 . S
Co119 O120 2.160 . S
Co119 O125 2.058 . S
Co119 O135 2.057 . S
Co119 O150 2.037 . S
Co119 N154 2.145 . S
Co119 N175 2.257 . S
O120 Co118 2.143 . S
O120 Co119 2.160 . S
C121 O122 1.278 . S
C121 O129 1.224 . S
O122 C121 1.278 . S
C123 O124 1.245 . S
C123 O135 1.232 . S
O124 C123 1.245 . S
O125 Co119 2.058 . S
O125 C151 1.269 . S
O126 Co118 2.074 . S
O126 C151 1.257 . S
H127 C152 0.930 . S
H128 C158 0.930 . S
O129 Co118 2.093 . S
O129 C121 1.224 . S
H130 C162 0.929 . S
H131 C164 0.930 . S
H132 C165 0.930 . S
H133 C163 0.929 . S
H134 C166 0.928 . S
O135 Co119 2.057 . S
O135 C123 1.232 . S
H136 C155 0.929 . S
H137 C156 0.929 . S
H138 C168 0.931 . S
H139 C160 0.929 . S
H140 C169 0.930 . S
H141 C161 0.931 . S
O142 Co118 2.097 . S
O142 C170 1.214 . S
H143 C171 0.929 . S
H144 C172 0.929 . S
H145 C173 0.930 . S
H146 C174 0.929 . S
H147 C176 0.930 . S
H148 C153 0.930 . S
H149 C157 0.930 . S
O150 Co119 2.037 . S
O150 C170 1.234 . S
C151 O125 1.269 . S
C151 O126 1.257 . S
C152 H127 0.930 . S
C152 C155 1.388 . S
C152 C157 1.418 . S
C153 H148 0.930 . S
C153 C156 1.404 . S
C153 C157 1.353 . S
N154 Co119 2.145 . S
N154 C155 1.397 . S
N154 C156 1.334 . S
C155 H136 0.929 . S
C155 C152 1.388 . S
C155 N154 1.397 . S
C156 H137 0.929 . S
C156 C153 1.404 . S
C156 N154 1.334 . S
C157 H149 0.930 . S
C157 C152 1.418 . S
C157 C153 1.353 . S
C158 H128 0.930 . S
C158 N159 1.330 . S
C158 C160 1.446 . S
N159 Co118 2.151 . S
N159 C158 1.330 . S
N159 C163 1.418 . S
C160 H139 0.929 . S
C160 C158 1.446 . S
C160 C161 1.332 . S
C161 H141 0.931 . S
C161 C160 1.332 . S
C161 C162 1.267 . S
C162 H130 0.929 . S
C162 C161 1.267 . S
C162 C163 1.251 . S
C163 H133 0.929 . S
C163 N159 1.418 . S
C163 C162 1.251 . S
C164 H131 0.930 . S
C164 C166 1.406 . S
C164 C169 1.261 . S
C165 H132 0.930 . S
C165 N167 1.325 . S
C165 C168 1.357 . S
C166 H134 0.928 . S
C166 C164 1.406 . S
C166 N167 1.261 . S
N167 Co118 2.214 . S
N167 C165 1.325 . S
N167 C166 1.261 . S
C168 H138 0.931 . S
C168 C165 1.357 . S
C168 C169 1.312 . S
C169 H140 0.930 . S
C169 C164 1.261 . S
C169 C168 1.312 . S
C170 O142 1.214 . S
C170 O150 1.234 . S
C171 H143 0.929 . S
C171 C174 1.391 . S
C171 C176 1.391 . S
C172 H144 0.929 . S
C172 C173 1.390 . S
C172 N175 1.391 . S
C173 H145 0.930 . S
C173 C172 1.390 . S
C173 C174 1.392 . S
C174 H146 0.929 . S
C174 C171 1.391 . S
C174 C173 1.392 . S
N175 Co119 2.257 . S
N175 C172 1.391 . S
N175 C176 1.388 . S
C176 H147 0.930 . S
C176 C171 1.391 . S
C176 N175 1.388 . S
Co177 O179 2.143 . S
Co177 O185 2.074 . S
Co177 O188 2.093 . S
Co177 O201 2.097 . S
Co177 N218 2.151 . S
Co177 N226 2.214 . S
Co178 O179 2.160 . S
Co178 O184 2.058 . S
Co178 O194 2.057 . S
Co178 O209 2.037 . S
Co178 N213 2.145 . S
Co178 N234 2.257 . S
O179 Co177 2.143 . S
O179 Co178 2.160 . S
C180 O181 1.278 . S
C180 O188 1.224 . S
O181 C180 1.278 . S
C182 O183 1.245 . S
C182 O194 1.232 . S
O183 C182 1.245 . S
O184 Co178 2.058 . S
O184 C210 1.269 . S
O185 Co177 2.074 . S
O185 C210 1.257 . S
H186 C211 0.930 . S
H187 C217 0.930 . S
O188 Co177 2.093 . S
O188 C180 1.224 . S
H189 C221 0.929 . S
H190 C223 0.930 . S
H191 C224 0.930 . S
H192 C222 0.929 . S
H193 C225 0.928 . S
O194 Co178 2.057 . S
O194 C182 1.232 . S
H195 C214 0.929 . S
H196 C215 0.929 . S
H197 C227 0.931 . S
H198 C219 0.929 . S
H199 C228 0.930 . S
H200 C220 0.931 . S
O201 Co177 2.097 . S
O201 C229 1.214 . S
H202 C230 0.929 . S
H203 C231 0.929 . S
H204 C232 0.930 . S
H205 C233 0.929 . S
H206 C235 0.930 . S
H207 C212 0.930 . S
H208 C216 0.930 . S
O209 Co178 2.037 . S
O209 C229 1.234 . S
C210 O184 1.269 . S
C210 O185 1.257 . S
C211 H186 0.930 . S
C211 C214 1.388 . S
C211 C216 1.418 . S
C212 H207 0.930 . S
C212 C215 1.404 . S
C212 C216 1.353 . S
N213 Co178 2.145 . S
N213 C214 1.397 . S
N213 C215 1.334 . S
C214 H195 0.929 . S
C214 C211 1.388 . S
C214 N213 1.397 . S
C215 H196 0.929 . S
C215 C212 1.404 . S
C215 N213 1.334 . S
C216 H208 0.930 . S
C216 C211 1.418 . S
C216 C212 1.353 . S
C217 H187 0.930 . S
C217 N218 1.330 . S
C217 C219 1.446 1_455 S
N218 Co177 2.151 . S
N218 C217 1.330 . S
N218 C222 1.418 . S
C219 H198 0.929 . S
C219 C217 1.446 1_655 S
C219 C220 1.332 . S
C220 H200 0.931 . S
C220 C219 1.332 . S
C220 C221 1.267 . S
C221 H189 0.929 . S
C221 C220 1.267 . S
C221 C222 1.251 1_655 S
C222 H192 0.929 . S
C222 N218 1.418 . S
C222 C221 1.251 1_455 S
C223 H190 0.930 . S
C223 C225 1.406 . S
C223 C228 1.261 . S
C224 H191 0.930 . S
C224 N226 1.325 . S
C224 C227 1.357 . S
C225 H193 0.928 . S
C225 C223 1.406 . S
C225 N226 1.261 . S
N226 Co177 2.214 . S
N226 C224 1.325 . S
N226 C225 1.261 . S
C227 H197 0.931 . S
C227 C224 1.357 . S
C227 C228 1.312 . S
C228 H199 0.930 . S
C228 C223 1.261 . S
C228 C227 1.312 . S
C229 O201 1.214 . S
C229 O209 1.234 . S
C230 H202 0.929 . S
C230 C233 1.391 . S
C230 C235 1.391 . S
C231 H203 0.929 . S
C231 C232 1.390 . S
C231 N234 1.391 . S
C232 H204 0.930 . S
C232 C231 1.390 . S
C232 C233 1.392 . S
C233 H205 0.929 . S
C233 C230 1.391 . S
C233 C232 1.392 . S
N234 Co178 2.257 . S
N234 C231 1.391 . S
N234 C235 1.388 . S
C235 H206 0.930 . S
C235 C230 1.391 . S
C235 N234 1.388 . S
Co236 O238 2.143 . S
Co236 O244 2.074 . S
Co236 O247 2.093 . S
Co236 O260 2.097 . S
Co236 N277 2.151 . S
Co236 N285 2.214 . S
Co237 O238 2.160 . S
Co237 O243 2.058 . S
Co237 O253 2.057 . S
Co237 O268 2.037 . S
Co237 N272 2.145 . S
Co237 N293 2.257 . S
O238 Co236 2.143 . S
O238 Co237 2.160 . S
C239 O240 1.278 . S
C239 O247 1.224 . S
O240 C239 1.278 . S
C241 O242 1.245 . S
C241 O253 1.232 . S
O242 C241 1.245 . S
O243 Co237 2.058 . S
O243 C269 1.269 . S
O244 Co236 2.074 . S
O244 C269 1.257 . S
H245 C270 0.930 . S
H246 C276 0.930 . S
O247 Co236 2.093 . S
O247 C239 1.224 . S
H248 C280 0.929 . S
H249 C282 0.930 . S
H250 C283 0.930 . S
H251 C281 0.929 . S
H252 C284 0.928 . S
O253 Co237 2.057 . S
O253 C241 1.232 . S
H254 C273 0.929 . S
H255 C274 0.929 . S
H256 C286 0.931 . S
H257 C278 0.929 . S
H258 C287 0.930 . S
H259 C279 0.931 . S
O260 Co236 2.097 . S
O260 C288 1.214 . S
H261 C289 0.929 . S
H262 C290 0.929 . S
H263 C291 0.930 . S
H264 C292 0.929 . S
H265 C294 0.930 . S
H266 C271 0.930 . S
H267 C275 0.930 . S
O268 Co237 2.037 . S
O268 C288 1.234 . S
C269 O243 1.269 . S
C269 O244 1.257 . S
C270 H245 0.930 . S
C270 C273 1.388 . S
C270 C275 1.418 . S
C271 H266 0.930 . S
C271 C274 1.404 . S
C271 C275 1.353 . S
N272 Co237 2.145 . S
N272 C273 1.397 . S
N272 C274 1.334 . S
C273 H254 0.929 . S
C273 C270 1.388 . S
C273 N272 1.397 . S
C274 H255 0.929 . S
C274 C271 1.404 . S
C274 N272 1.334 . S
C275 H267 0.930 . S
C275 C270 1.418 . S
C275 C271 1.353 . S
C276 H246 0.930 . S
C276 N277 1.330 . S
C276 C278 1.446 . S
N277 Co236 2.151 . S
N277 C276 1.330 . S
N277 C281 1.418 . S
C278 H257 0.929 . S
C278 C276 1.446 . S
C278 C279 1.332 . S
C279 H259 0.931 . S
C279 C278 1.332 . S
C279 C280 1.267 . S
C280 H248 0.929 . S
C280 C279 1.267 . S
C280 C281 1.251 . S
C281 H251 0.929 . S
C281 N277 1.418 . S
C281 C280 1.251 . S
C282 H249 0.930 . S
C282 C284 1.406 . S
C282 C287 1.261 . S
C283 H250 0.930 . S
C283 N285 1.325 . S
C283 C286 1.357 . S
C284 H252 0.928 . S
C284 C282 1.406 . S
C284 N285 1.261 . S
N285 Co236 2.214 . S
N285 C283 1.325 . S
N285 C284 1.261 . S
C286 H256 0.931 . S
C286 C283 1.357 . S
C286 C287 1.312 . S
C287 H258 0.930 . S
C287 C282 1.261 . S
C287 C286 1.312 . S
C288 O260 1.214 . S
C288 O268 1.234 . S
C289 H261 0.929 . S
C289 C292 1.391 . S
C289 C294 1.391 . S
C290 H262 0.929 . S
C290 C291 1.390 . S
C290 N293 1.391 . S
C291 H263 0.930 . S
C291 C290 1.390 . S
C291 C292 1.392 . S
C292 H264 0.929 . S
C292 C289 1.391 . S
C292 C291 1.392 . S
N293 Co237 2.257 . S
N293 C290 1.391 . S
N293 C294 1.388 . S
C294 H265 0.930 . S
C294 C289 1.391 . S
C294 N293 1.388 . S
Co295 O297 2.143 . S
Co295 O303 2.074 . S
Co295 O306 2.093 . S
Co295 O319 2.097 . S
Co295 N336 2.151 . S
Co295 N344 2.214 . S
Co296 O297 2.160 . S
Co296 O302 2.058 . S
Co296 O312 2.057 . S
Co296 O327 2.037 . S
Co296 N331 2.145 . S
Co296 N352 2.257 . S
O297 Co295 2.143 . S
O297 Co296 2.160 . S
C298 O299 1.278 . S
C298 O306 1.224 . S
O299 C298 1.278 . S
C300 O301 1.245 . S
C300 O312 1.232 . S
O301 C300 1.245 . S
O302 Co296 2.058 . S
O302 C328 1.269 . S
O303 Co295 2.074 . S
O303 C328 1.257 . S
H304 C329 0.930 . S
H305 C335 0.930 . S
O306 Co295 2.093 . S
O306 C298 1.224 . S
H307 C339 0.929 . S
H308 C341 0.930 . S
H309 C342 0.930 . S
H310 C340 0.929 . S
H311 C343 0.928 . S
O312 Co296 2.057 . S
O312 C300 1.232 . S
H313 C332 0.929 . S
H314 C333 0.929 . S
H315 C345 0.931 . S
H316 C337 0.929 . S
H317 C346 0.930 . S
H318 C338 0.931 . S
O319 Co295 2.097 . S
O319 C347 1.214 . S
H320 C348 0.929 . S
H321 C349 0.929 . S
H322 C350 0.930 . S
H323 C351 0.929 . S
H324 C353 0.930 . S
H325 C330 0.930 . S
H326 C334 0.930 . S
O327 Co296 2.037 . S
O327 C347 1.234 . S
C328 O302 1.269 . S
C328 O303 1.257 . S
C329 H304 0.930 . S
C329 C332 1.388 . S
C329 C334 1.418 . S
C330 H325 0.930 . S
C330 C333 1.404 . S
C330 C334 1.353 . S
N331 Co296 2.145 . S
N331 C332 1.397 . S
N331 C333 1.334 . S
C332 H313 0.929 . S
C332 C329 1.388 . S
C332 N331 1.397 . S
C333 H314 0.929 . S
C333 C330 1.404 . S
C333 N331 1.334 . S
C334 H326 0.930 . S
C334 C329 1.418 . S
C334 C330 1.353 . S
C335 H305 0.930 . S
C335 N336 1.330 . S
C335 C337 1.446 1_455 S
N336 Co295 2.151 . S
N336 C335 1.330 . S
N336 C340 1.418 . S
C337 H316 0.929 . S
C337 C335 1.446 1_655 S
C337 C338 1.332 . S
C338 H318 0.931 . S
C338 C337 1.332 . S
C338 C339 1.267 . S
C339 H307 0.929 . S
C339 C338 1.267 . S
C339 C340 1.251 1_655 S
C340 H310 0.929 . S
C340 N336 1.418 . S
C340 C339 1.251 1_455 S
C341 H308 0.930 . S
C341 C343 1.406 . S
C341 C346 1.261 . S
C342 H309 0.930 . S
C342 N344 1.325 . S
C342 C345 1.357 . S
C343 H311 0.928 . S
C343 C341 1.406 . S
C343 N344 1.261 . S
N344 Co295 2.214 . S
N344 C342 1.325 . S
N344 C343 1.261 . S
C345 H315 0.931 . S
C345 C342 1.357 . S
C345 C346 1.312 . S
C346 H317 0.930 . S
C346 C341 1.261 . S
C346 C345 1.312 . S
C347 O319 1.214 . S
C347 O327 1.234 . S
C348 H320 0.929 . S
C348 C351 1.391 . S
C348 C353 1.391 . S
C349 H321 0.929 . S
C349 C350 1.390 . S
C349 N352 1.391 . S
C350 H322 0.930 . S
C350 C349 1.390 . S
C350 C351 1.392 . S
C351 H323 0.929 . S
C351 C348 1.391 . S
C351 C350 1.392 . S
N352 Co296 2.257 . S
N352 C349 1.391 . S
N352 C353 1.388 . S
C353 H324 0.930 . S
C353 C348 1.391 . S
C353 N352 1.388 . S
Co354 O356 2.143 . S
Co354 O362 2.074 . S
Co354 O365 2.093 . S
Co354 O378 2.097 . S
Co354 N395 2.151 . S
Co354 N403 2.214 . S
Co355 O356 2.160 . S
Co355 O361 2.058 . S
Co355 O371 2.057 . S
Co355 O386 2.037 . S
Co355 N390 2.145 . S
Co355 N411 2.257 . S
O356 Co354 2.143 . S
O356 Co355 2.160 . S
C357 O358 1.278 . S
C357 O365 1.224 . S
O358 C357 1.278 . S
C359 O360 1.245 . S
C359 O371 1.232 . S
O360 C359 1.245 . S
O361 Co355 2.058 . S
O361 C387 1.269 . S
O362 Co354 2.074 . S
O362 C387 1.257 . S
H363 C388 0.930 . S
H364 C394 0.930 . S
O365 Co354 2.093 . S
O365 C357 1.224 . S
H366 C398 0.929 . S
H367 C400 0.930 . S
H368 C401 0.930 . S
H369 C399 0.929 . S
H370 C402 0.928 . S
O371 Co355 2.057 . S
O371 C359 1.232 . S
H372 C391 0.929 . S
H373 C392 0.929 . S
H374 C404 0.931 . S
H375 C396 0.929 . S
H376 C405 0.930 . S
H377 C397 0.931 . S
O378 Co354 2.097 . S
O378 C406 1.214 . S
H379 C407 0.929 . S
H380 C408 0.929 . S
H381 C409 0.930 . S
H382 C410 0.929 . S
H383 C412 0.930 . S
H384 C389 0.930 . S
H385 C393 0.930 . S
O386 Co355 2.037 . S
O386 C406 1.234 . S
C387 O361 1.269 . S
C387 O362 1.257 . S
C388 H363 0.930 . S
C388 C391 1.388 . S
C388 C393 1.418 . S
C389 H384 0.930 . S
C389 C392 1.404 . S
C389 C393 1.353 . S
N390 Co355 2.145 . S
N390 C391 1.397 . S
N390 C392 1.334 . S
C391 H372 0.929 . S
C391 C388 1.388 . S
C391 N390 1.397 . S
C392 H373 0.929 . S
C392 C389 1.404 . S
C392 N390 1.334 . S
C393 H385 0.930 . S
C393 C388 1.418 . S
C393 C389 1.353 . S
C394 H364 0.930 . S
C394 N395 1.330 . S
C394 C396 1.446 1_545 S
N395 Co354 2.151 . S
N395 C394 1.330 . S
N395 C399 1.418 . S
C396 H375 0.929 . S
C396 C394 1.446 1_565 S
C396 C397 1.332 . S
C397 H377 0.931 . S
C397 C396 1.332 . S
C397 C398 1.267 . S
C398 H366 0.929 . S
C398 C397 1.267 . S
C398 C399 1.251 1_565 S
C399 H369 0.929 . S
C399 N395 1.418 . S
C399 C398 1.251 1_545 S
C400 H367 0.930 . S
C400 C402 1.406 . S
C400 C405 1.261 . S
C401 H368 0.930 . S
C401 N403 1.325 . S
C401 C404 1.357 . S
C402 H370 0.928 . S
C402 C400 1.406 . S
C402 N403 1.261 . S
N403 Co354 2.214 . S
N403 C401 1.325 . S
N403 C402 1.261 . S
C404 H374 0.931 . S
C404 C401 1.357 . S
C404 C405 1.312 . S
C405 H376 0.930 . S
C405 C400 1.261 . S
C405 C404 1.312 . S
C406 O378 1.214 . S
C406 O386 1.234 . S
C407 H379 0.929 . S
C407 C410 1.391 . S
C407 C412 1.391 . S
C408 H380 0.929 . S
C408 C409 1.390 . S
C408 N411 1.391 . S
C409 H381 0.930 . S
C409 C408 1.390 . S
C409 C410 1.392 . S
C410 H382 0.929 . S
C410 C407 1.391 . S
C410 C409 1.392 . S
N411 Co355 2.257 . S
N411 C408 1.391 . S
N411 C412 1.388 . S
C412 H383 0.930 . S
C412 C407 1.391 . S
C412 N411 1.388 . S
Co413 O415 2.143 . S
Co413 O421 2.074 . S
Co413 O424 2.093 . S
Co413 O437 2.097 . S
Co413 N454 2.151 . S
Co413 N462 2.214 . S
Co414 O415 2.160 . S
Co414 O420 2.058 . S
Co414 O430 2.057 . S
Co414 O445 2.037 . S
Co414 N449 2.145 . S
Co414 N470 2.257 . S
O415 Co413 2.143 . S
O415 Co414 2.160 . S
C416 O417 1.278 . S
C416 O424 1.224 . S
O417 C416 1.278 . S
C418 O419 1.245 . S
C418 O430 1.232 . S
O419 C418 1.245 . S
O420 Co414 2.058 . S
O420 C446 1.269 . S
O421 Co413 2.074 . S
O421 C446 1.257 . S
H422 C447 0.930 . S
H423 C453 0.930 . S
O424 Co413 2.093 . S
O424 C416 1.224 . S
H425 C457 0.929 . S
H426 C459 0.930 . S
H427 C460 0.930 . S
H428 C458 0.929 . S
H429 C461 0.928 . S
O430 Co414 2.057 . S
O430 C418 1.232 . S
H431 C450 0.929 . S
H432 C451 0.929 . S
H433 C463 0.931 . S
H434 C455 0.929 . S
H435 C464 0.930 . S
H436 C456 0.931 . S
O437 Co413 2.097 . S
O437 C465 1.214 . S
H438 C466 0.929 . S
H439 C467 0.929 . S
H440 C468 0.930 . S
H441 C469 0.929 . S
H442 C471 0.930 . S
H443 C448 0.930 . S
H444 C452 0.930 . S
O445 Co414 2.037 . S
O445 C465 1.234 . S
C446 O420 1.269 . S
C446 O421 1.257 . S
C447 H422 0.930 . S
C447 C450 1.388 . S
C447 C452 1.418 . S
C448 H443 0.930 . S
C448 C451 1.404 . S
C448 C452 1.353 . S
N449 Co414 2.145 . S
N449 C450 1.397 . S
N449 C451 1.334 . S
C450 H431 0.929 . S
C450 C447 1.388 . S
C450 N449 1.397 . S
C451 H432 0.929 . S
C451 C448 1.404 . S
C451 N449 1.334 . S
C452 H444 0.930 . S
C452 C447 1.418 . S
C452 C448 1.353 . S
C453 H423 0.930 . S
C453 N454 1.330 . S
C453 C455 1.446 . S
N454 Co413 2.151 . S
N454 C453 1.330 . S
N454 C458 1.418 . S
C455 H434 0.929 . S
C455 C453 1.446 . S
C455 C456 1.332 . S
C456 H436 0.931 . S
C456 C455 1.332 . S
C456 C457 1.267 . S
C457 H425 0.929 . S
C457 C456 1.267 . S
C457 C458 1.251 . S
C458 H428 0.929 . S
C458 N454 1.418 . S
C458 C457 1.251 . S
C459 H426 0.930 . S
C459 C461 1.406 . S
C459 C464 1.261 . S
C460 H427 0.930 . S
C460 N462 1.325 . S
C460 C463 1.357 . S
C461 H429 0.928 . S
C461 C459 1.406 . S
C461 N462 1.261 . S
N462 Co413 2.214 . S
N462 C460 1.325 . S
N462 C461 1.261 . S
C463 H433 0.931 . S
C463 C460 1.357 . S
C463 C464 1.312 . S
C464 H435 0.930 . S
C464 C459 1.261 . S
C464 C463 1.312 . S
C465 O437 1.214 . S
C465 O445 1.234 . S
C466 H438 0.929 . S
C466 C469 1.391 . S
C466 C471 1.391 . S
C467 H439 0.929 . S
C467 C468 1.390 . S
C467 N470 1.391 . S
C468 H440 0.930 . S
C468 C467 1.390 . S
C468 C469 1.392 . S
C469 H441 0.929 . S
C469 C466 1.391 . S
C469 C468 1.392 . S
N470 Co414 2.257 . S
N470 C467 1.391 . S
N470 C471 1.388 . S
C471 H442 0.930 . S
C471 C466 1.391 . S
C471 N470 1.388 . S
Co472 O474 2.143 . S
Co472 O480 2.074 . S
Co472 O483 2.093 . S
Co472 O496 2.097 . S
Co472 N513 2.151 . S
Co472 N521 2.214 . S
Co473 O474 2.160 . S
Co473 O479 2.058 . S
Co473 O489 2.057 . S
Co473 O504 2.037 . S
Co473 N508 2.145 . S
Co473 N529 2.257 . S
O474 Co472 2.143 . S
O474 Co473 2.160 . S
C475 O476 1.278 . S
C475 O483 1.224 . S
O476 C475 1.278 . S
C477 O478 1.245 . S
C477 O489 1.232 . S
O478 C477 1.245 . S
O479 Co473 2.058 . S
O479 C505 1.269 . S
O480 Co472 2.074 . S
O480 C505 1.257 . S
H481 C506 0.930 . S
H482 C512 0.930 . S
O483 Co472 2.093 . S
O483 C475 1.224 . S
H484 C516 0.929 . S
H485 C518 0.930 . S
H486 C519 0.930 . S
H487 C517 0.929 . S
H488 C520 0.928 . S
O489 Co473 2.057 . S
O489 C477 1.232 . S
H490 C509 0.929 . S
H491 C510 0.929 . S
H492 C522 0.931 . S
H493 C514 0.929 . S
H494 C523 0.930 . S
H495 C515 0.931 . S
O496 Co472 2.097 . S
O496 C524 1.214 . S
H497 C525 0.929 . S
H498 C526 0.929 . S
H499 C527 0.930 . S
H500 C528 0.929 . S
H501 C530 0.930 . S
H502 C507 0.930 . S
H503 C511 0.930 . S
O504 Co473 2.037 . S
O504 C524 1.234 . S
C505 O479 1.269 . S
C505 O480 1.257 . S
C506 H481 0.930 . S
C506 C509 1.388 . S
C506 C511 1.418 . S
C507 H502 0.930 . S
C507 C510 1.404 . S
C507 C511 1.353 . S
N508 Co473 2.145 . S
N508 C509 1.397 . S
N508 C510 1.334 . S
C509 H490 0.929 . S
C509 C506 1.388 . S
C509 N508 1.397 . S
C510 H491 0.929 . S
C510 C507 1.404 . S
C510 N508 1.334 . S
C511 H503 0.930 . S
C511 C506 1.418 . S
C511 C507 1.353 . S
C512 H482 0.930 . S
C512 N513 1.330 . S
C512 C514 1.446 1_565 S
N513 Co472 2.151 . S
N513 C512 1.330 . S
N513 C517 1.418 . S
C514 H493 0.929 . S
C514 C512 1.446 1_545 S
C514 C515 1.332 . S
C515 H495 0.931 . S
C515 C514 1.332 . S
C515 C516 1.267 . S
C516 H484 0.929 . S
C516 C515 1.267 . S
C516 C517 1.251 1_545 S
C517 H487 0.929 . S
C517 N513 1.418 . S
C517 C516 1.251 1_565 S
C518 H485 0.930 . S
C518 C520 1.406 . S
C518 C523 1.261 . S
C519 H486 0.930 . S
C519 N521 1.325 . S
C519 C522 1.357 . S
C520 H488 0.928 . S
C520 C518 1.406 . S
C520 N521 1.261 . S
N521 Co472 2.214 . S
N521 C519 1.325 . S
N521 C520 1.261 . S
C522 H492 0.931 . S
C522 C519 1.357 . S
C522 C523 1.312 . S
C523 H494 0.930 . S
C523 C518 1.261 . S
C523 C522 1.312 . S
C524 O496 1.214 . S
C524 O504 1.234 . S
C525 H497 0.929 . S
C525 C528 1.391 . S
C525 C530 1.391 . S
C526 H498 0.929 . S
C526 C527 1.390 . S
C526 N529 1.391 . S
C527 H499 0.930 . S
C527 C526 1.390 . S
C527 C528 1.392 . S
C528 H500 0.929 . S
C528 C525 1.391 . S
C528 C527 1.392 . S
N529 Co473 2.257 . S
N529 C526 1.391 . S
N529 C530 1.388 . S
C530 H501 0.930 . S
C530 C525 1.391 . S
C530 N529 1.388 . S
Co531 O533 2.143 . S
Co531 O539 2.074 . S
Co531 O542 2.093 . S
Co531 O555 2.097 . S
Co531 N572 2.151 . S
Co531 N580 2.214 . S
Co532 O533 2.160 . S
Co532 O538 2.058 . S
Co532 O548 2.057 . S
Co532 O563 2.037 . S
Co532 N567 2.145 . S
Co532 N588 2.257 . S
O533 Co531 2.143 . S
O533 Co532 2.160 . S
C534 O535 1.278 . S
C534 O542 1.224 . S
O535 C534 1.278 . S
C536 O537 1.245 . S
C536 O548 1.232 . S
O537 C536 1.245 . S
O538 Co532 2.058 . S
O538 C564 1.269 . S
O539 Co531 2.074 . S
O539 C564 1.257 . S
H540 C565 0.930 . S
H541 C571 0.930 . S
O542 Co531 2.093 . S
O542 C534 1.224 . S
H543 C575 0.929 . S
H544 C577 0.930 . S
H545 C578 0.930 . S
H546 C576 0.929 . S
H547 C579 0.928 . S
O548 Co532 2.057 . S
O548 C536 1.232 . S
H549 C568 0.929 . S
H550 C569 0.929 . S
H551 C581 0.931 . S
H552 C573 0.929 . S
H553 C582 0.930 . S
H554 C574 0.931 . S
O555 Co531 2.097 . S
O555 C583 1.214 . S
H556 C584 0.929 . S
H557 C585 0.929 . S
H558 C586 0.930 . S
H559 C587 0.929 . S
H560 C589 0.930 . S
H561 C566 0.930 . S
H562 C570 0.930 . S
O563 Co532 2.037 . S
O563 C583 1.234 . S
C564 O538 1.269 . S
C564 O539 1.257 . S
C565 H540 0.930 . S
C565 C568 1.388 . S
C565 C570 1.418 . S
C566 H561 0.930 . S
C566 C569 1.404 . S
C566 C570 1.353 . S
N567 Co532 2.145 . S
N567 C568 1.397 . S
N567 C569 1.334 . S
C568 H549 0.929 . S
C568 C565 1.388 . S
C568 N567 1.397 . S
C569 H550 0.929 . S
C569 C566 1.404 . S
C569 N567 1.334 . S
C570 H562 0.930 . S
C570 C565 1.418 . S
C570 C566 1.353 . S
C571 H541 0.930 . S
C571 N572 1.330 . S
C571 C573 1.446 . S
N572 Co531 2.151 . S
N572 C571 1.330 . S
N572 C576 1.418 . S
C573 H552 0.929 . S
C573 C571 1.446 . S
C573 C574 1.332 . S
C574 H554 0.931 . S
C574 C573 1.332 . S
C574 C575 1.267 . S
C575 H543 0.929 . S
C575 C574 1.267 . S
C575 C576 1.251 . S
C576 H546 0.929 . S
C576 N572 1.418 . S
C576 C575 1.251 . S
C577 H544 0.930 . S
C577 C579 1.406 . S
C577 C582 1.261 . S
C578 H545 0.930 . S
C578 N580 1.325 . S
C578 C581 1.357 . S
C579 H547 0.928 . S
C579 C577 1.406 . S
C579 N580 1.261 . S
N580 Co531 2.214 . S
N580 C578 1.325 . S
N580 C579 1.261 . S
C581 H551 0.931 . S
C581 C578 1.357 . S
C581 C582 1.312 . S
C582 H553 0.930 . S
C582 C577 1.261 . S
C582 C581 1.312 . S
C583 O555 1.214 . S
C583 O563 1.234 . S
C584 H556 0.929 . S
C584 C587 1.391 . S
C584 C589 1.391 . S
C585 H557 0.929 . S
C585 C586 1.390 . S
C585 N588 1.391 . S
C586 H558 0.930 . S
C586 C585 1.390 . S
C586 C587 1.392 . S
C587 H559 0.929 . S
C587 C584 1.391 . S
C587 C586 1.392 . S
N588 Co532 2.257 . S
N588 C585 1.391 . S
N588 C589 1.388 . S
C589 H560 0.930 . S
C589 C584 1.391 . S
C589 N588 1.388 . S
Co590 O592 2.143 . S
Co590 O598 2.074 . S
Co590 O601 2.093 . S
Co590 O614 2.097 . S
Co590 N631 2.151 . S
Co590 N639 2.214 . S
Co591 O592 2.160 . S
Co591 O597 2.058 . S
Co591 O607 2.057 . S
Co591 O622 2.037 . S
Co591 N626 2.145 . S
Co591 N647 2.257 . S
O592 Co590 2.143 . S
O592 Co591 2.160 . S
C593 O594 1.278 . S
C593 O601 1.224 . S
O594 C593 1.278 . S
C595 O596 1.245 . S
C595 O607 1.232 . S
O596 C595 1.245 . S
O597 Co591 2.058 . S
O597 C623 1.269 . S
O598 Co590 2.074 . S
O598 C623 1.257 . S
H599 C624 0.930 . S
H600 C630 0.930 . S
O601 Co590 2.093 . S
O601 C593 1.224 . S
H602 C634 0.929 . S
H603 C636 0.930 . S
H604 C637 0.930 . S
H605 C635 0.929 . S
H606 C638 0.928 . S
O607 Co591 2.057 . S
O607 C595 1.232 . S
H608 C627 0.929 . S
H609 C628 0.929 . S
H610 C640 0.931 . S
H611 C632 0.929 . S
H612 C641 0.930 . S
H613 C633 0.931 . S
O614 Co590 2.097 . S
O614 C642 1.214 . S
H615 C643 0.929 . S
H616 C644 0.929 . S
H617 C645 0.930 . S
H618 C646 0.929 . S
H619 C648 0.930 . S
H620 C625 0.930 . S
H621 C629 0.930 . S
O622 Co591 2.037 . S
O622 C642 1.234 . S
C623 O597 1.269 . S
C623 O598 1.257 . S
C624 H599 0.930 . S
C624 C627 1.388 . S
C624 C629 1.418 . S
C625 H620 0.930 . S
C625 C628 1.404 . S
C625 C629 1.353 . S
N626 Co591 2.145 . S
N626 C627 1.397 . S
N626 C628 1.334 . S
C627 H608 0.929 . S
C627 C624 1.388 . S
C627 N626 1.397 . S
C628 H609 0.929 . S
C628 C625 1.404 . S
C628 N626 1.334 . S
C629 H621 0.930 . S
C629 C624 1.418 . S
C629 C625 1.353 . S
C630 H600 0.930 . S
C630 N631 1.330 . S
C630 C632 1.446 . S
N631 Co590 2.151 . S
N631 C630 1.330 . S
N631 C635 1.418 . S
C632 H611 0.929 . S
C632 C630 1.446 . S
C632 C633 1.332 . S
C633 H613 0.931 . S
C633 C632 1.332 . S
C633 C634 1.267 . S
C634 H602 0.929 . S
C634 C633 1.267 . S
C634 C635 1.251 . S
C635 H605 0.929 . S
C635 N631 1.418 . S
C635 C634 1.251 . S
C636 H603 0.930 . S
C636 C638 1.406 . S
C636 C641 1.261 . S
C637 H604 0.930 . S
C637 N639 1.325 . S
C637 C640 1.357 . S
C638 H606 0.928 . S
C638 C636 1.406 . S
C638 N639 1.261 . S
N639 Co590 2.214 . S
N639 C637 1.325 . S
N639 C638 1.261 . S
C640 H610 0.931 . S
C640 C637 1.357 . S
C640 C641 1.312 . S
C641 H612 0.930 . S
C641 C636 1.261 . S
C641 C640 1.312 . S
C642 O614 1.214 . S
C642 O622 1.234 . S
C643 H615 0.929 . S
C643 C646 1.391 . S
C643 C648 1.391 . S
C644 H616 0.929 . S
C644 C645 1.390 . S
C644 N647 1.391 . S
C645 H617 0.930 . S
C645 C644 1.390 . S
C645 C646 1.392 . S
C646 H618 0.929 . S
C646 C643 1.391 . S
C646 C645 1.392 . S
N647 Co591 2.257 . S
N647 C644 1.391 . S
N647 C648 1.388 . S
C648 H619 0.930 . S
C648 C643 1.391 . S
C648 N647 1.388 . S
Co649 O651 2.143 . S
Co649 O657 2.074 . S
Co649 O660 2.093 . S
Co649 O673 2.097 . S
Co649 N690 2.151 . S
Co649 N698 2.214 . S
Co650 O651 2.160 . S
Co650 O656 2.058 . S
Co650 O666 2.057 . S
Co650 O681 2.037 . S
Co650 N685 2.145 . S
Co650 N706 2.257 . S
O651 Co649 2.143 . S
O651 Co650 2.160 . S
C652 O653 1.278 . S
C652 O660 1.224 . S
O653 C652 1.278 . S
C654 O655 1.245 . S
C654 O666 1.232 . S
O655 C654 1.245 . S
O656 Co650 2.058 . S
O656 C682 1.269 . S
O657 Co649 2.074 . S
O657 C682 1.257 . S
H658 C683 0.930 . S
H659 C689 0.930 . S
O660 Co649 2.093 . S
O660 C652 1.224 . S
H661 C693 0.929 . S
H662 C695 0.930 . S
H663 C696 0.930 . S
H664 C694 0.929 . S
H665 C697 0.928 . S
O666 Co650 2.057 . S
O666 C654 1.232 . S
H667 C686 0.929 . S
H668 C687 0.929 . S
H669 C699 0.931 . S
H670 C691 0.929 . S
H671 C700 0.930 . S
H672 C692 0.931 . S
O673 Co649 2.097 . S
O673 C701 1.214 . S
H674 C702 0.929 . S
H675 C703 0.929 . S
H676 C704 0.930 . S
H677 C705 0.929 . S
H678 C707 0.930 . S
H679 C684 0.930 . S
H680 C688 0.930 . S
O681 Co650 2.037 . S
O681 C701 1.234 . S
C682 O656 1.269 . S
C682 O657 1.257 . S
C683 H658 0.930 . S
C683 C686 1.388 . S
C683 C688 1.418 . S
C684 H679 0.930 . S
C684 C687 1.404 . S
C684 C688 1.353 . S
N685 Co650 2.145 . S
N685 C686 1.397 . S
N685 C687 1.334 . S
C686 H667 0.929 . S
C686 C683 1.388 . S
C686 N685 1.397 . S
C687 H668 0.929 . S
C687 C684 1.404 . S
C687 N685 1.334 . S
C688 H680 0.930 . S
C688 C683 1.418 . S
C688 C684 1.353 . S
C689 H659 0.930 . S
C689 N690 1.330 . S
C689 C691 1.446 1_655 S
N690 Co649 2.151 . S
N690 C689 1.330 . S
N690 C694 1.418 . S
C691 H670 0.929 . S
C691 C689 1.446 1_455 S
C691 C692 1.332 . S
C692 H672 0.931 . S
C692 C691 1.332 . S
C692 C693 1.267 . S
C693 H661 0.929 . S
C693 C692 1.267 . S
C693 C694 1.251 1_455 S
C694 H664 0.929 . S
C694 N690 1.418 . S
C694 C693 1.251 1_655 S
C695 H662 0.930 . S
C695 C697 1.406 . S
C695 C700 1.261 . S
C696 H663 0.930 . S
C696 N698 1.325 . S
C696 C699 1.357 . S
C697 H665 0.928 . S
C697 C695 1.406 . S
C697 N698 1.261 . S
N698 Co649 2.214 . S
N698 C696 1.325 . S
N698 C697 1.261 . S
C699 H669 0.931 . S
C699 C696 1.357 . S
C699 C700 1.312 . S
C700 H671 0.930 . S
C700 C695 1.261 . S
C700 C699 1.312 . S
C701 O673 1.214 . S
C701 O681 1.234 . S
C702 H674 0.929 . S
C702 C705 1.391 . S
C702 C707 1.391 . S
C703 H675 0.929 . S
C703 C704 1.390 . S
C703 N706 1.391 . S
C704 H676 0.930 . S
C704 C703 1.390 . S
C704 C705 1.392 . S
C705 H677 0.929 . S
C705 C702 1.391 . S
C705 C704 1.392 . S
N706 Co650 2.257 . S
N706 C703 1.391 . S
N706 C707 1.388 . S
C707 H678 0.930 . S
C707 C702 1.391 . S
C707 N706 1.388 . S
Co708 O710 2.143 . S
Co708 O716 2.074 . S
Co708 O719 2.093 . S
Co708 O732 2.097 . S
Co708 N749 2.151 . S
Co708 N757 2.214 . S
Co709 O710 2.160 . S
Co709 O715 2.058 . S
Co709 O725 2.057 . S
Co709 O740 2.037 . S
Co709 N744 2.145 . S
Co709 N765 2.257 . S
O710 Co708 2.143 . S
O710 Co709 2.160 . S
C711 O712 1.278 . S
C711 O719 1.224 . S
O712 C711 1.278 . S
C713 O714 1.245 . S
C713 O725 1.232 . S
O714 C713 1.245 . S
O715 Co709 2.058 . S
O715 C741 1.269 . S
O716 Co708 2.074 . S
O716 C741 1.257 . S
H717 C742 0.930 . S
H718 C748 0.930 . S
O719 Co708 2.093 . S
O719 C711 1.224 . S
H720 C752 0.929 . S
H721 C754 0.930 . S
H722 C755 0.930 . S
H723 C753 0.929 . S
H724 C756 0.928 . S
O725 Co709 2.057 . S
O725 C713 1.232 . S
H726 C745 0.929 . S
H727 C746 0.929 . S
H728 C758 0.931 . S
H729 C750 0.929 . S
H730 C759 0.930 . S
H731 C751 0.931 . S
O732 Co708 2.097 . S
O732 C760 1.214 . S
H733 C761 0.929 . S
H734 C762 0.929 . S
H735 C763 0.930 . S
H736 C764 0.929 . S
H737 C766 0.930 . S
H738 C743 0.930 . S
H739 C747 0.930 . S
O740 Co709 2.037 . S
O740 C760 1.234 . S
C741 O715 1.269 . S
C741 O716 1.257 . S
C742 H717 0.930 . S
C742 C745 1.388 . S
C742 C747 1.418 . S
C743 H738 0.930 . S
C743 C746 1.404 . S
C743 C747 1.353 . S
N744 Co709 2.145 . S
N744 C745 1.397 . S
N744 C746 1.334 . S
C745 H726 0.929 . S
C745 C742 1.388 . S
C745 N744 1.397 . S
C746 H727 0.929 . S
C746 C743 1.404 . S
C746 N744 1.334 . S
C747 H739 0.930 . S
C747 C742 1.418 . S
C747 C743 1.353 . S
C748 H718 0.930 . S
C748 N749 1.330 . S
C748 C750 1.446 . S
N749 Co708 2.151 . S
N749 C748 1.330 . S
N749 C753 1.418 . S
C750 H729 0.929 . S
C750 C748 1.446 . S
C750 C751 1.332 . S
C751 H731 0.931 . S
C751 C750 1.332 . S
C751 C752 1.267 . S
C752 H720 0.929 . S
C752 C751 1.267 . S
C752 C753 1.251 . S
C753 H723 0.929 . S
C753 N749 1.418 . S
C753 C752 1.251 . S
C754 H721 0.930 . S
C754 C756 1.406 . S
C754 C759 1.261 . S
C755 H722 0.930 . S
C755 N757 1.325 . S
C755 C758 1.357 . S
C756 H724 0.928 . S
C756 C754 1.406 . S
C756 N757 1.261 . S
N757 Co708 2.214 . S
N757 C755 1.325 . S
N757 C756 1.261 . S
C758 H728 0.931 . S
C758 C755 1.357 . S
C758 C759 1.312 . S
C759 H730 0.930 . S
C759 C754 1.261 . S
C759 C758 1.312 . S
C760 O732 1.214 . S
C760 O740 1.234 . S
C761 H733 0.929 . S
C761 C764 1.391 . S
C761 C766 1.391 . S
C762 H734 0.929 . S
C762 C763 1.390 . S
C762 N765 1.391 . S
C763 H735 0.930 . S
C763 C762 1.390 . S
C763 C764 1.392 . S
C764 H736 0.929 . S
C764 C761 1.391 . S
C764 C763 1.392 . S
N765 Co709 2.257 . S
N765 C762 1.391 . S
N765 C766 1.388 . S
C766 H737 0.930 . S
C766 C761 1.391 . S
C766 N765 1.388 . S
Co767 O769 2.143 . S
Co767 O775 2.074 . S
Co767 O778 2.093 . S
Co767 O791 2.097 . S
Co767 N808 2.151 . S
Co767 N816 2.214 . S
Co768 O769 2.160 . S
Co768 O774 2.058 . S
Co768 O784 2.057 . S
Co768 O799 2.037 . S
Co768 N803 2.145 . S
Co768 N824 2.257 . S
O769 Co767 2.143 . S
O769 Co768 2.160 . S
C770 O771 1.278 . S
C770 O778 1.224 . S
O771 C770 1.278 . S
C772 O773 1.245 . S
C772 O784 1.232 . S
O773 C772 1.245 . S
O774 Co768 2.058 . S
O774 C800 1.269 . S
O775 Co767 2.074 . S
O775 C800 1.257 . S
H776 C801 0.930 . S
H777 C807 0.930 . S
O778 Co767 2.093 . S
O778 C770 1.224 . S
H779 C811 0.929 . S
H780 C813 0.930 . S
H781 C814 0.930 . S
H782 C812 0.929 . S
H783 C815 0.928 . S
O784 Co768 2.057 . S
O784 C772 1.232 . S
H785 C804 0.929 . S
H786 C805 0.929 . S
H787 C817 0.931 . S
H788 C809 0.929 . S
H789 C818 0.930 . S
H790 C810 0.931 . S
O791 Co767 2.097 . S
O791 C819 1.214 . S
H792 C820 0.929 . S
H793 C821 0.929 . S
H794 C822 0.930 . S
H795 C823 0.929 . S
H796 C825 0.930 . S
H797 C802 0.930 . S
H798 C806 0.930 . S
O799 Co768 2.037 . S
O799 C819 1.234 . S
C800 O774 1.269 . S
C800 O775 1.257 . S
C801 H776 0.930 . S
C801 C804 1.388 . S
C801 C806 1.418 . S
C802 H797 0.930 . S
C802 C805 1.404 . S
C802 C806 1.353 . S
N803 Co768 2.145 . S
N803 C804 1.397 . S
N803 C805 1.334 . S
C804 H785 0.929 . S
C804 C801 1.388 . S
C804 N803 1.397 . S
C805 H786 0.929 . S
C805 C802 1.404 . S
C805 N803 1.334 . S
C806 H798 0.930 . S
C806 C801 1.418 . S
C806 C802 1.353 . S
C807 H777 0.930 . S
C807 N808 1.330 . S
C807 C809 1.446 1_655 S
N808 Co767 2.151 . S
N808 C807 1.330 . S
N808 C812 1.418 . S
C809 H788 0.929 . S
C809 C807 1.446 1_455 S
C809 C810 1.332 . S
C810 H790 0.931 . S
C810 C809 1.332 . S
C810 C811 1.267 . S
C811 H779 0.929 . S
C811 C810 1.267 . S
C811 C812 1.251 1_455 S
C812 H782 0.929 . S
C812 N808 1.418 . S
C812 C811 1.251 1_655 S
C813 H780 0.930 . S
C813 C815 1.406 . S
C813 C818 1.261 . S
C814 H781 0.930 . S
C814 N816 1.325 . S
C814 C817 1.357 . S
C815 H783 0.928 . S
C815 C813 1.406 . S
C815 N816 1.261 . S
N816 Co767 2.214 . S
N816 C814 1.325 . S
N816 C815 1.261 . S
C817 H787 0.931 . S
C817 C814 1.357 . S
C817 C818 1.312 . S
C818 H789 0.930 . S
C818 C813 1.261 . S
C818 C817 1.312 . S
C819 O791 1.214 . S
C819 O799 1.234 . S
C820 H792 0.929 . S
C820 C823 1.391 . S
C820 C825 1.391 . S
C821 H793 0.929 . S
C821 C822 1.390 . S
C821 N824 1.391 . S
C822 H794 0.930 . S
C822 C821 1.390 . S
C822 C823 1.392 . S
C823 H795 0.929 . S
C823 C820 1.391 . S
C823 C822 1.392 . S
N824 Co768 2.257 . S
N824 C821 1.391 . S
N824 C825 1.388 . S
C825 H796 0.930 . S
C825 C820 1.391 . S
C825 N824 1.388 . S
Co826 O828 2.143 . S
Co826 O834 2.074 . S
Co826 O837 2.093 . S
Co826 O850 2.097 . S
Co826 N867 2.151 . S
Co826 N875 2.214 . S
Co827 O828 2.160 . S
Co827 O833 2.058 . S
Co827 O843 2.057 . S
Co827 O858 2.037 . S
Co827 N862 2.145 . S
Co827 N883 2.257 . S
O828 Co826 2.143 . S
O828 Co827 2.160 . S
C829 O830 1.278 . S
C829 O837 1.224 . S
O830 C829 1.278 . S
C831 O832 1.245 . S
C831 O843 1.232 . S
O832 C831 1.245 . S
O833 Co827 2.058 . S
O833 C859 1.269 . S
O834 Co826 2.074 . S
O834 C859 1.257 . S
H835 C860 0.930 . S
H836 C866 0.930 . S
O837 Co826 2.093 . S
O837 C829 1.224 . S
H838 C870 0.929 . S
H839 C872 0.930 . S
H840 C873 0.930 . S
H841 C871 0.929 . S
H842 C874 0.928 . S
O843 Co827 2.057 . S
O843 C831 1.232 . S
H844 C863 0.929 . S
H845 C864 0.929 . S
H846 C876 0.931 . S
H847 C868 0.929 . S
H848 C877 0.930 . S
H849 C869 0.931 . S
O850 Co826 2.097 . S
O850 C878 1.214 . S
H851 C879 0.929 . S
H852 C880 0.929 . S
H853 C881 0.930 . S
H854 C882 0.929 . S
H855 C884 0.930 . S
H856 C861 0.930 . S
H857 C865 0.930 . S
O858 Co827 2.037 . S
O858 C878 1.234 . S
C859 O833 1.269 . S
C859 O834 1.257 . S
C860 H835 0.930 . S
C860 C863 1.388 . S
C860 C865 1.418 . S
C861 H856 0.930 . S
C861 C864 1.404 . S
C861 C865 1.353 . S
N862 Co827 2.145 . S
N862 C863 1.397 . S
N862 C864 1.334 . S
C863 H844 0.929 . S
C863 C860 1.388 . S
C863 N862 1.397 . S
C864 H845 0.929 . S
C864 C861 1.404 . S
C864 N862 1.334 . S
C865 H857 0.930 . S
C865 C860 1.418 . S
C865 C861 1.353 . S
C866 H836 0.930 . S
C866 N867 1.330 . S
C866 C868 1.446 1_565 S
N867 Co826 2.151 . S
N867 C866 1.330 . S
N867 C871 1.418 . S
C868 H847 0.929 . S
C868 C866 1.446 1_545 S
C868 C869 1.332 . S
C869 H849 0.931 . S
C869 C868 1.332 . S
C869 C870 1.267 . S
C870 H838 0.929 . S
C870 C869 1.267 . S
C870 C871 1.251 1_545 S
C871 H841 0.929 . S
C871 N867 1.418 . S
C871 C870 1.251 1_565 S
C872 H839 0.930 . S
C872 C874 1.406 . S
C872 C877 1.261 . S
C873 H840 0.930 . S
C873 N875 1.325 . S
C873 C876 1.357 . S
C874 H842 0.928 . S
C874 C872 1.406 . S
C874 N875 1.261 . S
N875 Co826 2.214 . S
N875 C873 1.325 . S
N875 C874 1.261 . S
C876 H846 0.931 . S
C876 C873 1.357 . S
C876 C877 1.312 . S
C877 H848 0.930 . S
C877 C872 1.261 . S
C877 C876 1.312 . S
C878 O850 1.214 . S
C878 O858 1.234 . S
C879 H851 0.929 . S
C879 C882 1.391 . S
C879 C884 1.391 . S
C880 H852 0.929 . S
C880 C881 1.390 . S
C880 N883 1.391 . S
C881 H853 0.930 . S
C881 C880 1.390 . S
C881 C882 1.392 . S
C882 H854 0.929 . S
C882 C879 1.391 . S
C882 C881 1.392 . S
N883 Co827 2.257 . S
N883 C880 1.391 . S
N883 C884 1.388 . S
C884 H855 0.930 . S
C884 C879 1.391 . S
C884 N883 1.388 . S
Co885 O887 2.143 . S
Co885 O893 2.074 . S
Co885 O896 2.093 . S
Co885 O909 2.097 . S
Co885 N926 2.151 . S
Co885 N934 2.214 . S
Co886 O887 2.160 . S
Co886 O892 2.058 . S
Co886 O902 2.057 . S
Co886 O917 2.037 . S
Co886 N921 2.145 . S
Co886 N942 2.257 . S
O887 Co885 2.143 . S
O887 Co886 2.160 . S
C888 O889 1.278 . S
C888 O896 1.224 . S
O889 C888 1.278 . S
C890 O891 1.245 . S
C890 O902 1.232 . S
O891 C890 1.245 . S
O892 Co886 2.058 . S
O892 C918 1.269 . S
O893 Co885 2.074 . S
O893 C918 1.257 . S
H894 C919 0.930 . S
H895 C925 0.930 . S
O896 Co885 2.093 . S
O896 C888 1.224 . S
H897 C929 0.929 . S
H898 C931 0.930 . S
H899 C932 0.930 . S
H900 C930 0.929 . S
H901 C933 0.928 . S
O902 Co886 2.057 . S
O902 C890 1.232 . S
H903 C922 0.929 . S
H904 C923 0.929 . S
H905 C935 0.931 . S
H906 C927 0.929 . S
H907 C936 0.930 . S
H908 C928 0.931 . S
O909 Co885 2.097 . S
O909 C937 1.214 . S
H910 C938 0.929 . S
H911 C939 0.929 . S
H912 C940 0.930 . S
H913 C941 0.929 . S
H914 C943 0.930 . S
H915 C920 0.930 . S
H916 C924 0.930 . S
O917 Co886 2.037 . S
O917 C937 1.234 . S
C918 O892 1.269 . S
C918 O893 1.257 . S
C919 H894 0.930 . S
C919 C922 1.388 . S
C919 C924 1.418 . S
C920 H915 0.930 . S
C920 C923 1.404 . S
C920 C924 1.353 . S
N921 Co886 2.145 . S
N921 C922 1.397 . S
N921 C923 1.334 . S
C922 H903 0.929 . S
C922 C919 1.388 . S
C922 N921 1.397 . S
C923 H904 0.929 . S
C923 C920 1.404 . S
C923 N921 1.334 . S
C924 H916 0.930 . S
C924 C919 1.418 . S
C924 C920 1.353 . S
C925 H895 0.930 . S
C925 N926 1.330 . S
C925 C927 1.446 . S
N926 Co885 2.151 . S
N926 C925 1.330 . S
N926 C930 1.418 . S
C927 H906 0.929 . S
C927 C925 1.446 . S
C927 C928 1.332 . S
C928 H908 0.931 . S
C928 C927 1.332 . S
C928 C929 1.267 . S
C929 H897 0.929 . S
C929 C928 1.267 . S
C929 C930 1.251 . S
C930 H900 0.929 . S
C930 N926 1.418 . S
C930 C929 1.251 . S
C931 H898 0.930 . S
C931 C933 1.406 . S
C931 C936 1.261 . S
C932 H899 0.930 . S
C932 N934 1.325 . S
C932 C935 1.357 . S
C933 H901 0.928 . S
C933 C931 1.406 . S
C933 N934 1.261 . S
N934 Co885 2.214 . S
N934 C932 1.325 . S
N934 C933 1.261 . S
C935 H905 0.931 . S
C935 C932 1.357 . S
C935 C936 1.312 . S
C936 H907 0.930 . S
C936 C931 1.261 . S
C936 C935 1.312 . S
C937 O909 1.214 . S
C937 O917 1.234 . S
C938 H910 0.929 . S
C938 C941 1.391 . S
C938 C943 1.391 . S
C939 H911 0.929 . S
C939 C940 1.390 . S
C939 N942 1.391 . S
C940 H912 0.930 . S
C940 C939 1.390 . S
C940 C941 1.392 . S
C941 H913 0.929 . S
C941 C938 1.391 . S
C941 C940 1.392 . S
N942 Co886 2.257 . S
N942 C939 1.391 . S
N942 C943 1.388 . S
C943 H914 0.930 . S
C943 C938 1.391 . S
C943 N942 1.388 . S
H944 C950 0.930 . S
H945 C953 0.930 . S
H946 C954 0.930 . S
H947 C955 0.930 . S
H948 C958 0.930 . S
H949 C959 0.930 . S
C950 H944 0.930 . S
C950 C951 1.355 . S
C950 C952 1.415 . S
C951 C950 1.355 . S
C951 C953 1.419 . S
C952 C950 1.415 . S
C952 C957 1.425 1_556 S
C952 C959 1.409 . S
C953 H945 0.930 . S
C953 C951 1.419 . S
C953 C954 1.362 1_556 S
C954 H946 0.930 . S
C954 C953 1.362 1_554 S
C954 C957 1.409 . S
C955 H947 0.930 . S
C955 C956 1.355 . S
C955 C957 1.415 . S
C956 C955 1.355 . S
C956 C958 1.419 . S
C957 C952 1.425 1_554 S
C957 C954 1.409 . S
C957 C955 1.415 . S
C958 H948 0.930 . S
C958 C956 1.419 . S
C958 C959 1.362 1_554 S
C959 H949 0.930 . S
C959 C952 1.409 . S
C959 C958 1.362 1_556 S
H960 C966 0.930 . S
H961 C969 0.930 . S
H962 C970 0.930 . S
H963 C971 0.930 . S
H964 C974 0.930 . S
H965 C975 0.930 . S
C966 H960 0.930 . S
C966 C967 1.355 . S
C966 C968 1.415 . S
C967 C966 1.355 . S
C967 C969 1.419 . S
C968 C966 1.415 . S
C968 C973 1.425 . S
C968 C975 1.409 . S
C969 H961 0.930 . S
C969 C967 1.419 . S
C969 C970 1.362 . S
C970 H962 0.930 . S
C970 C969 1.362 . S
C970 C973 1.409 . S
C971 H963 0.930 . S
C971 C972 1.355 . S
C971 C973 1.415 . S
C972 C971 1.355 . S
C972 C974 1.419 . S
C973 C968 1.425 . S
C973 C970 1.409 . S
C973 C971 1.415 . S
C974 H964 0.930 . S
C974 C972 1.419 . S
C974 C975 1.362 . S
C975 H965 0.930 . S
C975 C968 1.409 . S
C975 C974 1.362 . S
H976 C982 0.930 . S
H977 C985 0.930 . S
H978 C986 0.930 . S
H979 C987 0.930 . S
H980 C990 0.930 . S
H981 C991 0.930 . S
C982 H976 0.930 . S
C982 C983 1.355 . S
C982 C984 1.415 1_556 S
C983 C982 1.355 . S
C983 C985 1.419 . S
C984 C982 1.415 1_554 S
C984 C989 1.425 1_554 S
C984 C991 1.409 . S
C985 H977 0.930 . S
C985 C983 1.419 . S
C985 C986 1.362 . S
C986 H978 0.930 . S
C986 C985 1.362 . S
C986 C989 1.409 . S
C987 H979 0.930 . S
C987 C988 1.355 . S
C987 C989 1.415 1_554 S
C988 C987 1.355 . S
C988 C990 1.419 . S
C989 C984 1.425 1_556 S
C989 C986 1.409 . S
C989 C987 1.415 1_556 S
C990 H980 0.930 . S
C990 C988 1.419 . S
C990 C991 1.362 . S
C991 H981 0.930 . S
C991 C984 1.409 . S
C991 C990 1.362 . S
H992 C998 0.930 . S
H993 C1001 0.930 . S
H994 C1002 0.930 . S
H995 C1003 0.930 . S
H996 C1006 0.930 . S
H997 C1007 0.930 . S
C998 H992 0.930 . S
C998 C999 1.355 . S
C998 C1000 1.415 . S
C999 C998 1.355 . S
C999 C1001 1.419 . S
C1000 C998 1.415 . S
C1000 C1005 1.425 . S
C1000 C1007 1.409 . S
C1001 H993 0.930 . S
C1001 C999 1.419 . S
C1001 C1002 1.362 . S
C1002 H994 0.930 . S
C1002 C1001 1.362 . S
C1002 C1005 1.409 . S
C1003 H995 0.930 . S
C1003 C1004 1.355 . S
C1003 C1005 1.415 . S
C1004 C1003 1.355 . S
C1004 C1006 1.419 . S
C1005 C1000 1.425 . S
C1005 C1002 1.409 . S
C1005 C1003 1.415 . S
C1006 H996 0.930 . S
C1006 C1004 1.419 . S
C1006 C1007 1.362 . S
C1007 H997 0.930 . S
C1007 C1000 1.409 . S
C1007 C1006 1.362 . S
H1008 C1014 0.930 . S
H1009 C1017 0.930 . S
H1010 C1018 0.930 . S
H1011 C1019 0.930 . S
H1012 C1022 0.930 . S
H1013 C1023 0.930 . S
C1014 H1008 0.930 . S
C1014 C1015 1.355 . S
C1014 C1016 1.415 1_554 S
C1015 C1014 1.355 . S
C1015 C1017 1.419 . S
C1016 C1014 1.415 1_556 S
C1016 C1021 1.425 1_556 S
C1016 C1023 1.409 . S
C1017 H1009 0.930 . S
C1017 C1015 1.419 . S
C1017 C1018 1.362 . S
C1018 H1010 0.930 . S
C1018 C1017 1.362 . S
C1018 C1021 1.409 . S
C1019 H1011 0.930 . S
C1019 C1020 1.355 . S
C1019 C1021 1.415 1_556 S
C1020 C1019 1.355 . S
C1020 C1022 1.419 . S
C1021 C1016 1.425 1_554 S
C1021 C1018 1.409 . S
C1021 C1019 1.415 1_554 S
C1022 H1012 0.930 . S
C1022 C1020 1.419 . S
C1022 C1023 1.362 . S
C1023 H1013 0.930 . S
C1023 C1016 1.409 . S
C1023 C1022 1.362 . S
H1024 C1030 0.930 . S
H1025 C1033 0.930 . S
H1026 C1034 0.930 . S
H1027 C1035 0.930 . S
H1028 C1038 0.930 . S
H1029 C1039 0.930 . S
C1030 H1024 0.930 . S
C1030 C1031 1.355 . S
C1030 C1032 1.415 . S
C1031 C1030 1.355 . S
C1031 C1033 1.419 . S
C1032 C1030 1.415 . S
C1032 C1037 1.425 . S
C1032 C1039 1.409 . S
C1033 H1025 0.930 . S
C1033 C1031 1.419 . S
C1033 C1034 1.362 . S
C1034 H1026 0.930 . S
C1034 C1033 1.362 . S
C1034 C1037 1.409 . S
C1035 H1027 0.930 . S
C1035 C1036 1.355 . S
C1035 C1037 1.415 . S
C1036 C1035 1.355 . S
C1036 C1038 1.419 . S
C1037 C1032 1.425 . S
C1037 C1034 1.409 . S
C1037 C1035 1.415 . S
C1038 H1028 0.930 . S
C1038 C1036 1.419 . S
C1038 C1039 1.362 . S
C1039 H1029 0.930 . S
C1039 C1032 1.409 . S
C1039 C1038 1.362 . S
H1040 C1046 0.930 . S
H1041 C1049 0.930 . S
H1042 C1050 0.930 . S
H1043 C1051 0.930 . S
H1044 C1054 0.930 . S
H1045 C1055 0.930 . S
C1046 H1040 0.930 . S
C1046 C1047 1.355 . S
C1046 C1048 1.415 1_556 S
C1047 C1046 1.355 . S
C1047 C1049 1.419 . S
C1048 C1046 1.415 1_554 S
C1048 C1053 1.425 1_554 S
C1048 C1055 1.409 . S
C1049 H1041 0.930 . S
C1049 C1047 1.419 . S
C1049 C1050 1.362 . S
C1050 H1042 0.930 . S
C1050 C1049 1.362 . S
C1050 C1053 1.409 . S
C1051 H1043 0.930 . S
C1051 C1052 1.355 . S
C1051 C1053 1.415 1_554 S
C1052 C1051 1.355 . S
C1052 C1054 1.419 . S
C1053 C1048 1.425 1_556 S
C1053 C1050 1.409 . S
C1053 C1051 1.415 1_556 S
C1054 H1044 0.930 . S
C1054 C1052 1.419 . S
C1054 C1055 1.362 . S
C1055 H1045 0.930 . S
C1055 C1048 1.409 . S
C1055 C1054 1.362 . S
H1056 C1062 0.930 . S
H1057 C1065 0.930 . S
H1058 C1066 0.930 . S
H1059 C1067 0.930 . S
H1060 C1070 0.930 . S
H1061 C1071 0.930 . S
C1062 H1056 0.930 . S
C1062 C1063 1.355 . S
C1062 C1064 1.415 . S
C1063 C1062 1.355 . S
C1063 C1065 1.419 . S
C1064 C1062 1.415 . S
C1064 C1069 1.425 . S
C1064 C1071 1.409 . S
C1065 H1057 0.930 . S
C1065 C1063 1.419 . S
C1065 C1066 1.362 . S
C1066 H1058 0.930 . S
C1066 C1065 1.362 . S
C1066 C1069 1.409 . S
C1067 H1059 0.930 . S
C1067 C1068 1.355 . S
C1067 C1069 1.415 . S
C1068 C1067 1.355 . S
C1068 C1070 1.419 . S
C1069 C1064 1.425 . S
C1069 C1066 1.409 . S
C1069 C1067 1.415 . S
C1070 H1060 0.930 . S
C1070 C1068 1.419 . S
C1070 C1071 1.362 . S
C1071 H1061 0.930 . S
C1071 C1064 1.409 . S
C1071 C1070 1.362 . S
H1072 C1078 0.930 . S
H1073 C1081 0.930 . S
H1074 C1082 0.930 . S
H1075 C1083 0.930 . S
H1076 C1086 0.930 . S
H1077 C1087 0.930 . S
C1078 H1072 0.930 . S
C1078 C1079 1.355 . S
C1078 C1080 1.415 . S
C1079 C1078 1.355 . S
C1079 C1081 1.419 . S
C1080 C1078 1.415 . S
C1080 C1085 1.425 . S
C1080 C1087 1.409 . S
C1081 H1073 0.930 . S
C1081 C1079 1.419 . S
C1081 C1082 1.362 . S
C1082 H1074 0.930 . S
C1082 C1081 1.362 . S
C1082 C1085 1.409 . S
C1083 H1075 0.930 . S
C1083 C1084 1.355 . S
C1083 C1085 1.415 . S
C1084 C1083 1.355 . S
C1084 C1086 1.419 . S
C1085 C1080 1.425 . S
C1085 C1082 1.409 . S
C1085 C1083 1.415 . S
C1086 H1076 0.930 . S
C1086 C1084 1.419 . S
C1086 C1087 1.362 . S
C1087 H1077 0.930 . S
C1087 C1080 1.409 . S
C1087 C1086 1.362 . S
H1088 C1094 0.930 . S
H1089 C1097 0.930 . S
H1090 C1098 0.930 . S
H1091 C1099 0.930 . S
H1092 C1102 0.930 . S
H1093 C1103 0.930 . S
C1094 H1088 0.930 . S
C1094 C1095 1.355 . S
C1094 C1096 1.415 . S
C1095 C1094 1.355 . S
C1095 C1097 1.419 . S
C1096 C1094 1.415 . S
C1096 C1101 1.425 . S
C1096 C1103 1.409 . S
C1097 H1089 0.930 . S
C1097 C1095 1.419 . S
C1097 C1098 1.362 . S
C1098 H1090 0.930 . S
C1098 C1097 1.362 . S
C1098 C1101 1.409 . S
C1099 H1091 0.930 . S
C1099 C1100 1.355 . S
C1099 C1101 1.415 . S
C1100 C1099 1.355 . S
C1100 C1102 1.419 . S
C1101 C1096 1.425 . S
C1101 C1098 1.409 . S
C1101 C1099 1.415 . S
C1102 H1092 0.930 . S
C1102 C1100 1.419 . S
C1102 C1103 1.362 . S
C1103 H1093 0.930 . S
C1103 C1096 1.409 . S
C1103 C1102 1.362 . S
H1104 C1110 0.930 . S
H1105 C1113 0.930 . S
H1106 C1114 0.930 . S
H1107 C1115 0.930 . S
H1108 C1118 0.930 . S
H1109 C1119 0.930 . S
C1110 H1104 0.930 . S
C1110 C1111 1.355 . S
C1110 C1112 1.415 . S
C1111 C1110 1.355 . S
C1111 C1113 1.419 . S
C1112 C1110 1.415 . S
C1112 C1117 1.425 . S
C1112 C1119 1.409 . S
C1113 H1105 0.930 . S
C1113 C1111 1.419 . S
C1113 C1114 1.362 . S
C1114 H1106 0.930 . S
C1114 C1113 1.362 . S
C1114 C1117 1.409 . S
C1115 H1107 0.930 . S
C1115 C1116 1.355 . S
C1115 C1117 1.415 . S
C1116 C1115 1.355 . S
C1116 C1118 1.419 . S
C1117 C1112 1.425 . S
C1117 C1114 1.409 . S
C1117 C1115 1.415 . S
C1118 H1108 0.930 . S
C1118 C1116 1.419 . S
C1118 C1119 1.362 . S
C1119 H1109 0.930 . S
C1119 C1112 1.409 . S
C1119 C1118 1.362 . S
H1120 C1126 0.930 . S
H1121 C1129 0.930 . S
H1122 C1130 0.930 . S
H1123 C1131 0.930 . S
H1124 C1134 0.930 . S
H1125 C1135 0.930 . S
C1126 H1120 0.930 . S
C1126 C1127 1.355 . S
C1126 C1128 1.415 . S
C1127 C1126 1.355 . S
C1127 C1129 1.419 . S
C1128 C1126 1.415 . S
C1128 C1133 1.425 . S
C1128 C1135 1.409 . S
C1129 H1121 0.930 . S
C1129 C1127 1.419 . S
C1129 C1130 1.362 . S
C1130 H1122 0.930 . S
C1130 C1129 1.362 . S
C1130 C1133 1.409 . S
C1131 H1123 0.930 . S
C1131 C1132 1.355 . S
C1131 C1133 1.415 . S
C1132 C1131 1.355 . S
C1132 C1134 1.419 . S
C1133 C1128 1.425 . S
C1133 C1130 1.409 . S
C1133 C1131 1.415 . S
C1134 H1124 0.930 . S
C1134 C1132 1.419 . S
C1134 C1135 1.362 . S
C1135 H1125 0.930 . S
C1135 C1128 1.409 . S
C1135 C1134 1.362 . S
H1136 C1142 0.930 . S
H1137 C1145 0.930 . S
H1138 C1146 0.930 . S
H1139 C1147 0.930 . S
H1140 C1150 0.930 . S
H1141 C1151 0.930 . S
C1142 H1136 0.930 . S
C1142 C1143 1.355 . S
C1142 C1144 1.415 . S
C1143 C1142 1.355 . S
C1143 C1145 1.419 . S
C1144 C1142 1.415 . S
C1144 C1149 1.425 . S
C1144 C1151 1.409 . S
C1145 H1137 0.930 . S
C1145 C1143 1.419 . S
C1145 C1146 1.362 . S
C1146 H1138 0.930 . S
C1146 C1145 1.362 . S
C1146 C1149 1.409 . S
C1147 H1139 0.930 . S
C1147 C1148 1.355 . S
C1147 C1149 1.415 . S
C1148 C1147 1.355 . S
C1148 C1150 1.419 . S
C1149 C1144 1.425 . S
C1149 C1146 1.409 . S
C1149 C1147 1.415 . S
C1150 H1140 0.930 . S
C1150 C1148 1.419 . S
C1150 C1151 1.362 . S
C1151 H1141 0.930 . S
C1151 C1144 1.409 . S
C1151 C1150 1.362 . S
H1152 C1158 0.930 . S
H1153 C1161 0.930 . S
H1154 C1162 0.930 . S
H1155 C1163 0.930 . S
H1156 C1166 0.930 . S
H1157 C1167 0.930 . S
C1158 H1152 0.930 . S
C1158 C1159 1.355 . S
C1158 C1160 1.415 . S
C1159 C1158 1.355 . S
C1159 C1161 1.419 . S
C1160 C1158 1.415 . S
C1160 C1165 1.425 . S
C1160 C1167 1.409 . S
C1161 H1153 0.930 . S
C1161 C1159 1.419 . S
C1161 C1162 1.362 . S
C1162 H1154 0.930 . S
C1162 C1161 1.362 . S
C1162 C1165 1.409 . S
C1163 H1155 0.930 . S
C1163 C1164 1.355 . S
C1163 C1165 1.415 . S
C1164 C1163 1.355 . S
C1164 C1166 1.419 . S
C1165 C1160 1.425 . S
C1165 C1162 1.409 . S
C1165 C1163 1.415 . S
C1166 H1156 0.930 . S
C1166 C1164 1.419 . S
C1166 C1167 1.362 . S
C1167 H1157 0.930 . S
C1167 C1160 1.409 . S
C1167 C1166 1.362 . S
H1168 C1174 0.930 . S
H1169 C1177 0.930 . S
H1170 C1178 0.930 . S
H1171 C1179 0.930 . S
H1172 C1182 0.930 . S
H1173 C1183 0.930 . S
C1174 H1168 0.930 . S
C1174 C1175 1.355 . S
C1174 C1176 1.415 . S
C1175 C1174 1.355 . S
C1175 C1177 1.419 . S
C1176 C1174 1.415 . S
C1176 C1181 1.425 . S
C1176 C1183 1.409 . S
C1177 H1169 0.930 . S
C1177 C1175 1.419 . S
C1177 C1178 1.362 . S
C1178 H1170 0.930 . S
C1178 C1177 1.362 . S
C1178 C1181 1.409 . S
C1179 H1171 0.930 . S
C1179 C1180 1.355 . S
C1179 C1181 1.415 . S
C1180 C1179 1.355 . S
C1180 C1182 1.419 . S
C1181 C1176 1.425 . S
C1181 C1178 1.409 . S
C1181 C1179 1.415 . S
C1182 H1172 0.930 . S
C1182 C1180 1.419 . S
C1182 C1183 1.362 . S
C1183 H1173 0.930 . S
C1183 C1176 1.409 . S
C1183 C1182 1.362 . S
H1184 C1190 0.930 . S
H1185 C1193 0.930 . S
H1186 C1194 0.930 . S
H1187 C1195 0.930 . S
H1188 C1198 0.930 . S
H1189 C1199 0.930 . S
C1190 H1184 0.930 . S
C1190 C1191 1.355 . S
C1190 C1192 1.415 . S
C1191 C1190 1.355 . S
C1191 C1193 1.419 . S
C1192 C1190 1.415 . S
C1192 C1197 1.425 . S
C1192 C1199 1.409 . S
C1193 H1185 0.930 . S
C1193 C1191 1.419 . S
C1193 C1194 1.362 . S
C1194 H1186 0.930 . S
C1194 C1193 1.362 . S
C1194 C1197 1.409 . S
C1195 H1187 0.930 . S
C1195 C1196 1.355 . S
C1195 C1197 1.415 . S
C1196 C1195 1.355 . S
C1196 C1198 1.419 . S
C1197 C1192 1.425 . S
C1197 C1194 1.409 . S
C1197 C1195 1.415 . S
C1198 H1188 0.930 . S
C1198 C1196 1.419 . S
C1198 C1199 1.362 . S
C1199 H1189 0.930 . S
C1199 C1192 1.409 . S
C1199 C1198 1.362 . S
H1200 C1206 0.930 . S
H1201 C1209 0.930 . S
H1202 C1210 0.930 . S
H1203 C1211 0.930 . S
H1204 C1214 0.930 . S
H1205 C1215 0.930 . S
C1206 H1200 0.930 . S
C1206 C1207 1.355 . S
C1206 C1208 1.415 . S
C1207 C1206 1.355 . S
C1207 C1209 1.419 . S
C1208 C1206 1.415 . S
C1208 C1213 1.425 . S
C1208 C1215 1.409 . S
C1209 H1201 0.930 . S
C1209 C1207 1.419 . S
C1209 C1210 1.362 . S
C1210 H1202 0.930 . S
C1210 C1209 1.362 . S
C1210 C1213 1.409 . S
C1211 H1203 0.930 . S
C1211 C1212 1.355 . S
C1211 C1213 1.415 . S
C1212 C1211 1.355 . S
C1212 C1214 1.419 . S
C1213 C1208 1.425 . S
C1213 C1210 1.409 . S
C1213 C1211 1.415 . S
C1214 H1204 0.930 . S
C1214 C1212 1.419 . S
C1214 C1215 1.362 . S
C1215 H1205 0.930 . S
C1215 C1208 1.409 . S
C1215 C1214 1.362 . S
H1216 C1222 0.930 . S
H1217 C1225 0.930 . S
H1218 C1226 0.930 . S
H1219 C1227 0.930 . S
H1220 C1230 0.930 . S
H1221 C1231 0.930 . S
C1222 H1216 0.930 . S
C1222 C1223 1.355 . S
C1222 C1224 1.415 . S
C1223 C1222 1.355 . S
C1223 C1225 1.419 . S
C1224 C1222 1.415 . S
C1224 C1229 1.425 . S
C1224 C1231 1.409 . S
C1225 H1217 0.930 . S
C1225 C1223 1.419 . S
C1225 C1226 1.362 . S
C1226 H1218 0.930 . S
C1226 C1225 1.362 . S
C1226 C1229 1.409 . S
C1227 H1219 0.930 . S
C1227 C1228 1.355 . S
C1227 C1229 1.415 . S
C1228 C1227 1.355 . S
C1228 C1230 1.419 . S
C1229 C1224 1.425 . S
C1229 C1226 1.409 . S
C1229 C1227 1.415 . S
C1230 H1220 0.930 . S
C1230 C1228 1.419 . S
C1230 C1231 1.362 . S
C1231 H1221 0.930 . S
C1231 C1224 1.409 . S
C1231 C1230 1.362 . S
H1232 C1238 0.930 . S
H1233 C1241 0.930 . S
H1234 C1242 0.930 . S
H1235 C1243 0.930 . S
H1236 C1246 0.930 . S
H1237 C1247 0.930 . S
C1238 H1232 0.930 . S
C1238 C1239 1.355 . S
C1238 C1240 1.415 . S
C1239 C1238 1.355 . S
C1239 C1241 1.419 . S
C1240 C1238 1.415 . S
C1240 C1245 1.425 . S
C1240 C1247 1.409 . S
C1241 H1233 0.930 . S
C1241 C1239 1.419 . S
C1241 C1242 1.362 . S
C1242 H1234 0.930 . S
C1242 C1241 1.362 . S
C1242 C1245 1.409 . S
C1243 H1235 0.930 . S
C1243 C1244 1.355 . S
C1243 C1245 1.415 . S
C1244 C1243 1.355 . S
C1244 C1246 1.419 . S
C1245 C1240 1.425 . S
C1245 C1242 1.409 . S
C1245 C1243 1.415 . S
C1246 H1236 0.930 . S
C1246 C1244 1.419 . S
C1246 C1247 1.362 . S
C1247 H1237 0.930 . S
C1247 C1240 1.409 . S
C1247 C1246 1.362 . S
H1248 C1254 0.930 . S
H1249 C1257 0.930 . S
H1250 C1258 0.930 . S
H1251 C1259 0.930 . S
H1252 C1262 0.930 . S
H1253 C1263 0.930 . S
C1254 H1248 0.930 . S
C1254 C1255 1.355 . S
C1254 C1256 1.415 . S
C1255 C1254 1.355 . S
C1255 C1257 1.419 . S
C1256 C1254 1.415 . S
C1256 C1261 1.425 . S
C1256 C1263 1.409 . S
C1257 H1249 0.930 . S
C1257 C1255 1.419 . S
C1257 C1258 1.362 . S
C1258 H1250 0.930 . S
C1258 C1257 1.362 . S
C1258 C1261 1.409 . S
C1259 H1251 0.930 . S
C1259 C1260 1.355 . S
C1259 C1261 1.415 . S
C1260 C1259 1.355 . S
C1260 C1262 1.419 . S
C1261 C1256 1.425 . S
C1261 C1258 1.409 . S
C1261 C1259 1.415 . S
C1262 H1252 0.930 . S
C1262 C1260 1.419 . S
C1262 C1263 1.362 . S
C1263 H1253 0.930 . S
C1263 C1256 1.409 . S
C1263 C1262 1.362 . S
H1264 C1270 0.930 . S
H1265 C1273 0.930 . S
H1266 C1274 0.930 . S
H1267 C1275 0.930 . S
H1268 C1278 0.930 . S
H1269 C1279 0.930 . S
C1270 H1264 0.930 . S
C1270 C1271 1.355 . S
C1270 C1272 1.415 . S
C1271 C1270 1.355 . S
C1271 C1273 1.419 . S
C1272 C1270 1.415 . S
C1272 C1277 1.425 . S
C1272 C1279 1.409 . S
C1273 H1265 0.930 . S
C1273 C1271 1.419 . S
C1273 C1274 1.362 . S
C1274 H1266 0.930 . S
C1274 C1273 1.362 . S
C1274 C1277 1.409 . S
C1275 H1267 0.930 . S
C1275 C1276 1.355 . S
C1275 C1277 1.415 . S
C1276 C1275 1.355 . S
C1276 C1278 1.419 . S
C1277 C1272 1.425 . S
C1277 C1274 1.409 . S
C1277 C1275 1.415 . S
C1278 H1268 0.930 . S
C1278 C1276 1.419 . S
C1278 C1279 1.362 . S
C1279 H1269 0.930 . S
C1279 C1272 1.409 . S
C1279 C1278 1.362 . S
H1280 C1286 0.930 . S
H1281 C1289 0.930 . S
H1282 C1290 0.930 . S
H1283 C1291 0.930 . S
H1284 C1294 0.930 . S
H1285 C1295 0.930 . S
C1286 H1280 0.930 . S
C1286 C1287 1.355 . S
C1286 C1288 1.415 . S
C1287 C1286 1.355 . S
C1287 C1289 1.419 . S
C1288 C1286 1.415 . S
C1288 C1293 1.425 . S
C1288 C1295 1.409 . S
C1289 H1281 0.930 . S
C1289 C1287 1.419 . S
C1289 C1290 1.362 . S
C1290 H1282 0.930 . S
C1290 C1289 1.362 . S
C1290 C1293 1.409 . S
C1291 H1283 0.930 . S
C1291 C1292 1.355 . S
C1291 C1293 1.415 . S
C1292 C1291 1.355 . S
C1292 C1294 1.419 . S
C1293 C1288 1.425 . S
C1293 C1290 1.409 . S
C1293 C1291 1.415 . S
C1294 H1284 0.930 . S
C1294 C1292 1.419 . S
C1294 C1295 1.362 . S
C1295 H1285 0.930 . S
C1295 C1288 1.409 . S
C1295 C1294 1.362 . S
H1296 C1302 0.930 . S
H1297 C1305 0.930 . S
H1298 C1306 0.930 . S
H1299 C1307 0.930 . S
H1300 C1310 0.930 . S
H1301 C1311 0.930 . S
C1302 H1296 0.930 . S
C1302 C1303 1.355 . S
C1302 C1304 1.415 . S
C1303 C1302 1.355 . S
C1303 C1305 1.419 . S
C1304 C1302 1.415 . S
C1304 C1309 1.425 . S
C1304 C1311 1.409 . S
C1305 H1297 0.930 . S
C1305 C1303 1.419 . S
C1305 C1306 1.362 . S
C1306 H1298 0.930 . S
C1306 C1305 1.362 . S
C1306 C1309 1.409 . S
C1307 H1299 0.930 . S
C1307 C1308 1.355 . S
C1307 C1309 1.415 . S
C1308 C1307 1.355 . S
C1308 C1310 1.419 . S
C1309 C1304 1.425 . S
C1309 C1306 1.409 . S
C1309 C1307 1.415 . S
C1310 H1300 0.930 . S
C1310 C1308 1.419 . S
C1310 C1311 1.362 . S
C1311 H1301 0.930 . S
C1311 C1304 1.409 . S
C1311 C1310 1.362 . S
H1312 C1318 0.930 . S
H1313 C1321 0.930 . S
H1314 C1322 0.930 . S
H1315 C1323 0.930 . S
H1316 C1326 0.930 . S
H1317 C1327 0.930 . S
C1318 H1312 0.930 . S
C1318 C1319 1.355 . S
C1318 C1320 1.415 . S
C1319 C1318 1.355 . S
C1319 C1321 1.419 . S
C1320 C1318 1.415 . S
C1320 C1325 1.425 . S
C1320 C1327 1.409 . S
C1321 H1313 0.930 . S
C1321 C1319 1.419 . S
C1321 C1322 1.362 . S
C1322 H1314 0.930 . S
C1322 C1321 1.362 . S
C1322 C1325 1.409 . S
C1323 H1315 0.930 . S
C1323 C1324 1.355 . S
C1323 C1325 1.415 . S
C1324 C1323 1.355 . S
C1324 C1326 1.419 . S
C1325 C1320 1.425 . S
C1325 C1322 1.409 . S
C1325 C1323 1.415 . S
C1326 H1316 0.930 . S
C1326 C1324 1.419 . S
C1326 C1327 1.362 . S
C1327 H1317 0.930 . S
C1327 C1320 1.409 . S
C1327 C1326 1.362 . S
H1328 C1334 0.930 . S
H1329 C1337 0.930 . S
H1330 C1338 0.930 . S
H1331 C1339 0.930 . S
H1332 C1342 0.930 . S
H1333 C1343 0.930 . S
C1334 H1328 0.930 . S
C1334 C1335 1.355 1_565 S
C1334 C1336 1.415 . S
C1335 C1334 1.355 1_545 S
C1335 C1337 1.419 . S
C1336 C1334 1.415 . S
C1336 C1341 1.425 . S
C1336 C1343 1.409 . S
C1337 H1329 0.930 . S
C1337 C1335 1.419 . S
C1337 C1338 1.362 1_545 S
C1338 H1330 0.930 . S
C1338 C1337 1.362 1_565 S
C1338 C1341 1.409 . S
C1339 H1331 0.930 . S
C1339 C1340 1.355 . S
C1339 C1341 1.415 . S
C1340 C1339 1.355 . S
C1340 C1342 1.419 . S
C1341 C1336 1.425 . S
C1341 C1338 1.409 . S
C1341 C1339 1.415 . S
C1342 H1332 0.930 . S
C1342 C1340 1.419 . S
C1342 C1343 1.362 . S
C1343 H1333 0.930 . S
C1343 C1336 1.409 . S
C1343 C1342 1.362 . S
H1344 C1350 0.930 . S
H1345 C1353 0.930 . S
H1346 C1354 0.930 . S
H1347 C1355 0.930 . S
H1348 C1358 0.930 . S
H1349 C1359 0.930 . S
C1350 H1344 0.930 . S
C1350 C1351 1.355 . S
C1350 C1352 1.415 . S
C1351 C1350 1.355 . S
C1351 C1353 1.419 . S
C1352 C1350 1.415 . S
C1352 C1357 1.425 . S
C1352 C1359 1.409 . S
C1353 H1345 0.930 . S
C1353 C1351 1.419 . S
C1353 C1354 1.362 . S
C1354 H1346 0.930 . S
C1354 C1353 1.362 . S
C1354 C1357 1.409 . S
C1355 H1347 0.930 . S
C1355 C1356 1.355 . S
C1355 C1357 1.415 . S
C1356 C1355 1.355 . S
C1356 C1358 1.419 . S
C1357 C1352 1.425 . S
C1357 C1354 1.409 . S
C1357 C1355 1.415 . S
C1358 H1348 0.930 . S
C1358 C1356 1.419 . S
C1358 C1359 1.362 . S
C1359 H1349 0.930 . S
C1359 C1352 1.409 . S
C1359 C1358 1.362 . S
H1360 C1366 0.930 . S
H1361 C1369 0.930 . S
H1362 C1370 0.930 . S
H1363 C1371 0.930 . S
H1364 C1374 0.930 . S
H1365 C1375 0.930 . S
C1366 H1360 0.930 . S
C1366 C1367 1.355 . S
C1366 C1368 1.415 . S
C1367 C1366 1.355 . S
C1367 C1369 1.419 . S
C1368 C1366 1.415 . S
C1368 C1373 1.425 . S
C1368 C1375 1.409 1_455 S
C1369 H1361 0.930 . S
C1369 C1367 1.419 . S
C1369 C1370 1.362 . S
C1370 H1362 0.930 . S
C1370 C1369 1.362 . S
C1370 C1373 1.409 . S
C1371 H1363 0.930 . S
C1371 C1372 1.355 1_455 S
C1371 C1373 1.415 . S
C1372 C1371 1.355 1_655 S
C1372 C1374 1.419 . S
C1373 C1368 1.425 . S
C1373 C1370 1.409 . S
C1373 C1371 1.415 . S
C1374 H1364 0.930 . S
C1374 C1372 1.419 . S
C1374 C1375 1.362 . S
C1375 H1365 0.930 . S
C1375 C1368 1.409 1_655 S
C1375 C1374 1.362 . S
H1376 C1382 0.930 . S
H1377 C1385 0.930 . S
H1378 C1386 0.930 1_455 S
H1379 C1387 0.930 . S
H1380 C1390 0.930 . S
H1381 C1391 0.930 . S
C1382 H1376 0.930 . S
C1382 C1383 1.355 1_545 S
C1382 C1384 1.415 . S
C1383 C1382 1.355 1_565 S
C1383 C1385 1.419 . S
C1384 C1382 1.415 . S
C1384 C1389 1.425 . S
C1384 C1391 1.409 . S
C1385 H1377 0.930 . S
C1385 C1383 1.419 . S
C1385 C1386 1.362 . S
C1386 H1378 0.930 1_655 S
C1386 C1385 1.362 . S
C1386 C1389 1.409 1_565 S
C1387 H1379 0.930 . S
C1387 C1388 1.355 . S
C1387 C1389 1.415 1_455 S
C1388 C1387 1.355 . S
C1388 C1390 1.419 1_455 S
C1389 C1384 1.425 . S
C1389 C1386 1.409 1_545 S
C1389 C1387 1.415 1_655 S
C1390 H1380 0.930 . S
C1390 C1388 1.419 1_655 S
C1390 C1391 1.362 . S
C1391 H1381 0.930 . S
C1391 C1384 1.409 . S
C1391 C1390 1.362 . S
H1392 C1398 0.930 . S
H1393 C1401 0.930 . S
H1394 C1402 0.930 . S
H1395 C1403 0.930 . S
H1396 C1406 0.930 . S
H1397 C1407 0.930 . S
C1398 H1392 0.930 . S
C1398 C1399 1.355 . S
C1398 C1400 1.415 . S
C1399 C1398 1.355 . S
C1399 C1401 1.419 . S
C1400 C1398 1.415 . S
C1400 C1405 1.425 . S
C1400 C1407 1.409 . S
C1401 H1393 0.930 . S
C1401 C1399 1.419 . S
C1401 C1402 1.362 . S
C1402 H1394 0.930 . S
C1402 C1401 1.362 . S
C1402 C1405 1.409 . S
C1403 H1395 0.930 . S
C1403 C1404 1.355 . S
C1403 C1405 1.415 . S
C1404 C1403 1.355 . S
C1404 C1406 1.419 . S
C1405 C1400 1.425 . S
C1405 C1402 1.409 . S
C1405 C1403 1.415 . S
C1406 H1396 0.930 . S
C1406 C1404 1.419 . S
C1406 C1407 1.362 . S
C1407 H1397 0.930 . S
C1407 C1400 1.409 . S
C1407 C1406 1.362 . S
H1408 C1414 0.930 . S
H1409 C1417 0.930 . S
H1410 C1418 0.930 . S
H1411 C1419 0.930 . S
H1412 C1422 0.930 . S
H1413 C1423 0.930 . S
C1414 H1408 0.930 . S
C1414 C1415 1.355 1_655 S
C1414 C1416 1.415 . S
C1415 C1414 1.355 1_455 S
C1415 C1417 1.419 . S
C1416 C1414 1.415 . S
C1416 C1421 1.425 . S
C1416 C1423 1.409 . S
C1417 H1409 0.930 . S
C1417 C1415 1.419 . S
C1417 C1418 1.362 . S
C1418 H1410 0.930 . S
C1418 C1417 1.362 . S
C1418 C1421 1.409 1_455 S
C1419 H1411 0.930 . S
C1419 C1420 1.355 . S
C1419 C1421 1.415 . S
C1420 C1419 1.355 . S
C1420 C1422 1.419 . S
C1421 C1416 1.425 . S
C1421 C1418 1.409 1_655 S
C1421 C1419 1.415 . S
C1422 H1412 0.930 . S
C1422 C1420 1.419 . S
C1422 C1423 1.362 . S
C1423 H1413 0.930 . S
C1423 C1416 1.409 . S
C1423 C1422 1.362 . S
H1424 C1430 0.930 . S
H1425 C1433 0.930 . S
H1426 C1434 0.930 . S
H1427 C1435 0.930 . S
H1428 C1438 0.930 . S
H1429 C1439 0.930 1_655 S
C1430 H1424 0.930 . S
C1430 C1431 1.355 . S
C1430 C1432 1.415 1_655 S
C1431 C1430 1.355 . S
C1431 C1433 1.419 1_655 S
C1432 C1430 1.415 1_455 S
C1432 C1437 1.425 . S
C1432 C1439 1.409 1_565 S
C1433 H1425 0.930 . S
C1433 C1431 1.419 1_455 S
C1433 C1434 1.362 . S
C1434 H1426 0.930 . S
C1434 C1433 1.362 . S
C1434 C1437 1.409 . S
C1435 H1427 0.930 . S
C1435 C1436 1.355 1_565 S
C1435 C1437 1.415 . S
C1436 C1435 1.355 1_545 S
C1436 C1438 1.419 . S
C1437 C1432 1.425 . S
C1437 C1434 1.409 . S
C1437 C1435 1.415 . S
C1438 H1428 0.930 . S
C1438 C1436 1.419 . S
C1438 C1439 1.362 . S
C1439 H1429 0.930 1_455 S
C1439 C1432 1.409 1_545 S
C1439 C1438 1.362 . S
H1440 C1446 0.930 . S
H1441 C1449 0.930 . S
H1442 C1450 0.930 . S
H1443 C1451 0.930 . S
H1444 C1454 0.930 . S
H1445 C1455 0.930 . S
C1446 H1440 0.930 . S
C1446 C1447 1.355 1_545 S
C1446 C1448 1.415 . S
C1447 C1446 1.355 1_565 S
C1447 C1449 1.419 . S
C1448 C1446 1.415 . S
C1448 C1453 1.425 . S
C1448 C1455 1.409 . S
C1449 H1441 0.930 . S
C1449 C1447 1.419 . S
C1449 C1450 1.362 . S
C1450 H1442 0.930 . S
C1450 C1449 1.362 . S
C1450 C1453 1.409 1_565 S
C1451 H1443 0.930 . S
C1451 C1452 1.355 . S
C1451 C1453 1.415 . S
C1452 C1451 1.355 . S
C1452 C1454 1.419 . S
C1453 C1448 1.425 . S
C1453 C1450 1.409 1_545 S
C1453 C1451 1.415 . S
C1454 H1444 0.930 . S
C1454 C1452 1.419 . S
C1454 C1455 1.362 . S
C1455 H1445 0.930 . S
C1455 C1448 1.409 . S
C1455 C1454 1.362 . S
C951 C416 1.655 . S
C956 C3 1.662 . S
C967 C239 1.623 . S
C972 C62 1.645 . S
C983 C298 1.592 . S
C988 C121 1.577 . S
C999 C180 1.657 . S
C1004 C357 1.662 . S
C1015 C888 1.577 . S
C1020 C475 1.574 . S
C1031 C711 1.601 . S
C1036 C534 1.583 . S
C1047 C593 1.576 . S
C1052 C770 1.575 . S
C1063 C652 1.623 . S
C1068 C829 1.645 . S
C1079 C170 1.195 . S
C1084 C52 1.180 . S
C1095 C111 1.242 . S
C1100 C229 1.216 . S
C1111 C288 1.242 . S
C1116 C406 1.220 . S
C1127 C465 1.183 . S
C1132 C347 1.189 . S
C1143 C524 1.242 . S
C1148 C642 1.222 . S
C1159 C583 1.240 . S
C1164 C701 1.229 . S
C1175 C878 1.180 . S
C1180 C760 1.196 . S
C1191 C819 1.213 . S
C1196 C937 1.181 . S
C1207 C387 1.374 . S
C1212 C33 1.378 . S
C1223 C92 1.372 . S
C1228 C446 1.406 . S
C1239 C151 1.377 . S
C1244 C269 1.374 . S
C1255 C210 1.442 . S
C1260 C328 1.435 . S
C1271 C505 1.383 . S
C1276 C859 1.424 . S
C1287 C564 1.373 . S
C1292 C918 1.409 . S
C1303 C623 1.431 . S
C1308 C741 1.390 . S
C1319 C682 1.426 . S
C1324 C800 1.385 . S
C1335 C5 1.394 . S
C1340 C890 1.400 . S
C1351 C713 1.403 . S
C1356 C64 1.391 . S
C1367 C123 1.392 . S
C1372 C772 1.402 . S
C1383 C831 1.400 . S
C1388 C182 1.394 . S
C1399 C536 1.388 . S
C1404 C241 1.406 . S
C1415 C300 1.409 . S
C1420 C595 1.385 . S
C1431 C654 1.395 . S
C1436 C359 1.399 . S
C1447 C477 1.397 . S
C1452 C418 1.397 . S
