# Generated by pormake.
# Topology wiv, (6)-cn, num edge types: 1
# Building blocks:
#     Node 0, Type 0, BuildingBlock: KUMJIN_clean_sbu_0, # of connection points: 6
#     Node 1, Type 0, BuildingBlock: KUMJIN_clean_sbu_0, # of connection points: 6
#     Node 2, Type 0, BuildingBlock: KUMJIN_clean_sbu_0, # of connection points: 6
#     Node 3, Type 0, BuildingBlock: KUMJIN_clean_sbu_0, # of connection points: 6
#     Node 4, Type 0, BuildingBlock: KUMJIN_clean_sbu_0, # of connection points: 6
#     Node 5, Type 0, BuildingBlock: KUMJIN_clean_sbu_0, # of connection points: 6
#     Node 6, Type 0, BuildingBlock: KUMJIN_clean_sbu_0, # of connection points: 6
#     Node 7, Type 0, BuildingBlock: KUMJIN_clean_sbu_0, # of connection points: 6
#     Node 8, Type 0, BuildingBlock: KUMJIN_clean_sbu_0, # of connection points: 6
#     Node 9, Type 0, BuildingBlock: KUMJIN_clean_sbu_0, # of connection points: 6
#     Node 10, Type 0, BuildingBlock: KUMJIN_clean_sbu_0, # of connection points: 6
#     Node 11, Type 0, BuildingBlock: KUMJIN_clean_sbu_0, # of connection points: 6
#     Node 12, Type 0, BuildingBlock: KUMJIN_clean_sbu_0, # of connection points: 6
#     Node 13, Type 0, BuildingBlock: KUMJIN_clean_sbu_0, # of connection points: 6
#     Node 14, Type 0, BuildingBlock: KUMJIN_clean_sbu_0, # of connection points: 6
#     Node 15, Type 0, BuildingBlock: KUMJIN_clean_sbu_0, # of connection points: 6
#     Edge 16, Type (0, 0), BuildingBlock: EZIPEK_clean_linker_0, # of connection points: 2
#     Edge 17, Type (0, 0), BuildingBlock: EZIPEK_clean_linker_0, # of connection points: 2
#     Edge 18, Type (0, 0), BuildingBlock: EZIPEK_clean_linker_0, # of connection points: 2
#     Edge 19, Type (0, 0), BuildingBlock: EZIPEK_clean_linker_0, # of connection points: 2
#     Edge 20, Type (0, 0), BuildingBlock: EZIPEK_clean_linker_0, # of connection points: 2
#     Edge 21, Type (0, 0), BuildingBlock: EZIPEK_clean_linker_0, # of connection points: 2
#     Edge 22, Type (0, 0), BuildingBlock: EZIPEK_clean_linker_0, # of connection points: 2
#     Edge 23, Type (0, 0), BuildingBlock: EZIPEK_clean_linker_0, # of connection points: 2
#     Edge 24, Type (0, 0), BuildingBlock: EZIPEK_clean_linker_0, # of connection points: 2
#     Edge 25, Type (0, 0), BuildingBlock: EZIPEK_clean_linker_0, # of connection points: 2
#     Edge 26, Type (0, 0), BuildingBlock: EZIPEK_clean_linker_0, # of connection points: 2
#     Edge 27, Type (0, 0), BuildingBlock: EZIPEK_clean_linker_0, # of connection points: 2
#     Edge 28, Type (0, 0), BuildingBlock: EZIPEK_clean_linker_0, # of connection points: 2
#     Edge 29, Type (0, 0), BuildingBlock: EZIPEK_clean_linker_0, # of connection points: 2
#     Edge 30, Type (0, 0), BuildingBlock: EZIPEK_clean_linker_0, # of connection points: 2
#     Edge 31, Type (0, 0), BuildingBlock: EZIPEK_clean_linker_0, # of connection points: 2
#     Edge 32, Type (0, 0), BuildingBlock: EZIPEK_clean_linker_0, # of connection points: 2
#     Edge 33, Type (0, 0), BuildingBlock: EZIPEK_clean_linker_0, # of connection points: 2
#     Edge 34, Type (0, 0), BuildingBlock: EZIPEK_clean_linker_0, # of connection points: 2
#     Edge 35, Type (0, 0), BuildingBlock: EZIPEK_clean_linker_0, # of connection points: 2
#     Edge 36, Type (0, 0), BuildingBlock: EZIPEK_clean_linker_0, # of connection points: 2
#     Edge 37, Type (0, 0), BuildingBlock: EZIPEK_clean_linker_0, # of connection points: 2
#     Edge 38, Type (0, 0), BuildingBlock: EZIPEK_clean_linker_0, # of connection points: 2
#     Edge 39, Type (0, 0), BuildingBlock: EZIPEK_clean_linker_0, # of connection points: 2
#     Edge 40, Type (0, 0), BuildingBlock: EZIPEK_clean_linker_0, # of connection points: 2
#     Edge 41, Type (0, 0), BuildingBlock: EZIPEK_clean_linker_0, # of connection points: 2
#     Edge 42, Type (0, 0), BuildingBlock: EZIPEK_clean_linker_0, # of connection points: 2
#     Edge 43, Type (0, 0), BuildingBlock: EZIPEK_clean_linker_0, # of connection points: 2
#     Edge 44, Type (0, 0), BuildingBlock: EZIPEK_clean_linker_0, # of connection points: 2
#     Edge 45, Type (0, 0), BuildingBlock: EZIPEK_clean_linker_0, # of connection points: 2
#     Edge 46, Type (0, 0), BuildingBlock: EZIPEK_clean_linker_0, # of connection points: 2
#     Edge 47, Type (0, 0), BuildingBlock: EZIPEK_clean_linker_0, # of connection points: 2
#     Edge 48, Type (0, 0), BuildingBlock: EZIPEK_clean_linker_0, # of connection points: 2
#     Edge 49, Type (0, 0), BuildingBlock: EZIPEK_clean_linker_0, # of connection points: 2
#     Edge 50, Type (0, 0), BuildingBlock: EZIPEK_clean_linker_0, # of connection points: 2
#     Edge 51, Type (0, 0), BuildingBlock: EZIPEK_clean_linker_0, # of connection points: 2
#     Edge 52, Type (0, 0), BuildingBlock: EZIPEK_clean_linker_0, # of connection points: 2
#     Edge 53, Type (0, 0), BuildingBlock: EZIPEK_clean_linker_0, # of connection points: 2
#     Edge 54, Type (0, 0), BuildingBlock: EZIPEK_clean_linker_0, # of connection points: 2
#     Edge 55, Type (0, 0), BuildingBlock: EZIPEK_clean_linker_0, # of connection points: 2
#     Edge 56, Type (0, 0), BuildingBlock: EZIPEK_clean_linker_0, # of connection points: 2
#     Edge 57, Type (0, 0), BuildingBlock: EZIPEK_clean_linker_0, # of connection points: 2
#     Edge 58, Type (0, 0), BuildingBlock: EZIPEK_clean_linker_0, # of connection points: 2
#     Edge 59, Type (0, 0), BuildingBlock: EZIPEK_clean_linker_0, # of connection points: 2
#     Edge 60, Type (0, 0), BuildingBlock: EZIPEK_clean_linker_0, # of connection points: 2
#     Edge 61, Type (0, 0), BuildingBlock: EZIPEK_clean_linker_0, # of connection points: 2
#     Edge 62, Type (0, 0), BuildingBlock: EZIPEK_clean_linker_0, # of connection points: 2
#     Edge 63, Type (0, 0), BuildingBlock: EZIPEK_clean_linker_0, # of connection points: 2
# Relax obj value: 0.160
# Max RMSD: 0.233
# Mean RMSD: 0.233
data_MOF--net-wiv--node1-KUMJIN_clean_sbu_0--edge1-EZIPEK_clean_linker_0
_symmetry_space_group_name_H-M    P1
_symmetry_Int_Tables_number       1
_symmetry_cell_setting            triclinic
loop_
_symmetry_equiv_pos_as_xyz
'x, y, z'
_cell_length_a     36.241885
_cell_length_b     36.282795
_cell_length_c     20.225295
_cell_angle_alpha  90.087547
_cell_angle_beta   89.973684
_cell_angle_gamma 90.286424
loop_
_atom_site_label
_atom_site_type_symbol
_atom_site_fract_x
_atom_site_fract_y
_atom_site_fract_z
_atom_type_partial_charge
Eu0 Eu 0.30852 0.10577 0.18703 0.0
C1 C 0.45181 0.06669 0.04771 0.0
C2 C 0.49741 0.10004 0.11317 0.0
C3 C 0.5173 0.05401 0.03599 0.0
C4 C 0.4605 0.0944 0.0926 0.0
C5 C 0.48077 0.04919 0.01375 0.0
C6 C 0.52503 0.07701 0.08937 0.0
C7 C 0.43577 0.02517 0.93641 0.0
N8 N 0.41619 0.06276 0.02693 0.0
C9 C 0.40779 0.04085 0.97408 0.0
C10 C 0.47236 0.03091 0.95462 0.0
Eu11 Eu 0.3748 0.1084 0.06225 0.0
N12 N 0.43492 0.12071 0.10335 0.0
C13 C 0.44654 0.1552 0.12117 0.0
C14 C 0.50669 0.13252 0.14696 0.0
C15 C 0.4813 0.161 0.14873 0.0
H16 H 0.37988 0.03799 0.9567 0.0
H17 H 0.48966 0.18824 0.16491 0.0
H18 H 0.5533 0.08047 0.10554 0.0
H19 H 0.42919 0.01015 0.89161 0.0
H20 H 0.43114 0.17885 0.10611 0.0
H21 H 0.19732 0.0006 0.1393 0.0
H22 H 0.53481 0.13799 0.16226 0.0
H23 H 0.30182 0.19546 0.25974 0.0
H24 H 0.25833 0.02606 0.13211 0.0
H25 H 0.25727 0.23844 0.29929 0.0
H26 H 0.54049 0.04265 0.01028 0.0
H27 H 0.14428 0.03295 0.18429 0.0
H28 H 0.11017 0.10193 0.24904 0.0
H29 H 0.49363 0.02159 0.92145 0.0
H30 H 0.12875 0.1762 0.28863 0.0
N31 N 0.24693 0.07816 0.17572 0.0
C32 C 0.2378 0.04337 0.15452 0.0
C33 C 0.17077 0.04628 0.18564 0.0
C34 C 0.17457 0.08175 0.20951 0.0
C35 C 0.20157 0.02817 0.15852 0.0
C36 C 0.21929 0.10009 0.19599 0.0
H37 H 0.19048 0.22839 0.2962 0.0
N38 N 0.26501 0.15619 0.21632 0.0
C39 C 0.247 0.21409 0.27428 0.0
C40 C 0.22927 0.1467 0.21348 0.0
C41 C 0.27336 0.18858 0.24962 0.0
C42 C 0.20871 0.20883 0.27265 0.0
C43 C 0.19524 0.17606 0.24867 0.0
O44 O 0.31921 0.1338 0.27652 0.0
O45 O 0.3686 0.12216 0.16867 0.0
O46 O 0.37818 0.05011 0.11501 0.0
O47 O 0.31843 0.04688 0.14919 0.0
O48 O 0.35957 0.08391 0.24094 0.0
O49 O 0.30808 0.07555 0.28667 0.0
O50 O 0.36 0.13389 0.96793 0.0
O51 O 0.31115 0.11064 0.06884 0.0
O52 O 0.30796 0.16276 0.14325 0.0
O53 O 0.36686 0.16717 0.1054 0.0
O54 O 0.33292 0.07343 1.0041 0.0
O55 O 0.41582 0.13648 1.00032 0.0
C56 C 0.38451 0.10477 0.21579 0.0
C57 C 0.32321 0.11448 0.38908 0.0
C58 C 0.30626 0.10298 0.51197 0.0
C59 C 0.31137 0.0908 0.44091 0.0
C60 C 0.29583 0.14229 0.50346 0.0
C61 C 0.33165 0.1509 0.40631 0.0
C62 C 0.31505 0.16549 0.46127 0.0
C63 C 0.35111 0.03085 0.1448 0.0
C64 C 0.31836 0.10611 0.3164 0.0
C65 C 0.14923 0.1588 0.26551 0.0
C66 C 0.13831 0.11068 0.24423 0.0
C67 C 0.30176 0.08845 0.0193 0.0
C68 C 0.40701 0.12945 0.88702 0.0
C69 C 0.38774 0.10227 0.85199 0.0
C70 C 0.3945 0.09701 0.78453 0.0
C71 C 0.42556 0.1139 0.75563 0.0
C72 C 0.43811 0.14608 0.85821 0.0
C73 C 0.44797 0.13741 0.79322 0.0
C74 C 0.33706 0.18318 0.12984 0.0
C75 C 0.39369 0.14193 0.9518 0.0
H76 H 0.30676 0.06298 0.42391 0.0
H77 H 0.27867 0.15774 0.53731 0.0
H78 H 0.34147 0.17054 0.37065 0.0
H79 H 0.31311 0.19513 0.46675 0.0
H80 H 0.36457 0.08823 0.87491 0.0
H81 H 0.43165 0.11013 0.70363 0.0
H82 H 0.45418 0.16627 0.88536 0.0
H83 H 0.47183 0.15046 0.7709 0.0
Eu84 Eu 0.09281 0.62805 0.96299 0.0
C85 C 0.10577 0.77614 0.86389 0.0
C86 C 0.05103 0.80998 0.76917 0.0
C87 C 0.12518 0.85182 0.80157 0.0
C88 C 0.0649 0.77423 0.82057 0.0
C89 C 0.13568 0.81513 0.85867 0.0
C90 C 0.08175 0.84954 0.75532 0.0
C91 C 0.17197 0.77939 0.93329 0.0
N92 N 0.11794 0.74463 0.88973 0.0
C93 C 0.14987 0.7469 0.9257 0.0
C94 C 0.1663 0.81257 0.89867 0.0
Eu95 Eu 0.0852 0.68979 0.84428 0.0
N96 N 0.04593 0.74231 0.82139 0.0
C97 C 0.0121 0.74138 0.79098 0.0
C98 C 0.01481 0.80619 0.74998 0.0
C99 C 0.99592 0.77273 0.76087 0.0
H100 H 0.15966 0.72256 0.94785 0.0
H101 H 0.96783 0.77041 0.7431 0.0
H102 H 0.07431 0.87128 0.72212 0.0
H103 H 0.19619 0.77764 0.9643 0.0
H104 H 0.99672 0.71587 0.78827 0.0
H105 H 0.21807 0.54196 0.92543 0.0
H106 H 0.00028 0.82963 0.73257 0.0
H107 H 0.00707 0.59921 0.01009 0.0
H108 H 0.18834 0.59707 0.96847 0.0
H109 H 0.98084 0.54373 0.0625 0.0
H110 H 0.1438 0.87495 0.79619 0.0
H111 H 0.18153 0.48536 0.9087 0.0
H112 H 0.12345 0.45118 0.93931 0.0
H113 H 0.18591 0.83508 0.90203 0.0
H114 H 0.06664 0.45014 1.00779 0.0
N115 N 0.13288 0.57526 0.95844 0.0
C116 C 0.17093 0.57382 0.95594 0.0
C117 C 0.16785 0.51018 0.92484 0.0
C118 C 0.13145 0.50951 0.94812 0.0
C119 C 0.18856 0.54206 0.93379 0.0
C120 C 0.11447 0.54292 0.96487 0.0
H121 H 0.01697 0.48625 0.06633 0.0
N122 N 0.05907 0.57426 0.9894 0.0
C123 C 0.00836 0.54305 0.04189 0.0
C124 C 0.07866 0.54268 0.98896 0.0
C125 C 0.02332 0.57429 0.01144 0.0
C126 C 0.02908 0.51087 0.04496 0.0
C127 C 0.06301 0.50958 0.01212 0.0
O128 O 0.05852 0.63829 0.05084 0.0
O129 O 0.07665 0.68956 0.96079 0.0
O130 O 0.14741 0.68578 0.84763 0.0
O131 O 0.15094 0.63697 0.91869 0.0
O132 O 0.12416 0.67569 0.0088 0.0
O133 O 0.11505 0.61706 0.05849 0.0
O134 O 0.09753 0.72181 0.76021 0.0
O135 O 0.08379 0.6259 0.85406 0.0
O136 O 0.03744 0.61671 0.9012 0.0
O137 O 0.02514 0.67432 0.86374 0.0
O138 O 0.11755 0.64549 0.78454 0.0
O139 O 0.05976 0.67716 0.74633 0.0
C140 C 0.09969 0.70137 1.0071 0.0
C141 C 0.07677 0.60453 0.14762 0.0
C142 C 0.09921 0.5848 0.25474 0.0
C143 C 0.10574 0.59946 0.19207 0.0
C144 C 0.06526 0.56539 0.26346 0.0
C145 C 0.04144 0.59152 0.16296 0.0
C146 C 0.03653 0.56939 0.21825 0.0
C147 C 0.16685 0.66031 0.87755 0.0
C148 C 0.085 0.62672 0.08971 0.0
C149 C 0.07989 0.47614 0.99593 0.0
C150 C 0.11242 0.47645 0.95873 0.0
C151 C 0.10522 0.61473 0.80704 0.0
C152 C 0.10252 0.69391 0.66049 0.0
C153 C 0.08871 0.6947 0.59536 0.0
C154 C 0.11249 0.69183 0.53487 0.0
C155 C 0.14816 0.70656 0.55999 0.0
C156 C 0.14031 0.68967 0.67077 0.0
C157 C 0.16344 0.69678 0.61979 0.0
C158 C 0.01422 0.63994 0.87079 0.0
C159 C 0.07938 0.70281 0.71754 0.0
H160 H 0.13236 0.61106 0.18 0.0
H161 H 0.05863 0.55044 0.30794 0.0
H162 H 0.01782 0.59833 0.13301 0.0
H163 H 0.0098 0.55727 0.22842 0.0
H164 H 0.05892 0.69573 0.59488 0.0
H165 H 0.16796 0.72129 0.53225 0.0
H166 H 0.15248 0.68799 0.71935 0.0
H167 H 0.19258 0.70101 0.62938 0.0
Eu168 Eu 0.70077 0.90428 0.18084 0.0
C169 C 0.54633 0.90905 0.0528 0.0
C170 C 0.51527 0.85837 0.10654 0.0
C171 C 0.47944 0.90694 0.05644 0.0
C172 C 0.54836 0.87564 0.08492 0.0
C173 C 0.51188 0.92331 0.03403 0.0
C174 C 0.48122 0.87501 0.09454 0.0
C175 C 0.54368 0.97335 0.98209 0.0
N176 N 0.57754 0.92907 0.04351 0.0
C177 C 0.57575 0.96277 0.01425 0.0
C178 C 0.51112 0.95404 0.99351 0.0
Eu179 Eu 0.63457 0.90024 0.06194 0.0
N180 N 0.58216 0.86226 0.10142 0.0
C181 C 0.58296 0.83135 0.14122 0.0
C182 C 0.51701 0.8258 0.14244 0.0
C183 C 0.55113 0.81229 0.15996 0.0
H184 H 0.60019 0.97958 0.00892 0.0
H185 H 0.55301 0.78816 0.1912 0.0
H186 H 0.45633 0.86339 0.11567 0.0
H187 H 0.54492 0.99569 0.94727 0.0
H188 H 0.60706 0.82209 0.16514 0.0
H189 H 0.78663 0.02569 0.25913 0.0
H190 H 0.49224 0.81185 0.15938 0.0
H191 H 0.73242 0.82578 0.0789 0.0
H192 H 0.73028 0.99571 0.2265 0.0
H193 H 0.78612 0.7882 0.07185 0.0
H194 H 0.45319 0.92001 0.04695 0.0
H195 H 0.84563 0.99318 0.26989 0.0
H196 H 0.88606 0.91931 0.29146 0.0
H197 H 0.48557 0.96222 0.97066 0.0
H198 H 0.88656 0.84695 0.2293 0.0
N199 N 0.75393 0.94383 0.2 0.0
C200 C 0.75488 0.97922 0.22437 0.0
C201 C 0.82103 0.97799 0.25876 0.0
C202 C 0.8229 0.94061 0.24823 0.0
C203 C 0.78765 0.99657 0.24755 0.0
C204 C 0.78498 0.92398 0.20354 0.0
H205 H 0.84387 0.8004 0.13247 0.0
N206 N 0.75422 0.86892 0.13829 0.0
C207 C 0.78818 0.8134 0.1004 0.0
C208 C 0.78554 0.881 0.16595 0.0
C209 C 0.75617 0.8362 0.10395 0.0
C210 C 0.8215 0.82 0.13452 0.0
C211 C 0.82471 0.85177 0.17157 0.0
O212 O 0.72964 0.8812 0.26237 0.0
O213 O 0.63802 0.90967 0.16957 0.0
O214 O 0.63101 0.95939 0.11044 0.0
O215 O 0.68439 0.96515 0.17085 0.0
O216 O 0.65533 0.87503 0.23977 0.0
O217 O 0.69477 0.92723 0.28273 0.0
O218 O 0.64444 0.93198 0.97269 0.0
O219 O 0.69708 0.91517 0.0656 0.0
O220 O 0.69031 0.84311 0.16692 0.0
O221 O 0.6477 0.84049 0.08147 0.0
O222 O 0.68189 0.87128 0.00885 0.0
O223 O 0.61209 0.88078 0.96883 0.0
C224 C 0.62584 0.88957 0.21702 0.0
C225 C 0.70575 0.88253 0.37015 0.0
C226 C 0.69859 0.88366 0.49867 0.0
C227 C 0.70575 0.90087 0.43172 0.0
C228 C 0.70766 0.84405 0.48656 0.0
C229 C 0.70039 0.84469 0.36888 0.0
C230 C 0.70298 0.82546 0.42685 0.0
C231 C 0.65343 0.97964 0.14854 0.0
C232 C 0.7162 0.90213 0.30806 0.0
C233 C 0.8632 0.86507 0.22334 0.0
C234 C 0.86262 0.91044 0.26321 0.0
C235 C 0.70896 0.89415 0.01667 0.0
C236 C 0.60368 0.92326 0.88211 0.0
C237 C 0.59156 0.89841 0.83389 0.0
C238 C 0.58705 0.91167 0.77001 0.0
C239 C 0.57492 0.94869 0.76419 0.0
C240 C 0.60115 0.96123 0.87014 0.0
C241 C 0.58271 0.97358 0.81446 0.0
C242 C 0.66921 0.82445 0.12553 0.0
C243 C 0.62572 0.90874 0.93607 0.0
H244 H 0.71263 0.92953 0.42403 0.0
H245 H 0.71745 0.82514 0.52379 0.0
H246 H 0.69977 0.82953 0.32287 0.0
H247 H 0.70528 0.79571 0.42503 0.0
H248 H 0.59396 0.86905 0.84192 0.0
H249 H 0.56614 0.96034 0.71763 0.0
H250 H 0.6134 0.98117 0.90298 0.0
H251 H 0.57815 0.0026 0.80702 0.0
Eu252 Eu 0.90639 0.38365 0.96751 0.0
C253 C 0.87986 0.21938 0.85581 0.0
C254 C 0.94862 0.19093 0.78904 0.0
C255 C 0.87523 0.14494 0.77825 0.0
C256 C 0.92521 0.22416 0.83499 0.0
C257 C 0.85369 0.17948 0.83021 0.0
C258 C 0.92419 0.15056 0.75732 0.0
C259 C 0.80409 0.2137 0.87276 0.0
N260 N 0.86329 0.24947 0.87868 0.0
C261 C 0.82549 0.24692 0.87935 0.0
C262 C 0.81742 0.18045 0.84779 0.0
Eu263 Eu 0.90166 0.30665 0.86509 0.0
N264 N 0.94269 0.25395 0.85777 0.0
C265 C 0.98007 0.25132 0.86584 0.0
C266 C 0.98613 0.19328 0.79995 0.0
C267 C 0.00096 0.22172 0.83968 0.0
H268 H 0.8108 0.27158 0.8708 0.0
H269 H 0.03014 0.22106 0.85084 0.0
H270 H 0.93867 0.12908 0.73102 0.0
H271 H 0.77455 0.21496 0.87813 0.0
H272 H 0.9949 0.2718 0.8942 0.0
H273 H 0.77629 0.43794 0.86202 0.0
H274 H 0.00339 0.17055 0.78641 0.0
H275 H 0.99047 0.42901 0.9709 0.0
H276 H 0.81603 0.39243 0.90347 0.0
H277 H 0.01689 0.48517 0.92736 0.0
H278 H 0.85971 0.12134 0.7607 0.0
H279 H 0.79922 0.50087 0.83914 0.0
H280 H 0.85167 0.54447 0.83737 0.0
H281 H 0.79903 0.15772 0.83648 0.0
H282 H 0.91662 0.55786 0.86027 0.0
N283 N 0.86301 0.42733 0.91956 0.0
C284 C 0.82708 0.41954 0.90293 0.0
C285 C 0.81741 0.48047 0.8604 0.0
C286 C 0.85433 0.48836 0.87285 0.0
C287 C 0.80395 0.44574 0.87528 0.0
C288 C 0.87676 0.46115 0.90322 0.0
H289 H 0.9784 0.53567 0.88877 0.0
N290 N 0.93518 0.44183 0.94048 0.0
C291 C 0.98748 0.48252 0.9306 0.0
C292 C 0.91348 0.46865 0.9147 0.0
C293 C 0.97174 0.44968 0.95261 0.0
C294 C 0.96571 0.51014 0.90521 0.0
C295 C 0.9282 0.5037 0.89802 0.0
O296 O 0.94996 0.3944 0.03453 0.0
O297 O 0.92162 0.32081 0.97149 0.0
O298 O 0.84738 0.31172 0.92607 0.0
O299 O 0.84759 0.3655 0.98811 0.0
O300 O 0.89201 0.34195 0.04939 0.0
O301 O 0.89586 0.41758 0.05548 0.0
O302 O 0.86021 0.30943 0.79059 0.0
O303 O 0.88419 0.36686 0.87052 0.0
O304 O 0.95832 0.38331 0.89789 0.0
O305 O 0.96279 0.32416 0.86349 0.0
O306 O 0.91299 0.35233 0.78846 0.0
O307 O 0.91703 0.2972 0.75976 0.0
C308 C 0.90739 0.31189 0.02953 0.0
C309 C 0.93335 0.39634 0.14396 0.0
C310 C 0.90763 0.37666 0.24852 0.0
C311 C 0.90411 0.39657 0.18982 0.0
C312 C 0.94046 0.35657 0.25975 0.0
C313 C 0.96568 0.37634 0.15748 0.0
C314 C 0.96798 0.35505 0.21322 0.0
C315 C 0.83024 0.33589 0.96505 0.0
C316 C 0.92929 0.41138 0.07765 0.0
C317 C 0.90558 0.53094 0.87174 0.0
C318 C 0.8687 0.52329 0.85884 0.0
C319 C 0.89524 0.37928 0.81431 0.0
C320 C 0.87078 0.30872 0.67356 0.0
C321 C 0.89404 0.30833 0.61597 0.0
C322 C 0.87917 0.30076 0.5483 0.0
C323 C 0.84833 0.27589 0.56651 0.0
C324 C 0.83274 0.30566 0.66486 0.0
C325 C 0.82124 0.28652 0.61067 0.0
C326 C 0.97642 0.35801 0.86334 0.0
C327 C 0.88403 0.30769 0.74199 0.0
H328 H 0.87872 0.4111 0.17938 0.0
H329 H 0.94558 0.34134 0.30429 0.0
H330 H 0.98853 0.37518 0.12298 0.0
H331 H 0.99082 0.33668 0.22017 0.0
H332 H 0.92263 0.3156 0.62411 0.0
H333 H 0.84284 0.25015 0.54429 0.0
H334 H 0.81327 0.3096 0.7049 0.0
H335 H 0.79418 0.27372 0.61032 0.0
Eu336 Eu 0.31663 0.40087 0.10175 0.0
C337 C 0.4688 0.42475 0.15461 0.0
C338 C 0.49573 0.3654 0.13006 0.0
C339 C 0.53275 0.42011 0.11822 0.0
C340 C 0.46572 0.38677 0.15369 0.0
C341 C 0.50225 0.44157 0.1341 0.0
C342 C 0.52919 0.38217 0.11335 0.0
C343 C 0.47451 0.50032 0.14973 0.0
N344 N 0.43978 0.44544 0.17536 0.0
C345 C 0.44445 0.48314 0.1793 0.0
C346 C 0.50416 0.47963 0.12885 0.0
Eu347 Eu 0.38547 0.41226 0.21258 0.0
N348 N 0.4333 0.37066 0.17234 0.0
C349 C 0.43005 0.33302 0.16578 0.0
C350 C 0.49172 0.32749 0.12477 0.0
C351 C 0.45876 0.3112 0.14294 0.0
H352 H 0.42382 0.50104 0.20047 0.0
H353 H 0.45504 0.28173 0.1377 0.0
H354 H 0.55278 0.36601 0.09807 0.0
H355 H 0.47426 0.52958 0.14233 0.0
H356 H 0.40477 0.31873 0.17038 0.0
H357 H 0.22004 0.51853 0.08886 0.0
H358 H 0.51383 0.31037 0.107 0.0
H359 H 0.28516 0.3392 0.08649 0.0
H360 H 0.27393 0.48727 0.128 0.0
H361 H 0.25035 0.26459 0.03453 0.0
H362 H 0.55927 0.43277 0.11015 0.0
H363 H 0.16694 0.4871 0.04542 0.0
H364 H 0.12235 0.41391 0.01857 0.0
H365 H 0.5284 0.49324 0.10914 0.0
H366 H 0.13058 0.33603 0.02847 0.0
N367 N 0.2591 0.43374 0.09608 0.0
C368 C 0.25364 0.47075 0.1033 0.0
C369 C 0.19134 0.47123 0.05228 0.0
C370 C 0.18993 0.43303 0.04829 0.0
C371 C 0.2217 0.48904 0.08115 0.0
C372 C 0.23047 0.4127 0.07765 0.0
H373 H 0.18595 0.27913 0.04779 0.0
N374 N 0.26958 0.3512 0.09222 0.0
C375 C 0.24424 0.29081 0.05703 0.0
C376 C 0.23386 0.36573 0.08806 0.0
C377 C 0.27524 0.31409 0.07103 0.0
C378 C 0.20641 0.29932 0.06262 0.0
C379 C 0.19628 0.33558 0.06972 0.0
O380 O 0.33252 0.36227 0.02666 0.0
O381 O 0.37773 0.3852 0.11487 0.0
O382 O 0.37502 0.46866 0.15719 0.0
O383 O 0.32703 0.46233 0.08511 0.0
O384 O 0.36627 0.41909 0.03967 0.0
O385 O 0.30186 0.41202 0.9975 0.0
O386 O 0.40608 0.45382 0.27882 0.0
O387 O 0.32151 0.42334 0.21261 0.0
O388 O 0.31033 0.35482 0.17799 0.0
O389 O 0.36684 0.35285 0.22792 0.0
O390 O 0.34393 0.39822 0.29431 0.0
O391 O 0.41586 0.39684 0.30198 0.0
C392 C 0.3922 0.3987 0.06202 0.0
C393 C 0.32564 0.3712 0.91148 0.0
C394 C 0.30534 0.37999 0.79253 0.0
C395 C 0.31921 0.39477 0.85637 0.0
C396 C 0.2811 0.35116 0.81888 0.0
C397 C 0.32177 0.33324 0.90243 0.0
C398 C 0.29602 0.32282 0.85651 0.0
C399 C 0.35367 0.48276 0.10993 0.0
C400 C 0.32238 0.3841 0.97909 0.0
C401 C 0.1533 0.35415 0.04102 0.0
C402 C 0.14917 0.40341 0.02961 0.0
C403 C 0.31274 0.40989 0.27235 0.0
C404 C 0.39514 0.43621 0.3859 0.0
C405 C 0.39498 0.40833 0.43357 0.0
C406 C 0.36685 0.40731 0.48025 0.0
C407 C 0.33859 0.43415 0.47788 0.0
C408 C 0.36878 0.4647 0.38881 0.0
C409 C 0.33998 0.46268 0.43298 0.0
C410 C 0.33617 0.33618 0.20843 0.0
C411 C 0.41515 0.4306 0.32442 0.0
H412 H 0.32633 0.42343 0.86301 0.0
H413 H 0.25211 0.3512 0.8104 0.0
H414 H 0.32927 0.31359 0.94037 0.0
H415 H 0.28322 0.29593 0.8594 0.0
H416 H 0.4157 0.38686 0.43288 0.0
H417 H 0.3163 0.43481 0.51298 0.0
H418 H 0.36841 0.48708 0.35342 0.0
H419 H 0.31878 0.48356 0.43279 0.0
Eu420 Eu 0.40009 0.62442 0.78978 0.0
C421 C 0.36544 0.77356 0.92198 0.0
C422 C 0.43408 0.81237 0.97795 0.0
C423 C 0.35564 0.84641 1.00208 0.0
C424 C 0.41303 0.77474 0.93549 0.0
C425 C 0.33626 0.80931 0.9534 0.0
C426 C 0.40542 0.84955 0.01069 0.0
C427 C 0.28872 0.76637 0.93699 0.0
N428 N 0.35049 0.74061 0.90851 0.0
C429 C 0.31338 0.73671 0.92322 0.0
C430 C 0.29939 0.8025 0.94919 0.0
Eu431 Eu 0.39621 0.6905 0.90603 0.0
N432 N 0.43335 0.74554 0.91831 0.0
C433 C 0.47099 0.74779 0.92605 0.0
C434 C 0.47205 0.80951 0.98156 0.0
C435 C 0.48956 0.77825 0.95542 0.0
H436 H 0.30251 0.7093 0.93042 0.0
H437 H 0.5194 0.77746 0.95756 0.0
H438 H 0.41634 0.87282 0.03608 0.0
H439 H 0.26017 0.76078 0.9462 0.0
H440 H 0.48864 0.72606 0.90889 0.0
H441 H 0.30749 0.52513 0.91574 0.0
H442 H 0.48867 0.83205 0.99803 0.0
H443 H 0.48146 0.6129 0.71576 0.0
H444 H 0.32263 0.58438 0.86736 0.0
H445 H 0.50184 0.56079 0.64631 0.0
H446 H 0.3379 0.86676 0.02477 0.0
H447 H 0.35139 0.47406 0.90799 0.0
H448 H 0.40215 0.44807 0.84157 0.0
H449 H 0.27961 0.8226 0.96645 0.0
H450 H 0.44088 0.45541 0.74295 0.0
N451 N 0.37785 0.56935 0.83849 0.0
C452 C 0.34302 0.56308 0.86382 0.0
C453 C 0.35909 0.50062 0.88822 0.0
C454 C 0.39104 0.50537 0.85026 0.0
C455 C 0.33395 0.52921 0.89192 0.0
C456 C 0.40122 0.54079 0.82897 0.0
H457 H 0.47435 0.4994 0.66277 0.0
N458 N 0.44523 0.58003 0.77383 0.0
C459 C 0.48302 0.55611 0.68702 0.0
C460 C 0.43232 0.54556 0.78823 0.0
C461 C 0.4724 0.58523 0.72774 0.0
C462 C 0.46744 0.52132 0.69674 0.0
C463 C 0.44476 0.51501 0.75188 0.0
O464 O 0.40939 0.61652 0.68412 0.0
O465 O 0.4163 0.68708 0.79435 0.0
O466 O 0.34258 0.69231 0.84041 0.0
O467 O 0.33983 0.63343 0.80439 0.0
O468 O 0.38406 0.66949 0.71706 0.0
O469 O 0.3666 0.58532 0.73587 0.0
O470 O 0.35894 0.67864 0.98493 0.0
O471 O 0.37834 0.63083 0.89128 0.0
O472 O 0.4583 0.62057 0.84456 0.0
O473 O 0.45755 0.67204 0.91101 0.0
O474 O 0.41163 0.64139 0.96929 0.0
O475 O 0.41272 0.70226 0.01098 0.0
C476 C 0.40052 0.69834 0.73888 0.0
C477 C 0.36351 0.5852 0.62192 0.0
C478 C 0.34882 0.60912 0.51544 0.0
C479 C 0.35421 0.61513 0.58275 0.0
C480 C 0.34479 0.57312 0.49082 0.0
C481 C 0.36019 0.54928 0.59806 0.0
C482 C 0.34965 0.54326 0.53307 0.0
C483 C 0.3231 0.66442 0.81528 0.0
C484 C 0.38453 0.59023 0.68129 0.0
C485 C 0.43264 0.47964 0.76991 0.0
C486 C 0.40918 0.47518 0.82409 0.0
C487 C 0.39287 0.61579 0.9426 0.0
C488 C 0.37174 0.68031 0.10122 0.0
C489 C 0.3944 0.68828 0.15849 0.0
C490 C 0.37772 0.70221 0.22159 0.0
C491 C 0.34912 0.7247 0.19144 0.0
C492 C 0.33361 0.68111 0.11057 0.0
C493 C 0.32181 0.70768 0.1534 0.0
C494 C 0.47481 0.64196 0.8902 0.0
C495 C 0.38332 0.68453 0.03147 0.0
H496 H 0.35927 0.6429 0.60069 0.0
H497 H 0.3419 0.56822 0.4382 0.0
H498 H 0.36858 0.52624 0.62836 0.0
H499 H 0.34911 0.51561 0.5146 0.0
H500 H 0.42332 0.68205 0.15463 0.0
H501 H 0.34502 0.75217 0.20501 0.0
H502 H 0.31428 0.67133 0.07356 0.0
H503 H 0.29442 0.71902 0.1484 0.0
Eu504 Eu 0.69192 0.5879 0.08119 0.0
C505 C 0.54226 0.57095 0.21881 0.0
C506 C 0.50803 0.62329 0.17903 0.0
C507 C 0.47644 0.57481 0.23921 0.0
C508 C 0.54191 0.60605 0.19107 0.0
C509 C 0.50991 0.55614 0.24718 0.0
C510 C 0.47547 0.60627 0.19941 0.0
C511 C 0.54247 0.49944 0.26603 0.0
N512 N 0.57361 0.55075 0.21514 0.0
C513 C 0.57354 0.51461 0.23519 0.0
C514 C 0.5112 0.52099 0.27533 0.0
Eu515 Eu 0.62756 0.58678 0.19738 0.0
N516 N 0.57387 0.62112 0.16841 0.0
C517 C 0.5728 0.65327 0.13266 0.0
C518 C 0.50739 0.65645 0.14392 0.0
C519 C 0.53995 0.67162 0.12105 0.0
H520 H 0.59837 0.49825 0.2323 0.0
H521 H 0.53968 0.69685 0.09253 0.0
H522 H 0.44976 0.61673 0.18101 0.0
H523 H 0.5426 0.47121 0.28288 0.0
H524 H 0.59644 0.66458 0.10928 0.0
H525 H 0.77198 0.46521 0.993 0.0
H526 H 0.48185 0.67031 0.13312 0.0
H527 H 0.7262 0.66588 0.1785 0.0
H528 H 0.71662 0.49727 0.0211 0.0
H529 H 0.78216 0.69888 0.19459 0.0
H530 H 0.45078 0.56273 0.25642 0.0
H531 H 0.83304 0.4952 0.98941 0.0
H532 H 0.87678 0.56719 0.97108 0.0
H533 H 0.48701 0.50888 0.29834 0.0
H534 H 0.88129 0.63714 0.04092 0.0
N535 N 0.74264 0.54672 0.05632 0.0
C536 C 0.74208 0.51227 0.02777 0.0
C537 C 0.80884 0.51118 0.99859 0.0
C538 C 0.81208 0.54831 0.00978 0.0
C539 C 0.77435 0.4939 1.00636 0.0
C540 C 0.77472 0.56522 0.05573 0.0
H541 H 0.8408 0.68308 0.14038 0.0
N542 N 0.74692 0.61972 0.1261 0.0
C543 C 0.78342 0.67349 0.16646 0.0
C544 C 0.77768 0.60671 0.09837 0.0
C545 C 0.74997 0.65298 0.15849 0.0
C546 C 0.8172 0.66487 0.13599 0.0
C547 C 0.81877 0.63379 0.09698 0.0
O548 O 0.71568 0.62962 0.01913 0.0
O549 O 0.6312 0.60441 0.09179 0.0
O550 O 0.61971 0.53363 0.13297 0.0
O551 O 0.67724 0.52737 0.09011 0.0
O552 O 0.64285 0.57634 0.00887 0.0
O553 O 0.70075 0.57695 0.97535 0.0
O554 O 0.6325 0.55241 0.28467 0.0
O555 O 0.69 0.5723 0.19562 0.0
O556 O 0.67938 0.6472 0.10324 0.0
O557 O 0.63975 0.64779 0.19263 0.0
O558 O 0.67319 0.61409 0.25694 0.0
O559 O 0.60198 0.60577 0.28784 0.0
C560 C 0.61575 0.59237 0.03846 0.0
C561 C 0.70469 0.62987 0.90351 0.0
C562 C 0.69605 0.62791 0.77625 0.0
C563 C 0.69967 0.61065 0.84345 0.0
C564 C 0.71337 0.66514 0.78618 0.0
C565 C 0.70642 0.66801 0.90323 0.0
C566 C 0.71278 0.68536 0.84451 0.0
C567 C 0.64389 0.51399 0.0989 0.0
C568 C 0.71357 0.61011 0.96516 0.0
C569 C 0.85668 0.62025 0.04426 0.0
C570 C 0.85338 0.57677 0.99881 0.0
C571 C 0.70068 0.59248 0.24703 0.0
C572 C 0.60204 0.56868 0.38546 0.0
C573 C 0.60392 0.59813 0.42928 0.0
C574 C 0.59454 0.59311 0.49532 0.0
C575 C 0.57652 0.55958 0.51296 0.0
C576 C 0.58748 0.53471 0.40494 0.0
C577 C 0.57282 0.53096 0.46775 0.0
C578 C 0.66047 0.66488 0.14858 0.0
C579 C 0.61123 0.57517 0.3176 0.0
H580 H 0.6983 0.58135 0.8525 0.0
H581 H 0.72616 0.68133 0.7476 0.0
H582 H 0.70872 0.68391 0.94843 0.0
H583 H 0.72084 0.71416 0.84457 0.0
H584 H 0.61408 0.62439 0.41193 0.0
H585 H 0.56677 0.55403 0.56224 0.0
H586 H 0.58606 0.5117 0.37118 0.0
H587 H 0.55925 0.50567 0.48204 0.0
Eu588 Eu 0.60249 0.36306 0.80838 0.0
C589 C 0.62589 0.21159 0.90926 0.0
C590 C 0.56881 0.17231 0.99245 0.0
C591 C 0.64663 0.13584 0.96951 0.0
C592 C 0.58331 0.20966 0.94501 0.0
C593 C 0.65778 0.17468 0.91622 0.0
C594 C 0.60098 0.13453 0.00962 0.0
C595 C 0.69108 0.21247 0.83826 0.0
N596 N 0.63508 0.2432 0.88042 0.0
C597 C 0.6658 0.2428 0.84131 0.0
C598 C 0.68862 0.17989 0.87692 0.0
Eu599 Eu 0.59763 0.29462 0.92348 0.0
N600 N 0.56126 0.23828 0.9339 0.0
C601 C 0.52441 0.23304 0.94435 0.0
C602 C 0.53136 0.1734 1.00525 0.0
C603 C 0.5098 0.20217 0.9791 0.0
H604 H 0.67128 0.26651 0.81142 0.0
H605 H 0.48016 0.2004 0.98525 0.0
H606 H 0.59292 0.11112 0.0391 0.0
H607 H 0.71443 0.21497 0.80521 0.0
H608 H 0.50511 0.25167 0.92226 0.0
H609 H 0.72137 0.45844 0.8543 0.0
H610 H 0.51796 0.15009 0.02683 0.0
H611 H 0.52857 0.39351 0.73252 0.0
H612 H 0.69286 0.403 0.80981 0.0
H613 H 0.49743 0.45148 0.71355 0.0
H614 H 0.66584 0.11339 0.97574 0.0
H615 H 0.68409 0.50822 0.89989 0.0
H616 H 0.62347 0.53941 0.89461 0.0
H617 H 0.70976 0.159 0.87412 0.0
H618 H 0.56062 0.53938 0.85013 0.0
N619 N 0.63733 0.41831 0.83698 0.0
C620 C 0.67496 0.42337 0.83168 0.0
C621 C 0.67069 0.48327 0.88243 0.0
C622 C 0.63266 0.4816 0.87352 0.0
C623 C 0.69197 0.45506 0.85678 0.0
C624 C 0.61655 0.44834 0.85021 0.0
H625 H 0.51542 0.5078 0.78113 0.0
N626 N 0.56749 0.41678 0.79932 0.0
C627 C 0.51921 0.45092 0.74924 0.0
C628 C 0.58071 0.448 0.82816 0.0
C629 C 0.53778 0.418 0.75831 0.0
C630 C 0.52961 0.48211 0.78569 0.0
C631 C 0.56113 0.48126 0.82433 0.0
O632 O 0.59002 0.36703 0.70398 0.0
O633 O 0.60712 0.29965 0.809 0.0
O634 O 0.65907 0.30477 0.92348 0.0
O635 O 0.6612 0.35261 0.84879 0.0
O636 O 0.56735 0.32116 0.74991 0.0
O637 O 0.64656 0.37441 0.73707 0.0
O638 O 0.61297 0.26441 0.00875 0.0
O639 O 0.5936 0.35731 0.91632 0.0
O640 O 0.54495 0.36841 0.86417 0.0
O641 O 0.53667 0.30988 0.90215 0.0
O642 O 0.62774 0.33783 0.98704 0.0
O643 O 0.57116 0.30493 0.02133 0.0
C644 C 0.58527 0.2909 0.75954 0.0
C645 C 0.6271 0.40623 0.64082 0.0
C646 C 0.61573 0.40573 0.52337 0.0
C647 C 0.63705 0.39503 0.57779 0.0
C648 C 0.59202 0.43639 0.53307 0.0
C649 C 0.60663 0.43847 0.64891 0.0
C650 C 0.58998 0.45434 0.59408 0.0
C651 C 0.67733 0.33101 0.89245 0.0
C652 C 0.62364 0.37609 0.68794 0.0
C653 C 0.57574 0.51369 0.85197 0.0
C654 C 0.61147 0.51372 0.87742 0.0
C655 C 0.61369 0.36792 0.96533 0.0
C656 C 0.61256 0.29212 0.11176 0.0
C657 C 0.59404 0.29938 0.17184 0.0
C658 C 0.61152 0.30411 0.23899 0.0
C659 C 0.65069 0.2921 0.22715 0.0
C660 C 0.65082 0.29235 0.11013 0.0
C661 C 0.66967 0.29209 0.16788 0.0
C662 C 0.5235 0.34385 0.89653 0.0
C663 C 0.59256 0.2814 0.05092 0.0
H664 H 0.65742 0.374 0.57529 0.0
H665 H 0.57276 0.44521 0.49587 0.0
H666 H 0.60068 0.4492 0.6974 0.0
H667 H 0.57201 0.47784 0.60038 0.0
H668 H 0.56503 0.30094 0.16215 0.0
H669 H 0.66959 0.28235 0.2642 0.0
H670 H 0.66627 0.28976 0.0645 0.0
H671 H 0.69922 0.28756 0.16692 0.0
Eu672 Eu 0.79911 0.59584 0.67563 0.0
C673 C 0.93561 0.55186 0.49415 0.0
C674 C 0.98726 0.58161 0.54898 0.0
C675 C 0.99776 0.54492 0.4516 0.0
C676 C 0.94896 0.57666 0.54041 0.0
C677 C 0.95985 0.53789 0.44594 0.0
C678 C 0.0116 0.56303 0.50718 0.0
C679 C 0.90715 0.51556 0.38545 0.0
N680 N 0.89864 0.54632 0.48932 0.0
C681 C 0.88435 0.52732 0.43678 0.0
C682 C 0.94511 0.52012 0.39051 0.0
Eu683 Eu 0.86152 0.58611 0.55293 0.0
N684 N 0.92472 0.59865 0.57219 0.0
C685 C 0.93728 0.6288 0.6067 0.0
C686 C -0.00039 0.60779 0.59484 0.0
C687 C 0.97479 0.63323 0.62006 0.0
H688 H 0.85504 0.52412 0.43041 0.0
H689 H 0.9843 0.65537 0.65182 0.0
H690 H 0.04098 0.56516 0.51359 0.0
H691 H 0.89531 0.50406 0.34096 0.0
H692 H 0.91872 0.64841 0.62813 0.0
H693 H 0.69972 0.47916 0.71385 0.0
H694 H 0.02805 0.60976 0.60978 0.0
H695 H 0.77194 0.67914 0.58071 0.0
H696 H 0.75309 0.50636 0.65792 0.0
H697 H 0.72091 0.72089 0.58058 0.0
H698 H 0.01651 0.53666 0.41293 0.0
H699 H 0.65107 0.51613 0.7653 0.0
H700 H 0.61664 0.59046 0.79843 0.0
H701 H 0.96271 0.51094 0.35045 0.0
H702 H 0.61872 0.66509 0.73907 0.0
N703 N 0.74249 0.56101 0.68492 0.0
C704 C 0.73571 0.52413 0.6868 0.0
C705 C 0.67597 0.52955 0.7494 0.0
C706 C 0.67764 0.56765 0.74848 0.0
C707 C 0.70366 0.50869 0.71723 0.0
C708 C 0.71514 0.58343 0.70179 0.0
H709 H 0.66342 0.7115 0.64372 0.0
N710 N 0.74793 0.63649 0.63829 0.0
C711 C 0.71756 0.69529 0.6074 0.0
C712 C 0.71664 0.6268 0.66854 0.0
C713 C 0.74789 0.67008 0.60676 0.0
C714 C 0.68435 0.69036 0.64318 0.0
C715 C 0.67945 0.65814 0.67834 0.0
O716 O 0.77608 0.627 0.7541 0.0
O717 O 0.86172 0.58551 0.66544 0.0
O718 O 0.86763 0.53016 0.61441 0.0
O719 O 0.81519 0.53339 0.67985 0.0
O720 O 0.84617 0.62538 0.72951 0.0
O721 O 0.79602 0.57292 0.7779 0.0
O722 O 0.84852 0.59779 0.44996 0.0
O723 O 0.79909 0.59506 0.55999 0.0
O724 O 0.81528 0.65461 0.65968 0.0
O725 O 0.86007 0.64675 0.58072 0.0
O726 O 0.81543 0.55002 0.50891 0.0
O727 O 0.88269 0.63597 0.50456 0.0
C728 C 0.87491 0.60778 0.71004 0.0
C729 C 0.79245 0.61931 0.86557 0.0
C730 C 0.80102 0.61123 0.9927 0.0
C731 C 0.79508 0.59735 0.923 0.0
C732 C 0.78978 0.65081 0.98785 0.0
C733 C 0.79627 0.65727 0.87115 0.0
C734 C 0.793 0.67292 0.93219 0.0
C735 C 0.84472 0.51453 0.65967 0.0
C736 C 0.7816 0.60328 0.80069 0.0
C737 C 0.64094 0.64583 0.73168 0.0
C738 C 0.64003 0.59953 0.76927 0.0
C739 C 0.78695 0.57094 0.51649 0.0
C740 C 0.89388 0.62878 0.38971 0.0
C741 C 0.87769 0.62441 0.32752 0.0
C742 C 0.89587 0.60365 0.27899 0.0
C743 C 0.93283 0.59379 0.28973 0.0
C744 C 0.9319 0.62305 0.39671 0.0
C745 C 0.95128 0.60584 0.34588 0.0
C746 C 0.84028 0.66778 0.61946 0.0
C747 C 0.86912 0.62728 0.44703 0.0
H748 H 0.79207 0.56871 0.90936 0.0
H749 H 0.77939 0.6672 0.0282 0.0
H750 H 0.79659 0.6752 0.82836 0.0
H751 H 0.78929 0.70247 0.93607 0.0
H752 H 0.84877 0.63121 0.32131 0.0
H753 H 0.94724 0.57556 0.2563 0.0
H754 H 0.9457 0.62841 0.4431 0.0
H755 H 0.97943 0.59762 0.35262 0.0
Eu756 Eu 0.60624 0.13185 0.44748 0.0
C757 C 0.61383 0.27953 0.34371 0.0
C758 C 0.54973 0.31314 0.26949 0.0
C759 C 0.62233 0.35937 0.29043 0.0
C760 C 0.57018 0.27617 0.31052 0.0
C761 C 0.64009 0.32119 0.33826 0.0
C762 C 0.57608 0.35537 0.25457 0.0
C763 C 0.68365 0.28546 0.39949 0.0
N764 N 0.62888 0.24883 0.36715 0.0
C765 C 0.66309 0.25177 0.39489 0.0
C766 C 0.67357 0.3193 0.37038 0.0
Eu767 Eu 0.5976 0.19399 0.32475 0.0
N768 N 0.55303 0.24335 0.31222 0.0
C769 C 0.5169 0.24194 0.29137 0.0
C770 C 0.51241 0.30829 0.26178 0.0
C771 C 0.49662 0.27354 0.27305 0.0
H772 H 0.67524 0.22754 0.41458 0.0
H773 H 0.46745 0.27042 0.26442 0.0
H774 H 0.56377 0.37873 0.23034 0.0
H775 H 0.70939 0.28491 0.42552 0.0
H776 H 0.50181 0.21642 0.28824 0.0
H777 H 0.71265 0.0351 0.34684 0.0
H778 H 0.4952 0.33153 0.25086 0.0
H779 H 0.52433 0.11099 0.51407 0.0
H780 H 0.6946 0.09174 0.39881 0.0
H781 H 0.50718 0.05944 0.58644 0.0
H782 H 0.63831 0.38442 0.28461 0.0
H783 H 0.67054 0.98165 0.34749 0.0
H784 H 0.61289 0.95326 0.39242 0.0
H785 H 0.69171 0.34303 0.37256 0.0
H786 H 0.56489 0.95734 0.48021 0.0
N787 N 0.6379 0.07591 0.4162 0.0
C788 C 0.67358 0.07113 0.39453 0.0
C789 C 0.66122 0.0078 0.36663 0.0
C790 C 0.62764 0.01073 0.39992 0.0
C791 C 0.68498 0.03787 0.36639 0.0
C792 C 0.61663 0.04547 0.42422 0.0
H793 H 0.54175 0.0001 0.57657 0.0
N794 N 0.56833 0.08157 0.46922 0.0
C795 C 0.52755 0.05534 0.54809 0.0
C796 C 0.5839 0.04826 0.45865 0.0
C797 C 0.53758 0.08459 0.50768 0.0
C798 C 0.54581 0.02181 0.54102 0.0
C799 C 0.56884 0.01669 0.48715 0.0
O800 O 0.58356 0.14437 0.54343 0.0
O801 O 0.58809 0.19291 0.44153 0.0
O802 O 0.6582 0.17872 0.32594 0.0
O803 O 0.6657 0.14438 0.42088 0.0
O804 O 0.6349 0.18127 0.49354 0.0
O805 O 0.63134 0.10806 0.53614 0.0
O806 O 0.63589 0.21851 0.25718 0.0
O807 O 0.61554 0.13492 0.33976 0.0
O808 O 0.54763 0.12228 0.39582 0.0
O809 O 0.53896 0.17372 0.33228 0.0
O810 O 0.58452 0.14329 0.25888 0.0
O811 O 0.58222 0.2022 0.21999 0.0
C812 C 0.60996 0.20637 0.48839 0.0
C813 C 0.59315 0.10386 0.63198 0.0
C814 C 0.6067 0.08161 0.74059 0.0
C815 C 0.61839 0.08817 0.67593 0.0
C816 C 0.56872 0.07337 0.74961 0.0
C817 C 0.55579 0.10659 0.65076 0.0
C818 C 0.54316 0.08769 0.70583 0.0
C819 C 0.67904 0.16012 0.36709 0.0
C820 C 0.60734 0.1241 0.57503 0.0
C821 C 0.57871 0.98201 0.46294 0.0
C822 C 0.60625 0.9796 0.41453 0.0
C823 C 0.6016 0.11761 0.29041 0.0
C824 C 0.63383 0.2032 0.14322 0.0
C825 C 0.61402 0.1931 0.08565 0.0
C826 C 0.6295 0.19058 0.01638 0.0
C827 C 0.66604 0.21015 0.02247 0.0
C828 C 0.6718 0.20733 0.1396 0.0
C829 C 0.6875 0.21244 0.07909 0.0
C830 C 0.52662 0.14221 0.35489 0.0
C831 C 0.61503 0.21464 0.20524 0.0
H832 H 0.64767 0.08966 0.66532 0.0
H833 H 0.55804 0.06346 0.7962 0.0
H834 H 0.53614 0.12252 0.62278 0.0
H835 H 0.51401 0.08702 0.71756 0.0
H836 H 0.58586 0.18676 0.09888 0.0
H837 H 0.68099 0.2228 0.98212 0.0
H838 H 0.68855 0.21242 0.18307 0.0
H839 H 0.71577 0.22219 0.07616 0.0
Eu840 Eu 0.19029 0.39884 0.68044 0.0
C841 C 0.04501 0.42869 0.54792 0.0
C842 C 0.00642 0.38785 0.61263 0.0
C843 C 0.97878 0.43776 0.55179 0.0
C844 C 0.04131 0.39817 0.58779 0.0
C845 C 0.01314 0.44532 0.52284 0.0
C846 C 0.97605 0.41011 0.59951 0.0
C847 C 0.05116 0.47287 0.43798 0.0
N848 N 0.07876 0.43716 0.52305 0.0
C849 C 0.08244 0.46012 0.47036 0.0
C850 C 0.01635 0.46496 0.4642 0.0
Eu851 Eu 0.12781 0.39957 0.55317 0.0
N852 N 0.07053 0.37556 0.59332 0.0
C853 C 0.0651 0.33981 0.61385 0.0
C854 C 0.0021 0.35327 0.64199 0.0
C855 C 0.03083 0.32812 0.63745 0.0
H856 H 0.10934 0.46545 0.44934 0.0
H857 H 0.0269 0.29988 0.65308 0.0
H858 H 0.94955 0.40357 0.62064 0.0
H859 H 0.05393 0.48757 0.39176 0.0
H860 H 0.08692 0.31986 0.61397 0.0
H861 H 0.27676 0.51946 0.75888 0.0
H862 H 0.97577 0.34444 0.66174 0.0
H863 H 0.20993 0.30672 0.72713 0.0
H864 H 0.22101 0.48891 0.7253 0.0
H865 H 0.2628 0.26443 0.73232 0.0
H866 H 0.95404 0.45163 0.53526 0.0
H867 H 0.33674 0.48942 0.76669 0.0
H868 H 0.38408 0.41917 0.761 0.0
H869 H 0.99197 0.47187 0.43684 0.0
H870 H 0.379 0.3421 0.73821 0.0
N871 N 0.24416 0.43596 0.70678 0.0
C872 C 0.24565 0.47242 0.72516 0.0
C873 C 0.31276 0.47327 0.75492 0.0
C874 C 0.3159 0.43604 0.74265 0.0
C875 C 0.27836 0.49046 0.74707 0.0
C876 C 0.2744 0.41546 0.71537 0.0
H877 H 0.32628 0.28302 0.714 0.0
N878 N 0.23899 0.35305 0.69156 0.0
C879 C 0.26751 0.29249 0.71677 0.0
C880 C 0.27207 0.36842 0.69734 0.0
C881 C 0.2366 0.31686 0.71197 0.0
C882 C 0.3044 0.30275 0.7065 0.0
C883 C 0.31209 0.33976 0.70481 0.0
O884 O 0.17107 0.36312 0.758 0.0
O885 O 0.13149 0.38184 0.65676 0.0
O886 O 0.11991 0.45641 0.60977 0.0
O887 O 0.17676 0.46039 0.66036 0.0
O888 O 0.13767 0.41617 0.73395 0.0
O889 O 0.19882 0.41414 0.78464 0.0
O890 O 0.13263 0.39654 0.44563 0.0
O891 O 0.19095 0.39911 0.56242 0.0
O892 O 0.19896 0.34534 0.62042 0.0
O893 O 0.14235 0.34009 0.57349 0.0
O894 O 0.16934 0.43729 0.49963 0.0
O895 O 0.10745 0.35194 0.50104 0.0
C896 C 0.11356 0.39717 0.70366 0.0
C897 C 0.18428 0.37188 0.87069 0.0
C898 C 0.20393 0.38045 0.99036 0.0
C899 C 0.18966 0.39523 0.92702 0.0
C900 C 0.23081 0.35451 0.96233 0.0
C901 C 0.19197 0.33447 0.8767 0.0
C902 C 0.2184 0.32583 0.92204 0.0
C903 C 0.14378 0.47513 0.64852 0.0
C904 C 0.17839 0.38665 0.80509 0.0
C905 C 0.35505 0.35937 0.73177 0.0
C906 C 0.35759 0.40781 0.75154 0.0
C907 C 0.20052 0.42219 0.51458 0.0
C908 C 0.09508 0.35424 0.38885 0.0
C909 C 0.11464 0.34457 0.33328 0.0
C910 C 0.09826 0.34759 0.27176 0.0
C911 C 0.05997 0.35255 0.26741 0.0
C912 C 0.05694 0.35957 0.38653 0.0
C913 C 0.03913 0.35742 0.32546 0.0
C914 C 0.17301 0.32477 0.59277 0.0
C915 C 0.11768 0.36391 0.44412 0.0
H916 H 0.18014 0.42324 0.92266 0.0
H917 H 0.25876 0.35337 0.97679 0.0
H918 H 0.18515 0.31453 0.83868 0.0
H919 H 0.23252 0.29978 0.91907 0.0
H920 H 0.1445 0.34222 0.33707 0.0
H921 H 0.0477 0.35728 0.21953 0.0
H922 H 0.04164 0.36719 0.43047 0.0
H923 H 0.01006 0.36334 0.32318 0.0
Eu924 Eu 0.41081 0.88082 0.45298 0.0
C925 C 0.36344 0.73561 0.31587 0.0
C926 C 0.4311 0.69156 0.27929 0.0
C927 C 0.35252 0.65356 0.27965 0.0
C928 C 0.41027 0.73269 0.30479 0.0
C929 C 0.3338 0.69705 0.30437 0.0
C930 C 0.40162 0.6497 0.26602 0.0
C931 C 0.28901 0.74415 0.28456 0.0
N932 N 0.34831 0.77077 0.31992 0.0
C933 C 0.31162 0.77589 0.29768 0.0
C934 C 0.29733 0.70672 0.29672 0.0
Eu935 Eu 0.39573 0.81797 0.33491 0.0
N936 N 0.43089 0.76173 0.3233 0.0
C937 C 0.46843 0.75769 0.32573 0.0
C938 C 0.46926 0.6952 0.27538 0.0
C939 C 0.48696 0.72654 0.30074 0.0
H940 H 0.33631 0.78713 0.31548 0.0
H941 H 0.51683 0.72657 0.30234 0.0
H942 H 0.4117 0.62278 0.25482 0.0
H943 H 0.26409 0.74892 0.25674 0.0
H944 H 0.48582 0.77872 0.34675 0.0
H945 H 0.30465 0.9796 0.36231 0.0
H946 H 0.48628 0.67283 0.26056 0.0
H947 H 0.4935 0.89754 0.51142 0.0
H948 H 0.32504 0.92089 0.40401 0.0
H949 H 0.50677 0.94817 0.58775 0.0
H950 H 0.33447 0.63038 0.26979 0.0
H951 H 0.34793 0.03208 0.3551 0.0
H952 H 0.40589 0.0604 0.39778 0.0
H953 H 0.27737 0.68567 0.28357 0.0
H954 H 0.4567 0.05365 0.47753 0.0
N955 N 0.38188 0.93719 0.4173 0.0
C956 C 0.34524 0.94258 0.4021 0.0
C957 C 0.35754 0.00578 0.37267 0.0
C958 C 0.39297 0.00198 0.39792 0.0
C959 C 0.33318 0.97623 0.37665 0.0
C960 C 0.40518 0.96657 0.41722 0.0
H961 H 0.47634 0.00817 0.57078 0.0
N962 N 0.45376 0.92858 0.45825 0.0
C963 C 0.49109 0.95327 0.54341 0.0
C964 C 0.43984 0.96268 0.4452 0.0
C965 C 0.48296 0.9247 0.50036 0.0
C966 C 0.47513 0.98756 0.5326 0.0
C967 C 0.45505 0.99386 0.47557 0.0
O968 O 0.42978 0.88301 0.55375 0.0
O969 O 0.39877 0.81819 0.45136 0.0
O970 O 0.34935 0.81152 0.41139 0.0
O971 O 0.34907 0.86998 0.45022 0.0
O972 O 0.44235 0.8341 0.50663 0.0
O973 O 0.38047 0.91389 0.52501 0.0
O974 O 0.36679 0.8334 0.24845 0.0
O975 O 0.40602 0.88007 0.34303 0.0
O976 O 0.46504 0.88433 0.39323 0.0
O977 O 0.4579 0.83314 0.32794 0.0
O978 O 0.35737 0.86352 0.30251 0.0
O979 O 0.41924 0.80607 0.23572 0.0
C980 C 0.42181 0.80547 0.49573 0.0
C981 C 0.4003 0.91605 0.63601 0.0
C982 C 0.3825 0.89043 0.73863 0.0
C983 C 0.37786 0.89223 0.67107 0.0
C984 C 0.40606 0.9159 0.7714 0.0
C985 C 0.42421 0.94075 0.66783 0.0
C986 C 0.4258 0.94187 0.73594 0.0
C987 C 0.33104 0.83954 0.43689 0.0
C988 C 0.40659 0.909 0.56824 0.0
C989 C 0.44401 0.02927 0.45636 0.0
C990 C 0.41479 0.03304 0.41193 0.0
C991 C 0.37786 0.89224 0.31099 0.0
C992 C 0.37616 0.8094 0.14617 0.0
C993 C 0.39865 0.79718 0.09352 0.0
C994 C 0.38117 0.79118 0.0287 0.0
C995 C 0.3504 0.76791 0.05102 0.0
C996 C 0.33748 0.80838 0.13813 0.0
C997 C 0.32418 0.78388 0.09222 0.0
C998 C 0.47856 0.8608 0.34967 0.0
C999 C 0.39175 0.82302 0.207 0.0
H1000 H 0.3612 0.87171 0.64556 0.0
H1001 H 0.41195 0.91398 0.8234 0.0
H1002 H 0.44221 0.95854 0.64011 0.0
H1003 H 0.44446 0.96071 0.76078 0.0
H1004 H 0.42815 0.80101 0.09916 0.0
H1005 H 0.34263 0.74288 0.02828 0.0
H1006 H 0.31834 0.82014 0.17338 0.0
H1007 H 0.29575 0.77469 0.09331 0.0
Eu1008 Eu 0.80672 0.90463 0.58823 0.0
C1009 C 0.95583 0.93653 0.72678 0.0
C1010 C 0.99812 0.89889 0.6632 0.0
C1011 C 0.02153 0.95027 0.72682 0.0
C1012 C 0.96225 0.9061 0.6874 0.0
C1013 C 0.98579 0.95788 0.74963 0.0
C1014 C 0.02722 0.92253 0.68011 0.0
C1015 C 0.94307 0.99197 0.81727 0.0
N1016 N 0.92078 0.94376 0.7465 0.0
C1017 C 0.91396 0.97088 0.79153 0.0
C1018 C 0.97905 0.98582 0.79556 0.0
Eu1019 Eu 0.87397 0.90359 0.70857 0.0
N1020 N 0.93366 0.88318 0.67365 0.0
C1021 C 0.94078 0.84944 0.64582 0.0
C1022 C 0.00405 0.8671 0.62571 0.0
C1023 C 0.97561 0.84135 0.62026 0.0
H1024 H 0.88618 0.97568 0.80875 0.0
H1025 H 0.98086 0.81449 0.59952 0.0
H1026 H 0.05463 0.91829 0.66046 0.0
H1027 H 0.93797 0.01264 0.85449 0.0
H1028 H 0.91994 0.82853 0.64056 0.0
H1029 H 0.72971 0.02702 0.49764 0.0
H1030 H 0.03117 0.86047 0.60663 0.0
H1031 H 0.77246 0.83166 0.70021 0.0
H1032 H 0.78383 0.99482 0.53367 0.0
H1033 H 0.71718 0.79482 0.70618 0.0
H1034 H 0.04505 0.96534 0.74562 0.0
H1035 H 0.66877 -0.00146 0.49289 0.0
H1036 H 0.62179 0.92506 0.48402 0.0
H1037 H 0.00145 0.00246 0.81511 0.0
H1038 H 0.61899 0.85465 0.54669 0.0
N1039 N 0.75638 0.94647 0.56859 0.0
C1040 C 0.75789 0.98053 0.53927 0.0
C1041 C 0.69168 0.98211 0.50648 0.0
C1042 C 0.68657 0.94559 0.52312 0.0
C1043 C 0.72645 -0.00118 0.51415 0.0
C1044 C 0.72423 0.92796 0.56733 0.0
H1045 H 0.66073 0.80698 0.64203 0.0
N1046 N 0.75266 0.87251 0.63386 0.0
C1047 C 0.71652 0.81917 0.67535 0.0
C1048 C 0.72236 0.88482 0.60417 0.0
C1049 C 0.74916 0.84137 0.67234 0.0
C1050 C 0.68397 0.82572 0.63896 0.0
C1051 C 0.68208 0.85699 0.60029 0.0
O1052 O 0.77692 0.87746 0.5116 0.0
O1053 O 0.86939 0.90844 0.5999 0.0
O1054 O 0.88024 0.96141 0.6547 0.0
O1055 O 0.8222 0.96545 0.60798 0.0
O1056 O 0.85151 0.87698 0.52465 0.0
O1057 O 0.81149 0.92338 0.4836 0.0
O1058 O 0.86831 0.89796 0.81407 0.0
O1059 O 0.81052 0.89873 0.70386 0.0
O1060 O 0.81119 0.84456 0.60483 0.0
O1061 O 0.86204 0.84469 0.67201 0.0
O1062 O 0.8313 0.93786 0.76612 0.0
O1063 O 0.89298 0.8535 0.75833 0.0
C1064 C 0.88127 0.88862 0.55174 0.0
C1065 C 0.79688 0.87631 0.4006 0.0
C1066 C 0.80812 0.87914 0.27263 0.0
C1067 C 0.80688 0.89481 0.34217 0.0
C1068 C 0.7909 0.84159 0.27988 0.0
C1069 C 0.78804 0.83926 0.39756 0.0
C1070 C 0.78477 0.82229 0.33786 0.0
C1071 C 0.85492 0.98059 0.62035 0.0
C1072 C 0.78962 0.89698 0.46302 0.0
C1073 C 0.64348 0.87167 0.55066 0.0
C1074 C 0.64562 0.91647 0.5099 0.0
C1075 C 0.80076 0.92057 0.75297 0.0
C1076 C 0.90899 0.86094 0.87089 0.0
C1077 C 0.89268 0.85906 0.93327 0.0
C1078 C 0.90842 0.87916 0.98504 0.0
C1079 C 0.94477 0.89246 0.97812 0.0
C1080 C 0.94565 0.87269 0.8645 0.0
C1081 C 0.96384 0.88732 0.91936 0.0
C1082 C 0.83692 0.82706 0.63658 0.0
C1083 C 0.88345 0.86549 0.81642 0.0
H1084 H 0.81453 0.92264 0.35539 0.0
H1085 H 0.7805 0.82475 0.23996 0.0
H1086 H 0.77896 0.82413 0.44041 0.0
H1087 H 0.77408 0.79433 0.33604 0.0
H1088 H 0.86435 0.84944 0.93764 0.0
H1089 H 0.95785 0.90884 0.01635 0.0
H1090 H 0.95862 0.87389 0.81646 0.0
H1091 H 0.99117 0.89858 0.91542 0.0
Eu1092 Eu 0.90797 0.12759 0.30856 0.0
C1093 C 0.86871 0.27631 0.44469 0.0
C1094 C 0.93599 0.31462 0.50126 0.0
C1095 C 0.86007 0.35519 0.50182 0.0
C1096 C 0.91497 0.27656 0.46409 0.0
C1097 C 0.84045 0.31565 0.46155 0.0
C1098 C 0.90861 0.3549 0.52266 0.0
C1099 C 0.79241 0.27304 0.44627 0.0
N1100 N 0.85369 0.24458 0.42662 0.0
C1101 C 0.81646 0.24209 0.43743 0.0
C1102 C 0.80364 0.30959 0.45371 0.0
Eu1103 Eu 0.89772 0.19387 0.42576 0.0
N1104 N 0.93514 0.24816 0.4433 0.0
C1105 C 0.97232 0.2534 0.43695 0.0
C1106 C 0.97413 0.31222 0.5014 0.0
C1107 C 0.99143 0.28341 0.46673 0.0
H1108 H 0.80585 0.21482 0.44549 0.0
H1109 H 0.02114 0.28462 0.46138 0.0
H1110 H 0.92062 0.37931 0.54245 0.0
H1111 H 0.76361 0.26852 0.45336 0.0
H1112 H 0.98831 0.23422 0.4082 0.0
H1113 H 0.78293 0.05656 0.41439 0.0
H1114 H 0.99065 0.33484 0.51902 0.0
H1115 H 0.98176 0.08932 0.24994 0.0
H1116 H 0.81675 0.10831 0.37322 0.0
H1117 H 0.00159 0.02783 0.22322 0.0
H1118 H 0.84308 0.3786 0.5144 0.0
H1119 H 0.81219 0.99571 0.42348 0.0
H1120 H 0.86636 0.95583 0.40281 0.0
H1121 H 0.78389 0.33106 0.46449 0.0
H1122 H 0.92825 0.94801 0.35556 0.0
N1123 N 0.86696 0.07884 0.35026 0.0
C1124 C 0.83075 0.0824 0.37086 0.0
C1125 C 0.82775 0.01875 0.40375 0.0
C1126 C 0.86398 0.01443 0.38227 0.0
C1127 C 0.81102 0.0528 0.39752 0.0
C1128 C 0.88316 0.04518 0.35567 0.0
H1129 H 0.97741 0.97328 0.28295 0.0
N1130 N 0.9373 0.07052 0.30885 0.0
C1131 C 0.98172 0.0309 0.26075 0.0
C1132 C 0.91873 0.0408 0.33257 0.0
C1133 C 0.96837 0.06589 0.27281 0.0
C1134 C 0.96626 0.00048 0.29178 0.0
C1135 C 0.93421 0.00522 0.32852 0.0
O1136 O 0.931 0.12688 0.20952 0.0
O1137 O 0.90096 0.19082 0.31136 0.0
O1138 O 0.8494 0.20102 0.35233 0.0
O1139 O 0.84879 0.14422 0.30416 0.0
O1140 O 0.94486 0.17269 0.25985 0.0
O1141 O 0.87637 0.10327 0.22721 0.0
O1142 O 0.86422 0.18818 0.51029 0.0
O1143 O 0.90581 0.13171 0.42026 0.0
O1144 O 0.96198 0.12131 0.36774 0.0
O1145 O 0.95972 0.17594 0.42483 0.0
O1146 O 0.85961 0.14985 0.46636 0.0
O1147 O 0.92204 0.20342 0.52717 0.0
C1148 C 0.92554 0.20227 0.26891 0.0
C1149 C 0.90704 0.08709 0.12681 0.0
C1150 C 0.89111 0.08346 0.01084 0.0
C1151 C 0.88128 0.09132 0.07631 0.0
C1152 C 0.9223 0.06027 1.00123 0.0
C1153 C 0.93997 0.06824 0.11439 0.0
C1154 C 0.94618 0.05253 0.05302 0.0
C1155 C 0.83161 0.17448 0.32019 0.0
C1156 C 0.90212 0.11076 0.1843 0.0
C1157 C 0.91574 0.97505 0.35584 0.0
C1158 C 0.88063 0.97959 0.38273 0.0
C1159 C 0.8796 0.12107 0.45933 0.0
C1160 C 0.87941 0.19525 0.62323 0.0
C1161 C 0.90394 0.20099 0.67769 0.0
C1162 C 0.8902 0.20358 0.74676 0.0
C1163 C 0.85659 0.22571 0.73447 0.0
C1164 C 0.84146 0.19522 0.63593 0.0
C1165 C 0.82984 0.21357 0.69078 0.0
C1166 C 0.97783 0.14522 0.40881 0.0
C1167 C 0.89036 0.19386 0.55318 0.0
H1168 H 0.85616 0.10569 0.08759 0.0
H1169 H 0.93143 0.05131 0.95313 0.0
H1170 H 0.96189 0.06722 0.14955 0.0
H1171 H 0.97148 0.0376 0.04376 0.0
H1172 H 0.93292 0.20034 0.66791 0.0
H1173 H 0.84578 0.24627 0.7656 0.0
H1174 H 0.82099 0.18855 0.59874 0.0
H1175 H 0.80143 0.2224 0.69514 0.0
Eu1176 Eu 0.18598 0.09005 0.60183 0.0
C1177 C 0.03568 0.10184 0.66761 0.0
C1178 C 0.0226 0.16703 0.66476 0.0
C1179 C 0.98007 0.12372 0.61342 0.0
C1180 C 0.04483 0.13739 0.68541 0.0
C1181 C 0.00184 0.09444 0.63548 0.0
C1182 C 0.9912 0.15994 0.62637 0.0
C1183 C 0.01373 0.02988 0.6488 0.0
N1184 N 0.05928 0.07439 0.68332 0.0
C1185 C 0.04706 0.03867 0.68017 0.0
C1186 C 0.9912 0.05788 0.62576 0.0
Eu1187 Eu 0.11904 0.09336 0.72261 0.0
N1188 N 0.07561 0.14319 0.7223 0.0
C1189 C 0.08122 0.17706 0.75082 0.0
C1190 C 0.03353 0.20294 0.68169 0.0
C1191 C 0.06271 0.2078 0.72612 0.0
H1192 H 0.06351 0.0167 0.69991 0.0
H1193 H 0.07104 0.23499 0.74171 0.0
H1194 H 0.97569 0.1823 0.60577 0.0
H1195 H 0.00552 0.00163 0.64086 0.0
H1196 H 0.1037 0.18121 0.78533 0.0
H1197 H 0.25283 0.96955 0.47829 0.0
H1198 H 0.01843 0.22665 0.66397 0.0
H1199 H 0.22603 0.16177 0.70335 0.0
H1200 H 0.2021 0.00562 0.51715 0.0
H1201 H 0.28394 0.19349 0.71392 0.0
H1202 H 0.95492 0.11873 0.58582 0.0
H1203 H 0.31807 0.98697 0.49599 0.0
H1204 H 0.37458 0.04646 0.51676 0.0
H1205 H 0.96533 0.05093 0.60226 0.0
H1206 H 0.38397 0.11637 0.58557 0.0
N1207 N 0.23335 0.04854 0.56256 0.0
C1208 C 0.2292 0.01643 0.52707 0.0
C1209 C 0.29633 0.00562 0.5086 0.0
C1210 C 0.30495 0.03996 0.53251 0.0
C1211 C 0.25913 0.99517 0.50318 0.0
C1212 C 0.26708 0.06308 0.56722 0.0
H1213 H 0.34217 0.17273 0.66362 0.0
N1214 N 0.24324 0.11919 0.63846 0.0
C1215 C 0.28333 0.16889 0.68358 0.0
C1216 C 0.27253 0.10458 0.60889 0.0
C1217 C 0.24881 0.15006 0.67691 0.0
C1218 C 0.31692 0.1574 0.6552 0.0
C1219 C 0.31717 0.12545 0.6182 0.0
O1220 O 0.20025 0.13354 0.53473 0.0
O1221 O 0.12658 0.10738 0.6201 0.0
O1222 O 0.1184 0.03775 0.65714 0.0
O1223 O 0.17652 0.02923 0.61783 0.0
O1224 O 0.1341 0.07794 0.53865 0.0
O1225 O 0.1795 0.08133 0.49412 0.0
O1226 O 0.11803 0.04815 0.79485 0.0
O1227 O 0.18191 0.08175 0.72033 0.0
O1228 O 0.1834 0.14991 0.6145 0.0
O1229 O 0.13828 0.15397 0.69432 0.0
O1230 O 0.16213 0.11784 0.79164 0.0
O1231 O 0.08442 0.09706 0.80959 0.0
C1232 C 0.10918 0.09559 0.56976 0.0
C1233 C 0.18775 0.1328 0.4185 0.0
C1234 C 0.19439 0.11838 0.29609 0.0
C1235 C 0.17355 0.11546 0.35987 0.0
C1236 C 0.23124 0.11415 0.32333 0.0
C1237 C 0.2181 0.15543 0.41049 0.0
C1238 C 0.24276 0.14245 0.36536 0.0
C1239 C 0.14282 0.01667 0.62468 0.0
C1240 C 0.18602 0.11618 0.48398 0.0
C1241 C 0.35688 0.10406 0.58049 0.0
C1242 C 0.35103 0.06076 0.53612 0.0
C1243 C 0.19207 0.10127 0.77351 0.0
C1244 C 0.09492 0.06043 0.90356 0.0
C1245 C 0.11372 0.08598 0.94341 0.0
C1246 C 0.11145 0.08333 0.01257 0.0
C1247 C 0.08996 0.05549 0.04146 0.0
C1248 C 0.07359 0.03257 0.93302 0.0
C1249 C 0.07092 0.03033 1.00177 0.0
C1250 C 0.16097 0.16939 0.64975 0.0
C1251 C 0.09341 0.06462 0.83168 0.0
H1252 H 0.1471 0.10161 0.36402 0.0
H1253 H 0.25157 0.09947 0.29767 0.0
H1254 H 0.22739 0.17469 0.44805 0.0
H1255 H 0.26893 0.15509 0.36157 0.0
H1256 H 0.12988 0.10786 0.92094 0.0
H1257 H 0.08821 0.05329 0.09466 0.0
H1258 H 0.05828 0.01311 0.90279 0.0
H1259 H 0.05391 0.00922 0.02434 0.0
Eu1260 Eu 0.10013 0.86811 0.31212 0.0
C1261 C 0.12726 0.7134 0.43133 0.0
C1262 C 0.0561 0.68019 0.48292 0.0
C1263 C 0.12981 0.63543 0.49391 0.0
C1264 C 0.08065 0.71585 0.44569 0.0
C1265 C 0.15266 0.67269 0.45174 0.0
C1266 C 0.08052 0.63918 0.51141 0.0
C1267 C 0.20382 0.70993 0.42549 0.0
N1268 N 0.14477 0.74505 0.41917 0.0
C1269 C 0.18264 0.74323 0.42386 0.0
C1270 C 0.18956 0.67499 0.43929 0.0
Eu1271 Eu 0.10471 0.80005 0.43366 0.0
N1272 N 0.06251 0.74815 0.42863 0.0
C1273 C 0.02396 0.74797 0.42436 0.0
C1274 C 0.01848 0.68651 0.48424 0.0
C1275 C 0.00378 0.71737 0.45081 0.0
H1276 H 0.1974 0.76752 0.438 0.0
H1277 H 0.97415 0.71788 0.44448 0.0
H1278 H 0.06679 0.61691 0.53477 0.0
H1279 H 0.23321 0.71152 0.42731 0.0
H1280 H 0.04923 0.7631 0.4227 0.0
H1281 H 0.19202 0.98692 0.37481 0.0
H1282 H 8e-05 0.66566 0.50338 0.0
H1283 H 0.02375 0.86837 0.22057 0.0
H1284 H 0.17645 0.92395 0.36506 0.0
H1285 H 0.99484 0.91049 0.14107 0.0
H1286 H 0.14538 0.6114 0.50793 0.0
H1287 H 0.15118 0.03418 0.32916 0.0
H1288 H 0.09629 0.04804 0.26291 0.0
H1289 H 0.20754 0.65185 0.44853 0.0
H1290 H 0.05429 0.02608 0.17851 0.0
N1291 N 0.12098 0.93117 0.32692 0.0
C1292 C 0.15488 0.94225 0.35165 0.0
C1293 C 0.14247 0.00558 0.32858 0.0
C1294 C 0.10976 0.99452 0.29819 0.0
C1295 C 0.1654 0.97913 0.35466 0.0
C1296 C 0.0994 0.95691 0.29794 0.0
H1297 H 0.01273 0.97575 0.1378 0.0
N1298 N 0.05886 0.90954 0.26218 0.0
C1299 C 0.01474 0.92078 0.17611 0.0
C1300 C 0.06907 0.94553 0.26133 0.0
C1301 C 0.03146 0.89707 0.22134 0.0
C1302 C 0.02537 0.95756 0.17362 0.0
C1303 C 0.05243 0.9704 0.21698 0.0
O1304 O 0.10632 0.85467 0.20824 0.0
O1305 O 0.10724 0.80455 0.31844 0.0
O1306 O 0.15848 0.80742 0.38007 0.0
O1307 O 0.15506 0.86804 0.36571 0.0
O1308 O 0.06479 0.82286 0.2627 0.0
O1309 O 0.15095 0.88236 0.25746 0.0
O1310 O 0.14217 0.79768 0.51549 0.0
O1311 O 0.09587 0.8621 0.42358 0.0
O1312 O 0.04172 0.87473 0.36197 0.0
O1313 O 0.04508 0.82607 0.43591 0.0
O1314 O 0.1304 0.84591 0.49661 0.0
O1315 O 0.08373 0.78537 0.53443 0.0
C1316 C 0.08365 0.7933 0.27327 0.0
C1317 C 0.13981 0.89481 0.1434 0.0
C1318 C 0.11058 0.89733 0.03575 0.0
C1319 C 0.13179 0.87836 0.08247 0.0
C1320 C 0.10295 0.93489 0.04704 0.0
C1321 C 0.13624 0.93305 0.1503 0.0
C1322 C 0.11811 0.95314 0.10151 0.0
C1323 C 0.17492 0.83959 0.3804 0.0
C1324 C 0.13818 0.87057 0.20122 0.0
C1325 C 0.06461 0.00695 0.21496 0.0
C1326 C 0.08964 0.01953 0.26136 0.0
C1327 C 0.11387 0.87456 0.47445 0.0
C1328 C 0.12743 0.78622 0.62973 0.0
C1329 C 0.10305 0.79355 0.68317 0.0
C1330 C 0.11335 0.79522 0.75587 0.0
C1331 C 0.15003 0.77603 0.75748 0.0
C1332 C 0.16429 0.78 0.64273 0.0
C1333 C 0.17485 0.77261 0.70577 0.0
C1334 C 0.02608 0.85421 0.40988 0.0
C1335 C 0.11667 0.79109 0.55934 0.0
H1336 H 0.13659 0.84906 0.0762 0.0
H1337 H 0.08505 0.95006 0.01425 0.0
H1338 H 0.14477 0.94679 0.19516 0.0
H1339 H 0.11338 0.98231 0.10836 0.0
H1340 H 0.07634 0.8013 0.66402 0.0
H1341 H 0.163 0.76479 0.80062 0.0
H1342 H 0.18448 0.77716 0.60354 0.0
H1343 H 0.20252 0.76257 0.71481 0.0
C1344 C 0.3354 0.93701 0.24375 0.0
C1345 C 0.37178 0.92734 0.26659 0.0
C1346 C 0.39375 0.97736 0.19114 0.0
C1347 C 0.35782 0.99304 0.18209 0.0
N1348 N 0.29548 0.98868 0.22783 0.0
N1349 N 0.43384 0.95147 0.27411 0.0
C1350 C 0.32875 0.97278 0.21494 0.0
C1351 C 0.40045 0.95139 0.24396 0.0
N1352 N 0.30558 0.91487 0.25615 0.0
N1353 N 0.42178 0.98561 0.14875 0.0
H1354 H 0.43977 0.93461 0.31406 0.0
H1355 H 0.45446 0.97044 0.2621 0.0
H1356 H 0.41758 -9e-05 0.10494 0.0
H1357 H 0.44782 0.97371 0.15313 0.0
H1358 H 0.28075 0.91812 0.23073 0.0
H1359 H 0.30459 0.89414 0.29139 0.0
H1360 H 0.27376 0.97504 0.25132 0.0
H1361 H 0.29215 0.01683 0.23138 0.0
C1362 C 0.94654 0.59188 0.74112 0.0
C1363 C 0.91171 0.60921 0.7542 0.0
C1364 C 0.94391 0.64267 0.84771 0.0
C1365 C 0.97872 0.62687 0.83336 0.0
N1366 N 0.01295 0.58755 0.76028 0.0
N1367 N 0.87906 0.63034 0.85017 0.0
C1368 C 0.97962 0.60113 0.77915 0.0
C1369 C 0.911 0.62961 0.81529 0.0
N1370 N 0.94827 0.5658 0.69307 0.0
N1371 N 0.94136 0.66965 0.89458 0.0
H1372 H 0.8589 0.61089 0.83956 0.0
H1373 H 0.87643 0.6425 0.89666 0.0
H1374 H 0.96364 0.67825 0.92344 0.0
H1375 H 0.91734 0.68493 0.90148 0.0
H1376 H 0.97059 0.54861 0.6843 0.0
H1377 H 0.92546 0.55922 0.66455 0.0
H1378 H 0.01786 0.57125 0.71899 0.0
H1379 H 0.03692 0.59501 0.78423 0.0
C1380 C 0.61361 0.01387 0.23437 0.0
C1381 C 0.6394 0.01571 0.18136 0.0
C1382 C 0.63998 0.08414 0.19768 0.0
C1383 C 0.6157 0.08199 0.25397 0.0
N1384 N 0.57134 0.04355 0.30986 0.0
N1385 N 0.6787 0.05353 0.11458 0.0
C1386 C 0.59978 0.04652 0.2663 0.0
C1387 C 0.65262 0.05127 0.1632 0.0
N1388 N 0.60508 0.98021 0.2596 0.0
N1389 N 0.65089 0.11809 0.1765 0.0
H1390 H 0.6874 0.03049 0.08795 0.0
H1391 H 0.69313 0.07748 0.10275 0.0
H1392 H 0.64694 0.14147 0.20529 0.0
H1393 H 0.6637 0.12311 0.13135 0.0
H1394 H 0.58374 0.97473 0.29237 0.0
H1395 H 0.62213 0.95779 0.25192 0.0
H1396 H 0.55425 0.02058 0.31445 0.0
H1397 H 0.56328 0.06546 0.33929 0.0
C1398 C 0.03569 0.34033 0.79408 0.0
C1399 C 0.01151 0.36813 0.81972 0.0
C1400 C 0.05124 0.41279 0.75552 0.0
C1401 C 0.0779 0.38558 0.74024 0.0
N1402 N 0.09684 0.32261 0.75728 0.0
N1403 N 0.0004 0.43407 0.81942 0.0
C1404 C 0.07112 0.34949 0.76549 0.0
C1405 C 0.021 0.40515 0.79969 0.0
N1406 N 0.02257 0.3056 0.78508 0.0
N1407 N 0.05302 0.44602 0.72393 0.0
H1408 H 0.97353 0.43127 0.83489 0.0
H1409 H 0.00926 0.4613 0.81523 0.0
H1410 H 0.07441 0.45328 0.69271 0.0
H1411 H 0.03136 0.46475 0.722 0.0
H1412 H 0.03867 0.28412 0.76767 0.0
H1413 H 0.99462 0.30103 0.77677 0.0
H1414 H 0.09524 0.29744 0.78199 0.0
H1415 H 0.11982 0.32575 0.72705 0.0
C1416 C 0.39914 0.52232 0.03876 0.0
C1417 C 0.36468 0.51917 0.07287 0.0
C1418 C 0.34678 0.57865 0.01858 0.0
C1419 C 0.38147 0.58159 0.98471 0.0
N1420 N 0.44129 0.55562 0.9659 0.0
N1421 N 0.31175 0.5524 0.11052 0.0
C1422 C 0.40799 0.55358 0.99743 0.0
C1423 C 0.3401 0.54959 0.06657 0.0
N1424 N 0.42338 0.49421 0.04366 0.0
N1425 N 0.31928 0.60261 1.00293 0.0
H1426 H 0.3094 0.53446 0.15054 0.0
H1427 H 0.29423 0.57502 0.11312 0.0
H1428 H 0.32234 0.62271 0.96668 0.0
H1429 H 0.29232 0.59986 0.02013 0.0
H1430 H 0.45012 0.49429 0.02554 0.0
H1431 H 0.41647 0.46926 0.06507 0.0
H1432 H 0.46417 0.5394 0.97538 0.0
H1433 H 0.44676 0.57484 0.92935 0.0
C1434 C 0.5811 0.62629 0.93835 0.0
C1435 C 0.57964 0.60617 1.00005 0.0
C1436 C 0.51094 0.6129 0.99015 0.0
C1437 C 0.51176 0.62992 0.9266 0.0
N1438 N 0.55059 0.64594 0.83562 0.0
N1439 N 0.53828 0.56883 0.06451 0.0
C1440 C 0.54782 0.6343 0.89936 0.0
C1441 C 0.54309 0.59578 0.01911 0.0
N1442 N 0.61435 0.63914 0.9174 0.0
N1443 N 0.47982 0.61565 0.02674 0.0
H1444 H 0.56015 0.55727 0.08994 0.0
H1445 H 0.51279 0.55642 0.07237 0.0
H1446 H 0.46491 0.63989 0.02444 0.0
H1447 H 0.47405 0.59943 0.06774 0.0
H1448 H 0.61765 0.65696 0.87751 0.0
H1449 H 0.63808 0.63474 0.94475 0.0
H1450 H 0.57522 0.64564 0.80957 0.0
H1451 H 0.52752 0.65274 0.80734 0.0
C1452 C 0.65496 0.4447 0.0812 0.0
C1453 C 0.63358 0.4764 0.06767 0.0
C1454 C 0.5929 0.43577 0.9974 0.0
C1455 C 0.61707 0.40541 1.00456 0.0
N1456 N 0.65181 0.37937 0.09385 0.0
N1457 N 0.58145 0.50129 0.00982 0.0
C1458 C 0.6433 0.40936 0.05726 0.0
C1459 C 0.60209 0.47145 0.02541 0.0
N1460 N 0.68556 0.44735 0.12035 0.0
N1461 N 0.55863 0.42917 0.97294 0.0
H1462 H 0.59159 0.52747 0.01789 0.0
H1463 H 0.55749 0.50081 0.98167 0.0
H1464 H 0.54945 0.40231 0.9665 0.0
H1465 H 0.53757 0.44849 0.97138 0.0
H1466 H 0.7046 0.42601 0.12444 0.0
H1467 H 0.693 0.47113 0.14609 0.0
H1468 H 0.66974 0.37959 0.13411 0.0
H1469 H 0.63277 0.3582 0.09525 0.0
C1470 C 0.43061 0.34376 1.00734 0.0
C1471 C 0.42195 0.38194 0.01309 0.0
C1472 C 0.47128 0.39174 0.92674 0.0
C1473 C 0.48671 0.35595 0.9345 0.0
N1474 N 0.47832 0.29852 0.99314 0.0
N1475 N 0.42838 0.43914 0.95446 0.0
C1476 C 0.46485 0.33192 0.97628 0.0
C1477 C 0.44038 0.40448 0.96531 0.0
N1478 N 0.40592 0.31817 0.02965 0.0
N1479 N 0.48461 0.41405 0.87883 0.0
H1480 H 0.40131 0.44701 0.96237 0.0
H1481 H 0.44523 0.45953 0.93408 0.0
H1482 H 0.51227 0.42056 0.87749 0.0
H1483 H 0.46791 0.43171 0.85198 0.0
H1484 H 0.40761 0.29022 0.0182 0.0
H1485 H 0.38247 0.32504 0.05629 0.0
H1486 H 0.46358 0.27829 0.0184 0.0
H1487 H 0.50649 0.29502 0.9967 0.0
C1488 C 0.84261 0.41523 0.75038 0.0
C1489 C 0.8802 0.41141 0.77059 0.0
C1490 C 0.89216 0.47179 0.71825 0.0
C1491 C 0.85542 0.47738 0.69688 0.0
N1492 N 0.79354 0.45604 0.71627 0.0
N1493 N 0.94073 0.42845 0.73343 0.0
C1494 C 0.83006 0.44862 0.71698 0.0
C1495 C 0.90479 0.43708 0.74158 0.0
N1496 N 0.81849 0.38727 0.7638 0.0
N1497 N 0.91341 0.50153 0.73052 0.0
H1498 H 0.95059 0.40197 0.74199 0.0
H1499 H 0.95935 0.44674 0.71141 0.0
H1500 H 0.90016 0.52666 0.73661 0.0
H1501 H 0.93986 0.49963 0.75066 0.0
H1502 H 0.79205 0.38527 0.74412 0.0
H1503 H 0.82563 0.36503 0.79328 0.0
H1504 H 0.77253 0.43695 0.72422 0.0
H1505 H 0.78603 0.48249 0.72885 0.0
C1506 C 0.45658 0.15156 0.33796 0.0
C1507 C 0.48839 0.12935 0.32838 0.0
C1508 C 0.44859 0.08803 0.25999 0.0
C1509 C 0.41997 0.1143 0.25556 0.0
N1510 N 0.39631 0.1711 0.29975 0.0
N1511 N 0.51376 0.08184 0.25928 0.0
C1512 C 0.42387 0.14603 0.29764 0.0
C1513 C 0.48386 0.09836 0.28541 0.0
N1514 N 0.45736 0.17759 0.38682 0.0
N1515 N 0.44292 0.05311 0.23773 0.0
H1516 H 0.53841 0.09596 0.25831 0.0
H1517 H 0.51269 0.05943 0.22702 0.0
H1518 H 0.41753 0.04452 0.21984 0.0
H1519 H 0.46213 0.0322 0.24429 0.0
H1520 H 0.43437 0.19238 0.40218 0.0
H1521 H 0.48049 0.18186 0.41664 0.0
H1522 H 0.39815 0.1963 0.32416 0.0
H1523 H 0.37282 0.16831 0.27098 0.0
C1524 C 0.10421 0.54108 0.7885 0.0
C1525 C 0.1074 0.57747 0.76375 0.0
C1526 C 0.12437 0.54541 0.65518 0.0
C1527 C 0.13198 0.51142 0.68689 0.0
N1528 N 0.13344 0.48156 0.7917 0.0
N1529 N 0.10776 0.60982 0.66143 0.0
C1530 C 0.12276 0.51076 0.75568 0.0
C1531 C 0.11445 0.57815 0.69358 0.0
N1532 N 0.07986 0.53424 0.83778 0.0
N1533 N 0.12421 0.54616 0.58782 0.0
H1534 H 0.08734 0.6272 0.67901 0.0
H1535 H 0.12037 0.61636 0.61699 0.0
H1536 H 0.13253 0.52376 0.55912 0.0
H1537 H 0.11251 0.56748 0.56095 0.0
H1538 H 0.06419 0.55528 0.85842 0.0
H1539 H 0.07212 0.50752 0.85093 0.0
H1540 H 0.12034 0.47354 0.83464 0.0
H1541 H 0.15889 0.46965 0.78193 0.0
C1542 C 0.55361 0.90395 0.23374 0.0
C1543 C 0.58734 0.88714 0.2546 0.0
C1544 C 0.54973 0.85522 0.34277 0.0
C1545 C 0.51616 0.86877 0.31667 0.0
N1546 N 0.48648 0.9024 0.23096 0.0
N1547 N 0.61481 0.86664 0.35626 0.0
C1548 C 0.51846 0.89256 0.26111 0.0
C1549 C 0.58468 0.86757 0.31634 0.0
N1550 N 0.55489 0.9325 0.19061 0.0
N1551 N 0.54855 0.83063 0.39371 0.0
H1552 H 0.63633 0.88508 0.34848 0.0
H1553 H 0.61504 0.85486 0.40318 0.0
H1554 H 0.52386 0.82236 0.4159 0.0
H1555 H 0.57171 0.81638 0.41005 0.0
H1556 H 0.53295 0.9501 0.18106 0.0
H1557 H 0.5792 0.9407 0.16876 0.0
H1558 H 0.48482 0.92117 0.19246 0.0
H1559 H 0.46146 0.88928 0.24126 0.0
C1560 C 0.89232 0.02236 0.53916 0.0
C1561 C 0.86378 0.01868 0.58706 0.0
C1562 C 0.84511 0.0827 0.55408 0.0
C1563 C 0.87536 0.08642 0.50688 0.0
N1564 N 0.93571 0.06211 0.48235 0.0
N1565 N 0.81177 0.047 0.63857 0.0
C1566 C 0.90153 0.05715 0.50879 0.0
C1567 C 0.84047 0.04982 0.59493 0.0
N1568 N 0.90771 0.99135 0.51504 0.0
N1569 N 0.82094 0.11098 0.56283 0.0
H1570 H 0.80919 0.02509 0.67165 0.0
H1571 H 0.78979 0.06528 0.64092 0.0
H1572 H 0.81289 0.12879 0.52559 0.0
H1573 H 0.80724 0.11576 0.60726 0.0
H1574 H 0.9294 0.99145 0.48142 0.0
H1575 H 0.89407 0.96615 0.52008 0.0
H1576 H 0.95646 0.04236 0.4844 0.0
H1577 H 0.94509 0.08783 0.46814 0.0
C1578 C 0.05303 0.08506 0.49433 0.0
C1579 C 0.07423 0.11001 0.53325 0.0
C1580 C 0.03361 0.15964 0.48813 0.0
C1581 C 0.01398 0.13457 0.44655 0.0
N1582 N 0.02462 0.07776 0.38829 0.0
N1583 N 0.08017 0.1729 0.56896 0.0
C1584 C 0.02879 0.09823 0.44389 0.0
C1585 C 0.06402 0.14796 0.52851 0.0
N1586 N 0.0546 0.0483 0.50683 0.0
N1587 N 0.0228 0.19519 0.49128 0.0
H1588 H 0.09761 0.16471 0.60566 0.0
H1589 H 0.07466 0.20099 0.57006 0.0
H1590 H 0.99606 0.20089 0.50617 0.0
H1591 H 0.04129 0.21724 0.49378 0.0
H1592 H 0.0374 0.0293 0.48309 0.0
H1593 H 0.0695 0.03793 0.54661 0.0
H1594 H 0.03564 0.0514 0.38296 0.0
H1595 H 0.01878 0.09109 0.3442 0.0
C1596 C 0.12486 0.91131 0.58534 0.0
C1597 C 0.11289 0.91123 0.51712 0.0
C1598 C 0.11809 0.97919 0.52224 0.0
C1599 C 0.13156 0.97989 0.58888 0.0
N1600 N 0.14064 0.94478 0.68735 0.0
N1601 N 0.07968 0.94863 0.44098 0.0
C1602 C 0.13297 0.94525 0.62126 0.0
C1603 C 0.10342 0.94628 0.49232 0.0
N1604 N 0.12551 0.87872 0.61805 0.0
N1605 N 0.12324 0.00896 0.48341 0.0
H1606 H 0.06946 0.92504 0.41874 0.0
H1607 H 0.06777 0.97329 0.42576 0.0
H1608 H 0.14707 0.02422 0.48919 0.0
H1609 H 0.10942 0.01328 0.4392 0.0
H1610 H 0.14076 0.87393 0.66073 0.0
H1611 H 0.10759 0.85769 0.60412 0.0
H1612 H 0.1389 0.92141 0.71673 0.0
H1613 H 0.14681 0.96866 0.71405 0.0
C1614 C 0.97798 0.90126 0.46153 0.0
C1615 C 0.98801 0.86452 0.44261 0.0
C1616 C 0.92685 0.84596 0.48969 0.0
C1617 C 0.91998 0.8812 0.51882 0.0
N1618 N 0.95251 0.93638 0.55184 0.0
N1619 N 0.97446 0.80185 0.47395 0.0
C1620 C 0.9493 0.90734 0.51019 0.0
C1621 C 0.96258 0.83676 0.46421 0.0
N1622 N 0.99465 0.93095 0.43321 0.0
N1623 N 0.90183 0.8185 0.49746 0.0
H1624 H 0.00046 0.79826 0.49418 0.0
H1625 H 0.95715 0.77986 0.48595 0.0
H1626 H 0.88424 0.81881 0.53758 0.0
H1627 H 0.90174 0.79467 0.46847 0.0
H1628 H 0.98738 0.95793 0.44535 0.0
H1629 H 0.01066 0.92872 0.39083 0.0
H1630 H 0.9755 0.95385 0.5518 0.0
H1631 H 0.93354 0.94077 0.58942 0.0
C1632 C 0.30276 0.24245 0.15539 0.0
C1633 C 0.33693 0.22316 0.15403 0.0
C1634 C 0.36272 0.2726 0.22567 0.0
C1635 C 0.33208 0.29466 0.21302 0.0
N1636 N 0.26669 0.29161 0.2065 0.0
N1637 N 0.39992 0.22166 0.19414 0.0
C1638 C 0.29988 0.27655 0.19106 0.0
C1639 C 0.36706 0.23889 0.19067 0.0
N1640 N 0.27278 0.22717 0.12474 0.0
N1641 N 0.38569 0.28194 0.27649 0.0
H1642 H 0.40166 0.19376 0.18722 0.0
H1643 H 0.42417 0.23456 0.20953 0.0
H1644 H 0.38067 0.30484 0.30646 0.0
H1645 H 0.40602 0.26441 0.29438 0.0
H1646 H 0.24554 0.23379 0.13534 0.0
H1647 H 0.27529 0.2081 0.08637 0.0
H1648 H 0.24168 0.27971 0.19385 0.0
H1649 H 0.26469 0.31487 0.23652 0.0
C1650 C 0.26042 0.69466 0.83232 0.0
C1651 C 0.28086 0.66458 0.80985 0.0
C1652 C 0.22209 0.62879 0.81843 0.0
C1653 C 0.20729 0.65708 0.85979 0.0
N1654 N 0.22752 0.70545 0.93096 0.0
N1655 N 0.27448 0.60641 0.75321 0.0
C1656 C 0.22966 0.68776 0.87239 0.0
C1657 C 0.25975 0.63211 0.79465 0.0
N1658 N 0.26808 0.7293 0.81131 0.0
N1659 N 0.20056 0.59918 0.80262 0.0
H1660 H 0.29799 0.61195 0.72515 0.0
H1661 H 0.26216 0.58132 0.74191 0.0
H1662 H 0.1745 0.59561 0.82299 0.0
H1663 H 0.20826 0.57794 0.77107 0.0
H1664 H 0.25077 0.75129 0.8233 0.0
H1665 H 0.28961 0.73448 0.7784 0.0
H1666 H 0.2118 0.69545 0.97035 0.0
H1667 H 0.2118 0.69545 0.97035 0.0
C1668 C 0.6643 0.7663 0.19547 0.0
C1669 C 0.66704 0.78333 0.132 0.0
C1670 C 0.65696 0.72277 0.0814 0.0
C1671 C 0.66057 0.70564 0.14427 0.0
N1672 N 0.67423 0.71206 0.26084 0.0
N1673 N 0.67236 0.77482 0.01343 0.0
C1674 C 0.66648 0.72761 0.20106 0.0
C1675 C 0.66519 0.76073 0.07464 0.0
N1676 N 0.65576 0.78626 0.25036 0.0
N1677 N 0.6441 0.70336 0.02816 0.0
H1678 H 0.67852 0.80231 1.00514 0.0
H1679 H 0.67576 0.75839 0.97156 0.0
H1680 H 0.63681 0.6757 0.03035 0.0
H1681 H 0.63682 0.71573 0.98357 0.0
H1682 H 0.65014 0.77446 0.29628 0.0
H1683 H 0.64843 0.81355 0.24817 0.0
H1684 H 0.6841 0.72736 0.30088 0.0
H1685 H 0.67328 0.68393 0.26956 0.0
C1686 C 0.76548 0.36391 0.98576 0.0
C1687 C 0.78823 0.33296 0.97191 0.0
C1688 C 0.74064 0.3079 0.90151 0.0
C1689 C 0.71694 0.33715 0.91246 0.0
N1690 N 0.70727 0.39543 0.96627 0.0
N1691 N 0.77286 0.26889 0.97565 0.0
C1692 C 0.72926 0.36592 0.95592 0.0
C1693 C 0.76958 0.30219 0.94608 0.0
N1694 N 0.77675 0.38879 0.03223 0.0
N1695 N 0.73773 0.2879 0.84506 0.0
H1696 H 0.79178 0.26438 0.01336 0.0
H1697 H 0.75427 0.24756 0.96529 0.0
H1698 H 0.7217 0.29738 0.8058 0.0
H1699 H 0.75493 0.26608 0.83382 0.0
H1700 H 0.76055 0.41026 0.04965 0.0
H1701 H 0.80068 0.38493 0.0599 0.0
H1702 H 0.71549 0.41945 0.99031 0.0
H1703 H 0.68105 0.39628 0.94631 0.0
C1704 C 0.858 0.72638 0.67568 0.0
C1705 C 0.84586 0.70819 0.61798 0.0
C1706 C 0.83142 0.76773 0.56793 0.0
C1707 C 0.83865 0.78577 0.62991 0.0
N1708 N 0.84934 0.77826 0.74731 0.0
N1709 N 0.82148 0.71103 0.50759 0.0
C1710 C 0.84957 0.76401 0.68494 0.0
C1711 C 0.83288 0.72876 0.56363 0.0
N1712 N 0.87877 0.70799 0.72094 0.0
N1713 N 0.82537 0.78741 0.51162 0.0
H1714 H 0.82679 0.68339 0.49893 0.0
H1715 H 0.80516 0.72314 0.47132 0.0
H1716 H 0.82508 0.8158 0.50968 0.0
H1717 H 0.82561 0.77595 0.4644 0.0
H1718 H 0.8912 0.72082 0.76143 0.0
H1719 H 0.88772 0.68125 0.7125 0.0
H1720 H 0.85367 0.76239 0.7895 0.0
H1721 H 0.83996 0.80454 0.75754 0.0
C1722 C 0.77146 0.14549 0.27908 0.0
C1723 C 0.79071 0.17564 0.30846 0.0
C1724 C 0.73991 0.18652 0.38134 0.0
C1725 C 0.7189 0.15901 0.35238 0.0
N1726 N 0.71333 0.11216 0.26881 0.0
N1727 N 0.77005 0.23648 0.32636 0.0
C1728 C 0.73412 0.13843 0.29892 0.0
C1729 C 0.76961 0.20055 0.34458 0.0
N1730 N 0.78819 0.12511 0.23108 0.0
N1731 N 0.73278 0.19704 0.4447 0.0
H1732 H 0.7898 0.24658 0.29324 0.0
H1733 H 0.74927 0.25446 0.34137 0.0
H1734 H 0.71257 0.1841 0.47324 0.0
H1735 H 0.74917 0.21461 0.47205 0.0
H1736 H 0.77793 0.10022 0.21305 0.0
H1737 H 0.81218 0.13434 0.20776 0.0
H1738 H 0.72164 0.09694 0.22786 0.0
H1739 H 0.68692 0.10636 0.28561 0.0
C1740 C 0.19846 0.2635 0.63236 0.0
C1741 C 0.17536 0.28305 0.59019 0.0
C1742 C 0.15038 0.22171 0.56494 0.0
C1743 C 0.16011 0.20949 0.63072 0.0
N1744 N 0.18964 0.22807 0.7319 0.0
N1745 N 0.13776 0.27393 0.49341 0.0
C1746 C 0.18207 0.23405 0.6672 0.0
C1747 C 0.15289 0.26028 0.54961 0.0
N1748 N 0.23367 0.25889 0.61105 0.0
N1749 N 0.14359 0.19722 0.51535 0.0
H1750 H 0.1471 0.29866 0.47336 0.0
H1751 H 0.11786 0.2596 0.4662 0.0
H1752 H 0.14249 0.16902 0.52317 0.0
H1753 H 0.1409 0.205 0.46598 0.0
H1754 H 0.2498 0.237 0.6278 0.0
H1755 H 0.2453 0.27631 0.57542 0.0
H1756 H 0.2065 0.24568 0.75924 0.0
H1757 H 0.17528 0.20801 0.75843 0.0
C1758 C 0.27115 0.80754 0.41734 0.0
C1759 C 0.2896 0.83792 0.4436 0.0
C1760 C 0.22981 0.86998 0.44511 0.0
C1761 C 0.21535 0.8431 0.39927 0.0
N1762 N 0.22655 0.78947 0.33447 0.0
N1763 N 0.28285 0.8923 0.50934 0.0
C1764 C 0.2381 0.81336 0.38187 0.0
C1765 C 0.26795 0.86805 0.46503 0.0
N1766 N 0.28462 0.77342 0.4294 0.0
N1767 N 0.20713 0.89561 0.47246 0.0
H1768 H 0.30763 0.88696 0.53358 0.0
H1769 H 0.27011 0.91604 0.52615 0.0
H1770 H 0.17947 0.89706 0.46136 0.0
H1771 H 0.21482 0.91456 0.50848 0.0
H1772 H 0.27343 0.74989 0.40915 0.0
H1773 H 0.30586 0.76923 0.46329 0.0
H1774 H 0.23145 0.76156 0.33813 0.0
H1775 H 0.20788 0.79701 0.29776 0.0
C1776 C 0.23389 0.0622 0.8625 0.0
C1777 C 0.22325 0.09662 0.83221 0.0
C1778 C 0.26342 0.12633 0.92445 0.0
C1779 C 0.27253 0.09235 0.95727 0.0
N1780 N 0.26868 0.02645 0.94538 0.0
N1781 N 0.22413 0.16234 0.85142 0.0
C1782 C 0.2583 0.06012 0.92202 0.0
C1783 C 0.23687 0.1285 0.86901 0.0
N1784 N 0.21844 0.03088 0.83707 0.0
N1785 N 0.28139 0.15758 0.94423 0.0
H1786 H 0.20771 0.16638 0.81024 0.0
H1787 H 0.22776 0.18591 0.88024 0.0
H1788 H 0.2975 0.15868 0.98675 0.0
H1789 H 0.28157 0.18189 0.9169 0.0
H1790 H 0.22 0.00506 0.85905 0.0
H1791 H 0.20188 0.03113 0.79498 0.0
H1792 H 0.26493 0.00182 0.91985 0.0
H1793 H 0.28286 0.0232 0.98982 0.0
C1794 C 0.12635 0.73982 0.11275 0.0
C1795 C 0.09467 0.72627 0.07467 0.0
C1796 C 0.05778 0.75026 0.17485 0.0
C1797 C 0.08907 0.76709 0.20831 0.0
N1798 N 0.15316 0.78209 0.19417 0.0
N1799 N 0.0283 0.72425 0.07524 0.0
C1800 C 0.12304 0.76291 0.17261 0.0
C1801 C 0.06001 0.73321 0.1079 0.0
N1802 N 0.16106 0.72972 0.09426 0.0
N1803 N 0.02516 0.74929 0.20859 0.0
H1804 H 0.0282 0.71186 0.02885 0.0
H1805 H 0.00219 0.73224 0.09097 0.0
H1806 H 0.02222 0.76068 0.25569 0.0
H1807 H 0.00222 0.7342 0.19323 0.0
H1808 H 0.1841 0.73334 0.12445 0.0
H1809 H 0.16718 0.71474 0.05236 0.0
H1810 H 0.17693 0.78567 0.16581 0.0
H1811 H 0.15331 0.79722 0.23773 0.0
C1812 C 0.73882 0.93809 0.91917 0.0
C1813 C 0.73381 0.90246 0.95023 0.0
C1814 C 0.77143 0.87819 0.85068 0.0
C1815 C 0.77417 0.91293 0.81704 0.0
N1816 N 0.75528 0.97618 0.82225 0.0
N1817 N 0.74181 0.83718 0.92925 0.0
C1818 C 0.75638 0.94271 0.85288 0.0
C1819 C 0.74899 0.87253 0.91064 0.0
N1820 N 0.72751 0.96838 0.9535 0.0
N1821 N 0.79262 0.85 0.8282 0.0
H1822 H 0.72952 0.83046 0.97361 0.0
H1823 H 0.74591 0.81454 0.89836 0.0
H1824 H 0.80889 0.85261 0.7864 0.0
H1825 H 0.79699 0.82571 0.85443 0.0
H1826 H 0.73367 0.99533 0.93978 0.0
H1827 H 0.71462 0.9666 0.99934 0.0
H1828 H 0.73953 0.99825 0.83875 0.0
H1829 H 0.76769 0.98087 0.77645 0.0
C1830 C 0.94851 0.27373 0.11791 0.0
C1831 C 0.91405 0.27951 0.0838 0.0
C1832 C 0.88786 0.23296 0.16725 0.0
C1833 C 0.92076 0.2304 0.20659 0.0
N1834 N 0.98274 0.2534 0.21694 0.0
N1835 N 0.84866 0.26903 0.09479 0.0
C1836 C 0.9511 0.25219 0.18042 0.0
C1837 C 0.88338 0.26045 0.11462 0.0
N1838 N 0.97932 0.28925 0.09079 0.0
N1839 N 0.86104 0.20706 0.17602 0.0
H1840 H 0.84376 0.28756 0.0569 0.0
H1841 H 0.82512 0.26024 0.12003 0.0
H1842 H 0.86516 0.18431 0.20606 0.0
H1843 H 0.8376 0.20514 0.14635 0.0
H1844 H 0.00598 0.28431 0.10749 0.0
H1845 H 0.9782 0.30512 0.04787 0.0
H1846 H 0.00502 0.2706 0.20652 0.0
H1847 H 0.98551 0.23902 0.26129 0.0
C1848 C 0.26765 0.38172 0.36738 0.0
C1849 C 0.27917 0.41321 0.32729 0.0
C1850 C 0.24341 0.45001 0.4159 0.0
C1851 C 0.22988 0.41813 0.4526 0.0
N1852 N 0.22308 0.35253 0.44251 0.0
N1853 N 0.27122 0.47826 0.31592 0.0
C1854 C 0.24043 0.3839 0.422 0.0
C1855 C 0.2645 0.44739 0.35241 0.0
N1856 N 0.28341 0.34848 0.35472 0.0
N1857 N 0.23752 0.48379 0.44359 0.0
H1858 H 0.28666 0.47743 0.27238 0.0
H1859 H 0.25918 0.50369 0.32548 0.0
H1860 H 0.22349 0.48709 0.48825 0.0
H1861 H 0.24936 0.50807 0.42608 0.0
H1862 H 0.27982 0.32537 0.38456 0.0
H1863 H 0.30248 0.34462 0.31735 0.0
H1864 H 0.22522 0.3274 0.41785 0.0
H1865 H 0.20321 0.35257 0.4795 0.0
C1866 C 0.38044 0.75399 0.66103 0.0
C1867 C 0.40927 0.72965 0.68355 0.0
C1868 C 0.44488 0.7535 0.58198 0.0
C1869 C 0.41546 0.77689 0.55774 0.0
N1870 N 0.35427 0.79799 0.58177 0.0
N1871 N 0.46725 0.70318 0.65346 0.0
C1872 C 0.38294 0.77604 0.59935 0.0
C1873 C 0.44094 0.72893 0.64039 0.0
N1874 N 0.35104 0.75837 0.70245 0.0
N1875 N 0.47777 0.75495 0.54919 0.0
H1876 H 0.46622 0.68652 0.69544 0.0
H1877 H 0.48861 0.69668 0.62116 0.0
H1878 H 0.48138 0.76985 0.50557 0.0
H1879 H 0.50197 0.74329 0.56702 0.0
H1880 H 0.32992 0.77724 0.6955 0.0
H1881 H 0.34976 0.74532 0.74825 0.0
H1882 H 0.32755 0.79528 0.59994 0.0
H1883 H 0.35758 0.81917 0.54799 0.0
C1884 C 0.74127 0.61525 0.35045 0.0
C1885 C 0.72533 0.58471 0.31337 0.0
C1886 C 0.74698 0.54603 0.41268 0.0
C1887 C 0.76292 0.57695 0.44894 0.0
N1888 N 0.76791 0.64284 0.44965 0.0
N1889 N 0.71695 0.51918 0.31344 0.0
C1890 C 0.75812 0.61172 0.41628 0.0
C1891 C 0.72926 0.54968 0.3464 0.0
N1892 N 0.74197 0.64895 0.32119 0.0
N1893 N 0.74694 0.51266 0.44388 0.0
H1894 H 0.70419 0.52077 0.26744 0.0
H1895 H 0.72154 0.49221 0.32839 0.0
H1896 H 0.75793 0.509 0.49105 0.0
H1897 H 0.73374 0.48914 0.42634 0.0
H1898 H 0.7595 0.67041 0.33518 0.0
H1899 H 0.72643 0.6548 0.2801 0.0
H1900 H 0.75951 0.66925 0.43667 0.0
H1901 H 0.78155 0.64212 0.49428 0.0
C1902 C 0.63248 0.24371 0.59704 0.0
C1903 C 0.60208 0.22917 0.55726 0.0
C1904 C 0.56292 0.24802 0.65807 0.0
C1905 C 0.5928 0.26597 0.6937 0.0
N1906 N 0.65537 0.28677 0.68103 0.0
N1907 N 0.53601 0.22267 0.55551 0.0
C1908 C 0.62726 0.26496 0.65863 0.0
C1909 C 0.56675 0.23299 0.58982 0.0
N1910 N 0.66769 0.23856 0.5752 0.0
N1911 N 0.53026 0.24395 0.69091 0.0
H1912 H 0.53722 0.21156 0.50812 0.0
H1913 H 0.50926 0.22808 0.57136 0.0
H1914 H 0.52633 0.25394 0.73881 0.0
H1915 H 0.50853 0.22766 0.67383 0.0
H1916 H 0.69075 0.24239 0.60527 0.0
H1917 H 0.67408 0.2294 0.52802 0.0
H1918 H 0.67927 0.29204 0.65392 0.0
H1919 H 0.65334 0.30268 0.72359 0.0
C1920 C 0.30471 0.06959 0.70202 0.0
C1921 C 0.31869 0.06295 0.63484 0.0
C1922 C 0.3761 0.04997 0.69822 0.0
C1923 C 0.36639 0.0781 0.74306 0.0
N1924 N 0.31481 0.11338 0.7878 0.0
N1925 N 0.34791 0.00288 0.62795 0.0
C1926 C 0.32841 0.08672 0.74762 0.0
C1927 C 0.34827 0.03744 0.65317 0.0
N1928 N 0.27107 0.05784 0.72263 0.0
N1929 N 0.41123 0.03734 0.69673 0.0
H1930 H 0.36669 0.98292 0.6422 0.0
H1931 H 0.36669 0.98292 0.6422 0.0
H1932 H 0.42075 0.01957 0.66001 0.0
H1933 H 0.42075 0.01957 0.66001 0.0
H1934 H 0.25353 0.04205 0.69297 0.0
H1935 H 0.25353 0.04205 0.69297 0.0
H1936 H 0.2872 0.12032 0.78446 0.0
H1937 H 0.33084 0.132 0.8145 0.0
C1938 C 0.11373 0.66534 0.33972 0.0
C1939 C 0.0968 0.65829 0.40587 0.0
C1940 C 0.10396 0.59322 0.37309 0.0
C1941 C 0.12081 0.60001 0.31293 0.0
N1942 N 0.16366 0.64508 0.26916 0.0
N1943 N 0.04386 0.61548 0.38875 0.0
C1944 C 0.13367 0.63688 0.30674 0.0
C1945 C 0.08057 0.62144 0.39336 0.0
N1946 N 0.10667 0.69667 0.30512 0.0
N1947 N 0.10182 0.55873 0.3985 0.0
H1948 H 0.02481 0.63679 0.39136 0.0
H1949 H 0.02481 0.63679 0.39136 0.0
H1950 H 0.11693 0.53712 0.37781 0.0
H1951 H 0.08629 0.55318 0.44068 0.0
H1952 H 0.1172 0.70051 0.25759 0.0
H1953 H 0.08717 0.71583 0.32038 0.0
H1954 H 0.1737 0.67204 0.26526 0.0
H1955 H 0.1796 0.62426 0.24796 0.0
C1956 C 0.63039 0.93323 0.62567 0.0
C1957 C 0.66752 0.91748 0.61762 0.0
C1958 C 0.651 0.89495 0.73139 0.0
C1959 C 0.61226 0.89764 0.71689 0.0
N1960 N 0.56864 0.90994 0.63006 0.0
N1961 N 0.70672 0.92845 0.7167 0.0
C1962 C 0.60352 0.91093 0.65419 0.0
C1963 C 0.67655 0.91266 0.6884 0.0
N1964 N 0.62216 0.96909 0.61445 0.0
N1965 N 0.66419 0.87678 0.78518 0.0
H1966 H 0.7245 0.94631 0.69175 0.0
H1967 H 0.7245 0.94631 0.69175 0.0
H1968 H 0.64847 0.85777 0.81143 0.0
H1969 H 0.69236 0.87645 0.79604 0.0
H1970 H 0.64204 0.98876 0.60238 0.0
H1971 H 0.64204 0.98876 0.60238 0.0
H1972 H 0.56284 0.92148 0.58404 0.0
H1973 H 0.54761 0.89551 0.65433 0.0
C1974 C 0.88765 0.39231 0.35622 0.0
C1975 C 0.87743 0.37484 0.29836 0.0
C1976 C 0.88479 0.31773 0.35059 0.0
C1977 C 0.89663 0.33212 0.41787 0.0
N1978 N 0.94148 0.38649 0.41609 0.0
N1979 N 0.84466 0.3232 0.25683 0.0
C1980 C 0.90808 0.37117 0.40118 0.0
C1981 C 0.86437 0.33927 0.30635 0.0
N1982 N 0.88899 0.42955 0.35807 0.0
N1983 N 0.90044 0.28808 0.32074 0.0
H1984 H 0.83409 0.33884 0.21788 0.0
H1985 H 0.83841 0.29505 0.2574 0.0
H1986 H 0.92496 0.27615 0.33597 0.0
H1987 H 0.92496 0.27615 0.33597 0.0
H1988 H 0.89957 0.44321 0.39942 0.0
H1989 H 0.87735 0.44509 0.32002 0.0
H1990 H 0.96346 0.37269 0.43743 0.0
H1991 H 0.96346 0.37269 0.43743 0.0
C1992 C 0.33631 0.36276 0.54772 0.0
C1993 C 0.36907 0.38242 0.53788 0.0
C1994 C 0.3559 0.41859 0.63005 0.0
C1995 C 0.32496 0.39586 0.65575 0.0
N1996 N 0.27769 0.38548 0.56831 0.0
N1997 N 0.41793 0.41556 0.59054 0.0
C1998 C 0.31149 0.378 0.59356 0.0
C1999 C 0.38308 0.40169 0.592 0.0
N2000 N 0.32415 0.339 0.50049 0.0
N2001 N 0.35341 0.45562 0.62261 0.0
H2002 H 0.43717 0.4063 0.55586 0.0
H2003 H 0.42693 0.43455 0.626 0.0
H2004 H 0.32893 0.47004 0.62965 0.0
H2005 H 0.32893 0.47004 0.62965 0.0
H2006 H 0.29806 0.3267 0.50363 0.0
H2007 H 0.34114 0.33123 0.46114 0.0
H2008 H 0.26046 0.40537 0.5886 0.0
H2009 H 0.26046 0.40537 0.5886 0.0
C2010 C 0.41251 0.65272 0.39502 0.0
C2011 C 0.38772 0.68162 0.36035 0.0
C2012 C 0.34454 0.66803 0.45282 0.0
C2013 C 0.3639 0.63701 0.47138 0.0
N2014 N 0.42632 0.61777 0.49424 0.0
N2015 N 0.37135 0.72711 0.44802 0.0
C2016 C 0.4014 0.63594 0.45513 0.0
C2017 C 0.3651 0.69419 0.41795 0.0
N2018 N 0.44401 0.63525 0.37458 0.0
N2019 N 0.31034 0.67556 0.47649 0.0
H2020 H 0.35759 0.73417 0.49155 0.0
H2021 H 0.39229 0.74475 0.43232 0.0
H2022 H 0.29548 0.65684 0.50541 0.0
H2023 H 0.29724 0.70014 0.46458 0.0
H2024 H 0.45865 0.63505 0.33078 0.0
H2025 H 0.45865 0.63505 0.33078 0.0
H2026 H 0.45475 0.61864 0.4857 0.0
H2027 H 0.41939 0.60439 0.53793 0.0
C2028 C 0.6181 0.59056 0.65222 0.0
C2029 C 0.65786 0.59991 0.65924 0.0
C2030 C 0.64974 0.62067 0.54388 0.0
C2031 C 0.61094 0.6179 0.54676 0.0
N2032 N 0.55993 0.61809 0.62151 0.0
N2033 N 0.69027 0.57173 0.56492 0.0
C2034 C 0.59625 0.61196 0.60949 0.0
C2035 C 0.66944 0.59955 0.58954 0.0
N2036 N 0.60342 0.56035 0.68274 0.0
N2037 N 0.66777 0.63823 0.49421 0.0
H2038 H 0.69571 0.54829 0.59245 0.0
H2039 H 0.6956 0.56962 0.51435 0.0
H2040 H 0.65436 0.65665 0.46302 0.0
H2041 H 0.69651 0.63764 0.49148 0.0
H2042 H 0.57577 0.5525 0.6783 0.0
H2043 H 0.57577 0.5525 0.6783 0.0
H2044 H 0.5483 0.61251 0.66767 0.0
H2045 H 0.54324 0.6308 0.5862 0.0
C2046 C 0.59177 0.39497 0.40905 0.0
C2047 C 0.61053 0.38066 0.46421 0.0
C2048 C 0.58417 0.32138 0.43052 0.0
C2049 C 0.5797 0.33317 0.36149 0.0
N2050 N 0.53379 0.38474 0.3592 0.0
N2051 N 0.63314 0.32204 0.50748 0.0
C2052 C 0.56746 0.37137 0.37552 0.0
C2053 C 0.60836 0.34152 0.47195 0.0
N2054 N 0.59737 0.42995 0.3872 0.0
N2055 N 0.56578 0.2922 0.45681 0.0
H2056 H 0.66011 0.33134 0.51338 0.0
H2057 H 0.63084 0.29357 0.5095 0.0
H2058 H 0.54498 0.27797 0.43176 0.0
H2059 H 0.54498 0.27797 0.43176 0.0
H2060 H 0.58399 0.4396 0.34507 0.0
H2061 H 0.61761 0.44704 0.40784 0.0
H2062 H 0.51279 0.36838 0.33972 0.0
H2063 H 0.51279 0.36838 0.33972 0.0
C2064 C 0.8705 0.56094 0.11644 0.0
C2065 C 0.83202 0.57276 0.10668 0.0
C2066 C 0.83826 0.57304 0.23149 0.0
C2067 C 0.87466 0.58761 0.22286 0.0
N2068 N 0.92437 0.59585 0.14256 0.0
N2069 N 0.78654 0.54209 0.17709 0.0
C2070 C 0.89142 0.58107 0.16144 0.0
C2071 C 0.81706 0.56404 0.17316 0.0
N2072 N 0.88507 0.53146 0.0842 0.0
N2073 N 0.82555 0.56514 0.29325 0.0
H2074 H 0.7759 0.5307 0.22034 0.0
H2075 H 0.7759 0.5307 0.22034 0.0
H2076 H 0.84299 0.56368 0.33399 0.0
H2077 H 0.7982 0.55944 0.30391 0.0
H2078 H 0.91227 0.52299 0.0916 0.0
H2079 H 0.91227 0.52299 0.0916 0.0
H2080 H 0.93503 0.59077 0.09543 0.0
H2081 H 0.93806 0.61608 0.16997 0.0
C2082 C 0.62295 0.14244 0.78565 0.0
C2083 C 0.62432 0.10357 0.79481 0.0
C2084 C 0.59041 0.11318 0.89306 0.0
C2085 C 0.59921 0.15291 0.90018 0.0
N2086 N 0.57773 0.18788 0.80139 0.0
N2087 N 0.61959 0.05502 0.87438 0.0
C2088 C 0.60084 0.16302 0.82935 0.0
C2089 C 0.61484 0.09084 0.85774 0.0
N2090 N 0.63854 0.15937 0.73252 0.0
N2091 N 0.5581 0.09775 0.91307 0.0
H2092 H 0.63547 0.03755 0.84484 0.0
H2093 H 0.60936 0.04477 0.91906 0.0
H2094 H 0.53617 0.11297 0.93173 0.0
H2095 H 0.53617 0.11297 0.93173 0.0
H2096 H 0.63523 0.18761 0.72447 0.0
H2097 H 0.65792 0.14627 0.7027 0.0
H2098 H 0.55564 0.19978 0.8263 0.0
H2099 H 0.55564 0.19978 0.8263 0.0
C2100 C 0.124 0.39964 0.20801 0.0
C2101 C 0.12317 0.36142 0.22019 0.0
C2102 C 0.18516 0.36366 0.18288 0.0
C2103 C 0.1779 0.38839 0.12651 0.0
N2104 N 0.13973 0.44715 0.13385 0.0
N2105 N 0.16097 0.30691 0.22575 0.0
C2106 C 0.14776 0.41285 0.15699 0.0
C2107 C 0.1558 0.34232 0.2063 0.0
N2108 N 0.10628 0.42383 0.24933 0.0
N2109 N 0.21521 0.36749 0.22232 0.0
H2110 H 0.13951 0.2906 0.24421 0.0
H2111 H 0.18634 0.29414 0.21998 0.0
H2112 H 0.2355 0.38744 0.21383 0.0
H2113 H 0.2355 0.38744 0.21383 0.0
H2114 H 0.1122 0.45197 0.25037 0.0
H2115 H 0.08975 0.41596 0.28899 0.0
H2116 H 0.11624 0.46247 0.1452 0.0
H2117 H 0.11624 0.46247 0.1452 0.0
C2118 C 0.41233 0.82542 0.84602 0.0
C2119 C 0.38903 0.83217 0.90618 0.0
C2120 C 0.34901 0.86615 0.82738 0.0
C2121 C 0.37025 0.85744 0.77351 0.0
N2122 N 0.41698 0.81928 0.72709 0.0
N2123 N 0.37256 0.89826 0.92039 0.0
C2124 C 0.39861 0.83182 0.78131 0.0
C2125 C 0.36839 0.86587 0.88645 0.0
N2126 N 0.44951 0.82136 0.85237 0.0
N2127 N 0.31759 0.88603 0.82025 0.0
H2128 H 0.36032 0.92297 0.90581 0.0
H2129 H 0.36032 0.92297 0.90581 0.0
H2130 H 0.30583 0.89014 0.77366 0.0
H2131 H 0.3032 0.89594 0.86133 0.0
H2132 H 0.46854 0.82192 0.81363 0.0
H2133 H 0.46854 0.82192 0.81363 0.0
H2134 H 0.43697 0.79876 0.72985 0.0
H2135 H 0.41005 0.82771 0.67952 0.0
C2136 C 0.82797 0.91886 0.08728 0.0
C2137 C 0.84206 0.91148 0.15499 0.0
C2138 C 0.90066 0.89757 0.10235 0.0
C2139 C 0.885 0.89251 0.04017 0.0
N2140 N 0.83699 0.91504 0.96772 0.0
N2141 N 0.8981 0.94998 0.17334 0.0
C2142 C 0.84917 0.9079 0.02999 0.0
C2143 C 0.88136 0.92034 0.14478 0.0
N2144 N 0.79879 0.94211 0.08067 0.0
N2145 N 0.93124 0.87956 0.12344 0.0
H2146 H 0.92594 0.95619 0.16532 0.0
H2147 H 0.92594 0.95619 0.16532 0.0
H2148 H 0.94416 0.85927 0.09516 0.0
H2149 H 0.9405 0.88274 0.17205 0.0
H2150 H 0.78942 0.95316 0.03631 0.0
H2151 H 0.78942 0.95316 0.03631 0.0
H2152 H 0.80957 0.91988 0.95632 0.0
H2153 H 0.85496 0.91742 0.92792 0.0
C2154 C 0.89303 0.09997 0.89424 0.0
C2155 C 0.87805 0.10834 0.95579 0.0
C2156 C 0.90132 0.1706 0.93703 0.0
C2157 C 0.91127 0.16383 0.86654 0.0
N2158 N 0.95472 0.11005 0.86252 0.0
N2159 N 0.85168 0.1609 0.0135 0.0
C2160 C 0.92054 0.12411 0.8723 0.0
C2161 C 0.87634 0.14671 0.9699 0.0
N2162 N 0.88738 0.0668 0.8649 0.0
N2163 N 0.91798 0.19659 0.97519 0.0
H2164 H 0.82902 0.14555 0.02971 0.0
H2165 H 0.85132 0.18909 0.02425 0.0
H2166 H 0.94107 0.21156 0.96029 0.0
H2167 H 0.94107 0.21156 0.96029 0.0
H2168 H 0.89984 0.06064 0.81965 0.0
H2169 H 0.86887 0.04761 0.88478 0.0
H2170 H 0.97781 0.12638 0.85328 0.0
H2171 H 0.97781 0.12638 0.85328 0.0
C2172 C 0.11475 0.13583 0.09448 0.0
C2173 C 0.13244 0.109 0.0552 0.0
C2174 C 0.18918 0.13287 0.10007 0.0
C2175 C 0.1721 0.13996 0.16426 0.0
N2176 N 0.12926 0.19193 0.15434 0.0
N2177 N 0.1909 0.08335 0.02151 0.0
C2178 C 0.13703 0.15608 0.14015 0.0
C2179 C 0.17118 0.10857 0.05598 0.0
N2180 N 0.07796 0.14246 0.08844 0.0
N2181 N 0.22105 0.14995 0.08322 0.0
H2182 H 0.17901 0.06405 0.98964 0.0
H2183 H 0.21853 0.07938 0.03308 0.0
H2184 H 0.23285 0.14685 0.03683 0.0
H2185 H 0.23285 0.14685 0.03683 0.0
H2186 H 0.06407 0.16011 0.12063 0.0
H2187 H 0.06162 0.12916 0.05314 0.0
H2188 H 0.10692 0.20605 0.13413 0.0
H2189 H 0.10692 0.20605 0.13413 0.0
C2190 C 0.06807 0.87277 0.87171 0.0
C2191 C 0.07546 0.83277 0.86476 0.0
C2192 C 0.07567 0.84159 0.98965 0.0
C2193 C 0.0931 0.87659 0.97996 0.0
N2194 N 0.10537 0.92489 0.89897 0.0
N2195 N 0.03923 0.79285 0.93753 0.0
C2196 C 0.08911 0.89256 0.91726 0.0
C2197 C 0.06461 0.82052 0.93213 0.0
N2198 N 0.04173 0.89072 0.83675 0.0
N2199 N 0.06769 0.82975 0.05199 0.0
H2200 H 0.02639 0.78475 0.98129 0.0
H2201 H 0.02639 0.78475 0.98129 0.0
H2202 H 0.06831 0.84729 0.09284 0.0
H2203 H 0.06035 0.80277 0.06289 0.0
H2204 H 0.03735 0.91888 0.84384 0.0
H2205 H 0.0229 0.87679 0.80684 0.0
H2206 H 0.10151 0.93563 0.85156 0.0
H2207 H 0.12539 0.93813 0.9275 0.0
loop_
_geom_bond_atom_site_label_1
_geom_bond_atom_site_label_2
_geom_bond_distance
_geom_bond_site_symmetry_2
_ccdc_geom_bond_type
Eu0 N31 2.657 . S
Eu0 N38 2.609 . S
Eu0 O44 2.558 . S
Eu0 O45 2.612 . S
Eu0 O47 2.339 . S
Eu0 O48 2.563 . S
Eu0 O49 2.419 . S
Eu0 O51 2.380 . S
Eu0 O52 2.432 . S
Eu0 C64 2.848 . S
C1 C4 1.429 . S
C1 C5 1.411 . S
C1 N8 1.377 . S
C2 C4 1.420 . S
C2 C6 1.423 . S
C2 C14 1.392 . S
C3 C5 1.420 . S
C3 C6 1.351 . S
C3 H26 0.931 . S
C4 C1 1.429 . S
C4 C2 1.420 . S
C4 N12 1.362 . S
C5 C1 1.411 . S
C5 C3 1.420 . S
C5 C10 1.395 . S
C6 C2 1.423 . S
C6 C3 1.351 . S
C6 H18 0.930 . S
C7 C9 1.400 1_565 S
C7 C10 1.386 1_565 S
C7 H19 0.930 . S
N8 C1 1.377 . S
N8 C9 1.321 . S
N8 Eu11 2.609 . S
C9 C7 1.400 1_545 S
C9 N8 1.321 . S
C9 H16 0.930 . S
C10 C5 1.395 . S
C10 C7 1.386 1_545 S
C10 H29 0.930 1_545 S
Eu11 N8 2.609 . S
Eu11 N12 2.657 . S
Eu11 O45 2.380 . S
Eu11 O46 2.432 . S
Eu11 O50 2.558 1_554 S
Eu11 O51 2.612 . S
Eu11 O53 2.339 . S
Eu11 O54 2.563 1_554 S
Eu11 O55 2.419 1_554 S
Eu11 C75 2.848 1_554 S
N12 C4 1.362 . S
N12 Eu11 2.657 . S
N12 C13 1.334 . S
C13 N12 1.334 . S
C13 C15 1.413 . S
C13 H20 0.929 . S
C14 C2 1.392 . S
C14 C15 1.367 . S
C14 H22 0.930 . S
C15 C13 1.413 . S
C15 C14 1.367 . S
C15 H17 0.930 . S
H16 C9 0.930 . S
H17 C15 0.930 . S
H18 C6 0.930 . S
H19 C7 0.930 . S
H20 C13 0.929 . S
H21 C35 0.930 . S
H22 C14 0.930 . S
H23 C41 0.930 . S
H24 C32 0.929 . S
H25 C39 0.930 . S
H26 C3 0.931 . S
H27 C33 0.930 . S
H28 C66 0.930 . S
H29 C10 0.930 1_565 S
H30 C65 0.931 . S
N31 Eu0 2.657 . S
N31 C32 1.334 . S
N31 C36 1.362 . S
C32 H24 0.929 . S
C32 N31 1.334 . S
C32 C35 1.413 . S
C33 H27 0.930 . S
C33 C34 1.392 . S
C33 C35 1.367 . S
C34 C33 1.392 . S
C34 C36 1.420 . S
C34 C66 1.423 . S
C35 H21 0.930 . S
C35 C32 1.413 . S
C35 C33 1.367 . S
C36 N31 1.362 . S
C36 C34 1.420 . S
C36 C40 1.429 . S
H37 C42 0.930 . S
N38 Eu0 2.609 . S
N38 C40 1.377 . S
N38 C41 1.321 . S
C39 H25 0.930 . S
C39 C41 1.400 . S
C39 C42 1.386 . S
C40 C36 1.429 . S
C40 N38 1.377 . S
C40 C43 1.411 . S
C41 H23 0.930 . S
C41 N38 1.321 . S
C41 C39 1.400 . S
C42 H37 0.930 . S
C42 C39 1.386 . S
C42 C43 1.395 . S
C43 C40 1.411 . S
C43 C42 1.395 . S
C43 C65 1.420 . S
O44 Eu0 2.558 . S
O44 C64 1.257 . S
O45 Eu0 2.612 . S
O45 Eu11 2.380 . S
O45 C56 1.276 . S
O46 Eu11 2.432 . S
O46 C63 1.264 . S
O47 Eu0 2.339 . S
O47 C63 1.254 . S
O48 Eu0 2.563 . S
O48 C56 1.235 . S
O49 Eu0 2.419 . S
O49 C64 1.249 . S
O50 Eu11 2.558 1_556 S
O50 C75 1.257 . S
O51 Eu0 2.380 . S
O51 Eu11 2.612 . S
O51 C67 1.276 . S
O52 Eu0 2.432 . S
O52 C74 1.264 . S
O53 Eu11 2.339 . S
O53 C74 1.254 . S
O54 Eu11 2.563 1_556 S
O54 C67 1.235 1_556 S
O55 Eu11 2.419 1_556 S
O55 C75 1.249 . S
C56 O45 1.276 . S
C56 O48 1.235 . S
C57 C59 1.393 . S
C57 C61 1.395 . S
C57 C64 1.492 . S
C58 C59 1.392 . S
C58 C60 1.386 . S
C59 C57 1.393 . S
C59 C58 1.392 . S
C59 H76 0.930 . S
C60 C58 1.386 . S
C60 C62 1.395 . S
C60 H77 0.930 . S
C61 C57 1.395 . S
C61 C62 1.379 . S
C61 H78 0.930 . S
C62 C60 1.395 . S
C62 C61 1.379 . S
C62 H79 0.930 . S
C63 O46 1.264 . S
C63 O47 1.254 . S
C64 Eu0 2.848 . S
C64 O44 1.257 . S
C64 O49 1.249 . S
C64 C57 1.492 . S
C65 H30 0.931 . S
C65 C43 1.420 . S
C65 C66 1.351 . S
C66 H28 0.930 . S
C66 C34 1.423 . S
C66 C65 1.351 . S
C67 O51 1.276 . S
C67 O54 1.235 1_554 S
C68 C69 1.393 . S
C68 C72 1.395 . S
C68 C75 1.492 . S
C69 C68 1.393 . S
C69 C70 1.392 . S
C69 H80 0.930 . S
C70 C69 1.392 . S
C70 C71 1.386 . S
C71 C70 1.386 . S
C71 C73 1.395 . S
C71 H81 0.930 . S
C72 C68 1.395 . S
C72 C73 1.379 . S
C72 H82 0.930 . S
C73 C71 1.395 . S
C73 C72 1.379 . S
C73 H83 0.930 . S
C74 O52 1.264 . S
C74 O53 1.254 . S
C75 Eu11 2.848 1_556 S
C75 O50 1.257 . S
C75 O55 1.249 . S
C75 C68 1.492 . S
H76 C59 0.930 . S
H77 C60 0.930 . S
H78 C61 0.930 . S
H79 C62 0.930 . S
H80 C69 0.930 . S
H81 C71 0.930 . S
H82 C72 0.930 . S
H83 C73 0.930 . S
Eu84 N115 2.657 . S
Eu84 N122 2.609 . S
Eu84 O128 2.558 1_556 S
Eu84 O129 2.612 . S
Eu84 O131 2.339 . S
Eu84 O132 2.563 1_556 S
Eu84 O133 2.419 1_556 S
Eu84 O135 2.380 . S
Eu84 O136 2.432 . S
Eu84 C148 2.848 1_556 S
C85 C88 1.429 . S
C85 C89 1.411 . S
C85 N92 1.377 . S
C86 C88 1.420 . S
C86 C90 1.423 . S
C86 C98 1.392 . S
C87 C89 1.420 . S
C87 C90 1.351 . S
C87 H110 0.931 . S
C88 C85 1.429 . S
C88 C86 1.420 . S
C88 N96 1.362 . S
C89 C85 1.411 . S
C89 C87 1.420 . S
C89 C94 1.395 . S
C90 C86 1.423 . S
C90 C87 1.351 . S
C90 H102 0.930 . S
C91 C93 1.400 . S
C91 C94 1.386 . S
C91 H103 0.930 . S
N92 C85 1.377 . S
N92 C93 1.321 . S
N92 Eu95 2.609 . S
C93 C91 1.400 . S
C93 N92 1.321 . S
C93 H100 0.930 . S
C94 C89 1.395 . S
C94 C91 1.386 . S
C94 H113 0.930 . S
Eu95 N92 2.609 . S
Eu95 N96 2.657 . S
Eu95 O129 2.380 . S
Eu95 O130 2.432 . S
Eu95 O134 2.558 . S
Eu95 O135 2.612 . S
Eu95 O137 2.339 . S
Eu95 O138 2.563 . S
Eu95 O139 2.419 . S
Eu95 C159 2.848 . S
N96 C88 1.362 . S
N96 Eu95 2.657 . S
N96 C97 1.334 . S
C97 N96 1.334 . S
C97 C99 1.413 . S
C97 H104 0.929 . S
C98 C86 1.392 . S
C98 C99 1.367 . S
C98 H106 0.930 . S
C99 C97 1.413 . S
C99 C98 1.367 . S
C99 H101 0.930 . S
H100 C93 0.930 . S
H101 C99 0.930 . S
H102 C90 0.930 . S
H103 C91 0.930 . S
H104 C97 0.929 . S
H105 C119 0.930 . S
H106 C98 0.930 . S
H107 C125 0.930 . S
H108 C116 0.929 . S
H109 C123 0.930 . S
H110 C87 0.931 . S
H111 C117 0.930 . S
H112 C150 0.930 . S
H113 C94 0.930 . S
H114 C149 0.931 . S
N115 Eu84 2.657 . S
N115 C116 1.334 . S
N115 C120 1.362 . S
C116 H108 0.929 . S
C116 N115 1.334 . S
C116 C119 1.413 . S
C117 H111 0.930 . S
C117 C118 1.392 . S
C117 C119 1.367 . S
C118 C117 1.392 . S
C118 C120 1.420 . S
C118 C150 1.423 . S
C119 H105 0.930 . S
C119 C116 1.413 . S
C119 C117 1.367 . S
C120 N115 1.362 . S
C120 C118 1.420 . S
C120 C124 1.429 . S
H121 C126 0.930 1_655 S
N122 Eu84 2.609 . S
N122 C124 1.377 . S
N122 C125 1.321 . S
C123 H109 0.930 . S
C123 C125 1.400 1_655 S
C123 C126 1.386 1_655 S
C124 C120 1.429 . S
C124 N122 1.377 . S
C124 C127 1.411 . S
C125 H107 0.930 . S
C125 N122 1.321 . S
C125 C123 1.400 1_455 S
C126 H121 0.930 1_455 S
C126 C123 1.386 1_455 S
C126 C127 1.395 . S
C127 C124 1.411 . S
C127 C126 1.395 . S
C127 C149 1.420 . S
O128 Eu84 2.558 1_554 S
O128 C148 1.257 . S
O129 Eu84 2.612 . S
O129 Eu95 2.380 . S
O129 C140 1.276 . S
O130 Eu95 2.432 . S
O130 C147 1.264 . S
O131 Eu84 2.339 . S
O131 C147 1.254 . S
O132 Eu84 2.563 1_554 S
O132 C140 1.235 1_554 S
O133 Eu84 2.419 1_554 S
O133 C148 1.249 . S
O134 Eu95 2.558 . S
O134 C159 1.257 . S
O135 Eu84 2.380 . S
O135 Eu95 2.612 . S
O135 C151 1.276 . S
O136 Eu84 2.432 . S
O136 C158 1.264 . S
O137 Eu95 2.339 . S
O137 C158 1.254 . S
O138 Eu95 2.563 . S
O138 C151 1.235 . S
O139 Eu95 2.419 . S
O139 C159 1.249 . S
C140 O129 1.276 . S
C140 O132 1.235 1_556 S
C141 C143 1.393 . S
C141 C145 1.395 . S
C141 C148 1.492 . S
C142 C143 1.392 . S
C142 C144 1.386 . S
C143 C141 1.393 . S
C143 C142 1.392 . S
C143 H160 0.930 . S
C144 C142 1.386 . S
C144 C146 1.395 . S
C144 H161 0.930 . S
C145 C141 1.395 . S
C145 C146 1.379 . S
C145 H162 0.930 . S
C146 C144 1.395 . S
C146 C145 1.379 . S
C146 H163 0.930 . S
C147 O130 1.264 . S
C147 O131 1.254 . S
C148 Eu84 2.848 1_554 S
C148 O128 1.257 . S
C148 O133 1.249 . S
C148 C141 1.492 . S
C149 H114 0.931 . S
C149 C127 1.420 . S
C149 C150 1.351 . S
C150 H112 0.930 . S
C150 C118 1.423 . S
C150 C149 1.351 . S
C151 O135 1.276 . S
C151 O138 1.235 . S
C152 C153 1.393 . S
C152 C156 1.395 . S
C152 C159 1.492 . S
C153 C152 1.393 . S
C153 C154 1.392 . S
C153 H164 0.930 . S
C154 C153 1.392 . S
C154 C155 1.386 . S
C155 C154 1.386 . S
C155 C157 1.395 . S
C155 H165 0.930 . S
C156 C152 1.395 . S
C156 C157 1.379 . S
C156 H166 0.930 . S
C157 C155 1.395 . S
C157 C156 1.379 . S
C157 H167 0.930 . S
C158 O136 1.264 . S
C158 O137 1.254 . S
C159 Eu95 2.848 . S
C159 O134 1.257 . S
C159 O139 1.249 . S
C159 C152 1.492 . S
H160 C143 0.930 . S
H161 C144 0.930 . S
H162 C145 0.930 . S
H163 C146 0.930 . S
H164 C153 0.930 . S
H165 C155 0.930 . S
H166 C156 0.930 . S
H167 C157 0.930 . S
Eu168 N199 2.657 . S
Eu168 N206 2.609 . S
Eu168 O212 2.558 . S
Eu168 O213 2.612 . S
Eu168 O215 2.339 . S
Eu168 O216 2.563 . S
Eu168 O217 2.419 . S
Eu168 O219 2.380 . S
Eu168 O220 2.432 . S
Eu168 C232 2.848 . S
C169 C172 1.429 . S
C169 C173 1.411 . S
C169 N176 1.377 . S
C170 C172 1.420 . S
C170 C174 1.423 . S
C170 C182 1.392 . S
C171 C173 1.420 . S
C171 C174 1.351 . S
C171 H194 0.931 . S
C172 C169 1.429 . S
C172 C170 1.420 . S
C172 N180 1.362 . S
C173 C169 1.411 . S
C173 C171 1.420 . S
C173 C178 1.395 . S
C174 C170 1.423 . S
C174 C171 1.351 . S
C174 H186 0.930 . S
C175 C177 1.400 1_545 S
C175 C178 1.386 1_545 S
C175 H187 0.930 . S
N176 C169 1.377 . S
N176 C177 1.321 . S
N176 Eu179 2.609 . S
C177 C175 1.400 1_565 S
C177 N176 1.321 . S
C177 H184 0.930 . S
C178 C173 1.395 . S
C178 C175 1.386 1_565 S
C178 H197 0.930 1_565 S
Eu179 N176 2.609 . S
Eu179 N180 2.657 . S
Eu179 O213 2.380 . S
Eu179 O214 2.432 . S
Eu179 O218 2.558 1_554 S
Eu179 O219 2.612 . S
Eu179 O221 2.339 . S
Eu179 O222 2.563 1_554 S
Eu179 O223 2.419 1_554 S
Eu179 C243 2.848 1_554 S
N180 C172 1.362 . S
N180 Eu179 2.657 . S
N180 C181 1.334 . S
C181 N180 1.334 . S
C181 C183 1.413 . S
C181 H188 0.929 . S
C182 C170 1.392 . S
C182 C183 1.367 . S
C182 H190 0.930 . S
C183 C181 1.413 . S
C183 C182 1.367 . S
C183 H185 0.930 . S
H184 C177 0.930 . S
H185 C183 0.930 . S
H186 C174 0.930 . S
H187 C175 0.930 . S
H188 C181 0.929 . S
H189 C203 0.930 . S
H190 C182 0.930 . S
H191 C209 0.930 . S
H192 C200 0.929 . S
H193 C207 0.930 . S
H194 C171 0.931 . S
H195 C201 0.930 . S
H196 C234 0.930 . S
H197 C178 0.930 1_545 S
H198 C233 0.931 . S
N199 Eu168 2.657 . S
N199 C200 1.334 . S
N199 C204 1.362 . S
C200 H192 0.929 . S
C200 N199 1.334 . S
C200 C203 1.413 . S
C201 H195 0.930 . S
C201 C202 1.392 . S
C201 C203 1.367 . S
C202 C201 1.392 . S
C202 C204 1.420 . S
C202 C234 1.423 . S
C203 H189 0.930 . S
C203 C200 1.413 . S
C203 C201 1.367 . S
C204 N199 1.362 . S
C204 C202 1.420 . S
C204 C208 1.429 . S
H205 C210 0.930 . S
N206 Eu168 2.609 . S
N206 C208 1.377 . S
N206 C209 1.321 . S
C207 H193 0.930 . S
C207 C209 1.400 . S
C207 C210 1.386 . S
C208 C204 1.429 . S
C208 N206 1.377 . S
C208 C211 1.411 . S
C209 H191 0.930 . S
C209 N206 1.321 . S
C209 C207 1.400 . S
C210 H205 0.930 . S
C210 C207 1.386 . S
C210 C211 1.395 . S
C211 C208 1.411 . S
C211 C210 1.395 . S
C211 C233 1.420 . S
O212 Eu168 2.558 . S
O212 C232 1.257 . S
O213 Eu168 2.612 . S
O213 Eu179 2.380 . S
O213 C224 1.276 . S
O214 Eu179 2.432 . S
O214 C231 1.264 . S
O215 Eu168 2.339 . S
O215 C231 1.254 . S
O216 Eu168 2.563 . S
O216 C224 1.235 . S
O217 Eu168 2.419 . S
O217 C232 1.249 . S
O218 Eu179 2.558 1_556 S
O218 C243 1.257 . S
O219 Eu168 2.380 . S
O219 Eu179 2.612 . S
O219 C235 1.276 . S
O220 Eu168 2.432 . S
O220 C242 1.264 . S
O221 Eu179 2.339 . S
O221 C242 1.254 . S
O222 Eu179 2.563 1_556 S
O222 C235 1.235 1_556 S
O223 Eu179 2.419 1_556 S
O223 C243 1.249 . S
C224 O213 1.276 . S
C224 O216 1.235 . S
C225 C227 1.393 . S
C225 C229 1.395 . S
C225 C232 1.492 . S
C226 C227 1.392 . S
C226 C228 1.386 . S
C227 C225 1.393 . S
C227 C226 1.392 . S
C227 H244 0.930 . S
C228 C226 1.386 . S
C228 C230 1.395 . S
C228 H245 0.930 . S
C229 C225 1.395 . S
C229 C230 1.379 . S
C229 H246 0.930 . S
C230 C228 1.395 . S
C230 C229 1.379 . S
C230 H247 0.930 . S
C231 O214 1.264 . S
C231 O215 1.254 . S
C232 Eu168 2.848 . S
C232 O212 1.257 . S
C232 O217 1.249 . S
C232 C225 1.492 . S
C233 H198 0.931 . S
C233 C211 1.420 . S
C233 C234 1.351 . S
C234 H196 0.930 . S
C234 C202 1.423 . S
C234 C233 1.351 . S
C235 O219 1.276 . S
C235 O222 1.235 1_554 S
C236 C237 1.393 . S
C236 C240 1.395 . S
C236 C243 1.492 . S
C237 C236 1.393 . S
C237 C238 1.392 . S
C237 H248 0.930 . S
C238 C237 1.392 . S
C238 C239 1.386 . S
C239 C238 1.386 . S
C239 C241 1.395 . S
C239 H249 0.930 . S
C240 C236 1.395 . S
C240 C241 1.379 . S
C240 H250 0.930 . S
C241 C239 1.395 . S
C241 C240 1.379 . S
C241 H251 0.930 . S
C242 O220 1.264 . S
C242 O221 1.254 . S
C243 Eu179 2.848 1_556 S
C243 O218 1.257 . S
C243 O223 1.249 . S
C243 C236 1.492 . S
H244 C227 0.930 . S
H245 C228 0.930 . S
H246 C229 0.930 . S
H247 C230 0.930 . S
H248 C237 0.930 . S
H249 C239 0.930 . S
H250 C240 0.930 . S
H251 C241 0.930 . S
Eu252 N283 2.657 . S
Eu252 N290 2.609 . S
Eu252 O296 2.558 1_556 S
Eu252 O297 2.612 . S
Eu252 O299 2.339 . S
Eu252 O300 2.563 1_556 S
Eu252 O301 2.419 1_556 S
Eu252 O303 2.380 . S
Eu252 O304 2.432 . S
Eu252 C316 2.848 1_556 S
C253 C256 1.429 . S
C253 C257 1.411 . S
C253 N260 1.377 . S
C254 C256 1.420 . S
C254 C258 1.423 . S
C254 C266 1.392 . S
C255 C257 1.420 . S
C255 C258 1.351 . S
C255 H278 0.931 . S
C256 C253 1.429 . S
C256 C254 1.420 . S
C256 N264 1.362 . S
C257 C253 1.411 . S
C257 C255 1.420 . S
C257 C262 1.395 . S
C258 C254 1.423 . S
C258 C255 1.351 . S
C258 H270 0.930 . S
C259 C261 1.400 . S
C259 C262 1.386 . S
C259 H271 0.930 . S
N260 C253 1.377 . S
N260 C261 1.321 . S
N260 Eu263 2.609 . S
C261 C259 1.400 . S
C261 N260 1.321 . S
C261 H268 0.930 . S
C262 C257 1.395 . S
C262 C259 1.386 . S
C262 H281 0.930 . S
Eu263 N260 2.609 . S
Eu263 N264 2.657 . S
Eu263 O297 2.380 . S
Eu263 O298 2.432 . S
Eu263 O302 2.558 . S
Eu263 O303 2.612 . S
Eu263 O305 2.339 . S
Eu263 O306 2.563 . S
Eu263 O307 2.419 . S
Eu263 C327 2.848 . S
N264 C256 1.362 . S
N264 Eu263 2.657 . S
N264 C265 1.334 . S
C265 N264 1.334 . S
C265 C267 1.413 . S
C265 H272 0.929 . S
C266 C254 1.392 . S
C266 C267 1.367 . S
C266 H274 0.930 . S
C267 C265 1.413 . S
C267 C266 1.367 . S
C267 H269 0.930 . S
H268 C261 0.930 . S
H269 C267 0.930 . S
H270 C258 0.930 . S
H271 C259 0.930 . S
H272 C265 0.929 . S
H273 C287 0.930 . S
H274 C266 0.930 . S
H275 C293 0.930 . S
H276 C284 0.929 . S
H277 C291 0.930 . S
H278 C255 0.931 . S
H279 C285 0.930 . S
H280 C318 0.930 . S
H281 C262 0.930 . S
H282 C317 0.931 . S
N283 Eu252 2.657 . S
N283 C284 1.334 . S
N283 C288 1.362 . S
C284 H276 0.929 . S
C284 N283 1.334 . S
C284 C287 1.413 . S
C285 H279 0.930 . S
C285 C286 1.392 . S
C285 C287 1.367 . S
C286 C285 1.392 . S
C286 C288 1.420 . S
C286 C318 1.423 . S
C287 H273 0.930 . S
C287 C284 1.413 . S
C287 C285 1.367 . S
C288 N283 1.362 . S
C288 C286 1.420 . S
C288 C292 1.429 . S
H289 C294 0.930 1_455 S
N290 Eu252 2.609 . S
N290 C292 1.377 . S
N290 C293 1.321 . S
C291 H277 0.930 . S
C291 C293 1.400 1_455 S
C291 C294 1.386 1_455 S
C292 C288 1.429 . S
C292 N290 1.377 . S
C292 C295 1.411 . S
C293 H275 0.930 . S
C293 N290 1.321 . S
C293 C291 1.400 1_655 S
C294 H289 0.930 1_655 S
C294 C291 1.386 1_655 S
C294 C295 1.395 . S
C295 C292 1.411 . S
C295 C294 1.395 . S
C295 C317 1.420 . S
O296 Eu252 2.558 1_554 S
O296 C316 1.257 . S
O297 Eu252 2.612 . S
O297 Eu263 2.380 . S
O297 C308 1.276 . S
O298 Eu263 2.432 . S
O298 C315 1.264 . S
O299 Eu252 2.339 . S
O299 C315 1.254 . S
O300 Eu252 2.563 1_554 S
O300 C308 1.235 1_554 S
O301 Eu252 2.419 1_554 S
O301 C316 1.249 . S
O302 Eu263 2.558 . S
O302 C327 1.257 . S
O303 Eu252 2.380 . S
O303 Eu263 2.612 . S
O303 C319 1.276 . S
O304 Eu252 2.432 . S
O304 C326 1.264 . S
O305 Eu263 2.339 . S
O305 C326 1.254 . S
O306 Eu263 2.563 . S
O306 C319 1.235 . S
O307 Eu263 2.419 . S
O307 C327 1.249 . S
C308 O297 1.276 . S
C308 O300 1.235 1_556 S
C309 C311 1.393 . S
C309 C313 1.395 . S
C309 C316 1.492 . S
C310 C311 1.392 . S
C310 C312 1.386 . S
C311 C309 1.393 . S
C311 C310 1.392 . S
C311 H328 0.930 . S
C312 C310 1.386 . S
C312 C314 1.395 . S
C312 H329 0.930 . S
C313 C309 1.395 . S
C313 C314 1.379 . S
C313 H330 0.930 . S
C314 C312 1.395 . S
C314 C313 1.379 . S
C314 H331 0.930 . S
C315 O298 1.264 . S
C315 O299 1.254 . S
C316 Eu252 2.848 1_554 S
C316 O296 1.257 . S
C316 O301 1.249 . S
C316 C309 1.492 . S
C317 H282 0.931 . S
C317 C295 1.420 . S
C317 C318 1.351 . S
C318 H280 0.930 . S
C318 C286 1.423 . S
C318 C317 1.351 . S
C319 O303 1.276 . S
C319 O306 1.235 . S
C320 C321 1.393 . S
C320 C324 1.395 . S
C320 C327 1.492 . S
C321 C320 1.393 . S
C321 C322 1.392 . S
C321 H332 0.930 . S
C322 C321 1.392 . S
C322 C323 1.386 . S
C323 C322 1.386 . S
C323 C325 1.395 . S
C323 H333 0.930 . S
C324 C320 1.395 . S
C324 C325 1.379 . S
C324 H334 0.930 . S
C325 C323 1.395 . S
C325 C324 1.379 . S
C325 H335 0.930 . S
C326 O304 1.264 . S
C326 O305 1.254 . S
C327 Eu263 2.848 . S
C327 O302 1.257 . S
C327 O307 1.249 . S
C327 C320 1.492 . S
H328 C311 0.930 . S
H329 C312 0.930 . S
H330 C313 0.930 . S
H331 C314 0.930 . S
H332 C321 0.930 . S
H333 C323 0.930 . S
H334 C324 0.930 . S
H335 C325 0.930 . S
Eu336 N367 2.657 . S
Eu336 N374 2.609 . S
Eu336 O380 2.558 1_554 S
Eu336 O381 2.612 . S
Eu336 O383 2.339 . S
Eu336 O384 2.563 1_554 S
Eu336 O385 2.419 1_554 S
Eu336 O387 2.380 . S
Eu336 O388 2.432 . S
Eu336 C400 2.848 1_554 S
C337 C340 1.429 . S
C337 C341 1.411 . S
C337 N344 1.377 . S
C338 C340 1.420 . S
C338 C342 1.423 . S
C338 C350 1.392 . S
C339 C341 1.420 . S
C339 C342 1.351 . S
C339 H362 0.931 . S
C340 C337 1.429 . S
C340 C338 1.420 . S
C340 N348 1.362 . S
C341 C337 1.411 . S
C341 C339 1.420 . S
C341 C346 1.395 . S
C342 C338 1.423 . S
C342 C339 1.351 . S
C342 H354 0.930 . S
C343 C345 1.400 . S
C343 C346 1.386 . S
C343 H355 0.930 . S
N344 C337 1.377 . S
N344 C345 1.321 . S
N344 Eu347 2.609 . S
C345 C343 1.400 . S
C345 N344 1.321 . S
C345 H352 0.930 . S
C346 C341 1.395 . S
C346 C343 1.386 . S
C346 H365 0.930 . S
Eu347 N344 2.609 . S
Eu347 N348 2.657 . S
Eu347 O381 2.380 . S
Eu347 O382 2.432 . S
Eu347 O386 2.558 . S
Eu347 O387 2.612 . S
Eu347 O389 2.339 . S
Eu347 O390 2.563 . S
Eu347 O391 2.419 . S
Eu347 C411 2.848 . S
N348 C340 1.362 . S
N348 Eu347 2.657 . S
N348 C349 1.334 . S
C349 N348 1.334 . S
C349 C351 1.413 . S
C349 H356 0.929 . S
C350 C338 1.392 . S
C350 C351 1.367 . S
C350 H358 0.930 . S
C351 C349 1.413 . S
C351 C350 1.367 . S
C351 H353 0.930 . S
H352 C345 0.930 . S
H353 C351 0.930 . S
H354 C342 0.930 . S
H355 C343 0.930 . S
H356 C349 0.929 . S
H357 C371 0.930 . S
H358 C350 0.930 . S
H359 C377 0.930 . S
H360 C368 0.929 . S
H361 C375 0.930 . S
H362 C339 0.931 . S
H363 C369 0.930 . S
H364 C402 0.930 . S
H365 C346 0.930 . S
H366 C401 0.931 . S
N367 Eu336 2.657 . S
N367 C368 1.334 . S
N367 C372 1.362 . S
C368 H360 0.929 . S
C368 N367 1.334 . S
C368 C371 1.413 . S
C369 H363 0.930 . S
C369 C370 1.392 . S
C369 C371 1.367 . S
C370 C369 1.392 . S
C370 C372 1.420 . S
C370 C402 1.423 . S
C371 H357 0.930 . S
C371 C368 1.413 . S
C371 C369 1.367 . S
C372 N367 1.362 . S
C372 C370 1.420 . S
C372 C376 1.429 . S
H373 C378 0.930 . S
N374 Eu336 2.609 . S
N374 C376 1.377 . S
N374 C377 1.321 . S
C375 H361 0.930 . S
C375 C377 1.400 . S
C375 C378 1.386 . S
C376 C372 1.429 . S
C376 N374 1.377 . S
C376 C379 1.411 . S
C377 H359 0.930 . S
C377 N374 1.321 . S
C377 C375 1.400 . S
C378 H373 0.930 . S
C378 C375 1.386 . S
C378 C379 1.395 . S
C379 C376 1.411 . S
C379 C378 1.395 . S
C379 C401 1.420 . S
O380 Eu336 2.558 1_556 S
O380 C400 1.257 . S
O381 Eu336 2.612 . S
O381 Eu347 2.380 . S
O381 C392 1.276 . S
O382 Eu347 2.432 . S
O382 C399 1.264 . S
O383 Eu336 2.339 . S
O383 C399 1.254 . S
O384 Eu336 2.563 1_556 S
O384 C392 1.235 1_556 S
O385 Eu336 2.419 1_556 S
O385 C400 1.249 . S
O386 Eu347 2.558 . S
O386 C411 1.257 . S
O387 Eu336 2.380 . S
O387 Eu347 2.612 . S
O387 C403 1.276 . S
O388 Eu336 2.432 . S
O388 C410 1.264 . S
O389 Eu347 2.339 . S
O389 C410 1.254 . S
O390 Eu347 2.563 . S
O390 C403 1.235 . S
O391 Eu347 2.419 . S
O391 C411 1.249 . S
C392 O381 1.276 . S
C392 O384 1.235 1_554 S
C393 C395 1.393 . S
C393 C397 1.395 . S
C393 C400 1.492 . S
C394 C395 1.392 . S
C394 C396 1.386 . S
C395 C393 1.393 . S
C395 C394 1.392 . S
C395 H412 0.930 . S
C396 C394 1.386 . S
C396 C398 1.395 . S
C396 H413 0.930 . S
C397 C393 1.395 . S
C397 C398 1.379 . S
C397 H414 0.930 . S
C398 C396 1.395 . S
C398 C397 1.379 . S
C398 H415 0.930 . S
C399 O382 1.264 . S
C399 O383 1.254 . S
C400 Eu336 2.848 1_556 S
C400 O380 1.257 . S
C400 O385 1.249 . S
C400 C393 1.492 . S
C401 H366 0.931 . S
C401 C379 1.420 . S
C401 C402 1.351 . S
C402 H364 0.930 . S
C402 C370 1.423 . S
C402 C401 1.351 . S
C403 O387 1.276 . S
C403 O390 1.235 . S
C404 C405 1.393 . S
C404 C408 1.395 . S
C404 C411 1.492 . S
C405 C404 1.393 . S
C405 C406 1.392 . S
C405 H416 0.930 . S
C406 C405 1.392 . S
C406 C407 1.386 . S
C407 C406 1.386 . S
C407 C409 1.395 . S
C407 H417 0.930 . S
C408 C404 1.395 . S
C408 C409 1.379 . S
C408 H418 0.930 . S
C409 C407 1.395 . S
C409 C408 1.379 . S
C409 H419 0.930 . S
C410 O388 1.264 . S
C410 O389 1.254 . S
C411 Eu347 2.848 . S
C411 O386 1.257 . S
C411 O391 1.249 . S
C411 C404 1.492 . S
H412 C395 0.930 . S
H413 C396 0.930 . S
H414 C397 0.930 . S
H415 C398 0.930 . S
H416 C405 0.930 . S
H417 C407 0.930 . S
H418 C408 0.930 . S
H419 C409 0.930 . S
Eu420 N451 2.657 . S
Eu420 N458 2.609 . S
Eu420 O464 2.558 . S
Eu420 O465 2.612 . S
Eu420 O467 2.339 . S
Eu420 O468 2.563 . S
Eu420 O469 2.419 . S
Eu420 O471 2.380 . S
Eu420 O472 2.432 . S
Eu420 C484 2.848 . S
C421 C424 1.429 . S
C421 C425 1.411 . S
C421 N428 1.377 . S
C422 C424 1.420 . S
C422 C426 1.423 . S
C422 C434 1.392 . S
C423 C425 1.420 . S
C423 C426 1.351 . S
C423 H446 0.931 . S
C424 C421 1.429 . S
C424 C422 1.420 . S
C424 N432 1.362 . S
C425 C421 1.411 . S
C425 C423 1.420 . S
C425 C430 1.395 . S
C426 C422 1.423 . S
C426 C423 1.351 . S
C426 H438 0.930 . S
C427 C429 1.400 . S
C427 C430 1.386 . S
C427 H439 0.930 . S
N428 C421 1.377 . S
N428 C429 1.321 . S
N428 Eu431 2.609 . S
C429 C427 1.400 . S
C429 N428 1.321 . S
C429 H436 0.930 . S
C430 C425 1.395 . S
C430 C427 1.386 . S
C430 H449 0.930 . S
Eu431 N428 2.609 . S
Eu431 N432 2.657 . S
Eu431 O465 2.380 . S
Eu431 O466 2.432 . S
Eu431 O470 2.558 1_556 S
Eu431 O471 2.612 . S
Eu431 O473 2.339 . S
Eu431 O474 2.563 1_556 S
Eu431 O475 2.419 1_556 S
Eu431 C495 2.848 1_556 S
N432 C424 1.362 . S
N432 Eu431 2.657 . S
N432 C433 1.334 . S
C433 N432 1.334 . S
C433 C435 1.413 . S
C433 H440 0.929 . S
C434 C422 1.392 . S
C434 C435 1.367 . S
C434 H442 0.930 . S
C435 C433 1.413 . S
C435 C434 1.367 . S
C435 H437 0.930 . S
H436 C429 0.930 . S
H437 C435 0.930 . S
H438 C426 0.930 . S
H439 C427 0.930 . S
H440 C433 0.929 . S
H441 C455 0.930 . S
H442 C434 0.930 . S
H443 C461 0.930 . S
H444 C452 0.929 . S
H445 C459 0.930 . S
H446 C423 0.931 . S
H447 C453 0.930 . S
H448 C486 0.930 . S
H449 C430 0.930 . S
H450 C485 0.931 . S
N451 Eu420 2.657 . S
N451 C452 1.334 . S
N451 C456 1.362 . S
C452 H444 0.929 . S
C452 N451 1.334 . S
C452 C455 1.413 . S
C453 H447 0.930 . S
C453 C454 1.392 . S
C453 C455 1.367 . S
C454 C453 1.392 . S
C454 C456 1.420 . S
C454 C486 1.423 . S
C455 H441 0.930 . S
C455 C452 1.413 . S
C455 C453 1.367 . S
C456 N451 1.362 . S
C456 C454 1.420 . S
C456 C460 1.429 . S
H457 C462 0.930 . S
N458 Eu420 2.609 . S
N458 C460 1.377 . S
N458 C461 1.321 . S
C459 H445 0.930 . S
C459 C461 1.400 . S
C459 C462 1.386 . S
C460 C456 1.429 . S
C460 N458 1.377 . S
C460 C463 1.411 . S
C461 H443 0.930 . S
C461 N458 1.321 . S
C461 C459 1.400 . S
C462 H457 0.930 . S
C462 C459 1.386 . S
C462 C463 1.395 . S
C463 C460 1.411 . S
C463 C462 1.395 . S
C463 C485 1.420 . S
O464 Eu420 2.558 . S
O464 C484 1.257 . S
O465 Eu420 2.612 . S
O465 Eu431 2.380 . S
O465 C476 1.276 . S
O466 Eu431 2.432 . S
O466 C483 1.264 . S
O467 Eu420 2.339 . S
O467 C483 1.254 . S
O468 Eu420 2.563 . S
O468 C476 1.235 . S
O469 Eu420 2.419 . S
O469 C484 1.249 . S
O470 Eu431 2.558 1_554 S
O470 C495 1.257 . S
O471 Eu420 2.380 . S
O471 Eu431 2.612 . S
O471 C487 1.276 . S
O472 Eu420 2.432 . S
O472 C494 1.264 . S
O473 Eu431 2.339 . S
O473 C494 1.254 . S
O474 Eu431 2.563 1_554 S
O474 C487 1.235 1_554 S
O475 Eu431 2.419 1_554 S
O475 C495 1.249 . S
C476 O465 1.276 . S
C476 O468 1.235 . S
C477 C479 1.393 . S
C477 C481 1.395 . S
C477 C484 1.492 . S
C478 C479 1.392 . S
C478 C480 1.386 . S
C479 C477 1.393 . S
C479 C478 1.392 . S
C479 H496 0.930 . S
C480 C478 1.386 . S
C480 C482 1.395 . S
C480 H497 0.930 . S
C481 C477 1.395 . S
C481 C482 1.379 . S
C481 H498 0.930 . S
C482 C480 1.395 . S
C482 C481 1.379 . S
C482 H499 0.930 . S
C483 O466 1.264 . S
C483 O467 1.254 . S
C484 Eu420 2.848 . S
C484 O464 1.257 . S
C484 O469 1.249 . S
C484 C477 1.492 . S
C485 H450 0.931 . S
C485 C463 1.420 . S
C485 C486 1.351 . S
C486 H448 0.930 . S
C486 C454 1.423 . S
C486 C485 1.351 . S
C487 O471 1.276 . S
C487 O474 1.235 1_556 S
C488 C489 1.393 . S
C488 C492 1.395 . S
C488 C495 1.492 . S
C489 C488 1.393 . S
C489 C490 1.392 . S
C489 H500 0.930 . S
C490 C489 1.392 . S
C490 C491 1.386 . S
C491 C490 1.386 . S
C491 C493 1.395 . S
C491 H501 0.930 . S
C492 C488 1.395 . S
C492 C493 1.379 . S
C492 H502 0.930 . S
C493 C491 1.395 . S
C493 C492 1.379 . S
C493 H503 0.930 . S
C494 O472 1.264 . S
C494 O473 1.254 . S
C495 Eu431 2.848 1_554 S
C495 O470 1.257 . S
C495 O475 1.249 . S
C495 C488 1.492 . S
H496 C479 0.930 . S
H497 C480 0.930 . S
H498 C481 0.930 . S
H499 C482 0.930 . S
H500 C489 0.930 . S
H501 C491 0.930 . S
H502 C492 0.930 . S
H503 C493 0.930 . S
Eu504 N535 2.657 . S
Eu504 N542 2.609 . S
Eu504 O548 2.558 1_554 S
Eu504 O549 2.612 . S
Eu504 O551 2.339 . S
Eu504 O552 2.563 1_554 S
Eu504 O553 2.419 1_554 S
Eu504 O555 2.380 . S
Eu504 O556 2.432 . S
Eu504 C568 2.848 1_554 S
C505 C508 1.429 . S
C505 C509 1.411 . S
C505 N512 1.377 . S
C506 C508 1.420 . S
C506 C510 1.423 . S
C506 C518 1.392 . S
C507 C509 1.420 . S
C507 C510 1.351 . S
C507 H530 0.931 . S
C508 C505 1.429 . S
C508 C506 1.420 . S
C508 N516 1.362 . S
C509 C505 1.411 . S
C509 C507 1.420 . S
C509 C514 1.395 . S
C510 C506 1.423 . S
C510 C507 1.351 . S
C510 H522 0.930 . S
C511 C513 1.400 . S
C511 C514 1.386 . S
C511 H523 0.930 . S
N512 C505 1.377 . S
N512 C513 1.321 . S
N512 Eu515 2.609 . S
C513 C511 1.400 . S
C513 N512 1.321 . S
C513 H520 0.930 . S
C514 C509 1.395 . S
C514 C511 1.386 . S
C514 H533 0.930 . S
Eu515 N512 2.609 . S
Eu515 N516 2.657 . S
Eu515 O549 2.380 . S
Eu515 O550 2.432 . S
Eu515 O554 2.558 . S
Eu515 O555 2.612 . S
Eu515 O557 2.339 . S
Eu515 O558 2.563 . S
Eu515 O559 2.419 . S
Eu515 C579 2.848 . S
N516 C508 1.362 . S
N516 Eu515 2.657 . S
N516 C517 1.334 . S
C517 N516 1.334 . S
C517 C519 1.413 . S
C517 H524 0.929 . S
C518 C506 1.392 . S
C518 C519 1.367 . S
C518 H526 0.930 . S
C519 C517 1.413 . S
C519 C518 1.367 . S
C519 H521 0.930 . S
H520 C513 0.930 . S
H521 C519 0.930 . S
H522 C510 0.930 . S
H523 C511 0.930 . S
H524 C517 0.929 . S
H525 C539 0.930 . S
H526 C518 0.930 . S
H527 C545 0.930 . S
H528 C536 0.929 . S
H529 C543 0.930 . S
H530 C507 0.931 . S
H531 C537 0.930 . S
H532 C570 0.930 . S
H533 C514 0.930 . S
H534 C569 0.931 . S
N535 Eu504 2.657 . S
N535 C536 1.334 . S
N535 C540 1.362 . S
C536 H528 0.929 . S
C536 N535 1.334 . S
C536 C539 1.413 . S
C537 H531 0.930 . S
C537 C538 1.392 . S
C537 C539 1.367 . S
C538 C537 1.392 . S
C538 C540 1.420 . S
C538 C570 1.423 . S
C539 H525 0.930 . S
C539 C536 1.413 . S
C539 C537 1.367 . S
C540 N535 1.362 . S
C540 C538 1.420 . S
C540 C544 1.429 . S
H541 C546 0.930 . S
N542 Eu504 2.609 . S
N542 C544 1.377 . S
N542 C545 1.321 . S
C543 H529 0.930 . S
C543 C545 1.400 . S
C543 C546 1.386 . S
C544 C540 1.429 . S
C544 N542 1.377 . S
C544 C547 1.411 . S
C545 H527 0.930 . S
C545 N542 1.321 . S
C545 C543 1.400 . S
C546 H541 0.930 . S
C546 C543 1.386 . S
C546 C547 1.395 . S
C547 C544 1.411 . S
C547 C546 1.395 . S
C547 C569 1.420 . S
O548 Eu504 2.558 1_556 S
O548 C568 1.257 . S
O549 Eu504 2.612 . S
O549 Eu515 2.380 . S
O549 C560 1.276 . S
O550 Eu515 2.432 . S
O550 C567 1.264 . S
O551 Eu504 2.339 . S
O551 C567 1.254 . S
O552 Eu504 2.563 1_556 S
O552 C560 1.235 1_556 S
O553 Eu504 2.419 1_556 S
O553 C568 1.249 . S
O554 Eu515 2.558 . S
O554 C579 1.257 . S
O555 Eu504 2.380 . S
O555 Eu515 2.612 . S
O555 C571 1.276 . S
O556 Eu504 2.432 . S
O556 C578 1.264 . S
O557 Eu515 2.339 . S
O557 C578 1.254 . S
O558 Eu515 2.563 . S
O558 C571 1.235 . S
O559 Eu515 2.419 . S
O559 C579 1.249 . S
C560 O549 1.276 . S
C560 O552 1.235 1_554 S
C561 C563 1.393 . S
C561 C565 1.395 . S
C561 C568 1.492 . S
C562 C563 1.392 . S
C562 C564 1.386 . S
C563 C561 1.393 . S
C563 C562 1.392 . S
C563 H580 0.930 . S
C564 C562 1.386 . S
C564 C566 1.395 . S
C564 H581 0.930 . S
C565 C561 1.395 . S
C565 C566 1.379 . S
C565 H582 0.930 . S
C566 C564 1.395 . S
C566 C565 1.379 . S
C566 H583 0.930 . S
C567 O550 1.264 . S
C567 O551 1.254 . S
C568 Eu504 2.848 1_556 S
C568 O548 1.257 . S
C568 O553 1.249 . S
C568 C561 1.492 . S
C569 H534 0.931 . S
C569 C547 1.420 . S
C569 C570 1.351 . S
C570 H532 0.930 . S
C570 C538 1.423 . S
C570 C569 1.351 . S
C571 O555 1.276 . S
C571 O558 1.235 . S
C572 C573 1.393 . S
C572 C576 1.395 . S
C572 C579 1.492 . S
C573 C572 1.393 . S
C573 C574 1.392 . S
C573 H584 0.930 . S
C574 C573 1.392 . S
C574 C575 1.386 . S
C575 C574 1.386 . S
C575 C577 1.395 . S
C575 H585 0.930 . S
C576 C572 1.395 . S
C576 C577 1.379 . S
C576 H586 0.930 . S
C577 C575 1.395 . S
C577 C576 1.379 . S
C577 H587 0.930 . S
C578 O556 1.264 . S
C578 O557 1.254 . S
C579 Eu515 2.848 . S
C579 O554 1.257 . S
C579 O559 1.249 . S
C579 C572 1.492 . S
H580 C563 0.930 . S
H581 C564 0.930 . S
H582 C565 0.930 . S
H583 C566 0.930 . S
H584 C573 0.930 . S
H585 C575 0.930 . S
H586 C576 0.930 . S
H587 C577 0.930 . S
Eu588 N619 2.657 . S
Eu588 N626 2.609 . S
Eu588 O632 2.558 . S
Eu588 O633 2.612 . S
Eu588 O635 2.339 . S
Eu588 O636 2.563 . S
Eu588 O637 2.419 . S
Eu588 O639 2.380 . S
Eu588 O640 2.432 . S
Eu588 C652 2.848 . S
C589 C592 1.429 . S
C589 C593 1.411 . S
C589 N596 1.377 . S
C590 C592 1.420 . S
C590 C594 1.423 . S
C590 C602 1.392 . S
C591 C593 1.420 . S
C591 C594 1.351 . S
C591 H614 0.931 . S
C592 C589 1.429 . S
C592 C590 1.420 . S
C592 N600 1.362 . S
C593 C589 1.411 . S
C593 C591 1.420 . S
C593 C598 1.395 . S
C594 C590 1.423 . S
C594 C591 1.351 . S
C594 H606 0.930 . S
C595 C597 1.400 . S
C595 C598 1.386 . S
C595 H607 0.930 . S
N596 C589 1.377 . S
N596 C597 1.321 . S
N596 Eu599 2.609 . S
C597 C595 1.400 . S
C597 N596 1.321 . S
C597 H604 0.930 . S
C598 C593 1.395 . S
C598 C595 1.386 . S
C598 H617 0.930 . S
Eu599 N596 2.609 . S
Eu599 N600 2.657 . S
Eu599 O633 2.380 . S
Eu599 O634 2.432 . S
Eu599 O638 2.558 1_556 S
Eu599 O639 2.612 . S
Eu599 O641 2.339 . S
Eu599 O642 2.563 1_556 S
Eu599 O643 2.419 1_556 S
Eu599 C663 2.848 1_556 S
N600 C592 1.362 . S
N600 Eu599 2.657 . S
N600 C601 1.334 . S
C601 N600 1.334 . S
C601 C603 1.413 . S
C601 H608 0.929 . S
C602 C590 1.392 . S
C602 C603 1.367 . S
C602 H610 0.930 . S
C603 C601 1.413 . S
C603 C602 1.367 . S
C603 H605 0.930 . S
H604 C597 0.930 . S
H605 C603 0.930 . S
H606 C594 0.930 . S
H607 C595 0.930 . S
H608 C601 0.929 . S
H609 C623 0.930 . S
H610 C602 0.930 . S
H611 C629 0.930 . S
H612 C620 0.929 . S
H613 C627 0.930 . S
H614 C591 0.931 . S
H615 C621 0.930 . S
H616 C654 0.930 . S
H617 C598 0.930 . S
H618 C653 0.931 . S
N619 Eu588 2.657 . S
N619 C620 1.334 . S
N619 C624 1.362 . S
C620 H612 0.929 . S
C620 N619 1.334 . S
C620 C623 1.413 . S
C621 H615 0.930 . S
C621 C622 1.392 . S
C621 C623 1.367 . S
C622 C621 1.392 . S
C622 C624 1.420 . S
C622 C654 1.423 . S
C623 H609 0.930 . S
C623 C620 1.413 . S
C623 C621 1.367 . S
C624 N619 1.362 . S
C624 C622 1.420 . S
C624 C628 1.429 . S
H625 C630 0.930 . S
N626 Eu588 2.609 . S
N626 C628 1.377 . S
N626 C629 1.321 . S
C627 H613 0.930 . S
C627 C629 1.400 . S
C627 C630 1.386 . S
C628 C624 1.429 . S
C628 N626 1.377 . S
C628 C631 1.411 . S
C629 H611 0.930 . S
C629 N626 1.321 . S
C629 C627 1.400 . S
C630 H625 0.930 . S
C630 C627 1.386 . S
C630 C631 1.395 . S
C631 C628 1.411 . S
C631 C630 1.395 . S
C631 C653 1.420 . S
O632 Eu588 2.558 . S
O632 C652 1.257 . S
O633 Eu588 2.612 . S
O633 Eu599 2.380 . S
O633 C644 1.276 . S
O634 Eu599 2.432 . S
O634 C651 1.264 . S
O635 Eu588 2.339 . S
O635 C651 1.254 . S
O636 Eu588 2.563 . S
O636 C644 1.235 . S
O637 Eu588 2.419 . S
O637 C652 1.249 . S
O638 Eu599 2.558 1_554 S
O638 C663 1.257 . S
O639 Eu588 2.380 . S
O639 Eu599 2.612 . S
O639 C655 1.276 . S
O640 Eu588 2.432 . S
O640 C662 1.264 . S
O641 Eu599 2.339 . S
O641 C662 1.254 . S
O642 Eu599 2.563 1_554 S
O642 C655 1.235 1_554 S
O643 Eu599 2.419 1_554 S
O643 C663 1.249 . S
C644 O633 1.276 . S
C644 O636 1.235 . S
C645 C647 1.393 . S
C645 C649 1.395 . S
C645 C652 1.492 . S
C646 C647 1.392 . S
C646 C648 1.386 . S
C647 C645 1.393 . S
C647 C646 1.392 . S
C647 H664 0.930 . S
C648 C646 1.386 . S
C648 C650 1.395 . S
C648 H665 0.930 . S
C649 C645 1.395 . S
C649 C650 1.379 . S
C649 H666 0.930 . S
C650 C648 1.395 . S
C650 C649 1.379 . S
C650 H667 0.930 . S
C651 O634 1.264 . S
C651 O635 1.254 . S
C652 Eu588 2.848 . S
C652 O632 1.257 . S
C652 O637 1.249 . S
C652 C645 1.492 . S
C653 H618 0.931 . S
C653 C631 1.420 . S
C653 C654 1.351 . S
C654 H616 0.930 . S
C654 C622 1.423 . S
C654 C653 1.351 . S
C655 O639 1.276 . S
C655 O642 1.235 1_556 S
C656 C657 1.393 . S
C656 C660 1.395 . S
C656 C663 1.492 . S
C657 C656 1.393 . S
C657 C658 1.392 . S
C657 H668 0.930 . S
C658 C657 1.392 . S
C658 C659 1.386 . S
C659 C658 1.386 . S
C659 C661 1.395 . S
C659 H669 0.930 . S
C660 C656 1.395 . S
C660 C661 1.379 . S
C660 H670 0.930 . S
C661 C659 1.395 . S
C661 C660 1.379 . S
C661 H671 0.930 . S
C662 O640 1.264 . S
C662 O641 1.254 . S
C663 Eu599 2.848 1_554 S
C663 O638 1.257 . S
C663 O643 1.249 . S
C663 C656 1.492 . S
H664 C647 0.930 . S
H665 C648 0.930 . S
H666 C649 0.930 . S
H667 C650 0.930 . S
H668 C657 0.930 . S
H669 C659 0.930 . S
H670 C660 0.930 . S
H671 C661 0.930 . S
Eu672 N703 2.657 . S
Eu672 N710 2.609 . S
Eu672 O716 2.558 . S
Eu672 O717 2.612 . S
Eu672 O719 2.339 . S
Eu672 O720 2.563 . S
Eu672 O721 2.419 . S
Eu672 O723 2.380 . S
Eu672 O724 2.432 . S
Eu672 C736 2.848 . S
C673 C676 1.429 . S
C673 C677 1.411 . S
C673 N680 1.377 . S
C674 C676 1.420 . S
C674 C678 1.423 1_655 S
C674 C686 1.391 1_655 S
C675 C677 1.420 1_455 S
C675 C678 1.351 . S
C675 H698 0.931 . S
C676 C673 1.429 . S
C676 C674 1.420 . S
C676 N684 1.362 . S
C677 C673 1.411 . S
C677 C675 1.420 1_655 S
C677 C682 1.395 . S
C678 C674 1.423 1_455 S
C678 C675 1.351 . S
C678 H690 0.930 . S
C679 C681 1.400 . S
C679 C682 1.386 . S
C679 H691 0.930 . S
N680 C673 1.377 . S
N680 C681 1.321 . S
N680 Eu683 2.609 . S
C681 C679 1.400 . S
C681 N680 1.321 . S
C681 H688 0.930 . S
C682 C677 1.395 . S
C682 C679 1.386 . S
C682 H701 0.930 1_655 S
Eu683 N680 2.609 . S
Eu683 N684 2.657 . S
Eu683 O717 2.380 . S
Eu683 O718 2.432 . S
Eu683 O722 2.558 . S
Eu683 O723 2.612 . S
Eu683 O725 2.339 . S
Eu683 O726 2.563 . S
Eu683 O727 2.419 . S
Eu683 C747 2.848 . S
N684 C676 1.362 . S
N684 Eu683 2.657 . S
N684 C685 1.334 . S
C685 N684 1.334 . S
C685 C687 1.413 . S
C685 H692 0.929 . S
C686 C674 1.391 1_455 S
C686 C687 1.362 1_455 S
C686 H694 0.936 . S
C687 C685 1.413 . S
C687 C686 1.362 1_655 S
C687 H689 0.930 . S
H688 C681 0.930 . S
H689 C687 0.930 . S
H690 C678 0.930 . S
H691 C679 0.930 . S
H692 C685 0.929 . S
H693 C707 0.930 . S
H694 C686 0.936 . S
H695 C713 0.930 . S
H696 C704 0.929 . S
H697 C711 0.930 . S
H698 C675 0.931 . S
H699 C705 0.930 . S
H700 C738 0.930 . S
H701 C682 0.930 1_455 S
H702 C737 0.931 . S
N703 Eu672 2.657 . S
N703 C704 1.334 . S
N703 C708 1.362 . S
C704 H696 0.929 . S
C704 N703 1.334 . S
C704 C707 1.413 . S
C705 H699 0.930 . S
C705 C706 1.392 . S
C705 C707 1.367 . S
C706 C705 1.392 . S
C706 C708 1.420 . S
C706 C738 1.423 . S
C707 H693 0.930 . S
C707 C704 1.413 . S
C707 C705 1.367 . S
C708 N703 1.362 . S
C708 C706 1.420 . S
C708 C712 1.429 . S
H709 C714 0.930 . S
N710 Eu672 2.609 . S
N710 C712 1.377 . S
N710 C713 1.321 . S
C711 H697 0.930 . S
C711 C713 1.400 . S
C711 C714 1.386 . S
C712 C708 1.429 . S
C712 N710 1.377 . S
C712 C715 1.411 . S
C713 H695 0.930 . S
C713 N710 1.321 . S
C713 C711 1.400 . S
C714 H709 0.930 . S
C714 C711 1.386 . S
C714 C715 1.395 . S
C715 C712 1.411 . S
C715 C714 1.395 . S
C715 C737 1.420 . S
O716 Eu672 2.558 . S
O716 C736 1.257 . S
O717 Eu672 2.612 . S
O717 Eu683 2.380 . S
O717 C728 1.276 . S
O718 Eu683 2.432 . S
O718 C735 1.264 . S
O719 Eu672 2.339 . S
O719 C735 1.254 . S
O720 Eu672 2.563 . S
O720 C728 1.235 . S
O721 Eu672 2.419 . S
O721 C736 1.249 . S
O722 Eu683 2.558 . S
O722 C747 1.257 . S
O723 Eu672 2.380 . S
O723 Eu683 2.612 . S
O723 C739 1.276 . S
O724 Eu672 2.432 . S
O724 C746 1.264 . S
O725 Eu683 2.339 . S
O725 C746 1.254 . S
O726 Eu683 2.563 . S
O726 C739 1.235 . S
O727 Eu683 2.419 . S
O727 C747 1.249 . S
C728 O717 1.276 . S
C728 O720 1.235 . S
C729 C731 1.393 . S
C729 C733 1.395 . S
C729 C736 1.492 . S
C730 C731 1.392 1_554 S
C730 C732 1.386 . S
C731 C729 1.393 . S
C731 C730 1.392 1_556 S
C731 H748 0.930 . S
C732 C730 1.386 . S
C732 C734 1.395 . S
C732 H749 0.930 . S
C733 C729 1.395 . S
C733 C734 1.379 1_556 S
C733 H750 0.930 . S
C734 C732 1.395 . S
C734 C733 1.379 1_554 S
C734 H751 0.930 . S
C735 O718 1.264 . S
C735 O719 1.254 . S
C736 Eu672 2.848 . S
C736 O716 1.257 . S
C736 O721 1.249 . S
C736 C729 1.492 . S
C737 H702 0.931 . S
C737 C715 1.420 . S
C737 C738 1.351 . S
C738 H700 0.930 . S
C738 C706 1.423 . S
C738 C737 1.351 . S
C739 O723 1.276 . S
C739 O726 1.235 . S
C740 C741 1.393 . S
C740 C744 1.395 . S
C740 C747 1.492 . S
C741 C740 1.393 . S
C741 C742 1.392 . S
C741 H752 0.930 . S
C742 C741 1.392 . S
C742 C743 1.386 . S
C743 C742 1.386 . S
C743 C745 1.395 . S
C743 H753 0.930 . S
C744 C740 1.395 . S
C744 C745 1.379 . S
C744 H754 0.930 . S
C745 C743 1.395 . S
C745 C744 1.379 . S
C745 H755 0.930 . S
C746 O724 1.264 . S
C746 O725 1.254 . S
C747 Eu683 2.848 . S
C747 O722 1.257 . S
C747 O727 1.249 . S
C747 C740 1.492 . S
H748 C731 0.930 . S
H749 C732 0.930 . S
H750 C733 0.930 . S
H751 C734 0.930 . S
H752 C741 0.930 . S
H753 C743 0.930 . S
H754 C744 0.930 . S
H755 C745 0.930 . S
Eu756 N787 2.657 . S
Eu756 N794 2.609 . S
Eu756 O800 2.558 . S
Eu756 O801 2.612 . S
Eu756 O803 2.339 . S
Eu756 O804 2.563 . S
Eu756 O805 2.419 . S
Eu756 O807 2.380 . S
Eu756 O808 2.432 . S
Eu756 C820 2.848 . S
C757 C760 1.429 . S
C757 C761 1.411 . S
C757 N764 1.377 . S
C758 C760 1.420 . S
C758 C762 1.423 . S
C758 C770 1.392 . S
C759 C761 1.420 . S
C759 C762 1.351 . S
C759 H782 0.931 . S
C760 C757 1.429 . S
C760 C758 1.420 . S
C760 N768 1.362 . S
C761 C757 1.411 . S
C761 C759 1.420 . S
C761 C766 1.395 . S
C762 C758 1.423 . S
C762 C759 1.351 . S
C762 H774 0.930 . S
C763 C765 1.400 . S
C763 C766 1.386 . S
C763 H775 0.930 . S
N764 C757 1.377 . S
N764 C765 1.321 . S
N764 Eu767 2.609 . S
C765 C763 1.400 . S
C765 N764 1.321 . S
C765 H772 0.930 . S
C766 C761 1.395 . S
C766 C763 1.386 . S
C766 H785 0.930 . S
Eu767 N764 2.609 . S
Eu767 N768 2.657 . S
Eu767 O801 2.380 . S
Eu767 O802 2.432 . S
Eu767 O806 2.558 . S
Eu767 O807 2.612 . S
Eu767 O809 2.339 . S
Eu767 O810 2.563 . S
Eu767 O811 2.419 . S
Eu767 C831 2.848 . S
N768 C760 1.362 . S
N768 Eu767 2.657 . S
N768 C769 1.334 . S
C769 N768 1.334 . S
C769 C771 1.413 . S
C769 H776 0.929 . S
C770 C758 1.392 . S
C770 C771 1.367 . S
C770 H778 0.930 . S
C771 C769 1.413 . S
C771 C770 1.367 . S
C771 H773 0.930 . S
H772 C765 0.930 . S
H773 C771 0.930 . S
H774 C762 0.930 . S
H775 C763 0.930 . S
H776 C769 0.929 . S
H777 C791 0.930 . S
H778 C770 0.930 . S
H779 C797 0.930 . S
H780 C788 0.929 . S
H781 C795 0.930 . S
H782 C759 0.931 . S
H783 C789 0.936 . S
H784 C822 0.930 . S
H785 C766 0.930 . S
H786 C821 0.931 . S
N787 Eu756 2.657 . S
N787 C788 1.334 . S
N787 C792 1.362 . S
C788 H780 0.929 . S
C788 N787 1.334 . S
C788 C791 1.413 . S
C789 H783 0.936 . S
C789 C790 1.391 1_565 S
C789 C791 1.362 1_565 S
C790 C789 1.391 1_545 S
C790 C792 1.420 . S
C790 C822 1.423 1_545 S
C791 H777 0.930 . S
C791 C788 1.413 . S
C791 C789 1.362 1_545 S
C792 N787 1.362 . S
C792 C790 1.420 . S
C792 C796 1.429 . S
H793 C798 0.930 1_565 S
N794 Eu756 2.609 . S
N794 C796 1.377 . S
N794 C797 1.321 . S
C795 H781 0.930 . S
C795 C797 1.400 . S
C795 C798 1.386 . S
C796 C792 1.429 . S
C796 N794 1.377 . S
C796 C799 1.411 . S
C797 H779 0.930 . S
C797 N794 1.321 . S
C797 C795 1.400 . S
C798 H793 0.930 1_545 S
C798 C795 1.386 . S
C798 C799 1.395 . S
C799 C796 1.411 . S
C799 C798 1.395 . S
C799 C821 1.420 1_545 S
O800 Eu756 2.558 . S
O800 C820 1.257 . S
O801 Eu756 2.612 . S
O801 Eu767 2.380 . S
O801 C812 1.276 . S
O802 Eu767 2.432 . S
O802 C819 1.264 . S
O803 Eu756 2.339 . S
O803 C819 1.254 . S
O804 Eu756 2.563 . S
O804 C812 1.235 . S
O805 Eu756 2.419 . S
O805 C820 1.249 . S
O806 Eu767 2.558 . S
O806 C831 1.257 . S
O807 Eu756 2.380 . S
O807 Eu767 2.612 . S
O807 C823 1.276 . S
O808 Eu756 2.432 . S
O808 C830 1.264 . S
O809 Eu767 2.339 . S
O809 C830 1.254 . S
O810 Eu767 2.563 . S
O810 C823 1.235 . S
O811 Eu767 2.419 . S
O811 C831 1.249 . S
C812 O801 1.276 . S
C812 O804 1.235 . S
C813 C815 1.393 . S
C813 C817 1.395 . S
C813 C820 1.492 . S
C814 C815 1.392 . S
C814 C816 1.386 . S
C815 C813 1.393 . S
C815 C814 1.392 . S
C815 H832 0.930 . S
C816 C814 1.386 . S
C816 C818 1.395 . S
C816 H833 0.930 . S
C817 C813 1.395 . S
C817 C818 1.379 . S
C817 H834 0.930 . S
C818 C816 1.395 . S
C818 C817 1.379 . S
C818 H835 0.930 . S
C819 O802 1.264 . S
C819 O803 1.254 . S
C820 Eu756 2.848 . S
C820 O800 1.257 . S
C820 O805 1.249 . S
C820 C813 1.492 . S
C821 H786 0.931 . S
C821 C799 1.420 1_565 S
C821 C822 1.351 . S
C822 H784 0.930 . S
C822 C790 1.423 1_565 S
C822 C821 1.351 . S
C823 O807 1.276 . S
C823 O810 1.235 . S
C824 C825 1.393 . S
C824 C828 1.395 . S
C824 C831 1.492 . S
C825 C824 1.393 . S
C825 C826 1.392 1_554 S
C825 H836 0.930 . S
C826 C825 1.392 1_556 S
C826 C827 1.386 . S
C827 C826 1.386 . S
C827 C829 1.395 . S
C827 H837 0.930 . S
C828 C824 1.395 . S
C828 C829 1.379 1_554 S
C828 H838 0.930 . S
C829 C827 1.395 . S
C829 C828 1.379 1_556 S
C829 H839 0.930 . S
C830 O808 1.264 . S
C830 O809 1.254 . S
C831 Eu767 2.848 . S
C831 O806 1.257 . S
C831 O811 1.249 . S
C831 C824 1.492 . S
H832 C815 0.930 . S
H833 C816 0.930 . S
H834 C817 0.930 . S
H835 C818 0.930 . S
H836 C825 0.930 . S
H837 C827 0.930 . S
H838 C828 0.930 . S
H839 C829 0.930 . S
Eu840 N871 2.657 . S
Eu840 N878 2.609 . S
Eu840 O884 2.558 . S
Eu840 O885 2.612 . S
Eu840 O887 2.339 . S
Eu840 O888 2.563 . S
Eu840 O889 2.419 . S
Eu840 O891 2.380 . S
Eu840 O892 2.432 . S
Eu840 C904 2.848 . S
C841 C844 1.429 . S
C841 C845 1.411 . S
C841 N848 1.377 . S
C842 C844 1.420 . S
C842 C846 1.423 1_455 S
C842 C854 1.391 1_455 S
C843 C845 1.420 1_655 S
C843 C846 1.351 . S
C843 H866 0.931 . S
C844 C841 1.429 . S
C844 C842 1.420 . S
C844 N852 1.362 . S
C845 C841 1.411 . S
C845 C843 1.420 1_455 S
C845 C850 1.395 . S
C846 C842 1.423 1_655 S
C846 C843 1.351 . S
C846 H858 0.930 . S
C847 C849 1.400 . S
C847 C850 1.386 . S
C847 H859 0.930 . S
N848 C841 1.377 . S
N848 C849 1.321 . S
N848 Eu851 2.609 . S
C849 C847 1.400 . S
C849 N848 1.321 . S
C849 H856 0.930 . S
C850 C845 1.395 . S
C850 C847 1.386 . S
C850 H869 0.930 1_455 S
Eu851 N848 2.609 . S
Eu851 N852 2.657 . S
Eu851 O885 2.380 . S
Eu851 O886 2.432 . S
Eu851 O890 2.558 . S
Eu851 O891 2.612 . S
Eu851 O893 2.339 . S
Eu851 O894 2.563 . S
Eu851 O895 2.419 . S
Eu851 C915 2.848 . S
N852 C844 1.362 . S
N852 Eu851 2.657 . S
N852 C853 1.334 . S
C853 N852 1.334 . S
C853 C855 1.413 . S
C853 H860 0.929 . S
C854 C842 1.391 1_655 S
C854 C855 1.362 1_655 S
C854 H862 0.936 . S
C855 C853 1.413 . S
C855 C854 1.362 1_455 S
C855 H857 0.930 . S
H856 C849 0.930 . S
H857 C855 0.930 . S
H858 C846 0.930 . S
H859 C847 0.930 . S
H860 C853 0.929 . S
H861 C875 0.930 . S
H862 C854 0.936 . S
H863 C881 0.930 . S
H864 C872 0.929 . S
H865 C879 0.930 . S
H866 C843 0.931 . S
H867 C873 0.930 . S
H868 C906 0.930 . S
H869 C850 0.930 1_655 S
H870 C905 0.931 . S
N871 Eu840 2.657 . S
N871 C872 1.334 . S
N871 C876 1.362 . S
C872 H864 0.929 . S
C872 N871 1.334 . S
C872 C875 1.413 . S
C873 H867 0.930 . S
C873 C874 1.392 . S
C873 C875 1.367 . S
C874 C873 1.392 . S
C874 C876 1.420 . S
C874 C906 1.423 . S
C875 H861 0.930 . S
C875 C872 1.413 . S
C875 C873 1.367 . S
C876 N871 1.362 . S
C876 C874 1.420 . S
C876 C880 1.429 . S
H877 C882 0.930 . S
N878 Eu840 2.609 . S
N878 C880 1.377 . S
N878 C881 1.321 . S
C879 H865 0.930 . S
C879 C881 1.400 . S
C879 C882 1.386 . S
C880 C876 1.429 . S
C880 N878 1.377 . S
C880 C883 1.411 . S
C881 H863 0.930 . S
C881 N878 1.321 . S
C881 C879 1.400 . S
C882 H877 0.930 . S
C882 C879 1.386 . S
C882 C883 1.395 . S
C883 C880 1.411 . S
C883 C882 1.395 . S
C883 C905 1.420 . S
O884 Eu840 2.558 . S
O884 C904 1.257 . S
O885 Eu840 2.612 . S
O885 Eu851 2.380 . S
O885 C896 1.276 . S
O886 Eu851 2.432 . S
O886 C903 1.264 . S
O887 Eu840 2.339 . S
O887 C903 1.254 . S
O888 Eu840 2.563 . S
O888 C896 1.235 . S
O889 Eu840 2.419 . S
O889 C904 1.249 . S
O890 Eu851 2.558 . S
O890 C915 1.257 . S
O891 Eu840 2.380 . S
O891 Eu851 2.612 . S
O891 C907 1.276 . S
O892 Eu840 2.432 . S
O892 C914 1.264 . S
O893 Eu851 2.339 . S
O893 C914 1.254 . S
O894 Eu851 2.563 . S
O894 C907 1.235 . S
O895 Eu851 2.419 . S
O895 C915 1.249 . S
C896 O885 1.276 . S
C896 O888 1.235 . S
C897 C899 1.393 . S
C897 C901 1.395 . S
C897 C904 1.492 . S
C898 C899 1.392 1_554 S
C898 C900 1.386 . S
C899 C897 1.393 . S
C899 C898 1.392 1_556 S
C899 H916 0.930 . S
C900 C898 1.386 . S
C900 C902 1.395 . S
C900 H917 0.930 . S
C901 C897 1.395 . S
C901 C902 1.379 1_556 S
C901 H918 0.930 . S
C902 C900 1.395 . S
C902 C901 1.379 1_554 S
C902 H919 0.930 . S
C903 O886 1.264 . S
C903 O887 1.254 . S
C904 Eu840 2.848 . S
C904 O884 1.257 . S
C904 O889 1.249 . S
C904 C897 1.492 . S
C905 H870 0.931 . S
C905 C883 1.420 . S
C905 C906 1.351 . S
C906 H868 0.930 . S
C906 C874 1.423 . S
C906 C905 1.351 . S
C907 O891 1.276 . S
C907 O894 1.235 . S
C908 C909 1.393 . S
C908 C912 1.395 . S
C908 C915 1.492 . S
C909 C908 1.393 . S
C909 C910 1.392 . S
C909 H920 0.930 . S
C910 C909 1.392 . S
C910 C911 1.386 . S
C911 C910 1.386 . S
C911 C913 1.395 . S
C911 H921 0.930 . S
C912 C908 1.395 . S
C912 C913 1.379 . S
C912 H922 0.930 . S
C913 C911 1.395 . S
C913 C912 1.379 . S
C913 H923 0.930 . S
C914 O892 1.264 . S
C914 O893 1.254 . S
C915 Eu851 2.848 . S
C915 O890 1.257 . S
C915 O895 1.249 . S
C915 C908 1.492 . S
H916 C899 0.930 . S
H917 C900 0.930 . S
H918 C901 0.930 . S
H919 C902 0.930 . S
H920 C909 0.930 . S
H921 C911 0.930 . S
H922 C912 0.930 . S
H923 C913 0.930 . S
Eu924 N955 2.657 . S
Eu924 N962 2.609 . S
Eu924 O968 2.558 . S
Eu924 O969 2.612 . S
Eu924 O971 2.339 . S
Eu924 O972 2.563 . S
Eu924 O973 2.419 . S
Eu924 O975 2.380 . S
Eu924 O976 2.432 . S
Eu924 C988 2.848 . S
C925 C928 1.429 . S
C925 C929 1.411 . S
C925 N932 1.377 . S
C926 C928 1.420 . S
C926 C930 1.423 . S
C926 C938 1.392 . S
C927 C929 1.420 . S
C927 C930 1.351 . S
C927 H950 0.931 . S
C928 C925 1.429 . S
C928 C926 1.420 . S
C928 N936 1.362 . S
C929 C925 1.411 . S
C929 C927 1.420 . S
C929 C934 1.395 . S
C930 C926 1.423 . S
C930 C927 1.351 . S
C930 H942 0.930 . S
C931 C933 1.400 . S
C931 C934 1.386 . S
C931 H943 0.930 . S
N932 C925 1.377 . S
N932 C933 1.321 . S
N932 Eu935 2.609 . S
C933 C931 1.400 . S
C933 N932 1.321 . S
C933 H940 0.930 . S
C934 C929 1.395 . S
C934 C931 1.386 . S
C934 H953 0.930 . S
Eu935 N932 2.609 . S
Eu935 N936 2.657 . S
Eu935 O969 2.380 . S
Eu935 O970 2.432 . S
Eu935 O974 2.558 . S
Eu935 O975 2.612 . S
Eu935 O977 2.339 . S
Eu935 O978 2.563 . S
Eu935 O979 2.419 . S
Eu935 C999 2.848 . S
N936 C928 1.362 . S
N936 Eu935 2.657 . S
N936 C937 1.334 . S
C937 N936 1.334 . S
C937 C939 1.413 . S
C937 H944 0.929 . S
C938 C926 1.392 . S
C938 C939 1.367 . S
C938 H946 0.930 . S
C939 C937 1.413 . S
C939 C938 1.367 . S
C939 H941 0.930 . S
H940 C933 0.930 . S
H941 C939 0.930 . S
H942 C930 0.930 . S
H943 C931 0.930 . S
H944 C937 0.929 . S
H945 C959 0.930 . S
H946 C938 0.930 . S
H947 C965 0.930 . S
H948 C956 0.929 . S
H949 C963 0.930 . S
H950 C927 0.931 . S
H951 C957 0.936 . S
H952 C990 0.930 . S
H953 C934 0.930 . S
H954 C989 0.931 . S
N955 Eu924 2.657 . S
N955 C956 1.334 . S
N955 C960 1.362 . S
C956 H948 0.929 . S
C956 N955 1.334 . S
C956 C959 1.413 . S
C957 H951 0.936 . S
C957 C958 1.391 1_545 S
C957 C959 1.362 1_545 S
C958 C957 1.391 1_565 S
C958 C960 1.420 . S
C958 C990 1.423 1_565 S
C959 H945 0.930 . S
C959 C956 1.413 . S
C959 C957 1.362 1_565 S
C960 N955 1.362 . S
C960 C958 1.420 . S
C960 C964 1.429 . S
H961 C966 0.930 1_545 S
N962 Eu924 2.609 . S
N962 C964 1.377 . S
N962 C965 1.321 . S
C963 H949 0.930 . S
C963 C965 1.400 . S
C963 C966 1.386 . S
C964 C960 1.429 . S
C964 N962 1.377 . S
C964 C967 1.411 . S
C965 H947 0.930 . S
C965 N962 1.321 . S
C965 C963 1.400 . S
C966 H961 0.930 1_565 S
C966 C963 1.386 . S
C966 C967 1.395 . S
C967 C964 1.411 . S
C967 C966 1.395 . S
C967 C989 1.420 1_565 S
O968 Eu924 2.558 . S
O968 C988 1.257 . S
O969 Eu924 2.612 . S
O969 Eu935 2.380 . S
O969 C980 1.276 . S
O970 Eu935 2.432 . S
O970 C987 1.264 . S
O971 Eu924 2.339 . S
O971 C987 1.254 . S
O972 Eu924 2.563 . S
O972 C980 1.235 . S
O973 Eu924 2.419 . S
O973 C988 1.249 . S
O974 Eu935 2.558 . S
O974 C999 1.257 . S
O975 Eu924 2.380 . S
O975 Eu935 2.612 . S
O975 C991 1.276 . S
O976 Eu924 2.432 . S
O976 C998 1.264 . S
O977 Eu935 2.339 . S
O977 C998 1.254 . S
O978 Eu935 2.563 . S
O978 C991 1.235 . S
O979 Eu935 2.419 . S
O979 C999 1.249 . S
C980 O969 1.276 . S
C980 O972 1.235 . S
C981 C983 1.393 . S
C981 C985 1.395 . S
C981 C988 1.492 . S
C982 C983 1.392 . S
C982 C984 1.386 . S
C983 C981 1.393 . S
C983 C982 1.392 . S
C983 H1000 0.930 . S
C984 C982 1.386 . S
C984 C986 1.395 . S
C984 H1001 0.930 . S
C985 C981 1.395 . S
C985 C986 1.379 . S
C985 H1002 0.930 . S
C986 C984 1.395 . S
C986 C985 1.379 . S
C986 H1003 0.930 . S
C987 O970 1.264 . S
C987 O971 1.254 . S
C988 Eu924 2.848 . S
C988 O968 1.257 . S
C988 O973 1.249 . S
C988 C981 1.492 . S
C989 H954 0.931 . S
C989 C967 1.420 1_545 S
C989 C990 1.351 . S
C990 H952 0.930 . S
C990 C958 1.423 1_545 S
C990 C989 1.351 . S
C991 O975 1.276 . S
C991 O978 1.235 . S
C992 C993 1.393 . S
C992 C996 1.395 . S
C992 C999 1.492 . S
C993 C992 1.393 . S
C993 C994 1.392 1_554 S
C993 H1004 0.930 . S
C994 C993 1.392 1_556 S
C994 C995 1.386 . S
C995 C994 1.386 . S
C995 C997 1.395 . S
C995 H1005 0.930 . S
C996 C992 1.395 . S
C996 C997 1.379 1_554 S
C996 H1006 0.930 . S
C997 C995 1.395 . S
C997 C996 1.379 1_556 S
C997 H1007 0.930 . S
C998 O976 1.264 . S
C998 O977 1.254 . S
C999 Eu935 2.848 . S
C999 O974 1.257 . S
C999 O979 1.249 . S
C999 C992 1.492 . S
H1000 C983 0.930 . S
H1001 C984 0.930 . S
H1002 C985 0.930 . S
H1003 C986 0.930 . S
H1004 C993 0.930 . S
H1005 C995 0.930 . S
H1006 C996 0.930 . S
H1007 C997 0.930 . S
Eu1008 N1039 2.657 . S
Eu1008 N1046 2.609 . S
Eu1008 O1052 2.558 . S
Eu1008 O1053 2.612 . S
Eu1008 O1055 2.339 . S
Eu1008 O1056 2.563 . S
Eu1008 O1057 2.419 . S
Eu1008 O1059 2.380 . S
Eu1008 O1060 2.432 . S
Eu1008 C1072 2.848 . S
C1009 C1012 1.429 . S
C1009 C1013 1.411 . S
C1009 N1016 1.377 . S
C1010 C1012 1.420 . S
C1010 C1014 1.423 1_655 S
C1010 C1022 1.391 1_655 S
C1011 C1013 1.420 1_455 S
C1011 C1014 1.351 . S
C1011 H1034 0.931 . S
C1012 C1009 1.429 . S
C1012 C1010 1.420 . S
C1012 N1020 1.362 . S
C1013 C1009 1.411 . S
C1013 C1011 1.420 1_655 S
C1013 C1018 1.395 . S
C1014 C1010 1.423 1_455 S
C1014 C1011 1.351 . S
C1014 H1026 0.930 . S
C1015 C1017 1.400 1_545 S
C1015 C1018 1.386 1_545 S
C1015 H1027 0.930 . S
N1016 C1009 1.377 . S
N1016 C1017 1.321 . S
N1016 Eu1019 2.609 . S
C1017 C1015 1.400 1_565 S
C1017 N1016 1.321 . S
C1017 H1024 0.930 . S
C1018 C1013 1.395 . S
C1018 C1015 1.386 1_565 S
C1018 H1037 0.930 1_665 S
Eu1019 N1016 2.609 . S
Eu1019 N1020 2.657 . S
Eu1019 O1053 2.380 . S
Eu1019 O1054 2.432 . S
Eu1019 O1058 2.558 . S
Eu1019 O1059 2.612 . S
Eu1019 O1061 2.339 . S
Eu1019 O1062 2.563 . S
Eu1019 O1063 2.419 . S
Eu1019 C1083 2.848 . S
N1020 C1012 1.362 . S
N1020 Eu1019 2.657 . S
N1020 C1021 1.334 . S
C1021 N1020 1.334 . S
C1021 C1023 1.413 . S
C1021 H1028 0.929 . S
C1022 C1010 1.391 1_455 S
C1022 C1023 1.362 1_455 S
C1022 H1030 0.936 . S
C1023 C1021 1.413 . S
C1023 C1022 1.362 1_655 S
C1023 H1025 0.930 . S
H1024 C1017 0.930 . S
H1025 C1023 0.930 . S
H1026 C1014 0.930 . S
H1027 C1015 0.930 . S
H1028 C1021 0.929 . S
H1029 C1043 0.930 . S
H1030 C1022 0.936 . S
H1031 C1049 0.930 . S
H1032 C1040 0.929 . S
H1033 C1047 0.930 . S
H1034 C1011 0.931 . S
H1035 C1041 0.930 . S
H1036 C1074 0.930 . S
H1037 C1018 0.930 1_445 S
H1038 C1073 0.931 . S
N1039 Eu1008 2.657 . S
N1039 C1040 1.334 . S
N1039 C1044 1.362 . S
C1040 H1032 0.929 . S
C1040 N1039 1.334 . S
C1040 C1043 1.413 . S
C1041 H1035 0.930 . S
C1041 C1042 1.392 . S
C1041 C1043 1.367 . S
C1042 C1041 1.392 . S
C1042 C1044 1.420 . S
C1042 C1074 1.423 . S
C1043 H1029 0.930 . S
C1043 C1040 1.413 . S
C1043 C1041 1.367 . S
C1044 N1039 1.362 . S
C1044 C1042 1.420 . S
C1044 C1048 1.429 . S
H1045 C1050 0.930 . S
N1046 Eu1008 2.609 . S
N1046 C1048 1.377 . S
N1046 C1049 1.321 . S
C1047 H1033 0.930 . S
C1047 C1049 1.400 . S
C1047 C1050 1.386 . S
C1048 C1044 1.429 . S
C1048 N1046 1.377 . S
C1048 C1051 1.411 . S
C1049 H1031 0.930 . S
C1049 N1046 1.321 . S
C1049 C1047 1.400 . S
C1050 H1045 0.930 . S
C1050 C1047 1.386 . S
C1050 C1051 1.395 . S
C1051 C1048 1.411 . S
C1051 C1050 1.395 . S
C1051 C1073 1.420 . S
O1052 Eu1008 2.558 . S
O1052 C1072 1.257 . S
O1053 Eu1008 2.612 . S
O1053 Eu1019 2.380 . S
O1053 C1064 1.276 . S
O1054 Eu1019 2.432 . S
O1054 C1071 1.264 . S
O1055 Eu1008 2.339 . S
O1055 C1071 1.254 . S
O1056 Eu1008 2.563 . S
O1056 C1064 1.235 . S
O1057 Eu1008 2.419 . S
O1057 C1072 1.249 . S
O1058 Eu1019 2.558 . S
O1058 C1083 1.257 . S
O1059 Eu1008 2.380 . S
O1059 Eu1019 2.612 . S
O1059 C1075 1.276 . S
O1060 Eu1008 2.432 . S
O1060 C1082 1.264 . S
O1061 Eu1019 2.339 . S
O1061 C1082 1.254 . S
O1062 Eu1019 2.563 . S
O1062 C1075 1.235 . S
O1063 Eu1019 2.419 . S
O1063 C1083 1.249 . S
C1064 O1053 1.276 . S
C1064 O1056 1.235 . S
C1065 C1067 1.393 . S
C1065 C1069 1.395 . S
C1065 C1072 1.492 . S
C1066 C1067 1.392 . S
C1066 C1068 1.386 . S
C1067 C1065 1.393 . S
C1067 C1066 1.392 . S
C1067 H1084 0.930 . S
C1068 C1066 1.386 . S
C1068 C1070 1.395 . S
C1068 H1085 0.930 . S
C1069 C1065 1.395 . S
C1069 C1070 1.379 . S
C1069 H1086 0.930 . S
C1070 C1068 1.395 . S
C1070 C1069 1.379 . S
C1070 H1087 0.930 . S
C1071 O1054 1.264 . S
C1071 O1055 1.254 . S
C1072 Eu1008 2.848 . S
C1072 O1052 1.257 . S
C1072 O1057 1.249 . S
C1072 C1065 1.492 . S
C1073 H1038 0.931 . S
C1073 C1051 1.420 . S
C1073 C1074 1.351 . S
C1074 H1036 0.930 . S
C1074 C1042 1.423 . S
C1074 C1073 1.351 . S
C1075 O1059 1.276 . S
C1075 O1062 1.235 . S
C1076 C1077 1.393 . S
C1076 C1080 1.395 . S
C1076 C1083 1.492 . S
C1077 C1076 1.393 . S
C1077 C1078 1.392 1_556 S
C1077 H1088 0.930 . S
C1078 C1077 1.392 1_554 S
C1078 C1079 1.386 . S
C1079 C1078 1.386 . S
C1079 C1081 1.395 . S
C1079 H1089 0.930 . S
C1080 C1076 1.395 . S
C1080 C1081 1.379 1_556 S
C1080 H1090 0.930 . S
C1081 C1079 1.395 . S
C1081 C1080 1.379 1_554 S
C1081 H1091 0.930 . S
C1082 O1060 1.264 . S
C1082 O1061 1.254 . S
C1083 Eu1019 2.848 . S
C1083 O1058 1.257 . S
C1083 O1063 1.249 . S
C1083 C1076 1.492 . S
H1084 C1067 0.930 . S
H1085 C1068 0.930 . S
H1086 C1069 0.930 . S
H1087 C1070 0.930 . S
H1088 C1077 0.930 . S
H1089 C1079 0.930 . S
H1090 C1080 0.930 . S
H1091 C1081 0.930 . S
Eu1092 N1123 2.657 . S
Eu1092 N1130 2.609 . S
Eu1092 O1136 2.558 . S
Eu1092 O1137 2.612 . S
Eu1092 O1139 2.339 . S
Eu1092 O1140 2.563 . S
Eu1092 O1141 2.419 . S
Eu1092 O1143 2.380 . S
Eu1092 O1144 2.432 . S
Eu1092 C1156 2.848 . S
C1093 C1096 1.429 . S
C1093 C1097 1.411 . S
C1093 N1100 1.377 . S
C1094 C1096 1.420 . S
C1094 C1098 1.423 . S
C1094 C1106 1.392 . S
C1095 C1097 1.420 . S
C1095 C1098 1.351 . S
C1095 H1118 0.931 . S
C1096 C1093 1.429 . S
C1096 C1094 1.420 . S
C1096 N1104 1.362 . S
C1097 C1093 1.411 . S
C1097 C1095 1.420 . S
C1097 C1102 1.395 . S
C1098 C1094 1.423 . S
C1098 C1095 1.351 . S
C1098 H1110 0.930 . S
C1099 C1101 1.400 . S
C1099 C1102 1.386 . S
C1099 H1111 0.930 . S
N1100 C1093 1.377 . S
N1100 C1101 1.321 . S
N1100 Eu1103 2.609 . S
C1101 C1099 1.400 . S
C1101 N1100 1.321 . S
C1101 H1108 0.930 . S
C1102 C1097 1.395 . S
C1102 C1099 1.386 . S
C1102 H1121 0.930 . S
Eu1103 N1100 2.609 . S
Eu1103 N1104 2.657 . S
Eu1103 O1137 2.380 . S
Eu1103 O1138 2.432 . S
Eu1103 O1142 2.558 . S
Eu1103 O1143 2.612 . S
Eu1103 O1145 2.339 . S
Eu1103 O1146 2.563 . S
Eu1103 O1147 2.419 . S
Eu1103 C1167 2.848 . S
N1104 C1096 1.362 . S
N1104 Eu1103 2.657 . S
N1104 C1105 1.334 . S
C1105 N1104 1.334 . S
C1105 C1107 1.413 . S
C1105 H1112 0.929 . S
C1106 C1094 1.392 . S
C1106 C1107 1.367 . S
C1106 H1114 0.930 . S
C1107 C1105 1.413 . S
C1107 C1106 1.367 . S
C1107 H1109 0.930 . S
H1108 C1101 0.930 . S
H1109 C1107 0.930 . S
H1110 C1098 0.930 . S
H1111 C1099 0.930 . S
H1112 C1105 0.929 . S
H1113 C1127 0.930 . S
H1114 C1106 0.930 . S
H1115 C1133 0.930 . S
H1116 C1124 0.929 . S
H1117 C1131 0.930 . S
H1118 C1095 0.931 . S
H1119 C1125 0.936 . S
H1120 C1158 0.930 . S
H1121 C1102 0.930 . S
H1122 C1157 0.931 . S
N1123 Eu1092 2.657 . S
N1123 C1124 1.334 . S
N1123 C1128 1.362 . S
C1124 H1116 0.929 . S
C1124 N1123 1.334 . S
C1124 C1127 1.413 . S
C1125 H1119 0.936 . S
C1125 C1126 1.391 1_565 S
C1125 C1127 1.362 1_565 S
C1126 C1125 1.391 1_545 S
C1126 C1128 1.420 . S
C1126 C1158 1.423 1_545 S
C1127 H1113 0.930 . S
C1127 C1124 1.413 . S
C1127 C1125 1.362 1_545 S
C1128 N1123 1.362 . S
C1128 C1126 1.420 . S
C1128 C1132 1.429 . S
H1129 C1134 0.930 1_465 S
N1130 Eu1092 2.609 . S
N1130 C1132 1.377 . S
N1130 C1133 1.321 . S
C1131 H1117 0.930 . S
C1131 C1133 1.400 1_455 S
C1131 C1134 1.386 1_455 S
C1132 C1128 1.429 . S
C1132 N1130 1.377 . S
C1132 C1135 1.411 . S
C1133 H1115 0.930 . S
C1133 N1130 1.321 . S
C1133 C1131 1.400 1_655 S
C1134 H1129 0.930 1_645 S
C1134 C1131 1.386 1_655 S
C1134 C1135 1.395 . S
C1135 C1132 1.411 . S
C1135 C1134 1.395 . S
C1135 C1157 1.420 1_545 S
O1136 Eu1092 2.558 . S
O1136 C1156 1.257 . S
O1137 Eu1092 2.612 . S
O1137 Eu1103 2.380 . S
O1137 C1148 1.276 . S
O1138 Eu1103 2.432 . S
O1138 C1155 1.264 . S
O1139 Eu1092 2.339 . S
O1139 C1155 1.254 . S
O1140 Eu1092 2.563 . S
O1140 C1148 1.235 . S
O1141 Eu1092 2.419 . S
O1141 C1156 1.249 . S
O1142 Eu1103 2.558 . S
O1142 C1167 1.257 . S
O1143 Eu1092 2.380 . S
O1143 Eu1103 2.612 . S
O1143 C1159 1.276 . S
O1144 Eu1092 2.432 . S
O1144 C1166 1.264 . S
O1145 Eu1103 2.339 . S
O1145 C1166 1.254 . S
O1146 Eu1103 2.563 . S
O1146 C1159 1.235 . S
O1147 Eu1103 2.419 . S
O1147 C1167 1.249 . S
C1148 O1137 1.276 . S
C1148 O1140 1.235 . S
C1149 C1151 1.393 . S
C1149 C1153 1.395 . S
C1149 C1156 1.492 . S
C1150 C1151 1.392 1_556 S
C1150 C1152 1.386 . S
C1151 C1149 1.393 . S
C1151 C1150 1.392 1_554 S
C1151 H1168 0.930 . S
C1152 C1150 1.386 . S
C1152 C1154 1.395 . S
C1152 H1169 0.930 . S
C1153 C1149 1.395 . S
C1153 C1154 1.379 1_554 S
C1153 H1170 0.930 . S
C1154 C1152 1.395 . S
C1154 C1153 1.379 1_556 S
C1154 H1171 0.930 . S
C1155 O1138 1.264 . S
C1155 O1139 1.254 . S
C1156 Eu1092 2.848 . S
C1156 O1136 1.257 . S
C1156 O1141 1.249 . S
C1156 C1149 1.492 . S
C1157 H1122 0.931 . S
C1157 C1135 1.420 1_565 S
C1157 C1158 1.351 . S
C1158 H1120 0.930 . S
C1158 C1126 1.423 1_565 S
C1158 C1157 1.351 . S
C1159 O1143 1.276 . S
C1159 O1146 1.235 . S
C1160 C1161 1.393 . S
C1160 C1164 1.395 . S
C1160 C1167 1.492 . S
C1161 C1160 1.393 . S
C1161 C1162 1.392 . S
C1161 H1172 0.930 . S
C1162 C1161 1.392 . S
C1162 C1163 1.386 . S
C1163 C1162 1.386 . S
C1163 C1165 1.395 . S
C1163 H1173 0.930 . S
C1164 C1160 1.395 . S
C1164 C1165 1.379 . S
C1164 H1174 0.930 . S
C1165 C1163 1.395 . S
C1165 C1164 1.379 . S
C1165 H1175 0.930 . S
C1166 O1144 1.264 . S
C1166 O1145 1.254 . S
C1167 Eu1103 2.848 . S
C1167 O1142 1.257 . S
C1167 O1147 1.249 . S
C1167 C1160 1.492 . S
H1168 C1151 0.930 . S
H1169 C1152 0.930 . S
H1170 C1153 0.930 . S
H1171 C1154 0.930 . S
H1172 C1161 0.930 . S
H1173 C1163 0.930 . S
H1174 C1164 0.930 . S
H1175 C1165 0.930 . S
Eu1176 N1207 2.657 . S
Eu1176 N1214 2.609 . S
Eu1176 O1220 2.558 . S
Eu1176 O1221 2.612 . S
Eu1176 O1223 2.339 . S
Eu1176 O1224 2.563 . S
Eu1176 O1225 2.419 . S
Eu1176 O1227 2.380 . S
Eu1176 O1228 2.432 . S
Eu1176 C1240 2.848 . S
C1177 C1180 1.429 . S
C1177 C1181 1.411 . S
C1177 N1184 1.377 . S
C1178 C1180 1.420 . S
C1178 C1182 1.423 1_455 S
C1178 C1190 1.391 1_455 S
C1179 C1181 1.420 1_655 S
C1179 C1182 1.351 . S
C1179 H1202 0.931 . S
C1180 C1177 1.429 . S
C1180 C1178 1.420 . S
C1180 N1188 1.362 . S
C1181 C1177 1.411 . S
C1181 C1179 1.420 1_455 S
C1181 C1186 1.395 . S
C1182 C1178 1.423 1_655 S
C1182 C1179 1.351 . S
C1182 H1194 0.930 . S
C1183 C1185 1.400 1_565 S
C1183 C1186 1.386 1_565 S
C1183 H1195 0.930 . S
N1184 C1177 1.377 . S
N1184 C1185 1.321 . S
N1184 Eu1187 2.609 . S
C1185 C1183 1.400 1_545 S
C1185 N1184 1.321 . S
C1185 H1192 0.930 . S
C1186 C1181 1.395 . S
C1186 C1183 1.386 1_545 S
C1186 H1205 0.930 1_445 S
Eu1187 N1184 2.609 . S
Eu1187 N1188 2.657 . S
Eu1187 O1221 2.380 . S
Eu1187 O1222 2.432 . S
Eu1187 O1226 2.558 . S
Eu1187 O1227 2.612 . S
Eu1187 O1229 2.339 . S
Eu1187 O1230 2.563 . S
Eu1187 O1231 2.419 . S
Eu1187 C1251 2.848 . S
N1188 C1180 1.362 . S
N1188 Eu1187 2.657 . S
N1188 C1189 1.334 . S
C1189 N1188 1.334 . S
C1189 C1191 1.413 . S
C1189 H1196 0.929 . S
C1190 C1178 1.391 1_655 S
C1190 C1191 1.362 1_655 S
C1190 H1198 0.936 . S
C1191 C1189 1.413 . S
C1191 C1190 1.362 1_455 S
C1191 H1193 0.930 . S
H1192 C1185 0.930 . S
H1193 C1191 0.930 . S
H1194 C1182 0.930 . S
H1195 C1183 0.930 . S
H1196 C1189 0.929 . S
H1197 C1211 0.930 . S
H1198 C1190 0.936 . S
H1199 C1217 0.930 . S
H1200 C1208 0.929 . S
H1201 C1215 0.930 . S
H1202 C1179 0.931 . S
H1203 C1209 0.930 . S
H1204 C1242 0.930 . S
H1205 C1186 0.930 1_665 S
H1206 C1241 0.931 . S
N1207 Eu1176 2.657 . S
N1207 C1208 1.334 . S
N1207 C1212 1.362 . S
C1208 H1200 0.929 . S
C1208 N1207 1.334 . S
C1208 C1211 1.413 . S
C1209 H1203 0.930 . S
C1209 C1210 1.392 . S
C1209 C1211 1.367 . S
C1210 C1209 1.392 . S
C1210 C1212 1.420 . S
C1210 C1242 1.423 . S
C1211 H1197 0.930 . S
C1211 C1208 1.413 . S
C1211 C1209 1.367 . S
C1212 N1207 1.362 . S
C1212 C1210 1.420 . S
C1212 C1216 1.429 . S
H1213 C1218 0.930 . S
N1214 Eu1176 2.609 . S
N1214 C1216 1.377 . S
N1214 C1217 1.321 . S
C1215 H1201 0.930 . S
C1215 C1217 1.400 . S
C1215 C1218 1.386 . S
C1216 C1212 1.429 . S
C1216 N1214 1.377 . S
C1216 C1219 1.411 . S
C1217 H1199 0.930 . S
C1217 N1214 1.321 . S
C1217 C1215 1.400 . S
C1218 H1213 0.930 . S
C1218 C1215 1.386 . S
C1218 C1219 1.395 . S
C1219 C1216 1.411 . S
C1219 C1218 1.395 . S
C1219 C1241 1.420 . S
O1220 Eu1176 2.558 . S
O1220 C1240 1.257 . S
O1221 Eu1176 2.612 . S
O1221 Eu1187 2.380 . S
O1221 C1232 1.276 . S
O1222 Eu1187 2.432 . S
O1222 C1239 1.264 . S
O1223 Eu1176 2.339 . S
O1223 C1239 1.254 . S
O1224 Eu1176 2.563 . S
O1224 C1232 1.235 . S
O1225 Eu1176 2.419 . S
O1225 C1240 1.249 . S
O1226 Eu1187 2.558 . S
O1226 C1251 1.257 . S
O1227 Eu1176 2.380 . S
O1227 Eu1187 2.612 . S
O1227 C1243 1.276 . S
O1228 Eu1176 2.432 . S
O1228 C1250 1.264 . S
O1229 Eu1187 2.339 . S
O1229 C1250 1.254 . S
O1230 Eu1187 2.563 . S
O1230 C1243 1.235 . S
O1231 Eu1187 2.419 . S
O1231 C1251 1.249 . S
C1232 O1221 1.276 . S
C1232 O1224 1.235 . S
C1233 C1235 1.393 . S
C1233 C1237 1.395 . S
C1233 C1240 1.492 . S
C1234 C1235 1.392 . S
C1234 C1236 1.386 . S
C1235 C1233 1.393 . S
C1235 C1234 1.392 . S
C1235 H1252 0.930 . S
C1236 C1234 1.386 . S
C1236 C1238 1.395 . S
C1236 H1253 0.930 . S
C1237 C1233 1.395 . S
C1237 C1238 1.379 . S
C1237 H1254 0.930 . S
C1238 C1236 1.395 . S
C1238 C1237 1.379 . S
C1238 H1255 0.930 . S
C1239 O1222 1.264 . S
C1239 O1223 1.254 . S
C1240 Eu1176 2.848 . S
C1240 O1220 1.257 . S
C1240 O1225 1.249 . S
C1240 C1233 1.492 . S
C1241 H1206 0.931 . S
C1241 C1219 1.420 . S
C1241 C1242 1.351 . S
C1242 H1204 0.930 . S
C1242 C1210 1.423 . S
C1242 C1241 1.351 . S
C1243 O1227 1.276 . S
C1243 O1230 1.235 . S
C1244 C1245 1.393 . S
C1244 C1248 1.395 . S
C1244 C1251 1.492 . S
C1245 C1244 1.393 . S
C1245 C1246 1.392 1_556 S
C1245 H1256 0.930 . S
C1246 C1245 1.392 1_554 S
C1246 C1247 1.386 . S
C1247 C1246 1.386 . S
C1247 C1249 1.395 . S
C1247 H1257 0.930 . S
C1248 C1244 1.395 . S
C1248 C1249 1.379 1_556 S
C1248 H1258 0.930 . S
C1249 C1247 1.395 . S
C1249 C1248 1.379 1_554 S
C1249 H1259 0.930 . S
C1250 O1228 1.264 . S
C1250 O1229 1.254 . S
C1251 Eu1187 2.848 . S
C1251 O1226 1.257 . S
C1251 O1231 1.249 . S
C1251 C1244 1.492 . S
H1252 C1235 0.930 . S
H1253 C1236 0.930 . S
H1254 C1237 0.930 . S
H1255 C1238 0.930 . S
H1256 C1245 0.930 . S
H1257 C1247 0.930 . S
H1258 C1248 0.930 . S
H1259 C1249 0.930 . S
Eu1260 N1291 2.657 . S
Eu1260 N1298 2.609 . S
Eu1260 O1304 2.558 . S
Eu1260 O1305 2.612 . S
Eu1260 O1307 2.339 . S
Eu1260 O1308 2.563 . S
Eu1260 O1309 2.419 . S
Eu1260 O1311 2.380 . S
Eu1260 O1312 2.432 . S
Eu1260 C1324 2.848 . S
C1261 C1264 1.429 . S
C1261 C1265 1.411 . S
C1261 N1268 1.377 . S
C1262 C1264 1.420 . S
C1262 C1266 1.423 . S
C1262 C1274 1.392 . S
C1263 C1265 1.420 . S
C1263 C1266 1.351 . S
C1263 H1286 0.931 . S
C1264 C1261 1.429 . S
C1264 C1262 1.420 . S
C1264 N1272 1.362 . S
C1265 C1261 1.411 . S
C1265 C1263 1.420 . S
C1265 C1270 1.395 . S
C1266 C1262 1.423 . S
C1266 C1263 1.351 . S
C1266 H1278 0.930 . S
C1267 C1269 1.400 . S
C1267 C1270 1.386 . S
C1267 H1279 0.930 . S
N1268 C1261 1.377 . S
N1268 C1269 1.321 . S
N1268 Eu1271 2.609 . S
C1269 C1267 1.400 . S
C1269 N1268 1.321 . S
C1269 H1276 0.930 . S
C1270 C1265 1.395 . S
C1270 C1267 1.386 . S
C1270 H1289 0.930 . S
Eu1271 N1268 2.609 . S
Eu1271 N1272 2.657 . S
Eu1271 O1305 2.380 . S
Eu1271 O1306 2.432 . S
Eu1271 O1310 2.558 . S
Eu1271 O1311 2.612 . S
Eu1271 O1313 2.339 . S
Eu1271 O1314 2.563 . S
Eu1271 O1315 2.419 . S
Eu1271 C1335 2.848 . S
N1272 C1264 1.362 . S
N1272 Eu1271 2.657 . S
N1272 C1273 1.334 . S
C1273 N1272 1.334 . S
C1273 C1275 1.413 . S
C1273 H1280 0.929 . S
C1274 C1262 1.392 . S
C1274 C1275 1.367 . S
C1274 H1282 0.930 . S
C1275 C1273 1.413 . S
C1275 C1274 1.367 . S
C1275 H1277 0.930 . S
H1276 C1269 0.930 . S
H1277 C1275 0.930 . S
H1278 C1266 0.930 . S
H1279 C1267 0.930 . S
H1280 C1273 0.929 . S
H1281 C1295 0.930 . S
H1282 C1274 0.930 . S
H1283 C1301 0.930 . S
H1284 C1292 0.929 . S
H1285 C1299 0.930 . S
H1286 C1263 0.931 . S
H1287 C1293 0.936 . S
H1288 C1326 0.930 . S
H1289 C1270 0.930 . S
H1290 C1325 0.931 . S
N1291 Eu1260 2.657 . S
N1291 C1292 1.334 . S
N1291 C1296 1.362 . S
C1292 H1284 0.929 . S
C1292 N1291 1.334 . S
C1292 C1295 1.413 . S
C1293 H1287 0.936 . S
C1293 C1294 1.391 1_545 S
C1293 C1295 1.362 1_545 S
C1294 C1293 1.391 1_565 S
C1294 C1296 1.420 . S
C1294 C1326 1.423 1_565 S
C1295 H1281 0.930 . S
C1295 C1292 1.413 . S
C1295 C1293 1.362 1_565 S
C1296 N1291 1.362 . S
C1296 C1294 1.420 . S
C1296 C1300 1.429 . S
H1297 C1302 0.930 1_645 S
N1298 Eu1260 2.609 . S
N1298 C1300 1.377 . S
N1298 C1301 1.321 . S
C1299 H1285 0.930 . S
C1299 C1301 1.400 1_655 S
C1299 C1302 1.386 1_655 S
C1300 C1296 1.429 . S
C1300 N1298 1.377 . S
C1300 C1303 1.411 . S
C1301 H1283 0.930 . S
C1301 N1298 1.321 . S
C1301 C1299 1.400 1_455 S
C1302 H1297 0.930 1_465 S
C1302 C1299 1.386 1_455 S
C1302 C1303 1.395 . S
C1303 C1300 1.411 . S
C1303 C1302 1.395 . S
C1303 C1325 1.420 1_565 S
O1304 Eu1260 2.558 . S
O1304 C1324 1.257 . S
O1305 Eu1260 2.612 . S
O1305 Eu1271 2.380 . S
O1305 C1316 1.276 . S
O1306 Eu1271 2.432 . S
O1306 C1323 1.264 . S
O1307 Eu1260 2.339 . S
O1307 C1323 1.254 . S
O1308 Eu1260 2.563 . S
O1308 C1316 1.235 . S
O1309 Eu1260 2.419 . S
O1309 C1324 1.249 . S
O1310 Eu1271 2.558 . S
O1310 C1335 1.257 . S
O1311 Eu1260 2.380 . S
O1311 Eu1271 2.612 . S
O1311 C1327 1.276 . S
O1312 Eu1260 2.432 . S
O1312 C1334 1.264 . S
O1313 Eu1271 2.339 . S
O1313 C1334 1.254 . S
O1314 Eu1271 2.563 . S
O1314 C1327 1.235 . S
O1315 Eu1271 2.419 . S
O1315 C1335 1.249 . S
C1316 O1305 1.276 . S
C1316 O1308 1.235 . S
C1317 C1319 1.393 . S
C1317 C1321 1.395 . S
C1317 C1324 1.492 . S
C1318 C1319 1.392 1_556 S
C1318 C1320 1.386 . S
C1319 C1317 1.393 . S
C1319 C1318 1.392 1_554 S
C1319 H1336 0.930 . S
C1320 C1318 1.386 . S
C1320 C1322 1.395 . S
C1320 H1337 0.930 . S
C1321 C1317 1.395 . S
C1321 C1322 1.379 1_554 S
C1321 H1338 0.930 . S
C1322 C1320 1.395 . S
C1322 C1321 1.379 1_556 S
C1322 H1339 0.930 . S
C1323 O1306 1.264 . S
C1323 O1307 1.254 . S
C1324 Eu1260 2.848 . S
C1324 O1304 1.257 . S
C1324 O1309 1.249 . S
C1324 C1317 1.492 . S
C1325 H1290 0.931 . S
C1325 C1303 1.420 1_545 S
C1325 C1326 1.351 . S
C1326 H1288 0.930 . S
C1326 C1294 1.423 1_545 S
C1326 C1325 1.351 . S
C1327 O1311 1.276 . S
C1327 O1314 1.235 . S
C1328 C1329 1.393 . S
C1328 C1332 1.395 . S
C1328 C1335 1.492 . S
C1329 C1328 1.393 . S
C1329 C1330 1.392 . S
C1329 H1340 0.930 . S
C1330 C1329 1.392 . S
C1330 C1331 1.386 . S
C1331 C1330 1.386 . S
C1331 C1333 1.395 . S
C1331 H1341 0.930 . S
C1332 C1328 1.395 . S
C1332 C1333 1.379 . S
C1332 H1342 0.930 . S
C1333 C1331 1.395 . S
C1333 C1332 1.379 . S
C1333 H1343 0.930 . S
C1334 O1312 1.264 . S
C1334 O1313 1.254 . S
C1335 Eu1271 2.848 . S
C1335 O1310 1.257 . S
C1335 O1315 1.249 . S
C1335 C1328 1.492 . S
H1336 C1319 0.930 . S
H1337 C1320 0.930 . S
H1338 C1321 0.930 . S
H1339 C1322 0.930 . S
H1340 C1329 0.930 . S
H1341 C1331 0.930 . S
H1342 C1332 0.930 . S
H1343 C1333 0.930 . S
C1344 C1345 1.363 . S
C1344 C1350 1.379 . S
C1344 N1352 1.356 . S
C1345 C1344 1.363 . S
C1345 C1351 1.363 . S
C1346 C1347 1.363 . S
C1346 C1351 1.379 . S
C1346 N1353 1.356 . S
C1347 C1346 1.363 . S
C1347 C1350 1.363 . S
N1348 C1350 1.356 1_545 S
N1348 H1360 0.984 . S
N1348 H1361 0.985 . S
N1349 C1351 1.356 . S
N1349 H1354 0.984 . S
N1349 H1355 0.985 . S
C1350 C1344 1.379 . S
C1350 C1347 1.363 . S
C1350 N1348 1.356 1_565 S
C1351 C1345 1.363 . S
C1351 C1346 1.379 . S
C1351 N1349 1.356 . S
N1352 C1344 1.356 . S
N1352 H1358 0.984 . S
N1352 H1359 0.984 . S
N1353 C1346 1.356 . S
N1353 H1356 0.984 1_565 S
N1353 H1357 0.985 . S
H1354 N1349 0.984 . S
H1355 N1349 0.985 . S
H1356 N1353 0.984 1_545 S
H1357 N1353 0.985 . S
H1358 N1352 0.984 . S
H1359 N1352 0.984 . S
H1360 N1348 0.984 . S
H1361 N1348 0.985 . S
C1362 C1363 1.363 . S
C1362 C1368 1.379 . S
C1362 N1370 1.356 . S
C1363 C1362 1.363 . S
C1363 C1369 1.363 . S
C1364 C1365 1.363 . S
C1364 C1369 1.379 . S
C1364 N1371 1.356 . S
C1365 C1364 1.363 . S
C1365 C1368 1.363 . S
N1366 C1368 1.356 1_455 S
N1366 H1378 0.984 . S
N1366 H1379 0.985 . S
N1367 C1369 1.356 . S
N1367 H1372 0.984 . S
N1367 H1373 0.985 . S
C1368 C1362 1.379 . S
C1368 C1365 1.363 . S
C1368 N1366 1.356 1_655 S
C1369 C1363 1.363 . S
C1369 C1364 1.379 . S
C1369 N1367 1.356 . S
N1370 C1362 1.356 . S
N1370 H1376 0.984 . S
N1370 H1377 0.984 . S
N1371 C1364 1.356 . S
N1371 H1374 0.984 1_655 S
N1371 H1375 0.985 . S
H1372 N1367 0.984 . S
H1373 N1367 0.985 . S
H1374 N1371 0.984 1_455 S
H1375 N1371 0.985 . S
H1376 N1370 0.984 . S
H1377 N1370 0.984 . S
H1378 N1366 0.984 . S
H1379 N1366 0.985 . S
C1380 C1381 1.363 . S
C1380 C1386 1.379 . S
C1380 N1388 1.356 1_545 S
C1381 C1380 1.363 . S
C1381 C1387 1.363 . S
C1382 C1383 1.363 . S
C1382 C1387 1.379 . S
C1382 N1389 1.356 . S
C1383 C1382 1.363 . S
C1383 C1386 1.363 . S
N1384 C1386 1.356 . S
N1384 H1396 0.984 . S
N1384 H1397 0.985 . S
N1385 C1387 1.356 . S
N1385 H1390 0.957 1_545 S
N1385 H1391 0.985 . S
C1386 C1380 1.379 . S
C1386 C1383 1.363 . S
C1386 N1384 1.356 . S
C1387 C1381 1.363 . S
C1387 C1382 1.379 . S
C1387 N1385 1.356 . S
N1388 C1380 1.356 1_565 S
N1388 H1394 0.984 . S
N1388 H1395 0.984 . S
N1389 C1382 1.356 . S
N1389 H1392 0.984 . S
N1389 H1393 0.985 . S
H1390 N1385 0.957 1_565 S
H1391 N1385 0.985 . S
H1392 N1389 0.984 . S
H1393 N1389 0.985 . S
H1394 N1388 0.984 . S
H1395 N1388 0.984 . S
H1396 N1384 0.984 . S
H1397 N1384 0.985 . S
C1398 C1399 1.363 . S
C1398 C1404 1.379 . S
C1398 N1406 1.356 1_455 S
C1399 C1398 1.363 . S
C1399 C1405 1.363 . S
C1400 C1401 1.363 . S
C1400 C1405 1.379 . S
C1400 N1407 1.356 . S
C1401 C1400 1.363 . S
C1401 C1404 1.363 . S
N1402 C1404 1.356 . S
N1402 H1414 0.984 . S
N1402 H1415 0.985 . S
N1403 C1405 1.356 . S
N1403 H1408 0.984 1_455 S
N1403 H1409 0.985 . S
C1404 C1398 1.379 . S
C1404 C1401 1.363 . S
C1404 N1402 1.356 . S
C1405 C1399 1.363 . S
C1405 C1400 1.379 . S
C1405 N1403 1.356 . S
N1406 C1398 1.356 1_655 S
N1406 H1412 0.984 . S
N1406 H1413 0.984 . S
N1407 C1400 1.356 . S
N1407 H1410 0.984 . S
N1407 H1411 0.985 . S
H1408 N1403 0.984 1_655 S
H1409 N1403 0.985 . S
H1410 N1407 0.984 . S
H1411 N1407 0.985 . S
H1412 N1406 0.984 . S
H1413 N1406 0.984 . S
H1414 N1402 0.984 . S
H1415 N1402 0.985 . S
C1416 C1417 1.363 . S
C1416 C1422 1.379 1_554 S
C1416 N1424 1.356 . S
C1417 C1416 1.363 . S
C1417 C1423 1.363 . S
C1418 C1419 1.363 1_554 S
C1418 C1423 1.379 . S
C1418 N1425 1.356 . S
C1419 C1418 1.363 1_556 S
C1419 C1422 1.363 . S
N1420 C1422 1.356 . S
N1420 H1432 0.984 . S
N1420 H1433 0.985 . S
N1421 C1423 1.356 . S
N1421 H1426 0.984 . S
N1421 H1427 0.985 . S
C1422 C1416 1.379 1_556 S
C1422 C1419 1.363 . S
C1422 N1420 1.356 . S
C1423 C1417 1.363 . S
C1423 C1418 1.379 . S
C1423 N1421 1.356 . S
N1424 C1416 1.356 . S
N1424 H1430 0.984 . S
N1424 H1431 0.984 . S
N1425 C1418 1.356 . S
N1425 H1428 0.984 1_554 S
N1425 H1429 0.985 . S
H1426 N1421 0.984 . S
H1427 N1421 0.985 . S
H1428 N1425 0.984 1_556 S
H1429 N1425 0.985 . S
H1430 N1424 0.984 . S
H1431 N1424 0.984 . S
H1432 N1420 0.984 . S
H1433 N1420 0.985 . S
C1434 C1435 1.363 1_556 S
C1434 C1440 1.379 . S
C1434 N1442 1.356 . S
C1435 C1434 1.363 1_554 S
C1435 C1441 1.363 . S
C1436 C1437 1.363 1_554 S
C1436 C1441 1.379 . S
C1436 N1443 1.356 . S
C1437 C1436 1.363 1_556 S
C1437 C1440 1.363 . S
N1438 C1440 1.356 . S
N1438 H1450 0.984 . S
N1438 H1451 0.985 . S
N1439 C1441 1.356 . S
N1439 H1444 0.984 . S
N1439 H1445 0.985 . S
C1440 C1434 1.379 . S
C1440 C1437 1.363 . S
C1440 N1438 1.356 . S
C1441 C1435 1.363 . S
C1441 C1436 1.379 . S
C1441 N1439 1.356 . S
N1442 C1434 1.356 . S
N1442 H1448 0.984 . S
N1442 H1449 0.984 . S
N1443 C1436 1.356 . S
N1443 H1446 0.984 . S
N1443 H1447 0.985 . S
H1444 N1439 0.984 . S
H1445 N1439 0.985 . S
H1446 N1443 0.984 . S
H1447 N1443 0.985 . S
H1448 N1442 0.984 . S
H1449 N1442 0.984 . S
H1450 N1438 0.984 . S
H1451 N1438 0.985 . S
C1452 C1453 1.363 . S
C1452 C1458 1.379 . S
C1452 N1460 1.356 . S
C1453 C1452 1.363 . S
C1453 C1459 1.363 1_554 S
C1454 C1455 1.363 . S
C1454 C1459 1.379 . S
C1454 N1461 1.356 . S
C1455 C1454 1.363 . S
C1455 C1458 1.363 1_556 S
N1456 C1458 1.356 . S
N1456 H1468 0.984 . S
N1456 H1469 0.985 . S
N1457 C1459 1.356 . S
N1457 H1462 0.986 . S
N1457 H1463 0.985 . S
C1458 C1452 1.379 . S
C1458 C1455 1.363 1_554 S
C1458 N1456 1.356 . S
C1459 C1453 1.363 1_556 S
C1459 C1454 1.379 . S
C1459 N1457 1.356 . S
N1460 C1452 1.356 . S
N1460 H1466 0.984 . S
N1460 H1467 0.984 . S
N1461 C1454 1.356 . S
N1461 H1464 0.984 . S
N1461 H1465 0.985 . S
H1462 N1457 0.986 . S
H1463 N1457 0.985 . S
H1464 N1461 0.984 . S
H1465 N1461 0.985 . S
H1466 N1460 0.984 . S
H1467 N1460 0.984 . S
H1468 N1456 0.984 . S
H1469 N1456 0.985 . S
C1470 C1471 1.363 . S
C1470 C1476 1.379 . S
C1470 N1478 1.356 . S
C1471 C1470 1.363 . S
C1471 C1477 1.363 1_554 S
C1472 C1473 1.363 . S
C1472 C1477 1.379 . S
C1472 N1479 1.356 . S
C1473 C1472 1.363 . S
C1473 C1476 1.363 1_556 S
N1474 C1476 1.356 . S
N1474 H1486 0.984 . S
N1474 H1487 0.985 1_554 S
N1475 C1477 1.356 . S
N1475 H1480 0.984 . S
N1475 H1481 0.985 . S
C1476 C1470 1.379 . S
C1476 C1473 1.363 1_554 S
C1476 N1474 1.356 . S
C1477 C1471 1.363 1_556 S
C1477 C1472 1.379 . S
C1477 N1475 1.356 . S
N1478 C1470 1.356 . S
N1478 H1484 0.984 . S
N1478 H1485 0.984 . S
N1479 C1472 1.356 . S
N1479 H1482 0.984 . S
N1479 H1483 0.985 . S
H1480 N1475 0.984 . S
H1481 N1475 0.985 . S
H1482 N1479 0.984 . S
H1483 N1479 0.985 . S
H1484 N1478 0.984 . S
H1485 N1478 0.984 . S
H1486 N1474 0.984 . S
H1487 N1474 0.985 1_556 S
C1488 C1489 1.363 . S
C1488 C1494 1.379 . S
C1488 N1496 1.356 . S
C1489 C1488 1.363 . S
C1489 C1495 1.363 . S
C1490 C1491 1.363 . S
C1490 C1495 1.379 . S
C1490 N1497 1.356 . S
C1491 C1490 1.363 . S
C1491 C1494 1.363 . S
N1492 C1494 1.356 . S
N1492 H1504 0.984 . S
N1492 H1505 0.985 . S
N1493 C1495 1.356 . S
N1493 H1498 0.984 . S
N1493 H1499 0.985 . S
C1494 C1488 1.379 . S
C1494 C1491 1.363 . S
C1494 N1492 1.356 . S
C1495 C1489 1.363 . S
C1495 C1490 1.379 . S
C1495 N1493 1.356 . S
N1496 C1488 1.356 . S
N1496 H1502 0.984 . S
N1496 H1503 0.984 . S
N1497 C1490 1.356 . S
N1497 H1500 0.984 . S
N1497 H1501 0.985 . S
H1498 N1493 0.984 . S
H1499 N1493 0.985 . S
H1500 N1497 0.984 . S
H1501 N1497 0.985 . S
H1502 N1496 0.984 . S
H1503 N1496 0.984 . S
H1504 N1492 0.984 . S
H1505 N1492 0.985 . S
C1506 C1507 1.363 . S
C1506 C1512 1.379 . S
C1506 N1514 1.356 . S
C1507 C1506 1.363 . S
C1507 C1513 1.363 . S
C1508 C1509 1.363 . S
C1508 C1513 1.379 . S
C1508 N1515 1.356 . S
C1509 C1508 1.363 . S
C1509 C1512 1.363 . S
N1510 C1512 1.356 . S
N1510 H1522 0.984 . S
N1510 H1523 0.985 . S
N1511 C1513 1.356 . S
N1511 H1516 0.984 . S
N1511 H1517 0.985 . S
C1512 C1506 1.379 . S
C1512 C1509 1.363 . S
C1512 N1510 1.356 . S
C1513 C1507 1.363 . S
C1513 C1508 1.379 . S
C1513 N1511 1.356 . S
N1514 C1506 1.356 . S
N1514 H1520 0.984 . S
N1514 H1521 0.984 . S
N1515 C1508 1.356 . S
N1515 H1518 0.984 . S
N1515 H1519 0.985 . S
H1516 N1511 0.984 . S
H1517 N1511 0.985 . S
H1518 N1515 0.984 . S
H1519 N1515 0.985 . S
H1520 N1514 0.984 . S
H1521 N1514 0.984 . S
H1522 N1510 0.984 . S
H1523 N1510 0.985 . S
C1524 C1525 1.363 . S
C1524 C1530 1.379 . S
C1524 N1532 1.356 . S
C1525 C1524 1.363 . S
C1525 C1531 1.363 . S
C1526 C1527 1.363 . S
C1526 C1531 1.379 . S
C1526 N1533 1.356 . S
C1527 C1526 1.363 . S
C1527 C1530 1.363 . S
N1528 C1530 1.356 . S
N1528 H1540 0.984 . S
N1528 H1541 0.985 . S
N1529 C1531 1.356 . S
N1529 H1534 0.984 . S
N1529 H1535 0.985 . S
C1530 C1524 1.379 . S
C1530 C1527 1.363 . S
C1530 N1528 1.356 . S
C1531 C1525 1.363 . S
C1531 C1526 1.379 . S
C1531 N1529 1.356 . S
N1532 C1524 1.356 . S
N1532 H1538 0.984 . S
N1532 H1539 0.984 . S
N1533 C1526 1.356 . S
N1533 H1536 0.984 . S
N1533 H1537 0.985 . S
H1534 N1529 0.984 . S
H1535 N1529 0.985 . S
H1536 N1533 0.984 . S
H1537 N1533 0.985 . S
H1538 N1532 0.984 . S
H1539 N1532 0.984 . S
H1540 N1528 0.984 . S
H1541 N1528 0.985 . S
C1542 C1543 1.363 . S
C1542 C1548 1.379 . S
C1542 N1550 1.356 . S
C1543 C1542 1.363 . S
C1543 C1549 1.363 . S
C1544 C1545 1.363 . S
C1544 C1549 1.379 . S
C1544 N1551 1.356 . S
C1545 C1544 1.363 . S
C1545 C1548 1.363 . S
N1546 C1548 1.356 . S
N1546 H1558 0.984 . S
N1546 H1559 0.985 . S
N1547 C1549 1.356 . S
N1547 H1552 0.984 . S
N1547 H1553 0.985 . S
C1548 C1542 1.379 . S
C1548 C1545 1.363 . S
C1548 N1546 1.356 . S
C1549 C1543 1.363 . S
C1549 C1544 1.379 . S
C1549 N1547 1.356 . S
N1550 C1542 1.356 . S
N1550 H1556 0.984 . S
N1550 H1557 0.984 . S
N1551 C1544 1.356 . S
N1551 H1554 0.984 . S
N1551 H1555 0.985 . S
H1552 N1547 0.984 . S
H1553 N1547 0.985 . S
H1554 N1551 0.984 . S
H1555 N1551 0.985 . S
H1556 N1550 0.984 . S
H1557 N1550 0.984 . S
H1558 N1546 0.984 . S
H1559 N1546 0.985 . S
C1560 C1561 1.363 . S
C1560 C1566 1.379 . S
C1560 N1568 1.356 1_545 S
C1561 C1560 1.363 . S
C1561 C1567 1.363 . S
C1562 C1563 1.363 . S
C1562 C1567 1.379 . S
C1562 N1569 1.356 . S
C1563 C1562 1.363 . S
C1563 C1566 1.363 . S
N1564 C1566 1.356 . S
N1564 H1576 0.984 . S
N1564 H1577 0.985 . S
N1565 C1567 1.356 . S
N1565 H1570 0.984 1_545 S
N1565 H1571 0.985 . S
C1566 C1560 1.379 . S
C1566 C1563 1.363 . S
C1566 N1564 1.356 . S
C1567 C1561 1.363 . S
C1567 C1562 1.379 . S
C1567 N1565 1.356 . S
N1568 C1560 1.356 1_565 S
N1568 H1574 0.984 . S
N1568 H1575 0.984 . S
N1569 C1562 1.356 . S
N1569 H1572 0.984 . S
N1569 H1573 0.985 . S
H1570 N1565 0.984 1_565 S
H1571 N1565 0.985 . S
H1572 N1569 0.984 . S
H1573 N1569 0.985 . S
H1574 N1568 0.984 . S
H1575 N1568 0.984 . S
H1576 N1564 0.984 . S
H1577 N1564 0.985 . S
C1578 C1579 1.363 . S
C1578 C1584 1.379 . S
C1578 N1586 1.356 . S
C1579 C1578 1.363 . S
C1579 C1585 1.363 . S
C1580 C1581 1.363 . S
C1580 C1585 1.379 . S
C1580 N1587 1.345 1_455 S
C1581 C1580 1.363 . S
C1581 C1584 1.363 . S
N1582 C1584 1.356 1_655 S
N1582 H1594 0.984 . S
N1582 H1595 0.985 . S
N1583 C1585 1.356 . S
N1583 H1588 0.984 . S
N1583 H1589 0.985 . S
C1584 C1578 1.379 . S
C1584 C1581 1.363 . S
C1584 N1582 1.356 1_455 S
C1585 C1579 1.363 . S
C1585 C1580 1.379 . S
C1585 N1583 1.356 . S
N1586 C1578 1.356 . S
N1586 H1592 0.984 . S
N1586 H1593 0.984 . S
N1587 C1580 1.345 1_655 S
N1587 H1590 1.001 . S
N1587 H1591 0.980 1_655 S
H1588 N1583 0.984 . S
H1589 N1583 0.985 . S
H1590 N1587 1.001 . S
H1591 N1587 0.980 1_455 S
H1592 N1586 0.984 . S
H1593 N1586 0.984 . S
H1594 N1582 0.984 . S
H1595 N1582 0.985 . S
C1596 C1597 1.363 . S
C1596 C1602 1.379 . S
C1596 N1604 1.356 . S
C1597 C1596 1.363 . S
C1597 C1603 1.363 . S
C1598 C1599 1.363 . S
C1598 C1603 1.379 . S
C1598 N1605 1.356 1_565 S
C1599 C1598 1.363 . S
C1599 C1602 1.363 . S
N1600 C1602 1.356 . S
N1600 H1612 0.984 . S
N1600 H1613 0.985 1_565 S
N1601 C1603 1.356 . S
N1601 H1606 0.984 . S
N1601 H1607 0.985 . S
C1602 C1596 1.379 . S
C1602 C1599 1.363 . S
C1602 N1600 1.356 . S
C1603 C1597 1.363 . S
C1603 C1598 1.379 . S
C1603 N1601 1.356 . S
N1604 C1596 1.356 . S
N1604 H1610 0.984 . S
N1604 H1611 0.984 . S
N1605 C1598 1.356 1_545 S
N1605 H1608 0.984 . S
N1605 H1609 0.985 . S
H1606 N1601 0.984 . S
H1607 N1601 0.985 . S
H1608 N1605 0.984 . S
H1609 N1605 0.985 . S
H1610 N1604 0.984 . S
H1611 N1604 0.984 . S
H1612 N1600 0.984 . S
H1613 N1600 0.985 1_545 S
C1614 C1615 1.363 . S
C1614 C1620 1.379 . S
C1614 N1622 1.356 1_655 S
C1615 C1614 1.363 . S
C1615 C1621 1.363 . S
C1616 C1617 1.363 . S
C1616 C1621 1.379 . S
C1616 N1623 1.356 . S
C1617 C1616 1.363 . S
C1617 C1620 1.363 . S
N1618 C1620 1.356 . S
N1618 H1630 0.984 . S
N1618 H1631 0.985 . S
N1619 C1621 1.356 . S
N1619 H1624 0.984 1_655 S
N1619 H1625 0.985 . S
C1620 C1614 1.379 . S
C1620 C1617 1.363 . S
C1620 N1618 1.356 . S
C1621 C1615 1.363 . S
C1621 C1616 1.379 . S
C1621 N1619 1.356 . S
N1622 C1614 1.356 1_455 S
N1622 H1628 0.984 . S
N1622 H1629 0.984 . S
N1623 C1616 1.356 . S
N1623 H1626 0.984 . S
N1623 H1627 0.985 . S
H1624 N1619 0.984 1_455 S
H1625 N1619 0.985 . S
H1626 N1623 0.984 . S
H1627 N1623 0.985 . S
H1628 N1622 0.984 . S
H1629 N1622 0.984 . S
H1630 N1618 0.984 . S
H1631 N1618 0.985 . S
C1632 C1633 1.363 . S
C1632 C1638 1.379 . S
C1632 N1640 1.356 . S
C1633 C1632 1.363 . S
C1633 C1639 1.363 . S
C1634 C1635 1.363 . S
C1634 C1639 1.379 . S
C1634 N1641 1.356 . S
C1635 C1634 1.363 . S
C1635 C1638 1.363 . S
N1636 C1638 1.356 . S
N1636 H1648 0.984 . S
N1636 H1649 0.985 . S
N1637 C1639 1.356 . S
N1637 H1642 0.984 . S
N1637 H1643 0.985 . S
C1638 C1632 1.379 . S
C1638 C1635 1.363 . S
C1638 N1636 1.356 . S
C1639 C1633 1.363 . S
C1639 C1634 1.379 . S
C1639 N1637 1.356 . S
N1640 C1632 1.356 . S
N1640 H1646 0.984 . S
N1640 H1647 0.984 . S
N1641 C1634 1.356 . S
N1641 H1644 0.984 . S
N1641 H1645 0.985 . S
H1642 N1637 0.984 . S
H1643 N1637 0.985 . S
H1644 N1641 0.984 . S
H1645 N1641 0.985 . S
H1646 N1640 0.984 . S
H1647 N1640 0.984 . S
H1648 N1636 0.984 . S
H1649 N1636 0.985 . S
C1650 C1651 1.363 . S
C1650 C1656 1.379 . S
C1650 N1658 1.356 . S
C1651 C1650 1.363 . S
C1651 C1657 1.363 . S
C1652 C1653 1.363 . S
C1652 C1657 1.379 . S
C1652 N1659 1.356 . S
C1653 C1652 1.363 . S
C1653 C1656 1.363 . S
N1654 C1656 1.356 . S
N1654 H1666 0.984 . S
N1654 H1667 0.985 . S
N1655 C1657 1.356 . S
N1655 H1660 0.984 . S
N1655 H1661 0.985 . S
C1656 C1650 1.379 . S
C1656 C1653 1.363 . S
C1656 N1654 1.356 . S
C1657 C1651 1.363 . S
C1657 C1652 1.379 . S
C1657 N1655 1.356 . S
N1658 C1650 1.356 . S
N1658 H1664 0.984 . S
N1658 H1665 0.984 . S
N1659 C1652 1.356 . S
N1659 H1662 0.984 . S
N1659 H1663 0.985 . S
H1660 N1655 0.984 . S
H1661 N1655 0.985 . S
H1662 N1659 0.984 . S
H1663 N1659 0.985 . S
H1664 N1658 0.984 . S
H1665 N1658 0.984 . S
H1666 N1654 0.984 . S
H1667 N1654 0.985 . S
C1668 C1669 1.363 . S
C1668 C1674 1.379 . S
C1668 N1676 1.356 . S
C1669 C1668 1.363 . S
C1669 C1675 1.363 . S
C1670 C1671 1.363 . S
C1670 C1675 1.379 . S
C1670 N1677 1.356 . S
C1671 C1670 1.363 . S
C1671 C1674 1.363 . S
N1672 C1674 1.356 . S
N1672 H1684 0.984 . S
N1672 H1685 0.985 . S
N1673 C1675 1.356 1_556 S
N1673 H1678 0.984 . S
N1673 H1679 0.985 . S
C1674 C1668 1.379 . S
C1674 C1671 1.363 . S
C1674 N1672 1.356 . S
C1675 C1669 1.363 . S
C1675 C1670 1.379 . S
C1675 N1673 1.356 1_554 S
N1676 C1668 1.356 . S
N1676 H1682 0.984 . S
N1676 H1683 0.984 . S
N1677 C1670 1.356 . S
N1677 H1680 0.984 . S
N1677 H1681 0.985 . S
H1678 N1673 0.984 . S
H1679 N1673 0.985 . S
H1680 N1677 0.984 . S
H1681 N1677 0.985 . S
H1682 N1676 0.984 . S
H1683 N1676 0.984 . S
H1684 N1672 0.984 . S
H1685 N1672 0.985 . S
C1686 C1687 1.363 . S
C1686 C1692 1.379 . S
C1686 N1694 1.356 . S
C1687 C1686 1.363 . S
C1687 C1693 1.363 . S
C1688 C1689 1.363 . S
C1688 C1693 1.379 . S
C1688 N1695 1.356 . S
C1689 C1688 1.363 . S
C1689 C1692 1.363 . S
N1690 C1692 1.356 . S
N1690 H1702 0.984 . S
N1690 H1703 0.985 . S
N1691 C1693 1.356 . S
N1691 H1696 0.984 . S
N1691 H1697 0.985 . S
C1692 C1686 1.379 . S
C1692 C1689 1.363 . S
C1692 N1690 1.356 . S
C1693 C1687 1.363 . S
C1693 C1688 1.379 . S
C1693 N1691 1.356 . S
N1694 C1686 1.356 . S
N1694 H1700 0.984 . S
N1694 H1701 0.984 . S
N1695 C1688 1.356 . S
N1695 H1698 0.984 . S
N1695 H1699 0.985 . S
H1696 N1691 0.984 . S
H1697 N1691 0.985 . S
H1698 N1695 0.984 . S
H1699 N1695 0.985 . S
H1700 N1694 0.984 . S
H1701 N1694 0.984 . S
H1702 N1690 0.984 . S
H1703 N1690 0.985 . S
C1704 C1705 1.363 . S
C1704 C1710 1.379 . S
C1704 N1712 1.356 . S
C1705 C1704 1.363 . S
C1705 C1711 1.363 . S
C1706 C1707 1.363 . S
C1706 C1711 1.379 . S
C1706 N1713 1.356 . S
C1707 C1706 1.363 . S
C1707 C1710 1.363 . S
N1708 C1710 1.356 . S
N1708 H1720 0.984 . S
N1708 H1721 0.985 . S
N1709 C1711 1.356 . S
N1709 H1714 0.984 . S
N1709 H1715 0.985 . S
C1710 C1704 1.379 . S
C1710 C1707 1.363 . S
C1710 N1708 1.356 . S
C1711 C1705 1.363 . S
C1711 C1706 1.379 . S
C1711 N1709 1.356 . S
N1712 C1704 1.356 . S
N1712 H1718 0.984 . S
N1712 H1719 0.984 . S
N1713 C1706 1.356 . S
N1713 H1716 0.984 . S
N1713 H1717 0.985 . S
H1714 N1709 0.984 . S
H1715 N1709 0.985 . S
H1716 N1713 0.984 . S
H1717 N1713 0.985 . S
H1718 N1712 0.984 . S
H1719 N1712 0.984 . S
H1720 N1708 0.984 . S
H1721 N1708 0.985 . S
C1722 C1723 1.363 . S
C1722 C1728 1.379 . S
C1722 N1730 1.356 . S
C1723 C1722 1.363 . S
C1723 C1729 1.363 . S
C1724 C1725 1.363 . S
C1724 C1729 1.379 . S
C1724 N1731 1.356 . S
C1725 C1724 1.363 . S
C1725 C1728 1.363 . S
N1726 C1728 1.356 . S
N1726 H1738 0.984 . S
N1726 H1739 0.985 . S
N1727 C1729 1.356 . S
N1727 H1732 0.984 . S
N1727 H1733 0.985 . S
C1728 C1722 1.379 . S
C1728 C1725 1.363 . S
C1728 N1726 1.356 . S
C1729 C1723 1.363 . S
C1729 C1724 1.379 . S
C1729 N1727 1.356 . S
N1730 C1722 1.356 . S
N1730 H1736 0.984 . S
N1730 H1737 0.984 . S
N1731 C1724 1.356 . S
N1731 H1734 0.984 . S
N1731 H1735 0.985 . S
H1732 N1727 0.984 . S
H1733 N1727 0.985 . S
H1734 N1731 0.984 . S
H1735 N1731 0.985 . S
H1736 N1730 0.984 . S
H1737 N1730 0.984 . S
H1738 N1726 0.984 . S
H1739 N1726 0.985 . S
C1740 C1741 1.363 . S
C1740 C1746 1.379 . S
C1740 N1748 1.356 . S
C1741 C1740 1.363 . S
C1741 C1747 1.363 . S
C1742 C1743 1.363 . S
C1742 C1747 1.379 . S
C1742 N1749 1.356 . S
C1743 C1742 1.363 . S
C1743 C1746 1.363 . S
N1744 C1746 1.356 . S
N1744 H1756 0.984 . S
N1744 H1757 0.985 . S
N1745 C1747 1.356 . S
N1745 H1750 0.984 . S
N1745 H1751 0.985 . S
C1746 C1740 1.379 . S
C1746 C1743 1.363 . S
C1746 N1744 1.356 . S
C1747 C1741 1.363 . S
C1747 C1742 1.379 . S
C1747 N1745 1.356 . S
N1748 C1740 1.356 . S
N1748 H1754 0.984 . S
N1748 H1755 0.984 . S
N1749 C1742 1.356 . S
N1749 H1752 0.984 . S
N1749 H1753 0.985 . S
H1750 N1745 0.984 . S
H1751 N1745 0.985 . S
H1752 N1749 0.984 . S
H1753 N1749 0.985 . S
H1754 N1748 0.984 . S
H1755 N1748 0.984 . S
H1756 N1744 0.984 . S
H1757 N1744 0.985 . S
C1758 C1759 1.363 . S
C1758 C1764 1.379 . S
C1758 N1766 1.356 . S
C1759 C1758 1.363 . S
C1759 C1765 1.363 . S
C1760 C1761 1.363 . S
C1760 C1765 1.379 . S
C1760 N1767 1.356 . S
C1761 C1760 1.363 . S
C1761 C1764 1.363 . S
N1762 C1764 1.356 . S
N1762 H1774 0.984 . S
N1762 H1775 0.985 . S
N1763 C1765 1.356 . S
N1763 H1768 0.984 . S
N1763 H1769 0.985 . S
C1764 C1758 1.379 . S
C1764 C1761 1.363 . S
C1764 N1762 1.356 . S
C1765 C1759 1.363 . S
C1765 C1760 1.379 . S
C1765 N1763 1.356 . S
N1766 C1758 1.356 . S
N1766 H1772 0.984 . S
N1766 H1773 0.984 . S
N1767 C1760 1.356 . S
N1767 H1770 0.984 . S
N1767 H1771 0.985 . S
H1768 N1763 0.984 . S
H1769 N1763 0.985 . S
H1770 N1767 0.984 . S
H1771 N1767 0.985 . S
H1772 N1766 0.984 . S
H1773 N1766 0.984 . S
H1774 N1762 0.984 . S
H1775 N1762 0.985 . S
C1776 C1777 1.363 . S
C1776 C1782 1.379 . S
C1776 N1784 1.356 . S
C1777 C1776 1.363 . S
C1777 C1783 1.363 . S
C1778 C1779 1.363 . S
C1778 C1783 1.379 . S
C1778 N1785 1.356 . S
C1779 C1778 1.363 . S
C1779 C1782 1.363 . S
N1780 C1782 1.356 . S
N1780 H1792 0.984 . S
N1780 H1793 0.985 1_556 S
N1781 C1783 1.356 . S
N1781 H1786 0.984 . S
N1781 H1787 0.985 . S
C1782 C1776 1.379 . S
C1782 C1779 1.363 . S
C1782 N1780 1.356 . S
C1783 C1777 1.363 . S
C1783 C1778 1.379 . S
C1783 N1781 1.356 . S
N1784 C1776 1.356 . S
N1784 H1790 0.984 . S
N1784 H1791 0.984 . S
N1785 C1778 1.356 . S
N1785 H1788 0.984 . S
N1785 H1789 0.985 . S
H1786 N1781 0.984 . S
H1787 N1781 0.985 . S
H1788 N1785 0.984 . S
H1789 N1785 0.985 . S
H1790 N1784 0.984 . S
H1791 N1784 0.984 . S
H1792 N1780 0.984 . S
H1793 N1780 0.985 1_554 S
C1794 C1795 1.363 . S
C1794 C1800 1.379 . S
C1794 N1802 1.356 . S
C1795 C1794 1.363 . S
C1795 C1801 1.363 . S
C1796 C1797 1.363 . S
C1796 C1801 1.379 . S
C1796 N1803 1.356 . S
C1797 C1796 1.363 . S
C1797 C1800 1.363 . S
N1798 C1800 1.356 . S
N1798 H1810 0.984 . S
N1798 H1811 0.985 . S
N1799 C1801 1.356 . S
N1799 H1804 0.984 . S
N1799 H1805 0.985 . S
C1800 C1794 1.379 . S
C1800 C1797 1.363 . S
C1800 N1798 1.356 . S
C1801 C1795 1.363 . S
C1801 C1796 1.379 . S
C1801 N1799 1.356 . S
N1802 C1794 1.356 . S
N1802 H1808 0.984 . S
N1802 H1809 0.984 1_554 S
N1803 C1796 1.356 . S
N1803 H1806 0.984 . S
N1803 H1807 0.985 . S
H1804 N1799 0.984 . S
H1805 N1799 0.985 . S
H1806 N1803 0.984 . S
H1807 N1803 0.985 . S
H1808 N1802 0.984 . S
H1809 N1802 0.984 1_556 S
H1810 N1798 0.984 . S
H1811 N1798 0.985 . S
C1812 C1813 1.363 . S
C1812 C1818 1.379 . S
C1812 N1820 1.356 . S
C1813 C1812 1.363 . S
C1813 C1819 1.363 . S
C1814 C1815 1.363 . S
C1814 C1819 1.379 . S
C1814 N1821 1.356 . S
C1815 C1814 1.363 . S
C1815 C1818 1.363 . S
N1816 C1818 1.356 . S
N1816 H1828 0.984 . S
N1816 H1829 0.985 . S
N1817 C1819 1.356 . S
N1817 H1822 0.984 1_556 S
N1817 H1823 0.985 . S
C1818 C1812 1.379 . S
C1818 C1815 1.363 . S
C1818 N1816 1.356 . S
C1819 C1813 1.363 . S
C1819 C1814 1.379 . S
C1819 N1817 1.356 . S
N1820 C1812 1.356 . S
N1820 H1826 0.984 . S
N1820 H1827 0.984 . S
N1821 C1814 1.356 . S
N1821 H1824 0.984 . S
N1821 H1825 0.985 . S
H1822 N1817 0.984 1_554 S
H1823 N1817 0.985 . S
H1824 N1821 0.984 . S
H1825 N1821 0.985 . S
H1826 N1820 0.984 . S
H1827 N1820 0.984 . S
H1828 N1816 0.984 . S
H1829 N1816 0.985 . S
C1830 C1831 1.363 . S
C1830 C1836 1.379 . S
C1830 N1838 1.356 . S
C1831 C1830 1.363 . S
C1831 C1837 1.363 . S
C1832 C1833 1.363 . S
C1832 C1837 1.379 . S
C1832 N1839 1.356 . S
C1833 C1832 1.363 . S
C1833 C1836 1.363 . S
N1834 C1836 1.356 . S
N1834 H1846 0.984 . S
N1834 H1847 0.985 . S
N1835 C1837 1.356 . S
N1835 H1840 0.984 1_554 S
N1835 H1841 0.985 . S
C1836 C1830 1.379 . S
C1836 C1833 1.363 . S
C1836 N1834 1.356 . S
C1837 C1831 1.363 . S
C1837 C1832 1.379 . S
C1837 N1835 1.356 . S
N1838 C1830 1.356 . S
N1838 H1844 0.984 . S
N1838 H1845 0.984 . S
N1839 C1832 1.356 . S
N1839 H1842 0.984 . S
N1839 H1843 0.985 . S
H1840 N1835 0.984 1_556 S
H1841 N1835 0.985 . S
H1842 N1839 0.984 . S
H1843 N1839 0.985 . S
H1844 N1838 0.984 . S
H1845 N1838 0.984 . S
H1846 N1834 0.984 . S
H1847 N1834 0.985 . S
C1848 C1849 1.363 . S
C1848 C1854 1.379 . S
C1848 N1856 1.356 . S
C1849 C1848 1.363 . S
C1849 C1855 1.363 . S
C1850 C1851 1.363 . S
C1850 C1855 1.379 . S
C1850 N1857 1.356 . S
C1851 C1850 1.363 . S
C1851 C1854 1.363 . S
N1852 C1854 1.356 . S
N1852 H1864 0.984 . S
N1852 H1865 0.985 . S
N1853 C1855 1.356 . S
N1853 H1858 0.984 . S
N1853 H1859 0.985 . S
C1854 C1848 1.379 . S
C1854 C1851 1.363 . S
C1854 N1852 1.356 . S
C1855 C1849 1.363 . S
C1855 C1850 1.379 . S
C1855 N1853 1.356 . S
N1856 C1848 1.356 . S
N1856 H1862 0.984 . S
N1856 H1863 0.984 . S
N1857 C1850 1.356 . S
N1857 H1860 0.984 . S
N1857 H1861 0.985 . S
H1858 N1853 0.984 . S
H1859 N1853 0.985 . S
H1860 N1857 0.984 . S
H1861 N1857 0.985 . S
H1862 N1856 0.984 . S
H1863 N1856 0.984 . S
H1864 N1852 0.984 . S
H1865 N1852 0.985 . S
C1866 C1867 1.363 . S
C1866 C1872 1.379 . S
C1866 N1874 1.356 . S
C1867 C1866 1.363 . S
C1867 C1873 1.363 . S
C1868 C1869 1.363 . S
C1868 C1873 1.379 . S
C1868 N1875 1.356 . S
C1869 C1868 1.363 . S
C1869 C1872 1.363 . S
N1870 C1872 1.356 . S
N1870 H1882 0.984 . S
N1870 H1883 0.985 . S
N1871 C1873 1.356 . S
N1871 H1876 0.984 . S
N1871 H1877 0.985 . S
C1872 C1866 1.379 . S
C1872 C1869 1.363 . S
C1872 N1870 1.356 . S
C1873 C1867 1.363 . S
C1873 C1868 1.379 . S
C1873 N1871 1.356 . S
N1874 C1866 1.356 . S
N1874 H1880 0.984 . S
N1874 H1881 0.984 . S
N1875 C1868 1.356 . S
N1875 H1878 0.984 . S
N1875 H1879 0.985 . S
H1876 N1871 0.984 . S
H1877 N1871 0.985 . S
H1878 N1875 0.984 . S
H1879 N1875 0.985 . S
H1880 N1874 0.984 . S
H1881 N1874 0.984 . S
H1882 N1870 0.984 . S
H1883 N1870 0.985 . S
C1884 C1885 1.363 . S
C1884 C1890 1.379 . S
C1884 N1892 1.356 . S
C1885 C1884 1.363 . S
C1885 C1891 1.363 . S
C1886 C1887 1.363 . S
C1886 C1891 1.379 . S
C1886 N1893 1.356 . S
C1887 C1886 1.363 . S
C1887 C1890 1.363 . S
N1888 C1890 1.356 . S
N1888 H1900 0.984 . S
N1888 H1901 0.985 . S
N1889 C1891 1.356 . S
N1889 H1894 0.984 . S
N1889 H1895 0.985 . S
C1890 C1884 1.379 . S
C1890 C1887 1.363 . S
C1890 N1888 1.356 . S
C1891 C1885 1.363 . S
C1891 C1886 1.379 . S
C1891 N1889 1.356 . S
N1892 C1884 1.356 . S
N1892 H1898 0.984 . S
N1892 H1899 0.984 . S
N1893 C1886 1.356 . S
N1893 H1896 0.984 . S
N1893 H1897 0.985 . S
H1894 N1889 0.984 . S
H1895 N1889 0.985 . S
H1896 N1893 0.984 . S
H1897 N1893 0.985 . S
H1898 N1892 0.984 . S
H1899 N1892 0.984 . S
H1900 N1888 0.984 . S
H1901 N1888 0.985 . S
C1902 C1903 1.363 . S
C1902 C1908 1.379 . S
C1902 N1910 1.356 . S
C1903 C1902 1.363 . S
C1903 C1909 1.363 . S
C1904 C1905 1.363 . S
C1904 C1909 1.379 . S
C1904 N1911 1.356 . S
C1905 C1904 1.363 . S
C1905 C1908 1.363 . S
N1906 C1908 1.356 . S
N1906 H1918 0.984 . S
N1906 H1919 0.985 . S
N1907 C1909 1.356 . S
N1907 H1912 0.984 . S
N1907 H1913 0.985 . S
C1908 C1902 1.379 . S
C1908 C1905 1.363 . S
C1908 N1906 1.356 . S
C1909 C1903 1.363 . S
C1909 C1904 1.379 . S
C1909 N1907 1.356 . S
N1910 C1902 1.356 . S
N1910 H1916 0.984 . S
N1910 H1917 0.984 . S
N1911 C1904 1.356 . S
N1911 H1914 0.984 . S
N1911 H1915 0.985 . S
H1912 N1907 0.984 . S
H1913 N1907 0.985 . S
H1914 N1911 0.984 . S
H1915 N1911 0.985 . S
H1916 N1910 0.984 . S
H1917 N1910 0.984 . S
H1918 N1906 0.984 . S
H1919 N1906 0.985 . S
C1920 C1921 1.363 . S
C1920 C1926 1.379 . S
C1920 N1928 1.356 . S
C1921 C1920 1.363 . S
C1921 C1927 1.363 . S
C1922 C1923 1.363 . S
C1922 C1927 1.379 . S
C1922 N1929 1.356 . S
C1923 C1922 1.363 . S
C1923 C1926 1.363 . S
N1924 C1926 1.356 . S
N1924 H1936 0.984 . S
N1924 H1937 0.985 . S
N1925 C1927 1.356 . S
N1925 H1930 0.984 . S
N1925 H1931 0.985 . S
C1926 C1920 1.379 . S
C1926 C1923 1.363 . S
C1926 N1924 1.356 . S
C1927 C1921 1.363 . S
C1927 C1922 1.379 . S
C1927 N1925 1.356 . S
N1928 C1920 1.356 . S
N1928 H1934 0.984 . S
N1928 H1935 0.984 . S
N1929 C1922 1.356 . S
N1929 H1932 0.984 . S
N1929 H1933 0.985 . S
H1930 N1925 0.984 . S
H1931 N1925 0.985 . S
H1932 N1929 0.984 . S
H1933 N1929 0.985 . S
H1934 N1928 0.984 . S
H1935 N1928 0.984 . S
H1936 N1924 0.984 . S
H1937 N1924 0.985 . S
C1938 C1939 1.363 . S
C1938 C1944 1.379 . S
C1938 N1946 1.356 . S
C1939 C1938 1.363 . S
C1939 C1945 1.363 . S
C1940 C1941 1.363 . S
C1940 C1945 1.379 . S
C1940 N1947 1.356 . S
C1941 C1940 1.363 . S
C1941 C1944 1.363 . S
N1942 C1944 1.356 . S
N1942 H1954 0.984 . S
N1942 H1955 0.985 . S
N1943 C1945 1.356 . S
N1943 H1948 0.984 . S
N1943 H1949 0.985 . S
C1944 C1938 1.379 . S
C1944 C1941 1.363 . S
C1944 N1942 1.356 . S
C1945 C1939 1.363 . S
C1945 C1940 1.379 . S
C1945 N1943 1.356 . S
N1946 C1938 1.356 . S
N1946 H1952 0.984 . S
N1946 H1953 0.984 . S
N1947 C1940 1.356 . S
N1947 H1950 0.984 . S
N1947 H1951 0.985 . S
H1948 N1943 0.984 . S
H1949 N1943 0.985 . S
H1950 N1947 0.984 . S
H1951 N1947 0.985 . S
H1952 N1946 0.984 . S
H1953 N1946 0.984 . S
H1954 N1942 0.984 . S
H1955 N1942 0.985 . S
C1956 C1957 1.363 . S
C1956 C1962 1.379 . S
C1956 N1964 1.356 . S
C1957 C1956 1.363 . S
C1957 C1963 1.363 . S
C1958 C1959 1.363 . S
C1958 C1963 1.379 . S
C1958 N1965 1.356 . S
C1959 C1958 1.363 . S
C1959 C1962 1.363 . S
N1960 C1962 1.356 . S
N1960 H1972 0.984 . S
N1960 H1973 0.985 . S
N1961 C1963 1.356 . S
N1961 H1966 0.984 . S
N1961 H1967 0.985 . S
C1962 C1956 1.379 . S
C1962 C1959 1.363 . S
C1962 N1960 1.356 . S
C1963 C1957 1.363 . S
C1963 C1958 1.379 . S
C1963 N1961 1.356 . S
N1964 C1956 1.356 . S
N1964 H1970 0.984 . S
N1964 H1971 0.984 . S
N1965 C1958 1.356 . S
N1965 H1968 0.984 . S
N1965 H1969 0.985 . S
H1966 N1961 0.984 . S
H1967 N1961 0.985 . S
H1968 N1965 0.984 . S
H1969 N1965 0.985 . S
H1970 N1964 0.984 . S
H1971 N1964 0.984 . S
H1972 N1960 0.984 . S
H1973 N1960 0.985 . S
C1974 C1975 1.363 . S
C1974 C1980 1.379 . S
C1974 N1982 1.356 . S
C1975 C1974 1.363 . S
C1975 C1981 1.363 . S
C1976 C1977 1.363 . S
C1976 C1981 1.379 . S
C1976 N1983 1.356 . S
C1977 C1976 1.363 . S
C1977 C1980 1.363 . S
N1978 C1980 1.356 . S
N1978 H1990 0.984 . S
N1978 H1991 0.985 . S
N1979 C1981 1.356 . S
N1979 H1984 0.984 . S
N1979 H1985 0.985 . S
C1980 C1974 1.379 . S
C1980 C1977 1.363 . S
C1980 N1978 1.356 . S
C1981 C1975 1.363 . S
C1981 C1976 1.379 . S
C1981 N1979 1.356 . S
N1982 C1974 1.356 . S
N1982 H1988 0.984 . S
N1982 H1989 0.984 . S
N1983 C1976 1.356 . S
N1983 H1986 0.984 . S
N1983 H1987 0.985 . S
H1984 N1979 0.984 . S
H1985 N1979 0.985 . S
H1986 N1983 0.984 . S
H1987 N1983 0.985 . S
H1988 N1982 0.984 . S
H1989 N1982 0.984 . S
H1990 N1978 0.984 . S
H1991 N1978 0.985 . S
C1992 C1993 1.363 . S
C1992 C1998 1.379 . S
C1992 N2000 1.356 . S
C1993 C1992 1.363 . S
C1993 C1999 1.363 . S
C1994 C1995 1.363 . S
C1994 C1999 1.379 . S
C1994 N2001 1.356 . S
C1995 C1994 1.363 . S
C1995 C1998 1.363 . S
N1996 C1998 1.356 . S
N1996 H2008 0.984 . S
N1996 H2009 0.985 . S
N1997 C1999 1.356 . S
N1997 H2002 0.984 . S
N1997 H2003 0.985 . S
C1998 C1992 1.379 . S
C1998 C1995 1.363 . S
C1998 N1996 1.356 . S
C1999 C1993 1.363 . S
C1999 C1994 1.379 . S
C1999 N1997 1.356 . S
N2000 C1992 1.356 . S
N2000 H2006 0.984 . S
N2000 H2007 0.984 . S
N2001 C1994 1.356 . S
N2001 H2004 0.984 . S
N2001 H2005 0.985 . S
H2002 N1997 0.984 . S
H2003 N1997 0.985 . S
H2004 N2001 0.984 . S
H2005 N2001 0.985 . S
H2006 N2000 0.984 . S
H2007 N2000 0.984 . S
H2008 N1996 0.984 . S
H2009 N1996 0.985 . S
C2010 C2011 1.363 . S
C2010 C2016 1.379 . S
C2010 N2018 1.356 . S
C2011 C2010 1.363 . S
C2011 C2017 1.363 . S
C2012 C2013 1.363 . S
C2012 C2017 1.379 . S
C2012 N2019 1.356 . S
C2013 C2012 1.363 . S
C2013 C2016 1.363 . S
N2014 C2016 1.356 . S
N2014 H2026 0.984 . S
N2014 H2027 0.985 . S
N2015 C2017 1.356 . S
N2015 H2020 0.984 . S
N2015 H2021 0.985 . S
C2016 C2010 1.379 . S
C2016 C2013 1.363 . S
C2016 N2014 1.356 . S
C2017 C2011 1.363 . S
C2017 C2012 1.379 . S
C2017 N2015 1.356 . S
N2018 C2010 1.356 . S
N2018 H2024 0.984 . S
N2018 H2025 0.984 . S
N2019 C2012 1.356 . S
N2019 H2022 0.984 . S
N2019 H2023 0.985 . S
H2020 N2015 0.984 . S
H2021 N2015 0.985 . S
H2022 N2019 0.984 . S
H2023 N2019 0.985 . S
H2024 N2018 0.984 . S
H2025 N2018 0.984 . S
H2026 N2014 0.984 . S
H2027 N2014 0.985 . S
C2028 C2029 1.363 . S
C2028 C2034 1.379 . S
C2028 N2036 1.356 . S
C2029 C2028 1.363 . S
C2029 C2035 1.363 . S
C2030 C2031 1.363 . S
C2030 C2035 1.379 . S
C2030 N2037 1.356 . S
C2031 C2030 1.363 . S
C2031 C2034 1.363 . S
N2032 C2034 1.356 . S
N2032 H2044 0.984 . S
N2032 H2045 0.985 . S
N2033 C2035 1.356 . S
N2033 H2038 0.984 . S
N2033 H2039 0.985 . S
C2034 C2028 1.379 . S
C2034 C2031 1.363 . S
C2034 N2032 1.356 . S
C2035 C2029 1.363 . S
C2035 C2030 1.379 . S
C2035 N2033 1.356 . S
N2036 C2028 1.356 . S
N2036 H2042 0.984 . S
N2036 H2043 0.984 . S
N2037 C2030 1.356 . S
N2037 H2040 0.984 . S
N2037 H2041 0.985 . S
H2038 N2033 0.984 . S
H2039 N2033 0.985 . S
H2040 N2037 0.984 . S
H2041 N2037 0.985 . S
H2042 N2036 0.984 . S
H2043 N2036 0.984 . S
H2044 N2032 0.984 . S
H2045 N2032 0.985 . S
C2046 C2047 1.363 . S
C2046 C2052 1.379 . S
C2046 N2054 1.356 . S
C2047 C2046 1.363 . S
C2047 C2053 1.363 . S
C2048 C2049 1.363 . S
C2048 C2053 1.379 . S
C2048 N2055 1.356 . S
C2049 C2048 1.363 . S
C2049 C2052 1.363 . S
N2050 C2052 1.356 . S
N2050 H2062 0.984 . S
N2050 H2063 0.985 . S
N2051 C2053 1.356 . S
N2051 H2056 0.984 . S
N2051 H2057 0.985 . S
C2052 C2046 1.379 . S
C2052 C2049 1.363 . S
C2052 N2050 1.356 . S
C2053 C2047 1.363 . S
C2053 C2048 1.379 . S
C2053 N2051 1.356 . S
N2054 C2046 1.356 . S
N2054 H2060 0.984 . S
N2054 H2061 0.984 . S
N2055 C2048 1.356 . S
N2055 H2058 0.984 . S
N2055 H2059 0.985 . S
H2056 N2051 0.984 . S
H2057 N2051 0.985 . S
H2058 N2055 0.984 . S
H2059 N2055 0.985 . S
H2060 N2054 0.984 . S
H2061 N2054 0.984 . S
H2062 N2050 0.984 . S
H2063 N2050 0.985 . S
C2064 C2065 1.363 . S
C2064 C2070 1.379 . S
C2064 N2072 1.356 . S
C2065 C2064 1.363 . S
C2065 C2071 1.363 . S
C2066 C2067 1.363 . S
C2066 C2071 1.379 . S
C2066 N2073 1.356 . S
C2067 C2066 1.363 . S
C2067 C2070 1.363 . S
N2068 C2070 1.356 . S
N2068 H2080 0.984 . S
N2068 H2081 0.985 . S
N2069 C2071 1.356 . S
N2069 H2074 0.984 . S
N2069 H2075 0.985 . S
C2070 C2064 1.379 . S
C2070 C2067 1.363 . S
C2070 N2068 1.356 . S
C2071 C2065 1.363 . S
C2071 C2066 1.379 . S
C2071 N2069 1.356 . S
N2072 C2064 1.356 . S
N2072 H2078 0.984 1_554 S
N2072 H2079 0.984 1_554 S
N2073 C2066 1.356 . S
N2073 H2076 0.984 . S
N2073 H2077 0.985 . S
H2074 N2069 0.984 . S
H2075 N2069 0.985 . S
H2076 N2073 0.984 . S
H2077 N2073 0.985 . S
H2078 N2072 0.984 1_556 S
H2079 N2072 0.984 1_556 S
H2080 N2068 0.984 . S
H2081 N2068 0.985 . S
C2082 C2083 1.363 . S
C2082 C2088 1.379 . S
C2082 N2090 1.356 . S
C2083 C2082 1.363 . S
C2083 C2089 1.363 . S
C2084 C2085 1.363 . S
C2084 C2089 1.379 . S
C2084 N2091 1.356 . S
C2085 C2084 1.363 . S
C2085 C2088 1.363 . S
N2086 C2088 1.356 . S
N2086 H2098 0.984 . S
N2086 H2099 0.985 . S
N2087 C2089 1.356 . S
N2087 H2092 0.984 . S
N2087 H2093 0.985 . S
C2088 C2082 1.379 . S
C2088 C2085 1.363 . S
C2088 N2086 1.356 . S
C2089 C2083 1.363 . S
C2089 C2084 1.379 . S
C2089 N2087 1.356 . S
N2090 C2082 1.356 . S
N2090 H2096 0.984 . S
N2090 H2097 0.984 . S
N2091 C2084 1.356 . S
N2091 H2094 0.984 1_556 S
N2091 H2095 0.985 . S
H2092 N2087 0.984 . S
H2093 N2087 0.985 . S
H2094 N2091 0.984 1_554 S
H2095 N2091 0.985 . S
H2096 N2090 0.984 . S
H2097 N2090 0.984 . S
H2098 N2086 0.984 . S
H2099 N2086 0.985 . S
C2100 C2101 1.363 . S
C2100 C2106 1.379 . S
C2100 N2108 1.356 . S
C2101 C2100 1.363 . S
C2101 C2107 1.363 . S
C2102 C2103 1.363 . S
C2102 C2107 1.379 . S
C2102 N2109 1.356 . S
C2103 C2102 1.363 . S
C2103 C2106 1.363 . S
N2104 C2106 1.356 . S
N2104 H2116 0.984 . S
N2104 H2117 0.985 . S
N2105 C2107 1.356 . S
N2105 H2110 0.984 . S
N2105 H2111 0.985 . S
C2106 C2100 1.379 . S
C2106 C2103 1.363 . S
C2106 N2104 1.356 . S
C2107 C2101 1.363 . S
C2107 C2102 1.379 . S
C2107 N2105 1.356 . S
N2108 C2100 1.356 . S
N2108 H2114 0.984 . S
N2108 H2115 0.984 . S
N2109 C2102 1.356 . S
N2109 H2112 0.984 . S
N2109 H2113 0.985 . S
H2110 N2105 0.984 . S
H2111 N2105 0.985 . S
H2112 N2109 0.984 . S
H2113 N2109 0.985 . S
H2114 N2108 0.984 . S
H2115 N2108 0.984 . S
H2116 N2104 0.984 . S
H2117 N2104 0.985 . S
C2118 C2119 1.363 . S
C2118 C2124 1.379 . S
C2118 N2126 1.356 . S
C2119 C2118 1.363 . S
C2119 C2125 1.363 . S
C2120 C2121 1.363 . S
C2120 C2125 1.379 . S
C2120 N2127 1.356 . S
C2121 C2120 1.363 . S
C2121 C2124 1.363 . S
N2122 C2124 1.356 . S
N2122 H2134 0.984 . S
N2122 H2135 0.985 . S
N2123 C2125 1.356 . S
N2123 H2128 0.984 1_556 S
N2123 H2129 0.985 1_556 S
C2124 C2118 1.379 . S
C2124 C2121 1.363 . S
C2124 N2122 1.356 . S
C2125 C2119 1.363 . S
C2125 C2120 1.379 . S
C2125 N2123 1.356 . S
N2126 C2118 1.356 . S
N2126 H2132 0.984 . S
N2126 H2133 0.984 . S
N2127 C2120 1.356 . S
N2127 H2130 0.984 . S
N2127 H2131 0.985 . S
H2128 N2123 0.984 1_554 S
H2129 N2123 0.985 1_554 S
H2130 N2127 0.984 . S
H2131 N2127 0.985 . S
H2132 N2126 0.984 . S
H2133 N2126 0.984 . S
H2134 N2122 0.984 . S
H2135 N2122 0.985 . S
C2136 C2137 1.363 . S
C2136 C2142 1.379 . S
C2136 N2144 1.356 . S
C2137 C2136 1.363 . S
C2137 C2143 1.363 . S
C2138 C2139 1.363 . S
C2138 C2143 1.379 . S
C2138 N2145 1.356 . S
C2139 C2138 1.363 . S
C2139 C2142 1.363 . S
N2140 C2142 1.356 . S
N2140 H2152 0.984 1_554 S
N2140 H2153 0.985 1_554 S
N2141 C2143 1.356 . S
N2141 H2146 0.984 . S
N2141 H2147 0.985 . S
C2142 C2136 1.379 . S
C2142 C2139 1.363 . S
C2142 N2140 1.356 . S
C2143 C2137 1.363 . S
C2143 C2138 1.379 . S
C2143 N2141 1.356 . S
N2144 C2136 1.356 . S
N2144 H2150 0.984 . S
N2144 H2151 0.984 . S
N2145 C2138 1.356 . S
N2145 H2148 0.984 . S
N2145 H2149 0.985 . S
H2146 N2141 0.984 . S
H2147 N2141 0.985 . S
H2148 N2145 0.984 . S
H2149 N2145 0.985 . S
H2150 N2144 0.984 . S
H2151 N2144 0.984 . S
H2152 N2140 0.984 1_556 S
H2153 N2140 0.985 1_556 S
C2154 C2155 1.363 . S
C2154 C2160 1.379 . S
C2154 N2162 1.356 . S
C2155 C2154 1.363 . S
C2155 C2161 1.363 . S
C2156 C2157 1.363 . S
C2156 C2161 1.379 . S
C2156 N2163 1.356 . S
C2157 C2156 1.363 . S
C2157 C2160 1.363 . S
N2158 C2160 1.356 . S
N2158 H2170 0.984 . S
N2158 H2171 0.985 . S
N2159 C2161 1.356 . S
N2159 H2164 0.984 . S
N2159 H2165 0.985 . S
C2160 C2154 1.379 . S
C2160 C2157 1.363 . S
C2160 N2158 1.356 . S
C2161 C2155 1.363 . S
C2161 C2156 1.379 . S
C2161 N2159 1.356 . S
N2162 C2154 1.356 . S
N2162 H2168 0.984 . S
N2162 H2169 0.984 . S
N2163 C2156 1.356 . S
N2163 H2166 0.984 . S
N2163 H2167 0.985 . S
H2164 N2159 0.984 . S
H2165 N2159 0.985 . S
H2166 N2163 0.984 . S
H2167 N2163 0.985 . S
H2168 N2162 0.984 . S
H2169 N2162 0.984 . S
H2170 N2158 0.984 . S
H2171 N2158 0.985 . S
C2172 C2173 1.363 . S
C2172 C2178 1.379 . S
C2172 N2180 1.356 . S
C2173 C2172 1.363 . S
C2173 C2179 1.363 . S
C2174 C2175 1.363 . S
C2174 C2179 1.379 . S
C2174 N2181 1.356 . S
C2175 C2174 1.363 . S
C2175 C2178 1.363 . S
N2176 C2178 1.356 . S
N2176 H2188 0.984 . S
N2176 H2189 0.985 . S
N2177 C2179 1.356 . S
N2177 H2182 0.984 1_554 S
N2177 H2183 0.985 1_554 S
C2178 C2172 1.379 . S
C2178 C2175 1.363 . S
C2178 N2176 1.356 . S
C2179 C2173 1.363 . S
C2179 C2174 1.379 . S
C2179 N2177 1.356 . S
N2180 C2172 1.356 . S
N2180 H2186 0.984 . S
N2180 H2187 0.984 . S
N2181 C2174 1.356 . S
N2181 H2184 0.984 . S
N2181 H2185 0.985 . S
H2182 N2177 0.984 1_556 S
H2183 N2177 0.985 1_556 S
H2184 N2181 0.984 . S
H2185 N2181 0.985 . S
H2186 N2180 0.984 . S
H2187 N2180 0.984 . S
H2188 N2176 0.984 . S
H2189 N2176 0.985 . S
C2190 C2191 1.363 . S
C2190 C2196 1.379 . S
C2190 N2198 1.356 . S
C2191 C2190 1.363 . S
C2191 C2197 1.363 . S
C2192 C2193 1.363 . S
C2192 C2197 1.379 . S
C2192 N2199 1.356 . S
C2193 C2192 1.363 . S
C2193 C2196 1.363 . S
N2194 C2196 1.356 . S
N2194 H2206 0.984 . S
N2194 H2207 0.985 . S
N2195 C2197 1.356 . S
N2195 H2200 0.984 . S
N2195 H2201 0.985 . S
C2196 C2190 1.379 . S
C2196 C2193 1.363 . S
C2196 N2194 1.356 . S
C2197 C2191 1.363 . S
C2197 C2192 1.379 . S
C2197 N2195 1.356 . S
N2198 C2190 1.356 . S
N2198 H2204 0.984 . S
N2198 H2205 0.984 . S
N2199 C2192 1.356 . S
N2199 H2202 0.984 . S
N2199 H2203 0.985 . S
H2200 N2195 0.984 . S
H2201 N2195 0.985 . S
H2202 N2199 0.984 . S
H2203 N2199 0.985 . S
H2204 N2198 0.984 . S
H2205 N2198 0.984 . S
H2206 N2194 0.984 . S
H2207 N2194 0.985 . S
C1345 C991 1.624 . S
C1347 C63 1.689 1_565 S
C1363 C728 1.624 . S
C1365 C158 1.689 1_655 S
C1381 C231 1.689 1_545 S
C1383 C823 1.624 . S
C1399 C326 1.689 1_455 S
C1401 C896 1.624 . S
C1417 C399 1.689 . S
C1419 C487 1.624 . S
C1435 C560 1.624 . S
C1437 C494 1.689 . S
C1453 C567 1.689 . S
C1455 C655 1.624 . S
C1471 C392 1.624 . S
C1473 C662 1.689 . S
C1489 C319 1.624 . S
C1491 C735 1.689 . S
C1507 C830 1.689 . S
C1509 C56 1.624 . S
C1525 C151 1.624 . S
C1527 C903 1.689 . S
C1543 C224 1.624 . S
C1545 C998 1.689 . S
C1561 C1071 1.689 1_545 S
C1563 C1159 1.624 . S
C1579 C1232 1.624 . S
C1581 C1166 1.689 1_455 S
C1597 C1327 1.624 . S
C1599 C1239 1.689 1_565 S
C1615 C1334 1.689 1_655 S
C1617 C1064 1.624 . S
C1633 C74 1.400 . S
C1635 C410 1.400 . S
C1651 C483 1.400 . S
C1653 C147 1.400 . S
C1669 C242 1.400 . S
C1671 C578 1.400 . S
C1687 C315 1.400 . S
C1689 C651 1.400 . S
C1705 C746 1.400 . S
C1707 C1082 1.400 . S
C1723 C1155 1.400 . S
C1725 C819 1.400 . S
C1741 C914 1.400 . S
C1743 C1250 1.400 . S
C1759 C987 1.400 . S
C1761 C1323 1.400 . S
C1777 C1243 2.229 . S
C1779 C67 2.229 1_556 S
C1795 C140 2.229 1_554 S
C1797 C1316 2.229 . S
C1813 C235 2.229 1_556 S
C1815 C1075 2.229 . S
C1831 C308 2.229 1_554 S
C1833 C1148 2.229 . S
C1849 C403 2.229 . S
C1851 C907 2.229 . S
C1867 C476 2.229 . S
C1869 C980 2.229 . S
C1885 C571 2.229 . S
C1887 C739 2.229 . S
C1903 C812 2.229 . S
C1905 C644 2.229 . S
C1921 C58 1.268 . S
C1923 C70 1.268 . S
C1939 C154 1.268 . S
C1941 C142 1.268 . S
C1957 C226 1.268 . S
C1959 C238 1.268 . S
C1975 C310 1.268 . S
C1977 C322 1.268 . S
C1993 C406 1.268 . S
C1995 C394 1.268 . S
C2011 C490 1.268 . S
C2013 C478 1.268 . S
C2029 C562 1.268 . S
C2031 C574 1.268 . S
C2047 C646 1.268 . S
C2049 C658 1.268 . S
C2065 C730 1.268 . S
C2067 C742 1.268 . S
C2083 C814 1.268 . S
C2085 C826 1.268 . S
C2101 C910 1.268 . S
C2103 C898 1.268 . S
C2119 C994 1.268 . S
C2121 C982 1.268 . S
C2137 C1066 1.268 . S
C2139 C1078 1.268 . S
C2155 C1150 1.268 . S
C2157 C1162 1.268 . S
C2173 C1246 1.268 . S
C2175 C1234 1.268 . S
C2191 C1330 1.268 . S
C2193 C1318 1.268 . S
