# Generated by pormake.
# Topology smu, (6)-cn, num edge types: 1
# Building blocks:
#     Node 0, Type 0, BuildingBlock: BETDIP_clean_sbu_0, # of connection points: 6
#     Node 1, Type 0, BuildingBlock: BETDIP_clean_sbu_0, # of connection points: 6
#     Node 2, Type 0, BuildingBlock: BETDIP_clean_sbu_0, # of connection points: 6
#     Node 3, Type 0, BuildingBlock: BETDIP_clean_sbu_0, # of connection points: 6
#     Node 4, Type 0, BuildingBlock: BETDIP_clean_sbu_0, # of connection points: 6
#     Node 5, Type 0, BuildingBlock: BETDIP_clean_sbu_0, # of connection points: 6
#     Edge 6, Type (0, 0), BuildingBlock: TEMPAE_clean_linker_10, # of connection points: 2
#     Edge 7, Type (0, 0), BuildingBlock: TEMPAE_clean_linker_10, # of connection points: 2
#     Edge 8, Type (0, 0), BuildingBlock: TEMPAE_clean_linker_10, # of connection points: 2
#     Edge 9, Type (0, 0), BuildingBlock: TEMPAE_clean_linker_10, # of connection points: 2
#     Edge 10, Type (0, 0), BuildingBlock: TEMPAE_clean_linker_10, # of connection points: 2
#     Edge 11, Type (0, 0), BuildingBlock: TEMPAE_clean_linker_10, # of connection points: 2
#     Edge 12, Type (0, 0), BuildingBlock: TEMPAE_clean_linker_10, # of connection points: 2
#     Edge 13, Type (0, 0), BuildingBlock: TEMPAE_clean_linker_10, # of connection points: 2
#     Edge 14, Type (0, 0), BuildingBlock: TEMPAE_clean_linker_10, # of connection points: 2
#     Edge 15, Type (0, 0), BuildingBlock: TEMPAE_clean_linker_10, # of connection points: 2
#     Edge 16, Type (0, 0), BuildingBlock: TEMPAE_clean_linker_10, # of connection points: 2
#     Edge 17, Type (0, 0), BuildingBlock: TEMPAE_clean_linker_10, # of connection points: 2
#     Edge 18, Type (0, 0), BuildingBlock: TEMPAE_clean_linker_10, # of connection points: 2
#     Edge 19, Type (0, 0), BuildingBlock: TEMPAE_clean_linker_10, # of connection points: 2
#     Edge 20, Type (0, 0), BuildingBlock: TEMPAE_clean_linker_10, # of connection points: 2
#     Edge 21, Type (0, 0), BuildingBlock: TEMPAE_clean_linker_10, # of connection points: 2
#     Edge 22, Type (0, 0), BuildingBlock: TEMPAE_clean_linker_10, # of connection points: 2
#     Edge 23, Type (0, 0), BuildingBlock: TEMPAE_clean_linker_10, # of connection points: 2
# Relax obj value: 0.226
# Max RMSD: 0.314
# Mean RMSD: 0.314
data_MOF--net-smu--node1-BETDIP_clean_sbu_0--edge1-TEMPAE_clean_linker_10
_symmetry_space_group_name_H-M    P1
_symmetry_Int_Tables_number       1
_symmetry_cell_setting            triclinic
loop_
_symmetry_equiv_pos_as_xyz
'x, y, z'
_cell_length_a     39.204532
_cell_length_b     39.108318
_cell_length_c     26.671456
_cell_angle_alpha  89.946436
_cell_angle_beta   89.669612
_cell_angle_gamma 119.99617
loop_
_atom_site_label
_atom_site_type_symbol
_atom_site_fract_x
_atom_site_fract_y
_atom_site_fract_z
_atom_type_partial_charge
Tb0 Tb 0.33538 0.05998 0.29044 0.0
Tb1 Tb 0.37269 0.1436 0.2785 0.0
C2 C 0.28422 0.99079 0.31582 0.0
C3 C 0.24039 0.97088 0.3145 0.0
C4 C 0.21766 0.94993 0.35644 0.0
C5 C 0.17638 0.93209 0.35577 0.0
C6 C 0.1567 0.93473 0.31304 0.0
C7 C 0.17973 0.95601 0.27126 0.0
C8 C 0.22088 0.97396 0.27208 0.0
C9 C 0.35377 0.07997 0.19494 0.0
C10 C 0.28553 0.10336 0.27249 0.0
C11 C 0.41119 0.21709 0.25921 0.0
C12 C 0.44479 0.25747 0.26949 0.0
C13 C 0.46499 0.28225 0.22864 0.0
C14 C 0.49227 0.32241 0.23568 0.0
C15 C 0.50031 0.33917 0.28393 0.0
C16 C 0.48117 0.31398 0.32516 0.0
C17 C 0.45355 0.27369 0.31802 0.0
C18 C 0.35495 0.11553 0.37327 0.0
C19 C 0.42729 0.1049 0.28755 0.0
O20 O 0.30171 1.01966 0.34779 0.0
O21 O 0.30252 0.99971 0.27257 0.0
O22 O 0.33994 0.09536 0.22535 0.0
O23 O 0.35889 0.05448 0.21973 0.0
O24 O 0.28827 0.07613 0.29879 0.0
O25 O 0.31666 0.12967 0.24806 0.0
O26 O 0.41763 0.19111 0.23668 0.0
O27 O 0.38281 0.20074 0.29236 0.0
O28 O 0.37035 0.10625 0.33907 0.0
O29 O 0.34798 0.14205 0.35516 0.0
O30 O 0.42339 0.13473 0.27108 0.0
O31 O 0.39596 0.07203 0.30451 0.0
H32 H 0.23188 0.94756 0.38992 0.0
H33 H 0.15993 0.91658 0.38902 0.0
H34 H 0.16598 0.95837 0.23736 0.0
H35 H 0.2374 0.99032 0.23932 0.0
H36 H 0.45864 0.27079 0.19079 0.0
H37 H 0.50682 0.3405 0.20305 0.0
H38 H 0.48644 0.3257 0.36286 0.0
H39 H 0.43821 0.25557 0.35032 0.0
Tb40 Tb 0.76866 0.71901 0.2974 0.0
Tb41 Tb 0.80999 0.6785 0.28685 0.0
C42 C 0.75356 0.7722 0.32274 0.0
C43 C 0.77889 0.81585 0.32178 0.0
C44 C 0.77668 0.83887 0.36061 0.0
C45 C 0.80099 0.88012 0.36005 0.0
C46 C 0.82814 0.89936 0.32058 0.0
C47 C 0.83059 0.87596 0.28217 0.0
C48 C 0.80645 0.83482 0.28287 0.0
C49 C 0.76479 0.6979 0.20343 0.0
C50 C 0.86217 0.76446 0.27524 0.0
C51 C 0.83896 0.63387 0.27822 0.0
C52 C 0.85706 0.60821 0.27513 0.0
C53 C 0.84591 0.57912 0.23796 0.0
C54 C 0.86122 0.55336 0.23767 0.0
C55 C 0.88787 0.55585 0.27476 0.0
C56 C 0.89948 0.5855 0.31131 0.0
C57 C 0.88436 0.61129 0.31144 0.0
C58 C 0.80057 0.6981 0.38108 0.0
C59 C 0.71709 0.62714 0.29502 0.0
O60 O 0.76354 0.75345 0.35461 0.0
O61 O 0.74441 0.75467 0.27925 0.0
O62 O 0.79602 0.71104 0.23024 0.0
O63 O 0.73606 0.69451 0.23099 0.0
O64 O 0.83303 0.76433 0.30094 0.0
O65 O 0.85558 0.73175 0.25371 0.0
O66 O 0.81098 0.63099 0.24895 0.0
O67 O 0.85097 0.66243 0.31066 0.0
O68 O 0.77587 0.68234 0.34748 0.0
O69 O 0.83405 0.70627 0.36179 0.0
O70 O 0.74992 0.62979 0.27769 0.0
O71 O 0.71768 0.65928 0.31283 0.0
H72 H 0.75617 0.82493 0.39146 0.0
H73 H 0.79863 0.8969 0.39079 0.0
H74 H 0.85062 0.88945 0.2508 0.0
H75 H 0.80925 0.81783 0.2527 0.0
H76 H 0.82482 0.57579 0.20959 0.0
H77 H 0.85126 0.53072 0.20919 0.0
H78 H 0.92029 0.58877 0.34005 0.0
H79 H 0.89364 0.6333 0.34069 0.0
Tb80 Tb 0.99536 0.28562 0.27684 0.0
Tb81 Tb 0.90979 0.23901 0.27636 0.0
C82 C 0.06677 0.30581 0.2874 0.0
C83 C 0.08503 0.28054 0.29222 0.0
C84 C 0.114 0.28869 0.3283 0.0
C85 C 0.13107 0.26463 0.33267 0.0
C86 C 0.11979 0.23199 0.30068 0.0
C87 C 0.09044 0.22386 0.26489 0.0
C88 C 0.07317 0.24756 0.26097 0.0
C89 C 0.96644 0.27915 0.18554 0.0
C90 C 0.95048 0.19166 0.26968 0.0
C91 C 0.83643 0.20534 0.25965 0.0
C92 C 0.79657 0.20006 0.26982 0.0
C93 C 0.77473 0.20201 0.22944 0.0
C94 C 0.73474 0.19026 0.23513 0.0
C95 C 0.71522 0.1761 0.28148 0.0
C96 C 0.73751 0.17566 0.32255 0.0
C97 C 0.77761 0.18724 0.31674 0.0
C98 C 0.94308 0.25002 0.36711 0.0
C99 C 0.95086 0.33321 0.28161 0.0
O100 O 0.04446 0.30491 0.32452 0.0
O101 O 0.05077 0.30449 0.24417 0.0
O102 O 0.95437 0.25175 0.21844 0.0
O103 O 0.99281 0.31135 0.20639 0.0
O104 O 0.97971 0.22309 0.29118 0.0
O105 O 0.92233 0.19498 0.24823 0.0
O106 O 0.86268 0.23661 0.23512 0.0
O107 O 0.85245 0.19363 0.29342 0.0
O108 O 0.95255 0.27436 0.33202 0.0
O109 O 0.91151 0.21823 0.35387 0.0
O110 O 0.9191 0.2989 0.27164 0.0
O111 O 0.98528 0.33544 0.29089 0.0
H112 H 0.12342 0.31365 0.35318 0.0
H113 H 0.15301 0.27161 0.36132 0.0
H114 H 0.08126 0.19962 0.23891 0.0
H115 H 0.05065 0.24014 0.23296 0.0
H116 H 0.78825 0.21126 0.19269 0.0
H117 H 0.71891 0.19177 0.20284 0.0
H118 H 0.7236 0.16483 0.35877 0.0
H119 H 0.79332 0.18484 0.34857 0.0
Tb120 Tb 0.10223 0.38273 0.77929 0.0
Tb121 Tb 0.13279 0.32768 0.75985 0.0
C122 C 0.09431 0.43903 0.81162 0.0
C123 C 0.11979 0.4828 0.80912 0.0
C124 C 0.12639 0.50583 0.8522 0.0
C125 C 0.14885 0.54724 0.84962 0.0
C126 C 0.16508 0.5668 0.80368 0.0
C127 C 0.15903 0.54343 0.76081 0.0
C128 C 0.13696 0.50212 0.76354 0.0
C129 C 0.09352 0.35839 0.68557 0.0
C130 C 0.19447 0.41873 0.76933 0.0
C131 C 0.16867 0.29427 0.72555 0.0
C132 C 0.17488 0.2604 0.73188 0.0
C133 C 0.19409 0.25209 0.6934 0.0
C134 C 0.20874 0.22654 0.70187 0.0
C135 C 0.2045 0.20881 0.74916 0.0
C136 C 0.18339 0.21567 0.78694 0.0
C137 C 0.16874 0.2413 0.7784 0.0
C138 C 0.10559 0.32171 0.85226 0.0
C139 C 0.04189 0.29269 0.77009 0.0
O140 O 0.10635 0.41967 0.83959 0.0
O141 O 0.08007 0.42112 0.76913 0.0
O142 O 0.12331 0.36665 0.71283 0.0
O143 O 0.0698 0.36663 0.70952 0.0
O144 O 0.16507 0.4261 0.76762 0.0
O145 O 0.18782 0.38234 0.76921 0.0
O146 O 0.13537 0.28866 0.70695 0.0
O147 O 0.18117 0.31948 0.76242 0.0
O148 O 0.1237 0.35313 0.8263 0.0
O149 O 0.10626 0.29338 0.82798 0.0
O150 O 0.07038 0.29009 0.74665 0.0
O151 O 0.04875 0.32538 0.79412 0.0
H152 H 0.11384 0.49178 0.8879 0.0
H153 H 0.15337 0.56387 0.88376 0.0
H154 H 0.17037 0.55698 0.72457 0.0
H155 H 0.13278 0.48535 0.72957 0.0
H156 H 0.19968 0.26704 0.65751 0.0
H157 H 0.22504 0.2222 0.67204 0.0
H158 H 0.17892 0.2019 0.82347 0.0
H159 H 0.15427 0.2476 0.80878 0.0
Tb160 Tb 0.32173 0.95228 0.78923 0.0
Tb161 Tb 0.23508 0.91713 0.76999 0.0
C162 C 0.38924 0.96422 0.81207 0.0
C163 C 0.40884 0.93975 0.81259 0.0
C164 C 0.40262 0.91241 0.851 0.0
C165 C 0.42134 0.88959 0.84921 0.0
C166 C 0.44631 0.89327 0.80873 0.0
C167 C 0.45257 0.92079 0.77076 0.0
C168 C 0.43442 0.94378 0.77285 0.0
C169 C 0.30595 0.97066 0.70047 0.0
C170 C 0.2701 0.86021 0.76606 0.0
C171 C 0.16523 0.88074 0.73894 0.0
C172 C 0.12469 0.87208 0.74906 0.0
C173 C 0.09525 0.84782 0.71528 0.0
C174 C 0.05553 0.83275 0.72726 0.0
C175 C 0.04431 0.84168 0.77338 0.0
C176 C 0.07395 0.86744 0.80644 0.0
C177 C 0.1139 0.88229 0.79454 0.0
C178 C 0.25493 0.93515 0.86583 0.0
C179 C 0.28441 1.00697 0.79259 0.0
O180 O 0.362 0.95775 0.84572 0.0
O181 O 0.37952 0.97031 0.7676 0.0
O182 O 0.2859 0.93682 0.72154 0.0
O183 O 0.33579 0.99316 0.72807 0.0
O184 O 0.30464 0.88995 0.77914 0.0
O185 O 0.24001 0.86518 0.7571 0.0
O186 O 0.19151 0.91596 0.72251 0.0
O187 O 0.17962 0.86668 0.77193 0.0
O188 O 0.27006 0.92199 0.83463 0.0
O189 O 0.22488 0.93392 0.84436 0.0
O190 O 0.25485 0.97945 0.76634 0.0
O191 O 0.31269 1.00151 0.8121 0.0
H192 H 0.38325 0.90852 0.88227 0.0
H193 H 0.41585 0.86868 0.87913 0.0
H194 H 0.47214 0.92506 0.73955 0.0
H195 H 0.44038 0.96482 0.7429 0.0
H196 H 0.10295 0.83926 0.68024 0.0
H197 H 0.03349 0.81364 0.70059 0.0
H198 H 0.06621 0.87489 0.84222 0.0
H199 H 0.1362 0.90054 0.82146 0.0
Tb200 Tb 0.67015 0.73155 0.79374 0.0
Tb201 Tb 0.72636 0.81804 0.77344 0.0
C202 C 0.61347 0.66722 0.82591 0.0
C203 C 0.56967 0.64749 0.82119 0.0
C204 C 0.54701 0.65986 0.84878 0.0
C205 C 0.50588 0.64099 0.84287 0.0
C206 C 0.48642 0.60954 0.80893 0.0
C207 C 0.50915 0.59722 0.78159 0.0
C208 C 0.55003 0.61573 0.78784 0.0
C209 C 0.69778 0.74552 0.70136 0.0
C210 C 0.63467 0.7879 0.77644 0.0
C211 C 0.76054 0.88755 0.73939 0.0
C212 C 0.79255 0.92822 0.74804 0.0
C213 C 0.80106 0.95627 0.7102 0.0
C214 C 0.82456 0.99652 0.72016 0.0
C215 C 0.8401 1.00957 0.76826 0.0
C216 C 0.83328 0.98129 0.80553 0.0
C217 C 0.80942 0.94087 0.79559 0.0
C218 C 0.72837 0.79664 0.86747 0.0
C219 C 0.76132 0.76292 0.78499 0.0
O220 O 0.63153 0.69916 0.85324 0.0
O221 O 0.63282 0.67062 0.78449 0.0
O222 O 0.68941 0.76826 0.7266 0.0
O223 O 0.68696 0.71342 0.72659 0.0
O224 O 0.62729 0.75108 0.77927 0.0
O225 O 0.67093 0.81774 0.77469 0.0
O226 O 0.769 0.86075 0.72421 0.0
O227 O 0.73224 0.87387 0.77275 0.0
O228 O 0.69868 0.78305 0.83903 0.0
O229 O 0.75704 0.82681 0.84512 0.0
O230 O 0.76403 0.79346 0.76007 0.0
O231 O 0.72829 0.73702 0.80889 0.0
H232 H 0.56099 0.6842 0.87481 0.0
H233 H 0.48936 0.65136 0.8644 0.0
H234 H 0.4952 0.5727 0.75579 0.0
H235 H 0.56639 0.60515 0.76631 0.0
H236 H 0.78797 0.94715 0.67345 0.0
H237 H 0.82996 1.01753 0.69038 0.0
H238 H 0.84493 0.99046 0.84291 0.0
H239 H 0.80271 0.91966 0.82555 0.0
C240 C 0.26294 0.98816 0.92491 0.0
C241 C 0.27348 0.95993 0.91129 0.0
C242 C 0.27848 1.01203 0.96753 0.0
C243 C 0.3038 1.00637 0.99973 0.0
C244 C 0.31474 0.97787 0.98634 0.0
C245 C 0.30005 0.95553 0.94179 0.0
C246 C 0.26699 0.04283 0.97851 0.0
C247 C 0.34075 0.96992 1.02008 0.0
C248 C 0.36338 0.08294 0.10122 0.0
C249 C 0.33855 0.06747 0.14325 0.0
C250 C 0.35215 0.06413 0.05397 0.0
C251 C 0.31598 0.02802 0.04905 0.0
C252 C 0.29067 1.0128 0.09143 0.0
C253 C 0.30203 0.03289 0.1375 0.0
C254 C 0.37943 0.0824 1.0096 0.0
C255 C 0.25221 0.97423 0.08881 0.0
H256 H 0.24224 0.99174 0.90206 0.0
H257 H 0.30817 0.93365 0.93189 0.0
H258 H 0.24694 0.03358 1.0115 0.0
H259 H 0.29341 0.07146 0.98778 0.0
H260 H 0.25182 0.04745 0.94633 0.0
H261 H 0.34762 0.94787 1.0039 0.0
H262 H 0.36876 0.99765 1.02712 0.0
H263 H 0.32591 0.95881 0.05691 0.0
H264 H 0.39211 0.10899 0.10567 0.0
H265 H 0.28328 1.02015 0.17017 0.0
H266 H 0.36304 0.0848 0.97727 0.0
H267 H 0.39141 0.06324 0.99791 0.0
H268 H 0.40447 0.11221 1.01821 0.0
H269 H 0.23267 0.97635 0.06062 0.0
H270 H 0.23643 0.96575 0.12544 0.0
H271 H 0.25778 0.95032 0.07661 0.0
C272 C 0.74587 0.73495 0.6535 0.0
C273 C 0.72367 0.75412 0.65627 0.0
C274 C 0.76427 0.73347 0.60904 0.0
C275 C 0.76015 0.75111 0.56494 0.0
C276 C 0.74026 0.77319 0.56802 0.0
C277 C 0.72218 0.77448 0.61379 0.0
C278 C 0.78514 0.70979 0.60856 0.0
C279 C 0.7359 0.79327 0.52225 0.0
C280 C 0.82021 0.74693 0.45288 0.0
C281 C 0.79209 0.71256 0.42861 0.0
C282 C 0.80992 0.76135 0.49573 0.0
C283 C 0.77087 0.74046 0.51532 0.0
C284 C 0.74257 0.70589 0.49044 0.0
C285 C 0.75341 0.69274 0.44745 0.0
C286 C 0.84079 0.79881 0.52017 0.0
C287 C 0.70086 0.68191 0.51006 0.0
H288 H 0.74742 0.71917 0.68606 0.0
H289 H 0.70494 0.78914 0.6153 0.0
H290 H 0.7671 0.68189 0.58778 0.0
H291 H 0.814 0.72623 0.58908 0.0
H292 H 0.79016 0.70231 0.64699 0.0
H293 H 0.72725 0.81546 0.53234 0.0
H294 H 0.76378 0.808 0.50029 0.0
H295 H 0.71285 0.77087 0.49766 0.0
H296 H 0.84992 0.76293 0.43783 0.0
H297 H 0.73142 0.66636 0.42859 0.0
H298 H 0.84728 0.79217 0.55822 0.0
H299 H 0.82962 0.81971 0.52468 0.0
H300 H 0.86865 0.81348 0.49811 0.0
H301 H 0.70104 0.6702 0.54792 0.0
H302 H 0.682 0.65666 0.48531 0.0
H303 H 0.68736 0.70084 0.51378 0.0
C304 C 0.9629 0.28642 0.09252 0.0
C305 C 0.97634 0.2739 0.13332 0.0
C306 C 0.98079 0.29246 0.04466 0.0
C307 C 1.01425 0.28785 0.03799 0.0
C308 C 1.02719 0.27422 0.07898 0.0
C309 C 1.00772 0.26682 0.12567 0.0
C310 C 0.96476 0.30517 1.00168 0.0
C311 C 0.06319 0.26976 0.07452 0.0
C312 C 0.05085 0.27633 0.90946 0.0
C313 C 0.08134 0.31482 0.89854 0.0
C314 C 1.02789 0.26757 0.95341 0.0
C315 C 0.03621 0.29773 0.98869 0.0
C316 C 0.06689 0.33683 0.97777 0.0
C317 C 0.08868 0.34503 0.93247 0.0
C318 C 0.99497 0.22579 0.96232 0.0
C319 C 0.07762 0.36976 1.01477 0.0
H320 H 0.93937 0.29295 0.09849 0.0
H321 H 1.01896 0.25824 0.15743 0.0
H322 H 0.98606 0.33619 0.99129 0.0
H323 H 0.96077 0.28672 0.9682 0.0
H324 H 0.93613 0.30301 1.01126 0.0
H325 H 0.0693 0.25862 0.10971 0.0
H326 H 0.05949 0.24918 0.04373 0.0
H327 H 0.08927 0.29875 0.06504 0.0
H328 H 0.04468 0.25278 0.88325 0.0
H329 H 0.1123 0.37474 0.92447 0.0
H330 H 0.96698 0.22556 0.96974 0.0
H331 H 1.00129 0.21323 0.99593 0.0
H332 H 0.9908 0.20626 0.92994 0.0
H333 H 0.05163 0.37303 1.02293 0.0
H334 H 0.10196 0.39849 1.00082 0.0
H335 H 0.08672 0.36245 0.05068 0.0
C336 C 0.30568 0.08514 0.4448 0.0
C337 C 0.34129 0.09349 0.42169 0.0
C338 C 0.29184 0.06111 0.4884 0.0
C339 C 0.31477 0.04618 0.51041 0.0
C340 C 0.35084 0.0549 0.487 0.0
C341 C 0.36316 0.07769 0.44274 0.0
C342 C 0.25259 0.05147 0.51073 0.0
C343 C 0.37708 0.04093 0.50935 0.0
C344 C 0.31396 0.02764 0.65056 0.0
C345 C 0.29832 0.98656 0.65347 0.0
C346 C 0.317 0.04695 0.60494 0.0
C347 C 0.30364 0.0248 0.56022 0.0
C348 C 0.2846 0.98283 0.5634 0.0
C349 C 0.28233 0.96412 0.61 0.0
C350 C 0.33766 0.09153 0.60433 0.0
C351 C 0.26862 0.95784 0.51709 0.0
H352 H 0.28813 0.09642 0.42802 0.0
H353 H 0.39051 0.0837 0.42477 0.0
H354 H 0.25678 0.06454 0.54864 0.0
H355 H 0.23692 0.06267 0.48725 0.0
H356 H 0.23367 1.01902 0.51512 0.0
H357 H 0.4041 0.05003 0.48653 0.0
H358 H 0.38599 0.05309 0.54768 0.0
H359 H 0.36082 1.00829 0.51272 0.0
H360 H 0.326 0.0453 0.68401 0.0
H361 H 0.27023 0.93244 0.61172 0.0
H362 H 0.32034 0.10196 0.58315 0.0
H363 H 0.36661 0.10338 0.58511 0.0
H364 H 0.34272 0.10412 0.64271 0.0
H365 H 0.2528 0.96872 0.4934 0.0
H366 H 0.2483 0.92631 0.52661 0.0
H367 H 0.29335 0.95982 0.49441 0.0
C368 C 0.71776 0.73875 0.92145 0.0
C369 C 0.73336 0.77948 0.91507 0.0
C370 C 0.72778 0.72341 0.96317 0.0
C371 C 0.7511 0.74899 1.00232 0.0
C372 C 0.76574 0.79016 0.99671 0.0
C373 C 0.75796 0.80485 0.95251 0.0
C374 C 0.7133 0.67967 0.96403 0.0
C375 C 0.78922 0.819 0.03751 0.0
C376 C 0.7262 0.69936 0.13071 0.0
C377 C 0.76274 0.70613 0.14887 0.0
C378 C 0.7225 0.71369 0.08412 0.0
C379 C 0.75548 0.7325 0.05154 0.0
C380 C 0.79202 0.73652 0.06758 0.0
C381 C 0.79549 0.72434 0.11661 0.0
C382 C 0.68312 0.70965 0.07118 0.0
C383 C 0.82794 0.75407 1.03403 0.0
H384 H 0.69896 0.71862 0.893 0.0
H385 H 0.7705 0.83644 0.94773 0.0
H386 H 0.7268 0.67077 0.99403 0.0
H387 H 0.68081 0.66316 0.96875 0.0
H388 H 0.7198 0.67059 0.92739 0.0
H389 H 0.79042 0.84779 1.03249 0.0
H390 H 0.77655 0.80705 0.07511 0.0
H391 H 0.81984 0.82452 0.03652 0.0
H392 H 0.70018 0.68457 0.15439 0.0
H393 H 0.82383 0.72956 0.12967 0.0
H394 H 0.66645 0.68338 0.04715 0.0
H395 H 0.68667 0.73595 0.05065 0.0
H396 H 0.66496 0.70549 0.10523 0.0
H397 H 0.82129 0.75715 0.99447 0.0
H398 H 0.84189 0.73538 1.03513 0.0
H399 H 0.84993 0.78354 0.04849 0.0
C400 C 0.9514 0.26711 0.45886 0.0
C401 C 0.96488 0.25763 0.4152 0.0
C402 C 0.97503 0.28047 0.50226 0.0
C403 C 1.01383 0.28619 0.50143 0.0
C404 C 1.0267 0.27489 0.45791 0.0
C405 C 1.00163 0.25975 0.41612 0.0
C406 C 0.95874 0.28936 0.54871 0.0
C407 C 0.06779 0.28099 0.45372 0.0
C408 C 0.08162 0.36462 0.59522 0.0
C409 C 0.08453 0.34186 0.63386 0.0
C410 C 0.0613 0.34718 0.55046 0.0
C411 C 0.04112 0.30551 0.54513 0.0
C412 C 0.04545 0.28255 0.58313 0.0
C413 C 0.06786 0.30111 0.62627 0.0
C414 C 0.06 0.37333 0.50979 0.0
C415 C 1.02394 0.23807 0.58029 0.0
H416 H 0.92278 0.26505 0.45867 0.0
H417 H 1.01128 0.2504 0.38349 0.0
H418 H 0.96403 0.27576 0.58214 0.0
H419 H 0.97401 0.3217 0.55484 0.0
H420 H 0.92664 0.27832 0.5458 0.0
H421 H 0.0882 0.31199 0.44213 0.0
H422 H 0.07837 0.27599 0.48991 0.0
H423 H 0.06945 0.26123 0.42512 0.0
H424 H 0.09387 0.39605 0.60092 0.0
H425 H 0.0699 0.28314 0.65547 0.0
H426 H 1.03024 0.37007 0.5086 0.0
H427 H 0.06582 0.36445 0.47262 0.0
H428 H 0.08185 0.40496 0.51605 0.0
H429 H 0.99206 0.22657 0.58713 0.0
H430 H 0.03473 0.22491 0.60858 0.0
H431 H 1.027 0.22801 0.54256 0.0
C432 C 0.49946 0.14574 0.26795 0.0
C433 C 0.4682 0.11088 0.28859 0.0
C434 C 0.5386 0.15374 0.26914 0.0
C435 C 0.54747 0.12627 0.29141 0.0
C436 C 0.5162 0.09081 0.31214 0.0
C437 C 0.47697 0.08352 0.3105 0.0
C438 C 0.5706 0.19188 0.24643 0.0
C439 C 0.52425 0.06065 0.33615 0.0
C440 C 0.64587 0.13784 0.24794 0.0
C441 C 0.67168 0.16092 0.28617 0.0
C442 C 0.60523 0.12477 0.25037 0.0
C443 C 0.58953 0.13502 0.29197 0.0
C444 C 0.61516 0.15725 0.33146 0.0
C445 C 0.65573 0.16977 0.32819 0.0
C446 C 0.57926 0.10099 0.20747 0.0
C447 C 0.6 0.1692 0.37637 0.0
H448 H 0.49348 0.16728 0.2507 0.0
H449 H 0.4533 0.05659 0.32668 0.0
H450 H 0.59302 0.20923 0.27513 0.0
H451 H 0.58579 0.18545 0.21578 0.0
H452 H 0.55898 0.21042 0.23102 0.0
H453 H 0.49694 0.03458 0.35044 0.0
H454 H 0.53857 0.05052 0.3086 0.0
H455 H 0.54497 0.07426 0.36776 0.0
H456 H 0.65752 0.13002 0.21576 0.0
H457 H 0.67521 0.18765 0.35791 0.0
H458 H 0.56841 0.11855 0.18749 0.0
H459 H 0.5531 0.07387 0.22183 0.0
H460 H 0.59507 0.09238 0.18011 0.0
H461 H 0.59058 0.1904 0.36451 0.0
H462 H 0.62266 0.18325 0.40595 0.0
H463 H 0.57383 0.14311 0.39269 0.0
C464 C 0.64696 0.5772 0.32308 0.0
C465 C 0.68102 0.58685 0.29493 0.0
C466 C 0.61474 0.53792 0.32462 0.0
C467 C 0.61653 0.50756 0.2974 0.0
C468 C 0.65057 0.51752 0.26833 0.0
C469 C 0.68199 0.55663 0.26741 0.0
C470 C 0.57898 0.52874 0.3559 0.0
C471 C 0.65416 0.48664 0.23841 0.0
C472 C 0.55584 0.39723 0.32923 0.0
C473 C 0.52792 0.3828 0.29058 0.0
C474 C 0.58352 0.43793 0.3335 0.0
C475 C 0.58333 0.46528 0.29858 0.0
C476 C 0.5541 0.45105 0.26088 0.0
C477 C 0.52702 0.41024 0.25725 0.0
C478 C 0.61419 0.45143 0.37406 0.0
C479 C 0.55236 0.47882 0.22298 0.0
H480 H 0.64577 0.60006 0.34462 0.0
H481 H 0.70779 0.56338 0.24502 0.0
H482 H 0.55217 0.51465 0.33239 0.0
H483 H 0.57501 0.50736 0.38591 0.0
H484 H 0.58136 0.55558 0.37349 0.0
H485 H 0.68258 0.49911 0.21767 0.0
H486 H 0.65162 0.46295 0.26375 0.0
H487 H 0.62982 0.47273 0.211 0.0
H488 H 0.55705 0.37651 0.35514 0.0
H489 H 0.50516 0.39974 0.22786 0.0
H490 H 0.61569 0.47676 0.39467 0.0
H491 H 0.64358 0.46168 0.35681 0.0
H492 H 0.6081 0.42749 0.40129 0.0
H493 H 0.5531 0.50435 0.24214 0.0
H494 H 0.52546 0.46402 0.19959 0.0
H495 H 0.57851 0.49063 0.19788 0.0
C496 C 0.9779 0.40736 0.28768 0.0
C497 C 0.94596 0.36884 0.28248 0.0
C498 C 0.97227 0.44043 0.28687 0.0
C499 C 0.93383 0.4349 0.28089 0.0
C500 C 0.90162 0.39609 0.27605 0.0
C501 C 0.90804 0.36384 0.27687 0.0
C502 C 1.00743 0.48129 0.29213 0.0
C503 C 0.86008 0.38846 0.26986 0.0
C504 C 0.90512 0.51071 0.32237 0.0
C505 C 0.90248 0.52692 0.27646 0.0
C506 C 0.91693 0.48211 0.32457 0.0
C507 C 0.92659 0.46921 0.27981 0.0
C508 C 0.92518 0.48633 0.2335 0.0
C509 C 0.91303 0.51474 0.23236 0.0
C510 C 0.91747 0.46449 0.37473 0.0
C511 C 0.93537 0.47373 0.18485 0.0
H512 H 1.00728 0.41173 0.29194 0.0
H513 H 0.88289 0.33442 0.27297 0.0
H514 H 1.01011 0.4993 0.25858 0.0
H515 H 1.00337 0.49624 0.32505 0.0
H516 H 0.03533 0.48078 0.29664 0.0
H517 H 0.83816 0.35649 0.26693 0.0
H518 H 0.85188 0.40074 0.30221 0.0
H519 H 0.85823 0.40356 0.23563 0.0
H520 H 0.89665 0.51943 0.35669 0.0
H521 H 0.91171 0.52738 0.19675 0.0
H522 H 0.94601 0.46553 0.38014 0.0
H523 H 0.89403 0.43298 0.37594 0.0
H524 H 0.91265 0.48004 0.40642 0.0
H525 H 0.96434 0.47532 0.18781 0.0
H526 H 0.93638 0.49228 0.15267 0.0
H527 H 0.9131 0.44257 0.17693 0.0
C528 C 0.17494 0.63354 0.82892 0.0
C529 C 0.18669 0.61118 0.79983 0.0
C530 C 0.19307 0.67483 0.82339 0.0
C531 C 0.22343 0.69466 0.78724 0.0
C532 C 0.2362 0.67257 0.75864 0.0
C533 C 0.218 0.63135 0.76554 0.0
C534 C 0.17875 0.6971 0.85523 0.0
C535 C 0.26822 0.6923 0.71946 0.0
C536 C 0.23129 0.78989 0.738 0.0
C537 C 0.26295 0.819 0.76544 0.0
C538 C 0.21952 0.74966 0.74295 0.0
C539 C 0.23937 0.73782 0.77691 0.0
C540 C 0.27251 0.76721 0.80311 0.0
C541 C 0.2841 0.80745 0.79677 0.0
C542 C 0.18467 0.71968 0.71327 0.0
C543 C 0.29439 0.75607 0.84001 0.0
H544 H 0.15057 0.61869 0.85506 0.0
H545 H 0.22818 0.61487 0.74355 0.0
H546 H 0.204 0.72257 0.87353 0.0
H547 H 0.1641 0.70902 0.83115 0.0
H548 H 0.15753 0.67813 0.88469 0.0
H549 H 0.27671 0.6716 0.70269 0.0
H550 H 0.25794 0.70429 0.68906 0.0
H551 H 0.29475 0.71754 0.73598 0.0
H552 H 0.21488 0.79847 0.71345 0.0
H553 H 0.30838 0.82964 0.81847 0.0
H554 H 0.15972 0.7016 0.73909 0.0
H555 H 0.19217 0.6993 0.69355 0.0
H556 H 0.17474 0.73376 0.68515 0.0
H557 H 0.2753 0.74163 0.8732 0.0
H558 H 0.32206 0.78218 0.85287 0.0
H559 H 0.30163 0.73454 0.82317 0.0
C560 C 0.4868 0.8662 0.84738 0.0
C561 C 0.46678 0.86954 0.80587 0.0
C562 C 0.51021 0.8482 0.84313 0.0
C563 C 0.51347 0.83268 0.79638 0.0
C564 C 0.49148 0.83399 0.75516 0.0
C565 C 0.46869 0.85251 0.76031 0.0
C566 C 0.5332 0.84777 0.88807 0.0
C567 C 0.49347 0.81749 0.7048 0.0
C568 C 0.6108 0.83639 0.76826 0.0
C569 C 0.60208 0.79741 0.77757 0.0
C570 C 0.58223 0.84782 0.77379 0.0
C571 C 0.54343 0.81973 0.78897 0.0
C572 C 0.53394 0.78001 0.79719 0.0
C573 C 0.56333 0.76932 0.79143 0.0
C574 C 0.59394 0.89042 0.76424 0.0
C575 C 0.49296 0.74898 0.81306 0.0
H576 H 0.48573 0.87937 0.88266 0.0
H577 H 0.45285 0.85433 0.72818 0.0
H578 H 0.52887 0.81778 0.89405 0.0
H579 H 0.5651 0.868 0.88121 0.0
H580 H 0.52452 0.8572 0.92284 0.0
H581 H 0.47116 0.81641 0.67837 0.0
H582 H 0.52313 0.83617 0.68796 0.0
H583 H 0.48897 0.78728 0.70914 0.0
H584 H 0.64045 0.85849 0.75728 0.0
H585 H 0.55616 0.7392 0.799 0.0
H586 H 0.58946 0.90349 0.79882 0.0
H587 H 0.57502 0.89219 0.73477 0.0
H588 H 0.6252 0.90859 0.75221 0.0
H589 H 0.48602 0.75649 0.85042 0.0
H590 H 0.4896 0.71906 0.81516 0.0
H591 H 0.471 0.74825 0.78639 0.0
C592 C 0.26636 0.44159 0.77794 0.0
C593 C 0.23645 0.45127 0.77312 0.0
C594 C 0.30603 0.4707 0.78374 0.0
C595 C 0.31683 0.51106 0.78441 0.0
C596 C 0.287 0.52134 0.77911 0.0
C597 C 0.24717 0.49136 0.77373 0.0
C598 C 0.33646 0.45803 0.7895 0.0
C599 C 0.29717 0.56398 0.77917 0.0
C600 C 0.4172 0.57701 0.84432 0.0
C601 C 0.44258 0.58873 0.80252 0.0
C602 C 0.376 0.5536 0.83886 0.0
C603 C 0.3595 0.54185 0.79039 0.0
C604 C 0.38487 0.55553 0.74795 0.0
C605 C 0.42593 0.5785 0.75452 0.0
C606 C 0.35034 0.53952 0.88525 0.0
C607 C 0.36881 0.54431 0.69555 0.0
H608 H 0.25884 0.4109 0.77772 0.0
H609 H 0.22448 0.49932 0.7702 0.0
H610 H 0.35857 0.47082 0.75877 0.0
H611 H 0.35239 0.46929 0.82536 0.0
H612 H 0.32323 0.42542 0.78896 0.0
H613 H 0.2708 0.56723 0.77431 0.0
H614 H 0.31161 0.5781 0.81495 0.0
H615 H 0.3185 0.58029 0.74854 0.0
H616 H 0.42966 0.58455 0.88156 0.0
H617 H 0.44517 0.58795 0.72191 0.0
H618 H 0.33838 0.50731 0.89008 0.0
H619 H 0.3249 0.54434 0.88139 0.0
H620 H 0.36683 0.55473 0.91959 0.0
H621 H 0.35774 0.51239 0.68963 0.0
H622 H 0.39152 0.56124 0.66647 0.0
H623 H 0.34362 0.54937 0.69029 0.0
C624 C 0.2433 0.12795 0.23661 0.0
C625 C 0.25135 0.10971 0.27647 0.0
C626 C 0.21753 0.14285 0.24255 0.0
C627 C 0.19983 0.14026 0.28992 0.0
C628 C 0.20605 0.11978 0.32959 0.0
C629 C 0.23152 0.10443 0.32226 0.0
C630 C 0.21116 0.16352 0.1988 0.0
C631 C 0.18808 0.11652 0.38078 0.0
C632 C 0.17977 0.2248 0.3133 0.0
C633 C 0.13937 0.20736 0.30298 0.0
C634 C 0.19922 0.20277 0.31166 0.0
C635 C 0.1781 0.16225 0.29859 0.0
C636 C 0.13712 0.14407 0.28972 0.0
C637 C 0.11825 0.16667 0.2924 0.0
C638 C 0.24286 0.22336 0.32203 0.0
C639 C 0.11343 0.10108 0.2754 0.0
H640 H 0.25855 0.13206 0.20112 0.0
H641 H 0.23803 0.09082 0.35339 0.0
H642 H 0.17928 0.15254 0.19369 0.0
H643 H 0.22558 0.19565 0.20641 0.0
H644 H 0.22344 0.15924 0.16325 0.0
H645 H 0.19145 0.09553 0.40551 0.0
H646 H 0.20268 0.14598 0.39883 0.0
H647 H 0.15632 0.10683 0.37771 0.0
H648 H 0.19672 0.25614 0.32095 0.0
H649 H 0.08689 0.15242 0.28551 0.0
H650 H 0.25909 0.22501 0.28706 0.0
H651 H 0.24936 0.20635 0.3499 0.0
H652 H 0.25426 0.25381 0.33634 0.0
H653 H 0.12309 0.0968 0.23789 0.0
H654 H 0.08133 0.0904 0.27413 0.0
H655 H 0.11862 0.08254 0.30231 0.0
C656 C 0.93154 0.79878 0.24334 0.0
C657 C 0.90361 0.79771 0.27748 0.0
C658 C 0.97209 0.82475 0.24965 0.0
C659 C 0.98548 0.85045 0.2914 0.0
C660 C 0.95733 0.85113 0.32454 0.0
C661 C 0.91672 0.82483 0.31712 0.0
C662 C 1.00071 0.82321 0.21285 0.0
C663 C 0.97015 0.8781 0.36939 0.0
C664 C 0.08891 0.87752 0.33366 0.0
C665 C 0.11248 0.91475 0.3113 0.0
C666 C 0.04756 0.85723 0.3294 0.0
C667 C 1.02889 0.8742 0.30176 0.0
C668 C 0.05228 0.9123 0.28051 0.0
C669 C 0.09359 0.93208 0.28565 0.0
C670 C 1.02392 0.81682 0.353 0.0
C671 C 0.0338 0.93165 0.25083 0.0
H672 H 0.92176 0.77814 0.21238 0.0
H673 H 0.89545 0.82409 0.3439 0.0
H674 H 1.02177 0.85328 0.19876 0.0
H675 H 1.01811 0.81181 0.23197 0.0
H676 H 0.9856 0.80391 0.1803 0.0
H677 H 0.945 0.87872 0.38789 0.0
H678 H 0.98411 0.86784 0.39712 0.0
H679 H 0.99247 0.90861 0.35824 0.0
H680 H 0.10284 0.86345 0.35314 0.0
H681 H 0.11114 0.96114 0.2691 0.0
H682 H 1.01026 0.79424 0.3232 0.0
H683 H 0.9997 0.81532 0.37636 0.0
H684 H 0.0423 0.8091 0.37676 0.0
H685 H 1.02097 0.91478 0.2159 0.0
H686 H 0.05545 0.96267 0.24055 0.0
H687 H 1.0094 0.9313 0.27254 0.0
C688 C 0.92291 0.12284 0.23894 0.0
C689 C 0.94501 0.15142 0.27499 0.0
C690 C 0.90929 0.0826 0.24748 0.0
C691 C 0.91739 0.07027 0.29366 0.0
C692 C 0.94187 0.09926 0.32897 0.0
C693 C 0.95562 0.13959 0.31908 0.0
C694 C 0.88408 0.05306 0.20821 0.0
C695 C 0.95129 0.08755 0.37864 0.0
C696 C 0.83691 0.96728 0.33302 0.0
C697 C 0.85276 0.94357 0.31829 0.0
C698 C 0.85845 1.00861 0.32753 0.0
C699 C 0.89686 0.02709 0.30632 0.0
C700 C 0.91366 1.00359 0.29303 0.0
C701 C 0.89154 0.96227 0.29929 0.0
C702 C 0.83936 0.0324 0.34255 0.0
C703 C 0.95446 0.02192 0.27039 0.0
H704 H 0.91479 0.13184 0.20466 0.0
H705 H 0.97237 0.16149 0.34729 0.0
H706 H 0.8947 0.03206 0.20057 0.0
H707 H 0.85332 0.03561 0.22223 0.0
H708 H 0.88394 0.06753 0.17241 0.0
H709 H 0.97508 0.11328 0.39861 0.0
H710 H 0.92452 0.07418 0.40275 0.0
H711 H 0.96029 0.06503 0.37337 0.0
H712 H 0.80697 0.95345 0.34721 0.0
H713 H 0.90456 0.94453 0.2887 0.0
H714 H 0.83385 0.04534 0.30863 0.0
H715 H 0.85929 0.05723 0.36711 0.0
H716 H 0.81091 1.01423 0.36258 0.0
H717 H 0.95438 0.03361 0.2325 0.0
H718 H 0.96495 1.00037 0.26697 0.0
H719 H 0.97574 0.04719 0.29338 0.0
C720 C 0.22232 0.15794 0.72326 0.0
C721 C 0.22317 0.1844 0.75939 0.0
C722 C 0.23909 0.13419 0.73273 0.0
C723 C 0.25702 0.13673 0.77962 0.0
C724 C 0.25927 0.16436 0.81556 0.0
C725 C 0.2423 0.18783 0.80505 0.0
C726 C 0.23597 0.10503 0.69333 0.0
C727 C 0.27836 0.1681 0.86579 0.0
C728 C 0.24631 0.03874 0.81633 0.0
C729 C 0.28261 0.04315 0.80145 0.0
C730 C 0.23887 0.07007 0.81314 0.0
C731 C 0.26816 0.10664 0.79312 0.0
C732 C 0.30589 0.11212 0.78086 0.0
C733 C 0.31279 0.08015 0.78545 0.0
C734 C 0.19837 0.06281 0.82722 0.0
C735 C 0.33786 0.15062 0.75926 0.0
H736 H 0.20748 0.15491 0.688 0.0
H737 H 0.24395 0.20887 0.83274 0.0
H738 H 0.26517 0.10779 0.68639 0.0
H739 H 0.21587 0.07451 0.70686 0.0
H740 H 0.22454 0.10928 0.65724 0.0
H741 H 0.28155 0.19379 0.88741 0.0
H742 H 0.26028 0.14092 0.88824 0.0
H743 H 0.30787 0.17115 0.86073 0.0
H744 H 0.22268 1.00986 0.82772 0.0
H745 H 0.34058 0.08328 0.77293 0.0
H746 H 0.18235 0.06225 0.79278 0.0
H747 H 0.20061 0.08695 0.85127 0.0
H748 H 0.18063 0.03433 0.84744 0.0
H749 H 0.33128 0.1528 0.71936 0.0
H750 H 0.3672 0.15283 0.7611 0.0
H751 H 0.33914 0.17609 0.77928 0.0
C752 C 0.97572 0.7834 0.77765 0.0
C753 C 1.00171 0.82369 0.78641 0.0
C754 C 0.93485 0.76676 0.78426 0.0
C755 C 0.91943 0.79105 0.7994 0.0
C756 C 0.94571 0.83118 0.81129 0.0
C757 C 0.98653 0.84697 0.80487 0.0
C758 C 0.90803 0.72371 0.77224 0.0
C759 C 0.93057 0.85814 0.82762 0.0
C760 C 0.82335 0.77446 0.74547 0.0
C761 C 0.79785 0.7607 0.78703 0.0
C762 C 0.86217 0.78222 0.74851 0.0
C763 C 0.87639 0.77665 0.79467 0.0
C764 C 0.8501 0.76034 0.83613 0.0
C765 C 0.81093 0.75246 0.83179 0.0
C766 C 0.88865 0.79895 0.70297 0.0
C767 C 0.86381 0.75358 0.88593 0.0
H768 H 0.98734 0.765 0.76444 0.0
H769 H 1.00641 0.87807 0.8118 0.0
H770 H 0.88525 0.70921 0.80195 0.0
H771 H 0.89252 0.72111 0.73655 0.0
H772 H 0.92451 0.70758 0.76826 0.0
H773 H 0.95461 0.88722 0.84062 0.0
H774 H 0.91552 0.86318 0.79573 0.0
H775 H 0.90861 0.84424 0.85833 0.0
H776 H 0.81354 0.78125 0.71091 0.0
H777 H 0.79153 0.74244 0.86426 0.0
H778 H 0.90375 0.78196 0.69495 0.0
H779 H 0.91173 0.82993 0.71036 0.0
H780 H 0.87218 0.79855 0.66898 0.0
H781 H 0.88468 0.74246 0.88085 0.0
H782 H 0.83866 0.73228 0.90959 0.0
H783 H 0.87943 0.78198 0.90637 0.0
C784 C 0.99383 0.22876 0.73265 0.0
C785 C 1.00294 0.25614 0.7714 0.0
C786 C 0.9625 0.19006 0.73689 0.0
C787 C 0.93905 0.17826 0.78092 0.0
C788 C 0.94586 0.20659 0.81853 0.0
C789 C 0.97792 0.24543 0.81337 0.0
C790 C 0.9562 0.16114 0.69547 0.0
C791 C 0.92038 0.19538 0.865 0.0
C792 C 0.84911 0.07762 0.76211 0.0
C793 C 0.86278 0.05263 0.77907 0.0
C794 C 0.87215 0.11881 0.76673 0.0
C795 C 0.91003 0.13549 0.78826 0.0
C796 C 0.92281 0.11028 0.80859 0.0
C797 C 0.89895 0.06913 0.80391 0.0
C798 C 0.85702 0.1444 0.74526 0.0
C799 C 0.96305 0.12681 0.83173 0.0
H800 H 1.01256 0.23699 0.69969 0.0
H801 H 0.98467 0.26654 0.84332 0.0
H802 H 0.9615 0.13759 0.70996 0.0
H803 H 0.92535 0.14673 0.68222 0.0
H804 H 0.97609 0.17546 0.66288 0.0
H805 H 0.92797 0.22127 0.88926 0.0
H806 H 0.88891 0.18154 0.85448 0.0
H807 H 0.92375 0.17316 0.88696 0.0
H808 H 0.82071 0.06496 0.74392 0.0
H809 H 0.90962 0.05 0.81722 0.0
H810 H 0.87065 0.15558 0.70787 0.0
H811 H 0.86501 0.17036 0.76944 0.0
H812 H 0.82453 0.12768 0.74067 0.0
H813 H 0.98592 0.14016 0.80191 0.0
H814 H 0.96661 0.10372 0.85131 0.0
H815 H 0.96844 0.15046 0.85882 0.0
loop_
_geom_bond_atom_site_label_1
_geom_bond_atom_site_label_2
_geom_bond_distance
_geom_bond_site_symmetry_2
_ccdc_geom_bond_type
Tb0 C2 2.809 1_545 S
Tb0 O20 2.484 . S
Tb0 O21 2.440 1_545 S
Tb0 O22 2.658 . S
Tb0 O23 2.409 . S
Tb0 O24 2.378 . S
Tb0 O28 2.325 . S
Tb0 O31 2.341 . S
Tb1 C11 2.809 . S
Tb1 O22 2.325 . S
Tb1 O25 2.341 . S
Tb1 O26 2.484 . S
Tb1 O27 2.440 . S
Tb1 O28 2.658 . S
Tb1 O29 2.409 . S
Tb1 O30 2.378 . S
C2 Tb0 2.809 1_565 S
C2 C3 1.514 . S
C2 O20 1.248 1_565 S
C2 O21 1.266 . S
C3 C2 1.514 . S
C3 C4 1.359 . S
C3 C8 1.348 . S
C4 C3 1.359 . S
C4 C5 1.380 . S
C4 H32 0.929 . S
C5 C4 1.380 . S
C5 C6 1.347 . S
C5 H33 0.931 . S
C6 C5 1.347 . S
C6 C7 1.369 . S
C7 C6 1.369 . S
C7 C8 1.408 . S
C7 H34 0.930 . S
C8 C3 1.348 . S
C8 C7 1.408 . S
C8 H35 0.930 . S
C9 O22 1.281 . S
C9 O23 1.254 . S
C10 O24 1.236 . S
C10 O25 1.266 . S
C11 Tb1 2.809 . S
C11 C12 1.514 . S
C11 O26 1.248 . S
C11 O27 1.266 . S
C12 C11 1.514 . S
C12 C13 1.359 . S
C12 C17 1.348 . S
C13 C12 1.359 . S
C13 C14 1.380 . S
C13 H36 0.929 . S
C14 C13 1.380 . S
C14 C15 1.347 . S
C14 H37 0.931 . S
C15 C14 1.347 . S
C15 C16 1.369 . S
C16 C15 1.369 . S
C16 C17 1.408 . S
C16 H38 0.930 . S
C17 C12 1.348 . S
C17 C16 1.408 . S
C17 H39 0.930 . S
C18 O28 1.281 . S
C18 O29 1.254 . S
C19 O30 1.236 . S
C19 O31 1.266 . S
O20 Tb0 2.484 . S
O20 C2 1.248 1_545 S
O21 Tb0 2.440 1_565 S
O21 C2 1.266 . S
O22 Tb0 2.658 . S
O22 Tb1 2.325 . S
O22 C9 1.281 . S
O23 Tb0 2.409 . S
O23 C9 1.254 . S
O24 Tb0 2.378 . S
O24 C10 1.236 . S
O25 Tb1 2.341 . S
O25 C10 1.266 . S
O26 Tb1 2.484 . S
O26 C11 1.248 . S
O27 Tb1 2.440 . S
O27 C11 1.266 . S
O28 Tb0 2.325 . S
O28 Tb1 2.658 . S
O28 C18 1.281 . S
O29 Tb1 2.409 . S
O29 C18 1.254 . S
O30 Tb1 2.378 . S
O30 C19 1.236 . S
O31 Tb0 2.341 . S
O31 C19 1.266 . S
H32 C4 0.929 . S
H33 C5 0.931 . S
H34 C7 0.930 . S
H35 C8 0.930 . S
H36 C13 0.929 . S
H37 C14 0.931 . S
H38 C16 0.930 . S
H39 C17 0.930 . S
Tb40 C42 2.809 . S
Tb40 O60 2.484 . S
Tb40 O61 2.440 . S
Tb40 O62 2.658 . S
Tb40 O63 2.409 . S
Tb40 O64 2.378 . S
Tb40 O68 2.325 . S
Tb40 O71 2.341 . S
Tb41 C51 2.809 . S
Tb41 O62 2.325 . S
Tb41 O65 2.341 . S
Tb41 O66 2.484 . S
Tb41 O67 2.440 . S
Tb41 O68 2.658 . S
Tb41 O69 2.409 . S
Tb41 O70 2.378 . S
C42 Tb40 2.809 . S
C42 C43 1.514 . S
C42 O60 1.248 . S
C42 O61 1.266 . S
C43 C42 1.514 . S
C43 C44 1.359 . S
C43 C48 1.348 . S
C44 C43 1.359 . S
C44 C45 1.380 . S
C44 H72 0.929 . S
C45 C44 1.380 . S
C45 C46 1.347 . S
C45 H73 0.931 . S
C46 C45 1.347 . S
C46 C47 1.369 . S
C47 C46 1.369 . S
C47 C48 1.408 . S
C47 H74 0.930 . S
C48 C43 1.348 . S
C48 C47 1.408 . S
C48 H75 0.930 . S
C49 O62 1.281 . S
C49 O63 1.254 . S
C50 O64 1.236 . S
C50 O65 1.266 . S
C51 Tb41 2.809 . S
C51 C52 1.514 . S
C51 O66 1.248 . S
C51 O67 1.266 . S
C52 C51 1.514 . S
C52 C53 1.359 . S
C52 C57 1.348 . S
C53 C52 1.359 . S
C53 C54 1.380 . S
C53 H76 0.929 . S
C54 C53 1.380 . S
C54 C55 1.347 . S
C54 H77 0.931 . S
C55 C54 1.347 . S
C55 C56 1.369 . S
C56 C55 1.369 . S
C56 C57 1.408 . S
C56 H78 0.930 . S
C57 C52 1.348 . S
C57 C56 1.408 . S
C57 H79 0.930 . S
C58 O68 1.281 . S
C58 O69 1.254 . S
C59 O70 1.236 . S
C59 O71 1.266 . S
O60 Tb40 2.484 . S
O60 C42 1.248 . S
O61 Tb40 2.440 . S
O61 C42 1.266 . S
O62 Tb40 2.658 . S
O62 Tb41 2.325 . S
O62 C49 1.281 . S
O63 Tb40 2.409 . S
O63 C49 1.254 . S
O64 Tb40 2.378 . S
O64 C50 1.236 . S
O65 Tb41 2.341 . S
O65 C50 1.266 . S
O66 Tb41 2.484 . S
O66 C51 1.248 . S
O67 Tb41 2.440 . S
O67 C51 1.266 . S
O68 Tb40 2.325 . S
O68 Tb41 2.658 . S
O68 C58 1.281 . S
O69 Tb41 2.409 . S
O69 C58 1.254 . S
O70 Tb41 2.378 . S
O70 C59 1.236 . S
O71 Tb40 2.341 . S
O71 C59 1.266 . S
H72 C44 0.929 . S
H73 C45 0.931 . S
H74 C47 0.930 . S
H75 C48 0.930 . S
H76 C53 0.929 . S
H77 C54 0.931 . S
H78 C56 0.930 . S
H79 C57 0.930 . S
Tb80 C82 2.809 1_655 S
Tb80 O100 2.484 . S
Tb80 O101 2.440 1_655 S
Tb80 O102 2.658 . S
Tb80 O103 2.409 . S
Tb80 O104 2.378 . S
Tb80 O108 2.325 . S
Tb80 O111 2.341 . S
Tb81 C91 2.809 . S
Tb81 O102 2.325 . S
Tb81 O105 2.341 . S
Tb81 O106 2.484 . S
Tb81 O107 2.440 . S
Tb81 O108 2.658 . S
Tb81 O109 2.409 . S
Tb81 O110 2.378 . S
C82 Tb80 2.809 1_455 S
C82 C83 1.514 . S
C82 O100 1.248 1_455 S
C82 O101 1.266 . S
C83 C82 1.514 . S
C83 C84 1.359 . S
C83 C88 1.348 . S
C84 C83 1.359 . S
C84 C85 1.380 . S
C84 H112 0.929 . S
C85 C84 1.380 . S
C85 C86 1.347 . S
C85 H113 0.931 . S
C86 C85 1.347 . S
C86 C87 1.369 . S
C87 C86 1.369 . S
C87 C88 1.408 . S
C87 H114 0.930 . S
C88 C83 1.348 . S
C88 C87 1.408 . S
C88 H115 0.930 . S
C89 O102 1.281 . S
C89 O103 1.254 . S
C90 O104 1.236 . S
C90 O105 1.266 . S
C91 Tb81 2.809 . S
C91 C92 1.514 . S
C91 O106 1.248 . S
C91 O107 1.266 . S
C92 C91 1.514 . S
C92 C93 1.359 . S
C92 C97 1.348 . S
C93 C92 1.359 . S
C93 C94 1.380 . S
C93 H116 0.929 . S
C94 C93 1.380 . S
C94 C95 1.347 . S
C94 H117 0.931 . S
C95 C94 1.347 . S
C95 C96 1.369 . S
C96 C95 1.369 . S
C96 C97 1.408 . S
C96 H118 0.930 . S
C97 C92 1.348 . S
C97 C96 1.408 . S
C97 H119 0.930 . S
C98 O108 1.281 . S
C98 O109 1.254 . S
C99 O110 1.236 . S
C99 O111 1.266 . S
O100 Tb80 2.484 . S
O100 C82 1.248 1_655 S
O101 Tb80 2.440 1_455 S
O101 C82 1.266 . S
O102 Tb80 2.658 . S
O102 Tb81 2.325 . S
O102 C89 1.281 . S
O103 Tb80 2.409 . S
O103 C89 1.254 . S
O104 Tb80 2.378 . S
O104 C90 1.236 . S
O105 Tb81 2.341 . S
O105 C90 1.266 . S
O106 Tb81 2.484 . S
O106 C91 1.248 . S
O107 Tb81 2.440 . S
O107 C91 1.266 . S
O108 Tb80 2.325 . S
O108 Tb81 2.658 . S
O108 C98 1.281 . S
O109 Tb81 2.409 . S
O109 C98 1.254 . S
O110 Tb81 2.378 . S
O110 C99 1.236 . S
O111 Tb80 2.341 . S
O111 C99 1.266 . S
H112 C84 0.929 . S
H113 C85 0.931 . S
H114 C87 0.930 . S
H115 C88 0.930 . S
H116 C93 0.929 . S
H117 C94 0.931 . S
H118 C96 0.930 . S
H119 C97 0.930 . S
Tb120 C122 2.809 . S
Tb120 O140 2.484 . S
Tb120 O141 2.440 . S
Tb120 O142 2.658 . S
Tb120 O143 2.409 . S
Tb120 O144 2.378 . S
Tb120 O148 2.325 . S
Tb120 O151 2.341 . S
Tb121 C131 2.809 . S
Tb121 O142 2.325 . S
Tb121 O145 2.341 . S
Tb121 O146 2.484 . S
Tb121 O147 2.440 . S
Tb121 O148 2.658 . S
Tb121 O149 2.409 . S
Tb121 O150 2.378 . S
C122 Tb120 2.809 . S
C122 C123 1.514 . S
C122 O140 1.248 . S
C122 O141 1.266 . S
C123 C122 1.514 . S
C123 C124 1.359 . S
C123 C128 1.348 . S
C124 C123 1.359 . S
C124 C125 1.380 . S
C124 H152 0.929 . S
C125 C124 1.380 . S
C125 C126 1.347 . S
C125 H153 0.931 . S
C126 C125 1.347 . S
C126 C127 1.369 . S
C127 C126 1.369 . S
C127 C128 1.408 . S
C127 H154 0.930 . S
C128 C123 1.348 . S
C128 C127 1.408 . S
C128 H155 0.930 . S
C129 O142 1.281 . S
C129 O143 1.254 . S
C130 O144 1.236 . S
C130 O145 1.266 . S
C131 Tb121 2.809 . S
C131 C132 1.514 . S
C131 O146 1.248 . S
C131 O147 1.266 . S
C132 C131 1.514 . S
C132 C133 1.359 . S
C132 C137 1.348 . S
C133 C132 1.359 . S
C133 C134 1.380 . S
C133 H156 0.929 . S
C134 C133 1.380 . S
C134 C135 1.347 . S
C134 H157 0.931 . S
C135 C134 1.347 . S
C135 C136 1.369 . S
C136 C135 1.369 . S
C136 C137 1.408 . S
C136 H158 0.930 . S
C137 C132 1.348 . S
C137 C136 1.408 . S
C137 H159 0.930 . S
C138 O148 1.281 . S
C138 O149 1.254 . S
C139 O150 1.236 . S
C139 O151 1.266 . S
O140 Tb120 2.484 . S
O140 C122 1.248 . S
O141 Tb120 2.440 . S
O141 C122 1.266 . S
O142 Tb120 2.658 . S
O142 Tb121 2.325 . S
O142 C129 1.281 . S
O143 Tb120 2.409 . S
O143 C129 1.254 . S
O144 Tb120 2.378 . S
O144 C130 1.236 . S
O145 Tb121 2.341 . S
O145 C130 1.266 . S
O146 Tb121 2.484 . S
O146 C131 1.248 . S
O147 Tb121 2.440 . S
O147 C131 1.266 . S
O148 Tb120 2.325 . S
O148 Tb121 2.658 . S
O148 C138 1.281 . S
O149 Tb121 2.409 . S
O149 C138 1.254 . S
O150 Tb121 2.378 . S
O150 C139 1.236 . S
O151 Tb120 2.341 . S
O151 C139 1.266 . S
H152 C124 0.929 . S
H153 C125 0.931 . S
H154 C127 0.930 . S
H155 C128 0.930 . S
H156 C133 0.929 . S
H157 C134 0.931 . S
H158 C136 0.930 . S
H159 C137 0.930 . S
Tb160 C162 2.809 . S
Tb160 O180 2.484 . S
Tb160 O181 2.440 . S
Tb160 O182 2.658 . S
Tb160 O183 2.409 . S
Tb160 O184 2.378 . S
Tb160 O188 2.325 . S
Tb160 O191 2.341 . S
Tb161 C171 2.809 . S
Tb161 O182 2.325 . S
Tb161 O185 2.341 . S
Tb161 O186 2.484 . S
Tb161 O187 2.440 . S
Tb161 O188 2.658 . S
Tb161 O189 2.409 . S
Tb161 O190 2.378 . S
C162 Tb160 2.809 . S
C162 C163 1.514 . S
C162 O180 1.248 . S
C162 O181 1.266 . S
C163 C162 1.514 . S
C163 C164 1.359 . S
C163 C168 1.348 . S
C164 C163 1.359 . S
C164 C165 1.380 . S
C164 H192 0.929 . S
C165 C164 1.380 . S
C165 C166 1.347 . S
C165 H193 0.931 . S
C166 C165 1.347 . S
C166 C167 1.369 . S
C167 C166 1.369 . S
C167 C168 1.408 . S
C167 H194 0.930 . S
C168 C163 1.348 . S
C168 C167 1.408 . S
C168 H195 0.930 . S
C169 O182 1.281 . S
C169 O183 1.254 . S
C170 O184 1.236 . S
C170 O185 1.266 . S
C171 Tb161 2.809 . S
C171 C172 1.514 . S
C171 O186 1.248 . S
C171 O187 1.266 . S
C172 C171 1.514 . S
C172 C173 1.359 . S
C172 C177 1.348 . S
C173 C172 1.359 . S
C173 C174 1.380 . S
C173 H196 0.929 . S
C174 C173 1.380 . S
C174 C175 1.347 . S
C174 H197 0.931 . S
C175 C174 1.347 . S
C175 C176 1.369 . S
C176 C175 1.369 . S
C176 C177 1.408 . S
C176 H198 0.930 . S
C177 C172 1.348 . S
C177 C176 1.408 . S
C177 H199 0.930 . S
C178 O188 1.281 . S
C178 O189 1.254 . S
C179 O190 1.236 . S
C179 O191 1.266 . S
O180 Tb160 2.484 . S
O180 C162 1.248 . S
O181 Tb160 2.440 . S
O181 C162 1.266 . S
O182 Tb160 2.658 . S
O182 Tb161 2.325 . S
O182 C169 1.281 . S
O183 Tb160 2.409 . S
O183 C169 1.254 . S
O184 Tb160 2.378 . S
O184 C170 1.236 . S
O185 Tb161 2.341 . S
O185 C170 1.266 . S
O186 Tb161 2.484 . S
O186 C171 1.248 . S
O187 Tb161 2.440 . S
O187 C171 1.266 . S
O188 Tb160 2.325 . S
O188 Tb161 2.658 . S
O188 C178 1.281 . S
O189 Tb161 2.409 . S
O189 C178 1.254 . S
O190 Tb161 2.378 . S
O190 C179 1.236 . S
O191 Tb160 2.341 . S
O191 C179 1.266 . S
H192 C164 0.929 . S
H193 C165 0.931 . S
H194 C167 0.930 . S
H195 C168 0.930 . S
H196 C173 0.929 . S
H197 C174 0.931 . S
H198 C176 0.930 . S
H199 C177 0.930 . S
Tb200 C202 2.809 . S
Tb200 O220 2.484 . S
Tb200 O221 2.440 . S
Tb200 O222 2.658 . S
Tb200 O223 2.409 . S
Tb200 O224 2.378 . S
Tb200 O228 2.325 . S
Tb200 O231 2.341 . S
Tb201 C211 2.809 . S
Tb201 O222 2.325 . S
Tb201 O225 2.341 . S
Tb201 O226 2.484 . S
Tb201 O227 2.440 . S
Tb201 O228 2.658 . S
Tb201 O229 2.409 . S
Tb201 O230 2.378 . S
C202 Tb200 2.809 . S
C202 C203 1.514 . S
C202 O220 1.248 . S
C202 O221 1.266 . S
C203 C202 1.514 . S
C203 C204 1.359 . S
C203 C208 1.348 . S
C204 C203 1.359 . S
C204 C205 1.380 . S
C204 H232 0.929 . S
C205 C204 1.380 . S
C205 C206 1.347 . S
C205 H233 0.931 . S
C206 C205 1.347 . S
C206 C207 1.369 . S
C207 C206 1.369 . S
C207 C208 1.408 . S
C207 H234 0.930 . S
C208 C203 1.348 . S
C208 C207 1.408 . S
C208 H235 0.930 . S
C209 O222 1.281 . S
C209 O223 1.254 . S
C210 O224 1.236 . S
C210 O225 1.266 . S
C211 Tb201 2.809 . S
C211 C212 1.514 . S
C211 O226 1.248 . S
C211 O227 1.266 . S
C212 C211 1.514 . S
C212 C213 1.359 . S
C212 C217 1.348 . S
C213 C212 1.359 . S
C213 C214 1.380 . S
C213 H236 0.929 . S
C214 C213 1.380 . S
C214 C215 1.347 . S
C214 H237 0.931 . S
C215 C214 1.347 . S
C215 C216 1.369 . S
C216 C215 1.369 . S
C216 C217 1.408 . S
C216 H238 0.930 . S
C217 C212 1.348 . S
C217 C216 1.408 . S
C217 H239 0.930 . S
C218 O228 1.281 . S
C218 O229 1.254 . S
C219 O230 1.236 . S
C219 O231 1.266 . S
O220 Tb200 2.484 . S
O220 C202 1.248 . S
O221 Tb200 2.440 . S
O221 C202 1.266 . S
O222 Tb200 2.658 . S
O222 Tb201 2.325 . S
O222 C209 1.281 . S
O223 Tb200 2.409 . S
O223 C209 1.254 . S
O224 Tb200 2.378 . S
O224 C210 1.236 . S
O225 Tb201 2.341 . S
O225 C210 1.266 . S
O226 Tb201 2.484 . S
O226 C211 1.248 . S
O227 Tb201 2.440 . S
O227 C211 1.266 . S
O228 Tb200 2.325 . S
O228 Tb201 2.658 . S
O228 C218 1.281 . S
O229 Tb201 2.409 . S
O229 C218 1.254 . S
O230 Tb201 2.378 . S
O230 C219 1.236 . S
O231 Tb200 2.341 . S
O231 C219 1.266 . S
H232 C204 0.929 . S
H233 C205 0.931 . S
H234 C207 0.930 . S
H235 C208 0.930 . S
H236 C213 0.929 . S
H237 C214 0.931 . S
H238 C216 0.930 . S
H239 C217 0.930 . S
C240 C241 1.391 . S
C240 C242 1.394 . S
C240 H256 0.931 . S
C241 C240 1.391 . S
C241 C245 1.376 . S
C242 C240 1.394 . S
C242 C243 1.369 . S
C242 C246 1.531 1_565 S
C243 C242 1.369 . S
C243 C244 1.410 . S
C243 C251 1.503 1_566 S
C244 C243 1.410 . S
C244 C245 1.392 . S
C244 C247 1.511 1_556 S
C245 C241 1.376 . S
C245 C244 1.392 . S
C245 H257 0.929 . S
C246 C242 1.531 1_545 S
C246 H258 0.960 . S
C246 H259 0.962 . S
C246 H260 0.960 . S
C247 C244 1.511 1_554 S
C247 H261 0.961 . S
C247 H262 0.961 . S
C247 H263 0.961 . S
C248 C249 1.370 . S
C248 C250 1.363 . S
C248 H264 0.931 . S
C249 C248 1.370 . S
C249 C253 1.408 . S
C250 C248 1.363 . S
C250 C251 1.370 . S
C250 C254 1.524 1_554 S
C251 C243 1.503 1_544 S
C251 C250 1.370 . S
C251 C252 1.403 . S
C252 C251 1.403 . S
C252 C253 1.404 . S
C252 C255 1.539 1_545 S
C253 C249 1.408 . S
C253 C252 1.404 . S
C253 H265 0.930 . S
C254 C250 1.524 1_556 S
C254 H266 0.956 . S
C254 H267 0.961 . S
C254 H268 0.961 . S
C255 C252 1.539 1_565 S
C255 H269 0.958 . S
C255 H270 0.961 . S
C255 H271 0.960 . S
H256 C240 0.931 . S
H257 C245 0.929 . S
H258 C246 0.960 . S
H259 C246 0.962 . S
H260 C246 0.960 . S
H261 C247 0.961 . S
H262 C247 0.961 . S
H263 C247 0.961 . S
H264 C248 0.931 . S
H265 C253 0.930 . S
H266 C254 0.956 . S
H267 C254 0.961 . S
H268 C254 0.961 . S
H269 C255 0.958 . S
H270 C255 0.961 . S
H271 C255 0.960 . S
C272 C273 1.391 . S
C272 C274 1.394 . S
C272 H288 0.931 . S
C273 C272 1.391 . S
C273 C277 1.376 . S
C274 C272 1.394 . S
C274 C275 1.369 . S
C274 C278 1.531 . S
C275 C274 1.369 . S
C275 C276 1.410 . S
C275 C283 1.503 . S
C276 C275 1.410 . S
C276 C277 1.392 . S
C276 C279 1.511 . S
C277 C273 1.376 . S
C277 C276 1.392 . S
C277 H289 0.929 . S
C278 C274 1.531 . S
C278 H290 0.960 . S
C278 H291 0.962 . S
C278 H292 0.960 . S
C279 C276 1.511 . S
C279 H293 0.961 . S
C279 H294 0.961 . S
C279 H295 0.961 . S
C280 C281 1.370 . S
C280 C282 1.363 . S
C280 H296 0.931 . S
C281 C280 1.370 . S
C281 C285 1.408 . S
C282 C280 1.363 . S
C282 C283 1.370 . S
C282 C286 1.524 . S
C283 C275 1.503 . S
C283 C282 1.370 . S
C283 C284 1.403 . S
C284 C283 1.403 . S
C284 C285 1.404 . S
C284 C287 1.539 . S
C285 C281 1.408 . S
C285 C284 1.404 . S
C285 H297 0.930 . S
C286 C282 1.524 . S
C286 H298 0.956 . S
C286 H299 0.961 . S
C286 H300 0.961 . S
C287 C284 1.539 . S
C287 H301 0.958 . S
C287 H302 0.961 . S
C287 H303 0.960 . S
H288 C272 0.931 . S
H289 C277 0.929 . S
H290 C278 0.960 . S
H291 C278 0.962 . S
H292 C278 0.960 . S
H293 C279 0.961 . S
H294 C279 0.961 . S
H295 C279 0.961 . S
H296 C280 0.931 . S
H297 C285 0.930 . S
H298 C286 0.956 . S
H299 C286 0.961 . S
H300 C286 0.961 . S
H301 C287 0.958 . S
H302 C287 0.961 . S
H303 C287 0.960 . S
C304 C305 1.391 . S
C304 C306 1.394 . S
C304 H320 0.931 . S
C305 C304 1.391 . S
C305 C309 1.376 . S
C306 C304 1.394 . S
C306 C307 1.369 . S
C306 C310 1.534 . S
C307 C306 1.369 . S
C307 C308 1.410 . S
C307 C315 1.503 1_654 S
C308 C307 1.410 . S
C308 C309 1.392 . S
C308 C311 1.511 1_655 S
C309 C305 1.376 . S
C309 C308 1.392 . S
C309 H321 0.929 . S
C310 C306 1.534 . S
C310 H322 0.958 1_554 S
C310 H323 0.957 1_554 S
C310 H324 0.964 . S
C311 C308 1.511 1_455 S
C311 H325 0.960 . S
C311 H326 0.961 . S
C311 H327 0.961 . S
C312 C313 1.370 . S
C312 C314 1.363 . S
C312 H328 0.931 . S
C313 C312 1.370 . S
C313 C317 1.408 . S
C314 C312 1.363 . S
C314 C315 1.370 . S
C314 C318 1.524 1_455 S
C315 C307 1.503 1_456 S
C315 C314 1.370 . S
C315 C316 1.403 . S
C316 C315 1.403 . S
C316 C317 1.404 . S
C316 C319 1.539 1_556 S
C317 C313 1.408 . S
C317 C316 1.404 . S
C317 H329 0.930 . S
C318 C314 1.524 1_655 S
C318 H330 0.956 . S
C318 H331 0.961 . S
C318 H332 0.961 . S
C319 C316 1.539 1_554 S
C319 H333 0.958 . S
C319 H334 0.961 . S
C319 H335 0.960 . S
H320 C304 0.931 . S
H321 C309 0.929 . S
H322 C310 0.958 1_556 S
H323 C310 0.957 1_556 S
H324 C310 0.964 . S
H325 C311 0.960 . S
H326 C311 0.961 . S
H327 C311 0.961 . S
H328 C312 0.931 . S
H329 C317 0.930 . S
H330 C318 0.956 . S
H331 C318 0.961 . S
H332 C318 0.961 . S
H333 C319 0.958 . S
H334 C319 0.961 . S
H335 C319 0.960 . S
C336 C337 1.391 . S
C336 C338 1.395 . S
C336 H352 0.931 . S
C337 C336 1.391 . S
C337 C341 1.376 . S
C338 C336 1.395 . S
C338 C339 1.369 . S
C338 C342 1.530 1_545 S
C339 C338 1.369 . S
C339 C340 1.410 . S
C339 C347 1.503 1_545 S
C340 C339 1.410 . S
C340 C341 1.392 . S
C340 C343 1.511 . S
C341 C337 1.376 . S
C341 C340 1.392 . S
C341 H353 0.929 . S
C342 C338 1.530 1_565 S
C342 H354 0.960 . S
C342 H355 0.962 . S
C342 H356 0.960 . S
C343 C340 1.511 . S
C343 H357 0.961 . S
C343 H358 0.961 . S
C343 H359 0.961 . S
C344 C345 1.370 . S
C344 C346 1.363 . S
C344 H360 0.931 . S
C345 C344 1.370 . S
C345 C349 1.408 . S
C346 C344 1.363 . S
C346 C347 1.370 . S
C346 C350 1.524 1_565 S
C347 C339 1.503 1_565 S
C347 C346 1.370 . S
C347 C348 1.403 . S
C348 C347 1.403 . S
C348 C349 1.404 . S
C348 C351 1.539 . S
C349 C345 1.408 . S
C349 C348 1.404 . S
C349 H361 0.930 . S
C350 C346 1.524 1_545 S
C350 H362 0.956 . S
C350 H363 0.961 . S
C350 H364 0.961 . S
C351 C348 1.539 . S
C351 H365 0.958 . S
C351 H366 0.961 . S
C351 H367 0.960 . S
H352 C336 0.931 . S
H353 C341 0.929 . S
H354 C342 0.960 . S
H355 C342 0.962 . S
H356 C342 0.960 . S
H357 C343 0.961 . S
H358 C343 0.961 . S
H359 C343 0.961 . S
H360 C344 0.931 . S
H361 C349 0.930 . S
H362 C350 0.956 . S
H363 C350 0.961 . S
H364 C350 0.961 . S
H365 C351 0.958 . S
H366 C351 0.961 . S
H367 C351 0.960 . S
C368 C369 1.391 . S
C368 C370 1.394 . S
C368 H384 0.931 . S
C369 C368 1.391 . S
C369 C373 1.376 . S
C370 C368 1.394 . S
C370 C371 1.369 . S
C370 C374 1.531 . S
C371 C370 1.369 . S
C371 C372 1.410 . S
C371 C379 1.503 1_556 S
C372 C371 1.410 . S
C372 C373 1.392 . S
C372 C375 1.511 1_556 S
C373 C369 1.376 . S
C373 C372 1.392 . S
C373 H385 0.929 . S
C374 C370 1.531 . S
C374 H386 0.960 . S
C374 H387 0.962 . S
C374 H388 0.960 . S
C375 C372 1.511 1_554 S
C375 H389 0.961 . S
C375 H390 0.961 . S
C375 H391 0.961 . S
C376 C377 1.370 . S
C376 C378 1.363 . S
C376 H392 0.931 . S
C377 C376 1.370 . S
C377 C381 1.408 . S
C378 C376 1.363 . S
C378 C379 1.370 . S
C378 C382 1.524 . S
C379 C371 1.503 1_554 S
C379 C378 1.370 . S
C379 C380 1.403 . S
C380 C379 1.403 . S
C380 C381 1.404 . S
C380 C383 1.539 1_554 S
C381 C377 1.408 . S
C381 C380 1.404 . S
C381 H393 0.930 . S
C382 C378 1.524 . S
C382 H394 0.956 . S
C382 H395 0.961 . S
C382 H396 0.961 . S
C383 C380 1.539 1_556 S
C383 H397 0.958 . S
C383 H398 0.961 1_556 S
C383 H399 0.960 . S
H384 C368 0.931 . S
H385 C373 0.929 . S
H386 C374 0.960 . S
H387 C374 0.962 . S
H388 C374 0.960 . S
H389 C375 0.961 . S
H390 C375 0.961 . S
H391 C375 0.961 . S
H392 C376 0.931 . S
H393 C381 0.930 . S
H394 C382 0.956 . S
H395 C382 0.961 . S
H396 C382 0.961 . S
H397 C383 0.958 . S
H398 C383 0.961 1_554 S
H399 C383 0.960 . S
C400 C401 1.391 . S
C400 C402 1.394 . S
C400 H416 0.931 . S
C401 C400 1.391 . S
C401 C405 1.376 . S
C402 C400 1.394 . S
C402 C403 1.369 . S
C402 C406 1.531 . S
C403 C402 1.369 . S
C403 C404 1.410 . S
C403 C411 1.503 1_655 S
C404 C403 1.410 . S
C404 C405 1.392 . S
C404 C407 1.511 1_655 S
C405 C401 1.376 . S
C405 C404 1.392 . S
C405 H417 0.929 . S
C406 C402 1.531 . S
C406 H418 0.960 . S
C406 H419 0.962 . S
C406 H420 0.960 . S
C407 C404 1.511 1_455 S
C407 H421 0.961 . S
C407 H422 0.961 . S
C407 H423 0.961 . S
C408 C409 1.370 . S
C408 C410 1.363 . S
C408 H424 0.931 . S
C409 C408 1.370 . S
C409 C413 1.408 . S
C410 C408 1.363 . S
C410 C411 1.370 . S
C410 C414 1.524 . S
C411 C403 1.503 1_455 S
C411 C410 1.370 . S
C411 C412 1.403 . S
C412 C411 1.403 . S
C412 C413 1.404 . S
C412 C415 1.539 1_455 S
C413 C409 1.408 . S
C413 C412 1.404 . S
C413 H425 0.930 . S
C414 C410 1.524 . S
C414 H426 0.956 . S
C414 H427 0.961 . S
C414 H428 0.961 . S
C415 C412 1.539 1_655 S
C415 H429 0.958 . S
C415 H430 0.968 . S
C415 H431 0.960 . S
H416 C400 0.931 . S
H417 C405 0.929 . S
H418 C406 0.960 . S
H419 C406 0.962 . S
H420 C406 0.960 . S
H421 C407 0.961 . S
H422 C407 0.961 . S
H423 C407 0.961 . S
H424 C408 0.931 . S
H425 C413 0.930 . S
H426 C414 0.956 . S
H427 C414 0.961 . S
H428 C414 0.961 . S
H429 C415 0.958 . S
H430 C415 0.968 . S
H431 C415 0.960 . S
C432 C433 1.391 . S
C432 C434 1.394 . S
C432 H448 0.931 . S
C433 C432 1.391 . S
C433 C437 1.376 . S
C434 C432 1.394 . S
C434 C435 1.369 . S
C434 C438 1.531 . S
C435 C434 1.369 . S
C435 C436 1.410 . S
C435 C443 1.503 . S
C436 C435 1.410 . S
C436 C437 1.392 . S
C436 C439 1.511 . S
C437 C433 1.376 . S
C437 C436 1.392 . S
C437 H449 0.929 . S
C438 C434 1.531 . S
C438 H450 0.960 . S
C438 H451 0.962 . S
C438 H452 0.960 . S
C439 C436 1.511 . S
C439 H453 0.961 . S
C439 H454 0.961 . S
C439 H455 0.961 . S
C440 C441 1.370 . S
C440 C442 1.363 . S
C440 H456 0.931 . S
C441 C440 1.370 . S
C441 C445 1.408 . S
C442 C440 1.363 . S
C442 C443 1.370 . S
C442 C446 1.524 . S
C443 C435 1.503 . S
C443 C442 1.370 . S
C443 C444 1.403 . S
C444 C443 1.403 . S
C444 C445 1.404 . S
C444 C447 1.539 . S
C445 C441 1.408 . S
C445 C444 1.404 . S
C445 H457 0.930 . S
C446 C442 1.524 . S
C446 H458 0.956 . S
C446 H459 0.961 . S
C446 H460 0.961 . S
C447 C444 1.539 . S
C447 H461 0.958 . S
C447 H462 0.961 . S
C447 H463 0.960 . S
H448 C432 0.931 . S
H449 C437 0.929 . S
H450 C438 0.960 . S
H451 C438 0.962 . S
H452 C438 0.960 . S
H453 C439 0.961 . S
H454 C439 0.961 . S
H455 C439 0.961 . S
H456 C440 0.931 . S
H457 C445 0.930 . S
H458 C446 0.956 . S
H459 C446 0.961 . S
H460 C446 0.961 . S
H461 C447 0.958 . S
H462 C447 0.961 . S
H463 C447 0.960 . S
C464 C465 1.391 . S
C464 C466 1.394 . S
C464 H480 0.931 . S
C465 C464 1.391 . S
C465 C469 1.376 . S
C466 C464 1.394 . S
C466 C467 1.369 . S
C466 C470 1.531 . S
C467 C466 1.369 . S
C467 C468 1.410 . S
C467 C475 1.503 . S
C468 C467 1.410 . S
C468 C469 1.392 . S
C468 C471 1.511 . S
C469 C465 1.376 . S
C469 C468 1.392 . S
C469 H481 0.929 . S
C470 C466 1.531 . S
C470 H482 0.960 . S
C470 H483 0.962 . S
C470 H484 0.960 . S
C471 C468 1.511 . S
C471 H485 0.961 . S
C471 H486 0.961 . S
C471 H487 0.961 . S
C472 C473 1.370 . S
C472 C474 1.363 . S
C472 H488 0.931 . S
C473 C472 1.370 . S
C473 C477 1.408 . S
C474 C472 1.363 . S
C474 C475 1.370 . S
C474 C478 1.524 . S
C475 C467 1.503 . S
C475 C474 1.370 . S
C475 C476 1.403 . S
C476 C475 1.403 . S
C476 C477 1.404 . S
C476 C479 1.539 . S
C477 C473 1.408 . S
C477 C476 1.404 . S
C477 H489 0.930 . S
C478 C474 1.524 . S
C478 H490 0.956 . S
C478 H491 0.961 . S
C478 H492 0.961 . S
C479 C476 1.539 . S
C479 H493 0.958 . S
C479 H494 0.961 . S
C479 H495 0.960 . S
H480 C464 0.931 . S
H481 C469 0.929 . S
H482 C470 0.960 . S
H483 C470 0.962 . S
H484 C470 0.960 . S
H485 C471 0.961 . S
H486 C471 0.961 . S
H487 C471 0.961 . S
H488 C472 0.931 . S
H489 C477 0.930 . S
H490 C478 0.956 . S
H491 C478 0.961 . S
H492 C478 0.961 . S
H493 C479 0.958 . S
H494 C479 0.961 . S
H495 C479 0.960 . S
C496 C497 1.391 . S
C496 C498 1.394 . S
C496 H512 0.931 . S
C497 C496 1.391 . S
C497 C501 1.376 . S
C498 C496 1.394 . S
C498 C499 1.369 . S
C498 C502 1.531 . S
C499 C498 1.369 . S
C499 C500 1.410 . S
C499 C507 1.503 . S
C500 C499 1.410 . S
C500 C501 1.392 . S
C500 C503 1.511 . S
C501 C497 1.376 . S
C501 C500 1.392 . S
C501 H513 0.929 . S
C502 C498 1.531 . S
C502 H514 0.960 . S
C502 H515 0.962 . S
C502 H516 0.960 . S
C503 C500 1.511 . S
C503 H517 0.961 . S
C503 H518 0.961 . S
C503 H519 0.961 . S
C504 C505 1.370 . S
C504 C506 1.363 . S
C504 H520 0.931 . S
C505 C504 1.370 . S
C505 C509 1.408 . S
C506 C504 1.363 . S
C506 C507 1.370 . S
C506 C510 1.524 . S
C507 C499 1.503 . S
C507 C506 1.370 . S
C507 C508 1.403 . S
C508 C507 1.403 . S
C508 C509 1.404 . S
C508 C511 1.539 . S
C509 C505 1.408 . S
C509 C508 1.404 . S
C509 H521 0.930 . S
C510 C506 1.524 . S
C510 H522 0.956 . S
C510 H523 0.961 . S
C510 H524 0.961 . S
C511 C508 1.539 . S
C511 H525 0.958 . S
C511 H526 0.961 . S
C511 H527 0.960 . S
H512 C496 0.931 . S
H513 C501 0.929 . S
H514 C502 0.960 . S
H515 C502 0.962 . S
H516 C502 0.960 . S
H517 C503 0.961 . S
H518 C503 0.961 . S
H519 C503 0.961 . S
H520 C504 0.931 . S
H521 C509 0.930 . S
H522 C510 0.956 . S
H523 C510 0.961 . S
H524 C510 0.961 . S
H525 C511 0.958 . S
H526 C511 0.961 . S
H527 C511 0.960 . S
C528 C529 1.391 . S
C528 C530 1.394 . S
C528 H544 0.931 . S
C529 C528 1.391 . S
C529 C533 1.376 . S
C530 C528 1.394 . S
C530 C531 1.369 . S
C530 C534 1.531 . S
C531 C530 1.369 . S
C531 C532 1.410 . S
C531 C539 1.503 . S
C532 C531 1.410 . S
C532 C533 1.392 . S
C532 C535 1.511 . S
C533 C529 1.376 . S
C533 C532 1.392 . S
C533 H545 0.929 . S
C534 C530 1.531 . S
C534 H546 0.960 . S
C534 H547 0.962 . S
C534 H548 0.960 . S
C535 C532 1.511 . S
C535 H549 0.961 . S
C535 H550 0.961 . S
C535 H551 0.961 . S
C536 C537 1.370 . S
C536 C538 1.363 . S
C536 H552 0.931 . S
C537 C536 1.370 . S
C537 C541 1.408 . S
C538 C536 1.363 . S
C538 C539 1.370 . S
C538 C542 1.524 . S
C539 C531 1.503 . S
C539 C538 1.370 . S
C539 C540 1.403 . S
C540 C539 1.403 . S
C540 C541 1.404 . S
C540 C543 1.539 . S
C541 C537 1.408 . S
C541 C540 1.404 . S
C541 H553 0.930 . S
C542 C538 1.524 . S
C542 H554 0.956 . S
C542 H555 0.961 . S
C542 H556 0.961 . S
C543 C540 1.539 . S
C543 H557 0.958 . S
C543 H558 0.961 . S
C543 H559 0.960 . S
H544 C528 0.931 . S
H545 C533 0.929 . S
H546 C534 0.960 . S
H547 C534 0.962 . S
H548 C534 0.960 . S
H549 C535 0.961 . S
H550 C535 0.961 . S
H551 C535 0.961 . S
H552 C536 0.931 . S
H553 C541 0.930 . S
H554 C542 0.956 . S
H555 C542 0.961 . S
H556 C542 0.961 . S
H557 C543 0.958 . S
H558 C543 0.961 . S
H559 C543 0.960 . S
C560 C561 1.391 . S
C560 C562 1.394 . S
C560 H576 0.931 . S
C561 C560 1.391 . S
C561 C565 1.376 . S
C562 C560 1.394 . S
C562 C563 1.369 . S
C562 C566 1.531 . S
C563 C562 1.369 . S
C563 C564 1.410 . S
C563 C571 1.503 . S
C564 C563 1.410 . S
C564 C565 1.392 . S
C564 C567 1.511 . S
C565 C561 1.376 . S
C565 C564 1.392 . S
C565 H577 0.929 . S
C566 C562 1.531 . S
C566 H578 0.960 . S
C566 H579 0.962 . S
C566 H580 0.960 . S
C567 C564 1.511 . S
C567 H581 0.961 . S
C567 H582 0.961 . S
C567 H583 0.961 . S
C568 C569 1.370 . S
C568 C570 1.363 . S
C568 H584 0.931 . S
C569 C568 1.370 . S
C569 C573 1.408 . S
C570 C568 1.363 . S
C570 C571 1.370 . S
C570 C574 1.524 . S
C571 C563 1.503 . S
C571 C570 1.370 . S
C571 C572 1.403 . S
C572 C571 1.403 . S
C572 C573 1.404 . S
C572 C575 1.539 . S
C573 C569 1.408 . S
C573 C572 1.404 . S
C573 H585 0.930 . S
C574 C570 1.524 . S
C574 H586 0.956 . S
C574 H587 0.961 . S
C574 H588 0.961 . S
C575 C572 1.539 . S
C575 H589 0.958 . S
C575 H590 0.961 . S
C575 H591 0.960 . S
H576 C560 0.931 . S
H577 C565 0.929 . S
H578 C566 0.960 . S
H579 C566 0.962 . S
H580 C566 0.960 . S
H581 C567 0.961 . S
H582 C567 0.961 . S
H583 C567 0.961 . S
H584 C568 0.931 . S
H585 C573 0.930 . S
H586 C574 0.956 . S
H587 C574 0.961 . S
H588 C574 0.961 . S
H589 C575 0.958 . S
H590 C575 0.961 . S
H591 C575 0.960 . S
C592 C593 1.391 . S
C592 C594 1.394 . S
C592 H608 0.931 . S
C593 C592 1.391 . S
C593 C597 1.376 . S
C594 C592 1.394 . S
C594 C595 1.369 . S
C594 C598 1.531 . S
C595 C594 1.369 . S
C595 C596 1.410 . S
C595 C603 1.503 . S
C596 C595 1.410 . S
C596 C597 1.392 . S
C596 C599 1.511 . S
C597 C593 1.376 . S
C597 C596 1.392 . S
C597 H609 0.929 . S
C598 C594 1.531 . S
C598 H610 0.960 . S
C598 H611 0.962 . S
C598 H612 0.960 . S
C599 C596 1.511 . S
C599 H613 0.961 . S
C599 H614 0.961 . S
C599 H615 0.961 . S
C600 C601 1.370 . S
C600 C602 1.363 . S
C600 H616 0.931 . S
C601 C600 1.370 . S
C601 C605 1.408 . S
C602 C600 1.363 . S
C602 C603 1.370 . S
C602 C606 1.524 . S
C603 C595 1.503 . S
C603 C602 1.370 . S
C603 C604 1.403 . S
C604 C603 1.403 . S
C604 C605 1.404 . S
C604 C607 1.539 . S
C605 C601 1.408 . S
C605 C604 1.404 . S
C605 H617 0.930 . S
C606 C602 1.524 . S
C606 H618 0.956 . S
C606 H619 0.961 . S
C606 H620 0.961 . S
C607 C604 1.539 . S
C607 H621 0.958 . S
C607 H622 0.961 . S
C607 H623 0.960 . S
H608 C592 0.931 . S
H609 C597 0.929 . S
H610 C598 0.960 . S
H611 C598 0.962 . S
H612 C598 0.960 . S
H613 C599 0.961 . S
H614 C599 0.961 . S
H615 C599 0.961 . S
H616 C600 0.931 . S
H617 C605 0.930 . S
H618 C606 0.956 . S
H619 C606 0.961 . S
H620 C606 0.961 . S
H621 C607 0.958 . S
H622 C607 0.961 . S
H623 C607 0.960 . S
C624 C625 1.391 . S
C624 C626 1.394 . S
C624 H640 0.931 . S
C625 C624 1.391 . S
C625 C629 1.376 . S
C626 C624 1.394 . S
C626 C627 1.369 . S
C626 C630 1.531 . S
C627 C626 1.369 . S
C627 C628 1.410 . S
C627 C635 1.503 . S
C628 C627 1.410 . S
C628 C629 1.392 . S
C628 C631 1.511 . S
C629 C625 1.376 . S
C629 C628 1.392 . S
C629 H641 0.929 . S
C630 C626 1.531 . S
C630 H642 0.960 . S
C630 H643 0.962 . S
C630 H644 0.960 . S
C631 C628 1.511 . S
C631 H645 0.961 . S
C631 H646 0.961 . S
C631 H647 0.961 . S
C632 C633 1.370 . S
C632 C634 1.363 . S
C632 H648 0.931 . S
C633 C632 1.370 . S
C633 C637 1.408 . S
C634 C632 1.363 . S
C634 C635 1.370 . S
C634 C638 1.524 . S
C635 C627 1.503 . S
C635 C634 1.370 . S
C635 C636 1.403 . S
C636 C635 1.403 . S
C636 C637 1.404 . S
C636 C639 1.539 . S
C637 C633 1.408 . S
C637 C636 1.404 . S
C637 H649 0.930 . S
C638 C634 1.524 . S
C638 H650 0.956 . S
C638 H651 0.961 . S
C638 H652 0.961 . S
C639 C636 1.539 . S
C639 H653 0.958 . S
C639 H654 0.961 . S
C639 H655 0.960 . S
H640 C624 0.931 . S
H641 C629 0.929 . S
H642 C630 0.960 . S
H643 C630 0.962 . S
H644 C630 0.960 . S
H645 C631 0.961 . S
H646 C631 0.961 . S
H647 C631 0.961 . S
H648 C632 0.931 . S
H649 C637 0.930 . S
H650 C638 0.956 . S
H651 C638 0.961 . S
H652 C638 0.961 . S
H653 C639 0.958 . S
H654 C639 0.961 . S
H655 C639 0.960 . S
C656 C657 1.391 . S
C656 C658 1.394 . S
C656 H672 0.931 . S
C657 C656 1.391 . S
C657 C661 1.376 . S
C658 C656 1.394 . S
C658 C659 1.369 . S
C658 C662 1.531 . S
C659 C658 1.369 . S
C659 C660 1.410 . S
C659 C667 1.503 . S
C660 C659 1.410 . S
C660 C661 1.392 . S
C660 C663 1.511 . S
C661 C657 1.376 . S
C661 C660 1.392 . S
C661 H673 0.929 . S
C662 C658 1.531 . S
C662 H674 0.960 . S
C662 H675 0.962 . S
C662 H676 0.960 . S
C663 C660 1.511 . S
C663 H677 0.961 . S
C663 H678 0.961 . S
C663 H679 0.961 . S
C664 C665 1.370 . S
C664 C666 1.363 . S
C664 H680 0.931 . S
C665 C664 1.370 . S
C665 C669 1.408 . S
C666 C664 1.363 . S
C666 C667 1.370 1_455 S
C666 C670 1.524 1_455 S
C667 C659 1.503 . S
C667 C666 1.370 1_655 S
C667 C668 1.403 1_655 S
C668 C667 1.403 1_455 S
C668 C669 1.404 . S
C668 C671 1.539 . S
C669 C665 1.408 . S
C669 C668 1.404 . S
C669 H681 0.930 . S
C670 C666 1.524 1_655 S
C670 H682 0.956 . S
C670 H683 0.961 . S
C670 H684 0.965 . S
C671 C668 1.539 . S
C671 H685 0.958 . S
C671 H686 0.961 . S
C671 H687 0.960 1_455 S
H672 C656 0.931 . S
H673 C661 0.929 . S
H674 C662 0.960 . S
H675 C662 0.962 . S
H676 C662 0.960 . S
H677 C663 0.961 . S
H678 C663 0.961 . S
H679 C663 0.961 . S
H680 C664 0.931 . S
H681 C669 0.930 . S
H682 C670 0.956 . S
H683 C670 0.961 . S
H684 C670 0.965 . S
H685 C671 0.958 . S
H686 C671 0.961 . S
H687 C671 0.960 1_655 S
C688 C689 1.391 . S
C688 C690 1.394 . S
C688 H704 0.931 . S
C689 C688 1.391 . S
C689 C693 1.376 . S
C690 C688 1.394 . S
C690 C691 1.369 . S
C690 C694 1.531 . S
C691 C690 1.369 . S
C691 C692 1.410 . S
C691 C699 1.503 . S
C692 C691 1.410 . S
C692 C693 1.392 . S
C692 C695 1.511 . S
C693 C689 1.376 . S
C693 C692 1.392 . S
C693 H705 0.929 . S
C694 C690 1.531 . S
C694 H706 0.960 . S
C694 H707 0.962 . S
C694 H708 0.960 . S
C695 C692 1.511 . S
C695 H709 0.961 . S
C695 H710 0.961 . S
C695 H711 0.961 . S
C696 C697 1.370 . S
C696 C698 1.363 . S
C696 H712 0.931 . S
C697 C696 1.370 . S
C697 C701 1.408 . S
C698 C696 1.363 . S
C698 C699 1.370 1_565 S
C698 C702 1.524 1_565 S
C699 C691 1.503 . S
C699 C698 1.370 1_545 S
C699 C700 1.403 1_545 S
C700 C699 1.403 1_565 S
C700 C701 1.404 . S
C700 C703 1.539 1_565 S
C701 C697 1.408 . S
C701 C700 1.404 . S
C701 H713 0.930 . S
C702 C698 1.524 1_545 S
C702 H714 0.956 . S
C702 H715 0.961 . S
C702 H716 0.961 1_545 S
C703 C700 1.539 1_545 S
C703 H717 0.958 . S
C703 H718 0.961 1_545 S
C703 H719 0.960 . S
H704 C688 0.931 . S
H705 C693 0.929 . S
H706 C694 0.960 . S
H707 C694 0.962 . S
H708 C694 0.960 . S
H709 C695 0.961 . S
H710 C695 0.961 . S
H711 C695 0.961 . S
H712 C696 0.931 . S
H713 C701 0.930 . S
H714 C702 0.956 . S
H715 C702 0.961 . S
H716 C702 0.961 1_565 S
H717 C703 0.958 . S
H718 C703 0.961 1_565 S
H719 C703 0.960 . S
C720 C721 1.391 . S
C720 C722 1.394 . S
C720 H736 0.931 . S
C721 C720 1.391 . S
C721 C725 1.376 . S
C722 C720 1.394 . S
C722 C723 1.369 . S
C722 C726 1.531 1_545 S
C723 C722 1.369 . S
C723 C724 1.410 . S
C723 C731 1.503 . S
C724 C723 1.410 . S
C724 C725 1.392 . S
C724 C727 1.511 . S
C725 C721 1.376 . S
C725 C724 1.392 . S
C725 H737 0.929 . S
C726 C722 1.531 1_565 S
C726 H738 0.960 . S
C726 H739 0.962 . S
C726 H740 0.960 . S
C727 C724 1.511 . S
C727 H741 0.961 . S
C727 H742 0.961 . S
C727 H743 0.961 . S
C728 C729 1.370 . S
C728 C730 1.363 1_565 S
C728 H744 0.931 . S
C729 C728 1.370 . S
C729 C733 1.408 1_565 S
C730 C728 1.363 1_545 S
C730 C731 1.370 . S
C730 C734 1.533 1_545 S
C731 C723 1.503 . S
C731 C730 1.370 . S
C731 C732 1.403 . S
C732 C731 1.403 . S
C732 C733 1.404 . S
C732 C735 1.539 . S
C733 C729 1.408 1_545 S
C733 C732 1.404 . S
C733 H745 0.930 . S
C734 C730 1.533 1_565 S
C734 H746 0.957 . S
C734 H747 0.935 1_565 S
C734 H748 0.978 . S
C735 C732 1.539 . S
C735 H749 0.958 . S
C735 H750 0.961 . S
C735 H751 0.960 . S
H736 C720 0.931 . S
H737 C725 0.929 . S
H738 C726 0.960 . S
H739 C726 0.962 . S
H740 C726 0.960 . S
H741 C727 0.961 . S
H742 C727 0.961 . S
H743 C727 0.961 . S
H744 C728 0.931 . S
H745 C733 0.930 . S
H746 C734 0.957 . S
H747 C734 0.935 1_545 S
H748 C734 0.978 . S
H749 C735 0.958 . S
H750 C735 0.961 . S
H751 C735 0.960 . S
C752 C753 1.391 . S
C752 C754 1.394 . S
C752 H768 0.931 . S
C753 C752 1.391 . S
C753 C757 1.376 . S
C754 C752 1.394 . S
C754 C755 1.369 . S
C754 C758 1.531 . S
C755 C754 1.369 . S
C755 C756 1.410 . S
C755 C763 1.503 . S
C756 C755 1.410 . S
C756 C757 1.392 . S
C756 C759 1.511 . S
C757 C753 1.376 . S
C757 C756 1.392 . S
C757 H769 0.929 . S
C758 C754 1.531 . S
C758 H770 0.960 . S
C758 H771 0.962 . S
C758 H772 0.960 . S
C759 C756 1.511 . S
C759 H773 0.961 . S
C759 H774 0.961 . S
C759 H775 0.961 . S
C760 C761 1.370 . S
C760 C762 1.363 . S
C760 H776 0.931 . S
C761 C760 1.370 . S
C761 C765 1.408 . S
C762 C760 1.363 . S
C762 C763 1.370 . S
C762 C766 1.524 . S
C763 C755 1.503 . S
C763 C762 1.370 . S
C763 C764 1.403 . S
C764 C763 1.403 . S
C764 C765 1.404 . S
C764 C767 1.539 . S
C765 C761 1.408 . S
C765 C764 1.404 . S
C765 H777 0.930 . S
C766 C762 1.524 . S
C766 H778 0.956 . S
C766 H779 0.961 . S
C766 H780 0.961 . S
C767 C764 1.539 . S
C767 H781 0.958 . S
C767 H782 0.961 . S
C767 H783 0.960 . S
H768 C752 0.931 . S
H769 C757 0.929 . S
H770 C758 0.960 . S
H771 C758 0.962 . S
H772 C758 0.960 . S
H773 C759 0.961 . S
H774 C759 0.961 . S
H775 C759 0.961 . S
H776 C760 0.931 . S
H777 C765 0.930 . S
H778 C766 0.956 . S
H779 C766 0.961 . S
H780 C766 0.961 . S
H781 C767 0.958 . S
H782 C767 0.961 . S
H783 C767 0.960 . S
C784 C785 1.391 . S
C784 C786 1.394 . S
C784 H800 0.931 . S
C785 C784 1.391 . S
C785 C789 1.376 1_455 S
C786 C784 1.394 . S
C786 C787 1.369 1_455 S
C786 C790 1.531 . S
C787 C786 1.369 1_655 S
C787 C788 1.410 . S
C787 C795 1.503 . S
C788 C787 1.410 . S
C788 C789 1.392 . S
C788 C791 1.511 . S
C789 C785 1.376 1_655 S
C789 C788 1.392 . S
C789 H801 0.929 . S
C790 C786 1.531 . S
C790 H802 0.960 . S
C790 H803 0.962 1_455 S
C790 H804 0.960 . S
C791 C788 1.511 . S
C791 H805 0.961 . S
C791 H806 0.961 . S
C791 H807 0.961 . S
C792 C793 1.370 . S
C792 C794 1.363 . S
C792 H808 0.931 . S
C793 C792 1.370 . S
C793 C797 1.408 . S
C794 C792 1.363 . S
C794 C795 1.370 . S
C794 C798 1.524 . S
C795 C787 1.503 . S
C795 C794 1.370 . S
C795 C796 1.403 . S
C796 C795 1.403 . S
C796 C797 1.404 . S
C796 C799 1.539 1_655 S
C797 C793 1.408 . S
C797 C796 1.404 . S
C797 H809 0.930 . S
C798 C794 1.524 . S
C798 H810 0.956 . S
C798 H811 0.961 . S
C798 H812 0.961 . S
C799 C796 1.539 1_455 S
C799 H813 0.958 . S
C799 H814 0.961 . S
C799 H815 0.960 . S
H800 C784 0.931 . S
H801 C789 0.929 . S
H802 C790 0.960 . S
H803 C790 0.962 1_655 S
H804 C790 0.960 . S
H805 C791 0.961 . S
H806 C791 0.961 . S
H807 C791 0.961 . S
H808 C792 0.931 . S
H809 C797 0.930 . S
H810 C798 0.956 . S
H811 C798 0.961 . S
H812 C798 0.961 . S
H813 C799 0.958 . S
H814 C799 0.961 . S
H815 C799 0.960 . S
C241 C178 2.550 . S
C249 C9 2.200 . S
C273 C209 2.190 . S
C281 C58 2.559 . S
C305 C89 2.172 . S
C313 C138 2.564 . S
C337 C18 2.550 . S
C345 C169 2.228 . S
C369 C218 2.534 . S
C377 C49 2.218 . S
C401 C98 2.553 . S
C409 C129 2.230 . S
C433 C19 2.035 . S
C441 C95 2.000 . S
C465 C59 2.066 . S
C473 C15 1.990 . S
C497 C99 2.062 . S
C505 C55 1.995 . S
C529 C126 1.904 . S
C537 C170 1.868 . S
C561 C166 1.896 . S
C569 C210 1.870 . S
C593 C130 1.849 . S
C601 C206 1.906 . S
C625 C10 1.083 . S
C633 C86 1.101 . S
C657 C50 1.079 . S
C665 C6 1.102 . S
C689 C90 1.115 . S
C697 C46 1.098 . S
C721 C135 1.205 . S
C729 C179 1.275 . S
C753 C175 1.195 1_655 S
C761 C219 1.262 . S
C785 C139 1.232 . S
C793 C215 1.234 1_545 S
