# Generated by pormake.
# Topology sxb, (6)-cn, num edge types: 1
# Building blocks:
#     Node 0, Type 0, BuildingBlock: PAMTUU_clean_sbu_0, # of connection points: 6
#     Node 1, Type 0, BuildingBlock: PAMTUU_clean_sbu_0, # of connection points: 6
#     Node 2, Type 0, BuildingBlock: PAMTUU_clean_sbu_0, # of connection points: 6
#     Node 3, Type 0, BuildingBlock: PAMTUU_clean_sbu_0, # of connection points: 6
#     Edge 4, Type (0, 0), BuildingBlock: XUDNAN_clean_linker_2, # of connection points: 2
#     Edge 5, Type (0, 0), BuildingBlock: XUDNAN_clean_linker_2, # of connection points: 2
#     Edge 6, Type (0, 0), BuildingBlock: XUDNAN_clean_linker_2, # of connection points: 2
#     Edge 7, Type (0, 0), BuildingBlock: XUDNAN_clean_linker_2, # of connection points: 2
#     Edge 8, Type (0, 0), BuildingBlock: XUDNAN_clean_linker_2, # of connection points: 2
#     Edge 9, Type (0, 0), BuildingBlock: XUDNAN_clean_linker_2, # of connection points: 2
#     Edge 10, Type (0, 0), BuildingBlock: XUDNAN_clean_linker_2, # of connection points: 2
#     Edge 11, Type (0, 0), BuildingBlock: XUDNAN_clean_linker_2, # of connection points: 2
#     Edge 12, Type (0, 0), BuildingBlock: XUDNAN_clean_linker_2, # of connection points: 2
#     Edge 13, Type (0, 0), BuildingBlock: XUDNAN_clean_linker_2, # of connection points: 2
#     Edge 14, Type (0, 0), BuildingBlock: XUDNAN_clean_linker_2, # of connection points: 2
#     Edge 15, Type (0, 0), BuildingBlock: XUDNAN_clean_linker_2, # of connection points: 2
# Relax obj value: 0.118
# Max RMSD: 0.200
# Mean RMSD: 0.200
data_MOF--net-sxb--node1-PAMTUU_clean_sbu_0--edge1-XUDNAN_clean_linker_2
_symmetry_space_group_name_H-M    P1
_symmetry_Int_Tables_number       1
_symmetry_cell_setting            triclinic
loop_
_symmetry_equiv_pos_as_xyz
'x, y, z'
_cell_length_a     24.184219
_cell_length_b     16.478488
_cell_length_c     29.929779
_cell_angle_alpha  90.071628
_cell_angle_beta   99.026605
_cell_angle_gamma 89.855318
loop_
_atom_site_label
_atom_site_type_symbol
_atom_site_fract_x
_atom_site_fract_y
_atom_site_fract_z
_atom_type_partial_charge
Tb0 Tb 0.0693 0.03137 0.00482 0.0
Tb1 Tb 0.96169 0.91509 0.96486 0.0
C2 C 0.99452 0.95875 0.06912 0.0
C3 C 0.21913 0.0758 0.02867 0.0
C4 C 0.32849 0.01828 0.02554 0.0
C5 C 0.31781 0.07051 0.06044 0.0
C6 C 0.26364 0.09919 0.06189 0.0
C7 C 0.22965 0.02416 0.99346 0.0
C8 C 0.28402 -0.00371 0.99167 0.0
C9 C 0.16144 0.09909 0.03334 0.0
O10 O 0.08656 0.90307 0.01587 0.0
O11 O 0.03621 0.84979 0.95256 0.0
O12 O 0.98382 0.98056 0.90712 0.0
O13 O 0.07602 0.00454 0.93481 0.0
O14 O 0.91324 0.81092 0.97024 0.0
O15 O 0.8887 0.89894 0.91755 0.0
O16 O 0.92704 0.02647 0.98547 0.0
O17 O 1.00027 0.11741 0.989 0.0
O18 O 1.02012 0.02477 0.05904 0.0
O19 O 0.9795 0.90164 0.03871 0.0
C20 C 0.08171 0.85059 0.98274 0.0
O21 O 0.12867 0.12083 0.99637 0.0
O22 O 0.13646 0.0494 0.05744 0.0
C23 C 0.03482 -0.00115 0.90081 0.0
C24 C 0.81761 0.84834 0.95403 0.0
C25 C 0.71198 0.8809 0.97944 0.0
C26 C 0.716 0.84978 0.9362 0.0
C27 C 0.76839 0.83367 0.92365 0.0
C28 C 0.81385 0.88113 -0.00323 0.0
C29 C 0.76167 0.89704 0.00937 0.0
C30 C 0.87273 0.83762 0.93967 0.0
C31 C 0.94658 0.10057 0.9865 0.0
H32 H 0.35141 0.08883 0.08681 0.0
H33 H 0.25628 0.1382 0.08954 0.0
H34 H 0.19567 0.00397 0.96793 0.0
H35 H 0.29098 0.95539 0.96472 0.0
H36 H 0.67868 0.8357 0.91247 0.0
H37 H 0.77047 0.80967 0.89024 0.0
H38 H 0.85136 0.89526 0.02033 0.0
H39 H 0.76031 0.9227 0.0425 0.0
Tb40 Tb 0.98136 0.05628 0.48161 0.0
Tb41 Tb 0.08303 0.92084 0.49024 0.0
C42 C 1.01282 0.96568 0.39885 0.0
C43 C 0.83754 0.1322 0.48281 0.0
C44 C 0.72703 0.09979 0.49913 0.0
C45 C 0.74411 0.07702 0.45805 0.0
C46 C 0.79853 0.09303 0.44999 0.0
C47 C 0.82046 0.15554 0.52374 0.0
C48 C 0.76607 0.1393 0.53187 0.0
C49 C 0.896 0.14697 0.47498 0.0
O50 O 0.94278 0.93773 0.47505 0.0
O51 O 1.01316 0.85602 0.51176 0.0
O52 O 0.09062 0.98805 0.55336 0.0
O53 O 0.99729 0.0124 0.55108 0.0
O54 O 0.14101 0.85986 0.45665 0.0
O55 O 0.14127 0.84223 0.52801 0.0
O56 O 0.1144 0.03467 0.46778 0.0
O57 O 0.05828 0.12593 0.49747 0.0
O58 O 1.00708 0.03858 0.41549 0.0
O59 O 1.029 0.90457 0.42584 0.0
C60 C 0.96002 0.87097 0.49674 0.0
O61 O 0.93502 0.14537 0.51039 0.0
O62 O 0.912 0.10925 0.44088 0.0
C63 C 0.04782 0.00351 0.5741 0.0
C64 C 0.22928 0.8566 0.50253 0.0
C65 C 0.33889 0.92173 0.51037 0.0
C66 C 0.30574 0.93479 0.54446 0.0
C67 C 0.25157 0.90317 0.54046 0.0
C68 C 0.26304 0.84037 0.46943 0.0
C69 C 0.31716 0.87255 0.47322 0.0
C70 C 0.16935 0.8333 0.49444 0.0
C71 C 0.10559 0.10678 0.48375 0.0
H72 H 0.71515 0.04795 0.43163 0.0
H73 H 0.80993 0.0745 0.41791 0.0
H74 H 0.84934 0.18587 0.54973 0.0
H75 H 0.75494 0.15712 0.56414 0.0
H76 H 0.32126 0.97051 0.57415 0.0
H77 H 0.22666 0.91738 0.56654 0.0
H78 H 0.24662 0.80551 0.43959 0.0
H79 H 0.34092 0.86147 0.44603 0.0
Tb80 Tb 0.58615 0.6027 0.00375 0.0
Tb81 Tb 0.48911 0.46436 0.00998 0.0
C82 C 0.56009 0.53696 0.09528 0.0
C83 C 0.72715 0.67177 0.99102 0.0
C84 C 0.83733 0.6299 0.97798 0.0
C85 C 0.82696 0.66008 0.01985 0.0
C86 C 0.77258 0.68127 0.02618 0.0
C87 C 0.73751 0.64127 0.94914 0.0
C88 C 0.79202 0.6212 0.94263 0.0
C89 C 0.66946 0.6918 -0.00104 0.0
O90 O 0.6293 0.49121 0.02289 0.0
O91 O 0.56317 0.39121 0.00261 0.0
O92 O 0.47947 0.51192 0.94174 0.0
O93 O 0.57185 0.53441 0.94066 0.0
O94 O 0.43209 0.41515 0.04862 0.0
O95 O 0.43158 0.37696 0.97965 0.0
O96 O 0.45719 0.58303 0.02482 0.0
O97 O 0.50708 0.66648 0.98476 0.0
O98 O 0.56515 0.6041 0.07244 0.0
O99 O 0.54262 0.46934 0.07478 0.0
C100 C 0.61537 0.41513 0.01528 0.0
O101 O 0.62859 0.68144 0.96542 0.0
O102 O 0.65601 0.66634 0.037 0.0
C103 C 0.5213 0.52004 0.91917 0.0
C104 C 0.34309 0.3983 0.00423 0.0
C105 C 0.23046 0.45449 0.98761 0.0
C106 C 0.25973 0.43674 0.95156 0.0
C107 C 0.31529 0.40935 0.95974 0.0
C108 C 0.31319 0.41245 0.04019 0.0
C109 C 0.25778 0.44036 0.03204 0.0
C110 C 0.40387 0.37827 0.0138 0.0
C111 C 0.46194 0.65023 0.00235 0.0
H112 H 0.86113 0.6687 0.04749 0.0
H113 H 0.76599 0.70508 0.05869 0.0
H114 H 0.70359 0.63301 0.92127 0.0
H115 H 0.79868 0.59802 0.91 0.0
H116 H 0.23992 0.44445 0.9168 0.0
H117 H 0.33673 0.3985 0.93112 0.0
H118 H 0.3333 0.40437 0.07488 0.0
H119 H 0.23729 0.45389 0.06084 0.0
Tb120 Tb 0.48063 0.56562 0.49056 0.0
Tb121 Tb 0.58752 0.43954 0.51822 0.0
C122 C 0.55026 0.50244 0.41877 0.0
C123 C 0.33204 0.62945 0.47007 0.0
C124 C 0.21942 0.57911 0.46612 0.0
C125 C 0.23785 0.61387 0.42818 0.0
C126 C 0.29345 0.63895 0.4302 0.0
C127 C 0.31342 0.5966 0.50847 0.0
C128 C 0.25757 0.57219 0.50657 0.0
C129 C 0.39195 0.64776 0.46956 0.0
O130 O 0.45449 0.44145 0.47377 0.0
O131 O 0.51372 0.37032 0.52708 0.0
O132 O 0.56798 0.49232 0.58081 0.0
O133 O 0.47496 0.51932 0.55748 0.0
O134 O 0.63446 0.33676 0.50563 0.0
O135 O 0.66329 0.41729 0.5613 0.0
O136 O 0.61962 0.55343 0.4993 0.0
O137 O 0.55273 0.64047 0.51824 0.0
O138 O 0.52645 0.56667 0.43366 0.0
O139 O 0.56421 0.43901 0.44486 0.0
C140 C 0.46534 0.37843 0.50055 0.0
O141 O 0.42475 0.6538 0.50845 0.0
O142 O 0.4154 0.60584 0.44066 0.0
C143 C 0.51748 0.5073 0.58984 0.0
C144 C 0.73213 0.36565 0.52169 0.0
C145 C 0.83866 0.39647 0.49746 0.0
C146 C 0.83349 0.37439 0.54199 0.0
C147 C 0.78078 0.35885 0.5539 0.0
C148 C 0.73716 0.38689 0.47704 0.0
C149 C 0.78991 0.40158 0.465 0.0
C150 C 0.67664 0.35802 0.5362 0.0
C151 C 0.60443 0.6245 0.51232 0.0
H152 H 0.20935 0.62087 0.39668 0.0
H153 H 0.30669 0.66407 0.40016 0.0
H154 H 0.34227 0.58763 0.53961 0.0
H155 H 0.2448 0.54496 0.53624 0.0
H156 H 0.87027 0.36902 0.56763 0.0
H157 H 0.77789 0.34301 0.58858 0.0
H158 H 0.70028 0.39401 0.45166 0.0
H159 H 0.79241 0.41933 0.43054 0.0
H160 H 0.38947 0.68758 0.05962 0.0
H161 H 0.41911 0.72028 0.92178 0.0
H162 H 0.32217 0.77167 0.90025 0.0
H163 H 0.25507 0.61332 0.03382 0.0
H164 H 0.22794 0.6627 0.07952 0.0
H165 H 0.30135 0.63832 0.08521 0.0
H166 H 0.32765 0.79013 0.10181 0.0
H167 H 0.25415 0.8129 0.09804 0.0
H168 H 0.29596 0.867 0.06328 0.0
H169 H 0.21732 0.80021 0.89228 0.0
H170 H 0.11983 0.83333 0.90203 0.0
H171 H 0.16141 0.78403 0.04557 0.0
C172 C 0.37607 0.70833 0.02528 0.0
C173 C 0.41159 0.70118 0.9924 0.0
C174 C 0.39272 0.72739 0.94761 0.0
C175 C 0.33754 0.7554 0.93501 0.0
C176 C 0.30244 0.75741 0.96781 0.0
C177 C 0.3216 0.73701 0.01236 0.0
C178 C 0.27554 0.74232 0.04103 0.0
C179 C 0.26438 0.65921 0.06113 0.0
C180 C 0.28914 0.80693 0.07823 0.0
C181 C 0.22717 0.76789 0.00562 0.0
C182 C 0.24307 0.77513 0.96342 0.0
C183 C 0.20461 0.79552 0.92527 0.0
C184 C 0.14919 0.8128 0.93093 0.0
C185 C 0.13336 0.8103 0.97446 0.0
C186 C 0.17253 0.78566 0.01189 0.0
H187 H 0.63852 0.28151 0.96499 0.0
H188 H 0.70049 0.4245 0.08413 0.0
H189 H 0.79385 0.36425 0.08696 0.0
H190 H 0.72834 0.09667 0.00403 0.0
H191 H 0.73781 0.07312 0.94693 0.0
H192 H 0.67394 0.12061 0.95752 0.0
H193 H 0.68988 0.23587 0.90201 0.0
H194 H 0.7549 0.19055 0.89263 0.0
H195 H 0.75373 0.29395 0.9122 0.0
H196 H 0.88333 0.30825 0.06981 0.0
H197 H 0.96001 0.22674 0.04624 0.0
H198 H 0.84059 0.11242 0.94196 0.0
C199 C 0.67112 0.29704 0.99275 0.0
C200 C 0.66259 0.35796 0.02409 0.0
C201 C 0.70646 0.37814 0.0596 0.0
C202 C 0.75976 0.34478 0.06138 0.0
C203 C 0.76822 0.28954 0.02812 0.0
C204 C 0.72484 0.26277 0.99566 0.0
C205 C 0.74613 0.20244 0.96405 0.0
C206 C 0.72002 0.11825 0.96841 0.0
C207 C 0.73551 0.23256 0.91482 0.0
C208 C 0.80813 0.20254 0.98294 0.0
C209 C 0.82003 0.25398 0.01953 0.0
C210 C 0.87461 0.26652 0.04166 0.0
C211 C 0.918 0.22131 0.02761 0.0
C212 C 0.90595 0.16421 0.99227 0.0
C213 C 0.85068 0.15641 0.96894 0.0
H214 H 0.16534 0.18071 0.42544 0.0
H215 H 0.15835 0.14235 0.56756 0.0
H216 H 0.25349 0.20019 0.58755 0.0
H217 H 0.30639 0.13354 0.42663 0.0
H218 H 0.32008 0.21245 0.38819 0.0
H219 H 0.25052 0.17173 0.38485 0.0
H220 H 0.21015 0.316 0.39515 0.0
H221 H 0.27939 0.35704 0.39668 0.0
H222 H 0.24103 0.37727 0.44247 0.0
H223 H 0.35284 0.24966 0.59095 0.0
H224 H 0.44189 0.31373 0.5791 0.0
H225 H 0.38086 0.32898 0.43519 0.0
C226 C 0.18337 0.18705 0.46076 0.0
C227 C 0.15475 0.15876 0.49514 0.0
C228 C 0.17956 0.1658 0.54099 0.0
C229 C 0.23369 0.19748 0.55255 0.0
C230 C 0.26169 0.22296 0.51777 0.0
C231 C 0.2367 0.22056 0.47292 0.0
C232 C 0.27521 0.25383 0.44216 0.0
C233 C 0.28883 0.189 0.40847 0.0
C234 C 0.24994 0.33058 0.41767 0.0
C235 C 0.32613 0.27377 0.47656 0.0
C236 C 0.31788 0.25437 0.51993 0.0
C237 C 0.35957 0.26587 0.5572 0.0
C238 C 0.41021 0.30124 0.55011 0.0
C239 C 0.41811 0.32549 0.50623 0.0
C240 C 0.37587 0.31036 0.46903 0.0
H241 H 0.87308 0.81153 0.43887 0.0
H242 H 0.94546 0.82034 0.5806 0.0
H243 H 0.85588 0.77126 0.60132 0.0
H244 H 0.74128 0.8831 0.44962 0.0
H245 H 0.70261 0.81743 0.40778 0.0
H246 H 0.77347 0.84546 0.40329 0.0
H247 H 0.80405 0.6943 0.40269 0.0
H248 H 0.73266 0.66557 0.40437 0.0
H249 H 0.78807 0.62729 0.44647 0.0
H250 H 0.75465 0.73345 0.60577 0.0
H251 H 0.65796 0.67869 0.59312 0.0
H252 H 0.65457 0.69393 0.44842 0.0
C253 C 0.87057 0.80006 0.47415 0.0
C254 C 0.91589 0.81807 0.50822 0.0
C255 C 0.91129 0.80454 0.55411 0.0
C256 C 0.86037 0.77823 0.56612 0.0
C257 C 0.81521 0.76531 0.53165 0.0
C258 C 0.82055 0.77322 0.48654 0.0
C259 C 0.76633 0.75503 0.45579 0.0
C260 C 0.74467 0.82971 0.42745 0.0
C261 C 0.77318 0.68115 0.42557 0.0
C262 C 0.72929 0.73605 0.49053 0.0
C263 C 0.75775 0.74365 0.53417 0.0
C264 C 0.73198 0.72747 0.57176 0.0
C265 C 0.67685 0.69794 0.56438 0.0
C266 C 0.64884 0.68482 0.51989 0.0
C267 C 0.67475 0.70631 0.48269 0.0
H268 H 0.3895 0.01462 0.95537 0.0
H269 H 0.39624 0.94715 0.09613 0.0
H270 H 0.49357 0.89925 0.09857 0.0
H271 H 0.47812 0.84618 0.9239 0.0
H272 H 0.51034 0.91048 0.88682 0.0
H273 H 0.43961 0.93047 0.89589 0.0
H274 H 0.46997 0.07778 0.92028 0.0
H275 H 0.54086 0.05584 0.91267 0.0
H276 H 0.5266 0.09251 0.96646 0.0
H277 H 0.5916 0.8671 0.08733 0.0
H278 H 0.68335 0.84895 0.06271 0.0
H279 H 0.61443 0.94013 0.92944 0.0
C280 C 0.41128 0.98854 0.98643 0.0
C281 C 0.38557 0.98487 0.02566 0.0
C282 C 0.4155 0.95131 0.06589 0.0
C283 C 0.47062 0.92358 0.06751 0.0
C284 C 0.49531 0.92995 0.02863 0.0
C285 C 0.46664 0.96121 0.98875 0.0
C286 C 0.504 0.96507 0.95255 0.0
C287 C 0.48164 0.90977 0.9124 0.0
C288 C 0.51074 0.05303 0.9371 0.0
C289 C 0.55832 0.93235 0.97853 0.0
C290 C 0.55223 0.91202 0.02225 0.0
C291 C 0.59683 0.88257 0.05311 0.0
C292 C 0.64902 0.87335 0.0389 0.0
C293 C 0.65641 0.89327 0.99411 0.0
C294 C 0.61015 0.9232 0.96367 0.0
H295 H 0.43474 0.86287 0.48121 0.0
H296 H 0.3699 0.07323 0.54411 0.0
H297 H 0.46221 0.13852 0.55025 0.0
H298 H 0.57172 0.86477 0.54464 0.0
H299 H 0.6076 0.83994 0.49809 0.0
H300 H 0.53704 0.80474 0.4981 0.0
H301 H 0.50348 0.87208 0.42109 0.0
H302 H 0.57427 0.90377 0.4191 0.0
H303 H 0.51852 0.97773 0.41314 0.0
H304 H 0.56304 0.17872 0.55295 0.0
H305 H 0.66194 0.19654 0.54472 0.0
H306 H 0.65902 0.9672 0.47322 0.0
C307 C 0.43949 0.92304 0.49583 0.0
C308 C 0.39475 0.96188 0.51288 0.0
C309 C 0.40357 0.0406 0.53205 0.0
C310 C 0.45583 0.07881 0.53531 0.0
C311 C 0.49892 0.03845 0.51859 0.0
C312 C 0.49113 0.96288 0.49863 0.0
C313 C 0.54412 0.93366 0.48243 0.0
C314 C 0.56633 0.85604 0.50736 0.0
C315 C 0.5345 0.92112 0.43087 0.0
C316 C 0.58282 0.00467 0.49621 0.0
C317 C 0.55612 0.06389 0.51765 0.0
C318 C 0.58404 0.13329 0.53548 0.0
C319 C 0.64038 0.14302 0.53055 0.0
C320 C 0.66824 0.08501 0.50698 0.0
C321 C 0.63883 0.01424 0.49019 0.0
H322 H 0.91601 0.5381 0.03239 0.0
H323 H 0.88946 0.67434 0.90696 0.0
H324 H 0.98773 0.64917 0.89738 0.0
H325 H 0.05852 0.59603 0.07135 0.0
H326 H 0.0802 0.49666 0.09245 0.0
H327 H 1.00861 0.52867 0.09068 0.0
H328 H 0.97442 0.40211 0.04285 0.0
H329 H 0.04582 0.36935 0.0446 0.0
H330 H 1.00115 0.38256 0.99095 0.0
H331 H 0.09086 0.61621 0.90425 0.0
H332 H 0.18659 0.56108 0.92028 0.0
H333 H 0.1428 0.43124 0.03609 0.0
C334 C 0.93103 0.56284 0.00302 0.0
C335 C 0.89543 0.60981 0.97091 0.0
C336 C 0.91612 0.63901 0.93222 0.0
C337 C 0.97194 0.62528 0.92658 0.0
C338 C 1.00617 0.57987 0.9592 0.0
C339 C 0.98617 0.54744 0.99611 0.0
C340 C 0.03063 0.49638 0.02462 0.0
C341 C 0.04535 0.53156 0.07262 0.0
C342 C 1.0119 0.40733 0.0258 0.0
C343 C 0.07893 0.50583 -0.00176 0.0
C344 C 0.0642 0.55533 0.96106 0.0
C345 C 0.10243 0.57574 0.93265 0.0
C346 C 0.15678 0.54336 0.94189 0.0
C347 C 0.17255 0.4898 0.97887 0.0
C348 C 0.13273 0.47171 0.00752 0.0
H349 H 0.14392 0.59863 0.52568 0.0
H350 H 0.16444 0.48393 0.39874 0.0
H351 H 0.0697 0.42542 0.39285 0.0
H352 H 0.06851 0.43715 0.56854 0.0
H353 H 1.02207 0.50299 0.59347 0.0
H354 H 0.09117 0.53734 0.58747 0.0
H355 H 0.04836 0.66304 0.54252 0.0
H356 H 0.97916 0.62918 0.54857 0.0
H357 H 0.99623 0.64867 0.49312 0.0
H358 H 0.97318 0.37734 0.40116 0.0
H359 H 0.88119 0.34474 0.42276 0.0
H360 H 0.92232 0.49112 0.54396 0.0
C361 C 0.12841 0.56112 0.4967 0.0
C362 C 0.1616 0.54599 0.46259 0.0
C363 C 0.1396 0.49715 0.42499 0.0
C364 C 0.08589 0.46334 0.42144 0.0
C365 C 0.05427 0.47938 0.45558 0.0
C366 C 0.0745 0.52752 0.49237 0.0
C367 C 0.03169 0.53553 0.5242 0.0
C368 C 0.05475 0.50119 0.5712 0.0
C369 C 1.01276 0.62435 0.52727 0.0
C370 C 0.98475 0.48319 0.49996 0.0
C371 C 0.99854 0.45175 0.46032 0.0
C372 C 0.96186 0.40187 0.43205 0.0
C373 C 0.90962 0.38389 0.4445 0.0
C374 C 0.89451 0.4153 0.485 0.0
C375 C 0.93287 0.46545 0.51304 0.0
H376 H 1.01731 0.0755 0.33046 0.0
H377 H 0.98352 0.82267 0.3559 0.0
H378 H 0.96799 0.79565 0.27374 0.0
H379 H 0.91774 0.09778 0.2253 0.0
H380 H 0.9643 0.16079 0.19904 0.0
H381 H 0.96766 0.1621 0.25962 0.0
H382 H 0.07326 0.12613 0.26965 0.0
H383 H 0.07024 0.12478 0.20918 0.0
H384 H 0.09552 0.03706 0.2422 0.0
H385 H 0.95925 0.79483 0.1889 0.0
H386 H 0.96426 0.81838 0.10813 0.0
H387 H 1.00767 0.07035 0.13812 0.0
C388 C 1.00575 0.01481 0.31863 0.0
C389 C 1.00121 0.95129 0.34948 0.0
C390 C 0.98722 0.87224 0.33282 0.0
C391 C 0.97805 0.85636 0.28621 0.0
C392 C 0.98343 0.92004 0.25664 0.0
C393 C 0.99728 -0.0024 0.27217 0.0
C394 C 1.00441 0.05377 0.23343 0.0
C395 C 0.96093 0.12268 0.2291 0.0
C396 C 0.06442 0.08738 0.23896 0.0
C397 C 0.99305 -0.00453 0.19386 0.0
C398 C 0.98023 0.91892 0.20787 0.0
C399 C 0.96908 0.85461 0.17749 0.0
C400 C 0.97196 0.86861 0.13164 0.0
C401 C 0.98657 0.94607 0.11672 0.0
C402 C 0.99651 0.01034 0.14836 0.0
H403 H 0.96082 -0.00549 0.82084 0.0
H404 H 0.13745 0.02002 0.87491 0.0
H405 H 0.15939 0.0276 0.79738 0.0
H406 H 0.979 0.8683 0.72736 0.0
H407 H 0.92274 0.91389 0.68886 0.0
H408 H 0.92031 0.9133 0.74869 0.0
H409 H 0.90901 0.06975 0.74787 0.0
H410 H 0.91126 0.07082 0.68799 0.0
H411 H 0.9598 0.13168 0.72577 0.0
H412 H 0.16294 0.02662 0.71416 0.0
H413 H 0.14741 0.02055 0.63073 0.0
H414 H 0.96848 -0.00199 0.63044 0.0
C415 C 1.00408 0.00228 0.81644 0.0
C416 C 0.04734 0.00693 0.8541 0.0
C417 C 0.10345 0.01674 0.84672 0.0
C418 C 0.11642 0.021 0.80276 0.0
C419 C 0.07286 0.01572 0.76645 0.0
C420 C 1.0178 0.00691 0.77275 0.0
C421 C 0.97902 0.00145 0.72784 0.0
C422 C 0.94848 0.91935 0.72291 0.0
C423 C 0.93732 0.07268 0.72204 0.0
C424 C 1.02096 0.00808 0.69536 0.0
C425 C 0.07485 0.01613 0.71835 0.0
C426 C 0.12089 0.02088 0.69575 0.0
C427 C 0.11164 0.01719 0.64836 0.0
C428 C 0.05673 0.00923 0.62405 0.0
C429 C 1.01088 0.00503 0.64802 0.0
H430 H 0.51704 0.61178 0.34993 0.0
H431 H 0.61441 0.3917 0.38222 0.0
H432 H 0.6367 0.38826 0.30487 0.0
H433 H 0.45624 0.55289 0.24019 0.0
H434 H 0.45834 0.6522 0.21534 0.0
H435 H 0.45439 0.64243 0.27462 0.0
H436 H 0.54385 0.72984 0.29413 0.0
H437 H 0.5483 0.73937 0.23478 0.0
H438 H 0.60692 0.69987 0.27335 0.0
H439 H 0.64166 0.40003 0.22359 0.0
H440 H 0.6262 0.4241 0.1413 0.0
H441 H 0.52765 0.63813 0.15973 0.0
C442 C 0.5436 0.56344 0.34087 0.0
C443 C 0.56397 0.502 0.37226 0.0
C444 C 0.59812 0.43933 0.35888 0.0
C445 C 0.61139 0.43711 0.31505 0.0
C446 C 0.59043 0.49812 0.28491 0.0
C447 C 0.55721 0.56012 0.29704 0.0
C448 C 0.53705 0.61483 0.25695 0.0
C449 C 0.4727 0.61558 0.24615 0.0
C450 C 0.56044 0.7011 0.26532 0.0
C451 C 0.5628 0.57232 0.22014 0.0
C452 C 0.59398 0.5057 0.23737 0.0
C453 C 0.61827 0.45277 0.20979 0.0
C454 C 0.60931 0.46691 0.16318 0.0
C455 C 0.57668 0.53364 0.14462 0.0
C456 C 0.55418 0.58818 0.17346 0.0
H457 H 0.5955 0.5156 0.66741 0.0
H458 H 0.41669 0.49943 0.6198 0.0
H459 H 0.39899 0.4995 0.69866 0.0
H460 H 0.59859 0.38691 0.76526 0.0
H461 H 0.65008 0.44707 0.80072 0.0
H462 H 0.64919 0.44473 0.74044 0.0
H463 H 0.64128 0.60155 0.73757 0.0
H464 H 0.64218 0.60435 0.79785 0.0
H465 H 0.58528 0.65094 0.76046 0.0
H466 H 0.40016 0.50046 0.78202 0.0
H467 H 0.41979 0.506 0.86517 0.0
H468 H 0.59784 0.52438 0.85977 0.0
C469 C 0.55265 0.51179 0.67359 0.0
C470 C 0.50747 0.50746 0.63738 0.0
C471 C 0.45198 0.50319 0.64691 0.0
C472 C 0.44147 0.50295 0.69162 0.0
C473 C 0.48683 0.50747 0.72648 0.0
C474 C 0.54131 0.51216 0.71811 0.0
C475 C 0.58229 0.51794 0.76192 0.0
C476 C 0.6224 0.4448 0.7674 0.0
C477 C 0.61466 0.59849 0.76459 0.0
C478 C 0.54227 0.51549 0.79615 0.0
C479 C 0.48745 0.50916 0.77487 0.0
C480 C 0.4429 0.5055 0.79911 0.0
C481 C 0.45457 0.50861 0.8464 0.0
C482 C 0.51038 0.51564 0.86912 0.0
C483 C 0.55474 0.51908 0.84347 0.0
loop_
_geom_bond_atom_site_label_1
_geom_bond_atom_site_label_2
_geom_bond_distance
_geom_bond_site_symmetry_2
_ccdc_geom_bond_type
Tb0 C9 2.764 . S
Tb0 O10 2.325 1_545 S
Tb0 O13 2.303 1_554 S
Tb0 O17 2.322 1_455 S
Tb0 O18 2.349 . S
Tb0 O21 2.415 1_554 S
Tb0 O22 2.399 . S
Tb1 O11 2.322 1_655 S
Tb1 O12 2.349 . S
Tb1 O14 2.415 1_556 S
Tb1 O15 2.399 . S
Tb1 O16 2.325 1_565 S
Tb1 O19 2.303 1_556 S
Tb1 C30 2.764 . S
C2 O18 1.261 . S
C2 O19 1.257 1_445 S
C3 C6 1.358 . S
C3 C7 1.332 1_554 S
C3 C9 1.504 . S
C4 C5 1.381 . S
C4 C8 1.302 1_554 S
C5 C4 1.381 . S
C5 C6 1.429 . S
C5 H32 0.932 . S
C6 C3 1.358 . S
C6 C5 1.429 . S
C6 H33 0.930 . S
C7 C3 1.332 1_556 S
C7 C8 1.394 . S
C7 H34 0.932 . S
C8 C4 1.302 1_556 S
C8 C7 1.394 . S
C8 H35 0.929 . S
C9 Tb0 2.764 . S
C9 C3 1.504 . S
C9 O21 1.239 1_554 S
C9 O22 1.263 . S
O10 Tb0 2.325 1_565 S
O10 C20 1.236 . S
O11 Tb1 2.322 1_455 S
O11 C20 1.257 1_556 S
O12 Tb1 2.349 . S
O12 C23 1.261 . S
O13 Tb0 2.303 1_556 S
O13 C23 1.257 1_445 S
O14 Tb1 2.415 1_554 S
O14 C30 1.239 1_554 S
O15 Tb1 2.399 . S
O15 C30 1.263 . S
O16 Tb1 2.325 1_545 S
O16 C31 1.236 . S
O17 Tb0 2.322 1_655 S
O17 C31 1.257 1_554 S
O18 Tb0 2.349 . S
O18 C2 1.261 . S
O19 Tb1 2.303 1_554 S
O19 C2 1.257 1_665 S
C20 O10 1.236 . S
C20 O11 1.257 1_554 S
O21 Tb0 2.415 1_556 S
O21 C9 1.239 1_556 S
O22 Tb0 2.399 . S
O22 C9 1.263 . S
C23 O12 1.261 . S
C23 O13 1.257 1_665 S
C24 C27 1.358 . S
C24 C28 1.332 1_556 S
C24 C30 1.504 . S
C25 C26 1.371 . S
C25 C29 1.309 1_556 S
C26 C25 1.371 . S
C26 C27 1.429 . S
C26 H36 0.932 . S
C27 C24 1.358 . S
C27 C26 1.429 . S
C27 H37 0.930 . S
C28 C24 1.332 1_554 S
C28 C29 1.394 . S
C28 H38 0.932 . S
C29 C25 1.309 1_554 S
C29 C28 1.394 . S
C29 H39 0.929 . S
C30 Tb1 2.764 . S
C30 O14 1.239 1_556 S
C30 O15 1.263 . S
C30 C24 1.504 . S
C31 O16 1.236 . S
C31 O17 1.257 1_556 S
H32 C5 0.932 . S
H33 C6 0.930 . S
H34 C7 0.932 . S
H35 C8 0.929 . S
H36 C26 0.932 . S
H37 C27 0.930 . S
H38 C28 0.932 . S
H39 C29 0.929 . S
Tb40 C49 2.764 . S
Tb40 O50 2.325 1_545 S
Tb40 O53 2.303 . S
Tb40 O57 2.322 1_655 S
Tb40 O58 2.349 . S
Tb40 O61 2.415 . S
Tb40 O62 2.399 . S
Tb41 O51 2.322 1_455 S
Tb41 O52 2.349 . S
Tb41 O54 2.415 . S
Tb41 O55 2.399 . S
Tb41 O56 2.325 1_565 S
Tb41 O59 2.303 . S
Tb41 C70 2.764 . S
C42 O58 1.261 . S
C42 O59 1.257 1_645 S
C43 C46 1.358 . S
C43 C47 1.332 . S
C43 C49 1.504 . S
C44 C45 1.373 . S
C44 C48 1.308 . S
C45 C44 1.373 . S
C45 C46 1.429 . S
C45 H72 0.932 . S
C46 C43 1.358 . S
C46 C45 1.429 . S
C46 H73 0.930 . S
C47 C43 1.332 . S
C47 C48 1.394 . S
C47 H74 0.932 . S
C48 C44 1.308 . S
C48 C47 1.394 . S
C48 H75 0.929 . S
C49 Tb40 2.764 . S
C49 C43 1.504 . S
C49 O61 1.239 . S
C49 O62 1.263 . S
O50 Tb40 2.325 1_565 S
O50 C60 1.236 . S
O51 Tb41 2.322 1_655 S
O51 C60 1.257 . S
O52 Tb41 2.349 . S
O52 C63 1.261 . S
O53 Tb40 2.303 . S
O53 C63 1.257 1_645 S
O54 Tb41 2.415 . S
O54 C70 1.239 . S
O55 Tb41 2.399 . S
O55 C70 1.263 . S
O56 Tb41 2.325 1_545 S
O56 C71 1.236 . S
O57 Tb40 2.322 1_455 S
O57 C71 1.257 . S
O58 Tb40 2.349 . S
O58 C42 1.261 . S
O59 Tb41 2.303 . S
O59 C42 1.257 1_465 S
C60 O50 1.236 . S
C60 O51 1.257 . S
O61 Tb40 2.415 . S
O61 C49 1.239 . S
O62 Tb40 2.399 . S
O62 C49 1.263 . S
C63 O52 1.261 . S
C63 O53 1.257 1_465 S
C64 C67 1.358 . S
C64 C68 1.332 . S
C64 C70 1.504 . S
C65 C66 1.373 . S
C65 C69 1.308 . S
C66 C65 1.373 . S
C66 C67 1.429 . S
C66 H76 0.932 . S
C67 C64 1.358 . S
C67 C66 1.429 . S
C67 H77 0.930 . S
C68 C64 1.332 . S
C68 C69 1.394 . S
C68 H78 0.932 . S
C69 C65 1.308 . S
C69 C68 1.394 . S
C69 H79 0.929 . S
C70 Tb41 2.764 . S
C70 O54 1.239 . S
C70 O55 1.263 . S
C70 C64 1.504 . S
C71 O56 1.236 . S
C71 O57 1.257 . S
H72 C45 0.932 . S
H73 C46 0.930 . S
H74 C47 0.932 . S
H75 C48 0.929 . S
H76 C66 0.932 . S
H77 C67 0.930 . S
H78 C68 0.932 . S
H79 C69 0.929 . S
Tb80 C89 2.764 . S
Tb80 O90 2.325 . S
Tb80 O93 2.303 1_554 S
Tb80 O97 2.322 . S
Tb80 O98 2.349 . S
Tb80 O101 2.415 1_554 S
Tb80 O102 2.399 . S
Tb81 O91 2.322 . S
Tb81 O92 2.349 . S
Tb81 O94 2.415 1_556 S
Tb81 O95 2.399 . S
Tb81 O96 2.325 . S
Tb81 O99 2.303 1_556 S
Tb81 C110 2.764 . S
C82 O98 1.261 . S
C82 O99 1.257 . S
C83 C86 1.358 . S
C83 C87 1.332 1_554 S
C83 C89 1.504 . S
C84 C85 1.381 . S
C84 C88 1.302 1_554 S
C85 C84 1.381 . S
C85 C86 1.429 . S
C85 H112 0.932 . S
C86 C83 1.358 . S
C86 C85 1.429 . S
C86 H113 0.930 . S
C87 C83 1.332 1_556 S
C87 C88 1.394 . S
C87 H114 0.932 . S
C88 C84 1.302 1_556 S
C88 C87 1.394 . S
C88 H115 0.929 . S
C89 Tb80 2.764 . S
C89 C83 1.504 . S
C89 O101 1.239 1_554 S
C89 O102 1.263 . S
O90 Tb80 2.325 . S
O90 C100 1.236 . S
O91 Tb81 2.322 . S
O91 C100 1.257 1_556 S
O92 Tb81 2.349 . S
O92 C103 1.261 . S
O93 Tb80 2.303 1_556 S
O93 C103 1.257 . S
O94 Tb81 2.415 1_554 S
O94 C110 1.239 1_554 S
O95 Tb81 2.399 . S
O95 C110 1.263 . S
O96 Tb81 2.325 . S
O96 C111 1.236 . S
O97 Tb80 2.322 . S
O97 C111 1.257 1_554 S
O98 Tb80 2.349 . S
O98 C82 1.261 . S
O99 Tb81 2.303 1_554 S
O99 C82 1.257 . S
C100 O90 1.236 . S
C100 O91 1.257 1_554 S
O101 Tb80 2.415 1_556 S
O101 C89 1.239 1_556 S
O102 Tb80 2.399 . S
O102 C89 1.263 . S
C103 O92 1.261 . S
C103 O93 1.257 . S
C104 C107 1.358 . S
C104 C108 1.332 1_556 S
C104 C110 1.504 . S
C105 C106 1.371 . S
C105 C109 1.309 1_556 S
C106 C105 1.371 . S
C106 C107 1.429 . S
C106 H116 0.932 . S
C107 C104 1.358 . S
C107 C106 1.429 . S
C107 H117 0.930 . S
C108 C104 1.332 1_554 S
C108 C109 1.394 . S
C108 H118 0.932 . S
C109 C105 1.309 1_554 S
C109 C108 1.394 . S
C109 H119 0.929 . S
C110 Tb81 2.764 . S
C110 O94 1.239 1_556 S
C110 O95 1.263 . S
C110 C104 1.504 . S
C111 O96 1.236 . S
C111 O97 1.257 1_556 S
H112 C85 0.932 . S
H113 C86 0.930 . S
H114 C87 0.932 . S
H115 C88 0.929 . S
H116 C106 0.932 . S
H117 C107 0.930 . S
H118 C108 0.932 . S
H119 C109 0.929 . S
Tb120 C129 2.764 . S
Tb120 O130 2.325 . S
Tb120 O133 2.303 . S
Tb120 O137 2.322 . S
Tb120 O138 2.349 . S
Tb120 O141 2.415 . S
Tb120 O142 2.399 . S
Tb121 O131 2.322 . S
Tb121 O132 2.349 . S
Tb121 O134 2.415 . S
Tb121 O135 2.399 . S
Tb121 O136 2.325 . S
Tb121 O139 2.303 . S
Tb121 C150 2.764 . S
C122 O138 1.261 . S
C122 O139 1.257 . S
C123 C126 1.358 . S
C123 C127 1.332 . S
C123 C129 1.504 . S
C124 C125 1.373 . S
C124 C128 1.308 . S
C125 C124 1.373 . S
C125 C126 1.429 . S
C125 H152 0.932 . S
C126 C123 1.358 . S
C126 C125 1.429 . S
C126 H153 0.930 . S
C127 C123 1.332 . S
C127 C128 1.394 . S
C127 H154 0.932 . S
C128 C124 1.308 . S
C128 C127 1.394 . S
C128 H155 0.929 . S
C129 Tb120 2.764 . S
C129 C123 1.504 . S
C129 O141 1.239 . S
C129 O142 1.263 . S
O130 Tb120 2.325 . S
O130 C140 1.236 . S
O131 Tb121 2.322 . S
O131 C140 1.257 . S
O132 Tb121 2.349 . S
O132 C143 1.261 . S
O133 Tb120 2.303 . S
O133 C143 1.257 . S
O134 Tb121 2.415 . S
O134 C150 1.239 . S
O135 Tb121 2.399 . S
O135 C150 1.263 . S
O136 Tb121 2.325 . S
O136 C151 1.236 . S
O137 Tb120 2.322 . S
O137 C151 1.257 . S
O138 Tb120 2.349 . S
O138 C122 1.261 . S
O139 Tb121 2.303 . S
O139 C122 1.257 . S
C140 O130 1.236 . S
C140 O131 1.257 . S
O141 Tb120 2.415 . S
O141 C129 1.239 . S
O142 Tb120 2.399 . S
O142 C129 1.263 . S
C143 O132 1.261 . S
C143 O133 1.257 . S
C144 C147 1.358 . S
C144 C148 1.332 . S
C144 C150 1.504 . S
C145 C146 1.373 . S
C145 C149 1.308 . S
C146 C145 1.373 . S
C146 C147 1.429 . S
C146 H156 0.932 . S
C147 C144 1.358 . S
C147 C146 1.429 . S
C147 H157 0.930 . S
C148 C144 1.332 . S
C148 C149 1.394 . S
C148 H158 0.932 . S
C149 C145 1.308 . S
C149 C148 1.394 . S
C149 H159 0.929 . S
C150 Tb121 2.764 . S
C150 O134 1.239 . S
C150 O135 1.263 . S
C150 C144 1.504 . S
C151 O136 1.236 . S
C151 O137 1.257 . S
H152 C125 0.932 . S
H153 C126 0.930 . S
H154 C127 0.932 . S
H155 C128 0.929 . S
H156 C146 0.932 . S
H157 C147 0.930 . S
H158 C148 0.932 . S
H159 C149 0.929 . S
H160 C172 0.930 . S
H161 C174 0.930 . S
H162 C175 0.930 . S
H163 C179 0.959 . S
H164 C179 0.959 . S
H165 C179 0.961 . S
H166 C180 0.960 . S
H167 C180 0.961 . S
H168 C180 0.959 . S
H169 C183 0.929 . S
H170 C184 0.931 . S
H171 C186 0.930 . S
C172 H160 0.930 . S
C172 C173 1.399 1_554 S
C172 C177 1.399 . S
C173 C172 1.399 1_556 S
C173 C174 1.376 . S
C174 H161 0.930 . S
C174 C173 1.376 . S
C174 C175 1.388 . S
C175 H162 0.930 . S
C175 C174 1.388 . S
C175 C176 1.390 . S
C176 C175 1.390 . S
C176 C177 1.394 1_556 S
C176 C182 1.465 . S
C177 C172 1.399 . S
C177 C176 1.394 1_554 S
C177 C178 1.516 . S
C178 C177 1.516 . S
C178 C179 1.502 . S
C178 C180 1.561 . S
C178 C181 1.526 . S
C179 H163 0.959 . S
C179 H164 0.959 . S
C179 H165 0.961 . S
C179 C178 1.502 . S
C180 H166 0.960 . S
C180 H167 0.961 . S
C180 H168 0.959 . S
C180 C178 1.561 . S
C181 C178 1.526 . S
C181 C182 1.396 1_554 S
C181 C186 1.390 . S
C182 C176 1.465 . S
C182 C181 1.396 1_556 S
C182 C183 1.399 . S
C183 H169 0.929 . S
C183 C182 1.399 . S
C183 C184 1.385 . S
C184 H170 0.931 . S
C184 C183 1.385 . S
C184 C185 1.389 . S
C185 C184 1.389 . S
C185 C186 1.387 1_556 S
C186 H171 0.930 . S
C186 C181 1.390 . S
C186 C185 1.387 1_554 S
H187 C199 0.930 . S
H188 C201 0.930 . S
H189 C202 0.930 . S
H190 C206 0.957 . S
H191 C206 0.959 . S
H192 C206 0.961 . S
H193 C207 0.960 . S
H194 C207 0.961 . S
H195 C207 0.959 . S
H196 C210 0.929 . S
H197 C211 0.931 . S
H198 C213 0.930 . S
C199 H187 0.930 . S
C199 C200 1.392 1_556 S
C199 C204 1.399 . S
C200 C199 1.392 1_554 S
C200 C201 1.383 . S
C201 H188 0.930 . S
C201 C200 1.383 . S
C201 C202 1.388 . S
C202 H189 0.930 . S
C202 C201 1.388 . S
C202 C203 1.390 . S
C203 C202 1.390 . S
C203 C204 1.394 1_554 S
C203 C209 1.465 . S
C204 C199 1.399 . S
C204 C203 1.394 1_556 S
C204 C205 1.516 . S
C205 C204 1.516 . S
C205 C206 1.502 . S
C205 C207 1.561 . S
C205 C208 1.526 . S
C206 H190 0.957 . S
C206 H191 0.959 . S
C206 H192 0.961 . S
C206 C205 1.502 . S
C207 H193 0.960 . S
C207 H194 0.961 . S
C207 H195 0.959 . S
C207 C205 1.561 . S
C208 C205 1.526 . S
C208 C209 1.396 1_556 S
C208 C213 1.390 . S
C209 C203 1.465 . S
C209 C208 1.396 1_554 S
C209 C210 1.399 . S
C210 H196 0.929 . S
C210 C209 1.399 . S
C210 C211 1.385 . S
C211 H197 0.931 . S
C211 C210 1.385 . S
C211 C212 1.389 . S
C212 C211 1.389 . S
C212 C213 1.387 1_554 S
C213 H198 0.930 . S
C213 C208 1.390 . S
C213 C212 1.387 1_556 S
H214 C226 0.930 . S
H215 C228 0.930 . S
H216 C229 0.930 . S
H217 C233 0.959 . S
H218 C233 0.959 . S
H219 C233 0.961 . S
H220 C234 0.960 . S
H221 C234 0.961 . S
H222 C234 0.959 . S
H223 C237 0.929 . S
H224 C238 0.931 . S
H225 C240 0.930 . S
C226 H214 0.930 . S
C226 C227 1.399 . S
C226 C231 1.399 . S
C227 C226 1.399 . S
C227 C228 1.376 . S
C228 H215 0.930 . S
C228 C227 1.376 . S
C228 C229 1.388 . S
C229 H216 0.930 . S
C229 C228 1.388 . S
C229 C230 1.390 . S
C230 C229 1.390 . S
C230 C231 1.394 . S
C230 C236 1.465 . S
C231 C226 1.399 . S
C231 C230 1.394 . S
C231 C232 1.516 . S
C232 C231 1.516 . S
C232 C233 1.502 . S
C232 C234 1.561 . S
C232 C235 1.526 . S
C233 H217 0.959 . S
C233 H218 0.959 . S
C233 H219 0.961 . S
C233 C232 1.502 . S
C234 H220 0.960 . S
C234 H221 0.961 . S
C234 H222 0.959 . S
C234 C232 1.561 . S
C235 C232 1.526 . S
C235 C236 1.396 . S
C235 C240 1.390 . S
C236 C230 1.465 . S
C236 C235 1.396 . S
C236 C237 1.399 . S
C237 H223 0.929 . S
C237 C236 1.399 . S
C237 C238 1.385 . S
C238 H224 0.931 . S
C238 C237 1.385 . S
C238 C239 1.389 . S
C239 C238 1.389 . S
C239 C240 1.387 . S
C240 H225 0.930 . S
C240 C235 1.390 . S
C240 C239 1.387 . S
H241 C253 0.930 . S
H242 C255 0.930 . S
H243 C256 0.930 . S
H244 C260 0.959 . S
H245 C260 0.959 . S
H246 C260 0.961 . S
H247 C261 0.960 . S
H248 C261 0.961 . S
H249 C261 0.959 . S
H250 C264 0.929 . S
H251 C265 0.931 . S
H252 C267 0.930 . S
C253 H241 0.930 . S
C253 C254 1.399 . S
C253 C258 1.399 . S
C254 C253 1.399 . S
C254 C255 1.376 . S
C255 H242 0.930 . S
C255 C254 1.376 . S
C255 C256 1.388 . S
C256 H243 0.930 . S
C256 C255 1.388 . S
C256 C257 1.390 . S
C257 C256 1.390 . S
C257 C258 1.394 . S
C257 C263 1.465 . S
C258 C253 1.399 . S
C258 C257 1.394 . S
C258 C259 1.516 . S
C259 C258 1.516 . S
C259 C260 1.502 . S
C259 C261 1.561 . S
C259 C262 1.526 . S
C260 H244 0.959 . S
C260 H245 0.959 . S
C260 H246 0.961 . S
C260 C259 1.502 . S
C261 H247 0.960 . S
C261 H248 0.961 . S
C261 H249 0.959 . S
C261 C259 1.561 . S
C262 C259 1.526 . S
C262 C263 1.396 . S
C262 C267 1.390 . S
C263 C257 1.465 . S
C263 C262 1.396 . S
C263 C264 1.399 . S
C264 H250 0.929 . S
C264 C263 1.399 . S
C264 C265 1.385 . S
C265 H251 0.931 . S
C265 C264 1.385 . S
C265 C266 1.389 . S
C266 C265 1.389 . S
C266 C267 1.387 . S
C267 H252 0.930 . S
C267 C262 1.390 . S
C267 C266 1.387 . S
H268 C280 0.930 . S
H269 C282 0.930 . S
H270 C283 0.930 . S
H271 C287 0.959 . S
H272 C287 0.959 . S
H273 C287 0.961 . S
H274 C288 0.960 . S
H275 C288 0.961 . S
H276 C288 0.959 . S
H277 C291 0.929 1_545 S
H278 C292 0.931 . S
H279 C294 0.930 . S
C280 H268 0.930 . S
C280 C281 1.399 1_556 S
C280 C285 1.399 . S
C281 C280 1.399 1_554 S
C281 C282 1.376 . S
C282 H269 0.930 . S
C282 C281 1.376 . S
C282 C283 1.388 . S
C283 H270 0.930 . S
C283 C282 1.388 . S
C283 C284 1.390 . S
C284 C283 1.390 . S
C284 C285 1.394 1_554 S
C284 C290 1.465 1_545 S
C285 C280 1.399 . S
C285 C284 1.394 1_556 S
C285 C286 1.516 1_545 S
C286 C285 1.516 1_565 S
C286 C287 1.502 . S
C286 C288 1.561 1_565 S
C286 C289 1.526 . S
C287 H271 0.959 . S
C287 H272 0.959 . S
C287 H273 0.961 . S
C287 C286 1.502 . S
C288 H274 0.960 . S
C288 H275 0.961 . S
C288 H276 0.959 . S
C288 C286 1.561 1_545 S
C289 C286 1.526 . S
C289 C290 1.396 1_556 S
C289 C294 1.390 . S
C290 C284 1.465 1_565 S
C290 C289 1.396 1_554 S
C290 C291 1.399 . S
C291 H277 0.929 1_565 S
C291 C290 1.399 . S
C291 C292 1.385 . S
C292 H278 0.931 . S
C292 C291 1.385 . S
C292 C293 1.389 . S
C293 C292 1.389 . S
C293 C294 1.387 1_554 S
C294 H279 0.930 . S
C294 C289 1.390 . S
C294 C293 1.387 1_556 S
H295 C307 0.930 . S
H296 C309 0.930 . S
H297 C310 0.930 . S
H298 C314 0.959 . S
H299 C314 0.959 . S
H300 C314 0.961 . S
H301 C315 0.960 . S
H302 C315 0.961 . S
H303 C315 0.959 1_545 S
H304 C318 0.929 . S
H305 C319 0.931 . S
H306 C321 0.930 . S
C307 H295 0.930 . S
C307 C308 1.399 . S
C307 C312 1.399 . S
C308 C307 1.399 . S
C308 C309 1.376 . S
C309 H296 0.930 . S
C309 C308 1.376 . S
C309 C310 1.388 1_565 S
C310 H297 0.930 . S
C310 C309 1.388 1_545 S
C310 C311 1.390 . S
C311 C310 1.390 . S
C311 C312 1.394 1_545 S
C311 C317 1.465 . S
C312 C307 1.399 . S
C312 C311 1.394 1_565 S
C312 C313 1.516 . S
C313 C312 1.516 . S
C313 C314 1.502 . S
C313 C315 1.561 . S
C313 C316 1.526 1_565 S
C314 H298 0.959 . S
C314 H299 0.959 . S
C314 H300 0.961 . S
C314 C313 1.502 . S
C315 H301 0.960 . S
C315 H302 0.961 . S
C315 H303 0.959 1_565 S
C315 C313 1.561 . S
C316 C313 1.526 1_545 S
C316 C317 1.396 . S
C316 C321 1.390 . S
C317 C311 1.465 . S
C317 C316 1.396 . S
C317 C318 1.399 . S
C318 H304 0.929 . S
C318 C317 1.399 . S
C318 C319 1.385 . S
C319 H305 0.931 . S
C319 C318 1.385 . S
C319 C320 1.389 . S
C320 C319 1.389 . S
C320 C321 1.387 . S
C321 H306 0.930 . S
C321 C316 1.390 . S
C321 C320 1.387 . S
H322 C334 0.930 . S
H323 C336 0.930 . S
H324 C337 0.930 . S
H325 C341 0.959 . S
H326 C341 0.959 . S
H327 C341 0.961 1_655 S
H328 C342 0.960 . S
H329 C342 0.961 . S
H330 C342 0.959 . S
H331 C345 0.929 . S
H332 C346 0.931 . S
H333 C348 0.930 . S
C334 H322 0.930 . S
C334 C335 1.399 1_554 S
C334 C339 1.399 . S
C335 C334 1.399 1_556 S
C335 C336 1.376 . S
C336 H323 0.930 . S
C336 C335 1.376 . S
C336 C337 1.388 . S
C337 H324 0.930 . S
C337 C336 1.388 . S
C337 C338 1.390 . S
C338 C337 1.390 . S
C338 C339 1.394 1_556 S
C338 C344 1.465 1_655 S
C339 C334 1.399 . S
C339 C338 1.394 1_554 S
C339 C340 1.516 . S
C340 C339 1.516 . S
C340 C341 1.502 1_655 S
C340 C342 1.561 . S
C340 C343 1.526 1_655 S
C341 H325 0.959 . S
C341 H326 0.959 . S
C341 H327 0.961 1_455 S
C341 C340 1.502 1_455 S
C342 H328 0.960 . S
C342 H329 0.961 . S
C342 H330 0.959 . S
C342 C340 1.561 . S
C343 C340 1.526 1_455 S
C343 C344 1.396 1_554 S
C343 C348 1.390 . S
C344 C338 1.465 1_455 S
C344 C343 1.396 1_556 S
C344 C345 1.399 . S
C345 H331 0.929 . S
C345 C344 1.399 . S
C345 C346 1.385 . S
C346 H332 0.931 . S
C346 C345 1.385 . S
C346 C347 1.389 . S
C347 C346 1.389 . S
C347 C348 1.387 1_556 S
C348 H333 0.930 . S
C348 C343 1.390 . S
C348 C347 1.387 1_554 S
H349 C361 0.930 . S
H350 C363 0.930 . S
H351 C364 0.930 . S
H352 C368 0.959 1_455 S
H353 C368 0.959 . S
H354 C368 0.961 1_455 S
H355 C369 0.960 . S
H356 C369 0.961 . S
H357 C369 0.959 . S
H358 C372 0.929 . S
H359 C373 0.931 . S
H360 C375 0.930 . S
C361 H349 0.930 . S
C361 C362 1.399 . S
C361 C366 1.399 . S
C362 C361 1.399 . S
C362 C363 1.376 . S
C363 H350 0.930 . S
C363 C362 1.376 . S
C363 C364 1.388 . S
C364 H351 0.930 . S
C364 C363 1.388 . S
C364 C365 1.390 . S
C365 C364 1.390 . S
C365 C366 1.394 . S
C365 C371 1.465 1_455 S
C366 C361 1.399 . S
C366 C365 1.394 . S
C366 C367 1.516 1_455 S
C367 C366 1.516 1_655 S
C367 C368 1.502 . S
C367 C369 1.561 . S
C367 C370 1.526 . S
C368 H352 0.959 1_655 S
C368 H353 0.959 . S
C368 H354 0.961 1_655 S
C368 C367 1.502 . S
C369 H355 0.960 . S
C369 H356 0.961 . S
C369 H357 0.959 . S
C369 C367 1.561 . S
C370 C367 1.526 . S
C370 C371 1.396 . S
C370 C375 1.390 . S
C371 C365 1.465 1_655 S
C371 C370 1.396 . S
C371 C372 1.399 . S
C372 H358 0.929 . S
C372 C371 1.399 . S
C372 C373 1.385 . S
C373 H359 0.931 . S
C373 C372 1.385 . S
C373 C374 1.389 . S
C374 C373 1.389 . S
C374 C375 1.387 . S
C375 H360 0.930 . S
C375 C370 1.390 . S
C375 C374 1.387 . S
H376 C388 0.930 . S
H377 C390 0.930 . S
H378 C391 0.930 . S
H379 C395 0.959 . S
H380 C395 0.959 . S
H381 C395 0.961 . S
H382 C396 0.960 . S
H383 C396 0.961 . S
H384 C396 0.959 1_455 S
H385 C399 0.929 . S
H386 C400 0.931 . S
H387 C402 0.930 . S
C388 H376 0.930 . S
C388 C389 1.399 1_645 S
C388 C393 1.399 . S
C389 C388 1.399 1_465 S
C389 C390 1.376 . S
C390 H377 0.930 . S
C390 C389 1.376 . S
C390 C391 1.388 . S
C391 H378 0.930 . S
C391 C390 1.388 . S
C391 C392 1.390 . S
C392 C391 1.390 . S
C392 C393 1.394 1_465 S
C392 C398 1.465 . S
C393 C388 1.399 . S
C393 C392 1.394 1_645 S
C393 C394 1.516 . S
C394 C393 1.516 . S
C394 C395 1.502 . S
C394 C396 1.561 . S
C394 C397 1.526 . S
C395 H379 0.959 . S
C395 H380 0.959 . S
C395 H381 0.961 . S
C395 C394 1.502 . S
C396 H382 0.960 . S
C396 H383 0.961 . S
C396 H384 0.959 1_655 S
C396 C394 1.561 . S
C397 C394 1.526 . S
C397 C398 1.396 1_645 S
C397 C402 1.390 . S
C398 C392 1.465 . S
C398 C397 1.396 1_465 S
C398 C399 1.399 . S
C399 H385 0.929 . S
C399 C398 1.399 . S
C399 C400 1.385 . S
C400 H386 0.931 . S
C400 C399 1.385 . S
C400 C401 1.389 . S
C401 C400 1.389 . S
C401 C402 1.387 1_465 S
C402 H387 0.930 . S
C402 C397 1.390 . S
C402 C401 1.387 1_645 S
H403 C415 0.930 . S
H404 C417 0.930 . S
H405 C418 0.930 . S
H406 C422 0.959 1_565 S
H407 C422 0.959 . S
H408 C422 0.961 . S
H409 C423 0.960 . S
H410 C423 0.961 . S
H411 C423 0.959 . S
H412 C426 0.929 . S
H413 C427 0.931 . S
H414 C429 0.930 . S
C415 H403 0.930 . S
C415 C416 1.399 1_645 S
C415 C420 1.399 . S
C416 C415 1.399 1_465 S
C416 C417 1.376 . S
C417 H404 0.930 . S
C417 C416 1.376 . S
C417 C418 1.388 . S
C418 H405 0.930 . S
C418 C417 1.388 . S
C418 C419 1.390 . S
C419 C418 1.390 . S
C419 C420 1.394 1_465 S
C419 C425 1.465 . S
C420 C415 1.399 . S
C420 C419 1.394 1_645 S
C420 C421 1.516 . S
C421 C420 1.516 . S
C421 C422 1.502 . S
C421 C423 1.561 . S
C421 C424 1.526 . S
C422 H406 0.959 1_545 S
C422 H407 0.959 . S
C422 H408 0.961 . S
C422 C421 1.502 . S
C423 H409 0.960 . S
C423 H410 0.961 . S
C423 H411 0.959 . S
C423 C421 1.561 . S
C424 C421 1.526 . S
C424 C425 1.396 1_645 S
C424 C429 1.390 . S
C425 C419 1.465 . S
C425 C424 1.396 1_465 S
C425 C426 1.399 . S
C426 H412 0.929 . S
C426 C425 1.399 . S
C426 C427 1.385 . S
C427 H413 0.931 . S
C427 C426 1.385 . S
C427 C428 1.389 . S
C428 C427 1.389 . S
C428 C429 1.387 1_465 S
C429 H414 0.930 . S
C429 C424 1.390 . S
C429 C428 1.387 1_645 S
H430 C442 0.930 . S
H431 C444 0.930 . S
H432 C445 0.930 . S
H433 C449 0.959 . S
H434 C449 0.959 . S
H435 C449 0.961 . S
H436 C450 0.960 . S
H437 C450 0.961 . S
H438 C450 0.959 . S
H439 C453 0.929 . S
H440 C454 0.931 . S
H441 C456 0.930 . S
C442 H430 0.930 . S
C442 C443 1.399 . S
C442 C447 1.399 . S
C443 C442 1.399 . S
C443 C444 1.376 . S
C444 H431 0.930 . S
C444 C443 1.376 . S
C444 C445 1.388 . S
C445 H432 0.930 . S
C445 C444 1.388 . S
C445 C446 1.390 . S
C446 C445 1.390 . S
C446 C447 1.394 . S
C446 C452 1.465 . S
C447 C442 1.399 . S
C447 C446 1.394 . S
C447 C448 1.516 . S
C448 C447 1.516 . S
C448 C449 1.502 . S
C448 C450 1.561 . S
C448 C451 1.526 . S
C449 H433 0.959 . S
C449 H434 0.959 . S
C449 H435 0.961 . S
C449 C448 1.502 . S
C450 H436 0.960 . S
C450 H437 0.961 . S
C450 H438 0.959 . S
C450 C448 1.561 . S
C451 C448 1.526 . S
C451 C452 1.396 . S
C451 C456 1.390 . S
C452 C446 1.465 . S
C452 C451 1.396 . S
C452 C453 1.399 . S
C453 H439 0.929 . S
C453 C452 1.399 . S
C453 C454 1.385 . S
C454 H440 0.931 . S
C454 C453 1.385 . S
C454 C455 1.389 . S
C455 C454 1.389 . S
C455 C456 1.387 . S
C456 H441 0.930 . S
C456 C451 1.390 . S
C456 C455 1.387 . S
H457 C469 0.930 . S
H458 C471 0.930 . S
H459 C472 0.930 . S
H460 C476 0.959 . S
H461 C476 0.959 . S
H462 C476 0.961 . S
H463 C477 0.960 . S
H464 C477 0.961 . S
H465 C477 0.959 . S
H466 C480 0.929 . S
H467 C481 0.931 . S
H468 C483 0.930 . S
C469 H457 0.930 . S
C469 C470 1.399 . S
C469 C474 1.399 . S
C470 C469 1.399 . S
C470 C471 1.376 . S
C471 H458 0.930 . S
C471 C470 1.376 . S
C471 C472 1.388 . S
C472 H459 0.930 . S
C472 C471 1.388 . S
C472 C473 1.390 . S
C473 C472 1.390 . S
C473 C474 1.394 . S
C473 C479 1.465 . S
C474 C469 1.399 . S
C474 C473 1.394 . S
C474 C475 1.516 . S
C475 C474 1.516 . S
C475 C476 1.502 . S
C475 C477 1.561 . S
C475 C478 1.526 . S
C476 H460 0.959 . S
C476 H461 0.959 . S
C476 H462 0.961 . S
C476 C475 1.502 . S
C477 H463 0.960 . S
C477 H464 0.961 . S
C477 H465 0.959 . S
C477 C475 1.561 . S
C478 C475 1.526 . S
C478 C479 1.396 . S
C478 C483 1.390 . S
C479 C473 1.465 . S
C479 C478 1.396 . S
C479 C480 1.399 . S
C480 H466 0.929 . S
C480 C479 1.399 . S
C480 C481 1.385 . S
C481 H467 0.931 . S
C481 C480 1.385 . S
C481 C482 1.389 . S
C482 C481 1.389 . S
C482 C483 1.387 . S
C483 H468 0.930 . S
C483 C478 1.390 . S
C483 C482 1.387 . S
C173 C111 1.643 . S
C185 C20 1.641 1_556 S
C200 C100 1.612 . S
C212 C31 1.663 1_554 S
C227 C71 1.632 . S
C239 C140 1.650 . S
C254 C60 1.659 . S
C266 C151 1.623 . S
C281 C4 1.541 . S
C293 C25 1.477 1_554 S
C308 C65 1.452 . S
C320 C44 1.541 . S
C335 C84 1.495 1_556 S
C347 C105 1.490 . S
C362 C124 1.481 . S
C374 C145 1.537 . S
C389 C42 1.490 1_465 S
C401 C2 1.450 1_565 S
C416 C23 1.485 1_455 S
C428 C63 1.428 . S
C443 C122 1.489 . S
C455 C82 1.457 . S
C470 C143 1.470 . S
C482 C103 1.432 . S
