# Generated by pormake.
# Topology cds-f, (5)-cn, num edge types: 1
# Building blocks:
#     Node 0, Type 0, BuildingBlock: XOMCOT_clean_sbu_1, # of connection points: 5
#     Node 1, Type 0, BuildingBlock: XOMCOT_clean_sbu_1, # of connection points: 5
#     Node 2, Type 0, BuildingBlock: XOMCOT_clean_sbu_1, # of connection points: 5
#     Node 3, Type 0, BuildingBlock: XOMCOT_clean_sbu_1, # of connection points: 5
#     Node 4, Type 0, BuildingBlock: XOMCOT_clean_sbu_1, # of connection points: 5
#     Node 5, Type 0, BuildingBlock: XOMCOT_clean_sbu_1, # of connection points: 5
#     Node 6, Type 0, BuildingBlock: XOMCOT_clean_sbu_1, # of connection points: 5
#     Node 7, Type 0, BuildingBlock: XOMCOT_clean_sbu_1, # of connection points: 5
#     Node 8, Type 0, BuildingBlock: XOMCOT_clean_sbu_1, # of connection points: 5
#     Node 9, Type 0, BuildingBlock: XOMCOT_clean_sbu_1, # of connection points: 5
#     Node 10, Type 0, BuildingBlock: XOMCOT_clean_sbu_1, # of connection points: 5
#     Node 11, Type 0, BuildingBlock: XOMCOT_clean_sbu_1, # of connection points: 5
#     Node 12, Type 0, BuildingBlock: XOMCOT_clean_sbu_1, # of connection points: 5
#     Node 13, Type 0, BuildingBlock: XOMCOT_clean_sbu_1, # of connection points: 5
#     Node 14, Type 0, BuildingBlock: XOMCOT_clean_sbu_1, # of connection points: 5
#     Node 15, Type 0, BuildingBlock: XOMCOT_clean_sbu_1, # of connection points: 5
#     Edge 16, Type (0, 0), BuildingBlock: XUDNAN_clean_linker_2, # of connection points: 2
#     Edge 17, Type (0, 0), BuildingBlock: XUDNAN_clean_linker_2, # of connection points: 2
#     Edge 18, Type (0, 0), BuildingBlock: XUDNAN_clean_linker_2, # of connection points: 2
#     Edge 19, Type (0, 0), BuildingBlock: XUDNAN_clean_linker_2, # of connection points: 2
#     Edge 20, Type (0, 0), BuildingBlock: XUDNAN_clean_linker_2, # of connection points: 2
#     Edge 21, Type (0, 0), BuildingBlock: XUDNAN_clean_linker_2, # of connection points: 2
#     Edge 22, Type (0, 0), BuildingBlock: XUDNAN_clean_linker_2, # of connection points: 2
#     Edge 23, Type (0, 0), BuildingBlock: XUDNAN_clean_linker_2, # of connection points: 2
#     Edge 24, Type (0, 0), BuildingBlock: XUDNAN_clean_linker_2, # of connection points: 2
#     Edge 25, Type (0, 0), BuildingBlock: XUDNAN_clean_linker_2, # of connection points: 2
#     Edge 26, Type (0, 0), BuildingBlock: XUDNAN_clean_linker_2, # of connection points: 2
#     Edge 27, Type (0, 0), BuildingBlock: XUDNAN_clean_linker_2, # of connection points: 2
#     Edge 28, Type (0, 0), BuildingBlock: XUDNAN_clean_linker_2, # of connection points: 2
#     Edge 29, Type (0, 0), BuildingBlock: XUDNAN_clean_linker_2, # of connection points: 2
#     Edge 30, Type (0, 0), BuildingBlock: XUDNAN_clean_linker_2, # of connection points: 2
#     Edge 31, Type (0, 0), BuildingBlock: XUDNAN_clean_linker_2, # of connection points: 2
#     Edge 32, Type (0, 0), BuildingBlock: XUDNAN_clean_linker_2, # of connection points: 2
#     Edge 33, Type (0, 0), BuildingBlock: XUDNAN_clean_linker_2, # of connection points: 2
#     Edge 34, Type (0, 0), BuildingBlock: XUDNAN_clean_linker_2, # of connection points: 2
#     Edge 35, Type (0, 0), BuildingBlock: XUDNAN_clean_linker_2, # of connection points: 2
#     Edge 36, Type (0, 0), BuildingBlock: XUDNAN_clean_linker_2, # of connection points: 2
#     Edge 37, Type (0, 0), BuildingBlock: XUDNAN_clean_linker_2, # of connection points: 2
#     Edge 38, Type (0, 0), BuildingBlock: XUDNAN_clean_linker_2, # of connection points: 2
#     Edge 39, Type (0, 0), BuildingBlock: XUDNAN_clean_linker_2, # of connection points: 2
#     Edge 40, Type (0, 0), BuildingBlock: XUDNAN_clean_linker_2, # of connection points: 2
#     Edge 41, Type (0, 0), BuildingBlock: XUDNAN_clean_linker_2, # of connection points: 2
#     Edge 42, Type (0, 0), BuildingBlock: XUDNAN_clean_linker_2, # of connection points: 2
#     Edge 43, Type (0, 0), BuildingBlock: XUDNAN_clean_linker_2, # of connection points: 2
#     Edge 44, Type (0, 0), BuildingBlock: XUDNAN_clean_linker_2, # of connection points: 2
#     Edge 45, Type (0, 0), BuildingBlock: XUDNAN_clean_linker_2, # of connection points: 2
#     Edge 46, Type (0, 0), BuildingBlock: XUDNAN_clean_linker_2, # of connection points: 2
#     Edge 47, Type (0, 0), BuildingBlock: XUDNAN_clean_linker_2, # of connection points: 2
#     Edge 48, Type (0, 0), BuildingBlock: XUDNAN_clean_linker_2, # of connection points: 2
#     Edge 49, Type (0, 0), BuildingBlock: XUDNAN_clean_linker_2, # of connection points: 2
#     Edge 50, Type (0, 0), BuildingBlock: XUDNAN_clean_linker_2, # of connection points: 2
#     Edge 51, Type (0, 0), BuildingBlock: XUDNAN_clean_linker_2, # of connection points: 2
#     Edge 52, Type (0, 0), BuildingBlock: XUDNAN_clean_linker_2, # of connection points: 2
#     Edge 53, Type (0, 0), BuildingBlock: XUDNAN_clean_linker_2, # of connection points: 2
#     Edge 54, Type (0, 0), BuildingBlock: XUDNAN_clean_linker_2, # of connection points: 2
#     Edge 55, Type (0, 0), BuildingBlock: XUDNAN_clean_linker_2, # of connection points: 2
# Relax obj value: 0.236
# Max RMSD: 0.186
# Mean RMSD: 0.177
data_MOF--net-cds-f--node1-XOMCOT_clean_sbu_1--edge1-XUDNAN_clean_linker_2
_symmetry_space_group_name_H-M    P1
_symmetry_Int_Tables_number       1
_symmetry_cell_setting            triclinic
loop_
_symmetry_equiv_pos_as_xyz
'x, y, z'
_cell_length_a     35.50219
_cell_length_b     35.395577
_cell_length_c     55.794753
_cell_angle_alpha  91.528986
_cell_angle_beta   89.48327
_cell_angle_gamma 91.634741
loop_
_atom_site_label
_atom_site_type_symbol
_atom_site_fract_x
_atom_site_fract_y
_atom_site_fract_z
_atom_type_partial_charge
C0 C 0.32697 0.29986 0.17496 0.0
C1 C 0.36464 0.29753 0.18007 0.0
N2 N 0.3751 0.26175 0.17568 0.0
N3 N 0.3134 0.2659 0.16686 0.0
C4 C 0.34318 0.24287 0.1685 0.0
H5 H 0.31067 0.3252 0.17635 0.0
Co6 Co 0.26242 0.25793 0.15685 0.0
C7 C 0.30257 0.21265 0.11597 0.0
O8 O 0.33744 0.22324 0.12077 0.0
N9 N 0.21114 0.25016 0.14719 0.0
C10 C 0.1612 0.24712 0.12318 0.0
C11 C 0.19985 0.24942 0.1241 0.0
C12 C 0.17842 0.24787 0.15999 0.0
N13 N 0.14765 0.24619 0.14575 0.0
O14 O 0.25619 0.21917 0.18043 0.0
H15 H 0.21854 0.2519 0.10877 0.0
H16 H 0.17688 0.24905 0.17935 0.0
O17 O 0.27559 0.22318 0.12979 0.0
C18 C 0.24684 0.24062 0.1983 0.0
O19 O 0.2446 0.27708 0.19469 0.0
N20 N 0.26703 0.29997 0.13696 0.0
C21 C 0.28084 0.37431 0.12416 0.0
C22 C 0.30511 0.34602 0.1163 0.0
C23 C 0.29731 0.30859 0.1226 0.0
C24 C 0.24192 0.32708 0.1432 0.0
C25 C 0.24786 0.36428 0.13651 0.0
H26 H 0.31813 0.28797 0.11846 0.0
H27 H 0.21902 0.32082 0.15548 0.0
H28 H 0.34171 0.21287 0.16421 0.0
H29 H 0.38331 0.32086 0.1855 0.0
H30 H 0.14431 0.24658 0.10711 0.0
H31 H 0.33137 0.35322 0.10725 0.0
H32 H 0.2291 0.38573 0.14336 0.0
C33 C 0.7312 0.32808 0.69363 0.0
C34 C 0.72868 0.36669 0.69573 0.0
N35 N 0.75341 0.38289 0.68038 0.0
N36 N 0.7576 0.31914 0.67713 0.0
C37 C 0.77047 0.3533 0.66908 0.0
H38 H 0.71479 0.30761 0.70366 0.0
Co39 Co 0.76852 0.26749 0.67055 0.0
C40 C 0.84004 0.29595 0.6411 0.0
O41 O 0.8614 0.31737 0.65531 0.0
N42 N 0.77968 0.21537 0.66411 0.0
C43 C 0.8138 0.16351 0.65974 0.0
C44 C 0.81501 0.20215 0.6635 0.0
C45 C 0.75745 0.18372 0.66074 0.0
N46 N 0.77753 0.15171 0.65798 0.0
O47 O 0.79986 0.26742 0.69898 0.0
H48 H 0.84029 0.21955 0.66592 0.0
H49 H 0.72704 0.18381 0.6609 0.0
O50 O 0.80932 0.28132 0.64905 0.0
C51 C 0.77952 0.2515 0.71515 0.0
O52 O 0.74595 0.23824 0.70894 0.0
N53 N 0.73437 0.26696 0.64538 0.0
C54 C 0.67141 0.27267 0.6166 0.0
C55 C 0.70665 0.2864 0.60871 0.0
C56 C 0.73803 0.28363 0.62361 0.0
C57 C 0.70033 0.25304 0.65293 0.0
C58 C 0.66862 0.25512 0.63872 0.0
H59 H 0.76429 0.29699 0.61821 0.0
H60 H 0.69748 0.24186 0.67071 0.0
H61 H 0.7923 0.35658 0.6556 0.0
H62 H 0.70985 0.38178 0.70772 0.0
H63 H 0.83793 0.14558 0.65814 0.0
H64 H 0.70939 0.30119 0.592 0.0
H65 H 0.6416 0.24502 0.64557 0.0
C66 C 0.82446 0.72947 0.09526 0.0
C67 C 0.8632 0.73007 0.09295 0.0
N68 N 0.87726 0.75946 0.10616 0.0
N69 N 0.81414 0.75789 0.11032 0.0
C70 C 0.84701 0.77601 0.11638 0.0
H71 H 0.8051 0.70904 0.08695 0.0
Co72 Co 0.76514 0.7683 0.12167 0.0
C73 C 0.78424 0.80202 0.1705 0.0
O74 O 0.76724 0.83355 0.16608 0.0
N75 N 0.71547 0.77868 0.13364 0.0
C76 C 0.66462 0.77153 0.15707 0.0
C77 C 0.70276 0.76671 0.15514 0.0
C78 C 0.68395 0.791 0.12285 0.0
N79 N 0.65263 0.78666 0.13676 0.0
O80 O 0.77354 0.81965 0.11207 0.0
H81 H 0.71964 0.75278 0.1681 0.0
H82 H 0.68328 0.80043 0.1046 0.0
O83 O 0.78575 0.77614 0.15414 0.0
C84 C 0.76212 0.81808 0.09032 0.0
O85 O 0.74477 0.78688 0.08258 0.0
N86 N 0.75625 0.71723 0.12728 0.0
C87 C 0.7446 0.63911 0.12508 0.0
C88 C 0.77317 0.6557 0.13955 0.0
C89 C 0.77858 0.695 0.14039 0.0
C90 C 0.72807 0.70168 0.11351 0.0
C91 C 0.72135 0.66281 0.11246 0.0
H92 H 0.80211 0.70728 0.15025 0.0
H93 H 0.71146 0.71954 0.10257 0.0
H94 H 0.84883 0.80033 0.12854 0.0
H95 H 0.87981 0.7105 0.08235 0.0
H96 H 0.64673 0.76308 0.17192 0.0
H97 H 0.7923 0.63849 0.14923 0.0
H98 H 0.69859 0.65148 0.10139 0.0
C99 C 0.34454 0.72833 0.63793 0.0
C100 C 0.34351 0.69027 0.64187 0.0
N101 N 0.30807 0.67973 0.6478 0.0
N102 N 0.30962 0.74228 0.64045 0.0
C103 C 0.28825 0.71199 0.64768 0.0
H104 H 0.36956 0.7446 0.6332 0.0
Co105 Co 0.2995 0.79434 0.63503 0.0
C106 C 0.24 0.75451 0.60199 0.0
O107 O 0.24936 0.71972 0.60608 0.0
N108 N 0.29077 0.84639 0.63012 0.0
C109 C 0.27934 0.89982 0.61162 0.0
C110 C 0.27968 0.86105 0.60935 0.0
C111 C 0.29726 0.87715 0.64473 0.0
N112 N 0.29046 0.91027 0.63394 0.0
O113 O 0.2679 0.79556 0.6633 0.0
H114 H 0.27368 0.84474 0.5931 0.0
H115 H 0.30757 0.87522 0.66279 0.0
O116 O 0.25679 0.78217 0.61315 0.0
C117 C 0.2899 0.80319 0.68091 0.0
O118 O 0.32617 0.80725 0.67637 0.0
N119 N 0.33365 0.79444 0.60901 0.0
C120 C 0.39735 0.78527 0.58 0.0
C121 C 0.36281 0.76754 0.57379 0.0
C122 C 0.33134 0.77217 0.58866 0.0
C123 C 0.36592 0.8147 0.61407 0.0
C124 C 0.39815 0.81046 0.59989 0.0
H125 H 0.30648 0.7554 0.58458 0.0
H126 H 0.36763 0.83174 0.63043 0.0
H127 H 0.2584 0.71318 0.65169 0.0
H128 H 0.36705 0.67155 0.64025 0.0
H129 H 0.27277 0.91869 0.59743 0.0
H130 H 0.36064 0.74833 0.55839 0.0
H131 H 0.42411 0.82445 0.60573 0.0
C132 C 0.33733 0.73294 0.89965 0.0
C133 C 0.3759 0.7338 0.89807 0.0
N134 N 0.3877 0.76902 0.89264 0.0
N135 N 0.32406 0.76733 0.89494 0.0
C136 C 0.35571 0.7889 0.89079 0.0
H137 H 0.32011 0.70892 0.90506 0.0
Co138 Co 0.2723 0.77873 0.90024 0.0
C139 C 0.30118 0.81912 0.93748 0.0
O140 O 0.30774 0.78404 0.94285 0.0
N141 N 0.22135 0.78926 0.90642 0.0
C142 C 0.16843 0.79622 0.92747 0.0
C143 C 0.20665 0.79146 0.92871 0.0
C144 C 0.1913 0.79218 0.89183 0.0
N145 N 0.15845 0.79651 0.90419 0.0
O146 O 0.2689 0.80172 0.86921 0.0
H147 H 0.22254 0.78803 0.94489 0.0
H148 H 0.19336 0.78943 0.87257 0.0
O149 O 0.2866 0.82544 0.91715 0.0
C150 C 0.28158 0.82803 0.85599 0.0
O151 O 0.30646 0.85296 0.86446 0.0
N152 N 0.25753 0.73238 0.88568 0.0
C153 C 0.23504 0.66126 0.86794 0.0
C154 C 0.22492 0.67309 0.89119 0.0
C155 C 0.23704 0.70856 0.89986 0.0
C156 C 0.26774 0.72134 0.86292 0.0
C157 C 0.25694 0.68556 0.85374 0.0
H158 H 0.23043 0.71695 0.91815 0.0
H159 H 0.28529 0.73962 0.85201 0.0
H160 H 0.35562 0.81903 0.88819 0.0
H161 H 0.39401 0.71041 0.90132 0.0
H162 H 0.14957 0.79858 0.94272 0.0
H163 H 0.20888 0.65452 0.90284 0.0
H164 H 0.26581 0.67684 0.83585 0.0
C165 C 0.29862 0.24153 0.44624 0.0
C166 C 0.30075 0.20348 0.4503 0.0
N167 N 0.27985 0.18423 0.43374 0.0
N168 N 0.27649 0.24663 0.42719 0.0
C169 C 0.26548 0.21111 0.41986 0.0
H170 H 0.31154 0.26424 0.45692 0.0
Co171 Co 0.26249 0.29479 0.41767 0.0
C172 C 0.24518 0.28535 0.36607 0.0
O173 O 0.26142 0.31865 0.36282 0.0
N174 N 0.2473 0.34495 0.40888 0.0
C175 C 0.21074 0.39191 0.39762 0.0
C176 C 0.21405 0.35317 0.39883 0.0
C177 C 0.26294 0.37975 0.41426 0.0
N178 N 0.2415 0.40867 0.40754 0.0
O179 O 0.21563 0.28643 0.43438 0.0
H180 H 0.19279 0.33226 0.39339 0.0
H181 H 0.28886 0.38447 0.42384 0.0
O182 O 0.24287 0.2721 0.3872 0.0
C183 C 0.21522 0.3046 0.4545 0.0
O184 O 0.23954 0.33289 0.45773 0.0
N185 N 0.31088 0.30204 0.4046 0.0
C186 C 0.3892 0.29762 0.40245 0.0
C187 C 0.36655 0.27613 0.38641 0.0
C188 C 0.32727 0.27854 0.3879 0.0
C189 C 0.33281 0.32394 0.41958 0.0
C190 C 0.37182 0.3237 0.41797 0.0
H191 H 0.31055 0.2581 0.3777 0.0
H192 H 0.32033 0.33788 0.43499 0.0
H193 H 0.24602 0.20508 0.40535 0.0
H194 H 0.31618 0.19095 0.46457 0.0
H195 H 0.18662 0.40657 0.39119 0.0
H196 H 0.37866 0.25484 0.37461 0.0
H197 H 0.38808 0.34079 0.43077 0.0
C198 C 0.82175 0.30376 0.96585 0.0
C199 C 0.86028 0.3005 0.96744 0.0
N200 N 0.87157 0.2751 0.95063 0.0
N201 N 0.80854 0.28073 0.94801 0.0
C202 C 0.83955 0.26337 0.93924 0.0
H203 H 0.80452 0.32253 0.9766 0.0
Co204 Co 0.75823 0.27863 0.93694 0.0
C205 C 0.76581 0.23501 0.89027 0.0
O206 O 0.73838 0.21117 0.89605 0.0
N207 N 0.70715 0.27709 0.9253 0.0
C208 C 0.65986 0.28952 0.90089 0.0
C209 C 0.69825 0.29009 0.90357 0.0
C210 C 0.67296 0.26867 0.93552 0.0
N211 N 0.64365 0.27626 0.921 0.0
O212 O 0.75215 0.22911 0.95038 0.0
H213 H 0.7185 0.30061 0.89059 0.0
H214 H 0.6694 0.25872 0.95357 0.0
O215 O 0.77623 0.26085 0.90537 0.0
C216 C 0.74108 0.23821 0.97167 0.0
O217 O 0.73344 0.27383 0.97624 0.0
N218 N 0.76386 0.32843 0.92784 0.0
C219 C 0.77973 0.40558 0.92907 0.0
C220 C 0.79978 0.38161 0.91345 0.0
C221 C 0.79161 0.34268 0.91329 0.0
C222 C 0.7427 0.35169 0.94194 0.0
C223 C 0.75008 0.39041 0.94277 0.0
H224 H 0.80933 0.32397 0.90293 0.0
H225 H 0.72154 0.33981 0.95382 0.0
H226 H 0.83888 0.24344 0.9242 0.0
H227 H 0.87854 0.31579 0.97998 0.0
H228 H 0.64497 0.29863 0.88531 0.0
H229 H 0.823 0.39251 0.90271 0.0
H230 H 0.73371 0.40818 0.95479 0.0
C231 C 0.73622 0.79164 0.41037 0.0
C232 C 0.73705 0.82951 0.41662 0.0
N233 N 0.77133 0.84417 0.41111 0.0
N234 N 0.7696 0.78211 0.40045 0.0
C235 C 0.79089 0.81461 0.4021 0.0
H236 H 0.7125 0.77231 0.41291 0.0
Co237 Co 0.78237 0.73201 0.39047 0.0
C238 C 0.80287 0.77849 0.34562 0.0
O239 O 0.78755 0.80924 0.35434 0.0
N240 N 0.79453 0.68117 0.38162 0.0
C241 C 0.79395 0.62712 0.36007 0.0
C242 C 0.79088 0.66577 0.35931 0.0
C243 C 0.80032 0.65096 0.39562 0.0
N244 N 0.79984 0.6177 0.38291 0.0
O245 O 0.82935 0.73961 0.4072 0.0
H246 H 0.78376 0.68129 0.34363 0.0
H247 H 0.80217 0.65284 0.41495 0.0
O248 O 0.80346 0.7488 0.35847 0.0
C249 C 0.82015 0.73239 0.4289 0.0
O250 O 0.78582 0.71933 0.43322 0.0
N251 N 0.73424 0.7236 0.37742 0.0
C252 C 0.65617 0.72149 0.37431 0.0
C253 C 0.67796 0.74392 0.35883 0.0
C254 C 0.71717 0.74454 0.36064 0.0
C255 C 0.71359 0.69856 0.39065 0.0
C256 C 0.67451 0.69664 0.38913 0.0
H257 H 0.73277 0.76457 0.35017 0.0
H258 H 0.72717 0.6825 0.40415 0.0
H259 H 0.82003 0.81675 0.39627 0.0
H260 H 0.71375 0.84532 0.42393 0.0
H261 H 0.79083 0.60727 0.34507 0.0
H262 H 0.66494 0.76363 0.34715 0.0
H263 H 0.65871 0.67831 0.40105 0.0
C264 C 0.83306 0.76394 0.85672 0.0
C265 C 0.87117 0.76424 0.85224 0.0
N266 N 0.88839 0.78636 0.86905 0.0
N267 N 0.82588 0.78621 0.8761 0.0
C268 C 0.86035 0.79929 0.88344 0.0
H269 H 0.81183 0.7484 0.84643 0.0
Co270 Co 0.77647 0.79383 0.88736 0.0
C271 C 0.78267 0.85602 0.92383 0.0
O272 O 0.75506 0.87329 0.91355 0.0
N273 N 0.72564 0.8005 0.89879 0.0
C274 C 0.6768 0.79812 0.92425 0.0
C275 C 0.71525 0.79637 0.92198 0.0
C276 C 0.69236 0.80487 0.88734 0.0
N277 N 0.66219 0.80323 0.90245 0.0
O278 O 0.77339 0.83473 0.8655 0.0
H279 H 0.73444 0.79121 0.9364 0.0
H280 H 0.68983 0.80753 0.86818 0.0
O281 O 0.79544 0.82594 0.91403 0.0
C282 C 0.76067 0.81884 0.84623 0.0
O283 O 0.74776 0.78374 0.84721 0.0
N284 N 0.77981 0.75123 0.90559 0.0
C285 C 0.78977 0.67874 0.92163 0.0
C286 C 0.81097 0.70936 0.93144 0.0
C287 C 0.80573 0.74568 0.92299 0.0
C288 C 0.75789 0.72211 0.89672 0.0
C289 C 0.76212 0.68567 0.90466 0.0
H290 H 0.82395 0.76869 0.92938 0.0
H291 H 0.73818 0.72701 0.88254 0.0
H292 H 0.86487 0.81828 0.89873 0.0
H293 H 0.88526 0.74899 0.83783 0.0
H294 H 0.66077 0.79525 0.94073 0.0
H295 H 0.83274 0.70499 0.94447 0.0
H296 H 0.74475 0.66288 0.89695 0.0
C297 C 0.31674 0.73769 0.41309 0.0
C298 C 0.31742 0.70025 0.41871 0.0
N299 N 0.28356 0.68403 0.41378 0.0
N300 N 0.28278 0.74578 0.40413 0.0
C301 C 0.26272 0.71237 0.40536 0.0
H302 H 0.33953 0.75808 0.41616 0.0
Co303 Co 0.26993 0.79683 0.39746 0.0
C304 C 0.24459 0.75517 0.35078 0.0
O305 O 0.2563 0.72169 0.35629 0.0
N306 N 0.25762 0.84819 0.39174 0.0
C307 C 0.24671 0.90167 0.37307 0.0
C308 C 0.25 0.86319 0.37037 0.0
C309 C 0.25883 0.87862 0.40716 0.0
N310 N 0.25264 0.91177 0.39622 0.0
O311 O 0.22391 0.78958 0.41533 0.0
H312 H 0.2484 0.8477 0.35347 0.0
H313 H 0.26612 0.87659 0.42583 0.0
O314 O 0.24719 0.78264 0.3661 0.0
C315 C 0.23451 0.79602 0.43696 0.0
O316 O 0.2699 0.80603 0.44083 0.0
N317 N 0.31718 0.80516 0.38277 0.0
C318 C 0.39495 0.80482 0.37711 0.0
C319 C 0.37178 0.78216 0.36207 0.0
C320 C 0.33273 0.78271 0.36522 0.0
C321 C 0.33924 0.83044 0.39553 0.0
C322 C 0.37819 0.8312 0.39269 0.0
H323 H 0.3161 0.76178 0.35557 0.0
H324 H 0.3272 0.84719 0.40994 0.0
H325 H 0.23314 0.70919 0.40097 0.0
H326 H 0.341 0.68606 0.42627 0.0
H327 H 0.2411 0.92063 0.35874 0.0
H328 H 0.38365 0.76118 0.34993 0.0
H329 H 0.39516 0.84954 0.4044 0.0
C330 C 0.31788 0.33058 0.91783 0.0
C331 C 0.35614 0.33161 0.92134 0.0
N332 N 0.36804 0.29593 0.92209 0.0
N333 N 0.305 0.29436 0.9156 0.0
C334 C 0.33633 0.27386 0.91928 0.0
H335 H 0.3006 0.35518 0.9172 0.0
Co336 Co 0.25282 0.27949 0.91067 0.0
C337 C 0.29016 0.24307 0.86572 0.0
O338 O 0.32516 0.24522 0.87301 0.0
N339 N 0.20094 0.26539 0.90632 0.0
C340 C 0.14669 0.25307 0.88743 0.0
C341 C 0.1845 0.26076 0.88462 0.0
C342 C 0.17178 0.2613 0.92216 0.0
N343 N 0.13854 0.25357 0.91097 0.0
O344 O 0.25995 0.23514 0.929 0.0
H345 H 0.19866 0.26433 0.8676 0.0
H346 H 0.17476 0.26425 0.94141 0.0
O347 O 0.26362 0.25374 0.87971 0.0
C348 C 0.25779 0.24551 0.95104 0.0
O349 O 0.2517 0.28119 0.9564 0.0
N350 N 0.24447 0.32423 0.89446 0.0
C351 C 0.22743 0.39276 0.87433 0.0
C352 C 0.2539 0.36916 0.86334 0.0
C353 C 0.26205 0.33487 0.8737 0.0
C354 C 0.21925 0.34723 0.90559 0.0
C355 C 0.20999 0.38142 0.89571 0.0
H356 H 0.28339 0.31773 0.86543 0.0
H357 H 0.20639 0.33901 0.92238 0.0
H358 H 0.33606 0.24328 0.91933 0.0
H359 H 0.37384 0.35686 0.9235 0.0
H360 H 0.12638 0.24847 0.87321 0.0
H361 H 0.26836 0.37726 0.847 0.0
H362 H 0.19019 0.39935 0.90512 0.0
C363 C 0.73063 0.30146 0.43064 0.0
C364 C 0.73241 0.33945 0.42608 0.0
N365 N 0.76798 0.34901 0.41978 0.0
N366 N 0.76466 0.28622 0.42655 0.0
C367 C 0.78716 0.31637 0.42049 0.0
H368 H 0.70597 0.28598 0.437 0.0
Co369 Co 0.77511 0.23406 0.43198 0.0
C370 C 0.82662 0.23796 0.38709 0.0
O371 O 0.85368 0.26117 0.39474 0.0
N372 N 0.78557 0.18248 0.43799 0.0
C373 C 0.79151 0.13051 0.45918 0.0
C374 C 0.78819 0.169 0.46029 0.0
C375 C 0.78754 0.15104 0.42348 0.0
N376 N 0.79092 0.11896 0.43604 0.0
O377 O 0.81976 0.24995 0.44986 0.0
H378 H 0.78577 0.18566 0.47657 0.0
H379 H 0.78454 0.15132 0.40425 0.0
O380 O 0.79941 0.22893 0.40101 0.0
C381 C 0.80581 0.25892 0.47047 0.0
O382 O 0.76892 0.25805 0.47288 0.0
N383 N 0.72939 0.21883 0.41754 0.0
C384 C 0.65235 0.21723 0.40957 0.0
C385 C 0.67716 0.23378 0.39284 0.0
C386 C 0.71611 0.23352 0.39693 0.0
C387 C 0.70592 0.1986 0.43212 0.0
C388 C 0.66755 0.19604 0.42781 0.0
H389 H 0.73483 0.24963 0.38541 0.0
H390 H 0.71611 0.18753 0.44861 0.0
H391 H 0.8171 0.31467 0.41711 0.0
H392 H 0.70957 0.35894 0.42816 0.0
H393 H 0.79347 0.11228 0.47437 0.0
H394 H 0.66668 0.25014 0.37833 0.0
H395 H 0.64952 0.18148 0.44057 0.0
C396 C 0.82434 0.30486 0.16352 0.0
C397 C 0.86271 0.30516 0.16 0.0
N398 N 0.87473 0.26986 0.1626 0.0
N399 N 0.81154 0.26926 0.16772 0.0
C400 C 0.84331 0.24868 0.16737 0.0
H401 H 0.80728 0.32967 0.16409 0.0
Co402 Co 0.76105 0.25467 0.17678 0.0
C403 C 0.77163 0.19166 0.13935 0.0
O404 O 0.79611 0.1729 0.1515 0.0
N405 N 0.71123 0.24068 0.18618 0.0
C406 C 0.66144 0.23474 0.21044 0.0
C407 C 0.69998 0.23896 0.20929 0.0
C408 C 0.6787 0.2371 0.17352 0.0
N409 N 0.64789 0.23381 0.18798 0.0
O410 O 0.78044 0.2174 0.19788 0.0
H411 H 0.71835 0.24268 0.22455 0.0
H412 H 0.67744 0.23952 0.15424 0.0
O413 O 0.75711 0.2212 0.14867 0.0
C414 C 0.79386 0.2364 0.2159 0.0
O415 O 0.79322 0.2735 0.21547 0.0
N416 N 0.74218 0.29361 0.15903 0.0
C417 C 0.72638 0.36349 0.14059 0.0
C418 C 0.741 0.33475 0.12563 0.0
C419 C 0.74854 0.29963 0.13523 0.0
C420 C 0.72552 0.32022 0.17325 0.0
C421 C 0.71655 0.35495 0.16426 0.0
H422 H 0.76264 0.27881 0.12413 0.0
H423 H 0.72116 0.31525 0.19213 0.0
H424 H 0.84373 0.21905 0.17153 0.0
H425 H 0.88068 0.32989 0.15715 0.0
H426 H 0.64452 0.23361 0.22666 0.0
H427 H 0.74917 0.34012 0.10726 0.0
H428 H 0.70411 0.37576 0.17626 0.0
C429 C 0.69932 0.82004 0.63241 0.0
C430 C 0.69168 0.85765 0.63467 0.0
N431 N 0.72437 0.87773 0.63657 0.0
N432 N 0.7369 0.81532 0.6323 0.0
C433 C 0.7514 0.85116 0.63606 0.0
H434 H 0.67839 0.79731 0.63123 0.0
Co435 Co 0.75643 0.76504 0.63088 0.0
C436 C 0.80775 0.80434 0.59289 0.0
O437 O 0.79368 0.83806 0.59535 0.0
N438 N 0.7742 0.71405 0.63035 0.0
C439 C 0.79391 0.65871 0.61556 0.0
C440 C 0.79029 0.69651 0.61123 0.0
C441 C 0.76807 0.68566 0.6461 0.0
N442 N 0.77964 0.65142 0.63747 0.0
O443 O 0.78798 0.7789 0.658 0.0
H444 H 0.79694 0.70965 0.59443 0.0
H445 H 0.75333 0.68966 0.66298 0.0
O446 O 0.79606 0.77773 0.6065 0.0
C447 C 0.76539 0.7766 0.67595 0.0
O448 O 0.73135 0.76231 0.67196 0.0
N449 N 0.72249 0.75121 0.60614 0.0
C450 C 0.65867 0.73918 0.57793 0.0
C451 C 0.68692 0.76534 0.57125 0.0
C452 C 0.71871 0.77094 0.58561 0.0
C453 C 0.69627 0.72407 0.61208 0.0
C454 C 0.66434 0.71728 0.59807 0.0
H455 H 0.73807 0.79365 0.58128 0.0
H456 H 0.69854 0.70964 0.62881 0.0
H457 H 0.78116 0.85769 0.6382 0.0
H458 H 0.66378 0.8692 0.63519 0.0
H459 H 0.80544 0.6381 0.60308 0.0
H460 H 0.68331 0.78306 0.55595 0.0
H461 H 0.64279 0.69738 0.60415 0.0
C462 C 0.32764 0.73824 0.11065 0.0
C463 C 0.36609 0.74042 0.10795 0.0
N464 N 0.37869 0.77351 0.11765 0.0
N465 N 0.31559 0.76914 0.12286 0.0
C466 C 0.34744 0.79102 0.12594 0.0
H467 H 0.30955 0.71492 0.10453 0.0
Co468 Co 0.26358 0.77436 0.13102 0.0
C469 C 0.29799 0.79985 0.18034 0.0
O470 O 0.33367 0.79368 0.17585 0.0
N471 N 0.21116 0.779 0.13853 0.0
C472 C 0.15722 0.77025 0.15879 0.0
C473 C 0.1958 0.76901 0.15982 0.0
C474 C 0.18084 0.78687 0.12495 0.0
N475 N 0.14779 0.7815 0.1369 0.0
O476 O 0.26584 0.82348 0.11722 0.0
H477 H 0.21157 0.75948 0.1749 0.0
H478 H 0.18258 0.79459 0.10635 0.0
O479 O 0.27344 0.79423 0.16389 0.0
C480 C 0.25819 0.81794 0.09505 0.0
O481 O 0.24771 0.78366 0.08774 0.0
N482 N 0.26164 0.72454 0.14215 0.0
C483 C 0.26812 0.64661 0.14728 0.0
C484 C 0.29222 0.67253 0.15957 0.0
C485 C 0.28816 0.71121 0.15704 0.0
C486 C 0.23677 0.7001 0.13092 0.0
C487 C 0.23885 0.66116 0.13375 0.0
H488 H 0.30907 0.7299 0.16505 0.0
H489 H 0.21637 0.71066 0.11868 0.0
H490 H 0.34792 0.81875 0.1346 0.0
H491 H 0.3836 0.71913 0.09964 0.0
H492 H 0.13747 0.76277 0.17291 0.0
H493 H 0.31594 0.66348 0.16976 0.0
H494 H 0.21854 0.64285 0.1245 0.0
C495 C 0.35064 0.2416 0.66711 0.0
C496 C 0.3561 0.20393 0.67089 0.0
N497 N 0.32568 0.18381 0.66293 0.0
N498 N 0.31689 0.24562 0.65681 0.0
C499 C 0.30226 0.20984 0.65441 0.0
H500 H 0.37006 0.26476 0.6716 0.0
Co501 Co 0.29783 0.29308 0.6494 0.0
C502 C 0.22883 0.27342 0.62224 0.0
O503 O 0.20951 0.29532 0.63689 0.0
N504 N 0.27892 0.34163 0.64189 0.0
C505 C 0.26593 0.39017 0.61895 0.0
C506 C 0.27125 0.35196 0.61932 0.0
C507 C 0.278 0.37465 0.65497 0.0
N508 N 0.27043 0.40465 0.64129 0.0
O509 O 0.26304 0.28775 0.67598 0.0
H510 H 0.27232 0.3334 0.60364 0.0
H511 H 0.28576 0.37726 0.67365 0.0
O512 O 0.26372 0.26875 0.62611 0.0
C513 C 0.28252 0.2986 0.69421 0.0
O514 O 0.31531 0.31556 0.69014 0.0
N515 N 0.33519 0.29866 0.62564 0.0
C516 C 0.40446 0.30326 0.60165 0.0
C517 C 0.37968 0.27195 0.59778 0.0
C518 C 0.34475 0.27049 0.60972 0.0
C519 C 0.35774 0.33023 0.62831 0.0
C520 C 0.3915 0.3338 0.61571 0.0
H521 H 0.32707 0.2452 0.60789 0.0
H522 H 0.35079 0.35199 0.64142 0.0
H523 H 0.27475 0.20305 0.647 0.0
H524 H 0.38086 0.19223 0.6787 0.0
H525 H 0.26102 0.40642 0.60316 0.0
H526 H 0.38814 0.24753 0.5872 0.0
H527 H 0.40857 0.35933 0.61854 0.0
H528 H 0.93124 0.29503 0.13368 0.0
H529 H 0.90655 0.22071 0.19255 0.0
H530 H 0.97447 0.20676 0.19533 0.0
H531 H 1.00366 0.23756 0.10582 0.0
H532 H 0.0318 0.27796 0.09674 0.0
H533 H 0.98142 0.28133 0.09952 0.0
H534 H 0.99032 0.33879 0.12888 0.0
H535 H 0.04072 0.33541 0.12634 0.0
H536 H 1.01824 0.33417 0.15542 0.0
H537 H 0.04684 0.20466 0.19304 0.0
H538 H 0.11508 0.20879 0.18286 0.0
H539 H 0.09102 0.28213 0.12434 0.0
C540 C 0.94016 0.27566 0.14707 0.0
C541 C 0.91365 0.25895 0.16292 0.0
C542 C 0.92632 0.23349 0.18007 0.0
C543 C 0.96488 0.22567 0.18188 0.0
C544 C 0.99039 0.24313 0.16618 0.0
C545 C 0.97835 0.26713 0.14884 0.0
C546 C 1.0111 0.28181 0.1338 0.0
C547 C 1.00673 0.26888 0.10741 0.0
C548 C 1.01533 0.32511 0.13627 0.0
C549 C 0.04359 0.26264 0.14546 0.0
C550 C 0.03128 0.24075 0.16428 0.0
C551 C 0.05663 0.22144 0.17817 0.0
C552 C 0.09534 0.2241 0.17239 0.0
C553 C 0.10831 0.24545 0.1527 0.0
C554 C 0.08191 0.26509 0.13925 0.0
H555 H 0.81168 0.08549 0.66881 0.0
H556 H 0.71187 0.12963 0.63643 0.0
H557 H 0.68884 0.0645 0.62726 0.0
H558 H 0.8238 1.00709 0.62676 0.0
H559 H 0.83854 0.97475 0.64903 0.0
H560 H 0.84754 0.02482 0.65337 0.0
H561 H 0.8126 1.02324 0.69425 0.0
H562 H 0.80361 0.97315 0.69008 0.0
H563 H 0.76499 1.00425 0.69566 0.0
H564 H 0.67728 0.99526 0.62029 0.0
H565 H 0.67531 0.9261 0.61796 0.0
H566 H 0.78161 0.92387 0.65575 0.0
C567 C 0.78504 0.08153 0.6597 0.0
C568 C 0.76362 0.11315 0.65337 0.0
C569 C 0.72866 0.10629 0.64176 0.0
C570 C 0.71545 0.06925 0.63631 0.0
C571 C 0.7373 0.03896 0.64264 0.0
C572 C 0.77123 0.04455 0.65424 0.0
C573 C 0.78876 1.0067 0.65931 0.0
C574 C 0.82693 1.00314 0.64634 0.0
C575 C 0.79272 1.00154 0.68644 0.0
C576 C 0.75941 0.97898 0.64865 0.0
C577 C 0.73014 0.9985 0.63908 0.0
C578 C 0.69982 0.97974 0.628 0.0
C579 C 0.69888 0.94013 0.62695 0.0
C580 C 0.72786 0.91888 0.6371 0.0
C581 C 0.75891 0.93891 0.64785 0.0
H582 H 0.93311 0.71466 0.12018 0.0
H583 H 0.9099 0.82817 0.09879 0.0
H584 H 0.97804 0.84574 0.10194 0.0
H585 H 1.00209 0.74337 0.1648 0.0
H586 H 0.03091 0.70289 0.15927 0.0
H587 H 0.98097 0.69931 0.15397 0.0
H588 H 0.9939 0.67647 0.11024 0.0
H589 H 0.04391 0.6803 0.11536 0.0
H590 H 0.02348 0.70511 0.09108 0.0
H591 H 0.05022 0.84946 0.10595 0.0
H592 H 0.11759 0.84192 0.11626 0.0
H593 H 0.09206 0.72792 0.13868 0.0
C594 C 0.94257 0.74315 0.11612 0.0
C595 C 0.91653 0.77008 0.10904 0.0
C596 C 0.92958 0.80728 0.10424 0.0
C597 C 0.96819 0.81734 0.10585 0.0
C598 C 0.99331 0.79002 0.11275 0.0
C599 C 0.98082 0.75387 0.11827 0.0
C600 C 1.01301 0.73045 0.12674 0.0
C601 C 1.00634 0.7183 0.15274 0.0
C602 C 1.01891 0.69605 0.10984 0.0
C603 C 0.04566 0.75887 0.12501 0.0
C604 C 0.03396 0.79288 0.11647 0.0
C605 C 0.05952 0.82301 0.11281 0.0
C606 C 0.09772 0.8185 0.11853 0.0
C607 C 0.10982 0.78445 0.12826 0.0
C608 C 0.0834 0.75428 0.13133 0.0
H609 H 0.26695 0.97629 0.61447 0.0
H610 H 0.32747 0.9333 0.67496 0.0
H611 H 0.33935 0.99847 0.68987 0.0
H612 H 0.32909 0.05509 0.60446 0.0
H613 H 0.29236 0.08635 0.59634 0.0
H614 H 0.28627 0.03614 0.59112 0.0
H615 H 0.22422 0.03651 0.61586 0.0
H616 H 0.23017 0.08676 0.62121 0.0
H617 H 0.22456 0.05565 0.64613 0.0
H618 H 0.34765 0.06865 0.6974 0.0
H619 H 0.35197 0.13824 0.69682 0.0
H620 H 0.28741 0.13667 0.63117 0.0
C621 C 0.28275 0.98017 0.63085 0.0
C622 C 0.2962 0.9488 0.64336 0.0
C623 C 0.31639 0.95613 0.66493 0.0
C624 C 0.32345 0.99333 0.67359 0.0
C625 C 0.31018 1.02329 0.66062 0.0
C626 C 0.29021 1.01716 0.63972 0.0
C627 C 0.28018 0.05446 0.62876 0.0
C628 C 0.29805 0.05822 0.60369 0.0
C629 C 0.23722 0.05858 0.62795 0.0
C630 C 0.29806 0.08257 0.64663 0.0
C631 C 0.31505 0.06388 0.66492 0.0
C632 C 0.33437 0.08351 0.68318 0.0
C633 C 0.33684 0.12313 0.68262 0.0
C634 C 0.32019 0.14312 0.66392 0.0
C635 C 0.30006 0.12236 0.64586 0.0
H636 H 0.93254 0.78665 0.90886 0.0
H637 H 0.93507 0.80211 0.83213 0.0
H638 H 1.00453 0.80922 0.83303 0.0
H639 H 1.01219 0.85188 0.92408 0.0
H640 H 0.02989 0.82172 0.94668 0.0
H641 H 0.98019 0.82129 0.94035 0.0
H642 H 0.98107 0.74893 0.93221 0.0
H643 H 0.03076 0.74919 0.9384 0.0
H644 H 1.01345 0.73005 0.9102 0.0
H645 H 0.07402 0.81193 0.84193 0.0
H646 H 0.13821 0.80942 0.85796 0.0
H647 H 0.09115 0.78897 0.92882 0.0
C648 C 0.9478 0.79238 0.89241 0.0
C649 C 0.92847 0.79421 0.87043 0.0
C650 C 0.9494 0.8007 0.84912 0.0
C651 C 0.98882 0.80483 0.84948 0.0
C652 C 1.00718 0.80212 0.8713 0.0
C653 C 0.98742 0.79603 0.89241 0.0
C654 C 1.01429 0.79199 0.91316 0.0
C655 C 1.00881 0.82361 0.93219 0.0
C656 C 1.00961 0.75271 0.92413 0.0
C657 C 0.0521 0.79655 0.90039 0.0
C658 C 0.04734 0.80264 0.8763 0.0
C659 C 0.07808 0.80719 0.8608 0.0
C660 C 0.11464 0.80545 0.87012 0.0
C661 C 0.12051 0.79888 0.89478 0.0
C662 C 0.08839 0.79447 0.90998 0.0
H663 H 0.25771 0.97873 0.37207 0.0
H664 H 0.25223 0.93342 0.44371 0.0
H665 H 0.2571 0.99826 0.46082 0.0
H666 H 0.32387 0.05382 0.38458 0.0
H667 H 0.30185 0.08692 0.36551 0.0
H668 H 0.29749 0.03695 0.35879 0.0
H669 H 0.2248 0.04111 0.35924 0.0
H670 H 0.22894 0.09113 0.36596 0.0
H671 H 0.20141 0.06088 0.3853 0.0
H672 H 0.26446 0.0684 0.47031 0.0
H673 H 0.27283 0.13789 0.47141 0.0
H674 H 0.27124 0.1383 0.39375 0.0
C675 C 0.25703 0.98201 0.39137 0.0
C676 C 0.25459 0.95014 0.4064 0.0
C677 C 0.25447 0.95674 0.43161 0.0
C678 C 0.25702 0.99369 0.44156 0.0
C679 C 0.25945 0.02416 0.42619 0.0
C680 C 0.2593 1.01872 0.40162 0.0
C681 C 0.26254 0.05632 0.38903 0.0
C682 C 0.29859 0.05863 0.37357 0.0
C683 C 0.22732 0.06273 0.37399 0.0
C684 C 0.26482 0.08384 0.41037 0.0
C685 C 0.26304 0.0646 0.43163 0.0
C686 C 0.26574 0.08366 0.45376 0.0
C687 C 0.27067 0.12319 0.4542 0.0
C688 C 0.27275 0.14368 0.43269 0.0
C689 C 0.26931 0.12356 0.41049 0.0
H690 H 0.93681 0.3171 0.95761 0.0
H691 H 0.89378 0.20771 0.9317 0.0
H692 H 0.95876 0.18855 0.92238 0.0
H693 H 1.00835 0.32782 0.913 0.0
H694 H 0.04225 0.35069 0.93284 0.0
H695 H 0.99262 0.35495 0.93882 0.0
H696 H 1.0017 0.32895 0.98125 0.0
H697 H 0.05137 0.32433 0.97532 0.0
H698 H 0.02331 0.28391 0.98449 0.0
H699 H 0.02801 0.18214 0.91403 0.0
H700 H 0.09613 0.19037 0.9051 0.0
H701 H 0.09564 0.30329 0.93664 0.0
C702 C 0.94105 0.28889 0.95032 0.0
C703 C 0.90989 0.26384 0.94551 0.0
C704 C 0.9169 0.22753 0.93541 0.0
C705 C 0.95383 0.21628 0.93023 0.0
C706 C 0.98378 0.24161 0.93519 0.0
C707 C 0.97784 0.27726 0.9449 0.0
C708 C 1.01489 0.29976 0.94724 0.0
C709 C 1.01449 0.33541 0.93207 0.0
C710 C 0.02331 0.30983 0.97365 0.0
C711 C 0.04258 0.27133 0.93711 0.0
C712 C 0.02393 0.23785 0.93046 0.0
C713 C 0.0429 0.20801 0.91948 0.0
C714 C 0.08159 0.21278 0.9146 0.0
C715 C 0.10124 0.24696 0.92077 0.0
C716 C 0.08153 0.27642 0.93253 0.0
H717 H 0.75992 0.05777 0.45794 0.0
H718 H 0.82284 0.09144 0.39476 0.0
H719 H 0.82744 0.02389 0.382 0.0
H720 H 0.81035 0.97409 0.4698 0.0
H721 H 0.76903 0.94745 0.47918 0.0
H722 H 0.77095 0.99815 0.48314 0.0
H723 H 0.70928 1.00298 0.45904 0.0
H724 H 0.70695 0.9523 0.45524 0.0
H725 H 0.70633 0.98171 0.42937 0.0
H726 H 0.82698 0.95106 0.3774 0.0
H727 H 0.81513 0.88176 0.37882 0.0
H728 H 0.75096 0.89707 0.44458 0.0
C729 C 0.77484 0.051 0.44146 0.0
C730 C 0.7914 0.07997 0.42745 0.0
C731 C 0.80988 0.06981 0.40572 0.0
C732 C 0.81283 0.03148 0.39846 0.0
C733 C 0.79678 1.00362 0.413 0.0
C734 C 0.77767 1.0131 0.43389 0.0
C735 C 0.7618 0.97822 0.44606 0.0
C736 C 0.77907 0.97426 0.47102 0.0
C737 C 0.71853 0.97885 0.4475 0.0
C738 C 0.77493 0.94741 0.42883 0.0
C739 C 0.79547 0.96246 0.41 0.0
C740 C 0.81081 0.93916 0.39205 0.0
C741 C 0.80423 0.89976 0.39309 0.0
C742 C 0.7821 0.88395 0.41179 0.0
C743 C 0.76776 0.90829 0.42999 0.0
H744 H 0.2581 0.43286 0.09716 0.0
H745 H 0.32892 0.40461 0.1565 0.0
H746 H 0.33581 0.47224 0.16817 0.0
H747 H 0.31105 0.52557 0.08391 0.0
H748 H 0.26795 0.54753 0.07582 0.0
H749 H 0.2734 0.49758 0.07026 0.0
H750 H 0.21196 0.48435 0.09438 0.0
H751 H 0.20693 0.53405 0.10072 0.0
H752 H 0.20838 0.50156 0.12501 0.0
H753 H 0.32265 0.53939 0.17846 0.0
H754 H 0.30371 0.60535 0.18162 0.0
H755 H 0.24953 0.5925 0.11201 0.0
C756 C 0.27651 0.44132 0.11184 0.0
C757 C 0.29362 0.41406 0.12574 0.0
C758 C 0.31646 0.42551 0.1454 0.0
C759 C 0.3202 0.46371 0.15226 0.0
C760 C 0.30162 0.48995 0.13888 0.0
C761 C 0.28143 0.47954 0.11853 0.0
C762 C 0.26322 0.51339 0.10792 0.0
C763 C 0.27991 0.5215 0.083 0.0
C764 C 0.22007 0.50798 0.10697 0.0
C765 C 0.2748 0.54391 0.12614 0.0
C766 C 0.29657 0.52969 0.14395 0.0
C767 C 0.30706 0.55139 0.16407 0.0
C768 C 0.29619 0.5891 0.1656 0.0
C769 C 0.27586 0.60527 0.14679 0.0
C770 C 0.2649 0.58182 0.1269 0.0
H771 H 0.46426 0.33468 0.62627 0.0
H772 H 0.4379 0.26685 0.56227 0.0
H773 H 0.50614 0.25821 0.55529 0.0
H774 H 0.55176 0.38132 0.60249 0.0
H775 H 0.5733 0.38048 0.63159 0.0
H776 H 0.52305 0.38511 0.62922 0.0
H777 H 0.51251 0.32662 0.65575 0.0
H778 H 0.56247 0.32159 0.65807 0.0
H779 H 0.53345 0.28255 0.64683 0.0
H780 H 0.57779 0.24989 0.55926 0.0
H781 H 0.64327 0.24334 0.57392 0.0
H782 H 0.61982 0.32038 0.63331 0.0
C783 C 0.4723 0.31947 0.61005 0.0
C784 C 0.44518 0.30194 0.59469 0.0
C785 C 0.45786 0.28054 0.57446 0.0
C786 C 0.49666 0.27576 0.5702 0.0
C787 C 0.52242 0.29309 0.58608 0.0
C788 C 0.51049 0.31497 0.60541 0.0
C789 C 0.54279 0.32805 0.62123 0.0
C790 C 0.54803 0.37131 0.62111 0.0
C791 C 0.53747 0.31383 0.64696 0.0
C792 C 0.57486 0.30891 0.60843 0.0
C793 C 0.56299 0.28912 0.58801 0.0
C794 C 0.58748 0.26608 0.57485 0.0
C795 C 0.62455 0.26256 0.58319 0.0
C796 C 0.63629 0.28185 0.60446 0.0
C797 C 0.61149 0.30604 0.6167 0.0
H798 H 0.74424 0.42675 0.16757 0.0
H799 H 0.70852 0.39051 0.09613 0.0
H800 H 0.71013 0.45738 0.08396 0.0
H801 H 0.68804 0.50972 0.17166 0.0
H802 H 0.72327 0.53665 0.18837 0.0
H803 H 0.71981 0.48606 0.1909 0.0
H804 H 0.79019 0.48133 0.17865 0.0
H805 H 0.79381 0.53187 0.17588 0.0
H806 H 0.8064 0.50131 0.15089 0.0
H807 H 0.71704 0.52852 0.07986 0.0
H808 H 0.72629 0.59763 0.08423 0.0
H809 H 0.75275 0.58591 0.15948 0.0
C810 C 0.73591 0.43265 0.14946 0.0
C811 C 0.72574 0.40329 0.13288 0.0
C812 C 0.71649 0.41248 0.10913 0.0
C813 C 0.7172 0.45035 0.1021 0.0
C814 C 0.72712 0.47848 0.11908 0.0
C815 C 0.73606 0.46998 0.1423 0.0
C816 C 0.74552 0.5051 0.15729 0.0
C817 C 0.71748 0.50965 0.17829 0.0
C818 C 0.78641 0.50487 0.16619 0.0
C819 C 0.74057 0.53496 0.13888 0.0
C820 C 0.73017 0.51912 0.11691 0.0
C821 C 0.72474 0.54122 0.09706 0.0
C822 C 0.7298 0.58051 0.0998 0.0
C823 C 0.73984 0.59739 0.12231 0.0
C824 C 0.74535 0.57405 0.14201 0.0
H825 H 0.61684 0.8005 0.57019 0.0
H826 H 0.6145 0.67831 0.56308 0.0
H827 H 0.54663 0.67882 0.55356 0.0
H828 H 0.53814 0.80685 0.60206 0.0
H829 H 0.52084 0.84937 0.58952 0.0
H830 H 0.57038 0.84077 0.58881 0.0
H831 H 0.57174 0.84724 0.54267 0.0
H832 H 0.52201 0.85637 0.54322 0.0
H833 H 0.53982 0.81864 0.52438 0.0
H834 H 0.47834 0.6913 0.55372 0.0
H835 H 0.41556 0.71391 0.56447 0.0
H836 H 0.46127 0.82877 0.5709 0.0
C837 C 0.60244 0.77404 0.56536 0.0
C838 C 0.62092 0.7394 0.56689 0.0
C839 C 0.60084 0.70513 0.56168 0.0
C840 C 0.56237 0.70522 0.55615 0.0
C841 C 0.54451 0.73982 0.55585 0.0
C842 C 0.56401 0.77369 0.5601 0.0
C843 C 0.53744 0.80633 0.56269 0.0
C844 C 0.54198 0.82699 0.58722 0.0
C845 C 0.54309 0.83376 0.542 0.0
C846 C 0.49985 0.78525 0.56083 0.0
C847 C 0.50454 0.74708 0.55621 0.0
C848 C 0.47422 0.72126 0.5566 0.0
C849 C 0.43845 0.73451 0.56263 0.0
C850 C 0.4332 0.7733 0.5684 0.0
C851 C 0.46422 0.79902 0.56653 0.0
H852 H 0.27896 0.44626 0.85986 0.0
H853 H 0.15894 0.42454 0.86865 0.0
H854 H 0.14701 0.49105 0.8597 0.0
H855 H 0.28266 0.52935 0.88986 0.0
H856 H 0.3174 0.5529 0.87132 0.0
H857 H 0.3161 0.50227 0.87257 0.0
H858 H 0.30942 0.49702 0.82639 0.0
H859 H 0.31094 0.54788 0.82496 0.0
H860 H 0.27197 0.52098 0.81201 0.0
H861 H 0.14897 0.56083 0.85845 0.0
H862 H 0.16482 0.62892 0.86433 0.0
H863 H 0.28329 0.60602 0.85516 0.0
C864 C 0.25011 0.45517 0.85884 0.0
C865 C 0.21983 0.43036 0.86477 0.0
C866 C 0.18249 0.44324 0.86415 0.0
C867 C 0.17545 0.48084 0.8589 0.0
C868 C 0.20605 0.50508 0.85408 0.0
C869 C 0.24266 0.49269 0.8537 0.0
C870 C 0.27079 0.52538 0.8513 0.0
C871 C 0.29832 0.52759 0.87253 0.0
C872 C 0.29203 0.52264 0.82722 0.0
C873 C 0.24442 0.55826 0.85191 0.0
C874 C 0.20713 0.54589 0.85299 0.0
C875 C 0.17792 0.57092 0.85683 0.0
C876 C 0.18711 0.60943 0.86022 0.0
C877 C 0.22512 0.62241 0.85968 0.0
C878 C 0.25396 0.59671 0.85479 0.0
H879 H 0.59962 0.22776 0.37355 0.0
H880 H 0.61541 0.2353 0.4508 0.0
H881 H 0.55086 0.25554 0.45627 0.0
H882 H 0.54341 0.31156 0.37103 0.0
H883 H 0.51214 0.29268 0.34813 0.0
H884 H 0.55984 0.27679 0.34947 0.0
H885 H 0.53508 0.20745 0.35186 0.0
H886 H 0.48731 0.22312 0.35046 0.0
H887 H 0.50161 0.19482 0.37499 0.0
H888 H 0.4863 0.27374 0.45466 0.0
H889 H 0.42222 0.29174 0.4458 0.0
H890 H 0.44525 0.27803 0.36939 0.0
C891 C 0.58931 0.23348 0.39156 0.0
C892 C 0.61245 0.22856 0.41176 0.0
C893 C 0.59804 0.23708 0.43504 0.0
C894 C 0.5614 0.24912 0.4384 0.0
C895 C 0.53933 0.25322 0.41834 0.0
C896 C 0.5524 0.24595 0.39534 0.0
C897 C 0.52216 0.25381 0.37712 0.0
C898 C 0.53517 0.28561 0.36045 0.0
C899 C 0.51088 0.21764 0.36276 0.0
C900 C 0.49037 0.26646 0.39368 0.0
C901 C 0.50131 0.2657 0.41732 0.0
C902 C 0.4774 0.27512 0.43621 0.0
C903 C 0.44107 0.28579 0.4309 0.0
C904 C 0.42885 0.28759 0.40683 0.0
C905 C 0.45387 0.27744 0.38793 0.0
H906 H 0.79609 0.61863 0.89059 0.0
H907 H 0.80046 0.65006 0.96622 0.0
H908 H 0.807 0.58274 0.97603 0.0
H909 H 0.73846 0.53969 0.89642 0.0
H910 H 0.76068 0.51172 0.87313 0.0
H911 H 0.76264 0.56243 0.87193 0.0
H912 H 0.83559 0.5618 0.86965 0.0
H913 H 0.83386 0.51093 0.87078 0.0
H914 H 0.86126 0.53836 0.8924 0.0
H915 H 0.80408 0.51218 0.97771 0.0
H916 H 0.79288 0.44348 0.97132 0.0
H917 H 0.79005 0.45829 0.89449 0.0
C918 C 0.7989 0.61139 0.90922 0.0
C919 C 0.79755 0.63936 0.92771 0.0
C920 C 0.80169 0.62898 0.95183 0.0
C921 C 0.80541 0.59089 0.95752 0.0
C922 C 0.80546 0.56387 0.93885 0.0
C923 C 0.80266 0.57371 0.91516 0.0
C924 C 0.80016 0.53924 0.89855 0.0
C925 C 0.7633 0.53822 0.88418 0.0
C926 C 0.83479 0.53749 0.88186 0.0
C927 C 0.80035 0.5083 0.91668 0.0
C928 C 0.80398 0.52309 0.93979 0.0
C929 C 0.80186 0.50025 0.9597 0.0
C930 C 0.79526 0.4614 0.95591 0.0
C931 C 0.79069 0.44587 0.93241 0.0
C932 C 0.79412 0.4695 0.91256 0.0
H933 H 0.44917 0.78881 0.34261 0.0
H934 H 0.4298 0.79675 0.41957 0.0
H935 H 0.49334 0.77423 0.42655 0.0
H936 H 0.50159 0.70382 0.34275 0.0
H937 H 0.53466 0.71808 0.31978 0.0
H938 H 0.48772 0.73617 0.32025 0.0
H939 H 0.51509 0.80485 0.32139 0.0
H940 H 0.5621 0.78696 0.32061 0.0
H941 H 0.54823 0.81922 0.34441 0.0
H942 H 0.55671 0.74917 0.42582 0.0
H943 H 0.62082 0.72824 0.41748 0.0
H944 H 0.60124 0.73522 0.34095 0.0
C945 C 0.45858 0.78616 0.36089 0.0
C946 C 0.43477 0.79517 0.38054 0.0
C947 C 0.44787 0.79107 0.40423 0.0
C948 C 0.48377 0.77783 0.40842 0.0
C949 C 0.5063 0.76876 0.38875 0.0
C950 C 0.49465 0.77311 0.36545 0.0
C951 C 0.52507 0.76146 0.3477 0.0
C952 C 0.51143 0.72788 0.33168 0.0
C953 C 0.53841 0.79513 0.33264 0.0
C954 C 0.55542 0.74988 0.36477 0.0
C955 C 0.54363 0.75406 0.38832 0.0
C956 C 0.56635 0.74557 0.40746 0.0
C957 C 0.60261 0.73323 0.40249 0.0
C958 C 0.61591 0.72947 0.37853 0.0
C959 C 0.59178 0.73762 0.35942 0.0
H960 H 0.3466 0.22093 0.07602 0.0
H961 H 0.23706 0.17801 0.09929 0.0
H962 H 0.21824 0.16866 0.05688 0.0
H963 H 0.3134 0.27633 0.03325 0.0
H964 H 0.35164 0.27019 1.01214 0.0
H965 H 0.35948 0.26449 0.04355 0.0
H966 H 0.38387 0.19714 0.03478 0.0
H967 H 0.37597 0.2027 1.0032 0.0
H968 H 0.35471 0.16305 1.01841 0.0
H969 H 0.20779 0.17431 1.01238 0.0
H970 H 0.20529 0.19871 0.97122 0.0
H971 H 0.32062 0.24007 0.97738 0.0
C972 C 0.31921 0.20799 0.07228 0.0
C973 C 0.29353 0.19958 0.09107 0.0
C974 C 0.25739 0.18419 0.08524 0.0
C975 C 0.24653 0.17869 0.06117 0.0
C976 C 0.2721 0.18866 0.04306 0.0
C977 C 0.30779 0.20296 0.04841 0.0
C978 C 0.32793 0.21714 0.02618 0.0
C979 C 0.3387 0.25953 0.02895 0.0
C980 C 0.36268 0.19359 1.0203 0.0
C981 C 0.29752 0.21014 1.00759 0.0
C982 C 0.26584 0.19272 1.01749 0.0
C983 C 0.2328 0.18693 1.00431 0.0
C984 C 0.23166 0.20054 0.98087 0.0
C985 C 0.26325 0.21986 0.97095 0.0
C986 C 0.29676 0.22381 0.98425 0.0
H987 H 0.79114 0.22159 0.51081 0.0
H988 H 0.8669 0.30689 0.48158 0.0
H989 H 0.89068 0.32193 0.52276 0.0
H990 H 0.76316 0.27089 0.56 0.0
H991 H 0.7601 0.23122 0.57959 0.0
H992 H 0.75454 0.22374 0.54787 0.0
H993 H 0.80873 0.17596 0.54735 0.0
H994 H 0.8141 0.1833 0.57924 0.0
H995 H 0.85399 0.19025 0.55947 0.0
H996 H 0.89771 0.33354 0.569 0.0
H997 H 0.88951 0.33825 0.61321 0.0
H998 H 0.81049 0.24265 0.61001 0.0
C999 C 0.81407 0.2422 0.51276 0.0
C1000 C 0.82792 0.26238 0.49288 0.0
C1001 C 0.85671 0.29034 0.49647 0.0
C1002 C 0.87009 0.29918 0.51984 0.0
C1003 C 0.8547 0.27934 0.53922 0.0
C1004 C 0.82777 0.25085 0.53564 0.0
C1005 C 0.813 0.23546 0.55906 0.0
C1006 C 0.7702 0.24068 0.56176 0.0
C1007 C 0.82308 0.19377 0.56141 0.0
C1008 C 0.83474 0.26053 0.57666 0.0
C1009 C 0.85889 0.28562 0.56511 0.0
C1010 C 0.87939 0.31347 0.57808 0.0
C1011 C 0.87459 0.31594 0.60323 0.0
C1012 C 0.84924 0.29091 0.61513 0.0
C1013 C 0.83004 0.26231 0.60155 0.0
H1014 H 0.73195 0.87412 0.95878 0.0
H1015 H 0.84995 0.85124 0.94734 0.0
H1016 H 0.86006 0.85456 0.9913 0.0
H1017 H 0.74004 0.93424 1.01512 0.0
H1018 H 0.69848 0.91193 0.02784 0.0
H1019 H 0.70253 0.91695 0.99583 0.0
H1020 H 0.69121 0.84468 0.98943 0.0
H1021 H 0.68666 0.83965 1.02126 0.0
H1022 H 0.72085 0.81262 1.00461 0.0
H1023 H 0.85534 0.85251 0.03682 0.0
H1024 H 0.83486 0.83479 0.07762 0.0
H1025 H 0.71917 0.8539 0.05891 0.0
C1026 C 0.76026 0.87151 0.9655 0.0
C1027 C 0.79049 0.86379 0.94963 0.0
C1028 C 0.82665 0.85819 0.95917 0.0
C1029 C 0.83261 0.86014 0.98412 0.0
C1030 C 0.80198 0.86713 0.99938 0.0
C1031 C 0.76638 0.87228 0.99033 0.0
C1032 C 0.73691 0.87257 1.01017 0.0
C1033 C 0.7184 0.91123 1.01237 0.0
C1034 C 0.70719 0.84048 1.00613 0.0
C1035 C 0.76117 0.86572 0.03178 0.0
C1036 C 0.79883 0.86387 0.02538 0.0
C1037 C 0.82605 0.85468 0.04206 0.0
C1038 C 0.81427 0.84519 0.06539 0.0
C1039 C 0.77556 0.84419 0.07166 0.0
C1040 C 0.74905 0.856 0.05487 0.0
H1041 H 0.23068 0.73222 0.4621 0.0
H1042 H 0.19192 0.84674 0.46129 0.0
H1043 H 0.17708 0.8442 0.50462 0.0
H1044 H 0.16461 0.69642 0.5127 0.0
H1045 H 0.20205 0.66897 0.52428 0.0
H1046 H 0.19876 0.67595 0.49247 0.0
H1047 H 0.26738 0.70256 0.49214 0.0
H1048 H 0.27078 0.69653 0.52386 0.0
H1049 H 0.27996 0.74245 0.51152 0.0
H1050 H 0.18274 0.83517 0.54905 0.0
H1051 H 0.20309 0.81844 0.58965 0.0
H1052 H 0.23689 0.70898 0.56173 0.0
C1053 C 0.21643 0.75563 0.47076 0.0
C1054 C 0.21073 0.78905 0.4582 0.0
C1055 C 0.19474 0.82031 0.47038 0.0
C1056 C 0.18667 0.8192 0.49509 0.0
C1057 C 0.19466 0.78651 0.50735 0.0
C1058 C 0.2084 0.75488 0.49543 0.0
C1059 C 0.22001 0.72547 0.51302 0.0
C1060 C 0.19484 0.68958 0.51047 0.0
C1061 C 0.262 0.71627 0.50994 0.0
C1062 C 0.21265 0.74621 0.53666 0.0
C1063 C 0.19764 0.78121 0.53309 0.0
C1064 C 0.19327 0.80733 0.55209 0.0
C1065 C 0.205 0.79765 0.57512 0.0
C1066 C 0.22087 0.76212 0.57905 0.0
C1067 C 0.22367 0.73586 0.55958 0.0
H1068 H 0.24078 0.84708 0.96091 0.0
H1069 H 0.36238 0.84813 0.96107 0.0
H1070 H 0.36221 0.86964 1.00351 0.0
H1071 H 0.22433 0.92101 1.01279 0.0
H1072 H 0.18602 0.89173 0.02393 0.0
H1073 H 0.19509 0.89367 0.99211 0.0
H1074 H 0.19945 0.82081 0.98994 0.0
H1075 H 0.19078 0.8186 1.02151 0.0
H1076 H 0.23264 0.79818 1.00876 0.0
H1077 H 0.34954 0.8729 0.04744 0.0
H1078 H 0.32683 0.85164 0.08699 0.0
H1079 H 0.21355 0.84013 0.05954 0.0
C1080 C 0.26727 0.85419 0.96953 0.0
C1081 C 0.30159 0.84716 0.95754 0.0
C1082 C 0.33583 0.85483 0.96968 0.0
C1083 C 0.33589 0.86683 0.99391 0.0
C1084 C 0.30142 0.87036 1.00594 0.0
C1085 C 0.26759 0.86434 0.99402 0.0
C1086 C 0.235 0.86025 1.01165 0.0
C1087 C 0.20855 0.89367 1.01002 0.0
C1088 C 0.21327 0.82221 1.00774 0.0
C1089 C 0.256 0.86181 0.03523 0.0
C1090 C 0.29404 0.86959 0.03169 0.0
C1091 C 0.31968 0.86796 0.0505 0.0
C1092 C 0.30653 0.85617 0.07305 0.0
C1093 C 0.2683 0.84525 0.07638 0.0
C1094 C 0.24263 0.84972 0.05756 0.0
H1095 H 0.18557 0.34113 0.49327 0.0
H1096 H 0.21441 0.22992 0.46603 0.0
H1097 H 0.2113 0.20586 0.50721 0.0
H1098 H 0.24021 0.34355 0.54129 0.0
H1099 H 0.20906 0.36758 0.56189 0.0
H1100 H 0.20471 0.37394 0.53024 0.0
H1101 H 0.13457 0.35185 0.53189 0.0
H1102 H 0.13841 0.34607 0.56378 0.0
H1103 H 0.12185 0.3071 0.54486 0.0
H1104 H 0.22225 0.1993 0.55176 0.0
H1105 H 0.23611 0.20831 0.59508 0.0
H1106 H 0.19386 0.32168 0.59345 0.0
C1107 C 0.18905 0.31121 0.49586 0.0
C1108 C 0.19957 0.28725 0.47643 0.0
C1109 C 0.20534 0.24855 0.48053 0.0
C1110 C 0.20397 0.23473 0.50396 0.0
C1111 C 0.19573 0.25973 0.52298 0.0
C1112 C 0.18709 0.29692 0.51905 0.0
C1113 C 0.18271 0.31904 0.54251 0.0
C1114 C 0.21085 0.35299 0.54405 0.0
C1115 C 0.14195 0.33175 0.54596 0.0
C1116 C 0.19221 0.28917 0.56026 0.0
C1117 C 0.19971 0.25509 0.54872 0.0
C1118 C 0.21486 0.22529 0.56107 0.0
C1119 C 0.2227 0.2306 0.58565 0.0
C1120 C 0.2147 0.26513 0.59773 0.0
C1121 C 0.19852 0.29435 0.5849 0.0
H1122 H 0.71826 0.2204 0.11035 0.0
H1123 H 0.81262 0.14526 0.10901 0.0
H1124 H 0.80867 0.13996 0.06475 0.0
H1125 H 0.66642 0.17603 0.05852 0.0
H1126 H 0.65216 0.22142 0.04849 0.0
H1127 H 0.65888 0.21408 0.08 0.0
H1128 H 0.70622 0.27116 0.08208 0.0
H1129 H 0.69965 0.27873 0.05071 0.0
H1130 H 0.74632 0.27204 0.06204 0.0
H1131 H 0.80002 0.15126 1.01956 0.0
H1132 H 0.78803 0.17862 0.97984 0.0
H1133 H 0.69838 0.2441 1.01167 0.0
C1134 C 0.73754 0.20201 0.10086 0.0
C1135 C 0.76568 0.18317 0.11329 0.0
C1136 C 0.79054 0.15973 0.10002 0.0
C1137 C 0.78852 0.15657 0.0748 0.0
C1138 C 0.76112 0.17657 0.06304 0.0
C1139 C 0.73582 0.1985 0.07581 0.0
C1140 C 0.71123 0.22 0.05922 0.0
C1141 C 0.66971 0.2071 0.06171 0.0
C1142 C 0.71618 0.263 0.06378 0.0
C1143 C 0.72737 0.20786 0.03508 0.0
C1144 C 0.75586 0.18247 0.03744 0.0
C1145 C 0.77714 0.17044 1.01752 0.0
C1146 C 0.76996 0.1858 0.99493 0.0
C1147 C 0.7419 0.21303 0.99254 0.0
C1148 C 0.71959 0.22282 1.01279 0.0
H1149 H 0.81466 0.79988 0.45178 0.0
H1150 H 0.86801 0.69203 0.45529 0.0
H1151 H 0.88119 0.70436 0.49833 0.0
H1152 H 0.87337 0.85327 0.50006 0.0
H1153 H 0.83205 0.87708 0.51082 0.0
H1154 H 0.83687 0.86468 0.4794 0.0
H1155 H 0.77256 0.82876 0.48089 0.0
H1156 H 0.76769 0.84017 0.51228 0.0
H1157 H 0.7653 0.79146 0.502 0.0
H1158 H 0.87522 0.7219 0.54251 0.0
H1159 H 0.8537 0.7443 0.58265 0.0
H1160 H 0.80308 0.84039 0.5503 0.0
C1161 C 0.83156 0.78021 0.46124 0.0
C1162 C 0.84206 0.74585 0.44994 0.0
C1163 C 0.86147 0.7193 0.46332 0.0
C1164 C 0.86862 0.72595 0.48788 0.0
C1165 C 0.85605 0.75929 0.49886 0.0
C1166 C 0.83847 0.78635 0.4858 0.0
C1167 C 0.82244 0.81692 0.5022 0.0
C1168 C 0.84239 0.85526 0.49786 0.0
C1169 C 0.77948 0.81942 0.49915 0.0
C1170 C 0.83221 0.80206 0.52657 0.0
C1171 C 0.85202 0.76907 0.52434 0.0
C1172 C 0.86051 0.74819 0.54442 0.0
C1173 C 0.84797 0.76098 0.56718 0.0
C1174 C 0.82692 0.79425 0.56978 0.0
C1175 C 0.81995 0.8154 0.54914 0.0
H1176 H 0.59163 0.26952 0.21182 0.0
H1177 H 0.61458 0.19752 0.14974 0.0
H1178 H 0.5461 0.19379 0.14066 0.0
H1179 H 0.50453 0.22484 0.23003 0.0
H1180 H 0.48274 0.26856 0.2387 0.0
H1181 H 0.53315 0.26487 0.24027 0.0
H1182 H 0.54205 0.32271 0.21308 0.0
H1183 H 0.49169 0.32681 0.21163 0.0
H1184 H 0.51909 0.32246 0.18439 0.0
H1185 H 0.47349 0.1964 0.13977 0.0
H1186 H 0.40597 0.2115 0.14394 0.0
H1187 H 0.43191 0.2841 0.20566 0.0
C1188 C 0.58224 0.25281 0.19636 0.0
C1189 C 0.60842 0.2334 0.18161 0.0
C1190 C 0.59505 0.21259 0.16124 0.0
C1191 C 0.55618 0.21015 0.15608 0.0
C1192 C 0.53107 0.22916 0.17129 0.0
C1193 C 0.54379 0.2506 0.1908 0.0
C1194 C 0.51153 0.26969 0.20384 0.0
C1195 C 0.50778 0.25617 0.22974 0.0
C1196 C 0.51638 0.31298 0.20318 0.0
C1197 C 0.47845 0.25559 0.18877 0.0
C1198 C 0.49011 0.23184 0.17024 0.0
C1199 C 0.46425 0.2151 0.15418 0.0
C1200 C 0.42583 0.22357 0.1568 0.0
C1201 C 0.41353 0.24899 0.17512 0.0
C1202 C 0.44038 0.26471 0.19141 0.0
H1203 H 0.76967 0.4234 0.63974 0.0
H1204 H 0.75223 0.4351 0.71655 0.0
H1205 H 0.75768 0.50441 0.71395 0.0
H1206 H 0.83776 0.5034 0.6345 0.0
H1207 H 0.81945 0.51806 0.6063 0.0
H1208 H 0.81597 0.46904 0.61419 0.0
H1209 H 0.74381 0.46923 0.60799 0.0
H1210 H 0.74707 0.51828 0.6002 0.0
H1211 H 0.71616 0.50354 0.62421 0.0
H1212 H 0.76257 0.57337 0.7031 0.0
H1213 H 0.76847 0.63606 0.68479 0.0
H1214 H 0.78183 0.58112 0.61481 0.0
C1215 C 0.76762 0.44058 0.65602 0.0
C1216 C 0.76038 0.42346 0.6784 0.0
C1217 C 0.75736 0.44726 0.69918 0.0
C1218 C 0.76054 0.48682 0.69791 0.0
C1219 C 0.76679 0.50286 0.67565 0.0
C1220 C 0.7705 0.48056 0.65504 0.0
C1221 C 0.77614 0.50539 0.63333 0.0
C1222 C 0.81462 0.49856 0.62138 0.0
C1223 C 0.74387 0.4987 0.61537 0.0
C1224 C 0.77489 0.54487 0.64496 0.0
C1225 C 0.76951 0.54272 0.6694 0.0
C1226 C 0.76689 0.57534 0.68394 0.0
C1227 C 0.77006 0.61103 0.67332 0.0
C1228 C 0.77579 0.6143 0.64827 0.0
C1229 C 0.77808 0.58033 0.63403 0.0
H1230 H 0.59408 0.73778 0.14447 0.0
H1231 H 0.62269 0.84717 0.11548 0.0
H1232 H 0.55463 0.85781 0.10857 0.0
H1233 H 0.51951 0.71372 0.10242 0.0
H1234 H 0.49127 0.68908 0.12436 0.0
H1235 H 0.5418 0.69121 0.12697 0.0
H1236 H 0.5353 0.71987 0.16998 0.0
H1237 H 0.48476 0.71823 0.1674 0.0
H1238 H 0.5091 0.76233 0.17479 0.0
H1239 H 0.48111 0.85694 0.10732 0.0
H1240 H 0.41226 0.8411 0.10668 0.0
H1241 H 0.43403 0.73078 0.13416 0.0
C1242 C 0.58599 0.76396 0.13662 0.0
C1243 C 0.61359 0.79184 0.13067 0.0
C1244 C 0.60198 0.82546 0.12009 0.0
C1245 C 0.56338 0.83177 0.11628 0.0
C1246 C 0.53676 0.80386 0.12279 0.0
C1247 C 0.54785 0.77031 0.13233 0.0
C1248 C 0.51431 0.74404 0.13706 0.0
C1249 C 0.51688 0.70735 0.12179 0.0
C1250 C 0.51067 0.73564 0.1639 0.0
C1251 C 0.48239 0.76798 0.12892 0.0
C1252 C 0.49559 0.80266 0.12103 0.0
C1253 C 0.4707 0.82971 0.11328 0.0
C1254 C 0.43165 0.82068 0.11312 0.0
C1255 C 0.41795 0.78474 0.12028 0.0
C1256 C 0.44381 0.75838 0.12844 0.0
H1257 H 0.30525 0.45977 0.61597 0.0
H1258 H 0.24063 0.44009 0.68078 0.0
H1259 H 0.24041 0.50953 0.68939 0.0
H1260 H 0.36401 0.53597 0.64051 0.0
H1261 H 0.36578 0.56103 0.6128 0.0
H1262 H 0.35995 0.51032 0.61225 0.0
H1263 H 0.2992 0.51542 0.58727 0.0
H1264 H 0.30463 0.56618 0.58795 0.0
H1265 H 0.2615 0.5441 0.59861 0.0
H1266 H 0.24531 0.58353 0.68908 0.0
H1267 H 0.26158 0.65153 0.68264 0.0
H1268 H 0.32539 0.62012 0.61913 0.0
C1269 C 0.29102 0.47008 0.63198 0.0
C1270 C 0.27262 0.4446 0.64762 0.0
C1271 C 0.25493 0.45915 0.66862 0.0
C1272 C 0.2545 0.49854 0.67351 0.0
C1273 C 0.2724 0.52299 0.6574 0.0
C1274 C 0.29088 0.50901 0.63726 0.0
C1275 C 0.30923 0.54053 0.62307 0.0
C1276 C 0.35229 0.53673 0.62211 0.0
C1277 C 0.29264 0.54161 0.59773 0.0
C1278 C 0.2981 0.57467 0.63815 0.0
C1279 C 0.27647 0.56433 0.65776 0.0
C1280 C 0.26248 0.59169 0.67384 0.0
C1281 C 0.27157 0.63024 0.67001 0.0
C1282 C 0.29488 0.641 0.6505 0.0
C1283 C 0.3078 0.61268 0.63433 0.0
H1284 H 0.60518 0.76462 0.92464 0.0
H1285 H 0.62861 0.84234 0.86735 0.0
H1286 H 0.56003 0.84452 0.85909 0.0
H1287 H 0.53098 0.71175 0.8949 0.0
H1288 H 0.50404 0.7047 0.92203 0.0
H1289 H 0.55454 0.71036 0.92334 0.0
H1290 H 0.54772 0.76612 0.95399 0.0
H1291 H 0.49718 0.76074 0.95268 0.0
H1292 H 0.51971 0.80573 0.94645 0.0
H1293 H 0.4867 0.83883 0.85832 0.0
H1294 H 0.41865 0.82121 0.86261 0.0
H1295 H 0.4455 0.74627 0.91973 0.0
C1296 C 0.59598 0.7824 0.91046 0.0
C1297 C 0.6224 0.80366 0.8968 0.0
C1298 C 0.609 0.82576 0.87802 0.0
C1299 C 0.57004 0.82731 0.87332 0.0
C1300 C 0.54475 0.80628 0.88739 0.0
C1301 C 0.55744 0.78392 0.90541 0.0
C1302 C 0.52507 0.76291 0.91755 0.0
C1303 C 0.52889 0.71989 0.91425 0.0
C1304 C 0.52226 0.77458 0.94425 0.0
C1305 C 0.492 0.77685 0.90365 0.0
C1306 C 0.50362 0.80216 0.88645 0.0
C1307 C 0.47751 0.8189 0.87169 0.0
C1308 C 0.43888 0.80896 0.87431 0.0
C1309 C 0.4267 0.78214 0.89134 0.0
C1310 C 0.45384 0.76643 0.9063 0.0
H1311 H 0.22313 0.46876 0.38014 0.0
H1312 H 0.2742 0.4399 0.44729 0.0
H1313 H 0.28538 0.5076 0.4571 0.0
H1314 H 0.28784 0.54592 0.36738 0.0
H1315 H 0.25304 0.57514 0.3544 0.0
H1316 H 0.24693 0.52444 0.35307 0.0
H1317 H 0.18159 0.53007 0.3736 0.0
H1318 H 0.18765 0.58082 0.37514 0.0
H1319 H 0.1778 0.5551 0.40204 0.0
H1320 H 0.29227 0.57788 0.45971 0.0
H1321 H 0.29946 0.64642 0.45347 0.0
H1322 H 0.24572 0.63254 0.38426 0.0
C1323 C 0.23637 0.4768 0.39698 0.0
C1324 C 0.24784 0.44874 0.41295 0.0
C1325 C 0.26556 0.46056 0.43464 0.0
C1326 C 0.27173 0.49908 0.44047 0.0
C1327 C 0.26026 0.52591 0.42441 0.0
C1328 C 0.24325 0.51543 0.40298 0.0
C1329 C 0.23563 0.55029 0.38843 0.0
C1330 C 0.25714 0.54885 0.3644 0.0
C1331 C 0.19314 0.55429 0.38458 0.0
C1332 C 0.25128 0.58187 0.40496 0.0
C1333 C 0.26491 0.56693 0.42572 0.0
C1334 C 0.28165 0.58985 0.44354 0.0
C1335 C 0.28561 0.62881 0.43985 0.0
C1336 C 0.2731 0.64498 0.41847 0.0
C1337 C 0.25495 0.62115 0.40097 0.0
H1338 H 0.43003 0.33231 0.90419 0.0
H1339 H 0.39484 0.23503 0.94511 0.0
H1340 H 0.46206 0.21938 0.95061 0.0
H1341 H 0.50768 0.28856 0.87346 0.0
H1342 H 0.53662 0.33125 0.874 0.0
H1343 H 0.48607 0.33405 0.87371 0.0
H1344 H 0.48842 0.3763 0.91235 0.0
H1345 H 0.53897 0.37345 0.91283 0.0
H1346 H 0.51138 0.35958 0.93857 0.0
H1347 H 0.53573 0.21663 0.95258 0.0
H1348 H 0.60528 0.22377 0.94765 0.0
H1349 H 0.58994 0.32223 0.90471 0.0
C1350 C 0.43636 0.30776 0.91442 0.0
C1351 C 0.40699 0.28506 0.92438 0.0
C1352 C 0.41672 0.25275 0.93721 0.0
C1353 C 0.4549 0.24383 0.94053 0.0
C1354 C 0.48317 0.26724 0.93069 0.0
C1355 C 0.47409 0.29833 0.91765 0.0
C1356 C 0.50916 0.31871 0.90832 0.0
C1357 C 0.50992 0.31809 0.88074 0.0
C1358 C 0.51215 0.35941 0.91864 0.0
C1359 C 0.53967 0.29453 0.91819 0.0
C1360 C 0.52441 0.26508 0.93123 0.0
C1361 C 0.54772 0.23954 0.94227 0.0
C1362 C 0.58727 0.24391 0.93952 0.0
C1363 C 0.6033 0.27333 0.92563 0.0
C1364 C 0.57881 0.29904 0.91513 0.0
H1365 H 0.73538 0.40039 0.392 0.0
H1366 H 0.83087 0.38444 0.43792 0.0
H1367 H 0.84956 0.4523 0.43419 0.0
H1368 H 0.78437 0.46577 0.35155 0.0
H1369 H 0.74304 0.49314 0.34723 0.0
H1370 H 0.73815 0.44357 0.35351 0.0
H1371 H 0.69491 0.45957 0.38979 0.0
H1372 H 0.70002 0.5092 0.3838 0.0
H1373 H 0.71181 0.49221 0.41289 0.0
H1374 H 0.85387 0.52468 0.42793 0.0
H1375 H 0.84896 0.5911 0.41505 0.0
H1376 H 0.7537 0.55783 0.37067 0.0
C1377 C 0.76049 0.41116 0.40102 0.0
C1378 C 0.78174 0.38714 0.41526 0.0
C1379 C 0.81446 0.40222 0.42675 0.0
C1380 C 0.82504 0.44081 0.42486 0.0
C1381 C 0.80301 0.46393 0.41102 0.0
C1382 C 0.77186 0.44932 0.39886 0.0
C1383 C 0.75335 0.47964 0.38465 0.0
C1384 C 0.75483 0.46995 0.35763 0.0
C1385 C 0.71261 0.48549 0.39331 0.0
C1386 C 0.77849 0.51382 0.39091 0.0
C1387 C 0.80672 0.50445 0.40642 0.0
C1388 C 0.83217 0.53202 0.41552 0.0
C1389 C 0.82909 0.56974 0.40826 0.0
C1390 C 0.80125 0.57958 0.3917 0.0
C1391 C 0.77562 0.55107 0.38308 0.0
H1392 H 0.20239 0.30466 0.32884 0.0
H1393 H 0.27014 0.21451 0.35414 0.0
H1394 H 0.26965 0.18455 0.31342 0.0
H1395 H 0.14546 0.24295 0.28407 0.0
H1396 H 0.14426 0.28152 0.26367 0.0
H1397 H 0.14436 0.29099 0.29558 0.0
H1398 H 0.20312 0.33537 0.2907 0.0
H1399 H 0.20338 0.32591 0.25898 0.0
H1400 H 0.2448 0.31733 0.27624 0.0
H1401 H 0.27367 0.17375 0.26729 0.0
H1402 H 0.27678 0.1811 0.22303 0.0
H1403 H 0.20021 0.27391 0.22979 0.0
C1404 C 0.21563 0.27769 0.32601 0.0
C1405 C 0.23603 0.26173 0.34454 0.0
C1406 C 0.25388 0.2269 0.34019 0.0
C1407 C 0.25381 0.20976 0.31707 0.0
C1408 C 0.23469 0.22719 0.29876 0.0
C1409 C 0.21487 0.25981 0.30332 0.0
C1410 C 0.19898 0.27495 0.28058 0.0
C1411 C 0.15569 0.27243 0.28101 0.0
C1412 C 0.21347 0.31576 0.27639 0.0
C1413 C 0.21495 0.24738 0.26225 0.0
C1414 C 0.23528 0.21969 0.27283 0.0
C1415 C 0.25674 0.19454 0.25889 0.0
C1416 C 0.25825 0.19868 0.23373 0.0
C1417 C 0.23848 0.22782 0.22295 0.0
C1418 C 0.21535 0.25105 0.23745 0.0
H1419 H 0.73594 0.19866 0.85028 0.0
H1420 H 0.82632 0.27641 0.87258 0.0
H1421 H 0.84401 0.28566 0.83012 0.0
H1422 H 0.78535 0.15626 0.79802 0.0
H1423 H 0.74291 0.15303 0.78051 0.0
H1424 H 0.74023 0.14983 0.81266 0.0
H1425 H 0.69382 0.20507 0.81453 0.0
H1426 H 0.69644 0.2085 0.78246 0.0
H1427 H 0.70739 0.24941 0.80131 0.0
H1428 H 0.84813 0.29041 0.78389 0.0
H1429 H 0.83736 0.28992 0.73987 0.0
H1430 H 0.74494 0.20866 0.749 0.0
C1431 C 0.76003 0.21697 0.84634 0.0
C1432 C 0.77969 0.23674 0.86494 0.0
C1433 C 0.81063 0.26097 0.85876 0.0
C1434 C 0.82101 0.26634 0.83462 0.0
C1435 C 0.80039 0.24713 0.81668 0.0
C1436 C 0.77068 0.22269 0.82236 0.0
C1437 C 0.75144 0.20711 0.79995 0.0
C1438 C 0.75522 0.164 0.79765 0.0
C1439 C 0.70983 0.2182 0.79955 0.0
C1440 C 0.77432 0.2271 0.78077 0.0
C1441 C 0.80272 0.24986 0.79058 0.0
C1442 C 0.8262 0.27229 0.77608 0.0
C1443 C 0.82002 0.27179 0.75105 0.0
C1444 C 0.79041 0.24924 0.74084 0.0
C1445 C 0.76795 0.22622 0.75606 0.0
H1446 H 0.77596 0.84622 0.21169 0.0
H1447 H 0.81925 0.73889 0.18626 0.0
H1448 H 0.83289 0.72227 0.2279 0.0
H1449 H 0.844 0.86226 0.26062 0.0
H1450 H 0.80939 0.88311 0.28034 0.0
H1451 H 0.80547 0.88741 0.24835 0.0
H1452 H 0.7379 0.85785 0.25001 0.0
H1453 H 0.74165 0.85344 0.28194 0.0
H1454 H 0.73029 0.81237 0.26332 0.0
H1455 H 0.83681 0.71511 0.27361 0.0
H1456 H 0.83209 0.71959 0.318 0.0
H1457 H 0.78866 0.83245 0.31285 0.0
C1458 C 0.78891 0.81947 0.21476 0.0
C1459 C 0.79633 0.79388 0.19545 0.0
C1460 C 0.81301 0.75903 0.20055 0.0
C1461 C 0.82099 0.74931 0.22425 0.0
C1462 C 0.81258 0.77484 0.24288 0.0
C1463 C 0.79725 0.80941 0.23832 0.0
C1464 C 0.78961 0.83134 0.26148 0.0
C1465 C 0.81355 0.86821 0.26277 0.0
C1466 C 0.74736 0.83919 0.26435 0.0
C1467 C 0.80235 0.80354 0.27979 0.0
C1468 C 0.8156 0.77107 0.26882 0.0
C1469 C 0.82692 0.74068 0.28233 0.0
C1470 C 0.82418 0.74344 0.30759 0.0
C1471 C 0.8103 0.77641 0.31917 0.0
C1472 C 0.79991 0.80691 0.30483 0.0
H1473 H 0.3207 0.8599 0.81836 0.0
H1474 H 0.22156 0.79058 0.83467 0.0
H1475 H 0.20861 0.78207 0.79153 0.0
H1476 H 0.28406 0.90419 0.76413 0.0
H1477 H 0.32881 0.90172 0.74874 0.0
H1478 H 0.32721 0.90683 0.78096 0.0
H1479 H 0.36689 0.84692 0.7845 0.0
H1480 H 0.36855 0.84161 0.75237 0.0
H1481 H 0.35068 0.80323 0.7702 0.0
H1482 H 0.20892 0.7773 0.74581 0.0
H1483 H 0.22528 0.7739 0.7024 0.0
H1484 H 0.32548 0.84359 0.71647 0.0
C1485 C 0.29568 0.84382 0.8129 0.0
C1486 C 0.27177 0.82656 0.83007 0.0
C1487 C 0.24003 0.80464 0.82201 0.0
C1488 C 0.23239 0.7996 0.79745 0.0
C1489 C 0.25688 0.81641 0.78097 0.0
C1490 C 0.28796 0.83801 0.7884 0.0
C1491 C 0.31188 0.85001 0.76715 0.0
C1492 C 0.31304 0.89326 0.76513 0.0
C1493 C 0.35185 0.83451 0.76865 0.0
C1494 C 0.28988 0.83119 0.74673 0.0
C1495 C 0.25785 0.81246 0.75491 0.0
C1496 C 0.23382 0.79213 0.7392 0.0
C1497 C 0.2432 0.7904 0.71458 0.0
C1498 C 0.27662 0.80836 0.70606 0.0
C1499 C 0.29974 0.82944 0.72241 0.0
H1500 H 0.71021 0.82079 0.8109 0.0
H1501 H 0.8277 0.84387 0.82665 0.0
H1502 H 0.84261 0.84253 0.78308 0.0
H1503 H 0.72402 0.75378 0.7692 0.0
H1504 H 0.68604 0.7649 0.74961 0.0
H1505 H 0.68321 0.77744 0.78094 0.0
H1506 H 0.67392 0.8477 0.77118 0.0
H1507 H 0.67551 0.83528 0.73966 0.0
H1508 H 0.70714 0.87156 0.75174 0.0
H1509 H 0.84523 0.82623 0.73714 0.0
H1510 H 0.83421 0.80177 0.69541 0.0
H1511 H 0.71509 0.78819 0.71192 0.0
C1512 C 0.73869 0.82787 0.80508 0.0
C1513 C 0.76757 0.83367 0.82204 0.0
C1514 C 0.80491 0.84092 0.8139 0.0
C1515 C 0.81366 0.83963 0.78914 0.0
C1516 C 0.78465 0.83145 0.77283 0.0
C1517 C 0.74771 0.82658 0.78062 0.0
C1518 C 0.72208 0.81377 0.76031 0.0
C1519 C 0.70274 0.7752 0.76533 0.0
C1520 C 0.69295 0.84388 0.75543 0.0
C1521 C 0.75035 0.81063 0.74001 0.0
C1522 C 0.7863 0.82134 0.74721 0.0
C1523 C 0.817 0.81841 0.73135 0.0
C1524 C 0.81059 0.80432 0.7077 0.0
C1525 C 0.77386 0.79278 0.70032 0.0
C1526 C 0.74363 0.79653 0.71681 0.0
H1527 H 0.32748 0.76332 0.21793 0.0
H1528 H 0.23703 0.83663 0.19956 0.0
H1529 H 0.21229 0.83341 0.24129 0.0
H1530 H 0.27042 0.70216 0.25349 0.0
H1531 H 0.30694 0.69371 0.27477 0.0
H1532 H 0.31923 0.70479 0.24432 0.0
H1533 H 0.3617 0.76114 0.2594 0.0
H1534 H 0.34989 0.74996 0.28991 0.0
H1535 H 0.34208 0.79666 0.27922 0.0
H1536 H 0.19927 0.82318 0.28645 0.0
H1537 H 0.19658 0.80313 0.32884 0.0
H1538 H 0.29107 0.73065 0.31504 0.0
C1539 C 0.30295 0.77943 0.22281 0.0
C1540 C 0.28475 0.80114 0.20569 0.0
C1541 C 0.2518 0.82046 0.21254 0.0
C1542 C 0.23753 0.81866 0.23617 0.0
C1543 C 0.256 0.79663 0.25258 0.0
C1544 C 0.2878 0.77705 0.24602 0.0
C1545 C 0.30114 0.75333 0.26632 0.0
C1546 C 0.29931 0.71099 0.2593 0.0
C1547 C 0.34106 0.76604 0.27417 0.0
C1548 C 0.27215 0.76275 0.28547 0.0
C1549 C 0.24661 0.78822 0.27745 0.0
C1550 C 0.21876 0.80274 0.29271 0.0
C1551 C 0.2173 0.79113 0.31671 0.0
C1552 C 0.24286 0.76455 0.32503 0.0
C1553 C 0.27031 0.75006 0.30902 0.0
H1554 H 0.32769 0.30847 0.73296 0.0
H1555 H 0.21843 0.26109 0.71206 0.0
H1556 H 0.20848 0.23866 0.75364 0.0
H1557 H 0.3534 0.23327 0.76965 0.0
H1558 H 0.37776 0.26385 0.79111 0.0
H1559 H 0.37482 0.27733 0.76031 0.0
H1560 H 0.34465 0.34054 0.77356 0.0
H1561 H 0.34811 0.32751 0.8044 0.0
H1562 H 0.30317 0.33962 0.79245 0.0
H1563 H 0.2114 0.22287 0.79915 0.0
H1564 H 0.22672 0.21541 0.8421 0.0
H1565 H 0.33585 0.26996 0.83033 0.0
C1566 C 0.30135 0.29369 0.73696 0.0
C1567 C 0.27363 0.2869 0.71916 0.0
C1568 C 0.23994 0.26696 0.72539 0.0
C1569 C 0.23418 0.254 0.74895 0.0
C1570 C 0.26259 0.26082 0.76592 0.0
C1571 C 0.29552 0.2802 0.76001 0.0
C1572 C 0.32237 0.28355 0.7809 0.0
C1573 C 0.35926 0.26329 0.77514 0.0
C1574 C 0.33 0.32528 0.78826 0.0
C1575 C 0.29955 0.26316 0.79979 0.0
C1576 C 0.26498 0.25039 0.79105 0.0
C1577 C 0.23855 0.2325 0.80596 0.0
C1578 C 0.24748 0.22834 0.83033 0.0
C1579 C 0.28269 0.24157 0.83952 0.0
C1580 C 0.30912 0.25855 0.82379 0.0
H1581 H 0.86447 0.2675 0.34809 0.0
H1582 H 0.7824 0.18046 0.3678 0.0
H1583 H 0.77424 0.16215 0.32531 0.0
H1584 H 0.81387 0.29808 0.30011 0.0
H1585 H 0.85409 0.30886 0.28129 0.0
H1586 H 0.85893 0.31013 0.31333 0.0
H1587 H 0.91285 0.26238 0.30956 0.0
H1588 H 0.90785 0.26075 0.27741 0.0
H1589 H 0.90461 0.2177 0.29394 0.0
H1590 H 0.76911 0.15795 0.28018 0.0
H1591 H 0.76315 0.17327 0.23727 0.0
H1592 H 0.84659 0.26398 0.24681 0.0
C1593 C 0.8457 0.2438 0.34352 0.0
C1594 C 0.82483 0.22486 0.3615 0.0
C1595 C 0.79943 0.19494 0.35457 0.0
C1596 C 0.79458 0.18423 0.33036 0.0
C1597 C 0.81512 0.2038 0.31305 0.0
C1598 C 0.84005 0.23314 0.31933 0.0
C1599 C 0.85488 0.25289 0.29725 0.0
C1600 C 0.84482 0.29495 0.29805 0.0
C1601 C 0.89759 0.24813 0.29437 0.0
C1602 C 0.83346 0.23097 0.27773 0.0
C1603 C 0.81133 0.20214 0.28707 0.0
C1604 C 0.78686 0.18002 0.2726 0.0
C1605 C 0.78385 0.18862 0.24818 0.0
C1606 C 0.80474 0.21944 0.23869 0.0
C1607 C 0.83075 0.23983 0.25353 0.0
loop_
_geom_bond_atom_site_label_1
_geom_bond_atom_site_label_2
_geom_bond_distance
_geom_bond_site_symmetry_2
_ccdc_geom_bond_type
C0 C1 1.351 . S
C0 N3 1.368 . S
C0 H5 0.931 . S
C1 C0 1.351 . S
C1 N2 1.373 . S
C1 H29 0.930 . S
N2 C1 1.373 . S
N2 C4 1.340 . S
N3 C0 1.368 . S
N3 C4 1.321 . S
N3 Co6 2.135 . S
C4 N2 1.340 . S
C4 N3 1.321 . S
C4 H28 0.930 . S
H5 C0 0.931 . S
Co6 N3 2.135 . S
Co6 N9 2.121 . S
Co6 O14 2.055 . S
Co6 O17 2.039 . S
Co6 N20 2.140 . S
C7 O8 1.227 . S
C7 O17 1.265 . S
O8 C7 1.227 . S
N9 Co6 2.121 . S
N9 C11 1.375 . S
N9 C12 1.313 . S
C10 C11 1.338 . S
C10 N13 1.377 . S
C10 H30 0.930 . S
C11 N9 1.375 . S
C11 C10 1.338 . S
C11 H15 0.931 . S
C12 N9 1.313 . S
C12 N13 1.344 . S
C12 H16 0.930 . S
N13 C10 1.377 . S
N13 C12 1.344 . S
O14 Co6 2.055 . S
O14 C18 1.253 . S
H15 C11 0.931 . S
H16 C12 0.930 . S
O17 Co6 2.039 . S
O17 C7 1.265 . S
C18 O14 1.253 . S
C18 O19 1.227 . S
O19 C18 1.227 . S
N20 Co6 2.140 . S
N20 C23 1.346 . S
N20 C24 1.345 . S
C21 C22 1.387 . S
C21 C25 1.391 . S
C22 C21 1.387 . S
C22 C23 1.369 . S
C22 H31 0.929 . S
C23 N20 1.346 . S
C23 C22 1.369 . S
C23 H26 0.928 . S
C24 N20 1.345 . S
C24 C25 1.371 . S
C24 H27 0.931 . S
C25 C21 1.391 . S
C25 C24 1.371 . S
C25 H32 0.930 . S
H26 C23 0.928 . S
H27 C24 0.931 . S
H28 C4 0.930 . S
H29 C1 0.930 . S
H30 C10 0.930 . S
H31 C22 0.929 . S
H32 C25 0.930 . S
C33 C34 1.351 . S
C33 N36 1.368 . S
C33 H38 0.931 . S
C34 C33 1.351 . S
C34 N35 1.373 . S
C34 H62 0.930 . S
N35 C34 1.373 . S
N35 C37 1.340 . S
N36 C33 1.368 . S
N36 C37 1.321 . S
N36 Co39 2.135 . S
C37 N35 1.340 . S
C37 N36 1.321 . S
C37 H61 0.930 . S
H38 C33 0.931 . S
Co39 N36 2.135 . S
Co39 N42 2.121 . S
Co39 O47 2.055 . S
Co39 O50 2.039 . S
Co39 N53 2.140 . S
C40 O41 1.227 . S
C40 O50 1.265 . S
O41 C40 1.227 . S
N42 Co39 2.121 . S
N42 C44 1.375 . S
N42 C45 1.313 . S
C43 C44 1.338 . S
C43 N46 1.377 . S
C43 H63 0.930 . S
C44 N42 1.375 . S
C44 C43 1.338 . S
C44 H48 0.931 . S
C45 N42 1.313 . S
C45 N46 1.344 . S
C45 H49 0.930 . S
N46 C43 1.377 . S
N46 C45 1.344 . S
O47 Co39 2.055 . S
O47 C51 1.253 . S
H48 C44 0.931 . S
H49 C45 0.930 . S
O50 Co39 2.039 . S
O50 C40 1.265 . S
C51 O47 1.253 . S
C51 O52 1.227 . S
O52 C51 1.227 . S
N53 Co39 2.140 . S
N53 C56 1.346 . S
N53 C57 1.345 . S
C54 C55 1.387 . S
C54 C58 1.391 . S
C55 C54 1.387 . S
C55 C56 1.369 . S
C55 H64 0.929 . S
C56 N53 1.346 . S
C56 C55 1.369 . S
C56 H59 0.928 . S
C57 N53 1.345 . S
C57 C58 1.371 . S
C57 H60 0.931 . S
C58 C54 1.391 . S
C58 C57 1.371 . S
C58 H65 0.930 . S
H59 C56 0.928 . S
H60 C57 0.931 . S
H61 C37 0.930 . S
H62 C34 0.930 . S
H63 C43 0.930 . S
H64 C55 0.929 . S
H65 C58 0.930 . S
C66 C67 1.351 . S
C66 N69 1.368 . S
C66 H71 0.931 . S
C67 C66 1.351 . S
C67 N68 1.373 . S
C67 H95 0.930 . S
N68 C67 1.373 . S
N68 C70 1.340 . S
N69 C66 1.368 . S
N69 C70 1.321 . S
N69 Co72 2.135 . S
C70 N68 1.340 . S
C70 N69 1.321 . S
C70 H94 0.930 . S
H71 C66 0.931 . S
Co72 N69 2.135 . S
Co72 N75 2.121 . S
Co72 O80 2.055 . S
Co72 O83 2.039 . S
Co72 N86 2.140 . S
C73 O74 1.227 . S
C73 O83 1.265 . S
O74 C73 1.227 . S
N75 Co72 2.121 . S
N75 C77 1.375 . S
N75 C78 1.313 . S
C76 C77 1.338 . S
C76 N79 1.377 . S
C76 H96 0.930 . S
C77 N75 1.375 . S
C77 C76 1.338 . S
C77 H81 0.931 . S
C78 N75 1.313 . S
C78 N79 1.344 . S
C78 H82 0.930 . S
N79 C76 1.377 . S
N79 C78 1.344 . S
O80 Co72 2.055 . S
O80 C84 1.253 . S
H81 C77 0.931 . S
H82 C78 0.930 . S
O83 Co72 2.039 . S
O83 C73 1.265 . S
C84 O80 1.253 . S
C84 O85 1.227 . S
O85 C84 1.227 . S
N86 Co72 2.140 . S
N86 C89 1.346 . S
N86 C90 1.345 . S
C87 C88 1.387 . S
C87 C91 1.391 . S
C88 C87 1.387 . S
C88 C89 1.369 . S
C88 H97 0.929 . S
C89 N86 1.346 . S
C89 C88 1.369 . S
C89 H92 0.928 . S
C90 N86 1.345 . S
C90 C91 1.371 . S
C90 H93 0.931 . S
C91 C87 1.391 . S
C91 C90 1.371 . S
C91 H98 0.930 . S
H92 C89 0.928 . S
H93 C90 0.931 . S
H94 C70 0.930 . S
H95 C67 0.930 . S
H96 C76 0.930 . S
H97 C88 0.929 . S
H98 C91 0.930 . S
C99 C100 1.351 . S
C99 N102 1.368 . S
C99 H104 0.931 . S
C100 C99 1.351 . S
C100 N101 1.373 . S
C100 H128 0.930 . S
N101 C100 1.373 . S
N101 C103 1.340 . S
N102 C99 1.368 . S
N102 C103 1.321 . S
N102 Co105 2.135 . S
C103 N101 1.340 . S
C103 N102 1.321 . S
C103 H127 0.930 . S
H104 C99 0.931 . S
Co105 N102 2.135 . S
Co105 N108 2.121 . S
Co105 O113 2.055 . S
Co105 O116 2.039 . S
Co105 N119 2.140 . S
C106 O107 1.227 . S
C106 O116 1.265 . S
O107 C106 1.227 . S
N108 Co105 2.121 . S
N108 C110 1.375 . S
N108 C111 1.313 . S
C109 C110 1.338 . S
C109 N112 1.377 . S
C109 H129 0.930 . S
C110 N108 1.375 . S
C110 C109 1.338 . S
C110 H114 0.931 . S
C111 N108 1.313 . S
C111 N112 1.344 . S
C111 H115 0.930 . S
N112 C109 1.377 . S
N112 C111 1.344 . S
O113 Co105 2.055 . S
O113 C117 1.253 . S
H114 C110 0.931 . S
H115 C111 0.930 . S
O116 Co105 2.039 . S
O116 C106 1.265 . S
C117 O113 1.253 . S
C117 O118 1.227 . S
O118 C117 1.227 . S
N119 Co105 2.140 . S
N119 C122 1.346 . S
N119 C123 1.345 . S
C120 C121 1.387 . S
C120 C124 1.391 . S
C121 C120 1.387 . S
C121 C122 1.369 . S
C121 H130 0.929 . S
C122 N119 1.346 . S
C122 C121 1.369 . S
C122 H125 0.928 . S
C123 N119 1.345 . S
C123 C124 1.371 . S
C123 H126 0.931 . S
C124 C120 1.391 . S
C124 C123 1.371 . S
C124 H131 0.930 . S
H125 C122 0.928 . S
H126 C123 0.931 . S
H127 C103 0.930 . S
H128 C100 0.930 . S
H129 C109 0.930 . S
H130 C121 0.929 . S
H131 C124 0.930 . S
C132 C133 1.351 . S
C132 N135 1.368 . S
C132 H137 0.931 . S
C133 C132 1.351 . S
C133 N134 1.373 . S
C133 H161 0.930 . S
N134 C133 1.373 . S
N134 C136 1.340 . S
N135 C132 1.368 . S
N135 C136 1.321 . S
N135 Co138 2.135 . S
C136 N134 1.340 . S
C136 N135 1.321 . S
C136 H160 0.930 . S
H137 C132 0.931 . S
Co138 N135 2.135 . S
Co138 N141 2.121 . S
Co138 O146 2.055 . S
Co138 O149 2.039 . S
Co138 N152 2.140 . S
C139 O140 1.227 . S
C139 O149 1.265 . S
O140 C139 1.227 . S
N141 Co138 2.121 . S
N141 C143 1.375 . S
N141 C144 1.313 . S
C142 C143 1.338 . S
C142 N145 1.377 . S
C142 H162 0.930 . S
C143 N141 1.375 . S
C143 C142 1.338 . S
C143 H147 0.931 . S
C144 N141 1.313 . S
C144 N145 1.344 . S
C144 H148 0.930 . S
N145 C142 1.377 . S
N145 C144 1.344 . S
O146 Co138 2.055 . S
O146 C150 1.253 . S
H147 C143 0.931 . S
H148 C144 0.930 . S
O149 Co138 2.039 . S
O149 C139 1.265 . S
C150 O146 1.253 . S
C150 O151 1.227 . S
O151 C150 1.227 . S
N152 Co138 2.140 . S
N152 C155 1.346 . S
N152 C156 1.345 . S
C153 C154 1.387 . S
C153 C157 1.391 . S
C154 C153 1.387 . S
C154 C155 1.369 . S
C154 H163 0.929 . S
C155 N152 1.346 . S
C155 C154 1.369 . S
C155 H158 0.928 . S
C156 N152 1.345 . S
C156 C157 1.371 . S
C156 H159 0.931 . S
C157 C153 1.391 . S
C157 C156 1.371 . S
C157 H164 0.930 . S
H158 C155 0.928 . S
H159 C156 0.931 . S
H160 C136 0.930 . S
H161 C133 0.930 . S
H162 C142 0.930 . S
H163 C154 0.929 . S
H164 C157 0.930 . S
C165 C166 1.351 . S
C165 N168 1.368 . S
C165 H170 0.931 . S
C166 C165 1.351 . S
C166 N167 1.373 . S
C166 H194 0.930 . S
N167 C166 1.373 . S
N167 C169 1.340 . S
N168 C165 1.368 . S
N168 C169 1.321 . S
N168 Co171 2.135 . S
C169 N167 1.340 . S
C169 N168 1.321 . S
C169 H193 0.930 . S
H170 C165 0.931 . S
Co171 N168 2.135 . S
Co171 N174 2.121 . S
Co171 O179 2.055 . S
Co171 O182 2.039 . S
Co171 N185 2.140 . S
C172 O173 1.227 . S
C172 O182 1.265 . S
O173 C172 1.227 . S
N174 Co171 2.121 . S
N174 C176 1.375 . S
N174 C177 1.313 . S
C175 C176 1.338 . S
C175 N178 1.377 . S
C175 H195 0.930 . S
C176 N174 1.375 . S
C176 C175 1.338 . S
C176 H180 0.931 . S
C177 N174 1.313 . S
C177 N178 1.344 . S
C177 H181 0.930 . S
N178 C175 1.377 . S
N178 C177 1.344 . S
O179 Co171 2.055 . S
O179 C183 1.253 . S
H180 C176 0.931 . S
H181 C177 0.930 . S
O182 Co171 2.039 . S
O182 C172 1.265 . S
C183 O179 1.253 . S
C183 O184 1.227 . S
O184 C183 1.227 . S
N185 Co171 2.140 . S
N185 C188 1.346 . S
N185 C189 1.345 . S
C186 C187 1.387 . S
C186 C190 1.391 . S
C187 C186 1.387 . S
C187 C188 1.369 . S
C187 H196 0.929 . S
C188 N185 1.346 . S
C188 C187 1.369 . S
C188 H191 0.928 . S
C189 N185 1.345 . S
C189 C190 1.371 . S
C189 H192 0.931 . S
C190 C186 1.391 . S
C190 C189 1.371 . S
C190 H197 0.930 . S
H191 C188 0.928 . S
H192 C189 0.931 . S
H193 C169 0.930 . S
H194 C166 0.930 . S
H195 C175 0.930 . S
H196 C187 0.929 . S
H197 C190 0.930 . S
C198 C199 1.351 . S
C198 N201 1.368 . S
C198 H203 0.931 . S
C199 C198 1.351 . S
C199 N200 1.373 . S
C199 H227 0.930 . S
N200 C199 1.373 . S
N200 C202 1.340 . S
N201 C198 1.368 . S
N201 C202 1.321 . S
N201 Co204 2.135 . S
C202 N200 1.340 . S
C202 N201 1.321 . S
C202 H226 0.930 . S
H203 C198 0.931 . S
Co204 N201 2.135 . S
Co204 N207 2.121 . S
Co204 O212 2.055 . S
Co204 O215 2.039 . S
Co204 N218 2.140 . S
C205 O206 1.227 . S
C205 O215 1.265 . S
O206 C205 1.227 . S
N207 Co204 2.121 . S
N207 C209 1.375 . S
N207 C210 1.313 . S
C208 C209 1.338 . S
C208 N211 1.377 . S
C208 H228 0.930 . S
C209 N207 1.375 . S
C209 C208 1.338 . S
C209 H213 0.931 . S
C210 N207 1.313 . S
C210 N211 1.344 . S
C210 H214 0.930 . S
N211 C208 1.377 . S
N211 C210 1.344 . S
O212 Co204 2.055 . S
O212 C216 1.253 . S
H213 C209 0.931 . S
H214 C210 0.930 . S
O215 Co204 2.039 . S
O215 C205 1.265 . S
C216 O212 1.253 . S
C216 O217 1.227 . S
O217 C216 1.227 . S
N218 Co204 2.140 . S
N218 C221 1.346 . S
N218 C222 1.345 . S
C219 C220 1.387 . S
C219 C223 1.391 . S
C220 C219 1.387 . S
C220 C221 1.369 . S
C220 H229 0.929 . S
C221 N218 1.346 . S
C221 C220 1.369 . S
C221 H224 0.928 . S
C222 N218 1.345 . S
C222 C223 1.371 . S
C222 H225 0.931 . S
C223 C219 1.391 . S
C223 C222 1.371 . S
C223 H230 0.930 . S
H224 C221 0.928 . S
H225 C222 0.931 . S
H226 C202 0.930 . S
H227 C199 0.930 . S
H228 C208 0.930 . S
H229 C220 0.929 . S
H230 C223 0.930 . S
C231 C232 1.351 . S
C231 N234 1.368 . S
C231 H236 0.931 . S
C232 C231 1.351 . S
C232 N233 1.373 . S
C232 H260 0.930 . S
N233 C232 1.373 . S
N233 C235 1.340 . S
N234 C231 1.368 . S
N234 C235 1.321 . S
N234 Co237 2.135 . S
C235 N233 1.340 . S
C235 N234 1.321 . S
C235 H259 0.930 . S
H236 C231 0.931 . S
Co237 N234 2.135 . S
Co237 N240 2.121 . S
Co237 O245 2.055 . S
Co237 O248 2.039 . S
Co237 N251 2.140 . S
C238 O239 1.227 . S
C238 O248 1.265 . S
O239 C238 1.227 . S
N240 Co237 2.121 . S
N240 C242 1.375 . S
N240 C243 1.313 . S
C241 C242 1.338 . S
C241 N244 1.377 . S
C241 H261 0.930 . S
C242 N240 1.375 . S
C242 C241 1.338 . S
C242 H246 0.931 . S
C243 N240 1.313 . S
C243 N244 1.344 . S
C243 H247 0.930 . S
N244 C241 1.377 . S
N244 C243 1.344 . S
O245 Co237 2.055 . S
O245 C249 1.253 . S
H246 C242 0.931 . S
H247 C243 0.930 . S
O248 Co237 2.039 . S
O248 C238 1.265 . S
C249 O245 1.253 . S
C249 O250 1.227 . S
O250 C249 1.227 . S
N251 Co237 2.140 . S
N251 C254 1.346 . S
N251 C255 1.345 . S
C252 C253 1.387 . S
C252 C256 1.391 . S
C253 C252 1.387 . S
C253 C254 1.369 . S
C253 H262 0.929 . S
C254 N251 1.346 . S
C254 C253 1.369 . S
C254 H257 0.928 . S
C255 N251 1.345 . S
C255 C256 1.371 . S
C255 H258 0.931 . S
C256 C252 1.391 . S
C256 C255 1.371 . S
C256 H263 0.930 . S
H257 C254 0.928 . S
H258 C255 0.931 . S
H259 C235 0.930 . S
H260 C232 0.930 . S
H261 C241 0.930 . S
H262 C253 0.929 . S
H263 C256 0.930 . S
C264 C265 1.351 . S
C264 N267 1.368 . S
C264 H269 0.931 . S
C265 C264 1.351 . S
C265 N266 1.373 . S
C265 H293 0.930 . S
N266 C265 1.373 . S
N266 C268 1.340 . S
N267 C264 1.368 . S
N267 C268 1.321 . S
N267 Co270 2.135 . S
C268 N266 1.340 . S
C268 N267 1.321 . S
C268 H292 0.930 . S
H269 C264 0.931 . S
Co270 N267 2.135 . S
Co270 N273 2.121 . S
Co270 O278 2.055 . S
Co270 O281 2.039 . S
Co270 N284 2.140 . S
C271 O272 1.227 . S
C271 O281 1.265 . S
O272 C271 1.227 . S
N273 Co270 2.121 . S
N273 C275 1.375 . S
N273 C276 1.313 . S
C274 C275 1.338 . S
C274 N277 1.377 . S
C274 H294 0.930 . S
C275 N273 1.375 . S
C275 C274 1.338 . S
C275 H279 0.931 . S
C276 N273 1.313 . S
C276 N277 1.344 . S
C276 H280 0.930 . S
N277 C274 1.377 . S
N277 C276 1.344 . S
O278 Co270 2.055 . S
O278 C282 1.253 . S
H279 C275 0.931 . S
H280 C276 0.930 . S
O281 Co270 2.039 . S
O281 C271 1.265 . S
C282 O278 1.253 . S
C282 O283 1.227 . S
O283 C282 1.227 . S
N284 Co270 2.140 . S
N284 C287 1.346 . S
N284 C288 1.345 . S
C285 C286 1.387 . S
C285 C289 1.391 . S
C286 C285 1.387 . S
C286 C287 1.369 . S
C286 H295 0.929 . S
C287 N284 1.346 . S
C287 C286 1.369 . S
C287 H290 0.928 . S
C288 N284 1.345 . S
C288 C289 1.371 . S
C288 H291 0.931 . S
C289 C285 1.391 . S
C289 C288 1.371 . S
C289 H296 0.930 . S
H290 C287 0.928 . S
H291 C288 0.931 . S
H292 C268 0.930 . S
H293 C265 0.930 . S
H294 C274 0.930 . S
H295 C286 0.929 . S
H296 C289 0.930 . S
C297 C298 1.351 . S
C297 N300 1.368 . S
C297 H302 0.931 . S
C298 C297 1.351 . S
C298 N299 1.373 . S
C298 H326 0.930 . S
N299 C298 1.373 . S
N299 C301 1.340 . S
N300 C297 1.368 . S
N300 C301 1.321 . S
N300 Co303 2.135 . S
C301 N299 1.340 . S
C301 N300 1.321 . S
C301 H325 0.930 . S
H302 C297 0.931 . S
Co303 N300 2.135 . S
Co303 N306 2.121 . S
Co303 O311 2.055 . S
Co303 O314 2.039 . S
Co303 N317 2.140 . S
C304 O305 1.227 . S
C304 O314 1.265 . S
O305 C304 1.227 . S
N306 Co303 2.121 . S
N306 C308 1.375 . S
N306 C309 1.313 . S
C307 C308 1.338 . S
C307 N310 1.377 . S
C307 H327 0.930 . S
C308 N306 1.375 . S
C308 C307 1.338 . S
C308 H312 0.931 . S
C309 N306 1.313 . S
C309 N310 1.344 . S
C309 H313 0.930 . S
N310 C307 1.377 . S
N310 C309 1.344 . S
O311 Co303 2.055 . S
O311 C315 1.253 . S
H312 C308 0.931 . S
H313 C309 0.930 . S
O314 Co303 2.039 . S
O314 C304 1.265 . S
C315 O311 1.253 . S
C315 O316 1.227 . S
O316 C315 1.227 . S
N317 Co303 2.140 . S
N317 C320 1.346 . S
N317 C321 1.345 . S
C318 C319 1.387 . S
C318 C322 1.391 . S
C319 C318 1.387 . S
C319 C320 1.369 . S
C319 H328 0.929 . S
C320 N317 1.346 . S
C320 C319 1.369 . S
C320 H323 0.928 . S
C321 N317 1.345 . S
C321 C322 1.371 . S
C321 H324 0.931 . S
C322 C318 1.391 . S
C322 C321 1.371 . S
C322 H329 0.930 . S
H323 C320 0.928 . S
H324 C321 0.931 . S
H325 C301 0.930 . S
H326 C298 0.930 . S
H327 C307 0.930 . S
H328 C319 0.929 . S
H329 C322 0.930 . S
C330 C331 1.351 . S
C330 N333 1.368 . S
C330 H335 0.931 . S
C331 C330 1.351 . S
C331 N332 1.373 . S
C331 H359 0.930 . S
N332 C331 1.373 . S
N332 C334 1.340 . S
N333 C330 1.368 . S
N333 C334 1.321 . S
N333 Co336 2.135 . S
C334 N332 1.340 . S
C334 N333 1.321 . S
C334 H358 0.930 . S
H335 C330 0.931 . S
Co336 N333 2.135 . S
Co336 N339 2.121 . S
Co336 O344 2.055 . S
Co336 O347 2.039 . S
Co336 N350 2.140 . S
C337 O338 1.227 . S
C337 O347 1.265 . S
O338 C337 1.227 . S
N339 Co336 2.121 . S
N339 C341 1.375 . S
N339 C342 1.313 . S
C340 C341 1.338 . S
C340 N343 1.377 . S
C340 H360 0.930 . S
C341 N339 1.375 . S
C341 C340 1.338 . S
C341 H345 0.931 . S
C342 N339 1.313 . S
C342 N343 1.344 . S
C342 H346 0.930 . S
N343 C340 1.377 . S
N343 C342 1.344 . S
O344 Co336 2.055 . S
O344 C348 1.253 . S
H345 C341 0.931 . S
H346 C342 0.930 . S
O347 Co336 2.039 . S
O347 C337 1.265 . S
C348 O344 1.253 . S
C348 O349 1.227 . S
O349 C348 1.227 . S
N350 Co336 2.140 . S
N350 C353 1.346 . S
N350 C354 1.345 . S
C351 C352 1.387 . S
C351 C355 1.391 . S
C352 C351 1.387 . S
C352 C353 1.369 . S
C352 H361 0.929 . S
C353 N350 1.346 . S
C353 C352 1.369 . S
C353 H356 0.928 . S
C354 N350 1.345 . S
C354 C355 1.371 . S
C354 H357 0.931 . S
C355 C351 1.391 . S
C355 C354 1.371 . S
C355 H362 0.930 . S
H356 C353 0.928 . S
H357 C354 0.931 . S
H358 C334 0.930 . S
H359 C331 0.930 . S
H360 C340 0.930 . S
H361 C352 0.929 . S
H362 C355 0.930 . S
C363 C364 1.351 . S
C363 N366 1.368 . S
C363 H368 0.931 . S
C364 C363 1.351 . S
C364 N365 1.373 . S
C364 H392 0.930 . S
N365 C364 1.373 . S
N365 C367 1.340 . S
N366 C363 1.368 . S
N366 C367 1.321 . S
N366 Co369 2.135 . S
C367 N365 1.340 . S
C367 N366 1.321 . S
C367 H391 0.930 . S
H368 C363 0.931 . S
Co369 N366 2.135 . S
Co369 N372 2.121 . S
Co369 O377 2.055 . S
Co369 O380 2.039 . S
Co369 N383 2.140 . S
C370 O371 1.227 . S
C370 O380 1.265 . S
O371 C370 1.227 . S
N372 Co369 2.121 . S
N372 C374 1.375 . S
N372 C375 1.313 . S
C373 C374 1.338 . S
C373 N376 1.377 . S
C373 H393 0.930 . S
C374 N372 1.375 . S
C374 C373 1.338 . S
C374 H378 0.931 . S
C375 N372 1.313 . S
C375 N376 1.344 . S
C375 H379 0.930 . S
N376 C373 1.377 . S
N376 C375 1.344 . S
O377 Co369 2.055 . S
O377 C381 1.253 . S
H378 C374 0.931 . S
H379 C375 0.930 . S
O380 Co369 2.039 . S
O380 C370 1.265 . S
C381 O377 1.253 . S
C381 O382 1.227 . S
O382 C381 1.227 . S
N383 Co369 2.140 . S
N383 C386 1.346 . S
N383 C387 1.345 . S
C384 C385 1.387 . S
C384 C388 1.391 . S
C385 C384 1.387 . S
C385 C386 1.369 . S
C385 H394 0.929 . S
C386 N383 1.346 . S
C386 C385 1.369 . S
C386 H389 0.928 . S
C387 N383 1.345 . S
C387 C388 1.371 . S
C387 H390 0.931 . S
C388 C384 1.391 . S
C388 C387 1.371 . S
C388 H395 0.930 . S
H389 C386 0.928 . S
H390 C387 0.931 . S
H391 C367 0.930 . S
H392 C364 0.930 . S
H393 C373 0.930 . S
H394 C385 0.929 . S
H395 C388 0.930 . S
C396 C397 1.351 . S
C396 N399 1.368 . S
C396 H401 0.931 . S
C397 C396 1.351 . S
C397 N398 1.373 . S
C397 H425 0.930 . S
N398 C397 1.373 . S
N398 C400 1.340 . S
N399 C396 1.368 . S
N399 C400 1.321 . S
N399 Co402 2.135 . S
C400 N398 1.340 . S
C400 N399 1.321 . S
C400 H424 0.930 . S
H401 C396 0.931 . S
Co402 N399 2.135 . S
Co402 N405 2.121 . S
Co402 O410 2.055 . S
Co402 O413 2.039 . S
Co402 N416 2.140 . S
C403 O404 1.227 . S
C403 O413 1.265 . S
O404 C403 1.227 . S
N405 Co402 2.121 . S
N405 C407 1.375 . S
N405 C408 1.313 . S
C406 C407 1.338 . S
C406 N409 1.377 . S
C406 H426 0.930 . S
C407 N405 1.375 . S
C407 C406 1.338 . S
C407 H411 0.931 . S
C408 N405 1.313 . S
C408 N409 1.344 . S
C408 H412 0.930 . S
N409 C406 1.377 . S
N409 C408 1.344 . S
O410 Co402 2.055 . S
O410 C414 1.253 . S
H411 C407 0.931 . S
H412 C408 0.930 . S
O413 Co402 2.039 . S
O413 C403 1.265 . S
C414 O410 1.253 . S
C414 O415 1.227 . S
O415 C414 1.227 . S
N416 Co402 2.140 . S
N416 C419 1.346 . S
N416 C420 1.345 . S
C417 C418 1.387 . S
C417 C421 1.391 . S
C418 C417 1.387 . S
C418 C419 1.369 . S
C418 H427 0.929 . S
C419 N416 1.346 . S
C419 C418 1.369 . S
C419 H422 0.928 . S
C420 N416 1.345 . S
C420 C421 1.371 . S
C420 H423 0.931 . S
C421 C417 1.391 . S
C421 C420 1.371 . S
C421 H428 0.930 . S
H422 C419 0.928 . S
H423 C420 0.931 . S
H424 C400 0.930 . S
H425 C397 0.930 . S
H426 C406 0.930 . S
H427 C418 0.929 . S
H428 C421 0.930 . S
C429 C430 1.351 . S
C429 N432 1.368 . S
C429 H434 0.931 . S
C430 C429 1.351 . S
C430 N431 1.373 . S
C430 H458 0.930 . S
N431 C430 1.373 . S
N431 C433 1.340 . S
N432 C429 1.368 . S
N432 C433 1.321 . S
N432 Co435 2.135 . S
C433 N431 1.340 . S
C433 N432 1.321 . S
C433 H457 0.930 . S
H434 C429 0.931 . S
Co435 N432 2.135 . S
Co435 N438 2.121 . S
Co435 O443 2.055 . S
Co435 O446 2.039 . S
Co435 N449 2.140 . S
C436 O437 1.227 . S
C436 O446 1.265 . S
O437 C436 1.227 . S
N438 Co435 2.121 . S
N438 C440 1.375 . S
N438 C441 1.313 . S
C439 C440 1.338 . S
C439 N442 1.377 . S
C439 H459 0.930 . S
C440 N438 1.375 . S
C440 C439 1.338 . S
C440 H444 0.931 . S
C441 N438 1.313 . S
C441 N442 1.344 . S
C441 H445 0.930 . S
N442 C439 1.377 . S
N442 C441 1.344 . S
O443 Co435 2.055 . S
O443 C447 1.253 . S
H444 C440 0.931 . S
H445 C441 0.930 . S
O446 Co435 2.039 . S
O446 C436 1.265 . S
C447 O443 1.253 . S
C447 O448 1.227 . S
O448 C447 1.227 . S
N449 Co435 2.140 . S
N449 C452 1.346 . S
N449 C453 1.345 . S
C450 C451 1.387 . S
C450 C454 1.391 . S
C451 C450 1.387 . S
C451 C452 1.369 . S
C451 H460 0.929 . S
C452 N449 1.346 . S
C452 C451 1.369 . S
C452 H455 0.928 . S
C453 N449 1.345 . S
C453 C454 1.371 . S
C453 H456 0.931 . S
C454 C450 1.391 . S
C454 C453 1.371 . S
C454 H461 0.930 . S
H455 C452 0.928 . S
H456 C453 0.931 . S
H457 C433 0.930 . S
H458 C430 0.930 . S
H459 C439 0.930 . S
H460 C451 0.929 . S
H461 C454 0.930 . S
C462 C463 1.351 . S
C462 N465 1.368 . S
C462 H467 0.931 . S
C463 C462 1.351 . S
C463 N464 1.373 . S
C463 H491 0.930 . S
N464 C463 1.373 . S
N464 C466 1.340 . S
N465 C462 1.368 . S
N465 C466 1.321 . S
N465 Co468 2.135 . S
C466 N464 1.340 . S
C466 N465 1.321 . S
C466 H490 0.930 . S
H467 C462 0.931 . S
Co468 N465 2.135 . S
Co468 N471 2.121 . S
Co468 O476 2.055 . S
Co468 O479 2.039 . S
Co468 N482 2.140 . S
C469 O470 1.227 . S
C469 O479 1.265 . S
O470 C469 1.227 . S
N471 Co468 2.121 . S
N471 C473 1.375 . S
N471 C474 1.313 . S
C472 C473 1.338 . S
C472 N475 1.377 . S
C472 H492 0.930 . S
C473 N471 1.375 . S
C473 C472 1.338 . S
C473 H477 0.931 . S
C474 N471 1.313 . S
C474 N475 1.344 . S
C474 H478 0.930 . S
N475 C472 1.377 . S
N475 C474 1.344 . S
O476 Co468 2.055 . S
O476 C480 1.253 . S
H477 C473 0.931 . S
H478 C474 0.930 . S
O479 Co468 2.039 . S
O479 C469 1.265 . S
C480 O476 1.253 . S
C480 O481 1.227 . S
O481 C480 1.227 . S
N482 Co468 2.140 . S
N482 C485 1.346 . S
N482 C486 1.345 . S
C483 C484 1.387 . S
C483 C487 1.391 . S
C484 C483 1.387 . S
C484 C485 1.369 . S
C484 H493 0.929 . S
C485 N482 1.346 . S
C485 C484 1.369 . S
C485 H488 0.928 . S
C486 N482 1.345 . S
C486 C487 1.371 . S
C486 H489 0.931 . S
C487 C483 1.391 . S
C487 C486 1.371 . S
C487 H494 0.930 . S
H488 C485 0.928 . S
H489 C486 0.931 . S
H490 C466 0.930 . S
H491 C463 0.930 . S
H492 C472 0.930 . S
H493 C484 0.929 . S
H494 C487 0.930 . S
C495 C496 1.351 . S
C495 N498 1.368 . S
C495 H500 0.931 . S
C496 C495 1.351 . S
C496 N497 1.373 . S
C496 H524 0.930 . S
N497 C496 1.373 . S
N497 C499 1.340 . S
N498 C495 1.368 . S
N498 C499 1.321 . S
N498 Co501 2.135 . S
C499 N497 1.340 . S
C499 N498 1.321 . S
C499 H523 0.930 . S
H500 C495 0.931 . S
Co501 N498 2.135 . S
Co501 N504 2.121 . S
Co501 O509 2.055 . S
Co501 O512 2.039 . S
Co501 N515 2.140 . S
C502 O503 1.227 . S
C502 O512 1.265 . S
O503 C502 1.227 . S
N504 Co501 2.121 . S
N504 C506 1.375 . S
N504 C507 1.313 . S
C505 C506 1.338 . S
C505 N508 1.377 . S
C505 H525 0.930 . S
C506 N504 1.375 . S
C506 C505 1.338 . S
C506 H510 0.931 . S
C507 N504 1.313 . S
C507 N508 1.344 . S
C507 H511 0.930 . S
N508 C505 1.377 . S
N508 C507 1.344 . S
O509 Co501 2.055 . S
O509 C513 1.253 . S
H510 C506 0.931 . S
H511 C507 0.930 . S
O512 Co501 2.039 . S
O512 C502 1.265 . S
C513 O509 1.253 . S
C513 O514 1.227 . S
O514 C513 1.227 . S
N515 Co501 2.140 . S
N515 C518 1.346 . S
N515 C519 1.345 . S
C516 C517 1.387 . S
C516 C520 1.391 . S
C517 C516 1.387 . S
C517 C518 1.369 . S
C517 H526 0.929 . S
C518 N515 1.346 . S
C518 C517 1.369 . S
C518 H521 0.928 . S
C519 N515 1.345 . S
C519 C520 1.371 . S
C519 H522 0.931 . S
C520 C516 1.391 . S
C520 C519 1.371 . S
C520 H527 0.930 . S
H521 C518 0.928 . S
H522 C519 0.931 . S
H523 C499 0.930 . S
H524 C496 0.930 . S
H525 C505 0.930 . S
H526 C517 0.929 . S
H527 C520 0.930 . S
H528 C540 0.930 . S
H529 C542 0.930 . S
H530 C543 0.930 . S
H531 C547 0.959 . S
H532 C547 0.959 1_455 S
H533 C547 0.961 . S
H534 C548 0.960 . S
H535 C548 0.961 1_455 S
H536 C548 0.959 . S
H537 C551 0.929 . S
H538 C552 0.931 . S
H539 C554 0.930 . S
C540 H528 0.930 . S
C540 C541 1.399 . S
C540 C545 1.399 . S
C541 C540 1.399 . S
C541 C542 1.376 . S
C542 H529 0.930 . S
C542 C541 1.376 . S
C542 C543 1.388 . S
C543 H530 0.930 . S
C543 C542 1.388 . S
C543 C544 1.390 . S
C544 C543 1.390 . S
C544 C545 1.394 . S
C544 C550 1.465 1_655 S
C545 C540 1.399 . S
C545 C544 1.394 . S
C545 C546 1.516 . S
C546 C545 1.516 . S
C546 C547 1.502 . S
C546 C548 1.561 . S
C546 C549 1.526 1_655 S
C547 H531 0.959 . S
C547 H532 0.959 1_655 S
C547 H533 0.961 . S
C547 C546 1.502 . S
C548 H534 0.960 . S
C548 H535 0.961 1_655 S
C548 H536 0.959 . S
C548 C546 1.561 . S
C549 C546 1.526 1_455 S
C549 C550 1.396 . S
C549 C554 1.390 . S
C550 C544 1.465 1_455 S
C550 C549 1.396 . S
C550 C551 1.399 . S
C551 H537 0.929 . S
C551 C550 1.399 . S
C551 C552 1.385 . S
C552 H538 0.931 . S
C552 C551 1.385 . S
C552 C553 1.389 . S
C553 C552 1.389 . S
C553 C554 1.387 . S
C554 H539 0.930 . S
C554 C549 1.390 . S
C554 C553 1.387 . S
H555 C567 0.930 . S
H556 C569 0.930 . S
H557 C570 0.930 . S
H558 C574 0.959 . S
H559 C574 0.959 . S
H560 C574 0.961 1_545 S
H561 C575 0.960 1_545 S
H562 C575 0.961 . S
H563 C575 0.959 . S
H564 C578 0.929 . S
H565 C579 0.931 . S
H566 C581 0.930 . S
C567 H555 0.930 . S
C567 C568 1.399 . S
C567 C572 1.399 . S
C568 C567 1.399 . S
C568 C569 1.376 . S
C569 H556 0.930 . S
C569 C568 1.376 . S
C569 C570 1.388 . S
C570 H557 0.930 . S
C570 C569 1.388 . S
C570 C571 1.390 . S
C571 C570 1.390 . S
C571 C572 1.394 . S
C571 C577 1.465 1_545 S
C572 C567 1.399 . S
C572 C571 1.394 . S
C572 C573 1.516 1_545 S
C573 C572 1.516 1_565 S
C573 C574 1.502 . S
C573 C575 1.561 . S
C573 C576 1.526 . S
C574 H558 0.959 . S
C574 H559 0.959 . S
C574 H560 0.961 1_565 S
C574 C573 1.502 . S
C575 H561 0.960 1_565 S
C575 H562 0.961 . S
C575 H563 0.959 . S
C575 C573 1.561 . S
C576 C573 1.526 . S
C576 C577 1.396 . S
C576 C581 1.390 . S
C577 C571 1.465 1_565 S
C577 C576 1.396 . S
C577 C578 1.399 . S
C578 H564 0.929 . S
C578 C577 1.399 . S
C578 C579 1.385 . S
C579 H565 0.931 . S
C579 C578 1.385 . S
C579 C580 1.389 . S
C580 C579 1.389 . S
C580 C581 1.387 . S
C581 H566 0.930 . S
C581 C576 1.390 . S
C581 C580 1.387 . S
H582 C594 0.930 . S
H583 C596 0.930 . S
H584 C597 0.930 . S
H585 C601 0.959 . S
H586 C601 0.959 . S
H587 C601 0.961 1_655 S
H588 C602 0.960 1_655 S
H589 C602 0.961 . S
H590 C602 0.959 . S
H591 C605 0.929 . S
H592 C606 0.931 . S
H593 C608 0.930 . S
C594 H582 0.930 . S
C594 C595 1.399 . S
C594 C599 1.399 . S
C595 C594 1.399 . S
C595 C596 1.376 . S
C596 H583 0.930 . S
C596 C595 1.376 . S
C596 C597 1.388 . S
C597 H584 0.930 . S
C597 C596 1.388 . S
C597 C598 1.390 . S
C598 C597 1.390 . S
C598 C599 1.394 . S
C598 C604 1.465 1_655 S
C599 C594 1.399 . S
C599 C598 1.394 . S
C599 C600 1.516 1_655 S
C600 C599 1.516 1_455 S
C600 C601 1.502 . S
C600 C602 1.561 . S
C600 C603 1.526 . S
C601 H585 0.959 . S
C601 H586 0.959 . S
C601 H587 0.961 1_455 S
C601 C600 1.502 . S
C602 H588 0.960 1_455 S
C602 H589 0.961 . S
C602 H590 0.959 . S
C602 C600 1.561 . S
C603 C600 1.526 . S
C603 C604 1.396 . S
C603 C608 1.390 . S
C604 C598 1.465 1_455 S
C604 C603 1.396 . S
C604 C605 1.399 . S
C605 H591 0.929 . S
C605 C604 1.399 . S
C605 C606 1.385 . S
C606 H592 0.931 . S
C606 C605 1.385 . S
C606 C607 1.389 . S
C607 C606 1.389 . S
C607 C608 1.387 . S
C608 H593 0.930 . S
C608 C603 1.390 . S
C608 C607 1.387 . S
H609 C621 0.930 . S
H610 C623 0.930 . S
H611 C624 0.930 . S
H612 C628 0.959 . S
H613 C628 0.959 . S
H614 C628 0.961 1_565 S
H615 C629 0.960 1_565 S
H616 C629 0.961 . S
H617 C629 0.959 . S
H618 C632 0.929 . S
H619 C633 0.931 . S
H620 C635 0.930 . S
C621 H609 0.930 . S
C621 C622 1.399 . S
C621 C626 1.399 . S
C622 C621 1.399 . S
C622 C623 1.376 . S
C623 H610 0.930 . S
C623 C622 1.376 . S
C623 C624 1.388 . S
C624 H611 0.930 . S
C624 C623 1.388 . S
C624 C625 1.390 . S
C625 C624 1.390 . S
C625 C626 1.394 . S
C625 C631 1.465 1_565 S
C626 C621 1.399 . S
C626 C625 1.394 . S
C626 C627 1.516 1_565 S
C627 C626 1.516 1_545 S
C627 C628 1.502 . S
C627 C629 1.561 . S
C627 C630 1.526 . S
C628 H612 0.959 . S
C628 H613 0.959 . S
C628 H614 0.961 1_545 S
C628 C627 1.502 . S
C629 H615 0.960 1_545 S
C629 H616 0.961 . S
C629 H617 0.959 . S
C629 C627 1.561 . S
C630 C627 1.526 . S
C630 C631 1.396 . S
C630 C635 1.390 . S
C631 C625 1.465 1_545 S
C631 C630 1.396 . S
C631 C632 1.399 . S
C632 H618 0.929 . S
C632 C631 1.399 . S
C632 C633 1.385 . S
C633 H619 0.931 . S
C633 C632 1.385 . S
C633 C634 1.389 . S
C634 C633 1.389 . S
C634 C635 1.387 . S
C635 H620 0.930 . S
C635 C630 1.390 . S
C635 C634 1.387 . S
H636 C648 0.930 . S
H637 C650 0.930 . S
H638 C651 0.930 . S
H639 C655 0.960 . S
H640 C655 0.955 1_455 S
H641 C655 0.965 . S
H642 C656 0.960 1_655 S
H643 C656 0.961 . S
H644 C656 0.959 . S
H645 C659 0.929 . S
H646 C660 0.931 . S
H647 C662 0.930 . S
C648 H636 0.930 . S
C648 C649 1.399 . S
C648 C653 1.399 . S
C649 C648 1.399 . S
C649 C650 1.376 . S
C650 H637 0.930 . S
C650 C649 1.376 . S
C650 C651 1.388 . S
C651 H638 0.930 . S
C651 C650 1.388 . S
C651 C652 1.390 . S
C652 C651 1.390 . S
C652 C653 1.394 . S
C652 C658 1.465 1_655 S
C653 C648 1.399 . S
C653 C652 1.394 . S
C653 C654 1.516 1_655 S
C654 C653 1.516 1_455 S
C654 C655 1.501 1_455 S
C654 C656 1.561 . S
C654 C657 1.526 . S
C655 H639 0.960 . S
C655 H640 0.955 1_655 S
C655 H641 0.965 . S
C655 C654 1.501 1_655 S
C656 H642 0.960 1_455 S
C656 H643 0.961 . S
C656 H644 0.959 . S
C656 C654 1.561 . S
C657 C654 1.526 . S
C657 C658 1.396 . S
C657 C662 1.390 . S
C658 C652 1.465 1_455 S
C658 C657 1.396 . S
C658 C659 1.399 . S
C659 H645 0.929 . S
C659 C658 1.399 . S
C659 C660 1.385 . S
C660 H646 0.931 . S
C660 C659 1.385 . S
C660 C661 1.389 . S
C661 C660 1.389 . S
C661 C662 1.387 . S
C662 H647 0.930 . S
C662 C657 1.390 . S
C662 C661 1.387 . S
H663 C675 0.930 . S
H664 C677 0.930 . S
H665 C678 0.930 . S
H666 C682 0.962 . S
H667 C682 0.959 1_545 S
H668 C682 0.961 . S
H669 C683 0.960 . S
H670 C683 0.953 1_545 S
H671 C683 0.959 . S
H672 C686 0.929 . S
H673 C687 0.931 . S
H674 C689 0.930 . S
C675 H663 0.930 . S
C675 C676 1.399 . S
C675 C680 1.399 . S
C676 C675 1.399 . S
C676 C677 1.376 . S
C677 H664 0.930 . S
C677 C676 1.376 . S
C677 C678 1.388 . S
C678 H665 0.930 . S
C678 C677 1.388 . S
C678 C679 1.390 . S
C679 C678 1.390 . S
C679 C680 1.394 . S
C679 C685 1.465 1_565 S
C680 C675 1.399 . S
C680 C679 1.394 . S
C680 C681 1.516 . S
C681 C680 1.516 . S
C681 C682 1.502 . S
C681 C683 1.561 . S
C681 C684 1.526 1_565 S
C682 H666 0.962 . S
C682 H667 0.959 1_565 S
C682 H668 0.961 . S
C682 C681 1.502 . S
C683 H669 0.960 . S
C683 H670 0.953 1_565 S
C683 H671 0.959 . S
C683 C681 1.561 . S
C684 C681 1.526 1_545 S
C684 C685 1.396 . S
C684 C689 1.390 . S
C685 C679 1.465 1_545 S
C685 C684 1.396 . S
C685 C686 1.399 . S
C686 H672 0.929 . S
C686 C685 1.399 . S
C686 C687 1.385 . S
C687 H673 0.931 . S
C687 C686 1.385 . S
C687 C688 1.389 . S
C688 C687 1.389 . S
C688 C689 1.387 . S
C689 H674 0.930 . S
C689 C684 1.390 . S
C689 C688 1.387 . S
H690 C702 0.930 . S
H691 C704 0.930 . S
H692 C705 0.930 . S
H693 C709 0.960 . S
H694 C709 0.974 . S
H695 C709 0.944 1_655 S
H696 C710 0.960 1_655 S
H697 C710 0.961 . S
H698 C710 0.959 . S
H699 C713 0.929 . S
H700 C714 0.931 . S
H701 C716 0.930 . S
C702 H690 0.930 . S
C702 C703 1.399 . S
C702 C707 1.399 . S
C703 C702 1.399 . S
C703 C704 1.376 . S
C704 H691 0.930 . S
C704 C703 1.376 . S
C704 C705 1.388 . S
C705 H692 0.930 . S
C705 C704 1.388 . S
C705 C706 1.390 . S
C706 C705 1.390 . S
C706 C707 1.394 . S
C706 C712 1.465 1_655 S
C707 C702 1.399 . S
C707 C706 1.394 . S
C707 C708 1.516 1_655 S
C708 C707 1.516 1_455 S
C708 C709 1.504 . S
C708 C710 1.561 . S
C708 C711 1.526 . S
C709 H693 0.960 . S
C709 H694 0.974 . S
C709 H695 0.944 1_455 S
C709 C708 1.504 . S
C710 H696 0.960 1_455 S
C710 H697 0.961 . S
C710 H698 0.959 . S
C710 C708 1.561 . S
C711 C708 1.526 . S
C711 C712 1.396 . S
C711 C716 1.390 . S
C712 C706 1.465 1_455 S
C712 C711 1.396 . S
C712 C713 1.399 . S
C713 H699 0.929 . S
C713 C712 1.399 . S
C713 C714 1.385 . S
C714 H700 0.931 . S
C714 C713 1.385 . S
C714 C715 1.389 . S
C715 C714 1.389 . S
C715 C716 1.387 . S
C716 H701 0.930 . S
C716 C711 1.390 . S
C716 C715 1.387 . S
H717 C729 0.930 . S
H718 C731 0.930 . S
H719 C732 0.930 . S
H720 C736 0.959 . S
H721 C736 0.959 1_565 S
H722 C736 0.961 . S
H723 C737 0.960 1_545 S
H724 C737 0.961 . S
H725 C737 0.959 . S
H726 C740 0.929 . S
H727 C741 0.931 . S
H728 C743 0.930 . S
C729 H717 0.930 . S
C729 C730 1.399 . S
C729 C734 1.399 . S
C730 C729 1.399 . S
C730 C731 1.376 . S
C731 H718 0.930 . S
C731 C730 1.376 . S
C731 C732 1.388 . S
C732 H719 0.930 . S
C732 C731 1.388 . S
C732 C733 1.390 . S
C733 C732 1.390 . S
C733 C734 1.394 . S
C733 C739 1.465 1_545 S
C734 C729 1.399 . S
C734 C733 1.394 . S
C734 C735 1.516 . S
C735 C734 1.516 . S
C735 C736 1.502 . S
C735 C737 1.561 1_545 S
C735 C738 1.526 1_545 S
C736 H720 0.959 . S
C736 H721 0.959 1_545 S
C736 H722 0.961 . S
C736 C735 1.502 . S
C737 H723 0.960 1_565 S
C737 H724 0.961 . S
C737 H725 0.959 . S
C737 C735 1.561 1_565 S
C738 C735 1.526 1_565 S
C738 C739 1.396 . S
C738 C743 1.390 . S
C739 C733 1.465 1_565 S
C739 C738 1.396 . S
C739 C740 1.399 . S
C740 H726 0.929 . S
C740 C739 1.399 . S
C740 C741 1.385 . S
C741 H727 0.931 . S
C741 C740 1.385 . S
C741 C742 1.389 . S
C742 C741 1.389 . S
C742 C743 1.387 . S
C743 H728 0.930 . S
C743 C738 1.390 . S
C743 C742 1.387 . S
H744 C756 0.930 . S
H745 C758 0.930 . S
H746 C759 0.930 . S
H747 C763 0.959 . S
H748 C763 0.959 . S
H749 C763 0.961 . S
H750 C764 0.960 . S
H751 C764 0.961 . S
H752 C764 0.959 . S
H753 C767 0.929 . S
H754 C768 0.931 . S
H755 C770 0.930 . S
C756 H744 0.930 . S
C756 C757 1.399 . S
C756 C761 1.399 . S
C757 C756 1.399 . S
C757 C758 1.376 . S
C758 H745 0.930 . S
C758 C757 1.376 . S
C758 C759 1.388 . S
C759 H746 0.930 . S
C759 C758 1.388 . S
C759 C760 1.390 . S
C760 C759 1.390 . S
C760 C761 1.394 . S
C760 C766 1.465 . S
C761 C756 1.399 . S
C761 C760 1.394 . S
C761 C762 1.516 . S
C762 C761 1.516 . S
C762 C763 1.502 . S
C762 C764 1.561 . S
C762 C765 1.526 . S
C763 H747 0.959 . S
C763 H748 0.959 . S
C763 H749 0.961 . S
C763 C762 1.502 . S
C764 H750 0.960 . S
C764 H751 0.961 . S
C764 H752 0.959 . S
C764 C762 1.561 . S
C765 C762 1.526 . S
C765 C766 1.396 . S
C765 C770 1.390 . S
C766 C760 1.465 . S
C766 C765 1.396 . S
C766 C767 1.399 . S
C767 H753 0.929 . S
C767 C766 1.399 . S
C767 C768 1.385 . S
C768 H754 0.931 . S
C768 C767 1.385 . S
C768 C769 1.389 . S
C769 C768 1.389 . S
C769 C770 1.387 . S
C770 H755 0.930 . S
C770 C765 1.390 . S
C770 C769 1.387 . S
H771 C783 0.930 . S
H772 C785 0.930 . S
H773 C786 0.930 . S
H774 C790 0.959 . S
H775 C790 0.959 . S
H776 C790 0.961 . S
H777 C791 0.960 . S
H778 C791 0.961 . S
H779 C791 0.959 . S
H780 C794 0.929 . S
H781 C795 0.931 . S
H782 C797 0.930 . S
C783 H771 0.930 . S
C783 C784 1.399 . S
C783 C788 1.399 . S
C784 C783 1.399 . S
C784 C785 1.376 . S
C785 H772 0.930 . S
C785 C784 1.376 . S
C785 C786 1.388 . S
C786 H773 0.930 . S
C786 C785 1.388 . S
C786 C787 1.390 . S
C787 C786 1.390 . S
C787 C788 1.394 . S
C787 C793 1.465 . S
C788 C783 1.399 . S
C788 C787 1.394 . S
C788 C789 1.516 . S
C789 C788 1.516 . S
C789 C790 1.502 . S
C789 C791 1.561 . S
C789 C792 1.526 . S
C790 H774 0.959 . S
C790 H775 0.959 . S
C790 H776 0.961 . S
C790 C789 1.502 . S
C791 H777 0.960 . S
C791 H778 0.961 . S
C791 H779 0.959 . S
C791 C789 1.561 . S
C792 C789 1.526 . S
C792 C793 1.396 . S
C792 C797 1.390 . S
C793 C787 1.465 . S
C793 C792 1.396 . S
C793 C794 1.399 . S
C794 H780 0.929 . S
C794 C793 1.399 . S
C794 C795 1.385 . S
C795 H781 0.931 . S
C795 C794 1.385 . S
C795 C796 1.389 . S
C796 C795 1.389 . S
C796 C797 1.387 . S
C797 H782 0.930 . S
C797 C792 1.390 . S
C797 C796 1.387 . S
H798 C810 0.930 . S
H799 C812 0.930 . S
H800 C813 0.930 . S
H801 C817 0.959 . S
H802 C817 0.959 . S
H803 C817 0.961 . S
H804 C818 0.960 . S
H805 C818 0.961 . S
H806 C818 0.959 . S
H807 C821 0.929 . S
H808 C822 0.931 . S
H809 C824 0.930 . S
C810 H798 0.930 . S
C810 C811 1.399 . S
C810 C815 1.399 . S
C811 C810 1.399 . S
C811 C812 1.376 . S
C812 H799 0.930 . S
C812 C811 1.376 . S
C812 C813 1.388 . S
C813 H800 0.930 . S
C813 C812 1.388 . S
C813 C814 1.390 . S
C814 C813 1.390 . S
C814 C815 1.394 . S
C814 C820 1.465 . S
C815 C810 1.399 . S
C815 C814 1.394 . S
C815 C816 1.516 . S
C816 C815 1.516 . S
C816 C817 1.502 . S
C816 C818 1.561 . S
C816 C819 1.526 . S
C817 H801 0.959 . S
C817 H802 0.959 . S
C817 H803 0.961 . S
C817 C816 1.502 . S
C818 H804 0.960 . S
C818 H805 0.961 . S
C818 H806 0.959 . S
C818 C816 1.561 . S
C819 C816 1.526 . S
C819 C820 1.396 . S
C819 C824 1.390 . S
C820 C814 1.465 . S
C820 C819 1.396 . S
C820 C821 1.399 . S
C821 H807 0.929 . S
C821 C820 1.399 . S
C821 C822 1.385 . S
C822 H808 0.931 . S
C822 C821 1.385 . S
C822 C823 1.389 . S
C823 C822 1.389 . S
C823 C824 1.387 . S
C824 H809 0.930 . S
C824 C819 1.390 . S
C824 C823 1.387 . S
H825 C837 0.930 . S
H826 C839 0.930 . S
H827 C840 0.930 . S
H828 C844 0.959 . S
H829 C844 0.959 . S
H830 C844 0.961 . S
H831 C845 0.960 . S
H832 C845 0.961 . S
H833 C845 0.959 . S
H834 C848 0.929 . S
H835 C849 0.931 . S
H836 C851 0.930 . S
C837 H825 0.930 . S
C837 C838 1.399 . S
C837 C842 1.399 . S
C838 C837 1.399 . S
C838 C839 1.376 . S
C839 H826 0.930 . S
C839 C838 1.376 . S
C839 C840 1.388 . S
C840 H827 0.930 . S
C840 C839 1.388 . S
C840 C841 1.390 . S
C841 C840 1.390 . S
C841 C842 1.394 . S
C841 C847 1.465 . S
C842 C837 1.399 . S
C842 C841 1.394 . S
C842 C843 1.516 . S
C843 C842 1.516 . S
C843 C844 1.502 . S
C843 C845 1.561 . S
C843 C846 1.526 . S
C844 H828 0.959 . S
C844 H829 0.959 . S
C844 H830 0.961 . S
C844 C843 1.502 . S
C845 H831 0.960 . S
C845 H832 0.961 . S
C845 H833 0.959 . S
C845 C843 1.561 . S
C846 C843 1.526 . S
C846 C847 1.396 . S
C846 C851 1.390 . S
C847 C841 1.465 . S
C847 C846 1.396 . S
C847 C848 1.399 . S
C848 H834 0.929 . S
C848 C847 1.399 . S
C848 C849 1.385 . S
C849 H835 0.931 . S
C849 C848 1.385 . S
C849 C850 1.389 . S
C850 C849 1.389 . S
C850 C851 1.387 . S
C851 H836 0.930 . S
C851 C846 1.390 . S
C851 C850 1.387 . S
H852 C864 0.930 . S
H853 C866 0.930 . S
H854 C867 0.930 . S
H855 C871 0.959 . S
H856 C871 0.959 . S
H857 C871 0.961 . S
H858 C872 0.960 . S
H859 C872 0.961 . S
H860 C872 0.959 . S
H861 C875 0.929 . S
H862 C876 0.931 . S
H863 C878 0.930 . S
C864 H852 0.930 . S
C864 C865 1.399 . S
C864 C869 1.399 . S
C865 C864 1.399 . S
C865 C866 1.376 . S
C866 H853 0.930 . S
C866 C865 1.376 . S
C866 C867 1.388 . S
C867 H854 0.930 . S
C867 C866 1.388 . S
C867 C868 1.390 . S
C868 C867 1.390 . S
C868 C869 1.394 . S
C868 C874 1.465 . S
C869 C864 1.399 . S
C869 C868 1.394 . S
C869 C870 1.516 . S
C870 C869 1.516 . S
C870 C871 1.502 . S
C870 C872 1.561 . S
C870 C873 1.526 . S
C871 H855 0.959 . S
C871 H856 0.959 . S
C871 H857 0.961 . S
C871 C870 1.502 . S
C872 H858 0.960 . S
C872 H859 0.961 . S
C872 H860 0.959 . S
C872 C870 1.561 . S
C873 C870 1.526 . S
C873 C874 1.396 . S
C873 C878 1.390 . S
C874 C868 1.465 . S
C874 C873 1.396 . S
C874 C875 1.399 . S
C875 H861 0.929 . S
C875 C874 1.399 . S
C875 C876 1.385 . S
C876 H862 0.931 . S
C876 C875 1.385 . S
C876 C877 1.389 . S
C877 C876 1.389 . S
C877 C878 1.387 . S
C878 H863 0.930 . S
C878 C873 1.390 . S
C878 C877 1.387 . S
H879 C891 0.930 . S
H880 C893 0.930 . S
H881 C894 0.930 . S
H882 C898 0.959 . S
H883 C898 0.959 . S
H884 C898 0.961 . S
H885 C899 0.960 . S
H886 C899 0.961 . S
H887 C899 0.959 . S
H888 C902 0.929 . S
H889 C903 0.931 . S
H890 C905 0.930 . S
C891 H879 0.930 . S
C891 C892 1.399 . S
C891 C896 1.399 . S
C892 C891 1.399 . S
C892 C893 1.376 . S
C893 H880 0.930 . S
C893 C892 1.376 . S
C893 C894 1.388 . S
C894 H881 0.930 . S
C894 C893 1.388 . S
C894 C895 1.390 . S
C895 C894 1.390 . S
C895 C896 1.394 . S
C895 C901 1.465 . S
C896 C891 1.399 . S
C896 C895 1.394 . S
C896 C897 1.516 . S
C897 C896 1.516 . S
C897 C898 1.502 . S
C897 C899 1.561 . S
C897 C900 1.526 . S
C898 H882 0.959 . S
C898 H883 0.959 . S
C898 H884 0.961 . S
C898 C897 1.502 . S
C899 H885 0.960 . S
C899 H886 0.961 . S
C899 H887 0.959 . S
C899 C897 1.561 . S
C900 C897 1.526 . S
C900 C901 1.396 . S
C900 C905 1.390 . S
C901 C895 1.465 . S
C901 C900 1.396 . S
C901 C902 1.399 . S
C902 H888 0.929 . S
C902 C901 1.399 . S
C902 C903 1.385 . S
C903 H889 0.931 . S
C903 C902 1.385 . S
C903 C904 1.389 . S
C904 C903 1.389 . S
C904 C905 1.387 . S
C905 H890 0.930 . S
C905 C900 1.390 . S
C905 C904 1.387 . S
H906 C918 0.930 . S
H907 C920 0.930 . S
H908 C921 0.930 . S
H909 C925 0.959 . S
H910 C925 0.959 . S
H911 C925 0.961 . S
H912 C926 0.960 . S
H913 C926 0.961 . S
H914 C926 0.959 . S
H915 C929 0.929 . S
H916 C930 0.931 . S
H917 C932 0.930 . S
C918 H906 0.930 . S
C918 C919 1.399 . S
C918 C923 1.399 . S
C919 C918 1.399 . S
C919 C920 1.376 . S
C920 H907 0.930 . S
C920 C919 1.376 . S
C920 C921 1.388 . S
C921 H908 0.930 . S
C921 C920 1.388 . S
C921 C922 1.390 . S
C922 C921 1.390 . S
C922 C923 1.394 . S
C922 C928 1.465 . S
C923 C918 1.399 . S
C923 C922 1.394 . S
C923 C924 1.516 . S
C924 C923 1.516 . S
C924 C925 1.502 . S
C924 C926 1.561 . S
C924 C927 1.526 . S
C925 H909 0.959 . S
C925 H910 0.959 . S
C925 H911 0.961 . S
C925 C924 1.502 . S
C926 H912 0.960 . S
C926 H913 0.961 . S
C926 H914 0.959 . S
C926 C924 1.561 . S
C927 C924 1.526 . S
C927 C928 1.396 . S
C927 C932 1.390 . S
C928 C922 1.465 . S
C928 C927 1.396 . S
C928 C929 1.399 . S
C929 H915 0.929 . S
C929 C928 1.399 . S
C929 C930 1.385 . S
C930 H916 0.931 . S
C930 C929 1.385 . S
C930 C931 1.389 . S
C931 C930 1.389 . S
C931 C932 1.387 . S
C932 H917 0.930 . S
C932 C927 1.390 . S
C932 C931 1.387 . S
H933 C945 0.930 . S
H934 C947 0.930 . S
H935 C948 0.930 . S
H936 C952 0.959 . S
H937 C952 0.959 . S
H938 C952 0.961 . S
H939 C953 0.960 . S
H940 C953 0.961 . S
H941 C953 0.959 . S
H942 C956 0.929 . S
H943 C957 0.931 . S
H944 C959 0.930 . S
C945 H933 0.930 . S
C945 C946 1.399 . S
C945 C950 1.399 . S
C946 C945 1.399 . S
C946 C947 1.376 . S
C947 H934 0.930 . S
C947 C946 1.376 . S
C947 C948 1.388 . S
C948 H935 0.930 . S
C948 C947 1.388 . S
C948 C949 1.390 . S
C949 C948 1.390 . S
C949 C950 1.394 . S
C949 C955 1.465 . S
C950 C945 1.399 . S
C950 C949 1.394 . S
C950 C951 1.516 . S
C951 C950 1.516 . S
C951 C952 1.502 . S
C951 C953 1.561 . S
C951 C954 1.526 . S
C952 H936 0.959 . S
C952 H937 0.959 . S
C952 H938 0.961 . S
C952 C951 1.502 . S
C953 H939 0.960 . S
C953 H940 0.961 . S
C953 H941 0.959 . S
C953 C951 1.561 . S
C954 C951 1.526 . S
C954 C955 1.396 . S
C954 C959 1.390 . S
C955 C949 1.465 . S
C955 C954 1.396 . S
C955 C956 1.399 . S
C956 H942 0.929 . S
C956 C955 1.399 . S
C956 C957 1.385 . S
C957 H943 0.931 . S
C957 C956 1.385 . S
C957 C958 1.389 . S
C958 C957 1.389 . S
C958 C959 1.387 . S
C959 H944 0.930 . S
C959 C954 1.390 . S
C959 C958 1.387 . S
H960 C972 0.930 . S
H961 C974 0.930 . S
H962 C975 0.930 . S
H963 C979 0.959 . S
H964 C979 0.959 . S
H965 C979 0.961 1_554 S
H966 C980 0.960 1_554 S
H967 C980 0.961 . S
H968 C980 0.959 . S
H969 C983 0.929 . S
H970 C984 0.931 . S
H971 C986 0.930 . S
C972 H960 0.930 . S
C972 C973 1.399 . S
C972 C977 1.399 . S
C973 C972 1.399 . S
C973 C974 1.376 . S
C974 H961 0.930 . S
C974 C973 1.376 . S
C974 C975 1.388 . S
C975 H962 0.930 . S
C975 C974 1.388 . S
C975 C976 1.390 . S
C976 C975 1.390 . S
C976 C977 1.394 . S
C976 C982 1.465 1_554 S
C977 C972 1.399 . S
C977 C976 1.394 . S
C977 C978 1.516 1_554 S
C978 C977 1.516 1_556 S
C978 C979 1.502 . S
C978 C980 1.561 . S
C978 C981 1.526 . S
C979 H963 0.959 . S
C979 H964 0.959 . S
C979 H965 0.961 1_556 S
C979 C978 1.502 . S
C980 H966 0.960 1_556 S
C980 H967 0.961 . S
C980 H968 0.959 . S
C980 C978 1.561 . S
C981 C978 1.526 . S
C981 C982 1.396 . S
C981 C986 1.390 . S
C982 C976 1.465 1_556 S
C982 C981 1.396 . S
C982 C983 1.399 . S
C983 H969 0.929 . S
C983 C982 1.399 . S
C983 C984 1.385 . S
C984 H970 0.931 . S
C984 C983 1.385 . S
C984 C985 1.389 . S
C985 C984 1.389 . S
C985 C986 1.387 . S
C986 H971 0.930 . S
C986 C981 1.390 . S
C986 C985 1.387 . S
H987 C999 0.930 . S
H988 C1001 0.930 . S
H989 C1002 0.930 . S
H990 C1006 0.959 . S
H991 C1006 0.959 . S
H992 C1006 0.961 . S
H993 C1007 0.960 . S
H994 C1007 0.961 . S
H995 C1007 0.959 . S
H996 C1010 0.929 . S
H997 C1011 0.931 . S
H998 C1013 0.930 . S
C999 H987 0.930 . S
C999 C1000 1.399 . S
C999 C1004 1.399 . S
C1000 C999 1.399 . S
C1000 C1001 1.376 . S
C1001 H988 0.930 . S
C1001 C1000 1.376 . S
C1001 C1002 1.388 . S
C1002 H989 0.930 . S
C1002 C1001 1.388 . S
C1002 C1003 1.390 . S
C1003 C1002 1.390 . S
C1003 C1004 1.394 . S
C1003 C1009 1.465 . S
C1004 C999 1.399 . S
C1004 C1003 1.394 . S
C1004 C1005 1.516 . S
C1005 C1004 1.516 . S
C1005 C1006 1.502 . S
C1005 C1007 1.561 . S
C1005 C1008 1.526 . S
C1006 H990 0.959 . S
C1006 H991 0.959 . S
C1006 H992 0.961 . S
C1006 C1005 1.502 . S
C1007 H993 0.960 . S
C1007 H994 0.961 . S
C1007 H995 0.959 . S
C1007 C1005 1.561 . S
C1008 C1005 1.526 . S
C1008 C1009 1.396 . S
C1008 C1013 1.390 . S
C1009 C1003 1.465 . S
C1009 C1008 1.396 . S
C1009 C1010 1.399 . S
C1010 H996 0.929 . S
C1010 C1009 1.399 . S
C1010 C1011 1.385 . S
C1011 H997 0.931 . S
C1011 C1010 1.385 . S
C1011 C1012 1.389 . S
C1012 C1011 1.389 . S
C1012 C1013 1.387 . S
C1013 H998 0.930 . S
C1013 C1008 1.390 . S
C1013 C1012 1.387 . S
H1014 C1026 0.930 . S
H1015 C1028 0.930 . S
H1016 C1029 0.930 . S
H1017 C1033 0.959 . S
H1018 C1033 0.959 1_554 S
H1019 C1033 0.961 . S
H1020 C1034 0.960 . S
H1021 C1034 0.961 1_554 S
H1022 C1034 0.959 . S
H1023 C1037 0.929 . S
H1024 C1038 0.931 . S
H1025 C1040 0.930 . S
C1026 H1014 0.930 . S
C1026 C1027 1.399 . S
C1026 C1031 1.399 . S
C1027 C1026 1.399 . S
C1027 C1028 1.376 . S
C1028 H1015 0.930 . S
C1028 C1027 1.376 . S
C1028 C1029 1.388 . S
C1029 H1016 0.930 . S
C1029 C1028 1.388 . S
C1029 C1030 1.390 . S
C1030 C1029 1.390 . S
C1030 C1031 1.394 . S
C1030 C1036 1.465 1_556 S
C1031 C1026 1.399 . S
C1031 C1030 1.394 . S
C1031 C1032 1.516 . S
C1032 C1031 1.516 . S
C1032 C1033 1.502 . S
C1032 C1034 1.561 . S
C1032 C1035 1.526 1_556 S
C1033 H1017 0.959 . S
C1033 H1018 0.959 1_556 S
C1033 H1019 0.961 . S
C1033 C1032 1.502 . S
C1034 H1020 0.960 . S
C1034 H1021 0.961 1_556 S
C1034 H1022 0.959 . S
C1034 C1032 1.561 . S
C1035 C1032 1.526 1_554 S
C1035 C1036 1.396 . S
C1035 C1040 1.390 . S
C1036 C1030 1.465 1_554 S
C1036 C1035 1.396 . S
C1036 C1037 1.399 . S
C1037 H1023 0.929 . S
C1037 C1036 1.399 . S
C1037 C1038 1.385 . S
C1038 H1024 0.931 . S
C1038 C1037 1.385 . S
C1038 C1039 1.389 . S
C1039 C1038 1.389 . S
C1039 C1040 1.387 . S
C1040 H1025 0.930 . S
C1040 C1035 1.390 . S
C1040 C1039 1.387 . S
H1041 C1053 0.930 . S
H1042 C1055 0.930 . S
H1043 C1056 0.930 . S
H1044 C1060 0.959 . S
H1045 C1060 0.959 . S
H1046 C1060 0.961 . S
H1047 C1061 0.960 . S
H1048 C1061 0.961 . S
H1049 C1061 0.959 . S
H1050 C1064 0.929 . S
H1051 C1065 0.931 . S
H1052 C1067 0.930 . S
C1053 H1041 0.930 . S
C1053 C1054 1.399 . S
C1053 C1058 1.399 . S
C1054 C1053 1.399 . S
C1054 C1055 1.376 . S
C1055 H1042 0.930 . S
C1055 C1054 1.376 . S
C1055 C1056 1.388 . S
C1056 H1043 0.930 . S
C1056 C1055 1.388 . S
C1056 C1057 1.390 . S
C1057 C1056 1.390 . S
C1057 C1058 1.394 . S
C1057 C1063 1.465 . S
C1058 C1053 1.399 . S
C1058 C1057 1.394 . S
C1058 C1059 1.516 . S
C1059 C1058 1.516 . S
C1059 C1060 1.502 . S
C1059 C1061 1.561 . S
C1059 C1062 1.526 . S
C1060 H1044 0.959 . S
C1060 H1045 0.959 . S
C1060 H1046 0.961 . S
C1060 C1059 1.502 . S
C1061 H1047 0.960 . S
C1061 H1048 0.961 . S
C1061 H1049 0.959 . S
C1061 C1059 1.561 . S
C1062 C1059 1.526 . S
C1062 C1063 1.396 . S
C1062 C1067 1.390 . S
C1063 C1057 1.465 . S
C1063 C1062 1.396 . S
C1063 C1064 1.399 . S
C1064 H1050 0.929 . S
C1064 C1063 1.399 . S
C1064 C1065 1.385 . S
C1065 H1051 0.931 . S
C1065 C1064 1.385 . S
C1065 C1066 1.389 . S
C1066 C1065 1.389 . S
C1066 C1067 1.387 . S
C1067 H1052 0.930 . S
C1067 C1062 1.390 . S
C1067 C1066 1.387 . S
H1068 C1080 0.930 . S
H1069 C1082 0.930 . S
H1070 C1083 0.930 . S
H1071 C1087 0.959 . S
H1072 C1087 0.959 . S
H1073 C1087 0.961 1_556 S
H1074 C1088 0.960 1_556 S
H1075 C1088 0.961 . S
H1076 C1088 0.959 . S
H1077 C1091 0.929 . S
H1078 C1092 0.931 . S
H1079 C1094 0.930 . S
C1080 H1068 0.930 . S
C1080 C1081 1.399 . S
C1080 C1085 1.399 . S
C1081 C1080 1.399 . S
C1081 C1082 1.376 . S
C1082 H1069 0.930 . S
C1082 C1081 1.376 . S
C1082 C1083 1.388 . S
C1083 H1070 0.930 . S
C1083 C1082 1.388 . S
C1083 C1084 1.390 . S
C1084 C1083 1.390 . S
C1084 C1085 1.394 . S
C1084 C1090 1.465 1_556 S
C1085 C1080 1.399 . S
C1085 C1084 1.394 . S
C1085 C1086 1.516 1_556 S
C1086 C1085 1.516 1_554 S
C1086 C1087 1.502 . S
C1086 C1088 1.561 . S
C1086 C1089 1.526 . S
C1087 H1071 0.959 . S
C1087 H1072 0.959 . S
C1087 H1073 0.961 1_554 S
C1087 C1086 1.502 . S
C1088 H1074 0.960 1_554 S
C1088 H1075 0.961 . S
C1088 H1076 0.959 . S
C1088 C1086 1.561 . S
C1089 C1086 1.526 . S
C1089 C1090 1.396 . S
C1089 C1094 1.390 . S
C1090 C1084 1.465 1_554 S
C1090 C1089 1.396 . S
C1090 C1091 1.399 . S
C1091 H1077 0.929 . S
C1091 C1090 1.399 . S
C1091 C1092 1.385 . S
C1092 H1078 0.931 . S
C1092 C1091 1.385 . S
C1092 C1093 1.389 . S
C1093 C1092 1.389 . S
C1093 C1094 1.387 . S
C1094 H1079 0.930 . S
C1094 C1089 1.390 . S
C1094 C1093 1.387 . S
H1095 C1107 0.930 . S
H1096 C1109 0.930 . S
H1097 C1110 0.930 . S
H1098 C1114 0.959 . S
H1099 C1114 0.959 . S
H1100 C1114 0.961 . S
H1101 C1115 0.960 . S
H1102 C1115 0.961 . S
H1103 C1115 0.959 . S
H1104 C1118 0.929 . S
H1105 C1119 0.931 . S
H1106 C1121 0.930 . S
C1107 H1095 0.930 . S
C1107 C1108 1.399 . S
C1107 C1112 1.399 . S
C1108 C1107 1.399 . S
C1108 C1109 1.376 . S
C1109 H1096 0.930 . S
C1109 C1108 1.376 . S
C1109 C1110 1.388 . S
C1110 H1097 0.930 . S
C1110 C1109 1.388 . S
C1110 C1111 1.390 . S
C1111 C1110 1.390 . S
C1111 C1112 1.394 . S
C1111 C1117 1.465 . S
C1112 C1107 1.399 . S
C1112 C1111 1.394 . S
C1112 C1113 1.516 . S
C1113 C1112 1.516 . S
C1113 C1114 1.502 . S
C1113 C1115 1.561 . S
C1113 C1116 1.526 . S
C1114 H1098 0.959 . S
C1114 H1099 0.959 . S
C1114 H1100 0.961 . S
C1114 C1113 1.502 . S
C1115 H1101 0.960 . S
C1115 H1102 0.961 . S
C1115 H1103 0.959 . S
C1115 C1113 1.561 . S
C1116 C1113 1.526 . S
C1116 C1117 1.396 . S
C1116 C1121 1.390 . S
C1117 C1111 1.465 . S
C1117 C1116 1.396 . S
C1117 C1118 1.399 . S
C1118 H1104 0.929 . S
C1118 C1117 1.399 . S
C1118 C1119 1.385 . S
C1119 H1105 0.931 . S
C1119 C1118 1.385 . S
C1119 C1120 1.389 . S
C1120 C1119 1.389 . S
C1120 C1121 1.387 . S
C1121 H1106 0.930 . S
C1121 C1116 1.390 . S
C1121 C1120 1.387 . S
H1122 C1134 0.930 . S
H1123 C1136 0.930 . S
H1124 C1137 0.930 . S
H1125 C1141 0.959 1_556 S
H1126 C1141 0.942 1_556 S
H1127 C1141 0.978 . S
H1128 C1142 0.956 . S
H1129 C1142 0.965 1_556 S
H1130 C1142 0.959 1_556 S
H1131 C1145 0.929 . S
H1132 C1146 0.931 . S
H1133 C1148 0.930 . S
C1134 H1122 0.930 . S
C1134 C1135 1.399 . S
C1134 C1139 1.399 . S
C1135 C1134 1.399 . S
C1135 C1136 1.376 . S
C1136 H1123 0.930 . S
C1136 C1135 1.376 . S
C1136 C1137 1.388 . S
C1137 H1124 0.930 . S
C1137 C1136 1.388 . S
C1137 C1138 1.390 . S
C1138 C1137 1.390 . S
C1138 C1139 1.394 . S
C1138 C1144 1.465 1_554 S
C1139 C1134 1.399 . S
C1139 C1138 1.394 . S
C1139 C1140 1.516 . S
C1140 C1139 1.516 . S
C1140 C1141 1.503 . S
C1140 C1142 1.561 . S
C1140 C1143 1.526 1_554 S
C1141 H1125 0.959 1_554 S
C1141 H1126 0.942 1_554 S
C1141 H1127 0.978 . S
C1141 C1140 1.503 . S
C1142 H1128 0.956 . S
C1142 H1129 0.965 1_554 S
C1142 H1130 0.959 1_554 S
C1142 C1140 1.561 . S
C1143 C1140 1.526 1_556 S
C1143 C1144 1.396 . S
C1143 C1148 1.390 . S
C1144 C1138 1.465 1_556 S
C1144 C1143 1.396 . S
C1144 C1145 1.399 . S
C1145 H1131 0.929 . S
C1145 C1144 1.399 . S
C1145 C1146 1.385 . S
C1146 H1132 0.931 . S
C1146 C1145 1.385 . S
C1146 C1147 1.389 . S
C1147 C1146 1.389 . S
C1147 C1148 1.387 . S
C1148 H1133 0.930 . S
C1148 C1143 1.390 . S
C1148 C1147 1.387 . S
H1149 C1161 0.930 . S
H1150 C1163 0.930 . S
H1151 C1164 0.930 . S
H1152 C1168 0.959 . S
H1153 C1168 0.959 . S
H1154 C1168 0.961 . S
H1155 C1169 0.960 . S
H1156 C1169 0.961 . S
H1157 C1169 0.959 . S
H1158 C1172 0.929 . S
H1159 C1173 0.931 . S
H1160 C1175 0.930 . S
C1161 H1149 0.930 . S
C1161 C1162 1.399 . S
C1161 C1166 1.399 . S
C1162 C1161 1.399 . S
C1162 C1163 1.376 . S
C1163 H1150 0.930 . S
C1163 C1162 1.376 . S
C1163 C1164 1.388 . S
C1164 H1151 0.930 . S
C1164 C1163 1.388 . S
C1164 C1165 1.390 . S
C1165 C1164 1.390 . S
C1165 C1166 1.394 . S
C1165 C1171 1.465 . S
C1166 C1161 1.399 . S
C1166 C1165 1.394 . S
C1166 C1167 1.516 . S
C1167 C1166 1.516 . S
C1167 C1168 1.502 . S
C1167 C1169 1.561 . S
C1167 C1170 1.526 . S
C1168 H1152 0.959 . S
C1168 H1153 0.959 . S
C1168 H1154 0.961 . S
C1168 C1167 1.502 . S
C1169 H1155 0.960 . S
C1169 H1156 0.961 . S
C1169 H1157 0.959 . S
C1169 C1167 1.561 . S
C1170 C1167 1.526 . S
C1170 C1171 1.396 . S
C1170 C1175 1.390 . S
C1171 C1165 1.465 . S
C1171 C1170 1.396 . S
C1171 C1172 1.399 . S
C1172 H1158 0.929 . S
C1172 C1171 1.399 . S
C1172 C1173 1.385 . S
C1173 H1159 0.931 . S
C1173 C1172 1.385 . S
C1173 C1174 1.389 . S
C1174 C1173 1.389 . S
C1174 C1175 1.387 . S
C1175 H1160 0.930 . S
C1175 C1170 1.390 . S
C1175 C1174 1.387 . S
H1176 C1188 0.930 . S
H1177 C1190 0.930 . S
H1178 C1191 0.930 . S
H1179 C1195 0.959 . S
H1180 C1195 0.959 . S
H1181 C1195 0.961 . S
H1182 C1196 0.960 . S
H1183 C1196 0.961 . S
H1184 C1196 0.959 . S
H1185 C1199 0.929 . S
H1186 C1200 0.931 . S
H1187 C1202 0.930 . S
C1188 H1176 0.930 . S
C1188 C1189 1.399 . S
C1188 C1193 1.399 . S
C1189 C1188 1.399 . S
C1189 C1190 1.376 . S
C1190 H1177 0.930 . S
C1190 C1189 1.376 . S
C1190 C1191 1.388 . S
C1191 H1178 0.930 . S
C1191 C1190 1.388 . S
C1191 C1192 1.390 . S
C1192 C1191 1.390 . S
C1192 C1193 1.394 . S
C1192 C1198 1.465 . S
C1193 C1188 1.399 . S
C1193 C1192 1.394 . S
C1193 C1194 1.516 . S
C1194 C1193 1.516 . S
C1194 C1195 1.502 . S
C1194 C1196 1.561 . S
C1194 C1197 1.526 . S
C1195 H1179 0.959 . S
C1195 H1180 0.959 . S
C1195 H1181 0.961 . S
C1195 C1194 1.502 . S
C1196 H1182 0.960 . S
C1196 H1183 0.961 . S
C1196 H1184 0.959 . S
C1196 C1194 1.561 . S
C1197 C1194 1.526 . S
C1197 C1198 1.396 . S
C1197 C1202 1.390 . S
C1198 C1192 1.465 . S
C1198 C1197 1.396 . S
C1198 C1199 1.399 . S
C1199 H1185 0.929 . S
C1199 C1198 1.399 . S
C1199 C1200 1.385 . S
C1200 H1186 0.931 . S
C1200 C1199 1.385 . S
C1200 C1201 1.389 . S
C1201 C1200 1.389 . S
C1201 C1202 1.387 . S
C1202 H1187 0.930 . S
C1202 C1197 1.390 . S
C1202 C1201 1.387 . S
H1203 C1215 0.930 . S
H1204 C1217 0.930 . S
H1205 C1218 0.930 . S
H1206 C1222 0.959 . S
H1207 C1222 0.959 . S
H1208 C1222 0.961 . S
H1209 C1223 0.960 . S
H1210 C1223 0.961 . S
H1211 C1223 0.959 . S
H1212 C1226 0.929 . S
H1213 C1227 0.931 . S
H1214 C1229 0.930 . S
C1215 H1203 0.930 . S
C1215 C1216 1.399 . S
C1215 C1220 1.399 . S
C1216 C1215 1.399 . S
C1216 C1217 1.376 . S
C1217 H1204 0.930 . S
C1217 C1216 1.376 . S
C1217 C1218 1.388 . S
C1218 H1205 0.930 . S
C1218 C1217 1.388 . S
C1218 C1219 1.390 . S
C1219 C1218 1.390 . S
C1219 C1220 1.394 . S
C1219 C1225 1.465 . S
C1220 C1215 1.399 . S
C1220 C1219 1.394 . S
C1220 C1221 1.516 . S
C1221 C1220 1.516 . S
C1221 C1222 1.502 . S
C1221 C1223 1.561 . S
C1221 C1224 1.526 . S
C1222 H1206 0.959 . S
C1222 H1207 0.959 . S
C1222 H1208 0.961 . S
C1222 C1221 1.502 . S
C1223 H1209 0.960 . S
C1223 H1210 0.961 . S
C1223 H1211 0.959 . S
C1223 C1221 1.561 . S
C1224 C1221 1.526 . S
C1224 C1225 1.396 . S
C1224 C1229 1.390 . S
C1225 C1219 1.465 . S
C1225 C1224 1.396 . S
C1225 C1226 1.399 . S
C1226 H1212 0.929 . S
C1226 C1225 1.399 . S
C1226 C1227 1.385 . S
C1227 H1213 0.931 . S
C1227 C1226 1.385 . S
C1227 C1228 1.389 . S
C1228 C1227 1.389 . S
C1228 C1229 1.387 . S
C1229 H1214 0.930 . S
C1229 C1224 1.390 . S
C1229 C1228 1.387 . S
H1230 C1242 0.930 . S
H1231 C1244 0.930 . S
H1232 C1245 0.930 . S
H1233 C1249 0.959 . S
H1234 C1249 0.959 . S
H1235 C1249 0.961 . S
H1236 C1250 0.960 . S
H1237 C1250 0.961 . S
H1238 C1250 0.959 . S
H1239 C1253 0.929 . S
H1240 C1254 0.931 . S
H1241 C1256 0.930 . S
C1242 H1230 0.930 . S
C1242 C1243 1.399 . S
C1242 C1247 1.399 . S
C1243 C1242 1.399 . S
C1243 C1244 1.376 . S
C1244 H1231 0.930 . S
C1244 C1243 1.376 . S
C1244 C1245 1.388 . S
C1245 H1232 0.930 . S
C1245 C1244 1.388 . S
C1245 C1246 1.390 . S
C1246 C1245 1.390 . S
C1246 C1247 1.394 . S
C1246 C1252 1.465 . S
C1247 C1242 1.399 . S
C1247 C1246 1.394 . S
C1247 C1248 1.516 . S
C1248 C1247 1.516 . S
C1248 C1249 1.502 . S
C1248 C1250 1.561 . S
C1248 C1251 1.526 . S
C1249 H1233 0.959 . S
C1249 H1234 0.959 . S
C1249 H1235 0.961 . S
C1249 C1248 1.502 . S
C1250 H1236 0.960 . S
C1250 H1237 0.961 . S
C1250 H1238 0.959 . S
C1250 C1248 1.561 . S
C1251 C1248 1.526 . S
C1251 C1252 1.396 . S
C1251 C1256 1.390 . S
C1252 C1246 1.465 . S
C1252 C1251 1.396 . S
C1252 C1253 1.399 . S
C1253 H1239 0.929 . S
C1253 C1252 1.399 . S
C1253 C1254 1.385 . S
C1254 H1240 0.931 . S
C1254 C1253 1.385 . S
C1254 C1255 1.389 . S
C1255 C1254 1.389 . S
C1255 C1256 1.387 . S
C1256 H1241 0.930 . S
C1256 C1251 1.390 . S
C1256 C1255 1.387 . S
H1257 C1269 0.930 . S
H1258 C1271 0.930 . S
H1259 C1272 0.930 . S
H1260 C1276 0.959 . S
H1261 C1276 0.959 . S
H1262 C1276 0.961 . S
H1263 C1277 0.960 . S
H1264 C1277 0.961 . S
H1265 C1277 0.959 . S
H1266 C1280 0.929 . S
H1267 C1281 0.931 . S
H1268 C1283 0.930 . S
C1269 H1257 0.930 . S
C1269 C1270 1.399 . S
C1269 C1274 1.399 . S
C1270 C1269 1.399 . S
C1270 C1271 1.376 . S
C1271 H1258 0.930 . S
C1271 C1270 1.376 . S
C1271 C1272 1.388 . S
C1272 H1259 0.930 . S
C1272 C1271 1.388 . S
C1272 C1273 1.390 . S
C1273 C1272 1.390 . S
C1273 C1274 1.394 . S
C1273 C1279 1.465 . S
C1274 C1269 1.399 . S
C1274 C1273 1.394 . S
C1274 C1275 1.516 . S
C1275 C1274 1.516 . S
C1275 C1276 1.502 . S
C1275 C1277 1.561 . S
C1275 C1278 1.526 . S
C1276 H1260 0.959 . S
C1276 H1261 0.959 . S
C1276 H1262 0.961 . S
C1276 C1275 1.502 . S
C1277 H1263 0.960 . S
C1277 H1264 0.961 . S
C1277 H1265 0.959 . S
C1277 C1275 1.561 . S
C1278 C1275 1.526 . S
C1278 C1279 1.396 . S
C1278 C1283 1.390 . S
C1279 C1273 1.465 . S
C1279 C1278 1.396 . S
C1279 C1280 1.399 . S
C1280 H1266 0.929 . S
C1280 C1279 1.399 . S
C1280 C1281 1.385 . S
C1281 H1267 0.931 . S
C1281 C1280 1.385 . S
C1281 C1282 1.389 . S
C1282 C1281 1.389 . S
C1282 C1283 1.387 . S
C1283 H1268 0.930 . S
C1283 C1278 1.390 . S
C1283 C1282 1.387 . S
H1284 C1296 0.930 . S
H1285 C1298 0.930 . S
H1286 C1299 0.930 . S
H1287 C1303 0.959 . S
H1288 C1303 0.959 . S
H1289 C1303 0.961 . S
H1290 C1304 0.960 . S
H1291 C1304 0.961 . S
H1292 C1304 0.959 . S
H1293 C1307 0.929 . S
H1294 C1308 0.931 . S
H1295 C1310 0.930 . S
C1296 H1284 0.930 . S
C1296 C1297 1.399 . S
C1296 C1301 1.399 . S
C1297 C1296 1.399 . S
C1297 C1298 1.376 . S
C1298 H1285 0.930 . S
C1298 C1297 1.376 . S
C1298 C1299 1.388 . S
C1299 H1286 0.930 . S
C1299 C1298 1.388 . S
C1299 C1300 1.390 . S
C1300 C1299 1.390 . S
C1300 C1301 1.394 . S
C1300 C1306 1.465 . S
C1301 C1296 1.399 . S
C1301 C1300 1.394 . S
C1301 C1302 1.516 . S
C1302 C1301 1.516 . S
C1302 C1303 1.502 . S
C1302 C1304 1.561 . S
C1302 C1305 1.526 . S
C1303 H1287 0.959 . S
C1303 H1288 0.959 . S
C1303 H1289 0.961 . S
C1303 C1302 1.502 . S
C1304 H1290 0.960 . S
C1304 H1291 0.961 . S
C1304 H1292 0.959 . S
C1304 C1302 1.561 . S
C1305 C1302 1.526 . S
C1305 C1306 1.396 . S
C1305 C1310 1.390 . S
C1306 C1300 1.465 . S
C1306 C1305 1.396 . S
C1306 C1307 1.399 . S
C1307 H1293 0.929 . S
C1307 C1306 1.399 . S
C1307 C1308 1.385 . S
C1308 H1294 0.931 . S
C1308 C1307 1.385 . S
C1308 C1309 1.389 . S
C1309 C1308 1.389 . S
C1309 C1310 1.387 . S
C1310 H1295 0.930 . S
C1310 C1305 1.390 . S
C1310 C1309 1.387 . S
H1311 C1323 0.930 . S
H1312 C1325 0.930 . S
H1313 C1326 0.930 . S
H1314 C1330 0.959 . S
H1315 C1330 0.959 . S
H1316 C1330 0.961 . S
H1317 C1331 0.960 . S
H1318 C1331 0.961 . S
H1319 C1331 0.959 . S
H1320 C1334 0.929 . S
H1321 C1335 0.931 . S
H1322 C1337 0.930 . S
C1323 H1311 0.930 . S
C1323 C1324 1.399 . S
C1323 C1328 1.399 . S
C1324 C1323 1.399 . S
C1324 C1325 1.376 . S
C1325 H1312 0.930 . S
C1325 C1324 1.376 . S
C1325 C1326 1.388 . S
C1326 H1313 0.930 . S
C1326 C1325 1.388 . S
C1326 C1327 1.390 . S
C1327 C1326 1.390 . S
C1327 C1328 1.394 . S
C1327 C1333 1.465 . S
C1328 C1323 1.399 . S
C1328 C1327 1.394 . S
C1328 C1329 1.516 . S
C1329 C1328 1.516 . S
C1329 C1330 1.502 . S
C1329 C1331 1.561 . S
C1329 C1332 1.526 . S
C1330 H1314 0.959 . S
C1330 H1315 0.959 . S
C1330 H1316 0.961 . S
C1330 C1329 1.502 . S
C1331 H1317 0.960 . S
C1331 H1318 0.961 . S
C1331 H1319 0.959 . S
C1331 C1329 1.561 . S
C1332 C1329 1.526 . S
C1332 C1333 1.396 . S
C1332 C1337 1.390 . S
C1333 C1327 1.465 . S
C1333 C1332 1.396 . S
C1333 C1334 1.399 . S
C1334 H1320 0.929 . S
C1334 C1333 1.399 . S
C1334 C1335 1.385 . S
C1335 H1321 0.931 . S
C1335 C1334 1.385 . S
C1335 C1336 1.389 . S
C1336 C1335 1.389 . S
C1336 C1337 1.387 . S
C1337 H1322 0.930 . S
C1337 C1332 1.390 . S
C1337 C1336 1.387 . S
H1338 C1350 0.930 . S
H1339 C1352 0.930 . S
H1340 C1353 0.930 . S
H1341 C1357 0.959 . S
H1342 C1357 0.959 . S
H1343 C1357 0.961 . S
H1344 C1358 0.960 . S
H1345 C1358 0.961 . S
H1346 C1358 0.959 . S
H1347 C1361 0.929 . S
H1348 C1362 0.931 . S
H1349 C1364 0.930 . S
C1350 H1338 0.930 . S
C1350 C1351 1.399 . S
C1350 C1355 1.399 . S
C1351 C1350 1.399 . S
C1351 C1352 1.376 . S
C1352 H1339 0.930 . S
C1352 C1351 1.376 . S
C1352 C1353 1.388 . S
C1353 H1340 0.930 . S
C1353 C1352 1.388 . S
C1353 C1354 1.390 . S
C1354 C1353 1.390 . S
C1354 C1355 1.394 . S
C1354 C1360 1.465 . S
C1355 C1350 1.399 . S
C1355 C1354 1.394 . S
C1355 C1356 1.516 . S
C1356 C1355 1.516 . S
C1356 C1357 1.502 . S
C1356 C1358 1.561 . S
C1356 C1359 1.526 . S
C1357 H1341 0.959 . S
C1357 H1342 0.959 . S
C1357 H1343 0.961 . S
C1357 C1356 1.502 . S
C1358 H1344 0.960 . S
C1358 H1345 0.961 . S
C1358 H1346 0.959 . S
C1358 C1356 1.561 . S
C1359 C1356 1.526 . S
C1359 C1360 1.396 . S
C1359 C1364 1.390 . S
C1360 C1354 1.465 . S
C1360 C1359 1.396 . S
C1360 C1361 1.399 . S
C1361 H1347 0.929 . S
C1361 C1360 1.399 . S
C1361 C1362 1.385 . S
C1362 H1348 0.931 . S
C1362 C1361 1.385 . S
C1362 C1363 1.389 . S
C1363 C1362 1.389 . S
C1363 C1364 1.387 . S
C1364 H1349 0.930 . S
C1364 C1359 1.390 . S
C1364 C1363 1.387 . S
H1365 C1377 0.930 . S
H1366 C1379 0.930 . S
H1367 C1380 0.930 . S
H1368 C1384 0.959 . S
H1369 C1384 0.959 . S
H1370 C1384 0.961 . S
H1371 C1385 0.960 . S
H1372 C1385 0.961 . S
H1373 C1385 0.959 . S
H1374 C1388 0.929 . S
H1375 C1389 0.931 . S
H1376 C1391 0.930 . S
C1377 H1365 0.930 . S
C1377 C1378 1.399 . S
C1377 C1382 1.399 . S
C1378 C1377 1.399 . S
C1378 C1379 1.376 . S
C1379 H1366 0.930 . S
C1379 C1378 1.376 . S
C1379 C1380 1.388 . S
C1380 H1367 0.930 . S
C1380 C1379 1.388 . S
C1380 C1381 1.390 . S
C1381 C1380 1.390 . S
C1381 C1382 1.394 . S
C1381 C1387 1.465 . S
C1382 C1377 1.399 . S
C1382 C1381 1.394 . S
C1382 C1383 1.516 . S
C1383 C1382 1.516 . S
C1383 C1384 1.502 . S
C1383 C1385 1.561 . S
C1383 C1386 1.526 . S
C1384 H1368 0.959 . S
C1384 H1369 0.959 . S
C1384 H1370 0.961 . S
C1384 C1383 1.502 . S
C1385 H1371 0.960 . S
C1385 H1372 0.961 . S
C1385 H1373 0.959 . S
C1385 C1383 1.561 . S
C1386 C1383 1.526 . S
C1386 C1387 1.396 . S
C1386 C1391 1.390 . S
C1387 C1381 1.465 . S
C1387 C1386 1.396 . S
C1387 C1388 1.399 . S
C1388 H1374 0.929 . S
C1388 C1387 1.399 . S
C1388 C1389 1.385 . S
C1389 H1375 0.931 . S
C1389 C1388 1.385 . S
C1389 C1390 1.389 . S
C1390 C1389 1.389 . S
C1390 C1391 1.387 . S
C1391 H1376 0.930 . S
C1391 C1386 1.390 . S
C1391 C1390 1.387 . S
H1392 C1404 0.930 . S
H1393 C1406 0.930 . S
H1394 C1407 0.930 . S
H1395 C1411 0.959 . S
H1396 C1411 0.959 . S
H1397 C1411 0.961 . S
H1398 C1412 0.960 . S
H1399 C1412 0.961 . S
H1400 C1412 0.959 . S
H1401 C1415 0.929 . S
H1402 C1416 0.931 . S
H1403 C1418 0.930 . S
C1404 H1392 0.930 . S
C1404 C1405 1.399 . S
C1404 C1409 1.399 . S
C1405 C1404 1.399 . S
C1405 C1406 1.376 . S
C1406 H1393 0.930 . S
C1406 C1405 1.376 . S
C1406 C1407 1.388 . S
C1407 H1394 0.930 . S
C1407 C1406 1.388 . S
C1407 C1408 1.390 . S
C1408 C1407 1.390 . S
C1408 C1409 1.394 . S
C1408 C1414 1.465 . S
C1409 C1404 1.399 . S
C1409 C1408 1.394 . S
C1409 C1410 1.516 . S
C1410 C1409 1.516 . S
C1410 C1411 1.502 . S
C1410 C1412 1.561 . S
C1410 C1413 1.526 . S
C1411 H1395 0.959 . S
C1411 H1396 0.959 . S
C1411 H1397 0.961 . S
C1411 C1410 1.502 . S
C1412 H1398 0.960 . S
C1412 H1399 0.961 . S
C1412 H1400 0.959 . S
C1412 C1410 1.561 . S
C1413 C1410 1.526 . S
C1413 C1414 1.396 . S
C1413 C1418 1.390 . S
C1414 C1408 1.465 . S
C1414 C1413 1.396 . S
C1414 C1415 1.399 . S
C1415 H1401 0.929 . S
C1415 C1414 1.399 . S
C1415 C1416 1.385 . S
C1416 H1402 0.931 . S
C1416 C1415 1.385 . S
C1416 C1417 1.389 . S
C1417 C1416 1.389 . S
C1417 C1418 1.387 . S
C1418 H1403 0.930 . S
C1418 C1413 1.390 . S
C1418 C1417 1.387 . S
H1419 C1431 0.930 . S
H1420 C1433 0.930 . S
H1421 C1434 0.930 . S
H1422 C1438 0.959 . S
H1423 C1438 0.959 . S
H1424 C1438 0.961 . S
H1425 C1439 0.960 . S
H1426 C1439 0.961 . S
H1427 C1439 0.959 . S
H1428 C1442 0.929 . S
H1429 C1443 0.931 . S
H1430 C1445 0.930 . S
C1431 H1419 0.930 . S
C1431 C1432 1.399 . S
C1431 C1436 1.399 . S
C1432 C1431 1.399 . S
C1432 C1433 1.376 . S
C1433 H1420 0.930 . S
C1433 C1432 1.376 . S
C1433 C1434 1.388 . S
C1434 H1421 0.930 . S
C1434 C1433 1.388 . S
C1434 C1435 1.390 . S
C1435 C1434 1.390 . S
C1435 C1436 1.394 . S
C1435 C1441 1.465 . S
C1436 C1431 1.399 . S
C1436 C1435 1.394 . S
C1436 C1437 1.516 . S
C1437 C1436 1.516 . S
C1437 C1438 1.502 . S
C1437 C1439 1.561 . S
C1437 C1440 1.526 . S
C1438 H1422 0.959 . S
C1438 H1423 0.959 . S
C1438 H1424 0.961 . S
C1438 C1437 1.502 . S
C1439 H1425 0.960 . S
C1439 H1426 0.961 . S
C1439 H1427 0.959 . S
C1439 C1437 1.561 . S
C1440 C1437 1.526 . S
C1440 C1441 1.396 . S
C1440 C1445 1.390 . S
C1441 C1435 1.465 . S
C1441 C1440 1.396 . S
C1441 C1442 1.399 . S
C1442 H1428 0.929 . S
C1442 C1441 1.399 . S
C1442 C1443 1.385 . S
C1443 H1429 0.931 . S
C1443 C1442 1.385 . S
C1443 C1444 1.389 . S
C1444 C1443 1.389 . S
C1444 C1445 1.387 . S
C1445 H1430 0.930 . S
C1445 C1440 1.390 . S
C1445 C1444 1.387 . S
H1446 C1458 0.930 . S
H1447 C1460 0.930 . S
H1448 C1461 0.930 . S
H1449 C1465 0.959 . S
H1450 C1465 0.959 . S
H1451 C1465 0.961 . S
H1452 C1466 0.960 . S
H1453 C1466 0.961 . S
H1454 C1466 0.959 . S
H1455 C1469 0.929 . S
H1456 C1470 0.931 . S
H1457 C1472 0.930 . S
C1458 H1446 0.930 . S
C1458 C1459 1.399 . S
C1458 C1463 1.399 . S
C1459 C1458 1.399 . S
C1459 C1460 1.376 . S
C1460 H1447 0.930 . S
C1460 C1459 1.376 . S
C1460 C1461 1.388 . S
C1461 H1448 0.930 . S
C1461 C1460 1.388 . S
C1461 C1462 1.390 . S
C1462 C1461 1.390 . S
C1462 C1463 1.394 . S
C1462 C1468 1.465 . S
C1463 C1458 1.399 . S
C1463 C1462 1.394 . S
C1463 C1464 1.516 . S
C1464 C1463 1.516 . S
C1464 C1465 1.502 . S
C1464 C1466 1.561 . S
C1464 C1467 1.526 . S
C1465 H1449 0.959 . S
C1465 H1450 0.959 . S
C1465 H1451 0.961 . S
C1465 C1464 1.502 . S
C1466 H1452 0.960 . S
C1466 H1453 0.961 . S
C1466 H1454 0.959 . S
C1466 C1464 1.561 . S
C1467 C1464 1.526 . S
C1467 C1468 1.396 . S
C1467 C1472 1.390 . S
C1468 C1462 1.465 . S
C1468 C1467 1.396 . S
C1468 C1469 1.399 . S
C1469 H1455 0.929 . S
C1469 C1468 1.399 . S
C1469 C1470 1.385 . S
C1470 H1456 0.931 . S
C1470 C1469 1.385 . S
C1470 C1471 1.389 . S
C1471 C1470 1.389 . S
C1471 C1472 1.387 . S
C1472 H1457 0.930 . S
C1472 C1467 1.390 . S
C1472 C1471 1.387 . S
H1473 C1485 0.930 . S
H1474 C1487 0.930 . S
H1475 C1488 0.930 . S
H1476 C1492 0.959 . S
H1477 C1492 0.959 . S
H1478 C1492 0.961 . S
H1479 C1493 0.960 . S
H1480 C1493 0.961 . S
H1481 C1493 0.959 . S
H1482 C1496 0.929 . S
H1483 C1497 0.931 . S
H1484 C1499 0.930 . S
C1485 H1473 0.930 . S
C1485 C1486 1.399 . S
C1485 C1490 1.399 . S
C1486 C1485 1.399 . S
C1486 C1487 1.376 . S
C1487 H1474 0.930 . S
C1487 C1486 1.376 . S
C1487 C1488 1.388 . S
C1488 H1475 0.930 . S
C1488 C1487 1.388 . S
C1488 C1489 1.390 . S
C1489 C1488 1.390 . S
C1489 C1490 1.394 . S
C1489 C1495 1.465 . S
C1490 C1485 1.399 . S
C1490 C1489 1.394 . S
C1490 C1491 1.516 . S
C1491 C1490 1.516 . S
C1491 C1492 1.502 . S
C1491 C1493 1.561 . S
C1491 C1494 1.526 . S
C1492 H1476 0.959 . S
C1492 H1477 0.959 . S
C1492 H1478 0.961 . S
C1492 C1491 1.502 . S
C1493 H1479 0.960 . S
C1493 H1480 0.961 . S
C1493 H1481 0.959 . S
C1493 C1491 1.561 . S
C1494 C1491 1.526 . S
C1494 C1495 1.396 . S
C1494 C1499 1.390 . S
C1495 C1489 1.465 . S
C1495 C1494 1.396 . S
C1495 C1496 1.399 . S
C1496 H1482 0.929 . S
C1496 C1495 1.399 . S
C1496 C1497 1.385 . S
C1497 H1483 0.931 . S
C1497 C1496 1.385 . S
C1497 C1498 1.389 . S
C1498 C1497 1.389 . S
C1498 C1499 1.387 . S
C1499 H1484 0.930 . S
C1499 C1494 1.390 . S
C1499 C1498 1.387 . S
H1500 C1512 0.930 . S
H1501 C1514 0.930 . S
H1502 C1515 0.930 . S
H1503 C1519 0.959 . S
H1504 C1519 0.959 . S
H1505 C1519 0.961 . S
H1506 C1520 0.960 . S
H1507 C1520 0.961 . S
H1508 C1520 0.959 . S
H1509 C1523 0.929 . S
H1510 C1524 0.931 . S
H1511 C1526 0.930 . S
C1512 H1500 0.930 . S
C1512 C1513 1.399 . S
C1512 C1517 1.399 . S
C1513 C1512 1.399 . S
C1513 C1514 1.376 . S
C1514 H1501 0.930 . S
C1514 C1513 1.376 . S
C1514 C1515 1.388 . S
C1515 H1502 0.930 . S
C1515 C1514 1.388 . S
C1515 C1516 1.390 . S
C1516 C1515 1.390 . S
C1516 C1517 1.394 . S
C1516 C1522 1.465 . S
C1517 C1512 1.399 . S
C1517 C1516 1.394 . S
C1517 C1518 1.516 . S
C1518 C1517 1.516 . S
C1518 C1519 1.502 . S
C1518 C1520 1.561 . S
C1518 C1521 1.526 . S
C1519 H1503 0.959 . S
C1519 H1504 0.959 . S
C1519 H1505 0.961 . S
C1519 C1518 1.502 . S
C1520 H1506 0.960 . S
C1520 H1507 0.961 . S
C1520 H1508 0.959 . S
C1520 C1518 1.561 . S
C1521 C1518 1.526 . S
C1521 C1522 1.396 . S
C1521 C1526 1.390 . S
C1522 C1516 1.465 . S
C1522 C1521 1.396 . S
C1522 C1523 1.399 . S
C1523 H1509 0.929 . S
C1523 C1522 1.399 . S
C1523 C1524 1.385 . S
C1524 H1510 0.931 . S
C1524 C1523 1.385 . S
C1524 C1525 1.389 . S
C1525 C1524 1.389 . S
C1525 C1526 1.387 . S
C1526 H1511 0.930 . S
C1526 C1521 1.390 . S
C1526 C1525 1.387 . S
H1527 C1539 0.930 . S
H1528 C1541 0.930 . S
H1529 C1542 0.930 . S
H1530 C1546 0.959 . S
H1531 C1546 0.959 . S
H1532 C1546 0.961 . S
H1533 C1547 0.960 . S
H1534 C1547 0.961 . S
H1535 C1547 0.959 . S
H1536 C1550 0.929 . S
H1537 C1551 0.931 . S
H1538 C1553 0.930 . S
C1539 H1527 0.930 . S
C1539 C1540 1.399 . S
C1539 C1544 1.399 . S
C1540 C1539 1.399 . S
C1540 C1541 1.376 . S
C1541 H1528 0.930 . S
C1541 C1540 1.376 . S
C1541 C1542 1.388 . S
C1542 H1529 0.930 . S
C1542 C1541 1.388 . S
C1542 C1543 1.390 . S
C1543 C1542 1.390 . S
C1543 C1544 1.394 . S
C1543 C1549 1.465 . S
C1544 C1539 1.399 . S
C1544 C1543 1.394 . S
C1544 C1545 1.516 . S
C1545 C1544 1.516 . S
C1545 C1546 1.502 . S
C1545 C1547 1.561 . S
C1545 C1548 1.526 . S
C1546 H1530 0.959 . S
C1546 H1531 0.959 . S
C1546 H1532 0.961 . S
C1546 C1545 1.502 . S
C1547 H1533 0.960 . S
C1547 H1534 0.961 . S
C1547 H1535 0.959 . S
C1547 C1545 1.561 . S
C1548 C1545 1.526 . S
C1548 C1549 1.396 . S
C1548 C1553 1.390 . S
C1549 C1543 1.465 . S
C1549 C1548 1.396 . S
C1549 C1550 1.399 . S
C1550 H1536 0.929 . S
C1550 C1549 1.399 . S
C1550 C1551 1.385 . S
C1551 H1537 0.931 . S
C1551 C1550 1.385 . S
C1551 C1552 1.389 . S
C1552 C1551 1.389 . S
C1552 C1553 1.387 . S
C1553 H1538 0.930 . S
C1553 C1548 1.390 . S
C1553 C1552 1.387 . S
H1554 C1566 0.930 . S
H1555 C1568 0.930 . S
H1556 C1569 0.930 . S
H1557 C1573 0.959 . S
H1558 C1573 0.959 . S
H1559 C1573 0.961 . S
H1560 C1574 0.960 . S
H1561 C1574 0.961 . S
H1562 C1574 0.959 . S
H1563 C1577 0.929 . S
H1564 C1578 0.931 . S
H1565 C1580 0.930 . S
C1566 H1554 0.930 . S
C1566 C1567 1.399 . S
C1566 C1571 1.399 . S
C1567 C1566 1.399 . S
C1567 C1568 1.376 . S
C1568 H1555 0.930 . S
C1568 C1567 1.376 . S
C1568 C1569 1.388 . S
C1569 H1556 0.930 . S
C1569 C1568 1.388 . S
C1569 C1570 1.390 . S
C1570 C1569 1.390 . S
C1570 C1571 1.394 . S
C1570 C1576 1.465 . S
C1571 C1566 1.399 . S
C1571 C1570 1.394 . S
C1571 C1572 1.516 . S
C1572 C1571 1.516 . S
C1572 C1573 1.502 . S
C1572 C1574 1.561 . S
C1572 C1575 1.526 . S
C1573 H1557 0.959 . S
C1573 H1558 0.959 . S
C1573 H1559 0.961 . S
C1573 C1572 1.502 . S
C1574 H1560 0.960 . S
C1574 H1561 0.961 . S
C1574 H1562 0.959 . S
C1574 C1572 1.561 . S
C1575 C1572 1.526 . S
C1575 C1576 1.396 . S
C1575 C1580 1.390 . S
C1576 C1570 1.465 . S
C1576 C1575 1.396 . S
C1576 C1577 1.399 . S
C1577 H1563 0.929 . S
C1577 C1576 1.399 . S
C1577 C1578 1.385 . S
C1578 H1564 0.931 . S
C1578 C1577 1.385 . S
C1578 C1579 1.389 . S
C1579 C1578 1.389 . S
C1579 C1580 1.387 . S
C1580 H1565 0.930 . S
C1580 C1575 1.390 . S
C1580 C1579 1.387 . S
H1581 C1593 0.930 . S
H1582 C1595 0.930 . S
H1583 C1596 0.930 . S
H1584 C1600 0.959 . S
H1585 C1600 0.959 . S
H1586 C1600 0.961 . S
H1587 C1601 0.960 . S
H1588 C1601 0.961 . S
H1589 C1601 0.959 . S
H1590 C1604 0.929 . S
H1591 C1605 0.931 . S
H1592 C1607 0.930 . S
C1593 H1581 0.930 . S
C1593 C1594 1.399 . S
C1593 C1598 1.399 . S
C1594 C1593 1.399 . S
C1594 C1595 1.376 . S
C1595 H1582 0.930 . S
C1595 C1594 1.376 . S
C1595 C1596 1.388 . S
C1596 H1583 0.930 . S
C1596 C1595 1.388 . S
C1596 C1597 1.390 . S
C1597 C1596 1.390 . S
C1597 C1598 1.394 . S
C1597 C1603 1.465 . S
C1598 C1593 1.399 . S
C1598 C1597 1.394 . S
C1598 C1599 1.516 . S
C1599 C1598 1.516 . S
C1599 C1600 1.502 . S
C1599 C1601 1.561 . S
C1599 C1602 1.526 . S
C1600 H1584 0.959 . S
C1600 H1585 0.959 . S
C1600 H1586 0.961 . S
C1600 C1599 1.502 . S
C1601 H1587 0.960 . S
C1601 H1588 0.961 . S
C1601 H1589 0.959 . S
C1601 C1599 1.561 . S
C1602 C1599 1.526 . S
C1602 C1603 1.396 . S
C1602 C1607 1.390 . S
C1603 C1597 1.465 . S
C1603 C1602 1.396 . S
C1603 C1604 1.399 . S
C1604 H1590 0.929 . S
C1604 C1603 1.399 . S
C1604 C1605 1.385 . S
C1605 H1591 0.931 . S
C1605 C1604 1.385 . S
C1605 C1606 1.389 . S
C1606 C1605 1.389 . S
C1606 C1607 1.387 . S
C1607 H1592 0.930 . S
C1607 C1602 1.390 . S
C1607 C1606 1.387 . S
C541 N398 1.455 . S
C553 N13 1.405 . S
C568 N46 1.372 . S
C580 N431 1.447 . S
C595 N68 1.397 . S
C607 N475 1.456 . S
C622 N112 1.441 . S
C634 N497 1.376 . S
C649 N266 1.387 . S
C661 N145 1.431 . S
C676 N310 1.458 . S
C688 N167 1.394 . S
C703 N200 1.440 . S
C715 N343 1.366 . S
C730 N376 1.411 . S
C742 N233 1.451 . S
C757 C21 1.137 . S
C769 C483 1.129 . S
C784 C516 1.167 . S
C796 C54 1.174 . S
C811 C417 1.141 . S
C823 C87 1.139 . S
C838 C450 1.167 . S
C850 C120 1.163 . S
C865 C351 1.120 . S
C877 C153 1.125 . S
C892 C384 1.093 . S
C904 C186 1.094 . S
C919 C285 1.132 . S
C931 C219 1.136 . S
C946 C318 1.098 . S
C958 C252 1.100 . S
C973 C7 1.215 . S
C985 C348 1.283 . S
C1000 C381 1.309 . S
C1012 C40 1.285 . S
C1027 C271 1.243 . S
C1039 C84 1.221 . S
C1054 C315 1.298 . S
C1066 C106 1.264 . S
C1081 C139 1.196 . S
C1093 C480 1.280 . S
C1108 C183 1.320 . S
C1120 C502 1.333 . S
C1135 C403 1.304 . S
C1147 C216 1.305 . S
C1162 C249 1.191 . S
C1174 C436 1.247 . S
C1189 N409 1.718 . S
C1201 N2 1.734 . S
C1216 N35 1.718 . S
C1228 N442 1.781 . S
C1243 N79 1.703 . S
C1255 N464 1.734 . S
C1270 N508 1.773 . S
C1282 N101 1.709 . S
C1297 N277 1.764 . S
C1309 N134 1.783 . S
C1324 N178 1.786 . S
C1336 N299 1.720 . S
C1351 N332 1.770 . S
C1363 N211 1.786 . S
C1378 N365 1.747 . S
C1390 N244 1.755 . S
C1405 C172 1.329 . S
C1417 C18 1.435 . S
C1432 C205 1.406 . S
C1444 C51 1.444 . S
C1459 C73 1.365 . S
C1471 C238 1.355 . S
C1486 C150 1.489 . S
C1498 C117 1.474 . S
C1513 C282 1.248 . S
C1525 C447 1.337 . S
C1540 C469 1.339 . S
C1552 C304 1.265 . S
C1567 C513 1.371 . S
C1579 C337 1.379 . S
C1594 C370 1.299 . S
C1606 C414 1.279 . S
