# Generated by pormake.
# Topology fnt, (5)-cn, num edge types: 1
# Building blocks:
#     Node 0, Type 0, BuildingBlock: XOMCOT_clean_sbu_1, # of connection points: 5
#     Node 1, Type 0, BuildingBlock: XOMCOT_clean_sbu_1, # of connection points: 5
#     Node 2, Type 0, BuildingBlock: XOMCOT_clean_sbu_1, # of connection points: 5
#     Node 3, Type 0, BuildingBlock: XOMCOT_clean_sbu_1, # of connection points: 5
#     Node 4, Type 0, BuildingBlock: XOMCOT_clean_sbu_1, # of connection points: 5
#     Node 5, Type 0, BuildingBlock: XOMCOT_clean_sbu_1, # of connection points: 5
#     Edge 6, Type (0, 0), BuildingBlock: ZUJKAS_clean_linker_0, # of connection points: 2
#     Edge 7, Type (0, 0), BuildingBlock: ZUJKAS_clean_linker_0, # of connection points: 2
#     Edge 8, Type (0, 0), BuildingBlock: ZUJKAS_clean_linker_0, # of connection points: 2
#     Edge 9, Type (0, 0), BuildingBlock: ZUJKAS_clean_linker_0, # of connection points: 2
#     Edge 10, Type (0, 0), BuildingBlock: ZUJKAS_clean_linker_0, # of connection points: 2
#     Edge 11, Type (0, 0), BuildingBlock: ZUJKAS_clean_linker_0, # of connection points: 2
#     Edge 12, Type (0, 0), BuildingBlock: ZUJKAS_clean_linker_0, # of connection points: 2
#     Edge 13, Type (0, 0), BuildingBlock: ZUJKAS_clean_linker_0, # of connection points: 2
#     Edge 14, Type (0, 0), BuildingBlock: ZUJKAS_clean_linker_0, # of connection points: 2
#     Edge 15, Type (0, 0), BuildingBlock: ZUJKAS_clean_linker_0, # of connection points: 2
#     Edge 16, Type (0, 0), BuildingBlock: ZUJKAS_clean_linker_0, # of connection points: 2
#     Edge 17, Type (0, 0), BuildingBlock: ZUJKAS_clean_linker_0, # of connection points: 2
#     Edge 18, Type (0, 0), BuildingBlock: ZUJKAS_clean_linker_0, # of connection points: 2
#     Edge 19, Type (0, 0), BuildingBlock: ZUJKAS_clean_linker_0, # of connection points: 2
#     Edge 20, Type (0, 0), BuildingBlock: ZUJKAS_clean_linker_0, # of connection points: 2
# Relax obj value: 0.140
# Max RMSD: 0.171
# Mean RMSD: 0.171
data_MOF--net-fnt--node1-XOMCOT_clean_sbu_1--edge1-ZUJKAS_clean_linker_0
_symmetry_space_group_name_H-M    P1
_symmetry_Int_Tables_number       1
_symmetry_cell_setting            triclinic
loop_
_symmetry_equiv_pos_as_xyz
'x, y, z'
_cell_length_a     34.963019
_cell_length_b     34.874979
_cell_length_c     59.144558
_cell_angle_alpha  89.989235
_cell_angle_beta   89.815495
_cell_angle_gamma 120.13936
loop_
_atom_site_label
_atom_site_type_symbol
_atom_site_fract_x
_atom_site_fract_y
_atom_site_fract_z
_atom_type_partial_charge
C0 C 0.23157 0.34958 0.08813 0.0
C1 C 0.2209 0.34645 0.11076 0.0
N2 N 0.17852 0.31394 0.11342 0.0
N3 N 0.19627 0.31895 0.07656 0.0
C4 C 0.16447 0.29775 0.09242 0.0
H5 H 0.26271 0.3735 0.0805 0.0
Co6 Co 0.19308 0.31258 0.04519 0.0
C7 C 0.10972 0.22975 0.03671 0.0
O8 O 0.10122 0.24905 1.01997 0.0
N9 N 0.19022 0.30614 1.0128 0.0
C10 C 0.18077 0.31219 0.97593 0.0
C11 C 0.17635 0.325 0.99726 0.0
C12 C 0.20288 0.28185 1.00013 0.0
N13 N 0.19769 0.28523 0.9777 0.0
O14 O 0.23616 0.29436 0.04664 0.0
H15 H 0.16328 0.34654 1.0008 0.0
H16 H 0.21559 0.26185 1.00717 0.0
O17 O 0.145 0.25141 0.04831 0.0
C18 C 0.27247 0.32729 0.03987 0.0
O19 O 0.27232 0.36244 1.032 0.0
N20 N 0.15614 0.33669 0.04489 0.0
C21 C 0.11998 0.39178 0.04629 0.0
C22 C 0.0942 0.34674 0.05209 0.0
C23 C 0.11321 0.31972 0.05167 0.0
C24 C 0.18207 0.38084 0.04062 0.0
C25 C 0.1646 0.40881 0.04084 0.0
H26 H 0.09371 0.28592 0.05743 0.0
H27 H 0.21674 0.39429 0.03678 0.0
H28 H 0.13137 0.27133 0.08863 0.0
H29 H 0.24218 0.36765 0.12407 0.0
H30 H 0.17308 0.32283 0.96025 0.0
H31 H 0.05986 0.33264 0.057 0.0
H32 H 0.18614 0.44368 0.03713 0.0
C33 C 0.8751 0.23873 0.42272 0.0
C34 C 0.86809 0.22816 0.44534 0.0
N35 N 0.86363 0.18773 0.4484 0.0
N36 N 0.87559 0.20549 0.41143 0.0
C37 C 0.86873 0.17502 0.42749 0.0
H38 H 0.8781 0.26815 0.41491 0.0
Co39 Co 0.87819 0.20137 0.38003 0.0
C40 C 0.9113 0.1397 0.37153 0.0
O41 O 0.88744 0.1258 0.35304 0.0
N42 N 0.8807 0.1979 0.34791 0.0
C43 C 0.86289 0.18624 0.31147 0.0
C44 C 0.84675 0.181 0.33313 0.0
C45 C 0.91727 0.21375 0.33459 0.0
N46 N 0.90737 0.20697 0.3123 0.0
O47 O 0.93215 0.25694 0.37972 0.0
H48 H 0.81219 0.16563 0.33753 0.0
H49 H 0.95055 0.23016 0.34123 0.0
O50 O 0.91006 0.16921 0.3838 0.0
C51 C 0.92364 0.28584 0.37184 0.0
O52 O 0.8836 0.27279 0.36435 0.0
N53 N 0.82277 0.15035 0.38114 0.0
C54 C 0.73371 0.09006 0.38819 0.0
C55 C 0.76484 0.07595 0.38873 0.0
C56 C 0.80967 0.10697 0.38554 0.0
C57 C 0.79271 0.16422 0.38055 0.0
C58 C 0.74806 0.13467 0.38381 0.0
H59 H 0.83326 0.09611 0.38782 0.0
H60 H 0.8039 0.19895 0.37782 0.0
H61 H 0.86553 0.14325 0.42367 0.0
H62 H 0.86562 0.24859 0.45835 0.0
H63 H 0.84303 0.17496 0.29632 0.0
H64 H 0.75481 0.04176 0.39248 0.0
H65 H 0.72497 0.14677 0.38307 0.0
C66 C 0.61572 0.85348 0.74859 0.0
C67 C 0.61783 0.84555 0.77124 0.0
N68 N 0.65271 0.83964 0.7746 0.0
N69 N 0.64921 0.85288 0.73763 0.0
C70 C 0.67114 0.8444 0.75387 0.0
H71 H 0.59108 0.85889 0.74057 0.0
Co72 Co 0.65945 0.85963 0.70655 0.0
C73 C 0.7497 0.87463 0.70016 0.0
O74 O 0.73655 0.84997 0.68189 0.0
N75 N 0.66987 0.86699 0.67461 0.0
C76 C 0.66901 0.85624 0.6374 0.0
C77 C 0.65256 0.83636 0.65795 0.0
C78 C 0.69664 0.90544 0.66345 0.0
N79 N 0.69671 0.89975 0.64083 0.0
O80 O 0.66937 0.91866 0.70889 0.0
H81 H 0.62946 0.80152 0.66017 0.0
H82 H 0.71619 0.93703 0.6718 0.0
O83 O 0.7221 0.88062 0.71164 0.0
C84 C 0.63626 0.9197 0.70064 0.0
O85 O 0.60508 0.88411 0.69063 0.0
N86 N 0.64337 0.79995 0.70507 0.0
C87 C 0.59843 0.70774 0.70478 0.0
C88 C 0.64306 0.73172 0.71116 0.0
C89 C 0.66508 0.7782 0.71137 0.0
C90 C 0.59943 0.77681 0.70021 0.0
C91 C 0.57659 0.73085 0.69943 0.0
H92 H 0.69867 0.79608 0.71736 0.0
H93 H 0.58212 0.79456 0.69666 0.0
H94 H 0.6994 0.84058 0.75039 0.0
H95 H 0.59525 0.8443 0.78415 0.0
H96 H 0.66046 0.83998 0.62111 0.0
H97 H 0.66052 0.71473 0.71609 0.0
H98 H 0.54175 0.71347 0.6952 0.0
C99 C 0.76777 0.62779 0.07951 0.0
C100 C 0.7773 0.6312 0.10219 0.0
N101 N 0.81377 0.67086 0.10608 0.0
N102 N 0.79764 0.66519 0.06894 0.0
C103 C 0.82511 0.69096 0.08555 0.0
H104 H 0.7413 0.59926 0.07117 0.0
Co105 Co 0.79981 0.6729 0.0376 0.0
C106 C 0.85393 0.76823 1.0289 0.0
O107 O 0.87163 0.75841 1.01184 0.0
N108 N 0.80076 0.6796 1.00542 0.0
C109 C 0.8107 0.67683 0.96835 0.0
C110 C 0.81783 0.66485 0.98933 0.0
C111 C 0.78252 0.69967 0.99349 0.0
N112 N 0.78858 0.69886 0.97093 0.0
O113 O 0.74073 0.66269 0.0385 0.0
H114 H 0.83436 0.64628 0.99222 0.0
H115 H 0.76594 0.71545 1.0013 0.0
O116 O 0.8249 0.73712 0.04137 0.0
C117 C 0.71512 0.62408 1.03055 0.0
O118 O 0.7327 0.60166 1.02198 0.0
N119 N 0.85503 0.67666 0.03743 0.0
C120 C 0.92542 0.66102 0.03808 0.0
C121 C 0.93197 0.70272 0.04413 0.0
C122 C 0.89596 0.70986 0.04389 0.0
C123 C 0.84798 0.63525 1.0333 0.0
C124 C 0.88278 0.62693 1.03293 0.0
H125 H 0.90108 0.74142 0.04962 0.0
H126 H 0.81481 0.60854 1.0299 0.0
H127 H 0.85377 0.72313 0.08245 0.0
H128 H 0.75882 0.60585 0.11468 0.0
H129 H 0.82046 0.66917 0.95236 0.0
H130 H 0.96434 0.7292 0.04911 0.0
H131 H 0.87624 0.59379 1.02912 0.0
C132 C 0.12781 0.76599 0.41109 0.0
C133 C 0.1376 0.77402 0.43375 0.0
N134 N 0.14095 0.81323 0.43902 0.0
N135 N 0.12483 0.79983 0.40206 0.0
C136 C 0.13278 0.82797 0.4195 0.0
H137 H 0.12434 0.73789 0.40162 0.0
Co138 Co 0.11812 0.80711 0.37133 0.0
C139 C 0.10598 0.88448 0.36851 0.0
O140 O 0.13046 0.89767 0.35013 0.0
N141 N 0.11122 0.81417 0.33964 0.0
C142 C 0.12397 0.83042 0.30289 0.0
C143 C 0.14297 0.83278 0.32348 0.0
C144 C 0.073 0.80068 0.32809 0.0
N145 N 0.07992 0.81006 0.30574 0.0
O146 O 0.05889 0.75918 0.3733 0.0
H147 H 0.17807 0.84764 0.32611 0.0
H148 H 0.04058 0.78433 0.3359 0.0
O149 O 0.09908 0.84925 0.37865 0.0
C150 C 0.05642 0.72506 0.36404 0.0
O151 O 0.09067 0.72948 0.35257 0.0
N152 N 0.17771 0.8495 0.37036 0.0
C153 C 0.26864 0.89046 0.37607 0.0
C154 C 0.24587 0.9126 0.38205 0.0
C155 C 0.19994 0.89115 0.37938 0.0
C156 C 0.19962 0.82806 0.36424 0.0
C157 C 0.24507 0.84817 0.36651 0.0
H158 H 0.18253 0.90687 0.38605 0.0
H159 H 0.18113 0.7943 0.35818 0.0
H160 H 0.13467 0.85973 0.41768 0.0
H161 H 0.14239 0.75279 0.44533 0.0
H162 H 0.14127 0.84182 0.28691 0.0
H163 H 0.26295 0.94494 0.38996 0.0
H164 H 0.26143 0.83009 0.3615 0.0
C165 C 0.35877 0.16149 0.74172 0.0
C166 C 0.36408 0.1759 0.76384 0.0
N167 N 0.32415 0.15556 0.77406 0.0
N168 N 0.31575 0.13201 0.73802 0.0
C169 C 0.2957 0.12872 0.75813 0.0
H170 H 0.38424 0.17353 0.72885 0.0
Co171 Co 0.28952 0.10863 0.70994 0.0
C172 C 0.20528 0.03228 0.72299 0.0
O173 O 0.21691 0.00684 0.71212 0.0
N174 N 0.26174 0.08489 0.68166 0.0
C175 C 0.2101 0.06323 0.65503 0.0
C176 C 0.22483 0.08513 0.67514 0.0
C177 C 0.2688 0.0625 0.66489 0.0
N178 N 0.23753 0.0487 0.64856 0.0
O179 O 0.30425 0.06318 0.71362 0.0
H180 H 0.20869 0.09939 0.68476 0.0
H181 H 0.29521 0.05492 0.66494 0.0
O182 O 0.23221 0.07387 0.72418 0.0
C183 C 0.34175 0.07715 0.70412 0.0
O184 O 0.3591 0.11454 0.69269 0.0
N185 N 0.28113 0.15675 0.706 0.0
C186 C 0.2983 0.24349 0.7041 0.0
C187 C 0.26796 0.2136 0.71994 0.0
C188 C 0.25935 0.16983 0.72046 0.0
C189 C 0.30826 0.18447 0.68959 0.0
C190 C 0.31686 0.22785 0.68813 0.0
H191 H 0.23814 0.14781 0.73358 0.0
H192 H 0.326 0.17379 0.67867 0.0
H193 H 0.26047 0.10854 0.76088 0.0
H194 H 0.39447 0.20139 0.77136 0.0
H195 H 0.18114 0.05819 0.64592 0.0
H196 H 0.25311 0.22463 0.73256 0.0
H197 H 0.341 0.24999 0.67589 0.0
H198 H 0.30876 0.33072 0.08071 0.0
H199 H 0.3886 0.37463 0.08775 0.0
H200 H 0.41342 0.38229 1.01597 0.0
H201 H 0.33393 0.33928 1.00896 0.0
H202 H 0.48169 0.38041 0.04726 0.0
H203 H 0.43332 0.50731 0.06583 0.0
H204 H 0.40661 0.45563 0.08113 0.0
H205 H 0.39635 0.45626 0.05149 0.0
C206 C 0.33146 0.33952 0.06658 0.0
C207 C 0.31557 0.33163 0.04431 0.0
C208 C 0.37696 0.36505 0.0706 0.0
C209 C 0.40663 0.38226 0.05234 0.0
C210 C 0.39095 0.3693 1.03026 0.0
H211 H 0.653 0.57049 1.00101 0.0
H212 H 0.57744 0.51307 1.01018 0.0
C213 C 0.34562 0.34438 1.02626 0.0
C214 C 0.45203 0.41981 0.0554 0.0
H215 H 0.50853 0.53281 0.0597 0.0
C216 C 0.48775 0.41362 0.05049 0.0
C217 C 0.45968 0.46309 0.05963 0.0
C218 C 0.42213 0.47139 0.06476 0.0
C219 C 0.53085 0.44989 0.0487 0.0
C220 C 0.53802 0.49341 0.05122 0.0
C221 C 0.50276 0.49942 0.05758 0.0
C222 C 0.58093 0.53274 0.04516 0.0
C223 C 0.56819 0.44134 0.04347 0.0
C224 C 0.6065 0.56502 0.06131 0.0
C225 C 0.64954 0.59868 0.0559 0.0
C226 C 0.66712 0.60009 1.03432 0.0
C227 C 0.64003 0.57003 1.01774 0.0
C228 C 0.59717 0.53689 1.02306 0.0
H229 H 0.56029 0.40781 0.04923 0.0
H230 H 0.57355 0.44306 1.0249 0.0
H231 H 0.59944 0.46642 0.05158 0.0
H232 H 0.5942 0.56264 0.07839 0.0
H233 H 0.67014 0.62113 0.06905 0.0
H234 H 0.94751 0.34794 0.33965 0.0
H235 H 0.96955 0.42538 0.34642 0.0
H236 H 0.98275 0.40784 0.41761 0.0
H237 H 0.96183 0.33027 0.41068 0.0
H238 H 0.91086 0.4372 0.37629 0.0
H239 H 0.08733 0.53529 0.40286 0.0
H240 H 0.06705 0.48557 0.38608 0.0
H241 H 0.05267 0.48157 0.41544 0.0
C242 C 0.95746 0.36133 0.35653 0.0
C243 C 0.95338 0.33356 0.37462 0.0
C244 C 0.96953 0.40534 0.36044 0.0
C245 C 0.97726 0.42208 0.38253 0.0
C246 C 0.97727 0.39559 0.40041 0.0
H247 H 0.03089 0.69259 0.40652 0.0
H248 H 0.00051 0.61437 0.41688 0.0
C249 C 0.96569 0.35146 0.39643 0.0
C250 C 0.97862 0.4645 0.38679 0.0
H251 H 0.04839 0.57358 0.39865 0.0
C252 C 0.94074 0.46695 0.38152 0.0
C253 C 0.01729 0.50287 0.39404 0.0
C254 C 0.05861 0.50164 0.39989 0.0
C255 C 0.94144 0.50744 0.38186 0.0
C256 C 0.98107 0.54639 0.38748 0.0
C257 C 0.01797 0.54349 0.3944 0.0
C258 C 0.9876 0.59076 0.38238 0.0
C259 C 0.90041 0.50859 0.37526 0.0
C260 C 0.98838 0.60283 0.35968 0.0
C261 C 0.006 0.64724 0.35378 0.0
C262 C 0.02253 0.68007 0.3705 0.0
C263 C 0.01746 0.66762 0.39339 0.0
C264 C 0.00057 0.62311 0.3993 0.0
H265 H 0.87007 0.47612 0.37842 0.0
H266 H 0.89786 0.53477 0.38469 0.0
H267 H 0.90189 0.51599 0.35693 0.0
H268 H 0.97917 0.57847 0.34636 0.0
H269 H 0.01038 0.65631 0.33603 0.0
H270 H 0.39531 0.07192 0.67302 0.0
H271 H 0.45082 0.05024 0.67911 0.0
H272 H 0.40684 0.01567 0.74824 0.0
H273 H 0.34984 0.03611 0.74186 0.0
H274 H 0.51869 0.09049 0.70831 0.0
H275 H 0.41845 0.91076 0.72899 0.0
H276 H 0.3944 0.94113 0.7167 0.0
H277 H 0.40791 0.94685 0.74625 0.0
C278 C 0.39669 0.05855 0.68935 0.0
C279 C 0.36818 0.05533 0.70693 0.0
C280 C 0.42863 0.04649 0.69287 0.0
C281 C 0.43316 0.03142 0.71413 0.0
C282 C 0.40355 0.02653 0.73157 0.0
H283 H 0.62886 0.94938 0.74195 0.0
H284 H 0.58576 0.98597 0.7499 0.0
C285 C 0.37092 0.03803 0.72792 0.0
C286 C 0.47064 0.02353 0.71794 0.0
H287 H 0.49579 0.94259 0.7289 0.0
C288 C 0.51368 0.05823 0.71306 0.0
C289 C 0.46422 0.98161 0.72435 0.0
C290 C 0.41878 0.94278 0.72922 0.0
C291 C 0.55003 0.05152 0.71333 0.0
C292 C 0.54324 0.00916 0.71871 0.0
C293 C 0.50079 0.97516 0.72491 0.0
C294 C 0.57788 -0.00262 0.71472 0.0
C295 C 0.59523 0.08929 0.70712 0.0
C296 C 0.58901 0.99333 0.69239 0.0
C297 C 0.61307 0.97216 0.68786 0.0
C298 C 0.62699 0.95543 0.7056 0.0
C299 C 0.61937 0.96304 0.72804 0.0
C300 C 0.59443 0.98348 0.73258 0.0
H301 H 0.59718 0.12193 0.70897 0.0
H302 H 0.6211 0.08887 0.7178 0.0
H303 H 0.60248 0.08563 0.68922 0.0
H304 H 0.57603 0.00327 0.67837 0.0
H305 H 0.6178 0.96575 0.67044 0.0
H306 H 0.59022 0.65105 0.7388 0.0
H307 H 0.53834 0.57063 0.74027 0.0
H308 H 0.4968 0.57467 0.67216 0.0
H309 H 0.54834 0.65462 0.67062 0.0
H310 H 0.44237 0.53238 0.73268 0.0
H311 H 0.52067 0.46871 0.67315 0.0
H312 H 0.55136 0.52188 0.68697 0.0
H313 H 0.51705 0.51542 0.66308 0.0
C314 C 0.57078 0.63444 0.724 0.0
C315 C 0.57319 0.65878 0.70459 0.0
C316 C 0.54102 0.58874 0.7249 0.0
C317 C 0.51398 0.56689 0.70629 0.0
C318 C 0.51773 0.59092 0.68659 0.0
H319 H 0.31135 0.30299 0.67071 0.0
H320 H 0.35965 0.38354 0.67266 0.0
C321 C 0.54706 0.63648 0.68576 0.0
C322 C 0.47956 0.51961 0.70774 0.0
H323 H 0.4463 0.41891 0.68377 0.0
C324 C 0.44328 0.50735 0.72218 0.0
C325 C 0.48087 0.4874 0.69384 0.0
C326 C 0.51971 0.49876 0.67849 0.0
C327 C 0.40747 0.46368 0.72262 0.0
C328 C 0.40857 0.43147 0.70855 0.0
C329 C 0.44529 0.44375 0.69438 0.0
C330 C 0.37275 0.38447 0.70846 0.0
C331 C 0.36831 0.45276 0.73763 0.0
C332 C 0.36272 0.35856 0.72812 0.0
C333 C 0.33473 0.31264 0.72707 0.0
C334 C 0.3169 0.29191 0.70629 0.0
C335 C 0.32468 0.31821 0.68693 0.0
C336 C 0.35236 0.36412 0.68802 0.0
H337 H 0.36682 0.48293 0.74209 0.0
H338 H 0.3368 0.42868 0.72935 0.0
H339 H 0.37128 0.4377 0.75357 0.0
H340 H 0.37874 0.37339 0.74397 0.0
H341 H 0.32998 0.2931 0.74216 0.0
H342 H 0.97765 0.66736 0.07361 0.0
H343 H 0.02141 0.63022 0.07654 0.0
H344 H -0.00433 0.59274 1.00633 0.0
H345 H 0.95184 0.62938 1.00342 0.0
H346 H 0.96235 0.5215 0.04005 0.0
H347 H 0.14129 0.64607 0.0495 0.0
H348 H 0.10185 0.65399 0.06551 0.0
H349 H 0.10327 0.65881 1.03531 0.0
C350 C 0.983 0.65276 0.05863 0.0
C351 C 0.96148 0.65089 0.03832 0.0
C352 C 0.00783 0.63155 0.06032 0.0
C353 C 0.01152 0.60878 0.04165 0.0
C354 C -0.00686 0.61025 1.02088 0.0
H355 H 0.13341 0.45437 1.01488 0.0
H356 H 0.10723 0.50742 1.01592 0.0
C357 C 0.96828 0.63118 1.01922 0.0
C358 C 0.02783 0.5775 0.04448 0.0
H359 H 0.12074 0.57044 0.05186 0.0
C360 C -0.00306 0.53209 0.04275 0.0
C361 C 0.07288 0.59174 0.048 0.0
C362 C 0.10702 0.6403 0.0496 0.0
C363 C 0.01009 0.50031 0.04403 0.0
C364 C 0.0552 0.51446 0.0474 0.0
C365 C 0.0861 0.55989 0.04943 0.0
C366 C 0.07123 0.48264 0.04733 0.0
C367 C 0.97592 0.45198 0.04103 0.0
C368 C 0.05928 0.45108 0.06464 0.0
C369 C 0.07421 0.42068 0.06411 0.0
C370 C 0.10145 0.4217 0.04632 0.0
C371 C 0.11291 0.45317 1.02894 0.0
C372 C 0.09806 0.48348 1.0295 0.0
H373 H 0.94403 0.44739 1.03465 0.0
H374 H 0.98809 0.43589 1.02908 0.0
H375 H 0.96961 0.43471 0.05755 0.0
H376 H 0.03878 0.45026 0.07861 0.0
H377 H 0.06538 0.39718 0.07787 0.0
H378 H 0.33598 0.97554 0.36883 0.0
H379 H 0.41533 0.00428 0.37447 0.0
H380 H 0.38722 0.87651 0.39957 0.0
H381 H 0.30826 0.8482 0.39481 0.0
H382 H 0.45065 0.94538 0.42442 0.0
H383 H 0.48737 0.97104 0.33247 0.0
H384 H 0.46065 -0.00031 0.34344 0.0
H385 H 0.43171 0.94007 0.34346 0.0
C386 C 0.34681 0.95387 0.37581 0.0
C387 C 0.31616 0.90947 0.38097 0.0
C388 C 0.39201 0.97012 0.37882 0.0
C389 C 0.40697 0.9421 0.38692 0.0
C390 C 0.37628 0.89844 0.39306 0.0
H391 H 0.68104 0.00905 0.36897 0.0
H392 H 0.60002 0.96482 0.37114 0.0
C393 C 0.33127 0.88227 0.39014 0.0
C394 C 0.45463 0.95768 0.38855 0.0
H395 H 0.54903 -0.00109 0.35715 0.0
C396 C 0.4722 0.95689 0.40972 0.0
C397 C 0.48225 0.97149 0.36922 0.0
C398 C 0.46455 0.97027 0.34581 0.0
C399 C 0.51723 0.97113 0.41221 0.0
C400 C 0.54527 0.9872 0.39308 0.0
C401 C 0.52738 0.98657 0.37179 0.0
C402 C 0.59377 0.0086 0.39491 0.0
C403 C 0.53431 0.96884 0.43527 0.0
C404 C 0.61682 0.04704 0.40797 0.0
C405 C 0.66272 0.072 0.40682 0.0
C406 C 0.68631 0.05921 0.39239 0.0
C407 C 0.6635 0.01938 0.38029 0.0
C408 C 0.61739 0.99431 0.38145 0.0
H409 H 0.50775 0.9427 0.44591 0.0
H410 H 0.5621 0.96212 0.43402 0.0
H411 H 0.54637 0.00105 0.444 0.0
H412 H 0.59922 0.05911 0.41811 0.0
H413 H 0.6797 0.10242 0.41648 0.0
H414 H 0.02067 0.19248 1.03447 0.0
H415 H 0.96474 0.11541 0.04205 0.0
H416 H 0.06776 0.08681 0.05944 0.0
H417 H 0.1235 0.16472 0.05328 0.0
H418 H 0.9526 0.04992 1.01948 0.0
H419 H 0.98135 0.01433 0.1064 0.0
H420 H 0.0064 0.07028 0.09566 0.0
H421 H 0.03226 0.03731 0.09093 0.0
C422 C 0.03121 0.16982 0.04035 0.0
C423 C 0.07628 0.18424 0.04318 0.0
C424 C -0.00075 0.12583 0.04475 0.0
C425 C 0.01176 0.09511 0.05159 0.0
C426 C 0.05692 0.10991 0.05492 0.0
H427 H 0.91582 0.8393 1.00547 0.0
H428 H 0.94591 0.91721 1.01378 0.0
C429 C 0.08887 0.15432 0.05113 0.0
C430 C 0.97847 0.04696 0.05215 0.0
H431 H 0.94878 0.95065 0.08058 0.0
C432 C 0.95112 0.02854 1.03319 0.0
C433 C 0.97538 0.01867 0.07013 0.0
C434 C 0.0001 0.03637 0.09201 0.0
C435 C 0.92352 0.98268 1.03096 0.0
C436 C 0.9244 0.95424 0.04771 0.0
C437 C 0.94886 0.97251 0.06751 0.0
C438 C 0.90514 0.90624 0.04339 0.0
C439 C 0.89476 0.96507 1.01023 0.0
C440 C 0.87308 0.87393 0.05777 0.0
C441 C 0.85581 0.82872 0.05315 0.0
C442 C 0.87074 0.81546 1.0342 0.0
C443 C 0.90323 0.84813 1.02012 0.0
C444 C 0.92037 0.89287 1.02475 0.0
H445 H 0.8853 0.98913 1.00386 0.0
H446 H 0.91353 0.95985 0.99659 0.0
H447 H 0.86419 0.93303 1.01376 0.0
H448 H 0.86127 0.88368 0.07239 0.0
H449 H 0.83104 0.80429 0.06439 0.0
H450 H 0.1165 0.96156 0.35139 0.0
H451 H 0.08724 0.00662 0.36624 0.0
H452 H 0.02896 0.91672 0.42255 0.0
H453 H 0.05797 0.87068 0.40757 0.0
H454 H 0.97027 0.9333 0.40177 0.0
H455 H 0.12106 0.09277 0.4181 0.0
H456 H 0.12441 0.07368 0.39044 0.0
H457 H 0.12196 0.04167 0.41494 0.0
C458 C 0.09793 0.95149 0.36708 0.0
C459 C 0.08942 0.91243 0.37824 0.0
C460 C 0.08167 0.97767 0.37572 0.0
C461 C 0.05688 0.96567 0.39582 0.0
C462 C 0.04861 0.9269 0.4072 0.0
H463 H 0.95365 0.14935 0.41208 0.0
H464 H 0.98702 0.10608 0.42558 0.0
C465 C 0.06497 0.90055 0.39854 0.0
C466 C 0.03547 0.99108 0.40295 0.0
H467 H 0.05644 0.09762 0.40522 0.0
C468 C 0.98911 0.96912 0.4033 0.0
C469 C 0.0599 0.03768 0.40558 0.0
C470 C 0.10961 0.06266 0.40751 0.0
C471 C 0.96676 0.99305 0.4034 0.0
C472 C 0.99151 0.03988 0.40274 0.0
C473 C 0.03756 0.06167 0.40521 0.0
C474 C 0.9711 0.06598 0.39539 0.0
C475 C 0.9169 0.96803 0.40272 0.0
C476 C 0.95246 0.05851 0.37377 0.0
C477 C 0.93392 0.08317 0.36598 0.0
C478 C 0.93375 0.11603 0.37962 0.0
C479 C 0.95331 0.12424 0.40117 0.0
C480 C 0.97213 0.09947 0.40896 0.0
H481 H 0.90314 0.93534 0.41127 0.0
H482 H 0.90308 0.98716 0.41088 0.0
H483 H 0.90589 0.96186 0.38484 0.0
H484 H 0.95248 0.03364 0.3628 0.0
H485 H 0.91948 0.07618 0.34925 0.0
H486 H 0.13445 0.952 0.712 0.0
H487 H 0.05641 0.92836 0.71678 0.0
H488 H 0.0915 0.04823 0.75365 0.0
H489 H 0.17002 0.07291 0.74831 0.0
H490 H 0.00045 0.91259 0.75198 0.0
H491 H 0.02155 0.05712 0.70182 0.0
H492 H 0.06468 0.04338 0.7041 0.0
H493 H 0.05421 0.07074 0.72704 0.0
C494 C 0.12568 0.97313 0.72143 0.0
C495 C 0.15847 0.01467 0.72947 0.0
C496 C 0.08097 0.95953 0.72415 0.0
C497 C 0.06811 0.98701 0.73508 0.0
C498 C 0.10069 0.02706 0.7446 0.0
H499 H 0.79284 0.93507 0.734 0.0
H500 H 0.86944 0.96402 0.74666 0.0
C501 C 0.14553 0.04096 0.74166 0.0
C502 C 0.02082 0.97463 0.73502 0.0
H503 H 0.94944 0.00497 0.71319 0.0
C504 C 0.98935 0.93309 0.74378 0.0
C505 C 0.00632 0.00137 0.72423 0.0
C506 C 0.03832 0.04546 0.71358 0.0
C507 C 0.94386 0.91692 0.74132 0.0
C508 C 0.92956 0.94297 0.72985 0.0
C509 C 0.96077 0.98534 0.72209 0.0
C510 C 0.88288 0.92462 0.72322 0.0
C511 C 0.91126 0.8715 0.7503 0.0
C512 C 0.86557 0.89338 0.70576 0.0
C513 C 0.82237 0.87732 0.69833 0.0
C514 C 0.79546 0.89203 0.7083 0.0
C515 C 0.81276 0.92312 0.72599 0.0
C516 C 0.85637 0.93961 0.73326 0.0
H517 H 0.92671 0.85961 0.76277 0.0
H518 H 0.88263 0.87167 0.75839 0.0
H519 H 0.89853 0.84765 0.73605 0.0
H520 H 0.88579 0.88184 0.69767 0.0
H521 H 0.8101 0.8533 0.68474 0.0
H522 H 0.26738 0.27122 0.97562 0.0
H523 H 0.29247 0.24759 0.94231 0.0
H524 H 0.18067 0.23335 0.90464 0.0
H525 H 0.15608 0.25753 0.93761 0.0
H526 H 0.25549 0.17282 0.91564 0.0
H527 H 0.28254 0.31768 0.86481 0.0
H528 H 0.2726 0.31419 0.89489 0.0
H529 H 0.2271 0.2867 0.87552 0.0
C530 C 0.24796 0.26253 0.96029 0.0
C531 C 0.21006 0.26677 0.95913 0.0
C532 C 0.2624 0.24923 0.94125 0.0
C533 C 0.23913 0.23984 0.92075 0.0
C534 C 0.2 0.24178 0.92 0.0
H535 H 0.24745 0.15161 0.78641 0.0
H536 H 0.22955 0.17105 0.82302 0.0
C537 C 0.18586 0.25544 0.93889 0.0
C538 C 0.2558 0.22872 0.89997 0.0
H539 H 0.28224 0.25828 0.84452 0.0
C540 C 0.26182 0.19178 0.90016 0.0
C541 C 0.26451 0.2537 0.87978 0.0
C542 C 0.26182 0.29554 0.87875 0.0
C543 C 0.27443 0.17814 0.88047 0.0
C544 C 0.28139 0.20216 0.86013 0.0
C545 C 0.27651 0.23969 0.8601 0.0
C546 C 0.29209 0.1881 0.83843 0.0
C547 C 0.27886 0.13732 0.88128 0.0
C548 C 0.33333 0.19128 0.83489 0.0
C549 C 0.34375 0.18014 0.81387 0.0
C550 C 0.31302 0.16538 0.79605 0.0
C551 C 0.27162 0.16195 0.79981 0.0
C552 C 0.2614 0.17337 0.82071 0.0
H553 H 0.26604 0.1187 0.89738 0.0
H554 H 0.26084 0.11495 0.86696 0.0
H555 H 0.31428 0.14725 0.8796 0.0
H556 H 0.35773 0.20312 0.84825 0.0
H557 H 0.37584 0.18308 0.81153 0.0
H558 H 0.09005 0.28083 0.11772 0.0
H559 H 0.04728 0.26263 0.15284 0.0
H560 H 0.16561 0.30029 0.19122 0.0
H561 H 0.20865 0.319 0.15614 0.0
H562 H 0.0329 0.20296 0.18586 0.0
H563 H 0.11978 0.37254 0.22207 0.0
H564 H 0.12691 0.36152 0.19302 0.0
H565 H 0.1558 0.35142 0.21524 0.0
C566 C 0.10696 0.28496 0.13361 0.0
C567 C 0.15288 0.3016 0.1341 0.0
C568 C 0.08248 0.27473 0.15371 0.0
C569 C 0.10329 0.28088 0.17476 0.0
C570 C 0.14894 0.29644 0.17527 0.0
H571 H -0.00726 0.2243 0.31242 0.0
H572 H 0.04204 0.24207 0.27968 0.0
C573 C 0.17352 0.30699 0.15518 0.0
C574 C 0.07698 0.27041 0.19605 0.0
H575 H 0.06744 0.31518 0.24578 0.0
C576 C 0.0405 0.22755 0.19893 0.0
C577 C 0.08685 0.30246 0.21319 0.0
C578 C 0.12419 0.34967 0.2107 0.0
C579 C 0.01372 0.2159 0.21838 0.0
C580 C 0.02343 0.24799 0.23538 0.0
C581 C 0.06025 0.29061 0.23275 0.0
C582 C -0.00576 0.23845 0.25541 0.0
C583 C 0.9752 0.16927 0.22066 0.0
C584 C 0.95141 0.23147 0.25267 0.0
C585 C 0.92336 0.22186 0.27131 0.0
C586 C 0.93736 0.21878 0.29322 0.0
C587 C 0.98076 0.22663 0.29594 0.0
C588 C 0.00897 0.23658 0.27721 0.0
H589 H 0.97794 0.14611 0.20877 0.0
H590 H 0.97281 0.1568 0.23819 0.0
H591 H 0.94408 0.16919 0.21691 0.0
H592 H 0.93967 0.23357 0.23604 0.0
H593 H 0.89074 0.21712 0.26846 0.0
H594 H 0.83127 0.20279 0.48744 0.0
H595 H 0.80957 0.15849 0.52178 0.0
H596 H 0.84408 0.06775 0.49114 0.0
H597 H 0.86815 0.11307 0.45702 0.0
H598 H 0.74531 0.07512 0.52785 0.0
H599 H 0.90435 0.08736 0.55113 0.0
H600 H 0.90061 0.12237 0.52983 0.0
H601 H 0.88725 0.06669 0.52302 0.0
C602 C 0.83527 0.17403 0.48796 0.0
C603 C 0.85185 0.162 0.46916 0.0
C604 C 0.82242 0.14842 0.50771 0.0
C605 C 0.82574 0.11005 0.50928 0.0
C606 C 0.84215 0.09776 0.49062 0.0
H607 H 0.72822 0.88843 0.60111 0.0
H608 H 0.76141 0.94216 0.57027 0.0
C609 C 0.85538 0.12356 0.47089 0.0
C610 C 0.8099 0.08187 0.53 0.0
H611 H 0.84001 0.03232 0.57061 0.0
C612 C 0.76622 0.0662 0.53732 0.0
C613 C 0.83714 0.07018 0.54244 0.0
C614 C 0.88507 0.08788 0.53635 0.0
C615 C 0.74873 0.03833 0.55629 0.0
C616 C 0.77567 0.02597 0.56841 0.0
C617 C 0.81944 0.04188 0.56128 0.0
C618 C 0.75818 0.9948 0.58786 0.0
C619 C 0.70112 0.0212 0.56289 0.0
C620 C 0.74623 0.00688 0.60821 0.0
C621 C 0.72732 0.97619 0.62595 0.0
C622 C 0.71976 0.9328 0.62354 0.0
C623 C 0.733 0.92136 0.60336 0.0
C624 C 0.7522 0.95209 0.58577 0.0
H625 H 0.6827 0.02781 0.54964 0.0
H626 H 0.68405 0.98495 0.56616 0.0
H627 H 0.69996 0.03768 0.57872 0.0
H628 H 0.75095 0.03985 0.61024 0.0
H629 H 0.71726 0.98591 0.64121 0.0
H630 H 0.60395 0.80654 0.81318 0.0
H631 H 0.62685 0.78795 0.84841 0.0
H632 H 0.75428 0.82657 0.81915 0.0
H633 H 0.73262 0.84739 0.78423 0.0
H634 H 0.65006 0.72685 0.8565 0.0
H635 H 0.79094 0.89204 0.87818 0.0
H636 H 0.75168 0.88442 0.85642 0.0
H637 H 0.79637 0.87424 0.85052 0.0
C638 C 0.63717 0.81197 0.81424 0.0
C639 C 0.66637 0.82884 0.79564 0.0
C640 C 0.65012 0.80095 0.83445 0.0
C641 C 0.69257 0.80652 0.83665 0.0
C642 C 0.72171 0.82296 0.81813 0.0
H643 H 0.82956 0.73095 0.93077 0.0
H644 H 0.80424 0.75806 0.89941 0.0
C645 C 0.70893 0.83429 0.79795 0.0
C646 C 0.70565 0.79336 0.85795 0.0
H647 H 0.78564 0.83033 0.89864 0.0
C648 C 0.67942 0.74965 0.86586 0.0
C649 C 0.74391 0.82311 0.87025 0.0
C650 C 0.77209 0.87118 0.86355 0.0
C651 C 0.6912 0.73451 0.88519 0.0
C652 C 0.73005 0.76394 0.89709 0.0
C653 C 0.75589 0.80782 0.88946 0.0
C654 C 0.74573 0.74906 0.91673 0.0
C655 C 0.66286 0.68672 0.89233 0.0
C656 C 0.72165 0.73572 0.93709 0.0
C657 C 0.73611 0.72014 0.95513 0.0
C658 C 0.77477 0.71741 0.95305 0.0
C659 C 0.79925 0.73185 0.9328 0.0
C660 C 0.78499 0.74765 0.9149 0.0
H661 H 0.63847 0.66644 0.87914 0.0
H662 H 0.68374 0.67186 0.89613 0.0
H663 H 0.64443 0.68507 0.90795 0.0
H664 H 0.69151 0.73706 0.93896 0.0
H665 H 0.71647 0.70916 0.97046 0.0
H666 H 0.80422 0.62211 0.14402 0.0
H667 H 0.84431 0.64773 0.1793 0.0
H668 H 0.91962 0.78002 0.15211 0.0
H669 H 0.87804 0.75525 0.11691 0.0
H670 H 0.9301 0.68111 0.18691 0.0
H671 H 0.88399 0.80545 0.21252 0.0
H672 H 0.85609 0.76622 0.19007 0.0
H673 H 0.90843 0.81559 0.18486 0.0
C674 C 0.82853 0.6569 0.14546 0.0
C675 C 0.83731 0.68649 0.12732 0.0
C676 C 0.85181 0.67145 0.16577 0.0
C677 C 0.88461 0.71596 0.1686 0.0
C678 C 0.89376 0.7457 0.1506 0.0
H679 H 0.08852 0.85692 0.2678 0.0
H680 H 0.0381 0.83337 0.23552 0.0
C681 C 0.87021 0.73124 0.13026 0.0
C682 C 0.91051 0.73041 0.19 0.0
H683 H 0.94235 0.80526 0.23329 0.0
C684 C 0.93239 0.708 0.19713 0.0
C685 C 0.91354 0.76548 0.20343 0.0
C686 C 0.88892 0.7893 0.19748 0.0
C687 C 0.95786 0.72024 0.21696 0.0
C688 C 0.96142 0.75568 0.23015 0.0
C689 C 0.93947 0.77803 0.22315 0.0
C690 C 0.9896 0.77122 0.25066 0.0
C691 C 0.9818 0.69593 0.22338 0.0
C692 C 0.97849 0.74459 0.27014 0.0
C693 C 0.00722 0.75812 0.2887 0.0
C694 C 0.04771 0.79832 0.28797 0.0
C695 C 0.05785 0.82554 0.26874 0.0
C696 C 0.029 0.81224 0.25033 0.0
H697 H 0.98157 0.67432 0.20952 0.0
H698 H 0.01664 0.71981 0.22793 0.0
H699 H 0.96549 0.67482 0.2384 0.0
H700 H 0.94803 0.71294 0.27079 0.0
H701 H -0.00135 0.73634 0.3032 0.0
H702 H 0.30223 0.04766 0.62325 0.0
H703 H 0.29221 0.00621 0.58798 0.0
H704 H 0.15094 0.94912 0.59375 0.0
H705 H 0.16062 0.98933 0.62891 0.0
H706 H 0.17613 0.88747 0.58175 0.0
H707 H 0.25689 0.03763 0.52704 0.0
H708 H 0.28918 0.03625 0.5503 0.0
H709 H 0.24018 0.03919 0.55578 0.0
C710 C 0.2691 0.0259 0.61708 0.0
C711 C 0.23229 0.0223 0.62873 0.0
C712 C 0.26341 0.00256 0.59683 0.0
C713 C 0.22082 0.97512 0.58801 0.0
C714 C 0.18411 0.97033 0.60009 0.0
H715 H 0.12227 0.87535 0.45467 0.0
H716 H 0.14433 0.9143 0.49087 0.0
C717 C 0.18975 0.99365 0.62015 0.0
C718 C 0.21375 0.95161 0.56607 0.0
H719 H 0.22873 0.96846 0.509 0.0
C720 C 0.18798 0.90513 0.56585 0.0
C721 C 0.22866 0.97474 0.54531 0.0
C722 C 0.25499 0.02472 0.54444 0.0
C723 C 0.17628 0.8812 0.54547 0.0
C724 C 0.19126 0.90431 0.5247 0.0
C725 C 0.21744 0.95077 0.52492 0.0
C726 C 0.17872 0.88099 0.50254 0.0
C727 C 0.14664 0.83149 0.54632 0.0
C728 C 0.1911 0.84963 0.49689 0.0
C729 C 0.17857 0.8273 0.47617 0.0
C730 C 0.15359 0.83604 0.46052 0.0
C731 C 0.14174 0.86795 0.46615 0.0
C732 C 0.15426 0.89021 0.48689 0.0
H733 H 0.12966 0.82012 0.56293 0.0
H734 H 0.12122 0.81995 0.53284 0.0
H735 H 0.16687 0.81552 0.54359 0.0
H736 H 0.21078 0.84262 0.50846 0.0
H737 H 0.18912 0.8037 0.4723 0.0
loop_
_geom_bond_atom_site_label_1
_geom_bond_atom_site_label_2
_geom_bond_distance
_geom_bond_site_symmetry_2
_ccdc_geom_bond_type
C0 C1 1.351 . S
C0 N3 1.368 . S
C0 H5 0.931 . S
C1 C0 1.351 . S
C1 N2 1.373 . S
C1 H29 0.930 . S
N2 C1 1.373 . S
N2 C4 1.340 . S
N3 C0 1.368 . S
N3 C4 1.321 . S
N3 Co6 2.135 . S
C4 N2 1.340 . S
C4 N3 1.321 . S
C4 H28 0.930 . S
H5 C0 0.931 . S
Co6 N3 2.135 . S
Co6 N9 2.121 1_554 S
Co6 O14 2.055 . S
Co6 O17 2.039 . S
Co6 N20 2.140 . S
C7 O8 1.227 . S
C7 O17 1.265 . S
O8 C7 1.227 . S
N9 Co6 2.121 1_556 S
N9 C11 1.375 . S
N9 C12 1.313 . S
C10 C11 1.338 . S
C10 N13 1.377 . S
C10 H30 0.930 . S
C11 N9 1.375 . S
C11 C10 1.338 . S
C11 H15 0.931 . S
C12 N9 1.313 . S
C12 N13 1.344 . S
C12 H16 0.930 . S
N13 C10 1.377 . S
N13 C12 1.344 . S
O14 Co6 2.055 . S
O14 C18 1.253 . S
H15 C11 0.931 . S
H16 C12 0.930 . S
O17 Co6 2.039 . S
O17 C7 1.265 . S
C18 O14 1.253 . S
C18 O19 1.227 . S
O19 C18 1.227 . S
N20 Co6 2.140 . S
N20 C23 1.346 . S
N20 C24 1.345 1_554 S
C21 C22 1.365 1_556 S
C21 C25 1.407 . S
C22 C21 1.365 1_554 S
C22 C23 1.369 . S
C22 H31 0.929 . S
C23 N20 1.346 . S
C23 C22 1.369 . S
C23 H26 0.928 . S
C24 N20 1.345 1_556 S
C24 C25 1.371 . S
C24 H27 0.931 . S
C25 C21 1.407 . S
C25 C24 1.371 . S
C25 H32 0.930 . S
H26 C23 0.928 . S
H27 C24 0.931 . S
H28 C4 0.930 . S
H29 C1 0.930 . S
H30 C10 0.930 . S
H31 C22 0.929 . S
H32 C25 0.930 . S
C33 C34 1.351 . S
C33 N36 1.368 . S
C33 H38 0.931 . S
C34 C33 1.351 . S
C34 N35 1.373 . S
C34 H62 0.930 . S
N35 C34 1.373 . S
N35 C37 1.340 . S
N36 C33 1.368 . S
N36 C37 1.321 . S
N36 Co39 2.135 . S
C37 N35 1.340 . S
C37 N36 1.321 . S
C37 H61 0.930 . S
H38 C33 0.931 . S
Co39 N36 2.135 . S
Co39 N42 2.121 . S
Co39 O47 2.055 . S
Co39 O50 2.039 . S
Co39 N53 2.140 . S
C40 O41 1.227 . S
C40 O50 1.265 . S
O41 C40 1.227 . S
N42 Co39 2.121 . S
N42 C44 1.375 . S
N42 C45 1.313 . S
C43 C44 1.338 . S
C43 N46 1.377 . S
C43 H63 0.930 . S
C44 N42 1.375 . S
C44 C43 1.338 . S
C44 H48 0.931 . S
C45 N42 1.313 . S
C45 N46 1.344 . S
C45 H49 0.930 . S
N46 C43 1.377 . S
N46 C45 1.344 . S
O47 Co39 2.055 . S
O47 C51 1.253 . S
H48 C44 0.931 . S
H49 C45 0.930 . S
O50 Co39 2.039 . S
O50 C40 1.265 . S
C51 O47 1.253 . S
C51 O52 1.227 . S
O52 C51 1.227 . S
N53 Co39 2.140 . S
N53 C56 1.346 . S
N53 C57 1.345 . S
C54 C55 1.387 . S
C54 C58 1.391 . S
C55 C54 1.387 . S
C55 C56 1.369 . S
C55 H64 0.929 . S
C56 N53 1.346 . S
C56 C55 1.369 . S
C56 H59 0.928 . S
C57 N53 1.345 . S
C57 C58 1.371 . S
C57 H60 0.931 . S
C58 C54 1.391 . S
C58 C57 1.371 . S
C58 H65 0.930 . S
H59 C56 0.928 . S
H60 C57 0.931 . S
H61 C37 0.930 . S
H62 C34 0.930 . S
H63 C43 0.930 . S
H64 C55 0.929 . S
H65 C58 0.930 . S
C66 C67 1.351 . S
C66 N69 1.368 . S
C66 H71 0.931 . S
C67 C66 1.351 . S
C67 N68 1.373 . S
C67 H95 0.930 . S
N68 C67 1.373 . S
N68 C70 1.340 . S
N69 C66 1.368 . S
N69 C70 1.321 . S
N69 Co72 2.135 . S
C70 N68 1.340 . S
C70 N69 1.321 . S
C70 H94 0.930 . S
H71 C66 0.931 . S
Co72 N69 2.135 . S
Co72 N75 2.121 . S
Co72 O80 2.055 . S
Co72 O83 2.039 . S
Co72 N86 2.140 . S
C73 O74 1.227 . S
C73 O83 1.265 . S
O74 C73 1.227 . S
N75 Co72 2.121 . S
N75 C77 1.375 . S
N75 C78 1.313 . S
C76 C77 1.338 . S
C76 N79 1.377 . S
C76 H96 0.930 . S
C77 N75 1.375 . S
C77 C76 1.338 . S
C77 H81 0.931 . S
C78 N75 1.313 . S
C78 N79 1.344 . S
C78 H82 0.930 . S
N79 C76 1.377 . S
N79 C78 1.344 . S
O80 Co72 2.055 . S
O80 C84 1.253 . S
H81 C77 0.931 . S
H82 C78 0.930 . S
O83 Co72 2.039 . S
O83 C73 1.265 . S
C84 O80 1.253 . S
C84 O85 1.227 . S
O85 C84 1.227 . S
N86 Co72 2.140 . S
N86 C89 1.346 . S
N86 C90 1.345 . S
C87 C88 1.387 . S
C87 C91 1.391 . S
C88 C87 1.387 . S
C88 C89 1.369 . S
C88 H97 0.929 . S
C89 N86 1.346 . S
C89 C88 1.369 . S
C89 H92 0.928 . S
C90 N86 1.345 . S
C90 C91 1.371 . S
C90 H93 0.931 . S
C91 C87 1.391 . S
C91 C90 1.371 . S
C91 H98 0.930 . S
H92 C89 0.928 . S
H93 C90 0.931 . S
H94 C70 0.930 . S
H95 C67 0.930 . S
H96 C76 0.930 . S
H97 C88 0.929 . S
H98 C91 0.930 . S
C99 C100 1.351 . S
C99 N102 1.368 . S
C99 H104 0.931 . S
C100 C99 1.351 . S
C100 N101 1.373 . S
C100 H128 0.930 . S
N101 C100 1.373 . S
N101 C103 1.340 . S
N102 C99 1.368 . S
N102 C103 1.321 . S
N102 Co105 2.135 . S
C103 N101 1.340 . S
C103 N102 1.321 . S
C103 H127 0.930 . S
H104 C99 0.931 . S
Co105 N102 2.135 . S
Co105 N108 2.121 1_554 S
Co105 O113 2.055 . S
Co105 O116 2.039 . S
Co105 N119 2.140 . S
C106 O107 1.227 . S
C106 O116 1.265 . S
O107 C106 1.227 . S
N108 Co105 2.121 1_556 S
N108 C110 1.375 . S
N108 C111 1.313 . S
C109 C110 1.338 . S
C109 N112 1.377 . S
C109 H129 0.930 . S
C110 N108 1.375 . S
C110 C109 1.338 . S
C110 H114 0.931 . S
C111 N108 1.313 . S
C111 N112 1.344 . S
C111 H115 0.930 . S
N112 C109 1.377 . S
N112 C111 1.344 . S
O113 Co105 2.055 . S
O113 C117 1.253 . S
H114 C110 0.931 . S
H115 C111 0.930 . S
O116 Co105 2.039 . S
O116 C106 1.265 . S
C117 O113 1.253 . S
C117 O118 1.227 . S
O118 C117 1.227 . S
N119 Co105 2.140 . S
N119 C122 1.346 . S
N119 C123 1.345 1_554 S
C120 C121 1.365 1_556 S
C120 C124 1.407 . S
C121 C120 1.365 1_554 S
C121 C122 1.369 . S
C121 H130 0.929 . S
C122 N119 1.346 . S
C122 C121 1.369 . S
C122 H125 0.928 . S
C123 N119 1.345 1_556 S
C123 C124 1.371 . S
C123 H126 0.931 . S
C124 C120 1.407 . S
C124 C123 1.371 . S
C124 H131 0.930 . S
H125 C122 0.928 . S
H126 C123 0.931 . S
H127 C103 0.930 . S
H128 C100 0.930 . S
H129 C109 0.930 . S
H130 C121 0.929 . S
H131 C124 0.930 . S
C132 C133 1.351 . S
C132 N135 1.368 . S
C132 H137 0.931 . S
C133 C132 1.351 . S
C133 N134 1.373 . S
C133 H161 0.930 . S
N134 C133 1.373 . S
N134 C136 1.340 . S
N135 C132 1.368 . S
N135 C136 1.321 . S
N135 Co138 2.135 . S
C136 N134 1.340 . S
C136 N135 1.321 . S
C136 H160 0.930 . S
H137 C132 0.931 . S
Co138 N135 2.135 . S
Co138 N141 2.121 . S
Co138 O146 2.055 . S
Co138 O149 2.039 . S
Co138 N152 2.140 . S
C139 O140 1.227 . S
C139 O149 1.265 . S
O140 C139 1.227 . S
N141 Co138 2.121 . S
N141 C143 1.375 . S
N141 C144 1.313 . S
C142 C143 1.338 . S
C142 N145 1.377 . S
C142 H162 0.930 . S
C143 N141 1.375 . S
C143 C142 1.338 . S
C143 H147 0.931 . S
C144 N141 1.313 . S
C144 N145 1.344 . S
C144 H148 0.930 . S
N145 C142 1.377 . S
N145 C144 1.344 . S
O146 Co138 2.055 . S
O146 C150 1.253 . S
H147 C143 0.931 . S
H148 C144 0.930 . S
O149 Co138 2.039 . S
O149 C139 1.265 . S
C150 O146 1.253 . S
C150 O151 1.227 . S
O151 C150 1.227 . S
N152 Co138 2.140 . S
N152 C155 1.346 . S
N152 C156 1.345 . S
C153 C154 1.387 . S
C153 C157 1.391 . S
C154 C153 1.387 . S
C154 C155 1.369 . S
C154 H163 0.929 . S
C155 N152 1.346 . S
C155 C154 1.369 . S
C155 H158 0.928 . S
C156 N152 1.345 . S
C156 C157 1.371 . S
C156 H159 0.931 . S
C157 C153 1.391 . S
C157 C156 1.371 . S
C157 H164 0.930 . S
H158 C155 0.928 . S
H159 C156 0.931 . S
H160 C136 0.930 . S
H161 C133 0.930 . S
H162 C142 0.930 . S
H163 C154 0.929 . S
H164 C157 0.930 . S
C165 C166 1.351 . S
C165 N168 1.368 . S
C165 H170 0.931 . S
C166 C165 1.351 . S
C166 N167 1.373 . S
C166 H194 0.930 . S
N167 C166 1.373 . S
N167 C169 1.340 . S
N168 C165 1.368 . S
N168 C169 1.321 . S
N168 Co171 2.135 . S
C169 N167 1.340 . S
C169 N168 1.321 . S
C169 H193 0.930 . S
H170 C165 0.931 . S
Co171 N168 2.135 . S
Co171 N174 2.121 . S
Co171 O179 2.055 . S
Co171 O182 2.039 . S
Co171 N185 2.140 . S
C172 O173 1.227 . S
C172 O182 1.265 . S
O173 C172 1.227 . S
N174 Co171 2.121 . S
N174 C176 1.375 . S
N174 C177 1.313 . S
C175 C176 1.338 . S
C175 N178 1.377 . S
C175 H195 0.930 . S
C176 N174 1.375 . S
C176 C175 1.338 . S
C176 H180 0.931 . S
C177 N174 1.313 . S
C177 N178 1.344 . S
C177 H181 0.930 . S
N178 C175 1.377 . S
N178 C177 1.344 . S
O179 Co171 2.055 . S
O179 C183 1.253 . S
H180 C176 0.931 . S
H181 C177 0.930 . S
O182 Co171 2.039 . S
O182 C172 1.265 . S
C183 O179 1.253 . S
C183 O184 1.227 . S
O184 C183 1.227 . S
N185 Co171 2.140 . S
N185 C188 1.346 . S
N185 C189 1.345 . S
C186 C187 1.387 . S
C186 C190 1.391 . S
C187 C186 1.387 . S
C187 C188 1.369 . S
C187 H196 0.929 . S
C188 N185 1.346 . S
C188 C187 1.369 . S
C188 H191 0.928 . S
C189 N185 1.345 . S
C189 C190 1.371 . S
C189 H192 0.931 . S
C190 C186 1.391 . S
C190 C189 1.371 . S
C190 H197 0.930 . S
H191 C188 0.928 . S
H192 C189 0.931 . S
H193 C169 0.930 . S
H194 C166 0.930 . S
H195 C175 0.930 . S
H196 C187 0.929 . S
H197 C190 0.930 . S
H198 C206 0.929 . S
H199 C208 0.930 . S
H200 C210 0.935 . S
H201 C213 0.959 . S
H202 C216 0.930 . S
H203 C218 0.960 . S
H204 C218 0.960 . S
H205 C218 0.960 . S
C206 H198 0.929 . S
C206 C207 1.377 . S
C206 C208 1.384 . S
C207 C206 1.377 . S
C207 C213 1.362 1_554 S
C208 H199 0.930 . S
C208 C206 1.384 . S
C208 C209 1.372 . S
C209 C208 1.372 . S
C209 C210 1.395 1_554 S
C209 C214 1.490 . S
C210 H200 0.935 . S
C210 C209 1.395 1_556 S
C210 C213 1.385 . S
H211 C227 0.930 . S
H212 C228 0.931 . S
C213 H201 0.959 . S
C213 C207 1.362 1_556 S
C213 C210 1.385 . S
C214 C209 1.490 . S
C214 C216 1.395 . S
C214 C217 1.403 . S
H215 C221 0.930 . S
C216 H202 0.930 . S
C216 C214 1.395 . S
C216 C219 1.403 . S
C217 C214 1.403 . S
C217 C218 1.524 . S
C217 C221 1.400 . S
C218 H203 0.960 . S
C218 H204 0.960 . S
C218 H205 0.960 . S
C218 C217 1.524 . S
C219 C216 1.403 . S
C219 C220 1.392 . S
C219 C223 1.495 . S
C220 C219 1.392 . S
C220 C221 1.385 . S
C220 C222 1.478 . S
C221 H215 0.930 . S
C221 C217 1.400 . S
C221 C220 1.385 . S
C222 C220 1.478 . S
C222 C224 1.381 . S
C222 C228 1.383 1_554 S
C223 C219 1.495 . S
C223 H229 0.959 . S
C223 H230 0.982 . S
C223 H231 0.960 . S
C224 C222 1.381 . S
C224 C225 1.394 . S
C224 H232 0.930 . S
C225 C224 1.394 . S
C225 C226 1.383 . S
C225 H233 0.929 . S
C226 C225 1.383 . S
C226 C227 1.377 1_554 S
C227 H211 0.930 . S
C227 C226 1.377 1_556 S
C227 C228 1.379 . S
C228 H212 0.931 . S
C228 C222 1.383 1_556 S
C228 C227 1.379 . S
H229 C223 0.959 . S
H230 C223 0.982 . S
H231 C223 0.960 . S
H232 C224 0.930 . S
H233 C225 0.929 . S
H234 C242 0.929 . S
H235 C244 0.930 . S
H236 C246 0.930 . S
H237 C249 0.929 . S
H238 C252 0.930 . S
H239 C254 0.960 . S
H240 C254 0.960 . S
H241 C254 0.960 1_655 S
C242 H234 0.929 . S
C242 C243 1.377 . S
C242 C244 1.384 . S
C243 C242 1.377 . S
C243 C249 1.390 . S
C244 H235 0.930 . S
C244 C242 1.384 . S
C244 C245 1.372 . S
C245 C244 1.372 . S
C245 C246 1.400 . S
C245 C250 1.490 . S
C246 H236 0.930 . S
C246 C245 1.400 . S
C246 C249 1.386 . S
H247 C263 0.930 . S
H248 C264 0.931 1_655 S
C249 H237 0.929 . S
C249 C243 1.390 . S
C249 C246 1.386 . S
C250 C245 1.490 . S
C250 C252 1.395 . S
C250 C253 1.403 1_655 S
H251 C257 0.930 . S
C252 H238 0.930 . S
C252 C250 1.395 . S
C252 C255 1.403 . S
C253 C250 1.403 1_455 S
C253 C254 1.524 . S
C253 C257 1.400 . S
C254 H239 0.960 . S
C254 H240 0.960 . S
C254 H241 0.960 1_455 S
C254 C253 1.524 . S
C255 C252 1.403 . S
C255 C256 1.392 1_655 S
C255 C259 1.495 . S
C256 C255 1.392 1_455 S
C256 C257 1.385 . S
C256 C258 1.478 . S
C257 H251 0.930 . S
C257 C253 1.400 . S
C257 C256 1.385 . S
C258 C256 1.478 . S
C258 C260 1.381 . S
C258 C264 1.383 . S
C259 C255 1.495 . S
C259 H265 0.959 . S
C259 H266 0.961 . S
C259 H267 0.960 1_655 S
C260 C258 1.381 . S
C260 C261 1.394 . S
C260 H268 0.930 . S
C261 C260 1.394 . S
C261 C262 1.383 . S
C261 H269 0.929 . S
C262 C261 1.383 . S
C262 C263 1.377 . S
C263 H247 0.930 . S
C263 C262 1.377 . S
C263 C264 1.379 . S
C264 H248 0.931 1_455 S
C264 C258 1.383 . S
C264 C263 1.379 . S
H265 C259 0.959 . S
H266 C259 0.961 . S
H267 C259 0.960 1_455 S
H268 C260 0.930 . S
H269 C261 0.929 . S
H270 C278 0.929 . S
H271 C280 0.930 . S
H272 C282 0.930 . S
H273 C285 0.929 . S
H274 C288 0.930 . S
H275 C290 0.960 . S
H276 C290 0.960 . S
H277 C290 0.960 . S
C278 H270 0.929 . S
C278 C279 1.377 . S
C278 C280 1.384 . S
C279 C278 1.377 . S
C279 C285 1.390 . S
C280 H271 0.930 . S
C280 C278 1.384 . S
C280 C281 1.372 . S
C281 C280 1.372 . S
C281 C282 1.400 . S
C281 C286 1.490 . S
C282 H272 0.930 . S
C282 C281 1.400 . S
C282 C285 1.386 . S
H283 C299 0.930 . S
H284 C300 0.931 . S
C285 H273 0.929 . S
C285 C279 1.390 . S
C285 C282 1.386 . S
C286 C281 1.490 . S
C286 C288 1.395 . S
C286 C289 1.403 1_545 S
H287 C293 0.930 . S
C288 H274 0.930 . S
C288 C286 1.395 . S
C288 C291 1.403 . S
C289 C286 1.403 1_565 S
C289 C290 1.524 . S
C289 C293 1.400 . S
C290 H275 0.960 . S
C290 H276 0.960 . S
C290 H277 0.960 . S
C290 C289 1.524 . S
C291 C288 1.403 . S
C291 C292 1.392 1_545 S
C291 C295 1.495 . S
C292 C291 1.392 1_565 S
C292 C293 1.385 . S
C292 C294 1.478 . S
C293 H287 0.930 . S
C293 C289 1.400 . S
C293 C292 1.385 . S
C294 C292 1.478 . S
C294 C296 1.381 . S
C294 C300 1.383 . S
C295 C291 1.495 . S
C295 H301 0.959 . S
C295 H302 0.961 . S
C295 H303 0.960 . S
C296 C294 1.381 . S
C296 C297 1.394 . S
C296 H304 0.930 . S
C297 C296 1.394 . S
C297 C298 1.383 . S
C297 H305 0.929 . S
C298 C297 1.383 . S
C298 C299 1.377 . S
C299 H283 0.930 . S
C299 C298 1.377 . S
C299 C300 1.379 . S
C300 H284 0.931 . S
C300 C294 1.383 . S
C300 C299 1.379 . S
H301 C295 0.959 . S
H302 C295 0.961 . S
H303 C295 0.960 . S
H304 C296 0.930 . S
H305 C297 0.929 . S
H306 C314 0.929 . S
H307 C316 0.930 . S
H308 C318 0.930 . S
H309 C321 0.929 . S
H310 C324 0.930 . S
H311 C326 0.960 . S
H312 C326 0.960 . S
H313 C326 0.960 . S
C314 H306 0.929 . S
C314 C315 1.377 . S
C314 C316 1.384 . S
C315 C314 1.377 . S
C315 C321 1.390 . S
C316 H307 0.930 . S
C316 C314 1.384 . S
C316 C317 1.372 . S
C317 C316 1.372 . S
C317 C318 1.400 . S
C317 C322 1.490 . S
C318 H308 0.930 . S
C318 C317 1.400 . S
C318 C321 1.386 . S
H319 C335 0.930 . S
H320 C336 0.931 . S
C321 H309 0.929 . S
C321 C315 1.390 . S
C321 C318 1.386 . S
C322 C317 1.490 . S
C322 C324 1.395 . S
C322 C325 1.403 . S
H323 C329 0.930 . S
C324 H310 0.930 . S
C324 C322 1.395 . S
C324 C327 1.403 . S
C325 C322 1.403 . S
C325 C326 1.524 . S
C325 C329 1.400 . S
C326 H311 0.960 . S
C326 H312 0.960 . S
C326 H313 0.960 . S
C326 C325 1.524 . S
C327 C324 1.403 . S
C327 C328 1.392 . S
C327 C331 1.495 . S
C328 C327 1.392 . S
C328 C329 1.385 . S
C328 C330 1.478 . S
C329 H323 0.930 . S
C329 C325 1.400 . S
C329 C328 1.385 . S
C330 C328 1.478 . S
C330 C332 1.381 . S
C330 C336 1.383 . S
C331 C327 1.495 . S
C331 H337 0.959 . S
C331 H338 0.961 . S
C331 H339 0.960 . S
C332 C330 1.381 . S
C332 C333 1.394 . S
C332 H340 0.930 . S
C333 C332 1.394 . S
C333 C334 1.383 . S
C333 H341 0.929 . S
C334 C333 1.383 . S
C334 C335 1.377 . S
C335 H319 0.930 . S
C335 C334 1.377 . S
C335 C336 1.379 . S
C336 H320 0.931 . S
C336 C330 1.383 . S
C336 C335 1.379 . S
H337 C331 0.959 . S
H338 C331 0.961 . S
H339 C331 0.960 . S
H340 C332 0.930 . S
H341 C333 0.929 . S
H342 C350 0.929 . S
H343 C352 0.930 . S
H344 C354 0.930 . S
H345 C357 0.929 . S
H346 C360 0.930 . S
H347 C362 0.960 . S
H348 C362 0.960 . S
H349 C362 0.960 1_556 S
C350 H342 0.929 . S
C350 C351 1.377 1_554 S
C350 C352 1.384 . S
C351 C350 1.377 1_556 S
C351 C357 1.390 . S
C352 H343 0.930 . S
C352 C350 1.384 . S
C352 C353 1.372 1_554 S
C353 C352 1.372 1_556 S
C353 C354 1.400 . S
C353 C358 1.490 . S
C354 H344 0.930 . S
C354 C353 1.400 . S
C354 C357 1.386 . S
H355 C371 0.930 . S
H356 C372 0.931 . S
C357 H345 0.929 . S
C357 C351 1.390 . S
C357 C354 1.386 . S
C358 C353 1.490 . S
C358 C360 1.395 . S
C358 C361 1.403 1_656 S
H359 C365 0.932 . S
C360 H346 0.930 . S
C360 C358 1.395 . S
C360 C363 1.403 . S
C361 C358 1.403 1_454 S
C361 C362 1.524 . S
C361 C365 1.401 . S
C362 H347 0.960 . S
C362 H348 0.960 . S
C362 H349 0.960 1_554 S
C362 C361 1.524 . S
C363 C360 1.403 . S
C363 C364 1.392 1_655 S
C363 C367 1.495 . S
C364 C363 1.392 1_455 S
C364 C365 1.383 1_556 S
C364 C366 1.478 . S
C365 H359 0.932 . S
C365 C361 1.401 . S
C365 C364 1.383 1_554 S
C366 C364 1.478 . S
C366 C368 1.381 1_556 S
C366 C372 1.383 . S
C367 C363 1.495 . S
C367 H373 0.959 . S
C367 H374 0.961 . S
C367 H375 0.960 1_556 S
C368 C366 1.381 1_554 S
C368 C369 1.394 . S
C368 H376 0.945 . S
C369 C368 1.394 . S
C369 C370 1.383 1_554 S
C369 H377 0.929 . S
C370 C369 1.383 1_556 S
C370 C371 1.377 . S
C371 H355 0.930 . S
C371 C370 1.377 . S
C371 C372 1.379 . S
C372 H356 0.931 . S
C372 C366 1.383 . S
C372 C371 1.379 . S
H373 C367 0.959 . S
H374 C367 0.961 . S
H375 C367 0.960 1_554 S
H376 C368 0.945 . S
H377 C369 0.929 . S
H378 C386 0.929 . S
H379 C388 0.930 1_545 S
H380 C390 0.930 . S
H381 C393 0.929 . S
H382 C396 0.930 . S
H383 C398 0.960 . S
H384 C398 0.960 1_545 S
H385 C398 0.960 . S
C386 H378 0.929 . S
C386 C387 1.377 . S
C386 C388 1.384 . S
C387 C386 1.377 . S
C387 C393 1.390 . S
C388 H379 0.930 1_565 S
C388 C386 1.384 . S
C388 C389 1.372 . S
C389 C388 1.372 . S
C389 C390 1.400 . S
C389 C394 1.490 . S
C390 H380 0.930 . S
C390 C389 1.400 . S
C390 C393 1.386 . S
H391 C407 0.930 . S
H392 C408 0.931 1_565 S
C393 H381 0.929 . S
C393 C387 1.390 . S
C393 C390 1.386 . S
C394 C389 1.490 . S
C394 C396 1.395 . S
C394 C397 1.403 . S
H395 C401 0.930 . S
C396 H382 0.930 . S
C396 C394 1.395 . S
C396 C399 1.403 1_565 S
C397 C394 1.403 . S
C397 C398 1.524 . S
C397 C401 1.400 1_565 S
C398 H383 0.960 . S
C398 H384 0.960 1_565 S
C398 H385 0.960 . S
C398 C397 1.524 . S
C399 C396 1.403 1_545 S
C399 C400 1.392 . S
C399 C403 1.495 . S
C400 C399 1.392 . S
C400 C401 1.385 . S
C400 C402 1.478 . S
C401 H395 0.930 . S
C401 C397 1.400 1_545 S
C401 C400 1.385 . S
C402 C400 1.478 . S
C402 C404 1.381 . S
C402 C408 1.383 . S
C403 C399 1.495 . S
C403 H409 0.959 . S
C403 H410 0.963 . S
C403 H411 0.960 . S
C404 C402 1.381 . S
C404 C405 1.394 . S
C404 H412 0.930 . S
C405 C404 1.394 . S
C405 C406 1.383 . S
C405 H413 0.929 . S
C406 C405 1.383 . S
C406 C407 1.377 . S
C407 H391 0.930 . S
C407 C406 1.377 . S
C407 C408 1.379 . S
C408 H392 0.931 1_545 S
C408 C402 1.383 . S
C408 C407 1.379 . S
H409 C403 0.959 . S
H410 C403 0.963 . S
H411 C403 0.960 . S
H412 C404 0.930 . S
H413 C405 0.929 . S
H414 C422 0.929 . S
H415 C424 0.930 1_655 S
H416 C426 0.930 . S
H417 C429 0.929 . S
H418 C432 0.930 1_556 S
H419 C434 0.960 . S
H420 C434 0.960 . S
H421 C434 0.960 . S
C422 H414 0.929 . S
C422 C423 1.377 . S
C422 C424 1.384 . S
C423 C422 1.377 . S
C423 C429 1.390 . S
C424 H415 0.930 1_455 S
C424 C422 1.384 . S
C424 C425 1.372 . S
C425 C424 1.372 . S
C425 C426 1.400 . S
C425 C430 1.490 . S
C426 H416 0.930 . S
C426 C425 1.400 . S
C426 C429 1.386 . S
H427 C443 0.930 1_556 S
H428 C444 0.931 1_556 S
C429 H417 0.929 . S
C429 C423 1.390 . S
C429 C426 1.386 . S
C430 C425 1.490 . S
C430 C432 1.395 1_455 S
C430 C433 1.403 . S
H431 C437 0.930 . S
C432 H418 0.930 1_554 S
C432 C430 1.395 1_655 S
C432 C435 1.403 1_544 S
C433 C430 1.403 . S
C433 C434 1.524 . S
C433 C437 1.400 1_545 S
C434 H419 0.960 . S
C434 H420 0.960 . S
C434 H421 0.960 . S
C434 C433 1.524 . S
C435 C432 1.403 1_566 S
C435 C436 1.390 1_556 S
C435 C439 1.498 . S
C436 C435 1.390 1_554 S
C436 C437 1.385 1_655 S
C436 C438 1.478 . S
C437 H431 0.930 . S
C437 C433 1.400 1_565 S
C437 C436 1.385 1_455 S
C438 C436 1.478 . S
C438 C440 1.381 . S
C438 C444 1.383 . S
C439 C435 1.498 . S
C439 H445 0.959 . S
C439 H446 0.961 . S
C439 H447 0.960 . S
C440 C438 1.381 . S
C440 C441 1.394 . S
C440 H448 0.930 . S
C441 C440 1.394 . S
C441 C442 1.383 . S
C441 H449 0.929 . S
C442 C441 1.383 . S
C442 C443 1.377 . S
C443 H427 0.930 1_554 S
C443 C442 1.377 . S
C443 C444 1.379 . S
C444 H428 0.931 1_554 S
C444 C438 1.383 . S
C444 C443 1.379 . S
H445 C439 0.959 . S
H446 C439 0.961 . S
H447 C439 0.960 . S
H448 C440 0.930 . S
H449 C441 0.929 . S
H450 C458 0.929 . S
H451 C460 0.930 . S
H452 C462 0.930 . S
H453 C465 0.929 . S
H454 C468 0.930 . S
H455 C470 0.960 . S
H456 C470 0.960 . S
H457 C470 0.960 . S
C458 H450 0.929 . S
C458 C459 1.377 . S
C458 C460 1.384 . S
C459 C458 1.377 . S
C459 C465 1.390 . S
C460 H451 0.930 . S
C460 C458 1.384 . S
C460 C461 1.372 . S
C461 C460 1.372 . S
C461 C462 1.400 . S
C461 C466 1.490 . S
C462 H452 0.930 . S
C462 C461 1.400 . S
C462 C465 1.386 . S
H463 C479 0.930 . S
H464 C480 0.931 . S
C465 H453 0.929 . S
C465 C459 1.390 . S
C465 C462 1.386 . S
C466 C461 1.490 . S
C466 C468 1.395 1_455 S
C466 C469 1.403 1_565 S
H467 C473 0.930 . S
C468 H454 0.930 . S
C468 C466 1.395 1_655 S
C468 C471 1.403 . S
C469 C466 1.403 1_545 S
C469 C470 1.524 . S
C469 C473 1.400 . S
C470 H455 0.960 . S
C470 H456 0.960 . S
C470 H457 0.960 . S
C470 C469 1.524 . S
C471 C468 1.403 . S
C471 C472 1.392 1_565 S
C471 C475 1.495 . S
C472 C471 1.392 1_545 S
C472 C473 1.385 1_655 S
C472 C474 1.478 . S
C473 H467 0.930 . S
C473 C469 1.400 . S
C473 C472 1.385 1_455 S
C474 C472 1.478 . S
C474 C476 1.381 . S
C474 C480 1.383 . S
C475 C471 1.495 . S
C475 H481 0.959 . S
C475 H482 0.961 . S
C475 H483 0.960 . S
C476 C474 1.381 . S
C476 C477 1.394 . S
C476 H484 0.930 . S
C477 C476 1.394 . S
C477 C478 1.383 . S
C477 H485 0.929 . S
C478 C477 1.383 . S
C478 C479 1.377 . S
C479 H463 0.930 . S
C479 C478 1.377 . S
C479 C480 1.379 . S
C480 H464 0.931 . S
C480 C474 1.383 . S
C480 C479 1.379 . S
H481 C475 0.959 . S
H482 C475 0.961 . S
H483 C475 0.960 . S
H484 C476 0.930 . S
H485 C477 0.929 . S
H486 C494 0.929 . S
H487 C496 0.930 1_565 S
H488 C498 0.930 . S
H489 C501 0.929 . S
H490 C504 0.930 . S
H491 C506 0.960 . S
H492 C506 0.960 . S
H493 C506 0.960 . S
C494 H486 0.929 . S
C494 C495 1.377 . S
C494 C496 1.384 . S
C495 C494 1.377 . S
C495 C501 1.390 . S
C496 H487 0.930 1_545 S
C496 C494 1.384 . S
C496 C497 1.372 . S
C497 C496 1.372 . S
C497 C498 1.400 . S
C497 C502 1.490 . S
C498 H488 0.930 . S
C498 C497 1.400 . S
C498 C501 1.386 . S
H499 C515 0.930 . S
H500 C516 0.931 . S
C501 H489 0.929 . S
C501 C495 1.390 . S
C501 C498 1.386 . S
C502 C497 1.490 . S
C502 C504 1.395 1_545 S
C502 C505 1.403 . S
H503 C509 0.930 . S
C504 H490 0.930 . S
C504 C502 1.395 1_565 S
C504 C507 1.403 1_455 S
C505 C502 1.403 . S
C505 C506 1.524 . S
C505 C509 1.400 1_455 S
C506 H491 0.960 . S
C506 H492 0.960 . S
C506 H493 0.960 . S
C506 C505 1.524 . S
C507 C504 1.403 1_655 S
C507 C508 1.392 . S
C507 C511 1.495 . S
C508 C507 1.392 . S
C508 C509 1.385 1_565 S
C508 C510 1.478 . S
C509 H503 0.930 . S
C509 C505 1.400 1_655 S
C509 C508 1.385 1_545 S
C510 C508 1.478 . S
C510 C512 1.381 . S
C510 C516 1.383 . S
C511 C507 1.495 . S
C511 H517 0.959 . S
C511 H518 0.961 . S
C511 H519 0.960 . S
C512 C510 1.381 . S
C512 C513 1.394 . S
C512 H520 0.930 . S
C513 C512 1.394 . S
C513 C514 1.383 . S
C513 H521 0.929 . S
C514 C513 1.383 . S
C514 C515 1.377 . S
C515 H499 0.930 . S
C515 C514 1.377 . S
C515 C516 1.379 . S
C516 H500 0.931 . S
C516 C510 1.383 . S
C516 C515 1.379 . S
H517 C511 0.959 . S
H518 C511 0.961 . S
H519 C511 0.960 . S
H520 C512 0.930 . S
H521 C513 0.929 . S
H522 C530 0.929 . S
H523 C532 0.930 . S
H524 C534 0.930 . S
H525 C537 0.929 . S
H526 C540 0.930 . S
H527 C542 0.960 . S
H528 C542 0.960 . S
H529 C542 0.960 . S
C530 H522 0.929 . S
C530 C531 1.377 . S
C530 C532 1.384 . S
C531 C530 1.377 . S
C531 C537 1.390 . S
C532 H523 0.930 . S
C532 C530 1.384 . S
C532 C533 1.372 . S
C533 C532 1.372 . S
C533 C534 1.400 . S
C533 C538 1.490 . S
C534 H524 0.930 . S
C534 C533 1.400 . S
C534 C537 1.386 . S
H535 C551 0.930 . S
H536 C552 0.931 . S
C537 H525 0.929 . S
C537 C531 1.390 . S
C537 C534 1.386 . S
C538 C533 1.490 . S
C538 C540 1.395 . S
C538 C541 1.403 . S
H539 C545 0.930 . S
C540 H526 0.930 . S
C540 C538 1.395 . S
C540 C543 1.403 . S
C541 C538 1.403 . S
C541 C542 1.524 . S
C541 C545 1.400 . S
C542 H527 0.960 . S
C542 H528 0.960 . S
C542 H529 0.960 . S
C542 C541 1.524 . S
C543 C540 1.403 . S
C543 C544 1.392 . S
C543 C547 1.495 . S
C544 C543 1.392 . S
C544 C545 1.385 . S
C544 C546 1.478 . S
C545 H539 0.930 . S
C545 C541 1.400 . S
C545 C544 1.385 . S
C546 C544 1.478 . S
C546 C548 1.381 . S
C546 C552 1.383 . S
C547 C543 1.495 . S
C547 H553 0.959 . S
C547 H554 0.961 . S
C547 H555 0.960 . S
C548 C546 1.381 . S
C548 C549 1.394 . S
C548 H556 0.930 . S
C549 C548 1.394 . S
C549 C550 1.383 . S
C549 H557 0.929 . S
C550 C549 1.383 . S
C550 C551 1.377 . S
C551 H535 0.930 . S
C551 C550 1.377 . S
C551 C552 1.379 . S
C552 H536 0.931 . S
C552 C546 1.383 . S
C552 C551 1.379 . S
H553 C547 0.959 . S
H554 C547 0.961 . S
H555 C547 0.960 . S
H556 C548 0.930 . S
H557 C549 0.929 . S
H558 C566 0.929 . S
H559 C568 0.930 . S
H560 C570 0.930 . S
H561 C573 0.929 . S
H562 C576 0.930 1_655 S
H563 C578 0.960 . S
H564 C578 0.960 . S
H565 C578 0.960 . S
C566 H558 0.929 . S
C566 C567 1.377 . S
C566 C568 1.384 . S
C567 C566 1.377 . S
C567 C573 1.390 . S
C568 H559 0.930 . S
C568 C566 1.384 . S
C568 C569 1.372 . S
C569 C568 1.372 . S
C569 C570 1.400 . S
C569 C574 1.490 . S
C570 H560 0.930 . S
C570 C569 1.400 . S
C570 C573 1.386 . S
H571 C587 0.930 . S
H572 C588 0.931 1_455 S
C573 H561 0.929 . S
C573 C567 1.390 . S
C573 C570 1.386 . S
C574 C569 1.490 . S
C574 C576 1.395 . S
C574 C577 1.403 . S
H575 C581 0.930 . S
C576 H562 0.930 1_455 S
C576 C574 1.395 . S
C576 C579 1.403 1_455 S
C577 C574 1.403 . S
C577 C578 1.524 . S
C577 C581 1.400 . S
C578 H563 0.960 . S
C578 H564 0.960 . S
C578 H565 0.960 . S
C578 C577 1.524 . S
C579 C576 1.403 1_655 S
C579 C580 1.392 . S
C579 C583 1.495 . S
C580 C579 1.392 . S
C580 C581 1.385 1_655 S
C580 C582 1.478 . S
C581 H575 0.930 . S
C581 C577 1.400 . S
C581 C580 1.385 1_455 S
C582 C580 1.478 . S
C582 C584 1.381 . S
C582 C588 1.383 . S
C583 C579 1.495 . S
C583 H589 0.959 . S
C583 H590 0.961 . S
C583 H591 0.960 . S
C584 C582 1.381 . S
C584 C585 1.394 . S
C584 H592 0.930 . S
C585 C584 1.394 . S
C585 C586 1.383 . S
C585 H593 0.929 . S
C586 C585 1.383 . S
C586 C587 1.377 . S
C587 H571 0.930 . S
C587 C586 1.377 . S
C587 C588 1.379 . S
C588 H572 0.931 1_655 S
C588 C582 1.383 . S
C588 C587 1.379 . S
H589 C583 0.959 . S
H590 C583 0.961 . S
H591 C583 0.960 . S
H592 C584 0.930 . S
H593 C585 0.929 . S
H594 C602 0.929 . S
H595 C604 0.930 . S
H596 C606 0.930 . S
H597 C609 0.929 . S
H598 C612 0.932 . S
H599 C614 0.960 . S
H600 C614 0.960 . S
H601 C614 0.960 . S
C602 H594 0.929 . S
C602 C603 1.377 . S
C602 C604 1.384 . S
C603 C602 1.377 . S
C603 C609 1.390 . S
C604 H595 0.930 . S
C604 C602 1.384 . S
C604 C605 1.372 . S
C605 C604 1.372 . S
C605 C606 1.400 . S
C605 C610 1.490 . S
C606 H596 0.930 . S
C606 C605 1.400 . S
C606 C609 1.386 . S
H607 C623 0.930 . S
H608 C624 0.931 . S
C609 H597 0.929 . S
C609 C603 1.390 . S
C609 C606 1.386 . S
C610 C605 1.490 . S
C610 C612 1.385 1_545 S
C610 C613 1.403 . S
H611 C617 0.930 . S
C612 H598 0.932 . S
C612 C610 1.385 1_565 S
C612 C615 1.411 . S
C613 C610 1.403 . S
C613 C614 1.524 . S
C613 C617 1.400 . S
C614 H599 0.960 . S
C614 H600 0.960 . S
C614 H601 0.960 . S
C614 C613 1.524 . S
C615 C612 1.411 . S
C615 C616 1.392 . S
C615 C619 1.495 . S
C616 C615 1.392 . S
C616 C617 1.385 1_565 S
C616 C618 1.478 . S
C617 H611 0.930 . S
C617 C613 1.400 . S
C617 C616 1.385 1_545 S
C618 C616 1.478 . S
C618 C620 1.381 . S
C618 C624 1.383 . S
C619 C615 1.495 . S
C619 H625 0.959 . S
C619 H626 0.961 . S
C619 H627 0.960 . S
C620 C618 1.381 . S
C620 C621 1.394 . S
C620 H628 0.930 . S
C621 C620 1.394 . S
C621 C622 1.383 . S
C621 H629 0.929 . S
C622 C621 1.383 . S
C622 C623 1.377 . S
C623 H607 0.930 . S
C623 C622 1.377 . S
C623 C624 1.379 . S
C624 H608 0.931 . S
C624 C618 1.383 . S
C624 C623 1.379 . S
H625 C619 0.959 . S
H626 C619 0.961 . S
H627 C619 0.960 . S
H628 C620 0.930 . S
H629 C621 0.929 . S
H630 C638 0.929 . S
H631 C640 0.930 . S
H632 C642 0.930 . S
H633 C645 0.929 . S
H634 C648 0.930 . S
H635 C650 0.960 . S
H636 C650 0.960 . S
H637 C650 0.960 . S
C638 H630 0.929 . S
C638 C639 1.377 . S
C638 C640 1.384 . S
C639 C638 1.377 . S
C639 C645 1.390 . S
C640 H631 0.930 . S
C640 C638 1.384 . S
C640 C641 1.372 . S
C641 C640 1.372 . S
C641 C642 1.400 . S
C641 C646 1.490 . S
C642 H632 0.930 . S
C642 C641 1.400 . S
C642 C645 1.386 . S
H643 C659 0.930 . S
H644 C660 0.931 . S
C645 H633 0.929 . S
C645 C639 1.390 . S
C645 C642 1.386 . S
C646 C641 1.490 . S
C646 C648 1.395 . S
C646 C649 1.403 . S
H647 C653 0.930 . S
C648 H634 0.930 . S
C648 C646 1.395 . S
C648 C651 1.403 . S
C649 C646 1.403 . S
C649 C650 1.524 . S
C649 C653 1.400 . S
C650 H635 0.960 . S
C650 H636 0.960 . S
C650 H637 0.960 . S
C650 C649 1.524 . S
C651 C648 1.403 . S
C651 C652 1.392 . S
C651 C655 1.495 . S
C652 C651 1.392 . S
C652 C653 1.385 . S
C652 C654 1.478 . S
C653 H647 0.930 . S
C653 C649 1.400 . S
C653 C652 1.385 . S
C654 C652 1.478 . S
C654 C656 1.381 . S
C654 C660 1.383 . S
C655 C651 1.495 . S
C655 H661 0.959 . S
C655 H662 0.961 . S
C655 H663 0.960 . S
C656 C654 1.381 . S
C656 C657 1.394 . S
C656 H664 0.930 . S
C657 C656 1.394 . S
C657 C658 1.383 . S
C657 H665 0.929 . S
C658 C657 1.383 . S
C658 C659 1.377 . S
C659 H643 0.930 . S
C659 C658 1.377 . S
C659 C660 1.379 . S
C660 H644 0.931 . S
C660 C654 1.383 . S
C660 C659 1.379 . S
H661 C655 0.959 . S
H662 C655 0.961 . S
H663 C655 0.960 . S
H664 C656 0.930 . S
H665 C657 0.929 . S
H666 C674 0.929 . S
H667 C676 0.930 . S
H668 C678 0.930 . S
H669 C681 0.929 . S
H670 C684 0.930 1_455 S
H671 C686 0.960 . S
H672 C686 0.960 . S
H673 C686 0.960 . S
C674 H666 0.929 . S
C674 C675 1.377 . S
C674 C676 1.384 . S
C675 C674 1.377 . S
C675 C681 1.390 . S
C676 H667 0.930 . S
C676 C674 1.384 . S
C676 C677 1.372 . S
C677 C676 1.372 . S
C677 C678 1.400 . S
C677 C682 1.490 . S
C678 H668 0.930 . S
C678 C677 1.400 . S
C678 C681 1.386 . S
H679 C695 0.930 . S
H680 C696 0.931 . S
C681 H669 0.929 . S
C681 C675 1.390 . S
C681 C678 1.386 . S
C682 C677 1.490 . S
C682 C684 1.395 . S
C682 C685 1.403 . S
H683 C689 0.930 . S
C684 H670 0.930 1_655 S
C684 C682 1.395 . S
C684 C687 1.403 1_655 S
C685 C682 1.403 . S
C685 C686 1.524 . S
C685 C689 1.400 . S
C686 H671 0.960 . S
C686 H672 0.960 . S
C686 H673 0.960 . S
C686 C685 1.524 . S
C687 C684 1.403 1_455 S
C687 C688 1.392 . S
C687 C691 1.495 . S
C688 C687 1.392 . S
C688 C689 1.385 1_455 S
C688 C690 1.478 . S
C689 H683 0.930 . S
C689 C685 1.400 . S
C689 C688 1.385 1_655 S
C690 C688 1.478 . S
C690 C692 1.381 . S
C690 C696 1.383 . S
C691 C687 1.495 . S
C691 H697 0.959 . S
C691 H698 0.961 . S
C691 H699 0.960 . S
C692 C690 1.381 . S
C692 C693 1.394 . S
C692 H700 0.930 . S
C693 C692 1.394 . S
C693 C694 1.383 . S
C693 H701 0.929 . S
C694 C693 1.383 . S
C694 C695 1.377 . S
C695 H679 0.930 . S
C695 C694 1.377 . S
C695 C696 1.379 . S
C696 H680 0.931 . S
C696 C690 1.383 . S
C696 C695 1.379 . S
H697 C691 0.959 . S
H698 C691 0.961 . S
H699 C691 0.960 . S
H700 C692 0.930 . S
H701 C693 0.929 . S
H702 C710 0.929 . S
H703 C712 0.930 . S
H704 C714 0.930 . S
H705 C717 0.929 . S
H706 C720 0.930 . S
H707 C722 0.960 . S
H708 C722 0.960 . S
H709 C722 0.960 . S
C710 H702 0.929 . S
C710 C711 1.377 . S
C710 C712 1.384 . S
C711 C710 1.377 . S
C711 C717 1.390 . S
C712 H703 0.930 . S
C712 C710 1.384 . S
C712 C713 1.372 . S
C713 C712 1.372 . S
C713 C714 1.400 . S
C713 C718 1.490 . S
C714 H704 0.930 . S
C714 C713 1.400 . S
C714 C717 1.386 . S
H715 C731 0.930 . S
H716 C732 0.931 . S
C717 H705 0.929 . S
C717 C711 1.390 . S
C717 C714 1.386 . S
C718 C713 1.490 . S
C718 C720 1.395 1_545 S
C718 C721 1.403 . S
H719 C725 0.930 1_545 S
C720 H706 0.930 . S
C720 C718 1.395 1_565 S
C720 C723 1.403 . S
C721 C718 1.403 . S
C721 C722 1.524 . S
C721 C725 1.400 1_545 S
C722 H707 0.960 . S
C722 H708 0.960 . S
C722 H709 0.960 . S
C722 C721 1.524 . S
C723 C720 1.403 . S
C723 C724 1.392 . S
C723 C727 1.495 . S
C724 C723 1.392 . S
C724 C725 1.385 . S
C724 C726 1.478 . S
C725 H719 0.930 1_565 S
C725 C721 1.400 1_565 S
C725 C724 1.385 . S
C726 C724 1.478 . S
C726 C728 1.381 . S
C726 C732 1.383 . S
C727 C723 1.495 . S
C727 H733 0.959 . S
C727 H734 0.961 . S
C727 H735 0.960 . S
C728 C726 1.381 . S
C728 C729 1.394 . S
C728 H736 0.930 . S
C729 C728 1.394 . S
C729 C730 1.383 . S
C729 H737 0.929 . S
C730 C729 1.383 . S
C730 C731 1.377 . S
C731 H715 0.930 . S
C731 C730 1.377 . S
C731 C732 1.379 . S
C732 H716 0.931 . S
C732 C726 1.383 . S
C732 C731 1.379 . S
H733 C727 0.959 . S
H734 C727 0.961 . S
H735 C727 0.960 . S
H736 C728 0.930 . S
H737 C729 0.929 . S
C207 C18 1.610 . S
C226 C117 1.598 . S
C243 C51 1.611 . S
C262 C150 1.605 . S
C279 C183 1.610 . S
C298 C84 1.613 . S
C315 C87 0.820 . S
C334 C186 0.832 . S
C351 C120 0.824 . S
C370 C21 0.842 . S
C387 C153 0.825 . S
C406 C54 0.807 . S
C423 C7 0.461 . S
C442 C106 0.478 . S
C459 C139 0.466 . S
C478 C40 0.459 . S
C495 C172 0.466 . S
C514 C73 0.456 . S
C531 N13 1.672 . S
C550 N167 1.761 . S
C567 N2 1.765 . S
C586 N46 1.645 . S
C603 N35 1.764 . S
C622 N79 1.683 . S
C639 N68 1.765 . S
C658 N112 1.691 . S
C675 N101 1.764 . S
C694 N145 1.685 . S
C711 N178 1.671 . S
C730 N134 1.754 . S
