# Generated by pormake.
# Topology snw, (6)-cn, num edge types: 1
# Building blocks:
#     Node 0, Type 0, BuildingBlock: IZENUY_clean_sbu_0, # of connection points: 6
#     Node 1, Type 0, BuildingBlock: IZENUY_clean_sbu_0, # of connection points: 6
#     Node 2, Type 0, BuildingBlock: IZENUY_clean_sbu_0, # of connection points: 6
#     Node 3, Type 0, BuildingBlock: IZENUY_clean_sbu_0, # of connection points: 6
#     Node 4, Type 0, BuildingBlock: IZENUY_clean_sbu_0, # of connection points: 6
#     Node 5, Type 0, BuildingBlock: IZENUY_clean_sbu_0, # of connection points: 6
#     Node 6, Type 0, BuildingBlock: IZENUY_clean_sbu_0, # of connection points: 6
#     Node 7, Type 0, BuildingBlock: IZENUY_clean_sbu_0, # of connection points: 6
#     Edge 8, Type (0, 0), BuildingBlock: EZIPEK_clean_linker_0, # of connection points: 2
#     Edge 9, Type (0, 0), BuildingBlock: EZIPEK_clean_linker_0, # of connection points: 2
#     Edge 10, Type (0, 0), BuildingBlock: EZIPEK_clean_linker_0, # of connection points: 2
#     Edge 11, Type (0, 0), BuildingBlock: EZIPEK_clean_linker_0, # of connection points: 2
#     Edge 12, Type (0, 0), BuildingBlock: EZIPEK_clean_linker_0, # of connection points: 2
#     Edge 13, Type (0, 0), BuildingBlock: EZIPEK_clean_linker_0, # of connection points: 2
#     Edge 14, Type (0, 0), BuildingBlock: EZIPEK_clean_linker_0, # of connection points: 2
#     Edge 15, Type (0, 0), BuildingBlock: EZIPEK_clean_linker_0, # of connection points: 2
#     Edge 16, Type (0, 0), BuildingBlock: EZIPEK_clean_linker_0, # of connection points: 2
#     Edge 17, Type (0, 0), BuildingBlock: EZIPEK_clean_linker_0, # of connection points: 2
#     Edge 18, Type (0, 0), BuildingBlock: EZIPEK_clean_linker_0, # of connection points: 2
#     Edge 19, Type (0, 0), BuildingBlock: EZIPEK_clean_linker_0, # of connection points: 2
#     Edge 20, Type (0, 0), BuildingBlock: EZIPEK_clean_linker_0, # of connection points: 2
#     Edge 21, Type (0, 0), BuildingBlock: EZIPEK_clean_linker_0, # of connection points: 2
#     Edge 22, Type (0, 0), BuildingBlock: EZIPEK_clean_linker_0, # of connection points: 2
#     Edge 23, Type (0, 0), BuildingBlock: EZIPEK_clean_linker_0, # of connection points: 2
#     Edge 24, Type (0, 0), BuildingBlock: EZIPEK_clean_linker_0, # of connection points: 2
#     Edge 25, Type (0, 0), BuildingBlock: EZIPEK_clean_linker_0, # of connection points: 2
#     Edge 26, Type (0, 0), BuildingBlock: EZIPEK_clean_linker_0, # of connection points: 2
#     Edge 27, Type (0, 0), BuildingBlock: EZIPEK_clean_linker_0, # of connection points: 2
#     Edge 28, Type (0, 0), BuildingBlock: EZIPEK_clean_linker_0, # of connection points: 2
#     Edge 29, Type (0, 0), BuildingBlock: EZIPEK_clean_linker_0, # of connection points: 2
#     Edge 30, Type (0, 0), BuildingBlock: EZIPEK_clean_linker_0, # of connection points: 2
#     Edge 31, Type (0, 0), BuildingBlock: EZIPEK_clean_linker_0, # of connection points: 2
# Relax obj value: 0.015
# Max RMSD: 0.047
# Mean RMSD: 0.047
data_MOF--net-snw--node1-IZENUY_clean_sbu_0--edge1-EZIPEK_clean_linker_0
_symmetry_space_group_name_H-M    P1
_symmetry_Int_Tables_number       1
_symmetry_cell_setting            triclinic
loop_
_symmetry_equiv_pos_as_xyz
'x, y, z'
_cell_length_a     15.12513
_cell_length_b     15.175847
_cell_length_c     55.346262
_cell_angle_alpha  90.057547
_cell_angle_beta   90.004251
_cell_angle_gamma 89.958458
loop_
_atom_site_label
_atom_site_type_symbol
_atom_site_fract_x
_atom_site_fract_y
_atom_site_fract_z
_atom_type_partial_charge
Fe0 Fe 0.03382 0.27331 0.13785 0.0
Fe1 Fe 0.13162 0.25761 0.0891 0.0
O2 O 0.03076 0.26363 0.10573 0.0
Fe3 Fe 0.92682 0.26188 0.09051 0.0
O4 O 0.87138 0.33711 0.11171 0.0
O5 O 0.97585 0.37752 0.13692 0.0
O6 O 0.13697 0.33667 0.13919 0.0
C7 C 0.17828 0.38023 0.12339 0.0
C8 C 0.88762 0.15936 0.12994 0.0
O9 O 0.17078 0.3619 0.10132 0.0
C10 C 0.03023 0.14006 0.06319 0.0
O11 O 0.09251 0.17006 0.14116 0.0
O12 O 0.1899 0.19309 0.11223 0.0
O13 O 0.88946 0.16584 0.10723 0.0
O14 O 0.93126 0.21165 0.14312 0.0
C15 C 0.02458 0.36658 0.05953 0.0
O16 O 0.10097 0.15426 0.07474 0.0
O17 O 0.962 0.18613 0.06678 0.0
C18 C 0.16418 0.15116 0.13075 0.0
O19 O 0.09259 0.32058 0.06324 0.0
O20 O 0.95567 0.35738 0.07224 0.0
C21 C 0.90085 0.38932 0.12762 0.0
Fe22 Fe 0.03234 0.86133 0.33833 0.0
Fe23 Fe 0.02373 0.76502 0.38727 0.0
O24 O 0.02675 0.76112 0.35511 0.0
Fe25 Fe 0.02398 0.65709 0.34018 0.0
O26 O 0.09755 0.68873 0.31561 0.0
O27 O 0.13268 0.82714 0.32257 0.0
O28 O 0.10241 0.91798 0.36057 0.0
C29 C 0.14842 0.89079 0.37818 0.0
C30 C 0.91584 0.75629 0.31019 0.0
O31 O 0.13112 0.81842 0.3884 0.0
C32 C 0.90027 0.6375 0.37864 0.0
O33 O 0.93146 0.90437 0.35211 0.0
O34 O 0.96557 0.87071 0.38947 0.0
O35 O 0.92642 0.68742 0.32272 0.0
O36 O 0.96321 0.82364 0.3134 0.0
C37 C 0.13039 0.61484 0.3787 0.0
O38 O 0.91627 0.71182 0.38793 0.0
O39 O 0.94966 0.60584 0.36231 0.0
C40 C 0.91834 0.91193 0.37451 0.0
O41 O 0.08098 0.66008 0.39222 0.0
O42 O 0.12209 0.61771 0.35605 0.0
C43 C 0.14447 0.7555 0.31125 0.0
Fe44 Fe 0.63302 0.75827 0.58968 0.0
Fe45 Fe 0.42872 0.76403 0.58878 0.0
O46 O 0.52982 0.75952 0.60504 0.0
Fe47 Fe 0.52862 0.7573 0.63706 0.0
O48 O 0.6327 0.81723 0.64088 0.0
O49 O 0.6678 0.85987 0.60426 0.0
O50 O 0.59651 0.8257 0.56392 0.0
C51 C 0.52954 0.87432 0.56086 0.0
C52 C 0.6599 0.64022 0.6292 0.0
O53 O 0.46042 0.86386 0.57311 0.0
C54 C 0.37968 0.65225 0.62534 0.0
O55 O 0.60554 0.65734 0.574 0.0
O56 O 0.46867 0.69329 0.56386 0.0
O57 O 0.58321 0.65111 0.63748 0.0
O58 O 0.68902 0.69027 0.61265 0.0
C59 C 0.40496 0.88524 0.62751 0.0
O60 O 0.38596 0.66497 0.60292 0.0
O61 O 0.42471 0.69788 0.63986 0.0
C62 C 0.53657 0.64451 0.56168 0.0
O63 O 0.37345 0.83534 0.61117 0.0
O64 O 0.4743 0.86308 0.63842 0.0
C65 C 0.67116 0.87024 0.62684 0.0
Fe66 Fe 0.53684 0.35874 0.83813 0.0
Fe67 Fe 0.53419 0.27243 0.88836 0.0
O68 O 0.53554 0.26185 0.85629 0.0
Fe69 Fe 0.53486 0.15547 0.8429 0.0
O70 O 0.63294 0.17719 0.82521 0.0
O71 O 0.60501 0.31187 0.81374 0.0
O72 O 0.63899 0.39758 0.852 0.0
C73 C 0.64785 0.41102 0.87435 0.0
C74 C 0.41868 0.25517 0.81258 0.0
O75 O 0.59488 0.37716 0.88929 0.0
C76 C 0.42589 0.12263 0.88147 0.0
O77 O 0.46769 0.42337 0.85928 0.0
O78 O 0.42834 0.32793 0.88712 0.0
O79 O 0.4617 0.18607 0.81781 0.0
O80 O 0.43577 0.3282 0.82252 0.0
C81 C 0.6562 0.14194 0.88254 0.0
O82 O 0.47431 0.17003 0.89462 0.0
O83 O 0.43545 0.1219 0.85893 0.0
C84 C 0.41641 0.40005 0.87629 0.0
O85 O 0.6394 0.21694 0.89126 0.0
O86 O 0.60907 0.10808 0.86592 0.0
C87 C 0.64547 0.23962 0.81073 0.0
Fe88 Fe 0.13382 0.75581 0.9598 0.0
Fe89 Fe 0.92895 0.76107 0.95816 0.0
O90 O 0.0332 0.76228 0.94318 0.0
Fe91 Fe 0.03653 0.77111 0.91112 0.0
O92 O 0.09238 0.66563 0.90828 0.0
O93 O 0.19152 0.68998 0.93671 0.0
O94 O 0.10139 0.65326 0.97445 0.0
C95 C 0.03038 0.64025 0.98599 0.0
C96 C 0.18166 0.87638 0.92517 0.0
O97 O 0.96248 0.68629 0.98217 0.0
C98 C 0.90594 0.88979 0.92129 0.0
O99 O 0.095 0.82054 0.98539 0.0
O100 O 0.9576 0.85655 0.97655 0.0
O101 O 0.1413 0.8312 0.90959 0.0
O102 O 0.17474 0.85909 0.94732 0.0
C103 C 0.88986 0.65914 0.91864 0.0
O104 O 0.87498 0.83632 0.93668 0.0
O105 O 0.98137 0.87728 0.9122 0.0
C106 C 0.02669 0.86613 0.98922 0.0
O107 O 0.89248 0.6643 0.94137 0.0
O108 O 0.93231 0.7127 0.90566 0.0
C109 C 0.16509 0.64742 0.91834 0.0
Fe110 Fe 0.5303 0.66034 0.20658 0.0
Fe111 Fe 0.5298 0.86377 0.21033 0.0
O112 O 0.53115 0.76578 0.19253 0.0
Fe113 Fe 0.53397 0.77395 0.16045 0.0
O114 O 0.47171 0.6725 0.15457 0.0
O115 O 0.43094 0.62618 0.19046 0.0
O116 O 0.45851 0.69424 0.23181 0.0
C117 C 0.41179 0.76225 0.23562 0.0
C118 C 0.65216 0.64048 0.16766 0.0
O119 O 0.42619 0.83376 0.22469 0.0
C120 C 0.64702 0.91286 0.17525 0.0
O121 O 0.6295 0.68413 0.22375 0.0
O122 O 0.59416 0.81822 0.2354 0.0
O123 O 0.63816 0.71573 0.15885 0.0
O124 O 0.6027 0.60872 0.18396 0.0
C125 C 0.41582 0.9043 0.17115 0.0
O126 O 0.63395 0.90161 0.19753 0.0
O127 O 0.59792 0.87644 0.15972 0.0
C128 C 0.64158 0.75012 0.23711 0.0
O129 O 0.46487 0.92795 0.1885 0.0
O130 O 0.42947 0.8331 0.15995 0.0
C131 C 0.42277 0.6256 0.16778 0.0
Fe132 Fe 0.6318 0.26509 0.45758 0.0
Fe133 Fe 0.4268 0.25752 0.45966 0.0
O134 O 0.52729 0.26236 0.44278 0.0
Fe135 Fe 0.52289 0.26441 0.41062 0.0
O136 O 0.62804 0.20732 0.40552 0.0
O137 O 0.67148 0.16748 0.44165 0.0
O138 O 0.60005 0.19117 0.482 0.0
C139 C 0.53269 0.14504 0.48649 0.0
C140 C 0.65054 0.38806 0.41899 0.0
O141 O 0.46056 0.15751 0.47539 0.0
C142 C 0.37663 0.37082 0.42344 0.0
O143 O 0.60176 0.36211 0.47521 0.0
O144 O 0.46507 0.32594 0.48466 0.0
O145 O 0.57629 0.37133 0.40962 0.0
O146 O 0.68257 0.33972 0.43548 0.0
C147 C 0.39668 0.14078 0.42009 0.0
O148 O 0.38448 0.35834 0.44586 0.0
O149 O 0.41682 0.32244 0.40853 0.0
C150 C 0.53307 0.37247 0.4879 0.0
O151 O 0.36928 0.18787 0.43746 0.0
O152 O 0.46941 0.15734 0.40986 0.0
C153 C 0.67397 0.15869 0.41903 0.0
Fe154 Fe 0.0357 0.15154 0.70778 0.0
Fe155 Fe 0.03251 0.35572 0.71018 0.0
O156 O 0.03054 0.25583 0.69304 0.0
Fe157 Fe 0.02565 0.2601 0.66099 0.0
O158 O 0.92487 0.19553 0.65976 0.0
O159 O 0.9664 0.0947 0.68586 0.0
O160 O 0.93554 0.17385 0.72456 0.0
C161 C 0.91965 0.24154 0.73703 0.0
C162 C 0.14518 0.12036 0.66879 0.0
O163 O 0.966 0.31085 0.73524 0.0
C164 C 0.14044 0.39623 0.66932 0.0
O165 O 0.10458 0.18831 0.73309 0.0
O166 O 0.13666 0.32619 0.72489 0.0
O167 O 0.09322 0.16369 0.65571 0.0
O168 O 0.13658 0.12044 0.69157 0.0
C169 C 0.91435 0.40425 0.67492 0.0
O170 O 0.09661 0.4188 0.68782 0.0
O171 O 0.12739 0.32262 0.65958 0.0
C172 C 0.1516 0.2559 0.7364 0.0
O173 O 0.93002 0.39614 0.69716 0.0
O174 O 0.95679 0.35853 0.65977 0.0
C175 C 0.9166 0.11985 0.66893 0.0
C176 C 0.05256 0.41553 1.01632 0.0
C177 C 0.02805 0.43609 0.04057 0.0
C178 C 1.00079 0.58979 0.02892 0.0
C179 C 0.02599 0.56967 1.00469 0.0
N180 N 0.05095 0.4592 0.97422 0.0
N181 N 1.00765 0.54783 0.07103 0.0
C182 C 0.04596 0.4815 0.99814 0.0
C183 C 1.00927 0.52445 0.04713 0.0
N184 N 0.08545 0.33416 1.01062 0.0
N185 N 0.96575 0.67021 0.03466 0.0
H186 H 0.01889 0.50326 0.08503 0.0
H187 H 1.00527 0.61288 0.07701 0.0
H188 H 0.95992 0.72228 1.0226 0.0
H189 H 0.93516 0.68339 0.05114 0.0
H190 H 0.1155 0.31961 0.99417 0.0
H191 H 0.09018 0.28231 1.02278 0.0
H192 H 0.05418 0.39461 0.96794 0.0
H193 H 0.0423 0.5048 0.96037 0.0
C194 C 0.6919 0.72806 0.27975 0.0
C195 C 0.71263 0.74872 0.25545 0.0
C196 C 0.86654 0.77911 0.2668 0.0
C197 C 0.84543 0.7592 0.29133 0.0
N198 N 0.73293 0.74325 0.32183 0.0
N199 N 0.81473 0.80383 0.22575 0.0
C200 C 0.75666 0.74119 0.29801 0.0
C201 C 0.79871 0.77687 0.24894 0.0
N202 N 0.61052 0.69472 0.28537 0.0
N203 N 0.95148 0.79905 0.26042 0.0
H204 H 0.76832 0.79806 0.21191 0.0
H205 H 0.87194 0.83606 0.22024 0.0
H206 H 1.00182 0.81009 0.27282 0.0
H207 H 0.97391 0.80162 0.24267 0.0
H208 H 0.59461 0.6695 0.30231 0.0
H209 H 0.56098 0.68546 0.27251 0.0
H210 H 0.66773 0.73963 0.32779 0.0
H211 H 0.77767 0.75779 0.33561 0.0
C212 C 0.54663 0.59791 0.51816 0.0
C213 C 0.53763 0.57469 0.54288 0.0
C214 C 0.52036 0.41918 0.53167 0.0
C215 C 0.53097 0.44208 0.50689 0.0
N216 N 0.52964 0.5546 0.47623 0.0
N217 N 0.53652 0.46253 0.57364 0.0
C218 C 0.53792 0.5319 0.50004 0.0
C219 C 0.53024 0.4851 0.54977 0.0
N220 N 0.5691 0.68223 0.51209 0.0
N221 N 0.49612 0.33553 0.53796 0.0
H222 H 0.54279 0.50882 0.58747 0.0
H223 H 0.543 0.3979 0.57967 0.0
H224 H 0.48628 0.28519 0.5255 0.0
H225 H 0.47731 0.31755 0.55536 0.0
H226 H 0.58615 0.70171 0.49468 0.0
H227 H 0.57926 0.73135 0.52493 0.0
H228 H 0.5241 0.61928 0.47018 0.0
H229 H 0.51966 0.50829 0.46257 0.0
C230 C 0.69704 0.27727 0.76777 0.0
C231 C 0.70883 0.22884 0.78975 0.0
C232 C 0.85937 0.19083 0.77682 0.0
C233 C 0.84729 0.23768 0.75506 0.0
N234 N 0.74375 0.29519 0.72613 0.0
N235 N 0.78488 0.09926 0.80552 0.0
C236 C 0.76299 0.27242 0.74942 0.0
C237 C 0.78508 0.17361 0.79168 0.0
N238 N 0.6222 0.32549 0.76372 0.0
N239 N 0.94129 0.16126 0.78328 0.0
H240 H 0.72844 0.07294 0.81338 0.0
H241 H 0.83769 0.05503 0.80565 0.0
H242 H 0.99744 0.17185 0.77273 0.0
H243 H 0.95392 0.13332 0.80015 0.0
H244 H 0.61752 0.37188 0.74989 0.0
H245 H 0.5649 0.32019 0.77398 0.0
H246 H 0.68033 0.31147 0.72029 0.0
H247 H 0.7896 0.2895 0.71214 0.0
C248 C 0.36453 0.20726 0.77119 0.0
C249 C 0.34874 0.2513 0.79349 0.0
C250 C 0.20588 0.30353 0.7777 0.0
C251 C 0.21917 0.25417 0.75614 0.0
N252 N 0.299 0.1355 0.73676 0.0
N253 N 0.24092 0.31596 0.82028 0.0
C254 C 0.2946 0.19873 0.75424 0.0
C255 C 0.26566 0.29274 0.7974 0.0
N256 N 0.4468 0.17615 0.76552 0.0
N257 N 0.1353 0.35922 0.77973 0.0
H258 H 0.27987 0.30267 0.8354 0.0
H259 H 0.17792 0.33885 0.8246 0.0
H260 H 0.08674 0.36517 0.76649 0.0
H261 H 0.12831 0.40379 0.79394 0.0
H262 H 0.46315 0.15326 0.74832 0.0
H263 H 0.50121 0.18082 0.77692 0.0
H264 H 0.34845 0.08765 0.7362 0.0
H265 H 0.24834 0.12442 0.7245 0.0
C266 C 0.36013 0.79792 0.27773 0.0
C267 C 0.34321 0.75913 0.25484 0.0
C268 C 0.19653 0.71193 0.26893 0.0
C269 C 0.21451 0.74941 0.29215 0.0
N270 N 0.32605 0.79653 0.32039 0.0
N271 N 0.25289 0.66537 0.2299 0.0
C272 C 0.29987 0.78381 0.29703 0.0
C273 C 0.26382 0.71164 0.2509 0.0
N274 N 0.43384 0.84836 0.28118 0.0
N275 N 0.1147 0.6791 0.26353 0.0
H276 H 0.29752 0.66858 0.21565 0.0
H277 H 0.20297 0.61923 0.22715 0.0
H278 H 0.06377 0.67181 0.27592 0.0
H279 H 0.09434 0.66385 0.24606 0.0
H280 H 0.44414 0.88605 0.29668 0.0
H281 H 0.48136 0.85827 0.26786 0.0
H282 H 0.3905 0.81298 0.32527 0.0
H283 H 0.28603 0.78052 0.33508 0.0
C284 C 0.50476 0.98948 0.50013 0.0
C285 C 0.5385 0.07468 0.50541 0.0
C286 C 0.57219 0.02579 0.54696 0.0
C287 C 0.53175 0.94358 0.54193 0.0
N288 N 0.44317 0.85358 0.51541 0.0
N289 N 0.62233 0.16803 0.5329 0.0
C290 C 0.49335 0.92727 0.51901 0.0
C291 C 0.57751 0.09132 0.52855 0.0
N292 N 0.49092 0.96509 0.47665 0.0
N293 N 0.60041 0.04312 0.56996 0.0
H294 H 0.62391 0.22163 0.5213 0.0
H295 H 0.66328 0.17802 0.54774 0.0
H296 H 0.59874 0.99618 0.58362 0.0
H297 H 0.61924 0.10497 0.57621 0.0
H298 H 0.47544 0.90096 0.47143 0.0
H299 H 0.50513 1.00633 0.46211 0.0
H300 H 0.40531 0.84335 0.49993 0.0
H301 H 0.43287 0.80633 0.52876 0.0
C302 C 0.99676 0.08768 1.02053 0.0
C303 C 0.02754 0.06926 0.04441 0.0
C304 C 0.06032 0.91643 0.03219 0.0
C305 C 0.02991 0.93557 1.00832 0.0
N306 N 1.00007 0.04669 0.97833 0.0
N307 N 0.07074 0.9614 0.07416 0.0
C308 C 1.00585 0.02295 1.00215 0.0
C309 C 0.05549 0.98258 0.05047 0.0
N310 N 0.95676 0.16609 1.01514 0.0
N311 N 0.09719 0.83629 0.03737 0.0
H312 H 0.06712 1.00679 0.08824 0.0
H313 H 0.07872 0.89728 0.08043 0.0
H314 H 0.09897 0.78344 0.02547 0.0
H315 H 0.13259 0.82326 0.05309 0.0
H316 H 0.92154 0.17647 0.99921 0.0
H317 H 0.95229 0.21937 0.02684 0.0
H318 H 0.99379 0.11169 0.97255 0.0
H319 H 1.01221 1.00322 0.96411 0.0
C320 C 0.37911 0.04955 0.15209 0.0
C321 C 0.3503 0.96778 0.16157 0.0
C322 C 0.19822 1.00356 0.15005 0.0
C323 C 0.2263 0.08852 0.14251 0.0
N324 N 0.3389 0.2009 0.1453 0.0
N325 N 0.22928 0.88035 0.17648 0.0
C326 C 0.31555 0.11413 0.14608 0.0
C327 C 0.25878 0.94835 0.16255 0.0
N328 N 0.46679 0.06537 0.14824 0.0
N329 N 0.11514 0.97433 0.14478 0.0
H330 H 0.27176 0.84406 0.18749 0.0
H331 H 0.16242 0.86751 0.17935 0.0
H332 H 0.06955 1.01216 0.13526 0.0
H333 H 0.09472 0.90976 0.14792 0.0
H334 H 0.48981 0.12127 0.1393 0.0
H335 H 0.51557 0.0188 0.15171 0.0
H336 H 0.40194 0.22336 0.14978 0.0
H337 H 0.29233 0.25093 0.1435 0.0
C338 C 0.21686 0.96586 0.41441 0.0
C339 C 0.21487 0.95159 0.38902 0.0
C340 C 0.32293 0.07056 0.38396 0.0
C341 C 0.33574 0.0742 0.40938 0.0
N342 N 0.30419 1.01098 0.44862 0.0
N343 N 0.28076 0.98084 0.34997 0.0
C344 C 0.28577 0.01732 0.42454 0.0
C345 C 0.2726 1.00079 0.37391 0.0
N346 N 0.14983 0.93624 0.42884 0.0
N347 N 0.35283 0.13679 0.36936 0.0
H348 H 0.24541 0.93059 0.34169 0.0
H349 H 0.32916 1.00864 0.33894 0.0
H350 H 0.38304 0.19368 0.37585 0.0
H351 H 0.33727 0.14062 0.35104 0.0
H352 H 0.14461 0.95294 0.44706 0.0
H353 H 0.09361 0.90484 0.42226 0.0
H354 H 0.27606 0.96314 0.45972 0.0
H355 H 0.35348 0.04738 0.45701 0.0
C356 C 0.20419 0.02788 0.63384 0.0
C357 C 0.21749 0.07006 0.65663 0.0
C358 C 0.36815 1.00988 0.65808 0.0
C359 C 0.35208 0.96365 0.63593 0.0
N360 N 0.27795 0.98013 0.5976 0.0
N361 N 0.32787 0.13719 0.68201 0.0
C362 C 0.27722 0.98845 0.62216 0.0
C363 C 0.30397 0.07134 0.66649 0.0
N364 N 0.12299 0.02327 0.62308 0.0
N365 N 0.44421 0.99872 0.67101 0.0
H366 H 0.28549 0.18901 0.68646 0.0
H367 H 0.39261 0.14665 0.68793 0.0
H368 H 0.50238 0.97282 0.66403 0.0
H369 H 0.44987 0.01913 0.68894 0.0
H370 H 0.11132 0.98385 0.60796 0.0
H371 H 0.06568 0.05189 0.62974 0.0
H372 H 0.22716 1.00378 0.58662 0.0
H373 H 0.33492 0.96269 0.58815 0.0
C374 C 0.21412 0.02617 0.90805 0.0
C375 C 0.24566 0.94377 0.91668 0.0
C376 C 0.39434 0.97754 0.90151 0.0
C377 C 0.36326 0.0605 0.89314 0.0
N378 N 0.2477 0.16928 0.89049 0.0
N379 N 0.36723 0.8463 0.92546 0.0
C380 C 0.27415 0.08636 0.89699 0.0
C381 C 0.33637 0.92123 0.91462 0.0
N382 N 0.12638 0.04625 0.91032 0.0
N383 N 0.47859 0.95125 0.89616 0.0
H384 H 0.32653 0.80264 0.93478 0.0
H385 H 0.43391 0.83039 0.92699 0.0
H386 H 0.52329 0.99096 0.88695 0.0
H387 H 0.50279 0.88804 0.8992 0.0
H388 H 0.09578 0.09933 0.90188 0.0
H389 H 0.08295 1.00785 0.92044 0.0
H390 H 0.18667 0.19646 0.89491 0.0
H391 H 0.28892 0.21352 0.88151 0.0
C392 C 0.78789 1.00566 0.92779 0.0
C393 C 0.84789 0.96185 0.91193 0.0
C394 C 0.79805 0.05883 0.87934 0.0
C395 C 0.72656 0.08764 0.89367 0.0
N396 N 0.64675 0.07915 0.93142 0.0
N397 N 0.89142 0.93528 0.87019 0.0
C398 C 0.71955 0.05876 0.91793 0.0
C399 C 0.84875 0.98562 0.88703 0.0
N400 N 0.79774 0.99992 0.95225 0.0
N401 N 0.81905 0.10248 0.85863 0.0
H402 H 0.92031 0.87461 0.874 0.0
H403 H 0.88731 0.94826 0.85172 0.0
H404 H 0.78463 0.15844 0.85298 0.0
H405 H 0.87678 0.08914 0.84898 0.0
H406 H 0.76051 0.0373 0.96435 0.0
H407 H 0.84986 0.96659 0.96035 0.0
H408 H 0.63438 0.05096 0.94826 0.0
H409 H 0.59518 0.11821 0.92505 0.0
C410 C 0.76475 0.08208 0.65326 0.0
C411 C 0.85302 0.05559 0.65842 0.0
C412 C 0.81742 0.90495 0.64538 0.0
C413 C 0.73369 0.93444 0.63731 0.0
N414 N 0.62744 0.05133 0.63225 0.0
N415 N 0.96665 0.94185 0.65611 0.0
C416 C 0.70755 0.02333 0.6407 0.0
C417 C 0.88019 0.96703 0.65371 0.0
N418 N 0.73356 0.16076 0.66184 0.0
N419 N 0.83681 0.81693 0.64573 0.0
H420 H 0.01678 0.98166 0.66274 0.0
H421 H 0.99119 0.88254 0.64938 0.0
H422 H 0.79491 0.76891 0.63886 0.0
H423 H 0.89124 0.79061 0.65474 0.0
H424 H 0.66751 0.17973 0.66081 0.0
H425 H 0.77141 0.20352 0.67234 0.0
H426 H 0.60907 0.11741 0.63142 0.0
H427 H 0.5809 1.00864 0.62477 0.0
C428 C 0.87715 0.06671 0.3865 0.0
C429 C 0.85301 0.97676 0.38396 0.0
C430 C 0.71478 1.0049 0.40615 0.0
C431 C 0.73697 0.09564 0.40766 0.0
N432 N 0.83253 0.21603 0.39636 0.0
N433 N 0.74385 0.86229 0.38771 0.0
C434 C 0.81612 0.12745 0.39691 0.0
C435 C 0.77032 0.94643 0.39279 0.0
N436 N 0.95985 0.09353 0.37979 0.0
N437 N 0.64077 0.97462 0.41764 0.0
H438 H 0.78247 0.81855 0.37771 0.0
H439 H 0.68112 0.83789 0.39151 0.0
H440 H 0.59668 0.01614 0.4266 0.0
H441 H 0.62564 0.90815 0.41964 0.0
H442 H 0.98602 0.15507 0.38402 0.0
H443 H 1.00498 0.05215 0.37122 0.0
H444 H 0.88287 0.24451 0.3862 0.0
H445 H 0.79229 0.26225 0.40488 0.0
C446 C 0.78633 0.94434 0.1526 0.0
C447 C 0.71463 0.97642 0.16655 0.0
C448 C 0.75612 0.12881 0.1566 0.0
C449 C 0.82575 0.09621 0.14173 0.0
N450 N 0.89782 0.97323 0.12225 0.0
N451 N 0.63777 0.09803 0.18514 0.0
C452 C 0.8382 1.00401 0.13879 0.0
C453 C 0.70169 0.06847 0.16962 0.0
N454 N 0.80786 0.85691 0.15375 0.0
N455 N 0.73802 0.21721 0.15677 0.0
H456 H 0.59438 0.05627 0.19418 0.0
H457 H 0.6303 0.1634 0.19038 0.0
H458 H 0.77361 0.26282 0.14666 0.0
H459 H 0.68372 0.24571 0.16523 0.0
H460 H 0.86443 0.82988 0.14601 0.0
H461 H 0.77421 0.81276 0.16485 0.0
H462 H 0.9028 0.90735 0.11718 0.0
H463 H 0.9381 0.01439 0.11205 0.0
C464 C 0.77988 0.51008 0.67878 0.0
C465 C 0.85169 0.47319 0.6653 0.0
C466 C 0.78872 0.53618 0.6284 0.0
C467 C 0.72261 0.58009 0.64184 0.0
N468 N 0.67948 0.63332 0.68152 0.0
N469 N 0.94212 0.49745 0.62964 0.0
C470 C 0.72445 0.57402 0.66754 0.0
C471 C 0.86158 0.4998 0.64076 0.0
N472 N 0.76303 0.48632 0.7021 0.0
N473 N 0.78266 0.52818 0.60389 0.0
H474 H 1.0005 0.4861 0.63916 0.0
H475 H 0.95189 0.52091 0.61213 0.0
H476 H 0.72734 0.54871 0.59416 0.0
H477 H 0.82815 0.49158 0.59386 0.0
H478 H 0.70405 0.50277 0.71077 0.0
H479 H 0.80406 0.44781 0.71268 0.0
H480 H 0.68619 0.63608 0.70026 0.0
H481 H 0.64536 0.68717 0.67457 0.0
C482 C 0.85377 0.50614 0.90412 0.0
C483 C 0.82875 0.59594 0.90671 0.0
C484 C 0.6874 0.5657 0.88647 0.0
C485 C 0.71313 0.47637 0.88336 0.0
N486 N 0.82416 0.36314 0.88583 0.0
N487 N 0.72906 0.71505 0.89705 0.0
C488 C 0.79747 0.44705 0.89122 0.0
C489 C 0.74774 0.62684 0.89686 0.0
N490 N 0.93134 0.47758 0.91411 0.0
N491 N 0.60398 0.59163 0.88016 0.0
H492 H 0.76903 0.76159 0.9055 0.0
H493 H 0.677 0.74333 0.8875 0.0
H494 H 0.56004 0.55079 0.87103 0.0
H495 H 0.57637 0.65195 0.88501 0.0
H496 H 0.94963 0.41167 0.91541 0.0
H497 H 0.97646 0.52017 0.92225 0.0
H498 H 0.8874 0.33895 0.88909 0.0
H499 H 0.78452 0.31877 0.87634 0.0
C500 C 0.78351 0.54158 0.17215 0.0
C501 C 0.72125 0.58337 0.15688 0.0
C502 C 0.78931 0.51122 0.12194 0.0
C503 C 0.84142 0.45844 0.13767 0.0
N504 N 0.86867 0.40981 0.1788 0.0
N505 N 0.65382 0.5935 0.11729 0.0
C506 C 0.83368 0.46996 0.16311 0.0
C507 C 0.72115 0.56466 0.13174 0.0
N508 N 0.7964 0.57137 0.19516 0.0
N509 N 0.80601 0.51256 0.0977 0.0
H510 H 0.60056 0.63032 0.12362 0.0
H511 H 0.64625 0.57304 0.09942 0.0
H512 H 0.85661 0.47633 0.08978 0.0
H513 H 0.7758 0.55688 0.08592 0.0
H514 H 0.84667 0.54774 0.2063 0.0
H515 H 0.76407 0.62676 0.20192 0.0
H516 H 0.85718 0.41216 0.19736 0.0
H517 H 0.89944 0.3518 0.17329 0.0
C518 C 0.82339 0.56853 0.41449 0.0
C519 C 0.83022 0.58015 0.38908 0.0
C520 C 0.72244 0.46143 0.38313 0.0
C521 C 0.70745 0.45794 0.40844 0.0
N522 N 0.72949 0.52497 0.44759 0.0
N523 N 0.76911 0.5506 0.3495 0.0
C524 C 0.75331 0.51696 0.42391 0.0
C525 C 0.77423 0.53081 0.3735 0.0
N526 N 0.88683 0.60078 0.4297 0.0
N527 N 0.69291 0.39568 0.36828 0.0
H528 H 0.80501 0.6014 0.34171 0.0
H529 H 0.72234 0.52266 0.33797 0.0
H530 H 0.65949 0.34014 0.37442 0.0
H531 H 0.71068 0.39125 0.35012 0.0
H532 H 0.88855 0.58593 0.44808 0.0
H533 H 0.94349 0.6331 0.4238 0.0
H534 H 0.75509 0.57347 0.45896 0.0
H535 H 0.67747 0.48963 0.45506 0.0
C536 C 0.22153 0.41277 0.41159 0.0
C537 C 0.31199 0.43617 0.41395 0.0
C538 C 0.28459 0.5733 0.39142 0.0
C539 C 0.19335 0.55185 0.39008 0.0
N540 N 0.07198 0.45793 0.40177 0.0
N541 N 0.42772 0.54382 0.40973 0.0
C542 C 0.16096 0.47363 0.40108 0.0
C543 C 0.34299 0.51797 0.40484 0.0
N544 N 0.19402 0.33087 0.41859 0.0
N545 N 0.31539 0.64647 0.37974 0.0
H546 H 0.47143 0.50535 0.41977 0.0
H547 H 0.4527 0.60597 0.40573 0.0
H548 H 0.27394 0.69052 0.37076 0.0
H549 H 0.38216 0.66098 0.37762 0.0
H550 H 0.13204 0.30507 0.41449 0.0
H551 H 0.23522 0.28597 0.42729 0.0
H552 H 0.04314 0.40847 0.41213 0.0
H553 H 0.02579 0.49784 0.39313 0.0
C554 C 0.20804 0.52437 0.14425 0.0
C555 C 0.24106 0.44976 0.13159 0.0
C556 C 0.39258 0.48942 0.14319 0.0
C557 C 0.35971 0.56399 0.1559 0.0
N558 N 0.2391 0.66152 0.16521 0.0
N559 N 0.36563 0.3739 0.11386 0.0
C560 C 0.26805 0.58379 0.15558 0.0
C561 C 0.33364 0.43645 0.12937 0.0
N562 N 0.11898 0.53901 0.14502 0.0
N563 N 0.47969 0.46661 0.14528 0.0
H564 H 0.32533 0.33152 0.10399 0.0
H565 H 0.43217 0.36823 0.1093 0.0
H566 H 0.52485 0.50322 0.15529 0.0
H567 H 0.50587 0.40749 0.13894 0.0
H568 H 0.08851 0.58371 0.15661 0.0
H569 H 0.07503 0.50532 0.13387 0.0
H570 H 0.17481 0.68522 0.16365 0.0
H571 H 0.28171 0.70567 0.17362 0.0
C572 C 0.27301 0.52182 0.92188 0.0
C573 C 0.2262 0.58213 0.90705 0.0
C574 C 0.29755 0.51707 0.87136 0.0
C575 C 0.352 0.46452 0.88658 0.0
N576 N 0.40968 0.44299 0.92704 0.0
N577 N 0.21482 0.65257 0.86788 0.0
C578 C 0.34493 0.47408 0.91206 0.0
C579 C 0.24391 0.58408 0.8818 0.0
N580 N 0.24818 0.50819 0.94528 0.0
N581 N 0.29505 0.50257 0.84703 0.0
H582 H 0.18073 0.7066 0.87479 0.0
H583 H 0.23381 0.6609 0.84992 0.0
H584 H 0.33303 0.45487 0.83842 0.0
H585 H 0.2489 0.53257 0.83571 0.0
H586 H 0.27522 0.45847 0.95598 0.0
H587 H 0.1942 0.53959 0.95307 0.0
H588 H 0.41037 0.45562 0.94556 0.0
H589 H 0.46842 0.41538 0.92079 0.0
C590 C 0.24141 0.52899 0.67139 0.0
C591 C 0.20179 0.46073 0.65757 0.0
C592 C 0.28792 0.51093 0.62263 0.0
C593 C 0.31443 0.58783 0.63547 0.0
N594 N 0.28048 0.68213 0.66981 0.0
N595 N 0.16641 0.41132 0.61672 0.0
C596 C 0.28039 0.60087 0.65919 0.0
C597 C 0.2186 0.45846 0.63218 0.0
N598 N 0.24557 0.52485 0.696 0.0
N599 N 0.32949 0.48503 0.60192 0.0
H600 H 0.10792 0.38059 0.62187 0.0
H601 H 0.17449 0.41404 0.59802 0.0
H602 H 0.38475 0.51649 0.59492 0.0
H603 H 0.3153 0.42529 0.59342 0.0
H604 H 0.27872 0.57229 0.70622 0.0
H605 H 0.22769 0.469 0.70577 0.0
H606 H 0.25151 0.69345 0.68664 0.0
H607 H 0.29674 0.73955 0.66048 0.0
loop_
_geom_bond_atom_site_label_1
_geom_bond_atom_site_label_2
_geom_bond_distance
_geom_bond_site_symmetry_2
_ccdc_geom_bond_type
Fe0 O2 1.918 . S
Fe0 O5 1.997 1_455 S
Fe0 O6 2.002 . S
Fe0 O11 1.976 . S
Fe0 O14 1.996 1_455 S
Fe1 O2 1.918 . S
Fe1 O9 1.997 . S
Fe1 O12 1.996 . S
Fe1 O16 1.976 . S
Fe1 O19 2.002 . S
O2 Fe0 1.918 . S
O2 Fe1 1.918 . S
O2 Fe3 1.918 1_455 S
Fe3 O2 1.918 1_655 S
Fe3 O4 2.002 . S
Fe3 O13 1.976 . S
Fe3 O17 1.996 . S
Fe3 O20 1.997 . S
O4 Fe3 2.002 . S
O4 C21 1.295 . S
O5 Fe0 1.997 1_655 S
O5 C21 1.235 . S
O6 Fe0 2.002 . S
O6 C7 1.295 . S
C7 O6 1.295 . S
C7 O9 1.235 . S
C8 O13 1.287 . S
C8 O14 1.255 . S
O9 Fe1 1.997 . S
O9 C7 1.235 . S
C10 O16 1.287 . S
C10 O17 1.255 1_455 S
O11 Fe0 1.976 . S
O11 C18 1.287 . S
O12 Fe1 1.996 . S
O12 C18 1.255 . S
O13 Fe3 1.976 . S
O13 C8 1.287 . S
O14 Fe0 1.996 1_655 S
O14 C8 1.255 . S
C15 O19 1.295 . S
C15 O20 1.235 1_455 S
O16 Fe1 1.976 . S
O16 C10 1.287 . S
O17 Fe3 1.996 . S
O17 C10 1.255 1_655 S
C18 O11 1.287 . S
C18 O12 1.255 . S
O19 Fe1 2.002 . S
O19 C15 1.295 . S
O20 Fe3 1.997 . S
O20 C15 1.235 1_655 S
C21 O4 1.295 . S
C21 O5 1.235 . S
Fe22 O24 1.918 . S
Fe22 O27 1.997 . S
Fe22 O28 2.002 . S
Fe22 O33 1.976 1_455 S
Fe22 O36 1.996 1_455 S
Fe23 O24 1.918 . S
Fe23 O31 1.997 . S
Fe23 O34 1.996 1_455 S
Fe23 O38 1.976 1_455 S
Fe23 O41 2.002 . S
O24 Fe22 1.918 . S
O24 Fe23 1.918 . S
O24 Fe25 1.918 . S
Fe25 O24 1.918 . S
Fe25 O26 2.002 . S
Fe25 O35 1.976 1_455 S
Fe25 O39 1.996 1_455 S
Fe25 O42 1.997 . S
O26 Fe25 2.002 . S
O26 C43 1.295 . S
O27 Fe22 1.997 . S
O27 C43 1.235 . S
O28 Fe22 2.002 . S
O28 C29 1.295 . S
C29 O28 1.295 . S
C29 O31 1.235 . S
C30 O35 1.287 . S
C30 O36 1.255 . S
O31 Fe23 1.997 . S
O31 C29 1.235 . S
C32 O38 1.287 . S
C32 O39 1.255 . S
O33 Fe22 1.976 1_655 S
O33 C40 1.287 . S
O34 Fe23 1.996 1_655 S
O34 C40 1.255 . S
O35 Fe25 1.976 1_655 S
O35 C30 1.287 . S
O36 Fe22 1.996 1_655 S
O36 C30 1.255 . S
C37 O41 1.295 . S
C37 O42 1.235 . S
O38 Fe23 1.976 1_655 S
O38 C32 1.287 . S
O39 Fe25 1.996 1_655 S
O39 C32 1.255 . S
C40 O33 1.287 . S
C40 O34 1.255 . S
O41 Fe23 2.002 . S
O41 C37 1.295 . S
O42 Fe25 1.997 . S
O42 C37 1.235 . S
C43 O26 1.295 . S
C43 O27 1.235 . S
Fe44 O46 1.918 . S
Fe44 O49 1.997 . S
Fe44 O50 2.002 . S
Fe44 O55 1.976 . S
Fe44 O58 1.996 . S
Fe45 O46 1.918 . S
Fe45 O53 1.997 . S
Fe45 O56 1.996 . S
Fe45 O60 1.976 . S
Fe45 O63 2.002 . S
O46 Fe44 1.918 . S
O46 Fe45 1.918 . S
O46 Fe47 1.918 . S
Fe47 O46 1.918 . S
Fe47 O48 2.002 . S
Fe47 O57 1.976 . S
Fe47 O61 1.996 . S
Fe47 O64 1.997 . S
O48 Fe47 2.002 . S
O48 C65 1.295 . S
O49 Fe44 1.997 . S
O49 C65 1.235 . S
O50 Fe44 2.002 . S
O50 C51 1.295 . S
C51 O50 1.295 . S
C51 O53 1.235 . S
C52 O57 1.287 . S
C52 O58 1.255 . S
O53 Fe45 1.997 . S
O53 C51 1.235 . S
C54 O60 1.287 . S
C54 O61 1.255 . S
O55 Fe44 1.976 . S
O55 C62 1.287 . S
O56 Fe45 1.996 . S
O56 C62 1.255 . S
O57 Fe47 1.976 . S
O57 C52 1.287 . S
O58 Fe44 1.996 . S
O58 C52 1.255 . S
C59 O63 1.295 . S
C59 O64 1.235 . S
O60 Fe45 1.976 . S
O60 C54 1.287 . S
O61 Fe47 1.996 . S
O61 C54 1.255 . S
C62 O55 1.287 . S
C62 O56 1.255 . S
O63 Fe45 2.002 . S
O63 C59 1.295 . S
O64 Fe47 1.997 . S
O64 C59 1.235 . S
C65 O48 1.295 . S
C65 O49 1.235 . S
Fe66 O68 1.918 . S
Fe66 O71 1.997 . S
Fe66 O72 2.002 . S
Fe66 O77 1.976 . S
Fe66 O80 1.996 . S
Fe67 O68 1.918 . S
Fe67 O75 1.997 . S
Fe67 O78 1.996 . S
Fe67 O82 1.976 . S
Fe67 O85 2.002 . S
O68 Fe66 1.918 . S
O68 Fe67 1.918 . S
O68 Fe69 1.918 . S
Fe69 O68 1.918 . S
Fe69 O70 2.002 . S
Fe69 O79 1.976 . S
Fe69 O83 1.996 . S
Fe69 O86 1.997 . S
O70 Fe69 2.002 . S
O70 C87 1.295 . S
O71 Fe66 1.997 . S
O71 C87 1.235 . S
O72 Fe66 2.002 . S
O72 C73 1.295 . S
C73 O72 1.295 . S
C73 O75 1.235 . S
C74 O79 1.287 . S
C74 O80 1.255 . S
O75 Fe67 1.997 . S
O75 C73 1.235 . S
C76 O82 1.287 . S
C76 O83 1.255 . S
O77 Fe66 1.976 . S
O77 C84 1.287 . S
O78 Fe67 1.996 . S
O78 C84 1.255 . S
O79 Fe69 1.976 . S
O79 C74 1.287 . S
O80 Fe66 1.996 . S
O80 C74 1.255 . S
C81 O85 1.295 . S
C81 O86 1.235 . S
O82 Fe67 1.976 . S
O82 C76 1.287 . S
O83 Fe69 1.996 . S
O83 C76 1.255 . S
C84 O77 1.287 . S
C84 O78 1.255 . S
O85 Fe67 2.002 . S
O85 C81 1.295 . S
O86 Fe69 1.997 . S
O86 C81 1.235 . S
C87 O70 1.295 . S
C87 O71 1.235 . S
Fe88 O90 1.918 . S
Fe88 O93 1.997 . S
Fe88 O94 2.002 . S
Fe88 O99 1.976 . S
Fe88 O102 1.996 . S
Fe89 O90 1.918 1_655 S
Fe89 O97 1.997 . S
Fe89 O100 1.996 . S
Fe89 O104 1.976 . S
Fe89 O107 2.002 . S
O90 Fe88 1.918 . S
O90 Fe89 1.918 1_455 S
O90 Fe91 1.918 . S
Fe91 O90 1.918 . S
Fe91 O92 2.002 . S
Fe91 O101 1.976 . S
Fe91 O105 1.996 1_455 S
Fe91 O108 1.997 1_455 S
O92 Fe91 2.002 . S
O92 C109 1.295 . S
O93 Fe88 1.997 . S
O93 C109 1.235 . S
O94 Fe88 2.002 . S
O94 C95 1.295 . S
C95 O94 1.295 . S
C95 O97 1.235 1_455 S
C96 O101 1.287 . S
C96 O102 1.255 . S
O97 Fe89 1.997 . S
O97 C95 1.235 1_655 S
C98 O104 1.287 . S
C98 O105 1.255 . S
O99 Fe88 1.976 . S
O99 C106 1.287 . S
O100 Fe89 1.996 . S
O100 C106 1.255 1_655 S
O101 Fe91 1.976 . S
O101 C96 1.287 . S
O102 Fe88 1.996 . S
O102 C96 1.255 . S
C103 O107 1.295 . S
C103 O108 1.235 . S
O104 Fe89 1.976 . S
O104 C98 1.287 . S
O105 Fe91 1.996 1_655 S
O105 C98 1.255 . S
C106 O99 1.287 . S
C106 O100 1.255 1_455 S
O107 Fe89 2.002 . S
O107 C103 1.295 . S
O108 Fe91 1.997 1_655 S
O108 C103 1.235 . S
C109 O92 1.295 . S
C109 O93 1.235 . S
Fe110 O112 1.918 . S
Fe110 O115 1.997 . S
Fe110 O116 2.002 . S
Fe110 O121 1.976 . S
Fe110 O124 1.996 . S
Fe111 O112 1.918 . S
Fe111 O119 1.997 . S
Fe111 O122 1.996 . S
Fe111 O126 1.976 . S
Fe111 O129 2.002 . S
O112 Fe110 1.918 . S
O112 Fe111 1.918 . S
O112 Fe113 1.918 . S
Fe113 O112 1.918 . S
Fe113 O114 2.002 . S
Fe113 O123 1.976 . S
Fe113 O127 1.996 . S
Fe113 O130 1.997 . S
O114 Fe113 2.002 . S
O114 C131 1.295 . S
O115 Fe110 1.997 . S
O115 C131 1.235 . S
O116 Fe110 2.002 . S
O116 C117 1.295 . S
C117 O116 1.295 . S
C117 O119 1.235 . S
C118 O123 1.287 . S
C118 O124 1.255 . S
O119 Fe111 1.997 . S
O119 C117 1.235 . S
C120 O126 1.287 . S
C120 O127 1.255 . S
O121 Fe110 1.976 . S
O121 C128 1.287 . S
O122 Fe111 1.996 . S
O122 C128 1.255 . S
O123 Fe113 1.976 . S
O123 C118 1.287 . S
O124 Fe110 1.996 . S
O124 C118 1.255 . S
C125 O129 1.295 . S
C125 O130 1.235 . S
O126 Fe111 1.976 . S
O126 C120 1.287 . S
O127 Fe113 1.996 . S
O127 C120 1.255 . S
C128 O121 1.287 . S
C128 O122 1.255 . S
O129 Fe111 2.002 . S
O129 C125 1.295 . S
O130 Fe113 1.997 . S
O130 C125 1.235 . S
C131 O114 1.295 . S
C131 O115 1.235 . S
Fe132 O134 1.918 . S
Fe132 O137 1.997 . S
Fe132 O138 2.002 . S
Fe132 O143 1.976 . S
Fe132 O146 1.996 . S
Fe133 O134 1.918 . S
Fe133 O141 1.997 . S
Fe133 O144 1.996 . S
Fe133 O148 1.976 . S
Fe133 O151 2.002 . S
O134 Fe132 1.918 . S
O134 Fe133 1.918 . S
O134 Fe135 1.918 . S
Fe135 O134 1.918 . S
Fe135 O136 2.002 . S
Fe135 O145 1.976 . S
Fe135 O149 1.996 . S
Fe135 O152 1.997 . S
O136 Fe135 2.002 . S
O136 C153 1.295 . S
O137 Fe132 1.997 . S
O137 C153 1.235 . S
O138 Fe132 2.002 . S
O138 C139 1.295 . S
C139 O138 1.295 . S
C139 O141 1.235 . S
C140 O145 1.287 . S
C140 O146 1.255 . S
O141 Fe133 1.997 . S
O141 C139 1.235 . S
C142 O148 1.287 . S
C142 O149 1.255 . S
O143 Fe132 1.976 . S
O143 C150 1.287 . S
O144 Fe133 1.996 . S
O144 C150 1.255 . S
O145 Fe135 1.976 . S
O145 C140 1.287 . S
O146 Fe132 1.996 . S
O146 C140 1.255 . S
C147 O151 1.295 . S
C147 O152 1.235 . S
O148 Fe133 1.976 . S
O148 C142 1.287 . S
O149 Fe135 1.996 . S
O149 C142 1.255 . S
C150 O143 1.287 . S
C150 O144 1.255 . S
O151 Fe133 2.002 . S
O151 C147 1.295 . S
O152 Fe135 1.997 . S
O152 C147 1.235 . S
C153 O136 1.295 . S
C153 O137 1.235 . S
Fe154 O156 1.918 . S
Fe154 O159 1.997 1_455 S
Fe154 O160 2.002 1_455 S
Fe154 O165 1.976 . S
Fe154 O168 1.996 . S
Fe155 O156 1.918 . S
Fe155 O163 1.997 1_455 S
Fe155 O166 1.996 . S
Fe155 O170 1.976 . S
Fe155 O173 2.002 1_455 S
O156 Fe154 1.918 . S
O156 Fe155 1.918 . S
O156 Fe157 1.918 . S
Fe157 O156 1.918 . S
Fe157 O158 2.002 1_455 S
Fe157 O167 1.976 . S
Fe157 O171 1.996 . S
Fe157 O174 1.997 1_455 S
O158 Fe157 2.002 1_655 S
O158 C175 1.295 . S
O159 Fe154 1.997 1_655 S
O159 C175 1.235 . S
O160 Fe154 2.002 1_655 S
O160 C161 1.295 . S
C161 O160 1.295 . S
C161 O163 1.235 . S
C162 O167 1.287 . S
C162 O168 1.255 . S
O163 Fe155 1.997 1_655 S
O163 C161 1.235 . S
C164 O170 1.287 . S
C164 O171 1.255 . S
O165 Fe154 1.976 . S
O165 C172 1.287 . S
O166 Fe155 1.996 . S
O166 C172 1.255 . S
O167 Fe157 1.976 . S
O167 C162 1.287 . S
O168 Fe154 1.996 . S
O168 C162 1.255 . S
C169 O173 1.295 . S
C169 O174 1.235 . S
O170 Fe155 1.976 . S
O170 C164 1.287 . S
O171 Fe157 1.996 . S
O171 C164 1.255 . S
C172 O165 1.287 . S
C172 O166 1.255 . S
O173 Fe155 2.002 1_655 S
O173 C169 1.295 . S
O174 Fe157 1.997 1_655 S
O174 C169 1.235 . S
C175 O158 1.295 . S
C175 O159 1.235 . S
C176 C177 1.363 1_556 S
C176 C182 1.379 . S
C176 N184 1.356 1_556 S
C177 C176 1.363 1_554 S
C177 C183 1.363 1_455 S
C178 C179 1.363 1_654 S
C178 C183 1.379 . S
C178 N185 1.356 1_554 S
C179 C178 1.363 1_456 S
C179 C182 1.363 . S
N180 C182 1.356 . S
N180 H192 0.984 . S
N180 H193 0.985 . S
N181 C183 1.356 . S
N181 H186 0.984 . S
N181 H187 0.985 . S
C182 C176 1.379 . S
C182 C179 1.363 . S
C182 N180 1.356 . S
C183 C177 1.363 1_655 S
C183 C178 1.379 . S
C183 N181 1.356 . S
N184 C176 1.356 1_554 S
N184 H190 0.984 1_554 S
N184 H191 0.984 . S
N185 C178 1.356 1_556 S
N185 H188 0.984 . S
N185 H189 0.985 1_556 S
H186 N181 0.984 . S
H187 N181 0.985 . S
H188 N185 0.984 . S
H189 N185 0.985 1_554 S
H190 N184 0.984 1_556 S
H191 N184 0.984 . S
H192 N180 0.984 . S
H193 N180 0.985 . S
C194 C195 1.363 . S
C194 C200 1.379 . S
C194 N202 1.356 . S
C195 C194 1.363 . S
C195 C201 1.363 . S
C196 C197 1.363 . S
C196 C201 1.379 . S
C196 N203 1.356 . S
C197 C196 1.363 . S
C197 C200 1.363 . S
N198 C200 1.356 . S
N198 H210 0.984 . S
N198 H211 0.985 . S
N199 C201 1.356 . S
N199 H204 0.984 . S
N199 H205 0.985 . S
C200 C194 1.379 . S
C200 C197 1.363 . S
C200 N198 1.356 . S
C201 C195 1.363 . S
C201 C196 1.379 . S
C201 N199 1.356 . S
N202 C194 1.356 . S
N202 H208 0.984 . S
N202 H209 0.984 . S
N203 C196 1.356 . S
N203 H206 0.984 . S
N203 H207 0.985 . S
H204 N199 0.984 . S
H205 N199 0.985 . S
H206 N203 0.984 . S
H207 N203 0.985 . S
H208 N202 0.984 . S
H209 N202 0.984 . S
H210 N198 0.984 . S
H211 N198 0.985 . S
C212 C213 1.363 . S
C212 C218 1.379 . S
C212 N220 1.356 . S
C213 C212 1.363 . S
C213 C219 1.363 . S
C214 C215 1.363 . S
C214 C219 1.379 . S
C214 N221 1.356 . S
C215 C214 1.363 . S
C215 C218 1.363 . S
N216 C218 1.356 . S
N216 H228 0.984 . S
N216 H229 0.985 . S
N217 C219 1.356 . S
N217 H222 0.984 . S
N217 H223 0.985 . S
C218 C212 1.379 . S
C218 C215 1.363 . S
C218 N216 1.356 . S
C219 C213 1.363 . S
C219 C214 1.379 . S
C219 N217 1.356 . S
N220 C212 1.356 . S
N220 H226 0.984 . S
N220 H227 0.984 . S
N221 C214 1.356 . S
N221 H224 0.984 . S
N221 H225 0.985 . S
H222 N217 0.984 . S
H223 N217 0.985 . S
H224 N221 0.984 . S
H225 N221 0.985 . S
H226 N220 0.984 . S
H227 N220 0.984 . S
H228 N216 0.984 . S
H229 N216 0.985 . S
C230 C231 1.363 . S
C230 C236 1.379 . S
C230 N238 1.356 . S
C231 C230 1.363 . S
C231 C237 1.363 . S
C232 C233 1.363 . S
C232 C237 1.379 . S
C232 N239 1.356 . S
C233 C232 1.363 . S
C233 C236 1.363 . S
N234 C236 1.356 . S
N234 H246 0.984 . S
N234 H247 0.985 . S
N235 C237 1.356 . S
N235 H240 0.984 . S
N235 H241 0.985 . S
C236 C230 1.379 . S
C236 C233 1.363 . S
C236 N234 1.356 . S
C237 C231 1.363 . S
C237 C232 1.379 . S
C237 N235 1.356 . S
N238 C230 1.356 . S
N238 H244 0.984 . S
N238 H245 0.984 . S
N239 C232 1.356 . S
N239 H242 0.984 . S
N239 H243 0.985 . S
H240 N235 0.984 . S
H241 N235 0.985 . S
H242 N239 0.984 . S
H243 N239 0.985 . S
H244 N238 0.984 . S
H245 N238 0.984 . S
H246 N234 0.984 . S
H247 N234 0.985 . S
C248 C249 1.363 . S
C248 C254 1.379 . S
C248 N256 1.356 . S
C249 C248 1.363 . S
C249 C255 1.363 . S
C250 C251 1.363 . S
C250 C255 1.379 . S
C250 N257 1.356 . S
C251 C250 1.363 . S
C251 C254 1.363 . S
N252 C254 1.356 . S
N252 H264 0.984 . S
N252 H265 0.985 . S
N253 C255 1.356 . S
N253 H258 0.984 . S
N253 H259 0.985 . S
C254 C248 1.379 . S
C254 C251 1.363 . S
C254 N252 1.356 . S
C255 C249 1.363 . S
C255 C250 1.379 . S
C255 N253 1.356 . S
N256 C248 1.356 . S
N256 H262 0.984 . S
N256 H263 0.984 . S
N257 C250 1.356 . S
N257 H260 0.984 . S
N257 H261 0.985 . S
H258 N253 0.984 . S
H259 N253 0.985 . S
H260 N257 0.984 . S
H261 N257 0.985 . S
H262 N256 0.984 . S
H263 N256 0.984 . S
H264 N252 0.984 . S
H265 N252 0.985 . S
C266 C267 1.363 . S
C266 C272 1.379 . S
C266 N274 1.356 . S
C267 C266 1.363 . S
C267 C273 1.363 . S
C268 C269 1.363 . S
C268 C273 1.379 . S
C268 N275 1.356 . S
C269 C268 1.363 . S
C269 C272 1.363 . S
N270 C272 1.356 . S
N270 H282 0.984 . S
N270 H283 0.985 . S
N271 C273 1.356 . S
N271 H276 0.984 . S
N271 H277 0.985 . S
C272 C266 1.379 . S
C272 C269 1.363 . S
C272 N270 1.356 . S
C273 C267 1.363 . S
C273 C268 1.379 . S
C273 N271 1.356 . S
N274 C266 1.356 . S
N274 H280 0.984 . S
N274 H281 0.984 . S
N275 C268 1.356 . S
N275 H278 0.984 . S
N275 H279 0.985 . S
H276 N271 0.984 . S
H277 N271 0.985 . S
H278 N275 0.984 . S
H279 N275 0.985 . S
H280 N274 0.984 . S
H281 N274 0.984 . S
H282 N270 0.984 . S
H283 N270 0.985 . S
C284 C285 1.363 . S
C284 C290 1.379 1_545 S
C284 N292 1.356 . S
C285 C284 1.363 . S
C285 C291 1.363 . S
C286 C287 1.363 . S
C286 C291 1.379 1_565 S
C286 N293 1.356 . S
C287 C286 1.363 . S
C287 C290 1.363 . S
N288 C290 1.356 . S
N288 H300 0.984 . S
N288 H301 0.985 . S
N289 C291 1.356 . S
N289 H294 0.984 . S
N289 H295 0.985 . S
C290 C284 1.379 1_565 S
C290 C287 1.363 . S
C290 N288 1.356 . S
C291 C285 1.363 . S
C291 C286 1.379 1_545 S
C291 N289 1.356 . S
N292 C284 1.356 . S
N292 H298 0.984 . S
N292 H299 0.984 . S
N293 C286 1.356 . S
N293 H296 0.984 . S
N293 H297 0.985 . S
H294 N289 0.984 . S
H295 N289 0.985 . S
H296 N293 0.984 . S
H297 N293 0.985 . S
H298 N292 0.984 . S
H299 N292 0.984 . S
H300 N288 0.984 . S
H301 N288 0.985 . S
C302 C303 1.363 1_656 S
C302 C308 1.379 . S
C302 N310 1.356 1_556 S
C303 C302 1.363 1_454 S
C303 C309 1.363 1_545 S
C304 C305 1.363 1_554 S
C304 C309 1.379 . S
C304 N311 1.356 1_554 S
C305 C304 1.363 1_556 S
C305 C308 1.363 1_465 S
N306 C308 1.356 . S
N306 H318 0.984 . S
N306 H319 0.985 1_545 S
N307 C309 1.356 . S
N307 H312 0.984 1_565 S
N307 H313 0.985 . S
C308 C302 1.379 . S
C308 C305 1.363 1_645 S
C308 N306 1.356 . S
C309 C303 1.363 1_565 S
C309 C304 1.379 . S
C309 N307 1.356 . S
N310 C302 1.356 1_554 S
N310 H316 0.986 1_554 S
N310 H317 0.983 . S
N311 C304 1.356 1_556 S
N311 H314 0.983 . S
N311 H315 0.986 1_556 S
H312 N307 0.984 1_545 S
H313 N307 0.985 . S
H314 N311 0.983 . S
H315 N311 0.986 1_554 S
H316 N310 0.986 1_556 S
H317 N310 0.983 . S
H318 N306 0.984 . S
H319 N306 0.985 1_565 S
C320 C321 1.363 1_545 S
C320 C326 1.379 . S
C320 N328 1.356 . S
C321 C320 1.363 1_565 S
C321 C327 1.363 . S
C322 C323 1.363 1_565 S
C322 C327 1.379 . S
C322 N329 1.356 1_565 S
C323 C322 1.363 1_545 S
C323 C326 1.363 . S
N324 C326 1.356 . S
N324 H336 0.984 . S
N324 H337 0.985 . S
N325 C327 1.356 . S
N325 H330 0.984 . S
N325 H331 0.985 . S
C326 C320 1.379 . S
C326 C323 1.363 . S
C326 N324 1.356 . S
C327 C321 1.363 . S
C327 C322 1.379 . S
C327 N325 1.356 . S
N328 C320 1.356 . S
N328 H334 0.984 . S
N328 H335 0.984 1_545 S
N329 C322 1.356 1_545 S
N329 H332 0.984 . S
N329 H333 0.985 1_545 S
H330 N325 0.984 . S
H331 N325 0.985 . S
H332 N329 0.984 . S
H333 N329 0.985 1_565 S
H334 N328 0.984 . S
H335 N328 0.984 1_565 S
H336 N324 0.984 . S
H337 N324 0.985 . S
C338 C339 1.363 . S
C338 C344 1.379 1_565 S
C338 N346 1.356 . S
C339 C338 1.363 . S
C339 C345 1.363 . S
C340 C341 1.363 . S
C340 C345 1.379 1_545 S
C340 N347 1.356 . S
C341 C340 1.363 . S
C341 C344 1.363 . S
N342 C344 1.356 . S
N342 H354 0.984 . S
N342 H355 0.985 . S
N343 C345 1.356 . S
N343 H348 0.984 . S
N343 H349 0.985 . S
C344 C338 1.379 1_545 S
C344 C341 1.363 . S
C344 N342 1.356 . S
C345 C339 1.363 . S
C345 C340 1.379 1_565 S
C345 N343 1.356 . S
N346 C338 1.356 . S
N346 H352 0.984 . S
N346 H353 0.984 . S
N347 C340 1.356 . S
N347 H350 0.984 . S
N347 H351 0.985 . S
H348 N343 0.984 . S
H349 N343 0.985 . S
H350 N347 0.984 . S
H351 N347 0.985 . S
H352 N346 0.984 . S
H353 N346 0.984 . S
H354 N342 0.984 . S
H355 N342 0.985 . S
C356 C357 1.363 . S
C356 C362 1.379 1_545 S
C356 N364 1.356 . S
C357 C356 1.363 . S
C357 C363 1.363 . S
C358 C359 1.363 . S
C358 C363 1.379 1_565 S
C358 N365 1.356 . S
C359 C358 1.363 . S
C359 C362 1.363 . S
N360 C362 1.356 . S
N360 H372 0.984 . S
N360 H373 0.985 . S
N361 C363 1.356 . S
N361 H366 0.984 . S
N361 H367 0.985 . S
C362 C356 1.379 1_565 S
C362 C359 1.363 . S
C362 N360 1.356 . S
C363 C357 1.363 . S
C363 C358 1.379 1_545 S
C363 N361 1.356 . S
N364 C356 1.356 . S
N364 H370 0.984 . S
N364 H371 0.984 . S
N365 C358 1.356 . S
N365 H368 0.984 . S
N365 H369 0.985 . S
H366 N361 0.984 . S
H367 N361 0.985 . S
H368 N365 0.984 . S
H369 N365 0.985 . S
H370 N364 0.984 . S
H371 N364 0.984 . S
H372 N360 0.984 . S
H373 N360 0.985 . S
C374 C375 1.363 . S
C374 C380 1.379 1_565 S
C374 N382 1.356 . S
C375 C374 1.363 . S
C375 C381 1.363 . S
C376 C377 1.363 1_565 S
C376 C381 1.379 . S
C376 N383 1.356 1_565 S
C377 C376 1.363 1_545 S
C377 C380 1.363 . S
N378 C380 1.356 . S
N378 H390 0.984 . S
N378 H391 0.985 . S
N379 C381 1.356 . S
N379 H384 0.984 . S
N379 H385 0.985 . S
C380 C374 1.379 1_545 S
C380 C377 1.363 . S
C380 N378 1.356 . S
C381 C375 1.363 . S
C381 C376 1.379 . S
C381 N379 1.356 . S
N382 C374 1.356 . S
N382 H388 0.984 . S
N382 H389 0.984 . S
N383 C376 1.356 1_545 S
N383 H386 0.984 . S
N383 H387 0.985 1_545 S
H384 N379 0.984 . S
H385 N379 0.985 . S
H386 N383 0.984 . S
H387 N383 0.985 1_565 S
H388 N382 0.984 . S
H389 N382 0.984 . S
H390 N378 0.984 . S
H391 N378 0.985 . S
C392 C393 1.363 . S
C392 C398 1.379 1_565 S
C392 N400 1.356 . S
C393 C392 1.363 . S
C393 C399 1.363 . S
C394 C395 1.363 . S
C394 C399 1.379 1_545 S
C394 N401 1.356 . S
C395 C394 1.363 . S
C395 C398 1.363 . S
N396 C398 1.356 . S
N396 H408 0.984 . S
N396 H409 0.985 . S
N397 C399 1.356 . S
N397 H402 0.984 . S
N397 H403 0.985 . S
C398 C392 1.379 1_545 S
C398 C395 1.363 . S
C398 N396 1.356 . S
C399 C393 1.363 . S
C399 C394 1.379 1_565 S
C399 N397 1.356 . S
N400 C392 1.356 . S
N400 H406 0.984 . S
N400 H407 0.984 . S
N401 C394 1.356 . S
N401 H404 0.984 . S
N401 H405 0.985 . S
H402 N397 0.984 . S
H403 N397 0.985 . S
H404 N401 0.984 . S
H405 N401 0.985 . S
H406 N400 0.984 . S
H407 N400 0.984 . S
H408 N396 0.984 . S
H409 N396 0.985 . S
C410 C411 1.363 . S
C410 C416 1.379 . S
C410 N418 1.356 . S
C411 C410 1.363 . S
C411 C417 1.363 1_545 S
C412 C413 1.363 . S
C412 C417 1.379 . S
C412 N419 1.356 . S
C413 C412 1.363 . S
C413 C416 1.363 1_565 S
N414 C416 1.356 . S
N414 H426 0.984 . S
N414 H427 0.985 1_545 S
N415 C417 1.356 . S
N415 H420 0.984 1_565 S
N415 H421 0.985 . S
C416 C410 1.379 . S
C416 C413 1.363 1_545 S
C416 N414 1.356 . S
C417 C411 1.363 1_565 S
C417 C412 1.379 . S
C417 N415 1.356 . S
N418 C410 1.356 . S
N418 H424 0.984 . S
N418 H425 0.984 . S
N419 C412 1.356 . S
N419 H422 0.984 . S
N419 H423 0.985 . S
H420 N415 0.984 1_545 S
H421 N415 0.985 . S
H422 N419 0.984 . S
H423 N419 0.985 . S
H424 N418 0.984 . S
H425 N418 0.984 . S
H426 N414 0.984 . S
H427 N414 0.985 1_565 S
C428 C429 1.363 1_545 S
C428 C434 1.379 . S
C428 N436 1.356 . S
C429 C428 1.363 1_565 S
C429 C435 1.363 . S
C430 C431 1.363 1_565 S
C430 C435 1.379 . S
C430 N437 1.356 . S
C431 C430 1.363 1_545 S
C431 C434 1.363 . S
N432 C434 1.356 . S
N432 H444 0.984 . S
N432 H445 0.985 . S
N433 C435 1.356 . S
N433 H438 0.984 . S
N433 H439 0.985 . S
C434 C428 1.379 . S
C434 C431 1.363 . S
C434 N432 1.356 . S
C435 C429 1.363 . S
C435 C430 1.379 . S
C435 N433 1.356 . S
N436 C428 1.356 . S
N436 H442 0.984 . S
N436 H443 0.984 1_545 S
N437 C430 1.356 . S
N437 H440 0.984 1_565 S
N437 H441 0.985 . S
H438 N433 0.984 . S
H439 N433 0.985 . S
H440 N437 0.984 1_545 S
H441 N437 0.985 . S
H442 N436 0.984 . S
H443 N436 0.984 1_565 S
H444 N432 0.984 . S
H445 N432 0.985 . S
C446 C447 1.363 . S
C446 C452 1.379 . S
C446 N454 1.356 . S
C447 C446 1.363 . S
C447 C453 1.363 1_565 S
C448 C449 1.363 . S
C448 C453 1.379 . S
C448 N455 1.356 . S
C449 C448 1.363 . S
C449 C452 1.363 1_545 S
N450 C452 1.356 . S
N450 H462 0.984 . S
N450 H463 0.985 1_565 S
N451 C453 1.356 . S
N451 H456 0.984 1_545 S
N451 H457 0.985 . S
C452 C446 1.379 . S
C452 C449 1.363 1_565 S
C452 N450 1.356 . S
C453 C447 1.363 1_545 S
C453 C448 1.379 . S
C453 N451 1.356 . S
N454 C446 1.356 . S
N454 H460 0.984 . S
N454 H461 0.984 . S
N455 C448 1.356 . S
N455 H458 0.984 . S
N455 H459 0.985 . S
H456 N451 0.984 1_565 S
H457 N451 0.985 . S
H458 N455 0.984 . S
H459 N455 0.985 . S
H460 N454 0.984 . S
H461 N454 0.984 . S
H462 N450 0.984 . S
H463 N450 0.985 1_545 S
C464 C465 1.363 . S
C464 C470 1.379 . S
C464 N472 1.356 . S
C465 C464 1.363 . S
C465 C471 1.363 . S
C466 C467 1.363 . S
C466 C471 1.379 . S
C466 N473 1.356 . S
C467 C466 1.363 . S
C467 C470 1.363 . S
N468 C470 1.356 . S
N468 H480 0.984 . S
N468 H481 0.985 . S
N469 C471 1.356 . S
N469 H474 0.984 . S
N469 H475 0.985 . S
C470 C464 1.379 . S
C470 C467 1.363 . S
C470 N468 1.356 . S
C471 C465 1.363 . S
C471 C466 1.379 . S
C471 N469 1.356 . S
N472 C464 1.356 . S
N472 H478 0.984 . S
N472 H479 0.984 . S
N473 C466 1.356 . S
N473 H476 0.984 . S
N473 H477 0.985 . S
H474 N469 0.984 . S
H475 N469 0.985 . S
H476 N473 0.984 . S
H477 N473 0.985 . S
H478 N472 0.984 . S
H479 N472 0.984 . S
H480 N468 0.984 . S
H481 N468 0.985 . S
C482 C483 1.363 . S
C482 C488 1.379 . S
C482 N490 1.356 . S
C483 C482 1.363 . S
C483 C489 1.363 . S
C484 C485 1.363 . S
C484 C489 1.379 . S
C484 N491 1.356 . S
C485 C484 1.363 . S
C485 C488 1.363 . S
N486 C488 1.356 . S
N486 H498 0.984 . S
N486 H499 0.985 . S
N487 C489 1.356 . S
N487 H492 0.984 . S
N487 H493 0.985 . S
C488 C482 1.379 . S
C488 C485 1.363 . S
C488 N486 1.356 . S
C489 C483 1.363 . S
C489 C484 1.379 . S
C489 N487 1.356 . S
N490 C482 1.356 . S
N490 H496 0.984 . S
N490 H497 0.984 . S
N491 C484 1.356 . S
N491 H494 0.984 . S
N491 H495 0.985 . S
H492 N487 0.984 . S
H493 N487 0.985 . S
H494 N491 0.984 . S
H495 N491 0.985 . S
H496 N490 0.984 . S
H497 N490 0.984 . S
H498 N486 0.984 . S
H499 N486 0.985 . S
C500 C501 1.363 . S
C500 C506 1.379 . S
C500 N508 1.356 . S
C501 C500 1.363 . S
C501 C507 1.363 . S
C502 C503 1.363 . S
C502 C507 1.379 . S
C502 N509 1.356 . S
C503 C502 1.363 . S
C503 C506 1.363 . S
N504 C506 1.356 . S
N504 H516 0.984 . S
N504 H517 0.985 . S
N505 C507 1.356 . S
N505 H510 0.984 . S
N505 H511 0.985 . S
C506 C500 1.379 . S
C506 C503 1.363 . S
C506 N504 1.356 . S
C507 C501 1.363 . S
C507 C502 1.379 . S
C507 N505 1.356 . S
N508 C500 1.356 . S
N508 H514 0.984 . S
N508 H515 0.984 . S
N509 C502 1.356 . S
N509 H512 0.984 . S
N509 H513 0.985 . S
H510 N505 0.984 . S
H511 N505 0.985 . S
H512 N509 0.984 . S
H513 N509 0.985 . S
H514 N508 0.984 . S
H515 N508 0.984 . S
H516 N504 0.984 . S
H517 N504 0.985 . S
C518 C519 1.363 . S
C518 C524 1.379 . S
C518 N526 1.356 . S
C519 C518 1.363 . S
C519 C525 1.363 . S
C520 C521 1.363 . S
C520 C525 1.379 . S
C520 N527 1.356 . S
C521 C520 1.363 . S
C521 C524 1.363 . S
N522 C524 1.356 . S
N522 H534 0.984 . S
N522 H535 0.985 . S
N523 C525 1.356 . S
N523 H528 0.984 . S
N523 H529 0.985 . S
C524 C518 1.379 . S
C524 C521 1.363 . S
C524 N522 1.356 . S
C525 C519 1.363 . S
C525 C520 1.379 . S
C525 N523 1.356 . S
N526 C518 1.356 . S
N526 H532 0.984 . S
N526 H533 0.984 . S
N527 C520 1.356 . S
N527 H530 0.984 . S
N527 H531 0.985 . S
H528 N523 0.984 . S
H529 N523 0.985 . S
H530 N527 0.984 . S
H531 N527 0.985 . S
H532 N526 0.984 . S
H533 N526 0.984 . S
H534 N522 0.984 . S
H535 N522 0.985 . S
C536 C537 1.363 . S
C536 C542 1.379 . S
C536 N544 1.356 . S
C537 C536 1.363 . S
C537 C543 1.363 . S
C538 C539 1.363 . S
C538 C543 1.379 . S
C538 N545 1.356 . S
C539 C538 1.363 . S
C539 C542 1.363 . S
N540 C542 1.356 . S
N540 H552 0.984 . S
N540 H553 0.985 . S
N541 C543 1.356 . S
N541 H546 0.984 . S
N541 H547 0.985 . S
C542 C536 1.379 . S
C542 C539 1.363 . S
C542 N540 1.356 . S
C543 C537 1.363 . S
C543 C538 1.379 . S
C543 N541 1.356 . S
N544 C536 1.356 . S
N544 H550 0.984 . S
N544 H551 0.984 . S
N545 C538 1.356 . S
N545 H548 0.984 . S
N545 H549 0.985 . S
H546 N541 0.984 . S
H547 N541 0.985 . S
H548 N545 0.984 . S
H549 N545 0.985 . S
H550 N544 0.984 . S
H551 N544 0.984 . S
H552 N540 0.984 . S
H553 N540 0.985 . S
C554 C555 1.363 . S
C554 C560 1.379 . S
C554 N562 1.356 . S
C555 C554 1.363 . S
C555 C561 1.363 . S
C556 C557 1.363 . S
C556 C561 1.379 . S
C556 N563 1.356 . S
C557 C556 1.363 . S
C557 C560 1.363 . S
N558 C560 1.356 . S
N558 H570 0.984 . S
N558 H571 0.985 . S
N559 C561 1.356 . S
N559 H564 0.984 . S
N559 H565 0.985 . S
C560 C554 1.379 . S
C560 C557 1.363 . S
C560 N558 1.356 . S
C561 C555 1.363 . S
C561 C556 1.379 . S
C561 N559 1.356 . S
N562 C554 1.356 . S
N562 H568 0.984 . S
N562 H569 0.984 . S
N563 C556 1.356 . S
N563 H566 0.984 . S
N563 H567 0.985 . S
H564 N559 0.984 . S
H565 N559 0.985 . S
H566 N563 0.984 . S
H567 N563 0.985 . S
H568 N562 0.984 . S
H569 N562 0.984 . S
H570 N558 0.984 . S
H571 N558 0.985 . S
C572 C573 1.363 . S
C572 C578 1.379 . S
C572 N580 1.356 . S
C573 C572 1.363 . S
C573 C579 1.363 . S
C574 C575 1.363 . S
C574 C579 1.379 . S
C574 N581 1.356 . S
C575 C574 1.363 . S
C575 C578 1.363 . S
N576 C578 1.356 . S
N576 H588 0.984 . S
N576 H589 0.985 . S
N577 C579 1.356 . S
N577 H582 0.984 . S
N577 H583 0.985 . S
C578 C572 1.379 . S
C578 C575 1.363 . S
C578 N576 1.356 . S
C579 C573 1.363 . S
C579 C574 1.379 . S
C579 N577 1.356 . S
N580 C572 1.356 . S
N580 H586 0.984 . S
N580 H587 0.984 . S
N581 C574 1.356 . S
N581 H584 0.984 . S
N581 H585 0.985 . S
H582 N577 0.984 . S
H583 N577 0.985 . S
H584 N581 0.984 . S
H585 N581 0.985 . S
H586 N580 0.984 . S
H587 N580 0.984 . S
H588 N576 0.984 . S
H589 N576 0.985 . S
C590 C591 1.363 . S
C590 C596 1.379 . S
C590 N598 1.356 . S
C591 C590 1.363 . S
C591 C597 1.363 . S
C592 C593 1.363 . S
C592 C597 1.379 . S
C592 N599 1.356 . S
C593 C592 1.363 . S
C593 C596 1.363 . S
N594 C596 1.356 . S
N594 H606 0.984 . S
N594 H607 0.985 . S
N595 C597 1.356 . S
N595 H600 0.984 . S
N595 H601 0.985 . S
C596 C590 1.379 . S
C596 C593 1.363 . S
C596 N594 1.356 . S
C597 C591 1.363 . S
C597 C592 1.379 . S
C597 N595 1.356 . S
N598 C590 1.356 . S
N598 H604 0.984 . S
N598 H605 0.984 . S
N599 C592 1.356 . S
N599 H602 0.984 . S
N599 H603 0.985 . S
H600 N595 0.984 . S
H601 N595 0.985 . S
H602 N599 0.984 . S
H603 N599 0.985 . S
H604 N598 0.984 . S
H605 N598 0.984 . S
H606 N594 0.984 . S
H607 N594 0.985 . S
C177 C15 1.603 . S
C179 C95 1.603 . S
C195 C128 1.524 . S
C197 C30 1.524 . S
C213 C62 1.524 . S
C215 C150 1.524 . S
C231 C87 1.603 . S
C233 C161 1.603 . S
C249 C74 1.524 . S
C251 C172 1.524 . S
C267 C117 1.603 . S
C269 C43 1.603 . S
C285 C139 1.603 . S
C287 C51 1.603 . S
C303 C10 1.524 . S
C305 C106 1.524 . S
C321 C125 1.417 . S
C323 C18 1.427 . S
C339 C29 1.468 . S
C341 C147 1.468 . S
C357 C162 1.427 . S
C359 C59 1.417 . S
C375 C96 1.376 . S
C377 C76 1.376 . S
C393 C98 1.425 . S
C395 C81 1.416 . S
C411 C175 1.466 . S
C413 C65 1.466 . S
C429 C40 1.425 . S
C431 C153 1.416 . S
C447 C120 1.374 . S
C449 C8 1.374 . S
C465 C169 1.417 . S
C467 C52 1.427 . S
C483 C103 1.468 . S
C485 C73 1.468 . S
C501 C118 1.427 . S
C503 C21 1.417 . S
C519 C32 1.376 . S
C521 C140 1.376 . S
C537 C142 1.425 . S
C539 C37 1.416 . S
C555 C7 1.466 . S
C557 C131 1.466 . S
C573 C109 1.416 . S
C575 C84 1.425 . S
C591 C164 1.373 . S
C593 C54 1.373 . S
