# Generated by pormake.
# Topology vbc, (5)-cn, num edge types: 1
# Building blocks:
#     Node 0, Type 0, BuildingBlock: BEQFEK_clean_sbu_0, # of connection points: 5
#     Node 1, Type 0, BuildingBlock: BEQFEK_clean_sbu_0, # of connection points: 5
#     Node 2, Type 0, BuildingBlock: BEQFEK_clean_sbu_0, # of connection points: 5
#     Node 3, Type 0, BuildingBlock: BEQFEK_clean_sbu_0, # of connection points: 5
#     Node 4, Type 0, BuildingBlock: BEQFEK_clean_sbu_0, # of connection points: 5
#     Node 5, Type 0, BuildingBlock: BEQFEK_clean_sbu_0, # of connection points: 5
#     Node 6, Type 0, BuildingBlock: BEQFEK_clean_sbu_0, # of connection points: 5
#     Node 7, Type 0, BuildingBlock: BEQFEK_clean_sbu_0, # of connection points: 5
#     Node 8, Type 0, BuildingBlock: BEQFEK_clean_sbu_0, # of connection points: 5
#     Node 9, Type 0, BuildingBlock: BEQFEK_clean_sbu_0, # of connection points: 5
#     Node 10, Type 0, BuildingBlock: BEQFEK_clean_sbu_0, # of connection points: 5
#     Node 11, Type 0, BuildingBlock: BEQFEK_clean_sbu_0, # of connection points: 5
#     Node 12, Type 0, BuildingBlock: BEQFEK_clean_sbu_0, # of connection points: 5
#     Node 13, Type 0, BuildingBlock: BEQFEK_clean_sbu_0, # of connection points: 5
#     Node 14, Type 0, BuildingBlock: BEQFEK_clean_sbu_0, # of connection points: 5
#     Node 15, Type 0, BuildingBlock: BEQFEK_clean_sbu_0, # of connection points: 5
#     Node 16, Type 0, BuildingBlock: BEQFEK_clean_sbu_0, # of connection points: 5
#     Node 17, Type 0, BuildingBlock: BEQFEK_clean_sbu_0, # of connection points: 5
#     Node 18, Type 0, BuildingBlock: BEQFEK_clean_sbu_0, # of connection points: 5
#     Node 19, Type 0, BuildingBlock: BEQFEK_clean_sbu_0, # of connection points: 5
#     Node 20, Type 0, BuildingBlock: BEQFEK_clean_sbu_0, # of connection points: 5
#     Node 21, Type 0, BuildingBlock: BEQFEK_clean_sbu_0, # of connection points: 5
#     Node 22, Type 0, BuildingBlock: BEQFEK_clean_sbu_0, # of connection points: 5
#     Node 23, Type 0, BuildingBlock: BEQFEK_clean_sbu_0, # of connection points: 5
#     Node 24, Type 0, BuildingBlock: BEQFEK_clean_sbu_0, # of connection points: 5
#     Node 25, Type 0, BuildingBlock: BEQFEK_clean_sbu_0, # of connection points: 5
#     Node 26, Type 0, BuildingBlock: BEQFEK_clean_sbu_0, # of connection points: 5
#     Node 27, Type 0, BuildingBlock: BEQFEK_clean_sbu_0, # of connection points: 5
#     Node 28, Type 0, BuildingBlock: BEQFEK_clean_sbu_0, # of connection points: 5
#     Node 29, Type 0, BuildingBlock: BEQFEK_clean_sbu_0, # of connection points: 5
#     Node 30, Type 0, BuildingBlock: BEQFEK_clean_sbu_0, # of connection points: 5
#     Node 31, Type 0, BuildingBlock: BEQFEK_clean_sbu_0, # of connection points: 5
#     Edge 32, Type (0, 0), BuildingBlock: XIVTED_clean_linker_0, # of connection points: 2
#     Edge 33, Type (0, 0), BuildingBlock: XIVTED_clean_linker_0, # of connection points: 2
#     Edge 34, Type (0, 0), BuildingBlock: XIVTED_clean_linker_0, # of connection points: 2
#     Edge 35, Type (0, 0), BuildingBlock: XIVTED_clean_linker_0, # of connection points: 2
#     Edge 36, Type (0, 0), BuildingBlock: XIVTED_clean_linker_0, # of connection points: 2
#     Edge 37, Type (0, 0), BuildingBlock: XIVTED_clean_linker_0, # of connection points: 2
#     Edge 38, Type (0, 0), BuildingBlock: XIVTED_clean_linker_0, # of connection points: 2
#     Edge 39, Type (0, 0), BuildingBlock: XIVTED_clean_linker_0, # of connection points: 2
#     Edge 40, Type (0, 0), BuildingBlock: XIVTED_clean_linker_0, # of connection points: 2
#     Edge 41, Type (0, 0), BuildingBlock: XIVTED_clean_linker_0, # of connection points: 2
#     Edge 42, Type (0, 0), BuildingBlock: XIVTED_clean_linker_0, # of connection points: 2
#     Edge 43, Type (0, 0), BuildingBlock: XIVTED_clean_linker_0, # of connection points: 2
#     Edge 44, Type (0, 0), BuildingBlock: XIVTED_clean_linker_0, # of connection points: 2
#     Edge 45, Type (0, 0), BuildingBlock: XIVTED_clean_linker_0, # of connection points: 2
#     Edge 46, Type (0, 0), BuildingBlock: XIVTED_clean_linker_0, # of connection points: 2
#     Edge 47, Type (0, 0), BuildingBlock: XIVTED_clean_linker_0, # of connection points: 2
#     Edge 48, Type (0, 0), BuildingBlock: XIVTED_clean_linker_0, # of connection points: 2
#     Edge 49, Type (0, 0), BuildingBlock: XIVTED_clean_linker_0, # of connection points: 2
#     Edge 50, Type (0, 0), BuildingBlock: XIVTED_clean_linker_0, # of connection points: 2
#     Edge 51, Type (0, 0), BuildingBlock: XIVTED_clean_linker_0, # of connection points: 2
#     Edge 52, Type (0, 0), BuildingBlock: XIVTED_clean_linker_0, # of connection points: 2
#     Edge 53, Type (0, 0), BuildingBlock: XIVTED_clean_linker_0, # of connection points: 2
#     Edge 54, Type (0, 0), BuildingBlock: XIVTED_clean_linker_0, # of connection points: 2
#     Edge 55, Type (0, 0), BuildingBlock: XIVTED_clean_linker_0, # of connection points: 2
#     Edge 56, Type (0, 0), BuildingBlock: XIVTED_clean_linker_0, # of connection points: 2
#     Edge 57, Type (0, 0), BuildingBlock: XIVTED_clean_linker_0, # of connection points: 2
#     Edge 58, Type (0, 0), BuildingBlock: XIVTED_clean_linker_0, # of connection points: 2
#     Edge 59, Type (0, 0), BuildingBlock: XIVTED_clean_linker_0, # of connection points: 2
#     Edge 60, Type (0, 0), BuildingBlock: XIVTED_clean_linker_0, # of connection points: 2
#     Edge 61, Type (0, 0), BuildingBlock: XIVTED_clean_linker_0, # of connection points: 2
#     Edge 62, Type (0, 0), BuildingBlock: XIVTED_clean_linker_0, # of connection points: 2
#     Edge 63, Type (0, 0), BuildingBlock: XIVTED_clean_linker_0, # of connection points: 2
#     Edge 64, Type (0, 0), BuildingBlock: XIVTED_clean_linker_0, # of connection points: 2
#     Edge 65, Type (0, 0), BuildingBlock: XIVTED_clean_linker_0, # of connection points: 2
#     Edge 66, Type (0, 0), BuildingBlock: XIVTED_clean_linker_0, # of connection points: 2
#     Edge 67, Type (0, 0), BuildingBlock: XIVTED_clean_linker_0, # of connection points: 2
#     Edge 68, Type (0, 0), BuildingBlock: XIVTED_clean_linker_0, # of connection points: 2
#     Edge 69, Type (0, 0), BuildingBlock: XIVTED_clean_linker_0, # of connection points: 2
#     Edge 70, Type (0, 0), BuildingBlock: XIVTED_clean_linker_0, # of connection points: 2
#     Edge 71, Type (0, 0), BuildingBlock: XIVTED_clean_linker_0, # of connection points: 2
#     Edge 72, Type (0, 0), BuildingBlock: XIVTED_clean_linker_0, # of connection points: 2
#     Edge 73, Type (0, 0), BuildingBlock: XIVTED_clean_linker_0, # of connection points: 2
#     Edge 74, Type (0, 0), BuildingBlock: XIVTED_clean_linker_0, # of connection points: 2
#     Edge 75, Type (0, 0), BuildingBlock: XIVTED_clean_linker_0, # of connection points: 2
#     Edge 76, Type (0, 0), BuildingBlock: XIVTED_clean_linker_0, # of connection points: 2
#     Edge 77, Type (0, 0), BuildingBlock: XIVTED_clean_linker_0, # of connection points: 2
#     Edge 78, Type (0, 0), BuildingBlock: XIVTED_clean_linker_0, # of connection points: 2
#     Edge 79, Type (0, 0), BuildingBlock: XIVTED_clean_linker_0, # of connection points: 2
#     Edge 80, Type (0, 0), BuildingBlock: XIVTED_clean_linker_0, # of connection points: 2
#     Edge 81, Type (0, 0), BuildingBlock: XIVTED_clean_linker_0, # of connection points: 2
#     Edge 82, Type (0, 0), BuildingBlock: XIVTED_clean_linker_0, # of connection points: 2
#     Edge 83, Type (0, 0), BuildingBlock: XIVTED_clean_linker_0, # of connection points: 2
#     Edge 84, Type (0, 0), BuildingBlock: XIVTED_clean_linker_0, # of connection points: 2
#     Edge 85, Type (0, 0), BuildingBlock: XIVTED_clean_linker_0, # of connection points: 2
#     Edge 86, Type (0, 0), BuildingBlock: XIVTED_clean_linker_0, # of connection points: 2
#     Edge 87, Type (0, 0), BuildingBlock: XIVTED_clean_linker_0, # of connection points: 2
#     Edge 88, Type (0, 0), BuildingBlock: XIVTED_clean_linker_0, # of connection points: 2
#     Edge 89, Type (0, 0), BuildingBlock: XIVTED_clean_linker_0, # of connection points: 2
#     Edge 90, Type (0, 0), BuildingBlock: XIVTED_clean_linker_0, # of connection points: 2
#     Edge 91, Type (0, 0), BuildingBlock: XIVTED_clean_linker_0, # of connection points: 2
#     Edge 92, Type (0, 0), BuildingBlock: XIVTED_clean_linker_0, # of connection points: 2
#     Edge 93, Type (0, 0), BuildingBlock: XIVTED_clean_linker_0, # of connection points: 2
#     Edge 94, Type (0, 0), BuildingBlock: XIVTED_clean_linker_0, # of connection points: 2
#     Edge 95, Type (0, 0), BuildingBlock: XIVTED_clean_linker_0, # of connection points: 2
#     Edge 96, Type (0, 0), BuildingBlock: XIVTED_clean_linker_0, # of connection points: 2
#     Edge 97, Type (0, 0), BuildingBlock: XIVTED_clean_linker_0, # of connection points: 2
#     Edge 98, Type (0, 0), BuildingBlock: XIVTED_clean_linker_0, # of connection points: 2
#     Edge 99, Type (0, 0), BuildingBlock: XIVTED_clean_linker_0, # of connection points: 2
#     Edge 100, Type (0, 0), BuildingBlock: XIVTED_clean_linker_0, # of connection points: 2
#     Edge 101, Type (0, 0), BuildingBlock: XIVTED_clean_linker_0, # of connection points: 2
#     Edge 102, Type (0, 0), BuildingBlock: XIVTED_clean_linker_0, # of connection points: 2
#     Edge 103, Type (0, 0), BuildingBlock: XIVTED_clean_linker_0, # of connection points: 2
#     Edge 104, Type (0, 0), BuildingBlock: XIVTED_clean_linker_0, # of connection points: 2
#     Edge 105, Type (0, 0), BuildingBlock: XIVTED_clean_linker_0, # of connection points: 2
#     Edge 106, Type (0, 0), BuildingBlock: XIVTED_clean_linker_0, # of connection points: 2
#     Edge 107, Type (0, 0), BuildingBlock: XIVTED_clean_linker_0, # of connection points: 2
#     Edge 108, Type (0, 0), BuildingBlock: XIVTED_clean_linker_0, # of connection points: 2
#     Edge 109, Type (0, 0), BuildingBlock: XIVTED_clean_linker_0, # of connection points: 2
#     Edge 110, Type (0, 0), BuildingBlock: XIVTED_clean_linker_0, # of connection points: 2
#     Edge 111, Type (0, 0), BuildingBlock: XIVTED_clean_linker_0, # of connection points: 2
# Relax obj value: 0.226
# Max RMSD: 0.108
# Mean RMSD: 0.108
data_MOF--net-vbc--node1-BEQFEK_clean_sbu_0--edge1-XIVTED_clean_linker_0
_symmetry_space_group_name_H-M    P1
_symmetry_Int_Tables_number       1
_symmetry_cell_setting            triclinic
loop_
_symmetry_equiv_pos_as_xyz
'x, y, z'
_cell_length_a     41.025428
_cell_length_b     76.17648
_cell_length_c     49.364356
_cell_angle_alpha  89.865455
_cell_angle_beta   89.97009
_cell_angle_gamma 90.028185
loop_
_atom_site_label
_atom_site_type_symbol
_atom_site_fract_x
_atom_site_fract_y
_atom_site_fract_z
_atom_type_partial_charge
Co0 Co 0.13534 0.04159 0.44634 0.0
Co1 Co 0.19362 0.04314 0.40663 0.0
C2 C 0.128 0.02808 0.38917 0.0
O3 O 0.11614 0.03144 0.41242 0.0
O4 O 0.15816 0.03092 0.38441 0.0
C5 C 0.08533 0.02544 0.47647 0.0
O6 O 0.08985 1.01301 0.45845 0.0
C7 C 0.25093 0.02388 0.39149 0.0
C8 C 0.28484 0.04457 0.37817 0.0
C9 C 0.28363 0.02698 0.38573 0.0
N10 N 0.23428 0.03899 0.38876 0.0
N11 N 0.25446 0.05121 0.37986 0.0
C12 C 0.23554 1.007 0.40043 0.0
H13 H 0.21039 1.00609 0.39227 0.0
H14 H 0.23375 1.00657 0.4228 0.0
H15 H 0.25015 0.9956 0.39349 0.0
C16 C 0.18627 0.02726 0.48389 0.0
N17 N 0.17549 0.03172 0.45881 0.0
N18 N 0.20065 0.03531 0.4434 0.0
C19 C 0.22801 0.03467 0.45874 0.0
C20 C 0.22029 0.0288 0.48475 0.0
C21 C 0.16418 0.02254 0.50688 0.0
H22 H 0.15431 0.03473 0.51602 0.0
H23 H 0.1435 0.0146 0.49931 0.0
H24 H 0.17728 0.01491 0.52263 0.0
O25 O 0.14281 0.06717 0.43949 0.0
O26 O 0.18239 0.06863 0.40848 0.0
H27 H 0.25439 0.05385 0.43524 0.0
H28 H 0.26945 0.05068 0.46921 0.0
C29 C 0.25894 0.04396 0.45129 0.0
H30 H 0.27713 0.03441 0.44408 0.0
H31 H 0.24823 0.0644 0.37747 0.0
O32 O 0.1025 0.03929 0.47518 0.0
C33 C 0.16135 0.07605 0.42377 0.0
Co34 Co 0.1392 0.24221 0.44313 0.0
Co35 Co 0.08247 0.23643 0.40317 0.0
C36 C 0.14534 0.25469 0.38551 0.0
O37 O 0.15705 0.25328 0.40931 0.0
O38 O 0.11643 0.24934 0.38055 0.0
C39 C 0.18883 0.25939 0.47376 0.0
O40 O 0.18668 0.27157 0.45496 0.0
C41 C 0.02044 0.24927 0.38322 0.0
C42 C 0.99709 0.22478 0.36968 0.0
C43 C 0.99034 0.24227 0.37562 0.0
N44 N 0.04272 0.23632 0.38326 0.0
N45 N 0.02893 0.22187 0.37413 0.0
C46 C 0.02856 0.26783 0.39054 0.0
H47 H 0.05434 0.27067 0.38527 0.0
H48 H 0.0259 0.2698 0.41265 0.0
H49 H 0.01227 0.27712 0.37972 0.0
C50 C 0.08565 0.25535 0.47893 0.0
N51 N 0.0972 0.25021 0.45448 0.0
N52 N 0.07268 0.24554 0.43903 0.0
C53 C 0.0449 0.24641 0.45393 0.0
C54 C 0.05178 0.25324 0.47953 0.0
C55 C 0.10696 0.26148 0.50159 0.0
H56 H 0.11753 0.24992 0.51209 0.0
H57 H 0.12722 0.26952 0.49338 0.0
H58 H 0.09301 0.26944 0.51638 0.0
O59 O 0.13743 0.21617 0.43765 0.0
O60 O 0.09812 0.2119 0.40734 0.0
H61 H 1.00293 0.23087 0.46464 0.0
H62 H 0.99616 0.24686 0.43877 0.0
C63 C 0.01392 0.2372 0.44653 0.0
H64 H 0.01844 0.22701 0.431 0.0
H65 H 0.04047 0.20968 0.37328 0.0
O66 O 0.17057 0.24597 0.4725 0.0
C67 C 0.12059 0.20597 0.42267 0.0
Co68 Co 0.13582 0.23668 0.91406 0.0
Co69 Co 0.19367 0.23248 0.95357 0.0
C70 C 0.12952 0.25018 0.97071 0.0
O71 O 0.11759 0.24856 0.94706 0.0
O72 O 0.15854 0.24499 0.97546 0.0
C73 C 0.08865 0.25393 0.8817 0.0
O74 O 0.0947 0.26698 0.89829 0.0
C75 C 0.25093 0.25074 0.97139 0.0
C76 C 0.28297 0.2295 0.98568 0.0
C77 C 0.28315 0.24708 0.97803 0.0
N78 N 0.23333 0.23589 0.97332 0.0
N79 N 0.25229 0.22337 0.98303 0.0
C80 C 0.23728 0.26779 0.96131 0.0
H81 H 0.23539 0.26763 0.93895 0.0
H82 H 0.25305 0.27894 0.96745 0.0
H83 H 0.21229 0.26964 0.96945 0.0
C84 C 0.18819 0.24877 0.87603 0.0
N85 N 0.17739 0.24463 0.90124 0.0
N86 N 0.20233 0.24025 0.91648 0.0
C87 C 0.22959 0.24032 0.90077 0.0
C88 C 0.22199 0.24642 0.87479 0.0
C89 C 0.16593 0.25164 0.8524 0.0
H90 H 0.14996 0.24 0.84997 0.0
H91 H 0.15021 0.26319 0.85639 0.0
H92 H 0.17942 0.25365 0.8332 0.0
O93 O 0.13955 0.21094 0.92194 0.0
O94 O 0.18016 0.20735 0.95153 0.0
H95 H 0.26138 0.21824 0.89909 0.0
H96 H 0.2821 0.23901 0.90066 0.0
C97 C 0.26088 0.23148 0.90837 0.0
H98 H 0.26306 0.22938 0.93022 0.0
H99 H 0.24521 0.21028 0.98513 0.0
O100 O 0.10352 0.23946 0.88493 0.0
C101 C 0.15726 0.20107 0.93688 0.0
Co102 Co 0.13489 0.03699 0.91273 0.0
Co103 Co 0.07687 0.03902 0.95247 0.0
C104 C 0.14198 0.0231 0.96967 0.0
O105 O 0.15383 0.02635 0.94635 0.0
O106 O 0.112 0.02634 0.97457 0.0
C107 C 0.18556 0.02146 0.8824 0.0
O108 O 0.18214 1.00888 0.90043 0.0
C109 C 0.01891 0.0204 0.96793 0.0
C110 C 0.98591 0.04153 0.98094 0.0
C111 C 0.98631 0.02392 0.97353 0.0
N112 N 0.03621 0.03531 0.97052 0.0
N113 N 0.01657 0.04778 0.97929 0.0
C114 C 0.03372 1.00333 0.95935 0.0
H115 H 0.05866 1.00213 0.96785 0.0
H116 H 0.03596 1.00287 0.93701 0.0
H117 H 0.01851 0.99211 0.96623 0.0
C118 C 0.08363 0.02307 0.87523 0.0
N119 N 0.09444 0.02758 0.90023 0.0
N120 N 0.06936 0.03136 0.91559 0.0
C121 C 0.04199 0.03075 0.90022 0.0
C122 C 0.04964 0.02475 0.87429 0.0
C123 C 0.1057 0.01811 0.85239 0.0
H124 H 0.12656 1.01039 0.86024 0.0
H125 H 0.09262 1.01018 0.83702 0.0
H126 H 0.11533 0.0302 0.84268 0.0
O127 O 0.12866 0.06255 0.92002 0.0
O128 O 0.08915 0.06442 0.95096 0.0
H129 H 1.00087 0.04694 0.88962 0.0
H130 H 0.99275 0.03051 0.91449 0.0
C131 C 1.01111 0.04007 0.90756 0.0
H132 H 0.01558 0.04982 0.92375 0.0
H133 H 0.02337 0.06089 0.98153 0.0
O134 O 0.16747 0.03494 0.8838 0.0
C135 C 0.11067 0.07162 0.93582 0.0
Co136 Co 0.88599 0.98725 0.66344 0.0
Co137 Co 0.82713 0.98327 0.70175 0.0
C138 C 0.89145 1.00079 0.71978 0.0
O139 O 0.9035 0.99959 0.69612 0.0
O140 O 0.86255 0.99528 0.72427 0.0
C141 C 0.93261 1.00482 0.63157 0.0
O142 O 0.92471 0.01789 0.64761 0.0
C143 C 0.77082 1.00222 0.71919 0.0
C144 C 0.73706 0.98133 0.73199 0.0
C145 C 0.73809 0.99897 0.72464 0.0
N146 N 0.78747 0.98708 0.72123 0.0
N147 N 0.76749 0.97477 0.73015 0.0
C148 C 0.78603 0.01915 0.71022 0.0
H149 H 0.81027 0.02064 0.71992 0.0
H150 H 0.79002 0.01905 0.68804 0.0
H151 H 0.77027 0.03047 0.71556 0.0
C152 C 0.83439 0.99932 0.62427 0.0
N153 N 0.84466 0.9951 0.64962 0.0
N154 N 0.81927 0.99116 0.66465 0.0
C155 C 0.79223 0.99159 0.6487 0.0
C156 C 0.80048 0.99748 0.62274 0.0
C157 C 0.85706 1.00199 0.60084 0.0
H158 H 0.87362 0.99054 0.5992 0.0
H159 H 0.87214 0.01384 0.60446 0.0
H160 H 0.84388 1.00343 0.58138 0.0
O161 O 0.88272 0.96156 0.67257 0.0
O162 O 0.83929 0.95805 0.69928 0.0
H163 H 0.75893 0.97017 0.64651 0.0
H164 H 0.7397 0.99133 0.6486 0.0
C165 C 0.76036 0.98329 0.65609 0.0
H166 H 0.75806 0.98099 0.67786 0.0
H167 H 0.77374 0.96155 0.73205 0.0
O168 O 0.91897 0.99 0.63487 0.0
C169 C 0.86363 0.95172 0.68639 0.0
Co170 Co 0.88524 0.78583 0.66601 0.0
Co171 Co 0.94445 0.79069 0.70379 0.0
C172 C 0.88076 0.77296 0.72296 0.0
O173 O 0.86857 0.77394 0.69931 0.0
O174 O 0.90964 0.77862 0.7273 0.0
C175 C 0.83511 0.76927 0.63593 0.0
O176 O 0.83923 0.75668 0.65384 0.0
C177 C 1.00329 0.77295 0.71925 0.0
C178 C 0.03577 0.79462 0.73101 0.0
C179 C 0.03584 0.77689 0.72433 0.0
N180 N 0.98553 0.78771 0.72145 0.0
N181 N 1.00488 0.80052 0.72946 0.0
C182 C 0.98901 0.75558 0.71146 0.0
H183 H 0.96417 0.75427 0.72016 0.0
H184 H 0.98664 0.7547 0.68916 0.0
H185 H 1.00466 0.74464 0.71868 0.0
C186 C 0.93695 0.77282 0.62772 0.0
N187 N 0.92632 0.77772 0.65261 0.0
N188 N 0.95144 0.7823 0.66735 0.0
C189 C 0.97853 0.78188 0.65165 0.0
C190 C 0.97081 0.77513 0.62619 0.0
C191 C 0.91484 0.76677 0.60556 0.0
H192 H 0.90406 0.77838 0.5953 0.0
H193 H 0.89477 0.75879 0.6142 0.0
H194 H 0.92822 0.75878 0.59046 0.0
O195 O 0.88834 0.8117 0.67413 0.0
O196 O 0.93181 0.81572 0.7005 0.0
H197 H 1.00405 0.80201 0.67372 0.0
H198 H 0.01852 0.79851 0.63963 0.0
C199 C 1.00893 0.79193 0.65808 0.0
H200 H 0.02794 0.7829 0.66544 0.0
H201 H 0.99766 0.81361 0.73125 0.0
O202 O 0.85244 0.78305 0.63741 0.0
C203 C 0.90734 0.82179 0.68751 0.0
Co204 Co 0.88737 0.79176 0.19665 0.0
Co205 Co 0.82889 0.79396 0.15741 0.0
C206 C 0.89426 0.77756 0.14048 0.0
O207 O 0.90616 0.78017 0.16391 0.0
O208 O 0.86464 0.7816 0.13561 0.0
C209 C 0.93437 0.77488 0.22877 0.0
O210 O 0.92707 0.76176 0.21264 0.0
C211 C 0.77312 0.77441 0.14 0.0
C212 C 0.73915 0.79492 0.12629 0.0
C213 C 0.74042 0.77736 0.13407 0.0
N214 N 0.78948 0.78964 0.1378 0.0
N215 N 0.76939 0.80171 0.12835 0.0
C216 C 0.78847 0.75769 0.14966 0.0
H217 H 0.81283 0.75617 0.14017 0.0
H218 H 0.79224 0.75815 0.17186 0.0
H219 H 0.77295 0.74621 0.14464 0.0
C220 C 0.8359 0.77927 0.23552 0.0
N221 N 0.84628 0.78321 0.21008 0.0
N222 N 0.8209 0.78654 0.19472 0.0
C223 C 0.79371 0.78603 0.2105 0.0
C224 C 0.80193 0.78071 0.23674 0.0
C225 C 0.85838 0.77735 0.25922 0.0
H226 H 0.87405 0.78916 0.26072 0.0
H227 H 0.87437 0.7658 0.25604 0.0
H228 H 0.84499 0.7758 0.27858 0.0
O229 O 0.88274 0.81717 0.18732 0.0
O230 O 0.84046 0.81946 0.15907 0.0
H231 H 0.75986 0.80724 0.21139 0.0
H232 H 0.74116 0.78589 0.21074 0.0
C233 C 0.7616 0.79387 0.20267 0.0
H234 H 0.75916 0.79555 0.18079 0.0
H235 H 0.7754 0.81495 0.12616 0.0
O236 O 0.92019 0.78954 0.22547 0.0
C237 C 0.86378 0.82642 0.1725 0.0
Co238 Co 0.88625 0.99206 0.19383 0.0
Co239 Co 0.94401 0.98753 0.1548 0.0
C240 C 0.88053 1.00592 0.13753 0.0
O241 O 0.86882 1.00459 0.1613 0.0
O242 O 0.9092 1.00024 0.13258 0.0
C243 C 0.8398 1.0096 0.22652 0.0
O244 O 0.84679 0.02301 0.21076 0.0
C245 C 1.00408 1.00239 0.13404 0.0
C246 C 0.02966 0.97875 0.11975 0.0
C247 C 0.0348 0.99629 0.12636 0.0
N248 N 0.98313 0.9888 0.134 0.0
N249 N 0.99815 0.9749 0.1242 0.0
C250 C 0.99465 0.02043 0.14307 0.0
H251 H 0.96944 0.02336 0.13628 0.0
H252 H 0.99474 0.02112 0.16548 0.0
H253 H 0.0117 0.03041 0.13476 0.0
C254 C 0.93884 1.00377 0.23212 0.0
N255 N 0.92822 0.9995 0.20695 0.0
N256 N 0.95339 0.9957 0.19158 0.0
C257 C 0.98072 0.99633 0.2072 0.0
C258 C 0.97278 1.00215 0.23327 0.0
C259 C 0.91649 1.00637 0.25577 0.0
H260 H 0.89993 0.99493 0.25757 0.0
H261 H 0.90141 0.01824 0.25228 0.0
H262 H 0.92991 1.00775 0.27512 0.0
O263 O 0.88737 0.96634 0.18535 0.0
O264 O 0.92993 0.96265 0.15798 0.0
H265 H 0.01665 0.97616 0.21045 0.0
H266 H 0.033 0.99775 0.20453 0.0
C267 C 0.0129 0.98862 0.1993 0.0
H268 H 0.01381 0.98504 0.17787 0.0
H269 H 0.9878 0.9624 0.1231 0.0
O270 O 0.85396 0.99501 0.22268 0.0
C271 C 0.90576 0.95643 0.17118 0.0
Co272 Co 0.13386 0.54089 0.94525 0.0
Co273 Co 0.19203 0.54518 0.90576 0.0
C274 C 0.12774 0.52848 0.8876 0.0
O275 O 0.11577 0.53068 0.91115 0.0
O276 O 0.15746 0.53256 0.88282 0.0
C277 C 0.08338 0.524 0.97517 0.0
O278 O 0.08535 0.51223 0.95583 0.0
C279 C 0.25594 0.53281 0.88887 0.0
C280 C 0.27807 0.55754 0.87489 0.0
C281 C 0.28585 0.54057 0.88303 0.0
N282 N 0.23236 0.54497 0.88624 0.0
N283 N 0.24556 0.55946 0.87647 0.0
C284 C 0.2503 0.51481 0.90027 0.0
H285 H 0.22414 0.51276 0.90506 0.0
H286 H 0.26533 0.51257 0.9186 0.0
H287 H 0.25795 0.50494 0.88505 0.0
C288 C 0.18619 0.52689 0.98185 0.0
N289 N 0.17535 0.53203 0.95712 0.0
N290 N 0.20044 0.53632 0.94198 0.0
C291 C 0.22775 0.53548 0.95743 0.0
C292 C 0.2201 0.52871 0.98293 0.0
C293 C 0.16421 0.52117 1.00438 0.0
H294 H 0.14385 0.51326 0.99613 0.0
H295 H 0.17759 0.51321 1.01958 0.0
H296 H 0.15384 0.53293 1.01442 0.0
O297 O 0.13706 0.56682 0.93918 0.0
O298 O 0.17816 0.56998 0.91012 0.0
H299 H 0.26654 0.55277 0.96943 0.0
H300 H 0.2781 0.53612 0.9461 0.0
C301 C 0.25839 0.54541 0.95126 0.0
H302 H 0.25455 0.55488 0.93453 0.0
H303 H 0.23301 0.57126 0.87394 0.0
O304 O 0.1019 0.53734 0.97444 0.0
C305 C 0.1555 0.57652 0.92463 0.0
Co306 Co 0.13557 0.74224 0.94483 0.0
Co307 Co 0.07792 0.73773 0.90557 0.0
C308 C 0.14173 0.75585 0.88836 0.0
O309 O 0.15351 0.75445 0.9121 0.0
O310 O 0.11293 0.75035 0.88352 0.0
C311 C 0.18252 0.75957 0.97742 0.0
O312 O 0.17666 0.77284 0.96109 0.0
C313 C 0.01523 0.75102 0.88718 0.0
C314 C 0.99445 0.72733 0.86855 0.0
C315 C 0.98588 0.7437 0.87878 0.0
N316 N 0.03892 0.73896 0.88443 0.0
N317 N 0.02673 0.72522 0.87175 0.0
C318 C 0.01952 0.76794 0.90216 0.0
H319 H 0.04555 0.77019 0.90718 0.0
H320 H 1.00465 0.76798 0.92092 0.0
H321 H 1.01067 0.77891 0.8893 0.0
C322 C 0.08273 0.75396 0.98286 0.0
N323 N 0.0936 0.7499 0.95767 0.0
N324 N 0.06867 0.74561 0.9424 0.0
C325 C 0.04146 0.74536 0.95814 0.0
C326 C 0.04889 0.75155 0.98413 0.0
C327 C 0.10501 0.75679 1.00648 0.0
H328 H 0.12145 0.74532 1.00858 0.0
H329 H 0.12024 0.76858 1.00271 0.0
H330 H 0.09159 0.75835 1.0258 0.0
O331 O 0.13362 0.7164 0.93688 0.0
O332 O 0.09148 0.7129 0.90901 0.0
H333 H 1.00862 0.72379 0.96305 0.0
H334 H 0.98926 0.74423 0.95412 0.0
C335 C 1.01091 0.73581 0.95057 0.0
H336 H 0.01178 0.73108 0.92958 0.0
H337 H 0.03956 0.71363 0.86816 0.0
O338 O 0.16761 0.74516 0.97388 0.0
C339 C 0.11507 0.70656 0.92271 0.0
Co340 Co 0.13602 0.73826 0.41481 0.0
Co341 Co 0.19438 0.73447 0.45411 0.0
C342 C 0.12984 0.75103 0.47223 0.0
O343 O 0.11783 0.74915 0.44863 0.0
O344 O 0.1593 0.74648 0.47688 0.0
C345 C 0.08654 0.7551 0.38442 0.0
O346 O 0.09077 0.76747 0.40256 0.0
C347 C 0.25303 0.75243 0.46986 0.0
C348 C 0.28532 0.7309 0.4827 0.0
C349 C 0.28543 0.74859 0.47564 0.0
N350 N 0.23526 0.73765 0.47211 0.0
N351 N 0.2545 0.72492 0.48071 0.0
C352 C 0.23895 0.76973 0.46138 0.0
H353 H 0.21368 0.77096 0.46918 0.0
H354 H 0.23776 0.77058 0.43901 0.0
H355 H 0.25413 0.78073 0.46901 0.0
C356 C 0.18796 0.75203 0.37763 0.0
N357 N 0.17687 0.74726 0.40248 0.0
N358 N 0.20175 0.74286 0.41769 0.0
C359 C 0.22914 0.7433 0.40237 0.0
C360 C 0.22184 0.74986 0.3767 0.0
C361 C 0.16624 0.75763 0.3549 0.0
H362 H 0.15568 0.74583 0.3451 0.0
H363 H 0.14601 0.76574 0.36288 0.0
H364 H 0.17987 0.76537 0.33956 0.0
O365 O 0.14144 0.71234 0.42133 0.0
O366 O 0.18196 0.70934 0.45116 0.0
H367 H 0.25434 0.72325 0.42499 0.0
H368 H 0.26956 0.72678 0.39113 0.0
C369 C 0.25949 0.73334 0.40936 0.0
H370 H 0.27826 0.74244 0.41694 0.0
H371 H 0.24729 0.71184 0.48271 0.0
O372 O 0.10355 0.7412 0.38583 0.0
C373 C 0.1598 0.70272 0.43614 0.0
Co374 Co 0.13786 0.53662 0.41666 0.0
Co375 Co 0.08045 0.54223 0.45611 0.0
C376 C 0.14321 0.52396 0.47429 0.0
O377 O 0.15536 0.52557 0.45065 0.0
O378 O 0.11408 0.5291 0.47894 0.0
C379 C 0.18824 0.51974 0.38623 0.0
O380 O 0.18662 0.50766 0.40521 0.0
C381 C 0.01576 0.53124 0.47304 0.0
C382 C 0.99594 0.55627 0.48782 0.0
C383 C 0.9866 0.53965 0.47919 0.0
N384 N 0.04037 0.54276 0.47584 0.0
N385 N 0.02856 0.55741 0.48611 0.0
C386 C 0.01986 0.51317 0.46156 0.0
H387 H 0.04581 0.51052 0.45671 0.0
H388 H 1.00459 0.51134 0.44328 0.0
H389 H 1.01146 0.50343 0.47678 0.0
C390 C 0.08502 0.52334 0.3803 0.0
N391 N 0.09601 0.52851 0.40491 0.0
N392 N 0.07121 0.53353 0.41979 0.0
C393 C 0.04393 0.53305 0.4042 0.0
C394 C 0.0513 0.52588 0.37892 0.0
C395 C 0.10678 0.51684 0.35818 0.0
H396 H 0.11771 0.52824 0.34745 0.0
H397 H 0.12677 0.50886 0.36694 0.0
H398 H 0.09306 0.50873 0.34344 0.0
O399 O 0.13593 0.56273 0.42214 0.0
O400 O 0.09648 0.56665 0.45244 0.0
H401 H 1.00653 0.55109 0.39182 0.0
H402 H 0.99336 0.53456 0.4149 0.0
C403 C 0.01382 0.54349 0.41006 0.0
H404 H 0.01795 0.55279 0.42693 0.0
H405 H 0.04217 0.56883 0.48893 0.0
O406 O 0.16952 0.53297 0.3874 0.0
C407 C 0.11893 0.57276 0.43726 0.0
Co408 Co 0.88883 0.48837 0.1663 0.0
Co409 Co 0.8315 0.48245 0.20585 0.0
C410 C 0.89417 0.50068 0.22417 0.0
O411 O 0.90627 0.49926 0.20049 0.0
O412 O 0.86511 0.4954 0.22881 0.0
C413 C 0.93834 0.5061 0.13611 0.0
O414 O 0.93627 0.51783 0.1555 0.0
C415 C 0.76931 0.49549 0.22491 0.0
C416 C 0.74481 0.47106 0.23743 0.0
C417 C 0.73876 0.48865 0.23163 0.0
N418 N 0.79125 0.48237 0.2252 0.0
N419 N 0.77673 0.46793 0.23372 0.0
C420 C 0.77815 0.51401 0.21784 0.0
H421 H 0.80388 0.51661 0.22354 0.0
H422 H 0.77607 0.51612 0.19571 0.0
H423 H 0.76188 0.52338 0.22847 0.0
C424 C 0.83548 0.50152 0.13004 0.0
N425 N 0.84686 0.49635 0.1546 0.0
N426 N 0.82221 0.4916 0.16989 0.0
C427 C 0.79458 0.49242 0.1548 0.0
C428 C 0.80163 0.49933 0.12924 0.0
C429 C 0.85694 0.50772 0.10747 0.0
H430 H 0.86785 0.4962 0.09718 0.0
H431 H 0.87695 0.51588 0.11574 0.0
H432 H 0.84303 0.51559 0.09249 0.0
O433 O 0.88696 0.46224 0.17163 0.0
O434 O 0.84736 0.45795 0.20179 0.0
H435 H 0.76821 0.47273 0.17733 0.0
H436 H 0.75274 0.4769 0.14377 0.0
C437 C 0.76364 0.48307 0.162 0.0
H438 H 0.74579 0.49261 0.16992 0.0
H439 H 0.78789 0.45564 0.23456 0.0
O440 O 0.92033 0.49256 0.13697 0.0
C441 C 0.86993 0.45203 0.18656 0.0
Co442 Co 0.88734 0.28706 0.16475 0.0
Co443 Co 0.94599 0.2899 0.20366 0.0
C444 C 0.88094 0.27351 0.2217 0.0
O445 O 0.86886 0.27572 0.19817 0.0
O446 O 0.91053 0.27787 0.22632 0.0
C447 C 0.83584 0.27216 0.13398 0.0
O448 O 0.83735 0.25971 0.15239 0.0
C449 C 1.00401 0.27119 0.21864 0.0
C450 C 0.03735 0.29231 0.2311 0.0
C451 C 0.03674 0.27469 0.22376 0.0
N452 N 0.98682 0.28611 0.22142 0.0
N453 N 1.00669 0.29858 0.22985 0.0
C454 C 0.98899 0.2541 0.21035 0.0
H455 H 0.96415 0.25297 0.21911 0.0
H456 H 0.98646 0.25355 0.18804 0.0
H457 H 1.00422 0.24289 0.21717 0.0
C458 C 0.93826 0.27313 0.12692 0.0
N459 N 0.92774 0.27784 0.15192 0.0
N460 N 0.95296 0.28191 0.16691 0.0
C461 C 0.98011 0.28131 0.15127 0.0
C462 C 0.9722 0.275 0.12556 0.0
C463 C 0.91595 0.26776 0.10448 0.0
H464 H 0.89517 0.26017 0.1128 0.0
H465 H 0.9289 0.25959 0.08934 0.0
H466 H 0.90623 0.27967 0.09434 0.0
O467 O 0.89349 0.31281 0.17207 0.0
O468 O 0.93441 0.31521 0.20158 0.0
H469 H 0.02072 0.29768 0.13991 0.0
H470 H 0.02958 0.28149 0.16498 0.0
C471 C 1.01092 0.29088 0.15808 0.0
H472 H 1.0065 0.30071 0.17418 0.0
H473 H 0.99999 0.31171 0.23211 0.0
O474 O 0.85503 0.28519 0.13558 0.0
C475 C 0.91218 0.32215 0.18694 0.0
Co476 Co 0.89006 0.28953 0.69277 0.0
Co477 Co 0.83195 0.29482 0.65375 0.0
C478 C 0.89545 0.27708 0.63535 0.0
O479 O 0.90735 0.27815 0.65912 0.0
O480 O 0.86657 0.28261 0.63067 0.0
C481 C 0.93936 0.27223 0.72362 0.0
O482 O 0.93609 0.25992 0.70522 0.0
C483 C 0.77051 0.2807 0.6348 0.0
C484 C 0.74486 0.30466 0.62182 0.0
C485 C 0.73966 0.28703 0.6279 0.0
N486 N 0.79178 0.29414 0.63436 0.0
N487 N 0.77659 0.30829 0.62556 0.0
C488 C 0.78025 0.26236 0.64218 0.0
H489 H 0.80613 0.26012 0.63658 0.0
H490 H 0.77816 0.26036 0.66434 0.0
H491 H 0.76451 0.25268 0.63166 0.0
C492 C 0.837 0.27635 0.72971 0.0
N493 N 0.8482 0.28141 0.70502 0.0
N494 N 0.82332 0.28562 0.68963 0.0
C495 C 0.79573 0.28461 0.70472 0.0
C496 C 0.80304 0.27807 0.73043 0.0
C497 C 0.85867 0.27069 0.75245 0.0
H498 H 0.86954 0.28245 0.76211 0.0
H499 H 0.8787 0.26244 0.74446 0.0
H500 H 0.84497 0.26306 0.76788 0.0
O501 O 0.88807 0.31557 0.68592 0.0
O502 O 0.8457 0.31955 0.65844 0.0
H503 H 0.76874 0.30391 0.68195 0.0
H504 H 0.75327 0.29973 0.71549 0.0
C505 C 0.76448 0.29359 0.69737 0.0
H506 H 0.74701 0.28382 0.68951 0.0
H507 H 0.78713 0.32075 0.62454 0.0
O508 O 0.922 0.28599 0.72203 0.0
C509 C 0.86942 0.32566 0.6722 0.0
Co510 Co 0.88527 0.49173 0.69344 0.0
Co511 Co 0.94315 0.48759 0.65413 0.0
C512 C 0.87862 0.50502 0.63673 0.0
O513 O 0.867 0.50372 0.66057 0.0
O514 O 0.90754 0.49967 0.63186 0.0
C515 C 0.83726 0.50831 0.72646 0.0
O516 O 0.84233 0.52177 0.71032 0.0
C517 C 1.00316 0.50282 0.63344 0.0
C518 C 0.0287 0.47934 0.61851 0.0
C519 C 0.03383 0.49682 0.62543 0.0
N520 N 0.98222 0.48923 0.63322 0.0
N521 N 0.99723 0.47543 0.62305 0.0
C522 C 0.99383 0.5208 0.64284 0.0
H523 H 0.96852 0.52377 0.63633 0.0
H524 H 0.99425 0.52136 0.66525 0.0
H525 H 1.01077 0.53083 0.63454 0.0
C526 C 0.93773 0.50416 0.73126 0.0
N527 N 0.92706 0.49981 0.70613 0.0
N528 N 0.95224 0.49605 0.69073 0.0
C529 C 0.97958 0.4967 0.70631 0.0
C530 C 0.97169 0.50258 0.73235 0.0
C531 C 0.9154 0.50668 0.75494 0.0
H532 H 0.89978 0.49489 0.75731 0.0
H533 H 0.89931 0.51811 0.75103 0.0
H534 H 0.92884 0.50871 0.77413 0.0
O535 O 0.88799 0.46594 0.68553 0.0
O536 O 0.9305 0.46254 0.658 0.0
H537 H 0.01504 0.4763 0.70958 0.0
H538 H 0.03192 0.4978 0.70379 0.0
C539 C 0.01164 0.48881 0.69847 0.0
H540 H 0.01259 0.48524 0.67704 0.0
H541 H 0.98692 0.46293 0.62173 0.0
O542 O 0.85304 0.4942 0.72269 0.0
C543 C 0.90686 0.45612 0.67162 0.0
Co544 Co 0.63656 0.04218 0.94581 0.0
Co545 Co 0.69411 0.04427 0.90548 0.0
C546 C 0.62869 0.02872 0.88874 0.0
O547 O 0.61711 0.03192 0.91213 0.0
O548 O 0.65865 0.03187 0.88364 0.0
C549 C 0.58705 0.02582 0.97599 0.0
O550 O 0.59164 1.01347 0.95785 0.0
C551 C 0.75085 0.02511 0.88894 0.0
C552 C 0.78466 0.04579 0.87545 0.0
C553 C 0.78338 0.02812 0.88254 0.0
N554 N 0.73437 0.04031 0.88698 0.0
N555 N 0.75446 0.05254 0.87798 0.0
C556 C 0.73551 1.00821 0.89786 0.0
H557 H 0.73413 1.00767 0.92025 0.0
H558 H 0.74988 0.99681 0.89057 0.0
H559 H 0.7102 1.0074 0.89002 0.0
C560 C 0.68834 0.02803 0.98269 0.0
N561 N 0.6771 0.03259 0.9578 0.0
N562 N 0.70194 0.03631 0.94211 0.0
C563 C 0.72959 0.03558 0.95707 0.0
C564 C 0.72236 0.0296 0.98312 0.0
C565 C 0.66669 0.0232 1.00591 0.0
H566 H 0.65702 0.03534 1.01534 0.0
H567 H 0.64584 0.01531 0.99851 0.0
H568 H 0.6801 0.01548 1.02138 0.0
O569 O 0.64326 0.06778 0.93895 0.0
O570 O 0.68232 0.06971 0.90756 0.0
H571 H 0.77164 0.05127 0.96706 0.0
H572 H 0.77825 0.03519 0.94141 0.0
C573 C 0.76048 0.04477 0.94921 0.0
H574 H 0.75566 0.05482 0.93346 0.0
H575 H 0.74835 0.06578 0.87604 0.0
O576 O 0.60413 0.0397 0.97486 0.0
C577 C 0.66126 0.07688 0.92312 0.0
Co578 Co 0.63888 0.24224 0.94237 0.0
Co579 Co 0.58059 0.23767 0.90333 0.0
C580 C 0.64453 0.2553 0.88526 0.0
O581 O 0.65651 0.25372 0.90894 0.0
O582 O 0.61536 0.25021 0.88053 0.0
C583 C 0.68944 0.25814 0.97338 0.0
O584 O 0.68787 0.27048 0.9548 0.0
C585 C 0.52047 0.25453 0.88847 0.0
C586 C 0.48956 0.23229 0.8763 0.0
C587 C 0.48815 0.2499 0.88361 0.0
N588 N 0.53937 0.24023 0.88559 0.0
N589 N 0.52092 0.2271 0.87733 0.0
C590 C 0.53354 0.27213 0.89651 0.0
H591 H 0.55828 0.27398 0.88785 0.0
H592 H 0.53582 0.27294 0.91882 0.0
H593 H 0.51715 0.28278 0.88941 0.0
C594 C 0.58685 0.25541 0.97963 0.0
N595 N 0.5978 0.25063 0.9548 0.0
N596 N 0.57299 0.24574 0.93993 0.0
C597 C 0.54581 0.24583 0.95555 0.0
C598 C 0.55313 0.2527 0.98101 0.0
C599 C 0.60863 0.26164 1.0019 0.0
H600 H 0.61918 0.25013 1.01255 0.0
H601 H 0.62887 0.26954 0.99333 0.0
H602 H 0.59499 0.26977 1.01668 0.0
O603 O 0.63499 0.21637 0.93517 0.0
O604 O 0.59426 0.21273 0.90579 0.0
H605 H 0.5212 0.22552 0.93314 0.0
H606 H 0.50718 0.22831 0.96752 0.0
C607 C 0.51598 0.23529 0.94915 0.0
H608 H 0.49624 0.24405 0.94237 0.0
H609 H 0.52911 0.21421 0.87509 0.0
O610 O 0.67075 0.2449 0.97169 0.0
C611 C 0.61719 0.20647 0.9204 0.0
Co612 Co 0.63374 0.23808 0.41266 0.0
Co613 Co 0.69115 0.23336 0.4525 0.0
C614 C 0.62774 0.25114 0.46992 0.0
O615 O 0.61589 0.24892 0.44634 0.0
O616 O 0.65719 0.2467 0.47494 0.0
C617 C 0.58443 0.2554 0.38193 0.0
O618 O 0.58657 0.26735 0.401 0.0
C619 C 0.75546 0.2447 0.46968 0.0
C620 C 0.77538 0.21987 0.48534 0.0
C621 C 0.78464 0.23646 0.47634 0.0
N622 N 0.73098 0.23309 0.47251 0.0
N623 N 0.74281 0.21858 0.48329 0.0
C624 C 0.75124 0.26267 0.45775 0.0
H625 H 0.72532 0.26516 0.4526 0.0
H626 H 0.76672 0.26446 0.43957 0.0
H627 H 0.75924 0.27255 0.47283 0.0
C628 C 0.68707 0.25117 0.37609 0.0
N629 N 0.67584 0.2462 0.4008 0.0
N630 N 0.70063 0.2417 0.41609 0.0
C631 C 0.72811 0.24218 0.40074 0.0
C632 C 0.72091 0.24894 0.37511 0.0
C633 C 0.66547 0.25725 0.35355 0.0
H634 H 0.65458 0.24567 0.34339 0.0
H635 H 0.64547 0.2654 0.36183 0.0
H636 H 0.67927 0.2651 0.33846 0.0
O637 O 0.63506 0.21213 0.41953 0.0
O638 O 0.67571 0.20879 0.4489 0.0
H639 H 0.76613 0.22429 0.38922 0.0
H640 H 0.77854 0.24103 0.41209 0.0
C641 C 0.75834 0.23196 0.40718 0.0
H642 H 0.75408 0.22274 0.4242 0.0
H643 H 0.72932 0.20712 0.48628 0.0
O644 O 0.60233 0.24184 0.38318 0.0
C645 C 0.65272 0.20238 0.43463 0.0
Co646 Co 0.6351 0.03847 0.41289 0.0
Co647 Co 0.57661 0.03953 0.45211 0.0
C648 C 0.64284 0.02384 0.4687 0.0
O649 O 0.65443 0.02681 0.44526 0.0
O650 O 0.61306 0.02745 0.47381 0.0
C651 C 0.6833 0.02296 0.38056 0.0
O652 O 0.67659 1.00937 0.39603 0.0
C653 C 0.52066 0.0197 0.4696 0.0
C654 C 0.48749 0.04015 0.48474 0.0
C655 C 0.48826 0.02269 0.47657 0.0
N656 N 0.53731 0.03484 0.47176 0.0
N657 N 0.51772 0.04686 0.482 0.0
C658 C 0.53532 1.00308 0.45898 0.0
H659 H 0.56027 1.00145 0.4673 0.0
H660 H 0.53758 1.00375 0.43665 0.0
H661 H 0.52007 0.99157 0.46451 0.0
C662 C 0.58457 0.02559 0.37385 0.0
N663 N 0.59459 0.02942 0.39936 0.0
N664 N 0.56899 0.03224 0.41472 0.0
C665 C 0.54192 0.03153 0.39884 0.0
C666 C 0.55055 0.02656 0.37254 0.0
C667 C 0.60729 0.02427 0.35019 0.0
H668 H 0.62233 0.03634 0.34898 0.0
H669 H 0.62386 1.01294 0.3532 0.0
H670 H 0.59414 0.02276 0.33073 0.0
O671 O 0.62923 0.06364 0.4224 0.0
O672 O 0.58684 0.06523 0.4506 0.0
H673 H 0.50715 0.0523 0.39805 0.0
H674 H 0.48941 0.03072 0.39845 0.0
C675 C 0.50944 0.0389 0.40668 0.0
H676 H 0.5068 0.04039 0.42859 0.0
H677 H 0.52402 0.06004 0.48445 0.0
O678 O 0.66811 0.03726 0.38425 0.0
C679 C 0.60983 0.07257 0.43719 0.0
Co680 Co 0.38652 0.98618 0.1611 0.0
Co681 Co 0.3304 0.98293 0.20234 0.0
C682 C 0.39446 1.00021 0.21788 0.0
O683 O 0.40582 0.99695 0.19444 0.0
O684 O 0.36477 0.99666 0.22334 0.0
C685 C 0.43195 1.00467 0.12916 0.0
O686 O 0.4247 0.0174 0.14604 0.0
C687 C 0.26791 0.9962 0.22105 0.0
C688 C 0.24654 0.97236 0.23896 0.0
C689 C 0.23838 0.98895 0.22925 0.0
N690 N 0.29138 0.98398 0.2236 0.0
N691 N 0.27881 0.97011 0.23579 0.0
C692 C 0.27257 1.01321 0.20625 0.0
H693 H 0.2986 0.01525 0.20099 0.0
H694 H 0.25747 1.01353 0.18763 0.0
H695 H 0.26426 0.02416 0.21933 0.0
C696 C 0.33317 0.99853 0.12442 0.0
N697 N 0.34464 0.99449 0.14944 0.0
N698 N 0.3201 0.99035 0.16529 0.0
C699 C 0.29245 0.99022 0.15008 0.0
C700 C 0.29929 0.99632 0.12388 0.0
C701 C 0.3548 1.00109 0.10027 0.0
H702 H 0.37125 0.98963 0.09827 0.0
H703 H 0.37003 1.01296 0.1033 0.0
H704 H 0.34083 1.00241 0.08118 0.0
O705 O 0.38319 0.96042 0.16773 0.0
O706 O 0.34568 0.95808 0.20021 0.0
H707 H 0.25872 0.96902 0.14575 0.0
H708 H 0.24043 0.98956 0.15545 0.0
C709 C 0.2619 0.9809 0.15833 0.0
H710 H 0.26339 0.97594 0.17919 0.0
H711 H 0.29137 0.95839 0.23905 0.0
O712 O 0.4183 0.98982 0.13196 0.0
C713 C 0.36667 0.95115 0.18439 0.0
Co714 Co 0.38621 0.78577 0.16493 0.0
Co715 Co 0.44434 0.78993 0.20421 0.0
C716 C 0.38012 0.77276 0.22205 0.0
O717 O 0.36825 0.77452 0.19838 0.0
O718 O 0.40936 0.77764 0.2269 0.0
C719 C 0.33549 0.76992 0.13438 0.0
O720 O 0.33808 0.75741 0.15261 0.0
C721 C 0.50383 0.77282 0.22048 0.0
C722 C 0.53444 0.79488 0.23396 0.0
C723 C 0.53583 0.77724 0.22686 0.0
N724 N 0.48513 0.78726 0.22248 0.0
N725 N 0.50334 0.80029 0.23144 0.0
C726 C 0.49097 0.7553 0.21187 0.0
H727 H 0.49045 0.75444 0.18949 0.0
H728 H 0.50653 0.74456 0.21988 0.0
H729 H 0.46556 0.75364 0.21919 0.0
C730 C 0.43806 0.77228 0.12788 0.0
N731 N 0.42712 0.77705 0.1527 0.0
N732 N 0.45201 0.78157 0.16779 0.0
C733 C 0.47932 0.78116 0.15236 0.0
C734 C 0.47188 0.77456 0.12676 0.0
C735 C 0.4162 0.76653 0.10535 0.0
H736 H 0.406 0.77827 0.09507 0.0
H737 H 0.39571 0.75869 0.11363 0.0
H738 H 0.42967 0.7585 0.09034 0.0
O739 O 0.39089 0.81159 0.1717 0.0
O740 O 0.43138 0.81498 0.20134 0.0
H741 H 0.50487 0.80099 0.17508 0.0
H742 H 0.51962 0.79777 0.14101 0.0
C743 C 0.50976 0.79105 0.15924 0.0
H744 H 0.52858 0.78186 0.1665 0.0
H745 H 0.49526 0.81321 0.23343 0.0
O746 O 0.35398 0.78324 0.13585 0.0
C747 C 0.40889 0.82138 0.18643 0.0
Co748 Co 0.3877 0.79224 0.69807 0.0
Co749 Co 0.33031 0.79461 0.65765 0.0
C750 C 0.39555 0.77873 0.64107 0.0
O751 O 0.40702 0.78183 0.66453 0.0
O752 O 0.36569 0.78204 0.63584 0.0
C753 C 0.43763 0.77614 0.72848 0.0
O754 O 0.43448 0.76397 0.70986 0.0
C755 C 0.27279 0.77602 0.64111 0.0
C756 C 0.24003 0.79708 0.6273 0.0
C757 C 0.24045 0.77942 0.63452 0.0
N758 N 0.28998 0.791 0.6391 0.0
N759 N 0.27051 0.80345 0.62992 0.0
C760 C 0.28733 0.75895 0.65016 0.0
H761 H 0.31271 0.75786 0.64257 0.0
H762 H 0.28833 0.75839 0.67256 0.0
H763 H 0.27261 0.74772 0.64273 0.0
C764 C 0.33578 0.77827 0.73481 0.0
N765 N 0.34702 0.78281 0.70992 0.0
N766 N 0.32222 0.7867 0.6943 0.0
C767 C 0.2946 0.7861 0.70936 0.0
C768 C 0.30181 0.78004 0.73538 0.0
C769 C 0.35744 0.7732 0.75789 0.0
H770 H 0.36718 0.78524 0.76756 0.0
H771 H 0.37823 0.76535 0.75029 0.0
H772 H 0.34399 0.76536 0.77322 0.0
O773 O 0.3816 0.81785 0.69106 0.0
O774 O 0.34266 0.81998 0.65964 0.0
H775 H 0.25302 0.80208 0.71946 0.0
H776 H 0.2458 0.78591 0.69407 0.0
C777 C 0.26385 0.79543 0.7016 0.0
H778 H 0.26874 0.80537 0.68568 0.0
H779 H 0.27723 0.8166 0.6279 0.0
O780 O 0.41974 0.78972 0.72738 0.0
C781 C 0.36387 0.82704 0.67516 0.0
Co782 Co 0.38703 0.99201 0.69447 0.0
Co783 Co 0.44485 0.9882 0.65511 0.0
C784 C 0.38058 1.0056 0.63785 0.0
O785 O 0.36873 1.00379 0.6615 0.0
O786 O 0.40972 1.00064 0.63302 0.0
C787 C 0.33951 1.00913 0.72634 0.0
O788 O 0.34565 0.02227 0.70981 0.0
C789 C 0.50269 1.00572 0.63613 0.0
C790 C 0.53329 0.98384 0.62202 0.0
C791 C 0.53456 1.0015 0.62905 0.0
N792 N 0.48437 0.9911 0.63506 0.0
N793 N 0.50243 0.9782 0.62546 0.0
C794 C 0.49008 0.02305 0.64585 0.0
H795 H 0.48833 0.02305 0.66823 0.0
H796 H 0.50638 0.03391 0.63933 0.0
H797 H 0.46513 0.02522 0.63782 0.0
C798 C 0.43881 1.0045 0.73249 0.0
N799 N 0.42833 1.00022 0.70729 0.0
N800 N 0.45351 0.99617 0.69212 0.0
C801 C 0.4807 0.99662 0.70789 0.0
C802 C 0.47269 1.00262 0.73382 0.0
C803 C 0.41631 1.00708 0.75604 0.0
H804 H 0.40049 0.99537 0.75827 0.0
H805 H 0.40047 0.01861 0.75212 0.0
H806 H 0.4296 1.00899 0.77534 0.0
O807 O 0.39085 0.96628 0.68695 0.0
O808 O 0.43151 0.96309 0.65737 0.0
H809 H 0.51384 0.97514 0.71009 0.0
H810 H 0.53321 0.99626 0.70789 0.0
C811 C 0.51248 0.98827 0.70043 0.0
H812 H 0.51471 0.98602 0.67863 0.0
H813 H 0.49462 0.96521 0.62388 0.0
O814 O 0.35455 0.99472 0.72328 0.0
C815 C 0.40875 0.95659 0.67197 0.0
Co816 Co 0.63381 0.53981 0.44491 0.0
Co817 Co 0.69035 0.54446 0.40436 0.0
C818 C 0.62697 0.52694 0.38734 0.0
O819 O 0.61519 0.52948 0.41088 0.0
O820 O 0.65656 0.53101 0.38222 0.0
C821 C 0.58422 0.52271 0.47561 0.0
O822 O 0.5857 0.5109 0.4563 0.0
C823 C 0.75196 0.53106 0.38461 0.0
C824 C 0.77632 0.55527 0.37095 0.0
C825 C 0.78235 0.53772 0.37703 0.0
N826 N 0.73018 0.54425 0.3845 0.0
N827 N 0.74458 0.55855 0.37531 0.0
C828 C 0.74313 0.51262 0.39224 0.0
H829 H 0.71729 0.51002 0.38691 0.0
H830 H 0.74557 0.51074 0.4144 0.0
H831 H 0.75916 0.50311 0.38165 0.0
C832 C 0.68722 0.52646 0.48078 0.0
N833 N 0.67566 0.5314 0.45618 0.0
N834 N 0.70022 0.53573 0.44049 0.0
C835 C 0.72805 0.53483 0.45533 0.0
C836 C 0.72115 0.52835 0.4812 0.0
C837 C 0.66588 0.52074 0.50373 0.0
H838 H 0.64546 0.5127 0.49589 0.0
H839 H 0.67972 0.5129 0.51878 0.0
H840 H 0.65554 0.5325 0.51381 0.0
O841 O 0.63647 0.56569 0.43934 0.0
O842 O 0.67463 0.5692 0.40773 0.0
H843 H 0.77063 0.55005 0.46537 0.0
H844 H 0.77656 0.53389 0.43971 0.0
C845 C 0.75921 0.54374 0.44748 0.0
H846 H 0.75478 0.5539 0.43183 0.0
H847 H 0.73352 0.57087 0.37437 0.0
O848 O 0.60264 0.53607 0.47451 0.0
C849 C 0.65296 0.57553 0.42349 0.0
Co850 Co 0.63509 0.73931 0.44712 0.0
Co851 Co 0.5783 0.73857 0.40622 0.0
C852 C 0.64471 0.75377 0.39088 0.0
O853 O 0.65558 0.75008 0.41432 0.0
O854 O 0.61477 0.75101 0.38527 0.0
C855 C 0.68255 0.75553 0.47933 0.0
O856 O 0.67643 0.76868 0.46284 0.0
C857 C 0.52203 0.75789 0.38846 0.0
C858 C 0.48936 0.73709 0.37377 0.0
C859 C 0.48957 0.75454 0.38202 0.0
N860 N 0.53918 0.74293 0.38611 0.0
N861 N 0.51986 0.73071 0.37607 0.0
C862 C 0.53648 0.77472 0.39854 0.0
H863 H 0.53966 0.77417 0.42079 0.0
H864 H 0.52065 0.78605 0.39329 0.0
H865 H 0.56103 0.77658 0.38952 0.0
C866 C 0.58384 0.75282 0.48463 0.0
N867 N 0.59459 0.74891 0.45935 0.0
N868 N 0.56949 0.74582 0.44357 0.0
C869 C 0.54201 0.74642 0.45899 0.0
C870 C 0.54983 0.75165 0.48534 0.0
C871 C 0.60588 0.7542 0.5087 0.0
H872 H 0.62057 0.74204 0.51046 0.0
H873 H 0.62282 0.7654 0.50578 0.0
H874 H 0.59223 0.75596 0.52786 0.0
O875 O 0.62806 0.71397 0.43934 0.0
O876 O 0.58948 0.71293 0.40751 0.0
H877 H 0.50813 0.72522 0.45995 0.0
H878 H 0.48948 0.74654 0.45841 0.0
C879 C 0.51009 0.7385 0.45086 0.0
H880 H 0.5082 0.73659 0.42898 0.0
H881 H 0.52655 0.7176 0.37363 0.0
O882 O 0.66738 0.74115 0.47624 0.0
C883 C 0.61009 0.7053 0.42302 0.0
Co884 Co 0.63633 0.73818 0.9158 0.0
Co885 Co 0.69395 0.73288 0.95506 0.0
C886 C 0.6305 0.75065 0.97305 0.0
O887 O 0.61869 0.74957 0.94927 0.0
O888 O 0.65931 0.7451 0.97781 0.0
C889 C 0.58747 0.75574 0.88534 0.0
O890 O 0.59074 0.76778 0.90417 0.0
C891 C 0.75385 0.74758 0.97559 0.0
C892 C 0.78049 0.72396 0.98869 0.0
C893 C 0.78475 0.74176 0.98325 0.0
N894 N 0.7335 0.73375 0.97505 0.0
N895 N 0.7492 0.71978 0.98391 0.0
C896 C 0.74322 0.7658 0.96837 0.0
H897 H 0.71718 0.76761 0.97382 0.0
H898 H 0.74537 0.7679 0.94622 0.0
H899 H 0.75832 0.77568 0.97909 0.0
C900 C 0.68965 0.75135 0.87915 0.0
N901 N 0.67829 0.74627 0.90376 0.0
N902 N 0.70307 0.74221 0.91935 0.0
C903 C 0.73084 0.74348 0.90453 0.0
C904 C 0.72365 0.74987 0.8787 0.0
C905 C 0.66811 0.75689 0.85624 0.0
H906 H 0.65727 0.74507 0.84672 0.0
H907 H 0.64805 0.76519 0.86405 0.0
H908 H 0.68187 0.76443 0.84075 0.0
O909 O 0.63807 0.71216 0.92265 0.0
O910 O 0.68027 0.70814 0.95031 0.0
H911 H 0.77455 0.72917 0.89454 0.0
H912 H 0.77899 0.74516 0.92071 0.0
C913 C 0.76243 0.73507 0.91245 0.0
H914 H 0.75839 0.72466 0.92778 0.0
H915 H 0.7394 0.70714 0.98436 0.0
O916 O 0.6047 0.74193 0.88649 0.0
C917 C 0.65659 0.70206 0.93647 0.0
Co918 Co 0.63706 0.53606 0.91729 0.0
Co919 Co 0.57967 0.54074 0.95699 0.0
C920 C 0.64397 0.52291 0.97402 0.0
O921 O 0.65538 0.52405 0.95009 0.0
O922 O 0.61522 0.52847 0.97905 0.0
C923 C 0.6845 0.51918 0.88396 0.0
O924 O 0.67954 0.50576 0.90022 0.0
C925 C 0.51946 0.52591 0.97793 0.0
C926 C 0.49449 0.54957 0.99286 0.0
C927 C 0.48894 0.53212 0.98594 0.0
N928 N 0.54072 0.53937 0.97813 0.0
N929 N 0.52605 0.55327 0.9883 0.0
C930 C 0.52836 0.50787 0.96853 0.0
H931 H 0.55361 0.50474 0.97501 0.0
H932 H 0.52789 0.50731 0.94611 0.0
H933 H 0.51119 0.49796 0.97685 0.0
C934 C 0.58392 0.52399 0.87991 0.0
N935 N 0.59496 0.52825 0.90497 0.0
N936 N 0.57006 0.53229 0.9205 0.0
C937 C 0.54257 0.53194 0.90509 0.0
C938 C 0.55002 0.52597 0.87903 0.0
C939 C 0.60593 0.52122 0.85611 0.0
H940 H 0.62162 0.53295 0.85339 0.0
H941 H 0.62197 0.50979 0.86009 0.0
H942 H 0.59223 0.51907 0.83707 0.0
O943 O 0.63499 0.56187 0.92507 0.0
O944 O 0.59287 0.56567 0.95289 0.0
H945 H 0.50806 0.55283 0.9021 0.0
H946 H 0.4902 0.53154 0.90771 0.0
C947 C 0.51091 0.54023 0.91307 0.0
H948 H 0.51017 0.54372 0.93453 0.0
H949 H 0.53665 0.56569 0.98958 0.0
O950 O 0.66888 0.53333 0.88779 0.0
C951 C 0.61652 0.57186 0.93904 0.0
Co952 Co 0.38792 0.48771 0.6661 0.0
Co953 Co 0.32996 0.48374 0.70579 0.0
C954 C 0.39452 0.50038 0.72347 0.0
O955 O 0.40621 0.49811 0.69985 0.0
O956 O 0.36483 0.49636 0.7285 0.0
C957 C 0.43859 0.50409 0.63583 0.0
O958 O 0.4371 0.51597 0.65503 0.0
C959 C 0.2663 0.49641 0.72269 0.0
C960 C 0.24392 0.47185 0.7371 0.0
C961 C 0.23632 0.4888 0.72875 0.0
N962 N 0.28973 0.48418 0.72542 0.0
N963 N 0.2764 0.4698 0.73545 0.0
C964 C 0.27211 0.51431 0.71098 0.0
H965 H 0.29828 0.51625 0.70612 0.0
H966 H 0.25706 0.51647 0.69265 0.0
H967 H 0.26461 0.52431 0.72605 0.0
C968 C 0.33576 0.50155 0.6294 0.0
N969 N 0.34652 0.49655 0.65421 0.0
N970 N 0.32141 0.4924 0.66942 0.0
C971 C 0.29411 0.49322 0.65392 0.0
C972 C 0.30184 0.49978 0.6283 0.0
C973 C 0.35782 0.50711 0.60683 0.0
H974 H 0.36817 0.49529 0.59696 0.0
H975 H 0.37819 0.51504 0.61502 0.0
H976 H 0.34453 0.51502 0.59151 0.0
O977 O 0.3848 0.46188 0.67275 0.0
O978 O 0.34372 0.45888 0.70185 0.0
H979 H 0.26698 0.47418 0.67727 0.0
H980 H 0.25503 0.476 0.64231 0.0
C981 C 0.2633 0.4835 0.66031 0.0
H982 H 0.24375 0.49295 0.66525 0.0
H983 H 0.28881 0.45797 0.73811 0.0
O984 O 0.41972 0.4909 0.63679 0.0
C985 C 0.36647 0.45227 0.68751 0.0
Co986 Co 0.38723 0.28758 0.6644 0.0
Co987 Co 0.44392 0.29047 0.70529 0.0
C988 C 0.37893 0.27326 0.72061 0.0
O989 O 0.3679 0.27606 0.69693 0.0
O990 O 0.40835 0.2773 0.72636 0.0
C991 C 0.3407 0.27065 0.63132 0.0
O992 O 0.34642 0.25739 0.64769 0.0
C993 C 0.50688 0.27701 0.72331 0.0
C994 C 0.52722 0.30052 0.74281 0.0
C995 C 0.53612 0.28438 0.73194 0.0
N996 N 0.48289 0.28887 0.72661 0.0
N997 N 0.49487 0.30247 0.73979 0.0
C998 C 0.50292 0.26029 0.70774 0.0
H999 H 0.47698 0.25806 0.70238 0.0
H1000 H 0.5181 0.26052 0.68916 0.0
H1001 H 0.51163 0.24917 0.72035 0.0
C1002 C 0.44049 0.2757 0.6272 0.0
N1003 N 0.42912 0.2794 0.65237 0.0
N1004 N 0.45376 0.28327 0.66822 0.0
C1005 C 0.48131 0.2837 0.65291 0.0
C1006 C 0.47438 0.27793 0.6266 0.0
C1007 C 0.41873 0.27352 0.60309 0.0
H1008 H 0.40275 0.28519 0.60121 0.0
H1009 H 0.40299 0.26183 0.60608 0.0
H1010 H 0.43257 0.27217 0.58394 0.0
O1011 O 0.39015 0.31313 0.67275 0.0
O1012 O 0.43047 0.31554 0.70272 0.0
H1013 H 0.51389 0.30545 0.64891 0.0
H1014 H 0.53341 0.28503 0.65775 0.0
C1015 C 0.51154 0.29332 0.66113 0.0
H1016 H 0.51013 0.29792 0.68216 0.0
H1017 H 0.48183 0.31393 0.74382 0.0
O1018 O 0.35563 0.28505 0.63493 0.0
C1019 C 0.40803 0.32243 0.68827 0.0
Co1020 Co 0.38753 0.28989 0.19157 0.0
Co1021 Co 0.32909 0.29296 0.15222 0.0
C1022 C 0.39394 0.27654 0.13461 0.0
O1023 O 0.40596 0.27869 0.15815 0.0
O1024 O 0.36444 0.28094 0.12987 0.0
C1025 C 0.43825 0.27427 0.22218 0.0
O1026 O 0.43588 0.26201 0.20362 0.0
C1027 C 0.27148 0.27413 0.1365 0.0
C1028 C 0.23817 0.29508 0.12321 0.0
C1029 C 0.23895 0.27744 0.13047 0.0
N1030 N 0.28846 0.28917 0.13417 0.0
N1031 N 0.26864 0.30155 0.1253 0.0
C1032 C 0.2864 0.25712 0.14535 0.0
H1033 H 0.28784 0.25655 0.16773 0.0
H1034 H 0.27166 0.24584 0.13811 0.0
H1035 H 0.31165 0.25612 0.13742 0.0
C1036 C 0.336 0.27615 0.22903 0.0
N1037 N 0.3469 0.28079 0.20408 0.0
N1038 N 0.32189 0.28487 0.18882 0.0
C1039 C 0.29453 0.28432 0.20416 0.0
C1040 C 0.30207 0.27806 0.22998 0.0
C1041 C 0.35793 0.27086 0.25181 0.0
H1042 H 0.36778 0.28282 0.26167 0.0
H1043 H 0.37865 0.26309 0.24388 0.0
H1044 H 0.34464 0.2629 0.26709 0.0
O1045 O 0.38161 0.31564 0.18422 0.0
O1046 O 0.34092 0.3182 0.15445 0.0
H1047 H 0.25337 0.30043 0.21496 0.0
H1048 H 0.24549 0.28449 0.18935 0.0
C1049 C 0.26383 0.29386 0.19689 0.0
H1050 H 0.26866 0.30388 0.18109 0.0
H1051 H 0.27517 0.31472 0.12316 0.0
O1052 O 0.41978 0.28761 0.22083 0.0
C1053 C 0.36309 0.32504 0.16923 0.0
Co1054 Co 0.38452 0.49067 0.19423 0.0
Co1055 Co 0.44134 0.48593 0.15393 0.0
C1056 C 0.37797 0.50435 0.13742 0.0
O1057 O 0.36634 0.50244 0.16115 0.0
O1058 O 0.40695 0.49923 0.13222 0.0
C1059 C 0.33735 0.50813 0.22672 0.0
O1060 O 0.34217 0.52116 0.20971 0.0
C1061 C 0.50524 0.49815 0.13617 0.0
C1062 C 0.52487 0.47398 0.11816 0.0
C1063 C 0.53429 0.49021 0.12835 0.0
N1064 N 0.48075 0.48656 0.13304 0.0
N1065 N 0.49236 0.47253 0.12076 0.0
C1066 C 0.50172 0.51525 0.15081 0.0
H1067 H 0.47581 0.51787 0.15582 0.0
H1068 H 0.51666 0.51529 0.16952 0.0
H1069 H 0.511 0.52599 0.13768 0.0
C1070 C 0.43777 0.5026 0.23123 0.0
N1071 N 0.42656 0.49837 0.20624 0.0
N1072 N 0.45114 0.4936 0.1909 0.0
C1073 C 0.47845 0.4932 0.2065 0.0
C1074 C 0.47149 0.49982 0.23233 0.0
C1075 C 0.41577 0.50587 0.25491 0.0
H1076 H 0.39956 0.49437 0.2578 0.0
H1077 H 0.40028 0.51749 0.25065 0.0
H1078 H 0.4294 0.50793 0.274 0.0
O1079 O 0.38667 0.46478 0.18733 0.0
O1080 O 0.42582 0.46129 0.15655 0.0
H1081 H 0.51044 0.47136 0.21221 0.0
H1082 H 0.53052 0.49133 0.20194 0.0
C1083 C 0.50845 0.48311 0.19909 0.0
H1084 H 0.50699 0.4779 0.17838 0.0
H1085 H 0.47886 0.46117 0.1171 0.0
O1086 O 0.35289 0.49388 0.22358 0.0
C1087 C 0.40353 0.45497 0.17174 0.0
H1088 H 0.17099 0.09857 0.38102 0.0
H1089 H 0.14489 0.18636 0.46448 0.0
H1090 H 0.14317 0.0975 0.46529 0.0
H1091 H 0.11239 0.18221 0.38164 0.0
H1092 H 0.15622 0.15472 0.46469 0.0
H1093 H 0.16158 0.13048 0.38039 0.0
C1094 C 0.16322 0.10507 0.39942 0.0
C1095 C 0.15773 0.09539 0.42322 0.0
C1096 C 0.14665 0.16078 0.44649 0.0
C1097 C 0.14748 0.13173 0.4227 0.0
C1098 C 0.14028 0.1788 0.44631 0.0
C1099 C 0.12754 0.18689 0.42303 0.0
C1100 C 0.1411 0.15087 0.42302 0.0
C1101 C 0.12195 0.17646 0.40007 0.0
C1102 C 0.15768 0.1232 0.39898 0.0
C1103 C 0.14748 0.10445 0.44647 0.0
N1104 N 0.12904 0.159 0.40054 0.0
N1105 N 0.14293 0.12213 0.4457 0.0
H1106 H 0.10266 0.09402 0.97889 0.0
H1107 H 0.13377 0.18137 0.89527 0.0
H1108 H 0.13058 0.09297 0.89465 0.0
H1109 H 0.16546 0.17728 0.97836 0.0
H1110 H 0.12163 0.14989 0.89538 0.0
H1111 H 0.11459 0.12573 0.97986 0.0
C1112 C 0.11097 0.10049 0.96058 0.0
C1113 C 0.11568 0.09088 0.93665 0.0
C1114 C 0.13126 0.1559 0.91356 0.0
C1115 C 0.1289 0.12695 0.93759 0.0
C1116 C 0.13812 0.17384 0.91356 0.0
C1117 C 0.15076 0.18193 0.93682 0.0
C1118 C 0.13624 0.14601 0.9372 0.0
C1119 C 0.15599 0.17152 0.95994 0.0
C1120 C 0.118 0.11848 0.96122 0.0
C1121 C 0.12676 0.09986 0.91355 0.0
N1122 N 0.14838 0.15409 0.95966 0.0
N1123 N 0.13272 0.1174 0.91452 0.0
H1124 H 0.84919 0.83834 0.67814 0.0
H1125 H 0.92165 0.93502 0.67769 0.0
H1126 H 0.94974 0.84883 0.69803 0.0
H1127 H 0.8209 0.9248 0.69736 0.0
H1128 H 0.93236 0.90341 0.67884 0.0
H1129 H 0.83826 0.86996 0.67886 0.0
C1130 C 0.869 0.84729 0.6826 0.0
C1131 C 0.90046 0.84092 0.68803 0.0
C1132 C 0.90795 0.90811 0.68299 0.0
C1133 C 0.8881 0.87711 0.68859 0.0
C1134 C 0.90175 0.92613 0.68221 0.0
C1135 C 0.8703 0.93258 0.68745 0.0
C1136 C 0.88241 0.89637 0.68846 0.0
C1137 C 0.84552 0.92042 0.69333 0.0
C1138 C 0.86267 0.86531 0.68314 0.0
C1139 C 0.92511 0.85315 0.69383 0.0
N1140 N 0.85203 0.90288 0.69342 0.0
N1141 N 0.91848 0.87066 0.69371 0.0
H1142 H 0.84773 0.93974 0.18097 0.0
H1143 H 0.92129 0.8436 0.1803 0.0
H1144 H 0.94777 0.92959 0.15898 0.0
H1145 H 0.8202 0.85291 0.16094 0.0
H1146 H 0.93126 0.87523 0.1786 0.0
H1147 H 0.83686 0.90809 0.17968 0.0
C1148 C 0.86742 0.93086 0.1759 0.0
C1149 C 0.89875 0.93733 0.17011 0.0
C1150 C 0.90694 0.87034 0.17462 0.0
C1151 C 0.88648 0.90114 0.16892 0.0
C1152 C 0.90115 0.85231 0.17571 0.0
C1153 C 0.86983 0.84559 0.17077 0.0
C1154 C 0.8811 0.88186 0.16913 0.0
C1155 C 0.84473 0.85752 0.16476 0.0
C1156 C 0.86112 0.91283 0.17503 0.0
C1157 C 0.92326 0.9252 0.16351 0.0
N1158 N 0.85083 0.87511 0.1644 0.0
N1159 N 0.91669 0.90769 0.16338 0.0
H1160 H 0.07109 0.68039 0.91232 0.0
H1161 H 0.19962 0.60243 0.91269 0.0
H1162 H 0.17212 0.68902 0.93268 0.0
H1163 H 0.09922 0.5944 0.93574 0.0
H1164 H 0.19002 0.63423 0.9122 0.0
H1165 H 0.08098 0.64864 0.91295 0.0
C1166 C 0.09538 0.67562 0.91678 0.0
C1167 C 0.12082 0.68736 0.92251 0.0
C1168 C 0.17016 0.62547 0.91739 0.0
C1169 C 0.1323 0.65113 0.92291 0.0
C1170 C 0.17556 0.60735 0.91757 0.0
C1171 C 0.15019 0.59576 0.92434 0.0
C1172 C 0.139 0.63202 0.92337 0.0
C1173 C 0.11951 0.60287 0.93059 0.0
C1174 C 0.10093 0.65752 0.91727 0.0
C1175 C 0.15178 0.68043 0.92829 0.0
N1176 N 0.11469 0.62053 0.92972 0.0
N1177 N 0.15672 0.66276 0.92813 0.0
H1178 H 0.11054 0.59584 0.47903 0.0
H1179 H 0.13874 0.68239 0.39411 0.0
H1180 H 0.14233 0.59316 0.39582 0.0
H1181 H 0.1696 0.67926 0.4775 0.0
H1182 H 0.12988 0.65051 0.39419 0.0
H1183 H 0.12193 0.6275 0.47889 0.0
C1184 C 0.1198 0.60193 0.46072 0.0
C1185 C 0.12557 0.59188 0.4374 0.0
C1186 C 0.13867 0.65684 0.41241 0.0
C1187 C 0.13802 0.62801 0.43704 0.0
C1188 C 0.14359 0.67499 0.41244 0.0
C1189 C 0.15496 0.68345 0.43584 0.0
C1190 C 0.14425 0.64716 0.43616 0.0
C1191 C 0.16099 0.67323 0.459 0.0
C1192 C 0.12644 0.61993 0.46073 0.0
C1193 C 0.13772 0.60042 0.41426 0.0
N1194 N 0.15517 0.65563 0.4587 0.0
N1195 N 0.1432 0.61805 0.41455 0.0
H1196 H 0.89322 0.43225 0.1446 0.0
H1197 H 0.92279 0.34504 0.22882 0.0
H1198 H 0.86242 0.42837 0.22797 0.0
H1199 H 0.8909 0.34312 0.14563 0.0
H1200 H 0.91265 0.37688 0.22899 0.0
H1201 H 0.90427 0.40056 0.14463 0.0
C1202 C 0.88892 0.42474 0.16293 0.0
C1203 C 0.87676 0.43292 0.1863 0.0
C1204 C 0.90798 0.36943 0.21074 0.0
C1205 C 0.89003 0.39686 0.18658 0.0
C1206 C 0.91392 0.35134 0.21056 0.0
C1207 C 0.90756 0.34144 0.1872 0.0
C1208 C 0.89654 0.37772 0.18716 0.0
C1209 C 0.89591 0.35024 0.16412 0.0
C1210 C 0.89512 0.4067 0.16288 0.0
C1211 C 0.87155 0.42255 0.20947 0.0
N1212 N 0.89105 0.36791 0.16459 0.0
N1213 N 0.87852 0.40508 0.20913 0.0
H1214 H 0.84986 0.43868 0.6819 0.0
H1215 H 0.92664 0.34295 0.68278 0.0
H1216 H 0.95067 0.42977 0.66111 0.0
H1217 H 0.82601 0.35212 0.66166 0.0
H1218 H 0.93608 0.37476 0.68222 0.0
H1219 H 0.84075 0.40689 0.68184 0.0
C1220 C 0.8701 0.43004 0.67738 0.0
C1221 C 0.90107 0.4369 0.67143 0.0
C1222 C 0.91198 0.36977 0.67768 0.0
C1223 C 0.89086 0.40052 0.67173 0.0
C1224 C 0.90652 0.35164 0.67813 0.0
C1225 C 0.87549 0.34486 0.67221 0.0
C1226 C 0.88608 0.38121 0.67189 0.0
C1227 C 0.85035 0.35676 0.6662 0.0
C1228 C 0.86483 0.41192 0.67724 0.0
C1229 C 0.92637 0.42506 0.66564 0.0
N1230 N 0.85612 0.37435 0.66642 0.0
N1231 N 0.92078 0.40744 0.66616 0.0
H1232 H 0.64426 0.09788 0.9654 0.0
H1233 H 0.6066 0.18299 0.87926 0.0
H1234 H 0.6677 0.09968 0.88025 0.0
H1235 H 0.64293 0.18648 0.96107 0.0
H1236 H 0.61924 0.15142 0.87936 0.0
H1237 H 0.6343 0.12959 0.9645 0.0
C1238 C 0.64736 0.10497 0.94652 0.0
C1239 C 0.65692 0.09617 0.92286 0.0
C1240 C 0.62444 0.15916 0.89721 0.0
C1241 C 0.64482 0.13232 0.92162 0.0
C1242 C 0.61704 0.1771 0.89726 0.0
C1243 C 0.62375 0.18735 0.9202 0.0
C1244 C 0.63777 0.15138 0.92051 0.0
C1245 C 0.6375 0.17908 0.94293 0.0
C1246 C 0.64176 0.12304 0.94606 0.0
C1247 C 0.66062 0.10601 0.89896 0.0
N1248 N 0.64374 0.16155 0.94262 0.0
N1249 N 0.65415 0.12355 0.89884 0.0
H1250 H 0.69487 0.17619 0.4491 0.0
H1251 H 0.56462 0.09853 0.44705 0.0
H1252 H 0.5957 0.185 0.42334 0.0
H1253 H 0.66681 0.09036 0.43068 0.0
H1254 H 0.57437 0.13046 0.44709 0.0
H1255 H 0.68376 0.14462 0.45111 0.0
C1256 C 0.67073 0.1715 0.44395 0.0
C1257 C 0.64623 0.18324 0.43589 0.0
C1258 C 0.59457 0.1216 0.44356 0.0
C1259 C 0.63325 0.14717 0.43859 0.0
C1260 C 0.58908 0.10344 0.4437 0.0
C1261 C 0.61492 0.0918 0.43875 0.0
C1262 C 0.62623 0.12807 0.43912 0.0
C1263 C 0.64613 0.09885 0.43438 0.0
C1264 C 0.66445 0.15349 0.44504 0.0
C1265 C 0.61538 0.17639 0.42942 0.0
N1266 N 0.65094 0.11649 0.43483 0.0
N1267 N 0.60968 0.1588 0.43108 0.0
H1268 H 0.38583 0.84123 0.14458 0.0
H1269 H 0.3596 0.9288 0.22765 0.0
H1270 H 0.41876 0.84514 0.22733 0.0
H1271 H 0.38665 0.92987 0.14319 0.0
H1272 H 0.37073 0.89706 0.22861 0.0
H1273 H 0.37557 0.87292 0.14427 0.0
C1274 C 0.39083 0.84876 0.1627 0.0
C1275 C 0.40325 0.84057 0.18601 0.0
C1276 C 0.3742 0.90432 0.20993 0.0
C1277 C 0.39094 0.87669 0.18589 0.0
C1278 C 0.36768 0.92234 0.20931 0.0
C1279 C 0.37229 0.93196 0.18531 0.0
C1280 C 0.38449 0.89582 0.18622 0.0
C1281 C 0.38297 0.92297 0.16215 0.0
C1282 C 0.38508 0.86682 0.16245 0.0
C1283 C 0.4094 0.85097 0.2089 0.0
N1284 N 0.3884 0.90538 0.1631 0.0
N1285 N 0.40284 0.8685 0.20839 0.0
H1286 H 0.38193 0.848 0.71716 0.0
H1287 H 0.41913 0.93319 0.63059 0.0
H1288 H 0.35759 0.84979 0.6322 0.0
H1289 H 0.38407 0.93644 0.71283 0.0
H1290 H 0.40666 0.90156 0.63072 0.0
H1291 H 0.39257 0.87964 0.71604 0.0
C1292 C 0.37879 0.85508 0.69827 0.0
C1293 C 0.36875 0.8463 0.67475 0.0
C1294 C 0.40173 0.90927 0.64866 0.0
C1295 C 0.38162 0.88237 0.67324 0.0
C1296 C 0.40903 0.92723 0.64868 0.0
C1297 C 0.40258 0.93743 0.67173 0.0
C1298 C 0.38877 0.90143 0.67208 0.0
C1299 C 0.38927 0.92908 0.69459 0.0
C1300 C 0.3848 0.8731 0.69768 0.0
C1301 C 0.36503 0.85611 0.65082 0.0
N1302 N 0.38311 0.91155 0.69429 0.0
N1303 N 0.37186 0.87363 0.65057 0.0
H1304 H 0.62925 0.59547 0.4649 0.0
H1305 H 0.60223 0.68294 0.3798 0.0
H1306 H 0.66099 0.59907 0.38173 0.0
H1307 H 0.62698 0.68373 0.4647 0.0
H1308 H 0.61253 0.65106 0.37925 0.0
H1309 H 0.61729 0.62697 0.46435 0.0
C1310 C 0.63364 0.60288 0.4465 0.0
C1311 C 0.64629 0.59466 0.42336 0.0
C1312 C 0.61557 0.65828 0.39795 0.0
C1313 C 0.63201 0.6306 0.42247 0.0
C1314 C 0.60948 0.67638 0.39833 0.0
C1315 C 0.61386 0.68597 0.42232 0.0
C1316 C 0.62521 0.64971 0.42187 0.0
C1317 C 0.62352 0.67686 0.44574 0.0
C1318 C 0.62687 0.62084 0.44624 0.0
C1319 C 0.65153 0.60493 0.40008 0.0
N1320 N 0.62863 0.65925 0.44499 0.0
N1321 N 0.64409 0.62237 0.40013 0.0
H1322 H 0.59912 0.68501 0.92604 0.0
H1323 H 0.67388 0.58885 0.92835 0.0
H1324 H 0.69959 0.67544 0.94729 0.0
H1325 H 0.57339 0.59855 0.94937 0.0
H1326 H 0.6837 0.62059 0.92788 0.0
H1327 H 0.5891 0.65326 0.9271 0.0
C1328 C 0.6191 0.67624 0.93081 0.0
C1329 C 0.65024 0.68289 0.93663 0.0
C1330 C 0.65954 0.61574 0.93264 0.0
C1331 C 0.63897 0.64661 0.93754 0.0
C1332 C 0.65387 0.59765 0.93281 0.0
C1333 C 0.62277 0.59104 0.93897 0.0
C1334 C 0.63379 0.62733 0.93806 0.0
C1335 C 0.59778 0.60308 0.94469 0.0
C1336 C 0.61329 0.65815 0.93155 0.0
C1337 C 0.67517 0.6709 0.94281 0.0
N1338 N 0.60375 0.62066 0.94385 0.0
N1339 N 0.66907 0.65334 0.94288 0.0
H1340 H 0.32263 0.42623 0.69942 0.0
H1341 H 0.45172 0.34841 0.70097 0.0
H1342 H 0.42329 0.43465 0.67755 0.0
H1343 H 0.35141 0.34008 0.67808 0.0
H1344 H 0.44172 0.38022 0.70123 0.0
H1345 H 0.33276 0.39448 0.70035 0.0
C1346 C 0.34686 0.42141 0.69492 0.0
C1347 C 0.37213 0.43308 0.68828 0.0
C1348 C 0.42197 0.37137 0.6962 0.0
C1349 C 0.38393 0.3969 0.68978 0.0
C1350 C 0.42758 0.35326 0.69617 0.0
C1351 C 0.40238 0.34161 0.68939 0.0
C1352 C 0.39076 0.37781 0.69006 0.0
C1353 C 0.37158 0.34861 0.68323 0.0
C1354 C 0.35257 0.40332 0.69536 0.0
C1355 C 0.40306 0.4261 0.68255 0.0
N1356 N 0.36656 0.36625 0.6839 0.0
N1357 N 0.40818 0.40847 0.68365 0.0
H1358 H 0.35241 0.34819 0.12753 0.0
H1359 H 0.38104 0.43454 0.21327 0.0
H1360 H 0.38444 0.34571 0.21068 0.0
H1361 H 0.41108 0.43195 0.12961 0.0
H1362 H 0.37059 0.40282 0.21258 0.0
H1363 H 0.36225 0.38006 0.12773 0.0
C1364 C 0.36128 0.35437 0.14585 0.0
C1365 C 0.36773 0.34432 0.16911 0.0
C1366 C 0.37944 0.40925 0.19441 0.0
C1367 C 0.37841 0.38061 0.16956 0.0
C1368 C 0.38528 0.42731 0.19473 0.0
C1369 C 0.39704 0.43586 0.17148 0.0
C1370 C 0.38452 0.39975 0.17046 0.0
C1371 C 0.40224 0.42584 0.14802 0.0
C1372 C 0.36704 0.37247 0.14588 0.0
C1373 C 0.37936 0.35296 0.19227 0.0
N1374 N 0.39564 0.40832 0.14801 0.0
N1375 N 0.38404 0.37063 0.192 0.0
H1376 H 0.28912 1.00556 0.43102 0.0
H1377 H 0.48208 1.00554 0.42774 0.0
H1378 H 0.345 0.02674 0.36436 0.0
H1379 H 0.42716 0.02065 0.49855 0.0
H1380 H 0.4315 0.99979 0.40395 0.0
H1381 H 0.33942 0.99775 0.45385 0.0
C1382 C 0.3117 1.008 0.42049 0.0
C1383 C 0.31257 0.01714 0.39567 0.0
C1384 C 0.43063 1.0038 0.42498 0.0
C1385 C 0.37044 1.00788 0.42197 0.0
C1386 C 0.45961 1.00697 0.43885 0.0
C1387 C 0.4591 0.01373 0.46535 0.0
C1388 C 0.40088 1.00706 0.43782 0.0
C1389 C 0.42873 0.01552 0.47815 0.0
C1390 C 0.34052 1.00361 0.43385 0.0
C1391 C 0.34311 0.01992 0.38356 0.0
N1392 N 0.40074 1.01238 0.46417 0.0
N1393 N 0.37089 0.01547 0.39695 0.0
H1394 H 0.81865 0.21298 0.44661 0.0
H1395 H 0.97001 0.26925 0.41072 0.0
H1396 H 0.82082 0.26713 0.47217 0.0
H1397 H 0.93286 0.22876 0.35784 0.0
H1398 H 0.91789 0.27018 0.43358 0.0
H1399 H 0.86451 0.21856 0.41692 0.0
C1400 C 0.82918 0.22602 0.44641 0.0
C1401 C 0.81587 0.23962 0.46205 0.0
C1402 C 0.921 0.26143 0.41651 0.0
C1403 C 0.86841 0.24615 0.42742 0.0
C1404 C 0.95101 0.26087 0.40312 0.0
C1405 C 0.95682 0.2483 0.38276 0.0
C1406 C 0.89679 0.2493 0.40959 0.0
C1407 C 0.93014 0.23823 0.374 0.0
C1408 C 0.85501 0.22927 0.42897 0.0
C1409 C 0.83031 0.25631 0.4604 0.0
N1410 N 0.90165 0.23857 0.38795 0.0
N1411 N 0.8561 0.25912 0.44346 0.0
H1412 H 0.48081 0.27251 0.92742 0.0
H1413 H 0.34388 0.24877 1.00069 0.0
H1414 H 0.42585 0.24574 0.86537 0.0
H1415 H 0.29034 0.26415 0.92929 0.0
H1416 H 0.39475 0.25626 0.97706 0.0
H1417 H 0.43072 0.27775 0.95217 0.0
C1418 C 0.45834 0.26824 0.91827 0.0
C1419 C 0.45796 0.25829 0.89425 0.0
C1420 C 0.37167 0.25853 0.96699 0.0
C1421 C 0.40025 0.26437 0.92296 0.0
C1422 C 0.3427 0.25426 0.98045 0.0
C1423 C 0.31266 0.25592 0.96713 0.0
C1424 C 0.37052 0.26398 0.93977 0.0
C1425 C 0.31263 0.26281 0.94065 0.0
C1426 C 0.42966 0.27109 0.93282 0.0
C1427 C 0.42748 0.25319 0.88397 0.0
N1428 N 0.34112 0.2661 0.92759 0.0
N1429 N 0.39985 0.25615 0.8985 0.0
H1430 H 0.9806 1.00159 0.92926 0.0
H1431 H 0.84392 0.02761 0.85968 0.0
H1432 H 0.92411 0.02571 0.99297 0.0
H1433 H 0.78987 1.00659 0.92746 0.0
H1434 H 0.89454 0.01867 0.88214 0.0
H1435 H 0.93077 0.99556 0.90468 0.0
C1436 C 0.9579 1.00505 0.93884 0.0
C1437 C 0.95691 0.01462 0.96322 0.0
C1438 C 0.87141 0.01551 0.89156 0.0
C1439 C 0.89954 1.00756 0.93475 0.0
C1440 C 0.84255 0.02062 0.87878 0.0
C1441 C 0.81241 0.01804 0.89165 0.0
C1442 C 0.87009 1.00823 0.91772 0.0
C1443 C 0.8122 1.00896 0.91654 0.0
C1444 C 0.92935 1.00172 0.92441 0.0
C1445 C 0.92616 0.01863 0.97406 0.0
N1446 N 0.84062 1.00496 0.9292 0.0
N1447 N 0.89866 0.01528 0.95958 0.0
H1448 H 0.595 1.00083 0.60599 0.0
H1449 H 0.73518 0.01799 0.67697 0.0
H1450 H 0.54382 0.01988 0.67641 0.0
H1451 H 0.67532 0.99963 0.7432 0.0
H1452 H 0.68651 0.02517 0.65158 0.0
H1453 H 0.64666 1.00679 0.62906 0.0
C1454 C 0.59458 1.00686 0.62585 0.0
C1455 C 0.56487 1.00989 0.63911 0.0
C1456 C 0.68407 0.01992 0.67189 0.0
C1457 C 0.62372 0.01634 0.6659 0.0
C1458 C 0.71199 0.01606 0.68681 0.0
C1459 C 0.7096 1.00811 0.71252 0.0
C1460 C 0.65344 0.0159 0.68273 0.0
C1461 C 0.67835 1.00564 0.72346 0.0
C1462 C 0.62405 1.01026 0.63902 0.0
C1463 C 0.56581 0.01745 0.66509 0.0
N1464 N 0.65144 1.00938 0.70841 0.0
N1465 N 0.5947 0.01993 0.67792 0.0
H1466 H 0.18011 0.77977 0.61136 0.0
H1467 H 0.0418 0.7544 0.68038 0.0
H1468 H 0.23252 0.75785 0.67929 0.0
H1469 H 0.09798 0.77907 0.74374 0.0
H1470 H 0.0918 0.74817 0.65605 0.0
H1471 H 0.12886 0.77149 0.63354 0.0
C1472 C 0.18098 0.77273 0.63044 0.0
C1473 C 0.21087 0.76971 0.64345 0.0
C1474 C 0.0931 0.75448 0.67566 0.0
C1475 C 0.15251 0.76068 0.66919 0.0
C1476 C 0.06447 0.75794 0.68992 0.0
C1477 C 0.06535 0.76767 0.71415 0.0
C1478 C 0.12287 0.76035 0.68603 0.0
C1479 C 0.09603 0.77182 0.72497 0.0
C1480 C 0.15176 0.76801 0.64307 0.0
C1481 C 0.21042 0.76058 0.6683 0.0
N1482 N 0.12362 0.76831 0.71068 0.0
N1483 N 0.1817 0.75697 0.68081 0.0
H1484 H 0.59613 0.78027 0.24946 0.0
H1485 H 0.73711 0.75923 0.18248 0.0
H1486 H 0.5461 0.75501 0.18321 0.0
H1487 H 0.67799 0.77585 0.11479 0.0
H1488 H 0.68812 0.75252 0.20786 0.0
H1489 H 0.64807 0.77342 0.2275 0.0
C1490 C 0.59599 0.77281 0.23079 0.0
C1491 C 0.56645 0.76843 0.21818 0.0
C1492 C 0.68595 0.7572 0.1872 0.0
C1493 C 0.62568 0.76093 0.19265 0.0
C1494 C 0.71404 0.76083 0.17233 0.0
C1495 C 0.71192 0.76822 0.14623 0.0
C1496 C 0.65545 0.76083 0.17587 0.0
C1497 C 0.6808 0.77027 0.13485 0.0
C1498 C 0.62564 0.7689 0.21827 0.0
C1499 C 0.56787 0.75881 0.19387 0.0
N1500 N 0.6537 0.76675 0.14985 0.0
N1501 N 0.59693 0.75591 0.18145 0.0
H1502 H 0.20374 0.9661 0.19889 0.0
H1503 H 0.0508 0.01996 0.16759 0.0
H1504 H 0.20308 0.01987 0.22627 0.0
H1505 H 0.09404 0.98623 0.10718 0.0
H1506 H 0.10247 0.02113 0.19104 0.0
H1507 H 0.158 0.97251 0.16928 0.0
C1508 C 0.19353 0.97921 0.19912 0.0
C1509 C 0.20716 0.99248 0.21523 0.0
C1510 C 0.10081 0.01394 0.17219 0.0
C1511 C 0.15487 0.99991 0.18091 0.0
C1512 C 0.07112 1.01335 0.15837 0.0
C1513 C 0.06741 1.00268 0.13527 0.0
C1514 C 0.12667 1.00352 0.1632 0.0
C1515 C 0.09539 0.99434 0.12512 0.0
C1516 C 0.16782 0.98292 0.18178 0.0
C1517 C 0.1932 1.0093 0.21418 0.0
N1518 N 0.12354 0.9945 0.13957 0.0
N1519 N 0.16746 1.01254 0.19742 0.0
H1520 H 0.32026 0.50928 0.88379 0.0
H1521 H 0.43026 0.54191 1.00656 0.0
H1522 H 0.32047 0.56194 0.91585 0.0
H1523 H 0.47192 0.5092 0.9441 0.0
H1524 H 0.37822 0.54095 0.98254 0.0
H1525 H 0.36716 0.50224 0.91337 0.0
C1526 C 0.33028 0.51934 0.89682 0.0
C1527 C 0.31667 0.53625 0.89718 0.0
C1528 C 0.39872 0.53361 0.97462 0.0
C1529 C 0.36859 0.5281 0.93163 0.0
C1530 C 0.42837 0.53402 0.98839 0.0
C1531 C 0.45609 0.52595 0.97727 0.0
C1532 C 0.39659 0.52488 0.94971 0.0
C1533 C 0.45181 0.51575 0.95373 0.0
C1534 C 0.3567 0.51529 0.91375 0.0
C1535 C 0.33045 0.54882 0.91452 0.0
N1536 N 0.42277 0.51577 0.94045 0.0
N1537 N 0.35531 0.54443 0.93124 0.0
H1538 H 0.8438 0.73095 1.00182 0.0
H1539 H 0.94921 0.77403 0.88352 0.0
H1540 H 0.8012 0.76951 0.94813 0.0
H1541 H 0.95356 0.71989 0.90924 0.0
H1542 H 0.90301 0.77857 0.91496 0.0
H1543 H 0.8955 0.73459 0.97812 0.0
C1544 C 0.84531 0.74055 0.98564 0.0
C1545 C 0.81729 0.7493 0.97641 0.0
C1546 C 0.91429 0.76575 0.91352 0.0
C1547 C 0.87647 0.75346 0.94919 0.0
C1548 C 0.94024 0.76312 0.89548 0.0
C1549 C 0.95494 0.74653 0.89353 0.0
C1550 C 0.90395 0.75182 0.93012 0.0
C1551 C 0.94267 0.73283 0.90965 0.0
C1552 C 0.87481 0.74251 0.97201 0.0
C1553 C 0.82132 0.76198 0.9558 0.0
N1554 N 0.91821 0.73583 0.92742 0.0
N1555 N 0.85018 0.76336 0.9424 0.0
H1556 H 0.34629 0.74722 0.49767 0.0
H1557 H 0.48435 0.77298 0.43007 0.0
H1558 H 0.2932 0.77053 0.43124 0.0
H1559 H 0.42715 0.75434 0.36259 0.0
H1560 H 0.43473 0.77795 0.45547 0.0
H1561 H 0.39729 0.75565 0.47536 0.0
C1562 C 0.34525 0.75458 0.47888 0.0
C1563 C 0.3152 0.75803 0.46641 0.0
C1564 C 0.43308 0.7732 0.43484 0.0
C1565 C 0.37337 0.76733 0.44045 0.0
C1566 C 0.46152 0.77056 0.41995 0.0
C1567 C 0.46025 0.76304 0.39395 0.0
C1568 C 0.40304 0.7685 0.42361 0.0
C1569 C 0.42938 0.76001 0.3826 0.0
C1570 C 0.37435 0.7594 0.46616 0.0
C1571 C 0.31543 0.76752 0.44187 0.0
N1572 N 0.40195 0.76257 0.39761 0.0
N1573 N 0.34405 0.77132 0.42928 0.0
H1574 H 0.84029 0.55024 0.35848 0.0
H1575 H 0.94974 0.5092 0.47614 0.0
H1576 H 0.80154 0.51068 0.41252 0.0
H1577 H 0.95391 0.5628 0.44777 0.0
H1578 H 0.90287 0.50412 0.44569 0.0
H1579 H 0.8925 0.54788 0.38169 0.0
C1580 C 0.84275 0.54072 0.3747 0.0
C1581 C 0.81561 0.53123 0.38407 0.0
C1582 C 0.91425 0.51694 0.44631 0.0
C1583 C 0.87546 0.52858 0.41082 0.0
C1584 C 0.94067 0.51988 0.46376 0.0
C1585 C 0.95556 0.53647 0.46468 0.0
C1586 C 0.90349 0.53058 0.42931 0.0
C1587 C 0.94296 0.54988 0.44815 0.0
C1588 C 0.87256 0.53951 0.38806 0.0
C1589 C 0.82093 0.51873 0.40473 0.0
N1590 N 0.91797 0.54658 0.43101 0.0
N1591 N 0.85005 0.51806 0.41786 0.0
H1592 H 0.68044 0.47563 0.2485 0.0
H1593 H 0.57217 0.52017 0.13306 0.0
H1594 H 0.72022 0.51618 0.19676 0.0
H1595 H 0.56615 0.466 0.15843 0.0
H1596 H 0.61944 0.52402 0.16355 0.0
H1597 H 0.62857 0.47859 0.22494 0.0
C1598 C 0.67829 0.48546 0.23271 0.0
C1599 C 0.7056 0.49514 0.22416 0.0
C1600 C 0.6076 0.51135 0.16225 0.0
C1601 C 0.64608 0.4985 0.197 0.0
C1602 C 0.58095 0.50911 0.14477 0.0
C1603 C 0.56547 0.49271 0.14297 0.0
C1604 C 0.61796 0.49721 0.17842 0.0
C1605 C 0.57761 0.47881 0.15874 0.0
C1606 C 0.64867 0.48703 0.21915 0.0
C1607 C 0.70067 0.50803 0.204 0.0
N1608 N 0.60283 0.48142 0.17593 0.0
N1609 N 0.6717 0.50907 0.19069 0.0
H1610 H 0.04154 0.2524 0.1794 0.0
H1611 H 0.17806 0.27747 0.10829 0.0
H1612 H 0.09928 0.27638 0.24243 0.0
H1613 H 0.23234 0.25607 0.17559 0.0
H1614 H 0.12746 0.26907 0.13133 0.0
H1615 H 0.09094 0.24615 0.15431 0.0
C1616 C 0.06443 0.25579 0.18872 0.0
C1617 C 0.0659 0.26535 0.21308 0.0
C1618 C 0.15061 0.26571 0.14054 0.0
C1619 C 0.12278 0.25805 0.18402 0.0
C1620 C 0.17947 0.27051 0.12742 0.0
C1621 C 0.2097 0.26767 0.13997 0.0
C1622 C 0.15205 0.25849 0.16672 0.0
C1623 C 0.20994 0.25865 0.16492 0.0
C1624 C 0.09273 0.25233 0.174 0.0
C1625 C 0.09686 0.26928 0.22356 0.0
N1626 N 0.18156 0.25496 0.17791 0.0
N1627 N 0.12411 0.26581 0.20881 0.0
H1628 H 0.57314 0.25421 0.72623 0.0
H1629 H 0.68077 0.29914 0.61091 0.0
H1630 H 0.56892 0.30881 0.70298 0.0
H1631 H 0.72238 0.25946 0.6632 0.0
H1632 H 0.62914 0.29575 0.63478 0.0
H1633 H 0.62035 0.25044 0.69558 0.0
C1634 C 0.58232 0.26538 0.71497 0.0
C1635 C 0.56735 0.28187 0.71739 0.0
C1636 C 0.6496 0.28757 0.64058 0.0
C1637 C 0.61965 0.27748 0.68172 0.0
C1638 C 0.67908 0.28939 0.62686 0.0
C1639 C 0.70682 0.28012 0.6355 0.0
C1640 C 0.64757 0.27624 0.66294 0.0
C1641 C 0.70248 0.26732 0.65589 0.0
C1642 C 0.60891 0.26319 0.6974 0.0
C1643 C 0.57997 0.29592 0.70218 0.0
N1644 N 0.67361 0.26602 0.66933 0.0
N1645 N 0.60506 0.29335 0.68484 0.0
H1646 H 0.09273 0.48747 0.60477 0.0
H1647 H 0.20221 0.52018 0.72768 0.0
H1648 H 0.0503 0.51984 0.66729 0.0
H1649 H 0.20147 0.46737 0.69619 0.0
H1650 H 0.15542 0.52723 0.69797 0.0
H1651 H 0.14466 0.48862 0.62893 0.0
C1652 C 0.09442 0.49534 0.62298 0.0
C1653 C 0.06653 0.50322 0.6341 0.0
C1654 C 0.16575 0.51415 0.69775 0.0
C1655 C 0.1259 0.50452 0.6618 0.0
C1656 C 0.1921 0.51009 0.71476 0.0
C1657 C 0.20553 0.49314 0.71458 0.0
C1658 C 0.15377 0.5013 0.67998 0.0
C1659 C 0.19163 0.48053 0.69737 0.0
C1660 C 0.12401 0.49586 0.63682 0.0
C1661 C 0.07056 0.51341 0.65768 0.0
N1662 N 0.16687 0.48493 0.68057 0.0
N1663 N 0.09954 0.5135 0.67104 0.0
H1664 H 0.94983 0.98147 0.59209 0.0
H1665 H 0.07077 0.04828 0.51742 0.0
H1666 H 0.96721 0.0345 0.61928 0.0
H1667 H 0.0476 0.99663 0.48707 0.0
H1668 H 0.03369 0.04332 0.55536 0.0
H1669 H 0.98669 0.98656 0.55408 0.0
C1670 C 0.96149 0.99418 0.59012 0.0
C1671 C 0.95548 1.00759 0.6089 0.0
C1672 C 0.03666 0.03309 0.54036 0.0
C1673 C 0.9976 1.01351 0.56538 0.0
C1674 C 0.05781 0.03591 0.51868 0.0
C1675 C 0.06227 0.02284 0.49904 0.0
C1676 C 0.01993 0.01706 0.54247 0.0
C1677 C 0.04488 1.00707 0.50173 0.0
C1678 C 0.98246 0.99709 0.56836 0.0
C1679 C 0.97115 0.02379 0.60528 0.0
N1680 N 0.02452 1.00461 0.52308 0.0
N1681 N 0.99152 0.0263 0.58393 0.0
H1682 H 0.30294 0.24228 0.61833 0.0
H1683 H 0.22987 0.28689 0.48455 0.0
H1684 H 0.32735 0.29472 0.59174 0.0
H1685 H 0.1995 0.23629 0.51516 0.0
H1686 H 0.2671 0.28968 0.52294 0.0
H1687 H 0.2661 0.23948 0.57974 0.0
C1688 C 0.30053 0.2532 0.6044 0.0
C1689 C 0.31816 0.26876 0.60828 0.0
C1690 C 0.25227 0.27797 0.52123 0.0
C1691 C 0.27616 0.26565 0.5641 0.0
C1692 C 0.23105 0.27637 0.49932 0.0
C1693 C 0.21158 0.26134 0.49666 0.0
C1694 C 0.25404 0.26443 0.54055 0.0
C1695 C 0.21406 0.24811 0.51639 0.0
C1696 C 0.27949 0.25161 0.58238 0.0
C1697 C 0.31414 0.2825 0.58958 0.0
N1698 N 0.23493 0.24997 0.53749 0.0
N1699 N 0.29357 0.28061 0.56827 0.0
H1700 H 0.95114 0.29499 0.7652 0.0
H1701 H 0.07463 0.23046 0.84149 0.0
H1702 H 0.97814 0.24388 0.73492 0.0
H1703 H 0.05191 0.28279 0.86914 0.0
H1704 H 0.03845 0.23486 0.80286 0.0
H1705 H 0.98724 0.29053 0.80383 0.0
C1706 C 0.96472 0.28284 0.76664 0.0
C1707 C 0.96165 0.26979 0.74678 0.0
C1708 C 0.04135 0.24538 0.81738 0.0
C1709 C 1.00294 0.26457 0.79105 0.0
C1710 C 0.06195 0.24287 0.83949 0.0
C1711 C 0.06626 0.25628 0.85859 0.0
C1712 C 0.02489 0.26141 0.81435 0.0
C1713 C 0.0493 0.27209 0.85491 0.0
C1714 C 0.98532 0.2803 0.78873 0.0
C1715 C 0.97979 0.2543 0.74973 0.0
N1716 N 0.02935 0.27422 0.83321 0.0
N1717 N 0.99965 0.25211 0.77149 0.0
H1718 H 0.22625 0.99387 0.87193 0.0
H1719 H 0.30199 0.03776 0.73855 0.0
H1720 H 0.198 0.04487 0.84163 0.0
H1721 H 0.32518 0.98538 0.76612 0.0
H1722 H 0.26482 0.04099 0.7769 0.0
H1723 H 0.26398 0.99092 0.83396 0.0
C1724 C 0.22803 1.00446 0.85733 0.0
C1725 C 0.20896 0.01963 0.85993 0.0
C1726 C 0.27802 0.02879 0.77452 0.0
C1727 C 0.252 0.01634 0.81644 0.0
C1728 C 0.29923 0.02693 0.75264 0.0
C1729 C 0.31663 1.01127 0.74911 0.0
C1730 C 0.27429 0.01488 0.79301 0.0
C1731 C 0.31216 0.99768 0.768 0.0
C1732 C 0.24954 1.00276 0.83563 0.0
C1733 C 0.21224 0.03294 0.8404 0.0
N1734 N 0.29144 0.99981 0.78915 0.0
N1735 N 0.23335 0.03098 0.81947 0.0
H1736 H 0.79586 0.74107 0.62517 0.0
H1737 H 0.71964 0.78426 0.49155 0.0
H1738 H 0.82177 0.79254 0.59525 0.0
H1739 H 0.69717 0.73178 0.5191 0.0
H1740 H 0.75649 0.78773 0.52997 0.0
H1741 H 0.75858 0.73764 0.58698 0.0
C1742 C 0.79366 0.75166 0.61061 0.0
C1743 C 0.81193 0.76711 0.61338 0.0
C1744 C 0.74353 0.77545 0.52759 0.0
C1745 C 0.76944 0.76327 0.56966 0.0
C1746 C 0.72251 0.77346 0.50565 0.0
C1747 C 0.70537 0.7577 0.50211 0.0
C1748 C 0.74739 0.76159 0.54613 0.0
C1749 C 0.70998 0.74414 0.52101 0.0
C1750 C 0.77241 0.74969 0.5888 0.0
C1751 C 0.80814 0.78041 0.59391 0.0
N1752 N 0.73054 0.74641 0.54224 0.0
N1753 N 0.78732 0.77817 0.57287 0.0
H1754 H 0.9507 0.79836 0.26837 0.0
H1755 H 0.07262 0.73229 0.34331 0.0
H1756 H 0.96984 0.74554 0.24106 0.0
H1757 H 0.04873 0.78385 0.37358 0.0
H1758 H 0.03579 0.73712 0.30524 0.0
H1759 H 0.98756 0.79356 0.30647 0.0
C1760 C 0.96274 0.78577 0.27033 0.0
C1761 C 0.95722 0.77233 0.25149 0.0
C1762 C 0.03855 0.74737 0.32023 0.0
C1763 C 0.99934 0.76674 0.29509 0.0
C1764 C 0.05956 0.74462 0.34199 0.0
C1765 C 0.06373 0.75769 0.36167 0.0
C1766 C 0.02164 0.76333 0.31806 0.0
C1767 C 0.04623 0.77341 0.35889 0.0
C1768 C 0.98372 0.78303 0.29213 0.0
C1769 C 0.97338 0.75627 0.25509 0.0
N1770 N 0.02597 0.7758 0.33746 0.0
N1771 N 0.99372 0.75392 0.27648 0.0
H1772 H 0.70084 0.04814 0.34377 0.0
H1773 H 0.82255 0.9848 0.26384 0.0
H1774 H 0.71938 0.99426 0.36636 0.0
H1775 H 0.80492 0.03875 0.2411 0.0
H1776 H 0.78493 0.98815 0.30164 0.0
H1777 H 0.73917 0.0451 0.30627 0.0
C1778 C 0.71304 0.03568 0.34089 0.0
C1779 C 0.70693 0.02142 0.35821 0.0
C1780 C 0.78925 0.99927 0.2884 0.0
C1781 C 0.75071 0.01785 0.3153 0.0
C1782 C 0.81071 0.99736 0.26677 0.0
C1783 C 0.81681 1.01152 0.24926 0.0
C1784 C 0.77374 0.01545 0.29258 0.0
C1785 C 0.80088 0.02749 0.25409 0.0
C1786 C 0.73489 0.03395 0.31945 0.0
C1787 C 0.72337 1.00559 0.3535 0.0
N1788 N 0.78002 0.02902 0.27533 0.0
N1789 N 0.7445 1.00423 0.33246 0.0
H1790 H 0.04087 0.49685 0.98387 0.0
H1791 H 0.98019 0.53354 0.12715 0.0
H1792 H 0.07575 0.54506 1.01946 0.0
H1793 H 0.94586 0.48518 0.09167 0.0
H1794 H 0.01527 0.53809 0.08774 0.0
H1795 H 1.00549 0.49247 1.02311 0.0
C1796 C 0.04104 0.50653 0.9999 0.0
C1797 C 0.06127 0.52134 0.99839 0.0
C1798 C 1.00008 0.52648 0.0886 0.0
C1799 C 0.02094 0.5164 1.04336 0.0
C1800 C 0.98007 0.52387 0.11111 0.0
C1801 C 0.96012 0.50895 0.11272 0.0
C1802 C 1.00009 0.51408 0.06757 0.0
C1803 C 0.9609 0.49686 0.09132 0.0
C1804 C 0.02085 0.50402 1.02231 0.0
C1805 C 0.06051 0.53346 1.01976 0.0
N1806 N 0.98055 0.49969 0.06963 0.0
N1807 N 0.04069 0.53071 1.04138 0.0
H1808 H 0.29401 0.74269 0.12348 0.0
H1809 H 0.22032 0.78796 0.99045 0.0
H1810 H 0.32425 0.79352 0.09369 0.0
H1811 H 0.19597 0.73548 1.01688 0.0
H1812 H 0.25724 0.7907 1.02904 0.0
H1813 H 0.25641 0.74025 0.08534 0.0
C1814 C 0.2927 0.75335 0.10895 0.0
C1815 C 0.31228 0.76832 0.11175 0.0
C1816 C 0.24384 0.77858 1.02636 0.0
C1817 C 0.26939 0.76562 0.06809 0.0
C1818 C 0.22276 0.77702 1.00434 0.0
C1819 C 0.20514 0.76146 1.00041 0.0
C1820 C 0.24719 0.7645 1.04458 0.0
C1821 C 0.20918 0.74769 1.01906 0.0
C1822 C 0.27127 0.75194 0.08716 0.0
C1823 C 0.3096 0.78173 0.09232 0.0
N1824 N 0.22978 0.74955 1.04034 0.0
N1825 N 0.28855 0.78006 0.0713 0.0
H1826 H 0.29847 0.53619 0.23915 0.0
H1827 H 0.23026 0.49266 0.37568 0.0
H1828 H 0.32596 0.4846 0.26746 0.0
H1829 H 0.19735 0.54252 0.34411 0.0
H1830 H 0.2668 0.48983 0.33682 0.0
H1831 H 0.26237 0.53914 0.27826 0.0
C1832 C 0.29689 0.52548 0.25356 0.0
C1833 C 0.31517 0.51012 0.25002 0.0
C1834 C 0.25158 0.50139 0.33842 0.0
C1835 C 0.27404 0.5134 0.29479 0.0
C1836 C 0.23074 0.50301 0.36061 0.0
C1837 C 0.21075 0.51784 0.36313 0.0
C1838 C 0.25242 0.5147 0.31868 0.0
C1839 C 0.21235 0.53085 0.34299 0.0
C1840 C 0.27628 0.52716 0.27588 0.0
C1841 C 0.31222 0.49666 0.26934 0.0
N1842 N 0.23284 0.52898 0.32162 0.0
N1843 N 0.29206 0.49862 0.29091 0.0
H1844 H 0.82923 0.29476 0.09126 0.0
H1845 H 0.69582 0.23577 1.01636 0.0
H1846 H 0.79227 0.24585 0.12335 0.0
H1847 H 0.73238 0.28475 0.9842 0.0
H1848 H 0.73102 0.23929 0.05571 0.0
H1849 H 0.79365 0.29145 1.05205 0.0
C1850 C 0.81354 0.28334 0.09011 0.0
C1851 C 0.8137 0.27055 0.11062 0.0
C1852 C 0.73139 0.24927 1.04005 0.0
C1853 C 0.77302 0.26666 0.06572 0.0
C1854 C 0.71133 0.24726 1.01753 0.0
C1855 C 0.71121 0.25999 0.99694 0.0
C1856 C 0.75149 0.26412 1.04203 0.0
C1857 C 0.73173 0.27461 0.99959 0.0
C1858 C 0.79327 0.28146 0.06768 0.0
C1859 C 0.79294 0.25603 0.10802 0.0
N1860 N 0.75106 0.27628 1.02176 0.0
N1861 N 0.77345 0.25447 0.08594 0.0
H1862 H 0.69833 0.54413 0.84578 0.0
H1863 H 0.82315 0.48325 0.76443 0.0
H1864 H 0.7219 0.49098 0.8692 0.0
H1865 H 0.79966 0.53644 0.74114 0.0
H1866 H 0.786 0.4858 0.80279 0.0
H1867 H 0.73527 0.54152 0.80731 0.0
C1868 C 0.71132 0.5319 0.84287 0.0
C1869 C 0.70706 0.51775 0.86077 0.0
C1870 C 0.78893 0.49691 0.78928 0.0
C1871 C 0.74937 0.51467 0.81668 0.0
C1872 C 0.81012 0.49547 0.76734 0.0
C1873 C 0.81449 0.50966 0.74951 0.0
C1874 C 0.77196 0.51266 0.79348 0.0
C1875 C 0.79703 0.52517 0.75435 0.0
C1876 C 0.7324 0.53043 0.82086 0.0
C1877 C 0.72446 0.50222 0.85593 0.0
N1878 N 0.77652 0.52625 0.77589 0.0
N1879 N 0.74487 0.5011 0.83432 0.0
H1880 H 0.44841 0.98189 0.08877 0.0
H1881 H 0.57222 0.04849 1.01711 0.0
H1882 H 0.467 0.03439 0.11782 0.0
H1883 H 0.54869 0.99715 0.98572 0.0
H1884 H 0.53418 0.04354 1.0544 0.0
H1885 H 0.48569 0.98719 1.05118 0.0
C1886 C 0.46039 0.99454 0.08727 0.0
C1887 C 0.45466 1.00772 0.10649 0.0
C1888 C 0.53729 0.03338 1.03932 0.0
C1889 C 0.49732 0.01387 0.06345 0.0
C1890 C 0.559 0.03619 1.01802 0.0
C1891 C 0.56362 0.0232 0.99828 0.0
C1892 C 0.52018 0.01745 1.04093 0.0
C1893 C 0.54588 1.00752 1.00049 0.0
C1894 C 0.48163 0.99756 0.06576 0.0
C1895 C 0.47074 0.02386 0.10347 0.0
N1896 N 0.52497 1.00507 1.02147 0.0
N1897 N 0.4914 0.02648 0.08234 0.0
H1898 H 0.44642 0.29622 0.26544 0.0
H1899 H 0.57696 0.23402 0.33804 0.0
H1900 H 0.48055 0.24725 0.23189 0.0
H1901 H 0.54304 0.2829 0.37206 0.0
H1902 H 0.54198 0.23881 0.29886 0.0
H1903 H 0.48214 0.29182 0.30438 0.0
C1904 C 0.46152 0.28457 0.26621 0.0
C1905 C 0.46051 0.27207 0.24538 0.0
C1906 C 0.54214 0.24849 0.31488 0.0
C1907 C 0.50132 0.26693 0.28995 0.0
C1908 C 0.56208 0.24575 0.33731 0.0
C1909 C 0.56286 0.25807 0.35839 0.0
C1910 C 0.52282 0.26366 0.31348 0.0
C1911 C 0.54316 0.27305 0.35629 0.0
C1912 C 0.48186 0.28205 0.28848 0.0
C1913 C 0.48053 0.25721 0.24748 0.0
N1914 N 0.52391 0.27543 0.3342 0.0
N1915 N 0.50009 0.25505 0.2694 0.0
H1916 H 0.44771 0.79794 0.77163 0.0
H1917 H 0.57758 0.73424 0.8419 0.0
H1918 H 0.47879 0.74853 0.73755 0.0
H1919 H 0.54711 0.78373 0.87607 0.0
H1920 H 0.54151 0.73933 0.80347 0.0
H1921 H 0.48424 0.7931 0.80991 0.0
C1922 C 0.46229 0.7861 0.77215 0.0
C1923 C 0.46022 0.77361 0.75136 0.0
C1924 C 0.54268 0.74907 0.81937 0.0
C1925 C 0.50196 0.76798 0.79516 0.0
C1926 C 0.56324 0.74617 0.84136 0.0
C1927 C 0.56531 0.75858 0.86225 0.0
C1928 C 0.52403 0.7645 0.81824 0.0
C1929 C 0.54624 0.77381 0.86042 0.0
C1930 C 0.48311 0.78334 0.79404 0.0
C1931 C 0.47962 0.7585 0.75313 0.0
N1932 N 0.52638 0.77635 0.83877 0.0
N1933 N 0.49966 0.7561 0.77468 0.0
H1934 H 0.44523 0.48269 0.59183 0.0
H1935 H 0.57789 0.54391 0.51984 0.0
H1936 H 0.48168 0.53088 0.62645 0.0
H1937 H 0.54168 0.49568 0.48521 0.0
H1938 H 0.54283 0.53931 0.55907 0.0
H1939 H 0.48065 0.48713 0.55275 0.0
C1940 C 0.46077 0.49419 0.59126 0.0
C1941 C 0.46053 0.50644 0.61245 0.0
C1942 C 0.54252 0.52973 0.5429 0.0
C1943 C 0.50105 0.51161 0.5677 0.0
C1944 C 0.5625 0.53236 0.52045 0.0
C1945 C 0.56266 0.52015 0.49919 0.0
C1946 C 0.52253 0.5148 0.54413 0.0
C1947 C 0.5423 0.50542 0.50113 0.0
C1948 C 0.48096 0.49672 0.56891 0.0
C1949 C 0.4811 0.5211 0.61058 0.0
N1950 N 0.52303 0.50315 0.52324 0.0
N1951 N 0.50052 0.52329 0.58855 0.0
H1952 H 0.39252 1.00514 0.58273 0.0
H1953 H 0.21338 0.03809 0.53898 0.0
H1954 H 0.31802 0.01893 0.64057 0.0
H1955 H 0.28129 0.01406 0.48372 0.0
H1956 H 0.25257 0.03361 0.57593 0.0
H1957 H 0.35413 1.01138 0.5459 0.0
C1958 C 0.36828 1.0097 0.58778 0.0
C1959 C 0.35875 1.01148 0.61505 0.0
C1960 C 0.25889 0.02929 0.55572 0.0
C1961 C 0.31416 0.01857 0.57255 0.0
C1962 C 0.2363 0.03168 0.53458 0.0
C1963 C 0.24363 0.02624 0.50804 0.0
C1964 C 0.28942 0.02156 0.55043 0.0
C1965 C 0.27445 0.01858 0.50369 0.0
C1966 C 0.3462 1.01316 0.56664 0.0
C1967 C 0.32669 0.01734 0.62001 0.0
N1968 N 0.29604 0.01649 0.5245 0.0
N1969 N 0.3057 0.02062 0.5991 0.0
H1970 H 0.95697 0.26256 0.63793 0.0
H1971 H 0.99033 0.26749 0.47743 0.0
H1972 H 0.88413 0.27872 0.58007 0.0
H1973 H 0.05858 0.24521 0.53421 0.0
H1974 H 0.9514 0.27176 0.51452 0.0
H1975 H 0.99424 0.25614 0.60049 0.0
C1976 C 0.94857 0.2646 0.61737 0.0
C1977 C 0.91705 0.2712 0.6124 0.0
C1978 C 0.97489 0.26596 0.51894 0.0
C1979 C 0.96032 0.26404 0.56898 0.0
C1980 C 0.99719 0.26345 0.49768 0.0
C1981 C 0.02812 0.25609 0.50252 0.0
C1982 C 0.98335 0.26115 0.54557 0.0
C1983 C 0.03549 0.25131 0.5294 0.0
C1984 C 0.97004 0.26097 0.59591 0.0
C1985 C 0.90797 0.27359 0.58511 0.0
N1986 N 0.01343 0.25395 0.54978 0.0
N1987 N 0.92945 0.27014 0.56459 0.0
H1988 H 0.31308 0.2786 0.72247 0.0
H1989 H 0.27134 0.22464 0.85498 0.0
H1990 H 0.39114 0.25569 0.76911 0.0
H1991 H 0.22464 0.27432 0.83928 0.0
H1992 H 0.31037 0.23086 0.81873 0.0
H1993 H 0.27511 0.27191 0.75941 0.0
C1994 C 0.32225 0.27191 0.74029 0.0
C1995 C 0.35557 0.26765 0.74246 0.0
C1996 C 0.29159 0.24039 0.8233 0.0
C1997 C 0.31164 0.25975 0.78496 0.0
C1998 C 0.26933 0.23697 0.84432 0.0
C1999 C 0.24469 0.24912 0.85095 0.0
C2000 C 0.28875 0.25582 0.80793 0.0
C2001 C 0.24285 0.26444 0.83497 0.0
C2002 C 0.3005 0.26824 0.76148 0.0
C2003 C 0.36579 0.25921 0.76641 0.0
N2004 N 0.26427 0.26727 0.81418 0.0
N2005 N 0.34391 0.25538 0.78656 0.0
H2006 H 0.0571 0.03367 0.81991 0.0
H2007 H 0.87889 0.99982 0.77486 0.0
H2008 H 0.98825 1.01027 0.87522 0.0
H2009 H 0.95366 0.0147 0.71779 0.0
H2010 H 0.91661 1.00626 0.81209 0.0
H2011 H 0.01838 0.02897 0.78276 0.0
C2012 C 0.03406 0.02736 0.8243 0.0
C2013 C 0.02636 0.02217 0.85092 0.0
C2014 C 0.92474 1.00823 0.79143 0.0
C2015 C 0.98107 0.01718 0.8082 0.0
C2016 C 0.90305 1.00465 0.77006 0.0
C2017 C 0.91283 1.00669 0.74287 0.0
C2018 C 0.95667 0.014 0.78585 0.0
C2019 C 0.94477 1.01289 0.73826 0.0
C2020 C 0.01172 0.02483 0.80302 0.0
C2021 C 0.99539 0.01462 0.8552 0.0
N2022 N 0.96538 0.01627 0.75937 0.0
N2023 N 0.97406 1.01237 0.83422 0.0
H2024 H 0.79996 0.02535 0.58716 0.0
H2025 H 0.62945 1.00622 0.51687 0.0
H2026 H 0.74978 0.97662 0.60271 0.0
H2027 H 0.70865 0.02945 0.47188 0.0
H2028 H 0.66807 0.99912 0.55368 0.0
H2029 H 0.7623 0.03098 0.54937 0.0
C2030 C 0.78117 0.01579 0.58274 0.0
C2031 C 0.77818 1.00054 0.59873 0.0
C2032 C 0.67691 1.00569 0.53564 0.0
C2033 C 0.73388 1.00733 0.55588 0.0
C2034 C 0.65488 1.00976 0.51462 0.0
C2035 C 0.6657 0.0183 0.49096 0.0
C2036 C 0.70986 1.01072 0.53349 0.0
C2037 C 0.69908 0.02266 0.48946 0.0
C2038 C 0.75951 0.01909 0.56123 0.0
C2039 C 0.75272 0.98886 0.59199 0.0
N2040 N 0.71973 0.01905 0.51043 0.0
N2041 N 0.73148 0.99258 0.57143 0.0
H2042 H 0.14249 0.75137 0.5273 0.0
H2043 H 0.96214 0.78237 0.57135 0.0
H2044 H 0.06653 0.7633 0.46977 0.0
H2045 H 0.03296 0.76177 0.62748 0.0
H2046 H 1.00092 0.77753 0.53422 0.0
H2047 H 0.10439 0.75773 0.56431 0.0
C2048 C 0.11797 0.75552 0.52234 0.0
C2049 C 0.10798 0.75677 0.49511 0.0
C2050 C 1.00799 0.77404 0.55466 0.0
C2051 C 0.06371 0.764 0.53783 0.0
C2052 C 0.98564 0.77665 0.57593 0.0
C2053 C 0.99392 0.77231 0.60279 0.0
C2054 C 0.0392 0.76717 0.56009 0.0
C2055 C 0.02539 0.76547 0.60728 0.0
C2056 C 0.09607 0.75906 0.54359 0.0
C2057 C 0.07558 0.76213 0.49029 0.0
N2058 N 0.0467 0.76314 0.58631 0.0
N2059 N 0.05477 0.76549 0.51129 0.0
H2060 H 0.75146 0.80198 0.25582 0.0
H2061 H 0.71038 0.74747 0.38871 0.0
H2062 H 0.80114 0.75344 0.2735 0.0
H2063 H 0.63337 0.77208 0.34294 0.0
H2064 H 0.74863 0.7542 0.35197 0.0
H2065 H 0.71267 0.79565 0.29216 0.0
C2066 C 0.75416 0.78986 0.26694 0.0
C2067 C 0.77951 0.77803 0.26077 0.0
C2068 C 0.72341 0.75821 0.35003 0.0
C2069 C 0.73566 0.77122 0.30395 0.0
C2070 C 0.70149 0.75451 0.37111 0.0
C2071 C 0.66838 0.75924 0.36915 0.0
C2072 C 0.71264 0.76719 0.32684 0.0
C2073 C 0.65855 0.76816 0.34549 0.0
C2074 C 0.73203 0.78638 0.28803 0.0
C2075 C 0.78227 0.76303 0.27738 0.0
N2076 N 0.68057 0.77198 0.32545 0.0
N2077 N 0.76087 0.76013 0.29819 0.0
H2078 H 0.97319 0.03014 0.26837 0.0
H2079 H 0.14164 1.00974 0.34195 0.0
H2080 H 0.02367 0.98147 0.25367 0.0
H2081 H 0.06258 0.03481 0.38446 0.0
H2082 H 0.10379 1.00286 0.30458 0.0
H2083 H 1.01012 0.03575 0.30661 0.0
C2084 C 0.99196 0.02061 0.27302 0.0
C2085 C 0.9952 1.00538 0.25714 0.0
C2086 C 0.09478 1.0098 0.32219 0.0
C2087 C 0.03861 1.0121 0.30063 0.0
C2088 C 0.11638 0.01374 0.34353 0.0
C2089 C 0.10538 0.02274 0.36666 0.0
C2090 C 0.0621 0.0154 0.32344 0.0
C2091 C 0.07225 0.02767 0.3673 0.0
C2092 C 0.01317 0.02389 0.29482 0.0
C2093 C 0.02057 0.99372 0.26421 0.0
N2094 N 0.05204 0.02415 0.34601 0.0
N2095 N 0.04134 0.99739 0.28511 0.0
H2096 H 0.28109 0.51411 0.98095 0.0
H2097 H 0.31589 0.51816 0.14105 0.0
H2098 H 0.21318 0.53654 1.03778 0.0
H2099 H 0.38889 0.50405 0.08209 0.0
H2100 H 0.27793 0.52473 0.10406 0.0
H2101 H 0.32027 0.50999 1.01777 0.0
C2102 C 0.27436 0.51824 1.00116 0.0
C2103 C 0.2435 0.52566 1.00605 0.0
C2104 C 0.30232 0.52033 0.09917 0.0
C2105 C 0.28856 0.52065 1.04889 0.0
C2106 C 0.32418 0.51661 0.12036 0.0
C2107 C 0.35594 0.51053 0.11493 0.0
C2108 C 0.31191 0.51781 0.07209 0.0
C2109 C 0.36487 0.50876 0.0875 0.0
C2110 C 0.29681 0.5158 1.02228 0.0
C2111 C 0.23624 0.53043 1.03293 0.0
N2112 N 0.34302 0.51223 0.06727 0.0
N2113 N 0.25846 0.52781 1.05323 0.0
H2114 H 0.87951 0.76019 0.09259 0.0
H2115 H 0.04791 0.77962 1.01899 0.0
H2116 H 0.96008 0.78296 0.13619 0.0
H2117 H 0.99765 0.7308 1.00456 0.0
H2118 H 1.01107 0.78515 0.05729 0.0
H2119 H 0.91701 0.75326 0.05495 0.0
C2120 C 0.90503 0.76365 0.09437 0.0
C2121 C 0.91657 0.77202 0.11788 0.0
C2122 C 1.00809 0.77327 1.04553 0.0
C2123 C 0.95942 0.76468 0.07436 0.0
C2124 C 0.02928 0.77001 1.02371 0.0
C2125 C 0.02623 0.75472 1.00792 0.0
C2126 C 0.98274 0.76144 1.05142 0.0
C2127 C 1.0008 0.74306 1.015 0.0
C2128 C 0.92641 0.75969 0.07286 0.0
C2129 C 0.95 0.7763 0.11875 0.0
N2130 N 0.98001 0.74672 1.03591 0.0
N2131 N 0.97001 0.77282 0.0973 0.0
H2132 H 0.28325 0.76389 0.37884 0.0
H2133 H 0.31809 0.75898 0.2188 0.0
H2134 H 0.21499 0.74186 0.32195 0.0
H2135 H 0.3911 0.77369 0.27737 0.0
H2136 H 0.28013 0.75277 0.2559 0.0
H2137 H 0.32259 0.76781 0.34203 0.0
C2138 C 0.27647 0.75984 0.35861 0.0
C2139 C 0.24544 0.75263 0.35367 0.0
C2140 C 0.30452 0.75722 0.2607 0.0
C2141 C 0.29071 0.7573 0.31091 0.0
C2142 C 0.32637 0.76074 0.23945 0.0
C2143 C 0.35813 0.76689 0.24474 0.0
C2144 C 0.3141 0.75998 0.28771 0.0
C2145 C 0.36707 0.76892 0.27211 0.0
C2146 C 0.29902 0.76214 0.3375 0.0
C2147 C 0.23816 0.74784 0.32682 0.0
N2148 N 0.34521 0.76561 0.29241 0.0
N2149 N 0.26048 0.7503 0.30655 0.0
H2150 H 0.06021 0.53315 0.32417 0.0
H2151 H 0.88098 0.50086 0.27916 0.0
H2152 H 0.98902 0.51256 0.38006 0.0
H2153 H 0.95701 0.51375 0.22209 0.0
H2154 H 0.91846 0.50764 0.31639 0.0
H2155 H 0.0218 0.52816 0.28687 0.0
C2156 C 0.03667 0.52743 0.32867 0.0
C2157 C 0.02819 0.52312 0.3555 0.0
C2158 C 0.92693 0.50908 0.29573 0.0
C2159 C 0.98335 0.51777 0.31259 0.0
C2160 C 0.90538 0.50531 0.27434 0.0
C2161 C 0.91558 0.50669 0.24717 0.0
C2162 C 0.95914 0.5144 0.29017 0.0
C2163 C 0.9478 0.51245 0.24255 0.0
C2164 C 0.01454 0.52472 0.30729 0.0
C2165 C 0.99672 0.51626 0.35988 0.0
N2166 N 0.96828 0.51602 0.26368 0.0
N2167 N 0.97562 0.5138 0.3388 0.0
H2168 H 0.74009 0.51343 0.13134 0.0
H2169 H 0.70589 0.50881 0.97095 0.0
H2170 H 0.80859 0.49162 0.07444 0.0
H2171 H 0.63312 0.52415 1.02936 0.0
H2172 H 0.74366 0.50251 1.00817 0.0
H2173 H 0.70103 0.51761 0.09436 0.0
C2174 C 0.74699 0.50948 0.11108 0.0
C2175 C 0.77801 0.50225 0.1062 0.0
C2176 C 0.71936 0.50713 1.0129 0.0
C2177 C 0.73304 0.50722 0.06323 0.0
C2178 C 0.69761 0.51069 0.99157 0.0
C2179 C 0.66595 0.51703 0.99676 0.0
C2180 C 0.70979 0.51001 1.03991 0.0
C2181 C 0.65706 0.51923 1.02413 0.0
C2182 C 0.7246 0.51193 0.08987 0.0
C2183 C 0.78541 0.4976 0.07929 0.0
N2184 N 0.67879 0.51586 1.0445 0.0
N2185 N 0.76325 0.50018 0.05895 0.0
H2186 H 0.14252 0.25037 1.02566 0.0
H2187 H 0.96376 0.28308 0.07096 0.0
H2188 H 0.06662 0.2632 0.96853 0.0
H2189 H 0.03389 0.26098 0.12633 0.0
H2190 H 1.00213 0.27816 1.03359 0.0
H2191 H 0.10493 0.25702 0.06287 0.0
C2192 C 0.11812 0.25479 1.02083 0.0
C2193 C 0.108 0.25619 0.99365 0.0
C2194 C 1.00914 0.27436 1.05391 0.0
C2195 C 0.06429 0.26375 1.03663 0.0
C2196 C 0.98702 0.27702 0.07533 0.0
C2197 C 0.9952 0.27226 0.10204 0.0
C2198 C 0.04005 0.26703 0.05906 0.0
C2199 C 0.02639 0.265 0.10625 0.0
C2200 C 0.0965 0.25848 1.0422 0.0
C2201 C 0.07577 0.2619 0.989 0.0
N2202 N 0.0475 0.26263 0.08515 0.0
N2203 N 0.05522 0.26541 1.01013 0.0
H2204 H 0.70612 0.2697 0.88827 0.0
H2205 H 0.74222 0.26314 0.72846 0.0
H2206 H 0.63388 0.25365 0.8299 0.0
H2207 H 0.80924 0.28661 0.78499 0.0
H2208 H 0.7028 0.2592 0.76527 0.0
H2209 H 0.74411 0.27576 0.85112 0.0
C2210 C 0.698 0.26762 0.86765 0.0
C2211 C 0.66643 0.26114 0.86245 0.0
C2212 C 0.72612 0.26519 0.76971 0.0
C2213 C 0.71056 0.26786 0.81941 0.0
C2214 C 0.74873 0.26749 0.74862 0.0
C2215 C 0.77942 0.27513 0.75345 0.0
C2216 C 0.73404 0.27046 0.7962 0.0
C2217 C 0.78633 0.2803 0.78021 0.0
C2218 C 0.71988 0.27105 0.84637 0.0
C2219 C 0.65773 0.25869 0.83511 0.0
N2220 N 0.76398 0.27785 0.80045 0.0
N2221 N 0.67963 0.26191 0.81478 0.0
H2222 H 0.97242 0.53061 0.76737 0.0
H2223 H 0.14203 0.51143 0.83926 0.0
H2224 H 0.0226 0.48185 0.75263 0.0
H2225 H 0.06205 0.53415 0.88369 0.0
H2226 H 0.10401 0.50456 0.80195 0.0
H2227 H 1.00979 0.53628 0.80531 0.0
C2228 C 0.9912 0.52107 0.77195 0.0
C2229 C 0.99423 0.5058 0.75614 0.0
C2230 C 0.09487 0.51099 0.81997 0.0
C2231 C 0.03819 0.51262 0.79919 0.0
C2232 C 0.11656 0.51492 0.84127 0.0
C2233 C 0.10532 0.52323 0.86492 0.0
C2234 C 0.06187 0.51594 0.82183 0.0
C2235 C 0.07191 0.52754 0.86611 0.0
C2236 C 0.01267 0.52439 0.79355 0.0
C2237 C 0.01966 0.49414 0.7631 0.0
N2238 N 0.05161 0.52407 0.84487 0.0
N2239 N 0.04071 0.49786 0.78377 0.0
H2240 H 0.81945 0.02094 0.14074 0.0
H2241 H 0.78302 0.01459 0.98104 0.0
H2242 H 0.89108 1.00432 0.0822 0.0
H2243 H 0.71671 0.03864 1.03758 0.0
H2244 H 0.82245 1.01054 1.01774 0.0
H2245 H 0.78164 0.02742 0.10365 0.0
C2246 C 0.82748 0.01883 0.1201 0.0
C2247 C 0.85881 1.01206 0.11483 0.0
C2248 C 0.79928 0.01668 1.02221 0.0
C2249 C 0.81492 0.01926 0.07187 0.0
C2250 C 0.77668 0.01906 1.00116 0.0
C2251 C 0.74614 0.02685 1.00605 0.0
C2252 C 0.79151 0.02204 1.04869 0.0
C2253 C 0.73944 0.03219 1.03277 0.0
C2254 C 0.80571 0.0225 0.09885 0.0
C2255 C 0.86742 1.00958 0.08746 0.0
N2256 N 0.76179 0.02964 1.05298 0.0
N2257 N 0.84563 1.01303 0.06718 0.0
H2258 H 0.381 0.27556 0.07965 0.0
H2259 H 0.56195 0.24562 1.03585 0.0
H2260 H 0.45747 0.26466 0.13722 0.0
H2261 H 0.49053 0.26538 0.97952 0.0
H2262 H 0.52307 0.2503 0.07293 0.0
H2263 H 0.41909 0.26911 1.04268 0.0
C2264 C 0.40564 0.27161 0.08463 0.0
C2265 C 0.41579 0.27069 0.11184 0.0
C2266 C 0.51588 0.25363 1.05245 0.0
C2267 C 0.46 0.26337 0.06919 0.0
C2268 C 0.53828 0.25111 1.03121 0.0
C2269 C 0.52986 0.25529 1.00433 0.0
C2270 C 0.4845 0.26023 1.04695 0.0
C2271 C 0.4982 0.26182 0.99976 0.0
C2272 C 0.42752 0.26803 0.0634 0.0
C2273 C 0.44831 0.26558 0.1167 0.0
N2274 N 0.47684 0.26407 1.0207 0.0
N2275 N 0.4691 0.26217 0.09572 0.0
H2276 H 0.89343 0.27294 0.27682 0.0
H2277 H 0.71321 0.24117 0.32041 0.0
H2278 H 0.81771 0.26111 0.2191 0.0
H2279 H 0.78292 0.26264 0.37659 0.0
H2280 H 0.75227 0.24604 0.28346 0.0
H2281 H 0.85521 0.26635 0.31374 0.0
C2282 C 0.86894 0.26876 0.2718 0.0
C2283 C 0.85905 0.26762 0.24454 0.0
C2284 C 0.75905 0.2497 0.30387 0.0
C2285 C 0.81466 0.26011 0.28716 0.0
C2286 C 0.73654 0.24706 0.32504 0.0
C2287 C 0.74439 0.25165 0.35186 0.0
C2288 C 0.79004 0.25684 0.30936 0.0
C2289 C 0.77567 0.25871 0.35643 0.0
C2290 C 0.84698 0.26509 0.293 0.0
C2291 C 0.82669 0.26221 0.23964 0.0
N2292 N 0.79717 0.26107 0.33556 0.0
N2293 N 0.80583 0.25871 0.26059 0.0
H2294 H 0.55203 0.99961 0.33563 0.0
H2295 H 0.38083 0.01779 0.26576 0.0
H2296 H 0.4986 0.0469 0.35354 0.0
H2297 H 0.46054 0.99525 0.22077 0.0
H2298 H 0.41919 0.02502 0.30257 0.0
H2299 H 0.51497 0.99419 0.29741 0.0
C2300 C 0.53264 1.0089 0.33161 0.0
C2301 C 0.52854 0.02366 0.34837 0.0
C2302 C 0.42822 0.01859 0.28453 0.0
C2303 C 0.48504 0.01712 0.30497 0.0
C2304 C 0.40634 0.01446 0.26349 0.0
C2305 C 0.41736 1.00603 0.23986 0.0
C2306 C 0.46126 0.01377 0.28242 0.0
C2307 C 0.45083 1.00193 0.23834 0.0
C2308 C 0.51135 1.00572 0.30984 0.0
C2309 C 0.50241 0.03501 0.34214 0.0
N2310 N 0.47136 1.00561 0.25934 0.0
N2311 N 0.48157 0.03142 0.32128 0.0
H2312 H 0.29795 0.02444 0.08904 0.0
H2313 H 0.12816 1.0051 1.01736 0.0
H2314 H 0.24731 0.9758 0.10433 0.0
H2315 H 0.20764 0.02908 0.97367 0.0
H2316 H 0.16624 0.99801 0.05454 0.0
H2317 H 0.26036 0.03023 1.05134 0.0
C2318 C 0.27905 0.01494 0.08465 0.0
C2319 C 0.2761 0.99963 0.1005 0.0
C2320 C 0.17527 1.00475 1.03671 0.0
C2321 C 0.23183 1.00661 0.05767 0.0
C2322 C 0.15355 1.0088 1.01547 0.0
C2323 C 0.16461 0.01757 0.99208 0.0
C2324 C 0.20813 1.01 1.03505 0.0
C2325 C 0.19791 0.02214 0.99104 0.0
C2326 C 0.25744 0.01834 0.06316 0.0
C2327 C 0.25038 0.98808 0.09384 0.0
N2328 N 0.21824 0.01852 1.01222 0.0
N2329 N 0.22923 0.99187 0.07324 0.0
H2330 H 0.6429 0.74998 1.02807 0.0
H2331 H 0.4638 0.78267 0.07224 0.0
H2332 H 0.56817 0.76424 0.97066 0.0
H2333 H 0.53367 0.76084 0.1281 0.0
H2334 H 0.50268 0.77801 1.03516 0.0
H2335 H 0.60498 0.75645 0.06512 0.0
C2336 C 0.6187 0.75467 1.02316 0.0
C2337 C 0.60896 0.75653 0.99597 0.0
C2338 C 0.50952 0.77422 0.05553 0.0
C2339 C 0.56493 0.76386 1.03869 0.0
C2340 C 0.48713 0.77673 0.07675 0.0
C2341 C 0.49512 0.77196 0.10348 0.0
C2342 C 0.54046 0.76701 0.06091 0.0
C2343 C 0.52635 0.76484 0.10795 0.0
C2344 C 0.5969 0.75827 1.04442 0.0
C2345 C 0.57699 0.76257 0.99117 0.0
N2346 N 0.54771 0.76259 0.08703 0.0
N2347 N 0.55626 0.76596 1.01218 0.0
H2348 H 0.30855 0.78906 0.78967 0.0
H2349 H 0.12981 0.75519 0.83325 0.0
H2350 H 0.24049 0.76561 0.73396 0.0
H2351 H 0.20384 0.76982 0.89099 0.0
H2352 H 0.168 0.76178 0.79637 0.0
H2353 H 0.2693 0.7844 0.82652 0.0
C2354 C 0.28556 0.78275 0.78514 0.0
C2355 C 0.27822 0.77751 0.75852 0.0
C2356 C 0.17585 0.76366 0.8171 0.0
C2357 C 0.23238 0.77258 0.80084 0.0
C2358 C 0.1539 0.76001 0.83827 0.0
C2359 C 0.16336 0.76192 0.86552 0.0
C2360 C 0.20771 0.76939 0.82296 0.0
C2361 C 0.19521 0.76811 0.87044 0.0
C2362 C 0.26294 0.78025 0.80624 0.0
C2363 C 0.24734 0.76997 0.75402 0.0
N2364 N 0.2161 0.77156 0.84951 0.0
N2365 N 0.22573 0.76774 0.77481 0.0
H2366 H 0.47341 0.0306 0.76886 0.0
H2367 H 0.64216 1.01049 0.84142 0.0
H2368 H 0.52322 0.98173 0.7541 0.0
H2369 H 0.5631 0.03499 0.88472 0.0
H2370 H 0.60399 1.00343 0.80437 0.0
H2371 H 0.5105 0.03611 0.807 0.0
C2372 C 0.49201 0.02098 0.77355 0.0
C2373 C 0.49501 1.00571 0.75775 0.0
C2374 C 0.59506 1.01027 0.82209 0.0
C2375 C 0.53864 1.01235 0.80102 0.0
C2376 C 0.61683 0.01432 0.84324 0.0
C2377 C 0.60592 0.02323 0.86648 0.0
C2378 C 0.56229 0.01566 0.82366 0.0
C2379 C 0.5727 0.02793 0.86746 0.0
C2380 C 0.51332 0.02421 0.79527 0.0
C2381 C 0.52024 0.99396 0.76477 0.0
N2382 N 0.55231 0.02432 0.84634 0.0
N2383 N 0.54116 0.9976 0.78557 0.0
H2384 H 0.81674 0.5192 0.63957 0.0
H2385 H 0.78243 0.51383 0.47928 0.0
H2386 H 0.88961 0.50363 0.58141 0.0
H2387 H 0.71479 0.53683 0.53578 0.0
H2388 H 0.82151 0.50972 0.51629 0.0
H2389 H 0.77915 0.52551 0.60223 0.0
C2390 C 0.82508 0.51727 0.61898 0.0
C2391 C 0.85672 0.51087 0.6139 0.0
C2392 C 0.79812 0.51565 0.52067 0.0
C2393 C 0.81307 0.51788 0.5706 0.0
C2394 C 0.77572 0.51807 0.49945 0.0
C2395 C 0.74491 0.52558 0.50421 0.0
C2396 C 0.78988 0.52068 0.54722 0.0
C2397 C 0.73777 0.5306 0.53102 0.0
C2398 C 0.80343 0.52084 0.59758 0.0
C2399 C 0.8657 0.5086 0.58655 0.0
N2400 N 0.7599 0.52802 0.55138 0.0
N2401 N 0.84404 0.51197 0.56611 0.0
H2402 H 0.49807 0.73092 0.5039 0.0
H2403 H 0.46144 0.78415 0.6383 0.0
H2404 H 0.54984 0.77872 0.5221 0.0
H2405 H 0.38241 0.76131 0.59284 0.0
H2406 H 0.49867 0.77743 0.60091 0.0
H2407 H 0.45983 0.73732 0.54055 0.0
C2408 C 0.50135 0.7429 0.51518 0.0
C2409 C 0.52721 0.75447 0.50915 0.0
C2410 C 0.47323 0.7738 0.59917 0.0
C2411 C 0.48399 0.76134 0.55264 0.0
C2412 C 0.45189 0.7775 0.62063 0.0
C2413 C 0.41853 0.77326 0.61893 0.0
C2414 C 0.46158 0.76533 0.57588 0.0
C2415 C 0.40782 0.76483 0.59517 0.0
C2416 C 0.47953 0.74642 0.53644 0.0
C2417 C 0.53061 0.7693 0.52591 0.0
N2418 N 0.42927 0.76101 0.57475 0.0
N2419 N 0.50954 0.77222 0.54689 0.0
H2420 H 0.78413 0.76531 0.88046 0.0
H2421 H 0.82007 0.75749 0.72071 0.0
H2422 H 0.71791 0.74076 0.8244 0.0
H2423 H 0.89153 0.77567 0.77825 0.0
H2424 H 0.78261 0.75133 0.75815 0.0
H2425 H 0.82339 0.76939 0.84352 0.0
C2426 C 0.77777 0.76076 0.86039 0.0
C2427 C 0.74731 0.7528 0.8557 0.0
C2428 C 0.80655 0.75654 0.76268 0.0
C2429 C 0.79249 0.75759 0.81283 0.0
C2430 C 0.82814 0.76003 0.74122 0.0
C2431 C 0.85932 0.76712 0.74608 0.0
C2432 C 0.81577 0.76028 0.78949 0.0
C2433 C 0.86797 0.77013 0.77331 0.0
C2434 C 0.80027 0.76314 0.83922 0.0
C2435 C 0.74059 0.74733 0.82905 0.0
N2436 N 0.84635 0.76683 0.79382 0.0
N2437 N 0.76283 0.74986 0.80875 0.0
H2438 H 0.46002 0.49426 0.72643 0.0
H2439 H 0.50067 0.54774 0.8589 0.0
H2440 H 0.38161 0.51748 0.77217 0.0
H2441 H 0.54723 0.49798 0.8439 0.0
H2442 H 0.46176 0.54151 0.82275 0.0
H2443 H 0.49738 0.50041 0.76393 0.0
C2444 C 0.45064 0.50087 0.7442 0.0
C2445 C 0.41742 0.50542 0.74591 0.0
C2446 C 0.48041 0.53193 0.8275 0.0
C2447 C 0.46067 0.5127 0.78907 0.0
C2448 C 0.50258 0.53535 0.84853 0.0
C2449 C 0.52717 0.52318 0.85535 0.0
C2450 C 0.48329 0.51651 0.81224 0.0
C2451 C 0.52901 0.50785 0.8395 0.0
C2452 C 0.47205 0.50424 0.76571 0.0
C2453 C 0.4069 0.51375 0.76981 0.0
N2454 N 0.50769 0.50504 0.81865 0.0
N2455 N 0.42848 0.5173 0.79027 0.0
H2456 H 0.30954 0.49121 0.5739 0.0
H2457 H 0.13064 0.52424 0.52937 0.0
H2458 H 0.2406 0.51431 0.62923 0.0
H2459 H 0.2057 0.51054 0.47198 0.0
H2460 H 0.16858 0.51773 0.56644 0.0
H2461 H 0.27068 0.49589 0.53677 0.0
C2462 C 0.28643 0.49743 0.57829 0.0
C2463 C 0.27869 0.50252 0.60491 0.0
C2464 C 0.17673 0.51605 0.54574 0.0
C2465 C 0.23331 0.50747 0.56228 0.0
C2466 C 0.15491 0.51965 0.52446 0.0
C2467 C 0.16473 0.51797 0.49725 0.0
C2468 C 0.20881 0.5106 0.54002 0.0
C2469 C 0.1968 0.51206 0.49248 0.0
C2470 C 0.26404 0.49995 0.55704 0.0
C2471 C 0.24772 0.51 0.60922 0.0
N2472 N 0.21754 0.50866 0.51351 0.0
N2473 N 0.22633 0.51222 0.58828 0.0
H2474 H 0.52649 0.29873 0.60776 0.0
H2475 H 0.56169 0.24671 0.47282 0.0
H2476 H 0.47551 0.25049 0.59054 0.0
H2477 H 0.64219 0.26746 0.5189 0.0
H2478 H 0.52511 0.25318 0.51074 0.0
H2479 H 0.56469 0.29225 0.57136 0.0
C2480 C 0.52332 0.28662 0.59689 0.0
C2481 C 0.49752 0.27502 0.60307 0.0
C2482 C 0.55073 0.25641 0.51249 0.0
C2483 C 0.54085 0.26809 0.55959 0.0
C2484 C 0.5717 0.25287 0.49074 0.0
C2485 C 0.60528 0.2566 0.49244 0.0
C2486 C 0.56296 0.26423 0.5361 0.0
C2487 C 0.61659 0.26437 0.51654 0.0
C2488 C 0.54517 0.28308 0.57565 0.0
C2489 C 0.4945 0.26003 0.58657 0.0
N2490 N 0.59548 0.26809 0.53726 0.0
N2491 N 0.51553 0.25711 0.56556 0.0
H2492 H 0.20722 0.2688 0.38851 0.0
H2493 H 0.24093 0.26365 0.22831 0.0
H2494 H 0.13411 0.25364 0.3303 0.0
H2495 H 0.30912 0.28642 0.28457 0.0
H2496 H 0.202 0.25963 0.2654 0.0
H2497 H 0.24482 0.27517 0.35119 0.0
C2498 C 0.19884 0.26697 0.36791 0.0
C2499 C 0.16716 0.26066 0.36277 0.0
C2500 C 0.22547 0.26549 0.26972 0.0
C2501 C 0.21076 0.26774 0.31957 0.0
C2502 C 0.24778 0.26786 0.24846 0.0
C2503 C 0.27866 0.27529 0.25315 0.0
C2504 C 0.23389 0.27049 0.29622 0.0
C2505 C 0.28605 0.28026 0.27991 0.0
C2506 C 0.22049 0.27058 0.34653 0.0
C2507 C 0.15808 0.25854 0.33545 0.0
N2508 N 0.26397 0.27773 0.30033 0.0
N2509 N 0.17973 0.26193 0.31504 0.0
H2510 H 0.64149 0.50915 0.3398 0.0
H2511 H 0.47363 0.52847 0.26591 0.0
H2512 H 0.56123 0.53249 0.3831 0.0
H2513 H 0.52228 0.47899 0.25326 0.0
H2514 H 0.5107 0.53429 0.30391 0.0
H2515 H 0.60383 0.50194 0.30241 0.0
C2516 C 0.61601 0.51269 0.34155 0.0
C2517 C 0.60458 0.5213 0.36489 0.0
C2518 C 0.51327 0.5222 0.29261 0.0
C2519 C 0.56159 0.51364 0.32169 0.0
C2520 C 0.49195 0.51878 0.27097 0.0
C2521 C 0.49444 0.50319 0.25582 0.0
C2522 C 0.53822 0.51024 0.2989 0.0
C2523 C 0.51954 0.49144 0.26325 0.0
C2524 C 0.59454 0.50857 0.3202 0.0
C2525 C 0.57121 0.52566 0.36577 0.0
N2526 N 0.54048 0.49526 0.28396 0.0
N2527 N 0.55112 0.52202 0.34446 0.0
loop_
_geom_bond_atom_site_label_1
_geom_bond_atom_site_label_2
_geom_bond_distance
_geom_bond_site_symmetry_2
_ccdc_geom_bond_type
Co0 O3 1.970 . S
Co0 N17 1.989 . S
Co0 O25 1.967 . S
Co0 O32 1.920 . S
Co1 O4 1.966 . S
Co1 N10 2.022 . S
Co1 N18 1.993 . S
Co1 O26 1.941 . S
C2 O3 1.258 . S
C2 O4 1.263 . S
O3 Co0 1.970 . S
O3 C2 1.258 . S
O4 Co1 1.966 . S
O4 C2 1.263 . S
C5 O6 1.235 1_545 S
C5 O32 1.289 . S
O6 C5 1.235 1_565 S
C7 C9 1.400 . S
C7 N10 1.351 . S
C7 C12 1.501 . S
C8 C9 1.387 . S
C8 N11 1.341 . S
C9 C7 1.400 . S
C9 C8 1.387 . S
N10 Co1 2.022 . S
N10 C7 1.351 . S
N10 N11 1.365 . S
N11 C8 1.341 . S
N11 N10 1.365 . S
N11 H31 0.862 . S
C12 C7 1.501 . S
C12 H13 0.961 . S
C12 H14 0.961 . S
C12 H15 0.960 . S
H13 C12 0.961 . S
H14 C12 0.961 . S
H15 C12 0.960 . S
C16 N17 1.342 . S
C16 C20 1.401 . S
C16 C21 1.499 . S
N17 Co0 1.989 . S
N17 C16 1.342 . S
N17 N18 1.388 . S
N18 Co1 1.993 . S
N18 N17 1.388 . S
N18 C19 1.346 . S
C19 N18 1.346 . S
C19 C20 1.396 . S
C19 C29 1.510 . S
C20 C16 1.401 . S
C20 C19 1.396 . S
C21 C16 1.499 . S
C21 H22 0.959 . S
C21 H23 0.993 . S
C21 H24 0.961 . S
H22 C21 0.959 . S
H23 C21 0.993 . S
H24 C21 0.961 . S
O25 Co0 1.967 . S
O25 C33 1.258 . S
O26 Co1 1.941 . S
O26 C33 1.266 . S
H27 C29 0.959 . S
H28 C29 0.961 . S
C29 C19 1.510 . S
C29 H27 0.959 . S
C29 H28 0.961 . S
C29 H30 0.960 . S
H30 C29 0.960 . S
H31 N11 0.862 . S
O32 Co0 1.920 . S
O32 C5 1.289 . S
C33 O25 1.258 . S
C33 O26 1.266 . S
Co34 O37 1.970 . S
Co34 N51 1.989 . S
Co34 O59 1.967 . S
Co34 O66 1.920 . S
Co35 O38 1.966 . S
Co35 N44 2.022 . S
Co35 N52 1.993 . S
Co35 O60 1.941 . S
C36 O37 1.258 . S
C36 O38 1.263 . S
O37 Co34 1.970 . S
O37 C36 1.258 . S
O38 Co35 1.966 . S
O38 C36 1.263 . S
C39 O40 1.235 . S
C39 O66 1.289 . S
O40 C39 1.235 . S
C41 C43 1.400 . S
C41 N44 1.351 1_655 S
C41 C46 1.501 1_655 S
C42 C43 1.387 . S
C42 N45 1.341 . S
C43 C41 1.400 . S
C43 C42 1.387 . S
N44 Co35 2.022 . S
N44 C41 1.351 1_455 S
N44 N45 1.365 1_455 S
N45 C42 1.341 . S
N45 N44 1.365 1_655 S
N45 H65 0.862 . S
C46 C41 1.501 1_455 S
C46 H47 0.961 . S
C46 H48 0.961 . S
C46 H49 0.960 . S
H47 C46 0.961 . S
H48 C46 0.961 . S
H49 C46 0.960 . S
C50 N51 1.342 . S
C50 C54 1.401 . S
C50 C55 1.499 . S
N51 Co34 1.989 . S
N51 C50 1.342 . S
N51 N52 1.388 . S
N52 Co35 1.993 . S
N52 N51 1.388 . S
N52 C53 1.346 . S
C53 N52 1.346 . S
C53 C54 1.396 . S
C53 C63 1.510 1_455 S
C54 C50 1.401 . S
C54 C53 1.396 . S
C55 C50 1.499 . S
C55 H56 0.959 . S
C55 H57 0.960 . S
C55 H58 0.961 . S
H56 C55 0.959 . S
H57 C55 0.960 . S
H58 C55 0.961 . S
O59 Co34 1.967 . S
O59 C67 1.258 . S
O60 Co35 1.941 . S
O60 C67 1.266 . S
H61 C63 0.959 . S
H62 C63 0.961 . S
C63 C53 1.510 1_655 S
C63 H61 0.959 . S
C63 H62 0.961 . S
C63 H64 0.960 . S
H64 C63 0.960 . S
H65 N45 0.862 . S
O66 Co34 1.920 . S
O66 C39 1.289 . S
C67 O59 1.258 . S
C67 O60 1.266 . S
Co68 O71 1.970 . S
Co68 N85 1.989 . S
Co68 O93 1.967 . S
Co68 O100 1.920 . S
Co69 O72 1.966 . S
Co69 N78 2.022 . S
Co69 N86 1.993 . S
Co69 O94 1.941 . S
C70 O71 1.258 . S
C70 O72 1.263 . S
O71 Co68 1.970 . S
O71 C70 1.258 . S
O72 Co69 1.966 . S
O72 C70 1.263 . S
C73 O74 1.235 . S
C73 O100 1.289 . S
O74 C73 1.235 . S
C75 C77 1.400 . S
C75 N78 1.351 . S
C75 C80 1.501 . S
C76 C77 1.387 . S
C76 N79 1.341 . S
C77 C75 1.400 . S
C77 C76 1.387 . S
N78 Co69 2.022 . S
N78 C75 1.351 . S
N78 N79 1.365 . S
N79 C76 1.341 . S
N79 N78 1.365 . S
N79 H99 0.862 . S
C80 C75 1.501 . S
C80 H81 0.961 . S
C80 H82 0.961 . S
C80 H83 0.960 . S
H81 C80 0.961 . S
H82 C80 0.961 . S
H83 C80 0.960 . S
C84 N85 1.342 . S
C84 C88 1.401 . S
C84 C89 1.499 . S
N85 Co68 1.989 . S
N85 C84 1.342 . S
N85 N86 1.388 . S
N86 Co69 1.993 . S
N86 N85 1.388 . S
N86 C87 1.346 . S
C87 N86 1.346 . S
C87 C88 1.396 . S
C87 C97 1.510 . S
C88 C84 1.401 . S
C88 C87 1.396 . S
C89 C84 1.499 . S
C89 H90 0.959 . S
C89 H91 0.960 . S
C89 H92 0.961 . S
H90 C89 0.959 . S
H91 C89 0.960 . S
H92 C89 0.961 . S
O93 Co68 1.967 . S
O93 C101 1.258 . S
O94 Co69 1.941 . S
O94 C101 1.266 . S
H95 C97 0.959 . S
H96 C97 0.961 . S
C97 C87 1.510 . S
C97 H95 0.959 . S
C97 H96 0.961 . S
C97 H98 0.960 . S
H98 C97 0.960 . S
H99 N79 0.862 . S
O100 Co68 1.920 . S
O100 C73 1.289 . S
C101 O93 1.258 . S
C101 O94 1.266 . S
Co102 O105 1.970 . S
Co102 N119 1.989 . S
Co102 O127 1.967 . S
Co102 O134 1.920 . S
Co103 O106 1.966 . S
Co103 N112 2.022 . S
Co103 N120 1.993 . S
Co103 O128 1.941 . S
C104 O105 1.258 . S
C104 O106 1.263 . S
O105 Co102 1.970 . S
O105 C104 1.258 . S
O106 Co103 1.966 . S
O106 C104 1.263 . S
C107 O108 1.235 1_545 S
C107 O134 1.289 . S
O108 C107 1.235 1_565 S
C109 C111 1.400 . S
C109 N112 1.351 1_655 S
C109 C114 1.501 1_655 S
C110 C111 1.387 . S
C110 N113 1.341 . S
C111 C109 1.400 . S
C111 C110 1.387 . S
N112 Co103 2.022 . S
N112 C109 1.351 1_455 S
N112 N113 1.365 1_455 S
N113 C110 1.341 . S
N113 N112 1.365 1_655 S
N113 H133 0.862 . S
C114 C109 1.501 1_455 S
C114 H115 0.961 . S
C114 H116 0.961 . S
C114 H117 0.960 . S
H115 C114 0.961 . S
H116 C114 0.961 . S
H117 C114 0.960 . S
C118 N119 1.342 . S
C118 C122 1.401 . S
C118 C123 1.499 . S
N119 Co102 1.989 . S
N119 C118 1.342 . S
N119 N120 1.388 . S
N120 Co103 1.993 . S
N120 N119 1.388 . S
N120 C121 1.346 . S
C121 N120 1.346 . S
C121 C122 1.396 . S
C121 C131 1.510 1_455 S
C122 C118 1.401 . S
C122 C121 1.396 . S
C123 C118 1.499 . S
C123 H124 0.959 . S
C123 H125 0.993 . S
C123 H126 0.961 . S
H124 C123 0.959 . S
H125 C123 0.993 . S
H126 C123 0.961 . S
O127 Co102 1.967 . S
O127 C135 1.258 . S
O128 Co103 1.941 . S
O128 C135 1.266 . S
H129 C131 0.959 . S
H130 C131 0.961 . S
C131 C121 1.510 1_655 S
C131 H129 0.959 . S
C131 H130 0.961 . S
C131 H132 0.960 . S
H132 C131 0.960 . S
H133 N113 0.862 . S
O134 Co102 1.920 . S
O134 C107 1.289 . S
C135 O127 1.258 . S
C135 O128 1.266 . S
Co136 O139 1.970 . S
Co136 N153 1.989 . S
Co136 O161 1.967 . S
Co136 O168 1.920 . S
Co137 O140 1.966 . S
Co137 N146 2.022 . S
Co137 N154 1.993 . S
Co137 O162 1.941 . S
C138 O139 1.258 . S
C138 O140 1.263 . S
O139 Co136 1.970 . S
O139 C138 1.258 . S
O140 Co137 1.966 . S
O140 C138 1.263 . S
C141 O142 1.235 1_565 S
C141 O168 1.289 . S
O142 C141 1.235 1_545 S
C143 C145 1.400 . S
C143 N146 1.351 . S
C143 C148 1.501 . S
C144 C145 1.387 . S
C144 N147 1.341 . S
C145 C143 1.400 . S
C145 C144 1.387 . S
N146 Co137 2.022 . S
N146 C143 1.351 . S
N146 N147 1.365 . S
N147 C144 1.341 . S
N147 N146 1.365 . S
N147 H167 0.862 . S
C148 C143 1.501 . S
C148 H149 0.961 . S
C148 H150 0.961 . S
C148 H151 0.960 . S
H149 C148 0.961 . S
H150 C148 0.961 . S
H151 C148 0.960 . S
C152 N153 1.342 . S
C152 C156 1.401 . S
C152 C157 1.499 . S
N153 Co136 1.989 . S
N153 C152 1.342 . S
N153 N154 1.388 . S
N154 Co137 1.993 . S
N154 N153 1.388 . S
N154 C155 1.346 . S
C155 N154 1.346 . S
C155 C156 1.396 . S
C155 C165 1.510 . S
C156 C152 1.401 . S
C156 C155 1.396 . S
C157 C152 1.499 . S
C157 H158 0.959 . S
C157 H159 0.993 . S
C157 H160 0.961 . S
H158 C157 0.959 . S
H159 C157 0.993 . S
H160 C157 0.961 . S
O161 Co136 1.967 . S
O161 C169 1.258 . S
O162 Co137 1.941 . S
O162 C169 1.266 . S
H163 C165 0.959 . S
H164 C165 0.961 . S
C165 C155 1.510 . S
C165 H163 0.959 . S
C165 H164 0.961 . S
C165 H166 0.960 . S
H166 C165 0.960 . S
H167 N147 0.862 . S
O168 Co136 1.920 . S
O168 C141 1.289 . S
C169 O161 1.258 . S
C169 O162 1.266 . S
Co170 O173 1.970 . S
Co170 N187 1.989 . S
Co170 O195 1.967 . S
Co170 O202 1.920 . S
Co171 O174 1.966 . S
Co171 N180 2.022 . S
Co171 N188 1.993 . S
Co171 O196 1.941 . S
C172 O173 1.258 . S
C172 O174 1.263 . S
O173 Co170 1.970 . S
O173 C172 1.258 . S
O174 Co171 1.966 . S
O174 C172 1.263 . S
C175 O176 1.235 . S
C175 O202 1.289 . S
O176 C175 1.235 . S
C177 C179 1.400 . S
C177 N180 1.351 1_455 S
C177 C182 1.501 1_455 S
C178 C179 1.387 . S
C178 N181 1.341 . S
C179 C177 1.400 . S
C179 C178 1.387 . S
N180 Co171 2.022 . S
N180 C177 1.351 1_655 S
N180 N181 1.365 1_655 S
N181 C178 1.341 . S
N181 N180 1.365 1_455 S
N181 H201 0.862 . S
C182 C177 1.501 1_655 S
C182 H183 0.961 . S
C182 H184 0.961 . S
C182 H185 0.960 . S
H183 C182 0.961 . S
H184 C182 0.961 . S
H185 C182 0.960 . S
C186 N187 1.342 . S
C186 C190 1.401 . S
C186 C191 1.499 . S
N187 Co170 1.989 . S
N187 C186 1.342 . S
N187 N188 1.388 . S
N188 Co171 1.993 . S
N188 N187 1.388 . S
N188 C189 1.346 . S
C189 N188 1.346 . S
C189 C190 1.396 . S
C189 C199 1.510 1_655 S
C190 C186 1.401 . S
C190 C189 1.396 . S
C191 C186 1.499 . S
C191 H192 0.959 . S
C191 H193 0.960 . S
C191 H194 0.961 . S
H192 C191 0.959 . S
H193 C191 0.960 . S
H194 C191 0.961 . S
O195 Co170 1.967 . S
O195 C203 1.258 . S
O196 Co171 1.941 . S
O196 C203 1.266 . S
H197 C199 0.959 . S
H198 C199 0.961 . S
C199 C189 1.510 1_455 S
C199 H197 0.959 . S
C199 H198 0.961 . S
C199 H200 0.960 . S
H200 C199 0.960 . S
H201 N181 0.862 . S
O202 Co170 1.920 . S
O202 C175 1.289 . S
C203 O195 1.258 . S
C203 O196 1.266 . S
Co204 O207 1.970 . S
Co204 N221 1.989 . S
Co204 O229 1.967 . S
Co204 O236 1.920 . S
Co205 O208 1.966 . S
Co205 N214 2.022 . S
Co205 N222 1.993 . S
Co205 O230 1.941 . S
C206 O207 1.258 . S
C206 O208 1.263 . S
O207 Co204 1.970 . S
O207 C206 1.258 . S
O208 Co205 1.966 . S
O208 C206 1.263 . S
C209 O210 1.235 . S
C209 O236 1.289 . S
O210 C209 1.235 . S
C211 C213 1.400 . S
C211 N214 1.351 . S
C211 C216 1.501 . S
C212 C213 1.387 . S
C212 N215 1.341 . S
C213 C211 1.400 . S
C213 C212 1.387 . S
N214 Co205 2.022 . S
N214 C211 1.351 . S
N214 N215 1.365 . S
N215 C212 1.341 . S
N215 N214 1.365 . S
N215 H235 0.862 . S
C216 C211 1.501 . S
C216 H217 0.961 . S
C216 H218 0.961 . S
C216 H219 0.960 . S
H217 C216 0.961 . S
H218 C216 0.961 . S
H219 C216 0.960 . S
C220 N221 1.342 . S
C220 C224 1.401 . S
C220 C225 1.499 . S
N221 Co204 1.989 . S
N221 C220 1.342 . S
N221 N222 1.388 . S
N222 Co205 1.993 . S
N222 N221 1.388 . S
N222 C223 1.346 . S
C223 N222 1.346 . S
C223 C224 1.396 . S
C223 C233 1.510 . S
C224 C220 1.401 . S
C224 C223 1.396 . S
C225 C220 1.499 . S
C225 H226 0.959 . S
C225 H227 0.960 . S
C225 H228 0.961 . S
H226 C225 0.959 . S
H227 C225 0.960 . S
H228 C225 0.961 . S
O229 Co204 1.967 . S
O229 C237 1.258 . S
O230 Co205 1.941 . S
O230 C237 1.266 . S
H231 C233 0.959 . S
H232 C233 0.961 . S
C233 C223 1.510 . S
C233 H231 0.959 . S
C233 H232 0.961 . S
C233 H234 0.960 . S
H234 C233 0.960 . S
H235 N215 0.862 . S
O236 Co204 1.920 . S
O236 C209 1.289 . S
C237 O229 1.258 . S
C237 O230 1.266 . S
Co238 O241 1.970 . S
Co238 N255 1.989 . S
Co238 O263 1.967 . S
Co238 O270 1.920 . S
Co239 O242 1.966 . S
Co239 N248 2.022 . S
Co239 N256 1.993 . S
Co239 O264 1.941 . S
C240 O241 1.258 . S
C240 O242 1.263 . S
O241 Co238 1.970 . S
O241 C240 1.258 . S
O242 Co239 1.966 . S
O242 C240 1.263 . S
C243 O244 1.235 1_565 S
C243 O270 1.289 . S
O244 C243 1.235 1_545 S
C245 C247 1.400 . S
C245 N248 1.351 1_455 S
C245 C250 1.501 1_455 S
C246 C247 1.387 . S
C246 N249 1.341 . S
C247 C245 1.400 . S
C247 C246 1.387 . S
N248 Co239 2.022 . S
N248 C245 1.351 1_655 S
N248 N249 1.365 1_655 S
N249 C246 1.341 . S
N249 N248 1.365 1_455 S
N249 H269 0.862 . S
C250 C245 1.501 1_655 S
C250 H251 0.961 . S
C250 H252 0.961 . S
C250 H253 0.960 . S
H251 C250 0.961 . S
H252 C250 0.961 . S
H253 C250 0.960 . S
C254 N255 1.342 . S
C254 C258 1.401 . S
C254 C259 1.499 . S
N255 Co238 1.989 . S
N255 C254 1.342 . S
N255 N256 1.388 . S
N256 Co239 1.993 . S
N256 N255 1.388 . S
N256 C257 1.346 . S
C257 N256 1.346 . S
C257 C258 1.396 . S
C257 C267 1.510 1_655 S
C258 C254 1.401 . S
C258 C257 1.396 . S
C259 C254 1.499 . S
C259 H260 0.959 . S
C259 H261 0.993 . S
C259 H262 0.961 . S
H260 C259 0.959 . S
H261 C259 0.993 . S
H262 C259 0.961 . S
O263 Co238 1.967 . S
O263 C271 1.258 . S
O264 Co239 1.941 . S
O264 C271 1.266 . S
H265 C267 0.959 . S
H266 C267 0.961 . S
C267 C257 1.510 1_455 S
C267 H265 0.959 . S
C267 H266 0.961 . S
C267 H268 0.960 . S
H268 C267 0.960 . S
H269 N249 0.862 . S
O270 Co238 1.920 . S
O270 C243 1.289 . S
C271 O263 1.258 . S
C271 O264 1.266 . S
Co272 O275 1.970 . S
Co272 N289 1.989 . S
Co272 O297 1.967 . S
Co272 O304 1.920 . S
Co273 O276 1.966 . S
Co273 N282 2.022 . S
Co273 N290 1.993 . S
Co273 O298 1.941 . S
C274 O275 1.258 . S
C274 O276 1.263 . S
O275 Co272 1.970 . S
O275 C274 1.258 . S
O276 Co273 1.966 . S
O276 C274 1.263 . S
C277 O278 1.235 . S
C277 O304 1.289 . S
O278 C277 1.235 . S
C279 C281 1.400 . S
C279 N282 1.351 . S
C279 C284 1.501 . S
C280 C281 1.387 . S
C280 N283 1.341 . S
C281 C279 1.400 . S
C281 C280 1.387 . S
N282 Co273 2.022 . S
N282 C279 1.351 . S
N282 N283 1.365 . S
N283 C280 1.341 . S
N283 N282 1.365 . S
N283 H303 0.862 . S
C284 C279 1.501 . S
C284 H285 0.961 . S
C284 H286 0.961 . S
C284 H287 0.960 . S
H285 C284 0.961 . S
H286 C284 0.961 . S
H287 C284 0.960 . S
C288 N289 1.342 . S
C288 C292 1.401 . S
C288 C293 1.499 1_556 S
N289 Co272 1.989 . S
N289 C288 1.342 . S
N289 N290 1.388 . S
N290 Co273 1.993 . S
N290 N289 1.388 . S
N290 C291 1.346 . S
C291 N290 1.346 . S
C291 C292 1.396 . S
C291 C301 1.510 . S
C292 C288 1.401 . S
C292 C291 1.396 . S
C293 C288 1.499 1_554 S
C293 H294 0.959 . S
C293 H295 0.960 . S
C293 H296 0.961 . S
H294 C293 0.959 . S
H295 C293 0.960 . S
H296 C293 0.961 . S
O297 Co272 1.967 . S
O297 C305 1.258 . S
O298 Co273 1.941 . S
O298 C305 1.266 . S
H299 C301 0.959 . S
H300 C301 0.961 . S
C301 C291 1.510 . S
C301 H299 0.959 . S
C301 H300 0.961 . S
C301 H302 0.960 . S
H302 C301 0.960 . S
H303 N283 0.862 . S
O304 Co272 1.920 . S
O304 C277 1.289 . S
C305 O297 1.258 . S
C305 O298 1.266 . S
Co306 O309 1.970 . S
Co306 N323 1.989 . S
Co306 O331 1.967 . S
Co306 O338 1.920 . S
Co307 O310 1.966 . S
Co307 N316 2.022 . S
Co307 N324 1.993 . S
Co307 O332 1.941 . S
C308 O309 1.258 . S
C308 O310 1.263 . S
O309 Co306 1.970 . S
O309 C308 1.258 . S
O310 Co307 1.966 . S
O310 C308 1.263 . S
C311 O312 1.235 . S
C311 O338 1.289 . S
O312 C311 1.235 . S
C313 C315 1.400 . S
C313 N316 1.351 1_655 S
C313 C318 1.501 1_655 S
C314 C315 1.387 . S
C314 N317 1.341 . S
C315 C313 1.400 . S
C315 C314 1.387 . S
N316 Co307 2.022 . S
N316 C313 1.351 1_455 S
N316 N317 1.365 1_455 S
N317 C314 1.341 . S
N317 N316 1.365 1_655 S
N317 H337 0.862 . S
C318 C313 1.501 1_455 S
C318 H319 0.961 . S
C318 H320 0.961 . S
C318 H321 0.960 . S
H319 C318 0.961 . S
H320 C318 0.961 . S
H321 C318 0.960 . S
C322 N323 1.342 . S
C322 C326 1.401 . S
C322 C327 1.499 1_556 S
N323 Co306 1.989 . S
N323 C322 1.342 . S
N323 N324 1.388 . S
N324 Co307 1.993 . S
N324 N323 1.388 . S
N324 C325 1.346 . S
C325 N324 1.346 . S
C325 C326 1.396 . S
C325 C335 1.510 1_455 S
C326 C322 1.401 . S
C326 C325 1.396 . S
C327 C322 1.499 1_554 S
C327 H328 0.959 . S
C327 H329 0.960 . S
C327 H330 0.961 . S
H328 C327 0.959 . S
H329 C327 0.960 . S
H330 C327 0.961 . S
O331 Co306 1.967 . S
O331 C339 1.258 . S
O332 Co307 1.941 . S
O332 C339 1.266 . S
H333 C335 0.959 . S
H334 C335 0.961 . S
C335 C325 1.510 1_655 S
C335 H333 0.959 . S
C335 H334 0.961 . S
C335 H336 0.960 . S
H336 C335 0.960 . S
H337 N317 0.862 . S
O338 Co306 1.920 . S
O338 C311 1.289 . S
C339 O331 1.258 . S
C339 O332 1.266 . S
Co340 O343 1.970 . S
Co340 N357 1.989 . S
Co340 O365 1.967 . S
Co340 O372 1.920 . S
Co341 O344 1.966 . S
Co341 N350 2.022 . S
Co341 N358 1.993 . S
Co341 O366 1.941 . S
C342 O343 1.258 . S
C342 O344 1.263 . S
O343 Co340 1.970 . S
O343 C342 1.258 . S
O344 Co341 1.966 . S
O344 C342 1.263 . S
C345 O346 1.235 . S
C345 O372 1.289 . S
O346 C345 1.235 . S
C347 C349 1.400 . S
C347 N350 1.351 . S
C347 C352 1.501 . S
C348 C349 1.387 . S
C348 N351 1.341 . S
C349 C347 1.400 . S
C349 C348 1.387 . S
N350 Co341 2.022 . S
N350 C347 1.351 . S
N350 N351 1.365 . S
N351 C348 1.341 . S
N351 N350 1.365 . S
N351 H371 0.862 . S
C352 C347 1.501 . S
C352 H353 0.961 . S
C352 H354 0.961 . S
C352 H355 0.960 . S
H353 C352 0.961 . S
H354 C352 0.961 . S
H355 C352 0.960 . S
C356 N357 1.342 . S
C356 C360 1.401 . S
C356 C361 1.499 . S
N357 Co340 1.989 . S
N357 C356 1.342 . S
N357 N358 1.388 . S
N358 Co341 1.993 . S
N358 N357 1.388 . S
N358 C359 1.346 . S
C359 N358 1.346 . S
C359 C360 1.396 . S
C359 C369 1.510 . S
C360 C356 1.401 . S
C360 C359 1.396 . S
C361 C356 1.499 . S
C361 H362 0.959 . S
C361 H363 0.960 . S
C361 H364 0.961 . S
H362 C361 0.959 . S
H363 C361 0.960 . S
H364 C361 0.961 . S
O365 Co340 1.967 . S
O365 C373 1.258 . S
O366 Co341 1.941 . S
O366 C373 1.266 . S
H367 C369 0.959 . S
H368 C369 0.961 . S
C369 C359 1.510 . S
C369 H367 0.959 . S
C369 H368 0.961 . S
C369 H370 0.960 . S
H370 C369 0.960 . S
H371 N351 0.862 . S
O372 Co340 1.920 . S
O372 C345 1.289 . S
C373 O365 1.258 . S
C373 O366 1.266 . S
Co374 O377 1.970 . S
Co374 N391 1.989 . S
Co374 O399 1.967 . S
Co374 O406 1.920 . S
Co375 O378 1.966 . S
Co375 N384 2.022 . S
Co375 N392 1.993 . S
Co375 O400 1.941 . S
C376 O377 1.258 . S
C376 O378 1.263 . S
O377 Co374 1.970 . S
O377 C376 1.258 . S
O378 Co375 1.966 . S
O378 C376 1.263 . S
C379 O380 1.235 . S
C379 O406 1.289 . S
O380 C379 1.235 . S
C381 C383 1.400 . S
C381 N384 1.351 1_655 S
C381 C386 1.501 1_655 S
C382 C383 1.387 . S
C382 N385 1.341 . S
C383 C381 1.400 . S
C383 C382 1.387 . S
N384 Co375 2.022 . S
N384 C381 1.351 1_455 S
N384 N385 1.365 1_455 S
N385 C382 1.341 . S
N385 N384 1.365 1_655 S
N385 H405 0.862 . S
C386 C381 1.501 1_455 S
C386 H387 0.961 . S
C386 H388 0.961 . S
C386 H389 0.960 . S
H387 C386 0.961 . S
H388 C386 0.961 . S
H389 C386 0.960 . S
C390 N391 1.342 . S
C390 C394 1.401 . S
C390 C395 1.499 . S
N391 Co374 1.989 . S
N391 C390 1.342 . S
N391 N392 1.388 . S
N392 Co375 1.993 . S
N392 N391 1.388 . S
N392 C393 1.346 . S
C393 N392 1.346 . S
C393 C394 1.396 . S
C393 C403 1.510 1_455 S
C394 C390 1.401 . S
C394 C393 1.396 . S
C395 C390 1.499 . S
C395 H396 0.959 . S
C395 H397 0.960 . S
C395 H398 0.961 . S
H396 C395 0.959 . S
H397 C395 0.960 . S
H398 C395 0.961 . S
O399 Co374 1.967 . S
O399 C407 1.258 . S
O400 Co375 1.941 . S
O400 C407 1.266 . S
H401 C403 0.959 . S
H402 C403 0.961 . S
C403 C393 1.510 1_655 S
C403 H401 0.959 . S
C403 H402 0.961 . S
C403 H404 0.960 . S
H404 C403 0.960 . S
H405 N385 0.862 . S
O406 Co374 1.920 . S
O406 C379 1.289 . S
C407 O399 1.258 . S
C407 O400 1.266 . S
Co408 O411 1.970 . S
Co408 N425 1.989 . S
Co408 O433 1.967 . S
Co408 O440 1.920 . S
Co409 O412 1.966 . S
Co409 N418 2.022 . S
Co409 N426 1.993 . S
Co409 O434 1.941 . S
C410 O411 1.258 . S
C410 O412 1.263 . S
O411 Co408 1.970 . S
O411 C410 1.258 . S
O412 Co409 1.966 . S
O412 C410 1.263 . S
C413 O414 1.235 . S
C413 O440 1.289 . S
O414 C413 1.235 . S
C415 C417 1.400 . S
C415 N418 1.351 . S
C415 C420 1.501 . S
C416 C417 1.387 . S
C416 N419 1.341 . S
C417 C415 1.400 . S
C417 C416 1.387 . S
N418 Co409 2.022 . S
N418 C415 1.351 . S
N418 N419 1.365 . S
N419 C416 1.341 . S
N419 N418 1.365 . S
N419 H439 0.862 . S
C420 C415 1.501 . S
C420 H421 0.961 . S
C420 H422 0.961 . S
C420 H423 0.960 . S
H421 C420 0.961 . S
H422 C420 0.961 . S
H423 C420 0.960 . S
C424 N425 1.342 . S
C424 C428 1.401 . S
C424 C429 1.499 1_554 S
N425 Co408 1.989 . S
N425 C424 1.342 . S
N425 N426 1.388 . S
N426 Co409 1.993 . S
N426 N425 1.388 . S
N426 C427 1.346 . S
C427 N426 1.346 . S
C427 C428 1.396 . S
C427 C437 1.510 . S
C428 C424 1.401 . S
C428 C427 1.396 . S
C429 C424 1.499 1_556 S
C429 H430 0.959 . S
C429 H431 0.960 . S
C429 H432 0.961 . S
H430 C429 0.959 . S
H431 C429 0.960 . S
H432 C429 0.961 . S
O433 Co408 1.967 . S
O433 C441 1.258 . S
O434 Co409 1.941 . S
O434 C441 1.266 . S
H435 C437 0.959 . S
H436 C437 0.961 . S
C437 C427 1.510 . S
C437 H435 0.959 . S
C437 H436 0.961 . S
C437 H438 0.960 . S
H438 C437 0.960 . S
H439 N419 0.862 . S
O440 Co408 1.920 . S
O440 C413 1.289 . S
C441 O433 1.258 . S
C441 O434 1.266 . S
Co442 O445 1.970 . S
Co442 N459 1.989 . S
Co442 O467 1.967 . S
Co442 O474 1.920 . S
Co443 O446 1.966 . S
Co443 N452 2.022 . S
Co443 N460 1.993 . S
Co443 O468 1.941 . S
C444 O445 1.258 . S
C444 O446 1.263 . S
O445 Co442 1.970 . S
O445 C444 1.258 . S
O446 Co443 1.966 . S
O446 C444 1.263 . S
C447 O448 1.235 . S
C447 O474 1.289 . S
O448 C447 1.235 . S
C449 C451 1.400 . S
C449 N452 1.351 1_455 S
C449 C454 1.501 1_455 S
C450 C451 1.387 . S
C450 N453 1.341 . S
C451 C449 1.400 . S
C451 C450 1.387 . S
N452 Co443 2.022 . S
N452 C449 1.351 1_655 S
N452 N453 1.365 1_655 S
N453 C450 1.341 . S
N453 N452 1.365 1_455 S
N453 H473 0.862 . S
C454 C449 1.501 1_655 S
C454 H455 0.961 . S
C454 H456 0.961 . S
C454 H457 0.960 . S
H455 C454 0.961 . S
H456 C454 0.961 . S
H457 C454 0.960 . S
C458 N459 1.342 . S
C458 C462 1.401 . S
C458 C463 1.499 1_554 S
N459 Co442 1.989 . S
N459 C458 1.342 . S
N459 N460 1.388 . S
N460 Co443 1.993 . S
N460 N459 1.388 . S
N460 C461 1.346 . S
C461 N460 1.346 . S
C461 C462 1.396 . S
C461 C471 1.510 1_655 S
C462 C458 1.401 . S
C462 C461 1.396 . S
C463 C458 1.499 1_556 S
C463 H464 0.959 . S
C463 H465 0.960 . S
C463 H466 0.961 . S
H464 C463 0.959 . S
H465 C463 0.960 . S
H466 C463 0.961 . S
O467 Co442 1.967 . S
O467 C475 1.258 . S
O468 Co443 1.941 . S
O468 C475 1.266 . S
H469 C471 0.959 . S
H470 C471 0.961 . S
C471 C461 1.510 1_455 S
C471 H469 0.959 . S
C471 H470 0.961 . S
C471 H472 0.960 . S
H472 C471 0.960 . S
H473 N453 0.862 . S
O474 Co442 1.920 . S
O474 C447 1.289 . S
C475 O467 1.258 . S
C475 O468 1.266 . S
Co476 O479 1.970 . S
Co476 N493 1.989 . S
Co476 O501 1.967 . S
Co476 O508 1.920 . S
Co477 O480 1.966 . S
Co477 N486 2.022 . S
Co477 N494 1.993 . S
Co477 O502 1.941 . S
C478 O479 1.258 . S
C478 O480 1.263 . S
O479 Co476 1.970 . S
O479 C478 1.258 . S
O480 Co477 1.966 . S
O480 C478 1.263 . S
C481 O482 1.235 . S
C481 O508 1.289 . S
O482 C481 1.235 . S
C483 C485 1.400 . S
C483 N486 1.351 . S
C483 C488 1.501 . S
C484 C485 1.387 . S
C484 N487 1.341 . S
C485 C483 1.400 . S
C485 C484 1.387 . S
N486 Co477 2.022 . S
N486 C483 1.351 . S
N486 N487 1.365 . S
N487 C484 1.341 . S
N487 N486 1.365 . S
N487 H507 0.862 . S
C488 C483 1.501 . S
C488 H489 0.961 . S
C488 H490 0.961 . S
C488 H491 0.960 . S
H489 C488 0.961 . S
H490 C488 0.961 . S
H491 C488 0.960 . S
C492 N493 1.342 . S
C492 C496 1.401 . S
C492 C497 1.499 . S
N493 Co476 1.989 . S
N493 C492 1.342 . S
N493 N494 1.388 . S
N494 Co477 1.993 . S
N494 N493 1.388 . S
N494 C495 1.346 . S
C495 N494 1.346 . S
C495 C496 1.396 . S
C495 C505 1.510 . S
C496 C492 1.401 . S
C496 C495 1.396 . S
C497 C492 1.499 . S
C497 H498 0.959 . S
C497 H499 0.960 . S
C497 H500 0.961 . S
H498 C497 0.959 . S
H499 C497 0.960 . S
H500 C497 0.961 . S
O501 Co476 1.967 . S
O501 C509 1.258 . S
O502 Co477 1.941 . S
O502 C509 1.266 . S
H503 C505 0.959 . S
H504 C505 0.961 . S
C505 C495 1.510 . S
C505 H503 0.959 . S
C505 H504 0.961 . S
C505 H506 0.960 . S
H506 C505 0.960 . S
H507 N487 0.862 . S
O508 Co476 1.920 . S
O508 C481 1.289 . S
C509 O501 1.258 . S
C509 O502 1.266 . S
Co510 O513 1.970 . S
Co510 N527 1.989 . S
Co510 O535 1.967 . S
Co510 O542 1.920 . S
Co511 O514 1.966 . S
Co511 N520 2.022 . S
Co511 N528 1.993 . S
Co511 O536 1.941 . S
C512 O513 1.258 . S
C512 O514 1.263 . S
O513 Co510 1.970 . S
O513 C512 1.258 . S
O514 Co511 1.966 . S
O514 C512 1.263 . S
C515 O516 1.235 . S
C515 O542 1.289 . S
O516 C515 1.235 . S
C517 C519 1.400 . S
C517 N520 1.351 1_455 S
C517 C522 1.501 1_455 S
C518 C519 1.387 . S
C518 N521 1.341 . S
C519 C517 1.400 . S
C519 C518 1.387 . S
N520 Co511 2.022 . S
N520 C517 1.351 1_655 S
N520 N521 1.365 1_655 S
N521 C518 1.341 . S
N521 N520 1.365 1_455 S
N521 H541 0.862 . S
C522 C517 1.501 1_655 S
C522 H523 0.961 . S
C522 H524 0.961 . S
C522 H525 0.960 . S
H523 C522 0.961 . S
H524 C522 0.961 . S
H525 C522 0.960 . S
C526 N527 1.342 . S
C526 C530 1.401 . S
C526 C531 1.499 . S
N527 Co510 1.989 . S
N527 C526 1.342 . S
N527 N528 1.388 . S
N528 Co511 1.993 . S
N528 N527 1.388 . S
N528 C529 1.346 . S
C529 N528 1.346 . S
C529 C530 1.396 . S
C529 C539 1.510 1_655 S
C530 C526 1.401 . S
C530 C529 1.396 . S
C531 C526 1.499 . S
C531 H532 0.959 . S
C531 H533 0.960 . S
C531 H534 0.961 . S
H532 C531 0.959 . S
H533 C531 0.960 . S
H534 C531 0.961 . S
O535 Co510 1.967 . S
O535 C543 1.258 . S
O536 Co511 1.941 . S
O536 C543 1.266 . S
H537 C539 0.959 . S
H538 C539 0.961 . S
C539 C529 1.510 1_455 S
C539 H537 0.959 . S
C539 H538 0.961 . S
C539 H540 0.960 . S
H540 C539 0.960 . S
H541 N521 0.862 . S
O542 Co510 1.920 . S
O542 C515 1.289 . S
C543 O535 1.258 . S
C543 O536 1.266 . S
Co544 O547 1.970 . S
Co544 N561 1.989 . S
Co544 O569 1.967 . S
Co544 O576 1.920 . S
Co545 O548 1.966 . S
Co545 N554 2.022 . S
Co545 N562 1.993 . S
Co545 O570 1.941 . S
C546 O547 1.258 . S
C546 O548 1.263 . S
O547 Co544 1.970 . S
O547 C546 1.258 . S
O548 Co545 1.966 . S
O548 C546 1.263 . S
C549 O550 1.235 1_545 S
C549 O576 1.289 . S
O550 C549 1.235 1_565 S
C551 C553 1.400 . S
C551 N554 1.351 . S
C551 C556 1.501 . S
C552 C553 1.387 . S
C552 N555 1.341 . S
C553 C551 1.400 . S
C553 C552 1.387 . S
N554 Co545 2.022 . S
N554 C551 1.351 . S
N554 N555 1.365 . S
N555 C552 1.341 . S
N555 N554 1.365 . S
N555 H575 0.862 . S
C556 C551 1.501 . S
C556 H557 0.961 . S
C556 H558 0.961 . S
C556 H559 0.960 . S
H557 C556 0.961 . S
H558 C556 0.961 . S
H559 C556 0.960 . S
C560 N561 1.342 . S
C560 C564 1.401 . S
C560 C565 1.499 1_556 S
N561 Co544 1.989 . S
N561 C560 1.342 . S
N561 N562 1.388 . S
N562 Co545 1.993 . S
N562 N561 1.388 . S
N562 C563 1.346 . S
C563 N562 1.346 . S
C563 C564 1.396 . S
C563 C573 1.510 . S
C564 C560 1.401 . S
C564 C563 1.396 . S
C565 C560 1.499 1_554 S
C565 H566 0.959 . S
C565 H567 0.993 . S
C565 H568 0.961 . S
H566 C565 0.959 . S
H567 C565 0.993 . S
H568 C565 0.961 . S
O569 Co544 1.967 . S
O569 C577 1.258 . S
O570 Co545 1.941 . S
O570 C577 1.266 . S
H571 C573 0.959 . S
H572 C573 0.961 . S
C573 C563 1.510 . S
C573 H571 0.959 . S
C573 H572 0.961 . S
C573 H574 0.960 . S
H574 C573 0.960 . S
H575 N555 0.862 . S
O576 Co544 1.920 . S
O576 C549 1.289 . S
C577 O569 1.258 . S
C577 O570 1.266 . S
Co578 O581 1.970 . S
Co578 N595 1.989 . S
Co578 O603 1.967 . S
Co578 O610 1.920 . S
Co579 O582 1.966 . S
Co579 N588 2.022 . S
Co579 N596 1.993 . S
Co579 O604 1.941 . S
C580 O581 1.258 . S
C580 O582 1.263 . S
O581 Co578 1.970 . S
O581 C580 1.258 . S
O582 Co579 1.966 . S
O582 C580 1.263 . S
C583 O584 1.235 . S
C583 O610 1.289 . S
O584 C583 1.235 . S
C585 C587 1.400 . S
C585 N588 1.351 . S
C585 C590 1.501 . S
C586 C587 1.387 . S
C586 N589 1.341 . S
C587 C585 1.400 . S
C587 C586 1.387 . S
N588 Co579 2.022 . S
N588 C585 1.351 . S
N588 N589 1.365 . S
N589 C586 1.341 . S
N589 N588 1.365 . S
N589 H609 0.862 . S
C590 C585 1.501 . S
C590 H591 0.961 . S
C590 H592 0.961 . S
C590 H593 0.960 . S
H591 C590 0.961 . S
H592 C590 0.961 . S
H593 C590 0.960 . S
C594 N595 1.342 . S
C594 C598 1.401 . S
C594 C599 1.499 1_556 S
N595 Co578 1.989 . S
N595 C594 1.342 . S
N595 N596 1.388 . S
N596 Co579 1.993 . S
N596 N595 1.388 . S
N596 C597 1.346 . S
C597 N596 1.346 . S
C597 C598 1.396 . S
C597 C607 1.510 . S
C598 C594 1.401 . S
C598 C597 1.396 . S
C599 C594 1.499 1_554 S
C599 H600 0.959 . S
C599 H601 0.960 . S
C599 H602 0.961 . S
H600 C599 0.959 . S
H601 C599 0.960 . S
H602 C599 0.961 . S
O603 Co578 1.967 . S
O603 C611 1.258 . S
O604 Co579 1.941 . S
O604 C611 1.266 . S
H605 C607 0.959 . S
H606 C607 0.961 . S
C607 C597 1.510 . S
C607 H605 0.959 . S
C607 H606 0.961 . S
C607 H608 0.960 . S
H608 C607 0.960 . S
H609 N589 0.862 . S
O610 Co578 1.920 . S
O610 C583 1.289 . S
C611 O603 1.258 . S
C611 O604 1.266 . S
Co612 O615 1.970 . S
Co612 N629 1.989 . S
Co612 O637 1.967 . S
Co612 O644 1.920 . S
Co613 O616 1.966 . S
Co613 N622 2.022 . S
Co613 N630 1.993 . S
Co613 O638 1.941 . S
C614 O615 1.258 . S
C614 O616 1.263 . S
O615 Co612 1.970 . S
O615 C614 1.258 . S
O616 Co613 1.966 . S
O616 C614 1.263 . S
C617 O618 1.235 . S
C617 O644 1.289 . S
O618 C617 1.235 . S
C619 C621 1.400 . S
C619 N622 1.351 . S
C619 C624 1.501 . S
C620 C621 1.387 . S
C620 N623 1.341 . S
C621 C619 1.400 . S
C621 C620 1.387 . S
N622 Co613 2.022 . S
N622 C619 1.351 . S
N622 N623 1.365 . S
N623 C620 1.341 . S
N623 N622 1.365 . S
N623 H643 0.862 . S
C624 C619 1.501 . S
C624 H625 0.961 . S
C624 H626 0.961 . S
C624 H627 0.960 . S
H625 C624 0.961 . S
H626 C624 0.961 . S
H627 C624 0.960 . S
C628 N629 1.342 . S
C628 C632 1.401 . S
C628 C633 1.499 . S
N629 Co612 1.989 . S
N629 C628 1.342 . S
N629 N630 1.388 . S
N630 Co613 1.993 . S
N630 N629 1.388 . S
N630 C631 1.346 . S
C631 N630 1.346 . S
C631 C632 1.396 . S
C631 C641 1.510 . S
C632 C628 1.401 . S
C632 C631 1.396 . S
C633 C628 1.499 . S
C633 H634 0.959 . S
C633 H635 0.960 . S
C633 H636 0.961 . S
H634 C633 0.959 . S
H635 C633 0.960 . S
H636 C633 0.961 . S
O637 Co612 1.967 . S
O637 C645 1.258 . S
O638 Co613 1.941 . S
O638 C645 1.266 . S
H639 C641 0.959 . S
H640 C641 0.961 . S
C641 C631 1.510 . S
C641 H639 0.959 . S
C641 H640 0.961 . S
C641 H642 0.960 . S
H642 C641 0.960 . S
H643 N623 0.862 . S
O644 Co612 1.920 . S
O644 C617 1.289 . S
C645 O637 1.258 . S
C645 O638 1.266 . S
Co646 O649 1.970 . S
Co646 N663 1.989 . S
Co646 O671 1.967 . S
Co646 O678 1.920 . S
Co647 O650 1.966 . S
Co647 N656 2.022 . S
Co647 N664 1.993 . S
Co647 O672 1.941 . S
C648 O649 1.258 . S
C648 O650 1.263 . S
O649 Co646 1.970 . S
O649 C648 1.258 . S
O650 Co647 1.966 . S
O650 C648 1.263 . S
C651 O652 1.235 1_545 S
C651 O678 1.289 . S
O652 C651 1.235 1_565 S
C653 C655 1.400 . S
C653 N656 1.351 . S
C653 C658 1.501 . S
C654 C655 1.387 . S
C654 N657 1.341 . S
C655 C653 1.400 . S
C655 C654 1.387 . S
N656 Co647 2.022 . S
N656 C653 1.351 . S
N656 N657 1.365 . S
N657 C654 1.341 . S
N657 N656 1.365 . S
N657 H677 0.862 . S
C658 C653 1.501 . S
C658 H659 0.961 . S
C658 H660 0.961 . S
C658 H661 0.960 . S
H659 C658 0.961 . S
H660 C658 0.961 . S
H661 C658 0.960 . S
C662 N663 1.342 . S
C662 C666 1.401 . S
C662 C667 1.499 . S
N663 Co646 1.989 . S
N663 C662 1.342 . S
N663 N664 1.388 . S
N664 Co647 1.993 . S
N664 N663 1.388 . S
N664 C665 1.346 . S
C665 N664 1.346 . S
C665 C666 1.396 . S
C665 C675 1.510 . S
C666 C662 1.401 . S
C666 C665 1.396 . S
C667 C662 1.499 . S
C667 H668 0.959 . S
C667 H669 0.993 . S
C667 H670 0.961 . S
H668 C667 0.959 . S
H669 C667 0.993 . S
H670 C667 0.961 . S
O671 Co646 1.967 . S
O671 C679 1.258 . S
O672 Co647 1.941 . S
O672 C679 1.266 . S
H673 C675 0.959 . S
H674 C675 0.961 . S
C675 C665 1.510 . S
C675 H673 0.959 . S
C675 H674 0.961 . S
C675 H676 0.960 . S
H676 C675 0.960 . S
H677 N657 0.862 . S
O678 Co646 1.920 . S
O678 C651 1.289 . S
C679 O671 1.258 . S
C679 O672 1.266 . S
Co680 O683 1.970 . S
Co680 N697 1.989 . S
Co680 O705 1.967 . S
Co680 O712 1.920 . S
Co681 O684 1.966 . S
Co681 N690 2.022 . S
Co681 N698 1.993 . S
Co681 O706 1.941 . S
C682 O683 1.258 . S
C682 O684 1.263 . S
O683 Co680 1.970 . S
O683 C682 1.258 . S
O684 Co681 1.966 . S
O684 C682 1.263 . S
C685 O686 1.235 1_565 S
C685 O712 1.289 . S
O686 C685 1.235 1_545 S
C687 C689 1.400 . S
C687 N690 1.351 . S
C687 C692 1.501 . S
C688 C689 1.387 . S
C688 N691 1.341 . S
C689 C687 1.400 . S
C689 C688 1.387 . S
N690 Co681 2.022 . S
N690 C687 1.351 . S
N690 N691 1.365 . S
N691 C688 1.341 . S
N691 N690 1.365 . S
N691 H711 0.862 . S
C692 C687 1.501 . S
C692 H693 0.961 . S
C692 H694 0.961 . S
C692 H695 0.960 . S
H693 C692 0.961 . S
H694 C692 0.961 . S
H695 C692 0.960 . S
C696 N697 1.342 . S
C696 C700 1.401 . S
C696 C701 1.499 1_554 S
N697 Co680 1.989 . S
N697 C696 1.342 . S
N697 N698 1.388 . S
N698 Co681 1.993 . S
N698 N697 1.388 . S
N698 C699 1.346 . S
C699 N698 1.346 . S
C699 C700 1.396 . S
C699 C709 1.510 . S
C700 C696 1.401 . S
C700 C699 1.396 . S
C701 C696 1.499 1_556 S
C701 H702 0.959 . S
C701 H703 0.993 . S
C701 H704 0.961 . S
H702 C701 0.959 . S
H703 C701 0.993 . S
H704 C701 0.961 . S
O705 Co680 1.967 . S
O705 C713 1.258 . S
O706 Co681 1.941 . S
O706 C713 1.266 . S
H707 C709 0.959 . S
H708 C709 0.961 . S
C709 C699 1.510 . S
C709 H707 0.959 . S
C709 H708 0.961 . S
C709 H710 0.960 . S
H710 C709 0.960 . S
H711 N691 0.862 . S
O712 Co680 1.920 . S
O712 C685 1.289 . S
C713 O705 1.258 . S
C713 O706 1.266 . S
Co714 O717 1.970 . S
Co714 N731 1.989 . S
Co714 O739 1.967 . S
Co714 O746 1.920 . S
Co715 O718 1.966 . S
Co715 N724 2.022 . S
Co715 N732 1.993 . S
Co715 O740 1.941 . S
C716 O717 1.258 . S
C716 O718 1.263 . S
O717 Co714 1.970 . S
O717 C716 1.258 . S
O718 Co715 1.966 . S
O718 C716 1.263 . S
C719 O720 1.235 . S
C719 O746 1.289 . S
O720 C719 1.235 . S
C721 C723 1.400 . S
C721 N724 1.351 . S
C721 C726 1.501 . S
C722 C723 1.387 . S
C722 N725 1.341 . S
C723 C721 1.400 . S
C723 C722 1.387 . S
N724 Co715 2.022 . S
N724 C721 1.351 . S
N724 N725 1.365 . S
N725 C722 1.341 . S
N725 N724 1.365 . S
N725 H745 0.862 . S
C726 C721 1.501 . S
C726 H727 0.961 . S
C726 H728 0.961 . S
C726 H729 0.960 . S
H727 C726 0.961 . S
H728 C726 0.961 . S
H729 C726 0.960 . S
C730 N731 1.342 . S
C730 C734 1.401 . S
C730 C735 1.499 1_554 S
N731 Co714 1.989 . S
N731 C730 1.342 . S
N731 N732 1.388 . S
N732 Co715 1.993 . S
N732 N731 1.388 . S
N732 C733 1.346 . S
C733 N732 1.346 . S
C733 C734 1.396 . S
C733 C743 1.510 . S
C734 C730 1.401 . S
C734 C733 1.396 . S
C735 C730 1.499 1_556 S
C735 H736 0.959 . S
C735 H737 0.960 . S
C735 H738 0.961 . S
H736 C735 0.959 . S
H737 C735 0.960 . S
H738 C735 0.961 . S
O739 Co714 1.967 . S
O739 C747 1.258 . S
O740 Co715 1.941 . S
O740 C747 1.266 . S
H741 C743 0.959 . S
H742 C743 0.961 . S
C743 C733 1.510 . S
C743 H741 0.959 . S
C743 H742 0.961 . S
C743 H744 0.960 . S
H744 C743 0.960 . S
H745 N725 0.862 . S
O746 Co714 1.920 . S
O746 C719 1.289 . S
C747 O739 1.258 . S
C747 O740 1.266 . S
Co748 O751 1.970 . S
Co748 N765 1.989 . S
Co748 O773 1.967 . S
Co748 O780 1.920 . S
Co749 O752 1.966 . S
Co749 N758 2.022 . S
Co749 N766 1.993 . S
Co749 O774 1.941 . S
C750 O751 1.258 . S
C750 O752 1.263 . S
O751 Co748 1.970 . S
O751 C750 1.258 . S
O752 Co749 1.966 . S
O752 C750 1.263 . S
C753 O754 1.235 . S
C753 O780 1.289 . S
O754 C753 1.235 . S
C755 C757 1.400 . S
C755 N758 1.351 . S
C755 C760 1.501 . S
C756 C757 1.387 . S
C756 N759 1.341 . S
C757 C755 1.400 . S
C757 C756 1.387 . S
N758 Co749 2.022 . S
N758 C755 1.351 . S
N758 N759 1.365 . S
N759 C756 1.341 . S
N759 N758 1.365 . S
N759 H779 0.862 . S
C760 C755 1.501 . S
C760 H761 0.961 . S
C760 H762 0.961 . S
C760 H763 0.960 . S
H761 C760 0.961 . S
H762 C760 0.961 . S
H763 C760 0.960 . S
C764 N765 1.342 . S
C764 C768 1.401 . S
C764 C769 1.499 . S
N765 Co748 1.989 . S
N765 C764 1.342 . S
N765 N766 1.388 . S
N766 Co749 1.993 . S
N766 N765 1.388 . S
N766 C767 1.346 . S
C767 N766 1.346 . S
C767 C768 1.396 . S
C767 C777 1.510 . S
C768 C764 1.401 . S
C768 C767 1.396 . S
C769 C764 1.499 . S
C769 H770 0.959 . S
C769 H771 0.960 . S
C769 H772 0.961 . S
H770 C769 0.959 . S
H771 C769 0.960 . S
H772 C769 0.961 . S
O773 Co748 1.967 . S
O773 C781 1.258 . S
O774 Co749 1.941 . S
O774 C781 1.266 . S
H775 C777 0.959 . S
H776 C777 0.961 . S
C777 C767 1.510 . S
C777 H775 0.959 . S
C777 H776 0.961 . S
C777 H778 0.960 . S
H778 C777 0.960 . S
H779 N759 0.862 . S
O780 Co748 1.920 . S
O780 C753 1.289 . S
C781 O773 1.258 . S
C781 O774 1.266 . S
Co782 O785 1.970 . S
Co782 N799 1.989 . S
Co782 O807 1.967 . S
Co782 O814 1.920 . S
Co783 O786 1.966 . S
Co783 N792 2.022 . S
Co783 N800 1.993 . S
Co783 O808 1.941 . S
C784 O785 1.258 . S
C784 O786 1.263 . S
O785 Co782 1.970 . S
O785 C784 1.258 . S
O786 Co783 1.966 . S
O786 C784 1.263 . S
C787 O788 1.235 1_565 S
C787 O814 1.289 . S
O788 C787 1.235 1_545 S
C789 C791 1.400 . S
C789 N792 1.351 . S
C789 C794 1.501 . S
C790 C791 1.387 . S
C790 N793 1.341 . S
C791 C789 1.400 . S
C791 C790 1.387 . S
N792 Co783 2.022 . S
N792 C789 1.351 . S
N792 N793 1.365 . S
N793 C790 1.341 . S
N793 N792 1.365 . S
N793 H813 0.862 . S
C794 C789 1.501 . S
C794 H795 0.961 . S
C794 H796 0.961 . S
C794 H797 0.960 . S
H795 C794 0.961 . S
H796 C794 0.961 . S
H797 C794 0.960 . S
C798 N799 1.342 . S
C798 C802 1.401 . S
C798 C803 1.499 . S
N799 Co782 1.989 . S
N799 C798 1.342 . S
N799 N800 1.388 . S
N800 Co783 1.993 . S
N800 N799 1.388 . S
N800 C801 1.346 . S
C801 N800 1.346 . S
C801 C802 1.396 . S
C801 C811 1.510 . S
C802 C798 1.401 . S
C802 C801 1.396 . S
C803 C798 1.499 . S
C803 H804 0.959 . S
C803 H805 0.993 . S
C803 H806 0.961 . S
H804 C803 0.959 . S
H805 C803 0.993 . S
H806 C803 0.961 . S
O807 Co782 1.967 . S
O807 C815 1.258 . S
O808 Co783 1.941 . S
O808 C815 1.266 . S
H809 C811 0.959 . S
H810 C811 0.961 . S
C811 C801 1.510 . S
C811 H809 0.959 . S
C811 H810 0.961 . S
C811 H812 0.960 . S
H812 C811 0.960 . S
H813 N793 0.862 . S
O814 Co782 1.920 . S
O814 C787 1.289 . S
C815 O807 1.258 . S
C815 O808 1.266 . S
Co816 O819 1.970 . S
Co816 N833 1.989 . S
Co816 O841 1.967 . S
Co816 O848 1.920 . S
Co817 O820 1.966 . S
Co817 N826 2.022 . S
Co817 N834 1.993 . S
Co817 O842 1.941 . S
C818 O819 1.258 . S
C818 O820 1.263 . S
O819 Co816 1.970 . S
O819 C818 1.258 . S
O820 Co817 1.966 . S
O820 C818 1.263 . S
C821 O822 1.235 . S
C821 O848 1.289 . S
O822 C821 1.235 . S
C823 C825 1.400 . S
C823 N826 1.351 . S
C823 C828 1.501 . S
C824 C825 1.387 . S
C824 N827 1.341 . S
C825 C823 1.400 . S
C825 C824 1.387 . S
N826 Co817 2.022 . S
N826 C823 1.351 . S
N826 N827 1.365 . S
N827 C824 1.341 . S
N827 N826 1.365 . S
N827 H847 0.862 . S
C828 C823 1.501 . S
C828 H829 0.961 . S
C828 H830 0.961 . S
C828 H831 0.960 . S
H829 C828 0.961 . S
H830 C828 0.961 . S
H831 C828 0.960 . S
C832 N833 1.342 . S
C832 C836 1.401 . S
C832 C837 1.499 . S
N833 Co816 1.989 . S
N833 C832 1.342 . S
N833 N834 1.388 . S
N834 Co817 1.993 . S
N834 N833 1.388 . S
N834 C835 1.346 . S
C835 N834 1.346 . S
C835 C836 1.396 . S
C835 C845 1.510 . S
C836 C832 1.401 . S
C836 C835 1.396 . S
C837 C832 1.499 . S
C837 H838 0.959 . S
C837 H839 0.960 . S
C837 H840 0.961 . S
H838 C837 0.959 . S
H839 C837 0.960 . S
H840 C837 0.961 . S
O841 Co816 1.967 . S
O841 C849 1.258 . S
O842 Co817 1.941 . S
O842 C849 1.266 . S
H843 C845 0.959 . S
H844 C845 0.961 . S
C845 C835 1.510 . S
C845 H843 0.959 . S
C845 H844 0.961 . S
C845 H846 0.960 . S
H846 C845 0.960 . S
H847 N827 0.862 . S
O848 Co816 1.920 . S
O848 C821 1.289 . S
C849 O841 1.258 . S
C849 O842 1.266 . S
Co850 O853 1.970 . S
Co850 N867 1.989 . S
Co850 O875 1.967 . S
Co850 O882 1.920 . S
Co851 O854 1.966 . S
Co851 N860 2.022 . S
Co851 N868 1.993 . S
Co851 O876 1.941 . S
C852 O853 1.258 . S
C852 O854 1.263 . S
O853 Co850 1.970 . S
O853 C852 1.258 . S
O854 Co851 1.966 . S
O854 C852 1.263 . S
C855 O856 1.235 . S
C855 O882 1.289 . S
O856 C855 1.235 . S
C857 C859 1.400 . S
C857 N860 1.351 . S
C857 C862 1.501 . S
C858 C859 1.387 . S
C858 N861 1.341 . S
C859 C857 1.400 . S
C859 C858 1.387 . S
N860 Co851 2.022 . S
N860 C857 1.351 . S
N860 N861 1.365 . S
N861 C858 1.341 . S
N861 N860 1.365 . S
N861 H881 0.862 . S
C862 C857 1.501 . S
C862 H863 0.961 . S
C862 H864 0.961 . S
C862 H865 0.960 . S
H863 C862 0.961 . S
H864 C862 0.961 . S
H865 C862 0.960 . S
C866 N867 1.342 . S
C866 C870 1.401 . S
C866 C871 1.499 . S
N867 Co850 1.989 . S
N867 C866 1.342 . S
N867 N868 1.388 . S
N868 Co851 1.993 . S
N868 N867 1.388 . S
N868 C869 1.346 . S
C869 N868 1.346 . S
C869 C870 1.396 . S
C869 C879 1.510 . S
C870 C866 1.401 . S
C870 C869 1.396 . S
C871 C866 1.499 . S
C871 H872 0.959 . S
C871 H873 0.960 . S
C871 H874 0.961 . S
H872 C871 0.959 . S
H873 C871 0.960 . S
H874 C871 0.961 . S
O875 Co850 1.967 . S
O875 C883 1.258 . S
O876 Co851 1.941 . S
O876 C883 1.266 . S
H877 C879 0.959 . S
H878 C879 0.961 . S
C879 C869 1.510 . S
C879 H877 0.959 . S
C879 H878 0.961 . S
C879 H880 0.960 . S
H880 C879 0.960 . S
H881 N861 0.862 . S
O882 Co850 1.920 . S
O882 C855 1.289 . S
C883 O875 1.258 . S
C883 O876 1.266 . S
Co884 O887 1.970 . S
Co884 N901 1.989 . S
Co884 O909 1.967 . S
Co884 O916 1.920 . S
Co885 O888 1.966 . S
Co885 N894 2.022 . S
Co885 N902 1.993 . S
Co885 O910 1.941 . S
C886 O887 1.258 . S
C886 O888 1.263 . S
O887 Co884 1.970 . S
O887 C886 1.258 . S
O888 Co885 1.966 . S
O888 C886 1.263 . S
C889 O890 1.235 . S
C889 O916 1.289 . S
O890 C889 1.235 . S
C891 C893 1.400 . S
C891 N894 1.351 . S
C891 C896 1.501 . S
C892 C893 1.387 . S
C892 N895 1.341 . S
C893 C891 1.400 . S
C893 C892 1.387 . S
N894 Co885 2.022 . S
N894 C891 1.351 . S
N894 N895 1.365 . S
N895 C892 1.341 . S
N895 N894 1.365 . S
N895 H915 0.862 . S
C896 C891 1.501 . S
C896 H897 0.961 . S
C896 H898 0.961 . S
C896 H899 0.960 . S
H897 C896 0.961 . S
H898 C896 0.961 . S
H899 C896 0.960 . S
C900 N901 1.342 . S
C900 C904 1.401 . S
C900 C905 1.499 . S
N901 Co884 1.989 . S
N901 C900 1.342 . S
N901 N902 1.388 . S
N902 Co885 1.993 . S
N902 N901 1.388 . S
N902 C903 1.346 . S
C903 N902 1.346 . S
C903 C904 1.396 . S
C903 C913 1.510 . S
C904 C900 1.401 . S
C904 C903 1.396 . S
C905 C900 1.499 . S
C905 H906 0.959 . S
C905 H907 0.960 . S
C905 H908 0.961 . S
H906 C905 0.959 . S
H907 C905 0.960 . S
H908 C905 0.961 . S
O909 Co884 1.967 . S
O909 C917 1.258 . S
O910 Co885 1.941 . S
O910 C917 1.266 . S
H911 C913 0.959 . S
H912 C913 0.961 . S
C913 C903 1.510 . S
C913 H911 0.959 . S
C913 H912 0.961 . S
C913 H914 0.960 . S
H914 C913 0.960 . S
H915 N895 0.862 . S
O916 Co884 1.920 . S
O916 C889 1.289 . S
C917 O909 1.258 . S
C917 O910 1.266 . S
Co918 O921 1.970 . S
Co918 N935 1.989 . S
Co918 O943 1.967 . S
Co918 O950 1.920 . S
Co919 O922 1.966 . S
Co919 N928 2.022 . S
Co919 N936 1.993 . S
Co919 O944 1.941 . S
C920 O921 1.258 . S
C920 O922 1.263 . S
O921 Co918 1.970 . S
O921 C920 1.258 . S
O922 Co919 1.966 . S
O922 C920 1.263 . S
C923 O924 1.235 . S
C923 O950 1.289 . S
O924 C923 1.235 . S
C925 C927 1.400 . S
C925 N928 1.351 . S
C925 C930 1.501 . S
C926 C927 1.387 . S
C926 N929 1.341 . S
C927 C925 1.400 . S
C927 C926 1.387 . S
N928 Co919 2.022 . S
N928 C925 1.351 . S
N928 N929 1.365 . S
N929 C926 1.341 . S
N929 N928 1.365 . S
N929 H949 0.862 . S
C930 C925 1.501 . S
C930 H931 0.961 . S
C930 H932 0.961 . S
C930 H933 0.960 . S
H931 C930 0.961 . S
H932 C930 0.961 . S
H933 C930 0.960 . S
C934 N935 1.342 . S
C934 C938 1.401 . S
C934 C939 1.499 . S
N935 Co918 1.989 . S
N935 C934 1.342 . S
N935 N936 1.388 . S
N936 Co919 1.993 . S
N936 N935 1.388 . S
N936 C937 1.346 . S
C937 N936 1.346 . S
C937 C938 1.396 . S
C937 C947 1.510 . S
C938 C934 1.401 . S
C938 C937 1.396 . S
C939 C934 1.499 . S
C939 H940 0.959 . S
C939 H941 0.960 . S
C939 H942 0.961 . S
H940 C939 0.959 . S
H941 C939 0.960 . S
H942 C939 0.961 . S
O943 Co918 1.967 . S
O943 C951 1.258 . S
O944 Co919 1.941 . S
O944 C951 1.266 . S
H945 C947 0.959 . S
H946 C947 0.961 . S
C947 C937 1.510 . S
C947 H945 0.959 . S
C947 H946 0.961 . S
C947 H948 0.960 . S
H948 C947 0.960 . S
H949 N929 0.862 . S
O950 Co918 1.920 . S
O950 C923 1.289 . S
C951 O943 1.258 . S
C951 O944 1.266 . S
Co952 O955 1.970 . S
Co952 N969 1.989 . S
Co952 O977 1.967 . S
Co952 O984 1.920 . S
Co953 O956 1.966 . S
Co953 N962 2.022 . S
Co953 N970 1.993 . S
Co953 O978 1.941 . S
C954 O955 1.258 . S
C954 O956 1.263 . S
O955 Co952 1.970 . S
O955 C954 1.258 . S
O956 Co953 1.966 . S
O956 C954 1.263 . S
C957 O958 1.235 . S
C957 O984 1.289 . S
O958 C957 1.235 . S
C959 C961 1.400 . S
C959 N962 1.351 . S
C959 C964 1.501 . S
C960 C961 1.387 . S
C960 N963 1.341 . S
C961 C959 1.400 . S
C961 C960 1.387 . S
N962 Co953 2.022 . S
N962 C959 1.351 . S
N962 N963 1.365 . S
N963 C960 1.341 . S
N963 N962 1.365 . S
N963 H983 0.862 . S
C964 C959 1.501 . S
C964 H965 0.961 . S
C964 H966 0.961 . S
C964 H967 0.960 . S
H965 C964 0.961 . S
H966 C964 0.961 . S
H967 C964 0.960 . S
C968 N969 1.342 . S
C968 C972 1.401 . S
C968 C973 1.499 . S
N969 Co952 1.989 . S
N969 C968 1.342 . S
N969 N970 1.388 . S
N970 Co953 1.993 . S
N970 N969 1.388 . S
N970 C971 1.346 . S
C971 N970 1.346 . S
C971 C972 1.396 . S
C971 C981 1.510 . S
C972 C968 1.401 . S
C972 C971 1.396 . S
C973 C968 1.499 . S
C973 H974 0.959 . S
C973 H975 0.960 . S
C973 H976 0.961 . S
H974 C973 0.959 . S
H975 C973 0.960 . S
H976 C973 0.961 . S
O977 Co952 1.967 . S
O977 C985 1.258 . S
O978 Co953 1.941 . S
O978 C985 1.266 . S
H979 C981 0.959 . S
H980 C981 0.961 . S
C981 C971 1.510 . S
C981 H979 0.959 . S
C981 H980 0.961 . S
C981 H982 0.960 . S
H982 C981 0.960 . S
H983 N963 0.862 . S
O984 Co952 1.920 . S
O984 C957 1.289 . S
C985 O977 1.258 . S
C985 O978 1.266 . S
Co986 O989 1.970 . S
Co986 N1003 1.989 . S
Co986 O1011 1.967 . S
Co986 O1018 1.920 . S
Co987 O990 1.966 . S
Co987 N996 2.022 . S
Co987 N1004 1.993 . S
Co987 O1012 1.941 . S
C988 O989 1.258 . S
C988 O990 1.263 . S
O989 Co986 1.970 . S
O989 C988 1.258 . S
O990 Co987 1.966 . S
O990 C988 1.263 . S
C991 O992 1.235 . S
C991 O1018 1.289 . S
O992 C991 1.235 . S
C993 C995 1.400 . S
C993 N996 1.351 . S
C993 C998 1.501 . S
C994 C995 1.387 . S
C994 N997 1.341 . S
C995 C993 1.400 . S
C995 C994 1.387 . S
N996 Co987 2.022 . S
N996 C993 1.351 . S
N996 N997 1.365 . S
N997 C994 1.341 . S
N997 N996 1.365 . S
N997 H1017 0.862 . S
C998 C993 1.501 . S
C998 H999 0.961 . S
C998 H1000 0.961 . S
C998 H1001 0.960 . S
H999 C998 0.961 . S
H1000 C998 0.961 . S
H1001 C998 0.960 . S
C1002 N1003 1.342 . S
C1002 C1006 1.401 . S
C1002 C1007 1.499 . S
N1003 Co986 1.989 . S
N1003 C1002 1.342 . S
N1003 N1004 1.388 . S
N1004 Co987 1.993 . S
N1004 N1003 1.388 . S
N1004 C1005 1.346 . S
C1005 N1004 1.346 . S
C1005 C1006 1.396 . S
C1005 C1015 1.510 . S
C1006 C1002 1.401 . S
C1006 C1005 1.396 . S
C1007 C1002 1.499 . S
C1007 H1008 0.959 . S
C1007 H1009 0.960 . S
C1007 H1010 0.961 . S
H1008 C1007 0.959 . S
H1009 C1007 0.960 . S
H1010 C1007 0.961 . S
O1011 Co986 1.967 . S
O1011 C1019 1.258 . S
O1012 Co987 1.941 . S
O1012 C1019 1.266 . S
H1013 C1015 0.959 . S
H1014 C1015 0.961 . S
C1015 C1005 1.510 . S
C1015 H1013 0.959 . S
C1015 H1014 0.961 . S
C1015 H1016 0.960 . S
H1016 C1015 0.960 . S
H1017 N997 0.862 . S
O1018 Co986 1.920 . S
O1018 C991 1.289 . S
C1019 O1011 1.258 . S
C1019 O1012 1.266 . S
Co1020 O1023 1.970 . S
Co1020 N1037 1.989 . S
Co1020 O1045 1.967 . S
Co1020 O1052 1.920 . S
Co1021 O1024 1.966 . S
Co1021 N1030 2.022 . S
Co1021 N1038 1.993 . S
Co1021 O1046 1.941 . S
C1022 O1023 1.258 . S
C1022 O1024 1.263 . S
O1023 Co1020 1.970 . S
O1023 C1022 1.258 . S
O1024 Co1021 1.966 . S
O1024 C1022 1.263 . S
C1025 O1026 1.235 . S
C1025 O1052 1.289 . S
O1026 C1025 1.235 . S
C1027 C1029 1.400 . S
C1027 N1030 1.351 . S
C1027 C1032 1.501 . S
C1028 C1029 1.387 . S
C1028 N1031 1.341 . S
C1029 C1027 1.400 . S
C1029 C1028 1.387 . S
N1030 Co1021 2.022 . S
N1030 C1027 1.351 . S
N1030 N1031 1.365 . S
N1031 C1028 1.341 . S
N1031 N1030 1.365 . S
N1031 H1051 0.862 . S
C1032 C1027 1.501 . S
C1032 H1033 0.961 . S
C1032 H1034 0.961 . S
C1032 H1035 0.960 . S
H1033 C1032 0.961 . S
H1034 C1032 0.961 . S
H1035 C1032 0.960 . S
C1036 N1037 1.342 . S
C1036 C1040 1.401 . S
C1036 C1041 1.499 . S
N1037 Co1020 1.989 . S
N1037 C1036 1.342 . S
N1037 N1038 1.388 . S
N1038 Co1021 1.993 . S
N1038 N1037 1.388 . S
N1038 C1039 1.346 . S
C1039 N1038 1.346 . S
C1039 C1040 1.396 . S
C1039 C1049 1.510 . S
C1040 C1036 1.401 . S
C1040 C1039 1.396 . S
C1041 C1036 1.499 . S
C1041 H1042 0.959 . S
C1041 H1043 0.960 . S
C1041 H1044 0.961 . S
H1042 C1041 0.959 . S
H1043 C1041 0.960 . S
H1044 C1041 0.961 . S
O1045 Co1020 1.967 . S
O1045 C1053 1.258 . S
O1046 Co1021 1.941 . S
O1046 C1053 1.266 . S
H1047 C1049 0.959 . S
H1048 C1049 0.961 . S
C1049 C1039 1.510 . S
C1049 H1047 0.959 . S
C1049 H1048 0.961 . S
C1049 H1050 0.960 . S
H1050 C1049 0.960 . S
H1051 N1031 0.862 . S
O1052 Co1020 1.920 . S
O1052 C1025 1.289 . S
C1053 O1045 1.258 . S
C1053 O1046 1.266 . S
Co1054 O1057 1.970 . S
Co1054 N1071 1.989 . S
Co1054 O1079 1.967 . S
Co1054 O1086 1.920 . S
Co1055 O1058 1.966 . S
Co1055 N1064 2.022 . S
Co1055 N1072 1.993 . S
Co1055 O1080 1.941 . S
C1056 O1057 1.258 . S
C1056 O1058 1.263 . S
O1057 Co1054 1.970 . S
O1057 C1056 1.258 . S
O1058 Co1055 1.966 . S
O1058 C1056 1.263 . S
C1059 O1060 1.235 . S
C1059 O1086 1.289 . S
O1060 C1059 1.235 . S
C1061 C1063 1.400 . S
C1061 N1064 1.351 . S
C1061 C1066 1.501 . S
C1062 C1063 1.387 . S
C1062 N1065 1.341 . S
C1063 C1061 1.400 . S
C1063 C1062 1.387 . S
N1064 Co1055 2.022 . S
N1064 C1061 1.351 . S
N1064 N1065 1.365 . S
N1065 C1062 1.341 . S
N1065 N1064 1.365 . S
N1065 H1085 0.862 . S
C1066 C1061 1.501 . S
C1066 H1067 0.961 . S
C1066 H1068 0.961 . S
C1066 H1069 0.960 . S
H1067 C1066 0.961 . S
H1068 C1066 0.961 . S
H1069 C1066 0.960 . S
C1070 N1071 1.342 . S
C1070 C1074 1.401 . S
C1070 C1075 1.499 . S
N1071 Co1054 1.989 . S
N1071 C1070 1.342 . S
N1071 N1072 1.388 . S
N1072 Co1055 1.993 . S
N1072 N1071 1.388 . S
N1072 C1073 1.346 . S
C1073 N1072 1.346 . S
C1073 C1074 1.396 . S
C1073 C1083 1.510 . S
C1074 C1070 1.401 . S
C1074 C1073 1.396 . S
C1075 C1070 1.499 . S
C1075 H1076 0.959 . S
C1075 H1077 0.960 . S
C1075 H1078 0.961 . S
H1076 C1075 0.959 . S
H1077 C1075 0.960 . S
H1078 C1075 0.961 . S
O1079 Co1054 1.967 . S
O1079 C1087 1.258 . S
O1080 Co1055 1.941 . S
O1080 C1087 1.266 . S
H1081 C1083 0.959 . S
H1082 C1083 0.961 . S
C1083 C1073 1.510 . S
C1083 H1081 0.959 . S
C1083 H1082 0.961 . S
C1083 H1084 0.960 . S
H1084 C1083 0.960 . S
H1085 N1065 0.862 . S
O1086 Co1054 1.920 . S
O1086 C1059 1.289 . S
C1087 O1079 1.258 . S
C1087 O1080 1.266 . S
H1088 C1094 0.930 . S
H1089 C1098 0.930 . S
H1090 C1103 0.929 . S
H1091 C1101 0.929 . S
H1092 C1096 0.929 . S
H1093 C1102 0.929 . S
C1094 H1088 0.930 . S
C1094 C1095 1.367 . S
C1094 C1102 1.378 . S
C1095 C1094 1.367 . S
C1095 C1103 1.433 . S
C1096 H1092 0.929 . S
C1096 C1098 1.378 . S
C1096 C1100 1.350 . S
C1097 C1100 1.463 . S
C1097 C1102 1.350 . S
C1097 N1105 1.427 . S
C1098 H1089 0.930 . S
C1098 C1096 1.378 . S
C1098 C1099 1.367 . S
C1099 C1098 1.367 . S
C1099 C1101 1.433 . S
C1100 C1096 1.350 . S
C1100 C1097 1.463 . S
C1100 N1104 1.427 . S
C1101 H1091 0.929 . S
C1101 C1099 1.433 . S
C1101 N1104 1.384 . S
C1102 H1093 0.929 . S
C1102 C1094 1.378 . S
C1102 C1097 1.350 . S
C1103 H1090 0.929 . S
C1103 C1095 1.433 . S
C1103 N1105 1.384 . S
N1104 C1100 1.427 . S
N1104 C1101 1.384 . S
N1105 C1097 1.427 . S
N1105 C1103 1.384 . S
H1106 C1112 0.930 . S
H1107 C1116 0.930 . S
H1108 C1121 0.929 . S
H1109 C1119 0.929 . S
H1110 C1114 0.929 . S
H1111 C1120 0.929 . S
C1112 H1106 0.930 . S
C1112 C1113 1.367 . S
C1112 C1120 1.378 . S
C1113 C1112 1.367 . S
C1113 C1121 1.433 . S
C1114 H1110 0.929 . S
C1114 C1116 1.378 . S
C1114 C1118 1.350 . S
C1115 C1118 1.463 . S
C1115 C1120 1.350 . S
C1115 N1123 1.427 . S
C1116 H1107 0.930 . S
C1116 C1114 1.378 . S
C1116 C1117 1.367 . S
C1117 C1116 1.367 . S
C1117 C1119 1.433 . S
C1118 C1114 1.350 . S
C1118 C1115 1.463 . S
C1118 N1122 1.427 . S
C1119 H1109 0.929 . S
C1119 C1117 1.433 . S
C1119 N1122 1.384 . S
C1120 H1111 0.929 . S
C1120 C1112 1.378 . S
C1120 C1115 1.350 . S
C1121 H1108 0.929 . S
C1121 C1113 1.433 . S
C1121 N1123 1.384 . S
N1122 C1118 1.427 . S
N1122 C1119 1.384 . S
N1123 C1115 1.427 . S
N1123 C1121 1.384 . S
H1124 C1130 0.930 . S
H1125 C1134 0.930 . S
H1126 C1139 0.929 . S
H1127 C1137 0.929 . S
H1128 C1132 0.929 . S
H1129 C1138 0.929 . S
C1130 H1124 0.930 . S
C1130 C1131 1.367 . S
C1130 C1138 1.378 . S
C1131 C1130 1.367 . S
C1131 C1139 1.433 . S
C1132 H1128 0.929 . S
C1132 C1134 1.378 . S
C1132 C1136 1.350 . S
C1133 C1136 1.463 . S
C1133 C1138 1.350 . S
C1133 N1141 1.427 . S
C1134 H1125 0.930 . S
C1134 C1132 1.378 . S
C1134 C1135 1.367 . S
C1135 C1134 1.367 . S
C1135 C1137 1.433 . S
C1136 C1132 1.350 . S
C1136 C1133 1.463 . S
C1136 N1140 1.427 . S
C1137 H1127 0.929 . S
C1137 C1135 1.433 . S
C1137 N1140 1.384 . S
C1138 H1129 0.929 . S
C1138 C1130 1.378 . S
C1138 C1133 1.350 . S
C1139 H1126 0.929 . S
C1139 C1131 1.433 . S
C1139 N1141 1.384 . S
N1140 C1136 1.427 . S
N1140 C1137 1.384 . S
N1141 C1133 1.427 . S
N1141 C1139 1.384 . S
H1142 C1148 0.930 . S
H1143 C1152 0.930 . S
H1144 C1157 0.929 . S
H1145 C1155 0.929 . S
H1146 C1150 0.929 . S
H1147 C1156 0.929 . S
C1148 H1142 0.930 . S
C1148 C1149 1.367 . S
C1148 C1156 1.378 . S
C1149 C1148 1.367 . S
C1149 C1157 1.433 . S
C1150 H1146 0.929 . S
C1150 C1152 1.378 . S
C1150 C1154 1.350 . S
C1151 C1154 1.463 . S
C1151 C1156 1.350 . S
C1151 N1159 1.427 . S
C1152 H1143 0.930 . S
C1152 C1150 1.378 . S
C1152 C1153 1.367 . S
C1153 C1152 1.367 . S
C1153 C1155 1.433 . S
C1154 C1150 1.350 . S
C1154 C1151 1.463 . S
C1154 N1158 1.427 . S
C1155 H1145 0.929 . S
C1155 C1153 1.433 . S
C1155 N1158 1.384 . S
C1156 H1147 0.929 . S
C1156 C1148 1.378 . S
C1156 C1151 1.350 . S
C1157 H1144 0.929 . S
C1157 C1149 1.433 . S
C1157 N1159 1.384 . S
N1158 C1154 1.427 . S
N1158 C1155 1.384 . S
N1159 C1151 1.427 . S
N1159 C1157 1.384 . S
H1160 C1166 0.930 . S
H1161 C1170 0.930 . S
H1162 C1175 0.929 . S
H1163 C1173 0.929 . S
H1164 C1168 0.929 . S
H1165 C1174 0.929 . S
C1166 H1160 0.930 . S
C1166 C1167 1.367 . S
C1166 C1174 1.378 . S
C1167 C1166 1.367 . S
C1167 C1175 1.433 . S
C1168 H1164 0.929 . S
C1168 C1170 1.378 . S
C1168 C1172 1.350 . S
C1169 C1172 1.463 . S
C1169 C1174 1.350 . S
C1169 N1177 1.427 . S
C1170 H1161 0.930 . S
C1170 C1168 1.378 . S
C1170 C1171 1.367 . S
C1171 C1170 1.367 . S
C1171 C1173 1.433 . S
C1172 C1168 1.350 . S
C1172 C1169 1.463 . S
C1172 N1176 1.427 . S
C1173 H1163 0.929 . S
C1173 C1171 1.433 . S
C1173 N1176 1.384 . S
C1174 H1165 0.929 . S
C1174 C1166 1.378 . S
C1174 C1169 1.350 . S
C1175 H1162 0.929 . S
C1175 C1167 1.433 . S
C1175 N1177 1.384 . S
N1176 C1172 1.427 . S
N1176 C1173 1.384 . S
N1177 C1169 1.427 . S
N1177 C1175 1.384 . S
H1178 C1184 0.930 . S
H1179 C1188 0.930 . S
H1180 C1193 0.929 . S
H1181 C1191 0.929 . S
H1182 C1186 0.929 . S
H1183 C1192 0.929 . S
C1184 H1178 0.930 . S
C1184 C1185 1.367 . S
C1184 C1192 1.378 . S
C1185 C1184 1.367 . S
C1185 C1193 1.433 . S
C1186 H1182 0.929 . S
C1186 C1188 1.378 . S
C1186 C1190 1.350 . S
C1187 C1190 1.463 . S
C1187 C1192 1.350 . S
C1187 N1195 1.427 . S
C1188 H1179 0.930 . S
C1188 C1186 1.378 . S
C1188 C1189 1.367 . S
C1189 C1188 1.367 . S
C1189 C1191 1.433 . S
C1190 C1186 1.350 . S
C1190 C1187 1.463 . S
C1190 N1194 1.427 . S
C1191 H1181 0.929 . S
C1191 C1189 1.433 . S
C1191 N1194 1.384 . S
C1192 H1183 0.929 . S
C1192 C1184 1.378 . S
C1192 C1187 1.350 . S
C1193 H1180 0.929 . S
C1193 C1185 1.433 . S
C1193 N1195 1.384 . S
N1194 C1190 1.427 . S
N1194 C1191 1.384 . S
N1195 C1187 1.427 . S
N1195 C1193 1.384 . S
H1196 C1202 0.930 . S
H1197 C1206 0.930 . S
H1198 C1211 0.929 . S
H1199 C1209 0.929 . S
H1200 C1204 0.929 . S
H1201 C1210 0.929 . S
C1202 H1196 0.930 . S
C1202 C1203 1.367 . S
C1202 C1210 1.378 . S
C1203 C1202 1.367 . S
C1203 C1211 1.433 . S
C1204 H1200 0.929 . S
C1204 C1206 1.378 . S
C1204 C1208 1.350 . S
C1205 C1208 1.463 . S
C1205 C1210 1.350 . S
C1205 N1213 1.427 . S
C1206 H1197 0.930 . S
C1206 C1204 1.378 . S
C1206 C1207 1.367 . S
C1207 C1206 1.367 . S
C1207 C1209 1.433 . S
C1208 C1204 1.350 . S
C1208 C1205 1.463 . S
C1208 N1212 1.427 . S
C1209 H1199 0.929 . S
C1209 C1207 1.433 . S
C1209 N1212 1.384 . S
C1210 H1201 0.929 . S
C1210 C1202 1.378 . S
C1210 C1205 1.350 . S
C1211 H1198 0.929 . S
C1211 C1203 1.433 . S
C1211 N1213 1.384 . S
N1212 C1208 1.427 . S
N1212 C1209 1.384 . S
N1213 C1205 1.427 . S
N1213 C1211 1.384 . S
H1214 C1220 0.930 . S
H1215 C1224 0.930 . S
H1216 C1229 0.929 . S
H1217 C1227 0.929 . S
H1218 C1222 0.929 . S
H1219 C1228 0.929 . S
C1220 H1214 0.930 . S
C1220 C1221 1.367 . S
C1220 C1228 1.378 . S
C1221 C1220 1.367 . S
C1221 C1229 1.433 . S
C1222 H1218 0.929 . S
C1222 C1224 1.378 . S
C1222 C1226 1.350 . S
C1223 C1226 1.463 . S
C1223 C1228 1.350 . S
C1223 N1231 1.427 . S
C1224 H1215 0.930 . S
C1224 C1222 1.378 . S
C1224 C1225 1.367 . S
C1225 C1224 1.367 . S
C1225 C1227 1.433 . S
C1226 C1222 1.350 . S
C1226 C1223 1.463 . S
C1226 N1230 1.427 . S
C1227 H1217 0.929 . S
C1227 C1225 1.433 . S
C1227 N1230 1.384 . S
C1228 H1219 0.929 . S
C1228 C1220 1.378 . S
C1228 C1223 1.350 . S
C1229 H1216 0.929 . S
C1229 C1221 1.433 . S
C1229 N1231 1.384 . S
N1230 C1226 1.427 . S
N1230 C1227 1.384 . S
N1231 C1223 1.427 . S
N1231 C1229 1.384 . S
H1232 C1238 0.930 . S
H1233 C1242 0.930 . S
H1234 C1247 0.929 . S
H1235 C1245 0.929 . S
H1236 C1240 0.929 . S
H1237 C1246 0.929 . S
C1238 H1232 0.930 . S
C1238 C1239 1.367 . S
C1238 C1246 1.378 . S
C1239 C1238 1.367 . S
C1239 C1247 1.433 . S
C1240 H1236 0.929 . S
C1240 C1242 1.378 . S
C1240 C1244 1.350 . S
C1241 C1244 1.463 . S
C1241 C1246 1.350 . S
C1241 N1249 1.427 . S
C1242 H1233 0.930 . S
C1242 C1240 1.378 . S
C1242 C1243 1.367 . S
C1243 C1242 1.367 . S
C1243 C1245 1.433 . S
C1244 C1240 1.350 . S
C1244 C1241 1.463 . S
C1244 N1248 1.427 . S
C1245 H1235 0.929 . S
C1245 C1243 1.433 . S
C1245 N1248 1.384 . S
C1246 H1237 0.929 . S
C1246 C1238 1.378 . S
C1246 C1241 1.350 . S
C1247 H1234 0.929 . S
C1247 C1239 1.433 . S
C1247 N1249 1.384 . S
N1248 C1244 1.427 . S
N1248 C1245 1.384 . S
N1249 C1241 1.427 . S
N1249 C1247 1.384 . S
H1250 C1256 0.930 . S
H1251 C1260 0.930 . S
H1252 C1265 0.929 . S
H1253 C1263 0.929 . S
H1254 C1258 0.929 . S
H1255 C1264 0.929 . S
C1256 H1250 0.930 . S
C1256 C1257 1.367 . S
C1256 C1264 1.378 . S
C1257 C1256 1.367 . S
C1257 C1265 1.433 . S
C1258 H1254 0.929 . S
C1258 C1260 1.378 . S
C1258 C1262 1.350 . S
C1259 C1262 1.463 . S
C1259 C1264 1.350 . S
C1259 N1267 1.427 . S
C1260 H1251 0.930 . S
C1260 C1258 1.378 . S
C1260 C1261 1.367 . S
C1261 C1260 1.367 . S
C1261 C1263 1.433 . S
C1262 C1258 1.350 . S
C1262 C1259 1.463 . S
C1262 N1266 1.427 . S
C1263 H1253 0.929 . S
C1263 C1261 1.433 . S
C1263 N1266 1.384 . S
C1264 H1255 0.929 . S
C1264 C1256 1.378 . S
C1264 C1259 1.350 . S
C1265 H1252 0.929 . S
C1265 C1257 1.433 . S
C1265 N1267 1.384 . S
N1266 C1262 1.427 . S
N1266 C1263 1.384 . S
N1267 C1259 1.427 . S
N1267 C1265 1.384 . S
H1268 C1274 0.930 . S
H1269 C1278 0.930 . S
H1270 C1283 0.929 . S
H1271 C1281 0.929 . S
H1272 C1276 0.929 . S
H1273 C1282 0.929 . S
C1274 H1268 0.930 . S
C1274 C1275 1.367 . S
C1274 C1282 1.378 . S
C1275 C1274 1.367 . S
C1275 C1283 1.433 . S
C1276 H1272 0.929 . S
C1276 C1278 1.378 . S
C1276 C1280 1.350 . S
C1277 C1280 1.463 . S
C1277 C1282 1.350 . S
C1277 N1285 1.427 . S
C1278 H1269 0.930 . S
C1278 C1276 1.378 . S
C1278 C1279 1.367 . S
C1279 C1278 1.367 . S
C1279 C1281 1.433 . S
C1280 C1276 1.350 . S
C1280 C1277 1.463 . S
C1280 N1284 1.427 . S
C1281 H1271 0.929 . S
C1281 C1279 1.433 . S
C1281 N1284 1.384 . S
C1282 H1273 0.929 . S
C1282 C1274 1.378 . S
C1282 C1277 1.350 . S
C1283 H1270 0.929 . S
C1283 C1275 1.433 . S
C1283 N1285 1.384 . S
N1284 C1280 1.427 . S
N1284 C1281 1.384 . S
N1285 C1277 1.427 . S
N1285 C1283 1.384 . S
H1286 C1292 0.930 . S
H1287 C1296 0.930 . S
H1288 C1301 0.929 . S
H1289 C1299 0.929 . S
H1290 C1294 0.929 . S
H1291 C1300 0.929 . S
C1292 H1286 0.930 . S
C1292 C1293 1.367 . S
C1292 C1300 1.378 . S
C1293 C1292 1.367 . S
C1293 C1301 1.433 . S
C1294 H1290 0.929 . S
C1294 C1296 1.378 . S
C1294 C1298 1.350 . S
C1295 C1298 1.463 . S
C1295 C1300 1.350 . S
C1295 N1303 1.427 . S
C1296 H1287 0.930 . S
C1296 C1294 1.378 . S
C1296 C1297 1.367 . S
C1297 C1296 1.367 . S
C1297 C1299 1.433 . S
C1298 C1294 1.350 . S
C1298 C1295 1.463 . S
C1298 N1302 1.427 . S
C1299 H1289 0.929 . S
C1299 C1297 1.433 . S
C1299 N1302 1.384 . S
C1300 H1291 0.929 . S
C1300 C1292 1.378 . S
C1300 C1295 1.350 . S
C1301 H1288 0.929 . S
C1301 C1293 1.433 . S
C1301 N1303 1.384 . S
N1302 C1298 1.427 . S
N1302 C1299 1.384 . S
N1303 C1295 1.427 . S
N1303 C1301 1.384 . S
H1304 C1310 0.930 . S
H1305 C1314 0.930 . S
H1306 C1319 0.929 . S
H1307 C1317 0.929 . S
H1308 C1312 0.929 . S
H1309 C1318 0.929 . S
C1310 H1304 0.930 . S
C1310 C1311 1.367 . S
C1310 C1318 1.378 . S
C1311 C1310 1.367 . S
C1311 C1319 1.433 . S
C1312 H1308 0.929 . S
C1312 C1314 1.378 . S
C1312 C1316 1.350 . S
C1313 C1316 1.463 . S
C1313 C1318 1.350 . S
C1313 N1321 1.427 . S
C1314 H1305 0.930 . S
C1314 C1312 1.378 . S
C1314 C1315 1.367 . S
C1315 C1314 1.367 . S
C1315 C1317 1.433 . S
C1316 C1312 1.350 . S
C1316 C1313 1.463 . S
C1316 N1320 1.427 . S
C1317 H1307 0.929 . S
C1317 C1315 1.433 . S
C1317 N1320 1.384 . S
C1318 H1309 0.929 . S
C1318 C1310 1.378 . S
C1318 C1313 1.350 . S
C1319 H1306 0.929 . S
C1319 C1311 1.433 . S
C1319 N1321 1.384 . S
N1320 C1316 1.427 . S
N1320 C1317 1.384 . S
N1321 C1313 1.427 . S
N1321 C1319 1.384 . S
H1322 C1328 0.930 . S
H1323 C1332 0.930 . S
H1324 C1337 0.929 . S
H1325 C1335 0.929 . S
H1326 C1330 0.929 . S
H1327 C1336 0.929 . S
C1328 H1322 0.930 . S
C1328 C1329 1.367 . S
C1328 C1336 1.378 . S
C1329 C1328 1.367 . S
C1329 C1337 1.433 . S
C1330 H1326 0.929 . S
C1330 C1332 1.378 . S
C1330 C1334 1.350 . S
C1331 C1334 1.463 . S
C1331 C1336 1.350 . S
C1331 N1339 1.427 . S
C1332 H1323 0.930 . S
C1332 C1330 1.378 . S
C1332 C1333 1.367 . S
C1333 C1332 1.367 . S
C1333 C1335 1.433 . S
C1334 C1330 1.350 . S
C1334 C1331 1.463 . S
C1334 N1338 1.427 . S
C1335 H1325 0.929 . S
C1335 C1333 1.433 . S
C1335 N1338 1.384 . S
C1336 H1327 0.929 . S
C1336 C1328 1.378 . S
C1336 C1331 1.350 . S
C1337 H1324 0.929 . S
C1337 C1329 1.433 . S
C1337 N1339 1.384 . S
N1338 C1334 1.427 . S
N1338 C1335 1.384 . S
N1339 C1331 1.427 . S
N1339 C1337 1.384 . S
H1340 C1346 0.930 . S
H1341 C1350 0.930 . S
H1342 C1355 0.929 . S
H1343 C1353 0.929 . S
H1344 C1348 0.929 . S
H1345 C1354 0.929 . S
C1346 H1340 0.930 . S
C1346 C1347 1.367 . S
C1346 C1354 1.378 . S
C1347 C1346 1.367 . S
C1347 C1355 1.433 . S
C1348 H1344 0.929 . S
C1348 C1350 1.378 . S
C1348 C1352 1.350 . S
C1349 C1352 1.463 . S
C1349 C1354 1.350 . S
C1349 N1357 1.427 . S
C1350 H1341 0.930 . S
C1350 C1348 1.378 . S
C1350 C1351 1.367 . S
C1351 C1350 1.367 . S
C1351 C1353 1.433 . S
C1352 C1348 1.350 . S
C1352 C1349 1.463 . S
C1352 N1356 1.427 . S
C1353 H1343 0.929 . S
C1353 C1351 1.433 . S
C1353 N1356 1.384 . S
C1354 H1345 0.929 . S
C1354 C1346 1.378 . S
C1354 C1349 1.350 . S
C1355 H1342 0.929 . S
C1355 C1347 1.433 . S
C1355 N1357 1.384 . S
N1356 C1352 1.427 . S
N1356 C1353 1.384 . S
N1357 C1349 1.427 . S
N1357 C1355 1.384 . S
H1358 C1364 0.930 . S
H1359 C1368 0.930 . S
H1360 C1373 0.929 . S
H1361 C1371 0.929 . S
H1362 C1366 0.929 . S
H1363 C1372 0.929 . S
C1364 H1358 0.930 . S
C1364 C1365 1.367 . S
C1364 C1372 1.378 . S
C1365 C1364 1.367 . S
C1365 C1373 1.433 . S
C1366 H1362 0.929 . S
C1366 C1368 1.378 . S
C1366 C1370 1.350 . S
C1367 C1370 1.463 . S
C1367 C1372 1.350 . S
C1367 N1375 1.427 . S
C1368 H1359 0.930 . S
C1368 C1366 1.378 . S
C1368 C1369 1.367 . S
C1369 C1368 1.367 . S
C1369 C1371 1.433 . S
C1370 C1366 1.350 . S
C1370 C1367 1.463 . S
C1370 N1374 1.427 . S
C1371 H1361 0.929 . S
C1371 C1369 1.433 . S
C1371 N1374 1.384 . S
C1372 H1363 0.929 . S
C1372 C1364 1.378 . S
C1372 C1367 1.350 . S
C1373 H1360 0.929 . S
C1373 C1365 1.433 . S
C1373 N1375 1.384 . S
N1374 C1370 1.427 . S
N1374 C1371 1.384 . S
N1375 C1367 1.427 . S
N1375 C1373 1.384 . S
H1376 C1382 0.930 . S
H1377 C1386 0.930 . S
H1378 C1391 0.929 . S
H1379 C1389 0.929 . S
H1380 C1384 0.929 . S
H1381 C1390 0.929 . S
C1382 H1376 0.930 . S
C1382 C1383 1.367 . S
C1382 C1390 1.378 . S
C1383 C1382 1.367 . S
C1383 C1391 1.433 . S
C1384 H1380 0.929 . S
C1384 C1386 1.378 . S
C1384 C1388 1.350 . S
C1385 C1388 1.463 . S
C1385 C1390 1.350 . S
C1385 N1393 1.427 . S
C1386 H1377 0.930 . S
C1386 C1384 1.378 . S
C1386 C1387 1.367 . S
C1387 C1386 1.367 . S
C1387 C1389 1.433 . S
C1388 C1384 1.350 . S
C1388 C1385 1.463 . S
C1388 N1392 1.427 . S
C1389 H1379 0.929 . S
C1389 C1387 1.433 . S
C1389 N1392 1.384 . S
C1390 H1381 0.929 . S
C1390 C1382 1.378 . S
C1390 C1385 1.350 . S
C1391 H1378 0.929 . S
C1391 C1383 1.433 . S
C1391 N1393 1.384 . S
N1392 C1388 1.427 . S
N1392 C1389 1.384 . S
N1393 C1385 1.427 . S
N1393 C1391 1.384 . S
H1394 C1400 0.930 . S
H1395 C1404 0.930 . S
H1396 C1409 0.929 . S
H1397 C1407 0.929 . S
H1398 C1402 0.929 . S
H1399 C1408 0.929 . S
C1400 H1394 0.930 . S
C1400 C1401 1.367 . S
C1400 C1408 1.378 . S
C1401 C1400 1.367 . S
C1401 C1409 1.433 . S
C1402 H1398 0.929 . S
C1402 C1404 1.378 . S
C1402 C1406 1.350 . S
C1403 C1406 1.463 . S
C1403 C1408 1.350 . S
C1403 N1411 1.427 . S
C1404 H1395 0.930 . S
C1404 C1402 1.378 . S
C1404 C1405 1.367 . S
C1405 C1404 1.367 . S
C1405 C1407 1.433 . S
C1406 C1402 1.350 . S
C1406 C1403 1.463 . S
C1406 N1410 1.427 . S
C1407 H1397 0.929 . S
C1407 C1405 1.433 . S
C1407 N1410 1.384 . S
C1408 H1399 0.929 . S
C1408 C1400 1.378 . S
C1408 C1403 1.350 . S
C1409 H1396 0.929 . S
C1409 C1401 1.433 . S
C1409 N1411 1.384 . S
N1410 C1406 1.427 . S
N1410 C1407 1.384 . S
N1411 C1403 1.427 . S
N1411 C1409 1.384 . S
H1412 C1418 0.930 . S
H1413 C1422 0.930 . S
H1414 C1427 0.929 . S
H1415 C1425 0.929 . S
H1416 C1420 0.929 . S
H1417 C1426 0.929 . S
C1418 H1412 0.930 . S
C1418 C1419 1.367 . S
C1418 C1426 1.378 . S
C1419 C1418 1.367 . S
C1419 C1427 1.433 . S
C1420 H1416 0.929 . S
C1420 C1422 1.378 . S
C1420 C1424 1.350 . S
C1421 C1424 1.463 . S
C1421 C1426 1.350 . S
C1421 N1429 1.427 . S
C1422 H1413 0.930 . S
C1422 C1420 1.378 . S
C1422 C1423 1.367 . S
C1423 C1422 1.367 . S
C1423 C1425 1.433 . S
C1424 C1420 1.350 . S
C1424 C1421 1.463 . S
C1424 N1428 1.427 . S
C1425 H1415 0.929 . S
C1425 C1423 1.433 . S
C1425 N1428 1.384 . S
C1426 H1417 0.929 . S
C1426 C1418 1.378 . S
C1426 C1421 1.350 . S
C1427 H1414 0.929 . S
C1427 C1419 1.433 . S
C1427 N1429 1.384 . S
N1428 C1424 1.427 . S
N1428 C1425 1.384 . S
N1429 C1421 1.427 . S
N1429 C1427 1.384 . S
H1430 C1436 0.930 . S
H1431 C1440 0.930 . S
H1432 C1445 0.929 . S
H1433 C1443 0.929 . S
H1434 C1438 0.929 . S
H1435 C1444 0.929 . S
C1436 H1430 0.930 . S
C1436 C1437 1.367 . S
C1436 C1444 1.378 . S
C1437 C1436 1.367 . S
C1437 C1445 1.433 . S
C1438 H1434 0.929 . S
C1438 C1440 1.378 . S
C1438 C1442 1.350 . S
C1439 C1442 1.463 . S
C1439 C1444 1.350 . S
C1439 N1447 1.427 . S
C1440 H1431 0.930 . S
C1440 C1438 1.378 . S
C1440 C1441 1.367 . S
C1441 C1440 1.367 . S
C1441 C1443 1.433 . S
C1442 C1438 1.350 . S
C1442 C1439 1.463 . S
C1442 N1446 1.427 . S
C1443 H1433 0.929 . S
C1443 C1441 1.433 . S
C1443 N1446 1.384 . S
C1444 H1435 0.929 . S
C1444 C1436 1.378 . S
C1444 C1439 1.350 . S
C1445 H1432 0.929 . S
C1445 C1437 1.433 . S
C1445 N1447 1.384 . S
N1446 C1442 1.427 . S
N1446 C1443 1.384 . S
N1447 C1439 1.427 . S
N1447 C1445 1.384 . S
H1448 C1454 0.930 . S
H1449 C1458 0.930 . S
H1450 C1463 0.929 . S
H1451 C1461 0.929 . S
H1452 C1456 0.929 . S
H1453 C1462 0.929 . S
C1454 H1448 0.930 . S
C1454 C1455 1.367 . S
C1454 C1462 1.378 . S
C1455 C1454 1.367 . S
C1455 C1463 1.433 . S
C1456 H1452 0.929 . S
C1456 C1458 1.378 . S
C1456 C1460 1.350 . S
C1457 C1460 1.463 . S
C1457 C1462 1.350 . S
C1457 N1465 1.427 . S
C1458 H1449 0.930 . S
C1458 C1456 1.378 . S
C1458 C1459 1.367 . S
C1459 C1458 1.367 . S
C1459 C1461 1.433 . S
C1460 C1456 1.350 . S
C1460 C1457 1.463 . S
C1460 N1464 1.427 . S
C1461 H1451 0.929 . S
C1461 C1459 1.433 . S
C1461 N1464 1.384 . S
C1462 H1453 0.929 . S
C1462 C1454 1.378 . S
C1462 C1457 1.350 . S
C1463 H1450 0.929 . S
C1463 C1455 1.433 . S
C1463 N1465 1.384 . S
N1464 C1460 1.427 . S
N1464 C1461 1.384 . S
N1465 C1457 1.427 . S
N1465 C1463 1.384 . S
H1466 C1472 0.930 . S
H1467 C1476 0.930 . S
H1468 C1481 0.929 . S
H1469 C1479 0.929 . S
H1470 C1474 0.929 . S
H1471 C1480 0.929 . S
C1472 H1466 0.930 . S
C1472 C1473 1.367 . S
C1472 C1480 1.378 . S
C1473 C1472 1.367 . S
C1473 C1481 1.433 . S
C1474 H1470 0.929 . S
C1474 C1476 1.378 . S
C1474 C1478 1.350 . S
C1475 C1478 1.463 . S
C1475 C1480 1.350 . S
C1475 N1483 1.427 . S
C1476 H1467 0.930 . S
C1476 C1474 1.378 . S
C1476 C1477 1.367 . S
C1477 C1476 1.367 . S
C1477 C1479 1.433 . S
C1478 C1474 1.350 . S
C1478 C1475 1.463 . S
C1478 N1482 1.427 . S
C1479 H1469 0.929 . S
C1479 C1477 1.433 . S
C1479 N1482 1.384 . S
C1480 H1471 0.929 . S
C1480 C1472 1.378 . S
C1480 C1475 1.350 . S
C1481 H1468 0.929 . S
C1481 C1473 1.433 . S
C1481 N1483 1.384 . S
N1482 C1478 1.427 . S
N1482 C1479 1.384 . S
N1483 C1475 1.427 . S
N1483 C1481 1.384 . S
H1484 C1490 0.930 . S
H1485 C1494 0.930 . S
H1486 C1499 0.929 . S
H1487 C1497 0.929 . S
H1488 C1492 0.929 . S
H1489 C1498 0.929 . S
C1490 H1484 0.930 . S
C1490 C1491 1.367 . S
C1490 C1498 1.378 . S
C1491 C1490 1.367 . S
C1491 C1499 1.433 . S
C1492 H1488 0.929 . S
C1492 C1494 1.378 . S
C1492 C1496 1.350 . S
C1493 C1496 1.463 . S
C1493 C1498 1.350 . S
C1493 N1501 1.427 . S
C1494 H1485 0.930 . S
C1494 C1492 1.378 . S
C1494 C1495 1.367 . S
C1495 C1494 1.367 . S
C1495 C1497 1.433 . S
C1496 C1492 1.350 . S
C1496 C1493 1.463 . S
C1496 N1500 1.427 . S
C1497 H1487 0.929 . S
C1497 C1495 1.433 . S
C1497 N1500 1.384 . S
C1498 H1489 0.929 . S
C1498 C1490 1.378 . S
C1498 C1493 1.350 . S
C1499 H1486 0.929 . S
C1499 C1491 1.433 . S
C1499 N1501 1.384 . S
N1500 C1496 1.427 . S
N1500 C1497 1.384 . S
N1501 C1493 1.427 . S
N1501 C1499 1.384 . S
H1502 C1508 0.930 . S
H1503 C1512 0.930 . S
H1504 C1517 0.929 . S
H1505 C1515 0.929 . S
H1506 C1510 0.929 . S
H1507 C1516 0.929 . S
C1508 H1502 0.930 . S
C1508 C1509 1.367 . S
C1508 C1516 1.378 . S
C1509 C1508 1.367 . S
C1509 C1517 1.433 . S
C1510 H1506 0.929 . S
C1510 C1512 1.378 . S
C1510 C1514 1.350 . S
C1511 C1514 1.463 . S
C1511 C1516 1.350 . S
C1511 N1519 1.427 . S
C1512 H1503 0.930 . S
C1512 C1510 1.378 . S
C1512 C1513 1.367 . S
C1513 C1512 1.367 . S
C1513 C1515 1.433 . S
C1514 C1510 1.350 . S
C1514 C1511 1.463 . S
C1514 N1518 1.427 . S
C1515 H1505 0.929 . S
C1515 C1513 1.433 . S
C1515 N1518 1.384 . S
C1516 H1507 0.929 . S
C1516 C1508 1.378 . S
C1516 C1511 1.350 . S
C1517 H1504 0.929 . S
C1517 C1509 1.433 . S
C1517 N1519 1.384 . S
N1518 C1514 1.427 . S
N1518 C1515 1.384 . S
N1519 C1511 1.427 . S
N1519 C1517 1.384 . S
H1520 C1526 0.930 . S
H1521 C1530 0.930 . S
H1522 C1535 0.929 . S
H1523 C1533 0.929 . S
H1524 C1528 0.929 . S
H1525 C1534 0.929 . S
C1526 H1520 0.930 . S
C1526 C1527 1.367 . S
C1526 C1534 1.378 . S
C1527 C1526 1.367 . S
C1527 C1535 1.433 . S
C1528 H1524 0.929 . S
C1528 C1530 1.378 . S
C1528 C1532 1.350 . S
C1529 C1532 1.463 . S
C1529 C1534 1.350 . S
C1529 N1537 1.427 . S
C1530 H1521 0.930 . S
C1530 C1528 1.378 . S
C1530 C1531 1.367 . S
C1531 C1530 1.367 . S
C1531 C1533 1.433 . S
C1532 C1528 1.350 . S
C1532 C1529 1.463 . S
C1532 N1536 1.427 . S
C1533 H1523 0.929 . S
C1533 C1531 1.433 . S
C1533 N1536 1.384 . S
C1534 H1525 0.929 . S
C1534 C1526 1.378 . S
C1534 C1529 1.350 . S
C1535 H1522 0.929 . S
C1535 C1527 1.433 . S
C1535 N1537 1.384 . S
N1536 C1532 1.427 . S
N1536 C1533 1.384 . S
N1537 C1529 1.427 . S
N1537 C1535 1.384 . S
H1538 C1544 0.930 . S
H1539 C1548 0.930 . S
H1540 C1553 0.929 . S
H1541 C1551 0.929 . S
H1542 C1546 0.929 . S
H1543 C1552 0.929 . S
C1544 H1538 0.930 . S
C1544 C1545 1.367 . S
C1544 C1552 1.378 . S
C1545 C1544 1.367 . S
C1545 C1553 1.433 . S
C1546 H1542 0.929 . S
C1546 C1548 1.378 . S
C1546 C1550 1.350 . S
C1547 C1550 1.463 . S
C1547 C1552 1.350 . S
C1547 N1555 1.427 . S
C1548 H1539 0.930 . S
C1548 C1546 1.378 . S
C1548 C1549 1.367 . S
C1549 C1548 1.367 . S
C1549 C1551 1.433 . S
C1550 C1546 1.350 . S
C1550 C1547 1.463 . S
C1550 N1554 1.427 . S
C1551 H1541 0.929 . S
C1551 C1549 1.433 . S
C1551 N1554 1.384 . S
C1552 H1543 0.929 . S
C1552 C1544 1.378 . S
C1552 C1547 1.350 . S
C1553 H1540 0.929 . S
C1553 C1545 1.433 . S
C1553 N1555 1.384 . S
N1554 C1550 1.427 . S
N1554 C1551 1.384 . S
N1555 C1547 1.427 . S
N1555 C1553 1.384 . S
H1556 C1562 0.930 . S
H1557 C1566 0.930 . S
H1558 C1571 0.929 . S
H1559 C1569 0.929 . S
H1560 C1564 0.929 . S
H1561 C1570 0.929 . S
C1562 H1556 0.930 . S
C1562 C1563 1.367 . S
C1562 C1570 1.378 . S
C1563 C1562 1.367 . S
C1563 C1571 1.433 . S
C1564 H1560 0.929 . S
C1564 C1566 1.378 . S
C1564 C1568 1.350 . S
C1565 C1568 1.463 . S
C1565 C1570 1.350 . S
C1565 N1573 1.427 . S
C1566 H1557 0.930 . S
C1566 C1564 1.378 . S
C1566 C1567 1.367 . S
C1567 C1566 1.367 . S
C1567 C1569 1.433 . S
C1568 C1564 1.350 . S
C1568 C1565 1.463 . S
C1568 N1572 1.427 . S
C1569 H1559 0.929 . S
C1569 C1567 1.433 . S
C1569 N1572 1.384 . S
C1570 H1561 0.929 . S
C1570 C1562 1.378 . S
C1570 C1565 1.350 . S
C1571 H1558 0.929 . S
C1571 C1563 1.433 . S
C1571 N1573 1.384 . S
N1572 C1568 1.427 . S
N1572 C1569 1.384 . S
N1573 C1565 1.427 . S
N1573 C1571 1.384 . S
H1574 C1580 0.930 . S
H1575 C1584 0.930 . S
H1576 C1589 0.929 . S
H1577 C1587 0.929 . S
H1578 C1582 0.929 . S
H1579 C1588 0.929 . S
C1580 H1574 0.930 . S
C1580 C1581 1.367 . S
C1580 C1588 1.378 . S
C1581 C1580 1.367 . S
C1581 C1589 1.433 . S
C1582 H1578 0.929 . S
C1582 C1584 1.378 . S
C1582 C1586 1.350 . S
C1583 C1586 1.463 . S
C1583 C1588 1.350 . S
C1583 N1591 1.427 . S
C1584 H1575 0.930 . S
C1584 C1582 1.378 . S
C1584 C1585 1.367 . S
C1585 C1584 1.367 . S
C1585 C1587 1.433 . S
C1586 C1582 1.350 . S
C1586 C1583 1.463 . S
C1586 N1590 1.427 . S
C1587 H1577 0.929 . S
C1587 C1585 1.433 . S
C1587 N1590 1.384 . S
C1588 H1579 0.929 . S
C1588 C1580 1.378 . S
C1588 C1583 1.350 . S
C1589 H1576 0.929 . S
C1589 C1581 1.433 . S
C1589 N1591 1.384 . S
N1590 C1586 1.427 . S
N1590 C1587 1.384 . S
N1591 C1583 1.427 . S
N1591 C1589 1.384 . S
H1592 C1598 0.930 . S
H1593 C1602 0.930 . S
H1594 C1607 0.929 . S
H1595 C1605 0.929 . S
H1596 C1600 0.929 . S
H1597 C1606 0.929 . S
C1598 H1592 0.930 . S
C1598 C1599 1.367 . S
C1598 C1606 1.378 . S
C1599 C1598 1.367 . S
C1599 C1607 1.433 . S
C1600 H1596 0.929 . S
C1600 C1602 1.378 . S
C1600 C1604 1.350 . S
C1601 C1604 1.463 . S
C1601 C1606 1.350 . S
C1601 N1609 1.427 . S
C1602 H1593 0.930 . S
C1602 C1600 1.378 . S
C1602 C1603 1.367 . S
C1603 C1602 1.367 . S
C1603 C1605 1.433 . S
C1604 C1600 1.350 . S
C1604 C1601 1.463 . S
C1604 N1608 1.427 . S
C1605 H1595 0.929 . S
C1605 C1603 1.433 . S
C1605 N1608 1.384 . S
C1606 H1597 0.929 . S
C1606 C1598 1.378 . S
C1606 C1601 1.350 . S
C1607 H1594 0.929 . S
C1607 C1599 1.433 . S
C1607 N1609 1.384 . S
N1608 C1604 1.427 . S
N1608 C1605 1.384 . S
N1609 C1601 1.427 . S
N1609 C1607 1.384 . S
H1610 C1616 0.930 . S
H1611 C1620 0.930 . S
H1612 C1625 0.929 . S
H1613 C1623 0.929 . S
H1614 C1618 0.929 . S
H1615 C1624 0.929 . S
C1616 H1610 0.930 . S
C1616 C1617 1.367 . S
C1616 C1624 1.378 . S
C1617 C1616 1.367 . S
C1617 C1625 1.433 . S
C1618 H1614 0.929 . S
C1618 C1620 1.378 . S
C1618 C1622 1.350 . S
C1619 C1622 1.463 . S
C1619 C1624 1.350 . S
C1619 N1627 1.427 . S
C1620 H1611 0.930 . S
C1620 C1618 1.378 . S
C1620 C1621 1.367 . S
C1621 C1620 1.367 . S
C1621 C1623 1.433 . S
C1622 C1618 1.350 . S
C1622 C1619 1.463 . S
C1622 N1626 1.427 . S
C1623 H1613 0.929 . S
C1623 C1621 1.433 . S
C1623 N1626 1.384 . S
C1624 H1615 0.929 . S
C1624 C1616 1.378 . S
C1624 C1619 1.350 . S
C1625 H1612 0.929 . S
C1625 C1617 1.433 . S
C1625 N1627 1.384 . S
N1626 C1622 1.427 . S
N1626 C1623 1.384 . S
N1627 C1619 1.427 . S
N1627 C1625 1.384 . S
H1628 C1634 0.930 . S
H1629 C1638 0.930 . S
H1630 C1643 0.929 . S
H1631 C1641 0.929 . S
H1632 C1636 0.929 . S
H1633 C1642 0.929 . S
C1634 H1628 0.930 . S
C1634 C1635 1.367 . S
C1634 C1642 1.378 . S
C1635 C1634 1.367 . S
C1635 C1643 1.433 . S
C1636 H1632 0.929 . S
C1636 C1638 1.378 . S
C1636 C1640 1.350 . S
C1637 C1640 1.463 . S
C1637 C1642 1.350 . S
C1637 N1645 1.427 . S
C1638 H1629 0.930 . S
C1638 C1636 1.378 . S
C1638 C1639 1.367 . S
C1639 C1638 1.367 . S
C1639 C1641 1.433 . S
C1640 C1636 1.350 . S
C1640 C1637 1.463 . S
C1640 N1644 1.427 . S
C1641 H1631 0.929 . S
C1641 C1639 1.433 . S
C1641 N1644 1.384 . S
C1642 H1633 0.929 . S
C1642 C1634 1.378 . S
C1642 C1637 1.350 . S
C1643 H1630 0.929 . S
C1643 C1635 1.433 . S
C1643 N1645 1.384 . S
N1644 C1640 1.427 . S
N1644 C1641 1.384 . S
N1645 C1637 1.427 . S
N1645 C1643 1.384 . S
H1646 C1652 0.930 . S
H1647 C1656 0.930 . S
H1648 C1661 0.929 . S
H1649 C1659 0.929 . S
H1650 C1654 0.929 . S
H1651 C1660 0.929 . S
C1652 H1646 0.930 . S
C1652 C1653 1.367 . S
C1652 C1660 1.378 . S
C1653 C1652 1.367 . S
C1653 C1661 1.433 . S
C1654 H1650 0.929 . S
C1654 C1656 1.378 . S
C1654 C1658 1.350 . S
C1655 C1658 1.463 . S
C1655 C1660 1.350 . S
C1655 N1663 1.427 . S
C1656 H1647 0.930 . S
C1656 C1654 1.378 . S
C1656 C1657 1.367 . S
C1657 C1656 1.367 . S
C1657 C1659 1.433 . S
C1658 C1654 1.350 . S
C1658 C1655 1.463 . S
C1658 N1662 1.427 . S
C1659 H1649 0.929 . S
C1659 C1657 1.433 . S
C1659 N1662 1.384 . S
C1660 H1651 0.929 . S
C1660 C1652 1.378 . S
C1660 C1655 1.350 . S
C1661 H1648 0.929 . S
C1661 C1653 1.433 . S
C1661 N1663 1.384 . S
N1662 C1658 1.427 . S
N1662 C1659 1.384 . S
N1663 C1655 1.427 . S
N1663 C1661 1.384 . S
H1664 C1670 0.930 . S
H1665 C1674 0.930 . S
H1666 C1679 0.929 . S
H1667 C1677 0.929 . S
H1668 C1672 0.934 . S
H1669 C1678 0.934 . S
C1670 H1664 0.930 . S
C1670 C1671 1.367 . S
C1670 C1678 1.378 . S
C1671 C1670 1.367 . S
C1671 C1679 1.433 . S
C1672 H1668 0.934 . S
C1672 C1674 1.378 . S
C1672 C1676 1.350 . S
C1673 C1676 1.463 1_665 S
C1673 C1678 1.350 . S
C1673 N1681 1.427 . S
C1674 H1665 0.930 . S
C1674 C1672 1.378 . S
C1674 C1675 1.367 . S
C1675 C1674 1.367 . S
C1675 C1677 1.433 . S
C1676 C1672 1.350 . S
C1676 C1673 1.463 1_445 S
C1676 N1680 1.427 . S
C1677 H1667 0.929 . S
C1677 C1675 1.433 . S
C1677 N1680 1.384 . S
C1678 H1669 0.934 . S
C1678 C1670 1.378 . S
C1678 C1673 1.350 . S
C1679 H1666 0.929 . S
C1679 C1671 1.433 . S
C1679 N1681 1.384 . S
N1680 C1676 1.427 . S
N1680 C1677 1.384 . S
N1681 C1673 1.427 . S
N1681 C1679 1.384 . S
H1682 C1688 0.930 . S
H1683 C1692 0.930 . S
H1684 C1697 0.929 . S
H1685 C1695 0.929 . S
H1686 C1690 0.929 . S
H1687 C1696 0.929 . S
C1688 H1682 0.930 . S
C1688 C1689 1.367 . S
C1688 C1696 1.378 . S
C1689 C1688 1.367 . S
C1689 C1697 1.433 . S
C1690 H1686 0.929 . S
C1690 C1692 1.378 . S
C1690 C1694 1.350 . S
C1691 C1694 1.463 . S
C1691 C1696 1.350 . S
C1691 N1699 1.427 . S
C1692 H1683 0.930 . S
C1692 C1690 1.378 . S
C1692 C1693 1.367 . S
C1693 C1692 1.367 . S
C1693 C1695 1.433 . S
C1694 C1690 1.350 . S
C1694 C1691 1.463 . S
C1694 N1698 1.427 . S
C1695 H1685 0.929 . S
C1695 C1693 1.433 . S
C1695 N1698 1.384 . S
C1696 H1687 0.929 . S
C1696 C1688 1.378 . S
C1696 C1691 1.350 . S
C1697 H1684 0.929 . S
C1697 C1689 1.433 . S
C1697 N1699 1.384 . S
N1698 C1694 1.427 . S
N1698 C1695 1.384 . S
N1699 C1691 1.427 . S
N1699 C1697 1.384 . S
H1700 C1706 0.930 . S
H1701 C1710 0.930 . S
H1702 C1715 0.929 . S
H1703 C1713 0.929 . S
H1704 C1708 0.929 . S
H1705 C1714 0.929 . S
C1706 H1700 0.930 . S
C1706 C1707 1.367 . S
C1706 C1714 1.378 . S
C1707 C1706 1.367 . S
C1707 C1715 1.433 . S
C1708 H1704 0.929 . S
C1708 C1710 1.378 . S
C1708 C1712 1.350 . S
C1709 C1712 1.463 1_655 S
C1709 C1714 1.350 . S
C1709 N1717 1.427 . S
C1710 H1701 0.930 . S
C1710 C1708 1.378 . S
C1710 C1711 1.367 . S
C1711 C1710 1.367 . S
C1711 C1713 1.433 . S
C1712 C1708 1.350 . S
C1712 C1709 1.463 1_455 S
C1712 N1716 1.427 . S
C1713 H1703 0.929 . S
C1713 C1711 1.433 . S
C1713 N1716 1.384 . S
C1714 H1705 0.929 . S
C1714 C1706 1.378 . S
C1714 C1709 1.350 . S
C1715 H1702 0.929 . S
C1715 C1707 1.433 . S
C1715 N1717 1.384 . S
N1716 C1712 1.427 . S
N1716 C1713 1.384 . S
N1717 C1709 1.427 . S
N1717 C1715 1.384 . S
H1718 C1724 0.930 . S
H1719 C1728 0.930 . S
H1720 C1733 0.929 . S
H1721 C1731 0.929 . S
H1722 C1726 0.929 . S
H1723 C1732 0.929 . S
C1724 H1718 0.930 . S
C1724 C1725 1.367 1_565 S
C1724 C1732 1.378 . S
C1725 C1724 1.367 1_545 S
C1725 C1733 1.433 . S
C1726 H1722 0.929 . S
C1726 C1728 1.378 . S
C1726 C1730 1.350 1_545 S
C1727 C1730 1.463 1_545 S
C1727 C1732 1.350 1_545 S
C1727 N1735 1.427 . S
C1728 H1719 0.930 . S
C1728 C1726 1.378 . S
C1728 C1729 1.367 1_545 S
C1729 C1728 1.367 1_565 S
C1729 C1731 1.433 . S
C1730 C1726 1.350 1_565 S
C1730 C1727 1.463 1_565 S
C1730 N1734 1.427 . S
C1731 H1721 0.929 . S
C1731 C1729 1.433 . S
C1731 N1734 1.384 . S
C1732 H1723 0.929 . S
C1732 C1724 1.378 . S
C1732 C1727 1.350 1_565 S
C1733 H1720 0.929 . S
C1733 C1725 1.433 . S
C1733 N1735 1.384 . S
N1734 C1730 1.427 . S
N1734 C1731 1.384 . S
N1735 C1727 1.427 . S
N1735 C1733 1.384 . S
H1736 C1742 0.930 . S
H1737 C1746 0.930 . S
H1738 C1751 0.929 . S
H1739 C1749 0.929 . S
H1740 C1744 0.929 . S
H1741 C1750 0.929 . S
C1742 H1736 0.930 . S
C1742 C1743 1.367 . S
C1742 C1750 1.378 . S
C1743 C1742 1.367 . S
C1743 C1751 1.433 . S
C1744 H1740 0.929 . S
C1744 C1746 1.378 . S
C1744 C1748 1.350 . S
C1745 C1748 1.463 . S
C1745 C1750 1.350 . S
C1745 N1753 1.427 . S
C1746 H1737 0.930 . S
C1746 C1744 1.378 . S
C1746 C1747 1.367 . S
C1747 C1746 1.367 . S
C1747 C1749 1.433 . S
C1748 C1744 1.350 . S
C1748 C1745 1.463 . S
C1748 N1752 1.427 . S
C1749 H1739 0.929 . S
C1749 C1747 1.433 . S
C1749 N1752 1.384 . S
C1750 H1741 0.929 . S
C1750 C1742 1.378 . S
C1750 C1745 1.350 . S
C1751 H1738 0.929 . S
C1751 C1743 1.433 . S
C1751 N1753 1.384 . S
N1752 C1748 1.427 . S
N1752 C1749 1.384 . S
N1753 C1745 1.427 . S
N1753 C1751 1.384 . S
H1754 C1760 0.930 . S
H1755 C1764 0.930 . S
H1756 C1769 0.929 . S
H1757 C1767 0.929 . S
H1758 C1762 0.929 . S
H1759 C1768 0.929 . S
C1760 H1754 0.930 . S
C1760 C1761 1.367 . S
C1760 C1768 1.378 . S
C1761 C1760 1.367 . S
C1761 C1769 1.433 . S
C1762 H1758 0.929 . S
C1762 C1764 1.378 . S
C1762 C1766 1.350 . S
C1763 C1766 1.463 1_655 S
C1763 C1768 1.350 . S
C1763 N1771 1.427 . S
C1764 H1755 0.930 . S
C1764 C1762 1.378 . S
C1764 C1765 1.367 . S
C1765 C1764 1.367 . S
C1765 C1767 1.433 . S
C1766 C1762 1.350 . S
C1766 C1763 1.463 1_455 S
C1766 N1770 1.427 . S
C1767 H1757 0.929 . S
C1767 C1765 1.433 . S
C1767 N1770 1.384 . S
C1768 H1759 0.929 . S
C1768 C1760 1.378 . S
C1768 C1763 1.350 . S
C1769 H1756 0.929 . S
C1769 C1761 1.433 . S
C1769 N1771 1.384 . S
N1770 C1766 1.427 . S
N1770 C1767 1.384 . S
N1771 C1763 1.427 . S
N1771 C1769 1.384 . S
H1772 C1778 0.930 . S
H1773 C1782 0.930 . S
H1774 C1787 0.910 1_565 S
H1775 C1785 0.910 1_545 S
H1776 C1780 0.929 . S
H1777 C1786 0.929 . S
C1778 H1772 0.930 . S
C1778 C1779 1.367 . S
C1778 C1786 1.378 . S
C1779 C1778 1.367 . S
C1779 C1787 1.473 . S
C1780 H1776 0.929 . S
C1780 C1782 1.378 . S
C1780 C1784 1.350 . S
C1781 C1784 1.463 1_545 S
C1781 C1786 1.350 . S
C1781 N1789 1.427 1_545 S
C1782 H1773 0.930 . S
C1782 C1780 1.378 . S
C1782 C1783 1.367 . S
C1783 C1782 1.367 . S
C1783 C1785 1.473 . S
C1784 C1780 1.350 . S
C1784 C1781 1.463 1_565 S
C1784 N1788 1.427 1_565 S
C1785 H1775 0.910 1_565 S
C1785 C1783 1.473 . S
C1785 N1788 1.368 1_565 S
C1786 H1777 0.929 . S
C1786 C1778 1.378 . S
C1786 C1781 1.350 . S
C1787 H1774 0.910 1_545 S
C1787 C1779 1.473 . S
C1787 N1789 1.368 1_545 S
N1788 C1784 1.427 1_545 S
N1788 C1785 1.368 1_545 S
N1789 C1781 1.427 1_565 S
N1789 C1787 1.368 1_565 S
H1790 C1796 0.930 . S
H1791 C1800 0.930 . S
H1792 C1805 0.937 . S
H1793 C1803 0.937 . S
H1794 C1798 0.929 . S
H1795 C1804 0.929 . S
C1796 H1790 0.930 . S
C1796 C1797 1.367 . S
C1796 C1804 1.378 . S
C1797 C1796 1.367 . S
C1797 C1805 1.421 1_556 S
C1798 H1794 0.929 . S
C1798 C1800 1.378 . S
C1798 C1802 1.350 . S
C1799 C1802 1.463 1_456 S
C1799 C1804 1.350 . S
C1799 N1807 1.427 1_556 S
C1800 H1791 0.930 . S
C1800 C1798 1.378 . S
C1800 C1801 1.367 . S
C1801 C1800 1.367 . S
C1801 C1803 1.421 1_554 S
C1802 C1798 1.350 . S
C1802 C1799 1.463 1_654 S
C1802 N1806 1.427 1_554 S
C1803 H1793 0.937 . S
C1803 C1801 1.421 1_556 S
C1803 N1806 1.389 . S
C1804 H1795 0.929 . S
C1804 C1796 1.378 . S
C1804 C1799 1.350 . S
C1805 H1792 0.937 . S
C1805 C1797 1.421 1_554 S
C1805 N1807 1.389 . S
N1806 C1802 1.427 1_556 S
N1806 C1803 1.389 . S
N1807 C1799 1.427 1_554 S
N1807 C1805 1.389 . S
H1808 C1814 0.930 . S
H1809 C1818 0.930 . S
H1810 C1823 0.929 . S
H1811 C1821 0.929 . S
H1812 C1816 0.929 . S
H1813 C1822 0.929 . S
C1814 H1808 0.930 . S
C1814 C1815 1.367 . S
C1814 C1822 1.378 . S
C1815 C1814 1.367 . S
C1815 C1823 1.433 1_554 S
C1816 H1812 0.929 . S
C1816 C1818 1.378 . S
C1816 C1820 1.350 . S
C1817 C1820 1.463 1_554 S
C1817 C1822 1.350 . S
C1817 N1825 1.427 1_554 S
C1818 H1809 0.930 . S
C1818 C1816 1.378 . S
C1818 C1819 1.367 . S
C1819 C1818 1.367 . S
C1819 C1821 1.433 1_556 S
C1820 C1816 1.350 . S
C1820 C1817 1.463 1_556 S
C1820 N1824 1.427 1_556 S
C1821 H1811 0.929 . S
C1821 C1819 1.433 1_554 S
C1821 N1824 1.384 . S
C1822 H1813 0.929 . S
C1822 C1814 1.378 . S
C1822 C1817 1.350 . S
C1823 H1810 0.929 . S
C1823 C1815 1.433 1_556 S
C1823 N1825 1.384 . S
N1824 C1820 1.427 1_554 S
N1824 C1821 1.384 . S
N1825 C1817 1.427 1_556 S
N1825 C1823 1.384 . S
H1826 C1832 0.930 . S
H1827 C1836 0.930 . S
H1828 C1841 0.929 . S
H1829 C1839 0.929 . S
H1830 C1834 0.929 . S
H1831 C1840 0.929 . S
C1832 H1826 0.930 . S
C1832 C1833 1.367 . S
C1832 C1840 1.378 . S
C1833 C1832 1.367 . S
C1833 C1841 1.433 . S
C1834 H1830 0.929 . S
C1834 C1836 1.378 . S
C1834 C1838 1.350 . S
C1835 C1838 1.463 . S
C1835 C1840 1.350 . S
C1835 N1843 1.427 . S
C1836 H1827 0.930 . S
C1836 C1834 1.378 . S
C1836 C1837 1.367 . S
C1837 C1836 1.367 . S
C1837 C1839 1.433 . S
C1838 C1834 1.350 . S
C1838 C1835 1.463 . S
C1838 N1842 1.427 . S
C1839 H1829 0.929 . S
C1839 C1837 1.433 . S
C1839 N1842 1.384 . S
C1840 H1831 0.929 . S
C1840 C1832 1.378 . S
C1840 C1835 1.350 . S
C1841 H1828 0.929 . S
C1841 C1833 1.433 . S
C1841 N1843 1.384 . S
N1842 C1838 1.427 . S
N1842 C1839 1.384 . S
N1843 C1835 1.427 . S
N1843 C1841 1.384 . S
H1844 C1850 0.930 . S
H1845 C1854 0.930 . S
H1846 C1859 0.929 . S
H1847 C1857 0.929 . S
H1848 C1852 0.929 . S
H1849 C1858 0.929 . S
C1850 H1844 0.930 . S
C1850 C1851 1.367 1_556 S
C1850 C1858 1.378 . S
C1851 C1850 1.367 1_554 S
C1851 C1859 1.433 . S
C1852 H1848 0.929 . S
C1852 C1854 1.378 . S
C1852 C1856 1.350 1_554 S
C1853 C1856 1.463 1_554 S
C1853 C1858 1.350 1_554 S
C1853 N1861 1.427 . S
C1854 H1845 0.930 . S
C1854 C1852 1.378 . S
C1854 C1855 1.367 1_554 S
C1855 C1854 1.367 1_556 S
C1855 C1857 1.433 . S
C1856 C1852 1.350 1_556 S
C1856 C1853 1.463 1_556 S
C1856 N1860 1.427 . S
C1857 H1847 0.929 . S
C1857 C1855 1.433 . S
C1857 N1860 1.384 . S
C1858 H1849 0.929 . S
C1858 C1850 1.378 . S
C1858 C1853 1.350 1_556 S
C1859 H1846 0.929 . S
C1859 C1851 1.433 . S
C1859 N1861 1.384 . S
N1860 C1856 1.427 . S
N1860 C1857 1.384 . S
N1861 C1853 1.427 . S
N1861 C1859 1.384 . S
H1862 C1868 0.930 . S
H1863 C1872 0.930 . S
H1864 C1877 0.929 . S
H1865 C1875 0.929 . S
H1866 C1870 0.929 . S
H1867 C1876 0.929 . S
C1868 H1862 0.930 . S
C1868 C1869 1.367 . S
C1868 C1876 1.378 . S
C1869 C1868 1.367 . S
C1869 C1877 1.433 . S
C1870 H1866 0.929 . S
C1870 C1872 1.378 . S
C1870 C1874 1.350 . S
C1871 C1874 1.463 . S
C1871 C1876 1.350 . S
C1871 N1879 1.427 . S
C1872 H1863 0.930 . S
C1872 C1870 1.378 . S
C1872 C1873 1.367 . S
C1873 C1872 1.367 . S
C1873 C1875 1.433 . S
C1874 C1870 1.350 . S
C1874 C1871 1.463 . S
C1874 N1878 1.427 . S
C1875 H1865 0.929 . S
C1875 C1873 1.433 . S
C1875 N1878 1.384 . S
C1876 H1867 0.929 . S
C1876 C1868 1.378 . S
C1876 C1871 1.350 . S
C1877 H1864 0.929 . S
C1877 C1869 1.433 . S
C1877 N1879 1.384 . S
N1878 C1874 1.427 . S
N1878 C1875 1.384 . S
N1879 C1871 1.427 . S
N1879 C1877 1.384 . S
H1880 C1886 0.930 . S
H1881 C1890 0.930 . S
H1882 C1895 0.929 . S
H1883 C1893 0.929 . S
H1884 C1888 0.929 . S
H1885 C1894 0.929 . S
C1886 H1880 0.930 . S
C1886 C1887 1.367 1_556 S
C1886 C1894 1.378 . S
C1887 C1886 1.367 1_554 S
C1887 C1895 1.433 1_565 S
C1888 H1884 0.929 . S
C1888 C1890 1.378 . S
C1888 C1892 1.350 1_554 S
C1889 C1892 1.463 1_564 S
C1889 C1894 1.350 1_554 S
C1889 N1897 1.427 1_565 S
C1890 H1881 0.930 . S
C1890 C1888 1.378 . S
C1890 C1891 1.367 1_554 S
C1891 C1890 1.367 1_556 S
C1891 C1893 1.433 1_545 S
C1892 C1888 1.350 1_556 S
C1892 C1889 1.463 1_546 S
C1892 N1896 1.427 1_545 S
C1893 H1883 0.929 . S
C1893 C1891 1.433 1_565 S
C1893 N1896 1.384 . S
C1894 H1885 0.929 . S
C1894 C1886 1.378 . S
C1894 C1889 1.350 1_556 S
C1895 H1882 0.929 . S
C1895 C1887 1.433 1_545 S
C1895 N1897 1.384 . S
N1896 C1892 1.427 1_565 S
N1896 C1893 1.384 . S
N1897 C1889 1.427 1_545 S
N1897 C1895 1.384 . S
H1898 C1904 0.930 . S
H1899 C1908 0.930 . S
H1900 C1913 0.929 . S
H1901 C1911 0.929 . S
H1902 C1906 0.929 . S
H1903 C1912 0.929 . S
C1904 H1898 0.930 . S
C1904 C1905 1.367 . S
C1904 C1912 1.378 . S
C1905 C1904 1.367 . S
C1905 C1913 1.433 . S
C1906 H1902 0.929 . S
C1906 C1908 1.378 . S
C1906 C1910 1.350 . S
C1907 C1910 1.463 . S
C1907 C1912 1.350 . S
C1907 N1915 1.427 . S
C1908 H1899 0.930 . S
C1908 C1906 1.378 . S
C1908 C1909 1.367 . S
C1909 C1908 1.367 . S
C1909 C1911 1.433 . S
C1910 C1906 1.350 . S
C1910 C1907 1.463 . S
C1910 N1914 1.427 . S
C1911 H1901 0.929 . S
C1911 C1909 1.433 . S
C1911 N1914 1.384 . S
C1912 H1903 0.929 . S
C1912 C1904 1.378 . S
C1912 C1907 1.350 . S
C1913 H1900 0.929 . S
C1913 C1905 1.433 . S
C1913 N1915 1.384 . S
N1914 C1910 1.427 . S
N1914 C1911 1.384 . S
N1915 C1907 1.427 . S
N1915 C1913 1.384 . S
H1916 C1922 0.930 . S
H1917 C1926 0.930 . S
H1918 C1931 0.929 . S
H1919 C1929 0.929 . S
H1920 C1924 0.929 . S
H1921 C1930 0.929 . S
C1922 H1916 0.930 . S
C1922 C1923 1.367 . S
C1922 C1930 1.378 . S
C1923 C1922 1.367 . S
C1923 C1931 1.433 . S
C1924 H1920 0.929 . S
C1924 C1926 1.378 . S
C1924 C1928 1.350 . S
C1925 C1928 1.463 . S
C1925 C1930 1.350 . S
C1925 N1933 1.427 . S
C1926 H1917 0.930 . S
C1926 C1924 1.378 . S
C1926 C1927 1.367 . S
C1927 C1926 1.367 . S
C1927 C1929 1.433 . S
C1928 C1924 1.350 . S
C1928 C1925 1.463 . S
C1928 N1932 1.427 . S
C1929 H1919 0.929 . S
C1929 C1927 1.433 . S
C1929 N1932 1.384 . S
C1930 H1921 0.929 . S
C1930 C1922 1.378 . S
C1930 C1925 1.350 . S
C1931 H1918 0.929 . S
C1931 C1923 1.433 . S
C1931 N1933 1.384 . S
N1932 C1928 1.427 . S
N1932 C1929 1.384 . S
N1933 C1925 1.427 . S
N1933 C1931 1.384 . S
H1934 C1940 0.930 . S
H1935 C1944 0.930 . S
H1936 C1949 0.929 . S
H1937 C1947 0.929 . S
H1938 C1942 0.929 . S
H1939 C1948 0.929 . S
C1940 H1934 0.930 . S
C1940 C1941 1.367 . S
C1940 C1948 1.378 . S
C1941 C1940 1.367 . S
C1941 C1949 1.433 . S
C1942 H1938 0.929 . S
C1942 C1944 1.378 . S
C1942 C1946 1.350 . S
C1943 C1946 1.463 . S
C1943 C1948 1.350 . S
C1943 N1951 1.427 . S
C1944 H1935 0.930 . S
C1944 C1942 1.378 . S
C1944 C1945 1.367 . S
C1945 C1944 1.367 . S
C1945 C1947 1.433 . S
C1946 C1942 1.350 . S
C1946 C1943 1.463 . S
C1946 N1950 1.427 . S
C1947 H1937 0.929 . S
C1947 C1945 1.433 . S
C1947 N1950 1.384 . S
C1948 H1939 0.929 . S
C1948 C1940 1.378 . S
C1948 C1943 1.350 . S
C1949 H1936 0.929 . S
C1949 C1941 1.433 . S
C1949 N1951 1.384 . S
N1950 C1946 1.427 . S
N1950 C1947 1.384 . S
N1951 C1943 1.427 . S
N1951 C1949 1.384 . S
H1952 C1958 0.930 . S
H1953 C1962 0.930 . S
H1954 C1967 0.929 . S
H1955 C1965 0.929 . S
H1956 C1960 0.929 . S
H1957 C1966 0.929 . S
C1958 H1952 0.930 . S
C1958 C1959 1.367 . S
C1958 C1966 1.378 . S
C1959 C1958 1.367 . S
C1959 C1967 1.433 1_565 S
C1960 H1956 0.929 . S
C1960 C1962 1.378 . S
C1960 C1964 1.288 1_545 S
C1961 C1964 1.482 . S
C1961 C1966 1.350 . S
C1961 N1969 1.427 1_565 S
C1962 H1953 0.930 . S
C1962 C1960 1.378 . S
C1962 C1963 1.367 . S
C1963 C1962 1.367 . S
C1963 C1965 1.433 1_545 S
C1964 C1960 1.288 1_565 S
C1964 C1961 1.482 . S
C1964 N1968 1.477 . S
C1965 H1955 0.929 . S
C1965 C1963 1.433 1_565 S
C1965 N1968 1.384 . S
C1966 H1957 0.929 . S
C1966 C1958 1.378 . S
C1966 C1961 1.350 . S
C1967 H1954 0.929 . S
C1967 C1959 1.433 1_545 S
C1967 N1969 1.384 . S
N1968 C1964 1.477 . S
N1968 C1965 1.384 . S
N1969 C1961 1.427 1_545 S
N1969 C1967 1.384 . S
H1970 C1976 0.930 . S
H1971 C1980 0.930 . S
H1972 C1985 0.929 . S
H1973 C1983 0.929 1_455 S
H1974 C1978 0.929 . S
H1975 C1984 0.929 . S
C1976 H1970 0.930 . S
C1976 C1977 1.367 . S
C1976 C1984 1.378 . S
C1977 C1976 1.367 . S
C1977 C1985 1.433 . S
C1978 H1974 0.929 . S
C1978 C1980 1.378 . S
C1978 C1982 1.350 . S
C1979 C1982 1.463 . S
C1979 C1984 1.350 . S
C1979 N1987 1.427 . S
C1980 H1971 0.930 . S
C1980 C1978 1.378 . S
C1980 C1981 1.367 . S
C1981 C1980 1.367 . S
C1981 C1983 1.433 . S
C1982 C1978 1.350 . S
C1982 C1979 1.463 . S
C1982 N1986 1.427 . S
C1983 H1973 0.929 1_655 S
C1983 C1981 1.433 . S
C1983 N1986 1.384 . S
C1984 H1975 0.929 . S
C1984 C1976 1.378 . S
C1984 C1979 1.350 . S
C1985 H1972 0.929 . S
C1985 C1977 1.433 . S
C1985 N1987 1.384 . S
N1986 C1982 1.427 . S
N1986 C1983 1.384 . S
N1987 C1979 1.427 . S
N1987 C1985 1.384 . S
H1988 C1994 0.930 . S
H1989 C1998 0.930 . S
H1990 C2003 0.929 . S
H1991 C2001 0.929 . S
H1992 C1996 0.929 . S
H1993 C2002 0.929 . S
C1994 H1988 0.930 . S
C1994 C1995 1.367 . S
C1994 C2002 1.378 . S
C1995 C1994 1.367 . S
C1995 C2003 1.433 . S
C1996 H1992 0.929 . S
C1996 C1998 1.378 . S
C1996 C2000 1.350 . S
C1997 C2000 1.463 . S
C1997 C2002 1.350 . S
C1997 N2005 1.427 . S
C1998 H1989 0.930 . S
C1998 C1996 1.378 . S
C1998 C1999 1.367 . S
C1999 C1998 1.367 . S
C1999 C2001 1.433 . S
C2000 C1996 1.350 . S
C2000 C1997 1.463 . S
C2000 N2004 1.427 . S
C2001 H1991 0.929 . S
C2001 C1999 1.433 . S
C2001 N2004 1.384 . S
C2002 H1993 0.929 . S
C2002 C1994 1.378 . S
C2002 C1997 1.350 . S
C2003 H1990 0.929 . S
C2003 C1995 1.433 . S
C2003 N2005 1.384 . S
N2004 C2000 1.427 . S
N2004 C2001 1.384 . S
N2005 C1997 1.427 . S
N2005 C2003 1.384 . S
H2006 C2012 0.930 . S
H2007 C2016 0.930 . S
H2008 C2021 0.929 . S
H2009 C2019 0.929 . S
H2010 C2014 0.929 . S
H2011 C2020 0.929 . S
C2012 H2006 0.930 . S
C2012 C2013 1.367 1_455 S
C2012 C2020 1.378 1_455 S
C2013 C2012 1.367 1_655 S
C2013 C2021 1.433 1_545 S
C2014 H2010 0.929 . S
C2014 C2016 1.378 . S
C2014 C2018 1.350 . S
C2015 C2018 1.463 . S
C2015 C2020 1.350 1_565 S
C2015 N2023 1.427 . S
C2016 H2007 0.930 . S
C2016 C2014 1.378 . S
C2016 C2017 1.367 . S
C2017 C2016 1.367 . S
C2017 C2019 1.433 . S
C2018 C2014 1.350 . S
C2018 C2015 1.463 . S
C2018 N2022 1.427 . S
C2019 H2009 0.929 . S
C2019 C2017 1.433 . S
C2019 N2022 1.384 . S
C2020 H2011 0.929 . S
C2020 C2012 1.378 1_655 S
C2020 C2015 1.350 1_545 S
C2021 H2008 0.929 . S
C2021 C2013 1.433 1_565 S
C2021 N2023 1.384 . S
N2022 C2018 1.427 . S
N2022 C2019 1.384 . S
N2023 C2015 1.427 . S
N2023 C2021 1.384 . S
H2024 C2030 0.930 . S
H2025 C2034 0.930 . S
H2026 C2039 0.929 . S
H2027 C2037 0.929 . S
H2028 C2032 0.929 . S
H2029 C2038 0.929 . S
C2030 H2024 0.930 . S
C2030 C2031 1.367 1_545 S
C2030 C2038 1.378 . S
C2031 C2030 1.367 1_565 S
C2031 C2039 1.433 . S
C2032 H2028 0.929 . S
C2032 C2034 1.378 . S
C2032 C2036 1.350 1_565 S
C2033 C2036 1.463 . S
C2033 C2038 1.350 . S
C2033 N2041 1.427 1_545 S
C2034 H2025 0.930 . S
C2034 C2032 1.378 . S
C2034 C2035 1.367 1_565 S
C2035 C2034 1.367 1_545 S
C2035 C2037 1.433 . S
C2036 C2032 1.350 1_545 S
C2036 C2033 1.463 . S
C2036 N2040 1.427 . S
C2037 H2027 0.929 . S
C2037 C2035 1.433 . S
C2037 N2040 1.384 . S
C2038 H2029 0.929 . S
C2038 C2030 1.378 . S
C2038 C2033 1.350 . S
C2039 H2026 0.929 . S
C2039 C2031 1.433 . S
C2039 N2041 1.384 . S
N2040 C2036 1.427 . S
N2040 C2037 1.384 . S
N2041 C2033 1.427 1_565 S
N2041 C2039 1.384 . S
H2042 C2048 0.930 . S
H2043 C2052 0.930 1_655 S
H2044 C2057 0.929 . S
H2045 C2055 0.929 . S
H2046 C2050 0.929 . S
H2047 C2056 0.929 . S
C2048 H2042 0.930 . S
C2048 C2049 1.367 . S
C2048 C2056 1.378 . S
C2049 C2048 1.367 . S
C2049 C2057 1.433 . S
C2050 H2046 0.929 . S
C2050 C2052 1.378 . S
C2050 C2054 1.350 . S
C2051 C2054 1.463 . S
C2051 C2056 1.350 . S
C2051 N2059 1.427 . S
C2052 H2043 0.930 1_455 S
C2052 C2050 1.378 . S
C2052 C2053 1.367 . S
C2053 C2052 1.367 . S
C2053 C2055 1.433 . S
C2054 C2050 1.350 . S
C2054 C2051 1.463 . S
C2054 N2058 1.427 . S
C2055 H2045 0.929 . S
C2055 C2053 1.433 . S
C2055 N2058 1.384 . S
C2056 H2047 0.929 . S
C2056 C2048 1.378 . S
C2056 C2051 1.350 . S
C2057 H2044 0.929 . S
C2057 C2049 1.433 . S
C2057 N2059 1.384 . S
N2058 C2054 1.427 . S
N2058 C2055 1.384 . S
N2059 C2051 1.427 . S
N2059 C2057 1.384 . S
H2060 C2066 0.930 . S
H2061 C2070 0.930 . S
H2062 C2075 0.929 . S
H2063 C2073 0.929 . S
H2064 C2068 0.929 . S
H2065 C2074 0.929 . S
C2066 H2060 0.930 . S
C2066 C2067 1.367 . S
C2066 C2074 1.378 . S
C2067 C2066 1.367 . S
C2067 C2075 1.433 . S
C2068 H2064 0.929 . S
C2068 C2070 1.378 . S
C2068 C2072 1.350 . S
C2069 C2072 1.463 . S
C2069 C2074 1.350 . S
C2069 N2077 1.427 . S
C2070 H2061 0.930 . S
C2070 C2068 1.378 . S
C2070 C2071 1.367 . S
C2071 C2070 1.367 . S
C2071 C2073 1.433 . S
C2072 C2068 1.350 . S
C2072 C2069 1.463 . S
C2072 N2076 1.427 . S
C2073 H2063 0.929 . S
C2073 C2071 1.433 . S
C2073 N2076 1.384 . S
C2074 H2065 0.929 . S
C2074 C2066 1.378 . S
C2074 C2069 1.350 . S
C2075 H2062 0.929 . S
C2075 C2067 1.433 . S
C2075 N2077 1.384 . S
N2076 C2072 1.427 . S
N2076 C2073 1.384 . S
N2077 C2069 1.427 . S
N2077 C2075 1.384 . S
H2078 C2084 0.921 1_655 S
H2079 C2088 0.930 . S
H2080 C2093 0.929 . S
H2081 C2091 0.929 . S
H2082 C2086 0.929 . S
H2083 C2092 0.929 . S
C2084 H2078 0.921 1_455 S
C2084 C2085 1.367 1_545 S
C2084 C2092 1.378 . S
C2085 C2084 1.367 1_565 S
C2085 C2093 1.433 . S
C2086 H2082 0.929 . S
C2086 C2088 1.378 . S
C2086 C2090 1.350 1_565 S
C2087 C2090 1.463 . S
C2087 C2092 1.350 . S
C2087 N2095 1.427 1_545 S
C2088 H2079 0.930 . S
C2088 C2086 1.378 . S
C2088 C2089 1.367 1_565 S
C2089 C2088 1.367 1_545 S
C2089 C2091 1.433 . S
C2090 C2086 1.350 1_545 S
C2090 C2087 1.463 . S
C2090 N2094 1.427 . S
C2091 H2081 0.929 . S
C2091 C2089 1.433 . S
C2091 N2094 1.384 . S
C2092 H2083 0.929 . S
C2092 C2084 1.378 . S
C2092 C2087 1.350 . S
C2093 H2080 0.929 . S
C2093 C2085 1.433 . S
C2093 N2095 1.384 . S
N2094 C2090 1.427 . S
N2094 C2091 1.384 . S
N2095 C2087 1.427 1_565 S
N2095 C2093 1.384 . S
H2096 C2102 0.930 . S
H2097 C2106 0.930 . S
H2098 C2111 0.929 . S
H2099 C2109 0.929 . S
H2100 C2104 0.929 . S
H2101 C2110 0.929 . S
C2102 H2096 0.930 . S
C2102 C2103 1.367 . S
C2102 C2110 1.378 . S
C2103 C2102 1.367 . S
C2103 C2111 1.433 . S
C2104 H2100 0.929 . S
C2104 C2106 1.378 . S
C2104 C2108 1.350 . S
C2105 C2108 1.463 . S
C2105 C2110 1.350 . S
C2105 N2113 1.427 . S
C2106 H2097 0.930 . S
C2106 C2104 1.378 . S
C2106 C2107 1.367 . S
C2107 C2106 1.367 . S
C2107 C2109 1.433 . S
C2108 C2104 1.350 . S
C2108 C2105 1.463 . S
C2108 N2112 1.427 . S
C2109 H2099 0.929 . S
C2109 C2107 1.433 . S
C2109 N2112 1.384 . S
C2110 H2101 0.929 . S
C2110 C2102 1.378 . S
C2110 C2105 1.350 . S
C2111 H2098 0.929 . S
C2111 C2103 1.433 . S
C2111 N2113 1.384 . S
N2112 C2108 1.427 . S
N2112 C2109 1.384 . S
N2113 C2105 1.427 . S
N2113 C2111 1.384 . S
H2114 C2120 0.930 . S
H2115 C2124 0.930 . S
H2116 C2129 0.929 . S
H2117 C2127 0.929 . S
H2118 C2122 0.929 . S
H2119 C2128 0.929 . S
C2120 H2114 0.930 . S
C2120 C2121 1.367 . S
C2120 C2128 1.378 . S
C2121 C2120 1.367 . S
C2121 C2129 1.433 . S
C2122 H2118 0.929 . S
C2122 C2124 1.378 1_655 S
C2122 C2126 1.350 . S
C2123 C2126 1.463 . S
C2123 C2128 1.350 . S
C2123 N2131 1.427 . S
C2124 H2115 0.930 . S
C2124 C2122 1.378 1_455 S
C2124 C2125 1.367 1_455 S
C2125 C2124 1.367 1_655 S
C2125 C2127 1.433 . S
C2126 C2122 1.350 . S
C2126 C2123 1.463 . S
C2126 N2130 1.427 . S
C2127 H2117 0.929 . S
C2127 C2125 1.433 . S
C2127 N2130 1.384 . S
C2128 H2119 0.929 . S
C2128 C2120 1.378 . S
C2128 C2123 1.350 . S
C2129 H2116 0.929 . S
C2129 C2121 1.433 . S
C2129 N2131 1.384 . S
N2130 C2126 1.427 . S
N2130 C2127 1.384 . S
N2131 C2123 1.427 . S
N2131 C2129 1.384 . S
H2132 C2138 0.930 . S
H2133 C2142 0.930 . S
H2134 C2147 0.929 . S
H2135 C2145 0.929 . S
H2136 C2140 0.929 . S
H2137 C2146 0.929 . S
C2138 H2132 0.930 . S
C2138 C2139 1.367 . S
C2138 C2146 1.378 . S
C2139 C2138 1.367 . S
C2139 C2147 1.433 . S
C2140 H2136 0.929 . S
C2140 C2142 1.378 . S
C2140 C2144 1.350 . S
C2141 C2144 1.463 . S
C2141 C2146 1.350 . S
C2141 N2149 1.427 . S
C2142 H2133 0.930 . S
C2142 C2140 1.378 . S
C2142 C2143 1.367 . S
C2143 C2142 1.367 . S
C2143 C2145 1.433 . S
C2144 C2140 1.350 . S
C2144 C2141 1.463 . S
C2144 N2148 1.427 . S
C2145 H2135 0.929 . S
C2145 C2143 1.433 . S
C2145 N2148 1.384 . S
C2146 H2137 0.929 . S
C2146 C2138 1.378 . S
C2146 C2141 1.350 . S
C2147 H2134 0.929 . S
C2147 C2139 1.433 . S
C2147 N2149 1.384 . S
N2148 C2144 1.427 . S
N2148 C2145 1.384 . S
N2149 C2141 1.427 . S
N2149 C2147 1.384 . S
H2150 C2156 0.930 . S
H2151 C2160 0.930 . S
H2152 C2165 0.929 . S
H2153 C2163 0.929 . S
H2154 C2158 0.929 . S
H2155 C2164 0.929 . S
C2156 H2150 0.930 . S
C2156 C2157 1.367 . S
C2156 C2164 1.378 . S
C2157 C2156 1.367 . S
C2157 C2165 1.433 . S
C2158 H2154 0.929 . S
C2158 C2160 1.378 . S
C2158 C2162 1.350 . S
C2159 C2162 1.463 . S
C2159 C2164 1.350 . S
C2159 N2167 1.427 . S
C2160 H2151 0.930 . S
C2160 C2158 1.378 . S
C2160 C2161 1.367 . S
C2161 C2160 1.367 . S
C2161 C2163 1.433 . S
C2162 C2158 1.350 . S
C2162 C2159 1.463 . S
C2162 N2166 1.427 . S
C2163 H2153 0.929 . S
C2163 C2161 1.433 . S
C2163 N2166 1.384 . S
C2164 H2155 0.929 . S
C2164 C2156 1.378 . S
C2164 C2159 1.350 . S
C2165 H2152 0.929 . S
C2165 C2157 1.433 . S
C2165 N2167 1.384 . S
N2166 C2162 1.427 . S
N2166 C2163 1.384 . S
N2167 C2159 1.427 . S
N2167 C2165 1.384 . S
H2168 C2174 0.930 . S
H2169 C2178 0.930 . S
H2170 C2183 0.929 . S
H2171 C2181 0.929 . S
H2172 C2176 0.929 . S
H2173 C2182 0.929 . S
C2174 H2168 0.930 . S
C2174 C2175 1.367 . S
C2174 C2182 1.378 . S
C2175 C2174 1.367 . S
C2175 C2183 1.433 . S
C2176 H2172 0.929 . S
C2176 C2178 1.378 . S
C2176 C2180 1.350 . S
C2177 C2180 1.463 . S
C2177 C2182 1.350 . S
C2177 N2185 1.427 . S
C2178 H2169 0.930 . S
C2178 C2176 1.378 . S
C2178 C2179 1.367 . S
C2179 C2178 1.367 . S
C2179 C2181 1.433 . S
C2180 C2176 1.350 . S
C2180 C2177 1.463 . S
C2180 N2184 1.427 . S
C2181 H2171 0.929 . S
C2181 C2179 1.433 . S
C2181 N2184 1.384 . S
C2182 H2173 0.929 . S
C2182 C2174 1.378 . S
C2182 C2177 1.350 . S
C2183 H2170 0.929 . S
C2183 C2175 1.433 . S
C2183 N2185 1.384 . S
N2184 C2180 1.427 . S
N2184 C2181 1.384 . S
N2185 C2177 1.427 . S
N2185 C2183 1.384 . S
H2186 C2192 0.930 . S
H2187 C2196 0.930 . S
H2188 C2201 0.929 . S
H2189 C2199 0.929 . S
H2190 C2194 0.929 . S
H2191 C2200 0.929 . S
C2192 H2186 0.930 . S
C2192 C2193 1.367 . S
C2192 C2200 1.378 . S
C2193 C2192 1.367 . S
C2193 C2201 1.433 . S
C2194 H2190 0.929 . S
C2194 C2196 1.378 1_455 S
C2194 C2198 1.350 . S
C2195 C2198 1.463 . S
C2195 C2200 1.350 . S
C2195 N2203 1.427 . S
C2196 H2187 0.930 . S
C2196 C2194 1.378 1_655 S
C2196 C2197 1.367 1_655 S
C2197 C2196 1.367 1_455 S
C2197 C2199 1.433 . S
C2198 C2194 1.350 . S
C2198 C2195 1.463 . S
C2198 N2202 1.427 . S
C2199 H2189 0.929 . S
C2199 C2197 1.433 . S
C2199 N2202 1.384 . S
C2200 H2191 0.929 . S
C2200 C2192 1.378 . S
C2200 C2195 1.350 . S
C2201 H2188 0.929 . S
C2201 C2193 1.433 . S
C2201 N2203 1.384 . S
N2202 C2198 1.427 . S
N2202 C2199 1.384 . S
N2203 C2195 1.427 . S
N2203 C2201 1.384 . S
H2204 C2210 0.930 . S
H2205 C2214 0.930 . S
H2206 C2219 0.929 . S
H2207 C2217 0.929 . S
H2208 C2212 0.929 . S
H2209 C2218 0.929 . S
C2210 H2204 0.930 . S
C2210 C2211 1.367 . S
C2210 C2218 1.378 . S
C2211 C2210 1.367 . S
C2211 C2219 1.433 . S
C2212 H2208 0.929 . S
C2212 C2214 1.378 . S
C2212 C2216 1.350 . S
C2213 C2216 1.463 . S
C2213 C2218 1.350 . S
C2213 N2221 1.427 . S
C2214 H2205 0.930 . S
C2214 C2212 1.378 . S
C2214 C2215 1.367 . S
C2215 C2214 1.367 . S
C2215 C2217 1.433 . S
C2216 C2212 1.350 . S
C2216 C2213 1.463 . S
C2216 N2220 1.427 . S
C2217 H2207 0.929 . S
C2217 C2215 1.433 . S
C2217 N2220 1.384 . S
C2218 H2209 0.929 . S
C2218 C2210 1.378 . S
C2218 C2213 1.350 . S
C2219 H2206 0.929 . S
C2219 C2211 1.433 . S
C2219 N2221 1.384 . S
N2220 C2216 1.427 . S
N2220 C2217 1.384 . S
N2221 C2213 1.427 . S
N2221 C2219 1.384 . S
H2222 C2228 0.930 1_655 S
H2223 C2232 0.930 . S
H2224 C2237 0.929 . S
H2225 C2235 0.929 . S
H2226 C2230 0.929 . S
H2227 C2236 0.929 . S
C2228 H2222 0.930 1_455 S
C2228 C2229 1.367 . S
C2228 C2236 1.378 . S
C2229 C2228 1.367 . S
C2229 C2237 1.433 . S
C2230 H2226 0.929 . S
C2230 C2232 1.378 . S
C2230 C2234 1.350 . S
C2231 C2234 1.463 . S
C2231 C2236 1.350 . S
C2231 N2239 1.427 . S
C2232 H2223 0.930 . S
C2232 C2230 1.378 . S
C2232 C2233 1.367 . S
C2233 C2232 1.367 . S
C2233 C2235 1.433 . S
C2234 C2230 1.350 . S
C2234 C2231 1.463 . S
C2234 N2238 1.427 . S
C2235 H2225 0.929 . S
C2235 C2233 1.433 . S
C2235 N2238 1.384 . S
C2236 H2227 0.929 . S
C2236 C2228 1.378 . S
C2236 C2231 1.350 . S
C2237 H2224 0.929 . S
C2237 C2229 1.433 . S
C2237 N2239 1.384 . S
N2238 C2234 1.427 . S
N2238 C2235 1.384 . S
N2239 C2231 1.427 . S
N2239 C2237 1.384 . S
H2240 C2246 0.940 . S
H2241 C2250 0.930 . S
H2242 C2255 0.929 . S
H2243 C2253 0.929 . S
H2244 C2248 0.929 . S
H2245 C2254 0.929 . S
C2246 H2240 0.940 . S
C2246 C2247 1.353 1_545 S
C2246 C2254 1.382 . S
C2247 C2246 1.353 1_565 S
C2247 C2255 1.433 . S
C2248 H2244 0.929 . S
C2248 C2250 1.378 . S
C2248 C2252 1.350 . S
C2249 C2252 1.463 . S
C2249 C2254 1.350 1_565 S
C2249 N2257 1.427 . S
C2250 H2241 0.930 . S
C2250 C2248 1.378 . S
C2250 C2251 1.367 1_565 S
C2251 C2250 1.367 1_545 S
C2251 C2253 1.433 . S
C2252 C2248 1.350 . S
C2252 C2249 1.463 . S
C2252 N2256 1.427 1_565 S
C2253 H2243 0.929 . S
C2253 C2251 1.433 . S
C2253 N2256 1.384 . S
C2254 H2245 0.929 . S
C2254 C2246 1.382 . S
C2254 C2249 1.350 1_545 S
C2255 H2242 0.929 . S
C2255 C2247 1.433 . S
C2255 N2257 1.384 . S
N2256 C2252 1.427 1_545 S
N2256 C2253 1.384 . S
N2257 C2249 1.427 . S
N2257 C2255 1.384 . S
H2258 C2264 0.930 . S
H2259 C2268 0.930 . S
H2260 C2273 0.929 . S
H2261 C2271 0.929 . S
H2262 C2266 0.929 . S
H2263 C2272 0.929 . S
C2264 H2258 0.930 . S
C2264 C2265 1.367 . S
C2264 C2272 1.378 . S
C2265 C2264 1.367 . S
C2265 C2273 1.433 . S
C2266 H2262 0.929 . S
C2266 C2268 1.378 . S
C2266 C2270 1.350 . S
C2267 C2270 1.463 . S
C2267 C2272 1.350 . S
C2267 N2275 1.427 . S
C2268 H2259 0.930 . S
C2268 C2266 1.378 . S
C2268 C2269 1.367 . S
C2269 C2268 1.367 . S
C2269 C2271 1.433 . S
C2270 C2266 1.350 . S
C2270 C2267 1.463 . S
C2270 N2274 1.427 . S
C2271 H2261 0.929 . S
C2271 C2269 1.433 . S
C2271 N2274 1.384 . S
C2272 H2263 0.929 . S
C2272 C2264 1.378 . S
C2272 C2267 1.350 . S
C2273 H2260 0.929 . S
C2273 C2265 1.433 . S
C2273 N2275 1.384 . S
N2274 C2270 1.427 . S
N2274 C2271 1.384 . S
N2275 C2267 1.427 . S
N2275 C2273 1.384 . S
H2276 C2282 0.930 . S
H2277 C2286 0.930 . S
H2278 C2291 0.929 . S
H2279 C2289 0.929 . S
H2280 C2284 0.929 . S
H2281 C2290 0.929 . S
C2282 H2276 0.930 . S
C2282 C2283 1.367 . S
C2282 C2290 1.378 . S
C2283 C2282 1.367 . S
C2283 C2291 1.433 . S
C2284 H2280 0.929 . S
C2284 C2286 1.378 . S
C2284 C2288 1.350 . S
C2285 C2288 1.463 . S
C2285 C2290 1.350 . S
C2285 N2293 1.427 . S
C2286 H2277 0.930 . S
C2286 C2284 1.378 . S
C2286 C2287 1.367 . S
C2287 C2286 1.367 . S
C2287 C2289 1.433 . S
C2288 C2284 1.350 . S
C2288 C2285 1.463 . S
C2288 N2292 1.427 . S
C2289 H2279 0.929 . S
C2289 C2287 1.433 . S
C2289 N2292 1.384 . S
C2290 H2281 0.929 . S
C2290 C2282 1.378 . S
C2290 C2285 1.350 . S
C2291 H2278 0.929 . S
C2291 C2283 1.433 . S
C2291 N2293 1.384 . S
N2292 C2288 1.427 . S
N2292 C2289 1.384 . S
N2293 C2285 1.427 . S
N2293 C2291 1.384 . S
H2294 C2300 0.930 . S
H2295 C2304 0.930 . S
H2296 C2309 0.929 . S
H2297 C2307 0.929 . S
H2298 C2302 0.929 . S
H2299 C2308 0.923 1_565 S
C2300 H2294 0.930 . S
C2300 C2301 1.367 . S
C2300 C2308 1.386 . S
C2301 C2300 1.367 . S
C2301 C2309 1.433 . S
C2302 H2298 0.929 . S
C2302 C2304 1.378 . S
C2302 C2306 1.350 . S
C2303 C2306 1.463 . S
C2303 C2308 1.347 1_565 S
C2303 N2311 1.425 1_565 S
C2304 H2295 0.930 . S
C2304 C2302 1.378 . S
C2304 C2305 1.367 . S
C2305 C2304 1.367 . S
C2305 C2307 1.433 . S
C2306 C2302 1.350 . S
C2306 C2303 1.463 . S
C2306 N2310 1.427 . S
C2307 H2297 0.929 . S
C2307 C2305 1.433 . S
C2307 N2310 1.384 . S
C2308 H2299 0.923 1_545 S
C2308 C2300 1.386 . S
C2308 C2303 1.347 1_545 S
C2309 H2296 0.929 . S
C2309 C2301 1.433 . S
C2309 N2311 1.390 . S
N2310 C2306 1.427 . S
N2310 C2307 1.384 . S
N2311 C2303 1.425 1_545 S
N2311 C2309 1.390 . S
H2312 C2318 0.930 . S
H2313 C2322 0.930 . S
H2314 C2327 0.929 . S
H2315 C2325 0.929 . S
H2316 C2320 0.929 . S
H2317 C2326 0.929 . S
C2318 H2312 0.930 . S
C2318 C2319 1.367 1_545 S
C2318 C2326 1.378 . S
C2319 C2318 1.367 1_565 S
C2319 C2327 1.433 . S
C2320 H2316 0.929 . S
C2320 C2322 1.378 . S
C2320 C2324 1.350 1_565 S
C2321 C2324 1.463 . S
C2321 C2326 1.350 . S
C2321 N2329 1.427 1_545 S
C2322 H2313 0.930 . S
C2322 C2320 1.378 . S
C2322 C2323 1.367 1_565 S
C2323 C2322 1.367 1_545 S
C2323 C2325 1.433 . S
C2324 C2320 1.350 1_545 S
C2324 C2321 1.463 . S
C2324 N2328 1.427 . S
C2325 H2315 0.929 . S
C2325 C2323 1.433 . S
C2325 N2328 1.384 . S
C2326 H2317 0.929 . S
C2326 C2318 1.378 . S
C2326 C2321 1.350 . S
C2327 H2314 0.929 . S
C2327 C2319 1.433 . S
C2327 N2329 1.384 . S
N2328 C2324 1.427 . S
N2328 C2325 1.384 . S
N2329 C2321 1.427 1_565 S
N2329 C2327 1.384 . S
H2330 C2336 0.930 . S
H2331 C2340 0.930 . S
H2332 C2345 0.929 . S
H2333 C2343 0.929 . S
H2334 C2338 0.929 . S
H2335 C2344 0.929 . S
C2336 H2330 0.930 . S
C2336 C2337 1.367 . S
C2336 C2344 1.378 . S
C2337 C2336 1.367 . S
C2337 C2345 1.433 . S
C2338 H2334 0.929 . S
C2338 C2340 1.378 . S
C2338 C2342 1.350 . S
C2339 C2342 1.463 . S
C2339 C2344 1.350 . S
C2339 N2347 1.427 . S
C2340 H2331 0.930 . S
C2340 C2338 1.378 . S
C2340 C2341 1.367 . S
C2341 C2340 1.367 . S
C2341 C2343 1.433 . S
C2342 C2338 1.350 . S
C2342 C2339 1.463 . S
C2342 N2346 1.427 . S
C2343 H2333 0.929 . S
C2343 C2341 1.433 . S
C2343 N2346 1.384 . S
C2344 H2335 0.929 . S
C2344 C2336 1.378 . S
C2344 C2339 1.350 . S
C2345 H2332 0.929 . S
C2345 C2337 1.433 . S
C2345 N2347 1.384 . S
N2346 C2342 1.427 . S
N2346 C2343 1.384 . S
N2347 C2339 1.427 . S
N2347 C2345 1.384 . S
H2348 C2354 0.930 . S
H2349 C2358 0.930 . S
H2350 C2363 0.929 . S
H2351 C2361 0.929 . S
H2352 C2356 0.929 . S
H2353 C2362 0.929 . S
C2354 H2348 0.930 . S
C2354 C2355 1.367 . S
C2354 C2362 1.378 . S
C2355 C2354 1.367 . S
C2355 C2363 1.433 . S
C2356 H2352 0.929 . S
C2356 C2358 1.378 . S
C2356 C2360 1.350 . S
C2357 C2360 1.463 . S
C2357 C2362 1.350 . S
C2357 N2365 1.427 . S
C2358 H2349 0.930 . S
C2358 C2356 1.378 . S
C2358 C2359 1.367 . S
C2359 C2358 1.367 . S
C2359 C2361 1.433 . S
C2360 C2356 1.350 . S
C2360 C2357 1.463 . S
C2360 N2364 1.427 . S
C2361 H2351 0.929 . S
C2361 C2359 1.433 . S
C2361 N2364 1.384 . S
C2362 H2353 0.929 . S
C2362 C2354 1.378 . S
C2362 C2357 1.350 . S
C2363 H2350 0.929 . S
C2363 C2355 1.433 . S
C2363 N2365 1.384 . S
N2364 C2360 1.427 . S
N2364 C2361 1.384 . S
N2365 C2357 1.427 . S
N2365 C2363 1.384 . S
H2366 C2372 0.930 . S
H2367 C2376 0.930 . S
H2368 C2381 0.929 . S
H2369 C2379 0.929 . S
H2370 C2374 0.929 . S
H2371 C2380 0.929 . S
C2372 H2366 0.930 . S
C2372 C2373 1.367 1_545 S
C2372 C2380 1.378 . S
C2373 C2372 1.367 1_565 S
C2373 C2381 1.433 . S
C2374 H2370 0.929 . S
C2374 C2376 1.378 . S
C2374 C2378 1.350 1_565 S
C2375 C2378 1.463 . S
C2375 C2380 1.350 . S
C2375 N2383 1.427 1_545 S
C2376 H2367 0.930 . S
C2376 C2374 1.378 . S
C2376 C2377 1.367 1_565 S
C2377 C2376 1.367 1_545 S
C2377 C2379 1.433 . S
C2378 C2374 1.350 1_545 S
C2378 C2375 1.463 . S
C2378 N2382 1.427 . S
C2379 H2369 0.929 . S
C2379 C2377 1.433 . S
C2379 N2382 1.384 . S
C2380 H2371 0.929 . S
C2380 C2372 1.378 . S
C2380 C2375 1.350 . S
C2381 H2368 0.929 . S
C2381 C2373 1.433 . S
C2381 N2383 1.384 . S
N2382 C2378 1.427 . S
N2382 C2379 1.384 . S
N2383 C2375 1.427 1_565 S
N2383 C2381 1.384 . S
H2384 C2390 0.930 . S
H2385 C2394 0.930 . S
H2386 C2399 0.929 . S
H2387 C2397 0.929 . S
H2388 C2392 0.929 . S
H2389 C2398 0.929 . S
C2390 H2384 0.930 . S
C2390 C2391 1.367 . S
C2390 C2398 1.378 . S
C2391 C2390 1.367 . S
C2391 C2399 1.433 . S
C2392 H2388 0.929 . S
C2392 C2394 1.378 . S
C2392 C2396 1.350 . S
C2393 C2396 1.463 . S
C2393 C2398 1.350 . S
C2393 N2401 1.427 . S
C2394 H2385 0.930 . S
C2394 C2392 1.378 . S
C2394 C2395 1.367 . S
C2395 C2394 1.367 . S
C2395 C2397 1.433 . S
C2396 C2392 1.350 . S
C2396 C2393 1.463 . S
C2396 N2400 1.427 . S
C2397 H2387 0.929 . S
C2397 C2395 1.433 . S
C2397 N2400 1.384 . S
C2398 H2389 0.929 . S
C2398 C2390 1.378 . S
C2398 C2393 1.350 . S
C2399 H2386 0.929 . S
C2399 C2391 1.433 . S
C2399 N2401 1.384 . S
N2400 C2396 1.427 . S
N2400 C2397 1.384 . S
N2401 C2393 1.427 . S
N2401 C2399 1.384 . S
H2402 C2408 0.930 . S
H2403 C2412 0.930 . S
H2404 C2417 0.929 . S
H2405 C2415 0.929 . S
H2406 C2410 0.929 . S
H2407 C2416 0.929 . S
C2408 H2402 0.930 . S
C2408 C2409 1.367 . S
C2408 C2416 1.378 . S
C2409 C2408 1.367 . S
C2409 C2417 1.433 . S
C2410 H2406 0.929 . S
C2410 C2412 1.378 . S
C2410 C2414 1.350 . S
C2411 C2414 1.463 . S
C2411 C2416 1.350 . S
C2411 N2419 1.427 . S
C2412 H2403 0.930 . S
C2412 C2410 1.378 . S
C2412 C2413 1.367 . S
C2413 C2412 1.367 . S
C2413 C2415 1.433 . S
C2414 C2410 1.350 . S
C2414 C2411 1.463 . S
C2414 N2418 1.427 . S
C2415 H2405 0.929 . S
C2415 C2413 1.433 . S
C2415 N2418 1.384 . S
C2416 H2407 0.929 . S
C2416 C2408 1.378 . S
C2416 C2411 1.350 . S
C2417 H2404 0.929 . S
C2417 C2409 1.433 . S
C2417 N2419 1.384 . S
N2418 C2414 1.427 . S
N2418 C2415 1.384 . S
N2419 C2411 1.427 . S
N2419 C2417 1.384 . S
H2420 C2426 0.930 . S
H2421 C2430 0.930 . S
H2422 C2435 0.929 . S
H2423 C2433 0.929 . S
H2424 C2428 0.929 . S
H2425 C2434 0.929 . S
C2426 H2420 0.930 . S
C2426 C2427 1.367 . S
C2426 C2434 1.378 . S
C2427 C2426 1.367 . S
C2427 C2435 1.433 . S
C2428 H2424 0.929 . S
C2428 C2430 1.378 . S
C2428 C2432 1.350 . S
C2429 C2432 1.463 . S
C2429 C2434 1.350 . S
C2429 N2437 1.427 . S
C2430 H2421 0.930 . S
C2430 C2428 1.378 . S
C2430 C2431 1.367 . S
C2431 C2430 1.367 . S
C2431 C2433 1.433 . S
C2432 C2428 1.350 . S
C2432 C2429 1.463 . S
C2432 N2436 1.427 . S
C2433 H2423 0.929 . S
C2433 C2431 1.433 . S
C2433 N2436 1.384 . S
C2434 H2425 0.929 . S
C2434 C2426 1.378 . S
C2434 C2429 1.350 . S
C2435 H2422 0.929 . S
C2435 C2427 1.433 . S
C2435 N2437 1.384 . S
N2436 C2432 1.427 . S
N2436 C2433 1.384 . S
N2437 C2429 1.427 . S
N2437 C2435 1.384 . S
H2438 C2444 0.930 . S
H2439 C2448 0.930 . S
H2440 C2453 0.929 . S
H2441 C2451 0.929 . S
H2442 C2446 0.929 . S
H2443 C2452 0.929 . S
C2444 H2438 0.930 . S
C2444 C2445 1.367 . S
C2444 C2452 1.378 . S
C2445 C2444 1.367 . S
C2445 C2453 1.433 . S
C2446 H2442 0.929 . S
C2446 C2448 1.378 . S
C2446 C2450 1.350 . S
C2447 C2450 1.463 . S
C2447 C2452 1.350 . S
C2447 N2455 1.427 . S
C2448 H2439 0.930 . S
C2448 C2446 1.378 . S
C2448 C2449 1.367 . S
C2449 C2448 1.367 . S
C2449 C2451 1.433 . S
C2450 C2446 1.350 . S
C2450 C2447 1.463 . S
C2450 N2454 1.427 . S
C2451 H2441 0.929 . S
C2451 C2449 1.433 . S
C2451 N2454 1.384 . S
C2452 H2443 0.929 . S
C2452 C2444 1.378 . S
C2452 C2447 1.350 . S
C2453 H2440 0.929 . S
C2453 C2445 1.433 . S
C2453 N2455 1.384 . S
N2454 C2450 1.427 . S
N2454 C2451 1.384 . S
N2455 C2447 1.427 . S
N2455 C2453 1.384 . S
H2456 C2462 0.930 . S
H2457 C2466 0.930 . S
H2458 C2471 0.929 . S
H2459 C2469 0.929 . S
H2460 C2464 0.929 . S
H2461 C2470 0.929 . S
C2462 H2456 0.930 . S
C2462 C2463 1.367 . S
C2462 C2470 1.378 . S
C2463 C2462 1.367 . S
C2463 C2471 1.433 . S
C2464 H2460 0.929 . S
C2464 C2466 1.378 . S
C2464 C2468 1.350 . S
C2465 C2468 1.463 . S
C2465 C2470 1.350 . S
C2465 N2473 1.427 . S
C2466 H2457 0.930 . S
C2466 C2464 1.378 . S
C2466 C2467 1.367 . S
C2467 C2466 1.367 . S
C2467 C2469 1.433 . S
C2468 C2464 1.350 . S
C2468 C2465 1.463 . S
C2468 N2472 1.427 . S
C2469 H2459 0.929 . S
C2469 C2467 1.433 . S
C2469 N2472 1.384 . S
C2470 H2461 0.929 . S
C2470 C2462 1.378 . S
C2470 C2465 1.350 . S
C2471 H2458 0.929 . S
C2471 C2463 1.433 . S
C2471 N2473 1.384 . S
N2472 C2468 1.427 . S
N2472 C2469 1.384 . S
N2473 C2465 1.427 . S
N2473 C2471 1.384 . S
H2474 C2480 0.930 . S
H2475 C2484 0.930 . S
H2476 C2489 0.929 . S
H2477 C2487 0.929 . S
H2478 C2482 0.929 . S
H2479 C2488 0.929 . S
C2480 H2474 0.930 . S
C2480 C2481 1.367 . S
C2480 C2488 1.378 . S
C2481 C2480 1.367 . S
C2481 C2489 1.433 . S
C2482 H2478 0.929 . S
C2482 C2484 1.378 . S
C2482 C2486 1.350 . S
C2483 C2486 1.463 . S
C2483 C2488 1.350 . S
C2483 N2491 1.427 . S
C2484 H2475 0.930 . S
C2484 C2482 1.378 . S
C2484 C2485 1.367 . S
C2485 C2484 1.367 . S
C2485 C2487 1.433 . S
C2486 C2482 1.350 . S
C2486 C2483 1.463 . S
C2486 N2490 1.427 . S
C2487 H2477 0.929 . S
C2487 C2485 1.433 . S
C2487 N2490 1.384 . S
C2488 H2479 0.929 . S
C2488 C2480 1.378 . S
C2488 C2483 1.350 . S
C2489 H2476 0.929 . S
C2489 C2481 1.433 . S
C2489 N2491 1.384 . S
N2490 C2486 1.427 . S
N2490 C2487 1.384 . S
N2491 C2483 1.427 . S
N2491 C2489 1.384 . S
H2492 C2498 0.930 . S
H2493 C2502 0.930 . S
H2494 C2507 0.929 . S
H2495 C2505 0.929 . S
H2496 C2500 0.929 . S
H2497 C2506 0.929 . S
C2498 H2492 0.930 . S
C2498 C2499 1.367 . S
C2498 C2506 1.378 . S
C2499 C2498 1.367 . S
C2499 C2507 1.433 . S
C2500 H2496 0.929 . S
C2500 C2502 1.378 . S
C2500 C2504 1.350 . S
C2501 C2504 1.463 . S
C2501 C2506 1.350 . S
C2501 N2509 1.427 . S
C2502 H2493 0.930 . S
C2502 C2500 1.378 . S
C2502 C2503 1.367 . S
C2503 C2502 1.367 . S
C2503 C2505 1.433 . S
C2504 C2500 1.350 . S
C2504 C2501 1.463 . S
C2504 N2508 1.427 . S
C2505 H2495 0.929 . S
C2505 C2503 1.433 . S
C2505 N2508 1.384 . S
C2506 H2497 0.929 . S
C2506 C2498 1.378 . S
C2506 C2501 1.350 . S
C2507 H2494 0.929 . S
C2507 C2499 1.433 . S
C2507 N2509 1.384 . S
N2508 C2504 1.427 . S
N2508 C2505 1.384 . S
N2509 C2501 1.427 . S
N2509 C2507 1.384 . S
H2510 C2516 0.930 . S
H2511 C2520 0.930 . S
H2512 C2525 0.929 . S
H2513 C2523 0.929 . S
H2514 C2518 0.929 . S
H2515 C2524 0.929 . S
C2516 H2510 0.930 . S
C2516 C2517 1.367 . S
C2516 C2524 1.378 . S
C2517 C2516 1.367 . S
C2517 C2525 1.433 . S
C2518 H2514 0.929 . S
C2518 C2520 1.378 . S
C2518 C2522 1.350 . S
C2519 C2522 1.463 . S
C2519 C2524 1.350 . S
C2519 N2527 1.427 . S
C2520 H2511 0.930 . S
C2520 C2518 1.378 . S
C2520 C2521 1.367 . S
C2521 C2520 1.367 . S
C2521 C2523 1.433 . S
C2522 C2518 1.350 . S
C2522 C2519 1.463 . S
C2522 N2526 1.427 . S
C2523 H2513 0.929 . S
C2523 C2521 1.433 . S
C2523 N2526 1.384 . S
C2524 H2515 0.929 . S
C2524 C2516 1.378 . S
C2524 C2519 1.350 . S
C2525 H2512 0.929 . S
C2525 C2517 1.433 . S
C2525 N2527 1.384 . S
N2526 C2522 1.427 . S
N2526 C2523 1.384 . S
N2527 C2519 1.427 . S
N2527 C2525 1.384 . S
C1095 C33 1.482 . S
C1099 C67 1.483 . S
C1113 C135 1.482 . S
C1117 C101 1.483 . S
C1131 C203 1.483 . S
C1135 C169 1.482 . S
C1149 C271 1.483 . S
C1153 C237 1.483 . S
C1167 C339 1.481 . S
C1171 C305 1.481 . S
C1185 C407 1.481 . S
C1189 C373 1.482 . S
C1203 C441 1.483 . S
C1207 C475 1.482 . S
C1221 C543 1.483 . S
C1225 C509 1.482 . S
C1239 C577 1.483 . S
C1243 C611 1.481 . S
C1257 C645 1.481 . S
C1261 C679 1.481 . S
C1275 C747 1.483 . S
C1279 C713 1.482 . S
C1293 C781 1.483 . S
C1297 C815 1.482 . S
C1311 C849 1.483 . S
C1315 C883 1.481 . S
C1329 C917 1.482 . S
C1333 C951 1.483 . S
C1347 C985 1.480 . S
C1351 C1019 1.481 . S
C1365 C1053 1.481 . S
C1369 C1087 1.482 . S
C1383 C9 0.550 . S
C1387 C655 0.546 . S
C1401 C621 0.540 . S
C1405 C43 0.560 . S
C1419 C587 0.584 . S
C1423 C77 0.550 . S
C1437 C111 0.585 . S
C1441 C553 0.551 . S
C1455 C791 0.553 . S
C1459 C145 0.585 . S
C1473 C757 0.549 . S
C1477 C179 0.584 . S
C1491 C723 0.556 . S
C1495 C213 0.585 . S
C1509 C689 0.540 . S
C1513 C247 0.560 . S
C1527 C281 0.584 . S
C1531 C927 0.563 . S
C1545 C893 0.576 . S
C1549 C315 0.577 . S
C1563 C349 0.539 . S
C1567 C859 0.566 . S
C1581 C825 0.559 . S
C1585 C383 0.585 . S
C1599 C417 0.574 . S
C1603 C1063 0.579 . S
C1617 C451 0.585 . S
C1621 C1029 0.553 . S
C1635 C995 0.579 . S
C1639 C485 0.574 . S
C1653 C519 0.559 . S
C1657 C961 0.585 . S
C1671 C141 0.567 . S
C1675 C5 0.567 . S
C1689 C991 0.543 . S
C1693 C39 0.543 . S
C1707 C481 0.570 . S
C1711 C73 0.570 . S
C1725 C107 0.539 . S
C1729 C787 0.539 . S
C1743 C175 0.536 . S
C1747 C855 0.536 . S
C1761 C209 0.559 . S
C1765 C345 0.559 . S
C1779 C651 0.571 . S
C1783 C243 0.571 . S
C1797 C277 0.538 . S
C1801 C413 0.538 . S
C1815 C719 0.534 . S
C1819 C311 0.534 . S
C1833 C1059 0.536 . S
C1837 C379 0.536 . S
C1851 C447 0.563 . S
C1855 C583 0.563 . S
C1869 C923 0.571 . S
C1873 C515 0.571 . S
C1887 C685 0.570 . S
C1891 C549 0.570 . S
C1905 C1025 0.566 . S
C1909 C617 0.566 . S
C1923 C753 0.569 . S
C1927 C889 0.569 . S
C1941 C957 0.565 . S
C1945 C821 0.565 . S
C1959 C784 2.447 . S
C1963 C20 2.468 . S
C1977 C478 2.446 . S
C1981 C54 2.468 1_655 S
C1995 C988 2.446 . S
C1999 C88 2.467 . S
C2013 C122 2.469 1_655 S
C2017 C138 2.449 . S
C2031 C156 2.468 . S
C2035 C648 2.449 . S
C2049 C342 2.448 . S
C2053 C190 2.468 1_455 S
C2067 C224 2.467 . S
C2071 C852 2.445 . S
C2085 C258 2.468 1_455 S
C2089 C2 2.448 . S
C2103 C292 2.467 1_554 S
C2107 C1056 2.445 . S
C2121 C206 2.449 . S
C2125 C326 2.469 1_654 S
C2139 C360 2.468 . S
C2143 C716 2.446 . S
C2157 C394 2.468 1_655 S
C2161 C410 2.447 . S
C2175 C428 2.468 1_556 S
C2179 C920 2.448 . S
C2193 C70 2.449 . S
C2197 C462 2.469 1_456 S
C2211 C580 2.447 . S
C2215 C496 2.468 . S
C2229 C530 2.468 1_455 S
C2233 C274 2.448 . S
C2247 C240 2.446 . S
C2251 C564 2.468 1_554 S
C2265 C1022 2.447 . S
C2269 C598 2.468 1_554 S
C2283 C444 2.449 . S
C2287 C632 2.469 . S
C2301 C666 2.469 . S
C2305 C682 2.450 . S
C2319 C700 2.468 1_556 S
C2323 C104 2.448 . S
C2337 C886 2.447 . S
C2341 C734 2.468 1_556 S
C2355 C768 2.469 . S
C2359 C308 2.449 . S
C2373 C802 2.468 . S
C2377 C546 2.448 . S
C2391 C512 2.445 . S
C2395 C836 2.467 . S
C2409 C870 2.467 . S
C2413 C750 2.445 . S
C2427 C904 2.467 . S
C2431 C172 2.446 . S
C2445 C954 2.445 . S
C2449 C938 2.467 . S
C2463 C972 2.468 . S
C2467 C376 2.447 . S
C2481 C1006 2.467 . S
C2485 C614 2.446 . S
C2499 C36 2.446 . S
C2503 C1040 2.468 . S
C2517 C818 2.450 . S
C2521 C1074 2.469 . S
