# Generated by pormake.
# Topology snz, (6)-cn, num edge types: 1
# Building blocks:
#     Node 0, Type 0, BuildingBlock: KUMBOL_clean_sbu_0, # of connection points: 6
#     Node 1, Type 0, BuildingBlock: KUMBOL_clean_sbu_0, # of connection points: 6
#     Node 2, Type 0, BuildingBlock: KUMBOL_clean_sbu_0, # of connection points: 6
#     Node 3, Type 0, BuildingBlock: KUMBOL_clean_sbu_0, # of connection points: 6
#     Node 4, Type 0, BuildingBlock: KUMBOL_clean_sbu_0, # of connection points: 6
#     Node 5, Type 0, BuildingBlock: KUMBOL_clean_sbu_0, # of connection points: 6
#     Node 6, Type 0, BuildingBlock: KUMBOL_clean_sbu_0, # of connection points: 6
#     Node 7, Type 0, BuildingBlock: KUMBOL_clean_sbu_0, # of connection points: 6
#     Node 8, Type 0, BuildingBlock: KUMBOL_clean_sbu_0, # of connection points: 6
#     Edge 9, Type (0, 0), BuildingBlock: MIFKUJ_clean_linker_0, # of connection points: 2
#     Edge 10, Type (0, 0), BuildingBlock: MIFKUJ_clean_linker_0, # of connection points: 2
#     Edge 11, Type (0, 0), BuildingBlock: MIFKUJ_clean_linker_0, # of connection points: 2
#     Edge 12, Type (0, 0), BuildingBlock: MIFKUJ_clean_linker_0, # of connection points: 2
#     Edge 13, Type (0, 0), BuildingBlock: MIFKUJ_clean_linker_0, # of connection points: 2
#     Edge 14, Type (0, 0), BuildingBlock: MIFKUJ_clean_linker_0, # of connection points: 2
#     Edge 15, Type (0, 0), BuildingBlock: MIFKUJ_clean_linker_0, # of connection points: 2
#     Edge 16, Type (0, 0), BuildingBlock: MIFKUJ_clean_linker_0, # of connection points: 2
#     Edge 17, Type (0, 0), BuildingBlock: MIFKUJ_clean_linker_0, # of connection points: 2
#     Edge 18, Type (0, 0), BuildingBlock: MIFKUJ_clean_linker_0, # of connection points: 2
#     Edge 19, Type (0, 0), BuildingBlock: MIFKUJ_clean_linker_0, # of connection points: 2
#     Edge 20, Type (0, 0), BuildingBlock: MIFKUJ_clean_linker_0, # of connection points: 2
#     Edge 21, Type (0, 0), BuildingBlock: MIFKUJ_clean_linker_0, # of connection points: 2
#     Edge 22, Type (0, 0), BuildingBlock: MIFKUJ_clean_linker_0, # of connection points: 2
#     Edge 23, Type (0, 0), BuildingBlock: MIFKUJ_clean_linker_0, # of connection points: 2
#     Edge 24, Type (0, 0), BuildingBlock: MIFKUJ_clean_linker_0, # of connection points: 2
#     Edge 25, Type (0, 0), BuildingBlock: MIFKUJ_clean_linker_0, # of connection points: 2
#     Edge 26, Type (0, 0), BuildingBlock: MIFKUJ_clean_linker_0, # of connection points: 2
#     Edge 27, Type (0, 0), BuildingBlock: MIFKUJ_clean_linker_0, # of connection points: 2
#     Edge 28, Type (0, 0), BuildingBlock: MIFKUJ_clean_linker_0, # of connection points: 2
#     Edge 29, Type (0, 0), BuildingBlock: MIFKUJ_clean_linker_0, # of connection points: 2
#     Edge 30, Type (0, 0), BuildingBlock: MIFKUJ_clean_linker_0, # of connection points: 2
#     Edge 31, Type (0, 0), BuildingBlock: MIFKUJ_clean_linker_0, # of connection points: 2
#     Edge 32, Type (0, 0), BuildingBlock: MIFKUJ_clean_linker_0, # of connection points: 2
#     Edge 33, Type (0, 0), BuildingBlock: MIFKUJ_clean_linker_0, # of connection points: 2
#     Edge 34, Type (0, 0), BuildingBlock: MIFKUJ_clean_linker_0, # of connection points: 2
#     Edge 35, Type (0, 0), BuildingBlock: MIFKUJ_clean_linker_0, # of connection points: 2
# Relax obj value: 0.223
# Max RMSD: 0.298
# Mean RMSD: 0.201
data_MOF--net-snz--node1-KUMBOL_clean_sbu_0--edge1-MIFKUJ_clean_linker_0
_symmetry_space_group_name_H-M    P1
_symmetry_Int_Tables_number       1
_symmetry_cell_setting            triclinic
loop_
_symmetry_equiv_pos_as_xyz
'x, y, z'
_cell_length_a     74.673357
_cell_length_b     70.287013
_cell_length_c     20.90286
_cell_angle_alpha  94.085263
_cell_angle_beta   94.444904
_cell_angle_gamma 120.31092
loop_
_atom_site_label
_atom_site_type_symbol
_atom_site_fract_x
_atom_site_fract_y
_atom_site_fract_z
_atom_type_partial_charge
Gd0 Gd 0.04306 0.48397 0.17116 0.0
Gd1 Gd 0.08899 0.47868 0.18756 0.0
C2 C 0.14617 0.54919 0.222 0.0
C3 C 0.15906 0.55342 0.11783 0.0
C4 C 0.12854 0.51859 0.13514 0.0
C5 C 0.12984 0.5274 0.19785 0.0
C6 C 0.14378 0.53123 0.09555 0.0
C7 C 0.16028 0.56237 0.18103 0.0
C8 C 0.14822 0.55692 0.28712 0.0
C9 C 0.13456 0.54288 0.32699 0.0
N10 N 0.116 0.51427 0.23656 0.0
C11 C 0.11861 0.52147 0.30101 0.0
H12 H 0.10859 0.51095 0.33326 0.0
C13 C 0.11627 0.48609 0.06234 0.0
N14 N 0.114 0.49688 0.11573 0.0
C15 C 0.13068 0.49796 1.02076 0.0
C16 C 0.14412 0.5208 1.03653 0.0
H17 H 0.10628 0.46829 0.05021 0.0
H18 H 0.17265 0.57926 0.19851 0.0
H19 H 0.02067 0.45979 1.01675 0.0
H20 H 0.16069 0.57342 0.30734 0.0
H21 H 0.13632 0.54847 0.37788 0.0
H22 H 0.17064 0.56345 0.08767 0.0
H23 H 0.02502 0.48626 0.31584 0.0
H24 H 0.96916 0.39491 1.02274 0.0
H25 H 0.99253 0.42454 0.96066 0.0
H26 H 0.9626 0.39153 0.24683 0.0
H27 H 0.13155 0.48944 0.97695 0.0
H28 H 0.15553 0.52993 1.00477 0.0
H29 H 0.95905 0.38219 0.12926 0.0
H30 H 1.00164 0.46046 0.38514 0.0
N31 N 0.01534 0.45045 0.11182 0.0
C32 C 0.98214 0.4103 0.04794 0.0
C33 C 0.99521 0.42694 1.01293 0.0
C34 C 0.98521 0.41415 0.11534 0.0
C35 C 1.00194 0.43479 0.14638 0.0
C36 C 0.0116 0.44704 1.04562 0.0
N37 N 0.01862 0.46095 0.23926 0.0
C38 C 0.00403 0.43999 0.21245 0.0
C39 C 0.00255 0.45422 0.3374 0.0
C40 C 0.98946 0.43188 0.31341 0.0
C41 C 0.01631 0.46872 0.29841 0.0
C42 C 0.98929 0.42475 0.24911 0.0
H43 H 0.97842 0.42073 0.34308 0.0
O44 O 0.03483 0.50756 0.2127 0.0
O45 O 0.07747 0.50233 0.20765 0.0
O46 O 0.07897 0.47636 0.28967 0.0
O47 O 0.05535 0.48858 0.28195 0.0
O48 O 0.06684 0.51604 0.14084 0.0
O49 O 0.02305 0.49258 0.11423 0.0
O50 O 0.09873 0.45494 0.16024 0.0
O51 O 0.055 0.46127 0.14777 0.0
O52 O 0.05312 0.48621 0.06848 0.0
O53 O 0.0788 0.47665 0.07636 0.0
O54 O 0.06429 0.44394 0.20172 0.0
O55 O 0.10882 0.47298 0.25596 0.0
C56 C 0.08282 0.51942 0.1788 0.0
C57 C 0.97378 0.40353 0.21922 0.0
C58 C 0.97167 0.39827 0.15229 0.0
C59 C 0.0229 0.5057 0.1609 0.0
C60 C 0.00221 0.50305 0.16944 0.0
C61 C 0.98737 0.48442 0.1952 0.0
C62 C 0.99689 0.51873 0.15023 0.0
C63 C 0.97695 0.51585 0.15791 0.0
C64 C 0.9681 0.48186 0.20505 0.0
C65 C 0.963 0.49745 0.18737 0.0
C66 C 0.0668 0.48231 0.31742 0.0
C67 C 0.04863 0.44251 0.16696 0.0
C68 C 0.11006 0.45882 0.21561 0.0
C69 C 0.13121 0.46172 0.21429 0.0
C70 C 0.14717 0.48094 0.19378 0.0
C71 C 0.1358 0.4456 0.23476 0.0
C72 C 0.15601 0.44861 0.23251 0.0
C73 C 0.167 0.48388 0.19129 0.0
C74 C 0.17137 0.46784 0.21001 0.0
C75 C 0.06629 0.48164 1.04089 0.0
H76 H 0.99056 0.47172 0.20748 0.0
H77 H 0.00804 0.53275 0.12814 0.0
H78 H 0.95697 0.46759 0.22626 0.0
H79 H 0.94797 0.49496 0.19688 0.0
H80 H 0.1444 0.49381 0.18005 0.0
H81 H 0.12374 0.4308 0.25166 0.0
H82 H 0.17911 0.49876 0.17496 0.0
H83 H 0.18695 0.47061 0.2078 0.0
Gd84 Gd 0.62086 0.47825 0.09539 0.0
Gd85 Gd 0.61414 0.52596 0.10362 0.0
C86 C 0.56641 0.53345 0.21035 0.0
C87 C 0.53447 0.51175 0.13499 0.0
C88 C 0.56709 0.51518 0.10863 0.0
C89 C 0.57728 0.52795 0.16748 0.0
C90 C 0.5456 0.50718 0.09129 0.0
C91 C 0.54487 0.52487 0.19442 0.0
C92 C 0.57765 0.54795 0.26702 0.0
C93 C 0.5993 0.55726 0.27847 0.0
N94 N 0.59805 0.53581 0.1816 0.0
C95 C 0.60935 0.55131 0.23439 0.0
H96 H 0.62613 0.55863 0.24333 0.0
C97 C 0.56886 0.49886 1.00833 0.0
N98 N 0.57822 0.51072 0.06804 0.0
C99 C 0.54768 0.49087 0.98864 0.0
C100 C 0.53595 0.49492 1.03043 0.0
H101 H 0.57746 0.49509 0.97584 0.0
H102 H 0.53619 0.52865 0.22712 0.0
H103 H 0.659 0.49705 1.00293 0.0
H104 H 0.56989 0.5526 0.30115 0.0
H105 H 0.60825 0.56901 0.32118 0.0
H106 H 0.51791 0.50549 0.1229 0.0
H107 H 0.60159 0.44247 0.20651 0.0
H108 H 0.71442 0.50591 0.11033 0.0
H109 H 0.69622 0.50904 1.01085 0.0
H110 H 0.68912 0.47004 0.29722 0.0
H111 H 0.54035 0.48134 0.94149 0.0
H112 H 0.51949 0.48851 1.01529 0.0
H113 H 0.71165 0.49165 0.21832 0.0
H114 H 0.61477 0.43125 0.29898 0.0
N115 N 0.65616 0.48858 0.0986 0.0
C116 C 0.69803 0.5008 0.10736 0.0
C117 C 0.68787 0.50248 0.05103 0.0
C118 C 0.68654 0.49131 0.15774 0.0
C119 C 0.66527 0.48505 0.1514 0.0
C120 C 0.66671 0.49579 1.04686 0.0
N121 N 0.63194 0.4655 0.1836 0.0
C122 C 0.65268 0.47294 0.19538 0.0
C123 C 0.62565 0.44323 0.27076 0.0
C124 C 0.64712 0.45207 0.28626 0.0
C125 C 0.61825 0.44983 0.21838 0.0
C126 C 0.66092 0.46671 0.24746 0.0
H127 H 0.6528 0.44682 0.32659 0.0
O128 O 0.59409 0.44568 0.05525 0.0
O129 O 0.59767 0.48943 0.09077 0.0
O130 O 0.61479 0.51688 0.20884 0.0
O131 O 0.62722 0.49222 0.20521 0.0
O132 O 0.59158 0.46307 0.14283 0.0
O133 O 0.62463 0.45528 1.03073 0.0
O134 O 0.61321 0.54628 1.03151 0.0
O135 O 0.63617 0.51423 0.08427 0.0
O136 O 0.62221 0.48872 0.99112 0.0
O137 O 0.61475 0.51718 0.99446 0.0
O138 O 0.64745 0.54181 0.15186 0.0
O139 O 0.63362 0.56211 0.12158 0.0
C140 C 0.58517 0.47606 0.12625 0.0
C141 C 0.68243 0.47437 0.25698 0.0
C142 C 0.69526 0.48669 0.21212 0.0
C143 C 0.60536 0.43921 1.02739 0.0
C144 C 0.60206 0.41731 1.03975 0.0
C145 C 0.6165 0.41581 0.08311 0.0
C146 C 0.58436 0.39769 1.00795 0.0
C147 C 0.58105 0.37667 1.0195 0.0
C148 C 0.61328 0.39512 0.09497 0.0
C149 C 0.59575 0.3757 0.06348 0.0
C150 C 0.62162 0.505 0.23869 0.0
C151 C 0.65255 0.52935 0.1196 0.0
C152 C 0.62532 0.56495 0.06887 0.0
C153 C 0.61762 0.58057 0.07607 0.0
C154 C 0.59606 0.57277 0.06622 0.0
C155 C 0.63187 0.60349 0.09319 0.0
C156 C 0.62465 0.61853 0.09955 0.0
C157 C 0.58885 0.58752 0.07325 0.0
C158 C 0.60299 0.61023 0.08961 0.0
C159 C 0.61845 0.50283 0.96109 0.0
H160 H 0.63036 0.43061 0.10757 0.0
H161 H 0.57315 0.39882 0.97472 0.0
H162 H 0.62453 0.39413 0.12836 0.0
H163 H 0.59392 0.35988 0.07271 0.0
H164 H 0.58475 0.55527 0.05282 0.0
H165 H 0.64852 0.60962 0.10045 0.0
H166 H 0.57221 0.58133 0.06583 0.0
H167 H 0.59694 0.62131 0.09512 0.0
Gd168 Gd 0.60542 0.08222 0.92718 0.0
Gd169 Gd 0.56121 0.02546 0.90327 0.0
C170 C 0.57174 0.96688 0.88419 0.0
C171 C 0.55874 0.95166 0.7714 0.0
C172 C 0.55721 0.98366 0.81653 0.0
C173 C 0.56726 0.98385 0.87529 0.0
C174 C 0.55204 0.96692 0.76483 0.0
C175 C 0.56853 0.95159 0.83116 0.0
C176 C 0.57755 0.96456 0.94703 0.0
C177 C 0.57736 0.97799 0.99908 0.0
N178 N 0.5697 0.99849 0.92614 0.0
C179 C 0.57294 0.99458 0.98781 0.0
H180 H 0.57259 0.00441 1.029 0.0
C181 C 0.53613 0.99503 0.76103 0.0
N182 N 0.55021 0.99806 0.81263 0.0
C183 C 0.53056 0.97868 0.70876 0.0
C184 C 0.53904 0.96499 0.70982 0.0
H185 H 0.52995 0.00593 0.75834 0.0
H186 H 0.57234 0.93878 0.83687 0.0
H187 H 0.59579 0.09939 0.78319 0.0
H188 H 0.58093 0.95164 0.95597 0.0
H189 H 0.58068 0.97582 0.0481 0.0
H190 H 0.55525 0.93897 0.73183 0.0
H191 H 0.63099 0.10776 0.07668 0.0
H192 H 0.57442 0.14389 0.82716 0.0
H193 H 0.58196 0.12209 0.74746 0.0
H194 H 0.59159 0.16208 0.05635 0.0
H195 H 0.51996 0.97689 0.66727 0.0
H196 H 0.53467 0.95232 0.66927 0.0
H197 H 0.5774 0.15814 0.94294 0.0
H198 H 0.63276 0.13553 0.15982 0.0
N199 N 0.59496 0.10623 0.88421 0.0
C200 C 0.58038 0.13363 0.84369 0.0
C201 C 0.58464 0.12137 0.79864 0.0
C202 C 0.58523 0.13365 0.90957 0.0
C203 C 0.59298 0.11995 0.92855 0.0
C204 C 0.59228 0.10804 0.81972 0.0
N205 N 0.61038 0.11065 1.00733 0.0
C206 C 0.60092 0.12219 0.99228 0.0
C207 C 0.62363 0.13186 0.11303 0.0
C208 C 0.61237 0.14236 0.10021 0.0
C209 C 0.62281 0.11634 0.06539 0.0
C210 C 0.60134 0.1381 1.03864 0.0
H211 H 0.61306 0.15444 0.13711 0.0
O212 O 0.63046 0.08245 0.87822 0.0
O213 O 0.59614 0.04649 0.92443 0.0
O214 O 0.57097 0.03613 1.01444 0.0
O215 O 0.59453 0.0743 1.02954 0.0
O216 O 0.62005 0.06935 0.99623 0.0
O217 O 0.63586 0.11241 0.93185 0.0
O218 O 0.53509 0.99515 0.92773 0.0
O219 O 0.57047 0.06121 0.90986 0.0
O220 O 0.59695 0.07008 0.81642 0.0
O221 O 0.57244 0.03209 0.80146 0.0
O222 O 0.54651 0.03917 0.83768 0.0
O223 O 0.53501 0.02561 0.94314 0.0
C224 C 0.60948 0.04877 0.97106 0.0
C225 C 0.59181 0.15015 1.0211 0.0
C226 C 0.58374 0.1479 0.95655 0.0
C227 C 0.64439 0.10278 0.90178 0.0
C228 C 0.66473 0.10677 0.93408 0.0
C229 C 0.66796 0.1084 1.00173 0.0
C230 C 0.6811 0.10925 0.89862 0.0
C231 C 0.70047 0.11348 0.93116 0.0
C232 C 0.6869 0.11282 1.03392 0.0
C233 C 0.70303 0.11554 0.99932 0.0
C234 C 0.58227 0.05532 0.05351 0.0
C235 C 0.55749 0.0597 0.86333 0.0
C236 C 0.52485 0.00443 0.94673 0.0
C237 C 0.50213 0.99196 0.92582 0.0
C238 C 0.49418 0.98649 0.86004 0.0
C239 C 0.48824 0.98426 0.97234 0.0
C240 C 0.46645 0.97093 0.95322 0.0
C241 C 0.47271 0.97308 0.84062 0.0
C242 C 0.45892 0.96532 0.88668 0.0
C243 C 0.58521 0.05087 0.77755 0.0
H244 H 0.65588 0.10649 1.03018 0.0
H245 H 0.67868 0.10773 0.84631 0.0
H246 H 0.68918 0.11435 0.08623 0.0
H247 H 0.71771 0.11962 1.02659 0.0
H248 H 0.50453 0.9924 0.82375 0.0
H249 H 0.49443 0.98867 1.02326 0.0
H250 H 0.46671 0.96872 0.78962 0.0
H251 H 0.44235 0.95471 0.87004 0.0
Gd252 Gd 0.75135 0.8935 0.29968 0.0
Gd253 Gd 0.7971 0.88815 0.31555 0.0
C254 C 0.86008 0.95195 0.31723 0.0
C255 C 0.87116 0.9449 0.2164 0.0
C256 C 0.83831 0.91693 0.24859 0.0
C257 C 0.84163 0.9309 0.30369 0.0
C258 C 0.85335 0.92345 0.20528 0.0
C259 C 0.87451 0.95916 0.27229 0.0
C260 C 0.86383 0.96473 0.37662 0.0
C261 C 0.84982 0.95598 0.42177 0.0
N262 N 0.82756 0.92319 0.34644 0.0
C263 C 0.83182 0.93491 0.40616 0.0
H264 H 0.82103 0.92842 0.44123 0.0
C265 C 0.81899 0.88052 0.19263 0.0
N266 N 0.82109 0.89627 0.24 0.0
C267 C 0.83339 0.88621 0.14809 0.0
C268 C 0.85045 0.9079 0.15372 0.0
H269 H 0.80589 0.86371 0.18823 0.0
H270 H 0.88864 0.97539 0.2814 0.0
H271 H 0.74056 0.91149 0.167 0.0
H272 H 0.87776 0.98104 0.38881 0.0
H273 H 0.85279 0.9655 0.46841 0.0
H274 H 0.88278 0.95034 0.18327 0.0
H275 H 0.7334 0.85459 0.40066 0.0
H276 H 0.68073 0.86093 0.06866 0.0
H277 H 0.71211 0.89847 0.07636 0.0
H278 H 0.65735 0.80462 0.20998 0.0
H279 H 0.83133 0.87388 0.10951 0.0
H280 H 0.86165 0.91224 0.11938 0.0
H281 H 0.66047 0.82587 0.11866 0.0
H282 H 0.70158 0.81913 0.40822 0.0
N283 N 0.72603 0.8811 0.2078 0.0
C284 C 0.69328 0.86648 0.10806 0.0
C285 C 0.71094 0.88767 0.11224 0.0
C286 C 0.69161 0.85308 0.15637 0.0
C287 C 0.70836 0.86113 0.2068 0.0
C288 C 0.72704 0.89493 0.16343 0.0
N289 N 0.7225 0.85823 0.30772 0.0
C290 C 0.70649 0.84937 0.25853 0.0
C291 C 0.70276 0.82741 0.36569 0.0
C292 C 0.68626 0.81803 0.3152 0.0
C293 C 0.7208 0.84767 0.36133 0.0
C294 C 0.68797 0.82896 0.26073 0.0
H295 H 0.67211 0.80258 0.31906 0.0
O296 O 0.73312 0.8992 0.36632 0.0
O297 O 0.78555 0.91139 0.33396 0.0
O298 O 0.78925 0.89141 0.41982 0.0
O299 O 0.75908 0.89366 0.41033 0.0
O300 O 0.77527 0.92553 0.26815 0.0
O301 O 0.74595 0.92119 0.29446 0.0
O302 O 0.79511 0.85637 0.32563 0.0
O303 O 0.76226 0.86978 0.30875 0.0
O304 O 0.75828 0.88797 0.19516 0.0
O305 O 0.79279 0.8957 0.20953 0.0
O306 O 0.77547 0.85757 0.24629 0.0
O307 O 0.81805 0.88551 0.38822 0.0
C308 C 0.79127 0.92839 0.30494 0.0
C309 C 0.67162 0.82036 0.20929 0.0
C310 C 0.67343 0.83241 0.1572 0.0
C311 C 0.73238 0.91428 0.33526 0.0
C312 C 0.71125 0.91036 0.31237 0.0
C313 C 0.69331 0.89125 0.32616 0.0
C314 C 0.70869 0.92483 0.27373 0.0
C315 C 0.68846 0.91994 0.2485 0.0
C316 C 0.67341 0.88654 0.3021 0.0
C317 C 0.67096 0.90068 0.26375 0.0
C318 C 0.77414 0.89267 0.44662 0.0
C319 C 0.75815 0.85441 0.26396 0.0
C320 C 0.81074 0.86449 0.37129 0.0
C321 C 0.8262 0.85741 0.36497 0.0
C322 C 0.84327 0.86931 0.33131 0.0
C323 C 0.82422 0.83893 0.39383 0.0
C324 C 0.83944 0.83267 0.38983 0.0
C325 C 0.85807 0.86294 0.32602 0.0
C326 C 0.85623 0.84486 0.35503 0.0
C327 C 0.77583 0.8921 0.1709 0.0
H328 H 0.69457 0.87969 0.3551 0.0
H329 H 0.72235 0.93949 0.26209 0.0
H330 H 0.65976 0.87177 0.31312 0.0
H331 H 0.65522 0.8966 0.24654 0.0
H332 H 0.8453 0.88365 0.30953 0.0
H333 H 0.81121 0.82985 0.42063 0.0
H334 H 0.87114 0.87218 0.29969 0.0
H335 H 0.868 0.84035 0.35003 0.0
Gd336 Gd 0.21686 0.79991 0.40737 0.0
Gd337 Gd 0.16786 0.79716 0.40033 0.0
C338 C 0.14912 0.80107 0.19044 0.0
C339 C 0.1545 0.83824 0.19612 0.0
C340 C 0.16131 0.8246 0.29355 0.0
C341 C 0.15621 0.80486 0.25734 0.0
C342 C 0.1599 0.84125 0.26345 0.0
C343 C 0.14899 0.81813 0.15972 0.0
C344 C 0.14184 0.78005 0.15671 0.0
C345 C 0.14105 0.7632 0.19009 0.0
N346 N 0.15643 0.78864 0.28836 0.0
C347 C 0.14821 0.76774 0.25633 0.0
H348 H 0.14694 0.75439 0.28151 0.0
C349 C 0.16613 0.84365 0.39692 0.0
N350 N 0.16556 0.82657 0.35884 0.0
C351 C 0.16551 0.86088 0.36935 0.0
C352 C 0.1628 0.8599 0.30222 0.0
H353 H 0.16765 0.84429 0.44906 0.0
H354 H 0.14404 0.81567 0.10819 0.0
H355 H 0.24259 0.84924 0.50456 0.0
H356 H 0.13631 0.7765 0.10536 0.0
H357 H 0.1349 0.7467 0.16489 0.0
H358 H 0.15361 0.85097 0.17215 0.0
H359 H 0.2093 0.7471 0.39114 0.0
H360 H 0.2535 0.83727 0.69621 0.0
H361 H 0.25578 0.86309 0.61873 0.0
H362 H 0.22926 0.7597 0.67395 0.0
H363 H 0.16684 0.87475 0.39991 0.0
H364 H 0.16193 0.87308 0.28092 0.0
H365 H 0.24354 0.7988 0.71622 0.0
H366 H 0.20677 0.71975 0.46132 0.0
N367 N 0.23027 0.81513 0.51639 0.0
C368 C 0.24712 0.8309 0.64587 0.0
C369 C 0.24829 0.84549 0.60244 0.0
C370 C 0.23829 0.80837 0.62352 0.0
C371 C 0.23001 0.80082 0.55743 0.0
C372 C 0.24017 0.83737 0.53745 0.0
N373 N 0.21547 0.77208 0.4688 0.0
C374 C 0.22196 0.77867 0.53338 0.0
C375 C 0.21061 0.73609 0.48245 0.0
C376 C 0.2155 0.74202 0.54914 0.0
C377 C 0.21142 0.75159 0.44278 0.0
C378 C 0.222 0.76372 0.57522 0.0
H379 H 0.21525 0.73009 0.57971 0.0
O380 O 0.24091 0.79189 0.39488 0.0
O381 O 0.19178 0.79874 0.33342 0.0
O382 O 0.163 0.76232 0.39744 0.0
O383 O 0.19262 0.76591 0.35912 0.0
O384 O 0.21529 0.79679 0.29647 0.0
O385 O 0.24837 0.82589 0.39504 0.0
O386 O 0.14226 0.79935 0.43555 0.0
O387 O 0.19299 0.79861 0.47408 0.0
O388 O 0.22258 0.83422 0.39901 0.0
O389 O 0.19355 0.8328 0.43563 0.0
O390 O 0.16982 0.80126 0.51117 0.0
O391 O 0.13711 0.7674 0.39714 0.0
C392 C 0.19917 0.79828 0.278 0.0
C393 C 0.22934 0.77103 0.64129 0.0
C394 C 0.23756 0.79332 0.6653 0.0
C395 C 0.25453 0.81177 0.38334 0.0
C396 C 0.26434 0.81312 0.3237 0.0
C397 C 0.25488 0.79517 0.27367 0.0
C398 C 0.28306 0.83252 0.31575 0.0
C399 C 0.29183 0.8341 0.25769 0.0
C400 C 0.26367 0.79668 0.21649 0.0
C401 C 0.28193 0.81608 0.20818 0.0
C402 C 0.17326 0.75367 0.37119 0.0
C403 C 0.18591 0.79975 0.52956 0.0
C404 C 0.1287 0.77823 0.42085 0.0
C405 C 0.10778 0.77221 0.38977 0.0
C406 C 0.10544 0.77991 0.33147 0.0
C407 C 0.09 0.75945 0.42037 0.0
C408 C 0.07006 0.75481 0.39357 0.0
C409 C 0.08571 0.77512 0.30424 0.0
C410 C 0.06815 0.76279 0.33516 0.0
C411 C 0.21264 0.84401 0.41961 0.0
H412 H 0.24058 0.77994 0.2784 0.0
H413 H 0.29058 0.84642 0.35404 0.0
H414 H 0.25628 0.78272 0.17855 0.0
H415 H 0.28855 0.81692 0.16341 0.0
H416 H 0.11884 0.78983 0.30741 0.0
H417 H 0.09178 0.7537 0.46588 0.0
H418 H 0.08405 0.78116 0.25926 0.0
H419 H 0.05303 0.75936 0.31319 0.0
Gd420 Gd 0.29527 0.33041 0.42392 0.0
Gd421 Gd 0.24506 0.27759 0.39722 0.0
C422 C 0.23887 0.20923 0.36521 0.0
C423 C 0.22297 0.1964 0.25315 0.0
C424 C 0.2305 0.23231 0.30429 0.0
C425 C 0.2391 0.22929 0.36045 0.0
C426 C 0.22167 0.21559 0.25057 0.0
C427 C 0.23152 0.1932 0.31054 0.0
C428 C 0.2448 0.20532 0.42568 0.0
C429 C 0.24984 0.22079 0.4797 0.0
N430 N 0.24569 0.24496 0.41249 0.0
C431 C 0.25006 0.24049 0.47234 0.0
H432 H 0.25409 0.25215 0.51484 0.0
C433 C 0.21687 0.25231 0.25476 0.0
N434 N 0.22886 0.25065 0.30459 0.0
C435 C 0.20808 0.23635 0.2 0.0
C436 C 0.21085 0.21812 0.19732 0.0
H437 H 0.21457 0.26629 0.2562 0.0
H438 H 0.23152 0.17785 0.31299 0.0
H439 H 0.28557 0.35366 0.30051 0.0
H440 H 0.24465 0.19006 0.43165 0.0
H441 H 0.25347 0.21759 0.52719 0.0
H442 H 0.21653 0.1835 0.21213 0.0
H443 H 0.32608 0.34638 0.56589 0.0
H444 H 0.28425 0.4108 0.37748 0.0
H445 H 0.28056 0.38498 0.28375 0.0
H446 H 0.3112 0.42124 0.60058 0.0
H447 H 0.19918 0.23814 0.15993 0.0
H448 H 0.20386 0.20567 0.15512 0.0
H449 H 0.29508 0.42384 0.4968 0.0
H450 H 0.33833 0.37504 0.66069 0.0
N451 N 0.29119 0.36079 0.40336 0.0
C452 C 0.28641 0.39697 0.38526 0.0
C453 C 0.28443 0.38251 0.33224 0.0
C454 C 0.29244 0.39419 0.44726 0.0
C455 C 0.29501 0.37587 0.45459 0.0
C456 C 0.28728 0.36467 0.34212 0.0
N457 N 0.30872 0.35821 0.51439 0.0
C458 C 0.30412 0.3745 0.51245 0.0
C459 C 0.32861 0.37503 0.61947 0.0
C460 C 0.32271 0.39098 0.61993 0.0
C461 C 0.32174 0.35891 0.56559 0.0
C462 C 0.31081 0.39125 0.56527 0.0
H463 H 0.32817 0.40356 0.6615 0.0
O464 O 0.3288 0.34265 0.43893 0.0
O465 O 0.27983 0.29328 0.41015 0.0
O466 O 0.25701 0.28713 0.50815 0.0
O467 O 0.28355 0.32437 0.52519 0.0
O468 O 0.30705 0.31091 0.47458 0.0
O469 O 0.31446 0.34266 0.34604 0.0
O470 O 0.21476 0.27537 0.39282 0.0
O471 O 0.26058 0.31484 0.41418 0.0
O472 O 0.28374 0.3192 0.3127 0.0
O473 O 0.25767 0.28168 0.29743 0.0
O474 O 0.23568 0.29769 0.34062 0.0
O475 O 0.22336 0.26048 0.46587 0.0
C476 C 0.29262 0.29128 0.44922 0.0
C477 C 0.3065 0.40841 0.56023 0.0
C478 C 0.29732 0.40988 0.50117 0.0
C479 C 0.33201 0.34872 0.3816 0.0
C480 C 0.34948 0.3716 0.37848 0.0
C481 C 0.34819 0.38974 0.40455 0.0
C482 C 0.36726 0.37559 0.34857 0.0
C483 C 0.38334 0.39763 0.34397 0.0
C484 C 0.36403 0.41141 0.40075 0.0
C485 C 0.3814 0.41536 0.37068 0.0
C486 C 0.27009 0.30572 0.54826 0.0
C487 C 0.24898 0.31701 0.37086 0.0
C488 C 0.20874 0.26356 0.44017 0.0
C489 C 0.18715 0.24422 0.42923 0.0
C490 C 0.18257 0.22493 0.3899 0.0
C491 C 0.17086 0.24522 0.45658 0.0
C492 C 0.15 0.22698 0.44451 0.0
C493 C 0.16209 0.20699 0.37715 0.0
C494 C 0.14596 0.20799 0.40374 0.0
C495 C 0.271 0.3002 0.27346 0.0
H496 H 0.33489 0.38717 0.42781 0.0
H497 H 0.36838 0.36169 0.32807 0.0
H498 H 0.36283 0.42525 0.4212 0.0
H499 H 0.39353 0.43242 0.36899 0.0
H500 H 0.1948 0.22378 0.36867 0.0
H501 H 0.17451 0.26009 0.48754 0.0
H502 H 0.15867 0.19225 0.34608 0.0
H503 H 0.13021 0.19389 0.39141 0.0
Gd504 Gd 0.36719 0.1237 0.69207 0.0
Gd505 Gd 0.39697 0.1253 0.56059 0.0
C506 C 0.4416 0.09885 0.56426 0.0
C507 C 0.47283 0.12965 0.53259 0.0
C508 C 0.44245 0.13295 0.54665 0.0
C509 C 0.4318 0.11151 0.562 0.0
C510 C 0.46312 0.14233 0.53191 0.0
C511 C 0.4621 0.10795 0.54879 0.0
C512 C 0.43072 0.07768 0.58378 0.0
C513 C 0.4107 0.06977 0.6011 0.0
N514 N 0.41231 0.10361 0.57885 0.0
C515 C 0.40164 0.08296 0.59806 0.0
H516 H 0.38617 0.07658 0.61173 0.0
C517 C 0.44241 0.1659 0.53142 0.0
N518 N 0.43274 0.14485 0.54819 0.0
C519 C 0.46293 0.17596 0.51648 0.0
C520 C 0.47337 0.16415 0.51693 0.0
H521 H 0.43416 0.17485 0.5291 0.0
H522 H 0.4699 0.09849 0.55018 0.0
H523 H 0.39379 0.15859 0.82719 0.0
H524 H 0.43774 0.06747 0.58648 0.0
H525 H 0.40221 0.05348 0.61668 0.0
H526 H 0.4887 0.13655 0.52132 0.0
H527 H 0.3257 0.10459 0.57199 0.0
H528 H 0.36816 0.2 0.86509 0.0
H529 H 0.39386 0.18878 0.89519 0.0
H530 H 0.31063 0.1722 0.69654 0.0
H531 H 0.47058 0.19272 0.50385 0.0
H532 H 0.48924 0.17195 0.50515 0.0
H533 H 0.33715 0.19369 0.79075 0.0
H534 H 0.29767 0.1117 0.54175 0.0
N535 N 0.36872 0.1532 0.75788 0.0
C536 C 0.3681 0.18677 0.8349 0.0
C537 C 0.38259 0.18046 0.85218 0.0
C538 C 0.35336 0.17557 0.77979 0.0
C539 C 0.35397 0.15849 0.74195 0.0
C540 C 0.38248 0.16334 0.81351 0.0
N541 N 0.33996 0.12982 0.65388 0.0
C542 C 0.33903 0.14632 0.68886 0.0
C543 C 0.30913 0.12148 0.58352 0.0
C544 C 0.30818 0.13849 0.61852 0.0
C545 C 0.32514 0.11734 0.60177 0.0
C546 C 0.32318 0.15114 0.67192 0.0
H547 H 0.29585 0.14176 0.60384 0.0
O548 O 0.35294 0.09023 0.71841 0.0
O549 O 0.39079 0.11592 0.65902 0.0
O550 O 0.36777 0.09113 0.55048 0.0
O551 O 0.34613 0.09271 0.62232 0.0
O552 O 0.39536 0.12818 0.75552 0.0
O553 O 0.3515 0.11545 0.77831 0.0
O554 O 0.39836 0.13492 0.46372 0.0
O555 O 0.37103 0.1301 0.59017 0.0
O556 O 0.39671 0.15823 0.70115 0.0
O557 O 0.41917 0.15552 0.63296 0.0
O558 O 0.39262 0.15391 0.5395 0.0
O559 O 0.38519 0.10035 0.47638 0.0
C560 C 0.4028 0.12125 0.71222 0.0
C561 C 0.32272 0.16835 0.70879 0.0
C562 C 0.33782 0.18059 0.76243 0.0
C563 C 0.3488 0.0956 0.77364 0.0
C564 C 0.35737 0.08983 0.8297 0.0
C565 C 0.34964 0.06746 0.83726 0.0
C566 C 0.3754 0.10636 0.86957 0.0
C567 C 0.38692 0.10079 0.91245 0.0
C568 C 0.36024 0.06174 0.88271 0.0
C569 C 0.37897 0.07821 0.91927 0.0
C570 C 0.34992 0.08219 0.57528 0.0
C571 C 0.37633 0.14836 0.56796 0.0
C572 C 0.39378 0.11533 0.43764 0.0
C573 C 0.41002 0.11461 0.40289 0.0
C574 C 0.41301 0.09638 0.40332 0.0
C575 C 0.42456 0.13354 0.37716 0.0
C576 C 0.44215 0.13463 0.35371 0.0
C577 C 0.43056 0.09745 0.38066 0.0
C578 C 0.44514 0.11649 0.35635 0.0
C579 C 0.41523 0.16627 0.67952 0.0
H580 H 0.33584 0.05444 0.80652 0.0
H581 H 0.381 0.12363 0.86515 0.0
H582 H 0.35438 0.04443 0.88778 0.0
H583 H 0.38748 0.07317 0.95123 0.0
H584 H 0.40224 0.08158 0.42333 0.0
H585 H 0.42247 0.14772 0.37674 0.0
H586 H 0.43289 0.08348 0.38214 0.0
H587 H 0.45836 0.11671 0.33762 0.0
Gd588 Gd 0.92387 0.2075 0.63408 0.0
Gd589 Gd 0.94012 0.17766 0.73875 0.0
C590 C 0.00432 0.1844 0.73442 0.0
C591 C 0.99495 0.14734 0.68863 0.0
C592 C 0.9678 0.156 0.70537 0.0
C593 C 0.98289 0.17767 0.7294 0.0
C594 C 0.97367 0.1405 0.68578 0.0
C595 C 0.01024 0.16921 0.71322 0.0
C596 C 0.0192 0.20616 0.76122 0.0
C597 C 0.01261 0.22052 0.78295 0.0
N598 N 0.97668 0.19205 0.74891 0.0
C599 C 0.99125 0.21313 0.77698 0.0
H600 H 0.98676 0.22471 0.79365 0.0
C601 C 0.93209 0.12783 0.68939 0.0
N602 N 0.94736 0.1498 0.70384 0.0
C603 C 0.93713 0.11199 0.66832 0.0
C604 C 0.95799 0.1184 0.66567 0.0
H605 H 0.91587 0.12276 0.69153 0.0
H606 H 0.0266 0.17412 0.71659 0.0
H607 H 0.87389 0.16721 0.58499 0.0
H608 H 0.03578 0.21195 0.76597 0.0
H609 H 0.02399 0.23736 0.80416 0.0
H610 H 0.99974 0.1357 0.67341 0.0
H611 H 0.95766 0.26182 0.68288 0.0
H612 H 0.83564 0.19613 0.58634 0.0
H613 H 0.83935 0.16335 0.56565 0.0
H614 H 0.88432 0.27291 0.66214 0.0
H615 H 0.92494 0.09492 0.65364 0.0
H616 H 0.96185 0.10605 0.64971 0.0
H617 H 0.8528 0.23726 0.62003 0.0
H618 H 0.95688 0.29618 0.70621 0.0
N619 N 0.88971 0.2015 0.62248 0.0
C620 C 0.85083 0.19781 0.59736 0.0
C621 C 0.85287 0.17929 0.58526 0.0
C622 C 0.86849 0.21839 0.62173 0.0
C623 C 0.88796 0.21971 0.63421 0.0
C624 C 0.87257 0.18155 0.59693 0.0
N625 N 0.9245 0.24094 0.66215 0.0
C626 C 0.90588 0.24002 0.65511 0.0
C627 C 0.94242 0.28051 0.69183 0.0
C628 C 0.92334 0.27977 0.68583 0.0
C629 C 0.94277 0.26095 0.67848 0.0
C630 C 0.90481 0.25945 0.66614 0.0
H631 H 0.92313 0.29501 0.69516 0.0
O632 O 0.93848 0.229 0.56156 0.0
O633 O 0.94735 0.19735 0.65677 0.0
O634 O 0.9515 0.21318 0.78572 0.0
O635 O 0.92879 0.22308 0.73673 0.0
O636 O 0.95915 0.22965 0.64027 0.0
O637 O 0.91238 0.19537 0.53224 0.0
O638 O 0.92856 0.15167 0.80039 0.0
O639 O 0.91624 0.18684 0.71441 0.0
O640 O 0.90715 0.17035 0.59645 0.0
O641 O 0.9307 0.16031 0.63635 0.0
O642 O 0.90486 0.15525 0.73803 0.0
O643 O 0.9501 0.18612 0.84223 0.0
C644 C 0.96404 0.21504 0.6518 0.0
C645 C 0.88543 0.25814 0.65486 0.0
C646 C 0.8674 0.23774 0.63159 0.0
C647 C 0.928 0.21295 0.51417 0.0
C648 C 0.94112 0.20924 0.47208 0.0
C649 C 0.95418 0.22607 0.43682 0.0
C650 C 0.94235 0.18995 0.47198 0.0
C651 C 0.9565 0.18742 0.43747 0.0
C652 C 0.96827 0.22363 0.40204 0.0
C653 C 0.96951 0.20445 0.40248 0.0
C654 C 0.94352 0.22636 0.78319 0.0
C655 C 0.89969 0.16934 0.72198 0.0
C656 C 0.93874 0.16545 0.8528 0.0
C657 C 0.9279 0.1607 0.91008 0.0
C658 C 0.92122 0.17438 0.93781 0.0
C659 C 0.92552 0.14246 0.93961 0.0
C660 C 0.91822 0.13863 1.00005 0.0
C661 C 0.91286 0.17013 0.99615 0.0
C662 C 0.91171 0.15272 1.02774 0.0
C663 C 0.91423 0.15638 0.59659 0.0
H664 H 0.95366 0.24121 0.43694 0.0
H665 H 0.93244 0.17689 0.49896 0.0
H666 H 0.97816 0.23658 0.3744 0.0
H667 H 0.98011 0.20257 0.37376 0.0
H668 H 0.92278 0.18843 0.91508 0.0
H669 H 0.93015 0.13173 0.91579 0.0
H670 H 0.90794 0.18086 1.0182 0.0
H671 H 0.90648 0.15101 0.07493 0.0
Gd672 Gd 0.89214 0.6834 0.8557 0.0
Gd673 Gd 0.85226 0.62771 0.78176 0.0
C674 C 0.78405 0.60984 0.78837 0.0
C675 C 0.76942 0.5748 0.83243 0.0
C676 C 0.80678 0.59658 0.82499 0.0
C677 C 0.804 0.61196 0.79573 0.0
C678 C 0.78954 0.57791 0.84452 0.0
C679 C 0.7667 0.59086 0.80496 0.0
C680 C 0.78231 0.62737 0.7679 0.0
C681 C 0.80037 0.64696 0.76001 0.0
N682 N 0.82122 0.63017 0.78102 0.0
C683 C 0.81973 0.64829 0.76867 0.0
H684 H 0.83334 0.66431 0.76852 0.0
C685 C 0.82978 0.58554 0.86723 0.0
N686 N 0.82651 0.60038 0.83693 0.0
C687 C 0.8133 0.56702 0.88831 0.0
C688 C 0.79303 0.56305 0.8764 0.0
H689 H 0.84484 0.58701 0.87194 0.0
H690 H 0.75125 0.5888 0.79869 0.0
H691 H 0.92251 0.65872 0.87163 0.0
H692 H 0.76735 0.62648 0.76208 0.0
H693 H 0.79949 0.6613 0.74882 0.0
H694 H 0.75599 0.56041 0.84617 0.0
H695 H 0.88734 0.72334 0.78992 0.0
H696 H 0.98365 0.70666 0.83949 0.0
H697 H 0.95937 0.67087 0.87554 0.0
H698 H 0.97442 0.76028 0.73796 0.0
H699 H 0.81618 0.55544 0.91199 0.0
H700 H 0.78022 0.54855 0.89216 0.0
H701 H 0.98869 0.73853 0.78193 0.0
H702 H 0.90875 0.75636 0.73717 0.0
N703 N 0.92561 0.68868 0.84226 0.0
C704 C 0.96731 0.70137 0.83764 0.0
C705 C 0.95373 0.68142 0.85938 0.0
C706 C 0.95956 0.71406 0.81254 0.0
C707 C 0.93838 0.70733 0.81574 0.0
C708 C 0.93277 0.67502 0.85967 0.0
N709 N 0.90999 0.71328 0.79545 0.0
C710 C 0.93029 0.71968 0.79078 0.0
C711 C 0.91492 0.74609 0.75142 0.0
C712 C 0.93518 0.75189 0.74163 0.0
C713 C 0.90277 0.72714 0.78054 0.0
C714 C 0.94332 0.73904 0.76291 0.0
H715 H 0.94467 0.76676 0.71977 0.0
O716 O 0.88447 0.70735 0.89763 0.0
O717 O 0.85835 0.65702 0.84602 0.0
O718 O 0.85079 0.64846 0.70542 0.0
O719 O 0.87621 0.68389 0.75771 0.0
O720 O 0.87274 0.67191 0.93899 0.0
O721 O 0.91496 0.71092 0.9246 0.0
O722 O 0.85691 0.5998 0.77036 0.0
O723 O 0.88651 0.6533 0.79545 0.0
O724 O 0.89729 0.66199 0.92071 0.0
O725 O 0.87042 0.62623 0.87472 0.0
O726 O 0.87304 0.63739 0.70235 0.0
O727 O 0.8337 0.60068 0.70339 0.0
C728 C 0.85539 0.65735 0.90465 0.0
C729 C 0.96426 0.74549 0.75919 0.0
C730 C 0.97241 0.73315 0.78444 0.0
C731 C 0.9028 0.71901 0.93288 0.0
C732 C 0.90371 0.72756 0.99969 0.0
C733 C 0.90785 0.74927 1.01403 0.0
C734 C 0.90363 0.71544 0.04988 0.0
C735 C 0.90926 0.72531 0.11475 0.0
C736 C 0.91254 0.75898 0.07831 0.0
C737 C 0.91363 0.74729 0.12839 0.0
C738 C 0.86214 0.67047 0.70768 0.0
C739 C 0.89023 0.65176 0.73777 0.0
C740 C 0.84262 0.58953 0.72028 0.0
C741 C 0.84798 0.57852 0.66932 0.0
C742 C 0.84296 0.5565 0.67172 0.0
C743 C 0.85972 0.59027 0.62209 0.0
C744 C 0.86746 0.58071 0.57929 0.0
C745 C 0.84983 0.5465 0.62743 0.0
C746 C 0.86216 0.55858 0.58146 0.0
C747 C 0.88684 0.64002 0.91893 0.0
H748 H 0.90814 0.75893 0.97554 0.0
H749 H 0.89982 0.69849 1.03753 0.0
H750 H 0.91604 0.77589 0.08925 0.0
H751 H 0.91837 0.75575 0.17732 0.0
H752 H 0.834 0.54717 0.70841 0.0
H753 H 0.86299 0.60695 0.6186 0.0
H754 H 0.84592 0.52951 0.62956 0.0
H755 H 0.86779 0.55081 0.54852 0.0
H756 H 0.08358 0.46447 0.95514 0.0
H757 H 0.08366 0.46447 0.83805 0.0
H758 H 0.04852 0.49768 0.83561 0.0
H759 H 0.04829 0.49749 0.95296 0.0
H760 H 0.03432 0.47129 0.72888 0.0
H761 H 0.10558 0.52285 0.81728 0.0
H762 H 0.13894 0.53485 0.88496 0.0
H763 H 0.14467 0.48427 0.77723 0.0
H764 H 0.11114 0.47172 0.70957 0.0
H765 H 0.0507 0.50088 0.40411 0.0
H766 H 0.05039 0.50057 0.52118 0.0
H767 H 0.0839 0.46561 0.52245 0.0
H768 H 0.08399 0.46566 0.40507 0.0
H769 H 0.09901 0.49292 0.62963 0.0
H770 H 0.02788 0.44118 0.54216 0.0
H771 H 0.99402 0.42825 0.47618 0.0
H772 H 0.98803 0.4789 0.58241 0.0
H773 H 0.02199 0.4923 0.64859 0.0
C774 C 0.07612 0.47216 0.93052 0.0
C775 C 0.06634 0.48142 0.96635 0.0
C776 C 0.07615 0.47217 0.86208 0.0
C777 C 0.06651 0.48157 0.82496 0.0
C778 C 0.0563 0.49033 0.86062 0.0
C779 C 0.05624 0.49029 0.92905 0.0
C780 C 0.06699 0.48221 0.7503 0.0
C781 C 0.04868 0.47639 0.70804 0.0
C782 C 0.0853 0.48829 0.71956 0.0
C783 C 0.10575 0.49622 0.75874 0.0
C784 C 0.11392 0.51424 0.80816 0.0
C785 C 0.13285 0.52113 0.84656 0.0
C786 C 0.14389 0.51029 0.83551 0.0
C787 C 0.13608 0.49262 0.7858 0.0
C788 C 0.11712 0.48562 0.74738 0.0
C789 C 0.05769 0.49267 0.42839 0.0
C790 C 0.0669 0.48281 0.39216 0.0
C791 C 0.05758 0.49255 0.49683 0.0
C792 C 0.06678 0.48267 0.53363 0.0
C793 C 0.07649 0.47336 0.49766 0.0
C794 C 0.07648 0.47336 0.4292 0.0
C795 C 0.06636 0.48206 0.6083 0.0
C796 C 0.08467 0.48788 0.65053 0.0
C797 C 0.04806 0.47599 0.63903 0.0
C798 C 0.02757 0.46787 0.59989 0.0
C799 C 0.01939 0.44963 0.55122 0.0
C800 C 1.00017 0.4422 0.51385 0.0
C801 C 0.98891 0.45278 0.525 0.0
C802 C 0.99679 0.47075 0.57376 0.0
C803 C 0.01602 0.47825 0.61128 0.0
H804 H 0.97406 0.44704 0.49589 0.0
H805 H 0.15851 0.51561 0.86542 0.0
H806 H 0.63299 0.48267 0.8751 0.0
H807 H 0.63401 0.48321 0.75798 0.0
H808 H 0.60636 0.52409 0.75764 0.0
H809 H 0.60544 0.52366 0.87488 0.0
H810 H 0.58921 0.49621 0.65013 0.0
H811 H 0.6608 0.54309 0.73903 0.0
H812 H 0.69508 0.5549 0.80055 0.0
H813 H 0.69772 0.5027 0.69012 0.0
H814 H 0.66331 0.49033 0.62856 0.0
H815 H 0.60532 0.52276 0.32518 0.0
H816 H 0.60574 0.52335 0.4421 0.0
H817 H 0.6383 0.48735 0.44336 0.0
H818 H 0.63909 0.48815 0.32623 0.0
H819 H 0.65274 0.51241 0.55076 0.0
H820 H 0.58056 0.46541 0.4619 0.0
H821 H 0.54797 0.45629 0.39438 0.0
H822 H 0.54695 0.50978 0.50349 0.0
H823 H 0.57973 0.51946 0.57097 0.0
C824 C 0.62712 0.49188 0.85063 0.0
C825 C 0.61916 0.50316 0.88689 0.0
C826 C 0.62783 0.49231 0.78244 0.0
C827 C 0.62047 0.5039 0.74601 0.0
C828 C 0.61226 0.51491 0.78219 0.0
C829 C 0.6118 0.51473 0.85051 0.0
C830 C 0.62114 0.50441 0.67142 0.0
C831 C 0.6033 0.50003 0.62919 0.0
C832 C 0.63912 0.5089 0.64068 0.0
C833 C 0.65936 0.51564 0.67956 0.0
C834 C 0.66856 0.53394 0.7284 0.0
C835 C 0.68805 0.54079 0.76314 0.0
C836 C 0.69859 0.5296 0.74909 0.0
C837 C 0.68955 0.51138 0.70083 0.0
C838 C 0.67005 0.50443 0.66603 0.0
C839 C 0.61285 0.51514 0.3497 0.0
C840 C 0.62211 0.50535 0.31346 0.0
C841 C 0.61276 0.51511 0.41801 0.0
C842 C 0.62152 0.50483 0.45475 0.0
C843 C 0.63113 0.49536 0.4187 0.0
C844 C 0.63141 0.49561 0.35029 0.0
C845 C 0.62078 0.50407 0.52936 0.0
C846 C 0.6386 0.50844 0.57163 0.0
C847 C 0.60278 0.49954 0.56015 0.0
C848 C 0.5827 0.49327 0.52117 0.0
C849 C 0.5734 0.47526 0.47141 0.0
C850 C 0.55491 0.47 0.43308 0.0
C851 C 0.54542 0.48247 0.44455 0.0
C852 C 0.55434 0.50015 0.49461 0.0
C853 C 0.57287 0.50552 0.53294 0.0
H854 H 0.53114 0.47842 0.41471 0.0
H855 H 0.7138 0.53512 0.77538 0.0
H856 H 0.56169 0.01651 0.67475 0.0
H857 H 0.56047 0.01712 0.55816 0.0
H858 H 0.60939 0.08595 0.58892 0.0
H859 H 0.60984 0.08547 0.70622 0.0
H860 H 0.58691 0.08363 0.48877 0.0
H861 H 0.61282 0.03476 0.52776 0.0
H862 H 0.61239 0.00239 0.56801 0.0
H863 H 0.55394 0.95848 0.44843 0.0
H864 H 0.5539 0.9906 0.40804 0.0
H865 H 0.60741 0.08904 0.15669 0.0
H866 H 0.60836 0.08823 0.27322 0.0
H867 H 0.55864 0.01976 0.24153 0.0
H868 H 0.55812 0.02048 0.1241 0.0
H869 H 0.58134 0.02189 0.34179 0.0
H870 H 0.55529 0.07053 0.30292 0.0
H871 H 0.55556 0.10275 0.26218 0.0
H872 H 0.6141 0.14695 0.38096 0.0
H873 H 0.61429 0.11497 0.42191 0.0
C874 C 0.57214 0.0319 0.6576 0.0
C875 C 0.58557 0.05092 0.70293 0.0
C876 C 0.57169 0.03222 0.5892 0.0
C877 C 0.58509 0.05151 0.56118 0.0
C878 C 0.59864 0.07059 0.60646 0.0
C879 C 0.59892 0.07028 0.675 0.0
C880 C 0.58486 0.05193 0.48617 0.0
C881 C 0.586 0.07013 0.45742 0.0
C882 C 0.58315 0.03441 0.44176 0.0
C883 C 0.58326 0.01509 0.46539 0.0
C884 C 0.59983 0.0182 0.5103 0.0
C885 C 0.59967 -0.0001 0.53313 0.0
C886 C 0.58312 0.9784 0.51094 0.0
C887 C 0.56673 0.97514 0.46566 0.0
C888 C 0.5668 0.99339 0.44274 0.0
C889 C 0.59644 0.07378 0.17358 0.0
C890 C 0.58249 0.055 0.12809 0.0
C891 C 0.5969 0.07331 0.24191 0.0
C892 C 0.58322 0.05406 0.2696 0.0
C893 C 0.56947 0.03512 0.22414 0.0
C894 C 0.56911 0.03558 0.15566 0.0
C895 C 0.58341 0.05359 0.34452 0.0
C896 C 0.58226 0.03539 0.3732 0.0
C897 C 0.58509 0.07109 0.38886 0.0
C898 C 0.5849 0.09035 0.36501 0.0
C899 C 0.56827 0.08712 0.32012 0.0
C900 C 0.56834 0.10534 0.297 0.0
C901 C 0.58487 0.12688 0.31882 0.0
C902 C 0.60132 0.13025 0.36403 0.0
C903 C 0.60134 0.11209 0.38727 0.0
H904 H 0.58491 0.14096 0.30081 0.0
H905 H 0.58301 0.96426 0.52872 0.0
H906 H 0.74278 0.88645 0.52363 0.0
H907 H 0.74288 0.8859 0.64072 0.0
H908 H 0.80639 0.89997 0.66015 0.0
H909 H 0.80585 0.89937 0.54257 0.0
H910 H 0.79257 0.87686 0.74695 0.0
H911 H 0.78543 0.93906 0.71111 0.0
H912 H 0.77026 0.95969 0.66301 0.0
H913 H 0.71188 0.91709 0.73172 0.0
H914 H 0.72663 0.89603 0.77957 0.0
H915 H 0.80948 0.90606 0.09749 0.0
H916 H 0.80964 0.90637 0.98001 0.0
H917 H 0.74314 0.87962 0.95445 0.0
H918 H 0.7429 0.87871 0.07132 0.0
H919 H 0.759 0.90974 0.87255 0.0
H920 H 0.76872 0.84867 0.91215 0.0
H921 H 0.78646 0.83128 0.96529 0.0
H922 H 0.84347 0.87602 0.89321 0.0
H923 H 0.82613 0.89389 0.84037 0.0
C924 C 0.7569 0.88957 0.55246 0.0
C925 C 0.77435 0.89311 0.52125 0.0
C926 C 0.75706 0.88947 0.62099 0.0
C927 C 0.77486 0.89346 0.66313 0.0
C928 C 0.79223 0.89684 0.63156 0.0
C929 C 0.79196 0.8966 0.56296 0.0
C930 C 0.77537 0.89384 0.73853 0.0
C931 C 0.78539 0.88443 0.77365 0.0
C932 C 0.76601 0.90327 0.77702 0.0
C933 C 0.75706 0.91582 0.74827 0.0
C934 C 0.76931 0.934 0.71557 0.0
C935 C 0.7608 0.94578 0.68841 0.0
C936 C 0.7401 0.93966 0.69414 0.0
C937 C 0.7279 0.92178 0.72721 0.0
C938 C 0.73633 0.90992 0.75439 0.0
C939 C 0.79476 0.89997 0.06729 0.0
C940 C 0.77618 0.8924 0.09654 0.0
C941 C 0.79484 0.90017 0.99881 0.0
C942 C 0.77635 0.89286 0.95527 0.0
C943 C 0.75785 0.88553 0.98466 0.0
C944 C 0.75774 0.88511 0.05291 0.0
C945 C 0.77613 0.89279 0.88033 0.0
C946 C 0.76616 0.90221 0.84547 0.0
C947 C 0.78588 0.88377 0.84235 0.0
C948 C 0.79618 0.87274 0.8728 0.0
C949 C 0.78506 0.85486 0.90789 0.0
C950 C 0.79504 0.84492 0.93796 0.0
C951 C 0.81609 0.85258 0.93278 0.0
C952 C 0.82717 0.87013 0.89726 0.0
C953 C 0.81727 0.88016 0.86719 0.0
H954 H 0.8238 0.84489 0.95618 0.0
H955 H 0.73354 0.9488 0.67309 0.0
H956 H 0.19853 0.83404 0.63198 0.0
H957 H 0.20022 0.83406 0.74966 0.0
H958 H 0.18494 0.76612 0.72586 0.0
H959 H 0.18324 0.76625 0.60734 0.0
H960 H 0.20779 0.78114 0.84037 0.0
H961 H 0.19188 0.85204 0.89889 0.0
H962 H 0.17349 0.86922 0.84833 0.0
H963 H 0.13222 0.80814 0.72465 0.0
H964 H 0.15019 0.79054 0.775 0.0
H965 H 0.18883 0.76489 0.17554 0.0
H966 H 0.18693 0.7649 0.05812 0.0
H967 H 0.1977 0.8312 0.08148 0.0
H968 H 0.19939 0.83095 0.20004 0.0
H969 H 0.17707 0.81714 0.9668 0.0
H970 H 0.19317 0.74618 0.91555 0.0
H971 H 0.21372 0.73098 0.96434 0.0
H972 H 0.25727 0.79499 0.07059 0.0
H973 H 0.23672 0.81036 1.02377 0.0
C974 C 0.19609 0.81909 0.6509 0.0
C975 C 0.192 0.80063 0.60567 0.0
C976 C 0.19663 0.81892 0.72054 0.0
C977 C 0.19245 0.79997 0.75239 0.0
C978 C 0.18843 0.78144 0.70724 0.0
C979 C 0.18776 0.78159 0.63723 0.0
C980 C 0.19204 0.79947 0.83003 0.0
C981 C 0.20065 0.78886 0.86662 0.0
C982 C 0.18351 0.8097 0.87039 0.0
C983 C 0.17254 0.82008 0.84023 0.0
C984 C 0.17884 0.84227 0.86103 0.0
C985 C 0.1685 0.85208 0.8324 0.0
C986 C 0.15175 0.83981 0.78315 0.0
C987 C 0.14525 0.81766 0.76262 0.0
C988 C 0.15552 0.80777 0.79116 0.0
C989 C 0.19023 0.77947 0.1566 0.0
C990 C 0.19304 0.79735 0.20182 0.0
C991 C 0.18964 0.77971 0.08701 0.0
C992 C 0.19252 0.79823 0.05497 0.0
C993 C 0.19526 0.81621 0.10011 0.0
C994 C 0.19596 0.81598 0.17019 0.0
C995 C 0.19281 0.79878 0.97719 0.0
C996 C 0.18416 0.80937 0.94054 0.0
C997 C 0.20144 0.78871 0.93673 0.0
C998 C 0.2133 0.77931 0.96679 0.0
C999 C 0.20705 0.75692 0.94974 0.0
C1000 C 0.21865 0.74826 0.97727 0.0
C1001 C 0.23668 0.76195 1.02112 0.0
C1002 C 0.24313 0.7843 1.03755 0.0
C1003 C 0.23146 0.79297 1.0108 0.0
H1004 H 0.24572 0.75527 1.04208 0.0
H1005 H 0.14377 0.84744 0.76101 0.0
H1006 H 0.2909 0.34042 0.65198 0.0
H1007 H 0.29121 0.33935 0.76895 0.0
H1008 H 0.2487 0.26864 0.73569 0.0
H1009 H 0.24843 0.26975 0.61843 0.0
H1010 H 0.23737 0.28186 0.83552 0.0
H1011 H 0.30557 0.29755 0.80011 0.0
H1012 H 0.33988 0.31766 0.76067 0.0
H1013 H 0.35455 0.37737 0.8795 0.0
H1014 H 0.32017 0.35768 0.91903 0.0
H1015 H 0.25009 0.26491 0.17119 0.0
H1016 H 0.24977 0.26538 0.0539 0.0
H1017 H 0.29245 0.33608 0.08437 0.0
H1018 H 0.29283 0.33558 0.20175 0.0
H1019 H 0.30362 0.32247 0.9857 0.0
H1020 H 0.23488 0.30611 1.02105 0.0
H1021 H 0.20073 0.2853 0.06107 0.0
H1022 H 0.18719 0.226 0.94228 0.0
H1023 H 0.22141 0.2464 0.90224 0.0
C1024 C 0.28179 0.32449 0.66885 0.0
C1025 C 0.26996 0.30519 0.62294 0.0
C1026 C 0.28196 0.32384 0.73727 0.0
C1027 C 0.27029 0.30379 0.76466 0.0
C1028 C 0.25808 0.28454 0.71868 0.0
C1029 C 0.25798 0.2852 0.65021 0.0
C1030 C 0.27074 0.30291 0.83973 0.0
C1031 C 0.25204 0.29061 0.86761 0.0
C1032 C 0.28947 0.31436 0.88505 0.0
C1033 C 0.31022 0.3262 0.86202 0.0
C1034 C 0.31606 0.31501 0.81754 0.0
C1035 C 0.33552 0.32632 0.79519 0.0
C1036 C 0.34936 0.3488 0.81742 0.0
C1037 C 0.34379 0.35998 0.86224 0.0
C1038 C 0.32433 0.34874 0.88468 0.0
C1039 C 0.25929 0.28071 0.15357 0.0
C1040 C 0.27123 0.30022 0.19871 0.0
C1041 C 0.25909 0.28101 0.08499 0.0
C1042 C 0.27075 0.30088 0.05675 0.0
C1043 C 0.28306 0.3203 0.10203 0.0
C1044 C 0.28323 0.32 0.17058 0.0
C1045 C 0.27025 0.3015 0.98155 0.0
C1046 C 0.28895 0.31375 0.95363 0.0
C1047 C 0.25151 0.28994 0.9362 0.0
C1048 C 0.23079 0.27773 0.95914 0.0
C1049 C 0.22466 0.28861 1.0037 0.0
C1050 C 0.20529 0.27688 1.0264 0.0
C1051 C 0.19182 0.25432 1.00438 0.0
C1052 C 0.19766 0.24347 0.95938 0.0
C1053 C 0.21703 0.25511 0.93664 0.0
H1054 H 0.17685 0.24527 1.02208 0.0
H1055 H 0.36441 0.35753 0.80003 0.0
H1056 H 0.43034 0.15473 0.26862 0.0
H1057 H 0.45065 0.17825 0.19337 0.0
H1058 H 0.50635 0.18221 0.28747 0.0
H1059 H 0.48525 0.15739 0.36273 0.0
H1060 H 0.48292 0.21371 0.15888 0.0
H1061 H 0.53336 0.19182 0.18284 0.0
H1062 H 0.55188 0.17503 0.23528 0.0
H1063 H 0.49463 0.11182 0.21088 0.0
H1064 H 0.47581 0.12826 0.15847 0.0
H1065 H 0.41658 0.13891 0.86808 0.0
H1066 H 0.45027 0.16777 0.92456 0.0
H1067 H 0.43889 0.13138 0.0892 0.0
H1068 H 0.40469 0.10294 1.03435 0.0
H1069 H 0.47964 0.14684 0.05145 0.0
H1070 H 0.42843 0.17382 0.06251 0.0
H1071 H 0.40982 0.19062 1.01132 0.0
H1072 H 0.46819 0.24523 0.97329 0.0
H1073 H 0.48712 0.22864 1.02415 0.0
C1074 C 0.44703 0.16113 0.27491 0.0
C1075 C 0.45604 0.15358 0.32015 0.0
C1076 C 0.45891 0.1749 0.23164 0.0
C1077 C 0.48019 0.18154 0.23223 0.0
C1078 C 0.48987 0.17661 0.2836 0.0
C1079 C 0.4778 0.16241 0.32669 0.0
C1080 C 0.48943 0.18753 0.17064 0.0
C1081 C 0.48309 0.19971 0.13417 0.0
C1082 C 0.49215 0.17137 0.13571 0.0
C1083 C 0.50325 0.16126 0.16669 0.0
C1084 C 0.52477 0.17434 0.18861 0.0
C1085 C 0.5353 0.16489 0.21836 0.0
C1086 C 0.52444 0.14237 0.22634 0.0
C1087 C 0.50303 0.12924 0.20452 0.0
C1088 C 0.49244 0.13859 0.17463 0.0
C1089 C 0.42109 0.13701 0.91643 0.0
C1090 C 0.40775 0.1184 0.94646 0.0
C1091 C 0.44066 0.15348 0.94825 0.0
C1092 C 0.4474 0.1515 1.01043 0.0
C1093 C 0.43419 0.13298 1.04045 0.0
C1094 C 0.41459 0.11668 1.00901 0.0
C1095 C 0.46748 0.16882 0.04795 0.0
C1096 C 0.48064 0.16176 0.07436 0.0
C1097 C 0.47062 0.1896 0.07398 0.0
C1098 C 0.45911 0.1996 1.04491 0.0
C1099 C 0.43727 0.18924 1.0424 0.0
C1100 C 0.42666 0.19878 1.01374 0.0
C1101 C 0.43778 0.21886 0.98837 0.0
C1102 C 0.45957 0.22962 0.99259 0.0
C1103 C 0.47023 0.22015 1.02136 0.0
H1104 H 0.42954 0.22616 0.96588 0.0
H1105 H 0.53262 0.1351 0.24946 0.0
H1106 H 0.92246 0.14579 0.41135 0.0
H1107 H 0.92222 0.11304 0.36707 0.0
H1108 H 0.98957 0.14741 0.4118 0.0
H1109 H 0.98981 0.18107 0.4507 0.0
H1110 H 0.98389 0.14291 0.29813 0.0
H1111 H 0.95485 0.08806 0.41921 0.0
H1112 H 0.93586 0.06049 0.49167 0.0
H1113 H 0.87927 0.03308 0.35995 0.0
H1114 H 0.89709 0.06147 0.2896 0.0
H1115 H 0.94535 0.12264 0.9903 0.0
H1116 H 0.95434 0.1044 0.06889 0.0
H1117 H 0.90608 0.10031 0.17778 0.0
H1118 H 0.89494 0.11597 0.09486 0.0
H1119 H 0.919 0.07185 0.21532 0.0
H1120 H 0.95554 0.15396 0.18135 0.0
H1121 H 0.97491 0.18284 0.11187 0.0
H1122 H 0.0166 0.15821 0.08941 0.0
H1123 H 0.9973 0.12909 0.15844 0.0
C1124 C 0.93718 0.14615 0.41388 0.0
C1125 C 0.95622 0.16616 0.43225 0.0
C1126 C 0.93706 0.12711 0.38938 0.0
C1127 C 0.95603 0.12783 0.38298 0.0
C1128 C 0.97474 0.14655 0.41391 0.0
C1129 C 0.97493 0.1659 0.43599 0.0
C1130 C 0.95666 0.11448 0.3253 0.0
C1131 C 0.97001 0.12688 0.28134 0.0
C1132 C 0.93946 0.09295 0.30213 0.0
C1133 C 0.92766 0.07694 0.34776 0.0
C1134 C 0.93823 0.07652 0.40605 0.0
C1135 C 0.92756 0.06076 0.44725 0.0
C1136 C 0.90634 0.04503 0.43045 0.0
C1137 C 0.89563 0.04538 0.3733 0.0
C1138 C 0.90604 0.06141 0.33271 0.0
C1139 C 0.93562 0.11681 1.02841 0.0
C1140 C 0.91995 0.12206 1.03735 0.0
C1141 C 0.94098 0.10631 0.0739 0.0
C1142 C 0.93166 0.10208 0.13085 0.0
C1143 C 0.91392 0.10395 0.13489 0.0
C1144 C 0.90793 0.1136 0.08808 0.0
C1145 C 0.94353 0.10271 0.19201 0.0
C1146 C 0.93308 0.08734 0.23474 0.0
C1147 C 0.9632 0.12183 0.21512 0.0
C1148 C 0.97494 0.13933 0.17425 0.0
C1149 C 0.96886 0.15477 0.1615 0.0
C1150 C 0.97978 0.17112 0.12219 0.0
C1151 C 0.99695 0.17232 0.09612 0.0
C1152 C 0.00326 0.15721 0.10949 0.0
C1153 C 0.99234 0.14077 0.14862 0.0
H1154 H 0.00539 0.18499 0.06568 0.0
H1155 H 0.8982 0.03244 0.46137 0.0
H1156 H 0.86485 0.56907 0.44953 0.0
H1157 H 0.88099 0.59493 0.37033 0.0
H1158 H 0.91519 0.64886 0.52525 0.0
H1159 H 0.8999 0.62307 0.60419 0.0
H1160 H 0.87547 0.64028 0.4178 0.0
H1161 H 0.94477 0.65053 0.46676 0.0
H1162 H 0.97116 0.63939 0.47251 0.0
H1163 H 0.95684 0.61818 0.26782 0.0
H1164 H 0.92999 0.62875 0.26118 0.0
H1165 H 0.9036 0.72945 0.24309 0.0
H1166 H 0.90454 0.70726 0.3254 0.0
H1167 H 0.91686 0.66838 0.18576 0.0
H1168 H 0.91971 0.69282 0.10687 0.0
H1169 H 0.93405 0.66815 0.2862 0.0
H1170 H 0.86439 0.6534 0.23295 0.0
H1171 H 0.83629 0.66202 0.21751 0.0
H1172 H 0.84823 0.68754 0.41881 0.0
H1173 H 0.87653 0.67927 0.43529 0.0
C1174 C 0.87658 0.58622 0.46663 0.0
C1175 C 0.88088 0.59428 0.53276 0.0
C1176 C 0.88579 0.60093 0.4215 0.0
C1177 C 0.89933 0.62366 0.44239 0.0
C1178 C 0.90506 0.6313 0.50853 0.0
C1179 C 0.89613 0.61663 0.55341 0.0
C1180 C 0.90302 0.63981 0.3969 0.0
C1181 C 0.8885 0.64679 0.38968 0.0
C1182 C 0.91956 0.64741 0.35909 0.0
C1183 C 0.93508 0.64012 0.36374 0.0
C1184 C 0.94692 0.6431 0.42321 0.0
C1185 C 0.96205 0.63694 0.42658 0.0
C1186 C 0.96555 0.62785 0.37066 0.0
C1187 C 0.95398 0.62499 0.31125 0.0
C1188 C 0.93881 0.63108 0.30768 0.0
C1189 C 0.90714 0.71666 0.23004 0.0
C1190 C 0.91086 0.71264 0.16692 0.0
C1191 C 0.90717 0.70356 0.27707 0.0
C1192 C 0.90969 0.68535 0.26114 0.0
C1193 C 0.91444 0.682 0.19932 0.0
C1194 C 0.91553 0.69579 0.15339 0.0
C1195 C 0.90688 0.66947 0.308 0.0
C1196 C 0.92127 0.66219 0.31505 0.0
C1197 C 0.88991 0.66114 0.34484 0.0
C1198 C 0.87272 0.66592 0.33518 0.0
C1199 C 0.86108 0.66095 0.27383 0.0
C1200 C 0.84512 0.66578 0.26489 0.0
C1201 C 0.84053 0.67543 0.31705 0.0
C1202 C 0.85182 0.68014 0.37837 0.0
C1203 C 0.86781 0.67535 0.38756 0.0
H1204 H 0.82819 0.67921 0.31 0.0
H1205 H 0.9773 0.62314 0.37329 0.0
H1206 H 0.24703 0.34401 0.47104 0.0
H1207 H 0.23211 0.36825 0.46038 0.0
H1208 H 0.22309 0.35294 0.2528 0.0
H1209 H 0.23749 0.32876 0.26337 0.0
H1210 H 0.23909 0.39798 0.29236 0.0
H1211 H 0.18366 0.32605 0.33655 0.0
H1212 H 0.1677 0.29556 0.40355 0.0
H1213 H 0.17019 0.34084 0.55807 0.0
H1214 H 0.18653 0.37169 0.49235 0.0
H1215 H 0.16752 0.42451 0.15714 0.0
H1216 H 0.18367 0.40347 0.19177 0.0
H1217 H 0.17604 0.41646 0.38956 0.0
H1218 H 0.15907 0.43694 0.35411 0.0
H1219 H 0.17127 0.37643 0.37176 0.0
H1220 H 0.2236 0.44762 0.32855 0.0
H1221 H 0.24074 0.4793 0.26638 0.0
H1222 H 0.24618 0.43776 0.1178 0.0
H1223 H 0.22876 0.40572 0.17859 0.0
C1224 C 0.24229 0.3463 0.4233 0.0
C1225 C 0.24385 0.33487 0.36794 0.0
C1226 C 0.23357 0.35995 0.41716 0.0
C1227 C 0.22636 0.36243 0.35562 0.0
C1228 C 0.22856 0.35147 0.30072 0.0
C1229 C 0.23684 0.33766 0.30684 0.0
C1230 C 0.2157 0.37553 0.34684 0.0
C1231 C 0.22423 0.3932 0.30956 0.0
C1232 C 0.19658 0.36983 0.37076 0.0
C1233 C 0.18655 0.35123 0.40985 0.0
C1234 C 0.18097 0.32954 0.38502 0.0
C1235 C 0.17183 0.31218 0.42274 0.0
C1236 C 0.16798 0.31627 0.48511 0.0
C1237 C 0.17322 0.33771 0.5098 0.0
C1238 C 0.18242 0.35513 0.47236 0.0
C1239 C 0.16882 0.42241 0.20781 0.0
C1240 C 0.16188 0.43227 0.25278 0.0
C1241 C 0.17832 0.41059 0.22785 0.0
C1242 C 0.18174 0.40878 0.29378 0.0
C1243 C 0.1738 0.41764 0.3385 0.0
C1244 C 0.16398 0.42927 0.31821 0.0
C1245 C 0.19437 0.39856 0.31548 0.0
C1246 C 0.18625 0.38145 0.35515 0.0
C1247 C 0.21407 0.40495 0.29447 0.0
C1248 C 0.22472 0.42422 0.25794 0.0
C1249 C 0.22833 0.4452 0.28243 0.0
C1250 C 0.2381 0.46323 0.24744 0.0
C1251 C 0.24451 0.46053 0.18812 0.0
C1252 C 0.2412 0.43982 0.16373 0.0
C1253 C 0.23139 0.42172 0.19846 0.0
H1254 H 0.25207 0.47451 0.1611 0.0
H1255 H 0.16091 0.30284 0.5143 0.0
H1256 H 0.62394 0.65213 1.04376 0.0
H1257 H 0.6466 0.69214 0.07574 0.0
H1258 H 0.68154 0.68016 0.22519 0.0
H1259 H 0.65864 0.63993 0.19378 0.0
H1260 H 0.67092 0.71036 0.26992 0.0
H1261 H 0.7031 0.69998 0.09283 0.0
H1262 H 0.70449 0.68691 0.98173 0.0
H1263 H 0.68153 0.72687 0.90562 0.0
H1264 H 0.67971 0.73996 1.01628 0.0
H1265 H 0.75168 0.82427 0.34588 0.0
H1266 H 0.72861 0.78411 0.32269 0.0
H1267 H 0.70181 0.7923 0.14348 0.0
H1268 H 0.72666 0.83241 0.16415 0.0
H1269 H 0.70927 0.76291 0.11644 0.0
H1270 H 0.67096 0.76755 0.29279 0.0
H1271 H 0.66741 0.77842 0.40429 0.0
H1272 H 0.70138 0.74896 0.48071 0.0
H1273 H 0.70477 0.73763 0.36987 0.0
C1274 C 0.63647 0.658 0.08339 0.0
C1275 C 0.63946 0.64286 0.11638 0.0
C1276 C 0.6495 0.68089 0.10132 0.0
C1277 C 0.66585 0.68918 0.15264 0.0
C1278 C 0.66904 0.67413 0.18537 0.0
C1279 C 0.65606 0.65118 0.1671 0.0
C1280 C 0.67908 0.71354 0.1732 0.0
C1281 C 0.67952 0.72189 0.23662 0.0
C1282 C 0.68997 0.72859 0.12951 0.0
C1283 C 0.69109 0.72079 0.06286 0.0
C1284 C 0.69818 0.70584 0.05239 0.0
C1285 C 0.69908 0.69846 0.98949 0.0
C1286 C 0.69305 0.70601 0.93664 0.0
C1287 C 0.68617 0.72101 0.9466 0.0
C1288 C 0.68522 0.72844 1.00941 0.0
C1289 C 0.74039 0.81744 0.30251 0.0
C1290 C 0.74043 0.83139 0.25767 0.0
C1291 C 0.72701 0.7944 0.28935 0.0
C1292 C 0.71294 0.7848 0.23173 0.0
C1293 C 0.71242 0.79904 0.18831 0.0
C1294 C 0.7264 0.82202 0.20039 0.0
C1295 C 0.70061 0.7601 0.21305 0.0
C1296 C 0.70052 0.75156 0.14989 0.0
C1297 C 0.68995 0.74486 0.25695 0.0
C1298 C 0.6884 0.75213 0.32339 0.0
C1299 C 0.67783 0.76364 0.33356 0.0
C1300 C 0.67575 0.76975 0.39649 0.0
C1301 C 0.68434 0.76459 0.44947 0.0
C1302 C 0.69481 0.75305 0.43966 0.0
C1303 C 0.69671 0.74667 0.37684 0.0
H1304 H 0.68278 0.76941 0.49811 0.0
H1305 H 0.69376 0.70027 0.88798 0.0
H1306 H 0.47091 0.95539 0.06693 0.0
H1307 H 0.44487 0.93828 0.1408 0.0
H1308 H 0.40177 0.9491 1.02193 0.0
H1309 H 0.42805 0.96721 0.94988 0.0
H1310 H 0.39763 0.95495 0.14509 0.0
H1311 H 0.40075 0.89892 1.00621 0.0
H1312 H 0.418 0.8803 0.95848 0.0
H1313 H 0.43507 0.86945 0.14749 0.0
H1314 H 0.41812 0.88828 0.1964 0.0
H1315 H 0.29732 0.86122 0.16565 0.0
H1316 H 0.33057 0.8908 0.13785 0.0
H1317 H 0.36395 0.88071 0.29688 0.0
H1318 H 0.33053 0.85138 0.32575 0.0
H1319 H 0.37642 0.87713 0.17296 0.0
H1320 H 0.36712 0.92782 0.30834 0.0
H1321 H 0.34841 0.94531 0.35232 0.0
H1322 H 0.34122 0.96494 0.16671 0.0
H1323 H 0.35964 0.9473 0.12132 0.0
C1324 C 0.45607 0.95459 0.05725 0.0
C1325 C 0.45149 0.96239 1.00178 0.0
C1326 C 0.44111 0.94461 0.09928 0.0
C1327 C 0.42116 0.94197 0.08629 0.0
C1328 C 0.41696 0.95079 1.03288 0.0
C1329 C 0.43195 0.96091 0.9912 0.0
C1330 C 0.40413 0.92868 0.12516 0.0
C1331 C 0.39295 0.93791 0.15102 0.0
C1332 C 0.39827 0.90659 0.13433 0.0
C1333 C 0.40841 0.89524 0.105 0.0
C1334 C 0.40832 0.8927 1.03761 0.0
C1335 C 0.41802 0.8821 1.01034 0.0
C1336 C 0.42769 0.87376 0.04994 0.0
C1337 C 0.42762 0.87596 0.11689 0.0
C1338 C 0.41797 0.8866 0.14441 0.0
C1339 C 0.31175 0.86576 0.19559 0.0
C1340 C 0.31148 0.85419 0.24789 0.0
C1341 C 0.3307 0.88265 0.17983 0.0
C1342 C 0.34971 0.88798 0.21545 0.0
C1343 C 0.34943 0.87691 0.26908 0.0
C1344 C 0.3304 0.86028 0.28565 0.0
C1345 C 0.36972 0.90326 0.19179 0.0
C1346 C 0.38138 0.89433 0.16835 0.0
C1347 C 0.37582 0.92549 0.18435 0.0
C1348 C 0.36464 0.93607 0.21127 0.0
C1349 C 0.36139 0.93568 0.2767 0.0
C1350 C 0.35087 0.94567 0.30195 0.0
C1351 C 0.3436 0.95619 0.26231 0.0
C1352 C 0.34686 0.95678 0.19736 0.0
C1353 C 0.35736 0.94681 0.17187 0.0
H1354 H 0.33548 0.96392 0.28196 0.0
H1355 H 0.43518 0.86555 1.02875 0.0
H1356 H 0.54718 0.08091 0.9575 0.0
H1357 H 0.52423 0.09639 0.93977 0.0
H1358 H 0.52244 0.08448 0.7337 0.0
H1359 H 0.54455 0.06836 0.7512 0.0
H1360 H 0.52625 0.12864 0.78869 0.0
H1361 H 0.48411 0.04702 0.77956 0.0
H1362 H 0.4734 0.01235 0.82672 0.0
H1363 H 0.45945 0.03847 0.99527 0.0
H1364 H 0.4701 0.07342 0.94869 0.0
H1365 H 0.44154 0.14068 0.67014 0.0
H1366 H 0.46768 0.13041 0.68655 0.0
H1367 H 0.43601 0.09406 0.84074 0.0
H1368 H 0.40605 0.09704 0.80291 0.0
H1369 H 0.45287 0.07661 0.82014 0.0
H1370 H 0.49047 0.15813 0.82484 0.0
H1371 H 0.49804 0.19092 0.7697 0.0
H1372 H 0.52346 0.16969 0.62279 0.0
H1373 H 0.51484 0.13612 0.67418 0.0
C1374 C 0.54241 0.08226 0.9086 0.0
C1375 C 0.54817 0.07397 0.85573 0.0
C1376 C 0.52918 0.09099 0.89842 0.0
C1377 C 0.52166 0.09179 0.83525 0.0
C1378 C 0.52816 0.08435 0.78279 0.0
C1379 C 0.54086 0.07515 0.79289 0.0
C1380 C 0.50526 0.09796 0.82283 0.0
C1381 C 0.51018 0.11755 0.79634 0.0
C1382 C 0.48437 0.08369 0.83309 0.0
C1383 C 0.47808 0.06282 0.86105 0.0
C1384 C 0.47892 0.04541 0.82689 0.0
C1385 C 0.47283 0.0257 0.85352 0.0
C1386 C 0.46587 0.02321 0.91423 0.0
C1387 C 0.4649 0.04043 0.94834 0.0
C1388 C 0.47091 0.06017 0.9218 0.0
C1389 C 0.43936 0.1288 0.7028 0.0
C1390 C 0.42065 0.11773 0.72919 0.0
C1391 C 0.4554 0.12425 0.71682 0.0
C1392 C 0.4553 0.1121 0.76799 0.0
C1393 C 0.43715 0.10296 0.79968 0.0
C1394 C 0.4199 0.10505 0.77897 0.0
C1395 C 0.47338 0.10839 0.78797 0.0
C1396 C 0.46886 0.08878 0.81496 0.0
C1397 C 0.49484 0.12325 0.78006 0.0
C1398 C 0.50204 0.14462 0.75356 0.0
C1399 C 0.49795 0.16064 0.78132 0.0
C1400 C 0.50223 0.17924 0.75037 0.0
C1401 C 0.5115 0.18254 0.69353 0.0
C1402 C 0.51639 0.16718 0.66708 0.0
C1403 C 0.51167 0.14828 0.69676 0.0
H1404 H 0.51475 0.19693 0.66974 0.0
H1405 H 0.4611 0.00794 0.93477 0.0
H1406 H 0.98108 0.24753 0.86352 0.0
H1407 H 0.99738 0.28362 0.92983 0.0
H1408 H 0.94216 0.28728 0.87963 0.0
H1409 H 0.92605 0.25153 0.8118 0.0
H1410 H 0.97418 0.32471 0.86703 0.0
H1411 H 0.95668 0.27778 1.03497 0.0
H1412 H 0.95602 0.24862 0.09552 0.0
H1413 H 0.02309 0.28599 0.13501 0.0
H1414 H 0.02418 0.31523 0.07385 0.0
H1415 H 0.01948 0.40358 0.20457 0.0
H1416 H 0.99895 0.36708 0.1394 0.0
H1417 H 0.02874 0.39591 0.97405 0.0
H1418 H 0.04729 0.4325 1.03734 0.0
H1419 H 0.00862 0.34164 0.09288 0.0
H1420 H 0.01441 0.37363 0.85777 0.0
H1421 H 0.00864 0.39853 0.79268 0.0
H1422 H 0.95538 0.38555 0.88801 0.0
H1423 H 0.96123 0.36098 0.95449 0.0
C1424 C 0.97228 0.25585 0.867 0.0
C1425 C 0.95232 0.24664 0.83135 0.0
C1426 C 0.98163 0.27656 0.90536 0.0
C1427 C 0.97107 0.28836 0.91016 0.0
C1428 C 0.95079 0.27873 0.8766 0.0
C1429 C 0.94154 0.25816 0.83787 0.0
C1430 C 0.98139 0.31112 0.94745 0.0
C1431 C 0.98162 0.32833 0.91662 0.0
C1432 C 0.99111 0.3161 1.01223 0.0
C1433 C 0.99052 0.2986 0.0493 0.0
C1434 C 0.9713 0.27971 0.05616 0.0
C1435 C 0.97084 0.26317 0.09065 0.0
C1436 C 0.9895 0.26542 0.11896 0.0
C1437 C 0.00865 0.28425 0.11298 0.0
C1438 C 0.0092 0.30082 0.07844 0.0
C1439 C 0.02098 0.40213 0.15357 0.0
C1440 C 0.03438 0.42103 0.12554 0.0
C1441 C 0.00938 0.38119 0.1162 0.0
C1442 C 0.01164 0.37835 0.05038 0.0
C1443 C 0.02547 0.39734 1.02296 0.0
C1444 C 0.03641 0.41842 0.05971 0.0
C1445 C 1.00107 0.35538 1.01308 0.0
C1446 C 1.00103 0.33808 1.04359 0.0
C1447 C 0.99108 0.35013 0.94834 0.0
C1448 C 0.98875 0.36631 0.91275 0.0
C1449 C 1.00173 0.37648 0.86556 0.0
C1450 C 0.99843 0.39046 0.82837 0.0
C1451 C 0.98178 0.3938 0.83666 0.0
C1452 C 0.9684 0.38314 0.88209 0.0
C1453 C 0.97187 0.36943 0.92011 0.0
H1454 H 0.97915 0.40452 0.80759 0.0
H1455 H 0.98912 0.25261 0.14565 0.0
H1456 H 0.8218 0.66284 0.8969 0.0
H1457 H 0.78855 0.6408 0.93914 0.0
H1458 H 0.81214 0.60235 1.02485 0.0
H1459 H 0.84512 0.62392 0.97977 0.0
H1460 H 0.77433 0.57543 0.96931 0.0
H1461 H 0.8052 0.64201 0.1168 0.0
H1462 H 0.82289 0.68257 0.14754 0.0
H1463 H 0.77009 0.68301 0.05227 0.0
H1464 H 0.75216 0.64251 1.02033 0.0
H1465 H 0.69013 0.54631 0.19519 0.0
H1466 H 0.72542 0.56671 0.16257 0.0
H1467 H 0.69834 0.55835 0.96555 0.0
H1468 H 0.66315 0.53808 0.998 0.0
H1469 H 0.73917 0.60797 0.08768 0.0
H1470 H 0.71832 0.54574 0.90144 0.0
H1471 H 0.70524 0.50684 0.8561 0.0
H1472 H 0.74065 0.50007 1.01538 0.0
H1473 H 0.75374 0.53883 0.06169 0.0
C1474 C 0.81965 0.64933 0.92348 0.0
C1475 C 0.8355 0.64418 0.93179 0.0
C1476 C 0.8008 0.63703 0.949 0.0
C1477 C 0.79766 0.61982 0.9857 0.0
C1478 C 0.81398 0.61538 0.99646 0.0
C1479 C 0.83282 0.62766 0.97059 0.0
C1480 C 0.77706 0.60585 1.01003 0.0
C1481 C 0.7667 0.58271 0.99465 0.0
C1482 C 0.76698 0.61504 1.04463 0.0
C1483 C 0.77741 0.63925 0.06573 0.0
C1484 C 0.79738 0.65077 0.10227 0.0
C1485 C 0.80745 0.67374 0.11992 0.0
C1486 C 0.79765 0.68535 0.1016 0.0
C1487 C 0.77767 0.67399 0.0663 0.0
C1488 C 0.76753 0.65102 0.04852 0.0
C1489 C 0.69175 0.54855 0.14479 0.0
C1490 C 0.67385 0.54006 0.09895 0.0
C1491 C 0.71191 0.56017 0.12612 0.0
C1492 C 0.71463 0.56368 0.06124 0.0
C1493 C 0.69674 0.55538 1.01548 0.0
C1494 C 0.6766 0.54383 1.03415 0.0
C1495 C 0.73607 0.57775 1.04275 0.0
C1496 C 0.74673 0.60089 0.06077 0.0
C1497 C 0.74632 0.5687 1.00888 0.0
C1498 C 0.73639 0.54481 0.98601 0.0
C1499 C 0.72289 0.53574 0.92741 0.0
C1500 C 0.7157 0.51385 0.90113 0.0
C1501 C 0.72208 0.50099 0.93288 0.0
C1502 C 0.73564 0.51 0.99098 0.0
C1503 C 0.74288 0.53188 1.01738 0.0
H1504 H 0.71652 0.48407 0.91248 0.0
H1505 H 0.80558 0.70315 0.11454 0.0
H1506 H 0.92634 0.66044 0.98751 0.0
H1507 H 0.9435 0.64263 1.03884 0.0
H1508 H 0.88521 0.58006 1.00795 0.0
H1509 H 0.86799 0.5977 0.95594 0.0
H1510 H 0.91159 0.58922 0.13225 0.0
H1511 H 0.91435 0.58664 0.90142 0.0
H1512 H 0.92166 0.6048 0.80214 0.0
H1513 H 0.98617 0.64719 0.8822 0.0
H1514 H 0.97916 0.62957 0.98225 0.0
H1515 H 0.93755 0.50534 0.10644 0.0
H1516 H 0.92507 0.53018 0.08053 0.0
H1517 H 0.98774 0.58642 0.12628 0.0
H1518 H 1.00044 0.56164 0.15636 0.0
H1519 H 0.96253 0.58442 1.00281 0.0
H1520 H 0.96014 0.58288 0.22943 0.0
H1521 H 0.95193 0.56683 0.33167 0.0
H1522 H 0.88627 0.53279 0.26217 0.0
H1523 H 0.89409 0.54843 0.15902 0.0
C1524 C 0.91701 0.64289 0.99162 0.0
C1525 C 0.89586 0.63026 0.96358 0.0
C1526 C 0.92692 0.63275 1.02146 0.0
C1527 C 0.91579 0.60986 1.02591 0.0
C1528 C 0.89424 0.59768 1.00416 0.0
C1529 C 0.88442 0.60775 0.97327 0.0
C1530 C 0.92695 0.59828 0.04722 0.0
C1531 C 0.92261 0.58803 0.10381 0.0
C1532 C 0.94171 0.59713 1.01093 0.0
C1533 C 0.94621 0.60691 0.94946 0.0
C1534 C 0.93009 0.59988 0.89782 0.0
C1535 C 0.93417 0.61008 0.84139 0.0
C1536 C 0.95437 0.62715 0.83574 0.0
C1537 C 0.97054 0.63396 0.8864 0.0
C1538 C 0.96653 0.62387 0.94302 0.0
C1539 C 0.94881 0.523 0.1123 0.0
C1540 C 0.97006 0.53135 0.13532 0.0
C1541 C 0.94157 0.53721 0.09676 0.0
C1542 C 0.95536 0.56021 0.10221 0.0
C1543 C 0.97676 0.5687 0.12198 0.0
C1544 C 0.98402 0.55446 0.13883 0.0
C1545 C 0.947 0.57503 0.08766 0.0
C1546 C 0.95173 0.58579 1.0319 0.0
C1547 C 0.93252 0.57656 0.12472 0.0
C1548 C 0.92773 0.56665 0.18608 0.0
C1549 C 0.94396 0.57171 0.23548 0.0
C1550 C 0.93937 0.56277 0.29377 0.0
C1551 C 0.9186 0.54874 0.30334 0.0
C1552 C 0.90236 0.54365 0.25465 0.0
C1553 C 0.90687 0.55258 0.19629 0.0
H1554 H 0.91507 0.54185 0.34854 0.0
H1555 H 0.95744 0.63514 0.79223 0.0
H1556 H 0.56412 0.36763 0.89178 0.0
H1557 H 0.53574 0.33213 0.83433 0.0
H1558 H 0.52833 0.30267 1.01173 0.0
H1559 H 0.55645 0.33807 0.0695 0.0
H1560 H 0.53008 0.27695 0.91553 0.0
H1561 H 0.49264 0.31444 0.9488 0.0
H1562 H 0.48572 0.34513 0.94431 0.0
H1563 H 0.4802 0.33631 0.73686 0.0
H1564 H 0.48744 0.30577 0.74017 0.0
H1565 H 0.41293 0.19722 0.75935 0.0
H1566 H 0.44131 0.23108 0.82129 0.0
H1567 H 0.48624 0.21987 0.73381 0.0
H1568 H 0.45763 0.18463 0.67563 0.0
H1569 H 0.46673 0.26653 0.78571 0.0
H1570 H 0.53714 0.25295 0.83816 0.0
H1571 H 0.54649 0.22582 0.87119 0.0
H1572 H 0.48562 0.18592 0.92716 0.0
H1573 H 0.47553 0.21257 0.89337 0.0
C1574 C 0.55621 0.35371 0.91879 0.0
C1575 C 0.56268 0.3557 0.98522 0.0
C1576 C 0.54003 0.33339 0.88582 0.0
C1577 C 0.5299 0.3147 0.91867 0.0
C1578 C 0.53601 0.31679 0.98522 0.0
C1579 C 0.55214 0.33705 1.01815 0.0
C1580 C 0.51343 0.29274 0.88356 0.0
C1581 C 0.51621 0.27452 0.88664 0.0
C1582 C 0.49527 0.2897 0.847 0.0
C1583 C 0.4908 0.30797 0.84476 0.0
C1584 C 0.49013 0.31916 0.90224 0.0
C1585 C 0.48612 0.33651 0.89991 0.0
C1586 C 0.48257 0.34271 0.84034 0.0
C1587 C 0.48298 0.33152 0.78297 0.0
C1588 C 0.48703 0.31418 0.78504 0.0
C1589 C 0.4288 0.20153 0.75442 0.0
C1590 C 0.43285 0.18786 0.71321 0.0
C1591 C 0.44514 0.22118 0.78938 0.0
C1592 C 0.4661 0.22817 0.78295 0.0
C1593 C 0.4703 0.21476 0.7409 0.0
C1594 C 0.45385 0.19473 0.70678 0.0
C1595 C 0.48312 0.25014 0.81742 0.0
C1596 C 0.48057 0.26862 0.81388 0.0
C1597 C 0.50143 0.25326 0.85425 0.0
C1598 C 0.50563 0.235 0.86381 0.0
C1599 C 0.52558 0.23827 0.85688 0.0
C1600 C 0.53104 0.22302 0.876 0.0
C1601 C 0.51668 0.20434 0.9022 0.0
C1602 C 0.49664 0.20052 0.90732 0.0
C1603 C 0.491 0.21564 0.88775 0.0
H1604 H 0.52098 0.19263 0.91761 0.0
H1605 H 0.47947 0.35614 0.83864 0.0
H1606 H 0.86203 0.13374 0.67153 0.0
H1607 H 0.82733 0.12568 0.69249 0.0
H1608 H 0.8557 0.18795 0.81782 0.0
H1609 H 0.89001 0.19707 0.78973 0.0
H1610 H 0.81024 0.11564 0.78528 0.0
H1611 H 0.83339 0.20136 0.86845 0.0
H1612 H 0.84683 0.23979 0.84403 0.0
H1613 H 0.81786 0.21498 0.64719 0.0
H1614 H 0.80567 0.17663 0.66956 0.0
H1615 H 0.7287 0.10044 0.96377 0.0
H1616 H 0.76108 0.11046 0.92087 0.0
H1617 H 0.74531 0.14123 0.77269 0.0
H1618 H 0.71354 0.13311 0.81997 0.0
H1619 H 0.78321 0.16674 0.81272 0.0
H1620 H 0.74521 0.08823 0.74753 0.0
H1621 H 0.72407 0.04866 0.76217 0.0
H1622 H 0.77355 0.05582 0.89968 0.0
H1623 H 0.79491 0.09549 0.88634 0.0
C1624 C 0.86068 0.14605 0.70161 0.0
C1625 C 0.87868 0.16624 0.72775 0.0
C1626 C 0.84077 0.14138 0.71432 0.0
C1627 C 0.83825 0.1562 0.75661 0.0
C1628 C 0.85646 0.17651 0.78257 0.0
C1629 C 0.87634 0.18166 0.76722 0.0
C1630 C 0.81705 0.1491 0.77791 0.0
C1631 C 0.80443 0.12695 0.79044 0.0
C1632 C 0.80883 0.16336 0.78585 0.0
C1633 C 0.81945 0.18632 0.76994 0.0
C1634 C 0.83062 0.20425 0.81943 0.0
C1635 C 0.83802 0.226 0.80596 0.0
C1636 C 0.83352 0.22988 0.74379 0.0
C1637 C 0.8218 0.21203 0.69493 0.0
C1638 C 0.81502 0.19033 0.70762 0.0
C1639 C 0.73206 0.10953 0.92235 0.0
C1640 C 0.71846 0.11633 0.89648 0.0
C1641 C 0.75059 0.1149 0.89682 0.0
C1642 C 0.75584 0.12642 0.8426 0.0
C1643 C 0.74183 0.13237 0.81463 0.0
C1644 C 0.72343 0.12746 0.84126 0.0
C1645 C 0.77641 0.13333 0.81781 0.0
C1646 C 0.78895 0.1554 0.80597 0.0
C1647 C 0.78427 0.11882 0.80885 0.0
C1648 C 0.7716 0.09487 0.81625 0.0
C1649 C 0.75155 0.08138 0.78108 0.0
C1650 C 0.73953 0.05894 0.78913 0.0
C1651 C 0.74745 0.04974 0.83193 0.0
C1652 C 0.76744 0.06296 0.86656 0.0
C1653 C 0.77952 0.08542 0.85868 0.0
H1654 H 0.7381 0.03237 0.8382 0.0
H1655 H 0.83893 0.24669 0.73362 0.0
H1656 H 0.61581 0.0187 0.89799 0.0
H1657 H 0.63007 0.99625 0.93909 0.0
H1658 H 0.63385 0.02342 0.13435 0.0
H1659 H 0.61901 0.04491 0.09408 0.0
H1660 H 0.67052 0.01496 1.0247 0.0
H1661 H 0.61919 0.99496 0.19662 0.0
H1662 H 0.5836 0.9789 0.22702 0.0
H1663 H 0.56176 0.92263 0.08253 0.0
H1664 H 0.59716 0.93888 0.04982 0.0
H1665 H 0.70778 0.96576 0.26408 0.0
H1666 H 0.6968 0.98828 0.20626 0.0
H1667 H 0.64964 0.92938 0.08265 0.0
H1668 H 0.66079 0.90705 0.13848 0.0
H1669 H 0.63431 0.95282 0.15391 0.0
H1670 H 0.6871 0.96575 1.01702 0.0
H1671 H 0.72279 0.97857 0.99121 0.0
H1672 H 0.74259 0.0451 0.07241 0.0
H1673 H 0.70709 0.0326 0.0998 0.0
C1674 C 0.61903 0.01921 0.9497 0.0
C1675 C 0.6154 0.03279 0.99296 0.0
C1676 C 0.62733 0.00654 0.97324 0.0
C1677 C 0.63219 0.00728 1.04029 0.0
C1678 C 0.62912 0.02139 0.08294 0.0
C1679 C 0.62082 0.03391 0.05967 0.0
C1680 C 0.64218 0.99497 0.06575 0.0
C1681 C 0.66263 0.00144 0.05323 0.0
C1682 C 0.63204 0.97724 0.10306 0.0
C1683 C 0.61051 0.96875 0.11835 0.0
C1684 C 0.60663 0.97964 0.16958 0.0
C1685 C 0.58654 0.97037 0.18778 0.0
C1686 C 0.57035 0.94988 0.1562 0.0
C1687 C 0.57425 0.93859 0.10654 0.0
C1688 C 0.59428 0.94792 0.08783 0.0
C1689 C 0.69549 0.95774 0.22334 0.0
C1690 C 0.68491 0.9345 0.2068 0.0
C1691 C 0.6892 0.97063 0.1904 0.0
C1692 C 0.67226 0.9605 0.1404 0.0
C1693 C 0.66264 0.93757 0.12127 0.0
C1694 C 0.66899 0.92479 0.15359 0.0
C1695 C 0.66266 0.97289 0.1134 0.0
C1696 C 0.64229 0.96642 0.12561 0.0
C1697 C 0.67303 0.99071 0.07677 0.0
C1698 C 0.69447 0.99816 0.06124 0.0
C1699 C 0.69912 0.98305 1.03019 0.0
C1700 C 0.71931 0.99028 1.01507 0.0
C1701 C 0.73497 0.01262 1.03035 0.0
C1702 C 0.73046 0.02778 0.06073 0.0
C1703 C 0.7103 0.02064 0.07605 0.0
H1704 H 0.75058 0.01819 1.01847 0.0
H1705 H 0.55484 0.94267 0.17057 0.0
H1706 H 0.18196 0.73146 0.27836 0.0
H1707 H 0.16657 0.69139 0.25267 0.0
H1708 H 0.1259 0.68011 0.39914 0.0
H1709 H 0.14126 0.72049 0.42504 0.0
H1710 H 0.14621 0.65466 0.40243 0.0
H1711 H 0.10522 0.66979 0.25019 0.0
H1712 H 0.09988 0.69006 0.16638 0.0
H1713 H 0.13235 0.67083 1.04033 0.0
H1714 H 0.13823 0.65078 0.12388 0.0
H1715 H 0.08383 0.53709 0.30046 0.0
H1716 H 0.09948 0.5765 0.33984 0.0
H1717 H 0.12822 0.59372 0.16499 0.0
H1718 H 0.11116 0.55422 0.12395 0.0
H1719 H 0.11206 0.61641 0.18127 0.0
H1720 H 0.15854 0.60735 0.33705 0.0
H1721 H 0.1676 0.59028 0.42365 0.0
H1722 H 0.12691 0.59886 0.54115 0.0
H1723 H 0.11791 0.61629 0.45573 0.0
C1724 C 0.16969 0.72049 0.30509 0.0
C1725 C 0.16285 0.72919 0.35385 0.0
C1726 C 0.16087 0.69755 0.29022 0.0
C1727 C 0.14504 0.68268 0.32384 0.0
C1728 C 0.13811 0.69126 0.3726 0.0
C1729 C 0.14679 0.71431 0.38702 0.0
C1730 C 0.13588 0.65824 0.30754 0.0
C1731 C 0.13846 0.64617 0.35434 0.0
C1732 C 0.1262 0.64726 0.24445 0.0
C1733 C 0.12231 0.65892 0.19355 0.0
C1734 C 0.11135 0.67001 0.20477 0.0
C1735 C 0.10821 0.68145 0.1573 0.0
C1736 C 0.1158 0.68177 0.09812 0.0
C1737 C 0.12649 0.67058 0.08622 0.0
C1738 C 0.12971 0.65916 0.13361 0.0
C1739 C 0.09406 0.54935 0.27151 0.0
C1740 C 0.09677 0.54262 0.20987 0.0
C1741 C 0.1031 0.572 0.29412 0.0
C1742 C 0.11539 0.58848 0.25606 0.0
C1743 C 0.11881 0.58158 0.19559 0.0
C1744 C 0.10927 0.55897 0.1723 0.0
C1745 C 0.12292 0.61262 0.27565 0.0
C1746 C 0.11986 0.62472 0.22944 0.0
C1747 C 0.13237 0.62367 0.33914 0.0
C1748 C 0.13736 0.61279 0.38979 0.0
C1749 C 0.15142 0.6054 0.3812 0.0
C1750 C 0.15663 0.59579 0.43015 0.0
C1751 C 0.1477 0.59331 0.48758 0.0
C1752 C 0.13374 0.60069 0.49653 0.0
C1753 C 0.12868 0.61055 0.44806 0.0
H1754 H 0.15168 0.58577 0.52526 0.0
H1755 H 0.11338 0.69066 0.06144 0.0
H1756 H 0.57623 0.48749 0.24138 0.0
H1757 H 0.54156 0.47399 0.27489 0.0
H1758 H 0.513 0.43992 0.08237 0.0
H1759 H 0.5478 0.45303 0.04965 0.0
H1760 H 0.50874 0.47747 0.24403 0.0
H1761 H 0.46798 0.39128 0.08952 0.0
H1762 H 0.47738 0.3652 1.03945 0.0
H1763 H 0.53125 0.39148 0.18305 0.0
H1764 H 0.52198 0.41747 0.23456 0.0
H1765 H 0.40043 0.42661 0.25569 0.0
H1766 H 0.43402 0.43954 0.21541 0.0
H1767 H 0.44352 0.39418 0.32116 0.0
H1768 H 0.40954 0.38091 0.36107 0.0
H1769 H 0.4581 0.39621 0.20826 0.0
H1770 H 0.46671 0.4501 0.3796 0.0
H1771 H 0.45912 0.47635 0.43852 0.0
H1772 H 0.47257 0.51449 0.27866 0.0
H1773 H 0.47993 0.48827 0.21836 0.0
C1774 C 0.56257 0.47771 0.20575 0.0
C1775 C 0.56474 0.47227 0.14194 0.0
C1776 C 0.54269 0.46984 0.22503 0.0
C1777 C 0.52449 0.45573 0.18145 0.0
C1778 C 0.52669 0.45057 0.11729 0.0
C1779 C 0.54659 0.4584 0.09818 0.0
C1780 C 0.50337 0.44569 0.204 0.0
C1781 C 0.49766 0.45971 0.23588 0.0
C1782 C 0.48895 0.42242 0.195 0.0
C1783 C 0.49438 0.40646 0.16547 0.0
C1784 C 0.48176 0.3914 0.1106 0.0
C1785 C 0.48708 0.37665 0.08194 0.0
C1786 C 0.50494 0.37673 0.1079 0.0
C1787 C 0.51745 0.39148 0.16284 0.0
C1788 C 0.51218 0.40623 0.19178 0.0
C1789 C 0.40957 0.41921 0.27 0.0
C1790 C 0.40235 0.40286 0.31224 0.0
C1791 C 0.42888 0.42672 0.24709 0.0
C1792 C 0.44171 0.41831 0.26637 0.0
C1793 C 0.43406 0.4011 0.30579 0.0
C1794 C 0.41457 0.39344 0.32845 0.0
C1795 C 0.46328 0.42806 0.24704 0.0
C1796 C 0.46911 0.41398 0.21602 0.0
C1797 C 0.47801 0.45125 0.25799 0.0
C1798 C 0.47363 0.46707 0.29418 0.0
C1799 C 0.46787 0.46398 0.3568 0.0
C1800 C 0.46364 0.47887 0.39047 0.0
C1801 C 0.4653 0.49704 0.36227 0.0
C1802 C 0.47125 0.50039 0.30039 0.0
C1803 C 0.47545 0.48552 0.26645 0.0
H1804 H 0.46202 0.50855 0.38843 0.0
H1805 H 0.50906 0.36534 0.08551 0.0
H1806 H 0.88959 0.7077 0.65777 0.0
H1807 H 0.88149 0.73166 0.59872 0.0
H1808 H 0.81584 0.6821 0.57727 0.0
H1809 H 0.82394 0.65823 0.63897 0.0
H1810 H 0.83107 0.70696 0.46416 0.0
H1811 H 0.83031 0.7185 0.69088 0.0
H1812 H 0.84374 0.7249 0.8065 0.0
H1813 H 0.89635 0.78786 0.78072 0.0
H1814 H 0.88372 0.78144 0.66424 0.0
H1815 H 0.80564 0.79042 0.39074 0.0
H1816 H 0.80548 0.75928 0.43823 0.0
H1817 H 0.87111 0.80155 0.50924 0.0
H1818 H 0.87127 0.83251 0.46281 0.0
H1819 H 0.85053 0.77713 0.59995 0.0
H1820 H 0.85385 0.76384 0.37293 0.0
H1821 H 0.84149 0.75748 0.25626 0.0
H1822 H 0.78472 0.69844 0.28284 0.0
H1823 H 0.7966 0.70467 0.4 0.0
C1824 C 0.87342 0.70187 0.6409 0.0
C1825 C 0.85739 0.68155 0.65625 0.0
C1826 C 0.86881 0.71551 0.60634 0.0
C1827 C 0.84801 0.70898 0.58503 0.0
C1828 C 0.83202 0.68763 0.59397 0.0
C1829 C 0.83667 0.67399 0.62932 0.0
C1830 C 0.84322 0.72543 0.55926 0.0
C1831 C 0.83501 0.72214 0.49404 0.0
C1832 C 0.8485 0.74537 0.59814 0.0
C1833 C 0.85617 0.74933 0.6684 0.0
C1834 C 0.84491 0.73357 0.70954 0.0
C1835 C 0.85237 0.73721 0.77532 0.0
C1836 C 0.87091 0.75676 0.80094 0.0
C1837 C 0.88199 0.77272 0.76081 0.0
C1838 C 0.87473 0.76903 0.6948 0.0
C1839 C 0.81995 0.79309 0.41712 0.0
C1840 C 0.8385 0.81396 0.42253 0.0
C1841 C 0.8199 0.77522 0.44379 0.0
C1842 C 0.83836 0.7779 0.47685 0.0
C1843 C 0.85667 0.79892 0.48389 0.0
C1844 C 0.85677 0.81664 0.45695 0.0
C1845 C 0.83897 0.75905 0.50414 0.0
C1846 C 0.8464 0.76187 0.57002 0.0
C1847 C 0.83305 0.73877 0.46578 0.0
C1848 C 0.82595 0.73494 0.39539 0.0
C1849 C 0.83863 0.74963 0.35402 0.0
C1850 C 0.83174 0.74603 0.2878 0.0
C1851 C 0.81227 0.72766 0.26228 0.0
C1852 C 0.79975 0.71273 0.30279 0.0
C1853 C 0.80655 0.71629 0.3691 0.0
H1854 H 0.80689 0.72502 0.21113 0.0
H1855 H 0.87667 0.75954 0.85188 0.0
H1856 H 0.31303 0.05549 0.62288 0.0
H1857 H 0.28847 0.01574 0.59165 0.0
H1858 H 0.32512 0.01523 0.44269 0.0
H1859 H 0.35005 0.0548 0.47465 0.0
H1860 H 0.26309 0.9894 0.48505 0.0
H1861 H 0.3245 0.96655 0.42665 0.0
H1862 H 0.36232 0.98127 0.45361 0.0
H1863 H 0.36216 0.01279 0.6371 0.0
H1864 H 0.32426 0.99793 0.61174 0.0
H1865 H 0.24655 0.87208 0.36334 0.0
H1866 H 0.26784 0.9125 0.38453 0.0
H1867 H 0.22796 0.91272 0.52293 0.0
H1868 H 0.20619 0.87215 0.50041 0.0
H1869 H 0.29137 0.93893 0.48537 0.0
H1870 H 0.22894 0.96178 0.53775 0.0
H1871 H 0.19133 0.94716 0.50566 0.0
H1872 H 0.19371 0.91549 0.32577 0.0
H1873 H 0.23138 0.9302 0.35628 0.0
C1874 C 0.31584 0.04702 0.5831 0.0
C1875 C 0.33373 0.05849 0.55177 0.0
C1876 C 0.30169 0.02421 0.56517 0.0
C1877 C 0.30504 0.01224 0.51549 0.0
C1878 C 0.32234 0.02387 0.48211 0.0
C1879 C 0.33659 0.04663 0.50031 0.0
C1880 C 0.29098 0.98752 0.50058 0.0
C1881 C 0.26926 0.97836 0.48584 0.0
C1882 C 0.29894 0.97297 0.5 0.0
C1883 C 0.32157 0.9813 0.51697 0.0
C1884 C 0.3325 0.97649 0.47294 0.0
C1885 C 0.35396 0.98487 0.48792 0.0
C1886 C 0.36465 0.99802 0.54694 0.0
C1887 C 0.35387 0.00266 0.59133 0.0
C1888 C 0.3324 0.99425 0.57669 0.0
C1889 C 0.24213 0.88071 0.39785 0.0
C1890 C 0.22452 0.8688 0.42984 0.0
C1891 C 0.25443 0.90391 0.41017 0.0
C1892 C 0.24958 0.91592 0.45511 0.0
C1893 C 0.23191 0.90405 0.48704 0.0
C1894 C 0.21942 0.88078 0.47413 0.0
C1895 C 0.26341 0.94071 0.46947 0.0
C1896 C 0.28513 0.94992 0.48435 0.0
C1897 C 0.25545 0.95526 0.4694 0.0
C1898 C 0.23294 0.94692 0.44968 0.0
C1899 C 0.22147 0.95181 0.49119 0.0
C1900 C 0.20013 0.94348 0.47329 0.0
C1901 C 0.19012 0.93033 0.41382 0.0
C1902 C 0.20146 0.92561 0.37191 0.0
C1903 C 0.2228 0.93393 0.3895 0.0
H1904 H 0.17359 0.92383 0.40016 0.0
H1905 H 0.38128 0.00458 0.55833 0.0
H1906 H 0.00235 0.25235 0.66238 0.0
H1907 H 0.03478 0.25621 0.63003 0.0
H1908 H 0.00238 0.18602 0.56433 0.0
H1909 H 0.96964 0.18221 0.59434 0.0
H1910 H 0.0434 0.20626 0.65193 0.0
H1911 H 0.02555 0.21655 0.40763 0.0
H1912 H 0.01201 0.23424 0.33604 0.0
H1913 H 0.04093 0.29307 0.47438 0.0
H1914 H 0.05535 0.27603 0.54532 0.0
H1915 H 0.1156 0.19245 0.48582 0.0
H1916 H 0.08538 0.19207 0.52264 0.0
H1917 H 0.1141 0.26227 0.50999 0.0
H1918 H 0.14384 0.26237 0.46796 0.0
H1919 H 0.07565 0.24426 0.46548 0.0
H1920 H 0.10911 0.23803 0.66002 0.0
H1921 H 0.12534 0.22304 0.73208 0.0
H1922 H 0.06803 0.15986 0.70466 0.0
H1923 H 0.05155 0.17435 0.63158 0.0
C1924 C 1.0021 0.23777 0.6404 0.0
C1925 C 0.98356 0.21688 0.63242 0.0
C1926 C 0.02062 0.24003 0.62143 0.0
C1927 C 0.02096 0.22151 0.59314 0.0
C1928 C 0.00242 0.20063 0.58474 0.0
C1929 C 0.98379 0.19841 0.60283 0.0
C1930 C 0.04084 0.22375 0.57501 0.0
C1931 C 0.05041 0.21443 0.61099 0.0
C1932 C 0.05041 0.23498 0.52285 0.0
C1933 C 0.04108 0.24488 0.48217 0.0
C1934 C 0.0289 0.23321 0.42276 0.0
C1935 C 0.02123 0.24318 0.38213 0.0
C1936 C 0.02543 0.26468 0.40095 0.0
C1937 C 0.03754 0.27636 0.46008 0.0
C1938 C 0.04554 0.2666 0.50037 0.0
C1939 C 0.11553 0.20785 0.49009 0.0
C1940 C 0.13232 0.22744 0.47312 0.0
C1941 C 0.09825 0.20767 0.51245 0.0
C1942 C 0.09737 0.2272 0.52044 0.0
C1943 C 0.11426 0.24691 0.50463 0.0
C1944 C 0.13147 0.24703 0.48125 0.0
C1945 C 0.07851 0.22675 0.54265 0.0
C1946 C 0.06891 0.23622 0.50701 0.0
C1947 C 0.06923 0.21608 0.5964 0.0
C1948 C 0.07916 0.20724 0.63985 0.0
C1949 C 0.10002 0.22088 0.6689 0.0
C1950 C 0.10926 0.21248 0.71 0.0
C1951 C 0.09774 0.19049 0.72281 0.0
C1952 C 0.07695 0.17687 0.69462 0.0
C1953 C 0.06765 0.18518 0.65339 0.0
H1954 H 0.10492 0.18403 0.75468 0.0
H1955 H 0.01937 0.27231 0.36956 0.0
H1956 H 0.34468 0.13856 0.47347 0.0
H1957 H 0.32789 0.16024 0.45148 0.0
H1958 H 0.36553 0.2072 0.61955 0.0
H1959 H 0.38252 0.18561 0.64078 0.0
H1960 H 0.32447 0.19681 0.6114 0.0
H1961 H 0.37723 0.21942 0.46942 0.0
H1962 H 0.39561 0.21353 0.38416 0.0
H1963 H 0.33938 0.18408 0.24913 0.0
H1964 H 0.32056 0.18949 0.33392 0.0
H1965 H 0.30779 0.28482 0.56051 0.0
H1966 H 0.3194 0.25897 0.57946 0.0
H1967 H 0.29531 0.22746 0.38243 0.0
H1968 H 0.28558 0.25538 0.36173 0.0
H1969 H 0.32762 0.22734 0.40334 0.0
H1970 H 0.27331 0.19904 0.54528 0.0
H1971 H 0.25322 0.2012 0.63137 0.0
H1972 H 0.30985 0.23742 0.76476 0.0
H1973 H 0.33015 0.23535 0.67954 0.0
C1974 C 0.34908 0.15331 0.5063 0.0
C1975 C 0.36428 0.15987 0.56041 0.0
C1976 C 0.33963 0.16586 0.49333 0.0
C1977 C 0.34539 0.18553 0.53359 0.0
C1978 C 0.36066 0.1921 0.58772 0.0
C1979 C 0.37028 0.17968 0.60017 0.0
C1980 C 0.33567 0.1993 0.51916 0.0
C1981 C 0.32528 0.20359 0.56605 0.0
C1982 C 0.33611 0.20778 0.45932 0.0
C1983 C 0.34743 0.20465 0.40821 0.0
C1984 C 0.36873 0.21152 0.42169 0.0
C1985 C 0.37924 0.2083 0.37343 0.0
C1986 C 0.36865 0.19838 0.31131 0.0
C1987 C 0.34755 0.19172 0.2973 0.0
C1988 C 0.33696 0.19488 0.34543 0.0
C1989 C 0.30453 0.27209 0.52134 0.0
C1990 C 0.29505 0.27182 0.46012 0.0
C1991 C 0.31098 0.2569 0.53261 0.0
C1992 C 0.3077 0.24024 0.48358 0.0
C1993 C 0.298 0.2398 0.42197 0.0
C1994 C 0.29205 0.25557 0.41012 0.0
C1995 C 0.31598 0.22479 0.49561 0.0
C1996 C 0.32635 0.22029 0.44841 0.0
C1997 C 0.31523 0.21574 0.55497 0.0
C1998 C 0.30322 0.21748 0.60576 0.0
C1999 C 0.28144 0.20772 0.59278 0.0
C2000 C 0.27003 0.20881 0.64148 0.0
C2001 C 0.28028 0.21963 0.70329 0.0
C2002 C 0.30194 0.22916 0.71677 0.0
C2003 C 0.31338 0.22797 0.66839 0.0
H2004 H 0.27143 0.22051 0.74083 0.0
H2005 H 0.37682 0.1959 0.274 0.0
H2006 H 0.79298 0.94665 0.42552 0.0
H2007 H 0.81413 0.98587 0.47098 0.0
H2008 H 0.84443 0.00091 0.29834 0.0
H2009 H 0.82241 0.96176 0.25179 0.0
H2010 H 0.85204 0.01451 0.50674 0.0
H2011 H 0.85876 0.05249 0.26601 0.0
H2012 H 0.83882 0.04308 0.15727 0.0
H2013 H 0.78182 0.00083 0.23352 0.0
H2014 H 0.80138 0.0102 0.34281 0.0
H2015 H 0.92903 0.12982 0.5543 0.0
H2016 H 0.90853 0.0912 0.50309 0.0
H2017 H 0.85282 0.09551 0.48785 0.0
H2018 H 0.87305 0.13379 0.5422 0.0
H2019 H 0.85657 0.07263 0.37598 0.0
H2020 H 0.8591 0.07394 0.6021 0.0
H2021 H 0.87347 0.08197 0.71717 0.0
H2022 H 0.90293 0.04393 0.68233 0.0
H2023 H 0.88937 0.03631 0.56655 0.0
C2024 C 0.80438 0.95836 0.39782 0.0
C2025 C 0.80636 0.95125 0.33565 0.0
C2026 C 0.81646 0.98079 0.42371 0.0
C2027 C 0.83074 0.99662 0.38793 0.0
C2028 C 0.83321 0.98927 0.32654 0.0
C2029 C 0.82082 0.96687 0.30013 0.0
C2030 C 0.84257 0.02075 0.41443 0.0
C2031 C 0.85306 0.02718 0.47796 0.0
C2032 C 0.84353 0.03742 0.37779 0.0
C2033 C 0.83158 0.03188 0.31243 0.0
C2034 C 0.84197 0.04125 0.25958 0.0
C2035 C 0.83073 0.03592 0.19786 0.0
C2036 C 0.80908 0.02131 0.18846 0.0
C2037 C 0.7986 0.01208 0.24082 0.0
C2038 C 0.80976 0.01738 0.30265 0.0
C2039 C 0.91237 0.12249 0.54061 0.0
C2040 C 0.90256 0.13467 0.55438 0.0
C2041 C 0.90072 0.10047 0.51086 0.0
C2042 C 0.87907 0.09033 0.49282 0.0
C2043 C 0.86949 0.10298 0.50182 0.0
C2044 C 0.88111 0.12491 0.5327 0.0
C2045 C 0.86629 0.06626 0.46752 0.0
C2046 C 0.85564 0.05991 0.40442 0.0
C2047 C 0.86456 0.04962 0.50546 0.0
C2048 C 0.87358 0.05498 0.57487 0.0
C2049 C 0.86905 0.0677 0.61846 0.0
C2050 C 0.87695 0.07207 0.68406 0.0
C2051 C 0.88912 0.06347 0.70708 0.0
C2052 C 0.8935 0.05059 0.66445 0.0
C2053 C 0.88582 0.04636 0.59868 0.0
H2054 H 0.89517 0.06682 0.75792 0.0
H2055 H 0.80041 0.01719 0.14062 0.0
H2056 H 0.91858 0.63836 0.73753 0.0
H2057 H 0.94828 0.65151 0.67664 0.0
H2058 H 0.93752 0.70303 0.61837 0.0
H2059 H 0.90613 0.68761 0.67197 0.0
H2060 H 0.94496 0.68929 0.52269 0.0
H2061 H 0.00405 0.71809 0.7314 0.0
H2062 H 0.02058 0.7115 0.8275 0.0
H2063 H 0.99584 0.64397 0.74463 0.0
H2064 H 0.97969 0.65047 0.64744 0.0
H2065 H 0.04105 0.76592 0.42066 0.0
H2066 H 0.01024 0.74539 0.47537 0.0
H2067 H 0.02526 0.69408 0.4939 0.0
H2068 H 0.05664 0.71515 0.44146 0.0
H2069 H 0.01493 0.70191 0.59965 0.0
H2070 H 0.98421 0.68918 0.38364 0.0
H2071 H 0.97791 0.69946 0.27761 0.0
H2072 H 0.95009 0.73385 0.36373 0.0
H2073 H 0.95697 0.72456 0.47084 0.0
C2074 C 0.92296 0.65284 0.71285 0.0
C2075 C 0.91057 0.66263 0.71184 0.0
C2076 C 0.94032 0.66069 0.67858 0.0
C2077 C 0.94615 0.67901 0.64389 0.0
C2078 C 0.93375 0.68892 0.64421 0.0
C2079 C 0.91586 0.68036 0.67581 0.0
C2080 C 0.96364 0.68682 0.60231 0.0
C2081 C 0.96034 0.69239 0.54061 0.0
C2082 C 0.98359 0.6896 0.62195 0.0
C2083 C 0.98957 0.68437 0.68423 0.0
C2084 C 1.00157 0.70165 0.73481 0.0
C2085 C 0.01122 0.69806 0.78883 0.0
C2086 C 0.00899 0.67724 0.79262 0.0
C2087 C 0.99728 0.66001 0.74211 0.0
C2088 C 0.98789 0.66364 0.68761 0.0
C2089 C 0.03771 0.7502 0.43617 0.0
C2090 C 0.05126 0.74213 0.42674 0.0
C2091 C 0.01997 0.73836 0.46707 0.0
C2092 C 0.01504 0.71787 0.48789 0.0
C2093 C 0.0286 0.70979 0.47832 0.0
C2094 C 0.04657 0.72185 0.44846 0.0
C2095 C 0.99648 0.70556 0.52293 0.0
C2096 C 0.99954 0.69896 0.5824 0.0
C2097 C 0.9763 0.70151 0.50062 0.0
C2098 C 0.97141 0.70642 0.43569 0.0
C2099 C 0.97699 0.69918 0.38024 0.0
C2100 C 0.97342 0.70494 0.31993 0.0
C2101 C 0.96376 0.71746 0.31402 0.0
C2102 C 0.95766 0.72423 0.36843 0.0
C2103 C 0.96145 0.71878 0.42902 0.0
H2104 H 0.96084 0.72173 0.26719 0.0
H2105 H 0.0166 0.67456 0.83428 0.0
loop_
_geom_bond_atom_site_label_1
_geom_bond_atom_site_label_2
_geom_bond_distance
_geom_bond_site_symmetry_2
_ccdc_geom_bond_type
Gd0 N31 2.661 1_455 S
Gd0 N37 2.601 1_455 S
Gd0 O44 2.545 1_455 S
Gd0 O45 2.606 . S
Gd0 O47 2.429 . S
Gd0 O48 2.545 . S
Gd0 O49 2.412 1_455 S
Gd0 O51 2.362 . S
Gd0 O52 2.324 . S
Gd0 C59 2.828 1_455 S
Gd1 N10 2.661 . S
Gd1 N14 2.601 . S
Gd1 O45 2.362 . S
Gd1 O46 2.324 . S
Gd1 O50 2.545 . S
Gd1 O51 2.606 . S
Gd1 O53 2.429 . S
Gd1 O54 2.545 . S
Gd1 O55 2.412 . S
Gd1 C68 2.828 . S
C2 C5 1.417 . S
C2 C7 1.431 . S
C2 C8 1.412 . S
C3 C6 1.437 . S
C3 C7 1.317 . S
C3 H22 0.929 . S
C4 C5 1.426 . S
C4 C6 1.413 . S
C4 N14 1.359 . S
C5 C2 1.417 . S
C5 C4 1.426 . S
C5 N10 1.350 . S
C6 C3 1.437 . S
C6 C4 1.413 . S
C6 C16 1.391 . S
C7 C2 1.431 . S
C7 C3 1.317 . S
C7 H18 0.930 . S
C8 C2 1.412 . S
C8 C9 1.355 . S
C8 H20 0.930 . S
C9 C8 1.355 . S
C9 C11 1.402 . S
C9 H21 0.930 . S
N10 Gd1 2.661 . S
N10 C5 1.350 . S
N10 C11 1.307 . S
C11 C9 1.402 . S
C11 N10 1.307 . S
C11 H12 0.930 . S
H12 C11 0.930 . S
C13 N14 1.334 . S
C13 C15 1.394 . S
C13 H17 0.930 . S
N14 Gd1 2.601 . S
N14 C4 1.359 . S
N14 C13 1.334 . S
C15 C13 1.394 . S
C15 C16 1.359 . S
C15 H27 0.930 . S
C16 C6 1.391 . S
C16 C15 1.359 . S
C16 H28 0.929 . S
H17 C13 0.930 . S
H18 C7 0.930 . S
H19 C36 0.930 . S
H20 C8 0.930 . S
H21 C9 0.930 . S
H22 C3 0.929 . S
H23 C41 0.930 . S
H24 C32 0.930 . S
H25 C33 0.930 1_556 S
H26 C57 0.929 . S
H27 C15 0.930 . S
H28 C16 0.929 . S
H29 C58 0.930 . S
H30 C39 0.930 . S
N31 Gd0 2.661 1_655 S
N31 C35 1.350 . S
N31 C36 1.307 . S
C32 H24 0.930 . S
C32 C33 1.355 . S
C32 C34 1.412 . S
C33 H25 0.930 1_554 S
C33 C32 1.355 . S
C33 C36 1.402 . S
C34 C32 1.412 . S
C34 C35 1.417 . S
C34 C58 1.431 . S
C35 N31 1.350 . S
C35 C34 1.417 . S
C35 C38 1.426 . S
C36 H19 0.930 . S
C36 N31 1.307 . S
C36 C33 1.402 . S
N37 Gd0 2.601 1_655 S
N37 C38 1.359 . S
N37 C41 1.334 . S
C38 C35 1.426 . S
C38 N37 1.359 . S
C38 C42 1.413 . S
C39 H30 0.930 . S
C39 C40 1.359 . S
C39 C41 1.394 . S
C40 C39 1.359 . S
C40 C42 1.391 . S
C40 H43 0.929 . S
C41 H23 0.930 . S
C41 N37 1.334 . S
C41 C39 1.394 . S
C42 C38 1.413 . S
C42 C40 1.391 . S
C42 C57 1.437 . S
H43 C40 0.929 . S
O44 Gd0 2.545 1_655 S
O44 C59 1.258 . S
O45 Gd0 2.606 . S
O45 Gd1 2.362 . S
O45 C56 1.284 . S
O46 Gd1 2.324 . S
O46 C66 1.254 . S
O47 Gd0 2.429 . S
O47 C66 1.268 . S
O48 Gd0 2.545 . S
O48 C56 1.250 . S
O49 Gd0 2.412 1_655 S
O49 C59 1.252 . S
O50 Gd1 2.545 . S
O50 C68 1.258 . S
O51 Gd0 2.362 . S
O51 Gd1 2.606 . S
O51 C67 1.284 . S
O52 Gd0 2.324 . S
O52 C75 1.254 . S
O53 Gd1 2.429 . S
O53 C75 1.268 . S
O54 Gd1 2.545 . S
O54 C67 1.250 . S
O55 Gd1 2.412 . S
O55 C68 1.252 . S
C56 O45 1.284 . S
C56 O48 1.250 . S
C57 H26 0.929 . S
C57 C42 1.437 . S
C57 C58 1.317 . S
C58 H29 0.930 . S
C58 C34 1.431 . S
C58 C57 1.317 . S
C59 Gd0 2.828 1_655 S
C59 O44 1.258 . S
C59 O49 1.252 . S
C59 C60 1.497 . S
C60 C59 1.497 . S
C60 C61 1.395 . S
C60 C62 1.380 . S
C61 C60 1.395 . S
C61 C64 1.398 . S
C61 H76 0.930 . S
C62 C60 1.380 . S
C62 C63 1.391 . S
C62 H77 0.930 . S
C63 C62 1.391 . S
C63 C65 1.387 . S
C64 C61 1.398 . S
C64 C65 1.380 . S
C64 H78 0.930 . S
C65 C63 1.387 . S
C65 C64 1.380 . S
C65 H79 0.930 . S
C66 O46 1.254 . S
C66 O47 1.268 . S
C67 O51 1.284 . S
C67 O54 1.250 . S
C68 Gd1 2.828 . S
C68 O50 1.258 . S
C68 O55 1.252 . S
C68 C69 1.497 . S
C69 C68 1.497 . S
C69 C70 1.395 . S
C69 C71 1.380 . S
C70 C69 1.395 . S
C70 C73 1.398 . S
C70 H80 0.930 . S
C71 C69 1.380 . S
C71 C72 1.391 . S
C71 H81 0.930 . S
C72 C71 1.391 . S
C72 C74 1.387 . S
C73 C70 1.398 . S
C73 C74 1.380 . S
C73 H82 0.930 . S
C74 C72 1.387 . S
C74 C73 1.380 . S
C74 H83 0.930 . S
C75 O52 1.254 . S
C75 O53 1.268 . S
H76 C61 0.930 . S
H77 C62 0.930 . S
H78 C64 0.930 . S
H79 C65 0.930 . S
H80 C70 0.930 . S
H81 C71 0.930 . S
H82 C73 0.930 . S
H83 C74 0.930 . S
Gd84 N115 2.661 . S
Gd84 N121 2.601 . S
Gd84 O128 2.545 . S
Gd84 O129 2.606 . S
Gd84 O131 2.429 . S
Gd84 O132 2.545 . S
Gd84 O133 2.412 . S
Gd84 O135 2.362 . S
Gd84 O136 2.324 . S
Gd84 C143 2.828 . S
Gd85 N94 2.661 . S
Gd85 N98 2.601 . S
Gd85 O129 2.362 . S
Gd85 O130 2.324 . S
Gd85 O134 2.545 . S
Gd85 O135 2.606 . S
Gd85 O137 2.429 . S
Gd85 O138 2.545 . S
Gd85 O139 2.412 . S
Gd85 C152 2.828 . S
C86 C89 1.417 . S
C86 C91 1.431 . S
C86 C92 1.412 . S
C87 C90 1.437 . S
C87 C91 1.317 . S
C87 H106 0.929 . S
C88 C89 1.426 . S
C88 C90 1.413 . S
C88 N98 1.359 . S
C89 C86 1.417 . S
C89 C88 1.426 . S
C89 N94 1.350 . S
C90 C87 1.437 . S
C90 C88 1.413 . S
C90 C100 1.391 . S
C91 C86 1.431 . S
C91 C87 1.317 . S
C91 H102 0.930 . S
C92 C86 1.412 . S
C92 C93 1.355 . S
C92 H104 0.930 . S
C93 C92 1.355 . S
C93 C95 1.402 . S
C93 H105 0.930 . S
N94 Gd85 2.661 . S
N94 C89 1.350 . S
N94 C95 1.307 . S
C95 C93 1.402 . S
C95 N94 1.307 . S
C95 H96 0.930 . S
H96 C95 0.930 . S
C97 N98 1.334 . S
C97 C99 1.394 1_554 S
C97 H101 0.930 1_554 S
N98 Gd85 2.601 . S
N98 C88 1.359 . S
N98 C97 1.334 . S
C99 C97 1.394 1_556 S
C99 C100 1.359 1_556 S
C99 H111 0.930 . S
C100 C90 1.391 . S
C100 C99 1.359 1_554 S
C100 H112 0.929 1_554 S
H101 C97 0.930 1_556 S
H102 C91 0.930 . S
H103 C120 0.930 1_556 S
H104 C92 0.930 . S
H105 C93 0.930 . S
H106 C87 0.929 . S
H107 C125 0.930 . S
H108 C116 0.930 1_556 S
H109 C117 0.930 . S
H110 C141 0.929 . S
H111 C99 0.930 . S
H112 C100 0.929 1_556 S
H113 C142 0.930 . S
H114 C123 0.930 . S
N115 Gd84 2.661 . S
N115 C119 1.350 . S
N115 C120 1.307 . S
C116 H108 0.930 1_554 S
C116 C117 1.355 1_554 S
C116 C118 1.412 . S
C117 H109 0.930 . S
C117 C116 1.355 1_556 S
C117 C120 1.402 1_556 S
C118 C116 1.412 . S
C118 C119 1.417 . S
C118 C142 1.431 . S
C119 N115 1.350 . S
C119 C118 1.417 . S
C119 C122 1.426 . S
C120 H103 0.930 1_554 S
C120 N115 1.307 . S
C120 C117 1.402 1_554 S
N121 Gd84 2.601 . S
N121 C122 1.359 . S
N121 C125 1.334 . S
C122 C119 1.426 . S
C122 N121 1.359 . S
C122 C126 1.413 . S
C123 H114 0.930 . S
C123 C124 1.359 . S
C123 C125 1.394 . S
C124 C123 1.359 . S
C124 C126 1.391 . S
C124 H127 0.929 . S
C125 H107 0.930 . S
C125 N121 1.334 . S
C125 C123 1.394 . S
C126 C122 1.413 . S
C126 C124 1.391 . S
C126 C141 1.437 . S
H127 C124 0.929 . S
O128 Gd84 2.545 . S
O128 C143 1.258 . S
O129 Gd84 2.606 . S
O129 Gd85 2.362 . S
O129 C140 1.284 . S
O130 Gd85 2.324 . S
O130 C150 1.254 . S
O131 Gd84 2.429 . S
O131 C150 1.268 . S
O132 Gd84 2.545 . S
O132 C140 1.250 . S
O133 Gd84 2.412 . S
O133 C143 1.252 . S
O134 Gd85 2.545 . S
O134 C152 1.258 . S
O135 Gd84 2.362 . S
O135 Gd85 2.606 . S
O135 C151 1.284 . S
O136 Gd84 2.324 . S
O136 C159 1.256 . S
O137 Gd85 2.429 . S
O137 C159 1.269 . S
O138 Gd85 2.545 . S
O138 C151 1.250 . S
O139 Gd85 2.412 . S
O139 C152 1.252 . S
C140 O129 1.284 . S
C140 O132 1.250 . S
C141 H110 0.929 . S
C141 C126 1.437 . S
C141 C142 1.317 . S
C142 H113 0.930 . S
C142 C118 1.431 . S
C142 C141 1.317 . S
C143 Gd84 2.828 . S
C143 O128 1.258 . S
C143 O133 1.252 . S
C143 C144 1.497 . S
C144 C143 1.497 . S
C144 C145 1.395 . S
C144 C146 1.380 . S
C145 C144 1.395 . S
C145 C148 1.398 . S
C145 H160 0.930 . S
C146 C144 1.380 . S
C146 C147 1.391 . S
C146 H161 0.930 1_554 S
C147 C146 1.391 . S
C147 C149 1.387 . S
C148 C145 1.398 . S
C148 C149 1.380 . S
C148 H162 0.930 . S
C149 C147 1.387 . S
C149 C148 1.380 . S
C149 H163 0.930 . S
C150 O130 1.254 . S
C150 O131 1.268 . S
C151 O135 1.284 . S
C151 O138 1.250 . S
C152 Gd85 2.828 . S
C152 O134 1.258 . S
C152 O139 1.252 . S
C152 C153 1.497 . S
C153 C152 1.497 . S
C153 C154 1.395 . S
C153 C155 1.380 . S
C154 C153 1.395 . S
C154 C157 1.398 . S
C154 H164 0.930 . S
C155 C153 1.380 . S
C155 C156 1.391 . S
C155 H165 0.930 . S
C156 C155 1.391 . S
C156 C158 1.387 . S
C157 C154 1.398 . S
C157 C158 1.380 . S
C157 H166 0.930 . S
C158 C156 1.387 . S
C158 C157 1.380 . S
C158 H167 0.930 . S
C159 O136 1.256 . S
C159 O137 1.269 . S
H160 C145 0.930 . S
H161 C146 0.930 1_556 S
H162 C148 0.930 . S
H163 C149 0.930 . S
H164 C154 0.930 . S
H165 C155 0.930 . S
H166 C157 0.930 . S
H167 C158 0.930 . S
Gd168 N199 2.661 1_554 S
Gd168 N205 2.601 . S
Gd168 O212 2.545 . S
Gd168 O213 2.606 . S
Gd168 O215 2.429 . S
Gd168 O216 2.545 . S
Gd168 O217 2.412 1_554 S
Gd168 O219 2.362 1_554 S
Gd168 O220 2.324 1_554 S
Gd168 C227 2.828 . S
Gd169 N178 2.661 1_556 S
Gd169 N182 2.601 . S
Gd169 O213 2.362 1_556 S
Gd169 O214 2.324 1_556 S
Gd169 O218 2.545 . S
Gd169 O219 2.606 . S
Gd169 O221 2.429 . S
Gd169 O222 2.545 . S
Gd169 O223 2.412 1_556 S
Gd169 C236 2.828 . S
C170 C173 1.417 1_565 S
C170 C175 1.431 . S
C170 C176 1.413 . S
C171 C174 1.437 . S
C171 C175 1.317 1_556 S
C171 H190 0.929 . S
C172 C173 1.427 1_556 S
C172 C174 1.380 1_545 S
C172 N182 1.394 . S
C173 C170 1.417 1_545 S
C173 C172 1.427 1_554 S
C173 N178 1.350 . S
C174 C171 1.437 . S
C174 C172 1.380 1_565 S
C174 C184 1.391 . S
C175 C170 1.431 . S
C175 C171 1.317 1_554 S
C175 H186 0.930 . S
C176 C170 1.413 . S
C176 C177 1.335 1_565 S
C176 H188 0.949 . S
C177 C176 1.335 1_545 S
C177 C179 1.402 . S
C177 H189 0.930 . S
N178 Gd169 2.661 1_554 S
N178 C173 1.350 . S
N178 C179 1.307 . S
C179 C177 1.402 . S
C179 N178 1.307 . S
C179 H180 0.930 . S
H180 C179 0.930 . S
C181 N182 1.334 . S
C181 C183 1.394 1_545 S
C181 H185 0.930 . S
N182 Gd169 2.601 . S
N182 C172 1.394 . S
N182 C181 1.334 . S
C183 C181 1.394 1_565 S
C183 C184 1.359 . S
C183 H195 0.930 . S
C184 C174 1.391 . S
C184 C183 1.359 . S
C184 H196 0.929 . S
H185 C181 0.930 . S
H186 C175 0.930 . S
H187 C204 0.930 . S
H188 C176 0.949 . S
H189 C177 0.930 . S
H190 C171 0.929 . S
H191 C209 0.930 . S
H192 C200 0.930 . S
H193 C201 0.930 . S
H194 C225 0.929 . S
H195 C183 0.930 . S
H196 C184 0.929 . S
H197 C226 0.930 . S
H198 C207 0.930 . S
N199 Gd168 2.661 1_556 S
N199 C203 1.350 . S
N199 C204 1.307 . S
C200 H192 0.930 . S
C200 C201 1.355 . S
C200 C202 1.412 . S
C201 H193 0.930 . S
C201 C200 1.355 . S
C201 C204 1.402 . S
C202 C200 1.412 . S
C202 C203 1.417 . S
C202 C226 1.431 . S
C203 N199 1.350 . S
C203 C202 1.417 . S
C203 C206 1.426 1_556 S
C204 H187 0.930 . S
C204 N199 1.307 . S
C204 C201 1.402 . S
N205 Gd168 2.601 . S
N205 C206 1.359 . S
N205 C209 1.334 . S
C206 C203 1.426 1_554 S
C206 N205 1.359 . S
C206 C210 1.413 . S
C207 H198 0.930 . S
C207 C208 1.359 . S
C207 C209 1.394 . S
C208 C207 1.359 . S
C208 C210 1.391 . S
C208 H211 0.929 . S
C209 H191 0.930 . S
C209 N205 1.334 . S
C209 C207 1.394 . S
C210 C206 1.413 . S
C210 C208 1.391 . S
C210 C225 1.437 . S
H211 C208 0.929 . S
O212 Gd168 2.545 . S
O212 C227 1.258 . S
O213 Gd168 2.606 . S
O213 Gd169 2.362 1_554 S
O213 C224 1.284 . S
O214 Gd169 2.324 1_554 S
O214 C234 1.254 . S
O215 Gd168 2.429 . S
O215 C234 1.268 . S
O216 Gd168 2.545 . S
O216 C224 1.250 . S
O217 Gd168 2.412 1_556 S
O217 C227 1.252 1_556 S
O218 Gd169 2.545 . S
O218 C236 1.258 . S
O219 Gd168 2.362 1_556 S
O219 Gd169 2.606 . S
O219 C235 1.284 . S
O220 Gd168 2.324 1_556 S
O220 C243 1.254 . S
O221 Gd169 2.429 . S
O221 C243 1.268 . S
O222 Gd169 2.545 . S
O222 C235 1.250 . S
O223 Gd169 2.412 1_554 S
O223 C236 1.252 1_554 S
C224 O213 1.284 . S
C224 O216 1.250 . S
C225 H194 0.929 . S
C225 C210 1.437 . S
C225 C226 1.317 1_554 S
C226 H197 0.930 . S
C226 C202 1.431 . S
C226 C225 1.317 1_556 S
C227 Gd168 2.828 . S
C227 O212 1.258 . S
C227 O217 1.252 1_554 S
C227 C228 1.497 . S
C228 C227 1.497 . S
C228 C229 1.395 . S
C228 C230 1.380 1_554 S
C229 C228 1.395 . S
C229 C232 1.398 . S
C229 H244 0.930 . S
C230 C228 1.380 1_556 S
C230 C231 1.391 . S
C230 H245 0.930 . S
C231 C230 1.391 . S
C231 C233 1.387 . S
C232 C229 1.398 . S
C232 C233 1.380 1_554 S
C232 H246 0.930 . S
C233 C231 1.387 . S
C233 C232 1.380 1_556 S
C233 H247 0.930 . S
C234 O214 1.254 . S
C234 O215 1.268 . S
C235 O219 1.284 . S
C235 O222 1.250 . S
C236 Gd169 2.828 . S
C236 O218 1.258 . S
C236 O223 1.252 1_556 S
C236 C237 1.497 . S
C237 C236 1.497 . S
C237 C238 1.395 1_545 S
C237 C239 1.380 1_556 S
C238 C237 1.395 1_565 S
C238 C241 1.398 . S
C238 H248 0.930 . S
C239 C237 1.380 1_554 S
C239 C240 1.391 . S
C239 H249 0.930 . S
C240 C239 1.391 . S
C240 C242 1.387 1_545 S
C241 C238 1.398 . S
C241 C242 1.380 1_556 S
C241 H250 0.930 . S
C242 C240 1.387 1_565 S
C242 C241 1.380 1_554 S
C242 H251 0.930 . S
C243 O220 1.254 . S
C243 O221 1.268 . S
H244 C229 0.930 . S
H245 C230 0.930 . S
H246 C232 0.930 . S
H247 C233 0.930 . S
H248 C238 0.930 . S
H249 C239 0.930 . S
H250 C241 0.930 . S
H251 C242 0.930 . S
Gd252 N283 2.661 . S
Gd252 N289 2.601 . S
Gd252 O296 2.545 . S
Gd252 O297 2.606 . S
Gd252 O299 2.429 . S
Gd252 O300 2.545 . S
Gd252 O301 2.412 . S
Gd252 O303 2.362 . S
Gd252 O304 2.324 . S
Gd252 C311 2.828 . S
Gd253 N262 2.661 . S
Gd253 N266 2.601 . S
Gd253 O297 2.362 . S
Gd253 O298 2.324 . S
Gd253 O302 2.545 . S
Gd253 O303 2.606 . S
Gd253 O305 2.429 . S
Gd253 O306 2.545 . S
Gd253 O307 2.412 . S
Gd253 C320 2.828 . S
C254 C257 1.417 . S
C254 C259 1.431 . S
C254 C260 1.412 . S
C255 C258 1.437 . S
C255 C259 1.317 . S
C255 H274 0.929 . S
C256 C257 1.426 . S
C256 C258 1.413 . S
C256 N266 1.359 . S
C257 C254 1.417 . S
C257 C256 1.426 . S
C257 N262 1.350 . S
C258 C255 1.437 . S
C258 C256 1.413 . S
C258 C268 1.391 . S
C259 C254 1.431 . S
C259 C255 1.317 . S
C259 H270 0.930 . S
C260 C254 1.412 . S
C260 C261 1.355 . S
C260 H272 0.930 . S
C261 C260 1.355 . S
C261 C263 1.402 . S
C261 H273 0.930 . S
N262 Gd253 2.661 . S
N262 C257 1.350 . S
N262 C263 1.307 . S
C263 C261 1.402 . S
C263 N262 1.307 . S
C263 H264 0.930 . S
H264 C263 0.930 . S
C265 N266 1.334 . S
C265 C267 1.394 . S
C265 H269 0.930 . S
N266 Gd253 2.601 . S
N266 C256 1.359 . S
N266 C265 1.334 . S
C267 C265 1.394 . S
C267 C268 1.359 . S
C267 H279 0.930 . S
C268 C258 1.391 . S
C268 C267 1.359 . S
C268 H280 0.929 . S
H269 C265 0.930 . S
H270 C259 0.930 . S
H271 C288 0.930 . S
H272 C260 0.930 . S
H273 C261 0.930 . S
H274 C255 0.929 . S
H275 C293 0.930 . S
H276 C284 0.930 . S
H277 C285 0.930 . S
H278 C309 0.929 . S
H279 C267 0.930 . S
H280 C268 0.929 . S
H281 C310 0.930 . S
H282 C291 0.930 . S
N283 Gd252 2.661 . S
N283 C287 1.350 . S
N283 C288 1.307 . S
C284 H276 0.930 . S
C284 C285 1.355 . S
C284 C286 1.412 . S
C285 H277 0.930 . S
C285 C284 1.355 . S
C285 C288 1.402 . S
C286 C284 1.412 . S
C286 C287 1.417 . S
C286 C310 1.431 . S
C287 N283 1.350 . S
C287 C286 1.417 . S
C287 C290 1.426 . S
C288 H271 0.930 . S
C288 N283 1.307 . S
C288 C285 1.402 . S
N289 Gd252 2.601 . S
N289 C290 1.359 . S
N289 C293 1.334 . S
C290 C287 1.426 . S
C290 N289 1.359 . S
C290 C294 1.413 . S
C291 H282 0.930 . S
C291 C292 1.359 . S
C291 C293 1.394 . S
C292 C291 1.359 . S
C292 C294 1.391 . S
C292 H295 0.929 . S
C293 H275 0.930 . S
C293 N289 1.334 . S
C293 C291 1.394 . S
C294 C290 1.413 . S
C294 C292 1.391 . S
C294 C309 1.437 . S
H295 C292 0.929 . S
O296 Gd252 2.545 . S
O296 C311 1.258 . S
O297 Gd252 2.606 . S
O297 Gd253 2.362 . S
O297 C308 1.284 . S
O298 Gd253 2.324 . S
O298 C318 1.254 . S
O299 Gd252 2.429 . S
O299 C318 1.268 . S
O300 Gd252 2.545 . S
O300 C308 1.250 . S
O301 Gd252 2.412 . S
O301 C311 1.252 . S
O302 Gd253 2.545 . S
O302 C320 1.258 . S
O303 Gd252 2.362 . S
O303 Gd253 2.606 . S
O303 C319 1.284 . S
O304 Gd252 2.324 . S
O304 C327 1.254 . S
O305 Gd253 2.429 . S
O305 C327 1.268 . S
O306 Gd253 2.545 . S
O306 C319 1.250 . S
O307 Gd253 2.412 . S
O307 C320 1.252 . S
C308 O297 1.284 . S
C308 O300 1.250 . S
C309 H278 0.929 . S
C309 C294 1.437 . S
C309 C310 1.317 . S
C310 H281 0.930 . S
C310 C286 1.431 . S
C310 C309 1.317 . S
C311 Gd252 2.828 . S
C311 O296 1.258 . S
C311 O301 1.252 . S
C311 C312 1.497 . S
C312 C311 1.497 . S
C312 C313 1.395 . S
C312 C314 1.380 . S
C313 C312 1.395 . S
C313 C316 1.398 . S
C313 H328 0.930 . S
C314 C312 1.380 . S
C314 C315 1.391 . S
C314 H329 0.930 . S
C315 C314 1.391 . S
C315 C317 1.387 . S
C316 C313 1.398 . S
C316 C317 1.380 . S
C316 H330 0.930 . S
C317 C315 1.387 . S
C317 C316 1.380 . S
C317 H331 0.930 . S
C318 O298 1.254 . S
C318 O299 1.268 . S
C319 O303 1.284 . S
C319 O306 1.250 . S
C320 Gd253 2.828 . S
C320 O302 1.258 . S
C320 O307 1.252 . S
C320 C321 1.497 . S
C321 C320 1.497 . S
C321 C322 1.395 . S
C321 C323 1.380 . S
C322 C321 1.395 . S
C322 C325 1.398 . S
C322 H332 0.930 . S
C323 C321 1.380 . S
C323 C324 1.391 . S
C323 H333 0.930 . S
C324 C323 1.391 . S
C324 C326 1.387 . S
C325 C322 1.398 . S
C325 C326 1.380 . S
C325 H334 0.930 . S
C326 C324 1.387 . S
C326 C325 1.380 . S
C326 H335 0.930 . S
C327 O304 1.254 . S
C327 O305 1.268 . S
H328 C313 0.930 . S
H329 C314 0.930 . S
H330 C316 0.930 . S
H331 C317 0.930 . S
H332 C322 0.930 . S
H333 C323 0.930 . S
H334 C325 0.930 . S
H335 C326 0.930 . S
Gd336 N367 2.661 . S
Gd336 N373 2.601 . S
Gd336 O380 2.545 . S
Gd336 O381 2.606 . S
Gd336 O383 2.429 . S
Gd336 O384 2.545 . S
Gd336 O385 2.412 . S
Gd336 O387 2.362 . S
Gd336 O388 2.324 . S
Gd336 C395 2.828 . S
Gd337 N346 2.661 . S
Gd337 N350 2.601 . S
Gd337 O381 2.362 . S
Gd337 O382 2.324 . S
Gd337 O386 2.545 . S
Gd337 O387 2.606 . S
Gd337 O389 2.429 . S
Gd337 O390 2.545 . S
Gd337 O391 2.412 . S
Gd337 C404 2.828 . S
C338 C341 1.417 . S
C338 C343 1.431 . S
C338 C344 1.412 . S
C339 C342 1.437 . S
C339 C343 1.317 . S
C339 H358 0.929 . S
C340 C341 1.426 . S
C340 C342 1.413 . S
C340 N350 1.359 . S
C341 C338 1.417 . S
C341 C340 1.426 . S
C341 N346 1.350 . S
C342 C339 1.437 . S
C342 C340 1.413 . S
C342 C352 1.391 . S
C343 C338 1.431 . S
C343 C339 1.317 . S
C343 H354 0.930 1_554 S
C344 C338 1.412 . S
C344 C345 1.355 . S
C344 H356 0.930 1_554 S
C345 C344 1.355 . S
C345 C347 1.402 . S
C345 H357 0.930 . S
N346 Gd337 2.661 . S
N346 C341 1.350 . S
N346 C347 1.307 . S
C347 C345 1.402 . S
C347 N346 1.307 . S
C347 H348 0.930 . S
H348 C347 0.930 . S
C349 N350 1.334 . S
C349 C351 1.394 . S
C349 H353 0.930 . S
N350 Gd337 2.601 . S
N350 C340 1.359 . S
N350 C349 1.334 . S
C351 C349 1.394 . S
C351 C352 1.359 . S
C351 H363 0.930 . S
C352 C342 1.391 . S
C352 C351 1.359 . S
C352 H364 0.929 . S
H353 C349 0.930 . S
H354 C343 0.930 1_556 S
H355 C372 0.930 . S
H356 C344 0.930 1_556 S
H357 C345 0.930 . S
H358 C339 0.929 . S
H359 C377 0.930 . S
H360 C368 0.930 . S
H361 C369 0.930 . S
H362 C393 0.929 . S
H363 C351 0.930 . S
H364 C352 0.929 . S
H365 C394 0.930 . S
H366 C375 0.930 . S
N367 Gd336 2.661 . S
N367 C371 1.350 . S
N367 C372 1.307 . S
C368 H360 0.930 . S
C368 C369 1.355 . S
C368 C370 1.412 . S
C369 H361 0.930 . S
C369 C368 1.355 . S
C369 C372 1.402 . S
C370 C368 1.412 . S
C370 C371 1.417 . S
C370 C394 1.431 . S
C371 N367 1.350 . S
C371 C370 1.417 . S
C371 C374 1.426 . S
C372 H355 0.930 . S
C372 N367 1.307 . S
C372 C369 1.402 . S
N373 Gd336 2.601 . S
N373 C374 1.359 . S
N373 C377 1.334 . S
C374 C371 1.426 . S
C374 N373 1.359 . S
C374 C378 1.413 . S
C375 H366 0.930 . S
C375 C376 1.359 . S
C375 C377 1.394 . S
C376 C375 1.359 . S
C376 C378 1.391 . S
C376 H379 0.929 . S
C377 H359 0.930 . S
C377 N373 1.334 . S
C377 C375 1.394 . S
C378 C374 1.413 . S
C378 C376 1.391 . S
C378 C393 1.437 . S
H379 C376 0.929 . S
O380 Gd336 2.545 . S
O380 C395 1.258 . S
O381 Gd336 2.606 . S
O381 Gd337 2.362 . S
O381 C392 1.284 . S
O382 Gd337 2.324 . S
O382 C402 1.254 . S
O383 Gd336 2.429 . S
O383 C402 1.268 . S
O384 Gd336 2.545 . S
O384 C392 1.250 . S
O385 Gd336 2.412 . S
O385 C395 1.252 . S
O386 Gd337 2.545 . S
O386 C404 1.258 . S
O387 Gd336 2.362 . S
O387 Gd337 2.606 . S
O387 C403 1.284 . S
O388 Gd336 2.324 . S
O388 C411 1.254 . S
O389 Gd337 2.429 . S
O389 C411 1.268 . S
O390 Gd337 2.545 . S
O390 C403 1.250 . S
O391 Gd337 2.412 . S
O391 C404 1.252 . S
C392 O381 1.284 . S
C392 O384 1.250 . S
C393 H362 0.929 . S
C393 C378 1.437 . S
C393 C394 1.317 . S
C394 H365 0.930 . S
C394 C370 1.431 . S
C394 C393 1.317 . S
C395 Gd336 2.828 . S
C395 O380 1.258 . S
C395 O385 1.252 . S
C395 C396 1.497 . S
C396 C395 1.497 . S
C396 C397 1.395 . S
C396 C398 1.380 . S
C397 C396 1.395 . S
C397 C400 1.398 . S
C397 H412 0.930 . S
C398 C396 1.380 . S
C398 C399 1.391 . S
C398 H413 0.930 . S
C399 C398 1.391 . S
C399 C401 1.387 . S
C400 C397 1.398 . S
C400 C401 1.380 . S
C400 H414 0.930 . S
C401 C399 1.387 . S
C401 C400 1.380 . S
C401 H415 0.930 . S
C402 O382 1.254 . S
C402 O383 1.268 . S
C403 O387 1.284 . S
C403 O390 1.250 . S
C404 Gd337 2.828 . S
C404 O386 1.258 . S
C404 O391 1.252 . S
C404 C405 1.497 . S
C405 C404 1.497 . S
C405 C406 1.395 . S
C405 C407 1.380 . S
C406 C405 1.395 . S
C406 C409 1.398 . S
C406 H416 0.930 . S
C407 C405 1.380 . S
C407 C408 1.391 . S
C407 H417 0.930 . S
C408 C407 1.391 . S
C408 C410 1.387 . S
C409 C406 1.398 . S
C409 C410 1.380 . S
C409 H418 0.930 . S
C410 C408 1.387 . S
C410 C409 1.380 . S
C410 H419 0.930 . S
C411 O388 1.254 . S
C411 O389 1.268 . S
H412 C397 0.930 . S
H413 C398 0.930 . S
H414 C400 0.930 . S
H415 C401 0.930 . S
H416 C406 0.930 . S
H417 C407 0.930 . S
H418 C409 0.930 . S
H419 C410 0.930 . S
Gd420 N451 2.661 . S
Gd420 N457 2.601 . S
Gd420 O464 2.545 . S
Gd420 O465 2.606 . S
Gd420 O467 2.429 . S
Gd420 O468 2.545 . S
Gd420 O469 2.412 . S
Gd420 O471 2.362 . S
Gd420 O472 2.324 . S
Gd420 C479 2.828 . S
Gd421 N430 2.661 . S
Gd421 N434 2.601 . S
Gd421 O465 2.362 . S
Gd421 O466 2.324 . S
Gd421 O470 2.545 . S
Gd421 O471 2.606 . S
Gd421 O473 2.429 . S
Gd421 O474 2.545 . S
Gd421 O475 2.412 . S
Gd421 C488 2.828 . S
C422 C425 1.417 . S
C422 C427 1.431 . S
C422 C428 1.412 . S
C423 C426 1.437 . S
C423 C427 1.317 . S
C423 H442 0.929 . S
C424 C425 1.426 . S
C424 C426 1.413 . S
C424 N434 1.359 . S
C425 C422 1.417 . S
C425 C424 1.426 . S
C425 N430 1.350 . S
C426 C423 1.437 . S
C426 C424 1.413 . S
C426 C436 1.391 . S
C427 C422 1.431 . S
C427 C423 1.317 . S
C427 H438 0.930 . S
C428 C422 1.412 . S
C428 C429 1.355 . S
C428 H440 0.930 . S
C429 C428 1.355 . S
C429 C431 1.402 . S
C429 H441 0.930 . S
N430 Gd421 2.661 . S
N430 C425 1.350 . S
N430 C431 1.307 . S
C431 C429 1.402 . S
C431 N430 1.307 . S
C431 H432 0.930 . S
H432 C431 0.930 . S
C433 N434 1.334 . S
C433 C435 1.394 . S
C433 H437 0.930 . S
N434 Gd421 2.601 . S
N434 C424 1.359 . S
N434 C433 1.334 . S
C435 C433 1.394 . S
C435 C436 1.359 . S
C435 H447 0.943 . S
C436 C426 1.391 . S
C436 C435 1.359 . S
C436 H448 0.929 . S
H437 C433 0.930 . S
H438 C427 0.930 . S
H439 C456 0.930 . S
H440 C428 0.930 . S
H441 C429 0.930 . S
H442 C423 0.929 . S
H443 C461 0.930 . S
H444 C452 0.930 . S
H445 C453 0.930 . S
H446 C477 0.929 . S
H447 C435 0.943 . S
H448 C436 0.929 . S
H449 C478 0.930 . S
H450 C459 0.930 . S
N451 Gd420 2.661 . S
N451 C455 1.350 . S
N451 C456 1.307 . S
C452 H444 0.930 . S
C452 C453 1.355 . S
C452 C454 1.412 . S
C453 H445 0.930 . S
C453 C452 1.355 . S
C453 C456 1.402 . S
C454 C452 1.412 . S
C454 C455 1.417 . S
C454 C478 1.431 . S
C455 N451 1.350 . S
C455 C454 1.417 . S
C455 C458 1.426 . S
C456 H439 0.930 . S
C456 N451 1.307 . S
C456 C453 1.402 . S
N457 Gd420 2.601 . S
N457 C458 1.359 . S
N457 C461 1.334 . S
C458 C455 1.426 . S
C458 N457 1.359 . S
C458 C462 1.413 . S
C459 H450 0.930 . S
C459 C460 1.359 . S
C459 C461 1.394 . S
C460 C459 1.359 . S
C460 C462 1.391 . S
C460 H463 0.929 . S
C461 H443 0.930 . S
C461 N457 1.334 . S
C461 C459 1.394 . S
C462 C458 1.413 . S
C462 C460 1.391 . S
C462 C477 1.437 . S
H463 C460 0.929 . S
O464 Gd420 2.545 . S
O464 C479 1.258 . S
O465 Gd420 2.606 . S
O465 Gd421 2.362 . S
O465 C476 1.284 . S
O466 Gd421 2.324 . S
O466 C486 1.254 . S
O467 Gd420 2.429 . S
O467 C486 1.268 . S
O468 Gd420 2.545 . S
O468 C476 1.250 . S
O469 Gd420 2.412 . S
O469 C479 1.252 . S
O470 Gd421 2.545 . S
O470 C488 1.258 . S
O471 Gd420 2.362 . S
O471 Gd421 2.606 . S
O471 C487 1.284 . S
O472 Gd420 2.324 . S
O472 C495 1.254 . S
O473 Gd421 2.429 . S
O473 C495 1.268 . S
O474 Gd421 2.545 . S
O474 C487 1.250 . S
O475 Gd421 2.412 . S
O475 C488 1.252 . S
C476 O465 1.284 . S
C476 O468 1.250 . S
C477 H446 0.929 . S
C477 C462 1.437 . S
C477 C478 1.317 . S
C478 H449 0.930 . S
C478 C454 1.431 . S
C478 C477 1.317 . S
C479 Gd420 2.828 . S
C479 O464 1.258 . S
C479 O469 1.252 . S
C479 C480 1.497 . S
C480 C479 1.497 . S
C480 C481 1.395 . S
C480 C482 1.380 . S
C481 C480 1.395 . S
C481 C484 1.398 . S
C481 H496 0.930 . S
C482 C480 1.380 . S
C482 C483 1.391 . S
C482 H497 0.930 . S
C483 C482 1.391 . S
C483 C485 1.387 . S
C484 C481 1.398 . S
C484 C485 1.380 . S
C484 H498 0.930 . S
C485 C483 1.387 . S
C485 C484 1.380 . S
C485 H499 0.930 . S
C486 O466 1.254 . S
C486 O467 1.268 . S
C487 O471 1.284 . S
C487 O474 1.250 . S
C488 Gd421 2.828 . S
C488 O470 1.258 . S
C488 O475 1.252 . S
C488 C489 1.497 . S
C489 C488 1.497 . S
C489 C490 1.395 . S
C489 C491 1.380 . S
C490 C489 1.395 . S
C490 C493 1.398 . S
C490 H500 0.930 . S
C491 C489 1.380 . S
C491 C492 1.391 . S
C491 H501 0.930 . S
C492 C491 1.391 . S
C492 C494 1.387 . S
C493 C490 1.398 . S
C493 C494 1.380 . S
C493 H502 0.930 . S
C494 C492 1.387 . S
C494 C493 1.380 . S
C494 H503 0.930 . S
C495 O472 1.254 . S
C495 O473 1.268 . S
H496 C481 0.930 . S
H497 C482 0.930 . S
H498 C484 0.930 . S
H499 C485 0.930 . S
H500 C490 0.930 . S
H501 C491 0.930 . S
H502 C493 0.930 . S
H503 C494 0.930 . S
Gd504 N535 2.661 . S
Gd504 N541 2.601 . S
Gd504 O548 2.545 . S
Gd504 O549 2.606 . S
Gd504 O551 2.429 . S
Gd504 O552 2.545 . S
Gd504 O553 2.412 . S
Gd504 O555 2.362 . S
Gd504 O556 2.324 . S
Gd504 C563 2.828 . S
Gd505 N514 2.661 . S
Gd505 N518 2.601 . S
Gd505 O549 2.362 . S
Gd505 O550 2.324 . S
Gd505 O554 2.545 . S
Gd505 O555 2.606 . S
Gd505 O557 2.429 . S
Gd505 O558 2.545 . S
Gd505 O559 2.412 . S
Gd505 C572 2.828 . S
C506 C509 1.417 . S
C506 C511 1.431 . S
C506 C512 1.412 . S
C507 C510 1.437 . S
C507 C511 1.317 . S
C507 H526 0.929 . S
C508 C509 1.426 . S
C508 C510 1.413 . S
C508 N518 1.359 . S
C509 C506 1.417 . S
C509 C508 1.426 . S
C509 N514 1.350 . S
C510 C507 1.437 . S
C510 C508 1.413 . S
C510 C520 1.391 . S
C511 C506 1.431 . S
C511 C507 1.317 . S
C511 H522 0.930 . S
C512 C506 1.412 . S
C512 C513 1.355 . S
C512 H524 0.930 . S
C513 C512 1.355 . S
C513 C515 1.402 . S
C513 H525 0.930 . S
N514 Gd505 2.661 . S
N514 C509 1.350 . S
N514 C515 1.307 . S
C515 C513 1.402 . S
C515 N514 1.307 . S
C515 H516 0.930 . S
H516 C515 0.930 . S
C517 N518 1.334 . S
C517 C519 1.394 . S
C517 H521 0.930 . S
N518 Gd505 2.601 . S
N518 C508 1.359 . S
N518 C517 1.334 . S
C519 C517 1.394 . S
C519 C520 1.359 . S
C519 H531 0.930 . S
C520 C510 1.391 . S
C520 C519 1.359 . S
C520 H532 0.929 . S
H521 C517 0.930 . S
H522 C511 0.930 . S
H523 C540 0.930 . S
H524 C512 0.930 . S
H525 C513 0.930 . S
H526 C507 0.929 . S
H527 C545 0.930 . S
H528 C536 0.930 . S
H529 C537 0.930 . S
H530 C561 0.929 . S
H531 C519 0.930 . S
H532 C520 0.929 . S
H533 C562 0.930 . S
H534 C543 0.930 . S
N535 Gd504 2.661 . S
N535 C539 1.350 . S
N535 C540 1.307 . S
C536 H528 0.930 . S
C536 C537 1.355 . S
C536 C538 1.412 . S
C537 H529 0.930 . S
C537 C536 1.355 . S
C537 C540 1.402 . S
C538 C536 1.412 . S
C538 C539 1.417 . S
C538 C562 1.431 . S
C539 N535 1.350 . S
C539 C538 1.417 . S
C539 C542 1.426 . S
C540 H523 0.930 . S
C540 N535 1.307 . S
C540 C537 1.402 . S
N541 Gd504 2.601 . S
N541 C542 1.359 . S
N541 C545 1.334 . S
C542 C539 1.426 . S
C542 N541 1.359 . S
C542 C546 1.413 . S
C543 H534 0.930 . S
C543 C544 1.359 . S
C543 C545 1.394 . S
C544 C543 1.359 . S
C544 C546 1.391 . S
C544 H547 0.929 . S
C545 H527 0.930 . S
C545 N541 1.334 . S
C545 C543 1.394 . S
C546 C542 1.413 . S
C546 C544 1.391 . S
C546 C561 1.437 . S
H547 C544 0.929 . S
O548 Gd504 2.545 . S
O548 C563 1.258 . S
O549 Gd504 2.606 . S
O549 Gd505 2.362 . S
O549 C560 1.284 . S
O550 Gd505 2.324 . S
O550 C570 1.254 . S
O551 Gd504 2.429 . S
O551 C570 1.268 . S
O552 Gd504 2.545 . S
O552 C560 1.250 . S
O553 Gd504 2.412 . S
O553 C563 1.252 . S
O554 Gd505 2.545 . S
O554 C572 1.258 . S
O555 Gd504 2.362 . S
O555 Gd505 2.606 . S
O555 C571 1.284 . S
O556 Gd504 2.324 . S
O556 C579 1.254 . S
O557 Gd505 2.429 . S
O557 C579 1.268 . S
O558 Gd505 2.545 . S
O558 C571 1.250 . S
O559 Gd505 2.412 . S
O559 C572 1.252 . S
C560 O549 1.284 . S
C560 O552 1.250 . S
C561 H530 0.929 . S
C561 C546 1.437 . S
C561 C562 1.317 . S
C562 H533 0.930 . S
C562 C538 1.431 . S
C562 C561 1.317 . S
C563 Gd504 2.828 . S
C563 O548 1.258 . S
C563 O553 1.252 . S
C563 C564 1.497 . S
C564 C563 1.497 . S
C564 C565 1.395 . S
C564 C566 1.380 . S
C565 C564 1.395 . S
C565 C568 1.398 . S
C565 H580 0.930 . S
C566 C564 1.380 . S
C566 C567 1.391 . S
C566 H581 0.930 . S
C567 C566 1.391 . S
C567 C569 1.387 . S
C568 C565 1.398 . S
C568 C569 1.380 . S
C568 H582 0.930 . S
C569 C567 1.387 . S
C569 C568 1.380 . S
C569 H583 0.930 . S
C570 O550 1.254 . S
C570 O551 1.268 . S
C571 O555 1.284 . S
C571 O558 1.250 . S
C572 Gd505 2.828 . S
C572 O554 1.258 . S
C572 O559 1.252 . S
C572 C573 1.497 . S
C573 C572 1.497 . S
C573 C574 1.395 . S
C573 C575 1.380 . S
C574 C573 1.395 . S
C574 C577 1.398 . S
C574 H584 0.930 . S
C575 C573 1.380 . S
C575 C576 1.391 . S
C575 H585 0.930 . S
C576 C575 1.391 . S
C576 C578 1.387 . S
C577 C574 1.398 . S
C577 C578 1.380 . S
C577 H586 0.930 . S
C578 C576 1.387 . S
C578 C577 1.380 . S
C578 H587 0.930 . S
C579 O556 1.254 . S
C579 O557 1.268 . S
H580 C565 0.930 . S
H581 C566 0.930 . S
H582 C568 0.930 . S
H583 C569 0.930 . S
H584 C574 0.930 . S
H585 C575 0.930 . S
H586 C577 0.930 . S
H587 C578 0.930 . S
Gd588 N619 2.661 . S
Gd588 N625 2.601 . S
Gd588 O632 2.545 . S
Gd588 O633 2.606 . S
Gd588 O635 2.429 . S
Gd588 O636 2.545 . S
Gd588 O637 2.412 . S
Gd588 O639 2.362 . S
Gd588 O640 2.324 . S
Gd588 C647 2.828 . S
Gd589 N598 2.661 . S
Gd589 N602 2.601 . S
Gd589 O633 2.362 . S
Gd589 O634 2.324 . S
Gd589 O638 2.545 . S
Gd589 O639 2.606 . S
Gd589 O641 2.429 . S
Gd589 O642 2.545 . S
Gd589 O643 2.412 . S
Gd589 C656 2.828 . S
C590 C593 1.417 1_455 S
C590 C595 1.431 . S
C590 C596 1.412 . S
C591 C594 1.437 1_455 S
C591 C595 1.317 . S
C591 H610 0.929 . S
C592 C593 1.426 . S
C592 C594 1.413 . S
C592 N602 1.359 . S
C593 C590 1.417 1_655 S
C593 C592 1.426 . S
C593 N598 1.350 . S
C594 C591 1.437 1_655 S
C594 C592 1.413 . S
C594 C604 1.391 . S
C595 C590 1.431 . S
C595 C591 1.317 . S
C595 H606 0.930 . S
C596 C590 1.412 . S
C596 C597 1.355 . S
C596 H608 0.930 . S
C597 C596 1.355 . S
C597 C599 1.402 1_455 S
C597 H609 0.930 . S
N598 Gd589 2.661 . S
N598 C593 1.350 . S
N598 C599 1.307 . S
C599 C597 1.402 1_655 S
C599 N598 1.307 . S
C599 H600 0.930 . S
H600 C599 0.930 . S
C601 N602 1.334 . S
C601 C603 1.394 . S
C601 H605 0.930 . S
N602 Gd589 2.601 . S
N602 C592 1.359 . S
N602 C601 1.334 . S
C603 C601 1.394 . S
C603 C604 1.359 . S
C603 H615 0.930 . S
C604 C594 1.391 . S
C604 C603 1.359 . S
C604 H616 0.929 . S
H605 C601 0.930 . S
H606 C595 0.930 . S
H607 C624 0.930 . S
H608 C596 0.930 . S
H609 C597 0.930 . S
H610 C591 0.929 . S
H611 C629 0.930 . S
H612 C620 0.930 . S
H613 C621 0.930 . S
H614 C645 0.929 . S
H615 C603 0.930 . S
H616 C604 0.929 . S
H617 C646 0.930 . S
H618 C627 0.930 . S
N619 Gd588 2.661 . S
N619 C623 1.350 . S
N619 C624 1.307 . S
C620 H612 0.930 . S
C620 C621 1.355 . S
C620 C622 1.412 . S
C621 H613 0.930 . S
C621 C620 1.355 . S
C621 C624 1.402 . S
C622 C620 1.412 . S
C622 C623 1.417 . S
C622 C646 1.431 . S
C623 N619 1.350 . S
C623 C622 1.417 . S
C623 C626 1.426 . S
C624 H607 0.930 . S
C624 N619 1.307 . S
C624 C621 1.402 . S
N625 Gd588 2.601 . S
N625 C626 1.359 . S
N625 C629 1.334 . S
C626 C623 1.426 . S
C626 N625 1.359 . S
C626 C630 1.413 . S
C627 H618 0.930 . S
C627 C628 1.359 . S
C627 C629 1.394 . S
C628 C627 1.359 . S
C628 C630 1.391 . S
C628 H631 0.929 . S
C629 H611 0.930 . S
C629 N625 1.334 . S
C629 C627 1.394 . S
C630 C626 1.413 . S
C630 C628 1.391 . S
C630 C645 1.437 . S
H631 C628 0.929 . S
O632 Gd588 2.545 . S
O632 C647 1.258 . S
O633 Gd588 2.606 . S
O633 Gd589 2.362 . S
O633 C644 1.284 . S
O634 Gd589 2.324 . S
O634 C654 1.254 . S
O635 Gd588 2.429 . S
O635 C654 1.268 . S
O636 Gd588 2.545 . S
O636 C644 1.250 . S
O637 Gd588 2.412 . S
O637 C647 1.252 . S
O638 Gd589 2.545 . S
O638 C656 1.258 . S
O639 Gd588 2.362 . S
O639 Gd589 2.606 . S
O639 C655 1.284 . S
O640 Gd588 2.324 . S
O640 C663 1.254 . S
O641 Gd589 2.429 . S
O641 C663 1.268 . S
O642 Gd589 2.545 . S
O642 C655 1.250 . S
O643 Gd589 2.412 . S
O643 C656 1.252 . S
C644 O633 1.284 . S
C644 O636 1.250 . S
C645 H614 0.929 . S
C645 C630 1.437 . S
C645 C646 1.317 . S
C646 H617 0.930 . S
C646 C622 1.431 . S
C646 C645 1.317 . S
C647 Gd588 2.828 . S
C647 O632 1.258 . S
C647 O637 1.252 . S
C647 C648 1.497 . S
C648 C647 1.497 . S
C648 C649 1.395 . S
C648 C650 1.380 . S
C649 C648 1.395 . S
C649 C652 1.398 . S
C649 H664 0.930 . S
C650 C648 1.380 . S
C650 C651 1.391 . S
C650 H665 0.930 . S
C651 C650 1.391 . S
C651 C653 1.387 . S
C652 C649 1.398 . S
C652 C653 1.380 . S
C652 H666 0.930 . S
C653 C651 1.387 . S
C653 C652 1.380 . S
C653 H667 0.930 . S
C654 O634 1.254 . S
C654 O635 1.268 . S
C655 O639 1.284 . S
C655 O642 1.250 . S
C656 Gd589 2.828 . S
C656 O638 1.258 . S
C656 O643 1.252 . S
C656 C657 1.497 . S
C657 C656 1.497 . S
C657 C658 1.395 . S
C657 C659 1.380 . S
C658 C657 1.395 . S
C658 C661 1.407 . S
C658 H668 0.930 . S
C659 C657 1.380 . S
C659 C660 1.391 1_556 S
C659 H669 0.930 . S
C660 C659 1.391 1_554 S
C660 C662 1.387 . S
C661 C658 1.407 . S
C661 C662 1.375 1_556 S
C661 H670 0.926 1_556 S
C662 C660 1.387 . S
C662 C661 1.375 1_554 S
C662 H671 0.930 . S
C663 O640 1.254 . S
C663 O641 1.268 . S
H664 C649 0.930 . S
H665 C650 0.930 . S
H666 C652 0.930 . S
H667 C653 0.930 . S
H668 C658 0.930 . S
H669 C659 0.930 . S
H670 C661 0.926 1_554 S
H671 C662 0.930 . S
Gd672 N703 2.661 . S
Gd672 N709 2.601 . S
Gd672 O716 2.545 . S
Gd672 O717 2.606 . S
Gd672 O719 2.429 . S
Gd672 O720 2.545 . S
Gd672 O721 2.412 . S
Gd672 O723 2.362 . S
Gd672 O724 2.324 . S
Gd672 C731 2.840 . S
Gd673 N682 2.661 . S
Gd673 N686 2.601 . S
Gd673 O717 2.362 . S
Gd673 O718 2.324 . S
Gd673 O722 2.545 . S
Gd673 O723 2.606 . S
Gd673 O725 2.429 . S
Gd673 O726 2.545 . S
Gd673 O727 2.412 . S
Gd673 C740 2.828 . S
C674 C677 1.417 . S
C674 C679 1.431 . S
C674 C680 1.412 . S
C675 C678 1.437 . S
C675 C679 1.317 . S
C675 H694 0.929 . S
C676 C677 1.426 . S
C676 C678 1.413 . S
C676 N686 1.359 . S
C677 C674 1.417 . S
C677 C676 1.426 . S
C677 N682 1.350 . S
C678 C675 1.437 . S
C678 C676 1.413 . S
C678 C688 1.391 . S
C679 C674 1.431 . S
C679 C675 1.317 . S
C679 H690 0.930 . S
C680 C674 1.412 . S
C680 C681 1.355 . S
C680 H692 0.930 . S
C681 C680 1.355 . S
C681 C683 1.402 . S
C681 H693 0.930 . S
N682 Gd673 2.661 . S
N682 C677 1.350 . S
N682 C683 1.307 . S
C683 C681 1.402 . S
C683 N682 1.307 . S
C683 H684 0.930 . S
H684 C683 0.930 . S
C685 N686 1.334 . S
C685 C687 1.394 . S
C685 H689 0.930 . S
N686 Gd673 2.601 . S
N686 C676 1.359 . S
N686 C685 1.334 . S
C687 C685 1.394 . S
C687 C688 1.359 . S
C687 H699 0.930 . S
C688 C678 1.391 . S
C688 C687 1.359 . S
C688 H700 0.929 . S
H689 C685 0.930 . S
H690 C679 0.930 . S
H691 C708 0.930 . S
H692 C680 0.930 . S
H693 C681 0.930 . S
H694 C675 0.929 . S
H695 C713 0.930 . S
H696 C704 0.930 . S
H697 C705 0.930 . S
H698 C729 0.929 . S
H699 C687 0.930 . S
H700 C688 0.929 . S
H701 C730 0.924 1_455 S
H702 C711 0.930 . S
N703 Gd672 2.661 . S
N703 C707 1.350 . S
N703 C708 1.307 . S
C704 H696 0.930 . S
C704 C705 1.355 . S
C704 C706 1.412 . S
C705 H697 0.930 . S
C705 C704 1.355 . S
C705 C708 1.402 . S
C706 C704 1.412 . S
C706 C707 1.417 . S
C706 C730 1.431 . S
C707 N703 1.350 . S
C707 C706 1.417 . S
C707 C710 1.426 . S
C708 H691 0.930 . S
C708 N703 1.307 . S
C708 C705 1.402 . S
N709 Gd672 2.601 . S
N709 C710 1.359 . S
N709 C713 1.334 . S
C710 C707 1.426 . S
C710 N709 1.359 . S
C710 C714 1.413 . S
C711 H702 0.930 . S
C711 C712 1.359 . S
C711 C713 1.394 . S
C712 C711 1.359 . S
C712 C714 1.391 . S
C712 H715 0.929 . S
C713 H695 0.930 . S
C713 N709 1.334 . S
C713 C711 1.394 . S
C714 C710 1.413 . S
C714 C712 1.391 . S
C714 C729 1.437 . S
H715 C712 0.929 . S
O716 Gd672 2.545 . S
O716 C731 1.265 . S
O717 Gd672 2.606 . S
O717 Gd673 2.362 . S
O717 C728 1.284 . S
O718 Gd673 2.324 . S
O718 C738 1.254 . S
O719 Gd672 2.429 . S
O719 C738 1.268 . S
O720 Gd672 2.545 . S
O720 C728 1.250 . S
O721 Gd672 2.412 . S
O721 C731 1.256 . S
O722 Gd673 2.545 . S
O722 C740 1.258 . S
O723 Gd672 2.362 . S
O723 Gd673 2.606 . S
O723 C739 1.284 . S
O724 Gd672 2.324 . S
O724 C747 1.254 . S
O725 Gd673 2.429 . S
O725 C747 1.268 . S
O726 Gd673 2.545 . S
O726 C739 1.250 . S
O727 Gd673 2.412 . S
O727 C740 1.252 . S
C728 O717 1.284 . S
C728 O720 1.250 . S
C729 H698 0.929 . S
C729 C714 1.437 . S
C729 C730 1.317 . S
C730 H701 0.924 1_655 S
C730 C706 1.431 . S
C730 C729 1.317 . S
C731 Gd672 2.840 . S
C731 O716 1.265 . S
C731 O721 1.256 . S
C731 C732 1.485 1_556 S
C732 C731 1.485 1_554 S
C732 C733 1.395 . S
C732 C734 1.380 . S
C733 C732 1.395 . S
C733 C736 1.398 . S
C733 H748 0.930 . S
C734 C732 1.380 . S
C734 C735 1.391 . S
C734 H749 0.930 . S
C735 C734 1.391 . S
C735 C737 1.387 . S
C736 C733 1.398 . S
C736 C737 1.380 . S
C736 H750 0.930 . S
C737 C735 1.387 . S
C737 C736 1.380 . S
C737 H751 0.930 . S
C738 O718 1.254 . S
C738 O719 1.268 . S
C739 O723 1.284 . S
C739 O726 1.250 . S
C740 Gd673 2.828 . S
C740 O722 1.258 . S
C740 O727 1.252 . S
C740 C741 1.497 . S
C741 C740 1.497 . S
C741 C742 1.395 . S
C741 C743 1.380 . S
C742 C741 1.395 . S
C742 C745 1.398 . S
C742 H752 0.930 . S
C743 C741 1.380 . S
C743 C744 1.391 . S
C743 H753 0.930 . S
C744 C743 1.391 . S
C744 C746 1.387 . S
C745 C742 1.398 . S
C745 C746 1.380 . S
C745 H754 0.930 . S
C746 C744 1.387 . S
C746 C745 1.380 . S
C746 H755 0.930 . S
C747 O724 1.254 . S
C747 O725 1.268 . S
H748 C733 0.930 . S
H749 C734 0.930 . S
H750 C736 0.930 . S
H751 C737 0.930 . S
H752 C742 0.930 . S
H753 C743 0.930 . S
H754 C745 0.930 . S
H755 C746 0.930 . S
H756 C774 0.951 . S
H757 C776 0.951 . S
H758 C778 0.950 . S
H759 C779 0.950 . S
H760 C781 0.950 . S
H761 C784 0.950 . S
H762 C785 0.950 . S
H763 C787 0.950 . S
H764 C788 0.950 . S
H765 C789 0.951 . S
H766 C791 0.951 . S
H767 C793 0.950 . S
H768 C794 0.950 . S
H769 C796 0.950 . S
H770 C799 0.950 . S
H771 C800 0.950 . S
H772 C802 0.950 . S
H773 C803 0.950 1_455 S
C774 H756 0.951 . S
C774 C775 1.366 . S
C774 C776 1.388 . S
C775 C774 1.366 . S
C775 C779 1.385 . S
C776 H757 0.951 . S
C776 C774 1.388 . S
C776 C777 1.366 . S
C777 C776 1.366 . S
C777 C778 1.414 . S
C777 C780 1.499 . S
C778 H758 0.950 . S
C778 C777 1.414 . S
C778 C779 1.374 . S
C779 H759 0.950 . S
C779 C775 1.385 . S
C779 C778 1.374 . S
C780 C777 1.499 . S
C780 C781 1.373 . S
C780 C782 1.389 . S
C781 H760 0.950 . S
C781 C780 1.373 . S
C781 C797 1.377 . S
C782 C780 1.389 . S
C782 C783 1.524 . S
C782 C796 1.377 . S
C783 C782 1.524 . S
C783 C784 1.397 . S
C783 C788 1.363 . S
C784 H761 0.950 . S
C784 C783 1.397 . S
C784 C785 1.334 . S
C785 H762 0.950 . S
C785 C784 1.334 . S
C785 C786 1.287 . S
C786 C785 1.287 . S
C786 C787 1.524 . S
C786 H805 0.913 . S
C787 H763 0.950 . S
C787 C786 1.524 . S
C787 C788 1.415 . S
C788 H764 0.950 . S
C788 C783 1.363 . S
C788 C787 1.415 . S
C789 H765 0.951 . S
C789 C790 1.366 . S
C789 C791 1.388 . S
C790 C789 1.366 . S
C790 C794 1.385 . S
C791 H766 0.951 . S
C791 C789 1.388 . S
C791 C792 1.366 . S
C792 C791 1.366 . S
C792 C793 1.414 . S
C792 C795 1.499 . S
C793 H767 0.950 . S
C793 C792 1.414 . S
C793 C794 1.374 . S
C794 H768 0.950 . S
C794 C790 1.385 . S
C794 C793 1.374 . S
C795 C792 1.499 . S
C795 C796 1.373 . S
C795 C797 1.389 . S
C796 H769 0.950 . S
C796 C782 1.377 . S
C796 C795 1.373 . S
C797 C781 1.377 . S
C797 C795 1.389 . S
C797 C798 1.547 . S
C798 C797 1.547 . S
C798 C799 1.390 1_455 S
C798 C803 1.347 1_455 S
C799 H770 0.950 . S
C799 C798 1.390 1_655 S
C799 C800 1.334 . S
C800 H771 0.950 . S
C800 C799 1.334 . S
C800 C801 1.287 . S
C801 C800 1.287 . S
C801 C802 1.524 . S
C801 H804 0.999 . S
C802 H772 0.950 . S
C802 C801 1.524 . S
C802 C803 1.415 . S
C803 H773 0.950 1_655 S
C803 C798 1.347 1_655 S
C803 C802 1.415 . S
H804 C801 0.999 . S
H805 C786 0.913 . S
H806 C824 0.951 . S
H807 C826 0.951 . S
H808 C828 0.950 . S
H809 C829 0.950 . S
H810 C831 0.950 . S
H811 C834 0.950 . S
H812 C835 0.950 . S
H813 C837 0.950 . S
H814 C838 0.950 . S
H815 C839 0.951 . S
H816 C841 0.951 . S
H817 C843 0.950 . S
H818 C844 0.950 . S
H819 C846 0.950 . S
H820 C849 0.950 . S
H821 C850 0.950 . S
H822 C852 0.950 . S
H823 C853 0.950 . S
C824 H806 0.951 . S
C824 C825 1.366 . S
C824 C826 1.388 . S
C825 C824 1.366 . S
C825 C829 1.385 . S
C826 H807 0.951 . S
C826 C824 1.388 . S
C826 C827 1.366 . S
C827 C826 1.366 . S
C827 C828 1.414 . S
C827 C830 1.499 . S
C828 H808 0.950 . S
C828 C827 1.414 . S
C828 C829 1.374 . S
C829 H809 0.950 . S
C829 C825 1.385 . S
C829 C828 1.374 . S
C830 C827 1.499 . S
C830 C831 1.373 . S
C830 C832 1.389 . S
C831 H810 0.950 . S
C831 C830 1.373 . S
C831 C847 1.377 . S
C832 C830 1.389 . S
C832 C833 1.524 . S
C832 C846 1.377 . S
C833 C832 1.524 . S
C833 C834 1.397 . S
C833 C838 1.363 . S
C834 H811 0.950 . S
C834 C833 1.397 . S
C834 C835 1.334 . S
C835 H812 0.950 . S
C835 C834 1.334 . S
C835 C836 1.287 . S
C836 C835 1.287 . S
C836 C837 1.524 . S
C836 H855 0.913 . S
C837 H813 0.950 . S
C837 C836 1.524 . S
C837 C838 1.415 . S
C838 H814 0.950 . S
C838 C833 1.363 . S
C838 C837 1.415 . S
C839 H815 0.951 . S
C839 C840 1.366 . S
C839 C841 1.388 . S
C840 C839 1.366 . S
C840 C844 1.385 . S
C841 H816 0.951 . S
C841 C839 1.388 . S
C841 C842 1.366 . S
C842 C841 1.366 . S
C842 C843 1.414 . S
C842 C845 1.499 . S
C843 H817 0.950 . S
C843 C842 1.414 . S
C843 C844 1.374 . S
C844 H818 0.950 . S
C844 C840 1.385 . S
C844 C843 1.374 . S
C845 C842 1.499 . S
C845 C846 1.373 . S
C845 C847 1.389 . S
C846 H819 0.950 . S
C846 C832 1.377 . S
C846 C845 1.373 . S
C847 C831 1.377 . S
C847 C845 1.389 . S
C847 C848 1.524 . S
C848 C847 1.524 . S
C848 C849 1.397 . S
C848 C853 1.363 . S
C849 H820 0.950 . S
C849 C848 1.397 . S
C849 C850 1.334 . S
C850 H821 0.950 . S
C850 C849 1.334 . S
C850 C851 1.287 . S
C851 C850 1.287 . S
C851 C852 1.524 . S
C851 H854 0.999 . S
C852 H822 0.950 . S
C852 C851 1.524 . S
C852 C853 1.415 . S
C853 H823 0.950 . S
C853 C848 1.363 . S
C853 C852 1.415 . S
H854 C851 0.999 . S
H855 C836 0.913 . S
H856 C874 0.951 . S
H857 C876 0.951 . S
H858 C878 0.950 . S
H859 C879 0.950 . S
H860 C881 0.950 . S
H861 C884 0.950 . S
H862 C885 0.950 . S
H863 C887 0.950 . S
H864 C888 0.950 . S
H865 C889 0.951 . S
H866 C891 0.951 . S
H867 C893 0.950 . S
H868 C894 0.950 . S
H869 C896 0.950 . S
H870 C899 0.950 . S
H871 C900 0.950 . S
H872 C902 0.950 . S
H873 C903 0.950 . S
C874 H856 0.951 . S
C874 C875 1.366 . S
C874 C876 1.388 . S
C875 C874 1.366 . S
C875 C879 1.385 . S
C876 H857 0.951 . S
C876 C874 1.388 . S
C876 C877 1.366 . S
C877 C876 1.366 . S
C877 C878 1.414 . S
C877 C880 1.499 . S
C878 H858 0.950 . S
C878 C877 1.414 . S
C878 C879 1.374 . S
C879 H859 0.950 . S
C879 C875 1.385 . S
C879 C878 1.374 . S
C880 C877 1.499 . S
C880 C881 1.373 . S
C880 C882 1.389 . S
C881 H860 0.950 . S
C881 C880 1.373 . S
C881 C897 1.377 . S
C882 C880 1.389 . S
C882 C883 1.524 . S
C882 C896 1.377 . S
C883 C882 1.524 . S
C883 C884 1.397 . S
C883 C888 1.363 . S
C884 H861 0.950 . S
C884 C883 1.397 . S
C884 C885 1.334 . S
C885 H862 0.950 . S
C885 C884 1.334 . S
C885 C886 1.287 . S
C886 C885 1.287 . S
C886 C887 1.524 . S
C886 H905 0.913 . S
C887 H863 0.950 . S
C887 C886 1.524 . S
C887 C888 1.415 . S
C888 H864 0.950 . S
C888 C883 1.363 . S
C888 C887 1.415 . S
C889 H865 0.951 . S
C889 C890 1.366 . S
C889 C891 1.388 . S
C890 C889 1.366 . S
C890 C894 1.385 . S
C891 H866 0.951 . S
C891 C889 1.388 . S
C891 C892 1.366 . S
C892 C891 1.366 . S
C892 C893 1.414 . S
C892 C895 1.499 . S
C893 H867 0.950 . S
C893 C892 1.414 . S
C893 C894 1.374 . S
C894 H868 0.950 . S
C894 C890 1.385 . S
C894 C893 1.374 . S
C895 C892 1.499 . S
C895 C896 1.373 . S
C895 C897 1.389 . S
C896 H869 0.950 . S
C896 C882 1.377 . S
C896 C895 1.373 . S
C897 C881 1.377 . S
C897 C895 1.389 . S
C897 C898 1.524 . S
C898 C897 1.524 . S
C898 C899 1.397 . S
C898 C903 1.363 . S
C899 H870 0.950 . S
C899 C898 1.397 . S
C899 C900 1.334 . S
C900 H871 0.950 . S
C900 C899 1.334 . S
C900 C901 1.287 . S
C901 C900 1.287 . S
C901 C902 1.524 . S
C901 H904 0.999 . S
C902 H872 0.950 . S
C902 C901 1.524 . S
C902 C903 1.415 . S
C903 H873 0.950 . S
C903 C898 1.363 . S
C903 C902 1.415 . S
H904 C901 0.999 . S
H905 C886 0.913 . S
H906 C924 0.951 . S
H907 C926 0.951 . S
H908 C928 0.950 . S
H909 C929 0.950 . S
H910 C931 0.950 . S
H911 C934 0.950 . S
H912 C935 0.950 . S
H913 C937 0.950 . S
H914 C938 0.950 . S
H915 C939 0.951 1_554 S
H916 C941 0.951 . S
H917 C943 0.950 . S
H918 C944 0.950 1_554 S
H919 C946 0.950 . S
H920 C949 0.950 . S
H921 C950 0.950 . S
H922 C952 0.950 . S
H923 C953 0.950 . S
C924 H906 0.951 . S
C924 C925 1.366 . S
C924 C926 1.388 . S
C925 C924 1.366 . S
C925 C929 1.385 . S
C926 H907 0.951 . S
C926 C924 1.388 . S
C926 C927 1.366 . S
C927 C926 1.366 . S
C927 C928 1.414 . S
C927 C930 1.499 . S
C928 H908 0.950 . S
C928 C927 1.414 . S
C928 C929 1.374 . S
C929 H909 0.950 . S
C929 C925 1.385 . S
C929 C928 1.374 . S
C930 C927 1.499 . S
C930 C931 1.373 . S
C930 C932 1.389 . S
C931 H910 0.950 . S
C931 C930 1.373 . S
C931 C947 1.377 . S
C932 C930 1.389 . S
C932 C933 1.524 . S
C932 C946 1.377 . S
C933 C932 1.524 . S
C933 C934 1.397 . S
C933 C938 1.363 . S
C934 H911 0.950 . S
C934 C933 1.397 . S
C934 C935 1.334 . S
C935 H912 0.950 . S
C935 C934 1.334 . S
C935 C936 1.287 . S
C936 C935 1.287 . S
C936 C937 1.524 . S
C936 H955 0.913 . S
C937 H913 0.950 . S
C937 C936 1.524 . S
C937 C938 1.415 . S
C938 H914 0.950 . S
C938 C933 1.363 . S
C938 C937 1.415 . S
C939 H915 0.951 1_556 S
C939 C940 1.366 1_556 S
C939 C941 1.388 . S
C940 C939 1.366 1_554 S
C940 C944 1.385 1_554 S
C941 H916 0.951 . S
C941 C939 1.388 . S
C941 C942 1.366 . S
C942 C941 1.366 . S
C942 C943 1.414 . S
C942 C945 1.499 . S
C943 H917 0.950 . S
C943 C942 1.414 . S
C943 C944 1.374 . S
C944 H918 0.950 1_556 S
C944 C940 1.385 1_556 S
C944 C943 1.374 . S
C945 C942 1.499 . S
C945 C946 1.373 . S
C945 C947 1.389 . S
C946 H919 0.950 . S
C946 C932 1.377 . S
C946 C945 1.373 . S
C947 C931 1.377 . S
C947 C945 1.389 . S
C947 C948 1.524 . S
C948 C947 1.524 . S
C948 C949 1.397 . S
C948 C953 1.363 . S
C949 H920 0.950 . S
C949 C948 1.397 . S
C949 C950 1.334 . S
C950 H921 0.950 . S
C950 C949 1.334 . S
C950 C951 1.287 . S
C951 C950 1.287 . S
C951 C952 1.524 . S
C951 H954 0.999 . S
C952 H922 0.950 . S
C952 C951 1.524 . S
C952 C953 1.415 . S
C953 H923 0.950 . S
C953 C948 1.363 . S
C953 C952 1.415 . S
H954 C951 0.999 . S
H955 C936 0.913 . S
H956 C974 0.951 . S
H957 C976 0.951 . S
H958 C978 0.950 . S
H959 C979 0.950 . S
H960 C981 0.950 . S
H961 C984 0.950 . S
H962 C985 0.950 . S
H963 C987 0.950 . S
H964 C988 0.950 . S
H965 C989 0.951 . S
H966 C991 0.951 . S
H967 C993 0.950 . S
H968 C994 0.950 . S
H969 C996 0.950 . S
H970 C999 0.950 . S
H971 C1000 0.950 . S
H972 C1002 0.950 . S
H973 C1003 0.950 . S
C974 H956 0.951 . S
C974 C975 1.366 . S
C974 C976 1.388 . S
C975 C974 1.366 . S
C975 C979 1.385 . S
C976 H957 0.951 . S
C976 C974 1.388 . S
C976 C977 1.366 . S
C977 C976 1.366 . S
C977 C978 1.414 . S
C977 C980 1.499 . S
C978 H958 0.950 . S
C978 C977 1.414 . S
C978 C979 1.374 . S
C979 H959 0.950 . S
C979 C975 1.385 . S
C979 C978 1.374 . S
C980 C977 1.499 . S
C980 C981 1.373 . S
C980 C982 1.389 . S
C981 H960 0.950 . S
C981 C980 1.373 . S
C981 C997 1.377 . S
C982 C980 1.389 . S
C982 C983 1.524 . S
C982 C996 1.377 . S
C983 C982 1.524 . S
C983 C984 1.397 . S
C983 C988 1.363 . S
C984 H961 0.950 . S
C984 C983 1.397 . S
C984 C985 1.334 . S
C985 H962 0.950 . S
C985 C984 1.334 . S
C985 C986 1.287 . S
C986 C985 1.287 . S
C986 C987 1.524 . S
C986 H1005 0.913 . S
C987 H963 0.950 . S
C987 C986 1.524 . S
C987 C988 1.415 . S
C988 H964 0.950 . S
C988 C983 1.363 . S
C988 C987 1.415 . S
C989 H965 0.951 . S
C989 C990 1.366 . S
C989 C991 1.388 . S
C990 C989 1.366 . S
C990 C994 1.385 . S
C991 H966 0.951 . S
C991 C989 1.388 . S
C991 C992 1.366 . S
C992 C991 1.366 . S
C992 C993 1.414 . S
C992 C995 1.499 . S
C993 H967 0.950 . S
C993 C992 1.414 . S
C993 C994 1.374 . S
C994 H968 0.950 . S
C994 C990 1.385 . S
C994 C993 1.374 . S
C995 C992 1.499 . S
C995 C996 1.373 . S
C995 C997 1.389 . S
C996 H969 0.950 . S
C996 C982 1.377 . S
C996 C995 1.373 . S
C997 C981 1.377 . S
C997 C995 1.389 . S
C997 C998 1.524 . S
C998 C997 1.524 . S
C998 C999 1.397 . S
C998 C1003 1.363 . S
C999 H970 0.950 . S
C999 C998 1.397 . S
C999 C1000 1.334 . S
C1000 H971 0.950 . S
C1000 C999 1.334 . S
C1000 C1001 1.287 . S
C1001 C1000 1.287 . S
C1001 C1002 1.524 . S
C1001 H1004 0.999 . S
C1002 H972 0.950 . S
C1002 C1001 1.524 . S
C1002 C1003 1.415 . S
C1003 H973 0.950 . S
C1003 C998 1.363 . S
C1003 C1002 1.415 . S
H1004 C1001 0.999 . S
H1005 C986 0.913 . S
H1006 C1024 0.951 . S
H1007 C1026 0.951 . S
H1008 C1028 0.950 . S
H1009 C1029 0.950 . S
H1010 C1031 0.950 . S
H1011 C1034 0.950 . S
H1012 C1035 0.950 . S
H1013 C1037 0.950 . S
H1014 C1038 0.950 . S
H1015 C1039 0.951 . S
H1016 C1041 0.951 . S
H1017 C1043 0.950 . S
H1018 C1044 0.950 . S
H1019 C1046 0.950 . S
H1020 C1049 0.950 . S
H1021 C1050 0.950 . S
H1022 C1052 0.950 . S
H1023 C1053 0.950 . S
C1024 H1006 0.951 . S
C1024 C1025 1.366 . S
C1024 C1026 1.388 . S
C1025 C1024 1.366 . S
C1025 C1029 1.385 . S
C1026 H1007 0.951 . S
C1026 C1024 1.388 . S
C1026 C1027 1.366 . S
C1027 C1026 1.366 . S
C1027 C1028 1.414 . S
C1027 C1030 1.499 . S
C1028 H1008 0.950 . S
C1028 C1027 1.414 . S
C1028 C1029 1.374 . S
C1029 H1009 0.950 . S
C1029 C1025 1.385 . S
C1029 C1028 1.374 . S
C1030 C1027 1.499 . S
C1030 C1031 1.373 . S
C1030 C1032 1.389 . S
C1031 H1010 0.950 . S
C1031 C1030 1.373 . S
C1031 C1047 1.377 . S
C1032 C1030 1.389 . S
C1032 C1033 1.524 . S
C1032 C1046 1.377 . S
C1033 C1032 1.524 . S
C1033 C1034 1.397 . S
C1033 C1038 1.363 . S
C1034 H1011 0.950 . S
C1034 C1033 1.397 . S
C1034 C1035 1.334 . S
C1035 H1012 0.950 . S
C1035 C1034 1.334 . S
C1035 C1036 1.287 . S
C1036 C1035 1.287 . S
C1036 C1037 1.524 . S
C1036 H1055 0.913 . S
C1037 H1013 0.950 . S
C1037 C1036 1.524 . S
C1037 C1038 1.415 . S
C1038 H1014 0.950 . S
C1038 C1033 1.363 . S
C1038 C1037 1.415 . S
C1039 H1015 0.951 . S
C1039 C1040 1.366 . S
C1039 C1041 1.388 . S
C1040 C1039 1.366 . S
C1040 C1044 1.385 . S
C1041 H1016 0.951 . S
C1041 C1039 1.388 . S
C1041 C1042 1.366 . S
C1042 C1041 1.366 . S
C1042 C1043 1.414 . S
C1042 C1045 1.499 . S
C1043 H1017 0.950 . S
C1043 C1042 1.414 . S
C1043 C1044 1.374 . S
C1044 H1018 0.950 . S
C1044 C1040 1.385 . S
C1044 C1043 1.374 . S
C1045 C1042 1.499 . S
C1045 C1046 1.373 . S
C1045 C1047 1.389 . S
C1046 H1019 0.950 . S
C1046 C1032 1.377 . S
C1046 C1045 1.373 . S
C1047 C1031 1.377 . S
C1047 C1045 1.389 . S
C1047 C1048 1.524 . S
C1048 C1047 1.524 . S
C1048 C1049 1.397 . S
C1048 C1053 1.363 . S
C1049 H1020 0.950 . S
C1049 C1048 1.397 . S
C1049 C1050 1.334 . S
C1050 H1021 0.950 . S
C1050 C1049 1.334 . S
C1050 C1051 1.287 . S
C1051 C1050 1.287 . S
C1051 C1052 1.524 . S
C1051 H1054 0.999 . S
C1052 H1022 0.950 . S
C1052 C1051 1.524 . S
C1052 C1053 1.415 . S
C1053 H1023 0.950 . S
C1053 C1048 1.363 . S
C1053 C1052 1.415 . S
H1054 C1051 0.999 . S
H1055 C1036 0.913 . S
H1056 C1074 0.951 . S
H1057 C1076 0.951 . S
H1058 C1078 0.950 . S
H1059 C1079 0.950 . S
H1060 C1081 0.950 . S
H1061 C1084 0.950 . S
H1062 C1085 0.950 . S
H1063 C1087 0.950 . S
H1064 C1088 0.950 . S
H1065 C1089 0.951 . S
H1066 C1091 0.951 . S
H1067 C1093 0.950 . S
H1068 C1094 0.950 . S
H1069 C1096 0.950 1_556 S
H1070 C1099 0.950 . S
H1071 C1100 0.950 . S
H1072 C1102 0.950 . S
H1073 C1103 0.950 . S
C1074 H1056 0.951 . S
C1074 C1075 1.366 . S
C1074 C1076 1.388 . S
C1075 C1074 1.366 . S
C1075 C1079 1.385 . S
C1076 H1057 0.951 . S
C1076 C1074 1.388 . S
C1076 C1077 1.366 . S
C1077 C1076 1.366 . S
C1077 C1078 1.414 . S
C1077 C1080 1.499 . S
C1078 H1058 0.950 . S
C1078 C1077 1.414 . S
C1078 C1079 1.374 . S
C1079 H1059 0.950 . S
C1079 C1075 1.385 . S
C1079 C1078 1.374 . S
C1080 C1077 1.499 . S
C1080 C1081 1.373 . S
C1080 C1082 1.389 . S
C1081 H1060 0.950 . S
C1081 C1080 1.373 . S
C1081 C1097 1.377 . S
C1082 C1080 1.389 . S
C1082 C1083 1.524 . S
C1082 C1096 1.377 . S
C1083 C1082 1.524 . S
C1083 C1084 1.397 . S
C1083 C1088 1.363 . S
C1084 H1061 0.950 . S
C1084 C1083 1.397 . S
C1084 C1085 1.334 . S
C1085 H1062 0.950 . S
C1085 C1084 1.334 . S
C1085 C1086 1.287 . S
C1086 C1085 1.287 . S
C1086 C1087 1.524 . S
C1086 H1105 0.913 . S
C1087 H1063 0.950 . S
C1087 C1086 1.524 . S
C1087 C1088 1.415 . S
C1088 H1064 0.950 . S
C1088 C1083 1.363 . S
C1088 C1087 1.415 . S
C1089 H1065 0.951 . S
C1089 C1090 1.366 . S
C1089 C1091 1.388 . S
C1090 C1089 1.366 . S
C1090 C1094 1.385 . S
C1091 H1066 0.951 . S
C1091 C1089 1.388 . S
C1091 C1092 1.366 . S
C1092 C1091 1.366 . S
C1092 C1093 1.414 . S
C1092 C1095 1.499 . S
C1093 H1067 0.950 . S
C1093 C1092 1.414 . S
C1093 C1094 1.374 . S
C1094 H1068 0.950 . S
C1094 C1090 1.385 . S
C1094 C1093 1.374 . S
C1095 C1092 1.499 . S
C1095 C1096 1.373 1_556 S
C1095 C1097 1.389 1_556 S
C1096 H1069 0.950 1_554 S
C1096 C1082 1.377 . S
C1096 C1095 1.373 1_554 S
C1097 C1081 1.377 . S
C1097 C1095 1.389 1_554 S
C1097 C1098 1.524 1_554 S
C1098 C1097 1.524 1_556 S
C1098 C1099 1.397 . S
C1098 C1103 1.363 1_556 S
C1099 H1070 0.950 . S
C1099 C1098 1.397 . S
C1099 C1100 1.334 . S
C1100 H1071 0.950 . S
C1100 C1099 1.334 . S
C1100 C1101 1.287 . S
C1101 C1100 1.287 . S
C1101 C1102 1.524 . S
C1101 H1104 0.999 . S
C1102 H1072 0.950 . S
C1102 C1101 1.524 . S
C1102 C1103 1.415 1_556 S
C1103 H1073 0.950 . S
C1103 C1098 1.363 1_554 S
C1103 C1102 1.415 1_554 S
H1104 C1101 0.999 . S
H1105 C1086 0.913 . S
H1106 C1124 0.951 . S
H1107 C1126 0.951 . S
H1108 C1128 0.950 . S
H1109 C1129 0.950 . S
H1110 C1131 0.950 . S
H1111 C1134 0.950 . S
H1112 C1135 0.950 . S
H1113 C1137 0.950 . S
H1114 C1138 0.950 . S
H1115 C1139 0.951 . S
H1116 C1141 0.951 . S
H1117 C1143 0.950 . S
H1118 C1144 0.950 . S
H1119 C1146 0.950 . S
H1120 C1149 0.950 . S
H1121 C1150 0.951 1_455 S
H1122 C1152 0.950 . S
H1123 C1153 0.950 . S
C1124 H1106 0.951 . S
C1124 C1125 1.366 . S
C1124 C1126 1.388 . S
C1125 C1124 1.366 . S
C1125 C1129 1.385 . S
C1126 H1107 0.951 . S
C1126 C1124 1.388 . S
C1126 C1127 1.366 . S
C1127 C1126 1.366 . S
C1127 C1128 1.414 . S
C1127 C1130 1.499 . S
C1128 H1108 0.950 . S
C1128 C1127 1.414 . S
C1128 C1129 1.374 . S
C1129 H1109 0.950 . S
C1129 C1125 1.385 . S
C1129 C1128 1.374 . S
C1130 C1127 1.499 . S
C1130 C1131 1.373 . S
C1130 C1132 1.389 . S
C1131 H1110 0.950 . S
C1131 C1130 1.373 . S
C1131 C1147 1.377 . S
C1132 C1130 1.389 . S
C1132 C1133 1.524 . S
C1132 C1146 1.377 . S
C1133 C1132 1.524 . S
C1133 C1134 1.397 . S
C1133 C1138 1.363 . S
C1134 H1111 0.950 . S
C1134 C1133 1.397 . S
C1134 C1135 1.334 . S
C1135 H1112 0.950 . S
C1135 C1134 1.334 . S
C1135 C1136 1.287 . S
C1136 C1135 1.287 . S
C1136 C1137 1.524 . S
C1136 H1155 0.913 . S
C1137 H1113 0.950 . S
C1137 C1136 1.524 . S
C1137 C1138 1.415 . S
C1138 H1114 0.950 . S
C1138 C1133 1.363 . S
C1138 C1137 1.415 . S
C1139 H1115 0.951 . S
C1139 C1140 1.366 . S
C1139 C1141 1.388 1_556 S
C1140 C1139 1.366 . S
C1140 C1144 1.385 . S
C1141 H1116 0.951 . S
C1141 C1139 1.388 1_554 S
C1141 C1142 1.366 . S
C1142 C1141 1.366 . S
C1142 C1143 1.414 . S
C1142 C1145 1.499 . S
C1143 H1117 0.950 . S
C1143 C1142 1.414 . S
C1143 C1144 1.374 1_554 S
C1144 H1118 0.950 . S
C1144 C1140 1.385 . S
C1144 C1143 1.374 1_556 S
C1145 C1142 1.499 . S
C1145 C1146 1.373 . S
C1145 C1147 1.389 . S
C1146 H1119 0.950 . S
C1146 C1132 1.377 . S
C1146 C1145 1.373 . S
C1147 C1131 1.377 . S
C1147 C1145 1.389 . S
C1147 C1148 1.524 . S
C1148 C1147 1.524 . S
C1148 C1149 1.397 . S
C1148 C1153 1.363 . S
C1149 H1120 0.950 . S
C1149 C1148 1.397 . S
C1149 C1150 1.363 . S
C1150 H1121 0.951 1_655 S
C1150 C1149 1.363 . S
C1150 C1151 1.258 1_655 S
C1151 C1150 1.258 1_455 S
C1151 C1152 1.524 . S
C1151 H1154 0.999 . S
C1152 H1122 0.950 . S
C1152 C1151 1.524 . S
C1152 C1153 1.415 1_455 S
C1153 H1123 0.950 . S
C1153 C1148 1.363 . S
C1153 C1152 1.415 1_655 S
H1154 C1151 0.999 . S
H1155 C1136 0.913 . S
H1156 C1174 0.951 . S
H1157 C1176 0.951 . S
H1158 C1178 0.950 . S
H1159 C1179 0.950 . S
H1160 C1181 0.950 . S
H1161 C1184 0.950 . S
H1162 C1185 0.950 . S
H1163 C1187 0.950 . S
H1164 C1188 0.950 . S
H1165 C1189 0.951 . S
H1166 C1191 0.951 . S
H1167 C1193 0.950 . S
H1168 C1194 0.950 . S
H1169 C1196 0.950 . S
H1170 C1199 0.950 . S
H1171 C1200 0.950 . S
H1172 C1202 0.950 . S
H1173 C1203 0.950 . S
C1174 H1156 0.951 . S
C1174 C1175 1.366 . S
C1174 C1176 1.388 . S
C1175 C1174 1.366 . S
C1175 C1179 1.385 . S
C1176 H1157 0.951 . S
C1176 C1174 1.388 . S
C1176 C1177 1.366 . S
C1177 C1176 1.366 . S
C1177 C1178 1.414 . S
C1177 C1180 1.499 . S
C1178 H1158 0.950 . S
C1178 C1177 1.414 . S
C1178 C1179 1.374 . S
C1179 H1159 0.950 . S
C1179 C1175 1.385 . S
C1179 C1178 1.374 . S
C1180 C1177 1.499 . S
C1180 C1181 1.373 . S
C1180 C1182 1.389 . S
C1181 H1160 0.950 . S
C1181 C1180 1.373 . S
C1181 C1197 1.377 . S
C1182 C1180 1.389 . S
C1182 C1183 1.524 . S
C1182 C1196 1.377 . S
C1183 C1182 1.524 . S
C1183 C1184 1.397 . S
C1183 C1188 1.363 . S
C1184 H1161 0.950 . S
C1184 C1183 1.397 . S
C1184 C1185 1.334 . S
C1185 H1162 0.950 . S
C1185 C1184 1.334 . S
C1185 C1186 1.287 . S
C1186 C1185 1.287 . S
C1186 C1187 1.524 . S
C1186 H1205 0.913 . S
C1187 H1163 0.950 . S
C1187 C1186 1.524 . S
C1187 C1188 1.415 . S
C1188 H1164 0.950 . S
C1188 C1183 1.363 . S
C1188 C1187 1.415 . S
C1189 H1165 0.951 . S
C1189 C1190 1.366 . S
C1189 C1191 1.388 . S
C1190 C1189 1.366 . S
C1190 C1194 1.385 . S
C1191 H1166 0.951 . S
C1191 C1189 1.388 . S
C1191 C1192 1.366 . S
C1192 C1191 1.366 . S
C1192 C1193 1.414 . S
C1192 C1195 1.499 . S
C1193 H1167 0.950 . S
C1193 C1192 1.414 . S
C1193 C1194 1.374 . S
C1194 H1168 0.950 . S
C1194 C1190 1.385 . S
C1194 C1193 1.374 . S
C1195 C1192 1.499 . S
C1195 C1196 1.373 . S
C1195 C1197 1.389 . S
C1196 H1169 0.950 . S
C1196 C1182 1.377 . S
C1196 C1195 1.373 . S
C1197 C1181 1.377 . S
C1197 C1195 1.389 . S
C1197 C1198 1.524 . S
C1198 C1197 1.524 . S
C1198 C1199 1.397 . S
C1198 C1203 1.363 . S
C1199 H1170 0.950 . S
C1199 C1198 1.397 . S
C1199 C1200 1.334 . S
C1200 H1171 0.950 . S
C1200 C1199 1.334 . S
C1200 C1201 1.287 . S
C1201 C1200 1.287 . S
C1201 C1202 1.524 . S
C1201 H1204 0.999 . S
C1202 H1172 0.950 . S
C1202 C1201 1.524 . S
C1202 C1203 1.415 . S
C1203 H1173 0.950 . S
C1203 C1198 1.363 . S
C1203 C1202 1.415 . S
H1204 C1201 0.999 . S
H1205 C1186 0.913 . S
H1206 C1224 0.951 . S
H1207 C1226 0.951 . S
H1208 C1228 0.950 . S
H1209 C1229 0.950 . S
H1210 C1231 0.950 . S
H1211 C1234 0.950 . S
H1212 C1235 0.950 . S
H1213 C1237 0.950 . S
H1214 C1238 0.950 . S
H1215 C1239 0.951 . S
H1216 C1241 0.951 . S
H1217 C1243 0.950 . S
H1218 C1244 0.950 . S
H1219 C1246 0.950 . S
H1220 C1249 0.950 . S
H1221 C1250 0.950 . S
H1222 C1252 0.950 . S
H1223 C1253 0.950 . S
C1224 H1206 0.951 . S
C1224 C1225 1.366 . S
C1224 C1226 1.388 . S
C1225 C1224 1.366 . S
C1225 C1229 1.385 . S
C1226 H1207 0.951 . S
C1226 C1224 1.388 . S
C1226 C1227 1.366 . S
C1227 C1226 1.366 . S
C1227 C1228 1.414 . S
C1227 C1230 1.499 . S
C1228 H1208 0.950 . S
C1228 C1227 1.414 . S
C1228 C1229 1.374 . S
C1229 H1209 0.950 . S
C1229 C1225 1.385 . S
C1229 C1228 1.374 . S
C1230 C1227 1.499 . S
C1230 C1231 1.373 . S
C1230 C1232 1.389 . S
C1231 H1210 0.950 . S
C1231 C1230 1.373 . S
C1231 C1247 1.377 . S
C1232 C1230 1.389 . S
C1232 C1233 1.524 . S
C1232 C1246 1.377 . S
C1233 C1232 1.524 . S
C1233 C1234 1.397 . S
C1233 C1238 1.363 . S
C1234 H1211 0.950 . S
C1234 C1233 1.397 . S
C1234 C1235 1.334 . S
C1235 H1212 0.950 . S
C1235 C1234 1.334 . S
C1235 C1236 1.287 . S
C1236 C1235 1.287 . S
C1236 C1237 1.524 . S
C1236 H1255 0.913 . S
C1237 H1213 0.950 . S
C1237 C1236 1.524 . S
C1237 C1238 1.415 . S
C1238 H1214 0.950 . S
C1238 C1233 1.363 . S
C1238 C1237 1.415 . S
C1239 H1215 0.951 . S
C1239 C1240 1.366 . S
C1239 C1241 1.388 . S
C1240 C1239 1.366 . S
C1240 C1244 1.385 . S
C1241 H1216 0.951 . S
C1241 C1239 1.388 . S
C1241 C1242 1.366 . S
C1242 C1241 1.366 . S
C1242 C1243 1.414 . S
C1242 C1245 1.499 . S
C1243 H1217 0.950 . S
C1243 C1242 1.414 . S
C1243 C1244 1.374 . S
C1244 H1218 0.950 . S
C1244 C1240 1.385 . S
C1244 C1243 1.374 . S
C1245 C1242 1.499 . S
C1245 C1246 1.373 . S
C1245 C1247 1.389 . S
C1246 H1219 0.950 . S
C1246 C1232 1.377 . S
C1246 C1245 1.373 . S
C1247 C1231 1.377 . S
C1247 C1245 1.389 . S
C1247 C1248 1.524 . S
C1248 C1247 1.524 . S
C1248 C1249 1.397 . S
C1248 C1253 1.363 . S
C1249 H1220 0.950 . S
C1249 C1248 1.397 . S
C1249 C1250 1.334 . S
C1250 H1221 0.950 . S
C1250 C1249 1.334 . S
C1250 C1251 1.287 . S
C1251 C1250 1.287 . S
C1251 C1252 1.524 . S
C1251 H1254 0.999 . S
C1252 H1222 0.950 . S
C1252 C1251 1.524 . S
C1252 C1253 1.415 . S
C1253 H1223 0.950 . S
C1253 C1248 1.363 . S
C1253 C1252 1.415 . S
H1254 C1251 0.999 . S
H1255 C1236 0.913 . S
H1256 C1274 0.951 . S
H1257 C1276 0.951 . S
H1258 C1278 0.950 . S
H1259 C1279 0.950 . S
H1260 C1281 0.950 . S
H1261 C1284 0.950 . S
H1262 C1285 0.950 . S
H1263 C1287 0.950 . S
H1264 C1288 0.950 . S
H1265 C1289 0.951 . S
H1266 C1291 0.951 . S
H1267 C1293 0.950 . S
H1268 C1294 0.950 . S
H1269 C1296 0.950 . S
H1270 C1299 0.950 . S
H1271 C1300 0.950 . S
H1272 C1302 0.950 . S
H1273 C1303 0.950 . S
C1274 H1256 0.951 . S
C1274 C1275 1.366 . S
C1274 C1276 1.388 . S
C1275 C1274 1.366 . S
C1275 C1279 1.385 . S
C1276 H1257 0.951 . S
C1276 C1274 1.388 . S
C1276 C1277 1.366 . S
C1277 C1276 1.366 . S
C1277 C1278 1.414 . S
C1277 C1280 1.499 . S
C1278 H1258 0.950 . S
C1278 C1277 1.414 . S
C1278 C1279 1.374 . S
C1279 H1259 0.950 . S
C1279 C1275 1.385 . S
C1279 C1278 1.374 . S
C1280 C1277 1.499 . S
C1280 C1281 1.373 . S
C1280 C1282 1.389 . S
C1281 H1260 0.950 . S
C1281 C1280 1.373 . S
C1281 C1297 1.377 . S
C1282 C1280 1.389 . S
C1282 C1283 1.524 . S
C1282 C1296 1.377 . S
C1283 C1282 1.524 . S
C1283 C1284 1.397 . S
C1283 C1288 1.363 . S
C1284 H1261 0.950 . S
C1284 C1283 1.397 . S
C1284 C1285 1.334 . S
C1285 H1262 0.950 . S
C1285 C1284 1.334 . S
C1285 C1286 1.287 . S
C1286 C1285 1.287 . S
C1286 C1287 1.524 . S
C1286 H1305 0.913 . S
C1287 H1263 0.950 . S
C1287 C1286 1.524 . S
C1287 C1288 1.415 . S
C1288 H1264 0.950 . S
C1288 C1283 1.363 . S
C1288 C1287 1.415 . S
C1289 H1265 0.951 . S
C1289 C1290 1.366 . S
C1289 C1291 1.388 . S
C1290 C1289 1.366 . S
C1290 C1294 1.385 . S
C1291 H1266 0.951 . S
C1291 C1289 1.388 . S
C1291 C1292 1.366 . S
C1292 C1291 1.366 . S
C1292 C1293 1.414 . S
C1292 C1295 1.499 . S
C1293 H1267 0.950 . S
C1293 C1292 1.414 . S
C1293 C1294 1.374 . S
C1294 H1268 0.950 . S
C1294 C1290 1.385 . S
C1294 C1293 1.374 . S
C1295 C1292 1.499 . S
C1295 C1296 1.373 . S
C1295 C1297 1.389 . S
C1296 H1269 0.950 . S
C1296 C1282 1.377 . S
C1296 C1295 1.373 . S
C1297 C1281 1.377 . S
C1297 C1295 1.389 . S
C1297 C1298 1.524 . S
C1298 C1297 1.524 . S
C1298 C1299 1.397 . S
C1298 C1303 1.363 . S
C1299 H1270 0.950 . S
C1299 C1298 1.397 . S
C1299 C1300 1.334 . S
C1300 H1271 0.950 . S
C1300 C1299 1.334 . S
C1300 C1301 1.287 . S
C1301 C1300 1.287 . S
C1301 C1302 1.524 . S
C1301 H1304 0.999 . S
C1302 H1272 0.950 . S
C1302 C1301 1.524 . S
C1302 C1303 1.415 . S
C1303 H1273 0.950 . S
C1303 C1298 1.363 . S
C1303 C1302 1.415 . S
H1304 C1301 0.999 . S
H1305 C1286 0.913 . S
H1306 C1324 0.951 . S
H1307 C1326 0.951 . S
H1308 C1328 0.950 1_545 S
H1309 C1329 0.950 . S
H1310 C1331 0.950 . S
H1311 C1334 0.950 . S
H1312 C1335 0.950 . S
H1313 C1337 0.950 . S
H1314 C1338 0.950 1_554 S
H1315 C1339 0.951 . S
H1316 C1341 0.951 . S
H1317 C1343 0.950 . S
H1318 C1344 0.950 . S
H1319 C1346 0.950 . S
H1320 C1349 0.950 . S
H1321 C1350 0.950 . S
H1322 C1352 0.950 1_545 S
H1323 C1353 0.950 . S
C1324 H1306 0.951 . S
C1324 C1325 1.366 1_565 S
C1324 C1326 1.388 . S
C1325 C1324 1.366 1_545 S
C1325 C1329 1.385 . S
C1326 H1307 0.951 . S
C1326 C1324 1.388 . S
C1326 C1327 1.366 . S
C1327 C1326 1.366 . S
C1327 C1328 1.414 . S
C1327 C1330 1.499 . S
C1328 H1308 0.950 1_565 S
C1328 C1327 1.414 . S
C1328 C1329 1.374 1_565 S
C1329 H1309 0.950 . S
C1329 C1325 1.385 . S
C1329 C1328 1.374 1_545 S
C1330 C1327 1.499 . S
C1330 C1331 1.373 . S
C1330 C1332 1.389 . S
C1331 H1310 0.950 . S
C1331 C1330 1.373 . S
C1331 C1347 1.377 . S
C1332 C1330 1.389 . S
C1332 C1333 1.524 . S
C1332 C1346 1.377 . S
C1333 C1332 1.524 . S
C1333 C1334 1.397 1_554 S
C1333 C1338 1.363 1_554 S
C1334 H1311 0.950 . S
C1334 C1333 1.397 1_556 S
C1334 C1335 1.334 . S
C1335 H1312 0.950 . S
C1335 C1334 1.334 . S
C1335 C1336 1.287 . S
C1336 C1335 1.287 . S
C1336 C1337 1.524 . S
C1336 H1355 0.913 . S
C1337 H1313 0.950 . S
C1337 C1336 1.524 . S
C1337 C1338 1.415 . S
C1338 H1314 0.950 1_556 S
C1338 C1333 1.363 1_556 S
C1338 C1337 1.415 . S
C1339 H1315 0.951 . S
C1339 C1340 1.366 . S
C1339 C1341 1.388 . S
C1340 C1339 1.366 . S
C1340 C1344 1.385 . S
C1341 H1316 0.951 . S
C1341 C1339 1.388 . S
C1341 C1342 1.366 . S
C1342 C1341 1.366 . S
C1342 C1343 1.414 . S
C1342 C1345 1.499 . S
C1343 H1317 0.950 . S
C1343 C1342 1.414 . S
C1343 C1344 1.374 . S
C1344 H1318 0.950 . S
C1344 C1340 1.385 . S
C1344 C1343 1.374 . S
C1345 C1342 1.499 . S
C1345 C1346 1.373 . S
C1345 C1347 1.389 . S
C1346 H1319 0.950 . S
C1346 C1332 1.377 . S
C1346 C1345 1.373 . S
C1347 C1331 1.377 . S
C1347 C1345 1.389 . S
C1347 C1348 1.524 . S
C1348 C1347 1.524 . S
C1348 C1349 1.397 . S
C1348 C1353 1.363 . S
C1349 H1320 0.950 . S
C1349 C1348 1.397 . S
C1349 C1350 1.334 . S
C1350 H1321 0.950 . S
C1350 C1349 1.334 . S
C1350 C1351 1.287 . S
C1351 C1350 1.287 . S
C1351 C1352 1.524 . S
C1351 H1354 0.999 . S
C1352 H1322 0.950 1_565 S
C1352 C1351 1.524 . S
C1352 C1353 1.415 . S
C1353 H1323 0.950 . S
C1353 C1348 1.363 . S
C1353 C1352 1.415 . S
H1354 C1351 0.999 . S
H1355 C1336 0.913 . S
H1356 C1374 0.951 1_554 S
H1357 C1376 0.951 . S
H1358 C1378 0.950 . S
H1359 C1379 0.950 . S
H1360 C1381 0.950 . S
H1361 C1384 0.950 . S
H1362 C1385 0.950 . S
H1363 C1387 0.950 . S
H1364 C1388 0.950 . S
H1365 C1389 0.951 . S
H1366 C1391 0.951 . S
H1367 C1393 0.950 . S
H1368 C1394 0.950 . S
H1369 C1396 0.950 . S
H1370 C1399 0.950 . S
H1371 C1400 0.950 . S
H1372 C1402 0.950 . S
H1373 C1403 0.950 . S
C1374 H1356 0.951 1_556 S
C1374 C1375 1.366 . S
C1374 C1376 1.388 . S
C1375 C1374 1.366 . S
C1375 C1379 1.385 . S
C1376 H1357 0.951 . S
C1376 C1374 1.388 . S
C1376 C1377 1.366 . S
C1377 C1376 1.366 . S
C1377 C1378 1.414 . S
C1377 C1380 1.499 . S
C1378 H1358 0.950 . S
C1378 C1377 1.414 . S
C1378 C1379 1.374 . S
C1379 H1359 0.950 . S
C1379 C1375 1.385 . S
C1379 C1378 1.374 . S
C1380 C1377 1.499 . S
C1380 C1381 1.373 . S
C1380 C1382 1.389 . S
C1381 H1360 0.950 . S
C1381 C1380 1.373 . S
C1381 C1397 1.377 . S
C1382 C1380 1.389 . S
C1382 C1383 1.524 . S
C1382 C1396 1.377 . S
C1383 C1382 1.524 . S
C1383 C1384 1.397 . S
C1383 C1388 1.363 . S
C1384 H1361 0.950 . S
C1384 C1383 1.397 . S
C1384 C1385 1.334 . S
C1385 H1362 0.950 . S
C1385 C1384 1.334 . S
C1385 C1386 1.287 . S
C1386 C1385 1.287 . S
C1386 C1387 1.524 . S
C1386 H1405 0.913 . S
C1387 H1363 0.950 . S
C1387 C1386 1.524 . S
C1387 C1388 1.415 . S
C1388 H1364 0.950 . S
C1388 C1383 1.363 . S
C1388 C1387 1.415 . S
C1389 H1365 0.951 . S
C1389 C1390 1.366 . S
C1389 C1391 1.388 . S
C1390 C1389 1.366 . S
C1390 C1394 1.385 . S
C1391 H1366 0.951 . S
C1391 C1389 1.388 . S
C1391 C1392 1.366 . S
C1392 C1391 1.366 . S
C1392 C1393 1.414 . S
C1392 C1395 1.499 . S
C1393 H1367 0.950 . S
C1393 C1392 1.414 . S
C1393 C1394 1.374 . S
C1394 H1368 0.950 . S
C1394 C1390 1.385 . S
C1394 C1393 1.374 . S
C1395 C1392 1.499 . S
C1395 C1396 1.373 . S
C1395 C1397 1.389 . S
C1396 H1369 0.950 . S
C1396 C1382 1.377 . S
C1396 C1395 1.373 . S
C1397 C1381 1.377 . S
C1397 C1395 1.389 . S
C1397 C1398 1.524 . S
C1398 C1397 1.524 . S
C1398 C1399 1.397 . S
C1398 C1403 1.363 . S
C1399 H1370 0.950 . S
C1399 C1398 1.397 . S
C1399 C1400 1.334 . S
C1400 H1371 0.950 . S
C1400 C1399 1.334 . S
C1400 C1401 1.287 . S
C1401 C1400 1.287 . S
C1401 C1402 1.524 . S
C1401 H1404 0.999 . S
C1402 H1372 0.950 . S
C1402 C1401 1.524 . S
C1402 C1403 1.415 . S
C1403 H1373 0.950 . S
C1403 C1398 1.363 . S
C1403 C1402 1.415 . S
H1404 C1401 0.999 . S
H1405 C1386 0.913 . S
H1406 C1424 0.951 . S
H1407 C1426 0.951 . S
H1408 C1428 0.950 . S
H1409 C1429 0.950 . S
H1410 C1431 0.950 . S
H1411 C1434 0.950 . S
H1412 C1435 0.950 . S
H1413 C1437 0.950 1_455 S
H1414 C1438 0.950 1_455 S
H1415 C1439 0.951 . S
H1416 C1441 0.951 . S
H1417 C1443 0.950 . S
H1418 C1444 0.950 . S
H1419 C1446 0.950 . S
H1420 C1449 0.950 1_455 S
H1421 C1450 0.950 1_455 S
H1422 C1452 0.950 . S
H1423 C1453 0.950 . S
C1424 H1406 0.951 . S
C1424 C1425 1.366 . S
C1424 C1426 1.388 . S
C1425 C1424 1.366 . S
C1425 C1429 1.385 . S
C1426 H1407 0.951 . S
C1426 C1424 1.388 . S
C1426 C1427 1.366 . S
C1427 C1426 1.366 . S
C1427 C1428 1.414 . S
C1427 C1430 1.499 . S
C1428 H1408 0.950 . S
C1428 C1427 1.414 . S
C1428 C1429 1.374 . S
C1429 H1409 0.950 . S
C1429 C1425 1.385 . S
C1429 C1428 1.374 . S
C1430 C1427 1.499 . S
C1430 C1431 1.373 . S
C1430 C1432 1.389 . S
C1431 H1410 0.950 . S
C1431 C1430 1.373 . S
C1431 C1447 1.377 . S
C1432 C1430 1.389 . S
C1432 C1433 1.524 . S
C1432 C1446 1.377 1_556 S
C1433 C1432 1.524 . S
C1433 C1434 1.397 . S
C1433 C1438 1.363 1_556 S
C1434 H1411 0.950 . S
C1434 C1433 1.397 . S
C1434 C1435 1.334 1_556 S
C1435 H1412 0.950 . S
C1435 C1434 1.334 1_554 S
C1435 C1436 1.287 . S
C1436 C1435 1.287 . S
C1436 C1437 1.524 . S
C1436 H1455 0.913 . S
C1437 H1413 0.950 1_655 S
C1437 C1436 1.524 . S
C1437 C1438 1.415 . S
C1438 H1414 0.950 1_655 S
C1438 C1433 1.363 1_554 S
C1438 C1437 1.415 . S
C1439 H1415 0.951 . S
C1439 C1440 1.366 1_655 S
C1439 C1441 1.388 . S
C1440 C1439 1.366 1_455 S
C1440 C1444 1.385 . S
C1441 H1416 0.951 . S
C1441 C1439 1.388 . S
C1441 C1442 1.366 . S
C1442 C1441 1.366 . S
C1442 C1443 1.414 1_655 S
C1442 C1445 1.499 . S
C1443 H1417 0.950 . S
C1443 C1442 1.414 1_455 S
C1443 C1444 1.374 . S
C1444 H1418 0.950 . S
C1444 C1440 1.385 . S
C1444 C1443 1.374 . S
C1445 C1442 1.499 . S
C1445 C1446 1.373 . S
C1445 C1447 1.389 1_554 S
C1446 H1419 0.950 . S
C1446 C1432 1.377 1_554 S
C1446 C1445 1.373 . S
C1447 C1431 1.377 . S
C1447 C1445 1.389 1_556 S
C1447 C1448 1.524 . S
C1448 C1447 1.524 . S
C1448 C1449 1.397 . S
C1448 C1453 1.363 . S
C1449 H1420 0.950 1_655 S
C1449 C1448 1.397 . S
C1449 C1450 1.334 . S
C1450 H1421 0.950 1_655 S
C1450 C1449 1.334 . S
C1450 C1451 1.287 . S
C1451 C1450 1.287 . S
C1451 C1452 1.524 . S
C1451 H1454 0.999 . S
C1452 H1422 0.950 . S
C1452 C1451 1.524 . S
C1452 C1453 1.415 . S
C1453 H1423 0.950 . S
C1453 C1448 1.363 . S
C1453 C1452 1.415 . S
H1454 C1451 0.999 . S
H1455 C1436 0.913 . S
H1456 C1474 0.951 . S
H1457 C1476 0.951 . S
H1458 C1478 0.950 . S
H1459 C1479 0.950 . S
H1460 C1481 0.950 . S
H1461 C1484 0.950 . S
H1462 C1485 0.950 . S
H1463 C1487 0.950 . S
H1464 C1488 0.950 . S
H1465 C1489 0.951 . S
H1466 C1491 0.951 . S
H1467 C1493 0.950 . S
H1468 C1494 0.950 . S
H1469 C1496 0.950 . S
H1470 C1499 0.950 . S
H1471 C1500 0.950 . S
H1472 C1502 0.950 . S
H1473 C1503 0.950 . S
C1474 H1456 0.951 . S
C1474 C1475 1.366 . S
C1474 C1476 1.388 . S
C1475 C1474 1.366 . S
C1475 C1479 1.385 . S
C1476 H1457 0.951 . S
C1476 C1474 1.388 . S
C1476 C1477 1.366 . S
C1477 C1476 1.366 . S
C1477 C1478 1.414 . S
C1477 C1480 1.499 . S
C1478 H1458 0.950 . S
C1478 C1477 1.414 . S
C1478 C1479 1.374 . S
C1479 H1459 0.950 . S
C1479 C1475 1.385 . S
C1479 C1478 1.374 . S
C1480 C1477 1.499 . S
C1480 C1481 1.373 . S
C1480 C1482 1.389 . S
C1481 H1460 0.950 . S
C1481 C1480 1.373 . S
C1481 C1497 1.377 1_556 S
C1482 C1480 1.389 . S
C1482 C1483 1.524 . S
C1482 C1496 1.377 1_556 S
C1483 C1482 1.524 . S
C1483 C1484 1.397 1_556 S
C1483 C1488 1.363 . S
C1484 H1461 0.950 . S
C1484 C1483 1.397 1_554 S
C1484 C1485 1.334 . S
C1485 H1462 0.950 . S
C1485 C1484 1.334 . S
C1485 C1486 1.287 . S
C1486 C1485 1.287 . S
C1486 C1487 1.524 1_554 S
C1486 H1505 0.913 . S
C1487 H1463 0.950 . S
C1487 C1486 1.524 1_556 S
C1487 C1488 1.415 . S
C1488 H1464 0.950 . S
C1488 C1483 1.363 . S
C1488 C1487 1.415 . S
C1489 H1465 0.951 . S
C1489 C1490 1.366 . S
C1489 C1491 1.388 . S
C1490 C1489 1.366 . S
C1490 C1494 1.385 . S
C1491 H1466 0.951 . S
C1491 C1489 1.388 . S
C1491 C1492 1.366 . S
C1492 C1491 1.366 . S
C1492 C1493 1.414 . S
C1492 C1495 1.499 . S
C1493 H1467 0.950 . S
C1493 C1492 1.414 . S
C1493 C1494 1.374 . S
C1494 H1468 0.950 . S
C1494 C1490 1.385 . S
C1494 C1493 1.374 . S
C1495 C1492 1.499 . S
C1495 C1496 1.373 . S
C1495 C1497 1.389 . S
C1496 H1469 0.950 . S
C1496 C1482 1.377 1_554 S
C1496 C1495 1.373 . S
C1497 C1481 1.377 1_554 S
C1497 C1495 1.389 . S
C1497 C1498 1.523 . S
C1498 C1497 1.523 . S
C1498 C1499 1.394 1_554 S
C1498 C1503 1.366 . S
C1499 H1470 0.950 . S
C1499 C1498 1.394 1_556 S
C1499 C1500 1.334 . S
C1500 H1471 0.950 . S
C1500 C1499 1.334 . S
C1500 C1501 1.287 . S
C1501 C1500 1.287 . S
C1501 C1502 1.524 1_556 S
C1501 H1504 0.999 . S
C1502 H1472 0.950 . S
C1502 C1501 1.524 1_554 S
C1502 C1503 1.415 . S
C1503 H1473 0.950 . S
C1503 C1498 1.366 . S
C1503 C1502 1.415 . S
H1504 C1501 0.999 . S
H1505 C1486 0.913 . S
H1506 C1524 0.951 . S
H1507 C1526 0.951 . S
H1508 C1528 0.950 . S
H1509 C1529 0.950 . S
H1510 C1531 0.953 . S
H1511 C1534 0.950 . S
H1512 C1535 0.950 . S
H1513 C1537 0.950 . S
H1514 C1538 0.950 . S
H1515 C1539 0.951 . S
H1516 C1541 0.951 . S
H1517 C1543 0.950 . S
H1518 C1544 0.950 . S
H1519 C1546 0.950 . S
H1520 C1549 0.950 . S
H1521 C1550 0.950 . S
H1522 C1552 0.950 . S
H1523 C1553 0.950 . S
C1524 H1506 0.951 . S
C1524 C1525 1.366 . S
C1524 C1526 1.388 . S
C1525 C1524 1.366 . S
C1525 C1529 1.385 . S
C1526 H1507 0.951 . S
C1526 C1524 1.388 . S
C1526 C1527 1.366 . S
C1527 C1526 1.366 . S
C1527 C1528 1.414 . S
C1527 C1530 1.499 . S
C1528 H1508 0.950 . S
C1528 C1527 1.414 . S
C1528 C1529 1.374 . S
C1529 H1509 0.950 . S
C1529 C1525 1.385 . S
C1529 C1528 1.374 . S
C1530 C1527 1.499 . S
C1530 C1531 1.369 1_556 S
C1530 C1532 1.389 . S
C1531 H1510 0.953 . S
C1531 C1530 1.369 1_554 S
C1531 C1547 1.379 . S
C1532 C1530 1.389 . S
C1532 C1533 1.524 . S
C1532 C1546 1.377 . S
C1533 C1532 1.524 . S
C1533 C1534 1.397 . S
C1533 C1538 1.363 . S
C1534 H1511 0.950 . S
C1534 C1533 1.397 . S
C1534 C1535 1.334 . S
C1535 H1512 0.950 . S
C1535 C1534 1.334 . S
C1535 C1536 1.287 . S
C1536 C1535 1.287 . S
C1536 C1537 1.524 . S
C1536 H1555 0.913 . S
C1537 H1513 0.950 . S
C1537 C1536 1.524 . S
C1537 C1538 1.415 . S
C1538 H1514 0.950 . S
C1538 C1533 1.363 . S
C1538 C1537 1.415 . S
C1539 H1515 0.951 . S
C1539 C1540 1.366 . S
C1539 C1541 1.388 . S
C1540 C1539 1.366 . S
C1540 C1544 1.385 . S
C1541 H1516 0.951 . S
C1541 C1539 1.388 . S
C1541 C1542 1.366 . S
C1542 C1541 1.366 . S
C1542 C1543 1.414 . S
C1542 C1545 1.499 . S
C1543 H1517 0.950 . S
C1543 C1542 1.414 . S
C1543 C1544 1.374 . S
C1544 H1518 0.950 . S
C1544 C1540 1.385 . S
C1544 C1543 1.374 . S
C1545 C1542 1.499 . S
C1545 C1546 1.373 1_554 S
C1545 C1547 1.389 . S
C1546 H1519 0.950 . S
C1546 C1532 1.377 . S
C1546 C1545 1.373 1_556 S
C1547 C1531 1.379 . S
C1547 C1545 1.389 . S
C1547 C1548 1.524 . S
C1548 C1547 1.524 . S
C1548 C1549 1.397 . S
C1548 C1553 1.363 . S
C1549 H1520 0.950 . S
C1549 C1548 1.397 . S
C1549 C1550 1.334 . S
C1550 H1521 0.950 . S
C1550 C1549 1.334 . S
C1550 C1551 1.287 . S
C1551 C1550 1.287 . S
C1551 C1552 1.524 . S
C1551 H1554 0.999 . S
C1552 H1522 0.950 . S
C1552 C1551 1.524 . S
C1552 C1553 1.415 . S
C1553 H1523 0.950 . S
C1553 C1548 1.363 . S
C1553 C1552 1.415 . S
H1554 C1551 0.999 . S
H1555 C1536 0.913 . S
H1556 C1574 0.951 . S
H1557 C1576 0.951 . S
H1558 C1578 0.950 . S
H1559 C1579 0.950 1_554 S
H1560 C1581 0.950 . S
H1561 C1584 0.950 . S
H1562 C1585 0.950 . S
H1563 C1587 0.950 . S
H1564 C1588 0.950 . S
H1565 C1589 0.951 . S
H1566 C1591 0.951 . S
H1567 C1593 0.950 . S
H1568 C1594 0.950 . S
H1569 C1596 0.950 . S
H1570 C1599 0.950 . S
H1571 C1600 0.950 . S
H1572 C1602 0.950 . S
H1573 C1603 0.950 . S
C1574 H1556 0.951 . S
C1574 C1575 1.366 . S
C1574 C1576 1.388 . S
C1575 C1574 1.366 . S
C1575 C1579 1.385 . S
C1576 H1557 0.951 . S
C1576 C1574 1.388 . S
C1576 C1577 1.366 . S
C1577 C1576 1.366 . S
C1577 C1578 1.414 . S
C1577 C1580 1.499 . S
C1578 H1558 0.950 . S
C1578 C1577 1.414 . S
C1578 C1579 1.374 . S
C1579 H1559 0.950 1_556 S
C1579 C1575 1.385 . S
C1579 C1578 1.374 . S
C1580 C1577 1.499 . S
C1580 C1581 1.373 . S
C1580 C1582 1.389 . S
C1581 H1560 0.950 . S
C1581 C1580 1.373 . S
C1581 C1597 1.377 . S
C1582 C1580 1.389 . S
C1582 C1583 1.524 . S
C1582 C1596 1.377 . S
C1583 C1582 1.524 . S
C1583 C1584 1.397 . S
C1583 C1588 1.363 . S
C1584 H1561 0.950 . S
C1584 C1583 1.397 . S
C1584 C1585 1.334 . S
C1585 H1562 0.950 . S
C1585 C1584 1.334 . S
C1585 C1586 1.287 . S
C1586 C1585 1.287 . S
C1586 C1587 1.524 . S
C1586 H1605 0.913 . S
C1587 H1563 0.950 . S
C1587 C1586 1.524 . S
C1587 C1588 1.415 . S
C1588 H1564 0.950 . S
C1588 C1583 1.363 . S
C1588 C1587 1.415 . S
C1589 H1565 0.951 . S
C1589 C1590 1.366 . S
C1589 C1591 1.388 . S
C1590 C1589 1.366 . S
C1590 C1594 1.385 . S
C1591 H1566 0.951 . S
C1591 C1589 1.388 . S
C1591 C1592 1.366 . S
C1592 C1591 1.366 . S
C1592 C1593 1.414 . S
C1592 C1595 1.499 . S
C1593 H1567 0.950 . S
C1593 C1592 1.414 . S
C1593 C1594 1.374 . S
C1594 H1568 0.950 . S
C1594 C1590 1.385 . S
C1594 C1593 1.374 . S
C1595 C1592 1.499 . S
C1595 C1596 1.373 . S
C1595 C1597 1.389 . S
C1596 H1569 0.950 . S
C1596 C1582 1.377 . S
C1596 C1595 1.373 . S
C1597 C1581 1.377 . S
C1597 C1595 1.389 . S
C1597 C1598 1.524 . S
C1598 C1597 1.524 . S
C1598 C1599 1.397 . S
C1598 C1603 1.363 . S
C1599 H1570 0.950 . S
C1599 C1598 1.397 . S
C1599 C1600 1.334 . S
C1600 H1571 0.950 . S
C1600 C1599 1.334 . S
C1600 C1601 1.287 . S
C1601 C1600 1.287 . S
C1601 C1602 1.524 . S
C1601 H1604 0.999 . S
C1602 H1572 0.950 . S
C1602 C1601 1.524 . S
C1602 C1603 1.415 . S
C1603 H1573 0.950 . S
C1603 C1598 1.363 . S
C1603 C1602 1.415 . S
H1604 C1601 0.999 . S
H1605 C1586 0.913 . S
H1606 C1624 0.951 . S
H1607 C1626 0.951 . S
H1608 C1628 0.950 . S
H1609 C1629 0.950 . S
H1610 C1631 0.950 . S
H1611 C1634 0.950 . S
H1612 C1635 0.950 . S
H1613 C1637 0.950 . S
H1614 C1638 0.950 . S
H1615 C1639 0.951 . S
H1616 C1641 0.951 . S
H1617 C1643 0.950 . S
H1618 C1644 0.950 . S
H1619 C1646 0.950 . S
H1620 C1649 0.950 . S
H1621 C1650 0.950 . S
H1622 C1652 0.950 . S
H1623 C1653 0.950 . S
C1624 H1606 0.951 . S
C1624 C1625 1.366 . S
C1624 C1626 1.388 . S
C1625 C1624 1.366 . S
C1625 C1629 1.385 . S
C1626 H1607 0.951 . S
C1626 C1624 1.388 . S
C1626 C1627 1.366 . S
C1627 C1626 1.366 . S
C1627 C1628 1.414 . S
C1627 C1630 1.499 . S
C1628 H1608 0.950 . S
C1628 C1627 1.414 . S
C1628 C1629 1.374 . S
C1629 H1609 0.950 . S
C1629 C1625 1.385 . S
C1629 C1628 1.374 . S
C1630 C1627 1.499 . S
C1630 C1631 1.373 . S
C1630 C1632 1.389 . S
C1631 H1610 0.950 . S
C1631 C1630 1.373 . S
C1631 C1647 1.377 . S
C1632 C1630 1.389 . S
C1632 C1633 1.524 . S
C1632 C1646 1.377 . S
C1633 C1632 1.524 . S
C1633 C1634 1.397 . S
C1633 C1638 1.363 . S
C1634 H1611 0.950 . S
C1634 C1633 1.397 . S
C1634 C1635 1.334 . S
C1635 H1612 0.950 . S
C1635 C1634 1.334 . S
C1635 C1636 1.287 . S
C1636 C1635 1.287 . S
C1636 C1637 1.524 . S
C1636 H1655 0.913 . S
C1637 H1613 0.950 . S
C1637 C1636 1.524 . S
C1637 C1638 1.415 . S
C1638 H1614 0.950 . S
C1638 C1633 1.363 . S
C1638 C1637 1.415 . S
C1639 H1615 0.951 . S
C1639 C1640 1.366 . S
C1639 C1641 1.388 . S
C1640 C1639 1.366 . S
C1640 C1644 1.385 . S
C1641 H1616 0.951 . S
C1641 C1639 1.388 . S
C1641 C1642 1.366 . S
C1642 C1641 1.366 . S
C1642 C1643 1.414 . S
C1642 C1645 1.499 . S
C1643 H1617 0.950 . S
C1643 C1642 1.414 . S
C1643 C1644 1.374 . S
C1644 H1618 0.950 . S
C1644 C1640 1.385 . S
C1644 C1643 1.374 . S
C1645 C1642 1.499 . S
C1645 C1646 1.373 . S
C1645 C1647 1.389 . S
C1646 H1619 0.950 . S
C1646 C1632 1.377 . S
C1646 C1645 1.373 . S
C1647 C1631 1.377 . S
C1647 C1645 1.389 . S
C1647 C1648 1.524 . S
C1648 C1647 1.524 . S
C1648 C1649 1.397 . S
C1648 C1653 1.363 . S
C1649 H1620 0.950 . S
C1649 C1648 1.397 . S
C1649 C1650 1.334 . S
C1650 H1621 0.950 . S
C1650 C1649 1.334 . S
C1650 C1651 1.287 . S
C1651 C1650 1.287 . S
C1651 C1652 1.524 . S
C1651 H1654 0.999 . S
C1652 H1622 0.950 . S
C1652 C1651 1.524 . S
C1652 C1653 1.415 . S
C1653 H1623 0.950 . S
C1653 C1648 1.363 . S
C1653 C1652 1.415 . S
H1654 C1651 0.999 . S
H1655 C1636 0.913 . S
H1656 C1674 0.951 1_556 S
H1657 C1676 0.951 . S
H1658 C1678 0.950 . S
H1659 C1679 0.950 . S
H1660 C1681 0.950 . S
H1661 C1684 0.950 . S
H1662 C1685 0.950 . S
H1663 C1687 0.950 . S
H1664 C1688 0.950 . S
H1665 C1689 0.951 . S
H1666 C1691 0.951 . S
H1667 C1693 0.950 . S
H1668 C1694 0.950 . S
H1669 C1696 0.950 . S
H1670 C1699 0.950 . S
H1671 C1700 0.950 . S
H1672 C1702 0.950 . S
H1673 C1703 0.950 . S
C1674 H1656 0.951 1_554 S
C1674 C1675 1.366 . S
C1674 C1676 1.388 . S
C1675 C1674 1.366 . S
C1675 C1679 1.385 . S
C1676 H1657 0.951 . S
C1676 C1674 1.388 . S
C1676 C1677 1.366 . S
C1677 C1676 1.366 . S
C1677 C1678 1.414 . S
C1677 C1680 1.499 . S
C1678 H1658 0.950 . S
C1678 C1677 1.414 . S
C1678 C1679 1.374 . S
C1679 H1659 0.950 . S
C1679 C1675 1.385 . S
C1679 C1678 1.374 . S
C1680 C1677 1.499 . S
C1680 C1681 1.373 . S
C1680 C1682 1.389 . S
C1681 H1660 0.950 . S
C1681 C1680 1.373 . S
C1681 C1697 1.377 . S
C1682 C1680 1.389 . S
C1682 C1683 1.524 1_545 S
C1682 C1696 1.377 1_545 S
C1683 C1682 1.524 1_565 S
C1683 C1684 1.397 1_565 S
C1683 C1688 1.363 . S
C1684 H1661 0.950 . S
C1684 C1683 1.397 1_545 S
C1684 C1685 1.334 . S
C1685 H1662 0.950 . S
C1685 C1684 1.334 . S
C1685 C1686 1.287 1_545 S
C1686 C1685 1.287 1_565 S
C1686 C1687 1.524 . S
C1686 H1705 0.913 . S
C1687 H1663 0.950 . S
C1687 C1686 1.524 . S
C1687 C1688 1.415 . S
C1688 H1664 0.950 . S
C1688 C1683 1.363 . S
C1688 C1687 1.415 . S
C1689 H1665 0.951 . S
C1689 C1690 1.366 1_545 S
C1689 C1691 1.388 . S
C1690 C1689 1.366 1_565 S
C1690 C1694 1.385 . S
C1691 H1666 0.951 . S
C1691 C1689 1.388 . S
C1691 C1692 1.366 1_545 S
C1692 C1691 1.366 1_565 S
C1692 C1693 1.414 . S
C1692 C1695 1.499 1_565 S
C1693 H1667 0.950 . S
C1693 C1692 1.414 . S
C1693 C1694 1.374 . S
C1694 H1668 0.950 . S
C1694 C1690 1.385 . S
C1694 C1693 1.374 . S
C1695 C1692 1.499 1_545 S
C1695 C1696 1.373 1_545 S
C1695 C1697 1.389 . S
C1696 H1669 0.950 . S
C1696 C1682 1.377 1_565 S
C1696 C1695 1.373 1_565 S
C1697 C1681 1.377 . S
C1697 C1695 1.389 . S
C1697 C1698 1.524 . S
C1698 C1697 1.524 . S
C1698 C1699 1.397 1_554 S
C1698 C1703 1.363 . S
C1699 H1670 0.950 . S
C1699 C1698 1.397 1_556 S
C1699 C1700 1.334 . S
C1700 H1671 0.950 . S
C1700 C1699 1.334 . S
C1700 C1701 1.287 . S
C1701 C1700 1.287 . S
C1701 C1702 1.524 1_556 S
C1701 H1704 0.999 . S
C1702 H1672 0.950 . S
C1702 C1701 1.524 1_554 S
C1702 C1703 1.415 . S
C1703 H1673 0.950 . S
C1703 C1698 1.363 . S
C1703 C1702 1.415 . S
H1704 C1701 0.999 . S
H1705 C1686 0.913 . S
H1706 C1724 0.951 . S
H1707 C1726 0.951 . S
H1708 C1728 0.950 . S
H1709 C1729 0.950 . S
H1710 C1731 0.950 . S
H1711 C1734 0.950 . S
H1712 C1735 0.950 . S
H1713 C1737 0.950 . S
H1714 C1738 0.950 . S
H1715 C1739 0.951 . S
H1716 C1741 0.951 . S
H1717 C1743 0.950 . S
H1718 C1744 0.950 . S
H1719 C1746 0.950 . S
H1720 C1749 0.950 . S
H1721 C1750 0.950 . S
H1722 C1752 0.950 . S
H1723 C1753 0.950 . S
C1724 H1706 0.951 . S
C1724 C1725 1.366 . S
C1724 C1726 1.388 . S
C1725 C1724 1.366 . S
C1725 C1729 1.385 . S
C1726 H1707 0.951 . S
C1726 C1724 1.388 . S
C1726 C1727 1.366 . S
C1727 C1726 1.366 . S
C1727 C1728 1.414 . S
C1727 C1730 1.499 . S
C1728 H1708 0.950 . S
C1728 C1727 1.414 . S
C1728 C1729 1.374 . S
C1729 H1709 0.950 . S
C1729 C1725 1.385 . S
C1729 C1728 1.374 . S
C1730 C1727 1.499 . S
C1730 C1731 1.373 . S
C1730 C1732 1.389 . S
C1731 H1710 0.950 . S
C1731 C1730 1.373 . S
C1731 C1747 1.377 . S
C1732 C1730 1.389 . S
C1732 C1733 1.524 . S
C1732 C1746 1.377 . S
C1733 C1732 1.524 . S
C1733 C1734 1.397 . S
C1733 C1738 1.363 . S
C1734 H1711 0.950 . S
C1734 C1733 1.397 . S
C1734 C1735 1.334 . S
C1735 H1712 0.950 . S
C1735 C1734 1.334 . S
C1735 C1736 1.287 . S
C1736 C1735 1.287 . S
C1736 C1737 1.524 . S
C1736 H1755 0.913 . S
C1737 H1713 0.950 . S
C1737 C1736 1.524 . S
C1737 C1738 1.415 . S
C1738 H1714 0.950 . S
C1738 C1733 1.363 . S
C1738 C1737 1.415 . S
C1739 H1715 0.951 . S
C1739 C1740 1.366 . S
C1739 C1741 1.388 . S
C1740 C1739 1.366 . S
C1740 C1744 1.385 . S
C1741 H1716 0.951 . S
C1741 C1739 1.388 . S
C1741 C1742 1.366 . S
C1742 C1741 1.366 . S
C1742 C1743 1.414 . S
C1742 C1745 1.499 . S
C1743 H1717 0.950 . S
C1743 C1742 1.414 . S
C1743 C1744 1.374 . S
C1744 H1718 0.950 . S
C1744 C1740 1.385 . S
C1744 C1743 1.374 . S
C1745 C1742 1.499 . S
C1745 C1746 1.373 . S
C1745 C1747 1.389 . S
C1746 H1719 0.950 . S
C1746 C1732 1.377 . S
C1746 C1745 1.373 . S
C1747 C1731 1.377 . S
C1747 C1745 1.389 . S
C1747 C1748 1.524 . S
C1748 C1747 1.524 . S
C1748 C1749 1.397 . S
C1748 C1753 1.363 . S
C1749 H1720 0.950 . S
C1749 C1748 1.397 . S
C1749 C1750 1.334 . S
C1750 H1721 0.950 . S
C1750 C1749 1.334 . S
C1750 C1751 1.287 . S
C1751 C1750 1.287 . S
C1751 C1752 1.524 . S
C1751 H1754 0.999 . S
C1752 H1722 0.950 . S
C1752 C1751 1.524 . S
C1752 C1753 1.415 . S
C1753 H1723 0.950 . S
C1753 C1748 1.363 . S
C1753 C1752 1.415 . S
H1754 C1751 0.999 . S
H1755 C1736 0.913 . S
H1756 C1774 0.951 . S
H1757 C1776 0.951 . S
H1758 C1778 0.950 . S
H1759 C1779 0.950 . S
H1760 C1781 0.950 . S
H1761 C1784 0.950 . S
H1762 C1785 0.950 1_556 S
H1763 C1787 0.950 . S
H1764 C1788 0.950 . S
H1765 C1789 0.951 . S
H1766 C1791 0.951 . S
H1767 C1793 0.950 . S
H1768 C1794 0.950 . S
H1769 C1796 0.950 . S
H1770 C1799 0.950 . S
H1771 C1800 0.950 . S
H1772 C1802 0.950 . S
H1773 C1803 0.950 . S
C1774 H1756 0.951 . S
C1774 C1775 1.366 . S
C1774 C1776 1.388 . S
C1775 C1774 1.366 . S
C1775 C1779 1.385 . S
C1776 H1757 0.951 . S
C1776 C1774 1.388 . S
C1776 C1777 1.366 . S
C1777 C1776 1.366 . S
C1777 C1778 1.414 . S
C1777 C1780 1.499 . S
C1778 H1758 0.950 . S
C1778 C1777 1.414 . S
C1778 C1779 1.374 . S
C1779 H1759 0.950 . S
C1779 C1775 1.385 . S
C1779 C1778 1.374 . S
C1780 C1777 1.499 . S
C1780 C1781 1.373 . S
C1780 C1782 1.389 . S
C1781 H1760 0.950 . S
C1781 C1780 1.373 . S
C1781 C1797 1.377 . S
C1782 C1780 1.389 . S
C1782 C1783 1.524 . S
C1782 C1796 1.377 . S
C1783 C1782 1.524 . S
C1783 C1784 1.397 . S
C1783 C1788 1.363 . S
C1784 H1761 0.950 . S
C1784 C1783 1.397 . S
C1784 C1785 1.334 . S
C1785 H1762 0.950 1_554 S
C1785 C1784 1.334 . S
C1785 C1786 1.287 . S
C1786 C1785 1.287 . S
C1786 C1787 1.524 . S
C1786 H1805 0.913 . S
C1787 H1763 0.950 . S
C1787 C1786 1.524 . S
C1787 C1788 1.415 . S
C1788 H1764 0.950 . S
C1788 C1783 1.363 . S
C1788 C1787 1.415 . S
C1789 H1765 0.951 . S
C1789 C1790 1.366 . S
C1789 C1791 1.388 . S
C1790 C1789 1.366 . S
C1790 C1794 1.385 . S
C1791 H1766 0.951 . S
C1791 C1789 1.388 . S
C1791 C1792 1.366 . S
C1792 C1791 1.366 . S
C1792 C1793 1.414 . S
C1792 C1795 1.499 . S
C1793 H1767 0.950 . S
C1793 C1792 1.414 . S
C1793 C1794 1.374 . S
C1794 H1768 0.950 . S
C1794 C1790 1.385 . S
C1794 C1793 1.374 . S
C1795 C1792 1.499 . S
C1795 C1796 1.373 . S
C1795 C1797 1.389 . S
C1796 H1769 0.950 . S
C1796 C1782 1.377 . S
C1796 C1795 1.373 . S
C1797 C1781 1.377 . S
C1797 C1795 1.389 . S
C1797 C1798 1.524 . S
C1798 C1797 1.524 . S
C1798 C1799 1.397 . S
C1798 C1803 1.363 . S
C1799 H1770 0.950 . S
C1799 C1798 1.397 . S
C1799 C1800 1.334 . S
C1800 H1771 0.950 . S
C1800 C1799 1.334 . S
C1800 C1801 1.287 . S
C1801 C1800 1.287 . S
C1801 C1802 1.524 . S
C1801 H1804 0.999 . S
C1802 H1772 0.950 . S
C1802 C1801 1.524 . S
C1802 C1803 1.415 . S
C1803 H1773 0.950 . S
C1803 C1798 1.363 . S
C1803 C1802 1.415 . S
H1804 C1801 0.999 . S
H1805 C1786 0.913 . S
H1806 C1824 0.951 . S
H1807 C1826 0.951 . S
H1808 C1828 0.950 . S
H1809 C1829 0.950 . S
H1810 C1831 0.950 . S
H1811 C1834 0.950 . S
H1812 C1835 0.950 . S
H1813 C1837 0.950 . S
H1814 C1838 0.950 . S
H1815 C1839 0.951 . S
H1816 C1841 0.951 . S
H1817 C1843 0.950 . S
H1818 C1844 0.950 . S
H1819 C1846 0.950 . S
H1820 C1849 0.950 . S
H1821 C1850 0.950 . S
H1822 C1852 0.950 . S
H1823 C1853 0.950 . S
C1824 H1806 0.951 . S
C1824 C1825 1.366 . S
C1824 C1826 1.388 . S
C1825 C1824 1.366 . S
C1825 C1829 1.385 . S
C1826 H1807 0.951 . S
C1826 C1824 1.388 . S
C1826 C1827 1.366 . S
C1827 C1826 1.366 . S
C1827 C1828 1.414 . S
C1827 C1830 1.499 . S
C1828 H1808 0.950 . S
C1828 C1827 1.414 . S
C1828 C1829 1.374 . S
C1829 H1809 0.950 . S
C1829 C1825 1.385 . S
C1829 C1828 1.374 . S
C1830 C1827 1.499 . S
C1830 C1831 1.373 . S
C1830 C1832 1.389 . S
C1831 H1810 0.950 . S
C1831 C1830 1.373 . S
C1831 C1847 1.377 . S
C1832 C1830 1.389 . S
C1832 C1833 1.524 . S
C1832 C1846 1.377 . S
C1833 C1832 1.524 . S
C1833 C1834 1.397 . S
C1833 C1838 1.363 . S
C1834 H1811 0.950 . S
C1834 C1833 1.397 . S
C1834 C1835 1.334 . S
C1835 H1812 0.950 . S
C1835 C1834 1.334 . S
C1835 C1836 1.287 . S
C1836 C1835 1.287 . S
C1836 C1837 1.524 . S
C1836 H1855 0.913 . S
C1837 H1813 0.950 . S
C1837 C1836 1.524 . S
C1837 C1838 1.415 . S
C1838 H1814 0.950 . S
C1838 C1833 1.363 . S
C1838 C1837 1.415 . S
C1839 H1815 0.951 . S
C1839 C1840 1.366 . S
C1839 C1841 1.388 . S
C1840 C1839 1.366 . S
C1840 C1844 1.385 . S
C1841 H1816 0.951 . S
C1841 C1839 1.388 . S
C1841 C1842 1.366 . S
C1842 C1841 1.366 . S
C1842 C1843 1.414 . S
C1842 C1845 1.499 . S
C1843 H1817 0.950 . S
C1843 C1842 1.414 . S
C1843 C1844 1.374 . S
C1844 H1818 0.950 . S
C1844 C1840 1.385 . S
C1844 C1843 1.374 . S
C1845 C1842 1.499 . S
C1845 C1846 1.373 . S
C1845 C1847 1.389 . S
C1846 H1819 0.950 . S
C1846 C1832 1.377 . S
C1846 C1845 1.373 . S
C1847 C1831 1.377 . S
C1847 C1845 1.389 . S
C1847 C1848 1.524 . S
C1848 C1847 1.524 . S
C1848 C1849 1.397 . S
C1848 C1853 1.363 . S
C1849 H1820 0.950 . S
C1849 C1848 1.397 . S
C1849 C1850 1.334 . S
C1850 H1821 0.950 . S
C1850 C1849 1.334 . S
C1850 C1851 1.287 . S
C1851 C1850 1.287 . S
C1851 C1852 1.524 . S
C1851 H1854 0.999 . S
C1852 H1822 0.950 . S
C1852 C1851 1.524 . S
C1852 C1853 1.415 . S
C1853 H1823 0.950 . S
C1853 C1848 1.363 . S
C1853 C1852 1.415 . S
H1854 C1851 0.999 . S
H1855 C1836 0.913 . S
H1856 C1874 0.951 . S
H1857 C1876 0.951 . S
H1858 C1878 0.950 . S
H1859 C1879 0.950 . S
H1860 C1881 0.950 1_545 S
H1861 C1884 0.950 1_545 S
H1862 C1885 0.950 1_545 S
H1863 C1887 0.950 . S
H1864 C1888 0.950 . S
H1865 C1889 0.951 . S
H1866 C1891 0.951 . S
H1867 C1893 0.950 . S
H1868 C1894 0.950 . S
H1869 C1896 0.950 . S
H1870 C1899 0.950 . S
H1871 C1900 0.950 . S
H1872 C1902 0.950 . S
H1873 C1903 0.950 . S
C1874 H1856 0.951 . S
C1874 C1875 1.366 . S
C1874 C1876 1.388 . S
C1875 C1874 1.366 . S
C1875 C1879 1.385 . S
C1876 H1857 0.951 . S
C1876 C1874 1.388 . S
C1876 C1877 1.366 . S
C1877 C1876 1.366 . S
C1877 C1878 1.414 . S
C1877 C1880 1.481 1_545 S
C1878 H1858 0.950 . S
C1878 C1877 1.414 . S
C1878 C1879 1.374 . S
C1879 H1859 0.950 . S
C1879 C1875 1.385 . S
C1879 C1878 1.374 . S
C1880 C1877 1.481 1_565 S
C1880 C1881 1.360 . S
C1880 C1882 1.421 . S
C1881 H1860 0.950 1_565 S
C1881 C1880 1.360 . S
C1881 C1897 1.377 . S
C1882 C1880 1.421 . S
C1882 C1883 1.524 . S
C1882 C1896 1.377 . S
C1883 C1882 1.524 . S
C1883 C1884 1.397 . S
C1883 C1888 1.363 . S
C1884 H1861 0.950 1_565 S
C1884 C1883 1.397 . S
C1884 C1885 1.334 . S
C1885 H1862 0.950 1_565 S
C1885 C1884 1.334 . S
C1885 C1886 1.287 . S
C1886 C1885 1.287 . S
C1886 C1887 1.524 . S
C1886 H1905 0.913 . S
C1887 H1863 0.950 . S
C1887 C1886 1.524 . S
C1887 C1888 1.415 . S
C1888 H1864 0.950 . S
C1888 C1883 1.363 . S
C1888 C1887 1.415 . S
C1889 H1865 0.951 . S
C1889 C1890 1.366 . S
C1889 C1891 1.388 . S
C1890 C1889 1.366 . S
C1890 C1894 1.385 . S
C1891 H1866 0.951 . S
C1891 C1889 1.388 . S
C1891 C1892 1.366 . S
C1892 C1891 1.366 . S
C1892 C1893 1.414 . S
C1892 C1895 1.499 . S
C1893 H1867 0.950 . S
C1893 C1892 1.414 . S
C1893 C1894 1.374 . S
C1894 H1868 0.950 . S
C1894 C1890 1.385 . S
C1894 C1893 1.374 . S
C1895 C1892 1.499 . S
C1895 C1896 1.373 . S
C1895 C1897 1.389 . S
C1896 H1869 0.950 . S
C1896 C1882 1.377 . S
C1896 C1895 1.373 . S
C1897 C1881 1.377 . S
C1897 C1895 1.389 . S
C1897 C1898 1.524 . S
C1898 C1897 1.524 . S
C1898 C1899 1.397 . S
C1898 C1903 1.363 . S
C1899 H1870 0.950 . S
C1899 C1898 1.397 . S
C1899 C1900 1.334 . S
C1900 H1871 0.950 . S
C1900 C1899 1.334 . S
C1900 C1901 1.287 . S
C1901 C1900 1.287 . S
C1901 C1902 1.524 . S
C1901 H1904 0.999 . S
C1902 H1872 0.950 . S
C1902 C1901 1.524 . S
C1902 C1903 1.415 . S
C1903 H1873 0.950 . S
C1903 C1898 1.363 . S
C1903 C1902 1.415 . S
H1904 C1901 0.999 . S
H1905 C1886 0.913 . S
H1906 C1924 0.951 . S
H1907 C1926 0.951 . S
H1908 C1928 0.950 . S
H1909 C1929 0.950 . S
H1910 C1931 0.950 . S
H1911 C1934 0.950 . S
H1912 C1935 0.950 . S
H1913 C1937 0.950 . S
H1914 C1938 0.950 . S
H1915 C1939 0.951 . S
H1916 C1941 0.951 . S
H1917 C1943 0.950 . S
H1918 C1944 0.950 . S
H1919 C1946 0.950 . S
H1920 C1949 0.950 . S
H1921 C1950 0.950 . S
H1922 C1952 0.950 . S
H1923 C1953 0.950 . S
C1924 H1906 0.951 . S
C1924 C1925 1.366 . S
C1924 C1926 1.388 1_655 S
C1925 C1924 1.366 . S
C1925 C1929 1.385 . S
C1926 H1907 0.951 . S
C1926 C1924 1.388 1_455 S
C1926 C1927 1.366 . S
C1927 C1926 1.366 . S
C1927 C1928 1.414 1_455 S
C1927 C1930 1.499 . S
C1928 H1908 0.950 . S
C1928 C1927 1.414 1_655 S
C1928 C1929 1.374 . S
C1929 H1909 0.950 . S
C1929 C1925 1.385 . S
C1929 C1928 1.374 . S
C1930 C1927 1.499 . S
C1930 C1931 1.373 . S
C1930 C1932 1.389 . S
C1931 H1910 0.950 . S
C1931 C1930 1.373 . S
C1931 C1947 1.377 . S
C1932 C1930 1.389 . S
C1932 C1933 1.524 . S
C1932 C1946 1.377 . S
C1933 C1932 1.524 . S
C1933 C1934 1.397 1_455 S
C1933 C1938 1.363 . S
C1934 H1911 0.950 . S
C1934 C1933 1.397 1_655 S
C1934 C1935 1.334 . S
C1935 H1912 0.950 . S
C1935 C1934 1.334 . S
C1935 C1936 1.287 . S
C1936 C1935 1.287 . S
C1936 C1937 1.524 1_655 S
C1936 H1955 0.913 . S
C1937 H1913 0.950 . S
C1937 C1936 1.524 1_455 S
C1937 C1938 1.415 . S
C1938 H1914 0.950 . S
C1938 C1933 1.363 . S
C1938 C1937 1.415 . S
C1939 H1915 0.951 . S
C1939 C1940 1.366 . S
C1939 C1941 1.388 . S
C1940 C1939 1.366 . S
C1940 C1944 1.385 . S
C1941 H1916 0.951 . S
C1941 C1939 1.388 . S
C1941 C1942 1.366 . S
C1942 C1941 1.366 . S
C1942 C1943 1.414 . S
C1942 C1945 1.499 . S
C1943 H1917 0.950 . S
C1943 C1942 1.414 . S
C1943 C1944 1.374 . S
C1944 H1918 0.950 . S
C1944 C1940 1.385 . S
C1944 C1943 1.374 . S
C1945 C1942 1.499 . S
C1945 C1946 1.373 . S
C1945 C1947 1.389 . S
C1946 H1919 0.950 . S
C1946 C1932 1.377 . S
C1946 C1945 1.373 . S
C1947 C1931 1.377 . S
C1947 C1945 1.389 . S
C1947 C1948 1.524 . S
C1948 C1947 1.524 . S
C1948 C1949 1.397 . S
C1948 C1953 1.363 . S
C1949 H1920 0.950 . S
C1949 C1948 1.397 . S
C1949 C1950 1.334 . S
C1950 H1921 0.950 . S
C1950 C1949 1.334 . S
C1950 C1951 1.287 . S
C1951 C1950 1.287 . S
C1951 C1952 1.524 . S
C1951 H1954 0.999 . S
C1952 H1922 0.950 . S
C1952 C1951 1.524 . S
C1952 C1953 1.415 . S
C1953 H1923 0.950 . S
C1953 C1948 1.363 . S
C1953 C1952 1.415 . S
H1954 C1951 0.999 . S
H1955 C1936 0.913 . S
H1956 C1974 0.951 . S
H1957 C1976 0.951 . S
H1958 C1978 0.950 . S
H1959 C1979 0.950 . S
H1960 C1981 0.950 . S
H1961 C1984 0.950 . S
H1962 C1985 0.950 . S
H1963 C1987 0.950 . S
H1964 C1988 0.950 . S
H1965 C1989 0.951 . S
H1966 C1991 0.951 . S
H1967 C1993 0.950 . S
H1968 C1994 0.950 . S
H1969 C1996 0.950 . S
H1970 C1999 0.950 . S
H1971 C2000 0.950 . S
H1972 C2002 0.950 . S
H1973 C2003 0.950 . S
C1974 H1956 0.951 . S
C1974 C1975 1.366 . S
C1974 C1976 1.388 . S
C1975 C1974 1.366 . S
C1975 C1979 1.385 . S
C1976 H1957 0.951 . S
C1976 C1974 1.388 . S
C1976 C1977 1.366 . S
C1977 C1976 1.366 . S
C1977 C1978 1.414 . S
C1977 C1980 1.499 . S
C1978 H1958 0.950 . S
C1978 C1977 1.414 . S
C1978 C1979 1.374 . S
C1979 H1959 0.950 . S
C1979 C1975 1.385 . S
C1979 C1978 1.374 . S
C1980 C1977 1.499 . S
C1980 C1981 1.373 . S
C1980 C1982 1.389 . S
C1981 H1960 0.950 . S
C1981 C1980 1.373 . S
C1981 C1997 1.377 . S
C1982 C1980 1.389 . S
C1982 C1983 1.524 . S
C1982 C1996 1.377 . S
C1983 C1982 1.524 . S
C1983 C1984 1.397 . S
C1983 C1988 1.363 . S
C1984 H1961 0.950 . S
C1984 C1983 1.397 . S
C1984 C1985 1.334 . S
C1985 H1962 0.950 . S
C1985 C1984 1.334 . S
C1985 C1986 1.287 . S
C1986 C1985 1.287 . S
C1986 C1987 1.524 . S
C1986 H2005 0.913 . S
C1987 H1963 0.950 . S
C1987 C1986 1.524 . S
C1987 C1988 1.415 . S
C1988 H1964 0.950 . S
C1988 C1983 1.363 . S
C1988 C1987 1.415 . S
C1989 H1965 0.951 . S
C1989 C1990 1.366 . S
C1989 C1991 1.388 . S
C1990 C1989 1.366 . S
C1990 C1994 1.385 . S
C1991 H1966 0.951 . S
C1991 C1989 1.388 . S
C1991 C1992 1.366 . S
C1992 C1991 1.366 . S
C1992 C1993 1.414 . S
C1992 C1995 1.499 . S
C1993 H1967 0.950 . S
C1993 C1992 1.414 . S
C1993 C1994 1.374 . S
C1994 H1968 0.950 . S
C1994 C1990 1.385 . S
C1994 C1993 1.374 . S
C1995 C1992 1.499 . S
C1995 C1996 1.373 . S
C1995 C1997 1.389 . S
C1996 H1969 0.950 . S
C1996 C1982 1.377 . S
C1996 C1995 1.373 . S
C1997 C1981 1.377 . S
C1997 C1995 1.389 . S
C1997 C1998 1.524 . S
C1998 C1997 1.524 . S
C1998 C1999 1.397 . S
C1998 C2003 1.363 . S
C1999 H1970 0.950 . S
C1999 C1998 1.397 . S
C1999 C2000 1.334 . S
C2000 H1971 0.950 . S
C2000 C1999 1.334 . S
C2000 C2001 1.287 . S
C2001 C2000 1.287 . S
C2001 C2002 1.524 . S
C2001 H2004 0.999 . S
C2002 H1972 0.950 . S
C2002 C2001 1.524 . S
C2002 C2003 1.415 . S
C2003 H1973 0.950 . S
C2003 C1998 1.363 . S
C2003 C2002 1.415 . S
H2004 C2001 0.999 . S
H2005 C1986 0.913 . S
H2006 C2024 0.951 . S
H2007 C2026 0.951 . S
H2008 C2028 0.950 . S
H2009 C2029 0.950 . S
H2010 C2031 0.950 . S
H2011 C2034 0.950 . S
H2012 C2035 0.950 . S
H2013 C2037 0.950 . S
H2014 C2038 0.950 . S
H2015 C2039 0.951 . S
H2016 C2041 0.951 . S
H2017 C2043 0.950 . S
H2018 C2044 0.950 . S
H2019 C2046 0.950 . S
H2020 C2049 0.950 . S
H2021 C2050 0.950 . S
H2022 C2052 0.950 . S
H2023 C2053 0.950 . S
C2024 H2006 0.951 . S
C2024 C2025 1.366 . S
C2024 C2026 1.388 . S
C2025 C2024 1.366 . S
C2025 C2029 1.385 . S
C2026 H2007 0.951 . S
C2026 C2024 1.388 . S
C2026 C2027 1.366 1_565 S
C2027 C2026 1.366 1_545 S
C2027 C2028 1.414 . S
C2027 C2030 1.499 . S
C2028 H2008 0.950 . S
C2028 C2027 1.414 . S
C2028 C2029 1.374 1_545 S
C2029 H2009 0.950 . S
C2029 C2025 1.385 . S
C2029 C2028 1.374 1_565 S
C2030 C2027 1.499 . S
C2030 C2031 1.373 . S
C2030 C2032 1.389 . S
C2031 H2010 0.950 . S
C2031 C2030 1.373 . S
C2031 C2047 1.377 . S
C2032 C2030 1.389 . S
C2032 C2033 1.524 . S
C2032 C2046 1.377 . S
C2033 C2032 1.524 . S
C2033 C2034 1.397 . S
C2033 C2038 1.363 . S
C2034 H2011 0.950 . S
C2034 C2033 1.397 . S
C2034 C2035 1.334 . S
C2035 H2012 0.950 . S
C2035 C2034 1.334 . S
C2035 C2036 1.287 . S
C2036 C2035 1.287 . S
C2036 C2037 1.524 . S
C2036 H2055 0.913 . S
C2037 H2013 0.950 . S
C2037 C2036 1.524 . S
C2037 C2038 1.415 . S
C2038 H2014 0.950 . S
C2038 C2033 1.363 . S
C2038 C2037 1.415 . S
C2039 H2015 0.951 . S
C2039 C2040 1.366 . S
C2039 C2041 1.388 . S
C2040 C2039 1.366 . S
C2040 C2044 1.385 . S
C2041 H2016 0.951 . S
C2041 C2039 1.388 . S
C2041 C2042 1.366 . S
C2042 C2041 1.366 . S
C2042 C2043 1.414 . S
C2042 C2045 1.499 . S
C2043 H2017 0.950 . S
C2043 C2042 1.414 . S
C2043 C2044 1.374 . S
C2044 H2018 0.950 . S
C2044 C2040 1.385 . S
C2044 C2043 1.374 . S
C2045 C2042 1.499 . S
C2045 C2046 1.373 . S
C2045 C2047 1.389 . S
C2046 H2019 0.950 . S
C2046 C2032 1.377 . S
C2046 C2045 1.373 . S
C2047 C2031 1.377 . S
C2047 C2045 1.389 . S
C2047 C2048 1.524 . S
C2048 C2047 1.524 . S
C2048 C2049 1.397 . S
C2048 C2053 1.363 . S
C2049 H2020 0.950 . S
C2049 C2048 1.397 . S
C2049 C2050 1.334 . S
C2050 H2021 0.950 . S
C2050 C2049 1.334 . S
C2050 C2051 1.287 . S
C2051 C2050 1.287 . S
C2051 C2052 1.524 . S
C2051 H2054 0.999 . S
C2052 H2022 0.950 . S
C2052 C2051 1.524 . S
C2052 C2053 1.415 . S
C2053 H2023 0.950 . S
C2053 C2048 1.363 . S
C2053 C2052 1.415 . S
H2054 C2051 0.999 . S
H2055 C2036 0.913 . S
H2056 C2074 0.951 . S
H2057 C2076 0.951 . S
H2058 C2078 0.950 . S
H2059 C2079 0.950 . S
H2060 C2081 0.950 . S
H2061 C2084 0.997 . S
H2062 C2085 0.950 . S
H2063 C2087 0.950 . S
H2064 C2088 0.950 . S
H2065 C2089 0.951 . S
H2066 C2091 0.951 1_655 S
H2067 C2093 0.950 . S
H2068 C2094 0.950 . S
H2069 C2096 0.950 . S
H2070 C2099 0.950 . S
H2071 C2100 0.950 . S
H2072 C2102 0.950 . S
H2073 C2103 0.950 . S
C2074 H2056 0.951 . S
C2074 C2075 1.366 . S
C2074 C2076 1.388 . S
C2075 C2074 1.366 . S
C2075 C2079 1.385 . S
C2076 H2057 0.951 . S
C2076 C2074 1.388 . S
C2076 C2077 1.366 . S
C2077 C2076 1.366 . S
C2077 C2078 1.414 . S
C2077 C2080 1.499 . S
C2078 H2058 0.950 . S
C2078 C2077 1.414 . S
C2078 C2079 1.374 . S
C2079 H2059 0.950 . S
C2079 C2075 1.385 . S
C2079 C2078 1.374 . S
C2080 C2077 1.499 . S
C2080 C2081 1.373 . S
C2080 C2082 1.389 . S
C2081 H2060 0.950 . S
C2081 C2080 1.373 . S
C2081 C2097 1.377 . S
C2082 C2080 1.389 . S
C2082 C2083 1.524 1_655 S
C2082 C2096 1.377 1_655 S
C2083 C2082 1.524 1_455 S
C2083 C2084 1.359 1_455 S
C2083 C2088 1.363 . S
C2084 H2061 0.997 . S
C2084 C2083 1.359 1_655 S
C2084 C2085 1.327 1_655 S
C2085 H2062 0.950 . S
C2085 C2084 1.327 1_455 S
C2085 C2086 1.287 . S
C2086 C2085 1.287 . S
C2086 C2087 1.524 . S
C2086 H2105 0.913 . S
C2087 H2063 0.950 . S
C2087 C2086 1.524 . S
C2087 C2088 1.415 . S
C2088 H2064 0.950 . S
C2088 C2083 1.363 . S
C2088 C2087 1.415 . S
C2089 H2065 0.951 . S
C2089 C2090 1.366 . S
C2089 C2091 1.388 . S
C2090 C2089 1.366 . S
C2090 C2094 1.385 . S
C2091 H2066 0.951 1_455 S
C2091 C2089 1.388 . S
C2091 C2092 1.366 . S
C2092 C2091 1.366 . S
C2092 C2093 1.414 . S
C2092 C2095 1.497 1_455 S
C2093 H2067 0.950 . S
C2093 C2092 1.414 . S
C2093 C2094 1.374 . S
C2094 H2068 0.950 . S
C2094 C2090 1.385 . S
C2094 C2093 1.374 . S
C2095 C2092 1.497 1_655 S
C2095 C2096 1.373 1_655 S
C2095 C2097 1.392 . S
C2096 H2069 0.950 . S
C2096 C2082 1.377 1_455 S
C2096 C2095 1.373 1_455 S
C2097 C2081 1.377 . S
C2097 C2095 1.392 . S
C2097 C2098 1.524 . S
C2098 C2097 1.524 . S
C2098 C2099 1.397 . S
C2098 C2103 1.363 . S
C2099 H2070 0.950 . S
C2099 C2098 1.397 . S
C2099 C2100 1.334 . S
C2100 H2071 0.950 . S
C2100 C2099 1.334 . S
C2100 C2101 1.287 . S
C2101 C2100 1.287 . S
C2101 C2102 1.524 . S
C2101 H2104 0.999 . S
C2102 H2072 0.950 . S
C2102 C2101 1.524 . S
C2102 C2103 1.415 . S
C2103 H2073 0.950 . S
C2103 C2098 1.363 . S
C2103 C2102 1.415 . S
H2104 C2101 0.999 . S
H2105 C2086 0.913 . S
C775 C75 3.167 1_556 S
C790 C66 3.167 . S
C825 C159 3.217 1_556 S
C840 C150 3.223 . S
C875 C243 3.206 . S
C890 C234 3.206 . S
C925 C318 3.137 . S
C940 C327 3.137 . S
C975 C403 3.284 . S
C990 C392 3.284 1_556 S
C1025 C486 3.140 . S
C1040 C495 3.140 1_556 S
C1075 C576 2.484 . S
C1090 C567 2.484 . S
C1125 C651 2.285 . S
C1140 C660 2.285 1_556 S
C1175 C744 2.008 . S
C1190 C735 2.008 . S
C1225 C487 2.069 . S
C1240 C72 1.778 . S
C1275 C156 1.593 . S
C1290 C319 1.898 . S
C1325 C240 1.318 . S
C1340 C399 1.404 . S
C1375 C235 1.868 . S
C1390 C560 2.055 . S
C1425 C654 1.639 . S
C1440 C67 1.458 . S
C1475 C728 1.718 . S
C1490 C151 1.583 . S
C1525 C747 0.880 . S
C1540 C63 0.866 . S
C1575 C147 1.247 1_556 S
C1590 C579 1.280 . S
C1625 C655 1.356 . S
C1640 C231 1.346 . S
C1675 C224 1.982 . S
C1690 C315 1.740 . S
C1725 C402 2.572 . S
C1740 C56 2.504 . S
C1775 C140 2.171 . S
C1790 C483 1.946 . S
C1825 C738 1.337 . S
C1840 C324 1.308 . S
C1875 C570 1.511 . S
C1890 C411 1.442 . S
C1925 C644 1.573 . S
C1940 C492 1.620 . S
C1975 C571 1.892 . S
C1990 C476 1.840 . S
C2025 C308 1.156 . S
C2040 C663 1.245 . S
C2075 C739 1.288 . S
C2090 C408 1.310 . S
