# Generated by pormake.
# Topology sog, (5)-cn, num edge types: 1
# Building blocks:
#     Node 0, Type 0, BuildingBlock: XOMCOT_clean_sbu_1, # of connection points: 5
#     Node 1, Type 0, BuildingBlock: XOMCOT_clean_sbu_1, # of connection points: 5
#     Node 2, Type 0, BuildingBlock: XOMCOT_clean_sbu_1, # of connection points: 5
#     Node 3, Type 0, BuildingBlock: XOMCOT_clean_sbu_1, # of connection points: 5
#     Node 4, Type 0, BuildingBlock: XOMCOT_clean_sbu_1, # of connection points: 5
#     Node 5, Type 0, BuildingBlock: XOMCOT_clean_sbu_1, # of connection points: 5
#     Node 6, Type 0, BuildingBlock: XOMCOT_clean_sbu_1, # of connection points: 5
#     Node 7, Type 0, BuildingBlock: XOMCOT_clean_sbu_1, # of connection points: 5
#     Node 8, Type 0, BuildingBlock: XOMCOT_clean_sbu_1, # of connection points: 5
#     Node 9, Type 0, BuildingBlock: XOMCOT_clean_sbu_1, # of connection points: 5
#     Node 10, Type 0, BuildingBlock: XOMCOT_clean_sbu_1, # of connection points: 5
#     Node 11, Type 0, BuildingBlock: XOMCOT_clean_sbu_1, # of connection points: 5
#     Node 12, Type 0, BuildingBlock: XOMCOT_clean_sbu_1, # of connection points: 5
#     Node 13, Type 0, BuildingBlock: XOMCOT_clean_sbu_1, # of connection points: 5
#     Node 14, Type 0, BuildingBlock: XOMCOT_clean_sbu_1, # of connection points: 5
#     Node 15, Type 0, BuildingBlock: XOMCOT_clean_sbu_1, # of connection points: 5
#     Node 16, Type 0, BuildingBlock: XOMCOT_clean_sbu_1, # of connection points: 5
#     Node 17, Type 0, BuildingBlock: XOMCOT_clean_sbu_1, # of connection points: 5
#     Node 18, Type 0, BuildingBlock: XOMCOT_clean_sbu_1, # of connection points: 5
#     Node 19, Type 0, BuildingBlock: XOMCOT_clean_sbu_1, # of connection points: 5
#     Node 20, Type 0, BuildingBlock: XOMCOT_clean_sbu_1, # of connection points: 5
#     Node 21, Type 0, BuildingBlock: XOMCOT_clean_sbu_1, # of connection points: 5
#     Node 22, Type 0, BuildingBlock: XOMCOT_clean_sbu_1, # of connection points: 5
#     Node 23, Type 0, BuildingBlock: XOMCOT_clean_sbu_1, # of connection points: 5
#     Node 24, Type 0, BuildingBlock: XOMCOT_clean_sbu_1, # of connection points: 5
#     Node 25, Type 0, BuildingBlock: XOMCOT_clean_sbu_1, # of connection points: 5
#     Node 26, Type 0, BuildingBlock: XOMCOT_clean_sbu_1, # of connection points: 5
#     Node 27, Type 0, BuildingBlock: XOMCOT_clean_sbu_1, # of connection points: 5
#     Node 28, Type 0, BuildingBlock: XOMCOT_clean_sbu_1, # of connection points: 5
#     Node 29, Type 0, BuildingBlock: XOMCOT_clean_sbu_1, # of connection points: 5
#     Node 30, Type 0, BuildingBlock: XOMCOT_clean_sbu_1, # of connection points: 5
#     Node 31, Type 0, BuildingBlock: XOMCOT_clean_sbu_1, # of connection points: 5
#     Edge 32, Type (0, 0), BuildingBlock: XIVTED_clean_linker_0, # of connection points: 2
#     Edge 33, Type (0, 0), BuildingBlock: XIVTED_clean_linker_0, # of connection points: 2
#     Edge 34, Type (0, 0), BuildingBlock: XIVTED_clean_linker_0, # of connection points: 2
#     Edge 35, Type (0, 0), BuildingBlock: XIVTED_clean_linker_0, # of connection points: 2
#     Edge 36, Type (0, 0), BuildingBlock: XIVTED_clean_linker_0, # of connection points: 2
#     Edge 37, Type (0, 0), BuildingBlock: XIVTED_clean_linker_0, # of connection points: 2
#     Edge 38, Type (0, 0), BuildingBlock: XIVTED_clean_linker_0, # of connection points: 2
#     Edge 39, Type (0, 0), BuildingBlock: XIVTED_clean_linker_0, # of connection points: 2
#     Edge 40, Type (0, 0), BuildingBlock: XIVTED_clean_linker_0, # of connection points: 2
#     Edge 41, Type (0, 0), BuildingBlock: XIVTED_clean_linker_0, # of connection points: 2
#     Edge 42, Type (0, 0), BuildingBlock: XIVTED_clean_linker_0, # of connection points: 2
#     Edge 43, Type (0, 0), BuildingBlock: XIVTED_clean_linker_0, # of connection points: 2
#     Edge 44, Type (0, 0), BuildingBlock: XIVTED_clean_linker_0, # of connection points: 2
#     Edge 45, Type (0, 0), BuildingBlock: XIVTED_clean_linker_0, # of connection points: 2
#     Edge 46, Type (0, 0), BuildingBlock: XIVTED_clean_linker_0, # of connection points: 2
#     Edge 47, Type (0, 0), BuildingBlock: XIVTED_clean_linker_0, # of connection points: 2
#     Edge 48, Type (0, 0), BuildingBlock: XIVTED_clean_linker_0, # of connection points: 2
#     Edge 49, Type (0, 0), BuildingBlock: XIVTED_clean_linker_0, # of connection points: 2
#     Edge 50, Type (0, 0), BuildingBlock: XIVTED_clean_linker_0, # of connection points: 2
#     Edge 51, Type (0, 0), BuildingBlock: XIVTED_clean_linker_0, # of connection points: 2
#     Edge 52, Type (0, 0), BuildingBlock: XIVTED_clean_linker_0, # of connection points: 2
#     Edge 53, Type (0, 0), BuildingBlock: XIVTED_clean_linker_0, # of connection points: 2
#     Edge 54, Type (0, 0), BuildingBlock: XIVTED_clean_linker_0, # of connection points: 2
#     Edge 55, Type (0, 0), BuildingBlock: XIVTED_clean_linker_0, # of connection points: 2
#     Edge 56, Type (0, 0), BuildingBlock: XIVTED_clean_linker_0, # of connection points: 2
#     Edge 57, Type (0, 0), BuildingBlock: XIVTED_clean_linker_0, # of connection points: 2
#     Edge 58, Type (0, 0), BuildingBlock: XIVTED_clean_linker_0, # of connection points: 2
#     Edge 59, Type (0, 0), BuildingBlock: XIVTED_clean_linker_0, # of connection points: 2
#     Edge 60, Type (0, 0), BuildingBlock: XIVTED_clean_linker_0, # of connection points: 2
#     Edge 61, Type (0, 0), BuildingBlock: XIVTED_clean_linker_0, # of connection points: 2
#     Edge 62, Type (0, 0), BuildingBlock: XIVTED_clean_linker_0, # of connection points: 2
#     Edge 63, Type (0, 0), BuildingBlock: XIVTED_clean_linker_0, # of connection points: 2
#     Edge 64, Type (0, 0), BuildingBlock: XIVTED_clean_linker_0, # of connection points: 2
#     Edge 65, Type (0, 0), BuildingBlock: XIVTED_clean_linker_0, # of connection points: 2
#     Edge 66, Type (0, 0), BuildingBlock: XIVTED_clean_linker_0, # of connection points: 2
#     Edge 67, Type (0, 0), BuildingBlock: XIVTED_clean_linker_0, # of connection points: 2
#     Edge 68, Type (0, 0), BuildingBlock: XIVTED_clean_linker_0, # of connection points: 2
#     Edge 69, Type (0, 0), BuildingBlock: XIVTED_clean_linker_0, # of connection points: 2
#     Edge 70, Type (0, 0), BuildingBlock: XIVTED_clean_linker_0, # of connection points: 2
#     Edge 71, Type (0, 0), BuildingBlock: XIVTED_clean_linker_0, # of connection points: 2
#     Edge 72, Type (0, 0), BuildingBlock: XIVTED_clean_linker_0, # of connection points: 2
#     Edge 73, Type (0, 0), BuildingBlock: XIVTED_clean_linker_0, # of connection points: 2
#     Edge 74, Type (0, 0), BuildingBlock: XIVTED_clean_linker_0, # of connection points: 2
#     Edge 75, Type (0, 0), BuildingBlock: XIVTED_clean_linker_0, # of connection points: 2
#     Edge 76, Type (0, 0), BuildingBlock: XIVTED_clean_linker_0, # of connection points: 2
#     Edge 77, Type (0, 0), BuildingBlock: XIVTED_clean_linker_0, # of connection points: 2
#     Edge 78, Type (0, 0), BuildingBlock: XIVTED_clean_linker_0, # of connection points: 2
#     Edge 79, Type (0, 0), BuildingBlock: XIVTED_clean_linker_0, # of connection points: 2
#     Edge 80, Type (0, 0), BuildingBlock: XIVTED_clean_linker_0, # of connection points: 2
#     Edge 81, Type (0, 0), BuildingBlock: XIVTED_clean_linker_0, # of connection points: 2
#     Edge 82, Type (0, 0), BuildingBlock: XIVTED_clean_linker_0, # of connection points: 2
#     Edge 83, Type (0, 0), BuildingBlock: XIVTED_clean_linker_0, # of connection points: 2
#     Edge 84, Type (0, 0), BuildingBlock: XIVTED_clean_linker_0, # of connection points: 2
#     Edge 85, Type (0, 0), BuildingBlock: XIVTED_clean_linker_0, # of connection points: 2
#     Edge 86, Type (0, 0), BuildingBlock: XIVTED_clean_linker_0, # of connection points: 2
#     Edge 87, Type (0, 0), BuildingBlock: XIVTED_clean_linker_0, # of connection points: 2
#     Edge 88, Type (0, 0), BuildingBlock: XIVTED_clean_linker_0, # of connection points: 2
#     Edge 89, Type (0, 0), BuildingBlock: XIVTED_clean_linker_0, # of connection points: 2
#     Edge 90, Type (0, 0), BuildingBlock: XIVTED_clean_linker_0, # of connection points: 2
#     Edge 91, Type (0, 0), BuildingBlock: XIVTED_clean_linker_0, # of connection points: 2
#     Edge 92, Type (0, 0), BuildingBlock: XIVTED_clean_linker_0, # of connection points: 2
#     Edge 93, Type (0, 0), BuildingBlock: XIVTED_clean_linker_0, # of connection points: 2
#     Edge 94, Type (0, 0), BuildingBlock: XIVTED_clean_linker_0, # of connection points: 2
#     Edge 95, Type (0, 0), BuildingBlock: XIVTED_clean_linker_0, # of connection points: 2
#     Edge 96, Type (0, 0), BuildingBlock: XIVTED_clean_linker_0, # of connection points: 2
#     Edge 97, Type (0, 0), BuildingBlock: XIVTED_clean_linker_0, # of connection points: 2
#     Edge 98, Type (0, 0), BuildingBlock: XIVTED_clean_linker_0, # of connection points: 2
#     Edge 99, Type (0, 0), BuildingBlock: XIVTED_clean_linker_0, # of connection points: 2
#     Edge 100, Type (0, 0), BuildingBlock: XIVTED_clean_linker_0, # of connection points: 2
#     Edge 101, Type (0, 0), BuildingBlock: XIVTED_clean_linker_0, # of connection points: 2
#     Edge 102, Type (0, 0), BuildingBlock: XIVTED_clean_linker_0, # of connection points: 2
#     Edge 103, Type (0, 0), BuildingBlock: XIVTED_clean_linker_0, # of connection points: 2
#     Edge 104, Type (0, 0), BuildingBlock: XIVTED_clean_linker_0, # of connection points: 2
#     Edge 105, Type (0, 0), BuildingBlock: XIVTED_clean_linker_0, # of connection points: 2
#     Edge 106, Type (0, 0), BuildingBlock: XIVTED_clean_linker_0, # of connection points: 2
#     Edge 107, Type (0, 0), BuildingBlock: XIVTED_clean_linker_0, # of connection points: 2
#     Edge 108, Type (0, 0), BuildingBlock: XIVTED_clean_linker_0, # of connection points: 2
#     Edge 109, Type (0, 0), BuildingBlock: XIVTED_clean_linker_0, # of connection points: 2
#     Edge 110, Type (0, 0), BuildingBlock: XIVTED_clean_linker_0, # of connection points: 2
#     Edge 111, Type (0, 0), BuildingBlock: XIVTED_clean_linker_0, # of connection points: 2
# Relax obj value: 0.187
# Max RMSD: 0.183
# Mean RMSD: 0.183
data_MOF--net-sog--node1-XOMCOT_clean_sbu_1--edge1-XIVTED_clean_linker_0
_symmetry_space_group_name_H-M    P1
_symmetry_Int_Tables_number       1
_symmetry_cell_setting            triclinic
loop_
_symmetry_equiv_pos_as_xyz
'x, y, z'
_cell_length_a     90.365845
_cell_length_b     17.393834
_cell_length_c     115.35145
_cell_angle_alpha  89.994022
_cell_angle_beta   89.992816
_cell_angle_gamma 90.013095
loop_
_atom_site_label
_atom_site_type_symbol
_atom_site_fract_x
_atom_site_fract_y
_atom_site_fract_z
_atom_type_partial_charge
C0 C 0.46265 0.23139 0.05557 0.0
C1 C 0.46493 0.30964 0.05606 0.0
N2 N 0.45755 0.3423 0.04719 0.0
N3 N 0.45378 0.21529 0.04649 0.0
C4 C 0.45117 0.28365 0.04142 0.0
H5 H 0.46676 0.18933 0.06167 0.0
Co6 Co 0.44574 0.12117 0.04237 0.0
C7 C 0.41455 0.15966 0.03575 0.0
O8 O 0.40985 0.09639 0.04078 0.0
N9 N 0.43811 0.02549 0.03792 0.0
C10 C 0.43037 0.93165 0.02625 0.0
C11 C 0.43145 0.00986 0.02768 0.0
C12 C 0.44139 0.95563 0.04232 0.0
N13 N 0.43677 0.8978 0.03544 0.0
O14 O 0.45625 0.12361 0.02803 0.0
H15 H 0.4285 0.05246 0.02126 0.0
H16 H 0.44787 0.9465 0.05002 0.0
O17 O 0.42843 0.17471 0.03563 0.0
C18 C 0.46902 0.09505 0.02998 0.0
O19 O 0.47257 0.07862 0.04075 0.0
N20 N 0.43694 0.11552 0.05712 0.0
C21 C 0.43154 0.11389 0.08095 0.0
C22 C 0.42322 0.16148 0.07361 0.0
C23 C 0.42632 0.16276 0.0617 0.0
C24 C 0.44512 0.06983 0.06423 0.0
C25 C 0.44237 0.06648 0.07605 0.0
H26 H 0.42097 0.20585 0.05646 0.0
H27 H 0.45475 0.04074 0.06088 0.0
H28 H 0.44459 0.29042 0.03368 0.0
H29 H 0.47097 0.34023 0.06273 0.0
H30 H 0.4262 0.90218 0.01865 0.0
H31 H 0.41517 0.20123 0.07714 0.0
H32 H 0.44929 0.03018 0.08143 0.0
C33 C 0.79324 0.99191 0.05318 0.0
C34 C 0.79126 0.91342 0.05368 0.0
N35 N 0.79853 0.88174 0.04467 0.0
N36 N 0.80181 0.00891 0.04395 0.0
C37 C 0.80453 0.94097 0.03882 0.0
H38 H 0.78907 0.03352 0.05932 0.0
Co39 Co 0.8093 0.10313 0.03945 0.0
C40 C 0.84069 0.06763 0.0328 0.0
O41 O 0.84524 0.13244 0.03745 0.0
N42 N 0.81641 0.1987 0.0346 0.0
C43 C 0.8237 0.29247 0.02274 0.0
C44 C 0.82288 0.21421 0.02428 0.0
C45 C 0.813 0.26842 0.03895 0.0
N46 N 0.81733 0.32616 0.03196 0.0
O47 O 0.79882 0.09583 0.02509 0.0
H48 H 0.82594 0.17139 0.01793 0.0
H49 H 0.80669 0.2775 0.04674 0.0
O50 O 0.82688 0.05106 0.03294 0.0
C51 C 0.7858 0.1217 0.02684 0.0
O52 O 0.78215 0.14153 0.03746 0.0
N53 N 0.81805 0.11301 0.05419 0.0
C54 C 0.82343 0.12009 0.07803 0.0
C55 C 0.83219 0.07349 0.07085 0.0
C56 C 0.82911 0.06945 0.05894 0.0
C57 C 0.80943 0.15764 0.06114 0.0
C58 C 0.81216 0.16378 0.07295 0.0
H59 H 0.8349 0.02705 0.05386 0.0
H60 H 0.79955 0.18382 0.05768 0.0
H61 H 0.81088 0.93495 0.03095 0.0
H62 H 0.78546 0.88207 0.06039 0.0
H63 H 0.82772 0.322 0.0151 0.0
H64 H 0.84063 0.03654 0.07452 0.0
H65 H 0.80492 0.19939 0.07817 0.0
C66 C 0.46182 0.02302 0.19367 0.0
C67 C 0.4642 0.94501 0.19286 0.0
N68 N 0.45622 0.91005 0.2012 0.0
N69 N 0.45224 0.03678 0.20239 0.0
C70 C 0.44922 0.96705 0.2069 0.0
H71 H 0.46645 0.06674 0.18808 0.0
Co72 Co 0.4442 0.13101 0.20649 0.0
C73 C 0.41298 0.09309 0.21248 0.0
O74 O 0.4087 0.15573 0.20705 0.0
N75 N 0.43654 0.22716 0.21094 0.0
C76 C 0.42813 0.32037 0.22244 0.0
C77 C 0.42951 0.24226 0.22103 0.0
C78 C 0.43975 0.29742 0.20661 0.0
N79 N 0.43465 0.355 0.21335 0.0
O80 O 0.45472 0.1284 0.22087 0.0
H81 H 0.42634 0.19938 0.22735 0.0
H82 H 0.44685 0.30713 0.19927 0.0
O83 O 0.42681 0.07767 0.21317 0.0
C84 C 0.46737 0.15822 0.2188 0.0
O85 O 0.47049 0.17734 0.20804 0.0
N86 N 0.43551 0.13656 0.19168 0.0
C87 C 0.43021 0.13855 0.16783 0.0
C88 C 0.42224 0.08873 0.17507 0.0
C89 C 0.42532 0.0873 0.18699 0.0
C90 C 0.44343 0.18399 0.18464 0.0
C91 C 0.44068 0.18768 0.17282 0.0
H92 H 0.4203 0.04269 0.19216 0.0
H93 H 0.45289 0.21429 0.18803 0.0
H94 H 0.44159 0.95781 0.21398 0.0
H95 H 0.47111 0.91632 0.18653 0.0
H96 H 0.42326 0.34918 0.22983 0.0
H97 H 0.41451 0.04755 0.17147 0.0
H98 H 0.44735 0.22572 0.16753 0.0
C99 C 0.79576 0.23279 0.19049 0.0
C100 C 0.79314 0.31074 0.19057 0.0
N101 N 0.79941 0.34097 0.20016 0.0
N102 N 0.80381 0.21413 0.1999 0.0
C103 C 0.8055 0.28055 0.20575 0.0
H104 H 0.79245 0.19295 0.18378 0.0
Co105 Co 0.81207 0.12011 0.20385 0.0
C106 C 0.84342 0.16223 0.21013 0.0
O107 O 0.84855 0.09801 0.20568 0.0
N108 N 0.81994 0.02475 0.20818 0.0
C109 C 0.82753 0.93074 0.21987 0.0
C110 C 0.82687 0.009 0.21829 0.0
C111 C 0.81614 0.95504 0.20398 0.0
N112 N 0.82061 0.89697 0.21089 0.0
O113 O 0.80196 0.12265 0.21843 0.0
H114 H 0.83017 0.05165 0.2246 0.0
H115 H 0.80932 0.94653 0.19646 0.0
O116 O 0.82946 0.17502 0.21012 0.0
C117 C 0.7892 0.09316 0.21674 0.0
O118 O 0.78552 0.07448 0.20607 0.0
N119 N 0.82046 0.11419 0.18892 0.0
C120 C 0.82548 0.11054 0.16502 0.0
C121 C 0.83402 0.15813 0.1722 0.0
C122 C 0.83113 0.16033 0.18415 0.0
C123 C 0.81207 0.06845 0.18196 0.0
C124 C 0.81462 0.06413 0.17011 0.0
H125 H 0.83672 0.20323 0.18927 0.0
H126 H 0.80246 0.03995 0.18546 0.0
H127 H 0.81132 0.2842 0.2139 0.0
H128 H 0.78765 0.34272 0.18378 0.0
H129 H 0.83169 0.90148 0.22749 0.0
H130 H 0.84213 0.19702 0.16854 0.0
H131 H 0.80756 0.0276 0.16489 0.0
C132 C 0.54252 0.74445 0.94319 0.0
C133 C 0.54019 0.66631 0.94255 0.0
N134 N 0.54745 0.63271 0.9514 0.0
N135 N 0.55139 0.75973 0.9523 0.0
C136 C 0.55392 0.69078 0.95725 0.0
H137 H 0.53835 0.78705 0.93719 0.0
Co138 Co 0.55952 0.85391 0.95653 0.0
C139 C 0.59072 0.81253 0.96302 0.0
O140 O 0.59576 0.87608 0.95828 0.0
N141 N 0.56729 0.94951 0.96105 0.0
C142 C 0.57553 0.0433 0.97252 0.0
C143 C 0.57408 0.96505 0.97123 0.0
C144 C 0.56437 0.01952 0.95652 0.0
N145 N 0.56936 0.07744 0.96324 0.0
O146 O 0.54922 0.85035 0.97096 0.0
H147 H 0.57703 0.92241 0.97764 0.0
H148 H 0.5576 0.02885 0.94897 0.0
O149 O 0.57679 0.79923 0.963 0.0
C150 C 0.5364 0.87853 0.96909 0.0
O151 O 0.53275 0.8952 0.95835 0.0
N152 N 0.56805 0.86129 0.94172 0.0
C153 C 0.57336 0.87212 0.91795 0.0
C154 C 0.58217 0.8244 0.92492 0.0
C155 C 0.5791 0.81838 0.93682 0.0
C156 C 0.55935 0.90662 0.93494 0.0
C157 C 0.562 0.91437 0.92316 0.0
H158 H 0.58498 0.77575 0.94179 0.0
H159 H 0.54958 0.93295 0.93857 0.0
H160 H 0.56083 0.68291 0.96478 0.0
H161 H 0.53386 0.63656 0.93596 0.0
H162 H 0.58022 0.07259 0.97993 0.0
H163 H 0.59067 0.78859 0.9211 0.0
H164 H 0.55473 0.95054 0.91806 0.0
C165 C 0.21044 0.95839 0.93779 0.0
C166 C 0.21296 0.03667 0.93753 0.0
N167 N 0.20636 0.06813 0.94688 0.0
N168 N 0.20222 0.94132 0.9472 0.0
C169 C 0.20026 0.00888 0.95267 0.0
H170 H 0.21384 0.91705 0.93131 0.0
Co171 Co 0.19422 0.84734 0.95159 0.0
C172 C 0.16335 0.89286 0.95741 0.0
O173 O 0.1585 0.83481 0.95118 0.0
N174 N 0.18696 0.75146 0.9565 0.0
C175 C 0.17733 0.65602 0.96694 0.0
C176 C 0.17721 0.73394 0.965 0.0
C177 C 0.19358 0.68367 0.9541 0.0
N178 N 0.18765 0.62439 0.96003 0.0
O179 O 0.20552 0.85046 0.96556 0.0
H180 H 0.17108 0.77492 0.97012 0.0
H181 H 0.20303 0.67842 0.94841 0.0
O182 O 0.17732 0.90208 0.9588 0.0
C183 C 0.21846 0.8242 0.96361 0.0
O184 O 0.22202 0.80651 0.95288 0.0
N185 N 0.18403 0.84201 0.9371 0.0
C186 C 0.17411 0.83952 0.91403 0.0
C187 C 0.17177 0.9043 0.92107 0.0
C188 C 0.17677 0.9043 0.93256 0.0
C189 C 0.18625 0.77878 0.93034 0.0
C190 C 0.18094 0.77525 0.91904 0.0
H191 H 0.17552 0.95627 0.9376 0.0
H192 H 0.19286 0.73174 0.9333 0.0
H193 H 0.19424 0.01478 0.96072 0.0
H194 H 0.21854 0.06826 0.93073 0.0
H195 H 0.17083 0.62573 0.97336 0.0
H196 H 0.16684 0.95619 0.91763 0.0
H197 H 0.18282 0.72308 0.91415 0.0
C198 C 0.54264 0.01104 0.80367 0.0
C199 C 0.54016 0.08903 0.80418 0.0
N200 N 0.54794 0.12283 0.79563 0.0
N201 N 0.55213 0.99579 0.79495 0.0
C202 C 0.5549 0.06498 0.79004 0.0
H203 H 0.53854 0.96868 0.80974 0.0
Co204 Co 0.56155 0.90115 0.7926 0.0
C205 C 0.58762 0.94713 0.77814 0.0
O206 O 0.58624 0.88796 0.77115 0.0
N207 N 0.57089 0.80587 0.7905 0.0
C208 C 0.58685 0.70962 0.79261 0.0
C209 C 0.5851 0.78815 0.79294 0.0
C210 C 0.56424 0.73722 0.78868 0.0
N211 N 0.57371 0.67778 0.78994 0.0
O212 O 0.55257 0.89212 0.77762 0.0
H213 H 0.59343 0.82927 0.79557 0.0
H214 H 0.55245 0.73038 0.78743 0.0
O215 O 0.57867 0.95589 0.78658 0.0
C216 C 0.53941 0.86758 0.77927 0.0
O217 O 0.53481 0.85954 0.79001 0.0
N218 N 0.56893 0.90536 0.8076 0.0
C219 C 0.57433 0.90322 0.83131 0.0
C220 C 0.58173 0.95606 0.82415 0.0
C221 C 0.57877 0.95661 0.8122 0.0
C222 C 0.56205 0.85253 0.81441 0.0
C223 C 0.56468 0.84996 0.82624 0.0
H224 H 0.58391 -0.0003 0.80678 0.0
H225 H 0.55409 0.81345 0.81063 0.0
H226 H 0.56264 0.07364 0.78302 0.0
H227 H 0.53372 0.11897 0.81068 0.0
H228 H 0.59683 0.67812 0.79472 0.0
H229 H 0.58915 -0.0015 0.82781 0.0
H230 H 0.55886 0.80785 0.83145 0.0
C231 C 0.20689 0.79569 0.806 0.0
C232 C 0.20989 0.71827 0.80684 0.0
N233 N 0.20396 0.6826 0.79755 0.0
N234 N 0.19899 0.80865 0.7963 0.0
C235 C 0.19769 0.73916 0.79121 0.0
H236 H 0.20977 0.83941 0.81228 0.0
Co237 Co 0.19063 0.90198 0.79193 0.0
C238 C 0.1608 0.85433 0.78362 0.0
O239 O 0.15507 0.91264 0.78931 0.0
N240 N 0.18308 -0.00189 0.7873 0.0
C241 C 0.17478 0.09497 0.77642 0.0
C242 C 0.17498 0.01645 0.77783 0.0
C243 C 0.18837 0.06655 0.79101 0.0
N244 N 0.18324 0.12645 0.78476 0.0
O245 O 0.20319 0.90518 0.77861 0.0
H246 H 0.17038 0.97573 0.77176 0.0
H247 H 0.19698 0.07207 0.79746 0.0
O248 O 0.1749 0.84575 0.78339 0.0
C249 C 0.21573 0.93417 0.78121 0.0
O250 O 0.21835 0.95114 0.79212 0.0
N251 N 0.17914 0.90047 0.80577 0.0
C252 C 0.16783 0.88739 0.82828 0.0
C253 C 0.16529 0.82958 0.82007 0.0
C254 C 0.17117 0.83677 0.80892 0.0
C255 C 0.18155 0.95732 0.8137 0.0
C256 C 0.17575 0.95275 0.82489 0.0
H257 H 0.17015 0.78835 0.80313 0.0
H258 H 0.18899 0.00372 0.81182 0.0
H259 H 0.19173 0.72987 0.78323 0.0
H260 H 0.21568 0.69046 0.81389 0.0
H261 H 0.16931 0.12599 0.76952 0.0
H262 H 0.15949 0.77734 0.82241 0.0
H263 H 0.17851 0.99723 0.8311 0.0
C264 C 0.46387 0.72673 0.55502 0.0
C265 C 0.46613 0.80503 0.5555 0.0
N266 N 0.45856 0.83767 0.54673 0.0
N267 N 0.45485 0.7106 0.54604 0.0
C268 C 0.45212 0.77898 0.54102 0.0
H269 H 0.4681 0.68467 0.56108 0.0
Co270 Co 0.44669 0.61653 0.54201 0.0
C271 C 0.41536 0.65606 0.53591 0.0
O272 O 0.41069 0.59281 0.54097 0.0
N273 N 0.43892 0.52091 0.53765 0.0
C274 C 0.43074 0.42711 0.52615 0.0
C275 C 0.43189 0.50534 0.52756 0.0
C276 C 0.44236 0.45102 0.54196 0.0
N277 N 0.43748 0.3932 0.53519 0.0
O278 O 0.4569 0.61909 0.52752 0.0
H279 H 0.42869 0.54798 0.52122 0.0
H280 H 0.44912 0.44184 0.54951 0.0
O281 O 0.42926 0.67039 0.53555 0.0
C282 C 0.46967 0.59008 0.52935 0.0
O283 O 0.47327 0.57256 0.54007 0.0
N284 N 0.43822 0.6108 0.55689 0.0
C285 C 0.43333 0.60862 0.58079 0.0
C286 C 0.42491 0.65669 0.57359 0.0
C287 C 0.42776 0.65823 0.56164 0.0
C288 C 0.44652 0.56476 0.56386 0.0
C289 C 0.44401 0.56108 0.57572 0.0
H290 H 0.42235 0.70169 0.55651 0.0
H291 H 0.45606 0.53563 0.56037 0.0
H292 H 0.44538 0.78577 0.53336 0.0
H293 H 0.47226 0.83565 0.56211 0.0
H294 H 0.42629 0.39767 0.51865 0.0
H295 H 0.41698 0.69657 0.57726 0.0
H296 H 0.45101 0.52441 0.58097 0.0
C297 C 0.79726 0.51713 0.55894 0.0
C298 C 0.79498 0.43891 0.55965 0.0
N299 N 0.80133 0.40578 0.55033 0.0
N300 N 0.80508 0.53268 0.54926 0.0
C301 C 0.80706 0.46412 0.54409 0.0
H302 H 0.79397 0.55955 0.56529 0.0
Co303 Co 0.81282 0.62642 0.54471 0.0
C304 C 0.84319 0.58636 0.53605 0.0
O305 O 0.84854 0.64944 0.54072 0.0
N306 N 0.82002 0.72215 0.53987 0.0
C307 C 0.82687 0.81671 0.52799 0.0
C308 C 0.82601 0.73841 0.5294 0.0
C309 C 0.81677 0.79172 0.54439 0.0
N310 N 0.82093 0.85002 0.53742 0.0
O311 O 0.80087 0.62458 0.53104 0.0
H312 H 0.82863 0.69621 0.52284 0.0
H313 H 0.81058 0.80015 0.55225 0.0
O314 O 0.82928 0.57251 0.53675 0.0
C315 C 0.78829 0.65479 0.53312 0.0
O316 O 0.78526 0.67511 0.54384 0.0
N317 N 0.82344 0.63042 0.55881 0.0
C318 C 0.83438 0.6342 0.58148 0.0
C319 C 0.83999 0.58156 0.57339 0.0
C320 C 0.83415 0.57945 0.56217 0.0
C321 C 0.81735 0.6787 0.56679 0.0
C322 C 0.82287 0.68302 0.57804 0.0
H323 H 0.8377 0.53376 0.55651 0.0
H324 H 0.80743 0.71015 0.5647 0.0
H325 H 0.81279 0.45691 0.53595 0.0
H326 H 0.78974 0.40863 0.56675 0.0
H327 H 0.83057 0.84658 0.52028 0.0
H328 H 0.8485 0.54071 0.57581 0.0
H329 H 0.81754 0.7211 0.58418 0.0
C330 C 0.46553 0.50973 0.69269 0.0
C331 C 0.46766 0.43134 0.69223 0.0
N332 N 0.46045 0.39946 0.70125 0.0
N333 N 0.45692 0.52651 0.70191 0.0
C334 C 0.45435 0.45855 0.70708 0.0
H335 H 0.46953 0.55136 0.68648 0.0
Co336 Co 0.44902 0.62056 0.7061 0.0
C337 C 0.41786 0.58228 0.71307 0.0
O338 O 0.41304 0.64562 0.70814 0.0
N339 N 0.44154 0.71609 0.71062 0.0
C340 C 0.43411 0.8106 0.72228 0.0
C341 C 0.43498 0.73228 0.72088 0.0
C342 C 0.44499 0.78557 0.70619 0.0
N343 N 0.44056 0.84376 0.71305 0.0
O344 O 0.45974 0.61779 0.72036 0.0
H345 H 0.43197 0.68999 0.72733 0.0
H346 H 0.45147 0.79413 0.69847 0.0
O347 O 0.43175 0.56732 0.71299 0.0
C348 C 0.47261 0.64512 0.7184 0.0
O349 O 0.4762 0.66128 0.70763 0.0
N350 N 0.43999 0.62647 0.69143 0.0
C351 C 0.43409 0.62906 0.66767 0.0
C352 C 0.42583 0.58171 0.67509 0.0
C353 C 0.42918 0.57996 0.68696 0.0
C354 C 0.44815 0.67172 0.68423 0.0
C355 C 0.44515 0.67563 0.67245 0.0
H356 H 0.42383 0.5371 0.69225 0.0
H357 H 0.45793 0.70009 0.68747 0.0
H358 H 0.44795 0.4523 0.71492 0.0
H359 H 0.47344 0.40012 0.6855 0.0
H360 H 0.43007 0.84056 0.72988 0.0
H361 H 0.41761 0.54257 0.67165 0.0
H362 H 0.45202 0.7118 0.66702 0.0
C363 C 0.79586 0.72706 0.68876 0.0
C364 C 0.79329 0.80483 0.68779 0.0
N365 N 0.79926 0.84007 0.69709 0.0
N366 N 0.80355 0.71358 0.69856 0.0
C367 C 0.80516 0.78314 0.70355 0.0
H368 H 0.79278 0.68341 0.68254 0.0
Co369 Co 0.81141 0.62 0.70322 0.0
C370 C 0.8414 0.6631 0.71223 0.0
O371 O 0.84709 0.60138 0.70739 0.0
N372 N 0.81869 0.524 0.70814 0.0
C373 C 0.82582 0.42943 0.71994 0.0
C374 C 0.82502 0.50777 0.71848 0.0
C375 C 0.81513 0.45423 0.70378 0.0
N376 N 0.81954 0.3958 0.71066 0.0
O377 O 0.79912 0.62059 0.71666 0.0
H378 H 0.82798 0.54996 0.72495 0.0
H379 H 0.80814 0.44589 0.69633 0.0
O380 O 0.82744 0.6752 0.7115 0.0
C381 C 0.78645 0.59194 0.71443 0.0
O382 O 0.78334 0.57417 0.70363 0.0
N383 N 0.82249 0.61716 0.68932 0.0
C384 C 0.83412 0.61578 0.66684 0.0
C385 C 0.83893 0.67022 0.67498 0.0
C386 C 0.83276 0.67096 0.6861 0.0
C387 C 0.81722 0.56662 0.6813 0.0
C388 C 0.8231 0.56355 0.67015 0.0
H389 H 0.83566 0.71771 0.6918 0.0
H390 H 0.8076 0.5324 0.68321 0.0
H391 H 0.81104 0.79221 0.71157 0.0
H392 H 0.78775 0.83319 0.68066 0.0
H393 H 0.8301 0.39988 0.72748 0.0
H394 H 0.84703 0.71349 0.67266 0.0
H395 H 0.81837 0.52372 0.66396 0.0
C396 C 0.54443 0.25197 0.44207 0.0
C397 C 0.54226 0.17358 0.44169 0.0
N398 N 0.54956 0.14191 0.45068 0.0
N399 N 0.55315 0.26899 0.45121 0.0
C400 C 0.55574 0.20116 0.45641 0.0
H401 H 0.54039 0.29343 0.43584 0.0
Co402 Co 0.56118 0.363 0.45528 0.0
C403 C 0.59243 0.32391 0.4618 0.0
O404 O 0.59721 0.38704 0.45678 0.0
N405 N 0.56881 0.45853 0.4597 0.0
C406 C 0.57656 0.55295 0.47125 0.0
C407 C 0.57569 0.47464 0.46983 0.0
C408 C 0.56517 0.52804 0.45537 0.0
N409 N 0.56979 0.5862 0.46217 0.0
O410 O 0.55073 0.36046 0.46967 0.0
H411 H 0.57891 0.4323 0.47621 0.0
H412 H 0.55842 0.53661 0.4478 0.0
O413 O 0.57853 0.30948 0.46196 0.0
C414 C 0.53795 0.38916 0.46777 0.0
O415 O 0.5344 0.40643 0.45703 0.0
N416 N 0.56993 0.36873 0.4405 0.0
C417 C 0.57545 0.37182 0.41669 0.0
C418 C 0.58377 0.32403 0.42399 0.0
C419 C 0.5806 0.32199 0.43589 0.0
C420 C 0.56169 0.41434 0.43341 0.0
C421 C 0.56451 0.41847 0.4216 0.0
H422 H 0.58598 0.2788 0.44109 0.0
H423 H 0.552 0.44285 0.43676 0.0
H424 H 0.56224 0.19513 0.46422 0.0
H425 H 0.5364 0.1422 0.43501 0.0
H426 H 0.58082 0.58281 0.47878 0.0
H427 H 0.5919 0.28479 0.42044 0.0
H428 H 0.55757 0.45486 0.41626 0.0
C429 C 0.21351 0.48259 0.44358 0.0
C430 C 0.21584 0.56074 0.44298 0.0
N431 N 0.20879 0.59404 0.45197 0.0
N432 N 0.20484 0.46699 0.4528 0.0
C433 C 0.20248 0.5357 0.45787 0.0
H434 H 0.21751 0.44028 0.43747 0.0
Co435 Co 0.19663 0.37291 0.45699 0.0
C436 C 0.16531 0.41389 0.46322 0.0
O437 O 0.16042 0.3492 0.45875 0.0
N438 N 0.18879 0.2773 0.4615 0.0
C439 C 0.1806 0.18372 0.47304 0.0
C440 C 0.18207 0.26194 0.47171 0.0
C441 C 0.19165 0.20717 0.45698 0.0
N442 N 0.18669 0.14937 0.46374 0.0
O443 O 0.20674 0.37695 0.47151 0.0
H444 H 0.17917 0.30473 0.47812 0.0
H445 H 0.19837 0.19761 0.44941 0.0
O446 O 0.17923 0.42786 0.46322 0.0
C447 C 0.21954 0.34814 0.46976 0.0
O448 O 0.22318 0.32967 0.45909 0.0
N449 N 0.18828 0.36546 0.44211 0.0
C450 C 0.18344 0.35873 0.41824 0.0
C451 C 0.17467 0.40624 0.42526 0.0
C452 C 0.17749 0.4101 0.43721 0.0
C453 C 0.19689 0.31984 0.4353 0.0
C454 C 0.19445 0.31405 0.42346 0.0
H455 H 0.17171 0.45292 0.44221 0.0
H456 H 0.20652 0.29227 0.43894 0.0
H457 H 0.1958 0.5431 0.46555 0.0
H458 H 0.22199 0.5907 0.43632 0.0
H459 H 0.17595 0.15459 0.48048 0.0
H460 H 0.16644 0.44385 0.42146 0.0
H461 H 0.20168 0.27783 0.41834 0.0
C462 C 0.54619 0.47633 0.30492 0.0
C463 C 0.54383 0.55444 0.30555 0.0
N464 N 0.55063 0.58787 0.29645 0.0
N465 N 0.55463 0.46088 0.29556 0.0
C466 C 0.55682 0.52963 0.29045 0.0
H467 H 0.54241 0.43393 0.3111 0.0
Co468 Co 0.56279 0.3669 0.2913 0.0
C469 C 0.59385 0.40851 0.28451 0.0
O470 O 0.59886 0.34437 0.28908 0.0
N471 N 0.57057 0.27124 0.28672 0.0
C472 C 0.57853 0.17762 0.27508 0.0
C473 C 0.5771 0.25584 0.27643 0.0
C474 C 0.56776 0.20108 0.29126 0.0
N475 N 0.57259 0.14326 0.28444 0.0
O476 O 0.5521 0.36977 0.27701 0.0
H477 H 0.57988 0.29859 0.26998 0.0
H478 H 0.56114 0.19149 0.29887 0.0
O479 O 0.57992 0.42214 0.28461 0.0
C480 C 0.53944 0.34017 0.27912 0.0
O481 O 0.53635 0.3213 0.28989 0.0
N482 N 0.57172 0.36073 0.306 0.0
C483 C 0.57725 0.35715 0.3298 0.0
C484 C 0.58553 0.40538 0.32253 0.0
C485 C 0.58237 0.40755 0.31062 0.0
C486 C 0.5636 0.31434 0.31305 0.0
C487 C 0.56643 0.30995 0.32485 0.0
H488 H 0.58771 0.451 0.30544 0.0
H489 H 0.55396 0.2854 0.30968 0.0
H490 H 0.56331 0.53717 0.28268 0.0
H491 H 0.53786 0.5843 0.31232 0.0
H492 H 0.58303 0.14848 0.26758 0.0
H493 H 0.59359 0.44489 0.32611 0.0
H494 H 0.55955 0.27304 0.33017 0.0
C495 C 0.21707 0.24241 0.30388 0.0
C496 C 0.2197 0.16442 0.30364 0.0
N497 N 0.21203 0.13378 0.29473 0.0
N498 N 0.20774 0.26077 0.2952 0.0
C499 C 0.20513 0.19382 0.28966 0.0
H500 H 0.22111 0.28257 0.3103 0.0
Co501 Co 0.19873 0.3555 0.29254 0.0
C502 C 0.17235 0.29965 0.27853 0.0
O503 O 0.1735 0.34991 0.27008 0.0
N504 N 0.1898 0.45017 0.28997 0.0
C505 C 0.17426 0.54896 0.28947 0.0
C506 C 0.17542 0.47046 0.29073 0.0
C507 C 0.19714 0.51682 0.28841 0.0
N508 N 0.18798 0.57803 0.28808 0.0
O509 O 0.20758 0.36055 0.27746 0.0
H510 H 0.16644 0.4314 0.29264 0.0
H511 H 0.20907 0.52051 0.28792 0.0
O512 O 0.18141 0.30122 0.28699 0.0
C513 C 0.22102 0.38177 0.27881 0.0
O514 O 0.22606 0.38928 0.28943 0.0
N515 N 0.19142 0.3551 0.30761 0.0
C516 C 0.18612 0.35973 0.33134 0.0
C517 C 0.17875 0.30601 0.32432 0.0
C518 C 0.18164 0.30427 0.31238 0.0
C519 C 0.19828 0.40891 0.31426 0.0
C520 C 0.19568 0.4128 0.3261 0.0
H521 H 0.17654 0.26023 0.30714 0.0
H522 H 0.20623 0.44755 0.31036 0.0
H523 H 0.19793 0.18893 0.28221 0.0
H524 H 0.22606 0.13239 0.30995 0.0
H525 H 0.1642 0.58232 0.29017 0.0
H526 H 0.17143 0.26351 0.32809 0.0
H527 H 0.20148 0.45567 0.33118 0.0
C528 C 0.96209 0.21834 0.55867 0.0
C529 C 0.96464 0.29661 0.55889 0.0
N530 N 0.95789 0.3281 0.54962 0.0
N531 N 0.95368 0.2013 0.54936 0.0
C532 C 0.95166 0.26887 0.54389 0.0
H533 H 0.96554 0.17705 0.56514 0.0
Co534 Co 0.94539 0.10747 0.5452 0.0
C535 C 0.91448 0.15584 0.53965 0.0
O536 O 0.9094 0.09947 0.54612 0.0
N537 N 0.93779 0.01172 0.54054 0.0
C538 C 0.92759 0.91586 0.53054 0.0
C539 C 0.9276 0.99389 0.53239 0.0
C540 C 0.94449 0.94395 0.54283 0.0
N541 N 0.93824 0.88443 0.53716 0.0
O542 O 0.95633 0.10907 0.53103 0.0
H543 H 0.92123 0.03463 0.52742 0.0
H544 H 0.95418 0.93888 0.54826 0.0
O545 O 0.92847 0.16289 0.53813 0.0
C546 C 0.9693 0.08235 0.53274 0.0
O547 O 0.97324 0.06574 0.54342 0.0
N548 N 0.93556 0.10339 0.55985 0.0
C549 C 0.92641 0.10176 0.58312 0.0
C550 C 0.92382 0.16624 0.57607 0.0
C551 C 0.92845 0.16584 0.56447 0.0
C552 C 0.93804 0.04052 0.56663 0.0
C553 C 0.93313 0.03742 0.57804 0.0
H554 H 0.92705 0.21762 0.55941 0.0
H555 H 0.9446 0.99347 0.56358 0.0
H556 H 0.94548 0.27486 0.53593 0.0
H557 H 0.9703 0.3282 0.56564 0.0
H558 H 0.92077 0.88534 0.52435 0.0
H559 H 0.91897 0.21816 0.57957 0.0
H560 H 0.93521 0.98549 0.58294 0.0
C561 C 0.29446 0.01854 0.5577 0.0
C562 C 0.29199 0.9405 0.5583 0.0
N563 N 0.29875 0.90697 0.54919 0.0
N564 N 0.30292 0.03389 0.54835 0.0
C565 C 0.30499 0.96517 0.5432 0.0
H566 H 0.29075 0.06091 0.56391 0.0
Co567 Co 0.31131 0.12772 0.54423 0.0
C568 C 0.34229 0.08402 0.53728 0.0
O569 O 0.34765 0.14711 0.54193 0.0
N570 N 0.31929 0.22331 0.53981 0.0
C571 C 0.32742 0.31742 0.52834 0.0
C572 C 0.32608 0.23912 0.52965 0.0
C573 C 0.31623 0.29331 0.54431 0.0
N574 N 0.32115 0.35144 0.53759 0.0
O575 O 0.30076 0.12621 0.5299 0.0
H576 H 0.32903 0.19666 0.5232 0.0
H577 H 0.30932 0.30245 0.55179 0.0
O578 O 0.32831 0.07194 0.53748 0.0
C579 C 0.28809 0.15611 0.5318 0.0
O580 O 0.28464 0.17437 0.54252 0.0
N581 N 0.32022 0.13249 0.55896 0.0
C582 C 0.32574 0.13349 0.58277 0.0
C583 C 0.33395 0.08563 0.57539 0.0
C584 C 0.33079 0.08478 0.56348 0.0
C585 C 0.3122 0.17875 0.56611 0.0
C586 C 0.31502 0.18173 0.57792 0.0
H587 H 0.33606 0.0416 0.55821 0.0
H588 H 0.30263 0.20856 0.5628 0.0
H589 H 0.31144 0.95765 0.53541 0.0
H590 H 0.286 0.91076 0.56507 0.0
H591 H 0.33207 0.34681 0.52091 0.0
H592 H 0.34193 0.04539 0.57889 0.0
H593 H 0.3082 0.21835 0.58333 0.0
C594 C 0.95774 0.04651 0.69305 0.0
C595 C 0.96083 0.96907 0.69251 0.0
N596 N 0.95446 0.93434 0.7017 0.0
N597 N 0.94932 0.06031 0.70246 0.0
C598 C 0.94781 0.99142 0.70768 0.0
H599 H 0.96092 0.08961 0.68676 0.0
Co600 Co 0.94069 0.15357 0.70643 0.0
C601 C 0.91032 0.1055 0.71344 0.0
O602 O 0.9049 0.16325 0.70744 0.0
N603 N 0.93285 0.24965 0.71069 0.0
C604 C 0.92367 0.34754 0.72091 0.0
C605 C 0.92389 0.26887 0.71963 0.0
C606 C 0.93858 0.31759 0.70721 0.0
N607 N 0.93294 0.37807 0.71303 0.0
O608 O 0.95226 0.15649 0.72031 0.0
H609 H 0.91863 0.2287 0.72546 0.0
H610 H 0.94777 0.32233 0.70126 0.0
O611 O 0.92439 0.09747 0.71426 0.0
C612 C 0.96494 0.18588 0.7183 0.0
O613 O 0.96828 0.20399 0.70755 0.0
N614 N 0.9302 0.15225 0.69208 0.0
C615 C 0.92006 0.14095 0.6692 0.0
C616 C 0.91722 0.0822 0.6772 0.0
C617 C 0.92248 0.08861 0.68855 0.0
C618 C 0.93303 0.20964 0.68432 0.0
C619 C 0.9278 0.206 0.67296 0.0
H620 H 0.92113 0.03987 0.69425 0.0
H621 H 0.94033 0.25602 0.68651 0.0
H622 H 0.94145 0.9829 0.71549 0.0
H623 H 0.967 0.94056 0.68571 0.0
H624 H 0.91758 0.37933 0.72741 0.0
H625 H 0.91156 0.03012 0.67457 0.0
H626 H 0.9308 0.25116 0.66693 0.0
C627 C 0.29559 0.23609 0.69446 0.0
C628 C 0.29339 0.3144 0.69392 0.0
N629 N 0.3005 0.34698 0.70293 0.0
N630 N 0.30415 0.21989 0.70373 0.0
C631 C 0.30664 0.28824 0.70883 0.0
H632 H 0.2916 0.19405 0.68831 0.0
Co633 Co 0.31187 0.12571 0.70816 0.0
C634 C 0.3431 0.16334 0.71493 0.0
O635 O 0.34778 0.09885 0.71026 0.0
N636 N 0.3192 0.03008 0.71294 0.0
C637 C 0.32665 0.93672 0.72481 0.0
C638 C 0.32565 0.01491 0.72327 0.0
C639 C 0.31596 0.96005 0.70858 0.0
N640 N 0.32041 0.9025 0.71558 0.0
O641 O 0.30111 0.13092 0.72244 0.0
H642 H 0.32856 0.05788 0.72965 0.0
H643 H 0.3097 0.95058 0.70079 0.0
O644 O 0.32924 0.17894 0.71485 0.0
C645 C 0.28834 0.10281 0.72033 0.0
O646 O 0.28527 0.08326 0.70959 0.0
N647 N 0.32084 0.11756 0.69348 0.0
C648 C 0.32646 0.11263 0.66968 0.0
C649 C 0.33487 0.16035 0.67695 0.0
C650 C 0.33167 0.16324 0.68884 0.0
C651 C 0.31257 0.07181 0.68644 0.0
C652 C 0.31544 0.06669 0.67465 0.0
H653 H 0.33712 0.20643 0.694 0.0
H654 H 0.3028 0.04403 0.6898 0.0
H655 H 0.31294 0.29488 0.71672 0.0
H656 H 0.28756 0.34505 0.68715 0.0
H657 H 0.33068 0.90754 0.73247 0.0
H658 H 0.34308 0.19901 0.67336 0.0
H659 H 0.30847 0.03017 0.66935 0.0
C660 C 0.04166 0.76952 0.44281 0.0
C661 C 0.03918 0.69155 0.44207 0.0
N662 N 0.04678 0.65679 0.45065 0.0
N663 N 0.05094 0.78361 0.4517 0.0
C664 C 0.05358 0.71413 0.45645 0.0
H665 H 0.03734 0.81287 0.437 0.0
Co666 Co 0.05935 0.87752 0.45568 0.0
C667 C 0.09071 0.83607 0.46151 0.0
O668 O 0.09548 0.89901 0.45643 0.0
N669 N 0.06735 0.97336 0.45998 0.0
C670 C 0.07606 0.06685 0.4713 0.0
C671 C 0.07471 0.98865 0.46991 0.0
C672 C 0.06392 0.0436 0.45573 0.0
N673 N 0.06919 0.10139 0.46235 0.0
O674 O 0.04944 0.87487 0.47031 0.0
H675 H 0.07811 0.94586 0.47617 0.0
H676 H 0.05654 0.05303 0.44854 0.0
O677 O 0.07678 0.82261 0.46196 0.0
C678 C 0.0367 0.905 0.46884 0.0
O679 O 0.03283 0.92478 0.45826 0.0
N680 N 0.06759 0.8831 0.4407 0.0
C681 C 0.07237 0.88496 0.41676 0.0
C682 C 0.08062 0.83597 0.42394 0.0
C683 C 0.07783 0.83464 0.43589 0.0
C684 C 0.05944 0.93009 0.43376 0.0
C685 C 0.06188 0.93351 0.42188 0.0
H686 H 0.08312 0.79064 0.44101 0.0
H687 H 0.05005 0.96034 0.43729 0.0
H688 H 0.06078 0.70544 0.46379 0.0
H689 H 0.03252 0.66273 0.4356 0.0
H690 H 0.08115 0.09576 0.47858 0.0
H691 H 0.0884 0.79534 0.42026 0.0
H692 H 0.05502 0.97105 0.41666 0.0
C693 C 0.71435 0.96195 0.44332 0.0
C694 C 0.71681 0.03994 0.44258 0.0
N695 N 0.70967 0.07447 0.45143 0.0
N696 N 0.70554 0.94754 0.4525 0.0
C697 C 0.70321 0.01684 0.45741 0.0
H698 H 0.7183 0.91889 0.43732 0.0
Co699 Co 0.69707 0.85376 0.45657 0.0
C700 C 0.66587 0.89748 0.46281 0.0
O701 O 0.66074 0.83445 0.45798 0.0
N702 N 0.68901 0.75809 0.46094 0.0
C703 C 0.68037 0.66461 0.47231 0.0
C704 C 0.68171 0.74283 0.47091 0.0
C705 C 0.69243 0.6878 0.4567 0.0
N706 N 0.68719 0.63001 0.46335 0.0
O707 O 0.70728 0.85593 0.47109 0.0
H708 H 0.67836 0.78565 0.47718 0.0
H709 H 0.69978 0.67832 0.4495 0.0
O710 O 0.67985 0.90963 0.46301 0.0
C711 C 0.71994 0.82538 0.46938 0.0
O712 O 0.72346 0.80553 0.45874 0.0
N713 N 0.68851 0.84857 0.44168 0.0
C714 C 0.68344 0.84795 0.41778 0.0
C715 C 0.67536 0.89705 0.42506 0.0
C716 C 0.67829 0.89768 0.437 0.0
C717 C 0.69644 0.80117 0.43464 0.0
C718 C 0.69383 0.79835 0.42278 0.0
H719 H 0.67317 0.94183 0.44219 0.0
H720 H 0.70582 0.77037 0.43805 0.0
H721 H 0.69646 0.02513 0.46502 0.0
H722 H 0.72309 0.06893 0.43589 0.0
H723 H 0.67532 0.63572 0.47962 0.0
H724 H 0.66766 0.93842 0.42147 0.0
H725 H 0.70055 0.76065 0.41748 0.0
C726 C 0.04328 0.97732 0.30318 0.0
C727 C 0.04124 0.05576 0.30357 0.0
N728 N 0.04942 0.08759 0.29506 0.0
N729 N 0.05276 0.96055 0.29451 0.0
C730 C 0.05602 0.0285 0.28959 0.0
H731 H 0.03859 0.93556 0.30907 0.0
Co732 Co 0.06077 0.86648 0.29071 0.0
C733 C 0.09237 0.90144 0.28555 0.0
O734 O 0.09614 0.83827 0.29107 0.0
N735 N 0.06841 0.7707 0.28652 0.0
C736 C 0.07668 0.67653 0.27514 0.0
C737 C 0.07562 0.75476 0.27652 0.0
C738 C 0.06479 0.70114 0.29082 0.0
N739 N 0.06972 0.64317 0.28413 0.0
O740 O 0.05098 0.86953 0.27601 0.0
H741 H 0.079 0.7972 0.2702 0.0
H742 H 0.05786 0.6923 0.29829 0.0
O743 O 0.07864 0.91859 0.28454 0.0
C744 C 0.0381 0.84121 0.2776 0.0
O745 O 0.03422 0.82291 0.28823 0.0
N746 N 0.06875 0.86073 0.30581 0.0
C747 C 0.07334 0.85884 0.32978 0.0
C748 C 0.08172 0.90743 0.32263 0.0
C749 C 0.079 0.90893 0.31067 0.0
C750 C 0.06035 0.81481 0.31274 0.0
C751 C 0.06271 0.81126 0.32463 0.0
H752 H 0.08438 0.95276 0.30558 0.0
H753 H 0.05087 0.78543 0.30918 0.0
H754 H 0.06327 0.03472 0.2822 0.0
H755 H 0.03482 0.08697 0.30994 0.0
H756 H 0.08123 0.64672 0.26772 0.0
H757 H 0.08957 0.9476 0.32633 0.0
H758 H 0.05571 0.77421 0.32982 0.0
C759 C 0.71448 0.77517 0.30533 0.0
C760 C 0.71693 0.69713 0.30593 0.0
N761 N 0.70978 0.66336 0.29703 0.0
N762 N 0.70563 0.79022 0.29619 0.0
C763 C 0.70328 0.72132 0.29117 0.0
H764 H 0.71845 0.81782 0.31139 0.0
Co765 Co 0.69721 0.88405 0.29223 0.0
C766 C 0.66608 0.84183 0.28576 0.0
O767 O 0.6611 0.90469 0.29074 0.0
N768 N 0.6892 0.97979 0.28795 0.0
C769 C 0.68081 0.07394 0.2766 0.0
C770 C 0.68222 0.99567 0.27787 0.0
C771 C 0.69233 0.04975 0.29243 0.0
N772 N 0.68725 0.10789 0.28579 0.0
O773 O 0.70759 0.88297 0.27777 0.0
H774 H 0.67915 0.95328 0.27144 0.0
H775 H 0.69939 0.05888 0.29981 0.0
O776 O 0.68003 0.82878 0.28557 0.0
C777 C 0.72023 0.91362 0.27953 0.0
O778 O 0.72374 0.93295 0.2902 0.0
N779 N 0.68851 0.88812 0.30707 0.0
C780 C 0.68307 0.88762 0.33092 0.0
C781 C 0.67507 0.83903 0.32351 0.0
C782 C 0.67819 0.83892 0.3116 0.0
C783 C 0.6964 0.93481 0.31424 0.0
C784 C 0.69361 0.9371 0.32608 0.0
H785 H 0.67311 0.79518 0.30631 0.0
H786 H 0.70585 0.96563 0.31094 0.0
H787 H 0.69644 0.71343 0.2836 0.0
H788 H 0.72321 0.66755 0.31256 0.0
H789 H 0.67601 0.10337 0.26925 0.0
H790 H 0.66726 0.79772 0.32697 0.0
H791 H 0.70028 0.97439 0.33149 0.0
C792 C 0.96065 0.6972 0.05288 0.0
C793 C 0.9637 0.77464 0.05358 0.0
N794 N 0.95708 0.81028 0.04457 0.0
N795 N 0.95204 0.68421 0.04356 0.0
C796 C 0.95034 0.75368 0.03853 0.0
H797 H 0.96401 0.65348 0.05901 0.0
Co798 Co 0.94342 0.59088 0.03955 0.0
C799 C 0.91295 0.63806 0.03269 0.0
O800 O 0.90765 0.57961 0.03861 0.0
N801 N 0.93557 0.49471 0.03523 0.0
C802 C 0.92644 0.39788 0.02476 0.0
C803 C 0.92675 0.47641 0.02616 0.0
C804 C 0.94116 0.42627 0.03866 0.0
N805 N 0.93554 0.3664 0.03266 0.0
O806 O 0.95485 0.58863 0.0256 0.0
H807 H 0.92166 0.51716 0.02034 0.0
H808 H 0.95025 0.42073 0.04467 0.0
O809 O 0.927 0.64698 0.03186 0.0
C810 C 0.96752 0.55876 0.02747 0.0
O811 O 0.97097 0.54003 0.03817 0.0
N812 N 0.93305 0.59156 0.05394 0.0
C813 C 0.92308 0.60232 0.07687 0.0
C814 C 0.92008 0.66097 0.06889 0.0
C815 C 0.92527 0.65487 0.05752 0.0
C816 C 0.93605 0.53427 0.06168 0.0
C817 C 0.9309 0.53763 0.07307 0.0
H818 H 0.92381 0.70362 0.05184 0.0
H819 H 0.9434 0.48827 0.05943 0.0
H820 H 0.94381 0.7629 0.03084 0.0
H821 H 0.97001 0.80249 0.06035 0.0
H822 H 0.92043 0.36687 0.01813 0.0
H823 H 0.91437 0.71279 0.07156 0.0
H824 H 0.93401 0.4926 0.07908 0.0
C825 C 0.2943 0.52775 0.05225 0.0
C826 C 0.29193 0.4496 0.05286 0.0
N827 N 0.2994 0.4159 0.04412 0.0
N828 N 0.3034 0.54292 0.04327 0.0
C829 C 0.30601 0.47394 0.03836 0.0
H830 H 0.29005 0.57039 0.0582 0.0
Co831 Co 0.31179 0.63692 0.03927 0.0
C832 C 0.34308 0.5938 0.03322 0.0
O833 O 0.34821 0.65651 0.03815 0.0
N834 N 0.31983 0.73251 0.03497 0.0
C835 C 0.3286 0.82653 0.02378 0.0
C836 C 0.32709 0.74825 0.025 0.0
C837 C 0.31667 0.80248 0.03943 0.0
N838 N 0.32198 0.86055 0.03288 0.0
O839 O 0.3018 0.63416 0.02469 0.0
H840 H 0.33034 0.70577 0.01865 0.0
H841 H 0.3095 0.81168 0.04675 0.0
O842 O 0.32911 0.58185 0.03296 0.0
C843 C 0.28908 0.66407 0.02635 0.0
O844 O 0.28549 0.6843 0.03696 0.0
N845 N 0.32004 0.64275 0.0542 0.0
C846 C 0.3245 0.64592 0.07813 0.0
C847 C 0.3332 0.59834 0.07107 0.0
C848 C 0.33055 0.59625 0.05909 0.0
C849 C 0.31152 0.68854 0.06106 0.0
C850 C 0.31378 0.69251 0.07294 0.0
H851 H 0.33618 0.55316 0.05403 0.0
H852 H 0.30202 0.71731 0.05743 0.0
H853 H 0.3131 0.46603 0.03093 0.0
H854 H 0.28547 0.41993 0.05937 0.0
H855 H 0.33364 0.85594 0.01652 0.0
H856 H 0.34118 0.55924 0.07485 0.0
H857 H 0.30658 0.72864 0.07811 0.0
C858 C 0.96442 0.52786 0.18777 0.0
C859 C 0.96707 0.44973 0.18751 0.0
N860 N 0.96009 0.41743 0.19661 0.0
N861 N 0.95573 0.54415 0.19695 0.0
C862 C 0.9536 0.47616 0.20229 0.0
H863 H 0.96805 0.56964 0.18143 0.0
Co864 Co 0.94735 0.63799 0.20105 0.0
C865 C 0.91637 0.59017 0.20619 0.0
O866 O 0.91161 0.6475 0.19977 0.0
N867 N 0.93964 0.73383 0.20566 0.0
C868 C 0.92925 0.82867 0.21578 0.0
C869 C 0.92951 0.75069 0.21391 0.0
C870 C 0.94608 0.8023 0.20334 0.0
N871 N 0.93969 0.86123 0.20907 0.0
O872 O 0.95818 0.63668 0.21529 0.0
H873 H 0.92334 0.70927 0.21893 0.0
H874 H 0.95573 0.80832 0.1979 0.0
O875 O 0.9303 0.58225 0.20794 0.0
C876 C 0.97111 0.66359 0.21346 0.0
O877 O 0.97489 0.67997 0.20273 0.0
N878 N 0.93774 0.64188 0.18631 0.0
C879 C 0.92886 0.64313 0.16298 0.0
C880 C 0.92622 0.5787 0.17003 0.0
C881 C 0.93072 0.57926 0.18165 0.0
C882 C 0.9403 0.70466 0.17953 0.0
C883 C 0.93552 0.70758 0.16808 0.0
H884 H 0.92928 0.5275 0.18671 0.0
H885 H 0.94683 0.75172 0.18261 0.0
H886 H 0.94719 0.46958 0.21013 0.0
H887 H 0.97302 0.4188 0.18083 0.0
H888 H 0.92241 0.8584 0.22204 0.0
H889 H 0.92143 0.52667 0.16651 0.0
H890 H 0.93765 0.75945 0.16317 0.0
C891 C 0.29032 0.74946 0.19211 0.0
C892 C 0.28773 0.82751 0.19227 0.0
N893 N 0.29535 0.85833 0.20119 0.0
N894 N 0.29957 0.73132 0.20085 0.0
C895 C 0.30219 0.79843 0.20634 0.0
H896 H 0.28631 0.7091 0.1857 0.0
Co897 Co 0.30851 0.63664 0.20362 0.0
C898 C 0.33378 0.69195 0.21856 0.0
O899 O 0.33129 0.64355 0.22708 0.0
N900 N 0.31736 0.54198 0.20632 0.0
C901 C 0.33291 0.44344 0.20721 0.0
C902 C 0.33177 0.52193 0.20594 0.0
C903 C 0.30998 0.47524 0.20769 0.0
N904 N 0.31916 0.41415 0.20823 0.0
O905 O 0.29924 0.63136 0.21855 0.0
H906 H 0.34081 0.56118 0.20431 0.0
H907 H 0.29804 0.47144 0.20789 0.0
O908 O 0.3257 0.69052 0.20952 0.0
C909 C 0.28583 0.61006 0.2171 0.0
O910 O 0.28091 0.60262 0.20643 0.0
N911 N 0.31624 0.63733 0.18868 0.0
C912 C 0.32224 0.6337 0.16503 0.0
C913 C 0.32922 0.68795 0.17221 0.0
C914 C 0.32598 0.68913 0.1841 0.0
C915 C 0.30976 0.58307 0.18188 0.0
C916 C 0.31273 0.57962 0.17009 0.0
H917 H 0.33076 0.73358 0.18945 0.0
H918 H 0.30181 0.54371 0.18561 0.0
H919 H 0.30934 0.80359 0.21381 0.0
H920 H 0.28142 0.85943 0.18592 0.0
H921 H 0.34302 0.41026 0.20678 0.0
H922 H 0.33649 0.73128 0.1686 0.0
H923 H 0.30723 0.53629 0.16489 0.0
C924 C 0.0462 0.26184 0.93821 0.0
C925 C 0.04371 0.18388 0.93747 0.0
N926 N 0.04981 0.14997 0.94683 0.0
N927 N 0.05403 0.27668 0.9479 0.0
C928 C 0.05572 0.20782 0.95309 0.0
H929 H 0.04301 0.30457 0.93188 0.0
Co930 Co 0.06207 0.37028 0.95234 0.0
C931 C 0.09258 0.32789 0.96052 0.0
O932 O 0.09803 0.39128 0.95602 0.0
N933 N 0.06961 0.46606 0.95705 0.0
C934 C 0.07696 0.56066 0.96876 0.0
C935 C 0.07585 0.4823 0.96742 0.0
C936 C 0.06655 0.53583 0.95249 0.0
N937 N 0.07105 0.59426 0.95933 0.0
O938 O 0.05058 0.36845 0.96626 0.0
H939 H 0.07857 0.44008 0.97396 0.0
H940 H 0.05987 0.54446 0.94487 0.0
O941 O 0.07863 0.31505 0.9599 0.0
C942 C 0.03802 0.39959 0.96442 0.0
O943 O 0.03483 0.42145 0.9538 0.0
N944 N 0.07223 0.37429 0.93801 0.0
C945 C 0.08232 0.37824 0.91508 0.0
C946 C 0.08824 0.32557 0.92303 0.0
C947 C 0.08284 0.32347 0.9344 0.0
C948 C 0.06588 0.42277 0.93018 0.0
C949 C 0.07097 0.42715 0.9188 0.0
H950 H 0.08663 0.27785 0.93998 0.0
H951 H 0.05606 0.45437 0.93251 0.0
H952 H 0.06167 0.19993 0.96112 0.0
H953 H 0.03814 0.15444 0.93045 0.0
H954 H 0.0812 0.59035 0.9763 0.0
H955 H 0.09665 0.28475 0.92041 0.0
H956 H 0.06543 0.46539 0.9128 0.0
C957 C 0.71869 0.50548 0.96014 0.0
C958 C 0.71953 0.58387 0.96179 0.0
N959 N 0.70616 0.61446 0.95943 0.0
N960 N 0.70482 0.48687 0.95686 0.0
C961 C 0.69754 0.55442 0.95643 0.0
H962 H 0.72769 0.46512 0.96115 0.0
Co963 Co 0.69683 0.39119 0.95327 0.0
C964 C 0.66645 0.39745 0.96485 0.0
O965 O 0.66332 0.32404 0.96389 0.0
N966 N 0.68889 0.29311 0.94949 0.0
C967 C 0.68176 0.19003 0.93944 0.0
C968 C 0.68493 0.26692 0.93887 0.0
C969 C 0.68817 0.22969 0.95631 0.0
N970 N 0.68394 0.16648 0.95039 0.0
O971 O 0.70519 0.35014 0.96725 0.0
H972 H 0.68525 0.29934 0.93091 0.0
H973 H 0.69115 0.22882 0.96538 0.0
O974 O 0.67882 0.42319 0.96119 0.0
C975 C 0.7174 0.31615 0.96507 0.0
O976 O 0.72198 0.31381 0.95426 0.0
N977 N 0.69001 0.43107 0.93922 0.0
C978 C 0.6839 0.46226 0.91605 0.0
C979 C 0.67239 0.45843 0.92422 0.0
C980 C 0.67569 0.44323 0.93586 0.0
C981 C 0.70133 0.43898 0.93155 0.0
C982 C 0.69854 0.4547 0.91994 0.0
H983 H 0.66668 0.43614 0.9419 0.0
H984 H 0.71256 0.42847 0.93437 0.0
H985 H 0.68607 0.55923 0.95389 0.0
H986 H 0.72931 0.61582 0.96425 0.0
H987 H 0.67923 0.15306 0.93216 0.0
H988 H 0.66095 0.4643 0.92157 0.0
H989 H 0.70777 0.45596 0.91396 0.0
C990 C 0.04547 0.47912 0.80644 0.0
C991 C 0.04299 0.55708 0.80723 0.0
N992 N 0.04915 0.59121 0.79791 0.0
N993 N 0.05333 0.46455 0.79675 0.0
C994 C 0.0551 0.53357 0.79163 0.0
H995 H 0.04221 0.43617 0.81272 0.0
Co996 Co 0.06127 0.37092 0.79226 0.0
C997 C 0.09162 0.41281 0.78377 0.0
O998 O 0.09709 0.35017 0.78849 0.0
N999 N 0.06871 0.27506 0.78749 0.0
C1000 C 0.07596 0.18036 0.77578 0.0
C1001 C 0.07485 0.25872 0.77709 0.0
C1002 C 0.06568 0.20534 0.79209 0.0
N1003 N 0.07013 0.14687 0.78525 0.0
O1004 O 0.04949 0.3725 0.77849 0.0
H1005 H 0.07751 0.30085 0.77052 0.0
H1006 H 0.05907 0.19677 0.79975 0.0
O1007 O 0.07768 0.42579 0.78443 0.0
C1008 C 0.03697 0.34139 0.78049 0.0
O1009 O 0.03401 0.31943 0.79114 0.0
N1010 N 0.0717 0.36721 0.80646 0.0
C1011 C 0.08209 0.36389 0.82931 0.0
C1012 C 0.08785 0.41662 0.82129 0.0
C1013 C 0.0823 0.41839 0.80997 0.0
C1014 C 0.06549 0.3187 0.81436 0.0
C1015 C 0.07074 0.3146 0.82569 0.0
H1016 H 0.08597 0.46398 0.80433 0.0
H1017 H 0.05565 0.28692 0.81213 0.0
H1018 H 0.06114 0.54178 0.78366 0.0
H1019 H 0.03737 0.58636 0.81424 0.0
H1020 H 0.08014 0.15059 0.76822 0.0
H1021 H 0.09625 0.45774 0.82383 0.0
H1022 H 0.06531 0.27632 0.83176 0.0
C1023 C 0.71708 0.25886 0.8037 0.0
C1024 C 0.71946 0.18084 0.80445 0.0
N1025 N 0.71194 0.14628 0.79583 0.0
N1026 N 0.70788 0.27336 0.79476 0.0
C1027 C 0.7052 0.20369 0.78997 0.0
H1028 H 0.72109 0.30186 0.8097 0.0
Co1029 Co 0.6988 0.36795 0.79163 0.0
C1030 C 0.67276 0.31661 0.77777 0.0
O1031 O 0.67479 0.3705 0.76995 0.0
N1032 N 0.68971 0.46304 0.7887 0.0
C1033 C 0.67392 0.56055 0.79021 0.0
C1034 C 0.67547 0.48199 0.79081 0.0
C1035 C 0.69657 0.531 0.78676 0.0
N1036 N 0.68722 0.59123 0.78769 0.0
O1037 O 0.70736 0.36921 0.77644 0.0
H1038 H 0.667 0.44194 0.79354 0.0
H1039 H 0.70843 0.53689 0.78579 0.0
O1040 O 0.68133 0.31218 0.78652 0.0
C1041 C 0.72061 0.39311 0.77778 0.0
O1042 O 0.72535 0.40516 0.78841 0.0
N1043 N 0.6919 0.37191 0.8068 0.0
C1044 C 0.68654 0.39215 0.83039 0.0
C1045 C 0.67932 0.33337 0.82418 0.0
C1046 C 0.68219 0.32402 0.81229 0.0
C1047 C 0.69886 0.42917 0.81269 0.0
C1048 C 0.69613 0.44129 0.82436 0.0
H1049 H 0.67701 0.27737 0.80762 0.0
H1050 H 0.70677 0.46538 0.80825 0.0
H1051 H 0.69771 0.19452 0.7828 0.0
H1052 H 0.72574 0.15149 0.81111 0.0
H1053 H 0.664 0.59295 0.79215 0.0
H1054 H 0.67194 0.29365 0.82852 0.0
H1055 H 0.70171 0.4885 0.82864 0.0
H1056 H 0.45431 0.12852 0.09604 0.0
H1057 H 0.40533 0.13015 0.15392 0.0
H1058 H 0.40665 0.11582 0.09491 0.0
H1059 H 0.45305 0.13232 0.15261 0.0
H1060 H 0.40479 0.12548 0.13255 0.0
H1061 H 0.45333 0.13306 0.117 0.0
C1062 C 0.4436 0.1261 0.10024 0.0
C1063 C 0.43055 0.12032 0.09373 0.0
C1064 C 0.41534 0.12718 0.13699 0.0
C1065 C 0.42929 0.12648 0.11792 0.0
C1066 C 0.41565 0.12954 0.14915 0.0
C1067 C 0.42925 0.13301 0.15502 0.0
C1068 C 0.42873 0.12778 0.13078 0.0
C1069 C 0.4423 0.13175 0.14846 0.0
C1070 C 0.44303 0.12906 0.11225 0.0
C1071 C 0.41696 0.11988 0.09965 0.0
N1072 N 0.4417 0.12945 0.13675 0.0
N1073 N 0.41666 0.12246 0.11146 0.0
H1074 H 0.80085 0.10621 0.09337 0.0
H1075 H 0.8503 0.11226 0.15096 0.0
H1076 H 0.84845 0.12376 0.09187 0.0
H1077 H 0.8026 0.12158 0.14989 0.0
H1078 H 0.85069 0.11402 0.12958 0.0
H1079 H 0.80205 0.10635 0.11433 0.0
C1080 C 0.8116 0.1108 0.09748 0.0
C1081 C 0.82455 0.11658 0.09085 0.0
C1082 C 0.84018 0.11561 0.13407 0.0
C1083 C 0.82607 0.11566 0.11507 0.0
C1084 C 0.83995 0.1149 0.14624 0.0
C1085 C 0.82639 0.1153 0.1522 0.0
C1086 C 0.82674 0.11709 0.12792 0.0
C1087 C 0.8133 0.11907 0.14569 0.0
C1088 C 0.8123 0.11052 0.10949 0.0
C1089 C 0.8382 0.11963 0.09668 0.0
N1090 N 0.81383 0.1195 0.13397 0.0
N1091 N 0.83861 0.11952 0.10851 0.0
H1092 H 0.5511 0.85225 0.90261 0.0
H1093 H 0.59938 0.90841 0.84506 0.0
H1094 H 0.5982 0.89092 0.90424 0.0
H1095 H 0.55169 0.90456 0.84662 0.0
H1096 H 0.60015 0.89927 0.86641 0.0
H1097 H 0.55206 0.86346 0.88169 0.0
C1098 C 0.56168 0.86334 0.89851 0.0
C1099 C 0.57455 0.87204 0.90516 0.0
C1100 C 0.58955 0.90076 0.86203 0.0
C1101 C 0.57579 0.8849 0.88104 0.0
C1102 C 0.58911 0.90641 0.8499 0.0
C1103 C 0.57545 0.90603 0.8441 0.0
C1104 C 0.57623 0.89491 0.86828 0.0
C1105 C 0.56247 0.90338 0.85072 0.0
C1106 C 0.56225 0.86977 0.88654 0.0
C1107 C 0.58803 0.88424 0.89938 0.0
N1108 N 0.56319 0.8975 0.8624 0.0
N1109 N 0.58831 0.89085 0.8876 0.0
H1110 H 0.15564 0.98796 0.84403 0.0
H1111 H 0.1892 0.76628 0.89655 0.0
H1112 H 0.1732 0.75823 0.84089 0.0
H1113 H 0.15194 0.91785 0.90223 0.0
H1114 H 0.18439 0.77019 0.87597 0.0
H1115 H 0.15467 0.97129 0.86519 0.0
C1116 C 0.15902 0.93364 0.84778 0.0
C1117 C 0.16454 0.87443 0.84071 0.0
C1118 C 0.17714 0.80183 0.88173 0.0
C1119 C 0.16371 0.85576 0.86475 0.0
C1120 C 0.17979 0.79925 0.89358 0.0
C1121 C 0.17082 0.84078 0.90134 0.0
C1122 C 0.16571 0.84798 0.87742 0.0
C1123 C 0.15926 0.88532 0.89666 0.0
C1124 C 0.15842 0.92415 0.85981 0.0
C1125 C 0.16876 0.80513 0.84598 0.0
N1126 N 0.15712 0.88843 0.88497 0.0
N1127 N 0.16849 0.79822 0.85769 0.0
H1128 H 0.40882 0.62749 0.65414 0.0
H1129 H 0.45644 0.62173 0.59559 0.0
H1130 H 0.45645 0.61594 0.65214 0.0
H1131 H 0.40874 0.61116 0.59507 0.0
H1132 H 0.45592 0.625 0.61656 0.0
H1133 H 0.40774 0.62385 0.63277 0.0
C1134 C 0.41901 0.62401 0.64921 0.0
C1135 C 0.43276 0.62346 0.65489 0.0
C1136 C 0.4455 0.62168 0.61195 0.0
C1137 C 0.43162 0.61949 0.63066 0.0
C1138 C 0.44581 0.61948 0.59993 0.0
C1139 C 0.43262 0.6146 0.59359 0.0
C1140 C 0.43189 0.61928 0.6178 0.0
C1141 C 0.41916 0.61448 0.59968 0.0
C1142 C 0.41839 0.62224 0.63706 0.0
C1143 C 0.44562 0.61857 0.64814 0.0
N1144 N 0.41912 0.61632 0.6115 0.0
N1145 N 0.44472 0.61706 0.63644 0.0
H1146 H 0.84093 0.49499 0.65257 0.0
H1147 H 0.83954 0.75685 0.59582 0.0
H1148 H 0.83829 0.74267 0.65313 0.0
H1149 H 0.83982 0.50879 0.59524 0.0
H1150 H 0.8435 0.75342 0.61677 0.0
H1151 H 0.84499 0.49968 0.63163 0.0
C1152 C 0.84139 0.55042 0.6483 0.0
C1153 C 0.83909 0.61847 0.65459 0.0
C1154 C 0.84291 0.69972 0.61204 0.0
C1155 C 0.84368 0.62432 0.63062 0.0
C1156 C 0.84061 0.70166 0.60009 0.0
C1157 C 0.83917 0.63302 0.59379 0.0
C1158 C 0.84368 0.62859 0.61777 0.0
C1159 C 0.84091 0.56315 0.59973 0.0
C1160 C 0.84373 0.55308 0.63635 0.0
C1161 C 0.84005 0.68877 0.64865 0.0
N1162 N 0.84287 0.56273 0.61141 0.0
N1163 N 0.84207 0.6898 0.63698 0.0
H1164 H 0.55284 0.35787 0.40143 0.0
H1165 H 0.60216 0.3585 0.34376 0.0
H1166 H 0.60047 0.37189 0.40287 0.0
H1167 H 0.55449 0.36985 0.34495 0.0
H1168 H 0.60264 0.36078 0.36515 0.0
H1169 H 0.55401 0.35629 0.38048 0.0
C1170 C 0.56359 0.3612 0.3973 0.0
C1171 C 0.57657 0.36658 0.4039 0.0
C1172 C 0.59211 0.3627 0.36067 0.0
C1173 C 0.57805 0.36393 0.3797 0.0
C1174 C 0.59184 0.3617 0.34851 0.0
C1175 C 0.57825 0.3625 0.3426 0.0
C1176 C 0.5787 0.36491 0.36685 0.0
C1177 C 0.5652 0.36706 0.34913 0.0
C1178 C 0.56427 0.36002 0.38529 0.0
C1179 C 0.59021 0.36815 0.39806 0.0
N1180 N 0.56576 0.36776 0.36084 0.0
N1181 N 0.59062 0.36728 0.38624 0.0
H1182 H 0.20875 0.36737 0.34671 0.0
H1183 H 0.15883 0.35138 0.40406 0.0
H1184 H 0.16123 0.34517 0.34511 0.0
H1185 H 0.20635 0.37521 0.40331 0.0
H1186 H 0.1587 0.35062 0.38268 0.0
H1187 H 0.20742 0.36971 0.36767 0.0
C1188 C 0.19798 0.36346 0.3508 0.0
C1189 C 0.18506 0.35726 0.34415 0.0
C1190 C 0.16912 0.35594 0.38724 0.0
C1191 C 0.18342 0.35903 0.36835 0.0
C1192 C 0.16919 0.35673 0.3994 0.0
C1193 C 0.18264 0.3621 0.40543 0.0
C1194 C 0.18259 0.36118 0.38118 0.0
C1195 C 0.19575 0.36914 0.39902 0.0
C1196 C 0.19722 0.36446 0.36281 0.0
C1197 C 0.17145 0.35018 0.34995 0.0
N1198 N 0.19538 0.36825 0.3873 0.0
N1199 N 0.17096 0.35163 0.36176 0.0
H1200 H 0.90797 0.24316 0.65367 0.0
H1201 H 0.94211 0.02978 0.6004 0.0
H1202 H 0.92619 0.01451 0.65617 0.0
H1203 H 0.90441 0.17914 0.59525 0.0
H1204 H 0.93759 0.03233 0.62104 0.0
H1205 H 0.90731 0.22965 0.63244 0.0
C1206 C 0.91159 0.18975 0.64976 0.0
C1207 C 0.91716 0.12987 0.65666 0.0
C1208 C 0.93019 0.06383 0.61539 0.0
C1209 C 0.9167 0.11484 0.63255 0.0
C1210 C 0.93267 0.06204 0.6035 0.0
C1211 C 0.92346 0.10316 0.59587 0.0
C1212 C 0.91868 0.10875 0.61986 0.0
C1213 C 0.91188 0.14685 0.60072 0.0
C1214 C 0.91117 0.18207 0.63769 0.0
C1215 C 0.92169 0.06183 0.65119 0.0
N1216 N 0.9099 0.14909 0.61243 0.0
N1217 N 0.92159 0.05668 0.63946 0.0
H1218 H 0.30293 0.11866 0.59781 0.0
H1219 H 0.35152 0.11412 0.65587 0.0
H1220 H 0.3506 0.13067 0.59678 0.0
H1221 H 0.30384 0.12404 0.65434 0.0
H1222 H 0.35225 0.11714 0.63449 0.0
H1223 H 0.30382 0.11441 0.61877 0.0
C1224 C 0.31363 0.12095 0.60204 0.0
C1225 C 0.3267 0.12659 0.59556 0.0
C1226 C 0.34167 0.11847 0.63889 0.0
C1227 C 0.32786 0.12092 0.61975 0.0
C1228 C 0.34125 0.11704 0.65105 0.0
C1229 C 0.32759 0.11737 0.65687 0.0
C1230 C 0.32833 0.12065 0.63261 0.0
C1231 C 0.31461 0.12156 0.65024 0.0
C1232 C 0.31415 0.11823 0.61405 0.0
C1233 C 0.34027 0.12681 0.6015 0.0
N1234 N 0.31533 0.12277 0.63853 0.0
N1235 N 0.34052 0.12453 0.61332 0.0
H1236 H 0.04932 0.87793 0.40171 0.0
H1237 H 0.09814 0.86589 0.34375 0.0
H1238 H 0.09706 0.87733 0.40265 0.0
H1239 H 0.05042 0.86499 0.34501 0.0
H1240 H 0.09866 0.87141 0.3651 0.0
H1241 H 0.05014 0.87301 0.38073 0.0
C1242 C 0.06002 0.87743 0.39747 0.0
C1243 C 0.07315 0.87939 0.40394 0.0
C1244 C 0.08811 0.86974 0.36066 0.0
C1245 C 0.0742 0.87252 0.37973 0.0
C1246 C 0.08781 0.86691 0.34851 0.0
C1247 C 0.07422 0.86377 0.34261 0.0
C1248 C 0.07472 0.87004 0.36687 0.0
C1249 C 0.06115 0.86539 0.34917 0.0
C1250 C 0.06049 0.87413 0.38545 0.0
C1251 C 0.08668 0.87615 0.39797 0.0
N1252 N 0.06175 0.86829 0.36089 0.0
N1253 N 0.08688 0.87325 0.38615 0.0
H1254 H 0.6581 0.87694 0.3447 0.0
H1255 H 0.70652 0.85522 0.40278 0.0
H1256 H 0.7058 0.87981 0.34625 0.0
H1257 H 0.65879 0.85859 0.40365 0.0
H1258 H 0.7058 0.86297 0.38184 0.0
H1259 H 0.65739 0.8677 0.36602 0.0
C1260 C 0.66838 0.87559 0.34951 0.0
C1261 C 0.68202 0.88041 0.34371 0.0
C1262 C 0.69542 0.86184 0.38653 0.0
C1263 C 0.68131 0.86981 0.36793 0.0
C1264 C 0.69583 0.85688 0.39853 0.0
C1265 C 0.68268 0.85488 0.40497 0.0
C1266 C 0.68174 0.86514 0.38078 0.0
C1267 C 0.66918 0.85971 0.39898 0.0
C1268 C 0.66797 0.87064 0.36165 0.0
C1269 C 0.69503 0.87818 0.35034 0.0
N1270 N 0.66903 0.86426 0.38717 0.0
N1271 N 0.69433 0.87318 0.36203 0.0
H1272 H 0.94468 0.71507 0.14576 0.0
H1273 H 0.91115 0.49973 0.09242 0.0
H1274 H 0.90699 0.56534 0.15077 0.0
H1275 H 0.92914 0.72889 0.08988 0.0
H1276 H 0.91038 0.51356 0.11364 0.0
H1277 H 0.94038 0.71185 0.12508 0.0
C1278 C 0.93529 0.68258 0.14262 0.0
C1279 C 0.92603 0.64152 0.15022 0.0
C1280 C 0.91422 0.56116 0.10839 0.0
C1281 C 0.9215 0.63516 0.12621 0.0
C1282 C 0.9147 0.55329 0.09632 0.0
C1283 C 0.92022 0.61327 0.08941 0.0
C1284 C 0.91964 0.62868 0.11351 0.0
C1285 C 0.92468 0.6815 0.09487 0.0
C1286 C 0.93294 0.6804 0.13072 0.0
C1287 C 0.91451 0.59756 0.14533 0.0
N1288 N 0.92451 0.68686 0.1066 0.0
N1289 N 0.91265 0.59494 0.13361 0.0
H1290 H 0.30123 0.62657 0.09258 0.0
H1291 H 0.3474 0.6534 0.15171 0.0
H1292 H 0.34873 0.65102 0.09274 0.0
H1293 H 0.30012 0.62241 0.14924 0.0
H1294 H 0.3488 0.65426 0.13037 0.0
H1295 H 0.30127 0.62426 0.11358 0.0
C1296 C 0.3117 0.63183 0.09709 0.0
C1297 C 0.32497 0.64024 0.09093 0.0
C1298 C 0.33816 0.64704 0.13455 0.0
C1299 C 0.32517 0.63702 0.11515 0.0
C1300 C 0.33735 0.64695 0.14669 0.0
C1301 C 0.32365 0.63678 0.15224 0.0
C1302 C 0.32516 0.63752 0.12801 0.0
C1303 C 0.31096 0.62867 0.14535 0.0
C1304 C 0.31174 0.6302 0.10911 0.0
C1305 C 0.33826 0.64475 0.0972 0.0
N1306 N 0.31204 0.62914 0.13365 0.0
N1307 N 0.33803 0.64361 0.10902 0.0
H1308 H 0.08721 0.24136 0.84368 0.0
H1309 H 0.08705 0.50113 0.90069 0.0
H1310 H 0.08684 0.4894 0.84321 0.0
H1311 H 0.08717 0.25307 0.90113 0.0
H1312 H 0.09056 0.49816 0.87968 0.0
H1313 H 0.09082 0.2446 0.86467 0.0
C1314 C 0.08805 0.29653 0.84798 0.0
C1315 C 0.08657 0.36519 0.84169 0.0
C1316 C 0.09002 0.44435 0.88438 0.0
C1317 C 0.09064 0.36941 0.86574 0.0
C1318 C 0.08797 0.44602 0.89637 0.0
C1319 C 0.08666 0.37725 0.90266 0.0
C1320 C 0.09065 0.37335 0.8786 0.0
C1321 C 0.08818 0.30751 0.89665 0.0
C1322 C 0.09014 0.29836 0.85997 0.0
C1323 C 0.08798 0.43505 0.84769 0.0
N1324 N 0.08991 0.30736 0.88494 0.0
N1325 N 0.08975 0.43534 0.8594 0.0
H1326 H 0.70802 0.42914 0.84603 0.0
H1327 H 0.66263 0.38503 0.90358 0.0
H1328 H 0.66142 0.37539 0.84398 0.0
H1329 H 0.69868 0.54577 0.89965 0.0
H1330 H 0.66161 0.37108 0.88241 0.0
H1331 H 0.70518 0.45685 0.86649 0.0
C1332 C 0.69712 0.4238 0.84984 0.0
C1333 C 0.68485 0.40174 0.84314 0.0
C1334 C 0.66954 0.41033 0.88622 0.0
C1335 C 0.68165 0.43172 0.86682 0.0
C1336 C 0.67007 0.41882 0.89828 0.0
C1337 C 0.68093 0.46576 0.90341 0.0
C1338 C 0.68006 0.44822 0.87934 0.0
C1339 C 0.69038 0.50755 0.8961 0.0
C1340 C 0.69553 0.43957 0.86156 0.0
C1341 C 0.67116 0.39249 0.84878 0.0
N1342 N 0.68989 0.49679 0.88447 0.0
N1343 N 0.66991 0.40746 0.86035 0.0
H1344 H 0.54228 0.89143 0.99247 0.0
H1345 H 0.46329 0.08262 0.00658 0.0
H1346 H 0.50768 0.92294 0.96712 0.0
H1347 H 0.49763 0.04876 0.03208 0.0
H1348 H 0.47961 0.02642 0.99185 0.0
H1349 H 0.52596 0.94724 0.00726 0.0
C1350 C 0.53121 0.90908 0.99006 0.0
C1351 C 0.52636 0.90262 0.97855 0.0
C1352 C 0.48359 0.03168 0.00067 0.0
C1353 C 0.50772 0.96758 0.99531 0.0
C1354 C 0.47431 0.06434 0.00905 0.0
C1355 C 0.47908 0.07032 0.02057 0.0
C1356 C 0.49773 0.00493 0.00386 0.0
C1357 C 0.49344 0.04499 0.02331 0.0
C1358 C 0.52193 0.94151 0.99846 0.0
C1359 C 0.51193 0.92713 0.97587 0.0
N1360 N 0.50221 0.01324 0.01504 0.0
N1361 N 0.50317 0.95872 0.98416 0.0
H1362 H 0.79055 0.11621 0.00321 0.0
H1363 H 0.71179 0.30641 0.98851 0.0
H1364 H 0.75699 0.1649 0.0288 0.0
H1365 H 0.74401 0.24435 0.96251 0.0
H1366 H 0.72789 0.25018 0.00337 0.0
H1367 H 0.77326 0.15707 0.98799 0.0
C1368 C 0.77952 0.13456 0.00561 0.0
C1369 C 0.77526 0.13755 0.01729 0.0
C1370 C 0.7314 0.24862 0.9944 0.0
C1371 C 0.75549 0.18512 0.0 0.0
C1372 C 0.72221 0.28083 0.98592 0.0
C1373 C 0.72658 0.28055 0.97426 0.0
C1374 C 0.74507 0.21614 0.99118 0.0
C1375 C 0.74019 0.24626 0.9714 0.0
C1376 C 0.76966 0.1582 0.99694 0.0
C1377 C 0.76082 0.16215 0.01992 0.0
N1378 N 0.74897 0.21584 0.97979 0.0
N1379 N 0.75152 0.18538 0.01138 0.0
H1380 H 0.46331 0.15782 0.24253 0.0
H1381 H 0.54345 0.34053 0.2554 0.0
H1382 H 0.49569 0.20753 0.21605 0.0
H1383 H 0.51114 0.29047 0.28191 0.0
H1384 H 0.52595 0.29356 0.24075 0.0
H1385 H 0.48082 0.20464 0.2572 0.0
C1386 C 0.47412 0.17779 0.23982 0.0
C1387 C 0.47801 0.17886 0.22805 0.0
C1388 C 0.52269 0.29317 0.24978 0.0
C1389 C 0.49802 0.23334 0.24471 0.0
C1390 C 0.53265 0.32045 0.25812 0.0
C1391 C 0.52878 0.31937 0.26989 0.0
C1392 C 0.50877 0.2647 0.25325 0.0
C1393 C 0.51465 0.29214 0.27294 0.0
C1394 C 0.48409 0.20498 0.24817 0.0
C1395 C 0.49216 0.20592 0.22502 0.0
N1396 N 0.50521 0.26577 0.2647 0.0
N1397 N 0.5016 0.23221 0.23326 0.0
H1398 H 0.79427 0.09682 0.24034 0.0
H1399 H 0.71536 0.90885 0.25591 0.0
H1400 H 0.76096 0.04033 0.21491 0.0
H1401 H 0.74835 0.96815 0.28145 0.0
H1402 H 0.73211 0.95491 0.24067 0.0
H1403 H 0.77754 0.05085 0.25562 0.0
C1404 C 0.78342 0.07549 0.23798 0.0
C1405 C 0.77904 0.07241 0.22633 0.0
C1406 C 0.73568 0.95757 0.24962 0.0
C1407 C 0.75991 0.0189 0.2437 0.0
C1408 C 0.72615 0.93085 0.2583 0.0
C1409 C 0.73043 0.93467 0.26997 0.0
C1410 C 0.74959 0.98825 0.25263 0.0
C1411 C 0.74453 0.96427 0.27257 0.0
C1412 C 0.77389 0.04883 0.24669 0.0
C1413 C 0.76486 0.04363 0.22376 0.0
N1414 N 0.75356 0.99 0.264 0.0
N1415 N 0.75586 0.01789 0.23235 0.0
H1416 H 0.21401 0.83206 0.9872 0.0
H1417 H 0.29384 0.65587 0.00273 0.0
H1418 H 0.24681 0.77265 0.96151 0.0
H1419 H 0.2608 0.71569 0.02821 0.0
H1420 H 0.27674 0.69703 0.9874 0.0
H1421 H 0.23121 0.79093 0.00241 0.0
C1422 C 0.22485 0.81101 0.98477 0.0
C1423 C 0.22895 0.80577 0.97307 0.0
C1424 C 0.27324 0.70086 0.99635 0.0
C1425 C 0.24865 0.75783 0.99039 0.0
C1426 C 0.28298 0.67699 0.00509 0.0
C1427 C 0.27877 0.68242 0.01676 0.0
C1428 C 0.25922 0.73026 -0.00066 0.0
C1429 C 0.26457 0.71069 0.01933 0.0
C1430 C 0.23465 0.78715 0.99344 0.0
C1431 C 0.24314 0.7776 0.97041 0.0
N1432 N 0.25535 0.73364 0.01072 0.0
N1433 N 0.25244 0.75455 0.97898 0.0
H1434 H 0.46687 0.65855 0.74177 0.0
H1435 H 0.54637 0.84336 0.75621 0.0
H1436 H 0.50146 0.68797 0.71634 0.0
H1437 H 0.51057 0.82508 0.78084 0.0
H1438 H 0.53039 0.78413 0.74147 0.0
H1439 H 0.48332 0.71358 0.75649 0.0
C1440 C 0.47797 0.67557 0.73932 0.0
C1441 C 0.48277 0.66881 0.72781 0.0
C1442 C 0.52604 0.79341 0.7501 0.0
C1443 C 0.50159 0.73285 0.74453 0.0
C1444 C 0.53514 0.82767 0.75848 0.0
C1445 C 0.52982 0.83918 0.76977 0.0
C1446 C 0.51157 0.77053 0.75306 0.0
C1447 C 0.51519 0.81712 0.77226 0.0
C1448 C 0.48734 0.70757 0.7477 0.0
C1449 C 0.49725 0.69245 0.7251 0.0
N1450 N 0.50663 0.78377 0.76402 0.0
N1451 N 0.50611 0.72363 0.73337 0.0
H1452 H 0.25972 0.05939 0.7174 0.0
H1453 H 0.24381 0.98688 0.78468 0.0
H1454 H 0.29204 0.10334 0.74414 0.0
H1455 H 0.21282 0.93204 0.75744 0.0
H1456 H 0.26143 0.03146 0.77014 0.0
H1457 H 0.24224 0.01723 0.73209 0.0
C1458 C 0.26314 0.06067 0.72639 0.0
C1459 C 0.27743 0.08483 0.72953 0.0
C1460 C 0.25081 0.00949 0.76733 0.0
C1461 C 0.25733 0.03572 0.74648 0.0
C1462 C 0.24072 0.98378 0.77562 0.0
C1463 C 0.22677 0.95559 0.77228 0.0
C1464 C 0.24696 0.00739 0.75556 0.0
C1465 C 0.22344 0.953 0.76042 0.0
C1466 C 0.25311 0.03626 0.73479 0.0
C1467 C 0.28114 0.08544 0.74133 0.0
N1468 N 0.23345 0.97884 0.75249 0.0
N1469 N 0.27116 0.06088 0.74939 0.0
H1470 H 0.4642 0.5838 0.50583 0.0
H1471 H 0.54331 0.39517 0.49129 0.0
H1472 H 0.49818 0.54221 0.53137 0.0
H1473 H 0.50947 0.43768 0.46568 0.0
H1474 H 0.52675 0.44701 0.50622 0.0
H1475 H 0.48075 0.53203 0.49087 0.0
C1476 C 0.47517 0.56467 0.50827 0.0
C1477 C 0.47979 0.56726 0.51986 0.0
C1478 C 0.52294 0.44464 0.49733 0.0
C1479 C 0.49869 0.50702 0.50288 0.0
C1480 C 0.53236 0.41453 0.48884 0.0
C1481 C 0.52779 0.41214 0.47723 0.0
C1482 C 0.50886 0.47248 0.49418 0.0
C1483 C 0.51351 0.43866 0.47451 0.0
C1484 C 0.48459 0.5346 0.49975 0.0
C1485 C 0.4941 0.54104 0.52255 0.0
N1486 N 0.50459 0.46787 0.4829 0.0
N1487 N 0.503 0.51187 0.51415 0.0
H1488 H 0.74813 0.77255 0.46744 0.0
H1489 H 0.76026 0.71092 0.53547 0.0
H1490 H 0.71515 0.83061 0.49305 0.0
H1491 H 0.79233 0.64674 0.50948 0.0
H1492 H 0.74363 0.75476 0.52019 0.0
H1493 H 0.7645 0.72879 0.48281 0.0
C1494 C 0.74433 0.77655 0.47633 0.0
C1495 C 0.73019 0.8053 0.47895 0.0
C1496 C 0.75426 0.73085 0.51781 0.0
C1497 C 0.749 0.75439 0.49668 0.0
C1498 C 0.76379 0.70553 0.52653 0.0
C1499 C 0.77776 0.67503 0.52376 0.0
C1500 C 0.7587 0.726 0.50618 0.0
C1501 C 0.78167 0.66955 0.51202 0.0
C1502 C 0.75372 0.75123 0.48511 0.0
C1503 C 0.72596 0.80914 0.49063 0.0
N1504 N 0.77221 0.69507 0.50368 0.0
N1505 N 0.73531 0.7837 0.49908 0.0
H1506 H 0.74979 0.42867 0.77881 0.0
H1507 H 0.75788 0.54326 0.71206 0.0
H1508 H 0.71355 0.41157 0.75458 0.0
H1509 H 0.79139 0.58611 0.73792 0.0
H1510 H 0.74163 0.49224 0.72715 0.0
H1511 H 0.76538 0.48006 0.76354 0.0
C1512 C 0.7451 0.43525 0.77023 0.0
C1513 C 0.73027 0.41595 0.768 0.0
C1514 C 0.75249 0.51322 0.72954 0.0
C1515 C 0.74821 0.47578 0.75036 0.0
C1516 C 0.76179 0.54258 0.72094 0.0
C1517 C 0.77605 0.56902 0.72373 0.0
C1518 C 0.75751 0.50965 0.74103 0.0
C1519 C 0.78048 0.56672 0.73537 0.0
C1520 C 0.75404 0.46503 0.7615 0.0
C1521 C 0.72491 0.42545 0.75667 0.0
N1522 N 0.77128 0.53709 0.74357 0.0
N1523 N 0.73388 0.45501 0.74826 0.0
H1524 H 0.2932 0.15775 0.50823 0.0
H1525 H 0.21415 0.34555 0.49331 0.0
H1526 H 0.25979 0.20762 0.5339 0.0
H1527 H 0.24805 0.30012 0.46785 0.0
H1528 H 0.23078 0.29643 0.50842 0.0
H1529 H 0.27658 0.20762 0.4932 0.0
C1530 C 0.28234 0.17838 0.51069 0.0
C1531 C 0.2779 0.17856 0.52233 0.0
C1532 C 0.23458 0.29759 0.49952 0.0
C1533 C 0.2589 0.23657 0.50525 0.0
C1534 C 0.22512 0.32612 0.49092 0.0
C1535 C 0.22969 0.32684 0.47931 0.0
C1536 C 0.24868 0.26964 0.49647 0.0
C1537 C 0.244 0.30036 0.47669 0.0
C1538 C 0.27288 0.20734 0.50213 0.0
C1539 C 0.26372 0.20659 0.52503 0.0
N1540 N 0.25294 0.27266 0.48517 0.0
N1541 N 0.25476 0.23458 0.51658 0.0
H1542 H 0.29362 0.57833 0.23973 0.0
H1543 H 0.21305 0.41447 0.25622 0.0
H1544 H 0.25638 0.57886 0.21631 0.0
H1545 H 0.25051 0.41146 0.27942 0.0
H1546 H 0.22881 0.47327 0.24131 0.0
H1547 H 0.27782 0.51946 0.2546 0.0
C1548 C 0.2821 0.56701 0.23777 0.0
C1549 C 0.27634 0.58342 0.22676 0.0
C1550 C 0.23358 0.45932 0.24966 0.0
C1551 C 0.25825 0.51509 0.24361 0.0
C1552 C 0.2246 0.42521 0.25813 0.0
C1553 C 0.23045 0.40817 0.26909 0.0
C1554 C 0.24847 0.47642 0.25219 0.0
C1555 C 0.24549 0.42398 0.27112 0.0
C1556 C 0.27311 0.53285 0.24621 0.0
C1557 C 0.26134 0.56687 0.22465 0.0
N1558 N 0.25394 0.45739 0.26279 0.0
N1559 N 0.25286 0.53346 0.23296 0.0
H1560 H 0.04244 0.90081 0.49234 0.0
H1561 H 0.96378 0.08567 0.50925 0.0
H1562 H 0.00838 0.95706 0.46751 0.0
H1563 H 0.99765 0.02977 0.53425 0.0
H1564 H 0.98015 0.03997 0.49377 0.0
H1565 H 0.02612 0.94616 0.50793 0.0
C1566 C 0.03151 0.92195 0.49018 0.0
C1567 C 0.02679 0.9252 0.47861 0.0
C1568 C 0.98401 0.03798 0.50265 0.0
C1569 C 0.00814 0.97794 0.49633 0.0
C1570 C 0.97468 0.06448 0.51147 0.0
C1571 C 0.97932 0.06156 0.52306 0.0
C1572 C 0.99807 0.00832 0.50544 0.0
C1573 C 0.99356 0.03301 0.52544 0.0
C1574 C 0.02222 0.94826 0.49906 0.0
C1575 C 0.01253 0.95368 0.4763 0.0
N1576 N 1.00239 0.00738 0.51673 0.0
N1577 N 0.00376 0.97905 0.48505 0.0
H1578 H 0.96125 0.17155 0.74194 0.0
H1579 H 0.04035 0.35891 0.75688 0.0
H1580 H 0.99264 0.24606 0.71606 0.0
H1581 H 0.00923 0.28166 0.78278 0.0
H1582 H 0.02281 0.32005 0.74175 0.0
H1583 H 0.97867 0.21169 0.75709 0.0
C1584 C 0.97182 0.19588 0.73944 0.0
C1585 C 0.97547 0.20538 0.72771 0.0
C1586 C 0.01981 0.31185 0.75075 0.0
C1587 C 0.99541 0.25204 0.74497 0.0
C1588 C 0.02981 0.33436 0.75938 0.0
C1589 C 0.02628 0.32353 0.77111 0.0
C1590 C 0.0062 0.27831 0.75387 0.0
C1591 C 0.01247 0.29101 0.77385 0.0
C1592 C 0.98175 0.21907 0.74808 0.0
C1593 C 0.98931 0.23762 0.72498 0.0
N1594 N 1.00298 0.26947 0.76532 0.0
N1595 N 0.99874 0.25983 0.73352 0.0
H1596 H 0.00931 0.79736 0.27922 0.0
H1597 H 0.99978 0.71027 0.21159 0.0
H1598 H 0.04381 0.83765 0.25406 0.0
H1599 H 0.96572 0.66689 0.237 0.0
H1600 H 0.01602 0.7565 0.22694 0.0
H1601 H 0.99316 0.752 0.26381 0.0
C1602 C 0.01349 0.79717 0.27042 0.0
C1603 C 0.028 0.82129 0.26794 0.0
C1604 C 0.00503 0.73665 0.22919 0.0
C1605 C 0.00945 0.76845 0.25017 0.0
C1606 C 0.99572 0.70994 0.22043 0.0
C1607 C 0.98132 0.68462 0.223 0.0
C1608 C 0.99993 0.73842 0.24067 0.0
C1609 C 0.97673 0.68554 0.23461 0.0
C1610 C 0.00423 0.77095 0.26161 0.0
C1611 C 0.03271 0.81991 0.25636 0.0
N1612 N 0.986 0.71232 0.24301 0.0
N1613 N 0.02347 0.79356 0.2479 0.0
H1614 H 0.04196 0.38304 0.988 0.0
H1615 H 0.96339 0.57288 0.00388 0.0
H1616 H 0.01026 0.45939 0.96249 0.0
H1617 H 0.99523 0.49817 0.02939 0.0
H1618 H 0.98044 0.53184 0.98853 0.0
H1619 H 0.02481 0.42296 0.00335 0.0
C1620 C 0.03137 0.4076 0.98562 0.0
C1621 C 0.02756 0.41787 0.97394 0.0
C1622 C 0.9837 0.52462 0.9975 0.0
C1623 C 0.00794 0.46434 0.99142 0.0
C1624 C 0.97398 0.54835 0.00625 0.0
C1625 C 0.97786 0.53901 0.01794 0.0
C1626 C 0.99739 0.49129 0.00046 0.0
C1627 C 0.99172 0.50647 0.02051 0.0
C1628 C 0.0216 0.43072 0.99438 0.0
C1629 C 0.0137 0.45045 0.97137 0.0
N1630 N 1.00094 0.48374 0.01186 0.0
N1631 N 0.00444 0.4726 0.98002 0.0
H1632 H 0.42034 0.77841 0.02771 0.0
H1633 H 0.47575 0.46057 0.05303 0.0
H1634 H 0.4604 0.83348 0.04628 0.0
H1635 H 0.43388 0.40882 0.03682 0.0
H1636 H 0.47098 0.59767 0.04996 0.0
H1637 H 0.42584 0.64178 0.03012 0.0
C1638 C 0.43029 0.76167 0.03227 0.0
C1639 C 0.43984 0.81729 0.03688 0.0
C1640 C 0.46288 0.55609 0.04703 0.0
C1641 C 0.44623 0.6614 0.03971 0.0
C1642 C 0.46559 0.47794 0.04881 0.0
C1643 C 0.45526 0.42299 0.0451 0.0
C1644 C 0.44974 0.57925 0.04153 0.0
C1645 C 0.44231 0.44871 0.0396 0.0
C1646 C 0.43342 0.68378 0.03369 0.0
C1647 C 0.45257 0.7926 0.04279 0.0
N1648 N 0.43992 0.52486 0.038 0.0
N1649 N 0.4554 0.71643 0.04403 0.0
H1650 H 0.82231 0.81777 0.03415 0.0
H1651 H 0.79353 0.38843 0.04276 0.0
H1652 H 0.78055 0.76222 0.05024 0.0
H1653 H 0.8336 0.44672 0.02441 0.0
H1654 H 0.78857 0.52469 0.04566 0.0
H1655 H 0.82651 0.68221 0.03046 0.0
C1656 C 0.8139 0.77714 0.03677 0.0
C1657 C 0.80095 0.80153 0.0424 0.0
C1658 C 0.79845 0.50778 0.041 0.0
C1659 C 0.80587 0.64546 0.03841 0.0
C1660 C 0.80135 0.42995 0.03942 0.0
C1661 C 0.81411 0.40635 0.03345 0.0
C1662 C 0.80838 0.56244 0.0366 0.0
C1663 C 0.82363 0.46266 0.02902 0.0
C1664 C 0.81637 0.6995 0.03473 0.0
C1665 C 0.79069 0.74582 0.04593 0.0
N1666 N 0.82061 0.53823 0.03074 0.0
N1667 N 0.79337 0.6702 0.04387 0.0
H1668 H 0.4583 0.79659 0.18512 0.0
H1669 H 0.43597 0.46564 0.23001 0.0
H1670 H 0.44933 0.83795 0.22133 0.0
H1671 H 0.4398 0.42976 0.1931 0.0
H1672 H 0.44175 0.60126 0.22716 0.0
H1673 H 0.45314 0.66018 0.18811 0.0
C1674 C 0.4554 0.77688 0.19373 0.0
C1675 C 0.4542 0.82882 0.20298 0.0
C1676 C 0.44131 0.5637 0.21968 0.0
C1677 C 0.44807 0.67296 0.20644 0.0
C1678 C 0.43789 0.48623 0.2213 0.0
C1679 C 0.43742 0.43593 0.21178 0.0
C1680 C 0.4443 0.59119 0.20847 0.0
C1681 C 0.44026 0.46603 0.20071 0.0
C1682 C 0.45233 0.69909 0.19541 0.0
C1683 C 0.45019 0.80014 0.21392 0.0
N1684 N 0.4436 0.54161 0.19936 0.0
N1685 N 0.44726 0.72418 0.21534 0.0
H1686 H 0.8185 0.40502 0.21584 0.0
H1687 H 0.79687 0.83581 0.19963 0.0
H1688 H 0.78428 0.46307 0.19116 0.0
H1689 H 0.83539 0.77472 0.21978 0.0
H1690 H 0.79076 0.70022 0.19776 0.0
H1691 H 0.82302 0.54032 0.21898 0.0
C1692 C 0.81185 0.44558 0.21107 0.0
C1693 C 0.80115 0.4214 0.20299 0.0
C1694 C 0.80056 0.71646 0.20258 0.0
C1695 C 0.80638 0.57814 0.20666 0.0
C1696 C 0.80416 0.79403 0.20357 0.0
C1697 C 0.81681 0.81691 0.20976 0.0
C1698 C 0.80962 0.66114 0.20785 0.0
C1699 C 0.82552 0.7598 0.21498 0.0
C1700 C 0.81452 0.52343 0.21288 0.0
C1701 C 0.79287 0.47826 0.19726 0.0
N1702 N 0.82177 0.68452 0.21388 0.0
N1703 N 0.79571 0.55392 0.19916 0.0
H1704 H 0.5653 0.15054 0.94272 0.0
H1705 H 0.55327 0.56277 0.97194 0.0
H1706 H 0.56731 0.18957 0.97964 0.0
H1707 H 0.54682 0.51763 0.9355 0.0
H1708 H 0.55899 0.42702 0.97493 0.0
H1709 H 0.55926 0.28586 0.93987 0.0
C1710 C 0.56444 0.18748 0.95024 0.0
C1711 C 0.56673 0.15832 0.96144 0.0
C1712 C 0.55625 0.44674 0.96629 0.0
C1713 C 0.55993 0.3138 0.95824 0.0
C1714 C 0.55302 0.52431 0.96457 0.0
C1715 C 0.54959 0.55177 0.95344 0.0
C1716 C 0.55612 0.39615 0.95681 0.0
C1717 C 0.54924 0.49899 0.94424 0.0
C1718 C 0.56102 0.26486 0.9486 0.0
C1719 C 0.56577 0.20943 0.97084 0.0
N1720 N 0.55254 0.42383 0.94612 0.0
N1721 N 0.56241 0.28462 0.96902 0.0
H1722 H 0.18288 0.13318 0.95753 0.0
H1723 H 0.2136 0.56219 0.95234 0.0
H1724 H 0.22484 0.18691 0.94169 0.0
H1725 H 0.17027 0.50234 0.96532 0.0
H1726 H 0.21885 0.42579 0.94947 0.0
H1727 H 0.17911 0.26834 0.96167 0.0
C1728 C 0.19143 0.17335 0.95507 0.0
C1729 C 0.20429 0.14844 0.9494 0.0
C1730 C 0.20822 0.44267 0.95299 0.0
C1731 C 0.1999 0.30465 0.95388 0.0
C1732 C 0.20517 0.52064 0.95458 0.0
C1733 C 0.1914 0.54414 0.95902 0.0
C1734 C 0.19745 0.3878 0.95586 0.0
C1735 C 0.18107 0.48725 0.96199 0.0
C1736 C 0.18921 0.25091 0.95734 0.0
C1737 C 0.21476 0.20378 0.94606 0.0
N1738 N 0.18429 0.41192 0.96032 0.0
N1739 N 0.21234 0.27952 0.94836 0.0
H1740 H 0.58291 0.57488 0.80588 0.0
H1741 H 0.55039 0.20348 0.77559 0.0
H1742 H 0.55594 0.59809 0.77529 0.0
H1743 H 0.5524 0.22603 0.81274 0.0
H1744 H 0.55634 0.34151 0.77375 0.0
H1745 H 0.57607 0.43869 0.80702 0.0
C1746 C 0.57565 0.55091 0.79935 0.0
C1747 C 0.56999 0.59737 0.79046 0.0
C1748 C 0.55536 0.31604 0.78228 0.0
C1749 C 0.56224 0.4419 0.79165 0.0
C1750 C 0.55203 0.23766 0.78332 0.0
C1751 C 0.55078 0.20385 0.79433 0.0
C1752 C 0.5579 0.35988 0.79231 0.0
C1753 C 0.55305 0.25023 0.80412 0.0
C1754 C 0.57168 0.47357 0.80005 0.0
C1755 C 0.56046 0.56389 0.78228 0.0
N1756 N 0.55666 0.32561 0.80288 0.0
N1757 N 0.55697 0.48777 0.78299 0.0
H1758 H 0.18329 0.23909 0.76834 0.0
H1759 H 0.20586 0.56775 0.81353 0.0
H1760 H 0.19184 0.19718 0.8046 0.0
H1761 H 0.19894 0.60954 0.77703 0.0
H1762 H 0.20176 0.43116 0.81023 0.0
H1763 H 0.18944 0.37446 0.77123 0.0
C1764 C 0.1864 0.25826 0.77692 0.0
C1765 C 0.18701 0.20646 0.78625 0.0
C1766 C 0.2012 0.47016 0.80293 0.0
C1767 C 0.19423 0.36156 0.7896 0.0
C1768 C 0.20367 0.54839 0.80479 0.0
C1769 C 0.2027 0.60086 0.79556 0.0
C1770 C 0.1977 0.4438 0.79176 0.0
C1771 C 0.19957 0.57177 0.78446 0.0
C1772 C 0.19002 0.33558 0.77855 0.0
C1773 C 0.19137 0.2347 0.79713 0.0
N1774 N 0.19712 0.49536 0.78288 0.0
N1775 N 0.19476 0.31025 0.79851 0.0
H1776 H 0.42076 0.27378 0.52783 0.0
H1777 H 0.47686 0.95608 0.55227 0.0
H1778 H 0.46146 0.32878 0.54554 0.0
H1779 H 0.43458 0.90396 0.53677 0.0
H1780 H 0.47199 0.09312 0.54925 0.0
H1781 H 0.42627 0.1371 0.53021 0.0
C1782 C 0.43086 0.25703 0.5322 0.0
C1783 C 0.44058 0.31265 0.53658 0.0
C1784 C 0.46382 0.05149 0.54647 0.0
C1785 C 0.44699 0.15671 0.53937 0.0
C1786 C 0.46658 0.97338 0.54822 0.0
C1787 C 0.45618 0.91834 0.54469 0.0
C1788 C 0.45053 0.07456 0.54117 0.0
C1789 C 0.44307 0.94395 0.5394 0.0
C1790 C 0.43399 0.17911 0.5336 0.0
C1791 C 0.45349 0.28792 0.54224 0.0
N1792 N 0.44063 0.02008 0.53782 0.0
N1793 N 0.45632 0.21175 0.54347 0.0
H1794 H 0.83687 0.96965 0.52915 0.0
H1795 H 0.78371 0.28771 0.55727 0.0
H1796 H 0.79811 0.91418 0.54934 0.0
H1797 H 0.82407 0.33891 0.53885 0.0
H1798 H 0.78819 0.1504 0.55401 0.0
H1799 H 0.83166 0.10615 0.53198 0.0
C1800 C 0.82725 0.98626 0.53415 0.0
C1801 C 0.81798 0.93051 0.53908 0.0
C1802 C 0.79601 0.19192 0.55064 0.0
C1803 C 0.81195 0.08642 0.54241 0.0
C1804 C 0.79348 0.27015 0.55252 0.0
C1805 C 0.80345 0.32499 0.54822 0.0
C1806 C 0.80864 0.1686 0.54445 0.0
C1807 C 0.81589 0.2991 0.54208 0.0
C1808 C 0.8243 0.06411 0.53581 0.0
C1809 C 0.80572 0.95512 0.54557 0.0
N1810 N 0.81814 0.22293 0.54039 0.0
N1811 N 0.80305 0.0313 0.54705 0.0
H1812 H 0.46452 0.90541 0.70233 0.0
H1813 H 0.43648 0.33546 0.71149 0.0
H1814 H 0.42439 0.96478 0.72051 0.0
H1815 H 0.47836 0.27969 0.69564 0.0
H1816 H 0.432 0.1999 0.71488 0.0
H1817 H 0.46977 0.04164 0.69962 0.0
C1818 C 0.45674 0.94713 0.70567 0.0
C1819 C 0.44389 0.92385 0.71155 0.0
C1820 C 0.44223 0.21709 0.71072 0.0
C1821 C 0.44996 0.07985 0.70863 0.0
C1822 C 0.44486 0.29478 0.70888 0.0
C1823 C 0.45792 0.31915 0.70341 0.0
C1824 C 0.45268 0.16291 0.70701 0.0
C1825 C 0.46814 0.26331 0.69985 0.0
C1826 C 0.45982 0.02494 0.7042 0.0
C1827 C 0.43442 0.98043 0.71597 0.0
N1828 N 0.4653 0.18759 0.70171 0.0
N1829 N 0.43762 0.05591 0.71438 0.0
H1830 H 0.79935 0.95382 0.68093 0.0
H1831 H 0.81688 0.2846 0.72718 0.0
H1832 H 0.80305 0.91304 0.71772 0.0
H1833 H 0.81522 0.32213 0.69021 0.0
H1834 H 0.81121 0.14906 0.72398 0.0
H1835 H 0.8039 0.09016 0.6843 0.0
C1836 C 0.80093 0.97351 0.68973 0.0
C1837 C 0.80084 0.92156 0.69905 0.0
C1838 C 0.81208 0.18698 0.71657 0.0
C1839 C 0.80632 0.07789 0.70296 0.0
C1840 C 0.81543 0.26442 0.71838 0.0
C1841 C 0.81653 0.31514 0.70895 0.0
C1842 C 0.80982 0.15987 0.70524 0.0
C1843 C 0.81429 0.28554 0.69776 0.0
C1844 C 0.80367 0.05144 0.69164 0.0
C1845 C 0.80322 0.95064 0.71026 0.0
N1846 N 0.81104 0.20997 0.69622 0.0
N1847 N 0.80589 0.02676 0.71189 0.0
H1848 H 0.54552 0.64778 0.45187 0.0
H1849 H 0.57355 0.07811 0.46091 0.0
H1850 H 0.58607 0.70736 0.46945 0.0
H1851 H 0.53163 0.02193 0.44516 0.0
H1852 H 0.57808 0.9426 0.46428 0.0
H1853 H 0.54015 0.78399 0.4493 0.0
C1854 C 0.55337 0.68954 0.4551 0.0
C1855 C 0.56637 0.66629 0.46077 0.0
C1856 C 0.56784 0.95969 0.46015 0.0
C1857 C 0.56016 0.82231 0.45802 0.0
C1858 C 0.56517 0.03737 0.45832 0.0
C1859 C 0.55209 0.06163 0.45287 0.0
C1860 C 0.55739 0.90539 0.45646 0.0
C1861 C 0.54187 0.00567 0.44934 0.0
C1862 C 0.55023 0.76734 0.45372 0.0
C1863 C 0.57592 0.72294 0.46507 0.0
N1864 N 0.54475 0.92997 0.45119 0.0
N1865 N 0.57265 0.79842 0.46357 0.0
H1866 H 0.19057 0.07583 0.44324 0.0
H1867 H 0.20311 0.66408 0.47254 0.0
H1868 H 0.18887 0.0375 0.48018 0.0
H1869 H 0.20909 0.70905 0.43604 0.0
H1870 H 0.1973 0.79979 0.47553 0.0
H1871 H 0.19661 0.9405 0.44042 0.0
C1872 C 0.19149 0.03904 0.45077 0.0
C1873 C 0.18929 0.06843 0.46197 0.0
C1874 C 0.19996 0.78002 0.46688 0.0
C1875 C 0.1961 0.91287 0.4588 0.0
C1876 C 0.20324 0.70247 0.46516 0.0
C1877 C 0.20658 0.67496 0.45401 0.0
C1878 C 0.19994 0.83051 0.45738 0.0
C1879 C 0.20677 0.72767 0.4448 0.0
C1880 C 0.19491 0.96164 0.44915 0.0
C1881 C 0.19033 0.01748 0.47139 0.0
N1882 N 0.20342 0.80276 0.44668 0.0
N1883 N 0.1937 0.94225 0.46959 0.0
H1884 H 0.56903 0.06968 0.30498 0.0
H1885 H 0.55576 0.65812 0.27581 0.0
H1886 H 0.57008 0.03144 0.26802 0.0
H1887 H 0.55071 0.70278 0.31239 0.0
H1888 H 0.56151 0.79386 0.27274 0.0
H1889 H 0.563 0.93439 0.30785 0.0
C1890 C 0.56797 0.03292 0.29746 0.0
C1891 C 0.56998 0.06233 0.28623 0.0
C1892 C 0.55907 0.77401 0.28143 0.0
C1893 C 0.56318 0.90679 0.28947 0.0
C1894 C 0.55583 0.69644 0.28319 0.0
C1895 C 0.55277 0.66883 0.29438 0.0
C1896 C 0.55934 0.82443 0.29094 0.0
C1897 C 0.55282 0.72147 0.3036 0.0
C1898 C 0.56456 0.95553 0.29911 0.0
C1899 C 0.56876 0.0114 0.27683 0.0
N1900 N 0.55613 0.79658 0.30168 0.0
N1901 N 0.56539 0.93619 0.27866 0.0
H1902 H 0.17148 0.69715 0.28012 0.0
H1903 H 0.23018 0.01458 0.30032 0.0
H1904 H 0.21387 0.64228 0.29522 0.0
H1905 H 0.18866 0.06759 0.28363 0.0
H1906 H 0.22503 0.87776 0.29767 0.0
H1907 H 0.17811 0.83332 0.28056 0.0
C1908 C 0.18219 0.71369 0.28351 0.0
C1909 C 0.19209 0.65808 0.28768 0.0
C1910 C 0.2171 0.91949 0.29452 0.0
C1911 C 0.19981 0.81396 0.28816 0.0
C1912 C 0.22001 -0.00231 0.29608 0.0
C1913 C 0.2098 0.05316 0.2923 0.0
C1914 C 0.20384 0.8964 0.2892 0.0
C1915 C 0.19691 0.02755 0.28666 0.0
C1916 C 0.18601 0.79143 0.28371 0.0
C1917 C 0.20593 0.68284 0.29181 0.0
N1918 N 0.19426 0.9512 0.28537 0.0
N1919 N 0.20933 0.75892 0.29202 0.0
H1920 H 0.93395 0.39289 0.53957 0.0
H1921 H 0.96454 0.8225 0.54416 0.0
H1922 H 0.97644 0.44718 0.55446 0.0
H1923 H 0.92067 0.7621 0.53242 0.0
H1924 H 0.96999 0.68616 0.54686 0.0
H1925 H 0.9299 0.52809 0.53561 0.0
C1926 C 0.94256 0.43321 0.54184 0.0
C1927 C 0.95565 0.40844 0.54719 0.0
C1928 C 0.95919 0.70291 0.54366 0.0
C1929 C 0.95093 0.56472 0.54295 0.0
C1930 C 0.95603 0.78086 0.54216 0.0
C1931 C 0.94205 0.8042 0.53811 0.0
C1932 C 0.94833 0.64789 0.54108 0.0
C1933 C 0.93162 0.74715 0.53544 0.0
C1934 C 0.94017 0.51079 0.53969 0.0
C1935 C 0.96618 0.46395 0.55033 0.0
N1936 N 0.93496 0.67185 0.53701 0.0
N1937 N 0.9636 0.53971 0.54815 0.0
H1938 H 0.31674 0.42483 0.55805 0.0
H1939 H 0.30427 0.83641 0.52861 0.0
H1940 H 0.31905 0.4633 0.52112 0.0
H1941 H 0.29844 0.79199 0.56514 0.0
H1942 H 0.31004 0.70062 0.52565 0.0
H1943 H 0.31053 0.56002 0.5608 0.0
C1944 C 0.31591 0.4616 0.55051 0.0
C1945 C 0.31835 0.43228 0.53933 0.0
C1946 C 0.30742 0.72054 0.53431 0.0
C1947 C 0.31134 0.58775 0.54243 0.0
C1948 C 0.30416 0.79816 0.53601 0.0
C1949 C 0.30089 0.82592 0.54715 0.0
C1950 C 0.30748 0.67016 0.54382 0.0
C1951 C 0.30072 0.77328 0.55638 0.0
C1952 C 0.3124 0.53895 0.55209 0.0
C1953 C 0.31741 0.48325 0.52991 0.0
N1954 N 0.30404 0.69812 0.55452 0.0
N1955 N 0.31394 0.55841 0.53167 0.0
H1956 H 0.94318 0.44601 0.69347 0.0
H1957 H 0.94855 0.86368 0.72226 0.0
H1958 H 0.93171 0.49272 0.7291 0.0
H1959 H 0.95701 0.81786 0.68607 0.0
H1960 H 0.94391 0.72696 0.72529 0.0
H1961 H 0.94987 0.58082 0.69098 0.0
C1962 C 0.94216 0.48448 0.7008 0.0
C1963 C 0.93688 0.45779 0.71152 0.0
C1964 C 0.94685 0.74684 0.71669 0.0
C1965 C 0.94439 0.61284 0.70869 0.0
C1966 C 0.94947 0.82508 0.71494 0.0
C1967 C 0.95309 0.85288 0.70386 0.0
C1968 C 0.94787 0.69574 0.70731 0.0
C1969 C 0.95439 0.79947 0.69478 0.0
C1970 C 0.94591 0.56163 0.69935 0.0
C1971 C 0.93556 0.51075 0.72065 0.0
N1972 N 0.95171 0.72368 0.6967 0.0
N1973 N 0.93929 0.58572 0.71903 0.0
H1974 H 0.33669 0.78326 0.72358 0.0
H1975 H 0.28243 0.46509 0.69681 0.0
H1976 H 0.29706 0.83789 0.70441 0.0
H1977 H 0.32376 0.4136 0.71383 0.0
H1978 H 0.28695 0.60213 0.70015 0.0
H1979 H 0.3314 0.64654 0.72094 0.0
C1980 C 0.32687 0.76641 0.71884 0.0
C1981 C 0.31739 0.82194 0.71412 0.0
C1982 C 0.29499 0.56062 0.7032 0.0
C1983 C 0.31125 0.66598 0.71102 0.0
C1984 C 0.29243 0.48251 0.70126 0.0
C1985 C 0.30267 0.42764 0.70512 0.0
C1986 C 0.30791 0.58384 0.70901 0.0
C1987 C 0.3154 0.45341 0.71092 0.0
C1988 C 0.32387 0.68848 0.71729 0.0
C1989 C 0.30484 0.7971 0.70799 0.0
N1990 N 0.31766 0.52952 0.71267 0.0
N1991 N 0.30214 0.72093 0.70661 0.0
H1992 H 0.06845 0.21219 0.47905 0.0
H1993 H 0.04479 0.5432 0.43455 0.0
H1994 H 0.06314 0.17624 0.44225 0.0
H1995 H 0.05386 0.58421 0.47076 0.0
H1996 H 0.05015 0.40712 0.43746 0.0
H1997 H 0.06249 0.34779 0.47634 0.0
C1998 C 0.06616 0.23272 0.47038 0.0
C1999 C 0.06628 0.18235 0.46087 0.0
C2000 C 0.05094 0.44584 0.44478 0.0
C2001 C 0.0592 0.33772 0.45773 0.0
C2002 C 0.04774 0.52357 0.44315 0.0
C2003 C 0.04889 0.57546 0.45242 0.0
C2004 C 0.05529 0.41956 0.45578 0.0
C2005 C 0.05301 0.54659 0.46333 0.0
C2006 C 0.06264 0.31021 0.46885 0.0
C2007 C 0.06297 0.21248 0.44987 0.0
N2008 N 0.05608 0.47066 0.4647 0.0
N2009 N 0.05955 0.28806 0.44861 0.0
H2010 H 0.68805 0.51904 0.48003 0.0
H2011 H 0.71105 0.18817 0.43529 0.0
H2012 H 0.69307 0.55516 0.44322 0.0
H2013 H 0.70307 0.14717 0.47166 0.0
H2014 H 0.70564 0.32401 0.43825 0.0
H2015 H 0.69398 0.38337 0.47727 0.0
C2016 C 0.69027 0.49853 0.47135 0.0
C2017 C 0.69008 0.54899 0.46184 0.0
C2018 C 0.70511 0.28536 0.4456 0.0
C2019 C 0.69712 0.39352 0.45865 0.0
C2020 C 0.70834 0.20771 0.44393 0.0
C2021 C 0.70753 0.15581 0.45323 0.0
C2022 C 0.70104 0.31167 0.45666 0.0
C2023 C 0.70367 0.18471 0.4642 0.0
C2024 C 0.69377 0.421 0.4698 0.0
C2025 C 0.69329 0.51888 0.45083 0.0
N2026 N 0.70056 0.26061 0.46561 0.0
N2027 N 0.6967 0.44328 0.44954 0.0
H2028 H 0.07409 0.15144 0.28578 0.0
H2029 H 0.04514 0.58089 0.29381 0.0
H2030 H 0.03116 0.20722 0.29989 0.0
H2031 H 0.08655 0.52282 0.27737 0.0
H2032 H 0.03987 0.44458 0.29628 0.0
H2033 H 0.07875 0.28718 0.28261 0.0
C2034 C 0.06553 0.19214 0.28808 0.0
C2035 C 0.05212 0.16781 0.29301 0.0
C2036 C 0.05011 0.46156 0.29214 0.0
C2037 C 0.05756 0.32395 0.28962 0.0
C2038 C 0.0532 0.53941 0.29081 0.0
C2039 C 0.0664 0.56304 0.28549 0.0
C2040 C 0.06031 0.40698 0.28813 0.0
C2041 C 0.07623 0.50682 0.28148 0.0
C2042 C 0.06827 0.26987 0.28634 0.0
C2043 C 0.04166 0.22357 0.29613 0.0
N2044 N 0.07302 0.43124 0.28292 0.0
N2045 N 0.04461 0.29924 0.29438 0.0
H2046 H 0.69204 0.18121 0.3062 0.0
H2047 H 0.70382 0.59265 0.27657 0.0
H2048 H 0.68901 0.21975 0.26931 0.0
H2049 H 0.71048 0.54871 0.31301 0.0
H2050 H 0.69802 0.45681 0.27372 0.0
H2051 H 0.69827 0.31647 0.30888 0.0
C2052 C 0.69271 0.21801 0.29865 0.0
C2053 C 0.69006 0.18872 0.2875 0.0
C2054 C 0.70082 0.47682 0.28233 0.0
C2055 C 0.69711 0.34417 0.29052 0.0
C2056 C 0.7041 0.55445 0.28397 0.0
C2057 C 0.70762 0.58232 0.29506 0.0
C2058 C 0.70099 0.42657 0.29186 0.0
C2059 C 0.708 0.52983 0.3043 0.0
C2060 C 0.69624 0.29537 0.30019 0.0
C2061 C 0.69082 0.23968 0.27807 0.0
N2062 N 0.70465 0.45463 0.3025 0.0
N2063 N 0.6943 0.31483 0.27979 0.0
H2064 H 0.96017 0.92519 0.06042 0.0
H2065 H 0.93432 0.25367 0.01629 0.0
H2066 H 0.95056 0.88323 0.0243 0.0
H2067 H 0.94562 0.29576 0.05208 0.0
H2068 H 0.94065 0.11828 0.01892 0.0
H2069 H 0.95585 0.06178 0.05729 0.0
C2070 C 0.95734 0.94451 0.05179 0.0
C2071 C 0.95568 0.89201 0.04263 0.0
C2072 C 0.94179 0.1572 0.02619 0.0
C2073 C 0.95043 0.04905 0.03903 0.0
C2074 C 0.93807 0.23453 0.02471 0.0
C2075 C 0.9394 0.28638 0.03399 0.0
C2076 C 0.94682 0.13128 0.03703 0.0
C2077 C 0.94457 0.2582 0.04465 0.0
C2078 C 0.95475 0.02274 0.05003 0.0
C2079 C 0.95174 0.92104 0.03168 0.0
N2080 N 0.94804 0.18264 0.04589 0.0
N2081 N 0.94919 -0.00256 0.03021 0.0
H2082 H 0.31686 0.93343 0.05328 0.0
H2083 H 0.30598 0.34569 0.02374 0.0
H2084 H 0.32075 0.97295 0.01646 0.0
H2085 H 0.29825 0.30088 0.06003 0.0
H2086 H 0.31189 0.21003 0.02092 0.0
H2087 H 0.31067 0.06873 0.05597 0.0
C2088 C 0.31638 0.97046 0.04575 0.0
C2089 C 0.31925 0.94142 0.03461 0.0
C2090 C 0.30883 0.2298 0.02949 0.0
C2091 C 0.31227 0.09692 0.03765 0.0
C2092 C 0.30549 0.30734 0.03112 0.0
C2093 C 0.30165 0.33491 0.04215 0.0
C2094 C 0.30838 0.17929 0.03898 0.0
C2095 C 0.30099 0.2822 0.05136 0.0
C2096 C 0.31289 0.04784 0.0473 0.0
C2097 C 0.31877 0.99268 0.02521 0.0
N2098 N 0.3044 0.20706 0.04957 0.0
N2099 N 0.3153 0.06785 0.02694 0.0
H2100 H 0.92189 0.98186 0.21429 0.0
H2101 H 0.97893 0.30008 0.19156 0.0
H2102 H 0.96559 0.926 0.2017 0.0
H2103 H 0.9364 0.35005 0.20676 0.0
H2104 H 0.97463 0.16274 0.1952 0.0
H2105 H 0.9275 0.11757 0.21191 0.0
C2106 C 0.93273 -0.00207 0.21114 0.0
C2107 C 0.94324 0.94191 0.20818 0.0
C2108 C 0.96631 0.20403 0.19781 0.0
C2109 C 0.94969 0.0981 0.20521 0.0
C2110 C 0.96873 0.28224 0.19569 0.0
C2111 C 0.95808 0.33675 0.19896 0.0
C2112 C 0.95307 0.18039 0.20314 0.0
C2113 C 0.94508 0.31057 0.20433 0.0
C2114 C 0.9359 0.07569 0.2097 0.0
C2115 C 0.95703 0.96675 0.20392 0.0
N2116 N 0.94293 0.23448 0.20621 0.0
N2117 N 0.95983 0.043 0.20253 0.0
H2118 H 0.33548 0.29513 0.21646 0.0
H2119 H 0.27711 0.97732 0.19571 0.0
H2120 H 0.2935 0.34964 0.20063 0.0
H2121 H 0.31886 0.9245 0.21207 0.0
H2122 H 0.2822 0.1142 0.19844 0.0
H2123 H 0.32893 0.15892 0.21587 0.0
C2124 C 0.32488 0.27852 0.21287 0.0
C2125 C 0.31507 0.33405 0.20855 0.0
C2126 C 0.29019 0.07251 0.2015 0.0
C2127 C 0.30744 0.1781 0.2079 0.0
C2128 C 0.28732 0.99431 0.1999 0.0
C2129 C 0.29759 0.93893 0.20359 0.0
C2130 C 0.30348 0.09564 0.20678 0.0
C2131 C 0.31053 0.96456 0.20914 0.0
C2132 C 0.32111 0.20074 0.21259 0.0
C2133 C 0.30137 0.30917 0.20417 0.0
N2134 N 0.31314 0.0409 0.21049 0.0
N2135 N 0.298 0.23306 0.20389 0.0
H2136 H 0.05372 0.0791 0.9676 0.0
H2137 H 0.06757 0.66705 0.93872 0.0
H2138 H 0.05046 0.03515 0.93087 0.0
H2139 H 0.06803 0.70631 0.97567 0.0
H2140 H 0.06155 0.80225 0.93571 0.0
H2141 H 0.05907 0.94309 0.97078 0.0
C2142 C 0.05409 0.0409 0.9602 0.0
C2143 C 0.05167 0.06884 0.94894 0.0
C2144 C 0.06297 0.78134 0.94448 0.0
C2145 C 0.05778 0.91285 0.95253 0.0
C2146 C 0.06636 0.704 0.94621 0.0
C2147 C 0.06825 0.67495 0.95747 0.0
C2148 C 0.06146 0.83037 0.95408 0.0
C2149 C 0.06683 0.72608 0.96683 0.0
C2150 C 0.05711 0.96316 0.96203 0.0
C2151 C 0.05208 0.01628 0.9397 0.0
N2152 N 0.06349 0.80122 0.96492 0.0
N2153 N 0.05516 0.94099 0.9417 0.0
H2154 H 0.71897 0.73045 0.97171 0.0
H2155 H 0.66676 0.04923 0.94312 0.0
H2156 H 0.68358 0.6819 0.94764 0.0
H2157 H 0.70313 0.10391 0.96586 0.0
H2158 H 0.67087 0.91273 0.94683 0.0
H2159 H 0.7119 0.8662 0.97144 0.0
C2160 C 0.70974 0.74812 0.96637 0.0
C2161 C 0.70193 0.69438 0.95965 0.0
C2162 C 0.67787 0.95447 0.95113 0.0
C2163 C 0.69365 0.84943 0.95942 0.0
C2164 C 0.6755 0.0323 0.94901 0.0
C2165 C 0.68469 0.08769 0.9541 0.0
C2166 C 0.68964 0.9317 0.95831 0.0
C2167 C 0.69575 0.06301 0.9618 0.0
C2168 C 0.70563 0.82556 0.96629 0.0
C2169 C 0.68987 0.72061 0.95307 0.0
N2170 N 0.69805 0.98664 0.96355 0.0
N2171 N 0.68617 0.79615 0.95308 0.0
H2172 H 0.05288 0.66207 0.77714 0.0
H2173 H 0.06684 0.07431 0.80589 0.0
H2174 H 0.04983 0.70594 0.81388 0.0
H2175 H 0.06698 0.03466 0.76896 0.0
H2176 H 0.06086 0.93909 0.80897 0.0
H2177 H 0.05816 0.79809 0.77392 0.0
C2178 C 0.05328 0.70029 0.78453 0.0
C2179 C 0.05095 0.67234 0.7958 0.0
C2180 C 0.0622 0.95993 0.80019 0.0
C2181 C 0.05697 0.82834 0.79219 0.0
C2182 C 0.06557 0.03727 0.79842 0.0
C2183 C 0.06735 0.0662 0.78714 0.0
C2184 C 0.06062 0.91082 0.79061 0.0
C2185 C 0.06586 0.01499 0.7778 0.0
C2186 C 0.05626 0.77803 0.78269 0.0
C2187 C 0.05139 0.72488 0.80504 0.0
N2188 N 0.06255 0.93986 0.77975 0.0
N2189 N 0.05442 0.80021 0.80303 0.0
H2190 H 0.70751 0.04286 0.81293 0.0
H2191 H 0.70534 0.67052 0.77327 0.0
H2192 H 0.71005 0.06503 0.77578 0.0
H2193 H 0.67825 0.69359 0.80379 0.0
H2194 H 0.71197 0.80797 0.77484 0.0
H2195 H 0.70178 0.90599 0.81066 0.0
C2196 C 0.70705 0.01855 0.8043 0.0
C2197 C 0.7093 0.06503 0.79452 0.0
C2198 C 0.70454 0.78269 0.78114 0.0
C2199 C 0.70284 0.90866 0.79187 0.0
C2200 C 0.70083 0.70466 0.78027 0.0
C2201 C 0.69115 0.67132 0.78835 0.0
C2202 C 0.69889 0.82656 0.79036 0.0
C2203 C 0.68558 0.71754 0.79731 0.0
C2204 C 0.70367 0.94076 0.80301 0.0
C2205 C 0.70834 0.03092 0.78351 0.0
N2206 N 0.68964 0.79256 0.79814 0.0
N2207 N 0.70529 0.95447 0.78247 0.0
H2208 H 0.33674 0.45145 0.02399 0.0
H2209 H 0.38433 0.14799 0.03545 0.0
H2210 H 0.3733 0.59088 0.03569 0.0
H2211 H 0.41968 0.30759 0.02825 0.0
H2212 H 0.36647 0.25098 0.03249 0.0
H2213 H 0.35346 0.34209 0.02218 0.0
C2214 C 0.34826 0.45926 0.0262 0.0
C2215 C 0.35347 0.53028 0.03032 0.0
C2216 C 0.3781 0.26337 0.03129 0.0
C2217 C 0.37277 0.40456 0.02833 0.0
C2218 C 0.38836 0.20446 0.03306 0.0
C2219 C 0.40361 0.2192 0.03226 0.0
C2220 C 0.38309 0.33805 0.02875 0.0
C2221 C 0.40809 0.29374 0.02915 0.0
C2222 C 0.35782 0.39643 0.02521 0.0
C2223 C 0.36869 0.53711 0.03265 0.0
N2224 N 0.39791 0.35064 0.0277 0.0
N2225 N 0.37777 0.47498 0.0317 0.0
H2226 H 0.87097 0.07865 0.03324 0.0
H2227 H 0.88306 0.62806 0.02946 0.0
H2228 H 0.83576 0.92078 0.02483 0.0
H2229 H 0.91913 0.79026 0.02816 0.0
H2230 H 0.86562 0.73408 0.0269 0.0
H2231 H 0.88887 0.97497 0.03052 0.0
C2232 C 0.86697 0.02239 0.03071 0.0
C2233 C 0.85174 0.00818 0.02951 0.0
C2234 C 0.87737 0.74643 0.02699 0.0
C2235 C 0.87225 0.88866 0.0265 0.0
C2236 C 0.88735 0.68584 0.02846 0.0
C2237 C 0.90263 0.70011 0.0291 0.0
C2238 C 0.88265 0.82227 0.02636 0.0
C2239 C 0.90751 0.77625 0.02771 0.0
C2240 C 0.87723 0.96312 0.02916 0.0
C2241 C 0.84731 0.93409 0.02613 0.0
N2242 N 0.89755 0.83453 0.02659 0.0
N2243 N 0.85748 0.87692 0.02491 0.0
H2244 H 0.3578 0.69553 0.23338 0.0
H2245 H 0.41701 0.9527 0.22328 0.0
H2246 H 0.33721 0.82108 0.20544 0.0
H2247 H 0.38315 0.09928 0.20887 0.0
H2248 H 0.39837 0.85233 0.22627 0.0
H2249 H 0.37767 0.79195 0.23386 0.0
C2250 C 0.35747 0.74316 0.22734 0.0
C2251 C 0.34587 0.74967 0.21928 0.0
C2252 C 0.39496 0.907 0.22269 0.0
C2253 C 0.36858 0.85988 0.21971 0.0
C2254 C 0.40565 0.9643 0.2209 0.0
C2255 C 0.40171 0.03466 0.21576 0.0
C2256 C 0.38024 0.92013 0.21924 0.0
C2257 C 0.38678 0.04616 0.21284 0.0
C2258 C 0.36889 0.79787 0.22755 0.0
C2259 C 0.34598 0.8129 0.21171 0.0
N2260 N 0.37668 0.98934 0.21449 0.0
N2261 N 0.35707 0.86544 0.21215 0.0
H2262 H 0.83727 0.31528 0.21264 0.0
H2263 H 0.92205 0.44832 0.21592 0.0
H2264 H 0.87359 0.15484 0.21311 0.0
H2265 H 0.88618 0.59483 0.20499 0.0
H2266 H 0.90426 0.34368 0.21902 0.0
H2267 H 0.85484 0.42134 0.21415 0.0
C2268 C 0.84891 0.3022 0.2133 0.0
C2269 C 0.85389 0.22592 0.21272 0.0
C2270 C 0.9003 0.39901 0.21604 0.0
C2271 C 0.87423 0.3475 0.21431 0.0
C2272 C 0.91045 0.45875 0.21425 0.0
C2273 C 0.90569 0.53005 0.20993 0.0
C2274 C 0.88522 0.41116 0.21369 0.0
C2275 C 0.89044 0.54065 0.20817 0.0
C2276 C 0.85898 0.36291 0.21406 0.0
C2277 C 0.86922 0.21273 0.21346 0.0
N2278 N 0.88079 0.4819 0.21 0.0
N2279 N 0.87885 0.27288 0.21415 0.0
H2280 H 0.63644 0.3729 0.96633 0.0
H2281 H 0.5847 0.66845 0.97186 0.0
H2282 H 0.66943 0.55053 0.97002 0.0
H2283 H 0.621 0.81498 0.96172 0.0
H2284 H 0.6021 0.56317 0.97479 0.0
H2285 H 0.61714 0.47017 0.96803 0.0
C2286 C 0.63964 0.43218 0.96775 0.0
C2287 C 0.65463 0.4535 0.96786 0.0
C2288 C 0.60629 0.61798 0.97182 0.0
C2289 C 0.63249 0.566 0.96992 0.0
C2290 C 0.59631 0.67861 0.97022 0.0
C2291 C 0.60128 0.75058 0.96628 0.0
C2292 C 0.6214 0.62927 0.96947 0.0
C2293 C 0.61657 0.76044 0.96462 0.0
C2294 C 0.62856 0.48803 0.96876 0.0
C2295 C 0.65806 0.53143 0.96963 0.0
N2296 N 0.62604 0.7005 0.96616 0.0
N2297 N 0.6471 0.58476 0.97043 0.0
H2298 H 0.13314 0.8865 0.95676 0.0
H2299 H 0.12263 0.33558 0.96371 0.0
H2300 H 0.16905 0.03523 0.96692 0.0
H2301 H 0.08622 0.17516 0.96433 0.0
H2302 H 0.13985 0.22776 0.96566 0.0
H2303 H 0.11578 0.99115 0.96028 0.0
C2304 C 0.1374 0.94103 0.95983 0.0
C2305 C 0.15267 0.95247 0.9613 0.0
C2306 C 0.12807 0.21632 0.96555 0.0
C2307 C 0.13276 0.07342 0.96521 0.0
C2308 C 0.11821 0.27789 0.96443 0.0
C2309 C 0.10288 0.26467 0.96372 0.0
C2310 C 0.12261 0.14073 0.9658 0.0
C2311 C 0.09786 0.18853 0.96476 0.0
C2312 C 0.12744 0.00089 0.96185 0.0
C2313 C 0.15745 0.0243 0.96542 0.0
N2314 N 0.10768 0.12952 0.96556 0.0
N2315 N 0.14756 0.08249 0.96704 0.0
H2316 H 0.64535 0.34271 0.76842 0.0
H2317 H 0.6157 0.91644 0.77047 0.0
H2318 H 0.67156 0.16694 0.78497 0.0
H2319 H 0.58819 0.10087 0.78312 0.0
H2320 H 0.63676 0.00635 0.76968 0.0
H2321 H 0.62435 0.25242 0.76771 0.0
C2322 C 0.64674 0.28496 0.77176 0.0
C2323 C 0.66021 0.26222 0.77675 0.0
C2324 C 0.62603 0.02686 0.77251 0.0
C2325 C 0.63649 0.15888 0.77568 0.0
C2326 C 0.61403 0.97595 0.77291 0.0
C2327 C 0.60017 0.0013 0.77684 0.0
C2328 C 0.62399 0.104 0.77569 0.0
C2329 C 0.59866 0.07891 0.78002 0.0
C2330 C 0.63478 0.23385 0.77139 0.0
C2331 C 0.66139 0.18685 0.78105 0.0
N2332 N 0.61038 0.12775 0.77927 0.0
N2333 N 0.64973 0.13755 0.78032 0.0
H2334 H 0.12182 0.4061 0.78169 0.0
H2335 H 0.13081 0.86015 0.78075 0.0
H2336 H 0.08507 0.5621 0.77758 0.0
H2337 H 0.16777 0.70445 0.77795 0.0
H2338 H 0.11395 0.75208 0.77796 0.0
H2339 H 0.13885 0.51342 0.77874 0.0
C2340 C 0.11729 0.46267 0.78002 0.0
C2341 C 0.10191 0.47497 0.78008 0.0
C2342 C 0.12576 0.74158 0.77779 0.0
C2343 C 0.12145 0.59869 0.77681 0.0
C2344 C 0.13542 0.80341 0.77938 0.0
C2345 C 0.15079 0.79152 0.77974 0.0
C2346 C 0.13146 0.66679 0.77671 0.0
C2347 C 0.15607 0.71661 0.77783 0.0
C2348 C 0.12705 0.52405 0.77834 0.0
C2349 C 0.09677 0.54967 0.77778 0.0
N2350 N 0.14642 0.65699 0.77658 0.0
N2351 N 0.1065 0.60874 0.77641 0.0
H2352 H 0.42062 0.80237 0.52777 0.0
H2353 H 0.3359 0.93181 0.53304 0.0
H2354 H 0.38509 0.64892 0.53713 0.0
H2355 H 0.37237 0.09173 0.53422 0.0
H2356 H 0.3534 0.82676 0.53033 0.0
H2357 H 0.40272 0.90731 0.526 0.0
C2358 C 0.40908 0.79052 0.52939 0.0
C2359 C 0.40447 0.71698 0.5329 0.0
C2360 C 0.35757 0.88495 0.53106 0.0
C2361 C 0.38381 0.83658 0.53064 0.0
C2362 C 0.34754 0.94528 0.53256 0.0
C2363 C 0.3526 0.02106 0.53398 0.0
C2364 C 0.37282 0.90026 0.53088 0.0
C2365 C 0.36793 0.03427 0.53327 0.0
C2366 C 0.39884 0.85048 0.52835 0.0
C2367 C 0.38924 0.70475 0.53456 0.0
N2368 N 0.37749 0.97451 0.53183 0.0
N2369 N 0.37949 0.76394 0.53349 0.0
H2370 H 0.83676 0.43883 0.52911 0.0
H2371 H 0.92087 0.29558 0.52961 0.0
H2372 H 0.87355 0.5916 0.53513 0.0
H2373 H 0.88418 0.1534 0.54019 0.0
H2374 H 0.90359 0.40181 0.5261 0.0
H2375 H 0.8541 0.3312 0.52751 0.0
C2376 C 0.84846 0.44996 0.53001 0.0
C2377 C 0.85361 0.52408 0.53264 0.0
C2378 C 0.89935 0.34699 0.52908 0.0
C2379 C 0.87358 0.40151 0.53046 0.0
C2380 C 0.90921 0.28644 0.53112 0.0
C2381 C 0.90407 0.21611 0.53553 0.0
C2382 C 0.88417 0.33641 0.53115 0.0
C2383 C 0.88872 0.20692 0.53698 0.0
C2384 C 0.85835 0.38852 0.52905 0.0
C2385 C 0.869 0.53532 0.53329 0.0
N2386 N 0.87934 0.26641 0.53485 0.0
N2387 N 0.87843 0.47465 0.53231 0.0
H2388 H 0.33793 0.3123 0.72178 0.0
H2389 H 0.42328 0.43532 0.72081 0.0
H2390 H 0.37341 0.1526 0.71513 0.0
H2391 H 0.38757 0.5924 0.71351 0.0
H2392 H 0.40519 0.33199 0.72349 0.0
H2393 H 0.35611 0.41597 0.72355 0.0
C2394 C 0.34952 0.29883 0.72077 0.0
C2395 C 0.35406 0.22386 0.718 0.0
C2396 C 0.40133 0.38928 0.72139 0.0
C2397 C 0.37501 0.34201 0.72029 0.0
C2398 C 0.41166 0.44828 0.71982 0.0
C2399 C 0.40702 0.52231 0.71661 0.0
C2400 C 0.38619 0.40473 0.71998 0.0
C2401 C 0.39172 0.53608 0.71581 0.0
C2402 C 0.3599 0.35806 0.72181 0.0
C2403 C 0.36934 0.20961 0.71711 0.0
N2404 N 0.38187 0.47784 0.71742 0.0
N2405 N 0.37924 0.26815 0.71818 0.0
H2406 H 0.87153 0.65714 0.71481 0.0
H2407 H 0.88019 0.11092 0.71535 0.0
H2408 H 0.83453 0.81203 0.71843 0.0
H2409 H 0.91711 0.95628 0.71956 0.0
H2410 H 0.86328 0.00274 0.71793 0.0
H2411 H 0.88837 0.7649 0.71801 0.0
C2412 C 0.8669 0.71356 0.71643 0.0
C2413 C 0.85152 0.72544 0.71614 0.0
C2414 C 0.87508 0.99254 0.71846 0.0
C2415 C 0.87084 0.84968 0.71969 0.0
C2416 C 0.88477 0.05441 0.71699 0.0
C2417 C 0.90015 0.04281 0.7171 0.0
C2418 C 0.88078 0.91801 0.71989 0.0
C2419 C 0.90539 0.9682 0.71933 0.0
C2420 C 0.87655 0.77519 0.71825 0.0
C2421 C 0.84624 0.79995 0.71839 0.0
N2422 N 0.89574 0.90853 0.72045 0.0
N2423 N 0.85587 0.85932 0.71989 0.0
H2424 H 0.67196 0.04996 0.46711 0.0
H2425 H 0.587 0.17839 0.47018 0.0
H2426 H 0.63568 0.88927 0.4651 0.0
H2427 H 0.62272 0.33124 0.46104 0.0
H2428 H 0.60491 0.07383 0.47251 0.0
H2429 H 0.65427 0.15482 0.46919 0.0
C2430 C 0.66032 0.0363 0.46728 0.0
C2431 C 0.65538 0.96035 0.4658 0.0
C2432 C 0.60882 0.13046 0.47008 0.0
C2433 C 0.63494 0.0809 0.46819 0.0
C2434 C 0.59859 0.19016 0.46871 0.0
C2435 C 0.60326 0.26337 0.46511 0.0
C2436 C 0.62391 0.14436 0.46804 0.0
C2437 C 0.61853 0.27563 0.46368 0.0
C2438 C 0.65018 0.0965 0.46841 0.0
C2439 C 0.64004 0.94686 0.46611 0.0
N2440 N 0.62827 0.21673 0.46508 0.0
N2441 N 0.63037 0.0065 0.4672 0.0
H2442 H 0.08529 0.68596 0.46795 0.0
H2443 H 0.17088 0.56717 0.46737 0.0
H2444 H 0.12095 0.84658 0.46223 0.0
H2445 H 0.13512 0.40341 0.4651 0.0
H2446 H 0.15281 0.67066 0.46914 0.0
H2447 H 0.10343 0.58335 0.47052 0.0
C2448 C 0.09691 0.70007 0.46735 0.0
C2449 C 0.10153 0.77518 0.46471 0.0
C2450 C 0.14892 0.61199 0.46837 0.0
C2451 C 0.12245 0.65746 0.4677 0.0
C2452 C 0.15926 0.55259 0.46741 0.0
C2453 C 0.15458 0.47614 0.46597 0.0
C2454 C 0.13373 0.59508 0.46797 0.0
C2455 C 0.13929 0.46139 0.4661 0.0
C2456 C 0.10729 0.64121 0.4688 0.0
C2457 C 0.11682 0.78955 0.46415 0.0
N2458 N 0.12943 0.52024 0.467 0.0
N2459 N 0.1267 0.73128 0.46556 0.0
H2460 H 0.62401 0.39834 0.28245 0.0
H2461 H 0.63591 0.85219 0.28407 0.0
H2462 H 0.58818 0.56156 0.28017 0.0
H2463 H 0.67174 0.69025 0.28032 0.0
H2464 H 0.61827 0.74715 0.28145 0.0
H2465 H 0.64165 0.50405 0.28047 0.0
C2466 C 0.61981 0.45623 0.28139 0.0
C2467 C 0.60452 0.4708 0.28159 0.0
C2468 C 0.63 0.73466 0.28107 0.0
C2469 C 0.62474 0.59267 0.27944 0.0
C2470 C 0.64011 0.79474 0.28257 0.0
C2471 C 0.6554 0.78026 0.28254 0.0
C2472 C 0.63518 0.65907 0.27965 0.0
C2473 C 0.66012 0.70447 0.28048 0.0
C2474 C 0.62992 0.51668 0.28026 0.0
C2475 C 0.5998 0.5472 0.28012 0.0
N2476 N 0.65006 0.64672 0.27927 0.0
N2477 N 0.60986 0.6052 0.27925 0.0
H2478 H 0.17149 0.16797 0.29126 0.0
H2479 H 0.08947 0.04333 0.2749 0.0
H2480 H 0.14643 0.29442 0.26576 0.0
H2481 H 0.12205 0.88936 0.28939 0.0
H2482 H 0.109 0.14016 0.27212 0.0
H2483 H 0.15232 0.07019 0.29161 0.0
C2484 C 0.16195 0.17527 0.2857 0.0
C2485 C 0.16063 0.23971 0.27844 0.0
C2486 C 0.11184 0.08479 0.27579 0.0
C2487 C 0.13835 0.12734 0.27892 0.0
C2488 C 0.1007 0.02952 0.2774 0.0
C2489 C 0.10406 0.95812 0.28249 0.0
C2490 C 0.12636 0.06873 0.27942 0.0
C2491 C 0.11885 0.94349 0.2855 0.0
C2492 C 0.15099 0.11903 0.28588 0.0
C2493 C 0.14794 0.24554 0.27144 0.0
N2494 N 0.12936 -0.00161 0.28403 0.0
N2495 N 0.1372 0.19037 0.27192 0.0
loop_
_geom_bond_atom_site_label_1
_geom_bond_atom_site_label_2
_geom_bond_distance
_geom_bond_site_symmetry_2
_ccdc_geom_bond_type
C0 C1 1.351 . S
C0 N3 1.368 . S
C0 H5 0.931 . S
C1 C0 1.351 . S
C1 N2 1.373 . S
C1 H29 0.930 . S
N2 C1 1.373 . S
N2 C4 1.340 . S
N3 C0 1.368 . S
N3 C4 1.321 . S
N3 Co6 2.135 . S
C4 N2 1.340 . S
C4 N3 1.321 . S
C4 H28 0.930 . S
H5 C0 0.931 . S
Co6 N3 2.135 . S
Co6 N9 2.121 . S
Co6 O14 2.055 . S
Co6 O17 2.039 . S
Co6 N20 2.140 . S
C7 O8 1.227 . S
C7 O17 1.265 . S
O8 C7 1.227 . S
N9 Co6 2.121 . S
N9 C11 1.375 . S
N9 C12 1.313 . S
C10 C11 1.338 1_565 S
C10 N13 1.377 . S
C10 H30 0.930 . S
C11 N9 1.375 . S
C11 C10 1.338 1_545 S
C11 H15 0.931 . S
C12 N9 1.313 . S
C12 N13 1.344 1_545 S
C12 H16 0.930 . S
N13 C10 1.377 . S
N13 C12 1.344 1_565 S
O14 Co6 2.055 . S
O14 C18 1.253 . S
H15 C11 0.931 . S
H16 C12 0.930 . S
O17 Co6 2.039 . S
O17 C7 1.265 . S
C18 O14 1.253 . S
C18 O19 1.227 . S
O19 C18 1.227 . S
N20 Co6 2.140 . S
N20 C23 1.346 . S
N20 C24 1.345 . S
C21 C22 1.387 . S
C21 C25 1.391 . S
C22 C21 1.387 . S
C22 C23 1.369 . S
C22 H31 0.929 . S
C23 N20 1.346 . S
C23 C22 1.369 . S
C23 H26 0.928 . S
C24 N20 1.345 . S
C24 C25 1.371 . S
C24 H27 0.931 . S
C25 C21 1.391 . S
C25 C24 1.371 . S
C25 H32 0.930 . S
H26 C23 0.928 . S
H27 C24 0.931 . S
H28 C4 0.930 . S
H29 C1 0.930 . S
H30 C10 0.930 . S
H31 C22 0.929 . S
H32 C25 0.930 . S
C33 C34 1.351 . S
C33 N36 1.368 . S
C33 H38 0.931 . S
C34 C33 1.351 . S
C34 N35 1.373 . S
C34 H62 0.930 . S
N35 C34 1.373 . S
N35 C37 1.340 . S
N36 C33 1.368 . S
N36 C37 1.321 . S
N36 Co39 2.135 1_565 S
C37 N35 1.340 . S
C37 N36 1.321 . S
C37 H61 0.930 . S
H38 C33 0.931 . S
Co39 N36 2.135 1_545 S
Co39 N42 2.121 . S
Co39 O47 2.055 . S
Co39 O50 2.039 . S
Co39 N53 2.140 . S
C40 O41 1.224 1_545 S
C40 O50 1.265 . S
O41 C40 1.224 1_565 S
N42 Co39 2.121 . S
N42 C44 1.375 . S
N42 C45 1.313 . S
C43 C44 1.338 . S
C43 N46 1.377 . S
C43 H63 0.930 . S
C44 N42 1.375 . S
C44 C43 1.338 . S
C44 H48 0.931 . S
C45 N42 1.313 . S
C45 N46 1.344 . S
C45 H49 0.930 . S
N46 C43 1.377 . S
N46 C45 1.344 . S
O47 Co39 2.055 . S
O47 C51 1.253 . S
H48 C44 0.931 . S
H49 C45 0.930 . S
O50 Co39 2.039 . S
O50 C40 1.265 . S
C51 O47 1.253 . S
C51 O52 1.227 . S
O52 C51 1.227 . S
N53 Co39 2.140 . S
N53 C56 1.346 . S
N53 C57 1.345 . S
C54 C55 1.387 . S
C54 C58 1.391 . S
C55 C54 1.387 . S
C55 C56 1.369 . S
C55 H64 0.929 1_545 S
C56 N53 1.346 . S
C56 C55 1.369 . S
C56 H59 0.928 1_545 S
C57 N53 1.345 . S
C57 C58 1.371 . S
C57 H60 0.931 . S
C58 C54 1.391 . S
C58 C57 1.371 . S
C58 H65 0.930 . S
H59 C56 0.928 1_565 S
H60 C57 0.931 . S
H61 C37 0.930 . S
H62 C34 0.930 . S
H63 C43 0.930 . S
H64 C55 0.929 1_565 S
H65 C58 0.930 . S
C66 C67 1.351 . S
C66 N69 1.368 . S
C66 H71 0.931 . S
C67 C66 1.351 . S
C67 N68 1.373 . S
C67 H95 0.930 . S
N68 C67 1.373 . S
N68 C70 1.340 . S
N69 C66 1.368 . S
N69 C70 1.321 . S
N69 Co72 2.135 1_565 S
C70 N68 1.340 . S
C70 N69 1.321 . S
C70 H94 0.930 . S
H71 C66 0.931 . S
Co72 N69 2.135 1_545 S
Co72 N75 2.121 . S
Co72 O80 2.055 . S
Co72 O83 2.039 . S
Co72 N86 2.140 . S
C73 O74 1.224 1_545 S
C73 O83 1.265 . S
O74 C73 1.224 1_565 S
N75 Co72 2.121 . S
N75 C77 1.375 . S
N75 C78 1.313 . S
C76 C77 1.338 . S
C76 N79 1.377 . S
C76 H96 0.930 . S
C77 N75 1.375 . S
C77 C76 1.338 . S
C77 H81 0.931 . S
C78 N75 1.313 . S
C78 N79 1.344 . S
C78 H82 0.930 . S
N79 C76 1.377 . S
N79 C78 1.344 . S
O80 Co72 2.055 . S
O80 C84 1.253 . S
H81 C77 0.931 . S
H82 C78 0.930 . S
O83 Co72 2.039 . S
O83 C73 1.265 . S
C84 O80 1.253 . S
C84 O85 1.227 . S
O85 C84 1.227 . S
N86 Co72 2.140 . S
N86 C89 1.346 . S
N86 C90 1.345 . S
C87 C88 1.387 . S
C87 C91 1.391 . S
C88 C87 1.387 . S
C88 C89 1.369 . S
C88 H97 0.929 1_545 S
C89 N86 1.346 . S
C89 C88 1.369 . S
C89 H92 0.928 1_545 S
C90 N86 1.345 . S
C90 C91 1.371 . S
C90 H93 0.931 . S
C91 C87 1.391 . S
C91 C90 1.371 . S
C91 H98 0.930 . S
H92 C89 0.928 1_565 S
H93 C90 0.931 . S
H94 C70 0.930 . S
H95 C67 0.930 . S
H96 C76 0.930 . S
H97 C88 0.929 1_565 S
H98 C91 0.930 . S
C99 C100 1.351 . S
C99 N102 1.368 . S
C99 H104 0.931 . S
C100 C99 1.351 . S
C100 N101 1.373 . S
C100 H128 0.930 . S
N101 C100 1.373 . S
N101 C103 1.340 . S
N102 C99 1.368 . S
N102 C103 1.321 . S
N102 Co105 2.135 . S
C103 N101 1.340 . S
C103 N102 1.321 . S
C103 H127 0.930 . S
H104 C99 0.931 . S
Co105 N102 2.135 . S
Co105 N108 2.121 . S
Co105 O113 2.055 . S
Co105 O116 2.039 . S
Co105 N119 2.140 . S
C106 O107 1.227 . S
C106 O116 1.265 . S
O107 C106 1.227 . S
N108 Co105 2.121 . S
N108 C110 1.375 . S
N108 C111 1.313 . S
C109 C110 1.338 1_565 S
C109 N112 1.377 . S
C109 H129 0.930 . S
C110 N108 1.375 . S
C110 C109 1.338 1_545 S
C110 H114 0.931 . S
C111 N108 1.313 . S
C111 N112 1.344 1_545 S
C111 H115 0.930 . S
N112 C109 1.377 . S
N112 C111 1.344 1_565 S
O113 Co105 2.055 . S
O113 C117 1.253 . S
H114 C110 0.931 . S
H115 C111 0.930 . S
O116 Co105 2.039 . S
O116 C106 1.265 . S
C117 O113 1.253 . S
C117 O118 1.227 . S
O118 C117 1.227 . S
N119 Co105 2.140 . S
N119 C122 1.346 . S
N119 C123 1.345 . S
C120 C121 1.387 . S
C120 C124 1.391 . S
C121 C120 1.387 . S
C121 C122 1.369 . S
C121 H130 0.929 . S
C122 N119 1.346 . S
C122 C121 1.369 . S
C122 H125 0.928 . S
C123 N119 1.345 . S
C123 C124 1.371 . S
C123 H126 0.931 . S
C124 C120 1.391 . S
C124 C123 1.371 . S
C124 H131 0.930 . S
H125 C122 0.928 . S
H126 C123 0.931 . S
H127 C103 0.930 . S
H128 C100 0.930 . S
H129 C109 0.930 . S
H130 C121 0.929 . S
H131 C124 0.930 . S
C132 C133 1.351 . S
C132 N135 1.368 . S
C132 H137 0.931 . S
C133 C132 1.351 . S
C133 N134 1.373 . S
C133 H161 0.930 . S
N134 C133 1.373 . S
N134 C136 1.340 . S
N135 C132 1.368 . S
N135 C136 1.321 . S
N135 Co138 2.135 . S
C136 N134 1.340 . S
C136 N135 1.321 . S
C136 H160 0.930 . S
H137 C132 0.931 . S
Co138 N135 2.135 . S
Co138 N141 2.121 . S
Co138 O146 2.055 . S
Co138 O149 2.039 . S
Co138 N152 2.140 . S
C139 O140 1.227 . S
C139 O149 1.265 . S
O140 C139 1.227 . S
N141 Co138 2.121 . S
N141 C143 1.375 . S
N141 C144 1.313 . S
C142 C143 1.338 1_545 S
C142 N145 1.377 . S
C142 H162 0.930 . S
C143 N141 1.375 . S
C143 C142 1.338 1_565 S
C143 H147 0.931 . S
C144 N141 1.313 . S
C144 N145 1.344 1_565 S
C144 H148 0.930 . S
N145 C142 1.377 . S
N145 C144 1.344 1_545 S
O146 Co138 2.055 . S
O146 C150 1.253 . S
H147 C143 0.931 . S
H148 C144 0.930 . S
O149 Co138 2.039 . S
O149 C139 1.265 . S
C150 O146 1.253 . S
C150 O151 1.227 . S
O151 C150 1.227 . S
N152 Co138 2.140 . S
N152 C155 1.346 . S
N152 C156 1.345 . S
C153 C154 1.387 . S
C153 C157 1.391 . S
C154 C153 1.387 . S
C154 C155 1.369 . S
C154 H163 0.929 . S
C155 N152 1.346 . S
C155 C154 1.369 . S
C155 H158 0.928 . S
C156 N152 1.345 . S
C156 C157 1.371 . S
C156 H159 0.931 . S
C157 C153 1.391 . S
C157 C156 1.371 . S
C157 H164 0.930 . S
H158 C155 0.928 . S
H159 C156 0.931 . S
H160 C136 0.930 . S
H161 C133 0.930 . S
H162 C142 0.930 . S
H163 C154 0.929 . S
H164 C157 0.930 . S
C165 C166 1.351 . S
C165 N168 1.368 . S
C165 H170 0.931 . S
C166 C165 1.351 . S
C166 N167 1.373 . S
C166 H194 0.930 . S
N167 C166 1.373 . S
N167 C169 1.340 . S
N168 C165 1.368 . S
N168 C169 1.321 . S
N168 Co171 2.135 1_545 S
C169 N167 1.340 . S
C169 N168 1.321 . S
C169 H193 0.930 . S
H170 C165 0.931 . S
Co171 N168 2.135 1_565 S
Co171 N174 2.121 . S
Co171 O179 2.055 . S
Co171 O182 2.039 . S
Co171 N185 2.140 . S
C172 O173 1.224 1_565 S
C172 O182 1.265 . S
O173 C172 1.224 1_545 S
N174 Co171 2.121 . S
N174 C176 1.375 . S
N174 C177 1.313 . S
C175 C176 1.338 . S
C175 N178 1.377 . S
C175 H195 0.930 . S
C176 N174 1.375 . S
C176 C175 1.338 . S
C176 H180 0.931 . S
C177 N174 1.313 . S
C177 N178 1.344 . S
C177 H181 0.930 . S
N178 C175 1.377 . S
N178 C177 1.344 . S
O179 Co171 2.055 . S
O179 C183 1.253 . S
H180 C176 0.931 . S
H181 C177 0.930 . S
O182 Co171 2.039 . S
O182 C172 1.265 . S
C183 O179 1.253 . S
C183 O184 1.227 . S
O184 C183 1.227 . S
N185 Co171 2.140 . S
N185 C188 1.346 . S
N185 C189 1.345 . S
C186 C187 1.387 . S
C186 C190 1.391 . S
C187 C186 1.387 . S
C187 C188 1.369 . S
C187 H196 0.929 1_565 S
C188 N185 1.346 . S
C188 C187 1.369 . S
C188 H191 0.928 1_565 S
C189 N185 1.345 . S
C189 C190 1.371 . S
C189 H192 0.931 . S
C190 C186 1.391 . S
C190 C189 1.371 . S
C190 H197 0.930 . S
H191 C188 0.928 1_545 S
H192 C189 0.931 . S
H193 C169 0.930 . S
H194 C166 0.930 . S
H195 C175 0.930 . S
H196 C187 0.929 1_545 S
H197 C190 0.930 . S
C198 C199 1.351 . S
C198 N201 1.368 . S
C198 H203 0.931 . S
C199 C198 1.351 . S
C199 N200 1.373 . S
C199 H227 0.930 . S
N200 C199 1.373 . S
N200 C202 1.340 . S
N201 C198 1.368 . S
N201 C202 1.321 . S
N201 Co204 2.135 1_545 S
C202 N200 1.340 . S
C202 N201 1.321 . S
C202 H226 0.930 . S
H203 C198 0.931 . S
Co204 N201 2.135 1_565 S
Co204 N207 2.121 . S
Co204 O212 2.055 . S
Co204 O215 2.039 . S
Co204 N218 2.140 . S
C205 O206 1.224 1_565 S
C205 O215 1.265 . S
O206 C205 1.224 1_545 S
N207 Co204 2.121 . S
N207 C209 1.375 . S
N207 C210 1.313 . S
C208 C209 1.338 . S
C208 N211 1.377 . S
C208 H228 0.930 . S
C209 N207 1.375 . S
C209 C208 1.338 . S
C209 H213 0.931 . S
C210 N207 1.313 . S
C210 N211 1.344 . S
C210 H214 0.930 . S
N211 C208 1.377 . S
N211 C210 1.344 . S
O212 Co204 2.055 . S
O212 C216 1.253 . S
H213 C209 0.931 . S
H214 C210 0.930 . S
O215 Co204 2.039 . S
O215 C205 1.265 . S
C216 O212 1.253 . S
C216 O217 1.227 . S
O217 C216 1.227 . S
N218 Co204 2.140 . S
N218 C221 1.346 . S
N218 C222 1.345 . S
C219 C220 1.387 . S
C219 C223 1.391 . S
C220 C219 1.387 . S
C220 C221 1.369 . S
C220 H229 0.929 1_565 S
C221 N218 1.346 . S
C221 C220 1.369 . S
C221 H224 0.928 1_565 S
C222 N218 1.345 . S
C222 C223 1.371 . S
C222 H225 0.931 . S
C223 C219 1.391 . S
C223 C222 1.371 . S
C223 H230 0.930 . S
H224 C221 0.928 1_545 S
H225 C222 0.931 . S
H226 C202 0.930 . S
H227 C199 0.930 . S
H228 C208 0.930 . S
H229 C220 0.929 1_545 S
H230 C223 0.930 . S
C231 C232 1.351 . S
C231 N234 1.368 . S
C231 H236 0.931 . S
C232 C231 1.351 . S
C232 N233 1.373 . S
C232 H260 0.930 . S
N233 C232 1.373 . S
N233 C235 1.340 . S
N234 C231 1.368 . S
N234 C235 1.321 . S
N234 Co237 2.135 . S
C235 N233 1.340 . S
C235 N234 1.321 . S
C235 H259 0.930 . S
H236 C231 0.931 . S
Co237 N234 2.135 . S
Co237 N240 2.121 . S
Co237 O245 2.055 . S
Co237 O248 2.039 . S
Co237 N251 2.140 . S
C238 O239 1.227 . S
C238 O248 1.265 . S
O239 C238 1.227 . S
N240 Co237 2.121 . S
N240 C242 1.375 . S
N240 C243 1.313 . S
C241 C242 1.338 1_545 S
C241 N244 1.377 . S
C241 H261 0.930 . S
C242 N240 1.375 . S
C242 C241 1.338 1_565 S
C242 H246 0.931 . S
C243 N240 1.313 . S
C243 N244 1.344 1_565 S
C243 H247 0.930 . S
N244 C241 1.377 . S
N244 C243 1.344 1_545 S
O245 Co237 2.055 . S
O245 C249 1.253 . S
H246 C242 0.931 . S
H247 C243 0.930 . S
O248 Co237 2.039 . S
O248 C238 1.265 . S
C249 O245 1.253 . S
C249 O250 1.227 . S
O250 C249 1.227 . S
N251 Co237 2.140 . S
N251 C254 1.346 . S
N251 C255 1.345 . S
C252 C253 1.387 . S
C252 C256 1.391 . S
C253 C252 1.387 . S
C253 C254 1.369 . S
C253 H262 0.929 . S
C254 N251 1.346 . S
C254 C253 1.369 . S
C254 H257 0.928 . S
C255 N251 1.345 . S
C255 C256 1.371 . S
C255 H258 0.931 . S
C256 C252 1.391 . S
C256 C255 1.371 . S
C256 H263 0.930 . S
H257 C254 0.928 . S
H258 C255 0.931 . S
H259 C235 0.930 . S
H260 C232 0.930 . S
H261 C241 0.930 . S
H262 C253 0.929 . S
H263 C256 0.930 . S
C264 C265 1.351 . S
C264 N267 1.368 . S
C264 H269 0.931 . S
C265 C264 1.351 . S
C265 N266 1.373 . S
C265 H293 0.930 . S
N266 C265 1.373 . S
N266 C268 1.340 . S
N267 C264 1.368 . S
N267 C268 1.321 . S
N267 Co270 2.135 . S
C268 N266 1.340 . S
C268 N267 1.321 . S
C268 H292 0.930 . S
H269 C264 0.931 . S
Co270 N267 2.135 . S
Co270 N273 2.121 . S
Co270 O278 2.055 . S
Co270 O281 2.039 . S
Co270 N284 2.140 . S
C271 O272 1.227 . S
C271 O281 1.265 . S
O272 C271 1.227 . S
N273 Co270 2.121 . S
N273 C275 1.375 . S
N273 C276 1.313 . S
C274 C275 1.338 . S
C274 N277 1.377 . S
C274 H294 0.930 . S
C275 N273 1.375 . S
C275 C274 1.338 . S
C275 H279 0.931 . S
C276 N273 1.313 . S
C276 N277 1.344 . S
C276 H280 0.930 . S
N277 C274 1.377 . S
N277 C276 1.344 . S
O278 Co270 2.055 . S
O278 C282 1.253 . S
H279 C275 0.931 . S
H280 C276 0.930 . S
O281 Co270 2.039 . S
O281 C271 1.265 . S
C282 O278 1.253 . S
C282 O283 1.227 . S
O283 C282 1.227 . S
N284 Co270 2.140 . S
N284 C287 1.346 . S
N284 C288 1.345 . S
C285 C286 1.387 . S
C285 C289 1.391 . S
C286 C285 1.387 . S
C286 C287 1.369 . S
C286 H295 0.929 . S
C287 N284 1.346 . S
C287 C286 1.369 . S
C287 H290 0.928 . S
C288 N284 1.345 . S
C288 C289 1.371 . S
C288 H291 0.931 . S
C289 C285 1.391 . S
C289 C288 1.371 . S
C289 H296 0.930 . S
H290 C287 0.928 . S
H291 C288 0.931 . S
H292 C268 0.930 . S
H293 C265 0.930 . S
H294 C274 0.930 . S
H295 C286 0.929 . S
H296 C289 0.930 . S
C297 C298 1.351 . S
C297 N300 1.368 . S
C297 H302 0.931 . S
C298 C297 1.351 . S
C298 N299 1.373 . S
C298 H326 0.930 . S
N299 C298 1.373 . S
N299 C301 1.340 . S
N300 C297 1.368 . S
N300 C301 1.321 . S
N300 Co303 2.135 . S
C301 N299 1.340 . S
C301 N300 1.321 . S
C301 H325 0.930 . S
H302 C297 0.931 . S
Co303 N300 2.135 . S
Co303 N306 2.121 . S
Co303 O311 2.055 . S
Co303 O314 2.039 . S
Co303 N317 2.140 . S
C304 O305 1.227 . S
C304 O314 1.265 . S
O305 C304 1.227 . S
N306 Co303 2.121 . S
N306 C308 1.375 . S
N306 C309 1.313 . S
C307 C308 1.338 . S
C307 N310 1.377 . S
C307 H327 0.930 . S
C308 N306 1.375 . S
C308 C307 1.338 . S
C308 H312 0.931 . S
C309 N306 1.313 . S
C309 N310 1.344 . S
C309 H313 0.930 . S
N310 C307 1.377 . S
N310 C309 1.344 . S
O311 Co303 2.055 . S
O311 C315 1.253 . S
H312 C308 0.931 . S
H313 C309 0.930 . S
O314 Co303 2.039 . S
O314 C304 1.265 . S
C315 O311 1.253 . S
C315 O316 1.227 . S
O316 C315 1.227 . S
N317 Co303 2.140 . S
N317 C320 1.346 . S
N317 C321 1.345 . S
C318 C319 1.387 . S
C318 C322 1.391 . S
C319 C318 1.387 . S
C319 C320 1.369 . S
C319 H328 0.929 . S
C320 N317 1.346 . S
C320 C319 1.369 . S
C320 H323 0.928 . S
C321 N317 1.345 . S
C321 C322 1.371 . S
C321 H324 0.931 . S
C322 C318 1.391 . S
C322 C321 1.371 . S
C322 H329 0.930 . S
H323 C320 0.928 . S
H324 C321 0.931 . S
H325 C301 0.930 . S
H326 C298 0.930 . S
H327 C307 0.930 . S
H328 C319 0.929 . S
H329 C322 0.930 . S
C330 C331 1.351 . S
C330 N333 1.368 . S
C330 H335 0.931 . S
C331 C330 1.351 . S
C331 N332 1.373 . S
C331 H359 0.930 . S
N332 C331 1.373 . S
N332 C334 1.340 . S
N333 C330 1.368 . S
N333 C334 1.321 . S
N333 Co336 2.135 . S
C334 N332 1.340 . S
C334 N333 1.321 . S
C334 H358 0.930 . S
H335 C330 0.931 . S
Co336 N333 2.135 . S
Co336 N339 2.121 . S
Co336 O344 2.055 . S
Co336 O347 2.039 . S
Co336 N350 2.140 . S
C337 O338 1.227 . S
C337 O347 1.265 . S
O338 C337 1.227 . S
N339 Co336 2.121 . S
N339 C341 1.375 . S
N339 C342 1.313 . S
C340 C341 1.338 . S
C340 N343 1.377 . S
C340 H360 0.930 . S
C341 N339 1.375 . S
C341 C340 1.338 . S
C341 H345 0.931 . S
C342 N339 1.313 . S
C342 N343 1.344 . S
C342 H346 0.930 . S
N343 C340 1.377 . S
N343 C342 1.344 . S
O344 Co336 2.055 . S
O344 C348 1.253 . S
H345 C341 0.931 . S
H346 C342 0.930 . S
O347 Co336 2.039 . S
O347 C337 1.265 . S
C348 O344 1.253 . S
C348 O349 1.227 . S
O349 C348 1.227 . S
N350 Co336 2.140 . S
N350 C353 1.346 . S
N350 C354 1.345 . S
C351 C352 1.387 . S
C351 C355 1.391 . S
C352 C351 1.387 . S
C352 C353 1.369 . S
C352 H361 0.929 . S
C353 N350 1.346 . S
C353 C352 1.369 . S
C353 H356 0.928 . S
C354 N350 1.345 . S
C354 C355 1.371 . S
C354 H357 0.931 . S
C355 C351 1.391 . S
C355 C354 1.371 . S
C355 H362 0.930 . S
H356 C353 0.928 . S
H357 C354 0.931 . S
H358 C334 0.930 . S
H359 C331 0.930 . S
H360 C340 0.930 . S
H361 C352 0.929 . S
H362 C355 0.930 . S
C363 C364 1.351 . S
C363 N366 1.368 . S
C363 H368 0.931 . S
C364 C363 1.351 . S
C364 N365 1.373 . S
C364 H392 0.930 . S
N365 C364 1.373 . S
N365 C367 1.340 . S
N366 C363 1.368 . S
N366 C367 1.321 . S
N366 Co369 2.135 . S
C367 N365 1.340 . S
C367 N366 1.321 . S
C367 H391 0.930 . S
H368 C363 0.931 . S
Co369 N366 2.135 . S
Co369 N372 2.121 . S
Co369 O377 2.055 . S
Co369 O380 2.039 . S
Co369 N383 2.140 . S
C370 O371 1.227 . S
C370 O380 1.265 . S
O371 C370 1.227 . S
N372 Co369 2.121 . S
N372 C374 1.375 . S
N372 C375 1.313 . S
C373 C374 1.338 . S
C373 N376 1.377 . S
C373 H393 0.930 . S
C374 N372 1.375 . S
C374 C373 1.338 . S
C374 H378 0.931 . S
C375 N372 1.313 . S
C375 N376 1.344 . S
C375 H379 0.930 . S
N376 C373 1.377 . S
N376 C375 1.344 . S
O377 Co369 2.055 . S
O377 C381 1.253 . S
H378 C374 0.931 . S
H379 C375 0.930 . S
O380 Co369 2.039 . S
O380 C370 1.265 . S
C381 O377 1.253 . S
C381 O382 1.227 . S
O382 C381 1.227 . S
N383 Co369 2.140 . S
N383 C386 1.346 . S
N383 C387 1.345 . S
C384 C385 1.387 . S
C384 C388 1.391 . S
C385 C384 1.387 . S
C385 C386 1.369 . S
C385 H394 0.929 . S
C386 N383 1.346 . S
C386 C385 1.369 . S
C386 H389 0.928 . S
C387 N383 1.345 . S
C387 C388 1.371 . S
C387 H390 0.931 . S
C388 C384 1.391 . S
C388 C387 1.371 . S
C388 H395 0.930 . S
H389 C386 0.928 . S
H390 C387 0.931 . S
H391 C367 0.930 . S
H392 C364 0.930 . S
H393 C373 0.930 . S
H394 C385 0.929 . S
H395 C388 0.930 . S
C396 C397 1.351 . S
C396 N399 1.368 . S
C396 H401 0.931 . S
C397 C396 1.351 . S
C397 N398 1.373 . S
C397 H425 0.930 . S
N398 C397 1.373 . S
N398 C400 1.340 . S
N399 C396 1.368 . S
N399 C400 1.321 . S
N399 Co402 2.135 . S
C400 N398 1.340 . S
C400 N399 1.321 . S
C400 H424 0.930 . S
H401 C396 0.931 . S
Co402 N399 2.135 . S
Co402 N405 2.121 . S
Co402 O410 2.055 . S
Co402 O413 2.039 . S
Co402 N416 2.140 . S
C403 O404 1.227 . S
C403 O413 1.265 . S
O404 C403 1.227 . S
N405 Co402 2.121 . S
N405 C407 1.375 . S
N405 C408 1.313 . S
C406 C407 1.338 . S
C406 N409 1.377 . S
C406 H426 0.930 . S
C407 N405 1.375 . S
C407 C406 1.338 . S
C407 H411 0.931 . S
C408 N405 1.313 . S
C408 N409 1.344 . S
C408 H412 0.930 . S
N409 C406 1.377 . S
N409 C408 1.344 . S
O410 Co402 2.055 . S
O410 C414 1.253 . S
H411 C407 0.931 . S
H412 C408 0.930 . S
O413 Co402 2.039 . S
O413 C403 1.265 . S
C414 O410 1.253 . S
C414 O415 1.227 . S
O415 C414 1.227 . S
N416 Co402 2.140 . S
N416 C419 1.346 . S
N416 C420 1.345 . S
C417 C418 1.387 . S
C417 C421 1.391 . S
C418 C417 1.387 . S
C418 C419 1.369 . S
C418 H427 0.929 . S
C419 N416 1.346 . S
C419 C418 1.369 . S
C419 H422 0.928 . S
C420 N416 1.345 . S
C420 C421 1.371 . S
C420 H423 0.931 . S
C421 C417 1.391 . S
C421 C420 1.371 . S
C421 H428 0.930 . S
H422 C419 0.928 . S
H423 C420 0.931 . S
H424 C400 0.930 . S
H425 C397 0.930 . S
H426 C406 0.930 . S
H427 C418 0.929 . S
H428 C421 0.930 . S
C429 C430 1.351 . S
C429 N432 1.368 . S
C429 H434 0.931 . S
C430 C429 1.351 . S
C430 N431 1.373 . S
C430 H458 0.930 . S
N431 C430 1.373 . S
N431 C433 1.340 . S
N432 C429 1.368 . S
N432 C433 1.321 . S
N432 Co435 2.135 . S
C433 N431 1.340 . S
C433 N432 1.321 . S
C433 H457 0.930 . S
H434 C429 0.931 . S
Co435 N432 2.135 . S
Co435 N438 2.121 . S
Co435 O443 2.055 . S
Co435 O446 2.039 . S
Co435 N449 2.140 . S
C436 O437 1.227 . S
C436 O446 1.265 . S
O437 C436 1.227 . S
N438 Co435 2.121 . S
N438 C440 1.375 . S
N438 C441 1.313 . S
C439 C440 1.338 . S
C439 N442 1.377 . S
C439 H459 0.930 . S
C440 N438 1.375 . S
C440 C439 1.338 . S
C440 H444 0.931 . S
C441 N438 1.313 . S
C441 N442 1.344 . S
C441 H445 0.930 . S
N442 C439 1.377 . S
N442 C441 1.344 . S
O443 Co435 2.055 . S
O443 C447 1.253 . S
H444 C440 0.931 . S
H445 C441 0.930 . S
O446 Co435 2.039 . S
O446 C436 1.265 . S
C447 O443 1.253 . S
C447 O448 1.227 . S
O448 C447 1.227 . S
N449 Co435 2.140 . S
N449 C452 1.346 . S
N449 C453 1.345 . S
C450 C451 1.387 . S
C450 C454 1.391 . S
C451 C450 1.387 . S
C451 C452 1.369 . S
C451 H460 0.929 . S
C452 N449 1.346 . S
C452 C451 1.369 . S
C452 H455 0.928 . S
C453 N449 1.345 . S
C453 C454 1.371 . S
C453 H456 0.931 . S
C454 C450 1.391 . S
C454 C453 1.371 . S
C454 H461 0.930 . S
H455 C452 0.928 . S
H456 C453 0.931 . S
H457 C433 0.930 . S
H458 C430 0.930 . S
H459 C439 0.930 . S
H460 C451 0.929 . S
H461 C454 0.930 . S
C462 C463 1.351 . S
C462 N465 1.368 . S
C462 H467 0.931 . S
C463 C462 1.351 . S
C463 N464 1.373 . S
C463 H491 0.930 . S
N464 C463 1.373 . S
N464 C466 1.340 . S
N465 C462 1.368 . S
N465 C466 1.321 . S
N465 Co468 2.135 . S
C466 N464 1.340 . S
C466 N465 1.321 . S
C466 H490 0.930 . S
H467 C462 0.931 . S
Co468 N465 2.135 . S
Co468 N471 2.121 . S
Co468 O476 2.055 . S
Co468 O479 2.039 . S
Co468 N482 2.140 . S
C469 O470 1.227 . S
C469 O479 1.265 . S
O470 C469 1.227 . S
N471 Co468 2.121 . S
N471 C473 1.375 . S
N471 C474 1.313 . S
C472 C473 1.338 . S
C472 N475 1.377 . S
C472 H492 0.930 . S
C473 N471 1.375 . S
C473 C472 1.338 . S
C473 H477 0.931 . S
C474 N471 1.313 . S
C474 N475 1.344 . S
C474 H478 0.930 . S
N475 C472 1.377 . S
N475 C474 1.344 . S
O476 Co468 2.055 . S
O476 C480 1.253 . S
H477 C473 0.931 . S
H478 C474 0.930 . S
O479 Co468 2.039 . S
O479 C469 1.265 . S
C480 O476 1.253 . S
C480 O481 1.227 . S
O481 C480 1.227 . S
N482 Co468 2.140 . S
N482 C485 1.346 . S
N482 C486 1.345 . S
C483 C484 1.387 . S
C483 C487 1.391 . S
C484 C483 1.387 . S
C484 C485 1.369 . S
C484 H493 0.929 . S
C485 N482 1.346 . S
C485 C484 1.369 . S
C485 H488 0.928 . S
C486 N482 1.345 . S
C486 C487 1.371 . S
C486 H489 0.931 . S
C487 C483 1.391 . S
C487 C486 1.371 . S
C487 H494 0.930 . S
H488 C485 0.928 . S
H489 C486 0.931 . S
H490 C466 0.930 . S
H491 C463 0.930 . S
H492 C472 0.930 . S
H493 C484 0.929 . S
H494 C487 0.930 . S
C495 C496 1.351 . S
C495 N498 1.368 . S
C495 H500 0.931 . S
C496 C495 1.351 . S
C496 N497 1.373 . S
C496 H524 0.930 . S
N497 C496 1.373 . S
N497 C499 1.340 . S
N498 C495 1.368 . S
N498 C499 1.321 . S
N498 Co501 2.135 . S
C499 N497 1.340 . S
C499 N498 1.321 . S
C499 H523 0.930 . S
H500 C495 0.931 . S
Co501 N498 2.135 . S
Co501 N504 2.121 . S
Co501 O509 2.055 . S
Co501 O512 2.039 . S
Co501 N515 2.140 . S
C502 O503 1.227 . S
C502 O512 1.265 . S
O503 C502 1.227 . S
N504 Co501 2.121 . S
N504 C506 1.375 . S
N504 C507 1.313 . S
C505 C506 1.338 . S
C505 N508 1.377 . S
C505 H525 0.930 . S
C506 N504 1.375 . S
C506 C505 1.338 . S
C506 H510 0.931 . S
C507 N504 1.313 . S
C507 N508 1.344 . S
C507 H511 0.930 . S
N508 C505 1.377 . S
N508 C507 1.344 . S
O509 Co501 2.055 . S
O509 C513 1.253 . S
H510 C506 0.931 . S
H511 C507 0.930 . S
O512 Co501 2.039 . S
O512 C502 1.265 . S
C513 O509 1.253 . S
C513 O514 1.227 . S
O514 C513 1.227 . S
N515 Co501 2.140 . S
N515 C518 1.346 . S
N515 C519 1.345 . S
C516 C517 1.387 . S
C516 C520 1.391 . S
C517 C516 1.387 . S
C517 C518 1.369 . S
C517 H526 0.929 . S
C518 N515 1.346 . S
C518 C517 1.369 . S
C518 H521 0.928 . S
C519 N515 1.345 . S
C519 C520 1.371 . S
C519 H522 0.931 . S
C520 C516 1.391 . S
C520 C519 1.371 . S
C520 H527 0.930 . S
H521 C518 0.928 . S
H522 C519 0.931 . S
H523 C499 0.930 . S
H524 C496 0.930 . S
H525 C505 0.930 . S
H526 C517 0.929 . S
H527 C520 0.930 . S
C528 C529 1.351 . S
C528 N531 1.368 . S
C528 H533 0.931 . S
C529 C528 1.351 . S
C529 N530 1.373 . S
C529 H557 0.930 . S
N530 C529 1.373 . S
N530 C532 1.340 . S
N531 C528 1.368 . S
N531 C532 1.321 . S
N531 Co534 2.135 . S
C532 N530 1.340 . S
C532 N531 1.321 . S
C532 H556 0.930 . S
H533 C528 0.931 . S
Co534 N531 2.135 . S
Co534 N537 2.121 . S
Co534 O542 2.055 . S
Co534 O545 2.039 . S
Co534 N548 2.140 . S
C535 O536 1.227 . S
C535 O545 1.265 . S
O536 C535 1.227 . S
N537 Co534 2.121 . S
N537 C539 1.375 . S
N537 C540 1.313 . S
C538 C539 1.338 1_565 S
C538 N541 1.377 . S
C538 H558 0.930 . S
C539 N537 1.375 . S
C539 C538 1.338 1_545 S
C539 H543 0.931 . S
C540 N537 1.313 . S
C540 N541 1.344 1_545 S
C540 H544 0.930 . S
N541 C538 1.377 . S
N541 C540 1.344 1_565 S
O542 Co534 2.055 . S
O542 C546 1.253 . S
H543 C539 0.931 . S
H544 C540 0.930 . S
O545 Co534 2.039 . S
O545 C535 1.265 . S
C546 O542 1.253 . S
C546 O547 1.227 . S
O547 C546 1.227 . S
N548 Co534 2.140 . S
N548 C551 1.346 . S
N548 C552 1.345 . S
C549 C550 1.387 . S
C549 C553 1.391 . S
C550 C549 1.387 . S
C550 C551 1.369 . S
C550 H559 0.929 . S
C551 N548 1.346 . S
C551 C550 1.369 . S
C551 H554 0.928 . S
C552 N548 1.345 . S
C552 C553 1.371 . S
C552 H555 0.931 . S
C553 C549 1.391 . S
C553 C552 1.371 . S
C553 H560 0.930 . S
H554 C551 0.928 . S
H555 C552 0.931 . S
H556 C532 0.930 . S
H557 C529 0.930 . S
H558 C538 0.930 . S
H559 C550 0.929 . S
H560 C553 0.930 . S
C561 C562 1.351 . S
C561 N564 1.368 . S
C561 H566 0.931 . S
C562 C561 1.351 . S
C562 N563 1.373 . S
C562 H590 0.930 . S
N563 C562 1.373 . S
N563 C565 1.340 . S
N564 C561 1.368 . S
N564 C565 1.321 . S
N564 Co567 2.135 1_565 S
C565 N563 1.340 . S
C565 N564 1.321 . S
C565 H589 0.930 . S
H566 C561 0.931 . S
Co567 N564 2.135 1_545 S
Co567 N570 2.121 . S
Co567 O575 2.055 . S
Co567 O578 2.039 . S
Co567 N581 2.140 . S
C568 O569 1.224 1_545 S
C568 O578 1.265 . S
O569 C568 1.224 1_565 S
N570 Co567 2.121 . S
N570 C572 1.375 . S
N570 C573 1.313 . S
C571 C572 1.338 . S
C571 N574 1.377 . S
C571 H591 0.930 . S
C572 N570 1.375 . S
C572 C571 1.338 . S
C572 H576 0.931 . S
C573 N570 1.313 . S
C573 N574 1.344 . S
C573 H577 0.930 . S
N574 C571 1.377 . S
N574 C573 1.344 . S
O575 Co567 2.055 . S
O575 C579 1.253 . S
H576 C572 0.931 . S
H577 C573 0.930 . S
O578 Co567 2.039 . S
O578 C568 1.265 . S
C579 O575 1.253 . S
C579 O580 1.227 . S
O580 C579 1.227 . S
N581 Co567 2.140 . S
N581 C584 1.346 . S
N581 C585 1.345 . S
C582 C583 1.387 . S
C582 C586 1.391 . S
C583 C582 1.387 . S
C583 C584 1.369 . S
C583 H592 0.929 1_545 S
C584 N581 1.346 . S
C584 C583 1.369 . S
C584 H587 0.928 1_545 S
C585 N581 1.345 . S
C585 C586 1.371 . S
C585 H588 0.931 . S
C586 C582 1.391 . S
C586 C585 1.371 . S
C586 H593 0.930 . S
H587 C584 0.928 1_565 S
H588 C585 0.931 . S
H589 C565 0.930 . S
H590 C562 0.930 . S
H591 C571 0.930 . S
H592 C583 0.929 1_565 S
H593 C586 0.930 . S
C594 C595 1.351 . S
C594 N597 1.368 . S
C594 H599 0.931 . S
C595 C594 1.351 . S
C595 N596 1.373 . S
C595 H623 0.930 . S
N596 C595 1.373 . S
N596 C598 1.340 . S
N597 C594 1.368 . S
N597 C598 1.321 . S
N597 Co600 2.135 1_565 S
C598 N596 1.340 . S
C598 N597 1.321 . S
C598 H622 0.930 . S
H599 C594 0.931 . S
Co600 N597 2.135 1_545 S
Co600 N603 2.121 . S
Co600 O608 2.055 . S
Co600 O611 2.039 . S
Co600 N614 2.140 . S
C601 O602 1.224 1_545 S
C601 O611 1.265 . S
O602 C601 1.224 1_565 S
N603 Co600 2.121 . S
N603 C605 1.375 . S
N603 C606 1.313 . S
C604 C605 1.338 . S
C604 N607 1.377 . S
C604 H624 0.930 . S
C605 N603 1.375 . S
C605 C604 1.338 . S
C605 H609 0.931 . S
C606 N603 1.313 . S
C606 N607 1.344 . S
C606 H610 0.930 . S
N607 C604 1.377 . S
N607 C606 1.344 . S
O608 Co600 2.055 . S
O608 C612 1.253 . S
H609 C605 0.931 . S
H610 C606 0.930 . S
O611 Co600 2.039 . S
O611 C601 1.265 . S
C612 O608 1.253 . S
C612 O613 1.227 . S
O613 C612 1.227 . S
N614 Co600 2.140 . S
N614 C617 1.346 . S
N614 C618 1.345 . S
C615 C616 1.387 . S
C615 C619 1.391 . S
C616 C615 1.387 . S
C616 C617 1.369 . S
C616 H625 0.929 1_545 S
C617 N614 1.346 . S
C617 C616 1.369 . S
C617 H620 0.928 1_545 S
C618 N614 1.345 . S
C618 C619 1.371 . S
C618 H621 0.931 . S
C619 C615 1.391 . S
C619 C618 1.371 . S
C619 H626 0.930 . S
H620 C617 0.928 1_565 S
H621 C618 0.931 . S
H622 C598 0.930 . S
H623 C595 0.930 . S
H624 C604 0.930 . S
H625 C616 0.929 1_565 S
H626 C619 0.930 . S
C627 C628 1.351 . S
C627 N630 1.368 . S
C627 H632 0.931 . S
C628 C627 1.351 . S
C628 N629 1.373 . S
C628 H656 0.930 . S
N629 C628 1.373 . S
N629 C631 1.340 . S
N630 C627 1.368 . S
N630 C631 1.321 . S
N630 Co633 2.135 . S
C631 N629 1.340 . S
C631 N630 1.321 . S
C631 H655 0.930 . S
H632 C627 0.931 . S
Co633 N630 2.135 . S
Co633 N636 2.121 . S
Co633 O641 2.055 . S
Co633 O644 2.039 . S
Co633 N647 2.140 . S
C634 O635 1.227 . S
C634 O644 1.265 . S
O635 C634 1.227 . S
N636 Co633 2.121 . S
N636 C638 1.375 . S
N636 C639 1.313 . S
C637 C638 1.338 1_565 S
C637 N640 1.377 . S
C637 H657 0.930 . S
C638 N636 1.375 . S
C638 C637 1.338 1_545 S
C638 H642 0.931 . S
C639 N636 1.313 . S
C639 N640 1.344 1_545 S
C639 H643 0.930 . S
N640 C637 1.377 . S
N640 C639 1.344 1_565 S
O641 Co633 2.055 . S
O641 C645 1.253 . S
H642 C638 0.931 . S
H643 C639 0.930 . S
O644 Co633 2.039 . S
O644 C634 1.265 . S
C645 O641 1.253 . S
C645 O646 1.227 . S
O646 C645 1.227 . S
N647 Co633 2.140 . S
N647 C650 1.346 . S
N647 C651 1.345 . S
C648 C649 1.387 . S
C648 C652 1.391 . S
C649 C648 1.387 . S
C649 C650 1.369 . S
C649 H658 0.929 . S
C650 N647 1.346 . S
C650 C649 1.369 . S
C650 H653 0.928 . S
C651 N647 1.345 . S
C651 C652 1.371 . S
C651 H654 0.931 . S
C652 C648 1.391 . S
C652 C651 1.371 . S
C652 H659 0.930 . S
H653 C650 0.928 . S
H654 C651 0.931 . S
H655 C631 0.930 . S
H656 C628 0.930 . S
H657 C637 0.930 . S
H658 C649 0.929 . S
H659 C652 0.930 . S
C660 C661 1.351 . S
C660 N663 1.368 . S
C660 H665 0.931 . S
C661 C660 1.351 . S
C661 N662 1.373 . S
C661 H689 0.930 . S
N662 C661 1.373 . S
N662 C664 1.340 . S
N663 C660 1.368 . S
N663 C664 1.321 . S
N663 Co666 2.135 . S
C664 N662 1.340 . S
C664 N663 1.321 . S
C664 H688 0.930 . S
H665 C660 0.931 . S
Co666 N663 2.135 . S
Co666 N669 2.121 . S
Co666 O674 2.055 . S
Co666 O677 2.039 . S
Co666 N680 2.140 . S
C667 O668 1.227 . S
C667 O677 1.265 . S
O668 C667 1.227 . S
N669 Co666 2.121 . S
N669 C671 1.375 . S
N669 C672 1.313 . S
C670 C671 1.338 1_545 S
C670 N673 1.377 . S
C670 H690 0.930 . S
C671 N669 1.375 . S
C671 C670 1.338 1_565 S
C671 H675 0.931 . S
C672 N669 1.313 . S
C672 N673 1.344 1_565 S
C672 H676 0.930 . S
N673 C670 1.377 . S
N673 C672 1.344 1_545 S
O674 Co666 2.055 . S
O674 C678 1.253 . S
H675 C671 0.931 . S
H676 C672 0.930 . S
O677 Co666 2.039 . S
O677 C667 1.265 . S
C678 O674 1.253 . S
C678 O679 1.227 . S
O679 C678 1.227 . S
N680 Co666 2.140 . S
N680 C683 1.346 . S
N680 C684 1.345 . S
C681 C682 1.387 . S
C681 C685 1.391 . S
C682 C681 1.387 . S
C682 C683 1.369 . S
C682 H691 0.929 . S
C683 N680 1.346 . S
C683 C682 1.369 . S
C683 H686 0.928 . S
C684 N680 1.345 . S
C684 C685 1.371 . S
C684 H687 0.931 . S
C685 C681 1.391 . S
C685 C684 1.371 . S
C685 H692 0.930 . S
H686 C683 0.928 . S
H687 C684 0.931 . S
H688 C664 0.930 . S
H689 C661 0.930 . S
H690 C670 0.930 . S
H691 C682 0.929 . S
H692 C685 0.930 . S
C693 C694 1.351 . S
C693 N696 1.368 . S
C693 H698 0.931 . S
C694 C693 1.351 . S
C694 N695 1.373 . S
C694 H722 0.930 . S
N695 C694 1.373 . S
N695 C697 1.340 . S
N696 C693 1.368 . S
N696 C697 1.321 . S
N696 Co699 2.135 1_545 S
C697 N695 1.340 . S
C697 N696 1.321 . S
C697 H721 0.930 . S
H698 C693 0.931 . S
Co699 N696 2.135 1_565 S
Co699 N702 2.121 . S
Co699 O707 2.055 . S
Co699 O710 2.039 . S
Co699 N713 2.140 . S
C700 O701 1.224 1_565 S
C700 O710 1.265 . S
O701 C700 1.224 1_545 S
N702 Co699 2.121 . S
N702 C704 1.375 . S
N702 C705 1.313 . S
C703 C704 1.338 . S
C703 N706 1.377 . S
C703 H723 0.930 . S
C704 N702 1.375 . S
C704 C703 1.338 . S
C704 H708 0.931 . S
C705 N702 1.313 . S
C705 N706 1.344 . S
C705 H709 0.930 . S
N706 C703 1.377 . S
N706 C705 1.344 . S
O707 Co699 2.055 . S
O707 C711 1.253 . S
H708 C704 0.931 . S
H709 C705 0.930 . S
O710 Co699 2.039 . S
O710 C700 1.265 . S
C711 O707 1.253 . S
C711 O712 1.227 . S
O712 C711 1.227 . S
N713 Co699 2.140 . S
N713 C716 1.346 . S
N713 C717 1.345 . S
C714 C715 1.387 . S
C714 C718 1.391 . S
C715 C714 1.387 . S
C715 C716 1.369 . S
C715 H724 0.929 1_565 S
C716 N713 1.346 . S
C716 C715 1.369 . S
C716 H719 0.928 1_565 S
C717 N713 1.345 . S
C717 C718 1.371 . S
C717 H720 0.931 . S
C718 C714 1.391 . S
C718 C717 1.371 . S
C718 H725 0.930 . S
H719 C716 0.928 1_545 S
H720 C717 0.931 . S
H721 C697 0.930 . S
H722 C694 0.930 . S
H723 C703 0.930 . S
H724 C715 0.929 1_545 S
H725 C718 0.930 . S
C726 C727 1.351 . S
C726 N729 1.368 . S
C726 H731 0.931 . S
C727 C726 1.351 . S
C727 N728 1.373 . S
C727 H755 0.930 . S
N728 C727 1.373 . S
N728 C730 1.340 . S
N729 C726 1.368 . S
N729 C730 1.321 . S
N729 Co732 2.135 1_545 S
C730 N728 1.340 . S
C730 N729 1.321 . S
C730 H754 0.930 . S
H731 C726 0.931 . S
Co732 N729 2.135 1_565 S
Co732 N735 2.121 . S
Co732 O740 2.055 . S
Co732 O743 2.039 . S
Co732 N746 2.140 . S
C733 O734 1.224 1_565 S
C733 O743 1.265 . S
O734 C733 1.224 1_545 S
N735 Co732 2.121 . S
N735 C737 1.375 . S
N735 C738 1.313 . S
C736 C737 1.338 . S
C736 N739 1.377 . S
C736 H756 0.930 . S
C737 N735 1.375 . S
C737 C736 1.338 . S
C737 H741 0.931 . S
C738 N735 1.313 . S
C738 N739 1.344 . S
C738 H742 0.930 . S
N739 C736 1.377 . S
N739 C738 1.344 . S
O740 Co732 2.055 . S
O740 C744 1.253 . S
H741 C737 0.931 . S
H742 C738 0.930 . S
O743 Co732 2.039 . S
O743 C733 1.265 . S
C744 O740 1.253 . S
C744 O745 1.227 . S
O745 C744 1.227 . S
N746 Co732 2.140 . S
N746 C749 1.346 . S
N746 C750 1.345 . S
C747 C748 1.387 . S
C747 C751 1.391 . S
C748 C747 1.387 . S
C748 C749 1.369 . S
C748 H757 0.929 1_565 S
C749 N746 1.346 . S
C749 C748 1.369 . S
C749 H752 0.928 1_565 S
C750 N746 1.345 . S
C750 C751 1.371 . S
C750 H753 0.931 . S
C751 C747 1.391 . S
C751 C750 1.371 . S
C751 H758 0.930 . S
H752 C749 0.928 1_545 S
H753 C750 0.931 . S
H754 C730 0.930 . S
H755 C727 0.930 . S
H756 C736 0.930 . S
H757 C748 0.929 1_545 S
H758 C751 0.930 . S
C759 C760 1.351 . S
C759 N762 1.368 . S
C759 H764 0.931 . S
C760 C759 1.351 . S
C760 N761 1.373 . S
C760 H788 0.930 . S
N761 C760 1.373 . S
N761 C763 1.340 . S
N762 C759 1.368 . S
N762 C763 1.321 . S
N762 Co765 2.135 . S
C763 N761 1.340 . S
C763 N762 1.321 . S
C763 H787 0.930 . S
H764 C759 0.931 . S
Co765 N762 2.135 . S
Co765 N768 2.121 . S
Co765 O773 2.055 . S
Co765 O776 2.039 . S
Co765 N779 2.140 . S
C766 O767 1.227 . S
C766 O776 1.265 . S
O767 C766 1.227 . S
N768 Co765 2.121 . S
N768 C770 1.375 . S
N768 C771 1.313 . S
C769 C770 1.338 1_545 S
C769 N772 1.377 . S
C769 H789 0.930 . S
C770 N768 1.375 . S
C770 C769 1.338 1_565 S
C770 H774 0.931 . S
C771 N768 1.313 . S
C771 N772 1.344 1_565 S
C771 H775 0.930 . S
N772 C769 1.377 . S
N772 C771 1.344 1_545 S
O773 Co765 2.055 . S
O773 C777 1.253 . S
H774 C770 0.931 . S
H775 C771 0.930 . S
O776 Co765 2.039 . S
O776 C766 1.265 . S
C777 O773 1.253 . S
C777 O778 1.227 . S
O778 C777 1.227 . S
N779 Co765 2.140 . S
N779 C782 1.346 . S
N779 C783 1.345 . S
C780 C781 1.387 . S
C780 C784 1.391 . S
C781 C780 1.387 . S
C781 C782 1.369 . S
C781 H790 0.929 . S
C782 N779 1.346 . S
C782 C781 1.369 . S
C782 H785 0.928 . S
C783 N779 1.345 . S
C783 C784 1.371 . S
C783 H786 0.931 . S
C784 C780 1.391 . S
C784 C783 1.371 . S
C784 H791 0.930 . S
H785 C782 0.928 . S
H786 C783 0.931 . S
H787 C763 0.930 . S
H788 C760 0.930 . S
H789 C769 0.930 . S
H790 C781 0.929 . S
H791 C784 0.930 . S
C792 C793 1.351 . S
C792 N795 1.368 . S
C792 H797 0.931 . S
C793 C792 1.351 . S
C793 N794 1.373 . S
C793 H821 0.930 . S
N794 C793 1.373 . S
N794 C796 1.340 . S
N795 C792 1.368 . S
N795 C796 1.321 . S
N795 Co798 2.135 . S
C796 N794 1.340 . S
C796 N795 1.321 . S
C796 H820 0.930 . S
H797 C792 0.931 . S
Co798 N795 2.135 . S
Co798 N801 2.121 . S
Co798 O806 2.055 . S
Co798 O809 2.039 . S
Co798 N812 2.140 . S
C799 O800 1.227 . S
C799 O809 1.265 . S
O800 C799 1.227 . S
N801 Co798 2.121 . S
N801 C803 1.375 . S
N801 C804 1.313 . S
C802 C803 1.338 . S
C802 N805 1.377 . S
C802 H822 0.930 . S
C803 N801 1.375 . S
C803 C802 1.338 . S
C803 H807 0.931 . S
C804 N801 1.313 . S
C804 N805 1.344 . S
C804 H808 0.930 . S
N805 C802 1.377 . S
N805 C804 1.344 . S
O806 Co798 2.055 . S
O806 C810 1.253 . S
H807 C803 0.931 . S
H808 C804 0.930 . S
O809 Co798 2.039 . S
O809 C799 1.265 . S
C810 O806 1.253 . S
C810 O811 1.227 . S
O811 C810 1.227 . S
N812 Co798 2.140 . S
N812 C815 1.346 . S
N812 C816 1.345 . S
C813 C814 1.387 . S
C813 C817 1.391 . S
C814 C813 1.387 . S
C814 C815 1.369 . S
C814 H823 0.929 . S
C815 N812 1.346 . S
C815 C814 1.369 . S
C815 H818 0.928 . S
C816 N812 1.345 . S
C816 C817 1.371 . S
C816 H819 0.931 . S
C817 C813 1.391 . S
C817 C816 1.371 . S
C817 H824 0.930 . S
H818 C815 0.928 . S
H819 C816 0.931 . S
H820 C796 0.930 . S
H821 C793 0.930 . S
H822 C802 0.930 . S
H823 C814 0.929 . S
H824 C817 0.930 . S
C825 C826 1.351 . S
C825 N828 1.368 . S
C825 H830 0.931 . S
C826 C825 1.351 . S
C826 N827 1.373 . S
C826 H854 0.930 . S
N827 C826 1.373 . S
N827 C829 1.340 . S
N828 C825 1.368 . S
N828 C829 1.321 . S
N828 Co831 2.135 . S
C829 N827 1.340 . S
C829 N828 1.321 . S
C829 H853 0.930 . S
H830 C825 0.931 . S
Co831 N828 2.135 . S
Co831 N834 2.121 . S
Co831 O839 2.055 . S
Co831 O842 2.039 . S
Co831 N845 2.140 . S
C832 O833 1.227 . S
C832 O842 1.265 . S
O833 C832 1.227 . S
N834 Co831 2.121 . S
N834 C836 1.375 . S
N834 C837 1.313 . S
C835 C836 1.338 . S
C835 N838 1.377 . S
C835 H855 0.930 . S
C836 N834 1.375 . S
C836 C835 1.338 . S
C836 H840 0.931 . S
C837 N834 1.313 . S
C837 N838 1.344 . S
C837 H841 0.930 . S
N838 C835 1.377 . S
N838 C837 1.344 . S
O839 Co831 2.055 . S
O839 C843 1.253 . S
H840 C836 0.931 . S
H841 C837 0.930 . S
O842 Co831 2.039 . S
O842 C832 1.265 . S
C843 O839 1.253 . S
C843 O844 1.227 . S
O844 C843 1.227 . S
N845 Co831 2.140 . S
N845 C848 1.346 . S
N845 C849 1.345 . S
C846 C847 1.387 . S
C846 C850 1.391 . S
C847 C846 1.387 . S
C847 C848 1.369 . S
C847 H856 0.929 . S
C848 N845 1.346 . S
C848 C847 1.369 . S
C848 H851 0.928 . S
C849 N845 1.345 . S
C849 C850 1.371 . S
C849 H852 0.931 . S
C850 C846 1.391 . S
C850 C849 1.371 . S
C850 H857 0.930 . S
H851 C848 0.928 . S
H852 C849 0.931 . S
H853 C829 0.930 . S
H854 C826 0.930 . S
H855 C835 0.930 . S
H856 C847 0.929 . S
H857 C850 0.930 . S
C858 C859 1.351 . S
C858 N861 1.368 . S
C858 H863 0.931 . S
C859 C858 1.351 . S
C859 N860 1.373 . S
C859 H887 0.930 . S
N860 C859 1.373 . S
N860 C862 1.340 . S
N861 C858 1.368 . S
N861 C862 1.321 . S
N861 Co864 2.135 . S
C862 N860 1.340 . S
C862 N861 1.321 . S
C862 H886 0.930 . S
H863 C858 0.931 . S
Co864 N861 2.135 . S
Co864 N867 2.121 . S
Co864 O872 2.055 . S
Co864 O875 2.039 . S
Co864 N878 2.140 . S
C865 O866 1.227 . S
C865 O875 1.265 . S
O866 C865 1.227 . S
N867 Co864 2.121 . S
N867 C869 1.375 . S
N867 C870 1.313 . S
C868 C869 1.338 . S
C868 N871 1.377 . S
C868 H888 0.930 . S
C869 N867 1.375 . S
C869 C868 1.338 . S
C869 H873 0.931 . S
C870 N867 1.313 . S
C870 N871 1.344 . S
C870 H874 0.930 . S
N871 C868 1.377 . S
N871 C870 1.344 . S
O872 Co864 2.055 . S
O872 C876 1.253 . S
H873 C869 0.931 . S
H874 C870 0.930 . S
O875 Co864 2.039 . S
O875 C865 1.265 . S
C876 O872 1.253 . S
C876 O877 1.227 . S
O877 C876 1.227 . S
N878 Co864 2.140 . S
N878 C881 1.346 . S
N878 C882 1.345 . S
C879 C880 1.387 . S
C879 C883 1.391 . S
C880 C879 1.387 . S
C880 C881 1.369 . S
C880 H889 0.929 . S
C881 N878 1.346 . S
C881 C880 1.369 . S
C881 H884 0.928 . S
C882 N878 1.345 . S
C882 C883 1.371 . S
C882 H885 0.931 . S
C883 C879 1.391 . S
C883 C882 1.371 . S
C883 H890 0.930 . S
H884 C881 0.928 . S
H885 C882 0.931 . S
H886 C862 0.930 . S
H887 C859 0.930 . S
H888 C868 0.930 . S
H889 C880 0.929 . S
H890 C883 0.930 . S
C891 C892 1.351 . S
C891 N894 1.368 . S
C891 H896 0.931 . S
C892 C891 1.351 . S
C892 N893 1.373 . S
C892 H920 0.930 . S
N893 C892 1.373 . S
N893 C895 1.340 . S
N894 C891 1.368 . S
N894 C895 1.321 . S
N894 Co897 2.135 . S
C895 N893 1.340 . S
C895 N894 1.321 . S
C895 H919 0.930 . S
H896 C891 0.931 . S
Co897 N894 2.135 . S
Co897 N900 2.121 . S
Co897 O905 2.055 . S
Co897 O908 2.039 . S
Co897 N911 2.140 . S
C898 O899 1.227 . S
C898 O908 1.265 . S
O899 C898 1.227 . S
N900 Co897 2.121 . S
N900 C902 1.375 . S
N900 C903 1.313 . S
C901 C902 1.338 . S
C901 N904 1.377 . S
C901 H921 0.930 . S
C902 N900 1.375 . S
C902 C901 1.338 . S
C902 H906 0.931 . S
C903 N900 1.313 . S
C903 N904 1.344 . S
C903 H907 0.930 . S
N904 C901 1.377 . S
N904 C903 1.344 . S
O905 Co897 2.055 . S
O905 C909 1.253 . S
H906 C902 0.931 . S
H907 C903 0.930 . S
O908 Co897 2.039 . S
O908 C898 1.265 . S
C909 O905 1.253 . S
C909 O910 1.227 . S
O910 C909 1.227 . S
N911 Co897 2.140 . S
N911 C914 1.346 . S
N911 C915 1.345 . S
C912 C913 1.387 . S
C912 C916 1.391 . S
C913 C912 1.387 . S
C913 C914 1.369 . S
C913 H922 0.929 . S
C914 N911 1.346 . S
C914 C913 1.369 . S
C914 H917 0.928 . S
C915 N911 1.345 . S
C915 C916 1.371 . S
C915 H918 0.931 . S
C916 C912 1.391 . S
C916 C915 1.371 . S
C916 H923 0.930 . S
H917 C914 0.928 . S
H918 C915 0.931 . S
H919 C895 0.930 . S
H920 C892 0.930 . S
H921 C901 0.930 . S
H922 C913 0.929 . S
H923 C916 0.930 . S
C924 C925 1.351 . S
C924 N927 1.368 . S
C924 H929 0.931 . S
C925 C924 1.351 . S
C925 N926 1.373 . S
C925 H953 0.930 . S
N926 C925 1.373 . S
N926 C928 1.340 . S
N927 C924 1.368 . S
N927 C928 1.321 . S
N927 Co930 2.135 . S
C928 N926 1.340 . S
C928 N927 1.321 . S
C928 H952 0.930 . S
H929 C924 0.931 . S
Co930 N927 2.135 . S
Co930 N933 2.121 . S
Co930 O938 2.055 . S
Co930 O941 2.039 . S
Co930 N944 2.140 . S
C931 O932 1.227 . S
C931 O941 1.265 . S
O932 C931 1.227 . S
N933 Co930 2.121 . S
N933 C935 1.375 . S
N933 C936 1.313 . S
C934 C935 1.338 . S
C934 N937 1.377 . S
C934 H954 0.930 . S
C935 N933 1.375 . S
C935 C934 1.338 . S
C935 H939 0.931 . S
C936 N933 1.313 . S
C936 N937 1.344 . S
C936 H940 0.930 . S
N937 C934 1.377 . S
N937 C936 1.344 . S
O938 Co930 2.055 . S
O938 C942 1.253 . S
H939 C935 0.931 . S
H940 C936 0.930 . S
O941 Co930 2.039 . S
O941 C931 1.265 . S
C942 O938 1.253 . S
C942 O943 1.227 . S
O943 C942 1.227 . S
N944 Co930 2.140 . S
N944 C947 1.346 . S
N944 C948 1.345 . S
C945 C946 1.387 . S
C945 C949 1.391 . S
C946 C945 1.387 . S
C946 C947 1.369 . S
C946 H955 0.929 . S
C947 N944 1.346 . S
C947 C946 1.369 . S
C947 H950 0.928 . S
C948 N944 1.345 . S
C948 C949 1.371 . S
C948 H951 0.931 . S
C949 C945 1.391 . S
C949 C948 1.371 . S
C949 H956 0.930 . S
H950 C947 0.928 . S
H951 C948 0.931 . S
H952 C928 0.930 . S
H953 C925 0.930 . S
H954 C934 0.930 . S
H955 C946 0.929 . S
H956 C949 0.930 . S
C957 C958 1.351 . S
C957 N960 1.368 . S
C957 H962 0.931 . S
C958 C957 1.351 . S
C958 N959 1.373 . S
C958 H986 0.930 . S
N959 C958 1.373 . S
N959 C961 1.340 . S
N960 C957 1.368 . S
N960 C961 1.321 . S
N960 Co963 2.135 . S
C961 N959 1.340 . S
C961 N960 1.321 . S
C961 H985 0.930 . S
H962 C957 0.931 . S
Co963 N960 2.135 . S
Co963 N966 2.121 . S
Co963 O971 2.055 . S
Co963 O974 2.039 . S
Co963 N977 2.140 . S
C964 O965 1.227 . S
C964 O974 1.265 . S
O965 C964 1.227 . S
N966 Co963 2.121 . S
N966 C968 1.375 . S
N966 C969 1.313 . S
C967 C968 1.338 . S
C967 N970 1.377 . S
C967 H987 0.930 . S
C968 N966 1.375 . S
C968 C967 1.338 . S
C968 H972 0.931 . S
C969 N966 1.313 . S
C969 N970 1.344 . S
C969 H973 0.930 . S
N970 C967 1.377 . S
N970 C969 1.344 . S
O971 Co963 2.055 . S
O971 C975 1.253 . S
H972 C968 0.931 . S
H973 C969 0.930 . S
O974 Co963 2.039 . S
O974 C964 1.265 . S
C975 O971 1.253 . S
C975 O976 1.227 . S
O976 C975 1.227 . S
N977 Co963 2.140 . S
N977 C980 1.346 . S
N977 C981 1.345 . S
C978 C979 1.387 . S
C978 C982 1.391 . S
C979 C978 1.387 . S
C979 C980 1.369 . S
C979 H988 0.929 . S
C980 N977 1.346 . S
C980 C979 1.369 . S
C980 H983 0.928 . S
C981 N977 1.345 . S
C981 C982 1.371 . S
C981 H984 0.931 . S
C982 C978 1.391 . S
C982 C981 1.371 . S
C982 H989 0.930 . S
H983 C980 0.928 . S
H984 C981 0.931 . S
H985 C961 0.930 . S
H986 C958 0.930 . S
H987 C967 0.930 . S
H988 C979 0.929 . S
H989 C982 0.930 . S
C990 C991 1.351 . S
C990 N993 1.368 . S
C990 H995 0.931 . S
C991 C990 1.351 . S
C991 N992 1.373 . S
C991 H1019 0.930 . S
N992 C991 1.373 . S
N992 C994 1.340 . S
N993 C990 1.368 . S
N993 C994 1.321 . S
N993 Co996 2.135 . S
C994 N992 1.340 . S
C994 N993 1.321 . S
C994 H1018 0.930 . S
H995 C990 0.931 . S
Co996 N993 2.135 . S
Co996 N999 2.121 . S
Co996 O1004 2.055 . S
Co996 O1007 2.039 . S
Co996 N1010 2.140 . S
C997 O998 1.227 . S
C997 O1007 1.265 . S
O998 C997 1.227 . S
N999 Co996 2.121 . S
N999 C1001 1.375 . S
N999 C1002 1.313 . S
C1000 C1001 1.338 . S
C1000 N1003 1.377 . S
C1000 H1020 0.930 . S
C1001 N999 1.375 . S
C1001 C1000 1.338 . S
C1001 H1005 0.931 . S
C1002 N999 1.313 . S
C1002 N1003 1.344 . S
C1002 H1006 0.930 . S
N1003 C1000 1.377 . S
N1003 C1002 1.344 . S
O1004 Co996 2.055 . S
O1004 C1008 1.253 . S
H1005 C1001 0.931 . S
H1006 C1002 0.930 . S
O1007 Co996 2.039 . S
O1007 C997 1.265 . S
C1008 O1004 1.253 . S
C1008 O1009 1.227 . S
O1009 C1008 1.227 . S
N1010 Co996 2.140 . S
N1010 C1013 1.346 . S
N1010 C1014 1.345 . S
C1011 C1012 1.387 . S
C1011 C1015 1.391 . S
C1012 C1011 1.387 . S
C1012 C1013 1.369 . S
C1012 H1021 0.929 . S
C1013 N1010 1.346 . S
C1013 C1012 1.369 . S
C1013 H1016 0.928 . S
C1014 N1010 1.345 . S
C1014 C1015 1.371 . S
C1014 H1017 0.931 . S
C1015 C1011 1.391 . S
C1015 C1014 1.371 . S
C1015 H1022 0.930 . S
H1016 C1013 0.928 . S
H1017 C1014 0.931 . S
H1018 C994 0.930 . S
H1019 C991 0.930 . S
H1020 C1000 0.930 . S
H1021 C1012 0.929 . S
H1022 C1015 0.930 . S
C1023 C1024 1.351 . S
C1023 N1026 1.368 . S
C1023 H1028 0.931 . S
C1024 C1023 1.351 . S
C1024 N1025 1.373 . S
C1024 H1052 0.930 . S
N1025 C1024 1.373 . S
N1025 C1027 1.340 . S
N1026 C1023 1.368 . S
N1026 C1027 1.321 . S
N1026 Co1029 2.135 . S
C1027 N1025 1.340 . S
C1027 N1026 1.321 . S
C1027 H1051 0.930 . S
H1028 C1023 0.931 . S
Co1029 N1026 2.135 . S
Co1029 N1032 2.121 . S
Co1029 O1037 2.055 . S
Co1029 O1040 2.039 . S
Co1029 N1043 2.140 . S
C1030 O1031 1.227 . S
C1030 O1040 1.265 . S
O1031 C1030 1.227 . S
N1032 Co1029 2.121 . S
N1032 C1034 1.375 . S
N1032 C1035 1.313 . S
C1033 C1034 1.338 . S
C1033 N1036 1.377 . S
C1033 H1053 0.930 . S
C1034 N1032 1.375 . S
C1034 C1033 1.338 . S
C1034 H1038 0.931 . S
C1035 N1032 1.313 . S
C1035 N1036 1.344 . S
C1035 H1039 0.930 . S
N1036 C1033 1.377 . S
N1036 C1035 1.344 . S
O1037 Co1029 2.055 . S
O1037 C1041 1.253 . S
H1038 C1034 0.931 . S
H1039 C1035 0.930 . S
O1040 Co1029 2.039 . S
O1040 C1030 1.265 . S
C1041 O1037 1.253 . S
C1041 O1042 1.227 . S
O1042 C1041 1.227 . S
N1043 Co1029 2.140 . S
N1043 C1046 1.346 . S
N1043 C1047 1.345 . S
C1044 C1045 1.387 . S
C1044 C1048 1.391 . S
C1045 C1044 1.387 . S
C1045 C1046 1.369 . S
C1045 H1054 0.929 . S
C1046 N1043 1.346 . S
C1046 C1045 1.369 . S
C1046 H1049 0.928 . S
C1047 N1043 1.345 . S
C1047 C1048 1.371 . S
C1047 H1050 0.931 . S
C1048 C1044 1.391 . S
C1048 C1047 1.371 . S
C1048 H1055 0.930 . S
H1049 C1046 0.928 . S
H1050 C1047 0.931 . S
H1051 C1027 0.930 . S
H1052 C1024 0.930 . S
H1053 C1033 0.930 . S
H1054 C1045 0.929 . S
H1055 C1048 0.930 . S
H1056 C1062 0.930 . S
H1057 C1066 0.930 . S
H1058 C1071 0.929 . S
H1059 C1069 0.929 . S
H1060 C1064 0.929 . S
H1061 C1070 0.929 . S
C1062 H1056 0.930 . S
C1062 C1063 1.367 . S
C1062 C1070 1.378 . S
C1063 C1062 1.367 . S
C1063 C1071 1.433 . S
C1064 H1060 0.929 . S
C1064 C1066 1.378 . S
C1064 C1068 1.350 . S
C1065 C1068 1.463 . S
C1065 C1070 1.350 . S
C1065 N1073 1.427 . S
C1066 H1057 0.930 . S
C1066 C1064 1.378 . S
C1066 C1067 1.367 . S
C1067 C1066 1.367 . S
C1067 C1069 1.433 . S
C1068 C1064 1.350 . S
C1068 C1065 1.463 . S
C1068 N1072 1.427 . S
C1069 H1059 0.929 . S
C1069 C1067 1.433 . S
C1069 N1072 1.384 . S
C1070 H1061 0.929 . S
C1070 C1062 1.378 . S
C1070 C1065 1.350 . S
C1071 H1058 0.929 . S
C1071 C1063 1.433 . S
C1071 N1073 1.384 . S
N1072 C1068 1.427 . S
N1072 C1069 1.384 . S
N1073 C1065 1.427 . S
N1073 C1071 1.384 . S
H1074 C1080 0.930 . S
H1075 C1084 0.930 . S
H1076 C1089 0.929 1_565 S
H1077 C1087 0.929 . S
H1078 C1082 0.929 . S
H1079 C1088 0.929 . S
C1080 H1074 0.930 . S
C1080 C1081 1.367 . S
C1080 C1088 1.378 . S
C1081 C1080 1.367 . S
C1081 C1089 1.433 . S
C1082 H1078 0.929 . S
C1082 C1084 1.378 . S
C1082 C1086 1.350 . S
C1083 C1086 1.463 . S
C1083 C1088 1.350 . S
C1083 N1091 1.427 . S
C1084 H1075 0.930 . S
C1084 C1082 1.378 . S
C1084 C1085 1.367 . S
C1085 C1084 1.367 . S
C1085 C1087 1.433 . S
C1086 C1082 1.350 . S
C1086 C1083 1.463 . S
C1086 N1090 1.427 . S
C1087 H1077 0.929 . S
C1087 C1085 1.433 . S
C1087 N1090 1.384 . S
C1088 H1079 0.929 . S
C1088 C1080 1.378 . S
C1088 C1083 1.350 . S
C1089 H1076 0.929 1_545 S
C1089 C1081 1.433 . S
C1089 N1091 1.384 . S
N1090 C1086 1.427 . S
N1090 C1087 1.384 . S
N1091 C1083 1.427 . S
N1091 C1089 1.384 . S
H1092 C1098 0.930 . S
H1093 C1102 0.930 . S
H1094 C1107 0.929 . S
H1095 C1105 0.929 . S
H1096 C1100 0.929 . S
H1097 C1106 0.929 . S
C1098 H1092 0.930 . S
C1098 C1099 1.367 . S
C1098 C1106 1.378 . S
C1099 C1098 1.367 . S
C1099 C1107 1.433 . S
C1100 H1096 0.929 . S
C1100 C1102 1.378 . S
C1100 C1104 1.350 . S
C1101 C1104 1.463 . S
C1101 C1106 1.350 . S
C1101 N1109 1.427 . S
C1102 H1093 0.930 . S
C1102 C1100 1.378 . S
C1102 C1103 1.367 . S
C1103 C1102 1.367 . S
C1103 C1105 1.433 . S
C1104 C1100 1.350 . S
C1104 C1101 1.463 . S
C1104 N1108 1.427 . S
C1105 H1095 0.929 . S
C1105 C1103 1.433 . S
C1105 N1108 1.384 . S
C1106 H1097 0.929 . S
C1106 C1098 1.378 . S
C1106 C1101 1.350 . S
C1107 H1094 0.929 . S
C1107 C1099 1.433 . S
C1107 N1109 1.384 . S
N1108 C1104 1.427 . S
N1108 C1105 1.384 . S
N1109 C1101 1.427 . S
N1109 C1107 1.384 . S
H1110 C1116 0.930 . S
H1111 C1120 0.930 . S
H1112 C1125 0.929 . S
H1113 C1123 0.929 . S
H1114 C1118 0.929 . S
H1115 C1124 0.929 . S
C1116 H1110 0.930 . S
C1116 C1117 1.367 . S
C1116 C1124 1.378 . S
C1117 C1116 1.367 . S
C1117 C1125 1.433 . S
C1118 H1114 0.929 . S
C1118 C1120 1.378 . S
C1118 C1122 1.350 . S
C1119 C1122 1.463 . S
C1119 C1124 1.350 . S
C1119 N1127 1.427 . S
C1120 H1111 0.930 . S
C1120 C1118 1.378 . S
C1120 C1121 1.367 . S
C1121 C1120 1.367 . S
C1121 C1123 1.433 . S
C1122 C1118 1.350 . S
C1122 C1119 1.463 . S
C1122 N1126 1.427 . S
C1123 H1113 0.929 . S
C1123 C1121 1.433 . S
C1123 N1126 1.384 . S
C1124 H1115 0.929 . S
C1124 C1116 1.378 . S
C1124 C1119 1.350 . S
C1125 H1112 0.929 . S
C1125 C1117 1.433 . S
C1125 N1127 1.384 . S
N1126 C1122 1.427 . S
N1126 C1123 1.384 . S
N1127 C1119 1.427 . S
N1127 C1125 1.384 . S
H1128 C1134 0.930 . S
H1129 C1138 0.930 . S
H1130 C1143 0.929 . S
H1131 C1141 0.929 . S
H1132 C1136 0.929 . S
H1133 C1142 0.929 . S
C1134 H1128 0.930 . S
C1134 C1135 1.367 . S
C1134 C1142 1.378 . S
C1135 C1134 1.367 . S
C1135 C1143 1.433 . S
C1136 H1132 0.929 . S
C1136 C1138 1.378 . S
C1136 C1140 1.350 . S
C1137 C1140 1.463 . S
C1137 C1142 1.350 . S
C1137 N1145 1.427 . S
C1138 H1129 0.930 . S
C1138 C1136 1.378 . S
C1138 C1139 1.367 . S
C1139 C1138 1.367 . S
C1139 C1141 1.433 . S
C1140 C1136 1.350 . S
C1140 C1137 1.463 . S
C1140 N1144 1.427 . S
C1141 H1131 0.929 . S
C1141 C1139 1.433 . S
C1141 N1144 1.384 . S
C1142 H1133 0.929 . S
C1142 C1134 1.378 . S
C1142 C1137 1.350 . S
C1143 H1130 0.929 . S
C1143 C1135 1.433 . S
C1143 N1145 1.384 . S
N1144 C1140 1.427 . S
N1144 C1141 1.384 . S
N1145 C1137 1.427 . S
N1145 C1143 1.384 . S
H1146 C1152 0.930 . S
H1147 C1156 0.930 . S
H1148 C1161 0.929 . S
H1149 C1159 0.929 . S
H1150 C1154 0.929 . S
H1151 C1160 0.929 . S
C1152 H1146 0.930 . S
C1152 C1153 1.367 . S
C1152 C1160 1.378 . S
C1153 C1152 1.367 . S
C1153 C1161 1.433 . S
C1154 H1150 0.929 . S
C1154 C1156 1.378 . S
C1154 C1158 1.350 . S
C1155 C1158 1.463 . S
C1155 C1160 1.350 . S
C1155 N1163 1.427 . S
C1156 H1147 0.930 . S
C1156 C1154 1.378 . S
C1156 C1157 1.367 . S
C1157 C1156 1.367 . S
C1157 C1159 1.433 . S
C1158 C1154 1.350 . S
C1158 C1155 1.463 . S
C1158 N1162 1.427 . S
C1159 H1149 0.929 . S
C1159 C1157 1.433 . S
C1159 N1162 1.384 . S
C1160 H1151 0.929 . S
C1160 C1152 1.378 . S
C1160 C1155 1.350 . S
C1161 H1148 0.929 . S
C1161 C1153 1.433 . S
C1161 N1163 1.384 . S
N1162 C1158 1.427 . S
N1162 C1159 1.384 . S
N1163 C1155 1.427 . S
N1163 C1161 1.384 . S
H1164 C1170 0.930 . S
H1165 C1174 0.930 . S
H1166 C1179 0.929 . S
H1167 C1177 0.929 . S
H1168 C1172 0.929 . S
H1169 C1178 0.929 . S
C1170 H1164 0.930 . S
C1170 C1171 1.367 . S
C1170 C1178 1.378 . S
C1171 C1170 1.367 . S
C1171 C1179 1.433 . S
C1172 H1168 0.929 . S
C1172 C1174 1.378 . S
C1172 C1176 1.350 . S
C1173 C1176 1.463 . S
C1173 C1178 1.350 . S
C1173 N1181 1.427 . S
C1174 H1165 0.930 . S
C1174 C1172 1.378 . S
C1174 C1175 1.367 . S
C1175 C1174 1.367 . S
C1175 C1177 1.433 . S
C1176 C1172 1.350 . S
C1176 C1173 1.463 . S
C1176 N1180 1.427 . S
C1177 H1167 0.929 . S
C1177 C1175 1.433 . S
C1177 N1180 1.384 . S
C1178 H1169 0.929 . S
C1178 C1170 1.378 . S
C1178 C1173 1.350 . S
C1179 H1166 0.929 . S
C1179 C1171 1.433 . S
C1179 N1181 1.384 . S
N1180 C1176 1.427 . S
N1180 C1177 1.384 . S
N1181 C1173 1.427 . S
N1181 C1179 1.384 . S
H1182 C1188 0.930 . S
H1183 C1192 0.930 . S
H1184 C1197 0.929 . S
H1185 C1195 0.929 . S
H1186 C1190 0.929 . S
H1187 C1196 0.929 . S
C1188 H1182 0.930 . S
C1188 C1189 1.367 . S
C1188 C1196 1.378 . S
C1189 C1188 1.367 . S
C1189 C1197 1.433 . S
C1190 H1186 0.929 . S
C1190 C1192 1.378 . S
C1190 C1194 1.350 . S
C1191 C1194 1.463 . S
C1191 C1196 1.350 . S
C1191 N1199 1.427 . S
C1192 H1183 0.930 . S
C1192 C1190 1.378 . S
C1192 C1193 1.367 . S
C1193 C1192 1.367 . S
C1193 C1195 1.433 . S
C1194 C1190 1.350 . S
C1194 C1191 1.463 . S
C1194 N1198 1.427 . S
C1195 H1185 0.929 . S
C1195 C1193 1.433 . S
C1195 N1198 1.384 . S
C1196 H1187 0.929 . S
C1196 C1188 1.378 . S
C1196 C1191 1.350 . S
C1197 H1184 0.929 . S
C1197 C1189 1.433 . S
C1197 N1199 1.384 . S
N1198 C1194 1.427 . S
N1198 C1195 1.384 . S
N1199 C1191 1.427 . S
N1199 C1197 1.384 . S
H1200 C1206 0.930 . S
H1201 C1210 0.930 . S
H1202 C1215 0.929 1_565 S
H1203 C1213 0.929 . S
H1204 C1208 0.929 . S
H1205 C1214 0.929 . S
C1206 H1200 0.930 . S
C1206 C1207 1.367 . S
C1206 C1214 1.378 . S
C1207 C1206 1.367 . S
C1207 C1215 1.433 . S
C1208 H1204 0.929 . S
C1208 C1210 1.378 . S
C1208 C1212 1.350 . S
C1209 C1212 1.463 . S
C1209 C1214 1.350 . S
C1209 N1217 1.427 . S
C1210 H1201 0.930 . S
C1210 C1208 1.378 . S
C1210 C1211 1.367 . S
C1211 C1210 1.367 . S
C1211 C1213 1.433 . S
C1212 C1208 1.350 . S
C1212 C1209 1.463 . S
C1212 N1216 1.427 . S
C1213 H1203 0.929 . S
C1213 C1211 1.433 . S
C1213 N1216 1.384 . S
C1214 H1205 0.929 . S
C1214 C1206 1.378 . S
C1214 C1209 1.350 . S
C1215 H1202 0.929 1_545 S
C1215 C1207 1.433 . S
C1215 N1217 1.384 . S
N1216 C1212 1.427 . S
N1216 C1213 1.384 . S
N1217 C1209 1.427 . S
N1217 C1215 1.384 . S
H1218 C1224 0.930 . S
H1219 C1228 0.930 . S
H1220 C1233 0.929 1_565 S
H1221 C1231 0.929 . S
H1222 C1226 0.929 . S
H1223 C1232 0.929 . S
C1224 H1218 0.930 . S
C1224 C1225 1.367 . S
C1224 C1232 1.378 . S
C1225 C1224 1.367 . S
C1225 C1233 1.433 . S
C1226 H1222 0.929 . S
C1226 C1228 1.378 . S
C1226 C1230 1.350 . S
C1227 C1230 1.463 . S
C1227 C1232 1.350 . S
C1227 N1235 1.427 . S
C1228 H1219 0.930 . S
C1228 C1226 1.378 . S
C1228 C1229 1.367 . S
C1229 C1228 1.367 . S
C1229 C1231 1.433 . S
C1230 C1226 1.350 . S
C1230 C1227 1.463 . S
C1230 N1234 1.427 . S
C1231 H1221 0.929 . S
C1231 C1229 1.433 . S
C1231 N1234 1.384 . S
C1232 H1223 0.929 . S
C1232 C1224 1.378 . S
C1232 C1227 1.350 . S
C1233 H1220 0.929 1_545 S
C1233 C1225 1.433 . S
C1233 N1235 1.384 . S
N1234 C1230 1.427 . S
N1234 C1231 1.384 . S
N1235 C1227 1.427 . S
N1235 C1233 1.384 . S
H1236 C1242 0.930 . S
H1237 C1246 0.930 . S
H1238 C1251 0.929 . S
H1239 C1249 0.929 . S
H1240 C1244 0.929 . S
H1241 C1250 0.929 . S
C1242 H1236 0.930 . S
C1242 C1243 1.367 . S
C1242 C1250 1.378 . S
C1243 C1242 1.367 . S
C1243 C1251 1.433 . S
C1244 H1240 0.929 . S
C1244 C1246 1.378 . S
C1244 C1248 1.350 . S
C1245 C1248 1.463 . S
C1245 C1250 1.350 . S
C1245 N1253 1.427 . S
C1246 H1237 0.930 . S
C1246 C1244 1.378 . S
C1246 C1247 1.367 . S
C1247 C1246 1.367 . S
C1247 C1249 1.433 . S
C1248 C1244 1.350 . S
C1248 C1245 1.463 . S
C1248 N1252 1.427 . S
C1249 H1239 0.929 . S
C1249 C1247 1.433 . S
C1249 N1252 1.384 . S
C1250 H1241 0.929 . S
C1250 C1242 1.378 . S
C1250 C1245 1.350 . S
C1251 H1238 0.929 . S
C1251 C1243 1.433 . S
C1251 N1253 1.384 . S
N1252 C1248 1.427 . S
N1252 C1249 1.384 . S
N1253 C1245 1.427 . S
N1253 C1251 1.384 . S
H1254 C1260 0.930 . S
H1255 C1264 0.930 . S
H1256 C1269 0.929 . S
H1257 C1267 0.929 1_545 S
H1258 C1262 0.929 . S
H1259 C1268 0.929 . S
C1260 H1254 0.930 . S
C1260 C1261 1.367 . S
C1260 C1268 1.378 . S
C1261 C1260 1.367 . S
C1261 C1269 1.433 . S
C1262 H1258 0.929 . S
C1262 C1264 1.378 . S
C1262 C1266 1.350 . S
C1263 C1266 1.463 . S
C1263 C1268 1.350 . S
C1263 N1271 1.427 . S
C1264 H1255 0.930 . S
C1264 C1262 1.378 . S
C1264 C1265 1.367 . S
C1265 C1264 1.367 . S
C1265 C1267 1.433 . S
C1266 C1262 1.350 . S
C1266 C1263 1.463 . S
C1266 N1270 1.427 . S
C1267 H1257 0.929 1_565 S
C1267 C1265 1.433 . S
C1267 N1270 1.384 . S
C1268 H1259 0.929 . S
C1268 C1260 1.378 . S
C1268 C1263 1.350 . S
C1269 H1256 0.929 . S
C1269 C1261 1.433 . S
C1269 N1271 1.384 . S
N1270 C1266 1.427 . S
N1270 C1267 1.384 . S
N1271 C1263 1.427 . S
N1271 C1269 1.384 . S
H1272 C1278 0.930 . S
H1273 C1282 0.930 . S
H1274 C1287 0.929 . S
H1275 C1285 0.929 . S
H1276 C1280 0.929 . S
H1277 C1286 0.929 . S
C1278 H1272 0.930 . S
C1278 C1279 1.367 . S
C1278 C1286 1.378 . S
C1279 C1278 1.367 . S
C1279 C1287 1.433 . S
C1280 H1276 0.929 . S
C1280 C1282 1.378 . S
C1280 C1284 1.350 . S
C1281 C1284 1.463 . S
C1281 C1286 1.350 . S
C1281 N1289 1.427 . S
C1282 H1273 0.930 . S
C1282 C1280 1.378 . S
C1282 C1283 1.367 . S
C1283 C1282 1.367 . S
C1283 C1285 1.433 . S
C1284 C1280 1.350 . S
C1284 C1281 1.463 . S
C1284 N1288 1.427 . S
C1285 H1275 0.929 . S
C1285 C1283 1.433 . S
C1285 N1288 1.384 . S
C1286 H1277 0.929 . S
C1286 C1278 1.378 . S
C1286 C1281 1.350 . S
C1287 H1274 0.929 . S
C1287 C1279 1.433 . S
C1287 N1289 1.384 . S
N1288 C1284 1.427 . S
N1288 C1285 1.384 . S
N1289 C1281 1.427 . S
N1289 C1287 1.384 . S
H1290 C1296 0.930 . S
H1291 C1300 0.930 . S
H1292 C1305 0.929 . S
H1293 C1303 0.929 . S
H1294 C1298 0.929 . S
H1295 C1304 0.929 . S
C1296 H1290 0.930 . S
C1296 C1297 1.367 . S
C1296 C1304 1.378 . S
C1297 C1296 1.367 . S
C1297 C1305 1.433 . S
C1298 H1294 0.929 . S
C1298 C1300 1.378 . S
C1298 C1302 1.350 . S
C1299 C1302 1.463 . S
C1299 C1304 1.350 . S
C1299 N1307 1.427 . S
C1300 H1291 0.930 . S
C1300 C1298 1.378 . S
C1300 C1301 1.367 . S
C1301 C1300 1.367 . S
C1301 C1303 1.433 . S
C1302 C1298 1.350 . S
C1302 C1299 1.463 . S
C1302 N1306 1.427 . S
C1303 H1293 0.929 . S
C1303 C1301 1.433 . S
C1303 N1306 1.384 . S
C1304 H1295 0.929 . S
C1304 C1296 1.378 . S
C1304 C1299 1.350 . S
C1305 H1292 0.929 . S
C1305 C1297 1.433 . S
C1305 N1307 1.384 . S
N1306 C1302 1.427 . S
N1306 C1303 1.384 . S
N1307 C1299 1.427 . S
N1307 C1305 1.384 . S
H1308 C1314 0.930 . S
H1309 C1318 0.930 . S
H1310 C1323 0.929 . S
H1311 C1321 0.929 . S
H1312 C1316 0.929 . S
H1313 C1322 0.929 . S
C1314 H1308 0.930 . S
C1314 C1315 1.367 . S
C1314 C1322 1.378 . S
C1315 C1314 1.367 . S
C1315 C1323 1.433 . S
C1316 H1312 0.929 . S
C1316 C1318 1.378 . S
C1316 C1320 1.350 . S
C1317 C1320 1.463 . S
C1317 C1322 1.350 . S
C1317 N1325 1.427 . S
C1318 H1309 0.930 . S
C1318 C1316 1.378 . S
C1318 C1319 1.367 . S
C1319 C1318 1.367 . S
C1319 C1321 1.433 . S
C1320 C1316 1.350 . S
C1320 C1317 1.463 . S
C1320 N1324 1.427 . S
C1321 H1311 0.929 . S
C1321 C1319 1.433 . S
C1321 N1324 1.384 . S
C1322 H1313 0.929 . S
C1322 C1314 1.378 . S
C1322 C1317 1.350 . S
C1323 H1310 0.929 . S
C1323 C1315 1.433 . S
C1323 N1325 1.384 . S
N1324 C1320 1.427 . S
N1324 C1321 1.384 . S
N1325 C1317 1.427 . S
N1325 C1323 1.384 . S
H1326 C1332 0.930 . S
H1327 C1336 0.930 . S
H1328 C1341 0.929 . S
H1329 C1339 0.929 . S
H1330 C1334 0.929 . S
H1331 C1340 0.929 . S
C1332 H1326 0.930 . S
C1332 C1333 1.367 . S
C1332 C1340 1.378 . S
C1333 C1332 1.367 . S
C1333 C1341 1.433 . S
C1334 H1330 0.929 . S
C1334 C1336 1.378 . S
C1334 C1338 1.350 . S
C1335 C1338 1.463 . S
C1335 C1340 1.350 . S
C1335 N1343 1.427 . S
C1336 H1327 0.930 . S
C1336 C1334 1.378 . S
C1336 C1337 1.367 . S
C1337 C1336 1.367 . S
C1337 C1339 1.433 . S
C1338 C1334 1.350 . S
C1338 C1335 1.463 . S
C1338 N1342 1.427 . S
C1339 H1329 0.929 . S
C1339 C1337 1.433 . S
C1339 N1342 1.384 . S
C1340 H1331 0.929 . S
C1340 C1332 1.378 . S
C1340 C1335 1.350 . S
C1341 H1328 0.929 . S
C1341 C1333 1.433 . S
C1341 N1343 1.384 . S
N1342 C1338 1.427 . S
N1342 C1339 1.384 . S
N1343 C1335 1.427 . S
N1343 C1341 1.384 . S
H1344 C1350 0.930 . S
H1345 C1354 0.930 . S
H1346 C1359 0.929 . S
H1347 C1357 0.929 . S
H1348 C1352 0.929 1_565 S
H1349 C1358 0.929 1_545 S
C1350 H1344 0.930 . S
C1350 C1351 1.367 . S
C1350 C1358 1.378 . S
C1351 C1350 1.367 . S
C1351 C1359 1.433 . S
C1352 H1348 0.929 1_545 S
C1352 C1354 1.378 . S
C1352 C1356 1.350 . S
C1353 C1356 1.463 1_566 S
C1353 C1358 1.350 . S
C1353 N1361 1.427 . S
C1354 H1345 0.930 . S
C1354 C1352 1.378 . S
C1354 C1355 1.367 . S
C1355 C1354 1.367 . S
C1355 C1357 1.433 . S
C1356 C1352 1.350 . S
C1356 C1353 1.463 1_544 S
C1356 N1360 1.427 . S
C1357 H1347 0.929 . S
C1357 C1355 1.433 . S
C1357 N1360 1.384 . S
C1358 H1349 0.929 1_565 S
C1358 C1350 1.378 . S
C1358 C1353 1.350 . S
C1359 H1346 0.929 . S
C1359 C1351 1.433 . S
C1359 N1361 1.384 . S
N1360 C1356 1.427 . S
N1360 C1357 1.384 . S
N1361 C1353 1.427 . S
N1361 C1359 1.384 . S
H1362 C1368 0.930 . S
H1363 C1372 0.930 . S
H1364 C1377 0.929 . S
H1365 C1375 0.929 . S
H1366 C1370 0.929 1_554 S
H1367 C1376 0.929 1_556 S
C1368 H1362 0.930 . S
C1368 C1369 1.367 . S
C1368 C1376 1.378 . S
C1369 C1368 1.367 . S
C1369 C1377 1.433 . S
C1370 H1366 0.929 1_556 S
C1370 C1372 1.378 . S
C1370 C1374 1.350 . S
C1371 C1374 1.463 1_554 S
C1371 C1376 1.350 . S
C1371 N1379 1.427 . S
C1372 H1363 0.930 . S
C1372 C1370 1.378 . S
C1372 C1373 1.367 . S
C1373 C1372 1.367 . S
C1373 C1375 1.433 . S
C1374 C1370 1.350 . S
C1374 C1371 1.463 1_556 S
C1374 N1378 1.427 . S
C1375 H1365 0.929 . S
C1375 C1373 1.433 . S
C1375 N1378 1.384 . S
C1376 H1367 0.929 1_554 S
C1376 C1368 1.378 . S
C1376 C1371 1.350 . S
C1377 H1364 0.929 . S
C1377 C1369 1.433 . S
C1377 N1379 1.384 . S
N1378 C1374 1.427 . S
N1378 C1375 1.384 . S
N1379 C1371 1.427 . S
N1379 C1377 1.384 . S
H1380 C1386 0.930 . S
H1381 C1390 0.930 . S
H1382 C1395 0.929 . S
H1383 C1393 0.929 . S
H1384 C1388 0.929 . S
H1385 C1394 0.929 . S
C1386 H1380 0.930 . S
C1386 C1387 1.367 . S
C1386 C1394 1.378 . S
C1387 C1386 1.367 . S
C1387 C1395 1.433 . S
C1388 H1384 0.929 . S
C1388 C1390 1.378 . S
C1388 C1392 1.350 . S
C1389 C1392 1.463 . S
C1389 C1394 1.350 . S
C1389 N1397 1.427 . S
C1390 H1381 0.930 . S
C1390 C1388 1.378 . S
C1390 C1391 1.367 . S
C1391 C1390 1.367 . S
C1391 C1393 1.433 . S
C1392 C1388 1.350 . S
C1392 C1389 1.463 . S
C1392 N1396 1.427 . S
C1393 H1383 0.929 . S
C1393 C1391 1.433 . S
C1393 N1396 1.384 . S
C1394 H1385 0.929 . S
C1394 C1386 1.378 . S
C1394 C1389 1.350 . S
C1395 H1382 0.929 . S
C1395 C1387 1.433 . S
C1395 N1397 1.384 . S
N1396 C1392 1.427 . S
N1396 C1393 1.384 . S
N1397 C1389 1.427 . S
N1397 C1395 1.384 . S
H1398 C1404 0.930 . S
H1399 C1408 0.930 . S
H1400 C1413 0.929 . S
H1401 C1411 0.929 . S
H1402 C1406 0.929 . S
H1403 C1412 0.929 . S
C1404 H1398 0.930 . S
C1404 C1405 1.367 . S
C1404 C1412 1.378 . S
C1405 C1404 1.367 . S
C1405 C1413 1.433 . S
C1406 H1402 0.929 . S
C1406 C1408 1.378 . S
C1406 C1410 1.350 . S
C1407 C1410 1.463 1_545 S
C1407 C1412 1.350 . S
C1407 N1415 1.427 1_545 S
C1408 H1399 0.930 . S
C1408 C1406 1.378 . S
C1408 C1409 1.367 . S
C1409 C1408 1.367 . S
C1409 C1411 1.433 . S
C1410 C1406 1.350 . S
C1410 C1407 1.463 1_565 S
C1410 N1414 1.427 1_565 S
C1411 H1401 0.929 . S
C1411 C1409 1.433 . S
C1411 N1414 1.384 1_565 S
C1412 H1403 0.929 . S
C1412 C1404 1.378 . S
C1412 C1407 1.350 . S
C1413 H1400 0.929 . S
C1413 C1405 1.433 . S
C1413 N1415 1.384 1_545 S
N1414 C1410 1.427 1_545 S
N1414 C1411 1.384 1_545 S
N1415 C1407 1.427 1_565 S
N1415 C1413 1.384 1_565 S
H1416 C1422 0.930 . S
H1417 C1426 0.930 . S
H1418 C1431 0.929 . S
H1419 C1429 0.929 . S
H1420 C1424 0.929 1_556 S
H1421 C1430 0.929 1_554 S
C1422 H1416 0.930 . S
C1422 C1423 1.367 . S
C1422 C1430 1.378 . S
C1423 C1422 1.367 . S
C1423 C1431 1.433 . S
C1424 H1420 0.929 1_554 S
C1424 C1426 1.378 . S
C1424 C1428 1.350 . S
C1425 C1428 1.463 1_556 S
C1425 C1430 1.350 . S
C1425 N1433 1.427 . S
C1426 H1417 0.930 . S
C1426 C1424 1.378 . S
C1426 C1427 1.367 . S
C1427 C1426 1.367 . S
C1427 C1429 1.433 . S
C1428 C1424 1.350 . S
C1428 C1425 1.463 1_554 S
C1428 N1432 1.427 . S
C1429 H1419 0.929 . S
C1429 C1427 1.433 . S
C1429 N1432 1.384 . S
C1430 H1421 0.929 1_556 S
C1430 C1422 1.378 . S
C1430 C1425 1.350 . S
C1431 H1418 0.929 . S
C1431 C1423 1.433 . S
C1431 N1433 1.384 . S
N1432 C1428 1.427 . S
N1432 C1429 1.384 . S
N1433 C1425 1.427 . S
N1433 C1431 1.384 . S
H1434 C1440 0.930 . S
H1435 C1444 0.930 . S
H1436 C1449 0.929 . S
H1437 C1447 0.929 . S
H1438 C1442 0.929 . S
H1439 C1448 0.929 . S
C1440 H1434 0.930 . S
C1440 C1441 1.367 . S
C1440 C1448 1.378 . S
C1441 C1440 1.367 . S
C1441 C1449 1.433 . S
C1442 H1438 0.929 . S
C1442 C1444 1.378 . S
C1442 C1446 1.350 . S
C1443 C1446 1.463 . S
C1443 C1448 1.350 . S
C1443 N1451 1.427 . S
C1444 H1435 0.930 . S
C1444 C1442 1.378 . S
C1444 C1445 1.367 . S
C1445 C1444 1.367 . S
C1445 C1447 1.433 . S
C1446 C1442 1.350 . S
C1446 C1443 1.463 . S
C1446 N1450 1.427 . S
C1447 H1437 0.929 . S
C1447 C1445 1.433 . S
C1447 N1450 1.384 . S
C1448 H1439 0.929 . S
C1448 C1440 1.378 . S
C1448 C1443 1.350 . S
C1449 H1436 0.929 . S
C1449 C1441 1.433 . S
C1449 N1451 1.384 . S
N1450 C1446 1.427 . S
N1450 C1447 1.384 . S
N1451 C1443 1.427 . S
N1451 C1449 1.384 . S
H1452 C1458 0.930 . S
H1453 C1462 0.930 . S
H1454 C1467 0.929 . S
H1455 C1465 0.929 . S
H1456 C1460 0.929 . S
H1457 C1466 0.929 . S
C1458 H1452 0.930 . S
C1458 C1459 1.367 . S
C1458 C1466 1.378 . S
C1459 C1458 1.367 . S
C1459 C1467 1.433 . S
C1460 H1456 0.929 . S
C1460 C1462 1.378 . S
C1460 C1464 1.350 . S
C1461 C1464 1.463 1_545 S
C1461 C1466 1.350 . S
C1461 N1469 1.427 . S
C1462 H1453 0.930 . S
C1462 C1460 1.378 . S
C1462 C1463 1.367 . S
C1463 C1462 1.367 . S
C1463 C1465 1.433 . S
C1464 C1460 1.350 . S
C1464 C1461 1.463 1_565 S
C1464 N1468 1.427 . S
C1465 H1455 0.929 . S
C1465 C1463 1.433 . S
C1465 N1468 1.384 . S
C1466 H1457 0.929 . S
C1466 C1458 1.378 . S
C1466 C1461 1.350 . S
C1467 H1454 0.929 . S
C1467 C1459 1.433 . S
C1467 N1469 1.384 . S
N1468 C1464 1.427 . S
N1468 C1465 1.384 . S
N1469 C1461 1.427 . S
N1469 C1467 1.384 . S
H1470 C1476 0.930 . S
H1471 C1480 0.930 . S
H1472 C1485 0.929 . S
H1473 C1483 0.929 . S
H1474 C1478 0.929 . S
H1475 C1484 0.929 . S
C1476 H1470 0.930 . S
C1476 C1477 1.367 . S
C1476 C1484 1.378 . S
C1477 C1476 1.367 . S
C1477 C1485 1.433 . S
C1478 H1474 0.929 . S
C1478 C1480 1.378 . S
C1478 C1482 1.350 . S
C1479 C1482 1.463 . S
C1479 C1484 1.350 . S
C1479 N1487 1.427 . S
C1480 H1471 0.930 . S
C1480 C1478 1.378 . S
C1480 C1481 1.367 . S
C1481 C1480 1.367 . S
C1481 C1483 1.433 . S
C1482 C1478 1.350 . S
C1482 C1479 1.463 . S
C1482 N1486 1.427 . S
C1483 H1473 0.929 . S
C1483 C1481 1.433 . S
C1483 N1486 1.384 . S
C1484 H1475 0.929 . S
C1484 C1476 1.378 . S
C1484 C1479 1.350 . S
C1485 H1472 0.929 . S
C1485 C1477 1.433 . S
C1485 N1487 1.384 . S
N1486 C1482 1.427 . S
N1486 C1483 1.384 . S
N1487 C1479 1.427 . S
N1487 C1485 1.384 . S
H1488 C1494 0.930 . S
H1489 C1498 0.930 . S
H1490 C1503 0.929 . S
H1491 C1501 0.929 . S
H1492 C1496 0.929 . S
H1493 C1502 0.929 . S
C1494 H1488 0.930 . S
C1494 C1495 1.367 . S
C1494 C1502 1.378 . S
C1495 C1494 1.367 . S
C1495 C1503 1.433 . S
C1496 H1492 0.929 . S
C1496 C1498 1.378 . S
C1496 C1500 1.350 . S
C1497 C1500 1.463 . S
C1497 C1502 1.350 . S
C1497 N1505 1.427 . S
C1498 H1489 0.930 . S
C1498 C1496 1.378 . S
C1498 C1499 1.367 . S
C1499 C1498 1.367 . S
C1499 C1501 1.433 . S
C1500 C1496 1.350 . S
C1500 C1497 1.463 . S
C1500 N1504 1.427 . S
C1501 H1491 0.929 . S
C1501 C1499 1.433 . S
C1501 N1504 1.384 . S
C1502 H1493 0.929 . S
C1502 C1494 1.378 . S
C1502 C1497 1.350 . S
C1503 H1490 0.929 . S
C1503 C1495 1.433 . S
C1503 N1505 1.384 . S
N1504 C1500 1.427 . S
N1504 C1501 1.384 . S
N1505 C1497 1.427 . S
N1505 C1503 1.384 . S
H1506 C1512 0.930 . S
H1507 C1516 0.930 . S
H1508 C1521 0.929 . S
H1509 C1519 0.929 . S
H1510 C1514 0.929 . S
H1511 C1520 0.929 . S
C1512 H1506 0.930 . S
C1512 C1513 1.367 . S
C1512 C1520 1.378 . S
C1513 C1512 1.367 . S
C1513 C1521 1.433 . S
C1514 H1510 0.929 . S
C1514 C1516 1.378 . S
C1514 C1518 1.350 . S
C1515 C1518 1.463 . S
C1515 C1520 1.350 . S
C1515 N1523 1.427 . S
C1516 H1507 0.930 . S
C1516 C1514 1.378 . S
C1516 C1517 1.367 . S
C1517 C1516 1.367 . S
C1517 C1519 1.433 . S
C1518 C1514 1.350 . S
C1518 C1515 1.463 . S
C1518 N1522 1.427 . S
C1519 H1509 0.929 . S
C1519 C1517 1.433 . S
C1519 N1522 1.384 . S
C1520 H1511 0.929 . S
C1520 C1512 1.378 . S
C1520 C1515 1.350 . S
C1521 H1508 0.929 . S
C1521 C1513 1.433 . S
C1521 N1523 1.384 . S
N1522 C1518 1.427 . S
N1522 C1519 1.384 . S
N1523 C1515 1.427 . S
N1523 C1521 1.384 . S
H1524 C1530 0.930 . S
H1525 C1534 0.930 . S
H1526 C1539 0.929 . S
H1527 C1537 0.929 . S
H1528 C1532 0.929 . S
H1529 C1538 0.929 . S
C1530 H1524 0.930 . S
C1530 C1531 1.367 . S
C1530 C1538 1.378 . S
C1531 C1530 1.367 . S
C1531 C1539 1.433 . S
C1532 H1528 0.929 . S
C1532 C1534 1.378 . S
C1532 C1536 1.350 . S
C1533 C1536 1.463 . S
C1533 C1538 1.350 . S
C1533 N1541 1.427 . S
C1534 H1525 0.930 . S
C1534 C1532 1.378 . S
C1534 C1535 1.367 . S
C1535 C1534 1.367 . S
C1535 C1537 1.433 . S
C1536 C1532 1.350 . S
C1536 C1533 1.463 . S
C1536 N1540 1.427 . S
C1537 H1527 0.929 . S
C1537 C1535 1.433 . S
C1537 N1540 1.384 . S
C1538 H1529 0.929 . S
C1538 C1530 1.378 . S
C1538 C1533 1.350 . S
C1539 H1526 0.929 . S
C1539 C1531 1.433 . S
C1539 N1541 1.384 . S
N1540 C1536 1.427 . S
N1540 C1537 1.384 . S
N1541 C1533 1.427 . S
N1541 C1539 1.384 . S
H1542 C1548 0.930 . S
H1543 C1552 0.930 . S
H1544 C1557 0.929 . S
H1545 C1555 0.929 . S
H1546 C1550 0.929 . S
H1547 C1556 0.929 . S
C1548 H1542 0.930 . S
C1548 C1549 1.367 . S
C1548 C1556 1.378 . S
C1549 C1548 1.367 . S
C1549 C1557 1.433 . S
C1550 H1546 0.929 . S
C1550 C1552 1.378 . S
C1550 C1554 1.350 . S
C1551 C1554 1.463 . S
C1551 C1556 1.350 . S
C1551 N1559 1.427 . S
C1552 H1543 0.930 . S
C1552 C1550 1.378 . S
C1552 C1553 1.367 . S
C1553 C1552 1.367 . S
C1553 C1555 1.433 . S
C1554 C1550 1.350 . S
C1554 C1551 1.463 . S
C1554 N1558 1.427 . S
C1555 H1545 0.929 . S
C1555 C1553 1.433 . S
C1555 N1558 1.384 . S
C1556 H1547 0.929 . S
C1556 C1548 1.378 . S
C1556 C1551 1.350 . S
C1557 H1544 0.929 . S
C1557 C1549 1.433 . S
C1557 N1559 1.384 . S
N1558 C1554 1.427 . S
N1558 C1555 1.384 . S
N1559 C1551 1.427 . S
N1559 C1557 1.384 . S
H1560 C1566 0.930 . S
H1561 C1570 0.930 . S
H1562 C1575 0.929 1_655 S
H1563 C1573 0.929 1_455 S
H1564 C1568 0.929 . S
H1565 C1574 0.929 . S
C1566 H1560 0.930 . S
C1566 C1567 1.367 . S
C1566 C1574 1.378 . S
C1567 C1566 1.367 . S
C1567 C1575 1.433 . S
C1568 H1564 0.929 . S
C1568 C1570 1.378 . S
C1568 C1572 1.350 . S
C1569 C1572 1.463 1_465 S
C1569 C1574 1.350 . S
C1569 N1577 1.427 1_455 S
C1570 H1561 0.930 . S
C1570 C1568 1.378 . S
C1570 C1571 1.367 . S
C1571 C1570 1.367 . S
C1571 C1573 1.433 . S
C1572 C1568 1.350 . S
C1572 C1569 1.463 1_645 S
C1572 N1576 1.427 1_655 S
C1573 H1563 0.929 1_655 S
C1573 C1571 1.433 . S
C1573 N1576 1.384 1_655 S
C1574 H1565 0.929 . S
C1574 C1566 1.378 . S
C1574 C1569 1.350 . S
C1575 H1562 0.929 1_455 S
C1575 C1567 1.433 . S
C1575 N1577 1.384 1_455 S
N1576 C1572 1.427 1_455 S
N1576 C1573 1.384 1_455 S
N1577 C1569 1.427 1_655 S
N1577 C1575 1.384 1_655 S
H1578 C1584 0.930 . S
H1579 C1588 0.930 . S
H1580 C1593 0.929 1_455 S
H1581 C1591 0.929 1_655 S
H1582 C1586 0.929 . S
H1583 C1592 0.929 . S
C1584 H1578 0.930 . S
C1584 C1585 1.367 . S
C1584 C1592 1.378 . S
C1585 C1584 1.367 . S
C1585 C1593 1.433 . S
C1586 H1582 0.929 . S
C1586 C1588 1.378 . S
C1586 C1590 1.350 . S
C1587 C1590 1.463 1_655 S
C1587 C1592 1.350 . S
C1587 N1595 1.427 1_655 S
C1588 H1579 0.930 . S
C1588 C1586 1.378 . S
C1588 C1589 1.367 . S
C1589 C1588 1.367 . S
C1589 C1591 1.433 . S
C1590 C1586 1.350 . S
C1590 C1587 1.463 1_455 S
C1590 N1594 1.427 1_455 S
C1591 H1581 0.929 1_455 S
C1591 C1589 1.433 . S
C1591 N1594 1.384 1_455 S
C1592 H1583 0.929 . S
C1592 C1584 1.378 . S
C1592 C1587 1.350 . S
C1593 H1580 0.929 1_655 S
C1593 C1585 1.433 . S
C1593 N1595 1.384 1_655 S
N1594 C1590 1.427 1_655 S
N1594 C1591 1.384 1_655 S
N1595 C1587 1.427 1_455 S
N1595 C1593 1.384 1_455 S
H1596 C1602 0.930 . S
H1597 C1606 0.930 . S
H1598 C1611 0.929 . S
H1599 C1609 0.929 . S
H1600 C1604 0.929 . S
H1601 C1610 0.929 . S
C1602 H1596 0.930 . S
C1602 C1603 1.367 . S
C1602 C1610 1.378 . S
C1603 C1602 1.367 . S
C1603 C1611 1.433 . S
C1604 H1600 0.929 . S
C1604 C1606 1.378 . S
C1604 C1608 1.350 . S
C1605 C1608 1.463 1_455 S
C1605 C1610 1.350 . S
C1605 N1613 1.427 . S
C1606 H1597 0.930 . S
C1606 C1604 1.378 . S
C1606 C1607 1.367 . S
C1607 C1606 1.367 . S
C1607 C1609 1.433 . S
C1608 C1604 1.350 . S
C1608 C1605 1.463 1_655 S
C1608 N1612 1.427 . S
C1609 H1599 0.929 . S
C1609 C1607 1.433 . S
C1609 N1612 1.384 . S
C1610 H1601 0.929 . S
C1610 C1602 1.378 . S
C1610 C1605 1.350 . S
C1611 H1598 0.929 . S
C1611 C1603 1.433 . S
C1611 N1613 1.384 . S
N1612 C1608 1.427 . S
N1612 C1609 1.384 . S
N1613 C1605 1.427 . S
N1613 C1611 1.384 . S
H1614 C1620 0.930 . S
H1615 C1624 0.930 . S
H1616 C1629 0.929 1_655 S
H1617 C1627 0.929 1_455 S
H1618 C1622 0.929 1_556 S
H1619 C1628 0.929 1_554 S
C1620 H1614 0.930 . S
C1620 C1621 1.367 . S
C1620 C1628 1.378 . S
C1621 C1620 1.367 . S
C1621 C1629 1.433 . S
C1622 H1618 0.929 1_554 S
C1622 C1624 1.378 . S
C1622 C1626 1.350 . S
C1623 C1626 1.463 1_456 S
C1623 C1628 1.350 . S
C1623 N1631 1.427 1_455 S
C1624 H1615 0.930 . S
C1624 C1622 1.378 . S
C1624 C1625 1.367 . S
C1625 C1624 1.367 . S
C1625 C1627 1.433 . S
C1626 C1622 1.350 . S
C1626 C1623 1.463 1_654 S
C1626 N1630 1.427 1_655 S
C1627 H1617 0.929 1_655 S
C1627 C1625 1.433 . S
C1627 N1630 1.384 1_655 S
C1628 H1619 0.929 1_556 S
C1628 C1620 1.378 . S
C1628 C1623 1.350 . S
C1629 H1616 0.929 1_455 S
C1629 C1621 1.433 . S
C1629 N1631 1.384 1_455 S
N1630 C1626 1.427 1_455 S
N1630 C1627 1.384 1_455 S
N1631 C1623 1.427 1_655 S
N1631 C1629 1.384 1_655 S
H1632 C1638 0.930 . S
H1633 C1642 0.930 . S
H1634 C1647 0.929 . S
H1635 C1645 0.929 . S
H1636 C1640 0.929 . S
H1637 C1646 0.929 . S
C1638 H1632 0.930 . S
C1638 C1639 1.367 . S
C1638 C1646 1.378 . S
C1639 C1638 1.367 . S
C1639 C1647 1.433 . S
C1640 H1636 0.929 . S
C1640 C1642 1.378 . S
C1640 C1644 1.350 . S
C1641 C1644 1.463 . S
C1641 C1646 1.350 . S
C1641 N1649 1.427 . S
C1642 H1633 0.930 . S
C1642 C1640 1.378 . S
C1642 C1643 1.367 . S
C1643 C1642 1.367 . S
C1643 C1645 1.433 . S
C1644 C1640 1.350 . S
C1644 C1641 1.463 . S
C1644 N1648 1.427 . S
C1645 H1635 0.929 . S
C1645 C1643 1.433 . S
C1645 N1648 1.384 . S
C1646 H1637 0.929 . S
C1646 C1638 1.378 . S
C1646 C1641 1.350 . S
C1647 H1634 0.929 . S
C1647 C1639 1.433 . S
C1647 N1649 1.384 . S
N1648 C1644 1.427 . S
N1648 C1645 1.384 . S
N1649 C1641 1.427 . S
N1649 C1647 1.384 . S
H1650 C1656 0.930 . S
H1651 C1660 0.930 . S
H1652 C1665 0.929 . S
H1653 C1663 0.929 . S
H1654 C1658 0.929 . S
H1655 C1664 0.929 . S
C1656 H1650 0.930 . S
C1656 C1657 1.367 . S
C1656 C1664 1.378 . S
C1657 C1656 1.367 . S
C1657 C1665 1.433 . S
C1658 H1654 0.929 . S
C1658 C1660 1.378 . S
C1658 C1662 1.350 . S
C1659 C1662 1.463 . S
C1659 C1664 1.350 . S
C1659 N1667 1.427 . S
C1660 H1651 0.930 . S
C1660 C1658 1.378 . S
C1660 C1661 1.367 . S
C1661 C1660 1.367 . S
C1661 C1663 1.433 . S
C1662 C1658 1.350 . S
C1662 C1659 1.463 . S
C1662 N1666 1.427 . S
C1663 H1653 0.929 . S
C1663 C1661 1.433 . S
C1663 N1666 1.384 . S
C1664 H1655 0.929 . S
C1664 C1656 1.378 . S
C1664 C1659 1.350 . S
C1665 H1652 0.929 . S
C1665 C1657 1.433 . S
C1665 N1667 1.384 . S
N1666 C1662 1.427 . S
N1666 C1663 1.384 . S
N1667 C1659 1.427 . S
N1667 C1665 1.384 . S
H1668 C1674 0.930 . S
H1669 C1678 0.930 . S
H1670 C1683 0.929 . S
H1671 C1681 0.929 . S
H1672 C1676 0.929 . S
H1673 C1682 0.929 . S
C1674 H1668 0.930 . S
C1674 C1675 1.367 . S
C1674 C1682 1.378 . S
C1675 C1674 1.367 . S
C1675 C1683 1.433 . S
C1676 H1672 0.929 . S
C1676 C1678 1.378 . S
C1676 C1680 1.350 . S
C1677 C1680 1.463 . S
C1677 C1682 1.350 . S
C1677 N1685 1.427 . S
C1678 H1669 0.930 . S
C1678 C1676 1.378 . S
C1678 C1679 1.367 . S
C1679 C1678 1.367 . S
C1679 C1681 1.433 . S
C1680 C1676 1.350 . S
C1680 C1677 1.463 . S
C1680 N1684 1.427 . S
C1681 H1671 0.929 . S
C1681 C1679 1.433 . S
C1681 N1684 1.384 . S
C1682 H1673 0.929 . S
C1682 C1674 1.378 . S
C1682 C1677 1.350 . S
C1683 H1670 0.929 . S
C1683 C1675 1.433 . S
C1683 N1685 1.384 . S
N1684 C1680 1.427 . S
N1684 C1681 1.384 . S
N1685 C1677 1.427 . S
N1685 C1683 1.384 . S
H1686 C1692 0.930 . S
H1687 C1696 0.930 . S
H1688 C1701 0.929 . S
H1689 C1699 0.929 . S
H1690 C1694 0.929 . S
H1691 C1700 0.929 . S
C1692 H1686 0.930 . S
C1692 C1693 1.367 . S
C1692 C1700 1.378 . S
C1693 C1692 1.367 . S
C1693 C1701 1.433 . S
C1694 H1690 0.929 . S
C1694 C1696 1.378 . S
C1694 C1698 1.350 . S
C1695 C1698 1.463 . S
C1695 C1700 1.350 . S
C1695 N1703 1.427 . S
C1696 H1687 0.930 . S
C1696 C1694 1.378 . S
C1696 C1697 1.367 . S
C1697 C1696 1.367 . S
C1697 C1699 1.433 . S
C1698 C1694 1.350 . S
C1698 C1695 1.463 . S
C1698 N1702 1.427 . S
C1699 H1689 0.929 . S
C1699 C1697 1.433 . S
C1699 N1702 1.384 . S
C1700 H1691 0.929 . S
C1700 C1692 1.378 . S
C1700 C1695 1.350 . S
C1701 H1688 0.929 . S
C1701 C1693 1.433 . S
C1701 N1703 1.384 . S
N1702 C1698 1.427 . S
N1702 C1699 1.384 . S
N1703 C1695 1.427 . S
N1703 C1701 1.384 . S
H1704 C1710 0.930 . S
H1705 C1714 0.930 . S
H1706 C1719 0.929 . S
H1707 C1717 0.929 . S
H1708 C1712 0.929 . S
H1709 C1718 0.929 . S
C1710 H1704 0.930 . S
C1710 C1711 1.367 . S
C1710 C1718 1.378 . S
C1711 C1710 1.367 . S
C1711 C1719 1.433 . S
C1712 H1708 0.929 . S
C1712 C1714 1.378 . S
C1712 C1716 1.350 . S
C1713 C1716 1.463 . S
C1713 C1718 1.350 . S
C1713 N1721 1.427 . S
C1714 H1705 0.930 . S
C1714 C1712 1.378 . S
C1714 C1715 1.367 . S
C1715 C1714 1.367 . S
C1715 C1717 1.433 . S
C1716 C1712 1.350 . S
C1716 C1713 1.463 . S
C1716 N1720 1.427 . S
C1717 H1707 0.929 . S
C1717 C1715 1.433 . S
C1717 N1720 1.384 . S
C1718 H1709 0.929 . S
C1718 C1710 1.378 . S
C1718 C1713 1.350 . S
C1719 H1706 0.929 . S
C1719 C1711 1.433 . S
C1719 N1721 1.384 . S
N1720 C1716 1.427 . S
N1720 C1717 1.384 . S
N1721 C1713 1.427 . S
N1721 C1719 1.384 . S
H1722 C1728 0.930 . S
H1723 C1732 0.930 . S
H1724 C1737 0.929 . S
H1725 C1735 0.929 . S
H1726 C1730 0.929 . S
H1727 C1736 0.929 . S
C1728 H1722 0.930 . S
C1728 C1729 1.367 . S
C1728 C1736 1.378 . S
C1729 C1728 1.367 . S
C1729 C1737 1.433 . S
C1730 H1726 0.929 . S
C1730 C1732 1.378 . S
C1730 C1734 1.350 . S
C1731 C1734 1.463 . S
C1731 C1736 1.350 . S
C1731 N1739 1.427 . S
C1732 H1723 0.930 . S
C1732 C1730 1.378 . S
C1732 C1733 1.367 . S
C1733 C1732 1.367 . S
C1733 C1735 1.433 . S
C1734 C1730 1.350 . S
C1734 C1731 1.463 . S
C1734 N1738 1.427 . S
C1735 H1725 0.929 . S
C1735 C1733 1.433 . S
C1735 N1738 1.384 . S
C1736 H1727 0.929 . S
C1736 C1728 1.378 . S
C1736 C1731 1.350 . S
C1737 H1724 0.929 . S
C1737 C1729 1.433 . S
C1737 N1739 1.384 . S
N1738 C1734 1.427 . S
N1738 C1735 1.384 . S
N1739 C1731 1.427 . S
N1739 C1737 1.384 . S
H1740 C1746 0.930 . S
H1741 C1750 0.930 . S
H1742 C1755 0.929 . S
H1743 C1753 0.929 . S
H1744 C1748 0.929 . S
H1745 C1754 0.929 . S
C1746 H1740 0.930 . S
C1746 C1747 1.367 . S
C1746 C1754 1.378 . S
C1747 C1746 1.367 . S
C1747 C1755 1.433 . S
C1748 H1744 0.929 . S
C1748 C1750 1.378 . S
C1748 C1752 1.350 . S
C1749 C1752 1.463 . S
C1749 C1754 1.350 . S
C1749 N1757 1.427 . S
C1750 H1741 0.930 . S
C1750 C1748 1.378 . S
C1750 C1751 1.367 . S
C1751 C1750 1.367 . S
C1751 C1753 1.433 . S
C1752 C1748 1.350 . S
C1752 C1749 1.463 . S
C1752 N1756 1.427 . S
C1753 H1743 0.929 . S
C1753 C1751 1.433 . S
C1753 N1756 1.384 . S
C1754 H1745 0.929 . S
C1754 C1746 1.378 . S
C1754 C1749 1.350 . S
C1755 H1742 0.929 . S
C1755 C1747 1.433 . S
C1755 N1757 1.384 . S
N1756 C1752 1.427 . S
N1756 C1753 1.384 . S
N1757 C1749 1.427 . S
N1757 C1755 1.384 . S
H1758 C1764 0.930 . S
H1759 C1768 0.930 . S
H1760 C1773 0.929 . S
H1761 C1771 0.929 . S
H1762 C1766 0.929 . S
H1763 C1772 0.929 . S
C1764 H1758 0.930 . S
C1764 C1765 1.367 . S
C1764 C1772 1.378 . S
C1765 C1764 1.367 . S
C1765 C1773 1.433 . S
C1766 H1762 0.929 . S
C1766 C1768 1.378 . S
C1766 C1770 1.350 . S
C1767 C1770 1.463 . S
C1767 C1772 1.350 . S
C1767 N1775 1.427 . S
C1768 H1759 0.930 . S
C1768 C1766 1.378 . S
C1768 C1769 1.367 . S
C1769 C1768 1.367 . S
C1769 C1771 1.433 . S
C1770 C1766 1.350 . S
C1770 C1767 1.463 . S
C1770 N1774 1.427 . S
C1771 H1761 0.929 . S
C1771 C1769 1.433 . S
C1771 N1774 1.384 . S
C1772 H1763 0.929 . S
C1772 C1764 1.378 . S
C1772 C1767 1.350 . S
C1773 H1760 0.929 . S
C1773 C1765 1.433 . S
C1773 N1775 1.384 . S
N1774 C1770 1.427 . S
N1774 C1771 1.384 . S
N1775 C1767 1.427 . S
N1775 C1773 1.384 . S
H1776 C1782 0.930 . S
H1777 C1786 0.930 . S
H1778 C1791 0.929 . S
H1779 C1789 0.929 1_565 S
H1780 C1784 0.929 . S
H1781 C1790 0.929 . S
C1782 H1776 0.930 . S
C1782 C1783 1.367 . S
C1782 C1790 1.378 . S
C1783 C1782 1.367 . S
C1783 C1791 1.433 . S
C1784 H1780 0.929 . S
C1784 C1786 1.378 . S
C1784 C1788 1.350 . S
C1785 C1788 1.463 . S
C1785 C1790 1.350 . S
C1785 N1793 1.427 . S
C1786 H1777 0.930 . S
C1786 C1784 1.378 . S
C1786 C1787 1.367 1_545 S
C1787 C1786 1.367 1_565 S
C1787 C1789 1.433 1_565 S
C1788 C1784 1.350 . S
C1788 C1785 1.463 . S
C1788 N1792 1.427 . S
C1789 H1779 0.929 1_545 S
C1789 C1787 1.433 1_545 S
C1789 N1792 1.384 . S
C1790 H1781 0.929 . S
C1790 C1782 1.378 . S
C1790 C1785 1.350 . S
C1791 H1778 0.929 . S
C1791 C1783 1.433 . S
C1791 N1793 1.384 . S
N1792 C1788 1.427 . S
N1792 C1789 1.384 . S
N1793 C1785 1.427 . S
N1793 C1791 1.384 . S
H1794 C1800 0.930 . S
H1795 C1804 0.930 . S
H1796 C1809 0.929 . S
H1797 C1807 0.929 . S
H1798 C1802 0.929 . S
H1799 C1808 0.929 1_545 S
C1800 H1794 0.930 . S
C1800 C1801 1.367 . S
C1800 C1808 1.378 . S
C1801 C1800 1.367 . S
C1801 C1809 1.433 . S
C1802 H1798 0.929 . S
C1802 C1804 1.378 . S
C1802 C1806 1.350 . S
C1803 C1806 1.463 . S
C1803 C1808 1.350 1_545 S
C1803 N1811 1.427 1_545 S
C1804 H1795 0.930 . S
C1804 C1802 1.378 . S
C1804 C1805 1.367 . S
C1805 C1804 1.367 . S
C1805 C1807 1.433 . S
C1806 C1802 1.350 . S
C1806 C1803 1.463 . S
C1806 N1810 1.427 . S
C1807 H1797 0.929 . S
C1807 C1805 1.433 . S
C1807 N1810 1.384 . S
C1808 H1799 0.929 1_565 S
C1808 C1800 1.378 . S
C1808 C1803 1.350 1_565 S
C1809 H1796 0.929 . S
C1809 C1801 1.433 . S
C1809 N1811 1.384 . S
N1810 C1806 1.427 . S
N1810 C1807 1.384 . S
N1811 C1803 1.427 1_565 S
N1811 C1809 1.384 . S
H1812 C1818 0.930 . S
H1813 C1822 0.930 . S
H1814 C1827 0.929 . S
H1815 C1825 0.929 . S
H1816 C1820 0.929 . S
H1817 C1826 0.933 . S
C1818 H1812 0.930 . S
C1818 C1819 1.367 . S
C1818 C1826 1.378 . S
C1819 C1818 1.367 . S
C1819 C1827 1.433 . S
C1820 H1816 0.929 . S
C1820 C1822 1.378 . S
C1820 C1824 1.350 . S
C1821 C1824 1.463 . S
C1821 C1826 1.350 1_545 S
C1821 N1829 1.427 1_545 S
C1822 H1813 0.930 . S
C1822 C1820 1.378 . S
C1822 C1823 1.367 . S
C1823 C1822 1.367 . S
C1823 C1825 1.433 . S
C1824 C1820 1.350 . S
C1824 C1821 1.463 . S
C1824 N1828 1.427 . S
C1825 H1815 0.929 . S
C1825 C1823 1.433 . S
C1825 N1828 1.384 . S
C1826 H1817 0.933 . S
C1826 C1818 1.378 . S
C1826 C1821 1.350 1_565 S
C1827 H1814 0.929 . S
C1827 C1819 1.433 . S
C1827 N1829 1.384 . S
N1828 C1824 1.427 . S
N1828 C1825 1.384 . S
N1829 C1821 1.427 1_565 S
N1829 C1827 1.384 . S
H1830 C1836 0.930 . S
H1831 C1840 0.930 . S
H1832 C1845 0.929 1_565 S
H1833 C1843 0.929 . S
H1834 C1838 0.929 . S
H1835 C1844 0.929 . S
C1836 H1830 0.930 . S
C1836 C1837 1.367 1_545 S
C1836 C1844 1.378 . S
C1837 C1836 1.367 1_565 S
C1837 C1845 1.433 1_565 S
C1838 H1834 0.929 . S
C1838 C1840 1.378 . S
C1838 C1842 1.350 . S
C1839 C1842 1.463 . S
C1839 C1844 1.350 . S
C1839 N1847 1.427 . S
C1840 H1831 0.930 . S
C1840 C1838 1.378 . S
C1840 C1841 1.367 . S
C1841 C1840 1.367 . S
C1841 C1843 1.433 . S
C1842 C1838 1.350 . S
C1842 C1839 1.463 . S
C1842 N1846 1.427 . S
C1843 H1833 0.929 . S
C1843 C1841 1.433 . S
C1843 N1846 1.384 . S
C1844 H1835 0.929 . S
C1844 C1836 1.378 . S
C1844 C1839 1.350 . S
C1845 H1832 0.929 1_545 S
C1845 C1837 1.433 1_545 S
C1845 N1847 1.384 . S
N1846 C1842 1.427 . S
N1846 C1843 1.384 . S
N1847 C1839 1.427 . S
N1847 C1845 1.384 . S
H1848 C1854 0.930 . S
H1849 C1858 0.930 1_545 S
H1850 C1863 0.929 . S
H1851 C1861 0.929 . S
H1852 C1856 0.929 . S
H1853 C1862 0.929 . S
C1854 H1848 0.930 . S
C1854 C1855 1.367 . S
C1854 C1862 1.378 . S
C1855 C1854 1.367 . S
C1855 C1863 1.433 . S
C1856 H1852 0.929 . S
C1856 C1858 1.378 . S
C1856 C1860 1.350 . S
C1857 C1860 1.463 . S
C1857 C1862 1.350 . S
C1857 N1865 1.427 . S
C1858 H1849 0.930 1_565 S
C1858 C1856 1.378 . S
C1858 C1859 1.367 1_565 S
C1859 C1858 1.367 1_545 S
C1859 C1861 1.433 1_545 S
C1860 C1856 1.350 . S
C1860 C1857 1.463 . S
C1860 N1864 1.427 . S
C1861 H1851 0.929 . S
C1861 C1859 1.433 1_565 S
C1861 N1864 1.384 . S
C1862 H1853 0.929 . S
C1862 C1854 1.378 . S
C1862 C1857 1.350 . S
C1863 H1850 0.929 . S
C1863 C1855 1.433 . S
C1863 N1865 1.384 . S
N1864 C1860 1.427 . S
N1864 C1861 1.384 . S
N1865 C1857 1.427 . S
N1865 C1863 1.384 . S
H1866 C1872 0.930 . S
H1867 C1876 0.930 . S
H1868 C1881 0.929 . S
H1869 C1879 0.929 . S
H1870 C1874 0.929 . S
H1871 C1880 0.929 . S
C1872 H1866 0.930 . S
C1872 C1873 1.367 . S
C1872 C1880 1.378 . S
C1873 C1872 1.367 . S
C1873 C1881 1.433 . S
C1874 H1870 0.929 . S
C1874 C1876 1.378 . S
C1874 C1878 1.350 . S
C1875 C1878 1.463 . S
C1875 C1880 1.350 1_565 S
C1875 N1883 1.427 . S
C1876 H1867 0.930 . S
C1876 C1874 1.378 . S
C1876 C1877 1.367 . S
C1877 C1876 1.367 . S
C1877 C1879 1.433 . S
C1878 C1874 1.350 . S
C1878 C1875 1.463 . S
C1878 N1882 1.427 . S
C1879 H1869 0.929 . S
C1879 C1877 1.433 . S
C1879 N1882 1.384 . S
C1880 H1871 0.929 . S
C1880 C1872 1.378 . S
C1880 C1875 1.350 1_545 S
C1881 H1868 0.929 . S
C1881 C1873 1.433 . S
C1881 N1883 1.384 1_545 S
N1882 C1878 1.427 . S
N1882 C1879 1.384 . S
N1883 C1875 1.427 . S
N1883 C1881 1.384 1_565 S
H1884 C1890 0.930 . S
H1885 C1894 0.930 . S
H1886 C1899 0.929 . S
H1887 C1897 0.929 . S
H1888 C1892 0.929 . S
H1889 C1898 0.929 . S
C1890 H1884 0.930 . S
C1890 C1891 1.367 . S
C1890 C1898 1.378 . S
C1891 C1890 1.367 . S
C1891 C1899 1.433 . S
C1892 H1888 0.929 . S
C1892 C1894 1.378 . S
C1892 C1896 1.350 . S
C1893 C1896 1.463 . S
C1893 C1898 1.350 1_565 S
C1893 N1901 1.431 . S
C1894 H1885 0.930 . S
C1894 C1892 1.378 . S
C1894 C1895 1.367 . S
C1895 C1894 1.367 . S
C1895 C1897 1.433 . S
C1896 C1892 1.350 . S
C1896 C1893 1.463 . S
C1896 N1900 1.427 . S
C1897 H1887 0.929 . S
C1897 C1895 1.433 . S
C1897 N1900 1.384 . S
C1898 H1889 0.929 . S
C1898 C1890 1.378 . S
C1898 C1893 1.350 1_545 S
C1899 H1886 0.929 . S
C1899 C1891 1.433 . S
C1899 N1901 1.371 1_545 S
N1900 C1896 1.427 . S
N1900 C1897 1.384 . S
N1901 C1893 1.431 . S
N1901 C1899 1.371 1_565 S
H1902 C1908 0.930 . S
H1903 C1912 0.930 . S
H1904 C1917 0.929 . S
H1905 C1915 0.929 1_545 S
H1906 C1910 0.929 . S
H1907 C1916 0.929 . S
C1908 H1902 0.930 . S
C1908 C1909 1.367 . S
C1908 C1916 1.378 . S
C1909 C1908 1.367 . S
C1909 C1917 1.433 . S
C1910 H1906 0.929 . S
C1910 C1912 1.378 . S
C1910 C1914 1.350 . S
C1911 C1914 1.463 . S
C1911 C1916 1.350 . S
C1911 N1919 1.427 . S
C1912 H1903 0.930 . S
C1912 C1910 1.378 . S
C1912 C1913 1.367 1_565 S
C1913 C1912 1.367 1_545 S
C1913 C1915 1.433 1_545 S
C1914 C1910 1.350 . S
C1914 C1911 1.463 . S
C1914 N1918 1.427 . S
C1915 H1905 0.929 1_565 S
C1915 C1913 1.433 1_565 S
C1915 N1918 1.384 . S
C1916 H1907 0.929 . S
C1916 C1908 1.378 . S
C1916 C1911 1.350 . S
C1917 H1904 0.929 . S
C1917 C1909 1.433 . S
C1917 N1919 1.384 . S
N1918 C1914 1.427 . S
N1918 C1915 1.384 . S
N1919 C1911 1.427 . S
N1919 C1917 1.384 . S
H1920 C1926 0.930 . S
H1921 C1930 0.930 . S
H1922 C1935 0.929 . S
H1923 C1933 0.929 . S
H1924 C1928 0.929 . S
H1925 C1934 0.929 . S
C1926 H1920 0.930 . S
C1926 C1927 1.367 . S
C1926 C1934 1.378 . S
C1927 C1926 1.367 . S
C1927 C1935 1.433 . S
C1928 H1924 0.929 . S
C1928 C1930 1.378 . S
C1928 C1932 1.350 . S
C1929 C1932 1.463 . S
C1929 C1934 1.350 . S
C1929 N1937 1.427 . S
C1930 H1921 0.930 . S
C1930 C1928 1.378 . S
C1930 C1931 1.367 . S
C1931 C1930 1.367 . S
C1931 C1933 1.433 . S
C1932 C1928 1.350 . S
C1932 C1929 1.463 . S
C1932 N1936 1.427 . S
C1933 H1923 0.929 . S
C1933 C1931 1.433 . S
C1933 N1936 1.384 . S
C1934 H1925 0.929 . S
C1934 C1926 1.378 . S
C1934 C1929 1.350 . S
C1935 H1922 0.929 . S
C1935 C1927 1.433 . S
C1935 N1937 1.384 . S
N1936 C1932 1.427 . S
N1936 C1933 1.384 . S
N1937 C1929 1.427 . S
N1937 C1935 1.384 . S
H1938 C1944 0.930 . S
H1939 C1948 0.930 . S
H1940 C1953 0.929 . S
H1941 C1951 0.929 . S
H1942 C1946 0.929 . S
H1943 C1952 0.929 . S
C1944 H1938 0.930 . S
C1944 C1945 1.367 . S
C1944 C1952 1.378 . S
C1945 C1944 1.367 . S
C1945 C1953 1.433 . S
C1946 H1942 0.929 . S
C1946 C1948 1.378 . S
C1946 C1950 1.350 . S
C1947 C1950 1.463 . S
C1947 C1952 1.350 . S
C1947 N1955 1.427 . S
C1948 H1939 0.930 . S
C1948 C1946 1.378 . S
C1948 C1949 1.367 . S
C1949 C1948 1.367 . S
C1949 C1951 1.433 . S
C1950 C1946 1.350 . S
C1950 C1947 1.463 . S
C1950 N1954 1.427 . S
C1951 H1941 0.929 . S
C1951 C1949 1.433 . S
C1951 N1954 1.384 . S
C1952 H1943 0.929 . S
C1952 C1944 1.378 . S
C1952 C1947 1.350 . S
C1953 H1940 0.929 . S
C1953 C1945 1.433 . S
C1953 N1955 1.384 . S
N1954 C1950 1.427 . S
N1954 C1951 1.384 . S
N1955 C1947 1.427 . S
N1955 C1953 1.384 . S
H1956 C1962 0.930 . S
H1957 C1966 0.930 . S
H1958 C1971 0.929 . S
H1959 C1969 0.929 . S
H1960 C1964 0.929 . S
H1961 C1970 0.929 . S
C1962 H1956 0.930 . S
C1962 C1963 1.367 . S
C1962 C1970 1.378 . S
C1963 C1962 1.367 . S
C1963 C1971 1.433 . S
C1964 H1960 0.929 . S
C1964 C1966 1.378 . S
C1964 C1968 1.350 . S
C1965 C1968 1.463 . S
C1965 C1970 1.350 . S
C1965 N1973 1.427 . S
C1966 H1957 0.930 . S
C1966 C1964 1.378 . S
C1966 C1967 1.367 . S
C1967 C1966 1.367 . S
C1967 C1969 1.433 . S
C1968 C1964 1.350 . S
C1968 C1965 1.463 . S
C1968 N1972 1.427 . S
C1969 H1959 0.929 . S
C1969 C1967 1.433 . S
C1969 N1972 1.384 . S
C1970 H1961 0.929 . S
C1970 C1962 1.378 . S
C1970 C1965 1.350 . S
C1971 H1958 0.929 . S
C1971 C1963 1.433 . S
C1971 N1973 1.384 . S
N1972 C1968 1.427 . S
N1972 C1969 1.384 . S
N1973 C1965 1.427 . S
N1973 C1971 1.384 . S
H1974 C1980 0.930 . S
H1975 C1984 0.930 . S
H1976 C1989 0.929 . S
H1977 C1987 0.929 . S
H1978 C1982 0.929 . S
H1979 C1988 0.929 . S
C1980 H1974 0.930 . S
C1980 C1981 1.367 . S
C1980 C1988 1.378 . S
C1981 C1980 1.367 . S
C1981 C1989 1.433 . S
C1982 H1978 0.929 . S
C1982 C1984 1.378 . S
C1982 C1986 1.350 . S
C1983 C1986 1.463 . S
C1983 C1988 1.350 . S
C1983 N1991 1.427 . S
C1984 H1975 0.930 . S
C1984 C1982 1.378 . S
C1984 C1985 1.367 . S
C1985 C1984 1.367 . S
C1985 C1987 1.433 . S
C1986 C1982 1.350 . S
C1986 C1983 1.463 . S
C1986 N1990 1.427 . S
C1987 H1977 0.929 . S
C1987 C1985 1.433 . S
C1987 N1990 1.384 . S
C1988 H1979 0.929 . S
C1988 C1980 1.378 . S
C1988 C1983 1.350 . S
C1989 H1976 0.929 . S
C1989 C1981 1.433 . S
C1989 N1991 1.384 . S
N1990 C1986 1.427 . S
N1990 C1987 1.384 . S
N1991 C1983 1.427 . S
N1991 C1989 1.384 . S
H1992 C1998 0.930 . S
H1993 C2002 0.930 . S
H1994 C2007 0.929 . S
H1995 C2005 0.929 . S
H1996 C2000 0.929 . S
H1997 C2006 0.929 . S
C1998 H1992 0.930 . S
C1998 C1999 1.367 . S
C1998 C2006 1.378 . S
C1999 C1998 1.367 . S
C1999 C2007 1.433 . S
C2000 H1996 0.929 . S
C2000 C2002 1.378 . S
C2000 C2004 1.350 . S
C2001 C2004 1.463 . S
C2001 C2006 1.350 . S
C2001 N2009 1.427 . S
C2002 H1993 0.930 . S
C2002 C2000 1.378 . S
C2002 C2003 1.367 . S
C2003 C2002 1.367 . S
C2003 C2005 1.433 . S
C2004 C2000 1.350 . S
C2004 C2001 1.463 . S
C2004 N2008 1.427 . S
C2005 H1995 0.929 . S
C2005 C2003 1.433 . S
C2005 N2008 1.384 . S
C2006 H1997 0.929 . S
C2006 C1998 1.378 . S
C2006 C2001 1.350 . S
C2007 H1994 0.929 . S
C2007 C1999 1.433 . S
C2007 N2009 1.384 . S
N2008 C2004 1.427 . S
N2008 C2005 1.384 . S
N2009 C2001 1.427 . S
N2009 C2007 1.384 . S
H2010 C2016 0.930 . S
H2011 C2020 0.930 . S
H2012 C2025 0.929 . S
H2013 C2023 0.929 . S
H2014 C2018 0.929 . S
H2015 C2024 0.929 . S
C2016 H2010 0.930 . S
C2016 C2017 1.367 . S
C2016 C2024 1.378 . S
C2017 C2016 1.367 . S
C2017 C2025 1.433 . S
C2018 H2014 0.929 . S
C2018 C2020 1.378 . S
C2018 C2022 1.350 . S
C2019 C2022 1.463 . S
C2019 C2024 1.350 . S
C2019 N2027 1.427 . S
C2020 H2011 0.930 . S
C2020 C2018 1.378 . S
C2020 C2021 1.367 . S
C2021 C2020 1.367 . S
C2021 C2023 1.433 . S
C2022 C2018 1.350 . S
C2022 C2019 1.463 . S
C2022 N2026 1.427 . S
C2023 H2013 0.929 . S
C2023 C2021 1.433 . S
C2023 N2026 1.384 . S
C2024 H2015 0.929 . S
C2024 C2016 1.378 . S
C2024 C2019 1.350 . S
C2025 H2012 0.929 . S
C2025 C2017 1.433 . S
C2025 N2027 1.384 . S
N2026 C2022 1.427 . S
N2026 C2023 1.384 . S
N2027 C2019 1.427 . S
N2027 C2025 1.384 . S
H2028 C2034 0.930 . S
H2029 C2038 0.930 . S
H2030 C2043 0.929 . S
H2031 C2041 0.929 . S
H2032 C2036 0.929 . S
H2033 C2042 0.929 . S
C2034 H2028 0.930 . S
C2034 C2035 1.367 . S
C2034 C2042 1.378 . S
C2035 C2034 1.367 . S
C2035 C2043 1.433 . S
C2036 H2032 0.929 . S
C2036 C2038 1.378 . S
C2036 C2040 1.350 . S
C2037 C2040 1.463 . S
C2037 C2042 1.350 . S
C2037 N2045 1.427 . S
C2038 H2029 0.930 . S
C2038 C2036 1.378 . S
C2038 C2039 1.367 . S
C2039 C2038 1.367 . S
C2039 C2041 1.433 . S
C2040 C2036 1.350 . S
C2040 C2037 1.463 . S
C2040 N2044 1.427 . S
C2041 H2031 0.929 . S
C2041 C2039 1.433 . S
C2041 N2044 1.384 . S
C2042 H2033 0.929 . S
C2042 C2034 1.378 . S
C2042 C2037 1.350 . S
C2043 H2030 0.929 . S
C2043 C2035 1.433 . S
C2043 N2045 1.384 . S
N2044 C2040 1.427 . S
N2044 C2041 1.384 . S
N2045 C2037 1.427 . S
N2045 C2043 1.384 . S
H2046 C2052 0.930 . S
H2047 C2056 0.930 . S
H2048 C2061 0.929 . S
H2049 C2059 0.929 . S
H2050 C2054 0.929 . S
H2051 C2060 0.929 . S
C2052 H2046 0.930 . S
C2052 C2053 1.367 . S
C2052 C2060 1.378 . S
C2053 C2052 1.367 . S
C2053 C2061 1.433 . S
C2054 H2050 0.929 . S
C2054 C2056 1.378 . S
C2054 C2058 1.350 . S
C2055 C2058 1.463 . S
C2055 C2060 1.350 . S
C2055 N2063 1.427 . S
C2056 H2047 0.930 . S
C2056 C2054 1.378 . S
C2056 C2057 1.367 . S
C2057 C2056 1.367 . S
C2057 C2059 1.433 . S
C2058 C2054 1.350 . S
C2058 C2055 1.463 . S
C2058 N2062 1.427 . S
C2059 H2049 0.929 . S
C2059 C2057 1.433 . S
C2059 N2062 1.384 . S
C2060 H2051 0.929 . S
C2060 C2052 1.378 . S
C2060 C2055 1.350 . S
C2061 H2048 0.929 . S
C2061 C2053 1.433 . S
C2061 N2063 1.384 . S
N2062 C2058 1.427 . S
N2062 C2059 1.384 . S
N2063 C2055 1.427 . S
N2063 C2061 1.384 . S
H2064 C2070 0.930 . S
H2065 C2074 0.930 . S
H2066 C2079 0.929 1_565 S
H2067 C2077 0.929 . S
H2068 C2072 0.929 . S
H2069 C2078 0.929 . S
C2070 H2064 0.930 . S
C2070 C2071 1.367 1_545 S
C2070 C2078 1.378 . S
C2071 C2070 1.367 1_565 S
C2071 C2079 1.433 1_565 S
C2072 H2068 0.929 . S
C2072 C2074 1.378 . S
C2072 C2076 1.350 . S
C2073 C2076 1.463 . S
C2073 C2078 1.350 . S
C2073 N2081 1.427 . S
C2074 H2065 0.930 . S
C2074 C2072 1.378 . S
C2074 C2075 1.367 . S
C2075 C2074 1.367 . S
C2075 C2077 1.433 . S
C2076 C2072 1.350 . S
C2076 C2073 1.463 . S
C2076 N2080 1.427 . S
C2077 H2067 0.929 . S
C2077 C2075 1.433 . S
C2077 N2080 1.384 . S
C2078 H2069 0.929 . S
C2078 C2070 1.378 . S
C2078 C2073 1.350 . S
C2079 H2066 0.929 1_545 S
C2079 C2071 1.433 1_545 S
C2079 N2081 1.384 . S
N2080 C2076 1.427 . S
N2080 C2077 1.384 . S
N2081 C2073 1.427 . S
N2081 C2079 1.384 . S
H2082 C2088 0.930 . S
H2083 C2092 0.930 . S
H2084 C2097 0.929 . S
H2085 C2095 0.929 . S
H2086 C2090 0.929 . S
H2087 C2096 0.929 1_545 S
C2088 H2082 0.930 . S
C2088 C2089 1.367 . S
C2088 C2096 1.378 . S
C2089 C2088 1.367 . S
C2089 C2097 1.433 . S
C2090 H2086 0.929 . S
C2090 C2092 1.378 . S
C2090 C2094 1.350 . S
C2091 C2094 1.463 . S
C2091 C2096 1.350 1_545 S
C2091 N2099 1.427 1_545 S
C2092 H2083 0.930 . S
C2092 C2090 1.378 . S
C2092 C2093 1.367 . S
C2093 C2092 1.367 . S
C2093 C2095 1.433 . S
C2094 C2090 1.350 . S
C2094 C2091 1.463 . S
C2094 N2098 1.427 . S
C2095 H2085 0.929 . S
C2095 C2093 1.433 . S
C2095 N2098 1.384 . S
C2096 H2087 0.929 1_565 S
C2096 C2088 1.378 . S
C2096 C2091 1.350 1_565 S
C2097 H2084 0.929 . S
C2097 C2089 1.433 . S
C2097 N2099 1.384 . S
N2098 C2094 1.427 . S
N2098 C2095 1.384 . S
N2099 C2091 1.427 1_565 S
N2099 C2097 1.384 . S
H2100 C2106 0.930 . S
H2101 C2110 0.930 . S
H2102 C2115 0.929 . S
H2103 C2113 0.929 . S
H2104 C2108 0.929 . S
H2105 C2114 0.929 . S
C2106 H2100 0.930 . S
C2106 C2107 1.367 . S
C2106 C2114 1.378 1_565 S
C2107 C2106 1.367 . S
C2107 C2115 1.433 . S
C2108 H2104 0.929 . S
C2108 C2110 1.378 . S
C2108 C2112 1.350 . S
C2109 C2112 1.463 . S
C2109 C2114 1.350 . S
C2109 N2117 1.427 1_545 S
C2110 H2101 0.930 . S
C2110 C2108 1.378 . S
C2110 C2111 1.367 . S
C2111 C2110 1.367 . S
C2111 C2113 1.433 . S
C2112 C2108 1.350 . S
C2112 C2109 1.463 . S
C2112 N2116 1.427 . S
C2113 H2103 0.929 . S
C2113 C2111 1.433 . S
C2113 N2116 1.384 . S
C2114 H2105 0.929 . S
C2114 C2106 1.378 1_545 S
C2114 C2109 1.350 . S
C2115 H2102 0.929 . S
C2115 C2107 1.433 . S
C2115 N2117 1.384 . S
N2116 C2112 1.427 . S
N2116 C2113 1.384 . S
N2117 C2109 1.427 1_565 S
N2117 C2115 1.384 . S
H2118 C2124 0.930 . S
H2119 C2128 0.930 . S
H2120 C2133 0.929 . S
H2121 C2131 0.929 1_565 S
H2122 C2126 0.929 . S
H2123 C2132 0.929 . S
C2124 H2118 0.930 . S
C2124 C2125 1.367 . S
C2124 C2132 1.378 . S
C2125 C2124 1.367 . S
C2125 C2133 1.433 . S
C2126 H2122 0.929 . S
C2126 C2128 1.378 . S
C2126 C2130 1.350 . S
C2127 C2130 1.463 . S
C2127 C2132 1.350 . S
C2127 N2135 1.427 . S
C2128 H2119 0.930 . S
C2128 C2126 1.378 . S
C2128 C2129 1.367 1_545 S
C2129 C2128 1.367 1_565 S
C2129 C2131 1.433 1_565 S
C2130 C2126 1.350 . S
C2130 C2127 1.463 . S
C2130 N2134 1.427 . S
C2131 H2121 0.929 1_545 S
C2131 C2129 1.433 1_545 S
C2131 N2134 1.384 . S
C2132 H2123 0.929 . S
C2132 C2124 1.378 . S
C2132 C2127 1.350 . S
C2133 H2120 0.929 . S
C2133 C2125 1.433 . S
C2133 N2135 1.384 . S
N2134 C2130 1.427 . S
N2134 C2131 1.384 . S
N2135 C2127 1.427 . S
N2135 C2133 1.384 . S
H2136 C2142 0.930 1_545 S
H2137 C2146 0.930 . S
H2138 C2151 0.929 . S
H2139 C2149 0.929 . S
H2140 C2144 0.929 . S
H2141 C2150 0.929 . S
C2142 H2136 0.930 1_565 S
C2142 C2143 1.367 1_565 S
C2142 C2150 1.378 . S
C2143 C2142 1.367 1_545 S
C2143 C2151 1.433 1_545 S
C2144 H2140 0.929 . S
C2144 C2146 1.378 . S
C2144 C2148 1.350 . S
C2145 C2148 1.463 . S
C2145 C2150 1.350 . S
C2145 N2153 1.427 . S
C2146 H2137 0.930 . S
C2146 C2144 1.378 . S
C2146 C2147 1.367 . S
C2147 C2146 1.367 . S
C2147 C2149 1.433 . S
C2148 C2144 1.350 . S
C2148 C2145 1.463 . S
C2148 N2152 1.427 . S
C2149 H2139 0.929 . S
C2149 C2147 1.433 . S
C2149 N2152 1.384 . S
C2150 H2141 0.929 . S
C2150 C2142 1.378 . S
C2150 C2145 1.350 . S
C2151 H2138 0.929 . S
C2151 C2143 1.433 1_565 S
C2151 N2153 1.384 . S
N2152 C2148 1.427 . S
N2152 C2149 1.384 . S
N2153 C2145 1.427 . S
N2153 C2151 1.384 . S
H2154 C2160 0.930 . S
H2155 C2164 0.930 . S
H2156 C2169 0.929 . S
H2157 C2167 0.929 . S
H2158 C2162 0.928 . S
H2159 C2168 0.929 . S
C2160 H2154 0.930 . S
C2160 C2161 1.367 . S
C2160 C2168 1.378 . S
C2161 C2160 1.367 . S
C2161 C2169 1.433 . S
C2162 H2158 0.928 . S
C2162 C2164 1.378 1_565 S
C2162 C2166 1.350 . S
C2163 C2166 1.463 . S
C2163 C2168 1.350 . S
C2163 N2171 1.427 . S
C2164 H2155 0.930 . S
C2164 C2162 1.378 1_545 S
C2164 C2165 1.367 . S
C2165 C2164 1.367 . S
C2165 C2167 1.433 . S
C2166 C2162 1.350 . S
C2166 C2163 1.463 . S
C2166 N2170 1.427 1_565 S
C2167 H2157 0.929 . S
C2167 C2165 1.433 . S
C2167 N2170 1.384 . S
C2168 H2159 0.929 . S
C2168 C2160 1.378 . S
C2168 C2163 1.350 . S
C2169 H2156 0.929 . S
C2169 C2161 1.433 . S
C2169 N2171 1.384 . S
N2170 C2166 1.427 1_545 S
N2170 C2167 1.384 . S
N2171 C2163 1.427 . S
N2171 C2169 1.384 . S
H2172 C2178 0.930 . S
H2173 C2182 0.930 . S
H2174 C2187 0.929 . S
H2175 C2185 0.929 . S
H2176 C2180 0.929 1_565 S
H2177 C2186 0.929 . S
C2178 H2172 0.930 . S
C2178 C2179 1.367 . S
C2178 C2186 1.378 . S
C2179 C2178 1.367 . S
C2179 C2187 1.433 . S
C2180 H2176 0.929 1_545 S
C2180 C2182 1.378 . S
C2180 C2184 1.350 1_545 S
C2181 C2184 1.463 . S
C2181 C2186 1.350 . S
C2181 N2189 1.427 . S
C2182 H2173 0.930 . S
C2182 C2180 1.378 . S
C2182 C2183 1.367 . S
C2183 C2182 1.367 . S
C2183 C2185 1.433 . S
C2184 C2180 1.350 1_565 S
C2184 C2181 1.463 . S
C2184 N2188 1.427 1_565 S
C2185 H2175 0.929 . S
C2185 C2183 1.433 . S
C2185 N2188 1.384 . S
C2186 H2177 0.929 . S
C2186 C2178 1.378 . S
C2186 C2181 1.350 . S
C2187 H2174 0.929 . S
C2187 C2179 1.433 . S
C2187 N2189 1.384 . S
N2188 C2184 1.427 1_545 S
N2188 C2185 1.384 . S
N2189 C2181 1.427 . S
N2189 C2187 1.384 . S
H2190 C2196 0.930 . S
H2191 C2200 0.930 . S
H2192 C2205 0.929 1_545 S
H2193 C2203 0.929 . S
H2194 C2198 0.929 . S
H2195 C2204 0.929 . S
C2196 H2190 0.930 . S
C2196 C2197 1.367 1_565 S
C2196 C2204 1.378 . S
C2197 C2196 1.367 1_545 S
C2197 C2205 1.433 1_545 S
C2198 H2194 0.929 . S
C2198 C2200 1.378 . S
C2198 C2202 1.350 . S
C2199 C2202 1.463 . S
C2199 C2204 1.350 . S
C2199 N2207 1.427 . S
C2200 H2191 0.930 . S
C2200 C2198 1.378 . S
C2200 C2201 1.367 . S
C2201 C2200 1.367 . S
C2201 C2203 1.433 . S
C2202 C2198 1.350 . S
C2202 C2199 1.463 . S
C2202 N2206 1.427 . S
C2203 H2193 0.929 . S
C2203 C2201 1.433 . S
C2203 N2206 1.384 . S
C2204 H2195 0.929 . S
C2204 C2196 1.378 . S
C2204 C2199 1.350 . S
C2205 H2192 0.929 1_565 S
C2205 C2197 1.433 1_565 S
C2205 N2207 1.384 . S
N2206 C2202 1.427 . S
N2206 C2203 1.384 . S
N2207 C2199 1.427 . S
N2207 C2205 1.384 . S
H2208 C2214 0.930 . S
H2209 C2218 0.930 . S
H2210 C2223 0.929 . S
H2211 C2221 0.929 . S
H2212 C2216 0.929 . S
H2213 C2222 0.929 . S
C2214 H2208 0.930 . S
C2214 C2215 1.367 . S
C2214 C2222 1.378 . S
C2215 C2214 1.367 . S
C2215 C2223 1.433 . S
C2216 H2212 0.929 . S
C2216 C2218 1.378 . S
C2216 C2220 1.350 . S
C2217 C2220 1.463 . S
C2217 C2222 1.350 . S
C2217 N2225 1.427 . S
C2218 H2209 0.930 . S
C2218 C2216 1.378 . S
C2218 C2219 1.367 . S
C2219 C2218 1.367 . S
C2219 C2221 1.433 . S
C2220 C2216 1.350 . S
C2220 C2217 1.463 . S
C2220 N2224 1.427 . S
C2221 H2211 0.929 . S
C2221 C2219 1.433 . S
C2221 N2224 1.384 . S
C2222 H2213 0.929 . S
C2222 C2214 1.378 . S
C2222 C2217 1.350 . S
C2223 H2210 0.929 . S
C2223 C2215 1.433 . S
C2223 N2225 1.384 . S
N2224 C2220 1.427 . S
N2224 C2221 1.384 . S
N2225 C2217 1.427 . S
N2225 C2223 1.384 . S
H2226 C2232 0.930 1_545 S
H2227 C2236 0.930 . S
H2228 C2241 0.929 . S
H2229 C2239 0.929 . S
H2230 C2234 0.929 . S
H2231 C2240 0.929 . S
C2232 H2226 0.930 1_565 S
C2232 C2233 1.367 . S
C2232 C2240 1.378 . S
C2233 C2232 1.367 . S
C2233 C2241 1.433 . S
C2234 H2230 0.929 . S
C2234 C2236 1.378 . S
C2234 C2238 1.350 . S
C2235 C2238 1.463 . S
C2235 C2240 1.350 . S
C2235 N2243 1.427 . S
C2236 H2227 0.930 . S
C2236 C2234 1.378 . S
C2236 C2237 1.367 . S
C2237 C2236 1.367 . S
C2237 C2239 1.433 . S
C2238 C2234 1.350 . S
C2238 C2235 1.463 . S
C2238 N2242 1.427 . S
C2239 H2229 0.929 . S
C2239 C2237 1.433 . S
C2239 N2242 1.384 . S
C2240 H2231 0.929 . S
C2240 C2232 1.378 . S
C2240 C2235 1.350 . S
C2241 H2228 0.929 . S
C2241 C2233 1.433 . S
C2241 N2243 1.384 . S
N2242 C2238 1.427 . S
N2242 C2239 1.384 . S
N2243 C2235 1.427 . S
N2243 C2241 1.384 . S
H2244 C2250 0.930 . S
H2245 C2254 0.930 . S
H2246 C2259 0.929 . S
H2247 C2257 0.929 . S
H2248 C2252 0.929 . S
H2249 C2258 0.929 . S
C2250 H2244 0.930 . S
C2250 C2251 1.367 . S
C2250 C2258 1.378 . S
C2251 C2250 1.367 . S
C2251 C2259 1.433 . S
C2252 H2248 0.929 . S
C2252 C2254 1.378 . S
C2252 C2256 1.350 . S
C2253 C2256 1.463 . S
C2253 C2258 1.350 . S
C2253 N2261 1.427 . S
C2254 H2245 0.930 . S
C2254 C2252 1.378 . S
C2254 C2255 1.367 . S
C2255 C2254 1.367 . S
C2255 C2257 1.433 . S
C2256 C2252 1.350 . S
C2256 C2253 1.463 . S
C2256 N2260 1.427 . S
C2257 H2247 0.929 . S
C2257 C2255 1.433 . S
C2257 N2260 1.384 . S
C2258 H2249 0.929 . S
C2258 C2250 1.378 . S
C2258 C2253 1.350 . S
C2259 H2246 0.929 . S
C2259 C2251 1.433 . S
C2259 N2261 1.384 . S
N2260 C2256 1.427 . S
N2260 C2257 1.384 . S
N2261 C2253 1.427 . S
N2261 C2259 1.384 . S
H2262 C2268 0.930 . S
H2263 C2272 0.930 . S
H2264 C2277 0.929 . S
H2265 C2275 0.929 . S
H2266 C2270 0.929 . S
H2267 C2276 0.929 . S
C2268 H2262 0.930 . S
C2268 C2269 1.367 . S
C2268 C2276 1.378 . S
C2269 C2268 1.367 . S
C2269 C2277 1.433 . S
C2270 H2266 0.929 . S
C2270 C2272 1.378 . S
C2270 C2274 1.350 . S
C2271 C2274 1.463 . S
C2271 C2276 1.350 . S
C2271 N2279 1.427 . S
C2272 H2263 0.930 . S
C2272 C2270 1.378 . S
C2272 C2273 1.367 . S
C2273 C2272 1.367 . S
C2273 C2275 1.433 . S
C2274 C2270 1.350 . S
C2274 C2271 1.463 . S
C2274 N2278 1.427 . S
C2275 H2265 0.929 . S
C2275 C2273 1.433 . S
C2275 N2278 1.384 . S
C2276 H2267 0.929 . S
C2276 C2268 1.378 . S
C2276 C2271 1.350 . S
C2277 H2264 0.929 . S
C2277 C2269 1.433 . S
C2277 N2279 1.384 . S
N2278 C2274 1.427 . S
N2278 C2275 1.384 . S
N2279 C2271 1.427 . S
N2279 C2277 1.384 . S
H2280 C2286 0.930 . S
H2281 C2290 0.930 . S
H2282 C2295 0.929 . S
H2283 C2293 0.929 . S
H2284 C2288 0.929 . S
H2285 C2294 0.929 . S
C2286 H2280 0.930 . S
C2286 C2287 1.367 . S
C2286 C2294 1.378 . S
C2287 C2286 1.367 . S
C2287 C2295 1.433 . S
C2288 H2284 0.929 . S
C2288 C2290 1.378 . S
C2288 C2292 1.350 . S
C2289 C2292 1.463 . S
C2289 C2294 1.350 . S
C2289 N2297 1.427 . S
C2290 H2281 0.930 . S
C2290 C2288 1.378 . S
C2290 C2291 1.367 . S
C2291 C2290 1.367 . S
C2291 C2293 1.433 . S
C2292 C2288 1.350 . S
C2292 C2289 1.463 . S
C2292 N2296 1.427 . S
C2293 H2283 0.929 . S
C2293 C2291 1.433 . S
C2293 N2296 1.384 . S
C2294 H2285 0.929 . S
C2294 C2286 1.378 . S
C2294 C2289 1.350 . S
C2295 H2282 0.929 . S
C2295 C2287 1.433 . S
C2295 N2297 1.384 . S
N2296 C2292 1.427 . S
N2296 C2293 1.384 . S
N2297 C2289 1.427 . S
N2297 C2295 1.384 . S
H2298 C2304 0.930 . S
H2299 C2308 0.930 . S
H2300 C2313 0.929 . S
H2301 C2311 0.929 . S
H2302 C2306 0.929 . S
H2303 C2312 0.929 . S
C2304 H2298 0.930 . S
C2304 C2305 1.367 . S
C2304 C2312 1.378 . S
C2305 C2304 1.367 . S
C2305 C2313 1.433 . S
C2306 H2302 0.929 . S
C2306 C2308 1.378 . S
C2306 C2310 1.350 . S
C2307 C2310 1.463 . S
C2307 C2312 1.350 . S
C2307 N2315 1.427 . S
C2308 H2299 0.930 . S
C2308 C2306 1.378 . S
C2308 C2309 1.367 . S
C2309 C2308 1.367 . S
C2309 C2311 1.433 . S
C2310 C2306 1.350 . S
C2310 C2307 1.463 . S
C2310 N2314 1.427 . S
C2311 H2301 0.929 . S
C2311 C2309 1.433 . S
C2311 N2314 1.384 . S
C2312 H2303 0.929 . S
C2312 C2304 1.378 . S
C2312 C2307 1.350 . S
C2313 H2300 0.929 . S
C2313 C2305 1.433 . S
C2313 N2315 1.384 . S
N2314 C2310 1.427 . S
N2314 C2311 1.384 . S
N2315 C2307 1.427 . S
N2315 C2313 1.384 . S
H2316 C2322 0.930 . S
H2317 C2326 0.930 . S
H2318 C2331 0.929 . S
H2319 C2329 0.929 . S
H2320 C2324 0.929 . S
H2321 C2330 0.929 . S
C2322 H2316 0.930 . S
C2322 C2323 1.367 . S
C2322 C2330 1.378 . S
C2323 C2322 1.367 . S
C2323 C2331 1.433 . S
C2324 H2320 0.929 . S
C2324 C2326 1.378 1_545 S
C2324 C2328 1.350 . S
C2325 C2328 1.463 . S
C2325 C2330 1.350 . S
C2325 N2333 1.427 . S
C2326 H2317 0.930 . S
C2326 C2324 1.378 1_565 S
C2326 C2327 1.367 1_565 S
C2327 C2326 1.367 1_545 S
C2327 C2329 1.433 . S
C2328 C2324 1.350 . S
C2328 C2325 1.463 . S
C2328 N2332 1.427 . S
C2329 H2319 0.929 . S
C2329 C2327 1.433 . S
C2329 N2332 1.384 . S
C2330 H2321 0.929 . S
C2330 C2322 1.378 . S
C2330 C2325 1.350 . S
C2331 H2318 0.929 . S
C2331 C2323 1.433 . S
C2331 N2333 1.384 . S
N2332 C2328 1.427 . S
N2332 C2329 1.384 . S
N2333 C2325 1.427 . S
N2333 C2331 1.384 . S
H2334 C2340 0.930 . S
H2335 C2344 0.930 . S
H2336 C2349 0.929 . S
H2337 C2347 0.929 . S
H2338 C2342 0.929 . S
H2339 C2348 0.929 . S
C2340 H2334 0.930 . S
C2340 C2341 1.367 . S
C2340 C2348 1.378 . S
C2341 C2340 1.367 . S
C2341 C2349 1.433 . S
C2342 H2338 0.929 . S
C2342 C2344 1.378 . S
C2342 C2346 1.350 . S
C2343 C2346 1.463 . S
C2343 C2348 1.350 . S
C2343 N2351 1.427 . S
C2344 H2335 0.930 . S
C2344 C2342 1.378 . S
C2344 C2345 1.367 . S
C2345 C2344 1.367 . S
C2345 C2347 1.433 . S
C2346 C2342 1.350 . S
C2346 C2343 1.463 . S
C2346 N2350 1.427 . S
C2347 H2337 0.929 . S
C2347 C2345 1.433 . S
C2347 N2350 1.384 . S
C2348 H2339 0.929 . S
C2348 C2340 1.378 . S
C2348 C2343 1.350 . S
C2349 H2336 0.929 . S
C2349 C2341 1.433 . S
C2349 N2351 1.384 . S
N2350 C2346 1.427 . S
N2350 C2347 1.384 . S
N2351 C2343 1.427 . S
N2351 C2349 1.384 . S
H2352 C2358 0.930 . S
H2353 C2362 0.930 . S
H2354 C2367 0.929 . S
H2355 C2365 0.929 . S
H2356 C2360 0.929 . S
H2357 C2366 0.929 . S
C2358 H2352 0.930 . S
C2358 C2359 1.367 . S
C2358 C2366 1.378 . S
C2359 C2358 1.367 . S
C2359 C2367 1.433 . S
C2360 H2356 0.929 . S
C2360 C2362 1.378 . S
C2360 C2364 1.350 . S
C2361 C2364 1.463 . S
C2361 C2366 1.350 . S
C2361 N2369 1.427 . S
C2362 H2353 0.930 . S
C2362 C2360 1.378 . S
C2362 C2363 1.367 . S
C2363 C2362 1.367 . S
C2363 C2365 1.433 . S
C2364 C2360 1.350 . S
C2364 C2361 1.463 . S
C2364 N2368 1.427 . S
C2365 H2355 0.929 . S
C2365 C2363 1.433 . S
C2365 N2368 1.384 . S
C2366 H2357 0.929 . S
C2366 C2358 1.378 . S
C2366 C2361 1.350 . S
C2367 H2354 0.929 . S
C2367 C2359 1.433 . S
C2367 N2369 1.384 . S
N2368 C2364 1.427 . S
N2368 C2365 1.384 . S
N2369 C2361 1.427 . S
N2369 C2367 1.384 . S
H2370 C2376 0.930 . S
H2371 C2380 0.930 . S
H2372 C2385 0.929 . S
H2373 C2383 0.929 . S
H2374 C2378 0.929 . S
H2375 C2384 0.929 . S
C2376 H2370 0.930 . S
C2376 C2377 1.367 . S
C2376 C2384 1.378 . S
C2377 C2376 1.367 . S
C2377 C2385 1.433 . S
C2378 H2374 0.929 . S
C2378 C2380 1.378 . S
C2378 C2382 1.350 . S
C2379 C2382 1.463 . S
C2379 C2384 1.350 . S
C2379 N2387 1.427 . S
C2380 H2371 0.930 . S
C2380 C2378 1.378 . S
C2380 C2381 1.367 . S
C2381 C2380 1.367 . S
C2381 C2383 1.433 . S
C2382 C2378 1.350 . S
C2382 C2379 1.463 . S
C2382 N2386 1.427 . S
C2383 H2373 0.929 . S
C2383 C2381 1.433 . S
C2383 N2386 1.384 . S
C2384 H2375 0.929 . S
C2384 C2376 1.378 . S
C2384 C2379 1.350 . S
C2385 H2372 0.929 . S
C2385 C2377 1.433 . S
C2385 N2387 1.384 . S
N2386 C2382 1.427 . S
N2386 C2383 1.384 . S
N2387 C2379 1.427 . S
N2387 C2385 1.384 . S
H2388 C2394 0.930 . S
H2389 C2398 0.930 . S
H2390 C2403 0.929 . S
H2391 C2401 0.929 . S
H2392 C2396 0.929 . S
H2393 C2402 0.929 . S
C2394 H2388 0.930 . S
C2394 C2395 1.367 . S
C2394 C2402 1.378 . S
C2395 C2394 1.367 . S
C2395 C2403 1.433 . S
C2396 H2392 0.929 . S
C2396 C2398 1.378 . S
C2396 C2400 1.350 . S
C2397 C2400 1.463 . S
C2397 C2402 1.350 . S
C2397 N2405 1.427 . S
C2398 H2389 0.930 . S
C2398 C2396 1.378 . S
C2398 C2399 1.367 . S
C2399 C2398 1.367 . S
C2399 C2401 1.433 . S
C2400 C2396 1.350 . S
C2400 C2397 1.463 . S
C2400 N2404 1.427 . S
C2401 H2391 0.929 . S
C2401 C2399 1.433 . S
C2401 N2404 1.384 . S
C2402 H2393 0.929 . S
C2402 C2394 1.378 . S
C2402 C2397 1.350 . S
C2403 H2390 0.929 . S
C2403 C2395 1.433 . S
C2403 N2405 1.384 . S
N2404 C2400 1.427 . S
N2404 C2401 1.384 . S
N2405 C2397 1.427 . S
N2405 C2403 1.384 . S
H2406 C2412 0.930 . S
H2407 C2416 0.930 . S
H2408 C2421 0.929 . S
H2409 C2419 0.929 . S
H2410 C2414 0.929 . S
H2411 C2420 0.929 . S
C2412 H2406 0.930 . S
C2412 C2413 1.367 . S
C2412 C2420 1.378 . S
C2413 C2412 1.367 . S
C2413 C2421 1.433 . S
C2414 H2410 0.929 . S
C2414 C2416 1.378 1_565 S
C2414 C2418 1.350 . S
C2415 C2418 1.463 . S
C2415 C2420 1.350 . S
C2415 N2423 1.427 . S
C2416 H2407 0.930 . S
C2416 C2414 1.378 1_545 S
C2416 C2417 1.367 1_545 S
C2417 C2416 1.367 1_565 S
C2417 C2419 1.433 . S
C2418 C2414 1.350 . S
C2418 C2415 1.463 . S
C2418 N2422 1.427 . S
C2419 H2409 0.929 . S
C2419 C2417 1.433 . S
C2419 N2422 1.384 . S
C2420 H2411 0.929 . S
C2420 C2412 1.378 . S
C2420 C2415 1.350 . S
C2421 H2408 0.929 . S
C2421 C2413 1.433 . S
C2421 N2423 1.384 . S
N2422 C2418 1.427 . S
N2422 C2419 1.384 . S
N2423 C2415 1.427 . S
N2423 C2421 1.384 . S
H2424 C2430 0.930 . S
H2425 C2434 0.930 . S
H2426 C2439 0.929 . S
H2427 C2437 0.929 . S
H2428 C2432 0.929 . S
H2429 C2438 0.929 . S
C2430 H2424 0.930 . S
C2430 C2431 1.367 . S
C2430 C2438 1.378 . S
C2431 C2430 1.367 . S
C2431 C2439 1.433 1_545 S
C2432 H2428 0.929 . S
C2432 C2434 1.378 . S
C2432 C2436 1.350 . S
C2433 C2436 1.463 . S
C2433 C2438 1.350 . S
C2433 N2441 1.427 . S
C2434 H2425 0.930 . S
C2434 C2432 1.378 . S
C2434 C2435 1.367 . S
C2435 C2434 1.367 . S
C2435 C2437 1.433 . S
C2436 C2432 1.350 . S
C2436 C2433 1.463 . S
C2436 N2440 1.427 . S
C2437 H2427 0.929 . S
C2437 C2435 1.433 . S
C2437 N2440 1.384 . S
C2438 H2429 0.929 . S
C2438 C2430 1.378 . S
C2438 C2433 1.350 . S
C2439 H2426 0.929 . S
C2439 C2431 1.433 1_565 S
C2439 N2441 1.384 1_565 S
N2440 C2436 1.427 . S
N2440 C2437 1.384 . S
N2441 C2433 1.427 . S
N2441 C2439 1.384 1_545 S
H2442 C2448 0.930 . S
H2443 C2452 0.930 . S
H2444 C2457 0.929 . S
H2445 C2455 0.929 . S
H2446 C2450 0.929 . S
H2447 C2456 0.929 . S
C2448 H2442 0.930 . S
C2448 C2449 1.367 . S
C2448 C2456 1.378 . S
C2449 C2448 1.367 . S
C2449 C2457 1.433 . S
C2450 H2446 0.929 . S
C2450 C2452 1.378 . S
C2450 C2454 1.350 . S
C2451 C2454 1.463 . S
C2451 C2456 1.350 . S
C2451 N2459 1.427 . S
C2452 H2443 0.930 . S
C2452 C2450 1.378 . S
C2452 C2453 1.367 . S
C2453 C2452 1.367 . S
C2453 C2455 1.433 . S
C2454 C2450 1.350 . S
C2454 C2451 1.463 . S
C2454 N2458 1.427 . S
C2455 H2445 0.929 . S
C2455 C2453 1.433 . S
C2455 N2458 1.384 . S
C2456 H2447 0.929 . S
C2456 C2448 1.378 . S
C2456 C2451 1.350 . S
C2457 H2444 0.929 . S
C2457 C2449 1.433 . S
C2457 N2459 1.384 . S
N2458 C2454 1.427 . S
N2458 C2455 1.384 . S
N2459 C2451 1.427 . S
N2459 C2457 1.384 . S
H2460 C2466 0.930 . S
H2461 C2470 0.930 . S
H2462 C2475 0.929 . S
H2463 C2473 0.929 . S
H2464 C2468 0.929 . S
H2465 C2474 0.929 . S
C2466 H2460 0.930 . S
C2466 C2467 1.367 . S
C2466 C2474 1.378 . S
C2467 C2466 1.367 . S
C2467 C2475 1.433 . S
C2468 H2464 0.929 . S
C2468 C2470 1.378 . S
C2468 C2472 1.350 . S
C2469 C2472 1.463 . S
C2469 C2474 1.350 . S
C2469 N2477 1.427 . S
C2470 H2461 0.930 . S
C2470 C2468 1.378 . S
C2470 C2471 1.367 . S
C2471 C2470 1.367 . S
C2471 C2473 1.433 . S
C2472 C2468 1.350 . S
C2472 C2469 1.463 . S
C2472 N2476 1.427 . S
C2473 H2463 0.929 . S
C2473 C2471 1.433 . S
C2473 N2476 1.384 . S
C2474 H2465 0.929 . S
C2474 C2466 1.378 . S
C2474 C2469 1.350 . S
C2475 H2462 0.929 . S
C2475 C2467 1.433 . S
C2475 N2477 1.384 . S
N2476 C2472 1.427 . S
N2476 C2473 1.384 . S
N2477 C2469 1.427 . S
N2477 C2475 1.384 . S
H2478 C2484 0.930 . S
H2479 C2488 0.930 . S
H2480 C2493 0.929 . S
H2481 C2491 0.929 . S
H2482 C2486 0.929 . S
H2483 C2492 0.929 . S
C2484 H2478 0.930 . S
C2484 C2485 1.367 . S
C2484 C2492 1.378 . S
C2485 C2484 1.367 . S
C2485 C2493 1.433 . S
C2486 H2482 0.929 . S
C2486 C2488 1.378 . S
C2486 C2490 1.350 . S
C2487 C2490 1.463 . S
C2487 C2492 1.350 . S
C2487 N2495 1.427 . S
C2488 H2479 0.930 . S
C2488 C2486 1.378 . S
C2488 C2489 1.367 . S
C2489 C2488 1.367 . S
C2489 C2491 1.433 1_545 S
C2490 C2486 1.350 . S
C2490 C2487 1.463 . S
C2490 N2494 1.427 . S
C2491 H2481 0.929 . S
C2491 C2489 1.433 1_565 S
C2491 N2494 1.384 1_565 S
C2492 H2483 0.929 . S
C2492 C2484 1.378 . S
C2492 C2487 1.350 . S
C2493 H2480 0.929 . S
C2493 C2485 1.433 . S
C2493 N2495 1.384 . S
N2494 C2490 1.427 . S
N2494 C2491 1.384 1_545 S
N2495 C2487 1.427 . S
N2495 C2493 1.384 . S
C1063 C21 1.523 . S
C1067 C87 1.518 . S
C1081 C54 1.522 . S
C1085 C120 1.519 . S
C1099 C153 1.524 . S
C1103 C219 1.518 . S
C1117 C252 1.518 . S
C1121 C186 1.523 . S
C1135 C351 1.521 . S
C1139 C285 1.526 . S
C1153 C384 1.520 . S
C1157 C318 1.521 . S
C1171 C417 1.526 . S
C1175 C483 1.521 . S
C1189 C516 1.526 . S
C1193 C450 1.521 . S
C1207 C615 1.519 . S
C1211 C549 1.522 . S
C1225 C582 1.522 . S
C1229 C648 1.519 . S
C1243 C681 1.526 . S
C1247 C747 1.521 . S
C1261 C780 1.519 . S
C1265 C714 1.522 . S
C1279 C879 1.521 . S
C1283 C813 1.519 . S
C1297 C846 1.523 . S
C1301 C912 1.519 . S
C1315 C1011 1.520 . S
C1319 C945 1.520 . S
C1333 C1044 1.525 . S
C1337 C978 1.519 . S
C1351 C150 1.232 . S
C1355 C18 1.232 . S
C1369 C51 1.242 . S
C1373 C975 1.242 . S
C1387 C84 1.243 . S
C1391 C480 1.243 . S
C1405 C117 1.241 . S
C1409 C777 1.241 . S
C1423 C183 1.242 . S
C1427 C843 1.242 . S
C1441 C348 1.242 . S
C1445 C216 1.242 . S
C1459 C645 1.242 . S
C1463 C249 1.242 . S
C1477 C282 1.233 . S
C1481 C414 1.233 . S
C1495 C711 1.232 . S
C1499 C315 1.232 . S
C1513 C1041 1.234 . S
C1517 C381 1.234 . S
C1531 C579 1.231 . S
C1535 C447 1.231 . S
C1549 C909 1.239 . S
C1553 C513 1.239 . S
C1567 C678 1.235 . S
C1571 C546 1.235 . S
C1585 C612 1.231 . S
C1589 C1008 1.231 . S
C1603 C744 1.233 . S
C1607 C876 1.233 . S
C1621 C942 1.233 . S
C1625 C810 1.233 . S
C1639 N13 1.122 . S
C1643 N2 1.121 . S
C1657 N35 1.125 . S
C1661 N46 1.126 . S
C1675 N68 1.127 . S
C1679 N79 1.128 . S
C1693 N101 1.126 . S
C1697 N112 1.127 . S
C1711 N145 1.123 . S
C1715 N134 1.123 . S
C1729 N167 1.127 . S
C1733 N178 1.128 . S
C1747 N211 1.122 . S
C1751 N200 1.121 . S
C1765 N244 1.128 . S
C1769 N233 1.128 . S
C1783 N277 1.122 . S
C1787 N266 1.121 . S
C1801 N310 1.123 . S
C1805 N299 1.122 . S
C1819 N343 1.130 . S
C1823 N332 1.129 . S
C1837 N365 1.130 . S
C1841 N376 1.131 . S
C1855 N409 1.127 . S
C1859 N398 1.126 . S
C1873 N442 1.125 . S
C1877 N431 1.125 . S
C1891 N475 1.124 . S
C1895 N464 1.124 . S
C1909 N508 1.126 . S
C1913 N497 1.126 . S
C1927 N530 1.130 . S
C1931 N541 1.130 . S
C1945 N574 1.122 . S
C1949 N563 1.121 . S
C1963 N607 1.122 . S
C1967 N596 1.121 . S
C1981 N640 1.123 . S
C1985 N629 1.122 . S
C1999 N673 1.130 . S
C2003 N662 1.129 . S
C2017 N706 1.129 . S
C2021 N695 1.128 . S
C2035 N728 1.129 . S
C2039 N739 1.129 . S
C2053 N772 1.122 . S
C2057 N761 1.121 . S
C2071 N794 1.130 . S
C2075 N805 1.130 . S
C2089 N838 1.122 . S
C2093 N827 1.121 . S
C2107 N871 1.126 . S
C2111 N860 1.125 . S
C2125 N904 1.124 . S
C2129 N893 1.123 . S
C2143 N926 1.121 . S
C2147 N937 1.122 . S
C2161 N959 1.123 . S
C2165 N970 1.124 . S
C2179 N992 1.121 . S
C2183 N1003 1.122 . S
C2197 N1025 1.131 . S
C2201 N1036 1.131 . S
C2215 C832 1.473 . S
C2219 C7 1.464 . S
C2233 C40 1.475 1_565 S
C2237 C799 1.468 . S
C2251 C898 1.464 . S
C2255 C73 1.472 1_565 S
C2269 C106 1.463 . S
C2273 C865 1.472 . S
C2287 C964 1.465 . S
C2291 C139 1.473 . S
C2305 C172 1.465 1_545 S
C2309 C931 1.473 . S
C2323 C1030 1.470 . S
C2327 C205 1.476 1_545 S
C2341 C997 1.470 . S
C2345 C238 1.476 . S
C2359 C271 1.472 . S
C2363 C568 1.464 1_565 S
C2377 C304 1.461 . S
C2381 C535 1.465 . S
C2395 C634 1.462 . S
C2399 C337 1.469 . S
C2413 C370 1.476 . S
C2417 C601 1.471 1_565 S
C2431 C700 1.461 1_545 S
C2435 C403 1.464 . S
C2449 C667 1.461 . S
C2453 C436 1.465 . S
C2467 C469 1.474 . S
C2471 C766 1.466 . S
C2485 C502 1.461 . S
C2489 C733 1.467 1_545 S
