# Generated by pormake.
# Topology tzs, (4)-cn, num edge types: 1
# Building blocks:
#     Node 0, Type 0, BuildingBlock: QUQFOY_clean_sbu_1, # of connection points: 4
#     Node 1, Type 0, BuildingBlock: QUQFOY_clean_sbu_1, # of connection points: 4
#     Node 2, Type 0, BuildingBlock: QUQFOY_clean_sbu_1, # of connection points: 4
#     Node 3, Type 0, BuildingBlock: QUQFOY_clean_sbu_1, # of connection points: 4
#     Node 4, Type 0, BuildingBlock: QUQFOY_clean_sbu_1, # of connection points: 4
#     Node 5, Type 0, BuildingBlock: QUQFOY_clean_sbu_1, # of connection points: 4
#     Node 6, Type 0, BuildingBlock: QUQFOY_clean_sbu_1, # of connection points: 4
#     Node 7, Type 0, BuildingBlock: QUQFOY_clean_sbu_1, # of connection points: 4
#     Node 8, Type 0, BuildingBlock: QUQFOY_clean_sbu_1, # of connection points: 4
#     Node 9, Type 0, BuildingBlock: QUQFOY_clean_sbu_1, # of connection points: 4
#     Node 10, Type 0, BuildingBlock: QUQFOY_clean_sbu_1, # of connection points: 4
#     Node 11, Type 0, BuildingBlock: QUQFOY_clean_sbu_1, # of connection points: 4
#     Node 12, Type 0, BuildingBlock: QUQFOY_clean_sbu_1, # of connection points: 4
#     Node 13, Type 0, BuildingBlock: QUQFOY_clean_sbu_1, # of connection points: 4
#     Node 14, Type 0, BuildingBlock: QUQFOY_clean_sbu_1, # of connection points: 4
#     Node 15, Type 0, BuildingBlock: QUQFOY_clean_sbu_1, # of connection points: 4
#     Edge 16, Type (0, 0), BuildingBlock: UVAHIK_clean_linker_0, # of connection points: 2
#     Edge 17, Type (0, 0), BuildingBlock: UVAHIK_clean_linker_0, # of connection points: 2
#     Edge 18, Type (0, 0), BuildingBlock: UVAHIK_clean_linker_0, # of connection points: 2
#     Edge 19, Type (0, 0), BuildingBlock: UVAHIK_clean_linker_0, # of connection points: 2
#     Edge 20, Type (0, 0), BuildingBlock: UVAHIK_clean_linker_0, # of connection points: 2
#     Edge 21, Type (0, 0), BuildingBlock: UVAHIK_clean_linker_0, # of connection points: 2
#     Edge 22, Type (0, 0), BuildingBlock: UVAHIK_clean_linker_0, # of connection points: 2
#     Edge 23, Type (0, 0), BuildingBlock: UVAHIK_clean_linker_0, # of connection points: 2
#     Edge 24, Type (0, 0), BuildingBlock: UVAHIK_clean_linker_0, # of connection points: 2
#     Edge 25, Type (0, 0), BuildingBlock: UVAHIK_clean_linker_0, # of connection points: 2
#     Edge 26, Type (0, 0), BuildingBlock: UVAHIK_clean_linker_0, # of connection points: 2
#     Edge 27, Type (0, 0), BuildingBlock: UVAHIK_clean_linker_0, # of connection points: 2
#     Edge 28, Type (0, 0), BuildingBlock: UVAHIK_clean_linker_0, # of connection points: 2
#     Edge 29, Type (0, 0), BuildingBlock: UVAHIK_clean_linker_0, # of connection points: 2
#     Edge 30, Type (0, 0), BuildingBlock: UVAHIK_clean_linker_0, # of connection points: 2
#     Edge 31, Type (0, 0), BuildingBlock: UVAHIK_clean_linker_0, # of connection points: 2
#     Edge 32, Type (0, 0), BuildingBlock: UVAHIK_clean_linker_0, # of connection points: 2
#     Edge 33, Type (0, 0), BuildingBlock: UVAHIK_clean_linker_0, # of connection points: 2
#     Edge 34, Type (0, 0), BuildingBlock: UVAHIK_clean_linker_0, # of connection points: 2
#     Edge 35, Type (0, 0), BuildingBlock: UVAHIK_clean_linker_0, # of connection points: 2
#     Edge 36, Type (0, 0), BuildingBlock: UVAHIK_clean_linker_0, # of connection points: 2
#     Edge 37, Type (0, 0), BuildingBlock: UVAHIK_clean_linker_0, # of connection points: 2
#     Edge 38, Type (0, 0), BuildingBlock: UVAHIK_clean_linker_0, # of connection points: 2
#     Edge 39, Type (0, 0), BuildingBlock: UVAHIK_clean_linker_0, # of connection points: 2
#     Edge 40, Type (0, 0), BuildingBlock: UVAHIK_clean_linker_0, # of connection points: 2
#     Edge 41, Type (0, 0), BuildingBlock: UVAHIK_clean_linker_0, # of connection points: 2
#     Edge 42, Type (0, 0), BuildingBlock: UVAHIK_clean_linker_0, # of connection points: 2
#     Edge 43, Type (0, 0), BuildingBlock: UVAHIK_clean_linker_0, # of connection points: 2
#     Edge 44, Type (0, 0), BuildingBlock: UVAHIK_clean_linker_0, # of connection points: 2
#     Edge 45, Type (0, 0), BuildingBlock: UVAHIK_clean_linker_0, # of connection points: 2
#     Edge 46, Type (0, 0), BuildingBlock: UVAHIK_clean_linker_0, # of connection points: 2
#     Edge 47, Type (0, 0), BuildingBlock: UVAHIK_clean_linker_0, # of connection points: 2
# Relax obj value: 0.149
# Max RMSD: 0.163
# Mean RMSD: 0.163
data_MOF--net-tzs--node1-QUQFOY_clean_sbu_1--edge1-UVAHIK_clean_linker_0
_symmetry_space_group_name_H-M    P1
_symmetry_Int_Tables_number       1
_symmetry_cell_setting            triclinic
loop_
_symmetry_equiv_pos_as_xyz
'x, y, z'
_cell_length_a     62.183291
_cell_length_b     62.187358
_cell_length_c     57.568849
_cell_angle_alpha  90.00416
_cell_angle_beta   90.008239
_cell_angle_gamma 89.978208
loop_
_atom_site_label
_atom_site_type_symbol
_atom_site_fract_x
_atom_site_fract_y
_atom_site_fract_z
_atom_type_partial_charge
O0 O 0.16036 0.37796 0.21332 0.0
Cd1 Cd 0.14502 0.34962 0.20474 0.0
Cd2 Cd 0.13396 0.37465 0.1666 0.0
O3 O 0.15566 0.39594 0.18069 0.0
O4 O 0.15401 0.33089 0.2309 0.0
O5 O 0.16236 0.32385 0.19442 0.0
C6 C 0.16348 0.31865 0.2161 0.0
C7 C 0.13576 0.36773 0.12677 0.0
C8 C 0.16369 0.39452 0.20092 0.0
C9 C 0.09837 0.36016 0.19812 0.0
O10 O 0.10392 0.37292 0.18198 0.0
O11 O 0.11218 0.34826 0.20803 0.0
O12 O 0.12797 0.38545 0.13477 0.0
O13 O 0.14286 0.35376 0.14153 0.0
O14 O 0.61091 0.16398 0.2095 0.0
Cd15 Cd 0.63963 0.14892 0.20242 0.0
Cd16 Cd 0.61587 0.13566 0.16312 0.0
O17 O 0.5932 0.15592 0.17747 0.0
O18 O 0.65731 0.15881 0.22903 0.0
O19 O 0.66567 0.16611 0.19262 0.0
C20 C 0.67009 0.16786 0.21445 0.0
C21 C 0.6213 0.13823 0.12305 0.0
C22 C 0.59415 0.16536 0.19701 0.0
C23 C 0.63178 0.10136 0.19573 0.0
O24 O 0.6202 0.10569 0.17814 0.0
O25 O 0.64132 0.11624 0.20674 0.0
O26 O 0.60425 0.12957 0.13164 0.0
O27 O 0.63556 0.14554 0.13733 0.0
O28 O 0.8275 0.60703 0.204 0.0
Cd29 Cd 0.84359 0.63565 0.1996 0.0
Cd30 Cd 0.8594 0.61356 0.16158 0.0
O31 O 0.83992 0.5892 0.17373 0.0
O32 O 0.83097 0.65355 0.22465 0.0
O33 O 0.82807 0.66185 0.18748 0.0
C34 C 0.8239 0.6664 0.2089 0.0
C35 C 0.85752 0.62241 0.12227 0.0
C36 C 0.82815 0.59005 0.19175 0.0
C37 C 0.89149 0.62853 0.19706 0.0
O38 O 0.88846 0.6184 0.17817 0.0
O39 O 0.87574 0.63683 0.20784 0.0
O40 O 0.86744 0.60544 0.12938 0.0
O41 O 0.84834 0.63449 0.13763 0.0
O42 O 0.37776 0.82981 0.21292 0.0
Cd43 Cd 0.34966 0.84588 0.20566 0.0
Cd44 Cd 0.37386 0.86023 0.16839 0.0
O45 O 0.39697 0.84059 0.18293 0.0
O46 O 0.33013 0.83429 0.22982 0.0
O47 O 0.32422 0.82999 0.19228 0.0
C48 C 0.31833 0.82658 0.21347 0.0
C49 C 0.36856 0.85742 0.12832 0.0
C50 C 0.39523 0.8297 0.20151 0.0
C51 C 0.35775 0.89354 0.20201 0.0
O52 O 0.36871 0.88985 0.1838 0.0
O53 O 0.34857 0.87823 0.21269 0.0
O54 O 0.38504 0.86713 0.13693 0.0
O55 O 0.35477 0.84924 0.1426 0.0
O56 O 0.16531 0.60824 0.29438 0.0
Cd57 Cd 0.14919 0.63684 0.29905 0.0
Cd58 Cd 0.13407 0.61405 0.33776 0.0
O59 O 0.15383 0.5902 0.32493 0.0
O60 O 0.1604 0.65391 0.27258 0.0
O61 O 0.16513 0.66357 0.30911 0.0
C62 C 0.16812 0.66739 0.28731 0.0
C63 C 0.13578 0.62193 0.37736 0.0
C64 C 0.16516 0.59124 0.30659 0.0
C65 C 0.10131 0.62914 0.30302 0.0
O66 O 0.10476 0.61868 0.32161 0.0
O67 O 0.11678 0.63779 0.2921 0.0
O68 O 0.12631 0.6049 0.36973 0.0
O69 O 0.14467 0.63459 0.36237 0.0
O70 O 0.38089 0.16698 0.29581 0.0
Cd71 Cd 0.35301 0.15077 0.3037 0.0
Cd72 Cd 0.37781 0.13709 0.34048 0.0
O73 O 0.40067 0.15679 0.3256 0.0
O74 O 0.33372 0.16123 0.27869 0.0
O75 O 0.32699 0.16663 0.31588 0.0
C76 C 0.32143 0.16919 0.29445 0.0
C77 C 0.36941 0.14205 0.37953 0.0
C78 C 0.39854 0.16741 0.30689 0.0
C79 C 0.36176 0.10304 0.30833 0.0
O80 O 0.37338 0.10697 0.326 0.0
O81 O 0.35213 0.1182 0.29784 0.0
O82 O 0.38708 0.1329 0.3732 0.0
O83 O 0.3563 0.14845 0.36353 0.0
O84 O 0.83067 0.37813 0.28945 0.0
Cd85 Cd 0.84556 0.35051 0.30113 0.0
Cd86 Cd 0.85492 0.37712 0.33754 0.0
O87 O 0.83297 0.39707 0.32169 0.0
O88 O 0.83687 0.32956 0.27692 0.0
O89 O 0.82779 0.32607 0.31382 0.0
C90 C 0.82691 0.31893 0.29277 0.0
C91 C 0.85146 0.37112 0.37736 0.0
C92 C 0.82619 0.39493 0.30101 0.0
C93 C 0.89178 0.36181 0.30867 0.0
O94 O 0.88552 0.37573 0.32335 0.0
O95 O 0.87848 0.34892 0.29944 0.0
O96 O 0.85838 0.38917 0.36928 0.0
O97 O 0.84639 0.35623 0.36269 0.0
O98 O 0.61139 0.82867 0.289 0.0
Cd99 Cd 0.64061 0.84332 0.29452 0.0
Cd100 Cd 0.61874 0.85811 0.33402 0.0
O101 O 0.59495 0.83818 0.32138 0.0
O102 O 0.658 0.83168 0.26852 0.0
O103 O 0.66626 0.8261 0.30534 0.0
C104 C 0.67063 0.82317 0.28364 0.0
C105 C 0.62536 0.8571 0.37397 0.0
C106 C 0.59502 0.82812 0.30217 0.0
C107 C 0.63401 0.89106 0.29929 0.0
O108 O 0.62331 0.88742 0.31768 0.0
O109 O 0.64276 0.8757 0.28828 0.0
O110 O 0.60859 0.86639 0.3655 0.0
O111 O 0.63857 0.84807 0.35965 0.0
O112 O 0.87483 0.65561 0.78681 0.0
Cd113 Cd 0.8457 0.64228 0.79563 0.0
Cd114 Cd 0.86889 0.63016 0.83487 0.0
O115 O 0.89225 0.64885 0.81938 0.0
O116 O 0.82683 0.65278 0.77028 0.0
O117 O 0.82152 0.66112 0.80714 0.0
C118 C 0.81573 0.66286 0.78567 0.0
C119 C 0.86444 0.63448 0.87494 0.0
C120 C 0.89164 0.65711 0.79921 0.0
C121 C 0.85175 0.59499 0.80398 0.0
O122 O 0.86346 0.59978 0.82133 0.0
O123 O 0.84251 0.60964 0.79232 0.0
O124 O 0.88069 0.62441 0.86634 0.0
O125 O 0.85038 0.6422 0.86067 0.0
O126 O 0.33139 0.88134 0.79518 0.0
Cd127 Cd 0.34602 0.85205 0.80045 0.0
Cd128 Cd 0.36059 0.8738 0.84023 0.0
O129 O 0.34104 0.89786 0.82745 0.0
O130 O 0.33449 0.83496 0.77414 0.0
O131 O 0.32861 0.82639 0.81082 0.0
C132 C 0.32578 0.82225 0.78905 0.0
C133 C 0.35885 0.86668 0.88004 0.0
C134 C 0.33093 0.89777 0.80827 0.0
C135 C 0.39381 0.85825 0.80593 0.0
O136 O 0.39005 0.86891 0.82432 0.0
O137 O 0.3785 0.84973 0.79463 0.0
O138 O 0.36852 0.88342 0.87201 0.0
O139 O 0.34984 0.85381 0.86535 0.0
O140 O 0.11108 0.32376 0.7968 0.0
Cd141 Cd 0.13975 0.34 0.7986 0.0
Cd142 Cd 0.12015 0.35763 0.83819 0.0
O143 O 0.09428 0.34044 0.82533 0.0
O144 O 0.15617 0.32677 0.77274 0.0
O145 O 0.16687 0.32519 0.80928 0.0
C146 C 0.17014 0.32044 0.78773 0.0
C147 C 0.12563 0.35563 0.87835 0.0
C148 C 0.09422 0.32698 0.80872 0.0
C149 C 0.13539 0.3883 0.80141 0.0
O150 O 0.12819 0.38612 0.82193 0.0
O151 O 0.14013 0.37193 0.78927 0.0
O152 O 0.11035 0.36695 0.86948 0.0
O153 O 0.13815 0.34535 0.8643 0.0
O154 O 0.65581 0.11575 0.78588 0.0
Cd155 Cd 0.64027 0.14268 0.79836 0.0
Cd156 Cd 0.63289 0.11594 0.83473 0.0
O157 O 0.65546 0.09707 0.81836 0.0
O158 O 0.6484 0.16474 0.7751 0.0
O159 O 0.65768 0.16684 0.8121 0.0
C160 C 0.65841 0.17479 0.79138 0.0
C161 C 0.6368 0.12149 0.87459 0.0
C162 C 0.66149 0.09933 0.79744 0.0
C163 C 0.5948 0.12969 0.80665 0.0
O164 O 0.60199 0.11605 0.82114 0.0
O165 O 0.60732 0.14322 0.79721 0.0
O166 O 0.63043 0.10332 0.86632 0.0
O167 O 0.64099 0.1368 0.86009 0.0
O168 O 0.88234 0.32053 0.70838 0.0
Cd169 Cd 0.85371 0.33653 0.70355 0.0
Cd170 Cd 0.87672 0.35319 0.66529 0.0
O171 O 0.90074 0.33431 0.67922 0.0
O172 O 0.83683 0.32519 0.73009 0.0
O173 O 0.82678 0.32074 0.69366 0.0
C174 C 0.82312 0.3177 0.71548 0.0
C175 C 0.87101 0.35098 0.62527 0.0
C176 C 0.89969 0.32212 0.6969 0.0
C177 C 0.86037 0.38488 0.70018 0.0
O178 O 0.87063 0.38226 0.6813 0.0
O179 O 0.8526 0.36885 0.71094 0.0
O180 O 0.88759 0.36056 0.63382 0.0
O181 O 0.8574 0.34254 0.63956 0.0
O182 O 0.66692 0.88668 0.70374 0.0
Cd183 Cd 0.65101 0.85784 0.70043 0.0
Cd184 Cd 0.63362 0.87914 0.66202 0.0
O185 O 0.65246 0.904 0.6742 0.0
O186 O 0.66422 0.84071 0.72577 0.0
O187 O 0.66633 0.83132 0.68885 0.0
C188 C 0.67088 0.82735 0.71032 0.0
C189 C 0.63525 0.87232 0.62216 0.0
C190 C 0.66509 0.90359 0.69154 0.0
C191 C 0.60275 0.86357 0.69846 0.0
O192 O 0.60501 0.87298 0.67902 0.0
O193 O 0.61903 0.85649 0.70936 0.0
O194 O 0.6248 0.88849 0.63044 0.0
O195 O 0.6448 0.85966 0.63668 0.0
O196 O 0.11058 0.66235 0.70887 0.0
Cd197 Cd 0.13976 0.64767 0.70389 0.0
Cd198 Cd 0.11883 0.63137 0.66497 0.0
O199 O 0.09341 0.64854 0.67888 0.0
O200 O 0.15743 0.66062 0.72892 0.0
O201 O 0.16525 0.66425 0.6917 0.0
C202 C 0.16987 0.66832 0.71313 0.0
C203 C 0.12418 0.6347 0.62493 0.0
C204 C 0.09354 0.66031 0.69693 0.0
C205 C 0.13576 0.59949 0.69971 0.0
O206 O 0.12668 0.60224 0.68015 0.0
O207 O 0.14191 0.61552 0.71163 0.0
O208 O 0.10867 0.62343 0.6334 0.0
O209 O 0.13699 0.64417 0.63934 0.0
O210 O 0.32793 0.11013 0.7086 0.0
Cd211 Cd 0.34377 0.13754 0.69782 0.0
Cd212 Cd 0.35454 0.11048 0.66236 0.0
O213 O 0.33341 0.0896 0.678 0.0
O214 O 0.33569 0.15775 0.72303 0.0
O215 O 0.32665 0.16311 0.68643 0.0
C216 C 0.32608 0.16939 0.70779 0.0
C217 C 0.34955 0.11982 0.6236 0.0
C218 C 0.32502 0.09253 0.69786 0.0
C219 C 0.39056 0.12591 0.69181 0.0
O220 O 0.38503 0.11225 0.67653 0.0
O221 O 0.37673 0.13839 0.70083 0.0
O222 O 0.3572 0.10129 0.62944 0.0
O223 O 0.34465 0.13321 0.63996 0.0
C224 C 0.28846 0.19055 0.30458 0.0
C225 C 0.30194 0.18129 0.28776 0.0
C226 C 0.27071 0.20289 0.29783 0.0
C227 C 0.23586 0.21578 0.24712 0.0
H228 H 0.22782 0.27002 0.27913 0.0
C229 C 0.18847 0.28767 0.20877 0.0
C230 C 0.17586 0.29981 0.22418 0.0
C231 C 0.20151 0.27103 0.2171 0.0
C232 C 0.22963 0.25479 0.27022 0.0
H233 H 0.30711 0.17725 0.25071 0.0
H234 H 0.27658 0.19898 0.23904 0.0
H235 H 0.25462 0.2447 0.29324 0.0
H236 H 0.16624 0.30339 0.26024 0.0
H237 H 0.18881 0.2744 0.27464 0.0
H238 H 0.21122 0.22628 0.22368 0.0
C239 C 0.2794 0.1965 0.25741 0.0
C240 C 0.24496 0.24024 0.27835 0.0
C241 C 0.29705 0.18417 0.26413 0.0
C242 C 0.17593 0.29449 0.24792 0.0
C243 C 0.18892 0.27792 0.25621 0.0
C244 C 0.22057 0.2304 0.23892 0.0
C245 C 0.26614 0.2062 0.27414 0.0
C246 C 0.24845 0.22069 0.26673 0.0
C247 C 0.20216 0.26629 0.24099 0.0
C248 C 0.21746 0.25015 0.25025 0.0
H249 H 0.29176 0.18851 0.32292 0.0
H250 H 0.26064 0.20996 0.31115 0.0
H251 H 0.23794 0.2007 0.23798 0.0
H252 H 0.18873 0.29139 0.19039 0.0
H253 H 0.21166 0.26241 0.20498 0.0
C254 C 0.81278 0.29335 0.26313 0.0
C255 C 0.81411 0.29979 0.28649 0.0
C256 C 0.79934 0.27649 0.25656 0.0
C257 C 0.75058 0.24845 0.27576 0.0
H258 H 0.76458 0.2096 0.22522 0.0
C259 C 0.69261 0.18187 0.2469 0.0
C260 C 0.6888 0.18022 0.22289 0.0
C261 C 0.70945 0.19442 0.25531 0.0
C262 C 0.76044 0.22043 0.23927 0.0
H263 H 0.80309 0.29299 0.32144 0.0
H264 H 0.77976 0.26318 0.31 0.0
H265 H 0.79182 0.23455 0.23967 0.0
H266 H 0.70005 0.18994 0.18883 0.0
H267 H 0.72959 0.21207 0.20362 0.0
H268 H 0.71919 0.23446 0.27526 0.0
C269 C 0.78886 0.27149 0.29671 0.0
C270 C 0.77601 0.23469 0.24757 0.0
C271 C 0.8023 0.28847 0.30329 0.0
C272 C 0.70258 0.19094 0.20742 0.0
C273 C 0.71954 0.20349 0.21587 0.0
C274 C 0.73509 0.23412 0.26756 0.0
C275 C 0.78696 0.26557 0.2732 0.0
C276 C 0.77117 0.24905 0.26573 0.0
C277 C 0.72291 0.2056 0.23992 0.0
C278 C 0.73978 0.22012 0.24909 0.0
H279 H 0.82168 0.30173 0.24972 0.0
H280 H 0.79806 0.27257 0.23828 0.0
H281 H 0.74616 0.25955 0.28945 0.0
H282 H 0.6824 0.17369 0.25931 0.0
H283 H 0.71187 0.19549 0.27391 0.0
C284 C 0.80177 0.6988 0.19859 0.0
C285 C 0.81103 0.68541 0.2155 0.0
C286 C 0.78867 0.71604 0.2052 0.0
C287 C 0.77388 0.75033 0.2555 0.0
H288 H 0.71976 0.75652 0.22275 0.0
C289 C 0.70146 0.79823 0.29191 0.0
C290 C 0.68915 0.81011 0.27597 0.0
C291 C 0.71806 0.78487 0.2841 0.0
C292 C 0.73494 0.75524 0.23188 0.0
H293 H 0.8143 0.67993 0.25259 0.0
H294 H 0.79136 0.7097 0.26401 0.0
H295 H 0.74596 0.73025 0.20932 0.0
H296 H 0.68516 0.81801 0.23948 0.0
H297 H 0.71416 0.79501 0.226 0.0
H298 H 0.76261 0.77511 0.27832 0.0
C299 C 0.79436 0.70711 0.24568 0.0
C300 C 0.74997 0.7402 0.22414 0.0
C301 C 0.80739 0.68991 0.2391 0.0
C302 C 0.69419 0.80889 0.25221 0.0
C303 C 0.71076 0.79563 0.24444 0.0
C304 C 0.75882 0.76539 0.26325 0.0
C305 C 0.78465 0.72022 0.22883 0.0
C306 C 0.76951 0.73742 0.236 0.0
C307 C 0.72265 0.7832 0.26023 0.0
C308 C 0.73911 0.76788 0.25162 0.0
H309 H 0.80437 0.69578 0.18027 0.0
H310 H 0.78159 0.72602 0.19181 0.0
H311 H 0.78892 0.74874 0.26483 0.0
H312 H 0.69794 0.79886 0.31032 0.0
H313 H 0.72685 0.77535 0.29667 0.0
C314 C 0.28748 0.80287 0.20187 0.0
C315 C 0.29919 0.81359 0.21923 0.0
C316 C 0.27046 0.78924 0.20787 0.0
C317 C 0.2339 0.7745 0.2564 0.0
H318 H 0.23388 0.71849 0.22685 0.0
C319 C 0.1905 0.70027 0.29479 0.0
C320 C 0.18029 0.68631 0.2791 0.0
C321 C 0.20285 0.71748 0.2866 0.0
C322 C 0.23344 0.73416 0.23504 0.0
H323 H 0.30174 0.81909 0.25637 0.0
H324 H 0.2724 0.79526 0.26676 0.0
H325 H 0.25874 0.74601 0.21343 0.0
H326 H 0.1744 0.67987 0.24257 0.0
H327 H 0.19572 0.70986 0.22841 0.0
H328 H 0.20889 0.76238 0.27838 0.0
C329 C 0.27612 0.79748 0.24854 0.0
C330 C 0.24765 0.74996 0.2273 0.0
C331 C 0.29308 0.81102 0.24257 0.0
C332 C 0.18222 0.69021 0.25514 0.0
C333 C 0.19451 0.70735 0.24698 0.0
C334 C 0.21969 0.75866 0.26418 0.0
C335 C 0.26483 0.78617 0.23132 0.0
C336 C 0.24824 0.77021 0.23808 0.0
C337 C 0.2052 0.721 0.26259 0.0
C338 C 0.21947 0.73825 0.25374 0.0
H339 H 0.29176 0.8046 0.18373 0.0
H340 H 0.26188 0.78092 0.19419 0.0
H341 H 0.23378 0.79005 0.26486 0.0
H342 H 0.18929 0.69768 0.31335 0.0
H343 H 0.21107 0.72763 0.29905 0.0
C344 C 0.69089 0.79341 0.70079 0.0
C345 C 0.68343 0.80825 0.71732 0.0
C346 C 0.70313 0.77566 0.70774 0.0
C347 C 0.71755 0.74295 0.75937 0.0
H348 H 0.76871 0.72951 0.72375 0.0
C349 C 0.78737 0.69045 0.7943 0.0
C350 C 0.79755 0.6766 0.77847 0.0
C351 C 0.77147 0.70473 0.78669 0.0
C352 C 0.75431 0.73283 0.73371 0.0
H353 H 0.68274 0.81602 0.75409 0.0
H354 H 0.70425 0.78539 0.76607 0.0
H355 H 0.7445 0.7576 0.71023 0.0
H356 H 0.79832 0.66608 0.74251 0.0
H357 H 0.77052 0.69073 0.72939 0.0
H358 H 0.72767 0.7184 0.78309 0.0
C359 C 0.70041 0.78719 0.74782 0.0
C360 C 0.74042 0.74892 0.72593 0.0
C361 C 0.68821 0.80487 0.7409 0.0
C362 C 0.79095 0.67671 0.75512 0.0
C363 C 0.77509 0.6909 0.74755 0.0
C364 C 0.73148 0.72687 0.76717 0.0
C365 C 0.70811 0.77244 0.73133 0.0
C366 C 0.722 0.7543 0.73878 0.0
C367 C 0.76548 0.70537 0.76312 0.0
C368 C 0.7501 0.72176 0.75451 0.0
H369 H 0.68738 0.79555 0.68251 0.0
H370 H 0.70867 0.76444 0.69465 0.0
H371 H 0.70331 0.74653 0.76948 0.0
H372 H 0.79212 0.69071 0.8124 0.0
H373 H 0.76444 0.71579 0.79908 0.0
C374 C 0.19316 0.68516 0.74332 0.0
C375 C 0.18854 0.68167 0.71972 0.0
C376 C 0.21013 0.69845 0.74991 0.0
C377 C 0.24248 0.74356 0.72877 0.0
H378 H 0.2781 0.73038 0.78227 0.0
C379 C 0.31113 0.79936 0.75721 0.0
C380 C 0.3126 0.80393 0.78107 0.0
C381 C 0.29782 0.78293 0.74922 0.0
C382 C 0.26818 0.73433 0.7674 0.0
H383 H 0.19843 0.68899 0.68448 0.0
H384 H 0.22829 0.71226 0.69604 0.0
H385 H 0.25186 0.70405 0.76861 0.0
H386 H 0.30169 0.79447 0.81534 0.0
H387 H 0.27813 0.7658 0.80132 0.0
H388 H 0.25851 0.77394 0.72775 0.0
C389 C 0.21857 0.70482 0.70942 0.0
C390 C 0.25319 0.71926 0.75955 0.0
C391 C 0.20155 0.69144 0.7028 0.0
C392 C 0.30088 0.79132 0.79686 0.0
C393 C 0.28749 0.77484 0.78883 0.0
C394 C 0.25746 0.75861 0.73661 0.0
C395 C 0.22292 0.70859 0.73306 0.0
C396 C 0.24002 0.72381 0.7403 0.0
C397 C 0.2856 0.77068 0.76489 0.0
C398 C 0.27034 0.75424 0.75613 0.0
H399 H 0.18346 0.67787 0.75681 0.0
H400 H 0.21284 0.70126 0.76825 0.0
H401 H 0.23234 0.74771 0.71415 0.0
H402 H 0.3201 0.80865 0.74459 0.0
H403 H 0.29701 0.77987 0.73072 0.0
C404 C 0.19173 0.30298 0.75648 0.0
C405 C 0.18906 0.3079 0.78014 0.0
C406 C 0.20906 0.29053 0.74906 0.0
C407 C 0.24699 0.24986 0.77011 0.0
H408 H 0.2756 0.26077 0.71138 0.0
C409 C 0.31545 0.19575 0.73829 0.0
C410 C 0.31402 0.18869 0.71515 0.0
C411 C 0.30257 0.21255 0.74623 0.0
C412 C 0.26768 0.25749 0.72775 0.0
H413 H 0.20276 0.30407 0.81452 0.0
H414 H 0.23325 0.28234 0.80149 0.0
H415 H 0.24891 0.28629 0.72587 0.0
H416 H 0.29866 0.19431 0.6819 0.0
H417 H 0.27587 0.22365 0.69589 0.0
H418 H 0.26544 0.22093 0.77186 0.0
C419 C 0.22174 0.28795 0.78874 0.0
C420 C 0.25242 0.27208 0.73606 0.0
C421 C 0.20434 0.30044 0.7962 0.0
C422 C 0.30009 0.1994 0.69982 0.0
C423 C 0.28712 0.21624 0.70782 0.0
C424 C 0.26226 0.23532 0.76183 0.0
C425 C 0.22417 0.28272 0.7651 0.0
C426 C 0.24171 0.26828 0.7572 0.0
C427 C 0.2879 0.22265 0.73125 0.0
C428 C 0.27261 0.23885 0.74046 0.0
H429 H 0.18024 0.30847 0.74364 0.0
H430 H 0.21025 0.28652 0.7308 0.0
H431 H 0.23878 0.24626 0.78623 0.0
H432 H 0.32621 0.18799 0.75049 0.0
H433 H 0.30384 0.2174 0.76425 0.0
C434 C 0.68429 0.20384 0.80281 0.0
C435 C 0.67145 0.19395 0.78583 0.0
C436 C 0.69852 0.22028 0.79666 0.0
C437 C 0.71315 0.258 0.74893 0.0
H438 H 0.77055 0.25173 0.77432 0.0
C439 C 0.78892 0.29725 0.70835 0.0
C440 C 0.80402 0.30593 0.72388 0.0
C441 C 0.77126 0.28563 0.71671 0.0
C442 C 0.75454 0.25389 0.76728 0.0
H443 H 0.66264 0.19427 0.74933 0.0
H444 H 0.68761 0.22255 0.73861 0.0
H445 H 0.7418 0.22867 0.78834 0.0
H446 H 0.81217 0.30974 0.76034 0.0
H447 H 0.78149 0.28964 0.77478 0.0
H448 H 0.72621 0.28291 0.7274 0.0
C449 C 0.68659 0.21787 0.7567 0.0
C450 C 0.73802 0.24073 0.7754 0.0
C451 C 0.67237 0.20151 0.76284 0.0
C452 C 0.80093 0.30313 0.74787 0.0
C453 C 0.78338 0.29153 0.75619 0.0
C454 C 0.72973 0.27113 0.74072 0.0
C455 C 0.7002 0.2271 0.77342 0.0
C456 C 0.71717 0.24249 0.76619 0.0
C457 C 0.76849 0.28247 0.74072 0.0
C458 C 0.75063 0.26909 0.74972 0.0
H459 H 0.68384 0.19844 0.82069 0.0
H460 H 0.70855 0.22734 0.81002 0.0
H461 H 0.69719 0.25992 0.74166 0.0
H462 H 0.79086 0.29919 0.68977 0.0
H463 H 0.7601 0.27867 0.70438 0.0
C464 C 0.11536 0.36743 0.91823 0.0
C465 C 0.12825 0.35448 0.90389 0.0
C466 C 0.11703 0.36617 0.94233 0.0
C467 C 0.15253 0.34894 0.99024 0.0
H468 H 0.0998 0.35449 0.02574 0.0
C469 C 0.14762 0.3464 0.09184 0.0
C470 C 0.13598 0.36364 0.10145 0.0
C471 C 0.14747 0.3428 0.06779 0.0
C472 C 0.11466 0.35292 0.01606 0.0
H473 H 0.15326 0.33017 0.90366 0.0
H474 H 0.15602 0.32776 0.94605 0.0
H475 H 0.09812 0.3524 0.98357 0.0
H476 H 0.11507 0.39057 0.09337 0.0
H477 H 0.1146 0.38413 0.05173 0.0
H478 H 0.16898 0.34955 0.02306 0.0
C479 C 0.14473 0.33905 0.93852 0.0
C480 C 0.11373 0.35181 0.99189 0.0
C481 C 0.14311 0.34037 0.91425 0.0
C482 C 0.12421 0.37715 0.08657 0.0
C483 C 0.12383 0.37339 0.06271 0.0
C484 C 0.15345 0.34988 0.01455 0.0
C485 C 0.13153 0.3518 0.95283 0.0
C486 C 0.13267 0.35044 0.97862 0.0
C487 C 0.13537 0.35617 0.05305 0.0
C488 C 0.13453 0.35246 0.02762 0.0
H489 H 0.10389 0.37862 0.91086 0.0
H490 H 0.10699 0.37663 0.95276 0.0
H491 H 0.16742 0.34796 0.98055 0.0
H492 H 0.15689 0.33575 0.10288 0.0
H493 H 0.15649 0.3294 0.06075 0.0
C494 C 0.63897 0.10647 0.91466 0.0
C495 C 0.63876 0.1245 0.89999 0.0
C496 C 0.63928 0.10895 0.93873 0.0
C497 C 0.64816 0.14824 0.98656 0.0
H498 H 0.61164 0.10845 0.02018 0.0
C499 C 0.60675 0.13497 0.08285 0.0
C500 C 0.62424 0.13929 0.09757 0.0
C501 C 0.60941 0.13466 0.05881 0.0
C502 C 0.62176 0.11987 0.01111 0.0
H503 H 0.63941 0.15932 0.89901 0.0
H504 H 0.6393 0.16374 0.94125 0.0
H505 H 0.61486 0.10531 0.97843 0.0
H506 H 0.65815 0.14727 0.09858 0.0
H507 H 0.66297 0.1462 0.05638 0.0
H508 H 0.65439 0.16322 0.01945 0.0
C509 C 0.6396 0.14764 0.93411 0.0
C510 C 0.62389 0.11784 0.98711 0.0
C511 C 0.63955 0.14513 0.90991 0.0
C512 C 0.64438 0.14387 0.08766 0.0
C513 C 0.6471 0.14336 0.06349 0.0
C514 C 0.64592 0.15035 0.01069 0.0
C515 C 0.63906 0.12955 0.94881 0.0
C516 C 0.63714 0.13193 0.97448 0.0
C517 C 0.62969 0.13839 0.0488 0.0
C518 C 0.63259 0.13623 0.02323 0.0
H519 H 0.6387 0.09034 0.90755 0.0
H520 H 0.63946 0.09465 0.94946 0.0
H521 H 0.65864 0.15927 0.97742 0.0
H522 H 0.59094 0.13167 0.08991 0.0
H523 H 0.59551 0.13134 0.04806 0.0
C524 C 0.84511 0.6484 0.91037 0.0
C525 C 0.86234 0.63699 0.90042 0.0
C526 C 0.84357 0.65063 0.93456 0.0
C527 C 0.87667 0.64642 0.98813 0.0
H528 H 0.82235 0.63658 0.01946 0.0
C529 C 0.87162 0.61761 0.08211 0.0
C530 C 0.8571 0.62776 0.09725 0.0
C531 C 0.8715 0.6223 0.05844 0.0
C532 C 0.83755 0.63971 0.01092 0.0
H533 H 0.89132 0.61886 0.90808 0.0
H534 H 0.88846 0.62243 0.94986 0.0
H535 H 0.82343 0.63823 0.97697 0.0
H536 H 0.83093 0.65071 0.09942 0.0
H537 H 0.83042 0.65861 0.05758 0.0
H538 H 0.89092 0.64696 0.02196 0.0
C539 C 0.87636 0.63006 0.93914 0.0
C540 C 0.83818 0.64068 0.98661 0.0
C541 C 0.8779 0.62786 0.91511 0.0
C542 C 0.84235 0.64269 0.08815 0.0
C543 C 0.842 0.64715 0.06427 0.0
C544 C 0.87606 0.64528 0.01232 0.0
C545 C 0.85927 0.64155 0.94921 0.0
C546 C 0.85788 0.64342 0.97493 0.0
C547 C 0.85668 0.63706 0.04925 0.0
C548 C 0.8566 0.64134 0.02392 0.0
H549 H 0.83288 0.65564 0.8995 0.0
H550 H 0.83025 0.65964 0.94178 0.0
H551 H 0.89202 0.64913 0.97973 0.0
H552 H 0.88322 0.60605 0.08855 0.0
H553 H 0.88282 0.61408 0.04722 0.0
C554 C 0.34918 0.84363 0.09287 0.0
C555 C 0.36595 0.8557 0.10282 0.0
C556 C 0.34737 0.84182 0.06866 0.0
C557 C 0.37971 0.84841 0.01489 0.0
H558 H 0.32459 0.8541 0.98395 0.0
C559 C 0.37242 0.87408 0.91998 0.0
C560 C 0.35855 0.8625 0.90534 0.0
C561 C 0.37254 0.87036 0.94385 0.0
C562 C 0.34004 0.85217 0.9924 0.0
H563 H 0.39366 0.87567 0.09513 0.0
H564 H 0.3903 0.87286 0.0533 0.0
H565 H 0.32612 0.85307 0.02647 0.0
H566 H 0.3337 0.83806 0.90432 0.0
H567 H 0.33367 0.83181 0.94648 0.0
H568 H 0.39369 0.84833 0.98094 0.0
C569 C 0.37882 0.86434 0.06404 0.0
C570 C 0.34093 0.85155 0.01672 0.0
C571 C 0.38065 0.86609 0.0881 0.0
C572 C 0.34462 0.84718 0.91517 0.0
C573 C 0.34453 0.84366 0.93924 0.0
C574 C 0.37882 0.8492 0.9907 0.0
C575 C 0.36231 0.85203 0.05398 0.0
C576 C 0.36085 0.85023 0.02824 0.0
C577 C 0.35864 0.85513 0.95375 0.0
C578 C 0.35905 0.85159 0.97922 0.0
H579 H 0.3376 0.83542 0.10377 0.0
H580 H 0.33451 0.83215 0.06147 0.0
H581 H 0.39527 0.84678 0.02316 0.0
H582 H 0.38336 0.88599 0.91299 0.0
H583 H 0.38339 0.87963 0.95465 0.0
C584 C 0.14306 0.64945 0.58962 0.0
C585 C 0.12679 0.63665 0.59945 0.0
C586 C 0.14498 0.65127 0.56542 0.0
C587 C 0.11349 0.64315 0.51136 0.0
H588 H 0.16901 0.63818 0.48113 0.0
C589 C 0.12217 0.61525 0.41742 0.0
C590 C 0.1359 0.62673 0.40253 0.0
C591 C 0.12177 0.61965 0.44115 0.0
C592 C 0.15344 0.63992 0.48937 0.0
H593 H 0.1 0.61552 0.59156 0.0
H594 H 0.1035 0.61843 0.54977 0.0
H595 H 0.16707 0.64004 0.5236 0.0
H596 H 0.1602 0.65168 0.40092 0.0
H597 H 0.15976 0.65912 0.44284 0.0
H598 H 0.09981 0.64219 0.47728 0.0
C599 C 0.11454 0.62744 0.56059 0.0
C600 C 0.15232 0.64101 0.51366 0.0
C601 C 0.11263 0.62563 0.58463 0.0
C602 C 0.14942 0.64262 0.41197 0.0
C603 C 0.14923 0.64682 0.43591 0.0
C604 C 0.11461 0.64191 0.48721 0.0
C605 C 0.13061 0.64038 0.55065 0.0
C606 C 0.13226 0.64202 0.52493 0.0
C607 C 0.13524 0.63547 0.45066 0.0
C608 C 0.13453 0.63972 0.47599 0.0
H609 H 0.15422 0.65815 0.6006 0.0
H610 H 0.15749 0.66142 0.5583 0.0
H611 H 0.09782 0.64449 0.51945 0.0
H612 H 0.11154 0.60292 0.41073 0.0
H613 H 0.11104 0.61045 0.45215 0.0
C614 C 0.34523 0.14698 0.59165 0.0
C615 C 0.34691 0.12543 0.59881 0.0
C616 C 0.34426 0.15211 0.56797 0.0
C617 C 0.33199 0.12974 0.51021 0.0
H618 H 0.3752 0.16933 0.48722 0.0
C619 C 0.34324 0.14816 0.41212 0.0
C620 C 0.36443 0.14474 0.40448 0.0
C621 C 0.3386 0.14915 0.43591 0.0
C622 C 0.36292 0.15841 0.49343 0.0
H623 H 0.34805 0.09236 0.58689 0.0
H624 H 0.346 0.1013 0.54574 0.0
H625 H 0.37066 0.16446 0.52911 0.0
H626 H 0.39748 0.14055 0.41569 0.0
H627 H 0.38944 0.14265 0.45705 0.0
H628 H 0.32468 0.12322 0.47451 0.0
C629 C 0.34552 0.11422 0.55835 0.0
C630 C 0.36022 0.15573 0.51736 0.0
C631 C 0.34685 0.10912 0.58192 0.0
C632 C 0.38097 0.1431 0.42103 0.0
C633 C 0.3764 0.14446 0.44472 0.0
C634 C 0.33448 0.13265 0.48628 0.0
C635 C 0.34452 0.13576 0.55111 0.0
C636 C 0.34514 0.14093 0.52597 0.0
C637 C 0.35515 0.14719 0.45243 0.0
C638 C 0.35037 0.14657 0.47765 0.0
H639 H 0.34526 0.15989 0.60428 0.0
H640 H 0.34346 0.16885 0.56282 0.0
H641 H 0.32015 0.11832 0.51641 0.0
H642 H 0.33017 0.14946 0.39975 0.0
H643 H 0.32209 0.15131 0.44143 0.0
C644 C 0.85027 0.38555 0.41773 0.0
C645 C 0.84995 0.36776 0.40273 0.0
C646 C 0.85046 0.38269 0.44175 0.0
C647 C 0.84237 0.34261 0.48905 0.0
H648 H 0.87938 0.38196 0.52263 0.0
C649 C 0.88507 0.35501 0.58496 0.0
C650 C 0.86784 0.35014 0.59981 0.0
C651 C 0.88215 0.35556 0.56095 0.0
C652 C 0.86915 0.37064 0.51357 0.0
H653 H 0.84889 0.33296 0.40113 0.0
H654 H 0.84992 0.32787 0.44326 0.0
H655 H 0.87547 0.3857 0.48103 0.0
H656 H 0.83412 0.34145 0.60112 0.0
H657 H 0.82879 0.34303 0.55902 0.0
H658 H 0.83678 0.32707 0.52175 0.0
C659 C 0.84962 0.34409 0.43644 0.0
C660 C 0.8666 0.37303 0.48965 0.0
C661 C 0.84914 0.34698 0.41229 0.0
C662 C 0.8477 0.34526 0.59008 0.0
C663 C 0.84469 0.34606 0.56596 0.0
C664 C 0.84507 0.3401 0.51308 0.0
C665 C 0.85069 0.36194 0.45146 0.0
C666 C 0.85313 0.35912 0.47704 0.0
C667 C 0.86183 0.35158 0.55112 0.0
C668 C 0.85857 0.35407 0.52562 0.0
H669 H 0.85058 0.40178 0.4109 0.0
H670 H 0.85066 0.39684 0.45273 0.0
H671 H 0.83173 0.3317 0.47994 0.0
H672 H 0.90088 0.35854 0.59188 0.0
H673 H 0.89587 0.35928 0.55009 0.0
C674 C 0.64954 0.85286 0.58701 0.0
C675 C 0.63636 0.86889 0.59674 0.0
C676 C 0.65098 0.85051 0.56283 0.0
C677 C 0.6412 0.88103 0.50851 0.0
H678 H 0.63964 0.82509 0.47877 0.0
C679 C 0.61664 0.87058 0.41364 0.0
C680 C 0.6292 0.85726 0.39935 0.0
C681 C 0.62011 0.87123 0.43755 0.0
C682 C 0.6404 0.84079 0.48688 0.0
H683 H 0.61394 0.89459 0.58873 0.0
H684 H 0.61615 0.89028 0.54696 0.0
H685 H 0.64075 0.82748 0.52126 0.0
H686 H 0.65509 0.83389 0.39899 0.0
H687 H 0.66096 0.83482 0.44119 0.0
H688 H 0.64015 0.89437 0.47429 0.0
C689 C 0.6258 0.87984 0.55783 0.0
C690 C 0.64105 0.84217 0.51117 0.0
C691 C 0.62441 0.88221 0.58185 0.0
C692 C 0.64521 0.84437 0.40957 0.0
C693 C 0.64851 0.84482 0.43367 0.0
C694 C 0.64041 0.87965 0.48436 0.0
C695 C 0.63929 0.86416 0.54797 0.0
C696 C 0.64092 0.86235 0.52226 0.0
C697 C 0.63609 0.85844 0.44783 0.0
C698 C 0.6395 0.85955 0.4733 0.0
H699 H 0.65896 0.84235 0.59804 0.0
H700 H 0.66156 0.83831 0.55577 0.0
H701 H 0.64168 0.89682 0.51645 0.0
H702 H 0.60416 0.88071 0.40636 0.0
H703 H 0.61009 0.88165 0.44806 0.0
C704 C 0.18754 0.57254 0.27665 0.0
C705 C 0.1765 0.57189 0.29797 0.0
C706 C 0.19494 0.55363 0.26634 0.0
C707 C 0.20394 0.49524 0.27486 0.0
H708 H 0.17897 0.49081 0.21335 0.0
C709 C 0.17699 0.41519 0.23522 0.0
C710 C 0.17513 0.41314 0.211 0.0
C711 C 0.18449 0.43428 0.24505 0.0
C712 C 0.18666 0.49175 0.23019 0.0
H713 H 0.16633 0.55106 0.32614 0.0
H714 H 0.17917 0.51802 0.30802 0.0
H715 H 0.17965 0.52526 0.2328 0.0
H716 H 0.1816 0.42865 0.17802 0.0
H717 H 0.19552 0.46169 0.19513 0.0
H718 H 0.21052 0.46153 0.27241 0.0
C719 C 0.1821 0.53319 0.29932 0.0
C720 C 0.18697 0.5116 0.2414 0.0
C721 C 0.17461 0.55211 0.30963 0.0
C722 C 0.18252 0.42991 0.19677 0.0
C723 C 0.19039 0.44889 0.2066 0.0
C724 C 0.20389 0.47535 0.26349 0.0
C725 C 0.19157 0.53369 0.27716 0.0
C726 C 0.19499 0.51344 0.26412 0.0
C727 C 0.19063 0.45166 0.23087 0.0
C728 C 0.19455 0.47322 0.24131 0.0
H729 H 0.18954 0.58753 0.26731 0.0
H730 H 0.20246 0.55449 0.24938 0.0
H731 H 0.21042 0.49628 0.29229 0.0
H732 H 0.17145 0.40253 0.24667 0.0
H733 H 0.18418 0.43579 0.26378 0.0
C734 C 0.57304 0.1802 0.23026 0.0
C735 C 0.57489 0.17633 0.2063 0.0
C736 C 0.55366 0.1874 0.23968 0.0
C737 C 0.49589 0.18528 0.22605 0.0
H738 H 0.49119 0.21462 0.28529 0.0
C739 C 0.41582 0.18752 0.2742 0.0
C740 C 0.41732 0.17847 0.29654 0.0
C741 C 0.43425 0.19452 0.26263 0.0
C742 C 0.49227 0.20657 0.26864 0.0
H743 H 0.55853 0.17885 0.17316 0.0
H744 H 0.52492 0.19223 0.18948 0.0
H745 H 0.52556 0.21445 0.26467 0.0
H746 H 0.43909 0.17146 0.32502 0.0
H747 H 0.47127 0.18368 0.30474 0.0
H748 H 0.46278 0.17706 0.23021 0.0
C749 C 0.53817 0.18892 0.20114 0.0
C750 C 0.51194 0.20635 0.25687 0.0
C751 C 0.55747 0.18135 0.19174 0.0
C752 C 0.4374 0.17818 0.30776 0.0
C753 C 0.45583 0.18533 0.29621 0.0
C754 C 0.47622 0.18576 0.23764 0.0
C755 C 0.53575 0.19123 0.22533 0.0
C756 C 0.51418 0.19506 0.2358 0.0
C757 C 0.45452 0.19279 0.27321 0.0
C758 C 0.47437 0.19581 0.25938 0.0
H759 H 0.58617 0.1765 0.24196 0.0
H760 H 0.55244 0.18871 0.25839 0.0
H761 H 0.49695 0.17609 0.21012 0.0
H762 H 0.40058 0.1882 0.26513 0.0
H763 H 0.43278 0.20044 0.245 0.0
C764 C 0.81958 0.55074 0.18866 0.0
C765 C 0.81674 0.57059 0.19994 0.0
C766 C 0.81184 0.53179 0.19869 0.0
C767 C 0.80376 0.51074 0.25652 0.0
H768 H 0.78322 0.4599 0.2245 0.0
C769 C 0.80623 0.42985 0.3028 0.0
C770 C 0.81502 0.41303 0.28958 0.0
C771 C 0.79873 0.44849 0.29197 0.0
C772 C 0.78898 0.47395 0.23371 0.0
H773 H 0.80182 0.58632 0.22952 0.0
H774 H 0.78842 0.55327 0.24697 0.0
H775 H 0.78406 0.49442 0.20416 0.0
H776 H 0.82153 0.40194 0.25456 0.0
H777 H 0.8094 0.43468 0.23576 0.0
H778 H 0.81014 0.49042 0.28545 0.0
C779 C 0.79689 0.55235 0.23055 0.0
C780 C 0.78937 0.4937 0.22207 0.0
C781 C 0.80457 0.57127 0.22052 0.0
C782 C 0.81488 0.41465 0.26524 0.0
C783 C 0.80774 0.43343 0.25443 0.0
C784 C 0.80361 0.49104 0.26803 0.0
C785 C 0.80115 0.53236 0.22019 0.0
C786 C 0.79726 0.51217 0.23321 0.0
C787 C 0.80026 0.4509 0.26771 0.0
C788 C 0.79678 0.47225 0.25661 0.0
H789 H 0.82875 0.54966 0.1727 0.0
H790 H 0.81548 0.5166 0.19036 0.0
H791 H 0.81025 0.52461 0.26548 0.0
H792 H 0.80581 0.4289 0.32159 0.0
H793 H 0.79252 0.46137 0.30271 0.0
C794 C 0.55828 0.81303 0.30942 0.0
C795 C 0.57519 0.81744 0.29399 0.0
C796 C 0.53847 0.80579 0.30107 0.0
C797 C 0.50958 0.78847 0.24681 0.0
H798 H 0.46227 0.81922 0.27544 0.0
C799 C 0.4339 0.81846 0.19918 0.0
C800 C 0.41423 0.81851 0.2112 0.0
C801 C 0.45259 0.81096 0.20996 0.0
C802 C 0.47518 0.81012 0.26749 0.0
H803 H 0.58502 0.81654 0.25785 0.0
H804 H 0.5504 0.80493 0.2432 0.0
H805 H 0.49722 0.81943 0.29394 0.0
H806 H 0.39845 0.80911 0.2433 0.0
H807 H 0.43114 0.79629 0.26211 0.0
H808 H 0.48752 0.7806 0.21943 0.0
C809 C 0.5524 0.80644 0.26181 0.0
C810 C 0.4953 0.81016 0.27816 0.0
C811 C 0.5723 0.8133 0.27021 0.0
C812 C 0.41337 0.80952 0.23361 0.0
C813 C 0.43208 0.80218 0.24442 0.0
C814 C 0.48946 0.78871 0.23595 0.0
C815 C 0.53501 0.80323 0.27705 0.0
C816 C 0.51295 0.79985 0.26766 0.0
C817 C 0.45197 0.80349 0.23298 0.0
C818 C 0.47223 0.8 0.24593 0.0
H819 H 0.56015 0.81576 0.3279 0.0
H820 H 0.52563 0.80293 0.31339 0.0
H821 H 0.52266 0.77996 0.23846 0.0
H822 H 0.43509 0.82512 0.18184 0.0
H823 H 0.46774 0.81229 0.20078 0.0
C824 C 0.83592 0.56704 0.77788 0.0
C825 C 0.85012 0.57244 0.79597 0.0
C826 C 0.83596 0.54641 0.76838 0.0
C827 C 0.85385 0.49046 0.77845 0.0
H828 H 0.85051 0.48691 0.71125 0.0
C829 C 0.86852 0.42444 0.70061 0.0
C830 C 0.85804 0.4066 0.71042 0.0
C831 C 0.8671 0.44466 0.71114 0.0
C832 C 0.85162 0.48763 0.73001 0.0
H833 H 0.87497 0.56012 0.81884 0.0
H834 H 0.87518 0.52408 0.80207 0.0
H835 H 0.84886 0.52189 0.73018 0.0
H836 H 0.83741 0.39616 0.73869 0.0
H837 H 0.8347 0.43138 0.75674 0.0
H838 H 0.85717 0.45622 0.77821 0.0
C839 C 0.86388 0.5358 0.79537 0.0
C840 C 0.85039 0.50765 0.74089 0.0
C841 C 0.86379 0.55647 0.80496 0.0
C842 C 0.84581 0.40951 0.73073 0.0
C843 C 0.84436 0.42969 0.7412 0.0
C844 C 0.8551 0.47042 0.76755 0.0
C845 C 0.85026 0.53068 0.77667 0.0
C846 C 0.85143 0.5093 0.76524 0.0
C847 C 0.85514 0.44746 0.73166 0.0
C848 C 0.85396 0.46878 0.74321 0.0
H849 H 0.82504 0.57889 0.77067 0.0
H850 H 0.82493 0.54284 0.75434 0.0
H851 H 0.85457 0.49117 0.79723 0.0
H852 H 0.87814 0.42274 0.68503 0.0
H853 H 0.87576 0.45799 0.70348 0.0
C854 C 0.57839 0.84945 0.72954 0.0
C855 C 0.58115 0.86141 0.70902 0.0
C856 C 0.55827 0.84815 0.7402 0.0
C857 C 0.50014 0.85609 0.72939 0.0
H858 H 0.49718 0.8589 0.79663 0.0
C859 C 0.43254 0.86959 0.80567 0.0
C860 C 0.41598 0.85663 0.79674 0.0
C861 C 0.45299 0.86929 0.79558 0.0
C862 C 0.49771 0.85825 0.77784 0.0
H863 H 0.56483 0.88125 0.68352 0.0
H864 H 0.52977 0.87925 0.70233 0.0
H865 H 0.53201 0.86072 0.77736 0.0
H866 H 0.40818 0.83252 0.77081 0.0
H867 H 0.44388 0.83165 0.75361 0.0
H868 H 0.46583 0.85433 0.7298 0.0
C869 C 0.54312 0.8706 0.70999 0.0
C870 C 0.5177 0.85902 0.76679 0.0
C871 C 0.56324 0.87182 0.69925 0.0
C872 C 0.42051 0.84286 0.778 0.0
C873 C 0.44095 0.84247 0.76802 0.0
C874 C 0.48016 0.85541 0.74043 0.0
C875 C 0.54043 0.85886 0.73068 0.0
C876 C 0.51916 0.85794 0.74243 0.0
C877 C 0.45735 0.85593 0.77642 0.0
C878 C 0.47869 0.85645 0.76479 0.0
H879 H 0.59181 0.84112 0.73747 0.0
H880 H 0.5567 0.83864 0.75587 0.0
H881 H 0.50068 0.855 0.71063 0.0
H882 H 0.42956 0.88044 0.82004 0.0
H883 H 0.46518 0.88002 0.80235 0.0
C884 C 0.13939 0.41247 0.76697 0.0
C885 C 0.13753 0.40999 0.79115 0.0
C886 C 0.14039 0.43292 0.75704 0.0
C887 C 0.12815 0.49013 0.77004 0.0
H888 H 0.16199 0.50038 0.71452 0.0
C889 C 0.14286 0.57487 0.73315 0.0
C890 C 0.13817 0.5776 0.70943 0.0
C891 C 0.14377 0.55435 0.74288 0.0
C892 C 0.1524 0.49767 0.72995 0.0
H893 H 0.1359 0.42704 0.82395 0.0
H894 H 0.13847 0.46274 0.80675 0.0
H895 H 0.16235 0.46485 0.73255 0.0
H896 H 0.13138 0.56086 0.67719 0.0
H897 H 0.13339 0.52483 0.69425 0.0
H898 H 0.11866 0.52316 0.76764 0.0
C899 C 0.13848 0.4489 0.79533 0.0
C900 C 0.15251 0.47732 0.74026 0.0
C901 C 0.13716 0.42842 0.80524 0.0
C902 C 0.13499 0.55929 0.69552 0.0
C903 C 0.13621 0.5387 0.70523 0.0
C904 C 0.1283 0.51052 0.75992 0.0
C905 C 0.13988 0.45143 0.77107 0.0
C906 C 0.1403 0.47324 0.7604 0.0
C907 C 0.1403 0.53609 0.72907 0.0
C908 C 0.14036 0.51446 0.73975 0.0
H909 H 0.13955 0.39859 0.7556 0.0
H910 H 0.14107 0.43417 0.7383 0.0
H911 H 0.11818 0.48754 0.78519 0.0
H912 H 0.14537 0.58862 0.74437 0.0
H913 H 0.14714 0.55275 0.76127 0.0
C914 C 0.42492 0.1073 0.70213 0.0
C915 C 0.41271 0.12626 0.70096 0.0
C916 C 0.44449 0.10701 0.71413 0.0
C917 C 0.47441 0.13841 0.7589 0.0
H918 H 0.52187 0.10151 0.741 0.0
C919 C 0.56215 0.14753 0.79052 0.0
C920 C 0.57219 0.12887 0.79898 0.0
C921 C 0.54173 0.14642 0.78053 0.0
C922 C 0.50861 0.1117 0.74628 0.0
H923 H 0.41192 0.16006 0.71001 0.0
H924 H 0.44651 0.15993 0.72968 0.0
H925 H 0.48905 0.10172 0.71771 0.0
H926 H 0.56868 0.0945 0.80405 0.0
H927 H 0.53304 0.09251 0.78586 0.0
H928 H 0.49458 0.14909 0.78682 0.0
C929 C 0.44066 0.14499 0.72239 0.0
C930 C 0.48978 0.11182 0.733 0.0
C931 C 0.42094 0.14516 0.71085 0.0
C932 C 0.56121 0.10915 0.79783 0.0
C933 C 0.54096 0.10797 0.78731 0.0
C934 C 0.49338 0.13858 0.77186 0.0
C935 C 0.45242 0.12578 0.72482 0.0
C936 C 0.47246 0.1253 0.73904 0.0
C937 C 0.53121 0.12657 0.77835 0.0
C938 C 0.51064 0.1253 0.76561 0.0
H939 H 0.41883 0.09244 0.69484 0.0
H940 H 0.45292 0.09185 0.71576 0.0
H941 H 0.46127 0.14856 0.76455 0.0
H942 H 0.57028 0.16292 0.7912 0.0
H943 H 0.53453 0.16096 0.77365 0.0
C944 C 0.67276 0.07971 0.76159 0.0
C945 C 0.67334 0.08175 0.78588 0.0
C946 C 0.68071 0.06122 0.75084 0.0
C947 C 0.68867 0.00427 0.76535 0.0
H948 H 0.70611 0.00086 0.70078 0.0
C949 C 0.68908 0.92344 0.71908 0.0
C950 C 0.67618 0.92348 0.69902 0.0
C951 C 0.69652 0.94273 0.72851 0.0
C952 C 0.70142 0.00159 0.71889 0.0
H953 H 0.68463 0.06707 0.81778 0.0
H954 H 0.69928 0.03516 0.79898 0.0
H955 H 0.70586 0.0357 0.72049 0.0
H956 H 0.66259 0.94366 0.67198 0.0
H957 H 0.67538 0.97733 0.6886 0.0
H958 H 0.68363 0.97038 0.76363 0.0
C959 C 0.69192 0.04743 0.78826 0.0
C960 C 0.70118 0.02152 0.73017 0.0
C961 C 0.68362 0.06576 0.79905 0.0
C962 C 0.67234 0.94307 0.68756 0.0
C963 C 0.67981 0.96238 0.69699 0.0
C964 C 0.68913 0.9844 0.75418 0.0
C965 C 0.68972 0.0445 0.76413 0.0
C966 C 0.69407 0.02319 0.75332 0.0
C967 C 0.69125 0.96245 0.71805 0.0
C968 C 0.69482 0.98293 0.73064 0.0
H969 H 0.66496 0.09179 0.75096 0.0
H970 H 0.6785 0.05953 0.73228 0.0
H971 H 0.68272 0.00483 0.78301 0.0
H972 H 0.6926 0.90861 0.72818 0.0
H973 H 0.70557 0.9423 0.74458 0.0
C974 C 0.91367 0.66864 0.76515 0.0
C975 C 0.91122 0.66697 0.78934 0.0
C976 C 0.93325 0.6751 0.75558 0.0
C977 C 0.99077 0.67565 0.77113 0.0
H978 H -0.00345 0.70083 0.70981 0.0
C979 C 0.07285 0.6805 0.72715 0.0
C980 C 0.0733 0.67001 0.7055 0.0
C981 C 0.05332 0.68655 0.73714 0.0
C982 C 0.99515 0.69392 0.72701 0.0
H983 H 0.92672 0.67248 0.82253 0.0
H984 H 0.96063 0.68464 0.8059 0.0
H985 H 0.96141 0.70051 0.72885 0.0
H986 H 0.05371 0.65927 0.67654 0.0
H987 H 0.01958 0.66987 0.69407 0.0
H988 H 0.02439 0.66885 0.76917 0.0
C989 C 0.94773 0.68014 0.79424 0.0
C990 C 0.97504 0.69361 0.7379 0.0
C991 C 0.92826 0.67329 0.80381 0.0
C992 C 0.05391 0.66717 0.69331 0.0
C993 C 0.03437 0.67336 0.70327 0.0
C994 C 0.01085 0.67625 0.76041 0.0
C995 C 0.95074 0.6804 0.77 0.0
C996 C 0.97248 0.68391 0.75984 0.0
C997 C 0.03386 0.6824 0.72563 0.0
C998 C 0.01315 0.68487 0.73802 0.0
H999 H 0.90083 0.66385 0.75353 0.0
H1000 H 0.93494 0.6748 0.73687 0.0
H1001 H 0.98949 0.66765 0.78777 0.0
H1002 H 0.08748 0.68315 0.73693 0.0
H1003 H 0.05337 0.69372 0.7543 0.0
C1004 C 0.31184 0.05446 0.69877 0.0
C1005 C 0.31395 0.07455 0.70972 0.0
C1006 C 0.30508 0.03649 0.71137 0.0
C1007 C 0.31017 0.0165 0.76995 0.0
H1008 H 0.27757 0.96796 0.74667 0.0
C1009 C 0.31675 0.93498 0.81523 0.0
C1010 C 0.32 0.91751 0.80015 0.0
C1011 C 0.30892 0.95453 0.80673 0.0
C1012 C 0.28676 0.98136 0.75343 0.0
H1013 H 0.30872 0.09192 0.74196 0.0
H1014 H 0.29704 0.06052 0.76391 0.0
H1015 H 0.27616 0.00232 0.72613 0.0
H1016 H 0.31643 0.9065 0.76459 0.0
H1017 H 0.30366 0.94062 0.74967 0.0
H1018 H 0.32201 -0.0045 0.79624 0.0
C1019 C 0.30086 0.05866 0.74565 0.0
C1020 C 0.28585 0.00104 0.74171 0.0
C1021 C 0.30752 0.07664 0.73304 0.0
C1022 C 0.31416 0.91965 0.77668 0.0
C1023 C 0.30662 0.93925 0.76814 0.0
C1024 C 0.31128 -0.00317 0.78149 0.0
C1025 C 0.30036 0.03827 0.73517 0.0
C1026 C 0.29802 0.01863 0.74952 0.0
C1027 C 0.30447 0.95713 0.78292 0.0
C1028 C 0.30011 0.97881 0.773 0.0
H1029 H 0.3165 0.05233 0.68079 0.0
H1030 H 0.30496 0.02097 0.70285 0.0
H1031 H 0.31999 0.02967 0.77623 0.0
H1032 H 0.32081 0.93374 0.83348 0.0
H1033 H 0.307 0.9678 0.81873 0.0
C1034 C 0.07417 0.2994 0.78561 0.0
C1035 C 0.07393 0.31648 0.80161 0.0
C1036 C 0.055 0.29168 0.77609 0.0
C1037 C 0.01613 0.2928 0.74475 0.0
H1038 H 0.96099 0.29763 0.77563 0.0
C1039 C 0.93963 0.31759 0.69708 0.0
C1040 C 0.91941 0.31167 0.70582 0.0
C1041 C 0.95841 0.31088 0.7082 0.0
C1042 C 0.9762 0.29568 0.76672 0.0
H1043 H 0.05333 0.33795 0.82125 0.0
H1044 H 0.02006 0.32507 0.80417 0.0
H1045 H 0.99379 0.29824 0.79852 0.0
H1046 H 0.90306 0.29242 0.73183 0.0
H1047 H 0.93588 0.28026 0.7509 0.0
H1048 H -0.00145 0.29026 0.71295 0.0
C1049 C 0.03493 0.31725 0.79924 0.0
C1050 C 0.99507 0.29637 0.77987 0.0
C1051 C 0.05407 0.32477 0.80896 0.0
C1052 C 0.9184 0.29751 0.72484 0.0
C1053 C 0.93721 0.29063 0.73586 0.0
C1054 C -0.00273 0.29186 0.73163 0.0
C1055 C 0.0352 0.30106 0.78214 0.0
C1056 C 0.01528 0.29587 0.76895 0.0
C1057 C 0.95742 0.2979 0.7282 0.0
C1058 C 0.9771 0.29422 0.74235 0.0
H1059 H 0.08922 0.29245 0.77984 0.0
H1060 H 0.05578 0.27886 0.76338 0.0
H1061 H 0.03136 0.29244 0.73565 0.0
H1062 H 0.941 0.32845 0.68244 0.0
H1063 H 0.97362 0.31702 0.7019 0.0
C1064 C 0.37296 0.06419 0.30769 0.0
C1065 C 0.36009 0.08093 0.29896 0.0
C1066 C 0.37233 0.04376 0.2975 0.0
C1067 C 0.35785 0.0169 0.24244 0.0
H1068 H 0.35944 0.96491 0.27952 0.0
C1069 C 0.36881 0.93237 0.20216 0.0
C1070 C 0.35666 0.91553 0.2118 0.0
C1071 C 0.36899 0.95266 0.21262 0.0
C1072 C 0.35882 0.97929 0.26893 0.0
H1073 H 0.33592 0.08909 0.27318 0.0
H1074 H 0.33463 0.05355 0.25576 0.0
H1075 H 0.35983 -0.00013 0.29872 0.0
H1076 H 0.33466 0.90704 0.23962 0.0
H1077 H 0.33475 0.94244 0.25756 0.0
H1078 H 0.35641 -0.00365 0.21267 0.0
C1079 C 0.34555 0.05628 0.27013 0.0
C1080 C 0.35931 -0.00069 0.27993 0.0
C1081 C 0.34619 0.07664 0.28025 0.0
C1082 C 0.3443 0.9196 0.23179 0.0
C1083 C 0.34447 0.93986 0.2422 0.0
C1084 C 0.35737 -0.00311 0.23145 0.0
C1085 C 0.35881 0.03968 0.2784 0.0
C1086 C 0.35871 0.01835 0.26681 0.0
C1087 C 0.35702 0.95656 0.23292 0.0
C1088 C 0.35776 0.97785 0.24456 0.0
H1089 H 0.38388 0.06697 0.32204 0.0
H1090 H 0.38286 0.03134 0.30418 0.0
H1091 H 0.35767 0.03127 0.23181 0.0
H1092 H 0.37857 0.92977 0.18683 0.0
H1093 H 0.37896 0.96515 0.20513 0.0
C1094 C 0.92602 0.38069 0.29867 0.0
C1095 C 0.91427 0.36152 0.30058 0.0
C1096 C 0.9461 0.38079 0.2877 0.0
C1097 C 0.97882 0.34746 0.24698 0.0
H1098 H 0.02391 0.38776 0.26335 0.0
C1099 C 0.0677 0.34162 0.21757 0.0
C1100 C 0.07607 0.36009 0.20681 0.0
C1101 C 0.04738 0.34207 0.22783 0.0
C1102 C 0.01133 0.37655 0.25855 0.0
H1103 H 0.91471 0.32724 0.29402 0.0
H1104 H 0.95019 0.32708 0.27627 0.0
H1105 H 0.99048 0.38748 0.28558 0.0
H1106 H 0.06974 0.39343 0.19814 0.0
H1107 H 0.03429 0.39433 0.21682 0.0
H1108 H 0.00031 0.33595 0.22063 0.0
C1109 C 0.94363 0.34228 0.2821 0.0
C1110 C 0.99214 0.3764 0.27119 0.0
C1111 C 0.92339 0.34228 0.29254 0.0
C1112 C 0.06359 0.37892 0.20616 0.0
C1113 C 0.04344 0.37951 0.21694 0.0
C1114 C -0.00182 0.34732 0.23471 0.0
C1115 C 0.95501 0.36162 0.27887 0.0
C1116 C 0.97561 0.36181 0.26561 0.0
C1117 C 0.03529 0.36112 0.22799 0.0
C1118 C 0.01454 0.36186 0.24038 0.0
H1119 H 0.91923 0.39578 0.30454 0.0
H1120 H 0.95417 0.39605 0.28537 0.0
H1121 H 0.96634 0.33638 0.24166 0.0
H1122 H 0.077 0.3269 0.2183 0.0
H1123 H 0.04138 0.32772 0.23633 0.0
C1124 C 0.62241 0.92972 0.29852 0.0
C1125 C 0.63541 0.91311 0.28974 0.0
C1126 C 0.62263 0.95007 0.28819 0.0
C1127 C 0.65504 0.98549 0.25078 0.0
H1128 H 0.60056 0.01351 0.23802 0.0
C1129 C 0.64846 0.07396 0.22188 0.0
C1130 C 0.6335 0.07902 0.20439 0.0
C1131 C 0.64924 0.05334 0.23138 0.0
C1132 C 0.61588 0.00579 0.2413 0.0
H1133 H 0.65928 0.90503 0.26362 0.0
H1134 H 0.65969 0.94049 0.24575 0.0
H1135 H 0.60098 0.97851 0.2573 0.0
H1136 H 0.6079 0.06623 0.18283 0.0
H1137 H 0.60929 0.03009 0.19953 0.0
H1138 H 0.66995 0.0127 0.23469 0.0
C1139 C 0.64936 0.9378 0.26062 0.0
C1140 C 0.61613 0.9859 0.2526 0.0
C1141 C 0.64904 0.91745 0.27082 0.0
C1142 C 0.61962 0.06284 0.19627 0.0
C1143 C 0.6203 0.04221 0.20593 0.0
C1144 C 0.6548 0.00543 0.23963 0.0
C1145 C 0.63599 0.95425 0.26901 0.0
C1146 C 0.63572 0.97555 0.25745 0.0
C1147 C 0.63501 0.03732 0.22372 0.0
C1148 C 0.63522 0.0158 0.23479 0.0
H1149 H 0.61172 0.9269 0.31306 0.0
H1150 H 0.61233 0.96254 0.29519 0.0
H1151 H 0.67039 0.97796 0.25441 0.0
H1152 H 0.65942 0.08602 0.22852 0.0
H1153 H 0.66061 0.05012 0.2452 0.0
C1154 C 0.07519 0.6437 0.27394 0.0
C1155 C 0.07931 0.63058 0.29333 0.0
C1156 C 0.05479 0.64422 0.26385 0.0
C1157 C -0.00235 0.63105 0.27472 0.0
H1158 H 0.9941 0.6322 0.20746 0.0
C1159 C 0.93053 0.61832 0.19758 0.0
C1160 C 0.91334 0.63001 0.20716 0.0
C1161 C 0.95085 0.61885 0.20797 0.0
C1162 C 0.99479 0.63171 0.22625 0.0
H1163 H 0.06508 0.60796 0.31754 0.0
H1164 H 0.02952 0.60862 0.29969 0.0
H1165 H 0.02917 0.6318 0.22624 0.0
H1166 H 0.90417 0.65187 0.23484 0.0
H1167 H 0.93963 0.65312 0.25263 0.0
H1168 H 0.96327 0.63031 0.2747 0.0
C1169 C 0.04202 0.61874 0.29249 0.0
C1170 C 0.01491 0.63176 0.23704 0.0
C1171 C 0.06243 0.6183 0.30267 0.0
C1172 C 0.91702 0.64256 0.22708 0.0
C1173 C 0.93733 0.64316 0.23739 0.0
C1174 C 0.97753 0.63092 0.26392 0.0
C1175 C 0.03802 0.63156 0.27281 0.0
C1176 C 0.01658 0.63148 0.2614 0.0
C1177 C 0.95444 0.63116 0.2281 0.0
C1178 C 0.97586 0.63129 0.23956 0.0
H1179 H 0.08778 0.6535 0.26639 0.0
H1180 H 0.05217 0.65459 0.249 0.0
H1181 H -0.00165 0.63101 0.29351 0.0
H1182 H 0.92823 0.60841 0.1823 0.0
H1183 H 0.96361 0.60922 0.20051 0.0
loop_
_geom_bond_atom_site_label_1
_geom_bond_atom_site_label_2
_geom_bond_distance
_geom_bond_site_symmetry_2
_ccdc_geom_bond_type
O0 Cd1 2.223 . S
O0 C8 1.315 . S
Cd1 O0 2.223 . S
Cd1 O4 2.297 . S
Cd1 O5 2.439 . S
Cd1 O11 2.240 . S
Cd2 O3 2.240 . S
Cd2 O10 2.223 . S
Cd2 O12 2.297 . S
Cd2 O13 2.439 . S
O3 Cd2 2.240 . S
O3 C8 1.279 . S
O4 Cd1 2.297 . S
O4 C6 1.247 . S
O5 Cd1 2.439 . S
O5 C6 1.208 . S
C6 O4 1.247 . S
C6 O5 1.208 . S
C7 O12 1.247 . S
C7 O13 1.208 . S
C8 O0 1.315 . S
C8 O3 1.279 . S
C9 O10 1.315 . S
C9 O11 1.279 . S
O10 Cd2 2.223 . S
O10 C9 1.315 . S
O11 Cd1 2.240 . S
O11 C9 1.279 . S
O12 Cd2 2.297 . S
O12 C7 1.247 . S
O13 Cd2 2.439 . S
O13 C7 1.208 . S
O14 Cd15 2.223 . S
O14 C22 1.315 . S
Cd15 O14 2.223 . S
Cd15 O18 2.297 . S
Cd15 O19 2.439 . S
Cd15 O25 2.240 . S
Cd16 O17 2.240 . S
Cd16 O24 2.223 . S
Cd16 O26 2.297 . S
Cd16 O27 2.439 . S
O17 Cd16 2.240 . S
O17 C22 1.279 . S
O18 Cd15 2.297 . S
O18 C20 1.247 . S
O19 Cd15 2.439 . S
O19 C20 1.208 . S
C20 O18 1.247 . S
C20 O19 1.208 . S
C21 O26 1.247 . S
C21 O27 1.208 . S
C22 O14 1.315 . S
C22 O17 1.279 . S
C23 O24 1.315 . S
C23 O25 1.279 . S
O24 Cd16 2.223 . S
O24 C23 1.315 . S
O25 Cd15 2.240 . S
O25 C23 1.279 . S
O26 Cd16 2.297 . S
O26 C21 1.247 . S
O27 Cd16 2.439 . S
O27 C21 1.208 . S
O28 Cd29 2.223 . S
O28 C36 1.315 . S
Cd29 O28 2.223 . S
Cd29 O32 2.297 . S
Cd29 O33 2.439 . S
Cd29 O39 2.240 . S
Cd30 O31 2.240 . S
Cd30 O38 2.223 . S
Cd30 O40 2.297 . S
Cd30 O41 2.439 . S
O31 Cd30 2.240 . S
O31 C36 1.279 . S
O32 Cd29 2.297 . S
O32 C34 1.247 . S
O33 Cd29 2.439 . S
O33 C34 1.208 . S
C34 O32 1.247 . S
C34 O33 1.208 . S
C35 O40 1.247 . S
C35 O41 1.208 . S
C36 O28 1.315 . S
C36 O31 1.279 . S
C37 O38 1.315 . S
C37 O39 1.279 . S
O38 Cd30 2.223 . S
O38 C37 1.315 . S
O39 Cd29 2.240 . S
O39 C37 1.279 . S
O40 Cd30 2.297 . S
O40 C35 1.247 . S
O41 Cd30 2.439 . S
O41 C35 1.208 . S
O42 Cd43 2.223 . S
O42 C50 1.315 . S
Cd43 O42 2.223 . S
Cd43 O46 2.297 . S
Cd43 O47 2.439 . S
Cd43 O53 2.240 . S
Cd44 O45 2.240 . S
Cd44 O52 2.223 . S
Cd44 O54 2.297 . S
Cd44 O55 2.439 . S
O45 Cd44 2.240 . S
O45 C50 1.279 . S
O46 Cd43 2.297 . S
O46 C48 1.247 . S
O47 Cd43 2.439 . S
O47 C48 1.208 . S
C48 O46 1.247 . S
C48 O47 1.208 . S
C49 O54 1.247 . S
C49 O55 1.208 . S
C50 O42 1.315 . S
C50 O45 1.279 . S
C51 O52 1.315 . S
C51 O53 1.279 . S
O52 Cd44 2.223 . S
O52 C51 1.315 . S
O53 Cd43 2.240 . S
O53 C51 1.279 . S
O54 Cd44 2.297 . S
O54 C49 1.247 . S
O55 Cd44 2.439 . S
O55 C49 1.208 . S
O56 Cd57 2.223 . S
O56 C64 1.315 . S
Cd57 O56 2.223 . S
Cd57 O60 2.297 . S
Cd57 O61 2.439 . S
Cd57 O67 2.240 . S
Cd58 O59 2.240 . S
Cd58 O66 2.223 . S
Cd58 O68 2.297 . S
Cd58 O69 2.439 . S
O59 Cd58 2.240 . S
O59 C64 1.279 . S
O60 Cd57 2.297 . S
O60 C62 1.247 . S
O61 Cd57 2.439 . S
O61 C62 1.208 . S
C62 O60 1.247 . S
C62 O61 1.208 . S
C63 O68 1.247 . S
C63 O69 1.208 . S
C64 O56 1.315 . S
C64 O59 1.279 . S
C65 O66 1.315 . S
C65 O67 1.279 . S
O66 Cd58 2.223 . S
O66 C65 1.315 . S
O67 Cd57 2.240 . S
O67 C65 1.279 . S
O68 Cd58 2.297 . S
O68 C63 1.247 . S
O69 Cd58 2.439 . S
O69 C63 1.208 . S
O70 Cd71 2.223 . S
O70 C78 1.315 . S
Cd71 O70 2.223 . S
Cd71 O74 2.297 . S
Cd71 O75 2.439 . S
Cd71 O81 2.240 . S
Cd72 O73 2.240 . S
Cd72 O80 2.223 . S
Cd72 O82 2.297 . S
Cd72 O83 2.439 . S
O73 Cd72 2.240 . S
O73 C78 1.279 . S
O74 Cd71 2.297 . S
O74 C76 1.247 . S
O75 Cd71 2.439 . S
O75 C76 1.208 . S
C76 O74 1.247 . S
C76 O75 1.208 . S
C77 O82 1.247 . S
C77 O83 1.208 . S
C78 O70 1.315 . S
C78 O73 1.279 . S
C79 O80 1.315 . S
C79 O81 1.279 . S
O80 Cd72 2.223 . S
O80 C79 1.315 . S
O81 Cd71 2.240 . S
O81 C79 1.279 . S
O82 Cd72 2.297 . S
O82 C77 1.247 . S
O83 Cd72 2.439 . S
O83 C77 1.208 . S
O84 Cd85 2.223 . S
O84 C92 1.315 . S
Cd85 O84 2.223 . S
Cd85 O88 2.297 . S
Cd85 O89 2.439 . S
Cd85 O95 2.240 . S
Cd86 O87 2.240 . S
Cd86 O94 2.223 . S
Cd86 O96 2.297 . S
Cd86 O97 2.439 . S
O87 Cd86 2.240 . S
O87 C92 1.279 . S
O88 Cd85 2.297 . S
O88 C90 1.247 . S
O89 Cd85 2.439 . S
O89 C90 1.208 . S
C90 O88 1.247 . S
C90 O89 1.208 . S
C91 O96 1.247 . S
C91 O97 1.208 . S
C92 O84 1.315 . S
C92 O87 1.279 . S
C93 O94 1.315 . S
C93 O95 1.279 . S
O94 Cd86 2.223 . S
O94 C93 1.315 . S
O95 Cd85 2.240 . S
O95 C93 1.279 . S
O96 Cd86 2.297 . S
O96 C91 1.247 . S
O97 Cd86 2.439 . S
O97 C91 1.208 . S
O98 Cd99 2.223 . S
O98 C106 1.315 . S
Cd99 O98 2.223 . S
Cd99 O102 2.297 . S
Cd99 O103 2.439 . S
Cd99 O109 2.240 . S
Cd100 O101 2.240 . S
Cd100 O108 2.223 . S
Cd100 O110 2.297 . S
Cd100 O111 2.439 . S
O101 Cd100 2.240 . S
O101 C106 1.279 . S
O102 Cd99 2.297 . S
O102 C104 1.247 . S
O103 Cd99 2.439 . S
O103 C104 1.208 . S
C104 O102 1.247 . S
C104 O103 1.208 . S
C105 O110 1.247 . S
C105 O111 1.208 . S
C106 O98 1.315 . S
C106 O101 1.279 . S
C107 O108 1.315 . S
C107 O109 1.279 . S
O108 Cd100 2.223 . S
O108 C107 1.315 . S
O109 Cd99 2.240 . S
O109 C107 1.279 . S
O110 Cd100 2.297 . S
O110 C105 1.247 . S
O111 Cd100 2.439 . S
O111 C105 1.208 . S
O112 Cd113 2.223 . S
O112 C120 1.315 . S
Cd113 O112 2.223 . S
Cd113 O116 2.297 . S
Cd113 O117 2.439 . S
Cd113 O123 2.240 . S
Cd114 O115 2.240 . S
Cd114 O122 2.223 . S
Cd114 O124 2.297 . S
Cd114 O125 2.439 . S
O115 Cd114 2.240 . S
O115 C120 1.279 . S
O116 Cd113 2.297 . S
O116 C118 1.247 . S
O117 Cd113 2.439 . S
O117 C118 1.208 . S
C118 O116 1.247 . S
C118 O117 1.208 . S
C119 O124 1.247 . S
C119 O125 1.208 . S
C120 O112 1.315 . S
C120 O115 1.279 . S
C121 O122 1.315 . S
C121 O123 1.279 . S
O122 Cd114 2.223 . S
O122 C121 1.315 . S
O123 Cd113 2.240 . S
O123 C121 1.279 . S
O124 Cd114 2.297 . S
O124 C119 1.247 . S
O125 Cd114 2.439 . S
O125 C119 1.208 . S
O126 Cd127 2.223 . S
O126 C134 1.315 . S
Cd127 O126 2.223 . S
Cd127 O130 2.297 . S
Cd127 O131 2.439 . S
Cd127 O137 2.240 . S
Cd128 O129 2.240 . S
Cd128 O136 2.223 . S
Cd128 O138 2.297 . S
Cd128 O139 2.439 . S
O129 Cd128 2.240 . S
O129 C134 1.279 . S
O130 Cd127 2.297 . S
O130 C132 1.247 . S
O131 Cd127 2.439 . S
O131 C132 1.208 . S
C132 O130 1.247 . S
C132 O131 1.208 . S
C133 O138 1.247 . S
C133 O139 1.208 . S
C134 O126 1.315 . S
C134 O129 1.279 . S
C135 O136 1.315 . S
C135 O137 1.279 . S
O136 Cd128 2.223 . S
O136 C135 1.315 . S
O137 Cd127 2.240 . S
O137 C135 1.279 . S
O138 Cd128 2.297 . S
O138 C133 1.247 . S
O139 Cd128 2.439 . S
O139 C133 1.208 . S
O140 Cd141 2.223 . S
O140 C148 1.315 . S
Cd141 O140 2.223 . S
Cd141 O144 2.297 . S
Cd141 O145 2.439 . S
Cd141 O151 2.240 . S
Cd142 O143 2.240 . S
Cd142 O150 2.223 . S
Cd142 O152 2.297 . S
Cd142 O153 2.439 . S
O143 Cd142 2.240 . S
O143 C148 1.279 . S
O144 Cd141 2.297 . S
O144 C146 1.247 . S
O145 Cd141 2.439 . S
O145 C146 1.208 . S
C146 O144 1.247 . S
C146 O145 1.208 . S
C147 O152 1.247 . S
C147 O153 1.208 . S
C148 O140 1.315 . S
C148 O143 1.279 . S
C149 O150 1.315 . S
C149 O151 1.279 . S
O150 Cd142 2.223 . S
O150 C149 1.315 . S
O151 Cd141 2.240 . S
O151 C149 1.279 . S
O152 Cd142 2.297 . S
O152 C147 1.247 . S
O153 Cd142 2.439 . S
O153 C147 1.208 . S
O154 Cd155 2.223 . S
O154 C162 1.315 . S
Cd155 O154 2.223 . S
Cd155 O158 2.297 . S
Cd155 O159 2.439 . S
Cd155 O165 2.240 . S
Cd156 O157 2.240 . S
Cd156 O164 2.223 . S
Cd156 O166 2.297 . S
Cd156 O167 2.439 . S
O157 Cd156 2.240 . S
O157 C162 1.279 . S
O158 Cd155 2.297 . S
O158 C160 1.247 . S
O159 Cd155 2.439 . S
O159 C160 1.208 . S
C160 O158 1.247 . S
C160 O159 1.208 . S
C161 O166 1.247 . S
C161 O167 1.208 . S
C162 O154 1.315 . S
C162 O157 1.279 . S
C163 O164 1.315 . S
C163 O165 1.279 . S
O164 Cd156 2.223 . S
O164 C163 1.315 . S
O165 Cd155 2.240 . S
O165 C163 1.279 . S
O166 Cd156 2.297 . S
O166 C161 1.247 . S
O167 Cd156 2.439 . S
O167 C161 1.208 . S
O168 Cd169 2.223 . S
O168 C176 1.315 . S
Cd169 O168 2.223 . S
Cd169 O172 2.297 . S
Cd169 O173 2.439 . S
Cd169 O179 2.240 . S
Cd170 O171 2.240 . S
Cd170 O178 2.223 . S
Cd170 O180 2.297 . S
Cd170 O181 2.439 . S
O171 Cd170 2.240 . S
O171 C176 1.279 . S
O172 Cd169 2.297 . S
O172 C174 1.247 . S
O173 Cd169 2.439 . S
O173 C174 1.208 . S
C174 O172 1.247 . S
C174 O173 1.208 . S
C175 O180 1.247 . S
C175 O181 1.208 . S
C176 O168 1.315 . S
C176 O171 1.279 . S
C177 O178 1.315 . S
C177 O179 1.279 . S
O178 Cd170 2.223 . S
O178 C177 1.315 . S
O179 Cd169 2.240 . S
O179 C177 1.279 . S
O180 Cd170 2.297 . S
O180 C175 1.247 . S
O181 Cd170 2.439 . S
O181 C175 1.208 . S
O182 Cd183 2.223 . S
O182 C190 1.315 . S
Cd183 O182 2.223 . S
Cd183 O186 2.297 . S
Cd183 O187 2.439 . S
Cd183 O193 2.240 . S
Cd184 O185 2.240 . S
Cd184 O192 2.223 . S
Cd184 O194 2.297 . S
Cd184 O195 2.439 . S
O185 Cd184 2.240 . S
O185 C190 1.279 . S
O186 Cd183 2.297 . S
O186 C188 1.247 . S
O187 Cd183 2.439 . S
O187 C188 1.208 . S
C188 O186 1.247 . S
C188 O187 1.208 . S
C189 O194 1.247 . S
C189 O195 1.208 . S
C190 O182 1.315 . S
C190 O185 1.279 . S
C191 O192 1.315 . S
C191 O193 1.279 . S
O192 Cd184 2.223 . S
O192 C191 1.315 . S
O193 Cd183 2.240 . S
O193 C191 1.279 . S
O194 Cd184 2.297 . S
O194 C189 1.247 . S
O195 Cd184 2.439 . S
O195 C189 1.208 . S
O196 Cd197 2.223 . S
O196 C204 1.315 . S
Cd197 O196 2.223 . S
Cd197 O200 2.297 . S
Cd197 O201 2.439 . S
Cd197 O207 2.240 . S
Cd198 O199 2.240 . S
Cd198 O206 2.223 . S
Cd198 O208 2.297 . S
Cd198 O209 2.439 . S
O199 Cd198 2.240 . S
O199 C204 1.279 . S
O200 Cd197 2.297 . S
O200 C202 1.247 . S
O201 Cd197 2.439 . S
O201 C202 1.208 . S
C202 O200 1.247 . S
C202 O201 1.208 . S
C203 O208 1.247 . S
C203 O209 1.208 . S
C204 O196 1.315 . S
C204 O199 1.279 . S
C205 O206 1.315 . S
C205 O207 1.279 . S
O206 Cd198 2.223 . S
O206 C205 1.315 . S
O207 Cd197 2.240 . S
O207 C205 1.279 . S
O208 Cd198 2.297 . S
O208 C203 1.247 . S
O209 Cd198 2.439 . S
O209 C203 1.208 . S
O210 Cd211 2.223 . S
O210 C218 1.315 . S
Cd211 O210 2.223 . S
Cd211 O214 2.297 . S
Cd211 O215 2.439 . S
Cd211 O221 2.240 . S
Cd212 O213 2.240 . S
Cd212 O220 2.223 . S
Cd212 O222 2.297 . S
Cd212 O223 2.439 . S
O213 Cd212 2.240 . S
O213 C218 1.279 . S
O214 Cd211 2.297 . S
O214 C216 1.247 . S
O215 Cd211 2.439 . S
O215 C216 1.208 . S
C216 O214 1.247 . S
C216 O215 1.208 . S
C217 O222 1.247 . S
C217 O223 1.208 . S
C218 O210 1.315 . S
C218 O213 1.279 . S
C219 O220 1.315 . S
C219 O221 1.279 . S
O220 Cd212 2.223 . S
O220 C219 1.315 . S
O221 Cd211 2.240 . S
O221 C219 1.279 . S
O222 Cd212 2.297 . S
O222 C217 1.247 . S
O223 Cd212 2.439 . S
O223 C217 1.208 . S
C224 C225 1.349 . S
C224 C226 1.327 . S
C224 H249 0.950 . S
C225 C224 1.349 . S
C225 C241 1.349 . S
C226 C224 1.327 . S
C226 C245 1.429 . S
C226 H250 0.950 . S
C227 C244 1.574 . S
C227 C246 1.368 . S
C227 H251 0.949 . S
H228 C232 0.949 . S
C229 C230 1.349 . S
C229 C231 1.327 . S
C229 H252 0.950 . S
C230 C229 1.349 . S
C230 C242 1.349 . S
C231 C229 1.327 . S
C231 C247 1.429 . S
C231 H253 0.950 . S
C232 H228 0.949 . S
C232 C240 1.574 . S
C232 C248 1.368 . S
H233 C241 0.950 . S
H234 C239 0.950 . S
H235 C240 0.949 . S
H236 C242 0.950 . S
H237 C243 0.950 . S
H238 C244 0.949 . S
C239 H234 0.950 . S
C239 C241 1.327 . S
C239 C245 1.429 . S
C240 C232 1.574 . S
C240 H235 0.949 . S
C240 C246 1.368 . S
C241 C225 1.349 . S
C241 H233 0.950 . S
C241 C239 1.327 . S
C242 C230 1.349 . S
C242 H236 0.950 . S
C242 C243 1.327 . S
C243 H237 0.950 . S
C243 C242 1.327 . S
C243 C247 1.429 . S
C244 C227 1.574 . S
C244 H238 0.949 . S
C244 C248 1.368 . S
C245 C226 1.429 . S
C245 C239 1.429 . S
C245 C246 1.523 . S
C246 C227 1.368 . S
C246 C240 1.368 . S
C246 C245 1.523 . S
C247 C231 1.429 . S
C247 C243 1.429 . S
C247 C248 1.523 . S
C248 C232 1.368 . S
C248 C244 1.368 . S
C248 C247 1.523 . S
H249 C224 0.950 . S
H250 C226 0.950 . S
H251 C227 0.949 . S
H252 C229 0.950 . S
H253 C231 0.950 . S
C254 C255 1.349 . S
C254 C256 1.327 . S
C254 H279 0.950 . S
C255 C254 1.349 . S
C255 C271 1.349 . S
C256 C254 1.327 . S
C256 C275 1.429 . S
C256 H280 0.950 . S
C257 C274 1.574 . S
C257 C276 1.368 . S
C257 H281 0.949 . S
H258 C262 0.949 . S
C259 C260 1.349 . S
C259 C261 1.327 . S
C259 H282 0.950 . S
C260 C259 1.349 . S
C260 C272 1.349 . S
C261 C259 1.327 . S
C261 C277 1.429 . S
C261 H283 0.950 . S
C262 H258 0.949 . S
C262 C270 1.574 . S
C262 C278 1.368 . S
H263 C271 0.950 . S
H264 C269 0.950 . S
H265 C270 0.949 . S
H266 C272 0.950 . S
H267 C273 0.950 . S
H268 C274 0.949 . S
C269 H264 0.950 . S
C269 C271 1.327 . S
C269 C275 1.429 . S
C270 C262 1.574 . S
C270 H265 0.949 . S
C270 C276 1.368 . S
C271 C255 1.349 . S
C271 H263 0.950 . S
C271 C269 1.327 . S
C272 C260 1.349 . S
C272 H266 0.950 . S
C272 C273 1.327 . S
C273 H267 0.950 . S
C273 C272 1.327 . S
C273 C277 1.429 . S
C274 C257 1.574 . S
C274 H268 0.949 . S
C274 C278 1.368 . S
C275 C256 1.429 . S
C275 C269 1.429 . S
C275 C276 1.523 . S
C276 C257 1.368 . S
C276 C270 1.368 . S
C276 C275 1.523 . S
C277 C261 1.429 . S
C277 C273 1.429 . S
C277 C278 1.523 . S
C278 C262 1.368 . S
C278 C274 1.368 . S
C278 C277 1.523 . S
H279 C254 0.950 . S
H280 C256 0.950 . S
H281 C257 0.949 . S
H282 C259 0.950 . S
H283 C261 0.950 . S
C284 C285 1.349 . S
C284 C286 1.327 . S
C284 H309 0.950 . S
C285 C284 1.349 . S
C285 C301 1.349 . S
C286 C284 1.327 . S
C286 C305 1.429 . S
C286 H310 0.950 . S
C287 C304 1.574 . S
C287 C306 1.368 . S
C287 H311 0.949 . S
H288 C292 0.949 . S
C289 C290 1.349 . S
C289 C291 1.327 . S
C289 H312 0.950 . S
C290 C289 1.349 . S
C290 C302 1.349 . S
C291 C289 1.327 . S
C291 C307 1.429 . S
C291 H313 0.950 . S
C292 H288 0.949 . S
C292 C300 1.574 . S
C292 C308 1.368 . S
H293 C301 0.950 . S
H294 C299 0.950 . S
H295 C300 0.949 . S
H296 C302 0.950 . S
H297 C303 0.950 . S
H298 C304 0.949 . S
C299 H294 0.950 . S
C299 C301 1.327 . S
C299 C305 1.429 . S
C300 C292 1.574 . S
C300 H295 0.949 . S
C300 C306 1.368 . S
C301 C285 1.349 . S
C301 H293 0.950 . S
C301 C299 1.327 . S
C302 C290 1.349 . S
C302 H296 0.950 . S
C302 C303 1.327 . S
C303 H297 0.950 . S
C303 C302 1.327 . S
C303 C307 1.429 . S
C304 C287 1.574 . S
C304 H298 0.949 . S
C304 C308 1.368 . S
C305 C286 1.429 . S
C305 C299 1.429 . S
C305 C306 1.523 . S
C306 C287 1.368 . S
C306 C300 1.368 . S
C306 C305 1.523 . S
C307 C291 1.429 . S
C307 C303 1.429 . S
C307 C308 1.523 . S
C308 C292 1.368 . S
C308 C304 1.368 . S
C308 C307 1.523 . S
H309 C284 0.950 . S
H310 C286 0.950 . S
H311 C287 0.949 . S
H312 C289 0.950 . S
H313 C291 0.950 . S
C314 C315 1.349 . S
C314 C316 1.327 . S
C314 H339 0.950 . S
C315 C314 1.349 . S
C315 C331 1.349 . S
C316 C314 1.327 . S
C316 C335 1.429 . S
C316 H340 0.950 . S
C317 C334 1.574 . S
C317 C336 1.368 . S
C317 H341 0.949 . S
H318 C322 0.949 . S
C319 C320 1.349 . S
C319 C321 1.327 . S
C319 H342 0.950 . S
C320 C319 1.349 . S
C320 C332 1.349 . S
C321 C319 1.327 . S
C321 C337 1.429 . S
C321 H343 0.950 . S
C322 H318 0.949 . S
C322 C330 1.574 . S
C322 C338 1.368 . S
H323 C331 0.950 . S
H324 C329 0.950 . S
H325 C330 0.949 . S
H326 C332 0.950 . S
H327 C333 0.950 . S
H328 C334 0.949 . S
C329 H324 0.950 . S
C329 C331 1.327 . S
C329 C335 1.429 . S
C330 C322 1.574 . S
C330 H325 0.949 . S
C330 C336 1.368 . S
C331 C315 1.349 . S
C331 H323 0.950 . S
C331 C329 1.327 . S
C332 C320 1.349 . S
C332 H326 0.950 . S
C332 C333 1.327 . S
C333 H327 0.950 . S
C333 C332 1.327 . S
C333 C337 1.429 . S
C334 C317 1.574 . S
C334 H328 0.949 . S
C334 C338 1.368 . S
C335 C316 1.429 . S
C335 C329 1.429 . S
C335 C336 1.523 . S
C336 C317 1.368 . S
C336 C330 1.368 . S
C336 C335 1.523 . S
C337 C321 1.429 . S
C337 C333 1.429 . S
C337 C338 1.523 . S
C338 C322 1.368 . S
C338 C334 1.368 . S
C338 C337 1.523 . S
H339 C314 0.950 . S
H340 C316 0.950 . S
H341 C317 0.949 . S
H342 C319 0.950 . S
H343 C321 0.950 . S
C344 C345 1.349 . S
C344 C346 1.327 . S
C344 H369 0.950 . S
C345 C344 1.349 . S
C345 C361 1.349 . S
C346 C344 1.327 . S
C346 C365 1.429 . S
C346 H370 0.950 . S
C347 C364 1.574 . S
C347 C366 1.368 . S
C347 H371 0.949 . S
H348 C352 0.949 . S
C349 C350 1.349 . S
C349 C351 1.327 . S
C349 H372 0.950 . S
C350 C349 1.349 . S
C350 C362 1.349 . S
C351 C349 1.327 . S
C351 C367 1.429 . S
C351 H373 0.950 . S
C352 H348 0.949 . S
C352 C360 1.574 . S
C352 C368 1.368 . S
H353 C361 0.950 . S
H354 C359 0.950 . S
H355 C360 0.949 . S
H356 C362 0.950 . S
H357 C363 0.950 . S
H358 C364 0.949 . S
C359 H354 0.950 . S
C359 C361 1.327 . S
C359 C365 1.429 . S
C360 C352 1.574 . S
C360 H355 0.949 . S
C360 C366 1.368 . S
C361 C345 1.349 . S
C361 H353 0.950 . S
C361 C359 1.327 . S
C362 C350 1.349 . S
C362 H356 0.950 . S
C362 C363 1.327 . S
C363 H357 0.950 . S
C363 C362 1.327 . S
C363 C367 1.429 . S
C364 C347 1.574 . S
C364 H358 0.949 . S
C364 C368 1.368 . S
C365 C346 1.429 . S
C365 C359 1.429 . S
C365 C366 1.523 . S
C366 C347 1.368 . S
C366 C360 1.368 . S
C366 C365 1.523 . S
C367 C351 1.429 . S
C367 C363 1.429 . S
C367 C368 1.523 . S
C368 C352 1.368 . S
C368 C364 1.368 . S
C368 C367 1.523 . S
H369 C344 0.950 . S
H370 C346 0.950 . S
H371 C347 0.949 . S
H372 C349 0.950 . S
H373 C351 0.950 . S
C374 C375 1.349 . S
C374 C376 1.327 . S
C374 H399 0.950 . S
C375 C374 1.349 . S
C375 C391 1.349 . S
C376 C374 1.327 . S
C376 C395 1.429 . S
C376 H400 0.950 . S
C377 C394 1.574 . S
C377 C396 1.368 . S
C377 H401 0.949 . S
H378 C382 0.949 . S
C379 C380 1.349 . S
C379 C381 1.327 . S
C379 H402 0.950 . S
C380 C379 1.349 . S
C380 C392 1.349 . S
C381 C379 1.327 . S
C381 C397 1.429 . S
C381 H403 0.950 . S
C382 H378 0.949 . S
C382 C390 1.574 . S
C382 C398 1.368 . S
H383 C391 0.950 . S
H384 C389 0.950 . S
H385 C390 0.949 . S
H386 C392 0.950 . S
H387 C393 0.950 . S
H388 C394 0.949 . S
C389 H384 0.950 . S
C389 C391 1.327 . S
C389 C395 1.429 . S
C390 C382 1.574 . S
C390 H385 0.949 . S
C390 C396 1.368 . S
C391 C375 1.349 . S
C391 H383 0.950 . S
C391 C389 1.327 . S
C392 C380 1.349 . S
C392 H386 0.950 . S
C392 C393 1.327 . S
C393 H387 0.950 . S
C393 C392 1.327 . S
C393 C397 1.429 . S
C394 C377 1.574 . S
C394 H388 0.949 . S
C394 C398 1.368 . S
C395 C376 1.429 . S
C395 C389 1.429 . S
C395 C396 1.523 . S
C396 C377 1.368 . S
C396 C390 1.368 . S
C396 C395 1.523 . S
C397 C381 1.429 . S
C397 C393 1.429 . S
C397 C398 1.523 . S
C398 C382 1.368 . S
C398 C394 1.368 . S
C398 C397 1.523 . S
H399 C374 0.950 . S
H400 C376 0.950 . S
H401 C377 0.949 . S
H402 C379 0.950 . S
H403 C381 0.950 . S
C404 C405 1.349 . S
C404 C406 1.327 . S
C404 H429 0.950 . S
C405 C404 1.349 . S
C405 C421 1.349 . S
C406 C404 1.327 . S
C406 C425 1.429 . S
C406 H430 0.950 . S
C407 C424 1.574 . S
C407 C426 1.368 . S
C407 H431 0.949 . S
H408 C412 0.949 . S
C409 C410 1.349 . S
C409 C411 1.327 . S
C409 H432 0.950 . S
C410 C409 1.349 . S
C410 C422 1.349 . S
C411 C409 1.327 . S
C411 C427 1.429 . S
C411 H433 0.950 . S
C412 H408 0.949 . S
C412 C420 1.574 . S
C412 C428 1.368 . S
H413 C421 0.950 . S
H414 C419 0.950 . S
H415 C420 0.949 . S
H416 C422 0.950 . S
H417 C423 0.950 . S
H418 C424 0.949 . S
C419 H414 0.950 . S
C419 C421 1.327 . S
C419 C425 1.429 . S
C420 C412 1.574 . S
C420 H415 0.949 . S
C420 C426 1.368 . S
C421 C405 1.349 . S
C421 H413 0.950 . S
C421 C419 1.327 . S
C422 C410 1.349 . S
C422 H416 0.950 . S
C422 C423 1.327 . S
C423 H417 0.950 . S
C423 C422 1.327 . S
C423 C427 1.429 . S
C424 C407 1.574 . S
C424 H418 0.949 . S
C424 C428 1.368 . S
C425 C406 1.429 . S
C425 C419 1.429 . S
C425 C426 1.523 . S
C426 C407 1.368 . S
C426 C420 1.368 . S
C426 C425 1.523 . S
C427 C411 1.429 . S
C427 C423 1.429 . S
C427 C428 1.523 . S
C428 C412 1.368 . S
C428 C424 1.368 . S
C428 C427 1.523 . S
H429 C404 0.950 . S
H430 C406 0.950 . S
H431 C407 0.949 . S
H432 C409 0.950 . S
H433 C411 0.950 . S
C434 C435 1.349 . S
C434 C436 1.327 . S
C434 H459 0.950 . S
C435 C434 1.349 . S
C435 C451 1.349 . S
C436 C434 1.327 . S
C436 C455 1.429 . S
C436 H460 0.950 . S
C437 C454 1.574 . S
C437 C456 1.368 . S
C437 H461 0.949 . S
H438 C442 0.949 . S
C439 C440 1.349 . S
C439 C441 1.327 . S
C439 H462 0.950 . S
C440 C439 1.349 . S
C440 C452 1.349 . S
C441 C439 1.327 . S
C441 C457 1.429 . S
C441 H463 0.950 . S
C442 H438 0.949 . S
C442 C450 1.574 . S
C442 C458 1.368 . S
H443 C451 0.950 . S
H444 C449 0.950 . S
H445 C450 0.949 . S
H446 C452 0.950 . S
H447 C453 0.950 . S
H448 C454 0.949 . S
C449 H444 0.950 . S
C449 C451 1.327 . S
C449 C455 1.429 . S
C450 C442 1.574 . S
C450 H445 0.949 . S
C450 C456 1.368 . S
C451 C435 1.349 . S
C451 H443 0.950 . S
C451 C449 1.327 . S
C452 C440 1.349 . S
C452 H446 0.950 . S
C452 C453 1.327 . S
C453 H447 0.950 . S
C453 C452 1.327 . S
C453 C457 1.429 . S
C454 C437 1.574 . S
C454 H448 0.949 . S
C454 C458 1.368 . S
C455 C436 1.429 . S
C455 C449 1.429 . S
C455 C456 1.523 . S
C456 C437 1.368 . S
C456 C450 1.368 . S
C456 C455 1.523 . S
C457 C441 1.429 . S
C457 C453 1.429 . S
C457 C458 1.523 . S
C458 C442 1.368 . S
C458 C454 1.368 . S
C458 C457 1.523 . S
H459 C434 0.950 . S
H460 C436 0.950 . S
H461 C437 0.949 . S
H462 C439 0.950 . S
H463 C441 0.950 . S
C464 C465 1.349 . S
C464 C466 1.327 . S
C464 H489 0.950 . S
C465 C464 1.349 . S
C465 C481 1.349 . S
C466 C464 1.327 . S
C466 C485 1.429 . S
C466 H490 0.950 . S
C467 C484 1.574 1_556 S
C467 C486 1.368 . S
C467 H491 0.949 . S
H468 C472 0.949 . S
C469 C470 1.349 . S
C469 C471 1.327 . S
C469 H492 0.950 . S
C470 C469 1.349 . S
C470 C482 1.349 . S
C471 C469 1.327 . S
C471 C487 1.429 . S
C471 H493 0.950 . S
C472 H468 0.949 . S
C472 C480 1.574 1_554 S
C472 C488 1.368 . S
H473 C481 0.950 . S
H474 C479 0.950 . S
H475 C480 0.949 . S
H476 C482 0.950 . S
H477 C483 0.950 . S
H478 C484 0.949 . S
C479 H474 0.950 . S
C479 C481 1.327 . S
C479 C485 1.429 . S
C480 C472 1.574 1_556 S
C480 H475 0.949 . S
C480 C486 1.368 . S
C481 C465 1.349 . S
C481 H473 0.950 . S
C481 C479 1.327 . S
C482 C470 1.349 . S
C482 H476 0.950 . S
C482 C483 1.327 . S
C483 H477 0.950 . S
C483 C482 1.327 . S
C483 C487 1.429 . S
C484 C467 1.574 1_554 S
C484 H478 0.949 . S
C484 C488 1.368 . S
C485 C466 1.429 . S
C485 C479 1.429 . S
C485 C486 1.523 . S
C486 C467 1.368 . S
C486 C480 1.368 . S
C486 C485 1.523 . S
C487 C471 1.429 . S
C487 C483 1.429 . S
C487 C488 1.523 . S
C488 C472 1.368 . S
C488 C484 1.368 . S
C488 C487 1.523 . S
H489 C464 0.950 . S
H490 C466 0.950 . S
H491 C467 0.949 . S
H492 C469 0.950 . S
H493 C471 0.950 . S
C494 C495 1.349 . S
C494 C496 1.327 . S
C494 H519 0.950 . S
C495 C494 1.349 . S
C495 C511 1.349 . S
C496 C494 1.327 . S
C496 C515 1.429 . S
C496 H520 0.950 . S
C497 C514 1.574 1_556 S
C497 C516 1.368 . S
C497 H521 0.949 . S
H498 C502 0.949 . S
C499 C500 1.349 . S
C499 C501 1.327 . S
C499 H522 0.950 . S
C500 C499 1.349 . S
C500 C512 1.349 . S
C501 C499 1.327 . S
C501 C517 1.429 . S
C501 H523 0.950 . S
C502 H498 0.949 . S
C502 C510 1.574 1_554 S
C502 C518 1.368 . S
H503 C511 0.950 . S
H504 C509 0.950 . S
H505 C510 0.949 . S
H506 C512 0.950 . S
H507 C513 0.950 . S
H508 C514 0.949 . S
C509 H504 0.950 . S
C509 C511 1.327 . S
C509 C515 1.429 . S
C510 C502 1.574 1_556 S
C510 H505 0.949 . S
C510 C516 1.368 . S
C511 C495 1.349 . S
C511 H503 0.950 . S
C511 C509 1.327 . S
C512 C500 1.349 . S
C512 H506 0.950 . S
C512 C513 1.327 . S
C513 H507 0.950 . S
C513 C512 1.327 . S
C513 C517 1.429 . S
C514 C497 1.574 1_554 S
C514 H508 0.949 . S
C514 C518 1.368 . S
C515 C496 1.429 . S
C515 C509 1.429 . S
C515 C516 1.523 . S
C516 C497 1.368 . S
C516 C510 1.368 . S
C516 C515 1.523 . S
C517 C501 1.429 . S
C517 C513 1.429 . S
C517 C518 1.523 . S
C518 C502 1.368 . S
C518 C514 1.368 . S
C518 C517 1.523 . S
H519 C494 0.950 . S
H520 C496 0.950 . S
H521 C497 0.949 . S
H522 C499 0.950 . S
H523 C501 0.950 . S
C524 C525 1.349 . S
C524 C526 1.327 . S
C524 H549 0.950 . S
C525 C524 1.349 . S
C525 C541 1.349 . S
C526 C524 1.327 . S
C526 C545 1.429 . S
C526 H550 0.950 . S
C527 C544 1.574 1_556 S
C527 C546 1.368 . S
C527 H551 0.949 . S
H528 C532 0.949 . S
C529 C530 1.349 . S
C529 C531 1.327 . S
C529 H552 0.950 . S
C530 C529 1.349 . S
C530 C542 1.349 . S
C531 C529 1.327 . S
C531 C547 1.429 . S
C531 H553 0.950 . S
C532 H528 0.949 . S
C532 C540 1.574 1_554 S
C532 C548 1.368 . S
H533 C541 0.950 . S
H534 C539 0.950 . S
H535 C540 0.949 . S
H536 C542 0.950 . S
H537 C543 0.950 . S
H538 C544 0.949 . S
C539 H534 0.950 . S
C539 C541 1.327 . S
C539 C545 1.429 . S
C540 C532 1.574 1_556 S
C540 H535 0.949 . S
C540 C546 1.368 . S
C541 C525 1.349 . S
C541 H533 0.950 . S
C541 C539 1.327 . S
C542 C530 1.349 . S
C542 H536 0.950 . S
C542 C543 1.327 . S
C543 H537 0.950 . S
C543 C542 1.327 . S
C543 C547 1.429 . S
C544 C527 1.574 1_554 S
C544 H538 0.949 . S
C544 C548 1.368 . S
C545 C526 1.429 . S
C545 C539 1.429 . S
C545 C546 1.523 . S
C546 C527 1.368 . S
C546 C540 1.368 . S
C546 C545 1.523 . S
C547 C531 1.429 . S
C547 C543 1.429 . S
C547 C548 1.523 . S
C548 C532 1.368 . S
C548 C544 1.368 . S
C548 C547 1.523 . S
H549 C524 0.950 . S
H550 C526 0.950 . S
H551 C527 0.949 . S
H552 C529 0.950 . S
H553 C531 0.950 . S
C554 C555 1.349 . S
C554 C556 1.327 . S
C554 H579 0.950 . S
C555 C554 1.349 . S
C555 C571 1.349 . S
C556 C554 1.327 . S
C556 C575 1.429 . S
C556 H580 0.950 . S
C557 C574 1.574 1_554 S
C557 C576 1.368 . S
C557 H581 0.949 . S
H558 C562 0.949 . S
C559 C560 1.349 . S
C559 C561 1.327 . S
C559 H582 0.950 . S
C560 C559 1.349 . S
C560 C572 1.349 . S
C561 C559 1.327 . S
C561 C577 1.429 . S
C561 H583 0.950 . S
C562 H558 0.949 . S
C562 C570 1.574 1_556 S
C562 C578 1.368 . S
H563 C571 0.950 . S
H564 C569 0.950 . S
H565 C570 0.949 . S
H566 C572 0.950 . S
H567 C573 0.950 . S
H568 C574 0.949 . S
C569 H564 0.950 . S
C569 C571 1.327 . S
C569 C575 1.429 . S
C570 C562 1.574 1_554 S
C570 H565 0.949 . S
C570 C576 1.368 . S
C571 C555 1.349 . S
C571 H563 0.950 . S
C571 C569 1.327 . S
C572 C560 1.349 . S
C572 H566 0.950 . S
C572 C573 1.327 . S
C573 H567 0.950 . S
C573 C572 1.327 . S
C573 C577 1.429 . S
C574 C557 1.574 1_556 S
C574 H568 0.949 . S
C574 C578 1.368 . S
C575 C556 1.429 . S
C575 C569 1.429 . S
C575 C576 1.523 . S
C576 C557 1.368 . S
C576 C570 1.368 . S
C576 C575 1.523 . S
C577 C561 1.429 . S
C577 C573 1.429 . S
C577 C578 1.523 . S
C578 C562 1.368 . S
C578 C574 1.368 . S
C578 C577 1.523 . S
H579 C554 0.950 . S
H580 C556 0.950 . S
H581 C557 0.949 . S
H582 C559 0.950 . S
H583 C561 0.950 . S
C584 C585 1.349 . S
C584 C586 1.327 . S
C584 H609 0.950 . S
C585 C584 1.349 . S
C585 C601 1.349 . S
C586 C584 1.327 . S
C586 C605 1.429 . S
C586 H610 0.950 . S
C587 C604 1.574 . S
C587 C606 1.368 . S
C587 H611 0.949 . S
H588 C592 0.949 . S
C589 C590 1.349 . S
C589 C591 1.327 . S
C589 H612 0.950 . S
C590 C589 1.349 . S
C590 C602 1.349 . S
C591 C589 1.327 . S
C591 C607 1.429 . S
C591 H613 0.950 . S
C592 H588 0.949 . S
C592 C600 1.574 . S
C592 C608 1.368 . S
H593 C601 0.950 . S
H594 C599 0.950 . S
H595 C600 0.949 . S
H596 C602 0.950 . S
H597 C603 0.950 . S
H598 C604 0.949 . S
C599 H594 0.950 . S
C599 C601 1.327 . S
C599 C605 1.429 . S
C600 C592 1.574 . S
C600 H595 0.949 . S
C600 C606 1.368 . S
C601 C585 1.349 . S
C601 H593 0.950 . S
C601 C599 1.327 . S
C602 C590 1.349 . S
C602 H596 0.950 . S
C602 C603 1.327 . S
C603 H597 0.950 . S
C603 C602 1.327 . S
C603 C607 1.429 . S
C604 C587 1.574 . S
C604 H598 0.949 . S
C604 C608 1.368 . S
C605 C586 1.429 . S
C605 C599 1.429 . S
C605 C606 1.523 . S
C606 C587 1.368 . S
C606 C600 1.368 . S
C606 C605 1.523 . S
C607 C591 1.429 . S
C607 C603 1.429 . S
C607 C608 1.523 . S
C608 C592 1.368 . S
C608 C604 1.368 . S
C608 C607 1.523 . S
H609 C584 0.950 . S
H610 C586 0.950 . S
H611 C587 0.949 . S
H612 C589 0.950 . S
H613 C591 0.950 . S
C614 C615 1.349 . S
C614 C616 1.327 . S
C614 H639 0.950 . S
C615 C614 1.349 . S
C615 C631 1.349 . S
C616 C614 1.327 . S
C616 C635 1.429 . S
C616 H640 0.950 . S
C617 C634 1.574 . S
C617 C636 1.368 . S
C617 H641 0.949 . S
H618 C622 0.949 . S
C619 C620 1.349 . S
C619 C621 1.327 . S
C619 H642 0.950 . S
C620 C619 1.349 . S
C620 C632 1.349 . S
C621 C619 1.327 . S
C621 C637 1.429 . S
C621 H643 0.950 . S
C622 H618 0.949 . S
C622 C630 1.574 . S
C622 C638 1.368 . S
H623 C631 0.950 . S
H624 C629 0.950 . S
H625 C630 0.949 . S
H626 C632 0.950 . S
H627 C633 0.950 . S
H628 C634 0.949 . S
C629 H624 0.950 . S
C629 C631 1.327 . S
C629 C635 1.429 . S
C630 C622 1.574 . S
C630 H625 0.949 . S
C630 C636 1.368 . S
C631 C615 1.349 . S
C631 H623 0.950 . S
C631 C629 1.327 . S
C632 C620 1.349 . S
C632 H626 0.950 . S
C632 C633 1.327 . S
C633 H627 0.950 . S
C633 C632 1.327 . S
C633 C637 1.429 . S
C634 C617 1.574 . S
C634 H628 0.949 . S
C634 C638 1.368 . S
C635 C616 1.429 . S
C635 C629 1.429 . S
C635 C636 1.523 . S
C636 C617 1.368 . S
C636 C630 1.368 . S
C636 C635 1.523 . S
C637 C621 1.429 . S
C637 C633 1.429 . S
C637 C638 1.523 . S
C638 C622 1.368 . S
C638 C634 1.368 . S
C638 C637 1.523 . S
H639 C614 0.950 . S
H640 C616 0.950 . S
H641 C617 0.949 . S
H642 C619 0.950 . S
H643 C621 0.950 . S
C644 C645 1.349 . S
C644 C646 1.327 . S
C644 H669 0.950 . S
C645 C644 1.349 . S
C645 C661 1.349 . S
C646 C644 1.327 . S
C646 C665 1.429 . S
C646 H670 0.950 . S
C647 C664 1.574 . S
C647 C666 1.368 . S
C647 H671 0.949 . S
H648 C652 0.949 . S
C649 C650 1.349 . S
C649 C651 1.327 . S
C649 H672 0.950 . S
C650 C649 1.349 . S
C650 C662 1.349 . S
C651 C649 1.327 . S
C651 C667 1.429 . S
C651 H673 0.950 . S
C652 H648 0.949 . S
C652 C660 1.574 . S
C652 C668 1.368 . S
H653 C661 0.950 . S
H654 C659 0.950 . S
H655 C660 0.949 . S
H656 C662 0.950 . S
H657 C663 0.950 . S
H658 C664 0.949 . S
C659 H654 0.950 . S
C659 C661 1.327 . S
C659 C665 1.429 . S
C660 C652 1.574 . S
C660 H655 0.949 . S
C660 C666 1.368 . S
C661 C645 1.349 . S
C661 H653 0.950 . S
C661 C659 1.327 . S
C662 C650 1.349 . S
C662 H656 0.950 . S
C662 C663 1.327 . S
C663 H657 0.950 . S
C663 C662 1.327 . S
C663 C667 1.429 . S
C664 C647 1.574 . S
C664 H658 0.949 . S
C664 C668 1.368 . S
C665 C646 1.429 . S
C665 C659 1.429 . S
C665 C666 1.523 . S
C666 C647 1.368 . S
C666 C660 1.368 . S
C666 C665 1.523 . S
C667 C651 1.429 . S
C667 C663 1.429 . S
C667 C668 1.523 . S
C668 C652 1.368 . S
C668 C664 1.368 . S
C668 C667 1.523 . S
H669 C644 0.950 . S
H670 C646 0.950 . S
H671 C647 0.949 . S
H672 C649 0.950 . S
H673 C651 0.950 . S
C674 C675 1.349 . S
C674 C676 1.327 . S
C674 H699 0.950 . S
C675 C674 1.349 . S
C675 C691 1.349 . S
C676 C674 1.327 . S
C676 C695 1.429 . S
C676 H700 0.950 . S
C677 C694 1.574 . S
C677 C696 1.368 . S
C677 H701 0.949 . S
H678 C682 0.949 . S
C679 C680 1.349 . S
C679 C681 1.327 . S
C679 H702 0.950 . S
C680 C679 1.349 . S
C680 C692 1.349 . S
C681 C679 1.327 . S
C681 C697 1.429 . S
C681 H703 0.950 . S
C682 H678 0.949 . S
C682 C690 1.574 . S
C682 C698 1.368 . S
H683 C691 0.950 . S
H684 C689 0.950 . S
H685 C690 0.949 . S
H686 C692 0.950 . S
H687 C693 0.950 . S
H688 C694 0.949 . S
C689 H684 0.950 . S
C689 C691 1.327 . S
C689 C695 1.429 . S
C690 C682 1.574 . S
C690 H685 0.949 . S
C690 C696 1.368 . S
C691 C675 1.349 . S
C691 H683 0.950 . S
C691 C689 1.327 . S
C692 C680 1.349 . S
C692 H686 0.950 . S
C692 C693 1.327 . S
C693 H687 0.950 . S
C693 C692 1.327 . S
C693 C697 1.429 . S
C694 C677 1.574 . S
C694 H688 0.949 . S
C694 C698 1.368 . S
C695 C676 1.429 . S
C695 C689 1.429 . S
C695 C696 1.523 . S
C696 C677 1.368 . S
C696 C690 1.368 . S
C696 C695 1.523 . S
C697 C681 1.429 . S
C697 C693 1.429 . S
C697 C698 1.523 . S
C698 C682 1.368 . S
C698 C694 1.368 . S
C698 C697 1.523 . S
H699 C674 0.950 . S
H700 C676 0.950 . S
H701 C677 0.949 . S
H702 C679 0.950 . S
H703 C681 0.950 . S
C704 C705 1.349 . S
C704 C706 1.327 . S
C704 H729 0.950 . S
C705 C704 1.349 . S
C705 C721 1.349 . S
C706 C704 1.327 . S
C706 C725 1.429 . S
C706 H730 0.950 . S
C707 C724 1.574 . S
C707 C726 1.368 . S
C707 H731 0.949 . S
H708 C712 0.949 . S
C709 C710 1.349 . S
C709 C711 1.327 . S
C709 H732 0.950 . S
C710 C709 1.349 . S
C710 C722 1.349 . S
C711 C709 1.327 . S
C711 C727 1.429 . S
C711 H733 0.950 . S
C712 H708 0.949 . S
C712 C720 1.574 . S
C712 C728 1.368 . S
H713 C721 0.950 . S
H714 C719 0.950 . S
H715 C720 0.949 . S
H716 C722 0.950 . S
H717 C723 0.950 . S
H718 C724 0.949 . S
C719 H714 0.950 . S
C719 C721 1.327 . S
C719 C725 1.429 . S
C720 C712 1.574 . S
C720 H715 0.949 . S
C720 C726 1.368 . S
C721 C705 1.349 . S
C721 H713 0.950 . S
C721 C719 1.327 . S
C722 C710 1.349 . S
C722 H716 0.950 . S
C722 C723 1.327 . S
C723 H717 0.950 . S
C723 C722 1.327 . S
C723 C727 1.429 . S
C724 C707 1.574 . S
C724 H718 0.949 . S
C724 C728 1.368 . S
C725 C706 1.429 . S
C725 C719 1.429 . S
C725 C726 1.523 . S
C726 C707 1.368 . S
C726 C720 1.368 . S
C726 C725 1.523 . S
C727 C711 1.429 . S
C727 C723 1.429 . S
C727 C728 1.523 . S
C728 C712 1.368 . S
C728 C724 1.368 . S
C728 C727 1.523 . S
H729 C704 0.950 . S
H730 C706 0.950 . S
H731 C707 0.949 . S
H732 C709 0.950 . S
H733 C711 0.950 . S
C734 C735 1.349 . S
C734 C736 1.327 . S
C734 H759 0.950 . S
C735 C734 1.349 . S
C735 C751 1.349 . S
C736 C734 1.327 . S
C736 C755 1.429 . S
C736 H760 0.950 . S
C737 C754 1.574 . S
C737 C756 1.368 . S
C737 H761 0.949 . S
H738 C742 0.949 . S
C739 C740 1.349 . S
C739 C741 1.327 . S
C739 H762 0.950 . S
C740 C739 1.349 . S
C740 C752 1.349 . S
C741 C739 1.327 . S
C741 C757 1.429 . S
C741 H763 0.950 . S
C742 H738 0.949 . S
C742 C750 1.574 . S
C742 C758 1.368 . S
H743 C751 0.950 . S
H744 C749 0.950 . S
H745 C750 0.949 . S
H746 C752 0.950 . S
H747 C753 0.950 . S
H748 C754 0.949 . S
C749 H744 0.950 . S
C749 C751 1.327 . S
C749 C755 1.429 . S
C750 C742 1.574 . S
C750 H745 0.949 . S
C750 C756 1.368 . S
C751 C735 1.349 . S
C751 H743 0.950 . S
C751 C749 1.327 . S
C752 C740 1.349 . S
C752 H746 0.950 . S
C752 C753 1.327 . S
C753 H747 0.950 . S
C753 C752 1.327 . S
C753 C757 1.429 . S
C754 C737 1.574 . S
C754 H748 0.949 . S
C754 C758 1.368 . S
C755 C736 1.429 . S
C755 C749 1.429 . S
C755 C756 1.523 . S
C756 C737 1.368 . S
C756 C750 1.368 . S
C756 C755 1.523 . S
C757 C741 1.429 . S
C757 C753 1.429 . S
C757 C758 1.523 . S
C758 C742 1.368 . S
C758 C754 1.368 . S
C758 C757 1.523 . S
H759 C734 0.950 . S
H760 C736 0.950 . S
H761 C737 0.949 . S
H762 C739 0.950 . S
H763 C741 0.950 . S
C764 C765 1.349 . S
C764 C766 1.327 . S
C764 H789 0.950 . S
C765 C764 1.349 . S
C765 C781 1.349 . S
C766 C764 1.327 . S
C766 C785 1.429 . S
C766 H790 0.950 . S
C767 C784 1.574 . S
C767 C786 1.368 . S
C767 H791 0.949 . S
H768 C772 0.949 . S
C769 C770 1.349 . S
C769 C771 1.327 . S
C769 H792 0.950 . S
C770 C769 1.349 . S
C770 C782 1.349 . S
C771 C769 1.327 . S
C771 C787 1.429 . S
C771 H793 0.950 . S
C772 H768 0.949 . S
C772 C780 1.574 . S
C772 C788 1.368 . S
H773 C781 0.950 . S
H774 C779 0.950 . S
H775 C780 0.949 . S
H776 C782 0.950 . S
H777 C783 0.950 . S
H778 C784 0.949 . S
C779 H774 0.950 . S
C779 C781 1.327 . S
C779 C785 1.429 . S
C780 C772 1.574 . S
C780 H775 0.949 . S
C780 C786 1.368 . S
C781 C765 1.349 . S
C781 H773 0.950 . S
C781 C779 1.327 . S
C782 C770 1.349 . S
C782 H776 0.950 . S
C782 C783 1.327 . S
C783 H777 0.950 . S
C783 C782 1.327 . S
C783 C787 1.429 . S
C784 C767 1.574 . S
C784 H778 0.949 . S
C784 C788 1.368 . S
C785 C766 1.429 . S
C785 C779 1.429 . S
C785 C786 1.523 . S
C786 C767 1.368 . S
C786 C780 1.368 . S
C786 C785 1.523 . S
C787 C771 1.429 . S
C787 C783 1.429 . S
C787 C788 1.523 . S
C788 C772 1.368 . S
C788 C784 1.368 . S
C788 C787 1.523 . S
H789 C764 0.950 . S
H790 C766 0.950 . S
H791 C767 0.949 . S
H792 C769 0.950 . S
H793 C771 0.950 . S
C794 C795 1.349 . S
C794 C796 1.327 . S
C794 H819 0.950 . S
C795 C794 1.349 . S
C795 C811 1.349 . S
C796 C794 1.327 . S
C796 C815 1.429 . S
C796 H820 0.950 . S
C797 C814 1.574 . S
C797 C816 1.368 . S
C797 H821 0.949 . S
H798 C802 0.949 . S
C799 C800 1.349 . S
C799 C801 1.327 . S
C799 H822 0.950 . S
C800 C799 1.349 . S
C800 C812 1.349 . S
C801 C799 1.327 . S
C801 C817 1.429 . S
C801 H823 0.950 . S
C802 H798 0.949 . S
C802 C810 1.574 . S
C802 C818 1.368 . S
H803 C811 0.950 . S
H804 C809 0.950 . S
H805 C810 0.949 . S
H806 C812 0.950 . S
H807 C813 0.950 . S
H808 C814 0.949 . S
C809 H804 0.950 . S
C809 C811 1.327 . S
C809 C815 1.429 . S
C810 C802 1.574 . S
C810 H805 0.949 . S
C810 C816 1.368 . S
C811 C795 1.349 . S
C811 H803 0.950 . S
C811 C809 1.327 . S
C812 C800 1.349 . S
C812 H806 0.950 . S
C812 C813 1.327 . S
C813 H807 0.950 . S
C813 C812 1.327 . S
C813 C817 1.429 . S
C814 C797 1.574 . S
C814 H808 0.949 . S
C814 C818 1.368 . S
C815 C796 1.429 . S
C815 C809 1.429 . S
C815 C816 1.523 . S
C816 C797 1.368 . S
C816 C810 1.368 . S
C816 C815 1.523 . S
C817 C801 1.429 . S
C817 C813 1.429 . S
C817 C818 1.523 . S
C818 C802 1.368 . S
C818 C814 1.368 . S
C818 C817 1.523 . S
H819 C794 0.950 . S
H820 C796 0.950 . S
H821 C797 0.949 . S
H822 C799 0.950 . S
H823 C801 0.950 . S
C824 C825 1.349 . S
C824 C826 1.327 . S
C824 H849 0.950 . S
C825 C824 1.349 . S
C825 C841 1.349 . S
C826 C824 1.327 . S
C826 C845 1.429 . S
C826 H850 0.950 . S
C827 C844 1.574 . S
C827 C846 1.368 . S
C827 H851 0.949 . S
H828 C832 0.949 . S
C829 C830 1.349 . S
C829 C831 1.327 . S
C829 H852 0.950 . S
C830 C829 1.349 . S
C830 C842 1.349 . S
C831 C829 1.327 . S
C831 C847 1.429 . S
C831 H853 0.950 . S
C832 H828 0.949 . S
C832 C840 1.574 . S
C832 C848 1.368 . S
H833 C841 0.950 . S
H834 C839 0.950 . S
H835 C840 0.949 . S
H836 C842 0.950 . S
H837 C843 0.950 . S
H838 C844 0.949 . S
C839 H834 0.950 . S
C839 C841 1.327 . S
C839 C845 1.429 . S
C840 C832 1.574 . S
C840 H835 0.949 . S
C840 C846 1.368 . S
C841 C825 1.349 . S
C841 H833 0.950 . S
C841 C839 1.327 . S
C842 C830 1.349 . S
C842 H836 0.950 . S
C842 C843 1.327 . S
C843 H837 0.950 . S
C843 C842 1.327 . S
C843 C847 1.429 . S
C844 C827 1.574 . S
C844 H838 0.949 . S
C844 C848 1.368 . S
C845 C826 1.429 . S
C845 C839 1.429 . S
C845 C846 1.523 . S
C846 C827 1.368 . S
C846 C840 1.368 . S
C846 C845 1.523 . S
C847 C831 1.429 . S
C847 C843 1.429 . S
C847 C848 1.523 . S
C848 C832 1.368 . S
C848 C844 1.368 . S
C848 C847 1.523 . S
H849 C824 0.950 . S
H850 C826 0.950 . S
H851 C827 0.949 . S
H852 C829 0.950 . S
H853 C831 0.950 . S
C854 C855 1.349 . S
C854 C856 1.327 . S
C854 H879 0.950 . S
C855 C854 1.349 . S
C855 C871 1.349 . S
C856 C854 1.327 . S
C856 C875 1.429 . S
C856 H880 0.950 . S
C857 C874 1.574 . S
C857 C876 1.368 . S
C857 H881 0.949 . S
H858 C862 0.949 . S
C859 C860 1.349 . S
C859 C861 1.327 . S
C859 H882 0.950 . S
C860 C859 1.349 . S
C860 C872 1.349 . S
C861 C859 1.327 . S
C861 C877 1.429 . S
C861 H883 0.950 . S
C862 H858 0.949 . S
C862 C870 1.574 . S
C862 C878 1.368 . S
H863 C871 0.950 . S
H864 C869 0.950 . S
H865 C870 0.949 . S
H866 C872 0.950 . S
H867 C873 0.950 . S
H868 C874 0.949 . S
C869 H864 0.950 . S
C869 C871 1.327 . S
C869 C875 1.429 . S
C870 C862 1.574 . S
C870 H865 0.949 . S
C870 C876 1.368 . S
C871 C855 1.349 . S
C871 H863 0.950 . S
C871 C869 1.327 . S
C872 C860 1.349 . S
C872 H866 0.950 . S
C872 C873 1.327 . S
C873 H867 0.950 . S
C873 C872 1.327 . S
C873 C877 1.429 . S
C874 C857 1.574 . S
C874 H868 0.949 . S
C874 C878 1.368 . S
C875 C856 1.429 . S
C875 C869 1.429 . S
C875 C876 1.523 . S
C876 C857 1.368 . S
C876 C870 1.368 . S
C876 C875 1.523 . S
C877 C861 1.429 . S
C877 C873 1.429 . S
C877 C878 1.523 . S
C878 C862 1.368 . S
C878 C874 1.368 . S
C878 C877 1.523 . S
H879 C854 0.950 . S
H880 C856 0.950 . S
H881 C857 0.949 . S
H882 C859 0.950 . S
H883 C861 0.950 . S
C884 C885 1.349 . S
C884 C886 1.327 . S
C884 H909 0.950 . S
C885 C884 1.349 . S
C885 C901 1.349 . S
C886 C884 1.327 . S
C886 C905 1.429 . S
C886 H910 0.950 . S
C887 C904 1.574 . S
C887 C906 1.368 . S
C887 H911 0.949 . S
H888 C892 0.949 . S
C889 C890 1.349 . S
C889 C891 1.327 . S
C889 H912 0.950 . S
C890 C889 1.349 . S
C890 C902 1.349 . S
C891 C889 1.327 . S
C891 C907 1.429 . S
C891 H913 0.950 . S
C892 H888 0.949 . S
C892 C900 1.574 . S
C892 C908 1.368 . S
H893 C901 0.950 . S
H894 C899 0.950 . S
H895 C900 0.949 . S
H896 C902 0.950 . S
H897 C903 0.950 . S
H898 C904 0.949 . S
C899 H894 0.950 . S
C899 C901 1.327 . S
C899 C905 1.429 . S
C900 C892 1.574 . S
C900 H895 0.949 . S
C900 C906 1.368 . S
C901 C885 1.349 . S
C901 H893 0.950 . S
C901 C899 1.327 . S
C902 C890 1.349 . S
C902 H896 0.950 . S
C902 C903 1.327 . S
C903 H897 0.950 . S
C903 C902 1.327 . S
C903 C907 1.429 . S
C904 C887 1.574 . S
C904 H898 0.949 . S
C904 C908 1.368 . S
C905 C886 1.429 . S
C905 C899 1.429 . S
C905 C906 1.523 . S
C906 C887 1.368 . S
C906 C900 1.368 . S
C906 C905 1.523 . S
C907 C891 1.429 . S
C907 C903 1.429 . S
C907 C908 1.523 . S
C908 C892 1.368 . S
C908 C904 1.368 . S
C908 C907 1.523 . S
H909 C884 0.950 . S
H910 C886 0.950 . S
H911 C887 0.949 . S
H912 C889 0.950 . S
H913 C891 0.950 . S
C914 C915 1.349 . S
C914 C916 1.327 . S
C914 H939 0.950 . S
C915 C914 1.349 . S
C915 C931 1.349 . S
C916 C914 1.327 . S
C916 C935 1.429 . S
C916 H940 0.950 . S
C917 C934 1.574 . S
C917 C936 1.368 . S
C917 H941 0.949 . S
H918 C922 0.949 . S
C919 C920 1.349 . S
C919 C921 1.327 . S
C919 H942 0.950 . S
C920 C919 1.349 . S
C920 C932 1.349 . S
C921 C919 1.327 . S
C921 C937 1.429 . S
C921 H943 0.950 . S
C922 H918 0.949 . S
C922 C930 1.574 . S
C922 C938 1.368 . S
H923 C931 0.950 . S
H924 C929 0.950 . S
H925 C930 0.949 . S
H926 C932 0.950 . S
H927 C933 0.950 . S
H928 C934 0.949 . S
C929 H924 0.950 . S
C929 C931 1.327 . S
C929 C935 1.429 . S
C930 C922 1.574 . S
C930 H925 0.949 . S
C930 C936 1.368 . S
C931 C915 1.349 . S
C931 H923 0.950 . S
C931 C929 1.327 . S
C932 C920 1.349 . S
C932 H926 0.950 . S
C932 C933 1.327 . S
C933 H927 0.950 . S
C933 C932 1.327 . S
C933 C937 1.429 . S
C934 C917 1.574 . S
C934 H928 0.949 . S
C934 C938 1.368 . S
C935 C916 1.429 . S
C935 C929 1.429 . S
C935 C936 1.523 . S
C936 C917 1.368 . S
C936 C930 1.368 . S
C936 C935 1.523 . S
C937 C921 1.429 . S
C937 C933 1.429 . S
C937 C938 1.523 . S
C938 C922 1.368 . S
C938 C934 1.368 . S
C938 C937 1.523 . S
H939 C914 0.950 . S
H940 C916 0.950 . S
H941 C917 0.949 . S
H942 C919 0.950 . S
H943 C921 0.950 . S
C944 C945 1.349 . S
C944 C946 1.327 . S
C944 H969 0.950 . S
C945 C944 1.349 . S
C945 C961 1.349 . S
C946 C944 1.327 . S
C946 C965 1.429 . S
C946 H970 0.950 . S
C947 C964 1.574 1_545 S
C947 C966 1.368 . S
C947 H971 0.949 . S
H948 C952 0.949 . S
C949 C950 1.349 . S
C949 C951 1.327 . S
C949 H972 0.950 . S
C950 C949 1.349 . S
C950 C962 1.349 . S
C951 C949 1.327 . S
C951 C967 1.429 . S
C951 H973 0.950 . S
C952 H948 0.949 . S
C952 C960 1.574 1_565 S
C952 C968 1.368 . S
H953 C961 0.950 . S
H954 C959 0.950 . S
H955 C960 0.949 . S
H956 C962 0.950 . S
H957 C963 0.950 . S
H958 C964 0.949 . S
C959 H954 0.950 . S
C959 C961 1.327 . S
C959 C965 1.429 . S
C960 C952 1.574 1_545 S
C960 H955 0.949 . S
C960 C966 1.368 . S
C961 C945 1.349 . S
C961 H953 0.950 . S
C961 C959 1.327 . S
C962 C950 1.349 . S
C962 H956 0.950 . S
C962 C963 1.327 . S
C963 H957 0.950 . S
C963 C962 1.327 . S
C963 C967 1.429 . S
C964 C947 1.574 1_565 S
C964 H958 0.949 . S
C964 C968 1.368 . S
C965 C946 1.429 . S
C965 C959 1.429 . S
C965 C966 1.523 . S
C966 C947 1.368 . S
C966 C960 1.368 . S
C966 C965 1.523 . S
C967 C951 1.429 . S
C967 C963 1.429 . S
C967 C968 1.523 . S
C968 C952 1.368 . S
C968 C964 1.368 . S
C968 C967 1.523 . S
H969 C944 0.950 . S
H970 C946 0.950 . S
H971 C947 0.949 . S
H972 C949 0.950 . S
H973 C951 0.950 . S
C974 C975 1.349 . S
C974 C976 1.327 . S
C974 H999 0.950 . S
C975 C974 1.349 . S
C975 C991 1.349 . S
C976 C974 1.327 . S
C976 C995 1.429 . S
C976 H1000 0.950 . S
C977 C994 1.574 1_655 S
C977 C996 1.368 . S
C977 H1001 0.949 . S
H978 C982 0.949 . S
C979 C980 1.349 . S
C979 C981 1.327 . S
C979 H1002 0.950 . S
C980 C979 1.349 . S
C980 C992 1.349 . S
C981 C979 1.327 . S
C981 C997 1.429 . S
C981 H1003 0.950 . S
C982 H978 0.949 . S
C982 C990 1.574 1_455 S
C982 C998 1.368 . S
H983 C991 0.950 . S
H984 C989 0.950 . S
H985 C990 0.949 . S
H986 C992 0.950 . S
H987 C993 0.950 . S
H988 C994 0.949 . S
C989 H984 0.950 . S
C989 C991 1.327 . S
C989 C995 1.429 . S
C990 C982 1.574 1_655 S
C990 H985 0.949 . S
C990 C996 1.368 . S
C991 C975 1.349 . S
C991 H983 0.950 . S
C991 C989 1.327 . S
C992 C980 1.349 . S
C992 H986 0.950 . S
C992 C993 1.327 . S
C993 H987 0.950 . S
C993 C992 1.327 . S
C993 C997 1.429 . S
C994 C977 1.574 1_455 S
C994 H988 0.949 . S
C994 C998 1.368 . S
C995 C976 1.429 . S
C995 C989 1.429 . S
C995 C996 1.523 . S
C996 C977 1.368 . S
C996 C990 1.368 . S
C996 C995 1.523 . S
C997 C981 1.429 . S
C997 C993 1.429 . S
C997 C998 1.523 . S
C998 C982 1.368 . S
C998 C994 1.368 . S
C998 C997 1.523 . S
H999 C974 0.950 . S
H1000 C976 0.950 . S
H1001 C977 0.949 . S
H1002 C979 0.950 . S
H1003 C981 0.950 . S
C1004 C1005 1.349 . S
C1004 C1006 1.327 . S
C1004 H1029 0.950 . S
C1005 C1004 1.349 . S
C1005 C1021 1.349 . S
C1006 C1004 1.327 . S
C1006 C1025 1.429 . S
C1006 H1030 0.950 . S
C1007 C1024 1.574 1_545 S
C1007 C1026 1.368 . S
C1007 H1031 0.949 . S
H1008 C1012 0.949 . S
C1009 C1010 1.349 . S
C1009 C1011 1.327 . S
C1009 H1032 0.950 . S
C1010 C1009 1.349 . S
C1010 C1022 1.349 . S
C1011 C1009 1.327 . S
C1011 C1027 1.429 . S
C1011 H1033 0.950 . S
C1012 H1008 0.949 . S
C1012 C1020 1.574 1_565 S
C1012 C1028 1.368 . S
H1013 C1021 0.950 . S
H1014 C1019 0.950 . S
H1015 C1020 0.949 . S
H1016 C1022 0.950 . S
H1017 C1023 0.950 . S
H1018 C1024 0.949 . S
C1019 H1014 0.950 . S
C1019 C1021 1.327 . S
C1019 C1025 1.429 . S
C1020 C1012 1.574 1_545 S
C1020 H1015 0.949 . S
C1020 C1026 1.368 . S
C1021 C1005 1.349 . S
C1021 H1013 0.950 . S
C1021 C1019 1.327 . S
C1022 C1010 1.349 . S
C1022 H1016 0.950 . S
C1022 C1023 1.327 . S
C1023 H1017 0.950 . S
C1023 C1022 1.327 . S
C1023 C1027 1.429 . S
C1024 C1007 1.574 1_565 S
C1024 H1018 0.949 . S
C1024 C1028 1.368 . S
C1025 C1006 1.429 . S
C1025 C1019 1.429 . S
C1025 C1026 1.523 . S
C1026 C1007 1.368 . S
C1026 C1020 1.368 . S
C1026 C1025 1.523 . S
C1027 C1011 1.429 . S
C1027 C1023 1.429 . S
C1027 C1028 1.523 . S
C1028 C1012 1.368 . S
C1028 C1024 1.368 . S
C1028 C1027 1.523 . S
H1029 C1004 0.950 . S
H1030 C1006 0.950 . S
H1031 C1007 0.949 . S
H1032 C1009 0.950 . S
H1033 C1011 0.950 . S
C1034 C1035 1.349 . S
C1034 C1036 1.327 . S
C1034 H1059 0.950 . S
C1035 C1034 1.349 . S
C1035 C1051 1.349 . S
C1036 C1034 1.327 . S
C1036 C1055 1.429 . S
C1036 H1060 0.950 . S
C1037 C1054 1.574 1_455 S
C1037 C1056 1.368 . S
C1037 H1061 0.949 . S
H1038 C1042 0.949 . S
C1039 C1040 1.349 . S
C1039 C1041 1.327 . S
C1039 H1062 0.950 . S
C1040 C1039 1.349 . S
C1040 C1052 1.349 . S
C1041 C1039 1.327 . S
C1041 C1057 1.429 . S
C1041 H1063 0.950 . S
C1042 H1038 0.949 . S
C1042 C1050 1.574 1_655 S
C1042 C1058 1.368 . S
H1043 C1051 0.950 . S
H1044 C1049 0.950 . S
H1045 C1050 0.949 . S
H1046 C1052 0.950 . S
H1047 C1053 0.950 . S
H1048 C1054 0.949 . S
C1049 H1044 0.950 . S
C1049 C1051 1.327 . S
C1049 C1055 1.429 . S
C1050 C1042 1.574 1_455 S
C1050 H1045 0.949 . S
C1050 C1056 1.368 . S
C1051 C1035 1.349 . S
C1051 H1043 0.950 . S
C1051 C1049 1.327 . S
C1052 C1040 1.349 . S
C1052 H1046 0.950 . S
C1052 C1053 1.327 . S
C1053 H1047 0.950 . S
C1053 C1052 1.327 . S
C1053 C1057 1.429 . S
C1054 C1037 1.574 1_655 S
C1054 H1048 0.949 . S
C1054 C1058 1.368 . S
C1055 C1036 1.429 . S
C1055 C1049 1.429 . S
C1055 C1056 1.523 . S
C1056 C1037 1.368 . S
C1056 C1050 1.368 . S
C1056 C1055 1.523 . S
C1057 C1041 1.429 . S
C1057 C1053 1.429 . S
C1057 C1058 1.523 . S
C1058 C1042 1.368 . S
C1058 C1054 1.368 . S
C1058 C1057 1.523 . S
H1059 C1034 0.950 . S
H1060 C1036 0.950 . S
H1061 C1037 0.949 . S
H1062 C1039 0.950 . S
H1063 C1041 0.950 . S
C1064 C1065 1.349 . S
C1064 C1066 1.327 . S
C1064 H1089 0.950 . S
C1065 C1064 1.349 . S
C1065 C1081 1.349 . S
C1066 C1064 1.327 . S
C1066 C1085 1.429 . S
C1066 H1090 0.950 . S
C1067 C1084 1.574 1_545 S
C1067 C1086 1.368 . S
C1067 H1091 0.949 . S
H1068 C1072 0.949 . S
C1069 C1070 1.349 . S
C1069 C1071 1.327 . S
C1069 H1092 0.950 . S
C1070 C1069 1.349 . S
C1070 C1082 1.349 . S
C1071 C1069 1.327 . S
C1071 C1087 1.429 . S
C1071 H1093 0.950 . S
C1072 H1068 0.949 . S
C1072 C1080 1.574 1_565 S
C1072 C1088 1.368 . S
H1073 C1081 0.950 . S
H1074 C1079 0.950 . S
H1075 C1080 0.949 . S
H1076 C1082 0.950 . S
H1077 C1083 0.950 . S
H1078 C1084 0.949 . S
C1079 H1074 0.950 . S
C1079 C1081 1.327 . S
C1079 C1085 1.429 . S
C1080 C1072 1.574 1_545 S
C1080 H1075 0.949 . S
C1080 C1086 1.368 . S
C1081 C1065 1.349 . S
C1081 H1073 0.950 . S
C1081 C1079 1.327 . S
C1082 C1070 1.349 . S
C1082 H1076 0.950 . S
C1082 C1083 1.327 . S
C1083 H1077 0.950 . S
C1083 C1082 1.327 . S
C1083 C1087 1.429 . S
C1084 C1067 1.574 1_565 S
C1084 H1078 0.949 . S
C1084 C1088 1.368 . S
C1085 C1066 1.429 . S
C1085 C1079 1.429 . S
C1085 C1086 1.523 . S
C1086 C1067 1.368 . S
C1086 C1080 1.368 . S
C1086 C1085 1.523 . S
C1087 C1071 1.429 . S
C1087 C1083 1.429 . S
C1087 C1088 1.523 . S
C1088 C1072 1.368 . S
C1088 C1084 1.368 . S
C1088 C1087 1.523 . S
H1089 C1064 0.950 . S
H1090 C1066 0.950 . S
H1091 C1067 0.949 . S
H1092 C1069 0.950 . S
H1093 C1071 0.950 . S
C1094 C1095 1.349 . S
C1094 C1096 1.327 . S
C1094 H1119 0.950 . S
C1095 C1094 1.349 . S
C1095 C1111 1.349 . S
C1096 C1094 1.327 . S
C1096 C1115 1.429 . S
C1096 H1120 0.950 . S
C1097 C1114 1.574 1_655 S
C1097 C1116 1.368 . S
C1097 H1121 0.949 . S
H1098 C1102 0.949 . S
C1099 C1100 1.349 . S
C1099 C1101 1.327 . S
C1099 H1122 0.950 . S
C1100 C1099 1.349 . S
C1100 C1112 1.349 . S
C1101 C1099 1.327 . S
C1101 C1117 1.429 . S
C1101 H1123 0.950 . S
C1102 H1098 0.949 . S
C1102 C1110 1.574 1_455 S
C1102 C1118 1.368 . S
H1103 C1111 0.950 . S
H1104 C1109 0.950 . S
H1105 C1110 0.949 . S
H1106 C1112 0.950 . S
H1107 C1113 0.950 . S
H1108 C1114 0.949 . S
C1109 H1104 0.950 . S
C1109 C1111 1.327 . S
C1109 C1115 1.429 . S
C1110 C1102 1.574 1_655 S
C1110 H1105 0.949 . S
C1110 C1116 1.368 . S
C1111 C1095 1.349 . S
C1111 H1103 0.950 . S
C1111 C1109 1.327 . S
C1112 C1100 1.349 . S
C1112 H1106 0.950 . S
C1112 C1113 1.327 . S
C1113 H1107 0.950 . S
C1113 C1112 1.327 . S
C1113 C1117 1.429 . S
C1114 C1097 1.574 1_455 S
C1114 H1108 0.949 . S
C1114 C1118 1.368 . S
C1115 C1096 1.429 . S
C1115 C1109 1.429 . S
C1115 C1116 1.523 . S
C1116 C1097 1.368 . S
C1116 C1110 1.368 . S
C1116 C1115 1.523 . S
C1117 C1101 1.429 . S
C1117 C1113 1.429 . S
C1117 C1118 1.523 . S
C1118 C1102 1.368 . S
C1118 C1114 1.368 . S
C1118 C1117 1.523 . S
H1119 C1094 0.950 . S
H1120 C1096 0.950 . S
H1121 C1097 0.949 . S
H1122 C1099 0.950 . S
H1123 C1101 0.950 . S
C1124 C1125 1.349 . S
C1124 C1126 1.327 . S
C1124 H1149 0.950 . S
C1125 C1124 1.349 . S
C1125 C1141 1.349 . S
C1126 C1124 1.327 . S
C1126 C1145 1.429 . S
C1126 H1150 0.950 . S
C1127 C1144 1.574 1_565 S
C1127 C1146 1.368 . S
C1127 H1151 0.949 . S
H1128 C1132 0.949 . S
C1129 C1130 1.349 . S
C1129 C1131 1.327 . S
C1129 H1152 0.950 . S
C1130 C1129 1.349 . S
C1130 C1142 1.349 . S
C1131 C1129 1.327 . S
C1131 C1147 1.429 . S
C1131 H1153 0.950 . S
C1132 H1128 0.949 . S
C1132 C1140 1.574 1_545 S
C1132 C1148 1.368 . S
H1133 C1141 0.950 . S
H1134 C1139 0.950 . S
H1135 C1140 0.949 . S
H1136 C1142 0.950 . S
H1137 C1143 0.950 . S
H1138 C1144 0.949 . S
C1139 H1134 0.950 . S
C1139 C1141 1.327 . S
C1139 C1145 1.429 . S
C1140 C1132 1.574 1_565 S
C1140 H1135 0.949 . S
C1140 C1146 1.368 . S
C1141 C1125 1.349 . S
C1141 H1133 0.950 . S
C1141 C1139 1.327 . S
C1142 C1130 1.349 . S
C1142 H1136 0.950 . S
C1142 C1143 1.327 . S
C1143 H1137 0.950 . S
C1143 C1142 1.327 . S
C1143 C1147 1.429 . S
C1144 C1127 1.574 1_545 S
C1144 H1138 0.949 . S
C1144 C1148 1.368 . S
C1145 C1126 1.429 . S
C1145 C1139 1.429 . S
C1145 C1146 1.523 . S
C1146 C1127 1.368 . S
C1146 C1140 1.368 . S
C1146 C1145 1.523 . S
C1147 C1131 1.429 . S
C1147 C1143 1.429 . S
C1147 C1148 1.523 . S
C1148 C1132 1.368 . S
C1148 C1144 1.368 . S
C1148 C1147 1.523 . S
H1149 C1124 0.950 . S
H1150 C1126 0.950 . S
H1151 C1127 0.949 . S
H1152 C1129 0.950 . S
H1153 C1131 0.950 . S
C1154 C1155 1.349 . S
C1154 C1156 1.327 . S
C1154 H1179 0.950 . S
C1155 C1154 1.349 . S
C1155 C1171 1.349 . S
C1156 C1154 1.327 . S
C1156 C1175 1.429 . S
C1156 H1180 0.950 . S
C1157 C1174 1.574 1_455 S
C1157 C1176 1.368 . S
C1157 H1181 0.949 . S
H1158 C1162 0.949 . S
C1159 C1160 1.349 . S
C1159 C1161 1.327 . S
C1159 H1182 0.950 . S
C1160 C1159 1.349 . S
C1160 C1172 1.349 . S
C1161 C1159 1.327 . S
C1161 C1177 1.429 . S
C1161 H1183 0.950 . S
C1162 H1158 0.949 . S
C1162 C1170 1.574 1_655 S
C1162 C1178 1.368 . S
H1163 C1171 0.950 . S
H1164 C1169 0.950 . S
H1165 C1170 0.949 . S
H1166 C1172 0.950 . S
H1167 C1173 0.950 . S
H1168 C1174 0.949 . S
C1169 H1164 0.950 . S
C1169 C1171 1.327 . S
C1169 C1175 1.429 . S
C1170 C1162 1.574 1_455 S
C1170 H1165 0.949 . S
C1170 C1176 1.368 . S
C1171 C1155 1.349 . S
C1171 H1163 0.950 . S
C1171 C1169 1.327 . S
C1172 C1160 1.349 . S
C1172 H1166 0.950 . S
C1172 C1173 1.327 . S
C1173 H1167 0.950 . S
C1173 C1172 1.327 . S
C1173 C1177 1.429 . S
C1174 C1157 1.574 1_655 S
C1174 H1168 0.949 . S
C1174 C1178 1.368 . S
C1175 C1156 1.429 . S
C1175 C1169 1.429 . S
C1175 C1176 1.523 . S
C1176 C1157 1.368 . S
C1176 C1170 1.368 . S
C1176 C1175 1.523 . S
C1177 C1161 1.429 . S
C1177 C1173 1.429 . S
C1177 C1178 1.523 . S
C1178 C1162 1.368 . S
C1178 C1174 1.368 . S
C1178 C1177 1.523 . S
H1179 C1154 0.950 . S
H1180 C1156 0.950 . S
H1181 C1157 0.949 . S
H1182 C1159 0.950 . S
H1183 C1161 0.950 . S
C225 C76 1.580 . S
C230 C6 1.580 . S
C255 C90 1.580 . S
C260 C20 1.580 . S
C285 C34 1.580 . S
C290 C104 1.580 . S
C315 C48 1.580 . S
C320 C62 1.580 . S
C345 C188 1.580 . S
C350 C118 1.580 . S
C375 C202 1.580 . S
C380 C132 1.580 . S
C405 C146 1.580 . S
C410 C216 1.580 . S
C435 C160 1.580 . S
C440 C174 1.580 . S
C465 C147 1.503 . S
C470 C7 1.503 . S
C495 C161 1.503 . S
C500 C21 1.503 . S
C525 C119 1.503 . S
C530 C35 1.503 . S
C555 C49 1.503 . S
C560 C133 1.503 . S
C585 C203 1.503 . S
C590 C63 1.503 . S
C615 C217 1.503 . S
C620 C77 1.503 . S
C645 C91 1.503 . S
C650 C175 1.503 . S
C675 C189 1.503 . S
C680 C105 1.503 . S
C705 C64 0.280 . S
C710 C8 0.280 . S
C735 C22 0.280 . S
C740 C78 0.280 . S
C765 C36 0.280 . S
C770 C92 0.280 . S
C795 C106 0.280 . S
C800 C50 0.280 . S
C825 C121 2.506 . S
C830 C177 2.506 . S
C855 C191 2.506 . S
C860 C135 2.506 . S
C885 C149 2.506 . S
C890 C205 2.506 . S
C915 C219 2.506 . S
C920 C163 2.506 . S
C945 C162 0.281 . S
C950 C190 0.281 . S
C975 C120 0.281 . S
C980 C204 0.281 . S
C1005 C218 0.281 . S
C1010 C134 0.281 . S
C1035 C148 0.281 . S
C1040 C176 0.281 . S
C1065 C79 2.506 . S
C1070 C51 2.506 . S
C1095 C93 2.506 . S
C1100 C9 2.506 . S
C1125 C107 2.506 . S
C1130 C23 2.506 . S
C1155 C65 2.506 . S
C1160 C37 2.506 . S
