# Generated by pormake.
# Topology ato, (4)-cn, num edge types: 1
# Building blocks:
#     Node 0, Type 0, BuildingBlock: QUQFOY_clean_sbu_1, # of connection points: 4
#     Node 1, Type 0, BuildingBlock: QUQFOY_clean_sbu_1, # of connection points: 4
#     Node 2, Type 0, BuildingBlock: QUQFOY_clean_sbu_1, # of connection points: 4
#     Node 3, Type 0, BuildingBlock: QUQFOY_clean_sbu_1, # of connection points: 4
#     Node 4, Type 0, BuildingBlock: QUQFOY_clean_sbu_1, # of connection points: 4
#     Node 5, Type 0, BuildingBlock: QUQFOY_clean_sbu_1, # of connection points: 4
#     Node 6, Type 0, BuildingBlock: QUQFOY_clean_sbu_1, # of connection points: 4
#     Node 7, Type 0, BuildingBlock: QUQFOY_clean_sbu_1, # of connection points: 4
#     Node 8, Type 0, BuildingBlock: QUQFOY_clean_sbu_1, # of connection points: 4
#     Node 9, Type 0, BuildingBlock: QUQFOY_clean_sbu_1, # of connection points: 4
#     Node 10, Type 0, BuildingBlock: QUQFOY_clean_sbu_1, # of connection points: 4
#     Node 11, Type 0, BuildingBlock: QUQFOY_clean_sbu_1, # of connection points: 4
#     Node 12, Type 0, BuildingBlock: QUQFOY_clean_sbu_1, # of connection points: 4
#     Node 13, Type 0, BuildingBlock: QUQFOY_clean_sbu_1, # of connection points: 4
#     Node 14, Type 0, BuildingBlock: QUQFOY_clean_sbu_1, # of connection points: 4
#     Node 15, Type 0, BuildingBlock: QUQFOY_clean_sbu_1, # of connection points: 4
#     Node 16, Type 0, BuildingBlock: QUQFOY_clean_sbu_1, # of connection points: 4
#     Node 17, Type 0, BuildingBlock: QUQFOY_clean_sbu_1, # of connection points: 4
#     Node 18, Type 0, BuildingBlock: QUQFOY_clean_sbu_1, # of connection points: 4
#     Node 19, Type 0, BuildingBlock: QUQFOY_clean_sbu_1, # of connection points: 4
#     Node 20, Type 0, BuildingBlock: QUQFOY_clean_sbu_1, # of connection points: 4
#     Node 21, Type 0, BuildingBlock: QUQFOY_clean_sbu_1, # of connection points: 4
#     Node 22, Type 0, BuildingBlock: QUQFOY_clean_sbu_1, # of connection points: 4
#     Node 23, Type 0, BuildingBlock: QUQFOY_clean_sbu_1, # of connection points: 4
#     Node 24, Type 0, BuildingBlock: QUQFOY_clean_sbu_1, # of connection points: 4
#     Node 25, Type 0, BuildingBlock: QUQFOY_clean_sbu_1, # of connection points: 4
#     Node 26, Type 0, BuildingBlock: QUQFOY_clean_sbu_1, # of connection points: 4
#     Node 27, Type 0, BuildingBlock: QUQFOY_clean_sbu_1, # of connection points: 4
#     Node 28, Type 0, BuildingBlock: QUQFOY_clean_sbu_1, # of connection points: 4
#     Node 29, Type 0, BuildingBlock: QUQFOY_clean_sbu_1, # of connection points: 4
#     Node 30, Type 0, BuildingBlock: QUQFOY_clean_sbu_1, # of connection points: 4
#     Node 31, Type 0, BuildingBlock: QUQFOY_clean_sbu_1, # of connection points: 4
#     Node 32, Type 0, BuildingBlock: QUQFOY_clean_sbu_1, # of connection points: 4
#     Node 33, Type 0, BuildingBlock: QUQFOY_clean_sbu_1, # of connection points: 4
#     Node 34, Type 0, BuildingBlock: QUQFOY_clean_sbu_1, # of connection points: 4
#     Node 35, Type 0, BuildingBlock: QUQFOY_clean_sbu_1, # of connection points: 4
#     Edge 36, Type (0, 0), None
#     Edge 37, Type (0, 0), None
#     Edge 38, Type (0, 0), None
#     Edge 39, Type (0, 0), None
#     Edge 40, Type (0, 0), None
#     Edge 41, Type (0, 0), None
#     Edge 42, Type (0, 0), None
#     Edge 43, Type (0, 0), None
#     Edge 44, Type (0, 0), None
#     Edge 45, Type (0, 0), None
#     Edge 46, Type (0, 0), None
#     Edge 47, Type (0, 0), None
#     Edge 48, Type (0, 0), None
#     Edge 49, Type (0, 0), None
#     Edge 50, Type (0, 0), None
#     Edge 51, Type (0, 0), None
#     Edge 52, Type (0, 0), None
#     Edge 53, Type (0, 0), None
#     Edge 54, Type (0, 0), None
#     Edge 55, Type (0, 0), None
#     Edge 56, Type (0, 0), None
#     Edge 57, Type (0, 0), None
#     Edge 58, Type (0, 0), None
#     Edge 59, Type (0, 0), None
#     Edge 60, Type (0, 0), None
#     Edge 61, Type (0, 0), None
#     Edge 62, Type (0, 0), None
#     Edge 63, Type (0, 0), None
#     Edge 64, Type (0, 0), None
#     Edge 65, Type (0, 0), None
#     Edge 66, Type (0, 0), None
#     Edge 67, Type (0, 0), None
#     Edge 68, Type (0, 0), None
#     Edge 69, Type (0, 0), None
#     Edge 70, Type (0, 0), None
#     Edge 71, Type (0, 0), None
#     Edge 72, Type (0, 0), None
#     Edge 73, Type (0, 0), None
#     Edge 74, Type (0, 0), None
#     Edge 75, Type (0, 0), None
#     Edge 76, Type (0, 0), None
#     Edge 77, Type (0, 0), None
#     Edge 78, Type (0, 0), None
#     Edge 79, Type (0, 0), None
#     Edge 80, Type (0, 0), None
#     Edge 81, Type (0, 0), None
#     Edge 82, Type (0, 0), None
#     Edge 83, Type (0, 0), None
#     Edge 84, Type (0, 0), None
#     Edge 85, Type (0, 0), None
#     Edge 86, Type (0, 0), None
#     Edge 87, Type (0, 0), None
#     Edge 88, Type (0, 0), None
#     Edge 89, Type (0, 0), None
#     Edge 90, Type (0, 0), None
#     Edge 91, Type (0, 0), None
#     Edge 92, Type (0, 0), None
#     Edge 93, Type (0, 0), None
#     Edge 94, Type (0, 0), None
#     Edge 95, Type (0, 0), None
#     Edge 96, Type (0, 0), None
#     Edge 97, Type (0, 0), None
#     Edge 98, Type (0, 0), None
#     Edge 99, Type (0, 0), None
#     Edge 100, Type (0, 0), None
#     Edge 101, Type (0, 0), None
#     Edge 102, Type (0, 0), None
#     Edge 103, Type (0, 0), None
#     Edge 104, Type (0, 0), None
#     Edge 105, Type (0, 0), None
#     Edge 106, Type (0, 0), None
#     Edge 107, Type (0, 0), None
# Relax obj value: 0.095
# Max RMSD: 0.161
# Mean RMSD: 0.161
data_MOF--net-ato--node1-QUQFOY_clean_sbu_1--edge1-none
_symmetry_space_group_name_H-M    P1
_symmetry_Int_Tables_number       1
_symmetry_cell_setting            triclinic
loop_
_symmetry_equiv_pos_as_xyz
'x, y, z'
_cell_length_a     53.184761
_cell_length_b     53.18433
_cell_length_c     11.579126
_cell_angle_alpha  90.006925
_cell_angle_beta   89.986529
_cell_angle_gamma 119.98974
loop_
_atom_site_label
_atom_site_type_symbol
_atom_site_fract_x
_atom_site_fract_y
_atom_site_fract_z
_atom_type_partial_charge
O0 O 0.23508 0.00441 0.13263 0.0
Cd1 Cd 0.25523 0.03085 0.27297 0.0
Cd2 Cd 0.25416 0.06912 0.09617 0.0
O3 O 0.22627 0.03178 0.01398 0.0
O4 O 0.25959 0.00353 0.37931 0.0
O5 O 0.23051 0.02088 0.41801 0.0
C6 C 0.24073 0.00427 0.44631 0.0
C7 C 0.24659 0.10852 0.09743 0.0
C8 C 0.22359 0.00754 0.04163 0.0
C9 C 0.31122 0.07843 0.16989 0.0
O10 O 0.29686 0.08017 0.08627 0.0
O11 O 0.29855 0.06378 0.25984 0.0
O12 O 0.25326 0.10004 0.00413 0.0
O13 O 0.24283 0.09379 0.19087 0.0
O14 O 0.98515 0.2286 0.13254 0.0
Cd15 Cd 0.95872 0.22232 0.27291 0.0
Cd16 Cd 0.92045 0.18297 0.09613 0.0
O17 O 0.9578 0.19243 0.01388 0.0
O18 O 0.98603 0.25399 0.37926 0.0
O19 O 0.96869 0.20757 0.41791 0.0
C20 C 0.98529 0.2344 0.44623 0.0
C21 C 0.88106 0.136 0.09739 0.0
C22 C 0.98203 0.21399 0.04152 0.0
C23 C 0.91113 0.23072 0.16989 0.0
O24 O 0.90938 0.21461 0.08628 0.0
O25 O 0.92578 0.23272 0.25981 0.0
O26 O 0.88954 0.15115 0.00409 0.0
O27 O 0.89579 0.14697 0.19082 0.0
O28 O 0.76095 0.75446 0.13256 0.0
Cd29 Cd 0.76723 0.7343 0.27287 0.0
Cd30 Cd 0.80658 0.73538 0.09606 0.0
O31 O 0.79711 0.76325 0.01384 0.0
O32 O 0.73555 0.72995 0.37926 0.0
O33 O 0.78198 0.75901 0.41789 0.0
C34 C 0.75515 0.7488 0.44624 0.0
C35 C 0.85355 0.74297 0.09741 0.0
C36 C 0.77556 0.76595 0.04153 0.0
C37 C 0.75882 0.67831 0.16978 0.0
O38 O 0.77494 0.69267 0.08618 0.0
O39 O 0.75683 0.69097 0.25971 0.0
O40 O 0.83842 0.73629 0.00408 0.0
O41 O 0.84256 0.74672 0.19082 0.0
O42 O 0.00231 0.23718 0.8672 0.0
Cd43 Cd 0.02875 0.25734 0.72686 0.0
Cd44 Cd 0.06702 0.25625 0.90369 0.0
O45 O 0.02967 0.22836 0.98586 0.0
O46 O 0.00144 0.2617 0.6205 0.0
O47 O 0.01879 0.23262 0.58183 0.0
C48 C 0.00218 0.24284 0.55351 0.0
C49 C 0.10642 0.24869 0.90246 0.0
C50 C 0.00543 0.22568 0.95818 0.0
C51 C 0.07633 0.31332 0.82994 0.0
O52 O 0.07806 0.29896 0.91357 0.0
O53 O 0.06169 0.30066 0.73998 0.0
O54 O 0.09793 0.25535 0.99575 0.0
O55 O 0.0917 0.24493 0.80901 0.0
O56 O 0.75238 0.76305 0.86721 0.0
Cd57 Cd 0.73221 0.76933 0.72692 0.0
Cd58 Cd 0.73328 0.80867 0.90378 0.0
O59 O 0.76116 0.7992 0.98597 0.0
O60 O 0.72786 0.73766 0.62055 0.0
O61 O 0.75692 0.78408 0.58187 0.0
C62 C 0.74671 0.75725 0.55354 0.0
C63 C 0.74087 0.85564 0.90248 0.0
C64 C 0.76386 0.77765 0.95823 0.0
C65 C 0.67622 0.76092 0.83005 0.0
O66 O 0.69058 0.77703 0.91365 0.0
O67 O 0.68889 0.75893 0.74011 0.0
O68 O 0.73419 0.8405 0.99579 0.0
O69 O 0.74463 0.84466 0.80906 0.0
O70 O 0.2265 0.98726 0.86729 0.0
Cd71 Cd 0.22022 0.96081 0.72697 0.0
Cd72 Cd 0.18087 0.92255 0.90382 0.0
O73 O 0.19034 0.9599 0.98602 0.0
O74 O 0.25189 0.98812 0.62056 0.0
O75 O 0.20547 0.97077 0.58196 0.0
C76 C 0.23229 0.98738 0.5536 0.0
C77 C 0.13391 0.88317 0.90253 0.0
C78 C 0.21189 0.98414 0.9583 0.0
C79 C 0.22863 0.91323 0.83004 0.0
O80 O 0.21252 0.91149 0.91367 0.0
O81 O 0.23061 0.92788 0.7401 0.0
O82 O 0.14905 0.89164 0.99584 0.0
O83 O 0.14489 0.8979 0.8091 0.0
O84 O 0.7524 0.98726 0.86728 0.0
Cd85 Cd 0.73224 0.96083 0.72694 0.0
Cd86 Cd 0.73332 0.92255 0.90374 0.0
O87 O 0.7612 0.9599 0.98593 0.0
O88 O 0.72788 0.98814 0.6206 0.0
O89 O 0.75696 0.9708 0.5819 0.0
C90 C 0.74674 0.9874 0.55359 0.0
C91 C 0.74088 0.88315 0.90247 0.0
C92 C 0.76389 0.98414 0.95828 0.0
C93 C 0.67626 0.91325 0.83001 0.0
O94 O 0.69062 0.91151 0.91363 0.0
O95 O 0.68892 0.92789 0.74006 0.0
O96 O 0.73421 0.89163 0.99578 0.0
O97 O 0.74465 0.89788 0.80903 0.0
O98 O 0.00232 0.76308 0.86736 0.0
Cd99 Cd 0.02876 0.76935 0.727 0.0
Cd100 Cd 0.06703 0.80871 0.90378 0.0
O101 O 0.02968 0.79924 0.98602 0.0
O102 O 0.00145 0.73768 0.62065 0.0
O103 O 0.01879 0.7841 0.58199 0.0
C104 C 0.00218 0.75728 0.55367 0.0
C105 C 0.10641 0.85567 0.90252 0.0
C106 C 0.00544 0.77769 0.95838 0.0
C107 C 0.07635 0.76095 0.83001 0.0
O108 O 0.07809 0.77706 0.91362 0.0
O109 O 0.0617 0.75896 0.74009 0.0
O110 O 0.09794 0.84053 0.99582 0.0
O111 O 0.09169 0.8447 0.80909 0.0
O112 O 0.22653 0.23721 0.86734 0.0
Cd113 Cd 0.22025 0.25737 0.72704 0.0
Cd114 Cd 0.1809 0.25629 0.90385 0.0
O115 O 0.19037 0.22842 0.98607 0.0
O116 O 0.25192 0.26172 0.62064 0.0
O117 O 0.2055 0.23266 0.58201 0.0
C118 C 0.23232 0.24287 0.55367 0.0
C119 C 0.13393 0.24871 0.90249 0.0
C120 C 0.21192 0.22572 0.95837 0.0
C121 C 0.22865 0.31336 0.83012 0.0
O122 O 0.21254 0.299 0.91372 0.0
O123 O 0.23065 0.3007 0.74019 0.0
O124 O 0.14906 0.25538 0.99582 0.0
O125 O 0.14492 0.24495 0.80908 0.0
O126 O 0.98516 0.7545 0.13271 0.0
Cd127 Cd 0.95872 0.73434 0.27305 0.0
Cd128 Cd 0.92046 0.73542 0.09621 0.0
O129 O 0.95781 0.76331 0.01404 0.0
O130 O 0.98603 0.72997 0.3794 0.0
O131 O 0.96869 0.75905 0.41808 0.0
C132 C 0.98529 0.74883 0.44639 0.0
C133 C 0.88106 0.74298 0.09744 0.0
C134 C 0.98205 0.766 0.04172 0.0
C135 C 0.91115 0.67836 0.16997 0.0
O136 O 0.90942 0.69272 0.08633 0.0
O137 O 0.92579 0.69102 0.25992 0.0
O138 O 0.88954 0.73632 0.00415 0.0
O139 O 0.89578 0.74674 0.19089 0.0
O140 O 0.2351 0.22862 0.1327 0.0
Cd141 Cd 0.25526 0.22234 0.27298 0.0
Cd142 Cd 0.25419 0.183 0.09611 0.0
O143 O 0.22632 0.19248 0.01393 0.0
O144 O 0.25962 0.25402 0.37936 0.0
O145 O 0.23055 0.2076 0.41803 0.0
C146 C 0.24077 0.23442 0.44636 0.0
C147 C 0.24661 0.13603 0.09742 0.0
C148 C 0.22361 0.21402 0.04168 0.0
C149 C 0.31126 0.23075 0.16985 0.0
O150 O 0.2969 0.21464 0.08625 0.0
O151 O 0.29859 0.23274 0.25979 0.0
O152 O 0.25328 0.15117 0.00411 0.0
O153 O 0.24285 0.14701 0.19085 0.0
O154 O 0.76098 0.00442 0.13261 0.0
Cd155 Cd 0.76726 0.03086 0.27293 0.0
Cd156 Cd 0.8066 0.06912 0.09608 0.0
O157 O 0.79714 0.03177 0.01388 0.0
O158 O 0.73559 0.00356 0.37934 0.0
O159 O 0.78201 0.0209 0.41795 0.0
C160 C 0.75519 0.0043 0.4463 0.0
C161 C 0.85356 0.1085 0.09738 0.0
C162 C 0.77559 0.00753 0.0416 0.0
C163 C 0.75885 0.07845 0.16986 0.0
O164 O 0.77495 0.08018 0.08623 0.0
O165 O 0.75686 0.0638 0.2598 0.0
O166 O 0.83843 0.10004 0.00406 0.0
O167 O 0.84259 0.09377 0.1908 0.0
O168 O 0.90175 0.33774 0.46598 0.0
Cd169 Cd 0.9219 0.36418 0.60633 0.0
Cd170 Cd 0.92082 0.40245 0.42954 0.0
O171 O 0.89293 0.3651 0.34736 0.0
O172 O 0.92626 0.33686 0.71267 0.0
O173 O 0.89718 0.35421 0.75136 0.0
C174 C 0.9074 0.3376 0.77967 0.0
C175 C 0.91326 0.44185 0.4308 0.0
C176 C 0.89025 0.34087 0.375 0.0
C177 C 0.97788 0.41176 0.50324 0.0
O178 O 0.96352 0.41349 0.41962 0.0
O179 O 0.96522 0.39712 0.5932 0.0
O180 O 0.91992 0.43337 0.3375 0.0
O181 O 0.9095 0.42713 0.52424 0.0
O182 O 0.65182 0.56193 0.46588 0.0
Cd183 Cd 0.62538 0.55565 0.60625 0.0
Cd184 Cd 0.58712 0.51629 0.42948 0.0
O185 O 0.62446 0.52576 0.34724 0.0
O186 O 0.65269 0.58732 0.71261 0.0
O187 O 0.63535 0.5409 0.75125 0.0
C188 C 0.65196 0.56773 0.77958 0.0
C189 C 0.54773 0.46933 0.43074 0.0
C190 C 0.6487 0.54731 0.37487 0.0
C191 C 0.57779 0.56405 0.50322 0.0
O192 O 0.57605 0.54794 0.41961 0.0
O193 O 0.59245 0.56605 0.59315 0.0
O194 O 0.5562 0.48447 0.33745 0.0
O195 O 0.56245 0.4803 0.52417 0.0
O196 O 0.42761 0.0878 0.4659 0.0
Cd197 Cd 0.43389 0.06763 0.6062 0.0
Cd198 Cd 0.47324 0.06872 0.42941 0.0
O199 O 0.46377 0.0966 0.34719 0.0
O200 O 0.40222 0.06328 0.7126 0.0
O201 O 0.44864 0.09235 0.75123 0.0
C202 C 0.42182 0.08214 0.77958 0.0
C203 C 0.52021 0.07631 0.43076 0.0
C204 C 0.44222 0.09928 0.37488 0.0
C205 C 0.42549 0.01165 0.50311 0.0
O206 O 0.44161 0.02601 0.41951 0.0
O207 O 0.42349 0.02431 0.59305 0.0
O208 O 0.50509 0.06963 0.33743 0.0
O209 O 0.50922 0.08006 0.52417 0.0
O210 O 0.66898 0.57051 0.20055 0.0
Cd211 Cd 0.69542 0.59066 0.0602 0.0
Cd212 Cd 0.73368 0.58958 0.23703 0.0
O213 O 0.69633 0.56169 0.31921 0.0
O214 O 0.66811 0.59503 0.95385 0.0
O215 O 0.68545 0.56595 0.91517 0.0
C216 C 0.66885 0.57617 0.88686 0.0
C217 C 0.77308 0.58202 0.2358 0.0
C218 C 0.67209 0.559 0.29153 0.0
C219 C 0.74299 0.64664 0.16328 0.0
O220 O 0.74472 0.63228 0.24691 0.0
O221 O 0.72835 0.63398 0.07333 0.0
O222 O 0.7646 0.58868 0.32909 0.0
O223 O 0.75836 0.57826 0.14235 0.0
O224 O 0.41904 0.09638 0.20055 0.0
Cd225 Cd 0.39888 0.10266 0.06026 0.0
Cd226 Cd 0.39995 0.14201 0.23712 0.0
O227 O 0.42782 0.13253 0.31931 0.0
O228 O 0.39452 0.07099 0.95389 0.0
O229 O 0.42359 0.11741 0.91521 0.0
C230 C 0.41337 0.09058 0.88688 0.0
C231 C 0.40754 0.18898 0.23581 0.0
C232 C 0.43053 0.11099 0.29157 0.0
C233 C 0.34288 0.09426 0.16339 0.0
O234 O 0.35724 0.11037 0.24699 0.0
O235 O 0.35555 0.09227 0.07345 0.0
O236 O 0.40086 0.17384 0.32913 0.0
O237 O 0.41129 0.178 0.14239 0.0
O238 O 0.89317 0.32059 0.20066 0.0
Cd239 Cd 0.88689 0.29414 0.06033 0.0
Cd240 Cd 0.84754 0.25589 0.23717 0.0
O241 O 0.857 0.29324 0.31938 0.0
O242 O 0.91856 0.32145 0.95393 0.0
O243 O 0.87214 0.30411 0.91532 0.0
C244 C 0.89896 0.32071 0.88696 0.0
C245 C 0.80058 0.2165 0.23588 0.0
C246 C 0.87855 0.31747 0.29167 0.0
C247 C 0.89529 0.24656 0.1634 0.0
O248 O 0.87919 0.24482 0.24703 0.0
O249 O 0.89728 0.26121 0.07346 0.0
O250 O 0.81571 0.22497 0.32919 0.0
O251 O 0.81156 0.23123 0.14246 0.0
O252 O 0.41906 0.32059 0.20063 0.0
Cd253 Cd 0.39891 0.29416 0.06028 0.0
Cd254 Cd 0.39998 0.25589 0.23707 0.0
O255 O 0.42787 0.29323 0.31927 0.0
O256 O 0.39454 0.32148 0.95394 0.0
O257 O 0.42363 0.30413 0.91524 0.0
C258 C 0.4134 0.32074 0.88694 0.0
C259 C 0.40755 0.21649 0.2358 0.0
C260 C 0.43055 0.31747 0.29162 0.0
C261 C 0.34292 0.24658 0.16335 0.0
O262 O 0.35728 0.24484 0.24697 0.0
O263 O 0.35559 0.26123 0.0734 0.0
O264 O 0.40088 0.22497 0.32911 0.0
O265 O 0.41131 0.23121 0.14237 0.0
O266 O 0.66899 0.09641 0.20072 0.0
Cd267 Cd 0.69542 0.10268 0.06035 0.0
Cd268 Cd 0.73369 0.14204 0.23713 0.0
O269 O 0.69635 0.13257 0.31937 0.0
O270 O 0.66811 0.07101 0.954 0.0
O271 O 0.68545 0.11743 0.91535 0.0
C272 C 0.66885 0.0906 0.88702 0.0
C273 C 0.77308 0.189 0.23587 0.0
C274 C 0.67211 0.11102 0.29173 0.0
C275 C 0.74301 0.09428 0.16337 0.0
O276 O 0.74476 0.11039 0.24698 0.0
O277 O 0.72836 0.09229 0.07345 0.0
O278 O 0.76461 0.17386 0.32916 0.0
O279 O 0.75835 0.17803 0.14244 0.0
O280 O 0.8932 0.57054 0.20069 0.0
Cd281 Cd 0.88692 0.5907 0.06038 0.0
Cd282 Cd 0.84757 0.58962 0.23718 0.0
O283 O 0.85704 0.56175 0.3194 0.0
O284 O 0.91859 0.59505 0.95399 0.0
O285 O 0.87217 0.56599 0.91536 0.0
C286 C 0.89899 0.5762 0.88701 0.0
C287 C 0.8006 0.58203 0.23583 0.0
C288 C 0.87859 0.55905 0.29172 0.0
C289 C 0.89532 0.64669 0.16347 0.0
O290 O 0.8792 0.63233 0.24706 0.0
O291 O 0.89732 0.63403 0.07353 0.0
O292 O 0.81572 0.58871 0.32916 0.0
O293 O 0.81158 0.57828 0.14242 0.0
O294 O 0.65183 0.08783 0.46606 0.0
Cd295 Cd 0.62539 0.06767 0.6064 0.0
Cd296 Cd 0.58713 0.06876 0.42957 0.0
O297 O 0.62448 0.09664 0.3474 0.0
O298 O 0.6527 0.0633 0.71275 0.0
O299 O 0.63535 0.09238 0.75143 0.0
C300 C 0.65196 0.08216 0.77975 0.0
C301 C 0.54772 0.07632 0.4308 0.0
C302 C 0.64871 0.09933 0.37508 0.0
C303 C 0.57781 0.01169 0.50331 0.0
O304 O 0.57608 0.02605 0.41968 0.0
O305 O 0.59245 0.02435 0.59326 0.0
O306 O 0.55621 0.06966 0.3375 0.0
O307 O 0.56244 0.08008 0.52425 0.0
O308 O 0.90177 0.56196 0.46604 0.0
Cd309 Cd 0.92194 0.55568 0.60632 0.0
Cd310 Cd 0.92086 0.51633 0.42947 0.0
O311 O 0.89298 0.52581 0.34729 0.0
O312 O 0.92629 0.58735 0.7127 0.0
O313 O 0.89723 0.54093 0.75137 0.0
C314 C 0.90744 0.56775 0.7797 0.0
C315 C 0.91327 0.46936 0.43079 0.0
C316 C 0.89028 0.54735 0.37502 0.0
C317 C 0.97793 0.56408 0.50318 0.0
O318 O 0.96357 0.54797 0.41958 0.0
O319 O 0.96526 0.56607 0.59312 0.0
O320 O 0.91995 0.4845 0.33747 0.0
O321 O 0.90952 0.48035 0.52421 0.0
O322 O 0.42764 0.33775 0.46595 0.0
Cd323 Cd 0.43392 0.3642 0.60627 0.0
Cd324 Cd 0.47327 0.40245 0.42943 0.0
O325 O 0.4638 0.3651 0.34724 0.0
O326 O 0.40225 0.33689 0.71269 0.0
O327 O 0.44867 0.35423 0.75128 0.0
C328 C 0.42185 0.33763 0.77965 0.0
C329 C 0.52023 0.44183 0.43074 0.0
C330 C 0.44225 0.34087 0.37495 0.0
C331 C 0.42551 0.41178 0.50319 0.0
O332 O 0.44162 0.41352 0.41957 0.0
O333 O 0.42353 0.39713 0.59314 0.0
O334 O 0.5051 0.43337 0.33742 0.0
O335 O 0.50925 0.4271 0.52416 0.0
O336 O 0.56842 0.67108 0.79928 0.0
Cd337 Cd 0.58857 0.69751 0.93962 0.0
Cd338 Cd 0.58749 0.73578 0.76283 0.0
O339 O 0.55961 0.69844 0.68064 0.0
O340 O 0.59293 0.67019 0.04597 0.0
O341 O 0.56385 0.68754 0.08466 0.0
C342 C 0.57407 0.67093 0.11297 0.0
C343 C 0.57993 0.77518 0.7641 0.0
C344 C 0.55693 0.6742 0.70829 0.0
C345 C 0.64455 0.74509 0.83655 0.0
O346 O 0.6302 0.74683 0.75293 0.0
O347 O 0.63189 0.73045 0.92651 0.0
O348 O 0.5866 0.76671 0.6708 0.0
O349 O 0.57617 0.76046 0.85754 0.0
O350 O 0.31849 0.89527 0.79918 0.0
Cd351 Cd 0.29205 0.88899 0.93955 0.0
Cd352 Cd 0.25378 0.84963 0.76277 0.0
O353 O 0.29113 0.8591 0.68053 0.0
O354 O 0.31936 0.92066 0.0459 0.0
O355 O 0.30202 0.87424 0.08456 0.0
C356 C 0.31863 0.90107 0.11288 0.0
C357 C 0.2144 0.80267 0.76403 0.0
C358 C 0.31537 0.88065 0.70817 0.0
C359 C 0.24446 0.89739 0.83653 0.0
O360 O 0.24272 0.88128 0.75293 0.0
O361 O 0.25912 0.89938 0.92645 0.0
O362 O 0.22287 0.81781 0.67074 0.0
O363 O 0.22912 0.81364 0.85746 0.0
O364 O 0.09428 0.42113 0.79921 0.0
Cd365 Cd 0.10056 0.40097 0.93952 0.0
Cd366 Cd 0.13991 0.40205 0.76272 0.0
O367 O 0.13044 0.42993 0.6805 0.0
O368 O 0.06888 0.39662 0.04592 0.0
O369 O 0.1153 0.42568 0.08455 0.0
C370 C 0.08848 0.41547 0.11289 0.0
C371 C 0.18688 0.40964 0.76407 0.0
C372 C 0.10889 0.43262 0.70819 0.0
C373 C 0.09216 0.34498 0.83644 0.0
O374 O 0.10827 0.35934 0.75284 0.0
O375 O 0.09016 0.35765 0.92637 0.0
O376 O 0.17175 0.40297 0.67075 0.0
O377 O 0.17589 0.41339 0.85748 0.0
O378 O 0.33565 0.90385 0.53384 0.0
Cd379 Cd 0.36209 0.924 0.3935 0.0
Cd380 Cd 0.40035 0.92291 0.57033 0.0
O381 O 0.363 0.89503 0.6525 0.0
O382 O 0.33478 0.92837 0.28715 0.0
O383 O 0.35212 0.89929 0.24847 0.0
C384 C 0.33552 0.90951 0.22016 0.0
C385 C 0.43975 0.91535 0.5691 0.0
C386 C 0.33876 0.89234 0.62482 0.0
C387 C 0.40966 0.97998 0.4966 0.0
O388 O 0.41139 0.96562 0.58022 0.0
O389 O 0.39502 0.96732 0.40664 0.0
O390 O 0.43126 0.92201 0.6624 0.0
O391 O 0.42503 0.91159 0.47566 0.0
O392 O 0.08571 0.42971 0.53387 0.0
Cd393 Cd 0.06554 0.43599 0.39359 0.0
Cd394 Cd 0.06661 0.47534 0.57043 0.0
O395 O 0.09449 0.46587 0.65261 0.0
O396 O 0.06118 0.40432 0.2872 0.0
O397 O 0.09025 0.45074 0.24853 0.0
C398 C 0.08003 0.42392 0.2202 0.0
C399 C 0.0742 0.52231 0.56911 0.0
C400 C 0.09719 0.44432 0.62488 0.0
C401 C 0.00955 0.42759 0.49673 0.0
O402 O 0.02391 0.4437 0.58032 0.0
O403 O 0.02221 0.4256 0.40678 0.0
O404 O 0.06753 0.50718 0.66243 0.0
O405 O 0.07796 0.51133 0.47569 0.0
O406 O 0.55984 0.65392 0.53395 0.0
Cd407 Cd 0.55356 0.62747 0.39363 0.0
Cd408 Cd 0.51421 0.58922 0.57047 0.0
O409 O 0.52367 0.62657 0.65266 0.0
O410 O 0.58523 0.65478 0.28722 0.0
O411 O 0.53881 0.63744 0.24862 0.0
C412 C 0.56563 0.65404 0.22026 0.0
C413 C 0.46725 0.54984 0.56917 0.0
C414 C 0.54522 0.65081 0.62495 0.0
C415 C 0.56196 0.57989 0.49672 0.0
O416 O 0.54586 0.57815 0.58034 0.0
O417 O 0.56395 0.59454 0.40677 0.0
O418 O 0.48238 0.55831 0.66248 0.0
O419 O 0.47823 0.56457 0.47574 0.0
O420 O 0.08572 0.65393 0.53392 0.0
Cd421 Cd 0.06557 0.62749 0.39358 0.0
Cd422 Cd 0.06666 0.58922 0.57037 0.0
O423 O 0.09454 0.62657 0.65255 0.0
O424 O 0.06121 0.65481 0.28723 0.0
O425 O 0.09029 0.63746 0.24854 0.0
C426 C 0.08007 0.65407 0.22023 0.0
C427 C 0.07421 0.54982 0.5691 0.0
C428 C 0.09722 0.65081 0.6249 0.0
C429 C 0.00959 0.57992 0.49666 0.0
O430 O 0.02395 0.57818 0.58028 0.0
O431 O 0.02225 0.59456 0.40671 0.0
O432 O 0.06755 0.5583 0.66241 0.0
O433 O 0.07798 0.56455 0.47566 0.0
O434 O 0.33566 0.42974 0.53402 0.0
Cd435 Cd 0.36209 0.43602 0.39366 0.0
Cd436 Cd 0.40036 0.47538 0.57043 0.0
O437 O 0.36301 0.46591 0.65266 0.0
O438 O 0.33478 0.40435 0.2873 0.0
O439 O 0.35212 0.45077 0.24865 0.0
C440 C 0.33552 0.42394 0.22032 0.0
C441 C 0.43974 0.52234 0.56916 0.0
C442 C 0.33878 0.44436 0.62503 0.0
C443 C 0.40968 0.42762 0.49669 0.0
O444 O 0.41142 0.44373 0.58029 0.0
O445 O 0.39503 0.42563 0.40676 0.0
O446 O 0.43127 0.5072 0.66246 0.0
O447 O 0.42502 0.51137 0.47573 0.0
O448 O 0.55987 0.90387 0.534 0.0
Cd449 Cd 0.55358 0.92404 0.3937 0.0
Cd450 Cd 0.51423 0.92295 0.5705 0.0
O451 O 0.5237 0.89508 0.65271 0.0
O452 O 0.58526 0.92839 0.2873 0.0
O453 O 0.53884 0.89932 0.24868 0.0
C454 C 0.56566 0.90954 0.22032 0.0
C455 C 0.46726 0.91536 0.56914 0.0
C456 C 0.54526 0.89239 0.62503 0.0
C457 C 0.56198 0.98002 0.4968 0.0
O458 O 0.54587 0.96566 0.58039 0.0
O459 O 0.56398 0.96736 0.40686 0.0
O460 O 0.48239 0.92204 0.66247 0.0
O461 O 0.47825 0.91161 0.47573 0.0
O462 O 0.3185 0.42117 0.79936 0.0
Cd463 Cd 0.29206 0.40101 0.9397 0.0
Cd464 Cd 0.25379 0.40209 0.76287 0.0
O465 O 0.29114 0.42998 0.68069 0.0
O466 O 0.31937 0.39664 0.04605 0.0
O467 O 0.30202 0.42572 0.08473 0.0
C468 C 0.31863 0.4155 0.11305 0.0
C469 C 0.21439 0.40965 0.76411 0.0
C470 C 0.31538 0.43267 0.70837 0.0
C471 C 0.24448 0.34503 0.83662 0.0
O472 O 0.24275 0.35939 0.75299 0.0
O473 O 0.25912 0.35769 0.92657 0.0
O474 O 0.22288 0.40299 0.67081 0.0
O475 O 0.22911 0.41341 0.85755 0.0
O476 O 0.56843 0.89529 0.79935 0.0
Cd477 Cd 0.5886 0.88901 0.93964 0.0
Cd478 Cd 0.58753 0.84967 0.76278 0.0
O479 O 0.55965 0.85914 0.68059 0.0
O480 O 0.59296 0.92068 0.04601 0.0
O481 O 0.56389 0.87426 0.08469 0.0
C482 C 0.57411 0.90109 0.11302 0.0
C483 C 0.57994 0.8027 0.76409 0.0
C484 C 0.55695 0.88068 0.70833 0.0
C485 C 0.64459 0.89742 0.83651 0.0
O486 O 0.63024 0.88131 0.75291 0.0
O487 O 0.63193 0.89941 0.92645 0.0
O488 O 0.58662 0.81783 0.67077 0.0
O489 O 0.57619 0.81368 0.85751 0.0
O490 O 0.09431 0.67109 0.79925 0.0
Cd491 Cd 0.10059 0.69753 0.93957 0.0
Cd492 Cd 0.13994 0.73579 0.76272 0.0
O493 O 0.13047 0.69844 0.68052 0.0
O494 O 0.06892 0.67022 0.04597 0.0
O495 O 0.11534 0.68756 0.08458 0.0
C496 C 0.08852 0.67096 0.11294 0.0
C497 C 0.1869 0.77517 0.76402 0.0
C498 C 0.10892 0.6742 0.70823 0.0
C499 C 0.09218 0.74511 0.8365 0.0
O500 O 0.10829 0.74685 0.75287 0.0
O501 O 0.0902 0.73047 0.92644 0.0
O502 O 0.17176 0.7667 0.67071 0.0
O503 O 0.17592 0.76044 0.85745 0.0
loop_
_geom_bond_atom_site_label_1
_geom_bond_atom_site_label_2
_geom_bond_distance
_geom_bond_site_symmetry_2
_ccdc_geom_bond_type
O0 Cd1 2.223 . S
O0 C8 1.315 . S
Cd1 O0 2.223 . S
Cd1 O4 2.297 1_545 S
Cd1 O5 2.439 . S
Cd1 O11 2.240 . S
Cd2 O3 2.240 . S
Cd2 O10 2.223 . S
Cd2 O12 2.297 . S
Cd2 O13 2.439 . S
O3 Cd2 2.240 . S
O3 C8 1.279 . S
O4 Cd1 2.297 1_565 S
O4 C6 1.247 1_565 S
O5 Cd1 2.439 . S
O5 C6 1.208 . S
C6 O4 1.247 1_545 S
C6 O5 1.208 . S
C7 O12 1.247 . S
C7 O13 1.208 . S
C8 O0 1.315 . S
C8 O3 1.279 . S
C9 O10 1.315 . S
C9 O11 1.279 . S
O10 Cd2 2.223 . S
O10 C9 1.315 . S
O11 Cd1 2.240 . S
O11 C9 1.279 . S
O12 Cd2 2.297 . S
O12 C7 1.247 . S
O13 Cd2 2.439 . S
O13 C7 1.208 . S
O14 Cd15 2.223 . S
O14 C22 1.315 . S
Cd15 O14 2.223 . S
Cd15 O18 2.297 1_655 S
Cd15 O19 2.439 . S
Cd15 O25 2.240 . S
Cd16 O17 2.240 . S
Cd16 O24 2.223 . S
Cd16 O26 2.297 . S
Cd16 O27 2.439 . S
O17 Cd16 2.240 . S
O17 C22 1.279 . S
O18 Cd15 2.297 1_455 S
O18 C20 1.247 1_455 S
O19 Cd15 2.439 . S
O19 C20 1.208 . S
C20 O18 1.247 1_655 S
C20 O19 1.208 . S
C21 O26 1.247 . S
C21 O27 1.208 . S
C22 O14 1.315 . S
C22 O17 1.279 . S
C23 O24 1.315 . S
C23 O25 1.279 . S
O24 Cd16 2.223 . S
O24 C23 1.315 . S
O25 Cd15 2.240 . S
O25 C23 1.279 . S
O26 Cd16 2.297 . S
O26 C21 1.247 . S
O27 Cd16 2.439 . S
O27 C21 1.208 . S
O28 Cd29 2.223 . S
O28 C36 1.315 . S
Cd29 O28 2.223 . S
Cd29 O32 2.297 . S
Cd29 O33 2.439 . S
Cd29 O39 2.240 . S
Cd30 O31 2.240 . S
Cd30 O38 2.223 . S
Cd30 O40 2.297 . S
Cd30 O41 2.439 . S
O31 Cd30 2.240 . S
O31 C36 1.279 . S
O32 Cd29 2.297 . S
O32 C34 1.247 . S
O33 Cd29 2.439 . S
O33 C34 1.208 . S
C34 O32 1.247 . S
C34 O33 1.208 . S
C35 O40 1.247 . S
C35 O41 1.208 . S
C36 O28 1.315 . S
C36 O31 1.279 . S
C37 O38 1.315 . S
C37 O39 1.279 . S
O38 Cd30 2.223 . S
O38 C37 1.315 . S
O39 Cd29 2.240 . S
O39 C37 1.279 . S
O40 Cd30 2.297 . S
O40 C35 1.247 . S
O41 Cd30 2.439 . S
O41 C35 1.208 . S
O42 Cd43 2.223 . S
O42 C50 1.315 . S
Cd43 O42 2.223 . S
Cd43 O46 2.297 1_455 S
Cd43 O47 2.439 . S
Cd43 O53 2.240 . S
Cd44 O45 2.240 . S
Cd44 O52 2.223 . S
Cd44 O54 2.297 . S
Cd44 O55 2.439 . S
O45 Cd44 2.240 . S
O45 C50 1.279 . S
O46 Cd43 2.297 1_655 S
O46 C48 1.247 1_655 S
O47 Cd43 2.439 . S
O47 C48 1.208 . S
C48 O46 1.247 1_455 S
C48 O47 1.208 . S
C49 O54 1.247 . S
C49 O55 1.208 . S
C50 O42 1.315 . S
C50 O45 1.279 . S
C51 O52 1.315 . S
C51 O53 1.279 . S
O52 Cd44 2.223 . S
O52 C51 1.315 . S
O53 Cd43 2.240 . S
O53 C51 1.279 . S
O54 Cd44 2.297 . S
O54 C49 1.247 . S
O55 Cd44 2.439 . S
O55 C49 1.208 . S
O56 Cd57 2.223 . S
O56 C64 1.315 . S
Cd57 O56 2.223 . S
Cd57 O60 2.297 . S
Cd57 O61 2.439 . S
Cd57 O67 2.240 . S
Cd58 O59 2.240 . S
Cd58 O66 2.223 . S
Cd58 O68 2.297 . S
Cd58 O69 2.439 . S
O59 Cd58 2.240 . S
O59 C64 1.279 . S
O60 Cd57 2.297 . S
O60 C62 1.247 . S
O61 Cd57 2.439 . S
O61 C62 1.208 . S
C62 O60 1.247 . S
C62 O61 1.208 . S
C63 O68 1.247 . S
C63 O69 1.208 . S
C64 O56 1.315 . S
C64 O59 1.279 . S
C65 O66 1.315 . S
C65 O67 1.279 . S
O66 Cd58 2.223 . S
O66 C65 1.315 . S
O67 Cd57 2.240 . S
O67 C65 1.279 . S
O68 Cd58 2.297 . S
O68 C63 1.247 . S
O69 Cd58 2.439 . S
O69 C63 1.208 . S
O70 Cd71 2.223 . S
O70 C78 1.315 . S
Cd71 O70 2.223 . S
Cd71 O74 2.297 1_565 S
Cd71 O75 2.439 . S
Cd71 O81 2.240 . S
Cd72 O73 2.240 . S
Cd72 O80 2.223 . S
Cd72 O82 2.297 . S
Cd72 O83 2.439 . S
O73 Cd72 2.240 . S
O73 C78 1.279 . S
O74 Cd71 2.297 1_545 S
O74 C76 1.247 1_545 S
O75 Cd71 2.439 . S
O75 C76 1.208 . S
C76 O74 1.247 1_565 S
C76 O75 1.208 . S
C77 O82 1.247 . S
C77 O83 1.208 . S
C78 O70 1.315 . S
C78 O73 1.279 . S
C79 O80 1.315 . S
C79 O81 1.279 . S
O80 Cd72 2.223 . S
O80 C79 1.315 . S
O81 Cd71 2.240 . S
O81 C79 1.279 . S
O82 Cd72 2.297 . S
O82 C77 1.247 . S
O83 Cd72 2.439 . S
O83 C77 1.208 . S
O84 Cd85 2.223 . S
O84 C92 1.315 . S
Cd85 O84 2.223 . S
Cd85 O88 2.297 1_565 S
Cd85 O89 2.439 . S
Cd85 O95 2.240 . S
Cd86 O87 2.240 . S
Cd86 O94 2.223 . S
Cd86 O96 2.297 . S
Cd86 O97 2.439 . S
O87 Cd86 2.240 . S
O87 C92 1.279 . S
O88 Cd85 2.297 1_545 S
O88 C90 1.247 1_545 S
O89 Cd85 2.439 . S
O89 C90 1.208 . S
C90 O88 1.247 1_565 S
C90 O89 1.208 . S
C91 O96 1.247 . S
C91 O97 1.208 . S
C92 O84 1.315 . S
C92 O87 1.279 . S
C93 O94 1.315 . S
C93 O95 1.279 . S
O94 Cd86 2.223 . S
O94 C93 1.315 . S
O95 Cd85 2.240 . S
O95 C93 1.279 . S
O96 Cd86 2.297 . S
O96 C91 1.247 . S
O97 Cd86 2.439 . S
O97 C91 1.208 . S
O98 Cd99 2.223 . S
O98 C106 1.315 . S
Cd99 O98 2.223 . S
Cd99 O102 2.297 1_455 S
Cd99 O103 2.439 . S
Cd99 O109 2.240 . S
Cd100 O101 2.240 . S
Cd100 O108 2.223 . S
Cd100 O110 2.297 . S
Cd100 O111 2.439 . S
O101 Cd100 2.240 . S
O101 C106 1.279 . S
O102 Cd99 2.297 1_655 S
O102 C104 1.247 1_655 S
O103 Cd99 2.439 . S
O103 C104 1.208 . S
C104 O102 1.247 1_455 S
C104 O103 1.208 . S
C105 O110 1.247 . S
C105 O111 1.208 . S
C106 O98 1.315 . S
C106 O101 1.279 . S
C107 O108 1.315 . S
C107 O109 1.279 . S
O108 Cd100 2.223 . S
O108 C107 1.315 . S
O109 Cd99 2.240 . S
O109 C107 1.279 . S
O110 Cd100 2.297 . S
O110 C105 1.247 . S
O111 Cd100 2.439 . S
O111 C105 1.208 . S
O112 Cd113 2.223 . S
O112 C120 1.315 . S
Cd113 O112 2.223 . S
Cd113 O116 2.297 . S
Cd113 O117 2.439 . S
Cd113 O123 2.240 . S
Cd114 O115 2.240 . S
Cd114 O122 2.223 . S
Cd114 O124 2.297 . S
Cd114 O125 2.439 . S
O115 Cd114 2.240 . S
O115 C120 1.279 . S
O116 Cd113 2.297 . S
O116 C118 1.247 . S
O117 Cd113 2.439 . S
O117 C118 1.208 . S
C118 O116 1.247 . S
C118 O117 1.208 . S
C119 O124 1.247 . S
C119 O125 1.208 . S
C120 O112 1.315 . S
C120 O115 1.279 . S
C121 O122 1.315 . S
C121 O123 1.279 . S
O122 Cd114 2.223 . S
O122 C121 1.315 . S
O123 Cd113 2.240 . S
O123 C121 1.279 . S
O124 Cd114 2.297 . S
O124 C119 1.247 . S
O125 Cd114 2.439 . S
O125 C119 1.208 . S
O126 Cd127 2.223 . S
O126 C134 1.315 . S
Cd127 O126 2.223 . S
Cd127 O130 2.297 1_655 S
Cd127 O131 2.439 . S
Cd127 O137 2.240 . S
Cd128 O129 2.240 . S
Cd128 O136 2.223 . S
Cd128 O138 2.297 . S
Cd128 O139 2.439 . S
O129 Cd128 2.240 . S
O129 C134 1.279 . S
O130 Cd127 2.297 1_455 S
O130 C132 1.247 1_455 S
O131 Cd127 2.439 . S
O131 C132 1.208 . S
C132 O130 1.247 1_655 S
C132 O131 1.208 . S
C133 O138 1.247 . S
C133 O139 1.208 . S
C134 O126 1.315 . S
C134 O129 1.279 . S
C135 O136 1.315 . S
C135 O137 1.279 . S
O136 Cd128 2.223 . S
O136 C135 1.315 . S
O137 Cd127 2.240 . S
O137 C135 1.279 . S
O138 Cd128 2.297 . S
O138 C133 1.247 . S
O139 Cd128 2.439 . S
O139 C133 1.208 . S
O140 Cd141 2.223 . S
O140 C148 1.315 . S
Cd141 O140 2.223 . S
Cd141 O144 2.297 . S
Cd141 O145 2.439 . S
Cd141 O151 2.240 . S
Cd142 O143 2.240 . S
Cd142 O150 2.223 . S
Cd142 O152 2.297 . S
Cd142 O153 2.439 . S
O143 Cd142 2.240 . S
O143 C148 1.279 . S
O144 Cd141 2.297 . S
O144 C146 1.247 . S
O145 Cd141 2.439 . S
O145 C146 1.208 . S
C146 O144 1.247 . S
C146 O145 1.208 . S
C147 O152 1.247 . S
C147 O153 1.208 . S
C148 O140 1.315 . S
C148 O143 1.279 . S
C149 O150 1.315 . S
C149 O151 1.279 . S
O150 Cd142 2.223 . S
O150 C149 1.315 . S
O151 Cd141 2.240 . S
O151 C149 1.279 . S
O152 Cd142 2.297 . S
O152 C147 1.247 . S
O153 Cd142 2.439 . S
O153 C147 1.208 . S
O154 Cd155 2.223 . S
O154 C162 1.315 . S
Cd155 O154 2.223 . S
Cd155 O158 2.297 1_545 S
Cd155 O159 2.439 . S
Cd155 O165 2.240 . S
Cd156 O157 2.240 . S
Cd156 O164 2.223 . S
Cd156 O166 2.297 . S
Cd156 O167 2.439 . S
O157 Cd156 2.240 . S
O157 C162 1.279 . S
O158 Cd155 2.297 1_565 S
O158 C160 1.247 1_565 S
O159 Cd155 2.439 . S
O159 C160 1.208 . S
C160 O158 1.247 1_545 S
C160 O159 1.208 . S
C161 O166 1.247 . S
C161 O167 1.208 . S
C162 O154 1.315 . S
C162 O157 1.279 . S
C163 O164 1.315 . S
C163 O165 1.279 . S
O164 Cd156 2.223 . S
O164 C163 1.315 . S
O165 Cd155 2.240 . S
O165 C163 1.279 . S
O166 Cd156 2.297 . S
O166 C161 1.247 . S
O167 Cd156 2.439 . S
O167 C161 1.208 . S
O168 Cd169 2.223 . S
O168 C176 1.315 . S
Cd169 O168 2.223 . S
Cd169 O172 2.297 . S
Cd169 O173 2.439 . S
Cd169 O179 2.240 . S
Cd170 O171 2.240 . S
Cd170 O178 2.223 . S
Cd170 O180 2.297 . S
Cd170 O181 2.439 . S
O171 Cd170 2.240 . S
O171 C176 1.279 . S
O172 Cd169 2.297 . S
O172 C174 1.247 . S
O173 Cd169 2.439 . S
O173 C174 1.208 . S
C174 O172 1.247 . S
C174 O173 1.208 . S
C175 O180 1.247 . S
C175 O181 1.208 . S
C176 O168 1.315 . S
C176 O171 1.279 . S
C177 O178 1.315 . S
C177 O179 1.279 . S
O178 Cd170 2.223 . S
O178 C177 1.315 . S
O179 Cd169 2.240 . S
O179 C177 1.279 . S
O180 Cd170 2.297 . S
O180 C175 1.247 . S
O181 Cd170 2.439 . S
O181 C175 1.208 . S
O182 Cd183 2.223 . S
O182 C190 1.315 . S
Cd183 O182 2.223 . S
Cd183 O186 2.297 . S
Cd183 O187 2.439 . S
Cd183 O193 2.240 . S
Cd184 O185 2.240 . S
Cd184 O192 2.223 . S
Cd184 O194 2.297 . S
Cd184 O195 2.439 . S
O185 Cd184 2.240 . S
O185 C190 1.279 . S
O186 Cd183 2.297 . S
O186 C188 1.247 . S
O187 Cd183 2.439 . S
O187 C188 1.208 . S
C188 O186 1.247 . S
C188 O187 1.208 . S
C189 O194 1.247 . S
C189 O195 1.208 . S
C190 O182 1.315 . S
C190 O185 1.279 . S
C191 O192 1.315 . S
C191 O193 1.279 . S
O192 Cd184 2.223 . S
O192 C191 1.315 . S
O193 Cd183 2.240 . S
O193 C191 1.279 . S
O194 Cd184 2.297 . S
O194 C189 1.247 . S
O195 Cd184 2.439 . S
O195 C189 1.208 . S
O196 Cd197 2.223 . S
O196 C204 1.315 . S
Cd197 O196 2.223 . S
Cd197 O200 2.297 . S
Cd197 O201 2.439 . S
Cd197 O207 2.240 . S
Cd198 O199 2.240 . S
Cd198 O206 2.223 . S
Cd198 O208 2.297 . S
Cd198 O209 2.439 . S
O199 Cd198 2.240 . S
O199 C204 1.279 . S
O200 Cd197 2.297 . S
O200 C202 1.247 . S
O201 Cd197 2.439 . S
O201 C202 1.208 . S
C202 O200 1.247 . S
C202 O201 1.208 . S
C203 O208 1.247 . S
C203 O209 1.208 . S
C204 O196 1.315 . S
C204 O199 1.279 . S
C205 O206 1.315 . S
C205 O207 1.279 . S
O206 Cd198 2.223 . S
O206 C205 1.315 . S
O207 Cd197 2.240 . S
O207 C205 1.279 . S
O208 Cd198 2.297 . S
O208 C203 1.247 . S
O209 Cd198 2.439 . S
O209 C203 1.208 . S
O210 Cd211 2.223 . S
O210 C218 1.315 . S
Cd211 O210 2.223 . S
Cd211 O214 2.297 1_554 S
Cd211 O215 2.439 1_554 S
Cd211 O221 2.240 . S
Cd212 O213 2.240 . S
Cd212 O220 2.223 . S
Cd212 O222 2.297 . S
Cd212 O223 2.439 . S
O213 Cd212 2.240 . S
O213 C218 1.279 . S
O214 Cd211 2.297 1_556 S
O214 C216 1.247 . S
O215 Cd211 2.439 1_556 S
O215 C216 1.208 . S
C216 O214 1.247 . S
C216 O215 1.208 . S
C217 O222 1.247 . S
C217 O223 1.208 . S
C218 O210 1.315 . S
C218 O213 1.279 . S
C219 O220 1.315 . S
C219 O221 1.279 . S
O220 Cd212 2.223 . S
O220 C219 1.315 . S
O221 Cd211 2.240 . S
O221 C219 1.279 . S
O222 Cd212 2.297 . S
O222 C217 1.247 . S
O223 Cd212 2.439 . S
O223 C217 1.208 . S
O224 Cd225 2.223 . S
O224 C232 1.315 . S
Cd225 O224 2.223 . S
Cd225 O228 2.297 1_554 S
Cd225 O229 2.439 1_554 S
Cd225 O235 2.240 . S
Cd226 O227 2.240 . S
Cd226 O234 2.223 . S
Cd226 O236 2.297 . S
Cd226 O237 2.439 . S
O227 Cd226 2.240 . S
O227 C232 1.279 . S
O228 Cd225 2.297 1_556 S
O228 C230 1.247 . S
O229 Cd225 2.439 1_556 S
O229 C230 1.208 . S
C230 O228 1.247 . S
C230 O229 1.208 . S
C231 O236 1.247 . S
C231 O237 1.208 . S
C232 O224 1.315 . S
C232 O227 1.279 . S
C233 O234 1.315 . S
C233 O235 1.279 . S
O234 Cd226 2.223 . S
O234 C233 1.315 . S
O235 Cd225 2.240 . S
O235 C233 1.279 . S
O236 Cd226 2.297 . S
O236 C231 1.247 . S
O237 Cd226 2.439 . S
O237 C231 1.208 . S
O238 Cd239 2.223 . S
O238 C246 1.315 . S
Cd239 O238 2.223 . S
Cd239 O242 2.297 1_554 S
Cd239 O243 2.439 1_554 S
Cd239 O249 2.240 . S
Cd240 O241 2.240 . S
Cd240 O248 2.223 . S
Cd240 O250 2.297 . S
Cd240 O251 2.439 . S
O241 Cd240 2.240 . S
O241 C246 1.279 . S
O242 Cd239 2.297 1_556 S
O242 C244 1.247 . S
O243 Cd239 2.439 1_556 S
O243 C244 1.208 . S
C244 O242 1.247 . S
C244 O243 1.208 . S
C245 O250 1.247 . S
C245 O251 1.208 . S
C246 O238 1.315 . S
C246 O241 1.279 . S
C247 O248 1.315 . S
C247 O249 1.279 . S
O248 Cd240 2.223 . S
O248 C247 1.315 . S
O249 Cd239 2.240 . S
O249 C247 1.279 . S
O250 Cd240 2.297 . S
O250 C245 1.247 . S
O251 Cd240 2.439 . S
O251 C245 1.208 . S
O252 Cd253 2.223 . S
O252 C260 1.315 . S
Cd253 O252 2.223 . S
Cd253 O256 2.297 1_554 S
Cd253 O257 2.439 1_554 S
Cd253 O263 2.240 . S
Cd254 O255 2.240 . S
Cd254 O262 2.223 . S
Cd254 O264 2.297 . S
Cd254 O265 2.439 . S
O255 Cd254 2.240 . S
O255 C260 1.279 . S
O256 Cd253 2.297 1_556 S
O256 C258 1.247 . S
O257 Cd253 2.439 1_556 S
O257 C258 1.208 . S
C258 O256 1.247 . S
C258 O257 1.208 . S
C259 O264 1.247 . S
C259 O265 1.208 . S
C260 O252 1.315 . S
C260 O255 1.279 . S
C261 O262 1.315 . S
C261 O263 1.279 . S
O262 Cd254 2.223 . S
O262 C261 1.315 . S
O263 Cd253 2.240 . S
O263 C261 1.279 . S
O264 Cd254 2.297 . S
O264 C259 1.247 . S
O265 Cd254 2.439 . S
O265 C259 1.208 . S
O266 Cd267 2.223 . S
O266 C274 1.315 . S
Cd267 O266 2.223 . S
Cd267 O270 2.297 1_554 S
Cd267 O271 2.439 1_554 S
Cd267 O277 2.240 . S
Cd268 O269 2.240 . S
Cd268 O276 2.223 . S
Cd268 O278 2.297 . S
Cd268 O279 2.439 . S
O269 Cd268 2.240 . S
O269 C274 1.279 . S
O270 Cd267 2.297 1_556 S
O270 C272 1.247 . S
O271 Cd267 2.439 1_556 S
O271 C272 1.208 . S
C272 O270 1.247 . S
C272 O271 1.208 . S
C273 O278 1.247 . S
C273 O279 1.208 . S
C274 O266 1.315 . S
C274 O269 1.279 . S
C275 O276 1.315 . S
C275 O277 1.279 . S
O276 Cd268 2.223 . S
O276 C275 1.315 . S
O277 Cd267 2.240 . S
O277 C275 1.279 . S
O278 Cd268 2.297 . S
O278 C273 1.247 . S
O279 Cd268 2.439 . S
O279 C273 1.208 . S
O280 Cd281 2.223 . S
O280 C288 1.315 . S
Cd281 O280 2.223 . S
Cd281 O284 2.297 1_554 S
Cd281 O285 2.439 1_554 S
Cd281 O291 2.240 . S
Cd282 O283 2.240 . S
Cd282 O290 2.223 . S
Cd282 O292 2.297 . S
Cd282 O293 2.439 . S
O283 Cd282 2.240 . S
O283 C288 1.279 . S
O284 Cd281 2.297 1_556 S
O284 C286 1.247 . S
O285 Cd281 2.439 1_556 S
O285 C286 1.208 . S
C286 O284 1.247 . S
C286 O285 1.208 . S
C287 O292 1.247 . S
C287 O293 1.208 . S
C288 O280 1.315 . S
C288 O283 1.279 . S
C289 O290 1.315 . S
C289 O291 1.279 . S
O290 Cd282 2.223 . S
O290 C289 1.315 . S
O291 Cd281 2.240 . S
O291 C289 1.279 . S
O292 Cd282 2.297 . S
O292 C287 1.247 . S
O293 Cd282 2.439 . S
O293 C287 1.208 . S
O294 Cd295 2.223 . S
O294 C302 1.315 . S
Cd295 O294 2.223 . S
Cd295 O298 2.297 . S
Cd295 O299 2.439 . S
Cd295 O305 2.240 . S
Cd296 O297 2.240 . S
Cd296 O304 2.223 . S
Cd296 O306 2.297 . S
Cd296 O307 2.439 . S
O297 Cd296 2.240 . S
O297 C302 1.279 . S
O298 Cd295 2.297 . S
O298 C300 1.247 . S
O299 Cd295 2.439 . S
O299 C300 1.208 . S
C300 O298 1.247 . S
C300 O299 1.208 . S
C301 O306 1.247 . S
C301 O307 1.208 . S
C302 O294 1.315 . S
C302 O297 1.279 . S
C303 O304 1.315 . S
C303 O305 1.279 . S
O304 Cd296 2.223 . S
O304 C303 1.315 . S
O305 Cd295 2.240 . S
O305 C303 1.279 . S
O306 Cd296 2.297 . S
O306 C301 1.247 . S
O307 Cd296 2.439 . S
O307 C301 1.208 . S
O308 Cd309 2.223 . S
O308 C316 1.315 . S
Cd309 O308 2.223 . S
Cd309 O312 2.297 . S
Cd309 O313 2.439 . S
Cd309 O319 2.240 . S
Cd310 O311 2.240 . S
Cd310 O318 2.223 . S
Cd310 O320 2.297 . S
Cd310 O321 2.439 . S
O311 Cd310 2.240 . S
O311 C316 1.279 . S
O312 Cd309 2.297 . S
O312 C314 1.247 . S
O313 Cd309 2.439 . S
O313 C314 1.208 . S
C314 O312 1.247 . S
C314 O313 1.208 . S
C315 O320 1.247 . S
C315 O321 1.208 . S
C316 O308 1.315 . S
C316 O311 1.279 . S
C317 O318 1.315 . S
C317 O319 1.279 . S
O318 Cd310 2.223 . S
O318 C317 1.315 . S
O319 Cd309 2.240 . S
O319 C317 1.279 . S
O320 Cd310 2.297 . S
O320 C315 1.247 . S
O321 Cd310 2.439 . S
O321 C315 1.208 . S
O322 Cd323 2.223 . S
O322 C330 1.315 . S
Cd323 O322 2.223 . S
Cd323 O326 2.297 . S
Cd323 O327 2.439 . S
Cd323 O333 2.240 . S
Cd324 O325 2.240 . S
Cd324 O332 2.223 . S
Cd324 O334 2.297 . S
Cd324 O335 2.439 . S
O325 Cd324 2.240 . S
O325 C330 1.279 . S
O326 Cd323 2.297 . S
O326 C328 1.247 . S
O327 Cd323 2.439 . S
O327 C328 1.208 . S
C328 O326 1.247 . S
C328 O327 1.208 . S
C329 O334 1.247 . S
C329 O335 1.208 . S
C330 O322 1.315 . S
C330 O325 1.279 . S
C331 O332 1.315 . S
C331 O333 1.279 . S
O332 Cd324 2.223 . S
O332 C331 1.315 . S
O333 Cd323 2.240 . S
O333 C331 1.279 . S
O334 Cd324 2.297 . S
O334 C329 1.247 . S
O335 Cd324 2.439 . S
O335 C329 1.208 . S
O336 Cd337 2.223 . S
O336 C344 1.315 . S
Cd337 O336 2.223 . S
Cd337 O340 2.297 1_556 S
Cd337 O341 2.439 1_556 S
Cd337 O347 2.240 . S
Cd338 O339 2.240 . S
Cd338 O346 2.223 . S
Cd338 O348 2.297 . S
Cd338 O349 2.439 . S
O339 Cd338 2.240 . S
O339 C344 1.279 . S
O340 Cd337 2.297 1_554 S
O340 C342 1.247 . S
O341 Cd337 2.439 1_554 S
O341 C342 1.208 . S
C342 O340 1.247 . S
C342 O341 1.208 . S
C343 O348 1.247 . S
C343 O349 1.208 . S
C344 O336 1.315 . S
C344 O339 1.279 . S
C345 O346 1.315 . S
C345 O347 1.279 . S
O346 Cd338 2.223 . S
O346 C345 1.315 . S
O347 Cd337 2.240 . S
O347 C345 1.279 . S
O348 Cd338 2.297 . S
O348 C343 1.247 . S
O349 Cd338 2.439 . S
O349 C343 1.208 . S
O350 Cd351 2.223 . S
O350 C358 1.315 . S
Cd351 O350 2.223 . S
Cd351 O354 2.297 1_556 S
Cd351 O355 2.439 1_556 S
Cd351 O361 2.240 . S
Cd352 O353 2.240 . S
Cd352 O360 2.223 . S
Cd352 O362 2.297 . S
Cd352 O363 2.439 . S
O353 Cd352 2.240 . S
O353 C358 1.279 . S
O354 Cd351 2.297 1_554 S
O354 C356 1.247 . S
O355 Cd351 2.439 1_554 S
O355 C356 1.208 . S
C356 O354 1.247 . S
C356 O355 1.208 . S
C357 O362 1.247 . S
C357 O363 1.208 . S
C358 O350 1.315 . S
C358 O353 1.279 . S
C359 O360 1.315 . S
C359 O361 1.279 . S
O360 Cd352 2.223 . S
O360 C359 1.315 . S
O361 Cd351 2.240 . S
O361 C359 1.279 . S
O362 Cd352 2.297 . S
O362 C357 1.247 . S
O363 Cd352 2.439 . S
O363 C357 1.208 . S
O364 Cd365 2.223 . S
O364 C372 1.315 . S
Cd365 O364 2.223 . S
Cd365 O368 2.297 1_556 S
Cd365 O369 2.439 1_556 S
Cd365 O375 2.240 . S
Cd366 O367 2.240 . S
Cd366 O374 2.223 . S
Cd366 O376 2.297 . S
Cd366 O377 2.439 . S
O367 Cd366 2.240 . S
O367 C372 1.279 . S
O368 Cd365 2.297 1_554 S
O368 C370 1.247 . S
O369 Cd365 2.439 1_554 S
O369 C370 1.208 . S
C370 O368 1.247 . S
C370 O369 1.208 . S
C371 O376 1.247 . S
C371 O377 1.208 . S
C372 O364 1.315 . S
C372 O367 1.279 . S
C373 O374 1.315 . S
C373 O375 1.279 . S
O374 Cd366 2.223 . S
O374 C373 1.315 . S
O375 Cd365 2.240 . S
O375 C373 1.279 . S
O376 Cd366 2.297 . S
O376 C371 1.247 . S
O377 Cd366 2.439 . S
O377 C371 1.208 . S
O378 Cd379 2.223 . S
O378 C386 1.315 . S
Cd379 O378 2.223 . S
Cd379 O382 2.297 . S
Cd379 O383 2.439 . S
Cd379 O389 2.240 . S
Cd380 O381 2.240 . S
Cd380 O388 2.223 . S
Cd380 O390 2.297 . S
Cd380 O391 2.439 . S
O381 Cd380 2.240 . S
O381 C386 1.279 . S
O382 Cd379 2.297 . S
O382 C384 1.247 . S
O383 Cd379 2.439 . S
O383 C384 1.208 . S
C384 O382 1.247 . S
C384 O383 1.208 . S
C385 O390 1.247 . S
C385 O391 1.208 . S
C386 O378 1.315 . S
C386 O381 1.279 . S
C387 O388 1.315 . S
C387 O389 1.279 . S
O388 Cd380 2.223 . S
O388 C387 1.315 . S
O389 Cd379 2.240 . S
O389 C387 1.279 . S
O390 Cd380 2.297 . S
O390 C385 1.247 . S
O391 Cd380 2.439 . S
O391 C385 1.208 . S
O392 Cd393 2.223 . S
O392 C400 1.315 . S
Cd393 O392 2.223 . S
Cd393 O396 2.297 . S
Cd393 O397 2.439 . S
Cd393 O403 2.240 . S
Cd394 O395 2.240 . S
Cd394 O402 2.223 . S
Cd394 O404 2.297 . S
Cd394 O405 2.439 . S
O395 Cd394 2.240 . S
O395 C400 1.279 . S
O396 Cd393 2.297 . S
O396 C398 1.247 . S
O397 Cd393 2.439 . S
O397 C398 1.208 . S
C398 O396 1.247 . S
C398 O397 1.208 . S
C399 O404 1.247 . S
C399 O405 1.208 . S
C400 O392 1.315 . S
C400 O395 1.279 . S
C401 O402 1.315 . S
C401 O403 1.279 . S
O402 Cd394 2.223 . S
O402 C401 1.315 . S
O403 Cd393 2.240 . S
O403 C401 1.279 . S
O404 Cd394 2.297 . S
O404 C399 1.247 . S
O405 Cd394 2.439 . S
O405 C399 1.208 . S
O406 Cd407 2.223 . S
O406 C414 1.315 . S
Cd407 O406 2.223 . S
Cd407 O410 2.297 . S
Cd407 O411 2.439 . S
Cd407 O417 2.240 . S
Cd408 O409 2.240 . S
Cd408 O416 2.223 . S
Cd408 O418 2.297 . S
Cd408 O419 2.439 . S
O409 Cd408 2.240 . S
O409 C414 1.279 . S
O410 Cd407 2.297 . S
O410 C412 1.247 . S
O411 Cd407 2.439 . S
O411 C412 1.208 . S
C412 O410 1.247 . S
C412 O411 1.208 . S
C413 O418 1.247 . S
C413 O419 1.208 . S
C414 O406 1.315 . S
C414 O409 1.279 . S
C415 O416 1.315 . S
C415 O417 1.279 . S
O416 Cd408 2.223 . S
O416 C415 1.315 . S
O417 Cd407 2.240 . S
O417 C415 1.279 . S
O418 Cd408 2.297 . S
O418 C413 1.247 . S
O419 Cd408 2.439 . S
O419 C413 1.208 . S
O420 Cd421 2.223 . S
O420 C428 1.315 . S
Cd421 O420 2.223 . S
Cd421 O424 2.297 . S
Cd421 O425 2.439 . S
Cd421 O431 2.240 . S
Cd422 O423 2.240 . S
Cd422 O430 2.223 . S
Cd422 O432 2.297 . S
Cd422 O433 2.439 . S
O423 Cd422 2.240 . S
O423 C428 1.279 . S
O424 Cd421 2.297 . S
O424 C426 1.247 . S
O425 Cd421 2.439 . S
O425 C426 1.208 . S
C426 O424 1.247 . S
C426 O425 1.208 . S
C427 O432 1.247 . S
C427 O433 1.208 . S
C428 O420 1.315 . S
C428 O423 1.279 . S
C429 O430 1.315 . S
C429 O431 1.279 . S
O430 Cd422 2.223 . S
O430 C429 1.315 . S
O431 Cd421 2.240 . S
O431 C429 1.279 . S
O432 Cd422 2.297 . S
O432 C427 1.247 . S
O433 Cd422 2.439 . S
O433 C427 1.208 . S
O434 Cd435 2.223 . S
O434 C442 1.315 . S
Cd435 O434 2.223 . S
Cd435 O438 2.297 . S
Cd435 O439 2.439 . S
Cd435 O445 2.240 . S
Cd436 O437 2.240 . S
Cd436 O444 2.223 . S
Cd436 O446 2.297 . S
Cd436 O447 2.439 . S
O437 Cd436 2.240 . S
O437 C442 1.279 . S
O438 Cd435 2.297 . S
O438 C440 1.247 . S
O439 Cd435 2.439 . S
O439 C440 1.208 . S
C440 O438 1.247 . S
C440 O439 1.208 . S
C441 O446 1.247 . S
C441 O447 1.208 . S
C442 O434 1.315 . S
C442 O437 1.279 . S
C443 O444 1.315 . S
C443 O445 1.279 . S
O444 Cd436 2.223 . S
O444 C443 1.315 . S
O445 Cd435 2.240 . S
O445 C443 1.279 . S
O446 Cd436 2.297 . S
O446 C441 1.247 . S
O447 Cd436 2.439 . S
O447 C441 1.208 . S
O448 Cd449 2.223 . S
O448 C456 1.315 . S
Cd449 O448 2.223 . S
Cd449 O452 2.297 . S
Cd449 O453 2.439 . S
Cd449 O459 2.240 . S
Cd450 O451 2.240 . S
Cd450 O458 2.223 . S
Cd450 O460 2.297 . S
Cd450 O461 2.439 . S
O451 Cd450 2.240 . S
O451 C456 1.279 . S
O452 Cd449 2.297 . S
O452 C454 1.247 . S
O453 Cd449 2.439 . S
O453 C454 1.208 . S
C454 O452 1.247 . S
C454 O453 1.208 . S
C455 O460 1.247 . S
C455 O461 1.208 . S
C456 O448 1.315 . S
C456 O451 1.279 . S
C457 O458 1.315 . S
C457 O459 1.279 . S
O458 Cd450 2.223 . S
O458 C457 1.315 . S
O459 Cd449 2.240 . S
O459 C457 1.279 . S
O460 Cd450 2.297 . S
O460 C455 1.247 . S
O461 Cd450 2.439 . S
O461 C455 1.208 . S
O462 Cd463 2.223 . S
O462 C470 1.315 . S
Cd463 O462 2.223 . S
Cd463 O466 2.297 1_556 S
Cd463 O467 2.439 1_556 S
Cd463 O473 2.240 . S
Cd464 O465 2.240 . S
Cd464 O472 2.223 . S
Cd464 O474 2.297 . S
Cd464 O475 2.439 . S
O465 Cd464 2.240 . S
O465 C470 1.279 . S
O466 Cd463 2.297 1_554 S
O466 C468 1.247 . S
O467 Cd463 2.439 1_554 S
O467 C468 1.208 . S
C468 O466 1.247 . S
C468 O467 1.208 . S
C469 O474 1.247 . S
C469 O475 1.208 . S
C470 O462 1.315 . S
C470 O465 1.279 . S
C471 O472 1.315 . S
C471 O473 1.279 . S
O472 Cd464 2.223 . S
O472 C471 1.315 . S
O473 Cd463 2.240 . S
O473 C471 1.279 . S
O474 Cd464 2.297 . S
O474 C469 1.247 . S
O475 Cd464 2.439 . S
O475 C469 1.208 . S
O476 Cd477 2.223 . S
O476 C484 1.315 . S
Cd477 O476 2.223 . S
Cd477 O480 2.297 1_556 S
Cd477 O481 2.439 1_556 S
Cd477 O487 2.240 . S
Cd478 O479 2.240 . S
Cd478 O486 2.223 . S
Cd478 O488 2.297 . S
Cd478 O489 2.439 . S
O479 Cd478 2.240 . S
O479 C484 1.279 . S
O480 Cd477 2.297 1_554 S
O480 C482 1.247 . S
O481 Cd477 2.439 1_554 S
O481 C482 1.208 . S
C482 O480 1.247 . S
C482 O481 1.208 . S
C483 O488 1.247 . S
C483 O489 1.208 . S
C484 O476 1.315 . S
C484 O479 1.279 . S
C485 O486 1.315 . S
C485 O487 1.279 . S
O486 Cd478 2.223 . S
O486 C485 1.315 . S
O487 Cd477 2.240 . S
O487 C485 1.279 . S
O488 Cd478 2.297 . S
O488 C483 1.247 . S
O489 Cd478 2.439 . S
O489 C483 1.208 . S
O490 Cd491 2.223 . S
O490 C498 1.315 . S
Cd491 O490 2.223 . S
Cd491 O494 2.297 1_556 S
Cd491 O495 2.439 1_556 S
Cd491 O501 2.240 . S
Cd492 O493 2.240 . S
Cd492 O500 2.223 . S
Cd492 O502 2.297 . S
Cd492 O503 2.439 . S
O493 Cd492 2.240 . S
O493 C498 1.279 . S
O494 Cd491 2.297 1_554 S
O494 C496 1.247 . S
O495 Cd491 2.439 1_554 S
O495 C496 1.208 . S
C496 O494 1.247 . S
C496 O495 1.208 . S
C497 O502 1.247 . S
C497 O503 1.208 . S
C498 O490 1.315 . S
C498 O493 1.279 . S
C499 O500 1.315 . S
C499 O501 1.279 . S
O500 Cd492 2.223 . S
O500 C499 1.315 . S
O501 Cd491 2.240 . S
O501 C499 1.279 . S
O502 Cd492 2.297 . S
O502 C497 1.247 . S
O503 Cd492 2.439 . S
O503 C497 1.208 . S
C76 C6 1.299 1_565 S
C48 C20 1.299 1_455 S
C34 C62 1.299 . S
C90 C160 1.299 1_565 S
C104 C132 1.299 1_455 S
C146 C118 1.299 . S
C174 C244 1.299 . S
C188 C216 1.299 . S
C202 C230 1.299 . S
C328 C258 1.299 . S
C272 C300 1.299 . S
C314 C286 1.299 . S
C412 C342 1.299 . S
C384 C356 1.299 . S
C398 C370 1.299 . S
C426 C496 1.299 . S
C440 C468 1.299 . S
C454 C482 1.299 . S
C78 C8 2.219 1_566 S
C22 C50 2.219 1_654 S
C64 C36 2.219 1_556 S
C92 C162 2.219 1_566 S
C106 C134 2.219 1_456 S
C148 C120 2.219 1_554 S
C176 C246 2.219 . S
C218 C190 2.219 . S
C232 C204 2.219 . S
C260 C330 2.219 . S
C274 C302 2.219 . S
C316 C288 2.219 . S
C414 C344 2.219 . S
C358 C386 2.219 . S
C372 C400 2.219 . S
C498 C428 2.219 . S
C470 C442 2.219 . S
C484 C456 2.219 . S
C233 C9 2.215 . S
C247 C23 2.216 . S
C219 C37 2.215 . S
C51 C373 2.215 . S
C65 C345 2.215 . S
C79 C359 2.216 . S
C93 C485 2.215 . S
C107 C499 2.216 . S
C121 C471 2.215 . S
C135 C289 2.215 . S
C261 C149 2.215 . S
C275 C163 2.216 . S
C401 C177 2.215 1_455 S
C191 C415 2.215 . S
C205 C387 2.215 1_545 S
C303 C457 2.214 1_545 S
C317 C429 2.214 1_655 S
C443 C331 2.215 . S
C7 C147 1.315 . S
C161 C21 1.316 . S
C133 C35 1.315 . S
C49 C119 1.315 . S
C63 C91 1.315 . S
C77 C105 1.316 . S
C175 C315 1.315 . S
C329 C189 1.316 . S
C301 C203 1.315 . S
C217 C287 1.315 . S
C231 C259 1.315 . S
C273 C245 1.316 . S
C343 C483 1.315 . S
C497 C357 1.316 . S
C371 C469 1.315 . S
C385 C455 1.315 . S
C427 C399 1.315 . S
C413 C441 1.316 . S
