# Generated by pormake.
# Topology umc, (4)-cn, num edge types: 1
# Building blocks:
#     Node 0, Type 0, BuildingBlock: CEKHIL_clean_sbu_0, # of connection points: 4
#     Node 1, Type 0, BuildingBlock: CEKHIL_clean_sbu_0, # of connection points: 4
#     Node 2, Type 0, BuildingBlock: CEKHIL_clean_sbu_0, # of connection points: 4
#     Node 3, Type 0, BuildingBlock: CEKHIL_clean_sbu_0, # of connection points: 4
#     Node 4, Type 0, BuildingBlock: CEKHIL_clean_sbu_0, # of connection points: 4
#     Node 5, Type 0, BuildingBlock: CEKHIL_clean_sbu_0, # of connection points: 4
#     Node 6, Type 0, BuildingBlock: CEKHIL_clean_sbu_0, # of connection points: 4
#     Node 7, Type 0, BuildingBlock: CEKHIL_clean_sbu_0, # of connection points: 4
#     Node 8, Type 0, BuildingBlock: CEKHIL_clean_sbu_0, # of connection points: 4
#     Node 9, Type 0, BuildingBlock: CEKHIL_clean_sbu_0, # of connection points: 4
#     Node 10, Type 0, BuildingBlock: CEKHIL_clean_sbu_0, # of connection points: 4
#     Node 11, Type 0, BuildingBlock: CEKHIL_clean_sbu_0, # of connection points: 4
#     Node 12, Type 0, BuildingBlock: CEKHIL_clean_sbu_0, # of connection points: 4
#     Node 13, Type 0, BuildingBlock: CEKHIL_clean_sbu_0, # of connection points: 4
#     Node 14, Type 0, BuildingBlock: CEKHIL_clean_sbu_0, # of connection points: 4
#     Node 15, Type 0, BuildingBlock: CEKHIL_clean_sbu_0, # of connection points: 4
#     Edge 16, Type (0, 0), BuildingBlock: XUDNAN_clean_linker_2, # of connection points: 2
#     Edge 17, Type (0, 0), BuildingBlock: XUDNAN_clean_linker_2, # of connection points: 2
#     Edge 18, Type (0, 0), BuildingBlock: XUDNAN_clean_linker_2, # of connection points: 2
#     Edge 19, Type (0, 0), BuildingBlock: XUDNAN_clean_linker_2, # of connection points: 2
#     Edge 20, Type (0, 0), BuildingBlock: XUDNAN_clean_linker_2, # of connection points: 2
#     Edge 21, Type (0, 0), BuildingBlock: XUDNAN_clean_linker_2, # of connection points: 2
#     Edge 22, Type (0, 0), BuildingBlock: XUDNAN_clean_linker_2, # of connection points: 2
#     Edge 23, Type (0, 0), BuildingBlock: XUDNAN_clean_linker_2, # of connection points: 2
#     Edge 24, Type (0, 0), BuildingBlock: XUDNAN_clean_linker_2, # of connection points: 2
#     Edge 25, Type (0, 0), BuildingBlock: XUDNAN_clean_linker_2, # of connection points: 2
#     Edge 26, Type (0, 0), BuildingBlock: XUDNAN_clean_linker_2, # of connection points: 2
#     Edge 27, Type (0, 0), BuildingBlock: XUDNAN_clean_linker_2, # of connection points: 2
#     Edge 28, Type (0, 0), BuildingBlock: XUDNAN_clean_linker_2, # of connection points: 2
#     Edge 29, Type (0, 0), BuildingBlock: XUDNAN_clean_linker_2, # of connection points: 2
#     Edge 30, Type (0, 0), BuildingBlock: XUDNAN_clean_linker_2, # of connection points: 2
#     Edge 31, Type (0, 0), BuildingBlock: XUDNAN_clean_linker_2, # of connection points: 2
#     Edge 32, Type (0, 0), BuildingBlock: XUDNAN_clean_linker_2, # of connection points: 2
#     Edge 33, Type (0, 0), BuildingBlock: XUDNAN_clean_linker_2, # of connection points: 2
#     Edge 34, Type (0, 0), BuildingBlock: XUDNAN_clean_linker_2, # of connection points: 2
#     Edge 35, Type (0, 0), BuildingBlock: XUDNAN_clean_linker_2, # of connection points: 2
#     Edge 36, Type (0, 0), BuildingBlock: XUDNAN_clean_linker_2, # of connection points: 2
#     Edge 37, Type (0, 0), BuildingBlock: XUDNAN_clean_linker_2, # of connection points: 2
#     Edge 38, Type (0, 0), BuildingBlock: XUDNAN_clean_linker_2, # of connection points: 2
#     Edge 39, Type (0, 0), BuildingBlock: XUDNAN_clean_linker_2, # of connection points: 2
#     Edge 40, Type (0, 0), BuildingBlock: XUDNAN_clean_linker_2, # of connection points: 2
#     Edge 41, Type (0, 0), BuildingBlock: XUDNAN_clean_linker_2, # of connection points: 2
#     Edge 42, Type (0, 0), BuildingBlock: XUDNAN_clean_linker_2, # of connection points: 2
#     Edge 43, Type (0, 0), BuildingBlock: XUDNAN_clean_linker_2, # of connection points: 2
#     Edge 44, Type (0, 0), BuildingBlock: XUDNAN_clean_linker_2, # of connection points: 2
#     Edge 45, Type (0, 0), BuildingBlock: XUDNAN_clean_linker_2, # of connection points: 2
#     Edge 46, Type (0, 0), BuildingBlock: XUDNAN_clean_linker_2, # of connection points: 2
#     Edge 47, Type (0, 0), BuildingBlock: XUDNAN_clean_linker_2, # of connection points: 2
# Relax obj value: 0.083
# Max RMSD: 0.169
# Mean RMSD: 0.169
data_MOF--net-umc--node1-CEKHIL_clean_sbu_0--edge1-XUDNAN_clean_linker_2
_symmetry_space_group_name_H-M    P1
_symmetry_Int_Tables_number       1
_symmetry_cell_setting            triclinic
loop_
_symmetry_equiv_pos_as_xyz
'x, y, z'
_cell_length_a     45.491752
_cell_length_b     32.988616
_cell_length_c     55.219832
_cell_angle_alpha  89.995716
_cell_angle_beta   89.996162
_cell_angle_gamma 89.885304
loop_
_atom_site_label
_atom_site_type_symbol
_atom_site_fract_x
_atom_site_fract_y
_atom_site_fract_z
_atom_type_partial_charge
Co0 Co 0.33775 0.05956 0.37065 0.0
O1 O 0.29778 0.07891 0.36966 0.0
O2 O 0.33514 0.11538 0.38274 0.0
C3 C 0.33834 0.0332 0.33301 0.0
O4 O 0.38236 0.04815 0.37339 0.0
Co5 Co 0.3482 0.96612 0.36685 0.0
O6 O 0.38986 0.98251 0.36355 0.0
C7 C 0.32568 0.00088 0.41229 0.0
C8 C 0.30702 0.11299 0.37836 0.0
C9 C 0.39959 0.01765 0.36883 0.0
O10 O 0.33071 0.03688 0.40421 0.0
O11 O 0.32865 0.96896 0.39932 0.0
O12 O 0.34272 0.07174 0.33615 0.0
O13 O 0.33074 0.01336 0.35211 0.0
Co14 Co 0.66713 0.92432 0.37008 0.0
O15 O 0.70173 0.89052 0.36739 0.0
O16 O 0.65864 0.86894 0.38032 0.0
C17 C 0.67115 0.95426 0.33354 0.0
O18 O 0.6263 0.9515 0.37433 0.0
Co19 Co 0.67612 0.01776 0.37125 0.0
O20 O 0.63276 0.01873 0.36902 0.0
C21 C 0.68886 0.9706 0.41496 0.0
C22 C 0.68609 0.86075 0.37555 0.0
C23 C 0.61617 0.98816 0.37245 0.0
O24 O 0.67883 0.93885 0.40426 0.0
O25 O 0.69123 0.00511 0.40459 0.0
O26 O 0.65941 0.91854 0.33543 0.0
O27 O 0.68289 0.96834 0.35312 0.0
Co28 Co 0.34171 0.92474 0.12548 0.0
O29 O 0.30375 0.89992 0.12767 0.0
O30 O 0.341 0.87456 0.10681 0.0
C31 C 0.34618 0.93766 0.16527 0.0
O32 O 0.38451 0.94247 0.12055 0.0
Co33 Co 0.34664 0.01557 0.13827 0.0
O34 O 0.38939 0.00401 0.13772 0.0
C35 C 0.32359 0.99269 0.09065 0.0
C36 C 0.31385 0.87114 0.11409 0.0
C37 C 0.4004 0.97268 0.12767 0.0
O38 O 0.32916 0.95559 0.09592 0.0
O39 O 0.32704 0.02174 0.10576 0.0
O40 O 0.35254 0.90216 0.15657 0.0
O41 O 0.33432 0.96287 0.15013 0.0
Co42 Co 0.66492 0.07741 0.12792 0.0
O43 O 0.69912 0.11119 0.13027 0.0
O44 O 0.65841 0.12807 0.11062 0.0
C45 C 0.66342 0.06005 0.16732 0.0
O46 O 0.62491 0.04988 0.12258 0.0
Co47 Co 0.67257 0.98612 0.13659 0.0
O48 O 0.62945 0.98406 0.13291 0.0
C49 C 0.69085 0.01901 0.09008 0.0
C50 C 0.68511 0.13727 0.1171 0.0
C51 C 0.61413 0.01407 0.12576 0.0
O52 O 0.68101 0.05335 0.09731 0.0
O53 O 0.69075 0.9872 0.1033 0.0
O54 O 0.65215 0.09398 0.15979 0.0
O55 O 0.678 0.03943 0.15128 0.0
Co56 Co 0.65761 0.91523 0.62875 0.0
O57 O 0.69106 0.88015 0.63199 0.0
O58 O 0.65024 0.86342 0.6128 0.0
C59 C 0.65615 0.93461 0.66782 0.0
O60 O 0.6183 0.9449 0.62277 0.0
Co61 Co 0.66852 0.00591 0.63531 0.0
O62 O 0.62539 0.01047 0.63261 0.0
C63 C 0.68663 0.96887 0.58999 0.0
C64 C 0.67682 0.85355 0.61946 0.0
C65 C 0.60882 0.98155 0.62585 0.0
O66 O 0.6746 0.93629 0.59773 0.0
O67 O 0.68804 0.00128 0.60262 0.0
O68 O 0.64402 0.90112 0.66068 0.0
O69 O 0.67166 0.95351 0.65161 0.0
Co70 Co 0.33601 0.07841 0.62465 0.0
O71 O 0.29715 0.10107 0.62387 0.0
O72 O 0.3359 0.12928 0.60652 0.0
C73 C 0.33632 0.06575 0.66465 0.0
O74 O 0.37968 0.06225 0.62264 0.0
Co75 Co 0.34135 0.98791 0.6375 0.0
O76 O 0.38401 0.99943 0.63825 0.0
C77 C 0.32207 0.01047 0.58873 0.0
C78 C 0.30786 0.13065 0.61135 0.0
C79 C 0.39537 0.03152 0.62949 0.0
O80 O 0.32726 0.04751 0.59428 0.0
O81 O 0.32423 0.98146 0.60404 0.0
O82 O 0.34292 0.1013 0.65628 0.0
O83 O 0.32674 0.03991 0.64882 0.0
Co84 Co 0.66884 0.07314 0.86972 0.0
O85 O 0.70893 0.09156 0.86845 0.0
O86 O 0.67146 0.13044 0.87884 0.0
C87 C 0.66891 0.04085 0.8338 0.0
O88 O 0.62406 0.06323 0.8721 0.0
Co89 Co 0.65767 0.98033 0.87242 0.0
O90 O 0.6159 0.99595 0.86883 0.0
C91 C 0.67947 0.02252 0.91544 0.0
C92 C 0.69971 0.12679 0.8755 0.0
C93 C 0.60659 0.0323 0.8705 0.0
O94 O 0.67526 0.05648 0.9045 0.0
O95 O 0.6756 0.98806 0.90532 0.0
O96 O 0.66478 0.07979 0.83478 0.0
O97 O 0.67596 0.02373 0.85407 0.0
Co98 Co 0.33631 0.95358 0.87223 0.0
O99 O 0.29962 0.92517 0.87418 0.0
O100 O 0.34211 0.89868 0.88531 0.0
C101 C 0.32969 0.97709 0.83426 0.0
O102 O 0.3787 0.97689 0.8716 0.0
Co103 Co 0.33058 0.04765 0.867 0.0
O104 O 0.37311 0.04221 0.86023 0.0
C105 C 0.31944 0.00991 0.91417 0.0
C106 C 0.31374 0.89451 0.88291 0.0
C107 C 0.3894 0.01169 0.86501 0.0
O108 O 0.32934 0.97596 0.90591 0.0
O109 O 0.31571 0.04127 0.90088 0.0
O110 O 0.33975 0.94066 0.83763 0.0
O111 O 0.32104 0.9955 0.85357 0.0
Co112 Co 0.83752 0.5587 0.37046 0.0
O113 O 0.79749 0.5779 0.36962 0.0
O114 O 0.83481 0.61433 0.3828 0.0
C115 C 0.83806 0.53291 0.33259 0.0
O116 O 0.88218 0.54751 0.3731 0.0
Co117 Co 0.84833 0.46546 0.36603 0.0
O118 O 0.88995 0.48213 0.36284 0.0
C119 C 0.8259 0.49918 0.41181 0.0
C120 C 0.80671 0.61192 0.37843 0.0
C121 C 0.89953 0.51723 0.36838 0.0
O122 O 0.83064 0.53543 0.40397 0.0
O123 O 0.82897 0.4676 0.39858 0.0
O124 O 0.84237 0.5714 0.33595 0.0
O125 O 0.83059 0.51277 0.35163 0.0
Co126 Co 0.16754 0.42557 0.37075 0.0
O127 O 0.20229 0.39197 0.36832 0.0
O128 O 0.15923 0.37029 0.38126 0.0
C129 C 0.17165 0.45495 0.33404 0.0
O130 O 0.12655 0.45238 0.37478 0.0
Co131 Co 0.17582 0.51925 0.37115 0.0
O132 O 0.13244 0.51967 0.36923 0.0
C133 C 0.18903 0.47308 0.41521 0.0
C134 C 0.1867 0.36218 0.37653 0.0
C135 C 0.11612 0.48887 0.37281 0.0
O136 O 0.1791 0.44091 0.40487 0.0
O137 O 0.19122 0.50729 0.40445 0.0
O138 O 0.16 0.41919 0.33609 0.0
O139 O 0.18315 0.46945 0.35359 0.0
Co140 Co 0.84642 0.42113 0.12525 0.0
O141 O 0.80827 0.39667 0.12747 0.0
O142 O 0.84595 0.36982 0.10782 0.0
C143 C 0.8503 0.43668 0.16478 0.0
O144 O 0.88943 0.43779 0.12046 0.0
Co145 Co 0.85179 0.5124 0.13527 0.0
O146 O 0.89461 0.50152 0.13435 0.0
C147 C 0.82941 0.48635 0.08816 0.0
C148 C 0.8186 0.36703 0.11467 0.0
C149 C 0.90545 0.46877 0.12595 0.0
O150 O 0.83462 0.44974 0.0947 0.0
O151 O 0.83282 0.51661 0.10238 0.0
O152 O 0.85658 0.40065 0.15687 0.0
O153 O 0.83873 0.46114 0.14901 0.0
Co154 Co 0.16648 0.57712 0.12824 0.0
O155 O 0.19834 0.61482 0.13106 0.0
O156 O 0.15724 0.6267 0.11066 0.0
C157 C 0.1653 0.55957 0.16757 0.0
O158 O 0.12842 0.54492 0.12256 0.0
Co159 Co 0.17979 0.48717 0.13681 0.0
O160 O 0.13671 0.48082 0.13481 0.0
C161 C 0.19766 0.52269 0.09099 0.0
C162 C 0.18313 0.63901 0.11751 0.0
C163 C 0.1196 0.50843 0.12693 0.0
O164 O 0.18473 0.55519 0.09791 0.0
O165 O 0.19958 0.49098 0.10421 0.0
O166 O 0.15211 0.5921 0.15993 0.0
O167 O 0.18145 0.54083 0.15173 0.0
Co168 Co 0.16322 0.43156 0.63078 0.0
O169 O 0.19666 0.39654 0.63416 0.0
O170 O 0.15544 0.37899 0.61586 0.0
C171 C 0.16306 0.45308 0.66946 0.0
O172 O 0.12378 0.46093 0.62493 0.0
Co173 Co 0.17419 0.52224 0.63503 0.0
O174 O 0.13093 0.52648 0.63447 0.0
C175 C 0.19116 0.48265 0.59029 0.0
C176 C 0.18218 0.3694 0.62223 0.0
C177 C 0.11416 0.49747 0.62821 0.0
O178 O 0.17938 0.45066 0.59905 0.0
O179 O 0.19283 0.5159 0.60209 0.0
O180 O 0.15052 0.41937 0.66321 0.0
O181 O 0.17811 0.47105 0.65259 0.0
Co182 Co 0.83693 0.56721 0.62599 0.0
O183 O 0.79691 0.5857 0.62696 0.0
O184 O 0.83303 0.61887 0.60896 0.0
C185 C 0.84093 0.55194 0.66557 0.0
O186 O 0.88119 0.55589 0.62235 0.0
Co187 Co 0.84717 0.47632 0.63613 0.0
O188 O 0.88911 0.49216 0.63564 0.0
C189 C 0.82494 0.50048 0.58858 0.0
C190 C 0.80523 0.61694 0.61461 0.0
C191 C 0.89854 0.52607 0.62778 0.0
O192 O 0.82848 0.53746 0.59509 0.0
O193 O 0.82902 0.4706 0.60301 0.0
O194 O 0.84433 0.58877 0.65787 0.0
O195 O 0.83145 0.5263 0.64956 0.0
Co196 Co 0.17571 0.58326 0.87343 0.0
O197 O 0.21101 0.61548 0.87062 0.0
O198 O 0.16896 0.63809 0.88533 0.0
C199 C 0.17788 0.55541 0.83618 0.0
O200 O 0.13436 0.55827 0.87813 0.0
Co201 Co 0.18168 0.48926 0.87204 0.0
O202 O 0.13825 0.49093 0.87147 0.0
C203 C 0.19723 0.53243 0.91662 0.0
C204 C 0.1964 0.64528 0.88007 0.0
C205 C 0.12296 0.52248 0.8759 0.0
O206 O 0.1882 0.56571 0.90696 0.0
O207 O 0.19795 0.49857 0.90535 0.0
O208 O 0.16701 0.59156 0.83905 0.0
O209 O 0.18972 0.53956 0.85522 0.0
Co210 Co 0.85005 0.42858 0.87121 0.0
O211 O 0.81269 0.4004 0.87002 0.0
O212 O 0.85386 0.37422 0.88433 0.0
C213 C 0.8484 0.45324 0.83311 0.0
O214 O 0.89301 0.44776 0.8745 0.0
Co215 Co 0.85353 0.5223 0.86571 0.0
O216 O 0.8965 0.51306 0.86299 0.0
C217 C 0.83282 0.48694 0.91173 0.0
C218 C 0.8261 0.36939 0.87939 0.0
C219 C 0.90833 0.47975 0.8695 0.0
O220 O 0.84006 0.45122 0.9043 0.0
O221 O 0.83419 0.51848 0.89826 0.0
O222 O 0.85685 0.41614 0.83691 0.0
O223 O 0.83885 0.47248 0.85188 0.0
H224 H 0.32434 0.05878 0.44811 0.0
H225 H 0.31022 0.93036 0.43531 0.0
H226 H 0.3026 0.91979 0.479 0.0
H227 H 0.36576 0.0476 0.50026 0.0
H228 H 0.35098 0.09129 0.51567 0.0
H229 H 0.3515 0.0898 0.48312 0.0
H230 H 0.29526 0.10255 0.4821 0.0
H231 H 0.29458 0.10421 0.51473 0.0
H232 H 0.27111 0.06937 0.49871 0.0
H233 H 0.30218 0.92172 0.52457 0.0
H234 H 0.30823 0.93669 0.56817 0.0
H235 H 0.32177 0.06375 0.5508 0.0
C236 C 0.319 0.02857 0.45437 0.0
C237 C 0.31789 0.99547 0.43817 0.0
C238 C 0.31122 0.95631 0.44728 0.0
C239 C 0.30675 0.94996 0.47211 0.0
C240 C 0.30875 0.98306 0.48763 0.0
C241 C 0.31447 0.02167 0.4791 0.0
C242 C 0.31758 0.05157 0.4997 0.0
C243 C 0.34827 0.07119 0.49968 0.0
C244 C 0.29317 0.08383 0.49875 0.0
C245 C 0.31362 0.02352 0.52113 0.0
C246 C 0.30827 0.98419 0.51386 0.0
C247 C 0.30588 0.95254 0.53051 0.0
C248 C 0.30941 0.96131 0.55524 0.0
C249 C 0.31536 0.00139 0.56302 0.0
C250 C 0.31692 0.03281 0.54562 0.0
H251 H 0.68316 0.02793 0.55478 0.0
H252 H 0.71425 0.90576 0.56865 0.0
H253 H 0.72451 0.89659 0.52523 0.0
H254 H 0.64468 0.00533 0.50361 0.0
H255 H 0.65289 0.05078 0.48682 0.0
H256 H 0.65357 0.05159 0.51937 0.0
H257 H 0.70717 0.07786 0.51877 0.0
H258 H 0.70657 0.07763 0.48612 0.0
H259 H 0.73482 0.05021 0.50216 0.0
H260 H 0.72273 0.89545 0.48069 0.0
H261 H 0.71222 0.90438 0.43718 0.0
H262 H 0.68343 0.02771 0.45088 0.0
C263 C 0.69331 1.0 0.54872 0.0
C264 C 0.69825 0.9677 0.56503 0.0
C265 C 0.71051 0.93094 0.55642 0.0
C266 C 0.71646 0.92546 0.5318 0.0
C267 C 0.71017 0.9571 0.51595 0.0
C268 C 0.69925 0.99391 0.524 0.0
C269 C 0.6915 0.02117 0.50278 0.0
C270 C 0.65872 0.03288 0.50318 0.0
C271 C 0.7112 0.05896 0.50244 0.0
C272 C 0.69851 0.99323 0.4817 0.0
C273 C 0.70953 0.95659 0.48977 0.0
C274 C 0.71485 0.92436 0.47405 0.0
C275 C 0.70864 0.9296 0.44941 0.0
C276 C 0.69739 0.96685 0.44068 0.0
C277 C 0.69273 0.99926 0.45701 0.0
H278 H 0.32474 0.94103 0.05195 0.0
H279 H 0.30503 0.06564 0.07162 0.0
H280 H 0.29701 0.08194 0.02842 0.0
H281 H 0.36645 0.96369 0.00145 0.0
H282 H 0.35427 0.92119 0.98359 0.0
H283 H 0.35421 0.91787 0.01609 0.0
H284 H 0.29881 0.89982 0.01566 0.0
H285 H 0.2987 0.90281 0.98306 0.0
H286 H 0.2732 0.93291 0.00044 0.0
H287 H 0.29571 0.08592 0.98294 0.0
H288 H 0.30193 0.07795 0.9389 0.0
H289 H 0.32383 0.95084 0.94923 0.0
C290 C 0.31804 0.97158 0.04735 0.0
C291 C 0.31532 0.00202 0.06528 0.0
C292 C 0.3071 0.04176 0.05827 0.0
C293 C 0.30244 0.05128 0.03377 0.0
C294 C 0.30606 0.02071 0.01656 0.0
C295 C 0.31358 0.98163 0.02307 0.0
C296 C 0.31861 0.95513 0.00105 0.0
C297 C 0.35026 0.93852 0.00053 0.0
C298 C 0.29597 0.92063 -0.0 0.0
C299 C 0.3135 0.98567 0.98107 0.0
C300 C 0.30588 0.02316 0.99037 0.0
C301 C 0.30136 0.0566 0.97545 0.0
C302 C 0.30501 0.05173 0.95041 0.0
C303 C 0.31342 0.01373 0.94048 0.0
C304 C 0.31729 0.98025 0.95613 0.0
H305 H 0.66745 0.96786 0.95166 0.0
H306 H 0.71322 0.08042 0.93678 0.0
H307 H 0.72827 0.0846 0.97963 0.0
H308 H 0.63757 0.99944 0.00657 0.0
H309 H 0.64031 0.95097 0.02149 0.0
H310 H 0.63713 0.9533 0.98907 0.0
H311 H 0.68503 0.91124 0.98484 0.0
H312 H 0.68848 0.90911 0.01735 0.0
H313 H 0.71823 0.9287 -0.00073 0.0
H314 H 0.73416 0.08077 0.02403 0.0
H315 H 0.72666 0.07257 0.06799 0.0
H316 H 0.67618 0.96346 0.05518 0.0
C317 C 0.68121 0.99285 0.95737 0.0
C318 C 0.68942 0.02365 0.94091 0.0
C319 C 0.70672 0.05651 0.94912 0.0
C320 C 0.71559 0.05894 0.97336 0.0
C321 C 0.70689 0.02837 0.98921 0.0
C322 C 0.6899 0.99607 0.98165 0.0
C323 C 0.68064 0.96997 0.00296 0.0
C324 C 0.64692 0.96836 0.00515 0.0
C325 C 0.69389 0.92721 0.00098 0.0
C326 C 0.69431 0.99338 0.02373 0.0
C327 C 0.70988 0.02647 0.01526 0.0
C328 C 0.72245 0.05465 0.03088 0.0
C329 C 0.71808 0.04979 0.05579 0.0
C330 C 0.70121 0.01718 0.06484 0.0
C331 C 0.68996 0.98789 0.04869 0.0
H332 H 0.82451 0.55564 0.5516 0.0
H333 H 0.81075 0.42787 0.56679 0.0
H334 H 0.80402 0.41515 0.523 0.0
H335 H 0.77314 0.56429 0.50006 0.0
H336 H 0.79723 0.5982 0.48393 0.0
H337 H 0.79699 0.59798 0.51658 0.0
H338 H 0.85316 0.58471 0.51683 0.0
H339 H 0.85357 0.58473 0.48427 0.0
H340 H 0.86769 0.54163 0.50066 0.0
H341 H 0.80335 0.41553 0.47748 0.0
H342 H 0.81019 0.42804 0.43392 0.0
H343 H 0.82551 0.55564 0.44862 0.0
C344 C 0.81943 0.52504 0.54589 0.0
C345 C 0.81797 0.49275 0.56275 0.0
C346 C 0.81184 0.45313 0.55429 0.0
C347 C 0.8079 0.44565 0.52945 0.0
C348 C 0.8101 0.47811 0.51335 0.0
C349 C 0.81568 0.51704 0.52126 0.0
C350 C 0.81954 0.54605 0.50022 0.0
C351 C 0.79527 0.57855 0.5002 0.0
C352 C 0.85031 0.56539 0.50052 0.0
C353 C 0.81605 0.51716 0.47914 0.0
C354 C 0.8102 0.47825 0.4871 0.0
C355 C 0.80762 0.44594 0.47105 0.0
C356 C 0.81164 0.45342 0.44629 0.0
C357 C 0.81843 0.4929 0.43772 0.0
C358 C 0.82008 0.52522 0.45446 0.0
H359 H 0.18726 0.53939 0.55374 0.0
H360 H 0.21769 0.41773 0.57001 0.0
H361 H 0.22637 0.40527 0.52667 0.0
H362 H 0.14698 0.5141 0.50399 0.0
H363 H 0.15517 0.55814 0.4859 0.0
H364 H 0.15684 0.56122 0.51838 0.0
H365 H 0.2107 0.58622 0.51608 0.0
H366 H 0.20909 0.58377 0.48348 0.0
H367 H 0.23752 0.55685 0.4996 0.0
H368 H 0.22301 0.401 0.48219 0.0
H369 H 0.21164 0.40741 0.43865 0.0
H370 H 0.1847 0.53221 0.44999 0.0
C371 C 0.19695 0.51086 0.54818 0.0
C372 C 0.2021 0.47965 0.56518 0.0
C373 C 0.21377 0.44209 0.55724 0.0
C374 C 0.21881 0.43473 0.53266 0.0
C375 C 0.21225 0.46532 0.51618 0.0
C376 C 0.20202 0.5029 0.52352 0.0
C377 C 0.19392 0.52885 0.50181 0.0
C378 C 0.1613 0.54128 0.50258 0.0
C379 C 0.21401 0.56613 0.50015 0.0
C380 C 0.19998 0.49932 0.48132 0.0
C381 C 0.21078 0.46299 0.49006 0.0
C382 C 0.2153 0.42963 0.47501 0.0
C383 C 0.20859 0.43344 0.45035 0.0
C384 C 0.19766 0.47041 0.44095 0.0
C385 C 0.19371 0.5039 0.45662 0.0
H386 H 0.83316 0.43057 0.94857 0.0
H387 H 0.81404 0.55714 0.93345 0.0
H388 H 0.80559 0.56927 0.97686 0.0
H389 H 0.77972 0.4191 -0.00071 0.0
H390 H 0.80434 0.38663 0.01601 0.0
H391 H 0.80512 0.38663 0.98337 0.0
H392 H 0.86082 0.40293 0.98427 0.0
H393 H 0.86019 0.40311 0.01682 0.0
H394 H 0.87347 0.44686 0.00064 0.0
H395 H 0.80542 0.56984 0.0224 0.0
H396 H 0.81241 0.55781 0.06623 0.0
H397 H 0.83028 0.43081 0.0514 0.0
C398 C 0.82652 0.46063 0.95427 0.0
C399 C 0.8243 0.49282 0.93747 0.0
C400 C 0.81593 0.53185 0.94586 0.0
C401 C 0.81096 0.53911 0.97054 0.0
C402 C 0.81412 0.50698 0.98667 0.0
C403 C 0.82141 0.46841 0.97885 0.0
C404 C 0.8255 0.43984 4e-05 0.0
C405 C 0.80228 0.40605 -0.00035 0.0
C406 C 0.85685 0.42218 0.00046 0.0
C407 C 0.82041 0.46872 0.02095 0.0
C408 C 0.8136 0.50723 0.01292 0.0
C409 C 0.81021 0.53962 0.02894 0.0
C410 C 0.81428 0.53253 0.05381 0.0
C411 C 0.82169 0.49335 0.06238 0.0
C412 C 0.82418 0.46105 0.04562 0.0
H413 H 0.18985 0.46659 0.05483 0.0
H414 H 0.23075 0.58178 0.07135 0.0
H415 H 0.241 0.59263 0.028 0.0
H416 H 0.2385 0.4401 0.00074 0.0
H417 H 0.20784 0.41856 0.9846 0.0
H418 H 0.2092 0.41577 0.0172 0.0
H419 H 0.15807 0.4502 0.01949 0.0
H420 H 0.15671 0.45371 0.98702 0.0
H421 H 0.15263 0.49878 0.00518 0.0
H422 H 0.23789 0.59767 0.98348 0.0
H423 H 0.2256 0.59358 0.93997 0.0
H424 H 0.18827 0.47418 0.95119 0.0
C425 C 0.20223 0.49304 0.04932 0.0
C426 C 0.20992 0.52316 0.06631 0.0
C427 C 0.22494 0.55832 0.0585 0.0
C428 C 0.23088 0.56469 0.03395 0.0
C429 C 0.2218 0.53545 0.01741 0.0
C430 C 0.20823 0.49995 0.0247 0.0
C431 C 0.19784 0.47572 0.00297 0.0
C432 C 0.21434 0.43513 0.00128 0.0
C433 C 0.16434 0.46925 0.00372 0.0
C434 C 0.20655 0.50396 0.98252 0.0
C435 C 0.22052 0.5381 0.99128 0.0
C436 C 0.22775 0.57058 0.97627 0.0
C437 C 0.22052 0.56815 0.95165 0.0
C438 C 0.20645 0.53335 0.94224 0.0
C439 C 0.19978 0.50065 0.95784 0.0
H440 H 0.56727 0.94002 0.36178 0.0
H441 H 0.59259 0.05814 0.38939 0.0
H442 H 0.54073 0.07859 0.39134 0.0
H443 H 0.5087 0.97627 0.32411 0.0
H444 H 0.48457 0.93409 0.32988 0.0
H445 H 0.52381 0.9273 0.33164 0.0
H446 H 0.5188 0.90018 0.37547 0.0
H447 H 0.47952 0.90657 0.37375 0.0
H448 H 0.49992 0.93037 0.39783 0.0
H449 H 0.48593 0.08803 0.38908 0.0
H450 H 0.43192 0.08373 0.38423 0.0
H451 H 0.44159 0.96035 0.35783 0.0
C452 C 0.56183 0.9699 0.36856 0.0
C453 C 0.58422 0.99738 0.37537 0.0
C454 C 0.57603 0.03649 0.38386 0.0
C455 C 0.54652 0.04852 0.38509 0.0
C456 C 0.52506 0.02127 0.37775 0.0
C457 C 0.53222 0.98269 0.36977 0.0
C458 C 0.50467 0.95985 0.36246 0.0
C459 C 0.5055 0.94873 0.33541 0.0
C460 C 0.50048 0.922 0.37833 0.0
C461 C 0.48117 0.99159 0.3676 0.0
C462 C 0.49339 0.02684 0.37639 0.0
C463 C 0.47606 0.06048 0.38228 0.0
C464 C 0.44536 0.05785 0.37938 0.0
C465 C 0.43222 0.02181 0.37069 0.0
C466 C 0.45067 0.98847 0.3646 0.0
H467 H 0.44058 0.02911 0.14302 0.0
H468 H 0.43368 0.91599 0.10314 0.0
H469 H 0.48736 0.91725 0.096 0.0
H470 H 0.49616 0.07568 0.10574 0.0
H471 H 0.51481 0.09887 0.13097 0.0
H472 H 0.47584 0.0896 0.13252 0.0
H473 H 0.48304 0.04833 0.17201 0.0
H474 H 0.52197 0.05777 0.17071 0.0
H475 H 0.50856 0.00646 0.1723 0.0
H476 H 0.54187 0.92949 0.09467 0.0
H477 H 0.59349 0.95057 0.10008 0.0
H478 H 0.56484 0.05691 0.13977 0.0
C479 C 0.4502 0.00456 0.13267 0.0
C480 C 0.43272 0.97241 0.12358 0.0
C481 C 0.44647 0.9409 0.11031 0.0
C482 C 0.47694 0.94146 0.10609 0.0
C483 C 0.49336 0.97377 0.1152 0.0
C484 C 0.48047 0.00467 0.12828 0.0
C485 C 0.50313 0.03527 0.13676 0.0
C486 C 0.49712 0.07735 0.12584 0.0
C487 C 0.50424 0.03704 0.16459 0.0
C488 C 0.53093 0.01675 0.12643 0.0
C489 C 0.52474 0.98125 0.11407 0.0
C490 C 0.5469 0.95741 0.10408 0.0
C491 C 0.57612 0.96965 0.10722 0.0
C492 C 0.58302 0.0056 0.12004 0.0
C493 C 0.56009 0.02984 0.12939 0.0
H494 H 0.55823 0.93809 0.63623 0.0
H495 H 0.58935 0.05096 0.60527 0.0
H496 H 0.53835 0.0755 0.60169 0.0
H497 H 0.48973 0.93116 0.60021 0.0
H498 H 0.46877 0.91152 0.62529 0.0
H499 H 0.50759 0.90115 0.62321 0.0
H500 H 0.515 0.93131 0.6661 0.0
H501 H 0.47629 0.94221 0.66818 0.0
H502 H 0.50272 0.98227 0.67228 0.0
H503 H 0.48413 0.09009 0.60389 0.0
H504 H 0.43033 0.09206 0.61046 0.0
H505 H 0.43438 0.97065 0.64083 0.0
C506 C 0.55417 0.96747 0.62813 0.0
C507 C 0.57775 0.99248 0.62086 0.0
C508 C 0.57161 0.03125 0.61093 0.0
C509 C 0.5427 0.04551 0.60881 0.0
C510 C 0.51996 0.02078 0.61679 0.0
C511 C 0.52527 0.98248 0.62612 0.0
C512 C 0.49687 0.96306 0.63455 0.0
C513 C 0.49036 0.92444 0.61994 0.0
C514 C 0.49779 0.9542 0.6619 0.0
C515 C 0.47501 0.99653 0.62872 0.0
C516 C 0.48872 0.0295 0.61839 0.0
C517 C 0.47308 0.0643 0.61184 0.0
C518 C 0.44251 0.06524 0.61573 0.0
C519 C 0.4279 0.03165 0.62617 0.0
C520 C 0.44464 0.997 0.63279 0.0
H521 H 0.56396 0.97723 0.88317 0.0
H522 H 0.57558 0.0997 0.85607 0.0
H523 H 0.52167 0.10606 0.85122 0.0
H524 H 0.50525 0.94807 0.8444 0.0
H525 H 0.48553 0.91977 0.86709 0.0
H526 H 0.52487 0.92479 0.86914 0.0
H527 H 0.51992 0.95479 0.91227 0.0
H528 H 0.48056 0.94945 0.91048 0.0
H529 H 0.49649 0.99818 0.91713 0.0
H530 H 0.46764 0.09753 0.84668 0.0
H531 H 0.41575 0.07925 0.84696 0.0
H532 H 0.4372 0.96245 0.8791 0.0
C533 C 0.55517 0.00556 0.87636 0.0
C534 C 0.57411 0.03805 0.86989 0.0
C535 C 0.56163 0.07459 0.86127 0.0
C536 C 0.53104 0.07832 0.85832 0.0
C537 C 0.51316 0.04544 0.86441 0.0
C538 C 0.52465 0.00999 0.87365 0.0
C539 C 0.50038 0.97955 0.87915 0.0
C540 C 0.50425 0.94075 0.86404 0.0
C541 C 0.49927 0.96993 0.90637 0.0
C542 C 0.47336 0.00323 0.87118 0.0
C543 C 0.48151 0.04101 0.86261 0.0
C544 C 0.46099 0.06829 0.85366 0.0
C545 C 0.43134 0.05732 0.85393 0.0
C546 C 0.42184 0.01933 0.86336 0.0
C547 C 0.44343 0.99168 0.87185 0.0
H548 H 0.94182 0.46092 0.35638 0.0
H549 H 0.93149 0.58265 0.38522 0.0
H550 H 0.98544 0.58694 0.3906 0.0
H551 H 0.99945 0.42885 0.39614 0.0
H552 H 0.01865 0.40001 0.37335 0.0
H553 H 0.97941 0.40662 0.37132 0.0
H554 H 0.98496 0.43679 0.32827 0.0
H555 H 0.0242 0.42993 0.33006 0.0
H556 H 0.00912 0.47932 0.32357 0.0
H557 H 0.04025 0.57763 0.39317 0.0
H558 H 0.09222 0.55754 0.39117 0.0
H559 H 0.06751 0.441 0.36097 0.0
C560 C 0.95075 0.48868 0.36379 0.0
C561 C 0.93213 0.52155 0.37042 0.0
C562 C 0.94507 0.55715 0.37994 0.0
C563 C 0.97573 0.55975 0.38314 0.0
C564 C 0.99322 0.52655 0.37673 0.0
C565 C 0.98121 0.49177 0.36711 0.0
C566 C 0.00489 0.46047 0.3615 0.0
C567 C 1.00032 0.4217 0.37648 0.0
C568 C 0.00584 0.45109 0.33423 0.0
C569 C 0.03226 0.483 0.36956 0.0
C570 C 0.02489 0.52105 0.37828 0.0
C571 C 0.04619 0.54796 0.38637 0.0
C572 C 0.07575 0.53615 0.38511 0.0
C573 C 0.08413 0.49761 0.37588 0.0
C574 C 0.06191 0.47041 0.36835 0.0
H575 H 0.06953 0.55641 0.12808 0.0
H576 H 0.09956 0.43299 0.11626 0.0
H577 H 0.04834 0.4102 0.11227 0.0
H578 H 0.00897 0.5307 0.16477 0.0
H579 H 0.98468 0.5692 0.15302 0.0
H580 H 0.02382 0.57702 0.15253 0.0
H581 H 0.0219 0.58937 0.10621 0.0
H582 H 0.98268 0.58175 0.10659 0.0
H583 H 0.00552 0.55172 0.08681 0.0
H584 H 0.99387 0.3995 0.11183 0.0
H585 H 0.93974 0.40209 0.11566 0.0
H586 H 0.94473 0.53178 0.12865 0.0
C587 C 0.06529 0.52479 0.12416 0.0
C588 C 0.08862 0.49657 0.12242 0.0
C589 C 0.0821 0.45523 0.11776 0.0
C590 C 0.05305 0.44192 0.11537 0.0
C591 C 0.03054 0.47022 0.11769 0.0
C592 C 0.03624 0.5108 0.12195 0.0
C593 C 0.00783 0.53435 0.12511 0.0
C594 C 0.00624 0.55396 0.15036 0.0
C595 C 1.00428 0.56618 0.10498 0.0
C596 C 0.98549 0.50052 0.12246 0.0
C597 C 0.99901 0.46386 0.11789 0.0
C598 C 0.98296 0.42811 0.11525 0.0
C599 C 0.95221 0.42986 0.11746 0.0
C600 C 0.93785 0.46703 0.1225 0.0
C601 C 0.9549 0.50277 0.12484 0.0
H602 H 0.93988 0.46553 0.63023 0.0
H603 H 0.93082 0.59516 0.61845 0.0
H604 H 0.98493 0.60072 0.61492 0.0
H605 H 1.0035 0.46903 0.66666 0.0
H606 H 0.01975 0.42376 0.65415 0.0
H607 H 0.98041 0.42971 0.65439 0.0
H608 H 0.97894 0.41838 0.60799 0.0
H609 H 0.01833 0.4124 0.60758 0.0
H610 H 1.00106 0.44986 0.58852 0.0
H611 H 0.03986 0.59253 0.61498 0.0
H612 H 0.09165 0.57211 0.61835 0.0
H613 H 0.06524 0.44707 0.62957 0.0
C614 C 0.94912 0.4952 0.62679 0.0
C615 C 0.93092 0.53004 0.62469 0.0
C616 C 0.94415 0.56807 0.62008 0.0
C617 C 0.97488 0.57147 0.61804 0.0
C618 C 0.99204 0.53652 0.62041 0.0
C619 C 0.97962 0.49907 0.62456 0.0
C620 C 1.00296 0.46631 0.62697 0.0
C621 C 1.00156 0.44602 0.65203 0.0
C622 C 1.00015 0.43488 0.60654 0.0
C623 C 0.03065 0.4913 0.62412 0.0
C624 C 0.02376 0.53168 0.6202 0.0
C625 C 0.04546 0.561 0.61788 0.0
C626 C 0.07489 0.54898 0.61992 0.0
C627 C 0.08267 0.50787 0.62425 0.0
C628 C 0.06012 0.47858 0.62601 0.0
H629 H 0.07408 0.56362 0.85767 0.0
H630 H 0.10028 0.46304 0.90347 0.0
H631 H 0.04866 0.44155 0.90698 0.0
H632 H 1.00325 0.58489 0.88838 0.0
H633 H 0.98435 0.596 0.86045 0.0
H634 H 0.0232 0.60563 0.86304 0.0
H635 H 0.03258 0.56095 0.82526 0.0
H636 H 0.99382 0.55071 0.82277 0.0
H637 H 0.01961 0.50934 0.82496 0.0
H638 H 0.99496 0.42716 0.90313 0.0
H639 H 0.94159 0.42472 0.89497 0.0
H640 H 0.94895 0.5344 0.85191 0.0
C641 C 0.06874 0.5378 0.86894 0.0
C642 C 0.09121 0.51519 0.88048 0.0
C643 C 0.08343 0.48087 0.89454 0.0
C644 C 0.05415 0.46832 0.89661 0.0
C645 C 0.03261 0.49027 0.88445 0.0
C646 C 0.03936 0.52454 0.87109 0.0
C647 C 0.01184 0.54148 0.85914 0.0
C648 C 0.00527 0.58456 0.86831 0.0
C649 C 0.01464 0.54056 0.83139 0.0
C650 C 0.98882 0.51143 0.86791 0.0
C651 C 1.00136 0.482 0.88235 0.0
C652 C 0.9848 0.45027 0.892 0.0
C653 C 0.95448 0.44896 0.88714 0.0
C654 C 0.94087 0.47934 0.87288 0.0
C655 C 0.95852 0.51078 0.86303 0.0
H656 H 0.24498 0.34069 0.37283 0.0
H657 H 0.15871 0.29106 0.38824 0.0
H658 H 0.18086 0.22288 0.39276 0.0
H659 H 0.27174 0.2581 0.33787 0.0
H660 H 0.30876 0.2607 0.34941 0.0
H661 H 0.28634 0.30571 0.34841 0.0
H662 H 0.29463 0.31658 0.39434 0.0
H663 H 0.31705 0.27152 0.3955 0.0
H664 H 0.28569 0.27647 0.41524 0.0
H665 H 0.21186 0.15954 0.39288 0.0
H666 H 0.24932 0.1057 0.38958 0.0
H667 H 0.31634 0.19611 0.3758 0.0
C668 C 0.23072 0.31554 0.37731 0.0
C669 C 0.19999 0.3213 0.38015 0.0
C670 C 0.18223 0.28751 0.38602 0.0
C671 C 0.19465 0.24865 0.38863 0.0
C672 C 0.22496 0.24404 0.38558 0.0
C673 C 0.24281 0.27661 0.3802 0.0
C674 C 0.27467 0.26329 0.3774 0.0
C675 C 0.28604 0.27249 0.35175 0.0
C676 C 0.29416 0.28315 0.39678 0.0
C677 C 0.27194 0.21795 0.38162 0.0
C678 C 0.24302 0.2076 0.38632 0.0
C679 C 0.23458 0.16741 0.38951 0.0
C680 C 0.25606 0.137 0.38758 0.0
C681 C 0.28584 0.14665 0.3827 0.0
C682 C 0.29391 0.18783 0.38005 0.0
H683 H 0.74429 0.83919 0.37148 0.0
H684 H 0.65822 0.78977 0.38786 0.0
H685 H 0.68049 0.72173 0.3928 0.0
H686 H 0.77077 0.75571 0.33703 0.0
H687 H 0.8079 0.75876 0.34827 0.0
H688 H 0.78539 0.80366 0.34698 0.0
H689 H 0.79416 0.81582 0.39274 0.0
H690 H 0.81666 0.77086 0.39419 0.0
H691 H 0.7855 0.77628 0.4141 0.0
H692 H 0.71163 0.65846 0.39331 0.0
H693 H 0.74916 0.60465 0.39021 0.0
H694 H 0.81587 0.69495 0.37521 0.0
C695 C 0.73009 0.81412 0.37624 0.0
C696 C 0.69939 0.81989 0.37924 0.0
C697 C 0.68172 0.78621 0.38549 0.0
C698 C 0.69422 0.74744 0.38835 0.0
C699 C 0.7245 0.74282 0.38515 0.0
C700 C 0.74225 0.77529 0.37936 0.0
C701 C 0.77411 0.762 0.37648 0.0
C702 C 0.78518 0.77054 0.35065 0.0
C703 C 0.79376 0.78246 0.39551 0.0
C704 C 0.77149 0.71678 0.38116 0.0
C705 C 0.74263 0.70646 0.38612 0.0
C706 C 0.7343 0.66631 0.38974 0.0
C707 C 0.75582 0.63593 0.38792 0.0
C708 C 0.78552 0.64557 0.38276 0.0
C709 C 0.79349 0.6867 0.3797 0.0
H710 H 0.18989 0.70895 0.14267 0.0
H711 H 0.20942 0.65145 0.07412 0.0
H712 H 0.24426 0.70673 0.06418 0.0
H713 H 0.19557 0.8163 0.11972 0.0
H714 H 0.21136 0.83318 0.1479 0.0
H715 H 0.18549 0.79187 0.14771 0.0
H716 H 0.22362 0.74691 0.17001 0.0
H717 H 0.24983 0.78763 0.16978 0.0
H718 H 0.25943 0.73928 0.15675 0.0
H719 H 0.28304 0.76278 0.06526 0.0
H720 H 0.31659 0.82016 0.07449 0.0
H721 H 0.26868 0.84264 0.14103 0.0
C722 C 0.20056 0.70912 0.12513 0.0
C723 C 0.19665 0.67672 0.10887 0.0
C724 C 0.21173 0.67674 0.08648 0.0
C725 C 0.23168 0.70781 0.0808 0.0
C726 C 0.23587 0.73885 0.09761 0.0
C727 C 0.22007 0.74028 0.11904 0.0
C728 C 0.2294 0.7758 0.13453 0.0
C729 C 0.20394 0.80609 0.13764 0.0
C730 C 0.24128 0.76152 0.15921 0.0
C731 C 0.25361 0.7933 0.11895 0.0
C732 C 0.25723 0.77161 0.09776 0.0
C733 C 0.27993 0.78053 0.08154 0.0
C734 C 0.29902 0.81287 0.08698 0.0
C735 C 0.29498 0.83601 0.10829 0.0
C736 C 0.27196 0.82593 0.12435 0.0
H737 H 0.68977 0.20994 0.14006 0.0
H738 H 0.71744 0.14408 0.07625 0.0
H739 H 0.75363 0.19787 0.06689 0.0
H740 H 0.69923 0.31419 0.11353 0.0
H741 H 0.71193 0.33426 0.14203 0.0
H742 H 0.68587 0.29319 0.14158 0.0
H743 H 0.72096 0.25062 0.16847 0.0
H744 H 0.74734 0.29114 0.16861 0.0
H745 H 0.75807 0.24138 0.15839 0.0
H746 H 0.79187 0.2539 0.06827 0.0
H747 H 0.82471 0.31191 0.07751 0.0
H748 H 0.77004 0.34253 0.13922 0.0
C749 C 0.70262 0.20789 0.12359 0.0
C750 C 0.70052 0.1736 0.1085 0.0
C751 C 0.71842 0.17075 0.08764 0.0
C752 C 0.7391 0.20101 0.0823 0.0
C753 C 0.74135 0.23404 0.09794 0.0
C754 C 0.7231 0.2381 0.11787 0.0
C755 C 0.73093 0.27534 0.13251 0.0
C756 C 0.70548 0.30607 0.13239 0.0
C757 C 0.73986 0.26391 0.15852 0.0
C758 C 0.75696 0.29086 0.11817 0.0
C759 C 0.76276 0.26667 0.09832 0.0
C760 C 0.78714 0.27354 0.08348 0.0
C761 C 0.80579 0.30631 0.08893 0.0
C762 C 0.79974 0.33186 0.1089 0.0
C763 C 0.77496 0.32391 0.12357 0.0
H764 H 0.73545 0.83715 0.61994 0.0
H765 H 0.65093 0.78229 0.60456 0.0
H766 H 0.67582 0.71646 0.59708 0.0
H767 H 0.77792 0.77863 0.57457 0.0
H768 H 0.80975 0.77562 0.59394 0.0
H769 H 0.78549 0.81878 0.5958 0.0
H770 H 0.77853 0.80594 0.64174 0.0
H771 H 0.80271 0.76285 0.64003 0.0
H772 H 0.76605 0.75697 0.65191 0.0
H773 H 0.7094 0.65542 0.59649 0.0
H774 H 0.74876 0.60438 0.60128 0.0
H775 H 0.81195 0.69984 0.61479 0.0
C776 C 0.72215 0.81142 0.6147 0.0
C777 C 0.69119 0.81471 0.61293 0.0
C778 C 0.67464 0.78042 0.60594 0.0
C779 C 0.68863 0.743 0.60165 0.0
C780 C 0.71919 0.7407 0.60396 0.0
C781 C 0.73577 0.77419 0.61003 0.0
C782 C 0.7681 0.7635 0.6124 0.0
C783 C 0.78639 0.78544 0.59302 0.0
C784 C 0.7795 0.77286 0.63804 0.0
C785 C 0.76711 0.7183 0.60767 0.0
C786 C 0.73869 0.70582 0.60268 0.0
C787 C 0.73177 0.665 0.59984 0.0
C788 C 0.75427 0.63624 0.60263 0.0
C789 C 0.78343 0.64831 0.60797 0.0
C790 C 0.79003 0.68993 0.60998 0.0
H791 H 0.23935 0.34853 0.63019 0.0
H792 H 0.1583 0.30292 0.59908 0.0
H793 H 0.18379 0.23875 0.58848 0.0
H794 H 0.28938 0.3032 0.58625 0.0
H795 H 0.31703 0.29241 0.60873 0.0
H796 H 0.29281 0.33523 0.61254 0.0
H797 H 0.27671 0.30804 0.65453 0.0
H798 H 0.30109 0.26547 0.65097 0.0
H799 H 0.26262 0.25716 0.65696 0.0
H800 H 0.2173 0.17758 0.58476 0.0
H801 H 0.2554 0.12436 0.58872 0.0
H802 H 0.31514 0.21155 0.62034 0.0
C803 C 0.22688 0.32521 0.621 0.0
C804 C 0.19673 0.3307 0.61551 0.0
C805 C 0.18135 0.29936 0.60349 0.0
C806 C 0.19572 0.26294 0.59732 0.0
C807 C 0.2255 0.25861 0.60305 0.0
C808 C 0.24087 0.28902 0.61458 0.0
C809 C 0.27232 0.27643 0.61977 0.0
C810 C 0.29417 0.30343 0.60599 0.0
C811 C 0.27853 0.27678 0.64718 0.0
C812 C 0.27225 0.23369 0.60978 0.0
C813 C 0.24504 0.22404 0.60013 0.0
C814 C 0.23881 0.18513 0.59179 0.0
C815 C 0.26059 0.15516 0.59401 0.0
C816 C 0.28837 0.16431 0.60416 0.0
C817 C 0.29449 0.20427 0.61162 0.0
H818 H 0.69243 0.21029 0.87116 0.0
H819 H 0.75601 0.11737 0.89008 0.0
H820 H 0.79398 0.16963 0.89575 0.0
H821 H 0.742 0.26971 0.83631 0.0
H822 H 0.72731 0.31809 0.84553 0.0
H823 H 0.704 0.27404 0.84525 0.0
H824 H 0.69121 0.28581 0.89041 0.0
H825 H 0.71447 0.32998 0.89081 0.0
H826 H 0.72043 0.28972 0.91233 0.0
H827 H 0.82591 0.23099 0.89779 0.0
H828 H 0.85023 0.29756 0.89427 0.0
H829 H 0.76734 0.35176 0.87242 0.0
C830 C 0.71421 0.20117 0.87692 0.0
C831 C 0.72119 0.15971 0.88035 0.0
C832 C 0.75014 0.14888 0.88735 0.0
C833 C 0.77188 0.17839 0.89071 0.0
C834 C 0.76456 0.21885 0.88682 0.0
C835 C 0.7365 0.23041 0.87999 0.0
C836 C 0.73523 0.27586 0.87546 0.0
C837 C 0.72663 0.28494 0.84907 0.0
C838 C 0.71408 0.29656 0.89332 0.0
C839 C 0.76696 0.28774 0.88049 0.0
C840 C 0.78335 0.25439 0.88733 0.0
C841 C 0.81327 0.25739 0.89255 0.0
C842 C 0.82692 0.29539 0.89051 0.0
C843 C 0.8108 0.32999 0.88309 0.0
C844 C 0.78031 0.32597 0.87821 0.0
H845 H 0.25174 0.66984 0.86635 0.0
H846 H 0.17394 0.7104 0.90492 0.0
H847 H 0.19829 0.77582 0.91347 0.0
H848 H 0.30605 0.71916 0.90522 0.0
H849 H 0.32981 0.73253 0.88036 0.0
H850 H 0.30711 0.68793 0.87845 0.0
H851 H 0.28403 0.71455 0.83862 0.0
H852 H 0.30685 0.75896 0.84028 0.0
H853 H 0.2675 0.76426 0.83808 0.0
H854 H 0.22981 0.83783 0.91601 0.0
H855 H 0.26488 0.89394 0.91024 0.0
H856 H 0.32303 0.81411 0.87029 0.0
C857 C 0.23987 0.69237 0.87676 0.0
C858 C 0.21086 0.68487 0.88505 0.0
C859 C 0.19608 0.71536 0.89838 0.0
C860 C 0.20984 0.75255 0.90343 0.0
C861 C 0.23843 0.75888 0.89506 0.0
C862 C 0.25325 0.72975 0.88188 0.0
C863 C 0.28323 0.74513 0.87386 0.0
C864 C 0.30802 0.71966 0.88515 0.0
C865 C 0.28552 0.74577 0.84606 0.0
C866 C 0.2828 0.78777 0.88426 0.0
C867 C 0.2568 0.79479 0.89662 0.0
C868 C 0.25035 0.83249 0.90665 0.0
C869 C 0.27047 0.86414 0.90336 0.0
C870 C 0.29691 0.85814 0.89029 0.0
C871 C 0.30346 0.81917 0.88104 0.0
H872 H 0.336 0.06686 0.28764 0.0
H873 H 0.35115 0.95358 0.32565 0.0
H874 H 0.35852 0.91866 0.28671 0.0
H875 H 0.29359 0.02343 0.24036 0.0
H876 H 0.30745 0.05625 0.21691 0.0
H877 H 0.30633 0.07363 0.2478 0.0
H878 H 0.3621 0.0892 0.24612 0.0
H879 H 0.3634 0.07181 0.21519 0.0
H880 H 0.38748 0.0497 0.23752 0.0
H881 H 0.36311 0.89557 0.24434 0.0
H882 H 0.36057 0.8838 0.20044 0.0
H883 H 0.33931 0.01077 0.18893 0.0
C884 C 0.34128 0.03483 0.28769 0.0
C885 C 0.34334 0.01293 0.30961 0.0
C886 C 0.3496 0.97092 0.30907 0.0
C887 C 0.35395 0.95086 0.28704 0.0
C888 C 0.35159 0.97316 0.26574 0.0
C889 C 0.34511 0.0141 0.26578 0.0
C890 C 0.34157 0.03004 0.24016 0.0
C891 C 0.31038 0.04681 0.23607 0.0
C892 C 0.36504 0.06209 0.23442 0.0
C893 C 0.34671 0.9915 0.22581 0.0
C894 C 0.35295 0.95931 0.241 0.0
C895 C 0.35828 0.92049 0.23222 0.0
C896 C 0.3568 0.91416 0.20723 0.0
C897 C 0.34964 0.94636 0.1913 0.0
C898 C 0.34479 0.98563 0.20071 0.0
H899 H 0.66572 0.98527 0.18971 0.0
H900 H 0.66346 0.11462 0.20384 0.0
H901 H 0.66615 0.10156 0.24771 0.0
H902 H 0.61896 0.95855 0.24043 0.0
H903 H 0.63825 0.91206 0.24702 0.0
H904 H 0.63743 0.93137 0.21651 0.0
H905 H 0.69436 0.93038 0.21521 0.0
H906 H 0.69535 0.91115 0.24574 0.0
H907 H 0.71482 0.95698 0.2382 0.0
H908 H 0.67131 0.07516 0.28978 0.0
H909 H 0.67342 0.03634 0.32803 0.0
H910 H 0.66785 0.92398 0.28748 0.0
C911 C 0.66591 0.01069 0.20211 0.0
C912 C 0.66458 0.05093 0.19346 0.0
C913 C 0.66441 0.08354 0.21014 0.0
C914 C 0.66605 0.07648 0.23508 0.0
C915 C 0.66732 0.03656 0.24312 0.0
C916 C 0.66681 0.00414 0.22723 0.0
C917 C 0.66699 0.96424 0.24088 0.0
C918 C 0.63872 0.94015 0.23591 0.0
C919 C 0.69453 0.93922 0.23463 0.0
C920 C 0.66798 0.97943 0.26681 0.0
C921 C 0.66855 0.02125 0.26763 0.0
C922 C 0.67058 0.04238 0.28943 0.0
C923 C 0.67185 0.02013 0.31104 0.0
C924 C 0.67053 0.97731 0.31066 0.0
C925 C 0.66852 0.95677 0.28825 0.0
H926 H 0.67061 0.0708 0.78754 0.0
H927 H 0.6611 0.95938 0.82857 0.0
H928 H 0.65627 0.92093 0.7904 0.0
H929 H 0.61994 0.04637 0.73941 0.0
H930 H 0.64203 0.06911 0.71598 0.0
H931 H 0.64383 0.08827 0.74649 0.0
H932 H 0.70022 0.07718 0.74679 0.0
H933 H 0.6986 0.05798 0.71628 0.0
H934 H 0.7149 0.02769 0.73992 0.0
H935 H 0.651 0.8951 0.74844 0.0
H936 H 0.64911 0.88168 0.70471 0.0
H937 H 0.66534 0.00896 0.6899 0.0
C938 C 0.66736 0.03833 0.78845 0.0
C939 C 0.66602 0.01797 0.81097 0.0
C940 C 0.66217 0.97547 0.8115 0.0
C941 C 0.65934 0.95344 0.78993 0.0
C942 C 0.6608 0.97437 0.76803 0.0
C943 C 0.66501 0.01576 0.76706 0.0
C944 C 0.66674 0.0305 0.74104 0.0
C945 C 0.64164 0.06033 0.7354 0.0
C946 C 0.69691 0.04945 0.7357 0.0
C947 C 0.66278 0.99086 0.72754 0.0
C948 C 0.65906 0.95905 0.74357 0.0
C949 C 0.65408 0.91967 0.73571 0.0
C950 C 0.65295 0.91244 0.71079 0.0
C951 C 0.6572 0.94428 0.69392 0.0
C952 C 0.6623 0.98404 0.70242 0.0
H953 H 0.33586 0.94158 0.78951 0.0
H954 H 0.32383 0.05773 0.8252 0.0
H955 H 0.32507 0.0921 0.78566 0.0
H956 H 0.38463 0.97592 0.74225 0.0
H957 H 0.36862 0.94443 0.71908 0.0
H958 H 0.36764 0.92845 0.75027 0.0
H959 H 0.31099 0.92164 0.74794 0.0
H960 H 0.31179 0.93753 0.71673 0.0
H961 H 0.28924 0.96442 0.73826 0.0
H962 H 0.32919 0.11425 0.74327 0.0
H963 H 0.33203 0.12335 0.69919 0.0
H964 H 0.3381 0.99294 0.68951 0.0
C965 C 0.33357 0.97425 0.78894 0.0
C966 C 0.32997 0.99709 0.81041 0.0
C967 C 0.32669 0.03968 0.809 0.0
C968 C 0.32742 0.05949 0.78664 0.0
C969 C 0.33104 0.0362 0.76584 0.0
C970 C 0.33374 0.99453 0.76665 0.0
C971 C 0.33643 0.97687 0.74135 0.0
C972 C 0.3661 0.95513 0.73805 0.0
C973 C 0.31057 0.94844 0.73574 0.0
C974 C 0.33489 0.01524 0.72627 0.0
C975 C 0.33212 0.04903 0.74092 0.0
C976 C 0.33115 0.08808 0.73156 0.0
C977 C 0.33289 0.09288 0.70649 0.0
C978 C 0.33515 0.05881 0.69098 0.0
C979 C 0.3361 0.01943 0.70099 0.0
H980 H 0.84173 0.51024 0.1881 0.0
H981 H 0.86436 0.3839 0.20048 0.0
H982 H 0.86547 0.39603 0.24428 0.0
H983 H 0.88823 0.55044 0.23749 0.0
H984 H 0.86226 0.58952 0.24554 0.0
H985 H 0.86443 0.57182 0.2147 0.0
H986 H 0.8088 0.55521 0.21549 0.0
H987 H 0.8065 0.57266 0.24633 0.0
H988 H 0.79462 0.52215 0.2387 0.0
H989 H 0.85962 0.4189 0.28632 0.0
H990 H 0.85139 0.45357 0.32516 0.0
H991 H 0.83583 0.56672 0.28709 0.0
C992 C 0.84721 0.48535 0.20007 0.0
C993 C 0.85283 0.44609 0.19085 0.0
C994 C 0.85996 0.41424 0.20706 0.0
C995 C 0.86064 0.42076 0.23203 0.0
C996 C 0.85458 0.45946 0.2406 0.0
C997 C 0.84841 0.49146 0.22523 0.0
C998 C 0.84248 0.52992 0.23956 0.0
C999 C 0.86574 0.56234 0.23399 0.0
C1000 C 0.81124 0.54591 0.23473 0.0
C1001 C 0.84557 0.51407 0.26526 0.0
C1002 C 0.85247 0.47328 0.2653 0.0
C1003 C 0.85472 0.451 0.28662 0.0
C1004 C 0.84989 0.47095 0.30859 0.0
C1005 C 0.84331 0.51286 0.30913 0.0
C1006 C 0.84132 0.53476 0.28717 0.0
H1007 H 0.16938 0.42418 0.28802 0.0
H1008 H 0.17317 0.53694 0.32832 0.0
H1009 H 0.17154 0.57544 0.28998 0.0
H1010 H 0.21712 0.45754 0.23948 0.0
H1011 H 0.19745 0.43038 0.21627 0.0
H1012 H 0.19779 0.41152 0.24689 0.0
H1013 H 0.14085 0.41155 0.2474 0.0
H1014 H 0.14032 0.43044 0.21679 0.0
H1015 H 0.12123 0.45761 0.24037 0.0
H1016 H 0.16694 0.60152 0.24785 0.0
H1017 H 0.16464 0.61431 0.20392 0.0
H1018 H 0.16851 0.48496 0.19005 0.0
C1019 C 0.16976 0.45699 0.2887 0.0
C1020 C 0.17113 0.47773 0.31108 0.0
C1021 C 0.17209 0.52057 0.31135 0.0
C1022 C 0.1711 0.54265 0.28969 0.0
C1023 C 0.16974 0.52135 0.26792 0.0
C1024 C 0.16951 0.4795 0.26719 0.0
C1025 C 0.16919 0.46419 0.24126 0.0
C1026 C 0.19705 0.43945 0.23565 0.0
C1027 C 0.14123 0.43949 0.23616 0.0
C1028 C 0.16896 0.50402 0.22755 0.0
C1029 C 0.16889 0.53652 0.24338 0.0
C1030 C 0.16732 0.57638 0.23527 0.0
C1031 C 0.16591 0.58329 0.2103 0.0
C1032 C 0.16663 0.5506 0.1937 0.0
C1033 C 0.16834 0.51044 0.20242 0.0
H1034 H 0.1704 0.58732 0.79057 0.0
H1035 H 0.18217 0.474 0.82937 0.0
H1036 H 0.17977 0.43651 0.79082 0.0
H1037 H 0.12035 0.55029 0.74497 0.0
H1038 H 0.13617 0.57967 0.72074 0.0
H1039 H 0.13799 0.59796 0.75144 0.0
H1040 H 0.19463 0.60345 0.74804 0.0
H1041 H 0.193 0.5851 0.71734 0.0
H1042 H 0.21574 0.55952 0.73929 0.0
H1043 H 0.17428 0.41108 0.74906 0.0
H1044 H 0.16924 0.39855 0.70537 0.0
H1045 H 0.16467 0.52807 0.69204 0.0
C1046 C 0.17233 0.5546 0.79089 0.0
C1047 C 0.17628 0.53344 0.81294 0.0
C1048 C 0.17912 0.49075 0.81269 0.0
C1049 C 0.17774 0.4692 0.7909 0.0
C1050 C 0.17396 0.49087 0.76948 0.0
C1051 C 0.17157 0.5326 0.76916 0.0
C1052 C 0.1685 0.54828 0.7434 0.0
C1053 C 0.13899 0.57035 0.73994 0.0
C1054 C 0.19452 0.57571 0.73662 0.0
C1055 C 0.16934 0.50875 0.72935 0.0
C1056 C 0.1722 0.47612 0.74492 0.0
C1057 C 0.17229 0.43633 0.73666 0.0
C1058 C 0.16931 0.42957 0.71181 0.0
C1059 C 0.16673 0.46237 0.6954 0.0
C1060 C 0.167 0.50255 0.70423 0.0
H1061 H 0.83821 0.4771 0.68875 0.0
H1062 H 0.85473 0.60523 0.70088 0.0
H1063 H 0.86086 0.59251 0.74427 0.0
H1064 H 0.79689 0.45997 0.74241 0.0
H1065 H 0.81213 0.41063 0.74879 0.0
H1066 H 0.81039 0.42868 0.71804 0.0
H1067 H 0.86647 0.41738 0.71339 0.0
H1068 H 0.86836 0.39919 0.74413 0.0
H1069 H 0.89131 0.44073 0.73462 0.0
H1070 H 0.86071 0.56874 0.78614 0.0
H1071 H 0.85772 0.53324 0.82517 0.0
H1072 H 0.84463 0.41906 0.78768 0.0
C1073 C 0.84337 0.50229 0.70057 0.0
C1074 C 0.84586 0.54218 0.69138 0.0
C1075 C 0.85266 0.5744 0.7074 0.0
C1076 C 0.85623 0.56755 0.73215 0.0
C1077 C 0.85331 0.5282 0.74071 0.0
C1078 C 0.84737 0.49592 0.72554 0.0
C1079 C 0.84496 0.4568 0.73995 0.0
C1080 C 0.81427 0.43792 0.73713 0.0
C1081 C 0.86923 0.42675 0.73258 0.0
C1082 C 0.84979 0.47259 0.76551 0.0
C1083 C 0.85449 0.51393 0.76535 0.0
C1084 C 0.85757 0.53624 0.78657 0.0
C1085 C 0.85573 0.51581 0.80867 0.0
C1086 C 0.85131 0.47341 0.80942 0.0
C1087 C 0.8486 0.45142 0.78754 0.0
loop_
_geom_bond_atom_site_label_1
_geom_bond_atom_site_label_2
_geom_bond_distance
_geom_bond_site_symmetry_2
_ccdc_geom_bond_type
Co0 O1 2.216 . S
Co0 O2 2.091 . S
Co0 O4 2.004 . S
Co0 O10 2.021 . S
Co0 O12 2.137 . S
Co0 O13 2.250 . S
O1 Co0 2.216 . S
O1 C8 1.247 . S
O2 Co0 2.091 . S
O2 C8 1.261 . S
C3 O12 1.247 . S
C3 O13 1.274 . S
O4 Co0 2.004 . S
O4 C9 1.259 . S
Co5 O6 2.061 . S
Co5 O11 2.052 . S
Co5 O13 2.130 1_565 S
O6 Co5 2.061 . S
O6 C9 1.235 1_565 S
C7 O10 1.238 . S
C7 O11 1.241 1_545 S
C8 O1 1.247 . S
C8 O2 1.261 . S
C9 O4 1.259 . S
C9 O6 1.235 1_545 S
O10 Co0 2.021 . S
O10 C7 1.238 . S
O11 Co5 2.052 . S
O11 C7 1.241 1_565 S
O12 Co0 2.137 . S
O12 C3 1.247 . S
O13 Co0 2.250 . S
O13 C3 1.274 . S
O13 Co5 2.130 1_545 S
Co14 O15 2.216 . S
Co14 O16 2.091 . S
Co14 O18 2.004 . S
Co14 O24 2.021 . S
Co14 O26 2.137 . S
Co14 O27 2.251 . S
O15 Co14 2.216 . S
O15 C22 1.247 . S
O16 Co14 2.091 . S
O16 C22 1.261 . S
C17 O26 1.247 . S
C17 O27 1.275 . S
O18 Co14 2.004 . S
O18 C23 1.259 . S
Co19 O20 2.061 . S
Co19 O25 2.052 . S
Co19 O27 2.130 1_545 S
O20 Co19 2.061 . S
O20 C23 1.235 1_545 S
C21 O24 1.238 . S
C21 O25 1.241 1_565 S
C22 O15 1.247 . S
C22 O16 1.261 . S
C23 O18 1.259 . S
C23 O20 1.235 1_565 S
O24 Co14 2.021 . S
O24 C21 1.238 . S
O25 Co19 2.052 . S
O25 C21 1.241 1_545 S
O26 Co14 2.137 . S
O26 C17 1.247 . S
O27 Co14 2.251 . S
O27 C17 1.275 . S
O27 Co19 2.130 1_565 S
Co28 O29 2.216 . S
Co28 O30 2.091 . S
Co28 O32 2.004 . S
Co28 O38 2.021 . S
Co28 O40 2.137 . S
Co28 O41 2.250 . S
O29 Co28 2.216 . S
O29 C36 1.247 . S
O30 Co28 2.091 . S
O30 C36 1.261 . S
C31 O40 1.247 . S
C31 O41 1.274 . S
O32 Co28 2.004 . S
O32 C37 1.259 . S
Co33 O34 2.061 . S
Co33 O39 2.052 . S
Co33 O41 2.130 1_545 S
O34 Co33 2.061 . S
O34 C37 1.235 1_545 S
C35 O38 1.238 . S
C35 O39 1.241 1_565 S
C36 O29 1.247 . S
C36 O30 1.261 . S
C37 O32 1.259 . S
C37 O34 1.235 1_565 S
O38 Co28 2.021 . S
O38 C35 1.238 . S
O39 Co33 2.052 . S
O39 C35 1.241 1_545 S
O40 Co28 2.137 . S
O40 C31 1.247 . S
O41 Co28 2.250 . S
O41 C31 1.274 . S
O41 Co33 2.130 1_565 S
Co42 O43 2.216 . S
Co42 O44 2.091 . S
Co42 O46 2.004 . S
Co42 O52 2.021 . S
Co42 O54 2.137 . S
Co42 O55 2.251 . S
O43 Co42 2.216 . S
O43 C50 1.247 . S
O44 Co42 2.091 . S
O44 C50 1.261 . S
C45 O54 1.247 . S
C45 O55 1.275 . S
O46 Co42 2.004 . S
O46 C51 1.259 . S
Co47 O48 2.061 . S
Co47 O53 2.052 . S
Co47 O55 2.130 1_565 S
O48 Co47 2.061 . S
O48 C51 1.235 1_565 S
C49 O52 1.238 . S
C49 O53 1.241 1_545 S
C50 O43 1.247 . S
C50 O44 1.261 . S
C51 O46 1.259 . S
C51 O48 1.235 1_545 S
O52 Co42 2.021 . S
O52 C49 1.238 . S
O53 Co47 2.052 . S
O53 C49 1.241 1_565 S
O54 Co42 2.137 . S
O54 C45 1.247 . S
O55 Co42 2.251 . S
O55 C45 1.275 . S
O55 Co47 2.130 1_545 S
Co56 O57 2.216 . S
Co56 O58 2.091 . S
Co56 O60 2.004 . S
Co56 O66 2.021 . S
Co56 O68 2.137 . S
Co56 O69 2.250 . S
O57 Co56 2.216 . S
O57 C64 1.247 . S
O58 Co56 2.091 . S
O58 C64 1.261 . S
C59 O68 1.247 . S
C59 O69 1.274 . S
O60 Co56 2.004 . S
O60 C65 1.259 . S
Co61 O62 2.061 . S
Co61 O67 2.052 . S
Co61 O69 2.130 1_545 S
O62 Co61 2.061 . S
O62 C65 1.235 1_545 S
C63 O66 1.238 . S
C63 O67 1.241 1_565 S
C64 O57 1.247 . S
C64 O58 1.261 . S
C65 O60 1.259 . S
C65 O62 1.235 1_565 S
O66 Co56 2.021 . S
O66 C63 1.238 . S
O67 Co61 2.052 . S
O67 C63 1.241 1_545 S
O68 Co56 2.137 . S
O68 C59 1.247 . S
O69 Co56 2.250 . S
O69 C59 1.274 . S
O69 Co61 2.130 1_565 S
Co70 O71 2.216 . S
Co70 O72 2.091 . S
Co70 O74 2.004 . S
Co70 O80 2.021 . S
Co70 O82 2.137 . S
Co70 O83 2.251 . S
O71 Co70 2.216 . S
O71 C78 1.247 . S
O72 Co70 2.091 . S
O72 C78 1.261 . S
C73 O82 1.247 . S
C73 O83 1.275 . S
O74 Co70 2.004 . S
O74 C79 1.259 . S
Co75 O76 2.061 . S
Co75 O81 2.052 . S
Co75 O83 2.130 1_565 S
O76 Co75 2.061 . S
O76 C79 1.235 1_565 S
C77 O80 1.238 . S
C77 O81 1.241 1_545 S
C78 O71 1.247 . S
C78 O72 1.261 . S
C79 O74 1.259 . S
C79 O76 1.235 1_545 S
O80 Co70 2.021 . S
O80 C77 1.238 . S
O81 Co75 2.052 . S
O81 C77 1.241 1_565 S
O82 Co70 2.137 . S
O82 C73 1.247 . S
O83 Co70 2.251 . S
O83 C73 1.275 . S
O83 Co75 2.130 1_545 S
Co84 O85 2.216 . S
Co84 O86 2.091 . S
Co84 O88 2.004 . S
Co84 O94 2.021 . S
Co84 O96 2.137 . S
Co84 O97 2.250 . S
O85 Co84 2.216 . S
O85 C92 1.247 . S
O86 Co84 2.091 . S
O86 C92 1.261 . S
C87 O96 1.247 . S
C87 O97 1.274 . S
O88 Co84 2.004 . S
O88 C93 1.259 . S
Co89 O90 2.061 . S
Co89 O95 2.052 . S
Co89 O97 2.130 1_565 S
O90 Co89 2.061 . S
O90 C93 1.235 1_565 S
C91 O94 1.238 . S
C91 O95 1.241 1_545 S
C92 O85 1.247 . S
C92 O86 1.261 . S
C93 O88 1.259 . S
C93 O90 1.235 1_545 S
O94 Co84 2.021 . S
O94 C91 1.238 . S
O95 Co89 2.052 . S
O95 C91 1.241 1_565 S
O96 Co84 2.137 . S
O96 C87 1.247 . S
O97 Co84 2.250 . S
O97 C87 1.274 . S
O97 Co89 2.130 1_545 S
Co98 O99 2.216 . S
Co98 O100 2.091 . S
Co98 O102 2.004 . S
Co98 O108 2.021 . S
Co98 O110 2.137 . S
Co98 O111 2.251 . S
O99 Co98 2.216 . S
O99 C106 1.247 . S
O100 Co98 2.091 . S
O100 C106 1.261 . S
C101 O110 1.247 . S
C101 O111 1.275 . S
O102 Co98 2.004 . S
O102 C107 1.259 . S
Co103 O104 2.061 . S
Co103 O109 2.052 . S
Co103 O111 2.130 1_545 S
O104 Co103 2.061 . S
O104 C107 1.235 1_545 S
C105 O108 1.238 . S
C105 O109 1.241 1_565 S
C106 O99 1.247 . S
C106 O100 1.261 . S
C107 O102 1.259 . S
C107 O104 1.235 1_565 S
O108 Co98 2.021 . S
O108 C105 1.238 . S
O109 Co103 2.052 . S
O109 C105 1.241 1_545 S
O110 Co98 2.137 . S
O110 C101 1.247 . S
O111 Co98 2.251 . S
O111 C101 1.275 . S
O111 Co103 2.130 1_565 S
Co112 O113 2.216 . S
Co112 O114 2.091 . S
Co112 O116 2.004 . S
Co112 O122 2.021 . S
Co112 O124 2.137 . S
Co112 O125 2.244 . S
O113 Co112 2.216 . S
O113 C120 1.247 . S
O114 Co112 2.091 . S
O114 C120 1.261 . S
C115 O124 1.247 . S
C115 O125 1.272 . S
O116 Co112 2.004 . S
O116 C121 1.259 . S
Co117 O118 2.061 . S
Co117 O123 2.052 . S
Co117 O125 2.135 . S
O118 Co117 2.061 . S
O118 C121 1.235 . S
C119 O122 1.238 . S
C119 O123 1.241 . S
C120 O113 1.247 . S
C120 O114 1.261 . S
C121 O116 1.259 . S
C121 O118 1.235 . S
O122 Co112 2.021 . S
O122 C119 1.238 . S
O123 Co117 2.052 . S
O123 C119 1.241 . S
O124 Co112 2.137 . S
O124 C115 1.247 . S
O125 Co112 2.244 . S
O125 C115 1.272 . S
O125 Co117 2.135 . S
Co126 O127 2.216 . S
Co126 O128 2.091 . S
Co126 O130 2.004 . S
Co126 O136 2.021 . S
Co126 O138 2.137 . S
Co126 O139 2.244 . S
O127 Co126 2.216 . S
O127 C134 1.247 . S
O128 Co126 2.091 . S
O128 C134 1.261 . S
C129 O138 1.247 . S
C129 O139 1.272 . S
O130 Co126 2.004 . S
O130 C135 1.259 . S
Co131 O132 2.061 . S
Co131 O137 2.052 . S
Co131 O139 2.135 . S
O132 Co131 2.061 . S
O132 C135 1.235 . S
C133 O136 1.238 . S
C133 O137 1.241 . S
C134 O127 1.247 . S
C134 O128 1.261 . S
C135 O130 1.259 . S
C135 O132 1.235 . S
O136 Co126 2.021 . S
O136 C133 1.238 . S
O137 Co131 2.052 . S
O137 C133 1.241 . S
O138 Co126 2.137 . S
O138 C129 1.247 . S
O139 Co126 2.244 . S
O139 C129 1.272 . S
O139 Co131 2.135 . S
Co140 O141 2.216 . S
Co140 O142 2.091 . S
Co140 O144 2.004 . S
Co140 O150 2.021 . S
Co140 O152 2.137 . S
Co140 O153 2.244 . S
O141 Co140 2.216 . S
O141 C148 1.247 . S
O142 Co140 2.091 . S
O142 C148 1.261 . S
C143 O152 1.247 . S
C143 O153 1.272 . S
O144 Co140 2.004 . S
O144 C149 1.259 . S
Co145 O146 2.061 . S
Co145 O151 2.052 . S
Co145 O153 2.135 . S
O146 Co145 2.061 . S
O146 C149 1.235 . S
C147 O150 1.238 . S
C147 O151 1.241 . S
C148 O141 1.247 . S
C148 O142 1.261 . S
C149 O144 1.259 . S
C149 O146 1.235 . S
O150 Co140 2.021 . S
O150 C147 1.238 . S
O151 Co145 2.052 . S
O151 C147 1.241 . S
O152 Co140 2.137 . S
O152 C143 1.247 . S
O153 Co140 2.244 . S
O153 C143 1.272 . S
O153 Co145 2.135 . S
Co154 O155 2.216 . S
Co154 O156 2.091 . S
Co154 O158 2.004 . S
Co154 O164 2.021 . S
Co154 O166 2.137 . S
Co154 O167 2.244 . S
O155 Co154 2.216 . S
O155 C162 1.247 . S
O156 Co154 2.091 . S
O156 C162 1.261 . S
C157 O166 1.247 . S
C157 O167 1.272 . S
O158 Co154 2.004 . S
O158 C163 1.259 . S
Co159 O160 2.061 . S
Co159 O165 2.052 . S
Co159 O167 2.135 . S
O160 Co159 2.061 . S
O160 C163 1.235 . S
C161 O164 1.238 . S
C161 O165 1.241 . S
C162 O155 1.247 . S
C162 O156 1.261 . S
C163 O158 1.259 . S
C163 O160 1.235 . S
O164 Co154 2.021 . S
O164 C161 1.238 . S
O165 Co159 2.052 . S
O165 C161 1.241 . S
O166 Co154 2.137 . S
O166 C157 1.247 . S
O167 Co154 2.244 . S
O167 C157 1.272 . S
O167 Co159 2.135 . S
Co168 O169 2.216 . S
Co168 O170 2.091 . S
Co168 O172 2.004 . S
Co168 O178 2.021 . S
Co168 O180 2.137 . S
Co168 O181 2.244 . S
O169 Co168 2.216 . S
O169 C176 1.247 . S
O170 Co168 2.091 . S
O170 C176 1.261 . S
C171 O180 1.247 . S
C171 O181 1.272 . S
O172 Co168 2.004 . S
O172 C177 1.259 . S
Co173 O174 2.061 . S
Co173 O179 2.052 . S
Co173 O181 2.135 . S
O174 Co173 2.061 . S
O174 C177 1.235 . S
C175 O178 1.238 . S
C175 O179 1.241 . S
C176 O169 1.247 . S
C176 O170 1.261 . S
C177 O172 1.259 . S
C177 O174 1.235 . S
O178 Co168 2.021 . S
O178 C175 1.238 . S
O179 Co173 2.052 . S
O179 C175 1.241 . S
O180 Co168 2.137 . S
O180 C171 1.247 . S
O181 Co168 2.244 . S
O181 C171 1.272 . S
O181 Co173 2.135 . S
Co182 O183 2.216 . S
Co182 O184 2.091 . S
Co182 O186 2.004 . S
Co182 O192 2.021 . S
Co182 O194 2.137 . S
Co182 O195 2.244 . S
O183 Co182 2.216 . S
O183 C190 1.247 . S
O184 Co182 2.091 . S
O184 C190 1.261 . S
C185 O194 1.247 . S
C185 O195 1.272 . S
O186 Co182 2.004 . S
O186 C191 1.259 . S
Co187 O188 2.061 . S
Co187 O193 2.052 . S
Co187 O195 2.135 . S
O188 Co187 2.061 . S
O188 C191 1.235 . S
C189 O192 1.238 . S
C189 O193 1.241 . S
C190 O183 1.247 . S
C190 O184 1.261 . S
C191 O186 1.259 . S
C191 O188 1.235 . S
O192 Co182 2.021 . S
O192 C189 1.238 . S
O193 Co187 2.052 . S
O193 C189 1.241 . S
O194 Co182 2.137 . S
O194 C185 1.247 . S
O195 Co182 2.244 . S
O195 C185 1.272 . S
O195 Co187 2.135 . S
Co196 O197 2.216 . S
Co196 O198 2.091 . S
Co196 O200 2.004 . S
Co196 O206 2.021 . S
Co196 O208 2.137 . S
Co196 O209 2.244 . S
O197 Co196 2.216 . S
O197 C204 1.247 . S
O198 Co196 2.091 . S
O198 C204 1.261 . S
C199 O208 1.247 . S
C199 O209 1.272 . S
O200 Co196 2.004 . S
O200 C205 1.259 . S
Co201 O202 2.061 . S
Co201 O207 2.052 . S
Co201 O209 2.135 . S
O202 Co201 2.061 . S
O202 C205 1.235 . S
C203 O206 1.238 . S
C203 O207 1.241 . S
C204 O197 1.247 . S
C204 O198 1.261 . S
C205 O200 1.259 . S
C205 O202 1.235 . S
O206 Co196 2.021 . S
O206 C203 1.238 . S
O207 Co201 2.052 . S
O207 C203 1.241 . S
O208 Co196 2.137 . S
O208 C199 1.247 . S
O209 Co196 2.244 . S
O209 C199 1.272 . S
O209 Co201 2.135 . S
Co210 O211 2.216 . S
Co210 O212 2.091 . S
Co210 O214 2.004 . S
Co210 O220 2.021 . S
Co210 O222 2.137 . S
Co210 O223 2.244 . S
O211 Co210 2.216 . S
O211 C218 1.247 . S
O212 Co210 2.091 . S
O212 C218 1.261 . S
C213 O222 1.247 . S
C213 O223 1.272 . S
O214 Co210 2.004 . S
O214 C219 1.259 . S
Co215 O216 2.061 . S
Co215 O221 2.052 . S
Co215 O223 2.135 . S
O216 Co215 2.061 . S
O216 C219 1.235 . S
C217 O220 1.238 . S
C217 O221 1.241 . S
C218 O211 1.247 . S
C218 O212 1.261 . S
C219 O214 1.259 . S
C219 O216 1.235 . S
O220 Co210 2.021 . S
O220 C217 1.238 . S
O221 Co215 2.052 . S
O221 C217 1.241 . S
O222 Co210 2.137 . S
O222 C213 1.247 . S
O223 Co210 2.244 . S
O223 C213 1.272 . S
O223 Co215 2.135 . S
H224 C236 0.930 . S
H225 C238 0.930 . S
H226 C239 0.930 . S
H227 C243 0.959 . S
H228 C243 0.959 . S
H229 C243 0.961 . S
H230 C244 0.960 . S
H231 C244 0.961 . S
H232 C244 0.959 . S
H233 C247 0.929 . S
H234 C248 0.931 . S
H235 C250 0.930 . S
C236 H224 0.930 . S
C236 C237 1.399 . S
C236 C241 1.399 . S
C237 C236 1.399 . S
C237 C238 1.376 1_545 S
C238 H225 0.930 . S
C238 C237 1.376 1_565 S
C238 C239 1.388 . S
C239 H226 0.930 . S
C239 C238 1.388 . S
C239 C240 1.390 1_565 S
C240 C239 1.390 1_545 S
C240 C241 1.394 . S
C240 C246 1.465 . S
C241 C236 1.399 . S
C241 C240 1.394 . S
C241 C242 1.516 . S
C242 C241 1.516 . S
C242 C243 1.502 . S
C242 C244 1.561 . S
C242 C245 1.526 . S
C243 H227 0.959 . S
C243 H228 0.959 . S
C243 H229 0.961 . S
C243 C242 1.502 . S
C244 H230 0.960 . S
C244 H231 0.961 . S
C244 H232 0.959 . S
C244 C242 1.561 . S
C245 C242 1.526 . S
C245 C246 1.396 . S
C245 C250 1.390 . S
C246 C240 1.465 . S
C246 C245 1.396 . S
C246 C247 1.399 1_545 S
C247 H233 0.929 . S
C247 C246 1.399 1_565 S
C247 C248 1.385 . S
C248 H234 0.931 . S
C248 C247 1.385 . S
C248 C249 1.389 1_565 S
C249 C248 1.389 1_545 S
C249 C250 1.387 . S
C250 H235 0.930 . S
C250 C245 1.390 . S
C250 C249 1.387 . S
H251 C263 0.930 . S
H252 C265 0.930 . S
H253 C266 0.930 . S
H254 C270 0.959 . S
H255 C270 0.959 . S
H256 C270 0.961 . S
H257 C271 0.960 . S
H258 C271 0.961 . S
H259 C271 0.959 . S
H260 C274 0.929 . S
H261 C275 0.931 . S
H262 C277 0.930 . S
C263 H251 0.930 . S
C263 C264 1.399 1_545 S
C263 C268 1.399 1_545 S
C264 C263 1.399 1_565 S
C264 C265 1.376 . S
C265 H252 0.930 . S
C265 C264 1.376 . S
C265 C266 1.388 . S
C266 H253 0.930 . S
C266 C265 1.388 . S
C266 C267 1.390 . S
C267 C266 1.390 . S
C267 C268 1.394 . S
C267 C273 1.465 . S
C268 C263 1.399 1_565 S
C268 C267 1.394 . S
C268 C269 1.516 1_565 S
C269 C268 1.516 1_545 S
C269 C270 1.502 . S
C269 C271 1.561 . S
C269 C272 1.526 1_545 S
C270 H254 0.959 . S
C270 H255 0.959 . S
C270 H256 0.961 . S
C270 C269 1.502 . S
C271 H257 0.960 . S
C271 H258 0.961 . S
C271 H259 0.959 . S
C271 C269 1.561 . S
C272 C269 1.526 1_565 S
C272 C273 1.396 . S
C272 C277 1.390 1_565 S
C273 C267 1.465 . S
C273 C272 1.396 . S
C273 C274 1.399 . S
C274 H260 0.929 . S
C274 C273 1.399 . S
C274 C275 1.385 . S
C275 H261 0.931 . S
C275 C274 1.385 . S
C275 C276 1.389 . S
C276 C275 1.389 . S
C276 C277 1.387 1_565 S
C277 H262 0.930 . S
C277 C272 1.390 1_545 S
C277 C276 1.387 1_545 S
H278 C290 0.930 . S
H279 C292 0.930 . S
H280 C293 0.930 . S
H281 C297 0.962 . S
H282 C297 0.979 . S
H283 C297 0.940 1_554 S
H284 C298 0.958 1_554 S
H285 C298 0.963 . S
H286 C298 0.959 . S
H287 C301 0.929 . S
H288 C302 0.931 . S
H289 C304 0.930 . S
C290 H278 0.930 . S
C290 C291 1.399 . S
C290 C295 1.399 . S
C291 C290 1.399 . S
C291 C292 1.376 1_565 S
C292 H279 0.930 . S
C292 C291 1.376 1_545 S
C292 C293 1.388 . S
C293 H280 0.930 . S
C293 C292 1.388 . S
C293 C294 1.390 1_545 S
C294 C293 1.390 1_565 S
C294 C295 1.394 . S
C294 C300 1.465 1_554 S
C295 C290 1.399 . S
C295 C294 1.394 . S
C295 C296 1.517 1_554 S
C296 C295 1.517 1_556 S
C296 C297 1.502 . S
C296 C298 1.561 . S
C296 C299 1.525 . S
C297 H281 0.962 . S
C297 H282 0.979 . S
C297 H283 0.940 1_556 S
C297 C296 1.502 . S
C298 H284 0.958 1_556 S
C298 H285 0.963 . S
C298 H286 0.959 . S
C298 C296 1.561 . S
C299 C296 1.525 . S
C299 C300 1.396 . S
C299 C304 1.390 . S
C300 C294 1.465 1_556 S
C300 C299 1.396 . S
C300 C301 1.399 1_565 S
C301 H287 0.929 . S
C301 C300 1.399 1_545 S
C301 C302 1.385 . S
C302 H288 0.931 . S
C302 C301 1.385 . S
C302 C303 1.389 1_545 S
C303 C302 1.389 1_565 S
C303 C304 1.387 . S
C304 H289 0.930 . S
C304 C299 1.390 . S
C304 C303 1.387 . S
H305 C317 0.930 . S
H306 C319 0.930 . S
H307 C320 0.930 . S
H308 C324 0.962 . S
H309 C324 0.979 . S
H310 C324 0.939 1_556 S
H311 C325 0.957 1_556 S
H312 C325 0.963 . S
H313 C325 0.959 . S
H314 C328 0.929 . S
H315 C329 0.931 . S
H316 C331 0.930 . S
C317 H305 0.930 . S
C317 C318 1.399 1_565 S
C317 C322 1.399 1_565 S
C318 C317 1.399 1_545 S
C318 C319 1.376 . S
C319 H306 0.930 . S
C319 C318 1.376 . S
C319 C320 1.388 . S
C320 H307 0.930 . S
C320 C319 1.388 . S
C320 C321 1.390 . S
C321 C320 1.390 . S
C321 C322 1.394 . S
C321 C327 1.465 1_556 S
C322 C317 1.399 1_545 S
C322 C321 1.394 . S
C322 C323 1.517 1_546 S
C323 C322 1.517 1_564 S
C323 C324 1.502 . S
C323 C325 1.561 . S
C323 C326 1.525 1_565 S
C324 H308 0.962 . S
C324 H309 0.979 . S
C324 H310 0.939 1_554 S
C324 C323 1.502 . S
C325 H311 0.957 1_554 S
C325 H312 0.963 . S
C325 H313 0.959 . S
C325 C323 1.561 . S
C326 C323 1.525 1_545 S
C326 C327 1.396 . S
C326 C331 1.390 1_545 S
C327 C321 1.465 1_554 S
C327 C326 1.396 . S
C327 C328 1.399 . S
C328 H314 0.929 . S
C328 C327 1.399 . S
C328 C329 1.385 . S
C329 H315 0.931 . S
C329 C328 1.385 . S
C329 C330 1.389 . S
C330 C329 1.389 . S
C330 C331 1.387 1_545 S
C331 H316 0.930 . S
C331 C326 1.390 1_565 S
C331 C330 1.387 1_565 S
H332 C344 0.930 . S
H333 C346 0.930 . S
H334 C347 0.930 . S
H335 C351 0.959 . S
H336 C351 0.959 . S
H337 C351 0.961 . S
H338 C352 0.960 . S
H339 C352 0.961 . S
H340 C352 0.959 . S
H341 C355 0.929 . S
H342 C356 0.931 . S
H343 C358 0.930 . S
C344 H332 0.930 . S
C344 C345 1.399 . S
C344 C349 1.399 . S
C345 C344 1.399 . S
C345 C346 1.376 . S
C346 H333 0.930 . S
C346 C345 1.376 . S
C346 C347 1.388 . S
C347 H334 0.930 . S
C347 C346 1.388 . S
C347 C348 1.390 . S
C348 C347 1.390 . S
C348 C349 1.394 . S
C348 C354 1.465 . S
C349 C344 1.399 . S
C349 C348 1.394 . S
C349 C350 1.516 . S
C350 C349 1.516 . S
C350 C351 1.502 . S
C350 C352 1.561 . S
C350 C353 1.526 . S
C351 H335 0.959 . S
C351 H336 0.959 . S
C351 H337 0.961 . S
C351 C350 1.502 . S
C352 H338 0.960 . S
C352 H339 0.961 . S
C352 H340 0.959 . S
C352 C350 1.561 . S
C353 C350 1.526 . S
C353 C354 1.396 . S
C353 C358 1.390 . S
C354 C348 1.465 . S
C354 C353 1.396 . S
C354 C355 1.399 . S
C355 H341 0.929 . S
C355 C354 1.399 . S
C355 C356 1.385 . S
C356 H342 0.931 . S
C356 C355 1.385 . S
C356 C357 1.389 . S
C357 C356 1.389 . S
C357 C358 1.387 . S
C358 H343 0.930 . S
C358 C353 1.390 . S
C358 C357 1.387 . S
H359 C371 0.930 . S
H360 C373 0.930 . S
H361 C374 0.930 . S
H362 C378 0.959 . S
H363 C378 0.959 . S
H364 C378 0.961 . S
H365 C379 0.960 . S
H366 C379 0.961 . S
H367 C379 0.959 . S
H368 C382 0.929 . S
H369 C383 0.931 . S
H370 C385 0.930 . S
C371 H359 0.930 . S
C371 C372 1.399 . S
C371 C376 1.399 . S
C372 C371 1.399 . S
C372 C373 1.376 . S
C373 H360 0.930 . S
C373 C372 1.376 . S
C373 C374 1.388 . S
C374 H361 0.930 . S
C374 C373 1.388 . S
C374 C375 1.390 . S
C375 C374 1.390 . S
C375 C376 1.394 . S
C375 C381 1.465 . S
C376 C371 1.399 . S
C376 C375 1.394 . S
C376 C377 1.516 . S
C377 C376 1.516 . S
C377 C378 1.502 . S
C377 C379 1.561 . S
C377 C380 1.526 . S
C378 H362 0.959 . S
C378 H363 0.959 . S
C378 H364 0.961 . S
C378 C377 1.502 . S
C379 H365 0.960 . S
C379 H366 0.961 . S
C379 H367 0.959 . S
C379 C377 1.561 . S
C380 C377 1.526 . S
C380 C381 1.396 . S
C380 C385 1.390 . S
C381 C375 1.465 . S
C381 C380 1.396 . S
C381 C382 1.399 . S
C382 H368 0.929 . S
C382 C381 1.399 . S
C382 C383 1.385 . S
C383 H369 0.931 . S
C383 C382 1.385 . S
C383 C384 1.389 . S
C384 C383 1.389 . S
C384 C385 1.387 . S
C385 H370 0.930 . S
C385 C380 1.390 . S
C385 C384 1.387 . S
H386 C398 0.930 . S
H387 C400 0.930 . S
H388 C401 0.930 . S
H389 C405 0.962 . S
H390 C405 0.979 . S
H391 C405 0.939 1_556 S
H392 C406 0.957 1_556 S
H393 C406 0.963 . S
H394 C406 0.959 . S
H395 C409 0.929 . S
H396 C410 0.931 . S
H397 C412 0.930 . S
C398 H386 0.930 . S
C398 C399 1.399 . S
C398 C403 1.399 . S
C399 C398 1.399 . S
C399 C400 1.376 . S
C400 H387 0.930 . S
C400 C399 1.376 . S
C400 C401 1.388 . S
C401 H388 0.930 . S
C401 C400 1.388 . S
C401 C402 1.390 . S
C402 C401 1.390 . S
C402 C403 1.394 . S
C402 C408 1.465 1_556 S
C403 C398 1.399 . S
C403 C402 1.394 . S
C403 C404 1.517 1_556 S
C404 C403 1.517 1_554 S
C404 C405 1.502 . S
C404 C406 1.561 . S
C404 C407 1.525 . S
C405 H389 0.962 . S
C405 H390 0.979 . S
C405 H391 0.939 1_554 S
C405 C404 1.502 . S
C406 H392 0.957 1_554 S
C406 H393 0.963 . S
C406 H394 0.959 . S
C406 C404 1.561 . S
C407 C404 1.525 . S
C407 C408 1.396 . S
C407 C412 1.390 . S
C408 C402 1.465 1_554 S
C408 C407 1.396 . S
C408 C409 1.399 . S
C409 H395 0.929 . S
C409 C408 1.399 . S
C409 C410 1.385 . S
C410 H396 0.931 . S
C410 C409 1.385 . S
C410 C411 1.389 . S
C411 C410 1.389 . S
C411 C412 1.387 . S
C412 H397 0.930 . S
C412 C407 1.390 . S
C412 C411 1.387 . S
H413 C425 0.930 . S
H414 C427 0.930 . S
H415 C428 0.930 . S
H416 C432 0.962 . S
H417 C432 0.979 . S
H418 C432 0.940 1_554 S
H419 C433 0.958 1_554 S
H420 C433 0.963 . S
H421 C433 0.959 . S
H422 C436 0.929 . S
H423 C437 0.931 . S
H424 C439 0.930 . S
C425 H413 0.930 . S
C425 C426 1.399 . S
C425 C430 1.399 . S
C426 C425 1.399 . S
C426 C427 1.376 . S
C427 H414 0.930 . S
C427 C426 1.376 . S
C427 C428 1.388 . S
C428 H415 0.930 . S
C428 C427 1.388 . S
C428 C429 1.390 . S
C429 C428 1.390 . S
C429 C430 1.394 . S
C429 C435 1.465 1_554 S
C430 C425 1.399 . S
C430 C429 1.394 . S
C430 C431 1.517 1_554 S
C431 C430 1.517 1_556 S
C431 C432 1.502 . S
C431 C433 1.561 . S
C431 C434 1.525 . S
C432 H416 0.962 . S
C432 H417 0.979 . S
C432 H418 0.940 1_556 S
C432 C431 1.502 . S
C433 H419 0.958 1_556 S
C433 H420 0.963 . S
C433 H421 0.959 . S
C433 C431 1.561 . S
C434 C431 1.525 . S
C434 C435 1.396 . S
C434 C439 1.390 . S
C435 C429 1.465 1_556 S
C435 C434 1.396 . S
C435 C436 1.399 . S
C436 H422 0.929 . S
C436 C435 1.399 . S
C436 C437 1.385 . S
C437 H423 0.931 . S
C437 C436 1.385 . S
C437 C438 1.389 . S
C438 C437 1.389 . S
C438 C439 1.387 . S
C439 H424 0.930 . S
C439 C434 1.390 . S
C439 C438 1.387 . S
H440 C452 0.930 . S
H441 C454 0.932 . S
H442 C455 0.930 . S
H443 C459 0.959 1_545 S
H444 C459 0.959 . S
H445 C459 0.961 . S
H446 C460 0.960 . S
H447 C460 0.961 . S
H448 C460 0.959 . S
H449 C463 0.929 . S
H450 C464 0.931 . S
H451 C466 0.930 1_565 S
C452 H440 0.930 . S
C452 C453 1.399 . S
C452 C457 1.399 . S
C453 C452 1.399 . S
C453 C454 1.376 . S
C454 H441 0.932 . S
C454 C453 1.376 . S
C454 C455 1.388 1_565 S
C455 H442 0.930 . S
C455 C454 1.388 1_545 S
C455 C456 1.389 . S
C456 C455 1.389 . S
C456 C457 1.395 1_545 S
C456 C462 1.464 . S
C457 C452 1.399 . S
C457 C456 1.395 1_565 S
C457 C458 1.516 . S
C458 C457 1.516 . S
C458 C459 1.502 . S
C458 C460 1.561 . S
C458 C461 1.526 . S
C459 H443 0.959 1_565 S
C459 H444 0.959 . S
C459 H445 0.961 . S
C459 C458 1.502 . S
C460 H446 0.960 . S
C460 H447 0.961 . S
C460 H448 0.959 . S
C460 C458 1.561 . S
C461 C458 1.526 . S
C461 C462 1.396 1_565 S
C461 C466 1.390 1_565 S
C462 C456 1.464 . S
C462 C461 1.396 1_545 S
C462 C463 1.399 . S
C463 H449 0.929 . S
C463 C462 1.399 . S
C463 C464 1.385 . S
C464 H450 0.931 . S
C464 C463 1.385 . S
C464 C465 1.389 . S
C465 C464 1.389 . S
C465 C466 1.387 . S
C466 H451 0.930 1_545 S
C466 C461 1.390 1_545 S
C466 C465 1.387 . S
H467 C479 0.930 . S
H468 C481 0.930 . S
H469 C482 0.930 . S
H470 C486 0.959 . S
H471 C486 0.959 . S
H472 C486 0.961 . S
H473 C487 0.960 . S
H474 C487 0.961 . S
H475 C487 0.959 . S
H476 C490 0.929 . S
H477 C491 0.931 . S
H478 C493 0.930 . S
C479 H467 0.930 . S
C479 C480 1.399 . S
C479 C484 1.399 . S
C480 C479 1.399 . S
C480 C481 1.376 . S
C481 H468 0.930 . S
C481 C480 1.376 . S
C481 C482 1.388 . S
C482 H469 0.930 . S
C482 C481 1.388 . S
C482 C483 1.390 . S
C483 C482 1.390 . S
C483 C484 1.394 . S
C483 C489 1.465 . S
C484 C479 1.399 . S
C484 C483 1.394 . S
C484 C485 1.516 1_565 S
C485 C484 1.516 1_545 S
C485 C486 1.502 . S
C485 C487 1.561 1_545 S
C485 C488 1.526 . S
C486 H470 0.959 . S
C486 H471 0.959 . S
C486 H472 0.961 . S
C486 C485 1.502 . S
C487 H473 0.960 . S
C487 H474 0.961 . S
C487 H475 0.959 . S
C487 C485 1.561 1_565 S
C488 C485 1.526 . S
C488 C489 1.396 1_545 S
C488 C493 1.390 . S
C489 C483 1.465 . S
C489 C488 1.396 1_565 S
C489 C490 1.399 . S
C490 H476 0.929 . S
C490 C489 1.399 . S
C490 C491 1.385 1_565 S
C491 H477 0.931 . S
C491 C490 1.385 1_545 S
C491 C492 1.389 . S
C492 C491 1.389 . S
C492 C493 1.387 . S
C493 H478 0.930 . S
C493 C488 1.390 . S
C493 C492 1.387 . S
H494 C506 0.930 . S
H495 C508 0.930 . S
H496 C509 0.930 . S
H497 C513 0.959 . S
H498 C513 0.959 . S
H499 C513 0.961 . S
H500 C514 0.960 . S
H501 C514 0.961 . S
H502 C514 0.959 1_545 S
H503 C517 0.929 . S
H504 C518 0.931 . S
H505 C520 0.916 1_565 S
C506 H494 0.930 . S
C506 C507 1.399 . S
C506 C511 1.399 . S
C507 C506 1.399 . S
C507 C508 1.376 1_565 S
C508 H495 0.930 . S
C508 C507 1.376 1_545 S
C508 C509 1.388 . S
C509 H496 0.930 . S
C509 C508 1.388 . S
C509 C510 1.390 . S
C510 C509 1.390 . S
C510 C511 1.394 1_545 S
C510 C516 1.465 . S
C511 C506 1.399 . S
C511 C510 1.394 1_565 S
C511 C512 1.516 . S
C512 C511 1.516 . S
C512 C513 1.502 . S
C512 C514 1.561 . S
C512 C515 1.526 . S
C513 H497 0.959 . S
C513 H498 0.959 . S
C513 H499 0.961 . S
C513 C512 1.502 . S
C514 H500 0.960 . S
C514 H501 0.961 . S
C514 H502 0.959 1_565 S
C514 C512 1.561 . S
C515 C512 1.526 . S
C515 C516 1.396 1_565 S
C515 C520 1.388 1_565 S
C516 C510 1.465 . S
C516 C515 1.396 1_545 S
C516 C517 1.399 . S
C517 H503 0.929 . S
C517 C516 1.399 . S
C517 C518 1.385 . S
C518 H504 0.931 . S
C518 C517 1.385 . S
C518 C519 1.389 . S
C519 C518 1.389 . S
C519 C520 1.403 . S
C520 H505 0.916 1_545 S
C520 C515 1.388 1_545 S
C520 C519 1.403 . S
H521 C533 0.930 . S
H522 C535 0.930 . S
H523 C536 0.930 . S
H524 C540 0.959 . S
H525 C540 0.959 . S
H526 C540 0.961 . S
H527 C541 0.960 . S
H528 C541 0.961 . S
H529 C541 0.959 . S
H530 C544 0.929 . S
H531 C545 0.931 . S
H532 C547 0.930 . S
C533 H521 0.930 . S
C533 C534 1.399 . S
C533 C538 1.399 . S
C534 C533 1.399 . S
C534 C535 1.376 . S
C535 H522 0.930 . S
C535 C534 1.376 . S
C535 C536 1.388 . S
C536 H523 0.930 . S
C536 C535 1.388 . S
C536 C537 1.390 . S
C537 C536 1.390 . S
C537 C538 1.394 . S
C537 C543 1.465 . S
C538 C533 1.399 . S
C538 C537 1.394 . S
C538 C539 1.516 1_545 S
C539 C538 1.516 1_565 S
C539 C540 1.502 . S
C539 C541 1.561 1_565 S
C539 C542 1.526 . S
C540 H524 0.959 . S
C540 H525 0.959 . S
C540 H526 0.961 . S
C540 C539 1.502 . S
C541 H527 0.960 . S
C541 H528 0.961 . S
C541 H529 0.959 . S
C541 C539 1.561 1_545 S
C542 C539 1.526 . S
C542 C543 1.396 1_565 S
C542 C547 1.390 . S
C543 C537 1.465 . S
C543 C542 1.396 1_545 S
C543 C544 1.399 . S
C544 H530 0.929 . S
C544 C543 1.399 . S
C544 C545 1.385 1_545 S
C545 H531 0.931 . S
C545 C544 1.385 1_565 S
C545 C546 1.389 . S
C546 C545 1.389 . S
C546 C547 1.387 . S
C547 H532 0.930 . S
C547 C542 1.390 . S
C547 C546 1.387 . S
H548 C560 0.930 . S
H549 C562 0.930 . S
H550 C563 0.930 . S
H551 C567 0.959 . S
H552 C567 0.959 1_455 S
H553 C567 0.961 . S
H554 C568 0.960 1_655 S
H555 C568 0.961 . S
H556 C568 0.959 . S
H557 C571 0.929 . S
H558 C572 0.931 . S
H559 C574 0.930 . S
C560 H548 0.930 . S
C560 C561 1.399 . S
C560 C565 1.399 . S
C561 C560 1.399 . S
C561 C562 1.376 . S
C562 H549 0.930 . S
C562 C561 1.376 . S
C562 C563 1.388 . S
C563 H550 0.930 . S
C563 C562 1.388 . S
C563 C564 1.390 . S
C564 C563 1.390 . S
C564 C565 1.394 . S
C564 C570 1.465 1_655 S
C565 C560 1.399 . S
C565 C564 1.394 . S
C565 C566 1.516 . S
C566 C565 1.516 . S
C566 C567 1.502 . S
C566 C568 1.561 1_655 S
C566 C569 1.526 1_655 S
C567 H551 0.959 . S
C567 H552 0.959 1_655 S
C567 H553 0.961 . S
C567 C566 1.502 . S
C568 H554 0.960 1_455 S
C568 H555 0.961 . S
C568 H556 0.959 . S
C568 C566 1.561 1_455 S
C569 C566 1.526 1_455 S
C569 C570 1.396 . S
C569 C574 1.390 . S
C570 C564 1.465 1_455 S
C570 C569 1.396 . S
C570 C571 1.399 . S
C571 H557 0.929 . S
C571 C570 1.399 . S
C571 C572 1.385 . S
C572 H558 0.931 . S
C572 C571 1.385 . S
C572 C573 1.389 . S
C573 C572 1.389 . S
C573 C574 1.387 . S
C574 H559 0.930 . S
C574 C569 1.390 . S
C574 C573 1.387 . S
H575 C587 0.930 . S
H576 C589 0.930 . S
H577 C590 0.930 . S
H578 C594 0.959 . S
H579 C594 0.959 . S
H580 C594 0.961 1_455 S
H581 C595 0.960 . S
H582 C595 0.961 1_655 S
H583 C595 0.959 . S
H584 C598 0.929 . S
H585 C599 0.931 . S
H586 C601 0.930 . S
C587 H575 0.930 . S
C587 C588 1.399 . S
C587 C592 1.399 . S
C588 C587 1.399 . S
C588 C589 1.376 . S
C589 H576 0.930 . S
C589 C588 1.376 . S
C589 C590 1.388 . S
C590 H577 0.930 . S
C590 C589 1.388 . S
C590 C591 1.390 . S
C591 C590 1.390 . S
C591 C592 1.394 . S
C591 C597 1.465 1_455 S
C592 C587 1.399 . S
C592 C591 1.394 . S
C592 C593 1.516 1_455 S
C593 C592 1.516 1_655 S
C593 C594 1.502 . S
C593 C595 1.561 1_655 S
C593 C596 1.526 . S
C594 H578 0.959 . S
C594 H579 0.959 . S
C594 H580 0.961 1_655 S
C594 C593 1.502 . S
C595 H581 0.960 . S
C595 H582 0.961 1_455 S
C595 H583 0.959 . S
C595 C593 1.561 1_455 S
C596 C593 1.526 . S
C596 C597 1.396 . S
C596 C601 1.390 . S
C597 C591 1.465 1_655 S
C597 C596 1.396 . S
C597 C598 1.399 . S
C598 H584 0.929 . S
C598 C597 1.399 . S
C598 C599 1.385 . S
C599 H585 0.931 . S
C599 C598 1.385 . S
C599 C600 1.389 . S
C600 C599 1.389 . S
C600 C601 1.387 . S
C601 H586 0.930 . S
C601 C596 1.390 . S
C601 C600 1.387 . S
H602 C614 0.930 . S
H603 C616 0.930 . S
H604 C617 0.930 . S
H605 C621 0.959 . S
H606 C621 0.959 1_455 S
H607 C621 0.961 . S
H608 C622 0.960 1_655 S
H609 C622 0.961 . S
H610 C622 0.959 . S
H611 C625 0.929 . S
H612 C626 0.931 . S
H613 C628 0.930 . S
C614 H602 0.930 . S
C614 C615 1.399 . S
C614 C619 1.399 . S
C615 C614 1.399 . S
C615 C616 1.376 . S
C616 H603 0.930 . S
C616 C615 1.376 . S
C616 C617 1.388 . S
C617 H604 0.930 . S
C617 C616 1.388 . S
C617 C618 1.390 . S
C618 C617 1.390 . S
C618 C619 1.394 . S
C618 C624 1.465 1_655 S
C619 C614 1.399 . S
C619 C618 1.394 . S
C619 C620 1.516 . S
C620 C619 1.516 . S
C620 C621 1.502 . S
C620 C622 1.561 1_655 S
C620 C623 1.526 1_655 S
C621 H605 0.959 . S
C621 H606 0.959 1_655 S
C621 H607 0.961 . S
C621 C620 1.502 . S
C622 H608 0.960 1_455 S
C622 H609 0.961 . S
C622 H610 0.959 . S
C622 C620 1.561 1_455 S
C623 C620 1.526 1_455 S
C623 C624 1.396 . S
C623 C628 1.390 . S
C624 C618 1.465 1_455 S
C624 C623 1.396 . S
C624 C625 1.399 . S
C625 H611 0.929 . S
C625 C624 1.399 . S
C625 C626 1.385 . S
C626 H612 0.931 . S
C626 C625 1.385 . S
C626 C627 1.389 . S
C627 C626 1.389 . S
C627 C628 1.387 . S
C628 H613 0.930 . S
C628 C623 1.390 . S
C628 C627 1.387 . S
H629 C641 0.930 . S
H630 C643 0.930 . S
H631 C644 0.930 . S
H632 C648 0.959 . S
H633 C648 0.959 . S
H634 C648 0.961 1_455 S
H635 C649 0.960 . S
H636 C649 0.961 1_655 S
H637 C649 0.959 . S
H638 C652 0.929 . S
H639 C653 0.931 . S
H640 C655 0.930 . S
C641 H629 0.930 . S
C641 C642 1.399 . S
C641 C646 1.399 . S
C642 C641 1.399 . S
C642 C643 1.376 . S
C643 H630 0.930 . S
C643 C642 1.376 . S
C643 C644 1.388 . S
C644 H631 0.930 . S
C644 C643 1.388 . S
C644 C645 1.390 . S
C645 C644 1.390 . S
C645 C646 1.394 . S
C645 C651 1.465 1_455 S
C646 C641 1.399 . S
C646 C645 1.394 . S
C646 C647 1.522 . S
C647 C646 1.522 . S
C647 C648 1.500 1_455 S
C647 C649 1.563 . S
C647 C650 1.519 1_455 S
C648 H632 0.959 . S
C648 H633 0.959 . S
C648 H634 0.961 1_655 S
C648 C647 1.500 1_655 S
C649 H635 0.960 . S
C649 H636 0.961 1_455 S
C649 H637 0.959 . S
C649 C647 1.563 . S
C650 C647 1.519 1_655 S
C650 C651 1.396 . S
C650 C655 1.390 . S
C651 C645 1.465 1_655 S
C651 C650 1.396 . S
C651 C652 1.399 . S
C652 H638 0.929 . S
C652 C651 1.399 . S
C652 C653 1.385 . S
C653 H639 0.931 . S
C653 C652 1.385 . S
C653 C654 1.389 . S
C654 C653 1.389 . S
C654 C655 1.387 . S
C655 H640 0.930 . S
C655 C650 1.390 . S
C655 C654 1.387 . S
H656 C668 0.930 . S
H657 C670 0.930 . S
H658 C671 0.930 . S
H659 C675 0.959 . S
H660 C675 0.959 . S
H661 C675 0.961 . S
H662 C676 0.960 . S
H663 C676 0.961 . S
H664 C676 0.959 . S
H665 C679 0.929 . S
H666 C680 0.931 . S
H667 C682 0.930 . S
C668 H656 0.930 . S
C668 C669 1.399 . S
C668 C673 1.399 . S
C669 C668 1.399 . S
C669 C670 1.376 . S
C670 H657 0.930 . S
C670 C669 1.376 . S
C670 C671 1.388 . S
C671 H658 0.930 . S
C671 C670 1.388 . S
C671 C672 1.390 . S
C672 C671 1.390 . S
C672 C673 1.394 . S
C672 C678 1.465 . S
C673 C668 1.399 . S
C673 C672 1.394 . S
C673 C674 1.516 . S
C674 C673 1.516 . S
C674 C675 1.502 . S
C674 C676 1.561 . S
C674 C677 1.526 . S
C675 H659 0.959 . S
C675 H660 0.959 . S
C675 H661 0.961 . S
C675 C674 1.502 . S
C676 H662 0.960 . S
C676 H663 0.961 . S
C676 H664 0.959 . S
C676 C674 1.561 . S
C677 C674 1.526 . S
C677 C678 1.396 . S
C677 C682 1.390 . S
C678 C672 1.465 . S
C678 C677 1.396 . S
C678 C679 1.399 . S
C679 H665 0.929 . S
C679 C678 1.399 . S
C679 C680 1.385 . S
C680 H666 0.931 . S
C680 C679 1.385 . S
C680 C681 1.389 . S
C681 C680 1.389 . S
C681 C682 1.387 . S
C682 H667 0.930 . S
C682 C677 1.390 . S
C682 C681 1.387 . S
H683 C695 0.930 . S
H684 C697 0.930 . S
H685 C698 0.930 . S
H686 C702 0.959 . S
H687 C702 0.959 . S
H688 C702 0.961 . S
H689 C703 0.960 . S
H690 C703 0.961 . S
H691 C703 0.959 . S
H692 C706 0.929 . S
H693 C707 0.931 . S
H694 C709 0.930 . S
C695 H683 0.930 . S
C695 C696 1.399 . S
C695 C700 1.399 . S
C696 C695 1.399 . S
C696 C697 1.376 . S
C697 H684 0.930 . S
C697 C696 1.376 . S
C697 C698 1.388 . S
C698 H685 0.930 . S
C698 C697 1.388 . S
C698 C699 1.390 . S
C699 C698 1.390 . S
C699 C700 1.394 . S
C699 C705 1.465 . S
C700 C695 1.399 . S
C700 C699 1.394 . S
C700 C701 1.516 . S
C701 C700 1.516 . S
C701 C702 1.502 . S
C701 C703 1.561 . S
C701 C704 1.526 . S
C702 H686 0.959 . S
C702 H687 0.959 . S
C702 H688 0.961 . S
C702 C701 1.502 . S
C703 H689 0.960 . S
C703 H690 0.961 . S
C703 H691 0.959 . S
C703 C701 1.561 . S
C704 C701 1.526 . S
C704 C705 1.396 . S
C704 C709 1.390 . S
C705 C699 1.465 . S
C705 C704 1.396 . S
C705 C706 1.399 . S
C706 H692 0.929 . S
C706 C705 1.399 . S
C706 C707 1.385 . S
C707 H693 0.931 . S
C707 C706 1.385 . S
C707 C708 1.389 . S
C708 C707 1.389 . S
C708 C709 1.387 . S
C709 H694 0.930 . S
C709 C704 1.390 . S
C709 C708 1.387 . S
H710 C722 0.930 . S
H711 C724 0.930 . S
H712 C725 0.930 . S
H713 C729 0.959 . S
H714 C729 0.959 . S
H715 C729 0.961 . S
H716 C730 0.960 . S
H717 C730 0.961 . S
H718 C730 0.959 . S
H719 C733 0.929 . S
H720 C734 0.931 . S
H721 C736 0.930 . S
C722 H710 0.930 . S
C722 C723 1.399 . S
C722 C727 1.399 . S
C723 C722 1.399 . S
C723 C724 1.376 . S
C724 H711 0.930 . S
C724 C723 1.376 . S
C724 C725 1.388 . S
C725 H712 0.930 . S
C725 C724 1.388 . S
C725 C726 1.390 . S
C726 C725 1.390 . S
C726 C727 1.394 . S
C726 C732 1.465 . S
C727 C722 1.399 . S
C727 C726 1.394 . S
C727 C728 1.516 . S
C728 C727 1.516 . S
C728 C729 1.502 . S
C728 C730 1.561 . S
C728 C731 1.526 . S
C729 H713 0.959 . S
C729 H714 0.959 . S
C729 H715 0.961 . S
C729 C728 1.502 . S
C730 H716 0.960 . S
C730 H717 0.961 . S
C730 H718 0.959 . S
C730 C728 1.561 . S
C731 C728 1.526 . S
C731 C732 1.396 . S
C731 C736 1.390 . S
C732 C726 1.465 . S
C732 C731 1.396 . S
C732 C733 1.399 . S
C733 H719 0.929 . S
C733 C732 1.399 . S
C733 C734 1.385 . S
C734 H720 0.931 . S
C734 C733 1.385 . S
C734 C735 1.389 . S
C735 C734 1.389 . S
C735 C736 1.387 . S
C736 H721 0.930 . S
C736 C731 1.390 . S
C736 C735 1.387 . S
H737 C749 0.930 . S
H738 C751 0.930 . S
H739 C752 0.930 . S
H740 C756 0.959 . S
H741 C756 0.959 . S
H742 C756 0.961 . S
H743 C757 0.960 . S
H744 C757 0.961 . S
H745 C757 0.959 . S
H746 C760 0.929 . S
H747 C761 0.931 . S
H748 C763 0.930 . S
C749 H737 0.930 . S
C749 C750 1.399 . S
C749 C754 1.399 . S
C750 C749 1.399 . S
C750 C751 1.376 . S
C751 H738 0.930 . S
C751 C750 1.376 . S
C751 C752 1.388 . S
C752 H739 0.930 . S
C752 C751 1.388 . S
C752 C753 1.390 . S
C753 C752 1.390 . S
C753 C754 1.394 . S
C753 C759 1.465 . S
C754 C749 1.399 . S
C754 C753 1.394 . S
C754 C755 1.516 . S
C755 C754 1.516 . S
C755 C756 1.502 . S
C755 C757 1.561 . S
C755 C758 1.526 . S
C756 H740 0.959 . S
C756 H741 0.959 . S
C756 H742 0.961 . S
C756 C755 1.502 . S
C757 H743 0.960 . S
C757 H744 0.961 . S
C757 H745 0.959 . S
C757 C755 1.561 . S
C758 C755 1.526 . S
C758 C759 1.396 . S
C758 C763 1.390 . S
C759 C753 1.465 . S
C759 C758 1.396 . S
C759 C760 1.399 . S
C760 H746 0.929 . S
C760 C759 1.399 . S
C760 C761 1.385 . S
C761 H747 0.931 . S
C761 C760 1.385 . S
C761 C762 1.389 . S
C762 C761 1.389 . S
C762 C763 1.387 . S
C763 H748 0.930 . S
C763 C758 1.390 . S
C763 C762 1.387 . S
H764 C776 0.930 . S
H765 C778 0.930 . S
H766 C779 0.930 . S
H767 C783 0.959 . S
H768 C783 0.959 . S
H769 C783 0.961 . S
H770 C784 0.960 . S
H771 C784 0.961 . S
H772 C784 0.959 . S
H773 C787 0.929 . S
H774 C788 0.931 . S
H775 C790 0.930 . S
C776 H764 0.930 . S
C776 C777 1.399 . S
C776 C781 1.399 . S
C777 C776 1.399 . S
C777 C778 1.376 . S
C778 H765 0.930 . S
C778 C777 1.376 . S
C778 C779 1.388 . S
C779 H766 0.930 . S
C779 C778 1.388 . S
C779 C780 1.390 . S
C780 C779 1.390 . S
C780 C781 1.394 . S
C780 C786 1.465 . S
C781 C776 1.399 . S
C781 C780 1.394 . S
C781 C782 1.516 . S
C782 C781 1.516 . S
C782 C783 1.502 . S
C782 C784 1.561 . S
C782 C785 1.526 . S
C783 H767 0.959 . S
C783 H768 0.959 . S
C783 H769 0.961 . S
C783 C782 1.502 . S
C784 H770 0.960 . S
C784 H771 0.961 . S
C784 H772 0.959 . S
C784 C782 1.561 . S
C785 C782 1.526 . S
C785 C786 1.396 . S
C785 C790 1.390 . S
C786 C780 1.465 . S
C786 C785 1.396 . S
C786 C787 1.399 . S
C787 H773 0.929 . S
C787 C786 1.399 . S
C787 C788 1.385 . S
C788 H774 0.931 . S
C788 C787 1.385 . S
C788 C789 1.389 . S
C789 C788 1.389 . S
C789 C790 1.387 . S
C790 H775 0.930 . S
C790 C785 1.390 . S
C790 C789 1.387 . S
H791 C803 0.930 . S
H792 C805 0.930 . S
H793 C806 0.930 . S
H794 C810 0.959 . S
H795 C810 0.959 . S
H796 C810 0.961 . S
H797 C811 0.960 . S
H798 C811 0.961 . S
H799 C811 0.959 . S
H800 C814 0.929 . S
H801 C815 0.931 . S
H802 C817 0.930 . S
C803 H791 0.930 . S
C803 C804 1.399 . S
C803 C808 1.399 . S
C804 C803 1.399 . S
C804 C805 1.376 . S
C805 H792 0.930 . S
C805 C804 1.376 . S
C805 C806 1.388 . S
C806 H793 0.930 . S
C806 C805 1.388 . S
C806 C807 1.390 . S
C807 C806 1.390 . S
C807 C808 1.394 . S
C807 C813 1.465 . S
C808 C803 1.399 . S
C808 C807 1.394 . S
C808 C809 1.516 . S
C809 C808 1.516 . S
C809 C810 1.502 . S
C809 C811 1.561 . S
C809 C812 1.526 . S
C810 H794 0.959 . S
C810 H795 0.959 . S
C810 H796 0.961 . S
C810 C809 1.502 . S
C811 H797 0.960 . S
C811 H798 0.961 . S
C811 H799 0.959 . S
C811 C809 1.561 . S
C812 C809 1.526 . S
C812 C813 1.396 . S
C812 C817 1.390 . S
C813 C807 1.465 . S
C813 C812 1.396 . S
C813 C814 1.399 . S
C814 H800 0.929 . S
C814 C813 1.399 . S
C814 C815 1.385 . S
C815 H801 0.931 . S
C815 C814 1.385 . S
C815 C816 1.389 . S
C816 C815 1.389 . S
C816 C817 1.387 . S
C817 H802 0.930 . S
C817 C812 1.390 . S
C817 C816 1.387 . S
H818 C830 0.930 . S
H819 C832 0.930 . S
H820 C833 0.930 . S
H821 C837 0.959 . S
H822 C837 0.959 . S
H823 C837 0.961 . S
H824 C838 0.960 . S
H825 C838 0.961 . S
H826 C838 0.959 . S
H827 C841 0.929 . S
H828 C842 0.931 . S
H829 C844 0.930 . S
C830 H818 0.930 . S
C830 C831 1.399 . S
C830 C835 1.399 . S
C831 C830 1.399 . S
C831 C832 1.376 . S
C832 H819 0.930 . S
C832 C831 1.376 . S
C832 C833 1.388 . S
C833 H820 0.930 . S
C833 C832 1.388 . S
C833 C834 1.390 . S
C834 C833 1.390 . S
C834 C835 1.394 . S
C834 C840 1.465 . S
C835 C830 1.399 . S
C835 C834 1.394 . S
C835 C836 1.516 . S
C836 C835 1.516 . S
C836 C837 1.502 . S
C836 C838 1.561 . S
C836 C839 1.526 . S
C837 H821 0.959 . S
C837 H822 0.959 . S
C837 H823 0.961 . S
C837 C836 1.502 . S
C838 H824 0.960 . S
C838 H825 0.961 . S
C838 H826 0.959 . S
C838 C836 1.561 . S
C839 C836 1.526 . S
C839 C840 1.396 . S
C839 C844 1.390 . S
C840 C834 1.465 . S
C840 C839 1.396 . S
C840 C841 1.399 . S
C841 H827 0.929 . S
C841 C840 1.399 . S
C841 C842 1.385 . S
C842 H828 0.931 . S
C842 C841 1.385 . S
C842 C843 1.389 . S
C843 C842 1.389 . S
C843 C844 1.387 . S
C844 H829 0.930 . S
C844 C839 1.390 . S
C844 C843 1.387 . S
H845 C857 0.930 . S
H846 C859 0.930 . S
H847 C860 0.930 . S
H848 C864 0.959 . S
H849 C864 0.959 . S
H850 C864 0.961 . S
H851 C865 0.960 . S
H852 C865 0.961 . S
H853 C865 0.959 . S
H854 C868 0.929 . S
H855 C869 0.931 . S
H856 C871 0.930 . S
C857 H845 0.930 . S
C857 C858 1.399 . S
C857 C862 1.399 . S
C858 C857 1.399 . S
C858 C859 1.376 . S
C859 H846 0.930 . S
C859 C858 1.376 . S
C859 C860 1.388 . S
C860 H847 0.930 . S
C860 C859 1.388 . S
C860 C861 1.390 . S
C861 C860 1.390 . S
C861 C862 1.394 . S
C861 C867 1.465 . S
C862 C857 1.399 . S
C862 C861 1.394 . S
C862 C863 1.516 . S
C863 C862 1.516 . S
C863 C864 1.502 . S
C863 C865 1.561 . S
C863 C866 1.526 . S
C864 H848 0.959 . S
C864 H849 0.959 . S
C864 H850 0.961 . S
C864 C863 1.502 . S
C865 H851 0.960 . S
C865 H852 0.961 . S
C865 H853 0.959 . S
C865 C863 1.561 . S
C866 C863 1.526 . S
C866 C867 1.396 . S
C866 C871 1.390 . S
C867 C861 1.465 . S
C867 C866 1.396 . S
C867 C868 1.399 . S
C868 H854 0.929 . S
C868 C867 1.399 . S
C868 C869 1.385 . S
C869 H855 0.931 . S
C869 C868 1.385 . S
C869 C870 1.389 . S
C870 C869 1.389 . S
C870 C871 1.387 . S
C871 H856 0.930 . S
C871 C866 1.390 . S
C871 C870 1.387 . S
H872 C884 0.930 . S
H873 C886 0.930 . S
H874 C887 0.930 . S
H875 C891 0.959 . S
H876 C891 0.959 . S
H877 C891 0.961 . S
H878 C892 0.960 . S
H879 C892 0.961 . S
H880 C892 0.959 . S
H881 C895 0.929 . S
H882 C896 0.931 . S
H883 C898 0.930 . S
C884 H872 0.930 . S
C884 C885 1.406 . S
C884 C889 1.399 . S
C885 C884 1.406 . S
C885 C886 1.368 1_545 S
C886 H873 0.930 . S
C886 C885 1.368 1_565 S
C886 C887 1.388 . S
C887 H874 0.930 . S
C887 C886 1.388 . S
C887 C888 1.390 . S
C888 C887 1.390 . S
C888 C889 1.394 1_565 S
C888 C894 1.465 . S
C889 C884 1.399 . S
C889 C888 1.394 1_545 S
C889 C890 1.516 . S
C890 C889 1.516 . S
C890 C891 1.502 . S
C890 C892 1.561 . S
C890 C893 1.526 . S
C891 H875 0.959 . S
C891 H876 0.959 . S
C891 H877 0.961 . S
C891 C890 1.502 . S
C892 H878 0.960 . S
C892 H879 0.961 . S
C892 H880 0.959 . S
C892 C890 1.561 . S
C893 C890 1.526 . S
C893 C894 1.396 1_545 S
C893 C898 1.390 . S
C894 C888 1.465 . S
C894 C893 1.396 1_565 S
C894 C895 1.399 . S
C895 H881 0.929 . S
C895 C894 1.399 . S
C895 C896 1.385 . S
C896 H882 0.931 . S
C896 C895 1.385 . S
C896 C897 1.389 . S
C897 C896 1.389 . S
C897 C898 1.387 1_565 S
C898 H883 0.930 . S
C898 C893 1.390 . S
C898 C897 1.387 1_545 S
H899 C911 0.930 . S
H900 C913 0.930 . S
H901 C914 0.930 . S
H902 C918 0.959 . S
H903 C918 0.959 . S
H904 C918 0.961 . S
H905 C919 0.960 . S
H906 C919 0.961 . S
H907 C919 0.959 . S
H908 C922 0.929 . S
H909 C923 0.931 . S
H910 C925 0.930 . S
C911 H899 0.930 . S
C911 C912 1.399 1_565 S
C911 C916 1.399 . S
C912 C911 1.399 1_545 S
C912 C913 1.376 . S
C913 H900 0.930 . S
C913 C912 1.376 . S
C913 C914 1.388 . S
C914 H901 0.930 . S
C914 C913 1.388 . S
C914 C915 1.390 . S
C915 C914 1.390 . S
C915 C916 1.394 1_545 S
C915 C921 1.465 . S
C916 C911 1.399 . S
C916 C915 1.394 1_565 S
C916 C917 1.516 . S
C917 C916 1.516 . S
C917 C918 1.502 . S
C917 C919 1.561 . S
C917 C920 1.526 . S
C918 H902 0.959 . S
C918 H903 0.959 . S
C918 H904 0.961 . S
C918 C917 1.502 . S
C919 H905 0.960 . S
C919 H906 0.961 . S
C919 H907 0.959 . S
C919 C917 1.561 . S
C920 C917 1.526 . S
C920 C921 1.396 1_565 S
C920 C925 1.390 . S
C921 C915 1.465 . S
C921 C920 1.396 1_545 S
C921 C922 1.399 . S
C922 H908 0.929 . S
C922 C921 1.399 . S
C922 C923 1.385 . S
C923 H909 0.931 . S
C923 C922 1.385 . S
C923 C924 1.404 . S
C924 C923 1.404 . S
C924 C925 1.375 1_545 S
C925 H910 0.930 . S
C925 C920 1.390 . S
C925 C924 1.375 1_565 S
H926 C938 0.930 . S
H927 C940 0.930 . S
H928 C941 0.930 . S
H929 C945 0.959 . S
H930 C945 0.959 . S
H931 C945 0.961 . S
H932 C946 0.960 . S
H933 C946 0.961 . S
H934 C946 0.959 . S
H935 C949 0.929 . S
H936 C950 0.931 . S
H937 C952 0.930 . S
C938 H926 0.930 . S
C938 C939 1.404 . S
C938 C943 1.399 . S
C939 C938 1.404 . S
C939 C940 1.371 1_545 S
C940 H927 0.930 . S
C940 C939 1.371 1_565 S
C940 C941 1.388 . S
C941 H928 0.930 . S
C941 C940 1.388 . S
C941 C942 1.390 . S
C942 C941 1.390 . S
C942 C943 1.394 1_565 S
C942 C948 1.465 . S
C943 C938 1.399 . S
C943 C942 1.394 1_545 S
C943 C944 1.516 . S
C944 C943 1.516 . S
C944 C945 1.502 . S
C944 C946 1.561 . S
C944 C947 1.526 . S
C945 H929 0.959 . S
C945 H930 0.959 . S
C945 H931 0.961 . S
C945 C944 1.502 . S
C946 H932 0.960 . S
C946 H933 0.961 . S
C946 H934 0.959 . S
C946 C944 1.561 . S
C947 C944 1.526 . S
C947 C948 1.396 1_545 S
C947 C952 1.390 . S
C948 C942 1.465 . S
C948 C947 1.396 1_565 S
C948 C949 1.399 . S
C949 H935 0.929 . S
C949 C948 1.399 . S
C949 C950 1.385 . S
C950 H936 0.931 . S
C950 C949 1.385 . S
C950 C951 1.389 . S
C951 C950 1.389 . S
C951 C952 1.387 1_565 S
C952 H937 0.930 . S
C952 C947 1.390 . S
C952 C951 1.387 1_545 S
H953 C965 0.930 . S
H954 C967 0.930 . S
H955 C968 0.930 . S
H956 C972 0.959 1_545 S
H957 C972 0.959 . S
H958 C972 0.961 . S
H959 C973 0.960 . S
H960 C973 0.961 . S
H961 C973 0.959 . S
H962 C976 0.929 . S
H963 C977 0.931 . S
H964 C979 0.930 . S
C965 H953 0.930 . S
C965 C966 1.399 . S
C965 C970 1.399 . S
C966 C965 1.399 . S
C966 C967 1.376 1_565 S
C967 H954 0.930 . S
C967 C966 1.376 1_545 S
C967 C968 1.388 . S
C968 H955 0.930 . S
C968 C967 1.388 . S
C968 C969 1.390 . S
C969 C968 1.390 . S
C969 C970 1.394 1_545 S
C969 C975 1.465 . S
C970 C965 1.399 . S
C970 C969 1.394 1_565 S
C970 C971 1.516 . S
C971 C970 1.516 . S
C971 C972 1.502 . S
C971 C973 1.561 . S
C971 C974 1.526 . S
C972 H956 0.959 1_565 S
C972 H957 0.959 . S
C972 H958 0.961 . S
C972 C971 1.502 . S
C973 H959 0.960 . S
C973 H960 0.961 . S
C973 H961 0.959 . S
C973 C971 1.561 . S
C974 C971 1.526 . S
C974 C975 1.396 1_565 S
C974 C979 1.390 . S
C975 C969 1.465 . S
C975 C974 1.396 1_545 S
C975 C976 1.399 . S
C976 H962 0.929 . S
C976 C975 1.399 . S
C976 C977 1.385 . S
C977 H963 0.931 . S
C977 C976 1.385 . S
C977 C978 1.389 . S
C978 C977 1.389 . S
C978 C979 1.387 1_545 S
C979 H964 0.930 . S
C979 C974 1.390 . S
C979 C978 1.387 1_565 S
H980 C992 0.930 . S
H981 C994 0.930 . S
H982 C995 0.930 . S
H983 C999 0.959 . S
H984 C999 0.959 . S
H985 C999 0.961 . S
H986 C1000 0.960 . S
H987 C1000 0.961 . S
H988 C1000 0.959 . S
H989 C1003 0.929 . S
H990 C1004 0.931 . S
H991 C1006 0.930 . S
C992 H980 0.930 . S
C992 C993 1.399 . S
C992 C997 1.399 . S
C993 C992 1.399 . S
C993 C994 1.376 . S
C994 H981 0.930 . S
C994 C993 1.376 . S
C994 C995 1.388 . S
C995 H982 0.930 . S
C995 C994 1.388 . S
C995 C996 1.390 . S
C996 C995 1.390 . S
C996 C997 1.394 . S
C996 C1002 1.465 . S
C997 C992 1.399 . S
C997 C996 1.394 . S
C997 C998 1.516 . S
C998 C997 1.516 . S
C998 C999 1.502 . S
C998 C1000 1.561 . S
C998 C1001 1.526 . S
C999 H983 0.959 . S
C999 H984 0.959 . S
C999 H985 0.961 . S
C999 C998 1.502 . S
C1000 H986 0.960 . S
C1000 H987 0.961 . S
C1000 H988 0.959 . S
C1000 C998 1.561 . S
C1001 C998 1.526 . S
C1001 C1002 1.396 . S
C1001 C1006 1.390 . S
C1002 C996 1.465 . S
C1002 C1001 1.396 . S
C1002 C1003 1.399 . S
C1003 H989 0.929 . S
C1003 C1002 1.399 . S
C1003 C1004 1.385 . S
C1004 H990 0.931 . S
C1004 C1003 1.385 . S
C1004 C1005 1.389 . S
C1005 C1004 1.389 . S
C1005 C1006 1.387 . S
C1006 H991 0.930 . S
C1006 C1001 1.390 . S
C1006 C1005 1.387 . S
H1007 C1019 0.930 . S
H1008 C1021 0.930 . S
H1009 C1022 0.930 . S
H1010 C1026 0.959 . S
H1011 C1026 0.959 . S
H1012 C1026 0.961 . S
H1013 C1027 0.960 . S
H1014 C1027 0.961 . S
H1015 C1027 0.959 . S
H1016 C1030 0.929 . S
H1017 C1031 0.931 . S
H1018 C1033 0.930 . S
C1019 H1007 0.930 . S
C1019 C1020 1.399 . S
C1019 C1024 1.399 . S
C1020 C1019 1.399 . S
C1020 C1021 1.376 . S
C1021 H1008 0.930 . S
C1021 C1020 1.376 . S
C1021 C1022 1.388 . S
C1022 H1009 0.930 . S
C1022 C1021 1.388 . S
C1022 C1023 1.390 . S
C1023 C1022 1.390 . S
C1023 C1024 1.394 . S
C1023 C1029 1.465 . S
C1024 C1019 1.399 . S
C1024 C1023 1.394 . S
C1024 C1025 1.516 . S
C1025 C1024 1.516 . S
C1025 C1026 1.502 . S
C1025 C1027 1.561 . S
C1025 C1028 1.526 . S
C1026 H1010 0.959 . S
C1026 H1011 0.959 . S
C1026 H1012 0.961 . S
C1026 C1025 1.502 . S
C1027 H1013 0.960 . S
C1027 H1014 0.961 . S
C1027 H1015 0.959 . S
C1027 C1025 1.561 . S
C1028 C1025 1.526 . S
C1028 C1029 1.396 . S
C1028 C1033 1.390 . S
C1029 C1023 1.465 . S
C1029 C1028 1.396 . S
C1029 C1030 1.399 . S
C1030 H1016 0.929 . S
C1030 C1029 1.399 . S
C1030 C1031 1.385 . S
C1031 H1017 0.931 . S
C1031 C1030 1.385 . S
C1031 C1032 1.389 . S
C1032 C1031 1.389 . S
C1032 C1033 1.387 . S
C1033 H1018 0.930 . S
C1033 C1028 1.390 . S
C1033 C1032 1.387 . S
H1034 C1046 0.930 . S
H1035 C1048 0.930 . S
H1036 C1049 0.930 . S
H1037 C1053 0.959 . S
H1038 C1053 0.959 . S
H1039 C1053 0.961 . S
H1040 C1054 0.960 . S
H1041 C1054 0.961 . S
H1042 C1054 0.959 . S
H1043 C1057 0.929 . S
H1044 C1058 0.931 . S
H1045 C1060 0.930 . S
C1046 H1034 0.930 . S
C1046 C1047 1.399 . S
C1046 C1051 1.399 . S
C1047 C1046 1.399 . S
C1047 C1048 1.376 . S
C1048 H1035 0.930 . S
C1048 C1047 1.376 . S
C1048 C1049 1.388 . S
C1049 H1036 0.930 . S
C1049 C1048 1.388 . S
C1049 C1050 1.390 . S
C1050 C1049 1.390 . S
C1050 C1051 1.394 . S
C1050 C1056 1.465 . S
C1051 C1046 1.399 . S
C1051 C1050 1.394 . S
C1051 C1052 1.516 . S
C1052 C1051 1.516 . S
C1052 C1053 1.502 . S
C1052 C1054 1.561 . S
C1052 C1055 1.526 . S
C1053 H1037 0.959 . S
C1053 H1038 0.959 . S
C1053 H1039 0.961 . S
C1053 C1052 1.502 . S
C1054 H1040 0.960 . S
C1054 H1041 0.961 . S
C1054 H1042 0.959 . S
C1054 C1052 1.561 . S
C1055 C1052 1.526 . S
C1055 C1056 1.396 . S
C1055 C1060 1.390 . S
C1056 C1050 1.465 . S
C1056 C1055 1.396 . S
C1056 C1057 1.399 . S
C1057 H1043 0.929 . S
C1057 C1056 1.399 . S
C1057 C1058 1.385 . S
C1058 H1044 0.931 . S
C1058 C1057 1.385 . S
C1058 C1059 1.389 . S
C1059 C1058 1.389 . S
C1059 C1060 1.387 . S
C1060 H1045 0.930 . S
C1060 C1055 1.390 . S
C1060 C1059 1.387 . S
H1061 C1073 0.930 . S
H1062 C1075 0.930 . S
H1063 C1076 0.930 . S
H1064 C1080 0.959 . S
H1065 C1080 0.959 . S
H1066 C1080 0.961 . S
H1067 C1081 0.960 . S
H1068 C1081 0.961 . S
H1069 C1081 0.959 . S
H1070 C1084 0.929 . S
H1071 C1085 0.931 . S
H1072 C1087 0.930 . S
C1073 H1061 0.930 . S
C1073 C1074 1.399 . S
C1073 C1078 1.399 . S
C1074 C1073 1.399 . S
C1074 C1075 1.376 . S
C1075 H1062 0.930 . S
C1075 C1074 1.376 . S
C1075 C1076 1.388 . S
C1076 H1063 0.930 . S
C1076 C1075 1.388 . S
C1076 C1077 1.390 . S
C1077 C1076 1.390 . S
C1077 C1078 1.394 . S
C1077 C1083 1.465 . S
C1078 C1073 1.399 . S
C1078 C1077 1.394 . S
C1078 C1079 1.516 . S
C1079 C1078 1.516 . S
C1079 C1080 1.502 . S
C1079 C1081 1.561 . S
C1079 C1082 1.526 . S
C1080 H1064 0.959 . S
C1080 H1065 0.959 . S
C1080 H1066 0.961 . S
C1080 C1079 1.502 . S
C1081 H1067 0.960 . S
C1081 H1068 0.961 . S
C1081 H1069 0.959 . S
C1081 C1079 1.561 . S
C1082 C1079 1.526 . S
C1082 C1083 1.396 . S
C1082 C1087 1.390 . S
C1083 C1077 1.465 . S
C1083 C1082 1.396 . S
C1083 C1084 1.399 . S
C1084 H1070 0.929 . S
C1084 C1083 1.399 . S
C1084 C1085 1.385 . S
C1085 H1071 0.931 . S
C1085 C1084 1.385 . S
C1085 C1086 1.389 . S
C1086 C1085 1.389 . S
C1086 C1087 1.387 . S
C1087 H1072 0.930 . S
C1087 C1082 1.390 . S
C1087 C1086 1.387 . S
C237 C7 1.267 . S
C249 C77 1.259 . S
C264 C63 1.261 . S
C276 C21 1.252 . S
C291 C35 1.266 . S
C303 C105 1.258 . S
C318 C91 1.278 . S
C330 C49 1.272 . S
C345 C189 1.223 . S
C357 C119 1.229 . S
C372 C175 1.279 . S
C384 C133 1.274 . S
C399 C217 1.225 . S
C411 C147 1.232 . S
C426 C161 1.237 . S
C438 C203 1.247 . S
C453 C23 1.480 . S
C465 C9 1.488 . S
C480 C37 1.496 . S
C492 C51 1.472 . S
C507 C65 1.460 . S
C519 C79 1.497 . S
C534 C93 1.494 . S
C546 C107 1.471 . S
C561 C121 1.498 . S
C573 C135 1.469 . S
C588 C163 1.464 . S
C600 C149 1.489 . S
C615 C191 1.496 . S
C627 C177 1.470 . S
C642 C205 1.470 . S
C654 C219 1.485 . S
C669 C134 1.504 . S
C681 C8 1.514 . S
C696 C22 1.505 . S
C708 C120 1.517 . S
C723 C162 1.516 . S
C735 C36 1.508 . S
C750 C50 1.516 . S
C762 C148 1.508 . S
C777 C64 1.512 . S
C789 C190 1.508 . S
C804 C176 1.507 . S
C816 C78 1.514 . S
C831 C92 1.513 . S
C843 C218 1.507 . S
C858 C204 1.504 . S
C870 C106 1.516 . S
C885 C3 1.266 . S
C897 C31 1.196 . S
C912 C45 1.226 . S
C924 C17 1.290 1_545 S
C939 C87 1.298 . S
C951 C59 1.218 . S
C966 C101 1.267 . S
C978 C73 1.260 . S
C993 C143 1.240 . S
C1005 C115 1.296 . S
C1020 C129 1.261 . S
C1032 C157 1.196 . S
C1047 C199 1.292 . S
C1059 C171 1.226 . S
C1074 C185 1.197 . S
C1086 C213 1.278 . S
