# Generated by pormake.
# Topology rob, (6)-cn, num edge types: 1
# Building blocks:
#     Node 0, Type 0, BuildingBlock: INOVEN_clean_sbu_0, # of connection points: 6
#     Node 1, Type 0, BuildingBlock: INOVEN_clean_sbu_0, # of connection points: 6
#     Node 2, Type 0, BuildingBlock: INOVEN_clean_sbu_0, # of connection points: 6
#     Node 3, Type 0, BuildingBlock: INOVEN_clean_sbu_0, # of connection points: 6
#     Edge 4, Type (0, 0), BuildingBlock: TEMPAE_clean_linker_10, # of connection points: 2
#     Edge 5, Type (0, 0), BuildingBlock: TEMPAE_clean_linker_10, # of connection points: 2
#     Edge 6, Type (0, 0), BuildingBlock: TEMPAE_clean_linker_10, # of connection points: 2
#     Edge 7, Type (0, 0), BuildingBlock: TEMPAE_clean_linker_10, # of connection points: 2
#     Edge 8, Type (0, 0), BuildingBlock: TEMPAE_clean_linker_10, # of connection points: 2
#     Edge 9, Type (0, 0), BuildingBlock: TEMPAE_clean_linker_10, # of connection points: 2
#     Edge 10, Type (0, 0), BuildingBlock: TEMPAE_clean_linker_10, # of connection points: 2
#     Edge 11, Type (0, 0), BuildingBlock: TEMPAE_clean_linker_10, # of connection points: 2
#     Edge 12, Type (0, 0), BuildingBlock: TEMPAE_clean_linker_10, # of connection points: 2
#     Edge 13, Type (0, 0), BuildingBlock: TEMPAE_clean_linker_10, # of connection points: 2
#     Edge 14, Type (0, 0), BuildingBlock: TEMPAE_clean_linker_10, # of connection points: 2
#     Edge 15, Type (0, 0), BuildingBlock: TEMPAE_clean_linker_10, # of connection points: 2
# Relax obj value: 0.126
# Max RMSD: 0.187
# Mean RMSD: 0.187
data_MOF--net-rob--node1-INOVEN_clean_sbu_0--edge1-TEMPAE_clean_linker_10
_symmetry_space_group_name_H-M    P1
_symmetry_Int_Tables_number       1
_symmetry_cell_setting            triclinic
loop_
_symmetry_equiv_pos_as_xyz
'x, y, z'
_cell_length_a     16.585827
_cell_length_b     23.907618
_cell_length_c     37.56135
_cell_angle_alpha  89.939122
_cell_angle_beta   125.7237
_cell_angle_gamma 90.025648
loop_
_atom_site_label
_atom_site_type_symbol
_atom_site_fract_x
_atom_site_fract_y
_atom_site_fract_z
_atom_type_partial_charge
Gd0 Gd 0.19478 0.28395 0.00261 0.0
Gd1 Gd 0.36003 0.23233 1.00049 0.0
C2 C 0.40313 0.24465 0.09255 0.0
C3 C 0.07214 0.30688 0.02218 0.0
C4 C 0.07191 0.30211 0.06152 0.0
C5 C 0.1482 0.32553 0.10196 0.0
C6 C 0.99324 0.2747 0.05848 0.0
C7 C 0.06525 0.29573 0.13525 0.0
C8 C 0.99003 0.27137 0.09489 0.0
C9 C 0.14464 0.32261 0.13826 0.0
C10 C 0.30659 0.3594 0.99593 0.0
C11 C 0.15105 0.26998 0.90993 0.0
C12 C 0.48457 0.20581 0.98277 0.0
C13 C 0.48799 0.21105 0.94447 0.0
C14 C 0.52307 0.16607 0.93318 0.0
C15 C 0.45342 0.25923 0.91805 0.0
C16 C 0.48966 0.21722 0.86956 0.0
C17 C 0.45483 0.26242 0.88118 0.0
C18 C 0.5236 0.16896 0.89611 0.0
C19 C 0.24611 0.15772 0.00658 0.0
O20 O 0.30638 0.2515 0.07092 0.0
O21 O 0.44783 0.24392 0.0729 0.0
O22 O 0.13269 0.34356 0.02377 0.0
O23 O 0.06902 0.26018 0.00333 0.0
O24 O 0.21266 0.3656 0.97823 0.0
O25 O 0.33915 0.31557 0.01925 0.0
O26 O 0.24746 0.26137 0.93132 0.0
O27 O 0.10717 0.27483 0.92989 0.0
O28 O 0.41813 0.17125 0.9782 0.0
O29 O 0.49108 0.25186 0.00307 0.0
O30 O 0.34104 0.15207 0.02635 0.0
O31 O 0.21529 0.20132 0.98311 0.0
H32 H 0.21026 0.34674 0.10554 0.0
H33 H 0.93382 0.25601 0.02778 0.0
H34 H 0.92866 0.24941 0.09139 0.0
H35 H 0.20331 0.34255 0.16844 0.0
H36 H 0.54904 0.12826 0.95281 0.0
H37 H 0.42487 0.29435 0.92571 0.0
H38 H 0.42923 0.30055 0.86199 0.0
H39 H 0.54908 0.13285 0.8879 0.0
Gd40 Gd 0.67313 0.78775 0.99361 0.0
Gd41 Gd 0.86727 0.74302 0.01387 0.0
C42 C 0.85925 0.75613 0.09391 0.0
C43 C 0.52413 0.80701 0.99682 0.0
C44 C 0.51045 0.80321 0.03237 0.0
C45 C 0.47176 0.84916 0.041 0.0
C46 C 0.54158 0.75594 0.05973 0.0
C47 C 0.49725 0.80137 0.10438 0.0
C48 C 0.5346 0.75493 0.09515 0.0
C49 C 0.46553 0.84839 0.0766 0.0
C50 C 0.79781 0.86549 0.99954 0.0
C51 C 0.67947 0.77209 0.91271 0.0
C52 C 0.01792 0.72703 0.01142 0.0
C53 C 0.02987 0.72959 0.97527 0.0
C54 C 0.05711 0.68122 0.96349 0.0
C55 C 1.009 0.77881 0.95065 0.0
C56 C 0.03967 0.73054 0.90252 0.0
C57 C 1.01429 0.7793 0.91479 0.0
C58 C 0.06152 0.68159 0.9274 0.0
C59 C 0.74393 0.66473 0.00873 0.0
O60 O 0.76218 0.75945 0.06428 0.0
O61 O 0.92197 0.75755 0.08313 0.0
O62 O 0.5849 0.84615 0.00166 0.0
O63 O 0.53517 0.76 0.98216 0.0
O64 O 0.70224 0.86759 0.97071 0.0
O65 O 0.8225 0.82392 0.02453 0.0
O66 O 0.77624 0.76611 0.94214 0.0
O67 O 0.61748 0.7752 0.92392 0.0
O68 O 0.96267 0.68615 0.00922 0.0
O69 O 1.00175 0.77436 0.02385 0.0
O70 O 0.83999 0.66256 0.03661 0.0
O71 O 0.71823 0.70634 0.98353 0.0
H72 H 0.44829 0.88631 0.0207 0.0
H73 H 0.57255 0.71994 0.05417 0.0
H74 H 0.55848 0.71762 0.11525 0.0
H75 H 0.43812 0.88538 0.08292 0.0
H76 H 0.07351 0.64277 0.98184 0.0
H77 H 0.98694 0.81676 0.95855 0.0
H78 H 0.99616 0.81749 0.896 0.0
H79 H 0.08228 0.64354 0.919 0.0
Gd80 Gd 0.3328 0.7902 0.49823 0.0
Gd81 Gd 0.175 0.73329 0.5023 0.0
C82 C 0.12861 0.74535 0.40972 0.0
C83 C 0.44862 0.82337 0.47705 0.0
C84 C 0.45544 0.81782 0.43954 0.0
C85 C 0.45548 0.8664 0.41856 0.0
C86 C 0.461 0.7655 0.424 0.0
C87 C 0.46726 0.81092 0.36724 0.0
C88 C 0.46719 0.76212 0.38836 0.0
C89 C 0.46074 0.86307 0.38279 0.0
C90 C 0.21862 0.8616 0.50677 0.0
C91 C 0.38363 0.77271 0.592 0.0
C92 C 0.05581 0.70426 0.52253 0.0
C93 C 0.05498 0.70996 0.5617 0.0
C94 C 0.07285 0.66282 0.58776 0.0
C95 C 0.0368 0.76171 0.57363 0.0
C96 C 0.05566 0.71897 0.6371 0.0
C97 C 0.03688 0.7661 0.61084 0.0
C98 C 0.07372 0.66731 0.62512 0.0
C99 C 0.28941 0.66166 0.49422 0.0
O100 O 0.22505 0.7533 0.43106 0.0
O101 O 0.08472 0.74416 0.42973 0.0
O102 O 0.37372 0.85264 0.46961 0.0
O103 O 0.4671 0.77931 0.50145 0.0
O104 O 0.31238 0.86879 0.52479 0.0
O105 O 0.18776 0.81823 0.48301 0.0
O106 O 0.2881 0.76217 0.57131 0.0
O107 O 0.42499 0.78044 0.57118 0.0
O108 O 0.12323 0.67097 0.52661 0.0
O109 O 0.04388 0.74963 0.50045 0.0
O110 O 0.19582 0.65377 0.47659 0.0
O111 O 0.31986 0.70538 0.51758 0.0
H112 H 0.45078 0.90725 0.42972 0.0
H113 H 0.46067 0.7272 0.43932 0.0
H114 H 0.47319 0.72121 0.37776 0.0
H115 H 0.45844 0.90156 0.36701 0.0
H116 H 0.08626 0.6223 0.57925 0.0
H117 H 0.02283 0.79893 0.55439 0.0
H118 H 0.02342 0.80657 0.61937 0.0
H119 H 0.08707 0.63006 0.64429 0.0
Gd120 Gd 0.85957 0.28855 0.50852 0.0
Gd121 Gd 0.66155 0.24832 0.48748 0.0
C122 C 0.67075 0.26086 0.40792 0.0
C123 C 1.01089 0.30277 0.506 0.0
C124 C 0.02471 0.29687 0.47067 0.0
C125 C 0.08906 0.33309 0.46908 0.0
C126 C 0.96866 0.25808 0.43662 0.0
C127 C 0.03774 0.29363 0.39872 0.0
C128 C 0.97457 0.25669 0.40094 0.0
C129 C 0.09599 0.33132 0.43366 0.0
C130 C 0.73927 0.36909 0.50297 0.0
C131 C 0.85171 0.27359 0.58917 0.0
C132 C 0.50983 0.23616 0.48972 0.0
C133 C 0.49915 0.23423 0.52637 0.0
C134 C 0.50687 0.18318 0.54682 0.0
C135 C 0.48481 0.2836 0.54239 0.0
C136 C 0.49097 0.23115 0.59971 0.0
C137 C 0.48099 0.28208 0.57865 0.0
C138 C 0.50317 0.18169 0.58309 0.0
C139 C 0.781 0.16731 0.49281 0.0
O140 O 0.76791 0.2613 0.43766 0.0
O141 O 0.60807 0.26474 0.4186 0.0
O142 O 0.95234 0.34357 0.50075 0.0
O143 O 0.99552 0.25665 0.52012 0.0
O144 O 0.83507 0.36969 0.53163 0.0
O145 O 0.7125 0.32761 0.47778 0.0
O146 O 0.75477 0.26806 0.55982 0.0
O147 O 0.9138 0.27645 0.57801 0.0
O148 O 0.55579 0.19398 0.48663 0.0
O149 O 0.53513 0.28437 0.48231 0.0
O150 O 0.68499 0.16674 0.46457 0.0
O151 O 0.80847 0.2089 0.51804 0.0
H152 H 0.133 0.36336 0.49498 0.0
H153 H 0.91888 0.22944 0.43716 0.0
H154 H 0.92763 0.22753 0.3746 0.0
H155 H 0.14694 0.35966 0.43366 0.0
H156 H 0.51748 0.14429 0.53529 0.0
H157 H 0.47762 0.32364 0.52725 0.0
H158 H 0.4698 0.32088 0.59007 0.0
H159 H 0.51207 0.14179 0.59869 0.0
C160 C 0.58176 0.61352 0.96786 0.0
C161 C 0.67523 0.62357 0.00701 0.0
C162 C 0.51913 0.57161 0.96548 0.0
C163 C 0.54963 0.54034 0.00356 0.0
C164 C 0.64232 0.55227 0.04362 0.0
C165 C 0.70461 0.5931 0.04467 0.0
C166 C 0.42185 0.55961 0.92194 0.0
C167 C 0.67627 0.52151 0.08533 0.0
C168 C 0.3522 0.46057 0.00488 0.0
C169 C 0.36967 0.40533 0.99856 0.0
C170 C 0.41084 0.50492 0.00712 0.0
C171 C 0.48643 0.49392 0.00131 0.0
C172 C 0.50273 0.43821 0.99399 0.0
C173 C 0.44505 0.39458 0.99336 0.0
C174 C 0.39276 0.56336 0.01626 0.0
C175 C 0.5804 0.42468 0.98633 0.0
H176 H 0.55906 0.63714 0.93873 0.0
H177 H 0.77638 0.60146 0.07514 0.0
H178 H 0.4217 0.51591 0.91196 0.0
H179 H 0.35933 0.56353 0.92486 0.0
H180 H 0.4082 0.58827 0.89563 0.0
H181 H 0.74604 0.53915 0.11441 0.0
H182 H 0.61789 0.52326 0.0911 0.0
H183 H 0.68893 0.47678 0.08221 0.0
H184 H 0.29371 0.46896 0.00891 0.0
H185 H 0.45688 0.3523 0.98742 0.0
H186 H 0.37203 0.59154 0.98866 0.0
H187 H 0.46195 0.58022 0.04604 0.0
H188 H 0.33292 0.56467 0.02117 0.0
H189 H 0.56738 0.45001 0.95863 0.0
H190 H 0.58029 0.3797 0.97887 0.0
H191 H 0.65518 0.4357 0.01579 0.0
C192 C 0.4393 0.6324 0.4983 0.0
C193 C 0.35457 0.61791 0.49589 0.0
C194 C 0.49977 0.59116 0.49839 0.0
C195 C 0.47708 0.53387 0.4979 0.0
C196 C 0.39252 0.51896 0.49646 0.0
C197 C 0.33113 0.56122 0.49454 0.0
C198 C 0.58701 0.60896 0.49829 0.0
C199 C 0.36776 0.45846 0.49764 0.0
C200 C 0.58314 0.42527 0.46155 0.0
C201 C 0.67069 0.40972 0.50163 0.0
C202 C 0.51962 0.46593 0.45976 0.0
C203 C 0.54233 0.4897 0.49921 0.0
C204 C 0.62886 0.47222 0.53992 0.0
C205 C 0.69313 0.43328 0.54055 0.0
C206 C 0.42976 0.48449 0.41562 0.0
C207 C 0.65358 0.4946 0.58281 0.0
H208 H 0.45693 0.676 0.499 0.0
H209 H 0.26585 0.54988 0.49299 0.0
H210 H 0.65705 0.59236 0.52773 0.0
H211 H 0.57938 0.59129 0.46914 0.0
H212 H 0.59337 0.65517 0.49779 0.0
H213 H 0.30132 0.45396 0.49782 0.0
H214 H 0.35386 0.43579 0.46881 0.0
H215 H 0.4317 0.43774 0.52734 0.0
H216 H 0.56603 0.40692 0.43147 0.0
H217 H 0.76025 0.4205 0.5716 0.0
H218 H 0.43366 0.53023 0.41171 0.0
H219 H 0.36106 0.4765 0.41337 0.0
H220 H 0.42367 0.46267 0.38805 0.0
H221 H 0.66887 0.54011 0.58514 0.0
H222 H 0.71934 0.47355 0.61161 0.0
H223 H 0.5893 0.48892 0.58437 0.0
C224 C 0.22136 0.06085 0.02375 0.0
C225 C 0.18186 0.11374 0.00563 0.0
C226 C 0.16146 0.01815 0.02252 0.0
C227 C 0.06046 0.02932 0.0043 0.0
C228 C 0.02058 0.08293 0.98645 0.0
C229 C 0.08117 0.12396 0.98633 0.0
C230 C 0.20601 0.96096 0.04027 0.0
C231 C 0.91413 0.09719 0.96783 0.0
C232 C 0.86984 0.91272 0.96511 0.0
C233 C 0.86807 0.90524 0.00158 0.0
C234 C 0.93519 0.9513 0.96619 0.0
C235 C 0.99637 0.98509 0.00389 0.0
C236 C 0.99427 0.97754 0.04081 0.0
C237 C 0.93159 0.9367 0.03952 0.0
C238 C 0.93869 0.95585 0.92703 0.0
C239 C 0.05592 0.01372 0.08111 0.0
H240 H 0.29896 0.05244 0.03825 0.0
H241 H 0.04972 0.16417 0.97136 0.0
H242 H 0.20537 0.95097 0.06893 0.0
H243 H 0.16085 0.92856 0.01502 0.0
H244 H 0.28372 0.95804 0.05054 0.0
H245 H 0.89668 0.14189 0.95815 0.0
H246 H 0.86312 0.07099 0.9386 0.0
H247 H 0.89892 0.08798 0.99236 0.0
H248 H 0.82112 0.8877 0.93597 0.0
H249 H 0.92951 0.93074 0.0676 0.0
H250 H 0.01653 0.9524 0.93763 0.0
H251 H 0.91042 0.99733 0.91125 0.0
H252 H 0.89364 0.92292 0.9022 0.0
H253 H 0.13593 1.00868 0.09556 0.0
H254 H 0.04401 1.00339 0.10657 0.0
H255 H 0.03704 0.05842 0.07194 0.0
C256 C 0.93669 0.11052 0.53441 0.0
C257 C 0.84826 0.12534 0.49442 0.0
C258 C 0.99789 0.06798 0.53649 0.0
C259 C 0.97189 0.04142 0.49734 0.0
C260 C 0.88468 0.05827 0.45663 0.0
C261 C 0.82278 0.09915 0.4558 0.0
C262 C 0.08876 0.05041 0.58067 0.0
C263 C 0.85642 0.033 0.41394 0.0
C264 C 0.1781 0.96307 0.50222 0.0
C265 C 0.15395 0.90716 0.50332 0.0
C266 C 0.11826 1.00716 0.49918 0.0
C267 C 0.03447 0.99511 0.49906 0.0
C268 C 1.01053 0.93865 0.50067 0.0
C269 C 0.06964 0.89539 0.50198 0.0
C270 C 0.1442 0.06653 0.49568 0.0
C271 C 0.92387 0.92396 0.50208 0.0
H272 H 0.95614 0.13082 0.56427 0.0
H273 H 0.75484 0.11118 0.4248 0.0
H274 H 0.08398 1.00521 0.586 0.0
H275 H 0.15651 0.05642 0.5818 0.0
H276 H 0.0974 0.07439 0.60803 0.0
H277 H 0.7918 0.05452 0.38497 0.0
H278 H 0.92011 0.03519 0.41165 0.0
H279 H 0.83754 0.98819 0.41262 0.0
H280 H 0.243 0.97234 0.50291 0.0
H281 H 0.05151 0.85247 0.50327 0.0
H282 H 0.16365 0.0909 0.52481 0.0
H283 H 0.07907 0.08724 0.46644 0.0
H284 H 0.20768 0.06852 0.4932 0.0
H285 H 0.93549 0.94237 0.53187 0.0
H286 H 0.91395 0.87806 0.50243 0.0
H287 H 0.85422 0.94198 0.47331 0.0
C288 C 0.6862 0.21791 0.35232 0.0
C289 C 0.63389 0.25299 0.36208 0.0
C290 C 0.65625 0.21156 0.30919 0.0
C291 C 0.57379 0.2424 0.2754 0.0
C292 C 0.52035 0.27778 0.2851 0.0
C293 C 0.55034 0.282 0.32847 0.0
C294 C 0.71252 0.17175 0.29986 0.0
C295 C 0.43301 0.31207 0.24987 0.0
C296 C 0.54136 0.27101 0.16851 0.0
C297 C 0.45984 0.23686 0.13996 0.0
C298 C 0.58215 0.27196 0.2134 0.0
C299 C 0.54138 0.23683 0.22959 0.0
C300 C 0.46406 0.19914 0.20113 0.0
C301 C 0.42296 0.20036 0.15639 0.0
C302 C 0.66381 0.31321 0.24277 0.0
C303 C 0.42128 0.15955 0.21747 0.0
H304 H 0.75015 0.19489 0.37845 0.0
H305 H 0.51064 0.30936 0.33633 0.0
H306 H 0.66046 0.14169 0.27388 0.0
H307 H 0.74929 0.19532 0.28759 0.0
H308 H 0.77019 0.14786 0.32947 0.0
H309 H 0.39895 0.33704 0.26283 0.0
H310 H 0.45742 0.34096 0.23473 0.0
H311 H 0.37524 0.28444 0.22346 0.0
H312 H 0.56866 0.29956 0.15534 0.0
H313 H 0.35987 0.17386 0.13393 0.0
H314 H 0.72629 0.29219 0.2727 0.0
H315 H 0.63475 0.34584 0.2535 0.0
H316 H 0.69291 0.33393 0.22592 0.0
H317 H 0.48164 0.13768 0.24758 0.0
H318 H 0.37176 0.12776 0.19246 0.0
H319 H 0.3776 0.18351 0.22606 0.0
C320 C 0.56783 0.77531 0.18263 0.0
C321 C 0.49291 0.80127 0.14313 0.0
C322 C 0.56518 0.77535 0.2194 0.0
C323 C 0.48644 0.80272 0.21706 0.0
C324 C 0.41098 0.82936 0.17748 0.0
C325 C 0.41462 0.82787 0.14101 0.0
C326 C 0.64698 0.74618 0.26082 0.0
C327 C 0.32658 0.8599 0.17371 0.0
C328 C 0.42565 0.76516 0.29776 0.0
C329 C 0.47399 0.80785 0.32919 0.0
C330 C 0.43039 0.76248 0.26158 0.0
C331 C 0.48333 0.80398 0.25607 0.0
C332 C 0.53224 0.84715 0.28759 0.0
C333 C 0.5278 0.84824 0.32385 0.0
C334 C 0.37825 0.71531 0.22908 0.0
C335 C 0.58846 0.89268 0.28279 0.0
H336 H 0.62969 0.75554 0.18514 0.0
H337 H 0.35539 0.84736 0.11064 0.0
H338 H 0.68773 0.77681 0.28798 0.0
H339 H 0.61469 0.71447 0.27071 0.0
H340 H 0.70105 0.72518 0.25687 0.0
H341 H 0.27516 0.87971 0.14104 0.0
H342 H 0.28355 0.83048 0.17947 0.0
H343 H 0.35649 0.89287 0.19922 0.0
H344 H 0.38259 0.73418 0.30098 0.0
H345 H 0.56714 0.88084 0.3482 0.0
H346 H 0.43174 0.69252 0.2257 0.0
H347 H 0.31946 0.73238 0.1963 0.0
H348 H 0.3437 0.68508 0.23893 0.0
H349 H 0.64873 0.87414 0.28203 0.0
H350 H 0.62168 0.92362 0.30991 0.0
H351 H 0.53787 0.91504 0.25125 0.0
C352 C 0.54832 0.79804 0.83458 0.0
C353 C 0.64217 0.77567 0.8662 0.0
C354 C 0.51359 0.8015 0.79045 0.0
C355 C 0.57339 0.78093 0.7777 0.0
C356 C 0.66866 0.75888 0.80962 0.0
C357 C 0.70226 0.75707 0.85353 0.0
C358 C 0.4121 0.82614 0.75734 0.0
C359 C 0.73367 0.73527 0.79723 0.0
C360 C 0.42916 0.72933 0.66084 0.0
C361 C 0.44359 0.77266 0.64003 0.0
C362 C 0.47401 0.73072 0.70593 0.0
C363 C 0.53244 0.77751 0.73055 0.0
C364 C 0.54903 0.82103 0.70982 0.0
C365 C 0.50513 0.81772 0.66458 0.0
C366 C 0.45655 0.68275 0.72691 0.0
C367 C 0.60888 0.87216 0.73493 0.0
H368 H 0.50222 0.81309 0.84432 0.0
H369 H 0.77502 0.73967 0.87782 0.0
H370 H 0.41626 0.85789 0.73689 0.0
H371 H 0.36068 0.79282 0.73502 0.0
H372 H 0.38 0.84597 0.7732 0.0
H373 H 0.80643 0.7204 0.82623 0.0
H374 H 0.69534 0.69967 0.77429 0.0
H375 H 0.74733 0.76736 0.77999 0.0
H376 H 0.38121 0.69454 0.64153 0.0
H377 H 0.51459 0.85154 0.64807 0.0
H378 H 0.41224 0.69738 0.73857 0.0
H379 H 0.52839 0.66698 0.75589 0.0
H380 H 0.41633 0.64748 0.70381 0.0
H381 H 0.57079 0.8952 0.74682 0.0
H382 H 0.61887 0.9009 0.71452 0.0
H383 H 0.68307 0.85985 0.7642 0.0
C384 C 0.44018 0.18661 0.64458 0.0
C385 C 0.4898 0.22963 0.63913 0.0
C386 C 0.43972 0.18425 0.68186 0.0
C387 C 0.4894 0.22619 0.71446 0.0
C388 C 0.53933 0.26984 0.70912 0.0
C389 C 0.53925 0.2709 0.67168 0.0
C390 C 0.38643 0.13667 0.68644 0.0
C391 C 0.59297 0.31545 0.74299 0.0
C392 C 0.41292 0.24711 0.79151 0.0
C393 C 0.48999 0.22006 0.82985 0.0
C394 C 0.41225 0.24987 0.75394 0.0
C395 C 0.48966 0.22421 0.75427 0.0
C396 C 0.56731 0.19654 0.79266 0.0
C397 C 0.56701 0.19525 0.83 0.0
C398 C 0.32856 0.28028 0.71385 0.0
C399 C 0.65061 0.16801 0.79426 0.0
H400 H 0.40076 0.1549 0.61942 0.0
H401 H 0.57929 0.30374 0.66821 0.0
H402 H 0.43921 0.11319 0.71714 0.0
H403 H 0.32728 0.15331 0.68879 0.0
H404 H 0.35218 0.1071 0.65839 0.0
H405 H 0.62689 0.34689 0.73364 0.0
H406 H 0.54055 0.33713 0.74761 0.0
H407 H 0.65247 0.29704 0.77507 0.0
H408 H 0.35208 0.26561 0.79057 0.0
H409 H 0.62792 0.17507 0.85952 0.0
H410 H 0.28809 0.25117 0.6856 0.0
H411 H 0.35906 0.31428 0.70481 0.0
H412 H 0.27473 0.29871 0.71906 0.0
H413 H 0.61974 0.13596 0.76804 0.0
H414 H 0.70448 0.14742 0.82635 0.0
H415 H 0.69112 0.19887 0.78811 0.0
C416 C 0.83995 0.71665 0.14953 0.0
C417 C 0.89604 0.74825 0.13981 0.0
C418 C 0.87061 0.71043 0.19282 0.0
C419 C 0.95779 0.73792 0.22686 0.0
C420 C 1.01502 0.76969 0.21717 0.0
C421 C 0.98412 0.77371 0.17364 0.0
C422 C 0.81062 0.67386 0.20213 0.0
C423 C 0.10762 0.80042 0.2526 0.0
C424 C 0.99344 0.77262 0.33359 0.0
C425 C 0.07132 0.73652 0.3624 0.0
C426 C 0.95275 0.77225 0.28872 0.0
C427 C 0.98959 0.73377 0.27271 0.0
C428 C 0.06278 0.69422 0.30144 0.0
C429 C 0.10441 0.69692 0.34625 0.0
C430 C 0.87571 0.81558 0.25915 0.0
C431 C 0.10062 0.65085 0.28533 0.0
H432 H 0.77243 0.69625 0.12321 0.0
H433 H 0.02692 0.79831 0.16587 0.0
H434 H 0.85609 0.63736 0.22211 0.0
H435 H 0.79073 0.69703 0.22152 0.0
H436 H 0.74133 0.65831 0.17162 0.0
H437 H 0.14082 0.82541 0.23922 0.0
H438 H 0.08997 0.82887 0.27051 0.0
H439 H 0.16414 0.77025 0.27679 0.0
H440 H 0.96921 0.80358 0.34656 0.0
H441 H 0.16485 0.66903 0.36894 0.0
H442 H 0.81153 0.79588 0.22904 0.0
H443 H 0.9087 0.84609 0.24876 0.0
H444 H 0.84811 0.83865 0.27572 0.0
H445 H 0.03802 0.63116 0.25464 0.0
H446 H 0.14398 0.61755 0.31012 0.0
H447 H 0.14941 0.67111 0.2779 0.0
C448 C 0.03497 0.24305 0.33907 0.0
C449 C 0.04163 0.29342 0.35989 0.0
C450 C 0.03744 0.24238 0.30227 0.0
C451 C 0.04783 0.29323 0.28592 0.0
C452 C 0.05468 0.34421 0.30671 0.0
C453 C 0.05103 0.34372 0.3432 0.0
C454 C 0.02919 0.18714 0.28092 0.0
C455 C 0.06588 0.39938 0.2904 0.0
C456 C 0.14726 0.2876 0.21658 0.0
C457 C 0.06041 0.29392 0.17383 0.0
C458 C 0.14431 0.28756 0.25325 0.0
C459 C 0.05201 0.29308 0.24721 0.0
C460 C 0.96383 0.29868 0.2042 0.0
C461 C 0.96915 0.29939 0.16816 0.0
C462 C 0.24025 0.28189 0.29851 0.0
C463 C 0.86376 0.30433 0.19625 0.0
H464 H 0.02901 0.20383 0.35186 0.0
H465 H 0.05428 0.38303 0.35831 0.0
H466 H 0.96531 0.18811 0.2458 0.0
H467 H 0.09699 0.17976 0.2823 0.0
H468 H 0.01926 0.15142 0.29697 0.0
H469 H 0.07104 0.4353 0.31038 0.0
H470 H 0.13364 0.39868 0.29106 0.0
H471 H 1.00166 0.40622 0.25586 0.0
H472 H 0.21794 0.28225 0.22149 0.0
H473 H 0.90163 0.3052 0.13549 0.0
H474 H 0.23716 0.24449 0.31518 0.0
H475 H 0.25075 0.31883 0.31867 0.0
H476 H 0.3059 0.27812 0.29766 0.0
H477 H 0.85066 0.2683 0.21092 0.0
H478 H 0.80187 0.30649 0.16078 0.0
H479 H 0.86221 0.34268 0.21243 0.0
C480 C 0.98218 0.30037 0.66695 0.0
C481 C 0.88946 0.27658 0.63568 0.0
C482 C 0.01742 0.3035 0.71113 0.0
C483 C 0.95951 0.28093 0.72426 0.0
C484 C 0.86527 0.25751 0.69269 0.0
C485 C 0.83095 0.25617 0.64868 0.0
C486 C 0.11749 0.32989 0.74385 0.0
C487 C 0.80242 0.23178 0.70555 0.0
C488 C 0.10961 0.22902 0.84112 0.0
C489 C 0.09257 0.27081 0.86203 0.0
C490 C 0.06366 0.23092 0.79597 0.0
C491 C 1.00182 0.27684 0.77148 0.0
C492 C 0.98319 0.31894 0.79238 0.0
C493 C 0.02794 0.31495 0.83764 0.0
C494 C 0.08314 0.18434 0.77472 0.0
C495 C 0.91991 0.36927 0.76741 0.0
H496 H 0.02691 0.31687 0.6569 0.0
H497 H 0.75905 0.2377 0.62459 0.0
H498 H 0.11258 0.35991 0.76503 0.0
H499 H 0.17172 0.29709 0.7655 0.0
H500 H 0.14662 0.35218 0.7276 0.0
H501 H 0.72938 0.21697 0.6767 0.0
H502 H 0.84238 0.19574 0.72779 0.0
H503 H 0.78922 0.26248 0.72374 0.0
H504 H 0.15983 0.1949 0.86033 0.0
H505 H 0.01638 0.34755 0.85427 0.0
H506 H 0.12599 0.2007 0.76278 0.0
H507 H 1.01195 0.16772 0.7459 0.0
H508 H 0.12568 0.1493 0.79775 0.0
H509 H 0.95476 0.39332 0.75441 0.0
H510 H 0.91043 0.39741 0.78823 0.0
H511 H 0.84552 0.35591 0.73886 0.0
C512 C 0.97965 0.75257 0.67471 0.0
C513 C 0.05538 0.72331 0.67659 0.0
C514 C 0.97652 0.75523 0.71128 0.0
C515 C 0.05133 0.72832 0.75085 0.0
C516 C 0.12889 0.69949 0.75317 0.0
C517 C 0.1298 0.6972 0.71601 0.0
C518 C 0.89225 0.78611 0.70737 0.0
C519 C 0.21054 0.67064 0.79481 0.0
C520 C 0.09043 0.77322 0.85725 0.0
C521 C 0.04202 0.7304 0.86351 0.0
C522 C 0.09427 0.77306 0.82082 0.0
C523 C 0.04747 0.72938 0.78958 0.0
C524 C 0.99743 0.68641 0.79549 0.0
C525 C 0.99585 0.68726 0.83248 0.0
C526 C 0.14914 0.81935 0.81596 0.0
C527 C 0.94551 0.63948 0.76271 0.0
H528 H 0.9214 0.77236 0.64424 0.0
H529 H 0.18927 0.67518 0.71786 0.0
H530 H 0.84906 0.75685 0.71317 0.0
H531 H 0.92206 0.81921 0.73276 0.0
H532 H 0.84102 0.80574 0.67461 0.0
H533 H 0.26703 0.65141 0.79164 0.0
H534 H 0.24818 0.70097 0.82232 0.0
H535 H 0.1784 0.63743 0.80366 0.0
H536 H 0.1269 0.8064 0.88133 0.0
H537 H 0.9572 0.65447 0.83687 0.0
H538 H 0.09821 0.84143 0.78434 0.0
H539 H 0.21012 0.80144 0.81541 0.0
H540 H 0.18123 0.85036 0.84299 0.0
H541 H 0.88891 0.65683 0.7297 0.0
H542 H 0.9084 0.60984 0.77166 0.0
H543 H 0.99983 0.61592 0.76035 0.0
loop_
_geom_bond_atom_site_label_1
_geom_bond_atom_site_label_2
_geom_bond_distance
_geom_bond_site_symmetry_2
_ccdc_geom_bond_type
Gd0 C3 2.818 1_556 S
Gd0 O20 2.377 1_556 S
Gd0 O22 2.448 1_556 S
Gd0 O23 2.506 1_556 S
Gd0 O24 2.435 1_556 S
Gd0 O25 2.717 . S
Gd0 O27 2.395 . S
Gd0 O31 2.327 1_556 S
Gd1 C12 2.818 1_554 S
Gd1 O21 2.395 . S
Gd1 O25 2.327 1_554 S
Gd1 O26 2.377 1_554 S
Gd1 O28 2.448 1_554 S
Gd1 O29 2.506 1_554 S
Gd1 O30 2.435 1_554 S
Gd1 O31 2.717 . S
C2 O20 1.240 . S
C2 O21 1.240 . S
C3 Gd0 2.818 1_554 S
C3 C4 1.510 . S
C3 O22 1.249 . S
C3 O23 1.252 . S
C4 C3 1.510 . S
C4 C5 1.404 . S
C4 C6 1.352 . S
C5 C4 1.404 . S
C5 C9 1.389 . S
C5 H32 0.930 . S
C6 C4 1.352 . S
C6 C8 1.374 . S
C6 H33 0.931 . S
C7 C8 1.359 . S
C7 C9 1.364 . S
C8 C6 1.374 . S
C8 C7 1.359 . S
C8 H34 0.931 . S
C9 C5 1.389 . S
C9 C7 1.364 . S
C9 H35 0.931 . S
C10 O24 1.256 . S
C10 O25 1.257 1_554 S
C11 O26 1.240 . S
C11 O27 1.240 . S
C12 Gd1 2.818 1_556 S
C12 C13 1.510 . S
C12 O28 1.249 . S
C12 O29 1.252 . S
C13 C12 1.510 . S
C13 C14 1.404 . S
C13 C15 1.352 . S
C14 C13 1.404 . S
C14 C18 1.389 . S
C14 H36 0.930 . S
C15 C13 1.352 . S
C15 C17 1.374 . S
C15 H37 0.931 . S
C16 C17 1.359 . S
C16 C18 1.364 . S
C17 C15 1.374 . S
C17 C16 1.359 . S
C17 H38 0.931 . S
C18 C14 1.389 . S
C18 C16 1.364 . S
C18 H39 0.931 . S
C19 O30 1.256 . S
C19 O31 1.257 1_556 S
O20 Gd0 2.377 1_554 S
O20 C2 1.240 . S
O21 Gd1 2.395 . S
O21 C2 1.240 . S
O22 Gd0 2.448 1_554 S
O22 C3 1.249 . S
O23 Gd0 2.506 1_554 S
O23 C3 1.252 . S
O24 Gd0 2.435 1_554 S
O24 C10 1.256 . S
O25 Gd0 2.717 . S
O25 Gd1 2.327 1_556 S
O25 C10 1.257 1_556 S
O26 Gd1 2.377 1_556 S
O26 C11 1.240 . S
O27 Gd0 2.395 . S
O27 C11 1.240 . S
O28 Gd1 2.448 1_556 S
O28 C12 1.249 . S
O29 Gd1 2.506 1_556 S
O29 C12 1.252 . S
O30 Gd1 2.435 1_556 S
O30 C19 1.256 . S
O31 Gd0 2.327 1_554 S
O31 Gd1 2.717 . S
O31 C19 1.257 1_554 S
H32 C5 0.930 . S
H33 C6 0.931 . S
H34 C8 0.931 . S
H35 C9 0.931 . S
H36 C14 0.930 . S
H37 C15 0.931 . S
H38 C17 0.931 . S
H39 C18 0.931 . S
Gd40 C43 2.818 1_556 S
Gd40 O60 2.377 1_556 S
Gd40 O62 2.448 1_556 S
Gd40 O63 2.506 1_556 S
Gd40 O64 2.435 1_556 S
Gd40 O65 2.717 . S
Gd40 O67 2.395 . S
Gd40 O71 2.327 1_556 S
Gd41 C52 2.818 1_554 S
Gd41 O61 2.395 . S
Gd41 O65 2.327 1_554 S
Gd41 O66 2.377 1_554 S
Gd41 O68 2.448 1_554 S
Gd41 O69 2.506 1_554 S
Gd41 O70 2.435 1_554 S
Gd41 O71 2.717 . S
C42 O60 1.240 . S
C42 O61 1.240 . S
C43 Gd40 2.818 1_554 S
C43 C44 1.510 . S
C43 O62 1.249 . S
C43 O63 1.252 . S
C44 C43 1.510 . S
C44 C45 1.404 . S
C44 C46 1.352 . S
C45 C44 1.404 . S
C45 C49 1.389 . S
C45 H72 0.930 . S
C46 C44 1.352 . S
C46 C48 1.374 . S
C46 H73 0.931 . S
C47 C48 1.359 . S
C47 C49 1.364 . S
C48 C46 1.374 . S
C48 C47 1.359 . S
C48 H74 0.931 . S
C49 C45 1.389 . S
C49 C47 1.364 . S
C49 H75 0.931 . S
C50 O64 1.256 . S
C50 O65 1.257 1_554 S
C51 O66 1.240 . S
C51 O67 1.240 . S
C52 Gd41 2.818 1_556 S
C52 C53 1.510 . S
C52 O68 1.249 . S
C52 O69 1.252 . S
C53 C52 1.510 . S
C53 C54 1.404 . S
C53 C55 1.352 . S
C54 C53 1.404 . S
C54 C58 1.389 . S
C54 H76 0.930 . S
C55 C53 1.352 . S
C55 C57 1.374 . S
C55 H77 0.931 . S
C56 C57 1.359 . S
C56 C58 1.364 . S
C57 C55 1.374 . S
C57 C56 1.359 . S
C57 H78 0.931 . S
C58 C54 1.389 . S
C58 C56 1.364 . S
C58 H79 0.931 . S
C59 O70 1.256 . S
C59 O71 1.257 1_556 S
O60 Gd40 2.377 1_554 S
O60 C42 1.240 . S
O61 Gd41 2.395 . S
O61 C42 1.240 . S
O62 Gd40 2.448 1_554 S
O62 C43 1.249 . S
O63 Gd40 2.506 1_554 S
O63 C43 1.252 . S
O64 Gd40 2.435 1_554 S
O64 C50 1.256 . S
O65 Gd40 2.717 . S
O65 Gd41 2.327 1_556 S
O65 C50 1.257 1_556 S
O66 Gd41 2.377 1_556 S
O66 C51 1.240 . S
O67 Gd40 2.395 . S
O67 C51 1.240 . S
O68 Gd41 2.448 1_556 S
O68 C52 1.249 . S
O69 Gd41 2.506 1_556 S
O69 C52 1.252 . S
O70 Gd41 2.435 1_556 S
O70 C59 1.256 . S
O71 Gd40 2.327 1_554 S
O71 Gd41 2.717 . S
O71 C59 1.257 1_554 S
H72 C45 0.930 . S
H73 C46 0.931 . S
H74 C48 0.931 . S
H75 C49 0.931 . S
H76 C54 0.930 . S
H77 C55 0.931 . S
H78 C57 0.931 . S
H79 C58 0.931 . S
Gd80 C83 2.818 . S
Gd80 O100 2.377 . S
Gd80 O102 2.448 . S
Gd80 O103 2.506 . S
Gd80 O104 2.435 . S
Gd80 O105 2.717 . S
Gd80 O107 2.395 . S
Gd80 O111 2.327 . S
Gd81 C92 2.818 . S
Gd81 O101 2.395 . S
Gd81 O105 2.327 . S
Gd81 O106 2.377 . S
Gd81 O108 2.448 . S
Gd81 O109 2.506 . S
Gd81 O110 2.435 . S
Gd81 O111 2.717 . S
C82 O100 1.240 . S
C82 O101 1.240 . S
C83 Gd80 2.818 . S
C83 C84 1.510 . S
C83 O102 1.249 . S
C83 O103 1.252 . S
C84 C83 1.510 . S
C84 C85 1.404 . S
C84 C86 1.352 . S
C85 C84 1.404 . S
C85 C89 1.389 . S
C85 H112 0.930 . S
C86 C84 1.352 . S
C86 C88 1.374 . S
C86 H113 0.931 . S
C87 C88 1.359 . S
C87 C89 1.364 . S
C88 C86 1.374 . S
C88 C87 1.359 . S
C88 H114 0.931 . S
C89 C85 1.389 . S
C89 C87 1.364 . S
C89 H115 0.931 . S
C90 O104 1.256 . S
C90 O105 1.257 . S
C91 O106 1.240 . S
C91 O107 1.240 . S
C92 Gd81 2.818 . S
C92 C93 1.510 . S
C92 O108 1.249 . S
C92 O109 1.252 . S
C93 C92 1.510 . S
C93 C94 1.404 . S
C93 C95 1.352 . S
C94 C93 1.404 . S
C94 C98 1.389 . S
C94 H116 0.930 . S
C95 C93 1.352 . S
C95 C97 1.374 . S
C95 H117 0.931 . S
C96 C97 1.359 . S
C96 C98 1.364 . S
C97 C95 1.374 . S
C97 C96 1.359 . S
C97 H118 0.931 . S
C98 C94 1.389 . S
C98 C96 1.364 . S
C98 H119 0.931 . S
C99 O110 1.256 . S
C99 O111 1.257 . S
O100 Gd80 2.377 . S
O100 C82 1.240 . S
O101 Gd81 2.395 . S
O101 C82 1.240 . S
O102 Gd80 2.448 . S
O102 C83 1.249 . S
O103 Gd80 2.506 . S
O103 C83 1.252 . S
O104 Gd80 2.435 . S
O104 C90 1.256 . S
O105 Gd80 2.717 . S
O105 Gd81 2.327 . S
O105 C90 1.257 . S
O106 Gd81 2.377 . S
O106 C91 1.240 . S
O107 Gd80 2.395 . S
O107 C91 1.240 . S
O108 Gd81 2.448 . S
O108 C92 1.249 . S
O109 Gd81 2.506 . S
O109 C92 1.252 . S
O110 Gd81 2.435 . S
O110 C99 1.256 . S
O111 Gd80 2.327 . S
O111 Gd81 2.717 . S
O111 C99 1.257 . S
H112 C85 0.930 . S
H113 C86 0.931 . S
H114 C88 0.931 . S
H115 C89 0.931 . S
H116 C94 0.930 . S
H117 C95 0.931 . S
H118 C97 0.931 . S
H119 C98 0.931 . S
Gd120 C123 2.818 . S
Gd120 O140 2.377 . S
Gd120 O142 2.448 . S
Gd120 O143 2.506 . S
Gd120 O144 2.435 . S
Gd120 O145 2.717 . S
Gd120 O147 2.395 . S
Gd120 O151 2.327 . S
Gd121 C132 2.818 . S
Gd121 O141 2.395 . S
Gd121 O145 2.327 . S
Gd121 O146 2.377 . S
Gd121 O148 2.448 . S
Gd121 O149 2.506 . S
Gd121 O150 2.435 . S
Gd121 O151 2.717 . S
C122 O140 1.240 . S
C122 O141 1.240 . S
C123 Gd120 2.818 . S
C123 C124 1.510 . S
C123 O142 1.249 . S
C123 O143 1.252 . S
C124 C123 1.510 . S
C124 C125 1.404 . S
C124 C126 1.352 . S
C125 C124 1.404 . S
C125 C129 1.389 . S
C125 H152 0.930 . S
C126 C124 1.352 . S
C126 C128 1.374 . S
C126 H153 0.931 . S
C127 C128 1.359 . S
C127 C129 1.364 . S
C128 C126 1.374 . S
C128 C127 1.359 . S
C128 H154 0.931 . S
C129 C125 1.389 . S
C129 C127 1.364 . S
C129 H155 0.931 . S
C130 O144 1.256 . S
C130 O145 1.257 . S
C131 O146 1.240 . S
C131 O147 1.240 . S
C132 Gd121 2.818 . S
C132 C133 1.510 . S
C132 O148 1.249 . S
C132 O149 1.252 . S
C133 C132 1.510 . S
C133 C134 1.404 . S
C133 C135 1.352 . S
C134 C133 1.404 . S
C134 C138 1.389 . S
C134 H156 0.930 . S
C135 C133 1.352 . S
C135 C137 1.374 . S
C135 H157 0.931 . S
C136 C137 1.359 . S
C136 C138 1.364 . S
C137 C135 1.374 . S
C137 C136 1.359 . S
C137 H158 0.931 . S
C138 C134 1.389 . S
C138 C136 1.364 . S
C138 H159 0.931 . S
C139 O150 1.256 . S
C139 O151 1.257 . S
O140 Gd120 2.377 . S
O140 C122 1.240 . S
O141 Gd121 2.395 . S
O141 C122 1.240 . S
O142 Gd120 2.448 . S
O142 C123 1.249 . S
O143 Gd120 2.506 . S
O143 C123 1.252 . S
O144 Gd120 2.435 . S
O144 C130 1.256 . S
O145 Gd120 2.717 . S
O145 Gd121 2.327 . S
O145 C130 1.257 . S
O146 Gd121 2.377 . S
O146 C131 1.240 . S
O147 Gd120 2.395 . S
O147 C131 1.240 . S
O148 Gd121 2.448 . S
O148 C132 1.249 . S
O149 Gd121 2.506 . S
O149 C132 1.252 . S
O150 Gd121 2.435 . S
O150 C139 1.256 . S
O151 Gd120 2.327 . S
O151 Gd121 2.717 . S
O151 C139 1.257 . S
H152 C125 0.930 . S
H153 C126 0.931 . S
H154 C128 0.931 . S
H155 C129 0.931 . S
H156 C134 0.930 . S
H157 C135 0.931 . S
H158 C137 0.931 . S
H159 C138 0.931 . S
C160 C161 1.391 . S
C160 C162 1.394 . S
C160 H176 0.931 . S
C161 C160 1.391 . S
C161 C165 1.376 1_556 S
C162 C160 1.394 . S
C162 C163 1.369 . S
C162 C166 1.531 . S
C163 C162 1.369 . S
C163 C164 1.410 1_556 S
C163 C171 1.503 . S
C164 C163 1.410 1_554 S
C164 C165 1.392 . S
C164 C167 1.511 . S
C165 C161 1.376 1_554 S
C165 C164 1.392 . S
C165 H177 0.929 . S
C166 C162 1.531 . S
C166 H178 0.960 . S
C166 H179 0.962 . S
C166 H180 0.960 . S
C167 C164 1.511 . S
C167 H181 0.961 . S
C167 H182 0.961 . S
C167 H183 0.961 . S
C168 C169 1.370 . S
C168 C170 1.363 . S
C168 H184 0.931 . S
C169 C168 1.370 . S
C169 C173 1.408 1_554 S
C170 C168 1.363 . S
C170 C171 1.370 1_554 S
C170 C174 1.524 . S
C171 C163 1.503 . S
C171 C170 1.370 1_556 S
C171 C172 1.403 . S
C172 C171 1.403 . S
C172 C173 1.404 . S
C172 C175 1.539 . S
C173 C169 1.408 1_556 S
C173 C172 1.404 . S
C173 H185 0.930 . S
C174 C170 1.524 . S
C174 H186 0.956 1_554 S
C174 H187 0.961 . S
C174 H188 0.961 . S
C175 C172 1.539 . S
C175 H189 0.958 . S
C175 H190 0.961 . S
C175 H191 0.960 . S
H176 C160 0.931 . S
H177 C165 0.929 . S
H178 C166 0.960 . S
H179 C166 0.962 . S
H180 C166 0.960 . S
H181 C167 0.961 . S
H182 C167 0.961 . S
H183 C167 0.961 . S
H184 C168 0.931 . S
H185 C173 0.930 . S
H186 C174 0.956 1_556 S
H187 C174 0.961 . S
H188 C174 0.961 . S
H189 C175 0.958 . S
H190 C175 0.961 . S
H191 C175 0.960 . S
C192 C193 1.391 . S
C192 C194 1.394 . S
C192 H208 0.931 . S
C193 C192 1.391 . S
C193 C197 1.376 . S
C194 C192 1.394 . S
C194 C195 1.369 . S
C194 C198 1.531 . S
C195 C194 1.369 . S
C195 C196 1.410 . S
C195 C203 1.503 . S
C196 C195 1.410 . S
C196 C197 1.392 . S
C196 C199 1.511 . S
C197 C193 1.376 . S
C197 C196 1.392 . S
C197 H209 0.929 . S
C198 C194 1.531 . S
C198 H210 0.960 . S
C198 H211 0.962 . S
C198 H212 0.960 . S
C199 C196 1.511 . S
C199 H213 0.961 . S
C199 H214 0.961 . S
C199 H215 0.961 . S
C200 C201 1.370 . S
C200 C202 1.363 . S
C200 H216 0.931 . S
C201 C200 1.370 . S
C201 C205 1.408 . S
C202 C200 1.363 . S
C202 C203 1.370 . S
C202 C206 1.524 . S
C203 C195 1.503 . S
C203 C202 1.370 . S
C203 C204 1.403 . S
C204 C203 1.403 . S
C204 C205 1.404 . S
C204 C207 1.539 . S
C205 C201 1.408 . S
C205 C204 1.404 . S
C205 H217 0.930 . S
C206 C202 1.524 . S
C206 H218 0.956 . S
C206 H219 0.961 . S
C206 H220 0.961 . S
C207 C204 1.539 . S
C207 H221 0.958 . S
C207 H222 0.961 . S
C207 H223 0.960 . S
H208 C192 0.931 . S
H209 C197 0.929 . S
H210 C198 0.960 . S
H211 C198 0.962 . S
H212 C198 0.960 . S
H213 C199 0.961 . S
H214 C199 0.961 . S
H215 C199 0.961 . S
H216 C200 0.931 . S
H217 C205 0.930 . S
H218 C206 0.956 . S
H219 C206 0.961 . S
H220 C206 0.961 . S
H221 C207 0.958 . S
H222 C207 0.961 . S
H223 C207 0.960 . S
C224 C225 1.387 1_554 S
C224 C226 1.394 . S
C224 H240 0.931 . S
C225 C224 1.387 1_556 S
C225 C229 1.367 . S
C226 C224 1.394 . S
C226 C227 1.369 . S
C226 C230 1.531 1_545 S
C227 C226 1.369 . S
C227 C228 1.410 1_454 S
C227 C235 1.503 1_445 S
C228 C227 1.410 1_656 S
C228 C229 1.392 1_655 S
C228 C231 1.511 . S
C229 C225 1.367 . S
C229 C228 1.392 1_455 S
C229 H241 0.929 . S
C230 C226 1.531 1_565 S
C230 H242 0.960 . S
C230 H243 0.962 . S
C230 H244 0.960 . S
C231 C228 1.511 . S
C231 H245 0.961 . S
C231 H246 0.961 . S
C231 H247 0.961 1_556 S
C232 C233 1.370 1_556 S
C232 C234 1.363 . S
C232 H248 0.931 . S
C233 C232 1.370 1_554 S
C233 C237 1.408 . S
C234 C232 1.363 . S
C234 C235 1.370 1_556 S
C234 C238 1.524 . S
C235 C227 1.503 1_665 S
C235 C234 1.370 1_554 S
C235 C236 1.403 . S
C236 C235 1.403 . S
C236 C237 1.404 . S
C236 C239 1.539 1_665 S
C237 C233 1.408 . S
C237 C236 1.404 . S
C237 H249 0.930 . S
C238 C234 1.524 . S
C238 H250 0.956 . S
C238 H251 0.961 . S
C238 H252 0.961 . S
C239 C236 1.539 1_445 S
C239 H253 0.958 1_545 S
C239 H254 0.961 . S
C239 H255 0.960 . S
H240 C224 0.931 . S
H241 C229 0.929 . S
H242 C230 0.960 . S
H243 C230 0.962 . S
H244 C230 0.960 . S
H245 C231 0.961 . S
H246 C231 0.961 . S
H247 C231 0.961 1_554 S
H248 C232 0.931 . S
H249 C237 0.930 . S
H250 C238 0.956 . S
H251 C238 0.961 . S
H252 C238 0.961 . S
H253 C239 0.958 1_565 S
H254 C239 0.961 . S
H255 C239 0.960 . S
C256 C257 1.391 . S
C256 C258 1.394 . S
C256 H272 0.931 . S
C257 C256 1.391 . S
C257 C261 1.376 . S
C258 C256 1.394 . S
C258 C259 1.369 . S
C258 C262 1.531 1_645 S
C259 C258 1.369 . S
C259 C260 1.410 . S
C259 C267 1.503 1_645 S
C260 C259 1.410 . S
C260 C261 1.392 . S
C260 C263 1.511 . S
C261 C257 1.376 . S
C261 C260 1.392 . S
C261 H273 0.929 . S
C262 C258 1.531 1_465 S
C262 H274 0.960 . S
C262 H275 0.962 1_565 S
C262 H276 0.960 . S
C263 C260 1.511 . S
C263 H277 0.961 . S
C263 H278 0.961 . S
C263 H279 0.961 . S
C264 C265 1.370 . S
C264 C266 1.363 . S
C264 H280 0.931 . S
C265 C264 1.370 . S
C265 C269 1.408 . S
C266 C264 1.363 . S
C266 C267 1.370 . S
C266 C270 1.524 1_565 S
C267 C259 1.503 1_465 S
C267 C266 1.370 . S
C267 C268 1.403 1_455 S
C268 C267 1.403 1_655 S
C268 C269 1.404 1_655 S
C268 C271 1.539 . S
C269 C265 1.408 . S
C269 C268 1.404 1_455 S
C269 H281 0.930 . S
C270 C266 1.524 1_545 S
C270 H282 0.956 . S
C270 H283 0.961 . S
C270 H284 0.961 . S
C271 C268 1.539 . S
C271 H285 0.958 . S
C271 H286 0.961 . S
C271 H287 0.960 . S
H272 C256 0.931 . S
H273 C261 0.929 . S
H274 C262 0.960 . S
H275 C262 0.962 1_545 S
H276 C262 0.960 . S
H277 C263 0.961 . S
H278 C263 0.961 . S
H279 C263 0.961 . S
H280 C264 0.931 . S
H281 C269 0.930 . S
H282 C270 0.956 . S
H283 C270 0.961 . S
H284 C270 0.961 . S
H285 C271 0.958 . S
H286 C271 0.961 . S
H287 C271 0.960 . S
C288 C289 1.391 . S
C288 C290 1.394 . S
C288 H304 0.931 . S
C289 C288 1.391 . S
C289 C293 1.376 . S
C290 C288 1.394 . S
C290 C291 1.369 . S
C290 C294 1.531 . S
C291 C290 1.369 . S
C291 C292 1.410 . S
C291 C299 1.503 . S
C292 C291 1.410 . S
C292 C293 1.392 . S
C292 C295 1.511 . S
C293 C289 1.376 . S
C293 C292 1.392 . S
C293 H305 0.929 . S
C294 C290 1.531 . S
C294 H306 0.960 . S
C294 H307 0.962 . S
C294 H308 0.960 . S
C295 C292 1.511 . S
C295 H309 0.961 . S
C295 H310 0.961 . S
C295 H311 0.961 . S
C296 C297 1.370 . S
C296 C298 1.363 . S
C296 H312 0.931 . S
C297 C296 1.370 . S
C297 C301 1.408 . S
C298 C296 1.363 . S
C298 C299 1.370 . S
C298 C302 1.524 . S
C299 C291 1.503 . S
C299 C298 1.370 . S
C299 C300 1.403 . S
C300 C299 1.403 . S
C300 C301 1.404 . S
C300 C303 1.539 . S
C301 C297 1.408 . S
C301 C300 1.404 . S
C301 H313 0.930 . S
C302 C298 1.524 . S
C302 H314 0.956 . S
C302 H315 0.961 . S
C302 H316 0.961 . S
C303 C300 1.539 . S
C303 H317 0.958 . S
C303 H318 0.961 . S
C303 H319 0.960 . S
H304 C288 0.931 . S
H305 C293 0.929 . S
H306 C294 0.960 . S
H307 C294 0.962 . S
H308 C294 0.960 . S
H309 C295 0.961 . S
H310 C295 0.961 . S
H311 C295 0.961 . S
H312 C296 0.931 . S
H313 C301 0.930 . S
H314 C302 0.956 . S
H315 C302 0.961 . S
H316 C302 0.961 . S
H317 C303 0.958 . S
H318 C303 0.961 . S
H319 C303 0.960 . S
C320 C321 1.391 . S
C320 C322 1.394 . S
C320 H336 0.931 . S
C321 C320 1.391 . S
C321 C325 1.376 . S
C322 C320 1.394 . S
C322 C323 1.369 . S
C322 C326 1.531 . S
C323 C322 1.369 . S
C323 C324 1.410 . S
C323 C331 1.503 . S
C324 C323 1.410 . S
C324 C325 1.392 . S
C324 C327 1.511 . S
C325 C321 1.376 . S
C325 C324 1.392 . S
C325 H337 0.929 . S
C326 C322 1.531 . S
C326 H338 0.960 . S
C326 H339 0.962 . S
C326 H340 0.960 . S
C327 C324 1.511 . S
C327 H341 0.961 . S
C327 H342 0.961 . S
C327 H343 0.961 . S
C328 C329 1.370 . S
C328 C330 1.363 . S
C328 H344 0.931 . S
C329 C328 1.370 . S
C329 C333 1.408 . S
C330 C328 1.363 . S
C330 C331 1.370 . S
C330 C334 1.524 . S
C331 C323 1.503 . S
C331 C330 1.370 . S
C331 C332 1.403 . S
C332 C331 1.403 . S
C332 C333 1.404 . S
C332 C335 1.539 . S
C333 C329 1.408 . S
C333 C332 1.404 . S
C333 H345 0.930 . S
C334 C330 1.524 . S
C334 H346 0.956 . S
C334 H347 0.961 . S
C334 H348 0.961 . S
C335 C332 1.539 . S
C335 H349 0.958 . S
C335 H350 0.961 . S
C335 H351 0.960 . S
H336 C320 0.931 . S
H337 C325 0.929 . S
H338 C326 0.960 . S
H339 C326 0.962 . S
H340 C326 0.960 . S
H341 C327 0.961 . S
H342 C327 0.961 . S
H343 C327 0.961 . S
H344 C328 0.931 . S
H345 C333 0.930 . S
H346 C334 0.956 . S
H347 C334 0.961 . S
H348 C334 0.961 . S
H349 C335 0.958 . S
H350 C335 0.961 . S
H351 C335 0.960 . S
C352 C353 1.391 . S
C352 C354 1.394 . S
C352 H368 0.931 . S
C353 C352 1.391 . S
C353 C357 1.376 . S
C354 C352 1.394 . S
C354 C355 1.369 . S
C354 C358 1.531 . S
C355 C354 1.369 . S
C355 C356 1.410 . S
C355 C363 1.503 . S
C356 C355 1.410 . S
C356 C357 1.392 . S
C356 C359 1.511 . S
C357 C353 1.376 . S
C357 C356 1.392 . S
C357 H369 0.929 . S
C358 C354 1.531 . S
C358 H370 0.960 . S
C358 H371 0.962 . S
C358 H372 0.960 . S
C359 C356 1.511 . S
C359 H373 0.961 . S
C359 H374 0.961 . S
C359 H375 0.961 . S
C360 C361 1.370 . S
C360 C362 1.363 . S
C360 H376 0.931 . S
C361 C360 1.370 . S
C361 C365 1.408 . S
C362 C360 1.363 . S
C362 C363 1.370 . S
C362 C366 1.524 . S
C363 C355 1.503 . S
C363 C362 1.370 . S
C363 C364 1.403 . S
C364 C363 1.403 . S
C364 C365 1.404 . S
C364 C367 1.539 . S
C365 C361 1.408 . S
C365 C364 1.404 . S
C365 H377 0.930 . S
C366 C362 1.524 . S
C366 H378 0.956 . S
C366 H379 0.961 . S
C366 H380 0.961 . S
C367 C364 1.539 . S
C367 H381 0.958 . S
C367 H382 0.961 . S
C367 H383 0.960 . S
H368 C352 0.931 . S
H369 C357 0.929 . S
H370 C358 0.960 . S
H371 C358 0.962 . S
H372 C358 0.960 . S
H373 C359 0.961 . S
H374 C359 0.961 . S
H375 C359 0.961 . S
H376 C360 0.931 . S
H377 C365 0.930 . S
H378 C366 0.956 . S
H379 C366 0.961 . S
H380 C366 0.961 . S
H381 C367 0.958 . S
H382 C367 0.961 . S
H383 C367 0.960 . S
C384 C385 1.391 . S
C384 C386 1.394 . S
C384 H400 0.931 . S
C385 C384 1.391 . S
C385 C389 1.376 . S
C386 C384 1.394 . S
C386 C387 1.369 . S
C386 C390 1.531 . S
C387 C386 1.369 . S
C387 C388 1.410 . S
C387 C395 1.503 . S
C388 C387 1.410 . S
C388 C389 1.392 . S
C388 C391 1.511 . S
C389 C385 1.376 . S
C389 C388 1.392 . S
C389 H401 0.929 . S
C390 C386 1.531 . S
C390 H402 0.960 . S
C390 H403 0.962 . S
C390 H404 0.960 . S
C391 C388 1.511 . S
C391 H405 0.961 . S
C391 H406 0.961 . S
C391 H407 0.961 . S
C392 C393 1.370 . S
C392 C394 1.363 . S
C392 H408 0.931 . S
C393 C392 1.370 . S
C393 C397 1.408 . S
C394 C392 1.363 . S
C394 C395 1.370 . S
C394 C398 1.524 . S
C395 C387 1.503 . S
C395 C394 1.370 . S
C395 C396 1.403 . S
C396 C395 1.403 . S
C396 C397 1.404 . S
C396 C399 1.539 . S
C397 C393 1.408 . S
C397 C396 1.404 . S
C397 H409 0.930 . S
C398 C394 1.524 . S
C398 H410 0.956 . S
C398 H411 0.961 . S
C398 H412 0.961 . S
C399 C396 1.539 . S
C399 H413 0.958 . S
C399 H414 0.961 . S
C399 H415 0.960 . S
H400 C384 0.931 . S
H401 C389 0.929 . S
H402 C390 0.960 . S
H403 C390 0.962 . S
H404 C390 0.960 . S
H405 C391 0.961 . S
H406 C391 0.961 . S
H407 C391 0.961 . S
H408 C392 0.931 . S
H409 C397 0.930 . S
H410 C398 0.956 . S
H411 C398 0.961 . S
H412 C398 0.961 . S
H413 C399 0.958 . S
H414 C399 0.961 . S
H415 C399 0.960 . S
C416 C417 1.391 . S
C416 C418 1.394 . S
C416 H432 0.931 . S
C417 C416 1.391 . S
C417 C421 1.376 1_655 S
C418 C416 1.394 . S
C418 C419 1.369 . S
C418 C422 1.531 . S
C419 C418 1.369 . S
C419 C420 1.410 1_655 S
C419 C427 1.503 1_655 S
C420 C419 1.410 1_455 S
C420 C421 1.392 . S
C420 C423 1.511 . S
C421 C417 1.376 1_455 S
C421 C420 1.392 . S
C421 H433 0.929 . S
C422 C418 1.531 . S
C422 H434 0.960 . S
C422 H435 0.962 . S
C422 H436 0.960 . S
C423 C420 1.511 . S
C423 H437 0.961 . S
C423 H438 0.961 . S
C423 H439 0.961 . S
C424 C425 1.370 . S
C424 C426 1.363 . S
C424 H440 0.931 . S
C425 C424 1.370 . S
C425 C429 1.408 . S
C426 C424 1.363 . S
C426 C427 1.370 . S
C426 C430 1.524 1_455 S
C427 C419 1.503 1_455 S
C427 C426 1.370 . S
C427 C428 1.403 . S
C428 C427 1.403 . S
C428 C429 1.404 . S
C428 C431 1.539 . S
C429 C425 1.408 . S
C429 C428 1.404 . S
C429 H441 0.930 . S
C430 C426 1.524 1_655 S
C430 H442 0.956 . S
C430 H443 0.961 1_655 S
C430 H444 0.961 . S
C431 C428 1.539 . S
C431 H445 0.958 . S
C431 H446 0.961 . S
C431 H447 0.960 . S
H432 C416 0.931 . S
H433 C421 0.929 . S
H434 C422 0.960 . S
H435 C422 0.962 . S
H436 C422 0.960 . S
H437 C423 0.961 . S
H438 C423 0.961 . S
H439 C423 0.961 . S
H440 C424 0.931 . S
H441 C429 0.930 . S
H442 C430 0.956 . S
H443 C430 0.961 1_455 S
H444 C430 0.961 . S
H445 C431 0.958 . S
H446 C431 0.961 . S
H447 C431 0.960 . S
C448 C449 1.391 . S
C448 C450 1.394 . S
C448 H464 0.931 1_655 S
C449 C448 1.391 . S
C449 C453 1.376 . S
C450 C448 1.394 . S
C450 C451 1.369 . S
C450 C454 1.531 1_655 S
C451 C450 1.369 . S
C451 C452 1.410 . S
C451 C459 1.503 . S
C452 C451 1.410 . S
C452 C453 1.392 . S
C452 C455 1.511 . S
C453 C449 1.376 . S
C453 C452 1.392 . S
C453 H465 0.929 . S
C454 C450 1.531 1_455 S
C454 H466 0.960 1_455 S
C454 H467 0.962 . S
C454 H468 0.960 1_455 S
C455 C452 1.511 . S
C455 H469 0.961 . S
C455 H470 0.961 . S
C455 H471 0.961 . S
C456 C457 1.370 . S
C456 C458 1.363 . S
C456 H472 0.931 . S
C457 C456 1.370 . S
C457 C461 1.408 1_455 S
C458 C456 1.363 . S
C458 C459 1.370 1_455 S
C458 C462 1.524 . S
C459 C451 1.503 . S
C459 C458 1.370 1_655 S
C459 C460 1.403 . S
C460 C459 1.403 . S
C460 C461 1.404 . S
C460 C463 1.539 . S
C461 C457 1.408 1_655 S
C461 C460 1.404 . S
C461 H473 0.930 . S
C462 C458 1.524 . S
C462 H474 0.956 . S
C462 H475 0.961 . S
C462 H476 0.961 . S
C463 C460 1.539 . S
C463 H477 0.958 . S
C463 H478 0.961 . S
C463 H479 0.960 . S
H464 C448 0.931 1_455 S
H465 C453 0.929 . S
H466 C454 0.960 1_655 S
H467 C454 0.962 . S
H468 C454 0.960 1_655 S
H469 C455 0.961 . S
H470 C455 0.961 . S
H471 C455 0.961 . S
H472 C456 0.931 . S
H473 C461 0.930 . S
H474 C462 0.956 . S
H475 C462 0.961 . S
H476 C462 0.961 . S
H477 C463 0.958 . S
H478 C463 0.961 . S
H479 C463 0.960 . S
C480 C481 1.391 . S
C480 C482 1.394 1_655 S
C480 H496 0.931 1_655 S
C481 C480 1.391 . S
C481 C485 1.376 . S
C482 C480 1.394 1_455 S
C482 C483 1.369 1_455 S
C482 C486 1.531 . S
C483 C482 1.369 1_655 S
C483 C484 1.410 . S
C483 C491 1.503 1_655 S
C484 C483 1.410 . S
C484 C485 1.392 . S
C484 C487 1.511 . S
C485 C481 1.376 . S
C485 C484 1.392 . S
C485 H497 0.929 . S
C486 C482 1.531 . S
C486 H498 0.960 . S
C486 H499 0.962 . S
C486 H500 0.960 . S
C487 C484 1.511 . S
C487 H501 0.961 . S
C487 H502 0.961 . S
C487 H503 0.961 . S
C488 C489 1.370 . S
C488 C490 1.363 . S
C488 H504 0.931 . S
C489 C488 1.370 . S
C489 C493 1.408 . S
C490 C488 1.363 . S
C490 C491 1.370 . S
C490 C494 1.524 . S
C491 C483 1.503 1_455 S
C491 C490 1.370 . S
C491 C492 1.397 1_455 S
C492 C491 1.397 1_655 S
C492 C493 1.407 1_655 S
C492 C495 1.543 . S
C493 C489 1.408 . S
C493 C492 1.407 1_455 S
C493 H505 0.930 . S
C494 C490 1.524 . S
C494 H506 0.956 . S
C494 H507 0.961 . S
C494 H508 0.961 . S
C495 C492 1.543 . S
C495 H509 0.958 . S
C495 H510 0.961 . S
C495 H511 0.960 . S
H496 C480 0.931 1_455 S
H497 C485 0.929 . S
H498 C486 0.960 . S
H499 C486 0.962 . S
H500 C486 0.960 . S
H501 C487 0.961 . S
H502 C487 0.961 . S
H503 C487 0.961 . S
H504 C488 0.931 . S
H505 C493 0.930 . S
H506 C494 0.956 . S
H507 C494 0.961 . S
H508 C494 0.961 . S
H509 C495 0.958 . S
H510 C495 0.961 . S
H511 C495 0.960 . S
C512 C513 1.391 1_655 S
C512 C514 1.394 . S
C512 H528 0.931 . S
C513 C512 1.391 1_455 S
C513 C517 1.376 . S
C514 C512 1.394 . S
C514 C515 1.369 . S
C514 C518 1.531 . S
C515 C514 1.369 . S
C515 C516 1.410 1_655 S
C515 C523 1.503 . S
C516 C515 1.410 1_455 S
C516 C517 1.392 . S
C516 C519 1.511 . S
C517 C513 1.376 . S
C517 C516 1.392 . S
C517 H529 0.929 . S
C518 C514 1.531 . S
C518 H530 0.960 . S
C518 H531 0.962 . S
C518 H532 0.960 . S
C519 C516 1.511 . S
C519 H533 0.961 . S
C519 H534 0.961 . S
C519 H535 0.961 . S
C520 C521 1.370 1_455 S
C520 C522 1.363 . S
C520 H536 0.931 . S
C521 C520 1.370 1_655 S
C521 C525 1.408 . S
C522 C520 1.363 . S
C522 C523 1.370 1_455 S
C522 C526 1.524 . S
C523 C515 1.503 . S
C523 C522 1.370 1_655 S
C523 C524 1.403 . S
C524 C523 1.403 . S
C524 C525 1.404 . S
C524 C527 1.539 . S
C525 C521 1.408 . S
C525 C524 1.404 . S
C525 H537 0.930 . S
C526 C522 1.524 . S
C526 H538 0.956 . S
C526 H539 0.961 . S
C526 H540 0.961 . S
C527 C524 1.539 . S
C527 H541 0.958 . S
C527 H542 0.961 . S
C527 H543 0.960 . S
H528 C512 0.931 . S
H529 C517 0.929 . S
H530 C518 0.960 . S
H531 C518 0.962 . S
H532 C518 0.960 . S
H533 C519 0.961 . S
H534 C519 0.961 . S
H535 C519 0.961 . S
H536 C520 0.931 . S
H537 C525 0.930 . S
H538 C526 0.956 . S
H539 C526 0.961 . S
H540 C526 0.961 . S
H541 C527 0.958 . S
H542 C527 0.961 . S
H543 C527 0.960 . S
C161 C59 1.556 . S
C169 C10 1.574 . S
C193 C99 1.567 . S
C201 C130 1.570 . S
C225 C19 1.579 . S
C233 C50 1.569 . S
C257 C139 1.555 . S
C265 C90 1.575 . S
C289 C122 1.651 . S
C297 C2 1.647 . S
C321 C47 1.041 . S
C329 C87 1.049 . S
C353 C51 1.649 . S
C361 C91 1.651 . S
C385 C136 1.032 . S
C393 C16 1.049 . S
C417 C42 1.652 . S
C425 C82 1.648 . S
C449 C127 1.018 . S
C457 C7 1.044 . S
C481 C131 1.650 . S
C489 C11 1.651 . S
C513 C96 1.062 . S
C521 C56 1.043 . S
