# Generated by pormake.
# Topology wiu, (6)-cn, num edge types: 1
# Building blocks:
#     Node 0, Type 0, BuildingBlock: IZENUY_clean_sbu_0, # of connection points: 6
#     Node 1, Type 0, BuildingBlock: IZENUY_clean_sbu_0, # of connection points: 6
#     Node 2, Type 0, BuildingBlock: IZENUY_clean_sbu_0, # of connection points: 6
#     Node 3, Type 0, BuildingBlock: IZENUY_clean_sbu_0, # of connection points: 6
#     Node 4, Type 0, BuildingBlock: IZENUY_clean_sbu_0, # of connection points: 6
#     Node 5, Type 0, BuildingBlock: IZENUY_clean_sbu_0, # of connection points: 6
#     Node 6, Type 0, BuildingBlock: IZENUY_clean_sbu_0, # of connection points: 6
#     Node 7, Type 0, BuildingBlock: IZENUY_clean_sbu_0, # of connection points: 6
#     Node 8, Type 0, BuildingBlock: IZENUY_clean_sbu_0, # of connection points: 6
#     Node 9, Type 0, BuildingBlock: IZENUY_clean_sbu_0, # of connection points: 6
#     Node 10, Type 0, BuildingBlock: IZENUY_clean_sbu_0, # of connection points: 6
#     Node 11, Type 0, BuildingBlock: IZENUY_clean_sbu_0, # of connection points: 6
#     Node 12, Type 0, BuildingBlock: IZENUY_clean_sbu_0, # of connection points: 6
#     Node 13, Type 0, BuildingBlock: IZENUY_clean_sbu_0, # of connection points: 6
#     Node 14, Type 0, BuildingBlock: IZENUY_clean_sbu_0, # of connection points: 6
#     Node 15, Type 0, BuildingBlock: IZENUY_clean_sbu_0, # of connection points: 6
#     Edge 16, Type (0, 0), BuildingBlock: CIFDUS_clean_linker_0, # of connection points: 2
#     Edge 17, Type (0, 0), BuildingBlock: CIFDUS_clean_linker_0, # of connection points: 2
#     Edge 18, Type (0, 0), BuildingBlock: CIFDUS_clean_linker_0, # of connection points: 2
#     Edge 19, Type (0, 0), BuildingBlock: CIFDUS_clean_linker_0, # of connection points: 2
#     Edge 20, Type (0, 0), BuildingBlock: CIFDUS_clean_linker_0, # of connection points: 2
#     Edge 21, Type (0, 0), BuildingBlock: CIFDUS_clean_linker_0, # of connection points: 2
#     Edge 22, Type (0, 0), BuildingBlock: CIFDUS_clean_linker_0, # of connection points: 2
#     Edge 23, Type (0, 0), BuildingBlock: CIFDUS_clean_linker_0, # of connection points: 2
#     Edge 24, Type (0, 0), BuildingBlock: CIFDUS_clean_linker_0, # of connection points: 2
#     Edge 25, Type (0, 0), BuildingBlock: CIFDUS_clean_linker_0, # of connection points: 2
#     Edge 26, Type (0, 0), BuildingBlock: CIFDUS_clean_linker_0, # of connection points: 2
#     Edge 27, Type (0, 0), BuildingBlock: CIFDUS_clean_linker_0, # of connection points: 2
#     Edge 28, Type (0, 0), BuildingBlock: CIFDUS_clean_linker_0, # of connection points: 2
#     Edge 29, Type (0, 0), BuildingBlock: CIFDUS_clean_linker_0, # of connection points: 2
#     Edge 30, Type (0, 0), BuildingBlock: CIFDUS_clean_linker_0, # of connection points: 2
#     Edge 31, Type (0, 0), BuildingBlock: CIFDUS_clean_linker_0, # of connection points: 2
#     Edge 32, Type (0, 0), BuildingBlock: CIFDUS_clean_linker_0, # of connection points: 2
#     Edge 33, Type (0, 0), BuildingBlock: CIFDUS_clean_linker_0, # of connection points: 2
#     Edge 34, Type (0, 0), BuildingBlock: CIFDUS_clean_linker_0, # of connection points: 2
#     Edge 35, Type (0, 0), BuildingBlock: CIFDUS_clean_linker_0, # of connection points: 2
#     Edge 36, Type (0, 0), BuildingBlock: CIFDUS_clean_linker_0, # of connection points: 2
#     Edge 37, Type (0, 0), BuildingBlock: CIFDUS_clean_linker_0, # of connection points: 2
#     Edge 38, Type (0, 0), BuildingBlock: CIFDUS_clean_linker_0, # of connection points: 2
#     Edge 39, Type (0, 0), BuildingBlock: CIFDUS_clean_linker_0, # of connection points: 2
#     Edge 40, Type (0, 0), BuildingBlock: CIFDUS_clean_linker_0, # of connection points: 2
#     Edge 41, Type (0, 0), BuildingBlock: CIFDUS_clean_linker_0, # of connection points: 2
#     Edge 42, Type (0, 0), BuildingBlock: CIFDUS_clean_linker_0, # of connection points: 2
#     Edge 43, Type (0, 0), BuildingBlock: CIFDUS_clean_linker_0, # of connection points: 2
#     Edge 44, Type (0, 0), BuildingBlock: CIFDUS_clean_linker_0, # of connection points: 2
#     Edge 45, Type (0, 0), BuildingBlock: CIFDUS_clean_linker_0, # of connection points: 2
#     Edge 46, Type (0, 0), BuildingBlock: CIFDUS_clean_linker_0, # of connection points: 2
#     Edge 47, Type (0, 0), BuildingBlock: CIFDUS_clean_linker_0, # of connection points: 2
#     Edge 48, Type (0, 0), BuildingBlock: CIFDUS_clean_linker_0, # of connection points: 2
#     Edge 49, Type (0, 0), BuildingBlock: CIFDUS_clean_linker_0, # of connection points: 2
#     Edge 50, Type (0, 0), BuildingBlock: CIFDUS_clean_linker_0, # of connection points: 2
#     Edge 51, Type (0, 0), BuildingBlock: CIFDUS_clean_linker_0, # of connection points: 2
#     Edge 52, Type (0, 0), BuildingBlock: CIFDUS_clean_linker_0, # of connection points: 2
#     Edge 53, Type (0, 0), BuildingBlock: CIFDUS_clean_linker_0, # of connection points: 2
#     Edge 54, Type (0, 0), BuildingBlock: CIFDUS_clean_linker_0, # of connection points: 2
#     Edge 55, Type (0, 0), BuildingBlock: CIFDUS_clean_linker_0, # of connection points: 2
#     Edge 56, Type (0, 0), BuildingBlock: CIFDUS_clean_linker_0, # of connection points: 2
#     Edge 57, Type (0, 0), BuildingBlock: CIFDUS_clean_linker_0, # of connection points: 2
#     Edge 58, Type (0, 0), BuildingBlock: CIFDUS_clean_linker_0, # of connection points: 2
#     Edge 59, Type (0, 0), BuildingBlock: CIFDUS_clean_linker_0, # of connection points: 2
#     Edge 60, Type (0, 0), BuildingBlock: CIFDUS_clean_linker_0, # of connection points: 2
#     Edge 61, Type (0, 0), BuildingBlock: CIFDUS_clean_linker_0, # of connection points: 2
#     Edge 62, Type (0, 0), BuildingBlock: CIFDUS_clean_linker_0, # of connection points: 2
#     Edge 63, Type (0, 0), BuildingBlock: CIFDUS_clean_linker_0, # of connection points: 2
# Relax obj value: 0.193
# Max RMSD: 0.208
# Mean RMSD: 0.207
data_MOF--net-wiu--node1-IZENUY_clean_sbu_0--edge1-CIFDUS_clean_linker_0
_symmetry_space_group_name_H-M    P1
_symmetry_Int_Tables_number       1
_symmetry_cell_setting            triclinic
loop_
_symmetry_equiv_pos_as_xyz
'x, y, z'
_cell_length_a     27.290973
_cell_length_b     27.148836
_cell_length_c     48.370526
_cell_angle_alpha  89.542003
_cell_angle_beta   89.576566
_cell_angle_gamma 90.340689
loop_
_atom_site_label
_atom_site_type_symbol
_atom_site_fract_x
_atom_site_fract_y
_atom_site_fract_z
_atom_type_partial_charge
Fe0 Fe 0.32284 0.10226 0.04547 0.0
Fe1 Fe 0.37397 0.20273 0.03716 0.0
O2 O 0.33971 0.16112 0.05788 0.0
Fe3 Fe 0.32346 0.1781 0.0919 0.0
O4 O 0.36053 0.12942 0.10529 0.0
O5 O 0.32904 0.07126 0.07934 0.0
O6 O 0.38636 0.08534 0.0386 0.0
C7 C 0.41644 0.10903 0.02346 0.0
C8 C 0.24008 0.12504 0.075 0.0
O9 O 0.4096 0.15462 0.01846 0.0
C10 C 0.3049 0.26427 0.06613 0.0
O11 O 0.31542 0.12353 0.00966 0.0
O12 O 0.32736 0.20388 0.01112 0.0
O13 O 0.26806 0.14024 0.09377 0.0
O14 O 0.25751 0.11459 0.05144 0.0
C15 C 0.41724 0.21817 0.08655 0.0
O16 O 0.34417 0.25853 0.05198 0.0
O17 O 0.2865 0.2286 0.07964 0.0
C18 C 0.31246 0.1661 -0.00115 0.0
O19 O 0.4231 0.2038 0.06211 0.0
O20 O 0.37523 0.21925 0.09725 0.0
C21 C 0.35516 0.0846 0.09957 0.0
Fe22 Fe 0.75134 0.60935 0.30548 0.0
Fe23 Fe 0.67866 0.59411 0.35419 0.0
O24 O 0.69139 0.61443 0.31978 0.0
Fe25 Fe 0.64429 0.64196 0.30028 0.0
O26 O 0.64866 0.59548 0.27385 0.0
O27 O 0.72933 0.59888 0.27057 0.0
O28 O 0.75096 0.54284 0.31085 0.0
C29 C 0.74431 0.5213 0.33387 0.0
C30 C 0.72779 0.69976 0.28336 0.0
O31 O 0.72251 0.54286 0.35352 0.0
C32 C 0.63138 0.68403 0.35082 0.0
O33 O 0.78324 0.61962 0.33814 0.0
O34 O 0.72357 0.63624 0.36723 0.0
O35 O 0.68439 0.68406 0.28021 0.0
O36 O 0.75717 0.67582 0.29842 0.0
C37 C 0.59323 0.56561 0.33058 0.0
O38 O 0.63351 0.64175 0.36157 0.0
O39 O 0.63874 0.69046 0.32533 0.0
C40 C 0.7676 0.64027 0.35975 0.0
O41 O 0.63084 0.55144 0.34345 0.0
O42 O 0.59429 0.60526 0.31644 0.0
C43 C 0.68785 0.58905 0.26039 0.0
Fe44 Fe 0.24336 0.92731 0.59902 0.0
Fe45 Fe 0.24819 0.99607 0.5484 0.0
O46 O 0.2301 0.93887 0.56363 0.0
Fe47 Fe 0.19913 0.89446 0.54334 0.0
O48 O 0.16034 0.872 0.57142 0.0
O49 O 0.17944 0.91612 0.6079 0.0
O50 O 0.23349 0.99094 0.60886 0.0
C51 C 0.2087 1.02445 0.59738 0.0
C52 C 0.25973 0.83362 0.57458 0.0
O53 O 0.20757 1.02965 0.57144 0.0
C54 C 0.27386 0.93186 0.50818 0.0
O55 O 0.3091 0.93766 0.59379 0.0
O56 O 0.3003 1.00693 0.57116 0.0
O57 O 0.24496 0.84672 0.55082 0.0
O58 O 0.25447 0.86151 0.59515 0.0
C59 C 0.15818 0.97874 0.52121 0.0
O60 O 0.2889 0.96481 0.52449 0.0
O61 O 0.23363 0.90948 0.5121 0.0
C62 C 0.32612 0.97872 0.58582 0.0
O63 O 0.20015 0.99811 0.52248 0.0
O64 O 0.14987 0.93814 0.53368 0.0
C65 C 0.15135 0.88681 0.59558 0.0
Fe66 Fe 0.83149 0.49747 0.79712 0.0
Fe67 Fe 0.93224 0.44866 0.79185 0.0
O68 O 0.88874 0.48113 0.81145 0.0
Fe69 Fe 0.90172 0.49552 0.84623 0.0
O70 O 0.85202 0.45611 0.85721 0.0
O71 O 0.79752 0.48947 0.8298 0.0
O72 O 0.8159 0.43368 0.78962 0.0
C73 C 0.84128 0.40466 0.77519 0.0
C74 C 0.84816 0.57932 0.82817 0.0
O75 O 0.8868 0.41294 0.77144 0.0
C76 C 0.98957 0.51792 0.82294 0.0
O77 O 0.856 0.50651 0.76191 0.0
O78 O 0.93547 0.49706 0.7665 0.0
O79 O 0.86301 0.55103 0.84727 0.0
O80 O 0.84254 0.56291 0.80393 0.0
C81 C 0.94474 0.40229 0.84087 0.0
O82 O 0.98552 0.47904 0.80846 0.0
O83 O 0.95331 0.53436 0.83641 0.0
C84 C 0.89933 0.51026 0.75245 0.0
O85 O 0.93141 0.39783 0.81622 0.0
O86 O 0.94295 0.44364 0.85243 0.0
C87 C 0.80819 0.46145 0.84989 0.0
Fe88 Fe 0.73406 0.99689 0.91247 0.0
Fe89 Fe 0.68118 0.89746 0.92051 0.0
O90 O 0.71592 0.93862 0.89975 0.0
Fe91 Fe 0.73074 0.9224 0.86547 0.0
O92 O 0.69558 0.97326 0.85304 0.0
O93 O 0.73056 1.02902 0.87886 0.0
O94 O 0.67064 1.01506 0.91886 0.0
C95 C 0.64053 0.99188 0.93429 0.0
C96 C 0.81629 0.97277 0.88323 0.0
O97 O 0.64733 0.94637 0.93968 0.0
C98 C 0.74698 0.8343 0.88985 0.0
O99 O 0.73976 0.97499 0.94809 0.0
O100 O 0.72864 0.89471 0.9462 0.0
O101 O 0.78836 0.9578 0.86421 0.0
O102 O 0.79887 0.9827 0.90687 0.0
C103 C 0.63488 0.88745 0.87126 0.0
O104 O 0.7088 0.84088 0.90487 0.0
O105 O 0.76578 0.8698 0.87647 0.0
C106 C 0.7426 0.93247 0.95888 0.0
O107 O 0.63117 0.89873 0.8963 0.0
O108 O 0.67637 0.88408 0.8599 0.0
C109 C 0.70496 1.0176 0.85816 0.0
Fe110 Fe 0.45071 0.44418 0.66512 0.0
Fe111 Fe 0.4194 0.49274 0.61101 0.0
O112 O 0.4059 0.4756 0.64576 0.0
Fe113 Fe 0.34754 0.48775 0.66062 0.0
O114 O 0.33525 0.42257 0.66901 0.0
O115 O 0.40732 0.40746 0.68665 0.0
O116 O 0.44981 0.39384 0.641 0.0
C117 C 0.45812 0.39846 0.6155 0.0
C118 C 0.41567 0.50565 0.7038 0.0
O119 O 0.4598 0.44053 0.60429 0.0
C120 C 0.36148 0.57294 0.6301 0.0
O121 O 0.50355 0.47476 0.64765 0.0
O122 O 0.47112 0.53141 0.62077 0.0
O123 O 0.37254 0.49832 0.69506 0.0
O124 O 0.45289 0.49262 0.69027 0.0
C125 C 0.3264 0.45519 0.60713 0.0
O126 O 0.38048 0.54796 0.61084 0.0
O127 O 0.35412 0.55377 0.65373 0.0
C128 C 0.50769 0.51428 0.63348 0.0
O129 O 0.37037 0.45435 0.59923 0.0
O130 O 0.31346 0.47856 0.62846 0.0
C131 C 0.36253 0.39583 0.68384 0.0
Fe132 Fe 0.85573 0.16735 0.35802 0.0
Fe133 Fe 0.84437 0.10002 0.40887 0.0
O134 O 0.87014 0.15336 0.39287 0.0
Fe135 Fe 0.90924 0.19242 0.41188 0.0
O136 O 0.94745 0.20912 0.38238 0.0
O137 O 0.91962 0.16643 0.34724 0.0
O138 O 0.85242 0.10302 0.34824 0.0
C139 C 0.87149 0.06502 0.35887 0.0
C140 C 0.85483 0.26133 0.38285 0.0
O141 O 0.87592 0.05998 0.38466 0.0
C142 C 0.83405 0.16783 0.44941 0.0
O143 O 0.79023 0.16956 0.36571 0.0
O144 O 0.78832 0.09901 0.38787 0.0
O145 O 0.86937 0.24583 0.40616 0.0
O146 O 0.8572 0.23415 0.36184 0.0
C147 C 0.93958 0.10275 0.43239 0.0
O148 O 0.81218 0.13776 0.43387 0.0
O149 O 0.87719 0.1823 0.44434 0.0
C150 C 0.76658 0.13256 0.37452 0.0
O151 O 0.89502 0.08968 0.43297 0.0
O152 O 0.95216 0.14191 0.41958 0.0
C153 C 0.95293 0.19116 0.35856 0.0
Fe154 Fe 0.23416 0.59956 0.16483 0.0
Fe155 Fe 0.13058 0.63868 0.17438 0.0
O156 O 0.17509 0.61357 0.15219 0.0
Fe157 Fe 0.16123 0.60432 0.11688 0.0
O158 O 0.20864 0.64738 0.10702 0.0
O159 O 0.26613 0.61403 0.13211 0.0
O160 O 0.24568 0.66314 0.17529 0.0
C161 C 0.2187 0.6867 0.19191 0.0
C162 C 0.21847 0.52089 0.13094 0.0
O163 O 0.17462 0.673 0.19613 0.0
C164 C 0.07514 0.57386 0.13972 0.0
O165 O 0.21221 0.58353 0.19964 0.0
O166 O 0.1319 0.58539 0.1967 0.0
O167 O 0.20178 0.55053 0.11297 0.0
O168 O 0.22651 0.53511 0.15536 0.0
C169 C 0.11828 0.69464 0.12809 0.0
O170 O 0.07815 0.60939 0.15664 0.0
O171 O 0.11147 0.56196 0.12494 0.0
C172 C 0.17009 0.57333 0.20937 0.0
O173 O 0.1277 0.69342 0.15347 0.0
O174 O 0.11872 0.65592 0.11393 0.0
C175 C 0.25305 0.64345 0.11316 0.0
Fe176 Fe 0.85756 0.65503 0.60141 0.0
Fe177 Fe 0.85496 0.5952 0.54797 0.0
O178 O 0.87212 0.64916 0.56598 0.0
Fe179 Fe 0.90525 0.69671 0.54915 0.0
O180 O 0.95608 0.6892 0.5725 0.0
O181 O 0.91136 0.69301 0.61007 0.0
O182 O 0.89433 0.60226 0.60889 0.0
C183 C 0.88667 0.55979 0.59958 0.0
C184 C 0.83867 0.74796 0.58466 0.0
O185 O 0.86108 0.55368 0.57812 0.0
C186 C 0.84159 0.67303 0.50909 0.0
O187 O 0.80055 0.61808 0.59994 0.0
O188 O 0.79002 0.60555 0.55561 0.0
O189 O 0.87771 0.74656 0.57014 0.0
O190 O 0.82089 0.70921 0.59532 0.0
C191 C 0.94704 0.6097 0.52552 0.0
O192 O 0.84657 0.62783 0.51513 0.0
O193 O 0.8567 0.70649 0.52473 0.0
C194 C 0.7726 0.60818 0.57988 0.0
O195 O 0.91855 0.5808 0.53873 0.0
O196 O 0.93872 0.65574 0.52516 0.0
C197 C 0.95264 0.69529 0.59817 0.0
Fe198 Fe 0.16072 0.08568 0.84176 0.0
Fe199 Fe 0.1285 0.12801 0.78632 0.0
O200 O 0.17405 0.10033 0.80675 0.0
Fe201 Fe 0.23317 0.0885 0.79283 0.0
O202 O 0.22721 1.02244 0.801 0.0
O203 O 0.20312 1.03327 0.84391 0.0
O204 O 0.11241 1.04284 0.83261 0.0
C205 C 0.07529 0.05631 0.81907 0.0
C206 C 0.25154 0.12575 0.846 0.0
O207 O 0.07719 0.09438 0.80351 0.0
C208 C 0.21611 0.17909 0.76828 0.0
O209 O 0.11582 0.13455 0.84688 0.0
O210 O 0.12388 0.17973 0.80957 0.0
O211 O 0.26543 0.1003 0.82554 0.0
O212 O 0.20688 0.12862 0.85239 0.0
C213 C 0.16814 0.06751 0.74843 0.0
O214 O 0.17148 0.16645 0.7653 0.0
O215 O 0.24395 0.15343 0.78346 0.0
C216 C 0.111 0.17512 0.83447 0.0
O217 O 0.13029 0.07843 0.7619 0.0
O218 O 0.2106 0.07596 0.75785 0.0
C219 C 0.22062 1.00577 0.82534 0.0
Fe220 Fe 0.74334 0.41273 0.09445 0.0
Fe221 Fe 0.72724 0.50123 0.05583 0.0
O222 O 0.72218 0.43738 0.06273 0.0
Fe223 Fe 0.69504 0.39758 0.03854 0.0
O224 O 0.64725 0.3817 0.06311 0.0
O225 O 0.698 0.3629 0.09645 0.0
O226 O 0.69978 0.44897 0.11315 0.0
C227 C 0.69439 0.49471 0.1108 0.0
C228 C 0.77287 0.33938 0.06153 0.0
O229 O 0.71631 0.51904 0.0919 0.0
C230 C 0.74787 0.45621 0.0041 0.0
O231 O 0.79246 0.45838 0.09925 0.0
O232 O 0.79364 0.49993 0.06024 0.0
O233 O 0.73233 0.34323 0.0488 0.0
O234 O 0.7873 0.374 0.07677 0.0
C235 C 0.63744 0.48512 0.0321 0.0
O236 O 0.73787 0.49313 0.01891 0.0
O237 O 0.74108 0.4127 0.01288 0.0
C238 C 0.81494 0.48532 0.08186 0.0
O239 O 0.66136 0.50796 0.05034 0.0
O240 O 0.65252 0.44371 0.02362 0.0
C241 C 0.6555 0.36273 0.08647 0.0
Fe242 Fe 0.43793 0.99604 0.34048 0.0
Fe243 Fe 0.35694 0.98645 0.29683 0.0
O244 O 0.41814 0.97707 0.30751 0.0
Fe245 Fe 0.46031 0.94713 0.28568 0.0
O246 O 0.46477 0.89705 0.31023 0.0
O247 O 0.48112 0.9453 0.34509 0.0
O248 O 0.39387 0.95657 0.35667 0.0
C249 C 0.34843 0.95662 0.35298 0.0
C250 C 0.52023 1.01927 0.31244 0.0
O251 O 0.32992 0.97676 0.33171 0.0
C252 C 0.41594 1.00663 0.24902 0.0
O253 O 0.3972 0.04917 0.34263 0.0
O254 O 0.362 0.05282 0.30197 0.0
O255 O 0.51506 0.97881 0.29967 0.0
O256 O 0.48456 1.03658 0.3258 0.0
C257 C 0.37152 0.89562 0.27363 0.0
O258 O 0.37489 0.99731 0.26061 0.0
O259 O 0.45604 0.99563 0.26026 0.0
C260 C 0.37396 0.07284 0.32443 0.0
O261 O 0.34622 0.92074 0.29035 0.0
O262 O 0.41465 0.90943 0.26739 0.0
C263 C 0.47656 0.90275 0.33511 0.0
Fe264 Fe 0.25054 0.41317 0.36392 0.0
Fe265 Fe 0.24431 0.48187 0.414 0.0
O266 O 0.23208 0.42405 0.39851 0.0
Fe267 Fe 0.20024 0.37728 0.41688 0.0
O268 O 0.15154 0.37709 0.39165 0.0
O269 O 0.20043 0.37048 0.35588 0.0
O270 O 0.21142 0.46163 0.35243 0.0
C271 C 0.21306 0.50556 0.36041 0.0
C272 C 0.27335 0.32493 0.38623 0.0
O273 O 0.23692 0.51757 0.38172 0.0
C274 C 0.25811 0.41188 0.45741 0.0
O275 O 0.30452 0.4541 0.3647 0.0
O276 O 0.31042 0.47511 0.40821 0.0
O277 O 0.23324 0.32627 0.39979 0.0
O278 O 0.28977 0.36284 0.37396 0.0
C279 C 0.15164 0.46491 0.43534 0.0
O280 O 0.25254 0.45553 0.44854 0.0
O281 O 0.24645 0.37508 0.44322 0.0
C282 C 0.33002 0.46935 0.38466 0.0
O283 O 0.17943 0.4935 0.42148 0.0
O284 O 0.16185 0.41946 0.43752 0.0
C285 C 0.15812 0.36836 0.3664 0.0
Fe286 Fe 0.82584 0.99446 0.15835 0.0
Fe287 Fe 0.93233 0.98571 0.17806 0.0
O288 O 0.88988 0.99518 0.15117 0.0
Fe289 Fe 0.91102 1.00521 0.11685 0.0
O290 O 0.87897 0.95095 0.10556 0.0
O291 O 0.80871 0.9699 0.12458 0.0
O292 O 0.82766 0.93108 0.17156 0.0
C293 C 0.85473 0.91691 0.19128 0.0
C294 C 0.83337 0.07285 0.1223 0.0
O295 O 0.89282 0.94154 0.19763 0.0
C296 C 0.98052 0.05787 0.14308 0.0
O297 O 0.83162 1.01757 0.19349 0.0
O298 O 0.90887 1.03789 0.19671 0.0
O299 O 0.86099 0.04678 0.1073 0.0
O300 O 0.81964 0.0579 0.14599 0.0
C301 C 0.97559 0.93345 0.1371 0.0
O302 O 0.98006 1.02675 0.16288 0.0
O303 O 0.94572 0.05933 0.12615 0.0
C304 C 0.86625 1.03704 0.20681 0.0
O305 O 0.95834 0.93309 0.16126 0.0
O306 O 0.96491 0.96634 0.11975 0.0
C307 C 0.83363 0.94412 0.10802 0.0
Fe308 Fe 0.33379 0.58336 0.90971 0.0
Fe309 Fe 0.37581 0.68599 0.92203 0.0
O310 O 0.34644 0.64478 0.89928 0.0
Fe311 Fe 0.3314 0.66443 0.86538 0.0
O312 O 0.37133 0.61902 0.851 0.0
O313 O 0.34283 0.55669 0.87532 0.0
O314 O 0.39837 0.57077 0.91656 0.0
C315 C 0.42428 0.59444 0.93363 0.0
C316 C 0.25036 0.60404 0.88093 0.0
O317 O 0.41285 0.63829 0.94004 0.0
C318 C 0.30744 0.74778 0.89208 0.0
O319 O 0.32344 0.59911 0.94567 0.0
O320 O 0.32714 0.67998 0.94756 0.0
O321 O 0.27695 0.62429 0.86245 0.0
O322 O 0.26841 0.59175 0.90395 0.0
C323 C 0.42363 0.70628 0.87351 0.0
O324 O 0.34441 0.74187 0.90784 0.0
O325 O 0.29158 0.71232 0.87795 0.0
C326 C 0.31699 0.63881 0.95864 0.0
O327 O 0.42695 0.69295 0.89837 0.0
O328 O 0.38271 0.70769 0.86167 0.0
C329 C 0.36847 0.5735 0.85551 0.0
Fe330 Fe 0.74915 0.09329 0.65547 0.0
Fe331 Fe 0.64665 0.13514 0.6672 0.0
O332 O 0.68866 0.10637 0.64486 0.0
Fe333 Fe 0.66952 0.09184 0.61123 0.0
O334 O 0.71369 0.13386 0.59731 0.0
O335 O 0.77654 0.10677 0.62116 0.0
O336 O 0.7615 0.15739 0.66387 0.0
C337 C 0.73719 0.18302 0.6807 0.0
C338 C 0.73042 1.01153 0.62425 0.0
O339 O 0.69315 0.17126 0.68657 0.0
C340 C 0.58879 0.06316 0.63935 0.0
O341 O 0.7306 0.07934 0.69141 0.0
O342 O 0.64986 0.08462 0.69098 0.0
O343 O 0.71051 1.03974 0.60689 0.0
O344 O 0.74224 1.02757 0.64778 0.0
C345 C 0.62884 0.18371 0.61939 0.0
O346 O 0.59187 0.10379 0.65232 0.0
O347 O 0.62394 0.04911 0.62442 0.0
C348 C 0.68881 0.07098 0.70233 0.0
O349 O 0.64231 0.18744 0.64408 0.0
O350 O 0.62523 0.14198 0.60836 0.0
C351 C 0.75904 0.13277 0.60165 0.0
H352 H 0.50867 0.19302 0.10109 0.0
H353 H 0.40795 0.31446 0.09652 0.0
H354 H 0.47524 0.3731 0.10196 0.0
H355 H 0.56328 0.38846 0.09685 0.0
H356 H 0.66447 0.26811 0.10426 0.0
H357 H 0.5964 0.20971 0.10954 0.0
C358 C 0.5017 0.23227 0.10229 0.0
C359 C 0.45453 0.25011 0.09786 0.0
C360 C 0.54038 0.26554 0.10548 0.0
C361 C 0.44467 0.3006 0.09975 0.0
C362 C 0.48296 0.33399 0.10268 0.0
C363 C 0.57013 0.3496 0.10055 0.0
C364 C 0.61781 0.33162 0.09886 0.0
C365 C 0.53111 0.31681 0.10389 0.0
C366 C 0.6274 0.2819 0.1045 0.0
C367 C 0.58863 0.24868 0.10753 0.0
H368 H 0.53634 0.69137 0.361 0.0
H369 H 0.67473 0.76552 0.37103 0.0
H370 H 0.63314 0.84465 0.3756 0.0
H371 H 0.56144 0.89269 0.36199 0.0
H372 H 0.42668 0.81787 0.34228 0.0
H373 H 0.46152 0.73913 0.3567 0.0
C374 C 0.55677 0.72472 0.36563 0.0
C375 C 0.60788 0.72368 0.36558 0.0
C376 C 0.53302 0.77004 0.36565 0.0
C377 C 0.63502 0.76636 0.37112 0.0
C378 C 0.61132 0.81145 0.37333 0.0
C379 C 0.53946 0.85922 0.36193 0.0
C380 C 0.4924 0.85995 0.35073 0.0
C381 C 0.56087 0.814 0.36835 0.0
C382 C 0.46354 0.81713 0.35047 0.0
C383 C 0.4834 0.77236 0.35866 0.0
H384 H 0.15409 0.7925 0.60939 0.0
H385 H 0.06323 0.92125 0.61394 0.0
H386 H 0.99098 0.86912 0.6232 0.0
H387 H 0.95282 0.78736 0.61765 0.0
H388 H 0.0439 0.66015 0.60579 0.0
H389 H 0.11742 0.71053 0.61241 0.0
C390 C 0.11866 0.80897 0.61359 0.0
C391 C 0.11326 0.86009 0.61094 0.0
C392 C 0.07748 0.77877 0.61715 0.0
C393 C 0.06772 0.88178 0.6161 0.0
C394 C 1.02654 0.85194 0.62103 0.0
C395 C 0.98876 0.77054 0.61786 0.0
C396 C 0.99353 0.72044 0.61143 0.0
C397 C 1.03066 0.80038 0.61985 0.0
C398 C 1.03992 0.69873 0.61091 0.0
C399 C 0.08176 0.72758 0.61443 0.0
H400 H 0.12586 0.26894 0.85046 0.0
H401 H 1.01502 0.1569 0.8407 0.0
H402 H 0.9505 0.21799 0.84684 0.0
H403 H 0.92712 0.30522 0.84613 0.0
H404 H 1.03747 0.41711 0.85786 0.0
H405 H 0.10096 0.3542 0.86067 0.0
C406 C 0.08753 0.25806 0.85056 0.0
C407 C 0.07458 0.20935 0.84482 0.0
C408 C 0.05082 0.29322 0.85432 0.0
C409 C 1.02521 0.1947 0.84505 0.0
C410 C 0.98847 0.22949 0.84843 0.0
C411 C 0.96484 0.31537 0.85035 0.0
C412 C 0.97811 0.3651 0.85154 0.0
C413 C 1.00094 0.27916 0.85182 0.0
C414 C 1.02679 0.37863 0.85704 0.0
C415 C 0.06309 0.34281 0.85832 0.0
H416 H 0.62989 0.79408 0.85529 0.0
H417 H 0.546 0.92738 0.86171 0.0
H418 H 0.46987 0.88085 0.85512 0.0
H419 H 0.42789 0.8011 0.85897 0.0
H420 H 0.51233 0.66771 0.8621 0.0
H421 H 0.58778 0.71459 0.85301 0.0
C422 C 0.59494 0.81287 0.85408 0.0
C423 C 0.59274 0.86356 0.85883 0.0
C424 C 0.5516 0.78547 0.85254 0.0
C425 C 0.5478 0.88814 0.85794 0.0
C426 C 0.50451 0.86154 0.85444 0.0
C427 C 0.46277 0.78249 0.85663 0.0
C428 C 0.46544 0.73162 0.86112 0.0
C429 C 0.5059 0.80997 0.85341 0.0
C430 C 0.51025 0.70715 0.85867 0.0
C431 C 0.55314 0.73389 0.85363 0.0
H432 H 0.53656 0.19015 0.6019 0.0
H433 H 0.67161 0.27173 0.60919 0.0
H434 H 0.62892 0.34871 0.599 0.0
H435 H 0.55133 0.3928 0.60015 0.0
H436 H 0.41534 0.3117 0.60269 0.0
H437 H 0.45937 0.23432 0.59594 0.0
C438 C 0.55656 0.22475 0.60022 0.0
C439 C 0.60652 0.22626 0.60638 0.0
C440 C 0.53123 0.26877 0.59636 0.0
C441 C 0.63279 0.27063 0.60463 0.0
C442 C 0.60844 0.31438 0.59891 0.0
C443 C 0.53155 0.35823 0.59795 0.0
C444 C 0.48078 0.35701 0.60182 0.0
C445 C 0.55731 0.3141 0.59647 0.0
C446 C 0.45472 0.31265 0.59961 0.0
C447 C 0.47987 0.26864 0.59606 0.0
H448 H 0.15729 0.27441 0.35003 0.0
H449 H 0.07145 0.40699 0.35114 0.0
H450 H 0.9986 0.3605 0.33736 0.0
H451 H 0.957 0.28099 0.33755 0.0
H452 H 1.03989 0.1476 0.34639 0.0
H453 H 0.11662 0.19454 0.34223 0.0
C454 C 0.12286 0.29302 0.34622 0.0
C455 C 0.1189 0.34354 0.35158 0.0
C456 C 0.08077 0.26552 0.34012 0.0
C457 C 0.07458 0.36791 0.34714 0.0
C458 C 1.03316 0.34135 0.33935 0.0
C459 C 0.99203 0.2622 0.33703 0.0
C460 C 0.99345 0.21137 0.34222 0.0
C461 C 1.03531 0.28987 0.33745 0.0
C462 C 1.03842 0.18679 0.34208 0.0
C463 C 0.08212 0.21379 0.34029 0.0
H464 H 0.14437 0.78491 0.14282 0.0
H465 H 0.04785 0.70553 0.08861 0.0
H466 H 0.99861 0.77978 0.08183 0.0
H467 H 0.97326 0.86024 0.1004 0.0
H468 H 0.06477 0.93355 0.15971 0.0
H469 H 0.12636 0.86897 0.15553 0.0
C470 C 0.11319 0.7844 0.12898 0.0
C471 C 0.09844 0.7402 0.11689 0.0
C472 C 0.08391 0.82584 0.12662 0.0
C473 C 0.05916 0.73949 0.09836 0.0
C474 C 1.03084 0.78165 0.09475 0.0
C475 C 1.00735 0.86219 0.11178 0.0
C476 C 1.01494 0.90009 0.13067 0.0
C477 C 0.0412 0.82394 0.11019 0.0
C478 C 0.05867 0.90356 0.14545 0.0
C479 C 0.09364 0.86695 0.14301 0.0
H480 H 0.48106 0.1409 -0.01758 0.0
H481 H 0.44522 1.01389 0.03299 0.0
H482 H 0.50941 0.96679 0.01016 0.0
H483 H 0.57633 0.96051 0.9755 0.0
H484 H 0.61231 0.08736 0.92486 0.0
H485 H 0.54824 0.13465 0.94778 0.0
C486 C 0.48735 0.10301 -0.01141 0.0
C487 C 0.45775 0.08145 0.00965 0.0
C488 C 0.52465 0.07554 0.97515 0.0
C489 C 0.46687 1.03196 0.01699 0.0
C490 C 0.5038 1.00472 0.00385 0.0
C491 C 0.57013 0.99842 0.96933 0.0
C492 C 0.59964 1.01986 0.94821 0.0
C493 C 0.53292 1.02592 -0.0172 0.0
C494 C 0.59066 0.06939 0.9409 0.0
C495 C 0.55381 0.09671 0.95409 0.0
H496 H 0.82062 0.74216 0.2787 0.0
H497 H 0.67337 0.75411 0.24737 0.0
H498 H 0.69932 0.81949 0.21587 0.0
H499 H 0.76354 0.87388 0.19637 0.0
H500 H 0.91038 0.86498 0.22824 0.0
H501 H 0.88501 0.79859 0.25977 0.0
C502 C 0.7941 0.75926 0.26515 0.0
C503 C 0.74489 0.7426 0.26572 0.0
C504 C 0.80929 0.79759 0.24677 0.0
C505 C 0.71142 0.76562 0.24772 0.0
C506 C 0.72626 0.80321 0.22947 0.0
C507 C 0.79017 0.85723 0.21004 0.0
C508 C 0.83905 0.87454 0.20956 0.0
C509 C 0.77511 0.81941 0.22862 0.0
C510 C 0.87258 0.85264 0.22791 0.0
C511 C 0.85804 0.81455 0.24608 0.0
H512 H 0.05718 0.96386 0.51581 0.0
H513 H 0.17814 0.05006 0.48304 0.0
H514 H 0.12323 0.09509 0.45319 0.0
H515 H 1.04023 0.11285 0.43633 0.0
H516 H 0.91857 1.02709 0.46832 0.0
H517 H 0.97357 0.98036 0.4978 0.0
C518 C 0.07153 0.99225 0.50206 0.0
C519 C 0.12213 1.00326 0.50219 0.0
C520 C 1.03931 1.0189 0.48452 0.0
C521 C 0.13955 1.04054 0.48397 0.0
C522 C 0.10806 0.06665 0.46664 0.0
C523 C 1.02569 0.08392 0.44969 0.0
C524 C 0.97498 0.07401 0.44983 0.0
C525 C 0.05775 0.05661 0.46681 0.0
C526 C 0.95729 1.03596 0.46744 0.0
C527 C 0.98885 1.00895 0.4845 0.0
H528 H 0.87608 0.34716 0.73266 0.0
H529 H 0.74861 0.3687 0.78436 0.0
H530 H 0.70517 0.30363 0.75991 0.0
H531 H 0.70255 0.24013 0.72353 0.0
H532 H 0.82984 0.21922 0.67155 0.0
H533 H 0.87333 0.28395 0.69616 0.0
C534 C 0.83891 0.33749 0.73872 0.0
C535 C 0.816 0.36316 0.76053 0.0
C536 C 0.81364 0.29997 0.72432 0.0
C537 C 0.76749 0.34998 0.76774 0.0
C538 C 0.74242 0.31261 0.7537 0.0
C539 C 0.73972 0.24979 0.71746 0.0
C540 C 0.76252 0.22436 0.69552 0.0
C541 C 0.76496 0.28737 0.73185 0.0
C542 C 0.81097 0.23773 0.68825 0.0
C543 C 0.83611 0.27491 0.70239 0.0
H544 H 0.26605 0.36299 0.68898 0.0
H545 H 0.41241 0.33133 0.71692 0.0
H546 H 0.38111 0.26357 0.74539 0.0
H547 H 0.31214 0.21222 0.76302 0.0
H548 H 0.16572 0.24333 0.73506 0.0
H549 H 0.19692 0.31128 0.70655 0.0
C550 C 0.29122 0.34123 0.70118 0.0
C551 C 0.34187 0.35294 0.70047 0.0
C552 C 0.27285 0.30174 0.71788 0.0
C553 C 0.37339 0.32384 0.71674 0.0
C554 C 0.35545 0.28478 0.73322 0.0
C555 C 0.2869 0.23389 0.75081 0.0
C556 C 0.23631 0.22206 0.75155 0.0
C557 C 0.30521 0.27331 0.73409 0.0
C558 C 0.20471 0.251 0.73523 0.0
C559 C 0.2226 0.29013 0.71874 0.0
H560 H 0.27472 0.86424 0.27166 0.0
H561 H 0.41909 0.83095 0.24017 0.0
H562 H 0.38531 0.76507 0.21219 0.0
H563 H 0.31483 0.7169 0.19563 0.0
H564 H 0.1702 0.74903 0.22695 0.0
H565 H 0.20386 0.81464 0.25554 0.0
C566 C 0.29887 0.84236 0.25886 0.0
C567 C 0.34962 0.85308 0.25823 0.0
C568 C 0.27906 0.80413 0.24243 0.0
C569 C 0.37998 0.8241 0.24124 0.0
C570 C 0.36065 0.78621 0.22507 0.0
C571 C 0.29053 0.73826 0.20862 0.0
C572 C 0.23982 0.72768 0.20887 0.0
C573 C 0.31022 0.77602 0.22529 0.0
C574 C 0.20931 0.75597 0.22614 0.0
C575 C 0.22858 0.79367 0.24261 0.0
H576 H 0.12655 0.562 0.44486 0.0
H577 H 0.08159 0.41294 0.46421 0.0
H578 H 1.01587 0.44357 0.49371 0.0
H579 H 0.97082 0.5127 0.5149 0.0
H580 H 1.01583 0.6618 0.49567 0.0
H581 H 0.08103 0.6312 0.46577 0.0
C582 C 0.10222 0.53613 0.45534 0.0
C583 C 0.10951 0.48498 0.45202 0.0
C584 C 0.06423 0.55406 0.47267 0.0
C585 C 0.07737 0.45241 0.46613 0.0
C586 C 1.03957 0.46993 0.48318 0.0
C587 C 0.99492 0.5386 0.50428 0.0
C588 C 0.98795 0.58973 0.50786 0.0
C589 C 1.03269 0.5207 0.4868 0.0
C590 C 1.01985 0.62233 0.49359 0.0
C591 C 0.05736 0.60482 0.47632 0.0
H592 H 0.5877 0.45537 -0.01432 0.0
H593 H 0.59338 0.57272 0.04524 0.0
H594 H 0.52979 0.61699 0.02007 0.0
H595 H 0.4727 0.62348 -0.01933 0.0
H596 H 0.46673 0.50584 0.92131 0.0
H597 H 0.52994 0.46134 0.94665 0.0
C598 C 0.57484 0.49045 -0.00663 0.0
C599 C 0.59571 0.5103 0.0176 0.0
C600 C 0.53819 0.51616 0.97858 0.0
C601 C 0.57836 0.55615 0.02684 0.0
C602 C 0.54191 0.58171 0.01233 0.0
C603 C 0.48537 0.58824 0.97311 0.0
C604 C 0.46472 0.56846 0.94881 0.0
C605 C 0.52172 0.56234 -0.01195 0.0
C606 C 0.48162 0.52233 0.93977 0.0
C607 C 0.51789 0.49668 0.95435 0.0
H608 H 0.2671 0.29547 0.1148 0.0
H609 H 0.30662 0.34702 0.03306 0.0
H610 H 0.28187 0.43088 0.04553 0.0
H611 H 0.2501 0.48977 0.08023 0.0
H612 H 0.21809 0.43814 0.16303 0.0
H613 H 0.2389 0.35412 0.14964 0.0
C614 C 0.26975 0.3249 0.09955 0.0
C615 C 0.28783 0.31478 0.07281 0.0
C616 C 0.25709 0.3731 0.10718 0.0
C617 C 0.29237 0.35371 0.05364 0.0
C618 C 0.27831 0.40165 0.06082 0.0
C619 C 0.24753 0.46004 0.09529 0.0
C620 C 0.23219 0.47018 0.1226 0.0
C621 C 0.26078 0.41184 0.08759 0.0
C622 C 0.22985 0.4314 0.14196 0.0
C623 C 0.2416 0.38331 0.13428 0.0
H624 H 0.55507 0.53337 0.38008 0.0
H625 H 0.52138 0.54739 0.29349 0.0
H626 H 0.43799 0.5173 0.30241 0.0
H627 H 0.3734 0.49056 0.33496 0.0
H628 H 0.40412 0.48269 0.42221 0.0
H629 H 0.4894 0.50703 0.41302 0.0
C630 C 0.52968 0.52891 0.36314 0.0
C631 C 0.54477 0.54174 0.33602 0.0
C632 C 0.48094 0.51333 0.36863 0.0
C633 C 0.51092 0.53723 0.31443 0.0
C634 C 0.46313 0.52026 0.31957 0.0
C635 C 0.39872 0.4939 0.35203 0.0
C636 C 0.38208 0.48456 0.3793 0.0
C637 C 0.4475 0.5088 0.34661 0.0
C638 C 0.4156 0.48975 0.40106 0.0
C639 C 0.46453 0.50353 0.39578 0.0
H640 H 0.2773 0.78979 0.62432 0.0
H641 H 0.28896 0.76379 0.53662 0.0
H642 H 0.32264 0.68178 0.54603 0.0
H643 H 0.3481 0.61701 0.57937 0.0
H644 H 0.33341 0.64357 0.66692 0.0
H645 H 0.3018 0.72582 0.65725 0.0
C646 C 0.28735 0.76648 0.60712 0.0
C647 C 0.28069 0.78349 0.57969 0.0
C648 C 0.30623 0.71928 0.61269 0.0
C649 C 0.2936 0.75204 0.55789 0.0
C650 C 0.31294 0.70505 0.56329 0.0
C651 C 0.33828 0.64085 0.59637 0.0
C652 C 0.34348 0.62381 0.62394 0.0
C653 C 0.31939 0.68823 0.59064 0.0
C654 C 0.32993 0.65534 0.64558 0.0
C655 C 0.3118 0.70252 0.64004 0.0
H656 H 1.02516 0.54827 0.8723 0.0
H657 H 0.06603 0.52916 0.78684 0.0
H658 H 0.14984 0.55621 0.79696 0.0
H659 H 0.21217 0.58286 0.83048 0.0
H660 H 0.17302 0.59424 0.91673 0.0
H661 H 0.08806 0.57253 0.90604 0.0
C662 C 0.0523 0.55073 0.85584 0.0
C663 C 1.03926 0.53759 0.82874 0.0
C664 C 0.10084 0.56449 0.86205 0.0
C665 C 0.07512 0.53953 0.80778 0.0
C666 C 0.12303 0.55485 0.8136 0.0
C667 C 0.18497 0.58083 0.84692 0.0
C668 C 0.19889 0.59047 0.87438 0.0
C669 C 0.13643 0.56705 0.8407 0.0
C670 C 0.16334 0.5869 0.89547 0.0
C671 C 0.11471 0.57462 0.88935 0.0
H672 H 0.81256 0.61097 0.87793 0.0
H673 H 0.84474 0.66125 0.7949 0.0
H674 H 0.81806 0.74434 0.8071 0.0
H675 H 0.78552 0.80271 0.84123 0.0
H676 H 0.74624 0.75145 0.92307 0.0
H677 H 0.77547 0.66864 0.91147 0.0
C678 C 0.8138 0.6401 0.86248 0.0
C679 C 0.83112 0.6298 0.83549 0.0
C680 C 0.79707 0.6876 0.86948 0.0
C681 C 0.83171 0.66799 0.81573 0.0
C682 C 0.8165 0.71557 0.82275 0.0
C683 C 0.78361 0.77354 0.85666 0.0
C684 C 0.76436 0.78362 0.88322 0.0
C685 C 0.7992 0.72582 0.84955 0.0
C686 C 0.7611 0.74492 0.90261 0.0
C687 C 0.77786 0.69757 0.89595 0.0
H688 H 0.54488 0.55535 0.58562 0.0
H689 H 0.58378 0.51783 0.66937 0.0
H690 H 0.66809 0.54508 0.66057 0.0
H691 H 0.73184 0.57675 0.62873 0.0
H692 H 0.6952 0.60855 0.54389 0.0
H693 H 0.60951 0.58628 0.55336 0.0
C694 C 0.57168 0.55384 0.60204 0.0
C695 C 0.55772 0.53511 0.62828 0.0
C696 C 0.62081 0.56812 0.59653 0.0
C697 C 0.59333 0.53231 0.64908 0.0
C698 C 0.64166 0.54778 0.64402 0.0
C699 C 0.70512 0.57913 0.61229 0.0
C700 C 0.72021 0.59463 0.5856 0.0
C701 C 0.656 0.5653 0.61777 0.0
C702 C 0.6849 0.5967 0.56458 0.0
C703 C 0.63575 0.58406 0.57002 0.0
H704 H 0.8402 0.3098 0.33432 0.0
H705 H 0.82606 0.32781 0.42258 0.0
H706 H 0.79001 0.40942 0.41523 0.0
H707 H 0.76096 0.47497 0.38349 0.0
H708 H 0.77724 0.4561 0.29535 0.0
H709 H 0.81367 0.3753 0.303 0.0
C710 C 0.82934 0.33143 0.35207 0.0
C711 C 0.83573 0.31232 0.37904 0.0
C712 C 0.8087 0.37814 0.34767 0.0
C713 C 0.82177 0.34143 0.40164 0.0
C714 C 0.80093 0.38806 0.39741 0.0
C715 C 0.77228 0.45312 0.36592 0.0
C716 C 0.76596 0.47172 0.3388 0.0
C717 C 0.79387 0.40665 0.37049 0.0
C718 C 0.78151 0.44295 0.31639 0.0
C719 C 0.8024 0.39665 0.32076 0.0
H720 H 0.85656 0.4964 0.13243 0.0
H721 H 0.88727 0.51214 0.04521 0.0
H722 H 0.97158 0.53716 0.05537 0.0
H723 H 1.03648 0.55575 0.08919 0.0
H724 H 1.00327 0.54746 0.17634 0.0
H725 H 0.92031 0.51792 0.16618 0.0
C726 C 0.88174 0.50521 0.11563 0.0
C727 C 0.86564 0.50215 0.08806 0.0
C728 C 0.92985 0.52063 0.12167 0.0
C729 C 0.89859 0.51436 0.06658 0.0
C730 C 0.94689 0.52847 0.0724 0.0
C731 C 1.0112 0.54682 0.10592 0.0
C732 C 1.02617 0.55289 0.13351 0.0
C733 C 0.96296 0.53172 0.09986 0.0
C734 C 0.99267 0.5426 0.15499 0.0
C735 C 0.94524 0.52588 0.14916 0.0
H736 H 0.77499 0.81247 0.56191 0.0
H737 H 0.86578 0.78836 0.63303 0.0
H738 H 0.83993 0.86721 0.65257 0.0
H739 H 0.79192 0.94414 0.64893 0.0
H740 H 0.69942 0.96584 0.57783 0.0
H741 H 0.7248 0.88728 0.55916 0.0
C742 C 0.78899 0.82475 0.58165 0.0
C743 C 0.82253 0.79541 0.59593 0.0
C744 C 0.7734 0.86972 0.59289 0.0
C745 C 0.84026 0.81101 0.62162 0.0
C746 C 0.82534 0.85591 0.63282 0.0
C747 C 0.77707 0.93148 0.62949 0.0
C748 C 0.74409 0.96136 0.61482 0.0
C749 C 0.79193 0.88577 0.61862 0.0
C750 C 0.72523 0.94411 0.58959 0.0
C751 C 0.73971 0.899 0.57876 0.0
H752 H 0.85389 0.99152 0.8321 0.0
H753 H 0.89509 0.98252 0.91792 0.0
H754 H 0.98005 1.00308 0.90527 0.0
H755 H 0.04208 1.02639 0.86979 0.0
H756 H 0.9983 1.0417 0.7847 0.0
H757 H 0.91499 1.01528 0.79702 0.0
C758 C 0.88146 0.99366 0.8481 0.0
C759 C 0.86808 0.98515 0.87597 0.0
C760 C 0.92986 1.00644 0.84072 0.0
C761 C 0.90428 0.98895 0.89637 0.0
C762 C 0.9529 1.00057 0.8891 0.0
C763 C 1.01446 1.02303 0.85389 0.0
C764 C 1.02653 1.03513 0.82624 0.0
C765 C 0.9661 1.00958 0.86134 0.0
C766 C 0.99003 1.03209 0.80602 0.0
C767 C 0.94237 1.01721 0.8131 0.0
H768 H 0.88619 0.15101 0.10364 0.0
H769 H 0.73804 0.09814 0.1141 0.0
H770 H 0.7069 0.17313 0.09178 0.0
H771 H 0.72204 0.25467 0.07032 0.0
H772 H 0.86892 0.31335 0.06711 0.0
H773 H 0.90087 0.23475 0.08445 0.0
C774 C 0.84709 0.15618 0.10108 0.0
C775 C 0.81431 0.11938 0.11053 0.0
C776 C 0.82952 0.20008 0.08907 0.0
C777 C 0.76378 0.12629 0.10724 0.0
C778 C 0.74609 0.16895 0.0943 0.0
C779 C 0.76103 0.2501 0.07329 0.0
C780 C 0.79311 0.28965 0.0672 0.0
C781 C 0.77862 0.20616 0.0852 0.0
C782 C 0.84359 0.28328 0.07128 0.0
C783 C 0.86175 0.23853 0.08147 0.0
H784 H 0.73863 0.04844 0.35038 0.0
H785 H 0.68582 0.19235 0.37175 0.0
H786 H 0.6047 0.17128 0.35312 0.0
H787 H 0.54811 0.10964 0.33246 0.0
H788 H 0.60559 0.96864 0.30773 0.0
H789 H 0.6859 0.99133 0.32522 0.0
C790 C 0.7094 0.07524 0.35085 0.0
C791 C 0.71777 0.1215 0.36282 0.0
C792 C 0.66386 0.06347 0.33923 0.0
C793 C 0.67995 0.15632 0.36287 0.0
C794 C 0.63371 0.14425 0.35217 0.0
C795 C 0.57841 0.08421 0.33054 0.0
C796 C 0.57047 1.03731 0.31889 0.0
C797 C 0.6251 0.09768 0.34049 0.0
C798 C 0.61036 1.00499 0.31643 0.0
C799 C 0.65637 1.01774 0.32667 0.0
H800 H 0.30456 0.29372 0.33612 0.0
H801 H 0.28763 0.24733 0.4211 0.0
H802 H 0.31886 0.16551 0.40949 0.0
H803 H 0.34922 0.10694 0.37498 0.0
H804 H 0.35879 0.15055 0.28917 0.0
H805 H 0.3318 0.23379 0.30116 0.0
C806 C 0.30836 0.26579 0.35211 0.0
C807 C 0.29478 0.27659 0.37954 0.0
C808 C 0.32452 0.2184 0.34504 0.0
C809 C 0.29838 0.23983 0.39995 0.0
C810 C 0.31606 0.19313 0.39328 0.0
C811 C 0.3456 0.13476 0.35891 0.0
C812 C 0.35642 0.12284 0.33124 0.0
C813 C 0.32899 0.18195 0.36588 0.0
C814 C 0.35065 0.1589 0.31058 0.0
C815 C 0.33541 0.20646 0.31746 0.0
H816 H 1.01459 0.07371 0.09082 0.0
H817 H 0.05444 0.08916 0.17648 0.0
H818 H 0.1377 0.11319 0.16255 0.0
H819 H 0.2 0.12421 0.12648 0.0
H820 H 0.16265 0.10295 0.04079 0.0
H821 H 0.07731 0.08623 0.05435 0.0
C822 C 1.04117 0.08348 0.10644 0.0
C823 C 1.02806 0.08047 0.13473 0.0
C824 C 0.0895 0.09523 0.09828 0.0
C825 C 0.0634 0.09179 0.15466 0.0
C826 C 0.11106 0.10514 0.14667 0.0
C827 C 0.17331 0.11618 0.11061 0.0
C828 C 0.18796 0.11481 0.08254 0.0
C829 C 0.12471 0.10601 0.1186 0.0
C830 C 0.15262 0.10401 0.06248 0.0
C831 C 0.10378 0.09464 0.07026 0.0
H832 H 0.24883 0.97279 0.87635 0.0
H833 H 0.22906 0.9244 0.79242 0.0
H834 H 0.25145 0.84043 0.80611 0.0
H835 H 0.27634 0.78056 0.8419 0.0
H836 H 0.30277 0.82984 0.92501 0.0
H837 H 0.27786 0.9135 0.91176 0.0
C838 C 0.24937 0.94387 0.86101 0.0
C839 C 0.23681 0.95505 0.83332 0.0
C840 C 0.26323 0.89573 0.86898 0.0
C841 C 0.23855 0.9171 0.81376 0.0
C842 C 0.25118 0.86897 0.82165 0.0
C843 C 0.27616 0.80945 0.85726 0.0
C844 C 0.29051 0.7985 0.88467 0.0
C845 C 0.26335 0.85778 0.84921 0.0
C846 C 0.29142 0.83692 0.90394 0.0
C847 C 0.27728 0.88482 0.89631 0.0
H848 H 0.5006 0.10652 0.63244 0.0
H849 H 0.57064 0.96484 0.63526 0.0
H850 H 0.49445 0.92472 0.62077 0.0
H851 H 0.40918 0.93095 0.6035 0.0
H852 H 0.34317 0.07463 0.59705 0.0
H853 H 0.41589 0.11259 0.6165 0.0
C854 C 0.49876 0.06675 0.63052 0.0
C855 C 0.54086 1.03859 0.63527 0.0
C856 C 0.45557 1.04426 0.62096 0.0
C857 C 0.53843 0.98721 0.63194 0.0
C858 C 0.49498 0.96431 0.62347 0.0
C859 C 0.41077 0.97046 0.60653 0.0
C860 C 0.37093 0.99981 0.5985 0.0
C861 C 0.45353 0.99257 0.61728 0.0
C862 C 0.37357 0.0511 0.60255 0.0
C863 C 0.41509 0.07297 0.61387 0.0
H864 H 0.34637 0.10658 0.95927 0.0
H865 H 0.26114 0.23763 0.97264 0.0
H866 H 0.24577 0.24446 0.92291 0.0
H867 H 0.247 0.20595 0.8774 0.0
H868 H 0.32925 0.07294 0.86449 0.0
H869 H 0.35835 0.07561 0.91215 0.0
C870 C 0.32425 0.13644 0.95119 0.0
C871 C 0.30307 0.17049 0.9693 0.0
C872 C 0.31637 0.14042 0.92277 0.0
C873 C 0.27645 0.21038 0.95884 0.0
C874 C 0.26814 0.2145 0.93054 0.0
C875 C 0.2729 0.17875 0.88482 0.0
C876 C 0.28553 0.13897 0.86792 0.0
C877 C 0.28684 0.17895 0.91249 0.0
C878 C 0.31931 0.10397 0.87727 0.0
C879 C 0.33498 0.1049 0.90465 0.0
H880 H 0.72708 0.57773 0.13396 0.0
H881 H 0.6157 0.46509 0.14112 0.0
H882 H 0.59771 0.48997 0.18858 0.0
H883 H 0.62578 0.53259 0.23044 0.0
H884 H 0.74385 0.6385 0.22353 0.0
H885 H 0.74724 0.6277 0.17374 0.0
C886 C 0.69768 0.55999 0.14563 0.0
C887 C 0.67314 0.51954 0.13459 0.0
C888 C 0.68985 0.57231 0.17323 0.0
C889 C 0.63525 0.49626 0.14967 0.0
C890 C 0.62532 0.51009 0.17679 0.0
C891 C 0.65168 0.55351 0.21784 0.0
C892 C 0.68559 0.58475 0.23041 0.0
C893 C 0.65443 0.54611 0.18926 0.0
C894 C 0.7186 0.6127 0.21415 0.0
C895 C 0.72029 0.607 0.18571 0.0
H896 H 0.23105 0.96773 0.46327 0.0
H897 H 0.35842 0.88931 0.49136 0.0
H898 H 0.38624 0.87954 0.44334 0.0
H899 H 0.37652 0.8981 0.39456 0.0
H900 H 0.25531 0.98666 0.36668 0.0
H901 H 0.22034 0.98484 0.41355 0.0
C902 C 0.26512 0.94894 0.45867 0.0
C903 C 0.29362 0.9301 0.48031 0.0
C904 C 0.28077 0.94414 0.4313 0.0
C905 C 0.33705 0.90499 0.47472 0.0
C906 C 0.35237 0.89891 0.44742 0.0
C907 C 0.34203 0.91654 0.39862 0.0
C908 C 0.31887 0.94331 0.37743 0.0
C909 C 0.32471 0.91881 0.42569 0.0
C910 C 0.27371 0.96588 0.3827 0.0
C911 C 0.25431 0.9656 0.40953 0.0
H912 H 0.96586 0.54425 0.63004 0.0
H913 H 0.81967 0.49045 0.61555 0.0
H914 H 0.8111 0.46759 0.66433 0.0
H915 H 0.83789 0.48222 0.71201 0.0
H916 H 0.98063 0.54589 0.72658 0.0
H917 H 0.99714 0.54834 0.6769 0.0
C918 C 0.93315 0.52519 0.63745 0.0
C919 C 0.893 0.52021 0.61978 0.0
C920 C 0.92669 0.51736 0.66576 0.0
C921 C 0.85095 0.49485 0.62901 0.0
C922 C 0.84548 0.4833 0.65704 0.0
C923 C 0.87233 0.49717 0.70423 0.0
C924 C 0.90733 0.51569 0.72265 0.0
C925 C 0.88162 0.49813 0.67578 0.0
C926 C 0.9527 0.53286 0.71256 0.0
C927 C 0.96241 0.53354 0.68429 0.0
H928 H 0.74859 0.96964 0.085 0.0
H929 H 0.86652 0.86521 0.07904 0.0
H930 H 0.84274 0.84551 0.0317 0.0
H931 H 0.79987 0.872 -0.01065 0.0
H932 H 0.69059 0.98562 -0.00512 0.0
H933 H 0.69935 0.9881 0.04491 0.0
C934 C 0.76788 0.94122 0.0737 0.0
C935 C 0.8095 0.91941 0.08504 0.0
C936 C 0.75647 0.93306 0.04607 0.0
C937 C 0.83446 0.8827 0.07034 0.0
C938 C 0.82129 0.87192 0.04325 0.0
C939 C 0.77778 0.89666 0.00174 0.0
C940 C 0.74589 0.92958 -0.01116 0.0
C941 C 0.78437 0.89922 0.03038 0.0
C942 C 0.71655 0.9611 0.00468 0.0
C943 C 0.72119 0.96224 0.0332 0.0
H944 H 0.44507 0.58963 0.82179 0.0
H945 H 0.327 0.48719 0.83893 0.0
H946 H 0.33598 0.45259 0.7927 0.0
H947 H 0.36571 0.46382 0.74525 0.0
H948 H 0.48081 0.56893 0.72713 0.0
H949 H 0.48452 0.59111 0.77619 0.0
C950 C 0.42231 0.55876 0.81557 0.0
C951 C 0.38463 0.54164 0.83312 0.0
C952 C 0.42612 0.54095 0.78873 0.0
C953 C 0.35598 0.50102 0.82549 0.0
C954 C 0.36063 0.48181 0.79899 0.0
C955 C 0.39166 0.49148 0.75218 0.0
C956 C 0.42163 0.51643 0.73297 0.0
C957 C 0.39345 0.50366 0.78005 0.0
C958 C 0.45669 0.5505 0.74185 0.0
C959 C 0.4589 0.56286 0.76973 0.0
H960 H 0.73203 0.1981 0.56313 0.0
H961 H 0.85472 0.10992 0.58933 0.0
H962 H 0.89229 0.11963 0.54346 0.0
H963 H 0.8811 0.13829 0.49419 0.0
H964 H 0.75023 0.21153 0.46673 0.0
H965 H 0.723 0.22064 0.51491 0.0
C966 C 0.7674 0.18151 0.55894 0.0
C967 C 0.78992 0.15186 0.57908 0.0
C968 C 0.7859 0.18297 0.53213 0.0
C969 C 0.83649 0.13229 0.57393 0.0
C970 C 0.85746 0.13716 0.54765 0.0
C971 C 0.84678 0.15652 0.49898 0.0
C972 C 0.81696 0.17375 0.47755 0.0
C973 C 0.83093 0.15975 0.5263 0.0
C974 C 0.77278 0.19739 0.4833 0.0
C975 C 0.75772 0.20294 0.51066 0.0
H976 H 0.13165 0.5025 0.33064 0.0
H977 H 0.26351 0.5872 0.34335 0.0
H978 H 0.25903 0.61954 0.29609 0.0
H979 H 0.22799 0.60848 0.24918 0.0
H980 H 0.09978 0.51839 0.23549 0.0
H981 H 0.09305 0.50168 0.28526 0.0
C982 C 0.15814 0.5297 0.32329 0.0
C983 C 0.19828 0.54199 0.33988 0.0
C984 C 0.15733 0.54483 0.29572 0.0
C985 C 0.23232 0.57746 0.33074 0.0
C986 C 0.23038 0.59491 0.30357 0.0
C987 C 0.19877 0.58492 0.25713 0.0
C988 C 0.16559 0.56274 0.23891 0.0
C989 C 0.19506 0.57602 0.28549 0.0
C990 C 0.12645 0.53439 0.24931 0.0
C991 C 0.12236 0.52537 0.27764 0.0
H992 H 0.75065 0.71429 0.39454 0.0
H993 H 0.8592 0.6071 0.3714 0.0
H994 H 0.89801 0.61516 0.41652 0.0
H995 H 0.88742 0.6367 0.46523 0.0
H996 H 0.77516 0.73889 0.4896 0.0
H997 H 0.75066 0.74889 0.44112 0.0
C998 C 0.78386 0.69408 0.39915 0.0
C999 C 0.80147 0.65914 0.38037 0.0
C1000 C 0.80397 0.69686 0.42549 0.0
C1001 C 0.84498 0.63384 0.38585 0.0
C1002 C 0.86661 0.63789 0.41174 0.0
C1003 C 0.85803 0.66163 0.45971 0.0
C1004 C 0.83155 0.68569 0.48047 0.0
C1005 C 0.84417 0.66653 0.4322 0.0
C1006 C 0.79489 0.71934 0.4736 0.0
C1007 C 0.78114 0.72504 0.44606 0.0
H1008 H 0.12731 1.00858 0.62617 0.0
H1009 H 0.24355 0.11377 0.61215 0.0
H1010 H 0.23938 0.13879 0.66056 0.0
H1011 H 0.2163 0.11594 0.70814 0.0
H1012 H 0.10397 1.00632 0.72283 0.0
H1013 H 0.09393 0.99594 0.67284 0.0
C1014 C 0.14961 1.03901 0.63348 0.0
C1015 C 0.18584 0.05925 0.61603 0.0
C1016 C 0.14985 0.04977 0.66169 0.0
C1017 C 0.21503 0.09826 0.62535 0.0
C1018 C 0.21368 0.11135 0.65319 0.0
C1019 C 0.18986 0.0896 0.70028 0.0
C1020 C 0.16243 0.06013 0.71875 0.0
C1021 C 0.18384 0.08465 0.67178 0.0
C1022 C 0.12651 1.02796 0.70869 0.0
C1023 C 0.12039 1.02258 0.68026 0.0
H1024 H 0.76878 0.52888 0.88158 0.0
H1025 H 0.77461 0.3727 0.86772 0.0
H1026 H 0.75344 0.35661 0.91627 0.0
H1027 H 0.74988 0.38756 0.96362 0.0
H1028 H 0.75753 0.54455 0.97769 0.0
H1029 H 0.7594 0.55997 0.92817 0.0
C1030 C 0.76298 0.49146 0.88906 0.0
C1031 C 0.77258 0.45195 0.87158 0.0
C1032 C 0.75627 0.48281 0.91725 0.0
C1033 C 0.76634 0.40343 0.8811 0.0
C1034 C 0.75562 0.39437 0.90889 0.0
C1035 C 0.75222 0.42512 0.95588 0.0
C1036 C 0.75434 0.46473 0.97431 0.0
C1037 C 0.75369 0.43382 0.92739 0.0
C1038 C 0.75662 0.51327 0.96394 0.0
C1039 C 0.75702 0.52225 0.93564 0.0
H1040 H 0.35178 0.97564 0.2111 0.0
H1041 H 0.48327 0.06251 0.22123 0.0
H1042 H 0.48233 0.08476 0.17206 0.0
H1043 H 0.4374 0.08857 0.12865 0.0
H1044 H 0.30369 1.00523 0.11918 0.0
H1045 H 0.31348 0.96992 0.16555 0.0
C1046 C 0.3801 0.99957 0.20249 0.0
C1047 C 0.41655 1.01909 0.21962 0.0
C1048 C 0.37942 1.01171 0.17442 0.0
C1049 C 0.45432 0.04822 0.20829 0.0
C1050 C 0.45394 0.06056 0.18029 0.0
C1051 C 0.41135 0.06139 0.13651 0.0
C1052 C 0.36959 0.04985 0.12109 0.0
C1053 C 0.41588 1.04363 0.16345 0.0
C1054 C 0.33615 1.01435 0.1309 0.0
C1055 C 0.34128 0.99499 0.15752 0.0
H1056 H 0.33223 0.37396 0.57682 0.0
H1057 H 0.24267 0.50144 0.59166 0.0
H1058 H 0.20783 0.49454 0.5454 0.0
H1059 H 0.21865 0.46459 0.49815 0.0
H1060 H 0.31293 0.34093 0.48218 0.0
H1061 H 0.33123 0.33416 0.53164 0.0
C1062 C 0.30359 0.39892 0.57018 0.0
C1063 C 0.2906 0.43875 0.58695 0.0
C1064 C 0.28647 0.39661 0.54317 0.0
C1065 C 0.25311 0.47064 0.57882 0.0
C1066 C 0.23403 0.46726 0.55224 0.0
C1067 C 0.24309 0.4361 0.50562 0.0
C1068 C 0.26633 0.40458 0.48687 0.0
C1069 C 0.25321 0.43264 0.53375 0.0
C1070 C 0.29599 0.3663 0.4965 0.0
C1071 C 0.30609 0.36231 0.52463 0.0
H1072 H 0.8079 1.01037 0.33133 0.0
H1073 H 0.96188 1.03715 0.34154 0.0
H1074 H 0.97474 1.03174 0.29154 0.0
H1075 H 0.93867 1.03983 0.24527 0.0
H1076 H 0.78133 1.0302 0.23638 0.0
H1077 H 0.77232 1.01326 0.2856 0.0
C1078 C 0.84452 1.01264 0.32255 0.0
C1079 C 0.88351 1.02599 0.33962 0.0
C1080 C 0.85011 1.01704 0.29393 0.0
C1081 C 0.93116 1.02739 0.32857 0.0
C1082 C 0.93814 1.02633 0.29993 0.0
C1083 C 0.90234 1.03475 0.2541 0.0
C1084 C 0.86069 1.03707 0.23714 0.0
C1085 C 0.89728 1.02524 0.28247 0.0
C1086 C 0.81398 1.02945 0.24898 0.0
C1087 C 0.80879 1.0188 0.27703 0.0
H1088 H 0.30488 0.58072 0.08389 0.0
H1089 H 0.27008 0.7344 0.09131 0.0
H1090 H 0.2907 0.7482 0.04245 0.0
H1091 H 0.30281 0.7125 -0.00389 0.0
H1092 H 0.32381 0.55519 -0.01065 0.0
H1093 H 0.32265 0.54651 0.03904 0.0
C1094 C 0.30426 0.61762 0.07504 0.0
C1095 C 0.28669 0.65659 0.09083 0.0
C1096 C 0.31106 0.62402 0.04664 0.0
C1097 C 0.28448 0.70415 0.07931 0.0
C1098 C 0.29503 0.71169 0.0513 0.0
C1099 C 0.30699 0.67642 0.00557 0.0
C1100 C 0.31236 0.63465 -0.01108 0.0
C1101 C 0.30538 0.67123 0.03444 0.0
C1102 C 0.31844 0.58808 0.00151 0.0
C1103 C 0.31852 0.58295 0.03003 0.0
H1104 H 0.62984 1.01997 0.82385 0.0
H1105 H 0.77038 0.08687 0.83947 0.0
H1106 H 0.77839 0.10972 0.79055 0.0
H1107 H 0.75142 0.09725 0.74258 0.0
H1108 H 0.61494 1.02124 0.72738 0.0
H1109 H 0.60046 1.01245 0.77697 0.0
C1110 C 0.66136 1.04115 0.81659 0.0
C1111 C 0.69973 0.05121 0.83476 0.0
C1112 C 0.6677 0.04968 0.78842 0.0
C1113 C 0.7403 0.07903 0.82565 0.0
C1114 C 0.74548 0.09079 0.79762 0.0
C1115 C 0.71908 0.07793 0.75022 0.0
C1116 C 0.68487 0.05863 0.73163 0.0
C1117 C 0.71078 0.07351 0.77868 0.0
C1118 C 0.64215 1.03531 0.74154 0.0
C1119 C 0.63349 1.03102 0.76976 0.0
loop_
_geom_bond_atom_site_label_1
_geom_bond_atom_site_label_2
_geom_bond_distance
_geom_bond_site_symmetry_2
_ccdc_geom_bond_type
Fe0 O2 1.918 . S
Fe0 O5 1.997 . S
Fe0 O6 2.002 . S
Fe0 O11 1.976 . S
Fe0 O14 1.996 . S
Fe1 O2 1.918 . S
Fe1 O9 1.997 . S
Fe1 O12 1.996 . S
Fe1 O16 1.976 . S
Fe1 O19 2.002 . S
O2 Fe0 1.918 . S
O2 Fe1 1.918 . S
O2 Fe3 1.918 . S
Fe3 O2 1.918 . S
Fe3 O4 2.002 . S
Fe3 O13 1.976 . S
Fe3 O17 1.996 . S
Fe3 O20 1.997 . S
O4 Fe3 2.002 . S
O4 C21 1.295 . S
O5 Fe0 1.997 . S
O5 C21 1.235 . S
O6 Fe0 2.002 . S
O6 C7 1.295 . S
C7 O6 1.295 . S
C7 O9 1.235 . S
C8 O13 1.287 . S
C8 O14 1.255 . S
O9 Fe1 1.997 . S
O9 C7 1.235 . S
C10 O16 1.287 . S
C10 O17 1.255 . S
O11 Fe0 1.976 . S
O11 C18 1.287 . S
O12 Fe1 1.996 . S
O12 C18 1.255 . S
O13 Fe3 1.976 . S
O13 C8 1.287 . S
O14 Fe0 1.996 . S
O14 C8 1.255 . S
C15 O19 1.295 . S
C15 O20 1.235 . S
O16 Fe1 1.976 . S
O16 C10 1.287 . S
O17 Fe3 1.996 . S
O17 C10 1.255 . S
C18 O11 1.287 . S
C18 O12 1.255 . S
O19 Fe1 2.002 . S
O19 C15 1.295 . S
O20 Fe3 1.997 . S
O20 C15 1.235 . S
C21 O4 1.295 . S
C21 O5 1.235 . S
Fe22 O24 1.918 . S
Fe22 O27 1.997 . S
Fe22 O28 2.002 . S
Fe22 O33 1.976 . S
Fe22 O36 1.996 . S
Fe23 O24 1.918 . S
Fe23 O31 1.997 . S
Fe23 O34 1.996 . S
Fe23 O38 1.976 . S
Fe23 O41 2.002 . S
O24 Fe22 1.918 . S
O24 Fe23 1.918 . S
O24 Fe25 1.918 . S
Fe25 O24 1.918 . S
Fe25 O26 2.002 . S
Fe25 O35 1.976 . S
Fe25 O39 1.996 . S
Fe25 O42 1.997 . S
O26 Fe25 2.002 . S
O26 C43 1.295 . S
O27 Fe22 1.997 . S
O27 C43 1.235 . S
O28 Fe22 2.002 . S
O28 C29 1.295 . S
C29 O28 1.295 . S
C29 O31 1.235 . S
C30 O35 1.287 . S
C30 O36 1.255 . S
O31 Fe23 1.997 . S
O31 C29 1.235 . S
C32 O38 1.287 . S
C32 O39 1.255 . S
O33 Fe22 1.976 . S
O33 C40 1.287 . S
O34 Fe23 1.996 . S
O34 C40 1.255 . S
O35 Fe25 1.976 . S
O35 C30 1.287 . S
O36 Fe22 1.996 . S
O36 C30 1.255 . S
C37 O41 1.295 . S
C37 O42 1.235 . S
O38 Fe23 1.976 . S
O38 C32 1.287 . S
O39 Fe25 1.996 . S
O39 C32 1.255 . S
C40 O33 1.287 . S
C40 O34 1.255 . S
O41 Fe23 2.002 . S
O41 C37 1.295 . S
O42 Fe25 1.997 . S
O42 C37 1.235 . S
C43 O26 1.295 . S
C43 O27 1.235 . S
Fe44 O46 1.918 . S
Fe44 O49 1.997 . S
Fe44 O50 2.002 . S
Fe44 O55 1.976 . S
Fe44 O58 1.996 . S
Fe45 O46 1.918 . S
Fe45 O53 1.997 . S
Fe45 O56 1.996 . S
Fe45 O60 1.976 . S
Fe45 O63 2.002 . S
O46 Fe44 1.918 . S
O46 Fe45 1.918 . S
O46 Fe47 1.918 . S
Fe47 O46 1.918 . S
Fe47 O48 2.002 . S
Fe47 O57 1.976 . S
Fe47 O61 1.996 . S
Fe47 O64 1.997 . S
O48 Fe47 2.002 . S
O48 C65 1.295 . S
O49 Fe44 1.997 . S
O49 C65 1.235 . S
O50 Fe44 2.002 . S
O50 C51 1.295 . S
C51 O50 1.295 . S
C51 O53 1.235 . S
C52 O57 1.287 . S
C52 O58 1.255 . S
O53 Fe45 1.997 . S
O53 C51 1.235 . S
C54 O60 1.287 . S
C54 O61 1.255 . S
O55 Fe44 1.976 . S
O55 C62 1.287 . S
O56 Fe45 1.996 . S
O56 C62 1.255 . S
O57 Fe47 1.976 . S
O57 C52 1.287 . S
O58 Fe44 1.996 . S
O58 C52 1.255 . S
C59 O63 1.295 . S
C59 O64 1.235 . S
O60 Fe45 1.976 . S
O60 C54 1.287 . S
O61 Fe47 1.996 . S
O61 C54 1.255 . S
C62 O55 1.287 . S
C62 O56 1.255 . S
O63 Fe45 2.002 . S
O63 C59 1.295 . S
O64 Fe47 1.997 . S
O64 C59 1.235 . S
C65 O48 1.295 . S
C65 O49 1.235 . S
Fe66 O68 1.918 . S
Fe66 O71 1.997 . S
Fe66 O72 2.002 . S
Fe66 O77 1.976 . S
Fe66 O80 1.996 . S
Fe67 O68 1.918 . S
Fe67 O75 1.997 . S
Fe67 O78 1.996 . S
Fe67 O82 1.976 . S
Fe67 O85 2.002 . S
O68 Fe66 1.918 . S
O68 Fe67 1.918 . S
O68 Fe69 1.918 . S
Fe69 O68 1.918 . S
Fe69 O70 2.002 . S
Fe69 O79 1.976 . S
Fe69 O83 1.996 . S
Fe69 O86 1.997 . S
O70 Fe69 2.002 . S
O70 C87 1.295 . S
O71 Fe66 1.997 . S
O71 C87 1.235 . S
O72 Fe66 2.002 . S
O72 C73 1.295 . S
C73 O72 1.295 . S
C73 O75 1.235 . S
C74 O79 1.287 . S
C74 O80 1.255 . S
O75 Fe67 1.997 . S
O75 C73 1.235 . S
C76 O82 1.287 . S
C76 O83 1.255 . S
O77 Fe66 1.976 . S
O77 C84 1.287 . S
O78 Fe67 1.996 . S
O78 C84 1.255 . S
O79 Fe69 1.976 . S
O79 C74 1.287 . S
O80 Fe66 1.996 . S
O80 C74 1.255 . S
C81 O85 1.295 . S
C81 O86 1.235 . S
O82 Fe67 1.976 . S
O82 C76 1.287 . S
O83 Fe69 1.996 . S
O83 C76 1.255 . S
C84 O77 1.287 . S
C84 O78 1.255 . S
O85 Fe67 2.002 . S
O85 C81 1.295 . S
O86 Fe69 1.997 . S
O86 C81 1.235 . S
C87 O70 1.295 . S
C87 O71 1.235 . S
Fe88 O90 1.918 . S
Fe88 O93 1.997 . S
Fe88 O94 2.002 . S
Fe88 O99 1.976 . S
Fe88 O102 1.996 . S
Fe89 O90 1.918 . S
Fe89 O97 1.997 . S
Fe89 O100 1.996 . S
Fe89 O104 1.976 . S
Fe89 O107 2.002 . S
O90 Fe88 1.918 . S
O90 Fe89 1.918 . S
O90 Fe91 1.918 . S
Fe91 O90 1.918 . S
Fe91 O92 2.002 . S
Fe91 O101 1.976 . S
Fe91 O105 1.996 . S
Fe91 O108 1.997 . S
O92 Fe91 2.002 . S
O92 C109 1.295 . S
O93 Fe88 1.997 . S
O93 C109 1.235 . S
O94 Fe88 2.002 . S
O94 C95 1.295 . S
C95 O94 1.295 . S
C95 O97 1.235 . S
C96 O101 1.287 . S
C96 O102 1.255 . S
O97 Fe89 1.997 . S
O97 C95 1.235 . S
C98 O104 1.287 . S
C98 O105 1.255 . S
O99 Fe88 1.976 . S
O99 C106 1.287 . S
O100 Fe89 1.996 . S
O100 C106 1.255 . S
O101 Fe91 1.976 . S
O101 C96 1.287 . S
O102 Fe88 1.996 . S
O102 C96 1.255 . S
C103 O107 1.295 . S
C103 O108 1.235 . S
O104 Fe89 1.976 . S
O104 C98 1.287 . S
O105 Fe91 1.996 . S
O105 C98 1.255 . S
C106 O99 1.287 . S
C106 O100 1.255 . S
O107 Fe89 2.002 . S
O107 C103 1.295 . S
O108 Fe91 1.997 . S
O108 C103 1.235 . S
C109 O92 1.295 . S
C109 O93 1.235 . S
Fe110 O112 1.918 . S
Fe110 O115 1.997 . S
Fe110 O116 2.002 . S
Fe110 O121 1.976 . S
Fe110 O124 1.996 . S
Fe111 O112 1.918 . S
Fe111 O119 1.997 . S
Fe111 O122 1.996 . S
Fe111 O126 1.976 . S
Fe111 O129 2.002 . S
O112 Fe110 1.918 . S
O112 Fe111 1.918 . S
O112 Fe113 1.918 . S
Fe113 O112 1.918 . S
Fe113 O114 2.002 . S
Fe113 O123 1.976 . S
Fe113 O127 1.996 . S
Fe113 O130 1.997 . S
O114 Fe113 2.002 . S
O114 C131 1.295 . S
O115 Fe110 1.997 . S
O115 C131 1.235 . S
O116 Fe110 2.002 . S
O116 C117 1.295 . S
C117 O116 1.295 . S
C117 O119 1.235 . S
C118 O123 1.287 . S
C118 O124 1.255 . S
O119 Fe111 1.997 . S
O119 C117 1.235 . S
C120 O126 1.287 . S
C120 O127 1.255 . S
O121 Fe110 1.976 . S
O121 C128 1.287 . S
O122 Fe111 1.996 . S
O122 C128 1.255 . S
O123 Fe113 1.976 . S
O123 C118 1.287 . S
O124 Fe110 1.996 . S
O124 C118 1.255 . S
C125 O129 1.295 . S
C125 O130 1.235 . S
O126 Fe111 1.976 . S
O126 C120 1.287 . S
O127 Fe113 1.996 . S
O127 C120 1.255 . S
C128 O121 1.287 . S
C128 O122 1.255 . S
O129 Fe111 2.002 . S
O129 C125 1.295 . S
O130 Fe113 1.997 . S
O130 C125 1.235 . S
C131 O114 1.295 . S
C131 O115 1.235 . S
Fe132 O134 1.918 . S
Fe132 O137 1.997 . S
Fe132 O138 2.002 . S
Fe132 O143 1.976 . S
Fe132 O146 1.996 . S
Fe133 O134 1.918 . S
Fe133 O141 1.997 . S
Fe133 O144 1.996 . S
Fe133 O148 1.976 . S
Fe133 O151 2.002 . S
O134 Fe132 1.918 . S
O134 Fe133 1.918 . S
O134 Fe135 1.918 . S
Fe135 O134 1.918 . S
Fe135 O136 2.002 . S
Fe135 O145 1.976 . S
Fe135 O149 1.996 . S
Fe135 O152 1.997 . S
O136 Fe135 2.002 . S
O136 C153 1.295 . S
O137 Fe132 1.997 . S
O137 C153 1.235 . S
O138 Fe132 2.002 . S
O138 C139 1.295 . S
C139 O138 1.295 . S
C139 O141 1.235 . S
C140 O145 1.287 . S
C140 O146 1.255 . S
O141 Fe133 1.997 . S
O141 C139 1.235 . S
C142 O148 1.287 . S
C142 O149 1.255 . S
O143 Fe132 1.976 . S
O143 C150 1.287 . S
O144 Fe133 1.996 . S
O144 C150 1.255 . S
O145 Fe135 1.976 . S
O145 C140 1.287 . S
O146 Fe132 1.996 . S
O146 C140 1.255 . S
C147 O151 1.295 . S
C147 O152 1.235 . S
O148 Fe133 1.976 . S
O148 C142 1.287 . S
O149 Fe135 1.996 . S
O149 C142 1.255 . S
C150 O143 1.287 . S
C150 O144 1.255 . S
O151 Fe133 2.002 . S
O151 C147 1.295 . S
O152 Fe135 1.997 . S
O152 C147 1.235 . S
C153 O136 1.295 . S
C153 O137 1.235 . S
Fe154 O156 1.918 . S
Fe154 O159 1.997 . S
Fe154 O160 2.002 . S
Fe154 O165 1.976 . S
Fe154 O168 1.996 . S
Fe155 O156 1.918 . S
Fe155 O163 1.997 . S
Fe155 O166 1.996 . S
Fe155 O170 1.976 . S
Fe155 O173 2.002 . S
O156 Fe154 1.918 . S
O156 Fe155 1.918 . S
O156 Fe157 1.918 . S
Fe157 O156 1.918 . S
Fe157 O158 2.002 . S
Fe157 O167 1.976 . S
Fe157 O171 1.996 . S
Fe157 O174 1.997 . S
O158 Fe157 2.002 . S
O158 C175 1.295 . S
O159 Fe154 1.997 . S
O159 C175 1.235 . S
O160 Fe154 2.002 . S
O160 C161 1.295 . S
C161 O160 1.295 . S
C161 O163 1.235 . S
C162 O167 1.287 . S
C162 O168 1.255 . S
O163 Fe155 1.997 . S
O163 C161 1.235 . S
C164 O170 1.287 . S
C164 O171 1.255 . S
O165 Fe154 1.976 . S
O165 C172 1.287 . S
O166 Fe155 1.996 . S
O166 C172 1.255 . S
O167 Fe157 1.976 . S
O167 C162 1.287 . S
O168 Fe154 1.996 . S
O168 C162 1.255 . S
C169 O173 1.295 . S
C169 O174 1.235 . S
O170 Fe155 1.976 . S
O170 C164 1.287 . S
O171 Fe157 1.996 . S
O171 C164 1.255 . S
C172 O165 1.287 . S
C172 O166 1.255 . S
O173 Fe155 2.002 . S
O173 C169 1.295 . S
O174 Fe157 1.997 . S
O174 C169 1.235 . S
C175 O158 1.295 . S
C175 O159 1.235 . S
Fe176 O178 1.918 . S
Fe176 O181 1.997 . S
Fe176 O182 2.002 . S
Fe176 O187 1.976 . S
Fe176 O190 1.996 . S
Fe177 O178 1.918 . S
Fe177 O185 1.997 . S
Fe177 O188 1.996 . S
Fe177 O192 1.976 . S
Fe177 O195 2.002 . S
O178 Fe176 1.918 . S
O178 Fe177 1.918 . S
O178 Fe179 1.918 . S
Fe179 O178 1.918 . S
Fe179 O180 2.002 . S
Fe179 O189 1.976 . S
Fe179 O193 1.996 . S
Fe179 O196 1.997 . S
O180 Fe179 2.002 . S
O180 C197 1.295 . S
O181 Fe176 1.997 . S
O181 C197 1.235 . S
O182 Fe176 2.002 . S
O182 C183 1.295 . S
C183 O182 1.295 . S
C183 O185 1.235 . S
C184 O189 1.287 . S
C184 O190 1.255 . S
O185 Fe177 1.997 . S
O185 C183 1.235 . S
C186 O192 1.287 . S
C186 O193 1.255 . S
O187 Fe176 1.976 . S
O187 C194 1.287 . S
O188 Fe177 1.996 . S
O188 C194 1.255 . S
O189 Fe179 1.976 . S
O189 C184 1.287 . S
O190 Fe176 1.996 . S
O190 C184 1.255 . S
C191 O195 1.295 . S
C191 O196 1.235 . S
O192 Fe177 1.976 . S
O192 C186 1.287 . S
O193 Fe179 1.996 . S
O193 C186 1.255 . S
C194 O187 1.287 . S
C194 O188 1.255 . S
O195 Fe177 2.002 . S
O195 C191 1.295 . S
O196 Fe179 1.997 . S
O196 C191 1.235 . S
C197 O180 1.295 . S
C197 O181 1.235 . S
Fe198 O200 1.918 . S
Fe198 O203 1.997 . S
Fe198 O204 2.002 . S
Fe198 O209 1.976 . S
Fe198 O212 1.996 . S
Fe199 O200 1.918 . S
Fe199 O207 1.997 . S
Fe199 O210 1.996 . S
Fe199 O214 1.976 . S
Fe199 O217 2.002 . S
O200 Fe198 1.918 . S
O200 Fe199 1.918 . S
O200 Fe201 1.918 . S
Fe201 O200 1.918 . S
Fe201 O202 2.002 . S
Fe201 O211 1.976 . S
Fe201 O215 1.996 . S
Fe201 O218 1.997 . S
O202 Fe201 2.002 . S
O202 C219 1.295 1_545 S
O203 Fe198 1.997 . S
O203 C219 1.235 1_545 S
O204 Fe198 2.002 . S
O204 C205 1.295 . S
C205 O204 1.295 . S
C205 O207 1.235 . S
C206 O211 1.287 . S
C206 O212 1.255 . S
O207 Fe199 1.997 . S
O207 C205 1.235 . S
C208 O214 1.287 . S
C208 O215 1.255 . S
O209 Fe198 1.976 . S
O209 C216 1.287 . S
O210 Fe199 1.996 . S
O210 C216 1.255 . S
O211 Fe201 1.976 . S
O211 C206 1.287 . S
O212 Fe198 1.996 . S
O212 C206 1.255 . S
C213 O217 1.295 . S
C213 O218 1.235 . S
O214 Fe199 1.976 . S
O214 C208 1.287 . S
O215 Fe201 1.996 . S
O215 C208 1.255 . S
C216 O209 1.287 . S
C216 O210 1.255 . S
O217 Fe199 2.002 . S
O217 C213 1.295 . S
O218 Fe201 1.997 . S
O218 C213 1.235 . S
C219 O202 1.295 1_565 S
C219 O203 1.235 1_565 S
Fe220 O222 1.918 . S
Fe220 O225 1.997 . S
Fe220 O226 2.002 . S
Fe220 O231 1.976 . S
Fe220 O234 1.996 . S
Fe221 O222 1.918 . S
Fe221 O229 1.997 . S
Fe221 O232 1.996 . S
Fe221 O236 1.976 . S
Fe221 O239 2.002 . S
O222 Fe220 1.918 . S
O222 Fe221 1.918 . S
O222 Fe223 1.918 . S
Fe223 O222 1.918 . S
Fe223 O224 2.002 . S
Fe223 O233 1.976 . S
Fe223 O237 1.996 . S
Fe223 O240 1.997 . S
O224 Fe223 2.002 . S
O224 C241 1.295 . S
O225 Fe220 1.997 . S
O225 C241 1.235 . S
O226 Fe220 2.002 . S
O226 C227 1.295 . S
C227 O226 1.295 . S
C227 O229 1.235 . S
C228 O233 1.287 . S
C228 O234 1.255 . S
O229 Fe221 1.997 . S
O229 C227 1.235 . S
C230 O236 1.287 . S
C230 O237 1.255 . S
O231 Fe220 1.976 . S
O231 C238 1.287 . S
O232 Fe221 1.996 . S
O232 C238 1.255 . S
O233 Fe223 1.976 . S
O233 C228 1.287 . S
O234 Fe220 1.996 . S
O234 C228 1.255 . S
C235 O239 1.295 . S
C235 O240 1.235 . S
O236 Fe221 1.976 . S
O236 C230 1.287 . S
O237 Fe223 1.996 . S
O237 C230 1.255 . S
C238 O231 1.287 . S
C238 O232 1.255 . S
O239 Fe221 2.002 . S
O239 C235 1.295 . S
O240 Fe223 1.997 . S
O240 C235 1.235 . S
C241 O224 1.295 . S
C241 O225 1.235 . S
Fe242 O244 1.918 . S
Fe242 O247 1.997 . S
Fe242 O248 2.002 . S
Fe242 O253 1.976 . S
Fe242 O256 1.996 . S
Fe243 O244 1.918 . S
Fe243 O251 1.997 . S
Fe243 O254 1.996 1_565 S
Fe243 O258 1.976 . S
Fe243 O261 2.002 . S
O244 Fe242 1.918 . S
O244 Fe243 1.918 . S
O244 Fe245 1.918 . S
Fe245 O244 1.918 . S
Fe245 O246 2.002 . S
Fe245 O255 1.976 . S
Fe245 O259 1.996 . S
Fe245 O262 1.997 . S
O246 Fe245 2.002 . S
O246 C263 1.295 . S
O247 Fe242 1.997 . S
O247 C263 1.235 . S
O248 Fe242 2.002 . S
O248 C249 1.295 . S
C249 O248 1.295 . S
C249 O251 1.235 . S
C250 O255 1.287 . S
C250 O256 1.255 . S
O251 Fe243 1.997 . S
O251 C249 1.235 . S
C252 O258 1.287 . S
C252 O259 1.255 . S
O253 Fe242 1.976 . S
O253 C260 1.287 1_565 S
O254 Fe243 1.996 1_545 S
O254 C260 1.255 . S
O255 Fe245 1.976 . S
O255 C250 1.287 . S
O256 Fe242 1.996 . S
O256 C250 1.255 . S
C257 O261 1.295 . S
C257 O262 1.235 . S
O258 Fe243 1.976 . S
O258 C252 1.287 . S
O259 Fe245 1.996 . S
O259 C252 1.255 . S
C260 O253 1.287 1_545 S
C260 O254 1.255 . S
O261 Fe243 2.002 . S
O261 C257 1.295 . S
O262 Fe245 1.997 . S
O262 C257 1.235 . S
C263 O246 1.295 . S
C263 O247 1.235 . S
Fe264 O266 1.918 . S
Fe264 O269 1.997 . S
Fe264 O270 2.002 . S
Fe264 O275 1.976 . S
Fe264 O278 1.996 . S
Fe265 O266 1.918 . S
Fe265 O273 1.997 . S
Fe265 O276 1.996 . S
Fe265 O280 1.976 . S
Fe265 O283 2.002 . S
O266 Fe264 1.918 . S
O266 Fe265 1.918 . S
O266 Fe267 1.918 . S
Fe267 O266 1.918 . S
Fe267 O268 2.002 . S
Fe267 O277 1.976 . S
Fe267 O281 1.996 . S
Fe267 O284 1.997 . S
O268 Fe267 2.002 . S
O268 C285 1.295 . S
O269 Fe264 1.997 . S
O269 C285 1.235 . S
O270 Fe264 2.002 . S
O270 C271 1.295 . S
C271 O270 1.295 . S
C271 O273 1.235 . S
C272 O277 1.287 . S
C272 O278 1.255 . S
O273 Fe265 1.997 . S
O273 C271 1.235 . S
C274 O280 1.287 . S
C274 O281 1.255 . S
O275 Fe264 1.976 . S
O275 C282 1.287 . S
O276 Fe265 1.996 . S
O276 C282 1.255 . S
O277 Fe267 1.976 . S
O277 C272 1.287 . S
O278 Fe264 1.996 . S
O278 C272 1.255 . S
C279 O283 1.295 . S
C279 O284 1.235 . S
O280 Fe265 1.976 . S
O280 C274 1.287 . S
O281 Fe267 1.996 . S
O281 C274 1.255 . S
C282 O275 1.287 . S
C282 O276 1.255 . S
O283 Fe265 2.002 . S
O283 C279 1.295 . S
O284 Fe267 1.997 . S
O284 C279 1.235 . S
C285 O268 1.295 . S
C285 O269 1.235 . S
Fe286 O288 1.918 . S
Fe286 O291 1.997 . S
Fe286 O292 2.002 . S
Fe286 O297 1.976 . S
Fe286 O300 1.996 1_565 S
Fe287 O288 1.918 . S
Fe287 O295 1.997 . S
Fe287 O298 1.996 . S
Fe287 O302 1.976 . S
Fe287 O305 2.002 . S
O288 Fe286 1.918 . S
O288 Fe287 1.918 . S
O288 Fe289 1.918 . S
Fe289 O288 1.918 . S
Fe289 O290 2.002 . S
Fe289 O299 1.976 . S
Fe289 O303 1.996 . S
Fe289 O306 1.997 . S
O290 Fe289 2.002 . S
O290 C307 1.295 . S
O291 Fe286 1.997 . S
O291 C307 1.235 . S
O292 Fe286 2.002 . S
O292 C293 1.295 . S
C293 O292 1.295 . S
C293 O295 1.235 . S
C294 O299 1.287 1_545 S
C294 O300 1.255 . S
O295 Fe287 1.997 . S
O295 C293 1.235 . S
C296 O302 1.287 . S
C296 O303 1.255 . S
O297 Fe286 1.976 . S
O297 C304 1.287 . S
O298 Fe287 1.996 . S
O298 C304 1.255 . S
O299 Fe289 1.976 . S
O299 C294 1.287 1_565 S
O300 Fe286 1.996 1_545 S
O300 C294 1.255 . S
C301 O305 1.295 . S
C301 O306 1.235 . S
O302 Fe287 1.976 . S
O302 C296 1.287 . S
O303 Fe289 1.996 . S
O303 C296 1.255 . S
C304 O297 1.287 . S
C304 O298 1.255 . S
O305 Fe287 2.002 . S
O305 C301 1.295 . S
O306 Fe289 1.997 . S
O306 C301 1.235 . S
C307 O290 1.295 . S
C307 O291 1.235 . S
Fe308 O310 1.918 . S
Fe308 O313 1.997 . S
Fe308 O314 2.002 . S
Fe308 O319 1.976 . S
Fe308 O322 1.996 . S
Fe309 O310 1.918 . S
Fe309 O317 1.997 . S
Fe309 O320 1.996 . S
Fe309 O324 1.976 . S
Fe309 O327 2.002 . S
O310 Fe308 1.918 . S
O310 Fe309 1.918 . S
O310 Fe311 1.918 . S
Fe311 O310 1.918 . S
Fe311 O312 2.002 . S
Fe311 O321 1.976 . S
Fe311 O325 1.996 . S
Fe311 O328 1.997 . S
O312 Fe311 2.002 . S
O312 C329 1.295 . S
O313 Fe308 1.997 . S
O313 C329 1.235 . S
O314 Fe308 2.002 . S
O314 C315 1.295 . S
C315 O314 1.295 . S
C315 O317 1.235 . S
C316 O321 1.287 . S
C316 O322 1.255 . S
O317 Fe309 1.997 . S
O317 C315 1.235 . S
C318 O324 1.287 . S
C318 O325 1.255 . S
O319 Fe308 1.976 . S
O319 C326 1.287 . S
O320 Fe309 1.996 . S
O320 C326 1.255 . S
O321 Fe311 1.976 . S
O321 C316 1.287 . S
O322 Fe308 1.996 . S
O322 C316 1.255 . S
C323 O327 1.295 . S
C323 O328 1.235 . S
O324 Fe309 1.976 . S
O324 C318 1.287 . S
O325 Fe311 1.996 . S
O325 C318 1.255 . S
C326 O319 1.287 . S
C326 O320 1.255 . S
O327 Fe309 2.002 . S
O327 C323 1.295 . S
O328 Fe311 1.997 . S
O328 C323 1.235 . S
C329 O312 1.295 . S
C329 O313 1.235 . S
Fe330 O332 1.918 . S
Fe330 O335 1.997 . S
Fe330 O336 2.002 . S
Fe330 O341 1.976 . S
Fe330 O344 1.996 1_545 S
Fe331 O332 1.918 . S
Fe331 O339 1.997 . S
Fe331 O342 1.996 . S
Fe331 O346 1.976 . S
Fe331 O349 2.002 . S
O332 Fe330 1.918 . S
O332 Fe331 1.918 . S
O332 Fe333 1.918 . S
Fe333 O332 1.918 . S
Fe333 O334 2.002 . S
Fe333 O343 1.976 . S
Fe333 O347 1.996 . S
Fe333 O350 1.997 . S
O334 Fe333 2.002 . S
O334 C351 1.295 . S
O335 Fe330 1.997 . S
O335 C351 1.235 . S
O336 Fe330 2.002 . S
O336 C337 1.295 . S
C337 O336 1.295 . S
C337 O339 1.235 . S
C338 O343 1.287 1_565 S
C338 O344 1.255 . S
O339 Fe331 1.997 . S
O339 C337 1.235 . S
C340 O346 1.287 . S
C340 O347 1.255 . S
O341 Fe330 1.976 . S
O341 C348 1.287 . S
O342 Fe331 1.996 . S
O342 C348 1.255 . S
O343 Fe333 1.976 . S
O343 C338 1.287 1_545 S
O344 Fe330 1.996 1_565 S
O344 C338 1.255 . S
C345 O349 1.295 . S
C345 O350 1.235 . S
O346 Fe331 1.976 . S
O346 C340 1.287 . S
O347 Fe333 1.996 . S
O347 C340 1.255 . S
C348 O341 1.287 . S
C348 O342 1.255 . S
O349 Fe331 2.002 . S
O349 C345 1.295 . S
O350 Fe333 1.997 . S
O350 C345 1.235 . S
C351 O334 1.295 . S
C351 O335 1.235 . S
H352 C358 0.930 . S
H353 C361 0.930 . S
H354 C362 0.930 . S
H355 C363 0.930 . S
H356 C366 0.930 . S
H357 C367 0.930 . S
C358 H352 0.930 . S
C358 C359 1.355 . S
C358 C360 1.415 . S
C359 C358 1.355 . S
C359 C361 1.419 . S
C360 C358 1.415 . S
C360 C365 1.425 . S
C360 C367 1.409 . S
C361 H353 0.930 . S
C361 C359 1.419 . S
C361 C362 1.362 . S
C362 H354 0.930 . S
C362 C361 1.362 . S
C362 C365 1.409 . S
C363 H355 0.930 . S
C363 C364 1.355 . S
C363 C365 1.415 . S
C364 C363 1.355 . S
C364 C366 1.419 . S
C365 C360 1.425 . S
C365 C362 1.409 . S
C365 C363 1.415 . S
C366 H356 0.930 . S
C366 C364 1.419 . S
C366 C367 1.362 . S
C367 H357 0.930 . S
C367 C360 1.409 . S
C367 C366 1.362 . S
H368 C374 0.930 . S
H369 C377 0.930 . S
H370 C378 0.930 . S
H371 C379 0.930 . S
H372 C382 0.930 . S
H373 C383 0.930 . S
C374 H368 0.930 . S
C374 C375 1.355 . S
C374 C376 1.415 . S
C375 C374 1.355 . S
C375 C377 1.419 . S
C376 C374 1.415 . S
C376 C381 1.425 . S
C376 C383 1.409 . S
C377 H369 0.930 . S
C377 C375 1.419 . S
C377 C378 1.362 . S
C378 H370 0.930 . S
C378 C377 1.362 . S
C378 C381 1.409 . S
C379 H371 0.930 . S
C379 C380 1.355 . S
C379 C381 1.415 . S
C380 C379 1.355 . S
C380 C382 1.419 . S
C381 C376 1.425 . S
C381 C378 1.409 . S
C381 C379 1.415 . S
C382 H372 0.930 . S
C382 C380 1.419 . S
C382 C383 1.362 . S
C383 H373 0.930 . S
C383 C376 1.409 . S
C383 C382 1.362 . S
H384 C390 0.930 . S
H385 C393 0.930 . S
H386 C394 0.930 . S
H387 C395 0.930 . S
H388 C398 0.930 . S
H389 C399 0.930 . S
C390 H384 0.930 . S
C390 C391 1.355 . S
C390 C392 1.415 . S
C391 C390 1.355 . S
C391 C393 1.419 . S
C392 C390 1.415 . S
C392 C397 1.425 1_455 S
C392 C399 1.409 . S
C393 H385 0.930 . S
C393 C391 1.419 . S
C393 C394 1.362 1_455 S
C394 H386 0.930 . S
C394 C393 1.362 1_655 S
C394 C397 1.409 . S
C395 H387 0.930 . S
C395 C396 1.355 . S
C395 C397 1.415 . S
C396 C395 1.355 . S
C396 C398 1.419 . S
C397 C392 1.425 1_655 S
C397 C394 1.409 . S
C397 C395 1.415 . S
C398 H388 0.930 . S
C398 C396 1.419 . S
C398 C399 1.362 1_655 S
C399 H389 0.930 . S
C399 C392 1.409 . S
C399 C398 1.362 1_455 S
H400 C406 0.930 . S
H401 C409 0.930 . S
H402 C410 0.930 . S
H403 C411 0.930 . S
H404 C414 0.930 1_455 S
H405 C415 0.930 . S
C406 H400 0.930 . S
C406 C407 1.355 . S
C406 C408 1.415 . S
C407 C406 1.355 . S
C407 C409 1.419 1_455 S
C408 C406 1.415 . S
C408 C413 1.425 1_455 S
C408 C415 1.409 . S
C409 H401 0.930 . S
C409 C407 1.419 1_655 S
C409 C410 1.362 . S
C410 H402 0.930 . S
C410 C409 1.362 . S
C410 C413 1.409 . S
C411 H403 0.930 . S
C411 C412 1.355 . S
C411 C413 1.415 . S
C412 C411 1.355 . S
C412 C414 1.419 . S
C413 C408 1.425 1_655 S
C413 C410 1.409 . S
C413 C411 1.415 . S
C414 H404 0.930 1_655 S
C414 C412 1.419 . S
C414 C415 1.362 1_655 S
C415 H405 0.930 . S
C415 C408 1.409 . S
C415 C414 1.362 1_455 S
H416 C422 0.930 . S
H417 C425 0.930 . S
H418 C426 0.930 . S
H419 C427 0.930 . S
H420 C430 0.930 . S
H421 C431 0.930 . S
C422 H416 0.930 . S
C422 C423 1.355 . S
C422 C424 1.415 . S
C423 C422 1.355 . S
C423 C425 1.419 . S
C424 C422 1.415 . S
C424 C429 1.425 . S
C424 C431 1.409 . S
C425 H417 0.930 . S
C425 C423 1.419 . S
C425 C426 1.362 . S
C426 H418 0.930 . S
C426 C425 1.362 . S
C426 C429 1.409 . S
C427 H419 0.930 . S
C427 C428 1.355 . S
C427 C429 1.415 . S
C428 C427 1.355 . S
C428 C430 1.419 . S
C429 C424 1.425 . S
C429 C426 1.409 . S
C429 C427 1.415 . S
C430 H420 0.930 . S
C430 C428 1.419 . S
C430 C431 1.362 . S
C431 H421 0.930 . S
C431 C424 1.409 . S
C431 C430 1.362 . S
H432 C438 0.930 . S
H433 C441 0.930 . S
H434 C442 0.930 . S
H435 C443 0.930 . S
H436 C446 0.930 . S
H437 C447 0.930 . S
C438 H432 0.930 . S
C438 C439 1.355 . S
C438 C440 1.415 . S
C439 C438 1.355 . S
C439 C441 1.419 . S
C440 C438 1.415 . S
C440 C445 1.425 . S
C440 C447 1.409 . S
C441 H433 0.930 . S
C441 C439 1.419 . S
C441 C442 1.362 . S
C442 H434 0.930 . S
C442 C441 1.362 . S
C442 C445 1.409 . S
C443 H435 0.930 . S
C443 C444 1.355 . S
C443 C445 1.415 . S
C444 C443 1.355 . S
C444 C446 1.419 . S
C445 C440 1.425 . S
C445 C442 1.409 . S
C445 C443 1.415 . S
C446 H436 0.930 . S
C446 C444 1.419 . S
C446 C447 1.362 . S
C447 H437 0.930 . S
C447 C440 1.409 . S
C447 C446 1.362 . S
H448 C454 0.930 . S
H449 C457 0.930 . S
H450 C458 0.931 1_655 S
H451 C459 0.930 . S
H452 C462 0.930 . S
H453 C463 0.927 1_455 S
C454 H448 0.930 . S
C454 C455 1.355 . S
C454 C456 1.415 . S
C455 C454 1.355 . S
C455 C457 1.419 . S
C456 C454 1.415 . S
C456 C461 1.425 1_455 S
C456 C463 1.409 1_455 S
C457 H449 0.930 . S
C457 C455 1.419 . S
C457 C458 1.362 . S
C458 H450 0.931 1_455 S
C458 C457 1.362 . S
C458 C461 1.409 1_455 S
C459 H451 0.930 . S
C459 C460 1.355 . S
C459 C461 1.415 . S
C460 C459 1.355 . S
C460 C462 1.419 . S
C461 C456 1.425 1_655 S
C461 C458 1.409 1_655 S
C461 C459 1.415 . S
C462 H452 0.930 . S
C462 C460 1.419 . S
C462 C463 1.362 . S
C463 H453 0.927 1_655 S
C463 C456 1.409 1_655 S
C463 C462 1.362 . S
H464 C470 0.930 . S
H465 C473 0.930 . S
H466 C474 0.930 . S
H467 C475 0.930 . S
H468 C478 0.930 . S
H469 C479 0.930 . S
C470 H464 0.930 . S
C470 C471 1.355 . S
C470 C472 1.415 . S
C471 C470 1.355 . S
C471 C473 1.419 1_455 S
C472 C470 1.415 . S
C472 C477 1.425 1_455 S
C472 C479 1.409 . S
C473 H465 0.930 . S
C473 C471 1.419 1_655 S
C473 C474 1.362 . S
C474 H466 0.930 . S
C474 C473 1.362 . S
C474 C477 1.409 . S
C475 H467 0.930 . S
C475 C476 1.355 . S
C475 C477 1.415 . S
C476 C475 1.355 . S
C476 C478 1.419 1_655 S
C477 C472 1.425 1_655 S
C477 C474 1.409 . S
C477 C475 1.415 . S
C478 H468 0.930 . S
C478 C476 1.419 1_455 S
C478 C479 1.362 . S
C479 H469 0.930 . S
C479 C472 1.409 . S
C479 C478 1.362 . S
H480 C486 0.930 1_556 S
H481 C489 0.930 . S
H482 C490 0.930 . S
H483 C491 0.930 1_554 S
H484 C494 0.930 . S
H485 C495 0.930 . S
C486 H480 0.930 1_554 S
C486 C487 1.355 . S
C486 C488 1.415 1_554 S
C487 C486 1.355 . S
C487 C489 1.419 . S
C488 C486 1.415 1_556 S
C488 C493 1.425 1_546 S
C488 C495 1.409 . S
C489 H481 0.930 . S
C489 C487 1.419 . S
C489 C490 1.362 1_545 S
C490 H482 0.930 . S
C490 C489 1.362 1_565 S
C490 C493 1.409 . S
C491 H483 0.930 1_556 S
C491 C492 1.355 . S
C491 C493 1.415 1_556 S
C492 C491 1.355 . S
C492 C494 1.419 . S
C493 C488 1.425 1_564 S
C493 C490 1.409 . S
C493 C491 1.415 1_554 S
C494 H484 0.930 . S
C494 C492 1.419 . S
C494 C495 1.362 1_565 S
C495 H485 0.930 . S
C495 C488 1.409 . S
C495 C494 1.362 1_545 S
H496 C502 0.930 . S
H497 C505 0.930 . S
H498 C506 0.930 . S
H499 C507 0.930 . S
H500 C510 0.930 . S
H501 C511 0.930 . S
C502 H496 0.930 . S
C502 C503 1.355 . S
C502 C504 1.415 . S
C503 C502 1.355 . S
C503 C505 1.419 . S
C504 C502 1.415 . S
C504 C509 1.425 . S
C504 C511 1.409 . S
C505 H497 0.930 . S
C505 C503 1.419 . S
C505 C506 1.362 . S
C506 H498 0.930 . S
C506 C505 1.362 . S
C506 C509 1.409 . S
C507 H499 0.930 . S
C507 C508 1.355 . S
C507 C509 1.415 . S
C508 C507 1.355 . S
C508 C510 1.419 . S
C509 C504 1.425 . S
C509 C506 1.409 . S
C509 C507 1.415 . S
C510 H500 0.930 . S
C510 C508 1.419 . S
C510 C511 1.362 . S
C511 H501 0.930 . S
C511 C504 1.409 . S
C511 C510 1.362 . S
H512 C518 0.930 . S
H513 C521 0.930 . S
H514 C522 0.930 . S
H515 C523 0.930 . S
H516 C526 0.930 . S
H517 C527 0.930 . S
C518 H512 0.930 . S
C518 C519 1.355 . S
C518 C520 1.415 1_455 S
C519 C518 1.355 . S
C519 C521 1.419 1_565 S
C520 C518 1.415 1_655 S
C520 C525 1.425 1_665 S
C520 C527 1.409 . S
C521 H513 0.930 . S
C521 C519 1.419 1_545 S
C521 C522 1.362 . S
C522 H514 0.930 . S
C522 C521 1.362 . S
C522 C525 1.409 . S
C523 H515 0.930 . S
C523 C524 1.355 . S
C523 C525 1.415 1_655 S
C524 C523 1.355 . S
C524 C526 1.419 1_545 S
C525 C520 1.425 1_445 S
C525 C522 1.409 . S
C525 C523 1.415 1_455 S
C526 H516 0.930 . S
C526 C524 1.419 1_565 S
C526 C527 1.362 . S
C527 H517 0.930 . S
C527 C520 1.409 . S
C527 C526 1.362 . S
H528 C534 0.930 . S
H529 C537 0.930 . S
H530 C538 0.930 . S
H531 C539 0.930 . S
H532 C542 0.930 . S
H533 C543 0.930 . S
C534 H528 0.930 . S
C534 C535 1.355 . S
C534 C536 1.415 . S
C535 C534 1.355 . S
C535 C537 1.419 . S
C536 C534 1.415 . S
C536 C541 1.425 . S
C536 C543 1.409 . S
C537 H529 0.930 . S
C537 C535 1.419 . S
C537 C538 1.362 . S
C538 H530 0.930 . S
C538 C537 1.362 . S
C538 C541 1.409 . S
C539 H531 0.930 . S
C539 C540 1.355 . S
C539 C541 1.415 . S
C540 C539 1.355 . S
C540 C542 1.419 . S
C541 C536 1.425 . S
C541 C538 1.409 . S
C541 C539 1.415 . S
C542 H532 0.930 . S
C542 C540 1.419 . S
C542 C543 1.362 . S
C543 H533 0.930 . S
C543 C536 1.409 . S
C543 C542 1.362 . S
H544 C550 0.930 . S
H545 C553 0.930 . S
H546 C554 0.930 . S
H547 C555 0.930 . S
H548 C558 0.930 . S
H549 C559 0.930 . S
C550 H544 0.930 . S
C550 C551 1.355 . S
C550 C552 1.415 . S
C551 C550 1.355 . S
C551 C553 1.419 . S
C552 C550 1.415 . S
C552 C557 1.425 . S
C552 C559 1.409 . S
C553 H545 0.930 . S
C553 C551 1.419 . S
C553 C554 1.362 . S
C554 H546 0.930 . S
C554 C553 1.362 . S
C554 C557 1.409 . S
C555 H547 0.930 . S
C555 C556 1.355 . S
C555 C557 1.415 . S
C556 C555 1.355 . S
C556 C558 1.419 . S
C557 C552 1.425 . S
C557 C554 1.409 . S
C557 C555 1.415 . S
C558 H548 0.930 . S
C558 C556 1.419 . S
C558 C559 1.362 . S
C559 H549 0.930 . S
C559 C552 1.409 . S
C559 C558 1.362 . S
H560 C566 0.930 . S
H561 C569 0.930 . S
H562 C570 0.930 . S
H563 C571 0.930 . S
H564 C574 0.930 . S
H565 C575 0.930 . S
C566 H560 0.930 . S
C566 C567 1.355 . S
C566 C568 1.415 . S
C567 C566 1.355 . S
C567 C569 1.419 . S
C568 C566 1.415 . S
C568 C573 1.425 . S
C568 C575 1.409 . S
C569 H561 0.930 . S
C569 C567 1.419 . S
C569 C570 1.362 . S
C570 H562 0.930 . S
C570 C569 1.362 . S
C570 C573 1.409 . S
C571 H563 0.930 . S
C571 C572 1.355 . S
C571 C573 1.415 . S
C572 C571 1.355 . S
C572 C574 1.419 . S
C573 C568 1.425 . S
C573 C570 1.409 . S
C573 C571 1.415 . S
C574 H564 0.930 . S
C574 C572 1.419 . S
C574 C575 1.362 . S
C575 H565 0.930 . S
C575 C568 1.409 . S
C575 C574 1.362 . S
H576 C582 0.930 . S
H577 C585 0.930 . S
H578 C586 0.930 . S
H579 C587 0.930 . S
H580 C590 0.930 . S
H581 C591 0.930 . S
C582 H576 0.930 . S
C582 C583 1.355 . S
C582 C584 1.415 . S
C583 C582 1.355 . S
C583 C585 1.419 . S
C584 C582 1.415 . S
C584 C589 1.425 1_455 S
C584 C591 1.409 . S
C585 H577 0.930 . S
C585 C583 1.419 . S
C585 C586 1.362 1_455 S
C586 H578 0.930 . S
C586 C585 1.362 1_655 S
C586 C589 1.409 . S
C587 H579 0.930 . S
C587 C588 1.355 . S
C587 C589 1.415 . S
C588 C587 1.355 . S
C588 C590 1.419 . S
C589 C584 1.425 1_655 S
C589 C586 1.409 . S
C589 C587 1.415 . S
C590 H580 0.930 . S
C590 C588 1.419 . S
C590 C591 1.362 1_655 S
C591 H581 0.930 . S
C591 C584 1.409 . S
C591 C590 1.362 1_455 S
H592 C598 0.930 1_556 S
H593 C601 0.930 . S
H594 C602 0.930 . S
H595 C603 0.930 1_554 S
H596 C606 0.930 . S
H597 C607 0.930 . S
C598 H592 0.930 1_554 S
C598 C599 1.355 . S
C598 C600 1.415 1_554 S
C599 C598 1.355 . S
C599 C601 1.419 . S
C600 C598 1.415 1_556 S
C600 C605 1.425 1_556 S
C600 C607 1.409 . S
C601 H593 0.930 . S
C601 C599 1.419 . S
C601 C602 1.362 . S
C602 H594 0.930 . S
C602 C601 1.362 . S
C602 C605 1.409 . S
C603 H595 0.930 1_556 S
C603 C604 1.355 . S
C603 C605 1.415 1_556 S
C604 C603 1.355 . S
C604 C606 1.419 . S
C605 C600 1.425 1_554 S
C605 C602 1.409 . S
C605 C603 1.415 1_554 S
C606 H596 0.930 . S
C606 C604 1.419 . S
C606 C607 1.362 . S
C607 H597 0.930 . S
C607 C600 1.409 . S
C607 C606 1.362 . S
H608 C614 0.930 . S
H609 C617 0.930 . S
H610 C618 0.930 . S
H611 C619 0.930 . S
H612 C622 0.930 . S
H613 C623 0.930 . S
C614 H608 0.930 . S
C614 C615 1.355 . S
C614 C616 1.415 . S
C615 C614 1.355 . S
C615 C617 1.419 . S
C616 C614 1.415 . S
C616 C621 1.425 . S
C616 C623 1.409 . S
C617 H609 0.930 . S
C617 C615 1.419 . S
C617 C618 1.362 . S
C618 H610 0.930 . S
C618 C617 1.362 . S
C618 C621 1.409 . S
C619 H611 0.930 . S
C619 C620 1.355 . S
C619 C621 1.415 . S
C620 C619 1.355 . S
C620 C622 1.419 . S
C621 C616 1.425 . S
C621 C618 1.409 . S
C621 C619 1.415 . S
C622 H612 0.930 . S
C622 C620 1.419 . S
C622 C623 1.362 . S
C623 H613 0.930 . S
C623 C616 1.409 . S
C623 C622 1.362 . S
H624 C630 0.930 . S
H625 C633 0.930 . S
H626 C634 0.930 . S
H627 C635 0.930 . S
H628 C638 0.930 . S
H629 C639 0.930 . S
C630 H624 0.930 . S
C630 C631 1.355 . S
C630 C632 1.415 . S
C631 C630 1.355 . S
C631 C633 1.419 . S
C632 C630 1.415 . S
C632 C637 1.425 . S
C632 C639 1.409 . S
C633 H625 0.930 . S
C633 C631 1.419 . S
C633 C634 1.362 . S
C634 H626 0.930 . S
C634 C633 1.362 . S
C634 C637 1.409 . S
C635 H627 0.930 . S
C635 C636 1.355 . S
C635 C637 1.415 . S
C636 C635 1.355 . S
C636 C638 1.419 . S
C637 C632 1.425 . S
C637 C634 1.409 . S
C637 C635 1.415 . S
C638 H628 0.930 . S
C638 C636 1.419 . S
C638 C639 1.362 . S
C639 H629 0.930 . S
C639 C632 1.409 . S
C639 C638 1.362 . S
H640 C646 0.930 . S
H641 C649 0.930 . S
H642 C650 0.930 . S
H643 C651 0.930 . S
H644 C654 0.930 . S
H645 C655 0.930 . S
C646 H640 0.930 . S
C646 C647 1.355 . S
C646 C648 1.415 . S
C647 C646 1.355 . S
C647 C649 1.419 . S
C648 C646 1.415 . S
C648 C653 1.425 . S
C648 C655 1.409 . S
C649 H641 0.930 . S
C649 C647 1.419 . S
C649 C650 1.362 . S
C650 H642 0.930 . S
C650 C649 1.362 . S
C650 C653 1.409 . S
C651 H643 0.930 . S
C651 C652 1.355 . S
C651 C653 1.415 . S
C652 C651 1.355 . S
C652 C654 1.419 . S
C653 C648 1.425 . S
C653 C650 1.409 . S
C653 C651 1.415 . S
C654 H644 0.930 . S
C654 C652 1.419 . S
C654 C655 1.362 . S
C655 H645 0.930 . S
C655 C648 1.409 . S
C655 C654 1.362 . S
H656 C662 0.930 . S
H657 C665 0.930 . S
H658 C666 0.930 . S
H659 C667 0.930 . S
H660 C670 0.930 . S
H661 C671 0.930 . S
C662 H656 0.930 . S
C662 C663 1.355 . S
C662 C664 1.415 . S
C663 C662 1.355 . S
C663 C665 1.419 . S
C664 C662 1.415 . S
C664 C669 1.425 . S
C664 C671 1.409 . S
C665 H657 0.930 . S
C665 C663 1.419 . S
C665 C666 1.362 . S
C666 H658 0.930 . S
C666 C665 1.362 . S
C666 C669 1.409 . S
C667 H659 0.930 . S
C667 C668 1.355 . S
C667 C669 1.415 . S
C668 C667 1.355 . S
C668 C670 1.419 . S
C669 C664 1.425 . S
C669 C666 1.409 . S
C669 C667 1.415 . S
C670 H660 0.930 . S
C670 C668 1.419 . S
C670 C671 1.362 . S
C671 H661 0.930 . S
C671 C664 1.409 . S
C671 C670 1.362 . S
H672 C678 0.930 . S
H673 C681 0.930 . S
H674 C682 0.930 . S
H675 C683 0.930 . S
H676 C686 0.930 . S
H677 C687 0.930 . S
C678 H672 0.930 . S
C678 C679 1.355 . S
C678 C680 1.415 . S
C679 C678 1.355 . S
C679 C681 1.419 . S
C680 C678 1.415 . S
C680 C685 1.425 . S
C680 C687 1.409 . S
C681 H673 0.930 . S
C681 C679 1.419 . S
C681 C682 1.362 . S
C682 H674 0.930 . S
C682 C681 1.362 . S
C682 C685 1.409 . S
C683 H675 0.930 . S
C683 C684 1.355 . S
C683 C685 1.415 . S
C684 C683 1.355 . S
C684 C686 1.419 . S
C685 C680 1.425 . S
C685 C682 1.409 . S
C685 C683 1.415 . S
C686 H676 0.930 . S
C686 C684 1.419 . S
C686 C687 1.362 . S
C687 H677 0.930 . S
C687 C680 1.409 . S
C687 C686 1.362 . S
H688 C694 0.930 . S
H689 C697 0.930 . S
H690 C698 0.930 . S
H691 C699 0.930 . S
H692 C702 0.930 . S
H693 C703 0.930 . S
C694 H688 0.930 . S
C694 C695 1.355 . S
C694 C696 1.415 . S
C695 C694 1.355 . S
C695 C697 1.419 . S
C696 C694 1.415 . S
C696 C701 1.425 . S
C696 C703 1.409 . S
C697 H689 0.930 . S
C697 C695 1.419 . S
C697 C698 1.362 . S
C698 H690 0.930 . S
C698 C697 1.362 . S
C698 C701 1.409 . S
C699 H691 0.930 . S
C699 C700 1.355 . S
C699 C701 1.415 . S
C700 C699 1.355 . S
C700 C702 1.419 . S
C701 C696 1.425 . S
C701 C698 1.409 . S
C701 C699 1.415 . S
C702 H692 0.930 . S
C702 C700 1.419 . S
C702 C703 1.362 . S
C703 H693 0.930 . S
C703 C696 1.409 . S
C703 C702 1.362 . S
H704 C710 0.930 . S
H705 C713 0.930 . S
H706 C714 0.930 . S
H707 C715 0.930 . S
H708 C718 0.930 . S
H709 C719 0.930 . S
C710 H704 0.930 . S
C710 C711 1.355 . S
C710 C712 1.415 . S
C711 C710 1.355 . S
C711 C713 1.419 . S
C712 C710 1.415 . S
C712 C717 1.425 . S
C712 C719 1.409 . S
C713 H705 0.930 . S
C713 C711 1.419 . S
C713 C714 1.362 . S
C714 H706 0.930 . S
C714 C713 1.362 . S
C714 C717 1.409 . S
C715 H707 0.930 . S
C715 C716 1.355 . S
C715 C717 1.415 . S
C716 C715 1.355 . S
C716 C718 1.419 . S
C717 C712 1.425 . S
C717 C714 1.409 . S
C717 C715 1.415 . S
C718 H708 0.930 . S
C718 C716 1.419 . S
C718 C719 1.362 . S
C719 H709 0.930 . S
C719 C712 1.409 . S
C719 C718 1.362 . S
H720 C726 0.930 . S
H721 C729 0.930 . S
H722 C730 0.930 . S
H723 C731 0.930 . S
H724 C734 0.930 . S
H725 C735 0.930 . S
C726 H720 0.930 . S
C726 C727 1.355 . S
C726 C728 1.415 . S
C727 C726 1.355 . S
C727 C729 1.419 . S
C728 C726 1.415 . S
C728 C733 1.425 . S
C728 C735 1.409 . S
C729 H721 0.930 . S
C729 C727 1.419 . S
C729 C730 1.362 . S
C730 H722 0.930 . S
C730 C729 1.362 . S
C730 C733 1.409 . S
C731 H723 0.930 . S
C731 C732 1.355 . S
C731 C733 1.415 . S
C732 C731 1.355 . S
C732 C734 1.419 . S
C733 C728 1.425 . S
C733 C730 1.409 . S
C733 C731 1.415 . S
C734 H724 0.930 . S
C734 C732 1.419 . S
C734 C735 1.362 . S
C735 H725 0.930 . S
C735 C728 1.409 . S
C735 C734 1.362 . S
H736 C742 0.930 . S
H737 C745 0.930 . S
H738 C746 0.930 . S
H739 C747 0.930 . S
H740 C750 0.930 . S
H741 C751 0.930 . S
C742 H736 0.930 . S
C742 C743 1.355 . S
C742 C744 1.415 . S
C743 C742 1.355 . S
C743 C745 1.419 . S
C744 C742 1.415 . S
C744 C749 1.425 . S
C744 C751 1.409 . S
C745 H737 0.930 . S
C745 C743 1.419 . S
C745 C746 1.362 . S
C746 H738 0.930 . S
C746 C745 1.362 . S
C746 C749 1.409 . S
C747 H739 0.930 . S
C747 C748 1.355 . S
C747 C749 1.415 . S
C748 C747 1.355 . S
C748 C750 1.419 . S
C749 C744 1.425 . S
C749 C746 1.409 . S
C749 C747 1.415 . S
C750 H740 0.930 . S
C750 C748 1.419 . S
C750 C751 1.362 . S
C751 H741 0.930 . S
C751 C744 1.409 . S
C751 C750 1.362 . S
H752 C758 0.930 . S
H753 C761 0.930 . S
H754 C762 0.930 . S
H755 C763 0.930 . S
H756 C766 0.930 . S
H757 C767 0.934 . S
C758 H752 0.930 . S
C758 C759 1.355 . S
C758 C760 1.415 . S
C759 C758 1.355 . S
C759 C761 1.419 . S
C760 C758 1.415 . S
C760 C765 1.425 . S
C760 C767 1.399 1_565 S
C761 H753 0.930 . S
C761 C759 1.419 . S
C761 C762 1.362 . S
C762 H754 0.930 . S
C762 C761 1.362 . S
C762 C765 1.409 . S
C763 H755 0.930 . S
C763 C764 1.355 1_565 S
C763 C765 1.415 . S
C764 C763 1.355 1_545 S
C764 C766 1.419 . S
C765 C760 1.425 . S
C765 C762 1.409 . S
C765 C763 1.415 . S
C766 H756 0.930 . S
C766 C764 1.419 . S
C766 C767 1.369 . S
C767 H757 0.934 . S
C767 C760 1.399 1_545 S
C767 C766 1.369 . S
H768 C774 0.930 . S
H769 C777 0.930 . S
H770 C778 0.930 . S
H771 C779 0.930 . S
H772 C782 0.930 . S
H773 C783 0.930 . S
C774 H768 0.930 . S
C774 C775 1.355 . S
C774 C776 1.415 . S
C775 C774 1.355 . S
C775 C777 1.419 . S
C776 C774 1.415 . S
C776 C781 1.425 . S
C776 C783 1.409 . S
C777 H769 0.930 . S
C777 C775 1.419 . S
C777 C778 1.362 . S
C778 H770 0.930 . S
C778 C777 1.362 . S
C778 C781 1.409 . S
C779 H771 0.930 . S
C779 C780 1.355 . S
C779 C781 1.415 . S
C780 C779 1.355 . S
C780 C782 1.419 . S
C781 C776 1.425 . S
C781 C778 1.409 . S
C781 C779 1.415 . S
C782 H772 0.930 . S
C782 C780 1.419 . S
C782 C783 1.362 . S
C783 H773 0.930 . S
C783 C776 1.409 . S
C783 C782 1.362 . S
H784 C790 0.930 . S
H785 C793 0.930 . S
H786 C794 0.930 . S
H787 C795 0.930 . S
H788 C798 0.930 . S
H789 C799 0.930 . S
C790 H784 0.930 . S
C790 C791 1.355 . S
C790 C792 1.415 . S
C791 C790 1.355 . S
C791 C793 1.419 . S
C792 C790 1.415 . S
C792 C797 1.425 . S
C792 C799 1.409 1_545 S
C793 H785 0.930 . S
C793 C791 1.419 . S
C793 C794 1.362 . S
C794 H786 0.930 . S
C794 C793 1.362 . S
C794 C797 1.409 . S
C795 H787 0.930 . S
C795 C796 1.355 1_545 S
C795 C797 1.415 . S
C796 C795 1.355 1_565 S
C796 C798 1.419 . S
C797 C792 1.425 . S
C797 C794 1.409 . S
C797 C795 1.415 . S
C798 H788 0.930 . S
C798 C796 1.419 . S
C798 C799 1.362 . S
C799 H789 0.930 . S
C799 C792 1.409 1_565 S
C799 C798 1.362 . S
H800 C806 0.930 . S
H801 C809 0.930 . S
H802 C810 0.930 . S
H803 C811 0.930 . S
H804 C814 0.930 . S
H805 C815 0.930 . S
C806 H800 0.930 . S
C806 C807 1.355 . S
C806 C808 1.415 . S
C807 C806 1.355 . S
C807 C809 1.419 . S
C808 C806 1.415 . S
C808 C813 1.425 . S
C808 C815 1.409 . S
C809 H801 0.930 . S
C809 C807 1.419 . S
C809 C810 1.362 . S
C810 H802 0.930 . S
C810 C809 1.362 . S
C810 C813 1.409 . S
C811 H803 0.930 . S
C811 C812 1.355 . S
C811 C813 1.415 . S
C812 C811 1.355 . S
C812 C814 1.419 . S
C813 C808 1.425 . S
C813 C810 1.409 . S
C813 C811 1.415 . S
C814 H804 0.930 . S
C814 C812 1.419 . S
C814 C815 1.362 . S
C815 H805 0.930 . S
C815 C808 1.409 . S
C815 C814 1.362 . S
H816 C822 0.930 . S
H817 C825 0.930 1_655 S
H818 C826 0.930 . S
H819 C827 0.930 . S
H820 C830 0.930 . S
H821 C831 0.930 1_565 S
C822 H816 0.930 . S
C822 C823 1.355 . S
C822 C824 1.415 1_565 S
C823 C822 1.355 . S
C823 C825 1.419 1_565 S
C824 C822 1.415 1_545 S
C824 C829 1.425 . S
C824 C831 1.409 . S
C825 H817 0.930 1_455 S
C825 C823 1.419 1_545 S
C825 C826 1.362 . S
C826 H818 0.930 . S
C826 C825 1.362 . S
C826 C829 1.409 . S
C827 H819 0.930 . S
C827 C828 1.355 . S
C827 C829 1.415 . S
C828 C827 1.355 . S
C828 C830 1.419 . S
C829 C824 1.425 . S
C829 C826 1.409 . S
C829 C827 1.415 . S
C830 H820 0.930 . S
C830 C828 1.419 . S
C830 C831 1.362 . S
C831 H821 0.930 1_545 S
C831 C824 1.409 . S
C831 C830 1.362 . S
H832 C838 0.930 . S
H833 C841 0.930 . S
H834 C842 0.930 . S
H835 C843 0.930 . S
H836 C846 0.930 . S
H837 C847 0.930 . S
C838 H832 0.930 . S
C838 C839 1.355 . S
C838 C840 1.415 . S
C839 C838 1.355 . S
C839 C841 1.419 . S
C840 C838 1.415 . S
C840 C845 1.425 . S
C840 C847 1.409 . S
C841 H833 0.930 . S
C841 C839 1.419 . S
C841 C842 1.362 . S
C842 H834 0.930 . S
C842 C841 1.362 . S
C842 C845 1.409 . S
C843 H835 0.930 . S
C843 C844 1.355 . S
C843 C845 1.415 . S
C844 C843 1.355 . S
C844 C846 1.419 . S
C845 C840 1.425 . S
C845 C842 1.409 . S
C845 C843 1.415 . S
C846 H836 0.930 . S
C846 C844 1.419 . S
C846 C847 1.362 . S
C847 H837 0.930 . S
C847 C840 1.409 . S
C847 C846 1.362 . S
H848 C854 0.930 . S
H849 C857 0.930 . S
H850 C858 0.930 . S
H851 C859 0.930 . S
H852 C862 0.930 . S
H853 C863 0.932 . S
C854 H848 0.930 . S
C854 C855 1.355 . S
C854 C856 1.415 1_545 S
C855 C854 1.355 . S
C855 C857 1.419 1_545 S
C856 C854 1.415 1_565 S
C856 C861 1.425 . S
C856 C863 1.409 1_565 S
C857 H849 0.930 . S
C857 C855 1.419 1_565 S
C857 C858 1.362 . S
C858 H850 0.930 . S
C858 C857 1.362 . S
C858 C861 1.409 . S
C859 H851 0.930 . S
C859 C860 1.355 . S
C859 C861 1.415 . S
C860 C859 1.355 . S
C860 C862 1.419 . S
C861 C856 1.425 . S
C861 C858 1.409 . S
C861 C859 1.415 . S
C862 H852 0.930 . S
C862 C860 1.419 . S
C862 C863 1.361 1_565 S
C863 H853 0.932 . S
C863 C856 1.409 1_545 S
C863 C862 1.361 1_545 S
H864 C870 0.930 . S
H865 C873 0.930 . S
H866 C874 0.930 . S
H867 C875 0.930 . S
H868 C878 0.930 . S
H869 C879 0.930 . S
C870 H864 0.930 . S
C870 C871 1.355 1_556 S
C870 C872 1.415 . S
C871 C870 1.355 1_554 S
C871 C873 1.419 . S
C872 C870 1.415 . S
C872 C877 1.425 . S
C872 C879 1.409 . S
C873 H865 0.930 . S
C873 C871 1.419 . S
C873 C874 1.362 1_554 S
C874 H866 0.930 . S
C874 C873 1.362 1_556 S
C874 C877 1.409 . S
C875 H867 0.930 . S
C875 C876 1.355 . S
C875 C877 1.415 . S
C876 C875 1.355 . S
C876 C878 1.419 . S
C877 C872 1.425 . S
C877 C874 1.409 . S
C877 C875 1.415 . S
C878 H868 0.930 . S
C878 C876 1.419 . S
C878 C879 1.362 . S
C879 H869 0.930 . S
C879 C872 1.409 . S
C879 C878 1.362 . S
H880 C886 0.930 . S
H881 C889 0.930 . S
H882 C890 0.930 . S
H883 C891 0.930 . S
H884 C894 0.930 . S
H885 C895 0.930 . S
C886 H880 0.930 . S
C886 C887 1.355 . S
C886 C888 1.415 . S
C887 C886 1.355 . S
C887 C889 1.419 . S
C888 C886 1.415 . S
C888 C893 1.425 . S
C888 C895 1.409 . S
C889 H881 0.930 . S
C889 C887 1.419 . S
C889 C890 1.362 . S
C890 H882 0.930 . S
C890 C889 1.362 . S
C890 C893 1.409 . S
C891 H883 0.930 . S
C891 C892 1.355 . S
C891 C893 1.415 . S
C892 C891 1.355 . S
C892 C894 1.419 . S
C893 C888 1.425 . S
C893 C890 1.409 . S
C893 C891 1.415 . S
C894 H884 0.930 . S
C894 C892 1.419 . S
C894 C895 1.362 . S
C895 H885 0.930 . S
C895 C888 1.409 . S
C895 C894 1.362 . S
H896 C902 0.930 . S
H897 C905 0.930 . S
H898 C906 0.930 . S
H899 C907 0.930 . S
H900 C910 0.930 . S
H901 C911 0.930 . S
C902 H896 0.930 . S
C902 C903 1.355 . S
C902 C904 1.415 . S
C903 C902 1.355 . S
C903 C905 1.419 . S
C904 C902 1.415 . S
C904 C909 1.425 . S
C904 C911 1.409 . S
C905 H897 0.930 . S
C905 C903 1.419 . S
C905 C906 1.362 . S
C906 H898 0.930 . S
C906 C905 1.362 . S
C906 C909 1.409 . S
C907 H899 0.930 . S
C907 C908 1.355 . S
C907 C909 1.415 . S
C908 C907 1.355 . S
C908 C910 1.419 . S
C909 C904 1.425 . S
C909 C906 1.409 . S
C909 C907 1.415 . S
C910 H900 0.930 . S
C910 C908 1.419 . S
C910 C911 1.362 . S
C911 H901 0.930 . S
C911 C904 1.409 . S
C911 C910 1.362 . S
H912 C918 0.930 . S
H913 C921 0.930 . S
H914 C922 0.930 . S
H915 C923 0.930 . S
H916 C926 0.930 . S
H917 C927 0.930 . S
C918 H912 0.930 . S
C918 C919 1.355 . S
C918 C920 1.415 . S
C919 C918 1.355 . S
C919 C921 1.419 . S
C920 C918 1.415 . S
C920 C925 1.425 . S
C920 C927 1.409 . S
C921 H913 0.930 . S
C921 C919 1.419 . S
C921 C922 1.362 . S
C922 H914 0.930 . S
C922 C921 1.362 . S
C922 C925 1.409 . S
C923 H915 0.930 . S
C923 C924 1.355 . S
C923 C925 1.415 . S
C924 C923 1.355 . S
C924 C926 1.419 . S
C925 C920 1.425 . S
C925 C922 1.409 . S
C925 C923 1.415 . S
C926 H916 0.930 . S
C926 C924 1.419 . S
C926 C927 1.362 . S
C927 H917 0.930 . S
C927 C920 1.409 . S
C927 C926 1.362 . S
H928 C934 0.930 . S
H929 C937 0.930 . S
H930 C938 0.930 . S
H931 C939 0.930 1_556 S
H932 C942 0.909 1_556 S
H933 C943 0.930 . S
C934 H928 0.930 . S
C934 C935 1.355 . S
C934 C936 1.415 . S
C935 C934 1.355 . S
C935 C937 1.419 . S
C936 C934 1.415 . S
C936 C941 1.425 . S
C936 C943 1.409 . S
C937 H929 0.930 . S
C937 C935 1.419 . S
C937 C938 1.362 . S
C938 H930 0.930 . S
C938 C937 1.362 . S
C938 C941 1.409 . S
C939 H931 0.930 1_554 S
C939 C940 1.355 1_554 S
C939 C941 1.415 . S
C940 C939 1.355 1_556 S
C940 C942 1.405 1_556 S
C941 C936 1.425 . S
C941 C938 1.409 . S
C941 C939 1.415 . S
C942 H932 0.909 1_554 S
C942 C940 1.405 1_554 S
C942 C943 1.398 . S
C943 H933 0.930 . S
C943 C936 1.409 . S
C943 C942 1.398 . S
H944 C950 0.930 . S
H945 C953 0.930 . S
H946 C954 0.930 . S
H947 C955 0.930 . S
H948 C958 0.930 . S
H949 C959 0.930 . S
C950 H944 0.930 . S
C950 C951 1.355 . S
C950 C952 1.415 . S
C951 C950 1.355 . S
C951 C953 1.419 . S
C952 C950 1.415 . S
C952 C957 1.425 . S
C952 C959 1.409 . S
C953 H945 0.930 . S
C953 C951 1.419 . S
C953 C954 1.362 . S
C954 H946 0.930 . S
C954 C953 1.362 . S
C954 C957 1.409 . S
C955 H947 0.930 . S
C955 C956 1.355 . S
C955 C957 1.415 . S
C956 C955 1.355 . S
C956 C958 1.419 . S
C957 C952 1.425 . S
C957 C954 1.409 . S
C957 C955 1.415 . S
C958 H948 0.930 . S
C958 C956 1.419 . S
C958 C959 1.362 . S
C959 H949 0.930 . S
C959 C952 1.409 . S
C959 C958 1.362 . S
H960 C966 0.930 . S
H961 C969 0.930 . S
H962 C970 0.930 . S
H963 C971 0.930 . S
H964 C974 0.930 . S
H965 C975 0.930 . S
C966 H960 0.930 . S
C966 C967 1.355 . S
C966 C968 1.415 . S
C967 C966 1.355 . S
C967 C969 1.419 . S
C968 C966 1.415 . S
C968 C973 1.425 . S
C968 C975 1.409 . S
C969 H961 0.930 . S
C969 C967 1.419 . S
C969 C970 1.362 . S
C970 H962 0.930 . S
C970 C969 1.362 . S
C970 C973 1.409 . S
C971 H963 0.930 . S
C971 C972 1.355 . S
C971 C973 1.415 . S
C972 C971 1.355 . S
C972 C974 1.419 . S
C973 C968 1.425 . S
C973 C970 1.409 . S
C973 C971 1.415 . S
C974 H964 0.930 . S
C974 C972 1.419 . S
C974 C975 1.362 . S
C975 H965 0.930 . S
C975 C968 1.409 . S
C975 C974 1.362 . S
H976 C982 0.930 . S
H977 C985 0.930 . S
H978 C986 0.930 . S
H979 C987 0.930 . S
H980 C990 0.930 . S
H981 C991 0.930 . S
C982 H976 0.930 . S
C982 C983 1.355 . S
C982 C984 1.415 . S
C983 C982 1.355 . S
C983 C985 1.419 . S
C984 C982 1.415 . S
C984 C989 1.425 . S
C984 C991 1.409 . S
C985 H977 0.930 . S
C985 C983 1.419 . S
C985 C986 1.362 . S
C986 H978 0.930 . S
C986 C985 1.362 . S
C986 C989 1.409 . S
C987 H979 0.930 . S
C987 C988 1.355 . S
C987 C989 1.415 . S
C988 C987 1.355 . S
C988 C990 1.419 . S
C989 C984 1.425 . S
C989 C986 1.409 . S
C989 C987 1.415 . S
C990 H980 0.930 . S
C990 C988 1.419 . S
C990 C991 1.362 . S
C991 H981 0.930 . S
C991 C984 1.409 . S
C991 C990 1.362 . S
H992 C998 0.930 . S
H993 C1001 0.930 . S
H994 C1002 0.930 . S
H995 C1003 0.930 . S
H996 C1006 0.930 . S
H997 C1007 0.930 . S
C998 H992 0.930 . S
C998 C999 1.355 . S
C998 C1000 1.415 . S
C999 C998 1.355 . S
C999 C1001 1.419 . S
C1000 C998 1.415 . S
C1000 C1005 1.425 . S
C1000 C1007 1.409 . S
C1001 H993 0.930 . S
C1001 C999 1.419 . S
C1001 C1002 1.362 . S
C1002 H994 0.930 . S
C1002 C1001 1.362 . S
C1002 C1005 1.409 . S
C1003 H995 0.930 . S
C1003 C1004 1.355 . S
C1003 C1005 1.415 . S
C1004 C1003 1.355 . S
C1004 C1006 1.419 . S
C1005 C1000 1.425 . S
C1005 C1002 1.409 . S
C1005 C1003 1.415 . S
C1006 H996 0.930 . S
C1006 C1004 1.419 . S
C1006 C1007 1.362 . S
C1007 H997 0.930 . S
C1007 C1000 1.409 . S
C1007 C1006 1.362 . S
H1008 C1014 0.930 . S
H1009 C1017 0.930 . S
H1010 C1018 0.930 . S
H1011 C1019 0.930 . S
H1012 C1022 0.930 . S
H1013 C1023 0.930 . S
C1014 H1008 0.930 . S
C1014 C1015 1.355 . S
C1014 C1016 1.415 . S
C1015 C1014 1.355 . S
C1015 C1017 1.419 . S
C1016 C1014 1.415 . S
C1016 C1021 1.425 . S
C1016 C1023 1.409 . S
C1017 H1009 0.930 . S
C1017 C1015 1.419 . S
C1017 C1018 1.362 . S
C1018 H1010 0.930 . S
C1018 C1017 1.362 . S
C1018 C1021 1.409 . S
C1019 H1011 0.930 . S
C1019 C1020 1.355 . S
C1019 C1021 1.415 1_545 S
C1020 C1019 1.355 . S
C1020 C1022 1.419 1_545 S
C1021 C1016 1.425 . S
C1021 C1018 1.409 . S
C1021 C1019 1.415 1_565 S
C1022 H1012 0.930 . S
C1022 C1020 1.419 1_565 S
C1022 C1023 1.362 . S
C1023 H1013 0.930 . S
C1023 C1016 1.409 . S
C1023 C1022 1.362 . S
H1024 C1030 0.930 . S
H1025 C1033 0.930 . S
H1026 C1034 0.930 . S
H1027 C1035 0.930 1_554 S
H1028 C1038 0.930 . S
H1029 C1039 0.930 . S
C1030 H1024 0.930 . S
C1030 C1031 1.355 . S
C1030 C1032 1.415 . S
C1031 C1030 1.355 . S
C1031 C1033 1.419 . S
C1032 C1030 1.415 . S
C1032 C1037 1.425 . S
C1032 C1039 1.409 . S
C1033 H1025 0.930 . S
C1033 C1031 1.419 . S
C1033 C1034 1.362 . S
C1034 H1026 0.930 . S
C1034 C1033 1.362 . S
C1034 C1037 1.409 . S
C1035 H1027 0.930 1_556 S
C1035 C1036 1.355 1_556 S
C1035 C1037 1.415 . S
C1036 C1035 1.355 1_554 S
C1036 C1038 1.419 1_554 S
C1037 C1032 1.425 . S
C1037 C1034 1.409 . S
C1037 C1035 1.415 . S
C1038 H1028 0.930 . S
C1038 C1036 1.419 1_556 S
C1038 C1039 1.362 . S
C1039 H1029 0.930 . S
C1039 C1032 1.409 . S
C1039 C1038 1.362 . S
H1040 C1046 0.930 . S
H1041 C1049 0.930 . S
H1042 C1050 0.930 . S
H1043 C1051 0.930 . S
H1044 C1054 0.930 1_565 S
H1045 C1055 0.930 . S
C1046 H1040 0.930 . S
C1046 C1047 1.355 . S
C1046 C1048 1.415 . S
C1047 C1046 1.355 . S
C1047 C1049 1.419 1_565 S
C1048 C1046 1.415 . S
C1048 C1053 1.425 1_565 S
C1048 C1055 1.409 . S
C1049 H1041 0.930 . S
C1049 C1047 1.419 1_545 S
C1049 C1050 1.362 . S
C1050 H1042 0.930 . S
C1050 C1049 1.362 . S
C1050 C1053 1.409 . S
C1051 H1043 0.930 . S
C1051 C1052 1.355 . S
C1051 C1053 1.415 . S
C1052 C1051 1.355 . S
C1052 C1054 1.419 . S
C1053 C1048 1.425 1_545 S
C1053 C1050 1.409 . S
C1053 C1051 1.415 . S
C1054 H1044 0.930 1_545 S
C1054 C1052 1.419 . S
C1054 C1055 1.362 1_545 S
C1055 H1045 0.930 . S
C1055 C1048 1.409 . S
C1055 C1054 1.362 1_565 S
H1056 C1062 0.930 . S
H1057 C1065 0.930 . S
H1058 C1066 0.930 . S
H1059 C1067 0.930 . S
H1060 C1070 0.930 . S
H1061 C1071 0.930 . S
C1062 H1056 0.930 . S
C1062 C1063 1.355 . S
C1062 C1064 1.415 . S
C1063 C1062 1.355 . S
C1063 C1065 1.419 . S
C1064 C1062 1.415 . S
C1064 C1069 1.425 . S
C1064 C1071 1.409 . S
C1065 H1057 0.930 . S
C1065 C1063 1.419 . S
C1065 C1066 1.362 . S
C1066 H1058 0.930 . S
C1066 C1065 1.362 . S
C1066 C1069 1.409 . S
C1067 H1059 0.930 . S
C1067 C1068 1.355 . S
C1067 C1069 1.415 . S
C1068 C1067 1.355 . S
C1068 C1070 1.419 . S
C1069 C1064 1.425 . S
C1069 C1066 1.409 . S
C1069 C1067 1.415 . S
C1070 H1060 0.930 . S
C1070 C1068 1.419 . S
C1070 C1071 1.362 . S
C1071 H1061 0.930 . S
C1071 C1064 1.409 . S
C1071 C1070 1.362 . S
H1072 C1078 0.930 1_565 S
H1073 C1081 0.930 . S
H1074 C1082 0.930 . S
H1075 C1083 0.930 . S
H1076 C1086 0.930 . S
H1077 C1087 0.930 . S
C1078 H1072 0.930 1_545 S
C1078 C1079 1.355 . S
C1078 C1080 1.411 1_545 S
C1079 C1078 1.355 . S
C1079 C1081 1.419 . S
C1080 C1078 1.411 1_565 S
C1080 C1085 1.411 1_565 S
C1080 C1087 1.426 . S
C1081 H1073 0.930 . S
C1081 C1079 1.419 . S
C1081 C1082 1.362 . S
C1082 H1074 0.930 . S
C1082 C1081 1.362 . S
C1082 C1085 1.409 . S
C1083 H1075 0.930 . S
C1083 C1084 1.355 1_545 S
C1083 C1085 1.415 . S
C1084 C1083 1.355 1_565 S
C1084 C1086 1.419 . S
C1085 C1080 1.411 1_545 S
C1085 C1082 1.409 . S
C1085 C1083 1.415 . S
C1086 H1076 0.930 . S
C1086 C1084 1.419 . S
C1086 C1087 1.362 . S
C1087 H1077 0.930 . S
C1087 C1080 1.426 . S
C1087 C1086 1.362 . S
H1088 C1094 0.930 . S
H1089 C1097 0.930 . S
H1090 C1098 0.930 . S
H1091 C1099 0.919 1_556 S
H1092 C1102 0.922 1_556 S
H1093 C1103 0.930 . S
C1094 H1088 0.930 . S
C1094 C1095 1.355 . S
C1094 C1096 1.415 . S
C1095 C1094 1.355 . S
C1095 C1097 1.419 . S
C1096 C1094 1.415 . S
C1096 C1101 1.425 . S
C1096 C1103 1.409 . S
C1097 H1089 0.930 . S
C1097 C1095 1.419 . S
C1097 C1098 1.362 . S
C1098 H1090 0.930 . S
C1098 C1097 1.362 . S
C1098 C1101 1.409 . S
C1099 H1091 0.919 1_554 S
C1099 C1100 1.355 1_554 S
C1099 C1101 1.415 . S
C1100 C1099 1.355 1_556 S
C1100 C1102 1.415 1_556 S
C1101 C1096 1.425 . S
C1101 C1098 1.409 . S
C1101 C1099 1.415 . S
C1102 H1092 0.922 1_554 S
C1102 C1100 1.415 1_554 S
C1102 C1103 1.374 . S
C1103 H1093 0.930 . S
C1103 C1096 1.409 . S
C1103 C1102 1.374 . S
H1104 C1110 0.930 . S
H1105 C1113 0.930 . S
H1106 C1114 0.930 . S
H1107 C1115 0.930 . S
H1108 C1118 0.930 . S
H1109 C1119 0.930 . S
C1110 H1104 0.930 . S
C1110 C1111 1.355 . S
C1110 C1112 1.415 . S
C1111 C1110 1.355 . S
C1111 C1113 1.419 . S
C1112 C1110 1.415 . S
C1112 C1117 1.425 . S
C1112 C1119 1.409 1_565 S
C1113 H1105 0.930 . S
C1113 C1111 1.419 . S
C1113 C1114 1.362 . S
C1114 H1106 0.930 . S
C1114 C1113 1.362 . S
C1114 C1117 1.409 . S
C1115 H1107 0.930 . S
C1115 C1116 1.355 1_565 S
C1115 C1117 1.415 . S
C1116 C1115 1.355 1_545 S
C1116 C1118 1.419 . S
C1117 C1112 1.425 . S
C1117 C1114 1.409 . S
C1117 C1115 1.415 . S
C1118 H1108 0.930 . S
C1118 C1116 1.419 . S
C1118 C1119 1.362 . S
C1119 H1109 0.930 . S
C1119 C1112 1.409 1_545 S
C1119 C1118 1.362 . S
C359 C15 0.758 . S
C364 C241 0.749 . S
C375 C32 0.693 . S
C380 C263 0.788 . S
C391 C65 0.788 . S
C396 C197 0.773 . S
C407 C216 0.731 . S
C412 C81 0.751 . S
C423 C103 0.834 . S
C428 C323 0.766 . S
C439 C345 0.806 . S
C444 C117 0.762 . S
C455 C285 0.835 . S
C460 C153 0.748 . S
C471 C169 0.756 . S
C476 C301 0.771 . S
C487 C7 2.032 . S
C492 C95 2.032 . S
C503 C30 1.999 . S
C508 C293 1.984 . S
C519 C59 2.031 . S
C524 C147 2.031 . S
C535 C73 2.018 . S
C540 C337 2.018 . S
C551 C131 1.994 . S
C556 C208 2.003 . S
C567 C257 2.033 . S
C572 C161 2.033 . S
C583 C279 2.039 . S
C588 C191 2.039 . S
C599 C235 2.047 . S
C604 C315 2.047 . S
C615 C10 1.765 . S
C620 C162 1.750 . S
C631 C37 1.779 . S
C636 C282 1.774 . S
C647 C52 1.746 . S
C652 C120 1.729 . S
C663 C76 1.751 1_455 S
C668 C316 1.763 . S
C679 C74 1.704 . S
C684 C98 1.738 . S
C695 C128 1.730 . S
C700 C194 1.750 . S
C711 C140 1.789 . S
C716 C29 1.754 . S
C727 C238 1.754 . S
C732 C164 1.758 1_655 S
C743 C184 1.737 . S
C748 C338 1.745 . S
C759 C96 1.791 . S
C764 C205 1.786 1_655 S
C775 C294 1.735 . S
C780 C228 1.740 . S
C791 C150 1.765 . S
C796 C250 1.742 . S
C807 C272 1.725 . S
C812 C260 1.705 . S
C823 C296 1.728 1_455 S
C828 C8 1.720 . S
C839 C219 1.755 . S
C844 C318 1.793 . S
C855 C340 1.744 . S
C860 C62 1.729 . S
C871 C18 0.968 . S
C876 C206 0.965 . S
C887 C227 0.958 . S
C892 C43 0.992 . S
C903 C54 1.026 . S
C908 C249 1.027 . S
C919 C183 0.890 . S
C924 C84 0.962 . S
C935 C307 1.017 . S
C940 C106 1.008 . S
C951 C329 0.916 . S
C956 C118 0.972 . S
C967 C351 1.007 . S
C972 C142 1.018 . S
C983 C271 0.995 . S
C988 C172 1.012 . S
C999 C40 0.978 . S
C1004 C186 0.967 . S
C1015 C51 0.974 . S
C1020 C213 1.041 . S
C1031 C87 0.934 . S
C1036 C230 0.978 . S
C1047 C252 1.007 . S
C1052 C21 1.000 . S
C1063 C125 1.014 . S
C1068 C274 1.015 . S
C1079 C139 0.947 . S
C1084 C304 0.980 . S
C1095 C175 1.022 . S
C1100 C326 1.014 . S
C1111 C109 0.901 . S
C1116 C348 0.965 . S
