# Generated by pormake.
# Topology lcv-f, (3)-cn, num edge types: 1
# Building blocks:
#     Node 0, Type 0, BuildingBlock: OLANEW_clean_sbu_2, # of connection points: 3
#     Node 1, Type 0, BuildingBlock: OLANEW_clean_sbu_2, # of connection points: 3
#     Node 2, Type 0, BuildingBlock: OLANEW_clean_sbu_2, # of connection points: 3
#     Node 3, Type 0, BuildingBlock: OLANEW_clean_sbu_2, # of connection points: 3
#     Node 4, Type 0, BuildingBlock: OLANEW_clean_sbu_2, # of connection points: 3
#     Node 5, Type 0, BuildingBlock: OLANEW_clean_sbu_2, # of connection points: 3
#     Node 6, Type 0, BuildingBlock: OLANEW_clean_sbu_2, # of connection points: 3
#     Node 7, Type 0, BuildingBlock: OLANEW_clean_sbu_2, # of connection points: 3
#     Node 8, Type 0, BuildingBlock: OLANEW_clean_sbu_2, # of connection points: 3
#     Node 9, Type 0, BuildingBlock: OLANEW_clean_sbu_2, # of connection points: 3
#     Node 10, Type 0, BuildingBlock: OLANEW_clean_sbu_2, # of connection points: 3
#     Node 11, Type 0, BuildingBlock: OLANEW_clean_sbu_2, # of connection points: 3
#     Node 12, Type 0, BuildingBlock: OLANEW_clean_sbu_2, # of connection points: 3
#     Node 13, Type 0, BuildingBlock: OLANEW_clean_sbu_2, # of connection points: 3
#     Node 14, Type 0, BuildingBlock: OLANEW_clean_sbu_2, # of connection points: 3
#     Node 15, Type 0, BuildingBlock: OLANEW_clean_sbu_2, # of connection points: 3
#     Node 16, Type 0, BuildingBlock: OLANEW_clean_sbu_2, # of connection points: 3
#     Node 17, Type 0, BuildingBlock: OLANEW_clean_sbu_2, # of connection points: 3
#     Node 18, Type 0, BuildingBlock: OLANEW_clean_sbu_2, # of connection points: 3
#     Node 19, Type 0, BuildingBlock: OLANEW_clean_sbu_2, # of connection points: 3
#     Node 20, Type 0, BuildingBlock: OLANEW_clean_sbu_2, # of connection points: 3
#     Node 21, Type 0, BuildingBlock: OLANEW_clean_sbu_2, # of connection points: 3
#     Node 22, Type 0, BuildingBlock: OLANEW_clean_sbu_2, # of connection points: 3
#     Node 23, Type 0, BuildingBlock: OLANEW_clean_sbu_2, # of connection points: 3
#     Node 24, Type 0, BuildingBlock: OLANEW_clean_sbu_2, # of connection points: 3
#     Node 25, Type 0, BuildingBlock: OLANEW_clean_sbu_2, # of connection points: 3
#     Node 26, Type 0, BuildingBlock: OLANEW_clean_sbu_2, # of connection points: 3
#     Node 27, Type 0, BuildingBlock: OLANEW_clean_sbu_2, # of connection points: 3
#     Node 28, Type 0, BuildingBlock: OLANEW_clean_sbu_2, # of connection points: 3
#     Node 29, Type 0, BuildingBlock: OLANEW_clean_sbu_2, # of connection points: 3
#     Node 30, Type 0, BuildingBlock: OLANEW_clean_sbu_2, # of connection points: 3
#     Node 31, Type 0, BuildingBlock: OLANEW_clean_sbu_2, # of connection points: 3
#     Node 32, Type 0, BuildingBlock: OLANEW_clean_sbu_2, # of connection points: 3
#     Node 33, Type 0, BuildingBlock: OLANEW_clean_sbu_2, # of connection points: 3
#     Node 34, Type 0, BuildingBlock: OLANEW_clean_sbu_2, # of connection points: 3
#     Node 35, Type 0, BuildingBlock: OLANEW_clean_sbu_2, # of connection points: 3
#     Node 36, Type 0, BuildingBlock: OLANEW_clean_sbu_2, # of connection points: 3
#     Node 37, Type 0, BuildingBlock: OLANEW_clean_sbu_2, # of connection points: 3
#     Node 38, Type 0, BuildingBlock: OLANEW_clean_sbu_2, # of connection points: 3
#     Node 39, Type 0, BuildingBlock: OLANEW_clean_sbu_2, # of connection points: 3
#     Node 40, Type 0, BuildingBlock: OLANEW_clean_sbu_2, # of connection points: 3
#     Node 41, Type 0, BuildingBlock: OLANEW_clean_sbu_2, # of connection points: 3
#     Node 42, Type 0, BuildingBlock: OLANEW_clean_sbu_2, # of connection points: 3
#     Node 43, Type 0, BuildingBlock: OLANEW_clean_sbu_2, # of connection points: 3
#     Node 44, Type 0, BuildingBlock: OLANEW_clean_sbu_2, # of connection points: 3
#     Node 45, Type 0, BuildingBlock: OLANEW_clean_sbu_2, # of connection points: 3
#     Node 46, Type 0, BuildingBlock: OLANEW_clean_sbu_2, # of connection points: 3
#     Node 47, Type 0, BuildingBlock: OLANEW_clean_sbu_2, # of connection points: 3
#     Edge 48, Type (0, 0), BuildingBlock: KIFKEQ_clean_linker_1, # of connection points: 2
#     Edge 49, Type (0, 0), BuildingBlock: KIFKEQ_clean_linker_1, # of connection points: 2
#     Edge 50, Type (0, 0), BuildingBlock: KIFKEQ_clean_linker_1, # of connection points: 2
#     Edge 51, Type (0, 0), BuildingBlock: KIFKEQ_clean_linker_1, # of connection points: 2
#     Edge 52, Type (0, 0), BuildingBlock: KIFKEQ_clean_linker_1, # of connection points: 2
#     Edge 53, Type (0, 0), BuildingBlock: KIFKEQ_clean_linker_1, # of connection points: 2
#     Edge 54, Type (0, 0), BuildingBlock: KIFKEQ_clean_linker_1, # of connection points: 2
#     Edge 55, Type (0, 0), BuildingBlock: KIFKEQ_clean_linker_1, # of connection points: 2
#     Edge 56, Type (0, 0), BuildingBlock: KIFKEQ_clean_linker_1, # of connection points: 2
#     Edge 57, Type (0, 0), BuildingBlock: KIFKEQ_clean_linker_1, # of connection points: 2
#     Edge 58, Type (0, 0), BuildingBlock: KIFKEQ_clean_linker_1, # of connection points: 2
#     Edge 59, Type (0, 0), BuildingBlock: KIFKEQ_clean_linker_1, # of connection points: 2
#     Edge 60, Type (0, 0), BuildingBlock: KIFKEQ_clean_linker_1, # of connection points: 2
#     Edge 61, Type (0, 0), BuildingBlock: KIFKEQ_clean_linker_1, # of connection points: 2
#     Edge 62, Type (0, 0), BuildingBlock: KIFKEQ_clean_linker_1, # of connection points: 2
#     Edge 63, Type (0, 0), BuildingBlock: KIFKEQ_clean_linker_1, # of connection points: 2
#     Edge 64, Type (0, 0), BuildingBlock: KIFKEQ_clean_linker_1, # of connection points: 2
#     Edge 65, Type (0, 0), BuildingBlock: KIFKEQ_clean_linker_1, # of connection points: 2
#     Edge 66, Type (0, 0), BuildingBlock: KIFKEQ_clean_linker_1, # of connection points: 2
#     Edge 67, Type (0, 0), BuildingBlock: KIFKEQ_clean_linker_1, # of connection points: 2
#     Edge 68, Type (0, 0), BuildingBlock: KIFKEQ_clean_linker_1, # of connection points: 2
#     Edge 69, Type (0, 0), BuildingBlock: KIFKEQ_clean_linker_1, # of connection points: 2
#     Edge 70, Type (0, 0), BuildingBlock: KIFKEQ_clean_linker_1, # of connection points: 2
#     Edge 71, Type (0, 0), BuildingBlock: KIFKEQ_clean_linker_1, # of connection points: 2
#     Edge 72, Type (0, 0), BuildingBlock: KIFKEQ_clean_linker_1, # of connection points: 2
#     Edge 73, Type (0, 0), BuildingBlock: KIFKEQ_clean_linker_1, # of connection points: 2
#     Edge 74, Type (0, 0), BuildingBlock: KIFKEQ_clean_linker_1, # of connection points: 2
#     Edge 75, Type (0, 0), BuildingBlock: KIFKEQ_clean_linker_1, # of connection points: 2
#     Edge 76, Type (0, 0), BuildingBlock: KIFKEQ_clean_linker_1, # of connection points: 2
#     Edge 77, Type (0, 0), BuildingBlock: KIFKEQ_clean_linker_1, # of connection points: 2
#     Edge 78, Type (0, 0), BuildingBlock: KIFKEQ_clean_linker_1, # of connection points: 2
#     Edge 79, Type (0, 0), BuildingBlock: KIFKEQ_clean_linker_1, # of connection points: 2
#     Edge 80, Type (0, 0), BuildingBlock: KIFKEQ_clean_linker_1, # of connection points: 2
#     Edge 81, Type (0, 0), BuildingBlock: KIFKEQ_clean_linker_1, # of connection points: 2
#     Edge 82, Type (0, 0), BuildingBlock: KIFKEQ_clean_linker_1, # of connection points: 2
#     Edge 83, Type (0, 0), BuildingBlock: KIFKEQ_clean_linker_1, # of connection points: 2
#     Edge 84, Type (0, 0), BuildingBlock: KIFKEQ_clean_linker_1, # of connection points: 2
#     Edge 85, Type (0, 0), BuildingBlock: KIFKEQ_clean_linker_1, # of connection points: 2
#     Edge 86, Type (0, 0), BuildingBlock: KIFKEQ_clean_linker_1, # of connection points: 2
#     Edge 87, Type (0, 0), BuildingBlock: KIFKEQ_clean_linker_1, # of connection points: 2
#     Edge 88, Type (0, 0), BuildingBlock: KIFKEQ_clean_linker_1, # of connection points: 2
#     Edge 89, Type (0, 0), BuildingBlock: KIFKEQ_clean_linker_1, # of connection points: 2
#     Edge 90, Type (0, 0), BuildingBlock: KIFKEQ_clean_linker_1, # of connection points: 2
#     Edge 91, Type (0, 0), BuildingBlock: KIFKEQ_clean_linker_1, # of connection points: 2
#     Edge 92, Type (0, 0), BuildingBlock: KIFKEQ_clean_linker_1, # of connection points: 2
#     Edge 93, Type (0, 0), BuildingBlock: KIFKEQ_clean_linker_1, # of connection points: 2
#     Edge 94, Type (0, 0), BuildingBlock: KIFKEQ_clean_linker_1, # of connection points: 2
#     Edge 95, Type (0, 0), BuildingBlock: KIFKEQ_clean_linker_1, # of connection points: 2
#     Edge 96, Type (0, 0), BuildingBlock: KIFKEQ_clean_linker_1, # of connection points: 2
#     Edge 97, Type (0, 0), BuildingBlock: KIFKEQ_clean_linker_1, # of connection points: 2
#     Edge 98, Type (0, 0), BuildingBlock: KIFKEQ_clean_linker_1, # of connection points: 2
#     Edge 99, Type (0, 0), BuildingBlock: KIFKEQ_clean_linker_1, # of connection points: 2
#     Edge 100, Type (0, 0), BuildingBlock: KIFKEQ_clean_linker_1, # of connection points: 2
#     Edge 101, Type (0, 0), BuildingBlock: KIFKEQ_clean_linker_1, # of connection points: 2
#     Edge 102, Type (0, 0), BuildingBlock: KIFKEQ_clean_linker_1, # of connection points: 2
#     Edge 103, Type (0, 0), BuildingBlock: KIFKEQ_clean_linker_1, # of connection points: 2
#     Edge 104, Type (0, 0), BuildingBlock: KIFKEQ_clean_linker_1, # of connection points: 2
#     Edge 105, Type (0, 0), BuildingBlock: KIFKEQ_clean_linker_1, # of connection points: 2
#     Edge 106, Type (0, 0), BuildingBlock: KIFKEQ_clean_linker_1, # of connection points: 2
#     Edge 107, Type (0, 0), BuildingBlock: KIFKEQ_clean_linker_1, # of connection points: 2
#     Edge 108, Type (0, 0), BuildingBlock: KIFKEQ_clean_linker_1, # of connection points: 2
#     Edge 109, Type (0, 0), BuildingBlock: KIFKEQ_clean_linker_1, # of connection points: 2
#     Edge 110, Type (0, 0), BuildingBlock: KIFKEQ_clean_linker_1, # of connection points: 2
#     Edge 111, Type (0, 0), BuildingBlock: KIFKEQ_clean_linker_1, # of connection points: 2
#     Edge 112, Type (0, 0), BuildingBlock: KIFKEQ_clean_linker_1, # of connection points: 2
#     Edge 113, Type (0, 0), BuildingBlock: KIFKEQ_clean_linker_1, # of connection points: 2
#     Edge 114, Type (0, 0), BuildingBlock: KIFKEQ_clean_linker_1, # of connection points: 2
#     Edge 115, Type (0, 0), BuildingBlock: KIFKEQ_clean_linker_1, # of connection points: 2
#     Edge 116, Type (0, 0), BuildingBlock: KIFKEQ_clean_linker_1, # of connection points: 2
#     Edge 117, Type (0, 0), BuildingBlock: KIFKEQ_clean_linker_1, # of connection points: 2
#     Edge 118, Type (0, 0), BuildingBlock: KIFKEQ_clean_linker_1, # of connection points: 2
#     Edge 119, Type (0, 0), BuildingBlock: KIFKEQ_clean_linker_1, # of connection points: 2
# Relax obj value: 0.034
# Max RMSD: 0.022
# Mean RMSD: 0.013
data_MOF--net-lcv-f--node1-OLANEW_clean_sbu_2--edge1-KIFKEQ_clean_linker_1
_symmetry_space_group_name_H-M    P1
_symmetry_Int_Tables_number       1
_symmetry_cell_setting            triclinic
loop_
_symmetry_equiv_pos_as_xyz
'x, y, z'
_cell_length_a     119.10928
_cell_length_b     119.14555
_cell_length_c     119.14408
_cell_angle_alpha  89.633093
_cell_angle_beta   89.662302
_cell_angle_gamma 89.661721
loop_
_atom_site_label
_atom_site_type_symbol
_atom_site_fract_x
_atom_site_fract_y
_atom_site_fract_z
_atom_type_partial_charge
O0 O 0.08784 0.02619 0.19104 0.0
Cd1 Cd 0.07043 0.02322 0.20159 0.0
O2 O 0.08162 0.0187 0.17547 0.0
Cd3 Cd 0.06795 0.01078 0.18477 0.0
O4 O 0.06477 0.99651 0.19591 0.0
C5 C 0.07319 0.99352 0.20175 0.0
O6 O 0.08245 0.99942 0.20096 0.0
C7 C 0.08921 0.02399 0.18068 0.0
C8 C 0.05867 0.0435 0.20258 0.0
O9 O 0.06569 0.04073 0.21024 0.0
O10 O 0.05704 0.03656 0.19458 0.0
O11 O 0.22723 0.84566 0.44593 0.0
Cd12 Cd 0.23258 0.82919 0.457 0.0
O13 O 0.23817 0.84104 0.43174 0.0
Cd14 Cd 0.24719 0.8282 0.44136 0.0
O15 O 0.26223 0.82367 0.45086 0.0
C16 C 0.26204 0.82018 0.46096 0.0
O17 O 0.25231 0.81845 0.46591 0.0
C18 C 0.23075 0.84748 0.43599 0.0
C19 C 0.21769 0.81163 0.45331 0.0
O20 O 0.21602 0.81864 0.46127 0.0
O21 O 0.22647 0.81287 0.44716 0.0
O22 O 0.39805 0.96584 0.69155 0.0
Cd23 Cd 0.41412 0.971 0.70309 0.0
O24 O 0.40461 0.97483 0.67675 0.0
Cd25 Cd 0.41686 0.98408 0.68652 0.0
O26 O 0.42116 0.99938 0.69547 0.0
C27 C 0.41474 0.00232 0.7035 0.0
O28 O 0.40644 0.99568 0.70644 0.0
C29 C 0.39733 0.96839 0.6812 0.0
C30 C 0.43236 0.95691 0.69854 0.0
O31 O 0.42538 0.95458 0.70644 0.0
O32 O 0.43078 0.96597 0.69289 0.0
O33 O 0.27147 0.17384 0.93962 0.0
Cd34 Cd 0.2726 0.19019 0.95188 0.0
O35 O 0.26505 0.18377 0.92538 0.0
Cd36 Cd 0.26026 0.1976 0.93642 0.0
O37 O 0.24758 0.20384 0.94822 0.0
C38 C 0.24971 0.20821 0.95767 0.0
O39 O 0.26022 0.20979 0.96054 0.0
C40 C 0.26871 0.17451 0.92933 0.0
C41 C 0.29445 0.19863 0.95221 0.0
O42 O 0.29113 0.19146 0.95957 0.0
O43 O 0.2874 0.20187 0.94475 0.0
O44 O 0.09925 0.8674 0.26573 0.0
Cd45 Cd 0.08173 0.85704 0.26367 0.0
O46 O 0.08967 0.88234 0.26078 0.0
Cd47 Cd 0.08724 0.89981 0.25547 0.0
O48 O 0.08436 0.9168 0.24905 0.0
C49 C 0.07826 0.91824 0.24043 0.0
O50 O 0.0738 0.90943 0.23563 0.0
C51 C 0.09895 0.87788 0.26371 0.0
C52 C 0.08222 0.83554 0.27307 0.0
O53 O 0.08516 0.83722 0.26283 0.0
O54 O 0.07919 0.84406 0.27889 0.0
O55 O 0.3683 0.86859 0.49843 0.0
Cd56 Cd 0.37164 0.84846 0.4963 0.0
O57 O 0.35481 0.86604 0.51084 0.0
Cd58 Cd 0.35281 0.84819 0.5074 0.0
O59 O 0.34056 0.83652 0.50056 0.0
C60 C 0.3308 0.83695 0.50491 0.0
O61 O 0.32911 0.84354 0.51357 0.0
C62 C 0.36126 0.87261 0.5054 0.0
C63 C 0.39199 0.84236 0.50618 0.0
O64 O 0.39153 0.84529 0.49583 0.0
O65 O 0.3828 0.84219 0.51183 0.0
O66 O 0.41458 0.14169 0.73669 0.0
Cd67 Cd 0.43408 0.14783 0.73735 0.0
O68 O 0.4217 0.12492 0.73423 0.0
Cd69 Cd 0.42155 0.10666 0.73237 0.0
O70 O 0.42255 0.08864 0.72928 0.0
C71 C 0.41366 0.08285 0.72865 0.0
O72 O 0.40389 0.08785 0.73001 0.0
C73 C 0.41312 0.13126 0.73513 0.0
C74 C 0.44092 0.15286 0.75904 0.0
O75 O 0.43762 0.16064 0.75232 0.0
O76 O 0.44095 0.14273 0.75551 0.0
O77 O 0.15414 0.1709 0.01528 0.0
Cd78 Cd 0.14914 0.19026 0.01051 0.0
O79 O 0.16496 0.17574 0.02931 0.0
Cd80 Cd 0.16662 0.19284 0.02283 0.0
O81 O 0.17816 0.20252 0.01226 0.0
C82 C 0.18848 0.2017 0.01484 0.0
O83 O 0.19121 0.19599 0.02391 0.0
C84 C 0.16003 0.16816 0.02375 0.0
C85 C 0.12763 0.19473 0.01883 0.0
O86 O 0.12909 0.19094 0.00888 0.0
O87 O 0.13636 0.19663 0.02475 0.0
O88 O 0.19916 0.08839 0.03061 0.0
Cd89 Cd 0.20985 0.07093 0.02843 0.0
O90 O 0.18386 0.08179 0.02289 0.0
Cd91 Cd 0.19347 0.06798 0.01561 0.0
O92 O 0.20482 0.06511 0.00144 0.0
C93 C 0.21076 0.07357 0.99877 0.0
O94 O 0.20999 0.08264 0.00496 0.0
C95 C 0.18887 0.08959 0.02805 0.0
C96 C 0.20874 0.05847 0.04831 0.0
O97 O 0.21664 0.06555 0.04658 0.0
O98 O 0.20147 0.05716 0.04055 0.0
O99 O 0.17002 0.93305 0.27198 0.0
Cd100 Cd 0.18569 0.94619 0.2728 0.0
O101 O 0.17533 0.92524 0.25611 0.0
Cd102 Cd 0.1888 0.93719 0.25265 0.0
O103 O 0.19748 0.94934 0.2419 0.0
C104 C 0.19823 0.94684 0.23156 0.0
O105 O 0.19435 0.93711 0.22827 0.0
C106 C 0.1686 0.92572 0.26442 0.0
C107 C 0.19196 0.94938 0.2951 0.0
O108 O 0.18449 0.95565 0.29049 0.0
O109 O 0.19657 0.94171 0.28912 0.0
O110 O 0.32898 0.95581 0.51124 0.0
Cd111 Cd 0.31616 0.97185 0.51199 0.0
O112 O 0.33205 0.95594 0.49301 0.0
Cd113 Cd 0.32007 0.96944 0.48945 0.0
O114 O 0.30596 0.97584 0.47962 0.0
C115 C 0.29624 0.97203 0.48182 0.0
O116 O 0.29501 0.96519 0.49042 0.0
C117 C 0.33386 0.95172 0.50267 0.0
C118 C 0.30889 0.97379 0.5342 0.0
O119 O 0.30344 0.96787 0.52715 0.0
O120 O 0.31756 0.97907 0.53065 0.0
O121 O 0.32917 0.09762 0.73866 0.0
Cd122 Cd 0.31063 0.08892 0.73863 0.0
O123 O 0.33115 0.09673 0.72032 0.0
Cd124 Cd 0.31565 0.08745 0.71758 0.0
O125 O 0.30528 0.07416 0.71064 0.0
C126 C 0.30467 0.07358 0.70001 0.0
O127 O 0.30966 0.08132 0.69391 0.0
C128 C 0.3349 0.09961 0.72984 0.0
C129 C 0.30107 0.08907 0.76006 0.0
O130 O 0.30716 0.08081 0.75676 0.0
O131 O 0.29945 0.09724 0.75319 0.0
O132 O 0.2124 0.93087 0.40618 0.0
Cd133 Cd 0.21217 0.95077 0.40103 0.0
O134 O 0.23046 0.9296 0.40242 0.0
Cd135 Cd 0.23342 0.94766 0.40278 0.0
O136 O 0.24304 0.95944 0.41282 0.0
C137 C 0.23922 0.96239 0.42235 0.0
O138 O 0.22908 0.9592 0.42531 0.0
C139 C 0.22121 0.92492 0.40498 0.0
C140 C 0.20834 0.95286 0.37801 0.0
O141 O 0.21833 0.95199 0.38185 0.0
O142 O 0.20017 0.95295 0.38507 0.0
O143 O 0.31455 0.96103 0.64711 0.0
Cd144 Cd 0.29539 0.96497 0.64083 0.0
O145 O 0.31918 0.97869 0.64435 0.0
Cd146 Cd 0.30219 0.98559 0.64399 0.0
O147 O 0.29382 0.99982 0.65196 0.0
C148 C 0.29494 0.0003 0.66255 0.0
O149 O 0.29991 0.99188 0.66774 0.0
C150 C 0.322 0.96862 0.64662 0.0
C151 C 0.29537 0.96778 0.61752 0.0
O152 O 0.2966 0.97617 0.62406 0.0
O153 O 0.29393 0.95808 0.62199 0.0
O154 O 0.26231 0.10608 0.87081 0.0
Cd155 Cd 0.25909 0.08903 0.86002 0.0
O156 O 0.26174 0.09557 0.88594 0.0
Cd157 Cd 0.26049 0.09257 0.90404 0.0
O158 O 0.25557 0.08853 0.9213 0.0
C159 C 0.24712 0.08222 0.92282 0.0
O160 O 0.24185 0.07832 0.91402 0.0
C161 C 0.26282 0.10521 0.88143 0.0
C162 C 0.26834 0.08983 0.83847 0.0
O163 O 0.25829 0.09326 0.84034 0.0
O164 O 0.27404 0.08611 0.84681 0.0
O165 O 0.17173 0.01615 0.14826 0.0
Cd166 Cd 0.19152 0.01209 0.14457 0.0
O167 O 0.17532 0.03106 0.15837 0.0
Cd168 Cd 0.19253 0.02542 0.16129 0.0
O169 O 0.20041 0.01484 0.1741 0.0
C170 C 0.20514 0.0055 0.172 0.0
O171 O 0.20636 0.00237 0.1615 0.0
C172 C 0.16828 0.02481 0.15347 0.0
C173 C 0.19748 0.02103 0.12369 0.0
O174 O 0.19384 0.01097 0.12461 0.0
O175 O 0.1985 0.02679 0.13268 0.0
O176 O 0.03372 0.18809 0.08457 0.0
Cd177 Cd 0.03075 0.19827 0.06694 0.0
O178 O 0.01672 0.18096 0.0851 0.0
Cd179 Cd 0.00973 0.19096 0.07139 0.0
O180 O 0.99497 0.20062 0.06619 0.0
C181 C 0.98586 0.19528 0.06495 0.0
O182 O 0.98602 0.18429 0.066 0.0
C183 C 0.02651 0.18172 0.08921 0.0
C184 C 0.05086 0.19911 0.05479 0.0
O185 O 0.04821 0.20686 0.06175 0.0
O186 O 0.04391 0.19106 0.05345 0.0
O187 O 0.50922 0.32289 0.94191 0.0
Cd188 Cd 0.51255 0.31256 0.95939 0.0
O189 O 0.49616 0.33378 0.94925 0.0
Cd190 Cd 0.49367 0.32256 0.96364 0.0
O191 O 0.48426 0.30882 0.97146 0.0
C192 C 0.48646 0.29883 0.96844 0.0
O193 O 0.49479 0.29711 0.96136 0.0
C194 C 0.50257 0.33124 0.94107 0.0
C195 C 0.53532 0.31284 0.96491 0.0
O196 O 0.52864 0.32064 0.96819 0.0
O197 O 0.53122 0.30485 0.95909 0.0
O198 O 0.91582 0.25898 0.16732 0.0
Cd199 Cd 0.92744 0.25909 0.18416 0.0
O200 O 0.91259 0.24082 0.16787 0.0
Cd201 Cd 0.92377 0.23736 0.18197 0.0
O202 O 0.93704 0.2279 0.19046 0.0
C203 C 0.94509 0.23239 0.19571 0.0
O204 O 0.94536 0.24337 0.19666 0.0
C205 C 0.9111 0.25037 0.16327 0.0
C206 C 0.93129 0.28117 0.19076 0.0
O207 O 0.93799 0.27616 0.18395 0.0
O208 O 0.92285 0.27568 0.19456 0.0
O209 O 0.93778 0.71611 0.40338 0.0
Cd210 Cd 0.93247 0.72534 0.42088 0.0
O211 O 0.95503 0.71813 0.40919 0.0
Cd212 Cd 0.97335 0.71618 0.40908 0.0
O213 O 0.9917 0.71623 0.4091 0.0
C214 C 0.99679 0.72542 0.40735 0.0
O215 O 0.99085 0.73457 0.4055 0.0
C216 C 0.94825 0.71475 0.40173 0.0
C217 C 0.92732 0.70992 0.43779 0.0
O218 O 0.91954 0.71457 0.43198 0.0
O219 O 0.93752 0.71255 0.43559 0.0
O220 O 0.0248 0.14813 0.17207 0.0
Cd221 Cd 0.02015 0.1438 0.19162 0.0
O222 O 0.03321 0.16404 0.17585 0.0
Cd223 Cd 0.02636 0.1648 0.19286 0.0
O224 O 0.01321 0.17431 0.20148 0.0
C225 C 0.01386 0.18492 0.20054 0.0
O226 O 0.0227 0.18922 0.1955 0.0
C227 C 0.03047 0.15657 0.16881 0.0
C228 C 0.02708 0.12192 0.1966 0.0
O229 O 0.01719 0.12394 0.19288 0.0
O230 O 0.03361 0.13028 0.19816 0.0
O231 O 0.48909 0.83062 0.5709 0.0
Cd232 Cd 0.48678 0.82017 0.55345 0.0
O233 O 0.50553 0.83747 0.56597 0.0
Cd234 Cd 0.5066 0.82736 0.55078 0.0
O235 O 0.51195 0.81283 0.54098 0.0
C236 C 0.52232 0.8103 0.54138 0.0
O237 O 0.52909 0.81683 0.54701 0.0
C238 C 0.49749 0.8368 0.57302 0.0
C239 C 0.46624 0.82477 0.54317 0.0
O240 O 0.46723 0.81675 0.55032 0.0
O241 O 0.47497 0.83062 0.54089 0.0
O242 O 0.988 0.67268 0.33235 0.0
Cd243 Cd 0.99765 0.66393 0.31648 0.0
O244 O 0.97311 0.67801 0.3228 0.0
Cd245 Cd 0.98182 0.67412 0.3071 0.0
O246 O 0.99721 0.67722 0.29754 0.0
C247 C 0.99996 0.68745 0.2964 0.0
O248 O 0.99295 0.69523 0.29997 0.0
C249 C 0.97826 0.67712 0.3321 0.0
C250 C 0.99441 0.64078 0.31643 0.0
O251 O 0.003 0.64507 0.32117 0.0
O252 O 0.98739 0.64744 0.31167 0.0
O253 O 0.49037 0.38095 0.86605 0.0
Cd254 Cd 0.48714 0.38917 0.84747 0.0
O255 O 0.48968 0.36456 0.85792 0.0
Cd256 Cd 0.49084 0.34623 0.85665 0.0
O257 O 0.48982 0.32793 0.85703 0.0
C258 C 0.48116 0.32334 0.86128 0.0
O259 O 0.4731 0.32976 0.8653 0.0
C260 C 0.49076 0.37031 0.86682 0.0
C261 C 0.49692 0.4102 0.84444 0.0
O262 O 0.48684 0.40927 0.84813 0.0
O263 O 0.50242 0.40117 0.84231 0.0
O264 O 0.58221 0.58231 0.72894 0.0
Cd265 Cd 0.56406 0.58844 0.73647 0.0
O266 O 0.57527 0.56773 0.72019 0.0
Cd267 Cd 0.55888 0.56933 0.72835 0.0
O268 O 0.54777 0.56373 0.74189 0.0
C269 C 0.54249 0.57027 0.74848 0.0
O270 O 0.54304 0.58117 0.74682 0.0
C271 C 0.58358 0.57394 0.7225 0.0
C272 C 0.55723 0.60862 0.72656 0.0
O273 O 0.56315 0.60853 0.7355 0.0
O274 O 0.55447 0.59916 0.72235 0.0
O275 O 0.65031 0.33247 0.97838 0.0
Cd276 Cd 0.64124 0.31612 0.98695 0.0
O277 O 0.66461 0.32259 0.972 0.0
Cd278 Cd 0.66061 0.30785 0.98219 0.0
O279 O 0.66608 0.29945 0.99757 0.0
C280 C 0.65988 0.29859 0.00625 0.0
O281 O 0.64938 0.302 0.00573 0.0
C282 C 0.65936 0.33189 0.97269 0.0
C283 C 0.61829 0.31539 0.98229 0.0
O284 O 0.62552 0.31093 0.97565 0.0
O285 O 0.62192 0.32021 0.99114 0.0
O286 O 0.93059 0.39726 0.21455 0.0
Cd287 Cd 0.94715 0.38504 0.21551 0.0
O288 O 0.94129 0.41052 0.22112 0.0
Cd289 Cd 0.9456 0.4268 0.22828 0.0
O290 O 0.95247 0.44056 0.2381 0.0
C291 C 0.95717 0.43795 0.24732 0.0
O292 O 0.95757 0.42733 0.25035 0.0
C293 C 0.93172 0.40737 0.21768 0.0
C294 C 0.94287 0.3627 0.21019 0.0
O295 O 0.94191 0.3662 0.2203 0.0
O296 O 0.94573 0.36979 0.20258 0.0
O297 O 0.89745 0.62611 0.51724 0.0
Cd298 Cd 0.90444 0.64485 0.52144 0.0
O299 O 0.88093 0.63338 0.52091 0.0
Cd300 Cd 0.86257 0.63348 0.52203 0.0
O301 O 0.84437 0.63584 0.52294 0.0
C302 C 0.83973 0.63796 0.53233 0.0
O303 O 0.84599 0.63846 0.54135 0.0
C304 C 0.8869 0.62491 0.51824 0.0
C305 C 0.90943 0.65757 0.50239 0.0
O306 O 0.91717 0.65223 0.50766 0.0
O307 O 0.89933 0.6568 0.50606 0.0
O308 O 0.55774 0.50939 0.83539 0.0
Cd309 Cd 0.54069 0.50708 0.82434 0.0
O310 O 0.54904 0.51628 0.85019 0.0
Cd311 Cd 0.53388 0.51884 0.84027 0.0
O312 O 0.5271 0.52685 0.82521 0.0
C313 C 0.52931 0.53721 0.82397 0.0
O314 O 0.53453 0.54241 0.8321 0.0
C315 C 0.55802 0.5128 0.84549 0.0
C316 C 0.53097 0.48623 0.82866 0.0
O317 O 0.53807 0.48753 0.82065 0.0
O318 O 0.5284 0.49483 0.83459 0.0
O319 O 0.72945 0.32983 0.08458 0.0
Cd320 Cd 0.72849 0.31231 0.07409 0.0
O321 O 0.7253 0.32226 0.10098 0.0
Cd322 Cd 0.72015 0.30683 0.0927 0.0
O323 O 0.71 0.29838 0.08013 0.0
C324 C 0.70013 0.30228 0.0789 0.0
O325 O 0.6967 0.31036 0.08558 0.0
C326 C 0.72824 0.33075 0.09516 0.0
C327 C 0.74966 0.30216 0.07345 0.0
O328 O 0.7466 0.30917 0.06583 0.0
O329 O 0.74263 0.29984 0.0813 0.0
O330 O 0.96018 0.53121 0.33401 0.0
Cd331 Cd 0.97574 0.53437 0.32092 0.0
O332 O 0.96352 0.51308 0.33532 0.0
Cd333 Cd 0.97493 0.51247 0.32095 0.0
O334 O 0.97591 0.50403 0.30476 0.0
C335 C 0.98153 0.49498 0.30375 0.0
O336 O 0.9876 0.49144 0.31226 0.0
C337 C 0.95804 0.52171 0.33843 0.0
C338 C 0.98056 0.5572 0.31927 0.0
O339 O 0.97382 0.55255 0.31239 0.0
O340 O 0.98509 0.55103 0.32686 0.0
O341 O 0.70161 0.67868 0.54501 0.0
Cd342 Cd 0.69914 0.69846 0.54004 0.0
O343 O 0.71985 0.67983 0.54283 0.0
Cd344 Cd 0.73711 0.6735 0.5415 0.0
O345 O 0.75461 0.6679 0.54116 0.0
C346 C 0.75756 0.65914 0.53585 0.0
O347 O 0.7499 0.65339 0.5305 0.0
C348 C 0.71122 0.674 0.54523 0.0
C349 C 0.67632 0.70345 0.53832 0.0
O350 O 0.68193 0.69995 0.52982 0.0
O351 O 0.68154 0.70476 0.54759 0.0
O352 O 0.72542 0.58705 0.5669 0.0
Cd353 Cd 0.72962 0.56725 0.57054 0.0
O354 O 0.71467 0.58378 0.55233 0.0
Cd355 Cd 0.71909 0.56598 0.55225 0.0
O356 O 0.73033 0.55217 0.5478 0.0
C357 C 0.73275 0.55116 0.53745 0.0
O358 O 0.72779 0.55784 0.53017 0.0
C359 C 0.71899 0.59066 0.55917 0.0
C360 C 0.72189 0.56091 0.59178 0.0
O361 O 0.73185 0.56471 0.59036 0.0
O362 O 0.71563 0.56002 0.58312 0.0
O363 O 0.63357 0.52633 0.89318 0.0
Cd364 Cd 0.65238 0.53022 0.90014 0.0
O365 O 0.64183 0.52263 0.87715 0.0
Cd366 Cd 0.64221 0.51936 0.85909 0.0
O367 O 0.64402 0.51859 0.84085 0.0
C368 C 0.63862 0.52549 0.83472 0.0
O369 O 0.63184 0.53278 0.83952 0.0
C370 C 0.63288 0.52335 0.88299 0.0
C371 C 0.66338 0.51061 0.90684 0.0
O372 O 0.65824 0.51679 0.91401 0.0
O373 O 0.66333 0.51372 0.89652 0.0
O374 O 0.73481 0.409 0.14023 0.0
Cd375 Cd 0.73492 0.42844 0.14659 0.0
O376 O 0.73654 0.41586 0.12321 0.0
Cd377 Cd 0.73642 0.4145 0.1049 0.0
O378 O 0.73503 0.41317 0.08669 0.0
C379 C 0.73081 0.40449 0.08226 0.0
O380 O 0.72742 0.39623 0.08879 0.0
C381 C 0.73568 0.4074 0.12973 0.0
C382 C 0.75548 0.43476 0.15557 0.0
O383 O 0.74751 0.43121 0.16192 0.0
O384 O 0.75374 0.43524 0.14497 0.0
O385 O 0.88082 0.49461 0.37358 0.0
Cd386 Cd 0.86211 0.4867 0.37621 0.0
O387 O 0.87474 0.50699 0.36125 0.0
Cd388 Cd 0.85919 0.49802 0.35803 0.0
O389 O 0.85205 0.48851 0.34421 0.0
C390 C 0.84812 0.49401 0.33593 0.0
O391 O 0.84754 0.505 0.33658 0.0
C392 C 0.88259 0.50317 0.3674 0.0
C393 C 0.85376 0.49338 0.39706 0.0
O394 O 0.85904 0.48405 0.39594 0.0
O395 O 0.85223 0.49944 0.38826 0.0
O396 O 0.70343 0.40456 0.94049 0.0
Cd397 Cd 0.71571 0.42072 0.93783 0.0
O398 O 0.70701 0.40647 0.95834 0.0
Cd399 Cd 0.70727 0.40206 0.97623 0.0
O400 O 0.70973 0.40027 0.99433 0.0
C401 C 0.71909 0.40322 0.99839 0.0
O402 O 0.72691 0.40704 0.99156 0.0
C403 C 0.70198 0.40128 0.95056 0.0
C404 C 0.70403 0.43988 0.93098 0.0
O405 O 0.70899 0.43356 0.92381 0.0
O406 O 0.70457 0.43711 0.94138 0.0
O407 O 0.86214 0.46202 0.19998 0.0
Cd408 Cd 0.84591 0.47453 0.19814 0.0
O409 O 0.85775 0.46119 0.21778 0.0
Cd410 Cd 0.85934 0.45778 0.23578 0.0
O411 O 0.85747 0.45978 0.25393 0.0
C412 C 0.84834 0.46403 0.25756 0.0
O413 O 0.84043 0.46663 0.25034 0.0
C414 C 0.86426 0.45833 0.20977 0.0
C415 C 0.82732 0.46439 0.18848 0.0
O416 O 0.83429 0.47002 0.18247 0.0
O417 O 0.82922 0.46346 0.19902 0.0
O418 O 0.84364 0.54881 0.49816 0.0
Cd419 Cd 0.83144 0.53269 0.49511 0.0
O420 O 0.84579 0.54492 0.51609 0.0
Cd421 Cd 0.83301 0.53187 0.51639 0.0
O422 O 0.81593 0.52768 0.52156 0.0
C423 C 0.8083 0.52473 0.51479 0.0
O424 O 0.81087 0.52324 0.50416 0.0
C425 C 0.8481 0.55097 0.50756 0.0
C426 C 0.83501 0.52327 0.47402 0.0
O427 O 0.82746 0.53083 0.47551 0.0
O428 O 0.84082 0.52014 0.48252 0.0
O429 O 0.66541 0.5459 0.69388 0.0
Cd430 Cd 0.68387 0.5374 0.69062 0.0
O431 O 0.66722 0.54195 0.71176 0.0
Cd432 Cd 0.66159 0.5404 0.72925 0.0
O433 O 0.65666 0.53929 0.74692 0.0
C434 C 0.655 0.52979 0.75153 0.0
O435 O 0.6562 0.52067 0.74549 0.0
C436 C 0.66146 0.54618 0.7038 0.0
C437 C 0.69223 0.54223 0.66922 0.0
O438 O 0.68619 0.53352 0.67103 0.0
O439 O 0.69429 0.54866 0.67754 0.0
O440 O 0.56566 0.70147 0.56136 0.0
Cd441 Cd 0.56891 0.70874 0.54242 0.0
O442 O 0.54741 0.69943 0.55967 0.0
Cd443 Cd 0.54685 0.70831 0.5436 0.0
O444 O 0.54136 0.72405 0.53588 0.0
C445 C 0.54822 0.73146 0.53244 0.0
O446 O 0.55903 0.72922 0.53259 0.0
C447 C 0.55629 0.69835 0.56545 0.0
C448 C 0.59201 0.70956 0.53861 0.0
O449 O 0.58674 0.71792 0.5429 0.0
O450 O 0.58629 0.70092 0.53588 0.0
O451 O 0.13957 0.73357 0.41458 0.0
Cd452 Cd 0.14648 0.73311 0.43386 0.0
O453 O 0.12253 0.73586 0.42127 0.0
Cd454 Cd 0.10423 0.7367 0.41968 0.0
O455 O 0.08599 0.73655 0.41785 0.0
C456 C 0.08138 0.72901 0.41198 0.0
O457 O 0.08775 0.72146 0.40702 0.0
C458 C 0.12913 0.73489 0.41289 0.0
C459 C 0.16194 0.75008 0.43796 0.0
O460 O 0.16517 0.7404 0.43453 0.0
O461 O 0.15139 0.75173 0.43943 0.0
O462 O 0.50745 0.88042 0.65161 0.0
Cd463 Cd 0.51086 0.88753 0.67047 0.0
O464 O 0.50892 0.86342 0.65851 0.0
Cd465 Cd 0.51034 0.84507 0.65823 0.0
O466 O 0.51239 0.82683 0.65893 0.0
C467 C 0.51949 0.82247 0.66561 0.0
O468 O 0.52547 0.82907 0.672 0.0
C469 C 0.50725 0.86987 0.65012 0.0
C470 C 0.49432 0.90276 0.67718 0.0
O471 O 0.50332 0.90612 0.6723 0.0
O472 O 0.49317 0.8922 0.6789 0.0
O473 O 0.40698 0.22514 0.93422 0.0
Cd474 Cd 0.397 0.23323 0.9503 0.0
O475 O 0.41669 0.21346 0.9448 0.0
Cd476 Cd 0.41363 0.22359 0.95972 0.0
O477 O 0.42211 0.23761 0.96779 0.0
C478 C 0.43189 0.23571 0.9716 0.0
O479 O 0.4358 0.22537 0.97146 0.0
C480 C 0.41375 0.21688 0.93512 0.0
C481 C 0.37468 0.22609 0.95113 0.0
O482 O 0.37738 0.23526 0.94614 0.0
O483 O 0.38253 0.22033 0.95577 0.0
O484 O 0.53809 0.69517 0.65316 0.0
Cd485 Cd 0.53295 0.69941 0.67257 0.0
O486 O 0.55127 0.70802 0.65254 0.0
Cd487 Cd 0.54558 0.71691 0.66751 0.0
O488 O 0.53965 0.73377 0.67172 0.0
C489 C 0.53648 0.73944 0.66321 0.0
O490 O 0.53676 0.73462 0.65332 0.0
C491 C 0.54621 0.69986 0.64802 0.0
C492 C 0.53734 0.68066 0.68604 0.0
O493 O 0.52775 0.68206 0.6814 0.0
O494 O 0.54479 0.68823 0.68447 0.0
O495 O 0.85932 0.25979 0.08965 0.0
Cd496 Cd 0.84978 0.26053 0.07153 0.0
O497 O 0.87393 0.25276 0.08087 0.0
Cd498 Cd 0.89129 0.24675 0.07914 0.0
O499 O 0.90825 0.24003 0.07672 0.0
C500 C 0.9102 0.23326 0.06874 0.0
O501 O 0.90193 0.23048 0.06207 0.0
C502 C 0.86927 0.2559 0.08997 0.0
C503 C 0.82812 0.26951 0.07281 0.0
O504 O 0.82988 0.25897 0.07421 0.0
O505 O 0.83662 0.2758 0.07091 0.0
O506 O 0.46574 0.18039 0.87098 0.0
Cd507 Cd 0.47992 0.17582 0.85681 0.0
O508 O 0.46747 0.19762 0.86485 0.0
Cd509 Cd 0.46463 0.21574 0.86319 0.0
O510 O 0.46512 0.23406 0.86232 0.0
C511 C 0.4743 0.23888 0.86465 0.0
O512 O 0.48301 0.23269 0.86749 0.0
C513 C 0.46297 0.19068 0.87167 0.0
C514 C 0.47052 0.17071 0.83613 0.0
O515 O 0.47337 0.16291 0.84302 0.0
O516 O 0.47206 0.18092 0.83904 0.0
O517 O 0.08673 0.73532 0.33333 0.0
Cd518 Cd 0.07678 0.73589 0.31548 0.0
O519 O 0.10311 0.73033 0.32623 0.0
Cd520 Cd 0.0954 0.72724 0.30994 0.0
O521 O 0.08207 0.72054 0.29943 0.0
C522 C 0.07919 0.71047 0.3014 0.0
O523 O 0.08494 0.70459 0.30879 0.0
C524 C 0.09713 0.7332 0.33464 0.0
C525 C 0.07798 0.75726 0.30585 0.0
O526 O 0.06989 0.75458 0.31246 0.0
O527 O 0.08546 0.74979 0.30371 0.0
H528 H 0.05588 0.97862 0.2045 0.0
H529 H 0.09014 0.98477 0.21438 0.0
H530 H 0.05624 0.9608 0.21475 0.0
H531 H 0.09058 0.96693 0.22434 0.0
H532 H 0.08557 0.93827 0.2487 0.0
H533 H 0.08334 0.95688 0.24037 0.0
H534 H 0.06502 0.94251 0.21281 0.0
H535 H 0.06701 0.92395 0.22127 0.0
C536 C 0.06346 0.97621 0.2089 0.0
C537 C 0.073 0.9831 0.20859 0.0
C538 C 0.06369 0.96596 0.21471 0.0
C539 C 0.07345 0.9624 0.22034 0.0
C540 C 0.08287 0.96945 0.22024 0.0
C541 C 0.08264 0.97967 0.21445 0.0
C542 C 0.08101 0.93909 0.2409 0.0
C543 C 0.07652 0.92961 0.23562 0.0
C544 C 0.07977 0.94975 0.23609 0.0
C545 C 0.07405 0.95119 0.22589 0.0
C546 C 0.06935 0.94174 0.22074 0.0
C547 C 0.07057 0.93107 0.22556 0.0
H548 H 0.28329 0.82474 0.45357 0.0
H549 H 0.26471 0.81434 0.48308 0.0
H550 H 0.30019 0.82638 0.46474 0.0
H551 H 0.28176 0.81569 0.49424 0.0
H552 H 0.30882 0.83756 0.51145 0.0
H553 H 0.29263 0.83111 0.50107 0.0
H554 H 0.31462 0.81731 0.47562 0.0
H555 H 0.33088 0.82407 0.4859 0.0
C556 C 0.28285 0.82259 0.46241 0.0
C557 C 0.2726 0.81955 0.46745 0.0
C558 C 0.29259 0.82345 0.46882 0.0
C559 C 0.29233 0.82125 0.48043 0.0
C560 C 0.28221 0.81763 0.48536 0.0
C561 C 0.27245 0.8168 0.47894 0.0
C562 C 0.31024 0.83301 0.50372 0.0
C563 C 0.32115 0.83147 0.49943 0.0
C564 C 0.30093 0.82923 0.49779 0.0
C565 C 0.3023 0.82376 0.48745 0.0
C566 C 0.31325 0.82166 0.48346 0.0
C567 C 0.32258 0.82548 0.48939 0.0
H568 H 0.43249 0.06993 0.72554 0.0
H569 H 0.39625 0.06832 0.72586 0.0
H570 H 0.43347 0.05009 0.72067 0.0
H571 H 0.39724 0.04858 0.72076 0.0
H572 H 0.40228 0.01109 0.72068 0.0
H573 H 0.40258 0.03021 0.72779 0.0
H574 H 0.42948 0.03828 0.70468 0.0
H575 H 0.42934 0.01909 0.69773 0.0
C576 C 0.42473 0.06535 0.72458 0.0
C577 C 0.41429 0.07072 0.72606 0.0
C578 C 0.4253 0.05399 0.72174 0.0
C579 C 0.41544 0.04774 0.72031 0.0
C580 C 0.405 0.05309 0.72195 0.0
C581 C 0.40443 0.06444 0.7248 0.0
C582 C 0.40834 0.0169 0.7172 0.0
C583 C 0.41573 0.01358 0.70858 0.0
C584 C 0.40847 0.02789 0.72123 0.0
C585 C 0.41597 0.03582 0.71672 0.0
C586 C 0.42365 0.03237 0.7084 0.0
C587 C 0.42354 0.02137 0.70438 0.0
H588 H 0.18598 0.21231 0.99448 0.0
H589 H 0.21115 0.19994 0.0175 0.0
H590 H 0.20066 0.21653 0.98072 0.0
H591 H 0.22571 0.20385 0.00371 0.0
H592 H 0.25117 0.21635 0.97909 0.0
H593 H 0.23621 0.21746 0.99314 0.0
H594 H 0.2125 0.20529 0.96881 0.0
H595 H 0.22732 0.20448 0.95475 0.0
C596 C 0.19464 0.21061 0.99666 0.0
C597 C 0.19737 0.20567 0.00705 0.0
C598 C 0.20306 0.21296 0.98875 0.0
C599 C 0.21437 0.21043 0.99105 0.0
C600 C 0.21712 0.20603 0.00167 0.0
C601 C 0.20873 0.2037 0.00957 0.0
C602 C 0.24273 0.21408 0.9767 0.0
C603 C 0.24048 0.21021 0.96583 0.0
C604 C 0.23416 0.21466 0.98477 0.0
C605 C 0.22316 0.21137 0.98215 0.0
C606 C 0.22083 0.20802 0.97112 0.0
C607 C 0.22937 0.20746 0.96306 0.0
H608 H 0.2235 0.09072 0.9906 0.0
H609 H 0.21331 0.05682 0.98324 0.0
H610 H 0.23314 0.09185 0.97261 0.0
H611 H 0.22325 0.05785 0.96527 0.0
H612 H 0.22839 0.07042 0.92875 0.0
H613 H 0.22072 0.06741 0.9475 0.0
H614 H 0.24877 0.08515 0.96166 0.0
H615 H 0.2563 0.08842 0.94285 0.0
C616 C 0.22345 0.08344 0.98521 0.0
C617 C 0.21756 0.07371 0.98833 0.0
C618 C 0.22906 0.08406 0.9749 0.0
C619 C 0.22895 0.07496 0.96746 0.0
C620 C 0.22336 0.06508 0.97074 0.0
C621 C 0.21773 0.06446 0.98106 0.0
C622 C 0.23297 0.07362 0.93586 0.0
C623 C 0.24291 0.07975 0.93429 0.0
C624 C 0.22861 0.07182 0.94664 0.0
C625 C 0.23411 0.07606 0.9561 0.0
C626 C 0.24423 0.08191 0.95455 0.0
C627 C 0.24858 0.08374 0.94376 0.0
H628 H 0.2069 0.96777 0.23529 0.0
H629 H 0.19847 0.94477 0.20879 0.0
H630 H 0.21149 0.9821 0.22129 0.0
H631 H 0.20265 0.95912 0.19488 0.0
H632 H 0.21502 0.98471 0.17074 0.0
H633 H 0.21613 0.97052 0.18555 0.0
H634 H 0.20104 0.99385 0.20892 0.0
H635 H 0.20032 0.00808 0.19428 0.0
C636 C 0.20611 0.96574 0.22648 0.0
C637 C 0.20221 0.95516 0.22317 0.0
C638 C 0.20869 0.97397 0.21845 0.0
C639 C 0.20736 0.97182 0.20693 0.0
C640 C 0.20393 0.96106 0.20364 0.0
C641 C 0.20143 0.95283 0.21165 0.0
C642 C 0.21214 0.98687 0.1791 0.0
C643 C 0.20745 0.99749 0.18128 0.0
C644 C 0.21271 0.97871 0.18758 0.0
C645 C 0.20852 0.98096 0.19841 0.0
C646 C 0.20444 0.99181 0.20073 0.0
C647 C 0.20396 -2e-05 0.19228 0.0
H648 H 0.26163 0.96688 0.42013 0.0
H649 H 0.23396 0.96923 0.44363 0.0
H650 H 0.27462 0.97183 0.43491 0.0
H651 H 0.24696 0.97451 0.45839 0.0
H652 H 0.27504 0.96357 0.48319 0.0
H653 H 0.26064 0.96402 0.46885 0.0
H654 H 0.28165 0.98523 0.44811 0.0
H655 H 0.29624 0.98452 0.4624 0.0
C656 C 0.25827 0.96872 0.42839 0.0
C657 C 0.24677 0.96748 0.43073 0.0
C658 C 0.26574 0.97164 0.43688 0.0
C659 C 0.26187 0.97343 0.4479 0.0
C660 C 0.25025 0.97295 0.45005 0.0
C661 C 0.24279 0.96999 0.44156 0.0
C662 C 0.27654 0.96848 0.47566 0.0
C663 C 0.28686 0.97388 0.47389 0.0
C664 C 0.26823 0.96881 0.46744 0.0
C665 C 0.27001 0.97459 0.45726 0.0
C666 C 0.28008 0.98054 0.45577 0.0
C667 C 0.28842 0.98019 0.46399 0.0
H668 H 0.30458 0.06862 0.6777 0.0
H669 H 0.29384 0.05587 0.71003 0.0
H670 H 0.2993 0.05105 0.66904 0.0
H671 H 0.28819 0.03834 0.70128 0.0
H672 H 0.29877 0.00466 0.68463 0.0
H673 H 0.29833 0.02276 0.6938 0.0
H674 H 0.28519 0.03807 0.66359 0.0
H675 H 0.28599 0.01991 0.65424 0.0
C676 C 0.30086 0.06215 0.68293 0.0
C677 C 0.2998 0.06359 0.69459 0.0
C678 C 0.29773 0.05208 0.67794 0.0
C679 C 0.2934 0.04321 0.68447 0.0
C680 C 0.29169 0.04492 0.69603 0.0
C681 C 0.29488 0.05499 0.70104 0.0
C682 C 0.2956 0.01183 0.67998 0.0
C683 C 0.2926 0.01086 0.66864 0.0
C684 C 0.29527 0.02224 0.68528 0.0
C685 C 0.29185 0.03194 0.6794 0.0
C686 C 0.28809 0.03082 0.66829 0.0
C687 C 0.28848 0.02039 0.66296 0.0
H688 H 0.98204 0.21797 0.06566 0.0
H689 H 0.96514 0.18626 0.06161 0.0
H690 H 0.96393 0.22768 0.06553 0.0
H691 H 0.94708 0.19595 0.06163 0.0
H692 H 0.91681 0.21772 0.05321 0.0
H693 H 0.93532 0.20913 0.05096 0.0
H694 H 0.94773 0.22892 0.07843 0.0
H695 H 0.92927 0.23763 0.08061 0.0
C696 C 0.97448 0.21308 0.06463 0.0
C697 C 0.97503 0.20133 0.0637 0.0
C698 C 0.9641 0.21864 0.06464 0.0
C699 C 0.95406 0.21258 0.06365 0.0
C700 C 0.95466 0.20088 0.06231 0.0
C701 C 0.96502 0.19532 0.06235 0.0
C702 C 0.9235 0.22029 0.05874 0.0
C703 C 0.92154 0.22833 0.06712 0.0
C704 C 0.93409 0.21533 0.05747 0.0
C705 C 0.94299 0.21833 0.06453 0.0
C706 C 0.94109 0.22653 0.07277 0.0
C707 C 0.93048 0.23146 0.07407 0.0
H708 H 0.4666 0.29985 0.98018 0.0
H709 H 0.48932 0.27659 0.96391 0.0
H710 H 0.45331 0.28461 0.98352 0.0
H711 H 0.47603 0.26148 0.96709 0.0
H712 H 0.4534 0.23445 0.97934 0.0
H713 H 0.46679 0.24971 0.98106 0.0
H714 H 0.44103 0.27352 0.97149 0.0
H715 H 0.42757 0.25828 0.96996 0.0
C716 C 0.46882 0.29147 0.97744 0.0
C717 C 0.47898 0.28945 0.9717 0.0
C718 C 0.46118 0.28276 0.9793 0.0
C719 C 0.46358 0.27184 0.97552 0.0
C720 C 0.47396 0.26976 0.97023 0.0
C721 C 0.48156 0.27845 0.96834 0.0
C722 C 0.45053 0.24296 0.97779 0.0
C723 C 0.43944 0.24512 0.97437 0.0
C724 C 0.45823 0.2517 0.97872 0.0
C725 C 0.45503 0.26282 0.97626 0.0
C726 C 0.44376 0.26506 0.97351 0.0
C727 C 0.43605 0.25631 0.97258 0.0
H728 H 0.96432 0.23917 0.20618 0.0
H729 H 0.94755 0.20968 0.19385 0.0
H730 H 0.98092 0.22781 0.21038 0.0
H731 H 0.96415 0.19845 0.19773 0.0
H732 H 0.99354 0.17873 0.20953 0.0
H733 H 0.97667 0.19033 0.21126 0.0
H734 H 0.99521 0.21906 0.1991 0.0
H735 H 0.01206 0.20759 0.1977 0.0
C736 C 0.96413 0.23025 0.20447 0.0
C737 C 0.95465 0.22536 0.19955 0.0
C738 C 0.97366 0.22375 0.20683 0.0
C739 C 0.97393 0.21223 0.20431 0.0
C740 C 0.96423 0.20726 0.19992 0.0
C741 C 0.95471 0.21374 0.19759 0.0
C742 C 0.99406 0.18757 0.20744 0.0
C743 C 0.00412 0.1922 0.20333 0.0
C744 C 0.98437 0.19421 0.20837 0.0
C745 C 0.98453 0.2056 0.20518 0.0
C746 C 0.99477 0.21035 0.20173 0.0
C747 C 0.00445 0.20374 0.20084 0.0
H748 H 0.06886 0.7134 0.40099 0.0
H749 H 0.06586 0.74365 0.42064 0.0
H750 H 0.04846 0.71257 0.39951 0.0
H751 H 0.04548 0.74272 0.41927 0.0
H752 H 0.01009 0.74387 0.40466 0.0
H753 H 0.03051 0.74476 0.40539 0.0
H754 H 0.03205 0.70901 0.41154 0.0
H755 H 0.01162 0.70808 0.41065 0.0
C756 C 0.06386 0.71987 0.405 0.0
C757 C 0.069 0.72859 0.41094 0.0
C758 C 0.05216 0.71936 0.4042 0.0
C759 C 0.04534 0.72757 0.40928 0.0
C760 C 0.05049 0.73633 0.41515 0.0
C761 C 0.06218 0.73683 0.41599 0.0
C762 C 0.01478 0.73619 0.40614 0.0
C763 C 0.00922 0.7259 0.40762 0.0
C764 C 0.02648 0.73671 0.40662 0.0
C765 C 0.03291 0.72696 0.40856 0.0
C766 C 0.02735 0.71666 0.40992 0.0
C767 C 0.01564 0.71614 0.40947 0.0
H768 H 0.52682 0.73957 0.53453 0.0
H769 H 0.56046 0.74958 0.52532 0.0
H770 H 0.52078 0.75904 0.53408 0.0
H771 H 0.5543 0.76913 0.52448 0.0
H772 H 0.54335 0.80136 0.54333 0.0
H773 H 0.54951 0.78258 0.53841 0.0
H774 H 0.51702 0.77594 0.524 0.0
H775 H 0.5107 0.79471 0.5293 0.0
C776 C 0.53288 0.7459 0.53214 0.0
C777 C 0.54417 0.74303 0.53014 0.0
C778 C 0.52938 0.75711 0.5318 0.0
C779 C 0.53708 0.76571 0.52937 0.0
C780 C 0.54821 0.76274 0.52661 0.0
C781 C 0.55173 0.75153 0.52703 0.0
C782 C 0.53755 0.79596 0.53898 0.0
C783 C 0.52648 0.79948 0.53686 0.0
C784 C 0.54112 0.78519 0.53606 0.0
C785 C 0.53374 0.77767 0.53087 0.0
C786 C 0.52286 0.78143 0.52817 0.0
C787 C 0.51925 0.79221 0.53116 0.0
H788 H 0.01728 0.67343 0.29034 0.0
H789 H 0.00893 0.70842 0.29512 0.0
H790 H 0.03703 0.67835 0.28814 0.0
H791 H 0.0286 0.71328 0.29329 0.0
H792 H 0.06437 0.72089 0.28715 0.0
H793 H 0.04548 0.71475 0.28243 0.0
H794 H 0.05085 0.68413 0.30136 0.0
H795 H 0.06975 0.69009 0.30575 0.0
C796 C 0.01962 0.68218 0.29075 0.0
C797 C 0.01155 0.69051 0.29307 0.0
C798 C 0.03096 0.685 0.28955 0.0
C799 C 0.03445 0.6962 0.2907 0.0
C800 C 0.02625 0.70459 0.29225 0.0
C801 C 0.01493 0.70178 0.2934 0.0
C802 C 0.06159 0.71274 0.29009 0.0
C803 C 0.06851 0.70605 0.29696 0.0
C804 C 0.05074 0.70925 0.28744 0.0
C805 C 0.04657 0.69901 0.29163 0.0
C806 C 0.05378 0.69202 0.29788 0.0
C807 C 0.06463 0.69548 0.30049 0.0
H808 H 0.49275 0.25161 0.869 0.0
H809 H 0.45798 0.2542 0.85911 0.0
H810 H 0.49435 0.27197 0.8682 0.0
H811 H 0.45964 0.27458 0.85813 0.0
H812 H 0.4637 0.31102 0.86965 0.0
H813 H 0.46203 0.29065 0.87048 0.0
H814 H 0.49453 0.28727 0.85452 0.0
H815 H 0.49629 0.30764 0.85386 0.0
C816 C 0.48545 0.25651 0.86662 0.0
C817 C 0.47523 0.25127 0.86412 0.0
C818 C 0.48639 0.26819 0.8661 0.0
C819 C 0.47713 0.2749 0.86309 0.0
C820 C 0.4669 0.26966 0.86061 0.0
C821 C 0.46596 0.25797 0.86111 0.0
C822 C 0.47049 0.30594 0.86632 0.0
C823 C 0.48013 0.31096 0.8617 0.0
C824 C 0.4695 0.29426 0.86674 0.0
C825 C 0.47814 0.28733 0.86256 0.0
C826 C 0.48778 0.29236 0.85794 0.0
C827 C 0.48877 0.30404 0.8575 0.0
H828 H 0.54105 0.54828 0.75486 0.0
H829 H 0.53194 0.58177 0.76544 0.0
H830 H 0.53505 0.54087 0.77292 0.0
H831 H 0.52561 0.57427 0.78349 0.0
H832 H 0.53492 0.55866 0.81822 0.0
H833 H 0.53533 0.56693 0.79956 0.0
H834 H 0.52028 0.53699 0.78611 0.0
H835 H 0.52019 0.52855 0.80482 0.0
C836 C 0.53754 0.55405 0.76096 0.0
C837 C 0.53714 0.56565 0.75876 0.0
C838 C 0.534 0.54977 0.77131 0.0
C839 C 0.52993 0.55698 0.77972 0.0
C840 C 0.52889 0.56851 0.77727 0.0
C841 C 0.53247 0.5728 0.7669 0.0
C842 C 0.53153 0.55389 0.81133 0.0
C843 C 0.52769 0.54287 0.81299 0.0
C844 C 0.53168 0.55868 0.8006 0.0
C845 C 0.52794 0.55259 0.79128 0.0
C846 C 0.52342 0.54184 0.79307 0.0
C847 C 0.52331 0.53702 0.80381 0.0
H848 H 0.67955 0.31049 0.0731 0.0
H849 H 0.70485 0.28643 0.06291 0.0
H850 H 0.66917 0.30696 0.05605 0.0
H851 H 0.69422 0.28259 0.04592 0.0
H852 H 0.68195 0.29416 0.01064 0.0
H853 H 0.69081 0.29265 0.02887 0.0
H854 H 0.65826 0.29455 0.045 0.0
H855 H 0.64939 0.29645 0.02667 0.0
C856 C 0.68279 0.30427 0.06733 0.0
C857 C 0.69311 0.29886 0.06931 0.0
C858 C 0.67677 0.30216 0.05756 0.0
C859 C 0.68087 0.29453 0.04954 0.0
C860 C 0.6909 0.28866 0.05182 0.0
C861 C 0.69697 0.29081 0.06159 0.0
C862 C 0.67665 0.29407 0.01805 0.0
C863 C 0.66497 0.29562 0.01719 0.0
C864 C 0.68174 0.29312 0.02854 0.0
C865 C 0.67527 0.29362 0.03844 0.0
C866 C 0.66351 0.29438 0.03755 0.0
C867 C 0.65842 0.2954 0.02704 0.0
H868 H 0.96591 0.43516 0.26825 0.0
H869 H 0.95922 0.46049 0.24301 0.0
H870 H 0.97302 0.44946 0.28072 0.0
H871 H 0.96669 0.47484 0.25541 0.0
H872 H 0.96637 0.49776 0.28679 0.0
H873 H 0.96153 0.4843 0.27236 0.0
H874 H 0.98803 0.46221 0.28388 0.0
H875 H 0.99263 0.47553 0.29856 0.0
C876 C 0.96607 0.44378 0.26531 0.0
C877 C 0.96194 0.44669 0.25466 0.0
C878 C 0.97025 0.45199 0.27244 0.0
C879 C 0.97048 0.46333 0.26908 0.0
C880 C 0.96652 0.46621 0.25833 0.0
C881 C 0.96228 0.45799 0.2512 0.0
C882 C 0.97128 0.49011 0.28615 0.0
C883 C 0.9798 0.48766 0.29392 0.0
C884 C 0.96853 0.48239 0.27783 0.0
C885 C 0.97429 0.47209 0.27703 0.0
C886 C 0.98325 0.46995 0.28441 0.0
C887 C 0.98594 0.47763 0.29278 0.0
H888 H 0.82738 0.64338 0.55095 0.0
H889 H 0.82443 0.63791 0.51527 0.0
H890 H 0.80743 0.64795 0.55199 0.0
H891 H 0.80451 0.64266 0.5163 0.0
H892 H 0.76688 0.64149 0.52443 0.0
H893 H 0.78659 0.63579 0.52382 0.0
H894 H 0.79495 0.66311 0.54585 0.0
H895 H 0.77526 0.66872 0.54661 0.0
C896 C 0.82248 0.64314 0.54333 0.0
C897 C 0.82752 0.64031 0.53302 0.0
C898 C 0.81105 0.64582 0.54392 0.0
C899 C 0.80439 0.64572 0.53422 0.0
C900 C 0.80938 0.6427 0.52394 0.0
C901 C 0.82082 0.64004 0.52335 0.0
C902 C 0.77292 0.64626 0.52917 0.0
C903 C 0.76949 0.65557 0.53556 0.0
C904 C 0.78422 0.64303 0.52877 0.0
C905 C 0.79234 0.649 0.53479 0.0
C906 C 0.78889 0.65825 0.54124 0.0
C907 C 0.77761 0.6615 0.54161 0.0
H908 H 0.74501 0.53637 0.55023 0.0
H909 H 0.74192 0.54953 0.5165 0.0
H910 H 0.76228 0.52666 0.54482 0.0
H911 H 0.7593 0.54019 0.51121 0.0
H912 H 0.78953 0.52034 0.50238 0.0
H913 H 0.77001 0.52355 0.50787 0.0
H914 H 0.78082 0.53307 0.54103 0.0
H915 H 0.80017 0.52952 0.53569 0.0
C916 C 0.74794 0.53708 0.54163 0.0
C917 C 0.74218 0.54386 0.53384 0.0
C918 C 0.75787 0.53156 0.53854 0.0
C919 C 0.76229 0.53276 0.52762 0.0
C920 C 0.75613 0.53897 0.51966 0.0
C921 C 0.74617 0.54442 0.52273 0.0
C922 C 0.78771 0.52289 0.51091 0.0
C923 C 0.79643 0.52483 0.51854 0.0
C924 C 0.77652 0.52479 0.51404 0.0
C925 C 0.77383 0.52872 0.52485 0.0
C926 C 0.78252 0.52995 0.53267 0.0
C927 C 0.79367 0.52799 0.52957 0.0
H928 H 0.65185 0.54698 0.76636 0.0
H929 H 0.65138 0.5108 0.76403 0.0
H930 H 0.64746 0.54565 0.78632 0.0
H931 H 0.6468 0.50949 0.78397 0.0
H932 H 0.65226 0.51183 0.82218 0.0
H933 H 0.65577 0.51275 0.80202 0.0
H934 H 0.63231 0.5404 0.79916 0.0
H935 H 0.62893 0.53961 0.81935 0.0
C936 C 0.65074 0.53874 0.77008 0.0
C937 C 0.652 0.529 0.7636 0.0
C938 C 0.64815 0.53798 0.78152 0.0
C939 C 0.64678 0.52746 0.78675 0.0
C940 C 0.64794 0.51772 0.78024 0.0
C941 C 0.65051 0.51848 0.76879 0.0
C942 C 0.64781 0.51808 0.81725 0.0
C943 C 0.64035 0.52567 0.82239 0.0
C944 C 0.64978 0.51856 0.80568 0.0
C945 C 0.64435 0.52667 0.79898 0.0
C946 C 0.63675 0.53416 0.8041 0.0
C947 C 0.63477 0.53366 0.81567 0.0
H948 H 0.70473 0.39595 0.01491 0.0
H949 H 0.73797 0.40941 0.00962 0.0
H950 H 0.70782 0.3959 0.03514 0.0
H951 H 0.74111 0.40919 0.0298 0.0
H952 H 0.73702 0.42005 0.06649 0.0
H953 H 0.73433 0.41929 0.04627 0.0
H954 H 0.719 0.38668 0.04982 0.0
H955 H 0.72153 0.3875 0.07011 0.0
C956 C 0.71272 0.39883 0.01805 0.0
C957 C 0.72108 0.40273 0.01065 0.0
C958 C 0.71452 0.39874 0.02965 0.0
C959 C 0.7247 0.40258 0.03409 0.0
C960 C 0.73311 0.40633 0.02666 0.0
C961 C 0.73133 0.4064 0.01508 0.0
C962 C 0.7331 0.4127 0.06297 0.0
C963 C 0.72947 0.40385 0.06993 0.0
C964 C 0.73162 0.41223 0.05136 0.0
C965 C 0.72646 0.40292 0.04643 0.0
C966 C 0.72289 0.39403 0.05337 0.0
C967 C 0.7244 0.39448 0.065 0.0
H968 H 0.85216 0.47204 0.33045 0.0
H969 H 0.83928 0.50326 0.3169 0.0
H970 H 0.8509 0.46354 0.31191 0.0
H971 H 0.83816 0.4948 0.2984 0.0
H972 H 0.83049 0.4745 0.26761 0.0
H973 H 0.82881 0.4805 0.28708 0.0
H974 H 0.8614 0.4661 0.29415 0.0
H975 H 0.86304 0.45997 0.27473 0.0
C976 C 0.84891 0.47704 0.32357 0.0
C977 C 0.8459 0.48836 0.32514 0.0
C978 C 0.84827 0.47219 0.31293 0.0
C979 C 0.84452 0.47852 0.30367 0.0
C980 C 0.84099 0.48966 0.30537 0.0
C981 C 0.84169 0.49453 0.31598 0.0
C982 C 0.83725 0.4725 0.27334 0.0
C983 C 0.84694 0.46683 0.26959 0.0
C984 C 0.8363 0.47599 0.28449 0.0
C985 C 0.84499 0.47383 0.29215 0.0
C986 C 0.8545 0.4678 0.28849 0.0
C987 C 0.85547 0.46434 0.27733 0.0
H988 H 0.52981 0.75349 0.64639 0.0
H989 H 0.53555 0.75244 0.68216 0.0
H990 H 0.52518 0.77332 0.64754 0.0
H991 H 0.53064 0.77235 0.68336 0.0
H992 H 0.53493 0.81062 0.67786 0.0
H993 H 0.53833 0.79042 0.67781 0.0
H994 H 0.51115 0.78621 0.65439 0.0
H995 H 0.50792 0.80642 0.65423 0.0
C996 C 0.52998 0.75746 0.65453 0.0
C997 C 0.53308 0.75137 0.66418 0.0
C998 C 0.52724 0.76884 0.6552 0.0
C999 C 0.52752 0.77444 0.66554 0.0
C1000 C 0.53047 0.76832 0.67524 0.0
C1001 C 0.53322 0.7569 0.67457 0.0
C1002 C 0.52965 0.80538 0.67273 0.0
C1003 C 0.52121 0.81014 0.66598 0.0
C1004 C 0.53155 0.79378 0.67276 0.0
C1005 C 0.52504 0.78669 0.66606 0.0
C1006 C 0.51644 0.79145 0.65951 0.0
C1007 C 0.51455 0.80303 0.65945 0.0
H1008 H 0.15794 0.04283 0.16337 0.0
H1009 H 0.15099 0.01146 0.14685 0.0
H1010 H 0.13811 0.04481 0.16817 0.0
H1011 H 0.13128 0.01325 0.15194 0.0
H1012 H 0.09512 0.02048 0.1587 0.0
H1013 H 0.11363 0.02282 0.15014 0.0
H1014 H 0.12622 0.03555 0.18151 0.0
H1015 H 0.10773 0.03354 0.18992 0.0
C1016 C 0.15217 0.03642 0.16065 0.0
C1017 C 0.15608 0.02691 0.15486 0.0
C1018 C 0.14081 0.03752 0.16345 0.0
C1019 C 0.13311 0.02912 0.16059 0.0
C1020 C 0.13693 0.01995 0.15421 0.0
C1021 C 0.14827 0.01888 0.15134 0.0
C1022 C 0.1018 0.02395 0.1637 0.0
C1023 C 0.09997 0.02671 0.17503 0.0
C1024 C 0.11242 0.02524 0.15881 0.0
C1025 C 0.12145 0.02928 0.16515 0.0
C1026 C 0.11946 0.03255 0.17631 0.0
C1027 C 0.10884 0.03131 0.18118 0.0
H1028 H 0.23626 0.85372 0.41452 0.0
H1029 H 0.2169 0.86432 0.4434 0.0
H1030 H 0.23229 0.8716 0.40528 0.0
H1031 H 0.21315 0.88228 0.43426 0.0
H1032 H 0.2037 0.91231 0.41311 0.0
H1033 H 0.20423 0.89263 0.419 0.0
H1034 H 0.23895 0.8904 0.40849 0.0
H1035 H 0.23837 0.90988 0.40243 0.0
C1036 C 0.23105 0.85981 0.41886 0.0
C1037 C 0.22702 0.85764 0.42977 0.0
C1038 C 0.22882 0.87008 0.41357 0.0
C1039 C 0.22253 0.87843 0.41909 0.0
C1040 C 0.21796 0.87601 0.42973 0.0
C1041 C 0.22017 0.86572 0.43501 0.0
C1042 C 0.21139 0.90756 0.41189 0.0
C1043 C 0.22102 0.9127 0.40738 0.0
C1044 C 0.21171 0.8963 0.41533 0.0
C1045 C 0.22164 0.88995 0.41427 0.0
C1046 C 0.23111 0.89498 0.40931 0.0
C1047 C 0.2308 0.9062 0.4059 0.0
H1048 H 0.33064 0.94972 0.6568 0.0
H1049 H 0.34012 0.98197 0.64303 0.0
H1050 H 0.34981 0.94697 0.66366 0.0
H1051 H 0.35905 0.97931 0.64997 0.0
H1052 H 0.39389 0.97119 0.65869 0.0
H1053 H 0.3764 0.9687 0.64855 0.0
H1054 H 0.36073 0.95571 0.6787 0.0
H1055 H 0.37829 0.95796 0.68879 0.0
C1056 C 0.33684 0.95613 0.65508 0.0
C1057 C 0.33384 0.96611 0.64946 0.0
C1058 C 0.34779 0.95458 0.65906 0.0
C1059 C 0.35595 0.96293 0.6574 0.0
C1060 C 0.35304 0.97263 0.65128 0.0
C1061 C 0.34213 0.97421 0.64738 0.0
C1062 C 0.38678 0.96759 0.66311 0.0
C1063 C 0.38743 0.96496 0.67461 0.0
C1064 C 0.37675 0.9662 0.6573 0.0
C1065 C 0.36712 0.96219 0.66286 0.0
C1066 C 0.368 0.95877 0.67414 0.0
C1067 C 0.37806 0.96012 0.67995 0.0
H1068 H 0.25413 0.126 0.87759 0.0
H1069 H 0.27494 0.10729 0.90065 0.0
H1070 H 0.25608 0.1427 0.88909 0.0
H1071 H 0.27737 0.12406 0.91196 0.0
H1072 H 0.26941 0.15261 0.93611 0.0
H1073 H 0.26825 0.13596 0.92451 0.0
H1074 H 0.26809 0.15689 0.8947 0.0
H1075 H 0.26863 0.17356 0.90641 0.0
C1076 C 0.2592 0.12551 0.8851 0.0
C1077 C 0.26422 0.11533 0.88835 0.0
C1078 C 0.26041 0.1351 0.89166 0.0
C1079 C 0.26689 0.1348 0.90151 0.0
C1080 C 0.2721 0.1246 0.9046 0.0
C1081 C 0.27071 0.11496 0.89813 0.0
C1082 C 0.2692 0.15364 0.92707 0.0
C1083 C 0.26906 0.1644 0.92218 0.0
C1084 C 0.2686 0.14407 0.92038 0.0
C1085 C 0.26802 0.14501 0.90861 0.0
C1086 C 0.26825 0.1558 0.90373 0.0
C1087 C 0.26866 0.16538 0.91043 0.0
H1088 H 0.12037 0.87091 0.25958 0.0
H1089 H 0.10103 0.89985 0.26989 0.0
H1090 H 0.13755 0.88198 0.26043 0.0
H1091 H 0.11809 0.91104 0.27028 0.0
H1092 H 0.152 0.925 0.28042 0.0
H1093 H 0.13544 0.91306 0.28081 0.0
H1094 H 0.14639 0.89735 0.25003 0.0
H1095 H 0.16303 0.90913 0.24971 0.0
C1096 C 0.11979 0.87966 0.26196 0.0
C1097 C 0.10932 0.8846 0.26438 0.0
C1098 C 0.12961 0.88601 0.26237 0.0
C1099 C 0.12918 0.89742 0.26533 0.0
C1100 C 0.11872 0.90227 0.268 0.0
C1101 C 0.10891 0.89592 0.26756 0.0
C1102 C 0.15092 0.91895 0.27377 0.0
C1103 C 0.15884 0.91806 0.26501 0.0
C1104 C 0.14139 0.91215 0.27396 0.0
C1105 C 0.13956 0.90429 0.26542 0.0
C1106 C 0.1476 0.90324 0.2568 0.0
C1107 C 0.15712 0.91004 0.25659 0.0
H1108 H 0.33991 0.94079 0.522 0.0
H1109 H 0.34336 0.93917 0.48591 0.0
H1110 H 0.34893 0.92245 0.52372 0.0
H1111 H 0.35211 0.92075 0.48763 0.0
H1112 H 0.34704 0.88381 0.51953 0.0
H1113 H 0.34268 0.90373 0.51958 0.0
H1114 H 0.36785 0.90937 0.49392 0.0
H1115 H 0.37207 0.88929 0.49369 0.0
C1116 C 0.3427 0.93659 0.51444 0.0
C1117 C 0.34078 0.9414 0.5038 0.0
C1118 C 0.34783 0.92605 0.51543 0.0
C1119 C 0.35111 0.92006 0.50581 0.0
C1120 C 0.34977 0.92516 0.49522 0.0
C1121 C 0.34468 0.93571 0.49423 0.0
C1122 C 0.35177 0.88929 0.514 0.0
C1123 C 0.35982 0.88492 0.50652 0.0
C1124 C 0.34932 0.90076 0.51409 0.0
C1125 C 0.35487 0.90816 0.50671 0.0
C1126 C 0.36331 0.90387 0.4996 0.0
C1127 C 0.36577 0.89237 0.49952 0.0
H1128 H 0.34971 0.10402 0.71278 0.0
H1129 H 0.34555 0.10702 0.74871 0.0
H1130 H 0.36847 0.11189 0.71413 0.0
H1131 H 0.36442 0.11477 0.75005 0.0
H1132 H 0.39441 0.13881 0.746 0.0
H1133 H 0.3753 0.13156 0.74473 0.0
H1134 H 0.38683 0.10629 0.72143 0.0
H1135 H 0.40577 0.11382 0.72238 0.0
C1136 C 0.35278 0.10637 0.72097 0.0
C1137 C 0.34612 0.10486 0.73064 0.0
C1138 C 0.36357 0.11082 0.72175 0.0
C1139 C 0.36796 0.11389 0.7322 0.0
C1140 C 0.36124 0.11256 0.74186 0.0
C1141 C 0.35044 0.10808 0.74109 0.0
C1142 C 0.39283 0.1317 0.74062 0.0
C1143 C 0.40163 0.12671 0.73449 0.0
C1144 C 0.38192 0.1275 0.73995 0.0
C1145 C 0.37956 0.11831 0.73302 0.0
C1146 C 0.38836 0.11341 0.72681 0.0
C1147 C 0.39927 0.11758 0.72752 0.0
H1148 H 0.19791 0.10882 0.03634 0.0
H1149 H 0.16681 0.095 0.02424 0.0
H1150 H 0.18932 0.12732 0.03703 0.0
H1151 H 0.15806 0.11353 0.02529 0.0
H1152 H 0.15388 0.14987 0.01157 0.0
H1153 H 0.15948 0.13046 0.01459 0.0
H1154 H 0.17602 0.13977 0.04533 0.0
H1155 H 0.17072 0.15931 0.04209 0.0
C1156 C 0.18915 0.10968 0.03406 0.0
C1157 C 0.18309 0.10044 0.0301 0.0
C1158 C 0.18419 0.12031 0.03453 0.0
C1159 C 0.17301 0.12196 0.03113 0.0
C1160 C 0.16675 0.1126 0.02777 0.0
C1161 C 0.17175 0.10196 0.02723 0.0
C1162 C 0.15857 0.14777 0.01907 0.0
C1163 C 0.16198 0.15617 0.02651 0.0
C1164 C 0.16173 0.13659 0.02084 0.0
C1165 C 0.1683 0.13353 0.03016 0.0
C1166 C 0.17115 0.14185 0.03795 0.0
C1167 C 0.16806 0.15305 0.03612 0.0
H1168 H 0.02559 0.14255 0.1514 0.0
H1169 H 0.04051 0.17464 0.15876 0.0
H1170 H 0.02672 0.14681 0.13139 0.0
H1171 H 0.04139 0.17898 0.13881 0.0
H1172 H 0.04578 0.18289 0.10166 0.0
H1173 H 0.04901 0.17497 0.12033 0.0
H1174 H 0.01623 0.15966 0.11967 0.0
H1175 H 0.01311 0.16732 0.10102 0.0
C1176 C 0.02925 0.15045 0.14876 0.0
C1177 C 0.03282 0.15832 0.1567 0.0
C1178 C 0.02985 0.1529 0.13728 0.0
C1179 C 0.034 0.16329 0.13349 0.0
C1180 C 0.03822 0.17086 0.14141 0.0
C1181 C 0.03765 0.16839 0.15288 0.0
C1182 C 0.03935 0.17767 0.10543 0.0
C1183 C 0.02914 0.17584 0.09989 0.0
C1184 C 0.04118 0.17319 0.11615 0.0
C1185 C 0.03285 0.16675 0.12154 0.0
C1186 C 0.02289 0.16447 0.11574 0.0
C1187 C 0.02105 0.16895 0.10505 0.0
H1188 H 0.49416 0.3524 0.93769 0.0
H1189 H 0.50907 0.32428 0.92025 0.0
H1190 H 0.49171 0.36225 0.91975 0.0
H1191 H 0.50638 0.33405 0.90236 0.0
H1192 H 0.48343 0.34973 0.87414 0.0
H1193 H 0.48743 0.34049 0.89199 0.0
H1194 H 0.50499 0.36993 0.90309 0.0
H1195 H 0.50164 0.37896 0.88486 0.0
C1196 C 0.49696 0.34836 0.93005 0.0
C1197 C 0.5018 0.33756 0.93037 0.0
C1198 C 0.49559 0.354 0.91981 0.0
C1199 C 0.49881 0.34886 0.90972 0.0
C1200 C 0.50377 0.33815 0.91004 0.0
C1201 C 0.50536 0.3326 0.92028 0.0
C1202 C 0.48855 0.35407 0.88015 0.0
C1203 C 0.49267 0.36487 0.87786 0.0
C1204 C 0.49067 0.34884 0.89046 0.0
C1205 C 0.49665 0.35445 0.89882 0.0
C1206 C 0.50041 0.36542 0.89674 0.0
C1207 C 0.49848 0.37056 0.88633 0.0
H1208 H 0.90075 0.23353 0.15185 0.0
H1209 H 0.90606 0.2694 0.15123 0.0
H1210 H 0.89035 0.23496 0.13436 0.0
H1211 H 0.89577 0.27077 0.13362 0.0
H1212 H 0.86716 0.26991 0.10782 0.0
H1213 H 0.87677 0.26865 0.12587 0.0
H1214 H 0.89435 0.23893 0.11458 0.0
H1215 H 0.88443 0.23998 0.09677 0.0
C1216 C 0.89968 0.24173 0.14801 0.0
C1217 C 0.90427 0.25135 0.15294 0.0
C1218 C 0.89377 0.24253 0.13794 0.0
C1219 C 0.89229 0.25296 0.13256 0.0
C1220 C 0.89668 0.26262 0.1376 0.0
C1221 C 0.90262 0.26182 0.14767 0.0
C1222 C 0.8731 0.26313 0.10922 0.0
C1223 C 0.87526 0.2552 0.10079 0.0
C1224 C 0.87865 0.26244 0.11951 0.0
C1225 C 0.88637 0.25373 0.12164 0.0
C1226 C 0.88842 0.24572 0.11323 0.0
C1227 C 0.8829 0.24644 0.10293 0.0
H1228 H 0.98841 0.67963 0.35239 0.0
H1229 H 0.95692 0.68534 0.33534 0.0
H1230 H 0.9808 0.68854 0.36915 0.0
H1231 H 0.94932 0.69426 0.35222 0.0
H1232 H 0.93738 0.69909 0.38934 0.0
H1233 H 0.9442 0.68951 0.37249 0.0
H1234 H 0.97496 0.70842 0.37388 0.0
H1235 H 0.96799 0.71826 0.39039 0.0
C1236 C 0.97983 0.68271 0.35223 0.0
C1237 C 0.97329 0.68181 0.3425 0.0
C1238 C 0.97551 0.68787 0.36182 0.0
C1239 C 0.96451 0.69216 0.36195 0.0
C1240 C 0.95782 0.69098 0.35236 0.0
C1241 C 0.96219 0.68591 0.34269 0.0
C1242 C 0.94559 0.7012 0.38602 0.0
C1243 C 0.95233 0.70914 0.39143 0.0
C1244 C 0.94948 0.69573 0.37638 0.0
C1245 C 0.96018 0.6981 0.372 0.0
C1246 C 0.9668 0.70622 0.37726 0.0
C1247 C 0.96287 0.71175 0.38682 0.0
H1248 H 0.51476 0.8496 0.58073 0.0
H1249 H 0.48201 0.8371 0.59012 0.0
H1250 H 0.51674 0.85785 0.59924 0.0
H1251 H 0.4839 0.84559 0.60858 0.0
H1252 H 0.49715 0.85015 0.6443 0.0
H1253 H 0.49463 0.84264 0.62552 0.0
H1254 H 0.50961 0.87252 0.61132 0.0
H1255 H 0.51263 0.87975 0.63017 0.0
C1256 C 0.50792 0.84873 0.58669 0.0
C1257 C 0.49825 0.84263 0.58394 0.0
C1258 C 0.50903 0.85351 0.5973 0.0
C1259 C 0.5005 0.85234 0.60542 0.0
C1260 C 0.49071 0.84649 0.60258 0.0
C1261 C 0.4896 0.84169 0.59197 0.0
C1262 C 0.50018 0.85497 0.6372 0.0
C1263 C 0.50542 0.86537 0.63874 0.0
C1264 C 0.49851 0.85079 0.6264 0.0
C1265 C 0.50197 0.85695 0.6169 0.0
C1266 C 0.50701 0.86747 0.61845 0.0
C1267 C 0.50868 0.87164 0.62925 0.0
H1268 H 0.64359 0.54636 0.68969 0.0
H1269 H 0.6541 0.55755 0.72235 0.0
H1270 H 0.62484 0.55405 0.69315 0.0
H1271 H 0.63526 0.56472 0.72607 0.0
H1272 H 0.60325 0.58518 0.72591 0.0
H1273 H 0.62216 0.57929 0.72058 0.0
H1274 H 0.60865 0.54979 0.70479 0.0
H1275 H 0.58974 0.55579 0.70988 0.0
C1276 C 0.64186 0.5504 0.69764 0.0
C1277 C 0.65021 0.55105 0.70589 0.0
C1278 C 0.63111 0.55474 0.69966 0.0
C1279 C 0.62851 0.5599 0.70993 0.0
C1280 C 0.63698 0.56082 0.71805 0.0
C1281 C 0.64772 0.55649 0.71602 0.0
C1282 C 0.60429 0.5775 0.72119 0.0
C1283 C 0.59497 0.57093 0.71837 0.0
C1284 C 0.61515 0.57408 0.71821 0.0
C1285 C 0.61693 0.56401 0.71235 0.0
C1286 C 0.60758 0.55764 0.70921 0.0
C1287 C 0.59672 0.56106 0.71218 0.0
H1288 H 0.69829 0.38331 0.93709 0.0
H1289 H 0.68921 0.39721 0.96928 0.0
H1290 H 0.68691 0.36678 0.94119 0.0
H1291 H 0.67821 0.38053 0.97359 0.0
H1292 H 0.65173 0.35356 0.97441 0.0
H1293 H 0.6612 0.3706 0.96814 0.0
H1294 H 0.68795 0.35056 0.95385 0.0
H1295 H 0.67844 0.33354 0.95993 0.0
C1296 C 0.6939 0.3828 0.94507 0.0
C1297 C 0.6949 0.39141 0.953 0.0
C1298 C 0.68743 0.37332 0.94744 0.0
C1299 C 0.68172 0.3723 0.95775 0.0
C1300 C 0.68247 0.38107 0.96555 0.0
C1301 C 0.68897 0.39053 0.96319 0.0
C1302 C 0.65955 0.35277 0.96979 0.0
C1303 C 0.66436 0.34217 0.96774 0.0
C1304 C 0.66501 0.36255 0.96627 0.0
C1305 C 0.67538 0.36194 0.96059 0.0
C1306 C 0.67994 0.35133 0.95813 0.0
C1307 C 0.6745 0.34156 0.96167 0.0
H1308 H 0.88359 0.45812 0.19758 0.0
H1309 H 0.86744 0.44214 0.22595 0.0
H1310 H 0.9 0.44605 0.2001 0.0
H1311 H 0.884 0.43027 0.2287 0.0
H1312 H 0.90965 0.40209 0.22011 0.0
H1313 H 0.89343 0.41465 0.2188 0.0
H1314 H 0.91559 0.44272 0.21317 0.0
H1315 H 0.93176 0.43009 0.21411 0.0
C1316 C 0.8836 0.4521 0.20443 0.0
C1317 C 0.87429 0.45121 0.21168 0.0
C1318 C 0.89303 0.44525 0.20593 0.0
C1319 C 0.89334 0.43725 0.21465 0.0
C1320 C 0.88401 0.43634 0.2219 0.0
C1321 C 0.87459 0.44325 0.22043 0.0
C1322 C 0.91105 0.41095 0.21865 0.0
C1323 C 0.92199 0.41514 0.21741 0.0
C1324 C 0.90177 0.41816 0.21799 0.0
C1325 C 0.90323 0.42969 0.21594 0.0
C1326 C 0.91419 0.43387 0.21473 0.0
C1327 C 0.92347 0.42667 0.21545 0.0
H1328 H 0.85631 0.55968 0.52698 0.0
H1329 H 0.85591 0.56513 0.49108 0.0
H1330 H 0.86635 0.57725 0.52937 0.0
H1331 H 0.86598 0.58276 0.49353 0.0
H1332 H 0.89317 0.60898 0.50308 0.0
H1333 H 0.88469 0.5905 0.50026 0.0
H1334 H 0.86075 0.59744 0.52672 0.0
H1335 H 0.86931 0.61573 0.52962 0.0
C1336 C 0.85846 0.56455 0.51958 0.0
C1337 C 0.85524 0.56103 0.50884 0.0
C1338 C 0.86416 0.57465 0.52097 0.0
C1339 C 0.86684 0.58142 0.51165 0.0
C1340 C 0.86405 0.57769 0.50086 0.0
C1341 C 0.85825 0.56762 0.49947 0.0
C1342 C 0.88608 0.60653 0.50825 0.0
C1343 C 0.88173 0.61386 0.5164 0.0
C1344 C 0.88121 0.596 0.50662 0.0
C1345 C 0.87206 0.59255 0.51327 0.0
C1346 C 0.86783 0.59986 0.52151 0.0
C1347 C 0.87261 0.6104 0.52305 0.0
H1348 H 0.57902 0.51012 0.83664 0.0
H1349 H 0.56158 0.5167 0.86783 0.0
H1350 H 0.59691 0.51227 0.84601 0.0
H1351 H 0.57954 0.5184 0.87737 0.0
H1352 H 0.6131 0.53395 0.8875 0.0
H1353 H 0.59492 0.5308 0.87878 0.0
H1354 H 0.60949 0.50409 0.85895 0.0
H1355 H 0.62768 0.5075 0.8675 0.0
C1356 C 0.579 0.51185 0.84555 0.0
C1357 C 0.56886 0.51327 0.85147 0.0
C1358 C 0.58929 0.51303 0.85096 0.0
C1359 C 0.58972 0.51553 0.86247 0.0
C1360 C 0.57955 0.51668 0.86846 0.0
C1361 C 0.56924 0.51562 0.86301 0.0
C1362 C 0.61237 0.52741 0.88127 0.0
C1363 C 0.62183 0.52115 0.87797 0.0
C1364 C 0.60195 0.52554 0.87632 0.0
C1365 C 0.60071 0.51723 0.86808 0.0
C1366 C 0.61016 0.51075 0.86504 0.0
C1367 C 0.6206 0.51272 0.86991 0.0
H1368 H 0.73146 0.351 0.08485 0.0
H1369 H 0.72883 0.33548 0.11764 0.0
H1370 H 0.73356 0.36925 0.09353 0.0
H1371 H 0.73133 0.35376 0.12637 0.0
H1372 H 0.72314 0.3899 0.13737 0.0
H1373 H 0.7217 0.37119 0.12926 0.0
H1374 H 0.74633 0.38026 0.10404 0.0
H1375 H 0.7476 0.39895 0.11208 0.0
C1376 C 0.73145 0.35146 0.09392 0.0
C1377 C 0.72996 0.34177 0.10055 0.0
C1378 C 0.73273 0.36194 0.09892 0.0
C1379 C 0.73265 0.363 0.11066 0.0
C1380 C 0.73128 0.35328 0.1173 0.0
C1381 C 0.72991 0.34279 0.11229 0.0
C1382 C 0.72825 0.38784 0.13011 0.0
C1383 C 0.73526 0.39594 0.12516 0.0
C1384 C 0.72748 0.37712 0.12548 0.0
C1385 C 0.73382 0.37423 0.11591 0.0
C1386 C 0.74111 0.38227 0.11122 0.0
C1387 C 0.74181 0.393 0.1158 0.0
H1388 H 0.94334 0.53794 0.34575 0.0
H1389 H 0.95071 0.50247 0.34856 0.0
H1390 H 0.92567 0.53506 0.35579 0.0
H1391 H 0.933 0.49957 0.35828 0.0
H1392 H 0.88929 0.52076 0.35424 0.0
H1393 H 0.90837 0.52654 0.35009 0.0
H1394 H 0.92092 0.50243 0.37427 0.0
H1395 H 0.90175 0.49641 0.37823 0.0
C1396 C 0.94129 0.52956 0.34866 0.0
C1397 C 0.94836 0.5204 0.34619 0.0
C1398 C 0.93113 0.52791 0.35437 0.0
C1399 C 0.92783 0.51707 0.35771 0.0
C1400 C 0.93528 0.50805 0.35592 0.0
C1401 C 0.94543 0.5097 0.35025 0.0
C1402 C 0.89609 0.51681 0.35883 0.0
C1403 C 0.89399 0.50798 0.36643 0.0
C1404 C 0.90706 0.5202 0.35651 0.0
C1405 C 0.91621 0.51487 0.36176 0.0
C1406 C 0.91407 0.50657 0.36993 0.0
C1407 C 0.90307 0.50315 0.37224 0.0
H1408 H 0.70837 0.60146 0.54189 0.0
H1409 H 0.72532 0.60754 0.57322 0.0
H1410 H 0.70637 0.62158 0.53889 0.0
H1411 H 0.723 0.62769 0.5704 0.0
H1412 H 0.72852 0.66265 0.55549 0.0
H1413 H 0.73011 0.64253 0.55886 0.0
H1414 H 0.69682 0.63797 0.54544 0.0
H1415 H 0.69559 0.658 0.54138 0.0
C1416 C 0.71154 0.60708 0.54822 0.0
C1417 C 0.71704 0.60288 0.55778 0.0
C1418 C 0.71034 0.61864 0.54652 0.0
C1419 C 0.71455 0.62628 0.55439 0.0
C1420 C 0.71983 0.62206 0.56407 0.0
C1421 C 0.72109 0.6105 0.56573 0.0
C1422 C 0.7217 0.65732 0.55294 0.0
C1423 C 0.71212 0.66187 0.54779 0.0
C1424 C 0.72248 0.6458 0.55512 0.0
C1425 C 0.71362 0.63859 0.55235 0.0
C1426 C 0.7039 0.64322 0.54748 0.0
C1427 C 0.70316 0.65472 0.54524 0.0
H1428 H 0.56305 0.70819 0.63484 0.0
H1429 H 0.53598 0.68418 0.63482 0.0
H1430 H 0.56623 0.70494 0.61499 0.0
H1431 H 0.53936 0.68073 0.6149 0.0
H1432 H 0.57355 0.69484 0.58016 0.0
H1433 H 0.57217 0.69227 0.60043 0.0
H1434 H 0.53599 0.69168 0.59805 0.0
H1435 H 0.53737 0.69394 0.57779 0.0
C1436 C 0.55792 0.70204 0.63066 0.0
C1437 C 0.54917 0.69656 0.6364 0.0
C1438 C 0.5598 0.7001 0.61926 0.0
C1439 C 0.553 0.69261 0.61332 0.0
C1440 C 0.54464 0.68667 0.6192 0.0
C1441 C 0.54275 0.68861 0.63063 0.0
C1442 C 0.56531 0.69392 0.58393 0.0
C1443 C 0.55556 0.69477 0.57737 0.0
C1444 C 0.56452 0.69251 0.59556 0.0
C1445 C 0.55397 0.69194 0.60089 0.0
C1446 C 0.54426 0.692 0.59423 0.0
C1447 C 0.54505 0.69337 0.5826 0.0
H1448 H 0.11937 0.73199 0.34038 0.0
H1449 H 0.0861 0.73577 0.35459 0.0
H1450 H 0.12738 0.73287 0.35915 0.0
H1451 H 0.09404 0.73626 0.37331 0.0
H1452 H 0.11214 0.74779 0.40446 0.0
H1453 H 0.10468 0.74772 0.38547 0.0
H1454 H 0.12901 0.72231 0.37616 0.0
H1455 H 0.13655 0.72256 0.39517 0.0
C1456 C 0.11377 0.73296 0.34751 0.0
C1457 C 0.1021 0.73384 0.34598 0.0
C1458 C 0.11835 0.7334 0.35828 0.0
C1459 C 0.11137 0.73464 0.36777 0.0
C1460 C 0.0997 0.7355 0.3662 0.0
C1461 C 0.09514 0.73516 0.35545 0.0
C1462 C 0.11576 0.74207 0.39839 0.0
C1463 C 0.12473 0.73498 0.40134 0.0
C1464 C 0.11152 0.74205 0.38749 0.0
C1465 C 0.11616 0.73493 0.37928 0.0
C1466 C 0.1253 0.72799 0.38221 0.0
C1467 C 0.12959 0.72808 0.39311 0.0
H1468 H 0.46087 0.21134 0.8816 0.0
H1469 H 0.44691 0.17797 0.88193 0.0
H1470 H 0.44734 0.21712 0.89582 0.0
H1471 H 0.43371 0.18365 0.89669 0.0
H1472 H 0.42523 0.19701 0.93341 0.0
H1473 H 0.43614 0.19027 0.91734 0.0
H1474 H 0.42563 0.2192 0.89802 0.0
H1475 H 0.4146 0.22591 0.914 0.0
C1476 C 0.45471 0.20533 0.88441 0.0
C1477 C 0.45472 0.19431 0.88029 0.0
C1478 C 0.44704 0.2086 0.8927 0.0
C1479 C 0.4394 0.20086 0.89725 0.0
C1480 C 0.4395 0.18979 0.89329 0.0
C1481 C 0.44705 0.18656 0.88486 0.0
C1482 C 0.4251 0.20184 0.92568 0.0
C1483 C 0.4191 0.21202 0.925 0.0
C1484 C 0.43131 0.19796 0.91648 0.0
C1485 C 0.43178 0.20427 0.90649 0.0
C1486 C 0.42547 0.21423 0.90567 0.0
C1487 C 0.41911 0.21802 0.9148 0.0
H1488 H 0.06074 0.06014 0.21812 0.0
H1489 H 0.04383 0.052 0.18726 0.0
H1490 H 0.05236 0.07886 0.21765 0.0
H1491 H 0.03562 0.07077 0.18668 0.0
H1492 H 0.01544 0.10246 0.19357 0.0
H1493 H 0.02227 0.08325 0.19598 0.0
H1494 H 0.05449 0.09585 0.20639 0.0
H1495 H 0.04761 0.11502 0.20419 0.0
C1496 C 0.05519 0.06232 0.21126 0.0
C1497 C 0.05299 0.05459 0.2027 0.0
C1498 C 0.05044 0.07308 0.21096 0.0
C1499 C 0.04337 0.07634 0.2021 0.0
C1500 C 0.04094 0.0685 0.19369 0.0
C1501 C 0.04569 0.05775 0.19399 0.0
C1502 C 0.02395 0.10113 0.19646 0.0
C1503 C 0.03099 0.11027 0.19866 0.0
C1504 C 0.02788 0.09012 0.19778 0.0
C1505 C 0.03893 0.08801 0.20134 0.0
C1506 C 0.04588 0.09717 0.20377 0.0
C1507 C 0.04196 0.10817 0.20244 0.0
H1508 H 0.15763 0.77162 0.44457 0.0
H1509 H 0.18483 0.74886 0.43646 0.0
H1510 H 0.17114 0.78641 0.44824 0.0
H1511 H 0.19835 0.76358 0.44037 0.0
H1512 H 0.21845 0.79606 0.43656 0.0
H1513 H 0.20497 0.78126 0.43281 0.0
H1514 H 0.18537 0.79152 0.46165 0.0
H1515 H 0.19872 0.80649 0.46525 0.0
C1516 C 0.16649 0.76975 0.44361 0.0
C1517 C 0.17015 0.75906 0.44021 0.0
C1518 C 0.17424 0.77822 0.44578 0.0
C1519 C 0.18584 0.77619 0.44462 0.0
C1520 C 0.18948 0.76548 0.44121 0.0
C1521 C 0.18173 0.75702 0.43902 0.0
C1522 C 0.21127 0.79515 0.44211 0.0
C1523 C 0.20965 0.80246 0.4512 0.0
C1524 C 0.20357 0.78662 0.44 0.0
C1525 C 0.19408 0.7852 0.44693 0.0
C1526 C 0.1925 0.79248 0.45605 0.0
C1527 C 0.2002 0.80102 0.45816 0.0
H1528 H 0.49503 0.92568 0.67629 0.0
H1529 H 0.47364 0.89807 0.68599 0.0
H1530 H 0.48044 0.93894 0.68196 0.0
H1531 H 0.45893 0.9113 0.69136 0.0
H1532 H 0.43886 0.93797 0.70989 0.0
H1533 H 0.45415 0.92513 0.70517 0.0
H1534 H 0.4623 0.94553 0.67616 0.0
H1535 H 0.44723 0.95853 0.68107 0.0
C1536 C 0.4872 0.92244 0.67959 0.0
C1537 C 0.48549 0.91082 0.68068 0.0
C1538 C 0.4788 0.93004 0.68279 0.0
C1539 C 0.46849 0.9262 0.68711 0.0
C1540 C 0.46682 0.91457 0.68823 0.0
C1541 C 0.47523 0.90697 0.68508 0.0
C1542 C 0.44395 0.93974 0.70254 0.0
C1543 C 0.44182 0.94926 0.69585 0.0
C1544 C 0.45268 0.93234 0.69979 0.0
C1545 C 0.45944 0.93427 0.69026 0.0
C1546 C 0.45736 0.94387 0.68364 0.0
C1547 C 0.44867 0.95129 0.68642 0.0
H1548 H 0.35593 0.23749 0.94423 0.0
H1549 H 0.36673 0.20596 0.95879 0.0
H1550 H 0.33652 0.23115 0.94482 0.0
H1551 H 0.34738 0.19946 0.95903 0.0
H1552 H 0.31055 0.19522 0.96816 0.0
H1553 H 0.32975 0.20213 0.96815 0.0
H1554 H 0.32404 0.21836 0.93612 0.0
H1555 H 0.30472 0.21175 0.93633 0.0
C1556 C 0.35417 0.22918 0.9475 0.0
C1557 C 0.36288 0.22224 0.95147 0.0
C1558 C 0.34303 0.22551 0.94778 0.0
C1559 C 0.34034 0.21477 0.95196 0.0
C1560 C 0.34909 0.20784 0.95592 0.0
C1561 C 0.36021 0.21154 0.95572 0.0
C1562 C 0.31338 0.20029 0.96113 0.0
C1563 C 0.3061 0.20293 0.95225 0.0
C1564 C 0.32443 0.2042 0.96108 0.0
C1565 C 0.3285 0.21079 0.95211 0.0
C1566 C 0.32117 0.21345 0.94325 0.0
C1567 C 0.3101 0.20961 0.94334 0.0
H1568 H 0.0765 0.82937 0.29447 0.0
H1569 H 0.08757 0.81578 0.26271 0.0
H1570 H 0.07574 0.81047 0.30237 0.0
H1571 H 0.08659 0.79685 0.27056 0.0
H1572 H 0.09431 0.76561 0.29194 0.0
H1573 H 0.09568 0.78455 0.28417 0.0
H1574 H 0.06457 0.79359 0.3007 0.0
H1575 H 0.06331 0.77475 0.30865 0.0
C1576 C 0.07877 0.82235 0.28917 0.0
C1577 C 0.08208 0.82408 0.27795 0.0
C1578 C 0.07826 0.81151 0.29368 0.0
C1579 C 0.08105 0.80214 0.28709 0.0
C1580 C 0.0845 0.80389 0.2759 0.0
C1581 C 0.08501 0.81474 0.27139 0.0
C1582 C 0.08776 0.77164 0.29391 0.0
C1583 C 0.07871 0.76868 0.30093 0.0
C1584 C 0.08852 0.78248 0.28941 0.0
C1585 C 0.08025 0.7906 0.29183 0.0
C1586 C 0.07118 0.7876 0.2988 0.0
C1587 C 0.07041 0.77677 0.3033 0.0
H1588 H 0.41282 0.84194 0.49642 0.0
H1589 H 0.39571 0.83618 0.528 0.0
H1590 H 0.43071 0.83743 0.50525 0.0
H1591 H 0.41363 0.83189 0.53688 0.0
H1592 H 0.44633 0.81379 0.54615 0.0
H1593 H 0.42844 0.81773 0.53707 0.0
H1594 H 0.44357 0.84529 0.51885 0.0
H1595 H 0.46151 0.84122 0.52777 0.0
C1596 C 0.41287 0.83972 0.50525 0.0
C1597 C 0.40284 0.83942 0.5115 0.0
C1598 C 0.42314 0.83721 0.51033 0.0
C1599 C 0.42361 0.83432 0.52178 0.0
C1600 C 0.41356 0.83394 0.52801 0.0
C1601 C 0.40329 0.83646 0.52293 0.0
C1602 C 0.44585 0.82069 0.5402 0.0
C1603 C 0.45536 0.82719 0.53769 0.0
C1604 C 0.43557 0.82298 0.53504 0.0
C1605 C 0.43456 0.83183 0.52723 0.0
C1606 C 0.44408 0.83832 0.52471 0.0
C1607 C 0.45436 0.83603 0.52988 0.0
H1608 H 0.44801 0.17305 0.76689 0.0
H1609 H 0.44248 0.13866 0.77701 0.0
H1610 H 0.45506 0.17728 0.7855 0.0
H1611 H 0.4489 0.14297 0.79584 0.0
H1612 H 0.47206 0.15094 0.82481 0.0
H1613 H 0.46483 0.14672 0.80626 0.0
H1614 H 0.45034 0.18006 0.80422 0.0
H1615 H 0.45817 0.18442 0.82249 0.0
C1616 C 0.44816 0.16643 0.77316 0.0
C1617 C 0.44474 0.15552 0.77049 0.0
C1618 C 0.45213 0.16886 0.78388 0.0
C1619 C 0.45258 0.16048 0.79226 0.0
C1620 C 0.44893 0.1496 0.78959 0.0
C1621 C 0.44517 0.14713 0.7788 0.0
C1622 C 0.46732 0.15735 0.82038 0.0
C1623 C 0.46571 0.16802 0.82507 0.0
C1624 C 0.46309 0.15492 0.80976 0.0
C1625 C 0.45696 0.16303 0.80366 0.0
C1626 C 0.45521 0.17366 0.80851 0.0
C1627 C 0.45963 0.17615 0.81903 0.0
H1628 H 0.06743 0.21484 0.0561 0.0
H1629 H 0.05898 0.18372 0.03984 0.0
H1630 H 0.08573 0.21464 0.0468 0.0
H1631 H 0.07734 0.18341 0.03072 0.0
H1632 H 0.12186 0.20221 0.03974 0.0
H1633 H 0.10311 0.20387 0.04785 0.0
H1634 H 0.08874 0.19293 0.01659 0.0
H1635 H 0.10752 0.19106 0.00853 0.0
C1636 C 0.06946 0.20797 0.05052 0.0
C1637 C 0.06176 0.19928 0.04874 0.0
C1638 C 0.07997 0.20782 0.04524 0.0
C1639 C 0.08302 0.19899 0.03804 0.0
C1640 C 0.07522 0.19041 0.0361 0.0
C1641 C 0.06471 0.19055 0.04138 0.0
C1642 C 0.1147 0.20023 0.03457 0.0
C1643 C 0.1162 0.19646 0.0235 0.0
C1644 C 0.10394 0.20124 0.0392 0.0
C1645 C 0.09442 0.1985 0.03288 0.0
C1646 C 0.0959 0.19495 0.02174 0.0
C1647 C 0.10667 0.19395 0.0171 0.0
H1648 H 0.22269 0.05965 0.0664 0.0
H1649 H 0.19276 0.04326 0.05461 0.0
H1650 H 0.22076 0.05005 0.08444 0.0
H1651 H 0.19072 0.03383 0.07271 0.0
H1652 H 0.19578 0.01112 0.10313 0.0
H1653 H 0.19925 0.01959 0.08475 0.0
H1654 H 0.20828 0.05071 0.10068 0.0
H1655 H 0.20501 0.04219 0.11904 0.0
C1656 C 0.21571 0.05398 0.06764 0.0
C1657 C 0.20786 0.05225 0.05907 0.0
C1658 C 0.21457 0.04853 0.07801 0.0
C1659 C 0.20556 0.0412 0.08004 0.0
C1660 C 0.19783 0.03931 0.07138 0.0
C1661 C 0.19897 0.04477 0.06102 0.0
C1662 C 0.19858 0.01975 0.10271 0.0
C1663 C 0.20009 0.02599 0.11255 0.0
C1664 C 0.2005 0.02462 0.09217 0.0
C1665 C 0.20401 0.03584 0.09124 0.0
C1666 C 0.20572 0.04201 0.1011 0.0
C1667 C 0.20378 0.03714 0.11163 0.0
H1668 H 0.183 0.96423 0.31017 0.0
H1669 H 0.20761 0.9376 0.30714 0.0
H1670 H 0.18735 0.96592 0.33007 0.0
H1671 H 0.21182 0.93919 0.32706 0.0
H1672 H 0.22377 0.95179 0.36095 0.0
H1673 H 0.22023 0.95177 0.3408 0.0
H1674 H 0.18462 0.95487 0.34725 0.0
H1675 H 0.18816 0.95506 0.36737 0.0
C1676 C 0.18936 0.95876 0.31374 0.0
C1677 C 0.19494 0.95076 0.30707 0.0
C1678 C 0.1918 0.95969 0.32516 0.0
C1679 C 0.1999 0.95267 0.33017 0.0
C1680 C 0.20563 0.94482 0.32344 0.0
C1681 C 0.20316 0.94386 0.31203 0.0
C1682 C 0.21519 0.95254 0.35807 0.0
C1683 C 0.20625 0.9534 0.36577 0.0
C1684 C 0.21316 0.95247 0.34652 0.0
C1685 C 0.20214 0.95328 0.34241 0.0
C1686 C 0.19322 0.95436 0.35012 0.0
C1687 C 0.19525 0.9544 0.36166 0.0
H1688 H 0.29154 0.96272 0.54446 0.0
H1689 H 0.31898 0.98523 0.55116 0.0
H1690 H 0.28716 0.96189 0.56448 0.0
H1691 H 0.31472 0.98424 0.57116 0.0
H1692 H 0.29877 0.98719 0.60565 0.0
H1693 H 0.30088 0.98939 0.58539 0.0
H1694 H 0.29578 0.95379 0.58123 0.0
H1695 H 0.29347 0.95162 0.60147 0.0
C1696 C 0.29659 0.96755 0.55019 0.0
C1697 C 0.30564 0.97401 0.54622 0.0
C1698 C 0.29412 0.96701 0.56167 0.0
C1699 C 0.30062 0.97294 0.56942 0.0
C1700 C 0.30946 0.97966 0.56541 0.0
C1701 C 0.31194 0.98018 0.55394 0.0
C1702 C 0.29801 0.97984 0.60041 0.0
C1703 C 0.29599 0.96922 0.60518 0.0
C1704 C 0.29928 0.9811 0.5888 0.0
C1705 C 0.29854 0.97176 0.58169 0.0
C1706 C 0.29626 0.96118 0.58645 0.0
C1707 C 0.295 0.95992 0.59806 0.0
H1708 H 0.28807 0.10548 0.76958 0.0
H1709 H 0.30295 0.07301 0.77643 0.0
H1710 H 0.28026 0.10586 0.78855 0.0
H1711 H 0.29497 0.0733 0.7953 0.0
H1712 H 0.28934 0.08313 0.8319 0.0
H1713 H 0.29721 0.08312 0.81297 0.0
H1714 H 0.26607 0.09664 0.8001 0.0
H1715 H 0.25827 0.09686 0.81907 0.0
C1716 C 0.28963 0.0984 0.77511 0.0
C1717 C 0.29615 0.08922 0.7715 0.0
C1718 C 0.28511 0.0986 0.78596 0.0
C1719 C 0.287 0.08962 0.79345 0.0
C1720 C 0.29348 0.08042 0.78981 0.0
C1721 C 0.298 0.08022 0.77896 0.0
C1722 C 0.28418 0.08613 0.82504 0.0
C1723 C 0.27317 0.08999 0.82699 0.0
C1724 C 0.28867 0.08606 0.81418 0.0
C1725 C 0.28226 0.08984 0.80502 0.0
C1726 C 0.27128 0.09379 0.80699 0.0
C1727 C 0.26678 0.09386 0.81785 0.0
H1728 H 0.60818 0.30723 0.96351 0.0
H1729 H 0.60086 0.32261 0.99549 0.0
H1730 H 0.58818 0.30668 0.95938 0.0
H1731 H 0.58084 0.32177 0.99151 0.0
H1732 H 0.55127 0.29684 0.96046 0.0
H1733 H 0.57121 0.29733 0.96487 0.0
H1734 H 0.56679 0.33009 0.97969 0.0
H1735 H 0.5468 0.32945 0.97556 0.0
C1736 C 0.6023 0.31044 0.96969 0.0
C1737 C 0.60612 0.31498 0.97983 0.0
C1738 C 0.59082 0.31006 0.96736 0.0
C1739 C 0.58287 0.31416 0.97512 0.0
C1740 C 0.58672 0.31868 0.98527 0.0
C1741 C 0.5982 0.3191 0.98758 0.0
C1742 C 0.55455 0.30414 0.96468 0.0
C1743 C 0.54744 0.3131 0.96766 0.0
C1744 C 0.56601 0.30445 0.96715 0.0
C1745 C 0.57064 0.31376 0.97261 0.0
C1746 C 0.5635 0.32271 0.97562 0.0
C1747 C 0.55203 0.32238 0.97319 0.0
H1748 H 0.94806 0.29512 0.18366 0.0
H1749 H 0.91861 0.29405 0.20499 0.0
H1750 H 0.95081 0.31476 0.18851 0.0
H1751 H 0.92127 0.31375 0.20969 0.0
H1752 H 0.93667 0.34569 0.22443 0.0
H1753 H 0.93402 0.32595 0.21993 0.0
H1754 H 0.94191 0.33298 0.18516 0.0
H1755 H 0.94475 0.35269 0.18968 0.0
C1756 C 0.94217 0.29907 0.18938 0.0
C1757 C 0.93312 0.29302 0.19393 0.0
C1758 C 0.94371 0.31035 0.1921 0.0
C1759 C 0.93623 0.31584 0.19945 0.0
C1760 C 0.92724 0.30974 0.20409 0.0
C1761 C 0.92569 0.29846 0.20135 0.0
C1762 C 0.93783 0.34303 0.21582 0.0
C1763 C 0.94094 0.35077 0.20742 0.0
C1764 C 0.93625 0.33172 0.21324 0.0
C1765 C 0.93778 0.32788 0.20219 0.0
C1766 C 0.94083 0.33564 0.19378 0.0
C1767 C 0.94238 0.34695 0.19636 0.0
H1768 H 0.94108 0.69397 0.44691 0.0
H1769 H 0.9075 0.70764 0.4491 0.0
H1770 H 0.9367 0.68068 0.46188 0.0
H1771 H 0.90327 0.69486 0.46454 0.0
H1772 H 0.89523 0.66456 0.48586 0.0
H1773 H 0.89954 0.67651 0.46977 0.0
H1774 H 0.9339 0.6791 0.48104 0.0
H1775 H 0.92967 0.6666 0.49669 0.0
C1776 C 0.93278 0.69419 0.45068 0.0
C1777 C 0.92463 0.70183 0.44684 0.0
C1778 C 0.93028 0.68662 0.45933 0.0
C1779 C 0.91963 0.68667 0.46453 0.0
C1780 C 0.91149 0.69437 0.46065 0.0
C1781 C 0.91393 0.70178 0.45183 0.0
C1782 C 0.90371 0.66765 0.48483 0.0
C1783 C 0.91211 0.66465 0.49251 0.0
C1784 C 0.90619 0.67458 0.47565 0.0
C1785 C 0.91708 0.67888 0.47406 0.0
C1786 C 0.92547 0.67582 0.4818 0.0
C1787 C 0.92304 0.66869 0.49084 0.0
H1788 H 0.99208 0.56997 0.33424 0.0
H1789 H 0.97435 0.57196 0.30275 0.0
H1790 H 0.99544 0.59009 0.33342 0.0
H1791 H 0.97805 0.59204 0.30172 0.0
H1792 H 0.9758 0.62942 0.30966 0.0
H1793 H 0.97262 0.60926 0.31028 0.0
H1794 H 0.0059 0.60416 0.32374 0.0
H1795 H 0.00891 0.62436 0.32348 0.0
C1796 C 0.98899 0.57469 0.32708 0.0
C1797 C 0.98292 0.56937 0.31857 0.0
C1798 C 0.99098 0.58623 0.32658 0.0
C1799 C 0.98702 0.59272 0.3175 0.0
C1800 C 0.98106 0.58735 0.30892 0.0
C1801 C 0.979 0.57582 0.30947 0.0
C1802 C 0.98244 0.62399 0.31274 0.0
C1803 C 0.9926 0.6285 0.31654 0.0
C1804 C 0.98065 0.61241 0.31303 0.0
C1805 C 0.989 0.60505 0.31706 0.0
C1806 C 0.99921 0.60957 0.32076 0.0
C1807 C 0.00097 0.62116 0.32055 0.0
H1808 H 0.51838 0.41487 0.8377 0.0
H1809 H 0.48695 0.4308 0.84675 0.0
H1810 H 0.52664 0.43322 0.83415 0.0
H1811 H 0.49513 0.44914 0.84292 0.0
H1812 H 0.51675 0.48055 0.84586 0.0
H1813 H 0.50872 0.46219 0.84997 0.0
H1814 H 0.52559 0.44851 0.82086 0.0
H1815 H 0.53384 0.46678 0.81692 0.0
C1816 C 0.51322 0.42228 0.8389 0.0
C1817 C 0.50201 0.42137 0.8425 0.0
C1818 C 0.51794 0.43281 0.8368 0.0
C1819 C 0.51154 0.44267 0.8382 0.0
C1820 C 0.50034 0.44174 0.84189 0.0
C1821 C 0.49564 0.43121 0.84402 0.0
C1822 C 0.51874 0.47362 0.84033 0.0
C1823 C 0.52594 0.47513 0.83106 0.0
C1824 C 0.51409 0.4631 0.84266 0.0
C1825 C 0.51651 0.45386 0.83576 0.0
C1826 C 0.52368 0.4554 0.82646 0.0
C1827 C 0.52836 0.4659 0.82415 0.0
H1828 H 0.56212 0.62996 0.73322 0.0
H1829 H 0.54469 0.61151 0.70761 0.0
H1830 H 0.55688 0.64757 0.72404 0.0
H1831 H 0.53962 0.6291 0.69833 0.0
H1832 H 0.52347 0.66294 0.69044 0.0
H1833 H 0.52788 0.64575 0.70077 0.0
H1834 H 0.56136 0.65794 0.70687 0.0
H1835 H 0.55691 0.67521 0.69672 0.0
C1836 C 0.55717 0.62965 0.72563 0.0
C1837 C 0.55383 0.61932 0.72114 0.0
C1838 C 0.55422 0.63975 0.72034 0.0
C1839 C 0.54785 0.63974 0.71044 0.0
C1840 C 0.54441 0.62941 0.70602 0.0
C1841 C 0.54738 0.61932 0.7113 0.0
C1842 C 0.53176 0.66198 0.69404 0.0
C1843 C 0.53985 0.67044 0.69273 0.0
C1844 C 0.5343 0.6521 0.6999 0.0
C1845 C 0.54499 0.65044 0.70461 0.0
C1846 C 0.55301 0.65899 0.70346 0.0
C1847 C 0.55048 0.66887 0.69759 0.0
H1848 H 0.82167 0.29129 0.0693 0.0
H1849 H 0.8085 0.25843 0.07714 0.0
H1850 H 0.80268 0.29903 0.06956 0.0
H1851 H 0.78948 0.26616 0.07724 0.0
H1852 H 0.75847 0.28677 0.08814 0.0
H1853 H 0.77743 0.27889 0.08818 0.0
H1854 H 0.7855 0.29813 0.05839 0.0
H1855 H 0.76662 0.30614 0.05843 0.0
C1856 C 0.81473 0.28571 0.07108 0.0
C1857 C 0.8166 0.27424 0.07319 0.0
C1858 C 0.80384 0.29014 0.07115 0.0
C1859 C 0.79457 0.2832 0.07338 0.0
C1860 C 0.79645 0.27175 0.07561 0.0
C1861 C 0.80735 0.26731 0.0755 0.0
C1862 C 0.76428 0.2893 0.08158 0.0
C1863 C 0.76104 0.2971 0.07329 0.0
C1864 C 0.77513 0.28474 0.08158 0.0
C1865 C 0.78298 0.28791 0.07331 0.0
C1866 C 0.7797 0.29564 0.06497 0.0
C1867 C 0.76886 0.30018 0.06496 0.0
H1868 H 0.66235 0.7118 0.55456 0.0
H1869 H 0.66259 0.69976 0.52042 0.0
H1870 H 0.64201 0.71409 0.55375 0.0
H1871 H 0.64225 0.70218 0.51958 0.0
H1872 H 0.60539 0.69351 0.52904 0.0
H1873 H 0.62584 0.69295 0.52829 0.0
H1874 H 0.62709 0.72522 0.54454 0.0
H1875 H 0.60661 0.72575 0.54541 0.0
C1876 C 0.65808 0.70974 0.54685 0.0
C1877 C 0.66408 0.70555 0.53757 0.0
C1878 C 0.64643 0.71112 0.54636 0.0
C1879 C 0.64053 0.70829 0.53661 0.0
C1880 C 0.64656 0.70431 0.52725 0.0
C1881 C 0.65821 0.70298 0.52772 0.0
C1882 C 0.61002 0.70054 0.53237 0.0
C1883 C 0.60437 0.70965 0.53733 0.0
C1884 C 0.62174 0.70024 0.53188 0.0
C1885 C 0.62808 0.70903 0.53639 0.0
C1886 C 0.62243 0.71827 0.54112 0.0
C1887 C 0.6107 0.71859 0.54156 0.0
H1888 H 0.73308 0.56207 0.6117 0.0
H1889 H 0.7012 0.55277 0.59746 0.0
H1890 H 0.72605 0.55729 0.63038 0.0
H1891 H 0.69411 0.54818 0.61617 0.0
H1892 H 0.68926 0.53028 0.64996 0.0
H1893 H 0.69663 0.53449 0.63127 0.0
H1894 H 0.71247 0.56427 0.64408 0.0
H1895 H 0.70528 0.55997 0.6628 0.0
C1896 C 0.72457 0.55902 0.61255 0.0
C1897 C 0.71769 0.55781 0.60309 0.0
C1898 C 0.72052 0.55634 0.62327 0.0
C1899 C 0.70951 0.55238 0.62477 0.0
C1900 C 0.70267 0.55108 0.61529 0.0
C1901 C 0.70672 0.55377 0.60457 0.0
C1902 C 0.69432 0.53772 0.64879 0.0
C1903 C 0.69668 0.54479 0.65787 0.0
C1904 C 0.6985 0.54016 0.63807 0.0
C1905 C 0.70514 0.54972 0.63618 0.0
C1906 C 0.70751 0.55677 0.64528 0.0
C1907 C 0.70333 0.55433 0.656 0.0
H1908 H 0.6699 0.49307 0.89369 0.0
H1909 H 0.67002 0.50467 0.92794 0.0
H1910 H 0.6793 0.47581 0.89949 0.0
H1911 H 0.67998 0.48771 0.93371 0.0
H1912 H 0.68827 0.45168 0.94277 0.0
H1913 H 0.67815 0.46849 0.93685 0.0
H1914 H 0.69642 0.46833 0.90536 0.0
H1915 H 0.70605 0.45118 0.91109 0.0
C1916 C 0.67205 0.49196 0.90245 0.0
C1917 C 0.66921 0.50021 0.91036 0.0
C1918 C 0.67752 0.48209 0.90578 0.0
C1919 C 0.68046 0.48031 0.91709 0.0
C1920 C 0.67767 0.48864 0.92497 0.0
C1921 C 0.67202 0.49842 0.92167 0.0
C1922 C 0.69008 0.45524 0.93457 0.0
C1923 C 0.69793 0.45011 0.92739 0.0
C1924 C 0.68434 0.46494 0.93119 0.0
C1925 C 0.68645 0.46985 0.92062 0.0
C1926 C 0.69438 0.4647 0.91347 0.0
C1927 C 0.69997 0.4549 0.91678 0.0
H1928 H 0.77516 0.43876 0.14441 0.0
H1929 H 0.7602 0.43901 0.17752 0.0
H1930 H 0.79286 0.44509 0.15223 0.0
H1931 H 0.77772 0.44581 0.1853 0.0
H1932 H 0.81853 0.46859 0.16776 0.0
H1933 H 0.80136 0.46109 0.15984 0.0
H1934 H 0.79635 0.44095 0.18976 0.0
H1935 H 0.81326 0.44886 0.19785 0.0
C1936 C 0.77565 0.44022 0.15336 0.0
C1937 C 0.76629 0.43839 0.16035 0.0
C1938 C 0.78578 0.44392 0.15785 0.0
C1939 C 0.78676 0.44602 0.16941 0.0
C1940 C 0.77737 0.44411 0.17639 0.0
C1941 C 0.76729 0.44028 0.17192 0.0
C1942 C 0.81377 0.46253 0.17262 0.0
C1943 C 0.81722 0.45936 0.18344 0.0
C1944 C 0.80395 0.45816 0.16805 0.0
C1945 C 0.79741 0.45041 0.17415 0.0
C1946 C 0.80102 0.44707 0.1849 0.0
C1947 C 0.81077 0.45154 0.18951 0.0
H1948 H 0.85174 0.50878 0.46782 0.0
H1949 H 0.82296 0.52675 0.45482 0.0
H1950 H 0.85558 0.50128 0.44923 0.0
H1951 H 0.8266 0.51898 0.43626 0.0
H1952 H 0.84479 0.5138 0.40251 0.0
H1953 H 0.83978 0.52066 0.4211 0.0
H1954 H 0.84886 0.48848 0.43546 0.0
H1955 H 0.8542 0.48175 0.4169 0.0
C1956 C 0.84617 0.51104 0.46101 0.0
C1957 C 0.83707 0.51839 0.46279 0.0
C1958 C 0.84832 0.50668 0.45035 0.0
C1959 C 0.8414 0.50951 0.44122 0.0
C1960 C 0.8322 0.51675 0.44305 0.0
C1961 C 0.83008 0.52116 0.45371 0.0
C1962 C 0.84565 0.50817 0.40962 0.0
C1963 C 0.84995 0.49725 0.40823 0.0
C1964 C 0.84272 0.51208 0.42029 0.0
C1965 C 0.84396 0.50514 0.42981 0.0
C1966 C 0.84799 0.49412 0.42835 0.0
C1967 C 0.85098 0.49024 0.4177 0.0
loop_
_geom_bond_atom_site_label_1
_geom_bond_atom_site_label_2
_geom_bond_distance
_geom_bond_site_symmetry_2
_ccdc_geom_bond_type
O0 Cd1 2.300 . S
O0 C7 1.275 . S
Cd1 O0 2.300 . S
Cd1 O9 2.381 . S
Cd1 O10 2.378 . S
O2 Cd3 2.385 1_545 S
O2 C7 1.255 . S
Cd3 O2 2.385 1_565 S
Cd3 O4 2.317 . S
O4 Cd3 2.317 . S
O4 C5 1.232 . S
C5 O4 1.232 . S
C5 O6 1.218 . S
O6 C5 1.218 . S
C7 O0 1.275 . S
C7 O2 1.255 . S
C8 O9 1.258 . S
C8 O10 1.256 . S
O9 Cd1 2.381 . S
O9 C8 1.258 . S
O10 Cd1 2.378 . S
O10 C8 1.256 . S
O11 Cd12 2.300 . S
O11 C18 1.275 . S
Cd12 O11 2.300 . S
Cd12 O20 2.381 . S
Cd12 O21 2.378 . S
O13 Cd14 2.385 . S
O13 C18 1.255 . S
Cd14 O13 2.385 . S
Cd14 O15 2.317 . S
O15 Cd14 2.317 . S
O15 C16 1.232 . S
C16 O15 1.232 . S
C16 O17 1.218 . S
O17 C16 1.218 . S
C18 O11 1.275 . S
C18 O13 1.255 . S
C19 O20 1.258 . S
C19 O21 1.256 . S
O20 Cd12 2.381 . S
O20 C19 1.258 . S
O21 Cd12 2.378 . S
O21 C19 1.256 . S
O22 Cd23 2.300 . S
O22 C29 1.275 . S
Cd23 O22 2.300 . S
Cd23 O31 2.381 . S
Cd23 O32 2.378 . S
O24 Cd25 2.385 . S
O24 C29 1.255 . S
Cd25 O24 2.385 . S
Cd25 O26 2.317 . S
O26 Cd25 2.317 . S
O26 C27 1.232 1_565 S
C27 O26 1.232 1_545 S
C27 O28 1.218 . S
O28 C27 1.218 . S
C29 O22 1.275 . S
C29 O24 1.255 . S
C30 O31 1.258 . S
C30 O32 1.256 . S
O31 Cd23 2.381 . S
O31 C30 1.258 . S
O32 Cd23 2.378 . S
O32 C30 1.256 . S
O33 Cd34 2.300 . S
O33 C40 1.275 . S
Cd34 O33 2.300 . S
Cd34 O42 2.381 . S
Cd34 O43 2.378 . S
O35 Cd36 2.385 . S
O35 C40 1.255 . S
Cd36 O35 2.385 . S
Cd36 O37 2.317 . S
O37 Cd36 2.317 . S
O37 C38 1.232 . S
C38 O37 1.232 . S
C38 O39 1.218 . S
O39 C38 1.218 . S
C40 O33 1.275 . S
C40 O35 1.255 . S
C41 O42 1.258 . S
C41 O43 1.256 . S
O42 Cd34 2.381 . S
O42 C41 1.258 . S
O43 Cd34 2.378 . S
O43 C41 1.256 . S
O44 Cd45 2.300 . S
O44 C51 1.275 . S
Cd45 O44 2.300 . S
Cd45 O53 2.381 . S
Cd45 O54 2.378 . S
O46 Cd47 2.385 . S
O46 C51 1.255 . S
Cd47 O46 2.385 . S
Cd47 O48 2.317 . S
O48 Cd47 2.317 . S
O48 C49 1.232 . S
C49 O48 1.232 . S
C49 O50 1.218 . S
O50 C49 1.218 . S
C51 O44 1.275 . S
C51 O46 1.255 . S
C52 O53 1.258 . S
C52 O54 1.256 . S
O53 Cd45 2.381 . S
O53 C52 1.258 . S
O54 Cd45 2.378 . S
O54 C52 1.256 . S
O55 Cd56 2.300 . S
O55 C62 1.275 . S
Cd56 O55 2.300 . S
Cd56 O64 2.381 . S
Cd56 O65 2.378 . S
O57 Cd58 2.385 . S
O57 C62 1.255 . S
Cd58 O57 2.385 . S
Cd58 O59 2.317 . S
O59 Cd58 2.317 . S
O59 C60 1.232 . S
C60 O59 1.232 . S
C60 O61 1.218 . S
O61 C60 1.218 . S
C62 O55 1.275 . S
C62 O57 1.255 . S
C63 O64 1.258 . S
C63 O65 1.256 . S
O64 Cd56 2.381 . S
O64 C63 1.258 . S
O65 Cd56 2.378 . S
O65 C63 1.256 . S
O66 Cd67 2.300 . S
O66 C73 1.275 . S
Cd67 O66 2.300 . S
Cd67 O75 2.381 . S
Cd67 O76 2.378 . S
O68 Cd69 2.385 . S
O68 C73 1.255 . S
Cd69 O68 2.385 . S
Cd69 O70 2.317 . S
O70 Cd69 2.317 . S
O70 C71 1.232 . S
C71 O70 1.232 . S
C71 O72 1.218 . S
O72 C71 1.218 . S
C73 O66 1.275 . S
C73 O68 1.255 . S
C74 O75 1.258 . S
C74 O76 1.256 . S
O75 Cd67 2.381 . S
O75 C74 1.258 . S
O76 Cd67 2.378 . S
O76 C74 1.256 . S
O77 Cd78 2.300 . S
O77 C84 1.275 . S
Cd78 O77 2.300 . S
Cd78 O86 2.381 . S
Cd78 O87 2.378 . S
O79 Cd80 2.385 . S
O79 C84 1.255 . S
Cd80 O79 2.385 . S
Cd80 O81 2.317 . S
O81 Cd80 2.317 . S
O81 C82 1.196 1_554 S
C82 O81 1.196 1_556 S
C82 O83 1.203 1_556 S
O83 C82 1.203 1_554 S
C84 O77 1.275 . S
C84 O79 1.255 . S
C85 O86 1.258 . S
C85 O87 1.256 . S
O86 Cd78 2.381 . S
O86 C85 1.258 . S
O87 Cd78 2.378 . S
O87 C85 1.256 . S
O88 Cd89 2.300 . S
O88 C95 1.275 . S
Cd89 O88 2.300 . S
Cd89 O97 2.381 . S
Cd89 O98 2.378 . S
O90 Cd91 2.385 1_554 S
O90 C95 1.255 . S
Cd91 O90 2.385 1_556 S
Cd91 O92 2.317 . S
O92 Cd91 2.317 . S
O92 C93 1.232 . S
C93 O92 1.232 . S
C93 O94 1.218 . S
O94 C93 1.218 . S
C95 O88 1.275 . S
C95 O90 1.255 . S
C96 O97 1.258 . S
C96 O98 1.256 . S
O97 Cd89 2.381 . S
O97 C96 1.258 . S
O98 Cd89 2.378 . S
O98 C96 1.256 . S
O99 Cd100 2.300 . S
O99 C106 1.275 . S
Cd100 O99 2.300 . S
Cd100 O108 2.381 . S
Cd100 O109 2.378 . S
O101 Cd102 2.385 . S
O101 C106 1.255 . S
Cd102 O101 2.385 . S
Cd102 O103 2.317 . S
O103 Cd102 2.317 . S
O103 C104 1.232 . S
C104 O103 1.232 . S
C104 O105 1.218 . S
O105 C104 1.218 . S
C106 O99 1.275 . S
C106 O101 1.255 . S
C107 O108 1.258 . S
C107 O109 1.256 . S
O108 Cd100 2.381 . S
O108 C107 1.258 . S
O109 Cd100 2.378 . S
O109 C107 1.256 . S
O110 Cd111 2.300 . S
O110 C117 1.275 . S
Cd111 O110 2.300 . S
Cd111 O119 2.381 . S
Cd111 O120 2.378 . S
O112 Cd113 2.385 . S
O112 C117 1.255 . S
Cd113 O112 2.385 . S
Cd113 O114 2.317 . S
O114 Cd113 2.317 . S
O114 C115 1.232 . S
C115 O114 1.232 . S
C115 O116 1.218 . S
O116 C115 1.218 . S
C117 O110 1.275 . S
C117 O112 1.255 . S
C118 O119 1.258 . S
C118 O120 1.256 . S
O119 Cd111 2.381 . S
O119 C118 1.258 . S
O120 Cd111 2.378 . S
O120 C118 1.256 . S
O121 Cd122 2.300 . S
O121 C128 1.275 . S
Cd122 O121 2.300 . S
Cd122 O130 2.381 . S
Cd122 O131 2.378 . S
O123 Cd124 2.385 . S
O123 C128 1.255 . S
Cd124 O123 2.385 . S
Cd124 O125 2.317 . S
O125 Cd124 2.317 . S
O125 C126 1.232 . S
C126 O125 1.232 . S
C126 O127 1.218 . S
O127 C126 1.218 . S
C128 O121 1.275 . S
C128 O123 1.255 . S
C129 O130 1.258 . S
C129 O131 1.256 . S
O130 Cd122 2.381 . S
O130 C129 1.258 . S
O131 Cd122 2.378 . S
O131 C129 1.256 . S
O132 Cd133 2.300 . S
O132 C139 1.275 . S
Cd133 O132 2.300 . S
Cd133 O141 2.381 . S
Cd133 O142 2.378 . S
O134 Cd135 2.385 . S
O134 C139 1.255 . S
Cd135 O134 2.385 . S
Cd135 O136 2.317 . S
O136 Cd135 2.317 . S
O136 C137 1.232 . S
C137 O136 1.232 . S
C137 O138 1.218 . S
O138 C137 1.218 . S
C139 O132 1.275 . S
C139 O134 1.255 . S
C140 O141 1.258 . S
C140 O142 1.256 . S
O141 Cd133 2.381 . S
O141 C140 1.258 . S
O142 Cd133 2.378 . S
O142 C140 1.256 . S
O143 Cd144 2.300 . S
O143 C150 1.275 . S
Cd144 O143 2.300 . S
Cd144 O152 2.381 . S
Cd144 O153 2.378 . S
O145 Cd146 2.385 . S
O145 C150 1.255 . S
Cd146 O145 2.385 . S
Cd146 O147 2.317 . S
O147 Cd146 2.317 . S
O147 C148 1.292 . S
C148 O147 1.292 . S
C148 O149 1.266 . S
O149 C148 1.266 . S
C150 O143 1.275 . S
C150 O145 1.255 . S
C151 O152 1.258 . S
C151 O153 1.256 . S
O152 Cd144 2.381 . S
O152 C151 1.258 . S
O153 Cd144 2.378 . S
O153 C151 1.256 . S
O154 Cd155 2.300 . S
O154 C161 1.275 . S
Cd155 O154 2.300 . S
Cd155 O163 2.381 . S
Cd155 O164 2.378 . S
O156 Cd157 2.385 . S
O156 C161 1.255 . S
Cd157 O156 2.385 . S
Cd157 O158 2.317 . S
O158 Cd157 2.317 . S
O158 C159 1.232 . S
C159 O158 1.232 . S
C159 O160 1.218 . S
O160 C159 1.218 . S
C161 O154 1.275 . S
C161 O156 1.255 . S
C162 O163 1.258 . S
C162 O164 1.256 . S
O163 Cd155 2.381 . S
O163 C162 1.258 . S
O164 Cd155 2.378 . S
O164 C162 1.256 . S
O165 Cd166 2.300 . S
O165 C172 1.275 . S
Cd166 O165 2.300 . S
Cd166 O174 2.381 . S
Cd166 O175 2.378 . S
O167 Cd168 2.385 . S
O167 C172 1.255 . S
Cd168 O167 2.385 . S
Cd168 O169 2.317 . S
O169 Cd168 2.317 . S
O169 C170 1.204 1_545 S
C170 O169 1.204 1_565 S
C170 O171 1.207 1_565 S
O171 C170 1.207 1_545 S
C172 O165 1.275 . S
C172 O167 1.255 . S
C173 O174 1.258 . S
C173 O175 1.256 . S
O174 Cd166 2.381 . S
O174 C173 1.258 . S
O175 Cd166 2.378 . S
O175 C173 1.256 . S
O176 Cd177 2.300 . S
O176 C183 1.275 . S
Cd177 O176 2.300 . S
Cd177 O185 2.381 . S
Cd177 O186 2.378 . S
O178 Cd179 2.385 1_455 S
O178 C183 1.255 . S
Cd179 O178 2.385 1_655 S
Cd179 O180 2.317 . S
O180 Cd179 2.317 . S
O180 C181 1.232 . S
C181 O180 1.232 . S
C181 O182 1.218 . S
O182 C181 1.218 . S
C183 O176 1.275 . S
C183 O178 1.255 . S
C184 O185 1.258 . S
C184 O186 1.256 . S
O185 Cd177 2.381 . S
O185 C184 1.258 . S
O186 Cd177 2.378 . S
O186 C184 1.256 . S
O187 Cd188 2.300 . S
O187 C194 1.275 . S
Cd188 O187 2.300 . S
Cd188 O196 2.381 . S
Cd188 O197 2.378 . S
O189 Cd190 2.385 . S
O189 C194 1.255 . S
Cd190 O189 2.385 . S
Cd190 O191 2.317 . S
O191 Cd190 2.317 . S
O191 C192 1.232 . S
C192 O191 1.232 . S
C192 O193 1.218 . S
O193 C192 1.218 . S
C194 O187 1.275 . S
C194 O189 1.255 . S
C195 O196 1.258 . S
C195 O197 1.256 . S
O196 Cd188 2.381 . S
O196 C195 1.258 . S
O197 Cd188 2.378 . S
O197 C195 1.256 . S
O198 Cd199 2.300 . S
O198 C205 1.275 . S
Cd199 O198 2.300 . S
Cd199 O207 2.381 . S
Cd199 O208 2.378 . S
O200 Cd201 2.385 . S
O200 C205 1.255 . S
Cd201 O200 2.385 . S
Cd201 O202 2.317 . S
O202 Cd201 2.317 . S
O202 C203 1.232 . S
C203 O202 1.232 . S
C203 O204 1.218 . S
O204 C203 1.218 . S
C205 O198 1.275 . S
C205 O200 1.255 . S
C206 O207 1.258 . S
C206 O208 1.256 . S
O207 Cd199 2.381 . S
O207 C206 1.258 . S
O208 Cd199 2.378 . S
O208 C206 1.256 . S
O209 Cd210 2.300 . S
O209 C216 1.275 . S
Cd210 O209 2.300 . S
Cd210 O218 2.381 . S
Cd210 O219 2.378 . S
O211 Cd212 2.385 . S
O211 C216 1.255 . S
Cd212 O211 2.385 . S
Cd212 O213 2.317 . S
O213 Cd212 2.317 . S
O213 C214 1.232 1_655 S
C214 O213 1.232 1_455 S
C214 O215 1.218 . S
O215 C214 1.218 . S
C216 O209 1.275 . S
C216 O211 1.255 . S
C217 O218 1.258 . S
C217 O219 1.256 . S
O218 Cd210 2.381 . S
O218 C217 1.258 . S
O219 Cd210 2.378 . S
O219 C217 1.256 . S
O220 Cd221 2.300 . S
O220 C227 1.275 . S
Cd221 O220 2.300 . S
Cd221 O229 2.381 . S
Cd221 O230 2.378 . S
O222 Cd223 2.385 . S
O222 C227 1.255 . S
Cd223 O222 2.385 . S
Cd223 O224 2.317 . S
O224 Cd223 2.317 . S
O224 C225 1.202 1_455 S
C225 O224 1.202 1_655 S
C225 O226 1.206 1_655 S
O226 C225 1.206 1_455 S
C227 O220 1.275 . S
C227 O222 1.255 . S
C228 O229 1.258 . S
C228 O230 1.256 . S
O229 Cd221 2.381 . S
O229 C228 1.258 . S
O230 Cd221 2.378 . S
O230 C228 1.256 . S
O231 Cd232 2.300 . S
O231 C238 1.275 . S
Cd232 O231 2.300 . S
Cd232 O240 2.381 . S
Cd232 O241 2.378 . S
O233 Cd234 2.385 . S
O233 C238 1.255 . S
Cd234 O233 2.385 . S
Cd234 O235 2.317 . S
O235 Cd234 2.317 . S
O235 C236 1.232 . S
C236 O235 1.232 . S
C236 O237 1.218 . S
O237 C236 1.218 . S
C238 O231 1.275 . S
C238 O233 1.255 . S
C239 O240 1.258 . S
C239 O241 1.256 . S
O240 Cd232 2.381 . S
O240 C239 1.258 . S
O241 Cd232 2.378 . S
O241 C239 1.256 . S
O242 Cd243 2.300 . S
O242 C249 1.275 . S
Cd243 O242 2.300 . S
Cd243 O251 2.381 . S
Cd243 O252 2.378 . S
O244 Cd245 2.385 . S
O244 C249 1.255 . S
Cd245 O244 2.385 . S
Cd245 O246 2.317 . S
O246 Cd245 2.317 . S
O246 C247 1.288 . S
C247 O246 1.288 . S
C247 O248 1.263 . S
O248 C247 1.263 . S
C249 O242 1.275 . S
C249 O244 1.255 . S
C250 O251 1.258 . S
C250 O252 1.256 . S
O251 Cd243 2.381 . S
O251 C250 1.258 . S
O252 Cd243 2.378 . S
O252 C250 1.256 . S
O253 Cd254 2.300 . S
O253 C260 1.275 . S
Cd254 O253 2.300 . S
Cd254 O262 2.381 . S
Cd254 O263 2.378 . S
O255 Cd256 2.385 . S
O255 C260 1.255 . S
Cd256 O255 2.385 . S
Cd256 O257 2.317 . S
O257 Cd256 2.317 . S
O257 C258 1.232 . S
C258 O257 1.232 . S
C258 O259 1.218 . S
O259 C258 1.218 . S
C260 O253 1.275 . S
C260 O255 1.255 . S
C261 O262 1.258 . S
C261 O263 1.256 . S
O262 Cd254 2.381 . S
O262 C261 1.258 . S
O263 Cd254 2.378 . S
O263 C261 1.256 . S
O264 Cd265 2.300 . S
O264 C271 1.275 . S
Cd265 O264 2.300 . S
Cd265 O273 2.381 . S
Cd265 O274 2.378 . S
O266 Cd267 2.385 . S
O266 C271 1.255 . S
Cd267 O266 2.385 . S
Cd267 O268 2.317 . S
O268 Cd267 2.317 . S
O268 C269 1.232 . S
C269 O268 1.232 . S
C269 O270 1.218 . S
O270 C269 1.218 . S
C271 O264 1.275 . S
C271 O266 1.255 . S
C272 O273 1.258 . S
C272 O274 1.256 . S
O273 Cd265 2.381 . S
O273 C272 1.258 . S
O274 Cd265 2.378 . S
O274 C272 1.256 . S
O275 Cd276 2.300 . S
O275 C282 1.275 . S
Cd276 O275 2.300 . S
Cd276 O284 2.381 . S
Cd276 O285 2.378 . S
O277 Cd278 2.385 . S
O277 C282 1.255 . S
Cd278 O277 2.385 . S
Cd278 O279 2.317 . S
O279 Cd278 2.317 . S
O279 C280 1.291 . S
C280 O279 1.291 . S
C280 O281 1.265 . S
O281 C280 1.265 . S
C282 O275 1.275 . S
C282 O277 1.255 . S
C283 O284 1.258 . S
C283 O285 1.256 . S
O284 Cd276 2.381 . S
O284 C283 1.258 . S
O285 Cd276 2.378 . S
O285 C283 1.256 . S
O286 Cd287 2.300 . S
O286 C293 1.275 . S
Cd287 O286 2.300 . S
Cd287 O295 2.381 . S
Cd287 O296 2.378 . S
O288 Cd289 2.385 . S
O288 C293 1.255 . S
Cd289 O288 2.385 . S
Cd289 O290 2.317 . S
O290 Cd289 2.317 . S
O290 C291 1.232 . S
C291 O290 1.232 . S
C291 O292 1.218 . S
O292 C291 1.218 . S
C293 O286 1.275 . S
C293 O288 1.255 . S
C294 O295 1.258 . S
C294 O296 1.256 . S
O295 Cd287 2.381 . S
O295 C294 1.258 . S
O296 Cd287 2.378 . S
O296 C294 1.256 . S
O297 Cd298 2.300 . S
O297 C304 1.275 . S
Cd298 O297 2.300 . S
Cd298 O306 2.381 . S
Cd298 O307 2.378 . S
O299 Cd300 2.385 . S
O299 C304 1.255 . S
Cd300 O299 2.385 . S
Cd300 O301 2.317 . S
O301 Cd300 2.317 . S
O301 C302 1.232 . S
C302 O301 1.232 . S
C302 O303 1.218 . S
O303 C302 1.218 . S
C304 O297 1.275 . S
C304 O299 1.255 . S
C305 O306 1.258 . S
C305 O307 1.256 . S
O306 Cd298 2.381 . S
O306 C305 1.258 . S
O307 Cd298 2.378 . S
O307 C305 1.256 . S
O308 Cd309 2.300 . S
O308 C315 1.275 . S
Cd309 O308 2.300 . S
Cd309 O317 2.381 . S
Cd309 O318 2.378 . S
O310 Cd311 2.385 . S
O310 C315 1.255 . S
Cd311 O310 2.385 . S
Cd311 O312 2.317 . S
O312 Cd311 2.317 . S
O312 C313 1.232 . S
C313 O312 1.232 . S
C313 O314 1.218 . S
O314 C313 1.218 . S
C315 O308 1.275 . S
C315 O310 1.255 . S
C316 O317 1.258 . S
C316 O318 1.256 . S
O317 Cd309 2.381 . S
O317 C316 1.258 . S
O318 Cd309 2.378 . S
O318 C316 1.256 . S
O319 Cd320 2.300 . S
O319 C326 1.275 . S
Cd320 O319 2.300 . S
Cd320 O328 2.381 . S
Cd320 O329 2.378 . S
O321 Cd322 2.385 . S
O321 C326 1.255 . S
Cd322 O321 2.385 . S
Cd322 O323 2.317 . S
O323 Cd322 2.317 . S
O323 C324 1.232 . S
C324 O323 1.232 . S
C324 O325 1.218 . S
O325 C324 1.218 . S
C326 O319 1.275 . S
C326 O321 1.255 . S
C327 O328 1.258 . S
C327 O329 1.256 . S
O328 Cd320 2.381 . S
O328 C327 1.258 . S
O329 Cd320 2.378 . S
O329 C327 1.256 . S
O330 Cd331 2.300 . S
O330 C337 1.275 . S
Cd331 O330 2.300 . S
Cd331 O339 2.381 . S
Cd331 O340 2.378 . S
O332 Cd333 2.385 . S
O332 C337 1.255 . S
Cd333 O332 2.385 . S
Cd333 O334 2.317 . S
O334 Cd333 2.317 . S
O334 C335 1.232 . S
C335 O334 1.232 . S
C335 O336 1.218 . S
O336 C335 1.218 . S
C337 O330 1.275 . S
C337 O332 1.255 . S
C338 O339 1.258 . S
C338 O340 1.256 . S
O339 Cd331 2.381 . S
O339 C338 1.258 . S
O340 Cd331 2.378 . S
O340 C338 1.256 . S
O341 Cd342 2.300 . S
O341 C348 1.275 . S
Cd342 O341 2.300 . S
Cd342 O350 2.381 . S
Cd342 O351 2.378 . S
O343 Cd344 2.385 . S
O343 C348 1.255 . S
Cd344 O343 2.385 . S
Cd344 O345 2.317 . S
O345 Cd344 2.317 . S
O345 C346 1.232 . S
C346 O345 1.232 . S
C346 O347 1.218 . S
O347 C346 1.218 . S
C348 O341 1.275 . S
C348 O343 1.255 . S
C349 O350 1.258 . S
C349 O351 1.256 . S
O350 Cd342 2.381 . S
O350 C349 1.258 . S
O351 Cd342 2.378 . S
O351 C349 1.256 . S
O352 Cd353 2.300 . S
O352 C359 1.275 . S
Cd353 O352 2.300 . S
Cd353 O361 2.381 . S
Cd353 O362 2.378 . S
O354 Cd355 2.385 . S
O354 C359 1.255 . S
Cd355 O354 2.385 . S
Cd355 O356 2.317 . S
O356 Cd355 2.317 . S
O356 C357 1.232 . S
C357 O356 1.232 . S
C357 O358 1.218 . S
O358 C357 1.218 . S
C359 O352 1.275 . S
C359 O354 1.255 . S
C360 O361 1.258 . S
C360 O362 1.256 . S
O361 Cd353 2.381 . S
O361 C360 1.258 . S
O362 Cd353 2.378 . S
O362 C360 1.256 . S
O363 Cd364 2.300 . S
O363 C370 1.275 . S
Cd364 O363 2.300 . S
Cd364 O372 2.381 . S
Cd364 O373 2.378 . S
O365 Cd366 2.385 . S
O365 C370 1.255 . S
Cd366 O365 2.385 . S
Cd366 O367 2.317 . S
O367 Cd366 2.317 . S
O367 C368 1.232 . S
C368 O367 1.232 . S
C368 O369 1.218 . S
O369 C368 1.218 . S
C370 O363 1.275 . S
C370 O365 1.255 . S
C371 O372 1.258 . S
C371 O373 1.256 . S
O372 Cd364 2.381 . S
O372 C371 1.258 . S
O373 Cd364 2.378 . S
O373 C371 1.256 . S
O374 Cd375 2.300 . S
O374 C381 1.275 . S
Cd375 O374 2.300 . S
Cd375 O383 2.381 . S
Cd375 O384 2.378 . S
O376 Cd377 2.385 . S
O376 C381 1.255 . S
Cd377 O376 2.385 . S
Cd377 O378 2.317 . S
O378 Cd377 2.317 . S
O378 C379 1.232 . S
C379 O378 1.232 . S
C379 O380 1.218 . S
O380 C379 1.218 . S
C381 O374 1.275 . S
C381 O376 1.255 . S
C382 O383 1.258 . S
C382 O384 1.256 . S
O383 Cd375 2.381 . S
O383 C382 1.258 . S
O384 Cd375 2.378 . S
O384 C382 1.256 . S
O385 Cd386 2.300 . S
O385 C392 1.275 . S
Cd386 O385 2.300 . S
Cd386 O394 2.381 . S
Cd386 O395 2.378 . S
O387 Cd388 2.385 . S
O387 C392 1.255 . S
Cd388 O387 2.385 . S
Cd388 O389 2.317 . S
O389 Cd388 2.317 . S
O389 C390 1.232 . S
C390 O389 1.232 . S
C390 O391 1.218 . S
O391 C390 1.218 . S
C392 O385 1.275 . S
C392 O387 1.255 . S
C393 O394 1.258 . S
C393 O395 1.256 . S
O394 Cd386 2.381 . S
O394 C393 1.258 . S
O395 Cd386 2.378 . S
O395 C393 1.256 . S
O396 Cd397 2.300 . S
O396 C403 1.275 . S
Cd397 O396 2.300 . S
Cd397 O405 2.381 . S
Cd397 O406 2.378 . S
O398 Cd399 2.385 . S
O398 C403 1.255 . S
Cd399 O398 2.385 . S
Cd399 O400 2.317 . S
O400 Cd399 2.317 . S
O400 C401 1.232 1_556 S
C401 O400 1.232 1_554 S
C401 O402 1.218 . S
O402 C401 1.218 . S
C403 O396 1.275 . S
C403 O398 1.255 . S
C404 O405 1.258 . S
C404 O406 1.256 . S
O405 Cd397 2.381 . S
O405 C404 1.258 . S
O406 Cd397 2.378 . S
O406 C404 1.256 . S
O407 Cd408 2.300 . S
O407 C414 1.275 . S
Cd408 O407 2.300 . S
Cd408 O416 2.381 . S
Cd408 O417 2.378 . S
O409 Cd410 2.385 . S
O409 C414 1.255 . S
Cd410 O409 2.385 . S
Cd410 O411 2.317 . S
O411 Cd410 2.317 . S
O411 C412 1.232 . S
C412 O411 1.232 . S
C412 O413 1.218 . S
O413 C412 1.218 . S
C414 O407 1.275 . S
C414 O409 1.255 . S
C415 O416 1.258 . S
C415 O417 1.256 . S
O416 Cd408 2.381 . S
O416 C415 1.258 . S
O417 Cd408 2.378 . S
O417 C415 1.256 . S
O418 Cd419 2.300 . S
O418 C425 1.275 . S
Cd419 O418 2.300 . S
Cd419 O427 2.381 . S
Cd419 O428 2.378 . S
O420 Cd421 2.385 . S
O420 C425 1.255 . S
Cd421 O420 2.385 . S
Cd421 O422 2.317 . S
O422 Cd421 2.317 . S
O422 C423 1.232 . S
C423 O422 1.232 . S
C423 O424 1.218 . S
O424 C423 1.218 . S
C425 O418 1.275 . S
C425 O420 1.255 . S
C426 O427 1.258 . S
C426 O428 1.256 . S
O427 Cd419 2.381 . S
O427 C426 1.258 . S
O428 Cd419 2.378 . S
O428 C426 1.256 . S
O429 Cd430 2.300 . S
O429 C436 1.275 . S
Cd430 O429 2.300 . S
Cd430 O438 2.381 . S
Cd430 O439 2.378 . S
O431 Cd432 2.385 . S
O431 C436 1.255 . S
Cd432 O431 2.385 . S
Cd432 O433 2.317 . S
O433 Cd432 2.317 . S
O433 C434 1.232 . S
C434 O433 1.232 . S
C434 O435 1.218 . S
O435 C434 1.218 . S
C436 O429 1.275 . S
C436 O431 1.255 . S
C437 O438 1.258 . S
C437 O439 1.256 . S
O438 Cd430 2.381 . S
O438 C437 1.258 . S
O439 Cd430 2.378 . S
O439 C437 1.256 . S
O440 Cd441 2.300 . S
O440 C447 1.275 . S
Cd441 O440 2.300 . S
Cd441 O449 2.381 . S
Cd441 O450 2.378 . S
O442 Cd443 2.385 . S
O442 C447 1.255 . S
Cd443 O442 2.385 . S
Cd443 O444 2.317 . S
O444 Cd443 2.317 . S
O444 C445 1.232 . S
C445 O444 1.232 . S
C445 O446 1.218 . S
O446 C445 1.218 . S
C447 O440 1.275 . S
C447 O442 1.255 . S
C448 O449 1.258 . S
C448 O450 1.256 . S
O449 Cd441 2.381 . S
O449 C448 1.258 . S
O450 Cd441 2.378 . S
O450 C448 1.256 . S
O451 Cd452 2.300 . S
O451 C458 1.275 . S
Cd452 O451 2.300 . S
Cd452 O460 2.381 . S
Cd452 O461 2.378 . S
O453 Cd454 2.385 . S
O453 C458 1.255 . S
Cd454 O453 2.385 . S
Cd454 O455 2.317 . S
O455 Cd454 2.317 . S
O455 C456 1.232 . S
C456 O455 1.232 . S
C456 O457 1.218 . S
O457 C456 1.218 . S
C458 O451 1.275 . S
C458 O453 1.255 . S
C459 O460 1.258 . S
C459 O461 1.256 . S
O460 Cd452 2.381 . S
O460 C459 1.258 . S
O461 Cd452 2.378 . S
O461 C459 1.256 . S
O462 Cd463 2.300 . S
O462 C469 1.275 . S
Cd463 O462 2.300 . S
Cd463 O471 2.381 . S
Cd463 O472 2.378 . S
O464 Cd465 2.385 . S
O464 C469 1.255 . S
Cd465 O464 2.385 . S
Cd465 O466 2.317 . S
O466 Cd465 2.317 . S
O466 C467 1.232 . S
C467 O466 1.232 . S
C467 O468 1.218 . S
O468 C467 1.218 . S
C469 O462 1.275 . S
C469 O464 1.255 . S
C470 O471 1.258 . S
C470 O472 1.256 . S
O471 Cd463 2.381 . S
O471 C470 1.258 . S
O472 Cd463 2.378 . S
O472 C470 1.256 . S
O473 Cd474 2.300 . S
O473 C480 1.275 . S
Cd474 O473 2.300 . S
Cd474 O482 2.381 . S
Cd474 O483 2.378 . S
O475 Cd476 2.385 . S
O475 C480 1.255 . S
Cd476 O475 2.385 . S
Cd476 O477 2.317 . S
O477 Cd476 2.317 . S
O477 C478 1.232 . S
C478 O477 1.232 . S
C478 O479 1.218 . S
O479 C478 1.218 . S
C480 O473 1.275 . S
C480 O475 1.255 . S
C481 O482 1.258 . S
C481 O483 1.256 . S
O482 Cd474 2.381 . S
O482 C481 1.258 . S
O483 Cd474 2.378 . S
O483 C481 1.256 . S
O484 Cd485 2.300 . S
O484 C491 1.275 . S
Cd485 O484 2.300 . S
Cd485 O493 2.381 . S
Cd485 O494 2.378 . S
O486 Cd487 2.385 . S
O486 C491 1.255 . S
Cd487 O486 2.385 . S
Cd487 O488 2.317 . S
O488 Cd487 2.317 . S
O488 C489 1.232 . S
C489 O488 1.232 . S
C489 O490 1.218 . S
O490 C489 1.218 . S
C491 O484 1.275 . S
C491 O486 1.255 . S
C492 O493 1.258 . S
C492 O494 1.256 . S
O493 Cd485 2.381 . S
O493 C492 1.258 . S
O494 Cd485 2.378 . S
O494 C492 1.256 . S
O495 Cd496 2.300 . S
O495 C502 1.275 . S
Cd496 O495 2.300 . S
Cd496 O504 2.381 . S
Cd496 O505 2.378 . S
O497 Cd498 2.385 . S
O497 C502 1.255 . S
Cd498 O497 2.385 . S
Cd498 O499 2.317 . S
O499 Cd498 2.317 . S
O499 C500 1.232 . S
C500 O499 1.232 . S
C500 O501 1.218 . S
O501 C500 1.218 . S
C502 O495 1.275 . S
C502 O497 1.255 . S
C503 O504 1.258 . S
C503 O505 1.256 . S
O504 Cd496 2.381 . S
O504 C503 1.258 . S
O505 Cd496 2.378 . S
O505 C503 1.256 . S
O506 Cd507 2.300 . S
O506 C513 1.275 . S
Cd507 O506 2.300 . S
Cd507 O515 2.381 . S
Cd507 O516 2.378 . S
O508 Cd509 2.385 . S
O508 C513 1.255 . S
Cd509 O508 2.385 . S
Cd509 O510 2.317 . S
O510 Cd509 2.317 . S
O510 C511 1.232 . S
C511 O510 1.232 . S
C511 O512 1.218 . S
O512 C511 1.218 . S
C513 O506 1.275 . S
C513 O508 1.255 . S
C514 O515 1.258 . S
C514 O516 1.256 . S
O515 Cd507 2.381 . S
O515 C514 1.258 . S
O516 Cd507 2.378 . S
O516 C514 1.256 . S
O517 Cd518 2.300 . S
O517 C524 1.275 . S
Cd518 O517 2.300 . S
Cd518 O526 2.381 . S
Cd518 O527 2.378 . S
O519 Cd520 2.385 . S
O519 C524 1.255 . S
Cd520 O519 2.385 . S
Cd520 O521 2.317 . S
O521 Cd520 2.317 . S
O521 C522 1.232 . S
C522 O521 1.232 . S
C522 O523 1.218 . S
O523 C522 1.218 . S
C524 O517 1.275 . S
C524 O519 1.255 . S
C525 O526 1.258 . S
C525 O527 1.256 . S
O526 Cd518 2.381 . S
O526 C525 1.258 . S
O527 Cd518 2.378 . S
O527 C525 1.256 . S
H528 C536 0.950 . S
H529 C541 0.950 . S
H530 C538 0.950 . S
H531 C540 0.950 . S
H532 C542 0.950 . S
H533 C544 0.950 . S
H534 C546 0.950 . S
H535 C547 0.950 . S
C536 H528 0.950 . S
C536 C537 1.386 . S
C536 C538 1.391 . S
C537 C536 1.386 . S
C537 C541 1.393 . S
C538 H530 0.950 . S
C538 C536 1.391 . S
C538 C539 1.400 . S
C539 C538 1.400 . S
C539 C540 1.398 . S
C539 C545 1.491 . S
C540 H531 0.950 . S
C540 C539 1.398 . S
C540 C541 1.391 . S
C541 H529 0.950 . S
C541 C537 1.393 . S
C541 C540 1.391 . S
C542 H532 0.950 . S
C542 C543 1.386 . S
C542 C544 1.391 . S
C543 C542 1.386 . S
C543 C547 1.393 . S
C544 H533 0.950 . S
C544 C542 1.391 . S
C544 C545 1.400 . S
C545 C539 1.491 . S
C545 C544 1.400 . S
C545 C546 1.398 . S
C546 H534 0.950 . S
C546 C545 1.398 . S
C546 C547 1.391 . S
C547 H535 0.950 . S
C547 C543 1.393 . S
C547 C546 1.391 . S
H548 C556 0.950 . S
H549 C561 0.950 . S
H550 C558 0.950 . S
H551 C560 0.950 . S
H552 C562 0.950 . S
H553 C564 0.950 . S
H554 C566 0.950 . S
H555 C567 0.950 . S
C556 H548 0.950 . S
C556 C557 1.386 . S
C556 C558 1.391 . S
C557 C556 1.386 . S
C557 C561 1.393 . S
C558 H550 0.950 . S
C558 C556 1.391 . S
C558 C559 1.400 . S
C559 C558 1.400 . S
C559 C560 1.398 . S
C559 C565 1.491 . S
C560 H551 0.950 . S
C560 C559 1.398 . S
C560 C561 1.391 . S
C561 H549 0.950 . S
C561 C557 1.393 . S
C561 C560 1.391 . S
C562 H552 0.950 . S
C562 C563 1.386 . S
C562 C564 1.391 . S
C563 C562 1.386 . S
C563 C567 1.393 . S
C564 H553 0.950 . S
C564 C562 1.391 . S
C564 C565 1.400 . S
C565 C559 1.491 . S
C565 C564 1.400 . S
C565 C566 1.398 . S
C566 H554 0.950 . S
C566 C565 1.398 . S
C566 C567 1.391 . S
C567 H555 0.950 . S
C567 C563 1.393 . S
C567 C566 1.391 . S
H568 C576 0.950 . S
H569 C581 0.950 . S
H570 C578 0.950 . S
H571 C580 0.950 . S
H572 C582 0.950 . S
H573 C584 0.950 . S
H574 C586 0.950 . S
H575 C587 0.950 . S
C576 H568 0.950 . S
C576 C577 1.386 . S
C576 C578 1.391 . S
C577 C576 1.386 . S
C577 C581 1.393 . S
C578 H570 0.950 . S
C578 C576 1.391 . S
C578 C579 1.400 . S
C579 C578 1.400 . S
C579 C580 1.398 . S
C579 C585 1.491 . S
C580 H571 0.950 . S
C580 C579 1.398 . S
C580 C581 1.391 . S
C581 H569 0.950 . S
C581 C577 1.393 . S
C581 C580 1.391 . S
C582 H572 0.950 . S
C582 C583 1.386 . S
C582 C584 1.391 . S
C583 C582 1.386 . S
C583 C587 1.393 . S
C584 H573 0.950 . S
C584 C582 1.391 . S
C584 C585 1.400 . S
C585 C579 1.491 . S
C585 C584 1.400 . S
C585 C586 1.398 . S
C586 H574 0.950 . S
C586 C585 1.398 . S
C586 C587 1.391 . S
C587 H575 0.950 . S
C587 C583 1.393 . S
C587 C586 1.391 . S
H588 C596 0.950 . S
H589 C601 0.950 . S
H590 C598 0.950 . S
H591 C600 0.950 . S
H592 C602 0.950 . S
H593 C604 0.950 . S
H594 C606 0.950 . S
H595 C607 0.950 . S
C596 H588 0.950 . S
C596 C597 1.386 . S
C596 C598 1.391 . S
C597 C596 1.386 . S
C597 C601 1.393 . S
C598 H590 0.950 . S
C598 C596 1.391 . S
C598 C599 1.400 . S
C599 C598 1.400 . S
C599 C600 1.398 . S
C599 C605 1.491 . S
C600 H591 0.950 . S
C600 C599 1.398 . S
C600 C601 1.391 . S
C601 H589 0.950 . S
C601 C597 1.393 . S
C601 C600 1.391 . S
C602 H592 0.950 . S
C602 C603 1.386 . S
C602 C604 1.391 . S
C603 C602 1.386 . S
C603 C607 1.393 . S
C604 H593 0.950 . S
C604 C602 1.391 . S
C604 C605 1.400 . S
C605 C599 1.491 . S
C605 C604 1.400 . S
C605 C606 1.398 . S
C606 H594 0.950 . S
C606 C605 1.398 . S
C606 C607 1.391 . S
C607 H595 0.950 . S
C607 C603 1.393 . S
C607 C606 1.391 . S
H608 C616 0.950 . S
H609 C621 0.950 . S
H610 C618 0.950 . S
H611 C620 0.950 . S
H612 C622 0.950 . S
H613 C624 0.950 . S
H614 C626 0.950 . S
H615 C627 0.950 . S
C616 H608 0.950 . S
C616 C617 1.386 . S
C616 C618 1.391 . S
C617 C616 1.386 . S
C617 C621 1.393 . S
C618 H610 0.950 . S
C618 C616 1.391 . S
C618 C619 1.400 . S
C619 C618 1.400 . S
C619 C620 1.398 . S
C619 C625 1.491 . S
C620 H611 0.950 . S
C620 C619 1.398 . S
C620 C621 1.391 . S
C621 H609 0.950 . S
C621 C617 1.393 . S
C621 C620 1.391 . S
C622 H612 0.950 . S
C622 C623 1.386 . S
C622 C624 1.391 . S
C623 C622 1.386 . S
C623 C627 1.393 . S
C624 H613 0.950 . S
C624 C622 1.391 . S
C624 C625 1.400 . S
C625 C619 1.491 . S
C625 C624 1.400 . S
C625 C626 1.398 . S
C626 H614 0.950 . S
C626 C625 1.398 . S
C626 C627 1.391 . S
C627 H615 0.950 . S
C627 C623 1.393 . S
C627 C626 1.391 . S
H628 C636 0.950 . S
H629 C641 0.950 . S
H630 C638 0.950 . S
H631 C640 0.950 . S
H632 C642 0.950 . S
H633 C644 0.950 . S
H634 C646 0.950 . S
H635 C647 0.950 . S
C636 H628 0.950 . S
C636 C637 1.386 . S
C636 C638 1.391 . S
C637 C636 1.386 . S
C637 C641 1.393 . S
C638 H630 0.950 . S
C638 C636 1.391 . S
C638 C639 1.400 . S
C639 C638 1.400 . S
C639 C640 1.398 . S
C639 C645 1.491 . S
C640 H631 0.950 . S
C640 C639 1.398 . S
C640 C641 1.391 . S
C641 H629 0.950 . S
C641 C637 1.393 . S
C641 C640 1.391 . S
C642 H632 0.950 . S
C642 C643 1.386 . S
C642 C644 1.391 . S
C643 C642 1.386 . S
C643 C647 1.393 . S
C644 H633 0.950 . S
C644 C642 1.391 . S
C644 C645 1.400 . S
C645 C639 1.491 . S
C645 C644 1.400 . S
C645 C646 1.398 . S
C646 H634 0.950 . S
C646 C645 1.398 . S
C646 C647 1.391 . S
C647 H635 0.950 . S
C647 C643 1.393 . S
C647 C646 1.391 . S
H648 C656 0.950 . S
H649 C661 0.950 . S
H650 C658 0.950 . S
H651 C660 0.950 . S
H652 C662 0.950 . S
H653 C664 0.950 . S
H654 C666 0.950 . S
H655 C667 0.950 . S
C656 H648 0.950 . S
C656 C657 1.386 . S
C656 C658 1.391 . S
C657 C656 1.386 . S
C657 C661 1.393 . S
C658 H650 0.950 . S
C658 C656 1.391 . S
C658 C659 1.400 . S
C659 C658 1.400 . S
C659 C660 1.398 . S
C659 C665 1.491 . S
C660 H651 0.950 . S
C660 C659 1.398 . S
C660 C661 1.391 . S
C661 H649 0.950 . S
C661 C657 1.393 . S
C661 C660 1.391 . S
C662 H652 0.950 . S
C662 C663 1.386 . S
C662 C664 1.391 . S
C663 C662 1.386 . S
C663 C667 1.393 . S
C664 H653 0.950 . S
C664 C662 1.391 . S
C664 C665 1.400 . S
C665 C659 1.491 . S
C665 C664 1.400 . S
C665 C666 1.398 . S
C666 H654 0.950 . S
C666 C665 1.398 . S
C666 C667 1.391 . S
C667 H655 0.950 . S
C667 C663 1.393 . S
C667 C666 1.391 . S
H668 C676 0.950 . S
H669 C681 0.950 . S
H670 C678 0.950 . S
H671 C680 0.950 . S
H672 C682 0.950 . S
H673 C684 0.950 . S
H674 C686 0.950 . S
H675 C687 0.950 . S
C676 H668 0.950 . S
C676 C677 1.386 . S
C676 C678 1.391 . S
C677 C676 1.386 . S
C677 C681 1.393 . S
C678 H670 0.950 . S
C678 C676 1.391 . S
C678 C679 1.400 . S
C679 C678 1.400 . S
C679 C680 1.398 . S
C679 C685 1.491 . S
C680 H671 0.950 . S
C680 C679 1.398 . S
C680 C681 1.391 . S
C681 H669 0.950 . S
C681 C677 1.393 . S
C681 C680 1.391 . S
C682 H672 0.950 . S
C682 C683 1.386 . S
C682 C684 1.391 . S
C683 C682 1.386 . S
C683 C687 1.393 . S
C684 H673 0.950 . S
C684 C682 1.391 . S
C684 C685 1.400 . S
C685 C679 1.491 . S
C685 C684 1.400 . S
C685 C686 1.398 . S
C686 H674 0.950 . S
C686 C685 1.398 . S
C686 C687 1.391 . S
C687 H675 0.950 . S
C687 C683 1.393 . S
C687 C686 1.391 . S
H688 C696 0.950 . S
H689 C701 0.950 . S
H690 C698 0.950 . S
H691 C700 0.950 . S
H692 C702 0.950 . S
H693 C704 0.950 . S
H694 C706 0.950 . S
H695 C707 0.950 . S
C696 H688 0.950 . S
C696 C697 1.386 . S
C696 C698 1.391 . S
C697 C696 1.386 . S
C697 C701 1.393 . S
C698 H690 0.950 . S
C698 C696 1.391 . S
C698 C699 1.400 . S
C699 C698 1.400 . S
C699 C700 1.398 . S
C699 C705 1.491 . S
C700 H691 0.950 . S
C700 C699 1.398 . S
C700 C701 1.391 . S
C701 H689 0.950 . S
C701 C697 1.393 . S
C701 C700 1.391 . S
C702 H692 0.950 . S
C702 C703 1.386 . S
C702 C704 1.391 . S
C703 C702 1.386 . S
C703 C707 1.393 . S
C704 H693 0.950 . S
C704 C702 1.391 . S
C704 C705 1.400 . S
C705 C699 1.491 . S
C705 C704 1.400 . S
C705 C706 1.398 . S
C706 H694 0.950 . S
C706 C705 1.398 . S
C706 C707 1.391 . S
C707 H695 0.950 . S
C707 C703 1.393 . S
C707 C706 1.391 . S
H708 C716 0.950 . S
H709 C721 0.950 . S
H710 C718 0.950 . S
H711 C720 0.950 . S
H712 C722 0.950 . S
H713 C724 0.950 . S
H714 C726 0.950 . S
H715 C727 0.950 . S
C716 H708 0.950 . S
C716 C717 1.386 . S
C716 C718 1.391 . S
C717 C716 1.386 . S
C717 C721 1.393 . S
C718 H710 0.950 . S
C718 C716 1.391 . S
C718 C719 1.400 . S
C719 C718 1.400 . S
C719 C720 1.398 . S
C719 C725 1.491 . S
C720 H711 0.950 . S
C720 C719 1.398 . S
C720 C721 1.391 . S
C721 H709 0.950 . S
C721 C717 1.393 . S
C721 C720 1.391 . S
C722 H712 0.950 . S
C722 C723 1.386 . S
C722 C724 1.391 . S
C723 C722 1.386 . S
C723 C727 1.393 . S
C724 H713 0.950 . S
C724 C722 1.391 . S
C724 C725 1.400 . S
C725 C719 1.491 . S
C725 C724 1.400 . S
C725 C726 1.398 . S
C726 H714 0.950 . S
C726 C725 1.398 . S
C726 C727 1.391 . S
C727 H715 0.950 . S
C727 C723 1.393 . S
C727 C726 1.391 . S
H728 C736 0.950 . S
H729 C741 0.950 . S
H730 C738 0.950 . S
H731 C740 0.950 . S
H732 C742 0.950 . S
H733 C744 0.950 . S
H734 C746 0.950 . S
H735 C747 0.950 . S
C736 H728 0.950 . S
C736 C737 1.386 . S
C736 C738 1.391 . S
C737 C736 1.386 . S
C737 C741 1.393 . S
C738 H730 0.950 . S
C738 C736 1.391 . S
C738 C739 1.400 . S
C739 C738 1.400 . S
C739 C740 1.398 . S
C739 C745 1.491 . S
C740 H731 0.950 . S
C740 C739 1.398 . S
C740 C741 1.391 . S
C741 H729 0.950 . S
C741 C737 1.393 . S
C741 C740 1.391 . S
C742 H732 0.950 . S
C742 C743 1.386 . S
C742 C744 1.391 . S
C743 C742 1.386 . S
C743 C747 1.393 . S
C744 H733 0.950 . S
C744 C742 1.391 . S
C744 C745 1.400 . S
C745 C739 1.491 . S
C745 C744 1.400 . S
C745 C746 1.398 . S
C746 H734 0.950 . S
C746 C745 1.398 . S
C746 C747 1.391 . S
C747 H735 0.950 . S
C747 C743 1.393 . S
C747 C746 1.391 . S
H748 C756 0.950 . S
H749 C761 0.950 . S
H750 C758 0.950 . S
H751 C760 0.950 . S
H752 C762 0.950 . S
H753 C764 0.950 . S
H754 C766 0.950 . S
H755 C767 0.950 . S
C756 H748 0.950 . S
C756 C757 1.386 . S
C756 C758 1.391 . S
C757 C756 1.386 . S
C757 C761 1.393 . S
C758 H750 0.950 . S
C758 C756 1.391 . S
C758 C759 1.400 . S
C759 C758 1.400 . S
C759 C760 1.398 . S
C759 C765 1.491 . S
C760 H751 0.950 . S
C760 C759 1.398 . S
C760 C761 1.391 . S
C761 H749 0.950 . S
C761 C757 1.393 . S
C761 C760 1.391 . S
C762 H752 0.950 . S
C762 C763 1.386 . S
C762 C764 1.391 . S
C763 C762 1.386 . S
C763 C767 1.393 . S
C764 H753 0.950 . S
C764 C762 1.391 . S
C764 C765 1.400 . S
C765 C759 1.491 . S
C765 C764 1.400 . S
C765 C766 1.398 . S
C766 H754 0.950 . S
C766 C765 1.398 . S
C766 C767 1.391 . S
C767 H755 0.950 . S
C767 C763 1.393 . S
C767 C766 1.391 . S
H768 C776 0.950 . S
H769 C781 0.950 . S
H770 C778 0.950 . S
H771 C780 0.950 . S
H772 C782 0.950 . S
H773 C784 0.950 . S
H774 C786 0.950 . S
H775 C787 0.950 . S
C776 H768 0.950 . S
C776 C777 1.386 . S
C776 C778 1.391 . S
C777 C776 1.386 . S
C777 C781 1.393 . S
C778 H770 0.950 . S
C778 C776 1.391 . S
C778 C779 1.400 . S
C779 C778 1.400 . S
C779 C780 1.398 . S
C779 C785 1.491 . S
C780 H771 0.950 . S
C780 C779 1.398 . S
C780 C781 1.391 . S
C781 H769 0.950 . S
C781 C777 1.393 . S
C781 C780 1.391 . S
C782 H772 0.950 . S
C782 C783 1.386 . S
C782 C784 1.391 . S
C783 C782 1.386 . S
C783 C787 1.393 . S
C784 H773 0.950 . S
C784 C782 1.391 . S
C784 C785 1.400 . S
C785 C779 1.491 . S
C785 C784 1.400 . S
C785 C786 1.398 . S
C786 H774 0.950 . S
C786 C785 1.398 . S
C786 C787 1.391 . S
C787 H775 0.950 . S
C787 C783 1.393 . S
C787 C786 1.391 . S
H788 C796 0.950 . S
H789 C801 0.950 . S
H790 C798 0.950 . S
H791 C800 0.950 . S
H792 C802 0.950 . S
H793 C804 0.950 . S
H794 C806 0.950 . S
H795 C807 0.950 . S
C796 H788 0.950 . S
C796 C797 1.386 . S
C796 C798 1.391 . S
C797 C796 1.386 . S
C797 C801 1.393 . S
C798 H790 0.950 . S
C798 C796 1.391 . S
C798 C799 1.400 . S
C799 C798 1.400 . S
C799 C800 1.398 . S
C799 C805 1.491 . S
C800 H791 0.950 . S
C800 C799 1.398 . S
C800 C801 1.391 . S
C801 H789 0.950 . S
C801 C797 1.393 . S
C801 C800 1.391 . S
C802 H792 0.950 . S
C802 C803 1.386 . S
C802 C804 1.391 . S
C803 C802 1.386 . S
C803 C807 1.393 . S
C804 H793 0.950 . S
C804 C802 1.391 . S
C804 C805 1.400 . S
C805 C799 1.491 . S
C805 C804 1.400 . S
C805 C806 1.398 . S
C806 H794 0.950 . S
C806 C805 1.398 . S
C806 C807 1.391 . S
C807 H795 0.950 . S
C807 C803 1.393 . S
C807 C806 1.391 . S
H808 C816 0.950 . S
H809 C821 0.950 . S
H810 C818 0.950 . S
H811 C820 0.950 . S
H812 C822 0.950 . S
H813 C824 0.950 . S
H814 C826 0.950 . S
H815 C827 0.950 . S
C816 H808 0.950 . S
C816 C817 1.386 . S
C816 C818 1.391 . S
C817 C816 1.386 . S
C817 C821 1.393 . S
C818 H810 0.950 . S
C818 C816 1.391 . S
C818 C819 1.400 . S
C819 C818 1.400 . S
C819 C820 1.398 . S
C819 C825 1.491 . S
C820 H811 0.950 . S
C820 C819 1.398 . S
C820 C821 1.391 . S
C821 H809 0.950 . S
C821 C817 1.393 . S
C821 C820 1.391 . S
C822 H812 0.950 . S
C822 C823 1.386 . S
C822 C824 1.391 . S
C823 C822 1.386 . S
C823 C827 1.393 . S
C824 H813 0.950 . S
C824 C822 1.391 . S
C824 C825 1.400 . S
C825 C819 1.491 . S
C825 C824 1.400 . S
C825 C826 1.398 . S
C826 H814 0.950 . S
C826 C825 1.398 . S
C826 C827 1.391 . S
C827 H815 0.950 . S
C827 C823 1.393 . S
C827 C826 1.391 . S
H828 C836 0.950 . S
H829 C841 0.950 . S
H830 C838 0.950 . S
H831 C840 0.950 . S
H832 C842 0.950 . S
H833 C844 0.950 . S
H834 C846 0.950 . S
H835 C847 0.950 . S
C836 H828 0.950 . S
C836 C837 1.386 . S
C836 C838 1.391 . S
C837 C836 1.386 . S
C837 C841 1.393 . S
C838 H830 0.950 . S
C838 C836 1.391 . S
C838 C839 1.400 . S
C839 C838 1.400 . S
C839 C840 1.398 . S
C839 C845 1.491 . S
C840 H831 0.950 . S
C840 C839 1.398 . S
C840 C841 1.391 . S
C841 H829 0.950 . S
C841 C837 1.393 . S
C841 C840 1.391 . S
C842 H832 0.950 . S
C842 C843 1.386 . S
C842 C844 1.391 . S
C843 C842 1.386 . S
C843 C847 1.393 . S
C844 H833 0.950 . S
C844 C842 1.391 . S
C844 C845 1.400 . S
C845 C839 1.491 . S
C845 C844 1.400 . S
C845 C846 1.398 . S
C846 H834 0.950 . S
C846 C845 1.398 . S
C846 C847 1.391 . S
C847 H835 0.950 . S
C847 C843 1.393 . S
C847 C846 1.391 . S
H848 C856 0.950 . S
H849 C861 0.950 . S
H850 C858 0.950 . S
H851 C860 0.950 . S
H852 C862 0.950 . S
H853 C864 0.950 . S
H854 C866 0.950 . S
H855 C867 0.950 . S
C856 H848 0.950 . S
C856 C857 1.386 . S
C856 C858 1.391 . S
C857 C856 1.386 . S
C857 C861 1.393 . S
C858 H850 0.950 . S
C858 C856 1.391 . S
C858 C859 1.400 . S
C859 C858 1.400 . S
C859 C860 1.398 . S
C859 C865 1.491 . S
C860 H851 0.950 . S
C860 C859 1.398 . S
C860 C861 1.391 . S
C861 H849 0.950 . S
C861 C857 1.393 . S
C861 C860 1.391 . S
C862 H852 0.950 . S
C862 C863 1.386 . S
C862 C864 1.391 . S
C863 C862 1.386 . S
C863 C867 1.393 . S
C864 H853 0.950 . S
C864 C862 1.391 . S
C864 C865 1.400 . S
C865 C859 1.491 . S
C865 C864 1.400 . S
C865 C866 1.398 . S
C866 H854 0.950 . S
C866 C865 1.398 . S
C866 C867 1.391 . S
C867 H855 0.950 . S
C867 C863 1.393 . S
C867 C866 1.391 . S
H868 C876 0.950 . S
H869 C881 0.950 . S
H870 C878 0.950 . S
H871 C880 0.950 . S
H872 C882 0.950 . S
H873 C884 0.950 . S
H874 C886 0.950 . S
H875 C887 0.950 . S
C876 H868 0.950 . S
C876 C877 1.386 . S
C876 C878 1.391 . S
C877 C876 1.386 . S
C877 C881 1.393 . S
C878 H870 0.950 . S
C878 C876 1.391 . S
C878 C879 1.400 . S
C879 C878 1.400 . S
C879 C880 1.398 . S
C879 C885 1.491 . S
C880 H871 0.950 . S
C880 C879 1.398 . S
C880 C881 1.391 . S
C881 H869 0.950 . S
C881 C877 1.393 . S
C881 C880 1.391 . S
C882 H872 0.950 . S
C882 C883 1.386 . S
C882 C884 1.391 . S
C883 C882 1.386 . S
C883 C887 1.393 . S
C884 H873 0.950 . S
C884 C882 1.391 . S
C884 C885 1.400 . S
C885 C879 1.491 . S
C885 C884 1.400 . S
C885 C886 1.398 . S
C886 H874 0.950 . S
C886 C885 1.398 . S
C886 C887 1.391 . S
C887 H875 0.950 . S
C887 C883 1.393 . S
C887 C886 1.391 . S
H888 C896 0.950 . S
H889 C901 0.950 . S
H890 C898 0.950 . S
H891 C900 0.950 . S
H892 C902 0.950 . S
H893 C904 0.950 . S
H894 C906 0.950 . S
H895 C907 0.950 . S
C896 H888 0.950 . S
C896 C897 1.386 . S
C896 C898 1.391 . S
C897 C896 1.386 . S
C897 C901 1.393 . S
C898 H890 0.950 . S
C898 C896 1.391 . S
C898 C899 1.400 . S
C899 C898 1.400 . S
C899 C900 1.398 . S
C899 C905 1.491 . S
C900 H891 0.950 . S
C900 C899 1.398 . S
C900 C901 1.391 . S
C901 H889 0.950 . S
C901 C897 1.393 . S
C901 C900 1.391 . S
C902 H892 0.950 . S
C902 C903 1.386 . S
C902 C904 1.391 . S
C903 C902 1.386 . S
C903 C907 1.393 . S
C904 H893 0.950 . S
C904 C902 1.391 . S
C904 C905 1.400 . S
C905 C899 1.491 . S
C905 C904 1.400 . S
C905 C906 1.398 . S
C906 H894 0.950 . S
C906 C905 1.398 . S
C906 C907 1.391 . S
C907 H895 0.950 . S
C907 C903 1.393 . S
C907 C906 1.391 . S
H908 C916 0.950 . S
H909 C921 0.950 . S
H910 C918 0.950 . S
H911 C920 0.950 . S
H912 C922 0.950 . S
H913 C924 0.950 . S
H914 C926 0.950 . S
H915 C927 0.950 . S
C916 H908 0.950 . S
C916 C917 1.386 . S
C916 C918 1.391 . S
C917 C916 1.386 . S
C917 C921 1.393 . S
C918 H910 0.950 . S
C918 C916 1.391 . S
C918 C919 1.400 . S
C919 C918 1.400 . S
C919 C920 1.398 . S
C919 C925 1.491 . S
C920 H911 0.950 . S
C920 C919 1.398 . S
C920 C921 1.391 . S
C921 H909 0.950 . S
C921 C917 1.393 . S
C921 C920 1.391 . S
C922 H912 0.950 . S
C922 C923 1.386 . S
C922 C924 1.391 . S
C923 C922 1.386 . S
C923 C927 1.393 . S
C924 H913 0.950 . S
C924 C922 1.391 . S
C924 C925 1.400 . S
C925 C919 1.491 . S
C925 C924 1.400 . S
C925 C926 1.398 . S
C926 H914 0.950 . S
C926 C925 1.398 . S
C926 C927 1.391 . S
C927 H915 0.950 . S
C927 C923 1.393 . S
C927 C926 1.391 . S
H928 C936 0.950 . S
H929 C941 0.950 . S
H930 C938 0.950 . S
H931 C940 0.950 . S
H932 C942 0.950 . S
H933 C944 0.950 . S
H934 C946 0.950 . S
H935 C947 0.950 . S
C936 H928 0.950 . S
C936 C937 1.386 . S
C936 C938 1.391 . S
C937 C936 1.386 . S
C937 C941 1.393 . S
C938 H930 0.950 . S
C938 C936 1.391 . S
C938 C939 1.400 . S
C939 C938 1.400 . S
C939 C940 1.398 . S
C939 C945 1.491 . S
C940 H931 0.950 . S
C940 C939 1.398 . S
C940 C941 1.391 . S
C941 H929 0.950 . S
C941 C937 1.393 . S
C941 C940 1.391 . S
C942 H932 0.950 . S
C942 C943 1.386 . S
C942 C944 1.391 . S
C943 C942 1.386 . S
C943 C947 1.393 . S
C944 H933 0.950 . S
C944 C942 1.391 . S
C944 C945 1.400 . S
C945 C939 1.491 . S
C945 C944 1.400 . S
C945 C946 1.398 . S
C946 H934 0.950 . S
C946 C945 1.398 . S
C946 C947 1.391 . S
C947 H935 0.950 . S
C947 C943 1.393 . S
C947 C946 1.391 . S
H948 C956 0.950 . S
H949 C961 0.950 . S
H950 C958 0.950 . S
H951 C960 0.950 . S
H952 C962 0.950 . S
H953 C964 0.950 . S
H954 C966 0.950 . S
H955 C967 0.950 . S
C956 H948 0.950 . S
C956 C957 1.386 . S
C956 C958 1.391 . S
C957 C956 1.386 . S
C957 C961 1.393 . S
C958 H950 0.950 . S
C958 C956 1.391 . S
C958 C959 1.400 . S
C959 C958 1.400 . S
C959 C960 1.398 . S
C959 C965 1.491 . S
C960 H951 0.950 . S
C960 C959 1.398 . S
C960 C961 1.391 . S
C961 H949 0.950 . S
C961 C957 1.393 . S
C961 C960 1.391 . S
C962 H952 0.950 . S
C962 C963 1.386 . S
C962 C964 1.391 . S
C963 C962 1.386 . S
C963 C967 1.393 . S
C964 H953 0.950 . S
C964 C962 1.391 . S
C964 C965 1.400 . S
C965 C959 1.491 . S
C965 C964 1.400 . S
C965 C966 1.398 . S
C966 H954 0.950 . S
C966 C965 1.398 . S
C966 C967 1.391 . S
C967 H955 0.950 . S
C967 C963 1.393 . S
C967 C966 1.391 . S
H968 C976 0.950 . S
H969 C981 0.950 . S
H970 C978 0.950 . S
H971 C980 0.950 . S
H972 C982 0.950 . S
H973 C984 0.950 . S
H974 C986 0.950 . S
H975 C987 0.950 . S
C976 H968 0.950 . S
C976 C977 1.386 . S
C976 C978 1.391 . S
C977 C976 1.386 . S
C977 C981 1.393 . S
C978 H970 0.950 . S
C978 C976 1.391 . S
C978 C979 1.400 . S
C979 C978 1.400 . S
C979 C980 1.398 . S
C979 C985 1.491 . S
C980 H971 0.950 . S
C980 C979 1.398 . S
C980 C981 1.391 . S
C981 H969 0.950 . S
C981 C977 1.393 . S
C981 C980 1.391 . S
C982 H972 0.950 . S
C982 C983 1.386 . S
C982 C984 1.391 . S
C983 C982 1.386 . S
C983 C987 1.393 . S
C984 H973 0.950 . S
C984 C982 1.391 . S
C984 C985 1.400 . S
C985 C979 1.491 . S
C985 C984 1.400 . S
C985 C986 1.398 . S
C986 H974 0.950 . S
C986 C985 1.398 . S
C986 C987 1.391 . S
C987 H975 0.950 . S
C987 C983 1.393 . S
C987 C986 1.391 . S
H988 C996 0.950 . S
H989 C1001 0.950 . S
H990 C998 0.950 . S
H991 C1000 0.950 . S
H992 C1002 0.950 . S
H993 C1004 0.950 . S
H994 C1006 0.950 . S
H995 C1007 0.950 . S
C996 H988 0.950 . S
C996 C997 1.386 . S
C996 C998 1.391 . S
C997 C996 1.386 . S
C997 C1001 1.393 . S
C998 H990 0.950 . S
C998 C996 1.391 . S
C998 C999 1.400 . S
C999 C998 1.400 . S
C999 C1000 1.398 . S
C999 C1005 1.491 . S
C1000 H991 0.950 . S
C1000 C999 1.398 . S
C1000 C1001 1.391 . S
C1001 H989 0.950 . S
C1001 C997 1.393 . S
C1001 C1000 1.391 . S
C1002 H992 0.950 . S
C1002 C1003 1.386 . S
C1002 C1004 1.391 . S
C1003 C1002 1.386 . S
C1003 C1007 1.393 . S
C1004 H993 0.950 . S
C1004 C1002 1.391 . S
C1004 C1005 1.400 . S
C1005 C999 1.491 . S
C1005 C1004 1.400 . S
C1005 C1006 1.398 . S
C1006 H994 0.950 . S
C1006 C1005 1.398 . S
C1006 C1007 1.391 . S
C1007 H995 0.950 . S
C1007 C1003 1.393 . S
C1007 C1006 1.391 . S
H1008 C1016 0.950 . S
H1009 C1021 0.950 1_565 S
H1010 C1018 0.950 . S
H1011 C1020 0.950 1_565 S
H1012 C1022 0.950 1_565 S
H1013 C1024 0.950 1_565 S
H1014 C1026 0.950 . S
H1015 C1027 0.950 . S
C1016 H1008 0.950 . S
C1016 C1017 1.386 . S
C1016 C1018 1.391 . S
C1017 C1016 1.386 . S
C1017 C1021 1.393 . S
C1018 H1010 0.950 . S
C1018 C1016 1.391 . S
C1018 C1019 1.400 . S
C1019 C1018 1.400 . S
C1019 C1020 1.398 . S
C1019 C1025 1.491 . S
C1020 H1011 0.950 1_545 S
C1020 C1019 1.398 . S
C1020 C1021 1.391 . S
C1021 H1009 0.950 1_545 S
C1021 C1017 1.393 . S
C1021 C1020 1.391 . S
C1022 H1012 0.950 1_545 S
C1022 C1023 1.386 . S
C1022 C1024 1.391 . S
C1023 C1022 1.386 . S
C1023 C1027 1.393 . S
C1024 H1013 0.950 1_545 S
C1024 C1022 1.391 . S
C1024 C1025 1.400 . S
C1025 C1019 1.491 . S
C1025 C1024 1.400 . S
C1025 C1026 1.398 . S
C1026 H1014 0.950 . S
C1026 C1025 1.398 . S
C1026 C1027 1.391 . S
C1027 H1015 0.950 . S
C1027 C1023 1.393 . S
C1027 C1026 1.391 . S
H1028 C1036 0.950 . S
H1029 C1041 0.950 . S
H1030 C1038 0.950 . S
H1031 C1040 0.950 . S
H1032 C1042 0.950 . S
H1033 C1044 0.950 . S
H1034 C1046 0.950 . S
H1035 C1047 0.950 . S
C1036 H1028 0.950 . S
C1036 C1037 1.386 . S
C1036 C1038 1.391 . S
C1037 C1036 1.386 . S
C1037 C1041 1.393 . S
C1038 H1030 0.950 . S
C1038 C1036 1.391 . S
C1038 C1039 1.400 . S
C1039 C1038 1.400 . S
C1039 C1040 1.398 . S
C1039 C1045 1.491 . S
C1040 H1031 0.950 . S
C1040 C1039 1.398 . S
C1040 C1041 1.391 . S
C1041 H1029 0.950 . S
C1041 C1037 1.393 . S
C1041 C1040 1.391 . S
C1042 H1032 0.950 . S
C1042 C1043 1.386 . S
C1042 C1044 1.391 . S
C1043 C1042 1.386 . S
C1043 C1047 1.393 . S
C1044 H1033 0.950 . S
C1044 C1042 1.391 . S
C1044 C1045 1.400 . S
C1045 C1039 1.491 . S
C1045 C1044 1.400 . S
C1045 C1046 1.398 . S
C1046 H1034 0.950 . S
C1046 C1045 1.398 . S
C1046 C1047 1.391 . S
C1047 H1035 0.950 . S
C1047 C1043 1.393 . S
C1047 C1046 1.391 . S
H1048 C1056 0.950 . S
H1049 C1061 0.950 . S
H1050 C1058 0.950 . S
H1051 C1060 0.950 . S
H1052 C1062 0.950 . S
H1053 C1064 0.950 . S
H1054 C1066 0.950 . S
H1055 C1067 0.950 . S
C1056 H1048 0.950 . S
C1056 C1057 1.386 . S
C1056 C1058 1.391 . S
C1057 C1056 1.386 . S
C1057 C1061 1.393 . S
C1058 H1050 0.950 . S
C1058 C1056 1.391 . S
C1058 C1059 1.400 . S
C1059 C1058 1.400 . S
C1059 C1060 1.398 . S
C1059 C1065 1.491 . S
C1060 H1051 0.950 . S
C1060 C1059 1.398 . S
C1060 C1061 1.391 . S
C1061 H1049 0.950 . S
C1061 C1057 1.393 . S
C1061 C1060 1.391 . S
C1062 H1052 0.950 . S
C1062 C1063 1.386 . S
C1062 C1064 1.391 . S
C1063 C1062 1.386 . S
C1063 C1067 1.393 . S
C1064 H1053 0.950 . S
C1064 C1062 1.391 . S
C1064 C1065 1.400 . S
C1065 C1059 1.491 . S
C1065 C1064 1.400 . S
C1065 C1066 1.398 . S
C1066 H1054 0.950 . S
C1066 C1065 1.398 . S
C1066 C1067 1.391 . S
C1067 H1055 0.950 . S
C1067 C1063 1.393 . S
C1067 C1066 1.391 . S
H1068 C1076 0.950 . S
H1069 C1081 0.950 . S
H1070 C1078 0.950 . S
H1071 C1080 0.950 . S
H1072 C1082 0.950 . S
H1073 C1084 0.950 . S
H1074 C1086 0.950 . S
H1075 C1087 0.950 . S
C1076 H1068 0.950 . S
C1076 C1077 1.386 . S
C1076 C1078 1.391 . S
C1077 C1076 1.386 . S
C1077 C1081 1.393 . S
C1078 H1070 0.950 . S
C1078 C1076 1.391 . S
C1078 C1079 1.400 . S
C1079 C1078 1.400 . S
C1079 C1080 1.398 . S
C1079 C1085 1.491 . S
C1080 H1071 0.950 . S
C1080 C1079 1.398 . S
C1080 C1081 1.391 . S
C1081 H1069 0.950 . S
C1081 C1077 1.393 . S
C1081 C1080 1.391 . S
C1082 H1072 0.950 . S
C1082 C1083 1.386 . S
C1082 C1084 1.391 . S
C1083 C1082 1.386 . S
C1083 C1087 1.393 . S
C1084 H1073 0.950 . S
C1084 C1082 1.391 . S
C1084 C1085 1.400 . S
C1085 C1079 1.491 . S
C1085 C1084 1.400 . S
C1085 C1086 1.398 . S
C1086 H1074 0.950 . S
C1086 C1085 1.398 . S
C1086 C1087 1.391 . S
C1087 H1075 0.950 . S
C1087 C1083 1.393 . S
C1087 C1086 1.391 . S
H1088 C1096 0.950 . S
H1089 C1101 0.950 . S
H1090 C1098 0.950 . S
H1091 C1100 0.950 . S
H1092 C1102 0.950 . S
H1093 C1104 0.950 . S
H1094 C1106 0.950 . S
H1095 C1107 0.950 . S
C1096 H1088 0.950 . S
C1096 C1097 1.386 . S
C1096 C1098 1.391 . S
C1097 C1096 1.386 . S
C1097 C1101 1.393 . S
C1098 H1090 0.950 . S
C1098 C1096 1.391 . S
C1098 C1099 1.400 . S
C1099 C1098 1.400 . S
C1099 C1100 1.398 . S
C1099 C1105 1.491 . S
C1100 H1091 0.950 . S
C1100 C1099 1.398 . S
C1100 C1101 1.391 . S
C1101 H1089 0.950 . S
C1101 C1097 1.393 . S
C1101 C1100 1.391 . S
C1102 H1092 0.950 . S
C1102 C1103 1.386 . S
C1102 C1104 1.391 . S
C1103 C1102 1.386 . S
C1103 C1107 1.393 . S
C1104 H1093 0.950 . S
C1104 C1102 1.391 . S
C1104 C1105 1.400 . S
C1105 C1099 1.491 . S
C1105 C1104 1.400 . S
C1105 C1106 1.398 . S
C1106 H1094 0.950 . S
C1106 C1105 1.398 . S
C1106 C1107 1.391 . S
C1107 H1095 0.950 . S
C1107 C1103 1.393 . S
C1107 C1106 1.391 . S
H1108 C1116 0.950 . S
H1109 C1121 0.950 . S
H1110 C1118 0.950 . S
H1111 C1120 0.950 . S
H1112 C1122 0.950 . S
H1113 C1124 0.950 . S
H1114 C1126 0.950 . S
H1115 C1127 0.950 . S
C1116 H1108 0.950 . S
C1116 C1117 1.386 . S
C1116 C1118 1.391 . S
C1117 C1116 1.386 . S
C1117 C1121 1.393 . S
C1118 H1110 0.950 . S
C1118 C1116 1.391 . S
C1118 C1119 1.400 . S
C1119 C1118 1.400 . S
C1119 C1120 1.398 . S
C1119 C1125 1.491 . S
C1120 H1111 0.950 . S
C1120 C1119 1.398 . S
C1120 C1121 1.391 . S
C1121 H1109 0.950 . S
C1121 C1117 1.393 . S
C1121 C1120 1.391 . S
C1122 H1112 0.950 . S
C1122 C1123 1.386 . S
C1122 C1124 1.391 . S
C1123 C1122 1.386 . S
C1123 C1127 1.393 . S
C1124 H1113 0.950 . S
C1124 C1122 1.391 . S
C1124 C1125 1.400 . S
C1125 C1119 1.491 . S
C1125 C1124 1.400 . S
C1125 C1126 1.398 . S
C1126 H1114 0.950 . S
C1126 C1125 1.398 . S
C1126 C1127 1.391 . S
C1127 H1115 0.950 . S
C1127 C1123 1.393 . S
C1127 C1126 1.391 . S
H1128 C1136 0.950 . S
H1129 C1141 0.950 . S
H1130 C1138 0.950 . S
H1131 C1140 0.950 . S
H1132 C1142 0.950 . S
H1133 C1144 0.950 . S
H1134 C1146 0.950 . S
H1135 C1147 0.950 . S
C1136 H1128 0.950 . S
C1136 C1137 1.386 . S
C1136 C1138 1.391 . S
C1137 C1136 1.386 . S
C1137 C1141 1.393 . S
C1138 H1130 0.950 . S
C1138 C1136 1.391 . S
C1138 C1139 1.400 . S
C1139 C1138 1.400 . S
C1139 C1140 1.398 . S
C1139 C1145 1.491 . S
C1140 H1131 0.950 . S
C1140 C1139 1.398 . S
C1140 C1141 1.391 . S
C1141 H1129 0.950 . S
C1141 C1137 1.393 . S
C1141 C1140 1.391 . S
C1142 H1132 0.950 . S
C1142 C1143 1.386 . S
C1142 C1144 1.391 . S
C1143 C1142 1.386 . S
C1143 C1147 1.393 . S
C1144 H1133 0.950 . S
C1144 C1142 1.391 . S
C1144 C1145 1.400 . S
C1145 C1139 1.491 . S
C1145 C1144 1.400 . S
C1145 C1146 1.398 . S
C1146 H1134 0.950 . S
C1146 C1145 1.398 . S
C1146 C1147 1.391 . S
C1147 H1135 0.950 . S
C1147 C1143 1.393 . S
C1147 C1146 1.391 . S
H1148 C1156 0.950 . S
H1149 C1161 0.950 . S
H1150 C1158 0.950 . S
H1151 C1160 0.950 . S
H1152 C1162 0.950 . S
H1153 C1164 0.950 . S
H1154 C1166 0.950 . S
H1155 C1167 0.950 . S
C1156 H1148 0.950 . S
C1156 C1157 1.386 . S
C1156 C1158 1.391 . S
C1157 C1156 1.386 . S
C1157 C1161 1.393 . S
C1158 H1150 0.950 . S
C1158 C1156 1.391 . S
C1158 C1159 1.400 . S
C1159 C1158 1.400 . S
C1159 C1160 1.398 . S
C1159 C1165 1.491 . S
C1160 H1151 0.950 . S
C1160 C1159 1.398 . S
C1160 C1161 1.391 . S
C1161 H1149 0.950 . S
C1161 C1157 1.393 . S
C1161 C1160 1.391 . S
C1162 H1152 0.950 . S
C1162 C1163 1.386 . S
C1162 C1164 1.391 . S
C1163 C1162 1.386 . S
C1163 C1167 1.393 . S
C1164 H1153 0.950 . S
C1164 C1162 1.391 . S
C1164 C1165 1.400 . S
C1165 C1159 1.491 . S
C1165 C1164 1.400 . S
C1165 C1166 1.398 . S
C1166 H1154 0.950 . S
C1166 C1165 1.398 . S
C1166 C1167 1.391 . S
C1167 H1155 0.950 . S
C1167 C1163 1.393 . S
C1167 C1166 1.391 . S
H1168 C1176 0.950 1_655 S
H1169 C1181 0.950 . S
H1170 C1178 0.950 1_655 S
H1171 C1180 0.950 . S
H1172 C1182 0.950 . S
H1173 C1184 0.950 . S
H1174 C1186 0.950 1_655 S
H1175 C1187 0.864 1_655 S
C1176 H1168 0.950 1_455 S
C1176 C1177 1.386 . S
C1176 C1178 1.391 . S
C1177 C1176 1.386 . S
C1177 C1181 1.393 . S
C1178 H1170 0.950 1_455 S
C1178 C1176 1.391 . S
C1178 C1179 1.400 . S
C1179 C1178 1.400 . S
C1179 C1180 1.398 . S
C1179 C1185 1.491 . S
C1180 H1171 0.950 . S
C1180 C1179 1.398 . S
C1180 C1181 1.391 . S
C1181 H1169 0.950 . S
C1181 C1177 1.393 . S
C1181 C1180 1.391 . S
C1182 H1172 0.950 . S
C1182 C1183 1.386 . S
C1182 C1184 1.391 . S
C1183 C1182 1.386 . S
C1183 C1187 1.479 . S
C1184 H1173 0.950 . S
C1184 C1182 1.391 . S
C1184 C1185 1.400 . S
C1185 C1179 1.491 . S
C1185 C1184 1.400 . S
C1185 C1186 1.398 . S
C1186 H1174 0.950 1_455 S
C1186 C1185 1.398 . S
C1186 C1187 1.396 . S
C1187 H1175 0.864 1_455 S
C1187 C1183 1.479 . S
C1187 C1186 1.396 . S
H1188 C1196 0.950 . S
H1189 C1201 0.950 . S
H1190 C1198 0.950 . S
H1191 C1200 0.950 . S
H1192 C1202 0.950 . S
H1193 C1204 0.950 . S
H1194 C1206 0.950 . S
H1195 C1207 0.950 . S
C1196 H1188 0.950 . S
C1196 C1197 1.386 . S
C1196 C1198 1.391 . S
C1197 C1196 1.386 . S
C1197 C1201 1.393 . S
C1198 H1190 0.950 . S
C1198 C1196 1.391 . S
C1198 C1199 1.400 . S
C1199 C1198 1.400 . S
C1199 C1200 1.398 . S
C1199 C1205 1.491 . S
C1200 H1191 0.950 . S
C1200 C1199 1.398 . S
C1200 C1201 1.391 . S
C1201 H1189 0.950 . S
C1201 C1197 1.393 . S
C1201 C1200 1.391 . S
C1202 H1192 0.950 . S
C1202 C1203 1.386 . S
C1202 C1204 1.391 . S
C1203 C1202 1.386 . S
C1203 C1207 1.393 . S
C1204 H1193 0.950 . S
C1204 C1202 1.391 . S
C1204 C1205 1.400 . S
C1205 C1199 1.491 . S
C1205 C1204 1.400 . S
C1205 C1206 1.398 . S
C1206 H1194 0.950 . S
C1206 C1205 1.398 . S
C1206 C1207 1.391 . S
C1207 H1195 0.950 . S
C1207 C1203 1.393 . S
C1207 C1206 1.391 . S
H1208 C1216 0.950 . S
H1209 C1221 0.950 . S
H1210 C1218 0.950 . S
H1211 C1220 0.950 . S
H1212 C1222 0.950 . S
H1213 C1224 0.950 . S
H1214 C1226 0.950 . S
H1215 C1227 0.950 . S
C1216 H1208 0.950 . S
C1216 C1217 1.386 . S
C1216 C1218 1.391 . S
C1217 C1216 1.386 . S
C1217 C1221 1.393 . S
C1218 H1210 0.950 . S
C1218 C1216 1.391 . S
C1218 C1219 1.400 . S
C1219 C1218 1.400 . S
C1219 C1220 1.398 . S
C1219 C1225 1.491 . S
C1220 H1211 0.950 . S
C1220 C1219 1.398 . S
C1220 C1221 1.391 . S
C1221 H1209 0.950 . S
C1221 C1217 1.393 . S
C1221 C1220 1.391 . S
C1222 H1212 0.950 . S
C1222 C1223 1.386 . S
C1222 C1224 1.391 . S
C1223 C1222 1.386 . S
C1223 C1227 1.393 . S
C1224 H1213 0.950 . S
C1224 C1222 1.391 . S
C1224 C1225 1.400 . S
C1225 C1219 1.491 . S
C1225 C1224 1.400 . S
C1225 C1226 1.398 . S
C1226 H1214 0.950 . S
C1226 C1225 1.398 . S
C1226 C1227 1.391 . S
C1227 H1215 0.950 . S
C1227 C1223 1.393 . S
C1227 C1226 1.391 . S
H1228 C1236 0.950 . S
H1229 C1241 0.950 . S
H1230 C1238 0.950 . S
H1231 C1240 0.950 . S
H1232 C1242 0.950 . S
H1233 C1244 0.950 . S
H1234 C1246 0.950 . S
H1235 C1247 0.950 . S
C1236 H1228 0.950 . S
C1236 C1237 1.386 . S
C1236 C1238 1.391 . S
C1237 C1236 1.386 . S
C1237 C1241 1.393 . S
C1238 H1230 0.950 . S
C1238 C1236 1.391 . S
C1238 C1239 1.400 . S
C1239 C1238 1.400 . S
C1239 C1240 1.398 . S
C1239 C1245 1.491 . S
C1240 H1231 0.950 . S
C1240 C1239 1.398 . S
C1240 C1241 1.391 . S
C1241 H1229 0.950 . S
C1241 C1237 1.393 . S
C1241 C1240 1.391 . S
C1242 H1232 0.950 . S
C1242 C1243 1.386 . S
C1242 C1244 1.391 . S
C1243 C1242 1.386 . S
C1243 C1247 1.393 . S
C1244 H1233 0.950 . S
C1244 C1242 1.391 . S
C1244 C1245 1.400 . S
C1245 C1239 1.491 . S
C1245 C1244 1.400 . S
C1245 C1246 1.398 . S
C1246 H1234 0.950 . S
C1246 C1245 1.398 . S
C1246 C1247 1.391 . S
C1247 H1235 0.950 . S
C1247 C1243 1.393 . S
C1247 C1246 1.391 . S
H1248 C1256 0.950 . S
H1249 C1261 0.950 . S
H1250 C1258 0.950 . S
H1251 C1260 0.950 . S
H1252 C1262 0.950 . S
H1253 C1264 0.950 . S
H1254 C1266 0.950 . S
H1255 C1267 0.950 . S
C1256 H1248 0.950 . S
C1256 C1257 1.386 . S
C1256 C1258 1.391 . S
C1257 C1256 1.386 . S
C1257 C1261 1.393 . S
C1258 H1250 0.950 . S
C1258 C1256 1.391 . S
C1258 C1259 1.400 . S
C1259 C1258 1.400 . S
C1259 C1260 1.398 . S
C1259 C1265 1.491 . S
C1260 H1251 0.950 . S
C1260 C1259 1.398 . S
C1260 C1261 1.391 . S
C1261 H1249 0.950 . S
C1261 C1257 1.393 . S
C1261 C1260 1.391 . S
C1262 H1252 0.950 . S
C1262 C1263 1.386 . S
C1262 C1264 1.391 . S
C1263 C1262 1.386 . S
C1263 C1267 1.393 . S
C1264 H1253 0.950 . S
C1264 C1262 1.391 . S
C1264 C1265 1.400 . S
C1265 C1259 1.491 . S
C1265 C1264 1.400 . S
C1265 C1266 1.398 . S
C1266 H1254 0.950 . S
C1266 C1265 1.398 . S
C1266 C1267 1.391 . S
C1267 H1255 0.950 . S
C1267 C1263 1.393 . S
C1267 C1266 1.391 . S
H1268 C1276 0.950 . S
H1269 C1281 0.950 . S
H1270 C1278 0.950 . S
H1271 C1280 0.950 . S
H1272 C1282 0.950 . S
H1273 C1284 0.950 . S
H1274 C1286 0.950 . S
H1275 C1287 0.950 . S
C1276 H1268 0.950 . S
C1276 C1277 1.386 . S
C1276 C1278 1.391 . S
C1277 C1276 1.386 . S
C1277 C1281 1.393 . S
C1278 H1270 0.950 . S
C1278 C1276 1.391 . S
C1278 C1279 1.400 . S
C1279 C1278 1.400 . S
C1279 C1280 1.398 . S
C1279 C1285 1.491 . S
C1280 H1271 0.950 . S
C1280 C1279 1.398 . S
C1280 C1281 1.391 . S
C1281 H1269 0.950 . S
C1281 C1277 1.393 . S
C1281 C1280 1.391 . S
C1282 H1272 0.950 . S
C1282 C1283 1.386 . S
C1282 C1284 1.391 . S
C1283 C1282 1.386 . S
C1283 C1287 1.393 . S
C1284 H1273 0.950 . S
C1284 C1282 1.391 . S
C1284 C1285 1.400 . S
C1285 C1279 1.491 . S
C1285 C1284 1.400 . S
C1285 C1286 1.398 . S
C1286 H1274 0.950 . S
C1286 C1285 1.398 . S
C1286 C1287 1.391 . S
C1287 H1275 0.950 . S
C1287 C1283 1.393 . S
C1287 C1286 1.391 . S
H1288 C1296 0.950 . S
H1289 C1301 0.950 . S
H1290 C1298 0.950 . S
H1291 C1300 0.950 . S
H1292 C1302 0.950 . S
H1293 C1304 0.950 . S
H1294 C1306 0.950 . S
H1295 C1307 0.950 . S
C1296 H1288 0.950 . S
C1296 C1297 1.386 . S
C1296 C1298 1.391 . S
C1297 C1296 1.386 . S
C1297 C1301 1.393 . S
C1298 H1290 0.950 . S
C1298 C1296 1.391 . S
C1298 C1299 1.400 . S
C1299 C1298 1.400 . S
C1299 C1300 1.398 . S
C1299 C1305 1.491 . S
C1300 H1291 0.950 . S
C1300 C1299 1.398 . S
C1300 C1301 1.391 . S
C1301 H1289 0.950 . S
C1301 C1297 1.393 . S
C1301 C1300 1.391 . S
C1302 H1292 0.950 . S
C1302 C1303 1.386 . S
C1302 C1304 1.391 . S
C1303 C1302 1.386 . S
C1303 C1307 1.393 . S
C1304 H1293 0.950 . S
C1304 C1302 1.391 . S
C1304 C1305 1.400 . S
C1305 C1299 1.491 . S
C1305 C1304 1.400 . S
C1305 C1306 1.398 . S
C1306 H1294 0.950 . S
C1306 C1305 1.398 . S
C1306 C1307 1.391 . S
C1307 H1295 0.950 . S
C1307 C1303 1.393 . S
C1307 C1306 1.391 . S
H1308 C1316 0.950 . S
H1309 C1321 0.950 . S
H1310 C1318 0.950 . S
H1311 C1320 0.950 . S
H1312 C1322 0.950 . S
H1313 C1324 0.950 . S
H1314 C1326 0.950 . S
H1315 C1327 0.950 . S
C1316 H1308 0.950 . S
C1316 C1317 1.386 . S
C1316 C1318 1.391 . S
C1317 C1316 1.386 . S
C1317 C1321 1.393 . S
C1318 H1310 0.950 . S
C1318 C1316 1.391 . S
C1318 C1319 1.400 . S
C1319 C1318 1.400 . S
C1319 C1320 1.398 . S
C1319 C1325 1.491 . S
C1320 H1311 0.950 . S
C1320 C1319 1.398 . S
C1320 C1321 1.391 . S
C1321 H1309 0.950 . S
C1321 C1317 1.393 . S
C1321 C1320 1.391 . S
C1322 H1312 0.950 . S
C1322 C1323 1.386 . S
C1322 C1324 1.391 . S
C1323 C1322 1.386 . S
C1323 C1327 1.393 . S
C1324 H1313 0.950 . S
C1324 C1322 1.391 . S
C1324 C1325 1.400 . S
C1325 C1319 1.491 . S
C1325 C1324 1.400 . S
C1325 C1326 1.398 . S
C1326 H1314 0.950 . S
C1326 C1325 1.398 . S
C1326 C1327 1.391 . S
C1327 H1315 0.950 . S
C1327 C1323 1.393 . S
C1327 C1326 1.391 . S
H1328 C1336 0.950 . S
H1329 C1341 0.950 . S
H1330 C1338 0.950 . S
H1331 C1340 0.950 . S
H1332 C1342 0.950 . S
H1333 C1344 0.950 . S
H1334 C1346 0.950 . S
H1335 C1347 0.950 . S
C1336 H1328 0.950 . S
C1336 C1337 1.386 . S
C1336 C1338 1.391 . S
C1337 C1336 1.386 . S
C1337 C1341 1.393 . S
C1338 H1330 0.950 . S
C1338 C1336 1.391 . S
C1338 C1339 1.400 . S
C1339 C1338 1.400 . S
C1339 C1340 1.398 . S
C1339 C1345 1.491 . S
C1340 H1331 0.950 . S
C1340 C1339 1.398 . S
C1340 C1341 1.391 . S
C1341 H1329 0.950 . S
C1341 C1337 1.393 . S
C1341 C1340 1.391 . S
C1342 H1332 0.950 . S
C1342 C1343 1.386 . S
C1342 C1344 1.391 . S
C1343 C1342 1.386 . S
C1343 C1347 1.393 . S
C1344 H1333 0.950 . S
C1344 C1342 1.391 . S
C1344 C1345 1.400 . S
C1345 C1339 1.491 . S
C1345 C1344 1.400 . S
C1345 C1346 1.398 . S
C1346 H1334 0.950 . S
C1346 C1345 1.398 . S
C1346 C1347 1.391 . S
C1347 H1335 0.950 . S
C1347 C1343 1.393 . S
C1347 C1346 1.391 . S
H1348 C1356 0.950 . S
H1349 C1361 0.950 . S
H1350 C1358 0.950 . S
H1351 C1360 0.950 . S
H1352 C1362 0.950 . S
H1353 C1364 0.950 . S
H1354 C1366 0.950 . S
H1355 C1367 0.950 . S
C1356 H1348 0.950 . S
C1356 C1357 1.386 . S
C1356 C1358 1.391 . S
C1357 C1356 1.386 . S
C1357 C1361 1.393 . S
C1358 H1350 0.950 . S
C1358 C1356 1.391 . S
C1358 C1359 1.400 . S
C1359 C1358 1.400 . S
C1359 C1360 1.398 . S
C1359 C1365 1.491 . S
C1360 H1351 0.950 . S
C1360 C1359 1.398 . S
C1360 C1361 1.391 . S
C1361 H1349 0.950 . S
C1361 C1357 1.393 . S
C1361 C1360 1.391 . S
C1362 H1352 0.950 . S
C1362 C1363 1.386 . S
C1362 C1364 1.391 . S
C1363 C1362 1.386 . S
C1363 C1367 1.393 . S
C1364 H1353 0.950 . S
C1364 C1362 1.391 . S
C1364 C1365 1.400 . S
C1365 C1359 1.491 . S
C1365 C1364 1.400 . S
C1365 C1366 1.398 . S
C1366 H1354 0.950 . S
C1366 C1365 1.398 . S
C1366 C1367 1.391 . S
C1367 H1355 0.950 . S
C1367 C1363 1.393 . S
C1367 C1366 1.391 . S
H1368 C1376 0.950 . S
H1369 C1381 0.950 . S
H1370 C1378 0.950 . S
H1371 C1380 0.950 . S
H1372 C1382 0.950 . S
H1373 C1384 0.950 . S
H1374 C1386 0.950 . S
H1375 C1387 0.950 . S
C1376 H1368 0.950 . S
C1376 C1377 1.386 . S
C1376 C1378 1.391 . S
C1377 C1376 1.386 . S
C1377 C1381 1.393 . S
C1378 H1370 0.950 . S
C1378 C1376 1.391 . S
C1378 C1379 1.400 . S
C1379 C1378 1.400 . S
C1379 C1380 1.398 . S
C1379 C1385 1.491 . S
C1380 H1371 0.950 . S
C1380 C1379 1.398 . S
C1380 C1381 1.391 . S
C1381 H1369 0.950 . S
C1381 C1377 1.393 . S
C1381 C1380 1.391 . S
C1382 H1372 0.950 . S
C1382 C1383 1.386 . S
C1382 C1384 1.391 . S
C1383 C1382 1.386 . S
C1383 C1387 1.393 . S
C1384 H1373 0.950 . S
C1384 C1382 1.391 . S
C1384 C1385 1.400 . S
C1385 C1379 1.491 . S
C1385 C1384 1.400 . S
C1385 C1386 1.398 . S
C1386 H1374 0.950 . S
C1386 C1385 1.398 . S
C1386 C1387 1.391 . S
C1387 H1375 0.950 . S
C1387 C1383 1.393 . S
C1387 C1386 1.391 . S
H1388 C1396 0.950 . S
H1389 C1401 0.950 . S
H1390 C1398 0.950 . S
H1391 C1400 0.950 . S
H1392 C1402 0.950 . S
H1393 C1404 0.950 . S
H1394 C1406 0.950 . S
H1395 C1407 0.950 . S
C1396 H1388 0.950 . S
C1396 C1397 1.386 . S
C1396 C1398 1.391 . S
C1397 C1396 1.386 . S
C1397 C1401 1.393 . S
C1398 H1390 0.950 . S
C1398 C1396 1.391 . S
C1398 C1399 1.400 . S
C1399 C1398 1.400 . S
C1399 C1400 1.398 . S
C1399 C1405 1.491 . S
C1400 H1391 0.950 . S
C1400 C1399 1.398 . S
C1400 C1401 1.391 . S
C1401 H1389 0.950 . S
C1401 C1397 1.393 . S
C1401 C1400 1.391 . S
C1402 H1392 0.950 . S
C1402 C1403 1.386 . S
C1402 C1404 1.391 . S
C1403 C1402 1.386 . S
C1403 C1407 1.393 . S
C1404 H1393 0.950 . S
C1404 C1402 1.391 . S
C1404 C1405 1.400 . S
C1405 C1399 1.491 . S
C1405 C1404 1.400 . S
C1405 C1406 1.398 . S
C1406 H1394 0.950 . S
C1406 C1405 1.398 . S
C1406 C1407 1.391 . S
C1407 H1395 0.950 . S
C1407 C1403 1.393 . S
C1407 C1406 1.391 . S
H1408 C1416 0.950 . S
H1409 C1421 0.950 . S
H1410 C1418 0.950 . S
H1411 C1420 0.950 . S
H1412 C1422 0.950 . S
H1413 C1424 0.950 . S
H1414 C1426 0.950 . S
H1415 C1427 0.950 . S
C1416 H1408 0.950 . S
C1416 C1417 1.386 . S
C1416 C1418 1.391 . S
C1417 C1416 1.386 . S
C1417 C1421 1.393 . S
C1418 H1410 0.950 . S
C1418 C1416 1.391 . S
C1418 C1419 1.400 . S
C1419 C1418 1.400 . S
C1419 C1420 1.398 . S
C1419 C1425 1.491 . S
C1420 H1411 0.950 . S
C1420 C1419 1.398 . S
C1420 C1421 1.391 . S
C1421 H1409 0.950 . S
C1421 C1417 1.393 . S
C1421 C1420 1.391 . S
C1422 H1412 0.950 . S
C1422 C1423 1.386 . S
C1422 C1424 1.391 . S
C1423 C1422 1.386 . S
C1423 C1427 1.393 . S
C1424 H1413 0.950 . S
C1424 C1422 1.391 . S
C1424 C1425 1.400 . S
C1425 C1419 1.491 . S
C1425 C1424 1.400 . S
C1425 C1426 1.398 . S
C1426 H1414 0.950 . S
C1426 C1425 1.398 . S
C1426 C1427 1.391 . S
C1427 H1415 0.950 . S
C1427 C1423 1.393 . S
C1427 C1426 1.391 . S
H1428 C1436 0.950 . S
H1429 C1441 0.950 . S
H1430 C1438 0.950 . S
H1431 C1440 0.950 . S
H1432 C1442 0.950 . S
H1433 C1444 0.950 . S
H1434 C1446 0.950 . S
H1435 C1447 0.950 . S
C1436 H1428 0.950 . S
C1436 C1437 1.386 . S
C1436 C1438 1.391 . S
C1437 C1436 1.386 . S
C1437 C1441 1.393 . S
C1438 H1430 0.950 . S
C1438 C1436 1.391 . S
C1438 C1439 1.400 . S
C1439 C1438 1.400 . S
C1439 C1440 1.398 . S
C1439 C1445 1.491 . S
C1440 H1431 0.950 . S
C1440 C1439 1.398 . S
C1440 C1441 1.391 . S
C1441 H1429 0.950 . S
C1441 C1437 1.393 . S
C1441 C1440 1.391 . S
C1442 H1432 0.950 . S
C1442 C1443 1.386 . S
C1442 C1444 1.391 . S
C1443 C1442 1.386 . S
C1443 C1447 1.393 . S
C1444 H1433 0.950 . S
C1444 C1442 1.391 . S
C1444 C1445 1.400 . S
C1445 C1439 1.491 . S
C1445 C1444 1.400 . S
C1445 C1446 1.398 . S
C1446 H1434 0.950 . S
C1446 C1445 1.398 . S
C1446 C1447 1.391 . S
C1447 H1435 0.950 . S
C1447 C1443 1.393 . S
C1447 C1446 1.391 . S
H1448 C1456 0.950 . S
H1449 C1461 0.950 . S
H1450 C1458 0.950 . S
H1451 C1460 0.950 . S
H1452 C1462 0.950 . S
H1453 C1464 0.950 . S
H1454 C1466 0.950 . S
H1455 C1467 0.950 . S
C1456 H1448 0.950 . S
C1456 C1457 1.386 . S
C1456 C1458 1.391 . S
C1457 C1456 1.386 . S
C1457 C1461 1.393 . S
C1458 H1450 0.950 . S
C1458 C1456 1.391 . S
C1458 C1459 1.400 . S
C1459 C1458 1.400 . S
C1459 C1460 1.398 . S
C1459 C1465 1.491 . S
C1460 H1451 0.950 . S
C1460 C1459 1.398 . S
C1460 C1461 1.391 . S
C1461 H1449 0.950 . S
C1461 C1457 1.393 . S
C1461 C1460 1.391 . S
C1462 H1452 0.950 . S
C1462 C1463 1.386 . S
C1462 C1464 1.391 . S
C1463 C1462 1.386 . S
C1463 C1467 1.393 . S
C1464 H1453 0.950 . S
C1464 C1462 1.391 . S
C1464 C1465 1.400 . S
C1465 C1459 1.491 . S
C1465 C1464 1.400 . S
C1465 C1466 1.398 . S
C1466 H1454 0.950 . S
C1466 C1465 1.398 . S
C1466 C1467 1.391 . S
C1467 H1455 0.950 . S
C1467 C1463 1.393 . S
C1467 C1466 1.391 . S
H1468 C1476 0.950 . S
H1469 C1481 0.950 . S
H1470 C1478 0.950 . S
H1471 C1480 0.950 . S
H1472 C1482 0.950 . S
H1473 C1484 0.950 . S
H1474 C1486 0.950 . S
H1475 C1487 0.950 . S
C1476 H1468 0.950 . S
C1476 C1477 1.386 . S
C1476 C1478 1.391 . S
C1477 C1476 1.386 . S
C1477 C1481 1.393 . S
C1478 H1470 0.950 . S
C1478 C1476 1.391 . S
C1478 C1479 1.400 . S
C1479 C1478 1.400 . S
C1479 C1480 1.398 . S
C1479 C1485 1.491 . S
C1480 H1471 0.950 . S
C1480 C1479 1.398 . S
C1480 C1481 1.391 . S
C1481 H1469 0.950 . S
C1481 C1477 1.393 . S
C1481 C1480 1.391 . S
C1482 H1472 0.950 . S
C1482 C1483 1.386 . S
C1482 C1484 1.391 . S
C1483 C1482 1.386 . S
C1483 C1487 1.393 . S
C1484 H1473 0.950 . S
C1484 C1482 1.391 . S
C1484 C1485 1.400 . S
C1485 C1479 1.491 . S
C1485 C1484 1.400 . S
C1485 C1486 1.398 . S
C1486 H1474 0.950 . S
C1486 C1485 1.398 . S
C1486 C1487 1.391 . S
C1487 H1475 0.950 . S
C1487 C1483 1.393 . S
C1487 C1486 1.391 . S
H1488 C1496 0.950 . S
H1489 C1501 0.950 . S
H1490 C1498 0.950 . S
H1491 C1500 0.950 . S
H1492 C1502 0.950 . S
H1493 C1504 0.950 . S
H1494 C1506 0.950 . S
H1495 C1507 0.950 . S
C1496 H1488 0.950 . S
C1496 C1497 1.386 . S
C1496 C1498 1.391 . S
C1497 C1496 1.386 . S
C1497 C1501 1.393 . S
C1498 H1490 0.950 . S
C1498 C1496 1.391 . S
C1498 C1499 1.400 . S
C1499 C1498 1.400 . S
C1499 C1500 1.398 . S
C1499 C1505 1.491 . S
C1500 H1491 0.950 . S
C1500 C1499 1.398 . S
C1500 C1501 1.391 . S
C1501 H1489 0.950 . S
C1501 C1497 1.393 . S
C1501 C1500 1.391 . S
C1502 H1492 0.950 . S
C1502 C1503 1.386 . S
C1502 C1504 1.391 . S
C1503 C1502 1.386 . S
C1503 C1507 1.393 . S
C1504 H1493 0.950 . S
C1504 C1502 1.391 . S
C1504 C1505 1.400 . S
C1505 C1499 1.491 . S
C1505 C1504 1.400 . S
C1505 C1506 1.398 . S
C1506 H1494 0.950 . S
C1506 C1505 1.398 . S
C1506 C1507 1.391 . S
C1507 H1495 0.950 . S
C1507 C1503 1.393 . S
C1507 C1506 1.391 . S
H1508 C1516 0.950 . S
H1509 C1521 0.950 . S
H1510 C1518 0.950 . S
H1511 C1520 0.950 . S
H1512 C1522 0.950 . S
H1513 C1524 0.950 . S
H1514 C1526 0.950 . S
H1515 C1527 0.950 . S
C1516 H1508 0.950 . S
C1516 C1517 1.386 . S
C1516 C1518 1.391 . S
C1517 C1516 1.386 . S
C1517 C1521 1.393 . S
C1518 H1510 0.950 . S
C1518 C1516 1.391 . S
C1518 C1519 1.400 . S
C1519 C1518 1.400 . S
C1519 C1520 1.398 . S
C1519 C1525 1.491 . S
C1520 H1511 0.950 . S
C1520 C1519 1.398 . S
C1520 C1521 1.391 . S
C1521 H1509 0.950 . S
C1521 C1517 1.393 . S
C1521 C1520 1.391 . S
C1522 H1512 0.950 . S
C1522 C1523 1.386 . S
C1522 C1524 1.391 . S
C1523 C1522 1.386 . S
C1523 C1527 1.393 . S
C1524 H1513 0.950 . S
C1524 C1522 1.391 . S
C1524 C1525 1.400 . S
C1525 C1519 1.491 . S
C1525 C1524 1.400 . S
C1525 C1526 1.398 . S
C1526 H1514 0.950 . S
C1526 C1525 1.398 . S
C1526 C1527 1.391 . S
C1527 H1515 0.950 . S
C1527 C1523 1.393 . S
C1527 C1526 1.391 . S
H1528 C1536 0.950 . S
H1529 C1541 0.950 . S
H1530 C1538 0.950 . S
H1531 C1540 0.950 . S
H1532 C1542 0.950 . S
H1533 C1544 0.950 . S
H1534 C1546 0.950 . S
H1535 C1547 0.950 . S
C1536 H1528 0.950 . S
C1536 C1537 1.386 . S
C1536 C1538 1.391 . S
C1537 C1536 1.386 . S
C1537 C1541 1.393 . S
C1538 H1530 0.950 . S
C1538 C1536 1.391 . S
C1538 C1539 1.400 . S
C1539 C1538 1.400 . S
C1539 C1540 1.398 . S
C1539 C1545 1.491 . S
C1540 H1531 0.950 . S
C1540 C1539 1.398 . S
C1540 C1541 1.391 . S
C1541 H1529 0.950 . S
C1541 C1537 1.393 . S
C1541 C1540 1.391 . S
C1542 H1532 0.950 . S
C1542 C1543 1.386 . S
C1542 C1544 1.391 . S
C1543 C1542 1.386 . S
C1543 C1547 1.393 . S
C1544 H1533 0.950 . S
C1544 C1542 1.391 . S
C1544 C1545 1.400 . S
C1545 C1539 1.491 . S
C1545 C1544 1.400 . S
C1545 C1546 1.398 . S
C1546 H1534 0.950 . S
C1546 C1545 1.398 . S
C1546 C1547 1.391 . S
C1547 H1535 0.950 . S
C1547 C1543 1.393 . S
C1547 C1546 1.391 . S
H1548 C1556 0.950 . S
H1549 C1561 0.950 . S
H1550 C1558 0.950 . S
H1551 C1560 0.950 . S
H1552 C1562 0.950 . S
H1553 C1564 0.950 . S
H1554 C1566 0.950 . S
H1555 C1567 0.950 . S
C1556 H1548 0.950 . S
C1556 C1557 1.386 . S
C1556 C1558 1.391 . S
C1557 C1556 1.386 . S
C1557 C1561 1.393 . S
C1558 H1550 0.950 . S
C1558 C1556 1.391 . S
C1558 C1559 1.400 . S
C1559 C1558 1.400 . S
C1559 C1560 1.398 . S
C1559 C1565 1.491 . S
C1560 H1551 0.950 . S
C1560 C1559 1.398 . S
C1560 C1561 1.391 . S
C1561 H1549 0.950 . S
C1561 C1557 1.393 . S
C1561 C1560 1.391 . S
C1562 H1552 0.950 . S
C1562 C1563 1.386 . S
C1562 C1564 1.391 . S
C1563 C1562 1.386 . S
C1563 C1567 1.393 . S
C1564 H1553 0.950 . S
C1564 C1562 1.391 . S
C1564 C1565 1.400 . S
C1565 C1559 1.491 . S
C1565 C1564 1.400 . S
C1565 C1566 1.398 . S
C1566 H1554 0.950 . S
C1566 C1565 1.398 . S
C1566 C1567 1.391 . S
C1567 H1555 0.950 . S
C1567 C1563 1.393 . S
C1567 C1566 1.391 . S
H1568 C1576 0.950 . S
H1569 C1581 0.950 . S
H1570 C1578 0.950 . S
H1571 C1580 0.950 . S
H1572 C1582 0.950 . S
H1573 C1584 0.950 . S
H1574 C1586 0.950 . S
H1575 C1587 0.950 . S
C1576 H1568 0.950 . S
C1576 C1577 1.386 . S
C1576 C1578 1.391 . S
C1577 C1576 1.386 . S
C1577 C1581 1.393 . S
C1578 H1570 0.950 . S
C1578 C1576 1.391 . S
C1578 C1579 1.400 . S
C1579 C1578 1.400 . S
C1579 C1580 1.398 . S
C1579 C1585 1.491 . S
C1580 H1571 0.950 . S
C1580 C1579 1.398 . S
C1580 C1581 1.391 . S
C1581 H1569 0.950 . S
C1581 C1577 1.393 . S
C1581 C1580 1.391 . S
C1582 H1572 0.950 . S
C1582 C1583 1.386 . S
C1582 C1584 1.391 . S
C1583 C1582 1.386 . S
C1583 C1587 1.393 . S
C1584 H1573 0.950 . S
C1584 C1582 1.391 . S
C1584 C1585 1.400 . S
C1585 C1579 1.491 . S
C1585 C1584 1.400 . S
C1585 C1586 1.398 . S
C1586 H1574 0.950 . S
C1586 C1585 1.398 . S
C1586 C1587 1.391 . S
C1587 H1575 0.950 . S
C1587 C1583 1.393 . S
C1587 C1586 1.391 . S
H1588 C1596 0.950 . S
H1589 C1601 0.950 . S
H1590 C1598 0.950 . S
H1591 C1600 0.950 . S
H1592 C1602 0.950 . S
H1593 C1604 0.950 . S
H1594 C1606 0.950 . S
H1595 C1607 0.950 . S
C1596 H1588 0.950 . S
C1596 C1597 1.386 . S
C1596 C1598 1.391 . S
C1597 C1596 1.386 . S
C1597 C1601 1.393 . S
C1598 H1590 0.950 . S
C1598 C1596 1.391 . S
C1598 C1599 1.400 . S
C1599 C1598 1.400 . S
C1599 C1600 1.398 . S
C1599 C1605 1.491 . S
C1600 H1591 0.950 . S
C1600 C1599 1.398 . S
C1600 C1601 1.391 . S
C1601 H1589 0.950 . S
C1601 C1597 1.393 . S
C1601 C1600 1.391 . S
C1602 H1592 0.950 . S
C1602 C1603 1.386 . S
C1602 C1604 1.391 . S
C1603 C1602 1.386 . S
C1603 C1607 1.393 . S
C1604 H1593 0.950 . S
C1604 C1602 1.391 . S
C1604 C1605 1.400 . S
C1605 C1599 1.491 . S
C1605 C1604 1.400 . S
C1605 C1606 1.398 . S
C1606 H1594 0.950 . S
C1606 C1605 1.398 . S
C1606 C1607 1.391 . S
C1607 H1595 0.950 . S
C1607 C1603 1.393 . S
C1607 C1606 1.391 . S
H1608 C1616 0.950 . S
H1609 C1621 0.950 . S
H1610 C1618 0.950 . S
H1611 C1620 0.950 . S
H1612 C1622 0.950 . S
H1613 C1624 0.950 . S
H1614 C1626 0.950 . S
H1615 C1627 0.950 . S
C1616 H1608 0.950 . S
C1616 C1617 1.386 . S
C1616 C1618 1.391 . S
C1617 C1616 1.386 . S
C1617 C1621 1.393 . S
C1618 H1610 0.950 . S
C1618 C1616 1.391 . S
C1618 C1619 1.400 . S
C1619 C1618 1.400 . S
C1619 C1620 1.398 . S
C1619 C1625 1.491 . S
C1620 H1611 0.950 . S
C1620 C1619 1.398 . S
C1620 C1621 1.391 . S
C1621 H1609 0.950 . S
C1621 C1617 1.393 . S
C1621 C1620 1.391 . S
C1622 H1612 0.950 . S
C1622 C1623 1.386 . S
C1622 C1624 1.391 . S
C1623 C1622 1.386 . S
C1623 C1627 1.393 . S
C1624 H1613 0.950 . S
C1624 C1622 1.391 . S
C1624 C1625 1.400 . S
C1625 C1619 1.491 . S
C1625 C1624 1.400 . S
C1625 C1626 1.398 . S
C1626 H1614 0.950 . S
C1626 C1625 1.398 . S
C1626 C1627 1.391 . S
C1627 H1615 0.950 . S
C1627 C1623 1.393 . S
C1627 C1626 1.391 . S
H1628 C1636 0.950 . S
H1629 C1641 0.950 . S
H1630 C1638 0.950 . S
H1631 C1640 0.950 . S
H1632 C1642 0.950 . S
H1633 C1644 0.950 . S
H1634 C1646 0.950 . S
H1635 C1647 0.950 . S
C1636 H1628 0.950 . S
C1636 C1637 1.386 . S
C1636 C1638 1.391 . S
C1637 C1636 1.386 . S
C1637 C1641 1.393 . S
C1638 H1630 0.950 . S
C1638 C1636 1.391 . S
C1638 C1639 1.400 . S
C1639 C1638 1.400 . S
C1639 C1640 1.398 . S
C1639 C1645 1.491 . S
C1640 H1631 0.950 . S
C1640 C1639 1.398 . S
C1640 C1641 1.391 . S
C1641 H1629 0.950 . S
C1641 C1637 1.393 . S
C1641 C1640 1.391 . S
C1642 H1632 0.950 . S
C1642 C1643 1.386 . S
C1642 C1644 1.391 . S
C1643 C1642 1.386 . S
C1643 C1647 1.393 . S
C1644 H1633 0.950 . S
C1644 C1642 1.391 . S
C1644 C1645 1.400 . S
C1645 C1639 1.491 . S
C1645 C1644 1.400 . S
C1645 C1646 1.398 . S
C1646 H1634 0.950 . S
C1646 C1645 1.398 . S
C1646 C1647 1.391 . S
C1647 H1635 0.950 . S
C1647 C1643 1.393 . S
C1647 C1646 1.391 . S
H1648 C1656 0.950 . S
H1649 C1661 0.950 . S
H1650 C1658 0.950 . S
H1651 C1660 0.950 . S
H1652 C1662 0.950 . S
H1653 C1664 0.950 . S
H1654 C1666 0.950 . S
H1655 C1667 0.950 . S
C1656 H1648 0.950 . S
C1656 C1657 1.386 . S
C1656 C1658 1.391 . S
C1657 C1656 1.386 . S
C1657 C1661 1.393 . S
C1658 H1650 0.950 . S
C1658 C1656 1.391 . S
C1658 C1659 1.400 . S
C1659 C1658 1.400 . S
C1659 C1660 1.398 . S
C1659 C1665 1.491 . S
C1660 H1651 0.950 . S
C1660 C1659 1.398 . S
C1660 C1661 1.391 . S
C1661 H1649 0.950 . S
C1661 C1657 1.393 . S
C1661 C1660 1.391 . S
C1662 H1652 0.950 . S
C1662 C1663 1.386 . S
C1662 C1664 1.391 . S
C1663 C1662 1.386 . S
C1663 C1667 1.393 . S
C1664 H1653 0.950 . S
C1664 C1662 1.391 . S
C1664 C1665 1.400 . S
C1665 C1659 1.491 . S
C1665 C1664 1.400 . S
C1665 C1666 1.398 . S
C1666 H1654 0.950 . S
C1666 C1665 1.398 . S
C1666 C1667 1.391 . S
C1667 H1655 0.950 . S
C1667 C1663 1.393 . S
C1667 C1666 1.391 . S
H1668 C1676 0.950 . S
H1669 C1681 0.950 . S
H1670 C1678 0.950 . S
H1671 C1680 0.950 . S
H1672 C1682 0.950 . S
H1673 C1684 0.950 . S
H1674 C1686 0.950 . S
H1675 C1687 0.950 . S
C1676 H1668 0.950 . S
C1676 C1677 1.386 . S
C1676 C1678 1.391 . S
C1677 C1676 1.386 . S
C1677 C1681 1.393 . S
C1678 H1670 0.950 . S
C1678 C1676 1.391 . S
C1678 C1679 1.400 . S
C1679 C1678 1.400 . S
C1679 C1680 1.398 . S
C1679 C1685 1.491 . S
C1680 H1671 0.950 . S
C1680 C1679 1.398 . S
C1680 C1681 1.391 . S
C1681 H1669 0.950 . S
C1681 C1677 1.393 . S
C1681 C1680 1.391 . S
C1682 H1672 0.950 . S
C1682 C1683 1.386 . S
C1682 C1684 1.391 . S
C1683 C1682 1.386 . S
C1683 C1687 1.393 . S
C1684 H1673 0.950 . S
C1684 C1682 1.391 . S
C1684 C1685 1.400 . S
C1685 C1679 1.491 . S
C1685 C1684 1.400 . S
C1685 C1686 1.398 . S
C1686 H1674 0.950 . S
C1686 C1685 1.398 . S
C1686 C1687 1.391 . S
C1687 H1675 0.950 . S
C1687 C1683 1.393 . S
C1687 C1686 1.391 . S
H1688 C1696 0.950 . S
H1689 C1701 0.950 . S
H1690 C1698 0.950 . S
H1691 C1700 0.950 . S
H1692 C1702 0.950 . S
H1693 C1704 0.950 . S
H1694 C1706 0.950 . S
H1695 C1707 0.950 . S
C1696 H1688 0.950 . S
C1696 C1697 1.386 . S
C1696 C1698 1.391 . S
C1697 C1696 1.386 . S
C1697 C1701 1.393 . S
C1698 H1690 0.950 . S
C1698 C1696 1.391 . S
C1698 C1699 1.400 . S
C1699 C1698 1.400 . S
C1699 C1700 1.398 . S
C1699 C1705 1.491 . S
C1700 H1691 0.950 . S
C1700 C1699 1.398 . S
C1700 C1701 1.391 . S
C1701 H1689 0.950 . S
C1701 C1697 1.393 . S
C1701 C1700 1.391 . S
C1702 H1692 0.950 . S
C1702 C1703 1.386 . S
C1702 C1704 1.391 . S
C1703 C1702 1.386 . S
C1703 C1707 1.393 . S
C1704 H1693 0.950 . S
C1704 C1702 1.391 . S
C1704 C1705 1.400 . S
C1705 C1699 1.491 . S
C1705 C1704 1.400 . S
C1705 C1706 1.398 . S
C1706 H1694 0.950 . S
C1706 C1705 1.398 . S
C1706 C1707 1.391 . S
C1707 H1695 0.950 . S
C1707 C1703 1.393 . S
C1707 C1706 1.391 . S
H1708 C1716 0.950 . S
H1709 C1721 0.950 . S
H1710 C1718 0.950 . S
H1711 C1720 0.950 . S
H1712 C1722 0.950 . S
H1713 C1724 0.950 . S
H1714 C1726 0.950 . S
H1715 C1727 0.950 . S
C1716 H1708 0.950 . S
C1716 C1717 1.386 . S
C1716 C1718 1.391 . S
C1717 C1716 1.386 . S
C1717 C1721 1.393 . S
C1718 H1710 0.950 . S
C1718 C1716 1.391 . S
C1718 C1719 1.400 . S
C1719 C1718 1.400 . S
C1719 C1720 1.398 . S
C1719 C1725 1.491 . S
C1720 H1711 0.950 . S
C1720 C1719 1.398 . S
C1720 C1721 1.391 . S
C1721 H1709 0.950 . S
C1721 C1717 1.393 . S
C1721 C1720 1.391 . S
C1722 H1712 0.950 . S
C1722 C1723 1.386 . S
C1722 C1724 1.391 . S
C1723 C1722 1.386 . S
C1723 C1727 1.393 . S
C1724 H1713 0.950 . S
C1724 C1722 1.391 . S
C1724 C1725 1.400 . S
C1725 C1719 1.491 . S
C1725 C1724 1.400 . S
C1725 C1726 1.398 . S
C1726 H1714 0.950 . S
C1726 C1725 1.398 . S
C1726 C1727 1.391 . S
C1727 H1715 0.950 . S
C1727 C1723 1.393 . S
C1727 C1726 1.391 . S
H1728 C1736 0.950 . S
H1729 C1741 0.950 . S
H1730 C1738 0.950 . S
H1731 C1740 0.950 . S
H1732 C1742 0.950 . S
H1733 C1744 0.950 . S
H1734 C1746 0.950 . S
H1735 C1747 0.950 . S
C1736 H1728 0.950 . S
C1736 C1737 1.386 . S
C1736 C1738 1.391 . S
C1737 C1736 1.386 . S
C1737 C1741 1.393 . S
C1738 H1730 0.950 . S
C1738 C1736 1.391 . S
C1738 C1739 1.400 . S
C1739 C1738 1.400 . S
C1739 C1740 1.398 . S
C1739 C1745 1.491 . S
C1740 H1731 0.950 . S
C1740 C1739 1.398 . S
C1740 C1741 1.391 . S
C1741 H1729 0.950 . S
C1741 C1737 1.393 . S
C1741 C1740 1.391 . S
C1742 H1732 0.950 . S
C1742 C1743 1.386 . S
C1742 C1744 1.391 . S
C1743 C1742 1.386 . S
C1743 C1747 1.393 . S
C1744 H1733 0.950 . S
C1744 C1742 1.391 . S
C1744 C1745 1.400 . S
C1745 C1739 1.491 . S
C1745 C1744 1.400 . S
C1745 C1746 1.398 . S
C1746 H1734 0.950 . S
C1746 C1745 1.398 . S
C1746 C1747 1.391 . S
C1747 H1735 0.950 . S
C1747 C1743 1.393 . S
C1747 C1746 1.391 . S
H1748 C1756 0.950 . S
H1749 C1761 0.950 . S
H1750 C1758 0.950 . S
H1751 C1760 0.950 . S
H1752 C1762 0.950 . S
H1753 C1764 0.950 . S
H1754 C1766 0.950 . S
H1755 C1767 0.950 . S
C1756 H1748 0.950 . S
C1756 C1757 1.386 . S
C1756 C1758 1.391 . S
C1757 C1756 1.386 . S
C1757 C1761 1.393 . S
C1758 H1750 0.950 . S
C1758 C1756 1.391 . S
C1758 C1759 1.400 . S
C1759 C1758 1.400 . S
C1759 C1760 1.398 . S
C1759 C1765 1.491 . S
C1760 H1751 0.950 . S
C1760 C1759 1.398 . S
C1760 C1761 1.391 . S
C1761 H1749 0.950 . S
C1761 C1757 1.393 . S
C1761 C1760 1.391 . S
C1762 H1752 0.950 . S
C1762 C1763 1.386 . S
C1762 C1764 1.391 . S
C1763 C1762 1.386 . S
C1763 C1767 1.393 . S
C1764 H1753 0.950 . S
C1764 C1762 1.391 . S
C1764 C1765 1.400 . S
C1765 C1759 1.491 . S
C1765 C1764 1.400 . S
C1765 C1766 1.398 . S
C1766 H1754 0.950 . S
C1766 C1765 1.398 . S
C1766 C1767 1.391 . S
C1767 H1755 0.950 . S
C1767 C1763 1.393 . S
C1767 C1766 1.391 . S
H1768 C1776 0.950 . S
H1769 C1781 0.950 . S
H1770 C1778 0.950 . S
H1771 C1780 0.950 . S
H1772 C1782 0.950 . S
H1773 C1784 0.950 . S
H1774 C1786 0.950 . S
H1775 C1787 0.950 . S
C1776 H1768 0.950 . S
C1776 C1777 1.386 . S
C1776 C1778 1.391 . S
C1777 C1776 1.386 . S
C1777 C1781 1.393 . S
C1778 H1770 0.950 . S
C1778 C1776 1.391 . S
C1778 C1779 1.400 . S
C1779 C1778 1.400 . S
C1779 C1780 1.398 . S
C1779 C1785 1.491 . S
C1780 H1771 0.950 . S
C1780 C1779 1.398 . S
C1780 C1781 1.391 . S
C1781 H1769 0.950 . S
C1781 C1777 1.393 . S
C1781 C1780 1.391 . S
C1782 H1772 0.950 . S
C1782 C1783 1.386 . S
C1782 C1784 1.391 . S
C1783 C1782 1.386 . S
C1783 C1787 1.393 . S
C1784 H1773 0.950 . S
C1784 C1782 1.391 . S
C1784 C1785 1.400 . S
C1785 C1779 1.491 . S
C1785 C1784 1.400 . S
C1785 C1786 1.398 . S
C1786 H1774 0.950 . S
C1786 C1785 1.398 . S
C1786 C1787 1.391 . S
C1787 H1775 0.950 . S
C1787 C1783 1.393 . S
C1787 C1786 1.391 . S
H1788 C1796 0.950 . S
H1789 C1801 0.950 . S
H1790 C1798 0.950 . S
H1791 C1800 0.950 . S
H1792 C1802 0.950 . S
H1793 C1804 0.950 . S
H1794 C1806 0.950 . S
H1795 C1807 0.950 . S
C1796 H1788 0.950 . S
C1796 C1797 1.386 . S
C1796 C1798 1.391 . S
C1797 C1796 1.386 . S
C1797 C1801 1.393 . S
C1798 H1790 0.950 . S
C1798 C1796 1.391 . S
C1798 C1799 1.400 . S
C1799 C1798 1.400 . S
C1799 C1800 1.398 . S
C1799 C1805 1.491 . S
C1800 H1791 0.950 . S
C1800 C1799 1.398 . S
C1800 C1801 1.391 . S
C1801 H1789 0.950 . S
C1801 C1797 1.393 . S
C1801 C1800 1.391 . S
C1802 H1792 0.950 . S
C1802 C1803 1.386 . S
C1802 C1804 1.391 . S
C1803 C1802 1.386 . S
C1803 C1807 1.393 . S
C1804 H1793 0.950 . S
C1804 C1802 1.391 . S
C1804 C1805 1.400 . S
C1805 C1799 1.491 . S
C1805 C1804 1.400 . S
C1805 C1806 1.398 . S
C1806 H1794 0.950 . S
C1806 C1805 1.398 . S
C1806 C1807 1.391 . S
C1807 H1795 0.950 . S
C1807 C1803 1.393 . S
C1807 C1806 1.391 . S
H1808 C1816 0.950 . S
H1809 C1821 0.950 . S
H1810 C1818 0.950 . S
H1811 C1820 0.950 . S
H1812 C1822 0.950 . S
H1813 C1824 0.950 . S
H1814 C1826 0.950 . S
H1815 C1827 0.950 . S
C1816 H1808 0.950 . S
C1816 C1817 1.386 . S
C1816 C1818 1.391 . S
C1817 C1816 1.386 . S
C1817 C1821 1.393 . S
C1818 H1810 0.950 . S
C1818 C1816 1.391 . S
C1818 C1819 1.400 . S
C1819 C1818 1.400 . S
C1819 C1820 1.398 . S
C1819 C1825 1.491 . S
C1820 H1811 0.950 . S
C1820 C1819 1.398 . S
C1820 C1821 1.391 . S
C1821 H1809 0.950 . S
C1821 C1817 1.393 . S
C1821 C1820 1.391 . S
C1822 H1812 0.950 . S
C1822 C1823 1.386 . S
C1822 C1824 1.391 . S
C1823 C1822 1.386 . S
C1823 C1827 1.393 . S
C1824 H1813 0.950 . S
C1824 C1822 1.391 . S
C1824 C1825 1.400 . S
C1825 C1819 1.491 . S
C1825 C1824 1.400 . S
C1825 C1826 1.398 . S
C1826 H1814 0.950 . S
C1826 C1825 1.398 . S
C1826 C1827 1.391 . S
C1827 H1815 0.950 . S
C1827 C1823 1.393 . S
C1827 C1826 1.391 . S
H1828 C1836 0.950 . S
H1829 C1841 0.950 . S
H1830 C1838 0.950 . S
H1831 C1840 0.950 . S
H1832 C1842 0.950 . S
H1833 C1844 0.950 . S
H1834 C1846 0.950 . S
H1835 C1847 0.950 . S
C1836 H1828 0.950 . S
C1836 C1837 1.386 . S
C1836 C1838 1.391 . S
C1837 C1836 1.386 . S
C1837 C1841 1.393 . S
C1838 H1830 0.950 . S
C1838 C1836 1.391 . S
C1838 C1839 1.400 . S
C1839 C1838 1.400 . S
C1839 C1840 1.398 . S
C1839 C1845 1.491 . S
C1840 H1831 0.950 . S
C1840 C1839 1.398 . S
C1840 C1841 1.391 . S
C1841 H1829 0.950 . S
C1841 C1837 1.393 . S
C1841 C1840 1.391 . S
C1842 H1832 0.950 . S
C1842 C1843 1.386 . S
C1842 C1844 1.391 . S
C1843 C1842 1.386 . S
C1843 C1847 1.393 . S
C1844 H1833 0.950 . S
C1844 C1842 1.391 . S
C1844 C1845 1.400 . S
C1845 C1839 1.491 . S
C1845 C1844 1.400 . S
C1845 C1846 1.398 . S
C1846 H1834 0.950 . S
C1846 C1845 1.398 . S
C1846 C1847 1.391 . S
C1847 H1835 0.950 . S
C1847 C1843 1.393 . S
C1847 C1846 1.391 . S
H1848 C1856 0.950 . S
H1849 C1861 0.950 . S
H1850 C1858 0.950 . S
H1851 C1860 0.950 . S
H1852 C1862 0.950 . S
H1853 C1864 0.950 . S
H1854 C1866 0.950 . S
H1855 C1867 0.950 . S
C1856 H1848 0.950 . S
C1856 C1857 1.386 . S
C1856 C1858 1.391 . S
C1857 C1856 1.386 . S
C1857 C1861 1.393 . S
C1858 H1850 0.950 . S
C1858 C1856 1.391 . S
C1858 C1859 1.400 . S
C1859 C1858 1.400 . S
C1859 C1860 1.398 . S
C1859 C1865 1.491 . S
C1860 H1851 0.950 . S
C1860 C1859 1.398 . S
C1860 C1861 1.391 . S
C1861 H1849 0.950 . S
C1861 C1857 1.393 . S
C1861 C1860 1.391 . S
C1862 H1852 0.950 . S
C1862 C1863 1.386 . S
C1862 C1864 1.391 . S
C1863 C1862 1.386 . S
C1863 C1867 1.393 . S
C1864 H1853 0.950 . S
C1864 C1862 1.391 . S
C1864 C1865 1.400 . S
C1865 C1859 1.491 . S
C1865 C1864 1.400 . S
C1865 C1866 1.398 . S
C1866 H1854 0.950 . S
C1866 C1865 1.398 . S
C1866 C1867 1.391 . S
C1867 H1855 0.950 . S
C1867 C1863 1.393 . S
C1867 C1866 1.391 . S
H1868 C1876 0.950 . S
H1869 C1881 0.950 . S
H1870 C1878 0.950 . S
H1871 C1880 0.950 . S
H1872 C1882 0.950 . S
H1873 C1884 0.950 . S
H1874 C1886 0.950 . S
H1875 C1887 0.950 . S
C1876 H1868 0.950 . S
C1876 C1877 1.386 . S
C1876 C1878 1.391 . S
C1877 C1876 1.386 . S
C1877 C1881 1.393 . S
C1878 H1870 0.950 . S
C1878 C1876 1.391 . S
C1878 C1879 1.400 . S
C1879 C1878 1.400 . S
C1879 C1880 1.398 . S
C1879 C1885 1.491 . S
C1880 H1871 0.950 . S
C1880 C1879 1.398 . S
C1880 C1881 1.391 . S
C1881 H1869 0.950 . S
C1881 C1877 1.393 . S
C1881 C1880 1.391 . S
C1882 H1872 0.950 . S
C1882 C1883 1.386 . S
C1882 C1884 1.391 . S
C1883 C1882 1.386 . S
C1883 C1887 1.393 . S
C1884 H1873 0.950 . S
C1884 C1882 1.391 . S
C1884 C1885 1.400 . S
C1885 C1879 1.491 . S
C1885 C1884 1.400 . S
C1885 C1886 1.398 . S
C1886 H1874 0.950 . S
C1886 C1885 1.398 . S
C1886 C1887 1.391 . S
C1887 H1875 0.950 . S
C1887 C1883 1.393 . S
C1887 C1886 1.391 . S
H1888 C1896 0.950 . S
H1889 C1901 0.950 . S
H1890 C1898 0.950 . S
H1891 C1900 0.950 . S
H1892 C1902 0.950 . S
H1893 C1904 0.950 . S
H1894 C1906 0.950 . S
H1895 C1907 0.950 . S
C1896 H1888 0.950 . S
C1896 C1897 1.386 . S
C1896 C1898 1.391 . S
C1897 C1896 1.386 . S
C1897 C1901 1.393 . S
C1898 H1890 0.950 . S
C1898 C1896 1.391 . S
C1898 C1899 1.400 . S
C1899 C1898 1.400 . S
C1899 C1900 1.398 . S
C1899 C1905 1.491 . S
C1900 H1891 0.950 . S
C1900 C1899 1.398 . S
C1900 C1901 1.391 . S
C1901 H1889 0.950 . S
C1901 C1897 1.393 . S
C1901 C1900 1.391 . S
C1902 H1892 0.950 . S
C1902 C1903 1.386 . S
C1902 C1904 1.391 . S
C1903 C1902 1.386 . S
C1903 C1907 1.393 . S
C1904 H1893 0.950 . S
C1904 C1902 1.391 . S
C1904 C1905 1.400 . S
C1905 C1899 1.491 . S
C1905 C1904 1.400 . S
C1905 C1906 1.398 . S
C1906 H1894 0.950 . S
C1906 C1905 1.398 . S
C1906 C1907 1.391 . S
C1907 H1895 0.950 . S
C1907 C1903 1.393 . S
C1907 C1906 1.391 . S
H1908 C1916 0.950 . S
H1909 C1921 0.950 . S
H1910 C1918 0.950 . S
H1911 C1920 0.950 . S
H1912 C1922 0.950 . S
H1913 C1924 0.950 . S
H1914 C1926 0.950 . S
H1915 C1927 0.950 . S
C1916 H1908 0.950 . S
C1916 C1917 1.386 . S
C1916 C1918 1.391 . S
C1917 C1916 1.386 . S
C1917 C1921 1.393 . S
C1918 H1910 0.950 . S
C1918 C1916 1.391 . S
C1918 C1919 1.400 . S
C1919 C1918 1.400 . S
C1919 C1920 1.398 . S
C1919 C1925 1.491 . S
C1920 H1911 0.950 . S
C1920 C1919 1.398 . S
C1920 C1921 1.391 . S
C1921 H1909 0.950 . S
C1921 C1917 1.393 . S
C1921 C1920 1.391 . S
C1922 H1912 0.950 . S
C1922 C1923 1.386 . S
C1922 C1924 1.391 . S
C1923 C1922 1.386 . S
C1923 C1927 1.393 . S
C1924 H1913 0.950 . S
C1924 C1922 1.391 . S
C1924 C1925 1.400 . S
C1925 C1919 1.491 . S
C1925 C1924 1.400 . S
C1925 C1926 1.398 . S
C1926 H1914 0.950 . S
C1926 C1925 1.398 . S
C1926 C1927 1.391 . S
C1927 H1915 0.950 . S
C1927 C1923 1.393 . S
C1927 C1926 1.391 . S
H1928 C1936 0.950 . S
H1929 C1941 0.950 . S
H1930 C1938 0.950 . S
H1931 C1940 0.950 . S
H1932 C1942 0.950 . S
H1933 C1944 0.950 . S
H1934 C1946 0.950 . S
H1935 C1947 0.950 . S
C1936 H1928 0.950 . S
C1936 C1937 1.386 . S
C1936 C1938 1.391 . S
C1937 C1936 1.386 . S
C1937 C1941 1.393 . S
C1938 H1930 0.950 . S
C1938 C1936 1.391 . S
C1938 C1939 1.400 . S
C1939 C1938 1.400 . S
C1939 C1940 1.398 . S
C1939 C1945 1.491 . S
C1940 H1931 0.950 . S
C1940 C1939 1.398 . S
C1940 C1941 1.391 . S
C1941 H1929 0.950 . S
C1941 C1937 1.393 . S
C1941 C1940 1.391 . S
C1942 H1932 0.950 . S
C1942 C1943 1.386 . S
C1942 C1944 1.391 . S
C1943 C1942 1.386 . S
C1943 C1947 1.393 . S
C1944 H1933 0.950 . S
C1944 C1942 1.391 . S
C1944 C1945 1.400 . S
C1945 C1939 1.491 . S
C1945 C1944 1.400 . S
C1945 C1946 1.398 . S
C1946 H1934 0.950 . S
C1946 C1945 1.398 . S
C1946 C1947 1.391 . S
C1947 H1935 0.950 . S
C1947 C1943 1.393 . S
C1947 C1946 1.391 . S
H1948 C1956 0.950 . S
H1949 C1961 0.950 . S
H1950 C1958 0.950 . S
H1951 C1960 0.950 . S
H1952 C1962 0.950 . S
H1953 C1964 0.950 . S
H1954 C1966 0.950 . S
H1955 C1967 0.950 . S
C1956 H1948 0.950 . S
C1956 C1957 1.386 . S
C1956 C1958 1.391 . S
C1957 C1956 1.386 . S
C1957 C1961 1.393 . S
C1958 H1950 0.950 . S
C1958 C1956 1.391 . S
C1958 C1959 1.400 . S
C1959 C1958 1.400 . S
C1959 C1960 1.398 . S
C1959 C1965 1.491 . S
C1960 H1951 0.950 . S
C1960 C1959 1.398 . S
C1960 C1961 1.391 . S
C1961 H1949 0.950 . S
C1961 C1957 1.393 . S
C1961 C1960 1.391 . S
C1962 H1952 0.950 . S
C1962 C1963 1.386 . S
C1962 C1964 1.391 . S
C1963 C1962 1.386 . S
C1963 C1967 1.393 . S
C1964 H1953 0.950 . S
C1964 C1962 1.391 . S
C1964 C1965 1.400 . S
C1965 C1959 1.491 . S
C1965 C1964 1.400 . S
C1965 C1966 1.398 . S
C1966 H1954 0.950 . S
C1966 C1965 1.398 . S
C1966 C1967 1.391 . S
C1967 H1955 0.950 . S
C1967 C1963 1.393 . S
C1967 C1966 1.391 . S
C537 C5 1.251 . S
C543 C49 1.217 . S
C557 C16 1.146 . S
C563 C60 1.154 . S
C577 C71 1.160 . S
C583 C27 1.189 . S
C597 C82 1.354 . S
C603 C38 1.367 . S
C617 C93 1.246 . S
C623 C159 1.197 . S
C637 C104 1.379 . S
C643 C170 1.352 . S
C657 C137 1.493 . S
C663 C115 1.511 . S
C677 C126 1.470 . S
C683 C148 1.366 1_545 S
C697 C181 1.229 . S
C703 C500 1.182 . S
C717 C192 1.502 . S
C723 C478 1.485 . S
C737 C203 1.401 . S
C743 C225 1.386 . S
C757 C456 1.205 . S
C763 C214 1.208 . S
C777 C445 1.267 . S
C783 C236 1.286 . S
C797 C247 1.349 1_455 S
C803 C522 1.448 . S
C817 C511 1.196 . S
C823 C258 1.186 . S
C837 C269 1.271 . S
C843 C313 1.290 . S
C857 C324 1.469 . S
C863 C280 1.366 1_554 S
C877 C291 1.506 . S
C883 C335 1.525 . S
C897 C302 1.152 . S
C903 C346 1.196 . S
C917 C357 1.252 . S
C923 C423 1.271 . S
C937 C434 1.170 . S
C943 C368 1.126 . S
C957 C401 1.211 . S
C963 C379 1.208 . S
C977 C390 1.158 . S
C983 C412 1.145 . S
C997 C489 1.208 . S
C1003 C467 1.141 . S
C1017 C172 1.511 . S
C1023 C7 1.523 . S
C1037 C18 1.525 . S
C1043 C139 1.604 . S
C1057 C150 1.564 . S
C1063 C29 1.528 . S
C1077 C161 1.447 . S
C1083 C40 1.479 . S
C1097 C51 1.445 . S
C1103 C106 1.460 . S
C1117 C117 1.537 . S
C1123 C62 1.498 . S
C1137 C128 1.607 . S
C1143 C73 1.543 . S
C1157 C95 1.514 . S
C1163 C84 1.499 . S
C1177 C227 1.510 . S
C1183 C183 1.507 . S
C1197 C194 1.536 . S
C1203 C260 1.508 . S
C1217 C205 1.471 . S
C1223 C502 1.439 . S
C1237 C249 1.570 . S
C1243 C216 1.505 . S
C1257 C238 1.588 . S
C1263 C469 1.549 . S
C1277 C436 1.491 . S
C1283 C271 1.504 . S
C1297 C403 1.512 . S
C1303 C282 1.561 . S
C1317 C414 1.543 . S
C1323 C293 1.589 . S
C1337 C425 1.596 . S
C1343 C304 1.535 . S
C1357 C315 1.597 . S
C1363 C370 1.536 . S
C1377 C326 1.611 . S
C1383 C381 1.536 . S
C1397 C337 1.534 . S
C1403 C392 1.499 . S
C1417 C359 1.494 . S
C1423 C348 1.492 . S
C1437 C491 1.487 . S
C1443 C447 1.511 . S
C1457 C524 1.603 . S
C1463 C458 1.561 . S
C1477 C513 1.515 . S
C1483 C480 1.597 . S
C1497 C8 1.439 . S
C1503 C228 1.455 . S
C1517 C459 1.574 . S
C1523 C19 1.564 . S
C1537 C470 1.524 . S
C1543 C30 1.535 . S
C1557 C481 1.848 . S
C1563 C41 1.842 . S
C1577 C52 1.540 . S
C1583 C525 1.553 . S
C1597 C63 1.592 . S
C1603 C239 1.639 . S
C1617 C74 1.566 . S
C1623 C514 1.577 . S
C1637 C184 1.441 . S
C1643 C85 1.445 . S
C1657 C96 1.424 . S
C1663 C173 1.438 . S
C1677 C107 1.826 . S
C1683 C140 1.843 . S
C1697 C118 1.804 . S
C1703 C151 1.821 . S
C1717 C129 1.539 . S
C1723 C162 1.513 . S
C1737 C283 1.834 . S
C1743 C195 1.820 . S
C1757 C206 1.841 . S
C1763 C294 1.854 . S
C1777 C217 1.525 . S
C1783 C305 1.516 . S
C1797 C338 1.820 . S
C1803 C250 1.826 . S
C1817 C261 1.597 . S
C1823 C316 1.628 . S
C1837 C272 1.489 . S
C1843 C492 1.485 . S
C1857 C503 1.535 . S
C1863 C327 1.551 . S
C1877 C349 1.478 . S
C1883 C448 1.480 . S
C1897 C360 1.504 . S
C1903 C437 1.504 . S
C1917 C371 1.545 . S
C1923 C404 1.533 . S
C1937 C382 1.575 . S
C1943 C415 1.575 . S
C1957 C426 1.651 . S
C1963 C393 1.603 . S
