# Generated by pormake.
# Topology fni, (5)-cn, num edge types: 1
# Building blocks:
#     Node 0, Type 0, BuildingBlock: BEQFEK_clean_sbu_0, # of connection points: 5
#     Node 1, Type 0, BuildingBlock: BEQFEK_clean_sbu_0, # of connection points: 5
#     Node 2, Type 0, BuildingBlock: BEQFEK_clean_sbu_0, # of connection points: 5
#     Node 3, Type 0, BuildingBlock: BEQFEK_clean_sbu_0, # of connection points: 5
#     Node 4, Type 0, BuildingBlock: BEQFEK_clean_sbu_0, # of connection points: 5
#     Node 5, Type 0, BuildingBlock: BEQFEK_clean_sbu_0, # of connection points: 5
#     Node 6, Type 0, BuildingBlock: BEQFEK_clean_sbu_0, # of connection points: 5
#     Node 7, Type 0, BuildingBlock: BEQFEK_clean_sbu_0, # of connection points: 5
#     Edge 8, Type (0, 0), BuildingBlock: CIFDUS_clean_linker_0, # of connection points: 2
#     Edge 9, Type (0, 0), BuildingBlock: CIFDUS_clean_linker_0, # of connection points: 2
#     Edge 10, Type (0, 0), BuildingBlock: CIFDUS_clean_linker_0, # of connection points: 2
#     Edge 11, Type (0, 0), BuildingBlock: CIFDUS_clean_linker_0, # of connection points: 2
#     Edge 12, Type (0, 0), BuildingBlock: CIFDUS_clean_linker_0, # of connection points: 2
#     Edge 13, Type (0, 0), BuildingBlock: CIFDUS_clean_linker_0, # of connection points: 2
#     Edge 14, Type (0, 0), BuildingBlock: CIFDUS_clean_linker_0, # of connection points: 2
#     Edge 15, Type (0, 0), BuildingBlock: CIFDUS_clean_linker_0, # of connection points: 2
#     Edge 16, Type (0, 0), BuildingBlock: CIFDUS_clean_linker_0, # of connection points: 2
#     Edge 17, Type (0, 0), BuildingBlock: CIFDUS_clean_linker_0, # of connection points: 2
#     Edge 18, Type (0, 0), BuildingBlock: CIFDUS_clean_linker_0, # of connection points: 2
#     Edge 19, Type (0, 0), BuildingBlock: CIFDUS_clean_linker_0, # of connection points: 2
#     Edge 20, Type (0, 0), BuildingBlock: CIFDUS_clean_linker_0, # of connection points: 2
#     Edge 21, Type (0, 0), BuildingBlock: CIFDUS_clean_linker_0, # of connection points: 2
#     Edge 22, Type (0, 0), BuildingBlock: CIFDUS_clean_linker_0, # of connection points: 2
#     Edge 23, Type (0, 0), BuildingBlock: CIFDUS_clean_linker_0, # of connection points: 2
#     Edge 24, Type (0, 0), BuildingBlock: CIFDUS_clean_linker_0, # of connection points: 2
#     Edge 25, Type (0, 0), BuildingBlock: CIFDUS_clean_linker_0, # of connection points: 2
#     Edge 26, Type (0, 0), BuildingBlock: CIFDUS_clean_linker_0, # of connection points: 2
#     Edge 27, Type (0, 0), BuildingBlock: CIFDUS_clean_linker_0, # of connection points: 2
# Relax obj value: 0.162
# Max RMSD: 0.217
# Mean RMSD: 0.186
data_MOF--net-fni--node1-BEQFEK_clean_sbu_0--edge1-CIFDUS_clean_linker_0
_symmetry_space_group_name_H-M    P1
_symmetry_Int_Tables_number       1
_symmetry_cell_setting            triclinic
loop_
_symmetry_equiv_pos_as_xyz
'x, y, z'
_cell_length_a     45.085682
_cell_length_b     47.485331
_cell_length_c     17.080076
_cell_angle_alpha  91.031364
_cell_angle_beta   90.504828
_cell_angle_gamma 89.922906
loop_
_atom_site_label
_atom_site_type_symbol
_atom_site_fract_x
_atom_site_fract_y
_atom_site_fract_z
_atom_type_partial_charge
Co0 Co 0.37772 0.40017 0.11978 0.0
Co1 Co 0.39397 0.38047 0.94839 0.0
C2 C 0.33169 0.39983 0.99631 0.0
O3 O 0.33814 0.40488 0.06813 0.0
O4 O 0.35106 0.39058 0.94835 0.0
C5 C 0.36826 0.42717 0.28203 0.0
O6 O 0.35226 0.44852 0.25799 0.0
C7 C 0.39339 0.38441 0.77624 0.0
C8 C 0.43467 0.3623 0.74346 0.0
C9 C 0.41098 0.37722 0.71262 0.0
N10 N 0.40648 0.37491 0.84181 0.0
N11 N 0.43103 0.36147 0.82161 0.0
C12 C 0.36331 0.39765 0.77478 0.0
H13 H 0.34751 0.38349 0.80391 0.0
H14 H 0.36413 0.41798 0.80777 0.0
H15 H 0.35479 0.40103 0.71473 0.0
C16 C 0.42559 0.44137 0.08875 0.0
N17 N 0.40816 0.41953 0.06681 0.0
N18 N 0.41579 0.41072 0.99619 0.0
C19 C 0.43837 0.42676 0.97116 0.0
C20 C 0.44533 0.4466 0.02898 0.0
C21 C 0.42415 0.45602 0.16687 0.0
H22 H 0.40178 0.46536 0.17438 0.0
H23 H 0.44115 0.47279 0.17316 0.0
H24 H 0.42757 0.44042 0.21367 0.0
O25 O 0.38763 0.36003 0.12379 0.0
O26 O 0.40024 0.34443 0.00585 0.0
H27 H 0.46406 0.40357 0.88766 0.0
H28 H 0.46821 0.44126 0.88154 0.0
C29 C 0.45225 0.42402 0.89213 0.0
H30 H 0.43474 0.42447 0.84624 0.0
H31 H 0.44547 0.35199 0.86132 0.0
O32 O 0.37817 0.40918 0.23302 0.0
C33 C 0.39636 0.34029 0.07856 0.0
Co34 Co 0.61137 0.87865 0.38235 0.0
Co35 Co 0.63309 0.89294 0.21365 0.0
C36 C 0.61082 0.83468 0.25805 0.0
O37 O 0.60486 0.84157 0.32874 0.0
O38 O 0.62166 0.85243 0.21106 0.0
C39 C 0.60387 0.8585 0.5376 0.0
O40 O 0.614 0.83481 0.50719 0.0
C41 C 0.62393 0.89473 0.04426 0.0
C42 C 0.65939 0.92324 0.00595 0.0
C43 C 0.63602 0.90677 0.97852 0.0
N44 N 0.63953 0.90343 0.10761 0.0
N45 N 0.66074 0.92048 0.08434 0.0
C46 C 0.59642 0.87725 0.04762 0.0
H47 H 0.58715 0.87768 0.1076 0.0
H48 H 0.57958 0.88506 0.00541 0.0
H49 H 0.60182 0.85523 0.03077 0.0
C50 C 0.56945 0.9249 0.34716 0.0
N51 N 0.59244 0.90814 0.32776 0.0
N52 N 0.60214 0.91503 0.25826 0.0
C53 C 0.58585 0.93677 0.23165 0.0
C54 C 0.56449 0.94364 0.28695 0.0
C55 C 0.55329 0.92334 0.4231 0.0
H56 H 0.56904 0.92789 0.47198 0.0
H57 H 0.54482 0.90163 0.43056 0.0
H58 H 0.53466 0.93858 0.42631 0.0
O59 O 0.65442 0.88553 0.39151 0.0
O60 O 0.67086 0.89737 0.27479 0.0
H61 H 0.61348 0.95426 0.14352 0.0
H62 H 0.5766 0.96929 0.14707 0.0
C63 C 0.58969 0.94966 0.15306 0.0
H64 H 0.5822 0.93448 0.10705 0.0
H65 H 0.67609 0.93024 0.12194 0.0
O66 O 0.59869 0.87907 0.49296 0.0
C67 C 0.67546 0.89291 0.34729 0.0
Co68 Co 0.11038 0.13244 0.41399 0.0
Co69 Co 0.13131 0.11436 0.5792 0.0
C70 C 0.1098 0.17393 0.54288 0.0
O71 O 0.1035 0.16842 0.47143 0.0
O72 O 0.12082 0.15518 0.58685 0.0
C73 C 0.08322 0.14146 0.24938 0.0
O74 O 0.05544 0.14598 0.26824 0.0
C75 C 0.11351 0.10829 0.73915 0.0
C76 C 0.15349 0.09151 0.79753 0.0
C77 C 0.12483 0.10094 0.8114 0.0
N78 N 0.13432 0.10326 0.68491 0.0
N79 N 0.1581 0.09289 0.71983 0.0
C80 C 0.08463 0.12279 0.72285 0.0
H81 H 0.08354 0.14283 0.75717 0.0
H82 H 0.08193 0.12703 0.65961 0.0
H83 H 0.06594 0.10939 0.74126 0.0
C84 C 0.06831 0.0844 0.43588 0.0
N85 N 0.09054 0.10159 0.45967 0.0
N86 N 0.10089 0.09291 0.52745 0.0
C87 C 0.08608 0.0695 0.54773 0.0
C88 C 0.06476 0.06358 0.49091 0.0
C89 C 0.05149 0.0872 0.36068 0.0
H90 H 0.0673 0.08872 0.31162 0.0
H91 H 0.03813 0.1068 0.36332 0.0
H92 H 0.03649 0.06901 0.34967 0.0
O93 O 0.15326 0.12409 0.41044 0.0
O94 O 0.1701 0.10967 0.525 0.0
H95 H 0.11602 0.05341 0.63472 0.0
H96 H 0.08444 0.03105 0.61354 0.0
C97 C 0.092 0.05317 0.62038 0.0
H98 H 0.07968 0.06293 0.66975 0.0
H99 H 0.17784 0.08794 0.69123 0.0
O100 O 0.10261 0.13633 0.30142 0.0
C101 C 0.17435 0.11522 0.45326 0.0
Co102 Co 0.88196 0.61442 0.70593 0.0
Co103 Co 0.8994 0.63273 0.87758 0.0
C104 C 0.83658 0.61499 0.82973 0.0
O105 O 0.84267 0.61009 0.75791 0.0
O106 O 0.85637 0.62361 0.87824 0.0
C107 C 0.86046 0.60998 0.54811 0.0
O108 O 0.83661 0.62199 0.57722 0.0
C109 C 0.90216 0.6234 0.04626 0.0
C110 C 0.93354 0.65603 0.08846 0.0
C111 C 0.91537 0.63451 0.11341 0.0
N112 N 0.91171 0.63781 0.98436 0.0
N113 N 0.93056 0.65727 0.00995 0.0
C114 C 0.88257 0.59806 0.04053 0.0
H115 H 0.85998 0.60394 0.05966 0.0
H116 H 0.88159 0.58966 0.97953 0.0
H117 H 0.89087 0.5815 0.08027 0.0
C118 C 0.92871 0.57181 0.73691 0.0
N119 N 0.91223 0.59423 0.75897 0.0
N120 N 0.92064 0.60268 0.82951 0.0
C121 C 0.94314 0.58621 0.85403 0.0
C122 C 0.94889 0.56602 0.79633 0.0
C123 C 0.92577 0.55703 0.65915 0.0
H124 H 0.93247 0.57161 0.61246 0.0
H125 H 0.90219 0.55133 0.64848 0.0
H126 H 0.9398 0.53785 0.65576 0.0
O127 O 0.89211 0.65493 0.70129 0.0
O128 O 0.90546 0.66865 0.82118 0.0
H129 H 0.96413 0.61151 0.94349 0.0
H130 H 0.97828 0.57585 0.9362 0.0
C131 C 0.95811 0.58915 0.93229 0.0
H132 H 0.9425 0.58267 0.97836 0.0
H133 H 0.94122 0.67152 0.97392 0.0
O134 O 0.88129 0.6028 0.59416 0.0
C135 C 0.90115 0.67396 0.74907 0.0
Co136 Co 0.4054 0.14057 0.34336 0.0
Co137 Co 0.38287 0.11836 0.1778 0.0
C138 C 0.39947 0.17989 0.21244 0.0
O139 O 0.40743 0.17651 0.28366 0.0
O140 O 0.3897 0.15937 0.1708 0.0
C141 C 0.40007 0.15419 0.50288 0.0
O142 O 0.3762 0.16644 0.47476 0.0
C143 C 0.38927 0.11424 0.00686 0.0
C144 C 0.34875 0.09097 0.97271 0.0
C145 C 0.37243 0.1057 0.94219 0.0
N146 N 0.37591 0.10533 0.07223 0.0
N147 N 0.35207 0.09084 0.05112 0.0
C148 C 0.41589 0.13302 0.00686 0.0
H149 H 0.42337 0.13825 0.06735 0.0
H150 H 0.4343 0.12209 0.97619 0.0
H151 H 0.41081 0.1525 0.97439 0.0
C152 C 0.45069 0.09663 0.31337 0.0
N153 N 0.42653 0.11126 0.29138 0.0
N154 N 0.41657 0.10102 0.22395 0.0
C155 C 0.43394 0.07928 0.20137 0.0
C156 C 0.45622 0.07586 0.25716 0.0
C157 C 0.46681 0.10148 0.38939 0.0
H158 H 0.47254 0.12412 0.39596 0.0
H159 H 0.48721 0.08851 0.3936 0.0
H160 H 0.45191 0.09609 0.43826 0.0
O161 O 0.36355 0.12907 0.35423 0.0
O162 O 0.34647 0.11199 0.24114 0.0
H163 H 0.44395 0.04374 0.12455 0.0
H164 H 0.43488 0.0762 0.07671 0.0
C165 C 0.42954 0.06268 0.12692 0.0
H166 H 0.40593 0.05634 0.12103 0.0
H167 H 0.33694 0.08256 0.09043 0.0
O168 O 0.41893 0.14408 0.45497 0.0
C169 C 0.34276 0.11814 0.31335 0.0
Co170 Co 0.8935 0.88106 0.57716 0.0
Co171 Co 0.90843 0.86379 0.40425 0.0
C172 C 0.84792 0.88709 0.45369 0.0
O173 O 0.85479 0.89001 0.52604 0.0
O174 O 0.86646 0.87736 0.40405 0.0
C175 C 0.88382 0.90716 0.73826 0.0
O176 O 0.86743 0.92808 0.71304 0.0
C177 C 0.90861 0.86675 0.23208 0.0
C178 C 0.9511 0.84615 0.2026 0.0
C179 C 0.92705 0.85998 0.16996 0.0
N180 N 0.92159 0.85819 0.29872 0.0
N181 N 0.94682 0.84556 0.28052 0.0
C182 C 0.87803 0.87883 0.22799 0.0
H183 H 0.8629 0.86579 0.26294 0.0
H184 H 0.87846 0.90054 0.25302 0.0
H185 H 0.86909 0.87914 0.16741 0.0
C186 C 0.94357 0.92038 0.5519 0.0
N187 N 0.92556 0.89926 0.5277 0.0
N188 N 0.93248 0.89169 0.45559 0.0
C189 C 0.9551 0.90795 0.43161 0.0
C190 C 0.9629 0.92653 0.49193 0.0
C191 C 0.94234 0.93417 0.63122 0.0
H192 H 0.94452 0.9179 0.67669 0.0
H193 H 0.92049 0.9446 0.6385 0.0
H194 H 0.96023 0.94997 0.63989 0.0
O195 O 0.8995 0.84003 0.57701 0.0
O196 O 0.91112 0.8265 0.45666 0.0
H197 H 0.98046 0.88793 0.34151 0.0
H198 H 0.98196 0.92584 0.34041 0.0
C199 C 0.96738 0.90749 0.35049 0.0
H200 H 0.94897 0.90769 0.30709 0.0
H201 H 0.96132 0.83686 0.32148 0.0
O202 O 0.89431 0.88917 0.69021 0.0
C203 C 0.90652 0.82079 0.52808 0.0
Co204 Co 0.09883 0.36336 0.90519 0.0
Co205 Co 0.12005 0.3802 0.73826 0.0
C206 C 0.10258 0.32002 0.78111 0.0
O207 O 0.09491 0.32593 0.85125 0.0
O208 O 0.1127 0.33888 0.73654 0.0
C209 C 0.06931 0.35415 0.06403 0.0
O210 O 0.04537 0.34166 0.0362 0.0
C211 C 0.10945 0.38196 0.5684 0.0
C212 C 0.14705 0.40767 0.52919 0.0
C213 C 0.12283 0.39229 0.50148 0.0
N214 N 0.12521 0.39072 0.63165 0.0
N215 N 0.14746 0.40633 0.60778 0.0
C216 C 0.08289 0.36318 0.57292 0.0
H217 H 0.07968 0.35559 0.63303 0.0
H218 H 0.06271 0.37525 0.55713 0.0
H219 H 0.08511 0.34506 0.53139 0.0
C220 C 0.05478 0.40894 0.87251 0.0
N221 N 0.07781 0.3923 0.85205 0.0
N222 N 0.08752 0.39999 0.78316 0.0
C223 C 0.07128 0.42199 0.7582 0.0
C224 C 0.04987 0.42828 0.81374 0.0
C225 C 0.03901 0.40741 0.94897 0.0
H226 H 0.05541 0.40899 0.99762 0.0
H227 H 0.02776 0.38673 0.95253 0.0
H228 H 0.02238 0.42449 0.95588 0.0
O229 O 0.14128 0.37321 0.91275 0.0
O230 O 0.15733 0.3881 0.79871 0.0
H231 H 0.09989 0.4411 0.67497 0.0
H232 H 0.06295 0.45609 0.67782 0.0
C233 C 0.07598 0.43637 0.68203 0.0
H234 H 0.06901 0.42205 0.6334 0.0
H235 H 0.16341 0.41538 0.64499 0.0
O236 O 0.08922 0.36256 0.01785 0.0
C237 C 0.16185 0.383 0.87084 0.0
Co238 Co 0.60182 0.6417 0.9115 0.0
Co239 Co 0.62535 0.626 0.07819 0.0
C240 C 0.60619 0.68538 0.03658 0.0
O241 O 0.59892 0.67894 0.96618 0.0
O242 O 0.61659 0.66701 0.08281 0.0
C243 C 0.60402 0.6567 0.75702 0.0
O244 O 0.62589 0.67148 0.7882 0.0
C245 C 0.62056 0.62405 0.2486 0.0
C246 C 0.66181 0.60185 0.28105 0.0
C247 C 0.63763 0.61602 0.3123 0.0
N248 N 0.63409 0.61514 0.18277 0.0
N249 N 0.65845 0.6014 0.20264 0.0
C250 C 0.59371 0.64259 0.24996 0.0
H251 H 0.58497 0.64589 0.18996 0.0
H252 H 0.5761 0.63273 0.28506 0.0
H253 H 0.59935 0.66312 0.27838 0.0
C254 C 0.55792 0.59759 0.94929 0.0
N255 N 0.58187 0.61338 0.96742 0.0
N256 N 0.59237 0.60589 0.03614 0.0
C257 C 0.5757 0.58472 0.06336 0.0
C258 C 0.55322 0.57888 0.00942 0.0
C259 C 0.5408 0.59979 0.87422 0.0
H260 H 0.55554 0.59419 0.82462 0.0
H261 H 0.53353 0.62191 0.86649 0.0
H262 H 0.52124 0.58563 0.8727 0.0
O263 O 0.64414 0.63148 0.898 0.0
O264 O 0.66144 0.61935 0.01421 0.0
H265 H 0.60458 0.56601 0.14811 0.0
H266 H 0.56737 0.55159 0.14608 0.0
C267 C 0.5807 0.57105 0.14063 0.0
H268 H 0.5743 0.58599 0.18815 0.0
H269 H 0.67364 0.59314 0.1626 0.0
O270 O 0.58701 0.64334 0.80217 0.0
C271 C 0.66526 0.62297 0.9413 0.0
H272 H 0.55979 0.52239 0.0104 0.0
H273 H 0.49406 0.58817 0.02008 0.0
H274 H 0.45453 0.55298 0.02996 0.0
H275 H 0.43881 0.50321 0.03451 0.0
H276 H 0.50446 0.43746 0.01864 0.0
H277 H 0.54405 0.47269 0.0128 0.0
C278 C 0.53677 0.52885 0.01489 0.0
C279 C 0.52959 0.5576 0.01491 0.0
C280 C 0.5143 0.50851 0.01952 0.0
C281 C 0.49984 0.56602 0.02 0.0
C282 C 0.47735 0.54595 0.02574 0.0
C283 C 0.46185 0.49677 0.03018 0.0
C284 C 0.46898 0.46801 0.02741 0.0
C285 C 0.48431 0.51713 0.02548 0.0
C286 C 0.49871 0.45962 0.02095 0.0
C287 C 0.52124 0.4797 0.01758 0.0
H288 H 0.44963 0.01943 0.26513 0.0
H289 H 0.51555 0.08471 0.25374 0.0
H290 H 0.55524 0.04946 0.26113 0.0
H291 H 0.57103 0.99994 0.27322 0.0
H292 H 0.50511 0.93475 0.28772 0.0
H293 H 0.46543 0.96989 0.27718 0.0
C294 C 0.47273 0.02575 0.26371 0.0
C295 C 0.4799 0.0544 0.25853 0.0
C296 C 0.49529 0.00542 0.269 0.0
C297 C 0.50975 0.06265 0.2576 0.0
C298 C 0.53234 0.04255 0.2619 0.0
C299 C 0.54793 0.99357 0.27372 0.0
C300 C 0.54078 0.96499 0.28103 0.0
C301 C 0.52538 0.01389 0.26799 0.0
C302 C 0.51092 0.95676 0.28238 0.0
C303 C 0.48833 0.97679 0.27615 0.0
H304 H 0.95417 0.98267 0.50785 0.0
H305 H 0.0221 0.9201 0.47142 0.0
H306 H 0.06004 0.95704 0.46822 0.0
H307 H 0.07372 0.00739 0.47598 0.0
H308 H 0.00548 0.07003 0.50654 0.0
H309 H 0.96764 0.03304 0.51158 0.0
C310 C 0.97733 0.97728 0.49955 0.0
C311 C 0.98559 0.94891 0.49055 0.0
C312 C 0.99881 0.99863 0.49651 0.0
C313 C 0.01547 0.94192 0.47871 0.0
C314 C 0.03707 0.96299 0.47686 0.0
C315 C 0.05052 0.01276 0.48375 0.0
C316 C 0.04217 0.04114 0.49144 0.0
C317 C 0.029 0.99141 0.48571 0.0
C318 C 0.01217 0.04818 0.50064 0.0
C319 C 0.99065 0.02709 0.50366 0.0
H320 H 0.05939 0.48444 0.80899 0.0
H321 H 0.99005 0.42225 0.81387 0.0
H322 H 0.95232 0.45942 0.80703 0.0
H323 H 0.93922 0.50988 0.79922 0.0
H324 H 0.00863 0.57205 0.79842 0.0
H325 H 0.04633 0.53483 0.80352 0.0
C326 C 0.03598 0.47917 0.80833 0.0
C327 C 0.0273 0.45084 0.81136 0.0
C328 C 0.01456 0.50064 0.80489 0.0
C329 C 0.99704 0.44404 0.8115 0.0
C330 C 0.97555 0.46523 0.80741 0.0
C331 C 0.96264 0.51509 0.79991 0.0
C332 C 0.97138 0.54343 0.79819 0.0
C333 C 0.98406 0.49361 0.8039 0.0
C334 C 1.00163 0.55025 0.79971 0.0
C335 C 0.02309 0.52903 0.80265 0.0
H336 H 0.39247 0.38099 0.34752 0.0
H337 H 0.35938 0.46408 0.40566 0.0
H338 H 0.37117 0.4565 0.54411 0.0
H339 H 0.39096 0.42606 0.64811 0.0
H340 H 0.42128 0.34223 0.58875 0.0
H341 H 0.41149 0.35074 0.45021 0.0
C342 C 0.38783 0.39757 0.39023 0.0
C343 C 0.37502 0.42311 0.36615 0.0
C344 C 0.39437 0.39297 0.46927 0.0
C345 C 0.36911 0.4442 0.4226 0.0
C346 C 0.37592 0.4399 0.50168 0.0
C347 C 0.39478 0.40945 0.60499 0.0
C348 C 0.4059 0.38319 0.62879 0.0
C349 C 0.38842 0.41429 0.52566 0.0
C350 C 0.41235 0.36245 0.5719 0.0
C351 C 0.40665 0.36727 0.49282 0.0
H352 H 0.62229 0.85751 0.90335 0.0
H353 H 0.63097 0.94672 0.8675 0.0
H354 H 0.61845 0.93999 0.72863 0.0
H355 H 0.60783 0.90843 0.61666 0.0
H356 H 0.60237 0.81879 0.65107 0.0
H357 H 0.60995 0.82604 0.79202 0.0
C358 C 0.62072 0.87554 0.86555 0.0
C359 C 0.62701 0.90265 0.89568 0.0
C360 C 0.61406 0.8714 0.78569 0.0
C361 C 0.6261 0.92569 0.84542 0.0
C362 C 0.61889 0.92184 0.76621 0.0
C363 C 0.60777 0.8905 0.65513 0.0
C364 C 0.60441 0.86309 0.62351 0.0
C365 C 0.61315 0.89475 0.73556 0.0
C366 C 0.60487 0.84008 0.67402 0.0
C367 C 0.60932 0.8442 0.75453 0.0
H368 H 0.15128 0.12756 0.93284 0.0
H369 H 0.06925 0.08778 0.8623 0.0
H370 H 0.04738 0.09994 0.98924 0.0
H371 H 0.05268 0.12011 0.12333 0.0
H372 H 0.13589 0.15801 0.19342 0.0
H373 H 0.1561 0.14876 0.06365 0.0
C374 C 0.12865 0.12151 0.94556 0.0
C375 C 0.11176 0.10709 0.88856 0.0
C376 C 0.11638 0.12846 0.0184 0.0
C377 C 0.08242 0.09945 0.90502 0.0
C378 C 0.06998 0.10627 0.97765 0.0
C379 C 0.07497 0.12683 0.10932 0.0
C380 C 0.09276 0.1398 0.16733 0.0
C381 C 0.08679 0.12075 0.03496 0.0
C382 C 0.12182 0.148 0.14935 0.0
C383 C 0.13346 0.14259 0.07542 0.0
H384 H 0.86233 0.62664 0.18332 0.0
H385 H 0.95655 0.6265 0.22787 0.0
H386 H 0.9479 0.61579 0.36561 0.0
H387 H 0.91343 0.60899 0.47406 0.0
H388 H 0.81905 0.61232 0.4309 0.0
H389 H 0.82782 0.61844 0.29106 0.0
C390 C 0.88096 0.62355 0.22276 0.0
C391 C 0.91006 0.62677 0.19547 0.0
C392 C 0.87574 0.61797 0.30189 0.0
C393 C 0.93398 0.62396 0.24781 0.0
C394 C 0.92903 0.6178 0.32634 0.0
C395 C 0.89475 0.61056 0.43389 0.0
C396 C 0.8656 0.61005 0.46271 0.0
C397 C 0.89998 0.61504 0.35416 0.0
C398 C 0.84167 0.6126 0.41009 0.0
C399 C 0.84668 0.61621 0.33024 0.0
H400 H 0.42089 0.10897 0.84597 0.0
H401 H 0.32693 0.12581 0.85599 0.0
H402 H 0.32782 0.14428 0.72387 0.0
H403 H 0.35466 0.15481 0.60492 0.0
H404 H 0.44804 0.13592 0.58883 0.0
H405 H 0.4482 0.11974 0.72448 0.0
C406 C 0.40075 0.11702 0.8195 0.0
C407 C 0.37392 0.11624 0.86108 0.0
C408 C 0.40135 0.12741 0.74266 0.0
C409 C 0.34782 0.12603 0.82514 0.0
C410 C 0.34833 0.13676 0.74972 0.0
C411 C 0.37522 0.14755 0.63122 0.0
C412 C 0.40139 0.1469 0.58698 0.0
C413 C 0.37491 0.13751 0.70795 0.0
C414 C 0.42763 0.13685 0.62178 0.0
C415 C 0.42769 0.12747 0.69921 0.0
H416 H 0.90494 0.90769 0.10455 0.0
H417 H 0.94031 0.8255 0.04706 0.0
H418 H 0.93077 0.83342 0.9081 0.0
H419 H 0.91042 0.86249 0.80482 0.0
H420 H 0.8725 0.94388 0.86087 0.0
H421 H 0.88417 0.93708 0.99974 0.0
C422 C 0.91001 0.89131 0.06167 0.0
C423 C 0.92244 0.86566 0.086 0.0
C424 C 0.90382 0.89578 0.98219 0.0
C425 C 0.93039 0.84524 0.02965 0.0
C426 C 0.92483 0.84972 0.95039 0.0
C427 C 0.9047 0.87888 0.84713 0.0
C428 C 0.89055 0.90369 0.82246 0.0
C429 C 0.91121 0.87473 0.92628 0.0
C430 C 0.88328 0.92456 0.87835 0.0
C431 C 0.89001 0.9207 0.95763 0.0
H432 H 0.06906 0.37956 0.42812 0.0
H433 H 0.16225 0.39184 0.38287 0.0
H434 H 0.15383 0.38109 0.24487 0.0
H435 H 0.12067 0.36759 0.13765 0.0
H436 H 0.02794 0.35269 0.18144 0.0
H437 H 0.03588 0.36393 0.32081 0.0
C438 C 0.08777 0.37911 0.38923 0.0
C439 C 0.11645 0.38592 0.41728 0.0
C440 C 0.08291 0.37228 0.30961 0.0
C441 C 0.13993 0.38667 0.36363 0.0
C442 C 0.1352 0.38037 0.2845 0.0
C443 C 0.1021 0.36674 0.17751 0.0
C444 C 0.0737 0.3594 0.14908 0.0
C445 C 0.10685 0.37306 0.25701 0.0
C446 C 0.05003 0.35819 0.20184 0.0
C447 C 0.05456 0.36473 0.28141 0.0
H448 H 0.64905 0.66395 0.65656 0.0
H449 H 0.55863 0.63471 0.66716 0.0
H450 H 0.5606 0.62014 0.52883 0.0
H451 H 0.58926 0.61341 0.40694 0.0
H452 H 0.6805 0.64034 0.40137 0.0
H453 H 0.67719 0.65766 0.53646 0.0
C454 C 0.62956 0.6548 0.62845 0.0
C455 C 0.60363 0.65066 0.67181 0.0
C456 C 0.6312 0.64567 0.55017 0.0
C457 C 0.5788 0.63826 0.6348 0.0
C458 C 0.57998 0.62981 0.55591 0.0
C459 C 0.6082 0.62345 0.43514 0.0
C460 C 0.63499 0.62591 0.39433 0.0
C461 C 0.60622 0.63307 0.51329 0.0
C462 C 0.65971 0.63816 0.43198 0.0
C463 C 0.65778 0.64819 0.50895 0.0
H464 H 0.21188 0.40463 0.80478 0.0
H465 H 0.1784 0.3721 0.02136 0.0
H466 H 0.22718 0.37702 0.08188 0.0
H467 H 0.28049 0.38738 0.07121 0.0
H468 H 0.31393 0.42004 0.85565 0.0
H469 H 0.26436 0.41844 0.79746 0.0
C470 C 0.2152 0.39876 0.8653 0.0
C471 C 0.19145 0.38773 0.90781 0.0
C472 C 0.24348 0.40156 0.90018 0.0
C473 C 0.19622 0.38047 0.98661 0.0
C474 C 0.22419 0.38329 0.02161 0.0
C475 C 0.27676 0.3946 0.01203 0.0
C476 C 0.30093 0.40323 0.96715 0.0
C477 C 0.24811 0.39341 0.9787 0.0
C478 C 0.29583 0.41248 0.89048 0.0
C479 C 0.26742 0.41171 0.8573 0.0
H480 H 0.60676 0.81601 0.10737 0.0
H481 H 0.60515 0.78711 0.3452 0.0
H482 H 0.60248 0.73827 0.29732 0.0
H483 H 0.60346 0.70391 0.1878 0.0
H484 H 0.60328 0.73318 0.95002 0.0
H485 H 0.60352 0.78199 0.99808 0.0
C486 C 0.60556 0.79911 0.1488 0.0
C487 C 0.60638 0.80527 0.22973 0.0
C488 C 0.60381 0.7712 0.12084 0.0
C489 C 0.60455 0.78301 0.28261 0.0
C490 C 0.60314 0.75508 0.25525 0.0
C491 C 0.6033 0.72095 0.14645 0.0
C492 C 0.60365 0.71489 0.0654 0.0
C493 C 0.6032 0.74894 0.1745 0.0
C494 C 0.60303 0.73724 0.01263 0.0
C495 C 0.60327 0.76515 0.04008 0.0
H496 H 0.28874 0.11017 0.24304 0.0
H497 H 0.3314 0.11694 0.4698 0.0
H498 H 0.28341 0.11449 0.53386 0.0
H499 H 0.22877 0.11362 0.5257 0.0
H500 H 0.18631 0.10917 0.29832 0.0
H501 H 0.23445 0.10732 0.23505 0.0
C502 C 0.28756 0.11074 0.30645 0.0
C503 C 0.31366 0.11385 0.35127 0.0
C504 C 0.25977 0.10991 0.34318 0.0
C505 C 0.31166 0.11474 0.43357 0.0
C506 C 0.28418 0.11335 0.47047 0.0
C507 C 0.2301 0.11192 0.46242 0.0
C508 C 0.20394 0.11171 0.41703 0.0
C509 C 0.258 0.11143 0.4259 0.0
C510 C 0.20607 0.10965 0.33489 0.0
C511 C 0.23363 0.10855 0.29843 0.0
H512 H 0.90344 0.69055 0.59729 0.0
H513 H 0.90856 0.72265 0.83523 0.0
H514 H 0.91188 0.77069 0.78726 0.0
H515 H 0.91083 0.80363 0.67847 0.0
H516 H 0.90649 0.7718 0.44029 0.0
H517 H 0.90558 0.72349 0.48789 0.0
C518 C 0.90542 0.70802 0.63879 0.0
C519 C 0.90548 0.70294 0.71993 0.0
C520 C 0.90739 0.73561 0.61079 0.0
C521 C 0.9084 0.72587 0.77261 0.0
C522 C 0.91022 0.75338 0.74519 0.0
C523 C 0.90979 0.78615 0.63676 0.0
C524 C 0.90843 0.79138 0.55581 0.0
C525 C 0.90933 0.7585 0.66451 0.0
C526 C 0.90752 0.76842 0.5028 0.0
C527 C 0.9069 0.74079 0.53003 0.0
H528 H 0.79638 0.88448 0.5356 0.0
H529 H 0.83108 0.90509 0.30952 0.0
H530 H 0.78101 0.90994 0.25694 0.0
H531 H 0.72716 0.90516 0.27259 0.0
H532 H 0.69228 0.88461 0.4992 0.0
H533 H 0.74228 0.88332 0.55391 0.0
C534 C 0.79295 0.89042 0.47517 0.0
C535 C 0.8175 0.89374 0.42604 0.0
C536 C 0.76392 0.89308 0.44511 0.0
C537 C 0.81264 0.9015 0.34791 0.0
C538 C 0.78395 0.90449 0.31787 0.0
C539 C 0.73044 0.90065 0.33408 0.0
C540 C 0.70588 0.89473 0.38119 0.0
C541 C 0.75938 0.8997 0.36543 0.0
C542 C 0.71069 0.88907 0.46104 0.0
C543 C 0.73935 0.8883 0.49264 0.0
H544 H 0.10594 0.18994 0.69647 0.0
H545 H 0.1035 0.22279 0.46243 0.0
H546 H 0.09989 0.27071 0.51595 0.0
H547 H 0.10008 0.30331 0.62866 0.0
H548 H 0.10076 0.27088 0.86305 0.0
H549 H 0.10218 0.22265 0.8098 0.0
C550 C 0.10448 0.20757 0.65714 0.0
C551 C 0.10529 0.20277 0.57547 0.0
C552 C 0.10215 0.2351 0.68833 0.0
C553 C 0.10296 0.22585 0.52541 0.0
C554 C 0.10098 0.25327 0.55598 0.0
C555 C 0.10036 0.28572 0.66825 0.0
C556 C 0.1006 0.29073 0.74981 0.0
C557 C 0.10096 0.25815 0.63727 0.0
C558 C 0.10057 0.26763 0.80011 0.0
C559 C 0.1015 0.24006 0.76966 0.0
H560 H 0.71687 0.60951 0.01596 0.0
H561 H 0.68062 0.62707 0.78712 0.0
H562 H 0.73004 0.62384 0.73064 0.0
H563 H 0.78434 0.61919 0.74767 0.0
H564 H 0.81997 0.60317 0.97755 0.0
H565 H 0.77029 0.60241 0.03163 0.0
C566 C 0.71968 0.61239 0.95361 0.0
C567 C 0.695 0.6187 0.90625 0.0
C568 C 0.74823 0.61089 0.92147 0.0
C569 C 0.69919 0.62232 0.82537 0.0
C570 C 0.7275 0.62049 0.79282 0.0
C571 C 0.78114 0.61515 0.80932 0.0
C572 C 0.80593 0.61152 0.85871 0.0
C573 C 0.7523 0.61523 0.8405 0.0
C574 C 0.80139 0.60645 0.93855 0.0
C575 C 0.77291 0.60596 0.96956 0.0
H576 H 0.39528 0.28879 0.00467 0.0
H577 H 0.40827 0.3289 0.23103 0.0
H578 H 0.41217 0.28308 0.29229 0.0
H579 H 0.40903 0.23139 0.28325 0.0
H580 H 0.3933 0.19153 0.05759 0.0
H581 H 0.39354 0.23709 0.99514 0.0
C582 C 0.39933 0.28746 0.06719 0.0
C583 C 0.40138 0.31223 0.11301 0.0
C584 C 0.4009 0.26096 0.10264 0.0
C585 C 0.40639 0.31015 0.19425 0.0
C586 C 0.40863 0.28392 0.22952 0.0
C587 C 0.4059 0.23266 0.22039 0.0
C588 C 0.40118 0.20794 0.17553 0.0
C589 C 0.40544 0.25915 0.18457 0.0
C590 C 0.39699 0.2101 0.09397 0.0
C591 C 0.39708 0.23623 0.05791 0.0
loop_
_geom_bond_atom_site_label_1
_geom_bond_atom_site_label_2
_geom_bond_distance
_geom_bond_site_symmetry_2
_ccdc_geom_bond_type
Co0 O3 1.970 . S
Co0 N17 1.989 . S
Co0 O25 1.967 . S
Co0 O32 1.920 . S
Co1 O4 1.966 . S
Co1 N10 2.022 . S
Co1 N18 1.993 . S
Co1 O26 1.941 . S
C2 O3 1.258 . S
C2 O4 1.263 1_554 S
O3 Co0 1.970 . S
O3 C2 1.258 . S
O4 Co1 1.966 . S
O4 C2 1.263 1_556 S
C5 O6 1.235 . S
C5 O32 1.289 . S
O6 C5 1.235 . S
C7 C9 1.400 . S
C7 N10 1.351 . S
C7 C12 1.501 . S
C8 C9 1.387 . S
C8 N11 1.341 . S
C9 C7 1.400 . S
C9 C8 1.387 . S
N10 Co1 2.022 . S
N10 C7 1.351 . S
N10 N11 1.365 . S
N11 C8 1.341 . S
N11 N10 1.365 . S
N11 H31 0.862 . S
C12 C7 1.501 . S
C12 H13 0.961 . S
C12 H14 0.961 . S
C12 H15 0.960 . S
H13 C12 0.961 . S
H14 C12 0.961 . S
H15 C12 0.960 . S
C16 N17 1.342 . S
C16 C20 1.401 . S
C16 C21 1.499 . S
N17 Co0 1.989 . S
N17 C16 1.342 . S
N17 N18 1.388 1_554 S
N18 Co1 1.993 . S
N18 N17 1.388 1_556 S
N18 C19 1.346 . S
C19 N18 1.346 . S
C19 C20 1.396 1_556 S
C19 C29 1.510 . S
C20 C16 1.401 . S
C20 C19 1.396 1_554 S
C21 C16 1.499 . S
C21 H22 0.959 . S
C21 H23 0.960 . S
C21 H24 0.961 . S
H22 C21 0.959 . S
H23 C21 0.960 . S
H24 C21 0.961 . S
O25 Co0 1.967 . S
O25 C33 1.258 . S
O26 Co1 1.941 . S
O26 C33 1.266 1_556 S
H27 C29 0.959 . S
H28 C29 0.961 . S
C29 C19 1.510 . S
C29 H27 0.959 . S
C29 H28 0.961 . S
C29 H30 0.960 . S
H30 C29 0.960 . S
H31 N11 0.862 . S
O32 Co0 1.920 . S
O32 C5 1.289 . S
C33 O25 1.258 . S
C33 O26 1.266 1_554 S
Co34 O37 1.970 . S
Co34 N51 1.989 . S
Co34 O59 1.967 . S
Co34 O66 1.920 . S
Co35 O38 1.966 . S
Co35 N44 2.022 . S
Co35 N52 1.993 . S
Co35 O60 1.941 . S
C36 O37 1.258 . S
C36 O38 1.263 . S
O37 Co34 1.970 . S
O37 C36 1.258 . S
O38 Co35 1.966 . S
O38 C36 1.263 . S
C39 O40 1.235 . S
C39 O66 1.289 . S
O40 C39 1.235 . S
C41 C43 1.400 . S
C41 N44 1.351 1_556 S
C41 C46 1.502 . S
C42 C43 1.387 . S
C42 N45 1.341 1_556 S
C43 C41 1.400 . S
C43 C42 1.387 . S
N44 Co35 2.022 . S
N44 C41 1.351 1_554 S
N44 N45 1.365 . S
N45 C42 1.341 1_554 S
N45 N44 1.365 . S
N45 H65 0.862 . S
C46 C41 1.502 . S
C46 H47 0.950 1_556 S
C46 H48 0.963 . S
C46 H49 0.968 . S
H47 C46 0.950 1_554 S
H48 C46 0.963 . S
H49 C46 0.968 . S
C50 N51 1.342 . S
C50 C54 1.401 . S
C50 C55 1.499 . S
N51 Co34 1.989 . S
N51 C50 1.342 . S
N51 N52 1.388 . S
N52 Co35 1.993 . S
N52 N51 1.388 . S
N52 C53 1.346 . S
C53 N52 1.346 . S
C53 C54 1.396 . S
C53 C63 1.510 . S
C54 C50 1.401 . S
C54 C53 1.396 . S
C55 C50 1.499 . S
C55 H56 0.959 . S
C55 H57 0.960 . S
C55 H58 0.961 . S
H56 C55 0.959 . S
H57 C55 0.960 . S
H58 C55 0.961 . S
O59 Co34 1.967 . S
O59 C67 1.258 . S
O60 Co35 1.941 . S
O60 C67 1.266 . S
H61 C63 0.959 . S
H62 C63 0.961 . S
C63 C53 1.510 . S
C63 H61 0.959 . S
C63 H62 0.961 . S
C63 H64 0.960 . S
H64 C63 0.960 . S
H65 N45 0.862 . S
O66 Co34 1.920 . S
O66 C39 1.289 . S
C67 O59 1.258 . S
C67 O60 1.266 . S
Co68 O71 1.970 . S
Co68 N85 1.989 . S
Co68 O93 1.967 . S
Co68 O100 1.920 . S
Co69 O72 1.966 . S
Co69 N78 2.022 . S
Co69 N86 1.993 . S
Co69 O94 1.941 . S
C70 O71 1.258 . S
C70 O72 1.263 . S
O71 Co68 1.970 . S
O71 C70 1.258 . S
O72 Co69 1.966 . S
O72 C70 1.263 . S
C73 O74 1.235 . S
C73 O100 1.289 . S
O74 C73 1.235 . S
C75 C77 1.400 . S
C75 N78 1.351 . S
C75 C80 1.501 . S
C76 C77 1.387 . S
C76 N79 1.341 . S
C77 C75 1.400 . S
C77 C76 1.387 . S
N78 Co69 2.022 . S
N78 C75 1.351 . S
N78 N79 1.365 . S
N79 C76 1.341 . S
N79 N78 1.365 . S
N79 H99 0.862 . S
C80 C75 1.501 . S
C80 H81 0.961 . S
C80 H82 0.961 . S
C80 H83 0.960 . S
H81 C80 0.961 . S
H82 C80 0.961 . S
H83 C80 0.960 . S
C84 N85 1.342 . S
C84 C88 1.401 . S
C84 C89 1.499 . S
N85 Co68 1.989 . S
N85 C84 1.342 . S
N85 N86 1.388 . S
N86 Co69 1.993 . S
N86 N85 1.388 . S
N86 C87 1.346 . S
C87 N86 1.346 . S
C87 C88 1.396 . S
C87 C97 1.510 . S
C88 C84 1.401 . S
C88 C87 1.396 . S
C89 C84 1.499 . S
C89 H90 0.959 . S
C89 H91 0.960 . S
C89 H92 0.961 . S
H90 C89 0.959 . S
H91 C89 0.960 . S
H92 C89 0.961 . S
O93 Co68 1.967 . S
O93 C101 1.258 . S
O94 Co69 1.941 . S
O94 C101 1.266 . S
H95 C97 0.959 . S
H96 C97 0.961 . S
C97 C87 1.510 . S
C97 H95 0.959 . S
C97 H96 0.961 . S
C97 H98 0.960 . S
H98 C97 0.960 . S
H99 N79 0.862 . S
O100 Co68 1.920 . S
O100 C73 1.289 . S
C101 O93 1.258 . S
C101 O94 1.266 . S
Co102 O105 1.970 . S
Co102 N119 1.989 . S
Co102 O127 1.967 . S
Co102 O134 1.920 . S
Co103 O106 1.966 . S
Co103 N112 2.022 . S
Co103 N120 1.993 . S
Co103 O128 1.941 . S
C104 O105 1.258 . S
C104 O106 1.263 . S
O105 Co102 1.970 . S
O105 C104 1.258 . S
O106 Co103 1.966 . S
O106 C104 1.263 . S
C107 O108 1.235 . S
C107 O134 1.289 . S
O108 C107 1.235 . S
C109 C111 1.400 . S
C109 N112 1.351 1_554 S
C109 C114 1.501 . S
C110 C111 1.387 . S
C110 N113 1.341 . S
C111 C109 1.400 . S
C111 C110 1.387 . S
N112 Co103 2.022 . S
N112 C109 1.351 1_556 S
N112 N113 1.365 1_556 S
N113 C110 1.341 . S
N113 N112 1.365 1_554 S
N113 H133 0.862 1_554 S
C114 C109 1.501 . S
C114 H115 0.961 1_554 S
C114 H116 0.961 . S
C114 H117 0.960 . S
H115 C114 0.961 1_556 S
H116 C114 0.961 . S
H117 C114 0.960 . S
C118 N119 1.342 . S
C118 C122 1.401 . S
C118 C123 1.499 . S
N119 Co102 1.989 . S
N119 C118 1.342 . S
N119 N120 1.388 . S
N120 Co103 1.993 . S
N120 N119 1.388 . S
N120 C121 1.346 . S
C121 N120 1.346 . S
C121 C122 1.396 . S
C121 C131 1.510 . S
C122 C118 1.401 . S
C122 C121 1.396 . S
C123 C118 1.499 . S
C123 H124 0.959 . S
C123 H125 0.960 . S
C123 H126 0.961 . S
H124 C123 0.959 . S
H125 C123 0.960 . S
H126 C123 0.961 . S
O127 Co102 1.967 . S
O127 C135 1.258 . S
O128 Co103 1.941 . S
O128 C135 1.266 . S
H129 C131 0.959 . S
H130 C131 0.961 . S
C131 C121 1.510 . S
C131 H129 0.959 . S
C131 H130 0.961 . S
C131 H132 0.960 . S
H132 C131 0.960 . S
H133 N113 0.862 1_556 S
O134 Co102 1.920 . S
O134 C107 1.289 . S
C135 O127 1.258 . S
C135 O128 1.266 . S
Co136 O139 1.970 . S
Co136 N153 1.989 . S
Co136 O161 1.967 . S
Co136 O168 1.920 . S
Co137 O140 1.966 . S
Co137 N146 2.022 . S
Co137 N154 1.993 . S
Co137 O162 1.941 . S
C138 O139 1.258 . S
C138 O140 1.263 . S
O139 Co136 1.970 . S
O139 C138 1.258 . S
O140 Co137 1.966 . S
O140 C138 1.263 . S
C141 O142 1.235 . S
C141 O168 1.289 . S
O142 C141 1.235 . S
C143 C145 1.400 . S
C143 N146 1.351 1_556 S
C143 C148 1.501 1_556 S
C144 C145 1.387 . S
C144 N147 1.341 1_556 S
C145 C143 1.400 . S
C145 C144 1.387 . S
N146 Co137 2.022 . S
N146 C143 1.351 1_554 S
N146 N147 1.365 . S
N147 C144 1.341 1_554 S
N147 N146 1.365 . S
N147 H167 0.862 . S
C148 C143 1.501 1_554 S
C148 H149 0.961 . S
C148 H150 0.961 1_554 S
C148 H151 0.960 1_554 S
H149 C148 0.961 . S
H150 C148 0.961 1_556 S
H151 C148 0.960 1_556 S
C152 N153 1.342 . S
C152 C156 1.401 . S
C152 C157 1.499 . S
N153 Co136 1.989 . S
N153 C152 1.342 . S
N153 N154 1.388 . S
N154 Co137 1.993 . S
N154 N153 1.388 . S
N154 C155 1.346 . S
C155 N154 1.346 . S
C155 C156 1.396 . S
C155 C165 1.510 . S
C156 C152 1.401 . S
C156 C155 1.396 . S
C157 C152 1.499 . S
C157 H158 0.959 . S
C157 H159 0.960 . S
C157 H160 0.961 . S
H158 C157 0.959 . S
H159 C157 0.960 . S
H160 C157 0.961 . S
O161 Co136 1.967 . S
O161 C169 1.258 . S
O162 Co137 1.941 . S
O162 C169 1.266 . S
H163 C165 0.959 . S
H164 C165 0.961 . S
C165 C155 1.510 . S
C165 H163 0.959 . S
C165 H164 0.961 . S
C165 H166 0.960 . S
H166 C165 0.960 . S
H167 N147 0.862 . S
O168 Co136 1.920 . S
O168 C141 1.289 . S
C169 O161 1.258 . S
C169 O162 1.266 . S
Co170 O173 1.970 . S
Co170 N187 1.989 . S
Co170 O195 1.967 . S
Co170 O202 1.920 . S
Co171 O174 1.966 . S
Co171 N180 2.022 . S
Co171 N188 1.993 . S
Co171 O196 1.941 . S
C172 O173 1.258 . S
C172 O174 1.263 . S
O173 Co170 1.970 . S
O173 C172 1.258 . S
O174 Co171 1.966 . S
O174 C172 1.263 . S
C175 O176 1.235 . S
C175 O202 1.289 . S
O176 C175 1.235 . S
C177 C179 1.400 . S
C177 N180 1.351 . S
C177 C182 1.501 . S
C178 C179 1.387 . S
C178 N181 1.341 . S
C179 C177 1.400 . S
C179 C178 1.387 . S
N180 Co171 2.022 . S
N180 C177 1.351 . S
N180 N181 1.365 . S
N181 C178 1.341 . S
N181 N180 1.365 . S
N181 H201 0.862 . S
C182 C177 1.501 . S
C182 H183 0.961 . S
C182 H184 0.961 . S
C182 H185 0.960 . S
H183 C182 0.961 . S
H184 C182 0.961 . S
H185 C182 0.960 . S
C186 N187 1.342 . S
C186 C190 1.401 . S
C186 C191 1.499 . S
N187 Co170 1.989 . S
N187 C186 1.342 . S
N187 N188 1.388 . S
N188 Co171 1.993 . S
N188 N187 1.388 . S
N188 C189 1.346 . S
C189 N188 1.346 . S
C189 C190 1.396 . S
C189 C199 1.510 . S
C190 C186 1.401 . S
C190 C189 1.396 . S
C191 C186 1.499 . S
C191 H192 0.959 . S
C191 H193 0.960 . S
C191 H194 0.961 . S
H192 C191 0.959 . S
H193 C191 0.960 . S
H194 C191 0.961 . S
O195 Co170 1.967 . S
O195 C203 1.258 . S
O196 Co171 1.941 . S
O196 C203 1.266 . S
H197 C199 0.959 . S
H198 C199 0.961 . S
C199 C189 1.510 . S
C199 H197 0.959 . S
C199 H198 0.961 . S
C199 H200 0.960 . S
H200 C199 0.960 . S
H201 N181 0.862 . S
O202 Co170 1.920 . S
O202 C175 1.289 . S
C203 O195 1.258 . S
C203 O196 1.266 . S
Co204 O207 1.970 . S
Co204 N221 1.989 . S
Co204 O229 1.967 . S
Co204 O236 1.920 . S
Co205 O208 1.966 . S
Co205 N214 2.022 . S
Co205 N222 1.993 . S
Co205 O230 1.941 . S
C206 O207 1.258 . S
C206 O208 1.263 . S
O207 Co204 1.970 . S
O207 C206 1.258 . S
O208 Co205 1.966 . S
O208 C206 1.263 . S
C209 O210 1.235 1_554 S
C209 O236 1.289 1_554 S
O210 C209 1.235 1_556 S
C211 C213 1.400 . S
C211 N214 1.351 . S
C211 C216 1.501 . S
C212 C213 1.387 . S
C212 N215 1.341 . S
C213 C211 1.400 . S
C213 C212 1.387 . S
N214 Co205 2.022 . S
N214 C211 1.351 . S
N214 N215 1.365 . S
N215 C212 1.341 . S
N215 N214 1.365 . S
N215 H235 0.862 . S
C216 C211 1.501 . S
C216 H217 0.961 . S
C216 H218 0.961 . S
C216 H219 0.960 . S
H217 C216 0.961 . S
H218 C216 0.961 . S
H219 C216 0.960 . S
C220 N221 1.342 . S
C220 C224 1.401 . S
C220 C225 1.499 . S
N221 Co204 1.989 . S
N221 C220 1.342 . S
N221 N222 1.388 . S
N222 Co205 1.993 . S
N222 N221 1.388 . S
N222 C223 1.346 . S
C223 N222 1.346 . S
C223 C224 1.396 . S
C223 C233 1.510 . S
C224 C220 1.401 . S
C224 C223 1.396 . S
C225 C220 1.499 . S
C225 H226 0.959 . S
C225 H227 0.960 . S
C225 H228 0.961 . S
H226 C225 0.959 . S
H227 C225 0.960 . S
H228 C225 0.961 . S
O229 Co204 1.967 . S
O229 C237 1.258 . S
O230 Co205 1.941 . S
O230 C237 1.266 . S
H231 C233 0.959 . S
H232 C233 0.961 . S
C233 C223 1.510 . S
C233 H231 0.959 . S
C233 H232 0.961 . S
C233 H234 0.960 . S
H234 C233 0.960 . S
H235 N215 0.862 . S
O236 Co204 1.920 . S
O236 C209 1.289 1_556 S
C237 O229 1.258 . S
C237 O230 1.266 . S
Co238 O241 1.970 . S
Co238 N255 1.989 . S
Co238 O263 1.967 . S
Co238 O270 1.920 . S
Co239 O242 1.966 . S
Co239 N248 2.022 . S
Co239 N256 1.993 . S
Co239 O264 1.941 . S
C240 O241 1.258 1_554 S
C240 O242 1.263 . S
O241 Co238 1.970 . S
O241 C240 1.258 1_556 S
O242 Co239 1.966 . S
O242 C240 1.263 . S
C243 O244 1.235 . S
C243 O270 1.289 . S
O244 C243 1.235 . S
C245 C247 1.400 . S
C245 N248 1.351 . S
C245 C250 1.501 . S
C246 C247 1.387 . S
C246 N249 1.341 . S
C247 C245 1.400 . S
C247 C246 1.387 . S
N248 Co239 2.022 . S
N248 C245 1.351 . S
N248 N249 1.365 . S
N249 C246 1.341 . S
N249 N248 1.365 . S
N249 H269 0.862 . S
C250 C245 1.501 . S
C250 H251 0.961 . S
C250 H252 0.961 . S
C250 H253 0.960 . S
H251 C250 0.961 . S
H252 C250 0.961 . S
H253 C250 0.960 . S
C254 N255 1.342 . S
C254 C258 1.401 1_556 S
C254 C259 1.499 . S
N255 Co238 1.989 . S
N255 C254 1.342 . S
N255 N256 1.388 1_556 S
N256 Co239 1.993 . S
N256 N255 1.388 1_554 S
N256 C257 1.346 . S
C257 N256 1.346 . S
C257 C258 1.396 . S
C257 C267 1.510 . S
C258 C254 1.401 1_554 S
C258 C257 1.396 . S
C259 C254 1.499 . S
C259 H260 0.959 . S
C259 H261 0.960 . S
C259 H262 0.961 . S
H260 C259 0.959 . S
H261 C259 0.960 . S
H262 C259 0.961 . S
O263 Co238 1.967 . S
O263 C271 1.258 1_556 S
O264 Co239 1.941 . S
O264 C271 1.266 . S
H265 C267 0.959 . S
H266 C267 0.961 . S
C267 C257 1.510 . S
C267 H265 0.959 . S
C267 H266 0.961 . S
C267 H268 0.960 . S
H268 C267 0.960 . S
H269 N249 0.862 . S
O270 Co238 1.920 . S
O270 C243 1.289 . S
C271 O263 1.258 1_554 S
C271 O264 1.266 . S
H272 C278 0.930 . S
H273 C281 0.930 . S
H274 C282 0.930 . S
H275 C283 0.930 . S
H276 C286 0.930 . S
H277 C287 0.930 . S
C278 H272 0.930 . S
C278 C279 1.355 . S
C278 C280 1.415 . S
C279 C278 1.355 . S
C279 C281 1.419 1_554 S
C280 C278 1.415 . S
C280 C285 1.425 1_554 S
C280 C287 1.409 . S
C281 H273 0.930 . S
C281 C279 1.419 1_556 S
C281 C282 1.362 . S
C282 H274 0.930 . S
C282 C281 1.362 . S
C282 C285 1.409 . S
C283 H275 0.930 . S
C283 C284 1.355 1_556 S
C283 C285 1.415 . S
C284 C283 1.355 1_554 S
C284 C286 1.419 . S
C285 C280 1.425 1_556 S
C285 C282 1.409 . S
C285 C283 1.415 . S
C286 H276 0.930 . S
C286 C284 1.419 . S
C286 C287 1.362 . S
C287 H277 0.930 . S
C287 C280 1.409 . S
C287 C286 1.362 . S
H288 C294 0.930 . S
H289 C297 0.930 . S
H290 C298 0.930 . S
H291 C299 0.930 . S
H292 C302 0.930 . S
H293 C303 0.930 . S
C294 H288 0.930 . S
C294 C295 1.355 . S
C294 C296 1.415 . S
C295 C294 1.355 . S
C295 C297 1.419 . S
C296 C294 1.415 . S
C296 C301 1.425 . S
C296 C303 1.409 1_545 S
C297 H289 0.930 . S
C297 C295 1.419 . S
C297 C298 1.362 . S
C298 H290 0.930 . S
C298 C297 1.362 . S
C298 C301 1.409 . S
C299 H291 0.930 . S
C299 C300 1.355 . S
C299 C301 1.415 1_565 S
C300 C299 1.355 . S
C300 C302 1.419 . S
C301 C296 1.425 . S
C301 C298 1.409 . S
C301 C299 1.415 1_545 S
C302 H292 0.930 . S
C302 C300 1.419 . S
C302 C303 1.362 . S
C303 H293 0.930 . S
C303 C296 1.409 1_565 S
C303 C302 1.362 . S
H304 C310 0.930 . S
H305 C313 0.930 . S
H306 C314 0.930 . S
H307 C315 0.930 . S
H308 C318 0.930 . S
H309 C319 0.930 1_655 S
C310 H304 0.930 . S
C310 C311 1.355 . S
C310 C312 1.415 1_655 S
C311 C310 1.355 . S
C311 C313 1.419 1_655 S
C312 C310 1.415 1_455 S
C312 C317 1.425 . S
C312 C319 1.409 1_565 S
C313 H305 0.930 . S
C313 C311 1.419 1_455 S
C313 C314 1.362 . S
C314 H306 0.930 . S
C314 C313 1.362 . S
C314 C317 1.409 . S
C315 H307 0.930 . S
C315 C316 1.355 1_565 S
C315 C317 1.415 . S
C316 C315 1.355 1_545 S
C316 C318 1.419 . S
C317 C312 1.425 . S
C317 C314 1.409 . S
C317 C315 1.415 . S
C318 H308 0.930 . S
C318 C316 1.419 . S
C318 C319 1.362 . S
C319 H309 0.930 1_455 S
C319 C312 1.409 1_545 S
C319 C318 1.362 . S
H320 C326 0.930 . S
H321 C329 0.930 . S
H322 C330 0.930 . S
H323 C331 0.930 . S
H324 C334 0.930 . S
H325 C335 0.930 . S
C326 H320 0.930 . S
C326 C327 1.355 . S
C326 C328 1.415 . S
C327 C326 1.355 . S
C327 C329 1.419 . S
C328 C326 1.415 . S
C328 C333 1.425 1_455 S
C328 C335 1.409 . S
C329 H321 0.930 . S
C329 C327 1.419 . S
C329 C330 1.362 1_455 S
C330 H322 0.930 . S
C330 C329 1.362 1_655 S
C330 C333 1.409 . S
C331 H323 0.930 . S
C331 C332 1.355 . S
C331 C333 1.415 . S
C332 C331 1.355 . S
C332 C334 1.419 . S
C333 C328 1.425 1_655 S
C333 C330 1.409 . S
C333 C331 1.415 . S
C334 H324 0.930 . S
C334 C332 1.419 . S
C334 C335 1.362 1_655 S
C335 H325 0.930 . S
C335 C328 1.409 . S
C335 C334 1.362 1_455 S
H336 C342 0.930 . S
H337 C345 0.930 . S
H338 C346 0.930 . S
H339 C347 0.930 . S
H340 C350 0.930 . S
H341 C351 0.930 . S
C342 H336 0.930 . S
C342 C343 1.355 . S
C342 C344 1.415 . S
C343 C342 1.355 . S
C343 C345 1.419 . S
C344 C342 1.415 . S
C344 C349 1.425 . S
C344 C351 1.409 . S
C345 H337 0.930 . S
C345 C343 1.419 . S
C345 C346 1.362 . S
C346 H338 0.930 . S
C346 C345 1.362 . S
C346 C349 1.409 . S
C347 H339 0.930 . S
C347 C348 1.355 . S
C347 C349 1.415 . S
C348 C347 1.355 . S
C348 C350 1.419 . S
C349 C344 1.425 . S
C349 C346 1.409 . S
C349 C347 1.415 . S
C350 H340 0.930 . S
C350 C348 1.419 . S
C350 C351 1.362 . S
C351 H341 0.930 . S
C351 C344 1.409 . S
C351 C350 1.362 . S
H352 C358 0.930 . S
H353 C361 0.930 . S
H354 C362 0.930 . S
H355 C363 0.930 . S
H356 C366 0.930 . S
H357 C367 0.930 . S
C358 H352 0.930 . S
C358 C359 1.355 . S
C358 C360 1.415 . S
C359 C358 1.355 . S
C359 C361 1.419 . S
C360 C358 1.415 . S
C360 C365 1.425 . S
C360 C367 1.409 . S
C361 H353 0.930 . S
C361 C359 1.419 . S
C361 C362 1.362 . S
C362 H354 0.930 . S
C362 C361 1.362 . S
C362 C365 1.409 . S
C363 H355 0.930 . S
C363 C364 1.355 . S
C363 C365 1.415 . S
C364 C363 1.355 . S
C364 C366 1.419 . S
C365 C360 1.425 . S
C365 C362 1.409 . S
C365 C363 1.415 . S
C366 H356 0.930 . S
C366 C364 1.419 . S
C366 C367 1.362 . S
C367 H357 0.930 . S
C367 C360 1.409 . S
C367 C366 1.362 . S
H368 C374 0.930 . S
H369 C377 0.930 . S
H370 C378 0.930 . S
H371 C379 0.930 . S
H372 C382 0.930 . S
H373 C383 0.930 . S
C374 H368 0.930 . S
C374 C375 1.355 1_554 S
C374 C376 1.415 . S
C375 C374 1.355 1_556 S
C375 C377 1.419 . S
C376 C374 1.415 . S
C376 C381 1.425 . S
C376 C383 1.409 . S
C377 H369 0.930 . S
C377 C375 1.419 . S
C377 C378 1.362 1_556 S
C378 H370 0.930 . S
C378 C377 1.362 1_554 S
C378 C381 1.409 . S
C379 H371 0.930 . S
C379 C380 1.355 . S
C379 C381 1.415 . S
C380 C379 1.355 . S
C380 C382 1.419 . S
C381 C376 1.425 . S
C381 C378 1.409 . S
C381 C379 1.415 . S
C382 H372 0.930 . S
C382 C380 1.419 . S
C382 C383 1.362 . S
C383 H373 0.930 . S
C383 C376 1.409 . S
C383 C382 1.362 . S
H384 C390 0.930 . S
H385 C393 0.930 . S
H386 C394 0.930 . S
H387 C395 0.930 . S
H388 C398 0.930 . S
H389 C399 0.930 . S
C390 H384 0.930 . S
C390 C391 1.355 . S
C390 C392 1.415 . S
C391 C390 1.355 . S
C391 C393 1.419 . S
C392 C390 1.415 . S
C392 C397 1.425 . S
C392 C399 1.409 . S
C393 H385 0.930 . S
C393 C391 1.419 . S
C393 C394 1.362 . S
C394 H386 0.930 . S
C394 C393 1.362 . S
C394 C397 1.409 . S
C395 H387 0.930 . S
C395 C396 1.355 . S
C395 C397 1.415 . S
C396 C395 1.355 . S
C396 C398 1.419 . S
C397 C392 1.425 . S
C397 C394 1.409 . S
C397 C395 1.415 . S
C398 H388 0.930 . S
C398 C396 1.419 . S
C398 C399 1.362 . S
C399 H389 0.930 . S
C399 C392 1.409 . S
C399 C398 1.362 . S
H400 C406 0.930 . S
H401 C409 0.930 . S
H402 C410 0.930 . S
H403 C411 0.930 . S
H404 C414 0.930 . S
H405 C415 0.930 . S
C406 H400 0.930 . S
C406 C407 1.355 . S
C406 C408 1.415 . S
C407 C406 1.355 . S
C407 C409 1.419 . S
C408 C406 1.415 . S
C408 C413 1.425 . S
C408 C415 1.409 . S
C409 H401 0.930 . S
C409 C407 1.419 . S
C409 C410 1.362 . S
C410 H402 0.930 . S
C410 C409 1.362 . S
C410 C413 1.409 . S
C411 H403 0.930 . S
C411 C412 1.355 . S
C411 C413 1.415 . S
C412 C411 1.355 . S
C412 C414 1.419 . S
C413 C408 1.425 . S
C413 C410 1.409 . S
C413 C411 1.415 . S
C414 H404 0.930 . S
C414 C412 1.419 . S
C414 C415 1.362 . S
C415 H405 0.930 . S
C415 C408 1.409 . S
C415 C414 1.362 . S
H416 C422 0.930 . S
H417 C425 0.930 . S
H418 C426 0.930 . S
H419 C427 0.930 . S
H420 C430 0.930 . S
H421 C431 0.930 . S
C422 H416 0.930 . S
C422 C423 1.355 . S
C422 C424 1.415 1_554 S
C423 C422 1.355 . S
C423 C425 1.419 . S
C424 C422 1.415 1_556 S
C424 C429 1.425 . S
C424 C431 1.409 . S
C425 H417 0.930 . S
C425 C423 1.419 . S
C425 C426 1.362 1_554 S
C426 H418 0.930 . S
C426 C425 1.362 1_556 S
C426 C429 1.409 . S
C427 H419 0.930 . S
C427 C428 1.355 . S
C427 C429 1.415 . S
C428 C427 1.355 . S
C428 C430 1.419 . S
C429 C424 1.425 . S
C429 C426 1.409 . S
C429 C427 1.415 . S
C430 H420 0.930 . S
C430 C428 1.419 . S
C430 C431 1.362 . S
C431 H421 0.930 . S
C431 C424 1.409 . S
C431 C430 1.362 . S
H432 C438 0.930 . S
H433 C441 0.930 . S
H434 C442 0.930 . S
H435 C443 0.930 . S
H436 C446 0.930 . S
H437 C447 0.930 . S
C438 H432 0.930 . S
C438 C439 1.355 . S
C438 C440 1.415 . S
C439 C438 1.355 . S
C439 C441 1.419 . S
C440 C438 1.415 . S
C440 C445 1.425 . S
C440 C447 1.409 . S
C441 H433 0.930 . S
C441 C439 1.419 . S
C441 C442 1.362 . S
C442 H434 0.930 . S
C442 C441 1.362 . S
C442 C445 1.409 . S
C443 H435 0.930 . S
C443 C444 1.355 . S
C443 C445 1.415 . S
C444 C443 1.355 . S
C444 C446 1.419 . S
C445 C440 1.425 . S
C445 C442 1.409 . S
C445 C443 1.415 . S
C446 H436 0.930 . S
C446 C444 1.419 . S
C446 C447 1.362 . S
C447 H437 0.930 . S
C447 C440 1.409 . S
C447 C446 1.362 . S
H448 C454 0.930 . S
H449 C457 0.930 . S
H450 C458 0.930 . S
H451 C459 0.930 . S
H452 C462 0.930 . S
H453 C463 0.930 . S
C454 H448 0.930 . S
C454 C455 1.355 . S
C454 C456 1.415 . S
C455 C454 1.355 . S
C455 C457 1.419 . S
C456 C454 1.415 . S
C456 C461 1.425 . S
C456 C463 1.409 . S
C457 H449 0.930 . S
C457 C455 1.419 . S
C457 C458 1.362 . S
C458 H450 0.930 . S
C458 C457 1.362 . S
C458 C461 1.409 . S
C459 H451 0.930 . S
C459 C460 1.355 . S
C459 C461 1.415 . S
C460 C459 1.355 . S
C460 C462 1.419 . S
C461 C456 1.425 . S
C461 C458 1.409 . S
C461 C459 1.415 . S
C462 H452 0.930 . S
C462 C460 1.419 . S
C462 C463 1.362 . S
C463 H453 0.930 . S
C463 C456 1.409 . S
C463 C462 1.362 . S
H464 C470 0.930 . S
H465 C473 0.930 . S
H466 C474 0.930 1_554 S
H467 C475 0.930 1_554 S
H468 C478 0.930 . S
H469 C479 0.930 . S
C470 H464 0.930 . S
C470 C471 1.355 . S
C470 C472 1.415 . S
C471 C470 1.355 . S
C471 C473 1.419 . S
C472 C470 1.415 . S
C472 C477 1.425 . S
C472 C479 1.409 . S
C473 H465 0.930 . S
C473 C471 1.419 . S
C473 C474 1.362 . S
C474 H466 0.930 1_556 S
C474 C473 1.362 . S
C474 C477 1.409 . S
C475 H467 0.930 1_556 S
C475 C476 1.355 . S
C475 C477 1.415 . S
C476 C475 1.355 . S
C476 C478 1.419 . S
C477 C472 1.425 . S
C477 C474 1.409 . S
C477 C475 1.415 . S
C478 H468 0.930 . S
C478 C476 1.419 . S
C478 C479 1.362 . S
C479 H469 0.930 . S
C479 C472 1.409 . S
C479 C478 1.362 . S
H480 C486 0.930 . S
H481 C489 0.930 . S
H482 C490 0.930 . S
H483 C491 0.930 . S
H484 C494 0.930 1_556 S
H485 C495 0.930 1_556 S
C486 H480 0.930 . S
C486 C487 1.355 . S
C486 C488 1.415 . S
C487 C486 1.355 . S
C487 C489 1.419 . S
C488 C486 1.415 . S
C488 C493 1.425 . S
C488 C495 1.409 . S
C489 H481 0.930 . S
C489 C487 1.419 . S
C489 C490 1.362 . S
C490 H482 0.930 . S
C490 C489 1.362 . S
C490 C493 1.409 . S
C491 H483 0.930 . S
C491 C492 1.355 . S
C491 C493 1.415 . S
C492 C491 1.355 . S
C492 C494 1.419 . S
C493 C488 1.425 . S
C493 C490 1.409 . S
C493 C491 1.415 . S
C494 H484 0.930 1_554 S
C494 C492 1.419 . S
C494 C495 1.362 . S
C495 H485 0.930 1_554 S
C495 C488 1.409 . S
C495 C494 1.362 . S
H496 C502 0.930 . S
H497 C505 0.930 . S
H498 C506 0.930 . S
H499 C507 0.930 . S
H500 C510 0.930 . S
H501 C511 0.930 . S
C502 H496 0.930 . S
C502 C503 1.355 . S
C502 C504 1.415 . S
C503 C502 1.355 . S
C503 C505 1.419 . S
C504 C502 1.415 . S
C504 C509 1.425 . S
C504 C511 1.409 . S
C505 H497 0.930 . S
C505 C503 1.419 . S
C505 C506 1.362 . S
C506 H498 0.930 . S
C506 C505 1.362 . S
C506 C509 1.409 . S
C507 H499 0.930 . S
C507 C508 1.355 . S
C507 C509 1.415 . S
C508 C507 1.355 . S
C508 C510 1.419 . S
C509 C504 1.425 . S
C509 C506 1.409 . S
C509 C507 1.415 . S
C510 H500 0.930 . S
C510 C508 1.419 . S
C510 C511 1.362 . S
C511 H501 0.930 . S
C511 C504 1.409 . S
C511 C510 1.362 . S
H512 C518 0.930 . S
H513 C521 0.930 . S
H514 C522 0.930 . S
H515 C523 0.930 . S
H516 C526 0.930 . S
H517 C527 0.930 . S
C518 H512 0.930 . S
C518 C519 1.355 . S
C518 C520 1.415 . S
C519 C518 1.355 . S
C519 C521 1.419 . S
C520 C518 1.415 . S
C520 C525 1.425 . S
C520 C527 1.409 . S
C521 H513 0.930 . S
C521 C519 1.419 . S
C521 C522 1.362 . S
C522 H514 0.930 . S
C522 C521 1.362 . S
C522 C525 1.409 . S
C523 H515 0.930 . S
C523 C524 1.355 . S
C523 C525 1.415 . S
C524 C523 1.355 . S
C524 C526 1.419 . S
C525 C520 1.425 . S
C525 C522 1.409 . S
C525 C523 1.415 . S
C526 H516 0.930 . S
C526 C524 1.419 . S
C526 C527 1.362 . S
C527 H517 0.930 . S
C527 C520 1.409 . S
C527 C526 1.362 . S
H528 C534 0.930 . S
H529 C537 0.930 . S
H530 C538 0.930 . S
H531 C539 0.930 . S
H532 C542 0.930 . S
H533 C543 0.930 . S
C534 H528 0.930 . S
C534 C535 1.355 . S
C534 C536 1.415 . S
C535 C534 1.355 . S
C535 C537 1.419 . S
C536 C534 1.415 . S
C536 C541 1.425 . S
C536 C543 1.409 . S
C537 H529 0.930 . S
C537 C535 1.419 . S
C537 C538 1.362 . S
C538 H530 0.930 . S
C538 C537 1.362 . S
C538 C541 1.409 . S
C539 H531 0.930 . S
C539 C540 1.355 . S
C539 C541 1.415 . S
C540 C539 1.355 . S
C540 C542 1.419 . S
C541 C536 1.425 . S
C541 C538 1.409 . S
C541 C539 1.415 . S
C542 H532 0.930 . S
C542 C540 1.419 . S
C542 C543 1.362 . S
C543 H533 0.930 . S
C543 C536 1.409 . S
C543 C542 1.362 . S
H544 C550 0.930 . S
H545 C553 0.930 . S
H546 C554 0.930 . S
H547 C555 0.930 . S
H548 C558 0.930 . S
H549 C559 0.930 . S
C550 H544 0.930 . S
C550 C551 1.355 . S
C550 C552 1.415 . S
C551 C550 1.355 . S
C551 C553 1.419 . S
C552 C550 1.415 . S
C552 C557 1.425 . S
C552 C559 1.409 . S
C553 H545 0.930 . S
C553 C551 1.419 . S
C553 C554 1.362 . S
C554 H546 0.930 . S
C554 C553 1.362 . S
C554 C557 1.409 . S
C555 H547 0.930 . S
C555 C556 1.355 . S
C555 C557 1.415 . S
C556 C555 1.355 . S
C556 C558 1.419 . S
C557 C552 1.425 . S
C557 C554 1.409 . S
C557 C555 1.415 . S
C558 H548 0.930 . S
C558 C556 1.419 . S
C558 C559 1.362 . S
C559 H549 0.930 . S
C559 C552 1.409 . S
C559 C558 1.362 . S
H560 C566 0.926 1_554 S
H561 C569 0.930 . S
H562 C570 0.930 . S
H563 C571 0.930 . S
H564 C574 0.930 . S
H565 C575 0.930 1_554 S
C566 H560 0.926 1_556 S
C566 C567 1.356 . S
C566 C568 1.417 . S
C567 C566 1.356 . S
C567 C569 1.419 . S
C568 C566 1.417 . S
C568 C573 1.425 . S
C568 C575 1.409 . S
C569 H561 0.930 . S
C569 C567 1.419 . S
C569 C570 1.362 . S
C570 H562 0.930 . S
C570 C569 1.362 . S
C570 C573 1.409 . S
C571 H563 0.930 . S
C571 C572 1.355 . S
C571 C573 1.415 . S
C572 C571 1.355 . S
C572 C574 1.419 . S
C573 C568 1.425 . S
C573 C570 1.409 . S
C573 C571 1.415 . S
C574 H564 0.930 . S
C574 C572 1.419 . S
C574 C575 1.362 . S
C575 H565 0.930 1_556 S
C575 C568 1.409 . S
C575 C574 1.362 . S
H576 C582 0.930 . S
H577 C585 0.930 . S
H578 C586 0.930 . S
H579 C587 0.930 . S
H580 C590 0.930 . S
H581 C591 0.930 . S
C582 H576 0.930 . S
C582 C583 1.355 . S
C582 C584 1.415 . S
C583 C582 1.355 . S
C583 C585 1.419 . S
C584 C582 1.415 . S
C584 C589 1.425 . S
C584 C591 1.409 . S
C585 H577 0.930 . S
C585 C583 1.419 . S
C585 C586 1.362 . S
C586 H578 0.930 . S
C586 C585 1.362 . S
C586 C589 1.409 . S
C587 H579 0.930 . S
C587 C588 1.355 . S
C587 C589 1.415 . S
C588 C587 1.355 . S
C588 C590 1.419 . S
C589 C584 1.425 . S
C589 C586 1.409 . S
C589 C587 1.415 . S
C590 H580 0.930 . S
C590 C588 1.419 . S
C590 C591 1.362 . S
C591 H581 0.930 . S
C591 C584 1.409 . S
C591 C590 1.362 . S
C279 C258 1.441 . S
C284 C20 1.447 . S
C295 C156 1.507 . S
C300 C54 1.495 . S
C311 C190 1.639 . S
C316 C88 1.604 . S
C327 C224 1.536 . S
C332 C122 1.536 . S
C343 C5 1.342 . S
C348 C9 1.295 . S
C359 C43 1.253 . S
C364 C39 1.284 . S
C375 C77 1.334 . S
C380 C73 1.306 . S
C391 C111 1.364 . S
C396 C107 1.384 . S
C407 C145 1.364 . S
C412 C141 1.328 . S
C423 C179 1.338 . S
C428 C175 1.378 . S
C439 C213 1.233 . S
C444 C209 1.278 . S
C455 C243 1.266 . S
C460 C247 1.269 . S
C471 C237 1.444 . S
C476 C2 1.439 1_556 S
C487 C36 1.442 . S
C492 C240 1.442 . S
C503 C169 1.647 . S
C508 C101 1.632 . S
C519 C135 1.685 . S
C524 C203 1.690 . S
C535 C172 1.679 . S
C540 C67 1.680 . S
C551 C70 1.681 . S
C556 C206 1.680 . S
C567 C271 1.565 1_556 S
C572 C104 1.565 . S
C583 C33 1.614 . S
C588 C138 1.600 . S
