# Generated by pormake.
# Topology unh, (4)-cn, num edge types: 1
# Building blocks:
#     Node 0, Type 0, BuildingBlock: QUQFOY_clean_sbu_1, # of connection points: 4
#     Node 1, Type 0, BuildingBlock: QUQFOY_clean_sbu_1, # of connection points: 4
#     Node 2, Type 0, BuildingBlock: QUQFOY_clean_sbu_1, # of connection points: 4
#     Node 3, Type 0, BuildingBlock: QUQFOY_clean_sbu_1, # of connection points: 4
#     Node 4, Type 0, BuildingBlock: QUQFOY_clean_sbu_1, # of connection points: 4
#     Node 5, Type 0, BuildingBlock: QUQFOY_clean_sbu_1, # of connection points: 4
#     Edge 6, Type (0, 0), BuildingBlock: EZIPEK_clean_linker_0, # of connection points: 2
#     Edge 7, Type (0, 0), BuildingBlock: EZIPEK_clean_linker_0, # of connection points: 2
#     Edge 8, Type (0, 0), BuildingBlock: EZIPEK_clean_linker_0, # of connection points: 2
#     Edge 9, Type (0, 0), BuildingBlock: EZIPEK_clean_linker_0, # of connection points: 2
#     Edge 10, Type (0, 0), BuildingBlock: EZIPEK_clean_linker_0, # of connection points: 2
#     Edge 11, Type (0, 0), BuildingBlock: EZIPEK_clean_linker_0, # of connection points: 2
#     Edge 12, Type (0, 0), BuildingBlock: EZIPEK_clean_linker_0, # of connection points: 2
#     Edge 13, Type (0, 0), BuildingBlock: EZIPEK_clean_linker_0, # of connection points: 2
#     Edge 14, Type (0, 0), BuildingBlock: EZIPEK_clean_linker_0, # of connection points: 2
#     Edge 15, Type (0, 0), BuildingBlock: EZIPEK_clean_linker_0, # of connection points: 2
#     Edge 16, Type (0, 0), BuildingBlock: EZIPEK_clean_linker_0, # of connection points: 2
#     Edge 17, Type (0, 0), BuildingBlock: EZIPEK_clean_linker_0, # of connection points: 2
# Relax obj value: 0.055
# Max RMSD: 0.146
# Mean RMSD: 0.146
data_MOF--net-unh--node1-QUQFOY_clean_sbu_1--edge1-EZIPEK_clean_linker_0
_symmetry_space_group_name_H-M    P1
_symmetry_Int_Tables_number       1
_symmetry_cell_setting            triclinic
loop_
_symmetry_equiv_pos_as_xyz
'x, y, z'
_cell_length_a     32.36456
_cell_length_b     32.46213
_cell_length_c     16.759445
_cell_angle_alpha  89.88794
_cell_angle_beta   90.009807
_cell_angle_gamma 120.25289
loop_
_atom_site_label
_atom_site_type_symbol
_atom_site_fract_x
_atom_site_fract_y
_atom_site_fract_z
_atom_type_partial_charge
O0 O 0.08075 0.57911 0.9861 0.0
Cd1 Cd 0.11345 0.61889 0.08622 0.0
Cd2 Cd 0.15866 0.57179 0.07546 0.0
O3 O 0.09509 0.52217 0.01981 0.0
O4 O 0.06589 0.62606 0.15287 0.0
O5 O 0.0971 0.58123 0.18659 0.0
C6 C 0.06747 0.59583 0.20132 0.0
C7 C 0.19917 0.55305 0.17139 0.0
C8 C 0.07254 0.53677 0.97691 0.0
C9 C 0.20844 0.67536 0.02441 0.0
O10 O 0.20376 0.63439 0.01439 0.0
O11 O 0.17822 0.67994 0.06619 0.0
O12 O 0.20025 0.54361 0.09693 0.0
O13 O 0.17202 0.56964 0.19229 0.0
O14 O 0.53112 0.0665 0.14856 0.0
Cd15 Cd 0.51859 0.10148 0.23902 0.0
Cd16 Cd 0.61377 0.15812 0.22971 0.0
O17 O 0.61003 0.1042 0.15827 0.0
O18 O 0.46226 0.0531 0.30123 0.0
O19 O 0.53651 0.09217 0.34844 0.0
C20 C 0.49228 0.05938 0.35734 0.0
C21 C 0.67241 0.19668 0.32797 0.0
C22 C 0.57121 0.07183 0.1274 0.0
C23 C 0.54907 0.19609 0.17428 0.0
O24 O 0.59041 0.20055 0.17738 0.0
O25 O 0.51299 0.15939 0.20338 0.0
O26 O 0.68255 0.20483 0.25314 0.0
O27 O 0.62958 0.16411 0.3471 0.0
O28 O 0.44538 0.51094 0.33117 0.0
Cd29 Cd 0.40476 0.51054 0.42593 0.0
Cd30 Cd 0.45131 0.60429 0.39575 0.0
O31 O 0.49434 0.58894 0.32514 0.0
O32 O 0.39096 0.4546 0.49482 0.0
O33 O 0.43861 0.53007 0.53015 0.0
C34 C 0.42086 0.48528 0.54509 0.0
C35 C 0.48374 0.66486 0.49312 0.0
C36 C 0.48216 0.54699 0.30224 0.0
C37 C 0.34558 0.54787 0.35968 0.0
O38 O 0.38528 0.58617 0.34895 0.0
O39 O 0.34378 0.5133 0.39863 0.0
O40 O 0.48573 0.67459 0.41799 0.0
O41 O 0.46304 0.62041 0.51221 0.0
O42 O 0.94582 0.46578 0.49189 0.0
Cd43 Cd 0.91076 0.41779 0.58311 0.0
Cd44 Cd 0.84784 0.44827 0.55418 0.0
O45 O 0.90005 0.49795 0.47931 0.0
O46 O 0.96283 0.42145 0.65293 0.0
O47 O 0.90973 0.44059 0.69289 0.0
C48 C 0.94797 0.43893 0.70762 0.0
C49 C 0.80631 0.46708 0.64738 0.0
C50 C 0.937 0.49602 0.4598 0.0
C51 C 0.81869 0.34469 0.51738 0.0
O52 O 0.81061 0.37912 0.51227 0.0
O53 O 0.85672 0.35043 0.5503 0.0
O54 O 0.79744 0.46586 0.57213 0.0
O55 O 0.84082 0.46065 0.66943 0.0
O56 O 0.50158 0.94123 0.64815 0.0
Cd57 Cd 0.51238 0.9064 0.74145 0.0
Cd58 Cd 0.4183 0.84633 0.72217 0.0
O59 O 0.4225 0.90043 0.6503 0.0
O60 O 0.56862 0.95513 0.80323 0.0
O61 O 0.49428 0.91695 0.85009 0.0
C62 C 0.53865 0.94924 0.85916 0.0
C63 C 0.36013 0.8093 0.82113 0.0
C64 C 0.4616 0.93441 0.62294 0.0
C65 C 0.48621 0.81129 0.67973 0.0
O66 O 0.44418 0.80487 0.67467 0.0
O67 O 0.51971 0.84868 0.71199 0.0
O68 O 0.34949 0.80048 0.74659 0.0
O69 O 0.40339 0.84106 0.83962 0.0
O70 O 0.55428 0.49022 0.82346 0.0
Cd71 Cd 0.59856 0.49695 0.91683 0.0
Cd72 Cd 0.55874 0.40441 0.8955 0.0
O73 O 0.5063 0.41274 0.83895 0.0
O74 O 0.60245 0.54709 0.99031 0.0
O75 O 0.56619 0.46988 0.02047 0.0
C76 C 0.57623 0.51259 0.03872 0.0
C77 C 0.54256 0.34076 0.98049 0.0
C78 C 0.51587 0.45203 0.8064 0.0
C79 C 0.66163 0.46852 0.84439 0.0
O80 O 0.62283 0.42911 0.8354 0.0
O81 O 0.66256 0.50158 0.88639 0.0
O82 O 0.53322 0.33427 0.90525 0.0
O83 O 0.5577 0.38286 0.00894 0.0
C84 C 0.99864 0.51385 0.89623 0.0
C85 C 0.0366 0.50561 0.91573 0.0
C86 C 1.0052 0.44249 0.81452 0.0
C87 C 0.97594 0.45965 0.78262 0.0
N88 N 0.95774 0.52394 0.78544 0.0
N89 N 0.08089 0.46638 0.87733 0.0
C90 C 0.97586 0.4986 0.82137 0.0
C91 C 0.04128 0.47086 0.87093 0.0
N92 N 0.98368 0.53571 0.94884 0.0
N93 N 0.99813 0.39886 0.79311 0.0
H94 H 0.1106 0.48873 0.91166 0.0
H95 H 0.08657 0.44391 0.8403 0.0
H96 H 0.9696 0.3752 0.75746 0.0
H97 H 0.01674 0.38392 0.8196 0.0
H98 H 0.95397 0.53938 0.93775 0.0
H99 H 0.99669 0.54421 1.00695 0.0
H100 H 0.9603 0.55434 0.81135 0.0
H101 H 0.94701 0.51963 0.72605 0.0
C102 C 0.54674 0.96251 0.00722 0.0
C103 C 0.55374 0.98159 0.92891 0.0
C104 C 0.58503 0.06193 0.98393 0.0
C105 C 0.57192 0.04191 0.0615 0.0
N106 N 0.53889 0.9735 0.14859 0.0
N107 N 0.57308 0.04837 0.84173 0.0
C108 C 0.55257 0.99225 0.07366 0.0
C109 C 0.57187 0.03115 0.91684 0.0
N110 N 0.53569 0.91629 0.01792 0.0
N111 N 0.60923 0.11036 0.97409 0.0
H112 H 0.56265 0.02717 0.79074 0.0
H113 H 0.58028 0.08291 0.83028 0.0
H114 H 0.61778 0.13421 0.0212 0.0
H115 H 0.62442 0.1271 0.92011 0.0
H116 H 0.53446 0.90135 0.0735 0.0
H117 H 0.53172 0.89384 0.97043 0.0
H118 H 0.51909 0.93707 0.16038 0.0
H119 H 0.54551 0.99465 0.19914 0.0
C120 C 0.48143 0.51731 0.16482 0.0
C121 C 0.50755 0.53985 0.23494 0.0
C122 C 0.58032 0.54769 0.17446 0.0
C123 C 0.55289 0.52082 0.10794 0.0
N124 N 0.47565 0.47361 0.04488 0.0
N125 N 0.5801 0.57115 0.31196 0.0
C126 C 0.5029 0.50347 0.1049 0.0
C127 C 0.55668 0.5539 0.2412 0.0
N128 N 0.43689 0.51145 0.1534 0.0
N129 N 0.62887 0.56715 0.17384 0.0
H130 H 0.56382 0.57587 0.36205 0.0
H131 H 0.61439 0.57731 0.32318 0.0
H132 H 0.64697 0.56107 0.12804 0.0
H133 H 0.6515 0.59154 0.21616 0.0
H134 H 0.41835 0.5002 0.09967 0.0
H135 H 0.42033 0.52253 0.19455 0.0
H136 H 0.43839 0.45531 0.04534 0.0
H137 H 0.48971 0.46396 0.99738 0.0
C138 C 0.96385 0.49913 0.3193 0.0
C139 C 0.96654 0.52384 0.39073 0.0
C140 C 0.03397 0.59744 0.33635 0.0
C141 C 0.0313 0.57258 0.26522 0.0
N142 N 0.98892 0.5031 0.18181 0.0
N143 N 0.99812 0.59725 0.46418 0.0
C144 C 0.99482 0.52434 0.25469 0.0
C145 C 0.99959 0.57341 0.39808 0.0
N146 N 0.93208 0.4512 0.31384 0.0
N147 N 0.07064 0.64327 0.34604 0.0
H148 H 0.97442 0.58028 0.5113 0.0
H149 H 0.01798 0.63412 0.47049 0.0
H150 H 0.09581 0.66188 0.30149 0.0
H151 H 0.07797 0.66212 0.39925 0.0
H152 H 0.93275 0.42961 0.26864 0.0
H153 H 0.90588 0.43211 0.35671 0.0
H154 H 0.95983 0.47006 0.16692 0.0
H155 H 0.01139 0.52002 0.13335 0.0
C156 C 0.48397 0.04429 0.50508 0.0
C157 C 0.47776 0.02626 0.42628 0.0
C158 C 0.44938 0.94574 0.47898 0.0
C159 C 0.46142 0.96487 0.55715 0.0
N160 N 0.49172 0.03214 0.64612 0.0
N161 N 0.46133 0.96127 0.33714 0.0
C162 C 0.47901 0.01413 0.57068 0.0
C163 C 0.46156 0.97721 0.4128 0.0
N164 N 0.49341 0.08988 0.51704 0.0
N165 N 0.42714 0.89751 0.46761 0.0
H166 H 0.47098 0.98297 0.28668 0.0
H167 H 0.45576 0.92743 0.32464 0.0
H168 H 0.42001 0.8732 0.51365 0.0
H169 H 0.41231 0.88118 0.41332 0.0
H170 H 0.49396 0.10398 0.573 0.0
H171 H 0.49677 0.11258 0.47015 0.0
H172 H 0.51026 0.06844 0.65892 0.0
H173 H 0.48567 0.01061 0.69613 0.0
C174 C 0.48207 0.43253 0.66811 0.0
C175 C 0.48438 0.45347 0.74352 0.0
C176 C 0.43509 0.48548 0.69206 0.0
C177 C 0.43836 0.47007 0.61446 0.0
N178 N 0.47141 0.43534 0.52575 0.0
N179 N 0.46591 0.50248 0.82717 0.0
C180 C 0.46286 0.44459 0.60175 0.0
C181 C 0.4615 0.48057 0.75555 0.0
N182 N 0.49937 0.40209 0.65901 0.0
N183 N 0.40582 0.50384 0.70521 0.0
H184 H 0.48287 0.49776 0.87624 0.0
H185 H 0.45524 0.52744 0.83675 0.0
H186 H 0.38555 0.50726 0.66004 0.0
H187 H 0.39819 0.51161 0.76167 0.0
H188 H 0.49313 0.38121 0.60836 0.0
H189 H 0.51695 0.39476 0.70398 0.0
H190 H 0.49419 0.42235 0.51246 0.0
H191 H 0.45952 0.44466 0.4748 0.0
C192 C 0.23436 0.50616 0.22986 0.0
C193 C 0.23106 0.54812 0.22981 0.0
C194 C 0.29225 0.58147 0.33448 0.0
C195 C 0.30187 0.54387 0.32304 0.0
N196 N 0.28576 0.47302 0.2499 0.0
N197 N 0.26384 0.62994 0.27365 0.0
C198 C 0.27358 0.50648 0.26877 0.0
C199 C 0.26142 0.5868 0.28057 0.0
N200 N 0.19966 0.46574 0.1938 0.0
N201 N 0.31244 0.61204 0.3972 0.0
H202 H 0.24428 0.63704 0.2322 0.0
H203 H 0.28924 0.6604 0.30347 0.0
H204 H 0.3344 0.60844 0.43888 0.0
H205 H 0.30318 0.63743 0.41262 0.0
H206 H 0.198 0.43292 0.19838 0.0
H207 H 0.16969 0.46386 0.16685 0.0
H208 H 0.26939 0.44839 0.20405 0.0
H209 H 0.31499 0.4724 0.27449 0.0
C210 C 0.75653 0.23656 0.38009 0.0
C211 C 0.70864 0.22635 0.38919 0.0
C212 C 0.73381 0.2801 0.5043 0.0
C213 C 0.78233 0.29804 0.48338 0.0
N214 N 0.84033 0.29525 0.39597 0.0
N215 N 0.65285 0.24416 0.45584 0.0
C216 C 0.79402 0.27631 0.42068 0.0
C217 C 0.69723 0.24892 0.45115 0.0
N218 N 0.7661 0.20795 0.33332 0.0
N219 N 0.72278 0.29338 0.57481 0.0
H220 H 0.62523 0.2242 0.41604 0.0
H221 H 0.64484 0.26418 0.49474 0.0
H222 H 0.749 0.31572 0.6154 0.0
H223 H 0.68794 0.27816 0.59658 0.0
H224 H 0.79977 0.21121 0.33004 0.0
H225 H 0.73922 0.17769 0.30491 0.0
H226 H 0.84985 0.28413 0.3444 0.0
H227 H 0.86903 0.32447 0.4232 0.0
C228 C 0.47565 0.72924 0.67497 0.0
C229 C 0.49639 0.77595 0.64258 0.0
C230 C 0.52774 0.75182 0.52999 0.0
C231 C 0.49945 0.70365 0.55442 0.0
N232 N 0.47043 0.65211 0.66984 0.0
N233 N 0.54243 0.83254 0.53897 0.0
C234 C 0.48038 0.6937 0.63305 0.0
C235 C 0.52354 0.78783 0.57096 0.0
N236 N 0.45035 0.7186 0.7447 0.0
N237 N 0.56052 0.76317 0.47036 0.0
H238 H 0.54046 0.86015 0.56695 0.0
H239 H 0.55721 0.84147 0.48199 0.0
H240 H 0.56705 0.73769 0.44478 0.0
H241 H 0.58523 0.79801 0.45372 0.0
H242 H 0.42905 0.684 0.7661 0.0
H243 H 0.44871 0.7444 0.77943 0.0
H244 H 0.45903 0.64394 0.72879 0.0
H245 H 0.48071 0.62903 0.64595 0.0
C246 C 0.72886 0.51 0.74479 0.0
C247 C 0.70537 0.47469 0.80472 0.0
C248 C 0.75025 0.43583 0.76478 0.0
C249 C 0.77513 0.47211 0.70676 0.0
N250 N 0.79689 0.54986 0.65547 0.0
N251 N 0.70328 0.41252 0.88634 0.0
C252 C 0.76723 0.51122 0.70127 0.0
C253 C 0.71935 0.44045 0.81949 0.0
N254 N 0.71282 0.54053 0.72591 0.0
N255 N 0.75329 0.39531 0.76441 0.0
H256 H 0.68119 0.41563 0.92832 0.0
H257 H 0.71576 0.38998 0.90424 0.0
H258 H 0.77402 0.38922 0.72387 0.0
H259 H 0.73161 0.36558 0.79951 0.0
H260 H 0.72492 0.5631 0.67649 0.0
H261 H 0.68476 0.54085 0.75579 0.0
H262 H 0.79583 0.5814 0.65515 0.0
H263 H 0.82575 0.55212 0.62388 0.0
C264 C 0.3323 0.75439 0.94052 0.0
C265 C 0.32378 0.78164 0.88327 0.0
C266 C 0.23971 0.74296 0.92484 0.0
C267 C 0.24867 0.71691 0.9838 0.0
N268 N 0.30581 0.7076 0.06221 0.0
N269 N 0.27334 0.81135 0.83604 0.0
C270 C 0.29585 0.72598 0.99638 0.0
C271 C 0.27869 0.77897 0.8804 0.0
N272 N 0.37373 0.75283 0.93836 0.0
N273 N 0.19385 0.73143 0.90742 0.0
H274 H 0.30146 0.83869 0.80398 0.0
H275 H 0.24264 0.8141 0.83768 0.0
H276 H 0.16404 0.70505 0.93755 0.0
H277 H 0.18503 0.74541 0.85863 0.0
H278 H 0.37925 0.72929 0.9728 0.0
H279 H 0.40102 0.77175 0.8972 0.0
H280 H 0.34041 0.71669 0.07877 0.0
H281 H 0.27991 0.68715 0.10475 0.0
C282 C 0.56555 0.27861 1.00274 0.0
C283 C 0.54153 0.30233 0.03037 0.0
C284 C 0.52265 0.257 0.15599 0.0
C285 C 0.54276 0.23042 0.12449 0.0
N286 N 0.5701 0.20675 0.00854 0.0
N287 N 0.48949 0.30793 0.12742 0.0
C288 C 0.56009 0.2384 0.04495 0.0
C289 C 0.5178 0.28979 0.10546 0.0
N290 N 0.59603 0.29597 0.93895 0.0
N291 N 0.50989 0.25237 0.2346 0.0
H292 H 0.48433 0.33114 0.09126 0.0
H293 H 0.4677 0.29655 0.17785 0.0
H294 H 0.51301 0.22882 0.27313 0.0
H295 H 0.49985 0.2745 0.26298 0.0
H296 H 0.61791 0.28248 0.92202 0.0
H297 H 0.60387 0.32717 0.90872 0.0
H298 H 0.57857 0.20876 0.94811 0.0
H299 H 0.56457 0.1755 0.03603 0.0
loop_
_geom_bond_atom_site_label_1
_geom_bond_atom_site_label_2
_geom_bond_distance
_geom_bond_site_symmetry_2
_ccdc_geom_bond_type
O0 Cd1 2.223 1_556 S
O0 C8 1.315 . S
Cd1 O0 2.223 1_554 S
Cd1 O4 2.297 . S
Cd1 O5 2.439 . S
Cd1 O11 2.240 . S
Cd2 O3 2.240 . S
Cd2 O10 2.223 1_554 S
Cd2 O12 2.297 . S
Cd2 O13 2.439 . S
O3 Cd2 2.240 . S
O3 C8 1.279 1_554 S
O4 Cd1 2.297 . S
O4 C6 1.247 . S
O5 Cd1 2.439 . S
O5 C6 1.208 . S
C6 O4 1.247 . S
C6 O5 1.208 . S
C7 O12 1.247 . S
C7 O13 1.208 . S
C8 O0 1.315 . S
C8 O3 1.279 1_556 S
C9 O10 1.315 . S
C9 O11 1.279 1_556 S
O10 Cd2 2.223 1_556 S
O10 C9 1.315 . S
O11 Cd1 2.240 . S
O11 C9 1.279 1_554 S
O12 Cd2 2.297 . S
O12 C7 1.247 . S
O13 Cd2 2.439 . S
O13 C7 1.208 . S
O14 Cd15 2.223 . S
O14 C22 1.315 . S
Cd15 O14 2.223 . S
Cd15 O18 2.297 . S
Cd15 O19 2.439 . S
Cd15 O25 2.240 . S
Cd16 O17 2.240 . S
Cd16 O24 2.223 . S
Cd16 O26 2.297 . S
Cd16 O27 2.439 . S
O17 Cd16 2.240 . S
O17 C22 1.279 . S
O18 Cd15 2.297 . S
O18 C20 1.247 . S
O19 Cd15 2.439 . S
O19 C20 1.208 . S
C20 O18 1.247 . S
C20 O19 1.208 . S
C21 O26 1.247 . S
C21 O27 1.208 . S
C22 O14 1.315 . S
C22 O17 1.279 . S
C23 O24 1.315 . S
C23 O25 1.279 . S
O24 Cd16 2.223 . S
O24 C23 1.315 . S
O25 Cd15 2.240 . S
O25 C23 1.279 . S
O26 Cd16 2.297 . S
O26 C21 1.247 . S
O27 Cd16 2.439 . S
O27 C21 1.208 . S
O28 Cd29 2.223 . S
O28 C36 1.315 . S
Cd29 O28 2.223 . S
Cd29 O32 2.297 . S
Cd29 O33 2.439 . S
Cd29 O39 2.240 . S
Cd30 O31 2.240 . S
Cd30 O38 2.223 . S
Cd30 O40 2.297 . S
Cd30 O41 2.439 . S
O31 Cd30 2.240 . S
O31 C36 1.279 . S
O32 Cd29 2.297 . S
O32 C34 1.247 . S
O33 Cd29 2.439 . S
O33 C34 1.208 . S
C34 O32 1.247 . S
C34 O33 1.208 . S
C35 O40 1.247 . S
C35 O41 1.208 . S
C36 O28 1.315 . S
C36 O31 1.279 . S
C37 O38 1.315 . S
C37 O39 1.279 . S
O38 Cd30 2.223 . S
O38 C37 1.315 . S
O39 Cd29 2.240 . S
O39 C37 1.279 . S
O40 Cd30 2.297 . S
O40 C35 1.247 . S
O41 Cd30 2.439 . S
O41 C35 1.208 . S
O42 Cd43 2.223 . S
O42 C50 1.315 . S
Cd43 O42 2.223 . S
Cd43 O46 2.297 . S
Cd43 O47 2.439 . S
Cd43 O53 2.240 . S
Cd44 O45 2.240 . S
Cd44 O52 2.223 . S
Cd44 O54 2.297 . S
Cd44 O55 2.439 . S
O45 Cd44 2.240 . S
O45 C50 1.279 . S
O46 Cd43 2.297 . S
O46 C48 1.247 . S
O47 Cd43 2.439 . S
O47 C48 1.208 . S
C48 O46 1.247 . S
C48 O47 1.208 . S
C49 O54 1.247 . S
C49 O55 1.208 . S
C50 O42 1.315 . S
C50 O45 1.279 . S
C51 O52 1.315 . S
C51 O53 1.279 . S
O52 Cd44 2.223 . S
O52 C51 1.315 . S
O53 Cd43 2.240 . S
O53 C51 1.279 . S
O54 Cd44 2.297 . S
O54 C49 1.247 . S
O55 Cd44 2.439 . S
O55 C49 1.208 . S
O56 Cd57 2.223 . S
O56 C64 1.315 . S
Cd57 O56 2.223 . S
Cd57 O60 2.297 . S
Cd57 O61 2.439 . S
Cd57 O67 2.240 . S
Cd58 O59 2.240 . S
Cd58 O66 2.223 . S
Cd58 O68 2.297 . S
Cd58 O69 2.439 . S
O59 Cd58 2.240 . S
O59 C64 1.279 . S
O60 Cd57 2.297 . S
O60 C62 1.247 . S
O61 Cd57 2.439 . S
O61 C62 1.208 . S
C62 O60 1.247 . S
C62 O61 1.208 . S
C63 O68 1.247 . S
C63 O69 1.208 . S
C64 O56 1.315 . S
C64 O59 1.279 . S
C65 O66 1.315 . S
C65 O67 1.279 . S
O66 Cd58 2.223 . S
O66 C65 1.315 . S
O67 Cd57 2.240 . S
O67 C65 1.279 . S
O68 Cd58 2.297 . S
O68 C63 1.247 . S
O69 Cd58 2.439 . S
O69 C63 1.208 . S
O70 Cd71 2.223 . S
O70 C78 1.315 . S
Cd71 O70 2.223 . S
Cd71 O74 2.297 1_556 S
Cd71 O75 2.439 1_556 S
Cd71 O81 2.240 . S
Cd72 O73 2.240 . S
Cd72 O80 2.223 . S
Cd72 O82 2.297 . S
Cd72 O83 2.436 1_556 S
O73 Cd72 2.240 . S
O73 C78 1.279 . S
O74 Cd71 2.297 1_554 S
O74 C76 1.247 . S
O75 Cd71 2.439 1_554 S
O75 C76 1.208 . S
C76 O74 1.247 . S
C76 O75 1.208 . S
C77 O82 1.247 . S
C77 O83 1.207 1_556 S
C78 O70 1.315 . S
C78 O73 1.279 . S
C79 O80 1.315 . S
C79 O81 1.279 . S
O80 Cd72 2.223 . S
O80 C79 1.315 . S
O81 Cd71 2.240 . S
O81 C79 1.279 . S
O82 Cd72 2.297 . S
O82 C77 1.247 . S
O83 Cd72 2.436 1_554 S
O83 C77 1.207 1_554 S
C84 C85 1.363 . S
C84 C90 1.379 . S
C84 N92 1.356 . S
C85 C84 1.363 . S
C85 C91 1.363 . S
C86 C87 1.363 1_455 S
C86 C91 1.379 . S
C86 N93 1.356 1_455 S
C87 C86 1.363 1_655 S
C87 C90 1.363 1_655 S
N88 C90 1.356 1_655 S
N88 H100 0.984 . S
N88 H101 0.985 . S
N89 C91 1.356 . S
N89 H94 0.984 . S
N89 H95 0.985 . S
C90 C84 1.379 . S
C90 C87 1.363 1_455 S
C90 N88 1.356 1_455 S
C91 C85 1.363 . S
C91 C86 1.379 . S
C91 N89 1.356 . S
N92 C84 1.356 . S
N92 H98 0.984 . S
N92 H99 0.984 . S
N93 C86 1.356 1_655 S
N93 H96 0.984 . S
N93 H97 0.985 . S
H94 N89 0.984 . S
H95 N89 0.985 . S
H96 N93 0.984 . S
H97 N93 0.985 . S
H98 N92 0.984 . S
H99 N92 0.984 . S
H100 N88 0.984 . S
H101 N88 0.985 . S
C102 C103 1.363 1_554 S
C102 C108 1.379 1_565 S
C102 N110 1.356 . S
C103 C102 1.363 1_556 S
C103 C109 1.363 1_565 S
C104 C105 1.363 1_556 S
C104 C109 1.379 . S
C104 N111 1.356 1_556 S
C105 C104 1.363 1_554 S
C105 C108 1.363 . S
N106 C108 1.353 1_565 S
N106 H118 0.999 . S
N106 H119 0.974 1_565 S
N107 C109 1.356 . S
N107 H112 0.984 . S
N107 H113 0.985 . S
C108 C102 1.379 1_545 S
C108 C105 1.363 . S
C108 N106 1.353 1_545 S
C109 C103 1.363 1_545 S
C109 C104 1.379 . S
C109 N107 1.356 . S
N110 C102 1.356 . S
N110 H116 0.984 . S
N110 H117 0.984 1_554 S
N111 C104 1.356 1_554 S
N111 H114 0.984 . S
N111 H115 0.985 1_554 S
H112 N107 0.984 . S
H113 N107 0.985 . S
H114 N111 0.984 . S
H115 N111 0.985 1_556 S
H116 N110 0.984 . S
H117 N110 0.984 1_556 S
H118 N106 0.999 . S
H119 N106 0.974 1_545 S
C120 C121 1.363 . S
C120 C126 1.379 . S
C120 N128 1.356 . S
C121 C120 1.363 . S
C121 C127 1.363 . S
C122 C123 1.363 . S
C122 C127 1.379 . S
C122 N129 1.356 . S
C123 C122 1.363 . S
C123 C126 1.363 . S
N124 C126 1.356 . S
N124 H136 0.984 . S
N124 H137 0.985 . S
N125 C127 1.356 . S
N125 H130 0.984 . S
N125 H131 0.985 . S
C126 C120 1.379 . S
C126 C123 1.363 . S
C126 N124 1.356 . S
C127 C121 1.363 . S
C127 C122 1.379 . S
C127 N125 1.356 . S
N128 C120 1.356 . S
N128 H134 0.984 . S
N128 H135 0.984 . S
N129 C122 1.356 . S
N129 H132 0.984 . S
N129 H133 0.985 . S
H130 N125 0.984 . S
H131 N125 0.985 . S
H132 N129 0.984 . S
H133 N129 0.985 . S
H134 N128 0.984 . S
H135 N128 0.984 . S
H136 N124 0.984 . S
H137 N124 0.985 . S
C138 C139 1.363 . S
C138 C144 1.379 . S
C138 N146 1.356 . S
C139 C138 1.363 . S
C139 C145 1.363 . S
C140 C141 1.363 1_655 S
C140 C145 1.379 . S
C140 N147 1.356 1_655 S
C141 C140 1.363 1_455 S
C141 C144 1.363 1_455 S
N142 C144 1.356 1_455 S
N142 H154 0.984 . S
N142 H155 0.985 . S
N143 C145 1.356 . S
N143 H148 0.984 . S
N143 H149 0.985 . S
C144 C138 1.379 . S
C144 C141 1.363 1_655 S
C144 N142 1.356 1_655 S
C145 C139 1.363 . S
C145 C140 1.379 . S
C145 N143 1.356 . S
N146 C138 1.356 . S
N146 H152 0.984 . S
N146 H153 0.984 . S
N147 C140 1.356 1_455 S
N147 H150 0.984 . S
N147 H151 0.985 . S
H148 N143 0.984 . S
H149 N143 0.985 . S
H150 N147 0.984 . S
H151 N147 0.985 . S
H152 N146 0.984 . S
H153 N146 0.984 . S
H154 N142 0.984 . S
H155 N142 0.985 . S
C156 C157 1.363 . S
C156 C162 1.379 1_545 S
C156 N164 1.356 . S
C157 C156 1.363 . S
C157 C163 1.363 1_545 S
C158 C159 1.363 . S
C158 C163 1.379 . S
C158 N165 1.356 . S
C159 C158 1.363 . S
C159 C162 1.363 . S
N160 C162 1.356 . S
N160 H172 0.984 . S
N160 H173 0.985 . S
N161 C163 1.356 . S
N161 H166 0.984 1_565 S
N161 H167 0.985 . S
C162 C156 1.379 1_565 S
C162 C159 1.363 . S
C162 N160 1.356 . S
C163 C157 1.363 1_565 S
C163 C158 1.379 . S
C163 N161 1.356 . S
N164 C156 1.356 . S
N164 H170 0.984 . S
N164 H171 0.984 . S
N165 C158 1.356 . S
N165 H168 0.984 . S
N165 H169 0.985 . S
H166 N161 0.984 1_545 S
H167 N161 0.985 . S
H168 N165 0.984 . S
H169 N165 0.985 . S
H170 N164 0.984 . S
H171 N164 0.984 . S
H172 N160 0.984 . S
H173 N160 0.985 . S
C174 C175 1.363 . S
C174 C180 1.379 . S
C174 N182 1.356 . S
C175 C174 1.363 . S
C175 C181 1.363 . S
C176 C177 1.363 . S
C176 C181 1.379 . S
C176 N183 1.356 . S
C177 C176 1.363 . S
C177 C180 1.363 . S
N178 C180 1.356 . S
N178 H190 0.984 . S
N178 H191 0.985 . S
N179 C181 1.356 . S
N179 H184 0.984 . S
N179 H185 0.985 . S
C180 C174 1.379 . S
C180 C177 1.363 . S
C180 N178 1.356 . S
C181 C175 1.363 . S
C181 C176 1.379 . S
C181 N179 1.356 . S
N182 C174 1.356 . S
N182 H188 0.984 . S
N182 H189 0.984 . S
N183 C176 1.356 . S
N183 H186 0.984 . S
N183 H187 0.985 . S
H184 N179 0.984 . S
H185 N179 0.985 . S
H186 N183 0.984 . S
H187 N183 0.985 . S
H188 N182 0.984 . S
H189 N182 0.984 . S
H190 N178 0.984 . S
H191 N178 0.985 . S
C192 C193 1.363 . S
C192 C198 1.379 . S
C192 N200 1.356 . S
C193 C192 1.363 . S
C193 C199 1.363 . S
C194 C195 1.363 . S
C194 C199 1.379 . S
C194 N201 1.356 . S
C195 C194 1.363 . S
C195 C198 1.363 . S
N196 C198 1.356 . S
N196 H208 0.984 . S
N196 H209 0.985 . S
N197 C199 1.356 . S
N197 H202 0.984 . S
N197 H203 0.985 . S
C198 C192 1.379 . S
C198 C195 1.363 . S
C198 N196 1.356 . S
C199 C193 1.363 . S
C199 C194 1.379 . S
C199 N197 1.356 . S
N200 C192 1.356 . S
N200 H206 0.984 . S
N200 H207 0.984 . S
N201 C194 1.356 . S
N201 H204 0.984 . S
N201 H205 0.985 . S
H202 N197 0.984 . S
H203 N197 0.985 . S
H204 N201 0.984 . S
H205 N201 0.985 . S
H206 N200 0.984 . S
H207 N200 0.984 . S
H208 N196 0.984 . S
H209 N196 0.985 . S
C210 C211 1.363 . S
C210 C216 1.379 . S
C210 N218 1.356 . S
C211 C210 1.363 . S
C211 C217 1.363 . S
C212 C213 1.363 . S
C212 C217 1.379 . S
C212 N219 1.356 . S
C213 C212 1.363 . S
C213 C216 1.363 . S
N214 C216 1.356 . S
N214 H226 0.984 . S
N214 H227 0.985 . S
N215 C217 1.356 . S
N215 H220 0.984 . S
N215 H221 0.985 . S
C216 C210 1.379 . S
C216 C213 1.363 . S
C216 N214 1.356 . S
C217 C211 1.363 . S
C217 C212 1.379 . S
C217 N215 1.356 . S
N218 C210 1.356 . S
N218 H224 0.984 . S
N218 H225 0.984 . S
N219 C212 1.356 . S
N219 H222 0.984 . S
N219 H223 0.985 . S
H220 N215 0.984 . S
H221 N215 0.985 . S
H222 N219 0.984 . S
H223 N219 0.985 . S
H224 N218 0.984 . S
H225 N218 0.984 . S
H226 N214 0.984 . S
H227 N214 0.985 . S
C228 C229 1.363 . S
C228 C234 1.379 . S
C228 N236 1.356 . S
C229 C228 1.363 . S
C229 C235 1.363 . S
C230 C231 1.363 . S
C230 C235 1.379 . S
C230 N237 1.356 . S
C231 C230 1.363 . S
C231 C234 1.363 . S
N232 C234 1.356 . S
N232 H244 0.984 . S
N232 H245 0.985 . S
N233 C235 1.356 . S
N233 H238 0.984 . S
N233 H239 0.985 . S
C234 C228 1.379 . S
C234 C231 1.363 . S
C234 N232 1.356 . S
C235 C229 1.363 . S
C235 C230 1.379 . S
C235 N233 1.356 . S
N236 C228 1.356 . S
N236 H242 0.984 . S
N236 H243 0.984 . S
N237 C230 1.356 . S
N237 H240 0.984 . S
N237 H241 0.985 . S
H238 N233 0.984 . S
H239 N233 0.985 . S
H240 N237 0.984 . S
H241 N237 0.985 . S
H242 N236 0.984 . S
H243 N236 0.984 . S
H244 N232 0.984 . S
H245 N232 0.985 . S
C246 C247 1.363 . S
C246 C252 1.379 . S
C246 N254 1.356 . S
C247 C246 1.363 . S
C247 C253 1.363 . S
C248 C249 1.363 . S
C248 C253 1.379 . S
C248 N255 1.356 . S
C249 C248 1.363 . S
C249 C252 1.363 . S
N250 C252 1.356 . S
N250 H262 0.984 . S
N250 H263 0.985 . S
N251 C253 1.356 . S
N251 H256 0.984 . S
N251 H257 0.985 . S
C252 C246 1.379 . S
C252 C249 1.363 . S
C252 N250 1.356 . S
C253 C247 1.363 . S
C253 C248 1.379 . S
C253 N251 1.356 . S
N254 C246 1.356 . S
N254 H260 0.984 . S
N254 H261 0.984 . S
N255 C248 1.356 . S
N255 H258 0.984 . S
N255 H259 0.985 . S
H256 N251 0.984 . S
H257 N251 0.985 . S
H258 N255 0.984 . S
H259 N255 0.985 . S
H260 N254 0.984 . S
H261 N254 0.984 . S
H262 N250 0.984 . S
H263 N250 0.985 . S
C264 C265 1.363 . S
C264 C270 1.379 . S
C264 N272 1.356 . S
C265 C264 1.363 . S
C265 C271 1.363 . S
C266 C267 1.363 . S
C266 C271 1.379 . S
C266 N273 1.356 . S
C267 C266 1.363 . S
C267 C270 1.363 . S
N268 C270 1.356 1_554 S
N268 H280 0.984 . S
N268 H281 0.985 . S
N269 C271 1.356 . S
N269 H274 0.984 . S
N269 H275 0.985 . S
C270 C264 1.379 . S
C270 C267 1.363 . S
C270 N268 1.356 1_556 S
C271 C265 1.363 . S
C271 C266 1.379 . S
C271 N269 1.356 . S
N272 C264 1.356 . S
N272 H278 0.984 . S
N272 H279 0.984 . S
N273 C266 1.356 . S
N273 H276 0.984 . S
N273 H277 0.985 . S
H274 N269 0.984 . S
H275 N269 0.985 . S
H276 N273 0.984 . S
H277 N273 0.985 . S
H278 N272 0.984 . S
H279 N272 0.984 . S
H280 N268 0.984 . S
H281 N268 0.985 . S
C282 C283 1.363 1_556 S
C282 C288 1.379 1_556 S
C282 N290 1.356 . S
C283 C282 1.363 1_554 S
C283 C289 1.363 . S
C284 C285 1.363 . S
C284 C289 1.379 . S
C284 N291 1.356 . S
C285 C284 1.363 . S
C285 C288 1.363 . S
N286 C288 1.356 . S
N286 H298 0.984 1_554 S
N286 H299 0.985 . S
N287 C289 1.356 . S
N287 H292 0.984 . S
N287 H293 0.985 . S
C288 C282 1.379 1_554 S
C288 C285 1.363 . S
C288 N286 1.356 . S
C289 C283 1.363 . S
C289 C284 1.379 . S
C289 N287 1.356 . S
N290 C282 1.356 . S
N290 H296 0.984 . S
N290 H297 0.984 . S
N291 C284 1.356 . S
N291 H294 0.984 . S
N291 H295 0.985 . S
H292 N287 0.984 . S
H293 N287 0.985 . S
H294 N291 0.984 . S
H295 N291 0.985 . S
H296 N290 0.984 . S
H297 N290 0.984 . S
H298 N286 0.984 1_556 S
H299 N286 0.985 . S
C85 C8 1.445 . S
C87 C48 1.488 . S
C103 C62 1.488 . S
C105 C22 1.445 . S
C121 C36 1.445 . S
C123 C76 1.488 . S
C139 C50 1.445 . S
C141 C6 1.488 . S
C157 C20 1.488 . S
C159 C64 1.445 . S
C175 C78 1.445 . S
C177 C34 1.488 . S
C193 C7 1.455 . S
C195 C37 1.469 . S
C211 C21 1.456 . S
C213 C51 1.470 . S
C229 C65 1.470 . S
C231 C35 1.456 . S
C247 C79 1.469 . S
C249 C49 1.455 . S
C265 C63 1.456 . S
C267 C9 1.470 . S
C283 C77 1.456 1_554 S
C285 C23 1.470 . S
