# Generated by pormake.
# Topology wse, (4)-cn, num edge types: 1
# Building blocks:
#     Node 0, Type 0, BuildingBlock: GALJAG_clean_sbu_0, # of connection points: 4
#     Node 1, Type 0, BuildingBlock: GALJAG_clean_sbu_0, # of connection points: 4
#     Node 2, Type 0, BuildingBlock: GALJAG_clean_sbu_0, # of connection points: 4
#     Node 3, Type 0, BuildingBlock: GALJAG_clean_sbu_0, # of connection points: 4
#     Node 4, Type 0, BuildingBlock: GALJAG_clean_sbu_0, # of connection points: 4
#     Node 5, Type 0, BuildingBlock: GALJAG_clean_sbu_0, # of connection points: 4
#     Node 6, Type 0, BuildingBlock: GALJAG_clean_sbu_0, # of connection points: 4
#     Node 7, Type 0, BuildingBlock: GALJAG_clean_sbu_0, # of connection points: 4
#     Node 8, Type 0, BuildingBlock: GALJAG_clean_sbu_0, # of connection points: 4
#     Node 9, Type 0, BuildingBlock: GALJAG_clean_sbu_0, # of connection points: 4
#     Node 10, Type 0, BuildingBlock: GALJAG_clean_sbu_0, # of connection points: 4
#     Node 11, Type 0, BuildingBlock: GALJAG_clean_sbu_0, # of connection points: 4
#     Node 12, Type 0, BuildingBlock: GALJAG_clean_sbu_0, # of connection points: 4
#     Node 13, Type 0, BuildingBlock: GALJAG_clean_sbu_0, # of connection points: 4
#     Node 14, Type 0, BuildingBlock: GALJAG_clean_sbu_0, # of connection points: 4
#     Node 15, Type 0, BuildingBlock: GALJAG_clean_sbu_0, # of connection points: 4
#     Node 16, Type 0, BuildingBlock: GALJAG_clean_sbu_0, # of connection points: 4
#     Node 17, Type 0, BuildingBlock: GALJAG_clean_sbu_0, # of connection points: 4
#     Node 18, Type 0, BuildingBlock: GALJAG_clean_sbu_0, # of connection points: 4
#     Node 19, Type 0, BuildingBlock: GALJAG_clean_sbu_0, # of connection points: 4
#     Node 20, Type 0, BuildingBlock: GALJAG_clean_sbu_0, # of connection points: 4
#     Node 21, Type 0, BuildingBlock: GALJAG_clean_sbu_0, # of connection points: 4
#     Node 22, Type 0, BuildingBlock: GALJAG_clean_sbu_0, # of connection points: 4
#     Node 23, Type 0, BuildingBlock: GALJAG_clean_sbu_0, # of connection points: 4
#     Node 24, Type 0, BuildingBlock: GALJAG_clean_sbu_0, # of connection points: 4
#     Node 25, Type 0, BuildingBlock: GALJAG_clean_sbu_0, # of connection points: 4
#     Node 26, Type 0, BuildingBlock: GALJAG_clean_sbu_0, # of connection points: 4
#     Node 27, Type 0, BuildingBlock: GALJAG_clean_sbu_0, # of connection points: 4
#     Node 28, Type 0, BuildingBlock: GALJAG_clean_sbu_0, # of connection points: 4
#     Node 29, Type 0, BuildingBlock: GALJAG_clean_sbu_0, # of connection points: 4
#     Node 30, Type 0, BuildingBlock: GALJAG_clean_sbu_0, # of connection points: 4
#     Node 31, Type 0, BuildingBlock: GALJAG_clean_sbu_0, # of connection points: 4
#     Node 32, Type 0, BuildingBlock: GALJAG_clean_sbu_0, # of connection points: 4
#     Node 33, Type 0, BuildingBlock: GALJAG_clean_sbu_0, # of connection points: 4
#     Node 34, Type 0, BuildingBlock: GALJAG_clean_sbu_0, # of connection points: 4
#     Node 35, Type 0, BuildingBlock: GALJAG_clean_sbu_0, # of connection points: 4
#     Node 36, Type 0, BuildingBlock: GALJAG_clean_sbu_0, # of connection points: 4
#     Node 37, Type 0, BuildingBlock: GALJAG_clean_sbu_0, # of connection points: 4
#     Node 38, Type 0, BuildingBlock: GALJAG_clean_sbu_0, # of connection points: 4
#     Node 39, Type 0, BuildingBlock: GALJAG_clean_sbu_0, # of connection points: 4
#     Node 40, Type 0, BuildingBlock: GALJAG_clean_sbu_0, # of connection points: 4
#     Node 41, Type 0, BuildingBlock: GALJAG_clean_sbu_0, # of connection points: 4
#     Node 42, Type 0, BuildingBlock: GALJAG_clean_sbu_0, # of connection points: 4
#     Node 43, Type 0, BuildingBlock: GALJAG_clean_sbu_0, # of connection points: 4
#     Node 44, Type 0, BuildingBlock: GALJAG_clean_sbu_0, # of connection points: 4
#     Node 45, Type 0, BuildingBlock: GALJAG_clean_sbu_0, # of connection points: 4
#     Node 46, Type 0, BuildingBlock: GALJAG_clean_sbu_0, # of connection points: 4
#     Node 47, Type 0, BuildingBlock: GALJAG_clean_sbu_0, # of connection points: 4
#     Node 48, Type 0, BuildingBlock: GALJAG_clean_sbu_0, # of connection points: 4
#     Node 49, Type 0, BuildingBlock: GALJAG_clean_sbu_0, # of connection points: 4
#     Node 50, Type 0, BuildingBlock: GALJAG_clean_sbu_0, # of connection points: 4
#     Node 51, Type 0, BuildingBlock: GALJAG_clean_sbu_0, # of connection points: 4
#     Node 52, Type 0, BuildingBlock: GALJAG_clean_sbu_0, # of connection points: 4
#     Node 53, Type 0, BuildingBlock: GALJAG_clean_sbu_0, # of connection points: 4
#     Node 54, Type 0, BuildingBlock: GALJAG_clean_sbu_0, # of connection points: 4
#     Node 55, Type 0, BuildingBlock: GALJAG_clean_sbu_0, # of connection points: 4
#     Node 56, Type 0, BuildingBlock: GALJAG_clean_sbu_0, # of connection points: 4
#     Node 57, Type 0, BuildingBlock: GALJAG_clean_sbu_0, # of connection points: 4
#     Node 58, Type 0, BuildingBlock: GALJAG_clean_sbu_0, # of connection points: 4
#     Node 59, Type 0, BuildingBlock: GALJAG_clean_sbu_0, # of connection points: 4
#     Node 60, Type 0, BuildingBlock: GALJAG_clean_sbu_0, # of connection points: 4
#     Node 61, Type 0, BuildingBlock: GALJAG_clean_sbu_0, # of connection points: 4
#     Node 62, Type 0, BuildingBlock: GALJAG_clean_sbu_0, # of connection points: 4
#     Node 63, Type 0, BuildingBlock: GALJAG_clean_sbu_0, # of connection points: 4
#     Node 64, Type 0, BuildingBlock: GALJAG_clean_sbu_0, # of connection points: 4
#     Node 65, Type 0, BuildingBlock: GALJAG_clean_sbu_0, # of connection points: 4
#     Node 66, Type 0, BuildingBlock: GALJAG_clean_sbu_0, # of connection points: 4
#     Node 67, Type 0, BuildingBlock: GALJAG_clean_sbu_0, # of connection points: 4
#     Node 68, Type 0, BuildingBlock: GALJAG_clean_sbu_0, # of connection points: 4
#     Node 69, Type 0, BuildingBlock: GALJAG_clean_sbu_0, # of connection points: 4
#     Node 70, Type 0, BuildingBlock: GALJAG_clean_sbu_0, # of connection points: 4
#     Node 71, Type 0, BuildingBlock: GALJAG_clean_sbu_0, # of connection points: 4
#     Node 72, Type 0, BuildingBlock: GALJAG_clean_sbu_0, # of connection points: 4
#     Node 73, Type 0, BuildingBlock: GALJAG_clean_sbu_0, # of connection points: 4
#     Node 74, Type 0, BuildingBlock: GALJAG_clean_sbu_0, # of connection points: 4
#     Node 75, Type 0, BuildingBlock: GALJAG_clean_sbu_0, # of connection points: 4
#     Node 76, Type 0, BuildingBlock: GALJAG_clean_sbu_0, # of connection points: 4
#     Node 77, Type 0, BuildingBlock: GALJAG_clean_sbu_0, # of connection points: 4
#     Node 78, Type 0, BuildingBlock: GALJAG_clean_sbu_0, # of connection points: 4
#     Node 79, Type 0, BuildingBlock: GALJAG_clean_sbu_0, # of connection points: 4
#     Node 80, Type 0, BuildingBlock: GALJAG_clean_sbu_0, # of connection points: 4
#     Node 81, Type 0, BuildingBlock: GALJAG_clean_sbu_0, # of connection points: 4
#     Node 82, Type 0, BuildingBlock: GALJAG_clean_sbu_0, # of connection points: 4
#     Node 83, Type 0, BuildingBlock: GALJAG_clean_sbu_0, # of connection points: 4
#     Node 84, Type 0, BuildingBlock: GALJAG_clean_sbu_0, # of connection points: 4
#     Node 85, Type 0, BuildingBlock: GALJAG_clean_sbu_0, # of connection points: 4
#     Node 86, Type 0, BuildingBlock: GALJAG_clean_sbu_0, # of connection points: 4
#     Node 87, Type 0, BuildingBlock: GALJAG_clean_sbu_0, # of connection points: 4
#     Node 88, Type 0, BuildingBlock: GALJAG_clean_sbu_0, # of connection points: 4
#     Node 89, Type 0, BuildingBlock: GALJAG_clean_sbu_0, # of connection points: 4
#     Node 90, Type 0, BuildingBlock: GALJAG_clean_sbu_0, # of connection points: 4
#     Node 91, Type 0, BuildingBlock: GALJAG_clean_sbu_0, # of connection points: 4
#     Node 92, Type 0, BuildingBlock: GALJAG_clean_sbu_0, # of connection points: 4
#     Node 93, Type 0, BuildingBlock: GALJAG_clean_sbu_0, # of connection points: 4
#     Node 94, Type 0, BuildingBlock: GALJAG_clean_sbu_0, # of connection points: 4
#     Node 95, Type 0, BuildingBlock: GALJAG_clean_sbu_0, # of connection points: 4
#     Edge 96, Type (0, 0), BuildingBlock: KIFKEQ_clean_linker_1, # of connection points: 2
#     Edge 97, Type (0, 0), BuildingBlock: KIFKEQ_clean_linker_1, # of connection points: 2
#     Edge 98, Type (0, 0), BuildingBlock: KIFKEQ_clean_linker_1, # of connection points: 2
#     Edge 99, Type (0, 0), BuildingBlock: KIFKEQ_clean_linker_1, # of connection points: 2
#     Edge 100, Type (0, 0), BuildingBlock: KIFKEQ_clean_linker_1, # of connection points: 2
#     Edge 101, Type (0, 0), BuildingBlock: KIFKEQ_clean_linker_1, # of connection points: 2
#     Edge 102, Type (0, 0), BuildingBlock: KIFKEQ_clean_linker_1, # of connection points: 2
#     Edge 103, Type (0, 0), BuildingBlock: KIFKEQ_clean_linker_1, # of connection points: 2
#     Edge 104, Type (0, 0), BuildingBlock: KIFKEQ_clean_linker_1, # of connection points: 2
#     Edge 105, Type (0, 0), BuildingBlock: KIFKEQ_clean_linker_1, # of connection points: 2
#     Edge 106, Type (0, 0), BuildingBlock: KIFKEQ_clean_linker_1, # of connection points: 2
#     Edge 107, Type (0, 0), BuildingBlock: KIFKEQ_clean_linker_1, # of connection points: 2
#     Edge 108, Type (0, 0), BuildingBlock: KIFKEQ_clean_linker_1, # of connection points: 2
#     Edge 109, Type (0, 0), BuildingBlock: KIFKEQ_clean_linker_1, # of connection points: 2
#     Edge 110, Type (0, 0), BuildingBlock: KIFKEQ_clean_linker_1, # of connection points: 2
#     Edge 111, Type (0, 0), BuildingBlock: KIFKEQ_clean_linker_1, # of connection points: 2
#     Edge 112, Type (0, 0), BuildingBlock: KIFKEQ_clean_linker_1, # of connection points: 2
#     Edge 113, Type (0, 0), BuildingBlock: KIFKEQ_clean_linker_1, # of connection points: 2
#     Edge 114, Type (0, 0), BuildingBlock: KIFKEQ_clean_linker_1, # of connection points: 2
#     Edge 115, Type (0, 0), BuildingBlock: KIFKEQ_clean_linker_1, # of connection points: 2
#     Edge 116, Type (0, 0), BuildingBlock: KIFKEQ_clean_linker_1, # of connection points: 2
#     Edge 117, Type (0, 0), BuildingBlock: KIFKEQ_clean_linker_1, # of connection points: 2
#     Edge 118, Type (0, 0), BuildingBlock: KIFKEQ_clean_linker_1, # of connection points: 2
#     Edge 119, Type (0, 0), BuildingBlock: KIFKEQ_clean_linker_1, # of connection points: 2
#     Edge 120, Type (0, 0), BuildingBlock: KIFKEQ_clean_linker_1, # of connection points: 2
#     Edge 121, Type (0, 0), BuildingBlock: KIFKEQ_clean_linker_1, # of connection points: 2
#     Edge 122, Type (0, 0), BuildingBlock: KIFKEQ_clean_linker_1, # of connection points: 2
#     Edge 123, Type (0, 0), BuildingBlock: KIFKEQ_clean_linker_1, # of connection points: 2
#     Edge 124, Type (0, 0), BuildingBlock: KIFKEQ_clean_linker_1, # of connection points: 2
#     Edge 125, Type (0, 0), BuildingBlock: KIFKEQ_clean_linker_1, # of connection points: 2
#     Edge 126, Type (0, 0), BuildingBlock: KIFKEQ_clean_linker_1, # of connection points: 2
#     Edge 127, Type (0, 0), BuildingBlock: KIFKEQ_clean_linker_1, # of connection points: 2
#     Edge 128, Type (0, 0), BuildingBlock: KIFKEQ_clean_linker_1, # of connection points: 2
#     Edge 129, Type (0, 0), BuildingBlock: KIFKEQ_clean_linker_1, # of connection points: 2
#     Edge 130, Type (0, 0), BuildingBlock: KIFKEQ_clean_linker_1, # of connection points: 2
#     Edge 131, Type (0, 0), BuildingBlock: KIFKEQ_clean_linker_1, # of connection points: 2
#     Edge 132, Type (0, 0), BuildingBlock: KIFKEQ_clean_linker_1, # of connection points: 2
#     Edge 133, Type (0, 0), BuildingBlock: KIFKEQ_clean_linker_1, # of connection points: 2
#     Edge 134, Type (0, 0), BuildingBlock: KIFKEQ_clean_linker_1, # of connection points: 2
#     Edge 135, Type (0, 0), BuildingBlock: KIFKEQ_clean_linker_1, # of connection points: 2
#     Edge 136, Type (0, 0), BuildingBlock: KIFKEQ_clean_linker_1, # of connection points: 2
#     Edge 137, Type (0, 0), BuildingBlock: KIFKEQ_clean_linker_1, # of connection points: 2
#     Edge 138, Type (0, 0), BuildingBlock: KIFKEQ_clean_linker_1, # of connection points: 2
#     Edge 139, Type (0, 0), BuildingBlock: KIFKEQ_clean_linker_1, # of connection points: 2
#     Edge 140, Type (0, 0), BuildingBlock: KIFKEQ_clean_linker_1, # of connection points: 2
#     Edge 141, Type (0, 0), BuildingBlock: KIFKEQ_clean_linker_1, # of connection points: 2
#     Edge 142, Type (0, 0), BuildingBlock: KIFKEQ_clean_linker_1, # of connection points: 2
#     Edge 143, Type (0, 0), BuildingBlock: KIFKEQ_clean_linker_1, # of connection points: 2
#     Edge 144, Type (0, 0), BuildingBlock: KIFKEQ_clean_linker_1, # of connection points: 2
#     Edge 145, Type (0, 0), BuildingBlock: KIFKEQ_clean_linker_1, # of connection points: 2
#     Edge 146, Type (0, 0), BuildingBlock: KIFKEQ_clean_linker_1, # of connection points: 2
#     Edge 147, Type (0, 0), BuildingBlock: KIFKEQ_clean_linker_1, # of connection points: 2
#     Edge 148, Type (0, 0), BuildingBlock: KIFKEQ_clean_linker_1, # of connection points: 2
#     Edge 149, Type (0, 0), BuildingBlock: KIFKEQ_clean_linker_1, # of connection points: 2
#     Edge 150, Type (0, 0), BuildingBlock: KIFKEQ_clean_linker_1, # of connection points: 2
#     Edge 151, Type (0, 0), BuildingBlock: KIFKEQ_clean_linker_1, # of connection points: 2
#     Edge 152, Type (0, 0), BuildingBlock: KIFKEQ_clean_linker_1, # of connection points: 2
#     Edge 153, Type (0, 0), BuildingBlock: KIFKEQ_clean_linker_1, # of connection points: 2
#     Edge 154, Type (0, 0), BuildingBlock: KIFKEQ_clean_linker_1, # of connection points: 2
#     Edge 155, Type (0, 0), BuildingBlock: KIFKEQ_clean_linker_1, # of connection points: 2
#     Edge 156, Type (0, 0), BuildingBlock: KIFKEQ_clean_linker_1, # of connection points: 2
#     Edge 157, Type (0, 0), BuildingBlock: KIFKEQ_clean_linker_1, # of connection points: 2
#     Edge 158, Type (0, 0), BuildingBlock: KIFKEQ_clean_linker_1, # of connection points: 2
#     Edge 159, Type (0, 0), BuildingBlock: KIFKEQ_clean_linker_1, # of connection points: 2
#     Edge 160, Type (0, 0), BuildingBlock: KIFKEQ_clean_linker_1, # of connection points: 2
#     Edge 161, Type (0, 0), BuildingBlock: KIFKEQ_clean_linker_1, # of connection points: 2
#     Edge 162, Type (0, 0), BuildingBlock: KIFKEQ_clean_linker_1, # of connection points: 2
#     Edge 163, Type (0, 0), BuildingBlock: KIFKEQ_clean_linker_1, # of connection points: 2
#     Edge 164, Type (0, 0), BuildingBlock: KIFKEQ_clean_linker_1, # of connection points: 2
#     Edge 165, Type (0, 0), BuildingBlock: KIFKEQ_clean_linker_1, # of connection points: 2
#     Edge 166, Type (0, 0), BuildingBlock: KIFKEQ_clean_linker_1, # of connection points: 2
#     Edge 167, Type (0, 0), BuildingBlock: KIFKEQ_clean_linker_1, # of connection points: 2
#     Edge 168, Type (0, 0), BuildingBlock: KIFKEQ_clean_linker_1, # of connection points: 2
#     Edge 169, Type (0, 0), BuildingBlock: KIFKEQ_clean_linker_1, # of connection points: 2
#     Edge 170, Type (0, 0), BuildingBlock: KIFKEQ_clean_linker_1, # of connection points: 2
#     Edge 171, Type (0, 0), BuildingBlock: KIFKEQ_clean_linker_1, # of connection points: 2
#     Edge 172, Type (0, 0), BuildingBlock: KIFKEQ_clean_linker_1, # of connection points: 2
#     Edge 173, Type (0, 0), BuildingBlock: KIFKEQ_clean_linker_1, # of connection points: 2
#     Edge 174, Type (0, 0), BuildingBlock: KIFKEQ_clean_linker_1, # of connection points: 2
#     Edge 175, Type (0, 0), BuildingBlock: KIFKEQ_clean_linker_1, # of connection points: 2
#     Edge 176, Type (0, 0), BuildingBlock: KIFKEQ_clean_linker_1, # of connection points: 2
#     Edge 177, Type (0, 0), BuildingBlock: KIFKEQ_clean_linker_1, # of connection points: 2
#     Edge 178, Type (0, 0), BuildingBlock: KIFKEQ_clean_linker_1, # of connection points: 2
#     Edge 179, Type (0, 0), BuildingBlock: KIFKEQ_clean_linker_1, # of connection points: 2
#     Edge 180, Type (0, 0), BuildingBlock: KIFKEQ_clean_linker_1, # of connection points: 2
#     Edge 181, Type (0, 0), BuildingBlock: KIFKEQ_clean_linker_1, # of connection points: 2
#     Edge 182, Type (0, 0), BuildingBlock: KIFKEQ_clean_linker_1, # of connection points: 2
#     Edge 183, Type (0, 0), BuildingBlock: KIFKEQ_clean_linker_1, # of connection points: 2
#     Edge 184, Type (0, 0), BuildingBlock: KIFKEQ_clean_linker_1, # of connection points: 2
#     Edge 185, Type (0, 0), BuildingBlock: KIFKEQ_clean_linker_1, # of connection points: 2
#     Edge 186, Type (0, 0), BuildingBlock: KIFKEQ_clean_linker_1, # of connection points: 2
#     Edge 187, Type (0, 0), BuildingBlock: KIFKEQ_clean_linker_1, # of connection points: 2
#     Edge 188, Type (0, 0), BuildingBlock: KIFKEQ_clean_linker_1, # of connection points: 2
#     Edge 189, Type (0, 0), BuildingBlock: KIFKEQ_clean_linker_1, # of connection points: 2
#     Edge 190, Type (0, 0), BuildingBlock: KIFKEQ_clean_linker_1, # of connection points: 2
#     Edge 191, Type (0, 0), BuildingBlock: KIFKEQ_clean_linker_1, # of connection points: 2
#     Edge 192, Type (0, 0), BuildingBlock: KIFKEQ_clean_linker_1, # of connection points: 2
#     Edge 193, Type (0, 0), BuildingBlock: KIFKEQ_clean_linker_1, # of connection points: 2
#     Edge 194, Type (0, 0), BuildingBlock: KIFKEQ_clean_linker_1, # of connection points: 2
#     Edge 195, Type (0, 0), BuildingBlock: KIFKEQ_clean_linker_1, # of connection points: 2
#     Edge 196, Type (0, 0), BuildingBlock: KIFKEQ_clean_linker_1, # of connection points: 2
#     Edge 197, Type (0, 0), BuildingBlock: KIFKEQ_clean_linker_1, # of connection points: 2
#     Edge 198, Type (0, 0), BuildingBlock: KIFKEQ_clean_linker_1, # of connection points: 2
#     Edge 199, Type (0, 0), BuildingBlock: KIFKEQ_clean_linker_1, # of connection points: 2
#     Edge 200, Type (0, 0), BuildingBlock: KIFKEQ_clean_linker_1, # of connection points: 2
#     Edge 201, Type (0, 0), BuildingBlock: KIFKEQ_clean_linker_1, # of connection points: 2
#     Edge 202, Type (0, 0), BuildingBlock: KIFKEQ_clean_linker_1, # of connection points: 2
#     Edge 203, Type (0, 0), BuildingBlock: KIFKEQ_clean_linker_1, # of connection points: 2
#     Edge 204, Type (0, 0), BuildingBlock: KIFKEQ_clean_linker_1, # of connection points: 2
#     Edge 205, Type (0, 0), BuildingBlock: KIFKEQ_clean_linker_1, # of connection points: 2
#     Edge 206, Type (0, 0), BuildingBlock: KIFKEQ_clean_linker_1, # of connection points: 2
#     Edge 207, Type (0, 0), BuildingBlock: KIFKEQ_clean_linker_1, # of connection points: 2
#     Edge 208, Type (0, 0), BuildingBlock: KIFKEQ_clean_linker_1, # of connection points: 2
#     Edge 209, Type (0, 0), BuildingBlock: KIFKEQ_clean_linker_1, # of connection points: 2
#     Edge 210, Type (0, 0), BuildingBlock: KIFKEQ_clean_linker_1, # of connection points: 2
#     Edge 211, Type (0, 0), BuildingBlock: KIFKEQ_clean_linker_1, # of connection points: 2
#     Edge 212, Type (0, 0), BuildingBlock: KIFKEQ_clean_linker_1, # of connection points: 2
#     Edge 213, Type (0, 0), BuildingBlock: KIFKEQ_clean_linker_1, # of connection points: 2
#     Edge 214, Type (0, 0), BuildingBlock: KIFKEQ_clean_linker_1, # of connection points: 2
#     Edge 215, Type (0, 0), BuildingBlock: KIFKEQ_clean_linker_1, # of connection points: 2
#     Edge 216, Type (0, 0), BuildingBlock: KIFKEQ_clean_linker_1, # of connection points: 2
#     Edge 217, Type (0, 0), BuildingBlock: KIFKEQ_clean_linker_1, # of connection points: 2
#     Edge 218, Type (0, 0), BuildingBlock: KIFKEQ_clean_linker_1, # of connection points: 2
#     Edge 219, Type (0, 0), BuildingBlock: KIFKEQ_clean_linker_1, # of connection points: 2
#     Edge 220, Type (0, 0), BuildingBlock: KIFKEQ_clean_linker_1, # of connection points: 2
#     Edge 221, Type (0, 0), BuildingBlock: KIFKEQ_clean_linker_1, # of connection points: 2
#     Edge 222, Type (0, 0), BuildingBlock: KIFKEQ_clean_linker_1, # of connection points: 2
#     Edge 223, Type (0, 0), BuildingBlock: KIFKEQ_clean_linker_1, # of connection points: 2
#     Edge 224, Type (0, 0), BuildingBlock: KIFKEQ_clean_linker_1, # of connection points: 2
#     Edge 225, Type (0, 0), BuildingBlock: KIFKEQ_clean_linker_1, # of connection points: 2
#     Edge 226, Type (0, 0), BuildingBlock: KIFKEQ_clean_linker_1, # of connection points: 2
#     Edge 227, Type (0, 0), BuildingBlock: KIFKEQ_clean_linker_1, # of connection points: 2
#     Edge 228, Type (0, 0), BuildingBlock: KIFKEQ_clean_linker_1, # of connection points: 2
#     Edge 229, Type (0, 0), BuildingBlock: KIFKEQ_clean_linker_1, # of connection points: 2
#     Edge 230, Type (0, 0), BuildingBlock: KIFKEQ_clean_linker_1, # of connection points: 2
#     Edge 231, Type (0, 0), BuildingBlock: KIFKEQ_clean_linker_1, # of connection points: 2
#     Edge 232, Type (0, 0), BuildingBlock: KIFKEQ_clean_linker_1, # of connection points: 2
#     Edge 233, Type (0, 0), BuildingBlock: KIFKEQ_clean_linker_1, # of connection points: 2
#     Edge 234, Type (0, 0), BuildingBlock: KIFKEQ_clean_linker_1, # of connection points: 2
#     Edge 235, Type (0, 0), BuildingBlock: KIFKEQ_clean_linker_1, # of connection points: 2
#     Edge 236, Type (0, 0), BuildingBlock: KIFKEQ_clean_linker_1, # of connection points: 2
#     Edge 237, Type (0, 0), BuildingBlock: KIFKEQ_clean_linker_1, # of connection points: 2
#     Edge 238, Type (0, 0), BuildingBlock: KIFKEQ_clean_linker_1, # of connection points: 2
#     Edge 239, Type (0, 0), BuildingBlock: KIFKEQ_clean_linker_1, # of connection points: 2
#     Edge 240, Type (0, 0), BuildingBlock: KIFKEQ_clean_linker_1, # of connection points: 2
#     Edge 241, Type (0, 0), BuildingBlock: KIFKEQ_clean_linker_1, # of connection points: 2
#     Edge 242, Type (0, 0), BuildingBlock: KIFKEQ_clean_linker_1, # of connection points: 2
#     Edge 243, Type (0, 0), BuildingBlock: KIFKEQ_clean_linker_1, # of connection points: 2
#     Edge 244, Type (0, 0), BuildingBlock: KIFKEQ_clean_linker_1, # of connection points: 2
#     Edge 245, Type (0, 0), BuildingBlock: KIFKEQ_clean_linker_1, # of connection points: 2
#     Edge 246, Type (0, 0), BuildingBlock: KIFKEQ_clean_linker_1, # of connection points: 2
#     Edge 247, Type (0, 0), BuildingBlock: KIFKEQ_clean_linker_1, # of connection points: 2
#     Edge 248, Type (0, 0), BuildingBlock: KIFKEQ_clean_linker_1, # of connection points: 2
#     Edge 249, Type (0, 0), BuildingBlock: KIFKEQ_clean_linker_1, # of connection points: 2
#     Edge 250, Type (0, 0), BuildingBlock: KIFKEQ_clean_linker_1, # of connection points: 2
#     Edge 251, Type (0, 0), BuildingBlock: KIFKEQ_clean_linker_1, # of connection points: 2
#     Edge 252, Type (0, 0), BuildingBlock: KIFKEQ_clean_linker_1, # of connection points: 2
#     Edge 253, Type (0, 0), BuildingBlock: KIFKEQ_clean_linker_1, # of connection points: 2
#     Edge 254, Type (0, 0), BuildingBlock: KIFKEQ_clean_linker_1, # of connection points: 2
#     Edge 255, Type (0, 0), BuildingBlock: KIFKEQ_clean_linker_1, # of connection points: 2
#     Edge 256, Type (0, 0), BuildingBlock: KIFKEQ_clean_linker_1, # of connection points: 2
#     Edge 257, Type (0, 0), BuildingBlock: KIFKEQ_clean_linker_1, # of connection points: 2
#     Edge 258, Type (0, 0), BuildingBlock: KIFKEQ_clean_linker_1, # of connection points: 2
#     Edge 259, Type (0, 0), BuildingBlock: KIFKEQ_clean_linker_1, # of connection points: 2
#     Edge 260, Type (0, 0), BuildingBlock: KIFKEQ_clean_linker_1, # of connection points: 2
#     Edge 261, Type (0, 0), BuildingBlock: KIFKEQ_clean_linker_1, # of connection points: 2
#     Edge 262, Type (0, 0), BuildingBlock: KIFKEQ_clean_linker_1, # of connection points: 2
#     Edge 263, Type (0, 0), BuildingBlock: KIFKEQ_clean_linker_1, # of connection points: 2
#     Edge 264, Type (0, 0), BuildingBlock: KIFKEQ_clean_linker_1, # of connection points: 2
#     Edge 265, Type (0, 0), BuildingBlock: KIFKEQ_clean_linker_1, # of connection points: 2
#     Edge 266, Type (0, 0), BuildingBlock: KIFKEQ_clean_linker_1, # of connection points: 2
#     Edge 267, Type (0, 0), BuildingBlock: KIFKEQ_clean_linker_1, # of connection points: 2
#     Edge 268, Type (0, 0), BuildingBlock: KIFKEQ_clean_linker_1, # of connection points: 2
#     Edge 269, Type (0, 0), BuildingBlock: KIFKEQ_clean_linker_1, # of connection points: 2
#     Edge 270, Type (0, 0), BuildingBlock: KIFKEQ_clean_linker_1, # of connection points: 2
#     Edge 271, Type (0, 0), BuildingBlock: KIFKEQ_clean_linker_1, # of connection points: 2
#     Edge 272, Type (0, 0), BuildingBlock: KIFKEQ_clean_linker_1, # of connection points: 2
#     Edge 273, Type (0, 0), BuildingBlock: KIFKEQ_clean_linker_1, # of connection points: 2
#     Edge 274, Type (0, 0), BuildingBlock: KIFKEQ_clean_linker_1, # of connection points: 2
#     Edge 275, Type (0, 0), BuildingBlock: KIFKEQ_clean_linker_1, # of connection points: 2
#     Edge 276, Type (0, 0), BuildingBlock: KIFKEQ_clean_linker_1, # of connection points: 2
#     Edge 277, Type (0, 0), BuildingBlock: KIFKEQ_clean_linker_1, # of connection points: 2
#     Edge 278, Type (0, 0), BuildingBlock: KIFKEQ_clean_linker_1, # of connection points: 2
#     Edge 279, Type (0, 0), BuildingBlock: KIFKEQ_clean_linker_1, # of connection points: 2
#     Edge 280, Type (0, 0), BuildingBlock: KIFKEQ_clean_linker_1, # of connection points: 2
#     Edge 281, Type (0, 0), BuildingBlock: KIFKEQ_clean_linker_1, # of connection points: 2
#     Edge 282, Type (0, 0), BuildingBlock: KIFKEQ_clean_linker_1, # of connection points: 2
#     Edge 283, Type (0, 0), BuildingBlock: KIFKEQ_clean_linker_1, # of connection points: 2
#     Edge 284, Type (0, 0), BuildingBlock: KIFKEQ_clean_linker_1, # of connection points: 2
#     Edge 285, Type (0, 0), BuildingBlock: KIFKEQ_clean_linker_1, # of connection points: 2
#     Edge 286, Type (0, 0), BuildingBlock: KIFKEQ_clean_linker_1, # of connection points: 2
#     Edge 287, Type (0, 0), BuildingBlock: KIFKEQ_clean_linker_1, # of connection points: 2
# Relax obj value: 0.339
# Max RMSD: 0.171
# Mean RMSD: 0.167
data_MOF--net-wse--node1-GALJAG_clean_sbu_0--edge1-KIFKEQ_clean_linker_1
_symmetry_space_group_name_H-M    P1
_symmetry_Int_Tables_number       1
_symmetry_cell_setting            triclinic
loop_
_symmetry_equiv_pos_as_xyz
'x, y, z'
_cell_length_a     102.32702
_cell_length_b     102.33349
_cell_length_c     102.35155
_cell_angle_alpha  90.006888
_cell_angle_beta   90.008543
_cell_angle_gamma 89.980557
loop_
_atom_site_label
_atom_site_type_symbol
_atom_site_fract_x
_atom_site_fract_y
_atom_site_fract_z
_atom_type_partial_charge
In0 In 0.07902 0.17954 0.42493 0.0
O1 O 0.06104 0.17642 0.41181 0.0
O2 O 0.05818 0.17832 0.4323 0.0
C3 C 0.09536 0.16161 0.41413 0.0
C4 C 0.08462 0.20385 0.4161 0.0
C5 C 0.08107 0.17717 0.45116 0.0
O6 O 0.08315 0.16009 0.41445 0.0
O7 O 0.09923 0.17228 0.41884 0.0
O8 O 0.08121 0.18807 0.44542 0.0
O9 O 0.07999 0.16743 0.44368 0.0
C10 C 0.05305 0.17664 0.42123 0.0
O11 O 0.09174 0.19788 0.42418 0.0
O12 O 0.07486 0.19745 0.41219 0.0
In13 In 0.82232 0.0814 0.42336 0.0
O14 O 0.82823 0.06257 0.41273 0.0
O15 O 0.81432 0.06126 0.42814 0.0
C16 C 0.8405 0.09708 0.41196 0.0
C17 C 0.79816 0.08813 0.41507 0.0
C18 C 0.82788 0.08356 0.4492 0.0
O19 O 0.84243 0.0851 0.41399 0.0
O20 O 0.8293 0.10097 0.41518 0.0
O21 O 0.81971 0.09076 0.44349 0.0
O22 O 0.83338 0.07534 0.44188 0.0
C23 C 0.821 0.05531 0.41964 0.0
O24 O 0.80293 0.09192 0.42577 0.0
O25 O 0.80565 0.08102 0.40831 0.0
In26 In 0.92335 0.82289 0.42163 0.0
O27 O 0.93981 0.83249 0.40987 0.0
O28 O 0.94397 0.8148 0.41993 0.0
C29 C 0.90902 0.84333 0.41276 0.0
C30 C 0.91451 0.799 0.41445 0.0
C31 C 0.92393 0.8246 0.44809 0.0
O32 O 0.91929 0.84466 0.41941 0.0
O33 O 0.90604 0.83163 0.41025 0.0
O34 O 0.91344 0.82406 0.44169 0.0
O35 O 0.93409 0.82443 0.44118 0.0
C36 C 0.94821 0.82394 0.41282 0.0
O37 O 0.91122 0.80452 0.42496 0.0
O38 O 0.92188 0.80575 0.40723 0.0
In39 In 0.17698 0.92238 0.42506 0.0
O40 O 0.19805 0.92046 0.43148 0.0
O41 O 0.19422 0.91775 0.41128 0.0
C42 C 0.17102 0.9177 0.4503 0.0
C43 C 0.17542 0.94845 0.42083 0.0
C44 C 0.15939 0.90623 0.41356 0.0
O45 O 0.18056 0.91236 0.4446 0.0
O46 O 0.16426 0.92515 0.44317 0.0
O47 O 0.15795 0.91844 0.41395 0.0
O48 O 0.16993 0.90221 0.41848 0.0
C49 C 0.20261 0.91792 0.42034 0.0
O50 O 0.17661 0.94043 0.41153 0.0
O51 O 0.17515 0.94331 0.43199 0.0
In52 In 0.07692 0.82469 0.57828 0.0
O53 O 0.08514 0.80492 0.57236 0.0
O54 O 0.07925 0.80717 0.59213 0.0
C55 C 0.07567 0.82738 0.55201 0.0
C56 C 0.052 0.82967 0.58554 0.0
C57 C 0.09441 0.84125 0.58942 0.0
O58 O 0.08396 0.83336 0.55888 0.0
O59 O 0.06807 0.82007 0.55838 0.0
O60 O 0.08224 0.84285 0.59032 0.0
O61 O 0.09773 0.83107 0.58337 0.0
C62 C 0.08382 0.79969 0.58343 0.0
O63 O 0.05855 0.83727 0.57838 0.0
O64 O 0.05816 0.81971 0.58942 0.0
In65 In 0.17839 0.07824 0.57663 0.0
O66 O 0.17476 0.05927 0.58813 0.0
O67 O 0.18166 0.05786 0.56858 0.0
C68 C 0.1599 0.09339 0.5882 0.0
C69 C 0.2025 0.08447 0.5856 0.0
C70 C 0.17429 0.08151 0.55072 0.0
O71 O 0.15848 0.08129 0.58649 0.0
O72 O 0.17082 0.09774 0.58456 0.0
O73 O 0.18516 0.08368 0.55609 0.0
O74 O 0.16541 0.0778 0.55842 0.0
C75 C 0.17811 0.05192 0.57878 0.0
O76 O 0.19677 0.09086 0.57677 0.0
O77 O 0.19589 0.07517 0.59028 0.0
In78 In 0.92347 0.17626 0.57673 0.0
O79 O 0.93089 0.19693 0.57392 0.0
O80 O 0.91491 0.19446 0.5869 0.0
C81 C 0.92058 0.17282 0.55069 0.0
C82 C 0.94808 0.16963 0.5837 0.0
C83 C 0.90457 0.16078 0.58706 0.0
O84 O 0.91649 0.18284 0.55656 0.0
O85 O 0.92596 0.16445 0.55796 0.0
O86 O 0.91634 0.16006 0.59063 0.0
O87 O 0.90233 0.16958 0.57877 0.0
C88 C 0.92269 0.20229 0.58137 0.0
O89 O 0.94048 0.17549 0.59149 0.0
O90 O 0.94311 0.16692 0.57276 0.0
In91 In 0.82256 0.92075 0.57806 0.0
O92 O 0.80373 0.90909 0.57693 0.0
O93 O 0.80557 0.92239 0.59271 0.0
C94 C 0.82551 0.9184 0.55193 0.0
C95 C 0.82413 0.947 0.58105 0.0
C96 C 0.84086 0.90443 0.58824 0.0
O97 O 0.81456 0.91802 0.55754 0.0
O98 O 0.83513 0.91986 0.55952 0.0
O99 O 0.84257 0.91659 0.58732 0.0
O100 O 0.82979 0.90059 0.58449 0.0
C101 C 0.79846 0.91422 0.5868 0.0
O102 O 0.8267 0.93924 0.59031 0.0
O103 O 0.82069 0.94149 0.5706 0.0
In104 In 0.42419 0.08101 0.17827 0.0
O105 O 0.44499 0.0861 0.1843 0.0
O106 O 0.44205 0.07932 0.16491 0.0
C107 C 0.41683 0.08769 0.20279 0.0
C108 C 0.41334 0.0968 0.15988 0.0
C109 C 0.42062 0.0548 0.17792 0.0
O110 O 0.4274 0.09135 0.19765 0.0
O111 O 0.40965 0.08089 0.19541 0.0
O112 O 0.41129 0.06268 0.1762 0.0
O113 O 0.4315 0.06014 0.18007 0.0
C114 C 0.45006 0.0832 0.17345 0.0
O115 O 0.41418 0.08461 0.15858 0.0
O116 O 0.41755 0.10102 0.17064 0.0
In117 In 0.92384 0.42328 0.17603 0.0
O118 O 0.91234 0.42799 0.19439 0.0
O119 O 0.92116 0.40922 0.19332 0.0
C120 C 0.92462 0.44971 0.17365 0.0
C121 C 0.9487 0.41428 0.17468 0.0
C122 C 0.90887 0.41343 0.15653 0.0
O123 O 0.9142 0.44324 0.17265 0.0
O124 O 0.93463 0.44288 0.17569 0.0
O125 O 0.91931 0.41965 0.15455 0.0
O126 O 0.9061 0.41176 0.16842 0.0
C127 C 0.91456 0.41725 0.19999 0.0
O128 O 0.94075 0.41319 0.16531 0.0
O129 O 0.94399 0.41953 0.18479 0.0
In130 In 0.57911 0.92006 0.17877 0.0
O131 O 0.55809 0.91799 0.18571 0.0
O132 O 0.56099 0.92439 0.16624 0.0
C133 C 0.58765 0.91249 0.20262 0.0
C134 C 0.58826 0.90137 0.16232 0.0
C135 C 0.58458 0.94585 0.17649 0.0
O136 O 0.57649 0.9098 0.19819 0.0
O137 O 0.59488 0.91875 0.19481 0.0
O138 O 0.58604 0.93791 0.16717 0.0
O139 O 0.58059 0.94075 0.18697 0.0
C140 C 0.55295 0.92149 0.1751 0.0
O141 O 0.59388 0.91226 0.16364 0.0
O142 O 0.57839 0.89988 0.16949 0.0
In143 In 0.07918 0.57543 0.17709 0.0
O144 O 0.09167 0.57549 0.19556 0.0
O145 O 0.07551 0.58844 0.19498 0.0
C146 C 0.08175 0.54939 0.17335 0.0
C147 C 0.05309 0.57878 0.17478 0.0
C148 C 0.09556 0.58657 0.15945 0.0
O149 O 0.08216 0.55462 0.18449 0.0
O150 O 0.08007 0.55729 0.16404 0.0
O151 O 0.08342 0.58571 0.1576 0.0
O152 O 0.09932 0.5823 0.17035 0.0
C153 C 0.08496 0.58394 0.20148 0.0
O154 O 0.06105 0.58804 0.17287 0.0
O155 O 0.05831 0.56807 0.17793 0.0
In156 In 0.41857 0.92012 0.82072 0.0
O157 O 0.40449 0.91188 0.83631 0.0
O158 O 0.42044 0.90018 0.83018 0.0
C159 C 0.41241 0.94553 0.82434 0.0
C160 C 0.44486 0.92264 0.82245 0.0
C161 C 0.40837 0.91267 0.79746 0.0
O162 O 0.4107 0.93705 0.83315 0.0
O163 O 0.41704 0.94114 0.81379 0.0
O164 O 0.41808 0.90714 0.80261 0.0
O165 O 0.40338 0.92164 0.80429 0.0
C166 C 0.41065 0.90125 0.83753 0.0
O167 O 0.43908 0.91999 0.81191 0.0
O168 O 0.4374 0.92409 0.83213 0.0
In169 In 0.08037 0.42622 0.82096 0.0
O170 O 0.08526 0.4321 0.80019 0.0
O171 O 0.08327 0.41181 0.80387 0.0
C172 C 0.08408 0.45144 0.82773 0.0
C173 C 0.05422 0.42229 0.82156 0.0
C174 C 0.09657 0.41476 0.83854 0.0
O175 O 0.0896 0.44622 0.81802 0.0
O176 O 0.07688 0.44384 0.83425 0.0
O177 O 0.08439 0.41546 0.84015 0.0
O178 O 0.10054 0.41939 0.82785 0.0
C179 C 0.08554 0.42069 0.79561 0.0
O180 O 0.06225 0.41305 0.82313 0.0
O181 O 0.0594 0.43326 0.81951 0.0
In182 In 0.57736 0.08143 0.82375 0.0
O183 O 0.59223 0.08934 0.83875 0.0
O184 O 0.57783 0.10228 0.83158 0.0
C185 C 0.58561 0.05669 0.82819 0.0
C186 C 0.55126 0.08078 0.82824 0.0
C187 C 0.58181 0.08555 0.79808 0.0
O188 O 0.58634 0.06205 0.81712 0.0
O189 O 0.58107 0.06392 0.83709 0.0
O190 O 0.57106 0.08161 0.80261 0.0
O191 O 0.59067 0.0873 0.80655 0.0
C192 C 0.58732 0.10062 0.83919 0.0
O193 O 0.5566 0.08918 0.82102 0.0
O194 O 0.55907 0.07276 0.83336 0.0
In195 In 0.92133 0.57515 0.8226 0.0
O196 O 0.93951 0.58661 0.82919 0.0
O197 O 0.94143 0.57311 0.81351 0.0
C198 C 0.90533 0.58499 0.84137 0.0
C199 C 0.91391 0.58273 0.79844 0.0
C200 C 0.92075 0.54912 0.8276 0.0
O201 O 0.91741 0.58338 0.84312 0.0
O202 O 0.90145 0.58216 0.83005 0.0
O203 O 0.91198 0.55489 0.8212 0.0
O204 O 0.92969 0.55649 0.83173 0.0
C205 C 0.94698 0.58123 0.82094 0.0
O206 O 0.91293 0.57116 0.80255 0.0
O207 O 0.91844 0.59076 0.80667 0.0
In208 In 0.1791 0.42122 0.07787 0.0
O209 O 0.17829 0.40842 0.05948 0.0
O210 O 0.16924 0.42715 0.05894 0.0
C211 C 0.16177 0.41012 0.09468 0.0
C212 C 0.20392 0.41334 0.0829 0.0
C213 C 0.17938 0.44766 0.07853 0.0
O214 O 0.16032 0.40974 0.08247 0.0
O215 O 0.17217 0.41555 0.09833 0.0
O216 O 0.18779 0.44102 0.07245 0.0
O217 O 0.17084 0.44098 0.08438 0.0
C218 C 0.1722 0.41687 0.0528 0.0
O219 O 0.19757 0.42065 0.09048 0.0
O220 O 0.19763 0.40962 0.07299 0.0
In221 In 0.1756 0.57693 0.92259 0.0
O222 O 0.19586 0.57077 0.91585 0.0
O223 O 0.193 0.59089 0.92002 0.0
C224 C 0.17266 0.55065 0.92258 0.0
C225 C 0.17072 0.5838 0.94762 0.0
C226 C 0.15858 0.58838 0.90574 0.0
O227 O 0.16854 0.55775 0.91339 0.0
O228 O 0.17826 0.55678 0.93167 0.0
O229 O 0.15686 0.58832 0.91792 0.0
O230 O 0.16911 0.58314 0.9021 0.0
C231 C 0.20083 0.58202 0.9165 0.0
O232 O 0.16327 0.57648 0.94109 0.0
O233 O 0.18049 0.58806 0.94139 0.0
In234 In 0.42302 0.17703 0.91967 0.0
O235 O 0.41176 0.15788 0.91629 0.0
O236 O 0.41629 0.16937 0.89976 0.0
C237 C 0.42079 0.1726 0.9456 0.0
C238 C 0.4492 0.1757 0.91613 0.0
C239 C 0.41402 0.20159 0.91521 0.0
O240 O 0.41091 0.17471 0.93847 0.0
O241 O 0.43157 0.17261 0.93961 0.0
O242 O 0.42025 0.19516 0.90676 0.0
O243 O 0.41195 0.1955 0.9257 0.0
C244 C 0.41139 0.15894 0.90404 0.0
O245 O 0.44323 0.18636 0.91776 0.0
O246 O 0.44196 0.16573 0.91619 0.0
In247 In 0.82505 0.41908 0.92053 0.0
O248 O 0.80596 0.42319 0.91 0.0
O249 O 0.80711 0.40558 0.92091 0.0
C250 C 0.83107 0.44476 0.91815 0.0
C251 C 0.82369 0.41508 0.94652 0.0
C252 C 0.84355 0.40713 0.90571 0.0
O253 O 0.82398 0.43883 0.91003 0.0
O254 O 0.83536 0.43771 0.92727 0.0
O255 O 0.84568 0.41101 0.91718 0.0
O256 O 0.83196 0.40874 0.90192 0.0
C257 C 0.80023 0.41301 0.91386 0.0
O258 O 0.82926 0.407 0.939 0.0
O259 O 0.81862 0.42479 0.94085 0.0
In260 In 0.57511 0.82693 0.92188 0.0
O261 O 0.55638 0.82552 0.90973 0.0
O262 O 0.5558 0.83647 0.92736 0.0
C263 C 0.5795 0.80116 0.91765 0.0
C264 C 0.58583 0.8456 0.90637 0.0
C265 C 0.58091 0.82871 0.94761 0.0
O266 O 0.56843 0.80584 0.92027 0.0
O267 O 0.5886 0.80949 0.91722 0.0
O268 O 0.58974 0.82743 0.93906 0.0
O269 O 0.56945 0.82894 0.94313 0.0
C270 C 0.54963 0.83227 0.91755 0.0
O271 O 0.58405 0.84715 0.91844 0.0
O272 O 0.58275 0.83444 0.90221 0.0
In273 In 0.82232 0.58048 0.08098 0.0
O274 O 0.80299 0.57678 0.09115 0.0
O275 O 0.80542 0.59523 0.08194 0.0
C276 C 0.82357 0.5541 0.08099 0.0
C277 C 0.82732 0.58501 0.05536 0.0
C278 C 0.839 0.59159 0.09837 0.0
O279 O 0.8139 0.56032 0.07656 0.0
O280 O 0.83266 0.56117 0.08537 0.0
O281 O 0.83951 0.59397 0.0863 0.0
O282 O 0.82979 0.58413 0.10165 0.0
C283 C 0.79798 0.58766 0.08826 0.0
O284 O 0.8347 0.57831 0.06257 0.0
O285 O 0.81752 0.58978 0.06112 0.0
In286 In 0.42656 0.8265 0.07818 0.0
O287 O 0.42124 0.84773 0.08269 0.0
O288 O 0.41553 0.83345 0.09647 0.0
C289 C 0.42185 0.82531 0.05217 0.0
C290 C 0.45237 0.83156 0.08077 0.0
C291 C 0.42005 0.80193 0.08526 0.0
O292 O 0.41397 0.83078 0.05995 0.0
O293 O 0.43172 0.82032 0.05757 0.0
O294 O 0.43125 0.80675 0.08706 0.0
O295 O 0.4119 0.80962 0.08003 0.0
C296 C 0.41593 0.84539 0.09353 0.0
O297 O 0.44639 0.82366 0.0881 0.0
O298 O 0.44528 0.83709 0.07235 0.0
In299 In 0.57734 0.17886 0.07943 0.0
O300 O 0.58743 0.15912 0.08302 0.0
O301 O 0.5838 0.17117 0.09939 0.0
C302 C 0.58065 0.17438 0.05361 0.0
C303 C 0.55103 0.1783 0.08188 0.0
C304 C 0.58635 0.20312 0.08513 0.0
O305 O 0.59024 0.17619 0.06119 0.0
O306 O 0.56962 0.17471 0.05909 0.0
O307 O 0.5788 0.19688 0.09258 0.0
O308 O 0.58974 0.19697 0.07502 0.0
C309 C 0.58807 0.16041 0.09524 0.0
O310 O 0.55724 0.18847 0.07875 0.0
O311 O 0.55808 0.16838 0.08384 0.0
In312 In 0.92999 0.82289 0.57293 0.0
O313 O 0.91663 0.80496 0.57228 0.0
O314 O 0.93465 0.80319 0.58237 0.0
C315 C 0.91418 0.84095 0.58421 0.0
C316 C 0.95472 0.82931 0.5797 0.0
C317 C 0.92787 0.82286 0.54657 0.0
O318 O 0.91307 0.82888 0.58644 0.0
O319 O 0.9235 0.84387 0.57672 0.0
O320 O 0.93642 0.81633 0.55259 0.0
O321 O 0.92031 0.82933 0.55383 0.0
C322 C 0.9243 0.79767 0.57861 0.0
O323 O 0.95014 0.831 0.5684 0.0
O324 O 0.94671 0.82462 0.58783 0.0
In325 In 0.17702 0.92731 0.57329 0.0
O326 O 0.18511 0.9476 0.5697 0.0
O327 O 0.17004 0.94594 0.58387 0.0
C328 C 0.17118 0.92319 0.54784 0.0
C329 C 0.20196 0.92035 0.5784 0.0
C330 C 0.15895 0.91286 0.58618 0.0
O331 O 0.16958 0.93408 0.55336 0.0
O332 O 0.17561 0.91434 0.55517 0.0
O333 O 0.17107 0.91133 0.58781 0.0
O334 O 0.15598 0.92205 0.57854 0.0
C335 C 0.17785 0.95335 0.57782 0.0
O336 O 0.19499 0.92639 0.58661 0.0
O337 O 0.19621 0.91752 0.56788 0.0
In338 In 0.06895 0.17308 0.57519 0.0
O339 O 0.08026 0.19087 0.58279 0.0
O340 O 0.06205 0.19406 0.57325 0.0
C341 C 0.08529 0.15489 0.58543 0.0
C342 C 0.04512 0.1671 0.58509 0.0
C343 C 0.07281 0.17301 0.54901 0.0
O344 O 0.08448 0.1663 0.59005 0.0
O345 O 0.0777 0.1527 0.576 0.0
O346 O 0.06199 0.17022 0.55418 0.0
O347 O 0.08172 0.17586 0.55702 0.0
C348 C 0.07185 0.19903 0.57885 0.0
O349 O 0.05007 0.16131 0.57543 0.0
O350 O 0.05238 0.17566 0.59017 0.0
In351 In 0.82603 0.07019 0.57206 0.0
O352 O 0.80705 0.07498 0.58304 0.0
O353 O 0.80582 0.06475 0.56498 0.0
C354 C 0.84123 0.08776 0.58488 0.0
C355 C 0.83069 0.04489 0.57824 0.0
C356 C 0.83008 0.07742 0.54695 0.0
O357 O 0.82938 0.08983 0.58226 0.0
O358 O 0.84528 0.07663 0.58153 0.0
O359 O 0.83756 0.06964 0.55289 0.0
O360 O 0.82078 0.08175 0.55374 0.0
C361 C 0.79979 0.0698 0.57447 0.0
O362 O 0.83348 0.04987 0.56733 0.0
O363 O 0.82585 0.0528 0.58638 0.0
In364 In 0.93002 0.1771 0.42705 0.0
O365 O 0.94939 0.16628 0.42816 0.0
O366 O 0.94816 0.18185 0.41459 0.0
C367 C 0.92644 0.17299 0.45286 0.0
C368 C 0.92582 0.20318 0.42561 0.0
C369 C 0.91377 0.16016 0.41461 0.0
O370 O 0.93758 0.17433 0.44775 0.0
O371 O 0.917 0.17375 0.44494 0.0
O372 O 0.91169 0.17229 0.4149 0.0
O373 O 0.9242 0.15671 0.42012 0.0
C374 C 0.95518 0.17313 0.41976 0.0
O375 O 0.92693 0.19619 0.41548 0.0
O376 O 0.92681 0.19701 0.43621 0.0
In377 In 0.82595 0.93075 0.42818 0.0
O378 O 0.80693 0.93402 0.41687 0.0
O379 O 0.80842 0.91695 0.42854 0.0
C380 C 0.84572 0.9169 0.41704 0.0
C381 C 0.82578 0.95695 0.42464 0.0
C382 C 0.82812 0.92605 0.45408 0.0
O383 O 0.83414 0.91631 0.41292 0.0
O384 O 0.84737 0.92489 0.42623 0.0
O385 O 0.83446 0.93496 0.4484 0.0
O386 O 0.82071 0.91954 0.44671 0.0
C387 C 0.80141 0.92384 0.42111 0.0
O388 O 0.82167 0.95143 0.43486 0.0
O389 O 0.83009 0.94923 0.41599 0.0
In390 In 0.06787 0.82794 0.42767 0.0
O391 O 0.07962 0.80987 0.42149 0.0
O392 O 0.06259 0.80712 0.43306 0.0
C393 C 0.08442 0.84536 0.41663 0.0
C394 C 0.04454 0.83149 0.41563 0.0
C395 C 0.07012 0.83098 0.45383 0.0
O396 O 0.08466 0.83336 0.41384 0.0
O397 O 0.07563 0.84856 0.42463 0.0
O398 O 0.05933 0.83151 0.44792 0.0
O399 O 0.07986 0.82909 0.44653 0.0
C400 C 0.07217 0.80193 0.42729 0.0
O401 O 0.04841 0.83847 0.425 0.0
O402 O 0.0527 0.82305 0.41188 0.0
In403 In 0.17473 0.07122 0.42718 0.0
O404 O 0.16387 0.05181 0.42748 0.0
O405 O 0.17992 0.05336 0.41453 0.0
C406 C 0.17107 0.07526 0.45302 0.0
C407 C 0.20072 0.07528 0.42515 0.0
C408 C 0.15778 0.08769 0.41511 0.0
O409 O 0.17126 0.06403 0.44796 0.0
O410 O 0.17271 0.08453 0.44505 0.0
O411 O 0.16992 0.08965 0.41533 0.0
O412 O 0.15427 0.07722 0.42051 0.0
C413 C 0.17105 0.04621 0.41921 0.0
O414 O 0.19322 0.07583 0.41534 0.0
O415 O 0.19512 0.07257 0.43578 0.0
In416 In 0.56894 0.93624 0.82655 0.0
O417 O 0.58405 0.92101 0.83336 0.0
O418 O 0.56979 0.92739 0.84693 0.0
C419 C 0.5722 0.93371 0.80047 0.0
C420 C 0.54275 0.93257 0.82686 0.0
C421 C 0.57874 0.96004 0.83249 0.0
O422 O 0.57448 0.92446 0.80831 0.0
O423 O 0.56855 0.94419 0.80581 0.0
O424 O 0.56771 0.95611 0.83628 0.0
O425 O 0.58518 0.95176 0.82598 0.0
C426 C 0.57939 0.92003 0.84472 0.0
O427 O 0.54806 0.94314 0.83026 0.0
O428 O 0.55064 0.92377 0.82337 0.0
In429 In 0.07135 0.57379 0.82399 0.0
O430 O 0.07307 0.58704 0.80595 0.0
O431 O 0.07926 0.56732 0.80428 0.0
C432 C 0.08606 0.58644 0.84201 0.0
C433 C 0.04522 0.57802 0.82346 0.0
C434 C 0.07651 0.54872 0.83041 0.0
O435 O 0.08797 0.58753 0.8299 0.0
O436 O 0.07635 0.57948 0.84501 0.0
O437 O 0.06566 0.55409 0.83275 0.0
O438 O 0.08482 0.55605 0.82503 0.0
C439 C 0.07771 0.57818 0.79871 0.0
O440 O 0.05065 0.56806 0.81867 0.0
O441 O 0.05301 0.58609 0.82863 0.0
In442 In 0.42756 0.06596 0.82761 0.0
O443 O 0.41366 0.08287 0.83254 0.0
O444 O 0.42381 0.07376 0.84814 0.0
C445 C 0.42677 0.0686 0.80133 0.0
C446 C 0.45352 0.06999 0.83061 0.0
C447 C 0.41668 0.04229 0.83234 0.0
O448 O 0.42062 0.0762 0.80886 0.0
O449 O 0.43311 0.05972 0.80705 0.0
O450 O 0.42659 0.04646 0.83832 0.0
O451 O 0.41181 0.05031 0.82434 0.0
C452 C 0.41603 0.08265 0.84464 0.0
O453 O 0.44837 0.05883 0.83119 0.0
O454 O 0.44558 0.0792 0.82861 0.0
In455 In 0.93069 0.42501 0.82421 0.0
O456 O 0.92086 0.43109 0.80517 0.0
O457 O 0.9306 0.41278 0.80545 0.0
C458 C 0.91577 0.4123 0.84212 0.0
C459 C 0.95632 0.41942 0.82782 0.0
C460 C 0.9279 0.45115 0.82632 0.0
O461 O 0.91362 0.41161 0.83002 0.0
O462 O 0.92564 0.41899 0.84511 0.0
O463 O 0.93789 0.44585 0.8214 0.0
O464 O 0.91917 0.44325 0.83005 0.0
C465 C 0.92419 0.42104 0.79889 0.0
O466 O 0.95046 0.42843 0.83381 0.0
O467 O 0.94915 0.41284 0.82025 0.0
In468 In 0.57317 0.06852 0.17301 0.0
O469 O 0.55226 0.06198 0.16896 0.0
O470 O 0.55566 0.0823 0.17153 0.0
C471 C 0.58146 0.04349 0.16992 0.0
C472 C 0.58522 0.08491 0.15596 0.0
C473 C 0.57502 0.07248 0.19905 0.0
O474 O 0.57254 0.0485 0.16308 0.0
O475 O 0.58658 0.05124 0.17801 0.0
O476 O 0.58469 0.07384 0.19149 0.0
O477 O 0.56458 0.06903 0.19348 0.0
C478 C 0.54747 0.07334 0.16933 0.0
O479 O 0.58542 0.08663 0.16813 0.0
O480 O 0.57942 0.07466 0.15241 0.0
In481 In 0.92991 0.57455 0.17609 0.0
O482 O 0.94947 0.56985 0.1667 0.0
O483 O 0.94791 0.58802 0.17655 0.0
C484 C 0.92777 0.54821 0.17546 0.0
C485 C 0.92405 0.5795 0.20134 0.0
C486 C 0.91367 0.58731 0.15937 0.0
O487 O 0.93553 0.55414 0.18295 0.0
O488 O 0.92095 0.55556 0.16829 0.0
O489 O 0.91244 0.58787 0.17159 0.0
O490 O 0.92335 0.58073 0.15558 0.0
C491 C 0.95512 0.58016 0.17033 0.0
O492 O 0.91715 0.57218 0.1942 0.0
O493 O 0.93375 0.58457 0.19566 0.0
In494 In 0.42958 0.93248 0.17659 0.0
O495 O 0.4213 0.91219 0.17219 0.0
O496 O 0.41884 0.92675 0.15774 0.0
C497 C 0.4286 0.93062 0.20293 0.0
C498 C 0.45521 0.92873 0.17131 0.0
C499 C 0.42111 0.9571 0.17227 0.0
O500 O 0.41887 0.92788 0.19583 0.0
O501 O 0.43857 0.93433 0.19674 0.0
O502 O 0.43008 0.95178 0.16571 0.0
O503 O 0.4159 0.94978 0.18074 0.0
C504 C 0.41721 0.91498 0.16093 0.0
O505 O 0.44978 0.93975 0.17054 0.0
O506 O 0.44768 0.91954 0.17457 0.0
In507 In 0.07016 0.42626 0.17249 0.0
O508 O 0.07639 0.41715 0.19206 0.0
O509 O 0.06643 0.4354 0.1923 0.0
C510 C 0.08711 0.41397 0.15619 0.0
C511 C 0.04573 0.41665 0.1689 0.0
C512 C 0.07542 0.45177 0.16815 0.0
O513 O 0.08858 0.41408 0.16842 0.0
O514 O 0.0769 0.4196 0.15228 0.0
O515 O 0.06446 0.4467 0.16569 0.0
O516 O 0.08383 0.44392 0.17259 0.0
C517 C 0.07187 0.42646 0.19882 0.0
O518 O 0.05015 0.42632 0.16269 0.0
O519 O 0.05379 0.41145 0.17663 0.0
In520 In 0.82676 0.56746 0.9328 0.0
O521 O 0.80805 0.57839 0.92691 0.0
O522 O 0.80624 0.56047 0.93727 0.0
C523 C 0.84333 0.57955 0.916 0.0
C524 C 0.83055 0.57451 0.95804 0.0
C525 C 0.83112 0.5424 0.92562 0.0
O526 O 0.83116 0.57911 0.91414 0.0
O527 O 0.84704 0.57437 0.92653 0.0
O528 O 0.83778 0.54811 0.93427 0.0
O529 O 0.82239 0.54937 0.92043 0.0
C530 C 0.80051 0.56994 0.93184 0.0
O531 O 0.83191 0.56301 0.95391 0.0
O532 O 0.82748 0.58273 0.94936 0.0
In533 In 0.82567 0.43032 0.06872 0.0
O534 O 0.80731 0.42413 0.0801 0.0
O535 O 0.80511 0.43051 0.06046 0.0
C536 C 0.84432 0.41971 0.08434 0.0
C537 C 0.83029 0.42281 0.04383 0.0
C538 C 0.82667 0.45617 0.07419 0.0
O539 O 0.83291 0.41507 0.08378 0.0
O540 O 0.84626 0.42924 0.07683 0.0
O541 O 0.83355 0.45088 0.06546 0.0
O542 O 0.81935 0.44841 0.08034 0.0
C543 C 0.79961 0.42654 0.07074 0.0
O544 O 0.8312 0.43442 0.0478 0.0
O545 O 0.82734 0.4146 0.05259 0.0
In546 In 0.57584 0.82552 0.06907 0.0
O547 O 0.55523 0.82988 0.06177 0.0
O548 O 0.55797 0.82849 0.08225 0.0
C549 C 0.5853 0.83087 0.04493 0.0
C550 C 0.58819 0.84035 0.08723 0.0
C551 C 0.57656 0.79921 0.07087 0.0
O552 O 0.57698 0.83792 0.05065 0.0
O553 O 0.58939 0.82136 0.05163 0.0
O554 O 0.586 0.80629 0.07454 0.0
O555 O 0.56698 0.8054 0.06622 0.0
C556 C 0.55011 0.83037 0.07295 0.0
O557 O 0.58618 0.8283 0.08869 0.0
O558 O 0.58447 0.84484 0.07638 0.0
In559 In 0.17693 0.57237 0.07036 0.0
O560 O 0.17117 0.56665 0.04968 0.0
O561 O 0.17468 0.58677 0.05324 0.0
C562 C 0.17724 0.54607 0.07312 0.0
C563 C 0.20178 0.57889 0.07628 0.0
C564 C 0.15922 0.58361 0.08658 0.0
O565 O 0.1865 0.55239 0.06804 0.0
O566 O 0.16772 0.55298 0.07679 0.0
O567 O 0.17137 0.58476 0.08822 0.0
O568 O 0.15605 0.57717 0.0766 0.0
C569 C 0.17167 0.57804 0.04506 0.0
O570 O 0.19484 0.5718 0.0836 0.0
O571 O 0.19599 0.58314 0.06624 0.0
In572 In 0.42696 0.17671 0.07009 0.0
O573 O 0.4458 0.18545 0.0783 0.0
O574 O 0.44699 0.1667 0.06964 0.0
C575 C 0.42371 0.17469 0.04393 0.0
C576 C 0.41562 0.15804 0.08515 0.0
C577 C 0.41844 0.20092 0.07609 0.0
O578 O 0.4337 0.17959 0.04921 0.0
O579 O 0.41511 0.17076 0.05188 0.0
O580 O 0.42478 0.19392 0.08403 0.0
O581 O 0.41602 0.19554 0.06525 0.0
C582 C 0.45293 0.1759 0.07524 0.0
O583 O 0.41198 0.16979 0.08533 0.0
O584 O 0.42454 0.15564 0.07703 0.0
In585 In 0.17593 0.42683 0.92912 0.0
O586 O 0.18012 0.43165 0.95029 0.0
O587 O 0.16993 0.41395 0.94662 0.0
C588 C 0.17093 0.45252 0.92563 0.0
C589 C 0.20127 0.42163 0.92373 0.0
C590 C 0.15823 0.41544 0.91301 0.0
O591 O 0.16725 0.4463 0.9356 0.0
O592 O 0.17693 0.44573 0.91726 0.0
O593 O 0.17036 0.4138 0.91177 0.0
O594 O 0.15502 0.42239 0.92265 0.0
C595 C 0.17467 0.42167 0.95501 0.0
O596 O 0.19588 0.43239 0.92116 0.0
O597 O 0.19384 0.41328 0.92895 0.0
In598 In 0.57221 0.17746 0.93105 0.0
O599 O 0.55173 0.16948 0.93488 0.0
O600 O 0.55479 0.17992 0.91724 0.0
C601 C 0.57973 0.17185 0.95579 0.0
C602 C 0.58502 0.16236 0.91333 0.0
C603 C 0.57364 0.20377 0.93153 0.0
O604 O 0.57 0.16665 0.95033 0.0
O605 O 0.58605 0.17964 0.94862 0.0
O606 O 0.58296 0.19677 0.92742 0.0
O607 O 0.56384 0.19747 0.93556 0.0
C608 C 0.54684 0.17388 0.92447 0.0
O609 O 0.58334 0.17446 0.91184 0.0
O610 O 0.58069 0.15796 0.92397 0.0
In611 In 0.42756 0.82378 0.92843 0.0
O612 O 0.44569 0.83685 0.92811 0.0
O613 O 0.44611 0.81946 0.91685 0.0
C614 C 0.42255 0.8283 0.95402 0.0
C615 C 0.41388 0.83819 0.91085 0.0
C616 C 0.42594 0.79745 0.92878 0.0
O617 O 0.43341 0.8305 0.94868 0.0
O618 O 0.41385 0.82409 0.94634 0.0
O619 O 0.41664 0.80448 0.92465 0.0
O620 O 0.43575 0.80372 0.93279 0.0
C621 C 0.45215 0.82951 0.92062 0.0
O622 O 0.41744 0.8266 0.9087 0.0
O623 O 0.41667 0.84233 0.9221 0.0
In624 In 0.58094 0.67873 0.92326 0.0
O625 O 0.592 0.69805 0.92451 0.0
O626 O 0.57724 0.6965 0.91008 0.0
C627 C 0.58277 0.67692 0.94951 0.0
C628 C 0.55518 0.67388 0.91954 0.0
C629 C 0.59835 0.6616 0.91277 0.0
O630 O 0.58026 0.68749 0.94369 0.0
O631 O 0.58433 0.66718 0.94209 0.0
O632 O 0.58619 0.65977 0.91239 0.0
O633 O 0.60166 0.67229 0.91785 0.0
C634 C 0.58567 0.70364 0.91557 0.0
O635 O 0.56276 0.67639 0.91012 0.0
O636 O 0.56062 0.67373 0.93058 0.0
In637 In 0.32322 0.57888 0.92706 0.0
O638 O 0.30284 0.58618 0.93196 0.0
O639 O 0.30625 0.58036 0.91236 0.0
C640 C 0.32989 0.58219 0.95241 0.0
C641 C 0.32228 0.55274 0.92337 0.0
C642 C 0.34143 0.59435 0.91552 0.0
O643 O 0.32229 0.58985 0.94647 0.0
O644 O 0.33432 0.57299 0.94552 0.0
O645 O 0.34324 0.58234 0.91754 0.0
O646 O 0.33028 0.5984 0.91878 0.0
C647 C 0.29819 0.58463 0.92068 0.0
O648 O 0.32699 0.56036 0.91485 0.0
O649 O 0.31803 0.55836 0.93348 0.0
In650 In 0.42281 0.32251 0.92293 0.0
O651 O 0.41011 0.30439 0.92574 0.0
O652 O 0.42131 0.30555 0.90835 0.0
C653 C 0.42338 0.32294 0.94938 0.0
C654 C 0.44779 0.32477 0.91463 0.0
C655 C 0.40838 0.34323 0.91495 0.0
O656 O 0.41288 0.32319 0.94295 0.0
O657 O 0.43356 0.32236 0.9425 0.0
O658 O 0.41675 0.34379 0.92395 0.0
O659 O 0.40741 0.33217 0.90956 0.0
C660 C 0.41362 0.29888 0.91531 0.0
O661 O 0.43946 0.3337 0.91292 0.0
O662 O 0.44344 0.3147 0.92024 0.0
In663 In 0.67828 0.42146 0.92362 0.0
O664 O 0.67593 0.43951 0.91047 0.0
O665 O 0.67328 0.44175 0.93097 0.0
C666 C 0.66064 0.40527 0.91214 0.0
C667 C 0.7029 0.41647 0.91521 0.0
C668 C 0.67679 0.41886 0.94989 0.0
O669 O 0.65949 0.41752 0.91191 0.0
O670 O 0.67086 0.40128 0.91768 0.0
O671 O 0.68745 0.42058 0.94396 0.0
O672 O 0.66688 0.41842 0.94257 0.0
C673 C 0.67343 0.44713 0.91988 0.0
O674 O 0.69601 0.40805 0.92097 0.0
O675 O 0.69726 0.42725 0.91336 0.0
In676 In 0.58054 0.32445 0.07662 0.0
O677 O 0.5932 0.30612 0.07605 0.0
O678 O 0.57822 0.30689 0.09036 0.0
C679 C 0.58324 0.32891 0.05072 0.0
C680 C 0.55424 0.32427 0.07916 0.0
C681 C 0.59593 0.3429 0.08792 0.0
O682 O 0.58538 0.31793 0.05589 0.0
O683 O 0.57985 0.33773 0.05864 0.0
O684 O 0.58376 0.34429 0.08661 0.0
O685 O 0.6002 0.33203 0.08406 0.0
C686 C 0.58728 0.30033 0.08516 0.0
O687 O 0.56166 0.32771 0.08843 0.0
O688 O 0.56011 0.32094 0.06886 0.0
In689 In 0.67624 0.58038 0.08103 0.0
O690 O 0.69596 0.58858 0.07505 0.0
O691 O 0.69331 0.58413 0.09514 0.0
C692 C 0.67346 0.57881 0.05475 0.0
C693 C 0.67191 0.55545 0.08866 0.0
C694 C 0.659 0.59733 0.09193 0.0
O695 O 0.66767 0.58734 0.06151 0.0
O696 O 0.68058 0.57114 0.06123 0.0
O697 O 0.65805 0.58512 0.0932 0.0
O698 O 0.66891 0.601 0.08563 0.0
C699 C 0.70092 0.58823 0.08632 0.0
O700 O 0.66371 0.56203 0.08222 0.0
O701 O 0.68222 0.56156 0.09161 0.0
In702 In 0.41939 0.68005 0.07792 0.0
O703 O 0.43787 0.67555 0.08992 0.0
O704 O 0.4401 0.68398 0.07109 0.0
C705 C 0.40255 0.66283 0.08903 0.0
C706 C 0.41367 0.7049 0.08502 0.0
C707 C 0.41729 0.6738 0.05234 0.0
O708 O 0.41476 0.66125 0.08922 0.0
O709 O 0.3989 0.67329 0.0837 0.0
O710 O 0.4131 0.68437 0.05705 0.0
O711 O 0.42243 0.66619 0.06057 0.0
C712 C 0.44561 0.67955 0.08117 0.0
O713 O 0.41029 0.69992 0.07429 0.0
O714 O 0.41971 0.6972 0.09254 0.0
In715 In 0.32652 0.42218 0.0794 0.0
O716 O 0.30769 0.41125 0.07477 0.0
O717 O 0.30818 0.42242 0.09226 0.0
C718 C 0.32835 0.42262 0.05302 0.0
C719 C 0.3311 0.44736 0.0859 0.0
C720 C 0.34397 0.40589 0.09109 0.0
O721 O 0.33468 0.41464 0.05996 0.0
O722 O 0.32106 0.43026 0.05936 0.0
O723 O 0.34591 0.41796 0.08983 0.0
O724 O 0.33299 0.40212 0.08704 0.0
C725 C 0.3016 0.41517 0.08474 0.0
O726 O 0.33778 0.44123 0.07755 0.0
O727 O 0.32226 0.44067 0.09133 0.0
In728 In 0.92249 0.57915 0.67734 0.0
O729 O 0.91441 0.58247 0.65671 0.0
O730 O 0.91309 0.59812 0.67017 0.0
C731 C 0.91636 0.55353 0.67907 0.0
C732 C 0.94828 0.58034 0.67125 0.0
C733 C 0.91634 0.58688 0.70181 0.0
O734 O 0.91124 0.56089 0.67056 0.0
O735 O 0.92416 0.55919 0.68675 0.0
O736 O 0.92771 0.58767 0.69713 0.0
O737 O 0.90785 0.58241 0.69402 0.0
C738 C 0.91112 0.59417 0.65868 0.0
O739 O 0.942 0.59004 0.67548 0.0
O740 O 0.94154 0.57016 0.66989 0.0
In741 In 0.4231 0.92152 0.6782 0.0
O742 O 0.40917 0.92379 0.69549 0.0
O743 O 0.42128 0.90692 0.69497 0.0
C744 C 0.42374 0.94799 0.67925 0.0
C745 C 0.44824 0.91377 0.6751 0.0
C746 C 0.40888 0.91242 0.65784 0.0
O747 O 0.41377 0.94174 0.67565 0.0
O748 O 0.43329 0.94093 0.68244 0.0
O749 O 0.41685 0.92175 0.65693 0.0
O750 O 0.40824 0.90731 0.66905 0.0
C751 C 0.41282 0.91345 0.70113 0.0
O752 O 0.44053 0.91522 0.66559 0.0
O753 O 0.44317 0.91588 0.68612 0.0
In754 In 0.07477 0.42112 0.674 0.0
O755 O 0.08469 0.41716 0.65426 0.0
O756 O 0.08235 0.40123 0.66719 0.0
C757 C 0.07694 0.44751 0.67372 0.0
C758 C 0.04898 0.41766 0.66957 0.0
C759 C 0.0829 0.41523 0.69847 0.0
O760 O 0.08653 0.44015 0.67121 0.0
O761 O 0.0665 0.44156 0.67635 0.0
O762 O 0.07269 0.41056 0.69344 0.0
O763 O 0.08936 0.42263 0.691 0.0
C764 C 0.08618 0.40509 0.65617 0.0
O765 O 0.05429 0.41549 0.68046 0.0
O766 O 0.05671 0.42147 0.66074 0.0
In767 In 0.58075 0.07866 0.67589 0.0
O768 O 0.59238 0.07757 0.69492 0.0
O769 O 0.57738 0.09179 0.69372 0.0
C770 C 0.58202 0.05235 0.67393 0.0
C771 C 0.55501 0.08311 0.67168 0.0
C772 C 0.59785 0.0891 0.65846 0.0
O773 O 0.58034 0.0582 0.68465 0.0
O774 O 0.58305 0.05977 0.66413 0.0
O775 O 0.58566 0.08946 0.65684 0.0
O776 O 0.60137 0.08392 0.66904 0.0
C777 C 0.5861 0.08648 0.70063 0.0
O778 O 0.56297 0.09232 0.67376 0.0
O779 O 0.56006 0.07188 0.6717 0.0
In780 In 0.92033 0.42184 0.3225 0.0
O781 O 0.94069 0.42036 0.31333 0.0
O782 O 0.93917 0.41784 0.3338 0.0
C783 C 0.91279 0.41895 0.29726 0.0
C784 C 0.90786 0.40489 0.33859 0.0
C785 C 0.91637 0.44691 0.32974 0.0
O786 O 0.91375 0.40939 0.30498 0.0
O787 O 0.91531 0.42987 0.30236 0.0
O788 O 0.90779 0.4404 0.32368 0.0
O789 O 0.92665 0.44065 0.33244 0.0
C790 C 0.94652 0.41821 0.32395 0.0
O791 O 0.90607 0.41706 0.33921 0.0
O792 O 0.91539 0.40133 0.32954 0.0
In793 In 0.57934 0.92193 0.3228 0.0
O794 O 0.59004 0.92683 0.30396 0.0
O795 O 0.58377 0.90721 0.30644 0.0
C796 C 0.57791 0.94831 0.3236 0.0
C797 C 0.55458 0.91274 0.32491 0.0
C798 C 0.59451 0.91392 0.34298 0.0
O799 O 0.58861 0.94222 0.32408 0.0
O800 O 0.56796 0.94112 0.32271 0.0
O801 O 0.58596 0.92272 0.34396 0.0
O802 O 0.59534 0.90884 0.33177 0.0
C803 C 0.58922 0.91554 0.29912 0.0
O804 O 0.5625 0.91268 0.33436 0.0
O805 O 0.55927 0.91704 0.31438 0.0
In806 In 0.07791 0.58101 0.32337 0.0
O807 O 0.05823 0.5772 0.31365 0.0
O808 O 0.05811 0.58752 0.33161 0.0
C809 C 0.08584 0.58653 0.29883 0.0
C810 C 0.08929 0.59721 0.34112 0.0
C811 C 0.08226 0.55558 0.32903 0.0
O812 O 0.07757 0.59341 0.30488 0.0
O813 O 0.09048 0.57713 0.30534 0.0
O814 O 0.09044 0.56237 0.32277 0.0
O815 O 0.07218 0.56168 0.33262 0.0
C816 C 0.05153 0.58272 0.32237 0.0
O817 O 0.08611 0.58563 0.3437 0.0
O818 O 0.08724 0.60049 0.32944 0.0
In819 In 0.41995 0.07595 0.32451 0.0
O820 O 0.43845 0.08835 0.32782 0.0
O821 O 0.44066 0.06898 0.32075 0.0
C822 C 0.40369 0.08682 0.34246 0.0
C823 C 0.4137 0.08307 0.29981 0.0
C824 C 0.41759 0.05028 0.33029 0.0
O825 O 0.41587 0.08619 0.34403 0.0
O826 O 0.39976 0.08239 0.33168 0.0
O827 O 0.41278 0.05537 0.32016 0.0
O828 O 0.42341 0.05821 0.33773 0.0
C829 C 0.44619 0.07938 0.32433 0.0
O830 O 0.41137 0.07194 0.3045 0.0
O831 O 0.41904 0.09093 0.3077 0.0
In832 In 0.67684 0.92358 0.5789 0.0
O833 O 0.69635 0.92925 0.58766 0.0
O834 O 0.69397 0.9094 0.58199 0.0
C835 C 0.67074 0.94921 0.58075 0.0
C836 C 0.67875 0.91828 0.55305 0.0
C837 C 0.65785 0.91287 0.59402 0.0
O838 O 0.66626 0.94188 0.57193 0.0
O839 O 0.67814 0.94357 0.58883 0.0
O840 O 0.65565 0.91796 0.58305 0.0
O841 O 0.66974 0.91264 0.59719 0.0
C842 C 0.70142 0.91806 0.58671 0.0
O843 O 0.67263 0.91083 0.56076 0.0
O844 O 0.68406 0.92797 0.55848 0.0
In845 In 0.67867 0.07648 0.41878 0.0
O846 O 0.66753 0.08423 0.43663 0.0
O847 O 0.68631 0.07586 0.43961 0.0
C848 C 0.6609 0.08523 0.40117 0.0
C849 C 0.70148 0.08775 0.41148 0.0
C850 C 0.67739 0.05004 0.41954 0.0
O851 O 0.66141 0.08959 0.41269 0.0
O852 O 0.66946 0.0768 0.39854 0.0
O853 O 0.68777 0.05623 0.41729 0.0
O854 O 0.66752 0.05716 0.42142 0.0
C855 C 0.67641 0.08119 0.44466 0.0
O856 O 0.69667 0.07801 0.40571 0.0
O857 O 0.69446 0.0923 0.42053 0.0
In858 In 0.9239 0.67756 0.42085 0.0
O859 O 0.94386 0.68744 0.42162 0.0
O860 O 0.94336 0.66739 0.41644 0.0
C861 C 0.9145 0.70181 0.41568 0.0
C862 C 0.91333 0.65915 0.4049 0.0
C863 C 0.92031 0.67248 0.44649 0.0
O864 O 0.92131 0.69545 0.40763 0.0
O865 O 0.91202 0.69578 0.42612 0.0
O866 O 0.91078 0.67402 0.43876 0.0
O867 O 0.93142 0.67338 0.44122 0.0
C868 C 0.95026 0.67738 0.41852 0.0
O869 O 0.91418 0.6577 0.41709 0.0
O870 O 0.91735 0.67004 0.40083 0.0
In871 In 0.32428 0.92338 0.42269 0.0
O872 O 0.32413 0.9102 0.4409 0.0
O873 O 0.3316 0.92946 0.44275 0.0
C874 C 0.34216 0.91309 0.40593 0.0
C875 C 0.29984 0.91551 0.41631 0.0
C876 C 0.32416 0.94975 0.42218 0.0
O877 O 0.3435 0.91265 0.41815 0.0
O878 O 0.33166 0.9183 0.40221 0.0
O879 O 0.31451 0.94307 0.42593 0.0
O880 O 0.33397 0.94313 0.4187 0.0
C881 C 0.32894 0.9188 0.44833 0.0
O882 O 0.30552 0.92493 0.41079 0.0
O883 O 0.30667 0.90969 0.42476 0.0
In884 In 0.0738 0.32467 0.41967 0.0
O885 O 0.05329 0.31726 0.41516 0.0
O886 O 0.05531 0.33725 0.4203 0.0
C887 C 0.08318 0.30077 0.41335 0.0
C888 C 0.08447 0.34299 0.40373 0.0
C889 C 0.07667 0.32498 0.44592 0.0
O890 O 0.07392 0.30616 0.40728 0.0
O891 O 0.08807 0.30761 0.42237 0.0
O892 O 0.08575 0.32855 0.43834 0.0
O893 O 0.06636 0.32135 0.44023 0.0
C894 C 0.04771 0.32806 0.41714 0.0
O895 O 0.08335 0.34465 0.41588 0.0
O896 O 0.08068 0.33198 0.39977 0.0
In897 In 0.32392 0.07482 0.5821 0.0
O898 O 0.30537 0.07495 0.59448 0.0
O899 O 0.30642 0.08845 0.57881 0.0
C900 C 0.3275 0.04869 0.58416 0.0
C901 C 0.32513 0.07808 0.55594 0.0
C902 C 0.34224 0.08553 0.59811 0.0
O903 O 0.31675 0.05419 0.58662 0.0
O904 O 0.33652 0.05637 0.5808 0.0
O905 O 0.34372 0.08467 0.58593 0.0
O906 O 0.33137 0.08146 0.60215 0.0
C907 C 0.2997 0.08375 0.588 0.0
O908 O 0.32822 0.08712 0.5638 0.0
O909 O 0.32131 0.06767 0.56131 0.0
In910 In 0.92283 0.32621 0.57533 0.0
O911 O 0.94295 0.31884 0.58154 0.0
O912 O 0.94182 0.33789 0.57351 0.0
C913 C 0.91759 0.30032 0.57645 0.0
C914 C 0.91226 0.34209 0.59377 0.0
C915 C 0.9158 0.33265 0.55075 0.0
O916 O 0.92419 0.30556 0.56748 0.0
O917 O 0.91319 0.30821 0.58485 0.0
O918 O 0.90797 0.32703 0.55849 0.0
O919 O 0.92685 0.33522 0.55556 0.0
C920 C 0.94899 0.32901 0.57815 0.0
O921 O 0.90915 0.34281 0.58187 0.0
O922 O 0.92024 0.33309 0.59638 0.0
In923 In 0.0761 0.67731 0.5769 0.0
O924 O 0.08706 0.65847 0.58216 0.0
O925 O 0.08137 0.67086 0.59767 0.0
C926 C 0.08372 0.67198 0.55219 0.0
C927 C 0.04974 0.67534 0.57574 0.0
C928 C 0.08162 0.70234 0.5834 0.0
O929 O 0.0764 0.66451 0.55871 0.0
O930 O 0.08756 0.68201 0.55828 0.0
O931 O 0.07032 0.6975 0.58407 0.0
O932 O 0.09036 0.6945 0.57958 0.0
C933 C 0.08665 0.66026 0.59432 0.0
O934 O 0.05645 0.68077 0.56697 0.0
O935 O 0.05631 0.67081 0.58513 0.0
In936 In 0.42981 0.32186 0.07405 0.0
O937 O 0.43105 0.30342 0.08663 0.0
O938 O 0.4161 0.30445 0.07226 0.0
C939 C 0.41545 0.34114 0.08529 0.0
C940 C 0.45578 0.32139 0.07897 0.0
C941 C 0.42726 0.3242 0.04781 0.0
O942 O 0.41551 0.3296 0.08957 0.0
O943 O 0.42292 0.34301 0.07571 0.0
O944 O 0.4365 0.32942 0.05408 0.0
O945 O 0.41924 0.318 0.05478 0.0
C946 C 0.42163 0.29777 0.08101 0.0
O947 O 0.45023 0.31386 0.07094 0.0
O948 O 0.44818 0.32921 0.08478 0.0
In949 In 0.67521 0.4339 0.07312 0.0
O950 O 0.66731 0.45439 0.07037 0.0
O951 O 0.67523 0.44994 0.08898 0.0
C952 C 0.67341 0.42752 0.04752 0.0
C953 C 0.70146 0.43279 0.0757 0.0
C954 C 0.65742 0.41762 0.08417 0.0
O955 O 0.6683 0.43764 0.0523 0.0
O956 O 0.67935 0.42044 0.05567 0.0
O957 O 0.66941 0.41714 0.08696 0.0
O958 O 0.65443 0.42651 0.07622 0.0
C959 C 0.67006 0.45842 0.08165 0.0
O960 O 0.69393 0.42531 0.082 0.0
O961 O 0.69573 0.44087 0.06837 0.0
In962 In 0.56898 0.67508 0.07299 0.0
O963 O 0.58133 0.69353 0.07576 0.0
O964 O 0.56069 0.69544 0.07663 0.0
C965 C 0.58417 0.65764 0.08605 0.0
C966 C 0.54339 0.67116 0.07806 0.0
C967 C 0.57509 0.67322 0.04728 0.0
O968 O 0.58362 0.66953 0.08917 0.0
O969 O 0.57673 0.65453 0.07679 0.0
O970 O 0.56706 0.66569 0.05277 0.0
O971 O 0.58015 0.68157 0.05475 0.0
C972 C 0.57164 0.70106 0.07705 0.0
O973 O 0.54822 0.6709 0.06673 0.0
O974 O 0.55155 0.67322 0.08712 0.0
In975 In 0.32566 0.57062 0.07492 0.0
O976 O 0.32991 0.54966 0.06913 0.0
O977 O 0.327 0.55329 0.08931 0.0
C978 C 0.33069 0.57777 0.05001 0.0
C979 C 0.2995 0.5723 0.07775 0.0
C980 C 0.3415 0.58789 0.0873 0.0
O981 O 0.33767 0.56964 0.05611 0.0
O982 O 0.32138 0.58249 0.05656 0.0
O983 O 0.32943 0.58979 0.08584 0.0
O984 O 0.34549 0.57708 0.08298 0.0
C985 C 0.32936 0.54499 0.08049 0.0
O986 O 0.30724 0.57477 0.08707 0.0
O987 O 0.30498 0.56875 0.06731 0.0
In988 In 0.43277 0.67268 0.92962 0.0
O989 O 0.45227 0.66196 0.92994 0.0
O990 O 0.45009 0.67701 0.91591 0.0
C991 C 0.42768 0.66864 0.95521 0.0
C992 C 0.42983 0.69892 0.9287 0.0
C993 C 0.4162 0.65589 0.91749 0.0
O994 O 0.43908 0.66834 0.95052 0.0
O995 O 0.41879 0.67094 0.94698 0.0
O996 O 0.41454 0.66809 0.91732 0.0
O997 O 0.42644 0.65226 0.92327 0.0
C998 C 0.45749 0.66854 0.92095 0.0
O999 O 0.42676 0.69166 0.91918 0.0
O1000 O 0.43443 0.69295 0.93844 0.0
In1001 In 0.32333 0.42872 0.92908 0.0
O1002 O 0.31391 0.44873 0.93025 0.0
O1003 O 0.33067 0.44702 0.91816 0.0
C1004 C 0.32898 0.42657 0.95487 0.0
C1005 C 0.29867 0.42096 0.92402 0.0
C1006 C 0.34151 0.41365 0.91703 0.0
O1007 O 0.33008 0.43714 0.94866 0.0
O1008 O 0.3253 0.41702 0.94804 0.0
O1009 O 0.32948 0.41103 0.91684 0.0
O1010 O 0.34432 0.42415 0.92282 0.0
C1011 C 0.32188 0.45438 0.92277 0.0
O1012 O 0.30592 0.42584 0.91529 0.0
O1013 O 0.304 0.41974 0.93506 0.0
In1014 In 0.56878 0.32857 0.92794 0.0
O1015 O 0.5755 0.3091 0.91908 0.0
O1016 O 0.56495 0.30869 0.93697 0.0
C1017 C 0.58545 0.34493 0.91546 0.0
C1018 C 0.54448 0.33215 0.91807 0.0
C1019 C 0.57429 0.33311 0.95335 0.0
O1020 O 0.58686 0.33269 0.91537 0.0
O1021 O 0.57543 0.34884 0.92143 0.0
O1022 O 0.5631 0.33496 0.94851 0.0
O1023 O 0.58277 0.32913 0.94533 0.0
C1024 C 0.57075 0.30227 0.9282 0.0
O1025 O 0.54873 0.33831 0.92784 0.0
O1026 O 0.55263 0.32445 0.91295 0.0
In1027 In 0.67562 0.56902 0.93078 0.0
O1028 O 0.66364 0.55029 0.92981 0.0
O1029 O 0.68002 0.55162 0.91724 0.0
C1030 C 0.67119 0.57193 0.95667 0.0
C1031 C 0.70194 0.57135 0.93004 0.0
C1032 C 0.66007 0.5869 0.9188 0.0
O1033 O 0.67163 0.56094 0.9511 0.0
O1034 O 0.67288 0.58156 0.94915 0.0
O1035 O 0.67223 0.58843 0.91999 0.0
O1036 O 0.65587 0.57622 0.92324 0.0
C1037 C 0.67068 0.54473 0.92138 0.0
O1038 O 0.69493 0.57341 0.92008 0.0
O1039 O 0.69568 0.56816 0.94015 0.0
In1040 In 0.0689 0.43249 0.32348 0.0
O1041 O 0.04895 0.43406 0.33319 0.0
O1042 O 0.05182 0.41863 0.31961 0.0
C1043 C 0.07466 0.458 0.32748 0.0
C1044 C 0.08096 0.41643 0.34074 0.0
C1045 C 0.07165 0.43135 0.29725 0.0
O1046 O 0.06324 0.45344 0.32769 0.0
O1047 O 0.08348 0.44961 0.32537 0.0
O1048 O 0.08062 0.42761 0.30488 0.0
O1049 O 0.06162 0.43573 0.30288 0.0
C1050 C 0.04406 0.42444 0.32724 0.0
O1051 O 0.0814 0.41456 0.32857 0.0
O1052 O 0.0749 0.4266 0.34411 0.0
In1053 In 0.56951 0.07297 0.32228 0.0
O1054 O 0.54975 0.06793 0.33103 0.0
O1055 O 0.55172 0.08673 0.32253 0.0
C1056 C 0.57165 0.04666 0.32296 0.0
C1057 C 0.57462 0.07819 0.29689 0.0
C1058 C 0.58632 0.08486 0.33905 0.0
O1059 O 0.5638 0.05255 0.31552 0.0
O1060 O 0.57846 0.05403 0.33012 0.0
O1061 O 0.58797 0.0848 0.32685 0.0
O1062 O 0.57591 0.07944 0.34275 0.0
C1063 C 0.5443 0.07856 0.32805 0.0
O1064 O 0.58094 0.06986 0.30341 0.0
O1065 O 0.56598 0.08424 0.30329 0.0
In1066 In 0.92734 0.56993 0.32384 0.0
O1067 O 0.91325 0.58609 0.33037 0.0
O1068 O 0.92412 0.57623 0.34498 0.0
C1069 C 0.92042 0.57547 0.2989 0.0
C1070 C 0.95345 0.57396 0.32308 0.0
C1071 C 0.92261 0.54465 0.33007 0.0
O1072 O 0.917 0.5651 0.3046 0.0
O1073 O 0.92694 0.58322 0.3059 0.0
O1074 O 0.93387 0.54964 0.33 0.0
O1075 O 0.91351 0.55253 0.32732 0.0
C1076 C 0.91606 0.58516 0.34233 0.0
O1077 O 0.94588 0.58085 0.32995 0.0
O1078 O 0.94786 0.56508 0.31664 0.0
In1079 In 0.43359 0.92754 0.32772 0.0
O1080 O 0.42669 0.9184 0.30842 0.0
O1081 O 0.43713 0.93634 0.30768 0.0
C1082 C 0.41686 0.91543 0.34428 0.0
C1083 C 0.45782 0.91749 0.33142 0.0
C1084 C 0.42846 0.95302 0.33239 0.0
O1085 O 0.41521 0.91551 0.33207 0.0
O1086 O 0.42718 0.92098 0.34805 0.0
O1087 O 0.43978 0.94821 0.33328 0.0
O1088 O 0.4197 0.94496 0.3292 0.0
C1089 C 0.43134 0.92744 0.30142 0.0
O1090 O 0.45361 0.92733 0.3375 0.0
O1091 O 0.44965 0.91236 0.32375 0.0
In1092 In 0.07184 0.57217 0.67631 0.0
O1093 O 0.05254 0.56702 0.66624 0.0
O1094 O 0.05286 0.5836 0.67867 0.0
C1095 C 0.07611 0.54605 0.67671 0.0
C1096 C 0.08375 0.58778 0.65846 0.0
C1097 C 0.07768 0.57846 0.70124 0.0
O1098 O 0.06712 0.55159 0.68304 0.0
O1099 O 0.08319 0.55372 0.67011 0.0
O1100 O 0.06697 0.58131 0.69587 0.0
O1101 O 0.08574 0.5726 0.69393 0.0
C1102 C 0.04623 0.57633 0.67127 0.0
O1103 O 0.0853 0.5892 0.67059 0.0
O1104 O 0.07668 0.57821 0.65536 0.0
In1105 In 0.4345 0.07246 0.67705 0.0
O1106 O 0.42416 0.0796 0.69565 0.0
O1107 O 0.44253 0.07006 0.69756 0.0
C1108 C 0.41731 0.08246 0.65954 0.0
C1109 C 0.45782 0.08276 0.67 0.0
C1110 C 0.43119 0.04622 0.67678 0.0
O1111 O 0.41798 0.08661 0.67114 0.0
O1112 O 0.42544 0.07364 0.65683 0.0
O1113 O 0.44196 0.05166 0.67435 0.0
O1114 O 0.42198 0.05401 0.67928 0.0
C1115 C 0.43299 0.07542 0.70323 0.0
O1116 O 0.45299 0.07271 0.66481 0.0
O1117 O 0.45062 0.0881 0.67847 0.0
In1118 In 0.92656 0.42943 0.67553 0.0
O1119 O 0.94585 0.43444 0.66543 0.0
O1120 O 0.94444 0.41619 0.67522 0.0
C1121 C 0.92204 0.4555 0.67558 0.0
C1122 C 0.91374 0.414 0.65823 0.0
C1123 C 0.92294 0.424 0.70114 0.0
O1124 O 0.93253 0.45038 0.67947 0.0
O1125 O 0.91361 0.44745 0.67151 0.0
O1126 O 0.91371 0.42785 0.69391 0.0
O1127 O 0.93376 0.42281 0.69542 0.0
C1128 C 0.95146 0.42396 0.66873 0.0
O1129 O 0.91351 0.41203 0.67038 0.0
O1130 O 0.91991 0.42411 0.65485 0.0
In1131 In 0.56966 0.9288 0.67596 0.0
O1132 O 0.57556 0.91893 0.69523 0.0
O1133 O 0.56308 0.93554 0.69599 0.0
C1134 C 0.58744 0.91663 0.66044 0.0
C1135 C 0.54527 0.92002 0.67113 0.0
C1136 C 0.57514 0.95439 0.67199 0.0
O1137 O 0.59005 0.92058 0.67179 0.0
O1138 O 0.57574 0.91839 0.65705 0.0
O1139 O 0.56585 0.94866 0.66629 0.0
O1140 O 0.58175 0.94718 0.67945 0.0
C1141 C 0.56926 0.92691 0.70226 0.0
O1142 O 0.54956 0.93072 0.66676 0.0
O1143 O 0.55344 0.91346 0.67768 0.0
In1144 In 0.32372 0.07421 0.43233 0.0
O1145 O 0.3323 0.0686 0.45203 0.0
O1146 O 0.32362 0.08736 0.45058 0.0
C1147 C 0.32386 0.048 0.42932 0.0
C1148 C 0.29851 0.07982 0.42665 0.0
C1149 C 0.34142 0.08615 0.41658 0.0
O1150 O 0.3303 0.05553 0.42198 0.0
O1151 O 0.31735 0.0537 0.4381 0.0
O1152 O 0.32927 0.08734 0.41502 0.0
O1153 O 0.34461 0.07945 0.42639 0.0
C1154 C 0.32916 0.07901 0.45779 0.0
O1155 O 0.30482 0.08579 0.43541 0.0
O1156 O 0.30503 0.07135 0.42053 0.0
In1157 In 0.32535 0.9251 0.57153 0.0
O1158 O 0.337 0.92557 0.55254 0.0
O1159 O 0.31987 0.91389 0.55291 0.0
C1160 C 0.32908 0.95102 0.5753 0.0
C1161 C 0.29955 0.92156 0.57578 0.0
C1162 C 0.34206 0.91254 0.58791 0.0
O1163 O 0.32784 0.94602 0.56412 0.0
O1164 O 0.3285 0.94296 0.5846 0.0
O1165 O 0.33049 0.91532 0.59101 0.0
O1166 O 0.34506 0.91561 0.57639 0.0
C1167 C 0.32939 0.91815 0.54632 0.0
O1168 O 0.3074 0.91206 0.57483 0.0
O1169 O 0.30472 0.93266 0.57448 0.0
In1170 In 0.0726 0.32169 0.57011 0.0
O1171 O 0.08728 0.32838 0.58576 0.0
O1172 O 0.07653 0.34287 0.57561 0.0
C1173 C 0.07679 0.29681 0.57798 0.0
C1174 C 0.04695 0.32715 0.57337 0.0
C1175 C 0.07798 0.32099 0.54422 0.0
O1176 O 0.08537 0.30322 0.57183 0.0
O1177 O 0.0665 0.3031 0.58045 0.0
O1178 O 0.0698 0.31359 0.54967 0.0
O1179 O 0.08374 0.32879 0.55187 0.0
C1180 C 0.08469 0.34037 0.58447 0.0
O1181 O 0.05272 0.32864 0.56259 0.0
O1182 O 0.05413 0.32307 0.5825 0.0
In1183 In 0.6753 0.07214 0.56715 0.0
O1184 O 0.69456 0.08237 0.57255 0.0
O1185 O 0.69511 0.06221 0.56762 0.0
C1186 C 0.65938 0.0851 0.58393 0.0
C1187 C 0.67192 0.08093 0.54236 0.0
C1188 C 0.66995 0.04662 0.57118 0.0
O1189 O 0.67151 0.08404 0.58575 0.0
O1190 O 0.65538 0.0801 0.57341 0.0
O1191 O 0.67149 0.05145 0.55995 0.0
O1192 O 0.67102 0.05469 0.58044 0.0
C1193 C 0.70142 0.0722 0.57109 0.0
O1194 O 0.66438 0.07279 0.54768 0.0
O1195 O 0.6809 0.08508 0.5497 0.0
In1196 In 0.92488 0.67491 0.56938 0.0
O1197 O 0.9451 0.68262 0.56398 0.0
O1198 O 0.94407 0.66762 0.57825 0.0
C1199 C 0.91911 0.66908 0.54425 0.0
C1200 C 0.91311 0.65702 0.58507 0.0
C1201 C 0.91919 0.69998 0.57548 0.0
O1202 O 0.92966 0.66583 0.5497 0.0
O1203 O 0.91119 0.67508 0.55157 0.0
O1204 O 0.91457 0.69432 0.56554 0.0
O1205 O 0.92631 0.69285 0.5826 0.0
C1206 C 0.95122 0.67517 0.57164 0.0
O1207 O 0.91154 0.66914 0.58657 0.0
O1208 O 0.92011 0.654 0.57543 0.0
In1209 In 0.67926 0.92547 0.42934 0.0
O1210 O 0.67402 0.93192 0.44985 0.0
O1211 O 0.67787 0.91171 0.4471 0.0
C1212 C 0.67803 0.95177 0.42684 0.0
C1213 C 0.7041 0.91868 0.42334 0.0
C1214 C 0.6618 0.91384 0.41308 0.0
O1215 O 0.66887 0.94437 0.42319 0.0
O1216 O 0.6877 0.94591 0.43172 0.0
O1217 O 0.67351 0.91596 0.40995 0.0
O1218 O 0.65899 0.91709 0.42462 0.0
C1219 C 0.67503 0.92078 0.455 0.0
O1220 O 0.69739 0.92634 0.41642 0.0
O1221 O 0.69815 0.91406 0.43311 0.0
In1222 In 0.07439 0.67855 0.43039 0.0
O1223 O 0.07836 0.67362 0.40904 0.0
O1224 O 0.0874 0.66163 0.42325 0.0
C1225 C 0.08028 0.70426 0.43139 0.0
C1226 C 0.04842 0.67688 0.42561 0.0
C1227 C 0.08077 0.67106 0.45485 0.0
O1228 O 0.0851 0.69681 0.42281 0.0
O1229 O 0.07287 0.69867 0.43947 0.0
O1230 O 0.06968 0.66901 0.44985 0.0
O1231 O 0.0889 0.67652 0.44732 0.0
C1232 C 0.08547 0.66385 0.41129 0.0
O1233 O 0.05485 0.66752 0.43042 0.0
O1234 O 0.05508 0.68694 0.42321 0.0
In1235 In 0.92404 0.32787 0.42998 0.0
O1236 O 0.94491 0.33248 0.4363 0.0
O1237 O 0.94189 0.32745 0.41644 0.0
C1238 C 0.914 0.33357 0.45383 0.0
C1239 C 0.91194 0.34431 0.41307 0.0
C1240 C 0.92272 0.30159 0.42839 0.0
O1241 O 0.92299 0.34009 0.44854 0.0
O1242 O 0.90966 0.32434 0.44691 0.0
O1243 O 0.9156 0.30894 0.42146 0.0
O1244 O 0.93027 0.30751 0.43613 0.0
C1245 C 0.94993 0.33062 0.42522 0.0
O1246 O 0.91031 0.3321 0.4127 0.0
O1247 O 0.91935 0.34815 0.42211 0.0
H1248 H 0.08946 0.13767 0.40377 0.0
H1249 H 0.1219 0.16193 0.41559 0.0
H1250 H 0.10444 0.11943 0.40016 0.0
H1251 H 0.13676 0.1437 0.41249 0.0
H1252 H 0.1313 0.08716 0.41762 0.0
H1253 H 0.11614 0.10509 0.41411 0.0
H1254 H 0.14762 0.12866 0.39867 0.0
H1255 H 0.1629 0.11079 0.40271 0.0
C1256 C 0.09981 0.13915 0.40543 0.0
C1257 C 0.1045 0.15118 0.41007 0.0
C1258 C 0.10839 0.12868 0.40345 0.0
C1259 C 0.12182 0.13001 0.40617 0.0
C1260 C 0.12654 0.1423 0.41013 0.0
C1261 C 0.11799 0.15277 0.41201 0.0
C1262 C 0.13494 0.09608 0.41325 0.0
C1263 C 0.14832 0.09763 0.4106 0.0
C1264 C 0.12622 0.10637 0.41114 0.0
C1265 C 0.13066 0.11843 0.40624 0.0
C1266 C 0.14391 0.11962 0.40273 0.0
C1267 C 0.15266 0.10935 0.40495 0.0
H1268 H 0.86507 0.09108 0.40326 0.0
H1269 H 0.83963 0.12364 0.41179 0.0
H1270 H 0.88324 0.10616 0.39994 0.0
H1271 H 0.85779 0.13863 0.40915 0.0
H1272 H 0.89108 0.16493 0.40124 0.0
H1273 H 0.87356 0.14942 0.39661 0.0
H1274 H 0.8967 0.11844 0.41371 0.0
H1275 H 0.91431 0.13378 0.41768 0.0
C1276 C 0.86333 0.10147 0.40427 0.0
C1277 C 0.85096 0.10617 0.4079 0.0
C1278 C 0.87377 0.11013 0.40247 0.0
C1279 C 0.8721 0.12365 0.40446 0.0
C1280 C 0.8595 0.12834 0.40736 0.0
C1281 C 0.84905 0.11972 0.40898 0.0
C1282 C 0.89249 0.15474 0.40372 0.0
C1283 C 0.90401 0.15059 0.40992 0.0
C1284 C 0.88241 0.14585 0.40117 0.0
C1285 C 0.88357 0.13266 0.40495 0.0
C1286 C 0.89543 0.12844 0.41049 0.0
C1287 C 0.90555 0.13728 0.41287 0.0
H1288 H 0.87033 0.91503 0.42679 0.0
H1289 H 0.84447 0.89783 0.39824 0.0
H1290 H 0.88613 0.89783 0.42299 0.0
H1291 H 0.86062 0.88074 0.39395 0.0
H1292 H 0.88311 0.84307 0.40635 0.0
H1293 H 0.86853 0.86184 0.40467 0.0
H1294 H 0.90152 0.88779 0.40951 0.0
H1295 H 0.91591 0.86898 0.41187 0.0
C1296 C 0.86817 0.90774 0.41943 0.0
C1297 C 0.85611 0.90774 0.41288 0.0
C1298 C 0.8773 0.89786 0.41716 0.0
C1299 C 0.87469 0.88777 0.40818 0.0
C1300 C 0.86289 0.8882 0.4011 0.0
C1301 C 0.85367 0.89806 0.40346 0.0
C1302 C 0.88724 0.8528 0.40683 0.0
C1303 C 0.9006 0.85458 0.40941 0.0
C1304 C 0.8789 0.8636 0.4058 0.0
C1305 C 0.88378 0.8764 0.40715 0.0
C1306 C 0.89733 0.87811 0.40879 0.0
C1307 C 0.90561 0.86733 0.41004 0.0
H1308 H 0.08546 0.87149 0.42137 0.0
H1309 H 0.10623 0.84027 0.402 0.0
H1310 H 0.10357 0.88625 0.41711 0.0
H1311 H 0.12436 0.85516 0.39749 0.0
H1312 H 0.13524 0.91264 0.40418 0.0
H1313 H 0.11659 0.89805 0.40127 0.0
H1314 H 0.14093 0.86505 0.41139 0.0
H1315 H 0.15958 0.87959 0.414 0.0
C1316 C 0.09379 0.86786 0.41594 0.0
C1317 C 0.09448 0.85469 0.41213 0.0
C1318 C 0.10416 0.87635 0.41341 0.0
C1319 C 0.11547 0.87187 0.40701 0.0
C1320 C 0.11586 0.85886 0.40258 0.0
C1321 C 0.10545 0.85036 0.4051 0.0
C1322 C 0.13666 0.90224 0.40548 0.0
C1323 C 0.14883 0.89727 0.40946 0.0
C1324 C 0.12596 0.89389 0.4039 0.0
C1325 C 0.12722 0.8804 0.40627 0.0
C1326 C 0.13962 0.87536 0.40938 0.0
C1327 C 0.15031 0.88371 0.41095 0.0
H1328 H 0.13253 0.91385 0.58306 0.0
H1329 H 0.16324 0.89057 0.60026 0.0
H1330 H 0.11688 0.8965 0.58742 0.0
H1331 H 0.1475 0.87323 0.60487 0.0
H1332 H 0.12095 0.84008 0.58766 0.0
H1333 H 0.13638 0.85794 0.59046 0.0
H1334 H 0.10494 0.88317 0.60305 0.0
H1335 H 0.08943 0.86528 0.6 0.0
C1336 C 0.13587 0.90515 0.58808 0.0
C1337 C 0.14914 0.90351 0.59118 0.0
C1338 C 0.12687 0.89521 0.59066 0.0
C1339 C 0.13095 0.8834 0.59639 0.0
C1340 C 0.14408 0.88212 0.60027 0.0
C1341 C 0.15308 0.89209 0.5977 0.0
C1342 C 0.11737 0.84935 0.59128 0.0
C1343 C 0.10396 0.85131 0.59347 0.0
C1344 C 0.12623 0.8596 0.59297 0.0
C1345 C 0.12188 0.87204 0.59688 0.0
C1346 C 0.10857 0.87376 0.59985 0.0
C1347 C 0.0997 0.86349 0.59818 0.0
H1348 H 0.10593 0.15847 0.60215 0.0
H1349 H 0.08697 0.12947 0.57807 0.0
H1350 H 0.12377 0.14311 0.60651 0.0
H1351 H 0.10474 0.11429 0.58222 0.0
H1352 H 0.13506 0.08639 0.59498 0.0
H1353 H 0.11631 0.10086 0.59789 0.0
H1354 H 0.14149 0.1344 0.59306 0.0
H1355 H 0.16023 0.11995 0.59044 0.0
C1356 C 0.10546 0.14875 0.59798 0.0
C1357 C 0.09511 0.1452 0.58969 0.0
C1358 C 0.11571 0.13999 0.60041 0.0
C1359 C 0.11572 0.12748 0.59467 0.0
C1360 C 0.10499 0.12376 0.58695 0.0
C1361 C 0.09483 0.13251 0.58448 0.0
C1362 C 0.13662 0.09686 0.59484 0.0
C1363 C 0.14908 0.10204 0.59233 0.0
C1364 C 0.12587 0.10515 0.59644 0.0
C1365 C 0.12736 0.11879 0.59553 0.0
C1366 C 0.13999 0.12396 0.59391 0.0
C1367 C 0.15073 0.11567 0.59234 0.0
H1368 H 0.87893 0.16064 0.58011 0.0
H1369 H 0.90753 0.13896 0.60231 0.0
H1370 H 0.86327 0.14307 0.58299 0.0
H1371 H 0.89166 0.12138 0.60552 0.0
H1372 H 0.86774 0.08669 0.58756 0.0
H1373 H 0.88254 0.1049 0.5914 0.0
H1374 H 0.84948 0.13057 0.5971 0.0
H1375 H 0.83467 0.11238 0.59284 0.0
C1376 C 0.88177 0.15224 0.58588 0.0
C1377 C 0.89451 0.15113 0.59087 0.0
C1378 C 0.87274 0.14217 0.58762 0.0
C1379 C 0.8762 0.13073 0.59442 0.0
C1380 C 0.88873 0.12996 0.60006 0.0
C1381 C 0.89779 0.14007 0.59831 0.0
C1382 C 0.86363 0.09617 0.58989 0.0
C1383 C 0.85005 0.09814 0.58972 0.0
C1384 C 0.87213 0.10662 0.59217 0.0
C1385 C 0.86722 0.11927 0.5944 0.0
C1386 C 0.8536 0.12102 0.59515 0.0
C1387 C 0.8451 0.11058 0.5928 0.0
H1388 H 0.91408 0.86705 0.57913 0.0
H1389 H 0.89227 0.83691 0.59902 0.0
H1390 H 0.89654 0.88252 0.58322 0.0
H1391 H 0.87477 0.85254 0.60347 0.0
H1392 H 0.84001 0.87781 0.58821 0.0
H1393 H 0.85831 0.86278 0.59027 0.0
H1394 H 0.88408 0.89523 0.59839 0.0
H1395 H 0.86576 0.91033 0.59593 0.0
C1396 C 0.90565 0.86381 0.58465 0.0
C1397 C 0.9045 0.85073 0.58864 0.0
C1398 C 0.8956 0.87272 0.58708 0.0
C1399 C 0.88416 0.86878 0.5936 0.0
C1400 C 0.88334 0.85585 0.59824 0.0
C1401 C 0.89341 0.84691 0.59577 0.0
C1402 C 0.84954 0.88172 0.59067 0.0
C1403 C 0.85148 0.89526 0.59176 0.0
C1404 C 0.86004 0.87308 0.59193 0.0
C1405 C 0.87273 0.87778 0.59437 0.0
C1406 C 0.87449 0.89129 0.59626 0.0
C1407 C 0.86398 0.89994 0.59494 0.0
H1408 H 0.41246 0.12345 0.15992 0.0
H1409 H 0.4055 0.08984 0.13536 0.0
H1410 H 0.40968 0.13779 0.14112 0.0
H1411 H 0.40248 0.10421 0.11655 0.0
H1412 H 0.42201 0.13224 0.08617 0.0
H1413 H 0.41808 0.11712 0.10408 0.0
H1414 H 0.39541 0.14662 0.12407 0.0
H1415 H 0.39953 0.16186 0.10614 0.0
C1416 C 0.41003 0.11915 0.15056 0.0
C1417 C 0.40936 0.10552 0.14908 0.0
C1418 C 0.40835 0.12737 0.13978 0.0
C1419 C 0.40597 0.12213 0.1273 0.0
C1420 C 0.4045 0.10853 0.126 0.0
C1421 C 0.40617 0.10031 0.13678 0.0
C1422 C 0.41596 0.13542 0.09426 0.0
C1423 C 0.41118 0.14827 0.09481 0.0
C1424 C 0.41364 0.12672 0.10451 0.0
C1425 C 0.40651 0.13069 0.11557 0.0
C1426 C 0.40108 0.14332 0.11576 0.0
C1427 C 0.40337 0.15202 0.10546 0.0
H1428 H 0.9149 0.411 0.13078 0.0
H1429 H 0.88271 0.40823 0.15787 0.0
H1430 H 0.89977 0.40905 0.11252 0.0
H1431 H 0.86742 0.4069 0.13961 0.0
H1432 H 0.84217 0.40126 0.10379 0.0
H1433 H 0.85831 0.39626 0.12077 0.0
H1434 H 0.88496 0.42401 0.10332 0.0
H1435 H 0.86917 0.42859 0.08635 0.0
C1436 C 0.90458 0.40982 0.13282 0.0
C1437 C 0.89996 0.40992 0.14573 0.0
C1438 C 0.89588 0.40879 0.12236 0.0
C1439 C 0.88231 0.40811 0.12455 0.0
C1440 C 0.87778 0.40734 0.13752 0.0
C1441 C 0.88654 0.40815 0.14801 0.0
C1442 C 0.85159 0.40607 0.10349 0.0
C1443 C 0.85438 0.41535 0.09376 0.0
C1444 C 0.86081 0.40329 0.11326 0.0
C1445 C 0.87297 0.40973 0.11347 0.0
C1446 C 0.87585 0.41864 0.10341 0.0
C1447 C 0.86671 0.42137 0.09369 0.0
H1448 H 0.5794 0.87647 0.1602 0.0
H1449 H 0.60526 0.90427 0.14182 0.0
H1450 H 0.58281 0.86131 0.14224 0.0
H1451 H 0.6088 0.88896 0.12375 0.0
H1452 H 0.59495 0.83302 0.11196 0.0
H1453 H 0.59839 0.84726 0.13077 0.0
H1454 H 0.59455 0.8811 0.10584 0.0
H1455 H 0.59131 0.86686 0.08701 0.0
C1456 C 0.58602 0.87924 0.15242 0.0
C1457 C 0.59199 0.89159 0.15237 0.0
C1458 C 0.58806 0.8705 0.14216 0.0
C1459 C 0.59606 0.87393 0.13153 0.0
C1460 C 0.6025 0.88608 0.13175 0.0
C1461 C 0.60053 0.89481 0.14212 0.0
C1462 C 0.59514 0.84349 0.11045 0.0
C1463 C 0.59271 0.84883 0.09803 0.0
C1464 C 0.59704 0.85165 0.12124 0.0
C1465 C 0.59657 0.86532 0.11984 0.0
C1466 C 0.59506 0.87063 0.10725 0.0
C1467 C 0.59314 0.86246 0.09646 0.0
H1468 H 0.0899 0.59556 0.13492 0.0
H1469 H 0.12213 0.58612 0.16047 0.0
H1470 H 0.10514 0.59849 0.1168 0.0
H1471 H 0.13729 0.58858 0.14237 0.0
H1472 H 0.16363 0.59739 0.10906 0.0
H1473 H 0.14801 0.60186 0.12655 0.0
H1474 H 0.11745 0.58366 0.10374 0.0
H1475 H 0.13293 0.57964 0.0862 0.0
C1476 C 0.10026 0.5943 0.13671 0.0
C1477 C 0.10481 0.59049 0.14908 0.0
C1478 C 0.10899 0.59589 0.12631 0.0
C1479 C 0.12245 0.59361 0.12805 0.0
C1480 C 0.12704 0.59056 0.14065 0.0
C1481 C 0.11832 0.58906 0.15105 0.0
C1482 C 0.15351 0.5946 0.10771 0.0
C1483 C 0.14952 0.58806 0.09632 0.0
C1484 C 0.14457 0.59708 0.11776 0.0
C1485 C 0.13148 0.593 0.11665 0.0
C1486 C 0.12739 0.5871 0.10492 0.0
C1487 C 0.1363 0.5847 0.09487 0.0
H1488 H 0.39378 0.90309 0.85833 0.0
H1489 H 0.42061 0.87677 0.83915 0.0
H1490 H 0.39094 0.88718 0.87604 0.0
H1491 H 0.41793 0.86107 0.85672 0.0
H1492 H 0.40907 0.86443 0.9121 0.0
H1493 H 0.4051 0.87917 0.89379 0.0
H1494 H 0.40317 0.84609 0.86763 0.0
H1495 H 0.40743 0.83139 0.8859 0.0
C1496 C 0.39889 0.89384 0.8578 0.0
C1497 C 0.40747 0.89119 0.84741 0.0
C1498 C 0.39732 0.88477 0.86795 0.0
C1499 C 0.40421 0.87285 0.86781 0.0
C1500 C 0.41232 0.87004 0.85708 0.0
C1501 C 0.41394 0.8791 0.84703 0.0
C1502 C 0.4075 0.86029 0.90249 0.0
C1503 C 0.40875 0.84677 0.9004 0.0
C1504 C 0.40517 0.86874 0.89199 0.0
C1505 C 0.40402 0.86382 0.87921 0.0
C1506 C 0.40427 0.85021 0.87732 0.0
C1507 C 0.40663 0.84178 0.8878 0.0
H1508 H 0.12321 0.41526 0.83829 0.0
H1509 H 0.09025 0.40495 0.86254 0.0
H1510 H 0.13783 0.41209 0.85676 0.0
H1511 H 0.10494 0.40141 0.881 0.0
H1512 H 0.13196 0.41973 0.91279 0.0
H1513 H 0.11694 0.4162 0.89472 0.0
H1514 H 0.14787 0.39784 0.87256 0.0
H1515 H 0.16301 0.40171 0.8906 0.0
C1516 C 0.11913 0.41199 0.84749 0.0
C1517 C 0.10557 0.4105 0.84901 0.0
C1518 C 0.12753 0.41009 0.85809 0.0
C1519 C 0.12256 0.40662 0.87043 0.0
C1520 C 0.10906 0.40431 0.87169 0.0
C1521 C 0.10066 0.40626 0.8611 0.0
C1522 C 0.1355 0.41471 0.90416 0.0
C1523 C 0.1487 0.41113 0.90305 0.0
C1524 C 0.12686 0.41261 0.89381 0.0
C1525 C 0.13122 0.40683 0.88211 0.0
C1526 C 0.14425 0.40251 0.88134 0.0
C1527 C 0.1529 0.40465 0.8917 0.0
H1528 H 0.57947 0.12596 0.84017 0.0
H1529 H 0.6035 0.09772 0.86032 0.0
H1530 H 0.58248 0.14135 0.858 0.0
H1531 H 0.60667 0.11327 0.87823 0.0
H1532 H 0.58772 0.13583 0.91376 0.0
H1533 H 0.59176 0.12149 0.89518 0.0
H1534 H 0.59739 0.15519 0.87039 0.0
H1535 H 0.59312 0.16954 0.88896 0.0
C1536 C 0.58565 0.12316 0.84829 0.0
C1537 C 0.59116 0.1106 0.8489 0.0
C1538 C 0.58746 0.13202 0.8585 0.0
C1539 C 0.59477 0.12852 0.86959 0.0
C1540 C 0.60087 0.1162 0.86988 0.0
C1541 C 0.59913 0.10734 0.8596 0.0
C1542 C 0.5901 0.14018 0.9044 0.0
C1543 C 0.58993 0.15381 0.90277 0.0
C1544 C 0.59249 0.13195 0.89376 0.0
C1545 C 0.59476 0.13719 0.88126 0.0
C1546 C 0.59547 0.15085 0.87985 0.0
C1547 C 0.59309 0.15907 0.8905 0.0
H1548 H 0.86977 0.57671 0.91593 0.0
H1549 H 0.83791 0.59262 0.89331 0.0
H1550 H 0.88472 0.58095 0.89802 0.0
H1551 H 0.853 0.59749 0.8755 0.0
H1552 H 0.87876 0.58386 0.84095 0.0
H1553 H 0.86395 0.58541 0.85941 0.0
H1554 H 0.89641 0.59533 0.8846 0.0
H1555 H 0.91132 0.59313 0.86612 0.0
C1556 C 0.86603 0.58144 0.90724 0.0
C1557 C 0.85264 0.58421 0.90598 0.0
C1558 C 0.87464 0.58397 0.89695 0.0
C1559 C 0.8701 0.58947 0.88518 0.0
C1560 C 0.85682 0.59298 0.88427 0.0
C1561 C 0.84817 0.59029 0.89452 0.0
C1562 C 0.88271 0.58658 0.85039 0.0
C1563 C 0.89622 0.58823 0.85212 0.0
C1564 C 0.87418 0.58756 0.86101 0.0
C1565 C 0.87894 0.59037 0.87361 0.0
C1566 C 0.8924 0.59285 0.87513 0.0
C1567 C 0.90095 0.5917 0.86452 0.0
H1568 H 0.16197 0.41276 0.12114 0.0
H1569 H 0.13798 0.39918 0.0892 0.0
H1570 H 0.14361 0.41044 0.136 0.0
H1571 H 0.11962 0.3964 0.10419 0.0
H1572 H 0.1102 0.4019 0.16223 0.0
H1573 H 0.12832 0.39718 0.14743 0.0
H1574 H 0.10529 0.41126 0.11494 0.0
H1575 H 0.08714 0.41553 0.12963 0.0
C1576 C 0.15285 0.40894 0.11736 0.0
C1577 C 0.15138 0.4063 0.10398 0.0
C1578 C 0.14231 0.40753 0.12591 0.0
C1579 C 0.13004 0.40335 0.1213 0.0
C1580 C 0.12884 0.39988 0.10804 0.0
C1581 C 0.13939 0.40138 0.09946 0.0
C1582 C 0.10894 0.40371 0.15188 0.0
C1583 C 0.09729 0.40919 0.14711 0.0
C1584 C 0.11935 0.40109 0.1434 0.0
C1585 C 0.11836 0.40398 0.12999 0.0
C1586 C 0.10641 0.40877 0.12516 0.0
C1587 C 0.09599 0.4113 0.13361 0.0
H1588 H 0.08528 0.5829 0.8684 0.0
H1589 H 0.10841 0.60042 0.83777 0.0
H1590 H 0.10284 0.58683 0.88393 0.0
H1591 H 0.12592 0.60467 0.85341 0.0
H1592 H 0.15945 0.58742 0.87915 0.0
H1593 H 0.14135 0.59042 0.86403 0.0
H1594 H 0.11636 0.60177 0.89613 0.0
H1595 H 0.13447 0.59844 0.91132 0.0
C1596 C 0.09399 0.58791 0.86506 0.0
C1597 C 0.09553 0.59121 0.85183 0.0
C1598 C 0.10405 0.59024 0.87399 0.0
C1599 C 0.11587 0.59594 0.8699 0.0
C1600 C 0.11704 0.60004 0.85684 0.0
C1601 C 0.10697 0.59769 0.84789 0.0
C1602 C 0.15016 0.5908 0.88295 0.0
C1603 C 0.14834 0.59255 0.89643 0.0
C1604 C 0.13978 0.59261 0.87426 0.0
C1605 C 0.12734 0.59623 0.87887 0.0
C1606 C 0.12575 0.59877 0.89228 0.0
C1607 C 0.13615 0.59694 0.90098 0.0
H1608 H 0.40122 0.10424 0.83909 0.0
H1609 H 0.42054 0.08421 0.87081 0.0
H1610 H 0.39637 0.12256 0.85363 0.0
H1611 H 0.41599 0.10254 0.88521 0.0
H1612 H 0.41174 0.15853 0.87741 0.0
H1613 H 0.40964 0.13953 0.86329 0.0
H1614 H 0.40019 0.11564 0.89679 0.0
H1615 H 0.40262 0.13467 0.91099 0.0
C1616 C 0.40425 0.10366 0.84921 0.0
C1617 C 0.41135 0.09283 0.85378 0.0
C1618 C 0.40154 0.11419 0.85752 0.0
C1619 C 0.40587 0.11409 0.87058 0.0
C1620 C 0.41236 0.10292 0.87528 0.0
C1621 C 0.41506 0.09242 0.86699 0.0
C1622 C 0.40894 0.14929 0.88174 0.0
C1623 C 0.4075 0.14807 0.89533 0.0
C1624 C 0.40767 0.13838 0.87362 0.0
C1625 C 0.40489 0.126 0.87891 0.0
C1626 C 0.40257 0.12498 0.89242 0.0
C1627 C 0.40387 0.1359 0.90055 0.0
H1628 H 0.8424 0.40462 0.87927 0.0
H1629 H 0.86867 0.40068 0.91204 0.0
H1630 H 0.86067 0.4025 0.8643 0.0
H1631 H 0.88698 0.39785 0.89705 0.0
H1632 H 0.91601 0.41703 0.86825 0.0
H1633 H 0.89891 0.41221 0.88391 0.0
H1634 H 0.87766 0.39095 0.85419 0.0
H1635 H 0.89461 0.3964 0.83831 0.0
C1636 C 0.85205 0.40288 0.88327 0.0
C1637 C 0.85414 0.40301 0.89682 0.0
C1638 C 0.86257 0.40158 0.87466 0.0
C1639 C 0.87541 0.40019 0.87942 0.0
C1640 C 0.8773 0.39925 0.89302 0.0
C1641 C 0.86679 0.40075 0.90163 0.0
C1642 C 0.90779 0.41114 0.86511 0.0
C1643 C 0.90656 0.40724 0.85202 0.0
C1644 C 0.89799 0.40827 0.87414 0.0
C1645 C 0.88676 0.40127 0.87034 0.0
C1646 C 0.886 0.3966 0.85741 0.0
C1647 C 0.89576 0.39963 0.84833 0.0
H1648 H 0.59682 0.90001 0.84105 0.0
H1649 H 0.57193 0.91784 0.8701 0.0
H1650 H 0.6019 0.8823 0.85633 0.0
H1651 H 0.57683 0.9002 0.88521 0.0
H1652 H 0.59162 0.87074 0.9131 0.0
H1653 H 0.59338 0.88952 0.89851 0.0
H1654 H 0.58919 0.86396 0.86518 0.0
H1655 H 0.58768 0.84518 0.87976 0.0
C1656 C 0.59261 0.90025 0.85076 0.0
C1657 C 0.58391 0.91026 0.85436 0.0
C1658 C 0.59546 0.89009 0.85947 0.0
C1659 C 0.58975 0.8898 0.87198 0.0
C1660 C 0.58155 0.90017 0.87574 0.0
C1661 C 0.57865 0.91026 0.86703 0.0
C1662 C 0.59137 0.86911 0.90265 0.0
C1663 C 0.58936 0.85651 0.89758 0.0
C1664 C 0.59231 0.87987 0.89429 0.0
C1665 C 0.59124 0.87826 0.88069 0.0
C1666 C 0.59014 0.86554 0.8756 0.0
C1667 C 0.58921 0.85478 0.88396 0.0
H1668 H 0.91355 0.58574 0.13276 0.0
H1669 H 0.891 0.60005 0.16544 0.0
H1670 H 0.89536 0.5904 0.11815 0.0
H1671 H 0.87284 0.60495 0.15076 0.0
H1672 H 0.86229 0.60358 0.09297 0.0
H1673 H 0.88084 0.60629 0.10781 0.0
H1674 H 0.85769 0.59061 0.13943 0.0
H1675 H 0.83921 0.58811 0.12472 0.0
C1676 C 0.90482 0.59018 0.13677 0.0
C1677 C 0.90365 0.59238 0.15027 0.0
C1678 C 0.8944 0.59294 0.12838 0.0
C1679 C 0.88258 0.59794 0.1333 0.0
C1680 C 0.88174 0.60092 0.14669 0.0
C1681 C 0.89217 0.59817 0.15509 0.0
C1682 C 0.8611 0.60102 0.10317 0.0
C1683 C 0.84934 0.59553 0.10766 0.0
C1684 C 0.87174 0.60248 0.11164 0.0
C1685 C 0.8708 0.59855 0.12478 0.0
C1686 C 0.85875 0.59386 0.12942 0.0
C1687 C 0.84815 0.59235 0.12096 0.0
H1688 H 0.41961 0.87157 0.09065 0.0
H1689 H 0.40371 0.84288 0.11717 0.0
H1690 H 0.41669 0.88846 0.10705 0.0
H1691 H 0.40025 0.85992 0.13352 0.0
H1692 H 0.4174 0.88858 0.16423 0.0
H1693 H 0.41396 0.87197 0.14764 0.0
H1694 H 0.40309 0.90193 0.1199 0.0
H1695 H 0.4071 0.91862 0.13646 0.0
C1696 C 0.41517 0.86893 0.09989 0.0
C1697 C 0.41203 0.85588 0.10268 0.0
C1698 C 0.4134 0.87866 0.1093 0.0
C1699 C 0.40833 0.87558 0.12171 0.0
C1700 C 0.40443 0.86262 0.12418 0.0
C1701 C 0.40632 0.85286 0.11479 0.0
C1702 C 0.41405 0.89161 0.15466 0.0
C1703 C 0.41268 0.90491 0.15161 0.0
C1704 C 0.41199 0.88205 0.14513 0.0
C1705 C 0.40839 0.88557 0.13233 0.0
C1706 C 0.40614 0.89887 0.12956 0.0
C1707 C 0.40834 0.90844 0.13907 0.0
H1708 H 0.5871 0.16018 0.12182 0.0
H1709 H 0.59721 0.13616 0.08864 0.0
H1710 H 0.58952 0.14144 0.13618 0.0
H1711 H 0.6001 0.1174 0.1031 0.0
H1712 H 0.59861 0.10739 0.16129 0.0
H1713 H 0.60291 0.1255 0.14638 0.0
H1714 H 0.58565 0.10344 0.11476 0.0
H1715 H 0.58182 0.08524 0.12955 0.0
C1716 C 0.59017 0.15095 0.11763 0.0
C1717 C 0.59183 0.14961 0.10408 0.0
C1718 C 0.59164 0.14019 0.1259 0.0
C1719 C 0.5949 0.12782 0.12082 0.0
C1720 C 0.59734 0.1267 0.10733 0.0
C1721 C 0.59578 0.13747 0.09904 0.0
C1722 C 0.596 0.10633 0.15108 0.0
C1723 C 0.58977 0.09495 0.14661 0.0
C1724 C 0.59838 0.11674 0.14255 0.0
C1725 C 0.59447 0.11604 0.12938 0.0
C1726 C 0.58893 0.10432 0.12478 0.0
C1727 C 0.58665 0.09388 0.13329 0.0
H1728 H 0.66672 0.61048 0.90809 0.0
H1729 H 0.63347 0.58691 0.91894 0.0
H1730 H 0.65214 0.62868 0.90297 0.0
H1731 H 0.61896 0.60513 0.91437 0.0
H1732 H 0.62465 0.66202 0.91681 0.0
H1733 H 0.63976 0.64378 0.91528 0.0
H1734 H 0.60897 0.61959 0.89942 0.0
H1735 H 0.59369 0.63781 0.90148 0.0
C1736 C 0.65628 0.60915 0.90924 0.0
C1737 C 0.65124 0.59731 0.91401 0.0
C1738 C 0.64792 0.6196 0.9064 0.0
C1739 C 0.63434 0.61848 0.90838 0.0
C1740 C 0.62931 0.60637 0.91254 0.0
C1741 C 0.63765 0.59591 0.91526 0.0
C1742 C 0.62116 0.65288 0.91277 0.0
C1743 C 0.60794 0.6513 0.90941 0.0
C1744 C 0.62986 0.6424 0.91182 0.0
C1745 C 0.62559 0.6301 0.90737 0.0
C1746 C 0.61255 0.62882 0.90317 0.0
C1747 C 0.6038 0.63929 0.90424 0.0
H1748 H 0.41608 0.62952 0.92079 0.0
H1749 H 0.39349 0.66112 0.90433 0.0
H1750 H 0.39804 0.6146 0.9171 0.0
H1751 H 0.37551 0.64603 0.90005 0.0
H1752 H 0.34111 0.62095 0.91559 0.0
H1753 H 0.35958 0.63558 0.91289 0.0
H1754 H 0.38425 0.60265 0.90322 0.0
H1755 H 0.36578 0.58794 0.90655 0.0
C1756 C 0.40736 0.6332 0.91605 0.0
C1757 C 0.40615 0.64652 0.91299 0.0
C1758 C 0.397 0.6246 0.91383 0.0
C1759 C 0.38519 0.62908 0.90837 0.0
C1760 C 0.38433 0.64227 0.90453 0.0
C1761 C 0.39467 0.65091 0.90688 0.0
C1762 C 0.35042 0.61685 0.91266 0.0
C1763 C 0.35203 0.60328 0.91144 0.0
C1764 C 0.36105 0.62527 0.91102 0.0
C1765 C 0.37352 0.62033 0.90797 0.0
C1766 C 0.37488 0.6068 0.90586 0.0
C1767 C 0.36427 0.59836 0.90766 0.0
H1768 H 0.40899 0.36732 0.92599 0.0
H1769 H 0.38816 0.34443 0.89731 0.0
H1770 H 0.39336 0.38491 0.92346 0.0
H1771 H 0.37258 0.36237 0.89439 0.0
H1772 H 0.33816 0.38819 0.90991 0.0
H1773 H 0.35511 0.37182 0.90664 0.0
H1774 H 0.38467 0.40176 0.91037 0.0
H1775 H 0.36767 0.41802 0.9142 0.0
C1776 C 0.40119 0.36616 0.91892 0.0
C1777 C 0.39975 0.35444 0.91192 0.0
C1778 C 0.39225 0.37633 0.91737 0.0
C1779 C 0.38165 0.37511 0.90872 0.0
C1780 C 0.38053 0.36358 0.90127 0.0
C1781 C 0.38949 0.35334 0.90287 0.0
C1782 C 0.34827 0.39131 0.90978 0.0
C1783 C 0.3516 0.40435 0.9125 0.0
C1784 C 0.35802 0.38192 0.90784 0.0
C1785 C 0.37131 0.3854 0.90844 0.0
C1786 C 0.37456 0.39866 0.91017 0.0
C1787 C 0.36482 0.40801 0.91227 0.0
H1788 H 0.60803 0.33889 0.9025 0.0
H1789 H 0.58578 0.37145 0.91754 0.0
H1790 H 0.62621 0.35356 0.89765 0.0
H1791 H 0.60402 0.386 0.91315 0.0
H1792 H 0.63693 0.41151 0.90144 0.0
H1793 H 0.6183 0.39692 0.89829 0.0
H1794 H 0.64185 0.36428 0.91115 0.0
H1795 H 0.66045 0.37875 0.91386 0.0
C1796 C 0.60695 0.34921 0.90458 0.0
C1797 C 0.59554 0.354 0.91052 0.0
C1798 C 0.6174 0.35761 0.90189 0.0
C1799 C 0.61668 0.37095 0.90516 0.0
C1800 C 0.60492 0.37584 0.91036 0.0
C1801 C 0.59446 0.36746 0.91297 0.0
C1802 C 0.63818 0.40116 0.90329 0.0
C1803 C 0.6501 0.39629 0.90803 0.0
C1804 C 0.62748 0.39281 0.90157 0.0
C1805 C 0.62849 0.37944 0.90462 0.0
C1806 C 0.6407 0.37448 0.90856 0.0
C1807 C 0.65138 0.3828 0.91021 0.0
H1808 H 0.58915 0.36767 0.09533 0.0
H1809 H 0.62253 0.34264 0.08897 0.0
H1810 H 0.6037 0.38639 0.09798 0.0
H1811 H 0.63703 0.36133 0.09122 0.0
H1812 H 0.66175 0.39623 0.09968 0.0
H1813 H 0.64651 0.37841 0.10427 0.0
H1814 H 0.61641 0.39876 0.0827 0.0
H1815 H 0.63148 0.41659 0.07846 0.0
C1816 C 0.59961 0.36613 0.09471 0.0
C1817 C 0.60469 0.35372 0.09181 0.0
C1818 C 0.60795 0.37687 0.09614 0.0
C1819 C 0.62155 0.37543 0.09463 0.0
C1820 C 0.62664 0.36283 0.09256 0.0
C1821 C 0.61831 0.35209 0.09119 0.0
C1822 C 0.6518 0.39698 0.09616 0.0
C1823 C 0.64784 0.40775 0.08862 0.0
C1824 C 0.64308 0.38674 0.09872 0.0
C1825 C 0.63024 0.38707 0.09377 0.0
C1826 C 0.62615 0.3982 0.08682 0.0
C1827 C 0.63483 0.40841 0.0843 0.0
H1828 H 0.63515 0.59123 0.10224 0.0
H1829 H 0.65889 0.62391 0.09003 0.0
H1830 H 0.61638 0.60579 0.10469 0.0
H1831 H 0.64014 0.63842 0.09236 0.0
H1832 H 0.60531 0.66325 0.10143 0.0
H1833 H 0.62348 0.64862 0.10675 0.0
H1834 H 0.60334 0.61681 0.08766 0.0
H1835 H 0.58525 0.63135 0.08245 0.0
C1836 C 0.63643 0.60157 0.10035 0.0
C1837 C 0.64845 0.60642 0.0958 0.0
C1838 C 0.62567 0.60989 0.1017 0.0
C1839 C 0.62674 0.62323 0.09859 0.0
C1840 C 0.63901 0.62822 0.09493 0.0
C1841 C 0.64975 0.61989 0.09352 0.0
C1842 C 0.60465 0.65305 0.09867 0.0
C1843 C 0.59392 0.64845 0.09144 0.0
C1844 C 0.61508 0.6447 0.10164 0.0
C1845 C 0.61489 0.63158 0.09755 0.0
C1846 C 0.60375 0.62682 0.09108 0.0
C1847 C 0.5934 0.63517 0.08802 0.0
H1848 H 0.36811 0.58772 0.08668 0.0
H1849 H 0.33515 0.61143 0.09816 0.0
H1850 H 0.38268 0.60609 0.09041 0.0
H1851 H 0.34979 0.62975 0.10243 0.0
H1852 H 0.37614 0.66272 0.0859 0.0
H1853 H 0.36137 0.64439 0.08882 0.0
H1854 H 0.39312 0.62126 0.10443 0.0
H1855 H 0.40803 0.63957 0.101 0.0
C1856 C 0.36402 0.59677 0.09036 0.0
C1857 C 0.35047 0.59819 0.09197 0.0
C1858 C 0.3724 0.60732 0.09258 0.0
C1859 C 0.36743 0.61951 0.09658 0.0
C1860 C 0.35394 0.62061 0.09907 0.0
C1861 C 0.34555 0.61009 0.09672 0.0
C1862 C 0.37992 0.6538 0.09018 0.0
C1863 C 0.39327 0.65253 0.09307 0.0
C1864 C 0.37142 0.64328 0.09194 0.0
C1865 C 0.37605 0.63125 0.09675 0.0
C1866 C 0.38927 0.63028 0.10045 0.0
C1867 C 0.3978 0.6408 0.09858 0.0
H1868 H 0.39531 0.33836 0.10268 0.0
H1869 H 0.41482 0.3668 0.07836 0.0
H1870 H 0.37834 0.35442 0.1078 0.0
H1871 H 0.39788 0.38273 0.08333 0.0
H1872 H 0.36915 0.41165 0.09778 0.0
H1873 H 0.38733 0.39634 0.09987 0.0
H1874 H 0.36068 0.36403 0.09465 0.0
H1875 H 0.3425 0.37931 0.09277 0.0
C1876 C 0.3961 0.34811 0.09863 0.0
C1877 C 0.40633 0.3513 0.09004 0.0
C1878 C 0.38635 0.35728 0.1015 0.0
C1879 C 0.38672 0.36984 0.09592 0.0
C1880 C 0.39737 0.37321 0.08792 0.0
C1881 C 0.40704 0.36404 0.085 0.0
C1882 C 0.36713 0.40126 0.0974 0.0
C1883 C 0.35442 0.39668 0.09496 0.0
C1884 C 0.37756 0.3925 0.09852 0.0
C1885 C 0.37549 0.37897 0.09725 0.0
C1886 C 0.36262 0.37437 0.09576 0.0
C1887 C 0.3522 0.38314 0.09462 0.0
H1888 H 0.89815 0.66093 0.60693 0.0
H1889 H 0.91841 0.631 0.58517 0.0
H1890 H 0.89389 0.64528 0.62444 0.0
H1891 H 0.91471 0.61557 0.60275 0.0
H1892 H 0.90413 0.58763 0.63375 0.0
H1893 H 0.90081 0.60243 0.61536 0.0
H1894 H 0.90645 0.63548 0.64108 0.0
H1895 H 0.90914 0.6207 0.65946 0.0
C1896 C 0.90154 0.65096 0.60582 0.0
C1897 C 0.9087 0.64722 0.59473 0.0
C1898 C 0.8992 0.64201 0.6159 0.0
C1899 C 0.90407 0.62915 0.61514 0.0
C1900 C 0.91063 0.62529 0.60368 0.0
C1901 C 0.91285 0.63419 0.59359 0.0
C1902 C 0.90437 0.59807 0.63549 0.0
C1903 C 0.90702 0.60301 0.64801 0.0
C1904 C 0.90256 0.60657 0.62494 0.0
C1905 C 0.90357 0.62019 0.62664 0.0
C1906 C 0.90546 0.62509 0.63935 0.0
C1907 C 0.90709 0.6166 0.64992 0.0
H1908 H 0.33854 0.90852 0.61403 0.0
H1909 H 0.36768 0.90649 0.58358 0.0
H1910 H 0.35546 0.90529 0.63046 0.0
H1911 H 0.3846 0.90292 0.6 0.0
H1912 H 0.41 0.92124 0.63285 0.0
H1913 H 0.39418 0.91782 0.61552 0.0
H1914 H 0.37227 0.8918 0.64054 0.0
H1915 H 0.38813 0.89546 0.65809 0.0
C1916 C 0.34852 0.90702 0.61082 0.0
C1917 C 0.35181 0.90794 0.59753 0.0
C1918 C 0.35822 0.90511 0.62025 0.0
C1919 C 0.37142 0.90403 0.61657 0.0
C1920 C 0.37456 0.90398 0.60318 0.0
C1921 C 0.36486 0.90594 0.59376 0.0
C1922 C 0.40193 0.91462 0.63461 0.0
C1923 C 0.40024 0.9087 0.64687 0.0
C1924 C 0.39289 0.91257 0.62462 0.0
C1925 C 0.38191 0.90455 0.62663 0.0
C1926 C 0.38055 0.89814 0.63872 0.0
C1927 C 0.38965 0.90017 0.64874 0.0
H1928 H 0.0942 0.41098 0.63137 0.0
H1929 H 0.08747 0.37853 0.65747 0.0
H1930 H 0.09774 0.39574 0.61335 0.0
H1931 H 0.09059 0.36334 0.63948 0.0
H1932 H 0.10007 0.3372 0.60617 0.0
H1933 H 0.10426 0.35332 0.62329 0.0
H1934 H 0.08322 0.38235 0.60093 0.0
H1935 H 0.0794 0.3664 0.58379 0.0
C1936 C 0.09368 0.40059 0.6333 0.0
C1937 C 0.09042 0.39596 0.6458 0.0
C1938 C 0.09562 0.39185 0.62296 0.0
C1939 C 0.09429 0.37829 0.62489 0.0
C1940 C 0.09183 0.37368 0.63761 0.0
C1941 C 0.08995 0.38241 0.64794 0.0
C1942 C 0.09663 0.34711 0.6048 0.0
C1943 C 0.0893 0.3505 0.5937 0.0
C1944 C 0.09894 0.35633 0.61465 0.0
C1945 C 0.09395 0.36912 0.61359 0.0
C1946 C 0.08734 0.37267 0.60207 0.0
C1947 C 0.08507 0.36348 0.59224 0.0
H1948 H 0.62423 0.08571 0.65859 0.0
H1949 H 0.59263 0.1005 0.63486 0.0
H1950 H 0.63916 0.08806 0.64029 0.0
H1951 H 0.60769 0.10334 0.61658 0.0
H1952 H 0.63277 0.0845 0.58369 0.0
H1953 H 0.61812 0.08874 0.60188 0.0
H1954 H 0.65092 0.10133 0.62536 0.0
H1955 H 0.66565 0.09659 0.60721 0.0
C1956 C 0.62055 0.0898 0.64954 0.0
C1957 C 0.60723 0.09278 0.64811 0.0
C1958 C 0.62914 0.09123 0.63903 0.0
C1959 C 0.62463 0.09578 0.62686 0.0
C1960 C 0.61145 0.09956 0.62572 0.0
C1961 C 0.60283 0.09803 0.63622 0.0
C1962 C 0.63683 0.08841 0.59265 0.0
C1963 C 0.65037 0.09006 0.59408 0.0
C1964 C 0.6284 0.09093 0.6031 0.0
C1965 C 0.63333 0.09525 0.61519 0.0
C1966 C 0.64681 0.09775 0.61629 0.0
C1967 C 0.65525 0.09512 0.60586 0.0
H1968 H 0.91429 0.37077 0.41238 0.0
H1969 H 0.8983 0.33816 0.39089 0.0
H1970 H 0.90925 0.38526 0.39425 0.0
H1971 H 0.89301 0.35277 0.37273 0.0
H1972 H 0.9098 0.37838 0.33843 0.0
H1973 H 0.90698 0.36368 0.35687 0.0
H1974 H 0.89305 0.39586 0.38041 0.0
H1975 H 0.8961 0.41066 0.36191 0.0
C1976 C 0.90942 0.36675 0.40388 0.0
C1977 C 0.90684 0.3533 0.40299 0.0
C1978 C 0.90643 0.37509 0.39351 0.0
C1979 C 0.9008 0.37017 0.38198 0.0
C1980 C 0.8975 0.35683 0.38141 0.0
C1981 C 0.90047 0.34848 0.39182 0.0
C1982 C 0.90584 0.38227 0.34744 0.0
C1983 C 0.90333 0.3957 0.34878 0.0
C1984 C 0.90414 0.37382 0.35802 0.0
C1985 C 0.89993 0.37862 0.37018 0.0
C1986 C 0.8965 0.3919 0.37122 0.0
C1987 C 0.89816 0.40036 0.3606 0.0
H1988 H 0.66519 0.90945 0.38703 0.0
H1989 H 0.63586 0.90916 0.41736 0.0
H1990 H 0.64825 0.90671 0.37056 0.0
H1991 H 0.61889 0.90602 0.4009 0.0
H1992 H 0.59374 0.92359 0.36767 0.0
H1993 H 0.6096 0.92051 0.38503 0.0
H1994 H 0.63125 0.89371 0.36058 0.0
H1995 H 0.61539 0.89709 0.34298 0.0
C1996 C 0.65515 0.90846 0.3902 0.0
C1997 C 0.65184 0.90969 0.40347 0.0
C1998 C 0.64542 0.90681 0.38075 0.0
C1999 C 0.63217 0.90631 0.38437 0.0
C2000 C 0.62897 0.90664 0.39775 0.0
C2001 C 0.6387 0.90835 0.40719 0.0
C2002 C 0.60179 0.9169 0.36604 0.0
C2003 C 0.60338 0.91066 0.35392 0.0
C2004 C 0.61085 0.91504 0.37605 0.0
C2005 C 0.62174 0.90686 0.37422 0.0
C2006 C 0.62306 0.90019 0.36226 0.0
C2007 C 0.61395 0.90207 0.3522 0.0
H2008 H 0.09994 0.64141 0.41356 0.0
H2009 H 0.0808 0.66618 0.38526 0.0
H2010 H 0.10462 0.62545 0.3964 0.0
H2011 H 0.08504 0.65018 0.36829 0.0
H2012 H 0.09739 0.62242 0.33778 0.0
H2013 H 0.10011 0.63903 0.35467 0.0
H2014 H 0.09195 0.61007 0.38432 0.0
H2015 H 0.08974 0.59345 0.36747 0.0
C2016 C 0.09688 0.64352 0.40365 0.0
C2017 C 0.08992 0.65499 0.40077 0.0
C2018 C 0.09948 0.63434 0.39383 0.0
C2019 C 0.09513 0.63645 0.38095 0.0
C2020 C 0.08873 0.64826 0.37801 0.0
C2021 C 0.08619 0.65742 0.38779 0.0
C2022 C 0.09648 0.61957 0.34793 0.0
C2023 C 0.09321 0.60668 0.3513 0.0
C2024 C 0.09794 0.6291 0.35761 0.0
C2025 C 0.09604 0.62597 0.37087 0.0
C2026 C 0.0936 0.61286 0.37425 0.0
C2027 C 0.09226 0.60332 0.36457 0.0
H2028 H 0.37707 0.08616 0.34214 0.0
H2029 H 0.40988 0.09639 0.36661 0.0
H2030 H 0.36233 0.08928 0.36052 0.0
H2031 H 0.39508 0.09992 0.38499 0.0
H2032 H 0.36774 0.08219 0.41676 0.0
H2033 H 0.38292 0.08556 0.39882 0.0
H2034 H 0.35212 0.10343 0.37609 0.0
H2035 H 0.3368 0.09966 0.39399 0.0
C2036 C 0.3811 0.08939 0.35138 0.0
C2037 C 0.39464 0.09089 0.35298 0.0
C2038 C 0.37263 0.09126 0.36193 0.0
C2039 C 0.37751 0.09475 0.3743 0.0
C2040 C 0.39101 0.09701 0.37566 0.0
C2041 C 0.39949 0.09507 0.36512 0.0
C2042 C 0.36426 0.08707 0.40803 0.0
C2043 C 0.35104 0.09052 0.40673 0.0
C2044 C 0.373 0.08908 0.39774 0.0
C2045 C 0.36873 0.09466 0.38592 0.0
C2046 C 0.35568 0.09889 0.38496 0.0
C2047 C 0.34692 0.09682 0.39525 0.0
H2048 H 0.58402 0.90599 0.63619 0.0
H2049 H 0.6138 0.91685 0.66401 0.0
H2050 H 0.60086 0.90129 0.61998 0.0
H2051 H 0.63059 0.91275 0.64774 0.0
H2052 H 0.65998 0.90132 0.61805 0.0
H2053 H 0.6427 0.89852 0.63426 0.0
H2054 H 0.61462 0.91418 0.60684 0.0
H2055 H 0.63173 0.91642 0.59059 0.0
C2056 C 0.59418 0.90723 0.63888 0.0
C2057 C 0.59759 0.9119 0.65132 0.0
C2058 C 0.60384 0.90463 0.62957 0.0
C2059 C 0.61713 0.90681 0.63244 0.0
C2060 C 0.62052 0.9108 0.64516 0.0
C2061 C 0.61087 0.91325 0.6545 0.0
C2062 C 0.65005 0.90388 0.61542 0.0
C2063 C 0.64723 0.90919 0.60309 0.0
C2064 C 0.64015 0.90237 0.62474 0.0
C2065 C 0.62725 0.90628 0.62197 0.0
C2066 C 0.62436 0.91091 0.60934 0.0
C2067 C 0.63422 0.91228 0.60001 0.0
H2068 H 0.65983 0.07914 0.37536 0.0
H2069 H 0.63838 0.099 0.40579 0.0
H2070 H 0.64163 0.08228 0.36041 0.0
H2071 H 0.62007 0.10226 0.39071 0.0
H2072 H 0.61034 0.0949 0.33323 0.0
H2073 H 0.6286 0.09821 0.34821 0.0
H2074 H 0.60392 0.08734 0.38067 0.0
H2075 H 0.58563 0.08421 0.36571 0.0
C2076 C 0.65129 0.08439 0.37879 0.0
C2077 C 0.6505 0.08875 0.39177 0.0
C2078 C 0.64088 0.08627 0.37018 0.0
C2079 C 0.62937 0.09251 0.37436 0.0
C2080 C 0.62876 0.09733 0.38723 0.0
C2081 C 0.63926 0.09553 0.39583 0.0
C2082 C 0.60874 0.0935 0.34359 0.0
C2083 C 0.59659 0.08916 0.34828 0.0
C2084 C 0.61922 0.09532 0.35217 0.0
C2085 C 0.61777 0.09287 0.36561 0.0
C2086 C 0.60536 0.08939 0.37039 0.0
C2087 C 0.59488 0.08754 0.36181 0.0
H2088 H 0.90068 0.60671 0.33857 0.0
H2089 H 0.9219 0.58557 0.36829 0.0
H2090 H 0.89656 0.62438 0.35409 0.0
H2091 H 0.91807 0.60326 0.38367 0.0
H2092 H 0.9128 0.65958 0.37827 0.0
H2093 H 0.91034 0.64104 0.36359 0.0
H2094 H 0.9029 0.61582 0.39663 0.0
H2095 H 0.90569 0.63439 0.41136 0.0
C2096 C 0.90428 0.60574 0.34848 0.0
C2097 C 0.91171 0.5948 0.35218 0.0
C2098 C 0.90199 0.6159 0.35735 0.0
C2099 C 0.90709 0.61532 0.3701 0.0
C2100 C 0.91387 0.60401 0.37399 0.0
C2101 C 0.91614 0.59387 0.36513 0.0
C2102 C 0.9104 0.65013 0.38239 0.0
C2103 C 0.90958 0.64841 0.39598 0.0
C2104 C 0.90891 0.63949 0.37395 0.0
C2105 C 0.90654 0.62689 0.37892 0.0
C2106 C 0.90494 0.62535 0.39249 0.0
C2107 C 0.90646 0.636 0.40093 0.0
H2108 H 0.39368 0.90342 0.33856 0.0
H2109 H 0.417 0.91743 0.37081 0.0
H2110 H 0.37555 0.89923 0.3535 0.0
H2111 H 0.39884 0.91369 0.38564 0.0
H2112 H 0.36595 0.90228 0.4116 0.0
H2113 H 0.38433 0.89919 0.39668 0.0
H2114 H 0.3605 0.91306 0.36467 0.0
H2115 H 0.34213 0.91572 0.37946 0.0
C2116 C 0.39499 0.90542 0.34887 0.0
C2117 C 0.40671 0.91086 0.3535 0.0
C2118 C 0.38458 0.90312 0.35742 0.0
C2119 C 0.38564 0.90628 0.37077 0.0
C2120 C 0.39767 0.911 0.37548 0.0
C2121 C 0.40809 0.91322 0.36695 0.0
C2122 C 0.3646 0.90441 0.40132 0.0
C2123 C 0.35264 0.90935 0.39672 0.0
C2124 C 0.37514 0.90272 0.39278 0.0
C2125 C 0.37397 0.906 0.37947 0.0
C2126 C 0.36177 0.91027 0.37479 0.0
C2127 C 0.35122 0.91189 0.38331 0.0
H2128 H 0.07747 0.41679 0.36709 0.0
H2129 H 0.09476 0.39399 0.33609 0.0
H2130 H 0.08159 0.39918 0.38244 0.0
H2131 H 0.09942 0.37646 0.35159 0.0
H2132 H 0.08417 0.3423 0.37716 0.0
H2133 H 0.08654 0.36056 0.36223 0.0
H2134 H 0.09597 0.38591 0.39469 0.0
H2135 H 0.09304 0.36761 0.40973 0.0
C2136 C 0.08247 0.40813 0.36363 0.0
C2137 C 0.08564 0.4067 0.35035 0.0
C2138 C 0.08493 0.39803 0.37247 0.0
C2139 C 0.09074 0.38628 0.36827 0.0
C2140 C 0.09469 0.38524 0.35513 0.0
C2141 C 0.09211 0.39531 0.34625 0.0
C2142 C 0.08697 0.35172 0.3811 0.0
C2143 C 0.08826 0.35356 0.39464 0.0
C2144 C 0.08843 0.36221 0.37251 0.0
C2145 C 0.09133 0.3748 0.37723 0.0
C2146 C 0.09347 0.37643 0.39072 0.0
C2147 C 0.09189 0.36593 0.39935 0.0
H2148 H 0.34187 0.08587 0.62477 0.0
H2149 H 0.36691 0.09343 0.59167 0.0
H2150 H 0.36049 0.08821 0.63942 0.0
H2151 H 0.38552 0.09607 0.60635 0.0
H2152 H 0.41581 0.07623 0.63381 0.0
H2153 H 0.39777 0.0802 0.6189 0.0
H2154 H 0.37759 0.1019 0.64898 0.0
H2155 H 0.39572 0.09772 0.66406 0.0
C2156 C 0.3513 0.08835 0.62065 0.0
C2157 C 0.35296 0.0893 0.60705 0.0
C2158 C 0.36197 0.08977 0.62906 0.0
C2159 C 0.37454 0.09218 0.62406 0.0
C2160 C 0.37601 0.09398 0.61051 0.0
C2161 C 0.36534 0.09255 0.60209 0.0
C2162 C 0.40762 0.08203 0.6372 0.0
C2163 C 0.40714 0.08658 0.65013 0.0
C2164 C 0.3973 0.08439 0.62861 0.0
C2165 C 0.38619 0.09135 0.63274 0.0
C2166 C 0.38595 0.0964 0.64553 0.0
C2167 C 0.39635 0.09408 0.65414 0.0
H2168 H 0.8989 0.36491 0.58972 0.0
H2169 H 0.91689 0.34157 0.61994 0.0
H2170 H 0.89555 0.38263 0.60543 0.0
H2171 H 0.9137 0.35923 0.63553 0.0
H2172 H 0.91467 0.41541 0.63162 0.0
H2173 H 0.91086 0.3977 0.61616 0.0
H2174 H 0.89831 0.37275 0.6478 0.0
H2175 H 0.90232 0.39043 0.6633 0.0
C2176 C 0.90191 0.36347 0.59977 0.0
C2177 C 0.90825 0.3519 0.60359 0.0
C2178 C 0.90006 0.37364 0.60874 0.0
C2179 C 0.90443 0.37238 0.62171 0.0
C2180 C 0.91008 0.36049 0.62566 0.0
C2181 C 0.91198 0.35038 0.6167 0.0
C2182 C 0.91081 0.40624 0.63524 0.0
C2183 C 0.90894 0.40426 0.64869 0.0
C2184 C 0.90857 0.3961 0.62636 0.0
C2185 C 0.90442 0.38375 0.63077 0.0
C2186 C 0.9017 0.38207 0.64413 0.0
C2187 C 0.90392 0.39223 0.653 0.0
H2188 H 0.0971 0.61049 0.663 0.0
H2189 H 0.08041 0.58714 0.63207 0.0
H2190 H 0.10136 0.62807 0.64742 0.0
H2191 H 0.08437 0.60473 0.6166 0.0
H2192 H 0.09686 0.6361 0.58931 0.0
H2193 H 0.09973 0.61815 0.60476 0.0
H2194 H 0.08724 0.64338 0.63624 0.0
H2195 H 0.08468 0.66133 0.62086 0.0
C2196 C 0.09455 0.60903 0.65284 0.0
C2197 C 0.08832 0.59748 0.64878 0.0
C2198 C 0.0969 0.61913 0.64393 0.0
C2199 C 0.09309 0.61788 0.63078 0.0
C2200 C 0.08757 0.606 0.62661 0.0
C2201 C 0.08522 0.59592 0.6355 0.0
C2202 C 0.095 0.63787 0.59957 0.0
C2203 C 0.09043 0.65009 0.60386 0.0
C2204 C 0.09656 0.62756 0.60842 0.0
C2205 C 0.09358 0.62926 0.62173 0.0
C2206 C 0.08976 0.64173 0.62609 0.0
C2207 C 0.08821 0.65202 0.61726 0.0
H2208 H 0.10605 0.21888 0.42131 0.0
H2209 H 0.06791 0.22013 0.40332 0.0
H2210 H 0.10834 0.2424 0.41814 0.0
H2211 H 0.06986 0.24363 0.40067 0.0
H2212 H 0.07677 0.2854 0.39257 0.0
H2213 H 0.07957 0.26182 0.39066 0.0
H2214 H 0.09962 0.26132 0.42786 0.0
H2215 H 0.09735 0.28493 0.42938 0.0
C2216 C 0.09821 0.22418 0.41657 0.0
C2217 C 0.08676 0.2177 0.41265 0.0
C2218 C 0.09947 0.23767 0.41483 0.0
C2219 C 0.08924 0.245 0.40928 0.0
C2220 C 0.07805 0.23835 0.40481 0.0
C2221 C 0.07686 0.22485 0.40641 0.0
C2222 C 0.08203 0.28025 0.40018 0.0
C2223 C 0.08674 0.28696 0.41118 0.0
C2224 C 0.08354 0.26672 0.39915 0.0
C2225 C 0.08962 0.25957 0.4092 0.0
C2226 C 0.095 0.26645 0.41984 0.0
C2227 C 0.09365 0.28001 0.42077 0.0
H2228 H 0.78321 0.10863 0.42294 0.0
H2229 H 0.78223 0.07371 0.39938 0.0
H2230 H 0.75987 0.11175 0.41947 0.0
H2231 H 0.75875 0.07618 0.39659 0.0
H2232 H 0.71675 0.08331 0.39008 0.0
H2233 H 0.74034 0.08623 0.38841 0.0
H2234 H 0.74075 0.10303 0.42722 0.0
H2235 H 0.71719 0.10087 0.42839 0.0
C2236 C 0.77796 0.10166 0.41695 0.0
C2237 C 0.78447 0.09089 0.41149 0.0
C2238 C 0.76454 0.10336 0.41504 0.0
C2239 C 0.75723 0.09411 0.40793 0.0
C2240 C 0.76396 0.08365 0.40198 0.0
C2241 C 0.77744 0.08214 0.40363 0.0
C2242 C 0.7219 0.08796 0.39807 0.0
C2243 C 0.71517 0.09181 0.40938 0.0
C2244 C 0.73546 0.0895 0.39721 0.0
C2245 C 0.74263 0.09464 0.40777 0.0
C2246 C 0.73569 0.09918 0.41877 0.0
C2247 C 0.72211 0.09791 0.4195 0.0
H2248 H 0.89519 0.78432 0.42539 0.0
H2249 H 0.92706 0.78238 0.39785 0.0
H2250 H 0.89229 0.76074 0.42377 0.0
H2251 H 0.92473 0.75875 0.39673 0.0
H2252 H 0.91641 0.71618 0.39323 0.0
H2253 H 0.91357 0.73974 0.39085 0.0
H2254 H 0.90312 0.74244 0.43171 0.0
H2255 H 0.90531 0.71893 0.43382 0.0
C2256 C 0.90149 0.77883 0.41888 0.0
C2257 C 0.9114 0.78515 0.41181 0.0
C2258 C 0.89993 0.76529 0.41803 0.0
C2259 C 0.90842 0.75771 0.4103 0.0
C2260 C 0.91788 0.76419 0.40268 0.0
C2261 C 0.91928 0.77777 0.40336 0.0
C2262 C 0.91325 0.72182 0.40161 0.0
C2263 C 0.91113 0.71573 0.41373 0.0
C2264 C 0.91173 0.73536 0.40029 0.0
C2265 C 0.90825 0.74313 0.41111 0.0
C2266 C 0.90561 0.73687 0.42308 0.0
C2267 C 0.90694 0.72334 0.42434 0.0
H2268 H 0.22101 0.91454 0.43907 0.0
H2269 H 0.216 0.91561 0.39718 0.0
H2270 H 0.24437 0.91149 0.4363 0.0
H2271 H 0.23962 0.91245 0.39437 0.0
H2272 H 0.28322 0.92743 0.3992 0.0
H2273 H 0.25944 0.92587 0.39876 0.0
H2274 H 0.26089 0.89593 0.42848 0.0
H2275 H 0.28469 0.89763 0.42906 0.0
C2276 C 0.2249 0.91401 0.42924 0.0
C2277 C 0.21668 0.91539 0.41834 0.0
C2278 C 0.2383 0.91213 0.42766 0.0
C2279 C 0.24385 0.91165 0.41512 0.0
C2280 C 0.23561 0.91283 0.40416 0.0
C2281 C 0.22212 0.91461 0.40576 0.0
C2282 C 0.27848 0.92032 0.40545 0.0
C2283 C 0.2858 0.91277 0.41429 0.0
C2284 C 0.26485 0.91938 0.40515 0.0
C2285 C 0.25828 0.9109 0.41371 0.0
C2286 C 0.26568 0.90272 0.42192 0.0
C2287 C 0.27931 0.90363 0.4222 0.0
H2288 H 0.06482 0.71982 0.59424 0.0
H2289 H 0.10375 0.71652 0.57829 0.0
H2290 H 0.06753 0.74336 0.59618 0.0
H2291 H 0.10653 0.74021 0.58034 0.0
H2292 H 0.09523 0.78257 0.56659 0.0
H2293 H 0.09665 0.75891 0.56866 0.0
H2294 H 0.07942 0.76123 0.60711 0.0
H2295 H 0.07788 0.78499 0.60497 0.0
C2296 C 0.07405 0.72412 0.59134 0.0
C2297 C 0.08404 0.71635 0.58601 0.0
C2298 C 0.07564 0.73761 0.59255 0.0
C2299 C 0.08723 0.74367 0.58838 0.0
C2300 C 0.09744 0.73583 0.58352 0.0
C2301 C 0.09588 0.72228 0.58241 0.0
C2302 C 0.09194 0.77806 0.57558 0.0
C2303 C 0.08633 0.78562 0.58557 0.0
C2304 C 0.09284 0.76449 0.5768 0.0
C2305 C 0.08808 0.75817 0.58802 0.0
C2306 C 0.08303 0.76581 0.59829 0.0
C2307 C 0.08221 0.77941 0.59709 0.0
H2308 H 0.21755 0.10559 0.57945 0.0
H2309 H 0.21877 0.06831 0.59912 0.0
H2310 H 0.24109 0.10793 0.58236 0.0
H2311 H 0.24232 0.07026 0.60149 0.0
H2312 H 0.28436 0.0776 0.60892 0.0
H2313 H 0.26074 0.08013 0.61078 0.0
H2314 H 0.25992 0.09896 0.57295 0.0
H2315 H 0.28354 0.09698 0.57147 0.0
C2316 C 0.22286 0.09795 0.58451 0.0
C2317 C 0.21635 0.08673 0.58899 0.0
C2318 C 0.23637 0.09923 0.58609 0.0
C2319 C 0.24372 0.08921 0.59201 0.0
C2320 C 0.23705 0.07827 0.59703 0.0
C2321 C 0.22351 0.0771 0.59562 0.0
C2322 C 0.27913 0.08252 0.60114 0.0
C2323 C 0.28577 0.08702 0.59002 0.0
C2324 C 0.26557 0.08388 0.60215 0.0
C2325 C 0.25831 0.08958 0.59194 0.0
C2326 C 0.26511 0.09465 0.5811 0.0
C2327 C 0.27869 0.09347 0.5802 0.0
H2328 H 0.92353 0.28242 0.55786 0.0
H2329 H 0.90892 0.2858 0.5973 0.0
H2330 H 0.92407 0.25879 0.56001 0.0
H2331 H 0.90975 0.26195 0.59959 0.0
H2332 H 0.90314 0.21691 0.59259 0.0
H2333 H 0.90069 0.24076 0.59182 0.0
H2334 H 0.93783 0.24375 0.57196 0.0
H2335 H 0.9401 0.22014 0.57249 0.0
C2336 C 0.92035 0.27809 0.56699 0.0
C2337 C 0.91628 0.28596 0.57745 0.0
C2338 C 0.92076 0.26454 0.56826 0.0
C2339 C 0.91722 0.25849 0.58007 0.0
C2340 C 0.91255 0.26631 0.59037 0.0
C2341 C 0.91208 0.27996 0.58906 0.0
C2342 C 0.91082 0.22272 0.5882 0.0
C2343 C 0.92175 0.21667 0.58249 0.0
C2344 C 0.90943 0.23636 0.58777 0.0
C2345 C 0.91895 0.24413 0.58161 0.0
C2346 C 0.93014 0.23804 0.57647 0.0
C2347 C 0.9315 0.2245 0.57686 0.0
H2348 H 0.78415 0.92498 0.60672 0.0
H2349 H 0.78122 0.89871 0.57383 0.0
H2350 H 0.76047 0.92397 0.60958 0.0
H2351 H 0.75765 0.89806 0.57633 0.0
H2352 H 0.71513 0.89508 0.58519 0.0
H2353 H 0.73864 0.89204 0.58822 0.0
H2354 H 0.74256 0.93298 0.59789 0.0
H2355 H 0.71916 0.93584 0.59532 0.0
C2356 C 0.77847 0.91885 0.60023 0.0
C2357 C 0.78453 0.91203 0.58998 0.0
C2358 C 0.76489 0.91834 0.60179 0.0
C2359 C 0.75708 0.91108 0.59308 0.0
C2360 C 0.76329 0.90366 0.58332 0.0
C2361 C 0.77684 0.9041 0.58182 0.0
C2362 C 0.72102 0.90335 0.58819 0.0
C2363 C 0.71533 0.91571 0.58991 0.0
C2364 C 0.7345 0.90164 0.58986 0.0
C2365 C 0.74256 0.91228 0.59321 0.0
C2366 C 0.7367 0.9245 0.5955 0.0
C2367 C 0.72326 0.92618 0.5939 0.0
H2368 H 0.41947 0.10559 0.28644 0.0
H2369 H 0.40273 0.06715 0.28165 0.0
H2370 H 0.41779 0.10919 0.26286 0.0
H2371 H 0.40142 0.07052 0.25824 0.0
H2372 H 0.3951 0.08034 0.21656 0.0
H2373 H 0.39187 0.08163 0.24018 0.0
H2374 H 0.42915 0.10109 0.24412 0.0
H2375 H 0.43211 0.10019 0.22059 0.0
C2376 C 0.4153 0.09798 0.28037 0.0
C2377 C 0.41133 0.08606 0.28588 0.0
C2378 C 0.4144 0.1 0.26686 0.0
C2379 C 0.40955 0.09011 0.2586 0.0
C2380 C 0.40504 0.07844 0.26426 0.0
C2381 C 0.40589 0.07645 0.27771 0.0
C2382 C 0.40246 0.08511 0.22247 0.0
C2383 C 0.41391 0.09004 0.21675 0.0
C2384 C 0.40066 0.08579 0.23601 0.0
C2385 C 0.41033 0.09132 0.24411 0.0
C2386 C 0.42143 0.09689 0.23824 0.0
C2387 C 0.42318 0.09628 0.22472 0.0
H2388 H 0.89717 0.43106 0.21457 0.0
H2389 H 0.92419 0.39873 0.21668 0.0
H2390 H 0.89403 0.43005 0.23814 0.0
H2391 H 0.92143 0.39798 0.24038 0.0
H2392 H 0.91007 0.39633 0.28315 0.0
H2393 H 0.90783 0.39425 0.25942 0.0
H2394 H 0.90773 0.43634 0.25591 0.0
H2395 H 0.90965 0.43837 0.27945 0.0
C2396 C 0.90231 0.42362 0.22007 0.0
C2397 C 0.91103 0.41506 0.21382 0.0
C2398 C 0.90059 0.42309 0.23359 0.0
C2399 C 0.90767 0.4141 0.24121 0.0
C2400 C 0.91576 0.40498 0.23483 0.0
C2401 C 0.91739 0.40543 0.22125 0.0
C2402 C 0.90934 0.40511 0.27729 0.0
C2403 C 0.91007 0.41751 0.28315 0.0
C2404 C 0.90815 0.40393 0.2637 0.0
C2405 C 0.90761 0.41512 0.25573 0.0
C2406 C 0.9079 0.4275 0.26171 0.0
C2407 C 0.9091 0.42867 0.27524 0.0
H2408 H 0.58656 0.89262 0.28554 0.0
H2409 H 0.59997 0.93244 0.28163 0.0
H2410 H 0.58933 0.88941 0.26205 0.0
H2411 H 0.60239 0.92939 0.25821 0.0
H2412 H 0.60927 0.92074 0.21618 0.0
H2413 H 0.61287 0.91921 0.23978 0.0
H2414 H 0.57706 0.89716 0.24368 0.0
H2415 H 0.5737 0.89842 0.22025 0.0
C2416 C 0.5903 0.90061 0.2797 0.0
C2417 C 0.59291 0.91282 0.28541 0.0
C2418 C 0.59182 0.89881 0.26623 0.0
C2419 C 0.59593 0.90919 0.25818 0.0
C2420 C 0.59932 0.92113 0.26407 0.0
C2421 C 0.59784 0.92292 0.27752 0.0
C2422 C 0.60236 0.91531 0.22208 0.0
C2423 C 0.59114 0.90981 0.21639 0.0
C2424 C 0.60436 0.91451 0.2356 0.0
C2425 C 0.59519 0.90817 0.24368 0.0
C2426 C 0.58441 0.90199 0.2378 0.0
C2427 C 0.58243 0.9028 0.22434 0.0
H2428 H 0.06861 0.59697 0.21799 0.0
H2429 H 0.10626 0.57802 0.21636 0.0
H2430 H 0.07077 0.59932 0.24155 0.0
H2431 H 0.10877 0.58087 0.23988 0.0
H2432 H 0.09857 0.56987 0.28243 0.0
H2433 H 0.09998 0.57121 0.25876 0.0
H2434 H 0.08097 0.60896 0.25978 0.0
H2435 H 0.07907 0.60727 0.28348 0.0
C2436 C 0.0775 0.5936 0.22264 0.0
C2437 C 0.08721 0.5872 0.21537 0.0
C2438 C 0.0788 0.59501 0.23617 0.0
C2439 C 0.08991 0.59018 0.24271 0.0
C2440 C 0.09995 0.58445 0.23525 0.0
C2441 C 0.09857 0.5829 0.22175 0.0
C2442 C 0.09489 0.57855 0.27761 0.0
C2443 C 0.08861 0.58841 0.28479 0.0
C2444 C 0.09575 0.57937 0.26401 0.0
C2445 C 0.09048 0.59016 0.25727 0.0
C2446 C 0.08488 0.60038 0.26458 0.0
C2447 C 0.08388 0.59947 0.27818 0.0
H2448 H 0.39639 0.92954 0.78081 0.0
H2449 H 0.41248 0.89064 0.78308 0.0
H2450 H 0.39495 0.92766 0.75722 0.0
H2451 H 0.4102 0.88826 0.75949 0.0
H2452 H 0.42533 0.89748 0.71825 0.0
H2453 H 0.42139 0.89544 0.7415 0.0
H2454 H 0.38698 0.91979 0.73777 0.0
H2455 H 0.39158 0.92249 0.71455 0.0
C2456 C 0.39917 0.92038 0.77627 0.0
C2457 C 0.40469 0.91029 0.78373 0.0
C2458 C 0.3983 0.91925 0.76268 0.0
C2459 C 0.40267 0.90786 0.75627 0.0
C2460 C 0.40713 0.89734 0.76396 0.0
C2461 C 0.4083 0.89862 0.77751 0.0
C2462 C 0.4168 0.90221 0.72237 0.0
C2463 C 0.40885 0.91025 0.71463 0.0
C2464 C 0.41445 0.90098 0.73576 0.0
C2465 C 0.4039 0.90756 0.74171 0.0
C2466 C 0.3954 0.91485 0.73369 0.0
C2467 C 0.39795 0.91631 0.72034 0.0
H2468 H 0.09217 0.43848 0.77711 0.0
H2469 H 0.08388 0.39743 0.78234 0.0
H2470 H 0.09384 0.43524 0.75367 0.0
H2471 H 0.08579 0.3941 0.75871 0.0
H2472 H 0.06975 0.4004 0.71621 0.0
H2473 H 0.07264 0.40013 0.73981 0.0
H2474 H 0.10616 0.42551 0.736 0.0
H2475 H 0.10307 0.42601 0.71234 0.0
C2476 C 0.09089 0.4287 0.77325 0.0
C2477 C 0.08779 0.41822 0.78156 0.0
C2478 C 0.09197 0.42682 0.7598 0.0
C2479 C 0.08996 0.41441 0.75429 0.0
C2480 C 0.08728 0.40381 0.76264 0.0
C2481 C 0.08624 0.40569 0.77617 0.0
C2482 C 0.07788 0.40574 0.72039 0.0
C2483 C 0.08609 0.41336 0.71244 0.0
C2484 C 0.07959 0.40552 0.73393 0.0
C2485 C 0.08955 0.41291 0.73983 0.0
C2486 C 0.09825 0.41989 0.73178 0.0
C2487 C 0.09654 0.42012 0.71822 0.0
H2488 H 0.57183 0.10329 0.71564 0.0
H2489 H 0.60382 0.0758 0.71749 0.0
H2490 H 0.57211 0.10519 0.73941 0.0
H2491 H 0.60402 0.07762 0.74129 0.0
H2492 H 0.60473 0.0896 0.78465 0.0
H2493 H 0.60733 0.09216 0.76092 0.0
H2494 H 0.56552 0.08896 0.7561 0.0
H2495 H 0.56295 0.08643 0.77955 0.0
C2496 C 0.57907 0.09783 0.7211 0.0
C2497 C 0.58771 0.08929 0.71472 0.0
C2498 C 0.57919 0.09888 0.73472 0.0
C2499 C 0.58798 0.09143 0.74222 0.0
C2500 C 0.59718 0.08353 0.73578 0.0
C2501 C 0.59702 0.08245 0.72215 0.0
C2502 C 0.59613 0.08956 0.77848 0.0
C2503 C 0.58365 0.08776 0.78393 0.0
C2504 C 0.59761 0.09099 0.76493 0.0
C2505 C 0.58662 0.09085 0.75666 0.0
C2506 C 0.57416 0.08934 0.76221 0.0
C2507 C 0.5727 0.08777 0.77566 0.0
H2508 H 0.89378 0.58234 0.71547 0.0
H2509 H 0.93289 0.59764 0.71961 0.0
H2510 H 0.89067 0.58402 0.73911 0.0
H2511 H 0.92988 0.59914 0.74314 0.0
H2512 H 0.92015 0.60522 0.78529 0.0
H2513 H 0.91843 0.60904 0.76172 0.0
H2514 H 0.90002 0.57134 0.75704 0.0
H2515 H 0.90159 0.56764 0.78044 0.0
C2516 C 0.90162 0.58627 0.72139 0.0
C2517 C 0.91362 0.58972 0.71572 0.0
C2518 C 0.89986 0.58718 0.73493 0.0
C2519 C 0.91006 0.59161 0.74303 0.0
C2520 C 0.92177 0.59581 0.73721 0.0
C2521 C 0.92354 0.59485 0.72371 0.0
C2522 C 0.91549 0.5979 0.77923 0.0
C2523 C 0.91112 0.58609 0.78467 0.0
C2524 C 0.91456 0.60005 0.76574 0.0
C2525 C 0.90916 0.59046 0.75749 0.0
C2526 C 0.9041 0.579 0.7631 0.0
C2527 C 0.9051 0.57683 0.77652 0.0
H2528 H 0.22114 0.40432 0.06476 0.0
H2529 H 0.2185 0.41664 0.10499 0.0
H2530 H 0.24477 0.40309 0.06661 0.0
H2531 H 0.24216 0.41472 0.10717 0.0
H2532 H 0.28448 0.42844 0.10024 0.0
H2533 H 0.26083 0.42608 0.10094 0.0
H2534 H 0.26342 0.39306 0.07465 0.0
H2535 H 0.28702 0.396 0.07342 0.0
C2536 C 0.22562 0.40643 0.07412 0.0
C2537 C 0.218 0.41067 0.0847 0.0
C2538 C 0.23921 0.40566 0.07523 0.0
C2539 C 0.24551 0.4089 0.08704 0.0
C2540 C 0.23775 0.41245 0.09784 0.0
C2541 C 0.22416 0.41344 0.09664 0.0
C2542 C 0.27998 0.42058 0.09476 0.0
C2543 C 0.28756 0.41248 0.08669 0.0
C2544 C 0.26639 0.41915 0.0952 0.0
C2545 C 0.26008 0.40944 0.08774 0.0
C2546 C 0.26783 0.40087 0.08026 0.0
C2547 C 0.28139 0.40247 0.07964 0.0
H2548 H 0.21867 0.56472 0.90703 0.0
H2549 H 0.2149 0.60427 0.92127 0.0
H2550 H 0.24231 0.56726 0.90603 0.0
H2551 H 0.23865 0.60687 0.92017 0.0
H2552 H 0.28018 0.59626 0.93636 0.0
H2553 H 0.25663 0.59735 0.93317 0.0
H2554 H 0.26082 0.57872 0.89553 0.0
H2555 H 0.28451 0.57755 0.89878 0.0
C2556 C 0.22289 0.57404 0.90974 0.0
C2557 C 0.21494 0.58426 0.91433 0.0
C2558 C 0.23644 0.57553 0.90908 0.0
C2559 C 0.24237 0.58725 0.91308 0.0
C2560 C 0.23437 0.59767 0.91715 0.0
C2561 C 0.22078 0.59621 0.91772 0.0
C2562 C 0.2761 0.59257 0.92731 0.0
C2563 C 0.28417 0.58673 0.91786 0.0
C2564 C 0.26261 0.59328 0.92544 0.0
C2565 C 0.25684 0.58808 0.91412 0.0
C2566 C 0.26497 0.5827 0.90442 0.0
C2567 C 0.27852 0.58209 0.90624 0.0
H2568 H 0.41542 0.2163 0.89293 0.0
H2569 H 0.40545 0.21851 0.93385 0.0
H2570 H 0.41247 0.2399 0.89093 0.0
H2571 H 0.40313 0.24205 0.93209 0.0
H2572 H 0.39456 0.28391 0.92639 0.0
H2573 H 0.39183 0.26032 0.92455 0.0
H2574 H 0.42372 0.25892 0.89685 0.0
H2575 H 0.42591 0.28254 0.89823 0.0
C2576 C 0.41249 0.22183 0.90147 0.0
C2577 C 0.41072 0.21557 0.91356 0.0
C2578 C 0.4109 0.23538 0.90037 0.0
C2579 C 0.40767 0.243 0.91137 0.0
C2580 C 0.40541 0.23658 0.92333 0.0
C2581 C 0.40683 0.22304 0.92438 0.0
C2582 C 0.40077 0.27857 0.91969 0.0
C2583 C 0.4105 0.28505 0.91252 0.0
C2584 C 0.3993 0.26501 0.91872 0.0
C2585 C 0.4077 0.25759 0.91073 0.0
C2586 C 0.41696 0.26423 0.90301 0.0
C2587 C 0.41827 0.27782 0.90383 0.0
H2588 H 0.7835 0.39717 0.92731 0.0
H2589 H 0.78527 0.42416 0.89496 0.0
H2590 H 0.75975 0.39664 0.92557 0.0
H2591 H 0.7616 0.42318 0.89274 0.0
H2592 H 0.72048 0.43447 0.90667 0.0
H2593 H 0.74394 0.43187 0.90444 0.0
H2594 H 0.7404 0.39092 0.91429 0.0
H2595 H 0.71686 0.39374 0.91705 0.0
C2596 C 0.77882 0.4027 0.91959 0.0
C2597 C 0.78619 0.41082 0.91137 0.0
C2598 C 0.76519 0.40237 0.91854 0.0
C2599 C 0.75868 0.41002 0.90912 0.0
C2600 C 0.76621 0.41743 0.90034 0.0
C2601 C 0.7798 0.41792 0.90153 0.0
C2602 C 0.72468 0.42487 0.90819 0.0
C2603 C 0.71685 0.41434 0.91212 0.0
C2604 C 0.73817 0.42334 0.90682 0.0
C2605 C 0.74415 0.41118 0.90922 0.0
C2606 C 0.73619 0.40048 0.91258 0.0
C2607 C 0.72268 0.40206 0.91407 0.0
H2608 H 0.60261 0.78789 0.91444 0.0
H2609 H 0.56077 0.78248 0.91575 0.0
H2610 H 0.60551 0.76428 0.91159 0.0
H2611 H 0.56364 0.75906 0.91303 0.0
H2612 H 0.57106 0.71854 0.89891 0.0
H2613 H 0.57072 0.74236 0.89739 0.0
H2614 H 0.60233 0.74458 0.92527 0.0
H2615 H 0.60279 0.7208 0.92665 0.0
C2616 C 0.59405 0.78168 0.91405 0.0
C2617 C 0.58147 0.78702 0.91538 0.0
C2618 C 0.59571 0.76817 0.91245 0.0
C2619 C 0.58481 0.7598 0.91203 0.0
C2620 C 0.57224 0.76524 0.91309 0.0
C2621 C 0.5706 0.77867 0.91477 0.0
C2622 C 0.57811 0.72411 0.90451 0.0
C2623 C 0.58687 0.71781 0.91299 0.0
C2624 C 0.57786 0.73775 0.90371 0.0
C2625 C 0.58639 0.74537 0.91134 0.0
C2626 C 0.59568 0.73901 0.91921 0.0
C2627 C 0.5959 0.72538 0.92004 0.0
H2628 H 0.71835 0.59791 0.06878 0.0
H2629 H 0.715 0.58535 0.10892 0.0
H2630 H 0.74185 0.60017 0.07138 0.0
H2631 H 0.73862 0.58785 0.11163 0.0
H2632 H 0.78079 0.5729 0.10214 0.0
H2633 H 0.75722 0.57555 0.1035 0.0
H2634 H 0.75997 0.61156 0.08162 0.0
H2635 H 0.78365 0.60873 0.08004 0.0
C2636 C 0.72262 0.59587 0.07825 0.0
C2637 C 0.71485 0.59132 0.08861 0.0
C2638 C 0.7361 0.59727 0.07978 0.0
C2639 C 0.74216 0.59414 0.0917 0.0
C2640 C 0.73428 0.59019 0.10227 0.0
C2641 C 0.72075 0.58882 0.10074 0.0
C2642 C 0.7764 0.58151 0.09781 0.0
C2643 C 0.78406 0.59054 0.09086 0.0
C2644 C 0.76287 0.58308 0.09867 0.0
C2645 C 0.75667 0.59372 0.09259 0.0
C2646 C 0.76443 0.60315 0.08626 0.0
C2647 C 0.778 0.60159 0.08542 0.0
H2648 H 0.42249 0.719 0.10603 0.0
H2649 H 0.40089 0.72263 0.06996 0.0
H2650 H 0.42201 0.74276 0.10865 0.0
H2651 H 0.40071 0.74623 0.07234 0.0
H2652 H 0.39712 0.78867 0.08136 0.0
H2653 H 0.39336 0.76522 0.08392 0.0
H2654 H 0.43298 0.76047 0.09781 0.0
H2655 H 0.43656 0.78384 0.09559 0.0
C2656 C 0.41748 0.72485 0.09877 0.0
C2657 C 0.41183 0.71897 0.08774 0.0
C2658 C 0.41728 0.73846 0.10021 0.0
C2659 C 0.41142 0.74644 0.09064 0.0
C2660 C 0.40517 0.74044 0.07999 0.0
C2661 C 0.40536 0.72688 0.07857 0.0
C2662 C 0.40493 0.78262 0.08516 0.0
C2663 C 0.41716 0.78807 0.08816 0.0
C2664 C 0.40281 0.76918 0.08658 0.0
C2665 C 0.4129 0.76092 0.09098 0.0
C2666 C 0.42493 0.76652 0.09455 0.0
C2667 C 0.42702 0.77993 0.09317 0.0
H2668 H 0.58166 0.21785 0.1069 0.0
H2669 H 0.59814 0.21986 0.06813 0.0
H2670 H 0.58431 0.24142 0.10928 0.0
H2671 H 0.60029 0.24342 0.07022 0.0
H2672 H 0.60798 0.28534 0.07763 0.0
H2673 H 0.61031 0.26173 0.07982 0.0
H2674 H 0.57383 0.26025 0.1011 0.0
H2675 H 0.57187 0.28389 0.09938 0.0
C2676 C 0.58597 0.22332 0.09894 0.0
C2677 C 0.58962 0.21703 0.0873 0.0
C2678 C 0.5874 0.23686 0.10026 0.0
C2679 C 0.59238 0.24442 0.0899 0.0
C2680 C 0.59658 0.23797 0.07849 0.0
C2681 C 0.59528 0.22443 0.07724 0.0
C2682 C 0.60061 0.27997 0.08301 0.0
C2683 C 0.5897 0.28643 0.08825 0.0
C2684 C 0.60188 0.26642 0.08418 0.0
C2685 C 0.59216 0.25899 0.09046 0.0
C2686 C 0.5816 0.2656 0.09631 0.0
C2687 C 0.58042 0.27918 0.09528 0.0
H2688 H 0.90234 0.78383 0.57232 0.0
H2689 H 0.94091 0.77958 0.58891 0.0
H2690 H 0.89927 0.7602 0.57341 0.0
H2691 H 0.93806 0.75598 0.5896 0.0
H2692 H 0.92756 0.71413 0.59651 0.0
H2693 H 0.92711 0.73782 0.59916 0.0
H2694 H 0.90725 0.74151 0.56206 0.0
H2695 H 0.90732 0.71785 0.55967 0.0
C2696 C 0.91012 0.77785 0.57629 0.0
C2697 C 0.92189 0.78354 0.58048 0.0
C2698 C 0.9084 0.76429 0.57683 0.0
C2699 C 0.91844 0.75613 0.5815 0.0
C2700 C 0.93003 0.76193 0.58612 0.0
C2701 C 0.93171 0.77548 0.58565 0.0
C2702 C 0.92291 0.72001 0.58904 0.0
C2703 C 0.91753 0.71414 0.57786 0.0
C2704 C 0.92273 0.7336 0.5905 0.0
C2705 C 0.91726 0.74163 0.58076 0.0
C2706 C 0.91141 0.73567 0.56984 0.0
C2707 C 0.91151 0.72208 0.56842 0.0
H2708 H 0.21766 0.9297 0.59786 0.0
H2709 H 0.21819 0.90594 0.56298 0.0
H2710 H 0.2415 0.92851 0.59899 0.0
H2711 H 0.24198 0.90479 0.56409 0.0
H2712 H 0.28505 0.89908 0.57459 0.0
H2713 H 0.26132 0.89698 0.57715 0.0
H2714 H 0.2585 0.93844 0.58454 0.0
H2715 H 0.28206 0.94052 0.58199 0.0
C2716 C 0.22284 0.92403 0.59058 0.0
C2717 C 0.21608 0.918 0.58028 0.0
C2718 C 0.23648 0.92341 0.59119 0.0
C2719 C 0.2436 0.91665 0.58157 0.0
C2720 C 0.23677 0.90999 0.5717 0.0
C2721 C 0.22314 0.91071 0.57103 0.0
C2722 C 0.27935 0.90769 0.57688 0.0
C2723 C 0.28538 0.91997 0.57802 0.0
C2724 C 0.26578 0.9065 0.57831 0.0
C2725 C 0.25807 0.91754 0.58109 0.0
C2726 C 0.2642 0.92972 0.58259 0.0
C2727 C 0.27768 0.93094 0.58101 0.0
H2728 H 0.09361 0.21267 0.58656 0.0
H2729 H 0.05349 0.21765 0.57438 0.0
H2730 H 0.09601 0.23649 0.58816 0.0
H2731 H 0.05588 0.24124 0.57598 0.0
H2732 H 0.05952 0.28181 0.5914 0.0
H2733 H 0.05921 0.2581 0.59321 0.0
H2734 H 0.09589 0.25593 0.57248 0.0
H2735 H 0.09626 0.27982 0.57071 0.0
C2736 C 0.0853 0.21884 0.58431 0.0
C2737 C 0.07336 0.21332 0.58036 0.0
C2738 C 0.0867 0.23244 0.58517 0.0
C2739 C 0.07611 0.24072 0.58227 0.0
C2740 C 0.06416 0.23513 0.57847 0.0
C2741 C 0.06281 0.2216 0.57748 0.0
C2742 C 0.06764 0.27631 0.5874 0.0
C2743 C 0.07785 0.28267 0.58079 0.0
C2744 C 0.06742 0.26272 0.58839 0.0
C2745 C 0.07742 0.25516 0.58282 0.0
C2746 C 0.08806 0.26153 0.57689 0.0
C2747 C 0.08826 0.27519 0.57586 0.0
H2748 H 0.78296 0.0581 0.55767 0.0
H2749 H 0.78404 0.08199 0.59246 0.0
H2750 H 0.75923 0.05885 0.55781 0.0
H2751 H 0.76007 0.08261 0.59269 0.0
H2752 H 0.71775 0.09244 0.57762 0.0
H2753 H 0.74163 0.09178 0.57945 0.0
H2754 H 0.74109 0.05047 0.57081 0.0
H2755 H 0.71742 0.05116 0.56879 0.0
C2756 C 0.77811 0.06344 0.56542 0.0
C2757 C 0.78536 0.06995 0.57508 0.0
C2758 C 0.7645 0.06381 0.56554 0.0
C2759 C 0.75776 0.07073 0.5753 0.0
C2760 C 0.765 0.07727 0.58499 0.0
C2761 C 0.77869 0.07684 0.58491 0.0
C2762 C 0.72277 0.08323 0.57618 0.0
C2763 C 0.71574 0.07188 0.57294 0.0
C2764 C 0.73641 0.08283 0.5773 0.0
C2765 C 0.74325 0.07109 0.57517 0.0
C2766 C 0.73614 0.05971 0.57229 0.0
C2767 C 0.72256 0.0601 0.57119 0.0
H2768 H 0.92585 0.21963 0.40437 0.0
H2769 H 0.92163 0.21911 0.44636 0.0
H2770 H 0.92436 0.24356 0.4046 0.0
H2771 H 0.91997 0.24279 0.44657 0.0
H2772 H 0.93552 0.28432 0.44394 0.0
H2773 H 0.93547 0.2606 0.44265 0.0
H2774 H 0.90926 0.26234 0.40961 0.0
H2775 H 0.90939 0.28628 0.41085 0.0
C2776 C 0.92447 0.22461 0.41361 0.0
C2777 C 0.92399 0.21751 0.42535 0.0
C2778 C 0.92357 0.23828 0.41374 0.0
C2779 C 0.9222 0.24507 0.42563 0.0
C2780 C 0.92128 0.23788 0.43728 0.0
C2781 C 0.92218 0.22429 0.43715 0.0
C2782 C 0.92972 0.27967 0.43641 0.0
C2783 C 0.92242 0.28716 0.42753 0.0
C2784 C 0.92964 0.26606 0.43571 0.0
C2785 C 0.92229 0.25958 0.42608 0.0
C2786 C 0.91506 0.26706 0.4171 0.0
C2787 C 0.91508 0.28074 0.41785 0.0
H2788 H 0.71823 0.92552 0.40182 0.0
H2789 H 0.72178 0.90722 0.43966 0.0
H2790 H 0.7419 0.92465 0.39916 0.0
H2791 H 0.74544 0.9068 0.43729 0.0
H2792 H 0.78783 0.90198 0.42813 0.0
H2793 H 0.76429 0.89846 0.42669 0.0
H2794 H 0.75992 0.93611 0.40802 0.0
H2795 H 0.78343 0.93935 0.40904 0.0
C2796 C 0.72408 0.92119 0.40952 0.0
C2797 C 0.71818 0.91651 0.42099 0.0
C2798 C 0.73765 0.92078 0.40804 0.0
C2799 C 0.74564 0.91581 0.41807 0.0
C2800 C 0.73964 0.91056 0.42928 0.0
C2801 C 0.72605 0.91086 0.43069 0.0
C2802 C 0.78184 0.90938 0.42351 0.0
C2803 C 0.78746 0.92097 0.41875 0.0
C2804 C 0.76833 0.90741 0.42277 0.0
C2805 C 0.76014 0.91704 0.41736 0.0
C2806 C 0.76589 0.92839 0.4121 0.0
C2807 C 0.77939 0.93029 0.41275 0.0
H2808 H 0.0565 0.78344 0.43801 0.0
H2809 H 0.093 0.78825 0.41738 0.0
H2810 H 0.06016 0.76004 0.43916 0.0
H2811 H 0.09687 0.76465 0.41881 0.0
H2812 H 0.08945 0.71981 0.41162 0.0
H2813 H 0.0886 0.7437 0.4106 0.0
H2814 H 0.07409 0.74478 0.45023 0.0
H2815 H 0.07457 0.72104 0.45107 0.0
C2816 C 0.06535 0.77949 0.43376 0.0
C2817 C 0.07448 0.78768 0.42763 0.0
C2818 C 0.06752 0.76606 0.43452 0.0
C2819 C 0.07891 0.76047 0.42923 0.0
C2820 C 0.08799 0.76865 0.42293 0.0
C2821 C 0.08579 0.78215 0.42215 0.0
C2822 C 0.08629 0.7252 0.42016 0.0
C2823 C 0.08192 0.71859 0.43136 0.0
C2824 C 0.08582 0.73888 0.41959 0.0
C2825 C 0.08104 0.74614 0.43025 0.0
C2826 C 0.07749 0.73948 0.44172 0.0
C2827 C 0.07785 0.72587 0.44224 0.0
H2828 H 0.21585 0.07877 0.40331 0.0
H2829 H 0.21775 0.07689 0.44543 0.0
H2830 H 0.23959 0.08186 0.40244 0.0
H2831 H 0.24131 0.07986 0.44457 0.0
H2832 H 0.2819 0.09555 0.44038 0.0
H2833 H 0.25809 0.09616 0.43897 0.0
H2834 H 0.25924 0.06837 0.40722 0.0
H2835 H 0.28305 0.06789 0.40852 0.0
C2836 C 0.22132 0.07908 0.41236 0.0
C2837 C 0.21496 0.07754 0.42443 0.0
C2838 C 0.23489 0.08081 0.41187 0.0
C2839 C 0.24231 0.08116 0.42344 0.0
C2840 C 0.23587 0.07984 0.43549 0.0
C2841 C 0.22237 0.07803 0.43597 0.0
C2842 C 0.27708 0.08975 0.43296 0.0
C2843 C 0.28432 0.08159 0.42463 0.0
C2844 C 0.26344 0.09003 0.4322 0.0
C2845 C 0.25678 0.0822 0.42308 0.0
C2846 C 0.26408 0.07458 0.41429 0.0
C2847 C 0.27772 0.07426 0.41508 0.0
H2848 H 0.58486 0.91222 0.71836 0.0
H2849 H 0.55429 0.94132 0.71873 0.0
H2850 H 0.58635 0.91353 0.7422 0.0
H2851 H 0.55547 0.94237 0.74241 0.0
H2852 H 0.57035 0.95293 0.78225 0.0
H2853 H 0.57006 0.95065 0.75861 0.0
H2854 H 0.575 0.90888 0.76253 0.0
H2855 H 0.57569 0.91127 0.7863 0.0
C2856 C 0.57836 0.91877 0.72355 0.0
C2857 C 0.56952 0.92673 0.71669 0.0
C2858 C 0.57918 0.9195 0.7372 0.0
C2859 C 0.57115 0.92819 0.74422 0.0
C2860 C 0.56204 0.93581 0.73731 0.0
C2861 C 0.56128 0.93514 0.72373 0.0
C2862 C 0.57147 0.94327 0.77807 0.0
C2863 C 0.57298 0.93227 0.78612 0.0
C2864 C 0.57121 0.94194 0.76451 0.0
C2865 C 0.57231 0.92955 0.75865 0.0
C2866 C 0.57419 0.91857 0.76671 0.0
C2867 C 0.57455 0.91992 0.78032 0.0
H2868 H 0.09857 0.57072 0.71611 0.0
H2869 H 0.06185 0.59145 0.71815 0.0
H2870 H 0.10083 0.57248 0.73984 0.0
H2871 H 0.06395 0.59298 0.74175 0.0
H2872 H 0.0735 0.60003 0.78386 0.0
H2873 H 0.07577 0.60207 0.76016 0.0
H2874 H 0.0897 0.56225 0.75813 0.0
H2875 H 0.0877 0.56034 0.78173 0.0
C2876 C 0.09108 0.5758 0.7216 0.0
C2877 C 0.07999 0.58086 0.71529 0.0
C2878 C 0.09233 0.57675 0.73519 0.0
C2879 C 0.08252 0.5828 0.74271 0.0
C2880 C 0.07176 0.58839 0.73628 0.0
C2881 C 0.07051 0.58743 0.72273 0.0
C2882 C 0.07723 0.5918 0.77835 0.0
C2883 C 0.08032 0.58 0.78462 0.0
C2884 C 0.07848 0.59294 0.76478 0.0
C2885 C 0.08284 0.5823 0.75723 0.0
C2886 C 0.08646 0.57069 0.76363 0.0
C2887 C 0.08521 0.56956 0.77717 0.0
H2888 H 0.45174 0.06885 0.72081 0.0
H2889 H 0.4121 0.08313 0.71818 0.0
H2890 H 0.44993 0.06799 0.74447 0.0
H2891 H 0.41014 0.08195 0.74199 0.0
H2892 H 0.41631 0.08837 0.78653 0.0
H2893 H 0.41774 0.09105 0.76279 0.0
H2894 H 0.43879 0.05453 0.76008 0.0
H2895 H 0.43764 0.05206 0.78365 0.0
C2896 C 0.44263 0.07184 0.72531 0.0
C2897 C 0.43203 0.07598 0.71763 0.0
C2898 C 0.44156 0.07126 0.73888 0.0
C2899 C 0.42982 0.07471 0.74514 0.0
C2900 C 0.41934 0.07928 0.73749 0.0
C2901 C 0.42044 0.07991 0.72385 0.0
C2902 C 0.4212 0.08092 0.78082 0.0
C2903 C 0.42693 0.07005 0.78695 0.0
C2904 C 0.42198 0.08243 0.76723 0.0
C2905 C 0.42851 0.07308 0.75953 0.0
C2906 C 0.43396 0.06207 0.76571 0.0
C2907 C 0.43321 0.06061 0.77924 0.0
H2908 H 0.94139 0.41463 0.71776 0.0
H2909 H 0.90141 0.42813 0.71654 0.0
H2910 H 0.93999 0.41238 0.74136 0.0
H2911 H 0.89992 0.42567 0.7403 0.0
H2912 H 0.91101 0.43783 0.78297 0.0
H2913 H 0.90924 0.43696 0.75924 0.0
H2914 H 0.92993 0.40014 0.75906 0.0
H2915 H 0.93191 0.40115 0.78282 0.0
C2916 C 0.93223 0.41696 0.72253 0.0
C2917 C 0.92153 0.42163 0.71531 0.0
C2918 C 0.93139 0.41557 0.73607 0.0
C2919 C 0.91984 0.41884 0.74273 0.0
C2920 C 0.909 0.42319 0.73546 0.0
C2921 C 0.90982 0.42454 0.72187 0.0
C2922 C 0.91503 0.42946 0.77788 0.0
C2923 C 0.92171 0.41962 0.78474 0.0
C2924 C 0.91394 0.42892 0.76428 0.0
C2925 C 0.91952 0.41852 0.75724 0.0
C2926 C 0.92569 0.40838 0.76418 0.0
C2927 C 0.92677 0.40892 0.77779 0.0
H2928 H 0.55483 0.07281 0.2163 0.0
H2929 H 0.59675 0.07724 0.21395 0.0
H2930 H 0.55578 0.07595 0.23986 0.0
H2931 H 0.59769 0.08045 0.23766 0.0
H2932 H 0.59293 0.06665 0.28132 0.0
H2933 H 0.59379 0.0667 0.25749 0.0
H2934 H 0.56078 0.09299 0.25637 0.0
H2935 H 0.55987 0.09288 0.28021 0.0
C2936 C 0.56425 0.07453 0.22082 0.0
C2937 C 0.57573 0.07474 0.21329 0.0
C2938 C 0.56478 0.07643 0.23431 0.0
C2939 C 0.5768 0.07851 0.24061 0.0
C2940 C 0.58829 0.0788 0.23307 0.0
C2941 C 0.58775 0.077 0.21952 0.0
C2942 C 0.58599 0.0726 0.27599 0.0
C2943 C 0.57627 0.07969 0.28262 0.0
C2944 C 0.58652 0.07267 0.26234 0.0
C2945 C 0.57728 0.07975 0.25506 0.0
C2946 C 0.56792 0.0873 0.26172 0.0
C2947 C 0.56745 0.0873 0.27537 0.0
H2948 H 0.90308 0.57076 0.21531 0.0
H2949 H 0.93951 0.59168 0.2193 0.0
H2950 H 0.90006 0.57148 0.23895 0.0
H2951 H 0.93676 0.59203 0.24292 0.0
H2952 H 0.92595 0.59745 0.28486 0.0
H2953 H 0.92488 0.60019 0.2612 0.0
H2954 H 0.90952 0.56101 0.25746 0.0
H2955 H 0.91018 0.5585 0.2811 0.0
C2956 C 0.9104 0.57559 0.22124 0.0
C2957 C 0.92157 0.5811 0.21547 0.0
C2958 C 0.90871 0.57594 0.2348 0.0
C2959 C 0.91821 0.58171 0.24289 0.0
C2960 C 0.92915 0.58764 0.23702 0.0
C2961 C 0.93078 0.58738 0.22347 0.0
C2962 C 0.92213 0.58952 0.27898 0.0
C2963 C 0.91822 0.57774 0.28481 0.0
C2964 C 0.92161 0.59105 0.26541 0.0
C2965 C 0.91724 0.58078 0.25738 0.0
C2966 C 0.91279 0.5692 0.26331 0.0
C2967 C 0.91323 0.56771 0.27688 0.0
H2968 H 0.40841 0.92322 0.21898 0.0
H2969 H 0.44868 0.93584 0.21943 0.0
H2970 H 0.40853 0.92222 0.24292 0.0
H2971 H 0.44887 0.93465 0.24313 0.0
H2972 H 0.4406 0.94608 0.28495 0.0
H2973 H 0.43928 0.94663 0.26124 0.0
H2974 H 0.41842 0.90994 0.26145 0.0
H2975 H 0.41957 0.90949 0.28536 0.0
C2976 C 0.41728 0.92573 0.22418 0.0
C2977 C 0.4285 0.92969 0.21734 0.0
C2978 C 0.41737 0.92509 0.23786 0.0
C2979 C 0.42869 0.92845 0.24492 0.0
C2980 C 0.43993 0.93223 0.23801 0.0
C2981 C 0.43984 0.93284 0.22441 0.0
C2982 C 0.43571 0.93812 0.27996 0.0
C2983 C 0.43025 0.9277 0.28701 0.0
C2984 C 0.43501 0.93841 0.26636 0.0
C2985 C 0.42884 0.92827 0.25945 0.0
C2986 C 0.42317 0.91793 0.2665 0.0
C2987 C 0.42389 0.91764 0.28017 0.0
H2988 H 0.09191 0.42212 0.28219 0.0
H2989 H 0.05304 0.43845 0.27979 0.0
H2990 H 0.09273 0.42079 0.25826 0.0
H2991 H 0.05375 0.4369 0.25615 0.0
H2992 H 0.064 0.44629 0.21455 0.0
H2993 H 0.06491 0.44745 0.23824 0.0
H2994 H 0.08256 0.40911 0.23953 0.0
H2995 H 0.08189 0.40807 0.2156 0.0
C2996 C 0.08356 0.42541 0.27656 0.0
C2997 C 0.07245 0.43047 0.28285 0.0
C2998 C 0.084 0.42457 0.26289 0.0
C2999 C 0.07334 0.42883 0.2553 0.0
C3000 C 0.06223 0.43377 0.26167 0.0
C3001 C 0.0618 0.4346 0.27525 0.0
C3002 C 0.0681 0.4381 0.21986 0.0
C3003 C 0.07278 0.42704 0.21322 0.0
C3004 C 0.06858 0.43874 0.23346 0.0
C3005 C 0.07369 0.42831 0.24079 0.0
C3006 C 0.07864 0.41734 0.23415 0.0
C3007 C 0.07818 0.4167 0.22047 0.0
H3008 H 0.71824 0.57736 0.90956 0.0
H3009 H 0.71825 0.56732 0.95056 0.0
H3010 H 0.74221 0.57766 0.90972 0.0
H3011 H 0.74199 0.56779 0.95075 0.0
H3012 H 0.78301 0.55311 0.94251 0.0
H3013 H 0.75929 0.5541 0.94163 0.0
H3014 H 0.7615 0.58966 0.91901 0.0
H3015 H 0.78543 0.58857 0.91976 0.0
C3016 C 0.72335 0.57531 0.9186 0.0
C3017 C 0.71637 0.57222 0.93002 0.0
C3018 C 0.73705 0.57555 0.91871 0.0
C3019 C 0.74399 0.57263 0.93022 0.0
C3020 C 0.73695 0.56985 0.94167 0.0
C3021 C 0.72333 0.56964 0.94157 0.0
C3022 C 0.77846 0.56116 0.93736 0.0
C3023 C 0.78609 0.5708 0.93126 0.0
C3024 C 0.76486 0.56176 0.93691 0.0
C3025 C 0.75851 0.57201 0.93033 0.0
C3026 C 0.76611 0.5816 0.92408 0.0
C3027 C 0.7798 0.58103 0.92458 0.0
H3028 H 0.78184 0.43021 0.05139 0.0
H3029 H 0.78487 0.42147 0.09257 0.0
H3030 H 0.75818 0.4312 0.05327 0.0
H3031 H 0.76103 0.4227 0.09452 0.0
H3032 H 0.71639 0.41469 0.08869 0.0
H3033 H 0.74019 0.41223 0.08787 0.0
H3034 H 0.74272 0.44628 0.06304 0.0
H3035 H 0.71908 0.44856 0.06366 0.0
C3036 C 0.77744 0.42843 0.06085 0.0
C3037 C 0.78522 0.42584 0.07185 0.0
C3038 C 0.76387 0.4291 0.06195 0.0
C3039 C 0.75772 0.42724 0.07409 0.0
C3040 C 0.76547 0.42415 0.08502 0.0
C3041 C 0.77911 0.42347 0.08392 0.0
C3042 C 0.72207 0.42168 0.08314 0.0
C3043 C 0.71587 0.43176 0.07617 0.0
C3044 C 0.73569 0.42029 0.0827 0.0
C3045 C 0.74334 0.42896 0.07526 0.0
C3046 C 0.73711 0.43926 0.06863 0.0
C3047 C 0.72355 0.44063 0.06906 0.0
H3048 H 0.59388 0.71572 0.07491 0.0
H3049 H 0.5522 0.71883 0.08075 0.0
H3050 H 0.59549 0.73951 0.07382 0.0
H3051 H 0.55382 0.74255 0.08003 0.0
H3052 H 0.55842 0.78238 0.06129 0.0
H3053 H 0.55771 0.75876 0.06362 0.0
H3054 H 0.59356 0.75982 0.08593 0.0
H3055 H 0.59445 0.78357 0.08324 0.0
C3056 C 0.5851 0.7215 0.07617 0.0
C3057 C 0.57291 0.71542 0.07783 0.0
C3058 C 0.58603 0.73513 0.07559 0.0
C3059 C 0.57477 0.74295 0.0767 0.0
C3060 C 0.56265 0.73683 0.07886 0.0
C3061 C 0.56173 0.72323 0.07938 0.0
C3062 C 0.56617 0.77758 0.06668 0.0
C3063 C 0.57648 0.78482 0.07211 0.0
C3064 C 0.56571 0.76403 0.06811 0.0
C3065 C 0.5755 0.75738 0.07509 0.0
C3066 C 0.58591 0.76462 0.08041 0.0
C3067 C 0.58641 0.77822 0.07892 0.0
H3068 H 0.2819 0.56978 0.0581 0.0
H3069 H 0.28479 0.57882 0.09923 0.0
H3070 H 0.2584 0.57315 0.05894 0.0
H3071 H 0.26107 0.58227 0.10006 0.0
H3072 H 0.21665 0.56942 0.09634 0.0
H3073 H 0.2405 0.56895 0.09763 0.0
H3074 H 0.24282 0.59143 0.06201 0.0
H3075 H 0.21903 0.59181 0.06064 0.0
C3076 C 0.2775 0.57249 0.06734 0.0
C3077 C 0.28519 0.57403 0.07861 0.0
C3078 C 0.26404 0.57455 0.06779 0.0
C3079 C 0.2579 0.57813 0.07953 0.0
C3080 C 0.26554 0.57951 0.09087 0.0
C3081 C 0.27909 0.57755 0.0904 0.0
C3082 C 0.22226 0.57447 0.08892 0.0
C3083 C 0.21598 0.58054 0.07831 0.0
C3084 C 0.23591 0.57423 0.08969 0.0
C3085 C 0.24352 0.57999 0.07982 0.0
C3086 C 0.23721 0.58671 0.06963 0.0
C3087 C 0.22358 0.587 0.06889 0.0
H3088 H 0.4217 0.21426 0.09897 0.0
H3089 H 0.40885 0.21899 0.05906 0.0
H3090 H 0.41983 0.23779 0.10238 0.0
H3091 H 0.40744 0.24249 0.06226 0.0
H3092 H 0.40072 0.28425 0.07152 0.0
H3093 H 0.39718 0.2607 0.07233 0.0
H3094 H 0.43212 0.25635 0.09568 0.0
H3095 H 0.43533 0.2799 0.09526 0.0
C3096 C 0.41833 0.22032 0.09097 0.0
C3097 C 0.41551 0.21481 0.07872 0.0
C3098 C 0.41735 0.23382 0.09289 0.0
C3099 C 0.41362 0.2421 0.08256 0.0
C3100 C 0.41018 0.23645 0.0705 0.0
C3101 C 0.41106 0.22296 0.06862 0.0
C3102 C 0.40748 0.27826 0.07705 0.0
C3103 C 0.41836 0.28389 0.08324 0.0
C3104 C 0.40551 0.26475 0.07744 0.0
C3105 C 0.41445 0.25656 0.08391 0.0
C3106 C 0.42494 0.26232 0.09071 0.0
C3107 C 0.42683 0.27584 0.09043 0.0
H3108 H 0.21848 0.43805 0.91192 0.0
H3109 H 0.2159 0.40028 0.93057 0.0
H3110 H 0.24207 0.43566 0.91022 0.0
H3111 H 0.2396 0.39776 0.92867 0.0
H3112 H 0.28179 0.40992 0.94132 0.0
H3113 H 0.25816 0.40816 0.93941 0.0
H3114 H 0.26014 0.42377 0.90023 0.0
H3115 H 0.28387 0.42576 0.90226 0.0
C3116 C 0.22295 0.42913 0.91547 0.0
C3117 C 0.21536 0.4194 0.92148 0.0
C3118 C 0.23647 0.42771 0.9144 0.0
C3119 C 0.24273 0.41653 0.91934 0.0
C3120 C 0.23508 0.40655 0.9249 0.0
C3121 C 0.22151 0.40797 0.92594 0.0
C3122 C 0.27721 0.41278 0.93222 0.0
C3123 C 0.28466 0.4181 0.92199 0.0
C3124 C 0.26366 0.41169 0.93108 0.0
C3125 C 0.25724 0.4159 0.9197 0.0
C3126 C 0.26478 0.4206 0.9092 0.0
C3127 C 0.27837 0.42167 0.91033 0.0
H3128 H 0.58159 0.28583 0.91004 0.0
H3129 H 0.56245 0.28622 0.94765 0.0
H3130 H 0.58281 0.26197 0.91094 0.0
H3131 H 0.56393 0.26252 0.9487 0.0
H3132 H 0.55427 0.22026 0.93913 0.0
H3133 H 0.55404 0.24399 0.93816 0.0
H3134 H 0.59327 0.24379 0.92253 0.0
H3135 H 0.59338 0.21987 0.92324 0.0
C3136 C 0.57771 0.28082 0.91852 0.0
C3137 C 0.57184 0.28788 0.92873 0.0
C3138 C 0.57849 0.26717 0.91908 0.0
C3139 C 0.57341 0.26033 0.92987 0.0
C3140 C 0.56773 0.26746 0.94015 0.0
C3141 C 0.56693 0.28105 0.93957 0.0
C3142 C 0.56288 0.22526 0.93553 0.0
C3143 C 0.57386 0.21821 0.93129 0.0
C3144 C 0.56277 0.23889 0.93503 0.0
C3145 C 0.57366 0.24581 0.93032 0.0
C3146 C 0.58468 0.23874 0.92609 0.0
C3147 C 0.58478 0.22507 0.92658 0.0
H3148 H 0.40685 0.78112 0.91926 0.0
H3149 H 0.44463 0.78113 0.93809 0.0
H3150 H 0.40702 0.75714 0.91912 0.0
H3151 H 0.44488 0.7574 0.93779 0.0
H3152 H 0.43542 0.71577 0.94841 0.0
H3153 H 0.43353 0.73945 0.94845 0.0
H3154 H 0.41896 0.73844 0.90885 0.0
H3155 H 0.42068 0.71454 0.90888 0.0
C3156 C 0.41516 0.77601 0.92337 0.0
C3157 C 0.42569 0.783 0.92875 0.0
C3158 C 0.4153 0.76231 0.92322 0.0
C3159 C 0.42593 0.75537 0.92851 0.0
C3160 C 0.43644 0.76242 0.93383 0.0
C3161 C 0.43632 0.77604 0.93395 0.0
C3162 C 0.43179 0.72057 0.93971 0.0
C3163 C 0.42829 0.7133 0.9286 0.0
C3164 C 0.43075 0.73416 0.93972 0.0
C3165 C 0.4262 0.74084 0.92862 0.0
C3166 C 0.42242 0.73356 0.91758 0.0
C3167 C 0.42348 0.7199 0.91757 0.0
H3168 H 0.03513 0.17327 0.44043 0.0
H3169 H 0.03872 0.1767 0.39852 0.0
H3170 H 0.01156 0.17125 0.43831 0.0
H3171 H 0.01489 0.17466 0.39639 0.0
H3172 H 0.97073 0.18821 0.40395 0.0
H3173 H 0.99466 0.18803 0.40291 0.0
H3174 H 0.99553 0.15517 0.42936 0.0
H3175 H 0.97176 0.15538 0.43046 0.0
C3176 C 0.03087 0.17354 0.43074 0.0
C3177 C 0.03877 0.17513 0.41964 0.0
C3178 C 0.01737 0.17229 0.42952 0.0
C3179 C 0.01139 0.17269 0.41717 0.0
C3180 C 0.01925 0.17434 0.40602 0.0
C3181 C 0.03286 0.17545 0.40724 0.0
C3182 C 0.97604 0.18081 0.40934 0.0
C3183 C 0.96939 0.1719 0.4174 0.0
C3184 C 0.98973 0.18068 0.40871 0.0
C3185 C 0.99695 0.17169 0.41619 0.0
C3186 C 0.99022 0.16235 0.42366 0.0
C3187 C 0.9766 0.16244 0.42424 0.0
H3188 H 0.8038 0.03843 0.43078 0.0
H3189 H 0.83809 0.03962 0.40625 0.0
H3190 H 0.80462 0.01468 0.43087 0.0
H3191 H 0.83923 0.01575 0.40669 0.0
H3192 H 0.83113 0.97149 0.40269 0.0
H3193 H 0.82936 0.99525 0.40023 0.0
H3194 H 0.81786 0.99844 0.44075 0.0
H3195 H 0.81924 0.97488 0.44303 0.0
C3196 C 0.81151 0.0336 0.42537 0.0
C3197 C 0.82093 0.04089 0.41859 0.0
C3198 C 0.81205 0.01996 0.4255 0.0
C3199 C 0.82213 0.01326 0.41897 0.0
C3200 C 0.83129 0.02056 0.41177 0.0
C3201 C 0.83067 0.03424 0.41155 0.0
C3202 C 0.82822 0.97732 0.41104 0.0
C3203 C 0.82526 0.97132 0.42303 0.0
C3204 C 0.82726 0.99092 0.40966 0.0
C3205 C 0.82333 0.99879 0.42025 0.0
C3206 C 0.8206 0.99272 0.43227 0.0
C3207 C 0.82149 0.97918 0.43362 0.0
H3208 H 0.96098 0.8452 0.40287 0.0
H3209 H 0.967 0.80527 0.41514 0.0
H3210 H 0.9846 0.84785 0.40006 0.0
H3211 H 0.9905 0.8079 0.41231 0.0
H3212 H 0.03204 0.81359 0.40028 0.0
H3213 H 0.00853 0.81209 0.39624 0.0
H3214 H 0.0027 0.84854 0.41669 0.0
H3215 H 0.02614 0.85004 0.42072 0.0
C3216 C 0.96732 0.83693 0.40472 0.0
C3217 C 0.96217 0.82506 0.40932 0.0
C3218 C 0.98083 0.83846 0.40316 0.0
C3219 C 0.9894 0.8281 0.40599 0.0
C3220 C 0.98415 0.81603 0.40991 0.0
C3221 C 0.97069 0.81455 0.41161 0.0
C3222 C 0.02577 0.82144 0.40362 0.0
C3223 C 0.0309 0.83188 0.41091 0.0
C3224 C 0.01231 0.82054 0.40137 0.0
C3225 C 0.00376 0.83013 0.40625 0.0
C3226 C 0.00903 0.84104 0.41272 0.0
C3227 C 0.02245 0.84187 0.41509 0.0
H3228 H 0.17792 0.96277 0.39821 0.0
H3229 H 0.17004 0.9664 0.43951 0.0
H3230 H 0.17571 0.98656 0.39579 0.0
H3231 H 0.16789 0.9899 0.43712 0.0
H3232 H 0.15253 0.02941 0.42815 0.0
H3233 H 0.15268 0.00565 0.42685 0.0
H3234 H 0.18765 0.00707 0.40327 0.0
H3235 H 0.18742 0.03097 0.40446 0.0
C3236 C 0.1757 0.96863 0.40673 0.0
C3237 C 0.17414 0.96273 0.41904 0.0
C3238 C 0.17447 0.98222 0.40536 0.0
C3239 C 0.17149 0.99007 0.41624 0.0
C3240 C 0.16994 0.98411 0.4285 0.0
C3241 C 0.17128 0.97063 0.42989 0.0
C3242 C 0.16013 0.02468 0.4225 0.0
C3243 C 0.17005 0.03205 0.41653 0.0
C3244 C 0.16025 0.01107 0.4218 0.0
C3245 C 0.17029 0.00449 0.41514 0.0
C3246 C 0.17976 0.01187 0.40845 0.0
C3247 C 0.17965 0.02554 0.40916 0.0
H3248 H 0.97296 0.8403 0.56387 0.0
H3249 H 0.96801 0.82344 0.60223 0.0
H3250 H 0.99635 0.84195 0.56754 0.0
H3251 H 0.99156 0.82531 0.60605 0.0
H3252 H 0.0349 0.8128 0.5972 0.0
H3253 H 0.01111 0.81447 0.59772 0.0
H3254 H 0.0134 0.85261 0.57976 0.0
H3255 H 0.03714 0.85077 0.57894 0.0
C3256 C 0.97685 0.83715 0.5732 0.0
C3257 C 0.96865 0.83168 0.58273 0.0
C3258 C 0.99028 0.83818 0.57535 0.0
C3259 C 0.99586 0.83376 0.5871 0.0
C3260 C 0.98759 0.82869 0.59684 0.0
C3261 C 0.9741 0.82769 0.59469 0.0
C3262 C 0.03032 0.82163 0.59358 0.0
C3263 C 0.03787 0.83158 0.58788 0.0
C3264 C 0.01668 0.82262 0.59393 0.0
C3265 C 0.01033 0.83361 0.58863 0.0
C3266 C 0.01797 0.8439 0.58369 0.0
C3267 C 0.03158 0.84289 0.58328 0.0
H3268 H 0.17208 0.03636 0.59982 0.0
H3269 H 0.18367 0.03484 0.55928 0.0
H3270 H 0.17225 0.01242 0.60071 0.0
H3271 H 0.18355 0.01114 0.56005 0.0
H3272 H 0.19594 0.97008 0.56808 0.0
H3273 H 0.19618 0.99378 0.56938 0.0
H3274 H 0.16081 0.99296 0.59242 0.0
H3275 H 0.16079 0.96903 0.5914 0.0
C3276 C 0.17462 0.03092 0.59111 0.0
C3277 C 0.17795 0.03748 0.57951 0.0
C3278 C 0.17465 0.01722 0.59159 0.0
C3279 C 0.17804 0.00985 0.58048 0.0
C3280 C 0.18118 0.01648 0.56887 0.0
C3281 C 0.18117 0.0301 0.5684 0.0
C3282 C 0.18825 0.97493 0.57351 0.0
C3283 C 0.17828 0.9677 0.57955 0.0
C3284 C 0.18834 0.98854 0.57419 0.0
C3285 C 0.1784 0.9953 0.58083 0.0
C3286 C 0.16864 0.98805 0.58727 0.0
C3287 C 0.1686 0.97436 0.58665 0.0
H3288 H 0.02937 0.18383 0.59868 0.0
H3289 H 0.02963 0.14622 0.57961 0.0
H3290 H 0.00562 0.18271 0.60062 0.0
H3291 H 0.00601 0.14475 0.58208 0.0
H3292 H 0.9655 0.15741 0.56794 0.0
H3293 H 0.98884 0.15518 0.57095 0.0
H3294 H 0.98579 0.17343 0.60893 0.0
H3295 H 0.96221 0.17606 0.60565 0.0
C3296 C 0.02438 0.17514 0.59528 0.0
C3297 C 0.0313 0.1652 0.58883 0.0
C3298 C 0.01075 0.17446 0.59643 0.0
C3299 C 0.00382 0.16375 0.59127 0.0
C3300 C 0.01095 0.15332 0.58582 0.0
C3301 C 0.02451 0.1541 0.58449 0.0
C3302 C 0.96975 0.16081 0.57702 0.0
C3303 C 0.96201 0.16697 0.58653 0.0
C3304 C 0.98318 0.15943 0.57881 0.0
C3305 C 0.98928 0.16408 0.59022 0.0
C3306 C 0.98146 0.16985 0.59997 0.0
C3307 C 0.96794 0.17128 0.59814 0.0
H3308 H 0.84221 0.02694 0.5625 0.0
H3309 H 0.82153 0.03067 0.59909 0.0
H3310 H 0.84145 0.00327 0.56441 0.0
H3311 H 0.82063 0.00678 0.60094 0.0
H3312 H 0.83114 0.96191 0.60234 0.0
H3313 H 0.83399 0.98576 0.60302 0.0
H3314 H 0.82277 0.98812 0.56241 0.0
H3315 H 0.82002 0.96458 0.5617 0.0
C3316 C 0.83763 0.0227 0.57104 0.0
C3317 C 0.83181 0.03067 0.58058 0.0
C3318 C 0.83714 0.00913 0.5721 0.0
C3319 C 0.83078 0.00316 0.58271 0.0
C3320 C 0.82561 0.01111 0.59266 0.0
C3321 C 0.8261 0.02477 0.59159 0.0
C3322 C 0.82926 0.96758 0.5936 0.0
C3323 C 0.82542 0.96137 0.58195 0.0
C3324 C 0.83086 0.9812 0.594 0.0
C3325 C 0.82877 0.98878 0.58272 0.0
C3326 C 0.82472 0.98253 0.57119 0.0
C3327 C 0.82306 0.96903 0.57082 0.0
H3328 H 0.44018 0.03697 0.17694 0.0
H3329 H 0.39809 0.04026 0.1764 0.0
H3330 H 0.43844 0.01341 0.17437 0.0
H3331 H 0.39636 0.01642 0.17391 0.0
H3332 H 0.40395 0.97168 0.18684 0.0
H3333 H 0.40239 0.99559 0.18752 0.0
H3334 H 0.43061 0.99825 0.1563 0.0
H3335 H 0.43218 0.97452 0.15558 0.0
C3336 C 0.43054 0.03265 0.17631 0.0
C3337 C 0.41927 0.04046 0.17685 0.0
C3338 C 0.42955 0.01916 0.17474 0.0
C3339 C 0.41727 0.01311 0.1738 0.0
C3340 C 0.40594 0.02086 0.1746 0.0
C3341 C 0.40694 0.03446 0.176 0.0
C3342 C 0.4096 0.97738 0.17994 0.0
C3343 C 0.41829 0.97124 0.17125 0.0
C3344 C 0.40869 0.99105 0.18032 0.0
C3345 C 0.41653 0.99874 0.17209 0.0
C3346 C 0.42461 0.99255 0.16289 0.0
C3347 C 0.42545 0.97895 0.16245 0.0
H3348 H 0.03248 0.40011 0.18516 0.0
H3349 H 0.02747 0.42485 0.15135 0.0
H3350 H 0.00885 0.39658 0.18604 0.0
H3351 H 0.00392 0.42135 0.15224 0.0
H3352 H 0.96219 0.40745 0.15266 0.0
H3353 H 0.98588 0.4051 0.15034 0.0
H3354 H 0.99055 0.41166 0.19176 0.0
H3355 H 0.96694 0.41396 0.19408 0.0
C3356 C 0.02636 0.40458 0.17777 0.0
C3357 C 0.03181 0.41282 0.16824 0.0
C3358 C 0.01284 0.40262 0.17832 0.0
C3359 C 0.00451 0.40875 0.16926 0.0
C3360 C 0.01007 0.41639 0.15929 0.0
C3361 C 0.02356 0.41845 0.15882 0.0
C3362 C 0.96827 0.40815 0.16129 0.0
C3363 C 0.96273 0.41099 0.17353 0.0
C3364 C 0.98183 0.40687 0.15995 0.0
C3365 C 0.99008 0.40826 0.17085 0.0
C3366 C 0.98445 0.4104 0.1832 0.0
C3367 C 0.97093 0.4118 0.18451 0.0
H3368 H 0.58948 0.95961 0.15411 0.0
H3369 H 0.58401 0.96429 0.19569 0.0
H3370 H 0.5909 0.98335 0.15165 0.0
H3371 H 0.58536 0.98795 0.19323 0.0
H3372 H 0.59748 0.02977 0.18629 0.0
H3373 H 0.60031 0.00608 0.18731 0.0
H3374 H 0.57505 0.00164 0.1538 0.0
H3375 H 0.57228 0.0253 0.15273 0.0
C3376 C 0.58872 0.9657 0.16273 0.0
C3377 C 0.58658 0.9601 0.17509 0.0
C3378 C 0.58947 0.97929 0.16132 0.0
C3379 C 0.58822 0.98753 0.17224 0.0
C3380 C 0.58652 0.98188 0.18464 0.0
C3381 C 0.58566 0.96832 0.18604 0.0
C3382 C 0.59271 0.02375 0.17901 0.0
C3383 C 0.5846 0.02939 0.16947 0.0
C3384 C 0.59427 0.01018 0.17965 0.0
C3385 C 0.58783 0.00198 0.17069 0.0
C3386 C 0.58023 0.00769 0.16077 0.0
C3387 C 0.5786 0.02124 0.1602 0.0
H3388 H 0.03499 0.5595 0.17645 0.0
H3389 H 0.03883 0.601 0.16978 0.0
H3390 H 0.01145 0.56122 0.17396 0.0
H3391 H 0.01504 0.60272 0.16718 0.0
H3392 H 0.97062 0.59944 0.18067 0.0
H3393 H 0.99456 0.60016 0.18074 0.0
H3394 H 0.9956 0.56567 0.15644 0.0
H3395 H 0.97183 0.56485 0.15651 0.0
C3396 C 0.0308 0.56901 0.17441 0.0
C3397 C 0.03877 0.58011 0.17329 0.0
C3398 C 0.0173 0.56997 0.17288 0.0
C3399 C 0.01139 0.58208 0.17023 0.0
C3400 C 0.01932 0.59326 0.16924 0.0
C3401 C 0.03292 0.59227 0.17068 0.0
C3402 C 0.97599 0.59217 0.17516 0.0
C3403 C 0.96936 0.582 0.16871 0.0
C3404 C 0.98968 0.59259 0.17517 0.0
C3405 C 0.99696 0.58285 0.16876 0.0
C3406 C 0.99027 0.57316 0.16169 0.0
C3407 C 0.97664 0.57274 0.16167 0.0
H3408 H 0.41218 0.96458 0.80582 0.0
H3409 H 0.40719 0.95835 0.84726 0.0
H3410 H 0.4103 0.98807 0.80908 0.0
H3411 H 0.40527 0.98199 0.85053 0.0
H3412 H 0.42495 0.02387 0.84971 0.0
H3413 H 0.42121 1.00036 0.84865 0.0
H3414 H 0.39531 0.00594 0.81581 0.0
H3415 H 0.39911 0.0295 0.81681 0.0
C3416 C 0.4105 0.96823 0.81562 0.0
C3417 C 0.40992 0.95963 0.8263 0.0
C3418 C 0.40932 0.9817 0.81747 0.0
C3419 C 0.40763 0.9869 0.83007 0.0
C3420 C 0.40664 0.97827 0.84072 0.0
C3421 C 0.40769 0.96475 0.83884 0.0
C3422 C 0.41823 0.02011 0.84244 0.0
C3423 C 0.41242 0.02851 0.83327 0.0
C3424 C 0.41604 0.00664 0.84188 0.0
C3425 C 0.40807 0.00128 0.83206 0.0
C3426 C 0.40163 0.00978 0.82338 0.0
C3427 C 0.40374 0.02327 0.82401 0.0
H3428 H 0.03594 0.44147 0.82099 0.0
H3429 H 0.04016 0.39961 0.82458 0.0
H3430 H 0.01241 0.43938 0.8235 0.0
H3431 H 0.01639 0.39753 0.82712 0.0
H3432 H 0.97165 0.40179 0.8147 0.0
H3433 H 0.99557 0.40138 0.81372 0.0
H3434 H 0.99717 0.4331 0.84149 0.0
H3435 H 0.9734 0.43356 0.84243 0.0
C3436 C 0.03183 0.4318 0.82229 0.0
C3437 C 0.0399 0.4207 0.82262 0.0
C3438 C 0.01835 0.43062 0.82383 0.0
C3439 C 0.01258 0.4183 0.82565 0.0
C3440 C 0.02059 0.40714 0.82572 0.0
C3441 C 0.03417 0.40834 0.82429 0.0
C3442 C 0.97714 0.40852 0.82074 0.0
C3443 C 0.97066 0.41778 0.82855 0.0
C3444 C 0.99082 0.40826 0.82021 0.0
C3445 C 0.99822 0.41733 0.82739 0.0
C3446 C 0.99171 0.42614 0.83567 0.0
C3447 C 0.9781 0.42635 0.83627 0.0
H3448 H 0.59285 0.03861 0.80996 0.0
H3449 H 0.58447 0.04304 0.85108 0.0
H3450 H 0.59391 0.01498 0.8127 0.0
H3451 H 0.58584 0.0194 0.8539 0.0
H3452 H 0.56686 0.9787 0.84716 0.0
H3453 H 0.57138 0.00199 0.84742 0.0
H3454 H 0.60459 0.99588 0.82205 0.0
H3455 H 0.59986 0.97244 0.8216 0.0
C3456 C 0.59153 0.03455 0.81964 0.0
C3457 C 0.58841 0.04266 0.83027 0.0
C3458 C 0.59222 0.02099 0.82124 0.0
C3459 C 0.58982 0.01526 0.8335 0.0
C3460 C 0.5875 0.02348 0.84428 0.0
C3461 C 0.58678 0.03703 0.84268 0.0
C3462 C 0.57527 0.98228 0.84182 0.0
C3463 C 0.58294 0.97375 0.83428 0.0
C3464 C 0.57793 0.99565 0.84203 0.0
C3465 C 0.58832 0.00084 0.8347 0.0
C3466 C 0.59641 0.99221 0.82768 0.0
C3467 C 0.59376 0.97878 0.82749 0.0
H3468 H 0.02733 0.56091 0.81409 0.0
H3469 H 0.03068 0.59905 0.83183 0.0
H3470 H 0.00378 0.56328 0.8132 0.0
H3471 H 0.00686 0.60163 0.83063 0.0
H3472 H 0.96259 0.59268 0.83949 0.0
H3473 H 0.98652 0.59313 0.8399 0.0
H3474 H 0.98739 0.57516 0.8017 0.0
H3475 H 0.96364 0.57433 0.80152 0.0
C3476 C 0.02302 0.56988 0.81772 0.0
C3477 C 0.03087 0.57981 0.82299 0.0
C3478 C 0.00949 0.57129 0.81711 0.0
C3479 C 0.00339 0.58273 0.82169 0.0
C3480 C 0.01123 0.59267 0.82707 0.0
C3481 C 0.02486 0.59123 0.82771 0.0
C3482 C 0.96794 0.58899 0.83113 0.0
C3483 C 0.96127 0.58332 0.82055 0.0
C3484 C 0.98164 0.58928 0.83134 0.0
C3485 C 0.9889 0.58397 0.82093 0.0
C3486 C 0.98214 0.57902 0.81004 0.0
C3487 C 0.96851 0.57862 0.80989 0.0
H3488 H 0.1798 0.39696 0.03649 0.0
H3489 H 0.15995 0.43423 0.03689 0.0
H3490 H 0.17924 0.39699 0.01252 0.0
H3491 H 0.1594 0.43422 0.01311 0.0
H3492 H 0.18065 0.43912 0.97398 0.0
H3493 H 0.17839 0.43662 0.99748 0.0
H3494 H 0.16391 0.39737 0.99208 0.0
H3495 H 0.16611 0.3999 0.96828 0.0
C3496 C 0.17509 0.40501 0.03148 0.0
C3497 C 0.17005 0.41566 0.03856 0.0
C3498 C 0.17475 0.40501 0.01778 0.0
C3499 C 0.16945 0.4157 0.01098 0.0
C3500 C 0.16374 0.42595 0.0181 0.0
C3501 C 0.16401 0.42592 0.03173 0.0
C3502 C 0.17699 0.42993 0.97776 0.0
C3503 C 0.17353 0.41971 0.96928 0.0
C3504 C 0.17561 0.42854 0.99123 0.0
C3505 C 0.17084 0.41685 0.9966 0.0
C3506 C 0.1676 0.40649 0.98818 0.0
C3507 C 0.16883 0.40795 0.9746 0.0
H3508 H 0.18706 0.59649 0.96455 0.0
H3509 H 0.1504 0.57566 0.96275 0.0
H3510 H 0.18571 0.59679 0.98838 0.0
H3511 H 0.14893 0.57617 0.98651 0.0
H3512 H 0.16297 0.56103 0.02666 0.0
H3513 H 0.16123 0.56449 0.00323 0.0
H3514 H 0.17395 0.60445 0.00809 0.0
H3515 H 0.17583 0.60091 0.03171 0.0
C3516 C 0.17858 0.59224 0.96923 0.0
C3517 C 0.16892 0.58592 0.96179 0.0
C3518 C 0.17778 0.59245 0.98288 0.0
C3519 C 0.16729 0.58635 0.98934 0.0
C3520 C 0.15725 0.58074 0.98183 0.0
C3521 C 0.15806 0.58051 0.96821 0.0
C3522 C 0.16527 0.57061 0.02276 0.0
C3523 C 0.16958 0.58069 0.03101 0.0
C3524 C 0.16418 0.57262 0.00933 0.0
C3525 C 0.16742 0.58476 0.00378 0.0
C3526 C 0.17147 0.59496 0.01207 0.0
C3527 C 0.17248 0.59296 0.02558 0.0
H3528 H 0.40336 0.1645 0.02962 0.0
H3529 H 0.44121 0.18277 0.02576 0.0
H3530 H 0.40186 0.16272 0.00575 0.0
H3531 H 0.43963 0.18123 0.00216 0.0
H3532 H 0.44037 0.16506 0.9618 0.0
H3533 H 0.44029 0.16449 0.98554 0.0
H3534 H 0.39979 0.17641 0.98577 0.0
H3535 H 0.3998 0.17669 0.96182 0.0
C3536 C 0.41132 0.16815 0.02369 0.0
C3537 C 0.42243 0.17371 0.02956 0.0
C3538 C 0.41044 0.16719 0.01004 0.0
C3539 C 0.42068 0.17171 0.00205 0.0
C3540 C 0.43168 0.17739 0.008 0.0
C3541 C 0.43255 0.17836 0.02156 0.0
C3542 C 0.4314 0.16745 0.96689 0.0
C3543 C 0.42012 0.17105 0.95995 0.0
C3544 C 0.43137 0.16719 0.98051 0.0
C3545 C 0.4201 0.17062 0.98757 0.0
C3546 C 0.40862 0.17368 0.98063 0.0
C3547 C 0.40863 0.17388 0.96692 0.0
H3548 H 0.81302 0.43201 0.96386 0.0
H3549 H 0.8351 0.39606 0.96177 0.0
H3550 H 0.81548 0.4322 0.98747 0.0
H3551 H 0.83752 0.39628 0.98569 0.0
H3552 H 0.82454 0.39961 0.03141 0.0
H3553 H 0.823 0.39605 0.00767 0.0
H3554 H 0.83643 0.43547 0.00102 0.0
H3555 H 0.838 0.43901 0.02443 0.0
C3556 C 0.81828 0.42405 0.96845 0.0
C3557 C 0.82398 0.41408 0.96094 0.0
C3558 C 0.81974 0.42421 0.98198 0.0
C3559 C 0.82686 0.41437 0.98836 0.0
C3560 C 0.832 0.40399 0.98098 0.0
C3561 C 0.83063 0.40388 0.96733 0.0
C3562 C 0.82739 0.40739 0.02483 0.0
C3563 C 0.83124 0.41964 0.02976 0.0
C3564 C 0.82651 0.40536 0.01129 0.0
C3565 C 0.82938 0.41557 0.00256 0.0
C3566 C 0.83393 0.42751 0.00754 0.0
C3567 C 0.83487 0.42951 0.02096 0.0
H3568 H 0.59926 0.81448 0.02899 0.0
H3569 H 0.57788 0.85088 0.02909 0.0
H3570 H 0.60018 0.81512 0.0051 0.0
H3571 H 0.57893 0.85158 0.00532 0.0
H3572 H 0.5635 0.83538 0.96636 0.0
H3573 H 0.56708 0.83733 0.98971 0.0
H3574 H 0.60769 0.82707 0.98452 0.0
H3575 H 0.60407 0.82509 0.96084 0.0
C3576 C 0.59507 0.82278 0.02394 0.0
C3577 C 0.58834 0.83254 0.0309 0.0
C3578 C 0.59562 0.82316 0.01026 0.0
C3579 C 0.58942 0.83328 0.00334 0.0
C3580 C 0.58357 0.84352 0.01039 0.0
C3581 C 0.58303 0.84315 0.02401 0.0
C3582 C 0.57323 0.83359 0.97014 0.0
C3583 C 0.58351 0.83007 0.96176 0.0
C3584 C 0.5753 0.83482 0.98353 0.0
C3585 C 0.5877 0.83249 0.98895 0.0
C3586 C 0.59804 0.82893 0.9806 0.0
C3587 C 0.59598 0.82783 0.96708 0.0
H3588 H 0.81119 0.59621 0.03719 0.0
H3589 H 0.84805 0.57607 0.04128 0.0
H3590 H 0.8133 0.59522 0.01342 0.0
H3591 H 0.85031 0.57532 0.01759 0.0
H3592 H 0.83878 0.55851 0.97751 0.0
H3593 H 0.83919 0.56286 0.00084 0.0
H3594 H 0.82548 0.60218 0.99384 0.0
H3595 H 0.8249 0.59771 0.97031 0.0
C3596 C 0.81986 0.5918 0.03301 0.0
C3597 C 0.82938 0.58609 0.04109 0.0
C3598 C 0.8211 0.59129 0.01939 0.0
C3599 C 0.8319 0.58506 0.0136 0.0
C3600 C 0.84175 0.57997 0.02173 0.0
C3601 C 0.84049 0.58046 0.03531 0.0
C3602 C 0.83597 0.56814 0.98091 0.0
C3603 C 0.83178 0.57776 0.97207 0.0
C3604 C 0.83629 0.57067 0.9943 0.0
C3605 C 0.8324 0.58289 0.99922 0.0
C3606 C 0.82845 0.59264 0.99036 0.0
C3607 C 0.82819 0.59011 0.9769 0.0
H3608 H 0.44031 0.83703 0.97163 0.0
H3609 H 0.40092 0.8221 0.96877 0.0
H3610 H 0.43883 0.83656 0.99533 0.0
H3611 H 0.39946 0.82164 0.99274 0.0
H3612 H 0.40158 0.83527 0.03751 0.0
H3613 H 0.40042 0.83677 0.01355 0.0
H3614 H 0.43767 0.81717 0.01065 0.0
H3615 H 0.43883 0.81564 0.0343 0.0
C3616 C 0.43126 0.83378 0.97606 0.0
C3617 C 0.42077 0.82948 0.96832 0.0
C3618 C 0.43044 0.83346 0.98965 0.0
C3619 C 0.4191 0.82888 0.99586 0.0
C3620 C 0.40832 0.82522 0.98818 0.0
C3621 C 0.40917 0.82546 0.97449 0.0
C3622 C 0.40944 0.83119 0.03171 0.0
C3623 C 0.42033 0.82541 0.03779 0.0
C3624 C 0.40876 0.83203 0.01803 0.0
C3625 C 0.41905 0.82725 0.01027 0.0
C3626 C 0.42971 0.82115 0.01639 0.0
C3627 C 0.43033 0.82021 0.02995 0.0
H3628 H 0.56876 0.15402 0.97214 0.0
H3629 H 0.59665 0.18567 0.97126 0.0
H3630 H 0.57058 0.15303 0.99583 0.0
H3631 H 0.59825 0.1849 0.99509 0.0
H3632 H 0.60298 0.17499 0.03868 0.0
H3633 H 0.60457 0.17266 0.01488 0.0
H3634 H 0.56272 0.16744 0.01274 0.0
H3635 H 0.56119 0.16952 0.03629 0.0
C3636 C 0.57541 0.16067 0.97701 0.0
C3637 C 0.58246 0.17001 0.96986 0.0
C3638 C 0.57639 0.16016 0.9906 0.0
C3639 C 0.58438 0.16904 0.99739 0.0
C3640 C 0.59204 0.17789 0.99017 0.0
C3641 C 0.5911 0.17836 0.97652 0.0
C3642 C 0.59417 0.17322 0.03309 0.0
C3643 C 0.58196 0.17243 0.03935 0.0
C3644 C 0.59506 0.17195 0.01947 0.0
C3645 C 0.58378 0.16978 0.0119 0.0
C3646 C 0.57164 0.16884 0.01825 0.0
C3647 C 0.57075 0.17014 0.03178 0.0
H3648 H 0.53813 0.66654 0.93843 0.0
H3649 H 0.54008 0.67634 0.89743 0.0
H3650 H 0.51463 0.66394 0.93678 0.0
H3651 H 0.51631 0.67355 0.89571 0.0
H3652 H 0.47238 0.68465 0.90559 0.0
H3653 H 0.49621 0.68469 0.90365 0.0
H3654 H 0.49813 0.64979 0.92731 0.0
H3655 H 0.47444 0.64992 0.92947 0.0
C3656 C 0.53354 0.66802 0.92901 0.0
C3657 C 0.54096 0.67165 0.91806 0.0
C3658 C 0.52005 0.66642 0.92804 0.0
C3659 C 0.51358 0.66844 0.91609 0.0
C3660 C 0.521 0.67198 0.90507 0.0
C3661 C 0.5346 0.67351 0.90603 0.0
C3662 C 0.47789 0.67686 0.91016 0.0
C3663 C 0.47156 0.66738 0.91781 0.0
C3664 C 0.49154 0.67686 0.90902 0.0
C3665 C 0.49908 0.66736 0.9155 0.0
C3666 C 0.49263 0.65741 0.92243 0.0
C3667 C 0.47904 0.65744 0.92361 0.0
H3668 H 0.3307 0.53777 0.90269 0.0
H3669 H 0.31321 0.53518 0.941 0.0
H3670 H 0.33014 0.51387 0.90088 0.0
H3671 H 0.3129 0.51154 0.93935 0.0
H3672 H 0.30206 0.47081 0.92907 0.0
H3673 H 0.30173 0.49452 0.92771 0.0
H3674 H 0.34022 0.49411 0.91037 0.0
H3675 H 0.34039 0.47018 0.91144 0.0
C3676 C 0.32674 0.53211 0.9107 0.0
C3677 C 0.32194 0.53835 0.92195 0.0
C3678 C 0.32648 0.51843 0.9097 0.0
C3679 C 0.32137 0.51078 0.91992 0.0
C3680 C 0.31664 0.5171 0.93116 0.0
C3681 C 0.3169 0.53069 0.93215 0.0
C3682 C 0.3104 0.47575 0.92483 0.0
C3683 C 0.32131 0.46864 0.92048 0.0
C3684 C 0.31025 0.48936 0.92411 0.0
C3685 C 0.32104 0.49625 0.91914 0.0
C3686 C 0.33173 0.48911 0.91422 0.0
C3687 C 0.33185 0.47542 0.91486 0.0
H3688 H 0.46648 0.30586 0.91441 0.0
H3689 H 0.46076 0.34719 0.90803 0.0
H3690 H 0.49001 0.30873 0.91224 0.0
H3691 H 0.48442 0.35008 0.90586 0.0
H3692 H 0.5317 0.31612 0.90096 0.0
H3693 H 0.50814 0.31504 0.89707 0.0
H3694 H 0.50244 0.3483 0.92241 0.0
H3695 H 0.52593 0.3494 0.92628 0.0
C3696 C 0.47025 0.31553 0.91232 0.0
C3697 C 0.4618 0.32631 0.91149 0.0
C3698 C 0.48373 0.31716 0.91099 0.0
C3699 C 0.48907 0.32964 0.90892 0.0
C3700 C 0.48057 0.34036 0.90754 0.0
C3701 C 0.46705 0.3387 0.90873 0.0
C3702 C 0.52543 0.32336 0.90548 0.0
C3703 C 0.53063 0.33278 0.91401 0.0
C3704 C 0.51195 0.3227 0.9033 0.0
C3705 C 0.50344 0.33153 0.90951 0.0
C3706 C 0.50875 0.34143 0.9174 0.0
C3707 C 0.5222 0.34202 0.91968 0.0
H3708 H 0.68683 0.52931 0.90662 0.0
H3709 H 0.65098 0.52852 0.92887 0.0
H3710 H 0.68604 0.50552 0.90454 0.0
H3711 H 0.65007 0.50484 0.92661 0.0
H3712 H 0.66558 0.46429 0.9385 0.0
H3713 H 0.66344 0.48786 0.93672 0.0
H3714 H 0.6744 0.4859 0.896 0.0
H3715 H 0.67668 0.4621 0.89784 0.0
C3716 C 0.67862 0.52409 0.91079 0.0
C3717 C 0.66905 0.53076 0.91804 0.0
C3718 C 0.67815 0.51046 0.90957 0.0
C3719 C 0.66809 0.50327 0.91558 0.0
C3720 C 0.65808 0.51007 0.92209 0.0
C3721 C 0.65856 0.52365 0.92332 0.0
C3722 C 0.66743 0.46885 0.92912 0.0
C3723 C 0.67132 0.46134 0.91831 0.0
C3724 C 0.6661 0.48237 0.92807 0.0
C3725 C 0.66868 0.48876 0.9162 0.0
C3726 C 0.6724 0.48125 0.9053 0.0
C3727 C 0.67365 0.46764 0.90633 0.0
H3728 H 0.53878 0.32991 0.10041 0.0
H3729 H 0.5371 0.31813 0.05992 0.0
H3730 H 0.51485 0.3289 0.10162 0.0
H3731 H 0.51343 0.31739 0.06102 0.0
H3732 H 0.47301 0.30356 0.06957 0.0
H3733 H 0.49671 0.30407 0.07079 0.0
H3734 H 0.49487 0.33971 0.09335 0.0
H3735 H 0.47094 0.33901 0.09239 0.0
C3736 C 0.53331 0.32715 0.09178 0.0
C3737 C 0.53982 0.32402 0.0801 0.0
C3738 C 0.51962 0.32663 0.09245 0.0
C3739 C 0.51223 0.32293 0.08146 0.0
C3740 C 0.51881 0.31999 0.06976 0.0
C3741 C 0.5324 0.3205 0.0691 0.0
C3742 C 0.47763 0.31146 0.07489 0.0
C3743 C 0.47012 0.32131 0.08079 0.0
C3744 C 0.49124 0.3118 0.07552 0.0
C3745 C 0.49771 0.32205 0.08198 0.0
C3746 C 0.49019 0.33166 0.08833 0.0
C3747 C 0.4765 0.33128 0.08775 0.0
H3748 H 0.68992 0.53803 0.09797 0.0
H3749 H 0.64988 0.54098 0.08496 0.0
H3750 H 0.68796 0.51426 0.09864 0.0
H3751 H 0.64778 0.51729 0.08599 0.0
H3752 H 0.65722 0.47709 0.06794 0.0
H3753 H 0.65643 0.50038 0.07223 0.0
H3754 H 0.67809 0.49462 0.10803 0.0
H3755 H 0.67908 0.4711 0.10354 0.0
C3756 C 0.68061 0.53361 0.09556 0.0
C3757 C 0.67011 0.54134 0.09124 0.0
C3758 C 0.67945 0.51999 0.09601 0.0
C3759 C 0.66776 0.51384 0.0922 0.0
C3760 C 0.65701 0.52168 0.08873 0.0
C3761 C 0.65819 0.53527 0.0882 0.0
C3762 C 0.66167 0.48074 0.07683 0.0
C3763 C 0.66828 0.47227 0.08537 0.0
C3764 C 0.66113 0.49412 0.07935 0.0
C3765 C 0.66719 0.4994 0.09049 0.0
C3766 C 0.67342 0.49087 0.0993 0.0
C3767 C 0.67392 0.4774 0.09679 0.0
H3768 H 0.46342 0.687 0.06304 0.0
H3769 H 0.4603 0.66959 0.10136 0.0
H3770 H 0.48695 0.68399 0.06353 0.0
H3771 H 0.48409 0.66643 0.10179 0.0
H3772 H 0.52937 0.67731 0.10014 0.0
H3773 H 0.50551 0.67901 0.10201 0.0
H3774 H 0.50153 0.66491 0.06244 0.0
H3775 H 0.52515 0.66342 0.06052 0.0
C3776 C 0.46778 0.68256 0.07161 0.0
C3777 C 0.45999 0.67846 0.08213 0.0
C3778 C 0.48127 0.68075 0.07185 0.0
C3779 C 0.48736 0.67478 0.08261 0.0
C3780 C 0.47966 0.67105 0.09336 0.0
C3781 C 0.46606 0.67283 0.09311 0.0
C3782 C 0.52335 0.67438 0.09194 0.0
C3783 C 0.52911 0.67038 0.08013 0.0
C3784 C 0.50971 0.67535 0.09301 0.0
C3785 C 0.50167 0.67233 0.08228 0.0
C3786 C 0.50747 0.66761 0.07077 0.0
C3787 C 0.52101 0.66669 0.0697 0.0
H3788 H 0.31509 0.46388 0.09958 0.0
H3789 H 0.35057 0.46295 0.07676 0.0
H3790 H 0.31593 0.48777 0.09989 0.0
H3791 H 0.35159 0.48672 0.07732 0.0
H3792 H 0.3367 0.52649 0.06303 0.0
H3793 H 0.33841 0.50307 0.06632 0.0
H3794 H 0.3276 0.50787 0.10685 0.0
H3795 H 0.32571 0.53154 0.10346 0.0
C3796 C 0.32322 0.46877 0.09489 0.0
C3797 C 0.33267 0.46157 0.088 0.0
C3798 C 0.32373 0.48245 0.09511 0.0
C3799 C 0.33372 0.48915 0.08846 0.0
C3800 C 0.34361 0.48187 0.08229 0.0
C3801 C 0.34307 0.46824 0.08203 0.0
C3802 C 0.33477 0.5226 0.07268 0.0
C3803 C 0.33105 0.53086 0.08298 0.0
C3804 C 0.33585 0.50916 0.0746 0.0
C3805 C 0.33323 0.50359 0.08688 0.0
C3806 C 0.32963 0.51186 0.09726 0.0
C3807 C 0.32861 0.5254 0.09534 0.0
H3808 H 0.92413 0.53679 0.69811 0.0
H3809 H 0.90466 0.53787 0.66069 0.0
H3810 H 0.92401 0.51304 0.69756 0.0
H3811 H 0.9048 0.51393 0.65998 0.0
H3812 H 0.90013 0.46943 0.66853 0.0
H3813 H 0.89696 0.49317 0.66991 0.0
H3814 H 0.93626 0.49739 0.68476 0.0
H3815 H 0.93931 0.47391 0.6836 0.0
C3816 C 0.91971 0.53194 0.6898 0.0
C3817 C 0.91452 0.53919 0.67938 0.0
C3818 C 0.91972 0.51831 0.68945 0.0
C3819 C 0.91463 0.51158 0.67861 0.0
C3820 C 0.90878 0.51882 0.66848 0.0
C3821 C 0.90872 0.53252 0.66887 0.0
C3822 C 0.90805 0.47548 0.67209 0.0
C3823 C 0.91994 0.46981 0.67602 0.0
C3824 C 0.90626 0.48906 0.67284 0.0
C3825 C 0.9163 0.49717 0.67759 0.0
C3826 C 0.92821 0.49143 0.68134 0.0
C3827 C 0.92999 0.47795 0.68058 0.0
H3828 H 0.53237 0.90015 0.68351 0.0
H3829 H 0.52682 0.93145 0.65576 0.0
H3830 H 0.50884 0.89587 0.68333 0.0
H3831 H 0.50339 0.92726 0.65565 0.0
H3832 H 0.46217 0.91269 0.65234 0.0
H3833 H 0.48592 0.91158 0.64996 0.0
H3834 H 0.48994 0.9084 0.69185 0.0
H3835 H 0.46626 0.9094 0.69421 0.0
C3836 C 0.52615 0.90596 0.67721 0.0
C3837 C 0.53141 0.91619 0.66972 0.0
C3838 C 0.51268 0.90356 0.67717 0.0
C3839 C 0.50424 0.91127 0.66953 0.0
C3840 C 0.50962 0.92106 0.66153 0.0
C3841 C 0.52305 0.92351 0.66166 0.0
C3842 C 0.46813 0.91151 0.66101 0.0
C3843 C 0.46237 0.91124 0.67347 0.0
C3844 C 0.48172 0.91095 0.65965 0.0
C3845 C 0.48982 0.90999 0.67072 0.0
C3846 C 0.48399 0.90901 0.68312 0.0
C3847 C 0.47042 0.90966 0.68448 0.0
H3848 H 0.0919 0.531 0.66105 0.0
H3849 H 0.06389 0.52865 0.69251 0.0
H3850 H 0.09286 0.50708 0.66017 0.0
H3851 H 0.0651 0.50495 0.69191 0.0
H3852 H 0.05685 0.4645 0.67679 0.0
H3853 H 0.05762 0.48819 0.67745 0.0
H3854 H 0.09945 0.48708 0.67176 0.0
H3855 H 0.0986 0.46314 0.67075 0.0
C3856 C 0.08609 0.52538 0.66787 0.0
C3857 C 0.07772 0.53169 0.67675 0.0
C3858 C 0.08667 0.51169 0.66741 0.0
C3859 C 0.07892 0.50408 0.67585 0.0
C3860 C 0.07096 0.51048 0.68505 0.0
C3861 C 0.07033 0.52408 0.68545 0.0
C3862 C 0.06623 0.46928 0.67566 0.0
C3863 C 0.07767 0.46195 0.67379 0.0
C3864 C 0.06668 0.48289 0.67613 0.0
C3865 C 0.07862 0.48956 0.67484 0.0
C3866 C 0.09008 0.48225 0.67273 0.0
C3867 C 0.08961 0.46855 0.67221 0.0
H3868 H 0.4732 0.09887 0.68484 0.0
H3869 H 0.47355 0.07488 0.65014 0.0
H3870 H 0.497 0.10089 0.68365 0.0
H3871 H 0.4972 0.07715 0.64875 0.0
H3872 H 0.53724 0.06476 0.66474 0.0
H3873 H 0.51377 0.0672 0.66254 0.0
H3874 H 0.51699 0.10825 0.67185 0.0
H3875 H 0.54074 0.10574 0.67422 0.0
C3876 C 0.47832 0.09437 0.67674 0.0
C3877 C 0.47156 0.08656 0.66769 0.0
C3878 C 0.49195 0.09554 0.67604 0.0
C3879 C 0.49901 0.08896 0.66625 0.0
C3880 C 0.49208 0.08208 0.65659 0.0
C3881 C 0.47852 0.08084 0.65734 0.0
C3882 C 0.53299 0.07435 0.66622 0.0
C3883 C 0.54084 0.08506 0.66967 0.0
C3884 C 0.51952 0.07577 0.66485 0.0
C3885 C 0.5135 0.08795 0.66691 0.0
C3886 C 0.52135 0.09874 0.67023 0.0
C3887 C 0.53492 0.09732 0.67154 0.0
H3888 H 0.89912 0.46424 0.31894 0.0
H3889 H 0.93115 0.46156 0.34626 0.0
H3890 H 0.89962 0.48804 0.32068 0.0
H3891 H 0.93132 0.48524 0.34847 0.0
H3892 H 0.94122 0.5261 0.33369 0.0
H3893 H 0.93837 0.50265 0.33525 0.0
H3894 H 0.89645 0.50755 0.33315 0.0
H3895 H 0.89941 0.5312 0.3311 0.0
C3896 C 0.90605 0.46874 0.32557 0.0
C3897 C 0.91519 0.46107 0.33236 0.0
C3898 C 0.90631 0.48239 0.32661 0.0
C3899 C 0.91565 0.48862 0.33457 0.0
C3900 C 0.92423 0.48083 0.34198 0.0
C3901 C 0.92407 0.46723 0.3408 0.0
C3902 C 0.93138 0.52221 0.33369 0.0
C3903 C 0.92054 0.53051 0.33224 0.0
C3904 C 0.92972 0.50872 0.33468 0.0
C3905 C 0.91716 0.50313 0.33439 0.0
C3906 C 0.90627 0.51148 0.33327 0.0
C3907 C 0.90795 0.52504 0.33218 0.0
H3908 H 0.47047 0.89976 0.31592 0.0
H3909 H 0.47645 0.92606 0.34837 0.0
H3910 H 0.49398 0.89549 0.31507 0.0
H3911 H 0.49987 0.92188 0.34749 0.0
H3912 H 0.54124 0.90747 0.34744 0.0
H3913 H 0.51756 0.90561 0.35011 0.0
H3914 H 0.5126 0.90942 0.30837 0.0
H3915 H 0.5362 0.91118 0.30571 0.0
C3916 C 0.47677 0.90444 0.32302 0.0
C3917 C 0.47164 0.91332 0.33215 0.0
C3918 C 0.49023 0.90205 0.32249 0.0
C3919 C 0.4988 0.90841 0.33116 0.0
C3920 C 0.49354 0.91672 0.34075 0.0
C3921 C 0.48012 0.91918 0.34122 0.0
C3922 C 0.53509 0.90765 0.33883 0.0
C3923 C 0.54055 0.90957 0.32638 0.0
C3924 C 0.52154 0.90665 0.34036 0.0
C3925 C 0.5132 0.90746 0.32947 0.0
C3926 C 0.51875 0.90863 0.31696 0.0
C3927 C 0.53227 0.90972 0.31543 0.0
H3928 H 0.09875 0.53862 0.31649 0.0
H3929 H 0.06866 0.54042 0.346 0.0
H3930 H 0.09821 0.51473 0.31742 0.0
H3931 H 0.06844 0.51669 0.34731 0.0
H3932 H 0.05667 0.47703 0.33124 0.0
H3933 H 0.06015 0.50036 0.33302 0.0
H3934 H 0.10184 0.49452 0.32955 0.0
H3935 H 0.09825 0.47091 0.32739 0.0
C3936 C 0.09225 0.5339 0.3234 0.0
C3937 C 0.08362 0.54135 0.33105 0.0
C3938 C 0.09197 0.52022 0.32397 0.0
C3939 C 0.08311 0.51377 0.33228 0.0
C3940 C 0.07513 0.52132 0.34055 0.0
C3941 C 0.07531 0.53493 0.33987 0.0
C3942 C 0.0666 0.48067 0.33093 0.0
C3943 C 0.07719 0.47212 0.32918 0.0
C3944 C 0.06862 0.49408 0.33206 0.0
C3945 C 0.0813 0.49935 0.33156 0.0
C3946 C 0.09195 0.49079 0.32991 0.0
C3947 C 0.08991 0.47728 0.32873 0.0
H3948 H 0.52703 0.06219 0.33978 0.0
H3949 H 0.52934 0.09913 0.3195 0.0
H3950 H 0.50329 0.0635 0.33954 0.0
H3951 H 0.5054 0.10039 0.31917 0.0
H3952 H 0.46095 0.10077 0.33116 0.0
H3953 H 0.48484 0.10183 0.33328 0.0
H3954 H 0.48759 0.0615 0.32114 0.0
H3955 H 0.46396 0.06043 0.31908 0.0
C3956 C 0.52247 0.07069 0.33542 0.0
C3957 C 0.53005 0.0805 0.32955 0.0
C3958 C 0.50886 0.0714 0.33521 0.0
C3959 C 0.50249 0.08194 0.32914 0.0
C3960 C 0.51005 0.09215 0.32392 0.0
C3961 C 0.52374 0.09142 0.3241 0.0
C3962 C 0.4667 0.09218 0.3289 0.0
C3963 C 0.46058 0.08051 0.325 0.0
C3964 C 0.48035 0.09279 0.33009 0.0
C3965 C 0.48806 0.0817 0.32754 0.0
C3966 C 0.4819 0.07014 0.32342 0.0
C3967 C 0.46835 0.06956 0.32215 0.0
H3968 H 0.66967 0.93931 0.47315 0.0
H3969 H 0.67844 0.8982 0.46921 0.0
H3970 H 0.67053 0.93729 0.49679 0.0
H3971 H 0.6793 0.89618 0.49313 0.0
H3972 H 0.66646 0.89954 0.53816 0.0
H3973 H 0.6649 0.89888 0.51419 0.0
H3974 H 0.68965 0.93295 0.51178 0.0
H3975 H 0.69122 0.93362 0.53545 0.0
C3976 C 0.67165 0.92979 0.47734 0.0
C3977 C 0.6741 0.91894 0.46931 0.0
C3978 C 0.67221 0.92866 0.49089 0.0
C3979 C 0.67518 0.91662 0.49679 0.0
C3980 C 0.677 0.90558 0.48882 0.0
C3981 C 0.67653 0.90674 0.47517 0.0
C3982 C 0.67169 0.90676 0.53246 0.0
C3983 C 0.67886 0.91669 0.53868 0.0
C3984 C 0.6708 0.90637 0.51878 0.0
C3985 C 0.67698 0.91599 0.51116 0.0
C3986 C 0.68458 0.92556 0.51741 0.0
C3987 C 0.68553 0.92589 0.53098 0.0
H3988 H 0.65296 0.07381 0.52502 0.0
H3989 H 0.68949 0.09476 0.5278 0.0
H3990 H 0.65354 0.07591 0.50127 0.0
H3991 H 0.69004 0.09692 0.50403 0.0
H3992 H 0.69545 0.07817 0.46294 0.0
H3993 H 0.69357 0.08045 0.48655 0.0
H3994 H 0.65301 0.09136 0.48232 0.0
H3995 H 0.6549 0.08904 0.45857 0.0
C3996 C 0.66098 0.07909 0.52057 0.0
C3997 C 0.67123 0.08403 0.52826 0.0
C3998 C 0.66129 0.08034 0.50696 0.0
C3999 C 0.6719 0.08647 0.50077 0.0
C4000 C 0.68182 0.09199 0.50852 0.0
C4001 C 0.68147 0.09082 0.52213 0.0
C4002 C 0.68615 0.08116 0.46703 0.0
C4003 C 0.67531 0.08337 0.45891 0.0
C4004 C 0.6851 0.08257 0.48055 0.0
C4005 C 0.67315 0.08612 0.4863 0.0
C4006 C 0.66233 0.08854 0.47817 0.0
C4007 C 0.66342 0.08725 0.46459 0.0
H4008 H 0.9397 0.66911 0.46421 0.0
H4009 H 0.89767 0.671 0.46088 0.0
H4010 H 0.93783 0.66669 0.48768 0.0
H4011 H 0.89573 0.66822 0.4846 0.0
H4012 H 0.90104 0.68101 0.52852 0.0
H4013 H 0.90011 0.68035 0.50465 0.0
H4014 H 0.93126 0.65181 0.50434 0.0
H4015 H 0.93246 0.65286 0.52806 0.0
C4016 C 0.93003 0.66885 0.46849 0.0
C4017 C 0.91883 0.67026 0.46069 0.0
C4018 C 0.92894 0.66734 0.48198 0.0
C4019 C 0.91662 0.66715 0.48806 0.0
C4020 C 0.90537 0.66841 0.48024 0.0
C4021 C 0.90647 0.66994 0.46666 0.0
C4022 C 0.90752 0.67445 0.52333 0.0
C4023 C 0.91694 0.66712 0.53011 0.0
C4024 C 0.90697 0.67403 0.50965 0.0
C4025 C 0.91577 0.66619 0.50255 0.0
C4026 C 0.92457 0.65821 0.50947 0.0
C4027 C 0.92521 0.65874 0.52307 0.0
H4028 H 0.32267 0.8974 0.4632 0.0
H4029 H 0.33889 0.93628 0.46565 0.0
H4030 H 0.32416 0.89533 0.487 0.0
H4031 H 0.3401 0.93437 0.48926 0.0
H4032 H 0.34971 0.92524 0.53065 0.0
H4033 H 0.35104 0.92361 0.50694 0.0
H4034 H 0.31346 0.90438 0.50616 0.0
H4035 H 0.31232 0.9057 0.52995 0.0
C4036 C 0.32663 0.90545 0.46881 0.0
C4037 C 0.33065 0.917 0.46257 0.0
C4038 C 0.32742 0.9043 0.48244 0.0
C4039 C 0.33226 0.91468 0.49007 0.0
C4040 C 0.33654 0.92609 0.48372 0.0
C4041 C 0.33576 0.92723 0.47016 0.0
C4042 C 0.34183 0.92049 0.52543 0.0
C4043 C 0.33087 0.9157 0.53215 0.0
C4044 C 0.34254 0.91962 0.51183 0.0
C4045 C 0.33228 0.91402 0.50461 0.0
C4046 C 0.32159 0.90866 0.5114 0.0
C4047 C 0.3209 0.90948 0.52504 0.0
H4048 H 0.06884 0.30313 0.52691 0.0
H4049 H 0.09124 0.33882 0.52917 0.0
H4050 H 0.06977 0.30396 0.5032 0.0
H4051 H 0.09191 0.33984 0.50525 0.0
H4052 H 0.09817 0.33074 0.461 0.0
H4053 H 0.0999 0.32942 0.48488 0.0
H4054 H 0.05943 0.31758 0.48701 0.0
H4055 H 0.0578 0.31865 0.46339 0.0
C4056 C 0.07402 0.31114 0.52233 0.0
C4057 C 0.07985 0.32098 0.5299 0.0
C4058 C 0.07449 0.31166 0.50872 0.0
C4059 C 0.08071 0.32209 0.50231 0.0
C4060 C 0.08707 0.33166 0.50988 0.0
C4061 C 0.08665 0.3311 0.52357 0.0
C4062 C 0.08967 0.32787 0.46662 0.0
C4063 C 0.07787 0.32472 0.46032 0.0
C4064 C 0.09065 0.32715 0.48027 0.0
C4065 C 0.07985 0.32324 0.48784 0.0
C4066 C 0.06803 0.32034 0.48148 0.0
C4067 C 0.06706 0.32104 0.46792 0.0
H4068 H 0.33205 0.09964 0.54147 0.0
H4069 H 0.32057 0.05917 0.53793 0.0
H4070 H 0.3343 0.101 0.51763 0.0
H4071 H 0.32273 0.06055 0.51433 0.0
H4072 H 0.34082 0.06215 0.47465 0.0
H4073 H 0.34069 0.06293 0.49842 0.0
H4074 H 0.32032 0.09987 0.4972 0.0
H4075 H 0.32057 0.09917 0.47326 0.0
C4076 C 0.32998 0.09107 0.53561 0.0
C4077 C 0.32618 0.07929 0.54157 0.0
C4078 C 0.33123 0.09186 0.52199 0.0
C4079 C 0.32883 0.08085 0.51412 0.0
C4080 C 0.3249 0.06915 0.52013 0.0
C4081 C 0.32357 0.06838 0.53366 0.0
C4082 C 0.33647 0.07054 0.47943 0.0
C4083 C 0.33061 0.08055 0.47209 0.0
C4084 C 0.33633 0.07094 0.49305 0.0
C4085 C 0.33032 0.08136 0.49968 0.0
C4086 C 0.32505 0.09173 0.49236 0.0
C4087 C 0.32517 0.09132 0.47867 0.0
H4088 H 0.91869 0.35496 0.46887 0.0
H4089 H 0.90118 0.31661 0.46998 0.0
H4090 H 0.9163 0.35679 0.49248 0.0
H4091 H 0.89925 0.31817 0.49369 0.0
H4092 H 0.89385 0.32578 0.53688 0.0
H4093 H 0.89041 0.32794 0.51329 0.0
H4094 H 0.92807 0.34675 0.50972 0.0
H4095 H 0.93127 0.34491 0.53309 0.0
C4096 C 0.91415 0.34699 0.47416 0.0
C4097 C 0.91026 0.33558 0.46762 0.0
C4098 C 0.91286 0.34799 0.4877 0.0
C4099 C 0.90784 0.33752 0.49505 0.0
C4100 C 0.9031 0.32646 0.48837 0.0
C4101 C 0.90425 0.32553 0.47477 0.0
C4102 C 0.90126 0.33057 0.53104 0.0
C4103 C 0.91285 0.33513 0.53682 0.0
C4104 C 0.89933 0.33174 0.51752 0.0
C4105 C 0.90896 0.33751 0.50956 0.0
C4106 C 0.92032 0.34247 0.51551 0.0
C4107 C 0.92222 0.34131 0.52894 0.0
H4108 H 0.10284 0.67704 0.46877 0.0
H4109 H 0.06457 0.65967 0.47256 0.0
H4110 H 0.10591 0.67537 0.49242 0.0
H4111 H 0.06747 0.65829 0.49608 0.0
H4112 H 0.07742 0.65063 0.53756 0.0
H4113 H 0.07894 0.64831 0.5139 0.0
H4114 H 0.09699 0.6864 0.51137 0.0
H4115 H 0.09579 0.68853 0.53507 0.0
C4116 C 0.09517 0.67271 0.47463 0.0
C4117 C 0.08344 0.66854 0.46883 0.0
C4118 C 0.09688 0.67184 0.48818 0.0
C4119 C 0.08692 0.66677 0.49618 0.0
C4120 C 0.07543 0.66209 0.49024 0.0
C4121 C 0.07373 0.66296 0.47674 0.0
C4122 C 0.08192 0.65841 0.53196 0.0
C4123 C 0.08637 0.66982 0.53815 0.0
C4124 C 0.08272 0.65711 0.51839 0.0
C4125 C 0.08792 0.66724 0.51069 0.0
C4126 C 0.09302 0.67835 0.51698 0.0
C4127 C 0.09228 0.67962 0.53057 0.0
H4128 H 0.0564 0.16352 0.53033 0.0
H4129 H 0.0937 0.1826 0.53548 0.0
H4130 H 0.05943 0.16397 0.50666 0.0
H4131 H 0.09668 0.18312 0.51176 0.0
H4132 H 0.08658 0.19622 0.46896 0.0
H4133 H 0.0854 0.19468 0.49276 0.0
H4134 H 0.07457 0.15402 0.48961 0.0
H4135 H 0.07582 0.15552 0.46579 0.0
C4136 C 0.06526 0.16778 0.52639 0.0
C4137 C 0.07481 0.17305 0.53473 0.0
C4138 C 0.06703 0.16796 0.51286 0.0
C4139 C 0.0783 0.17356 0.50739 0.0
C4140 C 0.08787 0.17881 0.51573 0.0
C4141 C 0.08618 0.17847 0.52928 0.0
C4142 C 0.08406 0.18692 0.47336 0.0
C4143 C 0.08126 0.176 0.46554 0.0
C4144 C 0.08345 0.18603 0.48697 0.0
C4145 C 0.07985 0.17424 0.49301 0.0
C4146 C 0.07726 0.16326 0.48519 0.0
C4147 C 0.07804 0.1641 0.47158 0.0
H4148 H 0.84025 0.06557 0.46443 0.0
H4149 H 0.82056 0.10285 0.46604 0.0
H4150 H 0.84201 0.06542 0.48815 0.0
H4151 H 0.82285 0.10307 0.48974 0.0
H4152 H 0.81258 0.08993 0.53135 0.0
H4153 H 0.81341 0.0925 0.50777 0.0
H4154 H 0.85157 0.07432 0.50714 0.0
H4155 H 0.8504 0.07124 0.53076 0.0
C4156 C 0.83653 0.07386 0.46986 0.0
C4157 C 0.83017 0.08416 0.46342 0.0
C4158 C 0.83761 0.07383 0.48347 0.0
C4159 C 0.8325 0.08421 0.49093 0.0
C4160 C 0.82664 0.09478 0.48437 0.0
C4161 C 0.8254 0.09471 0.47077 0.0
C4162 C 0.8212 0.08661 0.52619 0.0
C4163 C 0.83139 0.08031 0.53288 0.0
C4164 C 0.82173 0.08816 0.51265 0.0
C4165 C 0.83254 0.08358 0.50548 0.0
C4166 C 0.84298 0.07774 0.51229 0.0
C4167 C 0.84237 0.07606 0.52584 0.0
H4168 H 0.94348 0.81013 0.52913 0.0
H4169 H 0.91035 0.8362 0.53149 0.0
H4170 H 0.94232 0.8108 0.50535 0.0
H4171 H 0.90933 0.83707 0.50767 0.0
H4172 H 0.90333 0.82377 0.46503 0.0
H4173 H 0.9041 0.82334 0.48888 0.0
H4174 H 0.94623 0.82599 0.48752 0.0
H4175 H 0.94545 0.82614 0.46371 0.0
C4176 C 0.93596 0.81602 0.52456 0.0
C4177 C 0.927 0.82312 0.53216 0.0
C4178 C 0.93535 0.81648 0.51093 0.0
C4179 C 0.92577 0.82403 0.5046 0.0
C4180 C 0.91675 0.83105 0.51224 0.0
C4181 C 0.91737 0.83061 0.52588 0.0
C4182 C 0.91274 0.8243 0.46984 0.0
C4183 C 0.92433 0.82495 0.46252 0.0
C4184 C 0.91318 0.82412 0.4835 0.0
C4185 C 0.92523 0.82458 0.4901 0.0
C4186 C 0.9368 0.82541 0.48274 0.0
C4187 C 0.93635 0.82558 0.4691 0.0
H4188 H 0.15162 0.92879 0.4649 0.0
H4189 H 0.18558 0.90387 0.46777 0.0
H4190 H 0.14962 0.92879 0.48867 0.0
H4191 H 0.18381 0.90413 0.49148 0.0
H4192 H 0.17354 0.90053 0.53397 0.0
H4193 H 0.17138 0.89764 0.51039 0.0
H4194 H 0.16178 0.93858 0.50634 0.0
H4195 H 0.16361 0.94135 0.5299 0.0
C4196 C 0.15857 0.9232 0.47061 0.0
C4197 C 0.16881 0.9164 0.46449 0.0
C4198 C 0.15748 0.92327 0.48422 0.0
C4199 C 0.16662 0.91656 0.49199 0.0
C4200 C 0.17651 0.90929 0.48581 0.0
C4201 C 0.17758 0.90919 0.47221 0.0
C4202 C 0.17082 0.90886 0.52804 0.0
C4203 C 0.16883 0.92118 0.53375 0.0
C4204 C 0.16964 0.90722 0.51453 0.0
C4205 C 0.16648 0.91789 0.50646 0.0
C4206 C 0.16406 0.93011 0.51227 0.0
C4207 C 0.1652 0.93173 0.52577 0.0
H4208 H 0.0503 0.83418 0.4713 0.0
H4209 H 0.09219 0.82959 0.4688 0.0
H4210 H 0.05171 0.8342 0.49508 0.0
H4211 H 0.09359 0.82943 0.49263 0.0
H4212 H 0.09174 0.84143 0.53594 0.0
H4213 H 0.09046 0.84333 0.51215 0.0
H4214 H 0.0567 0.81799 0.51199 0.0
H4215 H 0.05788 0.81623 0.53569 0.0
C4216 C 0.05982 0.83323 0.47584 0.0
C4217 C 0.07113 0.83183 0.4682 0.0
C4218 C 0.06062 0.83317 0.48946 0.0
C4219 C 0.07275 0.83172 0.49574 0.0
C4220 C 0.08411 0.83067 0.48808 0.0
C4221 C 0.08331 0.8307 0.47444 0.0
C4222 C 0.08403 0.83631 0.5308 0.0
C4223 C 0.0749 0.82868 0.53766 0.0
C4224 C 0.08334 0.83735 0.51719 0.0
C4225 C 0.07346 0.83084 0.5102 0.0
C4226 C 0.06431 0.82328 0.5171 0.0
C4227 C 0.06504 0.8222 0.53068 0.0
H4228 H 0.16411 0.05731 0.47136 0.0
H4229 H 0.17534 0.09774 0.46677 0.0
H4230 H 0.16358 0.06013 0.49503 0.0
H4231 H 0.17486 0.10054 0.49052 0.0
H4232 H 0.19095 0.09189 0.53273 0.0
H4233 H 0.18876 0.09149 0.50897 0.0
H4234 H 0.15132 0.0724 0.51269 0.0
H4235 H 0.15347 0.07282 0.53649 0.0
C4236 C 0.16635 0.06683 0.47541 0.0
C4237 C 0.16982 0.07729 0.46724 0.0
C4238 C 0.16597 0.06846 0.48895 0.0
C4239 C 0.16919 0.08055 0.4946 0.0
C4240 C 0.17242 0.09109 0.48641 0.0
C4241 C 0.17264 0.0895 0.47284 0.0
C4242 C 0.18218 0.08775 0.52848 0.0
C4243 C 0.17241 0.08233 0.53644 0.0
C4244 C 0.1809 0.08759 0.51489 0.0
C4245 C 0.16989 0.08188 0.509 0.0
C4246 C 0.15996 0.07676 0.51698 0.0
C4247 C 0.16117 0.07706 0.53059 0.0
H4248 H 0.90765 0.18841 0.53336 0.0
H4249 H 0.9321 0.15406 0.53568 0.0
H4250 H 0.90813 0.18713 0.50952 0.0
H4251 H 0.93256 0.15279 0.51185 0.0
H4252 H 0.94527 0.16832 0.471 0.0
H4253 H 0.94273 0.16702 0.49465 0.0
H4254 H 0.90113 0.17289 0.49055 0.0
H4255 H 0.90368 0.17419 0.46679 0.0
C4256 C 0.913 0.18051 0.52877 0.0
C4257 C 0.91989 0.17138 0.53636 0.0
C4258 C 0.91321 0.17974 0.51514 0.0
C4259 C 0.92043 0.16989 0.50885 0.0
C4260 C 0.92702 0.16055 0.51646 0.0
C4261 C 0.92671 0.16125 0.53008 0.0
C4262 C 0.93557 0.16922 0.47514 0.0
C4263 C 0.92468 0.17139 0.46707 0.0
C4264 C 0.9341 0.1684 0.48867 0.0
C4265 C 0.92173 0.16985 0.49443 0.0
C4266 C 0.91079 0.17183 0.48636 0.0
C4267 C 0.91224 0.17251 0.47278 0.0
H4268 H 0.8422 0.93978 0.47211 0.0
H4269 H 0.8159 0.90702 0.46811 0.0
H4270 H 0.84239 0.93674 0.49577 0.0
H4271 H 0.8163 0.9038 0.49171 0.0
H4272 H 0.80613 0.91458 0.53419 0.0
H4273 H 0.80769 0.91546 0.51049 0.0
H4274 H 0.8493 0.92206 0.51342 0.0
H4275 H 0.84768 0.92139 0.53727 0.0
C4276 C 0.83658 0.93184 0.47628 0.0
C4277 C 0.82895 0.9237 0.46829 0.0
C4278 C 0.83676 0.93004 0.48982 0.0
C4279 C 0.82931 0.92006 0.49562 0.0
C4280 C 0.82198 0.9117 0.48756 0.0
C4281 C 0.82179 0.91351 0.47404 0.0
C4282 C 0.81563 0.91612 0.52978 0.0
C4283 C 0.82678 0.91796 0.53757 0.0
C4284 C 0.81654 0.91654 0.51619 0.0
C4285 C 0.82862 0.91883 0.51006 0.0
C4286 C 0.83983 0.92041 0.51786 0.0
C4287 C 0.83892 0.91995 0.53149 0.0
H4288 H 0.46365 0.07356 0.15259 0.0
H4289 H 0.46867 0.09319 0.18962 0.0
H4290 H 0.48739 0.0722 0.15012 0.0
H4291 H 0.49234 0.09181 0.18716 0.0
H4292 H 0.53449 0.09622 0.17375 0.0
H4293 H 0.51087 0.09985 0.17334 0.0
H4294 H 0.50492 0.05967 0.16188 0.0
H4295 H 0.5285 0.05604 0.16227 0.0
C4296 C 0.46982 0.07771 0.16012 0.0
C4297 C 0.46433 0.08343 0.17132 0.0
C4298 C 0.48339 0.07687 0.15874 0.0
C4299 C 0.49171 0.08186 0.16847 0.0
C4300 C 0.48619 0.08799 0.17944 0.0
C4301 C 0.47264 0.08872 0.18088 0.0
C4302 C 0.52813 0.08821 0.17102 0.0
C4303 C 0.53331 0.07583 0.16811 0.0
C4304 C 0.51463 0.09027 0.17084 0.0
C4305 C 0.50606 0.08004 0.16761 0.0
C4306 C 0.51129 0.06778 0.16428 0.0
C4307 C 0.52477 0.06568 0.16458 0.0
H4308 H 0.90405 0.46651 0.17089 0.0
H4309 H 0.94604 0.46545 0.17512 0.0
H4310 H 0.90462 0.49037 0.17113 0.0
H4311 H 0.94666 0.48926 0.17507 0.0
H4312 H 0.94134 0.53077 0.19026 0.0
H4313 H 0.94041 0.50701 0.18938 0.0
H4314 H 0.9117 0.50927 0.15849 0.0
H4315 H 0.91246 0.53312 0.15958 0.0
C4316 C 0.91341 0.47138 0.17175 0.0
C4317 C 0.92499 0.46412 0.17304 0.0
C4318 C 0.91375 0.48504 0.17182 0.0
C4319 C 0.92568 0.49172 0.17319 0.0
C4320 C 0.93728 0.48442 0.17423 0.0
C4321 C 0.93694 0.47078 0.17417 0.0
C4322 C 0.93481 0.5262 0.1833 0.0
C4323 C 0.92698 0.5338 0.17498 0.0
C4324 C 0.93434 0.51258 0.18273 0.0
C4325 C 0.92604 0.50623 0.17381 0.0
C4326 C 0.91812 0.51385 0.16555 0.0
C4327 C 0.91859 0.52751 0.16613 0.0
H4328 H 0.46937 0.90649 0.17521 0.0
H4329 H 0.47316 0.94697 0.16383 0.0
H4330 H 0.49311 0.90414 0.17475 0.0
H4331 H 0.49692 0.94462 0.16343 0.0
H4332 H 0.53929 0.93194 0.1546 0.0
H4333 H 0.5155 0.93303 0.15205 0.0
H4334 H 0.5107 0.91326 0.18902 0.0
H4335 H 0.53434 0.91217 0.19156 0.0
C4336 C 0.47527 0.91484 0.17247 0.0
C4337 C 0.46943 0.92694 0.16965 0.0
C4338 C 0.48885 0.91351 0.17227 0.0
C4339 C 0.49686 0.92423 0.16916 0.0
C4340 C 0.49099 0.93617 0.16578 0.0
C4341 C 0.4774 0.93753 0.16607 0.0
C4342 C 0.53313 0.92779 0.16214 0.0
C4343 C 0.53865 0.922 0.17329 0.0
C4344 C 0.51954 0.92845 0.1607 0.0
C4345 C 0.51126 0.92318 0.17031 0.0
C4346 C 0.51683 0.91724 0.18136 0.0
C4347 C 0.53037 0.91671 0.18286 0.0
H4348 H 0.08806 0.53097 0.19147 0.0
H4349 H 0.07694 0.53558 0.15102 0.0
H4350 H 0.08784 0.50727 0.18884 0.0
H4351 H 0.07671 0.51182 0.14839 0.0
H4352 H 0.05958 0.4701 0.15707 0.0
H4353 H 0.06247 0.49379 0.15723 0.0
H4354 H 0.09947 0.48916 0.177 0.0
H4355 H 0.09659 0.46545 0.17685 0.0
C4356 C 0.08569 0.52691 0.18199 0.0
C4357 C 0.08247 0.53511 0.17146 0.0
C4358 C 0.08564 0.51335 0.18046 0.0
C4359 C 0.08225 0.50771 0.16841 0.0
C4360 C 0.07927 0.51591 0.15781 0.0
C4361 C 0.07945 0.52949 0.1593 0.0
C4362 C 0.06841 0.47414 0.16129 0.0
C4363 C 0.07783 0.46594 0.167 0.0
C4364 C 0.07009 0.48769 0.16133 0.0
C4365 C 0.08117 0.49331 0.16718 0.0
C4366 C 0.09078 0.48509 0.17253 0.0
C4367 C 0.08916 0.47153 0.17239 0.0
H4368 H 0.45926 0.93054 0.84346 0.0
H4369 H 0.46283 0.91754 0.80346 0.0
H4370 H 0.48302 0.93261 0.84489 0.0
H4371 H 0.48656 0.91967 0.80488 0.0
H4372 H 0.52902 0.91181 0.81728 0.0
H4373 H 0.50529 0.90916 0.81651 0.0
H4374 H 0.50048 0.94668 0.83522 0.0
H4375 H 0.52418 0.94931 0.83605 0.0
C4376 C 0.46513 0.92813 0.83499 0.0
C4377 C 0.45921 0.92389 0.82335 0.0
C4378 C 0.47871 0.92937 0.83579 0.0
C4379 C 0.48664 0.92629 0.825 0.0
C4380 C 0.4807 0.92197 0.8134 0.0
C4381 C 0.46712 0.92084 0.81256 0.0
C4382 C 0.52288 0.91946 0.82127 0.0
C4383 C 0.52843 0.93077 0.82671 0.0
C4384 C 0.50932 0.91797 0.82076 0.0
C4385 C 0.50104 0.92772 0.82579 0.0
C4386 C 0.50661 0.93895 0.83139 0.0
C4387 C 0.52017 0.94048 0.8318 0.0
H4388 H 0.09942 0.5354 0.82742 0.0
H4389 H 0.05903 0.53036 0.83858 0.0
H4390 H 0.10283 0.51186 0.82908 0.0
H4391 H 0.06229 0.50682 0.83983 0.0
H4392 H 0.07288 0.46506 0.8478 0.0
H4393 H 0.07247 0.48874 0.85076 0.0
H4394 H 0.09648 0.49336 0.81632 0.0
H4395 H 0.0972 0.46977 0.81363 0.0
C4396 C 0.0913 0.52926 0.83033 0.0
C4397 C 0.07893 0.53469 0.83277 0.0
C4398 C 0.09323 0.51577 0.8312 0.0
C4399 C 0.08281 0.50742 0.83446 0.0
C4400 C 0.07058 0.51295 0.83744 0.0
C4401 C 0.06868 0.52645 0.83665 0.0
C4402 C 0.07824 0.47115 0.841 0.0
C4403 C 0.08501 0.46558 0.83044 0.0
C4404 C 0.07793 0.48472 0.84265 0.0
C4405 C 0.08436 0.49298 0.83373 0.0
C4406 C 0.09156 0.48732 0.82348 0.0
C4407 C 0.09191 0.47378 0.82188 0.0
H4408 H 0.46678 0.09316 0.83093 0.0
H4409 H 0.47243 0.05136 0.83262 0.0
H4410 H 0.4904 0.09637 0.83176 0.0
H4411 H 0.496 0.05452 0.83305 0.0
H4412 H 0.5376 0.06424 0.8441 0.0
H4413 H 0.51391 0.06223 0.84604 0.0
H4414 H 0.50901 0.0933 0.81784 0.0
H4415 H 0.53264 0.09555 0.81623 0.0
C4416 C 0.47307 0.08466 0.83149 0.0
C4417 C 0.46777 0.07201 0.83168 0.0
C4418 C 0.48661 0.08649 0.8319 0.0
C4419 C 0.49512 0.0757 0.83243 0.0
C4420 C 0.48975 0.06306 0.83284 0.0
C4421 C 0.47623 0.06124 0.8325 0.0
C4422 C 0.53144 0.07071 0.83842 0.0
C4423 C 0.53695 0.08002 0.82999 0.0
C4424 C 0.51787 0.06951 0.83946 0.0
C4425 C 0.50953 0.07756 0.83204 0.0
C4426 C 0.51511 0.08706 0.82383 0.0
C4427 C 0.52866 0.0883 0.82284 0.0
H4428 H 0.94623 0.46961 0.82084 0.0
H4429 H 0.90656 0.46499 0.83453 0.0
H4430 H 0.94405 0.49327 0.82247 0.0
H4431 H 0.90441 0.48874 0.83624 0.0
H4432 H 0.90215 0.53152 0.82022 0.0
H4433 H 0.90361 0.50771 0.82094 0.0
H4434 H 0.94152 0.51057 0.83927 0.0
H4435 H 0.94012 0.53438 0.83846 0.0
C4436 C 0.93706 0.47366 0.82425 0.0
C4437 C 0.92656 0.46546 0.82753 0.0
C4438 C 0.93585 0.4872 0.82527 0.0
C4439 C 0.92408 0.49286 0.82953 0.0
C4440 C 0.91357 0.48466 0.83284 0.0
C4441 C 0.91482 0.47108 0.83191 0.0
C4442 C 0.91073 0.52705 0.82453 0.0
C4443 C 0.92105 0.53479 0.82922 0.0
C4444 C 0.91154 0.51343 0.825 0.0
C4445 C 0.92272 0.50728 0.83008 0.0
C4446 C 0.93286 0.51504 0.83514 0.0
C4447 C 0.93202 0.52866 0.83475 0.0
H4448 H 0.16501 0.46415 0.09383 0.0
H4449 H 0.19341 0.46366 0.06264 0.0
H4450 H 0.16472 0.48799 0.09322 0.0
H4451 H 0.19271 0.48739 0.06157 0.0
H4452 H 0.19831 0.5301 0.07047 0.0
H4453 H 0.19904 0.50644 0.07259 0.0
H4454 H 0.15753 0.50593 0.08058 0.0
H4455 H 0.157 0.52972 0.07904 0.0
C4456 C 0.17114 0.46916 0.08681 0.0
C4457 C 0.17927 0.46208 0.07832 0.0
C4458 C 0.17091 0.48281 0.08638 0.0
C4459 C 0.17869 0.48967 0.07734 0.0
C4460 C 0.18678 0.4825 0.06884 0.0
C4461 C 0.18714 0.46888 0.06939 0.0
C4462 C 0.18935 0.52492 0.07272 0.0
C4463 C 0.17759 0.53173 0.07456 0.0
C4464 C 0.18974 0.51134 0.07386 0.0
C4465 C 0.17833 0.50421 0.07667 0.0
C4466 C 0.16656 0.51108 0.07859 0.0
C4467 C 0.16622 0.52471 0.07762 0.0
H4468 H 0.16035 0.46925 0.94343 0.0
H4469 H 0.17791 0.46804 0.90506 0.0
H4470 H 0.15951 0.49305 0.94231 0.0
H4471 H 0.17714 0.49189 0.90398 0.0
H4472 H 0.16369 0.53487 0.90295 0.0
H4473 H 0.16182 0.51101 0.90319 0.0
H4474 H 0.17657 0.51031 0.94273 0.0
H4475 H 0.17838 0.53405 0.94252 0.0
C4476 C 0.16391 0.47406 0.9347 0.0
C4477 C 0.16927 0.4668 0.92436 0.0
C4478 C 0.1635 0.48769 0.93409 0.0
C4479 C 0.16836 0.49433 0.9231 0.0
C4480 C 0.17324 0.48703 0.91254 0.0
C4481 C 0.17373 0.47339 0.91318 0.0
C4482 C 0.16647 0.5296 0.9117 0.0
C4483 C 0.1712 0.5363 0.92271 0.0
C4484 C 0.16545 0.51596 0.91181 0.0
C4485 C 0.16901 0.50881 0.92299 0.0
C4486 C 0.17358 0.51556 0.93404 0.0
C4487 C 0.17471 0.52915 0.93388 0.0
H4488 H 0.46659 0.1958 0.91409 0.0
H4489 H 0.46427 0.15371 0.9164 0.0
H4490 H 0.49042 0.1945 0.91458 0.0
H4491 H 0.48811 0.15242 0.91688 0.0
H4492 H 0.52858 0.15921 0.9371 0.0
H4493 H 0.50501 0.15903 0.93345 0.0
H4494 H 0.50969 0.1863 0.90159 0.0
H4495 H 0.53331 0.18647 0.90524 0.0
C4496 C 0.47118 0.18627 0.91455 0.0
C4497 C 0.46358 0.17487 0.91527 0.0
C4498 C 0.48481 0.18552 0.91476 0.0
C4499 C 0.49111 0.17336 0.91581 0.0
C4500 C 0.48351 0.16193 0.91619 0.0
C4501 C 0.46988 0.16267 0.91585 0.0
C4502 C 0.52459 0.16505 0.92923 0.0
C4503 C 0.53276 0.17289 0.92148 0.0
C4504 C 0.51111 0.1649 0.92709 0.0
C4505 C 0.50552 0.17268 0.91726 0.0
C4506 C 0.51373 0.18029 0.90931 0.0
C4507 C 0.52724 0.18033 0.91136 0.0
H4508 H 0.85121 0.52643 0.93281 0.0
H4509 H 0.81474 0.5268 0.91159 0.0
H4510 H 0.85303 0.50292 0.92934 0.0
H4511 H 0.81621 0.50325 0.90859 0.0
H4512 H 0.82498 0.46159 0.89835 0.0
H4513 H 0.82675 0.48538 0.89849 0.0
H4514 H 0.8431 0.48381 0.93742 0.0
H4515 H 0.84185 0.4601 0.93699 0.0
C4516 C 0.8436 0.52147 0.92736 0.0
C4517 C 0.8328 0.52841 0.92253 0.0
C4518 C 0.84459 0.50798 0.92544 0.0
C4519 C 0.83471 0.50111 0.91879 0.0
C4520 C 0.82411 0.50819 0.9136 0.0
C4521 C 0.82321 0.5217 0.91538 0.0
C4522 C 0.82913 0.46636 0.90684 0.0
C4523 C 0.83324 0.45902 0.91768 0.0
C4524 C 0.83006 0.48 0.90697 0.0
C4525 C 0.83497 0.48658 0.91801 0.0
C4526 C 0.83945 0.47913 0.92867 0.0
C4527 C 0.83866 0.46551 0.92847 0.0
H4528 H 0.46682 0.85105 0.92634 0.0
H4529 H 0.4689 0.81304 0.90812 0.0
H4530 H 0.49035 0.85369 0.92351 0.0
H4531 H 0.49243 0.81543 0.90571 0.0
H4532 H 0.53421 0.82489 0.89701 0.0
H4533 H 0.51041 0.82616 0.89559 0.0
H4534 H 0.50924 0.84468 0.93354 0.0
H4535 H 0.53294 0.84382 0.9347 0.0
C4536 C 0.4723 0.84331 0.92163 0.0
C4537 C 0.46605 0.8318 0.91754 0.0
C4538 C 0.48579 0.84478 0.92008 0.0
C4539 C 0.49334 0.83472 0.91451 0.0
C4540 C 0.48695 0.82345 0.9099 0.0
C4541 C 0.47345 0.82204 0.91135 0.0
C4542 C 0.52885 0.82941 0.90494 0.0
C4543 C 0.53541 0.83419 0.916 0.0
C4544 C 0.51521 0.83007 0.90417 0.0
C4545 C 0.50787 0.83544 0.91449 0.0
C4546 C 0.51454 0.84065 0.92532 0.0
C4547 C 0.52815 0.84008 0.92604 0.0
H4548 H 0.84412 0.47394 0.06486 0.0
H4549 H 0.80944 0.47048 0.08868 0.0
H4550 H 0.84358 0.49765 0.06752 0.0
H4551 H 0.80888 0.49425 0.09127 0.0
H4552 H 0.80377 0.53704 0.07599 0.0
H4553 H 0.80486 0.51319 0.07552 0.0
H4554 H 0.84584 0.51482 0.08544 0.0
H4555 H 0.84475 0.5387 0.08599 0.0
C4556 C 0.83644 0.47825 0.07074 0.0
C4557 C 0.8268 0.47039 0.07654 0.0
C4558 C 0.83618 0.4918 0.07231 0.0
C4559 C 0.82617 0.49776 0.07957 0.0
C4560 C 0.81664 0.48989 0.08554 0.0
C4561 C 0.817 0.47631 0.08411 0.0
C4562 C 0.813 0.5323 0.07812 0.0
C4563 C 0.82419 0.5397 0.08099 0.0
C4564 C 0.81359 0.51866 0.07793 0.0
C4565 C 0.82543 0.51218 0.08046 0.0
C4566 C 0.83661 0.51959 0.08339 0.0
C4567 C 0.83598 0.53322 0.08374 0.0
H4568 H 0.46995 0.81869 0.09616 0.0
H4569 H 0.46709 0.84835 0.06627 0.0
H4570 H 0.49374 0.81982 0.09502 0.0
H4571 H 0.49087 0.84971 0.06534 0.0
H4572 H 0.53156 0.83398 0.05425 0.0
H4573 H 0.50803 0.8357 0.0572 0.0
H4574 H 0.51305 0.83305 0.09904 0.0
H4575 H 0.53667 0.83103 0.09603 0.0
C4576 C 0.47442 0.82562 0.08951 0.0
C4577 C 0.46668 0.83335 0.08123 0.0
C4578 C 0.48805 0.82631 0.0889 0.0
C4579 C 0.49421 0.83478 0.08001 0.0
C4580 C 0.48643 0.84292 0.07213 0.0
C4581 C 0.47281 0.8422 0.07271 0.0
C4582 C 0.52766 0.83386 0.06408 0.0
C4583 C 0.53594 0.83232 0.0749 0.0
C4584 C 0.51416 0.83494 0.06579 0.0
C4585 C 0.50865 0.83452 0.07837 0.0
C4586 C 0.51698 0.83326 0.08922 0.0
C4587 C 0.5305 0.83217 0.08751 0.0
H4588 H 0.53546 0.15735 0.08744 0.0
H4589 H 0.53407 0.19831 0.07738 0.0
H4590 H 0.5116 0.15648 0.08712 0.0
H4591 H 0.51029 0.1974 0.07679 0.0
H4592 H 0.46753 0.19448 0.08754 0.0
H4593 H 0.49117 0.19481 0.09052 0.0
H4594 H 0.49416 0.15751 0.07094 0.0
H4595 H 0.47047 0.15706 0.06822 0.0
C4596 C 0.53005 0.16617 0.08521 0.0
C4597 C 0.53661 0.17789 0.08241 0.0
C4598 C 0.51639 0.16565 0.08495 0.0
C4599 C 0.50904 0.17686 0.08189 0.0
C4600 C 0.51564 0.18863 0.07935 0.0
C4601 C 0.52927 0.18914 0.07961 0.0
C4602 C 0.47323 0.18631 0.08396 0.0
C4603 C 0.46717 0.17577 0.0776 0.0
C4604 C 0.48678 0.18653 0.08561 0.0
C4605 C 0.49456 0.17622 0.08091 0.0
C4606 C 0.48844 0.16554 0.07481 0.0
C4607 C 0.47488 0.16531 0.07318 0.0
H4608 H 0.58121 0.6968 0.96709 0.0
H4609 H 0.58517 0.65486 0.96437 0.0
H4610 H 0.58062 0.69523 0.99084 0.0
H4611 H 0.5847 0.65329 0.98821 0.0
H4612 H 0.56508 0.65629 0.02927 0.0
H4613 H 0.56823 0.65671 0.00563 0.0
H4614 H 0.59443 0.68956 0.00972 0.0
H4615 H 0.59115 0.68923 0.03334 0.0
C4616 C 0.58207 0.68725 0.97158 0.0
C4617 C 0.58319 0.67595 0.96389 0.0
C4618 C 0.58181 0.68636 0.98519 0.0
C4619 C 0.58261 0.67413 0.99139 0.0
C4620 C 0.58394 0.66283 0.98369 0.0
C4621 C 0.58427 0.66373 0.97006 0.0
C4622 C 0.57161 0.66352 0.02512 0.0
C4623 C 0.57781 0.67278 0.03312 0.0
C4624 C 0.57346 0.66372 0.0116 0.0
C4625 C 0.58153 0.67321 0.00581 0.0
C4626 C 0.58802 0.68224 0.01388 0.0
C4627 C 0.58619 0.68201 0.0274 0.0
H4628 H 0.35116 0.57071 0.03439 0.0
H4629 H 0.31421 0.59109 0.03396 0.0
H4630 H 0.35302 0.57356 0.01079 0.0
H4631 H 0.31573 0.59347 0.01038 0.0
H4632 H 0.32389 0.60251 0.96859 0.0
H4633 H 0.32609 0.60329 0.99231 0.0
H4634 H 0.34322 0.56465 0.99187 0.0
H4635 H 0.34151 0.56417 0.96817 0.0
C4636 C 0.34348 0.57587 0.02925 0.0
C4637 C 0.33251 0.58063 0.03599 0.0
C4638 C 0.34449 0.57743 0.01571 0.0
C4639 C 0.33448 0.58365 0.00862 0.0
C4640 C 0.32373 0.5888 0.01549 0.0
C4641 C 0.32281 0.58736 0.02903 0.0
C4642 C 0.3283 0.59428 0.97358 0.0
C4643 C 0.33246 0.58325 0.96656 0.0
C4644 C 0.32949 0.59468 0.98718 0.0
C4645 C 0.33471 0.58397 0.99407 0.0
C4646 C 0.33931 0.57315 0.98694 0.0
C4647 C 0.33826 0.57282 0.97333 0.0
H4648 H 0.44328 0.3371 0.03083 0.0
H4649 H 0.40895 0.31259 0.03235 0.0
H4650 H 0.44206 0.33733 0.00702 0.0
H4651 H 0.4079 0.31255 0.00855 0.0
H4652 H 0.40277 0.32536 0.96614 0.0
H4653 H 0.40343 0.32644 0.98995 0.0
H4654 H 0.44547 0.32246 0.98894 0.0
H4655 H 0.44481 0.3217 0.96514 0.0
C4656 C 0.43546 0.33178 0.02607 0.0
C4657 C 0.42622 0.32482 0.03344 0.0
C4658 C 0.43481 0.33183 0.01243 0.0
C4659 C 0.42491 0.32491 0.00587 0.0
C4660 C 0.41556 0.31811 0.01329 0.0
C4661 C 0.4162 0.31808 0.02692 0.0
C4662 C 0.41215 0.32473 0.97102 0.0
C4663 C 0.42374 0.32344 0.96379 0.0
C4664 C 0.41252 0.32528 0.98466 0.0
C4665 C 0.4245 0.32454 0.99136 0.0
C4666 C 0.43609 0.32326 0.98409 0.0
C4667 C 0.43572 0.32273 0.97046 0.0
H4668 H 0.68709 0.40884 0.03421 0.0
H4669 H 0.65886 0.43979 0.02896 0.0
H4670 H 0.68745 0.4052 0.01057 0.0
H4671 H 0.65923 0.43616 0.00541 0.0
H4672 H 0.65471 0.41878 0.96481 0.0
H4673 H 0.65326 0.41938 0.98863 0.0
H4674 H 0.69537 0.41823 0.99123 0.0
H4675 H 0.69683 0.41761 0.96742 0.0
C4676 C 0.68088 0.41476 0.02802 0.0
C4677 C 0.67298 0.42462 0.0334 0.0
C4678 C 0.68114 0.41273 0.0145 0.0
C4679 C 0.67338 0.4204 0.00616 0.0
C4680 C 0.66521 0.43 0.01161 0.0
C4681 C 0.66506 0.43212 0.02508 0.0
C4682 C 0.66365 0.41853 0.97048 0.0
C4683 C 0.67589 0.41822 0.96427 0.0
C4684 C 0.66282 0.41893 0.9841 0.0
C4685 C 0.6742 0.4189 0.99178 0.0
C4686 C 0.68643 0.41815 0.98557 0.0
C4687 C 0.68727 0.41787 0.97194 0.0
H4688 H 0.59184 0.31185 0.03221 0.0
H4689 H 0.57568 0.35055 0.03704 0.0
H4690 H 0.59091 0.31439 0.00854 0.0
H4691 H 0.57481 0.35313 0.0133 0.0
H4692 H 0.55792 0.34258 0.97211 0.0
H4693 H 0.56151 0.34289 0.99568 0.0
H4694 H 0.60023 0.32705 0.99004 0.0
H4695 H 0.59661 0.32666 0.96644 0.0
C4696 C 0.58824 0.32096 0.02821 0.0
C4697 C 0.58377 0.33097 0.03646 0.0
C4698 C 0.58778 0.32245 0.01465 0.0
C4699 C 0.58276 0.33395 0.00907 0.0
C4700 C 0.57862 0.34411 0.01734 0.0
C4701 C 0.57917 0.34266 0.03091 0.0
C4702 C 0.56726 0.33931 0.97589 0.0
C4703 C 0.57696 0.33452 0.96745 0.0
C4704 C 0.56934 0.33956 0.98938 0.0
C4705 C 0.58113 0.33495 0.9947 0.0
C4706 C 0.59099 0.33054 0.98622 0.0
C4707 C 0.58894 0.33037 0.97272 0.0
H4708 H 0.67197 0.59431 0.97126 0.0
H4709 H 0.66737 0.55247 0.97437 0.0
H4710 H 0.67166 0.5961 0.99508 0.0
H4711 H 0.66682 0.55426 0.99809 0.0
H4712 H 0.68446 0.56073 0.03868 0.0
H4713 H 0.68281 0.55932 0.015 0.0
H4714 H 0.65782 0.59335 0.01465 0.0
H4715 H 0.65963 0.59487 0.03844 0.0
C4716 C 0.67072 0.58553 0.97703 0.0
C4717 C 0.66979 0.57325 0.97097 0.0
C4718 C 0.67049 0.58655 0.99066 0.0
C4719 C 0.66933 0.5753 0.99848 0.0
C4720 C 0.66796 0.56308 0.99236 0.0
C4721 C 0.6682 0.56207 0.97876 0.0
C4722 C 0.67858 0.5679 0.03356 0.0
C4723 C 0.67217 0.57791 0.04041 0.0
C4724 C 0.67757 0.56704 0.01999 0.0
C4725 C 0.67013 0.57619 0.01294 0.0
C4726 C 0.6637 0.58622 0.01979 0.0
C4727 C 0.66468 0.58705 0.03341 0.0
H4728 H 0.42876 0.65346 0.03934 0.0
H4729 H 0.40546 0.68816 0.03335 0.0
H4730 H 0.43017 0.65036 0.01568 0.0
H4731 H 0.40696 0.68514 0.00979 0.0
H4732 H 0.40438 0.67141 0.96793 0.0
H4733 H 0.40055 0.67081 0.99149 0.0
H4734 H 0.4414 0.66228 0.99789 0.0
H4735 H 0.44519 0.66275 0.97438 0.0
C4736 C 0.42382 0.66033 0.03297 0.0
C4737 C 0.41707 0.67109 0.03817 0.0
C4738 C 0.42468 0.65859 0.01944 0.0
C4739 C 0.41872 0.66754 0.01088 0.0
C4740 C 0.41154 0.678 0.01613 0.0
C4741 C 0.41075 0.67978 0.02962 0.0
C4742 C 0.4125 0.66926 0.97437 0.0
C4743 C 0.4251 0.66721 0.96933 0.0
C4744 C 0.41032 0.66897 0.98785 0.0
C4745 C 0.42068 0.66654 0.99654 0.0
C4746 C 0.43319 0.66403 0.99145 0.0
C4747 C 0.43538 0.66439 0.97798 0.0
H4748 H 0.33473 0.44636 0.97175 0.0
H4749 H 0.32722 0.40485 0.97024 0.0
H4750 H 0.33571 0.44531 0.99556 0.0
H4751 H 0.32809 0.40383 0.99407 0.0
H4752 H 0.34147 0.40574 0.03699 0.0
H4753 H 0.34306 0.4066 0.01315 0.0
H4754 H 0.31921 0.44143 0.01287 0.0
H4755 H 0.31768 0.44062 0.03662 0.0
C4756 C 0.33341 0.43699 0.9765 0.0
C4757 C 0.33083 0.4257 0.96915 0.0
C4758 C 0.3339 0.43641 0.99013 0.0
C4759 C 0.33187 0.42451 0.99668 0.0
C4760 C 0.32978 0.41312 0.98929 0.0
C4761 C 0.32922 0.41371 0.97566 0.0
C4762 C 0.3366 0.41359 0.03182 0.0
C4763 C 0.32943 0.4231 0.03865 0.0
C4764 C 0.33747 0.41405 0.01818 0.0
C4765 C 0.3313 0.42411 0.01115 0.0
C4766 C 0.32422 0.43367 0.01803 0.0
C4767 C 0.32327 0.43314 0.03162 0.0
H4768 H 0.96413 0.55969 0.6658 0.0
H4769 H 0.96458 0.60147 0.67175 0.0
H4770 H 0.98784 0.55958 0.66432 0.0
H4771 H 0.98835 0.60148 0.66976 0.0
H4772 H 0.03017 0.59316 0.68415 0.0
H4773 H 0.00651 0.59479 0.68252 0.0
H4774 H 0.00661 0.56548 0.65208 0.0
H4775 H 0.03029 0.56351 0.65413 0.0
C4776 C 0.9693 0.56889 0.66655 0.0
C4777 C 0.96252 0.58057 0.66899 0.0
C4778 C 0.98291 0.56885 0.66562 0.0
C4779 C 0.99006 0.58052 0.66698 0.0
C4780 C 0.98319 0.59229 0.66891 0.0
C4781 C 0.96957 0.5923 0.66996 0.0
C4782 C 0.02514 0.58715 0.67703 0.0
C4783 C 0.03205 0.57814 0.66933 0.0
C4784 C 0.01157 0.58815 0.67602 0.0
C4785 C 0.0046 0.58024 0.66719 0.0
C4786 C 0.01162 0.57156 0.65915 0.0
C4787 C 0.02519 0.57048 0.66026 0.0
H4788 H 0.40951 0.03211 0.68345 0.0
H4789 H 0.44946 0.02796 0.67049 0.0
H4790 H 0.40738 0.00834 0.68442 0.0
H4791 H 0.44727 0.00429 0.67115 0.0
H4792 H 0.44392 0.96326 0.68744 0.0
H4793 H 0.44532 0.98702 0.68703 0.0
H4794 H 0.40648 0.98906 0.67056 0.0
H4795 H 0.40497 0.96525 0.67128 0.0
C4796 C 0.41779 0.02611 0.68072 0.0
C4797 C 0.42966 0.03188 0.67694 0.0
C4798 C 0.41657 0.01251 0.68122 0.0
C4799 C 0.42718 0.00441 0.67793 0.0
C4800 C 0.43898 0.01023 0.67398 0.0
C4801 C 0.44021 0.0238 0.67352 0.0
C4802 C 0.43566 0.96879 0.68379 0.0
C4803 C 0.42435 0.96241 0.67937 0.0
C4804 C 0.43649 0.9824 0.68347 0.0
C4805 C 0.42605 0.98995 0.67867 0.0
C4806 C 0.41465 0.98355 0.67443 0.0
C4807 C 0.4138 0.96991 0.67478 0.0
H4808 H 0.03103 0.40876 0.68698 0.0
H4809 H 0.03469 0.42451 0.648 0.0
H4810 H 0.00736 0.40899 0.6849 0.0
H4811 H 0.01086 0.42456 0.64582 0.0
H4812 H 0.96913 0.44011 0.65692 0.0
H4813 H 0.99276 0.4371 0.6555 0.0
H4814 H 0.98899 0.39909 0.6735 0.0
H4815 H 0.96543 0.40222 0.67514 0.0
C4816 C 0.02677 0.4121 0.67789 0.0
C4817 C 0.0347 0.41667 0.66768 0.0
C4818 C 0.01319 0.41215 0.67666 0.0
C4819 C 0.00722 0.41679 0.66519 0.0
C4820 C 0.01518 0.42104 0.65482 0.0
C4821 C 0.0288 0.42094 0.65604 0.0
C4822 C 0.97334 0.43104 0.6604 0.0
C4823 C 0.96546 0.42146 0.66627 0.0
C4824 C 0.98687 0.42928 0.65952 0.0
C4825 C 0.99276 0.41791 0.6645 0.0
C4826 C 0.98477 0.40806 0.66977 0.0
C4827 C 0.97127 0.40982 0.67065 0.0
H4828 H 0.56245 0.97197 0.65637 0.0
H4829 H 0.59314 0.96886 0.68519 0.0
H4830 H 0.56514 0.99572 0.65611 0.0
H4831 H 0.59586 0.99253 0.68488 0.0
H4832 H 0.58261 0.03481 0.69389 0.0
H4833 H 0.58198 0.01104 0.69245 0.0
H4834 H 0.58111 0.01354 0.65033 0.0
H4835 H 0.58172 0.03741 0.65177 0.0
C4836 C 0.56987 0.97635 0.66252 0.0
C4837 C 0.57753 0.96858 0.67085 0.0
C4838 C 0.57145 0.98993 0.66233 0.0
C4839 C 0.58065 0.99598 0.67055 0.0
C4840 C 0.58857 0.98815 0.67857 0.0
C4841 C 0.58706 0.97459 0.6787 0.0
C4842 C 0.58236 0.03029 0.68432 0.0
C4843 C 0.5822 0.03795 0.67294 0.0
C4844 C 0.58207 0.01668 0.68349 0.0
C4845 C 0.58152 0.01043 0.67127 0.0
C4846 C 0.58145 0.0181 0.65988 0.0
C4847 C 0.58186 0.03174 0.6607 0.0
H4848 H 0.03042 0.40696 0.3124 0.0
H4849 H 0.02607 0.43463 0.34398 0.0
H4850 H 0.00678 0.40351 0.31219 0.0
H4851 H 0.00249 0.43125 0.34371 0.0
H4852 H 0.96119 0.41556 0.34604 0.0
H4853 H 0.985 0.41498 0.34771 0.0
H4854 H 0.98799 0.41751 0.30569 0.0
H4855 H 0.9642 0.41798 0.30401 0.0
C4856 C 0.02444 0.41216 0.31941 0.0
C4857 C 0.03006 0.42111 0.32816 0.0
C4858 C 0.01091 0.41024 0.31924 0.0
C4859 C 0.00278 0.41717 0.32788 0.0
C4860 C 0.0085 0.42569 0.33701 0.0
C4861 C 0.022 0.42767 0.33712 0.0
C4862 C 0.96694 0.41586 0.33716 0.0
C4863 C 0.96086 0.41689 0.3249 0.0
C4864 C 0.98056 0.41558 0.33813 0.0
C4865 C 0.98835 0.41624 0.32684 0.0
C4866 C 0.98224 0.41684 0.31455 0.0
C4867 C 0.96863 0.4172 0.31359 0.0
H4868 H 0.55789 0.02914 0.30842 0.0
H4869 H 0.58777 0.0317 0.33812 0.0
H4870 H 0.55956 0.00539 0.30875 0.0
H4871 H 0.58929 0.00788 0.33863 0.0
H4872 H 0.59801 0.9658 0.32503 0.0
H4873 H 0.59659 0.98963 0.325 0.0
H4874 H 0.55448 0.9871 0.32304 0.0
H4875 H 0.55592 0.96332 0.32282 0.0
C4876 C 0.56478 0.02462 0.31506 0.0
C4877 C 0.5727 0.03227 0.32325 0.0
C4878 C 0.56569 0.01101 0.3153 0.0
C4879 C 0.57453 0.00474 0.32375 0.0
C4880 C 0.58248 0.01241 0.33192 0.0
C4881 C 0.58156 0.02605 0.33168 0.0
C4882 C 0.58846 0.97035 0.32461 0.0
C4883 C 0.57708 0.96271 0.32389 0.0
C4884 C 0.58764 0.98399 0.32467 0.0
C4885 C 0.57543 0.99026 0.32399 0.0
C4886 C 0.56405 0.98258 0.32338 0.0
C4887 C 0.56487 0.96896 0.32333 0.0
H4888 H 0.96749 0.59374 0.33426 0.0
H4889 H 0.97163 0.55874 0.31106 0.0
H4890 H 0.99112 0.59699 0.33359 0.0
H4891 H 0.99522 0.56168 0.31074 0.0
H4892 H 0.03573 0.5761 0.30204 0.0
H4893 H 0.01196 0.57501 0.30181 0.0
H4894 H 0.01101 0.58803 0.34199 0.0
H4895 H 0.03481 0.58958 0.34201 0.0
C4896 C 0.97346 0.58672 0.32906 0.0
C4897 C 0.96773 0.576 0.3227 0.0
C4898 C 0.98701 0.58854 0.32873 0.0
C4899 C 0.9951 0.57962 0.32209 0.0
C4900 C 0.9893 0.56889 0.31574 0.0
C4901 C 0.97577 0.56714 0.31599 0.0
C4902 C 0.03042 0.57883 0.31078 0.0
C4903 C 0.03711 0.58287 0.32206 0.0
C4904 C 0.0168 0.57812 0.31069 0.0
C4905 C 0.00955 0.58129 0.32193 0.0
C4906 C 0.01626 0.58564 0.33312 0.0
C4907 C 0.0299 0.58647 0.33316 0.0
H4908 H 0.44586 0.97206 0.33903 0.0
H4909 H 0.40517 0.96576 0.32971 0.0
H4910 H 0.44197 0.99554 0.34018 0.0
H4911 H 0.40122 0.98926 0.33107 0.0
H4912 H 0.40553 0.03173 0.31555 0.0
H4913 H 0.40722 0.0081 0.31773 0.0
H4914 H 0.4309 0.01294 0.35235 0.0
H4915 H 0.42937 0.03667 0.35003 0.0
C4916 C 0.43605 0.97569 0.3374 0.0
C4917 C 0.42584 0.9671 0.33419 0.0
C4918 C 0.43379 0.98913 0.33815 0.0
C4919 C 0.42129 0.99427 0.33568 0.0
C4920 C 0.411 0.98562 0.33287 0.0
C4921 C 0.41325 0.97216 0.33214 0.0
C4922 C 0.41096 0.02775 0.32373 0.0
C4923 C 0.41739 0.03604 0.33258 0.0
C4924 C 0.41187 0.0142 0.32502 0.0
C4925 C 0.41924 0.00863 0.33518 0.0
C4926 C 0.42528 0.01694 0.34432 0.0
C4927 C 0.42434 0.03052 0.34304 0.0
H4928 H 0.6546 0.9631 0.56479 0.0
H4929 H 0.68166 0.96743 0.59689 0.0
H4930 H 0.65245 0.98679 0.56338 0.0
H4931 H 0.67977 0.99114 0.59528 0.0
H4932 H 0.6674 0.0337 0.59443 0.0
H4933 H 0.66563 0.01012 0.59781 0.0
H4934 H 0.66662 0.00415 0.55601 0.0
H4935 H 0.6681 0.02764 0.55267 0.0
C4936 C 0.66 0.96912 0.57162 0.0
C4937 C 0.66837 0.96344 0.58089 0.0
C4938 C 0.65883 0.98269 0.57076 0.0
C4939 C 0.66604 0.99086 0.57912 0.0
C4940 C 0.67399 0.98514 0.58877 0.0
C4941 C 0.67513 0.97155 0.58965 0.0
C4942 C 0.66709 0.02734 0.58598 0.0
C4943 C 0.66793 0.03249 0.57329 0.0
C4944 C 0.66615 0.01384 0.58791 0.0
C4945 C 0.66601 0.00525 0.57718 0.0
C4946 C 0.66651 0.01048 0.56449 0.0
C4947 C 0.66745 0.02395 0.56257 0.0
H4948 H 0.65851 0.96673 0.41631 0.0
H4949 H 0.6964 0.96925 0.43475 0.0
H4950 H 0.658 0.99054 0.41415 0.0
H4951 H 0.69578 0.99295 0.43286 0.0
H4952 H 0.69735 0.0332 0.4147 0.0
H4953 H 0.6971 0.00946 0.41607 0.0
H4954 H 0.6564 0.01051 0.42728 0.0
H4955 H 0.65659 0.03436 0.42561 0.0
C4956 C 0.6667 0.97238 0.41994 0.0
C4957 C 0.67752 0.96614 0.42564 0.0
C4958 C 0.66637 0.986 0.41877 0.0
C4959 C 0.67688 0.99364 0.42328 0.0
C4960 C 0.68763 0.98735 0.42908 0.0
C4961 C 0.68795 0.97377 0.43024 0.0
C4962 C 0.68833 0.02837 0.41742 0.0
C4963 C 0.677 0.03563 0.4201 0.0
C4964 C 0.68821 0.01476 0.41828 0.0
C4965 C 0.67676 0.00809 0.42189 0.0
C4966 C 0.66535 0.01535 0.42437 0.0
C4967 C 0.66547 0.029 0.42349 0.0
H4968 H 0.03326 0.69541 0.41407 0.0
H4969 H 0.03144 0.65724 0.43197 0.0
H4970 H 0.00965 0.69521 0.41111 0.0
H4971 H 0.00771 0.65715 0.42931 0.0
H4972 H 0.96625 0.65678 0.41268 0.0
H4973 H 0.99013 0.65628 0.4133 0.0
H4974 H 0.99058 0.69692 0.42477 0.0
H4975 H 0.96683 0.69748 0.42386 0.0
C4976 C 0.0278 0.68697 0.41737 0.0
C4977 C 0.03418 0.67637 0.42331 0.0
C4978 C 0.01426 0.68688 0.41574 0.0
C4979 C 0.00677 0.67621 0.42006 0.0
C4980 C 0.0132 0.66547 0.42575 0.0
C4981 C 0.02678 0.66554 0.42734 0.0
C4982 C 0.97149 0.66562 0.41523 0.0
C4983 C 0.96469 0.67717 0.41821 0.0
C4984 C 0.98515 0.66531 0.41567 0.0
C4985 C 0.99227 0.67655 0.4191 0.0
C4986 C 0.98543 0.68814 0.4219 0.0
C4987 C 0.9718 0.68845 0.42145 0.0
H4988 H 0.33619 0.03353 0.41055 0.0
H4989 H 0.31168 0.0301 0.44473 0.0
H4990 H 0.33611 0.00978 0.40811 0.0
H4991 H 0.31186 0.00642 0.44252 0.0
H4992 H 0.30358 0.9657 0.42759 0.0
H4993 H 0.30342 0.98947 0.42863 0.0
H4994 H 0.34443 0.99018 0.41853 0.0
H4995 H 0.34447 0.96634 0.41714 0.0
C4996 C 0.33083 0.02769 0.41756 0.0
C4997 C 0.32392 0.03365 0.42781 0.0
C4998 C 0.33084 0.01409 0.41621 0.0
C4999 C 0.32395 0.00619 0.4251 0.0
C5000 C 0.31708 0.01221 0.43537 0.0
C5001 C 0.31704 0.02578 0.43669 0.0
C5002 C 0.31255 0.97093 0.42554 0.0
C5003 C 0.32405 0.96418 0.42234 0.0
C5004 C 0.31248 0.98455 0.42621 0.0
C5005 C 0.32394 0.99173 0.42377 0.0
C5006 C 0.3354 0.98496 0.42034 0.0
C5007 C 0.33545 0.97131 0.41961 0.0
H5008 H 0.96345 0.32371 0.40326 0.0
H5009 H 0.96849 0.33957 0.44205 0.0
H5010 H 0.98714 0.32412 0.40004 0.0
H5011 H 0.99211 0.33994 0.43885 0.0
H5012 H 0.03321 0.34917 0.42464 0.0
H5013 H 0.00939 0.35087 0.4255 0.0
H5014 H 0.00606 0.31191 0.40961 0.0
H5015 H 0.02984 0.31023 0.40871 0.0
C5016 C 0.96961 0.32737 0.41105 0.0
C5017 C 0.96414 0.33157 0.42292 0.0
C5018 C 0.98316 0.32756 0.40923 0.0
C5019 C 0.99147 0.33206 0.41919 0.0
C5020 C 0.98595 0.33656 0.43093 0.0
C5021 C 0.97243 0.33627 0.43279 0.0
C5022 C 0.02738 0.34104 0.42121 0.0
C5023 C 0.03337 0.32955 0.41666 0.0
C5024 C 0.01376 0.34198 0.42176 0.0
C5025 C 0.00587 0.33151 0.41766 0.0
C5026 C 0.01188 0.32019 0.41271 0.0
C5027 C 0.02549 0.3192 0.41227 0.0
H5028 H 0.31099 0.03068 0.5947 0.0
H5029 H 0.34742 0.03438 0.57371 0.0
H5030 H 0.31264 0.00689 0.59336 0.0
H5031 H 0.34899 0.01055 0.57227 0.0
H5032 H 0.33441 0.96965 0.55705 0.0
H5033 H 0.33526 0.99331 0.56021 0.0
H5034 H 0.32731 0.98815 0.60131 0.0
H5035 H 0.32657 0.96445 0.59819 0.0
C5036 C 0.3194 0.0264 0.58991 0.0
C5037 C 0.32906 0.03436 0.58428 0.0
C5038 C 0.32037 0.0128 0.58919 0.0
C5039 C 0.33093 0.00691 0.58268 0.0
C5040 C 0.34072 0.01486 0.57727 0.0
C5041 C 0.33984 0.02847 0.57815 0.0
C5042 C 0.33296 0.97357 0.56677 0.0
C5043 C 0.33039 0.96523 0.57737 0.0
C5044 C 0.33352 0.98709 0.56859 0.0
C5045 C 0.33134 0.99253 0.581 0.0
C5046 C 0.32895 0.98419 0.59163 0.0
C5047 C 0.32858 0.97065 0.58985 0.0
H5048 H 0.96606 0.31154 0.58871 0.0
H5049 H 0.96434 0.34883 0.56899 0.0
H5050 H 0.98986 0.31243 0.58836 0.0
H5051 H 0.98821 0.34977 0.56875 0.0
H5052 H 0.02956 0.33605 0.5552 0.0
H5053 H 0.00586 0.33769 0.55737 0.0
H5054 H 0.00862 0.32457 0.59739 0.0
H5055 H 0.03231 0.32279 0.59518 0.0
C5056 C 0.97078 0.32 0.58444 0.0
C5057 C 0.96335 0.33009 0.57884 0.0
C5058 C 0.98441 0.32054 0.5843 0.0
C5059 C 0.99091 0.33117 0.57851 0.0
C5060 C 0.98347 0.3414 0.57316 0.0
C5061 C 0.96982 0.34089 0.57337 0.0
C5062 C 0.02511 0.33364 0.56449 0.0
C5063 C 0.03276 0.32922 0.57499 0.0
C5064 C 0.01155 0.33465 0.56576 0.0
C5065 C 0.00538 0.3312 0.57754 0.0
C5066 C 0.01309 0.32714 0.58815 0.0
C5067 C 0.02665 0.32618 0.5869 0.0
H5068 H 0.96671 0.65765 0.5845 0.0
H5069 H 0.9682 0.69259 0.56089 0.0
H5070 H 0.99054 0.65721 0.58538 0.0
H5071 H 0.99195 0.69248 0.56216 0.0
H5072 H 0.03411 0.68135 0.5551 0.0
H5073 H 0.01034 0.68092 0.55418 0.0
H5074 H 0.00907 0.66803 0.59439 0.0
H5075 H 0.03291 0.66799 0.59509 0.0
C5076 C 0.97215 0.6653 0.5796 0.0
C5077 C 0.96562 0.67513 0.57259 0.0
C5078 C 0.9858 0.6651 0.58016 0.0
C5079 C 0.99321 0.67478 0.5738 0.0
C5080 C 0.9866 0.68471 0.56695 0.0
C5081 C 0.97297 0.68484 0.56629 0.0
C5082 C 0.02874 0.67837 0.56372 0.0
C5083 C 0.03534 0.67472 0.57517 0.0
C5084 C 0.01511 0.67821 0.56323 0.0
C5085 C 0.00775 0.67454 0.57425 0.0
C5086 C 0.0144 0.67076 0.58568 0.0
C5087 C 0.02806 0.6708 0.58611 0.0
loop_
_geom_bond_atom_site_label_1
_geom_bond_atom_site_label_2
_geom_bond_distance
_geom_bond_site_symmetry_2
_ccdc_geom_bond_type
In0 O1 2.294 . S
In0 O2 2.326 . S
In0 O6 2.266 . S
In0 O7 2.326 . S
In0 O8 2.266 . S
In0 O9 2.326 . S
In0 O11 2.294 . S
In0 O12 2.326 . S
O1 In0 2.294 . S
O1 C10 1.240 . S
O2 In0 2.326 . S
O2 C10 1.252 . S
C3 O6 1.252 . S
C3 O7 1.260 . S
C4 O11 1.240 . S
C4 O12 1.252 . S
C5 O8 1.252 . S
C5 O9 1.260 . S
O6 In0 2.266 . S
O6 C3 1.252 . S
O7 In0 2.326 . S
O7 C3 1.260 . S
O8 In0 2.266 . S
O8 C5 1.252 . S
O9 In0 2.326 . S
O9 C5 1.260 . S
C10 O1 1.240 . S
C10 O2 1.252 . S
O11 In0 2.294 . S
O11 C4 1.240 . S
O12 In0 2.326 . S
O12 C4 1.252 . S
In13 O14 2.294 . S
In13 O15 2.326 . S
In13 O19 2.266 . S
In13 O20 2.326 . S
In13 O21 2.266 . S
In13 O22 2.326 . S
In13 O24 2.294 . S
In13 O25 2.326 . S
O14 In13 2.294 . S
O14 C23 1.240 . S
O15 In13 2.326 . S
O15 C23 1.252 . S
C16 O19 1.252 . S
C16 O20 1.260 . S
C17 O24 1.240 . S
C17 O25 1.252 . S
C18 O21 1.252 . S
C18 O22 1.260 . S
O19 In13 2.266 . S
O19 C16 1.252 . S
O20 In13 2.326 . S
O20 C16 1.260 . S
O21 In13 2.266 . S
O21 C18 1.252 . S
O22 In13 2.326 . S
O22 C18 1.260 . S
C23 O14 1.240 . S
C23 O15 1.252 . S
O24 In13 2.294 . S
O24 C17 1.240 . S
O25 In13 2.326 . S
O25 C17 1.252 . S
In26 O27 2.294 . S
In26 O28 2.326 . S
In26 O32 2.266 . S
In26 O33 2.326 . S
In26 O34 2.266 . S
In26 O35 2.326 . S
In26 O37 2.294 . S
In26 O38 2.326 . S
O27 In26 2.294 . S
O27 C36 1.240 . S
O28 In26 2.326 . S
O28 C36 1.252 . S
C29 O32 1.252 . S
C29 O33 1.260 . S
C30 O37 1.240 . S
C30 O38 1.252 . S
C31 O34 1.252 . S
C31 O35 1.260 . S
O32 In26 2.266 . S
O32 C29 1.252 . S
O33 In26 2.326 . S
O33 C29 1.260 . S
O34 In26 2.266 . S
O34 C31 1.252 . S
O35 In26 2.326 . S
O35 C31 1.260 . S
C36 O27 1.240 . S
C36 O28 1.252 . S
O37 In26 2.294 . S
O37 C30 1.240 . S
O38 In26 2.326 . S
O38 C30 1.252 . S
In39 O40 2.294 . S
In39 O41 2.326 . S
In39 O45 2.266 . S
In39 O46 2.326 . S
In39 O47 2.266 . S
In39 O48 2.326 . S
In39 O50 2.294 . S
In39 O51 2.326 . S
O40 In39 2.294 . S
O40 C49 1.240 . S
O41 In39 2.326 . S
O41 C49 1.252 . S
C42 O45 1.252 . S
C42 O46 1.260 . S
C43 O50 1.240 . S
C43 O51 1.252 . S
C44 O47 1.252 . S
C44 O48 1.260 . S
O45 In39 2.266 . S
O45 C42 1.252 . S
O46 In39 2.326 . S
O46 C42 1.260 . S
O47 In39 2.266 . S
O47 C44 1.252 . S
O48 In39 2.326 . S
O48 C44 1.260 . S
C49 O40 1.240 . S
C49 O41 1.252 . S
O50 In39 2.294 . S
O50 C43 1.240 . S
O51 In39 2.326 . S
O51 C43 1.252 . S
In52 O53 2.294 . S
In52 O54 2.326 . S
In52 O58 2.266 . S
In52 O59 2.326 . S
In52 O60 2.266 . S
In52 O61 2.326 . S
In52 O63 2.294 . S
In52 O64 2.326 . S
O53 In52 2.294 . S
O53 C62 1.240 . S
O54 In52 2.326 . S
O54 C62 1.252 . S
C55 O58 1.252 . S
C55 O59 1.260 . S
C56 O63 1.240 . S
C56 O64 1.252 . S
C57 O60 1.252 . S
C57 O61 1.260 . S
O58 In52 2.266 . S
O58 C55 1.252 . S
O59 In52 2.326 . S
O59 C55 1.260 . S
O60 In52 2.266 . S
O60 C57 1.252 . S
O61 In52 2.326 . S
O61 C57 1.260 . S
C62 O53 1.240 . S
C62 O54 1.252 . S
O63 In52 2.294 . S
O63 C56 1.240 . S
O64 In52 2.326 . S
O64 C56 1.252 . S
In65 O66 2.294 . S
In65 O67 2.326 . S
In65 O71 2.266 . S
In65 O72 2.326 . S
In65 O73 2.266 . S
In65 O74 2.326 . S
In65 O76 2.294 . S
In65 O77 2.326 . S
O66 In65 2.294 . S
O66 C75 1.240 . S
O67 In65 2.326 . S
O67 C75 1.252 . S
C68 O71 1.252 . S
C68 O72 1.260 . S
C69 O76 1.240 . S
C69 O77 1.252 . S
C70 O73 1.252 . S
C70 O74 1.260 . S
O71 In65 2.266 . S
O71 C68 1.252 . S
O72 In65 2.326 . S
O72 C68 1.260 . S
O73 In65 2.266 . S
O73 C70 1.252 . S
O74 In65 2.326 . S
O74 C70 1.260 . S
C75 O66 1.240 . S
C75 O67 1.252 . S
O76 In65 2.294 . S
O76 C69 1.240 . S
O77 In65 2.326 . S
O77 C69 1.252 . S
In78 O79 2.294 . S
In78 O80 2.326 . S
In78 O84 2.266 . S
In78 O85 2.326 . S
In78 O86 2.266 . S
In78 O87 2.326 . S
In78 O89 2.294 . S
In78 O90 2.326 . S
O79 In78 2.294 . S
O79 C88 1.240 . S
O80 In78 2.326 . S
O80 C88 1.252 . S
C81 O84 1.252 . S
C81 O85 1.260 . S
C82 O89 1.240 . S
C82 O90 1.252 . S
C83 O86 1.252 . S
C83 O87 1.260 . S
O84 In78 2.266 . S
O84 C81 1.252 . S
O85 In78 2.326 . S
O85 C81 1.260 . S
O86 In78 2.266 . S
O86 C83 1.252 . S
O87 In78 2.326 . S
O87 C83 1.260 . S
C88 O79 1.240 . S
C88 O80 1.252 . S
O89 In78 2.294 . S
O89 C82 1.240 . S
O90 In78 2.326 . S
O90 C82 1.252 . S
In91 O92 2.294 . S
In91 O93 2.326 . S
In91 O97 2.266 . S
In91 O98 2.326 . S
In91 O99 2.266 . S
In91 O100 2.326 . S
In91 O102 2.294 . S
In91 O103 2.326 . S
O92 In91 2.294 . S
O92 C101 1.240 . S
O93 In91 2.326 . S
O93 C101 1.252 . S
C94 O97 1.252 . S
C94 O98 1.260 . S
C95 O102 1.240 . S
C95 O103 1.252 . S
C96 O99 1.252 . S
C96 O100 1.260 . S
O97 In91 2.266 . S
O97 C94 1.252 . S
O98 In91 2.326 . S
O98 C94 1.260 . S
O99 In91 2.266 . S
O99 C96 1.252 . S
O100 In91 2.326 . S
O100 C96 1.260 . S
C101 O92 1.240 . S
C101 O93 1.252 . S
O102 In91 2.294 . S
O102 C95 1.240 . S
O103 In91 2.326 . S
O103 C95 1.252 . S
In104 O105 2.294 . S
In104 O106 2.326 . S
In104 O110 2.266 . S
In104 O111 2.326 . S
In104 O112 2.266 . S
In104 O113 2.326 . S
In104 O115 2.294 . S
In104 O116 2.326 . S
O105 In104 2.294 . S
O105 C114 1.240 . S
O106 In104 2.326 . S
O106 C114 1.252 . S
C107 O110 1.252 . S
C107 O111 1.260 . S
C108 O115 1.240 . S
C108 O116 1.252 . S
C109 O112 1.252 . S
C109 O113 1.260 . S
O110 In104 2.266 . S
O110 C107 1.252 . S
O111 In104 2.326 . S
O111 C107 1.260 . S
O112 In104 2.266 . S
O112 C109 1.252 . S
O113 In104 2.326 . S
O113 C109 1.260 . S
C114 O105 1.240 . S
C114 O106 1.252 . S
O115 In104 2.294 . S
O115 C108 1.240 . S
O116 In104 2.326 . S
O116 C108 1.252 . S
In117 O118 2.294 . S
In117 O119 2.326 . S
In117 O123 2.266 . S
In117 O124 2.326 . S
In117 O125 2.266 . S
In117 O126 2.326 . S
In117 O128 2.294 . S
In117 O129 2.326 . S
O118 In117 2.294 . S
O118 C127 1.240 . S
O119 In117 2.326 . S
O119 C127 1.252 . S
C120 O123 1.252 . S
C120 O124 1.260 . S
C121 O128 1.240 . S
C121 O129 1.252 . S
C122 O125 1.252 . S
C122 O126 1.260 . S
O123 In117 2.266 . S
O123 C120 1.252 . S
O124 In117 2.326 . S
O124 C120 1.260 . S
O125 In117 2.266 . S
O125 C122 1.252 . S
O126 In117 2.326 . S
O126 C122 1.260 . S
C127 O118 1.240 . S
C127 O119 1.252 . S
O128 In117 2.294 . S
O128 C121 1.240 . S
O129 In117 2.326 . S
O129 C121 1.252 . S
In130 O131 2.294 . S
In130 O132 2.326 . S
In130 O136 2.266 . S
In130 O137 2.326 . S
In130 O138 2.266 . S
In130 O139 2.326 . S
In130 O141 2.294 . S
In130 O142 2.326 . S
O131 In130 2.294 . S
O131 C140 1.240 . S
O132 In130 2.326 . S
O132 C140 1.252 . S
C133 O136 1.252 . S
C133 O137 1.260 . S
C134 O141 1.240 . S
C134 O142 1.252 . S
C135 O138 1.252 . S
C135 O139 1.260 . S
O136 In130 2.266 . S
O136 C133 1.252 . S
O137 In130 2.326 . S
O137 C133 1.260 . S
O138 In130 2.266 . S
O138 C135 1.252 . S
O139 In130 2.326 . S
O139 C135 1.260 . S
C140 O131 1.240 . S
C140 O132 1.252 . S
O141 In130 2.294 . S
O141 C134 1.240 . S
O142 In130 2.326 . S
O142 C134 1.252 . S
In143 O144 2.294 . S
In143 O145 2.326 . S
In143 O149 2.266 . S
In143 O150 2.326 . S
In143 O151 2.266 . S
In143 O152 2.326 . S
In143 O154 2.294 . S
In143 O155 2.326 . S
O144 In143 2.294 . S
O144 C153 1.240 . S
O145 In143 2.326 . S
O145 C153 1.252 . S
C146 O149 1.252 . S
C146 O150 1.260 . S
C147 O154 1.240 . S
C147 O155 1.252 . S
C148 O151 1.252 . S
C148 O152 1.260 . S
O149 In143 2.266 . S
O149 C146 1.252 . S
O150 In143 2.326 . S
O150 C146 1.260 . S
O151 In143 2.266 . S
O151 C148 1.252 . S
O152 In143 2.326 . S
O152 C148 1.260 . S
C153 O144 1.240 . S
C153 O145 1.252 . S
O154 In143 2.294 . S
O154 C147 1.240 . S
O155 In143 2.326 . S
O155 C147 1.252 . S
In156 O157 2.294 . S
In156 O158 2.326 . S
In156 O162 2.266 . S
In156 O163 2.326 . S
In156 O164 2.266 . S
In156 O165 2.326 . S
In156 O167 2.294 . S
In156 O168 2.326 . S
O157 In156 2.294 . S
O157 C166 1.240 . S
O158 In156 2.326 . S
O158 C166 1.252 . S
C159 O162 1.252 . S
C159 O163 1.260 . S
C160 O167 1.240 . S
C160 O168 1.252 . S
C161 O164 1.252 . S
C161 O165 1.260 . S
O162 In156 2.266 . S
O162 C159 1.252 . S
O163 In156 2.326 . S
O163 C159 1.260 . S
O164 In156 2.266 . S
O164 C161 1.252 . S
O165 In156 2.326 . S
O165 C161 1.260 . S
C166 O157 1.240 . S
C166 O158 1.252 . S
O167 In156 2.294 . S
O167 C160 1.240 . S
O168 In156 2.326 . S
O168 C160 1.252 . S
In169 O170 2.294 . S
In169 O171 2.326 . S
In169 O175 2.266 . S
In169 O176 2.326 . S
In169 O177 2.266 . S
In169 O178 2.326 . S
In169 O180 2.294 . S
In169 O181 2.326 . S
O170 In169 2.294 . S
O170 C179 1.240 . S
O171 In169 2.326 . S
O171 C179 1.252 . S
C172 O175 1.252 . S
C172 O176 1.260 . S
C173 O180 1.240 . S
C173 O181 1.252 . S
C174 O177 1.252 . S
C174 O178 1.260 . S
O175 In169 2.266 . S
O175 C172 1.252 . S
O176 In169 2.326 . S
O176 C172 1.260 . S
O177 In169 2.266 . S
O177 C174 1.252 . S
O178 In169 2.326 . S
O178 C174 1.260 . S
C179 O170 1.240 . S
C179 O171 1.252 . S
O180 In169 2.294 . S
O180 C173 1.240 . S
O181 In169 2.326 . S
O181 C173 1.252 . S
In182 O183 2.294 . S
In182 O184 2.326 . S
In182 O188 2.266 . S
In182 O189 2.326 . S
In182 O190 2.266 . S
In182 O191 2.326 . S
In182 O193 2.294 . S
In182 O194 2.326 . S
O183 In182 2.294 . S
O183 C192 1.240 . S
O184 In182 2.326 . S
O184 C192 1.252 . S
C185 O188 1.252 . S
C185 O189 1.260 . S
C186 O193 1.240 . S
C186 O194 1.252 . S
C187 O190 1.252 . S
C187 O191 1.260 . S
O188 In182 2.266 . S
O188 C185 1.252 . S
O189 In182 2.326 . S
O189 C185 1.260 . S
O190 In182 2.266 . S
O190 C187 1.252 . S
O191 In182 2.326 . S
O191 C187 1.260 . S
C192 O183 1.240 . S
C192 O184 1.252 . S
O193 In182 2.294 . S
O193 C186 1.240 . S
O194 In182 2.326 . S
O194 C186 1.252 . S
In195 O196 2.294 . S
In195 O197 2.326 . S
In195 O201 2.266 . S
In195 O202 2.326 . S
In195 O203 2.266 . S
In195 O204 2.326 . S
In195 O206 2.294 . S
In195 O207 2.326 . S
O196 In195 2.294 . S
O196 C205 1.240 . S
O197 In195 2.326 . S
O197 C205 1.252 . S
C198 O201 1.252 . S
C198 O202 1.260 . S
C199 O206 1.240 . S
C199 O207 1.252 . S
C200 O203 1.252 . S
C200 O204 1.260 . S
O201 In195 2.266 . S
O201 C198 1.252 . S
O202 In195 2.326 . S
O202 C198 1.260 . S
O203 In195 2.266 . S
O203 C200 1.252 . S
O204 In195 2.326 . S
O204 C200 1.260 . S
C205 O196 1.240 . S
C205 O197 1.252 . S
O206 In195 2.294 . S
O206 C199 1.240 . S
O207 In195 2.326 . S
O207 C199 1.252 . S
In208 O209 2.294 . S
In208 O210 2.326 . S
In208 O214 2.266 . S
In208 O215 2.326 . S
In208 O216 2.266 . S
In208 O217 2.326 . S
In208 O219 2.294 . S
In208 O220 2.326 . S
O209 In208 2.294 . S
O209 C218 1.240 . S
O210 In208 2.326 . S
O210 C218 1.252 . S
C211 O214 1.252 . S
C211 O215 1.260 . S
C212 O219 1.240 . S
C212 O220 1.252 . S
C213 O216 1.252 . S
C213 O217 1.260 . S
O214 In208 2.266 . S
O214 C211 1.252 . S
O215 In208 2.326 . S
O215 C211 1.260 . S
O216 In208 2.266 . S
O216 C213 1.252 . S
O217 In208 2.326 . S
O217 C213 1.260 . S
C218 O209 1.240 . S
C218 O210 1.252 . S
O219 In208 2.294 . S
O219 C212 1.240 . S
O220 In208 2.326 . S
O220 C212 1.252 . S
In221 O222 2.294 . S
In221 O223 2.326 . S
In221 O227 2.266 . S
In221 O228 2.326 . S
In221 O229 2.266 . S
In221 O230 2.326 . S
In221 O232 2.294 . S
In221 O233 2.326 . S
O222 In221 2.294 . S
O222 C231 1.240 . S
O223 In221 2.326 . S
O223 C231 1.252 . S
C224 O227 1.252 . S
C224 O228 1.260 . S
C225 O232 1.240 . S
C225 O233 1.252 . S
C226 O229 1.252 . S
C226 O230 1.260 . S
O227 In221 2.266 . S
O227 C224 1.252 . S
O228 In221 2.326 . S
O228 C224 1.260 . S
O229 In221 2.266 . S
O229 C226 1.252 . S
O230 In221 2.326 . S
O230 C226 1.260 . S
C231 O222 1.240 . S
C231 O223 1.252 . S
O232 In221 2.294 . S
O232 C225 1.240 . S
O233 In221 2.326 . S
O233 C225 1.252 . S
In234 O235 2.294 . S
In234 O236 2.326 . S
In234 O240 2.266 . S
In234 O241 2.326 . S
In234 O242 2.266 . S
In234 O243 2.326 . S
In234 O245 2.294 . S
In234 O246 2.326 . S
O235 In234 2.294 . S
O235 C244 1.240 . S
O236 In234 2.326 . S
O236 C244 1.252 . S
C237 O240 1.252 . S
C237 O241 1.260 . S
C238 O245 1.240 . S
C238 O246 1.252 . S
C239 O242 1.252 . S
C239 O243 1.260 . S
O240 In234 2.266 . S
O240 C237 1.252 . S
O241 In234 2.326 . S
O241 C237 1.260 . S
O242 In234 2.266 . S
O242 C239 1.252 . S
O243 In234 2.326 . S
O243 C239 1.260 . S
C244 O235 1.240 . S
C244 O236 1.252 . S
O245 In234 2.294 . S
O245 C238 1.240 . S
O246 In234 2.326 . S
O246 C238 1.252 . S
In247 O248 2.294 . S
In247 O249 2.326 . S
In247 O253 2.266 . S
In247 O254 2.326 . S
In247 O255 2.266 . S
In247 O256 2.326 . S
In247 O258 2.294 . S
In247 O259 2.326 . S
O248 In247 2.294 . S
O248 C257 1.240 . S
O249 In247 2.326 . S
O249 C257 1.252 . S
C250 O253 1.252 . S
C250 O254 1.260 . S
C251 O258 1.240 . S
C251 O259 1.252 . S
C252 O255 1.252 . S
C252 O256 1.260 . S
O253 In247 2.266 . S
O253 C250 1.252 . S
O254 In247 2.326 . S
O254 C250 1.260 . S
O255 In247 2.266 . S
O255 C252 1.252 . S
O256 In247 2.326 . S
O256 C252 1.260 . S
C257 O248 1.240 . S
C257 O249 1.252 . S
O258 In247 2.294 . S
O258 C251 1.240 . S
O259 In247 2.326 . S
O259 C251 1.252 . S
In260 O261 2.294 . S
In260 O262 2.326 . S
In260 O266 2.266 . S
In260 O267 2.326 . S
In260 O268 2.266 . S
In260 O269 2.326 . S
In260 O271 2.294 . S
In260 O272 2.326 . S
O261 In260 2.294 . S
O261 C270 1.240 . S
O262 In260 2.326 . S
O262 C270 1.252 . S
C263 O266 1.252 . S
C263 O267 1.260 . S
C264 O271 1.240 . S
C264 O272 1.252 . S
C265 O268 1.252 . S
C265 O269 1.260 . S
O266 In260 2.266 . S
O266 C263 1.252 . S
O267 In260 2.326 . S
O267 C263 1.260 . S
O268 In260 2.266 . S
O268 C265 1.252 . S
O269 In260 2.326 . S
O269 C265 1.260 . S
C270 O261 1.240 . S
C270 O262 1.252 . S
O271 In260 2.294 . S
O271 C264 1.240 . S
O272 In260 2.326 . S
O272 C264 1.252 . S
In273 O274 2.294 . S
In273 O275 2.326 . S
In273 O279 2.266 . S
In273 O280 2.326 . S
In273 O281 2.266 . S
In273 O282 2.326 . S
In273 O284 2.294 . S
In273 O285 2.326 . S
O274 In273 2.294 . S
O274 C283 1.240 . S
O275 In273 2.326 . S
O275 C283 1.252 . S
C276 O279 1.252 . S
C276 O280 1.260 . S
C277 O284 1.240 . S
C277 O285 1.252 . S
C278 O281 1.252 . S
C278 O282 1.260 . S
O279 In273 2.266 . S
O279 C276 1.252 . S
O280 In273 2.326 . S
O280 C276 1.260 . S
O281 In273 2.266 . S
O281 C278 1.252 . S
O282 In273 2.326 . S
O282 C278 1.260 . S
C283 O274 1.240 . S
C283 O275 1.252 . S
O284 In273 2.294 . S
O284 C277 1.240 . S
O285 In273 2.326 . S
O285 C277 1.252 . S
In286 O287 2.294 . S
In286 O288 2.326 . S
In286 O292 2.266 . S
In286 O293 2.326 . S
In286 O294 2.266 . S
In286 O295 2.326 . S
In286 O297 2.294 . S
In286 O298 2.326 . S
O287 In286 2.294 . S
O287 C296 1.240 . S
O288 In286 2.326 . S
O288 C296 1.252 . S
C289 O292 1.252 . S
C289 O293 1.260 . S
C290 O297 1.240 . S
C290 O298 1.252 . S
C291 O294 1.252 . S
C291 O295 1.260 . S
O292 In286 2.266 . S
O292 C289 1.252 . S
O293 In286 2.326 . S
O293 C289 1.260 . S
O294 In286 2.266 . S
O294 C291 1.252 . S
O295 In286 2.326 . S
O295 C291 1.260 . S
C296 O287 1.240 . S
C296 O288 1.252 . S
O297 In286 2.294 . S
O297 C290 1.240 . S
O298 In286 2.326 . S
O298 C290 1.252 . S
In299 O300 2.294 . S
In299 O301 2.326 . S
In299 O305 2.266 . S
In299 O306 2.326 . S
In299 O307 2.266 . S
In299 O308 2.326 . S
In299 O310 2.294 . S
In299 O311 2.326 . S
O300 In299 2.294 . S
O300 C309 1.240 . S
O301 In299 2.326 . S
O301 C309 1.252 . S
C302 O305 1.252 . S
C302 O306 1.260 . S
C303 O310 1.240 . S
C303 O311 1.252 . S
C304 O307 1.252 . S
C304 O308 1.260 . S
O305 In299 2.266 . S
O305 C302 1.252 . S
O306 In299 2.326 . S
O306 C302 1.260 . S
O307 In299 2.266 . S
O307 C304 1.252 . S
O308 In299 2.326 . S
O308 C304 1.260 . S
C309 O300 1.240 . S
C309 O301 1.252 . S
O310 In299 2.294 . S
O310 C303 1.240 . S
O311 In299 2.326 . S
O311 C303 1.252 . S
In312 O313 2.294 . S
In312 O314 2.326 . S
In312 O318 2.266 . S
In312 O319 2.326 . S
In312 O320 2.266 . S
In312 O321 2.326 . S
In312 O323 2.294 . S
In312 O324 2.326 . S
O313 In312 2.294 . S
O313 C322 1.240 . S
O314 In312 2.326 . S
O314 C322 1.252 . S
C315 O318 1.252 . S
C315 O319 1.260 . S
C316 O323 1.240 . S
C316 O324 1.252 . S
C317 O320 1.252 . S
C317 O321 1.260 . S
O318 In312 2.266 . S
O318 C315 1.252 . S
O319 In312 2.326 . S
O319 C315 1.260 . S
O320 In312 2.266 . S
O320 C317 1.252 . S
O321 In312 2.326 . S
O321 C317 1.260 . S
C322 O313 1.240 . S
C322 O314 1.252 . S
O323 In312 2.294 . S
O323 C316 1.240 . S
O324 In312 2.326 . S
O324 C316 1.252 . S
In325 O326 2.294 . S
In325 O327 2.326 . S
In325 O331 2.266 . S
In325 O332 2.326 . S
In325 O333 2.266 . S
In325 O334 2.326 . S
In325 O336 2.294 . S
In325 O337 2.326 . S
O326 In325 2.294 . S
O326 C335 1.240 . S
O327 In325 2.326 . S
O327 C335 1.252 . S
C328 O331 1.252 . S
C328 O332 1.260 . S
C329 O336 1.240 . S
C329 O337 1.252 . S
C330 O333 1.252 . S
C330 O334 1.260 . S
O331 In325 2.266 . S
O331 C328 1.252 . S
O332 In325 2.326 . S
O332 C328 1.260 . S
O333 In325 2.266 . S
O333 C330 1.252 . S
O334 In325 2.326 . S
O334 C330 1.260 . S
C335 O326 1.240 . S
C335 O327 1.252 . S
O336 In325 2.294 . S
O336 C329 1.240 . S
O337 In325 2.326 . S
O337 C329 1.252 . S
In338 O339 2.294 . S
In338 O340 2.326 . S
In338 O344 2.266 . S
In338 O345 2.326 . S
In338 O346 2.266 . S
In338 O347 2.326 . S
In338 O349 2.294 . S
In338 O350 2.326 . S
O339 In338 2.294 . S
O339 C348 1.240 . S
O340 In338 2.326 . S
O340 C348 1.252 . S
C341 O344 1.252 . S
C341 O345 1.260 . S
C342 O349 1.240 . S
C342 O350 1.252 . S
C343 O346 1.252 . S
C343 O347 1.260 . S
O344 In338 2.266 . S
O344 C341 1.252 . S
O345 In338 2.326 . S
O345 C341 1.260 . S
O346 In338 2.266 . S
O346 C343 1.252 . S
O347 In338 2.326 . S
O347 C343 1.260 . S
C348 O339 1.240 . S
C348 O340 1.252 . S
O349 In338 2.294 . S
O349 C342 1.240 . S
O350 In338 2.326 . S
O350 C342 1.252 . S
In351 O352 2.294 . S
In351 O353 2.326 . S
In351 O357 2.266 . S
In351 O358 2.326 . S
In351 O359 2.266 . S
In351 O360 2.326 . S
In351 O362 2.294 . S
In351 O363 2.326 . S
O352 In351 2.294 . S
O352 C361 1.240 . S
O353 In351 2.326 . S
O353 C361 1.252 . S
C354 O357 1.252 . S
C354 O358 1.260 . S
C355 O362 1.240 . S
C355 O363 1.252 . S
C356 O359 1.252 . S
C356 O360 1.260 . S
O357 In351 2.266 . S
O357 C354 1.252 . S
O358 In351 2.326 . S
O358 C354 1.260 . S
O359 In351 2.266 . S
O359 C356 1.252 . S
O360 In351 2.326 . S
O360 C356 1.260 . S
C361 O352 1.240 . S
C361 O353 1.252 . S
O362 In351 2.294 . S
O362 C355 1.240 . S
O363 In351 2.326 . S
O363 C355 1.252 . S
In364 O365 2.294 . S
In364 O366 2.326 . S
In364 O370 2.266 . S
In364 O371 2.326 . S
In364 O372 2.266 . S
In364 O373 2.326 . S
In364 O375 2.294 . S
In364 O376 2.326 . S
O365 In364 2.294 . S
O365 C374 1.240 . S
O366 In364 2.326 . S
O366 C374 1.252 . S
C367 O370 1.252 . S
C367 O371 1.260 . S
C368 O375 1.240 . S
C368 O376 1.252 . S
C369 O372 1.252 . S
C369 O373 1.260 . S
O370 In364 2.266 . S
O370 C367 1.252 . S
O371 In364 2.326 . S
O371 C367 1.260 . S
O372 In364 2.266 . S
O372 C369 1.252 . S
O373 In364 2.326 . S
O373 C369 1.260 . S
C374 O365 1.240 . S
C374 O366 1.252 . S
O375 In364 2.294 . S
O375 C368 1.240 . S
O376 In364 2.326 . S
O376 C368 1.252 . S
In377 O378 2.294 . S
In377 O379 2.326 . S
In377 O383 2.266 . S
In377 O384 2.326 . S
In377 O385 2.266 . S
In377 O386 2.326 . S
In377 O388 2.294 . S
In377 O389 2.326 . S
O378 In377 2.294 . S
O378 C387 1.240 . S
O379 In377 2.326 . S
O379 C387 1.252 . S
C380 O383 1.252 . S
C380 O384 1.260 . S
C381 O388 1.240 . S
C381 O389 1.252 . S
C382 O385 1.252 . S
C382 O386 1.260 . S
O383 In377 2.266 . S
O383 C380 1.252 . S
O384 In377 2.326 . S
O384 C380 1.260 . S
O385 In377 2.266 . S
O385 C382 1.252 . S
O386 In377 2.326 . S
O386 C382 1.260 . S
C387 O378 1.240 . S
C387 O379 1.252 . S
O388 In377 2.294 . S
O388 C381 1.240 . S
O389 In377 2.326 . S
O389 C381 1.252 . S
In390 O391 2.294 . S
In390 O392 2.326 . S
In390 O396 2.266 . S
In390 O397 2.326 . S
In390 O398 2.266 . S
In390 O399 2.326 . S
In390 O401 2.294 . S
In390 O402 2.326 . S
O391 In390 2.294 . S
O391 C400 1.240 . S
O392 In390 2.326 . S
O392 C400 1.252 . S
C393 O396 1.252 . S
C393 O397 1.260 . S
C394 O401 1.240 . S
C394 O402 1.252 . S
C395 O398 1.252 . S
C395 O399 1.260 . S
O396 In390 2.266 . S
O396 C393 1.252 . S
O397 In390 2.326 . S
O397 C393 1.260 . S
O398 In390 2.266 . S
O398 C395 1.252 . S
O399 In390 2.326 . S
O399 C395 1.260 . S
C400 O391 1.240 . S
C400 O392 1.252 . S
O401 In390 2.294 . S
O401 C394 1.240 . S
O402 In390 2.326 . S
O402 C394 1.252 . S
In403 O404 2.294 . S
In403 O405 2.326 . S
In403 O409 2.266 . S
In403 O410 2.326 . S
In403 O411 2.266 . S
In403 O412 2.326 . S
In403 O414 2.294 . S
In403 O415 2.326 . S
O404 In403 2.294 . S
O404 C413 1.240 . S
O405 In403 2.326 . S
O405 C413 1.252 . S
C406 O409 1.252 . S
C406 O410 1.260 . S
C407 O414 1.240 . S
C407 O415 1.252 . S
C408 O411 1.252 . S
C408 O412 1.260 . S
O409 In403 2.266 . S
O409 C406 1.252 . S
O410 In403 2.326 . S
O410 C406 1.260 . S
O411 In403 2.266 . S
O411 C408 1.252 . S
O412 In403 2.326 . S
O412 C408 1.260 . S
C413 O404 1.240 . S
C413 O405 1.252 . S
O414 In403 2.294 . S
O414 C407 1.240 . S
O415 In403 2.326 . S
O415 C407 1.252 . S
In416 O417 2.294 . S
In416 O418 2.326 . S
In416 O422 2.266 . S
In416 O423 2.326 . S
In416 O424 2.266 . S
In416 O425 2.326 . S
In416 O427 2.294 . S
In416 O428 2.326 . S
O417 In416 2.294 . S
O417 C426 1.240 . S
O418 In416 2.326 . S
O418 C426 1.252 . S
C419 O422 1.252 . S
C419 O423 1.260 . S
C420 O427 1.240 . S
C420 O428 1.252 . S
C421 O424 1.252 . S
C421 O425 1.260 . S
O422 In416 2.266 . S
O422 C419 1.252 . S
O423 In416 2.326 . S
O423 C419 1.260 . S
O424 In416 2.266 . S
O424 C421 1.252 . S
O425 In416 2.326 . S
O425 C421 1.260 . S
C426 O417 1.240 . S
C426 O418 1.252 . S
O427 In416 2.294 . S
O427 C420 1.240 . S
O428 In416 2.326 . S
O428 C420 1.252 . S
In429 O430 2.294 . S
In429 O431 2.326 . S
In429 O435 2.266 . S
In429 O436 2.326 . S
In429 O437 2.266 . S
In429 O438 2.326 . S
In429 O440 2.294 . S
In429 O441 2.326 . S
O430 In429 2.294 . S
O430 C439 1.240 . S
O431 In429 2.326 . S
O431 C439 1.252 . S
C432 O435 1.252 . S
C432 O436 1.260 . S
C433 O440 1.240 . S
C433 O441 1.252 . S
C434 O437 1.252 . S
C434 O438 1.260 . S
O435 In429 2.266 . S
O435 C432 1.252 . S
O436 In429 2.326 . S
O436 C432 1.260 . S
O437 In429 2.266 . S
O437 C434 1.252 . S
O438 In429 2.326 . S
O438 C434 1.260 . S
C439 O430 1.240 . S
C439 O431 1.252 . S
O440 In429 2.294 . S
O440 C433 1.240 . S
O441 In429 2.326 . S
O441 C433 1.252 . S
In442 O443 2.294 . S
In442 O444 2.326 . S
In442 O448 2.266 . S
In442 O449 2.326 . S
In442 O450 2.266 . S
In442 O451 2.326 . S
In442 O453 2.294 . S
In442 O454 2.326 . S
O443 In442 2.294 . S
O443 C452 1.240 . S
O444 In442 2.326 . S
O444 C452 1.252 . S
C445 O448 1.252 . S
C445 O449 1.260 . S
C446 O453 1.240 . S
C446 O454 1.252 . S
C447 O450 1.252 . S
C447 O451 1.260 . S
O448 In442 2.266 . S
O448 C445 1.252 . S
O449 In442 2.326 . S
O449 C445 1.260 . S
O450 In442 2.266 . S
O450 C447 1.252 . S
O451 In442 2.326 . S
O451 C447 1.260 . S
C452 O443 1.240 . S
C452 O444 1.252 . S
O453 In442 2.294 . S
O453 C446 1.240 . S
O454 In442 2.326 . S
O454 C446 1.252 . S
In455 O456 2.294 . S
In455 O457 2.326 . S
In455 O461 2.266 . S
In455 O462 2.326 . S
In455 O463 2.266 . S
In455 O464 2.326 . S
In455 O466 2.294 . S
In455 O467 2.326 . S
O456 In455 2.294 . S
O456 C465 1.240 . S
O457 In455 2.326 . S
O457 C465 1.252 . S
C458 O461 1.252 . S
C458 O462 1.260 . S
C459 O466 1.240 . S
C459 O467 1.252 . S
C460 O463 1.252 . S
C460 O464 1.260 . S
O461 In455 2.266 . S
O461 C458 1.252 . S
O462 In455 2.326 . S
O462 C458 1.260 . S
O463 In455 2.266 . S
O463 C460 1.252 . S
O464 In455 2.326 . S
O464 C460 1.260 . S
C465 O456 1.240 . S
C465 O457 1.252 . S
O466 In455 2.294 . S
O466 C459 1.240 . S
O467 In455 2.326 . S
O467 C459 1.252 . S
In468 O469 2.294 . S
In468 O470 2.326 . S
In468 O474 2.266 . S
In468 O475 2.326 . S
In468 O476 2.266 . S
In468 O477 2.326 . S
In468 O479 2.294 . S
In468 O480 2.326 . S
O469 In468 2.294 . S
O469 C478 1.240 . S
O470 In468 2.326 . S
O470 C478 1.252 . S
C471 O474 1.252 . S
C471 O475 1.260 . S
C472 O479 1.240 . S
C472 O480 1.252 . S
C473 O476 1.252 . S
C473 O477 1.260 . S
O474 In468 2.266 . S
O474 C471 1.252 . S
O475 In468 2.326 . S
O475 C471 1.260 . S
O476 In468 2.266 . S
O476 C473 1.252 . S
O477 In468 2.326 . S
O477 C473 1.260 . S
C478 O469 1.240 . S
C478 O470 1.252 . S
O479 In468 2.294 . S
O479 C472 1.240 . S
O480 In468 2.326 . S
O480 C472 1.252 . S
In481 O482 2.294 . S
In481 O483 2.326 . S
In481 O487 2.266 . S
In481 O488 2.326 . S
In481 O489 2.266 . S
In481 O490 2.326 . S
In481 O492 2.294 . S
In481 O493 2.326 . S
O482 In481 2.294 . S
O482 C491 1.240 . S
O483 In481 2.326 . S
O483 C491 1.252 . S
C484 O487 1.252 . S
C484 O488 1.260 . S
C485 O492 1.240 . S
C485 O493 1.252 . S
C486 O489 1.252 . S
C486 O490 1.260 . S
O487 In481 2.266 . S
O487 C484 1.252 . S
O488 In481 2.326 . S
O488 C484 1.260 . S
O489 In481 2.266 . S
O489 C486 1.252 . S
O490 In481 2.326 . S
O490 C486 1.260 . S
C491 O482 1.240 . S
C491 O483 1.252 . S
O492 In481 2.294 . S
O492 C485 1.240 . S
O493 In481 2.326 . S
O493 C485 1.252 . S
In494 O495 2.294 . S
In494 O496 2.326 . S
In494 O500 2.266 . S
In494 O501 2.326 . S
In494 O502 2.266 . S
In494 O503 2.326 . S
In494 O505 2.294 . S
In494 O506 2.326 . S
O495 In494 2.294 . S
O495 C504 1.240 . S
O496 In494 2.326 . S
O496 C504 1.252 . S
C497 O500 1.252 . S
C497 O501 1.260 . S
C498 O505 1.240 . S
C498 O506 1.252 . S
C499 O502 1.252 . S
C499 O503 1.260 . S
O500 In494 2.266 . S
O500 C497 1.252 . S
O501 In494 2.326 . S
O501 C497 1.260 . S
O502 In494 2.266 . S
O502 C499 1.252 . S
O503 In494 2.326 . S
O503 C499 1.260 . S
C504 O495 1.240 . S
C504 O496 1.252 . S
O505 In494 2.294 . S
O505 C498 1.240 . S
O506 In494 2.326 . S
O506 C498 1.252 . S
In507 O508 2.294 . S
In507 O509 2.326 . S
In507 O513 2.266 . S
In507 O514 2.326 . S
In507 O515 2.266 . S
In507 O516 2.326 . S
In507 O518 2.294 . S
In507 O519 2.326 . S
O508 In507 2.294 . S
O508 C517 1.240 . S
O509 In507 2.326 . S
O509 C517 1.252 . S
C510 O513 1.252 . S
C510 O514 1.260 . S
C511 O518 1.240 . S
C511 O519 1.252 . S
C512 O515 1.252 . S
C512 O516 1.260 . S
O513 In507 2.266 . S
O513 C510 1.252 . S
O514 In507 2.326 . S
O514 C510 1.260 . S
O515 In507 2.266 . S
O515 C512 1.252 . S
O516 In507 2.326 . S
O516 C512 1.260 . S
C517 O508 1.240 . S
C517 O509 1.252 . S
O518 In507 2.294 . S
O518 C511 1.240 . S
O519 In507 2.326 . S
O519 C511 1.252 . S
In520 O521 2.294 . S
In520 O522 2.326 . S
In520 O526 2.266 . S
In520 O527 2.326 . S
In520 O528 2.266 . S
In520 O529 2.326 . S
In520 O531 2.294 . S
In520 O532 2.326 . S
O521 In520 2.294 . S
O521 C530 1.240 . S
O522 In520 2.326 . S
O522 C530 1.252 . S
C523 O526 1.252 . S
C523 O527 1.260 . S
C524 O531 1.240 . S
C524 O532 1.252 . S
C525 O528 1.252 . S
C525 O529 1.260 . S
O526 In520 2.266 . S
O526 C523 1.252 . S
O527 In520 2.326 . S
O527 C523 1.260 . S
O528 In520 2.266 . S
O528 C525 1.252 . S
O529 In520 2.326 . S
O529 C525 1.260 . S
C530 O521 1.240 . S
C530 O522 1.252 . S
O531 In520 2.294 . S
O531 C524 1.240 . S
O532 In520 2.326 . S
O532 C524 1.252 . S
In533 O534 2.294 . S
In533 O535 2.326 . S
In533 O539 2.266 . S
In533 O540 2.326 . S
In533 O541 2.266 . S
In533 O542 2.326 . S
In533 O544 2.294 . S
In533 O545 2.326 . S
O534 In533 2.294 . S
O534 C543 1.240 . S
O535 In533 2.326 . S
O535 C543 1.252 . S
C536 O539 1.252 . S
C536 O540 1.260 . S
C537 O544 1.240 . S
C537 O545 1.252 . S
C538 O541 1.252 . S
C538 O542 1.260 . S
O539 In533 2.266 . S
O539 C536 1.252 . S
O540 In533 2.326 . S
O540 C536 1.260 . S
O541 In533 2.266 . S
O541 C538 1.252 . S
O542 In533 2.326 . S
O542 C538 1.260 . S
C543 O534 1.240 . S
C543 O535 1.252 . S
O544 In533 2.294 . S
O544 C537 1.240 . S
O545 In533 2.326 . S
O545 C537 1.252 . S
In546 O547 2.294 . S
In546 O548 2.326 . S
In546 O552 2.266 . S
In546 O553 2.326 . S
In546 O554 2.266 . S
In546 O555 2.326 . S
In546 O557 2.294 . S
In546 O558 2.326 . S
O547 In546 2.294 . S
O547 C556 1.240 . S
O548 In546 2.326 . S
O548 C556 1.252 . S
C549 O552 1.252 . S
C549 O553 1.260 . S
C550 O557 1.240 . S
C550 O558 1.252 . S
C551 O554 1.252 . S
C551 O555 1.260 . S
O552 In546 2.266 . S
O552 C549 1.252 . S
O553 In546 2.326 . S
O553 C549 1.260 . S
O554 In546 2.266 . S
O554 C551 1.252 . S
O555 In546 2.326 . S
O555 C551 1.260 . S
C556 O547 1.240 . S
C556 O548 1.252 . S
O557 In546 2.294 . S
O557 C550 1.240 . S
O558 In546 2.326 . S
O558 C550 1.252 . S
In559 O560 2.294 . S
In559 O561 2.326 . S
In559 O565 2.266 . S
In559 O566 2.326 . S
In559 O567 2.266 . S
In559 O568 2.326 . S
In559 O570 2.294 . S
In559 O571 2.326 . S
O560 In559 2.294 . S
O560 C569 1.240 . S
O561 In559 2.326 . S
O561 C569 1.252 . S
C562 O565 1.252 . S
C562 O566 1.260 . S
C563 O570 1.240 . S
C563 O571 1.252 . S
C564 O567 1.252 . S
C564 O568 1.260 . S
O565 In559 2.266 . S
O565 C562 1.252 . S
O566 In559 2.326 . S
O566 C562 1.260 . S
O567 In559 2.266 . S
O567 C564 1.252 . S
O568 In559 2.326 . S
O568 C564 1.260 . S
C569 O560 1.240 . S
C569 O561 1.252 . S
O570 In559 2.294 . S
O570 C563 1.240 . S
O571 In559 2.326 . S
O571 C563 1.252 . S
In572 O573 2.294 . S
In572 O574 2.326 . S
In572 O578 2.266 . S
In572 O579 2.326 . S
In572 O580 2.266 . S
In572 O581 2.326 . S
In572 O583 2.294 . S
In572 O584 2.326 . S
O573 In572 2.294 . S
O573 C582 1.240 . S
O574 In572 2.326 . S
O574 C582 1.252 . S
C575 O578 1.252 . S
C575 O579 1.260 . S
C576 O583 1.240 . S
C576 O584 1.252 . S
C577 O580 1.252 . S
C577 O581 1.260 . S
O578 In572 2.266 . S
O578 C575 1.252 . S
O579 In572 2.326 . S
O579 C575 1.260 . S
O580 In572 2.266 . S
O580 C577 1.252 . S
O581 In572 2.326 . S
O581 C577 1.260 . S
C582 O573 1.240 . S
C582 O574 1.252 . S
O583 In572 2.294 . S
O583 C576 1.240 . S
O584 In572 2.326 . S
O584 C576 1.252 . S
In585 O586 2.294 . S
In585 O587 2.326 . S
In585 O591 2.266 . S
In585 O592 2.326 . S
In585 O593 2.266 . S
In585 O594 2.326 . S
In585 O596 2.294 . S
In585 O597 2.326 . S
O586 In585 2.294 . S
O586 C595 1.240 . S
O587 In585 2.326 . S
O587 C595 1.252 . S
C588 O591 1.252 . S
C588 O592 1.260 . S
C589 O596 1.240 . S
C589 O597 1.252 . S
C590 O593 1.252 . S
C590 O594 1.260 . S
O591 In585 2.266 . S
O591 C588 1.252 . S
O592 In585 2.326 . S
O592 C588 1.260 . S
O593 In585 2.266 . S
O593 C590 1.252 . S
O594 In585 2.326 . S
O594 C590 1.260 . S
C595 O586 1.240 . S
C595 O587 1.252 . S
O596 In585 2.294 . S
O596 C589 1.240 . S
O597 In585 2.326 . S
O597 C589 1.252 . S
In598 O599 2.294 . S
In598 O600 2.326 . S
In598 O604 2.266 . S
In598 O605 2.326 . S
In598 O606 2.266 . S
In598 O607 2.326 . S
In598 O609 2.294 . S
In598 O610 2.326 . S
O599 In598 2.294 . S
O599 C608 1.240 . S
O600 In598 2.326 . S
O600 C608 1.252 . S
C601 O604 1.252 . S
C601 O605 1.260 . S
C602 O609 1.240 . S
C602 O610 1.252 . S
C603 O606 1.252 . S
C603 O607 1.260 . S
O604 In598 2.266 . S
O604 C601 1.252 . S
O605 In598 2.326 . S
O605 C601 1.260 . S
O606 In598 2.266 . S
O606 C603 1.252 . S
O607 In598 2.326 . S
O607 C603 1.260 . S
C608 O599 1.240 . S
C608 O600 1.252 . S
O609 In598 2.294 . S
O609 C602 1.240 . S
O610 In598 2.326 . S
O610 C602 1.252 . S
In611 O612 2.294 . S
In611 O613 2.326 . S
In611 O617 2.266 . S
In611 O618 2.326 . S
In611 O619 2.266 . S
In611 O620 2.326 . S
In611 O622 2.294 . S
In611 O623 2.326 . S
O612 In611 2.294 . S
O612 C621 1.240 . S
O613 In611 2.326 . S
O613 C621 1.252 . S
C614 O617 1.252 . S
C614 O618 1.260 . S
C615 O622 1.240 . S
C615 O623 1.252 . S
C616 O619 1.252 . S
C616 O620 1.260 . S
O617 In611 2.266 . S
O617 C614 1.252 . S
O618 In611 2.326 . S
O618 C614 1.260 . S
O619 In611 2.266 . S
O619 C616 1.252 . S
O620 In611 2.326 . S
O620 C616 1.260 . S
C621 O612 1.240 . S
C621 O613 1.252 . S
O622 In611 2.294 . S
O622 C615 1.240 . S
O623 In611 2.326 . S
O623 C615 1.252 . S
In624 O625 2.294 . S
In624 O626 2.326 . S
In624 O630 2.266 . S
In624 O631 2.326 . S
In624 O632 2.266 . S
In624 O633 2.326 . S
In624 O635 2.294 . S
In624 O636 2.326 . S
O625 In624 2.294 . S
O625 C634 1.240 . S
O626 In624 2.326 . S
O626 C634 1.252 . S
C627 O630 1.252 . S
C627 O631 1.260 . S
C628 O635 1.240 . S
C628 O636 1.252 . S
C629 O632 1.252 . S
C629 O633 1.260 . S
O630 In624 2.266 . S
O630 C627 1.252 . S
O631 In624 2.326 . S
O631 C627 1.260 . S
O632 In624 2.266 . S
O632 C629 1.252 . S
O633 In624 2.326 . S
O633 C629 1.260 . S
C634 O625 1.240 . S
C634 O626 1.252 . S
O635 In624 2.294 . S
O635 C628 1.240 . S
O636 In624 2.326 . S
O636 C628 1.252 . S
In637 O638 2.294 . S
In637 O639 2.326 . S
In637 O643 2.266 . S
In637 O644 2.326 . S
In637 O645 2.266 . S
In637 O646 2.326 . S
In637 O648 2.294 . S
In637 O649 2.326 . S
O638 In637 2.294 . S
O638 C647 1.240 . S
O639 In637 2.326 . S
O639 C647 1.252 . S
C640 O643 1.252 . S
C640 O644 1.260 . S
C641 O648 1.240 . S
C641 O649 1.252 . S
C642 O645 1.252 . S
C642 O646 1.260 . S
O643 In637 2.266 . S
O643 C640 1.252 . S
O644 In637 2.326 . S
O644 C640 1.260 . S
O645 In637 2.266 . S
O645 C642 1.252 . S
O646 In637 2.326 . S
O646 C642 1.260 . S
C647 O638 1.240 . S
C647 O639 1.252 . S
O648 In637 2.294 . S
O648 C641 1.240 . S
O649 In637 2.326 . S
O649 C641 1.252 . S
In650 O651 2.294 . S
In650 O652 2.326 . S
In650 O656 2.266 . S
In650 O657 2.326 . S
In650 O658 2.266 . S
In650 O659 2.326 . S
In650 O661 2.294 . S
In650 O662 2.326 . S
O651 In650 2.294 . S
O651 C660 1.240 . S
O652 In650 2.326 . S
O652 C660 1.252 . S
C653 O656 1.252 . S
C653 O657 1.260 . S
C654 O661 1.240 . S
C654 O662 1.252 . S
C655 O658 1.252 . S
C655 O659 1.260 . S
O656 In650 2.266 . S
O656 C653 1.252 . S
O657 In650 2.326 . S
O657 C653 1.260 . S
O658 In650 2.266 . S
O658 C655 1.252 . S
O659 In650 2.326 . S
O659 C655 1.260 . S
C660 O651 1.240 . S
C660 O652 1.252 . S
O661 In650 2.294 . S
O661 C654 1.240 . S
O662 In650 2.326 . S
O662 C654 1.252 . S
In663 O664 2.294 . S
In663 O665 2.326 . S
In663 O669 2.266 . S
In663 O670 2.326 . S
In663 O671 2.266 . S
In663 O672 2.326 . S
In663 O674 2.294 . S
In663 O675 2.326 . S
O664 In663 2.294 . S
O664 C673 1.240 . S
O665 In663 2.326 . S
O665 C673 1.252 . S
C666 O669 1.252 . S
C666 O670 1.260 . S
C667 O674 1.240 . S
C667 O675 1.252 . S
C668 O671 1.252 . S
C668 O672 1.260 . S
O669 In663 2.266 . S
O669 C666 1.252 . S
O670 In663 2.326 . S
O670 C666 1.260 . S
O671 In663 2.266 . S
O671 C668 1.252 . S
O672 In663 2.326 . S
O672 C668 1.260 . S
C673 O664 1.240 . S
C673 O665 1.252 . S
O674 In663 2.294 . S
O674 C667 1.240 . S
O675 In663 2.326 . S
O675 C667 1.252 . S
In676 O677 2.294 . S
In676 O678 2.326 . S
In676 O682 2.266 . S
In676 O683 2.326 . S
In676 O684 2.266 . S
In676 O685 2.326 . S
In676 O687 2.294 . S
In676 O688 2.326 . S
O677 In676 2.294 . S
O677 C686 1.240 . S
O678 In676 2.326 . S
O678 C686 1.252 . S
C679 O682 1.252 . S
C679 O683 1.260 . S
C680 O687 1.240 . S
C680 O688 1.252 . S
C681 O684 1.252 . S
C681 O685 1.260 . S
O682 In676 2.266 . S
O682 C679 1.252 . S
O683 In676 2.326 . S
O683 C679 1.260 . S
O684 In676 2.266 . S
O684 C681 1.252 . S
O685 In676 2.326 . S
O685 C681 1.260 . S
C686 O677 1.240 . S
C686 O678 1.252 . S
O687 In676 2.294 . S
O687 C680 1.240 . S
O688 In676 2.326 . S
O688 C680 1.252 . S
In689 O690 2.294 . S
In689 O691 2.326 . S
In689 O695 2.266 . S
In689 O696 2.326 . S
In689 O697 2.266 . S
In689 O698 2.326 . S
In689 O700 2.294 . S
In689 O701 2.326 . S
O690 In689 2.294 . S
O690 C699 1.240 . S
O691 In689 2.326 . S
O691 C699 1.252 . S
C692 O695 1.252 . S
C692 O696 1.260 . S
C693 O700 1.240 . S
C693 O701 1.252 . S
C694 O697 1.252 . S
C694 O698 1.260 . S
O695 In689 2.266 . S
O695 C692 1.252 . S
O696 In689 2.326 . S
O696 C692 1.260 . S
O697 In689 2.266 . S
O697 C694 1.252 . S
O698 In689 2.326 . S
O698 C694 1.260 . S
C699 O690 1.240 . S
C699 O691 1.252 . S
O700 In689 2.294 . S
O700 C693 1.240 . S
O701 In689 2.326 . S
O701 C693 1.252 . S
In702 O703 2.294 . S
In702 O704 2.326 . S
In702 O708 2.266 . S
In702 O709 2.326 . S
In702 O710 2.266 . S
In702 O711 2.326 . S
In702 O713 2.294 . S
In702 O714 2.326 . S
O703 In702 2.294 . S
O703 C712 1.240 . S
O704 In702 2.326 . S
O704 C712 1.252 . S
C705 O708 1.252 . S
C705 O709 1.260 . S
C706 O713 1.240 . S
C706 O714 1.252 . S
C707 O710 1.252 . S
C707 O711 1.260 . S
O708 In702 2.266 . S
O708 C705 1.252 . S
O709 In702 2.326 . S
O709 C705 1.260 . S
O710 In702 2.266 . S
O710 C707 1.252 . S
O711 In702 2.326 . S
O711 C707 1.260 . S
C712 O703 1.240 . S
C712 O704 1.252 . S
O713 In702 2.294 . S
O713 C706 1.240 . S
O714 In702 2.326 . S
O714 C706 1.252 . S
In715 O716 2.294 . S
In715 O717 2.326 . S
In715 O721 2.266 . S
In715 O722 2.326 . S
In715 O723 2.266 . S
In715 O724 2.326 . S
In715 O726 2.294 . S
In715 O727 2.326 . S
O716 In715 2.294 . S
O716 C725 1.240 . S
O717 In715 2.326 . S
O717 C725 1.252 . S
C718 O721 1.252 . S
C718 O722 1.260 . S
C719 O726 1.240 . S
C719 O727 1.252 . S
C720 O723 1.252 . S
C720 O724 1.260 . S
O721 In715 2.266 . S
O721 C718 1.252 . S
O722 In715 2.326 . S
O722 C718 1.260 . S
O723 In715 2.266 . S
O723 C720 1.252 . S
O724 In715 2.326 . S
O724 C720 1.260 . S
C725 O716 1.240 . S
C725 O717 1.252 . S
O726 In715 2.294 . S
O726 C719 1.240 . S
O727 In715 2.326 . S
O727 C719 1.252 . S
In728 O729 2.294 . S
In728 O730 2.326 . S
In728 O734 2.266 . S
In728 O735 2.326 . S
In728 O736 2.266 . S
In728 O737 2.326 . S
In728 O739 2.294 . S
In728 O740 2.326 . S
O729 In728 2.294 . S
O729 C738 1.240 . S
O730 In728 2.326 . S
O730 C738 1.252 . S
C731 O734 1.252 . S
C731 O735 1.260 . S
C732 O739 1.240 . S
C732 O740 1.252 . S
C733 O736 1.252 . S
C733 O737 1.260 . S
O734 In728 2.266 . S
O734 C731 1.252 . S
O735 In728 2.326 . S
O735 C731 1.260 . S
O736 In728 2.266 . S
O736 C733 1.252 . S
O737 In728 2.326 . S
O737 C733 1.260 . S
C738 O729 1.240 . S
C738 O730 1.252 . S
O739 In728 2.294 . S
O739 C732 1.240 . S
O740 In728 2.326 . S
O740 C732 1.252 . S
In741 O742 2.294 . S
In741 O743 2.326 . S
In741 O747 2.266 . S
In741 O748 2.326 . S
In741 O749 2.266 . S
In741 O750 2.326 . S
In741 O752 2.294 . S
In741 O753 2.326 . S
O742 In741 2.294 . S
O742 C751 1.240 . S
O743 In741 2.326 . S
O743 C751 1.252 . S
C744 O747 1.252 . S
C744 O748 1.260 . S
C745 O752 1.240 . S
C745 O753 1.252 . S
C746 O749 1.252 . S
C746 O750 1.260 . S
O747 In741 2.266 . S
O747 C744 1.252 . S
O748 In741 2.326 . S
O748 C744 1.260 . S
O749 In741 2.266 . S
O749 C746 1.252 . S
O750 In741 2.326 . S
O750 C746 1.260 . S
C751 O742 1.240 . S
C751 O743 1.252 . S
O752 In741 2.294 . S
O752 C745 1.240 . S
O753 In741 2.326 . S
O753 C745 1.252 . S
In754 O755 2.294 . S
In754 O756 2.326 . S
In754 O760 2.266 . S
In754 O761 2.326 . S
In754 O762 2.266 . S
In754 O763 2.326 . S
In754 O765 2.294 . S
In754 O766 2.326 . S
O755 In754 2.294 . S
O755 C764 1.240 . S
O756 In754 2.326 . S
O756 C764 1.252 . S
C757 O760 1.252 . S
C757 O761 1.260 . S
C758 O765 1.240 . S
C758 O766 1.252 . S
C759 O762 1.252 . S
C759 O763 1.260 . S
O760 In754 2.266 . S
O760 C757 1.252 . S
O761 In754 2.326 . S
O761 C757 1.260 . S
O762 In754 2.266 . S
O762 C759 1.252 . S
O763 In754 2.326 . S
O763 C759 1.260 . S
C764 O755 1.240 . S
C764 O756 1.252 . S
O765 In754 2.294 . S
O765 C758 1.240 . S
O766 In754 2.326 . S
O766 C758 1.252 . S
In767 O768 2.294 . S
In767 O769 2.326 . S
In767 O773 2.266 . S
In767 O774 2.326 . S
In767 O775 2.266 . S
In767 O776 2.326 . S
In767 O778 2.294 . S
In767 O779 2.326 . S
O768 In767 2.294 . S
O768 C777 1.240 . S
O769 In767 2.326 . S
O769 C777 1.252 . S
C770 O773 1.252 . S
C770 O774 1.260 . S
C771 O778 1.240 . S
C771 O779 1.252 . S
C772 O775 1.252 . S
C772 O776 1.260 . S
O773 In767 2.266 . S
O773 C770 1.252 . S
O774 In767 2.326 . S
O774 C770 1.260 . S
O775 In767 2.266 . S
O775 C772 1.252 . S
O776 In767 2.326 . S
O776 C772 1.260 . S
C777 O768 1.240 . S
C777 O769 1.252 . S
O778 In767 2.294 . S
O778 C771 1.240 . S
O779 In767 2.326 . S
O779 C771 1.252 . S
In780 O781 2.294 . S
In780 O782 2.326 . S
In780 O786 2.266 . S
In780 O787 2.326 . S
In780 O788 2.266 . S
In780 O789 2.326 . S
In780 O791 2.294 . S
In780 O792 2.326 . S
O781 In780 2.294 . S
O781 C790 1.240 . S
O782 In780 2.326 . S
O782 C790 1.252 . S
C783 O786 1.252 . S
C783 O787 1.260 . S
C784 O791 1.240 . S
C784 O792 1.252 . S
C785 O788 1.252 . S
C785 O789 1.260 . S
O786 In780 2.266 . S
O786 C783 1.252 . S
O787 In780 2.326 . S
O787 C783 1.260 . S
O788 In780 2.266 . S
O788 C785 1.252 . S
O789 In780 2.326 . S
O789 C785 1.260 . S
C790 O781 1.240 . S
C790 O782 1.252 . S
O791 In780 2.294 . S
O791 C784 1.240 . S
O792 In780 2.326 . S
O792 C784 1.252 . S
In793 O794 2.294 . S
In793 O795 2.326 . S
In793 O799 2.266 . S
In793 O800 2.326 . S
In793 O801 2.266 . S
In793 O802 2.326 . S
In793 O804 2.294 . S
In793 O805 2.326 . S
O794 In793 2.294 . S
O794 C803 1.240 . S
O795 In793 2.326 . S
O795 C803 1.252 . S
C796 O799 1.252 . S
C796 O800 1.260 . S
C797 O804 1.240 . S
C797 O805 1.252 . S
C798 O801 1.252 . S
C798 O802 1.260 . S
O799 In793 2.266 . S
O799 C796 1.252 . S
O800 In793 2.326 . S
O800 C796 1.260 . S
O801 In793 2.266 . S
O801 C798 1.252 . S
O802 In793 2.326 . S
O802 C798 1.260 . S
C803 O794 1.240 . S
C803 O795 1.252 . S
O804 In793 2.294 . S
O804 C797 1.240 . S
O805 In793 2.326 . S
O805 C797 1.252 . S
In806 O807 2.294 . S
In806 O808 2.326 . S
In806 O812 2.266 . S
In806 O813 2.326 . S
In806 O814 2.266 . S
In806 O815 2.326 . S
In806 O817 2.294 . S
In806 O818 2.326 . S
O807 In806 2.294 . S
O807 C816 1.240 . S
O808 In806 2.326 . S
O808 C816 1.252 . S
C809 O812 1.252 . S
C809 O813 1.260 . S
C810 O817 1.240 . S
C810 O818 1.252 . S
C811 O814 1.252 . S
C811 O815 1.260 . S
O812 In806 2.266 . S
O812 C809 1.252 . S
O813 In806 2.326 . S
O813 C809 1.260 . S
O814 In806 2.266 . S
O814 C811 1.252 . S
O815 In806 2.326 . S
O815 C811 1.260 . S
C816 O807 1.240 . S
C816 O808 1.252 . S
O817 In806 2.294 . S
O817 C810 1.240 . S
O818 In806 2.326 . S
O818 C810 1.252 . S
In819 O820 2.294 . S
In819 O821 2.326 . S
In819 O825 2.266 . S
In819 O826 2.326 . S
In819 O827 2.266 . S
In819 O828 2.326 . S
In819 O830 2.294 . S
In819 O831 2.326 . S
O820 In819 2.294 . S
O820 C829 1.240 . S
O821 In819 2.326 . S
O821 C829 1.252 . S
C822 O825 1.252 . S
C822 O826 1.260 . S
C823 O830 1.240 . S
C823 O831 1.252 . S
C824 O827 1.252 . S
C824 O828 1.260 . S
O825 In819 2.266 . S
O825 C822 1.252 . S
O826 In819 2.326 . S
O826 C822 1.260 . S
O827 In819 2.266 . S
O827 C824 1.252 . S
O828 In819 2.326 . S
O828 C824 1.260 . S
C829 O820 1.240 . S
C829 O821 1.252 . S
O830 In819 2.294 . S
O830 C823 1.240 . S
O831 In819 2.326 . S
O831 C823 1.252 . S
In832 O833 2.294 . S
In832 O834 2.326 . S
In832 O838 2.266 . S
In832 O839 2.326 . S
In832 O840 2.266 . S
In832 O841 2.326 . S
In832 O843 2.294 . S
In832 O844 2.326 . S
O833 In832 2.294 . S
O833 C842 1.240 . S
O834 In832 2.326 . S
O834 C842 1.252 . S
C835 O838 1.252 . S
C835 O839 1.260 . S
C836 O843 1.240 . S
C836 O844 1.252 . S
C837 O840 1.252 . S
C837 O841 1.260 . S
O838 In832 2.266 . S
O838 C835 1.252 . S
O839 In832 2.326 . S
O839 C835 1.260 . S
O840 In832 2.266 . S
O840 C837 1.252 . S
O841 In832 2.326 . S
O841 C837 1.260 . S
C842 O833 1.240 . S
C842 O834 1.252 . S
O843 In832 2.294 . S
O843 C836 1.240 . S
O844 In832 2.326 . S
O844 C836 1.252 . S
In845 O846 2.294 . S
In845 O847 2.326 . S
In845 O851 2.266 . S
In845 O852 2.326 . S
In845 O853 2.266 . S
In845 O854 2.326 . S
In845 O856 2.294 . S
In845 O857 2.326 . S
O846 In845 2.294 . S
O846 C855 1.240 . S
O847 In845 2.326 . S
O847 C855 1.252 . S
C848 O851 1.252 . S
C848 O852 1.260 . S
C849 O856 1.240 . S
C849 O857 1.252 . S
C850 O853 1.252 . S
C850 O854 1.260 . S
O851 In845 2.266 . S
O851 C848 1.252 . S
O852 In845 2.326 . S
O852 C848 1.260 . S
O853 In845 2.266 . S
O853 C850 1.252 . S
O854 In845 2.326 . S
O854 C850 1.260 . S
C855 O846 1.240 . S
C855 O847 1.252 . S
O856 In845 2.294 . S
O856 C849 1.240 . S
O857 In845 2.326 . S
O857 C849 1.252 . S
In858 O859 2.294 . S
In858 O860 2.326 . S
In858 O864 2.266 . S
In858 O865 2.326 . S
In858 O866 2.266 . S
In858 O867 2.326 . S
In858 O869 2.294 . S
In858 O870 2.326 . S
O859 In858 2.294 . S
O859 C868 1.240 . S
O860 In858 2.326 . S
O860 C868 1.252 . S
C861 O864 1.252 . S
C861 O865 1.260 . S
C862 O869 1.240 . S
C862 O870 1.252 . S
C863 O866 1.252 . S
C863 O867 1.260 . S
O864 In858 2.266 . S
O864 C861 1.252 . S
O865 In858 2.326 . S
O865 C861 1.260 . S
O866 In858 2.266 . S
O866 C863 1.252 . S
O867 In858 2.326 . S
O867 C863 1.260 . S
C868 O859 1.240 . S
C868 O860 1.252 . S
O869 In858 2.294 . S
O869 C862 1.240 . S
O870 In858 2.326 . S
O870 C862 1.252 . S
In871 O872 2.294 . S
In871 O873 2.326 . S
In871 O877 2.266 . S
In871 O878 2.326 . S
In871 O879 2.266 . S
In871 O880 2.326 . S
In871 O882 2.294 . S
In871 O883 2.326 . S
O872 In871 2.294 . S
O872 C881 1.240 . S
O873 In871 2.326 . S
O873 C881 1.252 . S
C874 O877 1.252 . S
C874 O878 1.260 . S
C875 O882 1.240 . S
C875 O883 1.252 . S
C876 O879 1.252 . S
C876 O880 1.260 . S
O877 In871 2.266 . S
O877 C874 1.252 . S
O878 In871 2.326 . S
O878 C874 1.260 . S
O879 In871 2.266 . S
O879 C876 1.252 . S
O880 In871 2.326 . S
O880 C876 1.260 . S
C881 O872 1.240 . S
C881 O873 1.252 . S
O882 In871 2.294 . S
O882 C875 1.240 . S
O883 In871 2.326 . S
O883 C875 1.252 . S
In884 O885 2.294 . S
In884 O886 2.326 . S
In884 O890 2.266 . S
In884 O891 2.326 . S
In884 O892 2.266 . S
In884 O893 2.326 . S
In884 O895 2.294 . S
In884 O896 2.326 . S
O885 In884 2.294 . S
O885 C894 1.240 . S
O886 In884 2.326 . S
O886 C894 1.252 . S
C887 O890 1.252 . S
C887 O891 1.260 . S
C888 O895 1.240 . S
C888 O896 1.252 . S
C889 O892 1.252 . S
C889 O893 1.260 . S
O890 In884 2.266 . S
O890 C887 1.252 . S
O891 In884 2.326 . S
O891 C887 1.260 . S
O892 In884 2.266 . S
O892 C889 1.252 . S
O893 In884 2.326 . S
O893 C889 1.260 . S
C894 O885 1.240 . S
C894 O886 1.252 . S
O895 In884 2.294 . S
O895 C888 1.240 . S
O896 In884 2.326 . S
O896 C888 1.252 . S
In897 O898 2.294 . S
In897 O899 2.326 . S
In897 O903 2.266 . S
In897 O904 2.326 . S
In897 O905 2.266 . S
In897 O906 2.326 . S
In897 O908 2.294 . S
In897 O909 2.326 . S
O898 In897 2.294 . S
O898 C907 1.240 . S
O899 In897 2.326 . S
O899 C907 1.252 . S
C900 O903 1.252 . S
C900 O904 1.260 . S
C901 O908 1.240 . S
C901 O909 1.252 . S
C902 O905 1.252 . S
C902 O906 1.260 . S
O903 In897 2.266 . S
O903 C900 1.252 . S
O904 In897 2.326 . S
O904 C900 1.260 . S
O905 In897 2.266 . S
O905 C902 1.252 . S
O906 In897 2.326 . S
O906 C902 1.260 . S
C907 O898 1.240 . S
C907 O899 1.252 . S
O908 In897 2.294 . S
O908 C901 1.240 . S
O909 In897 2.326 . S
O909 C901 1.252 . S
In910 O911 2.294 . S
In910 O912 2.326 . S
In910 O916 2.266 . S
In910 O917 2.326 . S
In910 O918 2.266 . S
In910 O919 2.326 . S
In910 O921 2.294 . S
In910 O922 2.326 . S
O911 In910 2.294 . S
O911 C920 1.240 . S
O912 In910 2.326 . S
O912 C920 1.252 . S
C913 O916 1.252 . S
C913 O917 1.260 . S
C914 O921 1.240 . S
C914 O922 1.252 . S
C915 O918 1.252 . S
C915 O919 1.260 . S
O916 In910 2.266 . S
O916 C913 1.252 . S
O917 In910 2.326 . S
O917 C913 1.260 . S
O918 In910 2.266 . S
O918 C915 1.252 . S
O919 In910 2.326 . S
O919 C915 1.260 . S
C920 O911 1.240 . S
C920 O912 1.252 . S
O921 In910 2.294 . S
O921 C914 1.240 . S
O922 In910 2.326 . S
O922 C914 1.252 . S
In923 O924 2.294 . S
In923 O925 2.326 . S
In923 O929 2.266 . S
In923 O930 2.326 . S
In923 O931 2.266 . S
In923 O932 2.326 . S
In923 O934 2.294 . S
In923 O935 2.326 . S
O924 In923 2.294 . S
O924 C933 1.240 . S
O925 In923 2.326 . S
O925 C933 1.252 . S
C926 O929 1.252 . S
C926 O930 1.260 . S
C927 O934 1.240 . S
C927 O935 1.252 . S
C928 O931 1.252 . S
C928 O932 1.260 . S
O929 In923 2.266 . S
O929 C926 1.252 . S
O930 In923 2.326 . S
O930 C926 1.260 . S
O931 In923 2.266 . S
O931 C928 1.252 . S
O932 In923 2.326 . S
O932 C928 1.260 . S
C933 O924 1.240 . S
C933 O925 1.252 . S
O934 In923 2.294 . S
O934 C927 1.240 . S
O935 In923 2.326 . S
O935 C927 1.252 . S
In936 O937 2.294 . S
In936 O938 2.326 . S
In936 O942 2.266 . S
In936 O943 2.326 . S
In936 O944 2.266 . S
In936 O945 2.326 . S
In936 O947 2.294 . S
In936 O948 2.326 . S
O937 In936 2.294 . S
O937 C946 1.240 . S
O938 In936 2.326 . S
O938 C946 1.252 . S
C939 O942 1.252 . S
C939 O943 1.260 . S
C940 O947 1.240 . S
C940 O948 1.252 . S
C941 O944 1.252 . S
C941 O945 1.260 . S
O942 In936 2.266 . S
O942 C939 1.252 . S
O943 In936 2.326 . S
O943 C939 1.260 . S
O944 In936 2.266 . S
O944 C941 1.252 . S
O945 In936 2.326 . S
O945 C941 1.260 . S
C946 O937 1.240 . S
C946 O938 1.252 . S
O947 In936 2.294 . S
O947 C940 1.240 . S
O948 In936 2.326 . S
O948 C940 1.252 . S
In949 O950 2.294 . S
In949 O951 2.326 . S
In949 O955 2.266 . S
In949 O956 2.326 . S
In949 O957 2.266 . S
In949 O958 2.326 . S
In949 O960 2.294 . S
In949 O961 2.326 . S
O950 In949 2.294 . S
O950 C959 1.240 . S
O951 In949 2.326 . S
O951 C959 1.252 . S
C952 O955 1.252 . S
C952 O956 1.260 . S
C953 O960 1.240 . S
C953 O961 1.252 . S
C954 O957 1.252 . S
C954 O958 1.260 . S
O955 In949 2.266 . S
O955 C952 1.252 . S
O956 In949 2.326 . S
O956 C952 1.260 . S
O957 In949 2.266 . S
O957 C954 1.252 . S
O958 In949 2.326 . S
O958 C954 1.260 . S
C959 O950 1.240 . S
C959 O951 1.252 . S
O960 In949 2.294 . S
O960 C953 1.240 . S
O961 In949 2.326 . S
O961 C953 1.252 . S
In962 O963 2.294 . S
In962 O964 2.326 . S
In962 O968 2.266 . S
In962 O969 2.326 . S
In962 O970 2.266 . S
In962 O971 2.326 . S
In962 O973 2.294 . S
In962 O974 2.326 . S
O963 In962 2.294 . S
O963 C972 1.240 . S
O964 In962 2.326 . S
O964 C972 1.252 . S
C965 O968 1.252 . S
C965 O969 1.260 . S
C966 O973 1.240 . S
C966 O974 1.252 . S
C967 O970 1.252 . S
C967 O971 1.260 . S
O968 In962 2.266 . S
O968 C965 1.252 . S
O969 In962 2.326 . S
O969 C965 1.260 . S
O970 In962 2.266 . S
O970 C967 1.252 . S
O971 In962 2.326 . S
O971 C967 1.260 . S
C972 O963 1.240 . S
C972 O964 1.252 . S
O973 In962 2.294 . S
O973 C966 1.240 . S
O974 In962 2.326 . S
O974 C966 1.252 . S
In975 O976 2.294 . S
In975 O977 2.326 . S
In975 O981 2.266 . S
In975 O982 2.326 . S
In975 O983 2.266 . S
In975 O984 2.326 . S
In975 O986 2.294 . S
In975 O987 2.326 . S
O976 In975 2.294 . S
O976 C985 1.240 . S
O977 In975 2.326 . S
O977 C985 1.252 . S
C978 O981 1.252 . S
C978 O982 1.260 . S
C979 O986 1.240 . S
C979 O987 1.252 . S
C980 O983 1.252 . S
C980 O984 1.260 . S
O981 In975 2.266 . S
O981 C978 1.252 . S
O982 In975 2.326 . S
O982 C978 1.260 . S
O983 In975 2.266 . S
O983 C980 1.252 . S
O984 In975 2.326 . S
O984 C980 1.260 . S
C985 O976 1.240 . S
C985 O977 1.252 . S
O986 In975 2.294 . S
O986 C979 1.240 . S
O987 In975 2.326 . S
O987 C979 1.252 . S
In988 O989 2.294 . S
In988 O990 2.326 . S
In988 O994 2.266 . S
In988 O995 2.326 . S
In988 O996 2.266 . S
In988 O997 2.326 . S
In988 O999 2.294 . S
In988 O1000 2.326 . S
O989 In988 2.294 . S
O989 C998 1.240 . S
O990 In988 2.326 . S
O990 C998 1.252 . S
C991 O994 1.252 . S
C991 O995 1.260 . S
C992 O999 1.240 . S
C992 O1000 1.252 . S
C993 O996 1.252 . S
C993 O997 1.260 . S
O994 In988 2.266 . S
O994 C991 1.252 . S
O995 In988 2.326 . S
O995 C991 1.260 . S
O996 In988 2.266 . S
O996 C993 1.252 . S
O997 In988 2.326 . S
O997 C993 1.260 . S
C998 O989 1.240 . S
C998 O990 1.252 . S
O999 In988 2.294 . S
O999 C992 1.240 . S
O1000 In988 2.326 . S
O1000 C992 1.252 . S
In1001 O1002 2.294 . S
In1001 O1003 2.326 . S
In1001 O1007 2.266 . S
In1001 O1008 2.326 . S
In1001 O1009 2.266 . S
In1001 O1010 2.326 . S
In1001 O1012 2.294 . S
In1001 O1013 2.326 . S
O1002 In1001 2.294 . S
O1002 C1011 1.240 . S
O1003 In1001 2.326 . S
O1003 C1011 1.252 . S
C1004 O1007 1.252 . S
C1004 O1008 1.260 . S
C1005 O1012 1.240 . S
C1005 O1013 1.252 . S
C1006 O1009 1.252 . S
C1006 O1010 1.260 . S
O1007 In1001 2.266 . S
O1007 C1004 1.252 . S
O1008 In1001 2.326 . S
O1008 C1004 1.260 . S
O1009 In1001 2.266 . S
O1009 C1006 1.252 . S
O1010 In1001 2.326 . S
O1010 C1006 1.260 . S
C1011 O1002 1.240 . S
C1011 O1003 1.252 . S
O1012 In1001 2.294 . S
O1012 C1005 1.240 . S
O1013 In1001 2.326 . S
O1013 C1005 1.252 . S
In1014 O1015 2.294 . S
In1014 O1016 2.326 . S
In1014 O1020 2.266 . S
In1014 O1021 2.326 . S
In1014 O1022 2.266 . S
In1014 O1023 2.326 . S
In1014 O1025 2.294 . S
In1014 O1026 2.326 . S
O1015 In1014 2.294 . S
O1015 C1024 1.240 . S
O1016 In1014 2.326 . S
O1016 C1024 1.252 . S
C1017 O1020 1.252 . S
C1017 O1021 1.260 . S
C1018 O1025 1.240 . S
C1018 O1026 1.252 . S
C1019 O1022 1.252 . S
C1019 O1023 1.260 . S
O1020 In1014 2.266 . S
O1020 C1017 1.252 . S
O1021 In1014 2.326 . S
O1021 C1017 1.260 . S
O1022 In1014 2.266 . S
O1022 C1019 1.252 . S
O1023 In1014 2.326 . S
O1023 C1019 1.260 . S
C1024 O1015 1.240 . S
C1024 O1016 1.252 . S
O1025 In1014 2.294 . S
O1025 C1018 1.240 . S
O1026 In1014 2.326 . S
O1026 C1018 1.252 . S
In1027 O1028 2.294 . S
In1027 O1029 2.326 . S
In1027 O1033 2.266 . S
In1027 O1034 2.326 . S
In1027 O1035 2.266 . S
In1027 O1036 2.326 . S
In1027 O1038 2.294 . S
In1027 O1039 2.326 . S
O1028 In1027 2.294 . S
O1028 C1037 1.240 . S
O1029 In1027 2.326 . S
O1029 C1037 1.252 . S
C1030 O1033 1.252 . S
C1030 O1034 1.260 . S
C1031 O1038 1.240 . S
C1031 O1039 1.252 . S
C1032 O1035 1.252 . S
C1032 O1036 1.260 . S
O1033 In1027 2.266 . S
O1033 C1030 1.252 . S
O1034 In1027 2.326 . S
O1034 C1030 1.260 . S
O1035 In1027 2.266 . S
O1035 C1032 1.252 . S
O1036 In1027 2.326 . S
O1036 C1032 1.260 . S
C1037 O1028 1.240 . S
C1037 O1029 1.252 . S
O1038 In1027 2.294 . S
O1038 C1031 1.240 . S
O1039 In1027 2.326 . S
O1039 C1031 1.252 . S
In1040 O1041 2.294 . S
In1040 O1042 2.326 . S
In1040 O1046 2.266 . S
In1040 O1047 2.326 . S
In1040 O1048 2.266 . S
In1040 O1049 2.326 . S
In1040 O1051 2.294 . S
In1040 O1052 2.326 . S
O1041 In1040 2.294 . S
O1041 C1050 1.240 . S
O1042 In1040 2.326 . S
O1042 C1050 1.252 . S
C1043 O1046 1.252 . S
C1043 O1047 1.260 . S
C1044 O1051 1.240 . S
C1044 O1052 1.252 . S
C1045 O1048 1.252 . S
C1045 O1049 1.260 . S
O1046 In1040 2.266 . S
O1046 C1043 1.252 . S
O1047 In1040 2.326 . S
O1047 C1043 1.260 . S
O1048 In1040 2.266 . S
O1048 C1045 1.252 . S
O1049 In1040 2.326 . S
O1049 C1045 1.260 . S
C1050 O1041 1.240 . S
C1050 O1042 1.252 . S
O1051 In1040 2.294 . S
O1051 C1044 1.240 . S
O1052 In1040 2.326 . S
O1052 C1044 1.252 . S
In1053 O1054 2.294 . S
In1053 O1055 2.326 . S
In1053 O1059 2.266 . S
In1053 O1060 2.326 . S
In1053 O1061 2.266 . S
In1053 O1062 2.326 . S
In1053 O1064 2.294 . S
In1053 O1065 2.326 . S
O1054 In1053 2.294 . S
O1054 C1063 1.240 . S
O1055 In1053 2.326 . S
O1055 C1063 1.252 . S
C1056 O1059 1.252 . S
C1056 O1060 1.260 . S
C1057 O1064 1.240 . S
C1057 O1065 1.252 . S
C1058 O1061 1.252 . S
C1058 O1062 1.260 . S
O1059 In1053 2.266 . S
O1059 C1056 1.252 . S
O1060 In1053 2.326 . S
O1060 C1056 1.260 . S
O1061 In1053 2.266 . S
O1061 C1058 1.252 . S
O1062 In1053 2.326 . S
O1062 C1058 1.260 . S
C1063 O1054 1.240 . S
C1063 O1055 1.252 . S
O1064 In1053 2.294 . S
O1064 C1057 1.240 . S
O1065 In1053 2.326 . S
O1065 C1057 1.252 . S
In1066 O1067 2.294 . S
In1066 O1068 2.326 . S
In1066 O1072 2.266 . S
In1066 O1073 2.326 . S
In1066 O1074 2.266 . S
In1066 O1075 2.326 . S
In1066 O1077 2.294 . S
In1066 O1078 2.326 . S
O1067 In1066 2.294 . S
O1067 C1076 1.240 . S
O1068 In1066 2.326 . S
O1068 C1076 1.252 . S
C1069 O1072 1.252 . S
C1069 O1073 1.260 . S
C1070 O1077 1.240 . S
C1070 O1078 1.252 . S
C1071 O1074 1.252 . S
C1071 O1075 1.260 . S
O1072 In1066 2.266 . S
O1072 C1069 1.252 . S
O1073 In1066 2.326 . S
O1073 C1069 1.260 . S
O1074 In1066 2.266 . S
O1074 C1071 1.252 . S
O1075 In1066 2.326 . S
O1075 C1071 1.260 . S
C1076 O1067 1.240 . S
C1076 O1068 1.252 . S
O1077 In1066 2.294 . S
O1077 C1070 1.240 . S
O1078 In1066 2.326 . S
O1078 C1070 1.252 . S
In1079 O1080 2.294 . S
In1079 O1081 2.326 . S
In1079 O1085 2.266 . S
In1079 O1086 2.326 . S
In1079 O1087 2.266 . S
In1079 O1088 2.326 . S
In1079 O1090 2.294 . S
In1079 O1091 2.326 . S
O1080 In1079 2.294 . S
O1080 C1089 1.240 . S
O1081 In1079 2.326 . S
O1081 C1089 1.252 . S
C1082 O1085 1.252 . S
C1082 O1086 1.260 . S
C1083 O1090 1.240 . S
C1083 O1091 1.252 . S
C1084 O1087 1.252 . S
C1084 O1088 1.260 . S
O1085 In1079 2.266 . S
O1085 C1082 1.252 . S
O1086 In1079 2.326 . S
O1086 C1082 1.260 . S
O1087 In1079 2.266 . S
O1087 C1084 1.252 . S
O1088 In1079 2.326 . S
O1088 C1084 1.260 . S
C1089 O1080 1.240 . S
C1089 O1081 1.252 . S
O1090 In1079 2.294 . S
O1090 C1083 1.240 . S
O1091 In1079 2.326 . S
O1091 C1083 1.252 . S
In1092 O1093 2.294 . S
In1092 O1094 2.326 . S
In1092 O1098 2.266 . S
In1092 O1099 2.326 . S
In1092 O1100 2.266 . S
In1092 O1101 2.326 . S
In1092 O1103 2.294 . S
In1092 O1104 2.326 . S
O1093 In1092 2.294 . S
O1093 C1102 1.240 . S
O1094 In1092 2.326 . S
O1094 C1102 1.252 . S
C1095 O1098 1.252 . S
C1095 O1099 1.260 . S
C1096 O1103 1.240 . S
C1096 O1104 1.252 . S
C1097 O1100 1.252 . S
C1097 O1101 1.260 . S
O1098 In1092 2.266 . S
O1098 C1095 1.252 . S
O1099 In1092 2.326 . S
O1099 C1095 1.260 . S
O1100 In1092 2.266 . S
O1100 C1097 1.252 . S
O1101 In1092 2.326 . S
O1101 C1097 1.260 . S
C1102 O1093 1.240 . S
C1102 O1094 1.252 . S
O1103 In1092 2.294 . S
O1103 C1096 1.240 . S
O1104 In1092 2.326 . S
O1104 C1096 1.252 . S
In1105 O1106 2.294 . S
In1105 O1107 2.326 . S
In1105 O1111 2.266 . S
In1105 O1112 2.326 . S
In1105 O1113 2.266 . S
In1105 O1114 2.326 . S
In1105 O1116 2.294 . S
In1105 O1117 2.326 . S
O1106 In1105 2.294 . S
O1106 C1115 1.240 . S
O1107 In1105 2.326 . S
O1107 C1115 1.252 . S
C1108 O1111 1.252 . S
C1108 O1112 1.260 . S
C1109 O1116 1.240 . S
C1109 O1117 1.252 . S
C1110 O1113 1.252 . S
C1110 O1114 1.260 . S
O1111 In1105 2.266 . S
O1111 C1108 1.252 . S
O1112 In1105 2.326 . S
O1112 C1108 1.260 . S
O1113 In1105 2.266 . S
O1113 C1110 1.252 . S
O1114 In1105 2.326 . S
O1114 C1110 1.260 . S
C1115 O1106 1.240 . S
C1115 O1107 1.252 . S
O1116 In1105 2.294 . S
O1116 C1109 1.240 . S
O1117 In1105 2.326 . S
O1117 C1109 1.252 . S
In1118 O1119 2.294 . S
In1118 O1120 2.326 . S
In1118 O1124 2.266 . S
In1118 O1125 2.326 . S
In1118 O1126 2.266 . S
In1118 O1127 2.326 . S
In1118 O1129 2.294 . S
In1118 O1130 2.326 . S
O1119 In1118 2.294 . S
O1119 C1128 1.240 . S
O1120 In1118 2.326 . S
O1120 C1128 1.252 . S
C1121 O1124 1.252 . S
C1121 O1125 1.260 . S
C1122 O1129 1.240 . S
C1122 O1130 1.252 . S
C1123 O1126 1.252 . S
C1123 O1127 1.260 . S
O1124 In1118 2.266 . S
O1124 C1121 1.252 . S
O1125 In1118 2.326 . S
O1125 C1121 1.260 . S
O1126 In1118 2.266 . S
O1126 C1123 1.252 . S
O1127 In1118 2.326 . S
O1127 C1123 1.260 . S
C1128 O1119 1.240 . S
C1128 O1120 1.252 . S
O1129 In1118 2.294 . S
O1129 C1122 1.240 . S
O1130 In1118 2.326 . S
O1130 C1122 1.252 . S
In1131 O1132 2.294 . S
In1131 O1133 2.326 . S
In1131 O1137 2.266 . S
In1131 O1138 2.326 . S
In1131 O1139 2.266 . S
In1131 O1140 2.326 . S
In1131 O1142 2.294 . S
In1131 O1143 2.326 . S
O1132 In1131 2.294 . S
O1132 C1141 1.240 . S
O1133 In1131 2.326 . S
O1133 C1141 1.252 . S
C1134 O1137 1.252 . S
C1134 O1138 1.260 . S
C1135 O1142 1.240 . S
C1135 O1143 1.252 . S
C1136 O1139 1.252 . S
C1136 O1140 1.260 . S
O1137 In1131 2.266 . S
O1137 C1134 1.252 . S
O1138 In1131 2.326 . S
O1138 C1134 1.260 . S
O1139 In1131 2.266 . S
O1139 C1136 1.252 . S
O1140 In1131 2.326 . S
O1140 C1136 1.260 . S
C1141 O1132 1.240 . S
C1141 O1133 1.252 . S
O1142 In1131 2.294 . S
O1142 C1135 1.240 . S
O1143 In1131 2.326 . S
O1143 C1135 1.252 . S
In1144 O1145 2.294 . S
In1144 O1146 2.326 . S
In1144 O1150 2.266 . S
In1144 O1151 2.326 . S
In1144 O1152 2.266 . S
In1144 O1153 2.326 . S
In1144 O1155 2.294 . S
In1144 O1156 2.326 . S
O1145 In1144 2.294 . S
O1145 C1154 1.240 . S
O1146 In1144 2.326 . S
O1146 C1154 1.252 . S
C1147 O1150 1.252 . S
C1147 O1151 1.260 . S
C1148 O1155 1.240 . S
C1148 O1156 1.252 . S
C1149 O1152 1.252 . S
C1149 O1153 1.260 . S
O1150 In1144 2.266 . S
O1150 C1147 1.252 . S
O1151 In1144 2.326 . S
O1151 C1147 1.260 . S
O1152 In1144 2.266 . S
O1152 C1149 1.252 . S
O1153 In1144 2.326 . S
O1153 C1149 1.260 . S
C1154 O1145 1.240 . S
C1154 O1146 1.252 . S
O1155 In1144 2.294 . S
O1155 C1148 1.240 . S
O1156 In1144 2.326 . S
O1156 C1148 1.252 . S
In1157 O1158 2.294 . S
In1157 O1159 2.326 . S
In1157 O1163 2.266 . S
In1157 O1164 2.326 . S
In1157 O1165 2.266 . S
In1157 O1166 2.326 . S
In1157 O1168 2.294 . S
In1157 O1169 2.326 . S
O1158 In1157 2.294 . S
O1158 C1167 1.240 . S
O1159 In1157 2.326 . S
O1159 C1167 1.252 . S
C1160 O1163 1.252 . S
C1160 O1164 1.260 . S
C1161 O1168 1.240 . S
C1161 O1169 1.252 . S
C1162 O1165 1.252 . S
C1162 O1166 1.260 . S
O1163 In1157 2.266 . S
O1163 C1160 1.252 . S
O1164 In1157 2.326 . S
O1164 C1160 1.260 . S
O1165 In1157 2.266 . S
O1165 C1162 1.252 . S
O1166 In1157 2.326 . S
O1166 C1162 1.260 . S
C1167 O1158 1.240 . S
C1167 O1159 1.252 . S
O1168 In1157 2.294 . S
O1168 C1161 1.240 . S
O1169 In1157 2.326 . S
O1169 C1161 1.252 . S
In1170 O1171 2.294 . S
In1170 O1172 2.326 . S
In1170 O1176 2.266 . S
In1170 O1177 2.326 . S
In1170 O1178 2.266 . S
In1170 O1179 2.326 . S
In1170 O1181 2.294 . S
In1170 O1182 2.326 . S
O1171 In1170 2.294 . S
O1171 C1180 1.240 . S
O1172 In1170 2.326 . S
O1172 C1180 1.252 . S
C1173 O1176 1.252 . S
C1173 O1177 1.260 . S
C1174 O1181 1.240 . S
C1174 O1182 1.252 . S
C1175 O1178 1.252 . S
C1175 O1179 1.260 . S
O1176 In1170 2.266 . S
O1176 C1173 1.252 . S
O1177 In1170 2.326 . S
O1177 C1173 1.260 . S
O1178 In1170 2.266 . S
O1178 C1175 1.252 . S
O1179 In1170 2.326 . S
O1179 C1175 1.260 . S
C1180 O1171 1.240 . S
C1180 O1172 1.252 . S
O1181 In1170 2.294 . S
O1181 C1174 1.240 . S
O1182 In1170 2.326 . S
O1182 C1174 1.252 . S
In1183 O1184 2.294 . S
In1183 O1185 2.326 . S
In1183 O1189 2.266 . S
In1183 O1190 2.326 . S
In1183 O1191 2.266 . S
In1183 O1192 2.326 . S
In1183 O1194 2.294 . S
In1183 O1195 2.326 . S
O1184 In1183 2.294 . S
O1184 C1193 1.240 . S
O1185 In1183 2.326 . S
O1185 C1193 1.252 . S
C1186 O1189 1.252 . S
C1186 O1190 1.260 . S
C1187 O1194 1.240 . S
C1187 O1195 1.252 . S
C1188 O1191 1.252 . S
C1188 O1192 1.260 . S
O1189 In1183 2.266 . S
O1189 C1186 1.252 . S
O1190 In1183 2.326 . S
O1190 C1186 1.260 . S
O1191 In1183 2.266 . S
O1191 C1188 1.252 . S
O1192 In1183 2.326 . S
O1192 C1188 1.260 . S
C1193 O1184 1.240 . S
C1193 O1185 1.252 . S
O1194 In1183 2.294 . S
O1194 C1187 1.240 . S
O1195 In1183 2.326 . S
O1195 C1187 1.252 . S
In1196 O1197 2.294 . S
In1196 O1198 2.326 . S
In1196 O1202 2.266 . S
In1196 O1203 2.326 . S
In1196 O1204 2.266 . S
In1196 O1205 2.326 . S
In1196 O1207 2.294 . S
In1196 O1208 2.326 . S
O1197 In1196 2.294 . S
O1197 C1206 1.240 . S
O1198 In1196 2.326 . S
O1198 C1206 1.252 . S
C1199 O1202 1.252 . S
C1199 O1203 1.260 . S
C1200 O1207 1.240 . S
C1200 O1208 1.252 . S
C1201 O1204 1.252 . S
C1201 O1205 1.260 . S
O1202 In1196 2.266 . S
O1202 C1199 1.252 . S
O1203 In1196 2.326 . S
O1203 C1199 1.260 . S
O1204 In1196 2.266 . S
O1204 C1201 1.252 . S
O1205 In1196 2.326 . S
O1205 C1201 1.260 . S
C1206 O1197 1.240 . S
C1206 O1198 1.252 . S
O1207 In1196 2.294 . S
O1207 C1200 1.240 . S
O1208 In1196 2.326 . S
O1208 C1200 1.252 . S
In1209 O1210 2.294 . S
In1209 O1211 2.326 . S
In1209 O1215 2.266 . S
In1209 O1216 2.326 . S
In1209 O1217 2.266 . S
In1209 O1218 2.326 . S
In1209 O1220 2.294 . S
In1209 O1221 2.326 . S
O1210 In1209 2.294 . S
O1210 C1219 1.240 . S
O1211 In1209 2.326 . S
O1211 C1219 1.252 . S
C1212 O1215 1.252 . S
C1212 O1216 1.260 . S
C1213 O1220 1.240 . S
C1213 O1221 1.252 . S
C1214 O1217 1.252 . S
C1214 O1218 1.260 . S
O1215 In1209 2.266 . S
O1215 C1212 1.252 . S
O1216 In1209 2.326 . S
O1216 C1212 1.260 . S
O1217 In1209 2.266 . S
O1217 C1214 1.252 . S
O1218 In1209 2.326 . S
O1218 C1214 1.260 . S
C1219 O1210 1.240 . S
C1219 O1211 1.252 . S
O1220 In1209 2.294 . S
O1220 C1213 1.240 . S
O1221 In1209 2.326 . S
O1221 C1213 1.252 . S
In1222 O1223 2.294 . S
In1222 O1224 2.326 . S
In1222 O1228 2.266 . S
In1222 O1229 2.326 . S
In1222 O1230 2.266 . S
In1222 O1231 2.326 . S
In1222 O1233 2.294 . S
In1222 O1234 2.326 . S
O1223 In1222 2.294 . S
O1223 C1232 1.240 . S
O1224 In1222 2.326 . S
O1224 C1232 1.252 . S
C1225 O1228 1.252 . S
C1225 O1229 1.260 . S
C1226 O1233 1.240 . S
C1226 O1234 1.252 . S
C1227 O1230 1.252 . S
C1227 O1231 1.260 . S
O1228 In1222 2.266 . S
O1228 C1225 1.252 . S
O1229 In1222 2.326 . S
O1229 C1225 1.260 . S
O1230 In1222 2.266 . S
O1230 C1227 1.252 . S
O1231 In1222 2.326 . S
O1231 C1227 1.260 . S
C1232 O1223 1.240 . S
C1232 O1224 1.252 . S
O1233 In1222 2.294 . S
O1233 C1226 1.240 . S
O1234 In1222 2.326 . S
O1234 C1226 1.252 . S
In1235 O1236 2.294 . S
In1235 O1237 2.326 . S
In1235 O1241 2.266 . S
In1235 O1242 2.326 . S
In1235 O1243 2.266 . S
In1235 O1244 2.326 . S
In1235 O1246 2.294 . S
In1235 O1247 2.326 . S
O1236 In1235 2.294 . S
O1236 C1245 1.240 . S
O1237 In1235 2.326 . S
O1237 C1245 1.252 . S
C1238 O1241 1.252 . S
C1238 O1242 1.260 . S
C1239 O1246 1.240 . S
C1239 O1247 1.252 . S
C1240 O1243 1.252 . S
C1240 O1244 1.260 . S
O1241 In1235 2.266 . S
O1241 C1238 1.252 . S
O1242 In1235 2.326 . S
O1242 C1238 1.260 . S
O1243 In1235 2.266 . S
O1243 C1240 1.252 . S
O1244 In1235 2.326 . S
O1244 C1240 1.260 . S
C1245 O1236 1.240 . S
C1245 O1237 1.252 . S
O1246 In1235 2.294 . S
O1246 C1239 1.240 . S
O1247 In1235 2.326 . S
O1247 C1239 1.252 . S
H1248 C1256 0.950 . S
H1249 C1261 0.950 . S
H1250 C1258 0.950 . S
H1251 C1260 0.950 . S
H1252 C1262 0.950 . S
H1253 C1264 0.950 . S
H1254 C1266 0.950 . S
H1255 C1267 0.950 . S
C1256 H1248 0.950 . S
C1256 C1257 1.386 . S
C1256 C1258 1.391 . S
C1257 C1256 1.386 . S
C1257 C1261 1.393 . S
C1258 H1250 0.950 . S
C1258 C1256 1.391 . S
C1258 C1259 1.400 . S
C1259 C1258 1.400 . S
C1259 C1260 1.398 . S
C1259 C1265 1.491 . S
C1260 H1251 0.950 . S
C1260 C1259 1.398 . S
C1260 C1261 1.391 . S
C1261 H1249 0.950 . S
C1261 C1257 1.393 . S
C1261 C1260 1.391 . S
C1262 H1252 0.950 . S
C1262 C1263 1.386 . S
C1262 C1264 1.391 . S
C1263 C1262 1.386 . S
C1263 C1267 1.393 . S
C1264 H1253 0.950 . S
C1264 C1262 1.391 . S
C1264 C1265 1.400 . S
C1265 C1259 1.491 . S
C1265 C1264 1.400 . S
C1265 C1266 1.398 . S
C1266 H1254 0.950 . S
C1266 C1265 1.398 . S
C1266 C1267 1.391 . S
C1267 H1255 0.950 . S
C1267 C1263 1.393 . S
C1267 C1266 1.391 . S
H1268 C1276 0.950 . S
H1269 C1281 0.950 . S
H1270 C1278 0.950 . S
H1271 C1280 0.950 . S
H1272 C1282 0.950 . S
H1273 C1284 0.950 . S
H1274 C1286 0.950 . S
H1275 C1287 0.950 . S
C1276 H1268 0.950 . S
C1276 C1277 1.386 . S
C1276 C1278 1.391 . S
C1277 C1276 1.386 . S
C1277 C1281 1.393 . S
C1278 H1270 0.950 . S
C1278 C1276 1.391 . S
C1278 C1279 1.400 . S
C1279 C1278 1.400 . S
C1279 C1280 1.398 . S
C1279 C1285 1.491 . S
C1280 H1271 0.950 . S
C1280 C1279 1.398 . S
C1280 C1281 1.391 . S
C1281 H1269 0.950 . S
C1281 C1277 1.393 . S
C1281 C1280 1.391 . S
C1282 H1272 0.950 . S
C1282 C1283 1.386 . S
C1282 C1284 1.391 . S
C1283 C1282 1.386 . S
C1283 C1287 1.393 . S
C1284 H1273 0.950 . S
C1284 C1282 1.391 . S
C1284 C1285 1.400 . S
C1285 C1279 1.491 . S
C1285 C1284 1.400 . S
C1285 C1286 1.398 . S
C1286 H1274 0.950 . S
C1286 C1285 1.398 . S
C1286 C1287 1.391 . S
C1287 H1275 0.950 . S
C1287 C1283 1.393 . S
C1287 C1286 1.391 . S
H1288 C1296 0.950 . S
H1289 C1301 0.950 . S
H1290 C1298 0.950 . S
H1291 C1300 0.950 . S
H1292 C1302 0.950 . S
H1293 C1304 0.950 . S
H1294 C1306 0.950 . S
H1295 C1307 0.950 . S
C1296 H1288 0.950 . S
C1296 C1297 1.386 . S
C1296 C1298 1.391 . S
C1297 C1296 1.386 . S
C1297 C1301 1.393 . S
C1298 H1290 0.950 . S
C1298 C1296 1.391 . S
C1298 C1299 1.400 . S
C1299 C1298 1.400 . S
C1299 C1300 1.398 . S
C1299 C1305 1.491 . S
C1300 H1291 0.950 . S
C1300 C1299 1.398 . S
C1300 C1301 1.391 . S
C1301 H1289 0.950 . S
C1301 C1297 1.393 . S
C1301 C1300 1.391 . S
C1302 H1292 0.950 . S
C1302 C1303 1.386 . S
C1302 C1304 1.391 . S
C1303 C1302 1.386 . S
C1303 C1307 1.393 . S
C1304 H1293 0.950 . S
C1304 C1302 1.391 . S
C1304 C1305 1.400 . S
C1305 C1299 1.491 . S
C1305 C1304 1.400 . S
C1305 C1306 1.398 . S
C1306 H1294 0.950 . S
C1306 C1305 1.398 . S
C1306 C1307 1.391 . S
C1307 H1295 0.950 . S
C1307 C1303 1.393 . S
C1307 C1306 1.391 . S
H1308 C1316 0.950 . S
H1309 C1321 0.950 . S
H1310 C1318 0.950 . S
H1311 C1320 0.950 . S
H1312 C1322 0.950 . S
H1313 C1324 0.950 . S
H1314 C1326 0.950 . S
H1315 C1327 0.950 . S
C1316 H1308 0.950 . S
C1316 C1317 1.386 . S
C1316 C1318 1.391 . S
C1317 C1316 1.386 . S
C1317 C1321 1.393 . S
C1318 H1310 0.950 . S
C1318 C1316 1.391 . S
C1318 C1319 1.400 . S
C1319 C1318 1.400 . S
C1319 C1320 1.398 . S
C1319 C1325 1.491 . S
C1320 H1311 0.950 . S
C1320 C1319 1.398 . S
C1320 C1321 1.391 . S
C1321 H1309 0.950 . S
C1321 C1317 1.393 . S
C1321 C1320 1.391 . S
C1322 H1312 0.950 . S
C1322 C1323 1.386 . S
C1322 C1324 1.391 . S
C1323 C1322 1.386 . S
C1323 C1327 1.393 . S
C1324 H1313 0.950 . S
C1324 C1322 1.391 . S
C1324 C1325 1.400 . S
C1325 C1319 1.491 . S
C1325 C1324 1.400 . S
C1325 C1326 1.398 . S
C1326 H1314 0.950 . S
C1326 C1325 1.398 . S
C1326 C1327 1.391 . S
C1327 H1315 0.950 . S
C1327 C1323 1.393 . S
C1327 C1326 1.391 . S
H1328 C1336 0.950 . S
H1329 C1341 0.950 . S
H1330 C1338 0.950 . S
H1331 C1340 0.950 . S
H1332 C1342 0.950 . S
H1333 C1344 0.950 . S
H1334 C1346 0.950 . S
H1335 C1347 0.950 . S
C1336 H1328 0.950 . S
C1336 C1337 1.386 . S
C1336 C1338 1.391 . S
C1337 C1336 1.386 . S
C1337 C1341 1.393 . S
C1338 H1330 0.950 . S
C1338 C1336 1.391 . S
C1338 C1339 1.400 . S
C1339 C1338 1.400 . S
C1339 C1340 1.398 . S
C1339 C1345 1.491 . S
C1340 H1331 0.950 . S
C1340 C1339 1.398 . S
C1340 C1341 1.391 . S
C1341 H1329 0.950 . S
C1341 C1337 1.393 . S
C1341 C1340 1.391 . S
C1342 H1332 0.950 . S
C1342 C1343 1.386 . S
C1342 C1344 1.391 . S
C1343 C1342 1.386 . S
C1343 C1347 1.393 . S
C1344 H1333 0.950 . S
C1344 C1342 1.391 . S
C1344 C1345 1.400 . S
C1345 C1339 1.491 . S
C1345 C1344 1.400 . S
C1345 C1346 1.398 . S
C1346 H1334 0.950 . S
C1346 C1345 1.398 . S
C1346 C1347 1.391 . S
C1347 H1335 0.950 . S
C1347 C1343 1.393 . S
C1347 C1346 1.391 . S
H1348 C1356 0.950 . S
H1349 C1361 0.950 . S
H1350 C1358 0.950 . S
H1351 C1360 0.950 . S
H1352 C1362 0.950 . S
H1353 C1364 0.950 . S
H1354 C1366 0.950 . S
H1355 C1367 0.950 . S
C1356 H1348 0.950 . S
C1356 C1357 1.386 . S
C1356 C1358 1.391 . S
C1357 C1356 1.386 . S
C1357 C1361 1.393 . S
C1358 H1350 0.950 . S
C1358 C1356 1.391 . S
C1358 C1359 1.400 . S
C1359 C1358 1.400 . S
C1359 C1360 1.398 . S
C1359 C1365 1.491 . S
C1360 H1351 0.950 . S
C1360 C1359 1.398 . S
C1360 C1361 1.391 . S
C1361 H1349 0.950 . S
C1361 C1357 1.393 . S
C1361 C1360 1.391 . S
C1362 H1352 0.950 . S
C1362 C1363 1.386 . S
C1362 C1364 1.391 . S
C1363 C1362 1.386 . S
C1363 C1367 1.393 . S
C1364 H1353 0.950 . S
C1364 C1362 1.391 . S
C1364 C1365 1.400 . S
C1365 C1359 1.491 . S
C1365 C1364 1.400 . S
C1365 C1366 1.398 . S
C1366 H1354 0.950 . S
C1366 C1365 1.398 . S
C1366 C1367 1.391 . S
C1367 H1355 0.950 . S
C1367 C1363 1.393 . S
C1367 C1366 1.391 . S
H1368 C1376 0.950 . S
H1369 C1381 0.950 . S
H1370 C1378 0.950 . S
H1371 C1380 0.950 . S
H1372 C1382 0.950 . S
H1373 C1384 0.950 . S
H1374 C1386 0.950 . S
H1375 C1387 0.950 . S
C1376 H1368 0.950 . S
C1376 C1377 1.386 . S
C1376 C1378 1.391 . S
C1377 C1376 1.386 . S
C1377 C1381 1.393 . S
C1378 H1370 0.950 . S
C1378 C1376 1.391 . S
C1378 C1379 1.400 . S
C1379 C1378 1.400 . S
C1379 C1380 1.398 . S
C1379 C1385 1.491 . S
C1380 H1371 0.950 . S
C1380 C1379 1.398 . S
C1380 C1381 1.391 . S
C1381 H1369 0.950 . S
C1381 C1377 1.393 . S
C1381 C1380 1.391 . S
C1382 H1372 0.950 . S
C1382 C1383 1.386 . S
C1382 C1384 1.391 . S
C1383 C1382 1.386 . S
C1383 C1387 1.393 . S
C1384 H1373 0.950 . S
C1384 C1382 1.391 . S
C1384 C1385 1.400 . S
C1385 C1379 1.491 . S
C1385 C1384 1.400 . S
C1385 C1386 1.398 . S
C1386 H1374 0.950 . S
C1386 C1385 1.398 . S
C1386 C1387 1.391 . S
C1387 H1375 0.950 . S
C1387 C1383 1.393 . S
C1387 C1386 1.391 . S
H1388 C1396 0.950 . S
H1389 C1401 0.950 . S
H1390 C1398 0.950 . S
H1391 C1400 0.950 . S
H1392 C1402 0.950 . S
H1393 C1404 0.950 . S
H1394 C1406 0.950 . S
H1395 C1407 0.950 . S
C1396 H1388 0.950 . S
C1396 C1397 1.386 . S
C1396 C1398 1.391 . S
C1397 C1396 1.386 . S
C1397 C1401 1.393 . S
C1398 H1390 0.950 . S
C1398 C1396 1.391 . S
C1398 C1399 1.400 . S
C1399 C1398 1.400 . S
C1399 C1400 1.398 . S
C1399 C1405 1.491 . S
C1400 H1391 0.950 . S
C1400 C1399 1.398 . S
C1400 C1401 1.391 . S
C1401 H1389 0.950 . S
C1401 C1397 1.393 . S
C1401 C1400 1.391 . S
C1402 H1392 0.950 . S
C1402 C1403 1.386 . S
C1402 C1404 1.391 . S
C1403 C1402 1.386 . S
C1403 C1407 1.393 . S
C1404 H1393 0.950 . S
C1404 C1402 1.391 . S
C1404 C1405 1.400 . S
C1405 C1399 1.491 . S
C1405 C1404 1.400 . S
C1405 C1406 1.398 . S
C1406 H1394 0.950 . S
C1406 C1405 1.398 . S
C1406 C1407 1.391 . S
C1407 H1395 0.950 . S
C1407 C1403 1.393 . S
C1407 C1406 1.391 . S
H1408 C1416 0.950 . S
H1409 C1421 0.950 . S
H1410 C1418 0.950 . S
H1411 C1420 0.950 . S
H1412 C1422 0.950 . S
H1413 C1424 0.950 . S
H1414 C1426 0.950 . S
H1415 C1427 0.950 . S
C1416 H1408 0.950 . S
C1416 C1417 1.386 . S
C1416 C1418 1.391 . S
C1417 C1416 1.386 . S
C1417 C1421 1.393 . S
C1418 H1410 0.950 . S
C1418 C1416 1.391 . S
C1418 C1419 1.400 . S
C1419 C1418 1.400 . S
C1419 C1420 1.398 . S
C1419 C1425 1.491 . S
C1420 H1411 0.950 . S
C1420 C1419 1.398 . S
C1420 C1421 1.391 . S
C1421 H1409 0.950 . S
C1421 C1417 1.393 . S
C1421 C1420 1.391 . S
C1422 H1412 0.950 . S
C1422 C1423 1.386 . S
C1422 C1424 1.391 . S
C1423 C1422 1.386 . S
C1423 C1427 1.393 . S
C1424 H1413 0.950 . S
C1424 C1422 1.391 . S
C1424 C1425 1.400 . S
C1425 C1419 1.491 . S
C1425 C1424 1.400 . S
C1425 C1426 1.398 . S
C1426 H1414 0.950 . S
C1426 C1425 1.398 . S
C1426 C1427 1.391 . S
C1427 H1415 0.950 . S
C1427 C1423 1.393 . S
C1427 C1426 1.391 . S
H1428 C1436 0.950 . S
H1429 C1441 0.950 . S
H1430 C1438 0.950 . S
H1431 C1440 0.950 . S
H1432 C1442 0.950 . S
H1433 C1444 0.950 . S
H1434 C1446 0.950 . S
H1435 C1447 0.950 . S
C1436 H1428 0.950 . S
C1436 C1437 1.386 . S
C1436 C1438 1.391 . S
C1437 C1436 1.386 . S
C1437 C1441 1.393 . S
C1438 H1430 0.950 . S
C1438 C1436 1.391 . S
C1438 C1439 1.400 . S
C1439 C1438 1.400 . S
C1439 C1440 1.398 . S
C1439 C1445 1.491 . S
C1440 H1431 0.950 . S
C1440 C1439 1.398 . S
C1440 C1441 1.391 . S
C1441 H1429 0.950 . S
C1441 C1437 1.393 . S
C1441 C1440 1.391 . S
C1442 H1432 0.950 . S
C1442 C1443 1.386 . S
C1442 C1444 1.391 . S
C1443 C1442 1.386 . S
C1443 C1447 1.393 . S
C1444 H1433 0.950 . S
C1444 C1442 1.391 . S
C1444 C1445 1.400 . S
C1445 C1439 1.491 . S
C1445 C1444 1.400 . S
C1445 C1446 1.398 . S
C1446 H1434 0.950 . S
C1446 C1445 1.398 . S
C1446 C1447 1.391 . S
C1447 H1435 0.950 . S
C1447 C1443 1.393 . S
C1447 C1446 1.391 . S
H1448 C1456 0.950 . S
H1449 C1461 0.950 . S
H1450 C1458 0.950 . S
H1451 C1460 0.950 . S
H1452 C1462 0.950 . S
H1453 C1464 0.950 . S
H1454 C1466 0.950 . S
H1455 C1467 0.950 . S
C1456 H1448 0.950 . S
C1456 C1457 1.386 . S
C1456 C1458 1.391 . S
C1457 C1456 1.386 . S
C1457 C1461 1.393 . S
C1458 H1450 0.950 . S
C1458 C1456 1.391 . S
C1458 C1459 1.400 . S
C1459 C1458 1.400 . S
C1459 C1460 1.398 . S
C1459 C1465 1.491 . S
C1460 H1451 0.950 . S
C1460 C1459 1.398 . S
C1460 C1461 1.391 . S
C1461 H1449 0.950 . S
C1461 C1457 1.393 . S
C1461 C1460 1.391 . S
C1462 H1452 0.950 . S
C1462 C1463 1.386 . S
C1462 C1464 1.391 . S
C1463 C1462 1.386 . S
C1463 C1467 1.393 . S
C1464 H1453 0.950 . S
C1464 C1462 1.391 . S
C1464 C1465 1.400 . S
C1465 C1459 1.491 . S
C1465 C1464 1.400 . S
C1465 C1466 1.398 . S
C1466 H1454 0.950 . S
C1466 C1465 1.398 . S
C1466 C1467 1.391 . S
C1467 H1455 0.950 . S
C1467 C1463 1.393 . S
C1467 C1466 1.391 . S
H1468 C1476 0.950 . S
H1469 C1481 0.950 . S
H1470 C1478 0.950 . S
H1471 C1480 0.950 . S
H1472 C1482 0.950 . S
H1473 C1484 0.950 . S
H1474 C1486 0.950 . S
H1475 C1487 0.950 . S
C1476 H1468 0.950 . S
C1476 C1477 1.386 . S
C1476 C1478 1.391 . S
C1477 C1476 1.386 . S
C1477 C1481 1.393 . S
C1478 H1470 0.950 . S
C1478 C1476 1.391 . S
C1478 C1479 1.400 . S
C1479 C1478 1.400 . S
C1479 C1480 1.398 . S
C1479 C1485 1.491 . S
C1480 H1471 0.950 . S
C1480 C1479 1.398 . S
C1480 C1481 1.391 . S
C1481 H1469 0.950 . S
C1481 C1477 1.393 . S
C1481 C1480 1.391 . S
C1482 H1472 0.950 . S
C1482 C1483 1.386 . S
C1482 C1484 1.391 . S
C1483 C1482 1.386 . S
C1483 C1487 1.393 . S
C1484 H1473 0.950 . S
C1484 C1482 1.391 . S
C1484 C1485 1.400 . S
C1485 C1479 1.491 . S
C1485 C1484 1.400 . S
C1485 C1486 1.398 . S
C1486 H1474 0.950 . S
C1486 C1485 1.398 . S
C1486 C1487 1.391 . S
C1487 H1475 0.950 . S
C1487 C1483 1.393 . S
C1487 C1486 1.391 . S
H1488 C1496 0.950 . S
H1489 C1501 0.950 . S
H1490 C1498 0.950 . S
H1491 C1500 0.950 . S
H1492 C1502 0.950 . S
H1493 C1504 0.950 . S
H1494 C1506 0.950 . S
H1495 C1507 0.950 . S
C1496 H1488 0.950 . S
C1496 C1497 1.386 . S
C1496 C1498 1.391 . S
C1497 C1496 1.386 . S
C1497 C1501 1.393 . S
C1498 H1490 0.950 . S
C1498 C1496 1.391 . S
C1498 C1499 1.400 . S
C1499 C1498 1.400 . S
C1499 C1500 1.398 . S
C1499 C1505 1.491 . S
C1500 H1491 0.950 . S
C1500 C1499 1.398 . S
C1500 C1501 1.391 . S
C1501 H1489 0.950 . S
C1501 C1497 1.393 . S
C1501 C1500 1.391 . S
C1502 H1492 0.950 . S
C1502 C1503 1.386 . S
C1502 C1504 1.391 . S
C1503 C1502 1.386 . S
C1503 C1507 1.393 . S
C1504 H1493 0.950 . S
C1504 C1502 1.391 . S
C1504 C1505 1.400 . S
C1505 C1499 1.491 . S
C1505 C1504 1.400 . S
C1505 C1506 1.398 . S
C1506 H1494 0.950 . S
C1506 C1505 1.398 . S
C1506 C1507 1.391 . S
C1507 H1495 0.950 . S
C1507 C1503 1.393 . S
C1507 C1506 1.391 . S
H1508 C1516 0.950 . S
H1509 C1521 0.950 . S
H1510 C1518 0.950 . S
H1511 C1520 0.950 . S
H1512 C1522 0.950 . S
H1513 C1524 0.950 . S
H1514 C1526 0.950 . S
H1515 C1527 0.950 . S
C1516 H1508 0.950 . S
C1516 C1517 1.386 . S
C1516 C1518 1.391 . S
C1517 C1516 1.386 . S
C1517 C1521 1.393 . S
C1518 H1510 0.950 . S
C1518 C1516 1.391 . S
C1518 C1519 1.400 . S
C1519 C1518 1.400 . S
C1519 C1520 1.398 . S
C1519 C1525 1.491 . S
C1520 H1511 0.950 . S
C1520 C1519 1.398 . S
C1520 C1521 1.391 . S
C1521 H1509 0.950 . S
C1521 C1517 1.393 . S
C1521 C1520 1.391 . S
C1522 H1512 0.950 . S
C1522 C1523 1.386 . S
C1522 C1524 1.391 . S
C1523 C1522 1.386 . S
C1523 C1527 1.393 . S
C1524 H1513 0.950 . S
C1524 C1522 1.391 . S
C1524 C1525 1.400 . S
C1525 C1519 1.491 . S
C1525 C1524 1.400 . S
C1525 C1526 1.398 . S
C1526 H1514 0.950 . S
C1526 C1525 1.398 . S
C1526 C1527 1.391 . S
C1527 H1515 0.950 . S
C1527 C1523 1.393 . S
C1527 C1526 1.391 . S
H1528 C1536 0.950 . S
H1529 C1541 0.950 . S
H1530 C1538 0.950 . S
H1531 C1540 0.950 . S
H1532 C1542 0.950 . S
H1533 C1544 0.950 . S
H1534 C1546 0.950 . S
H1535 C1547 0.950 . S
C1536 H1528 0.950 . S
C1536 C1537 1.386 . S
C1536 C1538 1.391 . S
C1537 C1536 1.386 . S
C1537 C1541 1.393 . S
C1538 H1530 0.950 . S
C1538 C1536 1.391 . S
C1538 C1539 1.400 . S
C1539 C1538 1.400 . S
C1539 C1540 1.398 . S
C1539 C1545 1.491 . S
C1540 H1531 0.950 . S
C1540 C1539 1.398 . S
C1540 C1541 1.391 . S
C1541 H1529 0.950 . S
C1541 C1537 1.393 . S
C1541 C1540 1.391 . S
C1542 H1532 0.950 . S
C1542 C1543 1.386 . S
C1542 C1544 1.391 . S
C1543 C1542 1.386 . S
C1543 C1547 1.393 . S
C1544 H1533 0.950 . S
C1544 C1542 1.391 . S
C1544 C1545 1.400 . S
C1545 C1539 1.491 . S
C1545 C1544 1.400 . S
C1545 C1546 1.398 . S
C1546 H1534 0.950 . S
C1546 C1545 1.398 . S
C1546 C1547 1.391 . S
C1547 H1535 0.950 . S
C1547 C1543 1.393 . S
C1547 C1546 1.391 . S
H1548 C1556 0.950 . S
H1549 C1561 0.950 . S
H1550 C1558 0.950 . S
H1551 C1560 0.950 . S
H1552 C1562 0.950 . S
H1553 C1564 0.950 . S
H1554 C1566 0.950 . S
H1555 C1567 0.950 . S
C1556 H1548 0.950 . S
C1556 C1557 1.386 . S
C1556 C1558 1.391 . S
C1557 C1556 1.386 . S
C1557 C1561 1.393 . S
C1558 H1550 0.950 . S
C1558 C1556 1.391 . S
C1558 C1559 1.400 . S
C1559 C1558 1.400 . S
C1559 C1560 1.398 . S
C1559 C1565 1.491 . S
C1560 H1551 0.950 . S
C1560 C1559 1.398 . S
C1560 C1561 1.391 . S
C1561 H1549 0.950 . S
C1561 C1557 1.393 . S
C1561 C1560 1.391 . S
C1562 H1552 0.950 . S
C1562 C1563 1.386 . S
C1562 C1564 1.391 . S
C1563 C1562 1.386 . S
C1563 C1567 1.393 . S
C1564 H1553 0.950 . S
C1564 C1562 1.391 . S
C1564 C1565 1.400 . S
C1565 C1559 1.491 . S
C1565 C1564 1.400 . S
C1565 C1566 1.398 . S
C1566 H1554 0.950 . S
C1566 C1565 1.398 . S
C1566 C1567 1.391 . S
C1567 H1555 0.950 . S
C1567 C1563 1.393 . S
C1567 C1566 1.391 . S
H1568 C1576 0.950 . S
H1569 C1581 0.950 . S
H1570 C1578 0.950 . S
H1571 C1580 0.950 . S
H1572 C1582 0.950 . S
H1573 C1584 0.950 . S
H1574 C1586 0.950 . S
H1575 C1587 0.950 . S
C1576 H1568 0.950 . S
C1576 C1577 1.386 . S
C1576 C1578 1.391 . S
C1577 C1576 1.386 . S
C1577 C1581 1.393 . S
C1578 H1570 0.950 . S
C1578 C1576 1.391 . S
C1578 C1579 1.400 . S
C1579 C1578 1.400 . S
C1579 C1580 1.398 . S
C1579 C1585 1.491 . S
C1580 H1571 0.950 . S
C1580 C1579 1.398 . S
C1580 C1581 1.391 . S
C1581 H1569 0.950 . S
C1581 C1577 1.393 . S
C1581 C1580 1.391 . S
C1582 H1572 0.950 . S
C1582 C1583 1.386 . S
C1582 C1584 1.391 . S
C1583 C1582 1.386 . S
C1583 C1587 1.393 . S
C1584 H1573 0.950 . S
C1584 C1582 1.391 . S
C1584 C1585 1.400 . S
C1585 C1579 1.491 . S
C1585 C1584 1.400 . S
C1585 C1586 1.398 . S
C1586 H1574 0.950 . S
C1586 C1585 1.398 . S
C1586 C1587 1.391 . S
C1587 H1575 0.950 . S
C1587 C1583 1.393 . S
C1587 C1586 1.391 . S
H1588 C1596 0.950 . S
H1589 C1601 0.950 . S
H1590 C1598 0.950 . S
H1591 C1600 0.950 . S
H1592 C1602 0.950 . S
H1593 C1604 0.950 . S
H1594 C1606 0.950 . S
H1595 C1607 0.950 . S
C1596 H1588 0.950 . S
C1596 C1597 1.386 . S
C1596 C1598 1.391 . S
C1597 C1596 1.386 . S
C1597 C1601 1.393 . S
C1598 H1590 0.950 . S
C1598 C1596 1.391 . S
C1598 C1599 1.400 . S
C1599 C1598 1.400 . S
C1599 C1600 1.398 . S
C1599 C1605 1.491 . S
C1600 H1591 0.950 . S
C1600 C1599 1.398 . S
C1600 C1601 1.391 . S
C1601 H1589 0.950 . S
C1601 C1597 1.393 . S
C1601 C1600 1.391 . S
C1602 H1592 0.950 . S
C1602 C1603 1.386 . S
C1602 C1604 1.391 . S
C1603 C1602 1.386 . S
C1603 C1607 1.393 . S
C1604 H1593 0.950 . S
C1604 C1602 1.391 . S
C1604 C1605 1.400 . S
C1605 C1599 1.491 . S
C1605 C1604 1.400 . S
C1605 C1606 1.398 . S
C1606 H1594 0.950 . S
C1606 C1605 1.398 . S
C1606 C1607 1.391 . S
C1607 H1595 0.950 . S
C1607 C1603 1.393 . S
C1607 C1606 1.391 . S
H1608 C1616 0.950 . S
H1609 C1621 0.950 . S
H1610 C1618 0.950 . S
H1611 C1620 0.950 . S
H1612 C1622 0.950 . S
H1613 C1624 0.950 . S
H1614 C1626 0.950 . S
H1615 C1627 0.950 . S
C1616 H1608 0.950 . S
C1616 C1617 1.386 . S
C1616 C1618 1.391 . S
C1617 C1616 1.386 . S
C1617 C1621 1.393 . S
C1618 H1610 0.950 . S
C1618 C1616 1.391 . S
C1618 C1619 1.400 . S
C1619 C1618 1.400 . S
C1619 C1620 1.398 . S
C1619 C1625 1.491 . S
C1620 H1611 0.950 . S
C1620 C1619 1.398 . S
C1620 C1621 1.391 . S
C1621 H1609 0.950 . S
C1621 C1617 1.393 . S
C1621 C1620 1.391 . S
C1622 H1612 0.950 . S
C1622 C1623 1.386 . S
C1622 C1624 1.391 . S
C1623 C1622 1.386 . S
C1623 C1627 1.393 . S
C1624 H1613 0.950 . S
C1624 C1622 1.391 . S
C1624 C1625 1.400 . S
C1625 C1619 1.491 . S
C1625 C1624 1.400 . S
C1625 C1626 1.398 . S
C1626 H1614 0.950 . S
C1626 C1625 1.398 . S
C1626 C1627 1.391 . S
C1627 H1615 0.950 . S
C1627 C1623 1.393 . S
C1627 C1626 1.391 . S
H1628 C1636 0.950 . S
H1629 C1641 0.950 . S
H1630 C1638 0.950 . S
H1631 C1640 0.950 . S
H1632 C1642 0.950 . S
H1633 C1644 0.950 . S
H1634 C1646 0.950 . S
H1635 C1647 0.950 . S
C1636 H1628 0.950 . S
C1636 C1637 1.386 . S
C1636 C1638 1.391 . S
C1637 C1636 1.386 . S
C1637 C1641 1.393 . S
C1638 H1630 0.950 . S
C1638 C1636 1.391 . S
C1638 C1639 1.400 . S
C1639 C1638 1.400 . S
C1639 C1640 1.398 . S
C1639 C1645 1.491 . S
C1640 H1631 0.950 . S
C1640 C1639 1.398 . S
C1640 C1641 1.391 . S
C1641 H1629 0.950 . S
C1641 C1637 1.393 . S
C1641 C1640 1.391 . S
C1642 H1632 0.950 . S
C1642 C1643 1.386 . S
C1642 C1644 1.391 . S
C1643 C1642 1.386 . S
C1643 C1647 1.393 . S
C1644 H1633 0.950 . S
C1644 C1642 1.391 . S
C1644 C1645 1.400 . S
C1645 C1639 1.491 . S
C1645 C1644 1.400 . S
C1645 C1646 1.398 . S
C1646 H1634 0.950 . S
C1646 C1645 1.398 . S
C1646 C1647 1.391 . S
C1647 H1635 0.950 . S
C1647 C1643 1.393 . S
C1647 C1646 1.391 . S
H1648 C1656 0.950 . S
H1649 C1661 0.950 . S
H1650 C1658 0.950 . S
H1651 C1660 0.950 . S
H1652 C1662 0.950 . S
H1653 C1664 0.950 . S
H1654 C1666 0.950 . S
H1655 C1667 0.950 . S
C1656 H1648 0.950 . S
C1656 C1657 1.386 . S
C1656 C1658 1.391 . S
C1657 C1656 1.386 . S
C1657 C1661 1.393 . S
C1658 H1650 0.950 . S
C1658 C1656 1.391 . S
C1658 C1659 1.400 . S
C1659 C1658 1.400 . S
C1659 C1660 1.398 . S
C1659 C1665 1.491 . S
C1660 H1651 0.950 . S
C1660 C1659 1.398 . S
C1660 C1661 1.391 . S
C1661 H1649 0.950 . S
C1661 C1657 1.393 . S
C1661 C1660 1.391 . S
C1662 H1652 0.950 . S
C1662 C1663 1.386 . S
C1662 C1664 1.391 . S
C1663 C1662 1.386 . S
C1663 C1667 1.393 . S
C1664 H1653 0.950 . S
C1664 C1662 1.391 . S
C1664 C1665 1.400 . S
C1665 C1659 1.491 . S
C1665 C1664 1.400 . S
C1665 C1666 1.398 . S
C1666 H1654 0.950 . S
C1666 C1665 1.398 . S
C1666 C1667 1.391 . S
C1667 H1655 0.950 . S
C1667 C1663 1.393 . S
C1667 C1666 1.391 . S
H1668 C1676 0.950 . S
H1669 C1681 0.950 . S
H1670 C1678 0.950 . S
H1671 C1680 0.950 . S
H1672 C1682 0.950 . S
H1673 C1684 0.950 . S
H1674 C1686 0.950 . S
H1675 C1687 0.950 . S
C1676 H1668 0.950 . S
C1676 C1677 1.386 . S
C1676 C1678 1.391 . S
C1677 C1676 1.386 . S
C1677 C1681 1.393 . S
C1678 H1670 0.950 . S
C1678 C1676 1.391 . S
C1678 C1679 1.400 . S
C1679 C1678 1.400 . S
C1679 C1680 1.398 . S
C1679 C1685 1.491 . S
C1680 H1671 0.950 . S
C1680 C1679 1.398 . S
C1680 C1681 1.391 . S
C1681 H1669 0.950 . S
C1681 C1677 1.393 . S
C1681 C1680 1.391 . S
C1682 H1672 0.950 . S
C1682 C1683 1.386 . S
C1682 C1684 1.391 . S
C1683 C1682 1.386 . S
C1683 C1687 1.393 . S
C1684 H1673 0.950 . S
C1684 C1682 1.391 . S
C1684 C1685 1.400 . S
C1685 C1679 1.491 . S
C1685 C1684 1.400 . S
C1685 C1686 1.398 . S
C1686 H1674 0.950 . S
C1686 C1685 1.398 . S
C1686 C1687 1.391 . S
C1687 H1675 0.950 . S
C1687 C1683 1.393 . S
C1687 C1686 1.391 . S
H1688 C1696 0.950 . S
H1689 C1701 0.950 . S
H1690 C1698 0.950 . S
H1691 C1700 0.950 . S
H1692 C1702 0.950 . S
H1693 C1704 0.950 . S
H1694 C1706 0.950 . S
H1695 C1707 0.950 . S
C1696 H1688 0.950 . S
C1696 C1697 1.386 . S
C1696 C1698 1.391 . S
C1697 C1696 1.386 . S
C1697 C1701 1.393 . S
C1698 H1690 0.950 . S
C1698 C1696 1.391 . S
C1698 C1699 1.400 . S
C1699 C1698 1.400 . S
C1699 C1700 1.398 . S
C1699 C1705 1.491 . S
C1700 H1691 0.950 . S
C1700 C1699 1.398 . S
C1700 C1701 1.391 . S
C1701 H1689 0.950 . S
C1701 C1697 1.393 . S
C1701 C1700 1.391 . S
C1702 H1692 0.950 . S
C1702 C1703 1.386 . S
C1702 C1704 1.391 . S
C1703 C1702 1.386 . S
C1703 C1707 1.393 . S
C1704 H1693 0.950 . S
C1704 C1702 1.391 . S
C1704 C1705 1.400 . S
C1705 C1699 1.491 . S
C1705 C1704 1.400 . S
C1705 C1706 1.398 . S
C1706 H1694 0.950 . S
C1706 C1705 1.398 . S
C1706 C1707 1.391 . S
C1707 H1695 0.950 . S
C1707 C1703 1.393 . S
C1707 C1706 1.391 . S
H1708 C1716 0.950 . S
H1709 C1721 0.950 . S
H1710 C1718 0.950 . S
H1711 C1720 0.950 . S
H1712 C1722 0.950 . S
H1713 C1724 0.950 . S
H1714 C1726 0.950 . S
H1715 C1727 0.950 . S
C1716 H1708 0.950 . S
C1716 C1717 1.386 . S
C1716 C1718 1.391 . S
C1717 C1716 1.386 . S
C1717 C1721 1.393 . S
C1718 H1710 0.950 . S
C1718 C1716 1.391 . S
C1718 C1719 1.400 . S
C1719 C1718 1.400 . S
C1719 C1720 1.398 . S
C1719 C1725 1.491 . S
C1720 H1711 0.950 . S
C1720 C1719 1.398 . S
C1720 C1721 1.391 . S
C1721 H1709 0.950 . S
C1721 C1717 1.393 . S
C1721 C1720 1.391 . S
C1722 H1712 0.950 . S
C1722 C1723 1.386 . S
C1722 C1724 1.391 . S
C1723 C1722 1.386 . S
C1723 C1727 1.393 . S
C1724 H1713 0.950 . S
C1724 C1722 1.391 . S
C1724 C1725 1.400 . S
C1725 C1719 1.491 . S
C1725 C1724 1.400 . S
C1725 C1726 1.398 . S
C1726 H1714 0.950 . S
C1726 C1725 1.398 . S
C1726 C1727 1.391 . S
C1727 H1715 0.950 . S
C1727 C1723 1.393 . S
C1727 C1726 1.391 . S
H1728 C1736 0.950 . S
H1729 C1741 0.950 . S
H1730 C1738 0.950 . S
H1731 C1740 0.950 . S
H1732 C1742 0.950 . S
H1733 C1744 0.950 . S
H1734 C1746 0.950 . S
H1735 C1747 0.950 . S
C1736 H1728 0.950 . S
C1736 C1737 1.386 . S
C1736 C1738 1.391 . S
C1737 C1736 1.386 . S
C1737 C1741 1.393 . S
C1738 H1730 0.950 . S
C1738 C1736 1.391 . S
C1738 C1739 1.400 . S
C1739 C1738 1.400 . S
C1739 C1740 1.398 . S
C1739 C1745 1.491 . S
C1740 H1731 0.950 . S
C1740 C1739 1.398 . S
C1740 C1741 1.391 . S
C1741 H1729 0.950 . S
C1741 C1737 1.393 . S
C1741 C1740 1.391 . S
C1742 H1732 0.950 . S
C1742 C1743 1.386 . S
C1742 C1744 1.391 . S
C1743 C1742 1.386 . S
C1743 C1747 1.393 . S
C1744 H1733 0.950 . S
C1744 C1742 1.391 . S
C1744 C1745 1.400 . S
C1745 C1739 1.491 . S
C1745 C1744 1.400 . S
C1745 C1746 1.398 . S
C1746 H1734 0.950 . S
C1746 C1745 1.398 . S
C1746 C1747 1.391 . S
C1747 H1735 0.950 . S
C1747 C1743 1.393 . S
C1747 C1746 1.391 . S
H1748 C1756 0.950 . S
H1749 C1761 0.950 . S
H1750 C1758 0.950 . S
H1751 C1760 0.950 . S
H1752 C1762 0.950 . S
H1753 C1764 0.950 . S
H1754 C1766 0.950 . S
H1755 C1767 0.950 . S
C1756 H1748 0.950 . S
C1756 C1757 1.386 . S
C1756 C1758 1.391 . S
C1757 C1756 1.386 . S
C1757 C1761 1.393 . S
C1758 H1750 0.950 . S
C1758 C1756 1.391 . S
C1758 C1759 1.400 . S
C1759 C1758 1.400 . S
C1759 C1760 1.398 . S
C1759 C1765 1.491 . S
C1760 H1751 0.950 . S
C1760 C1759 1.398 . S
C1760 C1761 1.391 . S
C1761 H1749 0.950 . S
C1761 C1757 1.393 . S
C1761 C1760 1.391 . S
C1762 H1752 0.950 . S
C1762 C1763 1.386 . S
C1762 C1764 1.391 . S
C1763 C1762 1.386 . S
C1763 C1767 1.393 . S
C1764 H1753 0.950 . S
C1764 C1762 1.391 . S
C1764 C1765 1.400 . S
C1765 C1759 1.491 . S
C1765 C1764 1.400 . S
C1765 C1766 1.398 . S
C1766 H1754 0.950 . S
C1766 C1765 1.398 . S
C1766 C1767 1.391 . S
C1767 H1755 0.950 . S
C1767 C1763 1.393 . S
C1767 C1766 1.391 . S
H1768 C1776 0.950 . S
H1769 C1781 0.950 . S
H1770 C1778 0.950 . S
H1771 C1780 0.950 . S
H1772 C1782 0.950 . S
H1773 C1784 0.950 . S
H1774 C1786 0.950 . S
H1775 C1787 0.950 . S
C1776 H1768 0.950 . S
C1776 C1777 1.386 . S
C1776 C1778 1.391 . S
C1777 C1776 1.386 . S
C1777 C1781 1.393 . S
C1778 H1770 0.950 . S
C1778 C1776 1.391 . S
C1778 C1779 1.400 . S
C1779 C1778 1.400 . S
C1779 C1780 1.398 . S
C1779 C1785 1.491 . S
C1780 H1771 0.950 . S
C1780 C1779 1.398 . S
C1780 C1781 1.391 . S
C1781 H1769 0.950 . S
C1781 C1777 1.393 . S
C1781 C1780 1.391 . S
C1782 H1772 0.950 . S
C1782 C1783 1.386 . S
C1782 C1784 1.391 . S
C1783 C1782 1.386 . S
C1783 C1787 1.393 . S
C1784 H1773 0.950 . S
C1784 C1782 1.391 . S
C1784 C1785 1.400 . S
C1785 C1779 1.491 . S
C1785 C1784 1.400 . S
C1785 C1786 1.398 . S
C1786 H1774 0.950 . S
C1786 C1785 1.398 . S
C1786 C1787 1.391 . S
C1787 H1775 0.950 . S
C1787 C1783 1.393 . S
C1787 C1786 1.391 . S
H1788 C1796 0.950 . S
H1789 C1801 0.950 . S
H1790 C1798 0.950 . S
H1791 C1800 0.950 . S
H1792 C1802 0.950 . S
H1793 C1804 0.950 . S
H1794 C1806 0.950 . S
H1795 C1807 0.950 . S
C1796 H1788 0.950 . S
C1796 C1797 1.386 . S
C1796 C1798 1.391 . S
C1797 C1796 1.386 . S
C1797 C1801 1.393 . S
C1798 H1790 0.950 . S
C1798 C1796 1.391 . S
C1798 C1799 1.400 . S
C1799 C1798 1.400 . S
C1799 C1800 1.398 . S
C1799 C1805 1.491 . S
C1800 H1791 0.950 . S
C1800 C1799 1.398 . S
C1800 C1801 1.391 . S
C1801 H1789 0.950 . S
C1801 C1797 1.393 . S
C1801 C1800 1.391 . S
C1802 H1792 0.950 . S
C1802 C1803 1.386 . S
C1802 C1804 1.391 . S
C1803 C1802 1.386 . S
C1803 C1807 1.393 . S
C1804 H1793 0.950 . S
C1804 C1802 1.391 . S
C1804 C1805 1.400 . S
C1805 C1799 1.491 . S
C1805 C1804 1.400 . S
C1805 C1806 1.398 . S
C1806 H1794 0.950 . S
C1806 C1805 1.398 . S
C1806 C1807 1.391 . S
C1807 H1795 0.950 . S
C1807 C1803 1.393 . S
C1807 C1806 1.391 . S
H1808 C1816 0.950 . S
H1809 C1821 0.950 . S
H1810 C1818 0.950 . S
H1811 C1820 0.950 . S
H1812 C1822 0.950 . S
H1813 C1824 0.950 . S
H1814 C1826 0.950 . S
H1815 C1827 0.950 . S
C1816 H1808 0.950 . S
C1816 C1817 1.386 . S
C1816 C1818 1.391 . S
C1817 C1816 1.386 . S
C1817 C1821 1.393 . S
C1818 H1810 0.950 . S
C1818 C1816 1.391 . S
C1818 C1819 1.400 . S
C1819 C1818 1.400 . S
C1819 C1820 1.398 . S
C1819 C1825 1.491 . S
C1820 H1811 0.950 . S
C1820 C1819 1.398 . S
C1820 C1821 1.391 . S
C1821 H1809 0.950 . S
C1821 C1817 1.393 . S
C1821 C1820 1.391 . S
C1822 H1812 0.950 . S
C1822 C1823 1.386 . S
C1822 C1824 1.391 . S
C1823 C1822 1.386 . S
C1823 C1827 1.393 . S
C1824 H1813 0.950 . S
C1824 C1822 1.391 . S
C1824 C1825 1.400 . S
C1825 C1819 1.491 . S
C1825 C1824 1.400 . S
C1825 C1826 1.398 . S
C1826 H1814 0.950 . S
C1826 C1825 1.398 . S
C1826 C1827 1.391 . S
C1827 H1815 0.950 . S
C1827 C1823 1.393 . S
C1827 C1826 1.391 . S
H1828 C1836 0.950 . S
H1829 C1841 0.950 . S
H1830 C1838 0.950 . S
H1831 C1840 0.950 . S
H1832 C1842 0.950 . S
H1833 C1844 0.950 . S
H1834 C1846 0.950 . S
H1835 C1847 0.950 . S
C1836 H1828 0.950 . S
C1836 C1837 1.386 . S
C1836 C1838 1.391 . S
C1837 C1836 1.386 . S
C1837 C1841 1.393 . S
C1838 H1830 0.950 . S
C1838 C1836 1.391 . S
C1838 C1839 1.400 . S
C1839 C1838 1.400 . S
C1839 C1840 1.398 . S
C1839 C1845 1.491 . S
C1840 H1831 0.950 . S
C1840 C1839 1.398 . S
C1840 C1841 1.391 . S
C1841 H1829 0.950 . S
C1841 C1837 1.393 . S
C1841 C1840 1.391 . S
C1842 H1832 0.950 . S
C1842 C1843 1.386 . S
C1842 C1844 1.391 . S
C1843 C1842 1.386 . S
C1843 C1847 1.393 . S
C1844 H1833 0.950 . S
C1844 C1842 1.391 . S
C1844 C1845 1.400 . S
C1845 C1839 1.491 . S
C1845 C1844 1.400 . S
C1845 C1846 1.398 . S
C1846 H1834 0.950 . S
C1846 C1845 1.398 . S
C1846 C1847 1.391 . S
C1847 H1835 0.950 . S
C1847 C1843 1.393 . S
C1847 C1846 1.391 . S
H1848 C1856 0.950 . S
H1849 C1861 0.950 . S
H1850 C1858 0.950 . S
H1851 C1860 0.950 . S
H1852 C1862 0.950 . S
H1853 C1864 0.950 . S
H1854 C1866 0.950 . S
H1855 C1867 0.950 . S
C1856 H1848 0.950 . S
C1856 C1857 1.386 . S
C1856 C1858 1.391 . S
C1857 C1856 1.386 . S
C1857 C1861 1.393 . S
C1858 H1850 0.950 . S
C1858 C1856 1.391 . S
C1858 C1859 1.400 . S
C1859 C1858 1.400 . S
C1859 C1860 1.398 . S
C1859 C1865 1.491 . S
C1860 H1851 0.950 . S
C1860 C1859 1.398 . S
C1860 C1861 1.391 . S
C1861 H1849 0.950 . S
C1861 C1857 1.393 . S
C1861 C1860 1.391 . S
C1862 H1852 0.950 . S
C1862 C1863 1.386 . S
C1862 C1864 1.391 . S
C1863 C1862 1.386 . S
C1863 C1867 1.393 . S
C1864 H1853 0.950 . S
C1864 C1862 1.391 . S
C1864 C1865 1.400 . S
C1865 C1859 1.491 . S
C1865 C1864 1.400 . S
C1865 C1866 1.398 . S
C1866 H1854 0.950 . S
C1866 C1865 1.398 . S
C1866 C1867 1.391 . S
C1867 H1855 0.950 . S
C1867 C1863 1.393 . S
C1867 C1866 1.391 . S
H1868 C1876 0.950 . S
H1869 C1881 0.950 . S
H1870 C1878 0.950 . S
H1871 C1880 0.950 . S
H1872 C1882 0.950 . S
H1873 C1884 0.950 . S
H1874 C1886 0.950 . S
H1875 C1887 0.950 . S
C1876 H1868 0.950 . S
C1876 C1877 1.386 . S
C1876 C1878 1.391 . S
C1877 C1876 1.386 . S
C1877 C1881 1.393 . S
C1878 H1870 0.950 . S
C1878 C1876 1.391 . S
C1878 C1879 1.400 . S
C1879 C1878 1.400 . S
C1879 C1880 1.398 . S
C1879 C1885 1.491 . S
C1880 H1871 0.950 . S
C1880 C1879 1.398 . S
C1880 C1881 1.391 . S
C1881 H1869 0.950 . S
C1881 C1877 1.393 . S
C1881 C1880 1.391 . S
C1882 H1872 0.950 . S
C1882 C1883 1.386 . S
C1882 C1884 1.391 . S
C1883 C1882 1.386 . S
C1883 C1887 1.393 . S
C1884 H1873 0.950 . S
C1884 C1882 1.391 . S
C1884 C1885 1.400 . S
C1885 C1879 1.491 . S
C1885 C1884 1.400 . S
C1885 C1886 1.398 . S
C1886 H1874 0.950 . S
C1886 C1885 1.398 . S
C1886 C1887 1.391 . S
C1887 H1875 0.950 . S
C1887 C1883 1.393 . S
C1887 C1886 1.391 . S
H1888 C1896 0.950 . S
H1889 C1901 0.950 . S
H1890 C1898 0.950 . S
H1891 C1900 0.950 . S
H1892 C1902 0.950 . S
H1893 C1904 0.950 . S
H1894 C1906 0.950 . S
H1895 C1907 0.950 . S
C1896 H1888 0.950 . S
C1896 C1897 1.386 . S
C1896 C1898 1.391 . S
C1897 C1896 1.386 . S
C1897 C1901 1.393 . S
C1898 H1890 0.950 . S
C1898 C1896 1.391 . S
C1898 C1899 1.400 . S
C1899 C1898 1.400 . S
C1899 C1900 1.398 . S
C1899 C1905 1.491 . S
C1900 H1891 0.950 . S
C1900 C1899 1.398 . S
C1900 C1901 1.391 . S
C1901 H1889 0.950 . S
C1901 C1897 1.393 . S
C1901 C1900 1.391 . S
C1902 H1892 0.950 . S
C1902 C1903 1.386 . S
C1902 C1904 1.391 . S
C1903 C1902 1.386 . S
C1903 C1907 1.393 . S
C1904 H1893 0.950 . S
C1904 C1902 1.391 . S
C1904 C1905 1.400 . S
C1905 C1899 1.491 . S
C1905 C1904 1.400 . S
C1905 C1906 1.398 . S
C1906 H1894 0.950 . S
C1906 C1905 1.398 . S
C1906 C1907 1.391 . S
C1907 H1895 0.950 . S
C1907 C1903 1.393 . S
C1907 C1906 1.391 . S
H1908 C1916 0.950 . S
H1909 C1921 0.950 . S
H1910 C1918 0.950 . S
H1911 C1920 0.950 . S
H1912 C1922 0.950 . S
H1913 C1924 0.950 . S
H1914 C1926 0.950 . S
H1915 C1927 0.950 . S
C1916 H1908 0.950 . S
C1916 C1917 1.386 . S
C1916 C1918 1.391 . S
C1917 C1916 1.386 . S
C1917 C1921 1.393 . S
C1918 H1910 0.950 . S
C1918 C1916 1.391 . S
C1918 C1919 1.400 . S
C1919 C1918 1.400 . S
C1919 C1920 1.398 . S
C1919 C1925 1.491 . S
C1920 H1911 0.950 . S
C1920 C1919 1.398 . S
C1920 C1921 1.391 . S
C1921 H1909 0.950 . S
C1921 C1917 1.393 . S
C1921 C1920 1.391 . S
C1922 H1912 0.950 . S
C1922 C1923 1.386 . S
C1922 C1924 1.391 . S
C1923 C1922 1.386 . S
C1923 C1927 1.393 . S
C1924 H1913 0.950 . S
C1924 C1922 1.391 . S
C1924 C1925 1.400 . S
C1925 C1919 1.491 . S
C1925 C1924 1.400 . S
C1925 C1926 1.398 . S
C1926 H1914 0.950 . S
C1926 C1925 1.398 . S
C1926 C1927 1.391 . S
C1927 H1915 0.950 . S
C1927 C1923 1.393 . S
C1927 C1926 1.391 . S
H1928 C1936 0.950 . S
H1929 C1941 0.950 . S
H1930 C1938 0.950 . S
H1931 C1940 0.950 . S
H1932 C1942 0.950 . S
H1933 C1944 0.950 . S
H1934 C1946 0.950 . S
H1935 C1947 0.950 . S
C1936 H1928 0.950 . S
C1936 C1937 1.386 . S
C1936 C1938 1.391 . S
C1937 C1936 1.386 . S
C1937 C1941 1.393 . S
C1938 H1930 0.950 . S
C1938 C1936 1.391 . S
C1938 C1939 1.400 . S
C1939 C1938 1.400 . S
C1939 C1940 1.398 . S
C1939 C1945 1.491 . S
C1940 H1931 0.950 . S
C1940 C1939 1.398 . S
C1940 C1941 1.391 . S
C1941 H1929 0.950 . S
C1941 C1937 1.393 . S
C1941 C1940 1.391 . S
C1942 H1932 0.950 . S
C1942 C1943 1.386 . S
C1942 C1944 1.391 . S
C1943 C1942 1.386 . S
C1943 C1947 1.393 . S
C1944 H1933 0.950 . S
C1944 C1942 1.391 . S
C1944 C1945 1.400 . S
C1945 C1939 1.491 . S
C1945 C1944 1.400 . S
C1945 C1946 1.398 . S
C1946 H1934 0.950 . S
C1946 C1945 1.398 . S
C1946 C1947 1.391 . S
C1947 H1935 0.950 . S
C1947 C1943 1.393 . S
C1947 C1946 1.391 . S
H1948 C1956 0.950 . S
H1949 C1961 0.950 . S
H1950 C1958 0.950 . S
H1951 C1960 0.950 . S
H1952 C1962 0.950 . S
H1953 C1964 0.950 . S
H1954 C1966 0.950 . S
H1955 C1967 0.950 . S
C1956 H1948 0.950 . S
C1956 C1957 1.386 . S
C1956 C1958 1.391 . S
C1957 C1956 1.386 . S
C1957 C1961 1.393 . S
C1958 H1950 0.950 . S
C1958 C1956 1.391 . S
C1958 C1959 1.400 . S
C1959 C1958 1.400 . S
C1959 C1960 1.398 . S
C1959 C1965 1.491 . S
C1960 H1951 0.950 . S
C1960 C1959 1.398 . S
C1960 C1961 1.391 . S
C1961 H1949 0.950 . S
C1961 C1957 1.393 . S
C1961 C1960 1.391 . S
C1962 H1952 0.950 . S
C1962 C1963 1.386 . S
C1962 C1964 1.391 . S
C1963 C1962 1.386 . S
C1963 C1967 1.393 . S
C1964 H1953 0.950 . S
C1964 C1962 1.391 . S
C1964 C1965 1.400 . S
C1965 C1959 1.491 . S
C1965 C1964 1.400 . S
C1965 C1966 1.398 . S
C1966 H1954 0.950 . S
C1966 C1965 1.398 . S
C1966 C1967 1.391 . S
C1967 H1955 0.950 . S
C1967 C1963 1.393 . S
C1967 C1966 1.391 . S
H1968 C1976 0.950 . S
H1969 C1981 0.950 . S
H1970 C1978 0.950 . S
H1971 C1980 0.950 . S
H1972 C1982 0.950 . S
H1973 C1984 0.950 . S
H1974 C1986 0.950 . S
H1975 C1987 0.950 . S
C1976 H1968 0.950 . S
C1976 C1977 1.386 . S
C1976 C1978 1.391 . S
C1977 C1976 1.386 . S
C1977 C1981 1.393 . S
C1978 H1970 0.950 . S
C1978 C1976 1.391 . S
C1978 C1979 1.400 . S
C1979 C1978 1.400 . S
C1979 C1980 1.398 . S
C1979 C1985 1.491 . S
C1980 H1971 0.950 . S
C1980 C1979 1.398 . S
C1980 C1981 1.391 . S
C1981 H1969 0.950 . S
C1981 C1977 1.393 . S
C1981 C1980 1.391 . S
C1982 H1972 0.950 . S
C1982 C1983 1.386 . S
C1982 C1984 1.391 . S
C1983 C1982 1.386 . S
C1983 C1987 1.393 . S
C1984 H1973 0.950 . S
C1984 C1982 1.391 . S
C1984 C1985 1.400 . S
C1985 C1979 1.491 . S
C1985 C1984 1.400 . S
C1985 C1986 1.398 . S
C1986 H1974 0.950 . S
C1986 C1985 1.398 . S
C1986 C1987 1.391 . S
C1987 H1975 0.950 . S
C1987 C1983 1.393 . S
C1987 C1986 1.391 . S
H1988 C1996 0.950 . S
H1989 C2001 0.950 . S
H1990 C1998 0.950 . S
H1991 C2000 0.950 . S
H1992 C2002 0.950 . S
H1993 C2004 0.950 . S
H1994 C2006 0.950 . S
H1995 C2007 0.950 . S
C1996 H1988 0.950 . S
C1996 C1997 1.386 . S
C1996 C1998 1.391 . S
C1997 C1996 1.386 . S
C1997 C2001 1.393 . S
C1998 H1990 0.950 . S
C1998 C1996 1.391 . S
C1998 C1999 1.400 . S
C1999 C1998 1.400 . S
C1999 C2000 1.398 . S
C1999 C2005 1.491 . S
C2000 H1991 0.950 . S
C2000 C1999 1.398 . S
C2000 C2001 1.391 . S
C2001 H1989 0.950 . S
C2001 C1997 1.393 . S
C2001 C2000 1.391 . S
C2002 H1992 0.950 . S
C2002 C2003 1.386 . S
C2002 C2004 1.391 . S
C2003 C2002 1.386 . S
C2003 C2007 1.393 . S
C2004 H1993 0.950 . S
C2004 C2002 1.391 . S
C2004 C2005 1.400 . S
C2005 C1999 1.491 . S
C2005 C2004 1.400 . S
C2005 C2006 1.398 . S
C2006 H1994 0.950 . S
C2006 C2005 1.398 . S
C2006 C2007 1.391 . S
C2007 H1995 0.950 . S
C2007 C2003 1.393 . S
C2007 C2006 1.391 . S
H2008 C2016 0.950 . S
H2009 C2021 0.950 . S
H2010 C2018 0.950 . S
H2011 C2020 0.950 . S
H2012 C2022 0.950 . S
H2013 C2024 0.950 . S
H2014 C2026 0.950 . S
H2015 C2027 0.950 . S
C2016 H2008 0.950 . S
C2016 C2017 1.386 . S
C2016 C2018 1.391 . S
C2017 C2016 1.386 . S
C2017 C2021 1.393 . S
C2018 H2010 0.950 . S
C2018 C2016 1.391 . S
C2018 C2019 1.400 . S
C2019 C2018 1.400 . S
C2019 C2020 1.398 . S
C2019 C2025 1.491 . S
C2020 H2011 0.950 . S
C2020 C2019 1.398 . S
C2020 C2021 1.391 . S
C2021 H2009 0.950 . S
C2021 C2017 1.393 . S
C2021 C2020 1.391 . S
C2022 H2012 0.950 . S
C2022 C2023 1.386 . S
C2022 C2024 1.391 . S
C2023 C2022 1.386 . S
C2023 C2027 1.393 . S
C2024 H2013 0.950 . S
C2024 C2022 1.391 . S
C2024 C2025 1.400 . S
C2025 C2019 1.491 . S
C2025 C2024 1.400 . S
C2025 C2026 1.398 . S
C2026 H2014 0.950 . S
C2026 C2025 1.398 . S
C2026 C2027 1.391 . S
C2027 H2015 0.950 . S
C2027 C2023 1.393 . S
C2027 C2026 1.391 . S
H2028 C2036 0.950 . S
H2029 C2041 0.950 . S
H2030 C2038 0.950 . S
H2031 C2040 0.950 . S
H2032 C2042 0.950 . S
H2033 C2044 0.950 . S
H2034 C2046 0.950 . S
H2035 C2047 0.950 . S
C2036 H2028 0.950 . S
C2036 C2037 1.386 . S
C2036 C2038 1.391 . S
C2037 C2036 1.386 . S
C2037 C2041 1.393 . S
C2038 H2030 0.950 . S
C2038 C2036 1.391 . S
C2038 C2039 1.400 . S
C2039 C2038 1.400 . S
C2039 C2040 1.398 . S
C2039 C2045 1.491 . S
C2040 H2031 0.950 . S
C2040 C2039 1.398 . S
C2040 C2041 1.391 . S
C2041 H2029 0.950 . S
C2041 C2037 1.393 . S
C2041 C2040 1.391 . S
C2042 H2032 0.950 . S
C2042 C2043 1.386 . S
C2042 C2044 1.391 . S
C2043 C2042 1.386 . S
C2043 C2047 1.393 . S
C2044 H2033 0.950 . S
C2044 C2042 1.391 . S
C2044 C2045 1.400 . S
C2045 C2039 1.491 . S
C2045 C2044 1.400 . S
C2045 C2046 1.398 . S
C2046 H2034 0.950 . S
C2046 C2045 1.398 . S
C2046 C2047 1.391 . S
C2047 H2035 0.950 . S
C2047 C2043 1.393 . S
C2047 C2046 1.391 . S
H2048 C2056 0.950 . S
H2049 C2061 0.950 . S
H2050 C2058 0.950 . S
H2051 C2060 0.950 . S
H2052 C2062 0.950 . S
H2053 C2064 0.950 . S
H2054 C2066 0.950 . S
H2055 C2067 0.950 . S
C2056 H2048 0.950 . S
C2056 C2057 1.386 . S
C2056 C2058 1.391 . S
C2057 C2056 1.386 . S
C2057 C2061 1.393 . S
C2058 H2050 0.950 . S
C2058 C2056 1.391 . S
C2058 C2059 1.400 . S
C2059 C2058 1.400 . S
C2059 C2060 1.398 . S
C2059 C2065 1.491 . S
C2060 H2051 0.950 . S
C2060 C2059 1.398 . S
C2060 C2061 1.391 . S
C2061 H2049 0.950 . S
C2061 C2057 1.393 . S
C2061 C2060 1.391 . S
C2062 H2052 0.950 . S
C2062 C2063 1.386 . S
C2062 C2064 1.391 . S
C2063 C2062 1.386 . S
C2063 C2067 1.393 . S
C2064 H2053 0.950 . S
C2064 C2062 1.391 . S
C2064 C2065 1.400 . S
C2065 C2059 1.491 . S
C2065 C2064 1.400 . S
C2065 C2066 1.398 . S
C2066 H2054 0.950 . S
C2066 C2065 1.398 . S
C2066 C2067 1.391 . S
C2067 H2055 0.950 . S
C2067 C2063 1.393 . S
C2067 C2066 1.391 . S
H2068 C2076 0.950 . S
H2069 C2081 0.950 . S
H2070 C2078 0.950 . S
H2071 C2080 0.950 . S
H2072 C2082 0.950 . S
H2073 C2084 0.950 . S
H2074 C2086 0.950 . S
H2075 C2087 0.950 . S
C2076 H2068 0.950 . S
C2076 C2077 1.386 . S
C2076 C2078 1.391 . S
C2077 C2076 1.386 . S
C2077 C2081 1.393 . S
C2078 H2070 0.950 . S
C2078 C2076 1.391 . S
C2078 C2079 1.400 . S
C2079 C2078 1.400 . S
C2079 C2080 1.398 . S
C2079 C2085 1.491 . S
C2080 H2071 0.950 . S
C2080 C2079 1.398 . S
C2080 C2081 1.391 . S
C2081 H2069 0.950 . S
C2081 C2077 1.393 . S
C2081 C2080 1.391 . S
C2082 H2072 0.950 . S
C2082 C2083 1.386 . S
C2082 C2084 1.391 . S
C2083 C2082 1.386 . S
C2083 C2087 1.393 . S
C2084 H2073 0.950 . S
C2084 C2082 1.391 . S
C2084 C2085 1.400 . S
C2085 C2079 1.491 . S
C2085 C2084 1.400 . S
C2085 C2086 1.398 . S
C2086 H2074 0.950 . S
C2086 C2085 1.398 . S
C2086 C2087 1.391 . S
C2087 H2075 0.950 . S
C2087 C2083 1.393 . S
C2087 C2086 1.391 . S
H2088 C2096 0.950 . S
H2089 C2101 0.950 . S
H2090 C2098 0.950 . S
H2091 C2100 0.950 . S
H2092 C2102 0.950 . S
H2093 C2104 0.950 . S
H2094 C2106 0.950 . S
H2095 C2107 0.950 . S
C2096 H2088 0.950 . S
C2096 C2097 1.386 . S
C2096 C2098 1.391 . S
C2097 C2096 1.386 . S
C2097 C2101 1.393 . S
C2098 H2090 0.950 . S
C2098 C2096 1.391 . S
C2098 C2099 1.400 . S
C2099 C2098 1.400 . S
C2099 C2100 1.398 . S
C2099 C2105 1.491 . S
C2100 H2091 0.950 . S
C2100 C2099 1.398 . S
C2100 C2101 1.391 . S
C2101 H2089 0.950 . S
C2101 C2097 1.393 . S
C2101 C2100 1.391 . S
C2102 H2092 0.950 . S
C2102 C2103 1.386 . S
C2102 C2104 1.391 . S
C2103 C2102 1.386 . S
C2103 C2107 1.393 . S
C2104 H2093 0.950 . S
C2104 C2102 1.391 . S
C2104 C2105 1.400 . S
C2105 C2099 1.491 . S
C2105 C2104 1.400 . S
C2105 C2106 1.398 . S
C2106 H2094 0.950 . S
C2106 C2105 1.398 . S
C2106 C2107 1.391 . S
C2107 H2095 0.950 . S
C2107 C2103 1.393 . S
C2107 C2106 1.391 . S
H2108 C2116 0.950 . S
H2109 C2121 0.950 . S
H2110 C2118 0.950 . S
H2111 C2120 0.950 . S
H2112 C2122 0.950 . S
H2113 C2124 0.950 . S
H2114 C2126 0.950 . S
H2115 C2127 0.950 . S
C2116 H2108 0.950 . S
C2116 C2117 1.386 . S
C2116 C2118 1.391 . S
C2117 C2116 1.386 . S
C2117 C2121 1.393 . S
C2118 H2110 0.950 . S
C2118 C2116 1.391 . S
C2118 C2119 1.400 . S
C2119 C2118 1.400 . S
C2119 C2120 1.398 . S
C2119 C2125 1.491 . S
C2120 H2111 0.950 . S
C2120 C2119 1.398 . S
C2120 C2121 1.391 . S
C2121 H2109 0.950 . S
C2121 C2117 1.393 . S
C2121 C2120 1.391 . S
C2122 H2112 0.950 . S
C2122 C2123 1.386 . S
C2122 C2124 1.391 . S
C2123 C2122 1.386 . S
C2123 C2127 1.393 . S
C2124 H2113 0.950 . S
C2124 C2122 1.391 . S
C2124 C2125 1.400 . S
C2125 C2119 1.491 . S
C2125 C2124 1.400 . S
C2125 C2126 1.398 . S
C2126 H2114 0.950 . S
C2126 C2125 1.398 . S
C2126 C2127 1.391 . S
C2127 H2115 0.950 . S
C2127 C2123 1.393 . S
C2127 C2126 1.391 . S
H2128 C2136 0.950 . S
H2129 C2141 0.950 . S
H2130 C2138 0.950 . S
H2131 C2140 0.950 . S
H2132 C2142 0.950 . S
H2133 C2144 0.950 . S
H2134 C2146 0.950 . S
H2135 C2147 0.950 . S
C2136 H2128 0.950 . S
C2136 C2137 1.386 . S
C2136 C2138 1.391 . S
C2137 C2136 1.386 . S
C2137 C2141 1.393 . S
C2138 H2130 0.950 . S
C2138 C2136 1.391 . S
C2138 C2139 1.400 . S
C2139 C2138 1.400 . S
C2139 C2140 1.398 . S
C2139 C2145 1.491 . S
C2140 H2131 0.950 . S
C2140 C2139 1.398 . S
C2140 C2141 1.391 . S
C2141 H2129 0.950 . S
C2141 C2137 1.393 . S
C2141 C2140 1.391 . S
C2142 H2132 0.950 . S
C2142 C2143 1.386 . S
C2142 C2144 1.391 . S
C2143 C2142 1.386 . S
C2143 C2147 1.393 . S
C2144 H2133 0.950 . S
C2144 C2142 1.391 . S
C2144 C2145 1.400 . S
C2145 C2139 1.491 . S
C2145 C2144 1.400 . S
C2145 C2146 1.398 . S
C2146 H2134 0.950 . S
C2146 C2145 1.398 . S
C2146 C2147 1.391 . S
C2147 H2135 0.950 . S
C2147 C2143 1.393 . S
C2147 C2146 1.391 . S
H2148 C2156 0.950 . S
H2149 C2161 0.950 . S
H2150 C2158 0.950 . S
H2151 C2160 0.950 . S
H2152 C2162 0.950 . S
H2153 C2164 0.950 . S
H2154 C2166 0.950 . S
H2155 C2167 0.950 . S
C2156 H2148 0.950 . S
C2156 C2157 1.386 . S
C2156 C2158 1.391 . S
C2157 C2156 1.386 . S
C2157 C2161 1.393 . S
C2158 H2150 0.950 . S
C2158 C2156 1.391 . S
C2158 C2159 1.400 . S
C2159 C2158 1.400 . S
C2159 C2160 1.398 . S
C2159 C2165 1.491 . S
C2160 H2151 0.950 . S
C2160 C2159 1.398 . S
C2160 C2161 1.391 . S
C2161 H2149 0.950 . S
C2161 C2157 1.393 . S
C2161 C2160 1.391 . S
C2162 H2152 0.950 . S
C2162 C2163 1.386 . S
C2162 C2164 1.391 . S
C2163 C2162 1.386 . S
C2163 C2167 1.393 . S
C2164 H2153 0.950 . S
C2164 C2162 1.391 . S
C2164 C2165 1.400 . S
C2165 C2159 1.491 . S
C2165 C2164 1.400 . S
C2165 C2166 1.398 . S
C2166 H2154 0.950 . S
C2166 C2165 1.398 . S
C2166 C2167 1.391 . S
C2167 H2155 0.950 . S
C2167 C2163 1.393 . S
C2167 C2166 1.391 . S
H2168 C2176 0.950 . S
H2169 C2181 0.950 . S
H2170 C2178 0.950 . S
H2171 C2180 0.950 . S
H2172 C2182 0.950 . S
H2173 C2184 0.950 . S
H2174 C2186 0.950 . S
H2175 C2187 0.950 . S
C2176 H2168 0.950 . S
C2176 C2177 1.386 . S
C2176 C2178 1.391 . S
C2177 C2176 1.386 . S
C2177 C2181 1.393 . S
C2178 H2170 0.950 . S
C2178 C2176 1.391 . S
C2178 C2179 1.400 . S
C2179 C2178 1.400 . S
C2179 C2180 1.398 . S
C2179 C2185 1.491 . S
C2180 H2171 0.950 . S
C2180 C2179 1.398 . S
C2180 C2181 1.391 . S
C2181 H2169 0.950 . S
C2181 C2177 1.393 . S
C2181 C2180 1.391 . S
C2182 H2172 0.950 . S
C2182 C2183 1.386 . S
C2182 C2184 1.391 . S
C2183 C2182 1.386 . S
C2183 C2187 1.393 . S
C2184 H2173 0.950 . S
C2184 C2182 1.391 . S
C2184 C2185 1.400 . S
C2185 C2179 1.491 . S
C2185 C2184 1.400 . S
C2185 C2186 1.398 . S
C2186 H2174 0.950 . S
C2186 C2185 1.398 . S
C2186 C2187 1.391 . S
C2187 H2175 0.950 . S
C2187 C2183 1.393 . S
C2187 C2186 1.391 . S
H2188 C2196 0.950 . S
H2189 C2201 0.950 . S
H2190 C2198 0.950 . S
H2191 C2200 0.950 . S
H2192 C2202 0.950 . S
H2193 C2204 0.950 . S
H2194 C2206 0.950 . S
H2195 C2207 0.950 . S
C2196 H2188 0.950 . S
C2196 C2197 1.386 . S
C2196 C2198 1.391 . S
C2197 C2196 1.386 . S
C2197 C2201 1.393 . S
C2198 H2190 0.950 . S
C2198 C2196 1.391 . S
C2198 C2199 1.400 . S
C2199 C2198 1.400 . S
C2199 C2200 1.398 . S
C2199 C2205 1.491 . S
C2200 H2191 0.950 . S
C2200 C2199 1.398 . S
C2200 C2201 1.391 . S
C2201 H2189 0.950 . S
C2201 C2197 1.393 . S
C2201 C2200 1.391 . S
C2202 H2192 0.950 . S
C2202 C2203 1.386 . S
C2202 C2204 1.391 . S
C2203 C2202 1.386 . S
C2203 C2207 1.393 . S
C2204 H2193 0.950 . S
C2204 C2202 1.391 . S
C2204 C2205 1.400 . S
C2205 C2199 1.491 . S
C2205 C2204 1.400 . S
C2205 C2206 1.398 . S
C2206 H2194 0.950 . S
C2206 C2205 1.398 . S
C2206 C2207 1.391 . S
C2207 H2195 0.950 . S
C2207 C2203 1.393 . S
C2207 C2206 1.391 . S
H2208 C2216 0.950 . S
H2209 C2221 0.950 . S
H2210 C2218 0.950 . S
H2211 C2220 0.950 . S
H2212 C2222 0.950 . S
H2213 C2224 0.950 . S
H2214 C2226 0.950 . S
H2215 C2227 0.950 . S
C2216 H2208 0.950 . S
C2216 C2217 1.386 . S
C2216 C2218 1.391 . S
C2217 C2216 1.386 . S
C2217 C2221 1.393 . S
C2218 H2210 0.950 . S
C2218 C2216 1.391 . S
C2218 C2219 1.400 . S
C2219 C2218 1.400 . S
C2219 C2220 1.398 . S
C2219 C2225 1.491 . S
C2220 H2211 0.950 . S
C2220 C2219 1.398 . S
C2220 C2221 1.391 . S
C2221 H2209 0.950 . S
C2221 C2217 1.393 . S
C2221 C2220 1.391 . S
C2222 H2212 0.950 . S
C2222 C2223 1.386 . S
C2222 C2224 1.391 . S
C2223 C2222 1.386 . S
C2223 C2227 1.393 . S
C2224 H2213 0.950 . S
C2224 C2222 1.391 . S
C2224 C2225 1.400 . S
C2225 C2219 1.491 . S
C2225 C2224 1.400 . S
C2225 C2226 1.398 . S
C2226 H2214 0.950 . S
C2226 C2225 1.398 . S
C2226 C2227 1.391 . S
C2227 H2215 0.950 . S
C2227 C2223 1.393 . S
C2227 C2226 1.391 . S
H2228 C2236 0.950 . S
H2229 C2241 0.950 . S
H2230 C2238 0.950 . S
H2231 C2240 0.950 . S
H2232 C2242 0.950 . S
H2233 C2244 0.950 . S
H2234 C2246 0.950 . S
H2235 C2247 0.950 . S
C2236 H2228 0.950 . S
C2236 C2237 1.386 . S
C2236 C2238 1.391 . S
C2237 C2236 1.386 . S
C2237 C2241 1.393 . S
C2238 H2230 0.950 . S
C2238 C2236 1.391 . S
C2238 C2239 1.400 . S
C2239 C2238 1.400 . S
C2239 C2240 1.398 . S
C2239 C2245 1.491 . S
C2240 H2231 0.950 . S
C2240 C2239 1.398 . S
C2240 C2241 1.391 . S
C2241 H2229 0.950 . S
C2241 C2237 1.393 . S
C2241 C2240 1.391 . S
C2242 H2232 0.950 . S
C2242 C2243 1.386 . S
C2242 C2244 1.391 . S
C2243 C2242 1.386 . S
C2243 C2247 1.393 . S
C2244 H2233 0.950 . S
C2244 C2242 1.391 . S
C2244 C2245 1.400 . S
C2245 C2239 1.491 . S
C2245 C2244 1.400 . S
C2245 C2246 1.398 . S
C2246 H2234 0.950 . S
C2246 C2245 1.398 . S
C2246 C2247 1.391 . S
C2247 H2235 0.950 . S
C2247 C2243 1.393 . S
C2247 C2246 1.391 . S
H2248 C2256 0.950 . S
H2249 C2261 0.950 . S
H2250 C2258 0.950 . S
H2251 C2260 0.950 . S
H2252 C2262 0.950 . S
H2253 C2264 0.950 . S
H2254 C2266 0.950 . S
H2255 C2267 0.950 . S
C2256 H2248 0.950 . S
C2256 C2257 1.386 . S
C2256 C2258 1.391 . S
C2257 C2256 1.386 . S
C2257 C2261 1.393 . S
C2258 H2250 0.950 . S
C2258 C2256 1.391 . S
C2258 C2259 1.400 . S
C2259 C2258 1.400 . S
C2259 C2260 1.398 . S
C2259 C2265 1.491 . S
C2260 H2251 0.950 . S
C2260 C2259 1.398 . S
C2260 C2261 1.391 . S
C2261 H2249 0.950 . S
C2261 C2257 1.393 . S
C2261 C2260 1.391 . S
C2262 H2252 0.950 . S
C2262 C2263 1.386 . S
C2262 C2264 1.391 . S
C2263 C2262 1.386 . S
C2263 C2267 1.393 . S
C2264 H2253 0.950 . S
C2264 C2262 1.391 . S
C2264 C2265 1.400 . S
C2265 C2259 1.491 . S
C2265 C2264 1.400 . S
C2265 C2266 1.398 . S
C2266 H2254 0.950 . S
C2266 C2265 1.398 . S
C2266 C2267 1.391 . S
C2267 H2255 0.950 . S
C2267 C2263 1.393 . S
C2267 C2266 1.391 . S
H2268 C2276 0.950 . S
H2269 C2281 0.950 . S
H2270 C2278 0.950 . S
H2271 C2280 0.950 . S
H2272 C2282 0.950 . S
H2273 C2284 0.950 . S
H2274 C2286 0.950 . S
H2275 C2287 0.950 . S
C2276 H2268 0.950 . S
C2276 C2277 1.386 . S
C2276 C2278 1.391 . S
C2277 C2276 1.386 . S
C2277 C2281 1.393 . S
C2278 H2270 0.950 . S
C2278 C2276 1.391 . S
C2278 C2279 1.400 . S
C2279 C2278 1.400 . S
C2279 C2280 1.398 . S
C2279 C2285 1.491 . S
C2280 H2271 0.950 . S
C2280 C2279 1.398 . S
C2280 C2281 1.391 . S
C2281 H2269 0.950 . S
C2281 C2277 1.393 . S
C2281 C2280 1.391 . S
C2282 H2272 0.950 . S
C2282 C2283 1.386 . S
C2282 C2284 1.391 . S
C2283 C2282 1.386 . S
C2283 C2287 1.393 . S
C2284 H2273 0.950 . S
C2284 C2282 1.391 . S
C2284 C2285 1.400 . S
C2285 C2279 1.491 . S
C2285 C2284 1.400 . S
C2285 C2286 1.398 . S
C2286 H2274 0.950 . S
C2286 C2285 1.398 . S
C2286 C2287 1.391 . S
C2287 H2275 0.950 . S
C2287 C2283 1.393 . S
C2287 C2286 1.391 . S
H2288 C2296 0.950 . S
H2289 C2301 0.950 . S
H2290 C2298 0.950 . S
H2291 C2300 0.950 . S
H2292 C2302 0.950 . S
H2293 C2304 0.950 . S
H2294 C2306 0.950 . S
H2295 C2307 0.950 . S
C2296 H2288 0.950 . S
C2296 C2297 1.386 . S
C2296 C2298 1.391 . S
C2297 C2296 1.386 . S
C2297 C2301 1.393 . S
C2298 H2290 0.950 . S
C2298 C2296 1.391 . S
C2298 C2299 1.400 . S
C2299 C2298 1.400 . S
C2299 C2300 1.398 . S
C2299 C2305 1.491 . S
C2300 H2291 0.950 . S
C2300 C2299 1.398 . S
C2300 C2301 1.391 . S
C2301 H2289 0.950 . S
C2301 C2297 1.393 . S
C2301 C2300 1.391 . S
C2302 H2292 0.950 . S
C2302 C2303 1.386 . S
C2302 C2304 1.391 . S
C2303 C2302 1.386 . S
C2303 C2307 1.393 . S
C2304 H2293 0.950 . S
C2304 C2302 1.391 . S
C2304 C2305 1.400 . S
C2305 C2299 1.491 . S
C2305 C2304 1.400 . S
C2305 C2306 1.398 . S
C2306 H2294 0.950 . S
C2306 C2305 1.398 . S
C2306 C2307 1.391 . S
C2307 H2295 0.950 . S
C2307 C2303 1.393 . S
C2307 C2306 1.391 . S
H2308 C2316 0.950 . S
H2309 C2321 0.950 . S
H2310 C2318 0.950 . S
H2311 C2320 0.950 . S
H2312 C2322 0.950 . S
H2313 C2324 0.950 . S
H2314 C2326 0.950 . S
H2315 C2327 0.950 . S
C2316 H2308 0.950 . S
C2316 C2317 1.386 . S
C2316 C2318 1.391 . S
C2317 C2316 1.386 . S
C2317 C2321 1.393 . S
C2318 H2310 0.950 . S
C2318 C2316 1.391 . S
C2318 C2319 1.400 . S
C2319 C2318 1.400 . S
C2319 C2320 1.398 . S
C2319 C2325 1.491 . S
C2320 H2311 0.950 . S
C2320 C2319 1.398 . S
C2320 C2321 1.391 . S
C2321 H2309 0.950 . S
C2321 C2317 1.393 . S
C2321 C2320 1.391 . S
C2322 H2312 0.950 . S
C2322 C2323 1.386 . S
C2322 C2324 1.391 . S
C2323 C2322 1.386 . S
C2323 C2327 1.393 . S
C2324 H2313 0.950 . S
C2324 C2322 1.391 . S
C2324 C2325 1.400 . S
C2325 C2319 1.491 . S
C2325 C2324 1.400 . S
C2325 C2326 1.398 . S
C2326 H2314 0.950 . S
C2326 C2325 1.398 . S
C2326 C2327 1.391 . S
C2327 H2315 0.950 . S
C2327 C2323 1.393 . S
C2327 C2326 1.391 . S
H2328 C2336 0.950 . S
H2329 C2341 0.950 . S
H2330 C2338 0.950 . S
H2331 C2340 0.950 . S
H2332 C2342 0.950 . S
H2333 C2344 0.950 . S
H2334 C2346 0.950 . S
H2335 C2347 0.950 . S
C2336 H2328 0.950 . S
C2336 C2337 1.386 . S
C2336 C2338 1.391 . S
C2337 C2336 1.386 . S
C2337 C2341 1.393 . S
C2338 H2330 0.950 . S
C2338 C2336 1.391 . S
C2338 C2339 1.400 . S
C2339 C2338 1.400 . S
C2339 C2340 1.398 . S
C2339 C2345 1.491 . S
C2340 H2331 0.950 . S
C2340 C2339 1.398 . S
C2340 C2341 1.391 . S
C2341 H2329 0.950 . S
C2341 C2337 1.393 . S
C2341 C2340 1.391 . S
C2342 H2332 0.950 . S
C2342 C2343 1.386 . S
C2342 C2344 1.391 . S
C2343 C2342 1.386 . S
C2343 C2347 1.393 . S
C2344 H2333 0.950 . S
C2344 C2342 1.391 . S
C2344 C2345 1.400 . S
C2345 C2339 1.491 . S
C2345 C2344 1.400 . S
C2345 C2346 1.398 . S
C2346 H2334 0.950 . S
C2346 C2345 1.398 . S
C2346 C2347 1.391 . S
C2347 H2335 0.950 . S
C2347 C2343 1.393 . S
C2347 C2346 1.391 . S
H2348 C2356 0.950 . S
H2349 C2361 0.950 . S
H2350 C2358 0.950 . S
H2351 C2360 0.950 . S
H2352 C2362 0.950 . S
H2353 C2364 0.950 . S
H2354 C2366 0.950 . S
H2355 C2367 0.950 . S
C2356 H2348 0.950 . S
C2356 C2357 1.386 . S
C2356 C2358 1.391 . S
C2357 C2356 1.386 . S
C2357 C2361 1.393 . S
C2358 H2350 0.950 . S
C2358 C2356 1.391 . S
C2358 C2359 1.400 . S
C2359 C2358 1.400 . S
C2359 C2360 1.398 . S
C2359 C2365 1.491 . S
C2360 H2351 0.950 . S
C2360 C2359 1.398 . S
C2360 C2361 1.391 . S
C2361 H2349 0.950 . S
C2361 C2357 1.393 . S
C2361 C2360 1.391 . S
C2362 H2352 0.950 . S
C2362 C2363 1.386 . S
C2362 C2364 1.391 . S
C2363 C2362 1.386 . S
C2363 C2367 1.393 . S
C2364 H2353 0.950 . S
C2364 C2362 1.391 . S
C2364 C2365 1.400 . S
C2365 C2359 1.491 . S
C2365 C2364 1.400 . S
C2365 C2366 1.398 . S
C2366 H2354 0.950 . S
C2366 C2365 1.398 . S
C2366 C2367 1.391 . S
C2367 H2355 0.950 . S
C2367 C2363 1.393 . S
C2367 C2366 1.391 . S
H2368 C2376 0.950 . S
H2369 C2381 0.950 . S
H2370 C2378 0.950 . S
H2371 C2380 0.950 . S
H2372 C2382 0.950 . S
H2373 C2384 0.950 . S
H2374 C2386 0.950 . S
H2375 C2387 0.950 . S
C2376 H2368 0.950 . S
C2376 C2377 1.386 . S
C2376 C2378 1.391 . S
C2377 C2376 1.386 . S
C2377 C2381 1.393 . S
C2378 H2370 0.950 . S
C2378 C2376 1.391 . S
C2378 C2379 1.400 . S
C2379 C2378 1.400 . S
C2379 C2380 1.398 . S
C2379 C2385 1.491 . S
C2380 H2371 0.950 . S
C2380 C2379 1.398 . S
C2380 C2381 1.391 . S
C2381 H2369 0.950 . S
C2381 C2377 1.393 . S
C2381 C2380 1.391 . S
C2382 H2372 0.950 . S
C2382 C2383 1.386 . S
C2382 C2384 1.391 . S
C2383 C2382 1.386 . S
C2383 C2387 1.393 . S
C2384 H2373 0.950 . S
C2384 C2382 1.391 . S
C2384 C2385 1.400 . S
C2385 C2379 1.491 . S
C2385 C2384 1.400 . S
C2385 C2386 1.398 . S
C2386 H2374 0.950 . S
C2386 C2385 1.398 . S
C2386 C2387 1.391 . S
C2387 H2375 0.950 . S
C2387 C2383 1.393 . S
C2387 C2386 1.391 . S
H2388 C2396 0.950 . S
H2389 C2401 0.950 . S
H2390 C2398 0.950 . S
H2391 C2400 0.950 . S
H2392 C2402 0.950 . S
H2393 C2404 0.950 . S
H2394 C2406 0.950 . S
H2395 C2407 0.950 . S
C2396 H2388 0.950 . S
C2396 C2397 1.386 . S
C2396 C2398 1.391 . S
C2397 C2396 1.386 . S
C2397 C2401 1.393 . S
C2398 H2390 0.950 . S
C2398 C2396 1.391 . S
C2398 C2399 1.400 . S
C2399 C2398 1.400 . S
C2399 C2400 1.398 . S
C2399 C2405 1.491 . S
C2400 H2391 0.950 . S
C2400 C2399 1.398 . S
C2400 C2401 1.391 . S
C2401 H2389 0.950 . S
C2401 C2397 1.393 . S
C2401 C2400 1.391 . S
C2402 H2392 0.950 . S
C2402 C2403 1.386 . S
C2402 C2404 1.391 . S
C2403 C2402 1.386 . S
C2403 C2407 1.393 . S
C2404 H2393 0.950 . S
C2404 C2402 1.391 . S
C2404 C2405 1.400 . S
C2405 C2399 1.491 . S
C2405 C2404 1.400 . S
C2405 C2406 1.398 . S
C2406 H2394 0.950 . S
C2406 C2405 1.398 . S
C2406 C2407 1.391 . S
C2407 H2395 0.950 . S
C2407 C2403 1.393 . S
C2407 C2406 1.391 . S
H2408 C2416 0.950 . S
H2409 C2421 0.950 . S
H2410 C2418 0.950 . S
H2411 C2420 0.950 . S
H2412 C2422 0.950 . S
H2413 C2424 0.950 . S
H2414 C2426 0.950 . S
H2415 C2427 0.950 . S
C2416 H2408 0.950 . S
C2416 C2417 1.386 . S
C2416 C2418 1.391 . S
C2417 C2416 1.386 . S
C2417 C2421 1.393 . S
C2418 H2410 0.950 . S
C2418 C2416 1.391 . S
C2418 C2419 1.400 . S
C2419 C2418 1.400 . S
C2419 C2420 1.398 . S
C2419 C2425 1.491 . S
C2420 H2411 0.950 . S
C2420 C2419 1.398 . S
C2420 C2421 1.391 . S
C2421 H2409 0.950 . S
C2421 C2417 1.393 . S
C2421 C2420 1.391 . S
C2422 H2412 0.950 . S
C2422 C2423 1.386 . S
C2422 C2424 1.391 . S
C2423 C2422 1.386 . S
C2423 C2427 1.393 . S
C2424 H2413 0.950 . S
C2424 C2422 1.391 . S
C2424 C2425 1.400 . S
C2425 C2419 1.491 . S
C2425 C2424 1.400 . S
C2425 C2426 1.398 . S
C2426 H2414 0.950 . S
C2426 C2425 1.398 . S
C2426 C2427 1.391 . S
C2427 H2415 0.950 . S
C2427 C2423 1.393 . S
C2427 C2426 1.391 . S
H2428 C2436 0.950 . S
H2429 C2441 0.950 . S
H2430 C2438 0.950 . S
H2431 C2440 0.950 . S
H2432 C2442 0.950 . S
H2433 C2444 0.950 . S
H2434 C2446 0.950 . S
H2435 C2447 0.950 . S
C2436 H2428 0.950 . S
C2436 C2437 1.386 . S
C2436 C2438 1.391 . S
C2437 C2436 1.386 . S
C2437 C2441 1.393 . S
C2438 H2430 0.950 . S
C2438 C2436 1.391 . S
C2438 C2439 1.400 . S
C2439 C2438 1.400 . S
C2439 C2440 1.398 . S
C2439 C2445 1.491 . S
C2440 H2431 0.950 . S
C2440 C2439 1.398 . S
C2440 C2441 1.391 . S
C2441 H2429 0.950 . S
C2441 C2437 1.393 . S
C2441 C2440 1.391 . S
C2442 H2432 0.950 . S
C2442 C2443 1.386 . S
C2442 C2444 1.391 . S
C2443 C2442 1.386 . S
C2443 C2447 1.393 . S
C2444 H2433 0.950 . S
C2444 C2442 1.391 . S
C2444 C2445 1.400 . S
C2445 C2439 1.491 . S
C2445 C2444 1.400 . S
C2445 C2446 1.398 . S
C2446 H2434 0.950 . S
C2446 C2445 1.398 . S
C2446 C2447 1.391 . S
C2447 H2435 0.950 . S
C2447 C2443 1.393 . S
C2447 C2446 1.391 . S
H2448 C2456 0.950 . S
H2449 C2461 0.950 . S
H2450 C2458 0.950 . S
H2451 C2460 0.950 . S
H2452 C2462 0.950 . S
H2453 C2464 0.950 . S
H2454 C2466 0.950 . S
H2455 C2467 0.950 . S
C2456 H2448 0.950 . S
C2456 C2457 1.386 . S
C2456 C2458 1.391 . S
C2457 C2456 1.386 . S
C2457 C2461 1.393 . S
C2458 H2450 0.950 . S
C2458 C2456 1.391 . S
C2458 C2459 1.400 . S
C2459 C2458 1.400 . S
C2459 C2460 1.398 . S
C2459 C2465 1.491 . S
C2460 H2451 0.950 . S
C2460 C2459 1.398 . S
C2460 C2461 1.391 . S
C2461 H2449 0.950 . S
C2461 C2457 1.393 . S
C2461 C2460 1.391 . S
C2462 H2452 0.950 . S
C2462 C2463 1.386 . S
C2462 C2464 1.391 . S
C2463 C2462 1.386 . S
C2463 C2467 1.393 . S
C2464 H2453 0.950 . S
C2464 C2462 1.391 . S
C2464 C2465 1.400 . S
C2465 C2459 1.491 . S
C2465 C2464 1.400 . S
C2465 C2466 1.398 . S
C2466 H2454 0.950 . S
C2466 C2465 1.398 . S
C2466 C2467 1.391 . S
C2467 H2455 0.950 . S
C2467 C2463 1.393 . S
C2467 C2466 1.391 . S
H2468 C2476 0.950 . S
H2469 C2481 0.950 . S
H2470 C2478 0.950 . S
H2471 C2480 0.950 . S
H2472 C2482 0.950 . S
H2473 C2484 0.950 . S
H2474 C2486 0.950 . S
H2475 C2487 0.950 . S
C2476 H2468 0.950 . S
C2476 C2477 1.386 . S
C2476 C2478 1.391 . S
C2477 C2476 1.386 . S
C2477 C2481 1.393 . S
C2478 H2470 0.950 . S
C2478 C2476 1.391 . S
C2478 C2479 1.400 . S
C2479 C2478 1.400 . S
C2479 C2480 1.398 . S
C2479 C2485 1.491 . S
C2480 H2471 0.950 . S
C2480 C2479 1.398 . S
C2480 C2481 1.391 . S
C2481 H2469 0.950 . S
C2481 C2477 1.393 . S
C2481 C2480 1.391 . S
C2482 H2472 0.950 . S
C2482 C2483 1.386 . S
C2482 C2484 1.391 . S
C2483 C2482 1.386 . S
C2483 C2487 1.393 . S
C2484 H2473 0.950 . S
C2484 C2482 1.391 . S
C2484 C2485 1.400 . S
C2485 C2479 1.491 . S
C2485 C2484 1.400 . S
C2485 C2486 1.398 . S
C2486 H2474 0.950 . S
C2486 C2485 1.398 . S
C2486 C2487 1.391 . S
C2487 H2475 0.950 . S
C2487 C2483 1.393 . S
C2487 C2486 1.391 . S
H2488 C2496 0.950 . S
H2489 C2501 0.950 . S
H2490 C2498 0.950 . S
H2491 C2500 0.950 . S
H2492 C2502 0.950 . S
H2493 C2504 0.950 . S
H2494 C2506 0.950 . S
H2495 C2507 0.950 . S
C2496 H2488 0.950 . S
C2496 C2497 1.386 . S
C2496 C2498 1.391 . S
C2497 C2496 1.386 . S
C2497 C2501 1.393 . S
C2498 H2490 0.950 . S
C2498 C2496 1.391 . S
C2498 C2499 1.400 . S
C2499 C2498 1.400 . S
C2499 C2500 1.398 . S
C2499 C2505 1.491 . S
C2500 H2491 0.950 . S
C2500 C2499 1.398 . S
C2500 C2501 1.391 . S
C2501 H2489 0.950 . S
C2501 C2497 1.393 . S
C2501 C2500 1.391 . S
C2502 H2492 0.950 . S
C2502 C2503 1.386 . S
C2502 C2504 1.391 . S
C2503 C2502 1.386 . S
C2503 C2507 1.393 . S
C2504 H2493 0.950 . S
C2504 C2502 1.391 . S
C2504 C2505 1.400 . S
C2505 C2499 1.491 . S
C2505 C2504 1.400 . S
C2505 C2506 1.398 . S
C2506 H2494 0.950 . S
C2506 C2505 1.398 . S
C2506 C2507 1.391 . S
C2507 H2495 0.950 . S
C2507 C2503 1.393 . S
C2507 C2506 1.391 . S
H2508 C2516 0.950 . S
H2509 C2521 0.950 . S
H2510 C2518 0.950 . S
H2511 C2520 0.950 . S
H2512 C2522 0.950 . S
H2513 C2524 0.950 . S
H2514 C2526 0.950 . S
H2515 C2527 0.950 . S
C2516 H2508 0.950 . S
C2516 C2517 1.386 . S
C2516 C2518 1.391 . S
C2517 C2516 1.386 . S
C2517 C2521 1.393 . S
C2518 H2510 0.950 . S
C2518 C2516 1.391 . S
C2518 C2519 1.400 . S
C2519 C2518 1.400 . S
C2519 C2520 1.398 . S
C2519 C2525 1.491 . S
C2520 H2511 0.950 . S
C2520 C2519 1.398 . S
C2520 C2521 1.391 . S
C2521 H2509 0.950 . S
C2521 C2517 1.393 . S
C2521 C2520 1.391 . S
C2522 H2512 0.950 . S
C2522 C2523 1.386 . S
C2522 C2524 1.391 . S
C2523 C2522 1.386 . S
C2523 C2527 1.393 . S
C2524 H2513 0.950 . S
C2524 C2522 1.391 . S
C2524 C2525 1.400 . S
C2525 C2519 1.491 . S
C2525 C2524 1.400 . S
C2525 C2526 1.398 . S
C2526 H2514 0.950 . S
C2526 C2525 1.398 . S
C2526 C2527 1.391 . S
C2527 H2515 0.950 . S
C2527 C2523 1.393 . S
C2527 C2526 1.391 . S
H2528 C2536 0.950 . S
H2529 C2541 0.950 . S
H2530 C2538 0.950 . S
H2531 C2540 0.950 . S
H2532 C2542 0.950 . S
H2533 C2544 0.950 . S
H2534 C2546 0.950 . S
H2535 C2547 0.950 . S
C2536 H2528 0.950 . S
C2536 C2537 1.386 . S
C2536 C2538 1.391 . S
C2537 C2536 1.386 . S
C2537 C2541 1.393 . S
C2538 H2530 0.950 . S
C2538 C2536 1.391 . S
C2538 C2539 1.400 . S
C2539 C2538 1.400 . S
C2539 C2540 1.398 . S
C2539 C2545 1.491 . S
C2540 H2531 0.950 . S
C2540 C2539 1.398 . S
C2540 C2541 1.391 . S
C2541 H2529 0.950 . S
C2541 C2537 1.393 . S
C2541 C2540 1.391 . S
C2542 H2532 0.950 . S
C2542 C2543 1.386 . S
C2542 C2544 1.391 . S
C2543 C2542 1.386 . S
C2543 C2547 1.393 . S
C2544 H2533 0.950 . S
C2544 C2542 1.391 . S
C2544 C2545 1.400 . S
C2545 C2539 1.491 . S
C2545 C2544 1.400 . S
C2545 C2546 1.398 . S
C2546 H2534 0.950 . S
C2546 C2545 1.398 . S
C2546 C2547 1.391 . S
C2547 H2535 0.950 . S
C2547 C2543 1.393 . S
C2547 C2546 1.391 . S
H2548 C2556 0.950 . S
H2549 C2561 0.950 . S
H2550 C2558 0.950 . S
H2551 C2560 0.950 . S
H2552 C2562 0.950 . S
H2553 C2564 0.950 . S
H2554 C2566 0.950 . S
H2555 C2567 0.950 . S
C2556 H2548 0.950 . S
C2556 C2557 1.386 . S
C2556 C2558 1.391 . S
C2557 C2556 1.386 . S
C2557 C2561 1.393 . S
C2558 H2550 0.950 . S
C2558 C2556 1.391 . S
C2558 C2559 1.400 . S
C2559 C2558 1.400 . S
C2559 C2560 1.398 . S
C2559 C2565 1.491 . S
C2560 H2551 0.950 . S
C2560 C2559 1.398 . S
C2560 C2561 1.391 . S
C2561 H2549 0.950 . S
C2561 C2557 1.393 . S
C2561 C2560 1.391 . S
C2562 H2552 0.950 . S
C2562 C2563 1.386 . S
C2562 C2564 1.391 . S
C2563 C2562 1.386 . S
C2563 C2567 1.393 . S
C2564 H2553 0.950 . S
C2564 C2562 1.391 . S
C2564 C2565 1.400 . S
C2565 C2559 1.491 . S
C2565 C2564 1.400 . S
C2565 C2566 1.398 . S
C2566 H2554 0.950 . S
C2566 C2565 1.398 . S
C2566 C2567 1.391 . S
C2567 H2555 0.950 . S
C2567 C2563 1.393 . S
C2567 C2566 1.391 . S
H2568 C2576 0.950 . S
H2569 C2581 0.950 . S
H2570 C2578 0.950 . S
H2571 C2580 0.950 . S
H2572 C2582 0.950 . S
H2573 C2584 0.950 . S
H2574 C2586 0.950 . S
H2575 C2587 0.950 . S
C2576 H2568 0.950 . S
C2576 C2577 1.386 . S
C2576 C2578 1.391 . S
C2577 C2576 1.386 . S
C2577 C2581 1.393 . S
C2578 H2570 0.950 . S
C2578 C2576 1.391 . S
C2578 C2579 1.400 . S
C2579 C2578 1.400 . S
C2579 C2580 1.398 . S
C2579 C2585 1.491 . S
C2580 H2571 0.950 . S
C2580 C2579 1.398 . S
C2580 C2581 1.391 . S
C2581 H2569 0.950 . S
C2581 C2577 1.393 . S
C2581 C2580 1.391 . S
C2582 H2572 0.950 . S
C2582 C2583 1.386 . S
C2582 C2584 1.391 . S
C2583 C2582 1.386 . S
C2583 C2587 1.393 . S
C2584 H2573 0.950 . S
C2584 C2582 1.391 . S
C2584 C2585 1.400 . S
C2585 C2579 1.491 . S
C2585 C2584 1.400 . S
C2585 C2586 1.398 . S
C2586 H2574 0.950 . S
C2586 C2585 1.398 . S
C2586 C2587 1.391 . S
C2587 H2575 0.950 . S
C2587 C2583 1.393 . S
C2587 C2586 1.391 . S
H2588 C2596 0.950 . S
H2589 C2601 0.950 . S
H2590 C2598 0.950 . S
H2591 C2600 0.950 . S
H2592 C2602 0.950 . S
H2593 C2604 0.950 . S
H2594 C2606 0.950 . S
H2595 C2607 0.950 . S
C2596 H2588 0.950 . S
C2596 C2597 1.386 . S
C2596 C2598 1.391 . S
C2597 C2596 1.386 . S
C2597 C2601 1.393 . S
C2598 H2590 0.950 . S
C2598 C2596 1.391 . S
C2598 C2599 1.400 . S
C2599 C2598 1.400 . S
C2599 C2600 1.398 . S
C2599 C2605 1.491 . S
C2600 H2591 0.950 . S
C2600 C2599 1.398 . S
C2600 C2601 1.391 . S
C2601 H2589 0.950 . S
C2601 C2597 1.393 . S
C2601 C2600 1.391 . S
C2602 H2592 0.950 . S
C2602 C2603 1.386 . S
C2602 C2604 1.391 . S
C2603 C2602 1.386 . S
C2603 C2607 1.393 . S
C2604 H2593 0.950 . S
C2604 C2602 1.391 . S
C2604 C2605 1.400 . S
C2605 C2599 1.491 . S
C2605 C2604 1.400 . S
C2605 C2606 1.398 . S
C2606 H2594 0.950 . S
C2606 C2605 1.398 . S
C2606 C2607 1.391 . S
C2607 H2595 0.950 . S
C2607 C2603 1.393 . S
C2607 C2606 1.391 . S
H2608 C2616 0.950 . S
H2609 C2621 0.950 . S
H2610 C2618 0.950 . S
H2611 C2620 0.950 . S
H2612 C2622 0.950 . S
H2613 C2624 0.950 . S
H2614 C2626 0.950 . S
H2615 C2627 0.950 . S
C2616 H2608 0.950 . S
C2616 C2617 1.386 . S
C2616 C2618 1.391 . S
C2617 C2616 1.386 . S
C2617 C2621 1.393 . S
C2618 H2610 0.950 . S
C2618 C2616 1.391 . S
C2618 C2619 1.400 . S
C2619 C2618 1.400 . S
C2619 C2620 1.398 . S
C2619 C2625 1.491 . S
C2620 H2611 0.950 . S
C2620 C2619 1.398 . S
C2620 C2621 1.391 . S
C2621 H2609 0.950 . S
C2621 C2617 1.393 . S
C2621 C2620 1.391 . S
C2622 H2612 0.950 . S
C2622 C2623 1.386 . S
C2622 C2624 1.391 . S
C2623 C2622 1.386 . S
C2623 C2627 1.393 . S
C2624 H2613 0.950 . S
C2624 C2622 1.391 . S
C2624 C2625 1.400 . S
C2625 C2619 1.491 . S
C2625 C2624 1.400 . S
C2625 C2626 1.398 . S
C2626 H2614 0.950 . S
C2626 C2625 1.398 . S
C2626 C2627 1.391 . S
C2627 H2615 0.950 . S
C2627 C2623 1.393 . S
C2627 C2626 1.391 . S
H2628 C2636 0.950 . S
H2629 C2641 0.950 . S
H2630 C2638 0.950 . S
H2631 C2640 0.950 . S
H2632 C2642 0.950 . S
H2633 C2644 0.950 . S
H2634 C2646 0.950 . S
H2635 C2647 0.950 . S
C2636 H2628 0.950 . S
C2636 C2637 1.386 . S
C2636 C2638 1.391 . S
C2637 C2636 1.386 . S
C2637 C2641 1.393 . S
C2638 H2630 0.950 . S
C2638 C2636 1.391 . S
C2638 C2639 1.400 . S
C2639 C2638 1.400 . S
C2639 C2640 1.398 . S
C2639 C2645 1.491 . S
C2640 H2631 0.950 . S
C2640 C2639 1.398 . S
C2640 C2641 1.391 . S
C2641 H2629 0.950 . S
C2641 C2637 1.393 . S
C2641 C2640 1.391 . S
C2642 H2632 0.950 . S
C2642 C2643 1.386 . S
C2642 C2644 1.391 . S
C2643 C2642 1.386 . S
C2643 C2647 1.393 . S
C2644 H2633 0.950 . S
C2644 C2642 1.391 . S
C2644 C2645 1.400 . S
C2645 C2639 1.491 . S
C2645 C2644 1.400 . S
C2645 C2646 1.398 . S
C2646 H2634 0.950 . S
C2646 C2645 1.398 . S
C2646 C2647 1.391 . S
C2647 H2635 0.950 . S
C2647 C2643 1.393 . S
C2647 C2646 1.391 . S
H2648 C2656 0.950 . S
H2649 C2661 0.950 . S
H2650 C2658 0.950 . S
H2651 C2660 0.950 . S
H2652 C2662 0.950 . S
H2653 C2664 0.950 . S
H2654 C2666 0.950 . S
H2655 C2667 0.950 . S
C2656 H2648 0.950 . S
C2656 C2657 1.386 . S
C2656 C2658 1.391 . S
C2657 C2656 1.386 . S
C2657 C2661 1.393 . S
C2658 H2650 0.950 . S
C2658 C2656 1.391 . S
C2658 C2659 1.400 . S
C2659 C2658 1.400 . S
C2659 C2660 1.398 . S
C2659 C2665 1.491 . S
C2660 H2651 0.950 . S
C2660 C2659 1.398 . S
C2660 C2661 1.391 . S
C2661 H2649 0.950 . S
C2661 C2657 1.393 . S
C2661 C2660 1.391 . S
C2662 H2652 0.950 . S
C2662 C2663 1.386 . S
C2662 C2664 1.391 . S
C2663 C2662 1.386 . S
C2663 C2667 1.393 . S
C2664 H2653 0.950 . S
C2664 C2662 1.391 . S
C2664 C2665 1.400 . S
C2665 C2659 1.491 . S
C2665 C2664 1.400 . S
C2665 C2666 1.398 . S
C2666 H2654 0.950 . S
C2666 C2665 1.398 . S
C2666 C2667 1.391 . S
C2667 H2655 0.950 . S
C2667 C2663 1.393 . S
C2667 C2666 1.391 . S
H2668 C2676 0.950 . S
H2669 C2681 0.950 . S
H2670 C2678 0.950 . S
H2671 C2680 0.950 . S
H2672 C2682 0.950 . S
H2673 C2684 0.950 . S
H2674 C2686 0.950 . S
H2675 C2687 0.950 . S
C2676 H2668 0.950 . S
C2676 C2677 1.386 . S
C2676 C2678 1.391 . S
C2677 C2676 1.386 . S
C2677 C2681 1.393 . S
C2678 H2670 0.950 . S
C2678 C2676 1.391 . S
C2678 C2679 1.400 . S
C2679 C2678 1.400 . S
C2679 C2680 1.398 . S
C2679 C2685 1.491 . S
C2680 H2671 0.950 . S
C2680 C2679 1.398 . S
C2680 C2681 1.391 . S
C2681 H2669 0.950 . S
C2681 C2677 1.393 . S
C2681 C2680 1.391 . S
C2682 H2672 0.950 . S
C2682 C2683 1.386 . S
C2682 C2684 1.391 . S
C2683 C2682 1.386 . S
C2683 C2687 1.393 . S
C2684 H2673 0.950 . S
C2684 C2682 1.391 . S
C2684 C2685 1.400 . S
C2685 C2679 1.491 . S
C2685 C2684 1.400 . S
C2685 C2686 1.398 . S
C2686 H2674 0.950 . S
C2686 C2685 1.398 . S
C2686 C2687 1.391 . S
C2687 H2675 0.950 . S
C2687 C2683 1.393 . S
C2687 C2686 1.391 . S
H2688 C2696 0.950 . S
H2689 C2701 0.950 . S
H2690 C2698 0.950 . S
H2691 C2700 0.950 . S
H2692 C2702 0.950 . S
H2693 C2704 0.950 . S
H2694 C2706 0.950 . S
H2695 C2707 0.950 . S
C2696 H2688 0.950 . S
C2696 C2697 1.386 . S
C2696 C2698 1.391 . S
C2697 C2696 1.386 . S
C2697 C2701 1.393 . S
C2698 H2690 0.950 . S
C2698 C2696 1.391 . S
C2698 C2699 1.400 . S
C2699 C2698 1.400 . S
C2699 C2700 1.398 . S
C2699 C2705 1.491 . S
C2700 H2691 0.950 . S
C2700 C2699 1.398 . S
C2700 C2701 1.391 . S
C2701 H2689 0.950 . S
C2701 C2697 1.393 . S
C2701 C2700 1.391 . S
C2702 H2692 0.950 . S
C2702 C2703 1.386 . S
C2702 C2704 1.391 . S
C2703 C2702 1.386 . S
C2703 C2707 1.393 . S
C2704 H2693 0.950 . S
C2704 C2702 1.391 . S
C2704 C2705 1.400 . S
C2705 C2699 1.491 . S
C2705 C2704 1.400 . S
C2705 C2706 1.398 . S
C2706 H2694 0.950 . S
C2706 C2705 1.398 . S
C2706 C2707 1.391 . S
C2707 H2695 0.950 . S
C2707 C2703 1.393 . S
C2707 C2706 1.391 . S
H2708 C2716 0.950 . S
H2709 C2721 0.950 . S
H2710 C2718 0.950 . S
H2711 C2720 0.950 . S
H2712 C2722 0.950 . S
H2713 C2724 0.950 . S
H2714 C2726 0.950 . S
H2715 C2727 0.950 . S
C2716 H2708 0.950 . S
C2716 C2717 1.386 . S
C2716 C2718 1.391 . S
C2717 C2716 1.386 . S
C2717 C2721 1.393 . S
C2718 H2710 0.950 . S
C2718 C2716 1.391 . S
C2718 C2719 1.400 . S
C2719 C2718 1.400 . S
C2719 C2720 1.398 . S
C2719 C2725 1.491 . S
C2720 H2711 0.950 . S
C2720 C2719 1.398 . S
C2720 C2721 1.391 . S
C2721 H2709 0.950 . S
C2721 C2717 1.393 . S
C2721 C2720 1.391 . S
C2722 H2712 0.950 . S
C2722 C2723 1.386 . S
C2722 C2724 1.391 . S
C2723 C2722 1.386 . S
C2723 C2727 1.393 . S
C2724 H2713 0.950 . S
C2724 C2722 1.391 . S
C2724 C2725 1.400 . S
C2725 C2719 1.491 . S
C2725 C2724 1.400 . S
C2725 C2726 1.398 . S
C2726 H2714 0.950 . S
C2726 C2725 1.398 . S
C2726 C2727 1.391 . S
C2727 H2715 0.950 . S
C2727 C2723 1.393 . S
C2727 C2726 1.391 . S
H2728 C2736 0.950 . S
H2729 C2741 0.950 . S
H2730 C2738 0.950 . S
H2731 C2740 0.950 . S
H2732 C2742 0.950 . S
H2733 C2744 0.950 . S
H2734 C2746 0.950 . S
H2735 C2747 0.950 . S
C2736 H2728 0.950 . S
C2736 C2737 1.386 . S
C2736 C2738 1.391 . S
C2737 C2736 1.386 . S
C2737 C2741 1.393 . S
C2738 H2730 0.950 . S
C2738 C2736 1.391 . S
C2738 C2739 1.400 . S
C2739 C2738 1.400 . S
C2739 C2740 1.398 . S
C2739 C2745 1.491 . S
C2740 H2731 0.950 . S
C2740 C2739 1.398 . S
C2740 C2741 1.391 . S
C2741 H2729 0.950 . S
C2741 C2737 1.393 . S
C2741 C2740 1.391 . S
C2742 H2732 0.950 . S
C2742 C2743 1.386 . S
C2742 C2744 1.391 . S
C2743 C2742 1.386 . S
C2743 C2747 1.393 . S
C2744 H2733 0.950 . S
C2744 C2742 1.391 . S
C2744 C2745 1.400 . S
C2745 C2739 1.491 . S
C2745 C2744 1.400 . S
C2745 C2746 1.398 . S
C2746 H2734 0.950 . S
C2746 C2745 1.398 . S
C2746 C2747 1.391 . S
C2747 H2735 0.950 . S
C2747 C2743 1.393 . S
C2747 C2746 1.391 . S
H2748 C2756 0.950 . S
H2749 C2761 0.950 . S
H2750 C2758 0.950 . S
H2751 C2760 0.950 . S
H2752 C2762 0.950 . S
H2753 C2764 0.950 . S
H2754 C2766 0.950 . S
H2755 C2767 0.950 . S
C2756 H2748 0.950 . S
C2756 C2757 1.386 . S
C2756 C2758 1.391 . S
C2757 C2756 1.386 . S
C2757 C2761 1.393 . S
C2758 H2750 0.950 . S
C2758 C2756 1.391 . S
C2758 C2759 1.400 . S
C2759 C2758 1.400 . S
C2759 C2760 1.398 . S
C2759 C2765 1.491 . S
C2760 H2751 0.950 . S
C2760 C2759 1.398 . S
C2760 C2761 1.391 . S
C2761 H2749 0.950 . S
C2761 C2757 1.393 . S
C2761 C2760 1.391 . S
C2762 H2752 0.950 . S
C2762 C2763 1.386 . S
C2762 C2764 1.391 . S
C2763 C2762 1.386 . S
C2763 C2767 1.393 . S
C2764 H2753 0.950 . S
C2764 C2762 1.391 . S
C2764 C2765 1.400 . S
C2765 C2759 1.491 . S
C2765 C2764 1.400 . S
C2765 C2766 1.398 . S
C2766 H2754 0.950 . S
C2766 C2765 1.398 . S
C2766 C2767 1.391 . S
C2767 H2755 0.950 . S
C2767 C2763 1.393 . S
C2767 C2766 1.391 . S
H2768 C2776 0.950 . S
H2769 C2781 0.950 . S
H2770 C2778 0.950 . S
H2771 C2780 0.950 . S
H2772 C2782 0.950 . S
H2773 C2784 0.950 . S
H2774 C2786 0.950 . S
H2775 C2787 0.950 . S
C2776 H2768 0.950 . S
C2776 C2777 1.386 . S
C2776 C2778 1.391 . S
C2777 C2776 1.386 . S
C2777 C2781 1.393 . S
C2778 H2770 0.950 . S
C2778 C2776 1.391 . S
C2778 C2779 1.400 . S
C2779 C2778 1.400 . S
C2779 C2780 1.398 . S
C2779 C2785 1.491 . S
C2780 H2771 0.950 . S
C2780 C2779 1.398 . S
C2780 C2781 1.391 . S
C2781 H2769 0.950 . S
C2781 C2777 1.393 . S
C2781 C2780 1.391 . S
C2782 H2772 0.950 . S
C2782 C2783 1.386 . S
C2782 C2784 1.391 . S
C2783 C2782 1.386 . S
C2783 C2787 1.393 . S
C2784 H2773 0.950 . S
C2784 C2782 1.391 . S
C2784 C2785 1.400 . S
C2785 C2779 1.491 . S
C2785 C2784 1.400 . S
C2785 C2786 1.398 . S
C2786 H2774 0.950 . S
C2786 C2785 1.398 . S
C2786 C2787 1.391 . S
C2787 H2775 0.950 . S
C2787 C2783 1.393 . S
C2787 C2786 1.391 . S
H2788 C2796 0.950 . S
H2789 C2801 0.950 . S
H2790 C2798 0.950 . S
H2791 C2800 0.950 . S
H2792 C2802 0.950 . S
H2793 C2804 0.950 . S
H2794 C2806 0.950 . S
H2795 C2807 0.950 . S
C2796 H2788 0.950 . S
C2796 C2797 1.386 . S
C2796 C2798 1.391 . S
C2797 C2796 1.386 . S
C2797 C2801 1.393 . S
C2798 H2790 0.950 . S
C2798 C2796 1.391 . S
C2798 C2799 1.400 . S
C2799 C2798 1.400 . S
C2799 C2800 1.398 . S
C2799 C2805 1.491 . S
C2800 H2791 0.950 . S
C2800 C2799 1.398 . S
C2800 C2801 1.391 . S
C2801 H2789 0.950 . S
C2801 C2797 1.393 . S
C2801 C2800 1.391 . S
C2802 H2792 0.950 . S
C2802 C2803 1.386 . S
C2802 C2804 1.391 . S
C2803 C2802 1.386 . S
C2803 C2807 1.393 . S
C2804 H2793 0.950 . S
C2804 C2802 1.391 . S
C2804 C2805 1.400 . S
C2805 C2799 1.491 . S
C2805 C2804 1.400 . S
C2805 C2806 1.398 . S
C2806 H2794 0.950 . S
C2806 C2805 1.398 . S
C2806 C2807 1.391 . S
C2807 H2795 0.950 . S
C2807 C2803 1.393 . S
C2807 C2806 1.391 . S
H2808 C2816 0.950 . S
H2809 C2821 0.950 . S
H2810 C2818 0.950 . S
H2811 C2820 0.950 . S
H2812 C2822 0.950 . S
H2813 C2824 0.950 . S
H2814 C2826 0.950 . S
H2815 C2827 0.950 . S
C2816 H2808 0.950 . S
C2816 C2817 1.386 . S
C2816 C2818 1.391 . S
C2817 C2816 1.386 . S
C2817 C2821 1.393 . S
C2818 H2810 0.950 . S
C2818 C2816 1.391 . S
C2818 C2819 1.400 . S
C2819 C2818 1.400 . S
C2819 C2820 1.398 . S
C2819 C2825 1.491 . S
C2820 H2811 0.950 . S
C2820 C2819 1.398 . S
C2820 C2821 1.391 . S
C2821 H2809 0.950 . S
C2821 C2817 1.393 . S
C2821 C2820 1.391 . S
C2822 H2812 0.950 . S
C2822 C2823 1.386 . S
C2822 C2824 1.391 . S
C2823 C2822 1.386 . S
C2823 C2827 1.393 . S
C2824 H2813 0.950 . S
C2824 C2822 1.391 . S
C2824 C2825 1.400 . S
C2825 C2819 1.491 . S
C2825 C2824 1.400 . S
C2825 C2826 1.398 . S
C2826 H2814 0.950 . S
C2826 C2825 1.398 . S
C2826 C2827 1.391 . S
C2827 H2815 0.950 . S
C2827 C2823 1.393 . S
C2827 C2826 1.391 . S
H2828 C2836 0.950 . S
H2829 C2841 0.950 . S
H2830 C2838 0.950 . S
H2831 C2840 0.950 . S
H2832 C2842 0.950 . S
H2833 C2844 0.950 . S
H2834 C2846 0.950 . S
H2835 C2847 0.950 . S
C2836 H2828 0.950 . S
C2836 C2837 1.386 . S
C2836 C2838 1.391 . S
C2837 C2836 1.386 . S
C2837 C2841 1.393 . S
C2838 H2830 0.950 . S
C2838 C2836 1.391 . S
C2838 C2839 1.400 . S
C2839 C2838 1.400 . S
C2839 C2840 1.398 . S
C2839 C2845 1.491 . S
C2840 H2831 0.950 . S
C2840 C2839 1.398 . S
C2840 C2841 1.391 . S
C2841 H2829 0.950 . S
C2841 C2837 1.393 . S
C2841 C2840 1.391 . S
C2842 H2832 0.950 . S
C2842 C2843 1.386 . S
C2842 C2844 1.391 . S
C2843 C2842 1.386 . S
C2843 C2847 1.393 . S
C2844 H2833 0.950 . S
C2844 C2842 1.391 . S
C2844 C2845 1.400 . S
C2845 C2839 1.491 . S
C2845 C2844 1.400 . S
C2845 C2846 1.398 . S
C2846 H2834 0.950 . S
C2846 C2845 1.398 . S
C2846 C2847 1.391 . S
C2847 H2835 0.950 . S
C2847 C2843 1.393 . S
C2847 C2846 1.391 . S
H2848 C2856 0.950 . S
H2849 C2861 0.950 . S
H2850 C2858 0.950 . S
H2851 C2860 0.950 . S
H2852 C2862 0.950 . S
H2853 C2864 0.950 . S
H2854 C2866 0.950 . S
H2855 C2867 0.950 . S
C2856 H2848 0.950 . S
C2856 C2857 1.386 . S
C2856 C2858 1.391 . S
C2857 C2856 1.386 . S
C2857 C2861 1.393 . S
C2858 H2850 0.950 . S
C2858 C2856 1.391 . S
C2858 C2859 1.400 . S
C2859 C2858 1.400 . S
C2859 C2860 1.398 . S
C2859 C2865 1.491 . S
C2860 H2851 0.950 . S
C2860 C2859 1.398 . S
C2860 C2861 1.391 . S
C2861 H2849 0.950 . S
C2861 C2857 1.393 . S
C2861 C2860 1.391 . S
C2862 H2852 0.950 . S
C2862 C2863 1.386 . S
C2862 C2864 1.391 . S
C2863 C2862 1.386 . S
C2863 C2867 1.393 . S
C2864 H2853 0.950 . S
C2864 C2862 1.391 . S
C2864 C2865 1.400 . S
C2865 C2859 1.491 . S
C2865 C2864 1.400 . S
C2865 C2866 1.398 . S
C2866 H2854 0.950 . S
C2866 C2865 1.398 . S
C2866 C2867 1.391 . S
C2867 H2855 0.950 . S
C2867 C2863 1.393 . S
C2867 C2866 1.391 . S
H2868 C2876 0.950 . S
H2869 C2881 0.950 . S
H2870 C2878 0.950 . S
H2871 C2880 0.950 . S
H2872 C2882 0.950 . S
H2873 C2884 0.950 . S
H2874 C2886 0.950 . S
H2875 C2887 0.950 . S
C2876 H2868 0.950 . S
C2876 C2877 1.386 . S
C2876 C2878 1.391 . S
C2877 C2876 1.386 . S
C2877 C2881 1.393 . S
C2878 H2870 0.950 . S
C2878 C2876 1.391 . S
C2878 C2879 1.400 . S
C2879 C2878 1.400 . S
C2879 C2880 1.398 . S
C2879 C2885 1.491 . S
C2880 H2871 0.950 . S
C2880 C2879 1.398 . S
C2880 C2881 1.391 . S
C2881 H2869 0.950 . S
C2881 C2877 1.393 . S
C2881 C2880 1.391 . S
C2882 H2872 0.950 . S
C2882 C2883 1.386 . S
C2882 C2884 1.391 . S
C2883 C2882 1.386 . S
C2883 C2887 1.393 . S
C2884 H2873 0.950 . S
C2884 C2882 1.391 . S
C2884 C2885 1.400 . S
C2885 C2879 1.491 . S
C2885 C2884 1.400 . S
C2885 C2886 1.398 . S
C2886 H2874 0.950 . S
C2886 C2885 1.398 . S
C2886 C2887 1.391 . S
C2887 H2875 0.950 . S
C2887 C2883 1.393 . S
C2887 C2886 1.391 . S
H2888 C2896 0.950 . S
H2889 C2901 0.950 . S
H2890 C2898 0.950 . S
H2891 C2900 0.950 . S
H2892 C2902 0.950 . S
H2893 C2904 0.950 . S
H2894 C2906 0.950 . S
H2895 C2907 0.950 . S
C2896 H2888 0.950 . S
C2896 C2897 1.386 . S
C2896 C2898 1.391 . S
C2897 C2896 1.386 . S
C2897 C2901 1.393 . S
C2898 H2890 0.950 . S
C2898 C2896 1.391 . S
C2898 C2899 1.400 . S
C2899 C2898 1.400 . S
C2899 C2900 1.398 . S
C2899 C2905 1.491 . S
C2900 H2891 0.950 . S
C2900 C2899 1.398 . S
C2900 C2901 1.391 . S
C2901 H2889 0.950 . S
C2901 C2897 1.393 . S
C2901 C2900 1.391 . S
C2902 H2892 0.950 . S
C2902 C2903 1.386 . S
C2902 C2904 1.391 . S
C2903 C2902 1.386 . S
C2903 C2907 1.393 . S
C2904 H2893 0.950 . S
C2904 C2902 1.391 . S
C2904 C2905 1.400 . S
C2905 C2899 1.491 . S
C2905 C2904 1.400 . S
C2905 C2906 1.398 . S
C2906 H2894 0.950 . S
C2906 C2905 1.398 . S
C2906 C2907 1.391 . S
C2907 H2895 0.950 . S
C2907 C2903 1.393 . S
C2907 C2906 1.391 . S
H2908 C2916 0.950 . S
H2909 C2921 0.950 . S
H2910 C2918 0.950 . S
H2911 C2920 0.950 . S
H2912 C2922 0.950 . S
H2913 C2924 0.950 . S
H2914 C2926 0.950 . S
H2915 C2927 0.950 . S
C2916 H2908 0.950 . S
C2916 C2917 1.386 . S
C2916 C2918 1.391 . S
C2917 C2916 1.386 . S
C2917 C2921 1.393 . S
C2918 H2910 0.950 . S
C2918 C2916 1.391 . S
C2918 C2919 1.400 . S
C2919 C2918 1.400 . S
C2919 C2920 1.398 . S
C2919 C2925 1.491 . S
C2920 H2911 0.950 . S
C2920 C2919 1.398 . S
C2920 C2921 1.391 . S
C2921 H2909 0.950 . S
C2921 C2917 1.393 . S
C2921 C2920 1.391 . S
C2922 H2912 0.950 . S
C2922 C2923 1.386 . S
C2922 C2924 1.391 . S
C2923 C2922 1.386 . S
C2923 C2927 1.393 . S
C2924 H2913 0.950 . S
C2924 C2922 1.391 . S
C2924 C2925 1.400 . S
C2925 C2919 1.491 . S
C2925 C2924 1.400 . S
C2925 C2926 1.398 . S
C2926 H2914 0.950 . S
C2926 C2925 1.398 . S
C2926 C2927 1.391 . S
C2927 H2915 0.950 . S
C2927 C2923 1.393 . S
C2927 C2926 1.391 . S
H2928 C2936 0.950 . S
H2929 C2941 0.950 . S
H2930 C2938 0.950 . S
H2931 C2940 0.950 . S
H2932 C2942 0.950 . S
H2933 C2944 0.950 . S
H2934 C2946 0.950 . S
H2935 C2947 0.950 . S
C2936 H2928 0.950 . S
C2936 C2937 1.386 . S
C2936 C2938 1.391 . S
C2937 C2936 1.386 . S
C2937 C2941 1.393 . S
C2938 H2930 0.950 . S
C2938 C2936 1.391 . S
C2938 C2939 1.400 . S
C2939 C2938 1.400 . S
C2939 C2940 1.398 . S
C2939 C2945 1.491 . S
C2940 H2931 0.950 . S
C2940 C2939 1.398 . S
C2940 C2941 1.391 . S
C2941 H2929 0.950 . S
C2941 C2937 1.393 . S
C2941 C2940 1.391 . S
C2942 H2932 0.950 . S
C2942 C2943 1.386 . S
C2942 C2944 1.391 . S
C2943 C2942 1.386 . S
C2943 C2947 1.393 . S
C2944 H2933 0.950 . S
C2944 C2942 1.391 . S
C2944 C2945 1.400 . S
C2945 C2939 1.491 . S
C2945 C2944 1.400 . S
C2945 C2946 1.398 . S
C2946 H2934 0.950 . S
C2946 C2945 1.398 . S
C2946 C2947 1.391 . S
C2947 H2935 0.950 . S
C2947 C2943 1.393 . S
C2947 C2946 1.391 . S
H2948 C2956 0.950 . S
H2949 C2961 0.950 . S
H2950 C2958 0.950 . S
H2951 C2960 0.950 . S
H2952 C2962 0.950 . S
H2953 C2964 0.950 . S
H2954 C2966 0.950 . S
H2955 C2967 0.950 . S
C2956 H2948 0.950 . S
C2956 C2957 1.386 . S
C2956 C2958 1.391 . S
C2957 C2956 1.386 . S
C2957 C2961 1.393 . S
C2958 H2950 0.950 . S
C2958 C2956 1.391 . S
C2958 C2959 1.400 . S
C2959 C2958 1.400 . S
C2959 C2960 1.398 . S
C2959 C2965 1.491 . S
C2960 H2951 0.950 . S
C2960 C2959 1.398 . S
C2960 C2961 1.391 . S
C2961 H2949 0.950 . S
C2961 C2957 1.393 . S
C2961 C2960 1.391 . S
C2962 H2952 0.950 . S
C2962 C2963 1.386 . S
C2962 C2964 1.391 . S
C2963 C2962 1.386 . S
C2963 C2967 1.393 . S
C2964 H2953 0.950 . S
C2964 C2962 1.391 . S
C2964 C2965 1.400 . S
C2965 C2959 1.491 . S
C2965 C2964 1.400 . S
C2965 C2966 1.398 . S
C2966 H2954 0.950 . S
C2966 C2965 1.398 . S
C2966 C2967 1.391 . S
C2967 H2955 0.950 . S
C2967 C2963 1.393 . S
C2967 C2966 1.391 . S
H2968 C2976 0.950 . S
H2969 C2981 0.950 . S
H2970 C2978 0.950 . S
H2971 C2980 0.950 . S
H2972 C2982 0.950 . S
H2973 C2984 0.950 . S
H2974 C2986 0.950 . S
H2975 C2987 0.950 . S
C2976 H2968 0.950 . S
C2976 C2977 1.386 . S
C2976 C2978 1.391 . S
C2977 C2976 1.386 . S
C2977 C2981 1.393 . S
C2978 H2970 0.950 . S
C2978 C2976 1.391 . S
C2978 C2979 1.400 . S
C2979 C2978 1.400 . S
C2979 C2980 1.398 . S
C2979 C2985 1.491 . S
C2980 H2971 0.950 . S
C2980 C2979 1.398 . S
C2980 C2981 1.391 . S
C2981 H2969 0.950 . S
C2981 C2977 1.393 . S
C2981 C2980 1.391 . S
C2982 H2972 0.950 . S
C2982 C2983 1.386 . S
C2982 C2984 1.391 . S
C2983 C2982 1.386 . S
C2983 C2987 1.393 . S
C2984 H2973 0.950 . S
C2984 C2982 1.391 . S
C2984 C2985 1.400 . S
C2985 C2979 1.491 . S
C2985 C2984 1.400 . S
C2985 C2986 1.398 . S
C2986 H2974 0.950 . S
C2986 C2985 1.398 . S
C2986 C2987 1.391 . S
C2987 H2975 0.950 . S
C2987 C2983 1.393 . S
C2987 C2986 1.391 . S
H2988 C2996 0.950 . S
H2989 C3001 0.950 . S
H2990 C2998 0.950 . S
H2991 C3000 0.950 . S
H2992 C3002 0.950 . S
H2993 C3004 0.950 . S
H2994 C3006 0.950 . S
H2995 C3007 0.950 . S
C2996 H2988 0.950 . S
C2996 C2997 1.386 . S
C2996 C2998 1.391 . S
C2997 C2996 1.386 . S
C2997 C3001 1.393 . S
C2998 H2990 0.950 . S
C2998 C2996 1.391 . S
C2998 C2999 1.400 . S
C2999 C2998 1.400 . S
C2999 C3000 1.398 . S
C2999 C3005 1.491 . S
C3000 H2991 0.950 . S
C3000 C2999 1.398 . S
C3000 C3001 1.391 . S
C3001 H2989 0.950 . S
C3001 C2997 1.393 . S
C3001 C3000 1.391 . S
C3002 H2992 0.950 . S
C3002 C3003 1.386 . S
C3002 C3004 1.391 . S
C3003 C3002 1.386 . S
C3003 C3007 1.393 . S
C3004 H2993 0.950 . S
C3004 C3002 1.391 . S
C3004 C3005 1.400 . S
C3005 C2999 1.491 . S
C3005 C3004 1.400 . S
C3005 C3006 1.398 . S
C3006 H2994 0.950 . S
C3006 C3005 1.398 . S
C3006 C3007 1.391 . S
C3007 H2995 0.950 . S
C3007 C3003 1.393 . S
C3007 C3006 1.391 . S
H3008 C3016 0.950 . S
H3009 C3021 0.950 . S
H3010 C3018 0.950 . S
H3011 C3020 0.950 . S
H3012 C3022 0.950 . S
H3013 C3024 0.950 . S
H3014 C3026 0.950 . S
H3015 C3027 0.950 . S
C3016 H3008 0.950 . S
C3016 C3017 1.386 . S
C3016 C3018 1.391 . S
C3017 C3016 1.386 . S
C3017 C3021 1.393 . S
C3018 H3010 0.950 . S
C3018 C3016 1.391 . S
C3018 C3019 1.400 . S
C3019 C3018 1.400 . S
C3019 C3020 1.398 . S
C3019 C3025 1.491 . S
C3020 H3011 0.950 . S
C3020 C3019 1.398 . S
C3020 C3021 1.391 . S
C3021 H3009 0.950 . S
C3021 C3017 1.393 . S
C3021 C3020 1.391 . S
C3022 H3012 0.950 . S
C3022 C3023 1.386 . S
C3022 C3024 1.391 . S
C3023 C3022 1.386 . S
C3023 C3027 1.393 . S
C3024 H3013 0.950 . S
C3024 C3022 1.391 . S
C3024 C3025 1.400 . S
C3025 C3019 1.491 . S
C3025 C3024 1.400 . S
C3025 C3026 1.398 . S
C3026 H3014 0.950 . S
C3026 C3025 1.398 . S
C3026 C3027 1.391 . S
C3027 H3015 0.950 . S
C3027 C3023 1.393 . S
C3027 C3026 1.391 . S
H3028 C3036 0.950 . S
H3029 C3041 0.950 . S
H3030 C3038 0.950 . S
H3031 C3040 0.950 . S
H3032 C3042 0.950 . S
H3033 C3044 0.950 . S
H3034 C3046 0.950 . S
H3035 C3047 0.950 . S
C3036 H3028 0.950 . S
C3036 C3037 1.386 . S
C3036 C3038 1.391 . S
C3037 C3036 1.386 . S
C3037 C3041 1.393 . S
C3038 H3030 0.950 . S
C3038 C3036 1.391 . S
C3038 C3039 1.400 . S
C3039 C3038 1.400 . S
C3039 C3040 1.398 . S
C3039 C3045 1.491 . S
C3040 H3031 0.950 . S
C3040 C3039 1.398 . S
C3040 C3041 1.391 . S
C3041 H3029 0.950 . S
C3041 C3037 1.393 . S
C3041 C3040 1.391 . S
C3042 H3032 0.950 . S
C3042 C3043 1.386 . S
C3042 C3044 1.391 . S
C3043 C3042 1.386 . S
C3043 C3047 1.393 . S
C3044 H3033 0.950 . S
C3044 C3042 1.391 . S
C3044 C3045 1.400 . S
C3045 C3039 1.491 . S
C3045 C3044 1.400 . S
C3045 C3046 1.398 . S
C3046 H3034 0.950 . S
C3046 C3045 1.398 . S
C3046 C3047 1.391 . S
C3047 H3035 0.950 . S
C3047 C3043 1.393 . S
C3047 C3046 1.391 . S
H3048 C3056 0.950 . S
H3049 C3061 0.950 . S
H3050 C3058 0.950 . S
H3051 C3060 0.950 . S
H3052 C3062 0.950 . S
H3053 C3064 0.950 . S
H3054 C3066 0.950 . S
H3055 C3067 0.950 . S
C3056 H3048 0.950 . S
C3056 C3057 1.386 . S
C3056 C3058 1.391 . S
C3057 C3056 1.386 . S
C3057 C3061 1.393 . S
C3058 H3050 0.950 . S
C3058 C3056 1.391 . S
C3058 C3059 1.400 . S
C3059 C3058 1.400 . S
C3059 C3060 1.398 . S
C3059 C3065 1.491 . S
C3060 H3051 0.950 . S
C3060 C3059 1.398 . S
C3060 C3061 1.391 . S
C3061 H3049 0.950 . S
C3061 C3057 1.393 . S
C3061 C3060 1.391 . S
C3062 H3052 0.950 . S
C3062 C3063 1.386 . S
C3062 C3064 1.391 . S
C3063 C3062 1.386 . S
C3063 C3067 1.393 . S
C3064 H3053 0.950 . S
C3064 C3062 1.391 . S
C3064 C3065 1.400 . S
C3065 C3059 1.491 . S
C3065 C3064 1.400 . S
C3065 C3066 1.398 . S
C3066 H3054 0.950 . S
C3066 C3065 1.398 . S
C3066 C3067 1.391 . S
C3067 H3055 0.950 . S
C3067 C3063 1.393 . S
C3067 C3066 1.391 . S
H3068 C3076 0.950 . S
H3069 C3081 0.950 . S
H3070 C3078 0.950 . S
H3071 C3080 0.950 . S
H3072 C3082 0.950 . S
H3073 C3084 0.950 . S
H3074 C3086 0.950 . S
H3075 C3087 0.950 . S
C3076 H3068 0.950 . S
C3076 C3077 1.386 . S
C3076 C3078 1.391 . S
C3077 C3076 1.386 . S
C3077 C3081 1.393 . S
C3078 H3070 0.950 . S
C3078 C3076 1.391 . S
C3078 C3079 1.400 . S
C3079 C3078 1.400 . S
C3079 C3080 1.398 . S
C3079 C3085 1.491 . S
C3080 H3071 0.950 . S
C3080 C3079 1.398 . S
C3080 C3081 1.391 . S
C3081 H3069 0.950 . S
C3081 C3077 1.393 . S
C3081 C3080 1.391 . S
C3082 H3072 0.950 . S
C3082 C3083 1.386 . S
C3082 C3084 1.391 . S
C3083 C3082 1.386 . S
C3083 C3087 1.393 . S
C3084 H3073 0.950 . S
C3084 C3082 1.391 . S
C3084 C3085 1.400 . S
C3085 C3079 1.491 . S
C3085 C3084 1.400 . S
C3085 C3086 1.398 . S
C3086 H3074 0.950 . S
C3086 C3085 1.398 . S
C3086 C3087 1.391 . S
C3087 H3075 0.950 . S
C3087 C3083 1.393 . S
C3087 C3086 1.391 . S
H3088 C3096 0.950 . S
H3089 C3101 0.950 . S
H3090 C3098 0.950 . S
H3091 C3100 0.950 . S
H3092 C3102 0.950 . S
H3093 C3104 0.950 . S
H3094 C3106 0.950 . S
H3095 C3107 0.950 . S
C3096 H3088 0.950 . S
C3096 C3097 1.386 . S
C3096 C3098 1.391 . S
C3097 C3096 1.386 . S
C3097 C3101 1.393 . S
C3098 H3090 0.950 . S
C3098 C3096 1.391 . S
C3098 C3099 1.400 . S
C3099 C3098 1.400 . S
C3099 C3100 1.398 . S
C3099 C3105 1.491 . S
C3100 H3091 0.950 . S
C3100 C3099 1.398 . S
C3100 C3101 1.391 . S
C3101 H3089 0.950 . S
C3101 C3097 1.393 . S
C3101 C3100 1.391 . S
C3102 H3092 0.950 . S
C3102 C3103 1.386 . S
C3102 C3104 1.391 . S
C3103 C3102 1.386 . S
C3103 C3107 1.393 . S
C3104 H3093 0.950 . S
C3104 C3102 1.391 . S
C3104 C3105 1.400 . S
C3105 C3099 1.491 . S
C3105 C3104 1.400 . S
C3105 C3106 1.398 . S
C3106 H3094 0.950 . S
C3106 C3105 1.398 . S
C3106 C3107 1.391 . S
C3107 H3095 0.950 . S
C3107 C3103 1.393 . S
C3107 C3106 1.391 . S
H3108 C3116 0.950 . S
H3109 C3121 0.950 . S
H3110 C3118 0.950 . S
H3111 C3120 0.950 . S
H3112 C3122 0.950 . S
H3113 C3124 0.950 . S
H3114 C3126 0.950 . S
H3115 C3127 0.950 . S
C3116 H3108 0.950 . S
C3116 C3117 1.386 . S
C3116 C3118 1.391 . S
C3117 C3116 1.386 . S
C3117 C3121 1.393 . S
C3118 H3110 0.950 . S
C3118 C3116 1.391 . S
C3118 C3119 1.400 . S
C3119 C3118 1.400 . S
C3119 C3120 1.398 . S
C3119 C3125 1.491 . S
C3120 H3111 0.950 . S
C3120 C3119 1.398 . S
C3120 C3121 1.391 . S
C3121 H3109 0.950 . S
C3121 C3117 1.393 . S
C3121 C3120 1.391 . S
C3122 H3112 0.950 . S
C3122 C3123 1.386 . S
C3122 C3124 1.391 . S
C3123 C3122 1.386 . S
C3123 C3127 1.393 . S
C3124 H3113 0.950 . S
C3124 C3122 1.391 . S
C3124 C3125 1.400 . S
C3125 C3119 1.491 . S
C3125 C3124 1.400 . S
C3125 C3126 1.398 . S
C3126 H3114 0.950 . S
C3126 C3125 1.398 . S
C3126 C3127 1.391 . S
C3127 H3115 0.950 . S
C3127 C3123 1.393 . S
C3127 C3126 1.391 . S
H3128 C3136 0.950 . S
H3129 C3141 0.950 . S
H3130 C3138 0.950 . S
H3131 C3140 0.950 . S
H3132 C3142 0.950 . S
H3133 C3144 0.950 . S
H3134 C3146 0.950 . S
H3135 C3147 0.950 . S
C3136 H3128 0.950 . S
C3136 C3137 1.386 . S
C3136 C3138 1.391 . S
C3137 C3136 1.386 . S
C3137 C3141 1.393 . S
C3138 H3130 0.950 . S
C3138 C3136 1.391 . S
C3138 C3139 1.400 . S
C3139 C3138 1.400 . S
C3139 C3140 1.398 . S
C3139 C3145 1.491 . S
C3140 H3131 0.950 . S
C3140 C3139 1.398 . S
C3140 C3141 1.391 . S
C3141 H3129 0.950 . S
C3141 C3137 1.393 . S
C3141 C3140 1.391 . S
C3142 H3132 0.950 . S
C3142 C3143 1.386 . S
C3142 C3144 1.391 . S
C3143 C3142 1.386 . S
C3143 C3147 1.393 . S
C3144 H3133 0.950 . S
C3144 C3142 1.391 . S
C3144 C3145 1.400 . S
C3145 C3139 1.491 . S
C3145 C3144 1.400 . S
C3145 C3146 1.398 . S
C3146 H3134 0.950 . S
C3146 C3145 1.398 . S
C3146 C3147 1.391 . S
C3147 H3135 0.950 . S
C3147 C3143 1.393 . S
C3147 C3146 1.391 . S
H3148 C3156 0.950 . S
H3149 C3161 0.950 . S
H3150 C3158 0.950 . S
H3151 C3160 0.950 . S
H3152 C3162 0.950 . S
H3153 C3164 0.950 . S
H3154 C3166 0.950 . S
H3155 C3167 0.950 . S
C3156 H3148 0.950 . S
C3156 C3157 1.386 . S
C3156 C3158 1.391 . S
C3157 C3156 1.386 . S
C3157 C3161 1.393 . S
C3158 H3150 0.950 . S
C3158 C3156 1.391 . S
C3158 C3159 1.400 . S
C3159 C3158 1.400 . S
C3159 C3160 1.398 . S
C3159 C3165 1.491 . S
C3160 H3151 0.950 . S
C3160 C3159 1.398 . S
C3160 C3161 1.391 . S
C3161 H3149 0.950 . S
C3161 C3157 1.393 . S
C3161 C3160 1.391 . S
C3162 H3152 0.950 . S
C3162 C3163 1.386 . S
C3162 C3164 1.391 . S
C3163 C3162 1.386 . S
C3163 C3167 1.393 . S
C3164 H3153 0.950 . S
C3164 C3162 1.391 . S
C3164 C3165 1.400 . S
C3165 C3159 1.491 . S
C3165 C3164 1.400 . S
C3165 C3166 1.398 . S
C3166 H3154 0.950 . S
C3166 C3165 1.398 . S
C3166 C3167 1.391 . S
C3167 H3155 0.950 . S
C3167 C3163 1.393 . S
C3167 C3166 1.391 . S
H3168 C3176 0.950 . S
H3169 C3181 0.950 . S
H3170 C3178 0.950 . S
H3171 C3180 0.950 . S
H3172 C3182 0.950 . S
H3173 C3184 0.950 . S
H3174 C3186 0.950 . S
H3175 C3187 0.950 . S
C3176 H3168 0.950 . S
C3176 C3177 1.386 . S
C3176 C3178 1.391 . S
C3177 C3176 1.386 . S
C3177 C3181 1.393 . S
C3178 H3170 0.950 . S
C3178 C3176 1.391 . S
C3178 C3179 1.400 . S
C3179 C3178 1.400 . S
C3179 C3180 1.398 . S
C3179 C3185 1.491 1_455 S
C3180 H3171 0.950 . S
C3180 C3179 1.398 . S
C3180 C3181 1.391 . S
C3181 H3169 0.950 . S
C3181 C3177 1.393 . S
C3181 C3180 1.391 . S
C3182 H3172 0.950 . S
C3182 C3183 1.386 . S
C3182 C3184 1.391 . S
C3183 C3182 1.386 . S
C3183 C3187 1.393 . S
C3184 H3173 0.950 . S
C3184 C3182 1.391 . S
C3184 C3185 1.400 . S
C3185 C3179 1.491 1_655 S
C3185 C3184 1.400 . S
C3185 C3186 1.398 . S
C3186 H3174 0.950 . S
C3186 C3185 1.398 . S
C3186 C3187 1.391 . S
C3187 H3175 0.950 . S
C3187 C3183 1.393 . S
C3187 C3186 1.391 . S
H3188 C3196 0.950 . S
H3189 C3201 0.950 . S
H3190 C3198 0.950 . S
H3191 C3200 0.950 . S
H3192 C3202 0.950 . S
H3193 C3204 0.950 . S
H3194 C3206 0.950 . S
H3195 C3207 0.950 . S
C3196 H3188 0.950 . S
C3196 C3197 1.386 . S
C3196 C3198 1.391 . S
C3197 C3196 1.386 . S
C3197 C3201 1.393 . S
C3198 H3190 0.950 . S
C3198 C3196 1.391 . S
C3198 C3199 1.400 . S
C3199 C3198 1.400 . S
C3199 C3200 1.398 . S
C3199 C3205 1.491 1_545 S
C3200 H3191 0.950 . S
C3200 C3199 1.398 . S
C3200 C3201 1.391 . S
C3201 H3189 0.950 . S
C3201 C3197 1.393 . S
C3201 C3200 1.391 . S
C3202 H3192 0.950 . S
C3202 C3203 1.386 . S
C3202 C3204 1.391 . S
C3203 C3202 1.386 . S
C3203 C3207 1.393 . S
C3204 H3193 0.950 . S
C3204 C3202 1.391 . S
C3204 C3205 1.400 . S
C3205 C3199 1.491 1_565 S
C3205 C3204 1.400 . S
C3205 C3206 1.398 . S
C3206 H3194 0.950 . S
C3206 C3205 1.398 . S
C3206 C3207 1.391 . S
C3207 H3195 0.950 . S
C3207 C3203 1.393 . S
C3207 C3206 1.391 . S
H3208 C3216 0.950 . S
H3209 C3221 0.950 . S
H3210 C3218 0.950 . S
H3211 C3220 0.950 . S
H3212 C3222 0.950 . S
H3213 C3224 0.950 . S
H3214 C3226 0.950 . S
H3215 C3227 0.950 . S
C3216 H3208 0.950 . S
C3216 C3217 1.386 . S
C3216 C3218 1.391 . S
C3217 C3216 1.386 . S
C3217 C3221 1.393 . S
C3218 H3210 0.950 . S
C3218 C3216 1.391 . S
C3218 C3219 1.400 . S
C3219 C3218 1.400 . S
C3219 C3220 1.398 . S
C3219 C3225 1.491 1_655 S
C3220 H3211 0.950 . S
C3220 C3219 1.398 . S
C3220 C3221 1.391 . S
C3221 H3209 0.950 . S
C3221 C3217 1.393 . S
C3221 C3220 1.391 . S
C3222 H3212 0.950 . S
C3222 C3223 1.386 . S
C3222 C3224 1.391 . S
C3223 C3222 1.386 . S
C3223 C3227 1.393 . S
C3224 H3213 0.950 . S
C3224 C3222 1.391 . S
C3224 C3225 1.400 . S
C3225 C3219 1.491 1_455 S
C3225 C3224 1.400 . S
C3225 C3226 1.398 . S
C3226 H3214 0.950 . S
C3226 C3225 1.398 . S
C3226 C3227 1.391 . S
C3227 H3215 0.950 . S
C3227 C3223 1.393 . S
C3227 C3226 1.391 . S
H3228 C3236 0.950 . S
H3229 C3241 0.950 . S
H3230 C3238 0.950 . S
H3231 C3240 0.950 . S
H3232 C3242 0.950 . S
H3233 C3244 0.950 . S
H3234 C3246 0.950 . S
H3235 C3247 0.950 . S
C3236 H3228 0.950 . S
C3236 C3237 1.386 . S
C3236 C3238 1.391 . S
C3237 C3236 1.386 . S
C3237 C3241 1.393 . S
C3238 H3230 0.950 . S
C3238 C3236 1.391 . S
C3238 C3239 1.400 . S
C3239 C3238 1.400 . S
C3239 C3240 1.398 . S
C3239 C3245 1.491 1_565 S
C3240 H3231 0.950 . S
C3240 C3239 1.398 . S
C3240 C3241 1.391 . S
C3241 H3229 0.950 . S
C3241 C3237 1.393 . S
C3241 C3240 1.391 . S
C3242 H3232 0.950 . S
C3242 C3243 1.386 . S
C3242 C3244 1.391 . S
C3243 C3242 1.386 . S
C3243 C3247 1.393 . S
C3244 H3233 0.950 . S
C3244 C3242 1.391 . S
C3244 C3245 1.400 . S
C3245 C3239 1.491 1_545 S
C3245 C3244 1.400 . S
C3245 C3246 1.398 . S
C3246 H3234 0.950 . S
C3246 C3245 1.398 . S
C3246 C3247 1.391 . S
C3247 H3235 0.950 . S
C3247 C3243 1.393 . S
C3247 C3246 1.391 . S
H3248 C3256 0.950 . S
H3249 C3261 0.950 . S
H3250 C3258 0.950 . S
H3251 C3260 0.950 . S
H3252 C3262 0.950 . S
H3253 C3264 0.950 . S
H3254 C3266 0.950 . S
H3255 C3267 0.950 . S
C3256 H3248 0.950 . S
C3256 C3257 1.386 . S
C3256 C3258 1.391 . S
C3257 C3256 1.386 . S
C3257 C3261 1.393 . S
C3258 H3250 0.950 . S
C3258 C3256 1.391 . S
C3258 C3259 1.400 . S
C3259 C3258 1.400 . S
C3259 C3260 1.398 . S
C3259 C3265 1.491 1_655 S
C3260 H3251 0.950 . S
C3260 C3259 1.398 . S
C3260 C3261 1.391 . S
C3261 H3249 0.950 . S
C3261 C3257 1.393 . S
C3261 C3260 1.391 . S
C3262 H3252 0.950 . S
C3262 C3263 1.386 . S
C3262 C3264 1.391 . S
C3263 C3262 1.386 . S
C3263 C3267 1.393 . S
C3264 H3253 0.950 . S
C3264 C3262 1.391 . S
C3264 C3265 1.400 . S
C3265 C3259 1.491 1_455 S
C3265 C3264 1.400 . S
C3265 C3266 1.398 . S
C3266 H3254 0.950 . S
C3266 C3265 1.398 . S
C3266 C3267 1.391 . S
C3267 H3255 0.950 . S
C3267 C3263 1.393 . S
C3267 C3266 1.391 . S
H3268 C3276 0.950 . S
H3269 C3281 0.950 . S
H3270 C3278 0.950 . S
H3271 C3280 0.950 . S
H3272 C3282 0.950 . S
H3273 C3284 0.950 . S
H3274 C3286 0.950 . S
H3275 C3287 0.950 . S
C3276 H3268 0.950 . S
C3276 C3277 1.386 . S
C3276 C3278 1.391 . S
C3277 C3276 1.386 . S
C3277 C3281 1.393 . S
C3278 H3270 0.950 . S
C3278 C3276 1.391 . S
C3278 C3279 1.400 . S
C3279 C3278 1.400 . S
C3279 C3280 1.398 . S
C3279 C3285 1.491 1_545 S
C3280 H3271 0.950 . S
C3280 C3279 1.398 . S
C3280 C3281 1.391 . S
C3281 H3269 0.950 . S
C3281 C3277 1.393 . S
C3281 C3280 1.391 . S
C3282 H3272 0.950 . S
C3282 C3283 1.386 . S
C3282 C3284 1.391 . S
C3283 C3282 1.386 . S
C3283 C3287 1.393 . S
C3284 H3273 0.950 . S
C3284 C3282 1.391 . S
C3284 C3285 1.400 . S
C3285 C3279 1.491 1_565 S
C3285 C3284 1.400 . S
C3285 C3286 1.398 . S
C3286 H3274 0.950 . S
C3286 C3285 1.398 . S
C3286 C3287 1.391 . S
C3287 H3275 0.950 . S
C3287 C3283 1.393 . S
C3287 C3286 1.391 . S
H3288 C3296 0.950 . S
H3289 C3301 0.950 . S
H3290 C3298 0.950 . S
H3291 C3300 0.950 . S
H3292 C3302 0.950 . S
H3293 C3304 0.950 . S
H3294 C3306 0.950 . S
H3295 C3307 0.950 . S
C3296 H3288 0.950 . S
C3296 C3297 1.386 . S
C3296 C3298 1.391 . S
C3297 C3296 1.386 . S
C3297 C3301 1.393 . S
C3298 H3290 0.950 . S
C3298 C3296 1.391 . S
C3298 C3299 1.400 . S
C3299 C3298 1.400 . S
C3299 C3300 1.398 . S
C3299 C3305 1.491 1_455 S
C3300 H3291 0.950 . S
C3300 C3299 1.398 . S
C3300 C3301 1.391 . S
C3301 H3289 0.950 . S
C3301 C3297 1.393 . S
C3301 C3300 1.391 . S
C3302 H3292 0.950 . S
C3302 C3303 1.386 . S
C3302 C3304 1.391 . S
C3303 C3302 1.386 . S
C3303 C3307 1.393 . S
C3304 H3293 0.950 . S
C3304 C3302 1.391 . S
C3304 C3305 1.400 . S
C3305 C3299 1.491 1_655 S
C3305 C3304 1.400 . S
C3305 C3306 1.398 . S
C3306 H3294 0.950 . S
C3306 C3305 1.398 . S
C3306 C3307 1.391 . S
C3307 H3295 0.950 . S
C3307 C3303 1.393 . S
C3307 C3306 1.391 . S
H3308 C3316 0.950 . S
H3309 C3321 0.950 . S
H3310 C3318 0.950 . S
H3311 C3320 0.950 . S
H3312 C3322 0.950 . S
H3313 C3324 0.950 . S
H3314 C3326 0.950 . S
H3315 C3327 0.950 . S
C3316 H3308 0.950 . S
C3316 C3317 1.386 . S
C3316 C3318 1.391 . S
C3317 C3316 1.386 . S
C3317 C3321 1.393 . S
C3318 H3310 0.950 . S
C3318 C3316 1.391 . S
C3318 C3319 1.400 . S
C3319 C3318 1.400 . S
C3319 C3320 1.398 . S
C3319 C3325 1.491 1_545 S
C3320 H3311 0.950 . S
C3320 C3319 1.398 . S
C3320 C3321 1.391 . S
C3321 H3309 0.950 . S
C3321 C3317 1.393 . S
C3321 C3320 1.391 . S
C3322 H3312 0.950 . S
C3322 C3323 1.386 . S
C3322 C3324 1.391 . S
C3323 C3322 1.386 . S
C3323 C3327 1.393 . S
C3324 H3313 0.950 . S
C3324 C3322 1.391 . S
C3324 C3325 1.400 . S
C3325 C3319 1.491 1_565 S
C3325 C3324 1.400 . S
C3325 C3326 1.398 . S
C3326 H3314 0.950 . S
C3326 C3325 1.398 . S
C3326 C3327 1.391 . S
C3327 H3315 0.950 . S
C3327 C3323 1.393 . S
C3327 C3326 1.391 . S
H3328 C3336 0.950 . S
H3329 C3341 0.950 . S
H3330 C3338 0.950 . S
H3331 C3340 0.950 . S
H3332 C3342 0.950 . S
H3333 C3344 0.950 . S
H3334 C3346 0.950 . S
H3335 C3347 0.950 . S
C3336 H3328 0.950 . S
C3336 C3337 1.386 . S
C3336 C3338 1.391 . S
C3337 C3336 1.386 . S
C3337 C3341 1.393 . S
C3338 H3330 0.950 . S
C3338 C3336 1.391 . S
C3338 C3339 1.400 . S
C3339 C3338 1.400 . S
C3339 C3340 1.398 . S
C3339 C3345 1.491 1_545 S
C3340 H3331 0.950 . S
C3340 C3339 1.398 . S
C3340 C3341 1.391 . S
C3341 H3329 0.950 . S
C3341 C3337 1.393 . S
C3341 C3340 1.391 . S
C3342 H3332 0.950 . S
C3342 C3343 1.386 . S
C3342 C3344 1.391 . S
C3343 C3342 1.386 . S
C3343 C3347 1.393 . S
C3344 H3333 0.950 . S
C3344 C3342 1.391 . S
C3344 C3345 1.400 . S
C3345 C3339 1.491 1_565 S
C3345 C3344 1.400 . S
C3345 C3346 1.398 . S
C3346 H3334 0.950 . S
C3346 C3345 1.398 . S
C3346 C3347 1.391 . S
C3347 H3335 0.950 . S
C3347 C3343 1.393 . S
C3347 C3346 1.391 . S
H3348 C3356 0.950 . S
H3349 C3361 0.950 . S
H3350 C3358 0.950 . S
H3351 C3360 0.950 . S
H3352 C3362 0.950 . S
H3353 C3364 0.950 . S
H3354 C3366 0.950 . S
H3355 C3367 0.950 . S
C3356 H3348 0.950 . S
C3356 C3357 1.386 . S
C3356 C3358 1.391 . S
C3357 C3356 1.386 . S
C3357 C3361 1.393 . S
C3358 H3350 0.950 . S
C3358 C3356 1.391 . S
C3358 C3359 1.400 . S
C3359 C3358 1.400 . S
C3359 C3360 1.398 . S
C3359 C3365 1.491 1_455 S
C3360 H3351 0.950 . S
C3360 C3359 1.398 . S
C3360 C3361 1.391 . S
C3361 H3349 0.950 . S
C3361 C3357 1.393 . S
C3361 C3360 1.391 . S
C3362 H3352 0.950 . S
C3362 C3363 1.386 . S
C3362 C3364 1.391 . S
C3363 C3362 1.386 . S
C3363 C3367 1.393 . S
C3364 H3353 0.950 . S
C3364 C3362 1.391 . S
C3364 C3365 1.400 . S
C3365 C3359 1.491 1_655 S
C3365 C3364 1.400 . S
C3365 C3366 1.398 . S
C3366 H3354 0.950 . S
C3366 C3365 1.398 . S
C3366 C3367 1.391 . S
C3367 H3355 0.950 . S
C3367 C3363 1.393 . S
C3367 C3366 1.391 . S
H3368 C3376 0.950 . S
H3369 C3381 0.950 . S
H3370 C3378 0.950 . S
H3371 C3380 0.950 . S
H3372 C3382 0.950 . S
H3373 C3384 0.950 . S
H3374 C3386 0.950 . S
H3375 C3387 0.950 . S
C3376 H3368 0.950 . S
C3376 C3377 1.386 . S
C3376 C3378 1.391 . S
C3377 C3376 1.386 . S
C3377 C3381 1.393 . S
C3378 H3370 0.950 . S
C3378 C3376 1.391 . S
C3378 C3379 1.400 . S
C3379 C3378 1.400 . S
C3379 C3380 1.398 . S
C3379 C3385 1.491 1_565 S
C3380 H3371 0.950 . S
C3380 C3379 1.398 . S
C3380 C3381 1.391 . S
C3381 H3369 0.950 . S
C3381 C3377 1.393 . S
C3381 C3380 1.391 . S
C3382 H3372 0.950 . S
C3382 C3383 1.386 . S
C3382 C3384 1.391 . S
C3383 C3382 1.386 . S
C3383 C3387 1.393 . S
C3384 H3373 0.950 . S
C3384 C3382 1.391 . S
C3384 C3385 1.400 . S
C3385 C3379 1.491 1_545 S
C3385 C3384 1.400 . S
C3385 C3386 1.398 . S
C3386 H3374 0.950 . S
C3386 C3385 1.398 . S
C3386 C3387 1.391 . S
C3387 H3375 0.950 . S
C3387 C3383 1.393 . S
C3387 C3386 1.391 . S
H3388 C3396 0.950 . S
H3389 C3401 0.950 . S
H3390 C3398 0.950 . S
H3391 C3400 0.950 . S
H3392 C3402 0.950 . S
H3393 C3404 0.950 . S
H3394 C3406 0.950 . S
H3395 C3407 0.950 . S
C3396 H3388 0.950 . S
C3396 C3397 1.386 . S
C3396 C3398 1.391 . S
C3397 C3396 1.386 . S
C3397 C3401 1.393 . S
C3398 H3390 0.950 . S
C3398 C3396 1.391 . S
C3398 C3399 1.400 . S
C3399 C3398 1.400 . S
C3399 C3400 1.398 . S
C3399 C3405 1.491 1_455 S
C3400 H3391 0.950 . S
C3400 C3399 1.398 . S
C3400 C3401 1.391 . S
C3401 H3389 0.950 . S
C3401 C3397 1.393 . S
C3401 C3400 1.391 . S
C3402 H3392 0.950 . S
C3402 C3403 1.386 . S
C3402 C3404 1.391 . S
C3403 C3402 1.386 . S
C3403 C3407 1.393 . S
C3404 H3393 0.950 . S
C3404 C3402 1.391 . S
C3404 C3405 1.400 . S
C3405 C3399 1.491 1_655 S
C3405 C3404 1.400 . S
C3405 C3406 1.398 . S
C3406 H3394 0.950 . S
C3406 C3405 1.398 . S
C3406 C3407 1.391 . S
C3407 H3395 0.950 . S
C3407 C3403 1.393 . S
C3407 C3406 1.391 . S
H3408 C3416 0.950 . S
H3409 C3421 0.950 . S
H3410 C3418 0.950 . S
H3411 C3420 0.950 . S
H3412 C3422 0.950 . S
H3413 C3424 0.950 . S
H3414 C3426 0.950 . S
H3415 C3427 0.950 . S
C3416 H3408 0.950 . S
C3416 C3417 1.386 . S
C3416 C3418 1.391 . S
C3417 C3416 1.386 . S
C3417 C3421 1.393 . S
C3418 H3410 0.950 . S
C3418 C3416 1.391 . S
C3418 C3419 1.400 . S
C3419 C3418 1.400 . S
C3419 C3420 1.398 . S
C3419 C3425 1.491 1_565 S
C3420 H3411 0.950 . S
C3420 C3419 1.398 . S
C3420 C3421 1.391 . S
C3421 H3409 0.950 . S
C3421 C3417 1.393 . S
C3421 C3420 1.391 . S
C3422 H3412 0.950 . S
C3422 C3423 1.386 . S
C3422 C3424 1.391 . S
C3423 C3422 1.386 . S
C3423 C3427 1.393 . S
C3424 H3413 0.950 . S
C3424 C3422 1.391 . S
C3424 C3425 1.400 . S
C3425 C3419 1.491 1_545 S
C3425 C3424 1.400 . S
C3425 C3426 1.398 . S
C3426 H3414 0.950 . S
C3426 C3425 1.398 . S
C3426 C3427 1.391 . S
C3427 H3415 0.950 . S
C3427 C3423 1.393 . S
C3427 C3426 1.391 . S
H3428 C3436 0.950 . S
H3429 C3441 0.950 . S
H3430 C3438 0.950 . S
H3431 C3440 0.950 . S
H3432 C3442 0.950 . S
H3433 C3444 0.950 . S
H3434 C3446 0.950 . S
H3435 C3447 0.950 . S
C3436 H3428 0.950 . S
C3436 C3437 1.386 . S
C3436 C3438 1.391 . S
C3437 C3436 1.386 . S
C3437 C3441 1.393 . S
C3438 H3430 0.950 . S
C3438 C3436 1.391 . S
C3438 C3439 1.400 . S
C3439 C3438 1.400 . S
C3439 C3440 1.398 . S
C3439 C3445 1.491 1_455 S
C3440 H3431 0.950 . S
C3440 C3439 1.398 . S
C3440 C3441 1.391 . S
C3441 H3429 0.950 . S
C3441 C3437 1.393 . S
C3441 C3440 1.391 . S
C3442 H3432 0.950 . S
C3442 C3443 1.386 . S
C3442 C3444 1.391 . S
C3443 C3442 1.386 . S
C3443 C3447 1.393 . S
C3444 H3433 0.950 . S
C3444 C3442 1.391 . S
C3444 C3445 1.400 . S
C3445 C3439 1.491 1_655 S
C3445 C3444 1.400 . S
C3445 C3446 1.398 . S
C3446 H3434 0.950 . S
C3446 C3445 1.398 . S
C3446 C3447 1.391 . S
C3447 H3435 0.950 . S
C3447 C3443 1.393 . S
C3447 C3446 1.391 . S
H3448 C3456 0.950 . S
H3449 C3461 0.950 . S
H3450 C3458 0.950 . S
H3451 C3460 0.950 . S
H3452 C3462 0.950 . S
H3453 C3464 0.950 . S
H3454 C3466 0.950 . S
H3455 C3467 0.950 . S
C3456 H3448 0.950 . S
C3456 C3457 1.386 . S
C3456 C3458 1.391 . S
C3457 C3456 1.386 . S
C3457 C3461 1.393 . S
C3458 H3450 0.950 . S
C3458 C3456 1.391 . S
C3458 C3459 1.400 . S
C3459 C3458 1.400 . S
C3459 C3460 1.398 . S
C3459 C3465 1.491 1_545 S
C3460 H3451 0.950 . S
C3460 C3459 1.398 . S
C3460 C3461 1.391 . S
C3461 H3449 0.950 . S
C3461 C3457 1.393 . S
C3461 C3460 1.391 . S
C3462 H3452 0.950 . S
C3462 C3463 1.386 . S
C3462 C3464 1.391 . S
C3463 C3462 1.386 . S
C3463 C3467 1.393 . S
C3464 H3453 0.950 . S
C3464 C3462 1.391 . S
C3464 C3465 1.400 . S
C3465 C3459 1.491 1_565 S
C3465 C3464 1.400 . S
C3465 C3466 1.398 . S
C3466 H3454 0.950 . S
C3466 C3465 1.398 . S
C3466 C3467 1.391 . S
C3467 H3455 0.950 . S
C3467 C3463 1.393 . S
C3467 C3466 1.391 . S
H3468 C3476 0.950 . S
H3469 C3481 0.950 . S
H3470 C3478 0.950 . S
H3471 C3480 0.950 . S
H3472 C3482 0.950 . S
H3473 C3484 0.950 . S
H3474 C3486 0.950 . S
H3475 C3487 0.950 . S
C3476 H3468 0.950 . S
C3476 C3477 1.386 . S
C3476 C3478 1.391 . S
C3477 C3476 1.386 . S
C3477 C3481 1.393 . S
C3478 H3470 0.950 . S
C3478 C3476 1.391 . S
C3478 C3479 1.400 . S
C3479 C3478 1.400 . S
C3479 C3480 1.398 . S
C3479 C3485 1.491 1_455 S
C3480 H3471 0.950 . S
C3480 C3479 1.398 . S
C3480 C3481 1.391 . S
C3481 H3469 0.950 . S
C3481 C3477 1.393 . S
C3481 C3480 1.391 . S
C3482 H3472 0.950 . S
C3482 C3483 1.386 . S
C3482 C3484 1.391 . S
C3483 C3482 1.386 . S
C3483 C3487 1.393 . S
C3484 H3473 0.950 . S
C3484 C3482 1.391 . S
C3484 C3485 1.400 . S
C3485 C3479 1.491 1_655 S
C3485 C3484 1.400 . S
C3485 C3486 1.398 . S
C3486 H3474 0.950 . S
C3486 C3485 1.398 . S
C3486 C3487 1.391 . S
C3487 H3475 0.950 . S
C3487 C3483 1.393 . S
C3487 C3486 1.391 . S
H3488 C3496 0.950 . S
H3489 C3501 0.950 . S
H3490 C3498 0.950 . S
H3491 C3500 0.950 . S
H3492 C3502 0.950 . S
H3493 C3504 0.950 . S
H3494 C3506 0.950 . S
H3495 C3507 0.950 . S
C3496 H3488 0.950 . S
C3496 C3497 1.386 . S
C3496 C3498 1.391 . S
C3497 C3496 1.386 . S
C3497 C3501 1.393 . S
C3498 H3490 0.950 . S
C3498 C3496 1.391 . S
C3498 C3499 1.400 . S
C3499 C3498 1.400 . S
C3499 C3500 1.398 . S
C3499 C3505 1.491 1_554 S
C3500 H3491 0.950 . S
C3500 C3499 1.398 . S
C3500 C3501 1.391 . S
C3501 H3489 0.950 . S
C3501 C3497 1.393 . S
C3501 C3500 1.391 . S
C3502 H3492 0.950 . S
C3502 C3503 1.386 . S
C3502 C3504 1.391 . S
C3503 C3502 1.386 . S
C3503 C3507 1.393 . S
C3504 H3493 0.950 . S
C3504 C3502 1.391 . S
C3504 C3505 1.400 . S
C3505 C3499 1.491 1_556 S
C3505 C3504 1.400 . S
C3505 C3506 1.398 . S
C3506 H3494 0.950 . S
C3506 C3505 1.398 . S
C3506 C3507 1.391 . S
C3507 H3495 0.950 . S
C3507 C3503 1.393 . S
C3507 C3506 1.391 . S
H3508 C3516 0.950 . S
H3509 C3521 0.950 . S
H3510 C3518 0.950 . S
H3511 C3520 0.950 . S
H3512 C3522 0.950 . S
H3513 C3524 0.950 . S
H3514 C3526 0.950 . S
H3515 C3527 0.950 . S
C3516 H3508 0.950 . S
C3516 C3517 1.386 . S
C3516 C3518 1.391 . S
C3517 C3516 1.386 . S
C3517 C3521 1.393 . S
C3518 H3510 0.950 . S
C3518 C3516 1.391 . S
C3518 C3519 1.400 . S
C3519 C3518 1.400 . S
C3519 C3520 1.398 . S
C3519 C3525 1.491 1_556 S
C3520 H3511 0.950 . S
C3520 C3519 1.398 . S
C3520 C3521 1.391 . S
C3521 H3509 0.950 . S
C3521 C3517 1.393 . S
C3521 C3520 1.391 . S
C3522 H3512 0.950 . S
C3522 C3523 1.386 . S
C3522 C3524 1.391 . S
C3523 C3522 1.386 . S
C3523 C3527 1.393 . S
C3524 H3513 0.950 . S
C3524 C3522 1.391 . S
C3524 C3525 1.400 . S
C3525 C3519 1.491 1_554 S
C3525 C3524 1.400 . S
C3525 C3526 1.398 . S
C3526 H3514 0.950 . S
C3526 C3525 1.398 . S
C3526 C3527 1.391 . S
C3527 H3515 0.950 . S
C3527 C3523 1.393 . S
C3527 C3526 1.391 . S
H3528 C3536 0.950 . S
H3529 C3541 0.950 . S
H3530 C3538 0.950 . S
H3531 C3540 0.950 . S
H3532 C3542 0.950 . S
H3533 C3544 0.950 . S
H3534 C3546 0.950 . S
H3535 C3547 0.950 . S
C3536 H3528 0.950 . S
C3536 C3537 1.386 . S
C3536 C3538 1.391 . S
C3537 C3536 1.386 . S
C3537 C3541 1.393 . S
C3538 H3530 0.950 . S
C3538 C3536 1.391 . S
C3538 C3539 1.400 . S
C3539 C3538 1.400 . S
C3539 C3540 1.398 . S
C3539 C3545 1.491 1_554 S
C3540 H3531 0.950 . S
C3540 C3539 1.398 . S
C3540 C3541 1.391 . S
C3541 H3529 0.950 . S
C3541 C3537 1.393 . S
C3541 C3540 1.391 . S
C3542 H3532 0.950 . S
C3542 C3543 1.386 . S
C3542 C3544 1.391 . S
C3543 C3542 1.386 . S
C3543 C3547 1.393 . S
C3544 H3533 0.950 . S
C3544 C3542 1.391 . S
C3544 C3545 1.400 . S
C3545 C3539 1.491 1_556 S
C3545 C3544 1.400 . S
C3545 C3546 1.398 . S
C3546 H3534 0.950 . S
C3546 C3545 1.398 . S
C3546 C3547 1.391 . S
C3547 H3535 0.950 . S
C3547 C3543 1.393 . S
C3547 C3546 1.391 . S
H3548 C3556 0.950 . S
H3549 C3561 0.950 . S
H3550 C3558 0.950 . S
H3551 C3560 0.950 . S
H3552 C3562 0.950 . S
H3553 C3564 0.950 . S
H3554 C3566 0.950 . S
H3555 C3567 0.950 . S
C3556 H3548 0.950 . S
C3556 C3557 1.386 . S
C3556 C3558 1.391 . S
C3557 C3556 1.386 . S
C3557 C3561 1.393 . S
C3558 H3550 0.950 . S
C3558 C3556 1.391 . S
C3558 C3559 1.400 . S
C3559 C3558 1.400 . S
C3559 C3560 1.398 . S
C3559 C3565 1.491 1_556 S
C3560 H3551 0.950 . S
C3560 C3559 1.398 . S
C3560 C3561 1.391 . S
C3561 H3549 0.950 . S
C3561 C3557 1.393 . S
C3561 C3560 1.391 . S
C3562 H3552 0.950 . S
C3562 C3563 1.386 . S
C3562 C3564 1.391 . S
C3563 C3562 1.386 . S
C3563 C3567 1.393 . S
C3564 H3553 0.950 . S
C3564 C3562 1.391 . S
C3564 C3565 1.400 . S
C3565 C3559 1.491 1_554 S
C3565 C3564 1.400 . S
C3565 C3566 1.398 . S
C3566 H3554 0.950 . S
C3566 C3565 1.398 . S
C3566 C3567 1.391 . S
C3567 H3555 0.950 . S
C3567 C3563 1.393 . S
C3567 C3566 1.391 . S
H3568 C3576 0.950 . S
H3569 C3581 0.950 . S
H3570 C3578 0.950 . S
H3571 C3580 0.950 . S
H3572 C3582 0.950 . S
H3573 C3584 0.950 . S
H3574 C3586 0.950 . S
H3575 C3587 0.950 . S
C3576 H3568 0.950 . S
C3576 C3577 1.386 . S
C3576 C3578 1.391 . S
C3577 C3576 1.386 . S
C3577 C3581 1.393 . S
C3578 H3570 0.950 . S
C3578 C3576 1.391 . S
C3578 C3579 1.400 . S
C3579 C3578 1.400 . S
C3579 C3580 1.398 . S
C3579 C3585 1.491 1_554 S
C3580 H3571 0.950 . S
C3580 C3579 1.398 . S
C3580 C3581 1.391 . S
C3581 H3569 0.950 . S
C3581 C3577 1.393 . S
C3581 C3580 1.391 . S
C3582 H3572 0.950 . S
C3582 C3583 1.386 . S
C3582 C3584 1.391 . S
C3583 C3582 1.386 . S
C3583 C3587 1.393 . S
C3584 H3573 0.950 . S
C3584 C3582 1.391 . S
C3584 C3585 1.400 . S
C3585 C3579 1.491 1_556 S
C3585 C3584 1.400 . S
C3585 C3586 1.398 . S
C3586 H3574 0.950 . S
C3586 C3585 1.398 . S
C3586 C3587 1.391 . S
C3587 H3575 0.950 . S
C3587 C3583 1.393 . S
C3587 C3586 1.391 . S
H3588 C3596 0.950 . S
H3589 C3601 0.950 . S
H3590 C3598 0.950 . S
H3591 C3600 0.950 . S
H3592 C3602 0.950 . S
H3593 C3604 0.950 . S
H3594 C3606 0.950 . S
H3595 C3607 0.950 . S
C3596 H3588 0.950 . S
C3596 C3597 1.386 . S
C3596 C3598 1.391 . S
C3597 C3596 1.386 . S
C3597 C3601 1.393 . S
C3598 H3590 0.950 . S
C3598 C3596 1.391 . S
C3598 C3599 1.400 . S
C3599 C3598 1.400 . S
C3599 C3600 1.398 . S
C3599 C3605 1.491 1_554 S
C3600 H3591 0.950 . S
C3600 C3599 1.398 . S
C3600 C3601 1.391 . S
C3601 H3589 0.950 . S
C3601 C3597 1.393 . S
C3601 C3600 1.391 . S
C3602 H3592 0.950 . S
C3602 C3603 1.386 . S
C3602 C3604 1.391 . S
C3603 C3602 1.386 . S
C3603 C3607 1.393 . S
C3604 H3593 0.950 . S
C3604 C3602 1.391 . S
C3604 C3605 1.400 . S
C3605 C3599 1.491 1_556 S
C3605 C3604 1.400 . S
C3605 C3606 1.398 . S
C3606 H3594 0.950 . S
C3606 C3605 1.398 . S
C3606 C3607 1.391 . S
C3607 H3595 0.950 . S
C3607 C3603 1.393 . S
C3607 C3606 1.391 . S
H3608 C3616 0.950 . S
H3609 C3621 0.950 . S
H3610 C3618 0.950 . S
H3611 C3620 0.950 . S
H3612 C3622 0.950 . S
H3613 C3624 0.950 . S
H3614 C3626 0.950 . S
H3615 C3627 0.950 . S
C3616 H3608 0.950 . S
C3616 C3617 1.386 . S
C3616 C3618 1.391 . S
C3617 C3616 1.386 . S
C3617 C3621 1.393 . S
C3618 H3610 0.950 . S
C3618 C3616 1.391 . S
C3618 C3619 1.400 . S
C3619 C3618 1.400 . S
C3619 C3620 1.398 . S
C3619 C3625 1.491 1_556 S
C3620 H3611 0.950 . S
C3620 C3619 1.398 . S
C3620 C3621 1.391 . S
C3621 H3609 0.950 . S
C3621 C3617 1.393 . S
C3621 C3620 1.391 . S
C3622 H3612 0.950 . S
C3622 C3623 1.386 . S
C3622 C3624 1.391 . S
C3623 C3622 1.386 . S
C3623 C3627 1.393 . S
C3624 H3613 0.950 . S
C3624 C3622 1.391 . S
C3624 C3625 1.400 . S
C3625 C3619 1.491 1_554 S
C3625 C3624 1.400 . S
C3625 C3626 1.398 . S
C3626 H3614 0.950 . S
C3626 C3625 1.398 . S
C3626 C3627 1.391 . S
C3627 H3615 0.950 . S
C3627 C3623 1.393 . S
C3627 C3626 1.391 . S
H3628 C3636 0.950 . S
H3629 C3641 0.950 . S
H3630 C3638 0.950 . S
H3631 C3640 0.950 . S
H3632 C3642 0.950 . S
H3633 C3644 0.950 . S
H3634 C3646 0.950 . S
H3635 C3647 0.950 . S
C3636 H3628 0.950 . S
C3636 C3637 1.386 . S
C3636 C3638 1.391 . S
C3637 C3636 1.386 . S
C3637 C3641 1.393 . S
C3638 H3630 0.950 . S
C3638 C3636 1.391 . S
C3638 C3639 1.400 . S
C3639 C3638 1.400 . S
C3639 C3640 1.398 . S
C3639 C3645 1.491 1_556 S
C3640 H3631 0.950 . S
C3640 C3639 1.398 . S
C3640 C3641 1.391 . S
C3641 H3629 0.950 . S
C3641 C3637 1.393 . S
C3641 C3640 1.391 . S
C3642 H3632 0.950 . S
C3642 C3643 1.386 . S
C3642 C3644 1.391 . S
C3643 C3642 1.386 . S
C3643 C3647 1.393 . S
C3644 H3633 0.950 . S
C3644 C3642 1.391 . S
C3644 C3645 1.400 . S
C3645 C3639 1.491 1_554 S
C3645 C3644 1.400 . S
C3645 C3646 1.398 . S
C3646 H3634 0.950 . S
C3646 C3645 1.398 . S
C3646 C3647 1.391 . S
C3647 H3635 0.950 . S
C3647 C3643 1.393 . S
C3647 C3646 1.391 . S
H3648 C3656 0.950 . S
H3649 C3661 0.950 . S
H3650 C3658 0.950 . S
H3651 C3660 0.950 . S
H3652 C3662 0.950 . S
H3653 C3664 0.950 . S
H3654 C3666 0.950 . S
H3655 C3667 0.950 . S
C3656 H3648 0.950 . S
C3656 C3657 1.386 . S
C3656 C3658 1.391 . S
C3657 C3656 1.386 . S
C3657 C3661 1.393 . S
C3658 H3650 0.950 . S
C3658 C3656 1.391 . S
C3658 C3659 1.400 . S
C3659 C3658 1.400 . S
C3659 C3660 1.398 . S
C3659 C3665 1.491 . S
C3660 H3651 0.950 . S
C3660 C3659 1.398 . S
C3660 C3661 1.391 . S
C3661 H3649 0.950 . S
C3661 C3657 1.393 . S
C3661 C3660 1.391 . S
C3662 H3652 0.950 . S
C3662 C3663 1.386 . S
C3662 C3664 1.391 . S
C3663 C3662 1.386 . S
C3663 C3667 1.393 . S
C3664 H3653 0.950 . S
C3664 C3662 1.391 . S
C3664 C3665 1.400 . S
C3665 C3659 1.491 . S
C3665 C3664 1.400 . S
C3665 C3666 1.398 . S
C3666 H3654 0.950 . S
C3666 C3665 1.398 . S
C3666 C3667 1.391 . S
C3667 H3655 0.950 . S
C3667 C3663 1.393 . S
C3667 C3666 1.391 . S
H3668 C3676 0.950 . S
H3669 C3681 0.950 . S
H3670 C3678 0.950 . S
H3671 C3680 0.950 . S
H3672 C3682 0.950 . S
H3673 C3684 0.950 . S
H3674 C3686 0.950 . S
H3675 C3687 0.950 . S
C3676 H3668 0.950 . S
C3676 C3677 1.386 . S
C3676 C3678 1.391 . S
C3677 C3676 1.386 . S
C3677 C3681 1.393 . S
C3678 H3670 0.950 . S
C3678 C3676 1.391 . S
C3678 C3679 1.400 . S
C3679 C3678 1.400 . S
C3679 C3680 1.398 . S
C3679 C3685 1.491 . S
C3680 H3671 0.950 . S
C3680 C3679 1.398 . S
C3680 C3681 1.391 . S
C3681 H3669 0.950 . S
C3681 C3677 1.393 . S
C3681 C3680 1.391 . S
C3682 H3672 0.950 . S
C3682 C3683 1.386 . S
C3682 C3684 1.391 . S
C3683 C3682 1.386 . S
C3683 C3687 1.393 . S
C3684 H3673 0.950 . S
C3684 C3682 1.391 . S
C3684 C3685 1.400 . S
C3685 C3679 1.491 . S
C3685 C3684 1.400 . S
C3685 C3686 1.398 . S
C3686 H3674 0.950 . S
C3686 C3685 1.398 . S
C3686 C3687 1.391 . S
C3687 H3675 0.950 . S
C3687 C3683 1.393 . S
C3687 C3686 1.391 . S
H3688 C3696 0.950 . S
H3689 C3701 0.950 . S
H3690 C3698 0.950 . S
H3691 C3700 0.950 . S
H3692 C3702 0.950 . S
H3693 C3704 0.950 . S
H3694 C3706 0.950 . S
H3695 C3707 0.950 . S
C3696 H3688 0.950 . S
C3696 C3697 1.386 . S
C3696 C3698 1.391 . S
C3697 C3696 1.386 . S
C3697 C3701 1.393 . S
C3698 H3690 0.950 . S
C3698 C3696 1.391 . S
C3698 C3699 1.400 . S
C3699 C3698 1.400 . S
C3699 C3700 1.398 . S
C3699 C3705 1.491 . S
C3700 H3691 0.950 . S
C3700 C3699 1.398 . S
C3700 C3701 1.391 . S
C3701 H3689 0.950 . S
C3701 C3697 1.393 . S
C3701 C3700 1.391 . S
C3702 H3692 0.950 . S
C3702 C3703 1.386 . S
C3702 C3704 1.391 . S
C3703 C3702 1.386 . S
C3703 C3707 1.393 . S
C3704 H3693 0.950 . S
C3704 C3702 1.391 . S
C3704 C3705 1.400 . S
C3705 C3699 1.491 . S
C3705 C3704 1.400 . S
C3705 C3706 1.398 . S
C3706 H3694 0.950 . S
C3706 C3705 1.398 . S
C3706 C3707 1.391 . S
C3707 H3695 0.950 . S
C3707 C3703 1.393 . S
C3707 C3706 1.391 . S
H3708 C3716 0.950 . S
H3709 C3721 0.950 . S
H3710 C3718 0.950 . S
H3711 C3720 0.950 . S
H3712 C3722 0.950 . S
H3713 C3724 0.950 . S
H3714 C3726 0.950 . S
H3715 C3727 0.950 . S
C3716 H3708 0.950 . S
C3716 C3717 1.386 . S
C3716 C3718 1.391 . S
C3717 C3716 1.386 . S
C3717 C3721 1.393 . S
C3718 H3710 0.950 . S
C3718 C3716 1.391 . S
C3718 C3719 1.400 . S
C3719 C3718 1.400 . S
C3719 C3720 1.398 . S
C3719 C3725 1.491 . S
C3720 H3711 0.950 . S
C3720 C3719 1.398 . S
C3720 C3721 1.391 . S
C3721 H3709 0.950 . S
C3721 C3717 1.393 . S
C3721 C3720 1.391 . S
C3722 H3712 0.950 . S
C3722 C3723 1.386 . S
C3722 C3724 1.391 . S
C3723 C3722 1.386 . S
C3723 C3727 1.393 . S
C3724 H3713 0.950 . S
C3724 C3722 1.391 . S
C3724 C3725 1.400 . S
C3725 C3719 1.491 . S
C3725 C3724 1.400 . S
C3725 C3726 1.398 . S
C3726 H3714 0.950 . S
C3726 C3725 1.398 . S
C3726 C3727 1.391 . S
C3727 H3715 0.950 . S
C3727 C3723 1.393 . S
C3727 C3726 1.391 . S
H3728 C3736 0.950 . S
H3729 C3741 0.950 . S
H3730 C3738 0.950 . S
H3731 C3740 0.950 . S
H3732 C3742 0.950 . S
H3733 C3744 0.950 . S
H3734 C3746 0.950 . S
H3735 C3747 0.950 . S
C3736 H3728 0.950 . S
C3736 C3737 1.386 . S
C3736 C3738 1.391 . S
C3737 C3736 1.386 . S
C3737 C3741 1.393 . S
C3738 H3730 0.950 . S
C3738 C3736 1.391 . S
C3738 C3739 1.400 . S
C3739 C3738 1.400 . S
C3739 C3740 1.398 . S
C3739 C3745 1.491 . S
C3740 H3731 0.950 . S
C3740 C3739 1.398 . S
C3740 C3741 1.391 . S
C3741 H3729 0.950 . S
C3741 C3737 1.393 . S
C3741 C3740 1.391 . S
C3742 H3732 0.950 . S
C3742 C3743 1.386 . S
C3742 C3744 1.391 . S
C3743 C3742 1.386 . S
C3743 C3747 1.393 . S
C3744 H3733 0.950 . S
C3744 C3742 1.391 . S
C3744 C3745 1.400 . S
C3745 C3739 1.491 . S
C3745 C3744 1.400 . S
C3745 C3746 1.398 . S
C3746 H3734 0.950 . S
C3746 C3745 1.398 . S
C3746 C3747 1.391 . S
C3747 H3735 0.950 . S
C3747 C3743 1.393 . S
C3747 C3746 1.391 . S
H3748 C3756 0.950 . S
H3749 C3761 0.950 . S
H3750 C3758 0.950 . S
H3751 C3760 0.950 . S
H3752 C3762 0.950 . S
H3753 C3764 0.950 . S
H3754 C3766 0.950 . S
H3755 C3767 0.950 . S
C3756 H3748 0.950 . S
C3756 C3757 1.386 . S
C3756 C3758 1.391 . S
C3757 C3756 1.386 . S
C3757 C3761 1.393 . S
C3758 H3750 0.950 . S
C3758 C3756 1.391 . S
C3758 C3759 1.400 . S
C3759 C3758 1.400 . S
C3759 C3760 1.398 . S
C3759 C3765 1.491 . S
C3760 H3751 0.950 . S
C3760 C3759 1.398 . S
C3760 C3761 1.391 . S
C3761 H3749 0.950 . S
C3761 C3757 1.393 . S
C3761 C3760 1.391 . S
C3762 H3752 0.950 . S
C3762 C3763 1.386 . S
C3762 C3764 1.391 . S
C3763 C3762 1.386 . S
C3763 C3767 1.393 . S
C3764 H3753 0.950 . S
C3764 C3762 1.391 . S
C3764 C3765 1.400 . S
C3765 C3759 1.491 . S
C3765 C3764 1.400 . S
C3765 C3766 1.398 . S
C3766 H3754 0.950 . S
C3766 C3765 1.398 . S
C3766 C3767 1.391 . S
C3767 H3755 0.950 . S
C3767 C3763 1.393 . S
C3767 C3766 1.391 . S
H3768 C3776 0.950 . S
H3769 C3781 0.950 . S
H3770 C3778 0.950 . S
H3771 C3780 0.950 . S
H3772 C3782 0.950 . S
H3773 C3784 0.950 . S
H3774 C3786 0.950 . S
H3775 C3787 0.950 . S
C3776 H3768 0.950 . S
C3776 C3777 1.386 . S
C3776 C3778 1.391 . S
C3777 C3776 1.386 . S
C3777 C3781 1.393 . S
C3778 H3770 0.950 . S
C3778 C3776 1.391 . S
C3778 C3779 1.400 . S
C3779 C3778 1.400 . S
C3779 C3780 1.398 . S
C3779 C3785 1.491 . S
C3780 H3771 0.950 . S
C3780 C3779 1.398 . S
C3780 C3781 1.391 . S
C3781 H3769 0.950 . S
C3781 C3777 1.393 . S
C3781 C3780 1.391 . S
C3782 H3772 0.950 . S
C3782 C3783 1.386 . S
C3782 C3784 1.391 . S
C3783 C3782 1.386 . S
C3783 C3787 1.393 . S
C3784 H3773 0.950 . S
C3784 C3782 1.391 . S
C3784 C3785 1.400 . S
C3785 C3779 1.491 . S
C3785 C3784 1.400 . S
C3785 C3786 1.398 . S
C3786 H3774 0.950 . S
C3786 C3785 1.398 . S
C3786 C3787 1.391 . S
C3787 H3775 0.950 . S
C3787 C3783 1.393 . S
C3787 C3786 1.391 . S
H3788 C3796 0.950 . S
H3789 C3801 0.950 . S
H3790 C3798 0.950 . S
H3791 C3800 0.950 . S
H3792 C3802 0.950 . S
H3793 C3804 0.950 . S
H3794 C3806 0.950 . S
H3795 C3807 0.950 . S
C3796 H3788 0.950 . S
C3796 C3797 1.386 . S
C3796 C3798 1.391 . S
C3797 C3796 1.386 . S
C3797 C3801 1.393 . S
C3798 H3790 0.950 . S
C3798 C3796 1.391 . S
C3798 C3799 1.400 . S
C3799 C3798 1.400 . S
C3799 C3800 1.398 . S
C3799 C3805 1.491 . S
C3800 H3791 0.950 . S
C3800 C3799 1.398 . S
C3800 C3801 1.391 . S
C3801 H3789 0.950 . S
C3801 C3797 1.393 . S
C3801 C3800 1.391 . S
C3802 H3792 0.950 . S
C3802 C3803 1.386 . S
C3802 C3804 1.391 . S
C3803 C3802 1.386 . S
C3803 C3807 1.393 . S
C3804 H3793 0.950 . S
C3804 C3802 1.391 . S
C3804 C3805 1.400 . S
C3805 C3799 1.491 . S
C3805 C3804 1.400 . S
C3805 C3806 1.398 . S
C3806 H3794 0.950 . S
C3806 C3805 1.398 . S
C3806 C3807 1.391 . S
C3807 H3795 0.950 . S
C3807 C3803 1.393 . S
C3807 C3806 1.391 . S
H3808 C3816 0.950 . S
H3809 C3821 0.950 . S
H3810 C3818 0.950 . S
H3811 C3820 0.950 . S
H3812 C3822 0.950 . S
H3813 C3824 0.950 . S
H3814 C3826 0.950 . S
H3815 C3827 0.950 . S
C3816 H3808 0.950 . S
C3816 C3817 1.386 . S
C3816 C3818 1.391 . S
C3817 C3816 1.386 . S
C3817 C3821 1.393 . S
C3818 H3810 0.950 . S
C3818 C3816 1.391 . S
C3818 C3819 1.400 . S
C3819 C3818 1.400 . S
C3819 C3820 1.398 . S
C3819 C3825 1.491 . S
C3820 H3811 0.950 . S
C3820 C3819 1.398 . S
C3820 C3821 1.391 . S
C3821 H3809 0.950 . S
C3821 C3817 1.393 . S
C3821 C3820 1.391 . S
C3822 H3812 0.950 . S
C3822 C3823 1.386 . S
C3822 C3824 1.391 . S
C3823 C3822 1.386 . S
C3823 C3827 1.393 . S
C3824 H3813 0.950 . S
C3824 C3822 1.391 . S
C3824 C3825 1.400 . S
C3825 C3819 1.491 . S
C3825 C3824 1.400 . S
C3825 C3826 1.398 . S
C3826 H3814 0.950 . S
C3826 C3825 1.398 . S
C3826 C3827 1.391 . S
C3827 H3815 0.950 . S
C3827 C3823 1.393 . S
C3827 C3826 1.391 . S
H3828 C3836 0.950 . S
H3829 C3841 0.950 . S
H3830 C3838 0.950 . S
H3831 C3840 0.950 . S
H3832 C3842 0.950 . S
H3833 C3844 0.950 . S
H3834 C3846 0.950 . S
H3835 C3847 0.950 . S
C3836 H3828 0.950 . S
C3836 C3837 1.386 . S
C3836 C3838 1.391 . S
C3837 C3836 1.386 . S
C3837 C3841 1.393 . S
C3838 H3830 0.950 . S
C3838 C3836 1.391 . S
C3838 C3839 1.400 . S
C3839 C3838 1.400 . S
C3839 C3840 1.398 . S
C3839 C3845 1.491 . S
C3840 H3831 0.950 . S
C3840 C3839 1.398 . S
C3840 C3841 1.391 . S
C3841 H3829 0.950 . S
C3841 C3837 1.393 . S
C3841 C3840 1.391 . S
C3842 H3832 0.950 . S
C3842 C3843 1.386 . S
C3842 C3844 1.391 . S
C3843 C3842 1.386 . S
C3843 C3847 1.393 . S
C3844 H3833 0.950 . S
C3844 C3842 1.391 . S
C3844 C3845 1.400 . S
C3845 C3839 1.491 . S
C3845 C3844 1.400 . S
C3845 C3846 1.398 . S
C3846 H3834 0.950 . S
C3846 C3845 1.398 . S
C3846 C3847 1.391 . S
C3847 H3835 0.950 . S
C3847 C3843 1.393 . S
C3847 C3846 1.391 . S
H3848 C3856 0.950 . S
H3849 C3861 0.950 . S
H3850 C3858 0.950 . S
H3851 C3860 0.950 . S
H3852 C3862 0.950 . S
H3853 C3864 0.950 . S
H3854 C3866 0.950 . S
H3855 C3867 0.950 . S
C3856 H3848 0.950 . S
C3856 C3857 1.386 . S
C3856 C3858 1.391 . S
C3857 C3856 1.386 . S
C3857 C3861 1.393 . S
C3858 H3850 0.950 . S
C3858 C3856 1.391 . S
C3858 C3859 1.400 . S
C3859 C3858 1.400 . S
C3859 C3860 1.398 . S
C3859 C3865 1.491 . S
C3860 H3851 0.950 . S
C3860 C3859 1.398 . S
C3860 C3861 1.391 . S
C3861 H3849 0.950 . S
C3861 C3857 1.393 . S
C3861 C3860 1.391 . S
C3862 H3852 0.950 . S
C3862 C3863 1.386 . S
C3862 C3864 1.391 . S
C3863 C3862 1.386 . S
C3863 C3867 1.393 . S
C3864 H3853 0.950 . S
C3864 C3862 1.391 . S
C3864 C3865 1.400 . S
C3865 C3859 1.491 . S
C3865 C3864 1.400 . S
C3865 C3866 1.398 . S
C3866 H3854 0.950 . S
C3866 C3865 1.398 . S
C3866 C3867 1.391 . S
C3867 H3855 0.950 . S
C3867 C3863 1.393 . S
C3867 C3866 1.391 . S
H3868 C3876 0.950 . S
H3869 C3881 0.950 . S
H3870 C3878 0.950 . S
H3871 C3880 0.950 . S
H3872 C3882 0.950 . S
H3873 C3884 0.950 . S
H3874 C3886 0.950 . S
H3875 C3887 0.950 . S
C3876 H3868 0.950 . S
C3876 C3877 1.386 . S
C3876 C3878 1.391 . S
C3877 C3876 1.386 . S
C3877 C3881 1.393 . S
C3878 H3870 0.950 . S
C3878 C3876 1.391 . S
C3878 C3879 1.400 . S
C3879 C3878 1.400 . S
C3879 C3880 1.398 . S
C3879 C3885 1.491 . S
C3880 H3871 0.950 . S
C3880 C3879 1.398 . S
C3880 C3881 1.391 . S
C3881 H3869 0.950 . S
C3881 C3877 1.393 . S
C3881 C3880 1.391 . S
C3882 H3872 0.950 . S
C3882 C3883 1.386 . S
C3882 C3884 1.391 . S
C3883 C3882 1.386 . S
C3883 C3887 1.393 . S
C3884 H3873 0.950 . S
C3884 C3882 1.391 . S
C3884 C3885 1.400 . S
C3885 C3879 1.491 . S
C3885 C3884 1.400 . S
C3885 C3886 1.398 . S
C3886 H3874 0.950 . S
C3886 C3885 1.398 . S
C3886 C3887 1.391 . S
C3887 H3875 0.950 . S
C3887 C3883 1.393 . S
C3887 C3886 1.391 . S
H3888 C3896 0.950 . S
H3889 C3901 0.950 . S
H3890 C3898 0.950 . S
H3891 C3900 0.950 . S
H3892 C3902 0.950 . S
H3893 C3904 0.950 . S
H3894 C3906 0.950 . S
H3895 C3907 0.950 . S
C3896 H3888 0.950 . S
C3896 C3897 1.386 . S
C3896 C3898 1.391 . S
C3897 C3896 1.386 . S
C3897 C3901 1.393 . S
C3898 H3890 0.950 . S
C3898 C3896 1.391 . S
C3898 C3899 1.400 . S
C3899 C3898 1.400 . S
C3899 C3900 1.398 . S
C3899 C3905 1.491 . S
C3900 H3891 0.950 . S
C3900 C3899 1.398 . S
C3900 C3901 1.391 . S
C3901 H3889 0.950 . S
C3901 C3897 1.393 . S
C3901 C3900 1.391 . S
C3902 H3892 0.950 . S
C3902 C3903 1.386 . S
C3902 C3904 1.391 . S
C3903 C3902 1.386 . S
C3903 C3907 1.393 . S
C3904 H3893 0.950 . S
C3904 C3902 1.391 . S
C3904 C3905 1.400 . S
C3905 C3899 1.491 . S
C3905 C3904 1.400 . S
C3905 C3906 1.398 . S
C3906 H3894 0.950 . S
C3906 C3905 1.398 . S
C3906 C3907 1.391 . S
C3907 H3895 0.950 . S
C3907 C3903 1.393 . S
C3907 C3906 1.391 . S
H3908 C3916 0.950 . S
H3909 C3921 0.950 . S
H3910 C3918 0.950 . S
H3911 C3920 0.950 . S
H3912 C3922 0.950 . S
H3913 C3924 0.950 . S
H3914 C3926 0.950 . S
H3915 C3927 0.950 . S
C3916 H3908 0.950 . S
C3916 C3917 1.386 . S
C3916 C3918 1.391 . S
C3917 C3916 1.386 . S
C3917 C3921 1.393 . S
C3918 H3910 0.950 . S
C3918 C3916 1.391 . S
C3918 C3919 1.400 . S
C3919 C3918 1.400 . S
C3919 C3920 1.398 . S
C3919 C3925 1.491 . S
C3920 H3911 0.950 . S
C3920 C3919 1.398 . S
C3920 C3921 1.391 . S
C3921 H3909 0.950 . S
C3921 C3917 1.393 . S
C3921 C3920 1.391 . S
C3922 H3912 0.950 . S
C3922 C3923 1.386 . S
C3922 C3924 1.391 . S
C3923 C3922 1.386 . S
C3923 C3927 1.393 . S
C3924 H3913 0.950 . S
C3924 C3922 1.391 . S
C3924 C3925 1.400 . S
C3925 C3919 1.491 . S
C3925 C3924 1.400 . S
C3925 C3926 1.398 . S
C3926 H3914 0.950 . S
C3926 C3925 1.398 . S
C3926 C3927 1.391 . S
C3927 H3915 0.950 . S
C3927 C3923 1.393 . S
C3927 C3926 1.391 . S
H3928 C3936 0.950 . S
H3929 C3941 0.950 . S
H3930 C3938 0.950 . S
H3931 C3940 0.950 . S
H3932 C3942 0.950 . S
H3933 C3944 0.950 . S
H3934 C3946 0.950 . S
H3935 C3947 0.950 . S
C3936 H3928 0.950 . S
C3936 C3937 1.386 . S
C3936 C3938 1.391 . S
C3937 C3936 1.386 . S
C3937 C3941 1.393 . S
C3938 H3930 0.950 . S
C3938 C3936 1.391 . S
C3938 C3939 1.400 . S
C3939 C3938 1.400 . S
C3939 C3940 1.398 . S
C3939 C3945 1.491 . S
C3940 H3931 0.950 . S
C3940 C3939 1.398 . S
C3940 C3941 1.391 . S
C3941 H3929 0.950 . S
C3941 C3937 1.393 . S
C3941 C3940 1.391 . S
C3942 H3932 0.950 . S
C3942 C3943 1.386 . S
C3942 C3944 1.391 . S
C3943 C3942 1.386 . S
C3943 C3947 1.393 . S
C3944 H3933 0.950 . S
C3944 C3942 1.391 . S
C3944 C3945 1.400 . S
C3945 C3939 1.491 . S
C3945 C3944 1.400 . S
C3945 C3946 1.398 . S
C3946 H3934 0.950 . S
C3946 C3945 1.398 . S
C3946 C3947 1.391 . S
C3947 H3935 0.950 . S
C3947 C3943 1.393 . S
C3947 C3946 1.391 . S
H3948 C3956 0.950 . S
H3949 C3961 0.950 . S
H3950 C3958 0.950 . S
H3951 C3960 0.950 . S
H3952 C3962 0.950 . S
H3953 C3964 0.950 . S
H3954 C3966 0.950 . S
H3955 C3967 0.950 . S
C3956 H3948 0.950 . S
C3956 C3957 1.386 . S
C3956 C3958 1.391 . S
C3957 C3956 1.386 . S
C3957 C3961 1.393 . S
C3958 H3950 0.950 . S
C3958 C3956 1.391 . S
C3958 C3959 1.400 . S
C3959 C3958 1.400 . S
C3959 C3960 1.398 . S
C3959 C3965 1.491 . S
C3960 H3951 0.950 . S
C3960 C3959 1.398 . S
C3960 C3961 1.391 . S
C3961 H3949 0.950 . S
C3961 C3957 1.393 . S
C3961 C3960 1.391 . S
C3962 H3952 0.950 . S
C3962 C3963 1.386 . S
C3962 C3964 1.391 . S
C3963 C3962 1.386 . S
C3963 C3967 1.393 . S
C3964 H3953 0.950 . S
C3964 C3962 1.391 . S
C3964 C3965 1.400 . S
C3965 C3959 1.491 . S
C3965 C3964 1.400 . S
C3965 C3966 1.398 . S
C3966 H3954 0.950 . S
C3966 C3965 1.398 . S
C3966 C3967 1.391 . S
C3967 H3955 0.950 . S
C3967 C3963 1.393 . S
C3967 C3966 1.391 . S
H3968 C3976 0.950 . S
H3969 C3981 0.950 . S
H3970 C3978 0.950 . S
H3971 C3980 0.950 . S
H3972 C3982 0.950 . S
H3973 C3984 0.950 . S
H3974 C3986 0.950 . S
H3975 C3987 0.950 . S
C3976 H3968 0.950 . S
C3976 C3977 1.386 . S
C3976 C3978 1.391 . S
C3977 C3976 1.386 . S
C3977 C3981 1.393 . S
C3978 H3970 0.950 . S
C3978 C3976 1.391 . S
C3978 C3979 1.400 . S
C3979 C3978 1.400 . S
C3979 C3980 1.398 . S
C3979 C3985 1.491 . S
C3980 H3971 0.950 . S
C3980 C3979 1.398 . S
C3980 C3981 1.391 . S
C3981 H3969 0.950 . S
C3981 C3977 1.393 . S
C3981 C3980 1.391 . S
C3982 H3972 0.950 . S
C3982 C3983 1.386 . S
C3982 C3984 1.391 . S
C3983 C3982 1.386 . S
C3983 C3987 1.393 . S
C3984 H3973 0.950 . S
C3984 C3982 1.391 . S
C3984 C3985 1.400 . S
C3985 C3979 1.491 . S
C3985 C3984 1.400 . S
C3985 C3986 1.398 . S
C3986 H3974 0.950 . S
C3986 C3985 1.398 . S
C3986 C3987 1.391 . S
C3987 H3975 0.950 . S
C3987 C3983 1.393 . S
C3987 C3986 1.391 . S
H3988 C3996 0.950 . S
H3989 C4001 0.950 . S
H3990 C3998 0.950 . S
H3991 C4000 0.950 . S
H3992 C4002 0.950 . S
H3993 C4004 0.950 . S
H3994 C4006 0.950 . S
H3995 C4007 0.950 . S
C3996 H3988 0.950 . S
C3996 C3997 1.386 . S
C3996 C3998 1.391 . S
C3997 C3996 1.386 . S
C3997 C4001 1.393 . S
C3998 H3990 0.950 . S
C3998 C3996 1.391 . S
C3998 C3999 1.400 . S
C3999 C3998 1.400 . S
C3999 C4000 1.398 . S
C3999 C4005 1.491 . S
C4000 H3991 0.950 . S
C4000 C3999 1.398 . S
C4000 C4001 1.391 . S
C4001 H3989 0.950 . S
C4001 C3997 1.393 . S
C4001 C4000 1.391 . S
C4002 H3992 0.950 . S
C4002 C4003 1.386 . S
C4002 C4004 1.391 . S
C4003 C4002 1.386 . S
C4003 C4007 1.393 . S
C4004 H3993 0.950 . S
C4004 C4002 1.391 . S
C4004 C4005 1.400 . S
C4005 C3999 1.491 . S
C4005 C4004 1.400 . S
C4005 C4006 1.398 . S
C4006 H3994 0.950 . S
C4006 C4005 1.398 . S
C4006 C4007 1.391 . S
C4007 H3995 0.950 . S
C4007 C4003 1.393 . S
C4007 C4006 1.391 . S
H4008 C4016 0.950 . S
H4009 C4021 0.950 . S
H4010 C4018 0.950 . S
H4011 C4020 0.950 . S
H4012 C4022 0.950 . S
H4013 C4024 0.950 . S
H4014 C4026 0.950 . S
H4015 C4027 0.950 . S
C4016 H4008 0.950 . S
C4016 C4017 1.386 . S
C4016 C4018 1.391 . S
C4017 C4016 1.386 . S
C4017 C4021 1.393 . S
C4018 H4010 0.950 . S
C4018 C4016 1.391 . S
C4018 C4019 1.400 . S
C4019 C4018 1.400 . S
C4019 C4020 1.398 . S
C4019 C4025 1.491 . S
C4020 H4011 0.950 . S
C4020 C4019 1.398 . S
C4020 C4021 1.391 . S
C4021 H4009 0.950 . S
C4021 C4017 1.393 . S
C4021 C4020 1.391 . S
C4022 H4012 0.950 . S
C4022 C4023 1.386 . S
C4022 C4024 1.391 . S
C4023 C4022 1.386 . S
C4023 C4027 1.393 . S
C4024 H4013 0.950 . S
C4024 C4022 1.391 . S
C4024 C4025 1.400 . S
C4025 C4019 1.491 . S
C4025 C4024 1.400 . S
C4025 C4026 1.398 . S
C4026 H4014 0.950 . S
C4026 C4025 1.398 . S
C4026 C4027 1.391 . S
C4027 H4015 0.950 . S
C4027 C4023 1.393 . S
C4027 C4026 1.391 . S
H4028 C4036 0.950 . S
H4029 C4041 0.950 . S
H4030 C4038 0.950 . S
H4031 C4040 0.950 . S
H4032 C4042 0.950 . S
H4033 C4044 0.950 . S
H4034 C4046 0.950 . S
H4035 C4047 0.950 . S
C4036 H4028 0.950 . S
C4036 C4037 1.386 . S
C4036 C4038 1.391 . S
C4037 C4036 1.386 . S
C4037 C4041 1.393 . S
C4038 H4030 0.950 . S
C4038 C4036 1.391 . S
C4038 C4039 1.400 . S
C4039 C4038 1.400 . S
C4039 C4040 1.398 . S
C4039 C4045 1.491 . S
C4040 H4031 0.950 . S
C4040 C4039 1.398 . S
C4040 C4041 1.391 . S
C4041 H4029 0.950 . S
C4041 C4037 1.393 . S
C4041 C4040 1.391 . S
C4042 H4032 0.950 . S
C4042 C4043 1.386 . S
C4042 C4044 1.391 . S
C4043 C4042 1.386 . S
C4043 C4047 1.393 . S
C4044 H4033 0.950 . S
C4044 C4042 1.391 . S
C4044 C4045 1.400 . S
C4045 C4039 1.491 . S
C4045 C4044 1.400 . S
C4045 C4046 1.398 . S
C4046 H4034 0.950 . S
C4046 C4045 1.398 . S
C4046 C4047 1.391 . S
C4047 H4035 0.950 . S
C4047 C4043 1.393 . S
C4047 C4046 1.391 . S
H4048 C4056 0.950 . S
H4049 C4061 0.950 . S
H4050 C4058 0.950 . S
H4051 C4060 0.950 . S
H4052 C4062 0.950 . S
H4053 C4064 0.950 . S
H4054 C4066 0.950 . S
H4055 C4067 0.950 . S
C4056 H4048 0.950 . S
C4056 C4057 1.386 . S
C4056 C4058 1.391 . S
C4057 C4056 1.386 . S
C4057 C4061 1.393 . S
C4058 H4050 0.950 . S
C4058 C4056 1.391 . S
C4058 C4059 1.400 . S
C4059 C4058 1.400 . S
C4059 C4060 1.398 . S
C4059 C4065 1.491 . S
C4060 H4051 0.950 . S
C4060 C4059 1.398 . S
C4060 C4061 1.391 . S
C4061 H4049 0.950 . S
C4061 C4057 1.393 . S
C4061 C4060 1.391 . S
C4062 H4052 0.950 . S
C4062 C4063 1.386 . S
C4062 C4064 1.391 . S
C4063 C4062 1.386 . S
C4063 C4067 1.393 . S
C4064 H4053 0.950 . S
C4064 C4062 1.391 . S
C4064 C4065 1.400 . S
C4065 C4059 1.491 . S
C4065 C4064 1.400 . S
C4065 C4066 1.398 . S
C4066 H4054 0.950 . S
C4066 C4065 1.398 . S
C4066 C4067 1.391 . S
C4067 H4055 0.950 . S
C4067 C4063 1.393 . S
C4067 C4066 1.391 . S
H4068 C4076 0.950 . S
H4069 C4081 0.950 . S
H4070 C4078 0.950 . S
H4071 C4080 0.950 . S
H4072 C4082 0.950 . S
H4073 C4084 0.950 . S
H4074 C4086 0.950 . S
H4075 C4087 0.950 . S
C4076 H4068 0.950 . S
C4076 C4077 1.386 . S
C4076 C4078 1.391 . S
C4077 C4076 1.386 . S
C4077 C4081 1.393 . S
C4078 H4070 0.950 . S
C4078 C4076 1.391 . S
C4078 C4079 1.400 . S
C4079 C4078 1.400 . S
C4079 C4080 1.398 . S
C4079 C4085 1.491 . S
C4080 H4071 0.950 . S
C4080 C4079 1.398 . S
C4080 C4081 1.391 . S
C4081 H4069 0.950 . S
C4081 C4077 1.393 . S
C4081 C4080 1.391 . S
C4082 H4072 0.950 . S
C4082 C4083 1.386 . S
C4082 C4084 1.391 . S
C4083 C4082 1.386 . S
C4083 C4087 1.393 . S
C4084 H4073 0.950 . S
C4084 C4082 1.391 . S
C4084 C4085 1.400 . S
C4085 C4079 1.491 . S
C4085 C4084 1.400 . S
C4085 C4086 1.398 . S
C4086 H4074 0.950 . S
C4086 C4085 1.398 . S
C4086 C4087 1.391 . S
C4087 H4075 0.950 . S
C4087 C4083 1.393 . S
C4087 C4086 1.391 . S
H4088 C4096 0.950 . S
H4089 C4101 0.950 . S
H4090 C4098 0.950 . S
H4091 C4100 0.950 . S
H4092 C4102 0.950 . S
H4093 C4104 0.950 . S
H4094 C4106 0.950 . S
H4095 C4107 0.950 . S
C4096 H4088 0.950 . S
C4096 C4097 1.386 . S
C4096 C4098 1.391 . S
C4097 C4096 1.386 . S
C4097 C4101 1.393 . S
C4098 H4090 0.950 . S
C4098 C4096 1.391 . S
C4098 C4099 1.400 . S
C4099 C4098 1.400 . S
C4099 C4100 1.398 . S
C4099 C4105 1.491 . S
C4100 H4091 0.950 . S
C4100 C4099 1.398 . S
C4100 C4101 1.391 . S
C4101 H4089 0.950 . S
C4101 C4097 1.393 . S
C4101 C4100 1.391 . S
C4102 H4092 0.950 . S
C4102 C4103 1.386 . S
C4102 C4104 1.391 . S
C4103 C4102 1.386 . S
C4103 C4107 1.393 . S
C4104 H4093 0.950 . S
C4104 C4102 1.391 . S
C4104 C4105 1.400 . S
C4105 C4099 1.491 . S
C4105 C4104 1.400 . S
C4105 C4106 1.398 . S
C4106 H4094 0.950 . S
C4106 C4105 1.398 . S
C4106 C4107 1.391 . S
C4107 H4095 0.950 . S
C4107 C4103 1.393 . S
C4107 C4106 1.391 . S
H4108 C4116 0.950 . S
H4109 C4121 0.950 . S
H4110 C4118 0.950 . S
H4111 C4120 0.950 . S
H4112 C4122 0.950 . S
H4113 C4124 0.950 . S
H4114 C4126 0.950 . S
H4115 C4127 0.950 . S
C4116 H4108 0.950 . S
C4116 C4117 1.386 . S
C4116 C4118 1.391 . S
C4117 C4116 1.386 . S
C4117 C4121 1.393 . S
C4118 H4110 0.950 . S
C4118 C4116 1.391 . S
C4118 C4119 1.400 . S
C4119 C4118 1.400 . S
C4119 C4120 1.398 . S
C4119 C4125 1.491 . S
C4120 H4111 0.950 . S
C4120 C4119 1.398 . S
C4120 C4121 1.391 . S
C4121 H4109 0.950 . S
C4121 C4117 1.393 . S
C4121 C4120 1.391 . S
C4122 H4112 0.950 . S
C4122 C4123 1.386 . S
C4122 C4124 1.391 . S
C4123 C4122 1.386 . S
C4123 C4127 1.393 . S
C4124 H4113 0.950 . S
C4124 C4122 1.391 . S
C4124 C4125 1.400 . S
C4125 C4119 1.491 . S
C4125 C4124 1.400 . S
C4125 C4126 1.398 . S
C4126 H4114 0.950 . S
C4126 C4125 1.398 . S
C4126 C4127 1.391 . S
C4127 H4115 0.950 . S
C4127 C4123 1.393 . S
C4127 C4126 1.391 . S
H4128 C4136 0.950 . S
H4129 C4141 0.950 . S
H4130 C4138 0.950 . S
H4131 C4140 0.950 . S
H4132 C4142 0.950 . S
H4133 C4144 0.950 . S
H4134 C4146 0.950 . S
H4135 C4147 0.950 . S
C4136 H4128 0.950 . S
C4136 C4137 1.386 . S
C4136 C4138 1.391 . S
C4137 C4136 1.386 . S
C4137 C4141 1.393 . S
C4138 H4130 0.950 . S
C4138 C4136 1.391 . S
C4138 C4139 1.400 . S
C4139 C4138 1.400 . S
C4139 C4140 1.398 . S
C4139 C4145 1.491 . S
C4140 H4131 0.950 . S
C4140 C4139 1.398 . S
C4140 C4141 1.391 . S
C4141 H4129 0.950 . S
C4141 C4137 1.393 . S
C4141 C4140 1.391 . S
C4142 H4132 0.950 . S
C4142 C4143 1.386 . S
C4142 C4144 1.391 . S
C4143 C4142 1.386 . S
C4143 C4147 1.393 . S
C4144 H4133 0.950 . S
C4144 C4142 1.391 . S
C4144 C4145 1.400 . S
C4145 C4139 1.491 . S
C4145 C4144 1.400 . S
C4145 C4146 1.398 . S
C4146 H4134 0.950 . S
C4146 C4145 1.398 . S
C4146 C4147 1.391 . S
C4147 H4135 0.950 . S
C4147 C4143 1.393 . S
C4147 C4146 1.391 . S
H4148 C4156 0.950 . S
H4149 C4161 0.950 . S
H4150 C4158 0.950 . S
H4151 C4160 0.950 . S
H4152 C4162 0.950 . S
H4153 C4164 0.950 . S
H4154 C4166 0.950 . S
H4155 C4167 0.950 . S
C4156 H4148 0.950 . S
C4156 C4157 1.386 . S
C4156 C4158 1.391 . S
C4157 C4156 1.386 . S
C4157 C4161 1.393 . S
C4158 H4150 0.950 . S
C4158 C4156 1.391 . S
C4158 C4159 1.400 . S
C4159 C4158 1.400 . S
C4159 C4160 1.398 . S
C4159 C4165 1.491 . S
C4160 H4151 0.950 . S
C4160 C4159 1.398 . S
C4160 C4161 1.391 . S
C4161 H4149 0.950 . S
C4161 C4157 1.393 . S
C4161 C4160 1.391 . S
C4162 H4152 0.950 . S
C4162 C4163 1.386 . S
C4162 C4164 1.391 . S
C4163 C4162 1.386 . S
C4163 C4167 1.393 . S
C4164 H4153 0.950 . S
C4164 C4162 1.391 . S
C4164 C4165 1.400 . S
C4165 C4159 1.491 . S
C4165 C4164 1.400 . S
C4165 C4166 1.398 . S
C4166 H4154 0.950 . S
C4166 C4165 1.398 . S
C4166 C4167 1.391 . S
C4167 H4155 0.950 . S
C4167 C4163 1.393 . S
C4167 C4166 1.391 . S
H4168 C4176 0.950 . S
H4169 C4181 0.950 . S
H4170 C4178 0.950 . S
H4171 C4180 0.950 . S
H4172 C4182 0.950 . S
H4173 C4184 0.950 . S
H4174 C4186 0.950 . S
H4175 C4187 0.950 . S
C4176 H4168 0.950 . S
C4176 C4177 1.386 . S
C4176 C4178 1.391 . S
C4177 C4176 1.386 . S
C4177 C4181 1.393 . S
C4178 H4170 0.950 . S
C4178 C4176 1.391 . S
C4178 C4179 1.400 . S
C4179 C4178 1.400 . S
C4179 C4180 1.398 . S
C4179 C4185 1.491 . S
C4180 H4171 0.950 . S
C4180 C4179 1.398 . S
C4180 C4181 1.391 . S
C4181 H4169 0.950 . S
C4181 C4177 1.393 . S
C4181 C4180 1.391 . S
C4182 H4172 0.950 . S
C4182 C4183 1.386 . S
C4182 C4184 1.391 . S
C4183 C4182 1.386 . S
C4183 C4187 1.393 . S
C4184 H4173 0.950 . S
C4184 C4182 1.391 . S
C4184 C4185 1.400 . S
C4185 C4179 1.491 . S
C4185 C4184 1.400 . S
C4185 C4186 1.398 . S
C4186 H4174 0.950 . S
C4186 C4185 1.398 . S
C4186 C4187 1.391 . S
C4187 H4175 0.950 . S
C4187 C4183 1.393 . S
C4187 C4186 1.391 . S
H4188 C4196 0.950 . S
H4189 C4201 0.950 . S
H4190 C4198 0.950 . S
H4191 C4200 0.950 . S
H4192 C4202 0.950 . S
H4193 C4204 0.950 . S
H4194 C4206 0.950 . S
H4195 C4207 0.950 . S
C4196 H4188 0.950 . S
C4196 C4197 1.386 . S
C4196 C4198 1.391 . S
C4197 C4196 1.386 . S
C4197 C4201 1.393 . S
C4198 H4190 0.950 . S
C4198 C4196 1.391 . S
C4198 C4199 1.400 . S
C4199 C4198 1.400 . S
C4199 C4200 1.398 . S
C4199 C4205 1.491 . S
C4200 H4191 0.950 . S
C4200 C4199 1.398 . S
C4200 C4201 1.391 . S
C4201 H4189 0.950 . S
C4201 C4197 1.393 . S
C4201 C4200 1.391 . S
C4202 H4192 0.950 . S
C4202 C4203 1.386 . S
C4202 C4204 1.391 . S
C4203 C4202 1.386 . S
C4203 C4207 1.393 . S
C4204 H4193 0.950 . S
C4204 C4202 1.391 . S
C4204 C4205 1.400 . S
C4205 C4199 1.491 . S
C4205 C4204 1.400 . S
C4205 C4206 1.398 . S
C4206 H4194 0.950 . S
C4206 C4205 1.398 . S
C4206 C4207 1.391 . S
C4207 H4195 0.950 . S
C4207 C4203 1.393 . S
C4207 C4206 1.391 . S
H4208 C4216 0.950 . S
H4209 C4221 0.950 . S
H4210 C4218 0.950 . S
H4211 C4220 0.950 . S
H4212 C4222 0.950 . S
H4213 C4224 0.950 . S
H4214 C4226 0.950 . S
H4215 C4227 0.950 . S
C4216 H4208 0.950 . S
C4216 C4217 1.386 . S
C4216 C4218 1.391 . S
C4217 C4216 1.386 . S
C4217 C4221 1.393 . S
C4218 H4210 0.950 . S
C4218 C4216 1.391 . S
C4218 C4219 1.400 . S
C4219 C4218 1.400 . S
C4219 C4220 1.398 . S
C4219 C4225 1.491 . S
C4220 H4211 0.950 . S
C4220 C4219 1.398 . S
C4220 C4221 1.391 . S
C4221 H4209 0.950 . S
C4221 C4217 1.393 . S
C4221 C4220 1.391 . S
C4222 H4212 0.950 . S
C4222 C4223 1.386 . S
C4222 C4224 1.391 . S
C4223 C4222 1.386 . S
C4223 C4227 1.393 . S
C4224 H4213 0.950 . S
C4224 C4222 1.391 . S
C4224 C4225 1.400 . S
C4225 C4219 1.491 . S
C4225 C4224 1.400 . S
C4225 C4226 1.398 . S
C4226 H4214 0.950 . S
C4226 C4225 1.398 . S
C4226 C4227 1.391 . S
C4227 H4215 0.950 . S
C4227 C4223 1.393 . S
C4227 C4226 1.391 . S
H4228 C4236 0.950 . S
H4229 C4241 0.950 . S
H4230 C4238 0.950 . S
H4231 C4240 0.950 . S
H4232 C4242 0.950 . S
H4233 C4244 0.950 . S
H4234 C4246 0.950 . S
H4235 C4247 0.950 . S
C4236 H4228 0.950 . S
C4236 C4237 1.386 . S
C4236 C4238 1.391 . S
C4237 C4236 1.386 . S
C4237 C4241 1.393 . S
C4238 H4230 0.950 . S
C4238 C4236 1.391 . S
C4238 C4239 1.400 . S
C4239 C4238 1.400 . S
C4239 C4240 1.398 . S
C4239 C4245 1.491 . S
C4240 H4231 0.950 . S
C4240 C4239 1.398 . S
C4240 C4241 1.391 . S
C4241 H4229 0.950 . S
C4241 C4237 1.393 . S
C4241 C4240 1.391 . S
C4242 H4232 0.950 . S
C4242 C4243 1.386 . S
C4242 C4244 1.391 . S
C4243 C4242 1.386 . S
C4243 C4247 1.393 . S
C4244 H4233 0.950 . S
C4244 C4242 1.391 . S
C4244 C4245 1.400 . S
C4245 C4239 1.491 . S
C4245 C4244 1.400 . S
C4245 C4246 1.398 . S
C4246 H4234 0.950 . S
C4246 C4245 1.398 . S
C4246 C4247 1.391 . S
C4247 H4235 0.950 . S
C4247 C4243 1.393 . S
C4247 C4246 1.391 . S
H4248 C4256 0.950 . S
H4249 C4261 0.950 . S
H4250 C4258 0.950 . S
H4251 C4260 0.950 . S
H4252 C4262 0.950 . S
H4253 C4264 0.950 . S
H4254 C4266 0.950 . S
H4255 C4267 0.950 . S
C4256 H4248 0.950 . S
C4256 C4257 1.386 . S
C4256 C4258 1.391 . S
C4257 C4256 1.386 . S
C4257 C4261 1.393 . S
C4258 H4250 0.950 . S
C4258 C4256 1.391 . S
C4258 C4259 1.400 . S
C4259 C4258 1.400 . S
C4259 C4260 1.398 . S
C4259 C4265 1.491 . S
C4260 H4251 0.950 . S
C4260 C4259 1.398 . S
C4260 C4261 1.391 . S
C4261 H4249 0.950 . S
C4261 C4257 1.393 . S
C4261 C4260 1.391 . S
C4262 H4252 0.950 . S
C4262 C4263 1.386 . S
C4262 C4264 1.391 . S
C4263 C4262 1.386 . S
C4263 C4267 1.393 . S
C4264 H4253 0.950 . S
C4264 C4262 1.391 . S
C4264 C4265 1.400 . S
C4265 C4259 1.491 . S
C4265 C4264 1.400 . S
C4265 C4266 1.398 . S
C4266 H4254 0.950 . S
C4266 C4265 1.398 . S
C4266 C4267 1.391 . S
C4267 H4255 0.950 . S
C4267 C4263 1.393 . S
C4267 C4266 1.391 . S
H4268 C4276 0.950 . S
H4269 C4281 0.950 . S
H4270 C4278 0.950 . S
H4271 C4280 0.950 . S
H4272 C4282 0.950 . S
H4273 C4284 0.950 . S
H4274 C4286 0.950 . S
H4275 C4287 0.950 . S
C4276 H4268 0.950 . S
C4276 C4277 1.386 . S
C4276 C4278 1.391 . S
C4277 C4276 1.386 . S
C4277 C4281 1.393 . S
C4278 H4270 0.950 . S
C4278 C4276 1.391 . S
C4278 C4279 1.400 . S
C4279 C4278 1.400 . S
C4279 C4280 1.398 . S
C4279 C4285 1.491 . S
C4280 H4271 0.950 . S
C4280 C4279 1.398 . S
C4280 C4281 1.391 . S
C4281 H4269 0.950 . S
C4281 C4277 1.393 . S
C4281 C4280 1.391 . S
C4282 H4272 0.950 . S
C4282 C4283 1.386 . S
C4282 C4284 1.391 . S
C4283 C4282 1.386 . S
C4283 C4287 1.393 . S
C4284 H4273 0.950 . S
C4284 C4282 1.391 . S
C4284 C4285 1.400 . S
C4285 C4279 1.491 . S
C4285 C4284 1.400 . S
C4285 C4286 1.398 . S
C4286 H4274 0.950 . S
C4286 C4285 1.398 . S
C4286 C4287 1.391 . S
C4287 H4275 0.950 . S
C4287 C4283 1.393 . S
C4287 C4286 1.391 . S
H4288 C4296 0.950 . S
H4289 C4301 0.950 . S
H4290 C4298 0.950 . S
H4291 C4300 0.950 . S
H4292 C4302 0.950 . S
H4293 C4304 0.950 . S
H4294 C4306 0.950 . S
H4295 C4307 0.950 . S
C4296 H4288 0.950 . S
C4296 C4297 1.386 . S
C4296 C4298 1.391 . S
C4297 C4296 1.386 . S
C4297 C4301 1.393 . S
C4298 H4290 0.950 . S
C4298 C4296 1.391 . S
C4298 C4299 1.400 . S
C4299 C4298 1.400 . S
C4299 C4300 1.398 . S
C4299 C4305 1.491 . S
C4300 H4291 0.950 . S
C4300 C4299 1.398 . S
C4300 C4301 1.391 . S
C4301 H4289 0.950 . S
C4301 C4297 1.393 . S
C4301 C4300 1.391 . S
C4302 H4292 0.950 . S
C4302 C4303 1.386 . S
C4302 C4304 1.391 . S
C4303 C4302 1.386 . S
C4303 C4307 1.393 . S
C4304 H4293 0.950 . S
C4304 C4302 1.391 . S
C4304 C4305 1.400 . S
C4305 C4299 1.491 . S
C4305 C4304 1.400 . S
C4305 C4306 1.398 . S
C4306 H4294 0.950 . S
C4306 C4305 1.398 . S
C4306 C4307 1.391 . S
C4307 H4295 0.950 . S
C4307 C4303 1.393 . S
C4307 C4306 1.391 . S
H4308 C4316 0.950 . S
H4309 C4321 0.950 . S
H4310 C4318 0.950 . S
H4311 C4320 0.950 . S
H4312 C4322 0.950 . S
H4313 C4324 0.950 . S
H4314 C4326 0.950 . S
H4315 C4327 0.950 . S
C4316 H4308 0.950 . S
C4316 C4317 1.386 . S
C4316 C4318 1.391 . S
C4317 C4316 1.386 . S
C4317 C4321 1.393 . S
C4318 H4310 0.950 . S
C4318 C4316 1.391 . S
C4318 C4319 1.400 . S
C4319 C4318 1.400 . S
C4319 C4320 1.398 . S
C4319 C4325 1.491 . S
C4320 H4311 0.950 . S
C4320 C4319 1.398 . S
C4320 C4321 1.391 . S
C4321 H4309 0.950 . S
C4321 C4317 1.393 . S
C4321 C4320 1.391 . S
C4322 H4312 0.950 . S
C4322 C4323 1.386 . S
C4322 C4324 1.391 . S
C4323 C4322 1.386 . S
C4323 C4327 1.393 . S
C4324 H4313 0.950 . S
C4324 C4322 1.391 . S
C4324 C4325 1.400 . S
C4325 C4319 1.491 . S
C4325 C4324 1.400 . S
C4325 C4326 1.398 . S
C4326 H4314 0.950 . S
C4326 C4325 1.398 . S
C4326 C4327 1.391 . S
C4327 H4315 0.950 . S
C4327 C4323 1.393 . S
C4327 C4326 1.391 . S
H4328 C4336 0.950 . S
H4329 C4341 0.950 . S
H4330 C4338 0.950 . S
H4331 C4340 0.950 . S
H4332 C4342 0.950 . S
H4333 C4344 0.950 . S
H4334 C4346 0.950 . S
H4335 C4347 0.950 . S
C4336 H4328 0.950 . S
C4336 C4337 1.386 . S
C4336 C4338 1.391 . S
C4337 C4336 1.386 . S
C4337 C4341 1.393 . S
C4338 H4330 0.950 . S
C4338 C4336 1.391 . S
C4338 C4339 1.400 . S
C4339 C4338 1.400 . S
C4339 C4340 1.398 . S
C4339 C4345 1.491 . S
C4340 H4331 0.950 . S
C4340 C4339 1.398 . S
C4340 C4341 1.391 . S
C4341 H4329 0.950 . S
C4341 C4337 1.393 . S
C4341 C4340 1.391 . S
C4342 H4332 0.950 . S
C4342 C4343 1.386 . S
C4342 C4344 1.391 . S
C4343 C4342 1.386 . S
C4343 C4347 1.393 . S
C4344 H4333 0.950 . S
C4344 C4342 1.391 . S
C4344 C4345 1.400 . S
C4345 C4339 1.491 . S
C4345 C4344 1.400 . S
C4345 C4346 1.398 . S
C4346 H4334 0.950 . S
C4346 C4345 1.398 . S
C4346 C4347 1.391 . S
C4347 H4335 0.950 . S
C4347 C4343 1.393 . S
C4347 C4346 1.391 . S
H4348 C4356 0.950 . S
H4349 C4361 0.950 . S
H4350 C4358 0.950 . S
H4351 C4360 0.950 . S
H4352 C4362 0.950 . S
H4353 C4364 0.950 . S
H4354 C4366 0.950 . S
H4355 C4367 0.950 . S
C4356 H4348 0.950 . S
C4356 C4357 1.386 . S
C4356 C4358 1.391 . S
C4357 C4356 1.386 . S
C4357 C4361 1.393 . S
C4358 H4350 0.950 . S
C4358 C4356 1.391 . S
C4358 C4359 1.400 . S
C4359 C4358 1.400 . S
C4359 C4360 1.398 . S
C4359 C4365 1.491 . S
C4360 H4351 0.950 . S
C4360 C4359 1.398 . S
C4360 C4361 1.391 . S
C4361 H4349 0.950 . S
C4361 C4357 1.393 . S
C4361 C4360 1.391 . S
C4362 H4352 0.950 . S
C4362 C4363 1.386 . S
C4362 C4364 1.391 . S
C4363 C4362 1.386 . S
C4363 C4367 1.393 . S
C4364 H4353 0.950 . S
C4364 C4362 1.391 . S
C4364 C4365 1.400 . S
C4365 C4359 1.491 . S
C4365 C4364 1.400 . S
C4365 C4366 1.398 . S
C4366 H4354 0.950 . S
C4366 C4365 1.398 . S
C4366 C4367 1.391 . S
C4367 H4355 0.950 . S
C4367 C4363 1.393 . S
C4367 C4366 1.391 . S
H4368 C4376 0.950 . S
H4369 C4381 0.950 . S
H4370 C4378 0.950 . S
H4371 C4380 0.950 . S
H4372 C4382 0.950 . S
H4373 C4384 0.950 . S
H4374 C4386 0.950 . S
H4375 C4387 0.950 . S
C4376 H4368 0.950 . S
C4376 C4377 1.386 . S
C4376 C4378 1.391 . S
C4377 C4376 1.386 . S
C4377 C4381 1.393 . S
C4378 H4370 0.950 . S
C4378 C4376 1.391 . S
C4378 C4379 1.400 . S
C4379 C4378 1.400 . S
C4379 C4380 1.398 . S
C4379 C4385 1.491 . S
C4380 H4371 0.950 . S
C4380 C4379 1.398 . S
C4380 C4381 1.391 . S
C4381 H4369 0.950 . S
C4381 C4377 1.393 . S
C4381 C4380 1.391 . S
C4382 H4372 0.950 . S
C4382 C4383 1.386 . S
C4382 C4384 1.391 . S
C4383 C4382 1.386 . S
C4383 C4387 1.393 . S
C4384 H4373 0.950 . S
C4384 C4382 1.391 . S
C4384 C4385 1.400 . S
C4385 C4379 1.491 . S
C4385 C4384 1.400 . S
C4385 C4386 1.398 . S
C4386 H4374 0.950 . S
C4386 C4385 1.398 . S
C4386 C4387 1.391 . S
C4387 H4375 0.950 . S
C4387 C4383 1.393 . S
C4387 C4386 1.391 . S
H4388 C4396 0.950 . S
H4389 C4401 0.950 . S
H4390 C4398 0.950 . S
H4391 C4400 0.950 . S
H4392 C4402 0.950 . S
H4393 C4404 0.950 . S
H4394 C4406 0.950 . S
H4395 C4407 0.950 . S
C4396 H4388 0.950 . S
C4396 C4397 1.386 . S
C4396 C4398 1.391 . S
C4397 C4396 1.386 . S
C4397 C4401 1.393 . S
C4398 H4390 0.950 . S
C4398 C4396 1.391 . S
C4398 C4399 1.400 . S
C4399 C4398 1.400 . S
C4399 C4400 1.398 . S
C4399 C4405 1.491 . S
C4400 H4391 0.950 . S
C4400 C4399 1.398 . S
C4400 C4401 1.391 . S
C4401 H4389 0.950 . S
C4401 C4397 1.393 . S
C4401 C4400 1.391 . S
C4402 H4392 0.950 . S
C4402 C4403 1.386 . S
C4402 C4404 1.391 . S
C4403 C4402 1.386 . S
C4403 C4407 1.393 . S
C4404 H4393 0.950 . S
C4404 C4402 1.391 . S
C4404 C4405 1.400 . S
C4405 C4399 1.491 . S
C4405 C4404 1.400 . S
C4405 C4406 1.398 . S
C4406 H4394 0.950 . S
C4406 C4405 1.398 . S
C4406 C4407 1.391 . S
C4407 H4395 0.950 . S
C4407 C4403 1.393 . S
C4407 C4406 1.391 . S
H4408 C4416 0.950 . S
H4409 C4421 0.950 . S
H4410 C4418 0.950 . S
H4411 C4420 0.950 . S
H4412 C4422 0.950 . S
H4413 C4424 0.950 . S
H4414 C4426 0.950 . S
H4415 C4427 0.950 . S
C4416 H4408 0.950 . S
C4416 C4417 1.386 . S
C4416 C4418 1.391 . S
C4417 C4416 1.386 . S
C4417 C4421 1.393 . S
C4418 H4410 0.950 . S
C4418 C4416 1.391 . S
C4418 C4419 1.400 . S
C4419 C4418 1.400 . S
C4419 C4420 1.398 . S
C4419 C4425 1.491 . S
C4420 H4411 0.950 . S
C4420 C4419 1.398 . S
C4420 C4421 1.391 . S
C4421 H4409 0.950 . S
C4421 C4417 1.393 . S
C4421 C4420 1.391 . S
C4422 H4412 0.950 . S
C4422 C4423 1.386 . S
C4422 C4424 1.391 . S
C4423 C4422 1.386 . S
C4423 C4427 1.393 . S
C4424 H4413 0.950 . S
C4424 C4422 1.391 . S
C4424 C4425 1.400 . S
C4425 C4419 1.491 . S
C4425 C4424 1.400 . S
C4425 C4426 1.398 . S
C4426 H4414 0.950 . S
C4426 C4425 1.398 . S
C4426 C4427 1.391 . S
C4427 H4415 0.950 . S
C4427 C4423 1.393 . S
C4427 C4426 1.391 . S
H4428 C4436 0.950 . S
H4429 C4441 0.950 . S
H4430 C4438 0.950 . S
H4431 C4440 0.950 . S
H4432 C4442 0.950 . S
H4433 C4444 0.950 . S
H4434 C4446 0.950 . S
H4435 C4447 0.950 . S
C4436 H4428 0.950 . S
C4436 C4437 1.386 . S
C4436 C4438 1.391 . S
C4437 C4436 1.386 . S
C4437 C4441 1.393 . S
C4438 H4430 0.950 . S
C4438 C4436 1.391 . S
C4438 C4439 1.400 . S
C4439 C4438 1.400 . S
C4439 C4440 1.398 . S
C4439 C4445 1.491 . S
C4440 H4431 0.950 . S
C4440 C4439 1.398 . S
C4440 C4441 1.391 . S
C4441 H4429 0.950 . S
C4441 C4437 1.393 . S
C4441 C4440 1.391 . S
C4442 H4432 0.950 . S
C4442 C4443 1.386 . S
C4442 C4444 1.391 . S
C4443 C4442 1.386 . S
C4443 C4447 1.393 . S
C4444 H4433 0.950 . S
C4444 C4442 1.391 . S
C4444 C4445 1.400 . S
C4445 C4439 1.491 . S
C4445 C4444 1.400 . S
C4445 C4446 1.398 . S
C4446 H4434 0.950 . S
C4446 C4445 1.398 . S
C4446 C4447 1.391 . S
C4447 H4435 0.950 . S
C4447 C4443 1.393 . S
C4447 C4446 1.391 . S
H4448 C4456 0.950 . S
H4449 C4461 0.950 . S
H4450 C4458 0.950 . S
H4451 C4460 0.950 . S
H4452 C4462 0.950 . S
H4453 C4464 0.950 . S
H4454 C4466 0.950 . S
H4455 C4467 0.950 . S
C4456 H4448 0.950 . S
C4456 C4457 1.386 . S
C4456 C4458 1.391 . S
C4457 C4456 1.386 . S
C4457 C4461 1.393 . S
C4458 H4450 0.950 . S
C4458 C4456 1.391 . S
C4458 C4459 1.400 . S
C4459 C4458 1.400 . S
C4459 C4460 1.398 . S
C4459 C4465 1.491 . S
C4460 H4451 0.950 . S
C4460 C4459 1.398 . S
C4460 C4461 1.391 . S
C4461 H4449 0.950 . S
C4461 C4457 1.393 . S
C4461 C4460 1.391 . S
C4462 H4452 0.950 . S
C4462 C4463 1.386 . S
C4462 C4464 1.391 . S
C4463 C4462 1.386 . S
C4463 C4467 1.393 . S
C4464 H4453 0.950 . S
C4464 C4462 1.391 . S
C4464 C4465 1.400 . S
C4465 C4459 1.491 . S
C4465 C4464 1.400 . S
C4465 C4466 1.398 . S
C4466 H4454 0.950 . S
C4466 C4465 1.398 . S
C4466 C4467 1.391 . S
C4467 H4455 0.950 . S
C4467 C4463 1.393 . S
C4467 C4466 1.391 . S
H4468 C4476 0.950 . S
H4469 C4481 0.950 . S
H4470 C4478 0.950 . S
H4471 C4480 0.950 . S
H4472 C4482 0.950 . S
H4473 C4484 0.950 . S
H4474 C4486 0.950 . S
H4475 C4487 0.950 . S
C4476 H4468 0.950 . S
C4476 C4477 1.386 . S
C4476 C4478 1.391 . S
C4477 C4476 1.386 . S
C4477 C4481 1.393 . S
C4478 H4470 0.950 . S
C4478 C4476 1.391 . S
C4478 C4479 1.400 . S
C4479 C4478 1.400 . S
C4479 C4480 1.398 . S
C4479 C4485 1.491 . S
C4480 H4471 0.950 . S
C4480 C4479 1.398 . S
C4480 C4481 1.391 . S
C4481 H4469 0.950 . S
C4481 C4477 1.393 . S
C4481 C4480 1.391 . S
C4482 H4472 0.950 . S
C4482 C4483 1.386 . S
C4482 C4484 1.391 . S
C4483 C4482 1.386 . S
C4483 C4487 1.393 . S
C4484 H4473 0.950 . S
C4484 C4482 1.391 . S
C4484 C4485 1.400 . S
C4485 C4479 1.491 . S
C4485 C4484 1.400 . S
C4485 C4486 1.398 . S
C4486 H4474 0.950 . S
C4486 C4485 1.398 . S
C4486 C4487 1.391 . S
C4487 H4475 0.950 . S
C4487 C4483 1.393 . S
C4487 C4486 1.391 . S
H4488 C4496 0.950 . S
H4489 C4501 0.950 . S
H4490 C4498 0.950 . S
H4491 C4500 0.950 . S
H4492 C4502 0.950 . S
H4493 C4504 0.950 . S
H4494 C4506 0.950 . S
H4495 C4507 0.950 . S
C4496 H4488 0.950 . S
C4496 C4497 1.386 . S
C4496 C4498 1.391 . S
C4497 C4496 1.386 . S
C4497 C4501 1.393 . S
C4498 H4490 0.950 . S
C4498 C4496 1.391 . S
C4498 C4499 1.400 . S
C4499 C4498 1.400 . S
C4499 C4500 1.398 . S
C4499 C4505 1.491 . S
C4500 H4491 0.950 . S
C4500 C4499 1.398 . S
C4500 C4501 1.391 . S
C4501 H4489 0.950 . S
C4501 C4497 1.393 . S
C4501 C4500 1.391 . S
C4502 H4492 0.950 . S
C4502 C4503 1.386 . S
C4502 C4504 1.391 . S
C4503 C4502 1.386 . S
C4503 C4507 1.393 . S
C4504 H4493 0.950 . S
C4504 C4502 1.391 . S
C4504 C4505 1.400 . S
C4505 C4499 1.491 . S
C4505 C4504 1.400 . S
C4505 C4506 1.398 . S
C4506 H4494 0.950 . S
C4506 C4505 1.398 . S
C4506 C4507 1.391 . S
C4507 H4495 0.950 . S
C4507 C4503 1.393 . S
C4507 C4506 1.391 . S
H4508 C4516 0.950 . S
H4509 C4521 0.950 . S
H4510 C4518 0.950 . S
H4511 C4520 0.950 . S
H4512 C4522 0.950 . S
H4513 C4524 0.950 . S
H4514 C4526 0.950 . S
H4515 C4527 0.950 . S
C4516 H4508 0.950 . S
C4516 C4517 1.386 . S
C4516 C4518 1.391 . S
C4517 C4516 1.386 . S
C4517 C4521 1.393 . S
C4518 H4510 0.950 . S
C4518 C4516 1.391 . S
C4518 C4519 1.400 . S
C4519 C4518 1.400 . S
C4519 C4520 1.398 . S
C4519 C4525 1.491 . S
C4520 H4511 0.950 . S
C4520 C4519 1.398 . S
C4520 C4521 1.391 . S
C4521 H4509 0.950 . S
C4521 C4517 1.393 . S
C4521 C4520 1.391 . S
C4522 H4512 0.950 . S
C4522 C4523 1.386 . S
C4522 C4524 1.391 . S
C4523 C4522 1.386 . S
C4523 C4527 1.393 . S
C4524 H4513 0.950 . S
C4524 C4522 1.391 . S
C4524 C4525 1.400 . S
C4525 C4519 1.491 . S
C4525 C4524 1.400 . S
C4525 C4526 1.398 . S
C4526 H4514 0.950 . S
C4526 C4525 1.398 . S
C4526 C4527 1.391 . S
C4527 H4515 0.950 . S
C4527 C4523 1.393 . S
C4527 C4526 1.391 . S
H4528 C4536 0.950 . S
H4529 C4541 0.950 . S
H4530 C4538 0.950 . S
H4531 C4540 0.950 . S
H4532 C4542 0.950 . S
H4533 C4544 0.950 . S
H4534 C4546 0.950 . S
H4535 C4547 0.950 . S
C4536 H4528 0.950 . S
C4536 C4537 1.386 . S
C4536 C4538 1.391 . S
C4537 C4536 1.386 . S
C4537 C4541 1.393 . S
C4538 H4530 0.950 . S
C4538 C4536 1.391 . S
C4538 C4539 1.400 . S
C4539 C4538 1.400 . S
C4539 C4540 1.398 . S
C4539 C4545 1.491 . S
C4540 H4531 0.950 . S
C4540 C4539 1.398 . S
C4540 C4541 1.391 . S
C4541 H4529 0.950 . S
C4541 C4537 1.393 . S
C4541 C4540 1.391 . S
C4542 H4532 0.950 . S
C4542 C4543 1.386 . S
C4542 C4544 1.391 . S
C4543 C4542 1.386 . S
C4543 C4547 1.393 . S
C4544 H4533 0.950 . S
C4544 C4542 1.391 . S
C4544 C4545 1.400 . S
C4545 C4539 1.491 . S
C4545 C4544 1.400 . S
C4545 C4546 1.398 . S
C4546 H4534 0.950 . S
C4546 C4545 1.398 . S
C4546 C4547 1.391 . S
C4547 H4535 0.950 . S
C4547 C4543 1.393 . S
C4547 C4546 1.391 . S
H4548 C4556 0.950 . S
H4549 C4561 0.950 . S
H4550 C4558 0.950 . S
H4551 C4560 0.950 . S
H4552 C4562 0.950 . S
H4553 C4564 0.950 . S
H4554 C4566 0.950 . S
H4555 C4567 0.950 . S
C4556 H4548 0.950 . S
C4556 C4557 1.386 . S
C4556 C4558 1.391 . S
C4557 C4556 1.386 . S
C4557 C4561 1.393 . S
C4558 H4550 0.950 . S
C4558 C4556 1.391 . S
C4558 C4559 1.400 . S
C4559 C4558 1.400 . S
C4559 C4560 1.398 . S
C4559 C4565 1.491 . S
C4560 H4551 0.950 . S
C4560 C4559 1.398 . S
C4560 C4561 1.391 . S
C4561 H4549 0.950 . S
C4561 C4557 1.393 . S
C4561 C4560 1.391 . S
C4562 H4552 0.950 . S
C4562 C4563 1.386 . S
C4562 C4564 1.391 . S
C4563 C4562 1.386 . S
C4563 C4567 1.393 . S
C4564 H4553 0.950 . S
C4564 C4562 1.391 . S
C4564 C4565 1.400 . S
C4565 C4559 1.491 . S
C4565 C4564 1.400 . S
C4565 C4566 1.398 . S
C4566 H4554 0.950 . S
C4566 C4565 1.398 . S
C4566 C4567 1.391 . S
C4567 H4555 0.950 . S
C4567 C4563 1.393 . S
C4567 C4566 1.391 . S
H4568 C4576 0.950 . S
H4569 C4581 0.950 . S
H4570 C4578 0.950 . S
H4571 C4580 0.950 . S
H4572 C4582 0.950 . S
H4573 C4584 0.950 . S
H4574 C4586 0.950 . S
H4575 C4587 0.950 . S
C4576 H4568 0.950 . S
C4576 C4577 1.386 . S
C4576 C4578 1.391 . S
C4577 C4576 1.386 . S
C4577 C4581 1.393 . S
C4578 H4570 0.950 . S
C4578 C4576 1.391 . S
C4578 C4579 1.400 . S
C4579 C4578 1.400 . S
C4579 C4580 1.398 . S
C4579 C4585 1.491 . S
C4580 H4571 0.950 . S
C4580 C4579 1.398 . S
C4580 C4581 1.391 . S
C4581 H4569 0.950 . S
C4581 C4577 1.393 . S
C4581 C4580 1.391 . S
C4582 H4572 0.950 . S
C4582 C4583 1.386 . S
C4582 C4584 1.391 . S
C4583 C4582 1.386 . S
C4583 C4587 1.393 . S
C4584 H4573 0.950 . S
C4584 C4582 1.391 . S
C4584 C4585 1.400 . S
C4585 C4579 1.491 . S
C4585 C4584 1.400 . S
C4585 C4586 1.398 . S
C4586 H4574 0.950 . S
C4586 C4585 1.398 . S
C4586 C4587 1.391 . S
C4587 H4575 0.950 . S
C4587 C4583 1.393 . S
C4587 C4586 1.391 . S
H4588 C4596 0.950 . S
H4589 C4601 0.950 . S
H4590 C4598 0.950 . S
H4591 C4600 0.950 . S
H4592 C4602 0.950 . S
H4593 C4604 0.950 . S
H4594 C4606 0.950 . S
H4595 C4607 0.950 . S
C4596 H4588 0.950 . S
C4596 C4597 1.386 . S
C4596 C4598 1.391 . S
C4597 C4596 1.386 . S
C4597 C4601 1.393 . S
C4598 H4590 0.950 . S
C4598 C4596 1.391 . S
C4598 C4599 1.400 . S
C4599 C4598 1.400 . S
C4599 C4600 1.398 . S
C4599 C4605 1.491 . S
C4600 H4591 0.950 . S
C4600 C4599 1.398 . S
C4600 C4601 1.391 . S
C4601 H4589 0.950 . S
C4601 C4597 1.393 . S
C4601 C4600 1.391 . S
C4602 H4592 0.950 . S
C4602 C4603 1.386 . S
C4602 C4604 1.391 . S
C4603 C4602 1.386 . S
C4603 C4607 1.393 . S
C4604 H4593 0.950 . S
C4604 C4602 1.391 . S
C4604 C4605 1.400 . S
C4605 C4599 1.491 . S
C4605 C4604 1.400 . S
C4605 C4606 1.398 . S
C4606 H4594 0.950 . S
C4606 C4605 1.398 . S
C4606 C4607 1.391 . S
C4607 H4595 0.950 . S
C4607 C4603 1.393 . S
C4607 C4606 1.391 . S
H4608 C4616 0.950 . S
H4609 C4621 0.950 . S
H4610 C4618 0.950 . S
H4611 C4620 0.950 . S
H4612 C4622 0.950 . S
H4613 C4624 0.950 . S
H4614 C4626 0.950 . S
H4615 C4627 0.950 . S
C4616 H4608 0.950 . S
C4616 C4617 1.386 . S
C4616 C4618 1.391 . S
C4617 C4616 1.386 . S
C4617 C4621 1.393 . S
C4618 H4610 0.950 . S
C4618 C4616 1.391 . S
C4618 C4619 1.400 . S
C4619 C4618 1.400 . S
C4619 C4620 1.398 . S
C4619 C4625 1.497 1_556 S
C4620 H4611 0.950 . S
C4620 C4619 1.398 . S
C4620 C4621 1.391 . S
C4621 H4609 0.950 . S
C4621 C4617 1.393 . S
C4621 C4620 1.391 . S
C4622 H4612 0.950 . S
C4622 C4623 1.386 . S
C4622 C4624 1.391 . S
C4623 C4622 1.386 . S
C4623 C4627 1.393 . S
C4624 H4613 0.950 . S
C4624 C4622 1.391 . S
C4624 C4625 1.396 . S
C4625 C4619 1.497 1_554 S
C4625 C4624 1.396 . S
C4625 C4626 1.395 . S
C4626 H4614 0.950 . S
C4626 C4625 1.395 . S
C4626 C4627 1.391 . S
C4627 H4615 0.950 . S
C4627 C4623 1.393 . S
C4627 C4626 1.391 . S
H4628 C4636 0.950 . S
H4629 C4641 0.950 . S
H4630 C4638 0.950 . S
H4631 C4640 0.972 . S
H4632 C4642 0.950 . S
H4633 C4644 0.950 . S
H4634 C4646 0.950 . S
H4635 C4647 0.950 . S
C4636 H4628 0.950 . S
C4636 C4637 1.386 . S
C4636 C4638 1.391 . S
C4637 C4636 1.386 . S
C4637 C4641 1.393 . S
C4638 H4630 0.950 . S
C4638 C4636 1.391 . S
C4638 C4639 1.396 . S
C4639 C4638 1.396 . S
C4639 C4640 1.395 . S
C4639 C4645 1.497 1_554 S
C4640 H4631 0.972 . S
C4640 C4639 1.395 . S
C4640 C4641 1.391 . S
C4641 H4629 0.950 . S
C4641 C4637 1.393 . S
C4641 C4640 1.391 . S
C4642 H4632 0.950 . S
C4642 C4643 1.386 . S
C4642 C4644 1.391 . S
C4643 C4642 1.386 . S
C4643 C4647 1.393 . S
C4644 H4633 0.950 . S
C4644 C4642 1.391 . S
C4644 C4645 1.400 . S
C4645 C4639 1.497 1_556 S
C4645 C4644 1.400 . S
C4645 C4646 1.398 . S
C4646 H4634 0.950 . S
C4646 C4645 1.398 . S
C4646 C4647 1.391 . S
C4647 H4635 0.950 . S
C4647 C4643 1.393 . S
C4647 C4646 1.391 . S
H4648 C4656 0.950 . S
H4649 C4661 0.950 . S
H4650 C4658 0.950 . S
H4651 C4660 0.969 . S
H4652 C4662 0.950 . S
H4653 C4664 0.950 . S
H4654 C4666 0.950 . S
H4655 C4667 0.950 . S
C4656 H4648 0.950 . S
C4656 C4657 1.386 . S
C4656 C4658 1.391 . S
C4657 C4656 1.386 . S
C4657 C4661 1.393 . S
C4658 H4650 0.950 . S
C4658 C4656 1.391 . S
C4658 C4659 1.395 . S
C4659 C4658 1.395 . S
C4659 C4660 1.394 . S
C4659 C4665 1.500 1_554 S
C4660 H4651 0.969 . S
C4660 C4659 1.394 . S
C4660 C4661 1.391 . S
C4661 H4649 0.950 . S
C4661 C4657 1.393 . S
C4661 C4660 1.391 . S
C4662 H4652 0.950 . S
C4662 C4663 1.386 . S
C4662 C4664 1.391 . S
C4663 C4662 1.386 . S
C4663 C4667 1.393 . S
C4664 H4653 0.950 . S
C4664 C4662 1.391 . S
C4664 C4665 1.400 . S
C4665 C4659 1.500 1_556 S
C4665 C4664 1.400 . S
C4665 C4666 1.398 . S
C4666 H4654 0.950 . S
C4666 C4665 1.398 . S
C4666 C4667 1.391 . S
C4667 H4655 0.950 . S
C4667 C4663 1.393 . S
C4667 C4666 1.391 . S
H4668 C4676 0.950 . S
H4669 C4681 0.950 . S
H4670 C4678 0.950 . S
H4671 C4680 0.950 . S
H4672 C4682 0.950 . S
H4673 C4684 0.950 . S
H4674 C4686 0.950 . S
H4675 C4687 0.950 . S
C4676 H4668 0.950 . S
C4676 C4677 1.386 . S
C4676 C4678 1.391 . S
C4677 C4676 1.386 . S
C4677 C4681 1.393 . S
C4678 H4670 0.950 . S
C4678 C4676 1.391 . S
C4678 C4679 1.398 . S
C4679 C4678 1.398 . S
C4679 C4680 1.396 . S
C4679 C4685 1.494 1_554 S
C4680 H4671 0.950 . S
C4680 C4679 1.396 . S
C4680 C4681 1.391 . S
C4681 H4669 0.950 . S
C4681 C4677 1.393 . S
C4681 C4680 1.391 . S
C4682 H4672 0.950 . S
C4682 C4683 1.386 . S
C4682 C4684 1.391 . S
C4683 C4682 1.386 . S
C4683 C4687 1.393 . S
C4684 H4673 0.950 . S
C4684 C4682 1.391 . S
C4684 C4685 1.400 . S
C4685 C4679 1.494 1_556 S
C4685 C4684 1.400 . S
C4685 C4686 1.398 . S
C4686 H4674 0.950 . S
C4686 C4685 1.398 . S
C4686 C4687 1.391 . S
C4687 H4675 0.950 . S
C4687 C4683 1.393 . S
C4687 C4686 1.391 . S
H4688 C4696 0.950 . S
H4689 C4701 0.950 . S
H4690 C4698 0.950 . S
H4691 C4700 0.950 . S
H4692 C4702 0.950 . S
H4693 C4704 0.950 . S
H4694 C4706 0.950 . S
H4695 C4707 0.950 . S
C4696 H4688 0.950 . S
C4696 C4697 1.386 . S
C4696 C4698 1.391 . S
C4697 C4696 1.386 . S
C4697 C4701 1.393 . S
C4698 H4690 0.950 . S
C4698 C4696 1.391 . S
C4698 C4699 1.400 . S
C4699 C4698 1.400 . S
C4699 C4700 1.398 . S
C4699 C4705 1.497 1_554 S
C4700 H4691 0.950 . S
C4700 C4699 1.398 . S
C4700 C4701 1.391 . S
C4701 H4689 0.950 . S
C4701 C4697 1.393 . S
C4701 C4700 1.391 . S
C4702 H4692 0.950 . S
C4702 C4703 1.386 . S
C4702 C4704 1.391 . S
C4703 C4702 1.386 . S
C4703 C4707 1.393 . S
C4704 H4693 0.950 . S
C4704 C4702 1.391 . S
C4704 C4705 1.397 . S
C4705 C4699 1.497 1_556 S
C4705 C4704 1.397 . S
C4705 C4706 1.395 . S
C4706 H4694 0.950 . S
C4706 C4705 1.395 . S
C4706 C4707 1.391 . S
C4707 H4695 0.950 . S
C4707 C4703 1.393 . S
C4707 C4706 1.391 . S
H4708 C4716 0.950 . S
H4709 C4721 0.950 . S
H4710 C4718 0.978 . S
H4711 C4720 0.950 . S
H4712 C4722 0.950 . S
H4713 C4724 0.950 . S
H4714 C4726 0.950 . S
H4715 C4727 0.950 . S
C4716 H4708 0.950 . S
C4716 C4717 1.386 . S
C4716 C4718 1.391 . S
C4717 C4716 1.386 . S
C4717 C4721 1.393 . S
C4718 H4710 0.978 . S
C4718 C4716 1.391 . S
C4718 C4719 1.398 . S
C4719 C4718 1.398 . S
C4719 C4720 1.395 . S
C4719 C4725 1.496 1_556 S
C4720 H4711 0.950 . S
C4720 C4719 1.395 . S
C4720 C4721 1.391 . S
C4721 H4709 0.950 . S
C4721 C4717 1.393 . S
C4721 C4720 1.391 . S
C4722 H4712 0.950 . S
C4722 C4723 1.386 . S
C4722 C4724 1.391 . S
C4723 C4722 1.386 . S
C4723 C4727 1.393 . S
C4724 H4713 0.950 . S
C4724 C4722 1.391 . S
C4724 C4725 1.400 . S
C4725 C4719 1.496 1_554 S
C4725 C4724 1.400 . S
C4725 C4726 1.398 . S
C4726 H4714 0.950 . S
C4726 C4725 1.398 . S
C4726 C4727 1.391 . S
C4727 H4715 0.950 . S
C4727 C4723 1.393 . S
C4727 C4726 1.391 . S
H4728 C4736 0.950 . S
H4729 C4741 0.950 . S
H4730 C4738 0.950 . S
H4731 C4740 0.950 . S
H4732 C4742 0.950 . S
H4733 C4744 0.950 . S
H4734 C4746 0.950 . S
H4735 C4747 0.950 . S
C4736 H4728 0.950 . S
C4736 C4737 1.386 . S
C4736 C4738 1.391 . S
C4737 C4736 1.386 . S
C4737 C4741 1.393 . S
C4738 H4730 0.950 . S
C4738 C4736 1.391 . S
C4738 C4739 1.400 . S
C4739 C4738 1.400 . S
C4739 C4740 1.398 . S
C4739 C4745 1.482 . S
C4740 H4731 0.950 . S
C4740 C4739 1.398 . S
C4740 C4741 1.391 . S
C4741 H4729 0.950 . S
C4741 C4737 1.393 . S
C4741 C4740 1.391 . S
C4742 H4732 0.950 . S
C4742 C4743 1.386 . S
C4742 C4744 1.391 . S
C4743 C4742 1.386 . S
C4743 C4747 1.393 . S
C4744 H4733 0.950 . S
C4744 C4742 1.391 . S
C4744 C4745 1.405 1_556 S
C4745 C4739 1.482 . S
C4745 C4744 1.405 1_554 S
C4745 C4746 1.403 1_554 S
C4746 H4734 0.950 . S
C4746 C4745 1.403 1_556 S
C4746 C4747 1.391 . S
C4747 H4735 0.950 . S
C4747 C4743 1.393 . S
C4747 C4746 1.391 . S
H4748 C4756 0.950 . S
H4749 C4761 0.950 . S
H4750 C4758 0.950 . S
H4751 C4760 0.972 . S
H4752 C4762 0.950 . S
H4753 C4764 0.950 . S
H4754 C4766 0.950 . S
H4755 C4767 0.950 . S
C4756 H4748 0.950 . S
C4756 C4757 1.386 . S
C4756 C4758 1.391 . S
C4757 C4756 1.386 . S
C4757 C4761 1.393 . S
C4758 H4750 0.950 . S
C4758 C4756 1.391 . S
C4758 C4759 1.396 . S
C4759 C4758 1.396 . S
C4759 C4760 1.396 . S
C4759 C4765 1.497 1_556 S
C4760 H4751 0.972 . S
C4760 C4759 1.396 . S
C4760 C4761 1.391 . S
C4761 H4749 0.950 . S
C4761 C4757 1.393 . S
C4761 C4760 1.391 . S
C4762 H4752 0.950 . S
C4762 C4763 1.386 . S
C4762 C4764 1.391 . S
C4763 C4762 1.386 . S
C4763 C4767 1.393 . S
C4764 H4753 0.950 . S
C4764 C4762 1.391 . S
C4764 C4765 1.400 . S
C4765 C4759 1.497 1_554 S
C4765 C4764 1.400 . S
C4765 C4766 1.398 . S
C4766 H4754 0.950 . S
C4766 C4765 1.398 . S
C4766 C4767 1.391 . S
C4767 H4755 0.950 . S
C4767 C4763 1.393 . S
C4767 C4766 1.391 . S
H4768 C4776 0.950 . S
H4769 C4781 0.950 . S
H4770 C4778 0.950 . S
H4771 C4780 0.950 . S
H4772 C4782 0.950 . S
H4773 C4784 0.991 . S
H4774 C4786 0.950 . S
H4775 C4787 0.950 . S
C4776 H4768 0.950 . S
C4776 C4777 1.386 . S
C4776 C4778 1.391 . S
C4777 C4776 1.386 . S
C4777 C4781 1.393 . S
C4778 H4770 0.950 . S
C4778 C4776 1.391 . S
C4778 C4779 1.400 . S
C4779 C4778 1.400 . S
C4779 C4780 1.398 . S
C4779 C4785 1.499 1_655 S
C4780 H4771 0.950 . S
C4780 C4779 1.398 . S
C4780 C4781 1.391 . S
C4781 H4769 0.950 . S
C4781 C4777 1.393 . S
C4781 C4780 1.391 . S
C4782 H4772 0.950 . S
C4782 C4783 1.386 . S
C4782 C4784 1.391 . S
C4783 C4782 1.386 . S
C4783 C4787 1.393 . S
C4784 H4773 0.991 . S
C4784 C4782 1.391 . S
C4784 C4785 1.397 . S
C4785 C4779 1.499 1_455 S
C4785 C4784 1.397 . S
C4785 C4786 1.393 . S
C4786 H4774 0.950 . S
C4786 C4785 1.393 . S
C4786 C4787 1.391 . S
C4787 H4775 0.950 . S
C4787 C4783 1.393 . S
C4787 C4786 1.391 . S
H4788 C4796 0.950 . S
H4789 C4801 0.950 . S
H4790 C4798 0.950 . S
H4791 C4800 0.950 . S
H4792 C4802 0.950 . S
H4793 C4804 0.950 . S
H4794 C4806 0.950 . S
H4795 C4807 0.950 . S
C4796 H4788 0.950 . S
C4796 C4797 1.386 . S
C4796 C4798 1.391 . S
C4797 C4796 1.386 . S
C4797 C4801 1.393 . S
C4798 H4790 0.950 . S
C4798 C4796 1.391 . S
C4798 C4799 1.397 . S
C4799 C4798 1.397 . S
C4799 C4800 1.394 . S
C4799 C4805 1.497 1_545 S
C4800 H4791 0.950 . S
C4800 C4799 1.394 . S
C4800 C4801 1.391 . S
C4801 H4789 0.950 . S
C4801 C4797 1.393 . S
C4801 C4800 1.391 . S
C4802 H4792 0.950 . S
C4802 C4803 1.386 . S
C4802 C4804 1.391 . S
C4803 C4802 1.386 . S
C4803 C4807 1.393 . S
C4804 H4793 0.950 . S
C4804 C4802 1.391 . S
C4804 C4805 1.400 . S
C4805 C4799 1.497 1_565 S
C4805 C4804 1.400 . S
C4805 C4806 1.398 . S
C4806 H4794 0.950 . S
C4806 C4805 1.398 . S
C4806 C4807 1.391 . S
C4807 H4795 0.950 . S
C4807 C4803 1.393 . S
C4807 C4806 1.391 . S
H4808 C4816 0.950 . S
H4809 C4821 0.950 . S
H4810 C4818 0.950 . S
H4811 C4820 0.950 . S
H4812 C4822 0.950 . S
H4813 C4824 0.950 . S
H4814 C4826 0.971 . S
H4815 C4827 0.950 . S
C4816 H4808 0.950 . S
C4816 C4817 1.386 . S
C4816 C4818 1.391 . S
C4817 C4816 1.386 . S
C4817 C4821 1.393 . S
C4818 H4810 0.950 . S
C4818 C4816 1.391 . S
C4818 C4819 1.400 . S
C4819 C4818 1.400 . S
C4819 C4820 1.398 . S
C4819 C4825 1.499 1_455 S
C4820 H4811 0.950 . S
C4820 C4819 1.398 . S
C4820 C4821 1.391 . S
C4821 H4809 0.950 . S
C4821 C4817 1.393 . S
C4821 C4820 1.391 . S
C4822 H4812 0.950 . S
C4822 C4823 1.386 . S
C4822 C4824 1.391 . S
C4823 C4822 1.386 . S
C4823 C4827 1.393 . S
C4824 H4813 0.950 . S
C4824 C4822 1.391 . S
C4824 C4825 1.395 . S
C4825 C4819 1.499 1_655 S
C4825 C4824 1.395 . S
C4825 C4826 1.395 . S
C4826 H4814 0.971 . S
C4826 C4825 1.395 . S
C4826 C4827 1.391 . S
C4827 H4815 0.950 . S
C4827 C4823 1.393 . S
C4827 C4826 1.391 . S
H4828 C4836 0.950 . S
H4829 C4841 0.950 . S
H4830 C4838 0.950 . S
H4831 C4840 0.991 . S
H4832 C4842 0.950 . S
H4833 C4844 0.950 . S
H4834 C4846 0.950 . S
H4835 C4847 0.950 . S
C4836 H4828 0.950 . S
C4836 C4837 1.386 . S
C4836 C4838 1.391 . S
C4837 C4836 1.386 . S
C4837 C4841 1.393 . S
C4838 H4830 0.950 . S
C4838 C4836 1.391 . S
C4838 C4839 1.396 . S
C4839 C4838 1.396 . S
C4839 C4840 1.395 . S
C4839 C4845 1.498 1_565 S
C4840 H4831 0.991 . S
C4840 C4839 1.395 . S
C4840 C4841 1.391 . S
C4841 H4829 0.950 . S
C4841 C4837 1.393 . S
C4841 C4840 1.391 . S
C4842 H4832 0.950 . S
C4842 C4843 1.386 . S
C4842 C4844 1.391 . S
C4843 C4842 1.386 . S
C4843 C4847 1.393 . S
C4844 H4833 0.950 . S
C4844 C4842 1.391 . S
C4844 C4845 1.400 . S
C4845 C4839 1.498 1_545 S
C4845 C4844 1.400 . S
C4845 C4846 1.398 . S
C4846 H4834 0.950 . S
C4846 C4845 1.398 . S
C4846 C4847 1.391 . S
C4847 H4835 0.950 . S
C4847 C4843 1.393 . S
C4847 C4846 1.391 . S
H4848 C4856 0.950 . S
H4849 C4861 0.950 . S
H4850 C4858 0.950 . S
H4851 C4860 0.950 . S
H4852 C4862 0.950 . S
H4853 C4864 0.950 . S
H4854 C4866 0.950 . S
H4855 C4867 0.950 . S
C4856 H4848 0.950 . S
C4856 C4857 1.386 . S
C4856 C4858 1.391 . S
C4857 C4856 1.386 . S
C4857 C4861 1.393 . S
C4858 H4850 0.950 . S
C4858 C4856 1.391 . S
C4858 C4859 1.396 . S
C4859 C4858 1.396 . S
C4859 C4860 1.393 . S
C4859 C4865 1.500 1_455 S
C4860 H4851 0.950 . S
C4860 C4859 1.393 . S
C4860 C4861 1.391 . S
C4861 H4849 0.950 . S
C4861 C4857 1.393 . S
C4861 C4860 1.391 . S
C4862 H4852 0.950 . S
C4862 C4863 1.386 . S
C4862 C4864 1.391 . S
C4863 C4862 1.386 . S
C4863 C4867 1.393 . S
C4864 H4853 0.950 . S
C4864 C4862 1.391 . S
C4864 C4865 1.400 . S
C4865 C4859 1.500 1_655 S
C4865 C4864 1.400 . S
C4865 C4866 1.398 . S
C4866 H4854 0.950 . S
C4866 C4865 1.398 . S
C4866 C4867 1.391 . S
C4867 H4855 0.950 . S
C4867 C4863 1.393 . S
C4867 C4866 1.391 . S
H4868 C4876 0.950 . S
H4869 C4881 0.950 . S
H4870 C4878 0.950 . S
H4871 C4880 0.950 . S
H4872 C4882 0.950 . S
H4873 C4884 0.950 . S
H4874 C4886 0.950 . S
H4875 C4887 0.950 . S
C4876 H4868 0.950 . S
C4876 C4877 1.386 . S
C4876 C4878 1.391 . S
C4877 C4876 1.386 . S
C4877 C4881 1.393 . S
C4878 H4870 0.950 . S
C4878 C4876 1.391 . S
C4878 C4879 1.405 1_545 S
C4879 C4878 1.405 1_565 S
C4879 C4880 1.403 1_565 S
C4879 C4885 1.482 . S
C4880 H4871 0.950 . S
C4880 C4879 1.403 1_545 S
C4880 C4881 1.391 . S
C4881 H4869 0.950 . S
C4881 C4877 1.393 . S
C4881 C4880 1.391 . S
C4882 H4872 0.950 . S
C4882 C4883 1.386 . S
C4882 C4884 1.391 . S
C4883 C4882 1.386 . S
C4883 C4887 1.393 . S
C4884 H4873 0.950 . S
C4884 C4882 1.391 . S
C4884 C4885 1.400 . S
C4885 C4879 1.482 . S
C4885 C4884 1.400 . S
C4885 C4886 1.398 . S
C4886 H4874 0.950 . S
C4886 C4885 1.398 . S
C4886 C4887 1.391 . S
C4887 H4875 0.950 . S
C4887 C4883 1.393 . S
C4887 C4886 1.391 . S
H4888 C4896 0.950 . S
H4889 C4901 0.950 . S
H4890 C4898 0.950 . S
H4891 C4900 0.970 . S
H4892 C4902 0.950 . S
H4893 C4904 0.950 . S
H4894 C4906 0.950 . S
H4895 C4907 0.950 . S
C4896 H4888 0.950 . S
C4896 C4897 1.386 . S
C4896 C4898 1.391 . S
C4897 C4896 1.386 . S
C4897 C4901 1.393 . S
C4898 H4890 0.950 . S
C4898 C4896 1.391 . S
C4898 C4899 1.396 . S
C4899 C4898 1.396 . S
C4899 C4900 1.395 . S
C4899 C4905 1.498 1_655 S
C4900 H4891 0.970 . S
C4900 C4899 1.395 . S
C4900 C4901 1.391 . S
C4901 H4889 0.950 . S
C4901 C4897 1.393 . S
C4901 C4900 1.391 . S
C4902 H4892 0.950 . S
C4902 C4903 1.386 . S
C4902 C4904 1.391 . S
C4903 C4902 1.386 . S
C4903 C4907 1.393 . S
C4904 H4893 0.950 . S
C4904 C4902 1.391 . S
C4904 C4905 1.400 . S
C4905 C4899 1.498 1_455 S
C4905 C4904 1.400 . S
C4905 C4906 1.398 . S
C4906 H4894 0.950 . S
C4906 C4905 1.398 . S
C4906 C4907 1.391 . S
C4907 H4895 0.950 . S
C4907 C4903 1.393 . S
C4907 C4906 1.391 . S
H4908 C4916 0.950 . S
H4909 C4921 0.950 . S
H4910 C4918 0.950 . S
H4911 C4920 0.986 . S
H4912 C4922 0.950 . S
H4913 C4924 0.950 . S
H4914 C4926 0.950 . S
H4915 C4927 0.950 . S
C4916 H4908 0.950 . S
C4916 C4917 1.386 . S
C4916 C4918 1.391 . S
C4917 C4916 1.386 . S
C4917 C4921 1.393 . S
C4918 H4910 0.950 . S
C4918 C4916 1.391 . S
C4918 C4919 1.396 . S
C4919 C4918 1.396 . S
C4919 C4920 1.395 . S
C4919 C4925 1.498 1_565 S
C4920 H4911 0.986 . S
C4920 C4919 1.395 . S
C4920 C4921 1.391 . S
C4921 H4909 0.950 . S
C4921 C4917 1.393 . S
C4921 C4920 1.391 . S
C4922 H4912 0.950 . S
C4922 C4923 1.386 . S
C4922 C4924 1.391 . S
C4923 C4922 1.386 . S
C4923 C4927 1.393 . S
C4924 H4913 0.950 . S
C4924 C4922 1.391 . S
C4924 C4925 1.400 . S
C4925 C4919 1.498 1_545 S
C4925 C4924 1.400 . S
C4925 C4926 1.398 . S
C4926 H4914 0.950 . S
C4926 C4925 1.398 . S
C4926 C4927 1.391 . S
C4927 H4915 0.950 . S
C4927 C4923 1.393 . S
C4927 C4926 1.391 . S
H4928 C4936 0.950 . S
H4929 C4941 0.950 . S
H4930 C4938 0.950 . S
H4931 C4940 0.950 . S
H4932 C4942 0.950 . S
H4933 C4944 0.950 . S
H4934 C4946 0.950 . S
H4935 C4947 0.950 . S
C4936 H4928 0.950 . S
C4936 C4937 1.386 . S
C4936 C4938 1.391 . S
C4937 C4936 1.386 . S
C4937 C4941 1.393 . S
C4938 H4930 0.950 . S
C4938 C4936 1.391 . S
C4938 C4939 1.400 . S
C4939 C4938 1.400 . S
C4939 C4940 1.398 . S
C4939 C4945 1.499 1_565 S
C4940 H4931 0.950 . S
C4940 C4939 1.398 . S
C4940 C4941 1.391 . S
C4941 H4929 0.950 . S
C4941 C4937 1.393 . S
C4941 C4940 1.391 . S
C4942 H4932 0.950 . S
C4942 C4943 1.386 . S
C4942 C4944 1.391 . S
C4943 C4942 1.386 . S
C4943 C4947 1.393 . S
C4944 H4933 0.950 . S
C4944 C4942 1.391 . S
C4944 C4945 1.396 . S
C4945 C4939 1.499 1_545 S
C4945 C4944 1.396 . S
C4945 C4946 1.394 . S
C4946 H4934 0.950 . S
C4946 C4945 1.394 . S
C4946 C4947 1.391 . S
C4947 H4935 0.950 . S
C4947 C4943 1.393 . S
C4947 C4946 1.391 . S
H4948 C4956 0.950 . S
H4949 C4961 0.950 . S
H4950 C4958 0.950 . S
H4951 C4960 0.979 . S
H4952 C4962 0.950 . S
H4953 C4964 0.950 . S
H4954 C4966 0.950 . S
H4955 C4967 0.950 . S
C4956 H4948 0.950 . S
C4956 C4957 1.386 . S
C4956 C4958 1.391 . S
C4957 C4956 1.386 . S
C4957 C4961 1.393 . S
C4958 H4950 0.950 . S
C4958 C4956 1.391 . S
C4958 C4959 1.397 . S
C4959 C4958 1.397 . S
C4959 C4960 1.396 . S
C4959 C4965 1.496 1_565 S
C4960 H4951 0.979 . S
C4960 C4959 1.396 . S
C4960 C4961 1.391 . S
C4961 H4949 0.950 . S
C4961 C4957 1.393 . S
C4961 C4960 1.391 . S
C4962 H4952 0.950 . S
C4962 C4963 1.386 . S
C4962 C4964 1.391 . S
C4963 C4962 1.386 . S
C4963 C4967 1.393 . S
C4964 H4953 0.950 . S
C4964 C4962 1.391 . S
C4964 C4965 1.400 . S
C4965 C4959 1.496 1_545 S
C4965 C4964 1.400 . S
C4965 C4966 1.398 . S
C4966 H4954 0.950 . S
C4966 C4965 1.398 . S
C4966 C4967 1.391 . S
C4967 H4955 0.950 . S
C4967 C4963 1.393 . S
C4967 C4966 1.391 . S
H4968 C4976 0.950 . S
H4969 C4981 0.950 . S
H4970 C4978 0.950 . S
H4971 C4980 0.950 . S
H4972 C4982 0.950 . S
H4973 C4984 0.950 . S
H4974 C4986 0.950 . S
H4975 C4987 0.950 . S
C4976 H4968 0.950 . S
C4976 C4977 1.386 . S
C4976 C4978 1.391 . S
C4977 C4976 1.386 . S
C4977 C4981 1.393 . S
C4978 H4970 0.950 . S
C4978 C4976 1.391 . S
C4978 C4979 1.396 . S
C4979 C4978 1.396 . S
C4979 C4980 1.393 . S
C4979 C4985 1.500 1_455 S
C4980 H4971 0.950 . S
C4980 C4979 1.393 . S
C4980 C4981 1.391 . S
C4981 H4969 0.950 . S
C4981 C4977 1.393 . S
C4981 C4980 1.391 . S
C4982 H4972 0.950 . S
C4982 C4983 1.386 . S
C4982 C4984 1.391 . S
C4983 C4982 1.386 . S
C4983 C4987 1.393 . S
C4984 H4973 0.950 . S
C4984 C4982 1.391 . S
C4984 C4985 1.400 . S
C4985 C4979 1.500 1_655 S
C4985 C4984 1.400 . S
C4985 C4986 1.398 . S
C4986 H4974 0.950 . S
C4986 C4985 1.398 . S
C4986 C4987 1.391 . S
C4987 H4975 0.950 . S
C4987 C4983 1.393 . S
C4987 C4986 1.391 . S
H4988 C4996 0.950 . S
H4989 C5001 0.950 . S
H4990 C4998 0.950 . S
H4991 C5000 0.973 . S
H4992 C5002 0.950 . S
H4993 C5004 0.950 . S
H4994 C5006 0.950 . S
H4995 C5007 0.950 . S
C4996 H4988 0.950 . S
C4996 C4997 1.386 . S
C4996 C4998 1.391 . S
C4997 C4996 1.386 . S
C4997 C5001 1.393 . S
C4998 H4990 0.950 . S
C4998 C4996 1.391 . S
C4998 C4999 1.397 . S
C4999 C4998 1.397 . S
C4999 C5000 1.396 . S
C4999 C5005 1.497 1_545 S
C5000 H4991 0.973 . S
C5000 C4999 1.396 . S
C5000 C5001 1.391 . S
C5001 H4989 0.950 . S
C5001 C4997 1.393 . S
C5001 C5000 1.391 . S
C5002 H4992 0.950 . S
C5002 C5003 1.386 . S
C5002 C5004 1.391 . S
C5003 C5002 1.386 . S
C5003 C5007 1.393 . S
C5004 H4993 0.950 . S
C5004 C5002 1.391 . S
C5004 C5005 1.400 . S
C5005 C4999 1.497 1_565 S
C5005 C5004 1.400 . S
C5005 C5006 1.398 . S
C5006 H4994 0.950 . S
C5006 C5005 1.398 . S
C5006 C5007 1.391 . S
C5007 H4995 0.950 . S
C5007 C5003 1.393 . S
C5007 C5006 1.391 . S
H5008 C5016 0.950 . S
H5009 C5021 0.950 . S
H5010 C5018 0.950 . S
H5011 C5020 0.950 . S
H5012 C5022 0.950 . S
H5013 C5024 0.950 . S
H5014 C5026 0.950 . S
H5015 C5027 0.950 . S
C5016 H5008 0.950 . S
C5016 C5017 1.386 . S
C5016 C5018 1.391 . S
C5017 C5016 1.386 . S
C5017 C5021 1.393 . S
C5018 H5010 0.950 . S
C5018 C5016 1.391 . S
C5018 C5019 1.398 . S
C5019 C5018 1.398 . S
C5019 C5020 1.396 . S
C5019 C5025 1.495 1_655 S
C5020 H5011 0.950 . S
C5020 C5019 1.396 . S
C5020 C5021 1.391 . S
C5021 H5009 0.950 . S
C5021 C5017 1.393 . S
C5021 C5020 1.391 . S
C5022 H5012 0.950 . S
C5022 C5023 1.386 . S
C5022 C5024 1.391 . S
C5023 C5022 1.386 . S
C5023 C5027 1.393 . S
C5024 H5013 0.950 . S
C5024 C5022 1.391 . S
C5024 C5025 1.400 . S
C5025 C5019 1.495 1_455 S
C5025 C5024 1.400 . S
C5025 C5026 1.398 . S
C5026 H5014 0.950 . S
C5026 C5025 1.398 . S
C5026 C5027 1.391 . S
C5027 H5015 0.950 . S
C5027 C5023 1.393 . S
C5027 C5026 1.391 . S
H5028 C5036 0.950 . S
H5029 C5041 0.950 . S
H5030 C5038 0.950 . S
H5031 C5040 0.950 . S
H5032 C5042 0.950 . S
H5033 C5044 0.950 . S
H5034 C5046 0.950 . S
H5035 C5047 0.950 . S
C5036 H5028 0.950 . S
C5036 C5037 1.386 . S
C5036 C5038 1.391 . S
C5037 C5036 1.386 . S
C5037 C5041 1.393 . S
C5038 H5030 0.950 . S
C5038 C5036 1.391 . S
C5038 C5039 1.400 . S
C5039 C5038 1.400 . S
C5039 C5040 1.398 . S
C5039 C5045 1.494 1_545 S
C5040 H5031 0.950 . S
C5040 C5039 1.398 . S
C5040 C5041 1.391 . S
C5041 H5029 0.950 . S
C5041 C5037 1.393 . S
C5041 C5040 1.391 . S
C5042 H5032 0.950 . S
C5042 C5043 1.386 . S
C5042 C5044 1.391 . S
C5043 C5042 1.386 . S
C5043 C5047 1.393 . S
C5044 H5033 0.950 . S
C5044 C5042 1.391 . S
C5044 C5045 1.398 . S
C5045 C5039 1.494 1_565 S
C5045 C5044 1.398 . S
C5045 C5046 1.396 . S
C5046 H5034 0.950 . S
C5046 C5045 1.396 . S
C5046 C5047 1.391 . S
C5047 H5035 0.950 . S
C5047 C5043 1.393 . S
C5047 C5046 1.391 . S
H5048 C5056 0.950 . S
H5049 C5061 0.950 . S
H5050 C5058 0.950 . S
H5051 C5060 0.950 . S
H5052 C5062 0.950 . S
H5053 C5064 0.950 . S
H5054 C5066 0.984 . S
H5055 C5067 0.950 . S
C5056 H5048 0.950 . S
C5056 C5057 1.386 . S
C5056 C5058 1.391 . S
C5057 C5056 1.386 . S
C5057 C5061 1.393 . S
C5058 H5050 0.950 . S
C5058 C5056 1.391 . S
C5058 C5059 1.400 . S
C5059 C5058 1.400 . S
C5059 C5060 1.398 . S
C5059 C5065 1.499 1_655 S
C5060 H5051 0.950 . S
C5060 C5059 1.398 . S
C5060 C5061 1.391 . S
C5061 H5049 0.950 . S
C5061 C5057 1.393 . S
C5061 C5060 1.391 . S
C5062 H5052 0.950 . S
C5062 C5063 1.386 . S
C5062 C5064 1.391 . S
C5063 C5062 1.386 . S
C5063 C5067 1.393 . S
C5064 H5053 0.950 . S
C5064 C5062 1.391 . S
C5064 C5065 1.395 . S
C5065 C5059 1.499 1_455 S
C5065 C5064 1.395 . S
C5065 C5066 1.394 . S
C5066 H5054 0.984 . S
C5066 C5065 1.394 . S
C5066 C5067 1.391 . S
C5067 H5055 0.950 . S
C5067 C5063 1.393 . S
C5067 C5066 1.391 . S
H5068 C5076 0.950 . S
H5069 C5081 0.950 . S
H5070 C5078 0.950 . S
H5071 C5080 0.950 . S
H5072 C5082 0.950 . S
H5073 C5084 0.950 . S
H5074 C5086 0.950 . S
H5075 C5087 0.950 . S
C5076 H5068 0.950 . S
C5076 C5077 1.386 . S
C5076 C5078 1.391 . S
C5077 C5076 1.386 . S
C5077 C5081 1.393 . S
C5078 H5070 0.950 . S
C5078 C5076 1.391 . S
C5078 C5079 1.398 . S
C5079 C5078 1.398 . S
C5079 C5080 1.396 . S
C5079 C5085 1.495 1_655 S
C5080 H5071 0.950 . S
C5080 C5079 1.396 . S
C5080 C5081 1.391 . S
C5081 H5069 0.950 . S
C5081 C5077 1.393 . S
C5081 C5080 1.391 . S
C5082 H5072 0.950 . S
C5082 C5083 1.386 . S
C5082 C5084 1.391 . S
C5083 C5082 1.386 . S
C5083 C5087 1.393 . S
C5084 H5073 0.950 . S
C5084 C5082 1.391 . S
C5084 C5085 1.400 . S
C5085 C5079 1.495 1_455 S
C5085 C5084 1.400 . S
C5085 C5086 1.398 . S
C5086 H5074 0.950 . S
C5086 C5085 1.398 . S
C5086 C5087 1.391 . S
C5087 H5075 0.950 . S
C5087 C5083 1.393 . S
C5087 C5086 1.391 . S
C1257 C3 1.215 . S
C1263 C408 1.239 . S
C1277 C16 1.222 . S
C1283 C369 1.235 . S
C1297 C380 1.228 . S
C1303 C29 1.217 . S
C1317 C393 1.228 . S
C1323 C44 1.197 . S
C1337 C330 1.227 . S
C1343 C57 1.212 . S
C1357 C341 1.240 . S
C1363 C68 1.203 . S
C1377 C83 1.194 . S
C1383 C354 1.231 . S
C1397 C315 1.228 . S
C1403 C96 1.215 . S
C1417 C108 1.191 . S
C1423 C576 1.235 . S
C1437 C122 1.222 . S
C1443 C536 1.233 . S
C1457 C134 1.196 . S
C1463 C550 1.229 . S
C1477 C148 1.219 . S
C1483 C564 1.229 . S
C1497 C166 1.209 . S
C1503 C615 1.243 . S
C1517 C174 1.195 . S
C1523 C590 1.230 . S
C1537 C192 1.196 . S
C1543 C602 1.241 . S
C1557 C523 1.228 . S
C1563 C198 1.217 . S
C1577 C211 1.199 . S
C1583 C510 1.228 . S
C1597 C432 1.226 . S
C1603 C226 1.209 . S
C1617 C452 1.239 . S
C1623 C244 1.220 . S
C1637 C252 1.198 . S
C1643 C458 1.238 . S
C1657 C426 1.233 . S
C1663 C264 1.191 . S
C1677 C486 1.229 . S
C1683 C278 1.196 . S
C1697 C296 1.220 . S
C1703 C504 1.240 . S
C1717 C309 1.201 . S
C1723 C472 1.227 . S
C1737 C1032 1.238 . S
C1743 C629 1.218 . S
C1757 C993 1.228 . S
C1763 C642 1.216 . S
C1777 C655 1.208 . S
C1783 C1006 1.226 . S
C1797 C1017 1.233 . S
C1803 C666 1.193 . S
C1817 C681 1.211 . S
C1823 C954 1.226 . S
C1837 C694 1.211 . S
C1843 C965 1.227 . S
C1857 C980 1.226 . S
C1863 C705 1.210 . S
C1877 C939 1.239 . S
C1883 C720 1.199 . S
C1897 C1200 1.239 . S
C1903 C738 1.194 . S
C1917 C1162 1.240 . S
C1923 C746 1.213 . S
C1937 C764 1.222 . S
C1943 C1180 1.237 . S
C1957 C772 1.194 . S
C1963 C1186 1.232 . S
C1977 C1239 1.227 . S
C1983 C784 1.208 . S
C1997 C1214 1.240 . S
C2003 C798 1.210 . S
C2017 C1232 1.238 . S
C2023 C810 1.221 . S
C2037 C822 1.194 . S
C2043 C1149 1.231 . S
C2057 C1134 1.226 . S
C2063 C837 1.205 . S
C2077 C848 1.199 . S
C2083 C1058 1.228 . S
C2097 C1076 1.243 . S
C2103 C862 1.215 . S
C2117 C1082 1.240 . S
C2123 C874 1.206 . S
C2137 C1044 1.227 . S
C2143 C888 1.211 . S
C2157 C902 1.193 . S
C2163 C1108 1.233 . S
C2177 C914 1.215 . S
C2183 C1122 1.243 . S
C2197 C1096 1.243 . S
C2203 C933 1.201 . S
C2217 C4 1.881 . S
C2223 C887 1.874 . S
C2237 C17 1.877 . S
C2243 C849 1.859 . S
C2257 C30 1.877 . S
C2263 C861 1.867 . S
C2277 C49 1.868 . S
C2283 C875 1.856 . S
C2297 C928 1.876 . S
C2303 C62 1.857 . S
C2317 C69 1.880 . S
C2323 C907 1.862 . S
C2337 C913 1.872 . S
C2343 C88 1.858 . S
C2357 C101 1.857 . S
C2363 C842 1.867 . S
C2377 C823 1.857 . S
C2383 C107 1.876 . S
C2397 C127 1.873 . S
C2403 C783 1.865 . S
C2417 C803 1.857 . S
C2423 C133 1.873 . S
C2437 C153 1.863 . S
C2443 C809 1.888 . S
C2457 C161 1.865 . S
C2463 C751 1.871 . S
C2477 C179 1.864 . S
C2483 C759 1.867 . S
C2497 C777 1.857 . S
C2503 C187 1.875 . S
C2517 C733 1.873 . S
C2523 C199 1.881 . S
C2537 C212 1.857 . S
C2543 C725 1.875 . S
C2557 C231 1.879 . S
C2563 C647 1.874 . S
C2577 C239 1.885 . S
C2583 C660 1.860 . S
C2597 C257 1.856 . S
C2603 C667 1.871 . S
C2617 C263 1.877 . S
C2623 C634 1.882 . S
C2637 C699 1.871 . S
C2643 C283 1.856 . S
C2657 C706 1.859 . S
C2663 C291 1.871 . S
C2677 C304 1.887 . S
C2683 C686 1.862 . S
C2697 C322 1.296 . S
C2703 C1201 1.300 . S
C2717 C329 1.305 . S
C2723 C1161 1.297 . S
C2737 C348 1.296 . S
C2743 C1173 1.300 . S
C2757 C361 1.301 . S
C2763 C1193 1.307 . S
C2777 C368 1.302 . S
C2783 C1240 1.291 . S
C2797 C1213 1.297 . S
C2803 C387 1.304 . S
C2817 C400 1.299 . S
C2823 C1225 1.304 . S
C2837 C407 1.304 . S
C2843 C1148 1.297 . S
C2857 C1141 1.296 . S
C2863 C419 1.295 . S
C2877 C1097 1.303 . S
C2883 C439 1.298 . S
C2897 C1115 1.303 . S
C2903 C445 1.304 . S
C2917 C1123 1.301 . S
C2923 C465 1.305 . S
C2937 C473 1.302 . S
C2943 C1057 1.304 . S
C2957 C485 1.296 . S
C2963 C1069 1.298 . S
C2977 C497 1.292 . S
C2983 C1089 1.304 . S
C2997 C1045 1.291 . S
C3003 C517 1.301 . S
C3017 C1031 1.303 . S
C3023 C530 1.297 . S
C3037 C543 1.304 . S
C3043 C953 1.306 . S
C3057 C972 1.297 . S
C3063 C551 1.294 . S
C3077 C979 1.302 . S
C3083 C563 1.307 . S
C3097 C577 1.292 . S
C3103 C946 1.302 . S
C3117 C589 1.298 . S
C3123 C1005 1.299 . S
C3137 C1024 1.296 . S
C3143 C603 1.301 . S
C3157 C616 1.291 . S
C3163 C992 1.300 . S
C3177 C10 1.876 . S
C3183 C374 1.838 . S
C3197 C23 1.875 . S
C3203 C381 1.830 . S
C3217 C36 1.869 . S
C3223 C394 1.848 . S
C3237 C43 1.870 . S
C3243 C413 1.830 . S
C3257 C316 1.846 . S
C3263 C56 1.868 . S
C3277 C75 1.866 . S
C3283 C335 1.839 . S
C3297 C342 1.830 . S
C3303 C82 1.876 . S
C3317 C355 1.844 . S
C3323 C95 1.866 . S
C3337 C109 1.879 . S
C3343 C499 1.851 . S
C3357 C511 1.830 . S
C3363 C121 1.879 . S
C3377 C135 1.869 . S
C3383 C471 1.862 . S
C3397 C147 1.876 . S
C3403 C491 1.839 . S
C3417 C159 1.880 . S
C3423 C447 1.847 . S
C3437 C173 1.877 . S
C3443 C459 1.835 . S
C3457 C185 1.872 . S
C3463 C421 1.852 . S
C3477 C433 1.835 . S
C3483 C205 1.878 . S
C3497 C218 1.867 . S
C3503 C595 1.835 . S
C3517 C225 1.875 . S
C3523 C569 1.827 . S
C3537 C575 1.845 . S
C3543 C237 1.879 . S
C3557 C251 1.874 . S
C3563 C537 1.833 . S
C3577 C549 1.847 . S
C3583 C265 1.877 . S
C3597 C277 1.875 . S
C3603 C524 1.827 . S
C3617 C614 1.861 . S
C3623 C289 1.871 . S
C3637 C601 1.859 . S
C3643 C302 1.873 . S
C3657 C628 1.872 . S
C3663 C998 1.846 . S
C3677 C641 1.866 . S
C3683 C1011 1.840 . S
C3697 C654 1.876 . S
C3703 C1018 1.839 . S
C3717 C1037 1.826 . S
C3723 C673 1.874 . S
C3737 C680 1.869 . S
C3743 C940 1.844 . S
C3757 C693 1.875 . S
C3763 C959 1.826 . S
C3777 C712 1.875 . S
C3783 C966 1.841 . S
C3797 C719 1.873 . S
C3803 C985 1.826 . S
C3817 C731 1.880 . S
C3823 C1121 1.849 . S
C3837 C1135 1.832 . S
C3843 C745 1.879 . S
C3857 C1095 1.858 . S
C3863 C757 1.869 . S
C3877 C1109 1.830 . S
C3883 C771 1.876 . S
C3897 C785 1.872 . S
C3903 C1071 1.853 . S
C3917 C1083 1.829 . S
C3923 C797 1.878 . S
C3937 C811 1.872 . S
C3943 C1043 1.853 . S
C3957 C1063 1.838 . S
C3963 C829 1.876 . S
C3977 C1219 1.840 . S
C3983 C836 1.870 . S
C3997 C1187 1.843 . S
C4003 C855 1.865 . S
C4017 C863 1.874 . S
C4023 C1199 1.858 . S
C4037 C881 1.871 . S
C4043 C1167 1.829 . S
C4057 C1175 1.849 . S
C4063 C889 1.880 . S
C4077 C901 1.871 . S
C4083 C1154 1.829 . S
C4097 C1238 1.860 . S
C4103 C915 1.872 . S
C4117 C1227 1.846 . S
C4123 C926 1.880 . S
C4137 C343 1.321 . S
C4143 C5 1.330 . S
C4157 C18 1.334 . S
C4163 C356 1.322 . S
C4177 C317 1.325 . S
C4183 C31 1.328 . S
C4197 C42 1.339 . S
C4203 C328 1.334 . S
C4217 C395 1.313 . S
C4223 C55 1.325 . S
C4237 C406 1.333 . S
C4243 C70 1.339 . S
C4257 C81 1.312 . S
C4263 C367 1.319 . S
C4277 C382 1.334 . S
C4283 C94 1.338 . S
C4297 C114 1.319 . S
C4303 C478 1.314 . S
C4317 C120 1.312 . S
C4323 C484 1.319 . S
C4337 C498 1.323 . S
C4343 C140 1.314 . S
C4357 C146 1.322 . S
C4363 C512 1.330 . S
C4377 C160 1.318 . S
C4383 C420 1.315 . S
C4397 C434 1.330 . S
C4403 C172 1.319 . S
C4417 C446 1.316 . S
C4423 C186 1.316 . S
C4437 C460 1.326 . S
C4443 C200 1.328 . S
C4457 C213 1.323 . S
C4463 C562 1.326 . S
C4477 C588 1.322 . S
C4483 C224 1.334 . S
C4497 C238 1.325 . S
C4503 C608 1.333 . S
C4517 C525 1.325 . S
C4523 C250 1.338 . S
C4537 C621 1.316 . S
C4543 C270 1.328 . S
C4557 C538 1.331 . S
C4563 C276 1.340 . S
C4577 C290 1.324 . S
C4583 C556 1.333 . S
C4597 C303 1.316 . S
C4603 C582 1.317 . S
C4617 C627 1.312 . S
C4623 C967 1.324 . S
C4637 C978 1.324 . S
C4643 C640 1.338 . S
C4657 C941 1.314 . S
C4663 C653 1.327 . S
C4677 C952 1.331 . S
C4683 C668 1.321 . S
C4697 C679 1.313 . S
C4703 C1019 1.318 . S
C4717 C1030 1.339 . S
C4723 C692 1.325 . S
C4737 C707 1.329 . S
C4743 C991 1.325 . S
C4757 C1004 1.323 . S
C4763 C718 1.336 . S
C4777 C732 1.330 . S
C4783 C1102 1.318 . S
C4797 C1110 1.323 . S
C4803 C744 1.312 . S
C4817 C758 1.322 . S
C4823 C1128 1.332 . S
C4837 C1136 1.312 . S
C4843 C770 1.322 . S
C4857 C1050 1.331 . S
C4863 C790 1.329 . S
C4877 C1056 1.322 . S
C4883 C796 1.330 . S
C4897 C1070 1.316 . S
C4903 C816 1.328 . S
C4917 C1084 1.312 . S
C4923 C824 1.323 . S
C4937 C835 1.337 . S
C4943 C1188 1.336 . S
C4957 C1212 1.322 . S
C4963 C850 1.334 . S
C4977 C1226 1.332 . S
C4983 C868 1.328 . S
C4997 C1147 1.323 . S
C5003 C876 1.336 . S
C5017 C1245 1.319 . S
C5023 C894 1.315 . S
C5037 C900 1.321 . S
C5043 C1160 1.332 . S
C5057 C920 1.325 . S
C5063 C1174 1.333 . S
C5077 C1206 1.315 . S
C5083 C927 1.318 . S
