# Generated by pormake.
# Topology usf, (4)-cn, num edge types: 1
# Building blocks:
#     Node 0, Type 0, BuildingBlock: MUDLON_clean_sbu_0, # of connection points: 4
#     Node 1, Type 0, BuildingBlock: MUDLON_clean_sbu_0, # of connection points: 4
#     Node 2, Type 0, BuildingBlock: MUDLON_clean_sbu_0, # of connection points: 4
#     Node 3, Type 0, BuildingBlock: MUDLON_clean_sbu_0, # of connection points: 4
#     Node 4, Type 0, BuildingBlock: MUDLON_clean_sbu_0, # of connection points: 4
#     Node 5, Type 0, BuildingBlock: MUDLON_clean_sbu_0, # of connection points: 4
#     Node 6, Type 0, BuildingBlock: MUDLON_clean_sbu_0, # of connection points: 4
#     Node 7, Type 0, BuildingBlock: MUDLON_clean_sbu_0, # of connection points: 4
#     Node 8, Type 0, BuildingBlock: MUDLON_clean_sbu_0, # of connection points: 4
#     Node 9, Type 0, BuildingBlock: MUDLON_clean_sbu_0, # of connection points: 4
#     Node 10, Type 0, BuildingBlock: MUDLON_clean_sbu_0, # of connection points: 4
#     Node 11, Type 0, BuildingBlock: MUDLON_clean_sbu_0, # of connection points: 4
#     Node 12, Type 0, BuildingBlock: MUDLON_clean_sbu_0, # of connection points: 4
#     Node 13, Type 0, BuildingBlock: MUDLON_clean_sbu_0, # of connection points: 4
#     Node 14, Type 0, BuildingBlock: MUDLON_clean_sbu_0, # of connection points: 4
#     Node 15, Type 0, BuildingBlock: MUDLON_clean_sbu_0, # of connection points: 4
#     Node 16, Type 0, BuildingBlock: MUDLON_clean_sbu_0, # of connection points: 4
#     Node 17, Type 0, BuildingBlock: MUDLON_clean_sbu_0, # of connection points: 4
#     Edge 18, Type (0, 0), BuildingBlock: AJUNOK_clean_linker_0, # of connection points: 2
#     Edge 19, Type (0, 0), BuildingBlock: AJUNOK_clean_linker_0, # of connection points: 2
#     Edge 20, Type (0, 0), BuildingBlock: AJUNOK_clean_linker_0, # of connection points: 2
#     Edge 21, Type (0, 0), BuildingBlock: AJUNOK_clean_linker_0, # of connection points: 2
#     Edge 22, Type (0, 0), BuildingBlock: AJUNOK_clean_linker_0, # of connection points: 2
#     Edge 23, Type (0, 0), BuildingBlock: AJUNOK_clean_linker_0, # of connection points: 2
#     Edge 24, Type (0, 0), BuildingBlock: AJUNOK_clean_linker_0, # of connection points: 2
#     Edge 25, Type (0, 0), BuildingBlock: AJUNOK_clean_linker_0, # of connection points: 2
#     Edge 26, Type (0, 0), BuildingBlock: AJUNOK_clean_linker_0, # of connection points: 2
#     Edge 27, Type (0, 0), BuildingBlock: AJUNOK_clean_linker_0, # of connection points: 2
#     Edge 28, Type (0, 0), BuildingBlock: AJUNOK_clean_linker_0, # of connection points: 2
#     Edge 29, Type (0, 0), BuildingBlock: AJUNOK_clean_linker_0, # of connection points: 2
#     Edge 30, Type (0, 0), BuildingBlock: AJUNOK_clean_linker_0, # of connection points: 2
#     Edge 31, Type (0, 0), BuildingBlock: AJUNOK_clean_linker_0, # of connection points: 2
#     Edge 32, Type (0, 0), BuildingBlock: AJUNOK_clean_linker_0, # of connection points: 2
#     Edge 33, Type (0, 0), BuildingBlock: AJUNOK_clean_linker_0, # of connection points: 2
#     Edge 34, Type (0, 0), BuildingBlock: AJUNOK_clean_linker_0, # of connection points: 2
#     Edge 35, Type (0, 0), BuildingBlock: AJUNOK_clean_linker_0, # of connection points: 2
#     Edge 36, Type (0, 0), BuildingBlock: AJUNOK_clean_linker_0, # of connection points: 2
#     Edge 37, Type (0, 0), BuildingBlock: AJUNOK_clean_linker_0, # of connection points: 2
#     Edge 38, Type (0, 0), BuildingBlock: AJUNOK_clean_linker_0, # of connection points: 2
#     Edge 39, Type (0, 0), BuildingBlock: AJUNOK_clean_linker_0, # of connection points: 2
#     Edge 40, Type (0, 0), BuildingBlock: AJUNOK_clean_linker_0, # of connection points: 2
#     Edge 41, Type (0, 0), BuildingBlock: AJUNOK_clean_linker_0, # of connection points: 2
#     Edge 42, Type (0, 0), BuildingBlock: AJUNOK_clean_linker_0, # of connection points: 2
#     Edge 43, Type (0, 0), BuildingBlock: AJUNOK_clean_linker_0, # of connection points: 2
#     Edge 44, Type (0, 0), BuildingBlock: AJUNOK_clean_linker_0, # of connection points: 2
#     Edge 45, Type (0, 0), BuildingBlock: AJUNOK_clean_linker_0, # of connection points: 2
#     Edge 46, Type (0, 0), BuildingBlock: AJUNOK_clean_linker_0, # of connection points: 2
#     Edge 47, Type (0, 0), BuildingBlock: AJUNOK_clean_linker_0, # of connection points: 2
#     Edge 48, Type (0, 0), BuildingBlock: AJUNOK_clean_linker_0, # of connection points: 2
#     Edge 49, Type (0, 0), BuildingBlock: AJUNOK_clean_linker_0, # of connection points: 2
#     Edge 50, Type (0, 0), BuildingBlock: AJUNOK_clean_linker_0, # of connection points: 2
#     Edge 51, Type (0, 0), BuildingBlock: AJUNOK_clean_linker_0, # of connection points: 2
#     Edge 52, Type (0, 0), BuildingBlock: AJUNOK_clean_linker_0, # of connection points: 2
#     Edge 53, Type (0, 0), BuildingBlock: AJUNOK_clean_linker_0, # of connection points: 2
# Relax obj value: 0.161
# Max RMSD: 0.154
# Mean RMSD: 0.149
data_MOF--net-usf--node1-MUDLON_clean_sbu_0--edge1-AJUNOK_clean_linker_0
_symmetry_space_group_name_H-M    P1
_symmetry_Int_Tables_number       1
_symmetry_cell_setting            triclinic
loop_
_symmetry_equiv_pos_as_xyz
'x, y, z'
_cell_length_a     36.505953
_cell_length_b     36.670876
_cell_length_c     21.497459
_cell_angle_alpha  90.900958
_cell_angle_beta   89.812026
_cell_angle_gamma 120.62118
loop_
_atom_site_label
_atom_site_type_symbol
_atom_site_fract_x
_atom_site_fract_y
_atom_site_fract_z
_atom_type_partial_charge
Mg0 Mg 0.97594 0.49671 0.02551 0.0
C1 C 1.00722 0.43817 0.95555 0.0
O2 O 0.97794 0.43193 0.91448 0.0
C3 C 0.9044 0.52271 0.03864 0.0
O4 O 0.87948 0.48542 0.01256 0.0
C5 C 0.95781 0.51675 0.88845 0.0
O6 O 0.91789 0.48907 0.90069 0.0
O7 O 0.98661 0.52248 0.92711 0.0
O8 O 1.01238 0.46139 1.00339 0.0
O9 O 0.97087 0.47922 0.12804 0.0
C10 C 0.93858 0.47128 0.16076 0.0
O11 O 0.90349 0.464 0.13296 0.0
O12 O 0.94327 0.53476 0.04926 0.0
Mg13 Mg 0.53054 0.6044 0.08222 0.0
C14 C 0.58137 0.69144 0.0482 0.0
O15 O 0.54243 0.68344 0.05783 0.0
C16 C 0.49014 0.51742 0.12055 0.0
O17 O 0.4613 0.5287 0.12403 0.0
C18 C 0.49534 0.56852 0.95611 0.0
O19 O 0.50315 0.53974 0.97722 0.0
O20 O 0.49672 0.5962 0.99423 0.0
O21 O 0.58933 0.66194 0.05821 0.0
O22 O 0.51222 0.61602 0.17419 0.0
C23 C 0.54316 0.63229 0.21294 0.0
O24 O 0.58186 0.64728 0.19135 0.0
O25 O 0.52713 0.5445 0.10101 0.0
Mg26 Mg 0.59151 1.01232 0.03693 0.0
C27 C 0.61032 0.04307 0.90427 0.0
O28 O 0.63932 0.0322 0.90967 0.0
C29 C 0.55352 0.04101 0.14084 0.0
O30 O 0.52022 1.02399 0.10355 0.0
C31 C 0.51867 0.93614 0.97194 0.0
O32 O 0.54682 0.94881 0.92709 0.0
O33 O 0.53106 0.95264 0.02604 0.0
O34 O 0.59057 0.04388 0.95269 0.0
O35 O 0.65117 1.01229 0.04435 0.0
C36 C 0.66599 1.01232 0.09798 0.0
O37 O 0.64172 1.00575 0.14671 0.0
O38 O 0.58741 0.04249 0.12271 0.0
Mg39 Mg 0.51515 1.00961 0.52459 0.0
C40 C 0.51711 0.94357 0.44008 0.0
O41 O 0.50673 0.96301 0.39918 0.0
C42 C 0.4538 1.02839 0.59061 0.0
O43 O 0.48948 0.0524 0.6211 0.0
C44 C 0.51961 0.05059 0.40243 0.0
O45 O 0.47927 0.03509 0.41607 0.0
O46 O 0.54385 0.04927 0.44362 0.0
O47 O 0.51684 0.95239 0.49763 0.0
O48 O 0.55408 0.03277 0.60922 0.0
C49 C 0.53617 1.01076 0.65705 0.0
O50 O 0.4982 0.97681 0.65076 0.0
O51 O 0.45367 1.00548 0.5452 0.0
Mg52 Mg 1.00758 0.58192 0.52921 0.0
C53 C 0.06089 0.67637 0.51222 0.0
O54 O 1.02815 0.67358 0.54216 0.0
C55 C 0.98236 0.50306 0.58791 0.0
O56 O 0.94835 0.50634 0.582 0.0
C57 C 0.98594 0.53318 0.41445 0.0
O58 O 1.02014 0.53441 0.43629 0.0
O59 O 0.97042 0.55195 0.44554 0.0
O60 O 0.06232 0.6427 0.50291 0.0
O61 O 0.97707 0.59043 0.60988 0.0
C62 C 1.00392 0.6051 0.65437 0.0
O63 O 0.04445 0.62309 0.64014 0.0
O64 O 1.01756 0.53259 0.56661 0.0
Mg65 Mg 0.56753 0.56235 0.57793 0.0
C66 C 0.49845 0.471 0.55081 0.0
O67 O 0.48698 0.47433 0.60761 0.0
C68 C 0.66203 0.58442 0.57182 0.0
O69 O 0.65502 0.57962 0.51152 0.0
C70 C 0.53257 0.58833 0.47355 0.0
O71 O 0.49861 0.55477 0.49506 0.0
O72 O 0.56741 0.60275 0.50377 0.0
O73 O 0.53337 0.50101 0.53016 0.0
O74 O 0.53244 0.56028 0.66234 0.0
C75 C 0.53991 0.59265 0.69505 0.0
O76 O 0.56838 0.63039 0.67536 0.0
O77 O 0.63188 0.579 0.60769 0.0
Mg78 Mg 0.69804 0.86077 0.38167 0.0
C79 C 0.62958 0.88294 0.36144 0.0
O80 O 0.65711 0.90661 0.31899 0.0
C81 C 0.68614 0.78148 0.32094 0.0
O82 O 0.6715 0.79541 0.27726 0.0
C83 C 0.7494 0.8793 0.50432 0.0
O84 O 0.75982 0.85208 0.48296 0.0
O85 O 0.72948 0.89113 0.46921 0.0
O86 O 0.63664 0.85752 0.39159 0.0
O87 O 0.7289 0.89083 0.29442 0.0
C88 C 0.76481 0.92354 0.28334 0.0
O89 O 0.78858 0.94777 0.32963 0.0
O90 O 0.69501 0.80014 0.37386 0.0
Mg91 Mg 0.23203 0.92647 0.36645 0.0
C92 C 0.22037 0.90078 0.23314 0.0
O93 O 0.18705 0.90437 0.24541 0.0
C94 C 0.2706 0.95538 0.49153 0.0
O95 O 0.24272 0.96789 0.4889 0.0
C96 C 0.24786 1.0061 0.30555 0.0
O97 O 0.26805 0.99329 0.26886 0.0
O98 O 0.2278 0.98349 0.35206 0.0
O99 O 0.2468 0.90791 0.27687 0.0
O100 O 0.17603 0.86912 0.39956 0.0
C101 C 0.18341 0.83875 0.40312 0.0
O102 O 0.22094 0.84574 0.38562 0.0
O103 O 0.2767 0.93925 0.44249 0.0
Mg104 Mg 0.26087 0.33787 0.3706 0.0
C105 C 0.27645 0.36431 0.2393 0.0
O106 O 0.29164 0.33866 0.2411 0.0
C107 C 0.26015 0.38004 0.49244 0.0
O108 O 0.30145 0.39713 0.48575 0.0
C109 C 0.1753 0.25731 0.35777 0.0
O110 O 0.16901 0.27104 0.41124 0.0
O111 O 0.2128 0.27539 0.33575 0.0
O112 O 0.26607 0.3748 0.29011 0.0
O113 O 0.32127 0.34617 0.40217 0.0
C114 C 0.35659 0.37698 0.38414 0.0
O115 O 0.35652 0.40003 0.33803 0.0
O116 O 0.23546 0.3552 0.44995 0.0
Mg117 Mg 0.18074 0.34465 0.86551 0.0
C118 C 0.12998 0.38285 0.91276 0.0
O119 O 0.16828 0.40927 0.93465 0.0
C120 C 0.19193 0.26719 0.86458 0.0
O121 O 0.20593 0.28094 0.9213 0.0
C122 C 0.19987 0.35551 1.001 0.0
O123 O 0.15807 0.33332 1.00002 0.0
O124 O 0.21977 0.36569 0.94965 0.0
O125 O 0.12407 0.35056 0.88095 0.0
O126 O 0.21311 0.38185 0.78468 0.0
C127 C 0.18932 0.37176 0.73675 0.0
O128 O 0.14831 0.34535 0.74352 0.0
O129 O 0.1745 0.2842 0.83467 0.0
Mg130 Mg 0.76193 0.93735 0.89829 0.0
C131 C 0.74342 0.90027 0.77317 0.0
O132 O 0.70646 0.88696 0.79994 0.0
C133 C 0.80224 0.96728 0.02368 0.0
O134 O 0.79442 0.99751 1.01062 0.0
C135 C 0.74548 1.00361 0.83982 0.0
O136 O 0.71883 0.97087 0.80535 0.0
O137 O 0.76409 0.99762 0.88515 0.0
O138 O 0.77685 0.92153 0.80628 0.0
O139 O 0.70277 0.88202 0.92771 0.0
C140 C 0.70732 0.84999 0.93391 0.0
O141 O 0.7439 0.85384 0.91802 0.0
O142 O 0.79932 0.94196 0.98014 0.0
Mg143 Mg 0.26146 0.85458 0.84566 0.0
C144 C 0.30085 0.90449 0.73008 0.0
O145 O 0.31743 0.88001 0.73084 0.0
C146 C 0.24695 0.85345 0.98382 0.0
O147 O 0.2598 0.82596 0.97853 0.0
C148 C 0.16885 0.78232 0.82821 0.0
O149 O 0.16619 0.79358 0.88558 0.0
O150 O 0.2054 0.79943 0.80269 0.0
O151 O 0.27777 0.90297 0.77571 0.0
O152 O 0.31971 0.8527 0.86424 0.0
C153 C 0.34511 0.88155 0.90232 0.0
O154 O 0.33447 0.90829 0.92514 0.0
O155 O 0.24342 0.87055 0.9348 0.0
Mg156 Mg 0.34847 0.16983 0.72277 0.0
C157 C 0.28768 0.20169 0.7408 0.0
O158 O 0.31895 0.23284 0.71044 0.0
C159 C 0.34669 0.0963 0.64955 0.0
O160 O 0.33727 0.11317 0.6034 0.0
C161 C 0.39242 0.18037 0.84676 0.0
O162 O 0.37299 0.13893 0.8408 0.0
O163 O 0.38995 0.20153 0.80225 0.0
O164 O 0.28941 0.16836 0.75079 0.0
O165 O 0.37471 0.20769 0.63981 0.0
C166 C 0.34884 0.20328 0.59692 0.0
O167 O 0.30798 0.17668 0.60477 0.0
O168 O 0.34861 0.11078 0.70455 0.0
Mg169 Mg 0.90724 0.25062 0.71179 0.0
C170 C 0.90428 0.2387 0.57435 0.0
O171 O 0.88521 0.26069 0.58127 0.0
C172 C 0.94335 0.26576 0.83619 0.0
O173 O 0.91782 0.2812 0.83796 0.0
C174 C 0.95169 0.33964 0.66998 0.0
O175 O 0.97706 0.32624 0.65062 0.0
O176 O 0.91802 0.31403 0.69914 0.0
O177 O 0.91723 0.22881 0.62258 0.0
O178 O 0.8468 0.20283 0.75096 0.0
C179 C 0.82329 0.16743 0.72337 0.0
O180 O 0.82995 0.16342 0.66425 0.0
O181 O 0.94946 0.25298 0.78399 0.0
Mg182 Mg 0.92818 0.7144 0.67352 0.0
C183 C 0.94934 0.72629 0.5416 0.0
O184 O 0.94741 0.69075 0.55664 0.0
C185 C 0.89744 0.75473 0.77771 0.0
O186 O 0.86793 0.75019 0.73822 0.0
C187 C 0.83098 0.64883 0.68205 0.0
O188 O 0.8354 0.66007 0.74112 0.0
O189 O 0.86414 0.66232 0.64866 0.0
O190 O 0.94474 0.7479 0.58473 0.0
O191 O 0.97782 0.70015 0.69996 0.0
C192 C 1.01592 0.72454 0.68177 0.0
O193 O 1.02282 0.75264 0.63925 0.0
O194 O 0.92516 0.74568 0.75977 0.0
Mg195 Mg 0.86238 0.72009 0.17358 0.0
C196 C 0.7876 0.70841 0.24867 0.0
O197 O 0.80885 0.70113 0.29106 0.0
C198 C 0.84753 0.63969 0.10829 0.0
O199 O 0.83271 0.65358 0.06481 0.0
C200 C 0.9244 0.7351 0.27714 0.0
O201 O 0.93014 0.70965 0.24007 0.0
O202 O 0.90043 0.74852 0.25835 0.0
O203 O 0.80126 0.71484 0.19302 0.0
O204 O 0.88867 0.75232 0.0852 0.0
C205 C 0.86348 0.7513 0.04333 0.0
O206 O 0.8233 0.73599 0.05774 0.0
O207 O 0.85887 0.65946 0.16025 0.0
Mg208 Mg 0.38962 0.25476 0.21988 0.0
C209 C 0.41591 0.25463 0.09118 0.0
O210 O 0.39944 0.27918 0.09132 0.0
C211 C 0.40109 0.27735 0.35322 0.0
O212 O 0.38896 0.30255 0.33033 0.0
C213 C 0.43925 0.3457 0.19634 0.0
O214 O 0.46744 0.33419 0.20597 0.0
O215 O 0.39991 0.3177 0.20091 0.0
O216 O 0.4196 0.2402 0.14285 0.0
O217 O 0.32605 0.19793 0.21746 0.0
C218 C 0.30522 0.18273 0.26739 0.0
O219 O 0.31548 0.20771 0.31642 0.0
O220 O 0.41013 0.25597 0.31549 0.0
Mg221 Mg 0.93258 0.16649 0.19779 0.0
C222 C 0.96295 0.19993 0.0684 0.0
O223 O 0.96956 0.1679 0.06771 0.0
C224 C 0.92416 0.17892 0.33092 0.0
O225 O 0.92861 0.14555 0.32878 0.0
C226 C 0.84948 0.1076 0.13203 0.0
O227 O 0.86926 0.13657 0.08971 0.0
O228 O 0.86956 0.10975 0.18165 0.0
O229 O 0.94858 0.20763 0.1178 0.0
O230 O 0.98673 0.15972 0.22431 0.0
C231 C 1.02364 0.18944 0.20904 0.0
O232 O 1.02673 0.21929 0.17268 0.0
O233 O 0.92426 0.19623 0.28007 0.0
C234 C 0.98786 0.49282 0.3212 0.0
C235 C 0.96868 0.51273 0.35284 0.0
C236 C 0.9762 0.47733 0.26021 0.0
C237 C 0.94445 0.48053 0.22846 0.0
H238 H 1.01326 0.49035 0.3428 0.0
H239 H 0.99317 0.46391 0.23705 0.0
S240 S 0.88212 0.52721 0.29126 0.0
N241 N 0.91462 0.53274 0.34864 0.0
N242 N 0.89232 0.50316 0.23404 0.0
C243 C 0.92331 0.49829 0.26046 0.0
C244 C 0.93552 0.51452 0.32261 0.0
C245 C 0.5689 0.63821 0.38513 0.0
C246 C 0.53182 0.60388 0.40993 0.0
C247 C 0.57113 0.64903 0.32225 0.0
C248 C 0.53637 0.6261 0.28129 0.0
H249 H 0.59717 0.65585 0.41376 0.0
H250 H 0.60111 0.67451 0.305 0.0
S251 S 0.43061 0.53542 0.32345 0.0
N252 N 0.4583 0.54872 0.38888 0.0
N253 N 0.46277 0.56907 0.27116 0.0
C254 C 0.49825 0.59334 0.30619 0.0
C255 C 0.49594 0.58221 0.37028 0.0
C256 C 0.51104 0.04874 0.22646 0.0
C257 C 0.54931 0.0519 0.20658 0.0
C258 C 0.50311 0.05166 0.28969 0.0
C259 C 0.53302 0.05769 0.33599 0.0
H260 H 0.48606 0.04209 0.19323 0.0
H261 H 0.47227 0.04694 0.3024 0.0
S262 S 0.64089 0.07408 0.3081 0.0
N263 N 0.61954 0.06626 0.23806 0.0
N264 N 0.60455 0.07148 0.35667 0.0
C265 C 0.57275 0.06412 0.31645 0.0
C266 C 0.5809 0.06126 0.2519 0.0
C267 C 0.94893 0.55512 0.72895 0.0
C268 C 0.99053 0.58886 0.7182 0.0
C269 C 0.93841 0.53254 0.7846 0.0
C270 C 0.96907 0.54271 0.83157 0.0
H271 H 0.92478 0.54452 0.69296 0.0
H272 H 0.90633 0.50599 0.78979 0.0
S273 S 0.08087 0.63251 0.83032 0.0
N274 N 0.0612 0.63448 0.76232 0.0
N275 N 1.04158 0.59205 0.8664 0.0
C276 C 1.01001 0.57817 0.82308 0.0
C277 C 1.02063 0.6013 0.76666 0.0
C278 C 0.49841 0.54633 0.7842 0.0
C279 C 0.52156 0.58717 0.75887 0.0
C280 C 0.487 0.54046 0.84725 0.0
C281 C 0.49764 0.57504 0.8877 0.0
H282 H 0.49091 0.51861 0.75603 0.0
H283 H 0.47151 0.50857 0.86516 0.0
S284 S 0.5534 0.68828 0.84365 0.0
N285 N 0.55112 0.6627 0.7785 0.0
N286 N 0.52939 0.65148 0.89665 0.0
C287 C 0.51788 0.61583 0.86214 0.0
C288 C 0.52993 0.62193 0.79791 0.0
C289 C 0.61776 0.04972 0.78825 0.0
C290 C 0.59247 0.04174 0.8417 0.0
C291 C 0.59981 0.04163 0.72819 0.0
C292 C 0.55576 1.02403 0.71967 0.0
H293 H 0.65148 0.06118 0.79289 0.0
H294 H 0.62021 0.04725 0.6884 0.0
S295 S 0.47584 0.99971 0.84354 0.0
N296 N 0.52128 1.01792 0.88137 0.0
N297 N 0.48767 1.00125 0.76912 0.0
C298 C 0.53038 1.01722 0.77247 0.0
C299 C 0.5487 1.0265 0.83334 0.0
C300 C 0.78298 0.90211 0.67518 0.0
C301 C 0.74519 0.89454 0.70463 0.0
C302 C 0.78456 0.89725 0.61015 0.0
C303 C 0.74881 0.88594 0.57236 0.0
H304 H 0.81137 0.91147 0.70252 0.0
H305 H 0.81397 0.90277 0.58928 0.0
S306 S 0.64191 0.86092 0.62584 0.0
N307 N 0.67075 0.87359 0.68999 0.0
N308 N 0.67434 0.86565 0.5689 0.0
C309 C 0.71101 0.87825 0.60112 0.0
C310 C 0.70905 0.88227 0.66692 0.0
C311 C 0.31533 0.91616 0.61584 0.0
C312 C 0.30149 0.92602 0.67154 0.0
C313 C 0.30801 0.92843 0.55785 0.0
C314 C 0.28673 0.95125 0.5531 0.0
H315 H 0.32969 0.89661 0.61645 0.0
H316 H 0.31702 0.9178 0.51634 0.0
S317 S 0.25307 0.99349 0.68582 0.0
N318 N 0.27201 0.96609 0.71881 0.0
N319 N 0.25843 0.98938 0.61018 0.0
C320 C 0.27661 0.96496 0.60883 0.0
C321 C 0.28397 0.95233 0.66789 0.0
C322 C 0.26875 0.39865 0.60608 0.0
C323 C 0.24262 0.3845 0.55262 0.0
C324 C 0.25176 0.39708 0.66526 0.0
C325 C 0.20797 0.3814 0.67335 0.0
H326 H 0.30228 0.40906 0.6028 0.0
H327 H 0.27285 0.4062 0.70516 0.0
S328 S 0.12725 0.34764 0.54711 0.0
N329 N 0.17175 0.35939 0.51074 0.0
N330 N 0.13985 0.35674 0.62169 0.0
C331 C 0.1821 0.37026 0.61973 0.0
C332 C 0.19939 0.37167 0.55949 0.0
C333 C 0.80651 0.976 0.2 0.0
C334 C 0.77923 0.9338 0.21782 0.0
C335 C 0.81616 0.98648 0.13702 0.0
C336 C 0.79999 0.95507 0.08977 0.0
H337 H 0.81899 1.0013 0.23461 0.0
H338 H 0.83548 1.01953 0.12499 0.0
S339 S 0.73257 0.83911 0.11295 0.0
N340 N 0.73988 0.85995 0.18364 0.0
N341 N 0.75888 0.8795 0.06608 0.0
C342 C 0.77542 0.91247 0.10755 0.0
C343 C 0.7648 0.90189 0.17134 0.0
C344 C 0.25799 0.85909 0.09932 0.0
C345 C 0.23965 0.86606 0.04658 0.0
C346 C 0.25218 0.87097 0.15929 0.0
C347 C 0.22717 0.88962 0.1691 0.0
H348 H 0.27742 0.84468 0.09433 0.0
H349 H 0.26692 0.8649 0.19832 0.0
S350 S 0.17244 0.91517 0.04672 0.0
N351 N 0.1959 0.89343 1.00819 0.0
N352 N 0.18442 0.91517 0.12071 0.0
C353 C 0.20864 0.8968 0.11678 0.0
C354 C 0.21506 0.88523 0.05562 0.0
C355 C 0.26172 0.36611 0.06527 0.0
C356 C 0.22285 0.36524 0.06109 0.0
C357 C 0.28041 0.36848 0.12332 0.0
C358 C 0.26137 0.37101 0.17903 0.0
H359 H 0.27656 0.3625 0.02376 0.0
H360 H 0.30911 0.36666 0.12468 0.0
S361 S 0.16173 0.37449 0.19238 0.0
N362 N 0.16765 0.37042 0.11691 0.0
N363 N 0.203 0.37568 0.22572 0.0
C364 C 0.224 0.3731 0.17504 0.0
C365 C 0.20464 0.36992 0.11611 0.0
C366 C 0.42625 0.26203 0.97685 0.0
C367 C 0.42142 0.23843 0.03039 0.0
C368 C 0.42024 0.24395 0.91723 0.0
C369 C 0.40876 0.20129 0.90858 0.0
H370 H 0.43228 0.29412 0.98109 0.0
H371 H 0.42196 0.26293 0.87799 0.0
S372 S 0.39995 0.12814 0.03317 0.0
N373 N 0.41044 0.17207 0.07077 0.0
N374 N 0.39911 0.13781 0.95857 0.0
C375 C 0.40789 0.17854 0.96146 0.0
C376 C 0.41427 0.19718 0.02241 0.0
C377 C 0.94501 0.26604 0.95223 0.0
C378 C 0.95703 0.25574 0.89531 0.0
C379 C 0.94928 0.24975 1.00842 0.0
C380 C 0.96583 0.22252 1.01016 0.0
H381 H 0.93018 0.28518 0.95332 0.0
H382 H 0.93756 0.25703 0.05036 0.0
S383 S 1.00976 0.19247 0.87578 0.0
N384 N 0.99181 0.22147 0.84532 0.0
N385 N 1.00001 0.19095 0.95103 0.0
C386 C 0.98136 0.2149 0.95434 0.0
C387 C 0.97699 0.23155 0.89695 0.0
C388 C 0.84803 0.75881 0.93205 0.0
C389 C 0.87675 0.75985 0.97677 0.0
C390 C 0.8562 0.75978 0.86801 0.0
C391 C 0.89337 0.76163 0.84554 0.0
H392 H 0.81808 0.75559 0.94641 0.0
H393 H 0.83207 0.75706 0.83591 0.0
S394 S 0.9815 0.77022 0.94303 0.0
N395 N 0.94592 0.76685 0.9938 0.0
N396 N 0.96127 0.76866 0.8738 0.0
C397 C 0.92366 0.76536 0.8898 0.0
C398 C 0.91536 0.7645 0.95517 0.0
C399 C 0.41581 0.25226 0.45291 0.0
C400 C 0.39058 0.26365 0.41849 0.0
C401 C 0.40318 0.23455 0.51223 0.0
C402 C 0.3642 0.22631 0.53793 0.0
H403 H 0.44509 0.25645 0.43345 0.0
H404 H 0.42313 0.22553 0.53688 0.0
S405 S 0.28632 0.24972 0.46641 0.0
N406 N 0.32524 0.26623 0.41537 0.0
N407 N 0.30089 0.23136 0.52505 0.0
C408 C 0.33905 0.23805 0.50433 0.0
C409 C 0.35242 0.25718 0.44508 0.0
C410 C 0.92536 0.17897 0.44706 0.0
C411 C 0.91942 0.19559 0.39189 0.0
C412 C 0.92081 0.19341 0.50561 0.0
C413 C 0.90979 0.22485 0.51159 0.0
H414 H 0.93368 0.15454 0.44527 0.0
H415 H 0.92554 0.17935 0.54652 0.0
S416 S 0.89158 0.27961 0.38178 0.0
N417 N 0.90264 0.24591 0.34705 0.0
N418 N 0.89389 0.27295 0.45713 0.0
C419 C 0.90399 0.24203 0.45685 0.0
C420 C 0.90889 0.22746 0.39708 0.0
C421 C 0.92897 0.75627 0.45232 0.0
C422 C 0.95072 0.73656 0.4746 0.0
C423 C 0.9227 0.75811 0.38802 0.0
C424 C 0.93831 0.74065 0.34362 0.0
H425 H 0.9144 0.768 0.4847 0.0
H426 H 0.90362 0.77138 0.37333 0.0
S427 S 1.00337 0.6917 0.37812 0.0
N428 N 0.99167 0.70335 0.44704 0.0
N429 N 0.98121 0.70785 0.32714 0.0
C430 C 0.963 0.72394 0.36549 0.0
C431 C 0.96882 0.72159 0.43066 0.0
C432 C 0.06699 0.42759 0.98967 0.0
C433 C 1.03569 0.42035 0.94505 0.0
C434 C 0.09629 0.41409 0.97945 0.0
C435 C 0.09537 0.39219 0.92456 0.0
H436 H 0.06962 0.44471 0.03253 0.0
H437 H 0.12033 0.42141 0.01471 0.0
S438 S 1.02068 0.36531 0.79242 0.0
N439 N 1.00594 0.38957 0.84318 0.0
N440 N 0.06073 0.36378 0.82497 0.0
C441 C 0.06368 0.38358 0.88024 0.0
C442 C 1.03401 0.39777 0.89019 0.0
C443 C 0.68064 0.77528 0.9662 0.0
C444 C 0.67405 0.80992 0.96235 0.0
C445 C 0.651 0.73746 0.99483 0.0
C446 C 0.61351 0.73258 0.02105 0.0
H447 H 0.70902 0.77725 0.94698 0.0
H448 H 0.6574 0.71167 0.99571 0.0
S449 S 0.58122 0.81384 0.02467 0.0
N450 N 0.62721 0.83688 0.98797 0.0
N451 N 0.57161 0.76607 0.04202 0.0
C452 C 0.60651 0.76701 0.01778 0.0
C453 C 0.63671 0.80553 0.98841 0.0
C454 C 0.40137 0.90028 0.98221 0.0
C455 C 0.38652 0.88666 0.92108 0.0
C456 C 0.4432 0.91282 0.99959 0.0
C457 C 0.47233 0.91313 0.95617 0.0
H458 H 0.38088 0.90275 0.01651 0.0
H459 H 0.45333 0.92477 0.0466 0.0
S460 S 0.44812 0.87743 0.79081 0.0
N461 N 0.40299 0.87133 0.81801 0.0
N462 N 0.48197 0.89552 0.84988 0.0
C463 C 0.45706 0.89722 0.89559 0.0
C464 C 0.4141 0.88386 0.87822 0.0
C465 C 0.39643 0.04267 0.55852 0.0
C466 C 0.41688 0.0333 0.60547 0.0
C467 C 0.37078 0.06 0.57339 0.0
C468 C 0.36454 0.06836 0.63573 0.0
H469 H 0.40298 0.03984 0.51005 0.0
H470 H 0.35799 0.06932 0.53547 0.0
S471 S 0.4032 0.03951 0.7755 0.0
N472 N 0.42366 1.02676 0.71633 0.0
N473 N 0.375 0.05837 0.74455 0.0
C474 C 0.3811 0.05458 0.68294 0.0
C475 C 0.40744 0.03736 0.6677 0.0
C476 C 0.99578 0.40847 0.61503 0.0
C477 C 0.96156 0.38315 0.6549 0.0
C478 C 1.00385 0.44831 0.59575 0.0
C479 C 0.97785 0.46419 0.61534 0.0
H480 H 1.01588 0.397 0.597 0.0
H481 H 1.02946 0.4659 0.56325 0.0
S482 S 0.88818 0.41362 0.72679 0.0
N483 N 0.90445 0.37928 0.71843 0.0
N484 N 0.91931 0.45372 0.68182 0.0
C485 C 0.94498 0.44029 0.65771 0.0
C486 C 0.93691 0.3999 0.6776 0.0
C487 C 0.75143 0.61436 0.68959 0.0
C488 C 0.78779 0.62767 0.65242 0.0
C489 C 0.71102 0.59965 0.66315 0.0
C490 C 0.70498 0.59753 0.59816 0.0
H491 H 0.75421 0.6163 0.73987 0.0
H492 H 0.68444 0.59061 0.69419 0.0
S493 S 0.78936 0.62677 0.47941 0.0
N494 N 0.81463 0.63614 0.54656 0.0
N495 N 0.73899 0.60864 0.49706 0.0
C496 C 0.74082 0.60942 0.56027 0.0
C497 C 0.78205 0.62438 0.58723 0.0
C498 C 0.89013 0.60484 0.12743 0.0
C499 C 0.85811 0.60646 0.0933 0.0
C500 C 0.90469 0.57748 0.1096 0.0
C501 C 0.88724 0.55004 0.05775 0.0
H502 H 0.90522 0.62592 0.167 0.0
H503 H 0.92996 0.57796 0.13659 0.0
S504 S 0.80104 0.53992 0.95489 0.0
N505 N 0.80834 0.57695 1.0064 0.0
N506 N 0.83513 0.5249 0.97384 0.0
C507 C 0.85415 0.55012 0.02459 0.0
C508 C 0.83977 0.5785 0.04209 0.0
C509 C 0.42426 0.40414 0.17717 0.0
C510 C 0.45332 0.38975 0.17742 0.0
C511 C 0.43667 0.44536 0.15882 0.0
C512 C 0.47864 0.474 0.13949 0.0
H513 H 0.39162 0.38349 0.19151 0.0
H514 H 0.41289 0.45468 0.15977 0.0
S515 S 0.56708 0.45195 0.1309 0.0
N516 N 0.5262 0.40753 0.15628 0.0
N517 N 0.54924 0.48481 0.12167 0.0
C518 C 0.50806 0.46006 0.13944 0.0
C519 C 0.49549 0.41806 0.15845 0.0
C520 C 0.78442 0.07162 0.06498 0.0
C521 C 0.80308 0.07683 0.12406 0.0
C522 C 0.74023 0.04808 0.05615 0.0
C523 C 0.71245 1.02905 0.10644 0.0
H524 H 0.80412 0.08711 0.02525 0.0
H525 H 0.72784 0.04676 1.00993 0.0
S526 S 0.74495 1.02885 0.27008 0.0
N527 N 0.79029 0.05796 0.23316 0.0
N528 N 0.70714 1.01336 0.2169 0.0
C529 C 0.73069 0.03167 0.16535 0.0
C530 C 0.77594 0.05567 0.17418 0.0
C531 C 0.55604 0.92776 0.35791 0.0
C532 C 0.53916 0.92085 0.41852 0.0
C533 C 0.58346 0.91345 0.33909 0.0
C534 C 0.59484 0.89103 0.37961 0.0
H535 H 0.54994 0.94638 0.32544 0.0
H536 H 0.59702 0.9214 0.29292 0.0
S537 S 0.55491 0.85965 0.54056 0.0
N538 N 0.53277 0.88671 0.51716 0.0
N539 N 0.58375 0.85913 0.48157 0.0
C540 C 0.57593 0.88134 0.43897 0.0
C541 C 0.54832 0.89645 0.45846 0.0
C542 C 0.09034 0.75412 0.49544 0.0
C543 C 0.09334 0.7176 0.48529 0.0
C544 C 0.11885 0.79289 0.46775 0.0
C545 C 0.15195 0.79697 0.42937 0.0
H546 H 0.06552 0.75281 0.52471 0.0
H547 H 0.11526 0.81999 0.4773 0.0
S548 S 0.17369 0.71114 0.38682 0.0
N549 N 0.13205 0.68823 0.43312 0.0
N550 N 0.18572 0.76089 0.3818 0.0
C551 C 0.15543 0.76079 0.4189 0.0
C552 C 0.12623 0.72126 0.44672 0.0
C553 C 0.43444 0.42667 0.4022 0.0
C554 C 0.39541 0.39315 0.42359 0.0
C555 C 0.46916 0.44944 0.44267 0.0
C556 C 0.46615 0.43982 0.50637 0.0
H557 H 0.43753 0.43708 0.35457 0.0
H558 H 0.49744 0.4767 0.42461 0.0
S559 S 0.37392 0.3501 0.58356 0.0
N560 N 0.35799 0.34783 0.51111 0.0
N561 N 0.42323 0.39062 0.58684 0.0
C562 C 0.42875 0.40397 0.52708 0.0
C563 C 0.39341 0.3806 0.48579 0.0
C564 C 0.75207 0.72867 0.33054 0.0
C565 C 0.75412 0.71784 0.26801 0.0
C566 C 0.72715 0.74611 0.34831 0.0
C567 C 0.70303 0.75322 0.30435 0.0
H568 H 0.77192 0.72623 0.36562 0.0
H569 H 0.72892 0.75639 0.39629 0.0
S570 S 0.68956 0.7208 0.1375 0.0
N571 N 0.72447 0.70885 0.16406 0.0
N572 N 0.67701 0.74093 0.19743 0.0
C573 C 0.70132 0.73836 0.24292 0.0
C574 C 0.72708 0.72094 0.22473 0.0
C575 C 0.27822 0.10906 0.22598 0.0
C576 C 0.28052 0.13584 0.27535 0.0
C577 C 0.26497 0.06639 0.23576 0.0
C578 C 0.25302 0.04844 0.29513 0.0
H579 H 0.28918 0.12163 0.18 0.0
H580 H 0.26595 0.04781 0.19679 0.0
S581 S 0.24722 0.10292 0.43846 0.0
N582 N 0.26486 0.13973 0.3848 0.0
N583 N 0.23996 0.0595 0.40276 0.0
C584 C 0.25163 0.07372 0.34387 0.0
C585 C 0.26534 0.11739 0.33405 0.0
C586 C 0.09748 0.20539 0.34297 0.0
C587 C 0.13803 0.23076 0.31662 0.0
C588 C 0.06027 0.18832 0.30654 0.0
C589 C 0.06226 0.19671 0.2426 0.0
H590 H 0.0943 0.20068 0.39276 0.0
H591 H 1.02975 0.17137 0.3296 0.0
S592 S 0.16035 0.25628 0.14912 0.0
N593 N 0.17779 0.2591 0.22082 0.0
N594 N 0.10793 0.22796 0.15312 0.0
C595 C 0.10257 0.21925 0.21483 0.0
C596 C 0.14046 0.23599 0.2516 0.0
C597 C 0.24101 0.23311 0.73729 0.0
C598 C 0.25475 0.20898 0.76934 0.0
C599 C 0.21723 0.24862 0.76709 0.0
C600 C 0.20719 0.24161 0.83075 0.0
H601 H 0.25036 0.2417 0.68939 0.0
H602 H 0.20938 0.2688 0.74102 0.0
S603 S 0.23253 0.17727 0.93435 0.0
N604 N 0.25349 0.17579 0.8668 0.0
N605 N 0.20994 0.20592 0.92346 0.0
C606 C 0.21867 0.21549 0.86239 0.0
C607 C 0.24213 0.19892 0.83156 0.0
C608 C 0.76304 0.09271 0.73297 0.0
C609 C 0.79794 0.1286 0.76037 0.0
C610 C 0.74417 0.05304 0.76154 0.0
C611 C 0.7601 0.04738 0.81804 0.0
H612 H 0.75132 0.09491 0.68778 0.0
H613 H 0.71839 1.02618 0.73718 0.0
S614 S 0.84975 0.13228 0.91055 0.0
N615 N 0.84597 0.15675 0.84934 0.0
N616 N 0.81158 0.08226 0.90204 0.0
C617 C 0.79359 0.08365 0.84757 0.0
C618 C 0.81226 0.1242 0.81898 0.0
C619 C 0.13091 0.7634 0.72488 0.0
C620 C 0.12925 0.75824 0.78983 0.0
C621 C 0.09366 0.74932 0.68939 0.0
C622 C 0.05309 0.72885 0.71705 0.0
H623 H 0.1613 0.78101 0.70167 0.0
H624 H 0.09688 0.75655 0.64032 0.0
S625 S 1.03069 0.70046 0.88346 0.0
N626 N 0.08315 0.72632 0.879 0.0
N627 N 1.01334 0.69911 0.81215 0.0
C628 C 0.05073 0.71991 0.78088 0.0
C629 C 0.08873 0.73487 0.81727 0.0
loop_
_geom_bond_atom_site_label_1
_geom_bond_atom_site_label_2
_geom_bond_distance
_geom_bond_site_symmetry_2
_ccdc_geom_bond_type
Mg0 O7 2.141 1_554 S
Mg0 O8 2.046 1_554 S
Mg0 O9 2.048 . S
Mg0 O12 2.141 . S
C1 O2 1.313 . S
C1 O8 1.195 1_554 S
O2 C1 1.313 . S
C3 O4 1.245 . S
C3 O12 1.289 1_655 S
O4 C3 1.245 . S
C5 O6 1.245 1_455 S
C5 O7 1.289 . S
O6 C5 1.245 1_655 S
O7 Mg0 2.141 1_556 S
O7 C5 1.289 . S
O8 Mg0 2.046 1_556 S
O8 C1 1.195 1_556 S
O9 Mg0 2.048 . S
O9 C10 1.195 . S
C10 O9 1.195 . S
C10 O11 1.313 1_455 S
O11 C10 1.313 1_655 S
O12 Mg0 2.141 . S
O12 C3 1.289 1_455 S
Mg13 O20 2.141 1_554 S
Mg13 O21 2.050 . S
Mg13 O22 2.048 . S
Mg13 O25 2.141 . S
C14 O15 1.313 . S
C14 O21 1.195 . S
O15 C14 1.313 . S
C16 O17 1.245 . S
C16 O25 1.289 . S
O17 C16 1.245 . S
C18 O19 1.245 . S
C18 O20 1.289 . S
O19 C18 1.245 . S
O20 Mg13 2.141 1_556 S
O20 C18 1.289 . S
O21 Mg13 2.050 . S
O21 C14 1.195 . S
O22 Mg13 2.048 . S
O22 C23 1.195 . S
C23 O22 1.195 . S
C23 O24 1.313 . S
O24 C23 1.313 . S
O25 Mg13 2.141 . S
O25 C16 1.289 . S
Mg26 O33 2.141 1_545 S
Mg26 O34 2.048 1_554 S
Mg26 O35 2.048 . S
Mg26 O38 2.141 . S
C27 O28 1.313 1_545 S
C27 O34 1.195 . S
O28 C27 1.313 1_565 S
C29 O30 1.245 . S
C29 O38 1.289 1_565 S
O30 C29 1.245 . S
C31 O32 1.245 . S
C31 O33 1.289 1_556 S
O32 C31 1.245 . S
O33 Mg26 2.141 1_565 S
O33 C31 1.289 1_554 S
O34 Mg26 2.048 1_556 S
O34 C27 1.195 . S
O35 Mg26 2.048 . S
O35 C36 1.195 . S
C36 O35 1.195 . S
C36 O37 1.313 . S
O37 C36 1.313 . S
O38 Mg26 2.141 . S
O38 C29 1.289 1_545 S
Mg39 O46 2.141 . S
Mg39 O47 2.048 . S
Mg39 O48 2.048 . S
Mg39 O51 2.141 . S
C40 O41 1.313 . S
C40 O47 1.195 1_565 S
O41 C40 1.313 . S
C42 O43 1.245 . S
C42 O51 1.289 . S
O43 C42 1.245 . S
C44 O45 1.245 1_545 S
C44 O46 1.289 . S
O45 C44 1.245 1_565 S
O46 Mg39 2.141 . S
O46 C44 1.289 . S
O47 Mg39 2.048 . S
O47 C40 1.195 1_545 S
O48 Mg39 2.048 . S
O48 C49 1.195 . S
C49 O48 1.195 . S
C49 O50 1.313 1_545 S
O50 C49 1.313 1_565 S
O51 Mg39 2.141 . S
O51 C42 1.289 . S
Mg52 O59 2.143 . S
Mg52 O60 2.048 1_655 S
Mg52 O61 2.048 1_655 S
Mg52 O64 2.143 . S
C53 O54 1.313 . S
C53 O60 1.195 . S
O54 C53 1.313 . S
C55 O56 1.245 1_655 S
C55 O64 1.289 . S
O56 C55 1.245 1_455 S
C57 O58 1.245 . S
C57 O59 1.289 1_455 S
O58 C57 1.245 . S
O59 Mg52 2.143 . S
O59 C57 1.289 1_655 S
O60 Mg52 2.048 1_455 S
O60 C53 1.195 . S
O61 Mg52 2.048 1_455 S
O61 C62 1.195 . S
C62 O61 1.195 . S
C62 O63 1.313 . S
O63 C62 1.313 . S
O64 Mg52 2.143 . S
O64 C55 1.289 . S
Mg65 O72 2.141 . S
Mg65 O73 2.048 . S
Mg65 O74 2.048 . S
Mg65 O77 2.141 . S
C66 O67 1.313 . S
C66 O73 1.195 . S
O67 C66 1.313 . S
C68 O69 1.245 . S
C68 O77 1.289 . S
O69 C68 1.245 . S
C70 O71 1.245 . S
C70 O72 1.289 . S
O71 C70 1.245 . S
O72 Mg65 2.141 . S
O72 C70 1.289 . S
O73 Mg65 2.048 . S
O73 C66 1.195 . S
O74 Mg65 2.048 . S
O74 C75 1.195 . S
C75 O74 1.195 . S
C75 O76 1.313 . S
O76 C75 1.313 . S
O77 Mg65 2.141 . S
O77 C68 1.289 . S
Mg78 O85 2.141 . S
Mg78 O86 2.048 . S
Mg78 O87 2.048 . S
Mg78 O90 2.141 . S
C79 O80 1.313 . S
C79 O86 1.195 . S
O80 C79 1.313 . S
C81 O82 1.245 . S
C81 O90 1.289 . S
O82 C81 1.245 . S
C83 O84 1.245 . S
C83 O85 1.289 . S
O84 C83 1.245 . S
O85 Mg78 2.141 . S
O85 C83 1.289 . S
O86 Mg78 2.048 . S
O86 C79 1.195 . S
O87 Mg78 2.048 . S
O87 C88 1.195 . S
C88 O87 1.195 . S
C88 O89 1.313 . S
O89 C88 1.313 . S
O90 Mg78 2.141 . S
O90 C81 1.289 . S
Mg91 O98 2.141 . S
Mg91 O99 2.048 . S
Mg91 O100 2.048 . S
Mg91 O103 2.141 . S
C92 O93 1.313 . S
C92 O99 1.195 . S
O93 C92 1.313 . S
C94 O95 1.245 . S
C94 O103 1.289 . S
O95 C94 1.245 . S
C96 O97 1.245 . S
C96 O98 1.289 . S
O97 C96 1.245 . S
O98 Mg91 2.141 . S
O98 C96 1.289 . S
O99 Mg91 2.048 . S
O99 C92 1.195 . S
O100 Mg91 2.048 . S
O100 C101 1.195 . S
C101 O100 1.195 . S
C101 O102 1.313 . S
O102 C101 1.313 . S
O103 Mg91 2.141 . S
O103 C94 1.289 . S
Mg104 O111 2.141 . S
Mg104 O112 2.048 . S
Mg104 O113 2.048 . S
Mg104 O116 2.141 . S
C105 O106 1.313 . S
C105 O112 1.195 . S
O106 C105 1.313 . S
C107 O108 1.245 . S
C107 O116 1.289 . S
O108 C107 1.245 . S
C109 O110 1.245 . S
C109 O111 1.289 . S
O110 C109 1.245 . S
O111 Mg104 2.141 . S
O111 C109 1.289 . S
O112 Mg104 2.048 . S
O112 C105 1.195 . S
O113 Mg104 2.048 . S
O113 C114 1.195 . S
C114 O113 1.195 . S
C114 O115 1.313 . S
O115 C114 1.313 . S
O116 Mg104 2.141 . S
O116 C107 1.289 . S
Mg117 O124 2.141 . S
Mg117 O125 2.048 . S
Mg117 O126 2.048 . S
Mg117 O129 2.141 . S
C118 O119 1.313 . S
C118 O125 1.195 . S
O119 C118 1.313 . S
C120 O121 1.245 . S
C120 O129 1.289 . S
O121 C120 1.245 . S
C122 O123 1.245 . S
C122 O124 1.289 . S
O123 C122 1.245 . S
O124 Mg117 2.141 . S
O124 C122 1.289 . S
O125 Mg117 2.048 . S
O125 C118 1.195 . S
O126 Mg117 2.048 . S
O126 C127 1.195 . S
C127 O126 1.195 . S
C127 O128 1.313 . S
O128 C127 1.313 . S
O129 Mg117 2.141 . S
O129 C120 1.289 . S
Mg130 O137 2.141 . S
Mg130 O138 2.048 . S
Mg130 O139 2.048 . S
Mg130 O142 2.141 . S
C131 O132 1.313 . S
C131 O138 1.195 . S
O132 C131 1.313 . S
C133 O134 1.245 . S
C133 O142 1.289 . S
O134 C133 1.245 . S
C135 O136 1.245 . S
C135 O137 1.289 . S
O136 C135 1.245 . S
O137 Mg130 2.141 . S
O137 C135 1.289 . S
O138 Mg130 2.048 . S
O138 C131 1.195 . S
O139 Mg130 2.048 . S
O139 C140 1.195 . S
C140 O139 1.195 . S
C140 O141 1.313 . S
O141 C140 1.313 . S
O142 Mg130 2.141 . S
O142 C133 1.289 . S
Mg143 O150 2.141 . S
Mg143 O151 2.048 . S
Mg143 O152 2.048 . S
Mg143 O155 2.141 . S
C144 O145 1.313 . S
C144 O151 1.195 . S
O145 C144 1.313 . S
C146 O147 1.245 . S
C146 O155 1.289 . S
O147 C146 1.245 . S
C148 O149 1.245 . S
C148 O150 1.289 . S
O149 C148 1.245 . S
O150 Mg143 2.141 . S
O150 C148 1.289 . S
O151 Mg143 2.048 . S
O151 C144 1.195 . S
O152 Mg143 2.048 . S
O152 C153 1.195 . S
C153 O152 1.195 . S
C153 O154 1.313 . S
O154 C153 1.313 . S
O155 Mg143 2.141 . S
O155 C146 1.289 . S
Mg156 O163 2.141 . S
Mg156 O164 2.048 . S
Mg156 O165 2.048 . S
Mg156 O168 2.141 . S
C157 O158 1.313 . S
C157 O164 1.195 . S
O158 C157 1.313 . S
C159 O160 1.245 . S
C159 O168 1.289 . S
O160 C159 1.245 . S
C161 O162 1.245 . S
C161 O163 1.289 . S
O162 C161 1.245 . S
O163 Mg156 2.141 . S
O163 C161 1.289 . S
O164 Mg156 2.048 . S
O164 C157 1.195 . S
O165 Mg156 2.048 . S
O165 C166 1.195 . S
C166 O165 1.195 . S
C166 O167 1.313 . S
O167 C166 1.313 . S
O168 Mg156 2.141 . S
O168 C159 1.289 . S
Mg169 O176 2.141 . S
Mg169 O177 2.048 . S
Mg169 O178 2.048 . S
Mg169 O181 2.141 . S
C170 O171 1.313 . S
C170 O177 1.195 . S
O171 C170 1.313 . S
C172 O173 1.245 . S
C172 O181 1.289 . S
O173 C172 1.245 . S
C174 O175 1.245 . S
C174 O176 1.289 . S
O175 C174 1.245 . S
O176 Mg169 2.141 . S
O176 C174 1.289 . S
O177 Mg169 2.048 . S
O177 C170 1.195 . S
O178 Mg169 2.048 . S
O178 C179 1.195 . S
C179 O178 1.195 . S
C179 O180 1.313 . S
O180 C179 1.313 . S
O181 Mg169 2.141 . S
O181 C172 1.289 . S
Mg182 O189 2.141 . S
Mg182 O190 2.048 . S
Mg182 O191 2.048 . S
Mg182 O194 2.141 . S
C183 O184 1.313 . S
C183 O190 1.195 . S
O184 C183 1.313 . S
C185 O186 1.245 . S
C185 O194 1.289 . S
O186 C185 1.245 . S
C187 O188 1.245 . S
C187 O189 1.289 . S
O188 C187 1.245 . S
O189 Mg182 2.141 . S
O189 C187 1.289 . S
O190 Mg182 2.048 . S
O190 C183 1.195 . S
O191 Mg182 2.048 . S
O191 C192 1.195 . S
C192 O191 1.195 . S
C192 O193 1.313 . S
O193 C192 1.313 . S
O194 Mg182 2.141 . S
O194 C185 1.289 . S
Mg195 O202 2.141 . S
Mg195 O203 2.048 . S
Mg195 O204 2.048 . S
Mg195 O207 2.141 . S
C196 O197 1.313 . S
C196 O203 1.195 . S
O197 C196 1.313 . S
C198 O199 1.245 . S
C198 O207 1.289 . S
O199 C198 1.245 . S
C200 O201 1.245 . S
C200 O202 1.289 . S
O201 C200 1.245 . S
O202 Mg195 2.141 . S
O202 C200 1.289 . S
O203 Mg195 2.048 . S
O203 C196 1.195 . S
O204 Mg195 2.048 . S
O204 C205 1.195 . S
C205 O204 1.195 . S
C205 O206 1.313 . S
O206 C205 1.313 . S
O207 Mg195 2.141 . S
O207 C198 1.289 . S
Mg208 O215 2.141 . S
Mg208 O216 2.048 . S
Mg208 O217 2.048 . S
Mg208 O220 2.141 . S
C209 O210 1.313 . S
C209 O216 1.195 . S
O210 C209 1.313 . S
C211 O212 1.245 . S
C211 O220 1.289 . S
O212 C211 1.245 . S
C213 O214 1.245 . S
C213 O215 1.289 . S
O214 C213 1.245 . S
O215 Mg208 2.141 . S
O215 C213 1.289 . S
O216 Mg208 2.048 . S
O216 C209 1.195 . S
O217 Mg208 2.048 . S
O217 C218 1.195 . S
C218 O217 1.195 . S
C218 O219 1.313 . S
O219 C218 1.313 . S
O220 Mg208 2.141 . S
O220 C211 1.289 . S
Mg221 O228 2.141 . S
Mg221 O229 2.048 . S
Mg221 O230 2.048 . S
Mg221 O233 2.141 . S
C222 O223 1.313 . S
C222 O229 1.195 . S
O223 C222 1.313 . S
C224 O225 1.245 . S
C224 O233 1.289 . S
O225 C224 1.245 . S
C226 O227 1.245 . S
C226 O228 1.289 . S
O227 C226 1.245 . S
O228 Mg221 2.141 . S
O228 C226 1.289 . S
O229 Mg221 2.048 . S
O229 C222 1.195 . S
O230 Mg221 2.048 . S
O230 C231 1.195 . S
C231 O230 1.195 . S
C231 O232 1.313 . S
O232 C231 1.313 . S
O233 Mg221 2.141 . S
O233 C224 1.289 . S
C234 C235 1.369 . S
C234 C236 1.419 . S
C234 H238 0.930 . S
C235 C234 1.369 . S
C235 C244 1.429 1_455 S
C236 C234 1.419 . S
C236 C237 1.363 . S
C236 H239 0.929 . S
C237 C236 1.363 . S
C237 C243 1.428 1_455 S
H238 C234 0.930 . S
H239 C236 0.929 . S
S240 N241 1.613 . S
S240 N242 1.610 . S
N241 S240 1.613 . S
N241 C244 1.350 . S
N242 S240 1.610 . S
N242 C243 1.351 . S
C243 C237 1.428 1_655 S
C243 N242 1.351 . S
C243 C244 1.434 . S
C244 C235 1.429 1_655 S
C244 N241 1.350 . S
C244 C243 1.434 . S
C245 C246 1.369 . S
C245 C247 1.419 . S
C245 H249 0.930 . S
C246 C245 1.369 . S
C246 C255 1.429 . S
C247 C245 1.419 . S
C247 C248 1.363 . S
C247 H250 0.929 . S
C248 C247 1.363 . S
C248 C254 1.428 . S
H249 C245 0.930 . S
H250 C247 0.929 . S
S251 N252 1.613 . S
S251 N253 1.610 . S
N252 S251 1.613 . S
N252 C255 1.350 . S
N253 S251 1.610 . S
N253 C254 1.351 . S
C254 C248 1.428 . S
C254 N253 1.351 . S
C254 C255 1.434 . S
C255 C246 1.429 . S
C255 N252 1.350 . S
C255 C254 1.434 . S
C256 C257 1.369 . S
C256 C258 1.419 . S
C256 H260 0.930 . S
C257 C256 1.369 . S
C257 C266 1.429 1_565 S
C258 C256 1.419 . S
C258 C259 1.363 1_565 S
C258 H261 0.929 . S
C259 C258 1.363 1_545 S
C259 C265 1.428 . S
H260 C256 0.930 . S
H261 C258 0.929 . S
S262 N263 1.613 . S
S262 N264 1.610 . S
N263 S262 1.613 . S
N263 C266 1.350 . S
N264 S262 1.610 . S
N264 C265 1.351 . S
C265 C259 1.428 . S
C265 N264 1.351 . S
C265 C266 1.434 . S
C266 C257 1.429 1_545 S
C266 N263 1.350 . S
C266 C265 1.434 . S
C267 C268 1.369 . S
C267 C269 1.419 . S
C267 H271 0.930 . S
C268 C267 1.369 . S
C268 C277 1.429 . S
C269 C267 1.419 . S
C269 C270 1.363 . S
C269 H272 0.929 . S
C270 C269 1.363 . S
C270 C276 1.428 . S
H271 C267 0.930 . S
H272 C269 0.929 . S
S273 N274 1.613 . S
S273 N275 1.610 . S
N274 S273 1.613 . S
N274 C277 1.350 . S
N275 S273 1.610 . S
N275 C276 1.351 . S
C276 C270 1.428 . S
C276 N275 1.351 . S
C276 C277 1.434 . S
C277 C268 1.429 . S
C277 N274 1.350 . S
C277 C276 1.434 . S
C278 C279 1.369 . S
C278 C280 1.419 . S
C278 H282 0.930 . S
C279 C278 1.369 . S
C279 C288 1.429 . S
C280 C278 1.419 . S
C280 C281 1.363 . S
C280 H283 0.929 . S
C281 C280 1.363 . S
C281 C287 1.428 . S
H282 C278 0.930 . S
H283 C280 0.929 . S
S284 N285 1.613 . S
S284 N286 1.610 . S
N285 S284 1.613 . S
N285 C288 1.350 . S
N286 S284 1.610 . S
N286 C287 1.351 . S
C287 C281 1.428 . S
C287 N286 1.351 . S
C287 C288 1.434 . S
C288 C279 1.429 . S
C288 N285 1.350 . S
C288 C287 1.434 . S
C289 C290 1.369 . S
C289 C291 1.419 . S
C289 H293 0.930 . S
C290 C289 1.369 . S
C290 C299 1.429 1_545 S
C291 C289 1.419 . S
C291 C292 1.363 . S
C291 H294 0.929 . S
C292 C291 1.363 . S
C292 C298 1.428 1_545 S
H293 C289 0.930 . S
H294 C291 0.929 . S
S295 N296 1.613 . S
S295 N297 1.610 . S
N296 S295 1.613 . S
N296 C299 1.350 . S
N297 S295 1.610 . S
N297 C298 1.351 . S
C298 C292 1.428 1_565 S
C298 N297 1.351 . S
C298 C299 1.434 . S
C299 C290 1.429 1_565 S
C299 N296 1.350 . S
C299 C298 1.434 . S
C300 C301 1.369 . S
C300 C302 1.419 . S
C300 H304 0.930 . S
C301 C300 1.369 . S
C301 C310 1.429 . S
C302 C300 1.419 . S
C302 C303 1.363 . S
C302 H305 0.929 . S
C303 C302 1.363 . S
C303 C309 1.428 . S
H304 C300 0.930 . S
H305 C302 0.929 . S
S306 N307 1.613 . S
S306 N308 1.610 . S
N307 S306 1.613 . S
N307 C310 1.350 . S
N308 S306 1.610 . S
N308 C309 1.351 . S
C309 C303 1.428 . S
C309 N308 1.351 . S
C309 C310 1.434 . S
C310 C301 1.429 . S
C310 N307 1.350 . S
C310 C309 1.434 . S
C311 C312 1.369 . S
C311 C313 1.419 . S
C311 H315 0.930 . S
C312 C311 1.369 . S
C312 C321 1.429 . S
C313 C311 1.419 . S
C313 C314 1.363 . S
C313 H316 0.929 . S
C314 C313 1.363 . S
C314 C320 1.428 . S
H315 C311 0.930 . S
H316 C313 0.929 . S
S317 N318 1.613 . S
S317 N319 1.610 . S
N318 S317 1.613 . S
N318 C321 1.350 . S
N319 S317 1.610 . S
N319 C320 1.351 . S
C320 C314 1.428 . S
C320 N319 1.351 . S
C320 C321 1.434 . S
C321 C312 1.429 . S
C321 N318 1.350 . S
C321 C320 1.434 . S
C322 C323 1.369 . S
C322 C324 1.419 . S
C322 H326 0.930 . S
C323 C322 1.369 . S
C323 C332 1.429 . S
C324 C322 1.419 . S
C324 C325 1.363 . S
C324 H327 0.929 . S
C325 C324 1.363 . S
C325 C331 1.428 . S
H326 C322 0.930 . S
H327 C324 0.929 . S
S328 N329 1.613 . S
S328 N330 1.610 . S
N329 S328 1.613 . S
N329 C332 1.350 . S
N330 S328 1.610 . S
N330 C331 1.351 . S
C331 C325 1.428 . S
C331 N330 1.351 . S
C331 C332 1.434 . S
C332 C323 1.429 . S
C332 N329 1.350 . S
C332 C331 1.434 . S
C333 C334 1.369 . S
C333 C335 1.419 . S
C333 H337 0.930 . S
C334 C333 1.369 . S
C334 C343 1.429 . S
C335 C333 1.419 . S
C335 C336 1.363 . S
C335 H338 0.929 . S
C336 C335 1.363 . S
C336 C342 1.428 . S
H337 C333 0.930 . S
H338 C335 0.929 . S
S339 N340 1.613 . S
S339 N341 1.610 . S
N340 S339 1.613 . S
N340 C343 1.350 . S
N341 S339 1.610 . S
N341 C342 1.351 . S
C342 C336 1.428 . S
C342 N341 1.351 . S
C342 C343 1.434 . S
C343 C334 1.429 . S
C343 N340 1.350 . S
C343 C342 1.434 . S
C344 C345 1.369 . S
C344 C346 1.419 . S
C344 H348 0.930 . S
C345 C344 1.369 . S
C345 C354 1.429 . S
C346 C344 1.419 . S
C346 C347 1.363 . S
C346 H349 0.929 . S
C347 C346 1.363 . S
C347 C353 1.428 . S
H348 C344 0.930 . S
H349 C346 0.929 . S
S350 N351 1.613 . S
S350 N352 1.610 . S
N351 S350 1.613 . S
N351 C354 1.350 . S
N352 S350 1.610 . S
N352 C353 1.351 . S
C353 C347 1.428 . S
C353 N352 1.351 . S
C353 C354 1.434 . S
C354 C345 1.429 . S
C354 N351 1.350 . S
C354 C353 1.434 . S
C355 C356 1.369 . S
C355 C357 1.419 . S
C355 H359 0.930 . S
C356 C355 1.369 . S
C356 C365 1.429 . S
C357 C355 1.419 . S
C357 C358 1.363 . S
C357 H360 0.929 . S
C358 C357 1.363 . S
C358 C364 1.428 . S
H359 C355 0.930 . S
H360 C357 0.929 . S
S361 N362 1.613 . S
S361 N363 1.610 . S
N362 S361 1.613 . S
N362 C365 1.350 . S
N363 S361 1.610 . S
N363 C364 1.351 . S
C364 C358 1.428 . S
C364 N363 1.351 . S
C364 C365 1.434 . S
C365 C356 1.429 . S
C365 N362 1.350 . S
C365 C364 1.434 . S
C366 C367 1.369 1_556 S
C366 C368 1.419 . S
C366 H370 0.930 . S
C367 C366 1.369 1_554 S
C367 C376 1.429 1_554 S
C368 C366 1.419 . S
C368 C369 1.363 . S
C368 H371 0.929 . S
C369 C368 1.363 . S
C369 C375 1.428 . S
H370 C366 0.930 . S
H371 C368 0.929 . S
S372 N373 1.613 1_556 S
S372 N374 1.610 . S
N373 S372 1.613 1_554 S
N373 C376 1.350 1_554 S
N374 S372 1.610 . S
N374 C375 1.351 . S
C375 C369 1.428 . S
C375 N374 1.351 . S
C375 C376 1.434 . S
C376 C367 1.429 1_556 S
C376 N373 1.350 1_556 S
C376 C375 1.434 . S
C377 C378 1.369 . S
C377 C379 1.419 . S
C377 H381 0.930 . S
C378 C377 1.369 . S
C378 C387 1.429 . S
C379 C377 1.419 . S
C379 C380 1.363 1_556 S
C379 H382 0.929 1_556 S
C380 C379 1.363 1_554 S
C380 C386 1.428 1_554 S
H381 C377 0.930 . S
H382 C379 0.929 1_554 S
S383 N384 1.613 . S
S383 N385 1.610 . S
N384 S383 1.613 . S
N384 C387 1.350 . S
N385 S383 1.610 . S
N385 C386 1.351 . S
C386 C380 1.428 1_556 S
C386 N385 1.351 . S
C386 C387 1.434 . S
C387 C378 1.429 . S
C387 N384 1.350 . S
C387 C386 1.434 . S
C388 C389 1.369 1_556 S
C388 C390 1.419 . S
C388 H392 0.930 1_556 S
C389 C388 1.369 1_554 S
C389 C398 1.429 1_554 S
C390 C388 1.419 . S
C390 C391 1.363 . S
C390 H393 0.929 . S
C391 C390 1.363 . S
C391 C397 1.428 . S
H392 C388 0.930 1_554 S
H393 C390 0.929 . S
S394 N395 1.613 . S
S394 N396 1.610 . S
N395 S394 1.613 . S
N395 C398 1.350 . S
N396 S394 1.610 . S
N396 C397 1.351 . S
C397 C391 1.428 . S
C397 N396 1.351 . S
C397 C398 1.434 . S
C398 C389 1.429 1_556 S
C398 N395 1.350 . S
C398 C397 1.434 . S
C399 C400 1.369 . S
C399 C401 1.419 . S
C399 H403 0.930 . S
C400 C399 1.369 . S
C400 C409 1.429 . S
C401 C399 1.419 . S
C401 C402 1.363 . S
C401 H404 0.929 . S
C402 C401 1.363 . S
C402 C408 1.428 . S
H403 C399 0.930 . S
H404 C401 0.929 . S
S405 N406 1.613 . S
S405 N407 1.610 . S
N406 S405 1.613 . S
N406 C409 1.350 . S
N407 S405 1.610 . S
N407 C408 1.351 . S
C408 C402 1.428 . S
C408 N407 1.351 . S
C408 C409 1.434 . S
C409 C400 1.429 . S
C409 N406 1.350 . S
C409 C408 1.434 . S
C410 C411 1.369 . S
C410 C412 1.419 . S
C410 H414 0.930 . S
C411 C410 1.369 . S
C411 C420 1.429 . S
C412 C410 1.419 . S
C412 C413 1.363 . S
C412 H415 0.929 . S
C413 C412 1.363 . S
C413 C419 1.428 . S
H414 C410 0.930 . S
H415 C412 0.929 . S
S416 N417 1.613 . S
S416 N418 1.610 . S
N417 S416 1.613 . S
N417 C420 1.350 . S
N418 S416 1.610 . S
N418 C419 1.351 . S
C419 C413 1.428 . S
C419 N418 1.351 . S
C419 C420 1.434 . S
C420 C411 1.429 . S
C420 N417 1.350 . S
C420 C419 1.434 . S
C421 C422 1.369 . S
C421 C423 1.419 . S
C421 H425 0.930 . S
C422 C421 1.369 . S
C422 C431 1.429 . S
C423 C421 1.419 . S
C423 C424 1.363 . S
C423 H426 0.929 . S
C424 C423 1.363 . S
C424 C430 1.428 . S
H425 C421 0.930 . S
H426 C423 0.929 . S
S427 N428 1.613 . S
S427 N429 1.610 . S
N428 S427 1.613 . S
N428 C431 1.350 . S
N429 S427 1.610 . S
N429 C430 1.351 . S
C430 C424 1.428 . S
C430 N429 1.351 . S
C430 C431 1.434 . S
C431 C422 1.429 . S
C431 N428 1.350 . S
C431 C430 1.434 . S
C432 C433 1.369 . S
C432 C434 1.419 . S
C432 H436 0.930 1_556 S
C433 C432 1.369 . S
C433 C442 1.429 . S
C434 C432 1.419 . S
C434 C435 1.363 . S
C434 H437 0.929 . S
C435 C434 1.363 . S
C435 C441 1.428 . S
H436 C432 0.930 1_554 S
H437 C434 0.929 . S
S438 N439 1.613 . S
S438 N440 1.610 . S
N439 S438 1.613 . S
N439 C442 1.350 . S
N440 S438 1.610 . S
N440 C441 1.351 . S
C441 C435 1.428 . S
C441 N440 1.351 . S
C441 C442 1.434 . S
C442 C433 1.429 . S
C442 N439 1.350 . S
C442 C441 1.434 . S
C443 C444 1.369 . S
C443 C445 1.419 . S
C443 H447 0.930 . S
C444 C443 1.369 . S
C444 C453 1.429 . S
C445 C443 1.419 . S
C445 C446 1.363 . S
C445 H448 0.929 . S
C446 C445 1.363 . S
C446 C452 1.428 1_556 S
H447 C443 0.930 . S
H448 C445 0.929 . S
S449 N450 1.613 . S
S449 N451 1.610 . S
N450 S449 1.613 . S
N450 C453 1.350 1_554 S
N451 S449 1.610 . S
N451 C452 1.351 . S
C452 C446 1.428 1_554 S
C452 N451 1.351 . S
C452 C453 1.434 1_554 S
C453 C444 1.429 . S
C453 N450 1.350 1_556 S
C453 C452 1.434 1_556 S
C454 C455 1.369 . S
C454 C456 1.419 . S
C454 H458 0.930 . S
C455 C454 1.369 . S
C455 C464 1.429 . S
C456 C454 1.419 . S
C456 C457 1.363 . S
C456 H459 0.929 1_556 S
C457 C456 1.363 . S
C457 C463 1.428 . S
H458 C454 0.930 . S
H459 C456 0.929 1_554 S
S460 N461 1.613 . S
S460 N462 1.610 . S
N461 S460 1.613 . S
N461 C464 1.350 . S
N462 S460 1.610 . S
N462 C463 1.351 . S
C463 C457 1.428 . S
C463 N462 1.351 . S
C463 C464 1.434 . S
C464 C455 1.429 . S
C464 N461 1.350 . S
C464 C463 1.434 . S
C465 C466 1.369 . S
C465 C467 1.419 . S
C465 H469 0.930 . S
C466 C465 1.369 . S
C466 C475 1.429 . S
C467 C465 1.419 . S
C467 C468 1.363 . S
C467 H470 0.929 . S
C468 C467 1.363 . S
C468 C474 1.428 . S
H469 C465 0.930 . S
H470 C467 0.929 . S
S471 N472 1.613 . S
S471 N473 1.610 . S
N472 S471 1.613 . S
N472 C475 1.350 . S
N473 S471 1.610 . S
N473 C474 1.351 . S
C474 C468 1.428 . S
C474 N473 1.351 . S
C474 C475 1.434 . S
C475 C466 1.429 . S
C475 N472 1.350 . S
C475 C474 1.434 . S
C476 C477 1.369 . S
C476 C478 1.419 . S
C476 H480 0.930 . S
C477 C476 1.369 . S
C477 C486 1.429 . S
C478 C476 1.419 . S
C478 C479 1.363 . S
C478 H481 0.929 . S
C479 C478 1.363 . S
C479 C485 1.428 . S
H480 C476 0.930 . S
H481 C478 0.929 . S
S482 N483 1.613 . S
S482 N484 1.610 . S
N483 S482 1.613 . S
N483 C486 1.350 . S
N484 S482 1.610 . S
N484 C485 1.351 . S
C485 C479 1.428 . S
C485 N484 1.351 . S
C485 C486 1.434 . S
C486 C477 1.429 . S
C486 N483 1.350 . S
C486 C485 1.434 . S
C487 C488 1.369 . S
C487 C489 1.419 . S
C487 H491 0.930 . S
C488 C487 1.369 . S
C488 C497 1.429 . S
C489 C487 1.419 . S
C489 C490 1.363 . S
C489 H492 0.929 . S
C490 C489 1.363 . S
C490 C496 1.428 . S
H491 C487 0.930 . S
H492 C489 0.929 . S
S493 N494 1.613 . S
S493 N495 1.610 . S
N494 S493 1.613 . S
N494 C497 1.350 . S
N495 S493 1.610 . S
N495 C496 1.351 . S
C496 C490 1.428 . S
C496 N495 1.351 . S
C496 C497 1.434 . S
C497 C488 1.429 . S
C497 N494 1.350 . S
C497 C496 1.434 . S
C498 C499 1.369 . S
C498 C500 1.419 . S
C498 H502 0.930 . S
C499 C498 1.369 . S
C499 C508 1.429 . S
C500 C498 1.419 . S
C500 C501 1.363 . S
C500 H503 0.929 . S
C501 C500 1.363 . S
C501 C507 1.428 . S
H502 C498 0.930 . S
H503 C500 0.929 . S
S504 N505 1.613 . S
S504 N506 1.610 . S
N505 S504 1.613 . S
N505 C508 1.350 . S
N506 S504 1.610 . S
N506 C507 1.351 . S
C507 C501 1.428 . S
C507 N506 1.351 . S
C507 C508 1.434 . S
C508 C499 1.429 . S
C508 N505 1.350 . S
C508 C507 1.434 . S
C509 C510 1.369 . S
C509 C511 1.419 . S
C509 H513 0.930 . S
C510 C509 1.369 . S
C510 C519 1.429 . S
C511 C509 1.419 . S
C511 C512 1.363 . S
C511 H514 0.929 . S
C512 C511 1.363 . S
C512 C518 1.428 . S
H513 C509 0.930 . S
H514 C511 0.929 . S
S515 N516 1.613 . S
S515 N517 1.610 . S
N516 S515 1.613 . S
N516 C519 1.350 . S
N517 S515 1.610 . S
N517 C518 1.351 . S
C518 C512 1.428 . S
C518 N517 1.351 . S
C518 C519 1.434 . S
C519 C510 1.429 . S
C519 N516 1.350 . S
C519 C518 1.434 . S
C520 C521 1.369 . S
C520 C522 1.419 . S
C520 H524 0.930 . S
C521 C520 1.369 . S
C521 C530 1.429 . S
C522 C520 1.419 . S
C522 C523 1.363 . S
C522 H525 0.929 . S
C523 C522 1.363 . S
C523 C529 1.428 . S
H524 C520 0.930 . S
H525 C522 0.929 . S
S526 N527 1.613 . S
S526 N528 1.610 . S
N527 S526 1.613 . S
N527 C530 1.350 . S
N528 S526 1.610 . S
N528 C529 1.351 . S
C529 C523 1.428 . S
C529 N528 1.351 . S
C529 C530 1.434 . S
C530 C521 1.429 . S
C530 N527 1.350 . S
C530 C529 1.434 . S
C531 C532 1.369 . S
C531 C533 1.419 . S
C531 H535 0.930 . S
C532 C531 1.369 . S
C532 C541 1.429 . S
C533 C531 1.419 . S
C533 C534 1.363 . S
C533 H536 0.929 . S
C534 C533 1.363 . S
C534 C540 1.428 . S
H535 C531 0.930 . S
H536 C533 0.929 . S
S537 N538 1.613 . S
S537 N539 1.610 . S
N538 S537 1.613 . S
N538 C541 1.350 . S
N539 S537 1.610 . S
N539 C540 1.351 . S
C540 C534 1.428 . S
C540 N539 1.351 . S
C540 C541 1.434 . S
C541 C532 1.429 . S
C541 N538 1.350 . S
C541 C540 1.434 . S
C542 C543 1.369 . S
C542 C544 1.419 . S
C542 H546 0.930 . S
C543 C542 1.369 . S
C543 C552 1.429 . S
C544 C542 1.419 . S
C544 C545 1.363 . S
C544 H547 0.929 . S
C545 C544 1.363 . S
C545 C551 1.428 . S
H546 C542 0.930 . S
H547 C544 0.929 . S
S548 N549 1.613 . S
S548 N550 1.610 . S
N549 S548 1.613 . S
N549 C552 1.350 . S
N550 S548 1.610 . S
N550 C551 1.351 . S
C551 C545 1.428 . S
C551 N550 1.351 . S
C551 C552 1.434 . S
C552 C543 1.429 . S
C552 N549 1.350 . S
C552 C551 1.434 . S
C553 C554 1.369 . S
C553 C555 1.419 . S
C553 H557 0.930 . S
C554 C553 1.369 . S
C554 C563 1.429 . S
C555 C553 1.419 . S
C555 C556 1.363 . S
C555 H558 0.929 . S
C556 C555 1.363 . S
C556 C562 1.428 . S
H557 C553 0.930 . S
H558 C555 0.929 . S
S559 N560 1.613 . S
S559 N561 1.610 . S
N560 S559 1.613 . S
N560 C563 1.350 . S
N561 S559 1.610 . S
N561 C562 1.351 . S
C562 C556 1.428 . S
C562 N561 1.351 . S
C562 C563 1.434 . S
C563 C554 1.429 . S
C563 N560 1.350 . S
C563 C562 1.434 . S
C564 C565 1.369 . S
C564 C566 1.419 . S
C564 H568 0.930 . S
C565 C564 1.369 . S
C565 C574 1.429 . S
C566 C564 1.419 . S
C566 C567 1.363 . S
C566 H569 0.929 . S
C567 C566 1.363 . S
C567 C573 1.428 . S
H568 C564 0.930 . S
H569 C566 0.929 . S
S570 N571 1.613 . S
S570 N572 1.610 . S
N571 S570 1.613 . S
N571 C574 1.350 . S
N572 S570 1.610 . S
N572 C573 1.351 . S
C573 C567 1.428 . S
C573 N572 1.351 . S
C573 C574 1.434 . S
C574 C565 1.429 . S
C574 N571 1.350 . S
C574 C573 1.434 . S
C575 C576 1.369 . S
C575 C577 1.419 1_545 S
C575 H579 0.930 . S
C576 C575 1.369 . S
C576 C585 1.429 . S
C577 C575 1.419 1_565 S
C577 C578 1.363 . S
C577 H580 0.929 . S
C578 C577 1.363 . S
C578 C584 1.428 1_565 S
H579 C575 0.930 . S
H580 C577 0.929 . S
S581 N582 1.613 . S
S581 N583 1.610 . S
N582 S581 1.613 . S
N582 C585 1.350 . S
N583 S581 1.610 . S
N583 C584 1.351 . S
C584 C578 1.428 1_545 S
C584 N583 1.351 . S
C584 C585 1.434 . S
C585 C576 1.429 . S
C585 N582 1.350 . S
C585 C584 1.434 . S
C586 C587 1.369 . S
C586 C588 1.419 1_455 S
C586 H590 0.932 . S
C587 C586 1.369 . S
C587 C596 1.429 . S
C588 C586 1.419 1_655 S
C588 C589 1.363 . S
C588 H591 0.929 . S
C589 C588 1.363 . S
C589 C595 1.428 1_655 S
H590 C586 0.932 . S
H591 C588 0.929 . S
S592 N593 1.613 . S
S592 N594 1.610 . S
N593 S592 1.613 . S
N593 C596 1.350 . S
N594 S592 1.610 . S
N594 C595 1.351 . S
C595 C589 1.428 1_455 S
C595 N594 1.351 . S
C595 C596 1.434 . S
C596 C587 1.429 . S
C596 N593 1.350 . S
C596 C595 1.434 . S
C597 C598 1.369 . S
C597 C599 1.419 . S
C597 H601 0.930 . S
C598 C597 1.369 . S
C598 C607 1.429 . S
C599 C597 1.419 . S
C599 C600 1.363 . S
C599 H602 0.929 . S
C600 C599 1.363 . S
C600 C606 1.428 . S
H601 C597 0.930 . S
H602 C599 0.929 . S
S603 N604 1.613 . S
S603 N605 1.610 . S
N604 S603 1.613 . S
N604 C607 1.350 . S
N605 S603 1.610 . S
N605 C606 1.351 . S
C606 C600 1.428 . S
C606 N605 1.351 . S
C606 C607 1.434 . S
C607 C598 1.429 . S
C607 N604 1.350 . S
C607 C606 1.434 . S
C608 C609 1.369 . S
C608 C610 1.419 1_545 S
C608 H612 0.930 . S
C609 C608 1.369 . S
C609 C618 1.429 . S
C610 C608 1.419 1_565 S
C610 C611 1.363 . S
C610 H613 0.929 . S
C611 C610 1.363 . S
C611 C617 1.428 . S
H612 C608 0.930 . S
H613 C610 0.929 . S
S614 N615 1.613 . S
S614 N616 1.610 1_545 S
N615 S614 1.613 . S
N615 C618 1.350 . S
N616 S614 1.610 1_565 S
N616 C617 1.351 . S
C617 C611 1.428 . S
C617 N616 1.351 . S
C617 C618 1.434 1_565 S
C618 C609 1.429 . S
C618 N615 1.350 . S
C618 C617 1.434 1_545 S
C619 C620 1.369 . S
C619 C621 1.419 . S
C619 H623 0.930 . S
C620 C619 1.369 . S
C620 C629 1.429 . S
C621 C619 1.419 . S
C621 C622 1.363 1_455 S
C621 H624 0.929 . S
C622 C621 1.363 1_655 S
C622 C628 1.428 . S
H623 C619 0.930 . S
H624 C621 0.929 . S
S625 N626 1.613 . S
S625 N627 1.610 . S
N626 S625 1.613 . S
N626 C629 1.350 1_655 S
N627 S625 1.610 . S
N627 C628 1.351 . S
C628 C622 1.428 . S
C628 N627 1.351 . S
C628 C629 1.434 1_655 S
C629 C620 1.429 . S
C629 N626 1.350 1_455 S
C629 C628 1.434 1_455 S
C235 C57 1.173 . S
C237 C10 1.173 . S
C246 C70 1.168 . S
C248 C23 1.177 . S
C257 C29 1.196 . S
C259 C44 1.171 . S
C268 C62 1.197 . S
C270 C5 1.191 . S
C279 C75 1.194 . S
C281 C18 1.187 . S
C290 C27 1.199 . S
C292 C49 1.202 . S
C301 C131 1.186 . S
C303 C83 1.161 . S
C312 C144 1.183 . S
C314 C94 1.175 . S
C323 C107 1.188 . S
C325 C127 1.183 . S
C334 C88 1.199 . S
C336 C133 1.183 1_554 S
C345 C146 1.181 1_554 S
C347 C92 1.183 . S
C356 C122 1.180 1_554 S
C358 C105 1.176 . S
C367 C209 1.186 . S
C369 C161 1.167 . S
C378 C172 1.182 . S
C380 C222 1.188 . S
C389 C205 1.186 . S
C391 C185 1.190 . S
C400 C211 1.177 . S
C402 C166 1.201 . S
C411 C224 1.185 . S
C413 C170 1.185 . S
C422 C183 1.173 . S
C424 C200 1.185 . S
C433 C1 1.575 1_556 S
C435 C118 1.582 . S
C444 C140 1.577 . S
C446 C14 1.579 1_556 S
C455 C153 1.569 . S
C457 C31 1.564 . S
C466 C42 1.556 . S
C468 C159 1.575 . S
C477 C174 1.566 . S
C479 C55 1.571 . S
C488 C187 1.570 . S
C490 C68 1.571 . S
C499 C198 1.568 . S
C501 C3 1.565 . S
C510 C213 1.566 . S
C512 C16 1.569 . S
C521 C226 1.580 . S
C523 C36 1.586 . S
C532 C40 1.591 . S
C534 C79 1.599 . S
C543 C53 1.582 . S
C545 C101 1.585 . S
C554 C114 1.583 . S
C556 C66 1.583 . S
C565 C196 1.581 . S
C567 C81 1.577 . S
C576 C218 1.572 . S
C578 C96 1.566 . S
C587 C109 1.570 . S
C589 C231 1.584 . S
C598 C157 1.579 . S
C600 C120 1.569 . S
C609 C179 1.582 . S
C611 C135 1.576 . S
C620 C148 1.571 . S
C622 C192 1.570 . S
