# Generated by pormake.
# Topology noy, (5)-cn, num edge types: 1
# Building blocks:
#     Node 0, Type 0, BuildingBlock: XOMCOT_clean_sbu_1, # of connection points: 5
#     Node 1, Type 0, BuildingBlock: XOMCOT_clean_sbu_1, # of connection points: 5
#     Node 2, Type 0, BuildingBlock: XOMCOT_clean_sbu_1, # of connection points: 5
#     Node 3, Type 0, BuildingBlock: XOMCOT_clean_sbu_1, # of connection points: 5
#     Node 4, Type 0, BuildingBlock: XOMCOT_clean_sbu_1, # of connection points: 5
#     Node 5, Type 0, BuildingBlock: XOMCOT_clean_sbu_1, # of connection points: 5
#     Node 6, Type 0, BuildingBlock: XOMCOT_clean_sbu_1, # of connection points: 5
#     Node 7, Type 0, BuildingBlock: XOMCOT_clean_sbu_1, # of connection points: 5
#     Edge 8, Type (0, 0), BuildingBlock: UVAHIK_clean_linker_0, # of connection points: 2
#     Edge 9, Type (0, 0), BuildingBlock: UVAHIK_clean_linker_0, # of connection points: 2
#     Edge 10, Type (0, 0), BuildingBlock: UVAHIK_clean_linker_0, # of connection points: 2
#     Edge 11, Type (0, 0), BuildingBlock: UVAHIK_clean_linker_0, # of connection points: 2
#     Edge 12, Type (0, 0), BuildingBlock: UVAHIK_clean_linker_0, # of connection points: 2
#     Edge 13, Type (0, 0), BuildingBlock: UVAHIK_clean_linker_0, # of connection points: 2
#     Edge 14, Type (0, 0), BuildingBlock: UVAHIK_clean_linker_0, # of connection points: 2
#     Edge 15, Type (0, 0), BuildingBlock: UVAHIK_clean_linker_0, # of connection points: 2
#     Edge 16, Type (0, 0), BuildingBlock: UVAHIK_clean_linker_0, # of connection points: 2
#     Edge 17, Type (0, 0), BuildingBlock: UVAHIK_clean_linker_0, # of connection points: 2
#     Edge 18, Type (0, 0), BuildingBlock: UVAHIK_clean_linker_0, # of connection points: 2
#     Edge 19, Type (0, 0), BuildingBlock: UVAHIK_clean_linker_0, # of connection points: 2
#     Edge 20, Type (0, 0), BuildingBlock: UVAHIK_clean_linker_0, # of connection points: 2
#     Edge 21, Type (0, 0), BuildingBlock: UVAHIK_clean_linker_0, # of connection points: 2
#     Edge 22, Type (0, 0), BuildingBlock: UVAHIK_clean_linker_0, # of connection points: 2
#     Edge 23, Type (0, 0), BuildingBlock: UVAHIK_clean_linker_0, # of connection points: 2
#     Edge 24, Type (0, 0), BuildingBlock: UVAHIK_clean_linker_0, # of connection points: 2
#     Edge 25, Type (0, 0), BuildingBlock: UVAHIK_clean_linker_0, # of connection points: 2
#     Edge 26, Type (0, 0), BuildingBlock: UVAHIK_clean_linker_0, # of connection points: 2
#     Edge 27, Type (0, 0), BuildingBlock: UVAHIK_clean_linker_0, # of connection points: 2
# Relax obj value: 0.149
# Max RMSD: 0.181
# Mean RMSD: 0.181
data_MOF--net-noy--node1-XOMCOT_clean_sbu_1--edge1-UVAHIK_clean_linker_0
_symmetry_space_group_name_H-M    P1
_symmetry_Int_Tables_number       1
_symmetry_cell_setting            triclinic
loop_
_symmetry_equiv_pos_as_xyz
'x, y, z'
_cell_length_a     62.053007
_cell_length_b     58.794716
_cell_length_c     25.745639
_cell_angle_alpha  89.997054
_cell_angle_beta   90.106015
_cell_angle_gamma 89.990487
loop_
_atom_site_label
_atom_site_type_symbol
_atom_site_fract_x
_atom_site_fract_y
_atom_site_fract_z
_atom_type_partial_charge
C0 C 0.29901 0.37968 0.19606 0.0
C1 C 0.29529 0.39672 0.16077 0.0
N2 N 0.29964 0.41678 0.1837 0.0
N3 N 0.30544 0.38883 0.24148 0.0
C4 C 0.30586 0.41155 0.23273 0.0
H5 H 0.29762 0.36166 0.18859 0.0
Co6 Co 0.31315 0.37091 0.29823 0.0
C7 C 0.3098 0.39965 0.39284 0.0
O8 O 0.3259 0.388 0.41266 0.0
N9 N 0.3209 0.35152 0.35485 0.0
C10 C 0.33773 0.32631 0.40521 0.0
C11 C 0.33991 0.34107 0.36419 0.0
C12 C 0.30745 0.34269 0.39116 0.0
N13 N 0.31723 0.32717 0.42224 0.0
O14 O 0.28493 0.3571 0.2958 0.0
H15 H 0.35445 0.34318 0.34189 0.0
H16 H 0.29065 0.34736 0.39394 0.0
O17 O 0.30311 0.39498 0.34684 0.0
C18 C 0.286 0.33683 0.2781 0.0
O19 O 0.30506 0.32793 0.2692 0.0
N20 N 0.34114 0.38288 0.29411 0.0
C21 C 0.38311 0.39546 0.26727 0.0
C22 C 0.37045 0.40953 0.29908 0.0
C23 C 0.3493 0.40312 0.3114 0.0
C24 C 0.35297 0.36953 0.26171 0.0
C25 C 0.37402 0.37522 0.24857 0.0
H26 H 0.33952 0.41492 0.33291 0.0
H27 H 0.34591 0.3541 0.24629 0.0
H28 H 0.31081 0.42396 0.2614 0.0
H29 H 0.29054 0.39445 0.12062 0.0
H30 H 0.35019 0.3151 0.41963 0.0
H31 H 0.37657 0.42567 0.313 0.0
H32 H 0.38311 0.36371 0.22415 0.0
C33 C 0.69794 0.64302 0.7061 0.0
C34 C 0.70134 0.62621 0.67009 0.0
N35 N 0.69645 0.60607 0.69199 0.0
N36 N 0.69117 0.63365 0.75098 0.0
C37 C 0.69027 0.61103 0.74112 0.0
H38 H 0.6997 0.66107 0.69937 0.0
Co39 Co 0.68338 0.65095 0.80871 0.0
C40 C 0.68821 0.62154 0.90211 0.0
O41 O 0.67216 0.63271 0.92335 0.0
N42 N 0.6755 0.6696 0.86643 0.0
C43 C 0.65791 0.69312 0.91939 0.0
C44 C 0.65603 0.67863 0.87775 0.0
C45 C 0.68892 0.67896 0.90227 0.0
N46 N 0.67865 0.69346 0.9347 0.0
O47 O 0.71123 0.66565 0.80601 0.0
H48 H 0.64126 0.67548 0.85684 0.0
H49 H 0.70609 0.6758 0.90334 0.0
O50 O 0.69433 0.62673 0.85598 0.0
C51 C 0.7092 0.6859 0.78856 0.0
O52 O 0.68969 0.69385 0.78036 0.0
N53 N 0.65562 0.63827 0.80484 0.0
C54 C 0.61364 0.62518 0.77903 0.0
C55 C 0.62655 0.61137 0.81097 0.0
C56 C 0.6477 0.61804 0.82278 0.0
C57 C 0.6435 0.65141 0.7725 0.0
C58 C 0.62246 0.64543 0.75974 0.0
H59 H 0.65765 0.60645 0.84451 0.0
H60 H 0.6503 0.66691 0.75687 0.0
H61 H 0.68492 0.59851 0.76906 0.0
H62 H 0.70615 0.62871 0.6301 0.0
H63 H 0.64496 0.70283 0.93667 0.0
H64 H 0.62059 0.59526 0.82542 0.0
H65 H 0.61315 0.65673 0.73522 0.0
C66 C 0.33266 0.64355 0.81726 0.0
C67 C 0.33276 0.63091 0.8622 0.0
N68 N 0.32009 0.61251 0.85517 0.0
N69 N 0.31993 0.63334 0.78186 0.0
C70 C 0.31241 0.61452 0.80609 0.0
H71 H 0.34166 0.659 0.81041 0.0
Co72 Co 0.3163 0.64377 0.71375 0.0
C73 C 0.28555 0.61103 0.66743 0.0
O74 O 0.27298 0.62781 0.65262 0.0
N75 N 0.31291 0.65438 0.64482 0.0
C76 C 0.31332 0.65482 0.55841 0.0
C77 C 0.3175 0.64208 0.60192 0.0
C78 C 0.30622 0.67476 0.62613 0.0
N79 N 0.30619 0.67541 0.57354 0.0
O80 O 0.28953 0.65779 0.73449 0.0
H81 H 0.32355 0.62482 0.60223 0.0
H82 H 0.30119 0.68878 0.65038 0.0
O83 O 0.30247 0.61532 0.69393 0.0
C84 C 0.29468 0.67709 0.75365 0.0
O85 O 0.31485 0.68365 0.74921 0.0
N86 N 0.34337 0.63191 0.69707 0.0
C87 C 0.3866 0.61961 0.68914 0.0
C88 C 0.37089 0.60328 0.70117 0.0
C89 C 0.34925 0.60977 0.70476 0.0
C90 C 0.35836 0.64788 0.6844 0.0
C91 C 0.38003 0.64204 0.67952 0.0
H92 H 0.33747 0.59727 0.71646 0.0
H93 H 0.35355 0.66547 0.68014 0.0
H94 H 0.30213 0.60211 0.78748 0.0
H95 H 0.34163 0.635 0.89717 0.0
H96 H 0.31566 0.64942 0.51863 0.0
H97 H 0.37538 0.58581 0.7091 0.0
H98 H 0.3917 0.65523 0.67111 0.0
C99 C 0.66169 0.38115 0.31979 0.0
C100 C 0.66067 0.39462 0.36324 0.0
N101 N 0.67398 0.41254 0.35671 0.0
N102 N 0.6757 0.39026 0.2858 0.0
C103 C 0.68302 0.40935 0.30934 0.0
H104 H 0.65247 0.36583 0.31292 0.0
Co105 Co 0.68068 0.37772 0.22017 0.0
C106 C 0.71122 0.40972 0.1707 0.0
O107 O 0.72407 0.39276 0.15866 0.0
N108 N 0.68526 0.36473 0.1542 0.0
C109 C 0.68526 0.35962 0.06862 0.0
C110 C 0.68101 0.3747 0.10807 0.0
C111 C 0.692 0.34352 0.1417 0.0
N112 N 0.69215 0.33995 0.08974 0.0
O113 O 0.7076 0.36541 0.24526 0.0
H114 H 0.67504 0.39187 0.1034 0.0
H115 H 0.69628 0.33075 0.17013 0.0
O116 O 0.69413 0.40587 0.19675 0.0
C117 C 0.70354 0.34741 0.27121 0.0
O118 O 0.68361 0.33989 0.27223 0.0
N119 N 0.65362 0.38823 0.19892 0.0
C120 C 0.61037 0.3995 0.18548 0.0
C121 C 0.62569 0.41643 0.1959 0.0
C122 C 0.64734 0.41045 0.20235 0.0
C123 C 0.63903 0.37164 0.18764 0.0
C124 C 0.61734 0.37694 0.18005 0.0
H125 H 0.65876 0.4235 0.21305 0.0
H126 H 0.64412 0.35405 0.18674 0.0
H127 H 0.69421 0.42104 0.29138 0.0
H128 H 0.65076 0.39136 0.39693 0.0
H129 H 0.68363 0.36304 0.0275 0.0
H130 H 0.62088 0.43402 0.2006 0.0
H131 H 0.60595 0.36333 0.17297 0.0
C132 C 0.80424 0.88199 0.20824 0.0
C133 C 0.8007 0.89914 0.17321 0.0
N134 N 0.80447 0.91914 0.19696 0.0
N135 N 0.80998 0.89096 0.25442 0.0
C136 C 0.81021 0.91374 0.24625 0.0
H137 H 0.80325 0.86402 0.1999 0.0
Co138 Co 0.81728 0.8731 0.31186 0.0
C139 C 0.80619 0.89982 0.40761 0.0
O140 O 0.8202 0.88776 0.43413 0.0
N141 N 0.82479 0.85391 0.36867 0.0
C142 C 0.84258 0.83126 0.42335 0.0
C143 C 0.84453 0.84644 0.38296 0.0
C144 C 0.81112 0.84267 0.40079 0.0
N145 N 0.82152 0.82883 0.43455 0.0
O146 O 0.79054 0.85651 0.30329 0.0
H147 H 0.85952 0.8512 0.36476 0.0
H148 H 0.79382 0.8448 0.39963 0.0
O149 O 0.80354 0.89587 0.35892 0.0
C150 C 0.79448 0.83703 0.2833 0.0
O151 O 0.81471 0.83131 0.27569 0.0
N152 N 0.84422 0.88767 0.31444 0.0
C153 C 0.88669 0.90264 0.30438 0.0
C154 C 0.87246 0.91357 0.33854 0.0
C155 C 0.8511 0.90607 0.3424 0.0
C156 C 0.85766 0.87744 0.27981 0.0
C157 C 0.87894 0.88457 0.27423 0.0
H158 H 0.8404 0.91534 0.36738 0.0
H159 H 0.85184 0.86323 0.25708 0.0
H160 H 0.81472 0.92606 0.27557 0.0
H161 H 0.79648 0.89702 0.13267 0.0
H162 H 0.85568 0.8222 0.44187 0.0
H163 H 0.87774 0.92794 0.36163 0.0
H164 H 0.88938 0.87559 0.24752 0.0
C165 C 0.16777 0.14515 0.7016 0.0
C166 C 0.16743 0.13259 0.65665 0.0
N167 N 0.17876 0.11331 0.66447 0.0
N168 N 0.1794 0.13408 0.73785 0.0
C169 C 0.18595 0.11473 0.71411 0.0
H170 H 0.15959 0.16115 0.70786 0.0
Co171 Co 0.1824 0.14438 0.80625 0.0
C172 C 0.21247 0.11174 0.85418 0.0
O173 O 0.22487 0.12878 0.86827 0.0
N174 N 0.18497 0.15488 0.87546 0.0
C175 C 0.18325 0.15532 0.96178 0.0
C176 C 0.17954 0.14265 0.91789 0.0
C177 C 0.19169 0.17513 0.89478 0.0
N178 N 0.19091 0.17578 0.94731 0.0
O179 O 0.20956 0.15817 0.7874 0.0
H180 H 0.17324 0.1255 0.91698 0.0
H181 H 0.1973 0.18907 0.87106 0.0
O182 O 0.19563 0.11565 0.82704 0.0
C183 C 0.20416 0.17748 0.76861 0.0
O184 O 0.18393 0.18379 0.77337 0.0
N185 N 0.15496 0.13322 0.82044 0.0
C186 C 0.11121 0.1238 0.81198 0.0
C187 C 0.12637 0.10609 0.81038 0.0
C188 C 0.14838 0.11121 0.81431 0.0
C189 C 0.14036 0.15031 0.82584 0.0
C190 C 0.11838 0.14597 0.82196 0.0
H191 H 0.16002 0.09781 0.80833 0.0
H192 H 0.14589 0.16769 0.82936 0.0
H193 H 0.1951 0.10154 0.73341 0.0
H194 H 0.15927 0.13734 0.62109 0.0
H195 H 0.18021 0.14996 1.00131 0.0
H196 H 0.1214 0.0888 0.80224 0.0
H197 H 0.10714 0.16005 0.82378 0.0
C198 C 0.83196 0.14374 0.82134 0.0
C199 C 0.83306 0.13093 0.86582 0.0
N200 N 0.82141 0.1118 0.85876 0.0
N201 N 0.81957 0.13299 0.78611 0.0
C202 C 0.81329 0.11356 0.80998 0.0
H203 H 0.84006 0.15976 0.81467 0.0
Co204 Co 0.81529 0.14433 0.71912 0.0
C205 C 0.78443 0.11274 0.67031 0.0
O206 O 0.77232 0.1301 0.65675 0.0
N207 N 0.81146 0.15621 0.6512 0.0
C208 C 0.81258 0.15954 0.56503 0.0
C209 C 0.81656 0.14541 0.60654 0.0
C210 C 0.80441 0.17694 0.63555 0.0
N211 N 0.80492 0.17941 0.5833 0.0
O212 O 0.7886 0.15781 0.7421 0.0
H213 H 0.82289 0.1283 0.60427 0.0
H214 H 0.79941 0.19025 0.66176 0.0
O215 O 0.80134 0.11613 0.69753 0.0
C216 C 0.79339 0.17729 0.7608 0.0
O217 O 0.81343 0.18429 0.75648 0.0
N218 N 0.84225 0.13298 0.70052 0.0
C219 C 0.88572 0.12146 0.69335 0.0
C220 C 0.86996 0.10452 0.69953 0.0
C221 C 0.84822 0.11065 0.70319 0.0
C222 C 0.8572 0.14954 0.69281 0.0
C223 C 0.87899 0.14417 0.68875 0.0
H224 H 0.83644 0.09758 0.71107 0.0
H225 H 0.85224 0.16719 0.69249 0.0
H226 H 0.80356 0.10065 0.7914 0.0
H227 H 0.84185 0.13546 0.90063 0.0
H228 H 0.81492 0.15537 0.52448 0.0
H229 H 0.87445 0.08679 0.70322 0.0
H230 H 0.89054 0.15788 0.68514 0.0
C231 C 0.19752 0.8813 0.32227 0.0
C232 C 0.20105 0.8985 0.35721 0.0
N233 N 0.19711 0.91847 0.33342 0.0
N234 N 0.1916 0.89024 0.27621 0.0
C235 C 0.19129 0.91301 0.28423 0.0
H236 H 0.19865 0.86331 0.33042 0.0
Co237 Co 0.18426 0.87205 0.21967 0.0
C238 C 0.19054 0.89965 0.12351 0.0
O239 O 0.17528 0.88767 0.10112 0.0
N240 N 0.17681 0.85238 0.16357 0.0
C241 C 0.15993 0.82704 0.11372 0.0
C242 C 0.15761 0.84253 0.15335 0.0
C243 C 0.19051 0.84247 0.12932 0.0
N244 N 0.18071 0.82685 0.0986 0.0
O245 O 0.21209 0.85746 0.22509 0.0
H246 H 0.14288 0.84552 0.17439 0.0
H247 H 0.20751 0.84643 0.12785 0.0
O248 O 0.19567 0.89547 0.17092 0.0
C249 C 0.21039 0.83738 0.24363 0.0
O250 O 0.19104 0.82904 0.25179 0.0
N251 N 0.1565 0.88489 0.22063 0.0
C252 C 0.11431 0.89884 0.24066 0.0
C253 C 0.12752 0.91136 0.20697 0.0
C254 C 0.14879 0.90437 0.19827 0.0
C255 C 0.14404 0.87302 0.25467 0.0
C256 C 0.1229 0.87956 0.26499 0.0
H257 H 0.15891 0.91513 0.17502 0.0
H258 H 0.15064 0.85815 0.2737 0.0
H259 H 0.18666 0.92527 0.25491 0.0
H260 H 0.20537 0.89641 0.39769 0.0
H261 H 0.14734 0.81603 0.09913 0.0
H262 H 0.12163 0.92674 0.18862 0.0
H263 H 0.11328 0.86942 0.29134 0.0
C264 C 0.41978 0.41097 0.29013 0.0
C265 C 0.40562 0.4016 0.25315 0.0
C266 C 0.44152 0.41447 0.27799 0.0
C267 C 0.48326 0.391 0.19415 0.0
H268 H 0.51651 0.44422 0.23264 0.0
C269 C 0.57346 0.39579 0.14663 0.0
C270 C 0.58701 0.40477 0.18523 0.0
C271 C 0.55112 0.39849 0.14994 0.0
C272 C 0.50751 0.42914 0.22203 0.0
H273 H 0.40292 0.39018 0.17321 0.0
H274 H 0.44082 0.39586 0.15257 0.0
H275 H 0.47771 0.4434 0.24907 0.0
H276 H 0.58791 0.42403 0.25692 0.0
H277 H 0.54897 0.42822 0.26364 0.0
H278 H 0.51286 0.37623 0.16909 0.0
C279 C 0.43518 0.40017 0.19114 0.0
C280 C 0.48528 0.42873 0.23134 0.0
C281 C 0.41348 0.39684 0.20309 0.0
C282 C 0.57785 0.41717 0.22627 0.0
C283 C 0.55549 0.4196 0.23 0.0
C284 C 0.50544 0.39128 0.18541 0.0
C285 C 0.44953 0.40855 0.22876 0.0
C286 C 0.47296 0.40962 0.21757 0.0
C287 C 0.54179 0.40989 0.19244 0.0
C288 C 0.51793 0.41031 0.19935 0.0
H289 H 0.41429 0.41472 0.3291 0.0
H290 H 0.45225 0.42085 0.30784 0.0
H291 H 0.47424 0.37586 0.18393 0.0
H292 H 0.58014 0.38636 0.11431 0.0
H293 H 0.54116 0.39126 0.11957 0.0
C294 C 0.57705 0.60982 0.80288 0.0
C295 C 0.59113 0.61877 0.76532 0.0
C296 C 0.55528 0.60615 0.79098 0.0
C297 C 0.51347 0.62819 0.70421 0.0
H298 H 0.48008 0.57591 0.74807 0.0
C299 C 0.42384 0.62176 0.65201 0.0
C300 C 0.4099 0.61403 0.69108 0.0
C301 C 0.44612 0.61914 0.65716 0.0
C302 C 0.48913 0.59072 0.73592 0.0
H303 H 0.59371 0.62922 0.68473 0.0
H304 H 0.55582 0.62309 0.66433 0.0
H305 H 0.51883 0.57714 0.76557 0.0
H306 H 0.40825 0.59693 0.76548 0.0
H307 H 0.44715 0.59281 0.77523 0.0
H308 H 0.48397 0.64225 0.67621 0.0
C309 C 0.56149 0.61932 0.70321 0.0
C310 C 0.51133 0.59138 0.74588 0.0
C311 C 0.58319 0.62288 0.71498 0.0
C312 C 0.41863 0.60282 0.73448 0.0
C313 C 0.44095 0.60045 0.73998 0.0
C314 C 0.49134 0.62764 0.6947 0.0
C315 C 0.54718 0.61141 0.74135 0.0
C316 C 0.52372 0.61014 0.73008 0.0
C317 C 0.45503 0.60905 0.70193 0.0
C318 C 0.47882 0.60892 0.7104 0.0
H319 H 0.58262 0.60657 0.84207 0.0
H320 H 0.5446 0.60014 0.82125 0.0
H321 H 0.5225 0.64309 0.69244 0.0
H322 H 0.4175 0.63024 0.61788 0.0
H323 H 0.45639 0.62545 0.62641 0.0
C324 C 0.07772 0.91073 0.2091 0.0
C325 C 0.09164 0.9056 0.25054 0.0
C326 C 0.05583 0.91483 0.21813 0.0
C327 C 0.0136 0.90268 0.31574 0.0
H328 H 0.97924 0.94302 0.22992 0.0
C329 C 0.92207 0.91219 0.34635 0.0
C330 C 0.90971 0.90934 0.30104 0.0
C331 C 0.94433 0.91568 0.34317 0.0
C332 C 0.98865 0.93169 0.25418 0.0
H333 H 0.09391 0.90214 0.33414 0.0
H334 H 0.0559 0.90985 0.35016 0.0
H335 H 0.01835 0.94211 0.21927 0.0
H336 H 0.91071 0.90924 0.2169 0.0
H337 H 0.94954 0.91539 0.2113 0.0
H338 H 0.9839 0.89215 0.35033 0.0
C339 C 0.06165 0.91001 0.31048 0.0
C340 C 0.01105 0.93109 0.24797 0.0
C341 C 0.08346 0.90567 0.30137 0.0
C342 C 0.91988 0.91117 0.25248 0.0
C343 C 0.94208 0.91488 0.24928 0.0
C344 C 0.99127 0.90343 0.32222 0.0
C345 C 0.04743 0.91412 0.26889 0.0
C346 C 0.02379 0.91629 0.27812 0.0
C347 C 0.95463 0.91664 0.29459 0.0
C348 C 0.9785 0.91768 0.29099 0.0
H349 H 0.08358 0.91063 0.16949 0.0
H350 H 0.04537 0.91766 0.18505 0.0
H351 H 0.02275 0.89075 0.33903 0.0
H352 H 0.91468 0.91074 0.3843 0.0
H353 H 0.95357 0.91717 0.37874 0.0
C354 C 0.07913 0.13396 0.75872 0.0
C355 C 0.08843 0.12001 0.79692 0.0
C356 C 0.05757 0.1314 0.74484 0.0
C357 C 0.0104 0.0927 0.75262 0.0
H358 H 0.97924 0.1488 0.72707 0.0
C359 C 0.91692 0.10091 0.73462 0.0
C360 C 0.90911 0.11609 0.6967 0.0
C361 C 0.93909 0.09866 0.74341 0.0
C362 C 0.98776 0.13295 0.73344 0.0
H363 H 0.08272 0.0919 0.84938 0.0
H364 H 0.04451 0.08774 0.82613 0.0
H365 H 0.01701 0.15031 0.75129 0.0
H366 H 0.91857 0.13938 0.63554 0.0
H367 H 0.95717 0.13561 0.65122 0.0
H368 H 0.98063 0.0755 0.73592 0.0
C369 C 0.05405 0.10051 0.80644 0.0
C370 C 0.00947 0.13379 0.7473 0.0
C371 C 0.07586 0.10292 0.81997 0.0
C372 C 0.92402 0.1279 0.66574 0.0
C373 C 0.94612 0.12575 0.6747 0.0
C374 C 0.98851 0.09188 0.73915 0.0
C375 C 0.04458 0.11499 0.76921 0.0
C376 C 0.02118 0.1137 0.75645 0.0
C377 C 0.95386 0.11163 0.71464 0.0
C378 C 0.97705 0.11202 0.72885 0.0
H379 H 0.08861 0.14689 0.73935 0.0
H380 H 0.05107 0.14239 0.7149 0.0
H381 H 0.01895 0.07689 0.75906 0.0
H382 H 0.9059 0.09171 0.75952 0.0
H383 H 0.94459 0.08773 0.7746 0.0
C384 C 0.33117 0.59009 0.93253 0.0
C385 C 0.31662 0.59401 0.8914 0.0
C386 C 0.3281 0.572 0.96704 0.0
C387 C 0.30163 0.51609 0.97732 0.0
H388 H 0.31218 0.52313 0.125 0.0
C389 C 0.28407 0.44298 0.11897 0.0
C390 C 0.29921 0.43868 0.15841 0.0
C391 C 0.285 0.46296 0.08975 0.0
C392 C 0.30937 0.5208 0.08382 0.0
H393 H 0.2871 0.58193 0.85553 0.0
H394 H 0.28191 0.55028 0.91536 0.0
H395 H 0.31604 0.55584 0.0672 0.0
H396 H 0.32679 0.45237 0.19936 0.0
H397 H 0.32869 0.48733 0.14783 0.0
H398 H 0.29535 0.48107 0.99341 0.0
C399 C 0.29583 0.56116 0.92049 0.0
C400 C 0.31155 0.53958 0.05067 0.0
C401 C 0.29884 0.57933 0.88606 0.0
C402 C 0.31481 0.45531 0.16947 0.0
C403 C 0.31588 0.47532 0.13986 0.0
C404 C 0.29954 0.49734 1.01034 0.0
C405 C 0.31047 0.55722 0.96132 0.0
C406 C 0.30771 0.53744 0.99698 0.0
C407 C 0.30125 0.47917 0.09883 0.0
C408 C 0.30334 0.49941 0.06408 0.0
H409 H 0.34526 0.60068 0.93765 0.0
H410 H 0.33988 0.56927 0.99751 0.0
H411 H 0.29894 0.51372 0.9361 0.0
H412 H 0.27162 0.43066 0.1102 0.0
H413 H 0.27309 0.46557 0.05954 0.0
C414 C 0.69513 0.44565 0.38895 0.0
C415 C 0.67695 0.43142 0.3922 0.0
C416 C 0.69787 0.4638 0.42368 0.0
C417 C 0.66729 0.50028 0.51632 0.0
H418 H 0.72414 0.51561 0.5682 0.0
C419 C 0.68001 0.56828 0.67614 0.0
C420 C 0.69613 0.58442 0.66564 0.0
C421 C 0.67831 0.5485 0.64596 0.0
C422 C 0.70816 0.51159 0.5539 0.0
H423 H 0.64719 0.42574 0.43469 0.0
H424 H 0.65233 0.45655 0.49563 0.0
H425 H 0.71986 0.4838 0.50812 0.0
H426 H 0.72373 0.59192 0.61722 0.0
H427 H 0.72086 0.55749 0.56486 0.0
H428 H 0.65561 0.52801 0.5623 0.0
C429 C 0.66438 0.45396 0.46583 0.0
C430 C 0.70571 0.49341 0.51921 0.0
C431 C 0.66159 0.43595 0.43108 0.0
C432 C 0.71103 0.57989 0.62589 0.0
C433 C 0.70948 0.56007 0.59616 0.0
C434 C 0.66973 0.51833 0.55125 0.0
C435 C 0.68252 0.4682 0.46265 0.0
C436 C 0.68524 0.48755 0.49975 0.0
C437 C 0.69286 0.54433 0.60513 0.0
C438 C 0.6902 0.52429 0.57028 0.0
H439 H 0.70739 0.4427 0.35991 0.0
H440 H 0.71193 0.47455 0.41955 0.0
H441 H 0.65132 0.4966 0.50154 0.0
H442 H 0.66822 0.57139 0.70625 0.0
H443 H 0.66545 0.53659 0.65418 0.0
C444 C 0.70924 0.58457 0.90473 0.0
C445 C 0.69657 0.6011 0.92971 0.0
C446 C 0.71503 0.5644 0.93072 0.0
C447 C 0.71668 0.53808 0.06371 0.0
H448 H 0.71263 0.4811 0.98867 0.0
C449 C 0.70285 0.45145 0.16468 0.0
C450 C 0.71438 0.43246 0.14658 0.0
C451 C 0.70412 0.47236 0.13881 0.0
C452 C 0.7141 0.49689 1.01007 0.0
H453 H 0.68067 0.60959 1.0022 0.0
H454 H 0.69024 0.57481 0.04645 0.0
H455 H 0.70906 0.51701 0.9417 0.0
H456 H 0.73658 0.42074 0.08736 0.0
H457 H 0.7386 0.45722 0.04192 0.0
H458 H 0.72084 0.51789 0.13234 0.0
C459 C 0.69611 0.57729 1.00728 0.0
C460 C 0.71213 0.51752 0.98309 0.0
C461 C 0.69041 0.59729 0.98153 0.0
C462 C 0.72758 0.43504 0.10257 0.0
C463 C 0.72861 0.45589 0.07624 0.0
C464 C 0.71841 0.51749 0.09067 0.0
C465 C 0.70832 0.56039 0.98228 0.0
C466 C 0.71296 0.53844 1.00969 0.0
C467 C 0.71674 0.47475 0.09377 0.0
C468 C 0.71677 0.49663 0.06436 0.0
H469 H 0.71422 0.58692 0.86478 0.0
H470 H 0.72462 0.5519 0.9103 0.0
H471 H 0.71797 0.55377 0.0855 0.0
H472 H 0.69252 0.45007 0.19842 0.0
H473 H 0.69464 0.4865 0.15313 0.0
C474 C 0.30846 0.42289 0.47381 0.0
C475 C 0.30215 0.42001 0.42172 0.0
C476 C 0.30392 0.44298 0.50045 0.0
C477 C 0.27043 0.49467 0.5039 0.0
H478 H 0.31934 0.51927 0.57912 0.0
C479 C 0.27061 0.58484 0.59896 0.0
C480 C 0.28295 0.58802 0.64431 0.0
C481 C 0.27087 0.56394 0.57265 0.0
C482 C 0.30535 0.51254 0.55921 0.0
H483 H 0.28511 0.43577 0.35757 0.0
H484 H 0.27698 0.47116 0.40467 0.0
H485 H 0.32323 0.48402 0.53107 0.0
H486 H 0.3041 0.57124 0.69932 0.0
H487 H 0.30399 0.53473 0.65473 0.0
H488 H 0.25247 0.5232 0.53268 0.0
C489 C 0.28554 0.45767 0.42463 0.0
C490 C 0.30764 0.49231 0.53132 0.0
C491 C 0.29018 0.43743 0.39766 0.0
C492 C 0.2946 0.56946 0.66421 0.0
C493 C 0.29469 0.54855 0.63825 0.0
C494 C 0.26806 0.51494 0.53229 0.0
C495 C 0.29288 0.46087 0.47595 0.0
C496 C 0.2902 0.48298 0.50366 0.0
C497 C 0.28334 0.54565 0.59125 0.0
C498 C 0.28548 0.52406 0.56074 0.0
H499 H 0.31744 0.40977 0.49395 0.0
H500 H 0.30939 0.44466 0.54025 0.0
H501 H 0.25666 0.48787 0.48317 0.0
H502 H 0.26155 0.59881 0.58234 0.0
H503 H 0.26203 0.5625 0.53651 0.0
C504 C 0.80179 0.07782 0.89154 0.0
C505 C 0.81908 0.09321 0.89527 0.0
C506 C 0.79956 0.06005 0.9275 0.0
C507 C 0.83068 0.02669 0.02512 0.0
H508 H 0.77402 1.00893 0.07357 0.0
C509 C 0.81938 0.95785 0.18389 0.0
C510 C 0.80396 0.94112 0.17209 0.0
C511 C 0.82051 0.9779 0.15441 0.0
C512 C 0.78996 0.01363 0.06028 0.0
H513 H 0.84784 0.10141 0.93975 0.0
H514 H 0.8436 0.07114 1.00266 0.0
H515 H 0.77754 0.04035 1.01224 0.0
H516 H 0.77689 0.93286 0.12238 0.0
H517 H 0.77877 0.96764 0.07124 0.0
H518 H 0.84307 0.99991 0.07306 0.0
C519 C 0.83185 0.07257 0.97168 0.0
C520 C 0.79198 0.03159 0.02488 0.0
C521 C 0.83411 0.09023 0.93577 0.0
C522 C 0.78907 0.94535 0.13202 0.0
C523 C 0.79005 0.96538 0.10298 0.0
C524 C 0.82867 1.00881 0.06068 0.0
C525 C 0.81456 0.0572 0.96812 0.0
C526 C 0.81236 0.03827 1.00649 0.0
C527 C 0.80606 0.98171 0.11301 0.0
C528 C 0.80827 1.00191 0.07838 0.0
H529 H 0.78982 0.07959 0.86122 0.0
H530 H 0.78618 0.04839 0.92306 0.0
H531 H 0.84662 0.03106 1.01131 0.0
H532 H 0.83113 0.95499 0.21434 0.0
H533 H 0.83289 0.99026 0.1635 0.0
C534 C 0.16702 0.09193 0.58633 0.0
C535 C 0.18144 0.09472 0.62815 0.0
C536 C 0.16948 0.07405 0.55106 0.0
C537 C 0.20919 0.03183 0.50255 0.0
H538 H 0.15814 1.00067 0.45245 0.0
C539 C 0.21204 0.94478 0.39884 0.0
C540 C 0.19749 0.94051 0.35808 0.0
C541 C 0.21099 0.965 0.42722 0.0
C542 C 0.17255 1.0094 0.46537 0.0
H543 H 0.20992 0.08064 0.66503 0.0
H544 H 0.21391 0.04911 0.60425 0.0
H545 H 0.1544 0.03247 0.51237 0.0
H546 H 0.17086 0.95447 0.31398 0.0
H547 H 0.16904 0.99004 0.36351 0.0
H548 H 0.22732 1.0084 0.4562 0.0
C549 C 0.20084 0.06104 0.59835 0.0
C550 C 0.17042 0.02766 0.49987 0.0
C551 C 0.1984 0.079 0.63368 0.0
C552 C 0.18235 0.95734 0.34499 0.0
C553 C 0.18118 0.97758 0.37373 0.0
C554 C 0.21131 0.01351 0.46817 0.0
C555 C 0.18638 0.05831 0.55658 0.0
C556 C 0.18871 0.03905 0.51918 0.0
C557 C 0.19528 0.98147 0.41575 0.0
C558 C 0.19302 1.00197 0.44941 0.0
H559 H 0.15357 0.10338 0.58092 0.0
H560 H 0.15818 0.07271 0.51911 0.0
H561 H 0.22361 0.04042 0.51581 0.0
H562 H 0.22403 0.93224 0.40948 0.0
H563 H 0.222 0.96731 0.45948 0.0
C564 C 0.22858 0.08624 0.92237 0.0
C565 C 0.21556 0.0889 0.87793 0.0
C566 C 0.2295 0.06536 0.94858 0.0
C567 C 0.21953 1.00378 0.9339 0.0
H568 H 0.20968 1.00441 0.0826 0.0
C569 C 0.19289 0.92349 0.04341 0.0
C570 C 0.1987 0.92012 0.09569 0.0
C571 C 0.19826 0.94353 0.01745 0.0
C572 C 0.2129 1.00384 0.04131 0.0
H573 H 0.19394 0.07136 0.82522 0.0
H574 H 0.1959 0.03484 0.87033 0.0
H575 H 0.21303 0.04025 0.03544 0.0
H576 H 0.21547 0.93512 0.16114 0.0
H577 H 0.2254 0.97014 0.11524 0.0
H578 H 0.21955 0.9675 0.9394 0.0
C579 C 0.20531 0.04896 0.88505 0.0
C580 C 0.21473 0.02445 0.0142 0.0
C581 C 0.20413 0.06992 0.85927 0.0
C582 C 0.21076 0.93713 0.12088 0.0
C583 C 0.21625 0.9573 0.09463 0.0
C584 C 0.21797 0.98321 0.96102 0.0
C585 C 0.21771 0.04653 0.93055 0.0
C586 C 0.21762 0.02466 0.96 0.0
C587 C 0.20983 0.9609 0.04263 0.0
C588 C 0.21411 0.98288 0.01497 0.0
H589 H 0.23751 0.10051 0.93804 0.0
H590 H 0.23935 0.064 0.98323 0.0
H591 H 0.22213 1.00335 0.89232 0.0
H592 H 0.1836 0.91083 0.02255 0.0
H593 H 0.19261 0.94566 0.97793 0.0
C594 C 0.79098 0.07058 0.66615 0.0
C595 C 0.78096 0.09012 0.64591 0.0
C596 C 0.78947 0.0497 0.64012 0.0
C597 C 0.78348 0.02562 0.51027 0.0
H598 H 0.77094 0.9694 0.58265 0.0
C599 C 0.78762 0.93822 0.40446 0.0
C600 C 0.79706 0.92041 0.43303 0.0
C601 C 0.78181 0.95868 0.42913 0.0
C602 C 0.77472 0.98486 0.56175 0.0
H603 H 0.76132 0.10293 0.58253 0.0
H604 H 0.75908 0.06656 0.53668 0.0
H605 H 0.76888 1.00544 0.6291 0.0
H606 H 0.8069 0.90993 0.51037 0.0
H607 H 0.79747 0.9452 0.55242 0.0
H608 H 0.79039 1.00511 0.4436 0.0
C609 C 0.76794 0.06741 0.57293 0.0
C610 C 0.77342 1.00555 0.58849 0.0
C611 C 0.76909 0.08819 0.59946 0.0
C612 C 0.79973 0.92324 0.48691 0.0
C613 C 0.79408 0.94356 0.51133 0.0
C614 C 0.78513 1.00487 0.48366 0.0
C615 C 0.77825 0.04797 0.59274 0.0
C616 C 0.77808 0.02614 0.56328 0.0
C617 C 0.78533 0.96178 0.48289 0.0
C618 C 0.78116 0.98411 0.50926 0.0
H619 H 0.80028 0.07149 0.70174 0.0
H620 H 0.79771 0.03505 0.65619 0.0
H621 H 0.78729 0.04121 0.48986 0.0
H622 H 0.78537 0.93665 0.36288 0.0
H623 H 0.77483 0.97216 0.40591 0.0
C624 C 0.26576 0.30088 0.26759 0.0
C625 C 0.26701 0.32439 0.25874 0.0
C626 C 0.25205 0.28727 0.2378 0.0
C627 C 0.23151 0.28468 0.10611 0.0
H628 H 0.20088 0.23165 0.15639 0.0
C629 C 0.19508 0.21702 0.96594 0.0
C630 C 0.19699 0.19418 0.98156 0.0
C631 C 0.20027 0.23473 1.00031 0.0
C632 C 0.20951 0.24627 0.14157 0.0
H633 H 0.25432 0.35236 0.21342 0.0
H634 H 0.23034 0.32844 0.16052 0.0
H635 H 0.21432 0.25975 0.21809 0.0
H636 H 0.20664 0.17213 0.0449 0.0
H637 H 0.21603 0.2027 0.10409 0.0
H638 H 0.22766 0.27073 0.02981 0.0
C639 C 0.23985 0.3206 0.19097 0.0
C640 C 0.21706 0.26247 0.177 0.0
C641 C 0.25331 0.33432 0.22165 0.0
C642 C 0.20454 0.1895 0.03193 0.0
C643 C 0.20985 0.20711 0.06605 0.0
C644 C 0.22412 0.26836 0.07062 0.0
C645 C 0.23961 0.29683 0.19766 0.0
C646 C 0.22855 0.28161 0.15981 0.0
C647 C 0.20762 0.23 0.051 0.0
C648 C 0.21348 0.24863 0.08798 0.0
H649 H 0.27642 0.29282 0.29545 0.0
H650 H 0.25241 0.26903 0.24371 0.0
H651 H 0.24056 0.2991 0.09164 0.0
H652 H 0.18912 0.2212 0.92758 0.0
H653 H 0.19819 0.25211 0.9874 0.0
C654 C 0.72644 0.72321 0.77285 0.0
C655 C 0.72751 0.69943 0.76896 0.0
C656 C 0.73963 0.73698 0.74229 0.0
C657 C 0.75308 0.75983 0.64318 0.0
H658 H 0.81216 0.74872 0.60186 0.0
C659 C 0.79088 0.80603 0.46801 0.0
C660 C 0.81215 0.81397 0.47325 0.0
C661 C 0.78188 0.7916 0.50537 0.0
C662 C 0.79569 0.75214 0.61326 0.0
H663 H 0.74413 0.67131 0.73249 0.0
H664 H 0.76726 0.69545 0.67839 0.0
H665 H 0.79556 0.72479 0.66863 0.0
H666 H 0.84054 0.81288 0.52253 0.0
H667 H 0.82483 0.78776 0.58759 0.0
H668 H 0.75312 0.78719 0.5885 0.0
C669 C 0.75636 0.70347 0.70561 0.0
C670 C 0.78613 0.7383 0.65123 0.0
C671 C 0.74323 0.68961 0.73681 0.0
C672 C 0.82421 0.80692 0.51676 0.0
C673 C 0.81521 0.79246 0.55413 0.0
C674 C 0.76257 0.77355 0.60528 0.0
C675 C 0.754 0.72732 0.70637 0.0
C676 C 0.76471 0.74205 0.66682 0.0
C677 C 0.79389 0.78469 0.54907 0.0
C678 C 0.78398 0.7699 0.58968 0.0
H679 H 0.71445 0.7312 0.79741 0.0
H680 H 0.73779 0.75527 0.74503 0.0
H681 H 0.73642 0.763 0.65337 0.0
H682 H 0.78122 0.81068 0.43463 0.0
H683 H 0.76553 0.78564 0.49969 0.0
C684 C 0.21295 0.80794 0.06084 0.0
C685 C 0.19053 0.81156 0.06124 0.0
C686 C 0.22227 0.79232 0.02652 0.0
C687 C 0.21175 0.75878 0.90563 0.0
H688 H 0.26177 0.72528 0.95364 0.0
C689 C 0.25759 0.68655 0.78955 0.0
C690 C 0.27976 0.69121 0.78527 0.0
C691 C 0.24446 0.69991 0.82214 0.0
C692 C 0.24774 0.73443 0.93978 0.0
H693 H 0.16055 0.80171 0.02375 0.0
H694 H 0.17666 0.77403 0.96565 0.0
H695 H 0.24346 0.75117 1.01264 0.0
H696 H 0.30534 0.71375 0.81163 0.0
H697 H 0.28276 0.73628 0.86824 0.0
H698 H 0.21623 0.74162 0.8326 0.0
C699 C 0.18712 0.7835 0.99148 0.0
C700 C 0.23734 0.7495 0.97341 0.0
C701 C 0.1778 0.79928 0.0255 0.0
C702 C 0.28837 0.70954 0.81373 0.0
C703 C 0.27545 0.72248 0.84656 0.0
C704 C 0.22206 0.74342 0.87207 0.0
C705 C 0.20948 0.77962 0.99178 0.0
C706 C 0.21951 0.76234 0.95655 0.0
C707 C 0.25343 0.71775 0.85159 0.0
C708 C 0.24045 0.7315 0.88853 0.0
H709 H 0.22343 0.81681 0.08762 0.0
H710 H 0.23961 0.79026 0.02729 0.0
H711 H 0.19818 0.76842 0.89097 0.0
H712 H 0.25047 0.67258 0.76814 0.0
H713 H 0.22746 0.69596 0.82534 0.0
C714 C 0.71328 0.3294 0.35478 0.0
C715 C 0.71961 0.33607 0.30473 0.0
C716 C 0.72657 0.31571 0.38531 0.0
C717 C 0.7666 0.27099 0.37403 0.0
H718 H 0.77216 0.27934 0.52288 0.0
C719 C 0.80806 0.20344 0.50453 0.0
C720 C 0.79856 0.19904 0.55308 0.0
C721 C 0.80147 0.22205 0.47445 0.0
C722 C 0.77062 0.2766 0.48145 0.0
H723 H 0.74501 0.33411 0.24748 0.0
H724 H 0.76843 0.30951 0.30094 0.0
H725 H 0.75609 0.30929 0.46996 0.0
H726 H 0.7746 0.21084 0.60788 0.0
H727 H 0.76281 0.24298 0.55531 0.0
H728 H 0.78022 0.23792 0.38558 0.0
C729 C 0.75315 0.31518 0.31658 0.0
C730 C 0.76155 0.29388 0.45106 0.0
C731 C 0.73991 0.32937 0.28621 0.0
C732 C 0.78246 0.21388 0.57104 0.0
C733 C 0.77575 0.23239 0.54081 0.0
C734 C 0.77553 0.2536 0.4045 0.0
C735 C 0.74645 0.30796 0.36625 0.0
C736 C 0.75903 0.29111 0.39713 0.0
C737 C 0.78508 0.23671 0.49192 0.0
C738 C 0.77727 0.25597 0.45883 0.0
H739 H 0.69766 0.3343 0.36988 0.0
H740 H 0.72079 0.31029 0.423 0.0
H741 H 0.76464 0.2682 0.3327 0.0
H742 H 0.82076 0.19259 0.48988 0.0
H743 H 0.80934 0.22498 0.43755 0.0
C744 C 0.70683 0.70102 1.00109 0.0
C745 C 0.68797 0.70765 0.97479 0.0
C746 C 0.71577 0.71489 0.03984 0.0
C747 C 0.71736 0.77449 0.08568 0.0
H748 H 0.74045 0.74783 0.21172 0.0
C749 C 0.75772 0.83035 0.24402 0.0
C750 C 0.77748 0.82187 0.26238 0.0
C751 C 0.74384 0.81632 0.21503 0.0
C752 C 0.73418 0.75558 0.17665 0.0
H753 H 0.66399 0.73437 0.96832 0.0
H754 H 0.67944 0.75835 0.03588 0.0
H755 H 0.72298 0.72356 0.14744 0.0
H756 H 0.79754 0.79176 0.26765 0.0
H757 H 0.77369 0.76759 0.2176 0.0
H758 H 0.72909 0.80641 0.1141 0.0
C759 C 0.68735 0.74244 0.02656 0.0
C760 C 0.72419 0.74162 0.13973 0.0
C761 C 0.67835 0.72854 0.98813 0.0
C762 C 0.78244 0.79884 0.25394 0.0
C763 C 0.76864 0.78489 0.22538 0.0
C764 C 0.72747 0.78845 0.1225 0.0
C765 C 0.70617 0.73582 0.05296 0.0
C766 C 0.71591 0.75084 0.09343 0.0
C767 C 0.74941 0.79353 0.20427 0.0
C768 C 0.73633 0.77914 0.16814 0.0
H769 H 0.71458 0.68502 0.99208 0.0
H770 H 0.73042 0.70937 0.05901 0.0
H771 H 0.71133 0.78214 0.05026 0.0
H772 H 0.75353 0.84807 0.24963 0.0
H773 H 0.72901 0.82348 0.19995 0.0
C774 C 0.2095 0.20889 0.70563 0.0
C775 C 0.21879 0.19209 0.73745 0.0
C776 C 0.22222 0.22336 0.67593 0.0
C777 C 0.27621 0.23105 0.61826 0.0
H778 H 0.25521 0.29282 0.6017 0.0
C779 C 0.3206 0.30082 0.49754 0.0
C780 C 0.3076 0.31299 0.46211 0.0
C781 C 0.31141 0.28626 0.53444 0.0
C782 C 0.26125 0.27562 0.60575 0.0
H783 H 0.24898 0.17705 0.76204 0.0
H784 H 0.27162 0.20301 0.71032 0.0
H785 H 0.23721 0.26718 0.66169 0.0
H786 H 0.27443 0.31909 0.43879 0.0
H787 H 0.25854 0.29429 0.50384 0.0
H788 H 0.30046 0.23987 0.56227 0.0
C789 C 0.25427 0.20471 0.70835 0.0
C790 C 0.25091 0.26084 0.6401 0.0
C791 C 0.24136 0.18989 0.7381 0.0
C792 C 0.28509 0.31042 0.4655 0.0
C793 C 0.27591 0.29607 0.50283 0.0
C794 C 0.28676 0.24601 0.5842 0.0
C795 C 0.24478 0.22183 0.67733 0.0
C796 C 0.25782 0.23814 0.64578 0.0
C797 C 0.28896 0.28372 0.53752 0.0
C798 C 0.27905 0.26829 0.57667 0.0
H799 H 0.19217 0.21085 0.70306 0.0
H800 H 0.21421 0.23569 0.65131 0.0
H801 H 0.28195 0.21371 0.62141 0.0
H802 H 0.33794 0.30251 0.49713 0.0
H803 H 0.32188 0.27719 0.56105 0.0
C804 C 0.75969 0.18289 0.81476 0.0
C805 C 0.77797 0.1918 0.78974 0.0
C806 C 0.74768 0.19654 0.84912 0.0
C807 C 0.75572 0.24607 0.9343 0.0
H808 H 0.69359 0.25254 0.93596 0.0
C809 C 0.71413 0.30481 0.08281 0.0
C810 C 0.69866 0.31972 0.06191 0.0
C811 C 0.72171 0.28631 0.05374 0.0
C812 C 0.71097 0.25086 0.93605 0.0
H813 H 0.79698 0.22236 0.77816 0.0
H814 H 0.77622 0.24582 0.8371 0.0
H815 H 0.71049 0.22597 0.8748 0.0
H816 H 0.67813 0.32596 0.99515 0.0
H817 H 0.69154 0.29405 0.94436 0.0
H818 H 0.75648 0.27127 0.99408 0.0
C819 C 0.77136 0.22829 0.83144 0.0
C820 C 0.7206 0.23552 0.90131 0.0
C821 C 0.7832 0.21482 0.79737 0.0
C822 C 0.69031 0.31508 1.01215 0.0
C823 C 0.69781 0.29656 0.98323 0.0
C824 C 0.74615 0.26121 0.96911 0.0
C825 C 0.75389 0.2192 0.85899 0.0
C826 C 0.74313 0.23339 0.89925 0.0
C827 C 0.71392 0.28218 1.00319 0.0
C828 C 0.72368 0.26416 0.96983 0.0
H829 H 0.75532 0.16519 0.80977 0.0
H830 H 0.7342 0.18912 0.86967 0.0
H831 H 0.77313 0.24459 0.93415 0.0
H832 H 0.72095 0.30787 0.12089 0.0
H833 H 0.73395 0.27543 0.07058 0.0
C834 C 0.24307 0.83425 0.30013 0.0
C835 C 0.22896 0.82445 0.26376 0.0
C836 C 0.25641 0.82037 0.3308 0.0
C837 C 0.27832 0.76188 0.34477 0.0
H838 H 0.26961 0.7709 0.49246 0.0
C839 C 0.2914 0.6892 0.49012 0.0
C840 C 0.29979 0.69386 0.53974 0.0
C841 C 0.28588 0.70682 0.45623 0.0
C842 C 0.27261 0.76831 0.45147 0.0
H843 H 0.21861 0.7929 0.22845 0.0
H844 H 0.24238 0.76883 0.28018 0.0
H845 H 0.25642 0.79926 0.43088 0.0
H846 H 0.30885 0.72085 0.59267 0.0
H847 H 0.29938 0.7518 0.53319 0.0
H848 H 0.29425 0.73086 0.36494 0.0
C849 C 0.24316 0.78708 0.28553 0.0
C850 C 0.26506 0.78462 0.41613 0.0
C851 C 0.22958 0.80085 0.25578 0.0
C852 C 0.30226 0.71669 0.5549 0.0
C853 C 0.29684 0.73442 0.52072 0.0
C854 C 0.28603 0.74569 0.38003 0.0
C855 C 0.25612 0.79656 0.3248 0.0
C856 C 0.26732 0.78129 0.36231 0.0
C857 C 0.28871 0.7297 0.47071 0.0
C858 C 0.28273 0.74832 0.43381 0.0
H859 H 0.24256 0.85237 0.30768 0.0
H860 H 0.26631 0.82816 0.36058 0.0
H861 H 0.28055 0.75896 0.30358 0.0
H862 H 0.28883 0.67184 0.47757 0.0
H863 H 0.27909 0.70243 0.41878 0.0
loop_
_geom_bond_atom_site_label_1
_geom_bond_atom_site_label_2
_geom_bond_distance
_geom_bond_site_symmetry_2
_ccdc_geom_bond_type
C0 C1 1.351 . S
C0 N3 1.368 . S
C0 H5 0.931 . S
C1 C0 1.351 . S
C1 N2 1.373 . S
C1 H29 0.930 . S
N2 C1 1.373 . S
N2 C4 1.340 . S
N3 C0 1.368 . S
N3 C4 1.321 . S
N3 Co6 2.135 . S
C4 N2 1.340 . S
C4 N3 1.321 . S
C4 H28 0.930 . S
H5 C0 0.931 . S
Co6 N3 2.135 . S
Co6 N9 2.121 . S
Co6 O14 2.055 . S
Co6 O17 2.039 . S
Co6 N20 2.140 . S
C7 O8 1.227 . S
C7 O17 1.265 . S
O8 C7 1.227 . S
N9 Co6 2.121 . S
N9 C11 1.375 . S
N9 C12 1.313 . S
C10 C11 1.338 . S
C10 N13 1.377 . S
C10 H30 0.930 . S
C11 N9 1.375 . S
C11 C10 1.338 . S
C11 H15 0.931 . S
C12 N9 1.313 . S
C12 N13 1.344 . S
C12 H16 0.930 . S
N13 C10 1.377 . S
N13 C12 1.344 . S
O14 Co6 2.055 . S
O14 C18 1.253 . S
H15 C11 0.931 . S
H16 C12 0.930 . S
O17 Co6 2.039 . S
O17 C7 1.265 . S
C18 O14 1.253 . S
C18 O19 1.227 . S
O19 C18 1.227 . S
N20 Co6 2.140 . S
N20 C23 1.346 . S
N20 C24 1.345 . S
C21 C22 1.387 . S
C21 C25 1.391 . S
C22 C21 1.387 . S
C22 C23 1.369 . S
C22 H31 0.929 . S
C23 N20 1.346 . S
C23 C22 1.369 . S
C23 H26 0.928 . S
C24 N20 1.345 . S
C24 C25 1.371 . S
C24 H27 0.931 . S
C25 C21 1.391 . S
C25 C24 1.371 . S
C25 H32 0.930 . S
H26 C23 0.928 . S
H27 C24 0.931 . S
H28 C4 0.930 . S
H29 C1 0.930 . S
H30 C10 0.930 . S
H31 C22 0.929 . S
H32 C25 0.930 . S
C33 C34 1.351 . S
C33 N36 1.368 . S
C33 H38 0.931 . S
C34 C33 1.351 . S
C34 N35 1.373 . S
C34 H62 0.930 . S
N35 C34 1.373 . S
N35 C37 1.340 . S
N36 C33 1.368 . S
N36 C37 1.321 . S
N36 Co39 2.135 . S
C37 N35 1.340 . S
C37 N36 1.321 . S
C37 H61 0.930 . S
H38 C33 0.931 . S
Co39 N36 2.135 . S
Co39 N42 2.121 . S
Co39 O47 2.055 . S
Co39 O50 2.039 . S
Co39 N53 2.140 . S
C40 O41 1.227 . S
C40 O50 1.265 . S
O41 C40 1.227 . S
N42 Co39 2.121 . S
N42 C44 1.375 . S
N42 C45 1.313 . S
C43 C44 1.338 . S
C43 N46 1.377 . S
C43 H63 0.930 . S
C44 N42 1.375 . S
C44 C43 1.338 . S
C44 H48 0.931 . S
C45 N42 1.313 . S
C45 N46 1.344 . S
C45 H49 0.930 . S
N46 C43 1.377 . S
N46 C45 1.344 . S
O47 Co39 2.055 . S
O47 C51 1.253 . S
H48 C44 0.931 . S
H49 C45 0.930 . S
O50 Co39 2.039 . S
O50 C40 1.265 . S
C51 O47 1.253 . S
C51 O52 1.227 . S
O52 C51 1.227 . S
N53 Co39 2.140 . S
N53 C56 1.346 . S
N53 C57 1.345 . S
C54 C55 1.387 . S
C54 C58 1.391 . S
C55 C54 1.387 . S
C55 C56 1.369 . S
C55 H64 0.929 . S
C56 N53 1.346 . S
C56 C55 1.369 . S
C56 H59 0.928 . S
C57 N53 1.345 . S
C57 C58 1.371 . S
C57 H60 0.931 . S
C58 C54 1.391 . S
C58 C57 1.371 . S
C58 H65 0.930 . S
H59 C56 0.928 . S
H60 C57 0.931 . S
H61 C37 0.930 . S
H62 C34 0.930 . S
H63 C43 0.930 . S
H64 C55 0.929 . S
H65 C58 0.930 . S
C66 C67 1.351 . S
C66 N69 1.368 . S
C66 H71 0.931 . S
C67 C66 1.351 . S
C67 N68 1.373 . S
C67 H95 0.930 . S
N68 C67 1.373 . S
N68 C70 1.340 . S
N69 C66 1.368 . S
N69 C70 1.321 . S
N69 Co72 2.135 . S
C70 N68 1.340 . S
C70 N69 1.321 . S
C70 H94 0.930 . S
H71 C66 0.931 . S
Co72 N69 2.135 . S
Co72 N75 2.121 . S
Co72 O80 2.055 . S
Co72 O83 2.039 . S
Co72 N86 2.140 . S
C73 O74 1.227 . S
C73 O83 1.265 . S
O74 C73 1.227 . S
N75 Co72 2.121 . S
N75 C77 1.375 . S
N75 C78 1.313 . S
C76 C77 1.338 . S
C76 N79 1.377 . S
C76 H96 0.930 . S
C77 N75 1.375 . S
C77 C76 1.338 . S
C77 H81 0.931 . S
C78 N75 1.313 . S
C78 N79 1.344 . S
C78 H82 0.930 . S
N79 C76 1.377 . S
N79 C78 1.344 . S
O80 Co72 2.055 . S
O80 C84 1.253 . S
H81 C77 0.931 . S
H82 C78 0.930 . S
O83 Co72 2.039 . S
O83 C73 1.265 . S
C84 O80 1.253 . S
C84 O85 1.227 . S
O85 C84 1.227 . S
N86 Co72 2.140 . S
N86 C89 1.346 . S
N86 C90 1.345 . S
C87 C88 1.387 . S
C87 C91 1.391 . S
C88 C87 1.387 . S
C88 C89 1.369 . S
C88 H97 0.929 . S
C89 N86 1.346 . S
C89 C88 1.369 . S
C89 H92 0.928 . S
C90 N86 1.345 . S
C90 C91 1.371 . S
C90 H93 0.931 . S
C91 C87 1.391 . S
C91 C90 1.371 . S
C91 H98 0.930 . S
H92 C89 0.928 . S
H93 C90 0.931 . S
H94 C70 0.930 . S
H95 C67 0.930 . S
H96 C76 0.930 . S
H97 C88 0.929 . S
H98 C91 0.930 . S
C99 C100 1.351 . S
C99 N102 1.368 . S
C99 H104 0.931 . S
C100 C99 1.351 . S
C100 N101 1.373 . S
C100 H128 0.930 . S
N101 C100 1.373 . S
N101 C103 1.340 . S
N102 C99 1.368 . S
N102 C103 1.321 . S
N102 Co105 2.135 . S
C103 N101 1.340 . S
C103 N102 1.321 . S
C103 H127 0.930 . S
H104 C99 0.931 . S
Co105 N102 2.135 . S
Co105 N108 2.121 . S
Co105 O113 2.055 . S
Co105 O116 2.039 . S
Co105 N119 2.140 . S
C106 O107 1.227 . S
C106 O116 1.265 . S
O107 C106 1.227 . S
N108 Co105 2.121 . S
N108 C110 1.375 . S
N108 C111 1.313 . S
C109 C110 1.338 . S
C109 N112 1.377 . S
C109 H129 0.930 . S
C110 N108 1.375 . S
C110 C109 1.338 . S
C110 H114 0.931 . S
C111 N108 1.313 . S
C111 N112 1.344 . S
C111 H115 0.930 . S
N112 C109 1.377 . S
N112 C111 1.344 . S
O113 Co105 2.055 . S
O113 C117 1.253 . S
H114 C110 0.931 . S
H115 C111 0.930 . S
O116 Co105 2.039 . S
O116 C106 1.265 . S
C117 O113 1.253 . S
C117 O118 1.227 . S
O118 C117 1.227 . S
N119 Co105 2.140 . S
N119 C122 1.346 . S
N119 C123 1.345 . S
C120 C121 1.387 . S
C120 C124 1.391 . S
C121 C120 1.387 . S
C121 C122 1.369 . S
C121 H130 0.929 . S
C122 N119 1.346 . S
C122 C121 1.369 . S
C122 H125 0.928 . S
C123 N119 1.345 . S
C123 C124 1.371 . S
C123 H126 0.931 . S
C124 C120 1.391 . S
C124 C123 1.371 . S
C124 H131 0.930 . S
H125 C122 0.928 . S
H126 C123 0.931 . S
H127 C103 0.930 . S
H128 C100 0.930 . S
H129 C109 0.930 . S
H130 C121 0.929 . S
H131 C124 0.930 . S
C132 C133 1.351 . S
C132 N135 1.368 . S
C132 H137 0.931 . S
C133 C132 1.351 . S
C133 N134 1.373 . S
C133 H161 0.930 . S
N134 C133 1.373 . S
N134 C136 1.340 . S
N135 C132 1.368 . S
N135 C136 1.321 . S
N135 Co138 2.135 . S
C136 N134 1.340 . S
C136 N135 1.321 . S
C136 H160 0.930 . S
H137 C132 0.931 . S
Co138 N135 2.135 . S
Co138 N141 2.121 . S
Co138 O146 2.055 . S
Co138 O149 2.039 . S
Co138 N152 2.140 . S
C139 O140 1.227 . S
C139 O149 1.265 . S
O140 C139 1.227 . S
N141 Co138 2.121 . S
N141 C143 1.375 . S
N141 C144 1.313 . S
C142 C143 1.338 . S
C142 N145 1.377 . S
C142 H162 0.930 . S
C143 N141 1.375 . S
C143 C142 1.338 . S
C143 H147 0.931 . S
C144 N141 1.313 . S
C144 N145 1.344 . S
C144 H148 0.930 . S
N145 C142 1.377 . S
N145 C144 1.344 . S
O146 Co138 2.055 . S
O146 C150 1.253 . S
H147 C143 0.931 . S
H148 C144 0.930 . S
O149 Co138 2.039 . S
O149 C139 1.265 . S
C150 O146 1.253 . S
C150 O151 1.227 . S
O151 C150 1.227 . S
N152 Co138 2.140 . S
N152 C155 1.346 . S
N152 C156 1.345 . S
C153 C154 1.387 . S
C153 C157 1.391 . S
C154 C153 1.387 . S
C154 C155 1.369 . S
C154 H163 0.929 . S
C155 N152 1.346 . S
C155 C154 1.369 . S
C155 H158 0.928 . S
C156 N152 1.345 . S
C156 C157 1.371 . S
C156 H159 0.931 . S
C157 C153 1.391 . S
C157 C156 1.371 . S
C157 H164 0.930 . S
H158 C155 0.928 . S
H159 C156 0.931 . S
H160 C136 0.930 . S
H161 C133 0.930 . S
H162 C142 0.930 . S
H163 C154 0.929 . S
H164 C157 0.930 . S
C165 C166 1.351 . S
C165 N168 1.368 . S
C165 H170 0.931 . S
C166 C165 1.351 . S
C166 N167 1.373 . S
C166 H194 0.930 . S
N167 C166 1.373 . S
N167 C169 1.340 . S
N168 C165 1.368 . S
N168 C169 1.321 . S
N168 Co171 2.135 . S
C169 N167 1.340 . S
C169 N168 1.321 . S
C169 H193 0.930 . S
H170 C165 0.931 . S
Co171 N168 2.135 . S
Co171 N174 2.121 . S
Co171 O179 2.055 . S
Co171 O182 2.039 . S
Co171 N185 2.140 . S
C172 O173 1.227 . S
C172 O182 1.265 . S
O173 C172 1.227 . S
N174 Co171 2.121 . S
N174 C176 1.375 . S
N174 C177 1.313 . S
C175 C176 1.338 . S
C175 N178 1.377 . S
C175 H195 0.930 . S
C176 N174 1.375 . S
C176 C175 1.338 . S
C176 H180 0.931 . S
C177 N174 1.313 . S
C177 N178 1.344 . S
C177 H181 0.930 . S
N178 C175 1.377 . S
N178 C177 1.344 . S
O179 Co171 2.055 . S
O179 C183 1.253 . S
H180 C176 0.931 . S
H181 C177 0.930 . S
O182 Co171 2.039 . S
O182 C172 1.265 . S
C183 O179 1.253 . S
C183 O184 1.227 . S
O184 C183 1.227 . S
N185 Co171 2.140 . S
N185 C188 1.346 . S
N185 C189 1.345 . S
C186 C187 1.387 . S
C186 C190 1.391 . S
C187 C186 1.387 . S
C187 C188 1.369 . S
C187 H196 0.929 . S
C188 N185 1.346 . S
C188 C187 1.369 . S
C188 H191 0.928 . S
C189 N185 1.345 . S
C189 C190 1.371 . S
C189 H192 0.931 . S
C190 C186 1.391 . S
C190 C189 1.371 . S
C190 H197 0.930 . S
H191 C188 0.928 . S
H192 C189 0.931 . S
H193 C169 0.930 . S
H194 C166 0.930 . S
H195 C175 0.930 . S
H196 C187 0.929 . S
H197 C190 0.930 . S
C198 C199 1.351 . S
C198 N201 1.368 . S
C198 H203 0.931 . S
C199 C198 1.351 . S
C199 N200 1.373 . S
C199 H227 0.930 . S
N200 C199 1.373 . S
N200 C202 1.340 . S
N201 C198 1.368 . S
N201 C202 1.321 . S
N201 Co204 2.135 . S
C202 N200 1.340 . S
C202 N201 1.321 . S
C202 H226 0.930 . S
H203 C198 0.931 . S
Co204 N201 2.135 . S
Co204 N207 2.121 . S
Co204 O212 2.055 . S
Co204 O215 2.039 . S
Co204 N218 2.140 . S
C205 O206 1.227 . S
C205 O215 1.265 . S
O206 C205 1.227 . S
N207 Co204 2.121 . S
N207 C209 1.375 . S
N207 C210 1.313 . S
C208 C209 1.338 . S
C208 N211 1.377 . S
C208 H228 0.930 . S
C209 N207 1.375 . S
C209 C208 1.338 . S
C209 H213 0.931 . S
C210 N207 1.313 . S
C210 N211 1.344 . S
C210 H214 0.930 . S
N211 C208 1.377 . S
N211 C210 1.344 . S
O212 Co204 2.055 . S
O212 C216 1.253 . S
H213 C209 0.931 . S
H214 C210 0.930 . S
O215 Co204 2.039 . S
O215 C205 1.265 . S
C216 O212 1.253 . S
C216 O217 1.227 . S
O217 C216 1.227 . S
N218 Co204 2.140 . S
N218 C221 1.346 . S
N218 C222 1.345 . S
C219 C220 1.387 . S
C219 C223 1.391 . S
C220 C219 1.387 . S
C220 C221 1.369 . S
C220 H229 0.929 . S
C221 N218 1.346 . S
C221 C220 1.369 . S
C221 H224 0.928 . S
C222 N218 1.345 . S
C222 C223 1.371 . S
C222 H225 0.931 . S
C223 C219 1.391 . S
C223 C222 1.371 . S
C223 H230 0.930 . S
H224 C221 0.928 . S
H225 C222 0.931 . S
H226 C202 0.930 . S
H227 C199 0.930 . S
H228 C208 0.930 . S
H229 C220 0.929 . S
H230 C223 0.930 . S
C231 C232 1.351 . S
C231 N234 1.368 . S
C231 H236 0.931 . S
C232 C231 1.351 . S
C232 N233 1.373 . S
C232 H260 0.930 . S
N233 C232 1.373 . S
N233 C235 1.340 . S
N234 C231 1.368 . S
N234 C235 1.321 . S
N234 Co237 2.135 . S
C235 N233 1.340 . S
C235 N234 1.321 . S
C235 H259 0.930 . S
H236 C231 0.931 . S
Co237 N234 2.135 . S
Co237 N240 2.121 . S
Co237 O245 2.055 . S
Co237 O248 2.039 . S
Co237 N251 2.140 . S
C238 O239 1.227 . S
C238 O248 1.265 . S
O239 C238 1.227 . S
N240 Co237 2.121 . S
N240 C242 1.375 . S
N240 C243 1.313 . S
C241 C242 1.338 . S
C241 N244 1.377 . S
C241 H261 0.930 . S
C242 N240 1.375 . S
C242 C241 1.338 . S
C242 H246 0.931 . S
C243 N240 1.313 . S
C243 N244 1.344 . S
C243 H247 0.930 . S
N244 C241 1.377 . S
N244 C243 1.344 . S
O245 Co237 2.055 . S
O245 C249 1.253 . S
H246 C242 0.931 . S
H247 C243 0.930 . S
O248 Co237 2.039 . S
O248 C238 1.265 . S
C249 O245 1.253 . S
C249 O250 1.227 . S
O250 C249 1.227 . S
N251 Co237 2.140 . S
N251 C254 1.346 . S
N251 C255 1.345 . S
C252 C253 1.387 . S
C252 C256 1.391 . S
C253 C252 1.387 . S
C253 C254 1.369 . S
C253 H262 0.929 . S
C254 N251 1.346 . S
C254 C253 1.369 . S
C254 H257 0.928 . S
C255 N251 1.345 . S
C255 C256 1.371 . S
C255 H258 0.931 . S
C256 C252 1.391 . S
C256 C255 1.371 . S
C256 H263 0.930 . S
H257 C254 0.928 . S
H258 C255 0.931 . S
H259 C235 0.930 . S
H260 C232 0.930 . S
H261 C241 0.930 . S
H262 C253 0.929 . S
H263 C256 0.930 . S
C264 C265 1.349 . S
C264 C266 1.327 . S
C264 H289 0.950 . S
C265 C264 1.349 . S
C265 C281 1.349 . S
C266 C264 1.327 . S
C266 C285 1.429 . S
C266 H290 0.950 . S
C267 C284 1.574 . S
C267 C286 1.368 . S
C267 H291 0.949 . S
H268 C272 0.949 . S
C269 C270 1.349 . S
C269 C271 1.327 . S
C269 H292 0.950 . S
C270 C269 1.349 . S
C270 C282 1.349 . S
C271 C269 1.327 . S
C271 C287 1.429 . S
C271 H293 0.950 . S
C272 H268 0.949 . S
C272 C280 1.574 . S
C272 C288 1.368 . S
H273 C281 0.950 . S
H274 C279 0.950 . S
H275 C280 0.949 . S
H276 C282 0.950 . S
H277 C283 0.950 . S
H278 C284 0.949 . S
C279 H274 0.950 . S
C279 C281 1.327 . S
C279 C285 1.429 . S
C280 C272 1.574 . S
C280 H275 0.949 . S
C280 C286 1.368 . S
C281 C265 1.349 . S
C281 H273 0.950 . S
C281 C279 1.327 . S
C282 C270 1.349 . S
C282 H276 0.950 . S
C282 C283 1.327 . S
C283 H277 0.950 . S
C283 C282 1.327 . S
C283 C287 1.429 . S
C284 C267 1.574 . S
C284 H278 0.949 . S
C284 C288 1.368 . S
C285 C266 1.429 . S
C285 C279 1.429 . S
C285 C286 1.523 . S
C286 C267 1.368 . S
C286 C280 1.368 . S
C286 C285 1.523 . S
C287 C271 1.429 . S
C287 C283 1.429 . S
C287 C288 1.523 . S
C288 C272 1.368 . S
C288 C284 1.368 . S
C288 C287 1.523 . S
H289 C264 0.950 . S
H290 C266 0.950 . S
H291 C267 0.949 . S
H292 C269 0.950 . S
H293 C271 0.950 . S
C294 C295 1.349 . S
C294 C296 1.327 . S
C294 H319 0.950 . S
C295 C294 1.349 . S
C295 C311 1.349 . S
C296 C294 1.327 . S
C296 C315 1.429 . S
C296 H320 0.950 . S
C297 C314 1.574 . S
C297 C316 1.368 . S
C297 H321 0.949 . S
H298 C302 0.949 . S
C299 C300 1.349 . S
C299 C301 1.327 . S
C299 H322 0.950 . S
C300 C299 1.349 . S
C300 C312 1.349 . S
C301 C299 1.327 . S
C301 C317 1.429 . S
C301 H323 0.950 . S
C302 H298 0.949 . S
C302 C310 1.574 . S
C302 C318 1.368 . S
H303 C311 0.950 . S
H304 C309 0.950 . S
H305 C310 0.949 . S
H306 C312 0.950 . S
H307 C313 0.950 . S
H308 C314 0.949 . S
C309 H304 0.950 . S
C309 C311 1.327 . S
C309 C315 1.429 . S
C310 C302 1.574 . S
C310 H305 0.949 . S
C310 C316 1.368 . S
C311 C295 1.349 . S
C311 H303 0.950 . S
C311 C309 1.327 . S
C312 C300 1.349 . S
C312 H306 0.950 . S
C312 C313 1.327 . S
C313 H307 0.950 . S
C313 C312 1.327 . S
C313 C317 1.429 . S
C314 C297 1.574 . S
C314 H308 0.949 . S
C314 C318 1.368 . S
C315 C296 1.429 . S
C315 C309 1.429 . S
C315 C316 1.523 . S
C316 C297 1.368 . S
C316 C310 1.368 . S
C316 C315 1.523 . S
C317 C301 1.429 . S
C317 C313 1.429 . S
C317 C318 1.523 . S
C318 C302 1.368 . S
C318 C314 1.368 . S
C318 C317 1.523 . S
H319 C294 0.950 . S
H320 C296 0.950 . S
H321 C297 0.949 . S
H322 C299 0.950 . S
H323 C301 0.950 . S
C324 C325 1.349 . S
C324 C326 1.327 . S
C324 H349 0.950 . S
C325 C324 1.349 . S
C325 C341 1.349 . S
C326 C324 1.327 . S
C326 C345 1.429 . S
C326 H350 0.950 . S
C327 C344 1.574 1_455 S
C327 C346 1.368 . S
C327 H351 0.949 . S
H328 C332 0.949 . S
C329 C330 1.349 . S
C329 C331 1.327 . S
C329 H352 0.950 . S
C330 C329 1.349 . S
C330 C342 1.349 . S
C331 C329 1.327 . S
C331 C347 1.429 . S
C331 H353 0.950 . S
C332 H328 0.949 . S
C332 C340 1.574 1_655 S
C332 C348 1.368 . S
H333 C341 0.950 . S
H334 C339 0.950 . S
H335 C340 0.949 . S
H336 C342 0.950 . S
H337 C343 0.950 . S
H338 C344 0.949 . S
C339 H334 0.950 . S
C339 C341 1.327 . S
C339 C345 1.429 . S
C340 C332 1.574 1_455 S
C340 H335 0.949 . S
C340 C346 1.368 . S
C341 C325 1.349 . S
C341 H333 0.950 . S
C341 C339 1.327 . S
C342 C330 1.349 . S
C342 H336 0.950 . S
C342 C343 1.327 . S
C343 H337 0.950 . S
C343 C342 1.327 . S
C343 C347 1.429 . S
C344 C327 1.574 1_655 S
C344 H338 0.949 . S
C344 C348 1.368 . S
C345 C326 1.429 . S
C345 C339 1.429 . S
C345 C346 1.523 . S
C346 C327 1.368 . S
C346 C340 1.368 . S
C346 C345 1.523 . S
C347 C331 1.429 . S
C347 C343 1.429 . S
C347 C348 1.523 . S
C348 C332 1.368 . S
C348 C344 1.368 . S
C348 C347 1.523 . S
H349 C324 0.950 . S
H350 C326 0.950 . S
H351 C327 0.949 . S
H352 C329 0.950 . S
H353 C331 0.950 . S
C354 C355 1.349 . S
C354 C356 1.327 . S
C354 H379 0.950 . S
C355 C354 1.349 . S
C355 C371 1.349 . S
C356 C354 1.327 . S
C356 C375 1.429 . S
C356 H380 0.950 . S
C357 C374 1.574 1_455 S
C357 C376 1.368 . S
C357 H381 0.949 . S
H358 C362 0.949 . S
C359 C360 1.349 . S
C359 C361 1.327 . S
C359 H382 0.950 . S
C360 C359 1.349 . S
C360 C372 1.349 . S
C361 C359 1.327 . S
C361 C377 1.429 . S
C361 H383 0.950 . S
C362 H358 0.949 . S
C362 C370 1.574 1_655 S
C362 C378 1.368 . S
H363 C371 0.950 . S
H364 C369 0.950 . S
H365 C370 0.949 . S
H366 C372 0.950 . S
H367 C373 0.950 . S
H368 C374 0.949 . S
C369 H364 0.950 . S
C369 C371 1.327 . S
C369 C375 1.429 . S
C370 C362 1.574 1_455 S
C370 H365 0.949 . S
C370 C376 1.368 . S
C371 C355 1.349 . S
C371 H363 0.950 . S
C371 C369 1.327 . S
C372 C360 1.349 . S
C372 H366 0.950 . S
C372 C373 1.327 . S
C373 H367 0.950 . S
C373 C372 1.327 . S
C373 C377 1.429 . S
C374 C357 1.574 1_655 S
C374 H368 0.949 . S
C374 C378 1.368 . S
C375 C356 1.429 . S
C375 C369 1.429 . S
C375 C376 1.523 . S
C376 C357 1.368 . S
C376 C370 1.368 . S
C376 C375 1.523 . S
C377 C361 1.429 . S
C377 C373 1.429 . S
C377 C378 1.523 . S
C378 C362 1.368 . S
C378 C374 1.368 . S
C378 C377 1.523 . S
H379 C354 0.950 . S
H380 C356 0.950 . S
H381 C357 0.949 . S
H382 C359 0.950 . S
H383 C361 0.950 . S
C384 C385 1.349 . S
C384 C386 1.327 . S
C384 H409 0.950 . S
C385 C384 1.349 . S
C385 C401 1.349 . S
C386 C384 1.327 . S
C386 C405 1.429 . S
C386 H410 0.950 . S
C387 C404 1.574 . S
C387 C406 1.368 . S
C387 H411 0.949 . S
H388 C392 0.949 . S
C389 C390 1.349 . S
C389 C391 1.327 . S
C389 H412 0.950 . S
C390 C389 1.349 . S
C390 C402 1.349 . S
C391 C389 1.327 . S
C391 C407 1.429 . S
C391 H413 0.950 . S
C392 H388 0.949 . S
C392 C400 1.574 . S
C392 C408 1.368 . S
H393 C401 0.950 . S
H394 C399 0.950 . S
H395 C400 0.949 . S
H396 C402 0.950 . S
H397 C403 0.950 . S
H398 C404 0.949 . S
C399 H394 0.950 . S
C399 C401 1.327 . S
C399 C405 1.429 . S
C400 C392 1.574 . S
C400 H395 0.949 . S
C400 C406 1.368 1_554 S
C401 C385 1.349 . S
C401 H393 0.950 . S
C401 C399 1.327 . S
C402 C390 1.349 . S
C402 H396 0.950 . S
C402 C403 1.327 . S
C403 H397 0.950 . S
C403 C402 1.327 . S
C403 C407 1.429 . S
C404 C387 1.574 . S
C404 H398 0.949 . S
C404 C408 1.368 1_556 S
C405 C386 1.429 . S
C405 C399 1.429 . S
C405 C406 1.523 . S
C406 C387 1.368 . S
C406 C400 1.368 1_556 S
C406 C405 1.523 . S
C407 C391 1.429 . S
C407 C403 1.429 . S
C407 C408 1.523 . S
C408 C392 1.368 . S
C408 C404 1.368 1_554 S
C408 C407 1.523 . S
H409 C384 0.950 . S
H410 C386 0.950 . S
H411 C387 0.949 . S
H412 C389 0.950 . S
H413 C391 0.950 . S
C414 C415 1.349 . S
C414 C416 1.327 . S
C414 H439 0.950 . S
C415 C414 1.349 . S
C415 C431 1.349 . S
C416 C414 1.327 . S
C416 C435 1.429 . S
C416 H440 0.950 . S
C417 C434 1.574 . S
C417 C436 1.368 . S
C417 H441 0.949 . S
H418 C422 0.949 . S
C419 C420 1.349 . S
C419 C421 1.327 . S
C419 H442 0.950 . S
C420 C419 1.349 . S
C420 C432 1.349 . S
C421 C419 1.327 . S
C421 C437 1.429 . S
C421 H443 0.950 . S
C422 H418 0.949 . S
C422 C430 1.574 . S
C422 C438 1.368 . S
H423 C431 0.950 . S
H424 C429 0.950 . S
H425 C430 0.949 . S
H426 C432 0.950 . S
H427 C433 0.950 . S
H428 C434 0.949 . S
C429 H424 0.950 . S
C429 C431 1.327 . S
C429 C435 1.429 . S
C430 C422 1.574 . S
C430 H425 0.949 . S
C430 C436 1.368 . S
C431 C415 1.349 . S
C431 H423 0.950 . S
C431 C429 1.327 . S
C432 C420 1.349 . S
C432 H426 0.950 . S
C432 C433 1.327 . S
C433 H427 0.950 . S
C433 C432 1.327 . S
C433 C437 1.429 . S
C434 C417 1.574 . S
C434 H428 0.949 . S
C434 C438 1.368 . S
C435 C416 1.429 . S
C435 C429 1.429 . S
C435 C436 1.523 . S
C436 C417 1.368 . S
C436 C430 1.368 . S
C436 C435 1.523 . S
C437 C421 1.429 . S
C437 C433 1.429 . S
C437 C438 1.523 . S
C438 C422 1.368 . S
C438 C434 1.368 . S
C438 C437 1.523 . S
H439 C414 0.950 . S
H440 C416 0.950 . S
H441 C417 0.949 . S
H442 C419 0.950 . S
H443 C421 0.950 . S
C444 C445 1.349 . S
C444 C446 1.327 . S
C444 H469 0.950 . S
C445 C444 1.349 . S
C445 C461 1.349 . S
C446 C444 1.327 . S
C446 C465 1.429 . S
C446 H470 0.950 . S
C447 C464 1.574 . S
C447 C466 1.368 1_554 S
C447 H471 0.949 . S
H448 C452 0.949 . S
C449 C450 1.349 . S
C449 C451 1.327 . S
C449 H472 0.950 . S
C450 C449 1.349 . S
C450 C462 1.349 . S
C451 C449 1.327 . S
C451 C467 1.429 . S
C451 H473 0.950 . S
C452 H448 0.949 . S
C452 C460 1.574 . S
C452 C468 1.368 1_556 S
H453 C461 0.950 . S
H454 C459 0.950 . S
H455 C460 0.949 . S
H456 C462 0.950 . S
H457 C463 0.950 . S
H458 C464 0.949 . S
C459 H454 0.950 . S
C459 C461 1.327 . S
C459 C465 1.429 . S
C460 C452 1.574 . S
C460 H455 0.949 . S
C460 C466 1.368 . S
C461 C445 1.349 . S
C461 H453 0.950 . S
C461 C459 1.327 . S
C462 C450 1.349 . S
C462 H456 0.950 . S
C462 C463 1.327 . S
C463 H457 0.950 . S
C463 C462 1.327 . S
C463 C467 1.429 . S
C464 C447 1.574 . S
C464 H458 0.949 . S
C464 C468 1.368 . S
C465 C446 1.429 . S
C465 C459 1.429 . S
C465 C466 1.523 . S
C466 C447 1.368 1_556 S
C466 C460 1.368 . S
C466 C465 1.523 . S
C467 C451 1.429 . S
C467 C463 1.429 . S
C467 C468 1.523 . S
C468 C452 1.368 1_554 S
C468 C464 1.368 . S
C468 C467 1.523 . S
H469 C444 0.950 . S
H470 C446 0.950 . S
H471 C447 0.949 . S
H472 C449 0.950 . S
H473 C451 0.950 . S
C474 C475 1.349 . S
C474 C476 1.327 . S
C474 H499 0.950 . S
C475 C474 1.349 . S
C475 C491 1.349 . S
C476 C474 1.327 . S
C476 C495 1.429 . S
C476 H500 0.950 . S
C477 C494 1.574 . S
C477 C496 1.368 . S
C477 H501 0.949 . S
H478 C482 0.949 . S
C479 C480 1.349 . S
C479 C481 1.327 . S
C479 H502 0.950 . S
C480 C479 1.349 . S
C480 C492 1.349 . S
C481 C479 1.327 . S
C481 C497 1.429 . S
C481 H503 0.950 . S
C482 H478 0.949 . S
C482 C490 1.574 . S
C482 C498 1.368 . S
H483 C491 0.950 . S
H484 C489 0.950 . S
H485 C490 0.949 . S
H486 C492 0.950 . S
H487 C493 0.950 . S
H488 C494 0.949 . S
C489 H484 0.950 . S
C489 C491 1.327 . S
C489 C495 1.429 . S
C490 C482 1.574 . S
C490 H485 0.949 . S
C490 C496 1.368 . S
C491 C475 1.349 . S
C491 H483 0.950 . S
C491 C489 1.327 . S
C492 C480 1.349 . S
C492 H486 0.950 . S
C492 C493 1.327 . S
C493 H487 0.950 . S
C493 C492 1.327 . S
C493 C497 1.429 . S
C494 C477 1.574 . S
C494 H488 0.949 . S
C494 C498 1.368 . S
C495 C476 1.429 . S
C495 C489 1.429 . S
C495 C496 1.523 . S
C496 C477 1.368 . S
C496 C490 1.368 . S
C496 C495 1.523 . S
C497 C481 1.429 . S
C497 C493 1.429 . S
C497 C498 1.523 . S
C498 C482 1.368 . S
C498 C494 1.368 . S
C498 C497 1.523 . S
H499 C474 0.950 . S
H500 C476 0.950 . S
H501 C477 0.949 . S
H502 C479 0.950 . S
H503 C481 0.950 . S
C504 C505 1.349 . S
C504 C506 1.327 . S
C504 H529 0.950 . S
C505 C504 1.349 . S
C505 C521 1.349 . S
C506 C504 1.327 . S
C506 C525 1.429 . S
C506 H530 0.950 . S
C507 C524 1.574 1_546 S
C507 C526 1.368 . S
C507 H531 0.949 . S
H508 C512 0.949 . S
C509 C510 1.349 . S
C509 C511 1.327 . S
C509 H532 0.950 . S
C510 C509 1.349 . S
C510 C522 1.349 . S
C511 C509 1.327 . S
C511 C527 1.429 . S
C511 H533 0.950 . S
C512 H508 0.949 . S
C512 C520 1.574 1_564 S
C512 C528 1.368 . S
H513 C521 0.950 . S
H514 C519 0.950 . S
H515 C520 0.949 . S
H516 C522 0.950 . S
H517 C523 0.950 . S
H518 C524 0.949 . S
C519 H514 0.950 . S
C519 C521 1.327 . S
C519 C525 1.429 . S
C520 C512 1.574 1_546 S
C520 H515 0.949 . S
C520 C526 1.368 . S
C521 C505 1.349 . S
C521 H513 0.950 . S
C521 C519 1.327 . S
C522 C510 1.349 . S
C522 H516 0.950 . S
C522 C523 1.327 . S
C523 H517 0.950 . S
C523 C522 1.327 . S
C523 C527 1.429 . S
C524 C507 1.574 1_564 S
C524 H518 0.949 . S
C524 C528 1.368 . S
C525 C506 1.429 . S
C525 C519 1.429 . S
C525 C526 1.523 . S
C526 C507 1.368 . S
C526 C520 1.368 . S
C526 C525 1.523 . S
C527 C511 1.429 . S
C527 C523 1.429 . S
C527 C528 1.523 . S
C528 C512 1.368 . S
C528 C524 1.368 . S
C528 C527 1.523 . S
H529 C504 0.950 . S
H530 C506 0.950 . S
H531 C507 0.949 . S
H532 C509 0.950 . S
H533 C511 0.950 . S
C534 C535 1.349 . S
C534 C536 1.327 . S
C534 H559 0.950 . S
C535 C534 1.349 . S
C535 C551 1.349 . S
C536 C534 1.327 . S
C536 C555 1.429 . S
C536 H560 0.950 . S
C537 C554 1.574 1_545 S
C537 C556 1.368 . S
C537 H561 0.949 . S
H538 C542 0.949 . S
C539 C540 1.349 . S
C539 C541 1.327 . S
C539 H562 0.950 . S
C540 C539 1.349 . S
C540 C552 1.349 . S
C541 C539 1.327 . S
C541 C557 1.429 . S
C541 H563 0.950 . S
C542 H538 0.949 . S
C542 C550 1.574 1_565 S
C542 C558 1.368 . S
H543 C551 0.950 . S
H544 C549 0.950 . S
H545 C550 0.949 . S
H546 C552 0.950 . S
H547 C553 0.950 . S
H548 C554 0.949 . S
C549 H544 0.950 . S
C549 C551 1.327 . S
C549 C555 1.429 . S
C550 C542 1.574 1_545 S
C550 H545 0.949 . S
C550 C556 1.368 . S
C551 C535 1.349 . S
C551 H543 0.950 . S
C551 C549 1.327 . S
C552 C540 1.349 . S
C552 H546 0.950 . S
C552 C553 1.327 . S
C553 H547 0.950 . S
C553 C552 1.327 . S
C553 C557 1.429 . S
C554 C537 1.574 1_565 S
C554 H548 0.949 . S
C554 C558 1.368 . S
C555 C536 1.429 . S
C555 C549 1.429 . S
C555 C556 1.523 . S
C556 C537 1.368 . S
C556 C550 1.368 . S
C556 C555 1.523 . S
C557 C541 1.429 . S
C557 C553 1.429 . S
C557 C558 1.523 . S
C558 C542 1.368 . S
C558 C554 1.368 . S
C558 C557 1.523 . S
H559 C534 0.950 . S
H560 C536 0.950 . S
H561 C537 0.949 . S
H562 C539 0.950 . S
H563 C541 0.950 . S
C564 C565 1.349 . S
C564 C566 1.327 . S
C564 H589 0.950 . S
C565 C564 1.349 . S
C565 C581 1.349 . S
C566 C564 1.327 . S
C566 C585 1.429 . S
C566 H590 0.950 . S
C567 C584 1.574 . S
C567 C586 1.368 1_565 S
C567 H591 0.949 . S
H568 C572 0.949 . S
C569 C570 1.349 . S
C569 C571 1.327 . S
C569 H592 0.950 . S
C570 C569 1.349 . S
C570 C582 1.349 . S
C571 C569 1.327 . S
C571 C587 1.429 . S
C571 H593 0.950 . S
C572 H568 0.949 . S
C572 C580 1.574 . S
C572 C588 1.368 1_545 S
H573 C581 0.950 . S
H574 C579 0.950 . S
H575 C580 0.949 . S
H576 C582 0.950 . S
H577 C583 0.950 . S
H578 C584 0.949 . S
C579 H574 0.950 . S
C579 C581 1.327 . S
C579 C585 1.429 . S
C580 C572 1.574 . S
C580 H575 0.949 . S
C580 C586 1.368 1_554 S
C581 C565 1.349 . S
C581 H573 0.950 . S
C581 C579 1.327 . S
C582 C570 1.349 . S
C582 H576 0.950 . S
C582 C583 1.327 . S
C583 H577 0.950 . S
C583 C582 1.327 . S
C583 C587 1.429 . S
C584 C567 1.574 . S
C584 H578 0.949 . S
C584 C588 1.368 1_556 S
C585 C566 1.429 . S
C585 C579 1.429 . S
C585 C586 1.523 . S
C586 C567 1.368 1_545 S
C586 C580 1.368 1_556 S
C586 C585 1.523 . S
C587 C571 1.429 . S
C587 C583 1.429 . S
C587 C588 1.523 . S
C588 C572 1.368 1_565 S
C588 C584 1.368 1_554 S
C588 C587 1.523 . S
H589 C564 0.950 . S
H590 C566 0.950 . S
H591 C567 0.949 . S
H592 C569 0.950 . S
H593 C571 0.950 . S
C594 C595 1.349 . S
C594 C596 1.327 . S
C594 H619 0.950 . S
C595 C594 1.349 . S
C595 C611 1.349 . S
C596 C594 1.327 . S
C596 C615 1.429 . S
C596 H620 0.950 . S
C597 C614 1.611 . S
C597 C616 1.368 . S
C597 H621 0.949 . S
H598 C602 0.949 . S
C599 C600 1.349 . S
C599 C601 1.327 . S
C599 H622 0.950 . S
C600 C599 1.349 . S
C600 C612 1.349 . S
C601 C599 1.327 . S
C601 C617 1.429 . S
C601 H623 0.950 . S
C602 H598 0.949 . S
C602 C610 1.611 . S
C602 C618 1.368 . S
H603 C611 0.950 . S
H604 C609 0.950 . S
H605 C610 0.949 . S
H606 C612 0.950 . S
H607 C613 0.950 . S
H608 C614 0.949 . S
C609 H604 0.950 . S
C609 C611 1.327 . S
C609 C615 1.429 . S
C610 C602 1.611 . S
C610 H605 0.949 . S
C610 C616 1.331 1_565 S
C611 C595 1.349 . S
C611 H603 0.950 . S
C611 C609 1.327 . S
C612 C600 1.349 . S
C612 H606 0.950 . S
C612 C613 1.327 . S
C613 H607 0.950 . S
C613 C612 1.327 . S
C613 C617 1.429 . S
C614 C597 1.611 . S
C614 H608 0.949 . S
C614 C618 1.331 1_545 S
C615 C596 1.429 . S
C615 C609 1.429 . S
C615 C616 1.523 . S
C616 C597 1.368 . S
C616 C610 1.331 1_545 S
C616 C615 1.523 . S
C617 C601 1.429 . S
C617 C613 1.429 . S
C617 C618 1.523 . S
C618 C602 1.368 . S
C618 C614 1.331 1_565 S
C618 C617 1.523 . S
H619 C594 0.950 . S
H620 C596 0.950 . S
H621 C597 0.949 . S
H622 C599 0.950 . S
H623 C601 0.950 . S
C624 C625 1.349 . S
C624 C626 1.327 . S
C624 H649 0.950 . S
C625 C624 1.349 . S
C625 C641 1.349 . S
C626 C624 1.327 . S
C626 C645 1.429 . S
C626 H650 0.950 . S
C627 C644 1.574 . S
C627 C646 1.368 . S
C627 H651 0.949 . S
H628 C632 0.949 . S
C629 C630 1.349 . S
C629 C631 1.327 . S
C629 H652 0.950 . S
C630 C629 1.349 . S
C630 C642 1.349 . S
C631 C629 1.327 . S
C631 C647 1.429 . S
C631 H653 0.950 . S
C632 H628 0.949 . S
C632 C640 1.574 . S
C632 C648 1.368 . S
H633 C641 0.950 . S
H634 C639 0.950 . S
H635 C640 0.949 . S
H636 C642 0.950 . S
H637 C643 0.950 . S
H638 C644 0.949 . S
C639 H634 0.950 . S
C639 C641 1.327 . S
C639 C645 1.429 . S
C640 C632 1.574 . S
C640 H635 0.949 . S
C640 C646 1.368 . S
C641 C625 1.349 . S
C641 H633 0.950 . S
C641 C639 1.327 . S
C642 C630 1.349 . S
C642 H636 0.950 . S
C642 C643 1.327 . S
C643 H637 0.950 . S
C643 C642 1.327 . S
C643 C647 1.429 . S
C644 C627 1.574 . S
C644 H638 0.949 . S
C644 C648 1.368 . S
C645 C626 1.429 . S
C645 C639 1.429 . S
C645 C646 1.523 . S
C646 C627 1.368 . S
C646 C640 1.368 . S
C646 C645 1.523 . S
C647 C631 1.429 . S
C647 C643 1.429 . S
C647 C648 1.523 1_556 S
C648 C632 1.368 . S
C648 C644 1.368 . S
C648 C647 1.523 1_554 S
H649 C624 0.950 . S
H650 C626 0.950 . S
H651 C627 0.949 . S
H652 C629 0.950 . S
H653 C631 0.950 . S
C654 C655 1.349 . S
C654 C656 1.327 . S
C654 H679 0.950 . S
C655 C654 1.349 . S
C655 C671 1.349 . S
C656 C654 1.327 . S
C656 C675 1.429 . S
C656 H680 0.950 . S
C657 C674 1.574 . S
C657 C676 1.368 . S
C657 H681 0.949 . S
H658 C662 0.949 . S
C659 C660 1.349 . S
C659 C661 1.327 . S
C659 H682 0.950 . S
C660 C659 1.349 . S
C660 C672 1.349 . S
C661 C659 1.327 . S
C661 C677 1.429 . S
C661 H683 0.950 . S
C662 H658 0.949 . S
C662 C670 1.574 . S
C662 C678 1.368 . S
H663 C671 0.950 . S
H664 C669 0.950 . S
H665 C670 0.949 . S
H666 C672 0.950 . S
H667 C673 0.950 . S
H668 C674 0.949 . S
C669 H664 0.950 . S
C669 C671 1.327 . S
C669 C675 1.429 . S
C670 C662 1.574 . S
C670 H665 0.949 . S
C670 C676 1.368 . S
C671 C655 1.349 . S
C671 H663 0.950 . S
C671 C669 1.327 . S
C672 C660 1.349 . S
C672 H666 0.950 . S
C672 C673 1.327 . S
C673 H667 0.950 . S
C673 C672 1.327 . S
C673 C677 1.429 . S
C674 C657 1.574 . S
C674 H668 0.949 . S
C674 C678 1.368 . S
C675 C656 1.429 . S
C675 C669 1.429 . S
C675 C676 1.523 . S
C676 C657 1.368 . S
C676 C670 1.368 . S
C676 C675 1.523 . S
C677 C661 1.429 . S
C677 C673 1.429 . S
C677 C678 1.523 . S
C678 C662 1.368 . S
C678 C674 1.368 . S
C678 C677 1.523 . S
H679 C654 0.950 . S
H680 C656 0.950 . S
H681 C657 0.949 . S
H682 C659 0.950 . S
H683 C661 0.950 . S
C684 C685 1.349 . S
C684 C686 1.327 . S
C684 H709 0.950 . S
C685 C684 1.349 . S
C685 C701 1.349 . S
C686 C684 1.327 . S
C686 C705 1.429 . S
C686 H710 0.950 . S
C687 C704 1.574 . S
C687 C706 1.368 . S
C687 H711 0.949 . S
H688 C692 0.949 . S
C689 C690 1.349 . S
C689 C691 1.327 . S
C689 H712 0.950 . S
C690 C689 1.349 . S
C690 C702 1.349 . S
C691 C689 1.327 . S
C691 C707 1.429 . S
C691 H713 0.950 . S
C692 H688 0.949 . S
C692 C700 1.574 . S
C692 C708 1.368 . S
H693 C701 0.950 . S
H694 C699 0.950 . S
H695 C700 0.949 1_554 S
H696 C702 0.950 . S
H697 C703 0.950 . S
H698 C704 0.949 . S
C699 H694 0.950 . S
C699 C701 1.327 1_556 S
C699 C705 1.429 1_556 S
C700 C692 1.574 . S
C700 H695 0.949 1_556 S
C700 C706 1.368 . S
C701 C685 1.349 . S
C701 H693 0.950 . S
C701 C699 1.327 1_554 S
C702 C690 1.349 . S
C702 H696 0.950 . S
C702 C703 1.327 . S
C703 H697 0.950 . S
C703 C702 1.327 . S
C703 C707 1.429 . S
C704 C687 1.574 . S
C704 H698 0.949 . S
C704 C708 1.368 . S
C705 C686 1.429 . S
C705 C699 1.429 1_554 S
C705 C706 1.523 1_554 S
C706 C687 1.368 . S
C706 C700 1.368 . S
C706 C705 1.523 1_556 S
C707 C691 1.429 . S
C707 C703 1.429 . S
C707 C708 1.523 . S
C708 C692 1.368 . S
C708 C704 1.368 . S
C708 C707 1.523 . S
H709 C684 0.950 . S
H710 C686 0.950 . S
H711 C687 0.949 . S
H712 C689 0.950 . S
H713 C691 0.950 . S
C714 C715 1.349 . S
C714 C716 1.327 . S
C714 H739 0.950 . S
C715 C714 1.349 . S
C715 C731 1.349 . S
C716 C714 1.327 . S
C716 C735 1.429 . S
C716 H740 0.950 . S
C717 C734 1.574 . S
C717 C736 1.368 . S
C717 H741 0.949 . S
H718 C722 0.949 . S
C719 C720 1.349 . S
C719 C721 1.327 . S
C719 H742 0.950 . S
C720 C719 1.349 . S
C720 C732 1.349 . S
C721 C719 1.327 . S
C721 C737 1.429 . S
C721 H743 0.950 . S
C722 H718 0.949 . S
C722 C730 1.574 . S
C722 C738 1.368 . S
H723 C731 0.950 . S
H724 C729 0.950 . S
H725 C730 0.949 . S
H726 C732 0.950 . S
H727 C733 0.950 . S
H728 C734 0.949 . S
C729 H724 0.950 . S
C729 C731 1.327 . S
C729 C735 1.429 . S
C730 C722 1.574 . S
C730 H725 0.949 . S
C730 C736 1.368 . S
C731 C715 1.349 . S
C731 H723 0.950 . S
C731 C729 1.327 . S
C732 C720 1.349 . S
C732 H726 0.950 . S
C732 C733 1.327 . S
C733 H727 0.950 . S
C733 C732 1.327 . S
C733 C737 1.429 . S
C734 C717 1.574 . S
C734 H728 0.949 . S
C734 C738 1.368 . S
C735 C716 1.429 . S
C735 C729 1.429 . S
C735 C736 1.523 . S
C736 C717 1.368 . S
C736 C730 1.368 . S
C736 C735 1.523 . S
C737 C721 1.429 . S
C737 C733 1.429 . S
C737 C738 1.523 . S
C738 C722 1.368 . S
C738 C734 1.368 . S
C738 C737 1.523 . S
H739 C714 0.950 . S
H740 C716 0.950 . S
H741 C717 0.949 . S
H742 C719 0.950 . S
H743 C721 0.950 . S
C744 C745 1.349 . S
C744 C746 1.327 . S
C744 H769 0.950 . S
C745 C744 1.349 . S
C745 C761 1.349 . S
C746 C744 1.327 . S
C746 C765 1.429 . S
C746 H770 0.950 . S
C747 C764 1.574 . S
C747 C766 1.368 . S
C747 H771 0.949 . S
H748 C752 0.949 . S
C749 C750 1.349 . S
C749 C751 1.327 . S
C749 H772 0.950 . S
C750 C749 1.349 . S
C750 C762 1.349 . S
C751 C749 1.327 . S
C751 C767 1.429 . S
C751 H773 0.950 . S
C752 H748 0.949 . S
C752 C760 1.574 . S
C752 C768 1.368 . S
H753 C761 0.950 . S
H754 C759 0.950 . S
H755 C760 0.949 1_556 S
H756 C762 0.950 . S
H757 C763 0.950 . S
H758 C764 0.949 . S
C759 H754 0.950 . S
C759 C761 1.327 1_554 S
C759 C765 1.429 1_554 S
C760 C752 1.574 . S
C760 H755 0.949 1_554 S
C760 C766 1.368 . S
C761 C745 1.349 . S
C761 H753 0.950 . S
C761 C759 1.327 1_556 S
C762 C750 1.349 . S
C762 H756 0.950 . S
C762 C763 1.327 . S
C763 H757 0.950 . S
C763 C762 1.327 . S
C763 C767 1.429 . S
C764 C747 1.574 . S
C764 H758 0.949 . S
C764 C768 1.368 . S
C765 C746 1.429 . S
C765 C759 1.429 1_556 S
C765 C766 1.523 1_556 S
C766 C747 1.368 . S
C766 C760 1.368 . S
C766 C765 1.523 1_554 S
C767 C751 1.429 . S
C767 C763 1.429 . S
C767 C768 1.523 . S
C768 C752 1.368 . S
C768 C764 1.368 . S
C768 C767 1.523 . S
H769 C744 0.950 . S
H770 C746 0.950 . S
H771 C747 0.949 . S
H772 C749 0.950 . S
H773 C751 0.950 . S
C774 C775 1.349 . S
C774 C776 1.327 . S
C774 H799 0.950 . S
C775 C774 1.349 . S
C775 C791 1.349 . S
C776 C774 1.327 . S
C776 C795 1.429 . S
C776 H800 0.950 . S
C777 C794 1.574 . S
C777 C796 1.368 . S
C777 H801 0.949 . S
H778 C782 0.949 . S
C779 C780 1.349 . S
C779 C781 1.327 . S
C779 H802 0.950 . S
C780 C779 1.349 . S
C780 C792 1.349 . S
C781 C779 1.327 . S
C781 C797 1.429 . S
C781 H803 0.950 . S
C782 H778 0.949 . S
C782 C790 1.574 . S
C782 C798 1.368 . S
H783 C791 0.950 . S
H784 C789 0.950 . S
H785 C790 0.949 . S
H786 C792 0.950 . S
H787 C793 0.950 . S
H788 C794 0.949 . S
C789 H784 0.950 . S
C789 C791 1.327 . S
C789 C795 1.429 . S
C790 C782 1.574 . S
C790 H785 0.949 . S
C790 C796 1.368 . S
C791 C775 1.349 . S
C791 H783 0.950 . S
C791 C789 1.327 . S
C792 C780 1.349 . S
C792 H786 0.950 . S
C792 C793 1.327 . S
C793 H787 0.950 . S
C793 C792 1.327 . S
C793 C797 1.429 . S
C794 C777 1.574 . S
C794 H788 0.949 . S
C794 C798 1.368 . S
C795 C776 1.429 . S
C795 C789 1.429 . S
C795 C796 1.523 . S
C796 C777 1.368 . S
C796 C790 1.368 . S
C796 C795 1.523 . S
C797 C781 1.429 . S
C797 C793 1.429 . S
C797 C798 1.523 . S
C798 C782 1.368 . S
C798 C794 1.368 . S
C798 C797 1.523 . S
H799 C774 0.950 . S
H800 C776 0.950 . S
H801 C777 0.949 . S
H802 C779 0.950 . S
H803 C781 0.950 . S
C804 C805 1.349 . S
C804 C806 1.327 . S
C804 H829 0.950 . S
C805 C804 1.349 . S
C805 C821 1.349 . S
C806 C804 1.327 . S
C806 C825 1.429 . S
C806 H830 0.950 . S
C807 C824 1.574 . S
C807 C826 1.368 . S
C807 H831 0.949 . S
H808 C812 0.949 1_554 S
C809 C810 1.349 . S
C809 C811 1.327 . S
C809 H832 0.950 . S
C810 C809 1.349 . S
C810 C822 1.349 . S
C811 C809 1.327 . S
C811 C827 1.429 . S
C811 H833 0.950 1_554 S
C812 H808 0.949 1_556 S
C812 C820 1.574 . S
C812 C828 1.368 . S
H813 C821 0.950 . S
H814 C819 0.950 . S
H815 C820 0.949 . S
H816 C822 0.950 . S
H817 C823 0.950 . S
H818 C824 0.949 . S
C819 H814 0.950 . S
C819 C821 1.327 . S
C819 C825 1.429 . S
C820 C812 1.574 . S
C820 H815 0.949 . S
C820 C826 1.368 . S
C821 C805 1.349 . S
C821 H813 0.950 . S
C821 C819 1.327 . S
C822 C810 1.349 . S
C822 H816 0.950 . S
C822 C823 1.327 . S
C823 H817 0.950 . S
C823 C822 1.327 . S
C823 C827 1.429 . S
C824 C807 1.574 . S
C824 H818 0.949 . S
C824 C828 1.368 . S
C825 C806 1.429 . S
C825 C819 1.429 . S
C825 C826 1.523 . S
C826 C807 1.368 . S
C826 C820 1.368 . S
C826 C825 1.523 . S
C827 C811 1.429 . S
C827 C823 1.429 . S
C827 C828 1.523 1_554 S
C828 C812 1.368 . S
C828 C824 1.368 . S
C828 C827 1.523 1_556 S
H829 C804 0.950 . S
H830 C806 0.950 . S
H831 C807 0.949 . S
H832 C809 0.950 . S
H833 C811 0.950 1_556 S
C834 C835 1.349 . S
C834 C836 1.327 . S
C834 H859 0.950 . S
C835 C834 1.349 . S
C835 C851 1.349 . S
C836 C834 1.327 . S
C836 C855 1.429 . S
C836 H860 0.950 . S
C837 C854 1.574 . S
C837 C856 1.368 . S
C837 H861 0.949 . S
H838 C842 0.949 . S
C839 C840 1.349 . S
C839 C841 1.327 . S
C839 H862 0.950 . S
C840 C839 1.349 . S
C840 C852 1.349 . S
C841 C839 1.327 . S
C841 C857 1.429 . S
C841 H863 0.950 . S
C842 H838 0.949 . S
C842 C850 1.574 . S
C842 C858 1.368 . S
H843 C851 0.950 . S
H844 C849 0.950 . S
H845 C850 0.949 . S
H846 C852 0.950 . S
H847 C853 0.950 . S
H848 C854 0.949 . S
C849 H844 0.950 . S
C849 C851 1.327 . S
C849 C855 1.429 . S
C850 C842 1.574 . S
C850 H845 0.949 . S
C850 C856 1.368 . S
C851 C835 1.349 . S
C851 H843 0.950 . S
C851 C849 1.327 . S
C852 C840 1.349 . S
C852 H846 0.950 . S
C852 C853 1.327 . S
C853 H847 0.950 . S
C853 C852 1.327 . S
C853 C857 1.429 . S
C854 C837 1.574 . S
C854 H848 0.949 . S
C854 C858 1.368 . S
C855 C836 1.429 . S
C855 C849 1.429 . S
C855 C856 1.523 . S
C856 C837 1.368 . S
C856 C850 1.368 . S
C856 C855 1.523 . S
C857 C841 1.429 . S
C857 C853 1.429 . S
C857 C858 1.523 . S
C858 C842 1.368 . S
C858 C854 1.368 . S
C858 C857 1.523 . S
H859 C834 0.950 . S
H860 C836 0.950 . S
H861 C837 0.949 . S
H862 C839 0.950 . S
H863 C841 0.950 . S
C265 C21 1.467 . S
C270 C120 1.467 . S
C295 C54 1.467 . S
C300 C87 1.467 . S
C325 C252 1.467 . S
C330 C153 1.467 . S
C355 C186 1.467 . S
C360 C219 1.467 . S
C385 N68 1.092 . S
C390 N2 1.092 . S
C415 N101 1.092 . S
C420 N35 1.092 . S
C445 C40 1.446 . S
C450 C106 1.446 . S
C475 C7 1.446 . S
C480 C73 1.446 . S
C505 N200 1.092 . S
C510 N134 1.092 . S
C535 N167 1.092 . S
C540 N233 1.092 . S
C565 C172 1.446 . S
C570 C238 1.446 . S
C595 C205 1.446 . S
C600 C139 1.446 . S
C625 C18 1.341 . S
C630 N178 1.319 . S
C655 C51 1.341 . S
C660 N145 1.319 . S
C685 N244 1.319 . S
C690 C84 1.341 . S
C715 C117 1.341 . S
C720 N211 1.319 . S
C745 N46 1.319 . S
C750 C150 1.341 . S
C775 C183 1.341 . S
C780 N13 1.319 . S
C805 C216 1.341 . S
C810 N112 1.319 . S
C835 C249 1.341 . S
C840 N79 1.319 . S
