# Generated by pormake.
# Topology vcd, (5)-cn, num edge types: 1
# Building blocks:
#     Node 0, Type 0, BuildingBlock: XOMCOT_clean_sbu_1, # of connection points: 5
#     Node 1, Type 0, BuildingBlock: XOMCOT_clean_sbu_1, # of connection points: 5
#     Node 2, Type 0, BuildingBlock: XOMCOT_clean_sbu_1, # of connection points: 5
#     Node 3, Type 0, BuildingBlock: XOMCOT_clean_sbu_1, # of connection points: 5
#     Node 4, Type 0, BuildingBlock: XOMCOT_clean_sbu_1, # of connection points: 5
#     Node 5, Type 0, BuildingBlock: XOMCOT_clean_sbu_1, # of connection points: 5
#     Node 6, Type 0, BuildingBlock: XOMCOT_clean_sbu_1, # of connection points: 5
#     Node 7, Type 0, BuildingBlock: XOMCOT_clean_sbu_1, # of connection points: 5
#     Node 8, Type 0, BuildingBlock: XOMCOT_clean_sbu_1, # of connection points: 5
#     Node 9, Type 0, BuildingBlock: XOMCOT_clean_sbu_1, # of connection points: 5
#     Node 10, Type 0, BuildingBlock: XOMCOT_clean_sbu_1, # of connection points: 5
#     Node 11, Type 0, BuildingBlock: XOMCOT_clean_sbu_1, # of connection points: 5
#     Node 12, Type 0, BuildingBlock: XOMCOT_clean_sbu_1, # of connection points: 5
#     Node 13, Type 0, BuildingBlock: XOMCOT_clean_sbu_1, # of connection points: 5
#     Node 14, Type 0, BuildingBlock: XOMCOT_clean_sbu_1, # of connection points: 5
#     Node 15, Type 0, BuildingBlock: XOMCOT_clean_sbu_1, # of connection points: 5
#     Node 16, Type 0, BuildingBlock: XOMCOT_clean_sbu_1, # of connection points: 5
#     Node 17, Type 0, BuildingBlock: XOMCOT_clean_sbu_1, # of connection points: 5
#     Node 18, Type 0, BuildingBlock: XOMCOT_clean_sbu_1, # of connection points: 5
#     Node 19, Type 0, BuildingBlock: XOMCOT_clean_sbu_1, # of connection points: 5
#     Node 20, Type 0, BuildingBlock: XOMCOT_clean_sbu_1, # of connection points: 5
#     Node 21, Type 0, BuildingBlock: XOMCOT_clean_sbu_1, # of connection points: 5
#     Node 22, Type 0, BuildingBlock: XOMCOT_clean_sbu_1, # of connection points: 5
#     Node 23, Type 0, BuildingBlock: XOMCOT_clean_sbu_1, # of connection points: 5
#     Node 24, Type 0, BuildingBlock: XOMCOT_clean_sbu_1, # of connection points: 5
#     Node 25, Type 0, BuildingBlock: XOMCOT_clean_sbu_1, # of connection points: 5
#     Node 26, Type 0, BuildingBlock: XOMCOT_clean_sbu_1, # of connection points: 5
#     Node 27, Type 0, BuildingBlock: XOMCOT_clean_sbu_1, # of connection points: 5
#     Node 28, Type 0, BuildingBlock: XOMCOT_clean_sbu_1, # of connection points: 5
#     Node 29, Type 0, BuildingBlock: XOMCOT_clean_sbu_1, # of connection points: 5
#     Node 30, Type 0, BuildingBlock: XOMCOT_clean_sbu_1, # of connection points: 5
#     Node 31, Type 0, BuildingBlock: XOMCOT_clean_sbu_1, # of connection points: 5
#     Edge 32, Type (0, 0), None
#     Edge 33, Type (0, 0), None
#     Edge 34, Type (0, 0), None
#     Edge 35, Type (0, 0), None
#     Edge 36, Type (0, 0), None
#     Edge 37, Type (0, 0), None
#     Edge 38, Type (0, 0), None
#     Edge 39, Type (0, 0), None
#     Edge 40, Type (0, 0), None
#     Edge 41, Type (0, 0), None
#     Edge 42, Type (0, 0), None
#     Edge 43, Type (0, 0), None
#     Edge 44, Type (0, 0), None
#     Edge 45, Type (0, 0), None
#     Edge 46, Type (0, 0), None
#     Edge 47, Type (0, 0), None
#     Edge 48, Type (0, 0), None
#     Edge 49, Type (0, 0), None
#     Edge 50, Type (0, 0), None
#     Edge 51, Type (0, 0), None
#     Edge 52, Type (0, 0), None
#     Edge 53, Type (0, 0), None
#     Edge 54, Type (0, 0), None
#     Edge 55, Type (0, 0), None
#     Edge 56, Type (0, 0), None
#     Edge 57, Type (0, 0), None
#     Edge 58, Type (0, 0), None
#     Edge 59, Type (0, 0), None
#     Edge 60, Type (0, 0), None
#     Edge 61, Type (0, 0), None
#     Edge 62, Type (0, 0), None
#     Edge 63, Type (0, 0), None
#     Edge 64, Type (0, 0), None
#     Edge 65, Type (0, 0), None
#     Edge 66, Type (0, 0), None
#     Edge 67, Type (0, 0), None
#     Edge 68, Type (0, 0), None
#     Edge 69, Type (0, 0), None
#     Edge 70, Type (0, 0), None
#     Edge 71, Type (0, 0), None
#     Edge 72, Type (0, 0), None
#     Edge 73, Type (0, 0), None
#     Edge 74, Type (0, 0), None
#     Edge 75, Type (0, 0), None
#     Edge 76, Type (0, 0), None
#     Edge 77, Type (0, 0), None
#     Edge 78, Type (0, 0), None
#     Edge 79, Type (0, 0), None
#     Edge 80, Type (0, 0), None
#     Edge 81, Type (0, 0), None
#     Edge 82, Type (0, 0), None
#     Edge 83, Type (0, 0), None
#     Edge 84, Type (0, 0), None
#     Edge 85, Type (0, 0), None
#     Edge 86, Type (0, 0), None
#     Edge 87, Type (0, 0), None
#     Edge 88, Type (0, 0), None
#     Edge 89, Type (0, 0), None
#     Edge 90, Type (0, 0), None
#     Edge 91, Type (0, 0), None
#     Edge 92, Type (0, 0), None
#     Edge 93, Type (0, 0), None
#     Edge 94, Type (0, 0), None
#     Edge 95, Type (0, 0), None
#     Edge 96, Type (0, 0), None
#     Edge 97, Type (0, 0), None
#     Edge 98, Type (0, 0), None
#     Edge 99, Type (0, 0), None
#     Edge 100, Type (0, 0), None
#     Edge 101, Type (0, 0), None
#     Edge 102, Type (0, 0), None
#     Edge 103, Type (0, 0), None
#     Edge 104, Type (0, 0), None
#     Edge 105, Type (0, 0), None
#     Edge 106, Type (0, 0), None
#     Edge 107, Type (0, 0), None
#     Edge 108, Type (0, 0), None
#     Edge 109, Type (0, 0), None
#     Edge 110, Type (0, 0), None
#     Edge 111, Type (0, 0), None
# Relax obj value: 0.089
# Max RMSD: 0.116
# Mean RMSD: 0.116
data_MOF--net-vcd--node1-XOMCOT_clean_sbu_1--edge1-none
_symmetry_space_group_name_H-M    P1
_symmetry_Int_Tables_number       1
_symmetry_cell_setting            triclinic
loop_
_symmetry_equiv_pos_as_xyz
'x, y, z'
_cell_length_a     74.787234
_cell_length_b     23.501114
_cell_length_c     13.796996
_cell_angle_alpha  89.999795
_cell_angle_beta   90.012351
_cell_angle_gamma 89.999185
loop_
_atom_site_label
_atom_site_type_symbol
_atom_site_fract_x
_atom_site_fract_y
_atom_site_fract_z
_atom_type_partial_charge
C0 C 0.11011 0.5451 0.2064 0.0
C1 C 0.12806 0.5472 0.22528 0.0
N2 N 0.1366 0.53792 0.14167 0.0
N3 N 0.10711 0.5339 0.11098 0.0
C4 C 0.12379 0.53037 0.07294 0.0
H5 H 0.09987 0.54876 0.2613 0.0
Co6 Co 0.08345 0.52246 0.06131 0.0
C7 C 0.09409 0.41309 0.93711 0.0
O8 O 0.09159 0.37452 1.00446 0.0
N9 N 0.05966 0.51169 0.01513 0.0
C10 C 0.03445 0.46556 0.97681 0.0
C11 C 0.05272 0.46156 0.98423 0.0
C12 C 0.04514 0.5458 0.0249 0.0
N13 N 0.02976 0.5184 1.00302 0.0
O14 O 0.07544 0.57896 0.15886 0.0
H15 H 0.06005 0.42246 0.97648 0.0
H16 H 0.04561 0.58793 0.05563 0.0
O17 O 0.09185 0.46647 0.95706 0.0
C18 C 0.07334 0.63229 0.17453 0.0
O19 O 0.07037 0.6493 0.26368 0.0
N20 N 0.0797 0.4653 0.15561 0.0
C21 C 0.07814 0.41369 0.33547 0.0
C22 C 0.09284 0.40434 0.27497 0.0
C23 C 0.09327 0.43017 0.18432 0.0
C24 C 0.06459 0.46991 0.21106 0.0
C25 C 0.06352 0.44427 0.30104 0.0
H26 H 0.10538 0.42679 0.14203 0.0
H27 H 0.05386 0.49817 0.19145 0.0
H28 H 0.12646 0.52103 0.99754 0.0
H29 H 0.13434 0.55485 0.29475 0.0
H30 H 0.02533 0.43123 0.96023 0.0
H31 H 0.1042 0.37954 0.29926 0.0
H32 H 0.05189 0.45184 0.34608 0.0
C33 C 0.1818 0.76167 0.2064 0.0
C34 C 0.16385 0.75957 0.22529 0.0
N35 N 0.15531 0.76885 0.14168 0.0
N36 N 0.18479 0.77286 0.11098 0.0
C37 C 0.16811 0.77639 0.07294 0.0
H38 H 0.19204 0.75801 0.26131 0.0
Co39 Co 0.20845 0.7843 0.06133 0.0
C40 C 0.19781 0.89367 0.9371 0.0
O41 O 0.20032 0.93223 1.00445 0.0
N42 N 0.23225 0.79508 0.01518 0.0
C43 C 0.25745 0.8412 0.97685 0.0
C44 C 0.23918 0.8452 0.98428 0.0
C45 C 0.24676 0.76096 0.02494 0.0
N46 N 0.26214 0.78836 1.00305 0.0
O47 O 0.21647 0.72781 0.15891 0.0
H48 H 0.23185 0.8843 0.97652 0.0
H49 H 0.2463 0.71883 0.05567 0.0
O50 O 0.20005 0.84029 0.95705 0.0
C51 C 0.21856 0.67448 0.17457 0.0
O52 O 0.22154 0.65747 0.26373 0.0
N53 N 0.21221 0.84147 0.15562 0.0
C54 C 0.21377 0.89308 0.33548 0.0
C55 C 0.19907 0.90243 0.27495 0.0
C56 C 0.19863 0.8766 0.1843 0.0
C57 C 0.22732 0.83687 0.2111 0.0
C58 C 0.22838 0.86251 0.30108 0.0
H59 H 0.18652 0.87997 0.14199 0.0
H60 H 0.23805 0.80861 0.19151 0.0
H61 H 0.16543 0.78573 0.99755 0.0
H62 H 0.15758 0.75192 0.29476 0.0
H63 H 0.26657 0.87553 0.96026 0.0
H64 H 0.1877 0.92722 0.29922 0.0
H65 H 0.24002 0.85494 0.34614 0.0
C66 C 0.11011 0.76164 0.06443 0.0
C67 C 0.12806 0.75954 0.04555 0.0
N68 N 0.1366 0.76882 0.12916 0.0
N69 N 0.10711 0.77284 0.15985 0.0
C70 C 0.12379 0.77638 0.19789 0.0
H71 H 0.09987 0.75797 1.00951 0.0
Co72 Co 0.08345 0.78428 0.20949 0.0
C73 C 0.09409 0.89365 0.33371 0.0
O74 O 0.09159 0.93222 0.26635 0.0
N75 N 0.05966 0.79507 0.25563 0.0
C76 C 0.03446 0.8412 0.29395 0.0
C77 C 0.05272 0.8452 0.28652 0.0
C78 C 0.04514 0.76095 0.24587 0.0
N79 N 0.02976 0.78835 0.26775 0.0
O80 O 0.07543 0.72779 0.11191 0.0
H81 H 0.06005 0.88429 0.29426 0.0
H82 H 0.04561 0.71882 0.21516 0.0
O83 O 0.09186 0.84027 0.31376 0.0
C84 C 0.07334 0.67446 0.09625 0.0
O85 O 0.07037 0.65745 1.00709 0.0
N86 N 0.0797 0.84145 0.11519 0.0
C87 C 0.07813 0.89306 0.93532 0.0
C88 C 0.09284 0.90241 0.99585 0.0
C89 C 0.09327 0.87658 0.0865 0.0
C90 C 0.06458 0.83685 0.05971 0.0
C91 C 0.06352 0.86249 0.96973 0.0
H92 H 0.10538 0.87995 0.12881 0.0
H93 H 0.05385 0.80859 0.0793 0.0
H94 H 0.12647 0.78574 0.27328 0.0
H95 H 0.13433 0.7519 0.97608 0.0
H96 H 0.02534 0.87553 0.31053 0.0
H97 H 0.1042 0.9272 0.97158 0.0
H98 H 0.05189 0.85492 0.92466 0.0
C99 C 0.18179 0.54512 0.06442 0.0
C100 C 0.16384 0.54722 0.04554 0.0
N101 N 0.1553 0.53795 0.12915 0.0
N102 N 0.18479 0.53392 0.15984 0.0
C103 C 0.16812 0.53039 0.19788 0.0
H104 H 0.19203 0.54879 1.00951 0.0
Co105 Co 0.20845 0.52248 0.2095 0.0
C106 C 0.19781 0.41311 0.3337 0.0
O107 O 0.20031 0.37454 0.26635 0.0
N108 N 0.23225 0.5117 0.25568 0.0
C109 C 0.25745 0.46557 0.294 0.0
C110 C 0.23918 0.46157 0.28658 0.0
C111 C 0.24676 0.54581 0.24591 0.0
N112 N 0.26214 0.51841 0.26778 0.0
O113 O 0.21646 0.57898 0.11195 0.0
H114 H 0.23185 0.42248 0.29434 0.0
H115 H 0.24629 0.58794 0.21517 0.0
O116 O 0.20005 0.46649 0.31375 0.0
C117 C 0.21856 0.63231 0.09629 0.0
O118 O 0.22153 0.64932 1.00713 0.0
N119 N 0.21221 0.46532 0.1152 0.0
C120 C 0.21377 0.4137 0.93535 0.0
C121 C 0.19907 0.40435 0.99584 0.0
C122 C 0.19863 0.43019 0.08649 0.0
C123 C 0.22732 0.46992 0.05976 0.0
C124 C 0.22838 0.44428 0.96978 0.0
H125 H 0.18652 0.42681 0.12877 0.0
H126 H 0.23805 0.49819 0.07936 0.0
H127 H 0.16544 0.52103 0.27327 0.0
H128 H 0.15756 0.55486 0.97607 0.0
H129 H 0.26657 0.43123 0.31057 0.0
H130 H 0.1877 0.37956 0.97155 0.0
H131 H 0.24001 0.45185 0.92474 0.0
C132 C 0.93179 0.51167 0.8144 0.0
C133 C 0.91384 0.50957 0.79552 0.0
N134 N 0.9053 0.51884 0.87913 0.0
N135 N 0.93479 0.52286 0.90983 0.0
C136 C 0.91812 0.52638 0.94787 0.0
H137 H 0.94203 0.50801 0.7595 0.0
Co138 Co 0.95845 0.53429 0.95949 0.0
C139 C 0.94781 0.64367 0.0837 0.0
O140 O 0.95032 0.68223 0.01635 0.0
N141 N 0.98225 0.54506 1.00566 0.0
C142 C 1.00745 0.59119 0.04396 0.0
C143 C 0.98919 0.59517 0.03663 0.0
C144 C 0.99677 0.51096 0.99577 0.0
N145 N 1.01215 0.53838 0.01757 0.0
O146 O 0.96646 0.4778 0.86192 0.0
H147 H 0.98185 0.63425 0.0445 0.0
H148 H 0.9963 0.46885 0.96499 0.0
O149 O 0.95005 0.59029 0.06375 0.0
C150 C 0.96856 0.42447 0.84626 0.0
O151 O 0.97153 0.40746 0.7571 0.0
N152 N 0.96221 0.59146 0.8652 0.0
C153 C 0.96377 0.64308 0.68534 0.0
C154 C 0.94907 0.65243 0.74585 0.0
C155 C 0.94863 0.62659 0.8365 0.0
C156 C 0.97732 0.58685 0.80974 0.0
C157 C 0.97838 0.6125 0.71977 0.0
H158 H 0.93652 0.62997 0.87878 0.0
H159 H 0.98805 0.55858 0.82933 0.0
H160 H 0.91544 0.53572 0.02327 0.0
H161 H 0.90757 0.50193 0.72605 0.0
H162 H 1.01657 0.62551 0.06059 0.0
H163 H 0.9377 0.67723 0.72156 0.0
H164 H 0.99001 0.60493 0.67472 0.0
C165 C 0.86011 0.29509 0.8144 0.0
C166 C 0.87805 0.29718 0.79551 0.0
N167 N 0.8866 0.28791 0.87912 0.0
N168 N 0.85711 0.2839 0.90983 0.0
C169 C 0.87379 0.28037 0.94786 0.0
H170 H 0.84986 0.29875 0.75949 0.0
Co171 Co 0.83345 0.27246 0.95948 0.0
C172 C 0.84409 0.16309 0.08371 0.0
O173 O 0.84158 0.12453 0.01636 0.0
N174 N 0.80966 0.26168 1.00562 0.0
C175 C 0.78446 0.21556 0.04396 0.0
C176 C 0.80272 0.21156 0.03653 0.0
C177 C 0.79514 0.2958 0.99586 0.0
N178 N 0.77976 0.2684 0.01775 0.0
O179 O 0.82543 0.32895 0.8619 0.0
H180 H 0.81005 0.17246 0.04428 0.0
H181 H 0.79561 0.33793 0.96514 0.0
O182 O 0.84186 0.21647 0.06375 0.0
C183 C 0.82334 0.38228 0.84624 0.0
O184 O 0.82037 0.39929 0.75708 0.0
N185 N 0.8297 0.21529 0.86519 0.0
C186 C 0.82813 0.16367 0.68533 0.0
C187 C 0.84283 0.15433 0.74585 0.0
C188 C 0.84327 0.18016 0.83651 0.0
C189 C 0.81458 0.21989 0.80971 0.0
C190 C 0.81352 0.19425 0.71973 0.0
H191 H 0.85538 0.17679 0.87881 0.0
H192 H 0.80385 0.24815 0.8293 0.0
H193 H 0.87648 0.27103 0.02326 0.0
H194 H 0.88432 0.30483 0.72604 0.0
H195 H 0.77534 0.18123 0.06055 0.0
H196 H 0.8542 0.12953 0.72159 0.0
H197 H 0.80189 0.20182 0.67466 0.0
C198 C 0.93179 0.29513 0.95637 0.0
C199 C 0.91385 0.29723 0.97525 0.0
N200 N 0.90531 0.28794 0.89164 0.0
N201 N 0.93479 0.28393 0.86095 0.0
C202 C 0.91811 0.28038 0.82291 0.0
H203 H 0.94204 0.2988 0.01128 0.0
Co204 Co 0.95845 0.27248 0.81131 0.0
C205 C 0.94781 0.1631 0.6871 0.0
O206 O 0.95032 0.12454 0.75446 0.0
N207 N 0.98225 0.26169 0.76517 0.0
C208 C 1.00745 0.21555 0.72687 0.0
C209 C 0.98918 0.21155 0.7343 0.0
C210 C 0.99676 0.2958 0.77491 0.0
N211 N 1.01214 0.2684 0.75304 0.0
O212 O 0.96647 0.32896 0.90888 0.0
H213 H 0.98185 0.17245 0.72657 0.0
H214 H 0.9963 0.33794 0.80561 0.0
O215 O 0.95005 0.21648 0.70705 0.0
C216 C 0.96857 0.38229 0.92454 0.0
O217 O 0.97154 0.39931 0.01369 0.0
N218 N 0.96221 0.21531 0.90562 0.0
C219 C 0.96377 0.16371 0.08549 0.0
C220 C 0.94907 0.15436 0.02497 0.0
C221 C 0.94863 0.18019 0.93431 0.0
C222 C 0.97732 0.21991 0.96109 0.0
C223 C 0.97838 0.19428 0.05108 0.0
H224 H 0.93652 0.17681 0.892 0.0
H225 H 0.98805 0.24817 0.94149 0.0
H226 H 0.91543 0.27101 0.74753 0.0
H227 H 0.90758 0.30487 0.04472 0.0
H228 H 1.01656 0.18121 0.7103 0.0
H229 H 0.9377 0.12957 0.04924 0.0
H230 H 0.99001 0.20184 0.09614 0.0
C231 C 0.86011 0.51163 0.95639 0.0
C232 C 0.87806 0.50954 0.97527 0.0
N233 N 0.8866 0.51881 0.89165 0.0
N234 N 0.85711 0.52283 0.86097 0.0
C235 C 0.87379 0.52637 0.82293 0.0
H236 H 0.84988 0.50797 0.0113 0.0
Co237 Co 0.83345 0.53428 0.8113 0.0
C238 C 0.84409 0.64365 0.6871 0.0
O239 O 0.84159 0.68222 0.75445 0.0
N240 N 0.80966 0.54506 0.76513 0.0
C241 C 0.78445 0.59119 0.72681 0.0
C242 C 0.80272 0.59518 0.73423 0.0
C243 C 0.79514 0.51095 0.7749 0.0
N244 N 0.77976 0.53835 0.75302 0.0
O245 O 0.82544 0.47778 0.90886 0.0
H246 H 0.81005 0.63428 0.72647 0.0
H247 H 0.79561 0.46882 0.80563 0.0
O248 O 0.84185 0.59027 0.70705 0.0
C249 C 0.82334 0.42445 0.92452 0.0
O250 O 0.82037 0.40744 0.01368 0.0
N251 N 0.8297 0.59144 0.90561 0.0
C252 C 0.82813 0.64306 0.08546 0.0
C253 C 0.84283 0.65241 0.02497 0.0
C254 C 0.84327 0.62657 0.93432 0.0
C255 C 0.81459 0.58683 0.96105 0.0
C256 C 0.81352 0.61248 0.05103 0.0
H257 H 0.85538 0.62994 0.89204 0.0
H258 H 0.80386 0.55857 0.94144 0.0
H259 H 0.87646 0.53573 0.74754 0.0
H260 H 0.88434 0.50189 0.04474 0.0
H261 H 0.77533 0.62553 0.71023 0.0
H262 H 0.8542 0.6772 0.04926 0.0
H263 H 0.80189 0.60491 0.09607 0.0
C264 C 0.11011 0.0451 0.70641 0.0
C265 C 0.12806 0.0472 0.72529 0.0
N266 N 0.1366 0.03792 0.64168 0.0
N267 N 0.10711 0.03391 0.61098 0.0
C268 C 0.12379 0.03038 0.57295 0.0
H269 H 0.09987 0.04876 0.76131 0.0
Co270 Co 0.08345 1.02247 0.56131 0.0
C271 C 0.0941 0.91309 0.43713 0.0
O272 O 0.09159 0.87452 0.50446 0.0
N273 N 0.05966 1.01169 0.51513 0.0
C274 C 0.03445 0.96556 0.47679 0.0
C275 C 0.05272 0.96157 0.48421 0.0
C276 C 0.04514 0.0458 0.5249 0.0
N277 N 0.02976 1.0184 0.50302 0.0
O278 O 0.07544 0.07896 0.65887 0.0
H279 H 0.06005 0.92247 0.47644 0.0
H280 H 0.04561 0.08793 0.55564 0.0
O281 O 0.09185 0.96647 0.45705 0.0
C282 C 0.07334 0.13229 0.67452 0.0
O283 O 0.07037 0.1493 0.76367 0.0
N284 N 0.0797 0.9653 0.6556 0.0
C285 C 0.07813 0.91368 0.83546 0.0
C286 C 0.09283 0.90433 0.77496 0.0
C287 C 0.09327 0.93017 0.68431 0.0
C288 C 0.06458 0.9699 0.71104 0.0
C289 C 0.06352 0.94426 0.80102 0.0
H290 H 0.10538 0.9268 0.64204 0.0
H291 H 0.05385 0.99817 0.69144 0.0
H292 H 0.12646 1.02104 0.49755 0.0
H293 H 0.13433 0.05485 0.79476 0.0
H294 H 0.02533 0.93123 0.4602 0.0
H295 H 0.1042 0.87954 0.79926 0.0
H296 H 0.05189 0.95182 0.84606 0.0
C297 C 0.1818 0.26166 0.70641 0.0
C298 C 0.16385 0.25957 0.72529 0.0
N299 N 0.15531 0.26884 0.64168 0.0
N300 N 0.18479 0.27286 0.61098 0.0
C301 C 0.16811 0.27639 0.57295 0.0
H302 H 0.19204 0.258 0.76131 0.0
Co303 Co 0.20845 0.2843 0.56133 0.0
C304 C 0.19781 0.39367 0.43712 0.0
O305 O 0.20032 0.43224 0.50446 0.0
N306 N 0.23225 0.29508 0.51518 0.0
C307 C 0.25745 0.3412 0.47684 0.0
C308 C 0.23918 0.3452 0.48427 0.0
C309 C 0.24676 0.26096 0.52493 0.0
N310 N 0.26214 0.28836 0.50304 0.0
O311 O 0.21647 0.22781 0.65891 0.0
H312 H 0.23185 0.3843 0.47652 0.0
H313 H 0.2463 0.21883 0.55566 0.0
O314 O 0.20005 0.34029 0.45706 0.0
C315 C 0.21857 0.17448 0.67457 0.0
O316 O 0.22154 0.15747 0.76373 0.0
N317 N 0.21221 0.34147 0.65562 0.0
C318 C 0.21377 0.39308 0.83548 0.0
C319 C 0.19907 0.40243 0.77496 0.0
C320 C 0.19863 0.3766 0.6843 0.0
C321 C 0.22732 0.33687 0.71109 0.0
C322 C 0.22838 0.36251 0.80107 0.0
H323 H 0.18652 0.37997 0.642 0.0
H324 H 0.23805 0.30861 0.6915 0.0
H325 H 0.16543 0.28573 0.49755 0.0
H326 H 0.15758 0.25192 0.79476 0.0
H327 H 0.26656 0.37553 0.46025 0.0
H328 H 0.1877 0.42722 0.79923 0.0
H329 H 0.24002 0.35495 0.84614 0.0
C330 C 0.11011 0.26164 0.56443 0.0
C331 C 0.12806 0.25954 0.54555 0.0
N332 N 0.1366 0.26882 0.62917 0.0
N333 N 0.10712 0.27283 0.65985 0.0
C334 C 0.12379 0.27637 0.69789 0.0
H335 H 0.09987 0.25798 0.50951 0.0
Co336 Co 0.08345 0.28427 0.70948 0.0
C337 C 0.0941 0.39365 0.83369 0.0
O338 O 0.09159 0.43222 0.76635 0.0
N339 N 0.05965 0.29505 0.75562 0.0
C340 C 0.03445 0.34119 0.79392 0.0
C341 C 0.05272 0.34517 0.78658 0.0
C342 C 0.04514 0.26096 0.74574 0.0
N343 N 0.02975 0.28838 0.76754 0.0
O344 O 0.07544 0.22779 0.6119 0.0
H345 H 0.06005 0.38425 0.79444 0.0
H346 H 0.0456 0.21884 0.71498 0.0
O347 O 0.09186 0.34026 0.81376 0.0
C348 C 0.07334 0.17446 0.59624 0.0
O349 O 0.07037 0.15744 0.50708 0.0
N350 N 0.0797 0.34144 0.61519 0.0
C351 C 0.07814 0.39307 0.43533 0.0
C352 C 0.09284 0.40241 0.49586 0.0
C353 C 0.09327 0.37657 0.58651 0.0
C354 C 0.06459 0.33685 0.55971 0.0
C355 C 0.06352 0.36249 0.46973 0.0
H356 H 0.10538 0.37994 0.62881 0.0
H357 H 0.05385 0.30859 0.57929 0.0
H358 H 0.12647 0.28573 0.77328 0.0
H359 H 0.13433 0.2519 0.47608 0.0
H360 H 0.02534 0.37551 0.81055 0.0
H361 H 0.1042 0.4272 0.47159 0.0
H362 H 0.05189 0.35493 0.42466 0.0
C363 C 0.18179 0.04513 0.56442 0.0
C364 C 0.16384 0.04723 0.54555 0.0
N365 N 0.1553 0.03795 0.62916 0.0
N366 N 0.18479 0.03393 0.65984 0.0
C367 C 0.16812 0.03039 0.69789 0.0
H368 H 0.19202 0.04879 0.50951 0.0
Co369 Co 0.20845 1.02249 0.70951 0.0
C370 C 0.19781 0.91311 0.83368 0.0
O371 O 0.2003 0.87453 0.76634 0.0
N372 N 0.23225 1.0117 0.75568 0.0
C373 C 0.25745 0.96557 0.794 0.0
C374 C 0.23918 0.96158 0.78659 0.0
C375 C 0.24676 0.04581 0.7459 0.0
N376 N 0.26214 1.01841 0.76778 0.0
O377 O 0.21646 0.07898 0.61195 0.0
H378 H 0.23185 0.92248 0.79435 0.0
H379 H 0.24629 0.08794 0.71516 0.0
O380 O 0.20005 0.96649 0.81375 0.0
C381 C 0.21856 0.13231 0.59629 0.0
O382 O 0.22153 0.14932 0.50713 0.0
N383 N 0.2122 0.96532 0.6152 0.0
C384 C 0.21377 0.9137 0.43534 0.0
C385 C 0.19907 0.90436 0.49584 0.0
C386 C 0.19863 0.93019 0.58649 0.0
C387 C 0.22732 0.96993 0.55976 0.0
C388 C 0.22838 0.94428 0.46978 0.0
H389 H 0.18652 0.92682 0.62876 0.0
H390 H 0.23805 0.99819 0.57936 0.0
H391 H 0.16544 1.02103 0.77328 0.0
H392 H 0.15756 0.05487 0.47608 0.0
H393 H 0.26657 0.93124 0.81059 0.0
H394 H 0.1877 0.87956 0.47154 0.0
H395 H 0.24001 0.95185 0.42474 0.0
C396 C 0.93179 1.01167 0.31439 0.0
C397 C 0.91384 1.00957 0.29551 0.0
N398 N 0.90531 1.01884 0.37912 0.0
N399 N 0.93479 1.02285 0.40982 0.0
C400 C 0.91812 1.02638 0.44786 0.0
H401 H 0.94203 1.00801 0.25949 0.0
Co402 Co 0.95845 0.03429 0.45949 0.0
C403 C 0.94781 0.14366 0.58368 0.0
O404 O 0.95031 0.18223 0.51635 0.0
N405 N 0.98225 0.04505 0.50566 0.0
C406 C 1.00745 0.09118 0.54398 0.0
C407 C 0.98919 0.09516 0.53665 0.0
C408 C 0.99677 1.01096 0.49577 0.0
N409 N 1.01215 0.03838 0.51757 0.0
O410 O 0.96646 0.9778 0.36191 0.0
H411 H 0.98185 0.13425 0.54454 0.0
H412 H 0.9963 0.96885 0.46498 0.0
O413 O 0.95005 0.09028 0.56375 0.0
C414 C 0.96856 0.92447 0.34626 0.0
O415 O 0.97153 0.90745 0.25711 0.0
N416 N 0.96221 0.09146 0.3652 0.0
C417 C 0.96377 0.14309 0.18535 0.0
C418 C 0.94907 0.15243 0.24585 0.0
C419 C 0.94863 0.12659 0.3365 0.0
C420 C 0.97732 0.08686 0.30975 0.0
C421 C 0.97838 0.11251 0.21978 0.0
H422 H 0.93652 0.12996 0.37878 0.0
H423 H 0.98805 0.05859 0.32934 0.0
H424 H 0.91544 0.03572 0.52326 0.0
H425 H 0.90757 1.00192 0.22604 0.0
H426 H 1.01657 0.12551 0.56062 0.0
H427 H 0.9377 0.17723 0.22156 0.0
H428 H 0.99001 0.10494 0.17474 0.0
C429 C 0.86011 0.79509 0.3144 0.0
C430 C 0.87805 0.79719 0.29551 0.0
N431 N 0.8866 0.78792 0.37912 0.0
N432 N 0.85711 0.7839 0.40982 0.0
C433 C 0.87379 0.78037 0.44786 0.0
H434 H 0.84986 0.79875 0.25949 0.0
Co435 Co 0.83345 0.77246 0.45948 0.0
C436 C 0.8441 0.66309 0.58368 0.0
O437 O 0.84159 0.62451 0.51635 0.0
N438 N 0.80966 0.76168 0.50563 0.0
C439 C 0.78446 0.71556 0.54397 0.0
C440 C 0.80272 0.71155 0.53654 0.0
C441 C 0.79514 0.7958 0.49587 0.0
N442 N 0.77976 0.7684 0.51776 0.0
O443 O 0.82543 0.82894 0.3619 0.0
H444 H 0.81005 0.67245 0.54429 0.0
H445 H 0.79561 0.83793 0.46515 0.0
O446 O 0.84186 0.71647 0.56375 0.0
C447 C 0.82334 0.88227 0.34624 0.0
O448 O 0.82036 0.89929 0.25708 0.0
N449 N 0.8297 0.71529 0.36519 0.0
C450 C 0.82813 0.66368 0.18533 0.0
C451 C 0.84283 0.65433 0.24585 0.0
C452 C 0.84327 0.68016 0.33651 0.0
C453 C 0.81458 0.71989 0.30972 0.0
C454 C 0.81352 0.69425 0.21973 0.0
H455 H 0.85538 0.67679 0.37881 0.0
H456 H 0.80385 0.74815 0.32931 0.0
H457 H 0.87647 0.77103 0.52325 0.0
H458 H 0.88432 0.80484 0.22604 0.0
H459 H 0.77534 0.68123 0.56056 0.0
H460 H 0.8542 0.62954 0.22158 0.0
H461 H 0.80189 0.70181 0.17467 0.0
C462 C 0.93179 0.79513 0.45637 0.0
C463 C 0.91385 0.79722 0.47525 0.0
N464 N 0.90531 0.78795 0.39164 0.0
N465 N 0.93479 0.78393 0.36095 0.0
C466 C 0.91811 0.78039 0.32291 0.0
H467 H 0.94203 0.79879 0.51128 0.0
Co468 Co 0.95845 0.77248 0.31132 0.0
C469 C 0.94781 0.66311 0.18712 0.0
O470 O 0.95031 0.62454 0.25446 0.0
N471 N 0.98225 0.7617 0.26518 0.0
C472 C 1.00745 0.71556 0.2269 0.0
C473 C 0.98918 0.71158 0.23424 0.0
C474 C 0.99677 0.7958 0.27504 0.0
N475 N 1.01215 0.76838 0.25325 0.0
O476 O 0.96647 0.82897 0.40889 0.0
H477 H 0.98185 0.67249 0.22639 0.0
H478 H 0.9963 0.83792 0.30579 0.0
O479 O 0.95005 0.71649 0.20705 0.0
C480 C 0.96856 0.8823 0.42455 0.0
O481 O 0.97154 0.89932 0.5137 0.0
N482 N 0.96221 0.71532 0.40562 0.0
C483 C 0.96377 0.6637 0.58548 0.0
C484 C 0.94906 0.65436 0.52496 0.0
C485 C 0.94863 0.68019 0.4343 0.0
C486 C 0.97732 0.71991 0.4611 0.0
C487 C 0.97838 0.69427 0.55108 0.0
H488 H 0.93652 0.67682 0.39199 0.0
H489 H 0.98805 0.74817 0.44151 0.0
H490 H 0.91543 0.77102 0.24752 0.0
H491 H 0.90758 0.80487 0.54472 0.0
H492 H 1.01657 0.68123 0.21027 0.0
H493 H 0.9377 0.62957 0.54922 0.0
H494 H 0.99001 0.70184 0.59615 0.0
C495 C 0.86012 1.01163 0.45638 0.0
C496 C 0.87806 1.00953 0.47526 0.0
N497 N 0.8866 1.01881 0.39165 0.0
N498 N 0.85711 1.02283 0.36097 0.0
C499 C 0.87379 1.02637 0.32292 0.0
H500 H 0.84988 1.00796 0.51129 0.0
Co501 Co 0.83345 0.03427 0.3113 0.0
C502 C 0.8441 0.14365 0.18713 0.0
O503 O 0.8416 0.18223 0.25446 0.0
N504 N 0.80966 0.04505 0.26513 0.0
C505 C 0.78445 0.09119 0.2268 0.0
C506 C 0.80272 0.09518 0.23422 0.0
C507 C 0.79514 1.01095 0.2749 0.0
N508 N 0.77976 0.03835 0.25302 0.0
O509 O 0.82544 0.97778 0.40886 0.0
H510 H 0.81005 0.13428 0.22646 0.0
H511 H 0.79561 0.96882 0.30564 0.0
O512 O 0.84185 0.09027 0.20705 0.0
C513 C 0.82334 0.92445 0.42452 0.0
O514 O 0.82037 0.90744 0.51368 0.0
N515 N 0.8297 0.09143 0.40561 0.0
C516 C 0.82813 0.14306 0.58546 0.0
C517 C 0.84284 0.1524 0.52497 0.0
C518 C 0.84327 0.12657 0.43432 0.0
C519 C 0.81459 0.08683 0.46105 0.0
C520 C 0.81352 0.11248 0.55103 0.0
H521 H 0.85538 0.12994 0.39204 0.0
H522 H 0.80386 0.05857 0.44144 0.0
H523 H 0.87646 0.03573 0.24753 0.0
H524 H 0.88434 1.00189 0.54473 0.0
H525 H 0.77534 0.12552 0.21022 0.0
H526 H 0.8542 0.1772 0.54926 0.0
H527 H 0.80189 0.10491 0.59607 0.0
C528 C 0.61011 0.54509 0.7064 0.0
C529 C 0.62806 0.54719 0.72529 0.0
N530 N 0.6366 0.53792 0.64168 0.0
N531 N 0.60711 0.5339 0.61098 0.0
C532 C 0.62379 0.53037 0.57294 0.0
H533 H 0.59987 0.54876 0.76131 0.0
Co534 Co 0.58345 0.52246 0.56131 0.0
C535 C 0.59409 0.41309 0.43711 0.0
O536 O 0.59159 0.37452 0.50446 0.0
N537 N 0.55966 0.51169 0.51513 0.0
C538 C 0.53445 0.46556 0.47681 0.0
C539 C 0.55272 0.46156 0.48422 0.0
C540 C 0.54514 0.5458 0.5249 0.0
N541 N 0.52976 0.5184 0.50302 0.0
O542 O 0.57544 0.57896 0.65886 0.0
H543 H 0.56005 0.42246 0.47647 0.0
H544 H 0.54561 0.58793 0.55563 0.0
O545 O 0.59185 0.46647 0.45706 0.0
C546 C 0.57334 0.63229 0.67453 0.0
O547 O 0.57037 0.6493 0.76368 0.0
N548 N 0.5797 0.4653 0.65561 0.0
C549 C 0.57813 0.41369 0.83547 0.0
C550 C 0.59284 0.40433 0.77497 0.0
C551 C 0.59327 0.43017 0.68431 0.0
C552 C 0.56459 0.46991 0.71105 0.0
C553 C 0.56352 0.44427 0.80103 0.0
H554 H 0.60538 0.42679 0.64203 0.0
H555 H 0.55386 0.49818 0.69145 0.0
H556 H 0.62646 0.52103 0.49755 0.0
H557 H 0.63433 0.55484 0.79476 0.0
H558 H 0.52533 0.43123 0.46023 0.0
H559 H 0.6042 0.37954 0.79926 0.0
H560 H 0.55189 0.45184 0.84608 0.0
C561 C 0.6818 0.76167 0.7064 0.0
C562 C 0.66385 0.75957 0.72528 0.0
N563 N 0.65531 0.76885 0.64167 0.0
N564 N 0.68479 0.77286 0.61097 0.0
C565 C 0.66811 0.77639 0.57294 0.0
H566 H 0.69204 0.758 0.76131 0.0
Co567 Co 0.70845 0.78429 0.56133 0.0
C568 C 0.69781 0.89367 0.4371 0.0
O569 O 0.70033 0.93223 0.50445 0.0
N570 N 0.73225 0.79507 0.51519 0.0
C571 C 0.75745 0.8412 0.4769 0.0
C572 C 0.73919 0.84518 0.48424 0.0
C573 C 0.74677 0.76097 0.52506 0.0
N574 N 0.76215 0.78838 0.50326 0.0
O575 O 0.71647 0.72781 0.65892 0.0
H576 H 0.73185 0.88427 0.47638 0.0
H577 H 0.7463 0.71885 0.55582 0.0
O578 O 0.70005 0.84028 0.45705 0.0
C579 C 0.71856 0.67448 0.67457 0.0
O580 O 0.72154 0.65746 0.76373 0.0
N581 N 0.71221 0.84147 0.65562 0.0
C582 C 0.71377 0.89308 0.83548 0.0
C583 C 0.69907 0.90243 0.77495 0.0
C584 C 0.69863 0.8766 0.68429 0.0
C585 C 0.72732 0.83687 0.7111 0.0
C586 C 0.72838 0.86251 0.80109 0.0
H587 H 0.68652 0.87997 0.64198 0.0
H588 H 0.73805 0.80861 0.69153 0.0
H589 H 0.66543 0.78573 0.49754 0.0
H590 H 0.65758 0.75192 0.79475 0.0
H591 H 0.76657 0.87552 0.46026 0.0
H592 H 0.6877 0.92722 0.79921 0.0
H593 H 0.74001 0.85494 0.84616 0.0
C594 C 0.61011 0.76164 0.56442 0.0
C595 C 0.62806 0.75954 0.54554 0.0
N596 N 0.6366 0.76882 0.62916 0.0
N597 N 0.60711 0.77284 0.65984 0.0
C598 C 0.62379 0.77638 0.69788 0.0
H599 H 0.59987 0.75798 0.50951 0.0
Co600 Co 0.58345 0.78428 0.70948 0.0
C601 C 0.59409 0.89365 0.83371 0.0
O602 O 0.59159 0.93222 0.76636 0.0
N603 N 0.55966 0.79507 0.75563 0.0
C604 C 0.53446 0.8412 0.79395 0.0
C605 C 0.55272 0.84519 0.78652 0.0
C606 C 0.54514 0.76095 0.74587 0.0
N607 N 0.52976 0.78835 0.76775 0.0
O608 O 0.57543 0.72779 0.61191 0.0
H609 H 0.56005 0.88429 0.79426 0.0
H610 H 0.54561 0.71882 0.71516 0.0
O611 O 0.59186 0.84027 0.81376 0.0
C612 C 0.57334 0.67447 0.59625 0.0
O613 O 0.57037 0.65745 0.50709 0.0
N614 N 0.5797 0.84145 0.61519 0.0
C615 C 0.57813 0.89306 0.43532 0.0
C616 C 0.59283 0.90241 0.49585 0.0
C617 C 0.59327 0.87658 0.5865 0.0
C618 C 0.56458 0.83685 0.55971 0.0
C619 C 0.56352 0.86249 0.46973 0.0
H620 H 0.60538 0.87995 0.62881 0.0
H621 H 0.55385 0.80859 0.57931 0.0
H622 H 0.62647 0.78574 0.77327 0.0
H623 H 0.63433 0.7519 0.47607 0.0
H624 H 0.52534 0.87553 0.81053 0.0
H625 H 0.6042 0.9272 0.47158 0.0
H626 H 0.55189 0.85492 0.42467 0.0
C627 C 0.68179 0.54512 0.56442 0.0
C628 C 0.66384 0.54722 0.54555 0.0
N629 N 0.6553 0.53795 0.62916 0.0
N630 N 0.68479 0.53393 0.65984 0.0
C631 C 0.66812 0.53039 0.69789 0.0
H632 H 0.69202 0.54879 0.50951 0.0
Co633 Co 0.70845 0.52249 0.7095 0.0
C634 C 0.69781 0.41311 0.8337 0.0
O635 O 0.70031 0.37455 0.76635 0.0
N636 N 0.73225 0.51171 0.75567 0.0
C637 C 0.75745 0.46557 0.79395 0.0
C638 C 0.73919 0.46159 0.78662 0.0
C639 C 0.74677 0.5458 0.74579 0.0
N640 N 0.76215 0.51838 0.76757 0.0
O641 O 0.71646 0.57898 0.61194 0.0
H642 H 0.73185 0.42251 0.79448 0.0
H643 H 0.7463 0.58792 0.71502 0.0
O644 O 0.70005 0.46649 0.81376 0.0
C645 C 0.71856 0.63231 0.59629 0.0
O646 O 0.72153 0.64933 0.50713 0.0
N647 N 0.71221 0.46532 0.6152 0.0
C648 C 0.71377 0.4137 0.43534 0.0
C649 C 0.69907 0.40436 0.49584 0.0
C650 C 0.69863 0.43019 0.58649 0.0
C651 C 0.72732 0.46992 0.55975 0.0
C652 C 0.72838 0.44428 0.46977 0.0
H653 H 0.68652 0.42682 0.62878 0.0
H654 H 0.73805 0.49819 0.57934 0.0
H655 H 0.66544 0.52103 0.77328 0.0
H656 H 0.65756 0.55486 0.47608 0.0
H657 H 0.76657 0.43124 0.81057 0.0
H658 H 0.6877 0.37956 0.47155 0.0
H659 H 0.74001 0.45185 0.42473 0.0
C660 C 0.43179 0.51167 0.3144 0.0
C661 C 0.41384 0.50957 0.29552 0.0
N662 N 0.4053 0.51884 0.37913 0.0
N663 N 0.43479 0.52286 0.40983 0.0
C664 C 0.41812 0.52638 0.44786 0.0
H665 H 0.44203 0.50801 0.25949 0.0
Co666 Co 0.45845 0.53429 0.45949 0.0
C667 C 0.44781 0.64367 0.5837 0.0
O668 O 0.45032 0.68223 0.51635 0.0
N669 N 0.48225 0.54506 0.50566 0.0
C670 C 0.50745 0.59119 0.54396 0.0
C671 C 0.48919 0.59517 0.53664 0.0
C672 C 0.49677 0.51096 0.49577 0.0
N673 N 0.51215 0.53838 0.51757 0.0
O674 O 0.46646 0.4778 0.36192 0.0
H675 H 0.48185 0.63425 0.54451 0.0
H676 H 0.4963 0.46885 0.46498 0.0
O677 O 0.45005 0.59029 0.56375 0.0
C678 C 0.46856 0.42447 0.34626 0.0
O679 O 0.47153 0.40746 0.2571 0.0
N680 N 0.46221 0.59146 0.3652 0.0
C681 C 0.46377 0.64308 0.18534 0.0
C682 C 0.44907 0.65243 0.24585 0.0
C683 C 0.44863 0.6266 0.3365 0.0
C684 C 0.47732 0.58685 0.30974 0.0
C685 C 0.47838 0.6125 0.21977 0.0
H686 H 0.43652 0.62997 0.37878 0.0
H687 H 0.48805 0.55858 0.32933 0.0
H688 H 0.41544 0.53572 0.52326 0.0
H689 H 0.40757 0.50193 0.22605 0.0
H690 H 0.51657 0.62551 0.5606 0.0
H691 H 0.4377 0.67723 0.22156 0.0
H692 H 0.49001 0.60493 0.17472 0.0
C693 C 0.36011 0.29509 0.31441 0.0
C694 C 0.37805 0.29718 0.29552 0.0
N695 N 0.3866 0.28791 0.37913 0.0
N696 N 0.35711 0.2839 0.40983 0.0
C697 C 0.37379 0.28037 0.44787 0.0
H698 H 0.34987 0.29875 0.2595 0.0
Co699 Co 0.33345 0.27247 0.45948 0.0
C700 C 0.34409 0.16309 0.58371 0.0
O701 O 0.34158 0.12453 0.51636 0.0
N702 N 0.30965 0.26169 0.50561 0.0
C703 C 0.28445 0.21556 0.54391 0.0
C704 C 0.30272 0.21158 0.53657 0.0
C705 C 0.29514 0.29579 0.49575 0.0
N706 N 0.27975 0.26838 0.51755 0.0
O707 O 0.32543 0.32895 0.36189 0.0
H708 H 0.31005 0.17249 0.54443 0.0
H709 H 0.2956 0.33791 0.46498 0.0
O710 O 0.34186 0.21647 0.56376 0.0
C711 C 0.32334 0.38228 0.34624 0.0
O712 O 0.32036 0.3993 0.25708 0.0
N713 N 0.3297 0.21529 0.36519 0.0
C714 C 0.32814 0.16368 0.18532 0.0
C715 C 0.34284 0.15433 0.24586 0.0
C716 C 0.34327 0.18016 0.33651 0.0
C717 C 0.31458 0.21989 0.3097 0.0
C718 C 0.31352 0.19425 0.21972 0.0
H719 H 0.35538 0.17679 0.37882 0.0
H720 H 0.30385 0.24815 0.32928 0.0
H721 H 0.37648 0.27103 0.52326 0.0
H722 H 0.38432 0.30483 0.22605 0.0
H723 H 0.27533 0.18124 0.56055 0.0
H724 H 0.3542 0.12954 0.22159 0.0
H725 H 0.30189 0.20182 0.17465 0.0
C726 C 0.43179 0.29513 0.45637 0.0
C727 C 0.41385 0.29722 0.47525 0.0
N728 N 0.40531 0.28794 0.39165 0.0
N729 N 0.43479 0.28392 0.36096 0.0
C730 C 0.41811 0.28038 0.32292 0.0
H731 H 0.44204 0.2988 0.51129 0.0
Co732 Co 0.45845 0.27248 0.31131 0.0
C733 C 0.44781 0.1631 0.1871 0.0
O734 O 0.45032 0.12454 0.25446 0.0
N735 N 0.48225 0.26169 0.26517 0.0
C736 C 0.50745 0.21555 0.22687 0.0
C737 C 0.48918 0.21155 0.2343 0.0
C738 C 0.49676 0.2958 0.27491 0.0
N739 N 0.51214 0.2684 0.25304 0.0
O740 O 0.46647 0.32896 0.40888 0.0
H741 H 0.48185 0.17245 0.22657 0.0
H742 H 0.4963 0.33794 0.30561 0.0
O743 O 0.45005 0.21648 0.20705 0.0
C744 C 0.46857 0.38229 0.42454 0.0
O745 O 0.47154 0.39931 0.51369 0.0
N746 N 0.46221 0.21531 0.40562 0.0
C747 C 0.46377 0.16371 0.58549 0.0
C748 C 0.44907 0.15436 0.52497 0.0
C749 C 0.44863 0.18019 0.43431 0.0
C750 C 0.47732 0.21991 0.46109 0.0
C751 C 0.47838 0.19428 0.55108 0.0
H752 H 0.43652 0.17681 0.392 0.0
H753 H 0.48805 0.24817 0.44149 0.0
H754 H 0.41543 0.27101 0.24753 0.0
H755 H 0.40758 0.30487 0.54472 0.0
H756 H 0.51656 0.18122 0.2103 0.0
H757 H 0.4377 0.12957 0.54924 0.0
H758 H 0.49001 0.20184 0.59614 0.0
C759 C 0.36011 0.51163 0.45638 0.0
C760 C 0.37806 0.50954 0.47526 0.0
N761 N 0.3866 0.51881 0.39165 0.0
N762 N 0.35711 0.52283 0.36096 0.0
C763 C 0.37379 0.52637 0.32292 0.0
H764 H 0.34988 0.50797 0.5113 0.0
Co765 Co 0.33345 0.53427 0.3113 0.0
C766 C 0.34409 0.64365 0.1871 0.0
O767 O 0.34159 0.68221 0.25446 0.0
N768 N 0.30965 0.54505 0.26514 0.0
C769 C 0.28445 0.59119 0.22686 0.0
C770 C 0.30272 0.59517 0.23418 0.0
C771 C 0.29514 0.51096 0.27502 0.0
N772 N 0.27975 0.53838 0.25323 0.0
O773 O 0.32544 0.47778 0.40887 0.0
H774 H 0.31005 0.63425 0.22633 0.0
H775 H 0.2956 0.46884 0.30579 0.0
O776 O 0.34185 0.59027 0.20705 0.0
C777 C 0.32334 0.42445 0.42452 0.0
O778 O 0.32037 0.40743 0.51368 0.0
N779 N 0.3297 0.59144 0.40561 0.0
C780 C 0.32814 0.64306 0.58546 0.0
C781 C 0.34284 0.6524 0.52497 0.0
C782 C 0.34327 0.62657 0.43431 0.0
C783 C 0.31459 0.58683 0.46106 0.0
C784 C 0.31352 0.61248 0.55103 0.0
H785 H 0.35538 0.62994 0.39203 0.0
H786 H 0.30386 0.55857 0.44146 0.0
H787 H 0.37646 0.53573 0.24753 0.0
H788 H 0.38434 0.5019 0.54473 0.0
H789 H 0.27533 0.62552 0.21024 0.0
H790 H 0.3542 0.6772 0.54925 0.0
H791 H 0.30189 0.60491 0.59608 0.0
C792 C 0.61011 0.0451 0.20641 0.0
C793 C 0.62806 0.0472 0.2253 0.0
N794 N 0.6366 0.03792 0.14169 0.0
N795 N 0.60711 0.03391 0.11099 0.0
C796 C 0.62379 0.03038 0.07295 0.0
H797 H 0.59987 0.04876 0.26131 0.0
Co798 Co 0.58345 1.02247 0.06131 0.0
C799 C 0.5941 0.91309 0.93713 0.0
O800 O 0.59159 0.87452 1.00446 0.0
N801 N 0.55966 1.01169 0.01513 0.0
C802 C 0.53445 0.96556 0.97679 0.0
C803 C 0.55272 0.96157 0.98421 0.0
C804 C 0.54514 0.0458 0.0249 0.0
N805 N 0.52976 1.0184 1.00302 0.0
O806 O 0.57544 0.07896 0.15887 0.0
H807 H 0.56005 0.92247 0.97644 0.0
H808 H 0.54561 0.08793 0.05564 0.0
O809 O 0.59185 0.96647 0.95706 0.0
C810 C 0.57334 0.13229 0.17452 0.0
O811 O 0.57037 0.1493 0.26367 0.0
N812 N 0.5797 0.9653 0.1556 0.0
C813 C 0.57813 0.91368 0.33546 0.0
C814 C 0.59283 0.90433 0.27497 0.0
C815 C 0.59327 0.93017 0.18431 0.0
C816 C 0.56458 0.9699 0.21104 0.0
C817 C 0.56352 0.94426 0.30102 0.0
H818 H 0.60538 0.9268 0.14204 0.0
H819 H 0.55385 0.99817 0.19144 0.0
H820 H 0.62646 1.02104 0.99756 0.0
H821 H 0.63433 0.05485 0.29477 0.0
H822 H 0.52533 0.93123 0.9602 0.0
H823 H 0.6042 0.87954 0.29926 0.0
H824 H 0.55189 0.95182 0.34606 0.0
C825 C 0.6818 0.26166 0.2064 0.0
C826 C 0.66385 0.25957 0.22529 0.0
N827 N 0.65531 0.26884 0.14168 0.0
N828 N 0.68479 0.27285 0.11098 0.0
C829 C 0.66811 0.27638 0.07294 0.0
H830 H 0.69204 0.258 0.26131 0.0
Co831 Co 0.70845 0.28429 0.06133 0.0
C832 C 0.69781 0.39367 0.93712 0.0
O833 O 0.70032 0.43224 1.00446 0.0
N834 N 0.73225 0.29507 0.01519 0.0
C835 C 0.75745 0.3412 0.97689 0.0
C836 C 0.73919 0.34519 0.98423 0.0
C837 C 0.74677 0.26097 0.02505 0.0
N838 N 0.76215 0.28839 1.00325 0.0
O839 O 0.71647 0.22781 0.15891 0.0
H840 H 0.73185 0.38427 0.97638 0.0
H841 H 0.7463 0.21885 0.05581 0.0
O842 O 0.70005 0.34028 0.95705 0.0
C843 C 0.71856 0.17448 0.17457 0.0
O844 O 0.72154 0.15746 0.26372 0.0
N845 N 0.71221 0.34147 0.15562 0.0
C846 C 0.71377 0.39308 0.33548 0.0
C847 C 0.69907 0.40243 0.27495 0.0
C848 C 0.69863 0.3766 0.1843 0.0
C849 C 0.72732 0.33687 0.2111 0.0
C850 C 0.72838 0.36251 0.30108 0.0
H851 H 0.68652 0.37997 0.14199 0.0
H852 H 0.73805 0.30861 0.19152 0.0
H853 H 0.66543 0.28573 0.99755 0.0
H854 H 0.65758 0.25192 0.29476 0.0
H855 H 0.76657 0.37553 0.96025 0.0
H856 H 0.6877 0.42722 0.29922 0.0
H857 H 0.74001 0.35495 0.34615 0.0
C858 C 0.61011 0.26164 0.06442 0.0
C859 C 0.62806 0.25955 0.04554 0.0
N860 N 0.6366 0.26882 0.12916 0.0
N861 N 0.60711 0.27283 0.15984 0.0
C862 C 0.62379 0.27637 0.19788 0.0
H863 H 0.59987 0.25798 1.00951 0.0
Co864 Co 0.58345 0.28427 0.20948 0.0
C865 C 0.5941 0.39365 0.33369 0.0
O866 O 0.59159 0.43222 0.26635 0.0
N867 N 0.55965 0.29505 0.25562 0.0
C868 C 0.53445 0.34119 0.29392 0.0
C869 C 0.55272 0.34517 0.28658 0.0
C870 C 0.54514 0.26096 0.24574 0.0
N871 N 0.52975 0.28838 0.26754 0.0
O872 O 0.57544 0.22779 0.1119 0.0
H873 H 0.56005 0.38425 0.29445 0.0
H874 H 0.5456 0.21884 0.21498 0.0
O875 O 0.59186 0.34026 0.31376 0.0
C876 C 0.57334 0.17446 0.09624 0.0
O877 O 0.57037 0.15744 1.00708 0.0
N878 N 0.5797 0.34144 0.11519 0.0
C879 C 0.57813 0.39307 0.93533 0.0
C880 C 0.59284 0.40241 0.99586 0.0
C881 C 0.59327 0.37657 0.08651 0.0
C882 C 0.56458 0.33685 0.05971 0.0
C883 C 0.56352 0.36249 0.96973 0.0
H884 H 0.60538 0.37994 0.12881 0.0
H885 H 0.55385 0.30859 0.07929 0.0
H886 H 0.62647 0.28573 0.27328 0.0
H887 H 0.63433 0.25191 0.97608 0.0
H888 H 0.52534 0.37551 0.31055 0.0
H889 H 0.6042 0.4272 0.97159 0.0
H890 H 0.55189 0.35493 0.92466 0.0
C891 C 0.68179 0.04513 0.06443 0.0
C892 C 0.66384 0.04723 0.04555 0.0
N893 N 0.6553 0.03795 0.12917 0.0
N894 N 0.68479 0.03393 0.15985 0.0
C895 C 0.66812 0.03039 0.19789 0.0
H896 H 0.69202 0.04879 1.00952 0.0
Co897 Co 0.70845 1.02249 0.2095 0.0
C898 C 0.69781 0.91311 0.33368 0.0
O899 O 0.70031 0.87453 0.26634 0.0
N900 N 0.73225 1.01171 0.25567 0.0
C901 C 0.75745 0.96557 0.29396 0.0
C902 C 0.73919 0.9616 0.28663 0.0
C903 C 0.74677 0.0458 0.24579 0.0
N904 N 0.76215 1.01838 0.26757 0.0
O905 O 0.71646 0.07898 0.11194 0.0
H906 H 0.73185 0.92251 0.29449 0.0
H907 H 0.7463 0.08792 0.21501 0.0
O908 O 0.70005 0.96649 0.31376 0.0
C909 C 0.71856 0.13231 0.09629 0.0
O910 O 0.72153 0.14933 1.00713 0.0
N911 N 0.7122 0.96533 0.1152 0.0
C912 C 0.71377 0.9137 0.93534 0.0
C913 C 0.69906 0.90436 0.99584 0.0
C914 C 0.69863 0.93019 0.08649 0.0
C915 C 0.72731 0.96993 0.05975 0.0
C916 C 0.72838 0.94428 0.96977 0.0
H917 H 0.68652 0.92682 0.12877 0.0
H918 H 0.73805 0.99819 0.07934 0.0
H919 H 0.66544 1.02103 0.27328 0.0
H920 H 0.65756 0.05487 0.97609 0.0
H921 H 0.76657 0.93124 0.31058 0.0
H922 H 0.6877 0.87956 0.97155 0.0
H923 H 0.74001 0.95185 0.92473 0.0
C924 C 0.43179 1.01167 0.81439 0.0
C925 C 0.41384 1.00957 0.79551 0.0
N926 N 0.40531 1.01884 0.87912 0.0
N927 N 0.43479 1.02285 0.90982 0.0
C928 C 0.41812 1.02638 0.94785 0.0
H929 H 0.44203 1.00801 0.75948 0.0
Co930 Co 0.45845 0.03429 0.95949 0.0
C931 C 0.44781 0.14366 0.08368 0.0
O932 O 0.45031 0.18223 0.01635 0.0
N933 N 0.48225 0.04505 1.00566 0.0
C934 C 0.50745 0.09118 0.04398 0.0
C935 C 0.48919 0.09516 0.03665 0.0
C936 C 0.49677 1.01096 0.99577 0.0
N937 N 0.51215 0.03838 0.01757 0.0
O938 O 0.46646 0.9778 0.86191 0.0
H939 H 0.48185 0.13425 0.04454 0.0
H940 H 0.4963 0.96885 0.96497 0.0
O941 O 0.45005 0.09028 0.06375 0.0
C942 C 0.46856 0.92447 0.84626 0.0
O943 O 0.47153 0.90745 0.75711 0.0
N944 N 0.46221 0.09146 0.8652 0.0
C945 C 0.46377 0.14309 0.68535 0.0
C946 C 0.44907 0.15243 0.74585 0.0
C947 C 0.44863 0.12659 0.8365 0.0
C948 C 0.47732 0.08686 0.80975 0.0
C949 C 0.47838 0.11251 0.71978 0.0
H950 H 0.43652 0.12996 0.87878 0.0
H951 H 0.48805 0.05859 0.82934 0.0
H952 H 0.41544 0.03572 0.02325 0.0
H953 H 0.40757 1.00193 0.72604 0.0
H954 H 0.51657 0.12551 0.06062 0.0
H955 H 0.4377 0.17723 0.72156 0.0
H956 H 0.49001 0.10494 0.67474 0.0
C957 C 0.36011 0.79509 0.8144 0.0
C958 C 0.37805 0.79719 0.79552 0.0
N959 N 0.3866 0.78792 0.87912 0.0
N960 N 0.35711 0.7839 0.90983 0.0
C961 C 0.37379 0.78037 0.94786 0.0
H962 H 0.34986 0.79875 0.75949 0.0
Co963 Co 0.33345 0.77246 0.95948 0.0
C964 C 0.34409 0.66309 0.08368 0.0
O965 O 0.34158 0.62452 0.01635 0.0
N966 N 0.30965 0.76169 1.00562 0.0
C967 C 0.28445 0.71556 0.04392 0.0
C968 C 0.30272 0.71157 0.03658 0.0
C969 C 0.29514 0.79579 0.99576 0.0
N970 N 0.27975 0.76837 0.01756 0.0
O971 O 0.32543 0.82895 0.86189 0.0
H972 H 0.31005 0.67249 0.04443 0.0
H973 H 0.2956 0.83791 0.965 0.0
O974 O 0.34186 0.71647 0.06375 0.0
C975 C 0.32334 0.88228 0.84624 0.0
O976 O 0.32036 0.8993 0.75708 0.0
N977 N 0.3297 0.71529 0.86519 0.0
C978 C 0.32814 0.66368 0.68532 0.0
C979 C 0.34284 0.65433 0.74585 0.0
C980 C 0.34327 0.68016 0.83651 0.0
C981 C 0.31458 0.71989 0.80971 0.0
C982 C 0.31352 0.69425 0.71973 0.0
H983 H 0.35538 0.67679 0.87882 0.0
H984 H 0.30385 0.74815 0.82929 0.0
H985 H 0.37647 0.77103 0.02326 0.0
H986 H 0.38432 0.80484 0.72605 0.0
H987 H 0.27534 0.68123 0.06056 0.0
H988 H 0.3542 0.62954 0.72159 0.0
H989 H 0.30189 0.70181 0.67466 0.0
C990 C 0.43179 0.79513 0.95637 0.0
C991 C 0.41385 0.79722 0.97525 0.0
N992 N 0.40531 0.78794 0.89164 0.0
N993 N 0.43479 0.78393 0.86096 0.0
C994 C 0.41811 0.78039 0.82292 0.0
H995 H 0.44203 0.79879 0.01129 0.0
Co996 Co 0.45845 0.77248 0.81132 0.0
C997 C 0.44781 0.66311 0.68712 0.0
O998 O 0.45031 0.62454 0.75446 0.0
N999 N 0.48225 0.7617 0.76518 0.0
C1000 C 0.50745 0.71556 0.7269 0.0
C1001 C 0.48918 0.71158 0.73424 0.0
C1002 C 0.49677 0.7958 0.77504 0.0
N1003 N 0.51215 0.76838 0.75325 0.0
O1004 O 0.46647 0.82897 0.90889 0.0
H1005 H 0.48185 0.6725 0.72639 0.0
H1006 H 0.4963 0.83792 0.80579 0.0
O1007 O 0.45005 0.71649 0.70705 0.0
C1008 C 0.46856 0.8823 0.92455 0.0
O1009 O 0.47154 0.89932 0.0137 0.0
N1010 N 0.46221 0.71532 0.90562 0.0
C1011 C 0.46377 0.6637 0.08548 0.0
C1012 C 0.44906 0.65436 0.02496 0.0
C1013 C 0.44863 0.68019 0.9343 0.0
C1014 C 0.47732 0.71991 0.9611 0.0
C1015 C 0.47838 0.69427 0.05108 0.0
H1016 H 0.43652 0.67682 0.89199 0.0
H1017 H 0.48805 0.74817 0.94151 0.0
H1018 H 0.41543 0.77102 0.74753 0.0
H1019 H 0.40758 0.80486 0.04472 0.0
H1020 H 0.51657 0.68123 0.71027 0.0
H1021 H 0.4377 0.62957 0.04922 0.0
H1022 H 0.49001 0.70184 0.09615 0.0
C1023 C 0.36012 1.01163 0.95638 0.0
C1024 C 0.37806 1.00953 0.97525 0.0
N1025 N 0.3866 1.01881 0.89164 0.0
N1026 N 0.35711 1.02283 0.86096 0.0
C1027 C 0.37379 1.02637 0.82292 0.0
H1028 H 0.34988 1.00796 0.01129 0.0
Co1029 Co 0.33345 0.03427 0.8113 0.0
C1030 C 0.3441 0.14365 0.68712 0.0
O1031 O 0.3416 0.18222 0.75446 0.0
N1032 N 0.30965 0.04505 0.76514 0.0
C1033 C 0.28445 0.09119 0.72685 0.0
C1034 C 0.30272 0.09516 0.73418 0.0
C1035 C 0.29514 1.01096 0.77502 0.0
N1036 N 0.27975 0.03838 0.75323 0.0
O1037 O 0.32544 0.97778 0.90887 0.0
H1038 H 0.31005 0.13425 0.72631 0.0
H1039 H 0.2956 0.96884 0.80579 0.0
O1040 O 0.34185 0.09027 0.70705 0.0
C1041 C 0.32334 0.92445 0.92452 0.0
O1042 O 0.32037 0.90743 0.01368 0.0
N1043 N 0.3297 0.09143 0.90561 0.0
C1044 C 0.32814 0.14305 0.08546 0.0
C1045 C 0.34284 0.1524 0.02497 0.0
C1046 C 0.34327 0.12656 0.93431 0.0
C1047 C 0.31459 0.08683 0.96106 0.0
C1048 C 0.31352 0.11248 0.05103 0.0
H1049 H 0.35538 0.12994 0.89203 0.0
H1050 H 0.30386 0.05857 0.94146 0.0
H1051 H 0.37646 0.03573 0.74753 0.0
H1052 H 0.38434 1.00189 0.04472 0.0
H1053 H 0.27533 0.12552 0.71022 0.0
H1054 H 0.3542 0.17719 0.04926 0.0
H1055 H 0.30189 0.10491 0.09608 0.0
loop_
_geom_bond_atom_site_label_1
_geom_bond_atom_site_label_2
_geom_bond_distance
_geom_bond_site_symmetry_2
_ccdc_geom_bond_type
C0 C1 1.351 . S
C0 N3 1.368 . S
C0 H5 0.931 . S
C1 C0 1.351 . S
C1 N2 1.373 . S
C1 H29 0.930 . S
N2 C1 1.373 . S
N2 C4 1.340 . S
N3 C0 1.368 . S
N3 C4 1.321 . S
N3 Co6 2.135 . S
C4 N2 1.340 . S
C4 N3 1.321 . S
C4 H28 0.930 1_554 S
H5 C0 0.931 . S
Co6 N3 2.135 . S
Co6 N9 2.121 . S
Co6 O14 2.055 . S
Co6 O17 2.039 1_554 S
Co6 N20 2.140 . S
C7 O8 1.227 . S
C7 O17 1.265 . S
O8 C7 1.227 . S
N9 Co6 2.121 . S
N9 C11 1.375 . S
N9 C12 1.313 . S
C10 C11 1.338 . S
C10 N13 1.377 . S
C10 H30 0.930 1_554 S
C11 N9 1.375 . S
C11 C10 1.338 . S
C11 H15 0.931 1_554 S
C12 N9 1.313 . S
C12 N13 1.344 . S
C12 H16 0.930 . S
N13 C10 1.377 . S
N13 C12 1.344 . S
O14 Co6 2.055 . S
O14 C18 1.253 . S
H15 C11 0.931 1_556 S
H16 C12 0.930 . S
O17 Co6 2.039 1_556 S
O17 C7 1.265 . S
C18 O14 1.253 . S
C18 O19 1.227 . S
O19 C18 1.227 . S
N20 Co6 2.140 . S
N20 C23 1.346 . S
N20 C24 1.345 . S
C21 C22 1.387 . S
C21 C25 1.391 . S
C22 C21 1.387 . S
C22 C23 1.369 . S
C22 H31 0.929 . S
C23 N20 1.346 . S
C23 C22 1.369 . S
C23 H26 0.928 . S
C24 N20 1.345 . S
C24 C25 1.371 . S
C24 H27 0.931 . S
C25 C21 1.391 . S
C25 C24 1.371 . S
C25 H32 0.930 . S
H26 C23 0.928 . S
H27 C24 0.931 . S
H28 C4 0.930 1_556 S
H29 C1 0.930 . S
H30 C10 0.930 1_556 S
H31 C22 0.929 . S
H32 C25 0.930 . S
C33 C34 1.351 . S
C33 N36 1.368 . S
C33 H38 0.931 . S
C34 C33 1.351 . S
C34 N35 1.373 . S
C34 H62 0.930 . S
N35 C34 1.373 . S
N35 C37 1.340 . S
N36 C33 1.368 . S
N36 C37 1.321 . S
N36 Co39 2.135 . S
C37 N35 1.340 . S
C37 N36 1.321 . S
C37 H61 0.930 1_554 S
H38 C33 0.931 . S
Co39 N36 2.135 . S
Co39 N42 2.121 . S
Co39 O47 2.055 . S
Co39 O50 2.039 1_554 S
Co39 N53 2.140 . S
C40 O41 1.227 . S
C40 O50 1.265 . S
O41 C40 1.227 . S
N42 Co39 2.121 . S
N42 C44 1.375 . S
N42 C45 1.313 . S
C43 C44 1.338 . S
C43 N46 1.377 . S
C43 H63 0.930 1_554 S
C44 N42 1.375 . S
C44 C43 1.338 . S
C44 H48 0.931 1_554 S
C45 N42 1.313 . S
C45 N46 1.344 . S
C45 H49 0.930 . S
N46 C43 1.377 . S
N46 C45 1.344 . S
O47 Co39 2.055 . S
O47 C51 1.253 . S
H48 C44 0.931 1_556 S
H49 C45 0.930 . S
O50 Co39 2.039 1_556 S
O50 C40 1.265 . S
C51 O47 1.253 . S
C51 O52 1.227 . S
O52 C51 1.227 . S
N53 Co39 2.140 . S
N53 C56 1.346 . S
N53 C57 1.345 . S
C54 C55 1.387 . S
C54 C58 1.391 . S
C55 C54 1.387 . S
C55 C56 1.369 . S
C55 H64 0.929 . S
C56 N53 1.346 . S
C56 C55 1.369 . S
C56 H59 0.928 . S
C57 N53 1.345 . S
C57 C58 1.371 . S
C57 H60 0.931 . S
C58 C54 1.391 . S
C58 C57 1.371 . S
C58 H65 0.930 . S
H59 C56 0.928 . S
H60 C57 0.931 . S
H61 C37 0.930 1_556 S
H62 C34 0.930 . S
H63 C43 0.930 1_556 S
H64 C55 0.929 . S
H65 C58 0.930 . S
C66 C67 1.351 . S
C66 N69 1.368 . S
C66 H71 0.931 . S
C67 C66 1.351 . S
C67 N68 1.373 . S
C67 H95 0.930 . S
N68 C67 1.373 . S
N68 C70 1.340 . S
N69 C66 1.368 . S
N69 C70 1.321 . S
N69 Co72 2.135 . S
C70 N68 1.340 . S
C70 N69 1.321 . S
C70 H94 0.930 . S
H71 C66 0.931 . S
Co72 N69 2.135 . S
Co72 N75 2.121 . S
Co72 O80 2.055 . S
Co72 O83 2.039 . S
Co72 N86 2.140 . S
C73 O74 1.227 . S
C73 O83 1.265 . S
O74 C73 1.227 . S
N75 Co72 2.121 . S
N75 C77 1.375 . S
N75 C78 1.313 . S
C76 C77 1.338 . S
C76 N79 1.377 . S
C76 H96 0.930 . S
C77 N75 1.375 . S
C77 C76 1.338 . S
C77 H81 0.931 . S
C78 N75 1.313 . S
C78 N79 1.344 . S
C78 H82 0.930 . S
N79 C76 1.377 . S
N79 C78 1.344 . S
O80 Co72 2.055 . S
O80 C84 1.253 . S
H81 C77 0.931 . S
H82 C78 0.930 . S
O83 Co72 2.039 . S
O83 C73 1.265 . S
C84 O80 1.253 . S
C84 O85 1.227 . S
O85 C84 1.227 . S
N86 Co72 2.140 . S
N86 C89 1.346 . S
N86 C90 1.345 . S
C87 C88 1.387 . S
C87 C91 1.391 . S
C88 C87 1.387 . S
C88 C89 1.369 1_556 S
C88 H97 0.929 . S
C89 N86 1.346 . S
C89 C88 1.369 1_554 S
C89 H92 0.928 . S
C90 N86 1.345 . S
C90 C91 1.371 1_554 S
C90 H93 0.931 . S
C91 C87 1.391 . S
C91 C90 1.371 1_556 S
C91 H98 0.930 . S
H92 C89 0.928 . S
H93 C90 0.931 . S
H94 C70 0.930 . S
H95 C67 0.930 . S
H96 C76 0.930 . S
H97 C88 0.929 . S
H98 C91 0.930 . S
C99 C100 1.351 . S
C99 N102 1.368 . S
C99 H104 0.931 . S
C100 C99 1.351 . S
C100 N101 1.373 . S
C100 H128 0.930 . S
N101 C100 1.373 . S
N101 C103 1.340 . S
N102 C99 1.368 . S
N102 C103 1.321 . S
N102 Co105 2.135 . S
C103 N101 1.340 . S
C103 N102 1.321 . S
C103 H127 0.930 . S
H104 C99 0.931 . S
Co105 N102 2.135 . S
Co105 N108 2.121 . S
Co105 O113 2.055 . S
Co105 O116 2.039 . S
Co105 N119 2.140 . S
C106 O107 1.227 . S
C106 O116 1.265 . S
O107 C106 1.227 . S
N108 Co105 2.121 . S
N108 C110 1.375 . S
N108 C111 1.313 . S
C109 C110 1.338 . S
C109 N112 1.377 . S
C109 H129 0.930 . S
C110 N108 1.375 . S
C110 C109 1.338 . S
C110 H114 0.931 . S
C111 N108 1.313 . S
C111 N112 1.344 . S
C111 H115 0.930 . S
N112 C109 1.377 . S
N112 C111 1.344 . S
O113 Co105 2.055 . S
O113 C117 1.253 . S
H114 C110 0.931 . S
H115 C111 0.930 . S
O116 Co105 2.039 . S
O116 C106 1.265 . S
C117 O113 1.253 . S
C117 O118 1.227 . S
O118 C117 1.227 . S
N119 Co105 2.140 . S
N119 C122 1.346 . S
N119 C123 1.345 . S
C120 C121 1.387 . S
C120 C124 1.391 . S
C121 C120 1.387 . S
C121 C122 1.369 1_556 S
C121 H130 0.929 . S
C122 N119 1.346 . S
C122 C121 1.369 1_554 S
C122 H125 0.928 . S
C123 N119 1.345 . S
C123 C124 1.371 1_554 S
C123 H126 0.931 . S
C124 C120 1.391 . S
C124 C123 1.371 1_556 S
C124 H131 0.930 . S
H125 C122 0.928 . S
H126 C123 0.931 . S
H127 C103 0.930 . S
H128 C100 0.930 . S
H129 C109 0.930 . S
H130 C121 0.929 . S
H131 C124 0.930 . S
C132 C133 1.351 . S
C132 N135 1.368 . S
C132 H137 0.931 . S
C133 C132 1.351 . S
C133 N134 1.373 . S
C133 H161 0.930 . S
N134 C133 1.373 . S
N134 C136 1.340 . S
N135 C132 1.368 . S
N135 C136 1.321 . S
N135 Co138 2.135 . S
C136 N134 1.340 . S
C136 N135 1.321 . S
C136 H160 0.930 1_556 S
H137 C132 0.931 . S
Co138 N135 2.135 . S
Co138 N141 2.121 . S
Co138 O146 2.055 . S
Co138 O149 2.039 1_556 S
Co138 N152 2.140 . S
C139 O140 1.227 . S
C139 O149 1.265 . S
O140 C139 1.227 . S
N141 Co138 2.121 . S
N141 C143 1.375 . S
N141 C144 1.313 . S
C142 C143 1.338 . S
C142 N145 1.377 . S
C142 H162 0.930 1_556 S
C143 N141 1.375 . S
C143 C142 1.338 . S
C143 H147 0.931 1_556 S
C144 N141 1.313 . S
C144 N145 1.344 . S
C144 H148 0.930 . S
N145 C142 1.377 . S
N145 C144 1.344 . S
O146 Co138 2.055 . S
O146 C150 1.253 . S
H147 C143 0.931 1_554 S
H148 C144 0.930 . S
O149 Co138 2.039 1_554 S
O149 C139 1.265 . S
C150 O146 1.253 . S
C150 O151 1.227 . S
O151 C150 1.227 . S
N152 Co138 2.140 . S
N152 C155 1.346 . S
N152 C156 1.345 . S
C153 C154 1.387 . S
C153 C157 1.391 . S
C154 C153 1.387 . S
C154 C155 1.369 . S
C154 H163 0.929 . S
C155 N152 1.346 . S
C155 C154 1.369 . S
C155 H158 0.928 . S
C156 N152 1.345 . S
C156 C157 1.371 . S
C156 H159 0.931 . S
C157 C153 1.391 . S
C157 C156 1.371 . S
C157 H164 0.930 . S
H158 C155 0.928 . S
H159 C156 0.931 . S
H160 C136 0.930 1_554 S
H161 C133 0.930 . S
H162 C142 0.930 1_554 S
H163 C154 0.929 . S
H164 C157 0.930 . S
C165 C166 1.351 . S
C165 N168 1.368 . S
C165 H170 0.931 . S
C166 C165 1.351 . S
C166 N167 1.373 . S
C166 H194 0.930 . S
N167 C166 1.373 . S
N167 C169 1.340 . S
N168 C165 1.368 . S
N168 C169 1.321 . S
N168 Co171 2.135 . S
C169 N167 1.340 . S
C169 N168 1.321 . S
C169 H193 0.930 1_556 S
H170 C165 0.931 . S
Co171 N168 2.135 . S
Co171 N174 2.121 . S
Co171 O179 2.055 . S
Co171 O182 2.039 1_556 S
Co171 N185 2.140 . S
C172 O173 1.227 . S
C172 O182 1.265 . S
O173 C172 1.227 . S
N174 Co171 2.121 . S
N174 C176 1.375 . S
N174 C177 1.313 . S
C175 C176 1.338 . S
C175 N178 1.377 . S
C175 H195 0.930 1_556 S
C176 N174 1.375 . S
C176 C175 1.338 . S
C176 H180 0.931 1_556 S
C177 N174 1.313 . S
C177 N178 1.344 . S
C177 H181 0.930 . S
N178 C175 1.377 . S
N178 C177 1.344 . S
O179 Co171 2.055 . S
O179 C183 1.253 . S
H180 C176 0.931 1_554 S
H181 C177 0.930 . S
O182 Co171 2.039 1_554 S
O182 C172 1.265 . S
C183 O179 1.253 . S
C183 O184 1.227 . S
O184 C183 1.227 . S
N185 Co171 2.140 . S
N185 C188 1.346 . S
N185 C189 1.345 . S
C186 C187 1.387 . S
C186 C190 1.391 . S
C187 C186 1.387 . S
C187 C188 1.369 . S
C187 H196 0.929 . S
C188 N185 1.346 . S
C188 C187 1.369 . S
C188 H191 0.928 . S
C189 N185 1.345 . S
C189 C190 1.371 . S
C189 H192 0.931 . S
C190 C186 1.391 . S
C190 C189 1.371 . S
C190 H197 0.930 . S
H191 C188 0.928 . S
H192 C189 0.931 . S
H193 C169 0.930 1_554 S
H194 C166 0.930 . S
H195 C175 0.930 1_554 S
H196 C187 0.929 . S
H197 C190 0.930 . S
C198 C199 1.351 . S
C198 N201 1.368 . S
C198 H203 0.931 . S
C199 C198 1.351 . S
C199 N200 1.373 . S
C199 H227 0.930 . S
N200 C199 1.373 . S
N200 C202 1.340 . S
N201 C198 1.368 . S
N201 C202 1.321 . S
N201 Co204 2.135 . S
C202 N200 1.340 . S
C202 N201 1.321 . S
C202 H226 0.930 . S
H203 C198 0.931 . S
Co204 N201 2.135 . S
Co204 N207 2.121 . S
Co204 O212 2.055 . S
Co204 O215 2.039 . S
Co204 N218 2.140 . S
C205 O206 1.227 . S
C205 O215 1.265 . S
O206 C205 1.227 . S
N207 Co204 2.121 . S
N207 C209 1.375 . S
N207 C210 1.313 . S
C208 C209 1.338 . S
C208 N211 1.377 . S
C208 H228 0.930 . S
C209 N207 1.375 . S
C209 C208 1.338 . S
C209 H213 0.931 . S
C210 N207 1.313 . S
C210 N211 1.344 . S
C210 H214 0.930 . S
N211 C208 1.377 . S
N211 C210 1.344 . S
O212 Co204 2.055 . S
O212 C216 1.253 . S
H213 C209 0.931 . S
H214 C210 0.930 . S
O215 Co204 2.039 . S
O215 C205 1.265 . S
C216 O212 1.253 . S
C216 O217 1.227 . S
O217 C216 1.227 . S
N218 Co204 2.140 . S
N218 C221 1.346 . S
N218 C222 1.345 . S
C219 C220 1.387 . S
C219 C223 1.391 . S
C220 C219 1.387 . S
C220 C221 1.369 1_554 S
C220 H229 0.929 . S
C221 N218 1.346 . S
C221 C220 1.369 1_556 S
C221 H224 0.928 . S
C222 N218 1.345 . S
C222 C223 1.371 1_556 S
C222 H225 0.931 . S
C223 C219 1.391 . S
C223 C222 1.371 1_554 S
C223 H230 0.930 . S
H224 C221 0.928 . S
H225 C222 0.931 . S
H226 C202 0.930 . S
H227 C199 0.930 . S
H228 C208 0.930 . S
H229 C220 0.929 . S
H230 C223 0.930 . S
C231 C232 1.351 . S
C231 N234 1.368 . S
C231 H236 0.931 . S
C232 C231 1.351 . S
C232 N233 1.373 . S
C232 H260 0.930 . S
N233 C232 1.373 . S
N233 C235 1.340 . S
N234 C231 1.368 . S
N234 C235 1.321 . S
N234 Co237 2.135 . S
C235 N233 1.340 . S
C235 N234 1.321 . S
C235 H259 0.930 . S
H236 C231 0.931 . S
Co237 N234 2.135 . S
Co237 N240 2.121 . S
Co237 O245 2.055 . S
Co237 O248 2.039 . S
Co237 N251 2.140 . S
C238 O239 1.227 . S
C238 O248 1.265 . S
O239 C238 1.227 . S
N240 Co237 2.121 . S
N240 C242 1.375 . S
N240 C243 1.313 . S
C241 C242 1.338 . S
C241 N244 1.377 . S
C241 H261 0.930 . S
C242 N240 1.375 . S
C242 C241 1.338 . S
C242 H246 0.931 . S
C243 N240 1.313 . S
C243 N244 1.344 . S
C243 H247 0.930 . S
N244 C241 1.377 . S
N244 C243 1.344 . S
O245 Co237 2.055 . S
O245 C249 1.253 . S
H246 C242 0.931 . S
H247 C243 0.930 . S
O248 Co237 2.039 . S
O248 C238 1.265 . S
C249 O245 1.253 . S
C249 O250 1.227 . S
O250 C249 1.227 . S
N251 Co237 2.140 . S
N251 C254 1.346 . S
N251 C255 1.345 . S
C252 C253 1.387 . S
C252 C256 1.391 . S
C253 C252 1.387 . S
C253 C254 1.369 1_554 S
C253 H262 0.929 . S
C254 N251 1.346 . S
C254 C253 1.369 1_556 S
C254 H257 0.928 . S
C255 N251 1.345 . S
C255 C256 1.371 1_556 S
C255 H258 0.931 . S
C256 C252 1.391 . S
C256 C255 1.371 1_554 S
C256 H263 0.930 . S
H257 C254 0.928 . S
H258 C255 0.931 . S
H259 C235 0.930 . S
H260 C232 0.930 . S
H261 C241 0.930 . S
H262 C253 0.929 . S
H263 C256 0.930 . S
C264 C265 1.351 . S
C264 N267 1.368 1_545 S
C264 H269 0.931 . S
C265 C264 1.351 . S
C265 N266 1.373 1_545 S
C265 H293 0.930 . S
N266 C265 1.373 1_565 S
N266 C268 1.340 . S
N267 C264 1.368 1_565 S
N267 C268 1.321 . S
N267 Co270 2.135 . S
C268 N266 1.340 . S
C268 N267 1.321 . S
C268 H292 0.930 . S
H269 C264 0.931 . S
Co270 N267 2.135 . S
Co270 N273 2.121 . S
Co270 O278 2.055 1_565 S
Co270 O281 2.039 . S
Co270 N284 2.140 . S
C271 O272 1.227 . S
C271 O281 1.265 . S
O272 C271 1.227 . S
N273 Co270 2.121 . S
N273 C275 1.375 . S
N273 C276 1.313 1_565 S
C274 C275 1.338 . S
C274 N277 1.377 . S
C274 H294 0.930 . S
C275 N273 1.375 . S
C275 C274 1.338 . S
C275 H279 0.931 . S
C276 N273 1.313 1_545 S
C276 N277 1.344 1_545 S
C276 H280 0.930 . S
N277 C274 1.377 . S
N277 C276 1.344 1_565 S
O278 Co270 2.055 1_545 S
O278 C282 1.253 . S
H279 C275 0.931 . S
H280 C276 0.930 . S
O281 Co270 2.039 . S
O281 C271 1.265 . S
C282 O278 1.253 . S
C282 O283 1.227 . S
O283 C282 1.227 . S
N284 Co270 2.140 . S
N284 C287 1.346 . S
N284 C288 1.345 . S
C285 C286 1.387 . S
C285 C289 1.391 . S
C286 C285 1.387 . S
C286 C287 1.369 . S
C286 H295 0.929 . S
C287 N284 1.346 . S
C287 C286 1.369 . S
C287 H290 0.928 . S
C288 N284 1.345 . S
C288 C289 1.371 . S
C288 H291 0.931 . S
C289 C285 1.391 . S
C289 C288 1.371 . S
C289 H296 0.930 . S
H290 C287 0.928 . S
H291 C288 0.931 . S
H292 C268 0.930 . S
H293 C265 0.930 . S
H294 C274 0.930 . S
H295 C286 0.929 . S
H296 C289 0.930 . S
C297 C298 1.351 . S
C297 N300 1.368 . S
C297 H302 0.931 . S
C298 C297 1.351 . S
C298 N299 1.373 . S
C298 H326 0.930 . S
N299 C298 1.373 . S
N299 C301 1.340 . S
N300 C297 1.368 . S
N300 C301 1.321 . S
N300 Co303 2.135 . S
C301 N299 1.340 . S
C301 N300 1.321 . S
C301 H325 0.930 . S
H302 C297 0.931 . S
Co303 N300 2.135 . S
Co303 N306 2.121 . S
Co303 O311 2.055 . S
Co303 O314 2.039 . S
Co303 N317 2.140 . S
C304 O305 1.227 . S
C304 O314 1.265 . S
O305 C304 1.227 . S
N306 Co303 2.121 . S
N306 C308 1.375 . S
N306 C309 1.313 . S
C307 C308 1.338 . S
C307 N310 1.377 . S
C307 H327 0.930 . S
C308 N306 1.375 . S
C308 C307 1.338 . S
C308 H312 0.931 . S
C309 N306 1.313 . S
C309 N310 1.344 . S
C309 H313 0.930 . S
N310 C307 1.377 . S
N310 C309 1.344 . S
O311 Co303 2.055 . S
O311 C315 1.253 . S
H312 C308 0.931 . S
H313 C309 0.930 . S
O314 Co303 2.039 . S
O314 C304 1.265 . S
C315 O311 1.253 . S
C315 O316 1.227 . S
O316 C315 1.227 . S
N317 Co303 2.140 . S
N317 C320 1.346 . S
N317 C321 1.345 . S
C318 C319 1.387 . S
C318 C322 1.391 . S
C319 C318 1.387 . S
C319 C320 1.369 . S
C319 H328 0.929 . S
C320 N317 1.346 . S
C320 C319 1.369 . S
C320 H323 0.928 . S
C321 N317 1.345 . S
C321 C322 1.371 . S
C321 H324 0.931 . S
C322 C318 1.391 . S
C322 C321 1.371 . S
C322 H329 0.930 . S
H323 C320 0.928 . S
H324 C321 0.931 . S
H325 C301 0.930 . S
H326 C298 0.930 . S
H327 C307 0.930 . S
H328 C319 0.929 . S
H329 C322 0.930 . S
C330 C331 1.351 . S
C330 N333 1.368 . S
C330 H335 0.931 . S
C331 C330 1.351 . S
C331 N332 1.373 . S
C331 H359 0.930 . S
N332 C331 1.373 . S
N332 C334 1.340 . S
N333 C330 1.368 . S
N333 C334 1.321 . S
N333 Co336 2.135 . S
C334 N332 1.340 . S
C334 N333 1.321 . S
C334 H358 0.930 . S
H335 C330 0.931 . S
Co336 N333 2.135 . S
Co336 N339 2.121 . S
Co336 O344 2.055 . S
Co336 O347 2.039 . S
Co336 N350 2.140 . S
C337 O338 1.227 . S
C337 O347 1.265 . S
O338 C337 1.227 . S
N339 Co336 2.121 . S
N339 C341 1.375 . S
N339 C342 1.313 . S
C340 C341 1.338 . S
C340 N343 1.377 . S
C340 H360 0.930 . S
C341 N339 1.375 . S
C341 C340 1.338 . S
C341 H345 0.931 . S
C342 N339 1.313 . S
C342 N343 1.344 . S
C342 H346 0.930 . S
N343 C340 1.377 . S
N343 C342 1.344 . S
O344 Co336 2.055 . S
O344 C348 1.253 . S
H345 C341 0.931 . S
H346 C342 0.930 . S
O347 Co336 2.039 . S
O347 C337 1.265 . S
C348 O344 1.253 . S
C348 O349 1.227 . S
O349 C348 1.227 . S
N350 Co336 2.140 . S
N350 C353 1.346 . S
N350 C354 1.345 . S
C351 C352 1.387 . S
C351 C355 1.391 . S
C352 C351 1.387 . S
C352 C353 1.369 . S
C352 H361 0.929 . S
C353 N350 1.346 . S
C353 C352 1.369 . S
C353 H356 0.928 . S
C354 N350 1.345 . S
C354 C355 1.371 . S
C354 H357 0.931 . S
C355 C351 1.391 . S
C355 C354 1.371 . S
C355 H362 0.930 . S
H356 C353 0.928 . S
H357 C354 0.931 . S
H358 C334 0.930 . S
H359 C331 0.930 . S
H360 C340 0.930 . S
H361 C352 0.929 . S
H362 C355 0.930 . S
C363 C364 1.351 . S
C363 N366 1.368 1_545 S
C363 H368 0.931 . S
C364 C363 1.351 . S
C364 N365 1.373 1_545 S
C364 H392 0.930 . S
N365 C364 1.373 1_565 S
N365 C367 1.340 . S
N366 C363 1.368 1_565 S
N366 C367 1.321 . S
N366 Co369 2.135 . S
C367 N365 1.340 . S
C367 N366 1.321 . S
C367 H391 0.930 . S
H368 C363 0.931 . S
Co369 N366 2.135 . S
Co369 N372 2.121 . S
Co369 O377 2.055 1_565 S
Co369 O380 2.039 . S
Co369 N383 2.140 . S
C370 O371 1.227 . S
C370 O380 1.265 . S
O371 C370 1.227 . S
N372 Co369 2.121 . S
N372 C374 1.375 . S
N372 C375 1.313 1_565 S
C373 C374 1.338 . S
C373 N376 1.377 . S
C373 H393 0.930 . S
C374 N372 1.375 . S
C374 C373 1.338 . S
C374 H378 0.931 . S
C375 N372 1.313 1_545 S
C375 N376 1.344 1_545 S
C375 H379 0.930 . S
N376 C373 1.377 . S
N376 C375 1.344 1_565 S
O377 Co369 2.055 1_545 S
O377 C381 1.253 . S
H378 C374 0.931 . S
H379 C375 0.930 . S
O380 Co369 2.039 . S
O380 C370 1.265 . S
C381 O377 1.253 . S
C381 O382 1.227 . S
O382 C381 1.227 . S
N383 Co369 2.140 . S
N383 C386 1.346 . S
N383 C387 1.345 . S
C384 C385 1.387 . S
C384 C388 1.391 . S
C385 C384 1.387 . S
C385 C386 1.369 . S
C385 H394 0.929 . S
C386 N383 1.346 . S
C386 C385 1.369 . S
C386 H389 0.928 . S
C387 N383 1.345 . S
C387 C388 1.371 . S
C387 H390 0.931 . S
C388 C384 1.391 . S
C388 C387 1.371 . S
C388 H395 0.930 . S
H389 C386 0.928 . S
H390 C387 0.931 . S
H391 C367 0.930 . S
H392 C364 0.930 . S
H393 C373 0.930 . S
H394 C385 0.929 . S
H395 C388 0.930 . S
C396 C397 1.351 . S
C396 N399 1.368 1_565 S
C396 H401 0.931 . S
C397 C396 1.351 . S
C397 N398 1.373 1_565 S
C397 H425 0.930 . S
N398 C397 1.373 1_545 S
N398 C400 1.340 . S
N399 C396 1.368 1_545 S
N399 C400 1.321 . S
N399 Co402 2.135 . S
C400 N398 1.340 . S
C400 N399 1.321 . S
C400 H424 0.930 . S
H401 C396 0.931 . S
Co402 N399 2.135 . S
Co402 N405 2.121 . S
Co402 O410 2.055 1_545 S
Co402 O413 2.039 . S
Co402 N416 2.140 . S
C403 O404 1.227 . S
C403 O413 1.265 . S
O404 C403 1.227 . S
N405 Co402 2.121 . S
N405 C407 1.375 . S
N405 C408 1.313 1_545 S
C406 C407 1.338 . S
C406 N409 1.377 . S
C406 H426 0.930 . S
C407 N405 1.375 . S
C407 C406 1.338 . S
C407 H411 0.931 . S
C408 N405 1.313 1_565 S
C408 N409 1.344 1_565 S
C408 H412 0.930 . S
N409 C406 1.377 . S
N409 C408 1.344 1_545 S
O410 Co402 2.055 1_565 S
O410 C414 1.253 . S
H411 C407 0.931 . S
H412 C408 0.930 . S
O413 Co402 2.039 . S
O413 C403 1.265 . S
C414 O410 1.253 . S
C414 O415 1.227 . S
O415 C414 1.227 . S
N416 Co402 2.140 . S
N416 C419 1.346 . S
N416 C420 1.345 . S
C417 C418 1.387 . S
C417 C421 1.391 . S
C418 C417 1.387 . S
C418 C419 1.369 . S
C418 H427 0.929 . S
C419 N416 1.346 . S
C419 C418 1.369 . S
C419 H422 0.928 . S
C420 N416 1.345 . S
C420 C421 1.371 . S
C420 H423 0.931 . S
C421 C417 1.391 . S
C421 C420 1.371 . S
C421 H428 0.930 . S
H422 C419 0.928 . S
H423 C420 0.931 . S
H424 C400 0.930 . S
H425 C397 0.930 . S
H426 C406 0.930 . S
H427 C418 0.929 . S
H428 C421 0.930 . S
C429 C430 1.351 . S
C429 N432 1.368 . S
C429 H434 0.931 . S
C430 C429 1.351 . S
C430 N431 1.373 . S
C430 H458 0.930 . S
N431 C430 1.373 . S
N431 C433 1.340 . S
N432 C429 1.368 . S
N432 C433 1.321 . S
N432 Co435 2.135 . S
C433 N431 1.340 . S
C433 N432 1.321 . S
C433 H457 0.930 . S
H434 C429 0.931 . S
Co435 N432 2.135 . S
Co435 N438 2.121 . S
Co435 O443 2.055 . S
Co435 O446 2.039 . S
Co435 N449 2.140 . S
C436 O437 1.227 . S
C436 O446 1.265 . S
O437 C436 1.227 . S
N438 Co435 2.121 . S
N438 C440 1.375 . S
N438 C441 1.313 . S
C439 C440 1.338 . S
C439 N442 1.377 . S
C439 H459 0.930 . S
C440 N438 1.375 . S
C440 C439 1.338 . S
C440 H444 0.931 . S
C441 N438 1.313 . S
C441 N442 1.344 . S
C441 H445 0.930 . S
N442 C439 1.377 . S
N442 C441 1.344 . S
O443 Co435 2.055 . S
O443 C447 1.253 . S
H444 C440 0.931 . S
H445 C441 0.930 . S
O446 Co435 2.039 . S
O446 C436 1.265 . S
C447 O443 1.253 . S
C447 O448 1.227 . S
O448 C447 1.227 . S
N449 Co435 2.140 . S
N449 C452 1.346 . S
N449 C453 1.345 . S
C450 C451 1.387 . S
C450 C454 1.391 . S
C451 C450 1.387 . S
C451 C452 1.369 . S
C451 H460 0.929 . S
C452 N449 1.346 . S
C452 C451 1.369 . S
C452 H455 0.928 . S
C453 N449 1.345 . S
C453 C454 1.371 . S
C453 H456 0.931 . S
C454 C450 1.391 . S
C454 C453 1.371 . S
C454 H461 0.930 . S
H455 C452 0.928 . S
H456 C453 0.931 . S
H457 C433 0.930 . S
H458 C430 0.930 . S
H459 C439 0.930 . S
H460 C451 0.929 . S
H461 C454 0.930 . S
C462 C463 1.351 . S
C462 N465 1.368 . S
C462 H467 0.931 . S
C463 C462 1.351 . S
C463 N464 1.373 . S
C463 H491 0.930 . S
N464 C463 1.373 . S
N464 C466 1.340 . S
N465 C462 1.368 . S
N465 C466 1.321 . S
N465 Co468 2.135 . S
C466 N464 1.340 . S
C466 N465 1.321 . S
C466 H490 0.930 . S
H467 C462 0.931 . S
Co468 N465 2.135 . S
Co468 N471 2.121 . S
Co468 O476 2.055 . S
Co468 O479 2.039 . S
Co468 N482 2.140 . S
C469 O470 1.227 . S
C469 O479 1.265 . S
O470 C469 1.227 . S
N471 Co468 2.121 . S
N471 C473 1.375 . S
N471 C474 1.313 . S
C472 C473 1.338 . S
C472 N475 1.377 . S
C472 H492 0.930 . S
C473 N471 1.375 . S
C473 C472 1.338 . S
C473 H477 0.931 . S
C474 N471 1.313 . S
C474 N475 1.344 . S
C474 H478 0.930 . S
N475 C472 1.377 . S
N475 C474 1.344 . S
O476 Co468 2.055 . S
O476 C480 1.253 . S
H477 C473 0.931 . S
H478 C474 0.930 . S
O479 Co468 2.039 . S
O479 C469 1.265 . S
C480 O476 1.253 . S
C480 O481 1.227 . S
O481 C480 1.227 . S
N482 Co468 2.140 . S
N482 C485 1.346 . S
N482 C486 1.345 . S
C483 C484 1.387 . S
C483 C487 1.391 . S
C484 C483 1.387 . S
C484 C485 1.369 . S
C484 H493 0.929 . S
C485 N482 1.346 . S
C485 C484 1.369 . S
C485 H488 0.928 . S
C486 N482 1.345 . S
C486 C487 1.371 . S
C486 H489 0.931 . S
C487 C483 1.391 . S
C487 C486 1.371 . S
C487 H494 0.930 . S
H488 C485 0.928 . S
H489 C486 0.931 . S
H490 C466 0.930 . S
H491 C463 0.930 . S
H492 C472 0.930 . S
H493 C484 0.929 . S
H494 C487 0.930 . S
C495 C496 1.351 . S
C495 N498 1.368 1_565 S
C495 H500 0.931 . S
C496 C495 1.351 . S
C496 N497 1.373 1_565 S
C496 H524 0.930 . S
N497 C496 1.373 1_545 S
N497 C499 1.340 . S
N498 C495 1.368 1_545 S
N498 C499 1.321 . S
N498 Co501 2.135 . S
C499 N497 1.340 . S
C499 N498 1.321 . S
C499 H523 0.930 . S
H500 C495 0.931 . S
Co501 N498 2.135 . S
Co501 N504 2.121 . S
Co501 O509 2.055 1_545 S
Co501 O512 2.039 . S
Co501 N515 2.140 . S
C502 O503 1.227 . S
C502 O512 1.265 . S
O503 C502 1.227 . S
N504 Co501 2.121 . S
N504 C506 1.375 . S
N504 C507 1.313 1_545 S
C505 C506 1.338 . S
C505 N508 1.377 . S
C505 H525 0.930 . S
C506 N504 1.375 . S
C506 C505 1.338 . S
C506 H510 0.931 . S
C507 N504 1.313 1_565 S
C507 N508 1.344 1_565 S
C507 H511 0.930 . S
N508 C505 1.377 . S
N508 C507 1.344 1_545 S
O509 Co501 2.055 1_565 S
O509 C513 1.253 . S
H510 C506 0.931 . S
H511 C507 0.930 . S
O512 Co501 2.039 . S
O512 C502 1.265 . S
C513 O509 1.253 . S
C513 O514 1.227 . S
O514 C513 1.227 . S
N515 Co501 2.140 . S
N515 C518 1.346 . S
N515 C519 1.345 . S
C516 C517 1.387 . S
C516 C520 1.391 . S
C517 C516 1.387 . S
C517 C518 1.369 . S
C517 H526 0.929 . S
C518 N515 1.346 . S
C518 C517 1.369 . S
C518 H521 0.928 . S
C519 N515 1.345 . S
C519 C520 1.371 . S
C519 H522 0.931 . S
C520 C516 1.391 . S
C520 C519 1.371 . S
C520 H527 0.930 . S
H521 C518 0.928 . S
H522 C519 0.931 . S
H523 C499 0.930 . S
H524 C496 0.930 . S
H525 C505 0.930 . S
H526 C517 0.929 . S
H527 C520 0.930 . S
C528 C529 1.351 . S
C528 N531 1.368 . S
C528 H533 0.931 . S
C529 C528 1.351 . S
C529 N530 1.373 . S
C529 H557 0.930 . S
N530 C529 1.373 . S
N530 C532 1.340 . S
N531 C528 1.368 . S
N531 C532 1.321 . S
N531 Co534 2.135 . S
C532 N530 1.340 . S
C532 N531 1.321 . S
C532 H556 0.930 . S
H533 C528 0.931 . S
Co534 N531 2.135 . S
Co534 N537 2.121 . S
Co534 O542 2.055 . S
Co534 O545 2.039 . S
Co534 N548 2.140 . S
C535 O536 1.227 . S
C535 O545 1.265 . S
O536 C535 1.227 . S
N537 Co534 2.121 . S
N537 C539 1.375 . S
N537 C540 1.313 . S
C538 C539 1.338 . S
C538 N541 1.377 . S
C538 H558 0.930 . S
C539 N537 1.375 . S
C539 C538 1.338 . S
C539 H543 0.931 . S
C540 N537 1.313 . S
C540 N541 1.344 . S
C540 H544 0.930 . S
N541 C538 1.377 . S
N541 C540 1.344 . S
O542 Co534 2.055 . S
O542 C546 1.253 . S
H543 C539 0.931 . S
H544 C540 0.930 . S
O545 Co534 2.039 . S
O545 C535 1.265 . S
C546 O542 1.253 . S
C546 O547 1.227 . S
O547 C546 1.227 . S
N548 Co534 2.140 . S
N548 C551 1.346 . S
N548 C552 1.345 . S
C549 C550 1.387 . S
C549 C553 1.391 . S
C550 C549 1.387 . S
C550 C551 1.369 . S
C550 H559 0.929 . S
C551 N548 1.346 . S
C551 C550 1.369 . S
C551 H554 0.928 . S
C552 N548 1.345 . S
C552 C553 1.371 . S
C552 H555 0.931 . S
C553 C549 1.391 . S
C553 C552 1.371 . S
C553 H560 0.930 . S
H554 C551 0.928 . S
H555 C552 0.931 . S
H556 C532 0.930 . S
H557 C529 0.930 . S
H558 C538 0.930 . S
H559 C550 0.929 . S
H560 C553 0.930 . S
C561 C562 1.351 . S
C561 N564 1.368 . S
C561 H566 0.931 . S
C562 C561 1.351 . S
C562 N563 1.373 . S
C562 H590 0.930 . S
N563 C562 1.373 . S
N563 C565 1.340 . S
N564 C561 1.368 . S
N564 C565 1.321 . S
N564 Co567 2.135 . S
C565 N563 1.340 . S
C565 N564 1.321 . S
C565 H589 0.930 . S
H566 C561 0.931 . S
Co567 N564 2.135 . S
Co567 N570 2.121 . S
Co567 O575 2.055 . S
Co567 O578 2.039 . S
Co567 N581 2.140 . S
C568 O569 1.227 . S
C568 O578 1.265 . S
O569 C568 1.227 . S
N570 Co567 2.121 . S
N570 C572 1.375 . S
N570 C573 1.313 . S
C571 C572 1.338 . S
C571 N574 1.377 . S
C571 H591 0.930 . S
C572 N570 1.375 . S
C572 C571 1.338 . S
C572 H576 0.931 . S
C573 N570 1.313 . S
C573 N574 1.344 . S
C573 H577 0.930 . S
N574 C571 1.377 . S
N574 C573 1.344 . S
O575 Co567 2.055 . S
O575 C579 1.253 . S
H576 C572 0.931 . S
H577 C573 0.930 . S
O578 Co567 2.039 . S
O578 C568 1.265 . S
C579 O575 1.253 . S
C579 O580 1.227 . S
O580 C579 1.227 . S
N581 Co567 2.140 . S
N581 C584 1.346 . S
N581 C585 1.345 . S
C582 C583 1.387 . S
C582 C586 1.391 . S
C583 C582 1.387 . S
C583 C584 1.369 . S
C583 H592 0.929 . S
C584 N581 1.346 . S
C584 C583 1.369 . S
C584 H587 0.928 . S
C585 N581 1.345 . S
C585 C586 1.371 . S
C585 H588 0.931 . S
C586 C582 1.391 . S
C586 C585 1.371 . S
C586 H593 0.930 . S
H587 C584 0.928 . S
H588 C585 0.931 . S
H589 C565 0.930 . S
H590 C562 0.930 . S
H591 C571 0.930 . S
H592 C583 0.929 . S
H593 C586 0.930 . S
C594 C595 1.351 . S
C594 N597 1.368 . S
C594 H599 0.931 . S
C595 C594 1.351 . S
C595 N596 1.373 . S
C595 H623 0.930 . S
N596 C595 1.373 . S
N596 C598 1.340 . S
N597 C594 1.368 . S
N597 C598 1.321 . S
N597 Co600 2.135 . S
C598 N596 1.340 . S
C598 N597 1.321 . S
C598 H622 0.930 . S
H599 C594 0.931 . S
Co600 N597 2.135 . S
Co600 N603 2.121 . S
Co600 O608 2.055 . S
Co600 O611 2.039 . S
Co600 N614 2.140 . S
C601 O602 1.227 . S
C601 O611 1.265 . S
O602 C601 1.227 . S
N603 Co600 2.121 . S
N603 C605 1.375 . S
N603 C606 1.313 . S
C604 C605 1.338 . S
C604 N607 1.377 . S
C604 H624 0.930 . S
C605 N603 1.375 . S
C605 C604 1.338 . S
C605 H609 0.931 . S
C606 N603 1.313 . S
C606 N607 1.344 . S
C606 H610 0.930 . S
N607 C604 1.377 . S
N607 C606 1.344 . S
O608 Co600 2.055 . S
O608 C612 1.253 . S
H609 C605 0.931 . S
H610 C606 0.930 . S
O611 Co600 2.039 . S
O611 C601 1.265 . S
C612 O608 1.253 . S
C612 O613 1.227 . S
O613 C612 1.227 . S
N614 Co600 2.140 . S
N614 C617 1.346 . S
N614 C618 1.345 . S
C615 C616 1.387 . S
C615 C619 1.391 . S
C616 C615 1.387 . S
C616 C617 1.369 . S
C616 H625 0.929 . S
C617 N614 1.346 . S
C617 C616 1.369 . S
C617 H620 0.928 . S
C618 N614 1.345 . S
C618 C619 1.371 . S
C618 H621 0.931 . S
C619 C615 1.391 . S
C619 C618 1.371 . S
C619 H626 0.930 . S
H620 C617 0.928 . S
H621 C618 0.931 . S
H622 C598 0.930 . S
H623 C595 0.930 . S
H624 C604 0.930 . S
H625 C616 0.929 . S
H626 C619 0.930 . S
C627 C628 1.351 . S
C627 N630 1.368 . S
C627 H632 0.931 . S
C628 C627 1.351 . S
C628 N629 1.373 . S
C628 H656 0.930 . S
N629 C628 1.373 . S
N629 C631 1.340 . S
N630 C627 1.368 . S
N630 C631 1.321 . S
N630 Co633 2.135 . S
C631 N629 1.340 . S
C631 N630 1.321 . S
C631 H655 0.930 . S
H632 C627 0.931 . S
Co633 N630 2.135 . S
Co633 N636 2.121 . S
Co633 O641 2.055 . S
Co633 O644 2.039 . S
Co633 N647 2.140 . S
C634 O635 1.227 . S
C634 O644 1.265 . S
O635 C634 1.227 . S
N636 Co633 2.121 . S
N636 C638 1.375 . S
N636 C639 1.313 . S
C637 C638 1.338 . S
C637 N640 1.377 . S
C637 H657 0.930 . S
C638 N636 1.375 . S
C638 C637 1.338 . S
C638 H642 0.931 . S
C639 N636 1.313 . S
C639 N640 1.344 . S
C639 H643 0.930 . S
N640 C637 1.377 . S
N640 C639 1.344 . S
O641 Co633 2.055 . S
O641 C645 1.253 . S
H642 C638 0.931 . S
H643 C639 0.930 . S
O644 Co633 2.039 . S
O644 C634 1.265 . S
C645 O641 1.253 . S
C645 O646 1.227 . S
O646 C645 1.227 . S
N647 Co633 2.140 . S
N647 C650 1.346 . S
N647 C651 1.345 . S
C648 C649 1.387 . S
C648 C652 1.391 . S
C649 C648 1.387 . S
C649 C650 1.369 . S
C649 H658 0.929 . S
C650 N647 1.346 . S
C650 C649 1.369 . S
C650 H653 0.928 . S
C651 N647 1.345 . S
C651 C652 1.371 . S
C651 H654 0.931 . S
C652 C648 1.391 . S
C652 C651 1.371 . S
C652 H659 0.930 . S
H653 C650 0.928 . S
H654 C651 0.931 . S
H655 C631 0.930 . S
H656 C628 0.930 . S
H657 C637 0.930 . S
H658 C649 0.929 . S
H659 C652 0.930 . S
C660 C661 1.351 . S
C660 N663 1.368 . S
C660 H665 0.931 . S
C661 C660 1.351 . S
C661 N662 1.373 . S
C661 H689 0.930 . S
N662 C661 1.373 . S
N662 C664 1.340 . S
N663 C660 1.368 . S
N663 C664 1.321 . S
N663 Co666 2.135 . S
C664 N662 1.340 . S
C664 N663 1.321 . S
C664 H688 0.930 . S
H665 C660 0.931 . S
Co666 N663 2.135 . S
Co666 N669 2.121 . S
Co666 O674 2.055 . S
Co666 O677 2.039 . S
Co666 N680 2.140 . S
C667 O668 1.227 . S
C667 O677 1.265 . S
O668 C667 1.227 . S
N669 Co666 2.121 . S
N669 C671 1.375 . S
N669 C672 1.313 . S
C670 C671 1.338 . S
C670 N673 1.377 . S
C670 H690 0.930 . S
C671 N669 1.375 . S
C671 C670 1.338 . S
C671 H675 0.931 . S
C672 N669 1.313 . S
C672 N673 1.344 . S
C672 H676 0.930 . S
N673 C670 1.377 . S
N673 C672 1.344 . S
O674 Co666 2.055 . S
O674 C678 1.253 . S
H675 C671 0.931 . S
H676 C672 0.930 . S
O677 Co666 2.039 . S
O677 C667 1.265 . S
C678 O674 1.253 . S
C678 O679 1.227 . S
O679 C678 1.227 . S
N680 Co666 2.140 . S
N680 C683 1.346 . S
N680 C684 1.345 . S
C681 C682 1.387 . S
C681 C685 1.391 . S
C682 C681 1.387 . S
C682 C683 1.369 . S
C682 H691 0.929 . S
C683 N680 1.346 . S
C683 C682 1.369 . S
C683 H686 0.928 . S
C684 N680 1.345 . S
C684 C685 1.371 . S
C684 H687 0.931 . S
C685 C681 1.391 . S
C685 C684 1.371 . S
C685 H692 0.930 . S
H686 C683 0.928 . S
H687 C684 0.931 . S
H688 C664 0.930 . S
H689 C661 0.930 . S
H690 C670 0.930 . S
H691 C682 0.929 . S
H692 C685 0.930 . S
C693 C694 1.351 . S
C693 N696 1.368 . S
C693 H698 0.931 . S
C694 C693 1.351 . S
C694 N695 1.373 . S
C694 H722 0.930 . S
N695 C694 1.373 . S
N695 C697 1.340 . S
N696 C693 1.368 . S
N696 C697 1.321 . S
N696 Co699 2.135 . S
C697 N695 1.340 . S
C697 N696 1.321 . S
C697 H721 0.930 . S
H698 C693 0.931 . S
Co699 N696 2.135 . S
Co699 N702 2.121 . S
Co699 O707 2.055 . S
Co699 O710 2.039 . S
Co699 N713 2.140 . S
C700 O701 1.227 . S
C700 O710 1.265 . S
O701 C700 1.227 . S
N702 Co699 2.121 . S
N702 C704 1.375 . S
N702 C705 1.313 . S
C703 C704 1.338 . S
C703 N706 1.377 . S
C703 H723 0.930 . S
C704 N702 1.375 . S
C704 C703 1.338 . S
C704 H708 0.931 . S
C705 N702 1.313 . S
C705 N706 1.344 . S
C705 H709 0.930 . S
N706 C703 1.377 . S
N706 C705 1.344 . S
O707 Co699 2.055 . S
O707 C711 1.253 . S
H708 C704 0.931 . S
H709 C705 0.930 . S
O710 Co699 2.039 . S
O710 C700 1.265 . S
C711 O707 1.253 . S
C711 O712 1.227 . S
O712 C711 1.227 . S
N713 Co699 2.140 . S
N713 C716 1.346 . S
N713 C717 1.345 . S
C714 C715 1.387 . S
C714 C718 1.391 . S
C715 C714 1.387 . S
C715 C716 1.369 . S
C715 H724 0.929 . S
C716 N713 1.346 . S
C716 C715 1.369 . S
C716 H719 0.928 . S
C717 N713 1.345 . S
C717 C718 1.371 . S
C717 H720 0.931 . S
C718 C714 1.391 . S
C718 C717 1.371 . S
C718 H725 0.930 . S
H719 C716 0.928 . S
H720 C717 0.931 . S
H721 C697 0.930 . S
H722 C694 0.930 . S
H723 C703 0.930 . S
H724 C715 0.929 . S
H725 C718 0.930 . S
C726 C727 1.351 . S
C726 N729 1.368 . S
C726 H731 0.931 . S
C727 C726 1.351 . S
C727 N728 1.373 . S
C727 H755 0.930 . S
N728 C727 1.373 . S
N728 C730 1.340 . S
N729 C726 1.368 . S
N729 C730 1.321 . S
N729 Co732 2.135 . S
C730 N728 1.340 . S
C730 N729 1.321 . S
C730 H754 0.930 . S
H731 C726 0.931 . S
Co732 N729 2.135 . S
Co732 N735 2.121 . S
Co732 O740 2.055 . S
Co732 O743 2.039 . S
Co732 N746 2.140 . S
C733 O734 1.227 . S
C733 O743 1.265 . S
O734 C733 1.227 . S
N735 Co732 2.121 . S
N735 C737 1.375 . S
N735 C738 1.313 . S
C736 C737 1.338 . S
C736 N739 1.377 . S
C736 H756 0.930 . S
C737 N735 1.375 . S
C737 C736 1.338 . S
C737 H741 0.931 . S
C738 N735 1.313 . S
C738 N739 1.344 . S
C738 H742 0.930 . S
N739 C736 1.377 . S
N739 C738 1.344 . S
O740 Co732 2.055 . S
O740 C744 1.253 . S
H741 C737 0.931 . S
H742 C738 0.930 . S
O743 Co732 2.039 . S
O743 C733 1.265 . S
C744 O740 1.253 . S
C744 O745 1.227 . S
O745 C744 1.227 . S
N746 Co732 2.140 . S
N746 C749 1.346 . S
N746 C750 1.345 . S
C747 C748 1.387 . S
C747 C751 1.391 . S
C748 C747 1.387 . S
C748 C749 1.369 . S
C748 H757 0.929 . S
C749 N746 1.346 . S
C749 C748 1.369 . S
C749 H752 0.928 . S
C750 N746 1.345 . S
C750 C751 1.371 . S
C750 H753 0.931 . S
C751 C747 1.391 . S
C751 C750 1.371 . S
C751 H758 0.930 . S
H752 C749 0.928 . S
H753 C750 0.931 . S
H754 C730 0.930 . S
H755 C727 0.930 . S
H756 C736 0.930 . S
H757 C748 0.929 . S
H758 C751 0.930 . S
C759 C760 1.351 . S
C759 N762 1.368 . S
C759 H764 0.931 . S
C760 C759 1.351 . S
C760 N761 1.373 . S
C760 H788 0.930 . S
N761 C760 1.373 . S
N761 C763 1.340 . S
N762 C759 1.368 . S
N762 C763 1.321 . S
N762 Co765 2.135 . S
C763 N761 1.340 . S
C763 N762 1.321 . S
C763 H787 0.930 . S
H764 C759 0.931 . S
Co765 N762 2.135 . S
Co765 N768 2.121 . S
Co765 O773 2.055 . S
Co765 O776 2.039 . S
Co765 N779 2.140 . S
C766 O767 1.227 . S
C766 O776 1.265 . S
O767 C766 1.227 . S
N768 Co765 2.121 . S
N768 C770 1.375 . S
N768 C771 1.313 . S
C769 C770 1.338 . S
C769 N772 1.377 . S
C769 H789 0.930 . S
C770 N768 1.375 . S
C770 C769 1.338 . S
C770 H774 0.931 . S
C771 N768 1.313 . S
C771 N772 1.344 . S
C771 H775 0.930 . S
N772 C769 1.377 . S
N772 C771 1.344 . S
O773 Co765 2.055 . S
O773 C777 1.253 . S
H774 C770 0.931 . S
H775 C771 0.930 . S
O776 Co765 2.039 . S
O776 C766 1.265 . S
C777 O773 1.253 . S
C777 O778 1.227 . S
O778 C777 1.227 . S
N779 Co765 2.140 . S
N779 C782 1.346 . S
N779 C783 1.345 . S
C780 C781 1.387 . S
C780 C784 1.391 . S
C781 C780 1.387 . S
C781 C782 1.369 . S
C781 H790 0.929 . S
C782 N779 1.346 . S
C782 C781 1.369 . S
C782 H785 0.928 . S
C783 N779 1.345 . S
C783 C784 1.371 . S
C783 H786 0.931 . S
C784 C780 1.391 . S
C784 C783 1.371 . S
C784 H791 0.930 . S
H785 C782 0.928 . S
H786 C783 0.931 . S
H787 C763 0.930 . S
H788 C760 0.930 . S
H789 C769 0.930 . S
H790 C781 0.929 . S
H791 C784 0.930 . S
C792 C793 1.351 . S
C792 N795 1.368 1_545 S
C792 H797 0.931 . S
C793 C792 1.351 . S
C793 N794 1.373 1_545 S
C793 H821 0.930 . S
N794 C793 1.373 1_565 S
N794 C796 1.340 . S
N795 C792 1.368 1_565 S
N795 C796 1.321 . S
N795 Co798 2.135 . S
C796 N794 1.340 . S
C796 N795 1.321 . S
C796 H820 0.930 1_554 S
H797 C792 0.931 . S
Co798 N795 2.135 . S
Co798 N801 2.121 . S
Co798 O806 2.055 1_565 S
Co798 O809 2.039 1_554 S
Co798 N812 2.140 . S
C799 O800 1.227 . S
C799 O809 1.265 . S
O800 C799 1.227 . S
N801 Co798 2.121 . S
N801 C803 1.375 . S
N801 C804 1.313 1_565 S
C802 C803 1.338 . S
C802 N805 1.377 . S
C802 H822 0.930 1_554 S
C803 N801 1.375 . S
C803 C802 1.338 . S
C803 H807 0.931 1_554 S
C804 N801 1.313 1_545 S
C804 N805 1.344 1_545 S
C804 H808 0.930 . S
N805 C802 1.377 . S
N805 C804 1.344 1_565 S
O806 Co798 2.055 1_545 S
O806 C810 1.253 . S
H807 C803 0.931 1_556 S
H808 C804 0.930 . S
O809 Co798 2.039 1_556 S
O809 C799 1.265 . S
C810 O806 1.253 . S
C810 O811 1.227 . S
O811 C810 1.227 . S
N812 Co798 2.140 . S
N812 C815 1.346 . S
N812 C816 1.345 . S
C813 C814 1.387 . S
C813 C817 1.391 . S
C814 C813 1.387 . S
C814 C815 1.369 . S
C814 H823 0.929 . S
C815 N812 1.346 . S
C815 C814 1.369 . S
C815 H818 0.928 . S
C816 N812 1.345 . S
C816 C817 1.371 . S
C816 H819 0.931 . S
C817 C813 1.391 . S
C817 C816 1.371 . S
C817 H824 0.930 . S
H818 C815 0.928 . S
H819 C816 0.931 . S
H820 C796 0.930 1_556 S
H821 C793 0.930 . S
H822 C802 0.930 1_556 S
H823 C814 0.929 . S
H824 C817 0.930 . S
C825 C826 1.351 . S
C825 N828 1.368 . S
C825 H830 0.931 . S
C826 C825 1.351 . S
C826 N827 1.373 . S
C826 H854 0.930 . S
N827 C826 1.373 . S
N827 C829 1.340 . S
N828 C825 1.368 . S
N828 C829 1.321 . S
N828 Co831 2.135 . S
C829 N827 1.340 . S
C829 N828 1.321 . S
C829 H853 0.930 1_554 S
H830 C825 0.931 . S
Co831 N828 2.135 . S
Co831 N834 2.121 . S
Co831 O839 2.055 . S
Co831 O842 2.039 1_554 S
Co831 N845 2.140 . S
C832 O833 1.227 . S
C832 O842 1.265 . S
O833 C832 1.227 . S
N834 Co831 2.121 . S
N834 C836 1.375 . S
N834 C837 1.313 . S
C835 C836 1.338 . S
C835 N838 1.377 . S
C835 H855 0.930 1_554 S
C836 N834 1.375 . S
C836 C835 1.338 . S
C836 H840 0.931 1_554 S
C837 N834 1.313 . S
C837 N838 1.344 . S
C837 H841 0.930 . S
N838 C835 1.377 . S
N838 C837 1.344 . S
O839 Co831 2.055 . S
O839 C843 1.253 . S
H840 C836 0.931 1_556 S
H841 C837 0.930 . S
O842 Co831 2.039 1_556 S
O842 C832 1.265 . S
C843 O839 1.253 . S
C843 O844 1.227 . S
O844 C843 1.227 . S
N845 Co831 2.140 . S
N845 C848 1.346 . S
N845 C849 1.345 . S
C846 C847 1.387 . S
C846 C850 1.391 . S
C847 C846 1.387 . S
C847 C848 1.369 . S
C847 H856 0.929 . S
C848 N845 1.346 . S
C848 C847 1.369 . S
C848 H851 0.928 . S
C849 N845 1.345 . S
C849 C850 1.371 . S
C849 H852 0.931 . S
C850 C846 1.391 . S
C850 C849 1.371 . S
C850 H857 0.930 . S
H851 C848 0.928 . S
H852 C849 0.931 . S
H853 C829 0.930 1_556 S
H854 C826 0.930 . S
H855 C835 0.930 1_556 S
H856 C847 0.929 . S
H857 C850 0.930 . S
C858 C859 1.351 . S
C858 N861 1.368 . S
C858 H863 0.931 . S
C859 C858 1.351 . S
C859 N860 1.373 . S
C859 H887 0.930 . S
N860 C859 1.373 . S
N860 C862 1.340 . S
N861 C858 1.368 . S
N861 C862 1.321 . S
N861 Co864 2.135 . S
C862 N860 1.340 . S
C862 N861 1.321 . S
C862 H886 0.930 . S
H863 C858 0.931 . S
Co864 N861 2.135 . S
Co864 N867 2.121 . S
Co864 O872 2.055 . S
Co864 O875 2.039 . S
Co864 N878 2.140 . S
C865 O866 1.227 . S
C865 O875 1.265 . S
O866 C865 1.227 . S
N867 Co864 2.121 . S
N867 C869 1.375 . S
N867 C870 1.313 . S
C868 C869 1.338 . S
C868 N871 1.377 . S
C868 H888 0.930 . S
C869 N867 1.375 . S
C869 C868 1.338 . S
C869 H873 0.931 . S
C870 N867 1.313 . S
C870 N871 1.344 . S
C870 H874 0.930 . S
N871 C868 1.377 . S
N871 C870 1.344 . S
O872 Co864 2.055 . S
O872 C876 1.253 . S
H873 C869 0.931 . S
H874 C870 0.930 . S
O875 Co864 2.039 . S
O875 C865 1.265 . S
C876 O872 1.253 . S
C876 O877 1.227 . S
O877 C876 1.227 . S
N878 Co864 2.140 . S
N878 C881 1.346 . S
N878 C882 1.345 . S
C879 C880 1.387 . S
C879 C883 1.391 . S
C880 C879 1.387 . S
C880 C881 1.369 1_556 S
C880 H889 0.929 . S
C881 N878 1.346 . S
C881 C880 1.369 1_554 S
C881 H884 0.928 . S
C882 N878 1.345 . S
C882 C883 1.371 1_554 S
C882 H885 0.931 . S
C883 C879 1.391 . S
C883 C882 1.371 1_556 S
C883 H890 0.930 . S
H884 C881 0.928 . S
H885 C882 0.931 . S
H886 C862 0.930 . S
H887 C859 0.930 . S
H888 C868 0.930 . S
H889 C880 0.929 . S
H890 C883 0.930 . S
C891 C892 1.351 . S
C891 N894 1.368 1_545 S
C891 H896 0.931 . S
C892 C891 1.351 . S
C892 N893 1.373 1_545 S
C892 H920 0.930 . S
N893 C892 1.373 1_565 S
N893 C895 1.340 . S
N894 C891 1.368 1_565 S
N894 C895 1.321 . S
N894 Co897 2.135 . S
C895 N893 1.340 . S
C895 N894 1.321 . S
C895 H919 0.930 . S
H896 C891 0.931 . S
Co897 N894 2.135 . S
Co897 N900 2.121 . S
Co897 O905 2.055 1_565 S
Co897 O908 2.039 . S
Co897 N911 2.140 . S
C898 O899 1.227 . S
C898 O908 1.265 . S
O899 C898 1.227 . S
N900 Co897 2.121 . S
N900 C902 1.375 . S
N900 C903 1.313 1_565 S
C901 C902 1.338 . S
C901 N904 1.377 . S
C901 H921 0.930 . S
C902 N900 1.375 . S
C902 C901 1.338 . S
C902 H906 0.931 . S
C903 N900 1.313 1_545 S
C903 N904 1.344 1_545 S
C903 H907 0.930 . S
N904 C901 1.377 . S
N904 C903 1.344 1_565 S
O905 Co897 2.055 1_545 S
O905 C909 1.253 . S
H906 C902 0.931 . S
H907 C903 0.930 . S
O908 Co897 2.039 . S
O908 C898 1.265 . S
C909 O905 1.253 . S
C909 O910 1.227 . S
O910 C909 1.227 . S
N911 Co897 2.140 . S
N911 C914 1.346 . S
N911 C915 1.345 . S
C912 C913 1.387 . S
C912 C916 1.391 . S
C913 C912 1.387 . S
C913 C914 1.369 1_556 S
C913 H922 0.929 . S
C914 N911 1.346 . S
C914 C913 1.369 1_554 S
C914 H917 0.928 . S
C915 N911 1.345 . S
C915 C916 1.371 1_554 S
C915 H918 0.931 . S
C916 C912 1.391 . S
C916 C915 1.371 1_556 S
C916 H923 0.930 . S
H917 C914 0.928 . S
H918 C915 0.931 . S
H919 C895 0.930 . S
H920 C892 0.930 . S
H921 C901 0.930 . S
H922 C913 0.929 . S
H923 C916 0.930 . S
C924 C925 1.351 . S
C924 N927 1.368 1_565 S
C924 H929 0.931 . S
C925 C924 1.351 . S
C925 N926 1.373 1_565 S
C925 H953 0.930 . S
N926 C925 1.373 1_545 S
N926 C928 1.340 . S
N927 C924 1.368 1_545 S
N927 C928 1.321 . S
N927 Co930 2.135 . S
C928 N926 1.340 . S
C928 N927 1.321 . S
C928 H952 0.930 1_556 S
H929 C924 0.931 . S
Co930 N927 2.135 . S
Co930 N933 2.121 . S
Co930 O938 2.055 1_545 S
Co930 O941 2.039 1_556 S
Co930 N944 2.140 . S
C931 O932 1.227 . S
C931 O941 1.265 . S
O932 C931 1.227 . S
N933 Co930 2.121 . S
N933 C935 1.375 . S
N933 C936 1.313 1_545 S
C934 C935 1.338 . S
C934 N937 1.377 . S
C934 H954 0.930 1_556 S
C935 N933 1.375 . S
C935 C934 1.338 . S
C935 H939 0.931 1_556 S
C936 N933 1.313 1_565 S
C936 N937 1.344 1_565 S
C936 H940 0.930 . S
N937 C934 1.377 . S
N937 C936 1.344 1_545 S
O938 Co930 2.055 1_565 S
O938 C942 1.253 . S
H939 C935 0.931 1_554 S
H940 C936 0.930 . S
O941 Co930 2.039 1_554 S
O941 C931 1.265 . S
C942 O938 1.253 . S
C942 O943 1.227 . S
O943 C942 1.227 . S
N944 Co930 2.140 . S
N944 C947 1.346 . S
N944 C948 1.345 . S
C945 C946 1.387 . S
C945 C949 1.391 . S
C946 C945 1.387 . S
C946 C947 1.369 . S
C946 H955 0.929 . S
C947 N944 1.346 . S
C947 C946 1.369 . S
C947 H950 0.928 . S
C948 N944 1.345 . S
C948 C949 1.371 . S
C948 H951 0.931 . S
C949 C945 1.391 . S
C949 C948 1.371 . S
C949 H956 0.930 . S
H950 C947 0.928 . S
H951 C948 0.931 . S
H952 C928 0.930 1_554 S
H953 C925 0.930 . S
H954 C934 0.930 1_554 S
H955 C946 0.929 . S
H956 C949 0.930 . S
C957 C958 1.351 . S
C957 N960 1.368 . S
C957 H962 0.931 . S
C958 C957 1.351 . S
C958 N959 1.373 . S
C958 H986 0.930 . S
N959 C958 1.373 . S
N959 C961 1.340 . S
N960 C957 1.368 . S
N960 C961 1.321 . S
N960 Co963 2.135 . S
C961 N959 1.340 . S
C961 N960 1.321 . S
C961 H985 0.930 1_556 S
H962 C957 0.931 . S
Co963 N960 2.135 . S
Co963 N966 2.121 . S
Co963 O971 2.055 . S
Co963 O974 2.039 1_556 S
Co963 N977 2.140 . S
C964 O965 1.227 . S
C964 O974 1.265 . S
O965 C964 1.227 . S
N966 Co963 2.121 . S
N966 C968 1.375 . S
N966 C969 1.313 . S
C967 C968 1.338 . S
C967 N970 1.377 . S
C967 H987 0.930 1_556 S
C968 N966 1.375 . S
C968 C967 1.338 . S
C968 H972 0.931 1_556 S
C969 N966 1.313 . S
C969 N970 1.344 . S
C969 H973 0.930 . S
N970 C967 1.377 . S
N970 C969 1.344 . S
O971 Co963 2.055 . S
O971 C975 1.253 . S
H972 C968 0.931 1_554 S
H973 C969 0.930 . S
O974 Co963 2.039 1_554 S
O974 C964 1.265 . S
C975 O971 1.253 . S
C975 O976 1.227 . S
O976 C975 1.227 . S
N977 Co963 2.140 . S
N977 C980 1.346 . S
N977 C981 1.345 . S
C978 C979 1.387 . S
C978 C982 1.391 . S
C979 C978 1.387 . S
C979 C980 1.369 . S
C979 H988 0.929 . S
C980 N977 1.346 . S
C980 C979 1.369 . S
C980 H983 0.928 . S
C981 N977 1.345 . S
C981 C982 1.371 . S
C981 H984 0.931 . S
C982 C978 1.391 . S
C982 C981 1.371 . S
C982 H989 0.930 . S
H983 C980 0.928 . S
H984 C981 0.931 . S
H985 C961 0.930 1_554 S
H986 C958 0.930 . S
H987 C967 0.930 1_554 S
H988 C979 0.929 . S
H989 C982 0.930 . S
C990 C991 1.351 . S
C990 N993 1.368 . S
C990 H995 0.931 . S
C991 C990 1.351 . S
C991 N992 1.373 . S
C991 H1019 0.930 . S
N992 C991 1.373 . S
N992 C994 1.340 . S
N993 C990 1.368 . S
N993 C994 1.321 . S
N993 Co996 2.135 . S
C994 N992 1.340 . S
C994 N993 1.321 . S
C994 H1018 0.930 . S
H995 C990 0.931 . S
Co996 N993 2.135 . S
Co996 N999 2.121 . S
Co996 O1004 2.055 . S
Co996 O1007 2.039 . S
Co996 N1010 2.140 . S
C997 O998 1.227 . S
C997 O1007 1.265 . S
O998 C997 1.227 . S
N999 Co996 2.121 . S
N999 C1001 1.375 . S
N999 C1002 1.313 . S
C1000 C1001 1.338 . S
C1000 N1003 1.377 . S
C1000 H1020 0.930 . S
C1001 N999 1.375 . S
C1001 C1000 1.338 . S
C1001 H1005 0.931 . S
C1002 N999 1.313 . S
C1002 N1003 1.344 . S
C1002 H1006 0.930 . S
N1003 C1000 1.377 . S
N1003 C1002 1.344 . S
O1004 Co996 2.055 . S
O1004 C1008 1.253 . S
H1005 C1001 0.931 . S
H1006 C1002 0.930 . S
O1007 Co996 2.039 . S
O1007 C997 1.265 . S
C1008 O1004 1.253 . S
C1008 O1009 1.227 . S
O1009 C1008 1.227 . S
N1010 Co996 2.140 . S
N1010 C1013 1.346 . S
N1010 C1014 1.345 . S
C1011 C1012 1.387 . S
C1011 C1015 1.391 . S
C1012 C1011 1.387 . S
C1012 C1013 1.369 1_554 S
C1012 H1021 0.929 . S
C1013 N1010 1.346 . S
C1013 C1012 1.369 1_556 S
C1013 H1016 0.928 . S
C1014 N1010 1.345 . S
C1014 C1015 1.371 1_556 S
C1014 H1017 0.931 . S
C1015 C1011 1.391 . S
C1015 C1014 1.371 1_554 S
C1015 H1022 0.930 . S
H1016 C1013 0.928 . S
H1017 C1014 0.931 . S
H1018 C994 0.930 . S
H1019 C991 0.930 . S
H1020 C1000 0.930 . S
H1021 C1012 0.929 . S
H1022 C1015 0.930 . S
C1023 C1024 1.351 . S
C1023 N1026 1.368 1_565 S
C1023 H1028 0.931 . S
C1024 C1023 1.351 . S
C1024 N1025 1.373 1_565 S
C1024 H1052 0.930 . S
N1025 C1024 1.373 1_545 S
N1025 C1027 1.340 . S
N1026 C1023 1.368 1_545 S
N1026 C1027 1.321 . S
N1026 Co1029 2.135 . S
C1027 N1025 1.340 . S
C1027 N1026 1.321 . S
C1027 H1051 0.930 . S
H1028 C1023 0.931 . S
Co1029 N1026 2.135 . S
Co1029 N1032 2.121 . S
Co1029 O1037 2.055 1_545 S
Co1029 O1040 2.039 . S
Co1029 N1043 2.140 . S
C1030 O1031 1.227 . S
C1030 O1040 1.265 . S
O1031 C1030 1.227 . S
N1032 Co1029 2.121 . S
N1032 C1034 1.375 . S
N1032 C1035 1.313 1_545 S
C1033 C1034 1.338 . S
C1033 N1036 1.377 . S
C1033 H1053 0.930 . S
C1034 N1032 1.375 . S
C1034 C1033 1.338 . S
C1034 H1038 0.931 . S
C1035 N1032 1.313 1_565 S
C1035 N1036 1.344 1_565 S
C1035 H1039 0.930 . S
N1036 C1033 1.377 . S
N1036 C1035 1.344 1_545 S
O1037 Co1029 2.055 1_565 S
O1037 C1041 1.253 . S
H1038 C1034 0.931 . S
H1039 C1035 0.930 . S
O1040 Co1029 2.039 . S
O1040 C1030 1.265 . S
C1041 O1037 1.253 . S
C1041 O1042 1.227 . S
O1042 C1041 1.227 . S
N1043 Co1029 2.140 . S
N1043 C1046 1.346 . S
N1043 C1047 1.345 . S
C1044 C1045 1.387 . S
C1044 C1048 1.391 . S
C1045 C1044 1.387 . S
C1045 C1046 1.369 1_554 S
C1045 H1054 0.929 . S
C1046 N1043 1.346 . S
C1046 C1045 1.369 1_556 S
C1046 H1049 0.928 . S
C1047 N1043 1.345 . S
C1047 C1048 1.371 1_556 S
C1047 H1050 0.931 . S
C1048 C1044 1.391 . S
C1048 C1047 1.371 1_554 S
C1048 H1055 0.930 . S
H1049 C1046 0.928 . S
H1050 C1047 0.931 . S
H1051 C1027 0.930 . S
H1052 C1024 0.930 . S
H1053 C1033 0.930 . S
H1054 C1045 0.929 . S
H1055 C1048 0.930 . S
C18 C84 1.949 . S
C117 C51 1.949 . S
C150 C216 1.949 . S
C249 C183 1.949 . S
C282 C348 1.949 . S
C381 C315 1.949 . S
C414 C480 1.949 . S
C513 C447 1.949 . S
C612 C546 1.949 . S
C645 C579 1.949 . S
C678 C744 1.949 . S
C711 C777 1.949 . S
C876 C810 1.949 . S
C909 C843 1.949 . S
C942 C1008 1.949 . S
C975 C1041 1.949 . S
N13 N145 1.398 1_454 S
N46 N970 1.398 1_554 S
N475 N79 1.398 1_655 S
N772 N112 1.398 . S
N178 N838 1.398 1_556 S
N343 N211 1.398 1_455 S
N244 N640 1.398 . S
N277 N409 1.398 1_465 S
N310 N706 1.398 . S
N1036 N376 1.398 1_545 S
N574 N442 1.398 . S
N508 N904 1.398 1_545 S
N541 N673 1.398 . S
N607 N1003 1.398 . S
N739 N871 1.398 . S
N937 N805 1.398 1_546 S
C21 C351 0.892 . S
C54 C384 0.892 . S
C87 C285 0.892 . S
C318 C120 0.892 . S
C153 C483 0.892 . S
C186 C516 0.892 . S
C219 C417 0.892 . S
C450 C252 0.892 . S
C879 C549 0.892 . S
C582 C912 0.892 . S
C615 C813 0.892 . S
C846 C648 0.892 . S
C681 C1011 0.892 . S
C1044 C714 0.892 . S
C945 C747 0.892 . S
C780 C978 0.892 . S
C337 C7 1.851 . S
C40 C370 1.851 . S
C271 C73 1.851 . S
C304 C106 1.851 . S
C139 C469 1.851 . S
C172 C502 1.851 . S
C403 C205 1.851 . S
C238 C436 1.851 . S
C535 C865 1.851 . S
C898 C568 1.851 . S
C799 C601 1.851 . S
C634 C832 1.851 . S
C667 C997 1.851 . S
C700 C1030 1.851 . S
C733 C931 1.851 . S
C766 C964 1.851 . S
N101 N2 1.653 . S
N68 N35 1.653 . S
N134 N233 1.653 . S
N200 N167 1.653 . S
N365 N266 1.653 . S
N332 N299 1.653 . S
N497 N398 1.653 . S
N431 N464 1.653 . S
N629 N530 1.653 . S
N596 N563 1.653 . S
N662 N761 1.653 . S
N728 N695 1.653 . S
N893 N794 1.653 . S
N860 N827 1.653 . S
N1025 N926 1.653 . S
N992 N959 1.653 . S
