# Generated by pormake.
# Topology fcj, (5)-cn, num edge types: 1
# Building blocks:
#     Node 0, Type 0, BuildingBlock: XOMCOT_clean_sbu_1, # of connection points: 5
#     Node 1, Type 0, BuildingBlock: XOMCOT_clean_sbu_1, # of connection points: 5
#     Node 2, Type 0, BuildingBlock: XOMCOT_clean_sbu_1, # of connection points: 5
#     Node 3, Type 0, BuildingBlock: XOMCOT_clean_sbu_1, # of connection points: 5
#     Node 4, Type 0, BuildingBlock: XOMCOT_clean_sbu_1, # of connection points: 5
#     Node 5, Type 0, BuildingBlock: XOMCOT_clean_sbu_1, # of connection points: 5
#     Node 6, Type 0, BuildingBlock: XOMCOT_clean_sbu_1, # of connection points: 5
#     Node 7, Type 0, BuildingBlock: XOMCOT_clean_sbu_1, # of connection points: 5
#     Node 8, Type 0, BuildingBlock: XOMCOT_clean_sbu_1, # of connection points: 5
#     Node 9, Type 0, BuildingBlock: XOMCOT_clean_sbu_1, # of connection points: 5
#     Node 10, Type 0, BuildingBlock: XOMCOT_clean_sbu_1, # of connection points: 5
#     Node 11, Type 0, BuildingBlock: XOMCOT_clean_sbu_1, # of connection points: 5
#     Node 12, Type 0, BuildingBlock: XOMCOT_clean_sbu_1, # of connection points: 5
#     Node 13, Type 0, BuildingBlock: XOMCOT_clean_sbu_1, # of connection points: 5
#     Node 14, Type 0, BuildingBlock: XOMCOT_clean_sbu_1, # of connection points: 5
#     Node 15, Type 0, BuildingBlock: XOMCOT_clean_sbu_1, # of connection points: 5
#     Node 16, Type 0, BuildingBlock: XOMCOT_clean_sbu_1, # of connection points: 5
#     Node 17, Type 0, BuildingBlock: XOMCOT_clean_sbu_1, # of connection points: 5
#     Node 18, Type 0, BuildingBlock: XOMCOT_clean_sbu_1, # of connection points: 5
#     Node 19, Type 0, BuildingBlock: XOMCOT_clean_sbu_1, # of connection points: 5
#     Node 20, Type 0, BuildingBlock: XOMCOT_clean_sbu_1, # of connection points: 5
#     Node 21, Type 0, BuildingBlock: XOMCOT_clean_sbu_1, # of connection points: 5
#     Node 22, Type 0, BuildingBlock: XOMCOT_clean_sbu_1, # of connection points: 5
#     Node 23, Type 0, BuildingBlock: XOMCOT_clean_sbu_1, # of connection points: 5
#     Edge 24, Type (0, 0), BuildingBlock: TEMPAE_clean_linker_10, # of connection points: 2
#     Edge 25, Type (0, 0), BuildingBlock: TEMPAE_clean_linker_10, # of connection points: 2
#     Edge 26, Type (0, 0), BuildingBlock: TEMPAE_clean_linker_10, # of connection points: 2
#     Edge 27, Type (0, 0), BuildingBlock: TEMPAE_clean_linker_10, # of connection points: 2
#     Edge 28, Type (0, 0), BuildingBlock: TEMPAE_clean_linker_10, # of connection points: 2
#     Edge 29, Type (0, 0), BuildingBlock: TEMPAE_clean_linker_10, # of connection points: 2
#     Edge 30, Type (0, 0), BuildingBlock: TEMPAE_clean_linker_10, # of connection points: 2
#     Edge 31, Type (0, 0), BuildingBlock: TEMPAE_clean_linker_10, # of connection points: 2
#     Edge 32, Type (0, 0), BuildingBlock: TEMPAE_clean_linker_10, # of connection points: 2
#     Edge 33, Type (0, 0), BuildingBlock: TEMPAE_clean_linker_10, # of connection points: 2
#     Edge 34, Type (0, 0), BuildingBlock: TEMPAE_clean_linker_10, # of connection points: 2
#     Edge 35, Type (0, 0), BuildingBlock: TEMPAE_clean_linker_10, # of connection points: 2
#     Edge 36, Type (0, 0), BuildingBlock: TEMPAE_clean_linker_10, # of connection points: 2
#     Edge 37, Type (0, 0), BuildingBlock: TEMPAE_clean_linker_10, # of connection points: 2
#     Edge 38, Type (0, 0), BuildingBlock: TEMPAE_clean_linker_10, # of connection points: 2
#     Edge 39, Type (0, 0), BuildingBlock: TEMPAE_clean_linker_10, # of connection points: 2
#     Edge 40, Type (0, 0), BuildingBlock: TEMPAE_clean_linker_10, # of connection points: 2
#     Edge 41, Type (0, 0), BuildingBlock: TEMPAE_clean_linker_10, # of connection points: 2
#     Edge 42, Type (0, 0), BuildingBlock: TEMPAE_clean_linker_10, # of connection points: 2
#     Edge 43, Type (0, 0), BuildingBlock: TEMPAE_clean_linker_10, # of connection points: 2
#     Edge 44, Type (0, 0), BuildingBlock: TEMPAE_clean_linker_10, # of connection points: 2
#     Edge 45, Type (0, 0), BuildingBlock: TEMPAE_clean_linker_10, # of connection points: 2
#     Edge 46, Type (0, 0), BuildingBlock: TEMPAE_clean_linker_10, # of connection points: 2
#     Edge 47, Type (0, 0), BuildingBlock: TEMPAE_clean_linker_10, # of connection points: 2
#     Edge 48, Type (0, 0), BuildingBlock: TEMPAE_clean_linker_10, # of connection points: 2
#     Edge 49, Type (0, 0), BuildingBlock: TEMPAE_clean_linker_10, # of connection points: 2
#     Edge 50, Type (0, 0), BuildingBlock: TEMPAE_clean_linker_10, # of connection points: 2
#     Edge 51, Type (0, 0), BuildingBlock: TEMPAE_clean_linker_10, # of connection points: 2
#     Edge 52, Type (0, 0), BuildingBlock: TEMPAE_clean_linker_10, # of connection points: 2
#     Edge 53, Type (0, 0), BuildingBlock: TEMPAE_clean_linker_10, # of connection points: 2
#     Edge 54, Type (0, 0), BuildingBlock: TEMPAE_clean_linker_10, # of connection points: 2
#     Edge 55, Type (0, 0), BuildingBlock: TEMPAE_clean_linker_10, # of connection points: 2
#     Edge 56, Type (0, 0), BuildingBlock: TEMPAE_clean_linker_10, # of connection points: 2
#     Edge 57, Type (0, 0), BuildingBlock: TEMPAE_clean_linker_10, # of connection points: 2
#     Edge 58, Type (0, 0), BuildingBlock: TEMPAE_clean_linker_10, # of connection points: 2
#     Edge 59, Type (0, 0), BuildingBlock: TEMPAE_clean_linker_10, # of connection points: 2
#     Edge 60, Type (0, 0), BuildingBlock: TEMPAE_clean_linker_10, # of connection points: 2
#     Edge 61, Type (0, 0), BuildingBlock: TEMPAE_clean_linker_10, # of connection points: 2
#     Edge 62, Type (0, 0), BuildingBlock: TEMPAE_clean_linker_10, # of connection points: 2
#     Edge 63, Type (0, 0), BuildingBlock: TEMPAE_clean_linker_10, # of connection points: 2
#     Edge 64, Type (0, 0), BuildingBlock: TEMPAE_clean_linker_10, # of connection points: 2
#     Edge 65, Type (0, 0), BuildingBlock: TEMPAE_clean_linker_10, # of connection points: 2
#     Edge 66, Type (0, 0), BuildingBlock: TEMPAE_clean_linker_10, # of connection points: 2
#     Edge 67, Type (0, 0), BuildingBlock: TEMPAE_clean_linker_10, # of connection points: 2
#     Edge 68, Type (0, 0), BuildingBlock: TEMPAE_clean_linker_10, # of connection points: 2
#     Edge 69, Type (0, 0), BuildingBlock: TEMPAE_clean_linker_10, # of connection points: 2
#     Edge 70, Type (0, 0), BuildingBlock: TEMPAE_clean_linker_10, # of connection points: 2
#     Edge 71, Type (0, 0), BuildingBlock: TEMPAE_clean_linker_10, # of connection points: 2
#     Edge 72, Type (0, 0), BuildingBlock: TEMPAE_clean_linker_10, # of connection points: 2
#     Edge 73, Type (0, 0), BuildingBlock: TEMPAE_clean_linker_10, # of connection points: 2
#     Edge 74, Type (0, 0), BuildingBlock: TEMPAE_clean_linker_10, # of connection points: 2
#     Edge 75, Type (0, 0), BuildingBlock: TEMPAE_clean_linker_10, # of connection points: 2
#     Edge 76, Type (0, 0), BuildingBlock: TEMPAE_clean_linker_10, # of connection points: 2
#     Edge 77, Type (0, 0), BuildingBlock: TEMPAE_clean_linker_10, # of connection points: 2
#     Edge 78, Type (0, 0), BuildingBlock: TEMPAE_clean_linker_10, # of connection points: 2
#     Edge 79, Type (0, 0), BuildingBlock: TEMPAE_clean_linker_10, # of connection points: 2
#     Edge 80, Type (0, 0), BuildingBlock: TEMPAE_clean_linker_10, # of connection points: 2
#     Edge 81, Type (0, 0), BuildingBlock: TEMPAE_clean_linker_10, # of connection points: 2
#     Edge 82, Type (0, 0), BuildingBlock: TEMPAE_clean_linker_10, # of connection points: 2
#     Edge 83, Type (0, 0), BuildingBlock: TEMPAE_clean_linker_10, # of connection points: 2
# Relax obj value: 0.372
# Max RMSD: 0.198
# Mean RMSD: 0.198
data_MOF--net-fcj--node1-XOMCOT_clean_sbu_1--edge1-TEMPAE_clean_linker_10
_symmetry_space_group_name_H-M    P1
_symmetry_Int_Tables_number       1
_symmetry_cell_setting            triclinic
loop_
_symmetry_equiv_pos_as_xyz
'x, y, z'
_cell_length_a     51.149891
_cell_length_b     51.151784
_cell_length_c     51.177239
_cell_angle_alpha  89.982181
_cell_angle_beta   90.026294
_cell_angle_gamma 90.050683
loop_
_atom_site_label
_atom_site_type_symbol
_atom_site_fract_x
_atom_site_fract_y
_atom_site_fract_z
_atom_type_partial_charge
C0 C 0.09023 0.19097 0.40959 0.0
C1 C 0.07135 0.20044 0.42615 0.0
N2 N 0.07148 0.22682 0.42499 0.0
N3 N 0.10242 0.21109 0.39783 0.0
C4 C 0.09127 0.23263 0.40832 0.0
H5 H 0.0938 0.17062 0.40515 0.0
Co6 Co 0.12522 0.20574 0.36966 0.0
C7 C 0.11426 0.26474 0.35187 0.0
O8 O 0.09317 0.2742 0.363 0.0
N9 N 0.14793 0.19981 0.34149 0.0
C10 C 0.1655 0.20113 0.30175 0.0
C11 C 0.14456 0.20856 0.31679 0.0
C12 C 0.1707 0.18643 0.34075 0.0
N13 N 0.18186 0.18717 0.31687 0.0
O14 O 0.15454 0.21557 0.39122 0.0
H15 H 0.12794 0.2198 0.31013 0.0
H16 H 0.17928 0.17669 0.35741 0.0
O17 O 0.12139 0.24129 0.35665 0.0
C18 C 0.16297 0.1959 0.40403 0.0
O19 O 0.15024 0.17367 0.40173 0.0
N20 N 0.09692 0.19434 0.34928 0.0
C21 C 0.05633 0.17306 0.31941 0.0
C22 C 0.0541 0.19814 0.33047 0.0
C23 C 0.07467 0.20847 0.34525 0.0
C24 C 0.09908 0.16963 0.33963 0.0
C25 C 0.07937 0.15887 0.3242 0.0
H26 H 0.07245 0.22756 0.35391 0.0
H27 H 0.11646 0.15828 0.34364 0.0
H28 H 0.09691 0.25215 0.40316 0.0
H29 H 0.05784 0.18849 0.43716 0.0
H30 H 0.16842 0.20553 0.28126 0.0
H31 H 0.03651 0.20965 0.32809 0.0
H32 H 0.08247 0.13967 0.3159 0.0
C33 C 0.55382 0.33636 0.16122 0.0
C34 C 0.54239 0.31801 0.17717 0.0
N35 N 0.51624 0.32056 0.17542 0.0
N36 N 0.53506 0.35038 0.14918 0.0
C37 C 0.51237 0.34086 0.15889 0.0
H38 H 0.57451 0.33825 0.15725 0.0
Co39 Co 0.54291 0.37372 0.12211 0.0
C40 C 0.48654 0.36035 0.10031 0.0
O41 O 0.47997 0.33737 0.10964 0.0
N42 N 0.551 0.39712 0.09493 0.0
C43 C 0.5525 0.41505 0.05538 0.0
C44 C 0.54456 0.39371 0.06956 0.0
C45 C 0.56308 0.42065 0.09558 0.0
N46 N 0.56405 0.43212 0.07179 0.0
O47 O 0.53148 0.40252 0.1433 0.0
H48 H 0.53454 0.37676 0.06182 0.0
H49 H 0.5705 0.42955 0.11319 0.0
O50 O 0.5086 0.37055 0.10598 0.0
C51 C 0.55076 0.41034 0.15705 0.0
O52 O 0.57265 0.39693 0.15589 0.0
N53 N 0.55625 0.3459 0.10218 0.0
C54 C 0.58046 0.30652 0.07322 0.0
C55 C 0.5546 0.30363 0.08192 0.0
C56 C 0.54293 0.32347 0.09657 0.0
C57 C 0.58173 0.34857 0.09487 0.0
C58 C 0.59411 0.32931 0.08009 0.0
H59 H 0.52354 0.32041 0.10397 0.0
H60 H 0.59249 0.36593 0.10035 0.0
H61 H 0.49333 0.34817 0.15359 0.0
H62 H 0.55253 0.30261 0.18756 0.0
H63 H 0.54997 0.41765 0.03455 0.0
H64 H 0.5436 0.286 0.07784 0.0
H65 H 0.61407 0.33248 0.07381 0.0
C66 C 0.40718 0.80017 0.92434 0.0
C67 C 0.42345 0.78392 0.93797 0.0
N68 N 0.4288 0.7628 0.92309 0.0
N69 N 0.40198 0.78966 0.90084 0.0
C70 C 0.41524 0.76677 0.90059 0.0
H71 H 0.4008 0.81929 0.9306 0.0
Co72 Co 0.38398 0.80937 0.87629 0.0
C73 C 0.38038 0.7783 0.82839 0.0
O74 O 0.38776 0.79923 0.81544 0.0
N75 N 0.36486 0.83056 0.85278 0.0
C76 C 0.34426 0.86548 0.83678 0.0
C77 C 0.36639 0.85674 0.84921 0.0
C78 C 0.34139 0.82402 0.84229 0.0
N79 N 0.32863 0.84486 0.83251 0.0
O80 O 0.3518 0.80148 0.89332 0.0
H81 H 0.38107 0.86948 0.85724 0.0
H82 H 0.33264 0.80483 0.84411 0.0
O83 O 0.37857 0.77888 0.85334 0.0
C84 C 0.34344 0.81853 0.90932 0.0
O85 O 0.35754 0.83946 0.91401 0.0
N86 N 0.41644 0.81811 0.86068 0.0
C87 C 0.4625 0.83615 0.83742 0.0
C88 C 0.45542 0.80966 0.83592 0.0
C89 C 0.43259 0.80095 0.84808 0.0
C90 C 0.42506 0.8428 0.86564 0.0
C91 C 0.44744 0.85257 0.85345 0.0
H92 H 0.42787 0.78043 0.84692 0.0
H93 H 0.41438 0.85512 0.879 0.0
H94 H 0.41579 0.75397 0.88382 0.0
H95 H 0.43199 0.78846 0.95675 0.0
H96 H 0.33919 0.88564 0.83284 0.0
H97 H 0.46727 0.79574 0.82528 0.0
H98 H 0.45234 0.87297 0.85614 0.0
C99 C 0.94773 0.66085 0.66833 0.0
C100 C 0.96128 0.67908 0.68263 0.0
N101 N 0.98533 0.68188 0.67217 0.0
N102 N 0.96303 0.65191 0.64893 0.0
C103 C 0.98586 0.665 0.65177 0.0
H104 H 0.92743 0.65564 0.67098 0.0
Co105 Co 0.95056 0.63029 0.62238 0.0
C106 C 0.00506 0.61707 0.60674 0.0
O107 O 0.00882 0.60162 0.6269 0.0
N108 N 0.93807 0.6086 0.59535 0.0
C109 C 0.93256 0.59229 0.55542 0.0
C110 C 0.94073 0.61357 0.56955 0.0
C111 C 0.92812 0.58407 0.59629 0.0
N112 N 0.92483 0.57359 0.57226 0.0
O113 O 0.95934 0.59997 0.6427 0.0
H114 H 0.94914 0.63118 0.56143 0.0
H115 H 0.92465 0.57343 0.61415 0.0
O116 O 0.9838 0.62983 0.60462 0.0
C117 C 0.94144 0.59299 0.65854 0.0
O118 O 0.91987 0.6069 0.65938 0.0
N119 N 0.94021 0.66001 0.60373 0.0
C120 C 0.92004 0.70291 0.57671 0.0
C121 C 0.94713 0.69999 0.5802 0.0
C122 C 0.95685 0.67842 0.59385 0.0
C123 C 0.91387 0.66288 0.60129 0.0
C124 C 0.90336 0.68402 0.58765 0.0
H125 H 0.97772 0.67664 0.59649 0.0
H126 H 0.90097 0.64833 0.60964 0.0
H127 H 0.0021 0.66306 0.63843 0.0
H128 H 0.95326 0.6906 0.69843 0.0
H129 H 0.93295 0.59057 0.53435 0.0
H130 H 0.96073 0.71433 0.5726 0.0
H131 H 0.88236 0.68521 0.58526 0.0
C132 C 0.58872 0.3084 0.58598 0.0
C133 C 0.56936 0.29883 0.5699 0.0
N134 N 0.56733 0.2728 0.5737 0.0
N135 N 0.59911 0.28862 0.5999 0.0
C136 C 0.58587 0.26722 0.59174 0.0
H137 H 0.59391 0.32875 0.5884 0.0
Co138 Co 0.62273 0.29345 0.62764 0.0
C139 C 0.61636 0.23353 0.64608 0.0
O140 O 0.60189 0.21751 0.63219 0.0
N141 N 0.64622 0.29877 0.65544 0.0
C142 C 0.66363 0.30011 0.69517 0.0
C143 C 0.64238 0.29237 0.68069 0.0
C144 C 0.66981 0.31071 0.65517 0.0
N145 N 0.6811 0.31171 0.67911 0.0
O146 O 0.65142 0.28438 0.60517 0.0
H147 H 0.62508 0.28279 0.68819 0.0
H148 H 0.67837 0.31876 0.63773 0.0
O149 O 0.61893 0.25731 0.63884 0.0
C150 C 0.65884 0.30442 0.59229 0.0
O151 O 0.64568 0.32626 0.59539 0.0
N152 N 0.59504 0.3044 0.6487 0.0
C153 C 0.55468 0.32713 0.67762 0.0
C154 C 0.55267 0.30122 0.66851 0.0
C155 C 0.57318 0.29013 0.65418 0.0
C156 C 0.59712 0.32966 0.65677 0.0
C157 C 0.57755 0.34118 0.67171 0.0
H158 H 0.57121 0.27038 0.64697 0.0
H159 H 0.6143 0.34092 0.65168 0.0
H160 H 0.58853 0.24819 0.6 0.0
H161 H 0.55714 0.31049 0.55719 0.0
H162 H 0.66559 0.29752 0.71603 0.0
H163 H 0.53526 0.28968 0.67194 0.0
H164 H 0.58056 0.36094 0.67864 0.0
C165 C 0.46562 0.85394 0.33059 0.0
C166 C 0.4809 0.83559 0.31862 0.0
N167 N 0.49312 0.82158 0.33717 0.0
N168 N 0.46816 0.85208 0.35678 0.0
C169 C 0.48539 0.83216 0.36021 0.0
H170 H 0.45226 0.86678 0.32057 0.0
Co171 Co 0.44548 0.8711 0.37865 0.0
C172 C 0.47096 0.88225 0.4287 0.0
O173 O 0.4484 0.87676 0.4397 0.0
N174 N 0.42153 0.89108 0.39904 0.0
C175 C 0.38749 0.90673 0.42132 0.0
C176 C 0.39758 0.88525 0.4087 0.0
C177 C 0.4251 0.91652 0.40572 0.0
N178 N 0.40482 0.92638 0.4193 0.0
O179 O 0.45404 0.90247 0.36002 0.0
H180 H 0.38749 0.86691 0.40662 0.0
H181 H 0.4425 0.9276 0.40101 0.0
O182 O 0.47383 0.87913 0.40396 0.0
C183 C 0.43666 0.91061 0.34419 0.0
O184 O 0.4153 0.89665 0.34098 0.0
N185 N 0.43614 0.83958 0.39589 0.0
C186 C 0.41534 0.79651 0.42215 0.0
C187 C 0.44056 0.80556 0.42789 0.0
C188 C 0.4508 0.8268 0.41422 0.0
C189 C 0.41317 0.82885 0.38764 0.0
C190 C 0.40206 0.80764 0.40089 0.0
H191 H 0.47037 0.83302 0.4189 0.0
H192 H 0.40255 0.83795 0.37178 0.0
H193 H 0.49091 0.82438 0.37903 0.0
H194 H 0.482 0.83207 0.29779 0.0
H195 H 0.36853 0.90803 0.43062 0.0
H196 H 0.45214 0.79661 0.4432 0.0
H197 H 0.38276 0.80093 0.39533 0.0
C198 C 0.91879 0.69218 0.09206 0.0
C199 C 0.93629 0.70489 0.07616 0.0
N200 N 0.93063 0.73062 0.07625 0.0
N201 N 0.90225 0.70972 0.10262 0.0
C202 C 0.90923 0.73281 0.09171 0.0
H203 H 0.91928 0.67167 0.09719 0.0
Co204 Co 0.87926 0.70055 0.12977 0.0
C205 C 0.89016 0.75747 0.15034 0.0
O206 O 0.91174 0.76481 0.1386 0.0
N207 N 0.85617 0.69121 0.157 0.0
C208 C 0.83975 0.68683 0.19707 0.0
C209 C 0.86079 0.69523 0.18271 0.0
C210 C 0.8319 0.68061 0.15627 0.0
N211 N 0.82158 0.67775 0.1804 0.0
O212 O 0.85005 0.71053 0.10862 0.0
H213 H 0.8783 0.70412 0.19059 0.0
H214 H 0.82189 0.675 0.13853 0.0
O215 O 0.88047 0.73487 0.14603 0.0
C216 C 0.84389 0.69185 0.09332 0.0
O217 O 0.85866 0.67083 0.09341 0.0
N218 N 0.9079 0.68877 0.14975 0.0
C219 C 0.94828 0.66778 0.17955 0.0
C220 C 0.95015 0.69324 0.16971 0.0
C221 C 0.92967 0.7034 0.1548 0.0
C222 C 0.90661 0.66338 0.15782 0.0
C223 C 0.92634 0.65266 0.17329 0.0
H224 H 0.93165 0.72274 0.1469 0.0
H225 H 0.88987 0.65152 0.15265 0.0
H226 H 0.89933 0.75102 0.09554 0.0
H227 H 0.95326 0.69608 0.06712 0.0
H228 H 0.83765 0.68794 0.21809 0.0
H229 H 0.96709 0.70528 0.17384 0.0
H230 H 0.92455 0.63271 0.18017 0.0
C231 C 0.05844 0.17327 0.83827 0.0
C232 C 0.04654 0.19057 0.82156 0.0
N233 N 0.02064 0.18565 0.82142 0.0
N234 N 0.04024 0.15756 0.849 0.0
C235 C 0.01751 0.16499 0.8377 0.0
H236 H 0.07891 0.17321 0.84358 0.0
Co237 Co 0.04799 0.13484 0.87657 0.0
C238 C 0.98959 0.14443 0.89495 0.0
O239 O 0.98135 0.16637 0.88453 0.0
N240 N 0.05585 0.11232 0.90431 0.0
C241 C 0.0552 0.09512 0.94412 0.0
C242 C 0.04766 0.11594 0.92912 0.0
C243 C 0.06865 0.08919 0.90483 0.0
N244 N 0.06844 0.07823 0.92888 0.0
O245 O 0.03907 0.10526 0.85521 0.0
H246 H 0.03639 0.1325 0.93583 0.0
H247 H 0.07785 0.08048 0.88795 0.0
O248 O 0.0128 0.13639 0.89078 0.0
C249 C 0.05897 0.09857 0.84176 0.0
O250 O 0.07999 0.11333 0.84322 0.0
N251 N 0.0591 0.16338 0.89675 0.0
C252 C 0.0819 0.20386 0.92532 0.0
C253 C 0.05501 0.20398 0.91988 0.0
C254 C 0.04401 0.18367 0.90523 0.0
C255 C 0.0853 0.16318 0.9015 0.0
C256 C 0.09712 0.18318 0.91579 0.0
H257 H 0.02358 0.18461 0.90046 0.0
H258 H 0.09711 0.14728 0.89412 0.0
H259 H 0.99893 0.15586 0.84168 0.0
H260 H 0.05604 0.20683 0.8119 0.0
H261 H 0.05049 0.09234 0.96454 0.0
H262 H 0.04269 0.21987 0.92648 0.0
H263 H 0.11792 0.18226 0.91963 0.0
C264 C 0.41898 0.08492 0.19491 0.0
C265 C 0.43331 0.06769 0.20954 0.0
N266 N 0.42531 0.0692 0.23462 0.0
N267 N 0.40189 0.09742 0.21046 0.0
C268 C 0.40619 0.08756 0.23458 0.0
H269 H 0.41993 0.08723 0.17392 0.0
Co270 Co 0.37683 0.11948 0.19628 0.0
C271 C 0.35547 0.13045 0.24966 0.0
O272 O 0.37577 0.14417 0.25739 0.0
N273 N 0.35164 0.14168 0.18162 0.0
C274 C 0.3132 0.15808 0.16975 0.0
C275 C 0.32573 0.13672 0.17995 0.0
C276 C 0.35427 0.16642 0.17259 0.0
N277 N 0.33116 0.17674 0.16521 0.0
O278 O 0.39624 0.14946 0.20795 0.0
H279 H 0.31633 0.11891 0.18636 0.0
H280 H 0.37257 0.17696 0.17176 0.0
O281 O 0.35564 0.11948 0.22736 0.0
C282 C 0.41599 0.15546 0.19401 0.0
O283 O 0.42191 0.14042 0.17408 0.0
N284 N 0.35878 0.08997 0.18385 0.0
C285 C 0.33069 0.04795 0.16312 0.0
C286 C 0.33506 0.04996 0.19014 0.0
C287 C 0.34917 0.07109 0.20011 0.0
C288 C 0.35599 0.0877 0.15748 0.0
C289 C 0.34169 0.06706 0.14671 0.0
H290 H 0.35233 0.07223 0.22096 0.0
H291 H 0.36423 0.10249 0.1448 0.0
H292 H 0.39475 0.09289 0.25147 0.0
H293 H 0.4473 0.05391 0.20175 0.0
H294 H 0.29232 0.16018 0.16694 0.0
H295 H 0.32767 0.03533 0.20354 0.0
H296 H 0.33875 0.06652 0.12577 0.0
C297 C 0.65883 0.66936 0.94753 0.0
C298 C 0.67747 0.68381 0.9603 0.0
N299 N 0.68245 0.67241 0.98352 0.0
N300 N 0.65155 0.64905 0.96263 0.0
C301 C 0.66622 0.65149 0.98456 0.0
H302 H 0.65224 0.67266 0.92777 0.0
Co303 Co 0.62978 0.62225 0.95051 0.0
C304 C 0.61798 0.60643 0.00519 0.0
O305 O 0.60312 0.62689 0.00956 0.0
N306 N 0.60805 0.59526 0.93837 0.0
C307 C 0.59133 0.55553 0.9325 0.0
C308 C 0.61215 0.56944 0.94218 0.0
C309 C 0.58454 0.5965 0.92633 0.0
N310 N 0.57391 0.5726 0.92266 0.0
O311 O 0.59942 0.64201 0.96008 0.0
H312 H 0.62895 0.56122 0.95204 0.0
H313 H 0.57516 0.61451 0.92056 0.0
O314 O 0.63021 0.60434 0.98364 0.0
C315 C 0.59199 0.65893 0.94341 0.0
O316 O 0.60534 0.66169 0.92168 0.0
N317 N 0.65927 0.60375 0.93943 0.0
C318 C 0.70088 0.57532 0.91848 0.0
C319 C 0.69945 0.5804 0.94545 0.0
C320 C 0.67836 0.59446 0.95558 0.0
C321 C 0.66083 0.60009 0.91314 0.0
C322 C 0.68117 0.58557 0.9023 0.0
H323 H 0.67745 0.59775 0.97638 0.0
H324 H 0.64568 0.60787 0.9006 0.0
H325 H 0.66637 0.63722 1.00015 0.0
H326 H 0.68733 0.70082 0.9525 0.0
H327 H 0.58875 0.53455 0.93356 0.0
H328 H 0.71443 0.57358 0.95875 0.0
H329 H 0.68095 0.58194 0.88147 0.0
C330 C 0.08576 0.91186 0.69832 0.0
C331 C 0.07224 0.93168 0.71025 0.0
N332 N 0.08288 0.93599 0.73395 0.0
N333 N 0.10473 0.90323 0.7144 0.0
C334 C 0.10245 0.91825 0.73611 0.0
H335 H 0.08289 0.90532 0.67847 0.0
Co336 Co 0.13028 0.8796 0.70325 0.0
C337 C 0.1515 0.86035 0.75293 0.0
O338 O 0.1396 0.8379 0.74922 0.0
N339 N 0.15611 0.8561 0.69188 0.0
C340 C 0.19507 0.83775 0.68597 0.0
C341 C 0.18213 0.85929 0.69527 0.0
C342 C 0.15378 0.83237 0.68045 0.0
N343 N 0.17721 0.82079 0.67674 0.0
O344 O 0.10798 0.85077 0.71245 0.0
H345 H 0.19118 0.87602 0.70448 0.0
H346 H 0.13535 0.82359 0.67503 0.0
O347 O 0.14734 0.87936 0.73726 0.0
C348 C 0.09126 0.84394 0.6953 0.0
O349 O 0.08987 0.85719 0.67338 0.0
N350 N 0.1509 0.90773 0.69226 0.0
C351 C 0.18156 0.94718 0.67096 0.0
C352 C 0.17702 0.9463 0.69792 0.0
C353 C 0.16157 0.92625 0.70828 0.0
C354 C 0.15439 0.90897 0.66589 0.0
C355 C 0.17001 0.92838 0.65482 0.0
H356 H 0.15833 0.92563 0.72912 0.0
H357 H 0.14537 0.89442 0.65347 0.0
H358 H 0.11596 0.9175 0.75237 0.0
H359 H 0.05644 0.94278 0.70162 0.0
H360 H 0.21596 0.83445 0.68676 0.0
H361 H 0.18568 0.96069 0.71082 0.0
H362 H 0.17311 0.9287 0.63388 0.0
C363 C 0.84656 0.3284 0.44923 0.0
C364 C 0.8269 0.31431 0.46093 0.0
N365 N 0.82121 0.32559 0.48401 0.0
N366 N 0.8534 0.34849 0.46482 0.0
C367 C 0.83769 0.34619 0.48599 0.0
H368 H 0.85429 0.32503 0.42988 0.0
Co369 Co 0.87566 0.37544 0.45446 0.0
C370 C 0.89231 0.39406 0.50652 0.0
O371 O 0.91403 0.3805 0.50495 0.0
N372 N 0.89777 0.40303 0.44415 0.0
C373 C 0.91411 0.4432 0.44171 0.0
C374 C 0.89346 0.42836 0.45004 0.0
C375 C 0.92117 0.40311 0.43183 0.0
N376 N 0.93179 0.42737 0.43023 0.0
O377 O 0.90557 0.35415 0.46297 0.0
H378 H 0.87658 0.43566 0.46041 0.0
H379 H 0.93035 0.38567 0.42446 0.0
O380 O 0.87477 0.39143 0.48896 0.0
C381 C 0.9136 0.34053 0.44372 0.0
O382 O 0.90079 0.34226 0.42151 0.0
N383 N 0.84661 0.39481 0.44373 0.0
C384 C 0.80649 0.42425 0.42146 0.0
C385 C 0.8083 0.42133 0.44872 0.0
C386 C 0.82844 0.40631 0.45951 0.0
C387 C 0.8446 0.39654 0.41728 0.0
C388 C 0.82473 0.41117 0.40572 0.0
H389 H 0.8295 0.40425 0.48046 0.0
H390 H 0.85885 0.38677 0.4051 0.0
H391 H 0.83698 0.36034 0.50169 0.0
H392 H 0.81685 0.29764 0.45261 0.0
H393 H 0.9159 0.46403 0.44468 0.0
H394 H 0.79469 0.43107 0.46166 0.0
H395 H 0.82376 0.41226 0.38461 0.0
C396 C 0.91547 0.41283 0.8052 0.0
C397 C 0.93128 0.43096 0.79336 0.0
N398 N 0.92566 0.43169 0.76756 0.0
N399 N 0.89977 0.40189 0.7872 0.0
C400 C 0.90693 0.41312 0.76435 0.0
H401 H 0.91449 0.40882 0.82592 0.0
Co402 Co 0.87274 0.37907 0.79662 0.0
C403 C 0.84542 0.39601 0.74461 0.0
O404 O 0.84951 0.42131 0.74383 0.0
N405 N 0.84597 0.35574 0.80584 0.0
C406 C 0.80685 0.33704 0.8088 0.0
C407 C 0.82038 0.35835 0.79977 0.0
C408 C 0.84747 0.33266 0.81861 0.0
N409 N 0.82391 0.32087 0.82063 0.0
O410 O 0.89283 0.35008 0.78369 0.0
H411 H 0.81202 0.37474 0.78937 0.0
H412 H 0.86543 0.32468 0.82639 0.0
O413 O 0.85457 0.38217 0.76324 0.0
C414 C 0.90955 0.34259 0.8006 0.0
O415 O 0.91116 0.35561 0.82268 0.0
N416 N 0.85371 0.4075 0.81168 0.0
C417 C 0.82522 0.44688 0.83642 0.0
C418 C 0.83872 0.45209 0.8133 0.0
C419 C 0.85301 0.43216 0.80132 0.0
C420 C 0.84247 0.40304 0.83553 0.0
C421 C 0.82744 0.42218 0.84782 0.0
H422 H 0.86413 0.43706 0.78424 0.0
H423 H 0.8449 0.38443 0.84522 0.0
H424 H 0.89767 0.40861 0.74599 0.0
H425 H 0.94487 0.44346 0.80362 0.0
H426 H 0.78613 0.33347 0.80632 0.0
H427 H 0.83807 0.47133 0.80446 0.0
H428 H 0.81786 0.41782 0.86619 0.0
C429 C 0.33614 0.16315 0.55945 0.0
C430 C 0.31692 0.17872 0.54904 0.0
N431 N 0.31769 0.17668 0.52278 0.0
N432 N 0.3491 0.15106 0.54002 0.0
C433 C 0.33812 0.16053 0.51786 0.0
H434 H 0.33944 0.15955 0.58001 0.0
Co435 Co 0.37274 0.12388 0.54726 0.0
C436 C 0.35822 0.1017 0.49119 0.0
O437 O 0.33535 0.11143 0.48478 0.0
N438 N 0.39638 0.09668 0.55478 0.0
C439 C 0.41282 0.05654 0.55724 0.0
C440 C 0.39201 0.07126 0.54907 0.0
C441 C 0.42017 0.09688 0.56643 0.0
N442 N 0.43051 0.07263 0.5682 0.0
O443 O 0.40128 0.14517 0.53517 0.0
H444 H 0.37464 0.0638 0.53957 0.0
H445 H 0.4296 0.11427 0.57388 0.0
O446 O 0.36866 0.10756 0.5131 0.0
C447 C 0.40901 0.15961 0.55398 0.0
O448 O 0.39605 0.15836 0.57613 0.0
N449 N 0.34511 0.10385 0.56127 0.0
C450 C 0.30594 0.07457 0.58596 0.0
C451 C 0.30208 0.08505 0.56082 0.0
C452 C 0.32195 0.09948 0.5488 0.0
C453 C 0.34869 0.09516 0.5862 0.0
C454 C 0.32976 0.07993 0.59858 0.0
H455 H 0.31836 0.10775 0.5298 0.0
H456 H 0.36663 0.09966 0.59644 0.0
H457 H 0.34422 0.15495 0.49853 0.0
H458 H 0.30271 0.18972 0.56017 0.0
H459 H 0.41493 0.0356 0.55497 0.0
H460 H 0.28378 0.08252 0.55053 0.0
H461 H 0.33413 0.07222 0.61777 0.0
C462 C 0.58945 0.57888 0.31384 0.0
C463 C 0.57419 0.56 0.30255 0.0
N464 N 0.57607 0.5623 0.2764 0.0
N465 N 0.6012 0.5932 0.29511 0.0
C466 C 0.59186 0.58321 0.27241 0.0
H467 H 0.59288 0.58124 0.33456 0.0
Co468 Co 0.62693 0.61734 0.30514 0.0
C469 C 0.6507 0.60991 0.24832 0.0
O470 O 0.64064 0.58824 0.23892 0.0
N471 N 0.65256 0.64127 0.31591 0.0
C472 C 0.69153 0.65919 0.32325 0.0
C473 C 0.67867 0.63743 0.31429 0.0
C474 C 0.65007 0.66577 0.3256 0.0
N475 N 0.67349 0.67687 0.33028 0.0
O476 O 0.60486 0.6459 0.29487 0.0
H477 H 0.68789 0.6201 0.30647 0.0
H478 H 0.63165 0.67551 0.32896 0.0
O479 O 0.64452 0.61767 0.27124 0.0
C480 C 0.58773 0.65106 0.31224 0.0
O481 O 0.58603 0.63556 0.33264 0.0
N482 N 0.64757 0.58956 0.31734 0.0
C483 C 0.67772 0.55066 0.34094 0.0
C484 C 0.67377 0.55087 0.31377 0.0
C485 C 0.65833 0.57031 0.30238 0.0
C486 C 0.65032 0.58914 0.34381 0.0
C487 C 0.66534 0.56994 0.35601 0.0
H488 H 0.65508 0.5697 0.28166 0.0
H489 H 0.64092 0.60404 0.3555 0.0
H490 H 0.597 0.59047 0.25336 0.0
H491 H 0.56346 0.54497 0.31288 0.0
H492 H 0.71248 0.66223 0.32372 0.0
H493 H 0.68285 0.53641 0.30128 0.0
H494 H 0.66714 0.57021 0.37709 0.0
C495 C 0.15191 0.82712 0.04152 0.0
C496 C 0.16893 0.81569 0.02423 0.0
N497 N 0.17577 0.83361 0.00617 0.0
N498 N 0.14787 0.85214 0.03445 0.0
C499 C 0.1625 0.85552 0.01273 0.0
H500 H 0.14405 0.81814 0.05895 0.0
Co501 Co 0.12937 0.87563 0.05482 0.0
C502 C 0.12052 0.92281 0.0233 0.0
O503 O 0.12553 0.93705 0.04404 0.0
N504 N 0.10997 0.89881 0.07628 0.0
C505 C 0.09581 0.92653 0.10676 0.0
C506 C 0.11682 0.91234 0.09798 0.0
C507 C 0.08446 0.90501 0.07265 0.0
N508 N 0.07549 0.92177 0.09084 0.0
O509 O 0.09773 0.85667 0.04758 0.0
H510 H 0.13566 0.91224 0.1073 0.0
H511 H 0.07268 0.89771 0.05666 0.0
O512 O 0.12227 0.89788 0.02425 0.0
C513 C 0.08995 0.84079 0.06509 0.0
O514 O 0.10415 0.83795 0.08631 0.0
N515 N 0.16129 0.89276 0.06288 0.0
C516 C 0.20522 0.91881 0.08206 0.0
C517 C 0.1966 0.92301 0.0564 0.0
C518 C 0.17498 0.9093 0.04695 0.0
C519 C 0.17158 0.88579 0.08646 0.0
C520 C 0.19323 0.89899 0.09674 0.0
H521 H 0.16927 0.91252 0.02697 0.0
H522 H 0.16171 0.87121 0.09818 0.0
H523 H 0.16411 0.87391 0.00245 0.0
H524 H 0.17694 0.79618 0.02591 0.0
H525 H 0.09531 0.93889 0.12393 0.0
H526 H 0.20623 0.9371 0.04386 0.0
H527 H 0.1996 0.89465 0.11645 0.0
C528 C 0.20895 0.42549 0.09669 0.0
C529 C 0.22455 0.43833 0.0792 0.0
N530 N 0.24382 0.42208 0.07144 0.0
N531 N 0.21803 0.40112 0.10036 0.0
C532 C 0.23935 0.39947 0.08472 0.0
H533 H 0.19119 0.43308 0.10517 0.0
Co534 Co 0.19834 0.37772 0.12008 0.0
C535 C 0.22932 0.33078 0.13067 0.0
O536 O 0.20806 0.31696 0.12655 0.0
N537 N 0.17707 0.35523 0.14073 0.0
C538 C 0.14541 0.32994 0.15683 0.0
C539 C 0.154 0.34345 0.13527 0.0
C540 C 0.18165 0.34886 0.16606 0.0
N541 N 0.16282 0.33341 0.1762 0.0
O542 O 0.2061 0.39735 0.15105 0.0
H543 H 0.1434 0.34466 0.11716 0.0
H544 H 0.19873 0.35517 0.17684 0.0
O545 O 0.22919 0.35559 0.12719 0.0
C546 C 0.18841 0.41277 0.15927 0.0
O547 O 0.16668 0.4151 0.14575 0.0
N548 N 0.18981 0.35967 0.08896 0.0
C549 C 0.17033 0.33275 0.04569 0.0
C550 C 0.19614 0.32889 0.05414 0.0
C551 C 0.20572 0.34298 0.07547 0.0
C552 C 0.16605 0.36622 0.07886 0.0
C553 C 0.1556 0.35256 0.05763 0.0
H554 H 0.2258 0.34008 0.0811 0.0
H555 H 0.15441 0.38103 0.08846 0.0
H556 H 0.25068 0.38179 0.08244 0.0
H557 H 0.22078 0.45771 0.07168 0.0
H558 H 0.12729 0.3191 0.15838 0.0
H559 H 0.20874 0.31485 0.04455 0.0
H560 H 0.13577 0.35669 0.0515 0.0
C561 C 0.69372 0.09337 0.92169 0.0
C562 C 0.70599 0.07685 0.93896 0.0
N563 N 0.73185 0.07733 0.93403 0.0
N564 N 0.7117 0.10451 0.906 0.0
C565 C 0.73468 0.09376 0.91348 0.0
H566 H 0.67312 0.09811 0.92149 0.0
Co567 Co 0.70336 0.13111 0.88224 0.0
C568 C 0.76018 0.15198 0.89386 0.0
O569 O 0.76702 0.14232 0.91662 0.0
N570 N 0.69506 0.15777 0.85837 0.0
C571 C 0.69308 0.19708 0.83987 0.0
C572 C 0.70101 0.18334 0.86149 0.0
C573 C 0.68362 0.15647 0.83457 0.0
N574 N 0.68222 0.18015 0.82293 0.0
O575 O 0.71375 0.10927 0.8538 0.0
H576 H 0.71087 0.19147 0.87834 0.0
H577 H 0.67643 0.13861 0.82585 0.0
O578 O 0.73783 0.14681 0.88408 0.0
C579 C 0.69523 0.09365 0.8479 0.0
O580 O 0.67419 0.09365 0.86264 0.0
N581 N 0.69091 0.15184 0.90988 0.0
C582 C 0.66801 0.18226 0.94857 0.0
C583 C 0.69361 0.17316 0.95156 0.0
C584 C 0.70473 0.15779 0.93192 0.0
C585 C 0.66549 0.15952 0.90742 0.0
C586 C 0.65377 0.17519 0.92637 0.0
H587 H 0.7241 0.15024 0.93479 0.0
H588 H 0.65431 0.15369 0.89045 0.0
H589 H 0.75323 0.09816 0.90444 0.0
H590 H 0.69678 0.06676 0.95512 0.0
H591 H 0.69573 0.21782 0.83654 0.0
H592 H 0.70488 0.17797 0.96883 0.0
H593 H 0.63377 0.18165 0.92376 0.0
C594 C 0.68104 0.95803 0.65386 0.0
C595 C 0.69389 0.97334 0.67171 0.0
N596 N 0.67655 0.99005 0.68226 0.0
N597 N 0.65565 0.96497 0.65297 0.0
C598 C 0.65351 0.98483 0.67033 0.0
H599 H 0.6894 0.94184 0.64318 0.0
Co600 Co 0.63167 0.94471 0.63466 0.0
C601 C 0.58469 0.97613 0.62458 0.0
O602 O 0.57052 0.9554 0.62995 0.0
N603 N 0.60851 0.92304 0.61537 0.0
C604 C 0.58495 0.88996 0.59979 0.0
C605 C 0.59808 0.89947 0.62116 0.0
C606 C 0.60148 0.92715 0.59016 0.0
N607 N 0.58729 0.90727 0.58006 0.0
O608 O 0.65073 0.95108 0.60309 0.0
H609 H 0.60016 0.88909 0.63933 0.0
H610 H 0.60739 0.94427 0.57927 0.0
O611 O 0.60963 0.97547 0.62688 0.0
C612 C 0.66347 0.93185 0.59381 0.0
O613 O 0.66342 0.90946 0.60636 0.0
N614 N 0.61426 0.93732 0.66644 0.0
C615 C 0.58928 0.91916 0.7115 0.0
C616 C 0.58503 0.9447 0.70238 0.0
C617 C 0.5979 0.95351 0.67999 0.0
C618 C 0.62118 0.91386 0.67692 0.0
C619 C 0.6084 0.90401 0.69894 0.0
H620 H 0.59447 0.97332 0.67377 0.0
H621 H 0.6357 0.902 0.66714 0.0
H622 H 0.63525 0.99412 0.67543 0.0
H623 H 0.71423 0.97156 0.6773 0.0
H624 H 0.57458 0.87156 0.59907 0.0
H625 H 0.57166 0.95778 0.71226 0.0
H626 H 0.61281 0.88432 0.70529 0.0
C627 C 0.78905 0.92421 0.39654 0.0
C628 C 0.77114 0.93461 0.4136 0.0
N629 N 0.7573 0.91483 0.42408 0.0
N630 N 0.78647 0.898 0.39606 0.0
C631 C 0.76678 0.89285 0.4129 0.0
H632 H 0.80389 0.93502 0.38606 0.0
Co633 Co 0.80969 0.87671 0.37807 0.0
C634 C 0.78324 0.82714 0.36558 0.0
O635 O 0.80535 0.81509 0.37067 0.0
N636 N 0.8341 0.85638 0.35915 0.0
C637 C 0.8693 0.83584 0.3439 0.0
C638 C 0.85862 0.84847 0.36507 0.0
C639 C 0.83073 0.84878 0.33404 0.0
N640 N 0.85169 0.83615 0.32439 0.0
O641 O 0.80244 0.89599 0.34647 0.0
H642 H 0.8688 0.85213 0.38311 0.0
H643 H 0.81298 0.85232 0.32307 0.0
O644 O 0.78136 0.85191 0.36899 0.0
C645 C 0.82092 0.91023 0.33771 0.0
O646 O 0.84276 0.91175 0.35119 0.0
N647 N 0.81771 0.859 0.40977 0.0
C648 C 0.83677 0.83254 0.45363 0.0
C649 C 0.81191 0.82689 0.44354 0.0
C650 C 0.80264 0.84047 0.42181 0.0
C651 C 0.84025 0.86714 0.42142 0.0
C652 C 0.85054 0.85376 0.44295 0.0
H653 H 0.78341 0.83561 0.41477 0.0
H654 H 0.85115 0.88317 0.41294 0.0
H655 H 0.75994 0.87343 0.41757 0.0
H656 H 0.76961 0.95497 0.41915 0.0
H657 H 0.88886 0.82788 0.34269 0.0
H658 H 0.79981 0.81173 0.45205 0.0
H659 H 0.8696 0.85931 0.45031 0.0
C660 C 0.84227 0.06369 0.16364 0.0
C661 C 0.8271 0.0529 0.18297 0.0
N662 N 0.82914 0.02664 0.18163 0.0
N663 N 0.85405 0.04446 0.1501 0.0
C664 C 0.84477 0.02211 0.16077 0.0
H665 H 0.84586 0.08432 0.16067 0.0
Co666 Co 0.88068 0.05143 0.12593 0.0
C667 C 0.90336 0.99628 0.14207 0.0
O668 O 0.89423 0.99088 0.16544 0.0
N669 N 0.90718 0.0585 0.10166 0.0
C670 C 0.94626 0.06024 0.08294 0.0
C671 C 0.9328 0.05325 0.10501 0.0
C672 C 0.90556 0.06863 0.07731 0.0
N673 N 0.92915 0.06984 0.0653 0.0
O674 O 0.85932 0.03795 0.09817 0.0
H675 H 0.94122 0.04485 0.12249 0.0
H676 H 0.88732 0.0746 0.06851 0.0
O677 O 0.89728 0.01764 0.13071 0.0
C678 C 0.84167 0.0541 0.09119 0.0
O679 O 0.83935 0.07607 0.10427 0.0
N680 N 0.90104 0.06645 0.15286 0.0
C681 C 0.9307 0.09166 0.191 0.0
C682 C 0.92021 0.06683 0.19572 0.0
C683 C 0.90544 0.05452 0.17633 0.0
C684 C 0.90996 0.09125 0.14858 0.0
C685 C 0.92537 0.10399 0.16717 0.0
H686 H 0.89702 0.03574 0.18052 0.0
H687 H 0.90535 0.10114 0.13048 0.0
H688 H 0.85032 0.00289 0.15422 0.0
H689 H 0.81653 0.06373 0.19772 0.0
H690 H 0.96718 0.05857 0.08045 0.0
H691 H 0.92366 0.05692 0.21411 0.0
H692 H 0.93281 0.1234 0.1631 0.0
C693 C 0.30592 0.58843 0.58482 0.0
C694 C 0.29454 0.57164 0.56718 0.0
N695 N 0.26841 0.57238 0.57054 0.0
N696 N 0.28714 0.6 0.59917 0.0
C697 C 0.26458 0.58917 0.59061 0.0
H698 H 0.32646 0.59337 0.58585 0.0
Co699 Co 0.2939 0.6285 0.62101 0.0
C700 C 0.2352 0.64675 0.61053 0.0
O701 O 0.22581 0.63566 0.58938 0.0
N702 N 0.30088 0.65727 0.64273 0.0
C703 C 0.29948 0.69771 0.6584 0.0
C704 C 0.29234 0.68179 0.63811 0.0
C705 C 0.31371 0.65897 0.6658 0.0
N706 N 0.31303 0.68342 0.67592 0.0
O707 O 0.28427 0.60803 0.65102 0.0
H708 H 0.28113 0.6877 0.6212 0.0
H709 H 0.32346 0.64266 0.67498 0.0
O710 O 0.25859 0.64199 0.6178 0.0
C711 C 0.30414 0.59583 0.65982 0.0
O712 O 0.32631 0.5979 0.64699 0.0
N713 N 0.30527 0.64779 0.59197 0.0
C714 C 0.32741 0.67542 0.55048 0.0
C715 C 0.30092 0.66823 0.54998 0.0
C716 C 0.29028 0.65411 0.57083 0.0
C717 C 0.33115 0.65409 0.59253 0.0
C718 C 0.3426 0.668 0.57206 0.0
H719 H 0.27019 0.64792 0.56967 0.0
H720 H 0.34295 0.64832 0.6091 0.0
H721 H 0.24562 0.59392 0.59841 0.0
H722 H 0.30461 0.56143 0.55164 0.0
H723 H 0.29437 0.71814 0.66024 0.0
H724 H 0.28866 0.67311 0.53342 0.0
H725 H 0.36309 0.67322 0.57331 0.0
C726 C 0.16632 0.55698 0.33688 0.0
C727 C 0.18144 0.54371 0.31911 0.0
N728 N 0.17709 0.51786 0.32202 0.0
N729 N 0.15217 0.53969 0.35082 0.0
C730 C 0.15986 0.516 0.342 0.0
H731 H 0.16428 0.57798 0.3383 0.0
Co732 Co 0.12523 0.5496 0.3735 0.0
C733 C 0.09896 0.49693 0.35652 0.0
O734 O 0.10581 0.49437 0.33197 0.0
N735 N 0.0984 0.55917 0.39664 0.0
C736 C 0.05896 0.56181 0.41458 0.0
C737 C 0.07269 0.55447 0.39282 0.0
C738 C 0.09977 0.56946 0.42096 0.0
N739 N 0.07599 0.57106 0.43242 0.0
O740 O 0.14487 0.53622 0.40252 0.0
H741 H 0.06445 0.54581 0.37537 0.0
H742 H 0.11791 0.57468 0.43049 0.0
O743 O 0.10666 0.51647 0.37001 0.0
C744 C 0.16289 0.55197 0.4095 0.0
O745 O 0.16629 0.57344 0.3958 0.0
N746 N 0.10661 0.56484 0.34498 0.0
C747 C 0.07856 0.58967 0.30492 0.0
C748 C 0.09124 0.56575 0.30057 0.0
C749 C 0.10511 0.55375 0.32075 0.0
C750 C 0.09637 0.58919 0.34886 0.0
C751 C 0.08166 0.60155 0.32947 0.0
H752 H 0.11553 0.53613 0.31633 0.0
H753 H 0.09915 0.59907 0.36733 0.0
H754 H 0.15219 0.49774 0.3493 0.0
H755 H 0.19302 0.5526 0.3038 0.0
H756 H 0.03801 0.56023 0.4171 0.0
H757 H 0.09083 0.55639 0.2816 0.0
H758 H 0.07251 0.62006 0.33402 0.0
C759 C 0.34184 0.44006 0.83052 0.0
C760 C 0.32659 0.45062 0.81115 0.0
N761 N 0.32783 0.47687 0.81292 0.0
N762 N 0.35298 0.45943 0.84447 0.0
C763 C 0.34327 0.48168 0.83389 0.0
H764 H 0.34601 0.41951 0.83321 0.0
Co765 Co 0.37982 0.45199 0.86839 0.0
C766 C 0.4018 0.5086 0.85534 0.0
O767 O 0.39204 0.51605 0.8328 0.0
N768 N 0.40645 0.44422 0.89216 0.0
C769 C 0.4451 0.44343 0.91183 0.0
C770 C 0.4318 0.45114 0.88988 0.0
C771 C 0.40491 0.43187 0.91543 0.0
N772 N 0.4282 0.43124 0.928 0.0
O773 O 0.35865 0.46391 0.897 0.0
H774 H 0.44006 0.46156 0.87345 0.0
H775 H 0.38701 0.42349 0.92292 0.0
O776 O 0.39591 0.48626 0.86481 0.0
C777 C 0.34035 0.44831 0.90363 0.0
O778 O 0.33566 0.42775 0.889 0.0
N779 N 0.40017 0.43843 0.84099 0.0
C780 C 0.42996 0.41446 0.80238 0.0
C781 C 0.42046 0.43985 0.79872 0.0
C782 C 0.40558 0.45158 0.8184 0.0
C783 C 0.40824 0.41322 0.84419 0.0
C784 C 0.42364 0.40103 0.82533 0.0
H785 H 0.39801 0.47094 0.8152 0.0
H786 H 0.40289 0.40257 0.86165 0.0
H787 H 0.34833 0.50103 0.84048 0.0
H788 H 0.31654 0.43978 0.79601 0.0
H789 H 0.46553 0.44724 0.91573 0.0
H790 H 0.42477 0.45059 0.78099 0.0
H791 H 0.43039 0.38121 0.82853 0.0
C792 C 0.30258 0.18719 0.47775 0.0
C793 C 0.29749 0.1849 0.50463 0.0
C794 C 0.28231 0.19233 0.45977 0.0
C795 C 0.25627 0.19509 0.46883 0.0
C796 C 0.2512 0.1939 0.49598 0.0
C797 C 0.27175 0.18884 0.51344 0.0
C798 C 0.28859 0.19361 0.43099 0.0
C799 C 0.22375 0.19642 0.50657 0.0
C800 C 0.20002 0.22003 0.42626 0.0
C801 C 0.18772 0.19651 0.4193 0.0
C802 C 0.22293 0.22 0.44167 0.0
C803 C 0.23383 0.19591 0.45008 0.0
C804 C 0.22194 0.17218 0.44226 0.0
C805 C 0.1991 0.17279 0.42712 0.0
C806 C 0.23502 0.2457 0.4496 0.0
C807 C 0.23287 0.14602 0.45055 0.0
H808 H 0.32234 0.1845 0.47067 0.0
H809 H 0.26724 0.18671 0.53397 0.0
H810 H 0.28061 0.17606 0.42106 0.0
H811 H 0.27924 0.21096 0.42195 0.0
H812 H 0.30998 0.19447 0.42734 0.0
H813 H 0.22337 0.19759 0.52824 0.0
H814 H 0.21412 0.21409 0.4985 0.0
H815 H 0.21199 0.17924 0.50043 0.0
H816 H 0.19145 0.23842 0.42017 0.0
H817 H 0.19005 0.15446 0.42155 0.0
H818 H 0.25623 0.24576 0.44504 0.0
H819 H 0.23305 0.24834 0.47102 0.0
H820 H 0.22566 0.26258 0.43965 0.0
H821 H 0.25381 0.14458 0.44511 0.0
H822 H 0.22222 0.12937 0.44154 0.0
H823 H 0.23164 0.14407 0.47211 0.0
C824 C 0.57467 0.44879 0.17459 0.0
C825 C 0.55076 0.43587 0.17076 0.0
C826 C 0.57622 0.47194 0.1891 0.0
C827 C 0.55331 0.48243 0.20045 0.0
C828 C 0.52883 0.47029 0.19551 0.0
C829 C 0.52781 0.44716 0.18052 0.0
C830 C 0.60271 0.48428 0.19352 0.0
C831 C 0.50396 0.48097 0.20715 0.0
C832 C 0.56674 0.51645 0.26478 0.0
C833 C 0.56792 0.5429 0.25751 0.0
C834 C 0.56085 0.49685 0.24661 0.0
C835 C 0.55585 0.50368 0.22028 0.0
C836 C 0.55615 0.53039 0.21283 0.0
C837 C 0.5624 0.5497 0.23151 0.0
C838 C 0.56129 0.46864 0.2554 0.0
C839 C 0.55071 0.53847 0.185 0.0
H840 H 0.59244 0.44054 0.16654 0.0
H841 H 0.50926 0.43738 0.17738 0.0
H842 H 0.60199 0.50555 0.18942 0.0
H843 H 0.60846 0.48185 0.21429 0.0
H844 H 0.6181 0.47538 0.18107 0.0
H845 H 0.48629 0.47162 0.19863 0.0
H846 H 0.50394 0.47745 0.22855 0.0
H847 H 0.50276 0.50241 0.20411 0.0
H848 H 0.57156 0.51082 0.28459 0.0
H849 H 0.56315 0.57007 0.22576 0.0
H850 H 0.57769 0.45827 0.24572 0.0
H851 H 0.54294 0.45864 0.2496 0.0
H852 H 0.56372 0.46672 0.27689 0.0
H853 H 0.56704 0.53209 0.17226 0.0
H854 H 0.54846 0.55998 0.18304 0.0
H855 H 0.53269 0.52882 0.17772 0.0
C856 C 0.31442 0.81576 0.94779 0.0
C857 C 0.31724 0.81652 0.92068 0.0
C858 C 0.28961 0.81706 0.9593 0.0
C859 C 0.26723 0.82013 0.94323 0.0
C860 C 0.27004 0.82053 0.91567 0.0
C861 C 0.29512 0.81841 0.90468 0.0
C862 C 0.28744 0.81595 0.98872 0.0
C863 C 0.24683 0.82447 0.89787 0.0
C864 C 0.2031 0.80601 0.97755 0.0
C865 C 0.19633 0.83085 0.98704 0.0
C866 C 0.22542 0.80237 0.96204 0.0
C867 C 0.24125 0.82413 0.95564 0.0
C868 C 0.23361 0.84948 0.96368 0.0
C869 C 0.21131 0.85254 0.97936 0.0
C870 C 0.23285 0.77504 0.95378 0.0
C871 C 0.24982 0.87324 0.95696 0.0
H872 H 0.33172 0.81448 0.96 0.0
H873 H 0.29756 0.81948 0.88366 0.0
H874 H 0.28011 0.83492 0.99623 0.0
H875 H 0.27317 0.80068 0.99459 0.0
H876 H 0.30649 0.81167 0.99823 0.0
H877 H 0.2519 0.8213 0.877 0.0
H878 H 0.23066 0.81106 0.90327 0.0
H879 H 0.23944 0.84474 0.90008 0.0
H880 H 0.19134 0.78924 0.9829 0.0
H881 H 0.20644 0.87179 0.98665 0.0
H882 H 0.2509 0.769 0.9642 0.0
H883 H 0.23716 0.77446 0.93254 0.0
H884 H 0.21721 0.76059 0.95812 0.0
H885 H 0.26863 0.87249 0.96775 0.0
H886 H 0.23972 0.89177 0.96208 0.0
H887 H 0.25448 0.87347 0.93579 0.0
C888 C 0.94971 0.47264 0.75698 0.0
C889 C 0.93389 0.45157 0.74893 0.0
C890 C 0.95426 0.49424 0.7407 0.0
C891 C 0.94306 0.4949 0.71547 0.0
C892 C 0.9289 0.47296 0.70628 0.0
C893 C 0.92448 0.4516 0.72306 0.0
C894 C 0.96955 0.5172 0.7513 0.0
C895 C 0.91697 0.47273 0.67928 0.0
C896 C 0.92282 0.56186 0.691 0.0
C897 C 0.94287 0.56812 0.67339 0.0
C898 C 0.92263 0.53803 0.70449 0.0
C899 C 0.94305 0.51984 0.70038 0.0
C900 C 0.96347 0.52599 0.68269 0.0
C901 C 0.96317 0.55012 0.66938 0.0
C902 C 0.90051 0.53238 0.72324 0.0
C903 C 0.98554 0.50706 0.67778 0.0
H904 H 0.95777 0.47311 0.77646 0.0
H905 H 0.91285 0.43545 0.71598 0.0
H906 H 0.9842 0.524 0.73684 0.0
H907 H 0.95601 0.53372 0.75506 0.0
H908 H 0.97979 0.51239 0.76983 0.0
H909 H 0.90992 0.45297 0.67363 0.0
H910 H 0.90015 0.48641 0.6787 0.0
H911 H 0.93133 0.47952 0.66453 0.0
H912 H 0.90704 0.5756 0.69426 0.0
H913 H 0.97864 0.55474 0.65567 0.0
H914 H 0.90838 0.52929 0.74321 0.0
H915 H 0.89029 0.51415 0.71741 0.0
H916 H 0.88597 0.54848 0.72398 0.0
H917 H 0.99598 0.50289 0.69632 0.0
H918 H 0.99983 0.51466 0.66331 0.0
H919 H 0.9776 0.48821 0.67053 0.0
C920 C 0.80102 0.32281 0.52786 0.0
C921 C 0.79933 0.31946 0.50072 0.0
C922 C 0.77936 0.31779 0.54409 0.0
C923 C 0.75533 0.30977 0.53281 0.0
C924 C 0.7537 0.306 0.50546 0.0
C925 C 0.77572 0.31073 0.48982 0.0
C926 C 0.78197 0.32178 0.57321 0.0
C927 C 0.72835 0.29808 0.49253 0.0
C928 C 0.69927 0.2827 0.57411 0.0
C929 C 0.68354 0.30496 0.57706 0.0
C930 C 0.72301 0.28396 0.56016 0.0
C931 C 0.73116 0.30803 0.54903 0.0
C932 C 0.71546 0.33054 0.55225 0.0
C933 C 0.69193 0.3287 0.5661 0.0
C934 C 0.73928 0.25957 0.55715 0.0
C935 C 0.72335 0.35661 0.54078 0.0
H936 H 0.81929 0.32936 0.53635 0.0
H937 H 0.77416 0.30852 0.46883 0.0
H938 H 0.76983 0.33865 0.57939 0.0
H939 H 0.77465 0.30434 0.58385 0.0
H940 H 0.80252 0.32552 0.57917 0.0
H941 H 0.73077 0.29427 0.4713 0.0
H942 H 0.72035 0.28024 0.50192 0.0
H943 H 0.71368 0.31384 0.49504 0.0
H944 H 0.69304 0.26434 0.58267 0.0
H945 H 0.68009 0.34611 0.56837 0.0
H946 H 0.75942 0.26314 0.56439 0.0
H947 H 0.74084 0.25435 0.53617 0.0
H948 H 0.73086 0.24267 0.56789 0.0
H949 H 0.74289 0.36242 0.54818 0.0
H950 H 0.70922 0.37238 0.54557 0.0
H951 H 0.72482 0.35503 0.51921 0.0
C952 C 0.4164 0.04797 0.27736 0.0
C953 C 0.4326 0.05148 0.25547 0.0
C954 C 0.42084 0.02752 0.29512 0.0
C955 C 0.44162 0.00984 0.29061 0.0
C956 C 0.45942 0.01464 0.27004 0.0
C957 C 0.4549 0.0356 0.25298 0.0
C958 C 0.40192 0.02354 0.31741 0.0
C959 C 0.4819 0.99633 0.26456 0.0
C960 C 0.45516 0.95583 0.34009 0.0
C961 C 0.43969 0.93553 0.33003 0.0
C962 C 0.45622 0.98026 0.32749 0.0
C963 C 0.44182 0.98413 0.30416 0.0
C964 C 0.42683 0.96337 0.29362 0.0
C965 C 0.42579 0.93944 0.3068 0.0
C966 C 0.47212 0.00205 0.33946 0.0
C967 C 0.41154 0.9665 0.26853 0.0
H968 H 0.39934 0.06014 0.27998 0.0
H969 H 0.46829 0.03868 0.23692 0.0
H970 H 0.38828 0.0074 0.31247 0.0
H971 H 0.41241 0.01793 0.33554 0.0
H972 H 0.39022 0.0414 0.32134 0.0
H973 H 0.49627 0.00499 0.25077 0.0
H974 H 0.49218 0.99097 0.28287 0.0
H975 H 0.47421 0.97802 0.25582 0.0
H976 H 0.46574 0.95288 0.35821 0.0
H977 H 0.41398 0.9237 0.29889 0.0
H978 H 0.45901 0.01831 0.34524 0.0
H979 H 0.48613 0.01 0.32495 0.0
H980 H 0.48318 0.99549 0.35696 0.0
H981 H 0.39653 0.98195 0.27093 0.0
H982 H 0.4016 0.94814 0.26254 0.0
H983 H 0.42477 0.97274 0.25251 0.0
C984 C 0.81291 0.66974 0.06293 0.0
C985 C 0.81918 0.69174 0.07809 0.0
C986 C 0.78932 0.66816 0.04914 0.0
C987 C 0.77141 0.68918 0.05029 0.0
C988 C 0.77749 0.71151 0.06556 0.0
C989 C 0.80134 0.71252 0.07935 0.0
C990 C 0.78367 0.64398 0.03312 0.0
C991 C 0.7589 0.73434 0.06715 0.0
C992 C 0.72609 0.69155 0.99175 0.0
C993 C 0.70366 0.67875 0.00114 0.0
C994 C 0.74768 0.69631 0.00796 0.0
C995 C 0.74706 0.68799 0.0343 0.0
C996 C 0.72419 0.6759 0.04427 0.0
C997 C 0.70279 0.67137 0.02755 0.0
C998 C 0.77171 0.70908 0.99645 0.0
C999 C 0.72274 0.66683 0.0723 0.0
H1000 H 0.82646 0.6535 0.06186 0.0
H1001 H 0.80594 0.7295 0.09115 0.0
H1002 H 0.76489 0.6351 0.03938 0.0
H1003 H 0.78164 0.64932 0.0122 0.0
H1004 H 0.7993 0.62902 0.03493 0.0
H1005 H 0.76613 0.74991 0.08045 0.0
H1006 H 0.75601 0.74286 0.04742 0.0
H1007 H 0.7395 0.72761 0.07414 0.0
H1008 H 0.72733 0.697 0.97136 0.0
H1009 H 0.68547 0.66178 0.03508 0.0
H1010 H 0.78785 0.69463 0.99548 0.0
H1011 H 0.7784 0.72541 0.00904 0.0
H1012 H 0.76816 0.71675 0.97645 0.0
H1013 H 0.73638 0.65025 0.07529 0.0
H1014 H 0.70274 0.66036 0.07779 0.0
H1015 H 0.72889 0.68273 0.08571 0.0
C1016 C 0.08077 0.9558 0.77818 0.0
C1017 C 0.07707 0.95771 0.75108 0.0
C1018 C 0.0757 0.97725 0.79472 0.0
C1019 C 0.06704 0.00124 0.78384 0.0
C1020 C 0.06291 0.00308 0.75656 0.0
C1021 C 0.06794 0.98138 0.74061 0.0
C1022 C 0.08024 0.97447 0.82374 0.0
C1023 C 0.05414 0.02835 0.74402 0.0
C1024 C 0.0387 0.05667 0.82512 0.0
C1025 C 0.06037 0.07335 0.82739 0.0
C1026 C 0.04065 0.0327 0.81162 0.0
C1027 C 0.06485 0.02525 0.8003 0.0
C1028 C 0.08683 0.0418 0.80305 0.0
C1029 C 0.0843 0.06557 0.81643 0.0
C1030 C 0.01677 0.01557 0.80905 0.0
C1031 C 0.11302 0.0347 0.79138 0.0
H1032 H 0.08762 0.93754 0.78643 0.0
H1033 H 0.0655 0.98331 0.71969 0.0
H1034 H 0.09698 0.9869 0.82973 0.0
H1035 H 0.06287 0.98134 0.83475 0.0
H1036 H 0.08447 0.95395 0.82945 0.0
H1037 H 0.05003 0.02605 0.72283 0.0
H1038 H 0.03626 0.03577 0.75376 0.0
H1039 H 0.06957 0.04342 0.74642 0.0
H1040 H 0.02021 0.06241 0.8337 0.0
H1041 H 0.10129 0.0781 0.81824 0.0
H1042 H 0.0212 0.9955 0.81597 0.0
H1043 H 0.01107 0.01406 0.78819 0.0
H1044 H 0.99988 0.02329 0.82029 0.0
H1045 H 0.11928 0.01517 0.79841 0.0
H1046 H 0.1285 0.04911 0.79633 0.0
H1047 H 0.11134 0.03356 0.76979 0.0
C1048 C 0.41868 0.20161 0.21086 0.0
C1049 C 0.43001 0.18059 0.19737 0.0
C1050 C 0.43065 0.22643 0.21094 0.0
C1051 C 0.45449 0.23019 0.1973 0.0
C1052 C 0.46644 0.20871 0.1846 0.0
C1053 C 0.45407 0.18426 0.1848 0.0
C1054 C 0.41731 0.2488 0.22473 0.0
C1055 C 0.49188 0.21173 0.16989 0.0
C1056 C 0.47607 0.29473 0.16788 0.0
C1057 C 0.49736 0.3013 0.18389 0.0
C1058 C 0.4607 0.27255 0.17306 0.0
C1059 C 0.46661 0.25663 0.19494 0.0
C1060 C 0.48672 0.26434 0.21233 0.0
C1061 C 0.50193 0.28649 0.20652 0.0
C1062 C 0.4395 0.26502 0.15393 0.0
C1063 C 0.49337 0.24821 0.23611 0.0
H1064 H 0.39998 0.19894 0.22047 0.0
H1065 H 0.46304 0.16807 0.1745 0.0
H1066 H 0.43142 0.25943 0.23733 0.0
H1067 H 0.40983 0.26292 0.21007 0.0
H1068 H 0.40064 0.24209 0.23693 0.0
H1069 H 0.49905 0.19288 0.16185 0.0
H1070 H 0.48924 0.22566 0.15347 0.0
H1071 H 0.50716 0.21991 0.18293 0.0
H1072 H 0.47246 0.30587 0.15029 0.0
H1073 H 0.51813 0.29168 0.21916 0.0
H1074 H 0.42121 0.25992 0.16439 0.0
H1075 H 0.44572 0.24746 0.14283 0.0
H1076 H 0.43524 0.28094 0.13978 0.0
H1077 H 0.47535 0.24263 0.24682 0.0
H1078 H 0.50662 0.25881 0.24967 0.0
H1079 H 0.50317 0.22989 0.22991 0.0
C1080 C 0.5443 0.65967 0.9539 0.0
C1081 C 0.56698 0.67287 0.94604 0.0
C1082 C 0.51966 0.67171 0.9518 0.0
C1083 C 0.51798 0.69775 0.94244 0.0
C1084 C 0.54111 0.71152 0.9359 0.0
C1085 C 0.56526 0.69874 0.93736 0.0
C1086 C 0.49545 0.65635 0.95877 0.0
C1087 C 0.54031 0.73957 0.92667 0.0
C1088 C 0.45875 0.72722 0.90893 0.0
C1089 C 0.44839 0.74309 0.92879 0.0
C1090 C 0.48028 0.71081 0.91366 0.0
C1091 C 0.4922 0.7107 0.93865 0.0
C1092 C 0.48105 0.72543 0.95913 0.0
C1093 C 0.45901 0.74095 0.9541 0.0
C1094 C 0.49116 0.69464 0.89152 0.0
C1095 C 0.49349 0.72632 0.9859 0.0
H1096 H 0.54569 0.63951 0.96032 0.0
H1097 H 0.58289 0.70888 0.93131 0.0
H1098 H 0.48591 0.66518 0.9761 0.0
H1099 H 0.48112 0.65713 0.9425 0.0
H1100 H 0.4999 0.63557 0.96323 0.0
H1101 H 0.56017 0.74806 0.92437 0.0
H1102 H 0.5301 0.74069 0.90757 0.0
H1103 H 0.52916 0.75176 0.9407 0.0
H1104 H 0.45083 0.72825 0.88937 0.0
H1105 H 0.45081 0.75215 0.97001 0.0
H1106 H 0.49481 0.67429 0.89812 0.0
H1107 H 0.51017 0.70294 0.88515 0.0
H1108 H 0.47779 0.69416 0.87442 0.0
H1109 H 0.49714 0.70629 0.9933 0.0
H1110 H 0.48125 0.73695 1.00032 0.0
H1111 H 0.51273 0.73628 0.98457 0.0
C1112 C 0.08776 0.79679 0.70804 0.0
C1113 C 0.0763 0.81938 0.69759 0.0
C1114 C 0.07509 0.77241 0.70609 0.0
C1115 C 0.05012 0.7709 0.69412 0.0
C1116 C 0.03806 0.79397 0.68471 0.0
C1117 C 0.05145 0.81782 0.68625 0.0
C1118 C 0.08871 0.74825 0.71613 0.0
C1119 C 0.01129 0.79336 0.67223 0.0
C1120 C 0.02312 0.71027 0.6609 0.0
C1121 C 0.00439 0.7017 0.67907 0.0
C1122 C 0.03944 0.73172 0.66633 0.0
C1123 C 0.03674 0.74527 0.69031 0.0
C1124 C 0.01899 0.73589 0.70929 0.0
C1125 C 0.00326 0.71411 0.70356 0.0
C1126 C 0.05866 0.74073 0.64581 0.0
C1127 C 0.01544 0.74977 0.73508 0.0
H1128 H 0.10717 0.79794 0.71649 0.0
H1129 H 0.04263 0.83532 0.67816 0.0
H1130 H 0.07793 0.74038 0.73321 0.0
H1131 H 0.08881 0.73278 0.70094 0.0
H1132 H 0.10919 0.75229 0.72214 0.0
H1133 H 0.00398 0.81325 0.66746 0.0
H1134 H 0.01199 0.78174 0.65395 0.0
H1135 H 0.99707 0.78374 0.68548 0.0
H1136 H 0.02439 0.70103 0.64194 0.0
H1137 H 0.9895 0.70731 0.71811 0.0
H1138 H 0.07821 0.744 0.65466 0.0
H1139 H 0.05207 0.75964 0.63748 0.0
H1140 H 0.06064 0.7264 0.62962 0.0
H1141 H 0.03463 0.75319 0.74457 0.0
H1142 H 0.00278 0.73859 0.74874 0.0
H1143 H 0.00639 0.76918 0.73163 0.0
C1144 C 0.02711 0.23459 0.44323 0.0
C1145 C 0.0513 0.24443 0.43452 0.0
C1146 C 0.00594 0.2512 0.44859 0.0
C1147 C 0.00873 0.27849 0.44514 0.0
C1148 C 0.03344 0.28882 0.43809 0.0
C1149 C 0.05441 0.27174 0.43299 0.0
C1150 C 0.97998 0.23929 0.45615 0.0
C1151 C 0.03732 0.31785 0.43434 0.0
C1152 C 0.94749 0.31323 0.42187 0.0
C1153 C 0.93818 0.32509 0.44478 0.0
C1154 C 0.97064 0.29861 0.42175 0.0
C1155 C 0.98501 0.29552 0.44518 0.0
C1156 C 0.97597 0.30764 0.46841 0.0
C1157 C 0.95264 0.32235 0.46794 0.0
C1158 C 0.97952 0.28617 0.39649 0.0
C1159 C 0.99073 0.30476 0.49377 0.0
H1160 H 0.02401 0.21375 0.44468 0.0
H1161 H 0.07296 0.2799 0.42699 0.0
H1162 H 0.97132 0.24991 0.47294 0.0
H1163 H 0.96613 0.241 0.43954 0.0
H1164 H 0.9818 0.21829 0.4614 0.0
H1165 H 0.05832 0.32313 0.43253 0.0
H1166 H 0.02709 0.32421 0.4163 0.0
H1167 H 0.02874 0.3289 0.45088 0.0
H1168 H 0.93664 0.31532 0.4038 0.0
H1169 H 0.94568 0.33154 0.48569 0.0
H1170 H 0.97991 0.26459 0.39866 0.0
H1171 H 0.99969 0.29259 0.39172 0.0
H1172 H 0.96657 0.29116 0.37979 0.0
H1173 H 0.99096 0.28391 0.49976 0.0
H1174 H 0.98193 0.31648 0.50977 0.0
H1175 H 0.01137 0.31091 0.49114 0.0
C1176 C 0.97671 0.20582 0.82438 0.0
C1177 C 1.00071 0.20303 0.81135 0.0
C1178 C 0.95964 0.2265 0.8184 0.0
C1179 C 0.96667 0.24486 0.79889 0.0
C1180 C 0.98965 0.24074 0.78405 0.0
C1181 C 0.00634 0.21988 0.79043 0.0
C1182 C 0.93519 0.22996 0.83455 0.0
C1183 C 0.99773 0.25958 0.76283 0.0
C1184 C 0.9175 0.29819 0.78071 0.0
C1185 C 0.92524 0.31844 0.79751 0.0
C1186 C 0.93101 0.27414 0.78046 0.0
C1187 C 0.95271 0.27044 0.79732 0.0
C1188 C 0.96099 0.2912 0.81364 0.0
C1189 C 0.94718 0.31482 0.81354 0.0
C1190 C 0.9215 0.25246 0.76288 0.0
C1191 C 0.98411 0.28828 0.83183 0.0
H1192 H 0.97199 0.19298 0.84048 0.0
H1193 H 0.02449 0.21752 0.7798 0.0
H1194 H 0.93812 0.24625 0.84858 0.0
H1195 H 0.91835 0.23515 0.82194 0.0
H1196 H 0.93025 0.21203 0.84579 0.0
H1197 H 0.01357 0.25148 0.75039 0.0
H1198 H 0.98082 0.26466 0.75024 0.0
H1199 H 0.00489 0.27796 0.77188 0.0
H1200 H 0.90039 0.30078 0.76848 0.0
H1201 H 0.95337 0.33042 0.82647 0.0
H1202 H 0.91266 0.23674 0.77494 0.0
H1203 H 0.93806 0.2437 0.75198 0.0
H1204 H 0.90662 0.2594 0.74868 0.0
H1205 H 0.98019 0.2725 0.8462 0.0
H1206 H 0.98846 0.30656 0.84271 0.0
H1207 H 0.00176 0.28261 0.82061 0.0
C1208 C 0.44852 0.17729 0.52999 0.0
C1209 C 0.43335 0.17549 0.55276 0.0
C1210 C 0.47182 0.19211 0.52964 0.0
C1211 C 0.48013 0.20523 0.55261 0.0
C1212 C 0.46498 0.20318 0.57564 0.0
C1213 C 0.44186 0.18851 0.57538 0.0
C1214 C 0.48746 0.19388 0.50471 0.0
C1215 C 0.47313 0.2166 0.60068 0.0
C1216 C 0.54943 0.22814 0.56664 0.0
C1217 C 0.5469 0.25543 0.56433 0.0
C1218 C 0.52835 0.21129 0.56122 0.0
C1219 C 0.50416 0.22186 0.55292 0.0
C1220 C 0.50203 0.24912 0.54867 0.0
C1221 C 0.52328 0.26553 0.55452 0.0
C1222 C 0.53152 0.18233 0.56603 0.0
C1223 C 0.47667 0.26122 0.53964 0.0
H1224 H 0.44219 0.16719 0.51248 0.0
H1225 H 0.43047 0.18718 0.59318 0.0
H1226 H 0.48861 0.21455 0.49823 0.0
H1227 H 0.50777 0.18714 0.50818 0.0
H1228 H 0.47878 0.18203 0.48872 0.0
H1229 H 0.4595 0.21249 0.61708 0.0
H1230 H 0.493 0.21013 0.60647 0.0
H1231 H 0.47394 0.23806 0.59762 0.0
H1232 H 0.56765 0.21985 0.57344 0.0
H1233 H 0.52077 0.28642 0.55255 0.0
H1234 H 0.52328 0.17087 0.54958 0.0
H1235 H 0.52057 0.17676 0.5839 0.0
H1236 H 0.55233 0.17675 0.56874 0.0
H1237 H 0.46842 0.25012 0.52294 0.0
H1238 H 0.47919 0.28196 0.53369 0.0
H1239 H 0.46217 0.26043 0.55575 0.0
C1240 C 0.55151 0.67871 0.32921 0.0
C1241 C 0.57315 0.6761 0.31257 0.0
C1242 C 0.53914 0.70289 0.33278 0.0
C1243 C 0.5487 0.72521 0.31951 0.0
C1244 C 0.57025 0.72268 0.30226 0.0
C1245 C 0.58217 0.69808 0.29888 0.0
C1246 C 0.51601 0.70459 0.35105 0.0
C1247 C 0.58103 0.74604 0.28782 0.0
C1248 C 0.50058 0.78116 0.31205 0.0
C1249 C 0.50757 0.79774 0.33279 0.0
C1250 C 0.5142 0.75791 0.30716 0.0
C1251 C 0.5355 0.75094 0.32333 0.0
C1252 C 0.54289 0.76769 0.34418 0.0
C1253 C 0.52868 0.79082 0.3488 0.0
C1254 C 0.50534 0.74046 0.28503 0.0
C1255 C 0.56563 0.76101 0.36175 0.0
H1256 H 0.54441 0.66179 0.33984 0.0
H1257 H 0.5991 0.69628 0.28628 0.0
H1258 H 0.52036 0.71842 0.36717 0.0
H1259 H 0.49872 0.71227 0.34044 0.0
H1260 H 0.51083 0.68534 0.35967 0.0
H1261 H 0.5978 0.74082 0.27506 0.0
H1262 H 0.56552 0.75502 0.27561 0.0
H1263 H 0.58756 0.76109 0.30202 0.0
H1264 H 0.48397 0.78608 0.2999 0.0
H1265 H 0.53421 0.80365 0.36471 0.0
H1266 H 0.49855 0.72144 0.29296 0.0
H1267 H 0.52191 0.73634 0.27168 0.0
H1268 H 0.48918 0.74929 0.27351 0.0
H1269 H 0.56134 0.74275 0.37263 0.0
H1270 H 0.56989 0.77678 0.37605 0.0
H1271 H 0.58341 0.75741 0.34987 0.0
C1272 C 0.96637 0.74652 0.04784 0.0
C1273 C 0.94828 0.75117 0.06794 0.0
C1274 C 0.98761 0.76345 0.04358 0.0
C1275 C 0.99092 0.7856 0.05984 0.0
C1276 C 0.97143 0.79174 0.07849 0.0
C1277 C 0.9503 0.77454 0.08221 0.0
C1278 C 0.0076 0.75645 0.02307 0.0
C1279 C 0.97403 0.81529 0.0961 0.0
C1280 C 0.06042 0.8043 0.07805 0.0
C1281 C 0.06491 0.82641 0.06251 0.0
C1282 C 0.03658 0.79081 0.07702 0.0
C1283 C 0.01646 0.79975 0.06021 0.0
C1284 C 0.02089 0.82201 0.0443 0.0
C1285 C 0.04515 0.83503 0.04554 0.0
C1286 C 0.03286 0.76704 0.09418 0.0
C1287 C 0.99985 0.83238 0.02642 0.0
H1288 H 0.96464 0.7289 0.03624 0.0
H1289 H 0.93642 0.77862 0.09756 0.0
H1290 H 0.01315 0.77393 0.0115 0.0
H1291 H 0.02557 0.74909 0.03276 0.0
H1292 H 1.00032 0.7411 0.00954 0.0
H1293 H 0.9556 0.81951 0.10678 0.0
H1294 H 0.9897 0.81169 0.11066 0.0
H1295 H 0.97968 0.83283 0.08469 0.0
H1296 H 0.07564 0.79746 0.09111 0.0
H1297 H 0.04843 0.85228 0.03368 0.0
H1298 H 0.02796 0.74978 0.08199 0.0
H1299 H 0.01629 0.77027 0.10778 0.0
H1300 H 0.05058 0.76242 0.10586 0.0
H1301 H 0.99182 0.81643 0.01411 0.0
H1302 H 0.00717 0.84822 0.0135 0.0
H1303 H 0.98348 0.8402 0.03828 0.0
C1304 C 0.20594 0.50099 0.28717 0.0
C1305 C 0.18395 0.49785 0.30327 0.0
C1306 C 0.20998 0.48483 0.26536 0.0
C1307 C 0.19165 0.46492 0.25954 0.0
C1308 C 0.17066 0.46019 0.27694 0.0
C1309 C 0.16705 0.4767 0.29857 0.0
C1310 C 0.23279 0.49037 0.24749 0.0
C1311 C 0.15084 0.43892 0.27165 0.0
C1312 C 0.17756 0.45011 0.1883 0.0
C1313 C 0.19105 0.42664 0.18445 0.0
C1314 C 0.17816 0.46295 0.21248 0.0
C1315 C 0.19217 0.45175 0.23357 0.0
C1316 C 0.20596 0.42803 0.2298 0.0
C1317 C 0.20552 0.41589 0.20511 0.0
C1318 C 0.16343 0.48836 0.21552 0.0
C1319 C 0.22076 0.41528 0.2519 0.0
H1320 H 0.21943 0.51688 0.29097 0.0
H1321 H 0.15002 0.47393 0.31077 0.0
H1322 H 0.24296 0.47199 0.24218 0.0
H1323 H 0.22551 0.49932 0.22912 0.0
H1324 H 0.24715 0.50395 0.25652 0.0
H1325 H 0.13791 0.43538 0.28872 0.0
H1326 H 0.13846 0.44464 0.25478 0.0
H1327 H 0.16075 0.42036 0.26644 0.0
H1328 H 0.16644 0.45849 0.17232 0.0
H1329 H 0.21575 0.39757 0.20223 0.0
H1330 H 0.17684 0.50395 0.22246 0.0
H1331 H 0.14785 0.48607 0.23042 0.0
H1332 H 0.15428 0.49489 0.19694 0.0
H1333 H 0.23696 0.42822 0.25829 0.0
H1334 H 0.22905 0.39603 0.24623 0.0
H1335 H 0.2077 0.41244 0.26898 0.0
C1336 C 0.71295 0.08361 0.80312 0.0
C1337 C 0.69505 0.07847 0.82324 0.0
C1338 C 0.71102 0.07062 0.77893 0.0
C1339 C 0.69082 0.05205 0.7749 0.0
C1340 C 0.67292 0.04668 0.79526 0.0
C1341 C 0.67526 0.05991 0.8191 0.0
C1342 C 0.7304 0.07692 0.75761 0.0
C1343 C 0.65119 0.02692 0.79188 0.0
C1344 C 0.66825 0.03055 0.7073 0.0
C1345 C 0.68096 0.00644 0.70475 0.0
C1346 C 0.67219 0.04628 0.72954 0.0
C1347 C 0.68878 0.03733 0.74987 0.0
C1348 C 0.70179 0.01308 0.74722 0.0
C1349 C 0.69783 0.99804 0.72468 0.0
C1350 C 0.65819 0.07217 0.73154 0.0
C1351 C 0.71922 0.00256 0.76861 0.0
H1352 H 0.72809 0.09815 0.80607 0.0
H1353 H 0.66132 0.05581 0.83451 0.0
H1354 H 0.74097 0.05894 0.75169 0.0
H1355 H 0.71992 0.08427 0.7401 0.0
H1356 H 0.74494 0.09183 0.7638 0.0
H1357 H 0.63876 0.02515 0.80959 0.0
H1358 H 0.63858 0.03255 0.77517 0.0
H1359 H 0.65955 0.00743 0.78737 0.0
H1360 H 0.65534 0.03712 0.69185 0.0
H1361 H 0.70733 0.9792 0.72302 0.0
H1362 H 0.67226 0.08795 0.73641 0.0
H1363 H 0.64362 0.07135 0.74756 0.0
H1364 H 0.64793 0.07739 0.71313 0.0
H1365 H 0.73439 0.01717 0.7738 0.0
H1366 H 0.72905 0.98407 0.7629 0.0
H1367 H 0.70745 0.99885 0.78644 0.0
C1368 C 0.69868 0.94386 0.56271 0.0
C1369 C 0.67412 0.93286 0.56729 0.0
C1370 C 0.7105 0.94174 0.53805 0.0
C1371 C 0.69716 0.92858 0.51759 0.0
C1372 C 0.67172 0.91854 0.52197 0.0
C1373 C 0.66063 0.92052 0.54694 0.0
C1374 C 0.7377 0.95255 0.5342 0.0
C1375 C 0.65662 0.90485 0.50062 0.0
C1376 C 0.72412 0.939 0.44924 0.0
C1377 C 0.73986 0.91679 0.44607 0.0
C1378 C 0.70932 0.9427 0.47204 0.0
C1379 C 0.71058 0.92387 0.49226 0.0
C1380 C 0.72576 0.90098 0.4888 0.0
C1381 C 0.74011 0.89766 0.46568 0.0
C1382 C 0.69297 0.9671 0.4748 0.0
C1383 C 0.72771 0.88049 0.50997 0.0
H1384 H 0.70903 0.95318 0.57869 0.0
H1385 H 0.64162 0.91193 0.55074 0.0
H1386 H 0.75145 0.93632 0.53002 0.0
H1387 H 0.73811 0.96593 0.51714 0.0
H1388 H 0.74483 0.96333 0.55165 0.0
H1389 H 0.63597 0.90112 0.50627 0.0
H1390 H 0.65684 0.91665 0.48242 0.0
H1391 H 0.66604 0.88585 0.49613 0.0
H1392 H 0.72371 0.95368 0.43398 0.0
H1393 H 0.75252 0.88065 0.46349 0.0
H1394 H 0.70101 0.9795 0.49067 0.0
H1395 H 0.67264 0.96191 0.48032 0.0
H1396 H 0.69247 0.97878 0.4565 0.0
H1397 H 0.73677 0.88915 0.52768 0.0
H1398 H 0.73956 0.86337 0.50382 0.0
H1399 H 0.70793 0.87357 0.51553 0.0
C1400 C 0.81998 0.98131 0.19652 0.0
C1401 C 0.82216 0.00816 0.20191 0.0
C1402 C 0.81661 0.96295 0.21678 0.0
C1403 C 0.81556 0.97163 0.24305 0.0
C1404 C 0.81653 0.99873 0.24847 0.0
C1405 C 0.8198 0.01656 0.22794 0.0
C1406 C 0.81542 0.93421 0.21018 0.0
C1407 C 0.81569 0.00889 0.27619 0.0
C1408 C 0.79468 0.92957 0.30089 0.0
C1409 C 0.81897 0.92365 0.31214 0.0
C1410 C 0.79313 0.94416 0.27758 0.0
C1411 C 0.81642 0.95267 0.26519 0.0
C1412 C 0.84094 0.94539 0.27576 0.0
C1413 C 0.84189 0.93115 0.29913 0.0
C1414 C 0.76663 0.95149 0.26691 0.0
C1415 C 0.86628 0.95369 0.26304 0.0
H1416 H 0.82147 0.97457 0.17652 0.0
H1417 H 0.82187 0.03708 0.23261 0.0
H1418 H 0.83375 0.92456 0.21657 0.0
H1419 H 0.79907 0.92463 0.22073 0.0
H1420 H 0.81293 0.93084 0.18888 0.0
H1421 H 0.81436 0.03055 0.27699 0.0
H1422 H 0.79874 1.0005 0.2868 0.0
H1423 H 0.83364 0.00274 0.28672 0.0
H1424 H 0.77689 0.92365 0.31078 0.0
H1425 H 0.86075 0.92617 0.30743 0.0
H1426 H 0.76564 0.94745 0.24564 0.0
H1427 H 0.76342 0.97277 0.2696 0.0
H1428 H 0.75057 0.94077 0.27685 0.0
H1429 H 0.86621 0.94848 0.24201 0.0
H1430 H 0.88359 0.9445 0.2724 0.0
H1431 H 0.86839 0.97524 0.26438 0.0
C1432 C 0.8357 0.03653 0.04565 0.0
C1433 C 0.826 0.05052 0.06713 0.0
C1434 C 0.82243 0.03685 0.02148 0.0
C1435 C 0.79895 0.05135 0.01893 0.0
C1436 C 0.78857 0.06444 0.04099 0.0
C1437 C 0.80225 0.06392 0.0647 0.0
C1438 C 0.83416 0.02268 0.99846 0.0
C1439 C 0.76348 0.07993 0.03934 0.0
C1440 C 0.77437 0.08252 0.9564 0.0
C1441 C 0.75194 0.06755 0.9513 0.0
C1442 C 0.79117 0.07625 0.97722 0.0
C1443 C 0.78554 0.0543 0.99318 0.0
C1444 C 0.76432 0.03778 0.98661 0.0
C1445 C 0.74767 0.04471 0.96587 0.0
C1446 C 0.8136 0.09441 0.98347 0.0
C1447 C 0.75798 0.01387 0.00268 0.0
H1448 H 0.85423 0.02639 0.04736 0.0
H1449 H 0.79462 0.07465 0.0813 0.0
H1450 H 0.81896 0.01139 0.98786 0.0
H1451 H 0.8424 0.03714 0.98456 0.0
H1452 H 0.85005 0.00916 0.00449 0.0
H1453 H 0.75754 0.0881 0.05855 0.0
H1454 H 0.76591 0.09634 0.02536 0.0
H1455 H 0.74741 0.06739 0.03193 0.0
H1456 H 0.77781 0.10021 0.94534 0.0
H1457 H 0.73061 0.03284 0.96173 0.0
H1458 H 0.83171 0.08315 0.98736 0.0
H1459 H 0.80897 0.10565 0.00143 0.0
H1460 H 0.81745 0.10849 0.96739 0.0
H1461 H 0.77599 0.00264 0.00711 0.0
H1462 H 0.74385 1.00081 0.99259 0.0
H1463 H 0.74931 0.02 0.02158 0.0
C1464 C 0.32108 0.48781 0.76649 0.0
C1465 C 0.32003 0.49521 0.79288 0.0
C1466 C 0.31561 0.50565 0.74642 0.0
C1467 C 0.30864 0.53166 0.75273 0.0
C1468 C 0.30673 0.53915 0.77935 0.0
C1469 C 0.31271 0.52088 0.79913 0.0
C1470 C 0.31849 0.49689 0.71837 0.0
C1471 C 0.29909 0.56661 0.78689 0.0
C1472 C 0.32729 0.5793 0.6992 0.0
C1473 C 0.30384 0.58184 0.68519 0.0
C1474 C 0.32864 0.56439 0.72214 0.0
C1475 C 0.30603 0.55131 0.73128 0.0
C1476 C 0.28194 0.55479 0.71793 0.0
C1477 C 0.28108 0.57021 0.69508 0.0
C1478 C 0.35467 0.56157 0.73581 0.0
C1479 C 0.25741 0.54121 0.72706 0.0
H1480 H 0.32729 0.46824 0.7614 0.0
H1481 H 0.3118 0.52668 0.81947 0.0
H1482 H 0.30047 0.5014 0.70719 0.0
H1483 H 0.33482 0.50769 0.70902 0.0
H1484 H 0.32249 0.47561 0.71674 0.0
H1485 H 0.29583 0.56861 0.80825 0.0
H1486 H 0.31473 0.58043 0.78098 0.0
H1487 H 0.28101 0.5725 0.77646 0.0
H1488 H 0.34486 0.58869 0.69197 0.0
H1489 H 0.26289 0.57224 0.68439 0.0
H1490 H 0.36177 0.54118 0.73375 0.0
H1491 H 0.35259 0.56559 0.757 0.0
H1492 H 0.36974 0.57496 0.7277 0.0
H1493 H 0.25925 0.51987 0.72364 0.0
H1494 H 0.23975 0.54834 0.71662 0.0
H1495 H 0.25464 0.54412 0.74836 0.0
C1496 C 0.16838 0.53328 0.45472 0.0
C1497 C 0.17795 0.54846 0.43398 0.0
C1498 C 0.18122 0.53307 0.47911 0.0
C1499 C 0.20413 0.54831 0.48268 0.0
C1500 C 0.21434 0.56276 0.4614 0.0
C1501 C 0.20114 0.56267 0.43742 0.0
C1502 C 0.1697 0.51744 0.5013 0.0
C1503 C 0.23878 0.57917 0.46418 0.0
C1504 C 0.22644 0.5774 0.547 0.0
C1505 C 0.24919 0.56291 0.55207 0.0
C1506 C 0.21033 0.57155 0.52554 0.0
C1507 C 0.21701 0.55059 0.50875 0.0
C1508 C 0.23864 0.53452 0.51505 0.0
C1509 C 0.2545 0.54092 0.53656 0.0
C1510 C 0.18741 0.5892 0.51964 0.0
C1511 C 0.24619 0.51171 0.49796 0.0
H1512 H 0.15033 0.52244 0.45223 0.0
H1513 H 0.20874 0.57431 0.42142 0.0
H1514 H 0.1851 0.50587 0.51127 0.0
H1515 H 0.16125 0.53095 0.51599 0.0
H1516 H 0.15405 0.50398 0.49454 0.0
H1517 H 0.24471 0.58843 0.44545 0.0
H1518 H 0.23547 0.59483 0.47881 0.0
H1519 H 0.25521 0.56697 0.47134 0.0
H1520 H 0.22211 0.59445 0.55868 0.0
H1521 H 0.27174 0.52933 0.54062 0.0
H1522 H 0.16979 0.57751 0.51479 0.0
H1523 H 0.19204 0.60148 0.50236 0.0
H1524 H 0.18272 0.60232 0.53629 0.0
H1525 H 0.22871 0.49998 0.49268 0.0
H1526 H 0.26067 0.49875 0.50765 0.0
H1527 H 0.25489 0.51911 0.47953 0.0
C1528 C 0.26634 0.45316 0.04182 0.0
C1529 C 0.26246 0.42738 0.05069 0.0
C1530 C 0.28085 0.45856 0.01919 0.0
C1531 C 0.29284 0.43784 0.00547 0.0
C1532 C 0.29102 0.41205 0.01547 0.0
C1533 C 0.27559 0.40705 0.03772 0.0
C1534 C 0.28194 0.48631 0.00913 0.0
C1535 C 0.30454 0.38955 0.00202 0.0
C1536 C 0.30134 0.44262 0.93187 0.0
C1537 C 0.32762 0.44986 0.92948 0.0
C1538 C 0.28967 0.43954 0.95648 0.0
C1539 C 0.30495 0.44277 0.97937 0.0
C1540 C 0.3315 0.45048 0.97708 0.0
C1541 C 0.34239 0.45446 0.95211 0.0
C1542 C 0.26108 0.43227 0.95796 0.0
C1543 C 0.34859 0.45391 0.0009 0.0
H1544 H 0.25737 0.4693 0.05205 0.0
H1545 H 0.27318 0.3871 0.0443 0.0
H1546 H 0.30246 0.49235 0.00571 0.0
H1547 H 0.27161 0.4875 0.99009 0.0
H1548 H 0.27278 0.50043 0.02283 0.0
H1549 H 0.30412 0.37143 0.01398 0.0
H1550 H 0.29482 0.3855 0.98307 0.0
H1551 H 0.32521 0.39468 0.99779 0.0
H1552 H 0.28996 0.43895 0.91435 0.0
H1553 H 0.36284 0.45973 0.95029 0.0
H1554 H 0.25054 0.4461 0.97092 0.0
H1555 H 0.25897 0.41246 0.96652 0.0
H1556 H 0.25153 0.43239 0.93846 0.0
H1557 H 0.34314 0.47218 0.01117 0.0
H1558 H 0.36965 0.45512 0.99574 0.0
H1559 H 0.3457 0.43752 0.01482 0.0
C1560 C 0.14863 0.29959 0.20734 0.0
C1561 C 0.16069 0.32372 0.20255 0.0
C1562 C 0.1442 0.2908 0.23291 0.0
C1563 C 0.15189 0.30663 0.25428 0.0
C1564 C 0.16502 0.33058 0.2496 0.0
C1565 C 0.16935 0.33881 0.22374 0.0
C1566 C 0.13034 0.26503 0.23701 0.0
C1567 C 0.1735 0.34801 0.27184 0.0
C1568 C 0.11048 0.29627 0.31482 0.0
C1569 C 0.12571 0.27854 0.32913 0.0
C1570 C 0.11934 0.30648 0.29097 0.0
C1571 C 0.14414 0.29893 0.28126 0.0
C1572 C 0.16026 0.28225 0.29637 0.0
C1573 C 0.15088 0.27235 0.32022 0.0
C1574 C 0.10148 0.32413 0.27545 0.0
C1575 C 0.18684 0.27379 0.28676 0.0
H1576 H 0.14234 0.28771 0.19099 0.0
H1577 H 0.17854 0.35756 0.22011 0.0
H1578 H 0.1417 0.25243 0.25052 0.0
H1579 H 0.111 0.26852 0.24617 0.0
H1580 H 0.12729 0.25426 0.21841 0.0
H1581 H 0.18562 0.3647 0.26503 0.0
H1582 H 0.15601 0.35589 0.28194 0.0
H1583 H 0.18481 0.33663 0.28643 0.0
H1584 H 0.09101 0.30119 0.32158 0.0
H1585 H 0.16295 0.25911 0.33152 0.0
H1586 H 0.09519 0.31398 0.25734 0.0
H1587 H 0.11198 0.34215 0.26948 0.0
H1588 H 0.08375 0.3298 0.28663 0.0
H1589 H 0.1845 0.26063 0.26969 0.0
H1590 H 0.19809 0.26323 0.30204 0.0
H1591 H 0.19834 0.29097 0.28018 0.0
C1592 C 0.45985 0.41498 0.9607 0.0
C1593 C 0.43395 0.42066 0.95358 0.0
C1594 C 0.46603 0.40557 0.98566 0.0
C1595 C 0.44579 0.40135 0.00403 0.0
C1596 C 0.41954 0.40654 0.99696 0.0
C1597 C 0.41396 0.41632 0.97191 0.0
C1598 C 0.49428 0.39997 0.99231 0.0
C1599 C 0.39736 0.40237 0.01596 0.0
C1600 C 0.46277 0.35399 0.05842 0.0
C1601 C 0.47225 0.37099 0.07769 0.0
C1602 C 0.45323 0.36367 0.03462 0.0
C1603 C 0.45241 0.39101 0.03038 0.0
C1604 C 0.46039 0.40828 0.05049 0.0
C1605 C 0.47075 0.39804 0.07375 0.0
C1606 C 0.44542 0.34462 0.01346 0.0
C1607 C 0.45899 0.43755 0.04701 0.0
H1608 H 0.47545 0.41766 0.9467 0.0
H1609 H 0.39392 0.42087 0.9669 0.0
H1610 H 0.50048 0.41205 0.00922 0.0
H1611 H 0.49652 0.37917 0.99807 0.0
H1612 H 0.50766 0.40406 0.97572 0.0
H1613 H 0.37817 0.40138 0.00583 0.0
H1614 H 0.40001 0.38415 0.0274 0.0
H1615 H 0.39687 0.41892 0.02998 0.0
H1616 H 0.46431 0.33305 0.0613 0.0
H1617 H 0.47815 0.41116 0.08867 0.0
H1618 H 0.45898 0.34654 0.99664 0.0
H1619 H 0.42548 0.34915 0.00624 0.0
H1620 H 0.44582 0.32403 0.02034 0.0
H1621 H 0.47372 0.44388 0.03241 0.0
H1622 H 0.46274 0.44816 0.06557 0.0
H1623 H 0.43946 0.44327 0.03947 0.0
C1624 C 0.34677 0.74666 0.81346 0.0
C1625 C 0.37277 0.75514 0.81326 0.0
C1626 C 0.33727 0.73025 0.79357 0.0
C1627 C 0.35442 0.72188 0.77347 0.0
C1628 C 0.38134 0.7282 0.77497 0.0
C1629 C 0.3901 0.7452 0.79461 0.0
C1630 C 0.30839 0.72432 0.79254 0.0
C1631 C 0.40044 0.71921 0.75438 0.0
C1632 C 0.33025 0.67511 0.72063 0.0
C1633 C 0.32384 0.6926 0.7004 0.0
C1634 C 0.34028 0.68418 0.74461 0.0
C1635 C 0.34361 0.71137 0.74858 0.0
C1636 C 0.33713 0.72905 0.72831 0.0
C1637 C 0.32768 0.71946 0.70451 0.0
C1638 C 0.34734 0.66473 0.76563 0.0
C1639 C 0.34025 0.75826 0.73169 0.0
H1640 H 0.33334 0.75473 0.82773 0.0
H1641 H 0.41022 0.75192 0.79452 0.0
H1642 H 0.29904 0.73703 0.77764 0.0
H1643 H 0.30487 0.70374 0.78672 0.0
H1644 H 0.29872 0.72797 0.81163 0.0
H1645 H 0.42102 0.72135 0.76099 0.0
H1646 H 0.39688 0.69847 0.74911 0.0
H1647 H 0.39779 0.73111 0.73644 0.0
H1648 H 0.3272 0.65435 0.71793 0.0
H1649 H 0.32348 0.73321 0.68902 0.0
H1650 H 0.33568 0.66858 0.78349 0.0
H1651 H 0.36823 0.66697 0.77103 0.0
H1652 H 0.3439 0.64421 0.75938 0.0
H1653 H 0.32921 0.76496 0.74911 0.0
H1654 H 0.33324 0.7694 0.71442 0.0
H1655 H 0.36114 0.76314 0.73496 0.0
C1656 C 0.0855 0.59743 0.47193 0.0
C1657 C 0.0699 0.57909 0.45875 0.0
C1658 C 0.07899 0.60591 0.49727 0.0
C1659 C 0.05637 0.59578 0.50963 0.0
C1660 C 0.0409 0.57688 0.49661 0.0
C1661 C 0.04791 0.56873 0.47146 0.0
C1662 C 0.09596 0.62606 0.51057 0.0
C1663 C 0.01666 0.56545 0.50909 0.0
C1664 C 0.04238 0.59672 0.58232 0.0
C1665 C 0.02254 0.61559 0.58365 0.0
C1666 C 0.05521 0.59143 0.55862 0.0
C1667 C 0.04797 0.60531 0.53579 0.0
C1668 C 0.02956 0.62586 0.53754 0.0
C1669 C 0.01712 0.6308 0.56145 0.0
C1670 C 0.07498 0.56956 0.55761 0.0
C1671 C 0.02132 0.64124 0.51372 0.0
H1672 H 0.10245 0.6056 0.46221 0.0
H1673 H 0.03612 0.55408 0.46175 0.0
H1674 H 0.0847 0.64436 0.51338 0.0
H1675 H 0.10189 0.61907 0.53023 0.0
H1676 H 0.11384 0.63063 0.49912 0.0
H1677 H 0.00706 0.55057 0.49651 0.0
H1678 H 0.02171 0.55622 0.52804 0.0
H1679 H 0.00234 0.58122 0.51317 0.0
H1680 H 0.04687 0.585 0.59938 0.0
H1681 H 0.00205 0.64565 0.56229 0.0
H1682 H 0.09232 0.57543 0.54599 0.0
H1683 H 0.06612 0.55232 0.54787 0.0
H1684 H 0.08153 0.56361 0.57743 0.0
H1685 H 0.03864 0.64744 0.50225 0.0
H1686 H 0.00976 0.65884 0.51897 0.0
H1687 H 0.00915 0.62864 0.50091 0.0
C1688 C 0.67627 0.16915 0.77634 0.0
C1689 C 0.67233 0.1863 0.79733 0.0
C1690 C 0.66806 0.17582 0.75098 0.0
C1691 C 0.65516 0.19997 0.74671 0.0
C1692 C 0.65069 0.21707 0.76798 0.0
C1693 C 0.65952 0.21011 0.79297 0.0
C1694 C 0.67344 0.15719 0.72875 0.0
C1695 C 0.6365 0.24271 0.76436 0.0
C1696 C 0.65212 0.23117 0.67929 0.0
C1697 C 0.62683 0.22444 0.67133 0.0
C1698 C 0.66188 0.22286 0.70358 0.0
C1699 C 0.64593 0.20735 0.72013 0.0
C1700 C 0.62057 0.2 0.7118 0.0
C1701 C 0.61141 0.2085 0.6874 0.0
C1702 C 0.68908 0.23098 0.71168 0.0
C1703 C 0.60283 0.18381 0.72897 0.0
H1704 H 0.68642 0.15087 0.77966 0.0
H1705 H 0.6562 0.22321 0.80926 0.0
H1706 H 0.65474 0.1504 0.72011 0.0
H1707 H 0.68447 0.16736 0.71309 0.0
H1708 H 0.6848 0.13981 0.73514 0.0
H1709 H 0.6343 0.25362 0.783 0.0
H1710 H 0.64722 0.25523 0.75027 0.0
H1711 H 0.61677 0.23911 0.75607 0.0
H1712 H 0.66427 0.2429 0.66648 0.0
H1713 H 0.59186 0.20319 0.68113 0.0
H1714 H 0.70071 0.21353 0.7172 0.0
H1715 H 0.68801 0.24381 0.72912 0.0
H1716 H 0.69951 0.24171 0.69593 0.0
H1717 H 0.61264 0.16531 0.73458 0.0
H1718 H 0.58402 0.17899 0.71922 0.0
H1719 H 0.59855 0.19461 0.74727 0.0
C1720 C 0.57528 0.92669 0.53717 0.0
C1721 C 0.57689 0.90488 0.55384 0.0
C1722 C 0.56285 0.92497 0.51273 0.0
C1723 C 0.5512 0.90109 0.50503 0.0
C1724 C 0.5543 0.87865 0.52088 0.0
C1725 C 0.56735 0.88075 0.54485 0.0
C1726 C 0.5607 0.9492 0.49602 0.0
C1727 C 0.54207 0.85277 0.51351 0.0
C1728 C 0.48617 0.90111 0.47046 0.0
C1729 C 0.49255 0.89066 0.44595 0.0
C1730 C 0.50536 0.90596 0.48925 0.0
C1731 C 0.53181 0.90047 0.48338 0.0
C1732 C 0.53871 0.89175 0.45799 0.0
C1733 C 0.51889 0.88682 0.43947 0.0
C1734 C 0.49702 0.9154 0.51598 0.0
C1735 C 0.5668 0.88638 0.45082 0.0
H1736 H 0.5827 0.94545 0.54345 0.0
H1737 H 0.56926 0.86347 0.55686 0.0
H1738 H 0.56266 0.94432 0.47499 0.0
H1739 H 0.5412 0.95822 0.49892 0.0
H1740 H 0.5758 0.96391 0.50127 0.0
H1741 H 0.54835 0.83665 0.52663 0.0
H1742 H 0.52046 0.85443 0.51458 0.0
H1743 H 0.54717 0.8475 0.49313 0.0
H1744 H 0.46587 0.90472 0.47537 0.0
H1745 H 0.52391 0.87894 0.42047 0.0
H1746 H 0.50808 0.93322 0.52147 0.0
H1747 H 0.50141 0.90017 0.53079 0.0
H1748 H 0.4758 0.91994 0.51689 0.0
H1749 H 0.57992 0.90168 0.4589 0.0
H1750 H 0.56952 0.8854 0.42931 0.0
H1751 H 0.57288 0.86738 0.45931 0.0
C1752 C 0.87086 0.80415 0.29406 0.0
C1753 C 0.85483 0.82589 0.29841 0.0
C1754 C 0.87451 0.79417 0.26883 0.0
C1755 C 0.86183 0.8063 0.24743 0.0
C1756 C 0.84537 0.8281 0.25169 0.0
C1757 C 0.84207 0.83765 0.27716 0.0
C1758 C 0.89215 0.7708 0.26507 0.0
C1759 C 0.83161 0.84157 0.22932 0.0
C1760 C 0.89482 0.79401 0.18241 0.0
C1761 C 0.88035 0.77277 0.17282 0.0
C1762 C 0.88818 0.80599 0.20613 0.0
C1763 C 0.86658 0.79648 0.22057 0.0
C1764 C 0.85094 0.77613 0.21024 0.0
C1765 C 0.8579 0.76466 0.18635 0.0
C1766 C 0.9052 0.82782 0.21643 0.0
C1767 C 0.82771 0.76551 0.22505 0.0
H1768 H 0.88043 0.79479 0.31047 0.0
H1769 H 0.82993 0.85469 0.28037 0.0
H1770 H 0.88128 0.75479 0.25526 0.0
H1771 H 0.90879 0.77616 0.25222 0.0
H1772 H 0.90007 0.76331 0.28384 0.0
H1773 H 0.81884 0.85778 0.23605 0.0
H1774 H 0.84623 0.8496 0.21547 0.0
H1775 H 0.81952 0.82728 0.21835 0.0
H1776 H 0.91206 0.80059 0.172 0.0
H1777 H 0.84624 0.74869 0.17877 0.0
H1778 H 0.91595 0.82096 0.23397 0.0
H1779 H 0.89302 0.8447 0.2225 0.0
H1780 H 0.91966 0.83463 0.20173 0.0
H1781 H 0.83453 0.75562 0.2431 0.0
H1782 H 0.81628 0.75123 0.21332 0.0
H1783 H 0.81459 0.78167 0.23109 0.0
C1784 C 0.97744 0.14825 0.94148 0.0
C1785 C 0.97612 0.13418 0.91809 0.0
C1786 C 0.96781 0.13758 0.96481 0.0
C1787 C 0.95609 0.11248 0.96453 0.0
C1788 C 0.95382 0.09865 0.94062 0.0
C1789 C 0.96435 0.10951 0.91768 0.0
C1790 C 0.97133 0.15264 0.98995 0.0
C1791 C 0.94098 0.0721 0.93945 0.0
C1792 C 0.95955 0.07409 0.02783 0.0
C1793 C 0.93513 0.07936 0.0393 0.0
C1794 C 0.96641 0.08444 0.0034 0.0
C1795 C 0.94819 0.09997 0.98958 0.0
C1796 C 0.92313 0.10454 1.00036 0.0
C1797 C 0.91698 0.09441 0.02516 0.0
C1798 C 0.99348 0.07932 0.99272 0.0
C1799 C 0.903 0.1206 0.98595 0.0
H1800 H 0.98707 0.16715 0.94169 0.0
H1801 H 0.96366 0.09865 0.8995 0.0
H1802 H 0.95228 0.15493 1.00004 0.0
H1803 H 0.98441 0.14161 0.00328 0.0
H1804 H 0.97988 0.17234 0.98665 0.0
H1805 H 0.93825 0.06524 0.91904 0.0
H1806 H 0.95318 0.05762 0.95 0.0
H1807 H 0.92166 0.07265 0.94928 0.0
H1808 H 0.97361 0.06199 0.03793 0.0
H1809 H 0.8981 0.0988 0.03356 0.0
H1810 H 0.00406 0.0981 0.99021 0.0
H1811 H 0.99219 0.07001 0.9732 0.0
H1812 H 0.00523 0.06649 0.00571 0.0
H1813 H 0.90959 0.14123 0.98482 0.0
H1814 H 0.88358 0.12007 0.99567 0.0
H1815 H 0.90078 0.1134 0.96562 0.0
C1816 C 0.30708 0.12396 0.25147 0.0
C1817 C 0.33019 0.13226 0.26381 0.0
C1818 C 0.28246 0.13027 0.26169 0.0
C1819 C 0.28084 0.14452 0.28531 0.0
C1820 C 0.30402 0.15085 0.29911 0.0
C1821 C 0.32847 0.1449 0.28806 0.0
C1822 C 0.25829 0.12331 0.24618 0.0
C1823 C 0.30301 0.16538 0.32475 0.0
C1824 C 0.22301 0.19035 0.29233 0.0
C1825 C 0.20666 0.17639 0.30927 0.0
C1826 C 0.24728 0.18026 0.28466 0.0
C1827 C 0.25526 0.15539 0.29389 0.0
C1828 C 0.2387 0.14107 0.31084 0.0
C1829 C 0.21466 0.15189 0.31855 0.0
C1830 C 0.26437 0.19623 0.26662 0.0
C1831 C 0.24625 0.11426 0.32057 0.0
H1832 H 0.30809 0.11378 0.23295 0.0
H1833 H 0.34619 0.15104 0.29793 0.0
H1834 H 0.24332 0.11426 0.25898 0.0
H1835 H 0.24964 0.14138 0.23785 0.0
H1836 H 0.26266 0.10969 0.22985 0.0
H1837 H 0.32237 0.16595 0.33459 0.0
H1838 H 0.29646 0.18575 0.32126 0.0
H1839 H 0.28865 0.15614 0.33812 0.0
H1840 H 0.21691 0.20942 0.28541 0.0
H1841 H 0.20183 0.14101 0.33143 0.0
H1842 H 0.26811 0.18522 0.24833 0.0
H1843 H 0.28359 0.19994 0.27599 0.0
H1844 H 0.2554 0.21533 0.26147 0.0
H1845 H 0.24913 0.10086 0.30378 0.0
H1846 H 0.23122 0.10573 0.33372 0.0
H1847 H 0.2651 0.1153 0.33126 0.0
C1848 C 0.63045 0.56045 0.01595 0.0
C1849 C 0.6157 0.58283 0.02189 0.0
C1850 C 0.6245 0.53617 0.02719 0.0
C1851 C 0.60343 0.53422 0.04499 0.0
C1852 C 0.58999 0.5571 0.05283 0.0
C1853 C 0.59628 0.58118 0.04116 0.0
C1854 C 0.63941 0.51228 0.01835 0.0
C1855 C 0.5676 0.55586 0.072 0.0
C1856 C 0.56467 0.47104 0.04326 0.0
C1857 C 0.574 0.45778 0.06539 0.0
C1858 C 0.57411 0.49587 0.03654 0.0
C1859 C 0.59322 0.50801 0.05247 0.0
C1860 C 0.60257 0.49497 0.075 0.0
C1861 C 0.59292 0.46996 0.08115 0.0
C1862 C 0.56362 0.50908 0.01228 0.0
C1863 C 0.62292 0.50732 0.09245 0.0
H1864 H 0.64574 0.56154 0.00132 0.0
H1865 H 0.58487 0.59834 0.04603 0.0
H1866 H 0.64487 0.49993 0.0353 0.0
H1867 H 0.62677 0.50032 0.00539 0.0
H1868 H 0.65743 0.51752 0.00742 0.0
H1869 H 0.56173 0.57558 0.07892 0.0
H1870 H 0.55047 0.54654 0.06248 0.0
H1871 H 0.57289 0.54371 0.08916 0.0
H1872 H 0.5497 0.46217 0.03124 0.0
H1873 H 0.60048 0.45985 0.09813 0.0
H1874 H 0.57986 0.51329 0.99853 0.0
H1875 H 0.55453 0.52805 0.01752 0.0
H1876 H 0.54883 0.49695 0.00197 0.0
H1877 H 0.64126 0.51042 0.08131 0.0
H1878 H 0.62734 0.49511 0.10986 0.0
H1879 H 0.61616 0.5268 0.09916 0.0
C1880 C 0.17834 0.8415 0.7892 0.0
C1881 C 0.17469 0.86102 0.77028 0.0
C1882 C 0.20235 0.83879 0.80228 0.0
C1883 C 0.22336 0.85561 0.79582 0.0
C1884 C 0.2194 0.87613 0.77766 0.0
C1885 C 0.19501 0.87881 0.76539 0.0
C1886 C 0.20557 0.81723 0.82218 0.0
C1887 C 0.24136 0.89435 0.77003 0.0
C1888 C 0.28423 0.86213 0.83779 0.0
C1889 C 0.30179 0.84588 0.82454 0.0
C1890 C 0.25823 0.86456 0.82941 0.0
C1891 C 0.24991 0.85096 0.8068 0.0
C1892 C 0.26751 0.83395 0.79376 0.0
C1893 C 0.29322 0.83134 0.80308 0.0
C1894 C 0.23988 0.8821 0.84442 0.0
C1895 C 0.2595 0.81929 0.76944 0.0
H1896 H 0.16268 0.82778 0.7932 0.0
H1897 H 0.19244 0.89392 0.75078 0.0
H1898 H 0.21923 0.80223 0.81455 0.0
H1899 H 0.21419 0.82508 0.84046 0.0
H1900 H 0.1867 0.80757 0.82692 0.0
H1901 H 0.2348 0.90995 0.75642 0.0
H1902 H 0.24989 0.90367 0.78765 0.0
H1903 H 0.25717 0.88303 0.76043 0.0
H1904 H 0.29098 0.87294 0.85471 0.0
H1905 H 0.30698 0.81874 0.79306 0.0
H1906 H 0.22146 0.87157 0.84896 0.0
H1907 H 0.23467 0.8993 0.83229 0.0
H1908 H 0.24865 0.88914 0.863 0.0
H1909 H 0.24192 0.80722 0.7734 0.0
H1910 H 0.27529 0.80633 0.76207 0.0
H1911 H 0.25425 0.8334 0.75382 0.0
C1912 C 0.91195 0.42211 0.54149 0.0
C1913 C 0.89157 0.41743 0.52373 0.0
C1914 C 0.91517 0.44674 0.55318 0.0
C1915 C 0.89772 0.46724 0.54677 0.0
C1916 C 0.87585 0.46202 0.53065 0.0
C1917 C 0.8729 0.43711 0.51952 0.0
C1918 C 0.9385 0.45137 0.57066 0.0
C1919 C 0.85678 0.48331 0.52329 0.0
C1920 C 0.90195 0.53222 0.58298 0.0
C1921 C 0.91762 0.54701 0.56597 0.0
C1922 C 0.89527 0.50618 0.57713 0.0
C1923 C 0.90444 0.49471 0.55369 0.0
C1924 C 0.92027 0.50953 0.53648 0.0
C1925 C 0.92671 0.53538 0.54287 0.0
C1926 C 0.87842 0.49096 0.59598 0.0
C1927 C 0.93058 0.49803 0.5113 0.0
H1928 H 0.92631 0.40697 0.54516 0.0
H1929 H 0.85692 0.43375 0.50606 0.0
H1930 H 0.95331 0.46309 0.55997 0.0
H1931 H 0.93279 0.46264 0.58827 0.0
H1932 H 0.94774 0.43276 0.57696 0.0
H1933 H 0.83895 0.47535 0.51375 0.0
H1934 H 0.85089 0.49469 0.54076 0.0
H1935 H 0.86635 0.49706 0.5095 0.0
H1936 H 0.89468 0.54107 0.60077 0.0
H1937 H 0.93931 0.54634 0.52987 0.0
H1938 H 0.88875 0.47299 0.60233 0.0
H1939 H 0.86013 0.4847 0.58613 0.0
H1940 H 0.87322 0.50257 0.61357 0.0
H1941 H 0.94286 0.48068 0.51558 0.0
H1942 H 0.94247 0.51225 0.49996 0.0
H1943 H 0.91408 0.49137 0.49888 0.0
C1944 C 0.82486 0.35904 0.72025 0.0
C1945 C 0.82367 0.38484 0.72932 0.0
C1946 C 0.80276 0.34695 0.70925 0.0
C1947 C 0.7787 0.36063 0.70843 0.0
C1948 C 0.7776 0.38689 0.71713 0.0
C1949 C 0.80023 0.39881 0.72707 0.0
C1950 C 0.80494 0.31923 0.6994 0.0
C1951 C 0.75217 0.40189 0.71742 0.0
C1952 C 0.72123 0.33687 0.66757 0.0
C1953 C 0.70612 0.32324 0.68614 0.0
C1954 C 0.74518 0.34854 0.67434 0.0
C1955 C 0.75425 0.34697 0.7004 0.0
C1956 C 0.73945 0.33308 0.71918 0.0
C1957 C 0.7158 0.32125 0.71181 0.0
C1958 C 0.76064 0.36282 0.65363 0.0
C1959 C 0.74837 0.3311 0.74728 0.0
H1960 H 0.84296 0.3482 0.7222 0.0
H1961 H 0.79913 0.41857 0.73465 0.0
H1962 H 0.79414 0.30589 0.71265 0.0
H1963 H 0.79595 0.31748 0.67973 0.0
H1964 H 0.82558 0.31258 0.69828 0.0
H1965 H 0.75485 0.4225 0.72372 0.0
H1966 H 0.7431 0.40177 0.69774 0.0
H1967 H 0.73823 0.39227 0.73098 0.0
H1968 H 0.71448 0.33877 0.64767 0.0
H1969 H 0.70494 0.31061 0.72645 0.0
H1970 H 0.78112 0.35567 0.6533 0.0
H1971 H 0.76131 0.384 0.65827 0.0
H1972 H 0.75209 0.36038 0.63382 0.0
H1973 H 0.7679 0.32176 0.74829 0.0
H1974 H 0.73461 0.31961 0.75954 0.0
H1975 H 0.75032 0.35095 0.75581 0.0
C1976 C 0.38933 0.95723 0.45273 0.0
C1977 C 0.40173 0.95268 0.42877 0.0
C1978 C 0.38488 0.98274 0.4617 0.0
C1979 C 0.39264 0.00429 0.44611 0.0
C1980 C 0.4057 0.99982 0.42211 0.0
C1981 C 0.41025 0.97402 0.41381 0.0
C1982 C 0.3713 0.98662 0.48762 0.0
C1983 C 0.41407 0.02221 0.4048 0.0
C1984 C 0.35281 0.06555 0.45869 0.0
C1985 C 0.3688 0.07914 0.47635 0.0
C1986 C 0.3609 0.04174 0.44773 0.0
C1987 C 0.38564 0.0313 0.45445 0.0
C1988 C 0.40251 0.04569 0.47103 0.0
C1989 C 0.39392 0.06948 0.48171 0.0
C1990 C 0.34231 0.02702 0.43012 0.0
C1991 C 0.42909 0.03533 0.4786 0.0
H1992 H 0.38309 0.94071 0.46443 0.0
H1993 H 0.41966 0.9705 0.39517 0.0
H1994 H 0.38314 0.99956 0.50039 0.0
H1995 H 0.35218 0.99636 0.48447 0.0
H1996 H 0.36786 0.96786 0.49802 0.0
H1997 H 0.42612 0.01553 0.38802 0.0
H1998 H 0.39651 0.03231 0.39705 0.0
H1999 H 0.4254 0.03677 0.41619 0.0
H2000 H 0.3334 0.07283 0.45435 0.0
H2001 H 0.40659 0.0801 0.49498 0.0
H2002 H 0.33569 0.0089 0.44006 0.0
H2003 H 0.35233 0.02109 0.41185 0.0
H2004 H 0.32481 0.03879 0.42496 0.0
H2005 H 0.4267 0.01793 0.49133 0.0
H2006 H 0.44091 0.05009 0.48929 0.0
H2007 H 0.44004 0.02902 0.461 0.0
C2008 C 0.79345 0.65149 0.20911 0.0
C2009 C 0.79617 0.66794 0.18741 0.0
C2010 C 0.76877 0.64281 0.21729 0.0
C2011 C 0.74612 0.65132 0.20381 0.0
C2012 C 0.74876 0.66792 0.18177 0.0
C2013 C 0.77385 0.67579 0.17362 0.0
C2014 C 0.76694 0.62456 0.24044 0.0
C2015 C 0.72511 0.67784 0.16719 0.0
C2016 C 0.68553 0.60949 0.21389 0.0
C2017 C 0.67319 0.62233 0.23475 0.0
C2018 C 0.70876 0.61926 0.20296 0.0
C2019 C 0.71983 0.6426 0.21291 0.0
C2020 C 0.70679 0.65636 0.23309 0.0
C2021 C 0.68367 0.64603 0.2438 0.0
C2022 C 0.72217 0.60383 0.18169 0.0
C2023 C 0.71776 0.68148 0.24408 0.0
H2024 H 0.8108 0.64532 0.21959 0.0
H2025 H 0.77601 0.68877 0.15703 0.0
H2026 H 0.75562 0.63394 0.25635 0.0
H2027 H 0.75638 0.60646 0.2348 0.0
H2028 H 0.78648 0.61907 0.24817 0.0
H2029 H 0.73052 0.69022 0.15018 0.0
H2030 H 0.71311 0.6612 0.16016 0.0
H2031 H 0.71267 0.68949 0.18059 0.0
H2032 H 0.67764 0.59119 0.20671 0.0
H2033 H 0.67412 0.65629 0.25967 0.0
H2034 H 0.74104 0.59613 0.18913 0.0
H2035 H 0.72667 0.6166 0.16476 0.0
H2036 H 0.71013 0.58712 0.1748 0.0
H2037 H 0.73637 0.67741 0.25445 0.0
H2038 H 0.7041 0.691 0.25801 0.0
H2039 H 0.72222 0.69538 0.22803 0.0
C2040 C 0.08891 0.94017 0.99128 0.0
C2041 C 0.11489 0.93649 0.99882 0.0
C2042 C 0.0822 0.9603 0.97389 0.0
C2043 C 0.10207 0.97691 0.96398 0.0
C2044 C 0.12862 0.97112 0.96922 0.0
C2045 C 0.13471 0.95114 0.98697 0.0
C2046 C 0.05366 0.96577 0.96882 0.0
C2047 C 0.15044 0.9879 0.95859 0.0
C2048 C 0.08194 0.03271 0.91884 0.0
C2049 C 0.07874 0.0532 0.93685 0.0
C2050 C 0.09021 0.00779 0.92708 0.0
C2051 C 0.09496 0.00326 0.95397 0.0
C2052 C 0.09238 0.02405 0.97205 0.0
C2053 C 0.08462 0.04871 0.96322 0.0
C2054 C 0.09321 0.98625 0.90717 0.0
C2055 C 0.09733 0.0202 0.00094 0.0
H2056 H 0.07364 0.92896 0.00083 0.0
H2057 H 0.15482 0.94831 0.99309 0.0
H2058 H 0.04736 0.98257 0.98101 0.0
H2059 H 0.05037 0.97112 0.94808 0.0
H2060 H 0.04117 0.94868 0.97374 0.0
H2061 H 0.16957 0.97766 0.9595 0.0
H2062 H 0.1465 0.99365 0.93806 0.0
H2063 H 0.15193 0.00606 0.97036 0.0
H2064 H 0.07734 0.03589 0.89843 0.0
H2065 H 0.08294 0.06452 0.97717 0.0
H2066 H 0.07725 0.97178 0.90967 0.0
H2067 H 0.11197 0.97576 0.91008 0.0
H2068 H 0.09248 0.99381 0.88682 0.0
H2069 H 0.08417 0.00479 0.00871 0.0
H2070 H 0.09412 0.03836 0.01239 0.0
H2071 H 0.11773 0.01361 0.00418 0.0
C2072 C 0.33699 0.22441 0.16985 0.0
C2073 C 0.32564 0.20301 0.15701 0.0
C2074 C 0.32758 0.2499 0.16557 0.0
C2075 C 0.30651 0.25381 0.14802 0.0
C2076 C 0.29682 0.23246 0.13326 0.0
C2077 C 0.30643 0.20733 0.13808 0.0
C2078 C 0.33874 0.27213 0.1814 0.0
C2079 C 0.27466 0.23569 0.114 0.0
C2080 C 0.24999 0.29897 0.16002 0.0
C2081 C 0.25272 0.31672 0.13942 0.0
C2082 C 0.26905 0.28 0.16484 0.0
C2083 C 0.29118 0.27851 0.14828 0.0
C2084 C 0.29523 0.29802 0.12901 0.0
C2085 C 0.27581 0.31707 0.12477 0.0
C2086 C 0.26403 0.2599 0.18591 0.0
C2087 C 0.31875 0.29735 0.11127 0.0
H2088 H 0.35191 0.22103 0.18451 0.0
H2089 H 0.29806 0.19074 0.12789 0.0
H2090 H 0.33981 0.29033 0.16965 0.0
H2091 H 0.3258 0.276 0.19836 0.0
H2092 H 0.35856 0.26742 0.18894 0.0
H2093 H 0.27165 0.21789 0.10193 0.0
H2094 H 0.25628 0.23981 0.12475 0.0
H2095 H 0.27845 0.25246 0.10079 0.0
H2096 H 0.23208 0.29891 0.17137 0.0
H2097 H 0.27775 0.33079 0.10872 0.0
H2098 H 0.28188 0.25668 0.19778 0.0
H2099 H 0.25872 0.24097 0.17673 0.0
H2100 H 0.24787 0.26581 0.19915 0.0
H2101 H 0.33653 0.29133 0.12213 0.0
H2102 H 0.32231 0.31667 0.10201 0.0
H2103 H 0.31539 0.28281 0.09553 0.0
C2104 C 0.79327 0.29134 0.84306 0.0
C2105 C 0.81798 0.29587 0.83213 0.0
C2106 C 0.78649 0.26678 0.85308 0.0
C2107 C 0.80488 0.24615 0.8521 0.0
C2108 C 0.83005 0.25063 0.84149 0.0
C2109 C 0.83635 0.27552 0.83169 0.0
C2110 C 0.75951 0.26288 0.86447 0.0
C2111 C 0.85006 0.22901 0.83992 0.0
C2112 C 0.79035 0.19007 0.89831 0.0
C2113 C 0.7754 0.1736 0.88229 0.0
C2114 C 0.80111 0.21331 0.88846 0.0
C2115 C 0.79729 0.21985 0.86184 0.0
C2116 C 0.78369 0.20239 0.84521 0.0
C2117 C 0.77263 0.17961 0.85571 0.0
C2118 C 0.81497 0.23169 0.90694 0.0
C2119 C 0.77957 0.20846 0.81662 0.0
H2120 H 0.77918 0.30712 0.84383 0.0
H2121 H 0.85537 0.27884 0.823 0.0
H2122 H 0.74872 0.24795 0.85301 0.0
H2123 H 0.76103 0.25553 0.88481 0.0
H2124 H 0.74786 0.2812 0.86456 0.0
H2125 H 0.86894 0.23587 0.83167 0.0
H2126 H 0.85369 0.22074 0.85962 0.0
H2127 H 0.84246 0.21293 0.8275 0.0
H2128 H 0.79232 0.18563 0.91893 0.0
H2129 H 0.76113 0.16685 0.84327 0.0
H2130 H 0.80293 0.24951 0.90974 0.0
H2131 H 0.83397 0.238 0.89861 0.0
H2132 H 0.81852 0.22265 0.92636 0.0
H2133 H 0.76549 0.22483 0.81463 0.0
H2134 H 0.77176 0.19138 0.8057 0.0
H2135 H 0.79819 0.21474 0.80744 0.0
C2136 C 0.45738 0.04067 0.59179 0.0
C2137 C 0.45527 0.06483 0.5791 0.0
C2138 C 0.48166 0.03101 0.59989 0.0
C2139 C 0.50457 0.04583 0.59511 0.0
C2140 C 0.50247 0.07089 0.58345 0.0
C2141 C 0.47775 0.08016 0.57562 0.0
C2142 C 0.48282 0.00436 0.61261 0.0
C2143 C 0.52638 0.08733 0.57814 0.0
C2144 C 0.56144 0.01774 0.63317 0.0
C2145 C 0.57096 0.99946 0.61522 0.0
C2146 C 0.54137 0.03514 0.62609 0.0
C2147 C 0.5305 0.03378 0.60064 0.0
C2148 C 0.54177 0.0168 0.58188 0.0
C2149 C 0.5618 0.99971 0.58949 0.0
C2150 C 0.53009 0.05301 0.64663 0.0
C2151 C 0.53087 0.01467 0.55454 0.0
H2152 H 0.43994 0.02906 0.59496 0.0
H2153 H 0.47614 0.09883 0.56574 0.0
H2154 H 0.49368 0.99062 0.59982 0.0
H2155 H 0.49349 0.0055 0.63146 0.0
H2156 H 0.46308 0.9961 0.61634 0.0
H2157 H 0.5212 0.10773 0.57278 0.0
H2158 H 0.53943 0.08771 0.59546 0.0
H2159 H 0.5376 0.07859 0.56178 0.0
H2160 H 0.56827 0.01709 0.65322 0.0
H2161 H 0.56893 0.98515 0.57583 0.0
H2162 H 0.51164 0.04446 0.6542 0.0
H2163 H 0.52536 0.07244 0.63823 0.0
H2164 H 0.54373 0.05568 0.66332 0.0
H2165 H 0.51174 0.00443 0.55518 0.0
H2166 H 0.54409 0.00356 0.54137 0.0
H2167 H 0.5275 0.03435 0.5461 0.0
C2168 C 0.67411 0.72389 0.32129 0.0
C2169 C 0.67897 0.70307 0.33832 0.0
C2170 C 0.68559 0.74847 0.32567 0.0
C2171 C 0.70199 0.75207 0.34772 0.0
C2172 C 0.70451 0.73172 0.36635 0.0
C2173 C 0.69326 0.70729 0.36118 0.0
C2174 C 0.68238 0.76958 0.30534 0.0
C2175 C 0.72132 0.73482 0.3904 0.0
C2176 C 0.76563 0.78884 0.34226 0.0
C2177 C 0.76079 0.81107 0.35742 0.0
C2178 C 0.746 0.77042 0.33753 0.0
C2179 C 0.72089 0.77417 0.34852 0.0
C2180 C 0.71536 0.79745 0.3625 0.0
C2181 C 0.73547 0.81582 0.36672 0.0
C2182 C 0.75275 0.74612 0.32214 0.0
C2183 C 0.68883 0.80215 0.37443 0.0
H2184 H 0.66315 0.72031 0.30351 0.0
H2185 H 0.69686 0.69097 0.3742 0.0
H2186 H 0.68065 0.78911 0.31459 0.0
H2187 H 0.6999 0.7699 0.29257 0.0
H2188 H 0.66493 0.76608 0.29288 0.0
H2189 H 0.71768 0.71905 0.40489 0.0
H2190 H 0.74224 0.73416 0.38471 0.0
H2191 H 0.7177 0.75398 0.39987 0.0
H2192 H 0.78517 0.78538 0.33479 0.0
H2193 H 0.73179 0.83302 0.37853 0.0
H2194 H 0.73801 0.74264 0.30661 0.0
H2195 H 0.75256 0.72887 0.3353 0.0
H2196 H 0.77235 0.74743 0.31289 0.0
H2197 H 0.67302 0.79631 0.36077 0.0
H2198 H 0.68608 0.82298 0.37992 0.0
H2199 H 0.68679 0.79005 0.39231 0.0
C2200 C 0.93242 0.9833 0.10502 0.0
C2201 C 0.92534 0.98086 0.13139 0.0
C2202 C 0.95545 0.97186 0.09549 0.0
C2203 C 0.97194 0.95801 0.11287 0.0
C2204 C 0.96429 0.95452 0.13923 0.0
C2205 C 0.94095 0.9658 0.14812 0.0
C2206 C 0.96277 0.97572 0.06718 0.0
C2207 C 0.98152 0.94021 0.15847 0.0
C2208 C 0.02781 0.91508 0.08944 0.0
C2209 C 0.04932 0.93151 0.09375 0.0
C2210 C 0.00228 0.92364 0.09479 0.0
C2211 C 0.99831 0.94933 0.10434 0.0
C2212 C 0.01993 0.96635 0.1075 0.0
C2213 C 0.0452 0.95715 0.10235 0.0
C2214 C 0.97976 0.9049 0.09124 0.0
C2215 C 0.0165 0.99402 0.11723 0.0
H2216 H 0.92031 0.99479 0.09196 0.0
H2217 H 0.9357 0.96397 0.16856 0.0
H2218 H 0.97946 0.98951 0.06583 0.0
H2219 H 0.96909 0.95696 0.05834 0.0
H2220 H 0.9463 0.98375 0.05552 0.0
H2221 H 0.97189 0.93753 0.17774 0.0
H2222 H 0.98698 0.92074 0.15068 0.0
H2223 H 0.99989 0.95139 0.16147 0.0
H2224 H 0.03107 0.89519 0.08295 0.0
H2225 H 0.06187 0.9699 0.10529 0.0
H2226 H 0.96382 0.91427 0.07991 0.0
H2227 H 0.97163 0.89958 0.11063 0.0
H2228 H 0.98578 0.88666 0.0811 0.0
H2229 H 0.002 0.00454 0.10501 0.0
H2230 H 0.03512 0.00521 0.11705 0.0
H2231 H 0.00885 0.99371 0.13752 0.0
C2232 C 0.22762 0.67778 0.64741 0.0
C2233 C 0.22148 0.66939 0.62207 0.0
C2234 C 0.21785 0.70147 0.65717 0.0
C2235 C 0.20163 0.71715 0.64112 0.0
C2236 C 0.19428 0.70811 0.61602 0.0
C2237 C 0.20417 0.68422 0.60686 0.0
C2238 C 0.22596 0.7103 0.68413 0.0
C2239 C 0.17727 0.72439 0.59823 0.0
C2240 C 0.165 0.77436 0.67137 0.0
C2241 C 0.18237 0.79506 0.66661 0.0
C2242 C 0.17084 0.74885 0.66304 0.0
C2243 C 0.19452 0.74405 0.64952 0.0
C2244 C 0.21179 0.76501 0.64415 0.0
C2245 C 0.20553 0.79021 0.65285 0.0
C2246 C 0.15209 0.72696 0.66941 0.0
C2247 C 0.23701 0.76081 0.62938 0.0
H2248 H 0.24075 0.66618 0.65935 0.0
H2249 H 0.19941 0.67789 0.58721 0.0
H2250 H 0.23935 0.72729 0.6825 0.0
H2251 H 0.20863 0.71673 0.69547 0.0
H2252 H 0.23614 0.69462 0.69517 0.0
H2253 H 0.17153 0.71365 0.58025 0.0
H2254 H 0.1593 0.73068 0.60858 0.0
H2255 H 0.188 0.74234 0.59241 0.0
H2256 H 0.14723 0.77798 0.6823 0.0
H2257 H 0.21879 0.80624 0.64884 0.0
H2258 H 0.16117 0.71375 0.68403 0.0
H2259 H 0.14787 0.71512 0.65175 0.0
H2260 H 0.13334 0.73434 0.67744 0.0
H2261 H 0.24984 0.74721 0.64037 0.0
H2262 H 0.24786 0.77934 0.62608 0.0
H2263 H 0.23289 0.75167 0.61015 0.0
C2264 C 0.07584 0.47519 0.39352 0.0
C2265 C 0.07722 0.48109 0.36683 0.0
C2266 C 0.05349 0.46328 0.40413 0.0
C2267 C 0.03171 0.45818 0.38779 0.0
C2268 C 0.03334 0.4635 0.36068 0.0
C2269 C 0.05627 0.47453 0.35046 0.0
C2270 C 0.05274 0.4573 0.433 0.0
C2271 C 0.01027 0.45916 0.34276 0.0
C2272 C 0.97506 0.41593 0.41106 0.0
C2273 C 0.95703 0.43486 0.41964 0.0
C2274 C 0.99957 0.42314 0.40093 0.0
C2275 C 0.00636 0.4499 0.39935 0.0
C2276 C 0.98856 0.46909 0.40815 0.0
C2277 C 0.9642 0.46138 0.41801 0.0
C2278 C 0.01817 0.40212 0.39182 0.0
C2279 C 0.99512 0.4979 0.40689 0.0
H2280 H 0.09205 0.48035 0.40617 0.0
H2281 H 0.05715 0.47952 0.32989 0.0
H2282 H 0.03944 0.47121 0.44295 0.0
H2283 H 0.04499 0.43732 0.43642 0.0
H2284 H 0.07238 0.45885 0.44215 0.0
H2285 H 0.01527 0.46264 0.32192 0.0
H2286 H 0.00276 0.43892 0.34484 0.0
H2287 H 0.99418 0.47261 0.34828 0.0
H2288 H 0.97028 0.39539 0.41225 0.0
H2289 H 0.95082 0.47645 0.42422 0.0
H2290 H 0.03736 0.40436 0.40169 0.0
H2291 H 0.02164 0.40416 0.37052 0.0
H2292 H 0.01059 0.38213 0.3957 0.0
H2293 H 0.01315 0.50196 0.41825 0.0
H2294 H 0.97916 0.51038 0.41468 0.0
H2295 H 0.99902 0.5037 0.38636 0.0
C2296 C 0.52716 0.58309 0.91641 0.0
C2297 C 0.54847 0.56636 0.91226 0.0
C2298 C 0.50197 0.5763 0.90773 0.0
C2299 C 0.49808 0.55226 0.89456 0.0
C2300 C 0.51967 0.53561 0.88982 0.0
C2301 C 0.54455 0.54283 0.89881 0.0
C2302 C 0.47948 0.59449 0.91347 0.0
C2303 C 0.51647 0.51003 0.87541 0.0
C2304 C 0.43241 0.51772 0.89239 0.0
C2305 C 0.42418 0.52302 0.86678 0.0
C2306 C 0.45592 0.52802 0.90213 0.0
C2307 C 0.47151 0.54413 0.88588 0.0
C2308 C 0.46257 0.55078 0.86056 0.0
C2309 C 0.43895 0.54021 0.85133 0.0
C2310 C 0.46461 0.52074 0.92937 0.0
C2311 C 0.47858 0.56801 0.84273 0.0
H2312 H 0.53001 0.60112 0.92714 0.0
H2313 H 0.56104 0.53005 0.89527 0.0
H2314 H 0.46601 0.59597 0.89654 0.0
H2315 H 0.46813 0.58668 0.93021 0.0
H2316 H 0.4864 0.61442 0.91854 0.0
H2317 H 0.53537 0.4997 0.87268 0.0
H2318 H 0.50301 0.497 0.88635 0.0
H2319 H 0.50762 0.51356 0.85593 0.0
H2320 H 0.42083 0.50484 0.90461 0.0
H2321 H 0.43273 0.54448 0.83154 0.0
H2322 H 0.46978 0.53857 0.94058 0.0
H2323 H 0.48239 0.50838 0.9283 0.0
H2324 H 0.4493 0.50979 0.94023 0.0
H2325 H 0.48381 0.58649 0.85282 0.0
H2326 H 0.46807 0.57284 0.82435 0.0
H2327 H 0.49712 0.55797 0.83766 0.0
C2328 C 0.97307 0.11167 0.2042 0.0
C2329 C 0.94748 0.1045 0.2107 0.0
C2330 C 0.98964 0.1231 0.22282 0.0
C2331 C 0.98011 0.1281 0.24832 0.0
C2332 C 0.95403 0.12138 0.25479 0.0
C2333 C 0.9381 0.10928 0.23596 0.0
C2334 C 0.01751 0.12938 0.21533 0.0
C2335 C 0.94295 0.12704 0.28153 0.0
C2336 C 0.0308 0.13462 0.30211 0.0
C2337 C 0.03512 0.16176 0.30274 0.0
C2338 C 0.01271 0.12345 0.28478 0.0
C2339 C 0.99776 0.13982 0.26827 0.0
C2340 C 1.00086 0.16727 0.26977 0.0
C2341 C 0.01976 0.17789 0.28664 0.0
C2342 C 0.0103 0.09404 0.2835 0.0
C2343 C 0.98471 0.18542 0.25301 0.0
H2344 H 0.98029 0.10774 0.18467 0.0
H2345 H 0.9182 0.10382 0.24083 0.0
H2346 H 0.02128 0.15059 0.21774 0.0
H2347 H 0.0312 0.11886 0.22847 0.0
H2348 H 0.02197 0.12386 0.19482 0.0
H2349 H 0.92194 0.1217 0.28303 0.0
H2350 H 0.95396 0.11602 0.2966 0.0
H2351 H 0.94514 0.14813 0.28613 0.0
H2352 H 0.04179 0.1219 0.31497 0.0
H2353 H 0.02293 0.19882 0.28659 0.0
H2354 H 0.0157 0.08714 0.26366 0.0
H2355 H 0.98977 0.088 0.28701 0.0
H2356 H 0.02303 0.08406 0.29798 0.0
H2357 H 0.99034 0.18312 0.23221 0.0
H2358 H 0.98735 0.20625 0.25858 0.0
H2359 H 0.96366 0.18039 0.2546 0.0
C2360 C 0.57899 0.27357 0.03695 0.0
C2361 C 0.5931 0.28608 0.05688 0.0
C2362 C 0.59105 0.25534 0.0204 0.0
C2363 C 0.61792 0.24963 0.02372 0.0
C2364 C 0.63212 0.26165 0.04419 0.0
C2365 C 0.61952 0.27965 0.06058 0.0
C2366 C 0.57521 0.24276 0.99889 0.0
C2367 C 0.6608 0.25604 0.04834 0.0
C2368 C 0.64568 0.18884 0.99127 0.0
C2369 C 0.65613 0.19939 0.96833 0.0
C2370 C 0.63318 0.20497 0.00962 0.0
C2371 C 0.63149 0.23221 0.00487 0.0
C2372 C 0.64248 0.24289 0.9818 0.0
C2373 C 0.65453 0.22626 0.96368 0.0
C2374 C 0.62143 0.19285 0.03382 0.0
C2375 C 0.64135 0.27185 0.97618 0.0
H2376 H 0.55866 0.27859 0.03376 0.0
H2377 H 0.63043 0.28882 0.07625 0.0
H2378 H 0.58277 0.24914 0.9796 0.0
H2379 H 0.57716 0.22118 0.99979 0.0
H2380 H 0.55415 0.24789 1.00008 0.0
H2381 H 0.66874 0.2661 0.06587 0.0
H2382 H 0.664 0.23471 0.05054 0.0
H2383 H 0.67209 0.2625 0.03099 0.0
H2384 H 0.64691 0.16794 0.99459 0.0
H2385 H 0.66269 0.23421 0.9458 0.0
H2386 H 0.60006 0.19653 0.03422 0.0
H2387 H 0.62987 0.20201 0.05156 0.0
H2388 H 0.62479 0.17141 0.03477 0.0
H2389 H 0.62068 0.27827 0.97477 0.0
H2390 H 0.65149 0.27708 0.95771 0.0
H2391 H 0.65047 0.28293 0.99245 0.0
C2392 C 0.54642 0.91475 0.73495 0.0
C2393 C 0.57297 0.90803 0.73297 0.0
C2394 C 0.53021 0.90326 0.75381 0.0
C2395 C 0.54056 0.88407 0.77082 0.0
C2396 C 0.56736 0.87743 0.76932 0.0
C2397 C 0.58331 0.88967 0.75059 0.0
C2398 C 0.50176 0.91112 0.755 0.0
C2399 C 0.57901 0.8568 0.78692 0.0
C2400 C 0.49974 0.86783 0.83068 0.0
C2401 C 0.48461 0.84675 0.8216 0.0
C2402 C 0.51855 0.87978 0.81464 0.0
C2403 C 0.52283 0.87006 0.78912 0.0
C2404 C 0.50868 0.84797 0.78032 0.0
C2405 C 0.48957 0.83681 0.79649 0.0
C2406 C 0.53304 0.9035 0.82461 0.0
C2407 C 0.51298 0.83672 0.75337 0.0
H2408 H 0.53797 0.92847 0.72121 0.0
H2409 H 0.60384 0.88461 0.74963 0.0
H2410 H 0.48926 0.89433 0.74931 0.0
H2411 H 0.49636 0.91664 0.77525 0.0
H2412 H 0.49727 0.9278 0.74184 0.0
H2413 H 0.60045 0.85479 0.78418 0.0
H2414 H 0.57507 0.86154 0.80769 0.0
H2415 H 0.56967 0.83764 0.78283 0.0
H2416 H 0.49664 0.87534 0.85021 0.0
H2417 H 0.47785 0.82086 0.78896 0.0
H2418 H 0.52741 0.92087 0.8129 0.0
H2419 H 0.55443 0.90085 0.82228 0.0
H2420 H 0.52877 0.90757 0.84549 0.0
H2421 H 0.5061 0.85083 0.7384 0.0
H2422 H 0.50241 0.81796 0.75051 0.0
H2423 H 0.53413 0.83339 0.74989 0.0
C2424 C 0.9217 0.73327 0.53816 0.0
C2425 C 0.90918 0.725 0.56113 0.0
C2426 C 0.91069 0.7527 0.52222 0.0
C2427 C 0.88643 0.76399 0.52923 0.0
C2428 C 0.87412 0.75641 0.55281 0.0
C2429 C 0.88569 0.7371 0.56852 0.0
C2430 C 0.92453 0.76037 0.4973 0.0
C2431 C 0.84821 0.76794 0.56094 0.0
C2432 C 0.86471 0.82576 0.49375 0.0
C2433 C 0.84865 0.81542 0.47401 0.0
C2434 C 0.87696 0.80933 0.51209 0.0
C2435 C 0.87292 0.78197 0.51077 0.0
C2436 C 0.85639 0.77149 0.49122 0.0
C2437 C 0.84465 0.78827 0.47304 0.0
C2438 C 0.89454 0.82119 0.53261 0.0
C2439 C 0.85144 0.74243 0.4892 0.0
H2440 H 0.93969 0.72389 0.53208 0.0
H2441 H 0.87612 0.73126 0.58648 0.0
H2442 H 0.91284 0.75389 0.48022 0.0
H2443 H 0.92641 0.78194 0.49605 0.0
H2444 H 0.94432 0.75157 0.49585 0.0
H2445 H 0.84219 0.76148 0.58078 0.0
H2446 H 0.84918 0.7896 0.56066 0.0
H2447 H 0.83285 0.76199 0.54682 0.0
H2448 H 0.86772 0.84669 0.49489 0.0
H2449 H 0.83279 0.77994 0.45759 0.0
H2450 H 0.91472 0.81361 0.53026 0.0
H2451 H 0.88781 0.81544 0.5524 0.0
H2452 H 0.89511 0.84287 0.53146 0.0
H2453 H 0.87005 0.73209 0.48509 0.0
H2454 H 0.83721 0.73752 0.47355 0.0
H2455 H 0.84386 0.73482 0.50804 0.0
C2456 C 0.47264 0.39569 0.78896 0.0
C2457 C 0.44682 0.40202 0.78263 0.0
C2458 C 0.48901 0.38359 0.77065 0.0
C2459 C 0.47902 0.37705 0.74566 0.0
C2460 C 0.45277 0.38321 0.73929 0.0
C2461 C 0.43704 0.39599 0.7578 0.0
C2462 C 0.51706 0.37796 0.77799 0.0
C2463 C 0.44124 0.37596 0.71311 0.0
C2464 C 0.52902 0.36665 0.69195 0.0
C2465 C 0.53342 0.33954 0.69337 0.0
C2466 C 0.51106 0.37906 0.70852 0.0
C2467 C 0.49627 0.36393 0.7263 0.0
C2468 C 0.49934 0.33643 0.72678 0.0
C2469 C 0.51814 0.32462 0.71066 0.0
C2470 C 0.50871 0.40849 0.70771 0.0
C2471 C 0.48333 0.31955 0.74496 0.0
H2472 H 0.48009 0.40051 0.80822 0.0
H2473 H 0.41693 0.4008 0.75312 0.0
H2474 H 0.52077 0.35662 0.77718 0.0
H2475 H 0.53045 0.38741 0.76378 0.0
H2476 H 0.52197 0.38507 0.79791 0.0
H2477 H 0.42035 0.38164 0.71145 0.0
H2478 H 0.45233 0.38561 0.69718 0.0
H2479 H 0.44289 0.35455 0.71003 0.0
H2480 H 0.53991 0.37841 0.67812 0.0
H2481 H 0.52134 0.30376 0.71227 0.0
H2482 H 0.51465 0.41679 0.72685 0.0
H2483 H 0.48812 0.4143 0.7043 0.0
H2484 H 0.52108 0.41737 0.69223 0.0
H2485 H 0.48931 0.32323 0.76547 0.0
H2486 H 0.48578 0.29838 0.74078 0.0
H2487 H 0.46229 0.32456 0.74333 0.0
C2488 C 0.36392 0.68447 0.51905 0.0
C2489 C 0.33915 0.69092 0.5289 0.0
C2490 C 0.37603 0.70001 0.49993 0.0
C2491 C 0.36315 0.72265 0.49059 0.0
C2492 C 0.33782 0.72882 0.49988 0.0
C2493 C 0.32609 0.71282 0.51886 0.0
C2494 C 0.40295 0.69265 0.49035 0.0
C2495 C 0.32354 0.7529 0.49056 0.0
C2496 C 0.40506 0.77893 0.46653 0.0
C2497 C 0.40256 0.77682 0.43931 0.0
C2498 C 0.3925 0.76131 0.48334 0.0
C2499 C 0.37699 0.741 0.47272 0.0
C2500 C 0.37451 0.73857 0.44526 0.0
C2501 C 0.38727 0.75658 0.42885 0.0
C2502 C 0.39555 0.76468 0.51251 0.0
C2503 C 0.35829 0.71704 0.43324 0.0
H2504 H 0.37393 0.66734 0.52646 0.0
H2505 H 0.30704 0.71801 0.52655 0.0
H2506 H 0.4033 0.69208 0.46869 0.0
H2507 H 0.4173 0.70766 0.49664 0.0
H2508 H 0.40938 0.67335 0.49795 0.0
H2509 H 0.3033 0.754 0.49836 0.0
H2510 H 0.33434 0.77065 0.49682 0.0
H2511 H 0.32266 0.75321 0.4689 0.0
H2512 H 0.41642 0.79481 0.47479 0.0
H2513 H 0.38542 0.75472 0.40784 0.0
H2514 H 0.40374 0.74661 0.52126 0.0
H2515 H 0.37615 0.76802 0.5216 0.0
H2516 H 0.40855 0.78133 0.5176 0.0
H2517 H 0.36548 0.69771 0.43997 0.0
H2518 H 0.35879 0.71749 0.41154 0.0
H2519 H 0.33768 0.71882 0.43973 0.0
C2520 C 0.99484 0.65584 0.18829 0.0
C2521 C 0.96885 0.65713 0.19675 0.0
C2522 C 0.01434 0.64517 0.20442 0.0
C2523 C 0.00764 0.63629 0.22978 0.0
C2524 C 0.98143 0.63809 0.23852 0.0
C2525 C 0.96229 0.6482 0.22175 0.0
C2526 C 0.04192 0.64294 0.19419 0.0
C2527 C 0.97361 0.62936 0.26561 0.0
C2528 C 0.0478 0.58615 0.26667 0.0
C2529 C 0.06199 0.60188 0.28419 0.0
C2530 C 0.03112 0.59721 0.24794 0.0
C2531 C 0.02778 0.62464 0.24718 0.0
C2532 C 0.04233 0.64072 0.26435 0.0
C2533 C 0.05955 0.62919 0.28234 0.0
C2534 C 0.01641 0.57943 0.2295 0.0
C2535 C 0.03901 0.67006 0.26438 0.0
H2536 H 0.99977 0.66267 0.16884 0.0
H2537 H 0.94216 0.64947 0.22828 0.0
H2538 H 0.05562 0.65359 0.2072 0.0
H2539 H 0.04802 0.62213 0.19412 0.0
H2540 H 0.0439 0.65085 0.17407 0.0
H2541 H 0.95264 0.63317 0.26977 0.0
H2542 H 0.97731 0.60812 0.26789 0.0
H2543 H 0.98563 0.63965 0.28046 0.0
H2544 H 0.04906 0.56506 0.26799 0.0
H2545 H 0.07086 0.64168 0.29515 0.0
H2546 H 0.01849 0.5864 0.20907 0.0
H2547 H 0.99527 0.57976 0.23432 0.0
H2548 H 0.02337 0.5589 0.2306 0.0
H2549 H 0.04249 0.67806 0.24454 0.0
H2550 H 0.05249 0.67989 0.27829 0.0
H2551 H 0.01861 0.67504 0.26982 0.0
C2552 C 0.1413 0.32515 0.00666 0.0
C2553 C 0.15843 0.31528 0.02569 0.0
C2554 C 0.12867 0.30838 0.98891 0.0
C2555 C 0.13322 0.28112 0.99028 0.0
C2556 C 0.15086 0.2711 0.0091 0.0
C2557 C 0.16321 0.28827 0.02655 0.0
C2558 C 0.11016 0.3198 0.96897 0.0
C2559 C 0.15621 0.24214 0.01124 0.0
C2560 C 0.08255 0.23328 0.96443 0.0
C2561 C 0.09413 0.22499 0.94104 0.0
C2562 C 0.09479 0.252 0.98036 0.0
C2563 C 0.11907 0.26284 0.97258 0.0
C2564 C 0.13044 0.25513 0.94858 0.0
C2565 C 0.11789 0.2362 0.93316 0.0
C2566 C 0.08214 0.25955 0.00592 0.0
C2567 C 0.15615 0.26643 0.93947 0.0
H2568 H 0.13773 0.346 0.00566 0.0
H2569 H 0.17605 0.2804 0.04145 0.0
H2570 H 0.11604 0.31372 0.94901 0.0
H2571 H 0.09013 0.31218 0.97235 0.0
H2572 H 0.10956 0.34149 0.96975 0.0
H2573 H 0.17105 0.23758 0.02642 0.0
H2574 H 0.13787 0.23161 0.01611 0.0
H2575 H 0.1632 0.23443 0.99222 0.0
H2576 H 0.0643 0.2245 0.9707 0.0
H2577 H 0.12672 0.23009 0.91491 0.0
H2578 H 0.07974 0.28107 0.00699 0.0
H2579 H 0.09494 0.25367 0.02242 0.0
H2580 H 0.0627 0.25022 0.00857 0.0
H2581 H 0.15522 0.2881 0.93942 0.0
H2582 H 0.16151 0.25965 0.91957 0.0
H2583 H 0.17193 0.2607 0.9532 0.0
C2584 C 0.24551 0.92599 0.1094 0.0
C2585 C 0.22538 0.93614 0.0938 0.0
C2586 C 0.264 0.9426 0.1212 0.0
C2587 C 0.2621 0.96998 0.11747 0.0
C2588 C 0.24183 0.98029 0.10173 0.0
C2589 C 0.22379 0.96326 0.09006 0.0
C2590 C 0.28541 0.9309 0.13778 0.0
C2591 C 0.23896 0.00937 0.09747 0.0
C2592 C 0.29176 0.01803 0.16565 0.0
C2593 C 0.31417 0.02652 0.15223 0.0
C2594 C 0.27523 0.99885 0.15505 0.0
C2595 C 0.281 0.98809 0.13024 0.0
C2596 C 0.30386 0.99606 0.11685 0.0
C2597 C 0.32023 0.01507 0.12805 0.0
C2598 C 0.25109 0.99077 0.17001 0.0
C2599 C 0.31065 0.98508 0.09033 0.0
H2600 H 0.2469 0.90503 0.11225 0.0
H2601 H 0.20798 0.97128 0.07844 0.0
H2602 H 0.30482 0.93695 0.1302 0.0
H2603 H 0.28389 0.93833 0.15809 0.0
H2604 H 0.28455 0.90921 0.13823 0.0
H2605 H 0.22234 0.0142 0.08435 0.0
H2606 H 0.23585 0.01933 0.11647 0.0
H2607 H 0.25715 0.01747 0.08886 0.0
H2608 H 0.28663 0.02694 0.18415 0.0
H2609 H 0.33773 0.02107 0.11774 0.0
H2610 H 0.25018 0.96918 0.17177 0.0
H2611 H 0.23337 0.99711 0.15924 0.0
H2612 H 0.25052 0.99939 0.18993 0.0
H2613 H 0.31095 0.9634 0.09106 0.0
H2614 H 0.32992 0.99211 0.0832 0.0
H2615 H 0.29546 0.99082 0.07596 0.0
C2616 C 0.78149 0.4636 0.849 0.0
C2617 C 0.8086 0.46701 0.84854 0.0
C2618 C 0.7652 0.48247 0.86033 0.0
C2619 C 0.77645 0.50491 0.87206 0.0
C2620 C 0.80395 0.5083 0.87179 0.0
C2621 C 0.81974 0.48939 0.85969 0.0
C2622 C 0.73596 0.47842 0.85969 0.0
C2623 C 0.81667 0.53162 0.88466 0.0
C2624 C 0.73143 0.56301 0.88189 0.0
C2625 C 0.72213 0.55869 0.90737 0.0
C2626 C 0.74952 0.54598 0.87031 0.0
C2627 C 0.75927 0.52455 0.88481 0.0
C2628 C 0.75115 0.52086 0.91097 0.0
C2629 C 0.73241 0.53768 0.92178 0.0
C2630 C 0.75741 0.55033 0.8422 0.0
C2631 C 0.76161 0.49859 0.92729 0.0
H2632 H 0.77305 0.44626 0.84019 0.0
H2633 H 0.8408 0.49179 0.85933 0.0
H2634 H 0.72827 0.47691 0.87989 0.0
H2635 H 0.72633 0.49548 0.85037 0.0
H2636 H 0.73033 0.46048 0.84882 0.0
H2637 H 0.8383 0.53132 0.88276 0.0
H2638 H 0.8092 0.54998 0.87589 0.0
H2639 H 0.81156 0.53203 0.90573 0.0
H2640 H 0.7243 0.57953 0.87073 0.0
H2641 H 0.72526 0.53376 0.94131 0.0
H2642 H 0.75091 0.5335 0.83015 0.0
H2643 H 0.77899 0.5515 0.84053 0.0
H2644 H 0.74881 0.56847 0.83392 0.0
H2645 H 0.75428 0.47974 0.91947 0.0
H2646 H 0.75564 0.50017 0.9481 0.0
H2647 H 0.78327 0.49806 0.9263 0.0
C2648 C 0.26881 0.04207 0.58383 0.0
C2649 C 0.28554 0.05794 0.59882 0.0
C2650 C 0.25039 0.02554 0.59571 0.0
C2651 C 0.24924 0.02399 0.62328 0.0
C2652 C 0.26572 0.04007 0.63858 0.0
C2653 C 0.28324 0.0572 0.6262 0.0
C2654 C 0.23259 0.00923 0.57869 0.0
C2655 C 0.26545 0.03861 0.66806 0.0
C2656 C 0.19018 0.99278 0.65606 0.0
C2657 C 0.19895 0.96713 0.65961 0.0
C2658 C 0.20628 0.01157 0.64412 0.0
C2659 C 0.23183 0.0045 0.63609 0.0
C2660 C 0.24082 0.97861 0.64012 0.0
C2661 C 0.22412 0.96014 0.65161 0.0
C2662 C 0.19582 0.03879 0.63965 0.0
C2663 C 0.26807 0.97041 0.63229 0.0
H2664 H 0.27045 0.04197 0.56274 0.0
H2665 H 0.29529 0.06983 0.63816 0.0
H2666 H 0.23779 0.98828 0.58064 0.0
H2667 H 0.21198 0.01139 0.58511 0.0
H2668 H 0.23395 0.01476 0.55774 0.0
H2669 H 0.2793 0.05266 0.67717 0.0
H2670 H 0.24553 0.04264 0.67558 0.0
H2671 H 0.27077 0.01856 0.67443 0.0
H2672 H 0.17056 0.99794 0.66218 0.0
H2673 H 0.23071 0.9402 0.65445 0.0
H2674 H 0.19612 0.04338 0.61845 0.0
H2675 H 0.20846 0.05337 0.64954 0.0
H2676 H 0.1755 0.04109 0.64697 0.0
H2677 H 0.27054 0.97253 0.61087 0.0
H2678 H 0.27236 0.94983 0.63774 0.0
H2679 H 0.28272 0.98332 0.64178 0.0
C2680 C 0.69566 0.50495 0.34433 0.0
C2681 C 0.69502 0.53084 0.35345 0.0
C2682 C 0.71269 0.48646 0.35537 0.0
C2683 C 0.72927 0.49393 0.37623 0.0
C2684 C 0.72832 0.51981 0.38591 0.0
C2685 C 0.71138 0.53797 0.37431 0.0
C2686 C 0.71327 0.45906 0.34441 0.0
C2687 C 0.74561 0.52851 0.40822 0.0
C2688 C 0.76074 0.44228 0.4195 0.0
C2689 C 0.78626 0.4414 0.40946 0.0
C2690 C 0.74183 0.45899 0.40865 0.0
C2691 C 0.74856 0.4751 0.38718 0.0
C2692 C 0.77413 0.47401 0.3767 0.0
C2693 C 0.79267 0.45732 0.38803 0.0
C2694 C 0.71476 0.45968 0.42039 0.0
C2695 C 0.78205 0.49083 0.35375 0.0
H2696 H 0.68282 0.49909 0.32853 0.0
H2697 H 0.71141 0.55798 0.38125 0.0
H2698 H 0.73294 0.45486 0.33632 0.0
H2699 H 0.70958 0.44463 0.36016 0.0
H2700 H 0.69854 0.45614 0.32871 0.0
H2701 H 0.74145 0.5489 0.41442 0.0
H2702 H 0.74292 0.51539 0.42528 0.0
H2703 H 0.76643 0.52723 0.40231 0.0
H2704 H 0.75549 0.42981 0.4358 0.0
H2705 H 0.81242 0.45715 0.38039 0.0
H2706 H 0.69991 0.45541 0.40517 0.0
H2707 H 0.71061 0.47956 0.42801 0.0
H2708 H 0.71243 0.4454 0.43658 0.0
H2709 H 0.76855 0.48754 0.3371 0.0
H2710 H 0.80234 0.48677 0.34716 0.0
H2711 H 0.78065 0.51178 0.35915 0.0
loop_
_geom_bond_atom_site_label_1
_geom_bond_atom_site_label_2
_geom_bond_distance
_geom_bond_site_symmetry_2
_ccdc_geom_bond_type
C0 C1 1.351 . S
C0 N3 1.368 . S
C0 H5 0.931 . S
C1 C0 1.351 . S
C1 N2 1.373 . S
C1 H29 0.930 . S
N2 C1 1.373 . S
N2 C4 1.340 . S
N3 C0 1.368 . S
N3 C4 1.321 . S
N3 Co6 2.135 . S
C4 N2 1.340 . S
C4 N3 1.321 . S
C4 H28 0.930 . S
H5 C0 0.931 . S
Co6 N3 2.135 . S
Co6 N9 2.121 . S
Co6 O14 2.055 . S
Co6 O17 2.039 . S
Co6 N20 2.140 . S
C7 O8 1.227 . S
C7 O17 1.265 . S
O8 C7 1.227 . S
N9 Co6 2.121 . S
N9 C11 1.375 . S
N9 C12 1.313 . S
C10 C11 1.338 . S
C10 N13 1.377 . S
C10 H30 0.930 . S
C11 N9 1.375 . S
C11 C10 1.338 . S
C11 H15 0.931 . S
C12 N9 1.313 . S
C12 N13 1.344 . S
C12 H16 0.930 . S
N13 C10 1.377 . S
N13 C12 1.344 . S
O14 Co6 2.055 . S
O14 C18 1.253 . S
H15 C11 0.931 . S
H16 C12 0.930 . S
O17 Co6 2.039 . S
O17 C7 1.265 . S
C18 O14 1.253 . S
C18 O19 1.227 . S
O19 C18 1.227 . S
N20 Co6 2.140 . S
N20 C23 1.346 . S
N20 C24 1.345 . S
C21 C22 1.387 . S
C21 C25 1.391 . S
C22 C21 1.387 . S
C22 C23 1.369 . S
C22 H31 0.929 . S
C23 N20 1.346 . S
C23 C22 1.369 . S
C23 H26 0.928 . S
C24 N20 1.345 . S
C24 C25 1.371 . S
C24 H27 0.931 . S
C25 C21 1.391 . S
C25 C24 1.371 . S
C25 H32 0.930 . S
H26 C23 0.928 . S
H27 C24 0.931 . S
H28 C4 0.930 . S
H29 C1 0.930 . S
H30 C10 0.930 . S
H31 C22 0.929 . S
H32 C25 0.930 . S
C33 C34 1.351 . S
C33 N36 1.368 . S
C33 H38 0.931 . S
C34 C33 1.351 . S
C34 N35 1.373 . S
C34 H62 0.930 . S
N35 C34 1.373 . S
N35 C37 1.340 . S
N36 C33 1.368 . S
N36 C37 1.321 . S
N36 Co39 2.135 . S
C37 N35 1.340 . S
C37 N36 1.321 . S
C37 H61 0.930 . S
H38 C33 0.931 . S
Co39 N36 2.135 . S
Co39 N42 2.121 . S
Co39 O47 2.055 . S
Co39 O50 2.039 . S
Co39 N53 2.140 . S
C40 O41 1.227 . S
C40 O50 1.265 . S
O41 C40 1.227 . S
N42 Co39 2.121 . S
N42 C44 1.375 . S
N42 C45 1.313 . S
C43 C44 1.338 . S
C43 N46 1.377 . S
C43 H63 0.930 . S
C44 N42 1.375 . S
C44 C43 1.338 . S
C44 H48 0.931 . S
C45 N42 1.313 . S
C45 N46 1.344 . S
C45 H49 0.930 . S
N46 C43 1.377 . S
N46 C45 1.344 . S
O47 Co39 2.055 . S
O47 C51 1.253 . S
H48 C44 0.931 . S
H49 C45 0.930 . S
O50 Co39 2.039 . S
O50 C40 1.265 . S
C51 O47 1.253 . S
C51 O52 1.227 . S
O52 C51 1.227 . S
N53 Co39 2.140 . S
N53 C56 1.346 . S
N53 C57 1.345 . S
C54 C55 1.387 . S
C54 C58 1.391 . S
C55 C54 1.387 . S
C55 C56 1.369 . S
C55 H64 0.929 . S
C56 N53 1.346 . S
C56 C55 1.369 . S
C56 H59 0.928 . S
C57 N53 1.345 . S
C57 C58 1.371 . S
C57 H60 0.931 . S
C58 C54 1.391 . S
C58 C57 1.371 . S
C58 H65 0.930 . S
H59 C56 0.928 . S
H60 C57 0.931 . S
H61 C37 0.930 . S
H62 C34 0.930 . S
H63 C43 0.930 . S
H64 C55 0.929 . S
H65 C58 0.930 . S
C66 C67 1.351 . S
C66 N69 1.368 . S
C66 H71 0.931 . S
C67 C66 1.351 . S
C67 N68 1.373 . S
C67 H95 0.930 . S
N68 C67 1.373 . S
N68 C70 1.340 . S
N69 C66 1.368 . S
N69 C70 1.321 . S
N69 Co72 2.135 . S
C70 N68 1.340 . S
C70 N69 1.321 . S
C70 H94 0.930 . S
H71 C66 0.931 . S
Co72 N69 2.135 . S
Co72 N75 2.121 . S
Co72 O80 2.055 . S
Co72 O83 2.039 . S
Co72 N86 2.140 . S
C73 O74 1.227 . S
C73 O83 1.265 . S
O74 C73 1.227 . S
N75 Co72 2.121 . S
N75 C77 1.375 . S
N75 C78 1.313 . S
C76 C77 1.338 . S
C76 N79 1.377 . S
C76 H96 0.930 . S
C77 N75 1.375 . S
C77 C76 1.338 . S
C77 H81 0.931 . S
C78 N75 1.313 . S
C78 N79 1.344 . S
C78 H82 0.930 . S
N79 C76 1.377 . S
N79 C78 1.344 . S
O80 Co72 2.055 . S
O80 C84 1.253 . S
H81 C77 0.931 . S
H82 C78 0.930 . S
O83 Co72 2.039 . S
O83 C73 1.265 . S
C84 O80 1.253 . S
C84 O85 1.227 . S
O85 C84 1.227 . S
N86 Co72 2.140 . S
N86 C89 1.346 . S
N86 C90 1.345 . S
C87 C88 1.387 . S
C87 C91 1.391 . S
C88 C87 1.387 . S
C88 C89 1.369 . S
C88 H97 0.929 . S
C89 N86 1.346 . S
C89 C88 1.369 . S
C89 H92 0.928 . S
C90 N86 1.345 . S
C90 C91 1.371 . S
C90 H93 0.931 . S
C91 C87 1.391 . S
C91 C90 1.371 . S
C91 H98 0.930 . S
H92 C89 0.928 . S
H93 C90 0.931 . S
H94 C70 0.930 . S
H95 C67 0.930 . S
H96 C76 0.930 . S
H97 C88 0.929 . S
H98 C91 0.930 . S
C99 C100 1.351 . S
C99 N102 1.368 . S
C99 H104 0.931 . S
C100 C99 1.351 . S
C100 N101 1.373 1_655 S
C100 H128 0.930 . S
N101 C100 1.373 1_455 S
N101 C103 1.340 1_455 S
N102 C99 1.368 . S
N102 C103 1.321 . S
N102 Co105 2.135 . S
C103 N101 1.340 1_655 S
C103 N102 1.321 . S
C103 H127 0.930 1_655 S
H104 C99 0.931 . S
Co105 N102 2.135 . S
Co105 N108 2.121 . S
Co105 O113 2.055 . S
Co105 O116 2.039 . S
Co105 N119 2.140 . S
C106 O107 1.227 . S
C106 O116 1.265 . S
O107 C106 1.227 . S
N108 Co105 2.121 . S
N108 C110 1.375 . S
N108 C111 1.313 . S
C109 C110 1.338 . S
C109 N112 1.377 . S
C109 H129 0.930 . S
C110 N108 1.375 . S
C110 C109 1.338 . S
C110 H114 0.931 . S
C111 N108 1.313 . S
C111 N112 1.344 . S
C111 H115 0.930 . S
N112 C109 1.377 . S
N112 C111 1.344 . S
O113 Co105 2.055 . S
O113 C117 1.253 . S
H114 C110 0.931 . S
H115 C111 0.930 . S
O116 Co105 2.039 . S
O116 C106 1.265 . S
C117 O113 1.253 . S
C117 O118 1.227 . S
O118 C117 1.227 . S
N119 Co105 2.140 . S
N119 C122 1.346 . S
N119 C123 1.345 . S
C120 C121 1.387 . S
C120 C124 1.391 . S
C121 C120 1.387 . S
C121 C122 1.369 . S
C121 H130 0.929 . S
C122 N119 1.346 . S
C122 C121 1.369 . S
C122 H125 0.928 . S
C123 N119 1.345 . S
C123 C124 1.371 . S
C123 H126 0.931 . S
C124 C120 1.391 . S
C124 C123 1.371 . S
C124 H131 0.930 . S
H125 C122 0.928 . S
H126 C123 0.931 . S
H127 C103 0.930 1_455 S
H128 C100 0.930 . S
H129 C109 0.930 . S
H130 C121 0.929 . S
H131 C124 0.930 . S
C132 C133 1.351 . S
C132 N135 1.368 . S
C132 H137 0.931 . S
C133 C132 1.351 . S
C133 N134 1.373 . S
C133 H161 0.930 . S
N134 C133 1.373 . S
N134 C136 1.340 . S
N135 C132 1.368 . S
N135 C136 1.321 . S
N135 Co138 2.135 . S
C136 N134 1.340 . S
C136 N135 1.321 . S
C136 H160 0.930 . S
H137 C132 0.931 . S
Co138 N135 2.135 . S
Co138 N141 2.121 . S
Co138 O146 2.055 . S
Co138 O149 2.039 . S
Co138 N152 2.140 . S
C139 O140 1.227 . S
C139 O149 1.265 . S
O140 C139 1.227 . S
N141 Co138 2.121 . S
N141 C143 1.375 . S
N141 C144 1.313 . S
C142 C143 1.338 . S
C142 N145 1.377 . S
C142 H162 0.930 . S
C143 N141 1.375 . S
C143 C142 1.338 . S
C143 H147 0.931 . S
C144 N141 1.313 . S
C144 N145 1.344 . S
C144 H148 0.930 . S
N145 C142 1.377 . S
N145 C144 1.344 . S
O146 Co138 2.055 . S
O146 C150 1.253 . S
H147 C143 0.931 . S
H148 C144 0.930 . S
O149 Co138 2.039 . S
O149 C139 1.265 . S
C150 O146 1.253 . S
C150 O151 1.227 . S
O151 C150 1.227 . S
N152 Co138 2.140 . S
N152 C155 1.346 . S
N152 C156 1.345 . S
C153 C154 1.387 . S
C153 C157 1.391 . S
C154 C153 1.387 . S
C154 C155 1.369 . S
C154 H163 0.929 . S
C155 N152 1.346 . S
C155 C154 1.369 . S
C155 H158 0.928 . S
C156 N152 1.345 . S
C156 C157 1.371 . S
C156 H159 0.931 . S
C157 C153 1.391 . S
C157 C156 1.371 . S
C157 H164 0.930 . S
H158 C155 0.928 . S
H159 C156 0.931 . S
H160 C136 0.930 . S
H161 C133 0.930 . S
H162 C142 0.930 . S
H163 C154 0.929 . S
H164 C157 0.930 . S
C165 C166 1.351 . S
C165 N168 1.368 . S
C165 H170 0.931 . S
C166 C165 1.351 . S
C166 N167 1.373 . S
C166 H194 0.930 . S
N167 C166 1.373 . S
N167 C169 1.340 . S
N168 C165 1.368 . S
N168 C169 1.321 . S
N168 Co171 2.135 . S
C169 N167 1.340 . S
C169 N168 1.321 . S
C169 H193 0.930 . S
H170 C165 0.931 . S
Co171 N168 2.135 . S
Co171 N174 2.121 . S
Co171 O179 2.055 . S
Co171 O182 2.039 . S
Co171 N185 2.140 . S
C172 O173 1.227 . S
C172 O182 1.265 . S
O173 C172 1.227 . S
N174 Co171 2.121 . S
N174 C176 1.375 . S
N174 C177 1.313 . S
C175 C176 1.338 . S
C175 N178 1.377 . S
C175 H195 0.930 . S
C176 N174 1.375 . S
C176 C175 1.338 . S
C176 H180 0.931 . S
C177 N174 1.313 . S
C177 N178 1.344 . S
C177 H181 0.930 . S
N178 C175 1.377 . S
N178 C177 1.344 . S
O179 Co171 2.055 . S
O179 C183 1.253 . S
H180 C176 0.931 . S
H181 C177 0.930 . S
O182 Co171 2.039 . S
O182 C172 1.265 . S
C183 O179 1.253 . S
C183 O184 1.227 . S
O184 C183 1.227 . S
N185 Co171 2.140 . S
N185 C188 1.346 . S
N185 C189 1.345 . S
C186 C187 1.387 . S
C186 C190 1.391 . S
C187 C186 1.387 . S
C187 C188 1.369 . S
C187 H196 0.929 . S
C188 N185 1.346 . S
C188 C187 1.369 . S
C188 H191 0.928 . S
C189 N185 1.345 . S
C189 C190 1.371 . S
C189 H192 0.931 . S
C190 C186 1.391 . S
C190 C189 1.371 . S
C190 H197 0.930 . S
H191 C188 0.928 . S
H192 C189 0.931 . S
H193 C169 0.930 . S
H194 C166 0.930 . S
H195 C175 0.930 . S
H196 C187 0.929 . S
H197 C190 0.930 . S
C198 C199 1.351 . S
C198 N201 1.368 . S
C198 H203 0.931 . S
C199 C198 1.351 . S
C199 N200 1.373 . S
C199 H227 0.930 . S
N200 C199 1.373 . S
N200 C202 1.340 . S
N201 C198 1.368 . S
N201 C202 1.321 . S
N201 Co204 2.135 . S
C202 N200 1.340 . S
C202 N201 1.321 . S
C202 H226 0.930 . S
H203 C198 0.931 . S
Co204 N201 2.135 . S
Co204 N207 2.121 . S
Co204 O212 2.055 . S
Co204 O215 2.039 . S
Co204 N218 2.140 . S
C205 O206 1.227 . S
C205 O215 1.265 . S
O206 C205 1.227 . S
N207 Co204 2.121 . S
N207 C209 1.375 . S
N207 C210 1.313 . S
C208 C209 1.338 . S
C208 N211 1.377 . S
C208 H228 0.930 . S
C209 N207 1.375 . S
C209 C208 1.338 . S
C209 H213 0.931 . S
C210 N207 1.313 . S
C210 N211 1.344 . S
C210 H214 0.930 . S
N211 C208 1.377 . S
N211 C210 1.344 . S
O212 Co204 2.055 . S
O212 C216 1.253 . S
H213 C209 0.931 . S
H214 C210 0.930 . S
O215 Co204 2.039 . S
O215 C205 1.265 . S
C216 O212 1.253 . S
C216 O217 1.227 . S
O217 C216 1.227 . S
N218 Co204 2.140 . S
N218 C221 1.346 . S
N218 C222 1.345 . S
C219 C220 1.387 . S
C219 C223 1.391 . S
C220 C219 1.387 . S
C220 C221 1.369 . S
C220 H229 0.929 . S
C221 N218 1.346 . S
C221 C220 1.369 . S
C221 H224 0.928 . S
C222 N218 1.345 . S
C222 C223 1.371 . S
C222 H225 0.931 . S
C223 C219 1.391 . S
C223 C222 1.371 . S
C223 H230 0.930 . S
H224 C221 0.928 . S
H225 C222 0.931 . S
H226 C202 0.930 . S
H227 C199 0.930 . S
H228 C208 0.930 . S
H229 C220 0.929 . S
H230 C223 0.930 . S
C231 C232 1.351 . S
C231 N234 1.368 . S
C231 H236 0.931 . S
C232 C231 1.351 . S
C232 N233 1.373 1_455 S
C232 H260 0.930 . S
N233 C232 1.373 1_655 S
N233 C235 1.340 1_655 S
N234 C231 1.368 . S
N234 C235 1.321 . S
N234 Co237 2.135 . S
C235 N233 1.340 1_455 S
C235 N234 1.321 . S
C235 H259 0.930 1_455 S
H236 C231 0.931 . S
Co237 N234 2.135 . S
Co237 N240 2.121 . S
Co237 O245 2.055 . S
Co237 O248 2.039 . S
Co237 N251 2.140 . S
C238 O239 1.227 . S
C238 O248 1.265 . S
O239 C238 1.227 . S
N240 Co237 2.121 . S
N240 C242 1.375 . S
N240 C243 1.313 . S
C241 C242 1.338 . S
C241 N244 1.377 . S
C241 H261 0.930 . S
C242 N240 1.375 . S
C242 C241 1.338 . S
C242 H246 0.931 . S
C243 N240 1.313 . S
C243 N244 1.344 . S
C243 H247 0.930 . S
N244 C241 1.377 . S
N244 C243 1.344 . S
O245 Co237 2.055 . S
O245 C249 1.253 . S
H246 C242 0.931 . S
H247 C243 0.930 . S
O248 Co237 2.039 . S
O248 C238 1.265 . S
C249 O245 1.253 . S
C249 O250 1.227 . S
O250 C249 1.227 . S
N251 Co237 2.140 . S
N251 C254 1.346 . S
N251 C255 1.345 . S
C252 C253 1.387 . S
C252 C256 1.391 . S
C253 C252 1.387 . S
C253 C254 1.369 . S
C253 H262 0.929 . S
C254 N251 1.346 . S
C254 C253 1.369 . S
C254 H257 0.928 . S
C255 N251 1.345 . S
C255 C256 1.371 . S
C255 H258 0.931 . S
C256 C252 1.391 . S
C256 C255 1.371 . S
C256 H263 0.930 . S
H257 C254 0.928 . S
H258 C255 0.931 . S
H259 C235 0.930 1_655 S
H260 C232 0.930 . S
H261 C241 0.930 . S
H262 C253 0.929 . S
H263 C256 0.930 . S
C264 C265 1.351 . S
C264 N267 1.368 . S
C264 H269 0.931 . S
C265 C264 1.351 . S
C265 N266 1.373 . S
C265 H293 0.930 . S
N266 C265 1.373 . S
N266 C268 1.340 . S
N267 C264 1.368 . S
N267 C268 1.321 . S
N267 Co270 2.135 . S
C268 N266 1.340 . S
C268 N267 1.321 . S
C268 H292 0.930 . S
H269 C264 0.931 . S
Co270 N267 2.135 . S
Co270 N273 2.121 . S
Co270 O278 2.055 . S
Co270 O281 2.039 . S
Co270 N284 2.140 . S
C271 O272 1.227 . S
C271 O281 1.265 . S
O272 C271 1.227 . S
N273 Co270 2.121 . S
N273 C275 1.375 . S
N273 C276 1.313 . S
C274 C275 1.338 . S
C274 N277 1.377 . S
C274 H294 0.930 . S
C275 N273 1.375 . S
C275 C274 1.338 . S
C275 H279 0.931 . S
C276 N273 1.313 . S
C276 N277 1.344 . S
C276 H280 0.930 . S
N277 C274 1.377 . S
N277 C276 1.344 . S
O278 Co270 2.055 . S
O278 C282 1.253 . S
H279 C275 0.931 . S
H280 C276 0.930 . S
O281 Co270 2.039 . S
O281 C271 1.265 . S
C282 O278 1.253 . S
C282 O283 1.227 . S
O283 C282 1.227 . S
N284 Co270 2.140 . S
N284 C287 1.346 . S
N284 C288 1.345 . S
C285 C286 1.387 . S
C285 C289 1.391 . S
C286 C285 1.387 . S
C286 C287 1.369 . S
C286 H295 0.929 . S
C287 N284 1.346 . S
C287 C286 1.369 . S
C287 H290 0.928 . S
C288 N284 1.345 . S
C288 C289 1.371 . S
C288 H291 0.931 . S
C289 C285 1.391 . S
C289 C288 1.371 . S
C289 H296 0.930 . S
H290 C287 0.928 . S
H291 C288 0.931 . S
H292 C268 0.930 . S
H293 C265 0.930 . S
H294 C274 0.930 . S
H295 C286 0.929 . S
H296 C289 0.930 . S
C297 C298 1.351 . S
C297 N300 1.368 . S
C297 H302 0.931 . S
C298 C297 1.351 . S
C298 N299 1.373 1_556 S
C298 H326 0.930 . S
N299 C298 1.373 1_554 S
N299 C301 1.340 1_554 S
N300 C297 1.368 . S
N300 C301 1.321 . S
N300 Co303 2.135 . S
C301 N299 1.340 1_556 S
C301 N300 1.321 . S
C301 H325 0.930 1_556 S
H302 C297 0.931 . S
Co303 N300 2.135 . S
Co303 N306 2.121 . S
Co303 O311 2.055 . S
Co303 O314 2.039 . S
Co303 N317 2.140 . S
C304 O305 1.227 . S
C304 O314 1.265 . S
O305 C304 1.227 . S
N306 Co303 2.121 . S
N306 C308 1.375 . S
N306 C309 1.313 . S
C307 C308 1.338 . S
C307 N310 1.377 . S
C307 H327 0.930 . S
C308 N306 1.375 . S
C308 C307 1.338 . S
C308 H312 0.931 . S
C309 N306 1.313 . S
C309 N310 1.344 . S
C309 H313 0.930 . S
N310 C307 1.377 . S
N310 C309 1.344 . S
O311 Co303 2.055 . S
O311 C315 1.253 . S
H312 C308 0.931 . S
H313 C309 0.930 . S
O314 Co303 2.039 . S
O314 C304 1.265 . S
C315 O311 1.253 . S
C315 O316 1.227 . S
O316 C315 1.227 . S
N317 Co303 2.140 . S
N317 C320 1.346 . S
N317 C321 1.345 . S
C318 C319 1.387 . S
C318 C322 1.391 . S
C319 C318 1.387 . S
C319 C320 1.369 . S
C319 H328 0.929 . S
C320 N317 1.346 . S
C320 C319 1.369 . S
C320 H323 0.928 . S
C321 N317 1.345 . S
C321 C322 1.371 . S
C321 H324 0.931 . S
C322 C318 1.391 . S
C322 C321 1.371 . S
C322 H329 0.930 . S
H323 C320 0.928 . S
H324 C321 0.931 . S
H325 C301 0.930 1_554 S
H326 C298 0.930 . S
H327 C307 0.930 . S
H328 C319 0.929 . S
H329 C322 0.930 . S
C330 C331 1.351 . S
C330 N333 1.368 . S
C330 H335 0.931 . S
C331 C330 1.351 . S
C331 N332 1.373 . S
C331 H359 0.930 . S
N332 C331 1.373 . S
N332 C334 1.340 . S
N333 C330 1.368 . S
N333 C334 1.321 . S
N333 Co336 2.135 . S
C334 N332 1.340 . S
C334 N333 1.321 . S
C334 H358 0.930 . S
H335 C330 0.931 . S
Co336 N333 2.135 . S
Co336 N339 2.121 . S
Co336 O344 2.055 . S
Co336 O347 2.039 . S
Co336 N350 2.140 . S
C337 O338 1.227 . S
C337 O347 1.265 . S
O338 C337 1.227 . S
N339 Co336 2.121 . S
N339 C341 1.375 . S
N339 C342 1.313 . S
C340 C341 1.338 . S
C340 N343 1.377 . S
C340 H360 0.930 . S
C341 N339 1.375 . S
C341 C340 1.338 . S
C341 H345 0.931 . S
C342 N339 1.313 . S
C342 N343 1.344 . S
C342 H346 0.930 . S
N343 C340 1.377 . S
N343 C342 1.344 . S
O344 Co336 2.055 . S
O344 C348 1.253 . S
H345 C341 0.931 . S
H346 C342 0.930 . S
O347 Co336 2.039 . S
O347 C337 1.265 . S
C348 O344 1.253 . S
C348 O349 1.227 . S
O349 C348 1.227 . S
N350 Co336 2.140 . S
N350 C353 1.346 . S
N350 C354 1.345 . S
C351 C352 1.387 . S
C351 C355 1.391 . S
C352 C351 1.387 . S
C352 C353 1.369 . S
C352 H361 0.929 . S
C353 N350 1.346 . S
C353 C352 1.369 . S
C353 H356 0.928 . S
C354 N350 1.345 . S
C354 C355 1.371 . S
C354 H357 0.931 . S
C355 C351 1.391 . S
C355 C354 1.371 . S
C355 H362 0.930 . S
H356 C353 0.928 . S
H357 C354 0.931 . S
H358 C334 0.930 . S
H359 C331 0.930 . S
H360 C340 0.930 . S
H361 C352 0.929 . S
H362 C355 0.930 . S
C363 C364 1.351 . S
C363 N366 1.368 . S
C363 H368 0.931 . S
C364 C363 1.351 . S
C364 N365 1.373 . S
C364 H392 0.930 . S
N365 C364 1.373 . S
N365 C367 1.340 . S
N366 C363 1.368 . S
N366 C367 1.321 . S
N366 Co369 2.135 . S
C367 N365 1.340 . S
C367 N366 1.321 . S
C367 H391 0.930 . S
H368 C363 0.931 . S
Co369 N366 2.135 . S
Co369 N372 2.121 . S
Co369 O377 2.055 . S
Co369 O380 2.039 . S
Co369 N383 2.140 . S
C370 O371 1.227 . S
C370 O380 1.265 . S
O371 C370 1.227 . S
N372 Co369 2.121 . S
N372 C374 1.375 . S
N372 C375 1.313 . S
C373 C374 1.338 . S
C373 N376 1.377 . S
C373 H393 0.930 . S
C374 N372 1.375 . S
C374 C373 1.338 . S
C374 H378 0.931 . S
C375 N372 1.313 . S
C375 N376 1.344 . S
C375 H379 0.930 . S
N376 C373 1.377 . S
N376 C375 1.344 . S
O377 Co369 2.055 . S
O377 C381 1.253 . S
H378 C374 0.931 . S
H379 C375 0.930 . S
O380 Co369 2.039 . S
O380 C370 1.265 . S
C381 O377 1.253 . S
C381 O382 1.227 . S
O382 C381 1.227 . S
N383 Co369 2.140 . S
N383 C386 1.346 . S
N383 C387 1.345 . S
C384 C385 1.387 . S
C384 C388 1.391 . S
C385 C384 1.387 . S
C385 C386 1.369 . S
C385 H394 0.929 . S
C386 N383 1.346 . S
C386 C385 1.369 . S
C386 H389 0.928 . S
C387 N383 1.345 . S
C387 C388 1.371 . S
C387 H390 0.931 . S
C388 C384 1.391 . S
C388 C387 1.371 . S
C388 H395 0.930 . S
H389 C386 0.928 . S
H390 C387 0.931 . S
H391 C367 0.930 . S
H392 C364 0.930 . S
H393 C373 0.930 . S
H394 C385 0.929 . S
H395 C388 0.930 . S
C396 C397 1.351 . S
C396 N399 1.368 . S
C396 H401 0.931 . S
C397 C396 1.351 . S
C397 N398 1.373 . S
C397 H425 0.930 . S
N398 C397 1.373 . S
N398 C400 1.340 . S
N399 C396 1.368 . S
N399 C400 1.321 . S
N399 Co402 2.135 . S
C400 N398 1.340 . S
C400 N399 1.321 . S
C400 H424 0.930 . S
H401 C396 0.931 . S
Co402 N399 2.135 . S
Co402 N405 2.121 . S
Co402 O410 2.055 . S
Co402 O413 2.039 . S
Co402 N416 2.140 . S
C403 O404 1.227 . S
C403 O413 1.265 . S
O404 C403 1.227 . S
N405 Co402 2.121 . S
N405 C407 1.375 . S
N405 C408 1.313 . S
C406 C407 1.338 . S
C406 N409 1.377 . S
C406 H426 0.930 . S
C407 N405 1.375 . S
C407 C406 1.338 . S
C407 H411 0.931 . S
C408 N405 1.313 . S
C408 N409 1.344 . S
C408 H412 0.930 . S
N409 C406 1.377 . S
N409 C408 1.344 . S
O410 Co402 2.055 . S
O410 C414 1.253 . S
H411 C407 0.931 . S
H412 C408 0.930 . S
O413 Co402 2.039 . S
O413 C403 1.265 . S
C414 O410 1.253 . S
C414 O415 1.227 . S
O415 C414 1.227 . S
N416 Co402 2.140 . S
N416 C419 1.346 . S
N416 C420 1.345 . S
C417 C418 1.387 . S
C417 C421 1.391 . S
C418 C417 1.387 . S
C418 C419 1.369 . S
C418 H427 0.929 . S
C419 N416 1.346 . S
C419 C418 1.369 . S
C419 H422 0.928 . S
C420 N416 1.345 . S
C420 C421 1.371 . S
C420 H423 0.931 . S
C421 C417 1.391 . S
C421 C420 1.371 . S
C421 H428 0.930 . S
H422 C419 0.928 . S
H423 C420 0.931 . S
H424 C400 0.930 . S
H425 C397 0.930 . S
H426 C406 0.930 . S
H427 C418 0.929 . S
H428 C421 0.930 . S
C429 C430 1.351 . S
C429 N432 1.368 . S
C429 H434 0.931 . S
C430 C429 1.351 . S
C430 N431 1.373 . S
C430 H458 0.930 . S
N431 C430 1.373 . S
N431 C433 1.340 . S
N432 C429 1.368 . S
N432 C433 1.321 . S
N432 Co435 2.135 . S
C433 N431 1.340 . S
C433 N432 1.321 . S
C433 H457 0.930 . S
H434 C429 0.931 . S
Co435 N432 2.135 . S
Co435 N438 2.121 . S
Co435 O443 2.055 . S
Co435 O446 2.039 . S
Co435 N449 2.140 . S
C436 O437 1.227 . S
C436 O446 1.265 . S
O437 C436 1.227 . S
N438 Co435 2.121 . S
N438 C440 1.375 . S
N438 C441 1.313 . S
C439 C440 1.338 . S
C439 N442 1.377 . S
C439 H459 0.930 . S
C440 N438 1.375 . S
C440 C439 1.338 . S
C440 H444 0.931 . S
C441 N438 1.313 . S
C441 N442 1.344 . S
C441 H445 0.930 . S
N442 C439 1.377 . S
N442 C441 1.344 . S
O443 Co435 2.055 . S
O443 C447 1.253 . S
H444 C440 0.931 . S
H445 C441 0.930 . S
O446 Co435 2.039 . S
O446 C436 1.265 . S
C447 O443 1.253 . S
C447 O448 1.227 . S
O448 C447 1.227 . S
N449 Co435 2.140 . S
N449 C452 1.346 . S
N449 C453 1.345 . S
C450 C451 1.387 . S
C450 C454 1.391 . S
C451 C450 1.387 . S
C451 C452 1.369 . S
C451 H460 0.929 . S
C452 N449 1.346 . S
C452 C451 1.369 . S
C452 H455 0.928 . S
C453 N449 1.345 . S
C453 C454 1.371 . S
C453 H456 0.931 . S
C454 C450 1.391 . S
C454 C453 1.371 . S
C454 H461 0.930 . S
H455 C452 0.928 . S
H456 C453 0.931 . S
H457 C433 0.930 . S
H458 C430 0.930 . S
H459 C439 0.930 . S
H460 C451 0.929 . S
H461 C454 0.930 . S
C462 C463 1.351 . S
C462 N465 1.368 . S
C462 H467 0.931 . S
C463 C462 1.351 . S
C463 N464 1.373 . S
C463 H491 0.930 . S
N464 C463 1.373 . S
N464 C466 1.340 . S
N465 C462 1.368 . S
N465 C466 1.321 . S
N465 Co468 2.135 . S
C466 N464 1.340 . S
C466 N465 1.321 . S
C466 H490 0.930 . S
H467 C462 0.931 . S
Co468 N465 2.135 . S
Co468 N471 2.121 . S
Co468 O476 2.055 . S
Co468 O479 2.039 . S
Co468 N482 2.140 . S
C469 O470 1.227 . S
C469 O479 1.265 . S
O470 C469 1.227 . S
N471 Co468 2.121 . S
N471 C473 1.375 . S
N471 C474 1.313 . S
C472 C473 1.338 . S
C472 N475 1.377 . S
C472 H492 0.930 . S
C473 N471 1.375 . S
C473 C472 1.338 . S
C473 H477 0.931 . S
C474 N471 1.313 . S
C474 N475 1.344 . S
C474 H478 0.930 . S
N475 C472 1.377 . S
N475 C474 1.344 . S
O476 Co468 2.055 . S
O476 C480 1.253 . S
H477 C473 0.931 . S
H478 C474 0.930 . S
O479 Co468 2.039 . S
O479 C469 1.265 . S
C480 O476 1.253 . S
C480 O481 1.227 . S
O481 C480 1.227 . S
N482 Co468 2.140 . S
N482 C485 1.346 . S
N482 C486 1.345 . S
C483 C484 1.387 . S
C483 C487 1.391 . S
C484 C483 1.387 . S
C484 C485 1.369 . S
C484 H493 0.929 . S
C485 N482 1.346 . S
C485 C484 1.369 . S
C485 H488 0.928 . S
C486 N482 1.345 . S
C486 C487 1.371 . S
C486 H489 0.931 . S
C487 C483 1.391 . S
C487 C486 1.371 . S
C487 H494 0.930 . S
H488 C485 0.928 . S
H489 C486 0.931 . S
H490 C466 0.930 . S
H491 C463 0.930 . S
H492 C472 0.930 . S
H493 C484 0.929 . S
H494 C487 0.930 . S
C495 C496 1.351 . S
C495 N498 1.368 . S
C495 H500 0.931 . S
C496 C495 1.351 . S
C496 N497 1.373 1_554 S
C496 H524 0.930 . S
N497 C496 1.373 1_556 S
N497 C499 1.340 1_556 S
N498 C495 1.368 . S
N498 C499 1.321 . S
N498 Co501 2.135 . S
C499 N497 1.340 1_554 S
C499 N498 1.321 . S
C499 H523 0.930 1_554 S
H500 C495 0.931 . S
Co501 N498 2.135 . S
Co501 N504 2.121 . S
Co501 O509 2.055 . S
Co501 O512 2.039 . S
Co501 N515 2.140 . S
C502 O503 1.227 . S
C502 O512 1.265 . S
O503 C502 1.227 . S
N504 Co501 2.121 . S
N504 C506 1.375 . S
N504 C507 1.313 . S
C505 C506 1.338 . S
C505 N508 1.377 . S
C505 H525 0.930 . S
C506 N504 1.375 . S
C506 C505 1.338 . S
C506 H510 0.931 . S
C507 N504 1.313 . S
C507 N508 1.344 . S
C507 H511 0.930 . S
N508 C505 1.377 . S
N508 C507 1.344 . S
O509 Co501 2.055 . S
O509 C513 1.253 . S
H510 C506 0.931 . S
H511 C507 0.930 . S
O512 Co501 2.039 . S
O512 C502 1.265 . S
C513 O509 1.253 . S
C513 O514 1.227 . S
O514 C513 1.227 . S
N515 Co501 2.140 . S
N515 C518 1.346 . S
N515 C519 1.345 . S
C516 C517 1.387 . S
C516 C520 1.391 . S
C517 C516 1.387 . S
C517 C518 1.369 . S
C517 H526 0.929 . S
C518 N515 1.346 . S
C518 C517 1.369 . S
C518 H521 0.928 . S
C519 N515 1.345 . S
C519 C520 1.371 . S
C519 H522 0.931 . S
C520 C516 1.391 . S
C520 C519 1.371 . S
C520 H527 0.930 . S
H521 C518 0.928 . S
H522 C519 0.931 . S
H523 C499 0.930 1_556 S
H524 C496 0.930 . S
H525 C505 0.930 . S
H526 C517 0.929 . S
H527 C520 0.930 . S
C528 C529 1.351 . S
C528 N531 1.368 . S
C528 H533 0.931 . S
C529 C528 1.351 . S
C529 N530 1.373 . S
C529 H557 0.930 . S
N530 C529 1.373 . S
N530 C532 1.340 . S
N531 C528 1.368 . S
N531 C532 1.321 . S
N531 Co534 2.135 . S
C532 N530 1.340 . S
C532 N531 1.321 . S
C532 H556 0.930 . S
H533 C528 0.931 . S
Co534 N531 2.135 . S
Co534 N537 2.121 . S
Co534 O542 2.055 . S
Co534 O545 2.039 . S
Co534 N548 2.140 . S
C535 O536 1.227 . S
C535 O545 1.265 . S
O536 C535 1.227 . S
N537 Co534 2.121 . S
N537 C539 1.375 . S
N537 C540 1.313 . S
C538 C539 1.338 . S
C538 N541 1.377 . S
C538 H558 0.930 . S
C539 N537 1.375 . S
C539 C538 1.338 . S
C539 H543 0.931 . S
C540 N537 1.313 . S
C540 N541 1.344 . S
C540 H544 0.930 . S
N541 C538 1.377 . S
N541 C540 1.344 . S
O542 Co534 2.055 . S
O542 C546 1.253 . S
H543 C539 0.931 . S
H544 C540 0.930 . S
O545 Co534 2.039 . S
O545 C535 1.265 . S
C546 O542 1.253 . S
C546 O547 1.227 . S
O547 C546 1.227 . S
N548 Co534 2.140 . S
N548 C551 1.346 . S
N548 C552 1.345 . S
C549 C550 1.387 . S
C549 C553 1.391 . S
C550 C549 1.387 . S
C550 C551 1.369 . S
C550 H559 0.929 . S
C551 N548 1.346 . S
C551 C550 1.369 . S
C551 H554 0.928 . S
C552 N548 1.345 . S
C552 C553 1.371 . S
C552 H555 0.931 . S
C553 C549 1.391 . S
C553 C552 1.371 . S
C553 H560 0.930 . S
H554 C551 0.928 . S
H555 C552 0.931 . S
H556 C532 0.930 . S
H557 C529 0.930 . S
H558 C538 0.930 . S
H559 C550 0.929 . S
H560 C553 0.930 . S
C561 C562 1.351 . S
C561 N564 1.368 . S
C561 H566 0.931 . S
C562 C561 1.351 . S
C562 N563 1.373 . S
C562 H590 0.930 . S
N563 C562 1.373 . S
N563 C565 1.340 . S
N564 C561 1.368 . S
N564 C565 1.321 . S
N564 Co567 2.135 . S
C565 N563 1.340 . S
C565 N564 1.321 . S
C565 H589 0.930 . S
H566 C561 0.931 . S
Co567 N564 2.135 . S
Co567 N570 2.121 . S
Co567 O575 2.055 . S
Co567 O578 2.039 . S
Co567 N581 2.140 . S
C568 O569 1.227 . S
C568 O578 1.265 . S
O569 C568 1.227 . S
N570 Co567 2.121 . S
N570 C572 1.375 . S
N570 C573 1.313 . S
C571 C572 1.338 . S
C571 N574 1.377 . S
C571 H591 0.930 . S
C572 N570 1.375 . S
C572 C571 1.338 . S
C572 H576 0.931 . S
C573 N570 1.313 . S
C573 N574 1.344 . S
C573 H577 0.930 . S
N574 C571 1.377 . S
N574 C573 1.344 . S
O575 Co567 2.055 . S
O575 C579 1.253 . S
H576 C572 0.931 . S
H577 C573 0.930 . S
O578 Co567 2.039 . S
O578 C568 1.265 . S
C579 O575 1.253 . S
C579 O580 1.227 . S
O580 C579 1.227 . S
N581 Co567 2.140 . S
N581 C584 1.346 . S
N581 C585 1.345 . S
C582 C583 1.387 . S
C582 C586 1.391 . S
C583 C582 1.387 . S
C583 C584 1.369 . S
C583 H592 0.929 . S
C584 N581 1.346 . S
C584 C583 1.369 . S
C584 H587 0.928 . S
C585 N581 1.345 . S
C585 C586 1.371 . S
C585 H588 0.931 . S
C586 C582 1.391 . S
C586 C585 1.371 . S
C586 H593 0.930 . S
H587 C584 0.928 . S
H588 C585 0.931 . S
H589 C565 0.930 . S
H590 C562 0.930 . S
H591 C571 0.930 . S
H592 C583 0.929 . S
H593 C586 0.930 . S
C594 C595 1.351 . S
C594 N597 1.368 . S
C594 H599 0.931 . S
C595 C594 1.351 . S
C595 N596 1.373 1_565 S
C595 H623 0.930 . S
N596 C595 1.373 1_545 S
N596 C598 1.340 1_545 S
N597 C594 1.368 . S
N597 C598 1.321 . S
N597 Co600 2.135 . S
C598 N596 1.340 1_565 S
C598 N597 1.321 . S
C598 H622 0.930 1_565 S
H599 C594 0.931 . S
Co600 N597 2.135 . S
Co600 N603 2.121 . S
Co600 O608 2.055 . S
Co600 O611 2.039 . S
Co600 N614 2.140 . S
C601 O602 1.227 . S
C601 O611 1.265 . S
O602 C601 1.227 . S
N603 Co600 2.121 . S
N603 C605 1.375 . S
N603 C606 1.313 . S
C604 C605 1.338 . S
C604 N607 1.377 . S
C604 H624 0.930 . S
C605 N603 1.375 . S
C605 C604 1.338 . S
C605 H609 0.931 . S
C606 N603 1.313 . S
C606 N607 1.344 . S
C606 H610 0.930 . S
N607 C604 1.377 . S
N607 C606 1.344 . S
O608 Co600 2.055 . S
O608 C612 1.253 . S
H609 C605 0.931 . S
H610 C606 0.930 . S
O611 Co600 2.039 . S
O611 C601 1.265 . S
C612 O608 1.253 . S
C612 O613 1.227 . S
O613 C612 1.227 . S
N614 Co600 2.140 . S
N614 C617 1.346 . S
N614 C618 1.345 . S
C615 C616 1.387 . S
C615 C619 1.391 . S
C616 C615 1.387 . S
C616 C617 1.369 . S
C616 H625 0.929 . S
C617 N614 1.346 . S
C617 C616 1.369 . S
C617 H620 0.928 . S
C618 N614 1.345 . S
C618 C619 1.371 . S
C618 H621 0.931 . S
C619 C615 1.391 . S
C619 C618 1.371 . S
C619 H626 0.930 . S
H620 C617 0.928 . S
H621 C618 0.931 . S
H622 C598 0.930 1_545 S
H623 C595 0.930 . S
H624 C604 0.930 . S
H625 C616 0.929 . S
H626 C619 0.930 . S
C627 C628 1.351 . S
C627 N630 1.368 . S
C627 H632 0.931 . S
C628 C627 1.351 . S
C628 N629 1.373 . S
C628 H656 0.930 . S
N629 C628 1.373 . S
N629 C631 1.340 . S
N630 C627 1.368 . S
N630 C631 1.321 . S
N630 Co633 2.135 . S
C631 N629 1.340 . S
C631 N630 1.321 . S
C631 H655 0.930 . S
H632 C627 0.931 . S
Co633 N630 2.135 . S
Co633 N636 2.121 . S
Co633 O641 2.055 . S
Co633 O644 2.039 . S
Co633 N647 2.140 . S
C634 O635 1.227 . S
C634 O644 1.265 . S
O635 C634 1.227 . S
N636 Co633 2.121 . S
N636 C638 1.375 . S
N636 C639 1.313 . S
C637 C638 1.338 . S
C637 N640 1.377 . S
C637 H657 0.930 . S
C638 N636 1.375 . S
C638 C637 1.338 . S
C638 H642 0.931 . S
C639 N636 1.313 . S
C639 N640 1.344 . S
C639 H643 0.930 . S
N640 C637 1.377 . S
N640 C639 1.344 . S
O641 Co633 2.055 . S
O641 C645 1.253 . S
H642 C638 0.931 . S
H643 C639 0.930 . S
O644 Co633 2.039 . S
O644 C634 1.265 . S
C645 O641 1.253 . S
C645 O646 1.227 . S
O646 C645 1.227 . S
N647 Co633 2.140 . S
N647 C650 1.346 . S
N647 C651 1.345 . S
C648 C649 1.387 . S
C648 C652 1.391 . S
C649 C648 1.387 . S
C649 C650 1.369 . S
C649 H658 0.929 . S
C650 N647 1.346 . S
C650 C649 1.369 . S
C650 H653 0.928 . S
C651 N647 1.345 . S
C651 C652 1.371 . S
C651 H654 0.931 . S
C652 C648 1.391 . S
C652 C651 1.371 . S
C652 H659 0.930 . S
H653 C650 0.928 . S
H654 C651 0.931 . S
H655 C631 0.930 . S
H656 C628 0.930 . S
H657 C637 0.930 . S
H658 C649 0.929 . S
H659 C652 0.930 . S
C660 C661 1.351 . S
C660 N663 1.368 . S
C660 H665 0.931 . S
C661 C660 1.351 . S
C661 N662 1.373 1_545 S
C661 H689 0.930 . S
N662 C661 1.373 1_565 S
N662 C664 1.340 1_565 S
N663 C660 1.368 . S
N663 C664 1.321 . S
N663 Co666 2.135 . S
C664 N662 1.340 1_545 S
C664 N663 1.321 . S
C664 H688 0.930 1_545 S
H665 C660 0.931 . S
Co666 N663 2.135 . S
Co666 N669 2.121 . S
Co666 O674 2.055 . S
Co666 O677 2.039 . S
Co666 N680 2.140 . S
C667 O668 1.227 . S
C667 O677 1.265 . S
O668 C667 1.227 . S
N669 Co666 2.121 . S
N669 C671 1.375 . S
N669 C672 1.313 . S
C670 C671 1.338 . S
C670 N673 1.377 . S
C670 H690 0.930 . S
C671 N669 1.375 . S
C671 C670 1.338 . S
C671 H675 0.931 . S
C672 N669 1.313 . S
C672 N673 1.344 . S
C672 H676 0.930 . S
N673 C670 1.377 . S
N673 C672 1.344 . S
O674 Co666 2.055 . S
O674 C678 1.253 . S
H675 C671 0.931 . S
H676 C672 0.930 . S
O677 Co666 2.039 . S
O677 C667 1.265 . S
C678 O674 1.253 . S
C678 O679 1.227 . S
O679 C678 1.227 . S
N680 Co666 2.140 . S
N680 C683 1.346 . S
N680 C684 1.345 . S
C681 C682 1.387 . S
C681 C685 1.391 . S
C682 C681 1.387 . S
C682 C683 1.369 . S
C682 H691 0.929 . S
C683 N680 1.346 . S
C683 C682 1.369 . S
C683 H686 0.928 . S
C684 N680 1.345 . S
C684 C685 1.371 . S
C684 H687 0.931 . S
C685 C681 1.391 . S
C685 C684 1.371 . S
C685 H692 0.930 . S
H686 C683 0.928 . S
H687 C684 0.931 . S
H688 C664 0.930 1_565 S
H689 C661 0.930 . S
H690 C670 0.930 . S
H691 C682 0.929 . S
H692 C685 0.930 . S
C693 C694 1.351 . S
C693 N696 1.368 . S
C693 H698 0.931 . S
C694 C693 1.351 . S
C694 N695 1.373 . S
C694 H722 0.930 . S
N695 C694 1.373 . S
N695 C697 1.340 . S
N696 C693 1.368 . S
N696 C697 1.321 . S
N696 Co699 2.135 . S
C697 N695 1.340 . S
C697 N696 1.321 . S
C697 H721 0.930 . S
H698 C693 0.931 . S
Co699 N696 2.135 . S
Co699 N702 2.121 . S
Co699 O707 2.055 . S
Co699 O710 2.039 . S
Co699 N713 2.140 . S
C700 O701 1.227 . S
C700 O710 1.265 . S
O701 C700 1.227 . S
N702 Co699 2.121 . S
N702 C704 1.375 . S
N702 C705 1.313 . S
C703 C704 1.338 . S
C703 N706 1.377 . S
C703 H723 0.930 . S
C704 N702 1.375 . S
C704 C703 1.338 . S
C704 H708 0.931 . S
C705 N702 1.313 . S
C705 N706 1.344 . S
C705 H709 0.930 . S
N706 C703 1.377 . S
N706 C705 1.344 . S
O707 Co699 2.055 . S
O707 C711 1.253 . S
H708 C704 0.931 . S
H709 C705 0.930 . S
O710 Co699 2.039 . S
O710 C700 1.265 . S
C711 O707 1.253 . S
C711 O712 1.227 . S
O712 C711 1.227 . S
N713 Co699 2.140 . S
N713 C716 1.346 . S
N713 C717 1.345 . S
C714 C715 1.387 . S
C714 C718 1.391 . S
C715 C714 1.387 . S
C715 C716 1.369 . S
C715 H724 0.929 . S
C716 N713 1.346 . S
C716 C715 1.369 . S
C716 H719 0.928 . S
C717 N713 1.345 . S
C717 C718 1.371 . S
C717 H720 0.931 . S
C718 C714 1.391 . S
C718 C717 1.371 . S
C718 H725 0.930 . S
H719 C716 0.928 . S
H720 C717 0.931 . S
H721 C697 0.930 . S
H722 C694 0.930 . S
H723 C703 0.930 . S
H724 C715 0.929 . S
H725 C718 0.930 . S
C726 C727 1.351 . S
C726 N729 1.368 . S
C726 H731 0.931 . S
C727 C726 1.351 . S
C727 N728 1.373 . S
C727 H755 0.930 . S
N728 C727 1.373 . S
N728 C730 1.340 . S
N729 C726 1.368 . S
N729 C730 1.321 . S
N729 Co732 2.135 . S
C730 N728 1.340 . S
C730 N729 1.321 . S
C730 H754 0.930 . S
H731 C726 0.931 . S
Co732 N729 2.135 . S
Co732 N735 2.121 . S
Co732 O740 2.055 . S
Co732 O743 2.039 . S
Co732 N746 2.140 . S
C733 O734 1.227 . S
C733 O743 1.265 . S
O734 C733 1.227 . S
N735 Co732 2.121 . S
N735 C737 1.375 . S
N735 C738 1.313 . S
C736 C737 1.338 . S
C736 N739 1.377 . S
C736 H756 0.930 . S
C737 N735 1.375 . S
C737 C736 1.338 . S
C737 H741 0.931 . S
C738 N735 1.313 . S
C738 N739 1.344 . S
C738 H742 0.930 . S
N739 C736 1.377 . S
N739 C738 1.344 . S
O740 Co732 2.055 . S
O740 C744 1.253 . S
H741 C737 0.931 . S
H742 C738 0.930 . S
O743 Co732 2.039 . S
O743 C733 1.265 . S
C744 O740 1.253 . S
C744 O745 1.227 . S
O745 C744 1.227 . S
N746 Co732 2.140 . S
N746 C749 1.346 . S
N746 C750 1.345 . S
C747 C748 1.387 . S
C747 C751 1.391 . S
C748 C747 1.387 . S
C748 C749 1.369 . S
C748 H757 0.929 . S
C749 N746 1.346 . S
C749 C748 1.369 . S
C749 H752 0.928 . S
C750 N746 1.345 . S
C750 C751 1.371 . S
C750 H753 0.931 . S
C751 C747 1.391 . S
C751 C750 1.371 . S
C751 H758 0.930 . S
H752 C749 0.928 . S
H753 C750 0.931 . S
H754 C730 0.930 . S
H755 C727 0.930 . S
H756 C736 0.930 . S
H757 C748 0.929 . S
H758 C751 0.930 . S
C759 C760 1.351 . S
C759 N762 1.368 . S
C759 H764 0.931 . S
C760 C759 1.351 . S
C760 N761 1.373 . S
C760 H788 0.930 . S
N761 C760 1.373 . S
N761 C763 1.340 . S
N762 C759 1.368 . S
N762 C763 1.321 . S
N762 Co765 2.135 . S
C763 N761 1.340 . S
C763 N762 1.321 . S
C763 H787 0.930 . S
H764 C759 0.931 . S
Co765 N762 2.135 . S
Co765 N768 2.121 . S
Co765 O773 2.055 . S
Co765 O776 2.039 . S
Co765 N779 2.140 . S
C766 O767 1.227 . S
C766 O776 1.265 . S
O767 C766 1.227 . S
N768 Co765 2.121 . S
N768 C770 1.375 . S
N768 C771 1.313 . S
C769 C770 1.338 . S
C769 N772 1.377 . S
C769 H789 0.930 . S
C770 N768 1.375 . S
C770 C769 1.338 . S
C770 H774 0.931 . S
C771 N768 1.313 . S
C771 N772 1.344 . S
C771 H775 0.930 . S
N772 C769 1.377 . S
N772 C771 1.344 . S
O773 Co765 2.055 . S
O773 C777 1.253 . S
H774 C770 0.931 . S
H775 C771 0.930 . S
O776 Co765 2.039 . S
O776 C766 1.265 . S
C777 O773 1.253 . S
C777 O778 1.227 . S
O778 C777 1.227 . S
N779 Co765 2.140 . S
N779 C782 1.346 . S
N779 C783 1.345 . S
C780 C781 1.387 . S
C780 C784 1.391 . S
C781 C780 1.387 . S
C781 C782 1.369 . S
C781 H790 0.929 . S
C782 N779 1.346 . S
C782 C781 1.369 . S
C782 H785 0.928 . S
C783 N779 1.345 . S
C783 C784 1.371 . S
C783 H786 0.931 . S
C784 C780 1.391 . S
C784 C783 1.371 . S
C784 H791 0.930 . S
H785 C782 0.928 . S
H786 C783 0.931 . S
H787 C763 0.930 . S
H788 C760 0.930 . S
H789 C769 0.930 . S
H790 C781 0.929 . S
H791 C784 0.930 . S
C792 C793 1.391 . S
C792 C794 1.394 . S
C792 H808 0.931 . S
C793 C792 1.391 . S
C793 C797 1.376 . S
C794 C792 1.394 . S
C794 C795 1.369 . S
C794 C798 1.531 . S
C795 C794 1.369 . S
C795 C796 1.410 . S
C795 C803 1.503 . S
C796 C795 1.410 . S
C796 C797 1.392 . S
C796 C799 1.511 . S
C797 C793 1.376 . S
C797 C796 1.392 . S
C797 H809 0.929 . S
C798 C794 1.531 . S
C798 H810 0.960 . S
C798 H811 0.962 . S
C798 H812 0.960 . S
C799 C796 1.511 . S
C799 H813 0.961 . S
C799 H814 0.961 . S
C799 H815 0.961 . S
C800 C801 1.370 . S
C800 C802 1.363 . S
C800 H816 0.931 . S
C801 C800 1.370 . S
C801 C805 1.408 . S
C802 C800 1.363 . S
C802 C803 1.370 . S
C802 C806 1.524 . S
C803 C795 1.503 . S
C803 C802 1.370 . S
C803 C804 1.403 . S
C804 C803 1.403 . S
C804 C805 1.404 . S
C804 C807 1.539 . S
C805 C801 1.408 . S
C805 C804 1.404 . S
C805 H817 0.930 . S
C806 C802 1.524 . S
C806 H818 0.956 . S
C806 H819 0.961 . S
C806 H820 0.961 . S
C807 C804 1.539 . S
C807 H821 0.958 . S
C807 H822 0.961 . S
C807 H823 0.960 . S
H808 C792 0.931 . S
H809 C797 0.929 . S
H810 C798 0.960 . S
H811 C798 0.962 . S
H812 C798 0.960 . S
H813 C799 0.961 . S
H814 C799 0.961 . S
H815 C799 0.961 . S
H816 C800 0.931 . S
H817 C805 0.930 . S
H818 C806 0.956 . S
H819 C806 0.961 . S
H820 C806 0.961 . S
H821 C807 0.958 . S
H822 C807 0.961 . S
H823 C807 0.960 . S
C824 C825 1.391 . S
C824 C826 1.394 . S
C824 H840 0.931 . S
C825 C824 1.391 . S
C825 C829 1.376 . S
C826 C824 1.394 . S
C826 C827 1.369 . S
C826 C830 1.531 . S
C827 C826 1.369 . S
C827 C828 1.410 . S
C827 C835 1.503 . S
C828 C827 1.410 . S
C828 C829 1.392 . S
C828 C831 1.511 . S
C829 C825 1.376 . S
C829 C828 1.392 . S
C829 H841 0.929 . S
C830 C826 1.531 . S
C830 H842 0.960 . S
C830 H843 0.962 . S
C830 H844 0.960 . S
C831 C828 1.511 . S
C831 H845 0.961 . S
C831 H846 0.961 . S
C831 H847 0.961 . S
C832 C833 1.370 . S
C832 C834 1.363 . S
C832 H848 0.931 . S
C833 C832 1.370 . S
C833 C837 1.408 . S
C834 C832 1.363 . S
C834 C835 1.370 . S
C834 C838 1.524 . S
C835 C827 1.503 . S
C835 C834 1.370 . S
C835 C836 1.403 . S
C836 C835 1.403 . S
C836 C837 1.404 . S
C836 C839 1.539 . S
C837 C833 1.408 . S
C837 C836 1.404 . S
C837 H849 0.930 . S
C838 C834 1.524 . S
C838 H850 0.956 . S
C838 H851 0.961 . S
C838 H852 0.961 . S
C839 C836 1.539 . S
C839 H853 0.958 . S
C839 H854 0.961 . S
C839 H855 0.960 . S
H840 C824 0.931 . S
H841 C829 0.929 . S
H842 C830 0.960 . S
H843 C830 0.962 . S
H844 C830 0.960 . S
H845 C831 0.961 . S
H846 C831 0.961 . S
H847 C831 0.961 . S
H848 C832 0.931 . S
H849 C837 0.930 . S
H850 C838 0.956 . S
H851 C838 0.961 . S
H852 C838 0.961 . S
H853 C839 0.958 . S
H854 C839 0.961 . S
H855 C839 0.960 . S
C856 C857 1.391 . S
C856 C858 1.394 . S
C856 H872 0.931 . S
C857 C856 1.391 . S
C857 C861 1.376 . S
C858 C856 1.394 . S
C858 C859 1.369 . S
C858 C862 1.531 . S
C859 C858 1.369 . S
C859 C860 1.410 . S
C859 C867 1.503 . S
C860 C859 1.410 . S
C860 C861 1.392 . S
C860 C863 1.511 . S
C861 C857 1.376 . S
C861 C860 1.392 . S
C861 H873 0.929 . S
C862 C858 1.531 . S
C862 H874 0.960 . S
C862 H875 0.962 . S
C862 H876 0.978 . S
C863 C860 1.511 . S
C863 H877 0.961 . S
C863 H878 0.961 . S
C863 H879 0.961 . S
C864 C865 1.370 . S
C864 C866 1.363 . S
C864 H880 0.931 . S
C865 C864 1.370 . S
C865 C869 1.408 . S
C866 C864 1.363 . S
C866 C867 1.370 . S
C866 C870 1.524 . S
C867 C859 1.503 . S
C867 C866 1.370 . S
C867 C868 1.403 . S
C868 C867 1.403 . S
C868 C869 1.404 . S
C868 C871 1.539 . S
C869 C865 1.408 . S
C869 C868 1.404 . S
C869 H881 0.930 . S
C870 C866 1.524 . S
C870 H882 0.956 . S
C870 H883 0.961 . S
C870 H884 0.961 . S
C871 C868 1.539 . S
C871 H885 0.958 . S
C871 H886 0.961 . S
C871 H887 0.960 . S
H872 C856 0.931 . S
H873 C861 0.929 . S
H874 C862 0.960 . S
H875 C862 0.962 . S
H876 C862 0.978 . S
H877 C863 0.961 . S
H878 C863 0.961 . S
H879 C863 0.961 . S
H880 C864 0.931 . S
H881 C869 0.930 . S
H882 C870 0.956 . S
H883 C870 0.961 . S
H884 C870 0.961 . S
H885 C871 0.958 . S
H886 C871 0.961 . S
H887 C871 0.960 . S
C888 C889 1.391 . S
C888 C890 1.394 . S
C888 H904 0.931 . S
C889 C888 1.391 . S
C889 C893 1.376 . S
C890 C888 1.394 . S
C890 C891 1.369 . S
C890 C894 1.531 . S
C891 C890 1.369 . S
C891 C892 1.410 . S
C891 C899 1.503 . S
C892 C891 1.410 . S
C892 C893 1.392 . S
C892 C895 1.511 . S
C893 C889 1.376 . S
C893 C892 1.392 . S
C893 H905 0.929 . S
C894 C890 1.531 . S
C894 H906 0.960 . S
C894 H907 0.962 . S
C894 H908 0.960 . S
C895 C892 1.511 . S
C895 H909 0.961 . S
C895 H910 0.961 . S
C895 H911 0.961 . S
C896 C897 1.370 . S
C896 C898 1.363 . S
C896 H912 0.931 . S
C897 C896 1.370 . S
C897 C901 1.408 . S
C898 C896 1.363 . S
C898 C899 1.370 . S
C898 C902 1.524 . S
C899 C891 1.503 . S
C899 C898 1.370 . S
C899 C900 1.403 . S
C900 C899 1.403 . S
C900 C901 1.404 . S
C900 C903 1.539 . S
C901 C897 1.408 . S
C901 C900 1.404 . S
C901 H913 0.930 . S
C902 C898 1.524 . S
C902 H914 0.956 . S
C902 H915 0.961 . S
C902 H916 0.961 . S
C903 C900 1.539 . S
C903 H917 0.958 . S
C903 H918 0.961 . S
C903 H919 0.960 . S
H904 C888 0.931 . S
H905 C893 0.929 . S
H906 C894 0.960 . S
H907 C894 0.962 . S
H908 C894 0.960 . S
H909 C895 0.961 . S
H910 C895 0.961 . S
H911 C895 0.961 . S
H912 C896 0.931 . S
H913 C901 0.930 . S
H914 C902 0.956 . S
H915 C902 0.961 . S
H916 C902 0.961 . S
H917 C903 0.958 . S
H918 C903 0.961 . S
H919 C903 0.960 . S
C920 C921 1.391 . S
C920 C922 1.394 . S
C920 H936 0.931 . S
C921 C920 1.391 . S
C921 C925 1.376 . S
C922 C920 1.394 . S
C922 C923 1.369 . S
C922 C926 1.531 . S
C923 C922 1.369 . S
C923 C924 1.410 . S
C923 C931 1.503 . S
C924 C923 1.410 . S
C924 C925 1.392 . S
C924 C927 1.511 . S
C925 C921 1.376 . S
C925 C924 1.392 . S
C925 H937 0.929 . S
C926 C922 1.531 . S
C926 H938 0.960 . S
C926 H939 0.962 . S
C926 H940 0.960 . S
C927 C924 1.511 . S
C927 H941 0.961 . S
C927 H942 0.961 . S
C927 H943 0.961 . S
C928 C929 1.370 . S
C928 C930 1.363 . S
C928 H944 0.931 . S
C929 C928 1.370 . S
C929 C933 1.408 . S
C930 C928 1.363 . S
C930 C931 1.370 . S
C930 C934 1.524 . S
C931 C923 1.503 . S
C931 C930 1.370 . S
C931 C932 1.403 . S
C932 C931 1.403 . S
C932 C933 1.404 . S
C932 C935 1.539 . S
C933 C929 1.408 . S
C933 C932 1.404 . S
C933 H945 0.930 . S
C934 C930 1.524 . S
C934 H946 0.956 . S
C934 H947 0.961 . S
C934 H948 0.961 . S
C935 C932 1.539 . S
C935 H949 0.958 . S
C935 H950 0.961 . S
C935 H951 0.960 . S
H936 C920 0.931 . S
H937 C925 0.929 . S
H938 C926 0.960 . S
H939 C926 0.962 . S
H940 C926 0.960 . S
H941 C927 0.961 . S
H942 C927 0.961 . S
H943 C927 0.961 . S
H944 C928 0.931 . S
H945 C933 0.930 . S
H946 C934 0.956 . S
H947 C934 0.961 . S
H948 C934 0.961 . S
H949 C935 0.958 . S
H950 C935 0.961 . S
H951 C935 0.960 . S
C952 C953 1.391 . S
C952 C954 1.394 1_545 S
C952 H968 0.931 . S
C953 C952 1.391 . S
C953 C957 1.376 . S
C954 C952 1.394 1_565 S
C954 C955 1.369 . S
C954 C958 1.531 . S
C955 C954 1.369 . S
C955 C956 1.410 . S
C955 C963 1.503 . S
C956 C955 1.410 . S
C956 C957 1.392 1_565 S
C956 C959 1.511 . S
C957 C953 1.376 . S
C957 C956 1.392 1_545 S
C957 H969 0.929 . S
C958 C954 1.531 . S
C958 H970 0.960 . S
C958 H971 0.962 . S
C958 H972 0.960 . S
C959 C956 1.511 . S
C959 H973 0.961 1_565 S
C959 H974 0.961 . S
C959 H975 0.961 . S
C960 C961 1.370 . S
C960 C962 1.363 . S
C960 H976 0.931 . S
C961 C960 1.370 . S
C961 C965 1.408 . S
C962 C960 1.363 . S
C962 C963 1.370 . S
C962 C966 1.524 . S
C963 C955 1.503 . S
C963 C962 1.370 . S
C963 C964 1.403 . S
C964 C963 1.403 . S
C964 C965 1.404 . S
C964 C967 1.539 . S
C965 C961 1.408 . S
C965 C964 1.404 . S
C965 H977 0.930 . S
C966 C962 1.524 . S
C966 H978 0.956 . S
C966 H979 0.961 . S
C966 H980 0.961 . S
C967 C964 1.539 . S
C967 H981 0.958 . S
C967 H982 0.961 . S
C967 H983 0.960 . S
H968 C952 0.931 . S
H969 C957 0.929 . S
H970 C958 0.960 . S
H971 C958 0.962 . S
H972 C958 0.960 . S
H973 C959 0.961 1_545 S
H974 C959 0.961 . S
H975 C959 0.961 . S
H976 C960 0.931 . S
H977 C965 0.930 . S
H978 C966 0.956 . S
H979 C966 0.961 . S
H980 C966 0.961 . S
H981 C967 0.958 . S
H982 C967 0.961 . S
H983 C967 0.960 . S
C984 C985 1.391 . S
C984 C986 1.394 . S
C984 H1000 0.931 . S
C985 C984 1.391 . S
C985 C989 1.376 . S
C986 C984 1.394 . S
C986 C987 1.369 . S
C986 C990 1.531 . S
C987 C986 1.369 . S
C987 C988 1.410 . S
C987 C995 1.503 . S
C988 C987 1.410 . S
C988 C989 1.392 . S
C988 C991 1.511 . S
C989 C985 1.376 . S
C989 C988 1.392 . S
C989 H1001 0.929 . S
C990 C986 1.531 . S
C990 H1002 0.960 . S
C990 H1003 0.962 . S
C990 H1004 0.960 . S
C991 C988 1.511 . S
C991 H1005 0.961 . S
C991 H1006 0.961 . S
C991 H1007 0.961 . S
C992 C993 1.370 . S
C992 C994 1.363 . S
C992 H1008 0.931 1_554 S
C993 C992 1.370 . S
C993 C997 1.408 . S
C994 C992 1.363 . S
C994 C995 1.370 . S
C994 C998 1.524 . S
C995 C987 1.503 . S
C995 C994 1.370 . S
C995 C996 1.403 . S
C996 C995 1.403 . S
C996 C997 1.404 . S
C996 C999 1.539 . S
C997 C993 1.408 . S
C997 C996 1.404 . S
C997 H1009 0.930 . S
C998 C994 1.524 . S
C998 H1010 0.956 . S
C998 H1011 0.961 . S
C998 H1012 0.961 1_554 S
C999 C996 1.539 . S
C999 H1013 0.958 . S
C999 H1014 0.961 . S
C999 H1015 0.960 . S
H1000 C984 0.931 . S
H1001 C989 0.929 . S
H1002 C990 0.960 . S
H1003 C990 0.962 . S
H1004 C990 0.960 . S
H1005 C991 0.961 . S
H1006 C991 0.961 . S
H1007 C991 0.961 . S
H1008 C992 0.931 1_556 S
H1009 C997 0.930 . S
H1010 C998 0.956 . S
H1011 C998 0.961 . S
H1012 C998 0.961 1_556 S
H1013 C999 0.958 . S
H1014 C999 0.961 . S
H1015 C999 0.960 . S
C1016 C1017 1.391 . S
C1016 C1018 1.394 . S
C1016 H1032 0.931 . S
C1017 C1016 1.391 . S
C1017 C1021 1.376 . S
C1018 C1016 1.394 . S
C1018 C1019 1.369 1_565 S
C1018 C1022 1.531 . S
C1019 C1018 1.369 1_545 S
C1019 C1020 1.410 . S
C1019 C1027 1.503 . S
C1020 C1019 1.410 . S
C1020 C1021 1.392 1_545 S
C1020 C1023 1.511 . S
C1021 C1017 1.376 . S
C1021 C1020 1.392 1_565 S
C1021 H1033 0.929 . S
C1022 C1018 1.531 . S
C1022 H1034 0.960 1_565 S
C1022 H1035 0.962 . S
C1022 H1036 0.960 . S
C1023 C1020 1.511 . S
C1023 H1037 0.961 . S
C1023 H1038 0.961 . S
C1023 H1039 0.961 . S
C1024 C1025 1.370 . S
C1024 C1026 1.363 . S
C1024 H1040 0.931 . S
C1025 C1024 1.370 . S
C1025 C1029 1.408 . S
C1026 C1024 1.363 . S
C1026 C1027 1.370 . S
C1026 C1030 1.524 . S
C1027 C1019 1.503 . S
C1027 C1026 1.370 . S
C1027 C1028 1.403 . S
C1028 C1027 1.403 . S
C1028 C1029 1.404 . S
C1028 C1031 1.539 . S
C1029 C1025 1.408 . S
C1029 C1028 1.404 . S
C1029 H1041 0.930 . S
C1030 C1026 1.524 . S
C1030 H1042 0.956 . S
C1030 H1043 0.961 . S
C1030 H1044 0.961 . S
C1031 C1028 1.539 . S
C1031 H1045 0.958 . S
C1031 H1046 0.961 . S
C1031 H1047 0.960 . S
H1032 C1016 0.931 . S
H1033 C1021 0.929 . S
H1034 C1022 0.960 1_545 S
H1035 C1022 0.962 . S
H1036 C1022 0.960 . S
H1037 C1023 0.961 . S
H1038 C1023 0.961 . S
H1039 C1023 0.961 . S
H1040 C1024 0.931 . S
H1041 C1029 0.930 . S
H1042 C1030 0.956 . S
H1043 C1030 0.961 . S
H1044 C1030 0.961 . S
H1045 C1031 0.958 . S
H1046 C1031 0.961 . S
H1047 C1031 0.960 . S
C1048 C1049 1.391 . S
C1048 C1050 1.394 . S
C1048 H1064 0.931 . S
C1049 C1048 1.391 . S
C1049 C1053 1.376 . S
C1050 C1048 1.394 . S
C1050 C1051 1.369 . S
C1050 C1054 1.531 . S
C1051 C1050 1.369 . S
C1051 C1052 1.410 . S
C1051 C1059 1.503 . S
C1052 C1051 1.410 . S
C1052 C1053 1.392 . S
C1052 C1055 1.511 . S
C1053 C1049 1.376 . S
C1053 C1052 1.392 . S
C1053 H1065 0.929 . S
C1054 C1050 1.531 . S
C1054 H1066 0.960 . S
C1054 H1067 0.962 . S
C1054 H1068 0.960 . S
C1055 C1052 1.511 . S
C1055 H1069 0.961 . S
C1055 H1070 0.961 . S
C1055 H1071 0.961 . S
C1056 C1057 1.370 . S
C1056 C1058 1.363 . S
C1056 H1072 0.931 . S
C1057 C1056 1.370 . S
C1057 C1061 1.408 . S
C1058 C1056 1.363 . S
C1058 C1059 1.370 . S
C1058 C1062 1.524 . S
C1059 C1051 1.503 . S
C1059 C1058 1.370 . S
C1059 C1060 1.403 . S
C1060 C1059 1.403 . S
C1060 C1061 1.404 . S
C1060 C1063 1.539 . S
C1061 C1057 1.408 . S
C1061 C1060 1.404 . S
C1061 H1073 0.930 . S
C1062 C1058 1.524 . S
C1062 H1074 0.956 . S
C1062 H1075 0.961 . S
C1062 H1076 0.961 . S
C1063 C1060 1.539 . S
C1063 H1077 0.958 . S
C1063 H1078 0.961 . S
C1063 H1079 0.960 . S
H1064 C1048 0.931 . S
H1065 C1053 0.929 . S
H1066 C1054 0.960 . S
H1067 C1054 0.962 . S
H1068 C1054 0.960 . S
H1069 C1055 0.961 . S
H1070 C1055 0.961 . S
H1071 C1055 0.961 . S
H1072 C1056 0.931 . S
H1073 C1061 0.930 . S
H1074 C1062 0.956 . S
H1075 C1062 0.961 . S
H1076 C1062 0.961 . S
H1077 C1063 0.958 . S
H1078 C1063 0.961 . S
H1079 C1063 0.960 . S
C1080 C1081 1.391 . S
C1080 C1082 1.394 . S
C1080 H1096 0.931 . S
C1081 C1080 1.391 . S
C1081 C1085 1.376 . S
C1082 C1080 1.394 . S
C1082 C1083 1.369 . S
C1082 C1086 1.531 . S
C1083 C1082 1.369 . S
C1083 C1084 1.410 . S
C1083 C1091 1.503 . S
C1084 C1083 1.410 . S
C1084 C1085 1.392 . S
C1084 C1087 1.511 . S
C1085 C1081 1.376 . S
C1085 C1084 1.392 . S
C1085 H1097 0.929 . S
C1086 C1082 1.531 . S
C1086 H1098 0.960 . S
C1086 H1099 0.962 . S
C1086 H1100 0.960 . S
C1087 C1084 1.511 . S
C1087 H1101 0.961 . S
C1087 H1102 0.961 . S
C1087 H1103 0.961 . S
C1088 C1089 1.370 . S
C1088 C1090 1.363 . S
C1088 H1104 0.931 . S
C1089 C1088 1.370 . S
C1089 C1093 1.408 . S
C1090 C1088 1.363 . S
C1090 C1091 1.370 . S
C1090 C1094 1.524 . S
C1091 C1083 1.503 . S
C1091 C1090 1.370 . S
C1091 C1092 1.403 . S
C1092 C1091 1.403 . S
C1092 C1093 1.404 . S
C1092 C1095 1.539 . S
C1093 C1089 1.408 . S
C1093 C1092 1.404 . S
C1093 H1105 0.930 . S
C1094 C1090 1.524 . S
C1094 H1106 0.956 . S
C1094 H1107 0.961 . S
C1094 H1108 0.961 . S
C1095 C1092 1.539 . S
C1095 H1109 0.958 . S
C1095 H1110 0.961 . S
C1095 H1111 0.960 . S
H1096 C1080 0.931 . S
H1097 C1085 0.929 . S
H1098 C1086 0.960 . S
H1099 C1086 0.962 . S
H1100 C1086 0.960 . S
H1101 C1087 0.961 . S
H1102 C1087 0.961 . S
H1103 C1087 0.961 . S
H1104 C1088 0.931 . S
H1105 C1093 0.930 . S
H1106 C1094 0.956 . S
H1107 C1094 0.961 . S
H1108 C1094 0.961 . S
H1109 C1095 0.958 . S
H1110 C1095 0.961 . S
H1111 C1095 0.960 . S
C1112 C1113 1.391 . S
C1112 C1114 1.394 . S
C1112 H1128 0.931 . S
C1113 C1112 1.391 . S
C1113 C1117 1.376 . S
C1114 C1112 1.394 . S
C1114 C1115 1.369 . S
C1114 C1118 1.531 . S
C1115 C1114 1.369 . S
C1115 C1116 1.410 . S
C1115 C1123 1.503 . S
C1116 C1115 1.410 . S
C1116 C1117 1.392 . S
C1116 C1119 1.511 . S
C1117 C1113 1.376 . S
C1117 C1116 1.392 . S
C1117 H1129 0.929 . S
C1118 C1114 1.531 . S
C1118 H1130 0.960 . S
C1118 H1131 0.962 . S
C1118 H1132 0.960 . S
C1119 C1116 1.511 . S
C1119 H1133 0.961 . S
C1119 H1134 0.961 . S
C1119 H1135 0.961 . S
C1120 C1121 1.370 . S
C1120 C1122 1.363 . S
C1120 H1136 0.931 . S
C1121 C1120 1.370 . S
C1121 C1125 1.408 . S
C1122 C1120 1.363 . S
C1122 C1123 1.370 . S
C1122 C1126 1.524 . S
C1123 C1115 1.503 . S
C1123 C1122 1.370 . S
C1123 C1124 1.403 . S
C1124 C1123 1.403 . S
C1124 C1125 1.404 . S
C1124 C1127 1.539 . S
C1125 C1121 1.408 . S
C1125 C1124 1.404 . S
C1125 H1137 0.930 . S
C1126 C1122 1.524 . S
C1126 H1138 0.956 . S
C1126 H1139 0.961 . S
C1126 H1140 0.961 . S
C1127 C1124 1.539 . S
C1127 H1141 0.958 . S
C1127 H1142 0.961 . S
C1127 H1143 0.960 . S
H1128 C1112 0.931 . S
H1129 C1117 0.929 . S
H1130 C1118 0.960 . S
H1131 C1118 0.962 . S
H1132 C1118 0.960 . S
H1133 C1119 0.961 . S
H1134 C1119 0.961 . S
H1135 C1119 0.961 . S
H1136 C1120 0.931 . S
H1137 C1125 0.930 . S
H1138 C1126 0.956 . S
H1139 C1126 0.961 . S
H1140 C1126 0.961 . S
H1141 C1127 0.958 . S
H1142 C1127 0.961 . S
H1143 C1127 0.960 . S
C1144 C1145 1.391 . S
C1144 C1146 1.394 1_455 S
C1144 H1160 0.931 . S
C1145 C1144 1.391 . S
C1145 C1149 1.376 . S
C1146 C1144 1.394 1_655 S
C1146 C1147 1.369 . S
C1146 C1150 1.531 . S
C1147 C1146 1.369 . S
C1147 C1148 1.410 1_655 S
C1147 C1155 1.503 . S
C1148 C1147 1.410 1_455 S
C1148 C1149 1.392 . S
C1148 C1151 1.511 . S
C1149 C1145 1.376 . S
C1149 C1148 1.392 . S
C1149 H1161 0.929 . S
C1150 C1146 1.531 . S
C1150 H1162 0.960 . S
C1150 H1163 0.962 . S
C1150 H1164 0.960 . S
C1151 C1148 1.511 . S
C1151 H1165 0.961 . S
C1151 H1166 0.961 1_455 S
C1151 H1167 0.961 . S
C1152 C1153 1.370 . S
C1152 C1154 1.363 . S
C1152 H1168 0.931 . S
C1153 C1152 1.370 . S
C1153 C1157 1.408 . S
C1154 C1152 1.363 . S
C1154 C1155 1.370 . S
C1154 C1158 1.524 . S
C1155 C1147 1.503 . S
C1155 C1154 1.370 . S
C1155 C1156 1.403 . S
C1156 C1155 1.403 . S
C1156 C1157 1.404 . S
C1156 C1159 1.539 . S
C1157 C1153 1.408 . S
C1157 C1156 1.404 . S
C1157 H1169 0.930 . S
C1158 C1154 1.524 . S
C1158 H1170 0.956 . S
C1158 H1171 0.961 . S
C1158 H1172 0.961 . S
C1159 C1156 1.539 . S
C1159 H1173 0.958 . S
C1159 H1174 0.961 . S
C1159 H1175 0.960 . S
H1160 C1144 0.931 . S
H1161 C1149 0.929 . S
H1162 C1150 0.960 . S
H1163 C1150 0.962 . S
H1164 C1150 0.960 . S
H1165 C1151 0.961 . S
H1166 C1151 0.961 1_655 S
H1167 C1151 0.961 . S
H1168 C1152 0.931 . S
H1169 C1157 0.930 . S
H1170 C1158 0.956 . S
H1171 C1158 0.961 . S
H1172 C1158 0.961 . S
H1173 C1159 0.958 . S
H1174 C1159 0.961 . S
H1175 C1159 0.960 . S
C1176 C1177 1.391 . S
C1176 C1178 1.394 . S
C1176 H1192 0.931 . S
C1177 C1176 1.391 . S
C1177 C1181 1.376 . S
C1178 C1176 1.394 . S
C1178 C1179 1.369 . S
C1178 C1182 1.531 . S
C1179 C1178 1.369 . S
C1179 C1180 1.410 . S
C1179 C1187 1.503 . S
C1180 C1179 1.410 . S
C1180 C1181 1.392 . S
C1180 C1183 1.511 . S
C1181 C1177 1.376 . S
C1181 C1180 1.392 . S
C1181 H1193 0.929 1_655 S
C1182 C1178 1.531 . S
C1182 H1194 0.960 . S
C1182 H1195 0.962 . S
C1182 H1196 0.960 . S
C1183 C1180 1.511 . S
C1183 H1197 0.961 1_655 S
C1183 H1198 0.961 . S
C1183 H1199 0.961 1_655 S
C1184 C1185 1.370 . S
C1184 C1186 1.363 . S
C1184 H1200 0.931 . S
C1185 C1184 1.370 . S
C1185 C1189 1.408 . S
C1186 C1184 1.363 . S
C1186 C1187 1.370 . S
C1186 C1190 1.524 . S
C1187 C1179 1.503 . S
C1187 C1186 1.370 . S
C1187 C1188 1.403 . S
C1188 C1187 1.403 . S
C1188 C1189 1.404 . S
C1188 C1191 1.539 . S
C1189 C1185 1.408 . S
C1189 C1188 1.404 . S
C1189 H1201 0.930 . S
C1190 C1186 1.524 . S
C1190 H1202 0.956 . S
C1190 H1203 0.961 . S
C1190 H1204 0.961 . S
C1191 C1188 1.539 . S
C1191 H1205 0.958 . S
C1191 H1206 0.961 . S
C1191 H1207 0.960 . S
H1192 C1176 0.931 . S
H1193 C1181 0.929 1_455 S
H1194 C1182 0.960 . S
H1195 C1182 0.962 . S
H1196 C1182 0.960 . S
H1197 C1183 0.961 1_455 S
H1198 C1183 0.961 . S
H1199 C1183 0.961 1_455 S
H1200 C1184 0.931 . S
H1201 C1189 0.930 . S
H1202 C1190 0.956 . S
H1203 C1190 0.961 . S
H1204 C1190 0.961 . S
H1205 C1191 0.958 . S
H1206 C1191 0.961 . S
H1207 C1191 0.960 . S
C1208 C1209 1.391 . S
C1208 C1210 1.394 . S
C1208 H1224 0.931 . S
C1209 C1208 1.391 . S
C1209 C1213 1.376 . S
C1210 C1208 1.394 . S
C1210 C1211 1.369 . S
C1210 C1214 1.531 . S
C1211 C1210 1.369 . S
C1211 C1212 1.410 . S
C1211 C1219 1.503 . S
C1212 C1211 1.410 . S
C1212 C1213 1.392 . S
C1212 C1215 1.511 . S
C1213 C1209 1.376 . S
C1213 C1212 1.392 . S
C1213 H1225 0.929 . S
C1214 C1210 1.531 . S
C1214 H1226 0.960 . S
C1214 H1227 0.962 . S
C1214 H1228 0.960 . S
C1215 C1212 1.511 . S
C1215 H1229 0.961 . S
C1215 H1230 0.961 . S
C1215 H1231 0.961 . S
C1216 C1217 1.370 . S
C1216 C1218 1.363 . S
C1216 H1232 0.931 . S
C1217 C1216 1.370 . S
C1217 C1221 1.408 . S
C1218 C1216 1.363 . S
C1218 C1219 1.370 . S
C1218 C1222 1.524 . S
C1219 C1211 1.503 . S
C1219 C1218 1.370 . S
C1219 C1220 1.403 . S
C1220 C1219 1.403 . S
C1220 C1221 1.404 . S
C1220 C1223 1.539 . S
C1221 C1217 1.408 . S
C1221 C1220 1.404 . S
C1221 H1233 0.930 . S
C1222 C1218 1.524 . S
C1222 H1234 0.956 . S
C1222 H1235 0.961 . S
C1222 H1236 0.961 . S
C1223 C1220 1.539 . S
C1223 H1237 0.958 . S
C1223 H1238 0.961 . S
C1223 H1239 0.960 . S
H1224 C1208 0.931 . S
H1225 C1213 0.929 . S
H1226 C1214 0.960 . S
H1227 C1214 0.962 . S
H1228 C1214 0.960 . S
H1229 C1215 0.961 . S
H1230 C1215 0.961 . S
H1231 C1215 0.961 . S
H1232 C1216 0.931 . S
H1233 C1221 0.930 . S
H1234 C1222 0.956 . S
H1235 C1222 0.961 . S
H1236 C1222 0.961 . S
H1237 C1223 0.958 . S
H1238 C1223 0.961 . S
H1239 C1223 0.960 . S
C1240 C1241 1.391 . S
C1240 C1242 1.394 . S
C1240 H1256 0.931 . S
C1241 C1240 1.391 . S
C1241 C1245 1.376 . S
C1242 C1240 1.394 . S
C1242 C1243 1.369 . S
C1242 C1246 1.531 . S
C1243 C1242 1.369 . S
C1243 C1244 1.410 . S
C1243 C1251 1.503 . S
C1244 C1243 1.410 . S
C1244 C1245 1.392 . S
C1244 C1247 1.511 . S
C1245 C1241 1.376 . S
C1245 C1244 1.392 . S
C1245 H1257 0.929 . S
C1246 C1242 1.531 . S
C1246 H1258 0.960 . S
C1246 H1259 0.962 . S
C1246 H1260 0.960 . S
C1247 C1244 1.511 . S
C1247 H1261 0.961 . S
C1247 H1262 0.961 . S
C1247 H1263 0.961 . S
C1248 C1249 1.370 . S
C1248 C1250 1.363 . S
C1248 H1264 0.931 . S
C1249 C1248 1.370 . S
C1249 C1253 1.408 . S
C1250 C1248 1.363 . S
C1250 C1251 1.370 . S
C1250 C1254 1.524 . S
C1251 C1243 1.503 . S
C1251 C1250 1.370 . S
C1251 C1252 1.403 . S
C1252 C1251 1.403 . S
C1252 C1253 1.404 . S
C1252 C1255 1.539 . S
C1253 C1249 1.408 . S
C1253 C1252 1.404 . S
C1253 H1265 0.930 . S
C1254 C1250 1.524 . S
C1254 H1266 0.956 . S
C1254 H1267 0.961 . S
C1254 H1268 0.961 . S
C1255 C1252 1.539 . S
C1255 H1269 0.958 . S
C1255 H1270 0.961 . S
C1255 H1271 0.960 . S
H1256 C1240 0.931 . S
H1257 C1245 0.929 . S
H1258 C1246 0.960 . S
H1259 C1246 0.962 . S
H1260 C1246 0.960 . S
H1261 C1247 0.961 . S
H1262 C1247 0.961 . S
H1263 C1247 0.961 . S
H1264 C1248 0.931 . S
H1265 C1253 0.930 . S
H1266 C1254 0.956 . S
H1267 C1254 0.961 . S
H1268 C1254 0.961 . S
H1269 C1255 0.958 . S
H1270 C1255 0.961 . S
H1271 C1255 0.960 . S
C1272 C1273 1.391 . S
C1272 C1274 1.394 1_655 S
C1272 H1288 0.931 . S
C1273 C1272 1.391 . S
C1273 C1277 1.376 . S
C1274 C1272 1.394 1_455 S
C1274 C1275 1.369 . S
C1274 C1278 1.531 . S
C1275 C1274 1.369 . S
C1275 C1276 1.410 . S
C1275 C1283 1.503 . S
C1276 C1275 1.410 . S
C1276 C1277 1.392 1_455 S
C1276 C1279 1.511 . S
C1277 C1273 1.376 . S
C1277 C1276 1.392 1_655 S
C1277 H1289 0.929 . S
C1278 C1274 1.531 . S
C1278 H1290 0.960 . S
C1278 H1291 0.962 . S
C1278 H1292 0.960 . S
C1279 C1276 1.511 . S
C1279 H1293 0.961 . S
C1279 H1294 0.961 . S
C1279 H1295 0.961 . S
C1280 C1281 1.370 . S
C1280 C1282 1.363 . S
C1280 H1296 0.931 . S
C1281 C1280 1.370 . S
C1281 C1285 1.408 . S
C1282 C1280 1.363 . S
C1282 C1283 1.370 . S
C1282 C1286 1.524 . S
C1283 C1275 1.503 . S
C1283 C1282 1.370 . S
C1283 C1284 1.403 . S
C1284 C1283 1.403 . S
C1284 C1285 1.404 . S
C1284 C1287 1.539 . S
C1285 C1281 1.408 . S
C1285 C1284 1.404 . S
C1285 H1297 0.930 . S
C1286 C1282 1.524 . S
C1286 H1298 0.956 . S
C1286 H1299 0.961 . S
C1286 H1300 0.961 . S
C1287 C1284 1.539 . S
C1287 H1301 0.958 . S
C1287 H1302 0.961 . S
C1287 H1303 0.960 . S
H1288 C1272 0.931 . S
H1289 C1277 0.929 . S
H1290 C1278 0.960 . S
H1291 C1278 0.962 . S
H1292 C1278 0.960 . S
H1293 C1279 0.961 . S
H1294 C1279 0.961 . S
H1295 C1279 0.961 . S
H1296 C1280 0.931 . S
H1297 C1285 0.930 . S
H1298 C1286 0.956 . S
H1299 C1286 0.961 . S
H1300 C1286 0.961 . S
H1301 C1287 0.958 . S
H1302 C1287 0.961 . S
H1303 C1287 0.960 . S
C1304 C1305 1.391 . S
C1304 C1306 1.394 . S
C1304 H1320 0.931 . S
C1305 C1304 1.391 . S
C1305 C1309 1.376 . S
C1306 C1304 1.394 . S
C1306 C1307 1.369 . S
C1306 C1310 1.531 . S
C1307 C1306 1.369 . S
C1307 C1308 1.410 . S
C1307 C1315 1.503 . S
C1308 C1307 1.410 . S
C1308 C1309 1.392 . S
C1308 C1311 1.511 . S
C1309 C1305 1.376 . S
C1309 C1308 1.392 . S
C1309 H1321 0.929 . S
C1310 C1306 1.531 . S
C1310 H1322 0.960 . S
C1310 H1323 0.962 . S
C1310 H1324 0.960 . S
C1311 C1308 1.511 . S
C1311 H1325 0.961 . S
C1311 H1326 0.961 . S
C1311 H1327 0.961 . S
C1312 C1313 1.370 . S
C1312 C1314 1.363 . S
C1312 H1328 0.931 . S
C1313 C1312 1.370 . S
C1313 C1317 1.408 . S
C1314 C1312 1.363 . S
C1314 C1315 1.370 . S
C1314 C1318 1.524 . S
C1315 C1307 1.503 . S
C1315 C1314 1.370 . S
C1315 C1316 1.403 . S
C1316 C1315 1.403 . S
C1316 C1317 1.404 . S
C1316 C1319 1.539 . S
C1317 C1313 1.408 . S
C1317 C1316 1.404 . S
C1317 H1329 0.930 . S
C1318 C1314 1.524 . S
C1318 H1330 0.956 . S
C1318 H1331 0.961 . S
C1318 H1332 0.961 . S
C1319 C1316 1.539 . S
C1319 H1333 0.958 . S
C1319 H1334 0.961 . S
C1319 H1335 0.960 . S
H1320 C1304 0.931 . S
H1321 C1309 0.929 . S
H1322 C1310 0.960 . S
H1323 C1310 0.962 . S
H1324 C1310 0.960 . S
H1325 C1311 0.961 . S
H1326 C1311 0.961 . S
H1327 C1311 0.961 . S
H1328 C1312 0.931 . S
H1329 C1317 0.930 . S
H1330 C1318 0.956 . S
H1331 C1318 0.961 . S
H1332 C1318 0.961 . S
H1333 C1319 0.958 . S
H1334 C1319 0.961 . S
H1335 C1319 0.960 . S
C1336 C1337 1.391 . S
C1336 C1338 1.394 . S
C1336 H1352 0.931 . S
C1337 C1336 1.391 . S
C1337 C1341 1.376 . S
C1338 C1336 1.394 . S
C1338 C1339 1.369 . S
C1338 C1342 1.531 . S
C1339 C1338 1.369 . S
C1339 C1340 1.410 . S
C1339 C1347 1.503 . S
C1340 C1339 1.410 . S
C1340 C1341 1.392 . S
C1340 C1343 1.511 . S
C1341 C1337 1.376 . S
C1341 C1340 1.392 . S
C1341 H1353 0.929 . S
C1342 C1338 1.531 . S
C1342 H1354 0.960 . S
C1342 H1355 0.962 . S
C1342 H1356 0.960 . S
C1343 C1340 1.511 . S
C1343 H1357 0.961 . S
C1343 H1358 0.961 . S
C1343 H1359 0.961 . S
C1344 C1345 1.370 . S
C1344 C1346 1.363 . S
C1344 H1360 0.931 . S
C1345 C1344 1.370 . S
C1345 C1349 1.415 . S
C1346 C1344 1.363 . S
C1346 C1347 1.370 . S
C1346 C1350 1.524 . S
C1347 C1339 1.503 . S
C1347 C1346 1.370 . S
C1347 C1348 1.403 . S
C1348 C1347 1.403 . S
C1348 C1349 1.408 . S
C1348 C1351 1.539 1_545 S
C1349 C1345 1.415 . S
C1349 C1348 1.408 . S
C1349 H1361 0.919 1_545 S
C1350 C1346 1.524 . S
C1350 H1362 0.956 . S
C1350 H1363 0.961 . S
C1350 H1364 0.961 . S
C1351 C1348 1.539 1_565 S
C1351 H1365 0.958 . S
C1351 H1366 0.961 . S
C1351 H1367 0.956 1_565 S
H1352 C1336 0.931 . S
H1353 C1341 0.929 . S
H1354 C1342 0.960 . S
H1355 C1342 0.962 . S
H1356 C1342 0.960 . S
H1357 C1343 0.961 . S
H1358 C1343 0.961 . S
H1359 C1343 0.961 . S
H1360 C1344 0.931 . S
H1361 C1349 0.919 1_565 S
H1362 C1350 0.956 . S
H1363 C1350 0.961 . S
H1364 C1350 0.961 . S
H1365 C1351 0.958 . S
H1366 C1351 0.961 . S
H1367 C1351 0.956 1_545 S
C1368 C1369 1.391 . S
C1368 C1370 1.394 . S
C1368 H1384 0.931 . S
C1369 C1368 1.391 . S
C1369 C1373 1.376 . S
C1370 C1368 1.394 . S
C1370 C1371 1.369 . S
C1370 C1374 1.531 . S
C1371 C1370 1.369 . S
C1371 C1372 1.410 . S
C1371 C1379 1.503 . S
C1372 C1371 1.410 . S
C1372 C1373 1.392 . S
C1372 C1375 1.511 . S
C1373 C1369 1.376 . S
C1373 C1372 1.392 . S
C1373 H1385 0.929 . S
C1374 C1370 1.531 . S
C1374 H1386 0.960 . S
C1374 H1387 0.962 . S
C1374 H1388 0.960 . S
C1375 C1372 1.511 . S
C1375 H1389 0.961 . S
C1375 H1390 0.961 . S
C1375 H1391 0.961 . S
C1376 C1377 1.370 . S
C1376 C1378 1.363 . S
C1376 H1392 0.931 . S
C1377 C1376 1.370 . S
C1377 C1381 1.408 . S
C1378 C1376 1.363 . S
C1378 C1379 1.370 . S
C1378 C1382 1.524 . S
C1379 C1371 1.503 . S
C1379 C1378 1.370 . S
C1379 C1380 1.403 . S
C1380 C1379 1.403 . S
C1380 C1381 1.404 . S
C1380 C1383 1.539 . S
C1381 C1377 1.408 . S
C1381 C1380 1.404 . S
C1381 H1393 0.930 . S
C1382 C1378 1.524 . S
C1382 H1394 0.956 . S
C1382 H1395 0.961 . S
C1382 H1396 0.961 . S
C1383 C1380 1.539 . S
C1383 H1397 0.958 . S
C1383 H1398 0.961 . S
C1383 H1399 0.960 . S
H1384 C1368 0.931 . S
H1385 C1373 0.929 . S
H1386 C1374 0.960 . S
H1387 C1374 0.962 . S
H1388 C1374 0.960 . S
H1389 C1375 0.961 . S
H1390 C1375 0.961 . S
H1391 C1375 0.961 . S
H1392 C1376 0.931 . S
H1393 C1381 0.930 . S
H1394 C1382 0.956 . S
H1395 C1382 0.961 . S
H1396 C1382 0.961 . S
H1397 C1383 0.958 . S
H1398 C1383 0.961 . S
H1399 C1383 0.960 . S
C1400 C1401 1.391 . S
C1400 C1402 1.394 . S
C1400 H1416 0.931 . S
C1401 C1400 1.391 . S
C1401 C1405 1.376 . S
C1402 C1400 1.394 . S
C1402 C1403 1.369 . S
C1402 C1406 1.531 . S
C1403 C1402 1.369 . S
C1403 C1404 1.410 . S
C1403 C1411 1.503 . S
C1404 C1403 1.410 . S
C1404 C1405 1.392 . S
C1404 C1407 1.511 . S
C1405 C1401 1.376 . S
C1405 C1404 1.392 . S
C1405 H1417 0.929 1_565 S
C1406 C1402 1.531 . S
C1406 H1418 0.960 . S
C1406 H1419 0.962 . S
C1406 H1420 0.960 . S
C1407 C1404 1.511 . S
C1407 H1421 0.961 1_565 S
C1407 H1422 0.961 . S
C1407 H1423 0.961 . S
C1408 C1409 1.370 . S
C1408 C1410 1.363 . S
C1408 H1424 0.931 . S
C1409 C1408 1.370 . S
C1409 C1413 1.408 . S
C1410 C1408 1.363 . S
C1410 C1411 1.370 . S
C1410 C1414 1.524 . S
C1411 C1403 1.503 . S
C1411 C1410 1.370 . S
C1411 C1412 1.403 . S
C1412 C1411 1.403 . S
C1412 C1413 1.404 . S
C1412 C1415 1.539 . S
C1413 C1409 1.408 . S
C1413 C1412 1.404 . S
C1413 H1425 0.930 . S
C1414 C1410 1.524 . S
C1414 H1426 0.956 . S
C1414 H1427 0.961 . S
C1414 H1428 0.961 . S
C1415 C1412 1.539 . S
C1415 H1429 0.958 . S
C1415 H1430 0.961 . S
C1415 H1431 0.960 . S
H1416 C1400 0.931 . S
H1417 C1405 0.929 1_545 S
H1418 C1406 0.960 . S
H1419 C1406 0.962 . S
H1420 C1406 0.960 . S
H1421 C1407 0.961 1_545 S
H1422 C1407 0.961 . S
H1423 C1407 0.961 . S
H1424 C1408 0.931 . S
H1425 C1413 0.930 . S
H1426 C1414 0.956 . S
H1427 C1414 0.961 . S
H1428 C1414 0.961 . S
H1429 C1415 0.958 . S
H1430 C1415 0.961 . S
H1431 C1415 0.960 . S
C1432 C1433 1.391 . S
C1432 C1434 1.394 . S
C1432 H1448 0.931 . S
C1433 C1432 1.391 . S
C1433 C1437 1.376 . S
C1434 C1432 1.394 . S
C1434 C1435 1.369 . S
C1434 C1438 1.531 . S
C1435 C1434 1.369 . S
C1435 C1436 1.410 . S
C1435 C1443 1.503 . S
C1436 C1435 1.410 . S
C1436 C1437 1.392 . S
C1436 C1439 1.511 . S
C1437 C1433 1.376 . S
C1437 C1436 1.392 . S
C1437 H1449 0.929 . S
C1438 C1434 1.531 . S
C1438 H1450 0.960 . S
C1438 H1451 0.962 . S
C1438 H1452 0.960 . S
C1439 C1436 1.511 . S
C1439 H1453 0.961 . S
C1439 H1454 0.961 . S
C1439 H1455 0.961 . S
C1440 C1441 1.370 . S
C1440 C1442 1.363 1_556 S
C1440 H1456 0.931 . S
C1441 C1440 1.370 . S
C1441 C1445 1.408 . S
C1442 C1440 1.363 1_554 S
C1442 C1443 1.370 . S
C1442 C1446 1.524 . S
C1443 C1435 1.503 . S
C1443 C1442 1.370 . S
C1443 C1444 1.403 1_554 S
C1444 C1443 1.403 1_556 S
C1444 C1445 1.404 . S
C1444 C1447 1.539 1_556 S
C1445 C1441 1.408 . S
C1445 C1444 1.404 . S
C1445 H1457 0.930 . S
C1446 C1442 1.524 . S
C1446 H1458 0.956 . S
C1446 H1459 0.961 . S
C1446 H1460 0.961 . S
C1447 C1444 1.539 1_554 S
C1447 H1461 0.958 1_554 S
C1447 H1462 0.961 1_554 S
C1447 H1463 0.960 . S
H1448 C1432 0.931 . S
H1449 C1437 0.929 . S
H1450 C1438 0.960 . S
H1451 C1438 0.962 . S
H1452 C1438 0.960 . S
H1453 C1439 0.961 . S
H1454 C1439 0.961 . S
H1455 C1439 0.961 . S
H1456 C1440 0.931 . S
H1457 C1445 0.930 . S
H1458 C1446 0.956 . S
H1459 C1446 0.961 . S
H1460 C1446 0.961 . S
H1461 C1447 0.958 1_556 S
H1462 C1447 0.961 1_556 S
H1463 C1447 0.960 . S
C1464 C1465 1.391 . S
C1464 C1466 1.394 . S
C1464 H1480 0.931 . S
C1465 C1464 1.391 . S
C1465 C1469 1.376 . S
C1466 C1464 1.394 . S
C1466 C1467 1.369 . S
C1466 C1470 1.531 . S
C1467 C1466 1.369 . S
C1467 C1468 1.410 . S
C1467 C1475 1.503 . S
C1468 C1467 1.410 . S
C1468 C1469 1.392 . S
C1468 C1471 1.511 . S
C1469 C1465 1.376 . S
C1469 C1468 1.392 . S
C1469 H1481 0.929 . S
C1470 C1466 1.531 . S
C1470 H1482 0.960 . S
C1470 H1483 0.962 . S
C1470 H1484 0.960 . S
C1471 C1468 1.511 . S
C1471 H1485 0.961 . S
C1471 H1486 0.961 . S
C1471 H1487 0.961 . S
C1472 C1473 1.370 . S
C1472 C1474 1.363 . S
C1472 H1488 0.931 . S
C1473 C1472 1.370 . S
C1473 C1477 1.408 . S
C1474 C1472 1.363 . S
C1474 C1475 1.370 . S
C1474 C1478 1.524 . S
C1475 C1467 1.503 . S
C1475 C1474 1.370 . S
C1475 C1476 1.403 . S
C1476 C1475 1.403 . S
C1476 C1477 1.404 . S
C1476 C1479 1.539 . S
C1477 C1473 1.408 . S
C1477 C1476 1.404 . S
C1477 H1489 0.930 . S
C1478 C1474 1.524 . S
C1478 H1490 0.956 . S
C1478 H1491 0.961 . S
C1478 H1492 0.961 . S
C1479 C1476 1.539 . S
C1479 H1493 0.958 . S
C1479 H1494 0.961 . S
C1479 H1495 0.960 . S
H1480 C1464 0.931 . S
H1481 C1469 0.929 . S
H1482 C1470 0.960 . S
H1483 C1470 0.962 . S
H1484 C1470 0.960 . S
H1485 C1471 0.961 . S
H1486 C1471 0.961 . S
H1487 C1471 0.961 . S
H1488 C1472 0.931 . S
H1489 C1477 0.930 . S
H1490 C1478 0.956 . S
H1491 C1478 0.961 . S
H1492 C1478 0.961 . S
H1493 C1479 0.958 . S
H1494 C1479 0.961 . S
H1495 C1479 0.960 . S
C1496 C1497 1.391 . S
C1496 C1498 1.394 . S
C1496 H1512 0.931 . S
C1497 C1496 1.391 . S
C1497 C1501 1.376 . S
C1498 C1496 1.394 . S
C1498 C1499 1.369 . S
C1498 C1502 1.531 . S
C1499 C1498 1.369 . S
C1499 C1500 1.410 . S
C1499 C1507 1.503 . S
C1500 C1499 1.410 . S
C1500 C1501 1.392 . S
C1500 C1503 1.511 . S
C1501 C1497 1.376 . S
C1501 C1500 1.392 . S
C1501 H1513 0.929 . S
C1502 C1498 1.531 . S
C1502 H1514 0.960 . S
C1502 H1515 0.962 . S
C1502 H1516 0.960 . S
C1503 C1500 1.511 . S
C1503 H1517 0.961 . S
C1503 H1518 0.961 . S
C1503 H1519 0.961 . S
C1504 C1505 1.370 . S
C1504 C1506 1.363 . S
C1504 H1520 0.931 . S
C1505 C1504 1.370 . S
C1505 C1509 1.408 . S
C1506 C1504 1.363 . S
C1506 C1507 1.370 . S
C1506 C1510 1.524 . S
C1507 C1499 1.503 . S
C1507 C1506 1.370 . S
C1507 C1508 1.403 . S
C1508 C1507 1.403 . S
C1508 C1509 1.404 . S
C1508 C1511 1.539 . S
C1509 C1505 1.408 . S
C1509 C1508 1.404 . S
C1509 H1521 0.930 . S
C1510 C1506 1.524 . S
C1510 H1522 0.956 . S
C1510 H1523 0.961 . S
C1510 H1524 0.961 . S
C1511 C1508 1.539 . S
C1511 H1525 0.958 . S
C1511 H1526 0.961 . S
C1511 H1527 0.960 . S
H1512 C1496 0.931 . S
H1513 C1501 0.929 . S
H1514 C1502 0.960 . S
H1515 C1502 0.962 . S
H1516 C1502 0.960 . S
H1517 C1503 0.961 . S
H1518 C1503 0.961 . S
H1519 C1503 0.961 . S
H1520 C1504 0.931 . S
H1521 C1509 0.930 . S
H1522 C1510 0.956 . S
H1523 C1510 0.961 . S
H1524 C1510 0.961 . S
H1525 C1511 0.958 . S
H1526 C1511 0.961 . S
H1527 C1511 0.960 . S
C1528 C1529 1.391 . S
C1528 C1530 1.391 1_554 S
C1528 H1544 0.931 . S
C1529 C1528 1.391 . S
C1529 C1533 1.376 . S
C1530 C1528 1.391 1_556 S
C1530 C1531 1.371 . S
C1530 C1534 1.532 . S
C1531 C1530 1.371 . S
C1531 C1532 1.410 . S
C1531 C1539 1.503 . S
C1532 C1531 1.410 . S
C1532 C1533 1.392 1_556 S
C1532 C1535 1.511 . S
C1533 C1529 1.376 . S
C1533 C1532 1.392 1_554 S
C1533 H1545 0.929 . S
C1534 C1530 1.532 . S
C1534 H1546 0.960 . S
C1534 H1547 0.962 . S
C1534 H1548 0.960 1_556 S
C1535 C1532 1.511 . S
C1535 H1549 0.961 . S
C1535 H1550 0.961 . S
C1535 H1551 0.961 . S
C1536 C1537 1.370 . S
C1536 C1538 1.363 . S
C1536 H1552 0.931 . S
C1537 C1536 1.370 . S
C1537 C1541 1.408 . S
C1538 C1536 1.363 . S
C1538 C1539 1.370 . S
C1538 C1542 1.524 . S
C1539 C1531 1.503 . S
C1539 C1538 1.370 . S
C1539 C1540 1.403 . S
C1540 C1539 1.403 . S
C1540 C1541 1.404 . S
C1540 C1543 1.539 . S
C1541 C1537 1.408 . S
C1541 C1540 1.404 . S
C1541 H1553 0.930 . S
C1542 C1538 1.524 . S
C1542 H1554 0.956 . S
C1542 H1555 0.961 . S
C1542 H1556 0.961 . S
C1543 C1540 1.539 . S
C1543 H1557 0.958 . S
C1543 H1558 0.961 . S
C1543 H1559 0.960 . S
H1544 C1528 0.931 . S
H1545 C1533 0.929 . S
H1546 C1534 0.960 . S
H1547 C1534 0.962 . S
H1548 C1534 0.960 1_554 S
H1549 C1535 0.961 . S
H1550 C1535 0.961 . S
H1551 C1535 0.961 . S
H1552 C1536 0.931 . S
H1553 C1541 0.930 . S
H1554 C1542 0.956 . S
H1555 C1542 0.961 . S
H1556 C1542 0.961 . S
H1557 C1543 0.958 . S
H1558 C1543 0.961 . S
H1559 C1543 0.960 . S
C1560 C1561 1.391 . S
C1560 C1562 1.394 . S
C1560 H1576 0.931 . S
C1561 C1560 1.391 . S
C1561 C1565 1.376 . S
C1562 C1560 1.394 . S
C1562 C1563 1.369 . S
C1562 C1566 1.531 . S
C1563 C1562 1.369 . S
C1563 C1564 1.410 . S
C1563 C1571 1.503 . S
C1564 C1563 1.410 . S
C1564 C1565 1.392 . S
C1564 C1567 1.511 . S
C1565 C1561 1.376 . S
C1565 C1564 1.392 . S
C1565 H1577 0.929 . S
C1566 C1562 1.531 . S
C1566 H1578 0.960 . S
C1566 H1579 0.962 . S
C1566 H1580 0.960 . S
C1567 C1564 1.511 . S
C1567 H1581 0.961 . S
C1567 H1582 0.961 . S
C1567 H1583 0.961 . S
C1568 C1569 1.370 . S
C1568 C1570 1.363 . S
C1568 H1584 0.931 . S
C1569 C1568 1.370 . S
C1569 C1573 1.408 . S
C1570 C1568 1.363 . S
C1570 C1571 1.370 . S
C1570 C1574 1.524 . S
C1571 C1563 1.503 . S
C1571 C1570 1.370 . S
C1571 C1572 1.403 . S
C1572 C1571 1.403 . S
C1572 C1573 1.404 . S
C1572 C1575 1.539 . S
C1573 C1569 1.408 . S
C1573 C1572 1.404 . S
C1573 H1585 0.930 . S
C1574 C1570 1.524 . S
C1574 H1586 0.956 . S
C1574 H1587 0.961 . S
C1574 H1588 0.961 . S
C1575 C1572 1.539 . S
C1575 H1589 0.958 . S
C1575 H1590 0.961 . S
C1575 H1591 0.960 . S
H1576 C1560 0.931 . S
H1577 C1565 0.929 . S
H1578 C1566 0.960 . S
H1579 C1566 0.962 . S
H1580 C1566 0.960 . S
H1581 C1567 0.961 . S
H1582 C1567 0.961 . S
H1583 C1567 0.961 . S
H1584 C1568 0.931 . S
H1585 C1573 0.930 . S
H1586 C1574 0.956 . S
H1587 C1574 0.961 . S
H1588 C1574 0.961 . S
H1589 C1575 0.958 . S
H1590 C1575 0.961 . S
H1591 C1575 0.960 . S
C1592 C1593 1.391 . S
C1592 C1594 1.394 . S
C1592 H1608 0.931 . S
C1593 C1592 1.391 . S
C1593 C1597 1.376 . S
C1594 C1592 1.394 . S
C1594 C1595 1.369 . S
C1594 C1598 1.531 . S
C1595 C1594 1.369 . S
C1595 C1596 1.410 . S
C1595 C1603 1.503 1_556 S
C1596 C1595 1.410 . S
C1596 C1597 1.392 . S
C1596 C1599 1.511 1_556 S
C1597 C1593 1.376 . S
C1597 C1596 1.392 . S
C1597 H1609 0.929 . S
C1598 C1594 1.531 . S
C1598 H1610 0.960 1_556 S
C1598 H1611 0.962 . S
C1598 H1612 0.960 . S
C1599 C1596 1.511 1_554 S
C1599 H1613 0.961 1_554 S
C1599 H1614 0.961 . S
C1599 H1615 0.961 . S
C1600 C1601 1.370 . S
C1600 C1602 1.363 . S
C1600 H1616 0.931 . S
C1601 C1600 1.370 . S
C1601 C1605 1.408 . S
C1602 C1600 1.363 . S
C1602 C1603 1.370 . S
C1602 C1606 1.524 1_554 S
C1603 C1595 1.503 1_554 S
C1603 C1602 1.370 . S
C1603 C1604 1.403 . S
C1604 C1603 1.403 . S
C1604 C1605 1.404 . S
C1604 C1607 1.539 . S
C1605 C1601 1.408 . S
C1605 C1604 1.404 . S
C1605 H1617 0.930 . S
C1606 C1602 1.524 1_556 S
C1606 H1618 0.956 . S
C1606 H1619 0.961 . S
C1606 H1620 0.961 . S
C1607 C1604 1.539 . S
C1607 H1621 0.958 . S
C1607 H1622 0.961 . S
C1607 H1623 0.960 . S
H1608 C1592 0.931 . S
H1609 C1597 0.929 . S
H1610 C1598 0.960 1_554 S
H1611 C1598 0.962 . S
H1612 C1598 0.960 . S
H1613 C1599 0.961 1_556 S
H1614 C1599 0.961 . S
H1615 C1599 0.961 . S
H1616 C1600 0.931 . S
H1617 C1605 0.930 . S
H1618 C1606 0.956 . S
H1619 C1606 0.961 . S
H1620 C1606 0.961 . S
H1621 C1607 0.958 . S
H1622 C1607 0.961 . S
H1623 C1607 0.960 . S
C1624 C1625 1.391 . S
C1624 C1626 1.394 . S
C1624 H1640 0.931 . S
C1625 C1624 1.391 . S
C1625 C1629 1.376 . S
C1626 C1624 1.394 . S
C1626 C1627 1.369 . S
C1626 C1630 1.531 . S
C1627 C1626 1.369 . S
C1627 C1628 1.410 . S
C1627 C1635 1.503 . S
C1628 C1627 1.410 . S
C1628 C1629 1.392 . S
C1628 C1631 1.511 . S
C1629 C1625 1.376 . S
C1629 C1628 1.392 . S
C1629 H1641 0.929 . S
C1630 C1626 1.531 . S
C1630 H1642 0.960 . S
C1630 H1643 0.962 . S
C1630 H1644 0.960 . S
C1631 C1628 1.511 . S
C1631 H1645 0.961 . S
C1631 H1646 0.961 . S
C1631 H1647 0.961 . S
C1632 C1633 1.370 . S
C1632 C1634 1.363 . S
C1632 H1648 0.931 . S
C1633 C1632 1.370 . S
C1633 C1637 1.408 . S
C1634 C1632 1.363 . S
C1634 C1635 1.370 . S
C1634 C1638 1.524 . S
C1635 C1627 1.503 . S
C1635 C1634 1.370 . S
C1635 C1636 1.403 . S
C1636 C1635 1.403 . S
C1636 C1637 1.404 . S
C1636 C1639 1.539 . S
C1637 C1633 1.408 . S
C1637 C1636 1.404 . S
C1637 H1649 0.930 . S
C1638 C1634 1.524 . S
C1638 H1650 0.956 . S
C1638 H1651 0.961 . S
C1638 H1652 0.961 . S
C1639 C1636 1.539 . S
C1639 H1653 0.958 . S
C1639 H1654 0.961 . S
C1639 H1655 0.960 . S
H1640 C1624 0.931 . S
H1641 C1629 0.929 . S
H1642 C1630 0.960 . S
H1643 C1630 0.962 . S
H1644 C1630 0.960 . S
H1645 C1631 0.961 . S
H1646 C1631 0.961 . S
H1647 C1631 0.961 . S
H1648 C1632 0.931 . S
H1649 C1637 0.930 . S
H1650 C1638 0.956 . S
H1651 C1638 0.961 . S
H1652 C1638 0.961 . S
H1653 C1639 0.958 . S
H1654 C1639 0.961 . S
H1655 C1639 0.960 . S
C1656 C1657 1.391 . S
C1656 C1658 1.394 . S
C1656 H1672 0.931 . S
C1657 C1656 1.391 . S
C1657 C1661 1.376 . S
C1658 C1656 1.394 . S
C1658 C1659 1.369 . S
C1658 C1662 1.531 . S
C1659 C1658 1.369 . S
C1659 C1660 1.410 . S
C1659 C1667 1.503 . S
C1660 C1659 1.410 . S
C1660 C1661 1.392 . S
C1660 C1663 1.511 . S
C1661 C1657 1.376 . S
C1661 C1660 1.392 . S
C1661 H1673 0.929 . S
C1662 C1658 1.531 . S
C1662 H1674 0.960 . S
C1662 H1675 0.962 . S
C1662 H1676 0.960 . S
C1663 C1660 1.511 . S
C1663 H1677 0.961 . S
C1663 H1678 0.961 . S
C1663 H1679 0.970 . S
C1664 C1665 1.370 . S
C1664 C1666 1.363 . S
C1664 H1680 0.931 . S
C1665 C1664 1.370 . S
C1665 C1669 1.408 1_455 S
C1666 C1664 1.363 . S
C1666 C1667 1.370 . S
C1666 C1670 1.524 . S
C1667 C1659 1.503 . S
C1667 C1666 1.370 . S
C1667 C1668 1.403 . S
C1668 C1667 1.403 . S
C1668 C1669 1.404 1_455 S
C1668 C1671 1.539 1_455 S
C1669 C1665 1.408 1_655 S
C1669 C1668 1.404 1_655 S
C1669 H1681 0.930 . S
C1670 C1666 1.524 . S
C1670 H1682 0.956 . S
C1670 H1683 0.961 . S
C1670 H1684 0.961 . S
C1671 C1668 1.539 1_655 S
C1671 H1685 0.958 . S
C1671 H1686 0.961 . S
C1671 H1687 0.960 . S
H1672 C1656 0.931 . S
H1673 C1661 0.929 . S
H1674 C1662 0.960 . S
H1675 C1662 0.962 . S
H1676 C1662 0.960 . S
H1677 C1663 0.961 . S
H1678 C1663 0.961 . S
H1679 C1663 0.970 . S
H1680 C1664 0.931 . S
H1681 C1669 0.930 . S
H1682 C1670 0.956 . S
H1683 C1670 0.961 . S
H1684 C1670 0.961 . S
H1685 C1671 0.958 . S
H1686 C1671 0.961 . S
H1687 C1671 0.960 . S
C1688 C1689 1.391 . S
C1688 C1690 1.394 . S
C1688 H1704 0.931 . S
C1689 C1688 1.391 . S
C1689 C1693 1.376 . S
C1690 C1688 1.394 . S
C1690 C1691 1.369 . S
C1690 C1694 1.531 . S
C1691 C1690 1.369 . S
C1691 C1692 1.410 . S
C1691 C1699 1.503 . S
C1692 C1691 1.410 . S
C1692 C1693 1.392 . S
C1692 C1695 1.511 . S
C1693 C1689 1.376 . S
C1693 C1692 1.392 . S
C1693 H1705 0.929 . S
C1694 C1690 1.531 . S
C1694 H1706 0.960 . S
C1694 H1707 0.962 . S
C1694 H1708 0.960 . S
C1695 C1692 1.511 . S
C1695 H1709 0.961 . S
C1695 H1710 0.961 . S
C1695 H1711 0.961 . S
C1696 C1697 1.370 . S
C1696 C1698 1.363 . S
C1696 H1712 0.931 . S
C1697 C1696 1.370 . S
C1697 C1701 1.408 . S
C1698 C1696 1.363 . S
C1698 C1699 1.370 . S
C1698 C1702 1.524 . S
C1699 C1691 1.503 . S
C1699 C1698 1.370 . S
C1699 C1700 1.403 . S
C1700 C1699 1.403 . S
C1700 C1701 1.404 . S
C1700 C1703 1.539 . S
C1701 C1697 1.408 . S
C1701 C1700 1.404 . S
C1701 H1713 0.930 . S
C1702 C1698 1.524 . S
C1702 H1714 0.956 . S
C1702 H1715 0.961 . S
C1702 H1716 0.961 . S
C1703 C1700 1.539 . S
C1703 H1717 0.958 . S
C1703 H1718 0.961 . S
C1703 H1719 0.960 . S
H1704 C1688 0.931 . S
H1705 C1693 0.929 . S
H1706 C1694 0.960 . S
H1707 C1694 0.962 . S
H1708 C1694 0.960 . S
H1709 C1695 0.961 . S
H1710 C1695 0.961 . S
H1711 C1695 0.961 . S
H1712 C1696 0.931 . S
H1713 C1701 0.930 . S
H1714 C1702 0.956 . S
H1715 C1702 0.961 . S
H1716 C1702 0.961 . S
H1717 C1703 0.958 . S
H1718 C1703 0.961 . S
H1719 C1703 0.960 . S
C1720 C1721 1.391 . S
C1720 C1722 1.394 . S
C1720 H1736 0.931 . S
C1721 C1720 1.391 . S
C1721 C1725 1.376 . S
C1722 C1720 1.394 . S
C1722 C1723 1.369 . S
C1722 C1726 1.531 . S
C1723 C1722 1.369 . S
C1723 C1724 1.410 . S
C1723 C1731 1.503 . S
C1724 C1723 1.410 . S
C1724 C1725 1.392 . S
C1724 C1727 1.511 . S
C1725 C1721 1.376 . S
C1725 C1724 1.392 . S
C1725 H1737 0.929 . S
C1726 C1722 1.531 . S
C1726 H1738 0.960 . S
C1726 H1739 0.962 . S
C1726 H1740 0.960 . S
C1727 C1724 1.511 . S
C1727 H1741 0.961 . S
C1727 H1742 0.961 . S
C1727 H1743 0.961 . S
C1728 C1729 1.370 . S
C1728 C1730 1.363 . S
C1728 H1744 0.931 . S
C1729 C1728 1.370 . S
C1729 C1733 1.408 . S
C1730 C1728 1.363 . S
C1730 C1731 1.370 . S
C1730 C1734 1.524 . S
C1731 C1723 1.503 . S
C1731 C1730 1.370 . S
C1731 C1732 1.403 . S
C1732 C1731 1.403 . S
C1732 C1733 1.404 . S
C1732 C1735 1.539 . S
C1733 C1729 1.408 . S
C1733 C1732 1.404 . S
C1733 H1745 0.930 . S
C1734 C1730 1.524 . S
C1734 H1746 0.956 . S
C1734 H1747 0.961 . S
C1734 H1748 0.961 . S
C1735 C1732 1.539 . S
C1735 H1749 0.958 . S
C1735 H1750 0.961 . S
C1735 H1751 0.960 . S
H1736 C1720 0.931 . S
H1737 C1725 0.929 . S
H1738 C1726 0.960 . S
H1739 C1726 0.962 . S
H1740 C1726 0.960 . S
H1741 C1727 0.961 . S
H1742 C1727 0.961 . S
H1743 C1727 0.961 . S
H1744 C1728 0.931 . S
H1745 C1733 0.930 . S
H1746 C1734 0.956 . S
H1747 C1734 0.961 . S
H1748 C1734 0.961 . S
H1749 C1735 0.958 . S
H1750 C1735 0.961 . S
H1751 C1735 0.960 . S
C1752 C1753 1.391 . S
C1752 C1754 1.394 . S
C1752 H1768 0.931 . S
C1753 C1752 1.391 . S
C1753 C1757 1.376 . S
C1754 C1752 1.394 . S
C1754 C1755 1.369 . S
C1754 C1758 1.531 . S
C1755 C1754 1.369 . S
C1755 C1756 1.410 . S
C1755 C1763 1.503 . S
C1756 C1755 1.410 . S
C1756 C1757 1.392 . S
C1756 C1759 1.511 . S
C1757 C1753 1.376 . S
C1757 C1756 1.392 . S
C1757 H1769 0.929 . S
C1758 C1754 1.531 . S
C1758 H1770 0.960 . S
C1758 H1771 0.962 . S
C1758 H1772 0.960 . S
C1759 C1756 1.511 . S
C1759 H1773 0.961 . S
C1759 H1774 0.961 . S
C1759 H1775 0.961 . S
C1760 C1761 1.370 . S
C1760 C1762 1.363 . S
C1760 H1776 0.931 . S
C1761 C1760 1.370 . S
C1761 C1765 1.408 . S
C1762 C1760 1.363 . S
C1762 C1763 1.370 . S
C1762 C1766 1.524 . S
C1763 C1755 1.503 . S
C1763 C1762 1.370 . S
C1763 C1764 1.403 . S
C1764 C1763 1.403 . S
C1764 C1765 1.404 . S
C1764 C1767 1.539 . S
C1765 C1761 1.408 . S
C1765 C1764 1.404 . S
C1765 H1777 0.930 . S
C1766 C1762 1.524 . S
C1766 H1778 0.956 . S
C1766 H1779 0.961 . S
C1766 H1780 0.961 . S
C1767 C1764 1.539 . S
C1767 H1781 0.958 . S
C1767 H1782 0.961 . S
C1767 H1783 0.960 . S
H1768 C1752 0.931 . S
H1769 C1757 0.929 . S
H1770 C1758 0.960 . S
H1771 C1758 0.962 . S
H1772 C1758 0.960 . S
H1773 C1759 0.961 . S
H1774 C1759 0.961 . S
H1775 C1759 0.961 . S
H1776 C1760 0.931 . S
H1777 C1765 0.930 . S
H1778 C1766 0.956 . S
H1779 C1766 0.961 . S
H1780 C1766 0.961 . S
H1781 C1767 0.958 . S
H1782 C1767 0.961 . S
H1783 C1767 0.960 . S
C1784 C1785 1.391 . S
C1784 C1786 1.394 . S
C1784 H1800 0.931 1_655 S
C1785 C1784 1.391 . S
C1785 C1789 1.376 . S
C1786 C1784 1.394 . S
C1786 C1787 1.369 . S
C1786 C1790 1.531 1_556 S
C1787 C1786 1.369 . S
C1787 C1788 1.410 . S
C1787 C1795 1.503 1_556 S
C1788 C1787 1.410 . S
C1788 C1789 1.392 . S
C1788 C1791 1.511 . S
C1789 C1785 1.376 . S
C1789 C1788 1.392 . S
C1789 H1801 0.929 . S
C1790 C1786 1.531 1_554 S
C1790 H1802 0.960 . S
C1790 H1803 0.962 1_655 S
C1790 H1804 0.960 1_655 S
C1791 C1788 1.511 . S
C1791 H1805 0.961 . S
C1791 H1806 0.961 . S
C1791 H1807 0.961 . S
C1792 C1793 1.370 . S
C1792 C1794 1.363 . S
C1792 H1808 0.931 . S
C1793 C1792 1.370 . S
C1793 C1797 1.408 . S
C1794 C1792 1.363 . S
C1794 C1795 1.370 . S
C1794 C1798 1.524 . S
C1795 C1787 1.503 1_554 S
C1795 C1794 1.370 . S
C1795 C1796 1.403 . S
C1796 C1795 1.403 . S
C1796 C1797 1.404 . S
C1796 C1799 1.539 . S
C1797 C1793 1.408 . S
C1797 C1796 1.404 . S
C1797 H1809 0.930 . S
C1798 C1794 1.524 . S
C1798 H1810 0.956 . S
C1798 H1811 0.961 1_554 S
C1798 H1812 0.961 . S
C1799 C1796 1.539 . S
C1799 H1813 0.958 . S
C1799 H1814 0.961 . S
C1799 H1815 0.960 1_554 S
H1800 C1784 0.931 1_455 S
H1801 C1789 0.929 . S
H1802 C1790 0.960 . S
H1803 C1790 0.962 1_455 S
H1804 C1790 0.960 1_455 S
H1805 C1791 0.961 . S
H1806 C1791 0.961 . S
H1807 C1791 0.961 . S
H1808 C1792 0.931 . S
H1809 C1797 0.930 . S
H1810 C1798 0.956 . S
H1811 C1798 0.961 1_556 S
H1812 C1798 0.961 . S
H1813 C1799 0.958 . S
H1814 C1799 0.961 . S
H1815 C1799 0.960 1_556 S
C1816 C1817 1.391 . S
C1816 C1818 1.394 . S
C1816 H1832 0.931 . S
C1817 C1816 1.391 . S
C1817 C1821 1.376 . S
C1818 C1816 1.394 . S
C1818 C1819 1.369 . S
C1818 C1822 1.531 . S
C1819 C1818 1.369 . S
C1819 C1820 1.410 . S
C1819 C1827 1.503 . S
C1820 C1819 1.410 . S
C1820 C1821 1.392 . S
C1820 C1823 1.511 . S
C1821 C1817 1.376 . S
C1821 C1820 1.392 . S
C1821 H1833 0.929 . S
C1822 C1818 1.531 . S
C1822 H1834 0.960 . S
C1822 H1835 0.962 . S
C1822 H1836 0.960 . S
C1823 C1820 1.511 . S
C1823 H1837 0.961 . S
C1823 H1838 0.961 . S
C1823 H1839 0.961 . S
C1824 C1825 1.370 . S
C1824 C1826 1.363 . S
C1824 H1840 0.931 . S
C1825 C1824 1.370 . S
C1825 C1829 1.408 . S
C1826 C1824 1.363 . S
C1826 C1827 1.370 . S
C1826 C1830 1.524 . S
C1827 C1819 1.503 . S
C1827 C1826 1.370 . S
C1827 C1828 1.403 . S
C1828 C1827 1.403 . S
C1828 C1829 1.404 . S
C1828 C1831 1.539 . S
C1829 C1825 1.408 . S
C1829 C1828 1.404 . S
C1829 H1841 0.930 . S
C1830 C1826 1.524 . S
C1830 H1842 0.956 . S
C1830 H1843 0.961 . S
C1830 H1844 0.961 . S
C1831 C1828 1.539 . S
C1831 H1845 0.958 . S
C1831 H1846 0.961 . S
C1831 H1847 0.960 . S
H1832 C1816 0.931 . S
H1833 C1821 0.929 . S
H1834 C1822 0.960 . S
H1835 C1822 0.962 . S
H1836 C1822 0.960 . S
H1837 C1823 0.961 . S
H1838 C1823 0.961 . S
H1839 C1823 0.961 . S
H1840 C1824 0.931 . S
H1841 C1829 0.930 . S
H1842 C1830 0.956 . S
H1843 C1830 0.961 . S
H1844 C1830 0.961 . S
H1845 C1831 0.958 . S
H1846 C1831 0.961 . S
H1847 C1831 0.960 . S
C1848 C1849 1.391 . S
C1848 C1850 1.394 . S
C1848 H1864 0.931 1_554 S
C1849 C1848 1.391 . S
C1849 C1853 1.376 . S
C1850 C1848 1.394 . S
C1850 C1851 1.369 . S
C1850 C1854 1.531 . S
C1851 C1850 1.369 . S
C1851 C1852 1.410 . S
C1851 C1859 1.503 . S
C1852 C1851 1.410 . S
C1852 C1853 1.392 . S
C1852 C1855 1.511 . S
C1853 C1849 1.376 . S
C1853 C1852 1.392 . S
C1853 H1865 0.929 . S
C1854 C1850 1.531 . S
C1854 H1866 0.960 . S
C1854 H1867 0.962 1_554 S
C1854 H1868 0.960 1_554 S
C1855 C1852 1.511 . S
C1855 H1869 0.961 . S
C1855 H1870 0.961 . S
C1855 H1871 0.961 . S
C1856 C1857 1.370 . S
C1856 C1858 1.363 . S
C1856 H1872 0.931 . S
C1857 C1856 1.370 . S
C1857 C1861 1.408 . S
C1858 C1856 1.363 . S
C1858 C1859 1.370 . S
C1858 C1862 1.524 . S
C1859 C1851 1.503 . S
C1859 C1858 1.370 . S
C1859 C1860 1.403 . S
C1860 C1859 1.403 . S
C1860 C1861 1.404 . S
C1860 C1863 1.539 . S
C1861 C1857 1.408 . S
C1861 C1860 1.404 . S
C1861 H1873 0.930 . S
C1862 C1858 1.524 . S
C1862 H1874 0.956 . S
C1862 H1875 0.961 . S
C1862 H1876 0.961 . S
C1863 C1860 1.539 . S
C1863 H1877 0.958 . S
C1863 H1878 0.961 . S
C1863 H1879 0.960 . S
H1864 C1848 0.931 1_556 S
H1865 C1853 0.929 . S
H1866 C1854 0.960 . S
H1867 C1854 0.962 1_556 S
H1868 C1854 0.960 1_556 S
H1869 C1855 0.961 . S
H1870 C1855 0.961 . S
H1871 C1855 0.961 . S
H1872 C1856 0.931 . S
H1873 C1861 0.930 . S
H1874 C1862 0.956 . S
H1875 C1862 0.961 . S
H1876 C1862 0.961 . S
H1877 C1863 0.958 . S
H1878 C1863 0.961 . S
H1879 C1863 0.960 . S
C1880 C1881 1.391 . S
C1880 C1882 1.394 . S
C1880 H1896 0.931 . S
C1881 C1880 1.391 . S
C1881 C1885 1.376 . S
C1882 C1880 1.394 . S
C1882 C1883 1.369 . S
C1882 C1886 1.531 . S
C1883 C1882 1.369 . S
C1883 C1884 1.410 . S
C1883 C1891 1.503 . S
C1884 C1883 1.410 . S
C1884 C1885 1.392 . S
C1884 C1887 1.511 . S
C1885 C1881 1.376 . S
C1885 C1884 1.392 . S
C1885 H1897 0.929 . S
C1886 C1882 1.531 . S
C1886 H1898 0.960 . S
C1886 H1899 0.962 . S
C1886 H1900 0.960 . S
C1887 C1884 1.511 . S
C1887 H1901 0.961 . S
C1887 H1902 0.961 . S
C1887 H1903 0.961 . S
C1888 C1889 1.370 . S
C1888 C1890 1.363 . S
C1888 H1904 0.931 . S
C1889 C1888 1.370 . S
C1889 C1893 1.408 . S
C1890 C1888 1.363 . S
C1890 C1891 1.370 . S
C1890 C1894 1.524 . S
C1891 C1883 1.503 . S
C1891 C1890 1.370 . S
C1891 C1892 1.403 . S
C1892 C1891 1.403 . S
C1892 C1893 1.404 . S
C1892 C1895 1.539 . S
C1893 C1889 1.408 . S
C1893 C1892 1.404 . S
C1893 H1905 0.930 . S
C1894 C1890 1.524 . S
C1894 H1906 0.956 . S
C1894 H1907 0.961 . S
C1894 H1908 0.961 . S
C1895 C1892 1.539 . S
C1895 H1909 0.958 . S
C1895 H1910 0.961 . S
C1895 H1911 0.960 . S
H1896 C1880 0.931 . S
H1897 C1885 0.929 . S
H1898 C1886 0.960 . S
H1899 C1886 0.962 . S
H1900 C1886 0.960 . S
H1901 C1887 0.961 . S
H1902 C1887 0.961 . S
H1903 C1887 0.961 . S
H1904 C1888 0.931 . S
H1905 C1893 0.930 . S
H1906 C1894 0.956 . S
H1907 C1894 0.961 . S
H1908 C1894 0.961 . S
H1909 C1895 0.958 . S
H1910 C1895 0.961 . S
H1911 C1895 0.960 . S
C1912 C1913 1.391 . S
C1912 C1914 1.394 . S
C1912 H1928 0.931 . S
C1913 C1912 1.391 . S
C1913 C1917 1.376 . S
C1914 C1912 1.394 . S
C1914 C1915 1.369 . S
C1914 C1918 1.531 . S
C1915 C1914 1.369 . S
C1915 C1916 1.410 . S
C1915 C1923 1.503 . S
C1916 C1915 1.410 . S
C1916 C1917 1.392 . S
C1916 C1919 1.511 . S
C1917 C1913 1.376 . S
C1917 C1916 1.392 . S
C1917 H1929 0.929 . S
C1918 C1914 1.531 . S
C1918 H1930 0.960 . S
C1918 H1931 0.962 . S
C1918 H1932 0.960 . S
C1919 C1916 1.511 . S
C1919 H1933 0.961 . S
C1919 H1934 0.961 . S
C1919 H1935 0.961 . S
C1920 C1921 1.370 . S
C1920 C1922 1.363 . S
C1920 H1936 0.931 . S
C1921 C1920 1.370 . S
C1921 C1925 1.408 . S
C1922 C1920 1.363 . S
C1922 C1923 1.370 . S
C1922 C1926 1.524 . S
C1923 C1915 1.503 . S
C1923 C1922 1.370 . S
C1923 C1924 1.403 . S
C1924 C1923 1.403 . S
C1924 C1925 1.404 . S
C1924 C1927 1.539 . S
C1925 C1921 1.408 . S
C1925 C1924 1.404 . S
C1925 H1937 0.930 . S
C1926 C1922 1.524 . S
C1926 H1938 0.956 . S
C1926 H1939 0.961 . S
C1926 H1940 0.961 . S
C1927 C1924 1.539 . S
C1927 H1941 0.958 . S
C1927 H1942 0.961 . S
C1927 H1943 0.960 . S
H1928 C1912 0.931 . S
H1929 C1917 0.929 . S
H1930 C1918 0.960 . S
H1931 C1918 0.962 . S
H1932 C1918 0.960 . S
H1933 C1919 0.961 . S
H1934 C1919 0.961 . S
H1935 C1919 0.961 . S
H1936 C1920 0.931 . S
H1937 C1925 0.930 . S
H1938 C1926 0.956 . S
H1939 C1926 0.961 . S
H1940 C1926 0.961 . S
H1941 C1927 0.958 . S
H1942 C1927 0.961 . S
H1943 C1927 0.960 . S
C1944 C1945 1.391 . S
C1944 C1946 1.394 . S
C1944 H1960 0.931 . S
C1945 C1944 1.391 . S
C1945 C1949 1.376 . S
C1946 C1944 1.394 . S
C1946 C1947 1.369 . S
C1946 C1950 1.531 . S
C1947 C1946 1.369 . S
C1947 C1948 1.410 . S
C1947 C1955 1.503 . S
C1948 C1947 1.410 . S
C1948 C1949 1.392 . S
C1948 C1951 1.511 . S
C1949 C1945 1.376 . S
C1949 C1948 1.392 . S
C1949 H1961 0.929 . S
C1950 C1946 1.531 . S
C1950 H1962 0.960 . S
C1950 H1963 0.962 . S
C1950 H1964 0.960 . S
C1951 C1948 1.511 . S
C1951 H1965 0.961 . S
C1951 H1966 0.961 . S
C1951 H1967 0.961 . S
C1952 C1953 1.370 . S
C1952 C1954 1.363 . S
C1952 H1968 0.931 . S
C1953 C1952 1.370 . S
C1953 C1957 1.408 . S
C1954 C1952 1.363 . S
C1954 C1955 1.370 . S
C1954 C1958 1.524 . S
C1955 C1947 1.503 . S
C1955 C1954 1.370 . S
C1955 C1956 1.403 . S
C1956 C1955 1.403 . S
C1956 C1957 1.404 . S
C1956 C1959 1.539 . S
C1957 C1953 1.408 . S
C1957 C1956 1.404 . S
C1957 H1969 0.930 . S
C1958 C1954 1.524 . S
C1958 H1970 0.956 . S
C1958 H1971 0.961 . S
C1958 H1972 0.961 . S
C1959 C1956 1.539 . S
C1959 H1973 0.958 . S
C1959 H1974 0.961 . S
C1959 H1975 0.960 . S
H1960 C1944 0.931 . S
H1961 C1949 0.929 . S
H1962 C1950 0.960 . S
H1963 C1950 0.962 . S
H1964 C1950 0.960 . S
H1965 C1951 0.961 . S
H1966 C1951 0.961 . S
H1967 C1951 0.961 . S
H1968 C1952 0.931 . S
H1969 C1957 0.930 . S
H1970 C1958 0.956 . S
H1971 C1958 0.961 . S
H1972 C1958 0.961 . S
H1973 C1959 0.958 . S
H1974 C1959 0.961 . S
H1975 C1959 0.960 . S
C1976 C1977 1.391 . S
C1976 C1978 1.394 . S
C1976 H1992 0.931 . S
C1977 C1976 1.391 . S
C1977 C1981 1.376 . S
C1978 C1976 1.394 . S
C1978 C1979 1.369 . S
C1978 C1982 1.531 . S
C1979 C1978 1.369 . S
C1979 C1980 1.410 . S
C1979 C1987 1.503 1_565 S
C1980 C1979 1.410 . S
C1980 C1981 1.392 . S
C1980 C1983 1.504 1_565 S
C1981 C1977 1.376 . S
C1981 C1980 1.392 . S
C1981 H1993 0.929 . S
C1982 C1978 1.531 . S
C1982 H1994 0.960 1_565 S
C1982 H1995 0.962 . S
C1982 H1996 0.960 . S
C1983 C1980 1.504 1_545 S
C1983 H1997 0.954 1_545 S
C1983 H1998 0.968 . S
C1983 H1999 0.967 . S
C1984 C1985 1.370 . S
C1984 C1986 1.363 . S
C1984 H2000 0.931 . S
C1985 C1984 1.370 . S
C1985 C1989 1.408 . S
C1986 C1984 1.363 . S
C1986 C1987 1.370 . S
C1986 C1990 1.524 1_545 S
C1987 C1979 1.503 1_545 S
C1987 C1986 1.370 . S
C1987 C1988 1.403 . S
C1988 C1987 1.403 . S
C1988 C1989 1.404 . S
C1988 C1991 1.539 . S
C1989 C1985 1.408 . S
C1989 C1988 1.404 . S
C1989 H2001 0.930 . S
C1990 C1986 1.524 1_565 S
C1990 H2002 0.956 . S
C1990 H2003 0.961 . S
C1990 H2004 0.961 . S
C1991 C1988 1.539 . S
C1991 H2005 0.958 . S
C1991 H2006 0.961 . S
C1991 H2007 0.960 . S
H1992 C1976 0.931 . S
H1993 C1981 0.929 . S
H1994 C1982 0.960 1_545 S
H1995 C1982 0.962 . S
H1996 C1982 0.960 . S
H1997 C1983 0.954 1_565 S
H1998 C1983 0.968 . S
H1999 C1983 0.967 . S
H2000 C1984 0.931 . S
H2001 C1989 0.930 . S
H2002 C1990 0.956 . S
H2003 C1990 0.961 . S
H2004 C1990 0.961 . S
H2005 C1991 0.958 . S
H2006 C1991 0.961 . S
H2007 C1991 0.960 . S
C2008 C2009 1.391 . S
C2008 C2010 1.394 . S
C2008 H2024 0.931 . S
C2009 C2008 1.391 . S
C2009 C2013 1.376 . S
C2010 C2008 1.394 . S
C2010 C2011 1.369 . S
C2010 C2014 1.531 . S
C2011 C2010 1.369 . S
C2011 C2012 1.410 . S
C2011 C2019 1.503 . S
C2012 C2011 1.410 . S
C2012 C2013 1.392 . S
C2012 C2015 1.511 . S
C2013 C2009 1.376 . S
C2013 C2012 1.392 . S
C2013 H2025 0.929 . S
C2014 C2010 1.531 . S
C2014 H2026 0.960 . S
C2014 H2027 0.962 . S
C2014 H2028 0.960 . S
C2015 C2012 1.511 . S
C2015 H2029 0.961 . S
C2015 H2030 0.961 . S
C2015 H2031 0.961 . S
C2016 C2017 1.370 . S
C2016 C2018 1.363 . S
C2016 H2032 0.931 . S
C2017 C2016 1.370 . S
C2017 C2021 1.408 . S
C2018 C2016 1.363 . S
C2018 C2019 1.370 . S
C2018 C2022 1.524 . S
C2019 C2011 1.503 . S
C2019 C2018 1.370 . S
C2019 C2020 1.403 . S
C2020 C2019 1.403 . S
C2020 C2021 1.404 . S
C2020 C2023 1.539 . S
C2021 C2017 1.408 . S
C2021 C2020 1.404 . S
C2021 H2033 0.930 . S
C2022 C2018 1.524 . S
C2022 H2034 0.956 . S
C2022 H2035 0.961 . S
C2022 H2036 0.961 . S
C2023 C2020 1.539 . S
C2023 H2037 0.958 . S
C2023 H2038 0.961 . S
C2023 H2039 0.960 . S
H2024 C2008 0.931 . S
H2025 C2013 0.929 . S
H2026 C2014 0.960 . S
H2027 C2014 0.962 . S
H2028 C2014 0.960 . S
H2029 C2015 0.961 . S
H2030 C2015 0.961 . S
H2031 C2015 0.961 . S
H2032 C2016 0.931 . S
H2033 C2021 0.930 . S
H2034 C2022 0.956 . S
H2035 C2022 0.961 . S
H2036 C2022 0.961 . S
H2037 C2023 0.958 . S
H2038 C2023 0.961 . S
H2039 C2023 0.960 . S
C2040 C2041 1.391 . S
C2040 C2042 1.394 . S
C2040 H2056 0.931 . S
C2041 C2040 1.391 . S
C2041 C2045 1.376 . S
C2042 C2040 1.394 . S
C2042 C2043 1.369 . S
C2042 C2046 1.531 . S
C2043 C2042 1.369 . S
C2043 C2044 1.410 . S
C2043 C2051 1.503 1_565 S
C2044 C2043 1.410 . S
C2044 C2045 1.392 . S
C2044 C2047 1.511 1_565 S
C2045 C2041 1.376 . S
C2045 C2044 1.392 . S
C2045 H2057 0.929 . S
C2046 C2042 1.531 . S
C2046 H2058 0.960 . S
C2046 H2059 0.962 . S
C2046 H2060 0.960 . S
C2047 C2044 1.511 1_545 S
C2047 H2061 0.961 1_545 S
C2047 H2062 0.961 . S
C2047 H2063 0.961 . S
C2048 C2049 1.370 . S
C2048 C2050 1.363 . S
C2048 H2064 0.931 . S
C2049 C2048 1.370 . S
C2049 C2053 1.408 . S
C2050 C2048 1.363 . S
C2050 C2051 1.370 . S
C2050 C2054 1.524 1_545 S
C2051 C2043 1.503 1_545 S
C2051 C2050 1.370 . S
C2051 C2052 1.403 . S
C2052 C2051 1.403 . S
C2052 C2053 1.404 . S
C2052 C2055 1.539 1_556 S
C2053 C2049 1.408 . S
C2053 C2052 1.404 . S
C2053 H2065 0.930 . S
C2054 C2050 1.524 1_565 S
C2054 H2066 0.956 . S
C2054 H2067 0.961 . S
C2054 H2068 0.961 . S
C2055 C2052 1.539 1_554 S
C2055 H2069 0.958 . S
C2055 H2070 0.961 . S
C2055 H2071 0.960 . S
H2056 C2040 0.931 . S
H2057 C2045 0.929 . S
H2058 C2046 0.960 . S
H2059 C2046 0.962 . S
H2060 C2046 0.960 . S
H2061 C2047 0.961 1_565 S
H2062 C2047 0.961 . S
H2063 C2047 0.961 . S
H2064 C2048 0.931 . S
H2065 C2053 0.930 . S
H2066 C2054 0.956 . S
H2067 C2054 0.961 . S
H2068 C2054 0.961 . S
H2069 C2055 0.958 . S
H2070 C2055 0.961 . S
H2071 C2055 0.960 . S
C2072 C2073 1.391 . S
C2072 C2074 1.394 . S
C2072 H2088 0.931 . S
C2073 C2072 1.391 . S
C2073 C2077 1.376 . S
C2074 C2072 1.394 . S
C2074 C2075 1.369 . S
C2074 C2078 1.531 . S
C2075 C2074 1.369 . S
C2075 C2076 1.410 . S
C2075 C2083 1.503 . S
C2076 C2075 1.410 . S
C2076 C2077 1.392 . S
C2076 C2079 1.511 . S
C2077 C2073 1.376 . S
C2077 C2076 1.392 . S
C2077 H2089 0.929 . S
C2078 C2074 1.531 . S
C2078 H2090 0.960 . S
C2078 H2091 0.962 . S
C2078 H2092 0.960 . S
C2079 C2076 1.511 . S
C2079 H2093 0.961 . S
C2079 H2094 0.961 . S
C2079 H2095 0.961 . S
C2080 C2081 1.370 . S
C2080 C2082 1.363 . S
C2080 H2096 0.931 . S
C2081 C2080 1.370 . S
C2081 C2085 1.408 . S
C2082 C2080 1.363 . S
C2082 C2083 1.370 . S
C2082 C2086 1.524 . S
C2083 C2075 1.503 . S
C2083 C2082 1.370 . S
C2083 C2084 1.403 . S
C2084 C2083 1.403 . S
C2084 C2085 1.404 . S
C2084 C2087 1.539 . S
C2085 C2081 1.408 . S
C2085 C2084 1.404 . S
C2085 H2097 0.930 . S
C2086 C2082 1.524 . S
C2086 H2098 0.956 . S
C2086 H2099 0.961 . S
C2086 H2100 0.961 . S
C2087 C2084 1.539 . S
C2087 H2101 0.958 . S
C2087 H2102 0.961 . S
C2087 H2103 0.960 . S
H2088 C2072 0.931 . S
H2089 C2077 0.929 . S
H2090 C2078 0.960 . S
H2091 C2078 0.962 . S
H2092 C2078 0.960 . S
H2093 C2079 0.961 . S
H2094 C2079 0.961 . S
H2095 C2079 0.961 . S
H2096 C2080 0.931 . S
H2097 C2085 0.930 . S
H2098 C2086 0.956 . S
H2099 C2086 0.961 . S
H2100 C2086 0.961 . S
H2101 C2087 0.958 . S
H2102 C2087 0.961 . S
H2103 C2087 0.960 . S
C2104 C2105 1.391 . S
C2104 C2106 1.394 . S
C2104 H2120 0.931 . S
C2105 C2104 1.391 . S
C2105 C2109 1.376 . S
C2106 C2104 1.394 . S
C2106 C2107 1.369 . S
C2106 C2110 1.531 . S
C2107 C2106 1.369 . S
C2107 C2108 1.410 . S
C2107 C2115 1.503 . S
C2108 C2107 1.410 . S
C2108 C2109 1.392 . S
C2108 C2111 1.511 . S
C2109 C2105 1.376 . S
C2109 C2108 1.392 . S
C2109 H2121 0.929 . S
C2110 C2106 1.531 . S
C2110 H2122 0.960 . S
C2110 H2123 0.962 . S
C2110 H2124 0.960 . S
C2111 C2108 1.511 . S
C2111 H2125 0.961 . S
C2111 H2126 0.961 . S
C2111 H2127 0.961 . S
C2112 C2113 1.370 . S
C2112 C2114 1.363 . S
C2112 H2128 0.931 . S
C2113 C2112 1.370 . S
C2113 C2117 1.408 . S
C2114 C2112 1.363 . S
C2114 C2115 1.370 . S
C2114 C2118 1.524 . S
C2115 C2107 1.503 . S
C2115 C2114 1.370 . S
C2115 C2116 1.403 . S
C2116 C2115 1.403 . S
C2116 C2117 1.404 . S
C2116 C2119 1.539 . S
C2117 C2113 1.408 . S
C2117 C2116 1.404 . S
C2117 H2129 0.930 . S
C2118 C2114 1.524 . S
C2118 H2130 0.956 . S
C2118 H2131 0.961 . S
C2118 H2132 0.961 . S
C2119 C2116 1.539 . S
C2119 H2133 0.958 . S
C2119 H2134 0.961 . S
C2119 H2135 0.960 . S
H2120 C2104 0.931 . S
H2121 C2109 0.929 . S
H2122 C2110 0.960 . S
H2123 C2110 0.962 . S
H2124 C2110 0.960 . S
H2125 C2111 0.961 . S
H2126 C2111 0.961 . S
H2127 C2111 0.961 . S
H2128 C2112 0.931 . S
H2129 C2117 0.930 . S
H2130 C2118 0.956 . S
H2131 C2118 0.961 . S
H2132 C2118 0.961 . S
H2133 C2119 0.958 . S
H2134 C2119 0.961 . S
H2135 C2119 0.960 . S
C2136 C2137 1.391 . S
C2136 C2138 1.394 . S
C2136 H2152 0.931 . S
C2137 C2136 1.391 . S
C2137 C2141 1.376 . S
C2138 C2136 1.394 . S
C2138 C2139 1.369 . S
C2138 C2142 1.531 . S
C2139 C2138 1.369 . S
C2139 C2140 1.410 . S
C2139 C2147 1.503 . S
C2140 C2139 1.410 . S
C2140 C2141 1.392 . S
C2140 C2143 1.511 . S
C2141 C2137 1.376 . S
C2141 C2140 1.392 . S
C2141 H2153 0.929 . S
C2142 C2138 1.531 . S
C2142 H2154 0.960 1_545 S
C2142 H2155 0.962 . S
C2142 H2156 0.950 1_545 S
C2143 C2140 1.511 . S
C2143 H2157 0.961 . S
C2143 H2158 0.961 . S
C2143 H2159 0.961 . S
C2144 C2145 1.370 . S
C2144 C2146 1.363 . S
C2144 H2160 0.931 . S
C2145 C2144 1.370 . S
C2145 C2149 1.416 . S
C2146 C2144 1.363 . S
C2146 C2147 1.370 . S
C2146 C2150 1.524 . S
C2147 C2139 1.503 . S
C2147 C2146 1.370 . S
C2147 C2148 1.403 . S
C2148 C2147 1.403 . S
C2148 C2149 1.411 . S
C2148 C2151 1.539 . S
C2149 C2145 1.416 . S
C2149 C2148 1.411 . S
C2149 H2161 0.916 1_545 S
C2150 C2146 1.524 . S
C2150 H2162 0.956 . S
C2150 H2163 0.961 . S
C2150 H2164 0.961 . S
C2151 C2148 1.539 . S
C2151 H2165 0.958 1_545 S
C2151 H2166 0.961 1_545 S
C2151 H2167 0.960 . S
H2152 C2136 0.931 . S
H2153 C2141 0.929 . S
H2154 C2142 0.960 1_565 S
H2155 C2142 0.962 . S
H2156 C2142 0.950 1_565 S
H2157 C2143 0.961 . S
H2158 C2143 0.961 . S
H2159 C2143 0.961 . S
H2160 C2144 0.931 . S
H2161 C2149 0.916 1_565 S
H2162 C2150 0.956 . S
H2163 C2150 0.961 . S
H2164 C2150 0.961 . S
H2165 C2151 0.958 1_565 S
H2166 C2151 0.961 1_565 S
H2167 C2151 0.960 . S
C2168 C2169 1.391 . S
C2168 C2170 1.394 . S
C2168 H2184 0.931 . S
C2169 C2168 1.391 . S
C2169 C2173 1.376 . S
C2170 C2168 1.394 . S
C2170 C2171 1.369 . S
C2170 C2174 1.531 . S
C2171 C2170 1.369 . S
C2171 C2172 1.410 . S
C2171 C2179 1.503 . S
C2172 C2171 1.410 . S
C2172 C2173 1.392 . S
C2172 C2175 1.511 . S
C2173 C2169 1.376 . S
C2173 C2172 1.392 . S
C2173 H2185 0.929 . S
C2174 C2170 1.531 . S
C2174 H2186 0.960 . S
C2174 H2187 0.962 . S
C2174 H2188 0.960 . S
C2175 C2172 1.511 . S
C2175 H2189 0.961 . S
C2175 H2190 0.961 . S
C2175 H2191 0.961 . S
C2176 C2177 1.370 . S
C2176 C2178 1.363 . S
C2176 H2192 0.931 . S
C2177 C2176 1.370 . S
C2177 C2181 1.408 . S
C2178 C2176 1.363 . S
C2178 C2179 1.370 . S
C2178 C2182 1.524 . S
C2179 C2171 1.503 . S
C2179 C2178 1.370 . S
C2179 C2180 1.403 . S
C2180 C2179 1.403 . S
C2180 C2181 1.404 . S
C2180 C2183 1.539 . S
C2181 C2177 1.408 . S
C2181 C2180 1.404 . S
C2181 H2193 0.930 . S
C2182 C2178 1.524 . S
C2182 H2194 0.956 . S
C2182 H2195 0.961 . S
C2182 H2196 0.961 . S
C2183 C2180 1.539 . S
C2183 H2197 0.958 . S
C2183 H2198 0.961 . S
C2183 H2199 0.960 . S
H2184 C2168 0.931 . S
H2185 C2173 0.929 . S
H2186 C2174 0.960 . S
H2187 C2174 0.962 . S
H2188 C2174 0.960 . S
H2189 C2175 0.961 . S
H2190 C2175 0.961 . S
H2191 C2175 0.961 . S
H2192 C2176 0.931 . S
H2193 C2181 0.930 . S
H2194 C2182 0.956 . S
H2195 C2182 0.961 . S
H2196 C2182 0.961 . S
H2197 C2183 0.958 . S
H2198 C2183 0.961 . S
H2199 C2183 0.960 . S
C2200 C2201 1.391 . S
C2200 C2202 1.394 . S
C2200 H2216 0.931 . S
C2201 C2200 1.391 . S
C2201 C2205 1.374 1_565 S
C2202 C2200 1.394 . S
C2202 C2203 1.369 . S
C2202 C2206 1.531 . S
C2203 C2202 1.369 . S
C2203 C2204 1.410 . S
C2203 C2211 1.503 1_655 S
C2204 C2203 1.410 . S
C2204 C2205 1.390 1_565 S
C2204 C2207 1.511 1_665 S
C2205 C2201 1.374 1_545 S
C2205 C2204 1.390 1_545 S
C2205 H2217 0.933 . S
C2206 C2202 1.531 . S
C2206 H2218 0.960 . S
C2206 H2219 0.962 . S
C2206 H2220 0.960 . S
C2207 C2204 1.511 1_445 S
C2207 H2221 0.961 . S
C2207 H2222 0.961 1_545 S
C2207 H2223 0.961 . S
C2208 C2209 1.370 . S
C2208 C2210 1.363 . S
C2208 H2224 0.931 . S
C2209 C2208 1.370 . S
C2209 C2213 1.408 . S
C2210 C2208 1.363 . S
C2210 C2211 1.370 . S
C2210 C2214 1.524 . S
C2211 C2203 1.503 1_455 S
C2211 C2210 1.370 . S
C2211 C2212 1.403 . S
C2212 C2211 1.403 . S
C2212 C2213 1.404 . S
C2212 C2215 1.539 . S
C2213 C2209 1.408 . S
C2213 C2212 1.404 . S
C2213 H2225 0.930 . S
C2214 C2210 1.524 . S
C2214 H2226 0.956 1_455 S
C2214 H2227 0.959 1_455 S
C2214 H2228 0.961 . S
C2215 C2212 1.539 . S
C2215 H2229 0.958 . S
C2215 H2230 0.961 . S
C2215 H2231 0.953 1_565 S
H2216 C2200 0.931 . S
H2217 C2205 0.933 . S
H2218 C2206 0.960 . S
H2219 C2206 0.962 . S
H2220 C2206 0.960 . S
H2221 C2207 0.961 . S
H2222 C2207 0.961 1_565 S
H2223 C2207 0.961 . S
H2224 C2208 0.931 . S
H2225 C2213 0.930 . S
H2226 C2214 0.956 1_655 S
H2227 C2214 0.959 1_655 S
H2228 C2214 0.961 . S
H2229 C2215 0.958 . S
H2230 C2215 0.961 . S
H2231 C2215 0.953 1_545 S
C2232 C2233 1.391 . S
C2232 C2234 1.394 . S
C2232 H2248 0.931 . S
C2233 C2232 1.391 . S
C2233 C2237 1.376 . S
C2234 C2232 1.394 . S
C2234 C2235 1.369 . S
C2234 C2238 1.531 . S
C2235 C2234 1.369 . S
C2235 C2236 1.410 . S
C2235 C2243 1.503 . S
C2236 C2235 1.410 . S
C2236 C2237 1.392 . S
C2236 C2239 1.511 . S
C2237 C2233 1.376 . S
C2237 C2236 1.392 . S
C2237 H2249 0.929 . S
C2238 C2234 1.531 . S
C2238 H2250 0.960 . S
C2238 H2251 0.962 . S
C2238 H2252 0.960 . S
C2239 C2236 1.511 . S
C2239 H2253 0.961 . S
C2239 H2254 0.961 . S
C2239 H2255 0.961 . S
C2240 C2241 1.370 . S
C2240 C2242 1.363 . S
C2240 H2256 0.931 . S
C2241 C2240 1.370 . S
C2241 C2245 1.408 . S
C2242 C2240 1.363 . S
C2242 C2243 1.370 . S
C2242 C2246 1.524 . S
C2243 C2235 1.503 . S
C2243 C2242 1.370 . S
C2243 C2244 1.403 . S
C2244 C2243 1.403 . S
C2244 C2245 1.404 . S
C2244 C2247 1.539 . S
C2245 C2241 1.408 . S
C2245 C2244 1.404 . S
C2245 H2257 0.930 . S
C2246 C2242 1.524 . S
C2246 H2258 0.956 . S
C2246 H2259 0.961 . S
C2246 H2260 0.961 . S
C2247 C2244 1.539 . S
C2247 H2261 0.958 . S
C2247 H2262 0.961 . S
C2247 H2263 0.960 . S
H2248 C2232 0.931 . S
H2249 C2237 0.929 . S
H2250 C2238 0.960 . S
H2251 C2238 0.962 . S
H2252 C2238 0.960 . S
H2253 C2239 0.961 . S
H2254 C2239 0.961 . S
H2255 C2239 0.961 . S
H2256 C2240 0.931 . S
H2257 C2245 0.930 . S
H2258 C2246 0.956 . S
H2259 C2246 0.961 . S
H2260 C2246 0.961 . S
H2261 C2247 0.958 . S
H2262 C2247 0.961 . S
H2263 C2247 0.960 . S
C2264 C2265 1.391 . S
C2264 C2266 1.394 . S
C2264 H2280 0.931 . S
C2265 C2264 1.391 . S
C2265 C2269 1.376 . S
C2266 C2264 1.394 . S
C2266 C2267 1.369 . S
C2266 C2270 1.531 . S
C2267 C2266 1.369 . S
C2267 C2268 1.410 . S
C2267 C2275 1.503 1_455 S
C2268 C2267 1.410 . S
C2268 C2269 1.392 . S
C2268 C2271 1.511 1_455 S
C2269 C2265 1.376 . S
C2269 C2268 1.392 . S
C2269 H2281 0.929 . S
C2270 C2266 1.531 . S
C2270 H2282 0.960 . S
C2270 H2283 0.962 . S
C2270 H2284 0.960 . S
C2271 C2268 1.511 1_655 S
C2271 H2285 0.961 . S
C2271 H2286 0.961 . S
C2271 H2287 0.961 . S
C2272 C2273 1.370 . S
C2272 C2274 1.363 . S
C2272 H2288 0.931 . S
C2273 C2272 1.370 . S
C2273 C2277 1.408 . S
C2274 C2272 1.363 . S
C2274 C2275 1.370 . S
C2274 C2278 1.524 . S
C2275 C2267 1.503 1_655 S
C2275 C2274 1.370 . S
C2275 C2276 1.403 . S
C2276 C2275 1.403 . S
C2276 C2277 1.404 . S
C2276 C2279 1.539 . S
C2277 C2273 1.408 . S
C2277 C2276 1.404 . S
C2277 H2289 0.930 . S
C2278 C2274 1.524 . S
C2278 H2290 0.956 1_655 S
C2278 H2291 0.961 1_655 S
C2278 H2292 0.961 . S
C2279 C2276 1.539 . S
C2279 H2293 0.958 . S
C2279 H2294 0.961 . S
C2279 H2295 0.960 . S
H2280 C2264 0.931 . S
H2281 C2269 0.929 . S
H2282 C2270 0.960 . S
H2283 C2270 0.962 . S
H2284 C2270 0.960 . S
H2285 C2271 0.961 . S
H2286 C2271 0.961 . S
H2287 C2271 0.961 . S
H2288 C2272 0.931 . S
H2289 C2277 0.930 . S
H2290 C2278 0.956 1_455 S
H2291 C2278 0.961 1_455 S
H2292 C2278 0.961 . S
H2293 C2279 0.958 . S
H2294 C2279 0.961 . S
H2295 C2279 0.960 . S
C2296 C2297 1.391 . S
C2296 C2298 1.394 . S
C2296 H2312 0.931 . S
C2297 C2296 1.391 . S
C2297 C2301 1.376 . S
C2298 C2296 1.394 . S
C2298 C2299 1.369 . S
C2298 C2302 1.531 . S
C2299 C2298 1.369 . S
C2299 C2300 1.410 . S
C2299 C2307 1.503 . S
C2300 C2299 1.410 . S
C2300 C2301 1.392 . S
C2300 C2303 1.511 . S
C2301 C2297 1.376 . S
C2301 C2300 1.392 . S
C2301 H2313 0.929 . S
C2302 C2298 1.531 . S
C2302 H2314 0.960 . S
C2302 H2315 0.962 . S
C2302 H2316 0.960 . S
C2303 C2300 1.511 . S
C2303 H2317 0.961 . S
C2303 H2318 0.961 . S
C2303 H2319 0.961 . S
C2304 C2305 1.370 . S
C2304 C2306 1.363 . S
C2304 H2320 0.931 . S
C2305 C2304 1.370 . S
C2305 C2309 1.408 . S
C2306 C2304 1.363 . S
C2306 C2307 1.370 . S
C2306 C2310 1.524 . S
C2307 C2299 1.503 . S
C2307 C2306 1.370 . S
C2307 C2308 1.403 . S
C2308 C2307 1.403 . S
C2308 C2309 1.404 . S
C2308 C2311 1.539 . S
C2309 C2305 1.408 . S
C2309 C2308 1.404 . S
C2309 H2321 0.930 . S
C2310 C2306 1.524 . S
C2310 H2322 0.956 . S
C2310 H2323 0.961 . S
C2310 H2324 0.961 . S
C2311 C2308 1.539 . S
C2311 H2325 0.958 . S
C2311 H2326 0.961 . S
C2311 H2327 0.960 . S
H2312 C2296 0.931 . S
H2313 C2301 0.929 . S
H2314 C2302 0.960 . S
H2315 C2302 0.962 . S
H2316 C2302 0.960 . S
H2317 C2303 0.961 . S
H2318 C2303 0.961 . S
H2319 C2303 0.961 . S
H2320 C2304 0.931 . S
H2321 C2309 0.930 . S
H2322 C2310 0.956 . S
H2323 C2310 0.961 . S
H2324 C2310 0.961 . S
H2325 C2311 0.958 . S
H2326 C2311 0.961 . S
H2327 C2311 0.960 . S
C2328 C2329 1.391 . S
C2328 C2330 1.394 . S
C2328 H2344 0.931 . S
C2329 C2328 1.391 . S
C2329 C2333 1.376 . S
C2330 C2328 1.394 . S
C2330 C2331 1.369 . S
C2330 C2334 1.531 1_655 S
C2331 C2330 1.369 . S
C2331 C2332 1.410 . S
C2331 C2339 1.503 . S
C2332 C2331 1.410 . S
C2332 C2333 1.392 . S
C2332 C2335 1.511 . S
C2333 C2329 1.376 . S
C2333 C2332 1.392 . S
C2333 H2345 0.929 . S
C2334 C2330 1.531 1_455 S
C2334 H2346 0.960 . S
C2334 H2347 0.962 . S
C2334 H2348 0.960 . S
C2335 C2332 1.511 . S
C2335 H2349 0.961 . S
C2335 H2350 0.961 . S
C2335 H2351 0.961 . S
C2336 C2337 1.370 . S
C2336 C2338 1.363 . S
C2336 H2352 0.931 . S
C2337 C2336 1.370 . S
C2337 C2341 1.408 . S
C2338 C2336 1.363 . S
C2338 C2339 1.370 1_455 S
C2338 C2342 1.523 1_455 S
C2339 C2331 1.503 . S
C2339 C2338 1.370 1_655 S
C2339 C2340 1.400 1_655 S
C2340 C2339 1.400 1_455 S
C2340 C2341 1.410 . S
C2340 C2343 1.535 1_455 S
C2341 C2337 1.408 . S
C2341 C2340 1.410 . S
C2341 H2353 0.930 . S
C2342 C2338 1.523 1_655 S
C2342 H2354 0.955 1_655 S
C2342 H2355 0.965 . S
C2342 H2356 0.959 1_655 S
C2343 C2340 1.535 1_655 S
C2343 H2357 0.958 . S
C2343 H2358 0.961 . S
C2343 H2359 0.960 . S
H2344 C2328 0.931 . S
H2345 C2333 0.929 . S
H2346 C2334 0.960 . S
H2347 C2334 0.962 . S
H2348 C2334 0.960 . S
H2349 C2335 0.961 . S
H2350 C2335 0.961 . S
H2351 C2335 0.961 . S
H2352 C2336 0.931 . S
H2353 C2341 0.930 . S
H2354 C2342 0.955 1_455 S
H2355 C2342 0.965 . S
H2356 C2342 0.959 1_455 S
H2357 C2343 0.958 . S
H2358 C2343 0.961 . S
H2359 C2343 0.960 . S
C2360 C2361 1.391 . S
C2360 C2362 1.394 . S
C2360 H2376 0.931 . S
C2361 C2360 1.391 . S
C2361 C2365 1.376 . S
C2362 C2360 1.394 . S
C2362 C2363 1.369 . S
C2362 C2366 1.556 . S
C2363 C2362 1.369 . S
C2363 C2364 1.410 . S
C2363 C2371 1.503 . S
C2364 C2363 1.410 . S
C2364 C2365 1.392 . S
C2364 C2367 1.511 . S
C2365 C2361 1.376 . S
C2365 C2364 1.392 . S
C2365 H2377 0.929 . S
C2366 C2362 1.556 . S
C2366 H2378 0.931 1_554 S
C2366 H2379 0.972 . S
C2366 H2380 0.956 1_554 S
C2367 C2364 1.511 . S
C2367 H2381 0.961 . S
C2367 H2382 0.961 . S
C2367 H2383 0.961 . S
C2368 C2369 1.370 . S
C2368 C2370 1.363 1_556 S
C2368 H2384 0.931 . S
C2369 C2368 1.370 . S
C2369 C2373 1.408 . S
C2370 C2368 1.363 1_554 S
C2370 C2371 1.370 . S
C2370 C2374 1.524 . S
C2371 C2363 1.503 . S
C2371 C2370 1.370 . S
C2371 C2372 1.403 1_554 S
C2372 C2371 1.403 1_556 S
C2372 C2373 1.404 . S
C2372 C2375 1.539 . S
C2373 C2369 1.408 . S
C2373 C2372 1.404 . S
C2373 H2385 0.930 . S
C2374 C2370 1.524 . S
C2374 H2386 0.956 . S
C2374 H2387 0.961 . S
C2374 H2388 0.961 . S
C2375 C2372 1.539 . S
C2375 H2389 0.958 . S
C2375 H2390 0.961 . S
C2375 H2391 0.960 . S
H2376 C2360 0.931 . S
H2377 C2365 0.929 . S
H2378 C2366 0.931 1_556 S
H2379 C2366 0.972 . S
H2380 C2366 0.956 1_556 S
H2381 C2367 0.961 . S
H2382 C2367 0.961 . S
H2383 C2367 0.961 . S
H2384 C2368 0.931 . S
H2385 C2373 0.930 . S
H2386 C2374 0.956 . S
H2387 C2374 0.961 . S
H2388 C2374 0.961 . S
H2389 C2375 0.958 . S
H2390 C2375 0.961 . S
H2391 C2375 0.960 . S
C2392 C2393 1.391 . S
C2392 C2394 1.394 . S
C2392 H2408 0.931 . S
C2393 C2392 1.391 . S
C2393 C2397 1.376 . S
C2394 C2392 1.394 . S
C2394 C2395 1.369 . S
C2394 C2398 1.531 . S
C2395 C2394 1.369 . S
C2395 C2396 1.410 . S
C2395 C2403 1.503 . S
C2396 C2395 1.410 . S
C2396 C2397 1.392 . S
C2396 C2399 1.511 . S
C2397 C2393 1.376 . S
C2397 C2396 1.392 . S
C2397 H2409 0.929 . S
C2398 C2394 1.531 . S
C2398 H2410 0.960 . S
C2398 H2411 0.962 . S
C2398 H2412 0.960 . S
C2399 C2396 1.511 . S
C2399 H2413 0.961 . S
C2399 H2414 0.961 . S
C2399 H2415 0.961 . S
C2400 C2401 1.370 . S
C2400 C2402 1.363 . S
C2400 H2416 0.931 . S
C2401 C2400 1.370 . S
C2401 C2405 1.408 . S
C2402 C2400 1.363 . S
C2402 C2403 1.370 . S
C2402 C2406 1.524 . S
C2403 C2395 1.503 . S
C2403 C2402 1.370 . S
C2403 C2404 1.403 . S
C2404 C2403 1.403 . S
C2404 C2405 1.404 . S
C2404 C2407 1.539 . S
C2405 C2401 1.408 . S
C2405 C2404 1.404 . S
C2405 H2417 0.930 . S
C2406 C2402 1.524 . S
C2406 H2418 0.956 . S
C2406 H2419 0.961 . S
C2406 H2420 0.961 . S
C2407 C2404 1.539 . S
C2407 H2421 0.958 . S
C2407 H2422 0.961 . S
C2407 H2423 0.960 . S
H2408 C2392 0.931 . S
H2409 C2397 0.929 . S
H2410 C2398 0.960 . S
H2411 C2398 0.962 . S
H2412 C2398 0.960 . S
H2413 C2399 0.961 . S
H2414 C2399 0.961 . S
H2415 C2399 0.961 . S
H2416 C2400 0.931 . S
H2417 C2405 0.930 . S
H2418 C2406 0.956 . S
H2419 C2406 0.961 . S
H2420 C2406 0.961 . S
H2421 C2407 0.958 . S
H2422 C2407 0.961 . S
H2423 C2407 0.960 . S
C2424 C2425 1.391 . S
C2424 C2426 1.394 . S
C2424 H2440 0.931 . S
C2425 C2424 1.391 . S
C2425 C2429 1.376 . S
C2426 C2424 1.394 . S
C2426 C2427 1.369 . S
C2426 C2430 1.531 . S
C2427 C2426 1.369 . S
C2427 C2428 1.410 . S
C2427 C2435 1.503 . S
C2428 C2427 1.410 . S
C2428 C2429 1.392 . S
C2428 C2431 1.511 . S
C2429 C2425 1.376 . S
C2429 C2428 1.392 . S
C2429 H2441 0.929 . S
C2430 C2426 1.531 . S
C2430 H2442 0.960 . S
C2430 H2443 0.962 . S
C2430 H2444 0.960 . S
C2431 C2428 1.511 . S
C2431 H2445 0.961 . S
C2431 H2446 0.961 . S
C2431 H2447 0.961 . S
C2432 C2433 1.370 . S
C2432 C2434 1.363 . S
C2432 H2448 0.931 . S
C2433 C2432 1.370 . S
C2433 C2437 1.408 . S
C2434 C2432 1.363 . S
C2434 C2435 1.370 . S
C2434 C2438 1.524 . S
C2435 C2427 1.503 . S
C2435 C2434 1.370 . S
C2435 C2436 1.403 . S
C2436 C2435 1.403 . S
C2436 C2437 1.404 . S
C2436 C2439 1.539 . S
C2437 C2433 1.408 . S
C2437 C2436 1.404 . S
C2437 H2449 0.930 . S
C2438 C2434 1.524 . S
C2438 H2450 0.956 . S
C2438 H2451 0.961 . S
C2438 H2452 0.961 . S
C2439 C2436 1.539 . S
C2439 H2453 0.958 . S
C2439 H2454 0.961 . S
C2439 H2455 0.960 . S
H2440 C2424 0.931 . S
H2441 C2429 0.929 . S
H2442 C2430 0.960 . S
H2443 C2430 0.962 . S
H2444 C2430 0.960 . S
H2445 C2431 0.961 . S
H2446 C2431 0.961 . S
H2447 C2431 0.961 . S
H2448 C2432 0.931 . S
H2449 C2437 0.930 . S
H2450 C2438 0.956 . S
H2451 C2438 0.961 . S
H2452 C2438 0.961 . S
H2453 C2439 0.958 . S
H2454 C2439 0.961 . S
H2455 C2439 0.960 . S
C2456 C2457 1.391 . S
C2456 C2458 1.394 . S
C2456 H2472 0.931 . S
C2457 C2456 1.391 . S
C2457 C2461 1.376 . S
C2458 C2456 1.394 . S
C2458 C2459 1.369 . S
C2458 C2462 1.531 . S
C2459 C2458 1.369 . S
C2459 C2460 1.410 . S
C2459 C2467 1.503 . S
C2460 C2459 1.410 . S
C2460 C2461 1.392 . S
C2460 C2463 1.511 . S
C2461 C2457 1.376 . S
C2461 C2460 1.392 . S
C2461 H2473 0.929 . S
C2462 C2458 1.531 . S
C2462 H2474 0.960 . S
C2462 H2475 0.962 . S
C2462 H2476 0.960 . S
C2463 C2460 1.511 . S
C2463 H2477 0.961 . S
C2463 H2478 0.961 . S
C2463 H2479 0.961 . S
C2464 C2465 1.370 . S
C2464 C2466 1.363 . S
C2464 H2480 0.931 . S
C2465 C2464 1.370 . S
C2465 C2469 1.408 . S
C2466 C2464 1.363 . S
C2466 C2467 1.370 . S
C2466 C2470 1.524 . S
C2467 C2459 1.503 . S
C2467 C2466 1.370 . S
C2467 C2468 1.403 . S
C2468 C2467 1.403 . S
C2468 C2469 1.404 . S
C2468 C2471 1.539 . S
C2469 C2465 1.408 . S
C2469 C2468 1.404 . S
C2469 H2481 0.930 . S
C2470 C2466 1.524 . S
C2470 H2482 0.956 . S
C2470 H2483 0.961 . S
C2470 H2484 0.961 . S
C2471 C2468 1.539 . S
C2471 H2485 0.958 . S
C2471 H2486 0.961 . S
C2471 H2487 0.960 . S
H2472 C2456 0.931 . S
H2473 C2461 0.929 . S
H2474 C2462 0.960 . S
H2475 C2462 0.962 . S
H2476 C2462 0.960 . S
H2477 C2463 0.961 . S
H2478 C2463 0.961 . S
H2479 C2463 0.961 . S
H2480 C2464 0.931 . S
H2481 C2469 0.930 . S
H2482 C2470 0.956 . S
H2483 C2470 0.961 . S
H2484 C2470 0.961 . S
H2485 C2471 0.958 . S
H2486 C2471 0.961 . S
H2487 C2471 0.960 . S
C2488 C2489 1.391 . S
C2488 C2490 1.394 . S
C2488 H2504 0.931 . S
C2489 C2488 1.391 . S
C2489 C2493 1.376 . S
C2490 C2488 1.394 . S
C2490 C2491 1.369 . S
C2490 C2494 1.531 . S
C2491 C2490 1.369 . S
C2491 C2492 1.410 . S
C2491 C2499 1.503 . S
C2492 C2491 1.410 . S
C2492 C2493 1.392 . S
C2492 C2495 1.511 . S
C2493 C2489 1.376 . S
C2493 C2492 1.392 . S
C2493 H2505 0.929 . S
C2494 C2490 1.531 . S
C2494 H2506 0.960 . S
C2494 H2507 0.962 . S
C2494 H2508 0.960 . S
C2495 C2492 1.511 . S
C2495 H2509 0.961 . S
C2495 H2510 0.961 . S
C2495 H2511 0.961 . S
C2496 C2497 1.370 . S
C2496 C2498 1.363 . S
C2496 H2512 0.931 . S
C2497 C2496 1.370 . S
C2497 C2501 1.408 . S
C2498 C2496 1.363 . S
C2498 C2499 1.370 . S
C2498 C2502 1.524 . S
C2499 C2491 1.503 . S
C2499 C2498 1.370 . S
C2499 C2500 1.403 . S
C2500 C2499 1.403 . S
C2500 C2501 1.404 . S
C2500 C2503 1.539 . S
C2501 C2497 1.408 . S
C2501 C2500 1.404 . S
C2501 H2513 0.930 . S
C2502 C2498 1.524 . S
C2502 H2514 0.956 . S
C2502 H2515 0.961 . S
C2502 H2516 0.961 . S
C2503 C2500 1.539 . S
C2503 H2517 0.958 . S
C2503 H2518 0.961 . S
C2503 H2519 0.960 . S
H2504 C2488 0.931 . S
H2505 C2493 0.929 . S
H2506 C2494 0.960 . S
H2507 C2494 0.962 . S
H2508 C2494 0.960 . S
H2509 C2495 0.961 . S
H2510 C2495 0.961 . S
H2511 C2495 0.961 . S
H2512 C2496 0.931 . S
H2513 C2501 0.930 . S
H2514 C2502 0.956 . S
H2515 C2502 0.961 . S
H2516 C2502 0.961 . S
H2517 C2503 0.958 . S
H2518 C2503 0.961 . S
H2519 C2503 0.960 . S
C2520 C2521 1.391 . S
C2520 C2522 1.394 1_655 S
C2520 H2536 0.941 . S
C2521 C2520 1.391 . S
C2521 C2525 1.376 . S
C2522 C2520 1.394 1_455 S
C2522 C2523 1.369 . S
C2522 C2526 1.531 . S
C2523 C2522 1.369 . S
C2523 C2524 1.410 1_455 S
C2523 C2531 1.503 . S
C2524 C2523 1.410 1_655 S
C2524 C2525 1.392 . S
C2524 C2527 1.511 . S
C2525 C2521 1.376 . S
C2525 C2524 1.392 . S
C2525 H2537 0.929 . S
C2526 C2522 1.531 . S
C2526 H2538 0.960 . S
C2526 H2539 0.962 . S
C2526 H2540 0.960 . S
C2527 C2524 1.511 . S
C2527 H2541 0.961 . S
C2527 H2542 0.961 . S
C2527 H2543 0.961 . S
C2528 C2529 1.370 . S
C2528 C2530 1.363 . S
C2528 H2544 0.931 . S
C2529 C2528 1.370 . S
C2529 C2533 1.408 . S
C2530 C2528 1.363 . S
C2530 C2531 1.370 . S
C2530 C2534 1.524 . S
C2531 C2523 1.503 . S
C2531 C2530 1.370 . S
C2531 C2532 1.403 . S
C2532 C2531 1.403 . S
C2532 C2533 1.404 . S
C2532 C2535 1.539 . S
C2533 C2529 1.408 . S
C2533 C2532 1.404 . S
C2533 H2545 0.930 . S
C2534 C2530 1.524 . S
C2534 H2546 0.956 . S
C2534 H2547 0.961 . S
C2534 H2548 0.961 . S
C2535 C2532 1.539 . S
C2535 H2549 0.958 . S
C2535 H2550 0.961 . S
C2535 H2551 0.960 . S
H2536 C2520 0.941 . S
H2537 C2525 0.929 . S
H2538 C2526 0.960 . S
H2539 C2526 0.962 . S
H2540 C2526 0.960 . S
H2541 C2527 0.961 . S
H2542 C2527 0.961 . S
H2543 C2527 0.961 . S
H2544 C2528 0.931 . S
H2545 C2533 0.930 . S
H2546 C2534 0.956 . S
H2547 C2534 0.961 . S
H2548 C2534 0.961 . S
H2549 C2535 0.958 . S
H2550 C2535 0.961 . S
H2551 C2535 0.960 . S
C2552 C2553 1.391 . S
C2552 C2554 1.394 1_554 S
C2552 H2568 0.931 . S
C2553 C2552 1.391 . S
C2553 C2557 1.376 . S
C2554 C2552 1.394 1_556 S
C2554 C2555 1.369 . S
C2554 C2558 1.531 . S
C2555 C2554 1.369 . S
C2555 C2556 1.410 1_556 S
C2555 C2563 1.503 . S
C2556 C2555 1.410 1_554 S
C2556 C2557 1.392 . S
C2556 C2559 1.511 . S
C2557 C2553 1.376 . S
C2557 C2556 1.392 . S
C2557 H2569 0.929 . S
C2558 C2554 1.531 . S
C2558 H2570 0.960 . S
C2558 H2571 0.962 . S
C2558 H2572 0.960 . S
C2559 C2556 1.511 . S
C2559 H2573 0.961 . S
C2559 H2574 0.961 . S
C2559 H2575 0.961 1_554 S
C2560 C2561 1.370 . S
C2560 C2562 1.363 . S
C2560 H2576 0.931 . S
C2561 C2560 1.370 . S
C2561 C2565 1.408 . S
C2562 C2560 1.363 . S
C2562 C2563 1.370 . S
C2562 C2566 1.524 1_556 S
C2563 C2555 1.503 . S
C2563 C2562 1.370 . S
C2563 C2564 1.403 . S
C2564 C2563 1.403 . S
C2564 C2565 1.404 . S
C2564 C2567 1.539 . S
C2565 C2561 1.408 . S
C2565 C2564 1.404 . S
C2565 H2577 0.930 . S
C2566 C2562 1.524 1_554 S
C2566 H2578 0.956 . S
C2566 H2579 0.961 . S
C2566 H2580 0.961 . S
C2567 C2564 1.539 . S
C2567 H2581 0.958 . S
C2567 H2582 0.961 . S
C2567 H2583 0.960 . S
H2568 C2552 0.931 . S
H2569 C2557 0.929 . S
H2570 C2558 0.960 . S
H2571 C2558 0.962 . S
H2572 C2558 0.960 . S
H2573 C2559 0.961 . S
H2574 C2559 0.961 . S
H2575 C2559 0.961 1_556 S
H2576 C2560 0.931 . S
H2577 C2565 0.930 . S
H2578 C2566 0.956 . S
H2579 C2566 0.961 . S
H2580 C2566 0.961 . S
H2581 C2567 0.958 . S
H2582 C2567 0.961 . S
H2583 C2567 0.960 . S
C2584 C2585 1.391 . S
C2584 C2586 1.394 . S
C2584 H2600 0.931 . S
C2585 C2584 1.391 . S
C2585 C2589 1.376 . S
C2586 C2584 1.394 . S
C2586 C2587 1.369 . S
C2586 C2590 1.531 . S
C2587 C2586 1.369 . S
C2587 C2588 1.410 . S
C2587 C2595 1.503 . S
C2588 C2587 1.410 . S
C2588 C2589 1.392 . S
C2588 C2591 1.511 1_565 S
C2589 C2585 1.376 . S
C2589 C2588 1.392 . S
C2589 H2601 0.929 . S
C2590 C2586 1.531 . S
C2590 H2602 0.960 . S
C2590 H2603 0.962 . S
C2590 H2604 0.960 . S
C2591 C2588 1.511 1_545 S
C2591 H2605 0.961 . S
C2591 H2606 0.961 . S
C2591 H2607 0.961 . S
C2592 C2593 1.370 . S
C2592 C2594 1.363 1_545 S
C2592 H2608 0.931 . S
C2593 C2592 1.370 . S
C2593 C2597 1.408 . S
C2594 C2592 1.363 1_565 S
C2594 C2595 1.370 . S
C2594 C2598 1.524 . S
C2595 C2587 1.503 . S
C2595 C2594 1.370 . S
C2595 C2596 1.403 1_565 S
C2596 C2595 1.403 1_545 S
C2596 C2597 1.404 . S
C2596 C2599 1.539 . S
C2597 C2593 1.408 . S
C2597 C2596 1.404 . S
C2597 H2609 0.930 . S
C2598 C2594 1.524 . S
C2598 H2610 0.956 . S
C2598 H2611 0.961 . S
C2598 H2612 0.961 . S
C2599 C2596 1.539 . S
C2599 H2613 0.957 . S
C2599 H2614 0.961 . S
C2599 H2615 0.960 . S
H2600 C2584 0.931 . S
H2601 C2589 0.929 . S
H2602 C2590 0.960 . S
H2603 C2590 0.962 . S
H2604 C2590 0.960 . S
H2605 C2591 0.961 . S
H2606 C2591 0.961 . S
H2607 C2591 0.961 . S
H2608 C2592 0.931 . S
H2609 C2597 0.930 . S
H2610 C2598 0.956 . S
H2611 C2598 0.961 . S
H2612 C2598 0.961 . S
H2613 C2599 0.957 . S
H2614 C2599 0.961 . S
H2615 C2599 0.960 . S
C2616 C2617 1.391 . S
C2616 C2618 1.394 . S
C2616 H2632 0.931 . S
C2617 C2616 1.391 . S
C2617 C2621 1.376 . S
C2618 C2616 1.394 . S
C2618 C2619 1.369 . S
C2618 C2622 1.531 . S
C2619 C2618 1.369 . S
C2619 C2620 1.410 . S
C2619 C2627 1.503 . S
C2620 C2619 1.410 . S
C2620 C2621 1.392 . S
C2620 C2623 1.511 . S
C2621 C2617 1.376 . S
C2621 C2620 1.392 . S
C2621 H2633 0.929 . S
C2622 C2618 1.531 . S
C2622 H2634 0.960 . S
C2622 H2635 0.962 . S
C2622 H2636 0.960 . S
C2623 C2620 1.511 . S
C2623 H2637 0.961 . S
C2623 H2638 0.961 . S
C2623 H2639 0.961 . S
C2624 C2625 1.370 . S
C2624 C2626 1.363 . S
C2624 H2640 0.931 . S
C2625 C2624 1.370 . S
C2625 C2629 1.408 . S
C2626 C2624 1.363 . S
C2626 C2627 1.370 . S
C2626 C2630 1.524 . S
C2627 C2619 1.503 . S
C2627 C2626 1.370 . S
C2627 C2628 1.403 . S
C2628 C2627 1.403 . S
C2628 C2629 1.404 . S
C2628 C2631 1.539 . S
C2629 C2625 1.408 . S
C2629 C2628 1.404 . S
C2629 H2641 0.930 . S
C2630 C2626 1.524 . S
C2630 H2642 0.956 . S
C2630 H2643 0.961 . S
C2630 H2644 0.961 . S
C2631 C2628 1.539 . S
C2631 H2645 0.958 . S
C2631 H2646 0.961 . S
C2631 H2647 0.960 . S
H2632 C2616 0.931 . S
H2633 C2621 0.929 . S
H2634 C2622 0.960 . S
H2635 C2622 0.962 . S
H2636 C2622 0.960 . S
H2637 C2623 0.961 . S
H2638 C2623 0.961 . S
H2639 C2623 0.961 . S
H2640 C2624 0.931 . S
H2641 C2629 0.930 . S
H2642 C2630 0.956 . S
H2643 C2630 0.961 . S
H2644 C2630 0.961 . S
H2645 C2631 0.958 . S
H2646 C2631 0.961 . S
H2647 C2631 0.960 . S
C2648 C2649 1.391 . S
C2648 C2650 1.394 . S
C2648 H2664 0.931 . S
C2649 C2648 1.391 . S
C2649 C2653 1.376 . S
C2650 C2648 1.394 . S
C2650 C2651 1.369 . S
C2650 C2654 1.531 . S
C2651 C2650 1.369 . S
C2651 C2652 1.410 . S
C2651 C2659 1.503 . S
C2652 C2651 1.410 . S
C2652 C2653 1.392 . S
C2652 C2655 1.511 . S
C2653 C2649 1.376 . S
C2653 C2652 1.392 . S
C2653 H2665 0.929 . S
C2654 C2650 1.531 . S
C2654 H2666 0.960 . S
C2654 H2667 0.962 . S
C2654 H2668 0.960 . S
C2655 C2652 1.511 . S
C2655 H2669 0.961 . S
C2655 H2670 0.961 . S
C2655 H2671 0.961 1_545 S
C2656 C2657 1.370 . S
C2656 C2658 1.363 1_565 S
C2656 H2672 0.935 . S
C2657 C2656 1.370 . S
C2657 C2661 1.408 . S
C2658 C2656 1.363 1_545 S
C2658 C2659 1.370 . S
C2658 C2662 1.524 . S
C2659 C2651 1.503 . S
C2659 C2658 1.370 . S
C2659 C2660 1.403 1_545 S
C2660 C2659 1.403 1_565 S
C2660 C2661 1.404 . S
C2660 C2663 1.539 . S
C2661 C2657 1.408 . S
C2661 C2660 1.404 . S
C2661 H2673 0.930 . S
C2662 C2658 1.524 . S
C2662 H2674 0.956 . S
C2662 H2675 0.961 . S
C2662 H2676 0.961 . S
C2663 C2660 1.539 . S
C2663 H2677 0.958 . S
C2663 H2678 0.961 . S
C2663 H2679 0.960 . S
H2664 C2648 0.931 . S
H2665 C2653 0.929 . S
H2666 C2654 0.960 . S
H2667 C2654 0.962 . S
H2668 C2654 0.960 . S
H2669 C2655 0.961 . S
H2670 C2655 0.961 . S
H2671 C2655 0.961 1_565 S
H2672 C2656 0.935 . S
H2673 C2661 0.930 . S
H2674 C2662 0.956 . S
H2675 C2662 0.961 . S
H2676 C2662 0.961 . S
H2677 C2663 0.958 . S
H2678 C2663 0.961 . S
H2679 C2663 0.960 . S
C2680 C2681 1.391 . S
C2680 C2682 1.394 . S
C2680 H2696 0.931 . S
C2681 C2680 1.391 . S
C2681 C2685 1.376 . S
C2682 C2680 1.394 . S
C2682 C2683 1.369 . S
C2682 C2686 1.531 . S
C2683 C2682 1.369 . S
C2683 C2684 1.410 . S
C2683 C2691 1.503 . S
C2684 C2683 1.410 . S
C2684 C2685 1.392 . S
C2684 C2687 1.511 . S
C2685 C2681 1.376 . S
C2685 C2684 1.392 . S
C2685 H2697 0.929 . S
C2686 C2682 1.531 . S
C2686 H2698 0.960 . S
C2686 H2699 0.962 . S
C2686 H2700 0.960 . S
C2687 C2684 1.511 . S
C2687 H2701 0.961 . S
C2687 H2702 0.961 . S
C2687 H2703 0.961 . S
C2688 C2689 1.370 . S
C2688 C2690 1.363 . S
C2688 H2704 0.931 . S
C2689 C2688 1.370 . S
C2689 C2693 1.408 . S
C2690 C2688 1.363 . S
C2690 C2691 1.370 . S
C2690 C2694 1.524 . S
C2691 C2683 1.503 . S
C2691 C2690 1.370 . S
C2691 C2692 1.403 . S
C2692 C2691 1.403 . S
C2692 C2693 1.404 . S
C2692 C2695 1.539 . S
C2693 C2689 1.408 . S
C2693 C2692 1.404 . S
C2693 H2705 0.930 . S
C2694 C2690 1.524 . S
C2694 H2706 0.956 . S
C2694 H2707 0.961 . S
C2694 H2708 0.961 . S
C2695 C2692 1.539 . S
C2695 H2709 0.958 . S
C2695 H2710 0.961 . S
C2695 H2711 0.960 . S
H2696 C2680 0.931 . S
H2697 C2685 0.929 . S
H2698 C2686 0.960 . S
H2699 C2686 0.962 . S
H2700 C2686 0.960 . S
H2701 C2687 0.961 . S
H2702 C2687 0.961 . S
H2703 C2687 0.961 . S
H2704 C2688 0.931 . S
H2705 C2693 0.930 . S
H2706 C2694 0.956 . S
H2707 C2694 0.961 . S
H2708 C2694 0.961 . S
H2709 C2695 0.958 . S
H2710 C2695 0.961 . S
H2711 C2695 0.960 . S
C793 N431 1.618 . S
C801 C18 1.555 . S
C825 C51 1.538 . S
C833 N464 1.601 . S
C857 C84 1.570 . S
C865 N497 1.606 . S
C889 N398 1.595 . S
C897 C117 1.553 . S
C921 N365 1.617 . S
C929 C150 1.557 . S
C953 N266 1.581 . S
C961 C183 1.575 . S
C985 C216 1.527 . S
C993 N299 1.609 . S
C1017 N332 1.615 . S
C1025 C249 1.560 . S
C1049 C282 1.573 . S
C1057 N35 1.594 . S
C1081 C315 1.561 . S
C1089 N68 1.595 . S
C1113 C348 1.557 . S
C1121 N101 1.596 . S
C1145 N2 1.585 . S
C1153 C381 1.560 . S
C1177 N233 1.596 . S
C1185 C414 1.573 . S
C1209 C447 1.589 . S
C1217 N134 1.596 . S
C1241 C480 1.533 . S
C1249 N167 1.611 . S
C1273 N200 1.606 . S
C1281 C513 1.549 . S
C1305 N728 1.616 . S
C1313 C546 1.549 . S
C1337 C579 1.589 . S
C1345 N596 1.596 . S
C1369 C612 1.573 . S
C1377 N629 1.605 . S
C1401 N662 1.618 . S
C1409 C645 1.555 . S
C1433 C678 1.556 . S
C1441 N563 1.596 . S
C1465 N761 1.578 . S
C1473 C711 1.572 . S
C1497 C744 1.569 . S
C1505 N695 1.594 . S
C1529 N530 1.611 . S
C1537 C777 1.549 . S
C1561 N541 0.917 . S
C1569 C7 0.979 . S
C1593 N772 0.931 . S
C1601 C40 0.982 . S
C1625 C73 0.928 . S
C1633 N706 0.933 . S
C1657 N739 0.939 . S
C1665 C106 0.948 1_455 S
C1689 N574 1.000 . S
C1697 C139 0.962 . S
C1721 N607 0.986 . S
C1729 C172 0.980 . S
C1753 N640 0.896 . S
C1761 C205 0.956 . S
C1785 C238 0.979 1_655 S
C1793 N673 0.972 . S
C1817 C271 0.958 . S
C1825 N13 0.971 . S
C1849 C304 0.975 1_554 S
C1857 N46 0.972 . S
C1881 C337 0.954 . S
C1889 N79 0.925 . S
C1913 C370 0.954 . S
C1921 N112 0.925 . S
C1945 C403 0.958 . S
C1953 N145 0.925 . S
C1977 N178 0.935 . S
C1985 C436 0.982 . S
C2009 N211 0.906 . S
C2017 C469 0.952 . S
C2041 C502 0.925 1_556 S
C2049 N244 0.936 . S
C2073 N277 0.988 . S
C2081 C535 0.980 . S
C2105 N409 0.922 . S
C2113 C568 0.980 . S
C2137 N442 0.889 . S
C2145 C601 0.963 1_545 S
C2169 N475 0.980 . S
C2177 C634 0.982 . S
C2201 C667 0.947 1_565 S
C2209 N508 0.926 . S
C2233 C700 0.928 . S
C2241 N343 0.933 . S
C2265 C733 0.945 . S
C2273 N376 0.926 . S
C2297 N310 1.003 . S
C2305 C766 0.970 . S
C2329 C681 1.235 . S
C2337 C21 1.190 . S
C2361 C54 1.197 . S
C2369 C582 1.188 . S
C2393 C615 1.226 . S
C2401 C87 1.187 . S
C2425 C120 1.196 . S
C2433 C648 1.188 . S
C2457 C780 1.235 . S
C2465 C153 1.191 . S
C2489 C714 1.202 . S
C2497 C186 1.217 . S
C2521 C219 1.162 . S
C2529 C747 1.213 . S
C2553 C549 1.190 . S
C2561 C252 1.218 . S
C2585 C516 1.162 . S
C2593 C285 1.213 . S
C2617 C417 1.222 . S
C2625 C318 1.186 . S
C2649 C450 1.170 . S
C2657 C351 1.197 . S
C2681 C483 1.168 . S
C2689 C384 1.198 . S
