# Generated by pormake.
# Topology acs-a, (4)-cn, num edge types: 1
# Building blocks:
#     Node 0, Type 0, BuildingBlock: NAHDIM_clean_sbu_0, # of connection points: 4
#     Node 1, Type 0, BuildingBlock: NAHDIM_clean_sbu_0, # of connection points: 4
#     Node 2, Type 0, BuildingBlock: NAHDIM_clean_sbu_0, # of connection points: 4
#     Node 3, Type 0, BuildingBlock: NAHDIM_clean_sbu_0, # of connection points: 4
#     Node 4, Type 0, BuildingBlock: NAHDIM_clean_sbu_0, # of connection points: 4
#     Node 5, Type 0, BuildingBlock: NAHDIM_clean_sbu_0, # of connection points: 4
#     Node 6, Type 0, BuildingBlock: NAHDIM_clean_sbu_0, # of connection points: 4
#     Node 7, Type 0, BuildingBlock: NAHDIM_clean_sbu_0, # of connection points: 4
#     Node 8, Type 0, BuildingBlock: NAHDIM_clean_sbu_0, # of connection points: 4
#     Node 9, Type 0, BuildingBlock: NAHDIM_clean_sbu_0, # of connection points: 4
#     Node 10, Type 0, BuildingBlock: NAHDIM_clean_sbu_0, # of connection points: 4
#     Node 11, Type 0, BuildingBlock: NAHDIM_clean_sbu_0, # of connection points: 4
#     Edge 12, Type (0, 0), BuildingBlock: EZIPEK_clean_linker_0, # of connection points: 2
#     Edge 13, Type (0, 0), BuildingBlock: EZIPEK_clean_linker_0, # of connection points: 2
#     Edge 14, Type (0, 0), BuildingBlock: EZIPEK_clean_linker_0, # of connection points: 2
#     Edge 15, Type (0, 0), BuildingBlock: EZIPEK_clean_linker_0, # of connection points: 2
#     Edge 16, Type (0, 0), BuildingBlock: EZIPEK_clean_linker_0, # of connection points: 2
#     Edge 17, Type (0, 0), BuildingBlock: EZIPEK_clean_linker_0, # of connection points: 2
#     Edge 18, Type (0, 0), BuildingBlock: EZIPEK_clean_linker_0, # of connection points: 2
#     Edge 19, Type (0, 0), BuildingBlock: EZIPEK_clean_linker_0, # of connection points: 2
#     Edge 20, Type (0, 0), BuildingBlock: EZIPEK_clean_linker_0, # of connection points: 2
#     Edge 21, Type (0, 0), BuildingBlock: EZIPEK_clean_linker_0, # of connection points: 2
#     Edge 22, Type (0, 0), BuildingBlock: EZIPEK_clean_linker_0, # of connection points: 2
#     Edge 23, Type (0, 0), BuildingBlock: EZIPEK_clean_linker_0, # of connection points: 2
#     Edge 24, Type (0, 0), BuildingBlock: EZIPEK_clean_linker_0, # of connection points: 2
#     Edge 25, Type (0, 0), BuildingBlock: EZIPEK_clean_linker_0, # of connection points: 2
#     Edge 26, Type (0, 0), BuildingBlock: EZIPEK_clean_linker_0, # of connection points: 2
#     Edge 27, Type (0, 0), BuildingBlock: EZIPEK_clean_linker_0, # of connection points: 2
#     Edge 28, Type (0, 0), BuildingBlock: EZIPEK_clean_linker_0, # of connection points: 2
#     Edge 29, Type (0, 0), BuildingBlock: EZIPEK_clean_linker_0, # of connection points: 2
#     Edge 30, Type (0, 0), BuildingBlock: EZIPEK_clean_linker_0, # of connection points: 2
#     Edge 31, Type (0, 0), BuildingBlock: EZIPEK_clean_linker_0, # of connection points: 2
#     Edge 32, Type (0, 0), BuildingBlock: EZIPEK_clean_linker_0, # of connection points: 2
#     Edge 33, Type (0, 0), BuildingBlock: EZIPEK_clean_linker_0, # of connection points: 2
#     Edge 34, Type (0, 0), BuildingBlock: EZIPEK_clean_linker_0, # of connection points: 2
#     Edge 35, Type (0, 0), BuildingBlock: EZIPEK_clean_linker_0, # of connection points: 2
# Relax obj value: 0.409
# Max RMSD: 0.210
# Mean RMSD: 0.204
data_MOF--net-acs-a--node1-NAHDIM_clean_sbu_0--edge1-EZIPEK_clean_linker_0
_symmetry_space_group_name_H-M    P1
_symmetry_Int_Tables_number       1
_symmetry_cell_setting            triclinic
loop_
_symmetry_equiv_pos_as_xyz
'x, y, z'
_cell_length_a     35.520397
_cell_length_b     35.394401
_cell_length_c     31.604109
_cell_angle_alpha  89.988094
_cell_angle_beta   89.771395
_cell_angle_gamma 114.19757
loop_
_atom_site_label
_atom_site_type_symbol
_atom_site_fract_x
_atom_site_fract_y
_atom_site_fract_z
_atom_type_partial_charge
C0 C 0.49404 0.04345 0.0839 0.0
O1 O 0.49463 0.06098 0.12062 0.0
O2 O 0.55658 0.15958 0.05366 0.0
Zn3 Zn 0.57121 0.1128 0.07173 0.0
O4 O 0.58295 0.11539 0.13393 0.0
C5 C 0.64952 0.15544 0.03582 0.0
O6 O 0.63898 0.18602 0.04466 0.0
O7 O 0.52401 0.05935 0.05815 0.0
C8 C 0.60208 0.14974 0.1525 0.0
O9 O 0.61275 0.18461 0.13145 0.0
C10 C 0.52739 0.16725 0.06897 0.0
O11 O 0.50648 0.1447 0.10105 0.0
O12 O 0.62376 0.11839 0.04222 0.0
C13 C 0.41097 0.48746 0.54638 0.0
O14 O 0.38269 0.47205 0.57599 0.0
O15 O 0.34289 0.54392 0.55552 0.0
Zn16 Zn 0.40255 0.56018 0.56944 0.0
O17 O 0.40961 0.5553 0.63161 0.0
C18 C 0.41635 0.64104 0.57771 0.0
O19 O 0.38703 0.62163 0.60533 0.0
O20 O 0.42477 0.52567 0.53718 0.0
C21 C 0.44284 0.55696 0.64791 0.0
O22 O 0.47323 0.55795 0.62346 0.0
C23 C 0.31365 0.52574 0.58152 0.0
O24 O 0.32308 0.51593 0.61885 0.0
O25 O 0.43143 0.6205 0.55578 0.0
C26 C 0.91989 0.37372 0.02498 0.0
O27 O 0.92298 0.34966 0.05518 0.0
O28 O 0.8004 0.29167 0.03683 0.0
Zn29 Zn 0.83666 0.34904 0.05536 0.0
O30 O 0.85268 0.34882 0.11637 0.0
C31 C 0.76972 0.37148 0.07239 0.0
O32 O 0.75623 0.33675 0.09407 0.0
O33 O 0.88587 0.37638 0.01866 0.0
C34 C 0.85921 0.38153 0.13733 0.0
O35 O 0.86062 0.41457 0.11723 0.0
C36 C 0.80976 0.26195 0.02644 0.0
O37 O 0.84844 0.26682 0.02563 0.0
O38 O 0.80339 0.38297 0.05191 0.0
C39 C 0.49023 0.93681 0.56326 0.0
O40 O 0.49472 0.91585 0.59571 0.0
O41 O 0.42924 0.83123 0.56268 0.0
Zn42 Zn 0.41031 0.87722 0.57304 0.0
O43 O 0.40667 0.88748 0.63572 0.0
C44 C 0.33034 0.82444 0.54454 0.0
O45 O 0.34274 0.79726 0.56027 0.0
O46 O 0.4547 0.92703 0.54729 0.0
C47 C 0.37524 0.86533 0.65761 0.0
O48 O 0.34367 0.83613 0.63917 0.0
C49 C 0.42279 0.80187 0.58865 0.0
O50 O 0.40519 0.80195 0.6252 0.0
O51 O 0.35451 0.86269 0.54512 0.0
C52 C 0.56627 0.49283 0.05301 0.0
O53 O 0.59538 0.50768 0.08162 0.0
O54 O 0.62901 0.43194 0.06225 0.0
Zn55 Zn 0.56979 0.4175 0.07691 0.0
O56 O 0.56404 0.4225 0.1393 0.0
C57 C 0.55419 0.33452 0.07793 0.0
O58 O 0.58603 0.35051 0.10327 0.0
O59 O 0.55004 0.45429 0.04529 0.0
C60 C 0.53122 0.41858 0.15855 0.0
O61 O 0.49738 0.41154 0.13716 0.0
C62 C 0.65776 0.4462 0.08927 0.0
O63 O 0.64797 0.45308 0.12772 0.0
O64 O 0.53925 0.35791 0.06107 0.0
C65 C 0.05738 0.60965 0.53146 0.0
O66 O 0.05451 0.63614 0.55901 0.0
O67 O 0.17628 0.68307 0.55344 0.0
Zn68 Zn 0.13581 0.62633 0.57087 0.0
O69 O 0.11537 0.62825 0.62973 0.0
C70 C 0.201 0.59783 0.55854 0.0
O71 O 0.22038 0.6336 0.5394 0.0
O72 O 0.08937 0.60222 0.53038 0.0
C73 C 0.10023 0.59453 0.65049 0.0
O74 O 0.09478 0.55961 0.63164 0.0
C75 C 0.17012 0.71108 0.53331 0.0
O76 O 0.13304 0.70473 0.52006 0.0
O77 O 0.1648 0.58803 0.57295 0.0
C78 C 0.93097 0.4988 0.42329 0.0
O79 O 0.91454 0.50968 0.39095 0.0
O80 O 0.82194 0.43668 0.4119 0.0
Zn81 Zn 0.86875 0.41882 0.40482 0.0
O82 O 0.88101 0.41376 0.34337 0.0
C83 C 0.81478 0.3391 0.435 0.0
O84 O 0.78705 0.35224 0.4225 0.0
O85 O 0.91745 0.46099 0.43426 0.0
C86 C 0.85074 0.39682 0.31846 0.0
O87 O 0.81297 0.38365 0.33353 0.0
C88 C 0.81351 0.4606 0.38735 0.0
O89 O 0.83537 0.47351 0.35259 0.0
O90 O 0.8529 0.36274 0.4319 0.0
C91 C 0.37569 0.90066 0.00457 0.0
O92 O 0.34866 0.86493 0.0188 0.0
O93 O 0.30784 0.81671 0.93662 0.0
Zn94 Zn 0.36636 0.85686 0.92658 0.0
O95 O 0.37635 0.87488 0.86565 0.0
C96 C 0.38944 0.79028 0.92075 0.0
O97 O 0.35805 0.77767 0.89464 0.0
O98 O 0.38547 0.90501 0.96566 0.0
C99 C 0.34972 0.85654 0.83746 0.0
O100 O 0.31389 0.82739 0.84835 0.0
C101 C 0.27498 0.8215 0.94417 0.0
O102 O 0.27571 0.85874 0.94796 0.0
O103 O 0.40015 0.82494 0.93915 0.0
C104 C 0.48892 0.39904 0.45459 0.0
O105 O 0.47049 0.36737 0.42932 0.0
O106 O 0.55149 0.33561 0.44315 0.0
Zn107 Zn 0.5595 0.39192 0.4218 0.0
O108 O 0.54037 0.38881 0.36169 0.0
C109 C 0.64377 0.41592 0.40321 0.0
O110 O 0.62779 0.38095 0.38229 0.0
O111 O 0.52795 0.41501 0.45754 0.0
C112 C 0.55278 0.42136 0.3391 0.0
O113 O 0.57652 0.45715 0.35589 0.0
C114 C 0.54834 0.30741 0.41679 0.0
O115 O 0.54579 0.31393 0.37622 0.0
O116 O 0.62028 0.42855 0.42361 0.0
C117 C 0.05278 0.49434 0.92916 0.0
O118 O 0.07318 0.48464 0.89946 0.0
O119 O 0.16123 0.5573 0.92815 0.0
Zn120 Zn 0.11512 0.57395 0.91352 0.0
O121 O 0.11015 0.57588 0.8504 0.0
C122 C 0.16331 0.65744 0.92153 0.0
O123 O 0.18405 0.64543 0.89416 0.0
O124 O 0.06387 0.53197 0.93982 0.0
C125 C 0.08314 0.58492 0.83213 0.0
O126 O 0.05604 0.59271 0.85472 0.0
C127 C 0.17165 0.5343 0.90434 0.0
O128 O 0.15439 0.52485 0.8669 0.0
O129 O 0.12965 0.63105 0.93667 0.0
C130 C 0.62303 0.06364 0.47422 0.0
O131 O 0.66297 0.07825 0.48076 0.0
O132 O 0.70019 0.15901 0.42784 0.0
Zn133 Zn 0.64024 0.13094 0.41306 0.0
O134 O 0.63281 0.12022 0.35091 0.0
C135 C 0.58026 0.16342 0.43908 0.0
O136 O 0.55655 0.12541 0.45078 0.0
O137 O 0.6085 0.08017 0.44688 0.0
C138 C 0.64833 0.15219 0.32755 0.0
O139 O 0.67059 0.18826 0.34471 0.0
C140 C 0.70942 0.17762 0.46318 0.0
O141 O 0.67897 0.17321 0.48921 0.0
O142 O 0.61611 0.17196 0.42429 0.0
C143 C 0.49292 0.57963 0.9534 0.0
O144 O 0.51056 0.60851 0.92477 0.0
O145 O 0.42666 0.63484 0.91718 0.0
Zn146 Zn 0.41923 0.57566 0.91432 0.0
O147 O 0.43159 0.5613 0.85578 0.0
C148 C 0.33541 0.55151 0.90209 0.0
O149 O 0.35116 0.57736 0.87049 0.0
O150 O 0.45387 0.5622 0.95606 0.0
C151 C 0.43891 0.58699 0.82553 0.0
O152 O 0.44068 0.62418 0.83291 0.0
C153 C 0.44054 0.6593 0.94818 0.0
O154 O 0.45582 0.64813 0.9812 0.0
O155 O 0.35918 0.54313 0.92662 0.0
C156 C 0.66677 0.1587 0.25061 0.0
C157 C 0.63636 0.15029 0.28267 0.0
C158 C 0.58306 0.13903 0.22918 0.0
C159 C 0.61393 0.15025 0.19727 0.0
N160 N 0.68557 0.17456 0.17673 0.0
N161 N 0.56735 0.13979 0.30377 0.0
C162 C 0.65599 0.16137 0.20775 0.0
C163 C 0.59489 0.14218 0.27235 0.0
N164 N 0.70553 0.16261 0.2611 0.0
N165 N 0.54239 0.12538 0.21822 0.0
H166 H 0.57481 0.14242 0.33582 0.0
H167 H 0.53808 0.13874 0.29815 0.0
H168 H 0.53258 0.12516 0.18712 0.0
H169 H 0.51814 0.11184 0.23957 0.0
H170 H 0.72803 0.16445 0.23902 0.0
H171 H 0.71441 0.16083 0.29221 0.0
H172 H 0.71713 0.18763 0.18271 0.0
H173 H 0.67873 0.17476 0.14471 0.0
C174 C 0.41624 0.53062 0.7198 0.0
C175 C 0.44727 0.56027 0.6944 0.0
C176 C 0.47882 0.6002 0.75785 0.0
C177 C 0.44361 0.57486 0.78169 0.0
N178 N 0.37588 0.51818 0.78403 0.0
N179 N 0.50633 0.62619 0.68861 0.0
C180 C 0.41171 0.54024 0.76256 0.0
C181 C 0.47853 0.59562 0.71322 0.0
N182 N 0.39126 0.49313 0.70301 0.0
N183 N 0.51277 0.62824 0.77797 0.0
H184 H 0.50725 0.62467 0.65574 0.0
H185 H 0.52635 0.65478 0.70058 0.0
H186 H 0.51426 0.63178 0.81078 0.0
H187 H 0.54078 0.64476 0.76264 0.0
H188 H 0.37058 0.46878 0.72107 0.0
H189 H 0.39437 0.48494 0.67188 0.0
H190 H 0.34991 0.49578 0.7698 0.0
H191 H 0.37053 0.52465 0.81502 0.0
C192 C 0.8908 0.41733 0.20473 0.0
C193 C 0.86123 0.38201 0.18428 0.0
C194 C 0.83369 0.35249 0.25361 0.0
C195 C 0.85738 0.39111 0.27294 0.0
N196 N 0.90437 0.46322 0.26467 0.0
N197 N 0.79882 0.31856 0.19021 0.0
C198 C 0.88519 0.42434 0.24806 0.0
C199 C 0.83128 0.34998 0.20888 0.0
N200 N 0.92465 0.44386 0.18299 0.0
N201 N 0.81409 0.31789 0.27786 0.0
H202 H 0.7939 0.31592 0.15774 0.0
H203 H 0.77415 0.2973 0.20746 0.0
H204 H 0.81647 0.31806 0.31073 0.0
H205 H 0.79956 0.28829 0.26501 0.0
H206 H 0.94894 0.46808 0.19749 0.0
H207 H 0.93061 0.43876 0.15164 0.0
H208 H 0.92156 0.48909 0.24632 0.0
H209 H 0.89979 0.47064 0.29559 0.0
C210 C 0.39207 0.85491 0.77442 0.0
C211 C 0.36038 0.86473 0.79214 0.0
C212 C 0.34206 0.88038 0.72162 0.0
C213 C 0.37399 0.87089 0.70394 0.0
N214 N 0.43546 0.85848 0.71401 0.0
N215 N 0.31094 0.89471 0.78475 0.0
C216 C 0.40119 0.86155 0.73054 0.0
C217 C 0.33704 0.87984 0.76632 0.0
N218 N 0.41153 0.83649 0.79887 0.0
N219 N 0.31629 0.8895 0.69552 0.0
H220 H 0.30687 0.895 0.81745 0.0
H221 H 0.29591 0.90986 0.76821 0.0
H222 H 0.32129 0.89388 0.66299 0.0
H223 H 0.28915 0.89125 0.70569 0.0
H224 H 0.43098 0.82373 0.78668 0.0
H225 H 0.40569 0.83062 0.83106 0.0
H226 H 0.45878 0.85654 0.73256 0.0
H227 H 0.44277 0.86145 0.68193 0.0
C228 C 0.52563 0.44387 0.27497 0.0
C229 C 0.54354 0.41849 0.29328 0.0
C230 C 0.54191 0.38625 0.22452 0.0
C231 C 0.53047 0.41604 0.2052 0.0
N232 N 0.51465 0.47591 0.21109 0.0
N233 N 0.57609 0.37091 0.28347 0.0
C234 C 0.52282 0.44545 0.23015 0.0
C235 C 0.55341 0.39085 0.26762 0.0
N236 N 0.51025 0.4655 0.30036 0.0
N237 N 0.54109 0.35305 0.20181 0.0
H238 H 0.58715 0.37488 0.31429 0.0
H239 H 0.58775 0.35394 0.26471 0.0
H240 H 0.53158 0.34806 0.17035 0.0
H241 H 0.54534 0.32828 0.21545 0.0
H242 H 0.4932 0.48122 0.28894 0.0
H243 H 0.51114 0.46453 0.33331 0.0
H244 H 0.51359 0.50103 0.22741 0.0
H245 H 0.5118 0.4777 0.17842 0.0
C246 C 0.12803 0.61896 0.72299 0.0
C247 C 0.09424 0.59499 0.69683 0.0
C248 C 0.05213 0.56433 0.75981 0.0
C249 C 0.08512 0.59035 0.78566 0.0
N250 N 0.14994 0.65002 0.79167 0.0
N251 N 0.02172 0.55125 0.68982 0.0
C252 C 0.12167 0.62005 0.76715 0.0
C253 C 0.05549 0.56956 0.71511 0.0
N254 N 0.16682 0.63873 0.70625 0.0
N255 N 0.01848 0.53344 0.77775 0.0
H256 H 0.02304 0.5548 0.65702 0.0
H257 H -0.00816 0.53577 0.70156 0.0
H258 H 0.01489 0.52867 0.81035 0.0
H259 H -0.00435 0.51057 0.76024 0.0
H260 H 0.19311 0.65262 0.7248 0.0
H261 H 0.1736 0.63784 0.67427 0.0
H262 H 0.17513 0.675 0.77921 0.0
H263 H 0.14579 0.65238 0.82406 0.0
C264 C 0.4241 0.00776 0.05249 0.0
C265 C 0.45871 0.0051 0.07214 0.0
C266 C 0.43065 0.93049 0.05903 0.0
C267 C 0.39939 0.93438 0.03384 0.0
N268 N 0.36427 0.97493 0.00732 0.0
N269 N 0.49558 0.96534 0.09614 0.0
C270 C 0.39518 0.97246 0.03127 0.0
C271 C 0.46181 0.96668 0.07663 0.0
N272 N 0.41918 0.04409 0.05411 0.0
N273 N 0.43093 0.89237 0.06542 0.0
H274 H 0.51784 -0.00905 0.11119 0.0
H275 H 0.50271 0.93962 0.09611 0.0
H276 H 0.4099 0.86536 0.05146 0.0
H277 H 0.45021 0.88671 0.0868 0.0
H278 H 0.39301 0.04744 0.04357 0.0
H279 H 0.44028 0.0706 0.06895 0.0
H280 H 0.36203 0.00254 -0.00023 0.0
H281 H 0.34117 0.94899 0.99361 0.0
C282 C 0.44988 0.4424 0.54572 0.0
C283 C 0.42687 0.4607 0.52366 0.0
C284 C 0.44324 0.43719 0.45607 0.0
C285 C 0.46481 0.41741 0.47825 0.0
N286 N 0.48125 0.39316 0.54396 0.0
N287 N 0.39349 0.46773 0.45971 0.0
C288 C 0.46583 0.41754 0.52308 0.0
C289 C 0.42103 0.45568 0.47934 0.0
N290 N 0.45827 0.45046 0.58778 0.0
N291 N 0.44571 0.44021 0.41291 0.0
H292 H 0.37633 0.48103 0.47594 0.0
H293 H 0.38477 0.46102 0.42823 0.0
H294 H 0.4617 0.42713 0.39455 0.0
H295 H 0.4347 0.45849 0.39545 0.0
H296 H 0.4789 0.44196 0.60433 0.0
H297 H 0.44716 0.46851 0.60561 0.0
H298 H 0.479 0.38865 0.57659 0.0
H299 H 0.49292 0.37429 0.52826 0.0
C300 C 0.98501 0.4324 0.93223 0.0
C301 C 0.0202 0.46127 0.95331 0.0
C302 C -0.00955 0.43162 0.02183 0.0
C303 C 0.95641 0.40109 0.00065 0.0
N304 N 0.92553 0.36652 0.93585 0.0
N305 N 0.06155 0.4811 0.01666 0.0
C306 C 0.95504 0.39964 0.95581 0.0
C307 C 0.02452 0.45869 -0.00231 0.0
N308 N 0.97921 0.43736 0.8902 0.0
N309 N -0.01059 0.43651 0.06468 0.0
H310 H 0.08773 0.50047 -0.0001 0.0
H311 H 0.06747 0.47713 0.04824 0.0
H312 H 0.96473 0.41808 0.08379 0.0
H313 H 0.01142 0.4614 0.08081 0.0
H314 H 0.95198 0.41986 0.8743 0.0
H315 H 0.00017 0.46137 0.87193 0.0
H316 H 0.92537 0.36177 0.90332 0.0
H317 H 0.9035 0.34163 0.95229 0.0
C318 C 0.57122 0.99048 0.47955 0.0
C319 C 0.59389 0.02898 0.49958 0.0
C320 C 0.54945 0.00651 0.56235 0.0
C321 C 0.52697 0.96798 0.54234 0.0
N322 N 0.52126 0.91929 0.48674 0.0
N323 N 0.60989 0.07193 0.56194 0.0
C324 C 0.53927 0.95877 0.5023 0.0
C325 C 0.58486 0.03631 0.54179 0.0
N326 N 0.57978 0.98464 0.43845 0.0
N327 N 0.53566 0.01531 0.6 0.0
H328 H 0.63511 0.0952 0.54731 0.0
H329 H 0.60764 0.07732 0.59401 0.0
H330 H 0.51004 -0.00596 0.6161 0.0
H331 H 0.54771 0.0444 0.61409 0.0
H332 H 0.56107 0.95954 0.42018 0.0
H333 H 0.60481 0.0061 0.42174 0.0
H334 H 0.53169 0.90944 0.45988 0.0
H335 H 0.49785 0.89516 0.50267 0.0
C336 C 0.53873 0.54177 0.9589 0.0
C337 C 0.51765 0.56339 0.97898 0.0
C338 C 0.53138 0.54144 0.04857 0.0
C339 C 0.55325 0.52072 0.02846 0.0
N340 N 0.58701 0.50979 0.96633 0.0
N341 N 0.50197 0.59203 0.04235 0.0
C342 C 0.55991 0.5237 0.98414 0.0
C343 C 0.51655 0.56583 0.02372 0.0
N344 N 0.53647 0.53625 0.916 0.0
N345 N 0.52294 0.53613 0.09095 0.0
H346 H 0.49133 0.61061 0.02488 0.0
H347 H 0.50404 0.5983 0.07465 0.0
H348 H 0.53365 0.51883 0.11032 0.0
H349 H 0.50294 0.54637 0.10642 0.0
H350 H 0.54708 0.51659 0.90036 0.0
H351 H 0.521 0.54858 0.89612 0.0
H352 H 0.59634 0.5149 0.93478 0.0
H353 H 0.60331 0.49666 0.98408 0.0
C354 C 0.00055 0.55722 0.43263 0.0
C355 C 0.96176 0.53073 0.44987 0.0
C356 C 0.98444 0.55829 0.52071 0.0
C357 C 0.02272 0.58595 0.50328 0.0
N358 N 0.06383 0.61875 0.44207 0.0
N359 N 0.91277 0.51392 0.50752 0.0
C360 C 0.02968 0.58762 0.45896 0.0
C361 C 0.95244 0.53372 0.49309 0.0
N362 N 0.01034 0.55203 0.39179 0.0
N363 N 0.97932 0.55357 0.56358 0.0
H364 H 0.88826 0.49621 0.488 0.0
H365 H 0.90347 0.51845 0.53769 0.0
H366 H 0.00201 0.57057 0.5852 0.0
H367 H 0.95381 0.53025 0.57772 0.0
H368 H 0.03982 0.56729 0.379 0.0
H369 H -0.01012 0.52995 0.37152 0.0
H370 H 0.06863 0.62401 0.40967 0.0
H371 H 0.08549 0.64184 0.46053 0.0
C372 C 0.49431 0.21789 0.07819 0.0
C373 C 0.52368 0.20667 0.05748 0.0
C374 C 0.56415 0.27884 0.03759 0.0
C375 C 0.53962 0.29073 0.06552 0.0
N376 N 0.47939 0.27277 0.10988 0.0
N377 N 0.56981 0.22309 -0.00249 0.0
C378 C 0.50351 0.26057 0.08437 0.0
C379 C 0.55366 0.23611 0.03086 0.0
N380 N 0.45682 0.18781 0.08929 0.0
N381 N 0.59827 0.30832 0.01873 0.0
H382 H 0.55837 0.19202 0.98859 0.0
H383 H 0.5899 0.24308 0.9753 0.0
H384 H 0.60571 0.33999 0.02114 0.0
H385 H 0.62032 0.30147 0.00259 0.0
H386 H 0.4328 0.19385 0.10205 0.0
H387 H 0.44799 0.15695 0.08044 0.0
H388 H 0.45563 0.25249 0.12878 0.0
H389 H 0.48442 0.30376 0.11359 0.0
C390 C 0.2627 0.53509 0.53197 0.0
C391 C 0.27256 0.5267 0.57342 0.0
C392 C 0.22716 0.55561 0.60417 0.0
C393 C 0.22144 0.56911 0.56331 0.0
N394 N 0.22275 0.56132 0.48764 0.0
N395 N 0.2444 0.50624 0.6434 0.0
C396 C 0.23571 0.55544 0.52681 0.0
C397 C 0.2484 0.52954 0.60791 0.0
N398 N 0.27914 0.52327 0.49799 0.0
N399 N 0.21472 0.5695 0.63964 0.0
H400 H 0.2555 0.48318 0.64472 0.0
H401 H 0.22488 0.5053 0.66847 0.0
H402 H 0.19998 0.58957 0.6388 0.0
H403 H 0.22236 0.56391 0.67012 0.0
H404 H 0.27749 0.53208 0.4669 0.0
H405 H 0.29434 0.50368 0.50134 0.0
H406 H 0.2301 0.55045 0.45962 0.0
H407 H 0.20194 0.5749 0.48328 0.0
C408 C 0.76196 0.19213 0.05245 0.0
C409 C 0.77555 0.22128 0.01892 0.0
C410 C 0.70759 0.19066 0.98609 0.0
C411 C 0.69258 0.16583 0.02267 0.0
N412 N 0.70656 0.13135 0.08233 0.0
N413 N 0.767 0.24028 0.94798 0.0
C414 C 0.72036 0.16225 0.05278 0.0
C415 C 0.75019 0.21734 0.9834 0.0
N416 N 0.78782 0.19532 0.08545 0.0
N417 N 0.68039 0.19015 0.95543 0.0
H418 H 0.79839 0.25976 0.94604 0.0
H419 H 0.75107 0.23777 0.91984 0.0
H420 H 0.64942 0.16923 0.95632 0.0
H421 H 0.68801 0.21041 0.9298 0.0
H422 H 0.77846 0.17869 0.11355 0.0
H423 H 0.81883 0.21598 0.08516 0.0
H424 H 0.72575 0.1253 0.10352 0.0
H425 H 0.6762 0.1092 0.08307 0.0
C426 C 0.41537 0.74143 0.54157 0.0
C427 C 0.43284 0.76632 0.57781 0.0
C428 C 0.45076 0.71205 0.60753 0.0
C429 C 0.43065 0.68621 0.57306 0.0
N430 N 0.40503 0.67927 0.50181 0.0
N431 N 0.47893 0.78136 0.63713 0.0
C432 C 0.41708 0.70213 0.53803 0.0
C433 C 0.45453 0.75353 0.60811 0.0
N434 N 0.39449 0.75364 0.51215 0.0
N435 N 0.46483 0.69631 0.64036 0.0
H436 H 0.48291 0.81227 0.63735 0.0
H437 H 0.49818 0.7751 0.6581 0.0
H438 H 0.46456 0.66673 0.63955 0.0
H439 H 0.47519 0.71173 0.66887 0.0
H440 H 0.37575 0.73408 0.48901 0.0
H441 H 0.39416 0.78284 0.51149 0.0
H442 H 0.39879 0.69076 0.47361 0.0
H443 H 0.40489 0.6499 0.4987 0.0
C444 C 0.72394 0.44396 0.11476 0.0
C445 C 0.6977 0.44279 0.08079 0.0
C446 C 0.72781 0.40481 0.0376 0.0
C447 C 0.74751 0.39866 0.07433 0.0
N448 N 0.76578 0.41305 0.14804 0.0
N449 N 0.69204 0.44286 0.0051 0.0
C450 C 0.74643 0.41885 0.1129 0.0
C451 C 0.70505 0.42964 0.04049 0.0
N452 N 0.72948 0.47122 0.14716 0.0
N453 N 0.72857 0.3848 0.00081 0.0
H454 H 0.67877 0.46425 0.00678 0.0
H455 H 0.69898 0.43706 0.97441 0.0
H456 H 0.7449 0.3663 -0.00258 0.0
H457 H 0.71068 0.3841 0.97456 0.0
H458 H 0.75049 0.47578 0.17157 0.0
H459 H 0.71731 0.49349 0.14618 0.0
H460 H 0.76188 0.42287 0.17815 0.0
H461 H 0.78381 0.3961 0.14771 0.0
C462 C 0.21505 0.78472 0.5498 0.0
C463 C 0.20618 0.74983 0.5234 0.0
C464 C 0.27667 0.77981 0.4956 0.0
C465 C 0.28761 0.80913 0.52874 0.0
N466 N 0.26792 0.84424 0.58404 0.0
N467 N 0.22535 0.71587 0.46675 0.0
C468 C 0.25677 0.81388 0.55403 0.0
C469 C 0.23589 0.74844 0.49416 0.0
N470 N 0.18373 0.789 0.57156 0.0
N471 N 0.30591 0.78178 0.46643 0.0
H472 H 0.19505 0.69372 0.46389 0.0
H473 H 0.24634 0.71016 0.44763 0.0
H474 H 0.33583 0.80505 0.46731 0.0
H475 H 0.30001 0.76293 0.43985 0.0
H476 H 0.1873 0.81499 0.5893 0.0
H477 H 0.15311 0.7676 0.56902 0.0
H478 H 0.24805 0.8465 0.6072 0.0
H479 H 0.29786 0.86711 0.58627 0.0
C480 C 0.75242 0.4736 0.36092 0.0
C481 C 0.77466 0.46652 0.3949 0.0
C482 C 0.71242 0.4414 0.43908 0.0
C483 C 0.68889 0.43993 0.40247 0.0
N484 N 0.68546 0.45718 0.32918 0.0
N485 N 0.78054 0.4657 0.47051 0.0
C486 C 0.70866 0.45737 0.36366 0.0
C487 C 0.75605 0.45739 0.43551 0.0
N488 N 0.77308 0.49816 0.32775 0.0
N489 N 0.69303 0.42476 0.47636 0.0
H490 H 0.81267 0.48031 0.46826 0.0
H491 H 0.7694 0.46286 0.5014 0.0
H492 H 0.66115 0.41342 0.48047 0.0
H493 H 0.70825 0.42004 0.50257 0.0
H494 H 0.75859 0.50637 0.30307 0.0
H495 H 0.80487 0.51555 0.32817 0.0
H496 H 0.69745 0.46426 0.29865 0.0
H497 H 0.65358 0.44806 0.33083 0.0
C498 C 0.20786 0.77306 0.9127 0.0
C499 C 0.23612 0.78382 0.94684 0.0
C500 C 0.2073 0.71199 0.97164 0.0
C501 C 0.18108 0.70083 0.93592 0.0
N502 N 0.14675 0.72062 0.88046 0.0
N503 N 0.25469 0.76746 0.01526 0.0
C504 C 0.17801 0.73153 0.90923 0.0
C505 C 0.23286 0.75445 0.97866 0.0
N506 N 0.21148 0.80165 0.8821 0.0
N507 N 0.2094 0.68183 -0.00269 0.0
H508 H 0.27307 0.79867 0.021 0.0
H509 H 0.25161 0.7483 0.04122 0.0
H510 H 0.18989 0.65056 0.99382 0.0
H511 H 0.23153 0.68744 0.02076 0.0
H512 H 0.19528 0.79438 0.85374 0.0
H513 H 0.23232 0.83257 0.88416 0.0
H514 H 0.1407 0.7419 0.86209 0.0
H515 H 0.12435 0.69032 0.87803 0.0
C516 C 0.59042 0.23352 0.46361 0.0
C517 C 0.56574 0.19689 0.44171 0.0
C518 C 0.52216 0.2304 0.4159 0.0
C519 C 0.55166 0.26898 0.43063 0.0
N520 N 0.61738 0.30808 0.4646 0.0
N521 N 0.50965 0.16094 0.39359 0.0
C522 C 0.58647 0.27084 0.45409 0.0
C523 C 0.53153 0.1951 0.41742 0.0
N524 N 0.61766 0.23252 0.49355 0.0
N525 N 0.48507 0.22747 0.40082 0.0
H526 H 0.51545 0.13438 0.39347 0.0
H527 H 0.48775 0.16016 0.37137 0.0
H528 H 0.477 0.2527 0.40012 0.0
H529 H 0.46088 0.19938 0.39323 0.0
H530 H 0.6339 0.25746 0.51326 0.0
H531 H 0.62052 0.20525 0.50173 0.0
H532 H 0.64547 0.31085 0.47717 0.0
H533 H 0.61695 0.33657 0.45742 0.0
C534 C 0.23484 0.54598 0.94838 0.0
C535 C 0.2081 0.52508 0.91481 0.0
C536 C 0.26206 0.50739 0.88396 0.0
C537 C 0.29096 0.53659 0.91136 0.0
N538 N 0.30554 0.58345 0.9707 0.0
N539 N 0.18986 0.46773 0.86678 0.0
C540 C 0.27749 0.55515 0.94455 0.0
C541 C 0.21971 0.50005 0.8873 0.0
N542 N 0.21916 0.55457 0.98484 0.0
N543 N 0.27544 0.48792 0.85392 0.0
H544 H 0.15853 0.4592 0.87286 0.0
H545 H 0.19571 0.44647 0.84817 0.0
H546 H 0.30578 0.49059 0.85279 0.0
H547 H 0.25704 0.47032 0.82946 0.0
H548 H 0.23698 0.56737 0.0115 0.0
H549 H 0.1875 0.54303 0.99067 0.0
H550 H 0.29788 0.6019 0.9917 0.0
H551 H 0.33705 0.59049 0.96953 0.0
C552 C 0.77992 0.22293 0.43511 0.0
C553 C 0.75042 0.21335 0.4681 0.0
C554 C 0.77905 0.28573 0.49006 0.0
C555 C 0.80093 0.29636 0.45113 0.0
N556 N 0.82701 0.27589 0.38858 0.0
N557 N 0.73963 0.23071 0.5392 0.0
C558 C 0.80388 0.26517 0.42481 0.0
C559 C 0.75567 0.24327 0.49977 0.0
N560 N 0.78536 0.19154 0.41473 0.0
N561 N 0.77918 0.31626 0.51657 0.0
H562 H 0.72591 0.19939 0.54742 0.0
H563 H 0.74429 0.25072 0.5647 0.0
H564 H 0.7978 0.34753 0.51117 0.0
H565 H 0.75996 0.31081 0.54292 0.0
H566 H 0.80817 0.19614 0.39206 0.0
H567 H 0.76977 0.16076 0.42439 0.0
H568 H 0.8263 0.2547 0.36542 0.0
H569 H 0.84585 0.3065 0.38077 0.0
C570 C 0.45533 0.72925 0.91818 0.0
C571 C 0.43412 0.69793 0.94833 0.0
C572 C 0.38692 0.73069 0.96435 0.0
C573 C 0.40758 0.7614 0.93352 0.0
N574 N 0.46587 0.79588 0.88757 0.0
N575 N 0.3856 0.67283 0.00631 0.0
C576 C 0.4434 0.76267 0.9126 0.0
C577 C 0.40199 0.70015 0.97368 0.0
N578 N 0.48604 0.72619 0.89409 0.0
N579 N 0.35183 0.72976 0.98332 0.0
H580 H 0.39451 0.64892 0.0132 0.0
H581 H 0.36522 0.67545 0.02866 0.0
H582 H 0.34098 0.75276 0.97881 0.0
H583 H 0.33209 0.70525 0.00179 0.0
H584 H 0.49945 0.74495 0.86805 0.0
H585 H 0.49717 0.70349 0.89925 0.0
H586 H 0.4943 0.80069 0.87422 0.0
H587 H 0.45751 0.82057 0.88269 0.0
loop_
_geom_bond_atom_site_label_1
_geom_bond_atom_site_label_2
_geom_bond_distance
_geom_bond_site_symmetry_2
_ccdc_geom_bond_type
C0 O1 1.160 . S
C0 O7 1.185 . S
O1 C0 1.160 . S
O2 Zn3 1.899 . S
O2 C10 1.284 . S
Zn3 O2 1.899 . S
Zn3 O4 2.032 . S
Zn3 O7 2.086 . S
Zn3 O12 1.977 . S
O4 Zn3 2.032 . S
O4 C8 1.278 . S
C5 O6 1.203 . S
C5 O12 1.267 . S
O6 C5 1.203 . S
O7 C0 1.185 . S
O7 Zn3 2.086 . S
C8 O4 1.278 . S
C8 O9 1.211 . S
O9 C8 1.211 . S
C10 O2 1.284 . S
C10 O11 1.273 . S
O11 C10 1.273 . S
O12 Zn3 1.977 . S
O12 C5 1.267 . S
C13 O14 1.160 . S
C13 O20 1.185 . S
O14 C13 1.160 . S
O15 Zn16 1.899 . S
O15 C23 1.284 . S
Zn16 O15 1.899 . S
Zn16 O17 2.032 . S
Zn16 O20 2.086 . S
Zn16 O25 1.977 . S
O17 Zn16 2.032 . S
O17 C21 1.278 . S
C18 O19 1.203 . S
C18 O25 1.267 . S
O19 C18 1.203 . S
O20 C13 1.185 . S
O20 Zn16 2.086 . S
C21 O17 1.278 . S
C21 O22 1.211 . S
O22 C21 1.211 . S
C23 O15 1.284 . S
C23 O24 1.273 . S
O24 C23 1.273 . S
O25 Zn16 1.977 . S
O25 C18 1.267 . S
C26 O27 1.160 . S
C26 O33 1.185 . S
O27 C26 1.160 . S
O28 Zn29 1.899 . S
O28 C36 1.284 . S
Zn29 O28 1.899 . S
Zn29 O30 2.032 . S
Zn29 O33 2.086 . S
Zn29 O38 1.977 . S
O30 Zn29 2.032 . S
O30 C34 1.278 . S
C31 O32 1.203 . S
C31 O38 1.267 . S
O32 C31 1.203 . S
O33 C26 1.185 . S
O33 Zn29 2.086 . S
C34 O30 1.278 . S
C34 O35 1.211 . S
O35 C34 1.211 . S
C36 O28 1.284 . S
C36 O37 1.273 . S
O37 C36 1.273 . S
O38 Zn29 1.977 . S
O38 C31 1.267 . S
C39 O40 1.160 . S
C39 O46 1.185 . S
O40 C39 1.160 . S
O41 Zn42 1.899 . S
O41 C49 1.284 . S
Zn42 O41 1.899 . S
Zn42 O43 2.032 . S
Zn42 O46 2.086 . S
Zn42 O51 1.977 . S
O43 Zn42 2.032 . S
O43 C47 1.278 . S
C44 O45 1.203 . S
C44 O51 1.267 . S
O45 C44 1.203 . S
O46 C39 1.185 . S
O46 Zn42 2.086 . S
C47 O43 1.278 . S
C47 O48 1.211 . S
O48 C47 1.211 . S
C49 O41 1.284 . S
C49 O50 1.273 . S
O50 C49 1.273 . S
O51 Zn42 1.977 . S
O51 C44 1.267 . S
C52 O53 1.160 . S
C52 O59 1.185 . S
O53 C52 1.160 . S
O54 Zn55 1.899 . S
O54 C62 1.284 . S
Zn55 O54 1.899 . S
Zn55 O56 2.032 . S
Zn55 O59 2.086 . S
Zn55 O64 1.977 . S
O56 Zn55 2.032 . S
O56 C60 1.278 . S
C57 O58 1.203 . S
C57 O64 1.267 . S
O58 C57 1.203 . S
O59 C52 1.185 . S
O59 Zn55 2.086 . S
C60 O56 1.278 . S
C60 O61 1.211 . S
O61 C60 1.211 . S
C62 O54 1.284 . S
C62 O63 1.273 . S
O63 C62 1.273 . S
O64 Zn55 1.977 . S
O64 C57 1.267 . S
C65 O66 1.160 . S
C65 O72 1.185 . S
O66 C65 1.160 . S
O67 Zn68 1.899 . S
O67 C75 1.284 . S
Zn68 O67 1.899 . S
Zn68 O69 2.032 . S
Zn68 O72 2.086 . S
Zn68 O77 1.977 . S
O69 Zn68 2.032 . S
O69 C73 1.278 . S
C70 O71 1.203 . S
C70 O77 1.267 . S
O71 C70 1.203 . S
O72 C65 1.185 . S
O72 Zn68 2.086 . S
C73 O69 1.278 . S
C73 O74 1.211 . S
O74 C73 1.211 . S
C75 O67 1.284 . S
C75 O76 1.273 . S
O76 C75 1.273 . S
O77 Zn68 1.977 . S
O77 C70 1.267 . S
C78 O79 1.160 . S
C78 O85 1.185 . S
O79 C78 1.160 . S
O80 Zn81 1.899 . S
O80 C88 1.284 . S
Zn81 O80 1.899 . S
Zn81 O82 2.032 . S
Zn81 O85 2.086 . S
Zn81 O90 1.977 . S
O82 Zn81 2.032 . S
O82 C86 1.278 . S
C83 O84 1.203 . S
C83 O90 1.267 . S
O84 C83 1.203 . S
O85 C78 1.185 . S
O85 Zn81 2.086 . S
C86 O82 1.278 . S
C86 O87 1.211 . S
O87 C86 1.211 . S
C88 O80 1.284 . S
C88 O89 1.273 . S
O89 C88 1.273 . S
O90 Zn81 1.977 . S
O90 C83 1.267 . S
C91 O92 1.160 . S
C91 O98 1.185 . S
O92 C91 1.160 . S
O93 Zn94 1.899 . S
O93 C101 1.284 . S
Zn94 O93 1.899 . S
Zn94 O95 2.032 . S
Zn94 O98 2.086 . S
Zn94 O103 1.977 . S
O95 Zn94 2.032 . S
O95 C99 1.278 . S
C96 O97 1.203 . S
C96 O103 1.267 . S
O97 C96 1.203 . S
O98 C91 1.185 . S
O98 Zn94 2.086 . S
C99 O95 1.278 . S
C99 O100 1.211 . S
O100 C99 1.211 . S
C101 O93 1.284 . S
C101 O102 1.273 . S
O102 C101 1.273 . S
O103 Zn94 1.977 . S
O103 C96 1.267 . S
C104 O105 1.160 . S
C104 O111 1.185 . S
O105 C104 1.160 . S
O106 Zn107 1.899 . S
O106 C114 1.284 . S
Zn107 O106 1.899 . S
Zn107 O108 2.032 . S
Zn107 O111 2.086 . S
Zn107 O116 1.977 . S
O108 Zn107 2.032 . S
O108 C112 1.278 . S
C109 O110 1.203 . S
C109 O116 1.267 . S
O110 C109 1.203 . S
O111 C104 1.185 . S
O111 Zn107 2.086 . S
C112 O108 1.278 . S
C112 O113 1.211 . S
O113 C112 1.211 . S
C114 O106 1.284 . S
C114 O115 1.273 . S
O115 C114 1.273 . S
O116 Zn107 1.977 . S
O116 C109 1.267 . S
C117 O118 1.160 . S
C117 O124 1.185 . S
O118 C117 1.160 . S
O119 Zn120 1.899 . S
O119 C127 1.284 . S
Zn120 O119 1.899 . S
Zn120 O121 2.032 . S
Zn120 O124 2.086 . S
Zn120 O129 1.977 . S
O121 Zn120 2.032 . S
O121 C125 1.278 . S
C122 O123 1.203 . S
C122 O129 1.267 . S
O123 C122 1.203 . S
O124 C117 1.185 . S
O124 Zn120 2.086 . S
C125 O121 1.278 . S
C125 O126 1.211 . S
O126 C125 1.211 . S
C127 O119 1.284 . S
C127 O128 1.273 . S
O128 C127 1.273 . S
O129 Zn120 1.977 . S
O129 C122 1.267 . S
C130 O131 1.160 . S
C130 O137 1.185 . S
O131 C130 1.160 . S
O132 Zn133 1.899 . S
O132 C140 1.284 . S
Zn133 O132 1.899 . S
Zn133 O134 2.032 . S
Zn133 O137 2.086 . S
Zn133 O142 1.977 . S
O134 Zn133 2.032 . S
O134 C138 1.278 . S
C135 O136 1.203 . S
C135 O142 1.267 . S
O136 C135 1.203 . S
O137 C130 1.185 . S
O137 Zn133 2.086 . S
C138 O134 1.278 . S
C138 O139 1.211 . S
O139 C138 1.211 . S
C140 O132 1.284 . S
C140 O141 1.273 . S
O141 C140 1.273 . S
O142 Zn133 1.977 . S
O142 C135 1.267 . S
C143 O144 1.160 . S
C143 O150 1.185 . S
O144 C143 1.160 . S
O145 Zn146 1.899 . S
O145 C153 1.284 . S
Zn146 O145 1.899 . S
Zn146 O147 2.032 . S
Zn146 O150 2.086 . S
Zn146 O155 1.977 . S
O147 Zn146 2.032 . S
O147 C151 1.278 . S
C148 O149 1.203 . S
C148 O155 1.267 . S
O149 C148 1.203 . S
O150 C143 1.185 . S
O150 Zn146 2.086 . S
C151 O147 1.278 . S
C151 O152 1.211 . S
O152 C151 1.211 . S
C153 O145 1.284 . S
C153 O154 1.273 . S
O154 C153 1.273 . S
O155 Zn146 1.977 . S
O155 C148 1.267 . S
C156 C157 1.363 . S
C156 C162 1.379 . S
C156 N164 1.356 . S
C157 C156 1.363 . S
C157 C163 1.363 . S
C158 C159 1.363 . S
C158 C163 1.379 . S
C158 N165 1.356 . S
C159 C158 1.363 . S
C159 C162 1.363 . S
N160 C162 1.356 . S
N160 H172 0.984 . S
N160 H173 0.985 . S
N161 C163 1.356 . S
N161 H166 0.984 . S
N161 H167 0.985 . S
C162 C156 1.379 . S
C162 C159 1.363 . S
C162 N160 1.356 . S
C163 C157 1.363 . S
C163 C158 1.379 . S
C163 N161 1.356 . S
N164 C156 1.356 . S
N164 H170 0.984 . S
N164 H171 0.984 . S
N165 C158 1.356 . S
N165 H168 0.984 . S
N165 H169 0.985 . S
H166 N161 0.984 . S
H167 N161 0.985 . S
H168 N165 0.984 . S
H169 N165 0.985 . S
H170 N164 0.984 . S
H171 N164 0.984 . S
H172 N160 0.984 . S
H173 N160 0.985 . S
C174 C175 1.363 . S
C174 C180 1.379 . S
C174 N182 1.356 . S
C175 C174 1.363 . S
C175 C181 1.363 . S
C176 C177 1.363 . S
C176 C181 1.379 . S
C176 N183 1.356 . S
C177 C176 1.363 . S
C177 C180 1.363 . S
N178 C180 1.356 . S
N178 H190 0.984 . S
N178 H191 0.985 . S
N179 C181 1.356 . S
N179 H184 0.984 . S
N179 H185 0.985 . S
C180 C174 1.379 . S
C180 C177 1.363 . S
C180 N178 1.356 . S
C181 C175 1.363 . S
C181 C176 1.379 . S
C181 N179 1.356 . S
N182 C174 1.356 . S
N182 H188 0.984 . S
N182 H189 0.984 . S
N183 C176 1.356 . S
N183 H186 0.984 . S
N183 H187 0.985 . S
H184 N179 0.984 . S
H185 N179 0.985 . S
H186 N183 0.984 . S
H187 N183 0.985 . S
H188 N182 0.984 . S
H189 N182 0.984 . S
H190 N178 0.984 . S
H191 N178 0.985 . S
C192 C193 1.363 . S
C192 C198 1.379 . S
C192 N200 1.356 . S
C193 C192 1.363 . S
C193 C199 1.363 . S
C194 C195 1.363 . S
C194 C199 1.379 . S
C194 N201 1.356 . S
C195 C194 1.363 . S
C195 C198 1.363 . S
N196 C198 1.356 . S
N196 H208 0.984 . S
N196 H209 0.985 . S
N197 C199 1.356 . S
N197 H202 0.984 . S
N197 H203 0.985 . S
C198 C192 1.379 . S
C198 C195 1.363 . S
C198 N196 1.356 . S
C199 C193 1.363 . S
C199 C194 1.379 . S
C199 N197 1.356 . S
N200 C192 1.356 . S
N200 H206 0.984 . S
N200 H207 0.984 . S
N201 C194 1.356 . S
N201 H204 0.984 . S
N201 H205 0.985 . S
H202 N197 0.984 . S
H203 N197 0.985 . S
H204 N201 0.984 . S
H205 N201 0.985 . S
H206 N200 0.984 . S
H207 N200 0.984 . S
H208 N196 0.984 . S
H209 N196 0.985 . S
C210 C211 1.363 . S
C210 C216 1.379 . S
C210 N218 1.356 . S
C211 C210 1.363 . S
C211 C217 1.363 . S
C212 C213 1.363 . S
C212 C217 1.379 . S
C212 N219 1.356 . S
C213 C212 1.363 . S
C213 C216 1.363 . S
N214 C216 1.356 . S
N214 H226 0.984 . S
N214 H227 0.985 . S
N215 C217 1.356 . S
N215 H220 0.984 . S
N215 H221 0.985 . S
C216 C210 1.379 . S
C216 C213 1.363 . S
C216 N214 1.356 . S
C217 C211 1.363 . S
C217 C212 1.379 . S
C217 N215 1.356 . S
N218 C210 1.356 . S
N218 H224 0.984 . S
N218 H225 0.984 . S
N219 C212 1.356 . S
N219 H222 0.984 . S
N219 H223 0.985 . S
H220 N215 0.984 . S
H221 N215 0.985 . S
H222 N219 0.984 . S
H223 N219 0.985 . S
H224 N218 0.984 . S
H225 N218 0.984 . S
H226 N214 0.984 . S
H227 N214 0.985 . S
C228 C229 1.363 . S
C228 C234 1.379 . S
C228 N236 1.356 . S
C229 C228 1.363 . S
C229 C235 1.363 . S
C230 C231 1.363 . S
C230 C235 1.379 . S
C230 N237 1.356 . S
C231 C230 1.363 . S
C231 C234 1.363 . S
N232 C234 1.356 . S
N232 H244 0.984 . S
N232 H245 0.985 . S
N233 C235 1.356 . S
N233 H238 0.984 . S
N233 H239 0.985 . S
C234 C228 1.379 . S
C234 C231 1.363 . S
C234 N232 1.356 . S
C235 C229 1.363 . S
C235 C230 1.379 . S
C235 N233 1.356 . S
N236 C228 1.356 . S
N236 H242 0.984 . S
N236 H243 0.984 . S
N237 C230 1.356 . S
N237 H240 0.984 . S
N237 H241 0.985 . S
H238 N233 0.984 . S
H239 N233 0.985 . S
H240 N237 0.984 . S
H241 N237 0.985 . S
H242 N236 0.984 . S
H243 N236 0.984 . S
H244 N232 0.984 . S
H245 N232 0.985 . S
C246 C247 1.363 . S
C246 C252 1.379 . S
C246 N254 1.356 . S
C247 C246 1.363 . S
C247 C253 1.363 . S
C248 C249 1.363 . S
C248 C253 1.379 . S
C248 N255 1.356 . S
C249 C248 1.363 . S
C249 C252 1.363 . S
N250 C252 1.356 . S
N250 H262 0.984 . S
N250 H263 0.985 . S
N251 C253 1.356 . S
N251 H256 0.984 . S
N251 H257 0.985 . S
C252 C246 1.379 . S
C252 C249 1.363 . S
C252 N250 1.356 . S
C253 C247 1.363 . S
C253 C248 1.379 . S
C253 N251 1.356 . S
N254 C246 1.356 . S
N254 H260 0.984 . S
N254 H261 0.984 . S
N255 C248 1.356 . S
N255 H258 0.984 . S
N255 H259 0.985 . S
H256 N251 0.984 . S
H257 N251 0.985 . S
H258 N255 0.984 . S
H259 N255 0.985 . S
H260 N254 0.984 . S
H261 N254 0.984 . S
H262 N250 0.984 . S
H263 N250 0.985 . S
C264 C265 1.363 1_556 S
C264 C270 1.390 . S
C264 N272 1.356 . S
C265 C264 1.363 1_554 S
C265 C271 1.363 1_545 S
C266 C267 1.363 1_554 S
C266 C271 1.379 . S
C266 N273 1.356 . S
C267 C266 1.363 1_556 S
C267 C270 1.347 1_565 S
N268 C270 1.356 1_565 S
N268 H280 0.984 1_565 S
N268 H281 0.985 . S
N269 C271 1.356 1_545 S
N269 H274 0.984 . S
N269 H275 0.985 1_545 S
C270 C264 1.390 . S
C270 C267 1.347 1_545 S
C270 N268 1.356 1_545 S
C271 C265 1.363 1_565 S
C271 C266 1.379 . S
C271 N269 1.356 1_565 S
N272 C264 1.356 . S
N272 H278 0.984 . S
N272 H279 0.984 . S
N273 C266 1.356 . S
N273 H276 0.984 . S
N273 H277 0.985 . S
H274 N269 0.984 . S
H275 N269 0.985 1_565 S
H276 N273 0.984 . S
H277 N273 0.985 . S
H278 N272 0.984 . S
H279 N272 0.984 . S
H280 N268 0.984 1_545 S
H281 N268 0.985 . S
C282 C283 1.363 . S
C282 C288 1.379 . S
C282 N290 1.356 . S
C283 C282 1.363 . S
C283 C289 1.363 . S
C284 C285 1.363 . S
C284 C289 1.379 . S
C284 N291 1.356 . S
C285 C284 1.363 . S
C285 C288 1.363 . S
N286 C288 1.356 . S
N286 H298 0.984 . S
N286 H299 0.985 . S
N287 C289 1.356 . S
N287 H292 0.984 . S
N287 H293 0.985 . S
C288 C282 1.379 . S
C288 C285 1.363 . S
C288 N286 1.356 . S
C289 C283 1.363 . S
C289 C284 1.379 . S
C289 N287 1.356 . S
N290 C282 1.356 . S
N290 H296 0.984 . S
N290 H297 0.984 . S
N291 C284 1.356 . S
N291 H294 0.984 . S
N291 H295 0.985 . S
H292 N287 0.984 . S
H293 N287 0.985 . S
H294 N291 0.984 . S
H295 N291 0.985 . S
H296 N290 0.984 . S
H297 N290 0.984 . S
H298 N286 0.984 . S
H299 N286 0.985 . S
C300 C301 1.358 1_655 S
C300 C306 1.382 . S
C300 N308 1.356 1_655 S
C301 C300 1.358 1_455 S
C301 C307 1.363 1_556 S
C302 C303 1.374 . S
C302 C307 1.371 1_655 S
C302 N309 1.357 . S
C303 C302 1.374 . S
C303 C306 1.363 1_554 S
N304 C306 1.356 . S
N304 H316 0.984 . S
N304 H317 0.985 . S
N305 C307 1.356 . S
N305 H310 0.984 . S
N305 H311 0.985 . S
C306 C300 1.382 . S
C306 C303 1.363 1_556 S
C306 N304 1.356 . S
C307 C301 1.363 1_554 S
C307 C302 1.371 1_455 S
C307 N305 1.356 . S
N308 C300 1.356 1_455 S
N308 H314 0.984 1_455 S
N308 H315 0.984 . S
N309 C302 1.357 . S
N309 H312 0.984 . S
N309 H313 0.985 1_655 S
H310 N305 0.984 . S
H311 N305 0.985 . S
H312 N309 0.984 . S
H313 N309 0.985 1_455 S
H314 N308 0.984 1_655 S
H315 N308 0.984 . S
H316 N304 0.984 . S
H317 N304 0.985 . S
C318 C319 1.373 . S
C318 C324 1.371 1_545 S
C318 N326 1.357 . S
C319 C318 1.373 . S
C319 C325 1.363 . S
C320 C321 1.357 1_545 S
C320 C325 1.383 . S
C320 N327 1.356 1_545 S
C321 C320 1.357 1_565 S
C321 C324 1.363 . S
N322 C324 1.356 . S
N322 H334 0.984 . S
N322 H335 0.985 . S
N323 C325 1.356 . S
N323 H328 0.984 . S
N323 H329 0.985 . S
C324 C318 1.371 1_565 S
C324 C321 1.363 . S
C324 N322 1.356 . S
C325 C319 1.363 . S
C325 C320 1.383 . S
C325 N323 1.356 . S
N326 C318 1.357 . S
N326 H332 0.984 1_545 S
N326 H333 0.984 . S
N327 C320 1.356 1_565 S
N327 H330 0.984 . S
N327 H331 0.985 1_565 S
H328 N323 0.984 . S
H329 N323 0.985 . S
H330 N327 0.984 . S
H331 N327 0.985 1_545 S
H332 N326 0.984 1_565 S
H333 N326 0.984 . S
H334 N322 0.984 . S
H335 N322 0.985 . S
C336 C337 1.363 . S
C336 C342 1.379 . S
C336 N344 1.356 . S
C337 C336 1.363 . S
C337 C343 1.363 1_556 S
C338 C339 1.363 . S
C338 C343 1.379 . S
C338 N345 1.356 . S
C339 C338 1.363 . S
C339 C342 1.363 1_554 S
N340 C342 1.356 . S
N340 H352 0.984 . S
N340 H353 0.985 . S
N341 C343 1.356 . S
N341 H346 0.984 . S
N341 H347 0.985 . S
C342 C336 1.379 . S
C342 C339 1.363 1_556 S
C342 N340 1.356 . S
C343 C337 1.363 1_554 S
C343 C338 1.379 . S
C343 N341 1.356 . S
N344 C336 1.356 . S
N344 H350 0.984 . S
N344 H351 0.984 . S
N345 C338 1.356 . S
N345 H348 0.984 . S
N345 H349 0.985 . S
H346 N341 0.984 . S
H347 N341 0.985 . S
H348 N345 0.984 . S
H349 N345 0.985 . S
H350 N344 0.984 . S
H351 N344 0.984 . S
H352 N340 0.984 . S
H353 N340 0.985 . S
C354 C355 1.363 . S
C354 C360 1.379 1_655 S
C354 N362 1.356 . S
C355 C354 1.363 . S
C355 C361 1.363 . S
C356 C357 1.363 . S
C356 C361 1.379 1_455 S
C356 N363 1.356 . S
C357 C356 1.363 . S
C357 C360 1.363 . S
N358 C360 1.356 . S
N358 H370 0.984 . S
N358 H371 0.985 . S
N359 C361 1.356 . S
N359 H364 0.984 . S
N359 H365 0.985 . S
C360 C354 1.379 1_455 S
C360 C357 1.363 . S
C360 N358 1.356 . S
C361 C355 1.363 . S
C361 C356 1.379 1_655 S
C361 N359 1.356 . S
N362 C354 1.356 . S
N362 H368 0.984 . S
N362 H369 0.984 . S
N363 C356 1.356 . S
N363 H366 0.984 . S
N363 H367 0.985 . S
H364 N359 0.984 . S
H365 N359 0.985 . S
H366 N363 0.984 . S
H367 N363 0.985 . S
H368 N362 0.984 . S
H369 N362 0.984 . S
H370 N358 0.984 . S
H371 N358 0.985 . S
C372 C373 1.363 . S
C372 C378 1.379 . S
C372 N380 1.356 . S
C373 C372 1.363 . S
C373 C379 1.363 . S
C374 C375 1.363 . S
C374 C379 1.379 . S
C374 N381 1.356 . S
C375 C374 1.363 . S
C375 C378 1.363 . S
N376 C378 1.356 . S
N376 H388 0.984 . S
N376 H389 0.985 . S
N377 C379 1.356 . S
N377 H382 0.984 . S
N377 H383 0.985 1_554 S
C378 C372 1.379 . S
C378 C375 1.363 . S
C378 N376 1.356 . S
C379 C373 1.363 . S
C379 C374 1.379 . S
C379 N377 1.356 . S
N380 C372 1.356 . S
N380 H386 0.984 . S
N380 H387 0.984 . S
N381 C374 1.356 . S
N381 H384 0.984 . S
N381 H385 0.985 1_554 S
H382 N377 0.984 . S
H383 N377 0.985 1_556 S
H384 N381 0.984 . S
H385 N381 0.985 1_556 S
H386 N380 0.984 . S
H387 N380 0.984 . S
H388 N376 0.984 . S
H389 N376 0.985 . S
C390 C391 1.363 . S
C390 C396 1.379 . S
C390 N398 1.356 . S
C391 C390 1.363 . S
C391 C397 1.363 . S
C392 C393 1.363 . S
C392 C397 1.379 . S
C392 N399 1.356 . S
C393 C392 1.363 . S
C393 C396 1.363 . S
N394 C396 1.356 . S
N394 H406 0.984 . S
N394 H407 0.985 . S
N395 C397 1.356 . S
N395 H400 0.984 . S
N395 H401 0.985 . S
C396 C390 1.379 . S
C396 C393 1.363 . S
C396 N394 1.356 . S
C397 C391 1.363 . S
C397 C392 1.379 . S
C397 N395 1.356 . S
N398 C390 1.356 . S
N398 H404 0.984 . S
N398 H405 0.984 . S
N399 C392 1.356 . S
N399 H402 0.984 . S
N399 H403 0.985 . S
H400 N395 0.984 . S
H401 N395 0.985 . S
H402 N399 0.984 . S
H403 N399 0.985 . S
H404 N398 0.984 . S
H405 N398 0.984 . S
H406 N394 0.984 . S
H407 N394 0.985 . S
C408 C409 1.363 . S
C408 C414 1.379 . S
C408 N416 1.356 . S
C409 C408 1.363 . S
C409 C415 1.363 . S
C410 C411 1.363 . S
C410 C415 1.379 . S
C410 N417 1.356 . S
C411 C410 1.363 . S
C411 C414 1.363 . S
N412 C414 1.356 . S
N412 H424 0.984 . S
N412 H425 0.985 . S
N413 C415 1.363 . S
N413 H418 0.987 . S
N413 H419 0.975 1_554 S
C414 C408 1.379 . S
C414 C411 1.363 . S
C414 N412 1.356 . S
C415 C409 1.363 . S
C415 C410 1.379 . S
C415 N413 1.363 . S
N416 C408 1.356 . S
N416 H422 0.984 . S
N416 H423 0.984 . S
N417 C410 1.356 . S
N417 H420 0.984 . S
N417 H421 0.985 1_554 S
H418 N413 0.987 . S
H419 N413 0.975 1_556 S
H420 N417 0.984 . S
H421 N417 0.985 1_556 S
H422 N416 0.984 . S
H423 N416 0.984 . S
H424 N412 0.984 . S
H425 N412 0.985 . S
C426 C427 1.363 . S
C426 C432 1.379 . S
C426 N434 1.356 . S
C427 C426 1.363 . S
C427 C433 1.363 . S
C428 C429 1.363 . S
C428 C433 1.379 . S
C428 N435 1.356 . S
C429 C428 1.363 . S
C429 C432 1.363 . S
N430 C432 1.356 . S
N430 H442 0.984 . S
N430 H443 0.985 . S
N431 C433 1.356 . S
N431 H436 0.984 . S
N431 H437 0.985 . S
C432 C426 1.379 . S
C432 C429 1.363 . S
C432 N430 1.356 . S
C433 C427 1.363 . S
C433 C428 1.379 . S
C433 N431 1.356 . S
N434 C426 1.356 . S
N434 H440 0.984 . S
N434 H441 0.984 . S
N435 C428 1.356 . S
N435 H438 0.984 . S
N435 H439 0.985 . S
H436 N431 0.984 . S
H437 N431 0.985 . S
H438 N435 0.984 . S
H439 N435 0.985 . S
H440 N434 0.984 . S
H441 N434 0.984 . S
H442 N430 0.984 . S
H443 N430 0.985 . S
C444 C445 1.363 . S
C444 C450 1.379 . S
C444 N452 1.356 . S
C445 C444 1.363 . S
C445 C451 1.363 . S
C446 C447 1.363 . S
C446 C451 1.379 . S
C446 N453 1.356 . S
C447 C446 1.363 . S
C447 C450 1.363 . S
N448 C450 1.356 . S
N448 H460 0.984 . S
N448 H461 0.985 . S
N449 C451 1.356 . S
N449 H454 0.984 . S
N449 H455 0.985 1_554 S
C450 C444 1.379 . S
C450 C447 1.363 . S
C450 N448 1.356 . S
C451 C445 1.363 . S
C451 C446 1.379 . S
C451 N449 1.356 . S
N452 C444 1.356 . S
N452 H458 0.984 . S
N452 H459 0.984 . S
N453 C446 1.356 . S
N453 H456 0.984 . S
N453 H457 0.985 1_554 S
H454 N449 0.984 . S
H455 N449 0.985 1_556 S
H456 N453 0.984 . S
H457 N453 0.985 1_556 S
H458 N452 0.984 . S
H459 N452 0.984 . S
H460 N448 0.984 . S
H461 N448 0.985 . S
C462 C463 1.363 . S
C462 C468 1.379 . S
C462 N470 1.356 . S
C463 C462 1.363 . S
C463 C469 1.363 . S
C464 C465 1.363 . S
C464 C469 1.379 . S
C464 N471 1.356 . S
C465 C464 1.363 . S
C465 C468 1.363 . S
N466 C468 1.356 . S
N466 H478 0.984 . S
N466 H479 0.985 . S
N467 C469 1.356 . S
N467 H472 0.984 . S
N467 H473 0.985 . S
C468 C462 1.379 . S
C468 C465 1.363 . S
C468 N466 1.356 . S
C469 C463 1.363 . S
C469 C464 1.379 . S
C469 N467 1.356 . S
N470 C462 1.356 . S
N470 H476 0.984 . S
N470 H477 0.984 . S
N471 C464 1.356 . S
N471 H474 0.984 . S
N471 H475 0.985 . S
H472 N467 0.984 . S
H473 N467 0.985 . S
H474 N471 0.984 . S
H475 N471 0.985 . S
H476 N470 0.984 . S
H477 N470 0.984 . S
H478 N466 0.984 . S
H479 N466 0.985 . S
C480 C481 1.363 . S
C480 C486 1.379 . S
C480 N488 1.356 . S
C481 C480 1.363 . S
C481 C487 1.363 . S
C482 C483 1.363 . S
C482 C487 1.379 . S
C482 N489 1.356 . S
C483 C482 1.363 . S
C483 C486 1.363 . S
N484 C486 1.356 . S
N484 H496 0.984 . S
N484 H497 0.985 . S
N485 C487 1.356 . S
N485 H490 0.984 . S
N485 H491 0.985 . S
C486 C480 1.379 . S
C486 C483 1.363 . S
C486 N484 1.356 . S
C487 C481 1.363 . S
C487 C482 1.379 . S
C487 N485 1.356 . S
N488 C480 1.356 . S
N488 H494 0.984 . S
N488 H495 0.984 . S
N489 C482 1.356 . S
N489 H492 0.984 . S
N489 H493 0.985 . S
H490 N485 0.984 . S
H491 N485 0.985 . S
H492 N489 0.984 . S
H493 N489 0.985 . S
H494 N488 0.984 . S
H495 N488 0.984 . S
H496 N484 0.984 . S
H497 N484 0.985 . S
C498 C499 1.363 . S
C498 C504 1.379 . S
C498 N506 1.356 . S
C499 C498 1.363 . S
C499 C505 1.363 . S
C500 C501 1.363 . S
C500 C505 1.379 . S
C500 N507 1.356 . S
C501 C500 1.363 . S
C501 C504 1.363 . S
N502 C504 1.356 . S
N502 H514 0.984 . S
N502 H515 0.985 . S
N503 C505 1.356 . S
N503 H508 0.984 . S
N503 H509 0.985 1_556 S
C504 C498 1.379 . S
C504 C501 1.363 . S
C504 N502 1.356 . S
C505 C499 1.363 . S
C505 C500 1.379 . S
C505 N503 1.356 . S
N506 C498 1.356 . S
N506 H512 0.984 . S
N506 H513 0.984 . S
N507 C500 1.356 . S
N507 H510 0.984 . S
N507 H511 0.985 1_556 S
H508 N503 0.984 . S
H509 N503 0.985 1_554 S
H510 N507 0.984 . S
H511 N507 0.985 1_554 S
H512 N506 0.984 . S
H513 N506 0.984 . S
H514 N502 0.984 . S
H515 N502 0.985 . S
C516 C517 1.363 . S
C516 C522 1.379 . S
C516 N524 1.356 . S
C517 C516 1.363 . S
C517 C523 1.363 . S
C518 C519 1.363 . S
C518 C523 1.379 . S
C518 N525 1.356 . S
C519 C518 1.363 . S
C519 C522 1.363 . S
N520 C522 1.356 . S
N520 H532 0.984 . S
N520 H533 0.985 . S
N521 C523 1.356 . S
N521 H526 0.984 . S
N521 H527 0.985 . S
C522 C516 1.379 . S
C522 C519 1.363 . S
C522 N520 1.356 . S
C523 C517 1.363 . S
C523 C518 1.379 . S
C523 N521 1.356 . S
N524 C516 1.356 . S
N524 H530 0.984 . S
N524 H531 0.984 . S
N525 C518 1.356 . S
N525 H528 0.984 . S
N525 H529 0.985 . S
H526 N521 0.984 . S
H527 N521 0.985 . S
H528 N525 0.984 . S
H529 N525 0.985 . S
H530 N524 0.984 . S
H531 N524 0.984 . S
H532 N520 0.984 . S
H533 N520 0.985 . S
C534 C535 1.363 . S
C534 C540 1.379 . S
C534 N542 1.356 . S
C535 C534 1.363 . S
C535 C541 1.363 . S
C536 C537 1.363 . S
C536 C541 1.379 . S
C536 N543 1.356 . S
C537 C536 1.363 . S
C537 C540 1.363 . S
N538 C540 1.356 . S
N538 H550 0.984 1_556 S
N538 H551 0.985 . S
N539 C541 1.356 . S
N539 H544 0.984 . S
N539 H545 0.985 . S
C540 C534 1.379 . S
C540 C537 1.363 . S
C540 N538 1.356 . S
C541 C535 1.363 . S
C541 C536 1.379 . S
C541 N539 1.356 . S
N542 C534 1.356 . S
N542 H548 0.984 1_556 S
N542 H549 0.984 . S
N543 C536 1.356 . S
N543 H546 0.984 . S
N543 H547 0.985 . S
H544 N539 0.984 . S
H545 N539 0.985 . S
H546 N543 0.984 . S
H547 N543 0.985 . S
H548 N542 0.984 1_554 S
H549 N542 0.984 . S
H550 N538 0.984 1_554 S
H551 N538 0.985 . S
C552 C553 1.363 . S
C552 C558 1.379 . S
C552 N560 1.356 . S
C553 C552 1.363 . S
C553 C559 1.363 . S
C554 C555 1.363 . S
C554 C559 1.379 . S
C554 N561 1.356 . S
C555 C554 1.363 . S
C555 C558 1.363 . S
N556 C558 1.356 . S
N556 H568 0.984 . S
N556 H569 0.985 . S
N557 C559 1.356 . S
N557 H562 0.984 . S
N557 H563 0.985 . S
C558 C552 1.379 . S
C558 C555 1.363 . S
C558 N556 1.356 . S
C559 C553 1.363 . S
C559 C554 1.379 . S
C559 N557 1.356 . S
N560 C552 1.356 . S
N560 H566 0.984 . S
N560 H567 0.984 . S
N561 C554 1.356 . S
N561 H564 0.984 . S
N561 H565 0.985 . S
H562 N557 0.984 . S
H563 N557 0.985 . S
H564 N561 0.984 . S
H565 N561 0.985 . S
H566 N560 0.984 . S
H567 N560 0.984 . S
H568 N556 0.984 . S
H569 N556 0.985 . S
C570 C571 1.363 . S
C570 C576 1.379 . S
C570 N578 1.356 . S
C571 C570 1.363 . S
C571 C577 1.363 . S
C572 C573 1.363 . S
C572 C577 1.379 . S
C572 N579 1.356 . S
C573 C572 1.363 . S
C573 C576 1.363 . S
N574 C576 1.356 . S
N574 H586 0.984 . S
N574 H587 0.985 . S
N575 C577 1.356 . S
N575 H580 0.984 . S
N575 H581 0.985 1_556 S
C576 C570 1.379 . S
C576 C573 1.363 . S
C576 N574 1.356 . S
C577 C571 1.363 . S
C577 C572 1.379 . S
C577 N575 1.356 . S
N578 C570 1.356 . S
N578 H584 0.984 . S
N578 H585 0.984 . S
N579 C572 1.356 . S
N579 H582 0.984 . S
N579 H583 0.985 1_556 S
H580 N575 0.984 . S
H581 N575 0.985 1_554 S
H582 N579 0.984 . S
H583 N579 0.985 1_554 S
H584 N578 0.984 . S
H585 N578 0.984 . S
H586 N574 0.984 . S
H587 N574 0.985 . S
C157 C138 1.466 . S
C159 C8 1.474 . S
C175 C21 1.386 . S
C177 C151 1.386 . S
C193 C34 1.466 . S
C195 C86 1.474 . S
C211 C99 1.466 . S
C213 C47 1.474 . S
C229 C112 1.386 . S
C231 C60 1.386 . S
C247 C73 1.466 . S
C249 C125 1.474 . S
C265 C0 1.072 . S
C267 C91 1.122 . S
C283 C13 0.994 . S
C285 C104 0.994 . S
C301 C117 1.072 . S
C303 C26 1.122 . S
C319 C130 1.122 . S
C321 C39 1.072 . S
C337 C143 0.994 . S
C339 C52 0.994 . S
C355 C78 1.072 . S
C357 C65 1.122 . S
C373 C10 1.082 . S
C375 C57 1.023 . S
C391 C23 1.063 . S
C393 C70 1.070 . S
C409 C36 1.089 . S
C411 C5 1.054 . S
C427 C49 1.082 . S
C429 C18 1.023 . S
C445 C62 1.063 . S
C447 C31 1.070 . S
C463 C75 1.089 . S
C465 C44 1.054 . S
C481 C88 1.082 . S
C483 C109 1.023 . S
C499 C101 1.089 . S
C501 C122 1.054 . S
C517 C135 1.070 . S
C519 C114 1.063 . S
C535 C127 1.082 . S
C537 C148 1.023 . S
C553 C140 1.089 . S
C555 C83 1.054 . S
C571 C153 1.063 . S
C573 C96 1.070 . S
