# Generated by pormake.
# Topology reo-e, (6)-cn, num edge types: 1
# Building blocks:
#     Node 0, Type 0, BuildingBlock: OJICUG_clean_sbu_0, # of connection points: 6
#     Node 1, Type 0, BuildingBlock: OJICUG_clean_sbu_0, # of connection points: 6
#     Node 2, Type 0, BuildingBlock: OJICUG_clean_sbu_0, # of connection points: 6
#     Node 3, Type 0, BuildingBlock: OJICUG_clean_sbu_0, # of connection points: 6
#     Node 4, Type 0, BuildingBlock: OJICUG_clean_sbu_0, # of connection points: 6
#     Node 5, Type 0, BuildingBlock: OJICUG_clean_sbu_0, # of connection points: 6
#     Node 6, Type 0, BuildingBlock: OJICUG_clean_sbu_0, # of connection points: 6
#     Node 7, Type 0, BuildingBlock: OJICUG_clean_sbu_0, # of connection points: 6
#     Node 8, Type 0, BuildingBlock: OJICUG_clean_sbu_0, # of connection points: 6
#     Node 9, Type 0, BuildingBlock: OJICUG_clean_sbu_0, # of connection points: 6
#     Node 10, Type 0, BuildingBlock: OJICUG_clean_sbu_0, # of connection points: 6
#     Node 11, Type 0, BuildingBlock: OJICUG_clean_sbu_0, # of connection points: 6
#     Edge 12, Type (0, 0), None
#     Edge 13, Type (0, 0), None
#     Edge 14, Type (0, 0), None
#     Edge 15, Type (0, 0), None
#     Edge 16, Type (0, 0), None
#     Edge 17, Type (0, 0), None
#     Edge 18, Type (0, 0), None
#     Edge 19, Type (0, 0), None
#     Edge 20, Type (0, 0), None
#     Edge 21, Type (0, 0), None
#     Edge 22, Type (0, 0), None
#     Edge 23, Type (0, 0), None
#     Edge 24, Type (0, 0), None
#     Edge 25, Type (0, 0), None
#     Edge 26, Type (0, 0), None
#     Edge 27, Type (0, 0), None
#     Edge 28, Type (0, 0), None
#     Edge 29, Type (0, 0), None
#     Edge 30, Type (0, 0), None
#     Edge 31, Type (0, 0), None
#     Edge 32, Type (0, 0), None
#     Edge 33, Type (0, 0), None
#     Edge 34, Type (0, 0), None
#     Edge 35, Type (0, 0), None
#     Edge 36, Type (0, 0), None
#     Edge 37, Type (0, 0), None
#     Edge 38, Type (0, 0), None
#     Edge 39, Type (0, 0), None
#     Edge 40, Type (0, 0), None
#     Edge 41, Type (0, 0), None
#     Edge 42, Type (0, 0), None
#     Edge 43, Type (0, 0), None
#     Edge 44, Type (0, 0), None
#     Edge 45, Type (0, 0), None
#     Edge 46, Type (0, 0), None
#     Edge 47, Type (0, 0), None
# Relax obj value: 0.131
# Max RMSD: 0.142
# Mean RMSD: 0.142
data_MOF--net-reo-e--node1-OJICUG_clean_sbu_0--edge1-none
_symmetry_space_group_name_H-M    P1
_symmetry_Int_Tables_number       1
_symmetry_cell_setting            triclinic
loop_
_symmetry_equiv_pos_as_xyz
'x, y, z'
_cell_length_a     19.977741
_cell_length_b     19.977603
_cell_length_c     19.977523
_cell_angle_alpha  90.000156
_cell_angle_beta   89.999843
_cell_angle_gamma 90.000028
loop_
_atom_site_label
_atom_site_type_symbol
_atom_site_fract_x
_atom_site_fract_y
_atom_site_fract_z
_atom_type_partial_charge
Sc0 Sc 0.15276 0.15278 0.39373 0.0
Sc1 Sc 0.25913 0.25913 0.48337 0.0
Sc2 Sc 0.15276 0.15278 0.573 0.0
O3 O 0.18799 0.18801 0.48337 0.0
C4 C 0.02015 0.16104 0.48338 0.0
C5 C 0.17003 0.30774 0.35989 0.0
C6 C 0.17004 0.30775 0.60683 0.0
C7 C 0.30773 0.17004 0.35991 0.0
C8 C 0.16102 0.02017 0.48336 0.0
C9 C 0.30772 0.17003 0.60685 0.0
O10 O 0.05029 0.15934 0.42728 0.0
O11 O 0.21002 0.31742 0.40831 0.0
O12 O 0.14335 0.25112 0.61874 0.0
O13 O 0.2511 0.14336 0.34799 0.0
O14 O 0.15933 0.05031 0.53946 0.0
O15 O 0.31741 0.21001 0.55843 0.0
O16 O 0.15938 0.05031 0.42726 0.0
O17 O 0.31746 0.20995 0.40838 0.0
O18 O 0.25111 0.14329 0.61873 0.0
O19 O 0.14328 0.25113 0.34801 0.0
O20 O 0.0503 0.15939 0.53947 0.0
O21 O 0.20996 0.31747 0.55836 0.0
Sc22 Sc 0.81395 0.15277 0.573 0.0
Sc23 Sc 0.70759 0.25913 0.48337 0.0
Sc24 Sc 0.81395 0.15276 0.39374 0.0
O25 O 0.77872 0.18799 0.48337 0.0
C26 C 0.94656 0.16104 0.48337 0.0
C27 C 0.79669 0.30773 0.60684 0.0
C28 C 0.79668 0.30772 0.35989 0.0
C29 C 0.65898 0.17004 0.60684 0.0
C30 C 0.8057 0.02016 0.48338 0.0
C31 C 0.65899 0.17002 0.3599 0.0
O32 O 0.91642 0.15936 0.53947 0.0
O33 O 0.75673 0.31744 0.5584 0.0
O34 O 0.8234 0.2511 0.34799 0.0
O35 O 0.7156 0.14332 0.61874 0.0
O36 O 0.80737 0.0503 0.42728 0.0
O37 O 0.64929 0.20998 0.40834 0.0
O38 O 0.80736 0.0503 0.53947 0.0
O39 O 0.64927 0.20998 0.55839 0.0
O40 O 0.71561 0.14331 0.348 0.0
O41 O 0.8234 0.25111 0.61874 0.0
O42 O 0.91642 0.15936 0.42727 0.0
O43 O 0.75674 0.31744 0.40835 0.0
Sc44 Sc 0.81397 0.81395 0.573 0.0
Sc45 Sc 0.7076 0.7076 0.48337 0.0
Sc46 Sc 0.81396 0.81396 0.39373 0.0
O47 O 0.77873 0.77873 0.48337 0.0
C48 C 0.8057 0.94656 0.48337 0.0
C49 C 0.65899 0.7967 0.60683 0.0
C50 C 0.65901 0.79669 0.35988 0.0
C51 C 0.79669 0.659 0.60685 0.0
C52 C 0.94657 0.8057 0.48336 0.0
C53 C 0.7967 0.65898 0.35991 0.0
O54 O 0.80736 0.91642 0.53947 0.0
O55 O 0.64927 0.75677 0.55837 0.0
O56 O 0.71562 0.82343 0.348 0.0
O57 O 0.82344 0.7156 0.61873 0.0
O58 O 0.91643 0.80735 0.42726 0.0
O59 O 0.75676 0.64927 0.40837 0.0
O60 O 0.91643 0.80738 0.53946 0.0
O61 O 0.75672 0.6493 0.55842 0.0
O62 O 0.82339 0.71561 0.348 0.0
O63 O 0.71563 0.82338 0.61875 0.0
O64 O 0.80739 0.91642 0.42728 0.0
O65 O 0.64931 0.75673 0.40832 0.0
Sc66 Sc 0.15278 0.81396 0.39373 0.0
Sc67 Sc 0.25913 0.70761 0.48337 0.0
Sc68 Sc 0.15277 0.81397 0.573 0.0
O69 O 0.188 0.77874 0.48337 0.0
C70 C 0.16103 0.94657 0.48336 0.0
C71 C 0.30774 0.79671 0.3599 0.0
C72 C 0.30774 0.7967 0.60684 0.0
C73 C 0.17005 0.659 0.3599 0.0
C74 C 0.02017 0.8057 0.48336 0.0
C75 C 0.17003 0.65901 0.60684 0.0
O76 O 0.15936 0.91643 0.42726 0.0
O77 O 0.31745 0.75674 0.40834 0.0
O78 O 0.25112 0.82342 0.61874 0.0
O79 O 0.14334 0.71562 0.348 0.0
O80 O 0.05031 0.80738 0.53946 0.0
O81 O 0.20999 0.6493 0.5584 0.0
O82 O 0.05031 0.80737 0.42726 0.0
O83 O 0.20999 0.64929 0.40835 0.0
O84 O 0.14332 0.71563 0.61874 0.0
O85 O 0.25112 0.82342 0.348 0.0
O86 O 0.15936 0.91644 0.53946 0.0
O87 O 0.31745 0.75676 0.55839 0.0
Sc88 Sc 0.39372 0.15279 0.15278 0.0
Sc89 Sc 0.48335 0.25913 0.25916 0.0
Sc90 Sc 0.57298 0.15278 0.15278 0.0
O91 O 0.48335 0.18801 0.18802 0.0
C92 C 0.48335 0.02017 0.16103 0.0
C93 C 0.35992 0.17 0.30776 0.0
C94 C 0.60681 0.17001 0.30775 0.0
C95 C 0.35988 0.30775 0.17007 0.0
C96 C 0.48335 0.16104 0.02017 0.0
C97 C 0.60682 0.30775 0.17006 0.0
O98 O 0.42725 0.05032 0.15937 0.0
O99 O 0.40835 0.20997 0.31748 0.0
O100 O 0.61873 0.14332 0.25112 0.0
O101 O 0.34799 0.25113 0.14333 0.0
O102 O 0.53945 0.15938 0.05031 0.0
O103 O 0.55837 0.31746 0.21002 0.0
O104 O 0.42725 0.15937 0.05031 0.0
O105 O 0.40832 0.31744 0.21003 0.0
O106 O 0.61872 0.25113 0.14335 0.0
O107 O 0.34798 0.14334 0.25112 0.0
O108 O 0.53945 0.05031 0.15936 0.0
O109 O 0.55838 0.20998 0.31746 0.0
Sc110 Sc 0.81394 0.573 0.15278 0.0
Sc111 Sc 0.70759 0.48337 0.25916 0.0
Sc112 Sc 0.81395 0.39373 0.15278 0.0
O113 O 0.77872 0.48337 0.18802 0.0
C114 C 0.80569 0.48336 0.02017 0.0
C115 C 0.65898 0.60685 0.17006 0.0
C116 C 0.65897 0.35994 0.17004 0.0
C117 C 0.79671 0.6068 0.30776 0.0
C118 C 0.94656 0.48338 0.16103 0.0
C119 C 0.79672 0.35991 0.30774 0.0
O120 O 0.80738 0.53945 0.05031 0.0
O121 O 0.6493 0.55844 0.21006 0.0
O122 O 0.7156 0.34799 0.14338 0.0
O123 O 0.82335 0.61875 0.25112 0.0
O124 O 0.91642 0.42728 0.15934 0.0
O125 O 0.75671 0.4083 0.31744 0.0
O126 O 0.91641 0.53948 0.15939 0.0
O127 O 0.75678 0.55834 0.3175 0.0
O128 O 0.82344 0.34801 0.25113 0.0
O129 O 0.71559 0.61872 0.1433 0.0
O130 O 0.80732 0.42726 0.05031 0.0
O131 O 0.64924 0.40839 0.20998 0.0
Sc132 Sc 0.39373 0.81396 0.15277 0.0
Sc133 Sc 0.48336 0.70761 0.25915 0.0
Sc134 Sc 0.573 0.81397 0.15278 0.0
O135 O 0.48336 0.77874 0.18801 0.0
C136 C 0.48337 0.8057 0.02016 0.0
C137 C 0.35988 0.65901 0.17005 0.0
C138 C 0.6068 0.659 0.17003 0.0
C139 C 0.35993 0.79673 0.30775 0.0
C140 C 0.48335 0.94658 0.16103 0.0
C141 C 0.60682 0.79673 0.30773 0.0
O142 O 0.42728 0.80739 0.0503 0.0
O143 O 0.40829 0.64933 0.21004 0.0
O144 O 0.61875 0.71563 0.14337 0.0
O145 O 0.34798 0.82338 0.25111 0.0
O146 O 0.53945 0.91644 0.15933 0.0
O147 O 0.55843 0.75672 0.31742 0.0
O148 O 0.42725 0.91643 0.15939 0.0
O149 O 0.40839 0.7568 0.31749 0.0
O150 O 0.61872 0.82347 0.25112 0.0
O151 O 0.34801 0.71561 0.14329 0.0
O152 O 0.53947 0.80734 0.05031 0.0
O153 O 0.55834 0.64927 0.20996 0.0
Sc154 Sc 0.15276 0.39374 0.15277 0.0
Sc155 Sc 0.25912 0.48337 0.25914 0.0
Sc156 Sc 0.15277 0.57301 0.15277 0.0
O157 O 0.18799 0.48338 0.18801 0.0
C158 C 0.16103 0.48338 0.02016 0.0
C159 C 0.30773 0.35993 0.17002 0.0
C160 C 0.30773 0.60683 0.17003 0.0
C161 C 0.17001 0.35992 0.30774 0.0
C162 C 0.02015 0.48338 0.16104 0.0
C163 C 0.17 0.60681 0.30775 0.0
O164 O 0.15937 0.42728 0.05031 0.0
O165 O 0.31744 0.40836 0.20999 0.0
O166 O 0.25111 0.61875 0.14332 0.0
O167 O 0.1433 0.34801 0.25112 0.0
O168 O 0.05029 0.53948 0.15937 0.0
O169 O 0.20997 0.55839 0.31746 0.0
O170 O 0.05029 0.42728 0.15935 0.0
O171 O 0.20998 0.40834 0.31745 0.0
O172 O 0.14332 0.61875 0.25112 0.0
O173 O 0.25111 0.348 0.14334 0.0
O174 O 0.15936 0.53948 0.0503 0.0
O175 O 0.31743 0.55841 0.21001 0.0
Sc176 Sc 0.39374 0.81395 0.81396 0.0
Sc177 Sc 0.48337 0.7076 0.70758 0.0
Sc178 Sc 0.57301 0.81395 0.81396 0.0
O179 O 0.48337 0.77872 0.77872 0.0
C180 C 0.48338 0.94656 0.80571 0.0
C181 C 0.35992 0.79673 0.65899 0.0
C182 C 0.60681 0.79672 0.65898 0.0
C183 C 0.35991 0.65898 0.79666 0.0
C184 C 0.48337 0.80568 0.94657 0.0
C185 C 0.60684 0.65899 0.79668 0.0
O186 O 0.42728 0.91642 0.80739 0.0
O187 O 0.40833 0.75674 0.64928 0.0
O188 O 0.61875 0.82338 0.71561 0.0
O189 O 0.348 0.7156 0.82338 0.0
O190 O 0.53947 0.80737 0.91642 0.0
O191 O 0.55842 0.6493 0.7567 0.0
O192 O 0.42727 0.80734 0.91642 0.0
O193 O 0.40837 0.64927 0.75673 0.0
O194 O 0.61873 0.7156 0.82342 0.0
O195 O 0.348 0.82343 0.71562 0.0
O196 O 0.53948 0.91642 0.80735 0.0
O197 O 0.55837 0.75677 0.64925 0.0
Sc198 Sc 0.15279 0.39373 0.81396 0.0
Sc199 Sc 0.25914 0.48337 0.70758 0.0
Sc200 Sc 0.15278 0.573 0.81395 0.0
O201 O 0.18801 0.48337 0.77872 0.0
C202 C 0.02017 0.48335 0.80571 0.0
C203 C 0.17 0.35994 0.65898 0.0
C204 C 0.17002 0.60683 0.65899 0.0
C205 C 0.30774 0.35989 0.79667 0.0
C206 C 0.16105 0.48338 0.94657 0.0
C207 C 0.30776 0.6068 0.79671 0.0
O208 O 0.05032 0.42726 0.80735 0.0
O209 O 0.20995 0.40838 0.64925 0.0
O210 O 0.1433 0.61873 0.71561 0.0
O211 O 0.25114 0.34801 0.82343 0.0
O212 O 0.15939 0.53947 0.91642 0.0
O213 O 0.31748 0.55836 0.75675 0.0
O214 O 0.15936 0.42728 0.91643 0.0
O215 O 0.31743 0.40831 0.75668 0.0
O216 O 0.25112 0.61874 0.82337 0.0
O217 O 0.14336 0.34799 0.71562 0.0
O218 O 0.05031 0.53945 0.80739 0.0
O219 O 0.21001 0.55842 0.64929 0.0
Sc220 Sc 0.39373 0.15276 0.81396 0.0
Sc221 Sc 0.48336 0.25912 0.70759 0.0
Sc222 Sc 0.573 0.15277 0.81397 0.0
O223 O 0.48336 0.18799 0.77873 0.0
C224 C 0.48335 0.16104 0.94657 0.0
C225 C 0.35993 0.30774 0.79672 0.0
C226 C 0.60685 0.30772 0.79668 0.0
C227 C 0.3599 0.17001 0.659 0.0
C228 C 0.48338 0.02016 0.8057 0.0
C229 C 0.6068 0.16999 0.65898 0.0
O230 O 0.42726 0.15938 0.91643 0.0
O231 O 0.40837 0.31745 0.75677 0.0
O232 O 0.61872 0.25112 0.82344 0.0
O233 O 0.348 0.14328 0.71561 0.0
O234 O 0.53947 0.0503 0.80736 0.0
O235 O 0.55835 0.20994 0.64926 0.0
O236 O 0.42728 0.05029 0.80739 0.0
O237 O 0.40831 0.21 0.6493 0.0
O238 O 0.61874 0.14334 0.71563 0.0
O239 O 0.34798 0.2511 0.82338 0.0
O240 O 0.53945 0.15935 0.91643 0.0
O241 O 0.55842 0.31741 0.7567 0.0
Sc242 Sc 0.81396 0.57299 0.81396 0.0
Sc243 Sc 0.7076 0.48336 0.70759 0.0
Sc244 Sc 0.81396 0.39372 0.81396 0.0
O245 O 0.77873 0.48336 0.77873 0.0
C246 C 0.94657 0.48335 0.8057 0.0
C247 C 0.79673 0.60681 0.659 0.0
C248 C 0.79671 0.35992 0.65899 0.0
C249 C 0.65899 0.6068 0.7967 0.0
C250 C 0.80569 0.48336 0.94657 0.0
C251 C 0.659 0.35991 0.79672 0.0
O252 O 0.91643 0.53945 0.80739 0.0
O253 O 0.75673 0.5584 0.6493 0.0
O254 O 0.82339 0.34798 0.71562 0.0
O255 O 0.71562 0.61873 0.82339 0.0
O256 O 0.80738 0.42726 0.91643 0.0
O257 O 0.6493 0.40831 0.75672 0.0
O258 O 0.80735 0.53946 0.91643 0.0
O259 O 0.64927 0.55836 0.75676 0.0
O260 O 0.71562 0.34799 0.82343 0.0
O261 O 0.82344 0.61872 0.71562 0.0
O262 O 0.91643 0.42725 0.80736 0.0
O263 O 0.75677 0.40836 0.64927 0.0
loop_
_geom_bond_atom_site_label_1
_geom_bond_atom_site_label_2
_geom_bond_distance
_geom_bond_site_symmetry_2
_ccdc_geom_bond_type
Sc0 O3 2.025 . S
Sc0 O10 2.105 . S
Sc0 O13 2.105 . S
Sc0 O16 2.105 . S
Sc0 O19 2.105 . S
Sc1 O3 2.025 . S
Sc1 O11 2.105 . S
Sc1 O15 2.105 . S
Sc1 O17 2.105 . S
Sc1 O21 2.105 . S
Sc2 O3 2.025 . S
Sc2 O12 2.105 . S
Sc2 O14 2.105 . S
Sc2 O18 2.105 . S
Sc2 O20 2.105 . S
O3 Sc0 2.025 . S
O3 Sc1 2.025 . S
O3 Sc2 2.025 . S
C4 O10 1.268 . S
C4 O20 1.268 . S
C5 O11 1.268 . S
C5 O19 1.268 . S
C6 O12 1.268 . S
C6 O21 1.268 . S
C7 O13 1.268 . S
C7 O17 1.268 . S
C8 O14 1.268 . S
C8 O16 1.268 . S
C9 O15 1.268 . S
C9 O18 1.268 . S
O10 Sc0 2.105 . S
O10 C4 1.268 . S
O11 Sc1 2.105 . S
O11 C5 1.268 . S
O12 Sc2 2.105 . S
O12 C6 1.268 . S
O13 Sc0 2.105 . S
O13 C7 1.268 . S
O14 Sc2 2.105 . S
O14 C8 1.268 . S
O15 Sc1 2.105 . S
O15 C9 1.268 . S
O16 Sc0 2.105 . S
O16 C8 1.268 . S
O17 Sc1 2.105 . S
O17 C7 1.268 . S
O18 Sc2 2.105 . S
O18 C9 1.268 . S
O19 Sc0 2.105 . S
O19 C5 1.268 . S
O20 Sc2 2.105 . S
O20 C4 1.268 . S
O21 Sc1 2.105 . S
O21 C6 1.268 . S
Sc22 O25 2.025 . S
Sc22 O32 2.105 . S
Sc22 O35 2.105 . S
Sc22 O38 2.105 . S
Sc22 O41 2.105 . S
Sc23 O25 2.025 . S
Sc23 O33 2.105 . S
Sc23 O37 2.105 . S
Sc23 O39 2.105 . S
Sc23 O43 2.105 . S
Sc24 O25 2.025 . S
Sc24 O34 2.105 . S
Sc24 O36 2.105 . S
Sc24 O40 2.105 . S
Sc24 O42 2.105 . S
O25 Sc22 2.025 . S
O25 Sc23 2.025 . S
O25 Sc24 2.025 . S
C26 O32 1.268 . S
C26 O42 1.268 . S
C27 O33 1.268 . S
C27 O41 1.268 . S
C28 O34 1.268 . S
C28 O43 1.268 . S
C29 O35 1.268 . S
C29 O39 1.268 . S
C30 O36 1.268 . S
C30 O38 1.268 . S
C31 O37 1.268 . S
C31 O40 1.268 . S
O32 Sc22 2.105 . S
O32 C26 1.268 . S
O33 Sc23 2.105 . S
O33 C27 1.268 . S
O34 Sc24 2.105 . S
O34 C28 1.268 . S
O35 Sc22 2.105 . S
O35 C29 1.268 . S
O36 Sc24 2.105 . S
O36 C30 1.268 . S
O37 Sc23 2.105 . S
O37 C31 1.268 . S
O38 Sc22 2.105 . S
O38 C30 1.268 . S
O39 Sc23 2.105 . S
O39 C29 1.268 . S
O40 Sc24 2.105 . S
O40 C31 1.268 . S
O41 Sc22 2.105 . S
O41 C27 1.268 . S
O42 Sc24 2.105 . S
O42 C26 1.268 . S
O43 Sc23 2.105 . S
O43 C28 1.268 . S
Sc44 O47 2.025 . S
Sc44 O54 2.105 . S
Sc44 O57 2.105 . S
Sc44 O60 2.105 . S
Sc44 O63 2.105 . S
Sc45 O47 2.025 . S
Sc45 O55 2.105 . S
Sc45 O59 2.105 . S
Sc45 O61 2.105 . S
Sc45 O65 2.105 . S
Sc46 O47 2.025 . S
Sc46 O56 2.105 . S
Sc46 O58 2.105 . S
Sc46 O62 2.105 . S
Sc46 O64 2.105 . S
O47 Sc44 2.025 . S
O47 Sc45 2.025 . S
O47 Sc46 2.025 . S
C48 O54 1.268 . S
C48 O64 1.268 . S
C49 O55 1.268 . S
C49 O63 1.268 . S
C50 O56 1.268 . S
C50 O65 1.268 . S
C51 O57 1.268 . S
C51 O61 1.268 . S
C52 O58 1.268 . S
C52 O60 1.268 . S
C53 O59 1.268 . S
C53 O62 1.268 . S
O54 Sc44 2.105 . S
O54 C48 1.268 . S
O55 Sc45 2.105 . S
O55 C49 1.268 . S
O56 Sc46 2.105 . S
O56 C50 1.268 . S
O57 Sc44 2.105 . S
O57 C51 1.268 . S
O58 Sc46 2.105 . S
O58 C52 1.268 . S
O59 Sc45 2.105 . S
O59 C53 1.268 . S
O60 Sc44 2.105 . S
O60 C52 1.268 . S
O61 Sc45 2.105 . S
O61 C51 1.268 . S
O62 Sc46 2.105 . S
O62 C53 1.268 . S
O63 Sc44 2.105 . S
O63 C49 1.268 . S
O64 Sc46 2.105 . S
O64 C48 1.268 . S
O65 Sc45 2.105 . S
O65 C50 1.268 . S
Sc66 O69 2.025 . S
Sc66 O76 2.105 . S
Sc66 O79 2.105 . S
Sc66 O82 2.105 . S
Sc66 O85 2.105 . S
Sc67 O69 2.025 . S
Sc67 O77 2.105 . S
Sc67 O81 2.105 . S
Sc67 O83 2.105 . S
Sc67 O87 2.105 . S
Sc68 O69 2.025 . S
Sc68 O78 2.105 . S
Sc68 O80 2.105 . S
Sc68 O84 2.105 . S
Sc68 O86 2.105 . S
O69 Sc66 2.025 . S
O69 Sc67 2.025 . S
O69 Sc68 2.025 . S
C70 O76 1.268 . S
C70 O86 1.268 . S
C71 O77 1.268 . S
C71 O85 1.268 . S
C72 O78 1.268 . S
C72 O87 1.268 . S
C73 O79 1.268 . S
C73 O83 1.268 . S
C74 O80 1.268 . S
C74 O82 1.268 . S
C75 O81 1.268 . S
C75 O84 1.268 . S
O76 Sc66 2.105 . S
O76 C70 1.268 . S
O77 Sc67 2.105 . S
O77 C71 1.268 . S
O78 Sc68 2.105 . S
O78 C72 1.268 . S
O79 Sc66 2.105 . S
O79 C73 1.268 . S
O80 Sc68 2.105 . S
O80 C74 1.268 . S
O81 Sc67 2.105 . S
O81 C75 1.268 . S
O82 Sc66 2.105 . S
O82 C74 1.268 . S
O83 Sc67 2.105 . S
O83 C73 1.268 . S
O84 Sc68 2.105 . S
O84 C75 1.268 . S
O85 Sc66 2.105 . S
O85 C71 1.268 . S
O86 Sc68 2.105 . S
O86 C70 1.268 . S
O87 Sc67 2.105 . S
O87 C72 1.268 . S
Sc88 O91 2.025 . S
Sc88 O98 2.105 . S
Sc88 O101 2.105 . S
Sc88 O104 2.105 . S
Sc88 O107 2.105 . S
Sc89 O91 2.025 . S
Sc89 O99 2.105 . S
Sc89 O103 2.105 . S
Sc89 O105 2.105 . S
Sc89 O109 2.105 . S
Sc90 O91 2.025 . S
Sc90 O100 2.105 . S
Sc90 O102 2.105 . S
Sc90 O106 2.105 . S
Sc90 O108 2.105 . S
O91 Sc88 2.025 . S
O91 Sc89 2.025 . S
O91 Sc90 2.025 . S
C92 O98 1.268 . S
C92 O108 1.268 . S
C93 O99 1.268 . S
C93 O107 1.268 . S
C94 O100 1.268 . S
C94 O109 1.268 . S
C95 O101 1.268 . S
C95 O105 1.268 . S
C96 O102 1.268 . S
C96 O104 1.268 . S
C97 O103 1.268 . S
C97 O106 1.268 . S
O98 Sc88 2.105 . S
O98 C92 1.268 . S
O99 Sc89 2.105 . S
O99 C93 1.268 . S
O100 Sc90 2.105 . S
O100 C94 1.268 . S
O101 Sc88 2.105 . S
O101 C95 1.268 . S
O102 Sc90 2.105 . S
O102 C96 1.268 . S
O103 Sc89 2.105 . S
O103 C97 1.268 . S
O104 Sc88 2.105 . S
O104 C96 1.268 . S
O105 Sc89 2.105 . S
O105 C95 1.268 . S
O106 Sc90 2.105 . S
O106 C97 1.268 . S
O107 Sc88 2.105 . S
O107 C93 1.268 . S
O108 Sc90 2.105 . S
O108 C92 1.268 . S
O109 Sc89 2.105 . S
O109 C94 1.268 . S
Sc110 O113 2.025 . S
Sc110 O120 2.105 . S
Sc110 O123 2.105 . S
Sc110 O126 2.105 . S
Sc110 O129 2.105 . S
Sc111 O113 2.025 . S
Sc111 O121 2.105 . S
Sc111 O125 2.105 . S
Sc111 O127 2.105 . S
Sc111 O131 2.105 . S
Sc112 O113 2.025 . S
Sc112 O122 2.105 . S
Sc112 O124 2.105 . S
Sc112 O128 2.105 . S
Sc112 O130 2.105 . S
O113 Sc110 2.025 . S
O113 Sc111 2.025 . S
O113 Sc112 2.025 . S
C114 O120 1.268 . S
C114 O130 1.268 . S
C115 O121 1.268 . S
C115 O129 1.268 . S
C116 O122 1.268 . S
C116 O131 1.268 . S
C117 O123 1.268 . S
C117 O127 1.268 . S
C118 O124 1.268 . S
C118 O126 1.268 . S
C119 O125 1.268 . S
C119 O128 1.268 . S
O120 Sc110 2.105 . S
O120 C114 1.268 . S
O121 Sc111 2.105 . S
O121 C115 1.268 . S
O122 Sc112 2.105 . S
O122 C116 1.268 . S
O123 Sc110 2.105 . S
O123 C117 1.268 . S
O124 Sc112 2.105 . S
O124 C118 1.268 . S
O125 Sc111 2.105 . S
O125 C119 1.268 . S
O126 Sc110 2.105 . S
O126 C118 1.268 . S
O127 Sc111 2.105 . S
O127 C117 1.268 . S
O128 Sc112 2.105 . S
O128 C119 1.268 . S
O129 Sc110 2.105 . S
O129 C115 1.268 . S
O130 Sc112 2.105 . S
O130 C114 1.268 . S
O131 Sc111 2.105 . S
O131 C116 1.268 . S
Sc132 O135 2.025 . S
Sc132 O142 2.105 . S
Sc132 O145 2.105 . S
Sc132 O148 2.105 . S
Sc132 O151 2.105 . S
Sc133 O135 2.025 . S
Sc133 O143 2.105 . S
Sc133 O147 2.105 . S
Sc133 O149 2.105 . S
Sc133 O153 2.105 . S
Sc134 O135 2.025 . S
Sc134 O144 2.105 . S
Sc134 O146 2.105 . S
Sc134 O150 2.105 . S
Sc134 O152 2.105 . S
O135 Sc132 2.025 . S
O135 Sc133 2.025 . S
O135 Sc134 2.025 . S
C136 O142 1.268 . S
C136 O152 1.268 . S
C137 O143 1.268 . S
C137 O151 1.268 . S
C138 O144 1.268 . S
C138 O153 1.268 . S
C139 O145 1.268 . S
C139 O149 1.268 . S
C140 O146 1.268 . S
C140 O148 1.268 . S
C141 O147 1.268 . S
C141 O150 1.268 . S
O142 Sc132 2.105 . S
O142 C136 1.268 . S
O143 Sc133 2.105 . S
O143 C137 1.268 . S
O144 Sc134 2.105 . S
O144 C138 1.268 . S
O145 Sc132 2.105 . S
O145 C139 1.268 . S
O146 Sc134 2.105 . S
O146 C140 1.268 . S
O147 Sc133 2.105 . S
O147 C141 1.268 . S
O148 Sc132 2.105 . S
O148 C140 1.268 . S
O149 Sc133 2.105 . S
O149 C139 1.268 . S
O150 Sc134 2.105 . S
O150 C141 1.268 . S
O151 Sc132 2.105 . S
O151 C137 1.268 . S
O152 Sc134 2.105 . S
O152 C136 1.268 . S
O153 Sc133 2.105 . S
O153 C138 1.268 . S
Sc154 O157 2.025 . S
Sc154 O164 2.105 . S
Sc154 O167 2.105 . S
Sc154 O170 2.105 . S
Sc154 O173 2.105 . S
Sc155 O157 2.025 . S
Sc155 O165 2.105 . S
Sc155 O169 2.105 . S
Sc155 O171 2.105 . S
Sc155 O175 2.105 . S
Sc156 O157 2.025 . S
Sc156 O166 2.105 . S
Sc156 O168 2.105 . S
Sc156 O172 2.105 . S
Sc156 O174 2.105 . S
O157 Sc154 2.025 . S
O157 Sc155 2.025 . S
O157 Sc156 2.025 . S
C158 O164 1.268 . S
C158 O174 1.268 . S
C159 O165 1.268 . S
C159 O173 1.268 . S
C160 O166 1.268 . S
C160 O175 1.268 . S
C161 O167 1.268 . S
C161 O171 1.268 . S
C162 O168 1.268 . S
C162 O170 1.268 . S
C163 O169 1.268 . S
C163 O172 1.268 . S
O164 Sc154 2.105 . S
O164 C158 1.268 . S
O165 Sc155 2.105 . S
O165 C159 1.268 . S
O166 Sc156 2.105 . S
O166 C160 1.268 . S
O167 Sc154 2.105 . S
O167 C161 1.268 . S
O168 Sc156 2.105 . S
O168 C162 1.268 . S
O169 Sc155 2.105 . S
O169 C163 1.268 . S
O170 Sc154 2.105 . S
O170 C162 1.268 . S
O171 Sc155 2.105 . S
O171 C161 1.268 . S
O172 Sc156 2.105 . S
O172 C163 1.268 . S
O173 Sc154 2.105 . S
O173 C159 1.268 . S
O174 Sc156 2.105 . S
O174 C158 1.268 . S
O175 Sc155 2.105 . S
O175 C160 1.268 . S
Sc176 O179 2.025 . S
Sc176 O186 2.105 . S
Sc176 O189 2.105 . S
Sc176 O192 2.105 . S
Sc176 O195 2.105 . S
Sc177 O179 2.025 . S
Sc177 O187 2.105 . S
Sc177 O191 2.105 . S
Sc177 O193 2.105 . S
Sc177 O197 2.105 . S
Sc178 O179 2.025 . S
Sc178 O188 2.105 . S
Sc178 O190 2.105 . S
Sc178 O194 2.105 . S
Sc178 O196 2.105 . S
O179 Sc176 2.025 . S
O179 Sc177 2.025 . S
O179 Sc178 2.025 . S
C180 O186 1.268 . S
C180 O196 1.268 . S
C181 O187 1.268 . S
C181 O195 1.268 . S
C182 O188 1.268 . S
C182 O197 1.268 . S
C183 O189 1.268 . S
C183 O193 1.268 . S
C184 O190 1.268 . S
C184 O192 1.268 . S
C185 O191 1.268 . S
C185 O194 1.268 . S
O186 Sc176 2.105 . S
O186 C180 1.268 . S
O187 Sc177 2.105 . S
O187 C181 1.268 . S
O188 Sc178 2.105 . S
O188 C182 1.268 . S
O189 Sc176 2.105 . S
O189 C183 1.268 . S
O190 Sc178 2.105 . S
O190 C184 1.268 . S
O191 Sc177 2.105 . S
O191 C185 1.268 . S
O192 Sc176 2.105 . S
O192 C184 1.268 . S
O193 Sc177 2.105 . S
O193 C183 1.268 . S
O194 Sc178 2.105 . S
O194 C185 1.268 . S
O195 Sc176 2.105 . S
O195 C181 1.268 . S
O196 Sc178 2.105 . S
O196 C180 1.268 . S
O197 Sc177 2.105 . S
O197 C182 1.268 . S
Sc198 O201 2.025 . S
Sc198 O208 2.105 . S
Sc198 O211 2.105 . S
Sc198 O214 2.105 . S
Sc198 O217 2.105 . S
Sc199 O201 2.025 . S
Sc199 O209 2.105 . S
Sc199 O213 2.105 . S
Sc199 O215 2.105 . S
Sc199 O219 2.105 . S
Sc200 O201 2.025 . S
Sc200 O210 2.105 . S
Sc200 O212 2.105 . S
Sc200 O216 2.105 . S
Sc200 O218 2.105 . S
O201 Sc198 2.025 . S
O201 Sc199 2.025 . S
O201 Sc200 2.025 . S
C202 O208 1.268 . S
C202 O218 1.268 . S
C203 O209 1.268 . S
C203 O217 1.268 . S
C204 O210 1.268 . S
C204 O219 1.268 . S
C205 O211 1.268 . S
C205 O215 1.268 . S
C206 O212 1.268 . S
C206 O214 1.268 . S
C207 O213 1.268 . S
C207 O216 1.268 . S
O208 Sc198 2.105 . S
O208 C202 1.268 . S
O209 Sc199 2.105 . S
O209 C203 1.268 . S
O210 Sc200 2.105 . S
O210 C204 1.268 . S
O211 Sc198 2.105 . S
O211 C205 1.268 . S
O212 Sc200 2.105 . S
O212 C206 1.268 . S
O213 Sc199 2.105 . S
O213 C207 1.268 . S
O214 Sc198 2.105 . S
O214 C206 1.268 . S
O215 Sc199 2.105 . S
O215 C205 1.268 . S
O216 Sc200 2.105 . S
O216 C207 1.268 . S
O217 Sc198 2.105 . S
O217 C203 1.268 . S
O218 Sc200 2.105 . S
O218 C202 1.268 . S
O219 Sc199 2.105 . S
O219 C204 1.268 . S
Sc220 O223 2.025 . S
Sc220 O230 2.105 . S
Sc220 O233 2.105 . S
Sc220 O236 2.105 . S
Sc220 O239 2.105 . S
Sc221 O223 2.025 . S
Sc221 O231 2.105 . S
Sc221 O235 2.105 . S
Sc221 O237 2.105 . S
Sc221 O241 2.105 . S
Sc222 O223 2.025 . S
Sc222 O232 2.105 . S
Sc222 O234 2.105 . S
Sc222 O238 2.105 . S
Sc222 O240 2.105 . S
O223 Sc220 2.025 . S
O223 Sc221 2.025 . S
O223 Sc222 2.025 . S
C224 O230 1.268 . S
C224 O240 1.268 . S
C225 O231 1.268 . S
C225 O239 1.268 . S
C226 O232 1.268 . S
C226 O241 1.268 . S
C227 O233 1.268 . S
C227 O237 1.268 . S
C228 O234 1.268 . S
C228 O236 1.268 . S
C229 O235 1.268 . S
C229 O238 1.268 . S
O230 Sc220 2.105 . S
O230 C224 1.268 . S
O231 Sc221 2.105 . S
O231 C225 1.268 . S
O232 Sc222 2.105 . S
O232 C226 1.268 . S
O233 Sc220 2.105 . S
O233 C227 1.268 . S
O234 Sc222 2.105 . S
O234 C228 1.268 . S
O235 Sc221 2.105 . S
O235 C229 1.268 . S
O236 Sc220 2.105 . S
O236 C228 1.268 . S
O237 Sc221 2.105 . S
O237 C227 1.268 . S
O238 Sc222 2.105 . S
O238 C229 1.268 . S
O239 Sc220 2.105 . S
O239 C225 1.268 . S
O240 Sc222 2.105 . S
O240 C224 1.268 . S
O241 Sc221 2.105 . S
O241 C226 1.268 . S
Sc242 O245 2.025 . S
Sc242 O252 2.105 . S
Sc242 O255 2.105 . S
Sc242 O258 2.105 . S
Sc242 O261 2.105 . S
Sc243 O245 2.025 . S
Sc243 O253 2.105 . S
Sc243 O257 2.105 . S
Sc243 O259 2.105 . S
Sc243 O263 2.105 . S
Sc244 O245 2.025 . S
Sc244 O254 2.105 . S
Sc244 O256 2.105 . S
Sc244 O260 2.105 . S
Sc244 O262 2.105 . S
O245 Sc242 2.025 . S
O245 Sc243 2.025 . S
O245 Sc244 2.025 . S
C246 O252 1.268 . S
C246 O262 1.268 . S
C247 O253 1.268 . S
C247 O261 1.268 . S
C248 O254 1.268 . S
C248 O263 1.268 . S
C249 O255 1.268 . S
C249 O259 1.268 . S
C250 O256 1.268 . S
C250 O258 1.268 . S
C251 O257 1.268 . S
C251 O260 1.268 . S
O252 Sc242 2.105 . S
O252 C246 1.268 . S
O253 Sc243 2.105 . S
O253 C247 1.268 . S
O254 Sc244 2.105 . S
O254 C248 1.268 . S
O255 Sc242 2.105 . S
O255 C249 1.268 . S
O256 Sc244 2.105 . S
O256 C250 1.268 . S
O257 Sc243 2.105 . S
O257 C251 1.268 . S
O258 Sc242 2.105 . S
O258 C250 1.268 . S
O259 Sc243 2.105 . S
O259 C249 1.268 . S
O260 Sc244 2.105 . S
O260 C251 1.268 . S
O261 Sc242 2.105 . S
O261 C247 1.268 . S
O262 Sc244 2.105 . S
O262 C246 1.268 . S
O263 Sc243 2.105 . S
O263 C248 1.268 . S
C5 C161 1.368 . S
C94 C31 1.368 . S
C53 C117 1.368 . S
C71 C139 1.368 . S
C75 C204 1.368 . S
C9 C227 1.368 . S
C248 C27 1.368 . S
C49 C182 1.368 . S
C93 C7 1.368 . S
C119 C28 1.368 . S
C141 C50 1.368 . S
C73 C163 1.368 . S
C72 C181 1.368 . S
C6 C203 1.368 . S
C229 C29 1.368 . S
C247 C51 1.368 . S
C95 C159 1.368 . S
C207 C183 1.368 . S
C205 C225 1.368 . S
C251 C226 1.368 . S
C249 C185 1.368 . S
C138 C115 1.368 . S
C137 C160 1.368 . S
C97 C116 1.368 . S
C70 C8 1.511 1_565 S
C4 C26 1.511 1_455 S
C30 C48 1.511 1_545 S
C74 C52 1.511 1_455 S
C224 C96 1.511 1_556 S
C250 C114 1.511 1_556 S
C136 C184 1.511 1_554 S
C206 C158 1.511 1_556 S
C162 C118 1.511 1_455 S
C246 C202 1.511 1_655 S
C228 C180 1.511 1_545 S
C140 C92 1.511 1_565 S
