# Generated by pormake.
# Topology lcy-e, (6)-cn, num edge types: 1
# Building blocks:
#     Node 0, Type 0, BuildingBlock: KUMJIN_clean_sbu_0, # of connection points: 6
#     Node 1, Type 0, BuildingBlock: KUMJIN_clean_sbu_0, # of connection points: 6
#     Node 2, Type 0, BuildingBlock: KUMJIN_clean_sbu_0, # of connection points: 6
#     Node 3, Type 0, BuildingBlock: KUMJIN_clean_sbu_0, # of connection points: 6
#     Node 4, Type 0, BuildingBlock: KUMJIN_clean_sbu_0, # of connection points: 6
#     Node 5, Type 0, BuildingBlock: KUMJIN_clean_sbu_0, # of connection points: 6
#     Node 6, Type 0, BuildingBlock: KUMJIN_clean_sbu_0, # of connection points: 6
#     Node 7, Type 0, BuildingBlock: KUMJIN_clean_sbu_0, # of connection points: 6
#     Node 8, Type 0, BuildingBlock: KUMJIN_clean_sbu_0, # of connection points: 6
#     Node 9, Type 0, BuildingBlock: KUMJIN_clean_sbu_0, # of connection points: 6
#     Node 10, Type 0, BuildingBlock: KUMJIN_clean_sbu_0, # of connection points: 6
#     Node 11, Type 0, BuildingBlock: KUMJIN_clean_sbu_0, # of connection points: 6
#     Edge 12, Type (0, 0), BuildingBlock: UVAHIK_clean_linker_0, # of connection points: 2
#     Edge 13, Type (0, 0), BuildingBlock: UVAHIK_clean_linker_0, # of connection points: 2
#     Edge 14, Type (0, 0), BuildingBlock: UVAHIK_clean_linker_0, # of connection points: 2
#     Edge 15, Type (0, 0), BuildingBlock: UVAHIK_clean_linker_0, # of connection points: 2
#     Edge 16, Type (0, 0), BuildingBlock: UVAHIK_clean_linker_0, # of connection points: 2
#     Edge 17, Type (0, 0), BuildingBlock: UVAHIK_clean_linker_0, # of connection points: 2
#     Edge 18, Type (0, 0), BuildingBlock: UVAHIK_clean_linker_0, # of connection points: 2
#     Edge 19, Type (0, 0), BuildingBlock: UVAHIK_clean_linker_0, # of connection points: 2
#     Edge 20, Type (0, 0), BuildingBlock: UVAHIK_clean_linker_0, # of connection points: 2
#     Edge 21, Type (0, 0), BuildingBlock: UVAHIK_clean_linker_0, # of connection points: 2
#     Edge 22, Type (0, 0), BuildingBlock: UVAHIK_clean_linker_0, # of connection points: 2
#     Edge 23, Type (0, 0), BuildingBlock: UVAHIK_clean_linker_0, # of connection points: 2
#     Edge 24, Type (0, 0), BuildingBlock: UVAHIK_clean_linker_0, # of connection points: 2
#     Edge 25, Type (0, 0), BuildingBlock: UVAHIK_clean_linker_0, # of connection points: 2
#     Edge 26, Type (0, 0), BuildingBlock: UVAHIK_clean_linker_0, # of connection points: 2
#     Edge 27, Type (0, 0), BuildingBlock: UVAHIK_clean_linker_0, # of connection points: 2
#     Edge 28, Type (0, 0), BuildingBlock: UVAHIK_clean_linker_0, # of connection points: 2
#     Edge 29, Type (0, 0), BuildingBlock: UVAHIK_clean_linker_0, # of connection points: 2
#     Edge 30, Type (0, 0), BuildingBlock: UVAHIK_clean_linker_0, # of connection points: 2
#     Edge 31, Type (0, 0), BuildingBlock: UVAHIK_clean_linker_0, # of connection points: 2
#     Edge 32, Type (0, 0), BuildingBlock: UVAHIK_clean_linker_0, # of connection points: 2
#     Edge 33, Type (0, 0), BuildingBlock: UVAHIK_clean_linker_0, # of connection points: 2
#     Edge 34, Type (0, 0), BuildingBlock: UVAHIK_clean_linker_0, # of connection points: 2
#     Edge 35, Type (0, 0), BuildingBlock: UVAHIK_clean_linker_0, # of connection points: 2
#     Edge 36, Type (0, 0), BuildingBlock: UVAHIK_clean_linker_0, # of connection points: 2
#     Edge 37, Type (0, 0), BuildingBlock: UVAHIK_clean_linker_0, # of connection points: 2
#     Edge 38, Type (0, 0), BuildingBlock: UVAHIK_clean_linker_0, # of connection points: 2
#     Edge 39, Type (0, 0), BuildingBlock: UVAHIK_clean_linker_0, # of connection points: 2
#     Edge 40, Type (0, 0), BuildingBlock: UVAHIK_clean_linker_0, # of connection points: 2
#     Edge 41, Type (0, 0), BuildingBlock: UVAHIK_clean_linker_0, # of connection points: 2
#     Edge 42, Type (0, 0), BuildingBlock: UVAHIK_clean_linker_0, # of connection points: 2
#     Edge 43, Type (0, 0), BuildingBlock: UVAHIK_clean_linker_0, # of connection points: 2
#     Edge 44, Type (0, 0), BuildingBlock: UVAHIK_clean_linker_0, # of connection points: 2
#     Edge 45, Type (0, 0), BuildingBlock: UVAHIK_clean_linker_0, # of connection points: 2
#     Edge 46, Type (0, 0), BuildingBlock: UVAHIK_clean_linker_0, # of connection points: 2
#     Edge 47, Type (0, 0), BuildingBlock: UVAHIK_clean_linker_0, # of connection points: 2
# Relax obj value: 0.116
# Max RMSD: 0.280
# Mean RMSD: 0.278
data_MOF--net-lcy-e--node1-KUMJIN_clean_sbu_0--edge1-UVAHIK_clean_linker_0
_symmetry_space_group_name_H-M    P1
_symmetry_Int_Tables_number       1
_symmetry_cell_setting            triclinic
loop_
_symmetry_equiv_pos_as_xyz
'x, y, z'
_cell_length_a     53.904658
_cell_length_b     53.818181
_cell_length_c     53.947623
_cell_angle_alpha  89.715825
_cell_angle_beta   90.263659
_cell_angle_gamma 90.414674
loop_
_atom_site_label
_atom_site_type_symbol
_atom_site_fract_x
_atom_site_fract_y
_atom_site_fract_z
_atom_type_partial_charge
Eu0 Eu 0.14584 0.21246 0.52475 0.0
C1 C 0.06159 0.2581 0.45612 0.0
C2 C 0.05548 0.22769 0.42375 0.0
C3 C 0.02185 0.25531 0.43472 0.0
C4 C 0.07058 0.23891 0.44203 0.0
C5 C 0.03731 0.26698 0.45223 0.0
C6 C 0.03096 0.23577 0.42043 0.0
C7 C 0.04662 0.30045 0.4805 0.0
N8 N 0.07731 0.26951 0.47214 0.0
C9 C 0.07064 0.2912 0.4833 0.0
C10 C 0.02973 0.28806 0.46515 0.0
Eu11 Eu 0.11808 0.25358 0.47584 0.0
N12 N 0.09452 0.23201 0.44536 0.0
C13 C 0.10489 0.21481 0.43009 0.0
C14 C 0.06568 0.20915 0.40894 0.0
C15 C 0.09057 0.20285 0.41198 0.0
H16 H 0.0839 0.30126 0.49454 0.0
H17 H 0.09878 0.18883 0.40035 0.0
H18 H 0.01908 0.22739 0.40649 0.0
H19 H 0.04128 0.3173 0.48988 0.0
H20 H 0.12412 0.2098 0.43209 0.0
H21 H 0.17085 0.27003 0.60427 0.0
H22 H 0.05465 0.19997 0.39481 0.0
H23 H 0.17856 0.16764 0.49767 0.0
H24 H 0.1426 0.25049 0.57394 0.0
H25 H 0.22163 0.15197 0.49744 0.0
H26 H 1.00311 0.26177 0.43154 0.0
H27 H 0.21569 0.26059 0.60355 0.0
H28 H 0.25047 0.23559 0.58568 0.0
H29 H 0.01124 0.29547 0.46267 0.0
H30 H 0.26421 0.20313 0.55694 0.0
N31 N 0.1713 0.2313 0.55524 0.0
C32 C 0.16215 0.24641 0.57321 0.0
C33 C 0.2034 0.25214 0.59001 0.0
C34 C 0.21236 0.23518 0.57269 0.0
C35 C 0.1781 0.25746 0.59052 0.0
C36 C 0.19558 0.22479 0.55541 0.0
H37 H 0.25352 0.17158 0.52424 0.0
N38 N 0.18634 0.196 0.5239 0.0
C39 C 0.21673 0.16733 0.50927 0.0
C40 C 0.2033 0.20641 0.53941 0.0
C41 C 0.1924 0.17617 0.50948 0.0
C42 C 0.2347 0.1785 0.52439 0.0
C43 C 0.22802 0.19808 0.53996 0.0
O44 O 0.13919 0.17349 0.53475 0.0
O45 O 0.11711 0.21728 0.49549 0.0
O46 O 0.09062 0.25211 0.50798 0.0
O47 O 0.11523 0.236 0.54042 0.0
O48 O 0.13297 0.18282 0.49712 0.0
O49 O 0.12917 0.20262 0.5603 0.0
O50 O 0.12808 0.29151 0.46506 0.0
O51 O 0.14491 0.25034 0.50729 0.0
O52 O 0.17536 0.22296 0.49731 0.0
O53 O 0.15063 0.22964 0.46257 0.0
O54 O 0.12782 0.28454 0.50207 0.0
O55 O 0.13555 0.26141 0.44001 0.0
C56 C 0.11603 0.19587 0.48645 0.0
C57 C 0.14056 0.16375 0.57757 0.0
C58 C 0.13678 0.12823 0.60587 0.0
C59 C 0.12819 0.1418 0.58514 0.0
C60 C 0.15805 0.13661 0.61855 0.0
C61 C 0.16191 0.17155 0.59039 0.0
C62 C 0.1706 0.158 0.61071 0.0
C63 C 0.09491 0.24676 0.53173 0.0
C64 C 0.13078 0.17869 0.55675 0.0
C65 C 0.24508 0.20914 0.55636 0.0
C66 C 0.23726 0.22766 0.57269 0.0
C67 C 0.14323 0.27229 0.51565 0.0
C68 C 0.12533 0.30023 0.42237 0.0
C69 C 0.14132 0.31168 0.40517 0.0
C70 C 0.13156 0.32694 0.38631 0.0
C71 C 0.10579 0.33024 0.38452 0.0
C72 C 0.09963 0.30364 0.42009 0.0
C73 C 0.08994 0.3185 0.40125 0.0
C74 C 0.17242 0.22496 0.47311 0.0
C75 C 0.13547 0.2854 0.443 0.0
H76 H 0.11167 0.13565 0.57534 0.0
H77 H 0.16507 0.12644 0.63445 0.0
H78 H 0.17174 0.18823 0.58485 0.0
H79 H 0.18704 0.16421 0.62055 0.0
H80 H 0.16121 0.30922 0.40678 0.0
H81 H 0.09793 0.34182 0.37003 0.0
H82 H 0.08702 0.29509 0.43296 0.0
H83 H 0.07009 0.32106 0.39973 0.0
Eu84 Eu 0.01079 0.86981 0.73536 0.0
C85 C 0.0782 0.95504 0.77715 0.0
C86 C 0.10902 0.96127 0.74519 0.0
C87 C 0.097 0.99584 0.77122 0.0
C88 C 0.09217 0.94574 0.758 0.0
C89 C 0.08094 0.98003 0.78447 0.0
C90 C 0.11098 0.98648 0.75156 0.0
C91 C 0.05368 0.97127 0.8189 0.0
N92 N 0.06307 0.93922 0.78967 0.0
C93 C 0.05173 0.94663 0.81102 0.0
C94 C 0.06808 0.98816 0.80537 0.0
Eu95 Eu 0.06036 0.89773 0.77522 0.0
N96 N 0.08981 0.92131 0.75235 0.0
C97 C 0.10494 0.91084 0.73511 0.0
C98 C 0.12366 0.95089 0.72663 0.0
C99 C 0.12182 0.92549 0.72179 0.0
H100 H 0.04071 0.93356 0.82162 0.0
H101 H 0.13334 0.91719 0.70774 0.0
H102 H 0.12364 0.99875 0.74178 0.0
H103 H 0.04417 0.97719 0.83546 0.0
H104 H 0.10367 0.89127 0.73107 0.0
H105 H 0.93236 0.84219 0.79325 0.0
H106 H 0.13673 0.96221 0.71626 0.0
H107 H 0.03679 0.83888 0.68859 0.0
H108 H 0.96235 0.8713 0.77429 0.0
H109 H 0.03636 0.79659 0.67092 0.0
H110 H 0.09918 0.01516 0.7764 0.0
H111 H 0.93288 0.79769 0.78203 0.0
H112 H 0.95014 0.76396 0.75519 0.0
H113 H 0.06972 1.00721 0.81162 0.0
H114 H 0.97805 0.75167 0.72148 0.0
N115 N 0.98088 0.84333 0.7539 0.0
C116 C 0.9631 0.85186 0.76957 0.0
C117 C 0.94633 0.81033 0.77391 0.0
C118 C 0.96335 0.80208 0.7563 0.0
C119 C 0.94594 0.83544 0.78024 0.0
C120 C 0.98051 0.81931 0.74636 0.0
H121 H 0.00993 0.7638 0.68965 0.0
N122 N 0.01125 0.8299 0.71724 0.0
C123 C 0.02496 0.80078 0.68679 0.0
C124 C 0.996 0.81243 0.72726 0.0
C125 C 0.02513 0.82471 0.6968 0.0
C126 C 0.01007 0.78231 0.69747 0.0
C127 C 0.99509 0.78808 0.71776 0.0
O128 O 0.99961 0.87785 0.69714 0.0
O129 O 0.04021 0.89871 0.73931 0.0
O130 O 0.0284 0.92539 0.77256 0.0
O131 O 0.99521 0.89992 0.7597 0.0
O132 O 0.03768 0.88273 0.7051 0.0
O133 O 0.97484 0.88647 0.72741 0.0
O134 O 0.07226 0.89005 0.81328 0.0
O135 O 0.02924 0.87029 0.77271 0.0
O136 O 0.03842 0.84015 0.74457 0.0
O137 O 0.07354 0.86457 0.75153 0.0
O138 O 0.03437 0.88807 0.80653 0.0
O139 O 0.0967 0.88132 0.7831 0.0
C140 C 0.04876 0.89981 0.71771 0.0
C141 C 0.95663 0.87609 0.68885 0.0
C142 C 0.92772 0.88053 0.65416 0.0
C143 C 0.94848 0.88907 0.66766 0.0
C144 C 0.91555 0.85865 0.66187 0.0
C145 C 0.9443 0.85421 0.6961 0.0
C146 C 0.92391 0.84553 0.68262 0.0
C147 C 1.00444 0.92098 0.76845 0.0
C148 C 0.9777 0.88573 0.70339 0.0
C149 C 0.97889 0.77052 0.7284 0.0
C150 C 0.96305 0.77751 0.74763 0.0
C151 C 0.02098 0.87218 0.79461 0.0
C152 C 0.11531 0.89428 0.8207 0.0
C153 C 0.13446 0.87962 0.83086 0.0
C154 C 0.15472 0.89103 0.84311 0.0
C155 C 0.15532 0.91703 0.8454 0.0
C156 C 0.11642 0.92018 0.82339 0.0
C157 C 0.13624 0.93145 0.83568 0.0
C158 C 0.06272 0.84302 0.7458 0.0
C159 C 0.09437 0.88276 0.80708 0.0
H160 H 0.95791 0.90603 0.66202 0.0
H161 H 0.89966 0.85158 0.65167 0.0
H162 H 0.95029 0.84392 0.71226 0.0
H163 H 0.91447 0.82865 0.68834 0.0
H164 H 0.13386 0.85959 0.82886 0.0
H165 H 0.17056 0.92621 0.8549 0.0
H166 H 0.10199 0.93181 0.81606 0.0
H167 H 0.13684 0.95145 0.83763 0.0
Eu168 Eu 0.39871 0.75954 0.98013 0.0
C169 C 0.3288 0.82951 0.0168 0.0
C170 C 0.33155 0.86426 0.98816 0.0
C171 C 0.29129 0.85072 1.00308 0.0
C172 C 0.34309 0.84531 1.00227 0.0
C173 C 0.30277 0.83256 0.01781 0.0
C174 C 0.30564 0.8665 0.98825 0.0
C175 C 0.30126 0.80106 0.04961 0.0
N176 N 0.34028 0.81183 0.03065 0.0
C177 C 0.32698 0.79875 0.04803 0.0
C178 C 0.28901 0.81767 0.03406 0.0
Eu179 Eu 0.38407 0.80782 0.02539 0.0
N180 N 0.36817 0.84246 1.00211 0.0
C181 C 0.38267 0.85974 0.9901 0.0
C182 C 0.34636 0.88066 0.97451 0.0
C183 C 0.37203 0.87863 0.97584 0.0
H184 H 0.336 0.78676 0.06132 0.0
H185 H 0.38372 0.89181 0.96605 0.0
H186 H 0.29654 0.88069 0.97725 0.0
H187 H 0.29095 0.79025 0.0631 0.0
H188 H 0.40256 0.85981 0.99147 0.0
H189 H 0.4101 0.68188 0.04454 0.0
H190 H 0.33819 0.89535 0.96343 0.0
H191 H 0.43494 0.77057 0.93046 0.0
H192 H 0.38713 0.71284 0.01979 0.0
H193 H 0.47858 0.76461 0.91779 0.0
H194 H 0.27134 0.85302 1.00339 0.0
H195 H 0.45575 0.67909 0.0407 0.0
H196 H 0.49453 0.69238 0.0183 0.0
H197 H 0.26906 0.81952 0.0354 0.0
H198 H 0.51341 0.71524 0.98344 0.0
N199 N 0.41933 0.72814 1.00304 0.0
C200 C 0.40697 0.71195 0.01816 0.0
C201 C 0.44571 0.69281 0.02993 0.0
C202 C 0.45799 0.7081 0.01281 0.0
C203 C 0.41996 0.69425 0.03207 0.0
C204 C 0.44401 0.72559 0.99922 0.0
H205 H 0.50742 0.74174 0.94533 0.0
N206 N 0.4397 0.75283 0.96547 0.0
C207 C 0.47218 0.75739 0.93542 0.0
C208 C 0.45461 0.73846 0.97976 0.0
C209 C 0.44754 0.76069 0.9426 0.0
C210 C 0.48842 0.74457 0.95106 0.0
C211 C 0.47949 0.73418 0.97316 0.0
O212 O 0.38995 0.75025 0.94147 0.0
O213 O 0.37295 0.7905 0.98936 0.0
O214 O 0.36772 0.77032 0.03754 0.0
O215 O 0.36236 0.75153 0.99948 0.0
O216 O 0.38762 0.79043 0.95391 0.0
O217 O 0.38016 0.72459 0.97039 0.0
O218 O 0.37898 0.81079 0.06557 0.0
O219 O 0.40278 0.77083 0.02029 0.0
O220 O 0.42767 0.78973 0.97576 0.0
O221 O 0.41643 0.82183 1.00242 0.0
O222 O 0.42345 0.79859 0.03647 0.0
O223 O 0.39821 0.84001 0.04571 0.0
C224 C 0.37206 0.80113 0.96844 0.0
C225 C 0.39054 0.7076 0.93156 0.0
C226 C 0.38561 0.67831 0.89725 0.0
C227 C 0.37701 0.69884 0.91086 0.0
C228 C 0.40806 0.66712 0.90432 0.0
C229 C 0.41293 0.69613 0.93811 0.0
C230 C 0.42165 0.67608 0.92449 0.0
C231 C 0.35703 0.75334 0.02321 0.0
C232 C 0.38114 0.72832 0.94658 0.0
C233 C 0.49413 0.71844 0.98795 0.0
C234 C 0.48338 0.70541 1.00779 0.0
C235 C 0.42312 0.77522 0.03141 0.0
C236 C 0.37752 0.85195 0.08227 0.0
C237 C 0.39181 0.87214 0.09121 0.0
C238 C 0.38084 0.8906 0.10587 0.0
C239 C 0.35553 0.88875 0.11155 0.0
C240 C 0.35221 0.85051 0.08821 0.0
C241 C 0.34135 0.86881 0.10278 0.0
C242 C 0.43056 0.81219 0.98504 0.0
C243 C 0.38945 0.83269 0.06698 0.0
H244 H 0.35965 0.70756 0.90573 0.0
H245 H 0.41519 0.65146 0.89409 0.0
H246 H 0.42358 0.70253 0.9539 0.0
H247 H 0.43894 0.66734 0.9297 0.0
H248 H 0.41137 0.8735 0.08677 0.0
H249 H 0.34676 0.90278 0.1228 0.0
H250 H 0.3408 0.83527 0.08171 0.0
H251 H 0.32183 0.86753 0.10729 0.0
Eu252 Eu 0.5193 0.14723 0.22709 0.0
C253 C 0.44895 0.06472 0.2699 0.0
C254 C 0.41701 0.06228 0.23834 0.0
C255 C 0.42655 0.02589 0.2633 0.0
C256 C 0.43539 0.07591 0.25126 0.0
C257 C 0.44423 0.03976 0.27662 0.0
C258 C 0.41295 0.03714 0.2442 0.0
C259 C 0.47277 0.04486 0.31088 0.0
N260 N 0.4656 0.07873 0.28262 0.0
C261 C 0.47659 0.06956 0.30364 0.0
C262 C 0.45677 0.02976 0.29709 0.0
Eu263 Eu 0.47133 0.12062 0.26977 0.0
N264 N 0.43976 0.10026 0.24612 0.0
C265 C 0.42535 0.11239 0.22904 0.0
C266 C 0.40298 0.07441 0.22016 0.0
C267 C 0.40701 0.09964 0.21569 0.0
H268 H 0.4887 0.08132 0.31458 0.0
H269 H 0.39608 0.10929 0.20185 0.0
H270 H 0.39904 0.02636 0.23435 0.0
H271 H 0.482 0.03756 0.32719 0.0
H272 H 0.42814 0.13177 0.22495 0.0
H273 H 0.59763 0.17118 0.28768 0.0
H274 H 0.38879 0.06457 0.20976 0.0
H275 H 0.50188 0.17923 0.17663 0.0
H276 H 0.56866 0.14327 0.26596 0.0
H277 H 0.5029 0.22256 0.16091 0.0
H278 H 0.42282 1.00663 0.26803 0.0
H279 H 0.59558 0.21657 0.28074 0.0
H280 H 0.57792 0.25219 0.25623 0.0
H281 H 0.45363 0.01069 0.30285 0.0
H282 H 0.55207 0.26631 0.22123 0.0
N283 N 0.54932 0.1725 0.24756 0.0
C284 C 0.56736 0.16299 0.26267 0.0
C285 C 0.58266 0.20439 0.2712 0.0
C286 C 0.56571 0.2138 0.25389 0.0
C287 C 0.58395 0.17878 0.27506 0.0
C288 C 0.5493 0.1971 0.242 0.0
H289 H 0.52453 0.25525 0.18505 0.0
N290 N 0.52147 0.18781 0.2098 0.0
C291 C 0.5118 0.21795 0.17834 0.0
C292 C 0.5349 0.20503 0.22235 0.0
C293 C 0.51128 0.19349 0.18723 0.0
C294 C 0.52393 0.23636 0.19208 0.0
C295 C 0.5363 0.22987 0.21403 0.0
O296 O 0.52886 0.13872 0.18864 0.0
O297 O 0.49082 0.11781 0.23379 0.0
O298 O 0.50394 0.09368 0.26992 0.0
O299 O 0.5356 0.11725 0.25128 0.0
O300 O 0.49193 0.13208 0.1984 0.0
O301 O 0.55496 0.13068 0.21796 0.0
O302 O 0.46074 0.12352 0.30874 0.0
O303 O 0.50157 0.14926 0.26498 0.0
O304 O 0.48838 0.17482 0.22721 0.0
O305 O 0.45636 0.1546 0.24878 0.0
O306 O 0.49949 0.13037 0.29887 0.0
O307 O 0.43826 0.14116 0.28066 0.0
C308 C 0.48168 0.11552 0.21243 0.0
C309 C 0.57135 0.14103 0.17872 0.0
C310 C 0.59975 0.13649 0.14387 0.0
C311 C 0.5797 0.12755 0.1581 0.0
C312 C 0.61098 0.15924 0.15033 0.0
C313 C 0.5827 0.16378 0.18468 0.0
C314 C 0.60239 0.17281 0.1705 0.0
C315 C 0.52741 0.09759 0.26359 0.0
C316 C 0.55108 0.13111 0.1941 0.0
C317 C 0.55103 0.24705 0.2271 0.0
C318 C 0.56573 0.23901 0.24703 0.0
C319 C 0.5113 0.14714 0.28644 0.0
C320 C 0.41753 0.12557 0.31586 0.0
C321 C 0.40041 0.14193 0.32656 0.0
C322 C 0.37812 0.13266 0.33661 0.0
C323 C 0.37321 0.10703 0.33609 0.0
C324 C 0.41236 0.09997 0.31584 0.0
C325 C 0.39035 0.09078 0.32589 0.0
C326 C 0.46527 0.17301 0.23493 0.0
C327 C 0.44023 0.13533 0.30404 0.0
H328 H 0.57098 0.10995 0.15347 0.0
H329 H 0.62629 0.16667 0.13958 0.0
H330 H 0.57645 0.17445 0.20037 0.0
H331 H 0.6111 0.19036 0.17522 0.0
H332 H 0.4042 0.16175 0.32671 0.0
H333 H 0.35618 0.09957 0.34382 0.0
H334 H 0.42525 0.08702 0.30805 0.0
H335 H 0.38653 0.07101 0.32571 0.0
Eu336 Eu 0.63479 0.25637 0.54675 0.0
C337 C 0.70726 0.32681 0.51701 0.0
C338 C 0.70168 0.36334 0.54241 0.0
C339 C 0.74323 0.34895 0.5337 0.0
C340 C 0.6916 0.34341 0.52851 0.0
C341 C 0.73329 0.32985 0.51902 0.0
C342 C 0.72746 0.36565 0.54538 0.0
C343 C 0.73806 0.29657 0.48985 0.0
N344 N 0.6972 0.30836 0.50303 0.0
C345 C 0.71227 0.29445 0.48823 0.0
C346 C 0.74865 0.31399 0.50574 0.0
Eu347 Eu 0.65301 0.3048 0.5026 0.0
N348 N 0.66665 0.34059 0.52559 0.0
C349 C 0.6512 0.35899 0.5337 0.0
C350 C 0.6856 0.38069 0.55264 0.0
C351 C 0.66031 0.37876 0.54782 0.0
H352 H 0.7048 0.28196 0.47451 0.0
H353 H 0.64779 0.39279 0.5546 0.0
H354 H 0.7354 0.38062 0.55625 0.0
H355 H 0.74975 0.28503 0.47847 0.0
H356 H 0.6318 0.35936 0.52892 0.0
H357 H 0.61789 0.1821 0.47998 0.0
H358 H 0.69262 0.39613 0.56348 0.0
H359 H 0.60041 0.26607 0.59741 0.0
H360 H 0.64307 0.21087 0.50533 0.0
H361 H 0.55681 0.26096 0.611 0.0
H362 H 0.76312 0.35127 0.53572 0.0
H363 H 0.5722 0.18132 0.48436 0.0
H364 H 0.5346 0.19536 0.50779 0.0
H365 H 0.76867 0.31573 0.50682 0.0
H366 H 0.5177 0.21724 0.54387 0.0
N367 N 0.61206 0.22698 0.52303 0.0
C368 C 0.62322 0.21086 0.50723 0.0
C369 C 0.5832 0.1941 0.4954 0.0
C370 C 0.57209 0.20921 0.51316 0.0
C371 C 0.60898 0.1944 0.49296 0.0
C372 C 0.58729 0.22546 0.52708 0.0
H373 H 0.52603 0.24115 0.58307 0.0
N374 N 0.59373 0.25087 0.5617 0.0
C375 C 0.56235 0.25467 0.59284 0.0
C376 C 0.57776 0.23791 0.54714 0.0
C377 C 0.58696 0.2575 0.58515 0.0
C378 C 0.54502 0.2436 0.57697 0.0
C379 C 0.55282 0.23424 0.55415 0.0
O380 O 0.645 0.24661 0.58497 0.0
O381 O 0.66289 0.28622 0.53845 0.0
O382 O 0.66777 0.26684 0.49003 0.0
O383 O 0.67027 0.24575 0.52744 0.0
O384 O 0.64677 0.28651 0.57335 0.0
O385 O 0.64863 0.21936 0.5564 0.0
O386 O 0.66139 0.30534 0.46284 0.0
O387 O 0.63187 0.26889 0.50677 0.0
O388 O 0.60666 0.28707 0.55095 0.0
O389 O 0.62013 0.31911 0.52475 0.0
O390 O 0.61327 0.29827 0.49077 0.0
O391 O 0.64419 0.33766 0.47978 0.0
C392 C 0.6634 0.29671 0.5594 0.0
C393 C 0.63789 0.2049 0.59644 0.0
C394 C 0.63866 0.17834 0.63356 0.0
C395 C 0.6504 0.19566 0.61755 0.0
C396 C 0.61404 0.17105 0.62821 0.0
C397 C 0.61371 0.19661 0.59128 0.0
C398 C 0.60182 0.17998 0.60719 0.0
C399 C 0.67655 0.24846 0.504 0.0
C400 C 0.64976 0.22354 0.5801 0.0
C401 C 0.53703 0.2199 0.53906 0.0
C402 C 0.54666 0.20741 0.51853 0.0
C403 C 0.61198 0.27478 0.49553 0.0
C404 C 0.6524 0.34045 0.43518 0.0
C405 C 0.63976 0.36319 0.43128 0.0
C406 C 0.63899 0.37426 0.40741 0.0
C407 C 0.65151 0.36262 0.38788 0.0
C408 C 0.66462 0.32942 0.41517 0.0
C409 C 0.66424 0.3405 0.39178 0.0
C410 C 0.60498 0.3098 0.54175 0.0
C411 C 0.65256 0.32762 0.45964 0.0
H412 H 0.66926 0.20172 0.62122 0.0
H413 H 0.60403 0.1585 0.64038 0.0
H414 H 0.60395 0.20302 0.57498 0.0
H415 H 0.583 0.17402 0.60324 0.0
H416 H 0.63008 0.37187 0.44648 0.0
H417 H 0.65161 0.37079 0.36948 0.0
H418 H 0.67451 0.31211 0.41755 0.0
H419 H 0.6738 0.33182 0.37653 0.0
Eu420 Eu 0.97095 0.39961 0.75857 0.0
C421 C 0.99956 0.33146 0.83383 0.0
C422 C 0.97457 0.34045 0.86986 0.0
C423 C 0.98233 0.29762 0.85876 0.0
C424 C 0.9885 0.34867 0.84916 0.0
C425 C 0.99706 0.30574 0.83891 0.0
C426 C 0.97116 0.31494 0.87423 0.0
C427 C 0.02605 0.29775 0.80617 0.0
N428 N 0.01367 0.33975 0.81468 0.0
C429 C 0.02821 0.32331 0.80207 0.0
C430 C 0.00997 0.28887 0.82431 0.0
Eu431 Eu 0.01517 0.3836 0.80773 0.0
N432 N 0.99202 0.37332 0.84446 0.0
C433 C 0.98441 0.39035 0.86164 0.0
C434 C 0.96482 0.35808 0.88593 0.0
C435 C 0.97019 0.3831 0.88205 0.0
H436 H 0.04208 0.32955 0.7891 0.0
H437 H 0.96381 0.39684 0.8951 0.0
H438 H 0.96034 0.30842 0.88987 0.0
H439 H 0.03718 0.28495 0.79562 0.0
H440 H 0.98965 0.40965 0.86059 0.0
H441 H 0.04196 0.40993 0.68733 0.0
H442 H 0.95396 0.35251 0.9019 0.0
H443 H 0.9221 0.43698 0.76743 0.0
H444 H 0.01508 0.38735 0.71679 0.0
H445 H 0.91031 0.48072 0.75957 0.0
H446 H 0.97996 0.27798 0.86266 0.0
H447 H 0.03726 0.45533 0.68172 0.0
H448 H 0.0136 0.49417 0.69142 0.0
H449 H 1.00849 0.26904 0.82761 0.0
H450 H 0.9778 0.51365 0.71153 0.0
N451 N 0.99611 0.41961 0.72853 0.0
C452 C 0.01301 0.4071 0.71467 0.0
C453 C 0.02552 0.44548 0.69478 0.0
C454 C 1.00706 0.45791 0.70791 0.0
C455 C 0.02818 0.41986 0.69785 0.0
C456 C 0.99235 0.44423 0.72477 0.0
H457 H 0.93884 0.50867 0.73661 0.0
N458 N 0.95756 0.44087 0.7507 0.0
C459 C 0.92799 0.4739 0.75317 0.0
C460 C 0.97247 0.45526 0.73633 0.0
C461 C 0.9347 0.44923 0.7576 0.0
C462 C 0.94418 0.48963 0.74028 0.0
C463 C 0.9664 0.48017 0.73101 0.0
O464 O 0.93251 0.38994 0.74902 0.0
O465 O 0.97917 0.37349 0.78984 0.0
O466 O 0.02599 0.36514 0.77121 0.0
O467 O 0.98804 0.36235 0.75121 0.0
O468 O 0.94421 0.3893 0.78922 0.0
O469 O 0.96114 0.38401 0.7223 0.0
O470 O 0.05483 0.37511 0.80656 0.0
O471 O 0.01115 0.40247 0.77071 0.0
O472 O 0.96632 0.42838 0.78833 0.0
O473 O 0.9945 0.41825 0.81987 0.0
O474 O 0.02766 0.42272 0.7987 0.0
O475 O 0.03921 0.39198 0.83972 0.0
C476 C 0.95828 0.37337 0.80034 0.0
C477 C 0.92112 0.39402 0.70699 0.0
C478 C 0.8835 0.39191 0.68134 0.0
C479 C 0.89982 0.38095 0.69873 0.0
C480 C 0.88893 0.41585 0.67224 0.0
C481 C 0.92625 0.4177 0.69724 0.0
C482 C 0.91022 0.42853 0.68002 0.0
C483 C 0.01113 0.35517 0.75429 0.0
C484 C 0.93738 0.38344 0.72643 0.0
C485 C 0.98194 0.49437 0.71553 0.0
C486 C 1.00228 0.48326 0.70402 0.0
C487 C 0.02289 0.42254 0.77522 0.0
C488 C 0.08378 0.3835 0.84058 0.0
C489 C 0.08772 0.39313 0.86463 0.0
C490 C 0.11182 0.39395 0.87498 0.0
C491 C 0.13173 0.38461 0.8612 0.0
C492 C 0.10407 0.37426 0.82733 0.0
C493 C 0.12783 0.37476 0.83764 0.0
C494 C 0.97655 0.432 0.81027 0.0
C495 C 0.05889 0.38359 0.82879 0.0
H496 H 0.89569 0.36264 0.70617 0.0
H497 H 0.87677 0.42465 0.65884 0.0
H498 H 0.94261 0.4279 0.70301 0.0
H499 H 0.91428 0.44687 0.67273 0.0
H500 H 0.07228 0.40046 0.87503 0.0
H501 H 0.15038 0.38474 0.86878 0.0
H502 H 0.10164 0.36675 0.80888 0.0
H503 H 0.14333 0.36759 0.82726 0.0
Eu504 Eu 0.88696 0.77224 0.05524 0.0
C505 C 0.81155 0.70616 0.01417 0.0
C506 C 0.80982 0.67128 0.04277 0.0
C507 C 0.77198 0.68589 0.02336 0.0
C508 C 0.82359 0.68989 0.03012 0.0
C509 C 0.78564 0.70391 1.01032 0.0
C510 C 0.78405 0.66959 0.03951 0.0
C511 C 0.78856 0.73577 0.979 0.0
N512 N 0.82512 0.72352 1.00173 0.0
C513 C 0.81409 0.7372 0.98323 0.0
C514 C 0.77417 0.71938 0.99292 0.0
Eu515 Eu 0.86861 0.72506 1.01069 0.0
N516 N 0.84859 0.69204 0.03324 0.0
C517 C 0.86085 0.6749 0.04759 0.0
C518 C 0.82231 0.65472 0.05831 0.0
C519 C 0.84795 0.65638 0.06049 0.0
H520 H 0.82481 0.74887 0.97092 0.0
H521 H 0.85789 0.64329 0.07207 0.0
H522 H 0.77331 0.65552 0.04919 0.0
H523 H 0.78008 0.74701 0.96463 0.0
H524 H 0.88061 0.67486 0.04949 0.0
H525 H 0.91051 0.84723 0.99098 0.0
H526 H 0.81237 0.64033 0.06839 0.0
H527 H 0.91768 0.75593 0.10695 0.0
H528 H 0.88296 0.81758 0.0128 0.0
H529 H 0.95967 0.76079 0.12525 0.0
H530 H 0.75211 0.6841 0.02074 0.0
H531 H 0.95528 0.84874 1.00127 0.0
H532 H 0.99009 0.8348 0.02913 0.0
H533 H 0.75439 0.71815 0.98943 0.0
H534 H 1.00345 0.81145 0.06613 0.0
N535 N 0.91198 0.80166 0.03414 0.0
C536 C 0.90247 0.81792 0.0172 0.0
C537 C 0.94329 0.83555 1.01071 0.0
C538 C 0.9525 0.82021 0.02961 0.0
C539 C 0.91802 0.83483 1.00492 0.0
C540 C 0.93609 0.80338 0.0413 0.0
H541 H 0.99201 0.78444 0.10257 0.0
N542 N 0.92664 0.77593 0.07405 0.0
C543 C 0.95546 0.76902 0.10739 0.0
C544 C 0.94362 0.79026 0.06208 0.0
C545 C 0.93175 0.76636 0.09705 0.0
C546 C 0.97369 0.7823 0.09448 0.0
C547 C 0.96774 0.79357 0.07178 0.0
O548 O 0.87742 0.78291 0.09323 0.0
O549 O 0.85869 0.74272 0.04673 0.0
O550 O 0.85493 0.76344 0.99787 0.0
O551 O 0.85231 0.78456 0.03493 0.0
O552 O 0.87421 0.74217 0.08193 0.0
O553 O 0.87194 0.80885 0.06317 0.0
O554 O 0.86523 0.72134 0.97047 0.0
O555 O 0.88986 0.76097 0.01512 0.0
O556 O 0.91706 0.74311 0.05581 0.0
O557 O 0.89957 0.70934 0.03504 0.0
O558 O 0.90823 0.73191 0.99898 0.0
O559 O 0.88126 0.69149 0.99221 0.0
C560 C 0.85762 0.73222 0.06773 0.0
C561 C 0.88336 0.82553 0.10196 0.0
C562 C 0.88297 0.85245 0.13818 0.0
C563 C 0.87276 0.83256 0.12463 0.0
C564 C 0.90407 0.86491 0.12916 0.0
C565 C 0.90457 0.83814 0.09335 0.0
C566 C 0.91489 0.85762 0.10695 0.0
C567 C 0.84616 0.78189 1.01143 0.0
C568 C 0.87186 0.80561 0.0871 0.0
C569 C 0.98471 0.80894 0.05917 0.0
C570 C 0.97711 0.82222 0.03808 0.0
C571 C 0.90974 0.7552 1.00407 0.0
C572 C 0.86257 0.68025 0.95414 0.0
C573 C 0.87718 0.66106 0.94445 0.0
C574 C 0.86689 0.6438 0.9278 0.0
C575 C 0.84175 0.64565 0.92119 0.0
C576 C 0.83738 0.6816 0.94761 0.0
C577 C 0.82706 0.66431 0.93124 0.0
C578 C 0.91717 0.7196 0.04893 0.0
C579 C 0.87439 0.69896 0.97025 0.0
H580 H 0.85633 0.82301 0.1314 0.0
H581 H 0.91218 0.88025 0.13939 0.0
H582 H 0.91297 0.8332 0.07594 0.0
H583 H 0.93119 0.86728 0.10013 0.0
H584 H 0.89668 0.65993 0.94936 0.0
H585 H 0.83347 0.63252 0.90837 0.0
H586 H 0.82573 0.69605 0.9549 0.0
H587 H 0.80765 0.66551 0.92616 0.0
Eu588 Eu 0.50284 0.63796 0.30222 0.0
C589 C 0.57271 0.55995 0.25388 0.0
C590 C 0.60428 0.55536 0.28565 0.0
C591 C 0.59432 0.52066 0.25869 0.0
C592 C 0.5862 0.56982 0.27338 0.0
C593 C 0.57705 0.53543 0.24592 0.0
C594 C 0.60788 0.5306 0.27854 0.0
C595 C 0.54853 0.54257 0.212 0.0
N596 N 0.55618 0.57468 0.24191 0.0
C597 C 0.54493 0.56674 0.22056 0.0
C598 C 0.56441 0.52671 0.22494 0.0
Eu599 Eu 0.55074 0.61533 0.25779 0.0
N600 N 0.58211 0.59373 0.27999 0.0
C601 C 0.59681 0.60488 0.29749 0.0
C602 C 0.6185 0.56635 0.30444 0.0
C603 C 0.615 0.59133 0.31011 0.0
H604 H 0.53282 0.57909 0.21036 0.0
H605 H 0.62616 0.60013 0.32434 0.0
H606 H 0.62147 0.51914 0.28795 0.0
H607 H 0.53916 0.53625 0.19539 0.0
H608 H 0.59426 0.62407 0.30235 0.0
H609 H 0.42501 0.66114 0.24089 0.0
H610 H 0.63249 0.55585 0.31436 0.0
H611 H 0.51733 0.66806 0.3543 0.0
H612 H 0.45433 0.63354 0.26234 0.0
H613 H 0.51365 0.71025 0.37203 0.0
H614 H 0.5977 0.5017 0.25302 0.0
H615 H 0.42597 0.70633 0.24893 0.0
H616 H 0.44225 0.74163 0.27477 0.0
H617 H 0.56727 0.50801 0.21823 0.0
H618 H 0.46651 0.75519 0.31108 0.0
N619 N 0.47272 0.66282 0.2817 0.0
C620 C 0.45511 0.65318 0.26612 0.0
C621 C 0.43905 0.6943 0.25835 0.0
C622 C 0.4555 0.70371 0.27615 0.0
C623 C 0.43835 0.66879 0.25388 0.0
C624 C 0.47213 0.68721 0.28786 0.0
H625 H 0.49248 0.74334 0.34814 0.0
N626 N 0.49929 0.67766 0.32054 0.0
C627 C 0.50596 0.70628 0.3539 0.0
C628 C 0.48583 0.69489 0.30811 0.0
C629 C 0.50792 0.68243 0.3439 0.0
C630 C 0.49413 0.72493 0.34029 0.0
C631 C 0.48321 0.71917 0.31742 0.0
O632 O 0.4944 0.62634 0.34033 0.0
O633 O 0.53191 0.60992 0.2941 0.0
O634 O 0.51865 0.58724 0.2562 0.0
O635 O 0.48703 0.60759 0.27785 0.0
O636 O 0.53105 0.62283 0.32993 0.0
O637 O 0.4664 0.62253 0.31207 0.0
O638 O 0.55798 0.6298 0.22055 0.0
O639 O 0.52027 0.64297 0.26422 0.0
O640 O 0.53323 0.66686 0.30325 0.0
O641 O 0.56502 0.64872 0.28015 0.0
O642 O 0.5215 0.62462 0.22996 0.0
O643 O 0.58807 0.62817 0.24666 0.0
C644 C 0.54144 0.60717 0.31531 0.0
C645 C 0.45286 0.63138 0.35294 0.0
C646 C 0.42858 0.62915 0.3913 0.0
C647 C 0.445 0.61811 0.37427 0.0
C648 C 0.42007 0.65333 0.3866 0.0
C649 C 0.4437 0.65536 0.34862 0.0
C650 C 0.42746 0.66623 0.36536 0.0
C651 C 0.49527 0.58956 0.26355 0.0
C652 C 0.47131 0.62083 0.33571 0.0
C653 C 0.46842 0.73632 0.30449 0.0
C654 C 0.45461 0.72859 0.28381 0.0
C655 C 0.50994 0.64097 0.24293 0.0
C656 C 0.59824 0.62431 0.20374 0.0
C657 C 0.62093 0.63666 0.19828 0.0
C658 C 0.63583 0.62887 0.17814 0.0
C659 C 0.62736 0.60875 0.16369 0.0
C660 C 0.59071 0.6043 0.18887 0.0
C661 C 0.60518 0.59657 0.16913 0.0
C662 C 0.55621 0.66633 0.29478 0.0
C663 C 0.5817 0.63306 0.22387 0.0
H664 H 0.45198 0.59959 0.37784 0.0
H665 H 0.40748 0.6622 0.39935 0.0
H666 H 0.44917 0.66577 0.33235 0.0
H667 H 0.42064 0.6848 0.3619 0.0
H668 H 0.62684 0.65219 0.20961 0.0
H669 H 0.63761 0.60262 0.14765 0.0
H670 H 0.57327 0.59493 0.19205 0.0
H671 H 0.59894 0.58127 0.15768 0.0
Eu672 Eu 0.2166 0.50996 0.14361 0.0
C673 C 0.25054 0.44218 0.06888 0.0
C674 C 0.22196 0.40728 0.07138 0.0
C675 C 0.23649 0.42134 0.03121 0.0
C676 C 0.23626 0.42607 0.08309 0.0
C677 C 0.25116 0.43955 0.04279 0.0
C678 C 0.2219 0.40528 0.04547 0.0
C679 C 0.28234 0.47172 0.04126 0.0
N680 N 0.26427 0.45999 0.0804 0.0
C681 C 0.28123 0.47357 0.06703 0.0
C682 C 0.26689 0.45498 0.02901 0.0
Eu683 Eu 0.26072 0.46254 0.12444 0.0
N684 N 0.23621 0.4287 0.1082 0.0
C685 C 0.22334 0.41184 0.12243 0.0
C686 C 0.20807 0.39092 0.08598 0.0
C687 C 0.20899 0.39308 0.11161 0.0
H688 H 0.29456 0.48563 0.07593 0.0
H689 H 0.19869 0.38017 0.12315 0.0
H690 H 0.2108 0.39118 0.03628 0.0
H691 H 0.29545 0.48297 0.0309 0.0
H692 H 0.22384 0.41208 0.14222 0.0
H693 H 0.28503 0.58113 0.16773 0.0
H694 H 0.19684 0.37637 0.07767 0.0
H695 H 0.16482 0.49477 0.17425 0.0
H696 H 0.26157 0.5531 0.13998 0.0
H697 H 0.14696 0.49974 0.21618 0.0
H698 H 0.23656 0.41932 1.01124 0.0
H699 H 0.27473 0.5827 0.21236 0.0
H700 H 0.24626 0.56962 0.24693 0.0
H701 H 0.26788 0.45349 1.00901 0.0
H702 H 0.20837 0.54757 0.26013 0.0
N703 N 0.23913 0.53817 0.16869 0.0
C704 C 0.25707 0.55353 0.15939 0.0
C705 C 0.26454 0.57022 0.20027 0.0
C706 C 0.24486 0.55572 0.2093 0.0
C707 C 0.27034 0.56948 0.17508 0.0
C708 C 0.23228 0.53972 0.19279 0.0
H709 H 0.17077 0.5221 0.24857 0.0
N710 N 0.19853 0.5134 0.18333 0.0
C711 C 0.16513 0.50733 0.21203 0.0
C712 C 0.21117 0.52707 0.20033 0.0
C713 C 0.17522 0.50458 0.18837 0.0
C714 C 0.17867 0.5199 0.23029 0.0
C715 C 0.20177 0.5304 0.22442 0.0
O716 O 0.17882 0.52066 0.13289 0.0
O717 O 0.22501 0.48119 0.11528 0.0
O718 O 0.2729 0.50062 0.10954 0.0
O719 O 0.23629 0.52277 0.10899 0.0
O720 O 0.18973 0.48024 0.13038 0.0
O721 O 0.20858 0.54741 0.13014 0.0
O722 O 0.30071 0.46337 0.11872 0.0
O723 O 0.25655 0.49795 0.14578 0.0
O724 O 0.21526 0.47966 0.17277 0.0
O725 O 0.23987 0.44726 0.15801 0.0
O726 O 0.27353 0.46876 0.16383 0.0
O727 O 0.2829 0.42894 0.13152 0.0
C728 C 0.204 0.47078 0.1138 0.0
C729 C 0.16883 0.56275 0.1396 0.0
C730 C 0.13371 0.59121 0.1368 0.0
C731 C 0.14839 0.57236 0.12639 0.0
C732 C 0.13941 0.59974 0.16079 0.0
C733 C 0.17424 0.57183 0.16336 0.0
C734 C 0.15949 0.59005 0.17394 0.0
C735 C 0.25941 0.51972 0.10196 0.0
C736 C 0.18474 0.54371 0.12839 0.0
C737 C 0.21509 0.54507 0.24142 0.0
C738 C 0.23666 0.55764 0.23389 0.0
C739 C 0.2682 0.49204 0.16544 0.0
C740 C 0.32807 0.42827 0.12581 0.0
C741 C 0.33162 0.40457 0.13658 0.0
C742 C 0.35526 0.39349 0.13633 0.0
C743 C 0.37523 0.40651 0.12556 0.0
C744 C 0.34841 0.44082 0.11525 0.0
C745 C 0.3718 0.42999 0.11518 0.0
C746 C 0.22437 0.45695 0.17434 0.0
C747 C 0.30348 0.4403 0.12554 0.0
H748 H 0.14434 0.56565 0.10788 0.0
H749 H 0.12826 0.61391 0.16943 0.0
H750 H 0.19002 0.56506 0.17365 0.0
H751 H 0.16376 0.59685 0.19233 0.0
H752 H 0.31611 0.39469 0.14483 0.0
H753 H 0.39365 0.39858 0.12537 0.0
H754 H 0.34628 0.45906 0.10694 0.0
H755 H 0.38735 0.43984 0.10703 0.0
Eu756 Eu 0.76931 0.06199 0.89706 0.0
C757 C 0.70203 0.01988 0.81187 0.0
C758 C 0.66979 0.05089 0.80962 0.0
C759 C 0.68095 0.02794 0.7727 0.0
C760 C 0.68793 0.03779 0.82325 0.0
C761 C 0.69831 0.01432 0.78659 0.0
C762 C 0.66672 0.04621 0.7842 0.0
C763 C 0.72764 0.98087 0.79111 0.0
N764 N 0.71859 1.00706 0.82579 0.0
C765 C 0.73059 0.98705 0.81609 0.0
C766 C 0.71167 0.9948 0.77618 0.0
Eu767 Eu 0.7231 0.0186 0.86797 0.0
N768 N 0.69155 0.04202 0.84778 0.0
C769 C 0.67648 0.05808 0.86013 0.0
C770 C 0.65499 0.06802 0.82201 0.0
C771 C 0.65815 0.07138 0.84744 0.0
H772 H 0.7426 0.97596 0.82775 0.0
H773 H 0.64663 0.0844 0.85727 0.0
H774 H 0.65309 0.0563 0.77338 0.0
H775 H 0.73755 0.96529 0.78345 0.0
H776 H 0.67875 0.06133 0.87967 0.0
H777 H 0.847 1.00179 0.92178 0.0
H778 H 0.64089 0.07847 0.8122 0.0
H779 H 0.74961 0.1105 0.9304 0.0
H780 H 0.81907 0.02449 0.8936 0.0
H781 H 0.74831 0.12371 0.97432 0.0
H782 H 0.67802 0.02413 0.7532 0.0
H783 H 0.84261 1.00613 0.96718 0.0
H784 H 0.82276 0.02812 1.00291 0.0
H785 H 0.7093 0.98991 0.75685 0.0
H786 H 0.79571 0.06168 0.01736 0.0
N787 N 0.79821 0.0408 0.92266 0.0
C788 C 0.81689 0.02664 0.91334 0.0
C789 C 0.83019 0.01609 0.95488 0.0
C790 C 0.81252 0.03244 0.96423 0.0
C791 C 0.83282 0.0137 0.92927 0.0
C792 C 0.79679 0.04492 0.94739 0.0
H793 H 0.76838 0.09797 1.00673 0.0
N794 N 0.76893 0.07707 0.93834 0.0
C795 C 0.75755 0.10668 0.96933 0.0
C796 C 0.78162 0.06374 0.95553 0.0
C797 C 0.75838 0.09923 0.94455 0.0
C798 C 0.7688 0.09203 0.98758 0.0
C799 C 0.78169 0.07066 0.9807 0.0
O800 O 0.77841 0.10096 0.88951 0.0
O801 O 0.74176 0.05534 0.86716 0.0
O802 O 0.75609 0.02106 0.84155 0.0
O803 O 0.78685 0.04022 0.86606 0.0
O804 O 0.74238 0.0907 0.88116 0.0
O805 O 0.80637 0.07299 0.88456 0.0
O806 O 0.71675 0.9791 0.87471 0.0
O807 O 0.75246 0.02329 0.89746 0.0
O808 O 0.73741 0.06017 0.92337 0.0
O809 O 0.70688 0.03692 0.90264 0.0
O810 O 0.75239 0.99075 0.8761 0.0
O811 O 0.68731 1.00494 0.88209 0.0
C812 C 0.7325 0.07654 0.86456 0.0
C813 C 0.81972 0.11277 0.89753 0.0
C814 C 0.84701 0.14937 0.89769 0.0
C815 C 0.83038 0.1333 0.88517 0.0
C816 C 0.85242 0.14453 0.92284 0.0
C817 C 0.82588 0.10816 0.92238 0.0
C818 C 0.84205 0.12402 0.93496 0.0
C819 C 0.77935 0.02822 0.84599 0.0
C820 C 0.80163 0.0967 0.88471 0.0
C821 C 0.79572 0.05691 0.99787 0.0
C822 C 0.81112 0.0378 0.98964 0.0
C823 C 0.76312 1.00251 0.89402 0.0
C824 C 0.67566 0.964 0.87023 0.0
C825 C 0.65457 0.95657 0.88377 0.0
C826 C 0.63802 0.93853 0.87417 0.0
C827 C 0.64305 0.92813 0.85082 0.0
C828 C 0.67997 0.95345 0.84692 0.0
C829 C 0.66374 0.9357 0.8373 0.0
C830 C 0.71484 0.05092 0.92127 0.0
C831 C 0.69367 0.98167 0.88114 0.0
H832 H 0.82585 0.13653 0.86584 0.0
H833 H 0.86446 0.15677 0.93337 0.0
H834 H 0.8181 0.09238 0.9321 0.0
H835 H 0.84646 0.12049 0.95425 0.0
H836 H 0.65116 0.9648 0.90171 0.0
H837 H 0.63128 0.91372 0.8431 0.0
H838 H 0.69612 0.95849 0.83629 0.0
H839 H 0.66743 0.92746 0.81944 0.0
Eu840 Eu 0.76378 0.96662 0.39763 0.0
C841 C 0.8357 1.00561 0.32721 0.0
C842 C 0.86954 0.9763 0.33018 0.0
C843 C 0.85849 0.99378 0.29018 0.0
C844 C 0.85049 0.99014 0.34153 0.0
C845 C 0.83998 1.00793 0.30143 0.0
C846 C 0.87317 0.97795 0.3045 0.0
C847 C 0.80865 0.03953 0.2997 0.0
N848 N 0.81759 0.01884 0.33838 0.0
C849 C 0.8051 0.03669 0.32517 0.0
C850 C 0.82585 0.02477 0.28766 0.0
Eu851 Eu 0.81211 0.01223 0.38181 0.0
N852 N 0.84639 0.98855 0.3664 0.0
C853 C 0.86214 0.97471 0.38092 0.0
C854 C 0.88459 0.96122 0.34493 0.0
C855 C 0.88104 0.96069 0.37042 0.0
H856 H 0.79262 0.04938 0.3341 0.0
H857 H 0.89301 0.94954 0.3821 0.0
H858 H 0.88751 0.96725 0.29556 0.0
H859 H 0.79833 0.05339 0.28943 0.0
H860 H 0.86088 0.97414 0.40074 0.0
H861 H 0.68901 0.03332 0.40941 0.0
H862 H 0.89927 0.95029 0.33688 0.0
H863 H 0.77449 0.91699 0.43425 0.0
H864 H 0.71896 1.00801 0.38623 0.0
H865 H 0.76853 0.90432 0.47805 0.0
H866 H 0.86179 0.99518 0.27042 0.0
H867 H 0.68595 0.02879 0.45499 0.0
H868 H 0.69851 1.00568 0.49367 0.0
H869 H 0.82864 0.02708 0.2679 0.0
H870 H 0.72057 0.97041 0.51259 0.0
N871 N 0.73323 0.99004 0.41829 0.0
C872 C 0.71783 1.00597 0.40605 0.0
C873 C 0.69917 0.01772 0.44487 0.0
C874 C 0.71379 1.00003 0.45705 0.0
C875 C 0.70076 0.02025 0.41915 0.0
C876 C 0.73072 0.98612 0.44299 0.0
H877 H 0.74629 0.93204 0.50677 0.0
N878 N 0.75743 0.95216 0.43884 0.0
C879 C 0.76159 0.92202 0.47153 0.0
C880 C 0.74333 0.96654 0.45367 0.0
C881 C 0.76493 0.92921 0.44682 0.0
C882 C 0.74913 0.93777 0.4877 0.0
C883 C 0.73908 0.95996 0.47864 0.0
O884 O 0.75443 0.92816 0.38813 0.0
O885 O 0.79444 0.97608 0.37164 0.0
O886 O 0.77517 0.0231 0.3637 0.0
O887 O 0.75528 0.98499 0.36087 0.0
O888 O 0.79414 0.94031 0.38608 0.0
O889 O 0.72769 0.95683 0.3815 0.0
O890 O 0.81353 0.05271 0.37817 0.0
O891 O 0.77512 1.00695 0.40029 0.0
O892 O 0.79411 0.96261 0.42638 0.0
O893 O 0.82569 0.9906 0.41536 0.0
O894 O 0.8027 0.02357 0.42089 0.0
O895 O 0.8448 0.03309 0.39402 0.0
C896 C 0.8048 0.95517 0.37047 0.0
C897 C 0.71238 0.91688 0.39162 0.0
C898 C 0.68439 0.88104 0.38779 0.0
C899 C 0.70261 0.89704 0.37762 0.0
C900 C 0.67658 0.88514 0.41234 0.0
C901 C 0.70378 0.92085 0.41574 0.0
C902 C 0.6861 0.90495 0.42606 0.0
C903 C 0.75785 1.0084 0.35403 0.0
C904 C 0.73188 0.93307 0.38122 0.0
C905 C 0.72373 0.9749 0.49325 0.0
C906 C 0.71113 0.99495 0.48247 0.0
C907 C 0.77934 0.01839 0.42038 0.0
C908 C 0.85365 0.07189 0.37493 0.0
C909 C 0.8755 0.07883 0.38765 0.0
C910 C 0.89156 0.09695 0.3777 0.0
C911 C 0.88587 0.10781 0.35468 0.0
C912 C 0.84835 0.08291 0.35186 0.0
C913 C 0.8645 0.10063 0.34177 0.0
C914 C 0.81625 0.97278 0.42952 0.0
C915 C 0.83606 0.0545 0.38697 0.0
H916 H 0.70902 0.89431 0.35883 0.0
H917 H 0.66323 0.87288 0.42114 0.0
H918 H 0.71076 0.93617 0.42663 0.0
H919 H 0.67981 0.90795 0.44483 0.0
H920 H 0.87963 0.07073 0.40564 0.0
H921 H 0.89799 0.12184 0.34673 0.0
H922 H 0.83161 0.0782 0.34178 0.0
H923 H 0.86024 0.10911 0.32403 0.0
Eu924 Eu 0.29964 0.50207 0.64644 0.0
C925 C 0.26329 0.57101 0.57401 0.0
C926 C 0.29197 0.60587 0.57601 0.0
C927 C 0.27659 0.59198 0.53609 0.0
C928 C 0.278 0.58695 0.58795 0.0
C929 C 0.26201 0.57385 0.54794 0.0
C930 C 0.29157 0.60792 0.55008 0.0
C931 C 0.23028 0.54217 0.54707 0.0
N932 N 0.24953 0.5534 0.58584 0.0
C933 C 0.23209 0.54009 0.57281 0.0
C934 C 0.24566 0.55877 0.5345 0.0
Eu935 Eu 0.25497 0.54994 0.62967 0.0
N936 N 0.27845 0.5843 0.61307 0.0
C937 C 0.29063 0.60175 0.62716 0.0
C938 C 0.3058 0.62242 0.59044 0.0
C939 C 0.30478 0.62058 0.61612 0.0
H940 H 0.21888 0.52811 0.58203 0.0
H941 H 0.31468 0.6339 0.62751 0.0
H942 H 0.30247 0.62208 0.5407 0.0
H943 H 0.21672 0.5312 0.53698 0.0
H944 H 0.28943 0.6021 0.64702 0.0
H945 H 0.23095 0.43085 0.67015 0.0
H946 H 0.31679 0.63707 0.58195 0.0
H947 H 0.35257 0.51437 0.67711 0.0
H948 H 0.25478 0.45866 0.64249 0.0
H949 H 0.36982 0.5099 0.71955 0.0
H950 H 0.27606 0.59414 0.51611 0.0
H951 H 0.2409 0.42928 0.71496 0.0
H952 H 0.26895 0.44253 0.74996 0.0
H953 H 0.24413 0.56045 0.51452 0.0
H954 H 0.30683 0.46443 0.76358 0.0
N955 N 0.27722 0.47345 0.67136 0.0
C956 C 0.25916 0.45825 0.66196 0.0
C957 C 0.2513 0.44164 0.70289 0.0
C958 C 0.27096 0.45607 0.7121 0.0
C959 C 0.24569 0.44239 0.6776 0.0
C960 C 0.28382 0.47191 0.69561 0.0
H961 H 0.34495 0.48917 0.75222 0.0
N962 N 0.31793 0.49769 0.68631 0.0
C963 C 0.35141 0.5029 0.71533 0.0
C964 C 0.30489 0.48447 0.70336 0.0
C965 C 0.34167 0.50536 0.69139 0.0
C966 C 0.33727 0.49128 0.73374 0.0
C967 C 0.31401 0.48121 0.72768 0.0
O968 O 0.33676 0.49232 0.63338 0.0
O969 O 0.29033 0.53168 0.61862 0.0
O970 O 0.24173 0.51202 0.61474 0.0
O971 O 0.27848 0.49016 0.61213 0.0
O972 O 0.32603 0.53215 0.63309 0.0
O973 O 0.30808 0.46445 0.63389 0.0
O974 O 0.21482 0.55329 0.62402 0.0
O975 O 0.25967 0.51379 0.65016 0.0
O976 O 0.30439 0.5325 0.67499 0.0
O977 O 0.27835 0.5645 0.66178 0.0
O978 O 0.24392 0.54231 0.66939 0.0
O979 O 0.2351 0.58235 0.64305 0.0
C980 C 0.31137 0.54212 0.61694 0.0
C981 C 0.34918 0.45127 0.64157 0.0
C982 C 0.38696 0.4263 0.639 0.0
C983 C 0.3696 0.44258 0.62794 0.0
C984 C 0.3837 0.41954 0.66407 0.0
C985 C 0.34606 0.44346 0.66619 0.0
C986 C 0.36335 0.42791 0.67741 0.0
C987 C 0.25498 0.49325 0.60605 0.0
C988 C 0.33155 0.46894 0.63035 0.0
C989 C 0.30034 0.46684 0.74469 0.0
C990 C 0.2788 0.45433 0.73692 0.0
C991 C 0.24883 0.51897 0.67034 0.0
C992 C 0.19831 0.59455 0.62262 0.0
C993 C 0.19022 0.61471 0.63703 0.0
C994 C 0.17435 0.63277 0.62684 0.0
C995 C 0.16695 0.63066 0.60193 0.0
C996 C 0.19092 0.59299 0.59768 0.0
C997 C 0.17537 0.61101 0.58744 0.0
C998 C 0.29538 0.55516 0.67685 0.0
C999 C 0.21371 0.57514 0.63434 0.0
H1000 H 0.3717 0.44825 0.60876 0.0
H1001 H 0.39699 0.40783 0.67355 0.0
H1002 H 0.33029 0.44943 0.67681 0.0
H1003 H 0.36099 0.42234 0.69656 0.0
H1004 H 0.19574 0.616 0.65634 0.0
H1005 H 0.15477 0.64433 0.59364 0.0
H1006 H 0.19695 0.5778 0.58617 0.0
H1007 H 0.16966 0.60965 0.56824 0.0
C1008 C 0.14578 0.30105 0.55056 0.0
C1009 C 0.15839 0.28553 0.53409 0.0
C1010 C 0.15764 0.3216 0.56105 0.0
C1011 C 0.17817 0.37374 0.55807 0.0
H1012 H 0.24542 0.38035 0.58276 0.0
C1013 C 0.21725 0.46714 0.59592 0.0
C1014 C 0.24275 0.47199 0.59327 0.0
C1015 C 0.20714 0.44418 0.58864 0.0
C1016 C 0.22669 0.37894 0.57554 0.0
H1017 H 0.19373 0.27829 0.51688 0.0
H1018 H 0.21481 0.31436 0.53548 0.0
H1019 H 0.22888 0.33918 0.57283 0.0
H1020 H 0.27714 0.45731 0.57881 0.0
H1021 H 0.25943 0.41806 0.56522 0.0
H1022 H 0.17599 0.41335 0.56012 0.0
C1023 C 0.19574 0.31044 0.54047 0.0
C1024 C 0.2172 0.35525 0.57001 0.0
C1025 C 0.1838 0.28964 0.53001 0.0
C1026 C 0.25746 0.45412 0.58146 0.0
C1027 C 0.24735 0.43138 0.57395 0.0
C1028 C 0.18769 0.39739 0.56338 0.0
C1029 C 0.18233 0.3274 0.55498 0.0
C1030 C 0.19275 0.35235 0.56136 0.0
C1031 C 0.22222 0.42569 0.57816 0.0
C1032 C 0.21209 0.40039 0.57224 0.0
H1033 H 0.12609 0.29844 0.55372 0.0
H1034 H 0.14695 0.33389 0.57264 0.0
H1035 H 0.15942 0.37228 0.55088 0.0
H1036 H 0.20533 0.48048 0.60478 0.0
H1037 H 0.1877 0.44058 0.59225 0.0
C1038 C 0.8018 0.99544 0.82266 0.0
C1039 C 0.79938 0.02044 0.82941 0.0
C1040 C 0.82428 0.98686 0.8131 0.0
C1041 C 0.89097 1.00299 0.8153 0.0
H1042 H 0.89689 0.95134 0.76599 0.0
C1043 C 0.96924 0.94666 0.75498 0.0
C1044 C 0.98597 0.94005 0.77382 0.0
C1045 C 0.94753 0.95932 0.76057 0.0
C1046 C 0.89561 0.96601 0.77959 0.0
H1047 H 0.81764 0.05638 0.83006 0.0
H1048 H 0.85643 0.04172 0.81255 0.0
H1049 H 0.85608 0.96758 0.77592 0.0
H1050 H 0.99384 0.94201 0.81309 0.0
H1051 H 0.95567 0.96428 0.82311 0.0
H1052 H 0.93054 1.00155 0.81882 0.0
C1053 C 0.84138 0.02854 0.81519 0.0
C1054 C 0.87215 0.97509 0.78548 0.0
C1055 C 0.81907 0.03702 0.82488 0.0
C1056 C 0.98143 0.94749 0.79822 0.0
C1057 C 0.9595 0.96005 0.80391 0.0
C1058 C 0.91444 0.99391 0.8094 0.0
C1059 C 0.84461 1.0032 0.81011 0.0
C1060 C 0.86954 0.99374 0.80336 0.0
C1061 C 0.9419 0.9653 0.78522 0.0
C1062 C 0.91706 0.97537 0.79141 0.0
H1063 H 0.78714 0.98218 0.82661 0.0
H1064 H 0.82619 0.96718 0.80953 0.0
H1065 H 0.8896 0.01702 0.82954 0.0
H1066 H 0.97238 0.94089 0.73603 0.0
H1067 H 0.93471 0.96359 0.74566 0.0
C1068 C 0.33126 0.71523 0.01827 0.0
C1069 C 0.34284 0.73245 0.03418 0.0
C1070 C 0.32322 0.69228 0.02719 0.0
C1071 C 0.30273 0.65701 0.07994 0.0
H1072 H 0.32911 0.60052 0.04429 0.0
C1073 C 0.25658 0.56142 0.08216 0.0
C1074 C 0.2714 0.54136 0.08982 0.0
C1075 C 0.26729 0.58424 0.07615 0.0
C1076 C 0.32184 0.6161 0.05453 0.0
H1077 H 0.35287 0.73997 0.07242 0.0
H1078 H 0.33787 0.69974 0.08823 0.0
H1079 H 0.34301 0.64271 0.03365 0.0
H1080 H 0.30929 0.52901 0.09513 0.0
H1081 H 0.32814 0.56907 0.08365 0.0
H1082 H 0.2808 0.63048 0.10012 0.0
C1083 C 0.33572 0.70405 0.06871 0.0
C1084 C 0.32964 0.64016 0.04841 0.0
C1085 C 0.34412 0.72708 0.05969 0.0
C1086 C 0.29736 0.54408 0.08935 0.0
C1087 C 0.30815 0.567 0.08297 0.0
C1088 C 0.29462 0.63298 0.08579 0.0
C1089 C 0.32613 0.68617 0.05229 0.0
C1090 C 0.31979 0.6608 0.06075 0.0
C1091 C 0.29307 0.58745 0.07721 0.0
C1092 C 0.30378 0.61241 0.07281 0.0
H1093 H 0.32961 0.71888 0.99856 0.0
H1094 H 0.31532 0.67899 0.01431 0.0
H1095 H 0.29491 0.67266 0.08966 0.0
H1096 H 0.23653 0.55996 0.08196 0.0
H1097 H 0.25534 0.59961 0.07118 0.0
C1098 C 0.54957 0.07448 0.29717 0.0
C1099 C 0.54695 0.08063 0.272 0.0
C1100 C 0.57221 0.06524 0.30609 0.0
C1101 C 0.63804 0.07052 0.29147 0.0
H1102 H 0.64764 0.01405 0.3352 0.0
C1103 C 0.72052 1.00234 0.32755 0.0
C1104 C 0.73733 0.01879 0.33905 0.0
C1105 C 0.69769 0.01069 0.3189 0.0
C1106 C 0.64518 0.02989 0.32299 0.0
H1107 H 0.56479 0.0803 0.23611 0.0
H1108 H 0.60396 0.06393 0.25153 0.0
H1109 H 0.60562 0.02514 0.32193 0.0
H1110 H 0.74434 0.0574 0.34825 0.0
H1111 H 0.70429 0.07217 0.33252 0.0
H1112 H 0.67757 0.07521 0.29243 0.0
C1113 C 0.58889 0.06658 0.26446 0.0
C1114 C 0.62118 0.03629 0.31557 0.0
C1115 C 0.56642 0.07564 0.25562 0.0
C1116 C 0.73174 0.04425 0.33962 0.0
C1117 C 0.7088 0.05268 0.33075 0.0
C1118 C 0.662 0.06431 0.29914 0.0
C1119 C 0.59236 0.06228 0.28989 0.0
C1120 C 0.61745 0.05634 0.29933 0.0
C1121 C 0.69123 0.03574 0.32124 0.0
C1122 C 0.66582 0.04364 0.31456 0.0
H1123 H 0.535 0.07869 0.3102 0.0
H1124 H 0.57446 0.06199 0.3258 0.0
H1125 H 0.63559 0.08634 0.27923 0.0
H1126 H 0.72439 0.98265 0.32643 0.0
H1127 H 0.68474 0.99738 0.31102 0.0
C1128 C 0.68842 0.22165 0.46772 0.0
C1129 C 0.69061 0.22765 0.49297 0.0
C1130 C 0.69739 0.19889 0.4589 0.0
C1131 C 0.71246 0.13567 0.4822 0.0
H1132 H 0.74459 0.1275 0.41873 0.0
C1133 C 0.7638 0.0455 0.45436 0.0
C1134 C 0.76299 0.03839 0.42939 0.0
C1135 C 0.75282 0.06775 0.46197 0.0
C1136 C 0.7353 0.12935 0.43638 0.0
H1137 H 0.70578 0.21541 0.52827 0.0
H1138 H 0.72181 0.17643 0.51288 0.0
H1139 H 0.73101 0.16865 0.43139 0.0
H1140 H 0.74996 0.0491 0.39288 0.0
H1141 H 0.73031 0.08719 0.40602 0.0
H1142 H 0.71682 0.09643 0.48727 0.0
C1143 C 0.71244 0.18872 0.49999 0.0
C1144 C 0.72756 0.15301 0.44364 0.0
C1145 C 0.70345 0.21126 0.50876 0.0
C1146 C 0.75054 0.05371 0.4123 0.0
C1147 C 0.73954 0.07582 0.41983 0.0
C1148 C 0.72017 0.11202 0.47494 0.0
C1149 C 0.70882 0.18181 0.47516 0.0
C1150 C 0.71629 0.15654 0.46677 0.0
C1151 C 0.7411 0.08354 0.44463 0.0
C1152 C 0.73187 0.10854 0.45201 0.0
H1153 H 0.67862 0.23384 0.45506 0.0
H1154 H 0.69434 0.1942 0.43962 0.0
H1155 H 0.70333 0.13756 0.49992 0.0
H1156 H 0.77382 0.03437 0.46781 0.0
H1157 H 0.75463 0.07317 0.4812 0.0
C1158 C 0.06136 0.41463 0.75099 0.0
C1159 C 0.04346 0.43153 0.75927 0.0
C1160 C 0.08355 0.42303 0.74038 0.0
C1161 C 0.11443 0.47555 0.70944 0.0
H1162 H 0.17508 0.44809 0.73698 0.0
C1163 C 0.20998 0.49398 0.66505 0.0
C1164 C 0.2287 0.50318 0.68082 0.0
C1165 C 0.18809 0.48377 0.67462 0.0
C1166 C 0.15832 0.45594 0.72915 0.0
H1167 H 0.03482 0.47049 0.76293 0.0
H1168 H 0.07336 0.48533 0.74335 0.0
H1169 H 0.13469 0.43373 0.75246 0.0
H1170 H 0.23906 0.5088 0.71915 0.0
H1171 H 0.20091 0.49 0.73614 0.0
H1172 H 0.13801 0.49747 0.68586 0.0
C1173 C 0.07012 0.46552 0.74509 0.0
C1174 C 0.1352 0.44762 0.73787 0.0
C1175 C 0.04804 0.45707 0.75619 0.0
C1176 C 0.22522 0.50133 0.70656 0.0
C1177 C 0.20336 0.49068 0.71624 0.0
C1178 C 0.13753 0.48351 0.70039 0.0
C1179 C 0.08842 0.44857 0.73767 0.0
C1180 C 0.11296 0.45738 0.72817 0.0
C1181 C 0.18424 0.48245 0.70031 0.0
C1182 C 0.15976 0.47385 0.71015 0.0
H1183 H 0.05874 0.39488 0.75366 0.0
H1184 H 0.09715 0.4095 0.7347 0.0
H1185 H 0.09768 0.48335 0.70154 0.0
H1186 H 0.21161 0.4958 0.64524 0.0
H1187 H 0.17384 0.47747 0.66184 0.0
C1188 C 0.77184 0.98511 0.93644 0.0
C1189 C 0.77827 0.98785 0.9114 0.0
C1190 C 0.78119 0.96504 0.95032 0.0
C1191 C 0.82643 0.91212 0.94765 0.0
H1192 H 0.77637 0.87709 0.98588 0.0
C1193 C 0.83663 0.80857 0.97419 0.0
C1194 C 0.83351 0.80328 0.99952 0.0
C1195 C 0.82945 0.83165 0.96445 0.0
C1196 C 0.79057 0.88672 0.97534 0.0
H1197 H 0.80021 0.9729 0.88157 0.0
H1198 H 0.81641 0.93839 0.90536 0.0
H1199 H 0.76759 0.91852 0.96956 0.0
H1200 H 0.81847 0.81722 0.03397 0.0
H1201 H 0.80538 0.85698 0.01682 0.0
H1202 H 0.84904 0.87988 0.95275 0.0
C1203 C 0.80463 0.95153 0.91473 0.0
C1204 C 0.78567 0.91061 0.9662 0.0
C1205 C 0.7953 0.97136 0.901 0.0
C1206 C 0.82129 0.82074 0.0144 0.0
C1207 C 0.81377 0.84357 1.00459 0.0
C1208 C 0.83118 0.88814 0.9565 0.0
C1209 C 0.79696 0.94744 0.93929 0.0
C1210 C 0.80341 0.92353 0.95192 0.0
C1211 C 0.8185 0.84962 0.97972 0.0
C1212 C 0.81321 0.87505 0.97021 0.0
H1213 H 0.75833 0.99732 0.94469 0.0
H1214 H 0.77518 0.96268 0.96932 0.0
H1215 H 0.84075 0.9216 0.93716 0.0
H1216 H 0.8458 0.7955 0.96217 0.0
H1217 H 0.83296 0.83566 0.94508 0.0
C1218 C 0.45705 0.56439 0.2692 0.0
C1219 C 0.47574 0.57321 0.25334 0.0
C1220 C 0.43481 0.55497 0.25961 0.0
C1221 C 0.40276 0.53473 0.20151 0.0
H1222 H 0.34392 0.55342 0.23798 0.0
C1223 C 0.30502 0.51982 0.16086 0.0
C1224 C 0.28781 0.50786 0.17644 0.0
C1225 C 0.32714 0.52956 0.17042 0.0
C1226 C 0.36016 0.54793 0.22767 0.0
H1227 H 0.48611 0.57871 0.21502 0.0
H1228 H 0.44713 0.56244 0.19807 0.0
H1229 H 0.38481 0.56497 0.25377 0.0
H1230 H 0.28005 0.49698 0.21424 0.0
H1231 H 0.31868 0.51449 0.23125 0.0
H1232 H 0.37793 0.51806 0.1752 0.0
C1233 C 0.44981 0.56219 0.21796 0.0
C1234 C 0.38369 0.55441 0.23677 0.0
C1235 C 0.47229 0.57132 0.22763 0.0
C1236 C 0.29277 0.50663 0.20196 0.0
C1237 C 0.3149 0.51657 0.21162 0.0
C1238 C 0.37922 0.52846 0.19231 0.0
C1239 C 0.43044 0.55462 0.23388 0.0
C1240 C 0.40537 0.54772 0.22395 0.0
C1241 C 0.3327 0.52741 0.1958 0.0
C1242 C 0.35763 0.53489 0.20533 0.0
H1243 H 0.45919 0.56592 0.28912 0.0
H1244 H 0.4207 0.54871 0.27248 0.0
H1245 H 0.41892 0.529 0.19123 0.0
H1246 H 0.30202 0.5206 0.14107 0.0
H1247 H 0.34027 0.5381 0.15778 0.0
C1248 C 0.5449 0.15514 0.31647 0.0
C1249 C 0.52706 0.16493 0.30013 0.0
C1250 C 0.55557 0.16984 0.33496 0.0
C1251 C 0.53925 0.21332 0.37962 0.0
H1252 H 0.60913 0.22783 0.38892 0.0
C1253 C 0.57615 0.26368 0.468 0.0
C1254 C 0.60064 0.25931 0.47572 0.0
C1255 C 0.56692 0.25324 0.44596 0.0
C1256 C 0.58958 0.22356 0.38702 0.0
H1257 H 0.50615 0.19776 0.29043 0.0
H1258 H 0.52431 0.22353 0.32372 0.0
H1259 H 0.59479 0.20931 0.35027 0.0
H1260 H 0.63473 0.24091 0.46594 0.0
H1261 H 0.61837 0.22098 0.42921 0.0
H1262 H 0.53394 0.22574 0.41679 0.0
C1263 C 0.5306 0.20462 0.32144 0.0
C1264 C 0.58138 0.21333 0.36458 0.0
C1265 C 0.52045 0.19003 0.30228 0.0
C1266 C 0.61555 0.24401 0.46107 0.0
C1267 C 0.60622 0.23305 0.43947 0.0
C1268 C 0.54749 0.223 0.40234 0.0
C1269 C 0.54787 0.19442 0.33823 0.0
C1270 C 0.55616 0.20808 0.36068 0.0
C1271 C 0.58196 0.23804 0.43106 0.0
C1272 C 0.57287 0.22812 0.40656 0.0
H1273 H 0.54984 0.13567 0.31555 0.0
H1274 H 0.5687 0.16151 0.34775 0.0
H1275 H 0.51973 0.20895 0.37722 0.0
H1276 H 0.56448 0.27609 0.47846 0.0
H1277 H 0.54831 0.25805 0.44019 0.0
C1278 C 0.07057 0.28035 0.55172 0.0
C1279 C 0.07791 0.25541 0.55095 0.0
C1280 C 0.06142 0.29036 0.57374 0.0
C1281 C 0.06925 0.28128 0.64017 0.0
H1282 H 0.01222 0.32401 0.64741 0.0
C1283 C 0.04598 0.33912 0.72835 0.0
C1284 C 0.02087 0.33841 0.7352 0.0
C1285 C 0.05358 0.32773 0.70638 0.0
C1286 C 0.0282 0.31207 0.64561 0.0
H1287 H 0.07976 0.22089 0.57166 0.0
H1288 H 0.06355 0.23822 0.60991 0.0
H1289 H 0.02197 0.3069 0.60668 0.0
H1290 H 0.98456 0.32332 0.72588 0.0
H1291 H 0.99786 0.30353 0.68788 0.0
H1292 H 0.0755 0.28648 0.6791 0.0
C1293 C 0.06517 0.25014 0.59374 0.0
C1294 C 0.03381 0.30244 0.62233 0.0
C1295 C 0.07415 0.24018 0.57182 0.0
C1296 C 1.00398 0.32451 0.72087 0.0
C1297 C 0.01151 0.31333 0.69902 0.0
C1298 C 0.06381 0.29115 0.66339 0.0
C1299 C 0.05972 0.27552 0.5952 0.0
C1300 C 0.05413 0.28663 0.61952 0.0
C1301 C 0.03614 0.31559 0.69111 0.0
C1302 C 0.043 0.30628 0.66637 0.0
H1303 H 0.07391 0.29263 0.53618 0.0
H1304 H 0.05734 0.31002 0.57445 0.0
H1305 H 0.08531 0.26945 0.63834 0.0
H1306 H 0.05936 0.34974 0.73902 0.0
H1307 H 0.07275 0.32957 0.70068 0.0
C1308 C 1.00746 0.83106 0.8116 0.0
C1309 C 1.00297 0.85648 0.80794 0.0
C1310 C 0.99564 0.81815 0.83099 0.0
C1311 C 0.94388 0.81523 0.87338 0.0
H1312 H 0.99039 0.80089 0.92648 0.0
C1313 C 0.90779 0.78702 0.97007 0.0
C1314 C 0.92189 0.77094 0.98495 0.0
C1315 C 0.91774 0.79769 0.94855 0.0
C1316 C 0.97704 0.80419 0.91183 0.0
H1317 H 0.98205 0.88807 0.82072 0.0
H1318 H 0.96021 0.86515 0.85337 0.0
H1319 H 1.00566 0.81553 0.88652 0.0
H1320 H 0.95727 0.7526 0.98832 0.0
H1321 H 0.9744 0.76997 0.95027 0.0
H1322 H 0.91522 0.80323 0.89791 0.0
C1323 C 0.97299 0.85528 0.84157 0.0
C1324 C 0.9859 0.81266 0.88888 0.0
C1325 C 0.98534 0.86832 0.82282 0.0
C1326 C 0.94624 0.76564 0.97768 0.0
C1327 C 0.95604 0.7757 0.95574 0.0
C1328 C 0.93501 0.80614 0.89609 0.0
C1329 C 0.97878 0.83038 0.84651 0.0
C1330 C 0.9694 0.8185 0.86955 0.0
C1331 C 0.94177 0.79157 0.94049 0.0
C1332 C 0.95139 0.80081 0.91592 0.0
H1333 H 0.02153 0.82176 0.80086 0.0
H1334 H 1.00045 0.79895 0.83456 0.0
H1335 H 0.93079 0.81974 0.85877 0.0
H1336 H 0.88871 0.79081 0.97458 0.0
H1337 H 0.90619 0.81029 0.93801 0.0
C1338 C 0.50381 0.68451 0.22715 0.0
C1339 C 0.49556 0.65975 0.22909 0.0
C1340 C 0.4952 0.69975 0.20768 0.0
C1341 C 0.4462 0.71057 0.16263 0.0
H1342 H 0.49635 0.72284 0.11269 0.0
C1343 C 0.41724 0.7434 0.06504 0.0
C1344 C 0.43319 0.75877 0.0512 0.0
C1345 C 0.42534 0.73179 0.08684 0.0
C1346 C 0.48208 0.72014 0.12649 0.0
H1347 H 0.47149 0.6318 0.21286 0.0
H1348 H 0.45523 0.65882 0.18024 0.0
H1349 H 0.50821 0.70526 0.15277 0.0
H1350 H 0.47005 0.77477 0.05007 0.0
H1351 H 0.48407 0.75561 0.08869 0.0
H1352 H 0.42005 0.72589 0.13714 0.0
C1353 C 0.46846 0.6664 0.19341 0.0
C1354 C 0.48897 0.71002 0.14952 0.0
C1355 C 0.47763 0.65102 0.21218 0.0
C1356 C 0.45754 0.76237 0.05989 0.0
C1357 C 0.46554 0.7513 0.08214 0.0
C1358 C 0.43936 0.72124 0.13989 0.0
C1359 C 0.47782 0.69058 0.19036 0.0
C1360 C 0.47105 0.7048 0.16766 0.0
C1361 C 0.44939 0.73616 0.0963 0.0
C1362 C 0.45707 0.72575 0.12114 0.0
H1363 H 0.51826 0.6914 0.23938 0.0
H1364 H 0.50278 0.71833 0.20558 0.0
H1365 H 0.43201 0.70661 0.17628 0.0
H1366 H 0.39814 0.74082 0.05951 0.0
H1367 H 0.41238 0.71977 0.09648 0.0
C1368 C 0.14634 0.36574 0.36592 0.0
C1369 C 0.14779 0.33986 0.36839 0.0
C1370 C 0.15821 0.37789 0.34638 0.0
C1371 C 0.20352 0.371 0.29521 0.0
H1372 H 0.16183 0.42087 0.2643 0.0
C1373 C 0.22308 0.41679 0.19879 0.0
C1374 C 0.21854 0.44247 0.19708 0.0
C1375 C 0.21658 0.40345 0.22021 0.0
C1376 C 0.17382 0.40717 0.27283 0.0
H1377 H 0.16369 0.30636 0.3534 0.0
H1378 H 0.18416 0.32757 0.31864 0.0
H1379 H 0.14754 0.39949 0.3013 0.0
H1380 H 0.20629 0.47447 0.21783 0.0
H1381 H 0.19457 0.45144 0.25456 0.0
H1382 H 0.22966 0.37869 0.26619 0.0
C1383 C 0.17416 0.33855 0.33201 0.0
C1384 C 0.16568 0.39497 0.29413 0.0
C1385 C 0.16246 0.32639 0.35183 0.0
C1386 C 0.20872 0.45461 0.2178 0.0
C1387 C 0.20223 0.4414 0.23905 0.0
C1388 C 0.21167 0.38323 0.27371 0.0
C1389 C 0.17145 0.36434 0.32862 0.0
C1390 C 0.18052 0.37695 0.3058 0.0
C1391 C 0.20562 0.4156 0.24035 0.0
C1392 C 0.19698 0.40165 0.2625 0.0
H1393 H 0.13528 0.37648 0.37866 0.0
H1394 H 0.15634 0.39785 0.34474 0.0
H1395 H 0.2154 0.35724 0.30377 0.0
H1396 H 0.23139 0.40687 0.18361 0.0
H1397 H 0.21956 0.38358 0.22076 0.0
C1398 C 0.93412 0.90036 0.61237 0.0
C1399 C 0.91836 0.89428 0.63219 0.0
C1400 C 0.92447 0.91087 0.59056 0.0
C1401 C 0.86454 0.9159 0.5567 0.0
H1402 H 0.90087 0.96198 0.51476 0.0
C1403 C 0.82893 0.93956 0.45927 0.0
C1404 C 0.8309 0.96427 0.4511 0.0
C1405 C 0.84117 0.93175 0.48074 0.0
C1406 C 0.89036 0.94929 0.52636 0.0
H1407 H 0.88062 0.89595 0.64555 0.0
H1408 H 0.86391 0.91506 0.60811 0.0
H1409 H 0.91875 0.94882 0.55432 0.0
H1410 H 0.84791 1.00008 0.45846 0.0
H1411 H 0.86893 0.98666 0.49646 0.0
H1412 H 0.8358 0.91696 0.52943 0.0
C1413 C 0.88352 0.91087 0.6088 0.0
C1414 C 0.90076 0.9415 0.54894 0.0
C1415 C 0.89308 0.90007 0.63035 0.0
C1416 C 0.8461 0.98088 0.46436 0.0
C1417 C 0.85819 0.97314 0.48608 0.0
C1418 C 0.85409 0.92383 0.53435 0.0
C1419 C 0.89891 0.91576 0.58831 0.0
C1420 C 0.88797 0.92466 0.56441 0.0
C1421 C 0.85554 0.94855 0.49478 0.0
C1422 C 0.86689 0.94049 0.51875 0.0
H1423 H 0.95369 0.89601 0.61333 0.0
H1424 H 0.93689 0.91421 0.57517 0.0
H1425 H 0.85426 0.90257 0.56778 0.0
H1426 H 0.81794 0.92618 0.449 0.0
H1427 H 0.83927 0.9125 0.48636 0.0
C1428 C 0.32811 0.56829 0.70734 0.0
C1429 C 0.30384 0.5705 0.69811 0.0
C1430 C 0.33572 0.58145 0.72838 0.0
C1431 C 0.31837 0.63371 0.77048 0.0
H1432 H 0.36396 0.6002 0.8149 0.0
C1433 C 0.36534 0.68264 0.85522 0.0
C1434 C 0.37146 0.6679 0.87589 0.0
C1435 C 0.35522 0.67176 0.83377 0.0
C1436 C 0.35094 0.60982 0.80299 0.0
H1437 H 0.26863 0.58883 0.70335 0.0
H1438 H 0.28161 0.61139 0.74047 0.0
H1439 H 0.3501 0.57957 0.77756 0.0
H1440 H 0.37025 0.6306 0.891 0.0
H1441 H 0.35172 0.61181 0.85434 0.0
H1442 H 0.31858 0.66363 0.79661 0.0
C1443 C 0.29502 0.59978 0.73127 0.0
C1444 C 0.3433 0.59808 0.78116 0.0
C1445 C 0.28751 0.58677 0.71 0.0
C1446 C 0.36601 0.64236 0.87521 0.0
C1447 C 0.3556 0.63157 0.85402 0.0
C1448 C 0.32586 0.64541 0.79253 0.0
C1449 C 0.31917 0.59707 0.74099 0.0
C1450 C 0.32701 0.60984 0.76444 0.0
C1451 C 0.35074 0.64591 0.83265 0.0
C1452 C 0.34227 0.63362 0.80915 0.0
H1453 H 0.34136 0.55654 0.69816 0.0
H1454 H 0.35468 0.57937 0.73469 0.0
H1455 H 0.30601 0.64355 0.75804 0.0
H1456 H 0.36948 0.70237 0.85521 0.0
H1457 H 0.35189 0.68348 0.81775 0.0
C1458 C 0.63491 0.11819 0.12017 0.0
C1459 C 0.60934 0.12236 0.12237 0.0
C1460 C 0.64456 0.10732 0.09886 0.0
C1461 C 0.62803 0.07392 0.04031 0.0
H1462 H 0.68975 0.10384 0.01823 0.0
C1463 C 0.68472 0.03922 0.95487 0.0
C1464 C 0.69752 0.05749 0.94125 0.0
C1465 C 0.67187 0.04569 0.97649 0.0
C1466 C 0.67237 0.0954 0.0239 0.0
H1467 H 0.57366 0.11752 0.1044 0.0
H1468 H 0.59055 0.09912 0.06667 0.0
H1469 H 0.67162 0.11706 0.05686 0.0
H1470 H 0.70525 0.09685 0.93806 0.0
H1471 H 0.68259 0.10825 0.97512 0.0
H1472 H 0.62859 0.05286 1.00659 0.0
C1473 C 0.60316 0.10384 0.08162 0.0
C1474 C 0.66213 0.10271 0.04641 0.0
C1475 C 0.59346 0.11446 0.10319 0.0
C1476 C 0.69599 0.08237 0.9486 0.0
C1477 C 0.68308 0.08885 0.96992 0.0
C1478 C 0.63828 0.06665 0.01759 0.0
C1479 C 0.62895 0.1007 0.07892 0.0
C1480 C 0.63982 0.09212 0.05501 0.0
C1481 C 0.67153 0.07054 0.98467 0.0
C1482 C 0.6605 0.07749 1.00901 0.0
H1483 H 0.64754 0.1237 0.13486 0.0
H1484 H 0.6644 0.10453 0.09786 0.0
H1485 H 0.61094 0.06519 0.04639 0.0
H1486 H 0.68576 0.01987 0.94956 0.0
H1487 H 0.66321 0.03109 0.98738 0.0
C1488 C 0.64681 0.14302 0.66326 0.0
C1489 C 0.65156 0.16771 0.65583 0.0
C1490 C 0.65701 0.13339 0.68511 0.0
C1491 C 0.68634 0.15317 0.74481 0.0
H1492 H 0.69865 0.08255 0.7509 0.0
C1493 C 0.70789 0.10746 0.84 0.0
C1494 C 0.72353 0.08676 0.84061 0.0
C1495 C 0.69977 0.11737 0.81731 0.0
C1496 C 0.69567 0.10239 0.74958 0.0
H1497 H 0.67189 0.20125 0.66547 0.0
H1498 H 0.69076 0.18407 0.7029 0.0
H1499 H 0.68573 0.09963 0.71134 0.0
H1500 H 0.7446 0.06147 0.81795 0.0
H1501 H 0.73123 0.07895 0.7786 0.0
H1502 H 0.69751 0.15606 0.78278 0.0
C1503 C 0.67833 0.17236 0.69222 0.0
C1504 C 0.68779 0.1122 0.72682 0.0
C1505 C 0.66779 0.18215 0.67045 0.0
C1506 C 0.73185 0.07688 0.81812 0.0
C1507 C 0.72408 0.08695 0.79546 0.0
C1508 C 0.69462 0.14341 0.7675 0.0
C1509 C 0.67278 0.14792 0.70011 0.0
C1510 C 0.6827 0.13772 0.7241 0.0
C1511 C 0.70775 0.10726 0.79465 0.0
C1512 C 0.69922 0.11782 0.77032 0.0
H1513 H 0.63493 0.13102 0.65228 0.0
H1514 H 0.6519 0.11464 0.69046 0.0
H1515 H 0.68236 0.17283 0.74375 0.0
H1516 H 0.70149 0.11563 0.85711 0.0
H1517 H 0.68696 0.13275 0.81763 0.0
C1518 C 0.17319 0.44571 0.08939 0.0
C1519 C 0.19314 0.46258 0.08996 0.0
C1520 C 0.16233 0.43881 0.06675 0.0
C1521 C 0.15631 0.45977 1.00109 0.0
H1522 H 0.13672 0.39142 0.98908 0.0
C1523 C 0.13639 0.42167 0.9032 0.0
C1524 C 0.1168 0.40461 0.89994 0.0
C1525 C 0.14314 0.42983 0.92685 0.0
C1526 C 0.14175 0.41066 0.99227 0.0
H1527 H 0.21651 0.48658 0.06753 0.0
H1528 H 0.19817 0.47418 0.02813 0.0
H1529 H 0.15416 0.40299 0.02932 0.0
H1530 H 0.08842 0.38326 0.91894 0.0
H1531 H 0.1003 0.3975 0.96056 0.0
H1532 H 0.14451 0.4673 0.96386 0.0
C1533 C 0.19074 0.46619 0.04502 0.0
C1534 C 0.15177 0.41731 0.01536 0.0
C1535 C 0.20152 0.47307 0.0676 0.0
C1536 C 0.10354 0.39648 0.92088 0.0
C1537 C 0.1105 0.40445 0.94469 0.0
C1538 C 0.14647 0.45309 0.97801 0.0
C1539 C 0.17096 0.44899 0.04424 0.0
C1540 C 0.1594 0.44193 0.02001 0.0
C1541 C 0.1306 0.421 0.94796 0.0
C1542 C 0.13928 0.42841 0.9732 0.0
H1543 H 0.1661 0.43777 0.10646 0.0
H1544 H 0.14692 0.42581 0.06694 0.0
H1545 H 0.16146 0.47901 1.0041 0.0
H1546 H 0.14685 0.42837 0.88739 0.0
H1547 H 0.1588 0.44243 0.92865 0.0
C1548 C 0.8292 0.92384 0.34696 0.0
C1549 C 0.81416 0.94501 0.34696 0.0
C1550 C 0.83646 0.91312 0.32454 0.0
C1551 C 0.84601 0.92693 0.25894 0.0
H1552 H 0.83498 0.85653 0.24814 0.0
C1553 C 0.86147 0.88476 0.16277 0.0
C1554 C 0.87161 0.86091 0.16148 0.0
C1555 C 0.85314 0.89409 0.18534 0.0
C1556 C 0.83858 0.87614 0.25091 0.0
H1557 H 0.79372 0.97075 0.32368 0.0
H1558 H 0.80714 0.95265 0.28463 0.0
H1559 H 0.82469 0.87478 0.28812 0.0
H1560 H 0.88072 0.8278 0.18234 0.0
H1561 H 0.8671 0.8443 0.22215 0.0
H1562 H 0.86064 0.92846 0.2223 0.0
C1563 C 0.8136 0.94453 0.30188 0.0
C1564 C 0.8326 0.88657 0.27382 0.0
C1565 C 0.80605 0.95496 0.32422 0.0
C1566 C 0.87275 0.84621 0.18297 0.0
C1567 C 0.86485 0.8557 0.20572 0.0
C1568 C 0.8524 0.91647 0.23623 0.0
C1569 C 0.82877 0.92344 0.3018 0.0
C1570 C 0.8361 0.9121 0.27797 0.0
C1571 C 0.85532 0.87998 0.2073 0.0
C1572 C 0.84858 0.89095 0.23174 0.0
H1573 H 0.83526 0.91556 0.36428 0.0
H1574 H 0.84817 0.89685 0.32496 0.0
H1575 H 0.84907 0.94663 0.26173 0.0
H1576 H 0.86033 0.89634 0.14632 0.0
H1577 H 0.84526 0.91253 0.18555 0.0
C1578 C 0.31424 0.54163 0.57041 0.0
C1579 C 0.32196 0.55152 0.59329 0.0
C1580 C 0.32568 0.54917 0.54825 0.0
C1581 C 0.36428 0.59963 0.52088 0.0
H1582 H 0.3812 0.55049 0.47155 0.0
C1583 C 0.42547 0.62675 0.43752 0.0
C1584 C 0.42011 0.61628 0.4143 0.0
C1585 C 0.4143 0.61749 0.4591 0.0
C1586 C 0.37639 0.56457 0.48492 0.0
H1587 H 0.34826 0.57628 0.611 0.0
H1588 H 0.36809 0.58972 0.5724 0.0
H1589 H 0.35923 0.53772 0.50906 0.0
H1590 H 0.39916 0.58757 0.39549 0.0
H1591 H 0.37911 0.57157 0.43307 0.0
H1592 H 0.38092 0.62657 0.49681 0.0
C1593 C 0.35291 0.57647 0.57144 0.0
C1594 C 0.36376 0.5572 0.50651 0.0
C1595 C 0.34162 0.56875 0.59358 0.0
C1596 C 0.4039 0.59575 0.41321 0.0
C1597 C 0.3924 0.58664 0.43482 0.0
C1598 C 0.37671 0.60702 0.49927 0.0
C1599 C 0.3452 0.56671 0.54845 0.0
C1600 C 0.35774 0.5746 0.52492 0.0
C1601 C 0.39699 0.59775 0.45808 0.0
C1602 C 0.38325 0.58961 0.481 0.0
H1603 H 0.29949 0.52787 0.56966 0.0
H1604 H 0.31911 0.54137 0.53094 0.0
H1605 H 0.35953 0.61364 0.53437 0.0
H1606 H 0.43788 0.64261 0.43888 0.0
H1607 H 0.41899 0.62617 0.47657 0.0
C1608 C 0.19194 0.21465 0.43215 0.0
C1609 C 0.19438 0.22016 0.45748 0.0
C1610 C 0.21283 0.20848 0.41814 0.0
C1611 C 0.2768 0.18476 0.42602 0.0
H1612 H 0.28433 0.20487 0.35734 0.0
C1613 C 0.36446 0.16058 0.3707 0.0
C1614 C 0.35965 0.14926 0.3478 0.0
C1615 C 0.34543 0.17265 0.38334 0.0
C1616 C 0.28244 0.1991 0.3765 0.0
H1617 H 0.22084 0.22486 0.48759 0.0
H1618 H 0.25697 0.21437 0.4633 0.0
H1619 H 0.24847 0.21902 0.38086 0.0
H1620 H 0.3319 0.14246 0.31952 0.0
H1621 H 0.29871 0.16398 0.34129 0.0
H1622 H 0.31065 0.16476 0.42166 0.0
C1623 C 0.23897 0.21413 0.4543 0.0
C1624 C 0.26185 0.2071 0.38994 0.0
C1625 C 0.21819 0.22023 0.46824 0.0
C1626 C 0.33597 0.15123 0.33712 0.0
C1627 C 0.31705 0.16358 0.34956 0.0
C1628 C 0.29742 0.17692 0.41265 0.0
C1629 C 0.23657 0.20782 0.42916 0.0
C1630 C 0.2587 0.1999 0.41484 0.0
C1631 C 0.32138 0.17382 0.37312 0.0
C1632 C 0.3004 0.18385 0.3877 0.0
H1633 H 0.17387 0.21445 0.4233 0.0
H1634 H 0.21027 0.20353 0.39886 0.0
H1635 H 0.27477 0.17843 0.445 0.0
H1636 H 0.38257 0.15903 0.37933 0.0
H1637 H 0.34935 0.18055 0.40138 0.0
C1638 C 0.11555 0.10406 0.63948 0.0
C1639 C 0.12378 0.10548 0.61483 0.0
C1640 C 0.10563 0.08191 0.64901 0.0
C1641 C 0.10925 0.01469 0.64229 0.0
H1642 H 0.04902 0.01316 0.68121 0.0
C1643 C 0.06989 0.92226 0.68272 0.0
C1644 C 0.05763 0.92306 0.70559 0.0
C1645 C 0.07724 0.94427 0.67067 0.0
C1646 C 0.06613 0.01319 0.67079 0.0
H1647 H 0.1278 0.08499 0.5807 0.0
H1648 H 0.11087 0.04587 0.59756 0.0
H1649 H 0.06256 0.05192 0.66193 0.0
H1650 H 0.04218 0.94771 0.733 0.0
H1651 H 0.05615 0.98575 0.71313 0.0
H1652 H 0.11358 0.97635 0.65192 0.0
C1653 C 0.11195 0.06203 0.60941 0.0
C1654 C 0.07374 0.03547 0.65953 0.0
C1655 C 0.12143 0.0844 0.59971 0.0
C1656 C 0.05225 0.94635 0.7158 0.0
C1657 C 0.05991 0.96831 0.70404 0.0
C1658 C 0.10189 0.99248 0.65391 0.0
C1659 C 0.10415 0.06049 0.63425 0.0
C1660 C 0.09541 0.0365 0.64519 0.0
C1661 C 0.07245 0.9677 0.68119 0.0
C1662 C 0.08022 0.99135 0.66842 0.0
H1663 H 0.1172 0.12005 0.65152 0.0
H1664 H 0.09991 0.08131 0.66823 0.0
H1665 H 0.12623 0.01498 0.63162 0.0
H1666 H 0.07376 0.90457 0.67411 0.0
H1667 H 0.0863 0.94284 0.65289 0.0
C1668 C 0.17194 0.8581 0.87155 0.0
C1669 C 0.17572 0.87652 0.85338 0.0
C1670 C 0.19227 0.84739 0.88386 0.0
C1671 C 0.26061 0.83937 0.87964 0.0
H1672 H 0.25857 0.83566 0.95141 0.0
C1673 C 0.34969 0.82735 0.93749 0.0
C1674 C 0.34882 0.81075 0.95757 0.0
C1675 C 0.32786 0.8345 0.92538 0.0
C1676 C 0.25935 0.83632 0.93136 0.0
H1677 H 0.20349 0.89735 0.83301 0.0
H1678 H 0.23878 0.87866 0.85411 0.0
H1679 H 0.22137 0.84762 0.92823 0.0
H1680 H 0.32459 0.78785 0.98025 0.0
H1681 H 0.2864 0.80043 0.95923 0.0
H1682 H 0.29854 0.82834 0.88266 0.0
C1683 C 0.2203 0.87237 0.85899 0.0
C1684 C 0.238 0.84309 0.91806 0.0
C1685 C 0.20009 0.88317 0.84694 0.0
C1686 C 0.32572 0.80124 0.96523 0.0
C1687 C 0.30386 0.8084 0.95315 0.0
C1688 C 0.28188 0.83263 0.89288 0.0
C1689 C 0.2167 0.8547 0.87795 0.0
C1690 C 0.23849 0.84506 0.89204 0.0
C1691 C 0.30468 0.82488 0.93285 0.0
C1692 C 0.28165 0.83136 0.91892 0.0
H1693 H 0.1533 0.8528 0.87696 0.0
H1694 H 0.18888 0.83366 0.89821 0.0
H1695 H 0.26153 0.84027 0.8596 0.0
H1696 H 0.36732 0.83464 0.93106 0.0
H1697 H 0.32915 0.84747 0.91002 0.0
C1698 C 0.45849 0.09198 0.17967 0.0
C1699 C 0.47196 0.09188 0.20201 0.0
C1700 C 0.45007 0.06968 0.16917 0.0
C1701 C 0.43531 1.00423 0.18413 0.0
H1702 H 0.4419 0.9943 0.11335 0.0
C1703 C 0.40726 0.91083 0.13841 0.0
C1704 C 0.39536 0.91208 0.11527 0.0
C1705 C 0.41844 0.93206 0.14868 0.0
C1706 C 0.43957 0.99681 0.1331 0.0
H1707 H 0.48856 0.06818 0.23 0.0
H1708 H 0.4734 0.02928 0.21205 0.0
H1709 H 0.45694 0.03277 0.13197 0.0
H1710 H 0.38583 0.93614 0.08456 0.0
H1711 H 0.40505 0.97329 0.10236 0.0
H1712 H 0.41738 0.96864 0.18529 0.0
C1713 C 0.46891 0.04663 0.20287 0.0
C1714 C 0.44828 0.01892 0.14379 0.0
C1715 C 0.47754 0.06893 0.21321 0.0
C1716 C 0.39519 0.93473 0.10232 0.0
C1717 C 0.4063 0.95597 0.11256 0.0
C1718 C 0.42633 0.98223 0.17341 0.0
C1719 C 0.45509 0.04671 0.18068 0.0
C1720 C 0.44616 0.02297 0.16942 0.0
C1721 C 0.4178 0.95508 0.13608 0.0
C1722 C 0.42824 0.9782 0.14769 0.0
H1723 H 0.45429 0.10937 0.17044 0.0
H1724 H 0.43939 0.07043 0.15214 0.0
H1725 H 0.43325 1.00678 0.2039 0.0
H1726 H 0.4074 0.89356 0.14881 0.0
H1727 H 0.42741 0.93043 0.16661 0.0
C1728 C 0.8376 0.3909 0.67422 0.0
C1729 C 0.86062 0.37903 0.67246 0.0
C1730 C 0.81641 0.38073 0.66301 0.0
C1731 C 0.7909 0.32352 0.6322 0.0
H1732 H 0.74437 0.37084 0.6044 0.0
C1733 C 0.70941 0.29544 0.56636 0.0
C1734 C 0.68635 0.30643 0.57113 0.0
C1735 C 0.73086 0.30356 0.57879 0.0
C1736 C 0.75707 0.35736 0.6122 0.0
H1737 H 0.87944 0.34684 0.6581 0.0
H1738 H 0.8426 0.32926 0.63781 0.0
H1739 H 0.78115 0.38577 0.62607 0.0
H1740 H 0.66737 0.33357 0.59338 0.0
H1741 H 0.70491 0.34822 0.61476 0.0
H1742 H 0.76684 0.29513 0.61755 0.0
C1743 C 0.84066 0.34622 0.64831 0.0
C1744 C 0.77819 0.36591 0.62482 0.0
C1745 C 0.86185 0.35626 0.65993 0.0
C1746 C 0.68502 0.32521 0.58901 0.0
C1747 C 0.70651 0.33358 0.60118 0.0
C1748 C 0.76986 0.31497 0.61927 0.0
C1749 C 0.81768 0.3586 0.64924 0.0
C1750 C 0.79535 0.34916 0.63531 0.0
C1751 C 0.72972 0.32284 0.59626 0.0
C1752 C 0.75255 0.33179 0.60933 0.0
H1753 H 0.83608 0.40839 0.68395 0.0
H1754 H 0.79904 0.3905 0.66493 0.0
H1755 H 0.8034 0.30995 0.64013 0.0
H1756 H 0.71083 0.28049 0.55307 0.0
H1757 H 0.74842 0.29498 0.57446 0.0
C1758 C 0.94206 0.4594 0.8232 0.0
C1759 C 0.96724 0.45318 0.8247 0.0
C1760 C 0.93306 0.4802 0.83545 0.0
C1761 C 0.94861 0.52743 0.88371 0.0
H1762 H 0.89542 0.56271 0.85064 0.0
C1763 C 0.89296 0.6056 0.9317 0.0
C1764 C 0.88232 0.62414 0.91679 0.0
C1765 C 0.90554 0.58573 0.92088 0.0
C1766 C 0.91057 0.55349 0.86006 0.0
H1767 H 1.00274 0.46341 0.84068 0.0
H1768 H 0.98726 0.5005 0.8615 0.0
H1769 H 0.91331 0.52687 0.83112 0.0
H1770 H 0.87764 0.63752 0.87923 0.0
H1771 H 0.90067 0.60382 0.86033 0.0
H1772 H 0.94657 0.55496 0.91214 0.0
C1773 C 0.97427 0.48902 0.85125 0.0
C1774 C 0.92054 0.53244 0.84902 0.0
C1775 C 0.98321 0.46783 0.83926 0.0
C1776 C 0.88544 0.6232 0.89104 0.0
C1777 C 0.89846 0.60371 0.88026 0.0
C1778 C 0.93888 0.54883 0.89462 0.0
C1779 C 0.94909 0.49568 0.84921 0.0
C1780 C 0.93944 0.51883 0.86081 0.0
C1781 C 0.90811 0.58427 0.89493 0.0
C1782 C 0.91953 0.56207 0.88304 0.0
H1783 H 0.9292 0.44806 0.81261 0.0
H1784 H 0.91342 0.48409 0.83407 0.0
H1785 H 0.96303 0.51742 0.89349 0.0
H1786 H 0.8907 0.60598 0.95164 0.0
H1787 H 0.91242 0.57111 0.93286 0.0
C1788 C 0.83563 0.7069 0.10007 0.0
C1789 C 0.83444 0.72206 0.07883 0.0
C1790 C 0.81389 0.69863 0.1118 0.0
C1791 C 0.74831 0.68471 0.1011 0.0
H1792 H 0.74112 0.69105 0.17236 0.0
C1793 C 0.67935 0.6276 0.16111 0.0
C1794 C 0.65976 0.64157 0.17113 0.0
C1795 C 0.70028 0.63925 0.15098 0.0
C1796 C 0.74287 0.68929 0.15245 0.0
H1797 H 0.80948 0.74169 0.05413 0.0
H1798 H 0.77143 0.72624 0.07388 0.0
H1799 H 0.77853 0.70744 0.15185 0.0
H1800 H 0.64808 0.67907 0.17962 0.0
H1801 H 0.6855 0.69935 0.16283 0.0
H1802 H 0.71317 0.6656 0.10187 0.0
C1803 C 0.78922 0.72059 0.08134 0.0
C1804 C 0.76429 0.6985 0.14073 0.0
C1805 C 0.81099 0.72926 0.06991 0.0
C1806 C 0.66268 0.66761 0.17219 0.0
C1807 C 0.68401 0.67928 0.16242 0.0
C1808 C 0.7272 0.67499 0.11289 0.0
C1809 C 0.79042 0.70528 0.10252 0.0
C1810 C 0.76731 0.69622 0.11492 0.0
C1811 C 0.70267 0.66518 0.15114 0.0
C1812 C 0.72429 0.67713 0.13867 0.0
H1813 H 0.85344 0.70147 0.10765 0.0
H1814 H 0.81544 0.6868 0.12802 0.0
H1815 H 0.75006 0.68265 0.08124 0.0
H1816 H 0.67834 0.60751 0.16059 0.0
H1817 H 0.71457 0.62793 0.14274 0.0
C1818 C 0.6292 0.41933 0.41616 0.0
C1819 C 0.62523 0.39773 0.40208 0.0
C1820 C 0.61893 0.44214 0.4086 0.0
C1821 C 0.57101 0.47003 0.36663 0.0
H1822 H 0.61367 0.52826 0.36845 0.0
C1823 C 0.54584 0.56063 0.31379 0.0
C1824 C 0.55155 0.58342 0.32515 0.0
C1825 C 0.55452 0.53822 0.32387 0.0
C1826 C 0.60135 0.51229 0.36805 0.0
H1827 H 0.60622 0.38293 0.36985 0.0
H1828 H 0.5884 0.4223 0.35678 0.0
H1829 H 0.62819 0.48912 0.38613 0.0
H1830 H 0.56976 0.60049 0.35661 0.0
H1831 H 0.58475 0.56147 0.37441 0.0
H1832 H 0.5442 0.4931 0.34848 0.0
C1833 C 0.59942 0.42187 0.37361 0.0
C1834 C 0.60969 0.48979 0.37828 0.0
C1835 C 0.60979 0.39925 0.38103 0.0
C1836 C 0.56549 0.58324 0.3472 0.0
C1837 C 0.5742 0.56085 0.3573 0.0
C1838 C 0.56266 0.49251 0.35646 0.0
C1839 C 0.60422 0.4438 0.38695 0.0
C1840 C 0.59471 0.46825 0.37756 0.0
C1841 C 0.56883 0.53797 0.34581 0.0
C1842 C 0.57774 0.51398 0.35687 0.0
H1843 H 0.64107 0.41881 0.4324 0.0
H1844 H 0.62277 0.45854 0.41955 0.0
H1845 H 0.55876 0.454 0.36601 0.0
H1846 H 0.53464 0.56009 0.29709 0.0
H1847 H 0.55018 0.52109 0.31428 0.0
C1848 C 0.35325 0.36256 0.17159 0.0
C1849 C 0.35976 0.3684 0.14701 0.0
C1850 C 0.36133 0.34029 0.1826 0.0
C1851 C 0.41236 0.29568 0.1759 0.0
H1852 H 0.37454 0.25241 0.21952 0.0
C1853 C 0.44889 0.20008 0.20147 0.0
C1854 C 0.44832 0.19275 0.22642 0.0
C1855 C 0.43571 0.22076 0.19333 0.0
C1856 C 0.38538 0.26448 0.20757 0.0
H1857 H 0.37793 0.35476 0.11412 0.0
H1858 H 0.39156 0.31601 0.13299 0.0
H1859 H 0.35521 0.28993 0.20215 0.0
H1860 H 0.4322 0.20018 0.26226 0.0
H1861 H 0.40883 0.2368 0.24799 0.0
H1862 H 0.44244 0.27058 0.18111 0.0
C1863 C 0.38094 0.32879 0.1441 0.0
C1864 C 0.37432 0.28593 0.19762 0.0
C1865 C 0.37302 0.35094 0.13322 0.0
C1866 C 0.433 0.2056 0.24292 0.0
C1867 C 0.41968 0.2265 0.23474 0.0
C1868 C 0.42332 0.27442 0.18577 0.0
C1869 C 0.37597 0.32355 0.16916 0.0
C1870 C 0.38757 0.30149 0.18123 0.0
C1871 C 0.42151 0.23471 0.20996 0.0
C1872 C 0.40986 0.25824 0.20129 0.0
H1873 H 0.34308 0.37574 0.18266 0.0
H1874 H 0.35716 0.33679 0.20193 0.0
H1875 H 0.42339 0.30762 0.16398 0.0
H1876 H 0.45974 0.18988 0.18818 0.0
H1877 H 0.43692 0.22605 0.17397 0.0
C1878 C 0.92909 0.35154 0.8291 0.0
C1879 C 0.94687 0.35045 0.81026 0.0
C1880 C 0.91767 0.32975 0.83781 0.0
C1881 C 0.90132 0.26589 0.82006 0.0
H1882 H 0.90018 0.25269 0.89078 0.0
C1883 C 0.84526 0.18545 0.86743 0.0
C1884 C 0.85855 0.17132 0.88501 0.0
C1885 C 0.85575 0.20696 0.85695 0.0
C1886 C 0.90038 0.25615 0.87098 0.0
H1887 H 0.96553 0.32615 0.78452 0.0
H1888 H 0.94539 0.28815 0.7995 0.0
H1889 H 0.91844 0.29146 0.87531 0.0
H1890 H 0.89402 0.16821 0.90404 0.0
H1891 H 0.91174 0.20606 0.88649 0.0
H1892 H 0.88294 0.23061 0.81582 0.0
C1893 C 0.94057 0.30571 0.80787 0.0
C1894 C 0.91069 0.27838 0.86215 0.0
C1895 C 0.95226 0.3274 0.79947 0.0
C1896 C 0.88286 0.17891 0.89119 0.0
C1897 C 0.89313 0.20056 0.88104 0.0
C1898 C 0.89057 0.24383 0.82893 0.0
C1899 C 0.92329 0.30661 0.82724 0.0
C1900 C 0.91148 0.2834 0.8366 0.0
C1901 C 0.8796 0.21497 0.86406 0.0
C1902 C 0.89022 0.23865 0.85447 0.0
H1903 H 0.92435 0.3692 0.83732 0.0
H1904 H 0.90426 0.33099 0.85263 0.0
H1905 H 0.90156 0.26936 0.80026 0.0
H1906 H 0.82645 0.1804 0.86233 0.0
H1907 H 0.84489 0.2178 0.84392 0.0
C1908 C 0.09473 0.58782 0.11092 0.0
C1909 C 0.11274 0.60258 0.12287 0.0
C1910 C 0.0739 0.59881 0.09978 0.0
C1911 C 0.05002 0.65914 0.07631 0.0
H1912 H 0.98516 0.63141 0.09118 0.0
C1913 C 0.96112 0.71631 0.064 0.0
C1914 C 0.93935 0.70455 0.05546 0.0
C1915 C 0.9822 0.70257 0.07001 0.0
C1916 C 1.00312 0.63921 0.0865 0.0
H1917 H 0.12365 0.64041 0.13146 0.0
H1918 H 0.08755 0.65948 0.11219 0.0
H1919 H 0.02243 0.6095 0.10468 0.0
H1920 H 0.92331 0.66885 0.04553 0.0
H1921 H 0.96018 0.64482 0.0559 0.0
H1922 H 0.03087 0.68894 0.05838 0.0
C1923 C 0.08936 0.63947 0.11137 0.0
C1924 C 0.0245 0.62663 0.09424 0.0
C1925 C 0.10996 0.62853 0.12263 0.0
C1926 C 0.93948 0.67858 0.05253 0.0
C1927 C 0.96066 0.66475 0.05853 0.0
C1928 C 0.0287 0.67166 0.06853 0.0
C1929 C 0.07088 0.62478 0.10008 0.0
C1930 C 0.04821 0.63669 0.08965 0.0
C1931 C 0.98231 0.67659 0.06736 0.0
C1932 C 1.00495 0.66213 0.07394 0.0
H1933 H 0.09634 0.56778 0.11087 0.0
H1934 H 0.06011 0.58698 0.09104 0.0
H1935 H 0.06799 0.66719 0.07205 0.0
H1936 H 0.96214 0.73627 0.0657 0.0
H1937 H 0.99839 0.71237 0.07694 0.0
C1938 C 0.68807 0.84557 0.35728 0.0
C1939 C 0.67349 0.85996 0.37333 0.0
C1940 C 0.67807 0.82438 0.34576 0.0
C1941 C 0.63483 0.77543 0.35826 0.0
H1942 H 0.62597 0.76398 0.28785 0.0
C1943 C 0.56853 0.70003 0.32415 0.0
C1944 C 0.57315 0.68692 0.30228 0.0
C1945 C 0.58329 0.72015 0.33112 0.0
C1946 C 0.62875 0.76663 0.30756 0.0
H1947 H 0.63635 0.86423 0.3881 0.0
H1948 H 0.61947 0.82688 0.36895 0.0
H1949 H 0.64735 0.80179 0.30215 0.0
H1950 H 0.59789 0.68428 0.27085 0.0
H1951 H 0.62453 0.71924 0.28349 0.0
H1952 H 0.61688 0.74049 0.36408 0.0
C1953 C 0.63862 0.83198 0.36543 0.0
C1954 C 0.64088 0.78832 0.31568 0.0
C1955 C 0.64842 0.85326 0.37656 0.0
C1956 C 0.59369 0.69405 0.28781 0.0
C1957 C 0.60881 0.71424 0.29494 0.0
C1958 C 0.62319 0.75368 0.35022 0.0
C1959 C 0.65344 0.81709 0.35032 0.0
C1960 C 0.64338 0.79315 0.34114 0.0
C1961 C 0.60374 0.72758 0.31674 0.0
C1962 C 0.61921 0.74929 0.32479 0.0
H1963 H 0.70746 0.85005 0.35439 0.0
H1964 H 0.68984 0.8131 0.3342 0.0
H1965 H 0.63688 0.7786 0.37799 0.0
H1966 H 0.55364 0.69461 0.33623 0.0
H1967 H 0.57837 0.73005 0.3478 0.0
C1968 C 0.57457 0.3448 0.53576 0.0
C1969 C 0.58412 0.32538 0.55042 0.0
C1970 C 0.55402 0.35848 0.54375 0.0
C1971 C 0.51647 0.37093 0.60071 0.0
H1972 H 0.46581 0.39154 0.5538 0.0
C1973 C 0.41694 0.39198 0.62988 0.0
C1974 C 0.4085 0.41622 0.62493 0.0
C1975 C 0.4385 0.3831 0.61891 0.0
C1976 C 0.47996 0.38607 0.56702 0.0
H1977 H 0.58043 0.30639 0.58566 0.0
H1978 H 0.54411 0.32858 0.59876 0.0
H1979 H 0.50381 0.37207 0.53871 0.0
H1980 H 0.41572 0.44954 0.60318 0.0
H1981 H 0.45312 0.43341 0.58323 0.0
H1982 H 0.49201 0.38374 0.62901 0.0
C1983 C 0.55245 0.33376 0.58125 0.0
C1984 C 0.5018 0.37501 0.55843 0.0
C1985 C 0.57307 0.32046 0.57344 0.0
C1986 C 0.42153 0.43078 0.60743 0.0
C1987 C 0.443 0.42163 0.59607 0.0
C1988 C 0.49455 0.38149 0.60924 0.0
C1989 C 0.54253 0.35301 0.56659 0.0
C1990 C 0.52019 0.36685 0.57522 0.0
C1991 C 0.45197 0.39794 0.60223 0.0
C1992 C 0.47594 0.38883 0.59255 0.0
H1993 H 0.58272 0.3492 0.51794 0.0
H1994 H 0.54722 0.37337 0.53205 0.0
H1995 H 0.53039 0.36571 0.61424 0.0
H1996 H 0.40706 0.37984 0.64255 0.0
H1997 H 0.44483 0.3646 0.62365 0.0
C1998 C 0.13923 0.65717 0.64426 0.0
C1999 C 0.16487 0.65354 0.64209 0.0
C2000 C 0.13001 0.6775 0.65727 0.0
C2001 C 0.14822 0.72908 0.70068 0.0
H2002 H 0.08617 0.75654 0.67689 0.0
C2003 C 0.10284 0.82392 0.73109 0.0
C2004 C 0.07786 0.82135 0.73819 0.0
C2005 C 0.1156 0.80368 0.72092 0.0
C2006 C 0.10352 0.74906 0.68374 0.0
H2007 H 0.20104 0.66807 0.6521 0.0
H2008 H 0.18509 0.70432 0.67395 0.0
H2009 H 0.1041 0.72123 0.65579 0.0
H2010 H 0.04746 0.79489 0.74195 0.0
H2011 H 0.06925 0.76035 0.72346 0.0
H2012 H 0.14767 0.75792 0.7282 0.0
C2013 C 0.17195 0.69115 0.66622 0.0
C2014 C 0.11375 0.72858 0.67181 0.0
C2015 C 0.18116 0.67043 0.6536 0.0
C2016 C 0.06644 0.79784 0.7361 0.0
C2017 C 0.07893 0.77793 0.72557 0.0
C2018 C 0.13815 0.74998 0.71235 0.0
C2019 C 0.14618 0.69519 0.66799 0.0
C2020 C 0.13603 0.71789 0.68033 0.0
C2021 C 0.10346 0.78072 0.71743 0.0
C2022 C 0.11549 0.75988 0.70421 0.0
H2023 H 0.12627 0.64421 0.63583 0.0
H2024 H 0.1101 0.67928 0.65883 0.0
H2025 H 0.16524 0.7214 0.70805 0.0
H2026 H 0.11224 0.84171 0.73254 0.0
H2027 H 0.13456 0.80626 0.71482 0.0
C2028 C 0.4577 0.82605 0.95037 0.0
C2029 C 0.45138 0.82729 0.97549 0.0
C2030 C 0.47797 0.83944 0.94125 0.0
C2031 C 0.52215 0.89101 0.95643 0.0
H2032 H 0.5591 0.86158 0.90264 0.0
C2033 C 0.61696 0.92633 0.91431 0.0
C2034 C 0.61592 0.92976 0.8884 0.0
C2035 C 0.59692 0.91551 0.92699 0.0
C2036 C 0.54893 0.86999 0.91767 0.0
H2037 H 0.46092 0.84373 1.01084 0.0
H2038 H 0.49706 0.86652 0.99519 0.0
H2039 H 0.52477 0.83864 0.92111 0.0
H2040 H 0.59209 0.92617 0.856 0.0
H2041 H 0.55786 0.90642 0.87798 0.0
H2042 H 0.54724 0.92211 0.95315 0.0
C2043 C 0.48607 0.85565 0.9823 0.0
C2044 C 0.52908 0.85698 0.92815 0.0
C2045 C 0.46544 0.84253 0.99133 0.0
C2046 C 0.59394 0.92316 0.87578 0.0
C2047 C 0.57422 0.912 0.88835 0.0
C2048 C 0.54241 0.90385 0.94619 0.0
C2049 C 0.49275 0.85411 0.95713 0.0
C2050 C 0.51501 0.8675 0.9473 0.0
C2051 C 0.5757 0.90766 0.91394 0.0
C2052 C 0.5556 0.89361 0.9264 0.0
H2053 H 0.44676 0.81495 0.93763 0.0
H2054 H 0.4819 0.83835 0.92162 0.0
H2055 H 0.51171 0.89986 0.97098 0.0
H2056 H 0.63358 0.93101 0.92466 0.0
H2057 H 0.59842 0.9123 0.94678 0.0
C2058 C 0.91531 0.12986 0.40015 0.0
C2059 C 0.91379 0.10537 0.39156 0.0
C2060 C 0.93679 0.13849 0.412 0.0
C2061 C 0.99729 0.11761 0.43986 0.0
H2062 H 0.01456 0.18689 0.42976 0.0
C2063 C 0.09393 0.16203 0.46313 0.0
C2064 C 0.09306 0.18439 0.47641 0.0
C2065 C 0.07209 0.15126 0.45372 0.0
C2066 C 0.00996 0.16753 0.43277 0.0
H2067 H 0.93317 0.07049 0.38871 0.0
H2068 H 0.9713 0.08573 0.40829 0.0
H2069 H 0.9768 0.1704 0.41133 0.0
H2070 H 0.06849 0.21188 0.49196 0.0
H2071 H 0.03062 0.19365 0.47484 0.0
H2072 H 0.03139 0.1149 0.46049 0.0
C2073 C 0.95574 0.09823 0.4067 0.0
C2074 C 0.9881 0.15802 0.42241 0.0
C2075 C 0.93396 0.08946 0.39532 0.0
C2076 C 0.06987 0.19513 0.48108 0.0
C2077 C 0.04815 0.18462 0.47139 0.0
C2078 C 0.0195 0.12709 0.44978 0.0
C2079 C 0.9576 0.123 0.41498 0.0
C2080 C 0.98124 0.13294 0.42597 0.0
C2081 C 0.04903 0.16269 0.45746 0.0
C2082 C 0.02593 0.15221 0.44647 0.0
H2083 H 0.89982 0.14236 0.39764 0.0
H2084 H 0.93702 0.1574 0.41872 0.0
H2085 H 0.99262 0.09834 0.44343 0.0
H2086 H 0.11154 0.15314 0.45969 0.0
H2087 H 0.07327 0.13432 0.44305 0.0
loop_
_geom_bond_atom_site_label_1
_geom_bond_atom_site_label_2
_geom_bond_distance
_geom_bond_site_symmetry_2
_ccdc_geom_bond_type
Eu0 N31 2.657 . S
Eu0 N38 2.609 . S
Eu0 O44 2.558 . S
Eu0 O45 2.612 . S
Eu0 O47 2.339 . S
Eu0 O48 2.563 . S
Eu0 O49 2.419 . S
Eu0 O51 2.380 . S
Eu0 O52 2.432 . S
Eu0 C64 2.848 . S
C1 C4 1.429 . S
C1 C5 1.411 . S
C1 N8 1.377 . S
C2 C4 1.420 . S
C2 C6 1.423 . S
C2 C14 1.392 . S
C3 C5 1.420 . S
C3 C6 1.351 . S
C3 H26 0.931 . S
C4 C1 1.429 . S
C4 C2 1.420 . S
C4 N12 1.362 . S
C5 C1 1.411 . S
C5 C3 1.420 . S
C5 C10 1.395 . S
C6 C2 1.423 . S
C6 C3 1.351 . S
C6 H18 0.930 . S
C7 C9 1.400 . S
C7 C10 1.386 . S
C7 H19 0.930 . S
N8 C1 1.377 . S
N8 C9 1.321 . S
N8 Eu11 2.609 . S
C9 C7 1.400 . S
C9 N8 1.321 . S
C9 H16 0.930 . S
C10 C5 1.395 . S
C10 C7 1.386 . S
C10 H29 0.930 . S
Eu11 N8 2.609 . S
Eu11 N12 2.657 . S
Eu11 O45 2.380 . S
Eu11 O46 2.432 . S
Eu11 O50 2.558 . S
Eu11 O51 2.612 . S
Eu11 O53 2.339 . S
Eu11 O54 2.563 . S
Eu11 O55 2.419 . S
Eu11 C75 2.848 . S
N12 C4 1.362 . S
N12 Eu11 2.657 . S
N12 C13 1.334 . S
C13 N12 1.334 . S
C13 C15 1.413 . S
C13 H20 0.929 . S
C14 C2 1.392 . S
C14 C15 1.367 . S
C14 H22 0.930 . S
C15 C13 1.413 . S
C15 C14 1.367 . S
C15 H17 0.930 . S
H16 C9 0.930 . S
H17 C15 0.930 . S
H18 C6 0.930 . S
H19 C7 0.930 . S
H20 C13 0.929 . S
H21 C35 0.930 . S
H22 C14 0.930 . S
H23 C41 0.930 . S
H24 C32 0.929 . S
H25 C39 0.930 . S
H26 C3 0.931 . S
H27 C33 0.930 . S
H28 C66 0.930 . S
H29 C10 0.930 . S
H30 C65 0.931 . S
N31 Eu0 2.657 . S
N31 C32 1.334 . S
N31 C36 1.362 . S
C32 H24 0.929 . S
C32 N31 1.334 . S
C32 C35 1.413 . S
C33 H27 0.930 . S
C33 C34 1.392 . S
C33 C35 1.367 . S
C34 C33 1.392 . S
C34 C36 1.420 . S
C34 C66 1.423 . S
C35 H21 0.930 . S
C35 C32 1.413 . S
C35 C33 1.367 . S
C36 N31 1.362 . S
C36 C34 1.420 . S
C36 C40 1.429 . S
H37 C42 0.930 . S
N38 Eu0 2.609 . S
N38 C40 1.377 . S
N38 C41 1.321 . S
C39 H25 0.930 . S
C39 C41 1.400 . S
C39 C42 1.386 . S
C40 C36 1.429 . S
C40 N38 1.377 . S
C40 C43 1.411 . S
C41 H23 0.930 . S
C41 N38 1.321 . S
C41 C39 1.400 . S
C42 H37 0.930 . S
C42 C39 1.386 . S
C42 C43 1.395 . S
C43 C40 1.411 . S
C43 C42 1.395 . S
C43 C65 1.420 . S
O44 Eu0 2.558 . S
O44 C64 1.257 . S
O45 Eu0 2.612 . S
O45 Eu11 2.380 . S
O45 C56 1.276 . S
O46 Eu11 2.432 . S
O46 C63 1.264 . S
O47 Eu0 2.339 . S
O47 C63 1.254 . S
O48 Eu0 2.563 . S
O48 C56 1.235 . S
O49 Eu0 2.419 . S
O49 C64 1.249 . S
O50 Eu11 2.558 . S
O50 C75 1.257 . S
O51 Eu0 2.380 . S
O51 Eu11 2.612 . S
O51 C67 1.276 . S
O52 Eu0 2.432 . S
O52 C74 1.264 . S
O53 Eu11 2.339 . S
O53 C74 1.254 . S
O54 Eu11 2.563 . S
O54 C67 1.235 . S
O55 Eu11 2.419 . S
O55 C75 1.249 . S
C56 O45 1.276 . S
C56 O48 1.235 . S
C57 C59 1.393 . S
C57 C61 1.395 . S
C57 C64 1.492 . S
C58 C59 1.392 . S
C58 C60 1.386 . S
C59 C57 1.393 . S
C59 C58 1.392 . S
C59 H76 0.930 . S
C60 C58 1.386 . S
C60 C62 1.395 . S
C60 H77 0.930 . S
C61 C57 1.395 . S
C61 C62 1.379 . S
C61 H78 0.930 . S
C62 C60 1.395 . S
C62 C61 1.379 . S
C62 H79 0.930 . S
C63 O46 1.264 . S
C63 O47 1.254 . S
C64 Eu0 2.848 . S
C64 O44 1.257 . S
C64 O49 1.249 . S
C64 C57 1.492 . S
C65 H30 0.931 . S
C65 C43 1.420 . S
C65 C66 1.351 . S
C66 H28 0.930 . S
C66 C34 1.423 . S
C66 C65 1.351 . S
C67 O51 1.276 . S
C67 O54 1.235 . S
C68 C69 1.393 . S
C68 C72 1.395 . S
C68 C75 1.492 . S
C69 C68 1.393 . S
C69 C70 1.392 . S
C69 H80 0.930 . S
C70 C69 1.392 . S
C70 C71 1.386 . S
C71 C70 1.386 . S
C71 C73 1.395 . S
C71 H81 0.930 . S
C72 C68 1.395 . S
C72 C73 1.379 . S
C72 H82 0.930 . S
C73 C71 1.395 . S
C73 C72 1.379 . S
C73 H83 0.930 . S
C74 O52 1.264 . S
C74 O53 1.254 . S
C75 Eu11 2.848 . S
C75 O50 1.257 . S
C75 O55 1.249 . S
C75 C68 1.492 . S
H76 C59 0.930 . S
H77 C60 0.930 . S
H78 C61 0.930 . S
H79 C62 0.930 . S
H80 C69 0.930 . S
H81 C71 0.930 . S
H82 C72 0.930 . S
H83 C73 0.930 . S
Eu84 N115 2.657 . S
Eu84 N122 2.609 . S
Eu84 O128 2.558 . S
Eu84 O129 2.612 1_655 S
Eu84 O131 2.339 . S
Eu84 O132 2.563 1_655 S
Eu84 O133 2.419 . S
Eu84 O135 2.380 1_655 S
Eu84 O136 2.432 1_655 S
Eu84 C148 2.848 . S
C85 C88 1.429 . S
C85 C89 1.411 . S
C85 N92 1.377 . S
C86 C88 1.420 . S
C86 C90 1.423 . S
C86 C98 1.392 . S
C87 C89 1.420 . S
C87 C90 1.351 . S
C87 H110 0.931 . S
C88 C85 1.429 . S
C88 C86 1.420 . S
C88 N96 1.362 . S
C89 C85 1.411 . S
C89 C87 1.420 . S
C89 C94 1.395 . S
C90 C86 1.423 . S
C90 C87 1.351 . S
C90 H102 0.930 . S
C91 C93 1.400 . S
C91 C94 1.386 . S
C91 H103 0.930 . S
N92 C85 1.377 . S
N92 C93 1.321 . S
N92 Eu95 2.609 . S
C93 C91 1.400 . S
C93 N92 1.321 . S
C93 H100 0.930 . S
C94 C89 1.395 . S
C94 C91 1.386 . S
C94 H113 0.930 . S
Eu95 N92 2.609 . S
Eu95 N96 2.657 . S
Eu95 O129 2.380 . S
Eu95 O130 2.432 . S
Eu95 O134 2.558 . S
Eu95 O135 2.612 . S
Eu95 O137 2.339 . S
Eu95 O138 2.563 . S
Eu95 O139 2.419 . S
Eu95 C159 2.848 . S
N96 C88 1.362 . S
N96 Eu95 2.657 . S
N96 C97 1.334 . S
C97 N96 1.334 . S
C97 C99 1.413 . S
C97 H104 0.929 . S
C98 C86 1.392 . S
C98 C99 1.367 . S
C98 H106 0.930 . S
C99 C97 1.413 . S
C99 C98 1.367 . S
C99 H101 0.930 . S
H100 C93 0.930 . S
H101 C99 0.930 . S
H102 C90 0.930 . S
H103 C91 0.930 . S
H104 C97 0.929 . S
H105 C119 0.930 . S
H106 C98 0.930 . S
H107 C125 0.930 1_455 S
H108 C116 0.929 . S
H109 C123 0.930 . S
H110 C87 0.931 . S
H111 C117 0.930 . S
H112 C150 0.930 . S
H113 C94 0.930 . S
H114 C149 0.931 . S
N115 Eu84 2.657 . S
N115 C116 1.334 . S
N115 C120 1.362 . S
C116 H108 0.929 . S
C116 N115 1.334 . S
C116 C119 1.413 . S
C117 H111 0.930 . S
C117 C118 1.392 . S
C117 C119 1.367 . S
C118 C117 1.392 . S
C118 C120 1.420 . S
C118 C150 1.423 . S
C119 H105 0.930 . S
C119 C116 1.413 . S
C119 C117 1.367 . S
C120 N115 1.362 . S
C120 C118 1.420 . S
C120 C124 1.429 . S
H121 C126 0.930 . S
N122 Eu84 2.609 . S
N122 C124 1.377 . S
N122 C125 1.321 . S
C123 H109 0.930 . S
C123 C125 1.400 . S
C123 C126 1.386 . S
C124 C120 1.429 . S
C124 N122 1.377 . S
C124 C127 1.411 . S
C125 H107 0.930 1_655 S
C125 N122 1.321 . S
C125 C123 1.400 . S
C126 H121 0.930 . S
C126 C123 1.386 . S
C126 C127 1.395 . S
C127 C124 1.411 . S
C127 C126 1.395 . S
C127 C149 1.420 . S
O128 Eu84 2.558 . S
O128 C148 1.257 . S
O129 Eu84 2.612 1_455 S
O129 Eu95 2.380 . S
O129 C140 1.276 . S
O130 Eu95 2.432 . S
O130 C147 1.264 1_455 S
O131 Eu84 2.339 . S
O131 C147 1.254 . S
O132 Eu84 2.563 1_455 S
O132 C140 1.235 . S
O133 Eu84 2.419 . S
O133 C148 1.249 . S
O134 Eu95 2.558 . S
O134 C159 1.257 . S
O135 Eu84 2.380 1_455 S
O135 Eu95 2.612 . S
O135 C151 1.276 . S
O136 Eu84 2.432 1_455 S
O136 C158 1.264 . S
O137 Eu95 2.339 . S
O137 C158 1.254 . S
O138 Eu95 2.563 . S
O138 C151 1.235 . S
O139 Eu95 2.419 . S
O139 C159 1.249 . S
C140 O129 1.276 . S
C140 O132 1.235 . S
C141 C143 1.393 . S
C141 C145 1.395 . S
C141 C148 1.492 . S
C142 C143 1.392 . S
C142 C144 1.386 . S
C143 C141 1.393 . S
C143 C142 1.392 . S
C143 H160 0.930 . S
C144 C142 1.386 . S
C144 C146 1.395 . S
C144 H161 0.930 . S
C145 C141 1.395 . S
C145 C146 1.379 . S
C145 H162 0.930 . S
C146 C144 1.395 . S
C146 C145 1.379 . S
C146 H163 0.930 . S
C147 O130 1.264 1_655 S
C147 O131 1.254 . S
C148 Eu84 2.848 . S
C148 O128 1.257 . S
C148 O133 1.249 . S
C148 C141 1.492 . S
C149 H114 0.931 . S
C149 C127 1.420 . S
C149 C150 1.351 . S
C150 H112 0.930 . S
C150 C118 1.423 . S
C150 C149 1.351 . S
C151 O135 1.276 . S
C151 O138 1.235 . S
C152 C153 1.393 . S
C152 C156 1.395 . S
C152 C159 1.492 . S
C153 C152 1.393 . S
C153 C154 1.392 . S
C153 H164 0.930 . S
C154 C153 1.392 . S
C154 C155 1.386 . S
C155 C154 1.386 . S
C155 C157 1.395 . S
C155 H165 0.930 . S
C156 C152 1.395 . S
C156 C157 1.379 . S
C156 H166 0.930 . S
C157 C155 1.395 . S
C157 C156 1.379 . S
C157 H167 0.930 . S
C158 O136 1.264 . S
C158 O137 1.254 . S
C159 Eu95 2.848 . S
C159 O134 1.257 . S
C159 O139 1.249 . S
C159 C152 1.492 . S
H160 C143 0.930 . S
H161 C144 0.930 . S
H162 C145 0.930 . S
H163 C146 0.930 . S
H164 C153 0.930 . S
H165 C155 0.930 . S
H166 C156 0.930 . S
H167 C157 0.930 . S
Eu168 N199 2.657 . S
Eu168 N206 2.609 . S
Eu168 O212 2.558 . S
Eu168 O213 2.612 . S
Eu168 O215 2.339 . S
Eu168 O216 2.563 . S
Eu168 O217 2.419 . S
Eu168 O219 2.373 1_556 S
Eu168 O220 2.432 . S
Eu168 C232 2.848 . S
C169 C172 1.429 1_554 S
C169 C173 1.411 . S
C169 N176 1.377 . S
C170 C172 1.420 . S
C170 C174 1.423 . S
C170 C182 1.392 . S
C171 C173 1.420 . S
C171 C174 1.351 1_554 S
C171 H194 0.931 . S
C172 C169 1.429 1_556 S
C172 C170 1.420 . S
C172 N180 1.362 . S
C173 C169 1.411 . S
C173 C171 1.420 . S
C173 C178 1.395 . S
C174 C170 1.423 . S
C174 C171 1.351 1_556 S
C174 H186 0.930 . S
C175 C177 1.400 . S
C175 C178 1.386 . S
C175 H187 0.930 . S
N176 C169 1.377 . S
N176 C177 1.321 . S
N176 Eu179 2.609 . S
C177 C175 1.400 . S
C177 N176 1.321 . S
C177 H184 0.930 . S
C178 C173 1.395 . S
C178 C175 1.386 . S
C178 H197 0.930 . S
Eu179 N176 2.609 . S
Eu179 N180 2.657 1_554 S
Eu179 O213 2.380 1_554 S
Eu179 O214 2.432 . S
Eu179 O218 2.558 . S
Eu179 O219 2.614 . S
Eu179 O221 2.339 1_554 S
Eu179 O222 2.563 . S
Eu179 O223 2.419 . S
Eu179 C243 2.848 . S
N180 C172 1.362 . S
N180 Eu179 2.657 1_556 S
N180 C181 1.334 . S
C181 N180 1.334 . S
C181 C183 1.413 . S
C181 H188 0.929 . S
C182 C170 1.392 . S
C182 C183 1.367 . S
C182 H190 0.930 . S
C183 C181 1.413 . S
C183 C182 1.367 . S
C183 H185 0.930 . S
H184 C177 0.930 . S
H185 C183 0.930 . S
H186 C174 0.930 . S
H187 C175 0.930 . S
H188 C181 0.929 . S
H189 C203 0.930 . S
H190 C182 0.930 . S
H191 C209 0.930 . S
H192 C200 0.929 . S
H193 C207 0.930 . S
H194 C171 0.931 . S
H195 C201 0.930 . S
H196 C234 0.930 . S
H197 C178 0.930 . S
H198 C233 0.931 . S
N199 Eu168 2.657 . S
N199 C200 1.334 1_556 S
N199 C204 1.362 . S
C200 H192 0.929 . S
C200 N199 1.334 1_554 S
C200 C203 1.413 . S
C201 H195 0.930 . S
C201 C202 1.392 1_554 S
C201 C203 1.367 . S
C202 C201 1.392 1_556 S
C202 C204 1.420 . S
C202 C234 1.423 . S
C203 H189 0.930 . S
C203 C200 1.413 . S
C203 C201 1.367 . S
C204 N199 1.362 . S
C204 C202 1.420 . S
C204 C208 1.429 . S
H205 C210 0.930 . S
N206 Eu168 2.609 . S
N206 C208 1.377 . S
N206 C209 1.321 . S
C207 H193 0.930 . S
C207 C209 1.400 . S
C207 C210 1.386 . S
C208 C204 1.429 . S
C208 N206 1.377 . S
C208 C211 1.411 . S
C209 H191 0.930 . S
C209 N206 1.321 . S
C209 C207 1.400 . S
C210 H205 0.930 . S
C210 C207 1.386 . S
C210 C211 1.395 . S
C211 C208 1.411 . S
C211 C210 1.395 . S
C211 C233 1.420 . S
O212 Eu168 2.558 . S
O212 C232 1.257 . S
O213 Eu168 2.612 . S
O213 Eu179 2.380 1_556 S
O213 C224 1.276 . S
O214 Eu179 2.432 . S
O214 C231 1.264 . S
O215 Eu168 2.339 . S
O215 C231 1.254 1_556 S
O216 Eu168 2.563 . S
O216 C224 1.235 . S
O217 Eu168 2.419 . S
O217 C232 1.249 . S
O218 Eu179 2.558 . S
O218 C243 1.257 . S
O219 Eu168 2.373 1_554 S
O219 Eu179 2.614 . S
O219 C235 1.283 . S
O220 Eu168 2.432 . S
O220 C242 1.264 . S
O221 Eu179 2.339 1_556 S
O221 C242 1.254 . S
O222 Eu179 2.563 . S
O222 C235 1.235 . S
O223 Eu179 2.419 . S
O223 C243 1.249 . S
C224 O213 1.276 . S
C224 O216 1.235 . S
C225 C227 1.393 . S
C225 C229 1.395 . S
C225 C232 1.492 . S
C226 C227 1.392 . S
C226 C228 1.386 . S
C227 C225 1.393 . S
C227 C226 1.392 . S
C227 H244 0.930 . S
C228 C226 1.386 . S
C228 C230 1.395 . S
C228 H245 0.930 . S
C229 C225 1.395 . S
C229 C230 1.379 . S
C229 H246 0.930 . S
C230 C228 1.395 . S
C230 C229 1.379 . S
C230 H247 0.930 . S
C231 O214 1.264 . S
C231 O215 1.254 1_554 S
C232 Eu168 2.848 . S
C232 O212 1.257 . S
C232 O217 1.249 . S
C232 C225 1.492 . S
C233 H198 0.931 . S
C233 C211 1.420 . S
C233 C234 1.351 . S
C234 H196 0.930 . S
C234 C202 1.423 . S
C234 C233 1.351 . S
C235 O219 1.283 . S
C235 O222 1.235 . S
C236 C237 1.393 . S
C236 C240 1.395 . S
C236 C243 1.492 . S
C237 C236 1.393 . S
C237 C238 1.392 . S
C237 H248 0.930 . S
C238 C237 1.392 . S
C238 C239 1.386 . S
C239 C238 1.386 . S
C239 C241 1.395 . S
C239 H249 0.930 . S
C240 C236 1.395 . S
C240 C241 1.379 . S
C240 H250 0.930 . S
C241 C239 1.395 . S
C241 C240 1.379 . S
C241 H251 0.930 . S
C242 O220 1.264 . S
C242 O221 1.254 . S
C243 Eu179 2.848 . S
C243 O218 1.257 . S
C243 O223 1.249 . S
C243 C236 1.492 . S
H244 C227 0.930 . S
H245 C228 0.930 . S
H246 C229 0.930 . S
H247 C230 0.930 . S
H248 C237 0.930 . S
H249 C239 0.930 . S
H250 C240 0.930 . S
H251 C241 0.930 . S
Eu252 N283 2.657 . S
Eu252 N290 2.609 . S
Eu252 O296 2.558 . S
Eu252 O297 2.612 . S
Eu252 O299 2.339 . S
Eu252 O300 2.563 . S
Eu252 O301 2.419 . S
Eu252 O303 2.380 . S
Eu252 O304 2.432 . S
Eu252 C316 2.848 . S
C253 C256 1.429 . S
C253 C257 1.411 . S
C253 N260 1.377 . S
C254 C256 1.420 . S
C254 C258 1.423 . S
C254 C266 1.392 . S
C255 C257 1.420 . S
C255 C258 1.351 . S
C255 H278 0.931 . S
C256 C253 1.429 . S
C256 C254 1.420 . S
C256 N264 1.362 . S
C257 C253 1.411 . S
C257 C255 1.420 . S
C257 C262 1.395 . S
C258 C254 1.423 . S
C258 C255 1.351 . S
C258 H270 0.930 . S
C259 C261 1.400 . S
C259 C262 1.386 . S
C259 H271 0.930 . S
N260 C253 1.377 . S
N260 C261 1.321 . S
N260 Eu263 2.609 . S
C261 C259 1.400 . S
C261 N260 1.321 . S
C261 H268 0.930 . S
C262 C257 1.395 . S
C262 C259 1.386 . S
C262 H281 0.930 . S
Eu263 N260 2.609 . S
Eu263 N264 2.657 . S
Eu263 O297 2.380 . S
Eu263 O298 2.432 . S
Eu263 O302 2.558 . S
Eu263 O303 2.612 . S
Eu263 O305 2.339 . S
Eu263 O306 2.563 . S
Eu263 O307 2.419 . S
Eu263 C327 2.848 . S
N264 C256 1.362 . S
N264 Eu263 2.657 . S
N264 C265 1.334 . S
C265 N264 1.334 . S
C265 C267 1.413 . S
C265 H272 0.929 . S
C266 C254 1.392 . S
C266 C267 1.367 . S
C266 H274 0.930 . S
C267 C265 1.413 . S
C267 C266 1.367 . S
C267 H269 0.930 . S
H268 C261 0.930 . S
H269 C267 0.930 . S
H270 C258 0.930 . S
H271 C259 0.930 . S
H272 C265 0.929 . S
H273 C287 0.930 . S
H274 C266 0.930 . S
H275 C293 0.930 . S
H276 C284 0.929 . S
H277 C291 0.930 . S
H278 C255 0.931 . S
H279 C285 0.930 . S
H280 C318 0.930 . S
H281 C262 0.930 . S
H282 C317 0.931 . S
N283 Eu252 2.657 . S
N283 C284 1.334 . S
N283 C288 1.362 . S
C284 H276 0.929 . S
C284 N283 1.334 . S
C284 C287 1.413 . S
C285 H279 0.930 . S
C285 C286 1.392 . S
C285 C287 1.367 . S
C286 C285 1.392 . S
C286 C288 1.420 . S
C286 C318 1.423 . S
C287 H273 0.930 . S
C287 C284 1.413 . S
C287 C285 1.367 . S
C288 N283 1.362 . S
C288 C286 1.420 . S
C288 C292 1.429 . S
H289 C294 0.930 . S
N290 Eu252 2.609 . S
N290 C292 1.377 . S
N290 C293 1.321 . S
C291 H277 0.930 . S
C291 C293 1.400 . S
C291 C294 1.386 . S
C292 C288 1.429 . S
C292 N290 1.377 . S
C292 C295 1.411 . S
C293 H275 0.930 . S
C293 N290 1.321 . S
C293 C291 1.400 . S
C294 H289 0.930 . S
C294 C291 1.386 . S
C294 C295 1.395 . S
C295 C292 1.411 . S
C295 C294 1.395 . S
C295 C317 1.420 . S
O296 Eu252 2.558 . S
O296 C316 1.257 . S
O297 Eu252 2.612 . S
O297 Eu263 2.380 . S
O297 C308 1.276 . S
O298 Eu263 2.432 . S
O298 C315 1.264 . S
O299 Eu252 2.339 . S
O299 C315 1.254 . S
O300 Eu252 2.563 . S
O300 C308 1.235 . S
O301 Eu252 2.419 . S
O301 C316 1.249 . S
O302 Eu263 2.558 . S
O302 C327 1.257 . S
O303 Eu252 2.380 . S
O303 Eu263 2.612 . S
O303 C319 1.276 . S
O304 Eu252 2.432 . S
O304 C326 1.264 . S
O305 Eu263 2.339 . S
O305 C326 1.254 . S
O306 Eu263 2.563 . S
O306 C319 1.235 . S
O307 Eu263 2.419 . S
O307 C327 1.249 . S
C308 O297 1.276 . S
C308 O300 1.235 . S
C309 C311 1.393 . S
C309 C313 1.395 . S
C309 C316 1.492 . S
C310 C311 1.392 . S
C310 C312 1.386 . S
C311 C309 1.393 . S
C311 C310 1.392 . S
C311 H328 0.930 . S
C312 C310 1.386 . S
C312 C314 1.395 . S
C312 H329 0.930 . S
C313 C309 1.395 . S
C313 C314 1.379 . S
C313 H330 0.930 . S
C314 C312 1.395 . S
C314 C313 1.379 . S
C314 H331 0.930 . S
C315 O298 1.264 . S
C315 O299 1.254 . S
C316 Eu252 2.848 . S
C316 O296 1.257 . S
C316 O301 1.249 . S
C316 C309 1.492 . S
C317 H282 0.931 . S
C317 C295 1.420 . S
C317 C318 1.351 . S
C318 H280 0.930 . S
C318 C286 1.423 . S
C318 C317 1.351 . S
C319 O303 1.276 . S
C319 O306 1.235 . S
C320 C321 1.393 . S
C320 C324 1.395 . S
C320 C327 1.492 . S
C321 C320 1.393 . S
C321 C322 1.392 . S
C321 H332 0.930 . S
C322 C321 1.392 . S
C322 C323 1.386 . S
C323 C322 1.386 . S
C323 C325 1.395 . S
C323 H333 0.930 . S
C324 C320 1.395 . S
C324 C325 1.379 . S
C324 H334 0.930 . S
C325 C323 1.395 . S
C325 C324 1.379 . S
C325 H335 0.930 . S
C326 O304 1.264 . S
C326 O305 1.254 . S
C327 Eu263 2.848 . S
C327 O302 1.257 . S
C327 O307 1.249 . S
C327 C320 1.492 . S
H328 C311 0.930 . S
H329 C312 0.930 . S
H330 C313 0.930 . S
H331 C314 0.930 . S
H332 C321 0.930 . S
H333 C323 0.930 . S
H334 C324 0.930 . S
H335 C325 0.930 . S
Eu336 N367 2.657 . S
Eu336 N374 2.609 . S
Eu336 O380 2.558 . S
Eu336 O381 2.612 . S
Eu336 O383 2.339 . S
Eu336 O384 2.563 . S
Eu336 O385 2.419 . S
Eu336 O387 2.380 . S
Eu336 O388 2.432 . S
Eu336 C400 2.848 . S
C337 C340 1.429 . S
C337 C341 1.411 . S
C337 N344 1.377 . S
C338 C340 1.420 . S
C338 C342 1.423 . S
C338 C350 1.392 . S
C339 C341 1.420 . S
C339 C342 1.351 . S
C339 H362 0.931 . S
C340 C337 1.429 . S
C340 C338 1.420 . S
C340 N348 1.362 . S
C341 C337 1.411 . S
C341 C339 1.420 . S
C341 C346 1.395 . S
C342 C338 1.423 . S
C342 C339 1.351 . S
C342 H354 0.930 . S
C343 C345 1.400 . S
C343 C346 1.386 . S
C343 H355 0.930 . S
N344 C337 1.377 . S
N344 C345 1.321 . S
N344 Eu347 2.609 . S
C345 C343 1.400 . S
C345 N344 1.321 . S
C345 H352 0.930 . S
C346 C341 1.395 . S
C346 C343 1.386 . S
C346 H365 0.930 . S
Eu347 N344 2.609 . S
Eu347 N348 2.657 . S
Eu347 O381 2.380 . S
Eu347 O382 2.432 . S
Eu347 O386 2.558 . S
Eu347 O387 2.612 . S
Eu347 O389 2.339 . S
Eu347 O390 2.563 . S
Eu347 O391 2.419 . S
Eu347 C411 2.848 . S
N348 C340 1.362 . S
N348 Eu347 2.657 . S
N348 C349 1.334 . S
C349 N348 1.334 . S
C349 C351 1.413 . S
C349 H356 0.929 . S
C350 C338 1.392 . S
C350 C351 1.367 . S
C350 H358 0.930 . S
C351 C349 1.413 . S
C351 C350 1.367 . S
C351 H353 0.930 . S
H352 C345 0.930 . S
H353 C351 0.930 . S
H354 C342 0.930 . S
H355 C343 0.930 . S
H356 C349 0.929 . S
H357 C371 0.930 . S
H358 C350 0.930 . S
H359 C377 0.930 . S
H360 C368 0.929 . S
H361 C375 0.930 . S
H362 C339 0.931 . S
H363 C369 0.930 . S
H364 C402 0.930 . S
H365 C346 0.930 . S
H366 C401 0.931 . S
N367 Eu336 2.657 . S
N367 C368 1.334 . S
N367 C372 1.362 . S
C368 H360 0.929 . S
C368 N367 1.334 . S
C368 C371 1.413 . S
C369 H363 0.930 . S
C369 C370 1.392 . S
C369 C371 1.367 . S
C370 C369 1.392 . S
C370 C372 1.420 . S
C370 C402 1.423 . S
C371 H357 0.930 . S
C371 C368 1.413 . S
C371 C369 1.367 . S
C372 N367 1.362 . S
C372 C370 1.420 . S
C372 C376 1.429 . S
H373 C378 0.930 . S
N374 Eu336 2.609 . S
N374 C376 1.377 . S
N374 C377 1.321 . S
C375 H361 0.930 . S
C375 C377 1.400 . S
C375 C378 1.386 . S
C376 C372 1.429 . S
C376 N374 1.377 . S
C376 C379 1.411 . S
C377 H359 0.930 . S
C377 N374 1.321 . S
C377 C375 1.400 . S
C378 H373 0.930 . S
C378 C375 1.386 . S
C378 C379 1.395 . S
C379 C376 1.411 . S
C379 C378 1.395 . S
C379 C401 1.420 . S
O380 Eu336 2.558 . S
O380 C400 1.257 . S
O381 Eu336 2.612 . S
O381 Eu347 2.380 . S
O381 C392 1.276 . S
O382 Eu347 2.432 . S
O382 C399 1.264 . S
O383 Eu336 2.339 . S
O383 C399 1.254 . S
O384 Eu336 2.563 . S
O384 C392 1.235 . S
O385 Eu336 2.419 . S
O385 C400 1.249 . S
O386 Eu347 2.558 . S
O386 C411 1.257 . S
O387 Eu336 2.380 . S
O387 Eu347 2.612 . S
O387 C403 1.276 . S
O388 Eu336 2.432 . S
O388 C410 1.264 . S
O389 Eu347 2.339 . S
O389 C410 1.254 . S
O390 Eu347 2.563 . S
O390 C403 1.235 . S
O391 Eu347 2.419 . S
O391 C411 1.249 . S
C392 O381 1.276 . S
C392 O384 1.235 . S
C393 C395 1.393 . S
C393 C397 1.395 . S
C393 C400 1.492 . S
C394 C395 1.392 . S
C394 C396 1.386 . S
C395 C393 1.393 . S
C395 C394 1.392 . S
C395 H412 0.930 . S
C396 C394 1.386 . S
C396 C398 1.395 . S
C396 H413 0.930 . S
C397 C393 1.395 . S
C397 C398 1.379 . S
C397 H414 0.930 . S
C398 C396 1.395 . S
C398 C397 1.379 . S
C398 H415 0.930 . S
C399 O382 1.264 . S
C399 O383 1.254 . S
C400 Eu336 2.848 . S
C400 O380 1.257 . S
C400 O385 1.249 . S
C400 C393 1.492 . S
C401 H366 0.931 . S
C401 C379 1.420 . S
C401 C402 1.351 . S
C402 H364 0.930 . S
C402 C370 1.423 . S
C402 C401 1.351 . S
C403 O387 1.276 . S
C403 O390 1.235 . S
C404 C405 1.393 . S
C404 C408 1.395 . S
C404 C411 1.492 . S
C405 C404 1.393 . S
C405 C406 1.392 . S
C405 H416 0.930 . S
C406 C405 1.392 . S
C406 C407 1.386 . S
C407 C406 1.386 . S
C407 C409 1.395 . S
C407 H417 0.930 . S
C408 C404 1.395 . S
C408 C409 1.379 . S
C408 H418 0.930 . S
C409 C407 1.395 . S
C409 C408 1.379 . S
C409 H419 0.930 . S
C410 O388 1.264 . S
C410 O389 1.254 . S
C411 Eu347 2.848 . S
C411 O386 1.257 . S
C411 O391 1.249 . S
C411 C404 1.492 . S
H412 C395 0.930 . S
H413 C396 0.930 . S
H414 C397 0.930 . S
H415 C398 0.930 . S
H416 C405 0.930 . S
H417 C407 0.930 . S
H418 C408 0.930 . S
H419 C409 0.930 . S
Eu420 N451 2.657 . S
Eu420 N458 2.609 . S
Eu420 O464 2.558 . S
Eu420 O465 2.612 . S
Eu420 O467 2.339 . S
Eu420 O468 2.563 . S
Eu420 O469 2.419 . S
Eu420 O471 2.348 1_655 S
Eu420 O472 2.432 . S
Eu420 C484 2.848 . S
C421 C424 1.429 1_455 S
C421 C425 1.411 . S
C421 N428 1.377 . S
C422 C424 1.420 . S
C422 C426 1.423 . S
C422 C434 1.392 . S
C423 C425 1.420 . S
C423 C426 1.351 1_455 S
C423 H446 0.931 . S
C424 C421 1.429 1_655 S
C424 C422 1.420 . S
C424 N432 1.362 . S
C425 C421 1.411 . S
C425 C423 1.420 . S
C425 C430 1.395 . S
C426 C422 1.423 . S
C426 C423 1.351 1_655 S
C426 H438 0.930 . S
C427 C429 1.400 . S
C427 C430 1.386 . S
C427 H439 0.930 . S
N428 C421 1.377 . S
N428 C429 1.321 . S
N428 Eu431 2.609 . S
C429 C427 1.400 . S
C429 N428 1.321 . S
C429 H436 0.930 . S
C430 C425 1.395 . S
C430 C427 1.386 . S
C430 H449 0.930 . S
Eu431 N428 2.609 . S
Eu431 N432 2.657 1_455 S
Eu431 O465 2.380 1_455 S
Eu431 O466 2.432 . S
Eu431 O470 2.558 . S
Eu431 O471 2.620 . S
Eu431 O473 2.339 1_455 S
Eu431 O474 2.563 . S
Eu431 O475 2.419 . S
Eu431 C495 2.848 . S
N432 C424 1.362 . S
N432 Eu431 2.657 1_655 S
N432 C433 1.334 . S
C433 N432 1.334 . S
C433 C435 1.413 . S
C433 H440 0.929 . S
C434 C422 1.392 . S
C434 C435 1.367 . S
C434 H442 0.930 . S
C435 C433 1.413 . S
C435 C434 1.367 . S
C435 H437 0.930 . S
H436 C429 0.930 . S
H437 C435 0.930 . S
H438 C426 0.930 . S
H439 C427 0.930 . S
H440 C433 0.929 . S
H441 C455 0.930 . S
H442 C434 0.930 . S
H443 C461 0.930 . S
H444 C452 0.929 . S
H445 C459 0.930 . S
H446 C423 0.931 . S
H447 C453 0.930 . S
H448 C486 0.930 . S
H449 C430 0.930 . S
H450 C485 0.931 . S
N451 Eu420 2.657 . S
N451 C452 1.334 1_655 S
N451 C456 1.362 . S
C452 H444 0.929 . S
C452 N451 1.334 1_455 S
C452 C455 1.413 . S
C453 H447 0.930 . S
C453 C454 1.392 1_455 S
C453 C455 1.367 . S
C454 C453 1.392 1_655 S
C454 C456 1.420 . S
C454 C486 1.423 . S
C455 H441 0.930 . S
C455 C452 1.413 . S
C455 C453 1.367 . S
C456 N451 1.362 . S
C456 C454 1.420 . S
C456 C460 1.429 . S
H457 C462 0.930 . S
N458 Eu420 2.609 . S
N458 C460 1.377 . S
N458 C461 1.321 . S
C459 H445 0.930 . S
C459 C461 1.400 . S
C459 C462 1.386 . S
C460 C456 1.429 . S
C460 N458 1.377 . S
C460 C463 1.411 . S
C461 H443 0.930 . S
C461 N458 1.321 . S
C461 C459 1.400 . S
C462 H457 0.930 . S
C462 C459 1.386 . S
C462 C463 1.395 . S
C463 C460 1.411 . S
C463 C462 1.395 . S
C463 C485 1.420 . S
O464 Eu420 2.558 . S
O464 C484 1.257 . S
O465 Eu420 2.612 . S
O465 Eu431 2.380 1_655 S
O465 C476 1.276 . S
O466 Eu431 2.432 . S
O466 C483 1.264 . S
O467 Eu420 2.339 . S
O467 C483 1.254 1_655 S
O468 Eu420 2.563 . S
O468 C476 1.235 . S
O469 Eu420 2.419 . S
O469 C484 1.249 . S
O470 Eu431 2.558 . S
O470 C495 1.257 . S
O471 Eu420 2.348 1_455 S
O471 Eu431 2.620 . S
O471 C487 1.309 . S
O472 Eu420 2.432 . S
O472 C494 1.264 . S
O473 Eu431 2.339 1_655 S
O473 C494 1.254 . S
O474 Eu431 2.563 . S
O474 C487 1.235 . S
O475 Eu431 2.419 . S
O475 C495 1.249 . S
C476 O465 1.276 . S
C476 O468 1.235 . S
C477 C479 1.393 . S
C477 C481 1.395 . S
C477 C484 1.492 . S
C478 C479 1.392 . S
C478 C480 1.386 . S
C479 C477 1.393 . S
C479 C478 1.392 . S
C479 H496 0.930 . S
C480 C478 1.386 . S
C480 C482 1.395 . S
C480 H497 0.930 . S
C481 C477 1.395 . S
C481 C482 1.379 . S
C481 H498 0.930 . S
C482 C480 1.395 . S
C482 C481 1.379 . S
C482 H499 0.930 . S
C483 O466 1.264 . S
C483 O467 1.254 1_455 S
C484 Eu420 2.848 . S
C484 O464 1.257 . S
C484 O469 1.249 . S
C484 C477 1.492 . S
C485 H450 0.931 . S
C485 C463 1.420 . S
C485 C486 1.351 . S
C486 H448 0.930 . S
C486 C454 1.423 . S
C486 C485 1.351 . S
C487 O471 1.309 . S
C487 O474 1.235 . S
C488 C489 1.393 . S
C488 C492 1.395 . S
C488 C495 1.492 . S
C489 C488 1.393 . S
C489 C490 1.392 . S
C489 H500 0.930 . S
C490 C489 1.392 . S
C490 C491 1.386 . S
C491 C490 1.386 . S
C491 C493 1.395 . S
C491 H501 0.930 . S
C492 C488 1.395 . S
C492 C493 1.379 . S
C492 H502 0.930 . S
C493 C491 1.395 . S
C493 C492 1.379 . S
C493 H503 0.930 . S
C494 O472 1.264 . S
C494 O473 1.254 . S
C495 Eu431 2.848 . S
C495 O470 1.257 . S
C495 O475 1.249 . S
C495 C488 1.492 . S
H496 C479 0.930 . S
H497 C480 0.930 . S
H498 C481 0.930 . S
H499 C482 0.930 . S
H500 C489 0.930 . S
H501 C491 0.930 . S
H502 C492 0.930 . S
H503 C493 0.930 . S
Eu504 N535 2.657 . S
Eu504 N542 2.609 . S
Eu504 O548 2.558 . S
Eu504 O549 2.612 . S
Eu504 O551 2.339 . S
Eu504 O552 2.563 . S
Eu504 O553 2.419 . S
Eu504 O555 2.380 . S
Eu504 O556 2.432 . S
Eu504 C568 2.848 . S
C505 C508 1.429 1_556 S
C505 C509 1.411 . S
C505 N512 1.377 . S
C506 C508 1.420 . S
C506 C510 1.423 . S
C506 C518 1.392 . S
C507 C509 1.420 1_554 S
C507 C510 1.351 . S
C507 H530 0.931 1_554 S
C508 C505 1.429 1_554 S
C508 C506 1.420 . S
C508 N516 1.362 . S
C509 C505 1.411 . S
C509 C507 1.420 1_556 S
C509 C514 1.395 . S
C510 C506 1.423 . S
C510 C507 1.351 . S
C510 H522 0.930 . S
C511 C513 1.400 . S
C511 C514 1.386 . S
C511 H523 0.930 . S
N512 C505 1.377 . S
N512 C513 1.321 . S
N512 Eu515 2.609 . S
C513 C511 1.400 . S
C513 N512 1.321 . S
C513 H520 0.930 . S
C514 C509 1.395 . S
C514 C511 1.386 . S
C514 H533 0.930 . S
Eu515 N512 2.609 . S
Eu515 N516 2.657 1_556 S
Eu515 O549 2.380 1_556 S
Eu515 O550 2.432 . S
Eu515 O554 2.558 . S
Eu515 O555 2.612 1_556 S
Eu515 O557 2.339 1_556 S
Eu515 O558 2.563 . S
Eu515 O559 2.419 . S
Eu515 C579 2.848 . S
N516 C508 1.362 . S
N516 Eu515 2.657 1_554 S
N516 C517 1.334 . S
C517 N516 1.334 . S
C517 C519 1.413 . S
C517 H524 0.929 . S
C518 C506 1.392 . S
C518 C519 1.367 . S
C518 H526 0.930 . S
C519 C517 1.413 . S
C519 C518 1.367 . S
C519 H521 0.930 . S
H520 C513 0.930 . S
H521 C519 0.930 . S
H522 C510 0.930 . S
H523 C511 0.930 . S
H524 C517 0.929 . S
H525 C539 0.930 . S
H526 C518 0.930 . S
H527 C545 0.930 . S
H528 C536 0.929 . S
H529 C543 0.930 . S
H530 C507 0.931 1_556 S
H531 C537 0.930 . S
H532 C570 0.930 . S
H533 C514 0.930 . S
H534 C569 0.931 . S
N535 Eu504 2.657 . S
N535 C536 1.334 1_554 S
N535 C540 1.362 . S
C536 H528 0.929 . S
C536 N535 1.334 1_556 S
C536 C539 1.413 . S
C537 H531 0.930 . S
C537 C538 1.392 1_556 S
C537 C539 1.367 . S
C538 C537 1.392 1_554 S
C538 C540 1.420 . S
C538 C570 1.423 . S
C539 H525 0.930 . S
C539 C536 1.413 . S
C539 C537 1.367 . S
C540 N535 1.362 . S
C540 C538 1.420 . S
C540 C544 1.429 . S
H541 C546 0.930 . S
N542 Eu504 2.609 . S
N542 C544 1.377 . S
N542 C545 1.321 . S
C543 H529 0.930 . S
C543 C545 1.400 . S
C543 C546 1.386 . S
C544 C540 1.429 . S
C544 N542 1.377 . S
C544 C547 1.411 . S
C545 H527 0.930 . S
C545 N542 1.321 . S
C545 C543 1.400 . S
C546 H541 0.930 . S
C546 C543 1.386 . S
C546 C547 1.395 . S
C547 C544 1.411 . S
C547 C546 1.395 . S
C547 C569 1.420 . S
O548 Eu504 2.558 . S
O548 C568 1.257 . S
O549 Eu504 2.612 . S
O549 Eu515 2.380 1_554 S
O549 C560 1.276 . S
O550 Eu515 2.432 . S
O550 C567 1.264 1_556 S
O551 Eu504 2.339 . S
O551 C567 1.254 . S
O552 Eu504 2.563 . S
O552 C560 1.235 . S
O553 Eu504 2.419 . S
O553 C568 1.249 . S
O554 Eu515 2.558 . S
O554 C579 1.257 . S
O555 Eu504 2.380 . S
O555 Eu515 2.612 1_554 S
O555 C571 1.276 1_554 S
O556 Eu504 2.432 . S
O556 C578 1.264 . S
O557 Eu515 2.339 1_554 S
O557 C578 1.254 . S
O558 Eu515 2.563 . S
O558 C571 1.235 . S
O559 Eu515 2.419 . S
O559 C579 1.249 . S
C560 O549 1.276 . S
C560 O552 1.235 . S
C561 C563 1.393 . S
C561 C565 1.395 . S
C561 C568 1.492 . S
C562 C563 1.392 . S
C562 C564 1.386 . S
C563 C561 1.393 . S
C563 C562 1.392 . S
C563 H580 0.930 . S
C564 C562 1.386 . S
C564 C566 1.395 . S
C564 H581 0.930 . S
C565 C561 1.395 . S
C565 C566 1.379 . S
C565 H582 0.930 . S
C566 C564 1.395 . S
C566 C565 1.379 . S
C566 H583 0.930 . S
C567 O550 1.264 1_554 S
C567 O551 1.254 . S
C568 Eu504 2.848 . S
C568 O548 1.257 . S
C568 O553 1.249 . S
C568 C561 1.492 . S
C569 H534 0.931 . S
C569 C547 1.420 . S
C569 C570 1.351 . S
C570 H532 0.930 . S
C570 C538 1.423 . S
C570 C569 1.351 . S
C571 O555 1.276 1_556 S
C571 O558 1.235 . S
C572 C573 1.393 . S
C572 C576 1.395 . S
C572 C579 1.492 . S
C573 C572 1.393 . S
C573 C574 1.392 . S
C573 H584 0.930 . S
C574 C573 1.392 . S
C574 C575 1.386 . S
C575 C574 1.386 . S
C575 C577 1.395 . S
C575 H585 0.930 . S
C576 C572 1.395 . S
C576 C577 1.379 . S
C576 H586 0.930 . S
C577 C575 1.395 . S
C577 C576 1.379 . S
C577 H587 0.930 . S
C578 O556 1.264 . S
C578 O557 1.254 . S
C579 Eu515 2.848 . S
C579 O554 1.257 . S
C579 O559 1.249 . S
C579 C572 1.492 . S
H580 C563 0.930 . S
H581 C564 0.930 . S
H582 C565 0.930 . S
H583 C566 0.930 . S
H584 C573 0.930 . S
H585 C575 0.930 . S
H586 C576 0.930 . S
H587 C577 0.930 . S
Eu588 N619 2.657 . S
Eu588 N626 2.609 . S
Eu588 O632 2.558 . S
Eu588 O633 2.612 . S
Eu588 O635 2.339 . S
Eu588 O636 2.563 . S
Eu588 O637 2.419 . S
Eu588 O639 2.380 . S
Eu588 O640 2.432 . S
Eu588 C652 2.848 . S
C589 C592 1.429 . S
C589 C593 1.411 . S
C589 N596 1.377 . S
C590 C592 1.420 . S
C590 C594 1.423 . S
C590 C602 1.392 . S
C591 C593 1.420 . S
C591 C594 1.351 . S
C591 H614 0.931 . S
C592 C589 1.429 . S
C592 C590 1.420 . S
C592 N600 1.362 . S
C593 C589 1.411 . S
C593 C591 1.420 . S
C593 C598 1.395 . S
C594 C590 1.423 . S
C594 C591 1.351 . S
C594 H606 0.930 . S
C595 C597 1.400 . S
C595 C598 1.386 . S
C595 H607 0.930 . S
N596 C589 1.377 . S
N596 C597 1.321 . S
N596 Eu599 2.609 . S
C597 C595 1.400 . S
C597 N596 1.321 . S
C597 H604 0.930 . S
C598 C593 1.395 . S
C598 C595 1.386 . S
C598 H617 0.930 . S
Eu599 N596 2.609 . S
Eu599 N600 2.657 . S
Eu599 O633 2.380 . S
Eu599 O634 2.432 . S
Eu599 O638 2.558 . S
Eu599 O639 2.612 . S
Eu599 O641 2.339 . S
Eu599 O642 2.563 . S
Eu599 O643 2.419 . S
Eu599 C663 2.848 . S
N600 C592 1.362 . S
N600 Eu599 2.657 . S
N600 C601 1.334 . S
C601 N600 1.334 . S
C601 C603 1.413 . S
C601 H608 0.929 . S
C602 C590 1.392 . S
C602 C603 1.367 . S
C602 H610 0.930 . S
C603 C601 1.413 . S
C603 C602 1.367 . S
C603 H605 0.930 . S
H604 C597 0.930 . S
H605 C603 0.930 . S
H606 C594 0.930 . S
H607 C595 0.930 . S
H608 C601 0.929 . S
H609 C623 0.930 . S
H610 C602 0.930 . S
H611 C629 0.930 . S
H612 C620 0.929 . S
H613 C627 0.930 . S
H614 C591 0.931 . S
H615 C621 0.930 . S
H616 C654 0.930 . S
H617 C598 0.930 . S
H618 C653 0.931 . S
N619 Eu588 2.657 . S
N619 C620 1.334 . S
N619 C624 1.362 . S
C620 H612 0.929 . S
C620 N619 1.334 . S
C620 C623 1.413 . S
C621 H615 0.930 . S
C621 C622 1.392 . S
C621 C623 1.367 . S
C622 C621 1.392 . S
C622 C624 1.420 . S
C622 C654 1.423 . S
C623 H609 0.930 . S
C623 C620 1.413 . S
C623 C621 1.367 . S
C624 N619 1.362 . S
C624 C622 1.420 . S
C624 C628 1.429 . S
H625 C630 0.930 . S
N626 Eu588 2.609 . S
N626 C628 1.377 . S
N626 C629 1.321 . S
C627 H613 0.930 . S
C627 C629 1.400 . S
C627 C630 1.386 . S
C628 C624 1.429 . S
C628 N626 1.377 . S
C628 C631 1.411 . S
C629 H611 0.930 . S
C629 N626 1.321 . S
C629 C627 1.400 . S
C630 H625 0.930 . S
C630 C627 1.386 . S
C630 C631 1.395 . S
C631 C628 1.411 . S
C631 C630 1.395 . S
C631 C653 1.420 . S
O632 Eu588 2.558 . S
O632 C652 1.257 . S
O633 Eu588 2.612 . S
O633 Eu599 2.380 . S
O633 C644 1.276 . S
O634 Eu599 2.432 . S
O634 C651 1.264 . S
O635 Eu588 2.339 . S
O635 C651 1.254 . S
O636 Eu588 2.563 . S
O636 C644 1.235 . S
O637 Eu588 2.419 . S
O637 C652 1.249 . S
O638 Eu599 2.558 . S
O638 C663 1.257 . S
O639 Eu588 2.380 . S
O639 Eu599 2.612 . S
O639 C655 1.276 . S
O640 Eu588 2.432 . S
O640 C662 1.264 . S
O641 Eu599 2.339 . S
O641 C662 1.254 . S
O642 Eu599 2.563 . S
O642 C655 1.235 . S
O643 Eu599 2.419 . S
O643 C663 1.249 . S
C644 O633 1.276 . S
C644 O636 1.235 . S
C645 C647 1.393 . S
C645 C649 1.395 . S
C645 C652 1.492 . S
C646 C647 1.392 . S
C646 C648 1.386 . S
C647 C645 1.393 . S
C647 C646 1.392 . S
C647 H664 0.930 . S
C648 C646 1.386 . S
C648 C650 1.395 . S
C648 H665 0.930 . S
C649 C645 1.395 . S
C649 C650 1.379 . S
C649 H666 0.930 . S
C650 C648 1.395 . S
C650 C649 1.379 . S
C650 H667 0.930 . S
C651 O634 1.264 . S
C651 O635 1.254 . S
C652 Eu588 2.848 . S
C652 O632 1.257 . S
C652 O637 1.249 . S
C652 C645 1.492 . S
C653 H618 0.931 . S
C653 C631 1.420 . S
C653 C654 1.351 . S
C654 H616 0.930 . S
C654 C622 1.423 . S
C654 C653 1.351 . S
C655 O639 1.276 . S
C655 O642 1.235 . S
C656 C657 1.393 . S
C656 C660 1.395 . S
C656 C663 1.492 . S
C657 C656 1.393 . S
C657 C658 1.392 . S
C657 H668 0.930 . S
C658 C657 1.392 . S
C658 C659 1.386 . S
C659 C658 1.386 . S
C659 C661 1.395 . S
C659 H669 0.930 . S
C660 C656 1.395 . S
C660 C661 1.379 . S
C660 H670 0.930 . S
C661 C659 1.395 . S
C661 C660 1.379 . S
C661 H671 0.930 . S
C662 O640 1.264 . S
C662 O641 1.254 . S
C663 Eu599 2.848 . S
C663 O638 1.257 . S
C663 O643 1.249 . S
C663 C656 1.492 . S
H664 C647 0.930 . S
H665 C648 0.930 . S
H666 C649 0.930 . S
H667 C650 0.930 . S
H668 C657 0.930 . S
H669 C659 0.930 . S
H670 C660 0.930 . S
H671 C661 0.930 . S
Eu672 N703 2.657 . S
Eu672 N710 2.609 . S
Eu672 O716 2.558 . S
Eu672 O717 2.612 . S
Eu672 O719 2.339 . S
Eu672 O720 2.563 . S
Eu672 O721 2.419 . S
Eu672 O723 2.380 . S
Eu672 O724 2.432 . S
Eu672 C736 2.848 . S
C673 C676 1.429 . S
C673 C677 1.411 . S
C673 N680 1.377 . S
C674 C676 1.420 . S
C674 C678 1.423 . S
C674 C686 1.392 . S
C675 C677 1.420 . S
C675 C678 1.351 . S
C675 H698 0.931 . S
C676 C673 1.429 . S
C676 C674 1.420 . S
C676 N684 1.362 . S
C677 C673 1.411 . S
C677 C675 1.420 . S
C677 C682 1.395 . S
C678 C674 1.423 . S
C678 C675 1.351 . S
C678 H690 0.930 . S
C679 C681 1.400 . S
C679 C682 1.386 . S
C679 H691 0.930 . S
N680 C673 1.377 . S
N680 C681 1.321 . S
N680 Eu683 2.609 . S
C681 C679 1.400 . S
C681 N680 1.321 . S
C681 H688 0.930 . S
C682 C677 1.395 . S
C682 C679 1.386 . S
C682 H701 0.930 . S
Eu683 N680 2.609 . S
Eu683 N684 2.657 . S
Eu683 O717 2.380 . S
Eu683 O718 2.432 . S
Eu683 O722 2.558 . S
Eu683 O723 2.612 . S
Eu683 O725 2.339 . S
Eu683 O726 2.563 . S
Eu683 O727 2.419 . S
Eu683 C747 2.848 . S
N684 C676 1.362 . S
N684 Eu683 2.657 . S
N684 C685 1.334 . S
C685 N684 1.334 . S
C685 C687 1.413 . S
C685 H692 0.929 . S
C686 C674 1.392 . S
C686 C687 1.367 . S
C686 H694 0.930 . S
C687 C685 1.413 . S
C687 C686 1.367 . S
C687 H689 0.930 . S
H688 C681 0.930 . S
H689 C687 0.930 . S
H690 C678 0.930 . S
H691 C679 0.930 . S
H692 C685 0.929 . S
H693 C707 0.930 . S
H694 C686 0.930 . S
H695 C713 0.930 . S
H696 C704 0.929 . S
H697 C711 0.930 . S
H698 C675 0.931 . S
H699 C705 0.930 . S
H700 C738 0.930 . S
H701 C682 0.930 . S
H702 C737 0.931 . S
N703 Eu672 2.657 . S
N703 C704 1.334 . S
N703 C708 1.362 . S
C704 H696 0.929 . S
C704 N703 1.334 . S
C704 C707 1.413 . S
C705 H699 0.930 . S
C705 C706 1.392 . S
C705 C707 1.367 . S
C706 C705 1.392 . S
C706 C708 1.420 . S
C706 C738 1.423 . S
C707 H693 0.930 . S
C707 C704 1.413 . S
C707 C705 1.367 . S
C708 N703 1.362 . S
C708 C706 1.420 . S
C708 C712 1.429 . S
H709 C714 0.930 . S
N710 Eu672 2.609 . S
N710 C712 1.377 . S
N710 C713 1.321 . S
C711 H697 0.930 . S
C711 C713 1.400 . S
C711 C714 1.386 . S
C712 C708 1.429 . S
C712 N710 1.377 . S
C712 C715 1.411 . S
C713 H695 0.930 . S
C713 N710 1.321 . S
C713 C711 1.400 . S
C714 H709 0.930 . S
C714 C711 1.386 . S
C714 C715 1.395 . S
C715 C712 1.411 . S
C715 C714 1.395 . S
C715 C737 1.420 . S
O716 Eu672 2.558 . S
O716 C736 1.257 . S
O717 Eu672 2.612 . S
O717 Eu683 2.380 . S
O717 C728 1.276 . S
O718 Eu683 2.432 . S
O718 C735 1.264 . S
O719 Eu672 2.339 . S
O719 C735 1.254 . S
O720 Eu672 2.563 . S
O720 C728 1.235 . S
O721 Eu672 2.419 . S
O721 C736 1.249 . S
O722 Eu683 2.558 . S
O722 C747 1.257 . S
O723 Eu672 2.380 . S
O723 Eu683 2.612 . S
O723 C739 1.276 . S
O724 Eu672 2.432 . S
O724 C746 1.264 . S
O725 Eu683 2.339 . S
O725 C746 1.254 . S
O726 Eu683 2.563 . S
O726 C739 1.235 . S
O727 Eu683 2.419 . S
O727 C747 1.249 . S
C728 O717 1.276 . S
C728 O720 1.235 . S
C729 C731 1.393 . S
C729 C733 1.395 . S
C729 C736 1.492 . S
C730 C731 1.392 . S
C730 C732 1.386 . S
C731 C729 1.393 . S
C731 C730 1.392 . S
C731 H748 0.930 . S
C732 C730 1.386 . S
C732 C734 1.395 . S
C732 H749 0.930 . S
C733 C729 1.395 . S
C733 C734 1.379 . S
C733 H750 0.930 . S
C734 C732 1.395 . S
C734 C733 1.379 . S
C734 H751 0.930 . S
C735 O718 1.264 . S
C735 O719 1.254 . S
C736 Eu672 2.848 . S
C736 O716 1.257 . S
C736 O721 1.249 . S
C736 C729 1.492 . S
C737 H702 0.931 . S
C737 C715 1.420 . S
C737 C738 1.351 . S
C738 H700 0.930 . S
C738 C706 1.423 . S
C738 C737 1.351 . S
C739 O723 1.276 . S
C739 O726 1.235 . S
C740 C741 1.393 . S
C740 C744 1.395 . S
C740 C747 1.492 . S
C741 C740 1.393 . S
C741 C742 1.392 . S
C741 H752 0.930 . S
C742 C741 1.392 . S
C742 C743 1.386 . S
C743 C742 1.386 . S
C743 C745 1.395 . S
C743 H753 0.930 . S
C744 C740 1.395 . S
C744 C745 1.379 . S
C744 H754 0.930 . S
C745 C743 1.395 . S
C745 C744 1.379 . S
C745 H755 0.930 . S
C746 O724 1.264 . S
C746 O725 1.254 . S
C747 Eu683 2.848 . S
C747 O722 1.257 . S
C747 O727 1.249 . S
C747 C740 1.492 . S
H748 C731 0.930 . S
H749 C732 0.930 . S
H750 C733 0.930 . S
H751 C734 0.930 . S
H752 C741 0.930 . S
H753 C743 0.930 . S
H754 C744 0.930 . S
H755 C745 0.930 . S
Eu756 N787 2.657 . S
Eu756 N794 2.609 . S
Eu756 O800 2.558 . S
Eu756 O801 2.612 . S
Eu756 O803 2.339 . S
Eu756 O804 2.563 . S
Eu756 O805 2.419 . S
Eu756 O807 2.380 . S
Eu756 O808 2.432 . S
Eu756 C820 2.848 . S
C757 C760 1.429 1_565 S
C757 C761 1.411 . S
C757 N764 1.377 . S
C758 C760 1.420 . S
C758 C762 1.423 . S
C758 C770 1.392 . S
C759 C761 1.420 1_545 S
C759 C762 1.351 . S
C759 H782 0.931 1_545 S
C760 C757 1.429 1_545 S
C760 C758 1.420 . S
C760 N768 1.362 . S
C761 C757 1.411 . S
C761 C759 1.420 1_565 S
C761 C766 1.395 . S
C762 C758 1.423 . S
C762 C759 1.351 . S
C762 H774 0.930 . S
C763 C765 1.400 . S
C763 C766 1.386 . S
C763 H775 0.930 . S
N764 C757 1.377 . S
N764 C765 1.321 . S
N764 Eu767 2.609 . S
C765 C763 1.400 . S
C765 N764 1.321 . S
C765 H772 0.930 . S
C766 C761 1.395 . S
C766 C763 1.386 . S
C766 H785 0.930 . S
Eu767 N764 2.609 . S
Eu767 N768 2.657 1_565 S
Eu767 O801 2.380 1_565 S
Eu767 O802 2.432 . S
Eu767 O806 2.558 . S
Eu767 O807 2.612 1_565 S
Eu767 O809 2.339 1_565 S
Eu767 O810 2.563 . S
Eu767 O811 2.419 . S
Eu767 C831 2.848 . S
N768 C760 1.362 . S
N768 Eu767 2.657 1_545 S
N768 C769 1.334 . S
C769 N768 1.334 . S
C769 C771 1.413 . S
C769 H776 0.929 . S
C770 C758 1.392 . S
C770 C771 1.367 . S
C770 H778 0.930 . S
C771 C769 1.413 . S
C771 C770 1.367 . S
C771 H773 0.930 . S
H772 C765 0.930 . S
H773 C771 0.930 . S
H774 C762 0.930 . S
H775 C763 0.930 . S
H776 C769 0.929 . S
H777 C791 0.930 . S
H778 C770 0.930 . S
H779 C797 0.930 . S
H780 C788 0.930 1_565 S
H781 C795 0.930 . S
H782 C759 0.931 1_565 S
H783 C789 0.930 . S
H784 C822 0.930 . S
H785 C766 0.930 . S
H786 C821 0.931 . S
N787 Eu756 2.657 . S
N787 C788 1.330 . S
N787 C792 1.362 . S
C788 H780 0.930 1_545 S
C788 N787 1.330 . S
C788 C791 1.416 1_545 S
C789 H783 0.930 . S
C789 C790 1.392 1_565 S
C789 C791 1.367 . S
C790 C789 1.392 1_545 S
C790 C792 1.420 . S
C790 C822 1.423 . S
C791 H777 0.930 . S
C791 C788 1.416 1_565 S
C791 C789 1.367 . S
C792 N787 1.362 . S
C792 C790 1.420 . S
C792 C796 1.429 . S
H793 C798 0.930 . S
N794 Eu756 2.609 . S
N794 C796 1.377 . S
N794 C797 1.321 . S
C795 H781 0.930 . S
C795 C797 1.400 . S
C795 C798 1.386 . S
C796 C792 1.429 . S
C796 N794 1.377 . S
C796 C799 1.411 . S
C797 H779 0.930 . S
C797 N794 1.321 . S
C797 C795 1.400 . S
C798 H793 0.930 . S
C798 C795 1.386 . S
C798 C799 1.395 . S
C799 C796 1.411 . S
C799 C798 1.395 . S
C799 C821 1.420 . S
O800 Eu756 2.558 . S
O800 C820 1.257 . S
O801 Eu756 2.612 . S
O801 Eu767 2.380 1_545 S
O801 C812 1.276 . S
O802 Eu767 2.432 . S
O802 C819 1.264 1_565 S
O803 Eu756 2.339 . S
O803 C819 1.254 . S
O804 Eu756 2.563 . S
O804 C812 1.235 . S
O805 Eu756 2.419 . S
O805 C820 1.249 . S
O806 Eu767 2.558 . S
O806 C831 1.257 . S
O807 Eu756 2.380 . S
O807 Eu767 2.612 1_545 S
O807 C823 1.276 1_545 S
O808 Eu756 2.432 . S
O808 C830 1.264 . S
O809 Eu767 2.339 1_545 S
O809 C830 1.254 . S
O810 Eu767 2.563 . S
O810 C823 1.235 . S
O811 Eu767 2.419 . S
O811 C831 1.249 . S
C812 O801 1.276 . S
C812 O804 1.235 . S
C813 C815 1.393 . S
C813 C817 1.395 . S
C813 C820 1.492 . S
C814 C815 1.392 . S
C814 C816 1.386 . S
C815 C813 1.393 . S
C815 C814 1.392 . S
C815 H832 0.930 . S
C816 C814 1.386 . S
C816 C818 1.395 . S
C816 H833 0.930 . S
C817 C813 1.395 . S
C817 C818 1.379 . S
C817 H834 0.930 . S
C818 C816 1.395 . S
C818 C817 1.379 . S
C818 H835 0.930 . S
C819 O802 1.264 1_545 S
C819 O803 1.254 . S
C820 Eu756 2.848 . S
C820 O800 1.257 . S
C820 O805 1.249 . S
C820 C813 1.492 . S
C821 H786 0.931 . S
C821 C799 1.420 . S
C821 C822 1.351 . S
C822 H784 0.930 . S
C822 C790 1.423 . S
C822 C821 1.351 . S
C823 O807 1.276 1_565 S
C823 O810 1.235 . S
C824 C825 1.393 . S
C824 C828 1.395 . S
C824 C831 1.492 . S
C825 C824 1.393 . S
C825 C826 1.392 . S
C825 H836 0.930 . S
C826 C825 1.392 . S
C826 C827 1.386 . S
C827 C826 1.386 . S
C827 C829 1.395 . S
C827 H837 0.930 . S
C828 C824 1.395 . S
C828 C829 1.379 . S
C828 H838 0.930 . S
C829 C827 1.395 . S
C829 C828 1.379 . S
C829 H839 0.930 . S
C830 O808 1.264 . S
C830 O809 1.254 . S
C831 Eu767 2.848 . S
C831 O806 1.257 . S
C831 O811 1.249 . S
C831 C824 1.492 . S
H832 C815 0.930 . S
H833 C816 0.930 . S
H834 C817 0.930 . S
H835 C818 0.930 . S
H836 C825 0.930 . S
H837 C827 0.930 . S
H838 C828 0.930 . S
H839 C829 0.930 . S
Eu840 N871 2.657 . S
Eu840 N878 2.609 . S
Eu840 O884 2.558 . S
Eu840 O885 2.612 . S
Eu840 O887 2.339 . S
Eu840 O888 2.563 . S
Eu840 O889 2.419 . S
Eu840 O891 2.380 . S
Eu840 O892 2.432 . S
Eu840 C904 2.848 . S
C841 C844 1.429 1_545 S
C841 C845 1.411 . S
C841 N848 1.377 . S
C842 C844 1.420 . S
C842 C846 1.423 . S
C842 C854 1.392 . S
C843 C845 1.433 . S
C843 C846 1.332 1_545 S
C843 H866 0.937 . S
C844 C841 1.429 1_565 S
C844 C842 1.420 . S
C844 N852 1.362 . S
C845 C841 1.411 . S
C845 C843 1.433 . S
C845 C850 1.395 . S
C846 C842 1.423 . S
C846 C843 1.332 1_565 S
C846 H858 0.930 . S
C847 C849 1.400 . S
C847 C850 1.386 . S
C847 H859 0.930 . S
N848 C841 1.377 . S
N848 C849 1.321 . S
N848 Eu851 2.609 . S
C849 C847 1.400 . S
C849 N848 1.321 . S
C849 H856 0.930 . S
C850 C845 1.395 . S
C850 C847 1.386 . S
C850 H869 0.930 . S
Eu851 N848 2.609 . S
Eu851 N852 2.657 1_545 S
Eu851 O885 2.380 1_545 S
Eu851 O886 2.432 . S
Eu851 O890 2.558 . S
Eu851 O891 2.612 1_545 S
Eu851 O893 2.339 1_545 S
Eu851 O894 2.563 . S
Eu851 O895 2.419 . S
Eu851 C915 2.848 . S
N852 C844 1.362 . S
N852 Eu851 2.657 1_565 S
N852 C853 1.334 . S
C853 N852 1.334 . S
C853 C855 1.413 . S
C853 H860 0.929 . S
C854 C842 1.392 . S
C854 C855 1.367 . S
C854 H862 0.930 . S
C855 C853 1.413 . S
C855 C854 1.367 . S
C855 H857 0.930 . S
H856 C849 0.930 . S
H857 C855 0.930 . S
H858 C846 0.930 . S
H859 C847 0.930 . S
H860 C853 0.929 . S
H861 C875 0.930 . S
H862 C854 0.930 . S
H863 C881 0.930 . S
H864 C872 0.929 . S
H865 C879 0.930 . S
H866 C843 0.937 . S
H867 C873 0.930 . S
H868 C906 0.930 . S
H869 C850 0.930 . S
H870 C905 0.931 . S
N871 Eu840 2.657 . S
N871 C872 1.334 1_565 S
N871 C876 1.362 . S
C872 H864 0.929 . S
C872 N871 1.334 1_545 S
C872 C875 1.413 . S
C873 H867 0.930 . S
C873 C874 1.392 1_545 S
C873 C875 1.367 . S
C874 C873 1.392 1_565 S
C874 C876 1.420 . S
C874 C906 1.423 . S
C875 H861 0.930 . S
C875 C872 1.413 . S
C875 C873 1.367 . S
C876 N871 1.362 . S
C876 C874 1.420 . S
C876 C880 1.429 . S
H877 C882 0.930 . S
N878 Eu840 2.609 . S
N878 C880 1.377 . S
N878 C881 1.321 . S
C879 H865 0.930 . S
C879 C881 1.400 . S
C879 C882 1.386 . S
C880 C876 1.429 . S
C880 N878 1.377 . S
C880 C883 1.411 . S
C881 H863 0.930 . S
C881 N878 1.321 . S
C881 C879 1.400 . S
C882 H877 0.930 . S
C882 C879 1.386 . S
C882 C883 1.395 . S
C883 C880 1.411 . S
C883 C882 1.395 . S
C883 C905 1.420 . S
O884 Eu840 2.558 . S
O884 C904 1.257 . S
O885 Eu840 2.612 . S
O885 Eu851 2.380 1_565 S
O885 C896 1.276 . S
O886 Eu851 2.432 . S
O886 C903 1.260 1_545 S
O887 Eu840 2.339 . S
O887 C903 1.258 . S
O888 Eu840 2.563 . S
O888 C896 1.235 . S
O889 Eu840 2.419 . S
O889 C904 1.249 . S
O890 Eu851 2.558 . S
O890 C915 1.257 . S
O891 Eu840 2.380 . S
O891 Eu851 2.612 1_565 S
O891 C907 1.276 1_565 S
O892 Eu840 2.432 . S
O892 C914 1.264 . S
O893 Eu851 2.339 1_565 S
O893 C914 1.254 . S
O894 Eu851 2.563 . S
O894 C907 1.235 . S
O895 Eu851 2.419 . S
O895 C915 1.249 . S
C896 O885 1.276 . S
C896 O888 1.235 . S
C897 C899 1.393 . S
C897 C901 1.395 . S
C897 C904 1.492 . S
C898 C899 1.392 . S
C898 C900 1.386 . S
C899 C897 1.393 . S
C899 C898 1.392 . S
C899 H916 0.930 . S
C900 C898 1.386 . S
C900 C902 1.395 . S
C900 H917 0.930 . S
C901 C897 1.395 . S
C901 C902 1.379 . S
C901 H918 0.930 . S
C902 C900 1.395 . S
C902 C901 1.379 . S
C902 H919 0.930 . S
C903 O886 1.260 1_565 S
C903 O887 1.258 . S
C904 Eu840 2.848 . S
C904 O884 1.257 . S
C904 O889 1.249 . S
C904 C897 1.492 . S
C905 H870 0.931 . S
C905 C883 1.420 . S
C905 C906 1.351 . S
C906 H868 0.930 . S
C906 C874 1.423 . S
C906 C905 1.351 . S
C907 O891 1.276 1_545 S
C907 O894 1.235 . S
C908 C909 1.393 . S
C908 C912 1.395 . S
C908 C915 1.492 . S
C909 C908 1.393 . S
C909 C910 1.392 . S
C909 H920 0.930 . S
C910 C909 1.392 . S
C910 C911 1.386 . S
C911 C910 1.386 . S
C911 C913 1.395 . S
C911 H921 0.930 . S
C912 C908 1.395 . S
C912 C913 1.379 . S
C912 H922 0.930 . S
C913 C911 1.395 . S
C913 C912 1.379 . S
C913 H923 0.930 . S
C914 O892 1.264 . S
C914 O893 1.254 . S
C915 Eu851 2.848 . S
C915 O890 1.257 . S
C915 O895 1.249 . S
C915 C908 1.492 . S
H916 C899 0.930 . S
H917 C900 0.930 . S
H918 C901 0.930 . S
H919 C902 0.930 . S
H920 C909 0.930 . S
H921 C911 0.930 . S
H922 C912 0.930 . S
H923 C913 0.930 . S
Eu924 N955 2.657 . S
Eu924 N962 2.609 . S
Eu924 O968 2.558 . S
Eu924 O969 2.612 . S
Eu924 O971 2.339 . S
Eu924 O972 2.563 . S
Eu924 O973 2.419 . S
Eu924 O975 2.380 . S
Eu924 O976 2.432 . S
Eu924 C988 2.848 . S
C925 C928 1.429 . S
C925 C929 1.411 . S
C925 N932 1.377 . S
C926 C928 1.420 . S
C926 C930 1.423 . S
C926 C938 1.392 . S
C927 C929 1.420 . S
C927 C930 1.351 . S
C927 H950 0.931 . S
C928 C925 1.429 . S
C928 C926 1.420 . S
C928 N936 1.362 . S
C929 C925 1.411 . S
C929 C927 1.420 . S
C929 C934 1.395 . S
C930 C926 1.423 . S
C930 C927 1.351 . S
C930 H942 0.930 . S
C931 C933 1.400 . S
C931 C934 1.386 . S
C931 H943 0.930 . S
N932 C925 1.377 . S
N932 C933 1.321 . S
N932 Eu935 2.609 . S
C933 C931 1.400 . S
C933 N932 1.321 . S
C933 H940 0.930 . S
C934 C929 1.395 . S
C934 C931 1.386 . S
C934 H953 0.930 . S
Eu935 N932 2.609 . S
Eu935 N936 2.657 . S
Eu935 O969 2.380 . S
Eu935 O970 2.432 . S
Eu935 O974 2.558 . S
Eu935 O975 2.612 . S
Eu935 O977 2.339 . S
Eu935 O978 2.563 . S
Eu935 O979 2.419 . S
Eu935 C999 2.848 . S
N936 C928 1.362 . S
N936 Eu935 2.657 . S
N936 C937 1.334 . S
C937 N936 1.334 . S
C937 C939 1.413 . S
C937 H944 0.929 . S
C938 C926 1.392 . S
C938 C939 1.367 . S
C938 H946 0.930 . S
C939 C937 1.413 . S
C939 C938 1.367 . S
C939 H941 0.930 . S
H940 C933 0.930 . S
H941 C939 0.930 . S
H942 C930 0.930 . S
H943 C931 0.930 . S
H944 C937 0.929 . S
H945 C959 0.930 . S
H946 C938 0.930 . S
H947 C965 0.930 . S
H948 C956 0.929 . S
H949 C963 0.930 . S
H950 C927 0.931 . S
H951 C957 0.930 . S
H952 C990 0.930 . S
H953 C934 0.930 . S
H954 C989 0.931 . S
N955 Eu924 2.657 . S
N955 C956 1.334 . S
N955 C960 1.362 . S
C956 H948 0.929 . S
C956 N955 1.334 . S
C956 C959 1.413 . S
C957 H951 0.930 . S
C957 C958 1.392 . S
C957 C959 1.367 . S
C958 C957 1.392 . S
C958 C960 1.420 . S
C958 C990 1.423 . S
C959 H945 0.930 . S
C959 C956 1.413 . S
C959 C957 1.367 . S
C960 N955 1.362 . S
C960 C958 1.420 . S
C960 C964 1.429 . S
H961 C966 0.930 . S
N962 Eu924 2.609 . S
N962 C964 1.377 . S
N962 C965 1.321 . S
C963 H949 0.930 . S
C963 C965 1.400 . S
C963 C966 1.386 . S
C964 C960 1.429 . S
C964 N962 1.377 . S
C964 C967 1.411 . S
C965 H947 0.930 . S
C965 N962 1.321 . S
C965 C963 1.400 . S
C966 H961 0.930 . S
C966 C963 1.386 . S
C966 C967 1.395 . S
C967 C964 1.411 . S
C967 C966 1.395 . S
C967 C989 1.420 . S
O968 Eu924 2.558 . S
O968 C988 1.257 . S
O969 Eu924 2.612 . S
O969 Eu935 2.380 . S
O969 C980 1.276 . S
O970 Eu935 2.432 . S
O970 C987 1.264 . S
O971 Eu924 2.339 . S
O971 C987 1.254 . S
O972 Eu924 2.563 . S
O972 C980 1.235 . S
O973 Eu924 2.419 . S
O973 C988 1.249 . S
O974 Eu935 2.558 . S
O974 C999 1.257 . S
O975 Eu924 2.380 . S
O975 Eu935 2.612 . S
O975 C991 1.276 . S
O976 Eu924 2.432 . S
O976 C998 1.264 . S
O977 Eu935 2.339 . S
O977 C998 1.254 . S
O978 Eu935 2.563 . S
O978 C991 1.235 . S
O979 Eu935 2.419 . S
O979 C999 1.249 . S
C980 O969 1.276 . S
C980 O972 1.235 . S
C981 C983 1.393 . S
C981 C985 1.395 . S
C981 C988 1.492 . S
C982 C983 1.392 . S
C982 C984 1.386 . S
C983 C981 1.393 . S
C983 C982 1.392 . S
C983 H1000 0.930 . S
C984 C982 1.386 . S
C984 C986 1.395 . S
C984 H1001 0.930 . S
C985 C981 1.395 . S
C985 C986 1.379 . S
C985 H1002 0.930 . S
C986 C984 1.395 . S
C986 C985 1.379 . S
C986 H1003 0.930 . S
C987 O970 1.264 . S
C987 O971 1.254 . S
C988 Eu924 2.848 . S
C988 O968 1.257 . S
C988 O973 1.249 . S
C988 C981 1.492 . S
C989 H954 0.931 . S
C989 C967 1.420 . S
C989 C990 1.351 . S
C990 H952 0.930 . S
C990 C958 1.423 . S
C990 C989 1.351 . S
C991 O975 1.276 . S
C991 O978 1.235 . S
C992 C993 1.393 . S
C992 C996 1.395 . S
C992 C999 1.492 . S
C993 C992 1.393 . S
C993 C994 1.392 . S
C993 H1004 0.930 . S
C994 C993 1.392 . S
C994 C995 1.386 . S
C995 C994 1.386 . S
C995 C997 1.395 . S
C995 H1005 0.930 . S
C996 C992 1.395 . S
C996 C997 1.379 . S
C996 H1006 0.930 . S
C997 C995 1.395 . S
C997 C996 1.379 . S
C997 H1007 0.930 . S
C998 O976 1.264 . S
C998 O977 1.254 . S
C999 Eu935 2.848 . S
C999 O974 1.257 . S
C999 O979 1.249 . S
C999 C992 1.492 . S
H1000 C983 0.930 . S
H1001 C984 0.930 . S
H1002 C985 0.930 . S
H1003 C986 0.930 . S
H1004 C993 0.930 . S
H1005 C995 0.930 . S
H1006 C996 0.930 . S
H1007 C997 0.930 . S
C1008 C1009 1.349 . S
C1008 C1010 1.327 . S
C1008 H1033 0.950 . S
C1009 C1008 1.349 . S
C1009 C1025 1.349 . S
C1010 C1008 1.327 . S
C1010 C1029 1.429 . S
C1010 H1034 0.950 . S
C1011 C1028 1.574 . S
C1011 C1030 1.368 . S
C1011 H1035 0.949 . S
H1012 C1016 0.949 . S
C1013 C1014 1.349 . S
C1013 C1015 1.327 . S
C1013 H1036 0.950 . S
C1014 C1013 1.349 . S
C1014 C1026 1.349 . S
C1015 C1013 1.327 . S
C1015 C1031 1.429 . S
C1015 H1037 0.950 . S
C1016 H1012 0.949 . S
C1016 C1024 1.574 . S
C1016 C1032 1.368 . S
H1017 C1025 0.950 . S
H1018 C1023 0.950 . S
H1019 C1024 0.949 . S
H1020 C1026 0.950 . S
H1021 C1027 0.950 . S
H1022 C1028 0.949 . S
C1023 H1018 0.950 . S
C1023 C1025 1.327 . S
C1023 C1029 1.429 . S
C1024 C1016 1.574 . S
C1024 H1019 0.949 . S
C1024 C1030 1.368 . S
C1025 C1009 1.349 . S
C1025 H1017 0.950 . S
C1025 C1023 1.327 . S
C1026 C1014 1.349 . S
C1026 H1020 0.950 . S
C1026 C1027 1.327 . S
C1027 H1021 0.950 . S
C1027 C1026 1.327 . S
C1027 C1031 1.429 . S
C1028 C1011 1.574 . S
C1028 H1022 0.949 . S
C1028 C1032 1.368 . S
C1029 C1010 1.429 . S
C1029 C1023 1.429 . S
C1029 C1030 1.523 . S
C1030 C1011 1.368 . S
C1030 C1024 1.368 . S
C1030 C1029 1.523 . S
C1031 C1015 1.429 . S
C1031 C1027 1.429 . S
C1031 C1032 1.523 . S
C1032 C1016 1.368 . S
C1032 C1028 1.368 . S
C1032 C1031 1.523 . S
H1033 C1008 0.950 . S
H1034 C1010 0.950 . S
H1035 C1011 0.949 . S
H1036 C1013 0.950 . S
H1037 C1015 0.950 . S
C1038 C1039 1.349 . S
C1038 C1040 1.327 . S
C1038 H1063 0.950 . S
C1039 C1038 1.349 . S
C1039 C1055 1.349 1_565 S
C1040 C1038 1.327 . S
C1040 C1059 1.429 . S
C1040 H1064 0.950 . S
C1041 C1058 1.574 . S
C1041 C1060 1.368 . S
C1041 H1065 0.949 1_565 S
H1042 C1046 0.949 . S
C1043 C1044 1.349 . S
C1043 C1045 1.327 . S
C1043 H1066 0.950 . S
C1044 C1043 1.349 . S
C1044 C1056 1.349 . S
C1045 C1043 1.327 . S
C1045 C1061 1.429 . S
C1045 H1067 0.950 . S
C1046 H1042 0.949 . S
C1046 C1054 1.574 . S
C1046 C1062 1.368 . S
H1047 C1055 0.950 . S
H1048 C1053 0.950 . S
H1049 C1054 0.949 . S
H1050 C1056 0.950 . S
H1051 C1057 0.950 . S
H1052 C1058 0.949 . S
C1053 H1048 0.950 . S
C1053 C1055 1.327 . S
C1053 C1059 1.429 1_545 S
C1054 C1046 1.574 . S
C1054 H1049 0.949 . S
C1054 C1060 1.368 . S
C1055 C1039 1.349 1_545 S
C1055 H1047 0.950 . S
C1055 C1053 1.327 . S
C1056 C1044 1.349 . S
C1056 H1050 0.950 . S
C1056 C1057 1.327 . S
C1057 H1051 0.950 . S
C1057 C1056 1.327 . S
C1057 C1061 1.429 . S
C1058 C1041 1.574 . S
C1058 H1052 0.949 . S
C1058 C1062 1.368 . S
C1059 C1040 1.429 . S
C1059 C1053 1.429 1_565 S
C1059 C1060 1.523 . S
C1060 C1041 1.368 . S
C1060 C1054 1.368 . S
C1060 C1059 1.523 . S
C1061 C1045 1.429 . S
C1061 C1057 1.429 . S
C1061 C1062 1.523 . S
C1062 C1046 1.368 . S
C1062 C1058 1.368 . S
C1062 C1061 1.523 . S
H1063 C1038 0.950 . S
H1064 C1040 0.950 . S
H1065 C1041 0.949 1_545 S
H1066 C1043 0.950 . S
H1067 C1045 0.950 . S
C1068 C1069 1.349 1_556 S
C1068 C1070 1.340 . S
C1068 H1093 0.950 . S
C1069 C1068 1.349 1_554 S
C1069 C1085 1.349 . S
C1070 C1068 1.340 . S
C1070 C1089 1.394 1_556 S
C1070 H1094 0.972 . S
C1071 C1088 1.574 . S
C1071 C1090 1.368 . S
C1071 H1095 0.949 . S
H1072 C1076 0.949 . S
C1073 C1074 1.349 . S
C1073 C1075 1.327 . S
C1073 H1096 0.950 . S
C1074 C1073 1.349 . S
C1074 C1086 1.349 . S
C1075 C1073 1.327 . S
C1075 C1091 1.429 . S
C1075 H1097 0.950 . S
C1076 H1072 0.949 . S
C1076 C1084 1.574 . S
C1076 C1092 1.368 . S
H1077 C1085 0.950 . S
H1078 C1083 0.950 . S
H1079 C1084 0.988 . S
H1080 C1086 0.950 . S
H1081 C1087 0.950 . S
H1082 C1088 0.949 . S
C1083 H1078 0.950 . S
C1083 C1085 1.327 . S
C1083 C1089 1.429 . S
C1084 C1076 1.574 . S
C1084 H1079 0.988 . S
C1084 C1090 1.368 . S
C1085 C1069 1.349 . S
C1085 H1077 0.950 . S
C1085 C1083 1.327 . S
C1086 C1074 1.349 . S
C1086 H1080 0.950 . S
C1086 C1087 1.327 . S
C1087 H1081 0.950 . S
C1087 C1086 1.327 . S
C1087 C1091 1.429 . S
C1088 C1071 1.574 . S
C1088 H1082 0.949 . S
C1088 C1092 1.368 . S
C1089 C1070 1.394 1_554 S
C1089 C1083 1.429 . S
C1089 C1090 1.523 . S
C1090 C1071 1.368 . S
C1090 C1084 1.368 . S
C1090 C1089 1.523 . S
C1091 C1075 1.429 . S
C1091 C1087 1.429 . S
C1091 C1092 1.523 . S
C1092 C1076 1.368 . S
C1092 C1088 1.368 . S
C1092 C1091 1.523 . S
H1093 C1068 0.950 . S
H1094 C1070 0.972 . S
H1095 C1071 0.949 . S
H1096 C1073 0.950 . S
H1097 C1075 0.950 . S
C1098 C1099 1.349 . S
C1098 C1100 1.327 . S
C1098 H1123 0.950 . S
C1099 C1098 1.349 . S
C1099 C1115 1.349 . S
C1100 C1098 1.327 . S
C1100 C1119 1.429 . S
C1100 H1124 0.950 . S
C1101 C1118 1.574 . S
C1101 C1120 1.368 . S
C1101 H1125 0.949 . S
H1102 C1106 0.949 . S
C1103 C1104 1.349 . S
C1103 C1105 1.327 . S
C1103 H1126 0.950 1_545 S
C1104 C1103 1.349 . S
C1104 C1116 1.349 . S
C1105 C1103 1.327 . S
C1105 C1121 1.429 . S
C1105 H1127 0.950 . S
C1106 H1102 0.949 . S
C1106 C1114 1.574 . S
C1106 C1122 1.368 . S
H1107 C1115 0.950 . S
H1108 C1113 0.950 . S
H1109 C1114 0.949 . S
H1110 C1116 0.950 . S
H1111 C1117 0.950 . S
H1112 C1118 0.949 . S
C1113 H1108 0.950 . S
C1113 C1115 1.327 . S
C1113 C1119 1.429 . S
C1114 C1106 1.574 . S
C1114 H1109 0.949 . S
C1114 C1120 1.368 . S
C1115 C1099 1.349 . S
C1115 H1107 0.950 . S
C1115 C1113 1.327 . S
C1116 C1104 1.349 . S
C1116 H1110 0.950 . S
C1116 C1117 1.327 . S
C1117 H1111 0.950 . S
C1117 C1116 1.327 . S
C1117 C1121 1.429 . S
C1118 C1101 1.574 . S
C1118 H1112 0.949 . S
C1118 C1122 1.368 . S
C1119 C1100 1.429 . S
C1119 C1113 1.429 . S
C1119 C1120 1.523 . S
C1120 C1101 1.368 . S
C1120 C1114 1.368 . S
C1120 C1119 1.523 . S
C1121 C1105 1.429 . S
C1121 C1117 1.429 . S
C1121 C1122 1.523 . S
C1122 C1106 1.368 . S
C1122 C1118 1.368 . S
C1122 C1121 1.523 . S
H1123 C1098 0.950 . S
H1124 C1100 0.950 . S
H1125 C1101 0.949 . S
H1126 C1103 0.950 1_565 S
H1127 C1105 0.950 . S
C1128 C1129 1.349 . S
C1128 C1130 1.327 . S
C1128 H1153 0.950 . S
C1129 C1128 1.349 . S
C1129 C1145 1.349 . S
C1130 C1128 1.327 . S
C1130 C1149 1.429 . S
C1130 H1154 0.950 . S
C1131 C1148 1.574 . S
C1131 C1150 1.368 . S
C1131 H1155 0.949 . S
H1132 C1136 0.949 . S
C1133 C1134 1.349 . S
C1133 C1135 1.327 . S
C1133 H1156 0.950 . S
C1134 C1133 1.349 . S
C1134 C1146 1.349 . S
C1135 C1133 1.327 . S
C1135 C1151 1.429 . S
C1135 H1157 0.950 . S
C1136 H1132 0.949 . S
C1136 C1144 1.574 . S
C1136 C1152 1.368 . S
H1137 C1145 0.950 . S
H1138 C1143 0.950 . S
H1139 C1144 0.949 . S
H1140 C1146 0.950 . S
H1141 C1147 0.950 . S
H1142 C1148 0.949 . S
C1143 H1138 0.950 . S
C1143 C1145 1.327 . S
C1143 C1149 1.429 . S
C1144 C1136 1.574 . S
C1144 H1139 0.949 . S
C1144 C1150 1.368 . S
C1145 C1129 1.349 . S
C1145 H1137 0.950 . S
C1145 C1143 1.327 . S
C1146 C1134 1.349 . S
C1146 H1140 0.950 . S
C1146 C1147 1.327 . S
C1147 H1141 0.950 . S
C1147 C1146 1.327 . S
C1147 C1151 1.429 . S
C1148 C1131 1.574 . S
C1148 H1142 0.949 . S
C1148 C1152 1.368 . S
C1149 C1130 1.429 . S
C1149 C1143 1.429 . S
C1149 C1150 1.523 . S
C1150 C1131 1.368 . S
C1150 C1144 1.368 . S
C1150 C1149 1.523 . S
C1151 C1135 1.429 . S
C1151 C1147 1.429 . S
C1151 C1152 1.523 . S
C1152 C1136 1.368 . S
C1152 C1148 1.368 . S
C1152 C1151 1.523 . S
H1153 C1128 0.950 . S
H1154 C1130 0.950 . S
H1155 C1131 0.949 . S
H1156 C1133 0.950 . S
H1157 C1135 0.950 . S
C1158 C1159 1.349 . S
C1158 C1160 1.327 . S
C1158 H1183 0.950 . S
C1159 C1158 1.349 . S
C1159 C1175 1.349 . S
C1160 C1158 1.327 . S
C1160 C1179 1.429 . S
C1160 H1184 0.950 . S
C1161 C1178 1.574 . S
C1161 C1180 1.368 . S
C1161 H1185 0.949 . S
H1162 C1166 0.949 . S
C1163 C1164 1.349 . S
C1163 C1165 1.327 . S
C1163 H1186 0.950 . S
C1164 C1163 1.349 . S
C1164 C1176 1.349 . S
C1165 C1163 1.327 . S
C1165 C1181 1.429 . S
C1165 H1187 0.950 . S
C1166 H1162 0.949 . S
C1166 C1174 1.574 . S
C1166 C1182 1.368 . S
H1167 C1175 0.950 . S
H1168 C1173 0.950 . S
H1169 C1174 0.949 . S
H1170 C1176 0.950 . S
H1171 C1177 0.950 . S
H1172 C1178 0.949 . S
C1173 H1168 0.950 . S
C1173 C1175 1.327 . S
C1173 C1179 1.429 . S
C1174 C1166 1.574 . S
C1174 H1169 0.949 . S
C1174 C1180 1.368 . S
C1175 C1159 1.349 . S
C1175 H1167 0.950 . S
C1175 C1173 1.327 . S
C1176 C1164 1.349 . S
C1176 H1170 0.950 . S
C1176 C1177 1.327 . S
C1177 H1171 0.950 . S
C1177 C1176 1.327 . S
C1177 C1181 1.429 . S
C1178 C1161 1.574 . S
C1178 H1172 0.949 . S
C1178 C1182 1.368 . S
C1179 C1160 1.429 . S
C1179 C1173 1.429 . S
C1179 C1180 1.523 . S
C1180 C1161 1.368 . S
C1180 C1174 1.368 . S
C1180 C1179 1.523 . S
C1181 C1165 1.429 . S
C1181 C1177 1.429 . S
C1181 C1182 1.523 . S
C1182 C1166 1.368 . S
C1182 C1178 1.368 . S
C1182 C1181 1.523 . S
H1183 C1158 0.950 . S
H1184 C1160 0.950 . S
H1185 C1161 0.949 . S
H1186 C1163 0.950 . S
H1187 C1165 0.950 . S
C1188 C1189 1.349 . S
C1188 C1190 1.327 . S
C1188 H1213 0.950 . S
C1189 C1188 1.349 . S
C1189 C1205 1.349 . S
C1190 C1188 1.327 . S
C1190 C1209 1.429 . S
C1190 H1214 0.950 . S
C1191 C1208 1.574 . S
C1191 C1210 1.368 . S
C1191 H1215 0.949 . S
H1192 C1196 0.949 . S
C1193 C1194 1.349 . S
C1193 C1195 1.327 . S
C1193 H1216 0.950 . S
C1194 C1193 1.349 . S
C1194 C1206 1.349 . S
C1195 C1193 1.327 . S
C1195 C1211 1.429 . S
C1195 H1217 0.950 . S
C1196 H1192 0.949 . S
C1196 C1204 1.574 . S
C1196 C1212 1.368 . S
H1197 C1205 0.950 . S
H1198 C1203 0.950 . S
H1199 C1204 0.949 . S
H1200 C1206 0.957 . S
H1201 C1207 0.950 . S
H1202 C1208 0.949 . S
C1203 H1198 0.950 . S
C1203 C1205 1.327 . S
C1203 C1209 1.429 . S
C1204 C1196 1.574 . S
C1204 H1199 0.949 . S
C1204 C1210 1.368 . S
C1205 C1189 1.349 . S
C1205 H1197 0.950 . S
C1205 C1203 1.327 . S
C1206 C1194 1.349 . S
C1206 H1200 0.957 . S
C1206 C1207 1.327 . S
C1207 H1201 0.950 . S
C1207 C1206 1.327 . S
C1207 C1211 1.429 . S
C1208 C1191 1.574 . S
C1208 H1202 0.949 . S
C1208 C1212 1.368 . S
C1209 C1190 1.429 . S
C1209 C1203 1.429 . S
C1209 C1210 1.523 . S
C1210 C1191 1.368 . S
C1210 C1204 1.368 . S
C1210 C1209 1.523 . S
C1211 C1195 1.429 . S
C1211 C1207 1.429 . S
C1211 C1212 1.523 . S
C1212 C1196 1.368 . S
C1212 C1208 1.368 . S
C1212 C1211 1.523 . S
H1213 C1188 0.950 . S
H1214 C1190 0.950 . S
H1215 C1191 0.949 . S
H1216 C1193 0.950 . S
H1217 C1195 0.950 . S
C1218 C1219 1.349 . S
C1218 C1220 1.327 . S
C1218 H1243 0.950 . S
C1219 C1218 1.349 . S
C1219 C1235 1.349 . S
C1220 C1218 1.327 . S
C1220 C1239 1.429 . S
C1220 H1244 0.950 . S
C1221 C1238 1.574 . S
C1221 C1240 1.368 . S
C1221 H1245 0.949 . S
H1222 C1226 0.949 . S
C1223 C1224 1.349 . S
C1223 C1225 1.327 . S
C1223 H1246 0.950 . S
C1224 C1223 1.349 . S
C1224 C1236 1.349 . S
C1225 C1223 1.327 . S
C1225 C1241 1.429 . S
C1225 H1247 0.950 . S
C1226 H1222 0.949 . S
C1226 C1234 1.574 . S
C1226 C1242 1.368 . S
H1227 C1235 0.950 . S
H1228 C1233 0.950 . S
H1229 C1234 0.949 . S
H1230 C1236 0.950 . S
H1231 C1237 0.950 . S
H1232 C1238 0.949 . S
C1233 H1228 0.950 . S
C1233 C1235 1.327 . S
C1233 C1239 1.429 . S
C1234 C1226 1.574 . S
C1234 H1229 0.949 . S
C1234 C1240 1.368 . S
C1235 C1219 1.349 . S
C1235 H1227 0.950 . S
C1235 C1233 1.327 . S
C1236 C1224 1.349 . S
C1236 H1230 0.950 . S
C1236 C1237 1.327 . S
C1237 H1231 0.950 . S
C1237 C1236 1.327 . S
C1237 C1241 1.429 . S
C1238 C1221 1.574 . S
C1238 H1232 0.949 . S
C1238 C1242 1.368 . S
C1239 C1220 1.429 . S
C1239 C1233 1.429 . S
C1239 C1240 1.523 . S
C1240 C1221 1.368 . S
C1240 C1234 1.368 . S
C1240 C1239 1.523 . S
C1241 C1225 1.429 . S
C1241 C1237 1.429 . S
C1241 C1242 1.523 . S
C1242 C1226 1.368 . S
C1242 C1238 1.368 . S
C1242 C1241 1.523 . S
H1243 C1218 0.950 . S
H1244 C1220 0.950 . S
H1245 C1221 0.949 . S
H1246 C1223 0.950 . S
H1247 C1225 0.950 . S
C1248 C1249 1.349 . S
C1248 C1250 1.327 . S
C1248 H1273 0.950 . S
C1249 C1248 1.349 . S
C1249 C1265 1.349 . S
C1250 C1248 1.327 . S
C1250 C1269 1.429 . S
C1250 H1274 0.950 . S
C1251 C1268 1.574 . S
C1251 C1270 1.368 . S
C1251 H1275 0.949 . S
H1252 C1256 0.949 . S
C1253 C1254 1.349 . S
C1253 C1255 1.327 . S
C1253 H1276 0.950 . S
C1254 C1253 1.349 . S
C1254 C1266 1.349 . S
C1255 C1253 1.327 . S
C1255 C1271 1.429 . S
C1255 H1277 0.950 . S
C1256 H1252 0.949 . S
C1256 C1264 1.574 . S
C1256 C1272 1.368 . S
H1257 C1265 0.950 . S
H1258 C1263 0.950 . S
H1259 C1264 0.949 . S
H1260 C1266 0.950 . S
H1261 C1267 0.950 . S
H1262 C1268 0.949 . S
C1263 H1258 0.950 . S
C1263 C1265 1.327 . S
C1263 C1269 1.429 . S
C1264 C1256 1.574 . S
C1264 H1259 0.949 . S
C1264 C1270 1.368 . S
C1265 C1249 1.349 . S
C1265 H1257 0.950 . S
C1265 C1263 1.327 . S
C1266 C1254 1.349 . S
C1266 H1260 0.950 . S
C1266 C1267 1.327 . S
C1267 H1261 0.950 . S
C1267 C1266 1.327 . S
C1267 C1271 1.429 . S
C1268 C1251 1.574 . S
C1268 H1262 0.949 . S
C1268 C1272 1.368 . S
C1269 C1250 1.429 . S
C1269 C1263 1.429 . S
C1269 C1270 1.523 . S
C1270 C1251 1.368 . S
C1270 C1264 1.368 . S
C1270 C1269 1.523 . S
C1271 C1255 1.429 . S
C1271 C1267 1.429 . S
C1271 C1272 1.523 . S
C1272 C1256 1.368 . S
C1272 C1268 1.368 . S
C1272 C1271 1.523 . S
H1273 C1248 0.950 . S
H1274 C1250 0.950 . S
H1275 C1251 0.949 . S
H1276 C1253 0.950 . S
H1277 C1255 0.950 . S
C1278 C1279 1.349 . S
C1278 C1280 1.327 . S
C1278 H1303 0.950 . S
C1279 C1278 1.349 . S
C1279 C1295 1.349 . S
C1280 C1278 1.327 . S
C1280 C1299 1.429 . S
C1280 H1304 0.950 . S
C1281 C1298 1.574 . S
C1281 C1300 1.368 . S
C1281 H1305 0.949 . S
H1282 C1286 0.949 . S
C1283 C1284 1.349 . S
C1283 C1285 1.327 . S
C1283 H1306 0.950 . S
C1284 C1283 1.349 . S
C1284 C1296 1.349 1_455 S
C1285 C1283 1.327 . S
C1285 C1301 1.429 . S
C1285 H1307 0.950 . S
C1286 H1282 0.949 . S
C1286 C1294 1.574 . S
C1286 C1302 1.368 . S
H1287 C1295 0.950 . S
H1288 C1293 0.950 . S
H1289 C1294 0.949 . S
H1290 C1296 0.950 . S
H1291 C1297 0.950 1_655 S
H1292 C1298 0.949 . S
C1293 H1288 0.950 . S
C1293 C1295 1.327 . S
C1293 C1299 1.429 . S
C1294 C1286 1.574 . S
C1294 H1289 0.949 . S
C1294 C1300 1.368 . S
C1295 C1279 1.349 . S
C1295 H1287 0.950 . S
C1295 C1293 1.327 . S
C1296 C1284 1.349 1_655 S
C1296 H1290 0.950 . S
C1296 C1297 1.327 1_655 S
C1297 H1291 0.950 1_455 S
C1297 C1296 1.327 1_455 S
C1297 C1301 1.429 . S
C1298 C1281 1.574 . S
C1298 H1292 0.949 . S
C1298 C1302 1.368 . S
C1299 C1280 1.429 . S
C1299 C1293 1.429 . S
C1299 C1300 1.523 . S
C1300 C1281 1.368 . S
C1300 C1294 1.368 . S
C1300 C1299 1.523 . S
C1301 C1285 1.429 . S
C1301 C1297 1.429 . S
C1301 C1302 1.523 . S
C1302 C1286 1.368 . S
C1302 C1298 1.368 . S
C1302 C1301 1.523 . S
H1303 C1278 0.950 . S
H1304 C1280 0.950 . S
H1305 C1281 0.949 . S
H1306 C1283 0.950 . S
H1307 C1285 0.950 . S
C1308 C1309 1.346 . S
C1308 C1310 1.327 . S
C1308 H1333 0.950 . S
C1309 C1308 1.346 . S
C1309 C1325 1.353 1_455 S
C1310 C1308 1.327 . S
C1310 C1329 1.429 1_455 S
C1310 H1334 0.950 . S
C1311 C1328 1.574 . S
C1311 C1330 1.368 . S
C1311 H1335 0.949 . S
H1312 C1316 0.949 . S
C1313 C1314 1.349 . S
C1313 C1315 1.327 . S
C1313 H1336 0.950 . S
C1314 C1313 1.349 . S
C1314 C1326 1.349 . S
C1315 C1313 1.327 . S
C1315 C1331 1.429 . S
C1315 H1337 0.950 . S
C1316 H1312 0.949 . S
C1316 C1324 1.574 . S
C1316 C1332 1.368 . S
H1317 C1325 0.950 . S
H1318 C1323 0.950 . S
H1319 C1324 0.926 1_455 S
H1320 C1326 0.950 . S
H1321 C1327 0.950 . S
H1322 C1328 0.949 . S
C1323 H1318 0.950 . S
C1323 C1325 1.327 . S
C1323 C1329 1.429 . S
C1324 C1316 1.574 . S
C1324 H1319 0.926 1_655 S
C1324 C1330 1.368 . S
C1325 C1309 1.353 1_655 S
C1325 H1317 0.950 . S
C1325 C1323 1.327 . S
C1326 C1314 1.349 . S
C1326 H1320 0.950 . S
C1326 C1327 1.327 . S
C1327 H1321 0.950 . S
C1327 C1326 1.327 . S
C1327 C1331 1.429 . S
C1328 C1311 1.574 . S
C1328 H1322 0.949 . S
C1328 C1332 1.368 . S
C1329 C1310 1.429 1_655 S
C1329 C1323 1.429 . S
C1329 C1330 1.523 . S
C1330 C1311 1.368 . S
C1330 C1324 1.368 . S
C1330 C1329 1.523 . S
C1331 C1315 1.429 . S
C1331 C1327 1.429 . S
C1331 C1332 1.523 . S
C1332 C1316 1.368 . S
C1332 C1328 1.368 . S
C1332 C1331 1.523 . S
H1333 C1308 0.950 . S
H1334 C1310 0.950 . S
H1335 C1311 0.949 . S
H1336 C1313 0.950 . S
H1337 C1315 0.950 . S
C1338 C1339 1.349 . S
C1338 C1340 1.327 . S
C1338 H1363 0.950 . S
C1339 C1338 1.349 . S
C1339 C1355 1.349 . S
C1340 C1338 1.327 . S
C1340 C1359 1.429 . S
C1340 H1364 0.950 . S
C1341 C1358 1.574 . S
C1341 C1360 1.368 . S
C1341 H1365 0.949 . S
H1342 C1346 0.949 . S
C1343 C1344 1.349 . S
C1343 C1345 1.327 . S
C1343 H1366 0.950 . S
C1344 C1343 1.349 . S
C1344 C1356 1.349 . S
C1345 C1343 1.327 . S
C1345 C1361 1.429 . S
C1345 H1367 0.950 . S
C1346 H1342 0.949 . S
C1346 C1354 1.574 . S
C1346 C1362 1.368 . S
H1347 C1355 0.950 . S
H1348 C1353 0.950 . S
H1349 C1354 0.949 . S
H1350 C1356 0.950 . S
H1351 C1357 0.950 . S
H1352 C1358 0.949 . S
C1353 H1348 0.950 . S
C1353 C1355 1.327 . S
C1353 C1359 1.429 . S
C1354 C1346 1.574 . S
C1354 H1349 0.949 . S
C1354 C1360 1.368 . S
C1355 C1339 1.349 . S
C1355 H1347 0.950 . S
C1355 C1353 1.327 . S
C1356 C1344 1.349 . S
C1356 H1350 0.950 . S
C1356 C1357 1.327 . S
C1357 H1351 0.950 . S
C1357 C1356 1.327 . S
C1357 C1361 1.429 . S
C1358 C1341 1.574 . S
C1358 H1352 0.949 . S
C1358 C1362 1.368 . S
C1359 C1340 1.429 . S
C1359 C1353 1.429 . S
C1359 C1360 1.523 . S
C1360 C1341 1.368 . S
C1360 C1354 1.368 . S
C1360 C1359 1.523 . S
C1361 C1345 1.429 . S
C1361 C1357 1.429 . S
C1361 C1362 1.523 . S
C1362 C1346 1.368 . S
C1362 C1358 1.368 . S
C1362 C1361 1.523 . S
H1363 C1338 0.950 . S
H1364 C1340 0.950 . S
H1365 C1341 0.949 . S
H1366 C1343 0.950 . S
H1367 C1345 0.950 . S
C1368 C1369 1.349 . S
C1368 C1370 1.327 . S
C1368 H1393 0.950 . S
C1369 C1368 1.349 . S
C1369 C1385 1.349 . S
C1370 C1368 1.327 . S
C1370 C1389 1.429 . S
C1370 H1394 0.950 . S
C1371 C1388 1.574 . S
C1371 C1390 1.368 . S
C1371 H1395 0.949 . S
H1372 C1376 0.949 . S
C1373 C1374 1.349 . S
C1373 C1375 1.327 . S
C1373 H1396 0.950 . S
C1374 C1373 1.349 . S
C1374 C1386 1.349 . S
C1375 C1373 1.327 . S
C1375 C1391 1.429 . S
C1375 H1397 0.950 . S
C1376 H1372 0.949 . S
C1376 C1384 1.574 . S
C1376 C1392 1.368 . S
H1377 C1385 0.950 . S
H1378 C1383 0.950 . S
H1379 C1384 0.949 . S
H1380 C1386 0.950 . S
H1381 C1387 0.950 . S
H1382 C1388 0.949 . S
C1383 H1378 0.950 . S
C1383 C1385 1.327 . S
C1383 C1389 1.429 . S
C1384 C1376 1.574 . S
C1384 H1379 0.949 . S
C1384 C1390 1.368 . S
C1385 C1369 1.349 . S
C1385 H1377 0.950 . S
C1385 C1383 1.327 . S
C1386 C1374 1.349 . S
C1386 H1380 0.950 . S
C1386 C1387 1.327 . S
C1387 H1381 0.950 . S
C1387 C1386 1.327 . S
C1387 C1391 1.429 . S
C1388 C1371 1.574 . S
C1388 H1382 0.949 . S
C1388 C1392 1.368 . S
C1389 C1370 1.429 . S
C1389 C1383 1.429 . S
C1389 C1390 1.523 . S
C1390 C1371 1.368 . S
C1390 C1384 1.368 . S
C1390 C1389 1.523 . S
C1391 C1375 1.429 . S
C1391 C1387 1.429 . S
C1391 C1392 1.523 . S
C1392 C1376 1.368 . S
C1392 C1388 1.368 . S
C1392 C1391 1.523 . S
H1393 C1368 0.950 . S
H1394 C1370 0.950 . S
H1395 C1371 0.949 . S
H1396 C1373 0.950 . S
H1397 C1375 0.950 . S
C1398 C1399 1.349 . S
C1398 C1400 1.327 . S
C1398 H1423 0.950 . S
C1399 C1398 1.349 . S
C1399 C1415 1.349 . S
C1400 C1398 1.327 . S
C1400 C1419 1.429 . S
C1400 H1424 0.950 . S
C1401 C1418 1.574 . S
C1401 C1420 1.368 . S
C1401 H1425 0.949 . S
H1402 C1406 0.949 . S
C1403 C1404 1.349 . S
C1403 C1405 1.327 . S
C1403 H1426 0.950 . S
C1404 C1403 1.349 . S
C1404 C1416 1.349 . S
C1405 C1403 1.327 . S
C1405 C1421 1.429 . S
C1405 H1427 0.950 . S
C1406 H1402 0.949 . S
C1406 C1414 1.574 . S
C1406 C1422 1.368 . S
H1407 C1415 0.950 . S
H1408 C1413 0.950 . S
H1409 C1414 0.949 . S
H1410 C1416 0.950 . S
H1411 C1417 0.950 . S
H1412 C1418 0.949 . S
C1413 H1408 0.950 . S
C1413 C1415 1.327 . S
C1413 C1419 1.429 . S
C1414 C1406 1.574 . S
C1414 H1409 0.949 . S
C1414 C1420 1.368 . S
C1415 C1399 1.349 . S
C1415 H1407 0.950 . S
C1415 C1413 1.327 . S
C1416 C1404 1.349 . S
C1416 H1410 0.950 . S
C1416 C1417 1.327 . S
C1417 H1411 0.950 . S
C1417 C1416 1.327 . S
C1417 C1421 1.429 . S
C1418 C1401 1.574 . S
C1418 H1412 0.949 . S
C1418 C1422 1.368 . S
C1419 C1400 1.429 . S
C1419 C1413 1.429 . S
C1419 C1420 1.523 . S
C1420 C1401 1.368 . S
C1420 C1414 1.368 . S
C1420 C1419 1.523 . S
C1421 C1405 1.429 . S
C1421 C1417 1.429 . S
C1421 C1422 1.523 . S
C1422 C1406 1.368 . S
C1422 C1418 1.368 . S
C1422 C1421 1.523 . S
H1423 C1398 0.950 . S
H1424 C1400 0.950 . S
H1425 C1401 0.949 . S
H1426 C1403 0.950 . S
H1427 C1405 0.950 . S
C1428 C1429 1.349 . S
C1428 C1430 1.327 . S
C1428 H1453 0.950 . S
C1429 C1428 1.349 . S
C1429 C1445 1.349 . S
C1430 C1428 1.327 . S
C1430 C1449 1.429 . S
C1430 H1454 0.950 . S
C1431 C1448 1.574 . S
C1431 C1450 1.368 . S
C1431 H1455 0.949 . S
H1432 C1436 0.949 . S
C1433 C1434 1.349 . S
C1433 C1435 1.327 . S
C1433 H1456 0.950 . S
C1434 C1433 1.349 . S
C1434 C1446 1.349 . S
C1435 C1433 1.327 . S
C1435 C1451 1.429 . S
C1435 H1457 0.950 . S
C1436 H1432 0.949 . S
C1436 C1444 1.574 . S
C1436 C1452 1.368 . S
H1437 C1445 0.950 . S
H1438 C1443 0.950 . S
H1439 C1444 0.949 . S
H1440 C1446 0.950 . S
H1441 C1447 0.950 . S
H1442 C1448 0.949 . S
C1443 H1438 0.950 . S
C1443 C1445 1.327 . S
C1443 C1449 1.429 . S
C1444 C1436 1.574 . S
C1444 H1439 0.949 . S
C1444 C1450 1.368 . S
C1445 C1429 1.349 . S
C1445 H1437 0.950 . S
C1445 C1443 1.327 . S
C1446 C1434 1.349 . S
C1446 H1440 0.950 . S
C1446 C1447 1.327 . S
C1447 H1441 0.950 . S
C1447 C1446 1.327 . S
C1447 C1451 1.429 . S
C1448 C1431 1.574 . S
C1448 H1442 0.949 . S
C1448 C1452 1.368 . S
C1449 C1430 1.429 . S
C1449 C1443 1.429 . S
C1449 C1450 1.523 . S
C1450 C1431 1.368 . S
C1450 C1444 1.368 . S
C1450 C1449 1.523 . S
C1451 C1435 1.429 . S
C1451 C1447 1.429 . S
C1451 C1452 1.523 . S
C1452 C1436 1.368 . S
C1452 C1448 1.368 . S
C1452 C1451 1.523 . S
H1453 C1428 0.950 . S
H1454 C1430 0.950 . S
H1455 C1431 0.949 . S
H1456 C1433 0.950 . S
H1457 C1435 0.950 . S
C1458 C1459 1.349 . S
C1458 C1460 1.327 . S
C1458 H1483 0.950 . S
C1459 C1458 1.349 . S
C1459 C1475 1.349 . S
C1460 C1458 1.327 . S
C1460 C1479 1.429 . S
C1460 H1484 0.950 . S
C1461 C1478 1.574 . S
C1461 C1480 1.368 . S
C1461 H1485 0.949 . S
H1462 C1466 0.949 . S
C1463 C1464 1.349 . S
C1463 C1465 1.327 . S
C1463 H1486 0.950 . S
C1464 C1463 1.349 . S
C1464 C1476 1.349 . S
C1465 C1463 1.327 . S
C1465 C1481 1.429 . S
C1465 H1487 0.950 . S
C1466 H1462 0.949 . S
C1466 C1474 1.574 . S
C1466 C1482 1.368 . S
H1467 C1475 0.950 . S
H1468 C1473 0.950 . S
H1469 C1474 0.949 . S
H1470 C1476 0.950 . S
H1471 C1477 0.950 . S
H1472 C1478 0.949 . S
C1473 H1468 0.950 . S
C1473 C1475 1.327 . S
C1473 C1479 1.429 . S
C1474 C1466 1.574 . S
C1474 H1469 0.949 . S
C1474 C1480 1.368 . S
C1475 C1459 1.349 . S
C1475 H1467 0.950 . S
C1475 C1473 1.327 . S
C1476 C1464 1.349 . S
C1476 H1470 0.950 . S
C1476 C1477 1.327 . S
C1477 H1471 0.950 . S
C1477 C1476 1.327 . S
C1477 C1481 1.429 . S
C1478 C1461 1.574 . S
C1478 H1472 0.949 . S
C1478 C1482 1.368 . S
C1479 C1460 1.429 . S
C1479 C1473 1.429 . S
C1479 C1480 1.523 . S
C1480 C1461 1.368 . S
C1480 C1474 1.368 . S
C1480 C1479 1.523 . S
C1481 C1465 1.429 . S
C1481 C1477 1.429 . S
C1481 C1482 1.523 1_556 S
C1482 C1466 1.368 . S
C1482 C1478 1.368 . S
C1482 C1481 1.523 1_554 S
H1483 C1458 0.950 . S
H1484 C1460 0.950 . S
H1485 C1461 0.949 . S
H1486 C1463 0.950 . S
H1487 C1465 0.950 . S
C1488 C1489 1.349 . S
C1488 C1490 1.327 . S
C1488 H1513 0.950 . S
C1489 C1488 1.349 . S
C1489 C1505 1.349 . S
C1490 C1488 1.327 . S
C1490 C1509 1.429 . S
C1490 H1514 0.950 . S
C1491 C1508 1.574 . S
C1491 C1510 1.368 . S
C1491 H1515 0.949 . S
H1492 C1496 0.949 . S
C1493 C1494 1.349 . S
C1493 C1495 1.327 . S
C1493 H1516 0.950 . S
C1494 C1493 1.349 . S
C1494 C1506 1.349 . S
C1495 C1493 1.327 . S
C1495 C1511 1.429 . S
C1495 H1517 0.950 . S
C1496 H1492 0.949 . S
C1496 C1504 1.574 . S
C1496 C1512 1.368 . S
H1497 C1505 0.950 . S
H1498 C1503 0.950 . S
H1499 C1504 0.949 . S
H1500 C1506 0.950 . S
H1501 C1507 0.950 . S
H1502 C1508 0.949 . S
C1503 H1498 0.950 . S
C1503 C1505 1.327 . S
C1503 C1509 1.429 . S
C1504 C1496 1.574 . S
C1504 H1499 0.949 . S
C1504 C1510 1.368 . S
C1505 C1489 1.349 . S
C1505 H1497 0.950 . S
C1505 C1503 1.327 . S
C1506 C1494 1.349 . S
C1506 H1500 0.950 . S
C1506 C1507 1.327 . S
C1507 H1501 0.950 . S
C1507 C1506 1.327 . S
C1507 C1511 1.429 . S
C1508 C1491 1.574 . S
C1508 H1502 0.949 . S
C1508 C1512 1.368 . S
C1509 C1490 1.429 . S
C1509 C1503 1.429 . S
C1509 C1510 1.523 . S
C1510 C1491 1.368 . S
C1510 C1504 1.368 . S
C1510 C1509 1.523 . S
C1511 C1495 1.429 . S
C1511 C1507 1.429 . S
C1511 C1512 1.523 . S
C1512 C1496 1.368 . S
C1512 C1508 1.368 . S
C1512 C1511 1.523 . S
H1513 C1488 0.950 . S
H1514 C1490 0.950 . S
H1515 C1491 0.949 . S
H1516 C1493 0.950 . S
H1517 C1495 0.950 . S
C1518 C1519 1.349 . S
C1518 C1520 1.327 . S
C1518 H1543 0.950 . S
C1519 C1518 1.349 . S
C1519 C1535 1.349 . S
C1520 C1518 1.327 . S
C1520 C1539 1.429 . S
C1520 H1544 0.950 . S
C1521 C1538 1.574 . S
C1521 C1540 1.368 . S
C1521 H1545 0.949 . S
H1522 C1526 0.949 . S
C1523 C1524 1.349 . S
C1523 C1525 1.327 . S
C1523 H1546 0.950 . S
C1524 C1523 1.349 . S
C1524 C1536 1.349 . S
C1525 C1523 1.327 . S
C1525 C1541 1.429 . S
C1525 H1547 0.950 . S
C1526 H1522 0.949 . S
C1526 C1534 1.574 1_556 S
C1526 C1542 1.368 . S
H1527 C1535 0.950 . S
H1528 C1533 0.950 . S
H1529 C1534 0.949 . S
H1530 C1536 0.950 . S
H1531 C1537 0.950 . S
H1532 C1538 0.949 . S
C1533 H1528 0.950 . S
C1533 C1535 1.327 . S
C1533 C1539 1.429 . S
C1534 C1526 1.574 1_554 S
C1534 H1529 0.949 . S
C1534 C1540 1.368 1_554 S
C1535 C1519 1.349 . S
C1535 H1527 0.950 . S
C1535 C1533 1.327 . S
C1536 C1524 1.349 . S
C1536 H1530 0.950 . S
C1536 C1537 1.327 . S
C1537 H1531 0.950 . S
C1537 C1536 1.327 . S
C1537 C1541 1.429 . S
C1538 C1521 1.574 . S
C1538 H1532 0.949 . S
C1538 C1542 1.368 . S
C1539 C1520 1.429 . S
C1539 C1533 1.429 . S
C1539 C1540 1.523 1_554 S
C1540 C1521 1.368 . S
C1540 C1534 1.368 1_556 S
C1540 C1539 1.523 1_556 S
C1541 C1525 1.429 . S
C1541 C1537 1.429 . S
C1541 C1542 1.523 . S
C1542 C1526 1.368 . S
C1542 C1538 1.368 . S
C1542 C1541 1.523 . S
H1543 C1518 0.950 . S
H1544 C1520 0.950 . S
H1545 C1521 0.949 . S
H1546 C1523 0.950 . S
H1547 C1525 0.950 . S
C1548 C1549 1.349 . S
C1548 C1550 1.327 . S
C1548 H1573 0.950 . S
C1549 C1548 1.349 . S
C1549 C1565 1.349 . S
C1550 C1548 1.327 . S
C1550 C1569 1.429 . S
C1550 H1574 0.950 . S
C1551 C1568 1.574 . S
C1551 C1570 1.368 . S
C1551 H1575 0.949 . S
H1552 C1556 0.949 . S
C1553 C1554 1.349 . S
C1553 C1555 1.327 . S
C1553 H1576 0.950 . S
C1554 C1553 1.349 . S
C1554 C1566 1.349 . S
C1555 C1553 1.327 . S
C1555 C1571 1.429 . S
C1555 H1577 0.950 . S
C1556 H1552 0.949 . S
C1556 C1564 1.574 . S
C1556 C1572 1.368 . S
H1557 C1565 0.950 . S
H1558 C1563 0.950 . S
H1559 C1564 0.949 . S
H1560 C1566 0.950 . S
H1561 C1567 0.950 . S
H1562 C1568 0.949 . S
C1563 H1558 0.950 . S
C1563 C1565 1.327 . S
C1563 C1569 1.429 . S
C1564 C1556 1.574 . S
C1564 H1559 0.949 . S
C1564 C1570 1.368 . S
C1565 C1549 1.349 . S
C1565 H1557 0.950 . S
C1565 C1563 1.327 . S
C1566 C1554 1.349 . S
C1566 H1560 0.950 . S
C1566 C1567 1.327 . S
C1567 H1561 0.950 . S
C1567 C1566 1.327 . S
C1567 C1571 1.429 . S
C1568 C1551 1.574 . S
C1568 H1562 0.949 . S
C1568 C1572 1.368 . S
C1569 C1550 1.429 . S
C1569 C1563 1.429 . S
C1569 C1570 1.523 . S
C1570 C1551 1.368 . S
C1570 C1564 1.368 . S
C1570 C1569 1.523 . S
C1571 C1555 1.429 . S
C1571 C1567 1.429 . S
C1571 C1572 1.523 . S
C1572 C1556 1.368 . S
C1572 C1568 1.368 . S
C1572 C1571 1.523 . S
H1573 C1548 0.950 . S
H1574 C1550 0.950 . S
H1575 C1551 0.949 . S
H1576 C1553 0.950 . S
H1577 C1555 0.950 . S
C1578 C1579 1.349 . S
C1578 C1580 1.327 . S
C1578 H1603 0.950 . S
C1579 C1578 1.349 . S
C1579 C1595 1.349 . S
C1580 C1578 1.327 . S
C1580 C1599 1.429 . S
C1580 H1604 0.950 . S
C1581 C1598 1.574 . S
C1581 C1600 1.368 . S
C1581 H1605 0.949 . S
H1582 C1586 0.949 . S
C1583 C1584 1.349 . S
C1583 C1585 1.327 . S
C1583 H1606 0.950 . S
C1584 C1583 1.349 . S
C1584 C1596 1.349 . S
C1585 C1583 1.327 . S
C1585 C1601 1.429 . S
C1585 H1607 0.950 . S
C1586 H1582 0.949 . S
C1586 C1594 1.574 . S
C1586 C1602 1.368 . S
H1587 C1595 0.950 . S
H1588 C1593 0.950 . S
H1589 C1594 0.949 . S
H1590 C1596 0.950 . S
H1591 C1597 0.950 . S
H1592 C1598 0.949 . S
C1593 H1588 0.950 . S
C1593 C1595 1.327 . S
C1593 C1599 1.429 . S
C1594 C1586 1.574 . S
C1594 H1589 0.949 . S
C1594 C1600 1.368 . S
C1595 C1579 1.349 . S
C1595 H1587 0.950 . S
C1595 C1593 1.327 . S
C1596 C1584 1.349 . S
C1596 H1590 0.950 . S
C1596 C1597 1.327 . S
C1597 H1591 0.950 . S
C1597 C1596 1.327 . S
C1597 C1601 1.429 . S
C1598 C1581 1.574 . S
C1598 H1592 0.949 . S
C1598 C1602 1.368 . S
C1599 C1580 1.429 . S
C1599 C1593 1.429 . S
C1599 C1600 1.523 . S
C1600 C1581 1.368 . S
C1600 C1594 1.368 . S
C1600 C1599 1.523 . S
C1601 C1585 1.429 . S
C1601 C1597 1.429 . S
C1601 C1602 1.523 . S
C1602 C1586 1.368 . S
C1602 C1598 1.368 . S
C1602 C1601 1.523 . S
H1603 C1578 0.950 . S
H1604 C1580 0.950 . S
H1605 C1581 0.949 . S
H1606 C1583 0.950 . S
H1607 C1585 0.950 . S
C1608 C1609 1.349 . S
C1608 C1610 1.327 . S
C1608 H1633 0.950 . S
C1609 C1608 1.349 . S
C1609 C1625 1.349 . S
C1610 C1608 1.327 . S
C1610 C1629 1.429 . S
C1610 H1634 0.950 . S
C1611 C1628 1.574 . S
C1611 C1630 1.368 . S
C1611 H1635 0.949 . S
H1612 C1616 0.949 . S
C1613 C1614 1.349 . S
C1613 C1615 1.327 . S
C1613 H1636 0.950 . S
C1614 C1613 1.349 . S
C1614 C1626 1.349 . S
C1615 C1613 1.327 . S
C1615 C1631 1.429 . S
C1615 H1637 0.950 . S
C1616 H1612 0.949 . S
C1616 C1624 1.574 . S
C1616 C1632 1.368 . S
H1617 C1625 0.950 . S
H1618 C1623 0.950 . S
H1619 C1624 0.949 . S
H1620 C1626 0.950 . S
H1621 C1627 0.950 . S
H1622 C1628 0.949 . S
C1623 H1618 0.950 . S
C1623 C1625 1.327 . S
C1623 C1629 1.429 . S
C1624 C1616 1.574 . S
C1624 H1619 0.949 . S
C1624 C1630 1.368 . S
C1625 C1609 1.349 . S
C1625 H1617 0.950 . S
C1625 C1623 1.327 . S
C1626 C1614 1.349 . S
C1626 H1620 0.950 . S
C1626 C1627 1.327 . S
C1627 H1621 0.950 . S
C1627 C1626 1.327 . S
C1627 C1631 1.429 . S
C1628 C1611 1.574 . S
C1628 H1622 0.949 . S
C1628 C1632 1.368 . S
C1629 C1610 1.429 . S
C1629 C1623 1.429 . S
C1629 C1630 1.523 . S
C1630 C1611 1.368 . S
C1630 C1624 1.368 . S
C1630 C1629 1.523 . S
C1631 C1615 1.429 . S
C1631 C1627 1.429 . S
C1631 C1632 1.523 . S
C1632 C1616 1.368 . S
C1632 C1628 1.368 . S
C1632 C1631 1.523 . S
H1633 C1608 0.950 . S
H1634 C1610 0.950 . S
H1635 C1611 0.949 . S
H1636 C1613 0.950 . S
H1637 C1615 0.950 . S
C1638 C1639 1.349 . S
C1638 C1640 1.327 . S
C1638 H1663 0.950 . S
C1639 C1638 1.349 . S
C1639 C1655 1.349 . S
C1640 C1638 1.327 . S
C1640 C1659 1.429 . S
C1640 H1664 0.950 . S
C1641 C1658 1.574 1_545 S
C1641 C1660 1.368 . S
C1641 H1665 0.949 . S
H1642 C1646 0.949 . S
C1643 C1644 1.349 . S
C1643 C1645 1.327 . S
C1643 H1666 0.950 . S
C1644 C1643 1.349 . S
C1644 C1656 1.349 . S
C1645 C1643 1.327 . S
C1645 C1661 1.429 . S
C1645 H1667 0.950 . S
C1646 H1642 0.949 . S
C1646 C1654 1.574 . S
C1646 C1662 1.383 . S
H1647 C1655 0.950 . S
H1648 C1653 0.950 . S
H1649 C1654 0.949 . S
H1650 C1656 0.950 . S
H1651 C1657 0.950 . S
H1652 C1658 0.949 . S
C1653 H1648 0.950 . S
C1653 C1655 1.327 . S
C1653 C1659 1.429 . S
C1654 C1646 1.574 . S
C1654 H1649 0.949 . S
C1654 C1660 1.368 . S
C1655 C1639 1.349 . S
C1655 H1647 0.950 . S
C1655 C1653 1.327 . S
C1656 C1644 1.349 . S
C1656 H1650 0.950 . S
C1656 C1657 1.327 . S
C1657 H1651 0.950 . S
C1657 C1656 1.327 . S
C1657 C1661 1.429 . S
C1658 C1641 1.574 1_565 S
C1658 H1652 0.949 . S
C1658 C1662 1.367 1_565 S
C1659 C1640 1.429 . S
C1659 C1653 1.429 . S
C1659 C1660 1.523 . S
C1660 C1641 1.368 . S
C1660 C1654 1.368 . S
C1660 C1659 1.523 . S
C1661 C1645 1.429 . S
C1661 C1657 1.429 . S
C1661 C1662 1.506 1_565 S
C1662 C1646 1.383 . S
C1662 C1658 1.367 1_545 S
C1662 C1661 1.506 1_545 S
H1663 C1638 0.950 . S
H1664 C1640 0.950 . S
H1665 C1641 0.949 . S
H1666 C1643 0.950 . S
H1667 C1645 0.950 . S
C1668 C1669 1.349 . S
C1668 C1670 1.327 . S
C1668 H1693 0.950 . S
C1669 C1668 1.349 . S
C1669 C1685 1.349 . S
C1670 C1668 1.327 . S
C1670 C1689 1.429 . S
C1670 H1694 0.950 . S
C1671 C1688 1.574 . S
C1671 C1690 1.368 . S
C1671 H1695 0.949 . S
H1672 C1676 0.949 . S
C1673 C1674 1.349 . S
C1673 C1675 1.327 . S
C1673 H1696 0.950 . S
C1674 C1673 1.349 . S
C1674 C1686 1.349 . S
C1675 C1673 1.327 . S
C1675 C1691 1.429 . S
C1675 H1697 0.950 . S
C1676 H1672 0.949 . S
C1676 C1684 1.574 . S
C1676 C1692 1.368 . S
H1677 C1685 0.950 . S
H1678 C1683 0.950 . S
H1679 C1684 0.949 . S
H1680 C1686 0.950 . S
H1681 C1687 0.950 . S
H1682 C1688 0.949 . S
C1683 H1678 0.950 . S
C1683 C1685 1.327 . S
C1683 C1689 1.429 . S
C1684 C1676 1.574 . S
C1684 H1679 0.949 . S
C1684 C1690 1.368 . S
C1685 C1669 1.349 . S
C1685 H1677 0.950 . S
C1685 C1683 1.327 . S
C1686 C1674 1.349 . S
C1686 H1680 0.950 . S
C1686 C1687 1.327 . S
C1687 H1681 0.950 . S
C1687 C1686 1.327 . S
C1687 C1691 1.429 . S
C1688 C1671 1.574 . S
C1688 H1682 0.949 . S
C1688 C1692 1.368 . S
C1689 C1670 1.429 . S
C1689 C1683 1.429 . S
C1689 C1690 1.523 . S
C1690 C1671 1.368 . S
C1690 C1684 1.368 . S
C1690 C1689 1.523 . S
C1691 C1675 1.429 . S
C1691 C1687 1.429 . S
C1691 C1692 1.523 . S
C1692 C1676 1.368 . S
C1692 C1688 1.368 . S
C1692 C1691 1.523 . S
H1693 C1668 0.950 . S
H1694 C1670 0.950 . S
H1695 C1671 0.949 . S
H1696 C1673 0.950 . S
H1697 C1675 0.950 . S
C1698 C1699 1.349 . S
C1698 C1700 1.327 . S
C1698 H1723 0.950 . S
C1699 C1698 1.349 . S
C1699 C1715 1.349 . S
C1700 C1698 1.327 . S
C1700 C1719 1.429 . S
C1700 H1724 0.950 . S
C1701 C1718 1.574 . S
C1701 C1720 1.368 . S
C1701 H1725 0.949 . S
H1702 C1706 0.949 . S
C1703 C1704 1.349 . S
C1703 C1705 1.327 . S
C1703 H1726 0.950 . S
C1704 C1703 1.349 . S
C1704 C1716 1.349 . S
C1705 C1703 1.327 . S
C1705 C1721 1.429 . S
C1705 H1727 0.950 . S
C1706 H1702 0.949 . S
C1706 C1714 1.574 . S
C1706 C1722 1.368 . S
H1707 C1715 0.950 . S
H1708 C1713 0.950 . S
H1709 C1714 0.949 1_545 S
H1710 C1716 0.950 . S
H1711 C1717 0.950 . S
H1712 C1718 0.949 . S
C1713 H1708 0.950 . S
C1713 C1715 1.327 . S
C1713 C1719 1.429 . S
C1714 C1706 1.574 . S
C1714 H1709 0.949 1_565 S
C1714 C1720 1.368 . S
C1715 C1699 1.349 . S
C1715 H1707 0.950 . S
C1715 C1713 1.327 . S
C1716 C1704 1.349 . S
C1716 H1710 0.950 . S
C1716 C1717 1.327 . S
C1717 H1711 0.950 . S
C1717 C1716 1.327 . S
C1717 C1721 1.429 . S
C1718 C1701 1.574 . S
C1718 H1712 0.949 . S
C1718 C1722 1.368 . S
C1719 C1700 1.429 . S
C1719 C1713 1.429 . S
C1719 C1720 1.523 1_545 S
C1720 C1701 1.368 . S
C1720 C1714 1.368 . S
C1720 C1719 1.523 1_565 S
C1721 C1705 1.429 . S
C1721 C1717 1.429 . S
C1721 C1722 1.523 . S
C1722 C1706 1.368 . S
C1722 C1718 1.368 . S
C1722 C1721 1.523 . S
H1723 C1698 0.950 . S
H1724 C1700 0.950 . S
H1725 C1701 0.949 . S
H1726 C1703 0.950 . S
H1727 C1705 0.950 . S
C1728 C1729 1.349 . S
C1728 C1730 1.327 . S
C1728 H1753 0.950 . S
C1729 C1728 1.349 . S
C1729 C1745 1.349 . S
C1730 C1728 1.327 . S
C1730 C1749 1.429 . S
C1730 H1754 0.950 . S
C1731 C1748 1.574 . S
C1731 C1750 1.368 . S
C1731 H1755 0.949 . S
H1732 C1736 0.949 . S
C1733 C1734 1.349 . S
C1733 C1735 1.327 . S
C1733 H1756 0.950 . S
C1734 C1733 1.349 . S
C1734 C1746 1.349 . S
C1735 C1733 1.327 . S
C1735 C1751 1.429 . S
C1735 H1757 0.950 . S
C1736 H1732 0.949 . S
C1736 C1744 1.574 . S
C1736 C1752 1.368 . S
H1737 C1745 0.950 . S
H1738 C1743 0.950 . S
H1739 C1744 0.949 . S
H1740 C1746 0.950 . S
H1741 C1747 0.950 . S
H1742 C1748 0.949 . S
C1743 H1738 0.950 . S
C1743 C1745 1.327 . S
C1743 C1749 1.429 . S
C1744 C1736 1.574 . S
C1744 H1739 0.949 . S
C1744 C1750 1.368 . S
C1745 C1729 1.349 . S
C1745 H1737 0.950 . S
C1745 C1743 1.327 . S
C1746 C1734 1.349 . S
C1746 H1740 0.950 . S
C1746 C1747 1.327 . S
C1747 H1741 0.950 . S
C1747 C1746 1.327 . S
C1747 C1751 1.429 . S
C1748 C1731 1.574 . S
C1748 H1742 0.949 . S
C1748 C1752 1.368 . S
C1749 C1730 1.429 . S
C1749 C1743 1.429 . S
C1749 C1750 1.523 . S
C1750 C1731 1.368 . S
C1750 C1744 1.368 . S
C1750 C1749 1.523 . S
C1751 C1735 1.429 . S
C1751 C1747 1.429 . S
C1751 C1752 1.523 . S
C1752 C1736 1.368 . S
C1752 C1748 1.368 . S
C1752 C1751 1.523 . S
H1753 C1728 0.950 . S
H1754 C1730 0.950 . S
H1755 C1731 0.949 . S
H1756 C1733 0.950 . S
H1757 C1735 0.950 . S
C1758 C1759 1.349 . S
C1758 C1760 1.327 . S
C1758 H1783 0.950 . S
C1759 C1758 1.349 . S
C1759 C1775 1.349 . S
C1760 C1758 1.327 . S
C1760 C1779 1.429 . S
C1760 H1784 0.950 . S
C1761 C1778 1.574 . S
C1761 C1780 1.368 . S
C1761 H1785 0.949 . S
H1762 C1766 0.949 . S
C1763 C1764 1.349 . S
C1763 C1765 1.327 . S
C1763 H1786 0.950 . S
C1764 C1763 1.349 . S
C1764 C1776 1.349 . S
C1765 C1763 1.327 . S
C1765 C1781 1.429 . S
C1765 H1787 0.950 . S
C1766 H1762 0.949 . S
C1766 C1774 1.574 . S
C1766 C1782 1.368 . S
H1767 C1775 0.950 . S
H1768 C1773 0.950 . S
H1769 C1774 0.949 . S
H1770 C1776 0.950 . S
H1771 C1777 0.950 . S
H1772 C1778 0.949 . S
C1773 H1768 0.950 . S
C1773 C1775 1.327 . S
C1773 C1779 1.429 . S
C1774 C1766 1.574 . S
C1774 H1769 0.949 . S
C1774 C1780 1.368 . S
C1775 C1759 1.349 . S
C1775 H1767 0.950 . S
C1775 C1773 1.327 . S
C1776 C1764 1.349 . S
C1776 H1770 0.950 . S
C1776 C1777 1.327 . S
C1777 H1771 0.950 . S
C1777 C1776 1.327 . S
C1777 C1781 1.429 . S
C1778 C1761 1.574 . S
C1778 H1772 0.949 . S
C1778 C1782 1.368 . S
C1779 C1760 1.429 . S
C1779 C1773 1.429 . S
C1779 C1780 1.523 . S
C1780 C1761 1.368 . S
C1780 C1774 1.368 . S
C1780 C1779 1.523 . S
C1781 C1765 1.429 . S
C1781 C1777 1.429 . S
C1781 C1782 1.523 . S
C1782 C1766 1.368 . S
C1782 C1778 1.368 . S
C1782 C1781 1.523 . S
H1783 C1758 0.950 . S
H1784 C1760 0.950 . S
H1785 C1761 0.949 . S
H1786 C1763 0.950 . S
H1787 C1765 0.950 . S
C1788 C1789 1.349 . S
C1788 C1790 1.327 . S
C1788 H1813 0.950 . S
C1789 C1788 1.349 . S
C1789 C1805 1.349 . S
C1790 C1788 1.327 . S
C1790 C1809 1.429 . S
C1790 H1814 0.950 . S
C1791 C1808 1.574 . S
C1791 C1810 1.368 . S
C1791 H1815 0.949 . S
H1792 C1796 0.949 . S
C1793 C1794 1.349 . S
C1793 C1795 1.327 . S
C1793 H1816 0.950 . S
C1794 C1793 1.349 . S
C1794 C1806 1.349 . S
C1795 C1793 1.327 . S
C1795 C1811 1.429 . S
C1795 H1817 0.950 . S
C1796 H1792 0.949 . S
C1796 C1804 1.574 . S
C1796 C1812 1.368 . S
H1797 C1805 0.950 . S
H1798 C1803 0.950 . S
H1799 C1804 0.949 . S
H1800 C1806 0.950 . S
H1801 C1807 0.950 . S
H1802 C1808 0.949 . S
C1803 H1798 0.950 . S
C1803 C1805 1.327 . S
C1803 C1809 1.429 . S
C1804 C1796 1.574 . S
C1804 H1799 0.949 . S
C1804 C1810 1.368 . S
C1805 C1789 1.349 . S
C1805 H1797 0.950 . S
C1805 C1803 1.327 . S
C1806 C1794 1.349 . S
C1806 H1800 0.950 . S
C1806 C1807 1.327 . S
C1807 H1801 0.950 . S
C1807 C1806 1.327 . S
C1807 C1811 1.429 . S
C1808 C1791 1.574 . S
C1808 H1802 0.949 . S
C1808 C1812 1.368 . S
C1809 C1790 1.429 . S
C1809 C1803 1.429 . S
C1809 C1810 1.523 . S
C1810 C1791 1.368 . S
C1810 C1804 1.368 . S
C1810 C1809 1.523 . S
C1811 C1795 1.429 . S
C1811 C1807 1.429 . S
C1811 C1812 1.523 . S
C1812 C1796 1.368 . S
C1812 C1808 1.368 . S
C1812 C1811 1.523 . S
H1813 C1788 0.950 . S
H1814 C1790 0.950 . S
H1815 C1791 0.949 . S
H1816 C1793 0.950 . S
H1817 C1795 0.950 . S
C1818 C1819 1.349 . S
C1818 C1820 1.327 . S
C1818 H1843 0.950 . S
C1819 C1818 1.349 . S
C1819 C1835 1.349 . S
C1820 C1818 1.327 . S
C1820 C1839 1.429 . S
C1820 H1844 0.950 . S
C1821 C1838 1.574 . S
C1821 C1840 1.368 . S
C1821 H1845 0.949 . S
H1822 C1826 0.949 . S
C1823 C1824 1.349 . S
C1823 C1825 1.327 . S
C1823 H1846 0.950 . S
C1824 C1823 1.349 . S
C1824 C1836 1.349 . S
C1825 C1823 1.327 . S
C1825 C1841 1.429 . S
C1825 H1847 0.950 . S
C1826 H1822 0.949 . S
C1826 C1834 1.574 . S
C1826 C1842 1.368 . S
H1827 C1835 0.950 . S
H1828 C1833 0.950 . S
H1829 C1834 0.949 . S
H1830 C1836 0.950 . S
H1831 C1837 0.950 . S
H1832 C1838 0.949 . S
C1833 H1828 0.950 . S
C1833 C1835 1.327 . S
C1833 C1839 1.429 . S
C1834 C1826 1.574 . S
C1834 H1829 0.949 . S
C1834 C1840 1.368 . S
C1835 C1819 1.349 . S
C1835 H1827 0.950 . S
C1835 C1833 1.327 . S
C1836 C1824 1.349 . S
C1836 H1830 0.950 . S
C1836 C1837 1.327 . S
C1837 H1831 0.950 . S
C1837 C1836 1.327 . S
C1837 C1841 1.429 . S
C1838 C1821 1.574 . S
C1838 H1832 0.949 . S
C1838 C1842 1.368 . S
C1839 C1820 1.429 . S
C1839 C1833 1.429 . S
C1839 C1840 1.523 . S
C1840 C1821 1.368 . S
C1840 C1834 1.368 . S
C1840 C1839 1.523 . S
C1841 C1825 1.429 . S
C1841 C1837 1.429 . S
C1841 C1842 1.523 . S
C1842 C1826 1.368 . S
C1842 C1838 1.368 . S
C1842 C1841 1.523 . S
H1843 C1818 0.950 . S
H1844 C1820 0.950 . S
H1845 C1821 0.949 . S
H1846 C1823 0.950 . S
H1847 C1825 0.950 . S
C1848 C1849 1.349 . S
C1848 C1850 1.327 . S
C1848 H1873 0.950 . S
C1849 C1848 1.349 . S
C1849 C1865 1.349 . S
C1850 C1848 1.327 . S
C1850 C1869 1.429 . S
C1850 H1874 0.950 . S
C1851 C1868 1.574 . S
C1851 C1870 1.368 . S
C1851 H1875 0.949 . S
H1852 C1856 0.949 . S
C1853 C1854 1.349 . S
C1853 C1855 1.327 . S
C1853 H1876 0.950 . S
C1854 C1853 1.349 . S
C1854 C1866 1.349 . S
C1855 C1853 1.327 . S
C1855 C1871 1.429 . S
C1855 H1877 0.950 . S
C1856 H1852 0.949 . S
C1856 C1864 1.574 . S
C1856 C1872 1.368 . S
H1857 C1865 0.950 . S
H1858 C1863 0.950 . S
H1859 C1864 0.949 . S
H1860 C1866 0.950 . S
H1861 C1867 0.950 . S
H1862 C1868 0.949 . S
C1863 H1858 0.950 . S
C1863 C1865 1.327 . S
C1863 C1869 1.429 . S
C1864 C1856 1.574 . S
C1864 H1859 0.949 . S
C1864 C1870 1.368 . S
C1865 C1849 1.349 . S
C1865 H1857 0.950 . S
C1865 C1863 1.327 . S
C1866 C1854 1.349 . S
C1866 H1860 0.950 . S
C1866 C1867 1.327 . S
C1867 H1861 0.950 . S
C1867 C1866 1.327 . S
C1867 C1871 1.429 . S
C1868 C1851 1.574 . S
C1868 H1862 0.949 . S
C1868 C1872 1.368 . S
C1869 C1850 1.429 . S
C1869 C1863 1.429 . S
C1869 C1870 1.523 . S
C1870 C1851 1.368 . S
C1870 C1864 1.368 . S
C1870 C1869 1.523 . S
C1871 C1855 1.429 . S
C1871 C1867 1.429 . S
C1871 C1872 1.523 . S
C1872 C1856 1.368 . S
C1872 C1868 1.368 . S
C1872 C1871 1.523 . S
H1873 C1848 0.950 . S
H1874 C1850 0.950 . S
H1875 C1851 0.949 . S
H1876 C1853 0.950 . S
H1877 C1855 0.950 . S
C1878 C1879 1.349 . S
C1878 C1880 1.327 . S
C1878 H1903 0.950 . S
C1879 C1878 1.349 . S
C1879 C1895 1.349 . S
C1880 C1878 1.327 . S
C1880 C1899 1.429 . S
C1880 H1904 0.950 . S
C1881 C1898 1.574 . S
C1881 C1900 1.368 . S
C1881 H1905 0.949 . S
H1882 C1886 0.949 . S
C1883 C1884 1.349 . S
C1883 C1885 1.327 . S
C1883 H1906 0.950 . S
C1884 C1883 1.349 . S
C1884 C1896 1.349 . S
C1885 C1883 1.327 . S
C1885 C1901 1.429 . S
C1885 H1907 0.950 . S
C1886 H1882 0.949 . S
C1886 C1894 1.574 . S
C1886 C1902 1.368 . S
H1887 C1895 0.950 . S
H1888 C1893 0.950 . S
H1889 C1894 0.949 . S
H1890 C1896 0.950 . S
H1891 C1897 0.950 . S
H1892 C1898 0.949 . S
C1893 H1888 0.950 . S
C1893 C1895 1.327 . S
C1893 C1899 1.429 . S
C1894 C1886 1.574 . S
C1894 H1889 0.949 . S
C1894 C1900 1.368 . S
C1895 C1879 1.349 . S
C1895 H1887 0.950 . S
C1895 C1893 1.327 . S
C1896 C1884 1.349 . S
C1896 H1890 0.950 . S
C1896 C1897 1.327 . S
C1897 H1891 0.950 . S
C1897 C1896 1.327 . S
C1897 C1901 1.429 . S
C1898 C1881 1.574 . S
C1898 H1892 0.949 . S
C1898 C1902 1.368 . S
C1899 C1880 1.429 . S
C1899 C1893 1.429 . S
C1899 C1900 1.523 . S
C1900 C1881 1.368 . S
C1900 C1894 1.368 . S
C1900 C1899 1.523 . S
C1901 C1885 1.429 . S
C1901 C1897 1.429 . S
C1901 C1902 1.523 . S
C1902 C1886 1.368 . S
C1902 C1898 1.368 . S
C1902 C1901 1.523 . S
H1903 C1878 0.950 . S
H1904 C1880 0.950 . S
H1905 C1881 0.949 . S
H1906 C1883 0.950 . S
H1907 C1885 0.950 . S
C1908 C1909 1.349 . S
C1908 C1910 1.327 . S
C1908 H1933 0.950 . S
C1909 C1908 1.349 . S
C1909 C1925 1.349 . S
C1910 C1908 1.327 . S
C1910 C1929 1.429 . S
C1910 H1934 0.950 . S
C1911 C1928 1.574 . S
C1911 C1930 1.368 . S
C1911 H1935 0.949 . S
H1912 C1916 0.949 1_655 S
C1913 C1914 1.349 . S
C1913 C1915 1.327 . S
C1913 H1936 0.950 . S
C1914 C1913 1.349 . S
C1914 C1926 1.349 . S
C1915 C1913 1.327 . S
C1915 C1931 1.429 . S
C1915 H1937 0.950 . S
C1916 H1912 0.949 1_455 S
C1916 C1924 1.574 . S
C1916 C1932 1.368 . S
H1917 C1925 0.950 . S
H1918 C1923 0.950 . S
H1919 C1924 0.949 . S
H1920 C1926 0.950 . S
H1921 C1927 0.950 . S
H1922 C1928 0.949 . S
C1923 H1918 0.950 . S
C1923 C1925 1.327 . S
C1923 C1929 1.429 . S
C1924 C1916 1.574 . S
C1924 H1919 0.949 . S
C1924 C1930 1.368 . S
C1925 C1909 1.349 . S
C1925 H1917 0.950 . S
C1925 C1923 1.327 . S
C1926 C1914 1.349 . S
C1926 H1920 0.950 . S
C1926 C1927 1.327 . S
C1927 H1921 0.950 . S
C1927 C1926 1.327 . S
C1927 C1931 1.429 . S
C1928 C1911 1.574 . S
C1928 H1922 0.949 . S
C1928 C1932 1.368 . S
C1929 C1910 1.429 . S
C1929 C1923 1.429 . S
C1929 C1930 1.523 . S
C1930 C1911 1.368 . S
C1930 C1924 1.368 . S
C1930 C1929 1.523 . S
C1931 C1915 1.429 . S
C1931 C1927 1.429 . S
C1931 C1932 1.523 1_655 S
C1932 C1916 1.368 . S
C1932 C1928 1.368 . S
C1932 C1931 1.523 1_455 S
H1933 C1908 0.950 . S
H1934 C1910 0.950 . S
H1935 C1911 0.949 . S
H1936 C1913 0.950 . S
H1937 C1915 0.950 . S
C1938 C1939 1.349 . S
C1938 C1940 1.327 . S
C1938 H1963 0.950 . S
C1939 C1938 1.349 . S
C1939 C1955 1.349 . S
C1940 C1938 1.327 . S
C1940 C1959 1.429 . S
C1940 H1964 0.950 . S
C1941 C1958 1.574 . S
C1941 C1960 1.368 . S
C1941 H1965 0.949 . S
H1942 C1946 0.949 . S
C1943 C1944 1.349 . S
C1943 C1945 1.327 . S
C1943 H1966 0.950 . S
C1944 C1943 1.349 . S
C1944 C1956 1.349 . S
C1945 C1943 1.327 . S
C1945 C1961 1.429 . S
C1945 H1967 0.950 . S
C1946 H1942 0.949 . S
C1946 C1954 1.574 . S
C1946 C1962 1.368 . S
H1947 C1955 0.950 . S
H1948 C1953 0.950 . S
H1949 C1954 0.949 . S
H1950 C1956 0.950 . S
H1951 C1957 0.950 . S
H1952 C1958 0.949 . S
C1953 H1948 0.950 . S
C1953 C1955 1.327 . S
C1953 C1959 1.429 . S
C1954 C1946 1.574 . S
C1954 H1949 0.949 . S
C1954 C1960 1.368 . S
C1955 C1939 1.349 . S
C1955 H1947 0.950 . S
C1955 C1953 1.327 . S
C1956 C1944 1.349 . S
C1956 H1950 0.950 . S
C1956 C1957 1.327 . S
C1957 H1951 0.950 . S
C1957 C1956 1.327 . S
C1957 C1961 1.429 . S
C1958 C1941 1.574 . S
C1958 H1952 0.949 . S
C1958 C1962 1.368 . S
C1959 C1940 1.429 . S
C1959 C1953 1.429 . S
C1959 C1960 1.523 . S
C1960 C1941 1.368 . S
C1960 C1954 1.368 . S
C1960 C1959 1.523 . S
C1961 C1945 1.429 . S
C1961 C1957 1.429 . S
C1961 C1962 1.523 . S
C1962 C1946 1.368 . S
C1962 C1958 1.368 . S
C1962 C1961 1.523 . S
H1963 C1938 0.950 . S
H1964 C1940 0.950 . S
H1965 C1941 0.949 . S
H1966 C1943 0.950 . S
H1967 C1945 0.950 . S
C1968 C1969 1.349 . S
C1968 C1970 1.327 . S
C1968 H1993 0.950 . S
C1969 C1968 1.349 . S
C1969 C1985 1.349 . S
C1970 C1968 1.327 . S
C1970 C1989 1.429 . S
C1970 H1994 0.950 . S
C1971 C1988 1.574 . S
C1971 C1990 1.368 . S
C1971 H1995 0.949 . S
H1972 C1976 0.949 . S
C1973 C1974 1.349 . S
C1973 C1975 1.327 . S
C1973 H1996 0.950 . S
C1974 C1973 1.349 . S
C1974 C1986 1.349 . S
C1975 C1973 1.327 . S
C1975 C1991 1.429 . S
C1975 H1997 0.950 . S
C1976 H1972 0.949 . S
C1976 C1984 1.574 . S
C1976 C1992 1.368 . S
H1977 C1985 0.950 . S
H1978 C1983 0.950 . S
H1979 C1984 0.949 . S
H1980 C1986 0.950 . S
H1981 C1987 0.950 . S
H1982 C1988 0.949 . S
C1983 H1978 0.950 . S
C1983 C1985 1.327 . S
C1983 C1989 1.429 . S
C1984 C1976 1.574 . S
C1984 H1979 0.949 . S
C1984 C1990 1.368 . S
C1985 C1969 1.349 . S
C1985 H1977 0.950 . S
C1985 C1983 1.327 . S
C1986 C1974 1.349 . S
C1986 H1980 0.950 . S
C1986 C1987 1.327 . S
C1987 H1981 0.950 . S
C1987 C1986 1.327 . S
C1987 C1991 1.429 . S
C1988 C1971 1.574 . S
C1988 H1982 0.949 . S
C1988 C1992 1.368 . S
C1989 C1970 1.429 . S
C1989 C1983 1.429 . S
C1989 C1990 1.523 . S
C1990 C1971 1.368 . S
C1990 C1984 1.368 . S
C1990 C1989 1.523 . S
C1991 C1975 1.429 . S
C1991 C1987 1.429 . S
C1991 C1992 1.523 . S
C1992 C1976 1.368 . S
C1992 C1988 1.368 . S
C1992 C1991 1.523 . S
H1993 C1968 0.950 . S
H1994 C1970 0.950 . S
H1995 C1971 0.949 . S
H1996 C1973 0.950 . S
H1997 C1975 0.950 . S
C1998 C1999 1.349 . S
C1998 C2000 1.327 . S
C1998 H2023 0.950 . S
C1999 C1998 1.349 . S
C1999 C2015 1.349 . S
C2000 C1998 1.327 . S
C2000 C2019 1.429 . S
C2000 H2024 0.950 . S
C2001 C2018 1.574 . S
C2001 C2020 1.368 . S
C2001 H2025 0.949 . S
H2002 C2006 0.949 . S
C2003 C2004 1.349 . S
C2003 C2005 1.327 . S
C2003 H2026 0.950 . S
C2004 C2003 1.349 . S
C2004 C2016 1.349 . S
C2005 C2003 1.327 . S
C2005 C2021 1.429 . S
C2005 H2027 0.950 . S
C2006 H2002 0.949 . S
C2006 C2014 1.574 . S
C2006 C2022 1.368 . S
H2007 C2015 0.950 . S
H2008 C2013 0.950 . S
H2009 C2014 0.949 . S
H2010 C2016 0.950 . S
H2011 C2017 0.950 . S
H2012 C2018 0.949 . S
C2013 H2008 0.950 . S
C2013 C2015 1.327 . S
C2013 C2019 1.429 . S
C2014 C2006 1.574 . S
C2014 H2009 0.949 . S
C2014 C2020 1.368 . S
C2015 C1999 1.349 . S
C2015 H2007 0.950 . S
C2015 C2013 1.327 . S
C2016 C2004 1.349 . S
C2016 H2010 0.950 . S
C2016 C2017 1.327 . S
C2017 H2011 0.950 . S
C2017 C2016 1.327 . S
C2017 C2021 1.429 . S
C2018 C2001 1.574 . S
C2018 H2012 0.949 . S
C2018 C2022 1.368 . S
C2019 C2000 1.429 . S
C2019 C2013 1.429 . S
C2019 C2020 1.523 . S
C2020 C2001 1.368 . S
C2020 C2014 1.368 . S
C2020 C2019 1.523 . S
C2021 C2005 1.429 . S
C2021 C2017 1.429 . S
C2021 C2022 1.523 . S
C2022 C2006 1.368 . S
C2022 C2018 1.368 . S
C2022 C2021 1.523 . S
H2023 C1998 0.950 . S
H2024 C2000 0.950 . S
H2025 C2001 0.949 . S
H2026 C2003 0.950 . S
H2027 C2005 0.950 . S
C2028 C2029 1.349 . S
C2028 C2030 1.327 . S
C2028 H2053 0.950 . S
C2029 C2028 1.349 . S
C2029 C2045 1.349 . S
C2030 C2028 1.327 . S
C2030 C2049 1.429 . S
C2030 H2054 0.950 . S
C2031 C2048 1.574 . S
C2031 C2050 1.368 . S
C2031 H2055 0.949 . S
H2032 C2036 0.949 . S
C2033 C2034 1.349 . S
C2033 C2035 1.327 . S
C2033 H2056 0.950 . S
C2034 C2033 1.349 . S
C2034 C2046 1.349 . S
C2035 C2033 1.327 . S
C2035 C2051 1.429 . S
C2035 H2057 0.950 . S
C2036 H2032 0.949 . S
C2036 C2044 1.574 . S
C2036 C2052 1.368 . S
H2037 C2045 0.950 1_554 S
H2038 C2043 0.950 . S
H2039 C2044 0.949 . S
H2040 C2046 0.950 . S
H2041 C2047 0.950 . S
H2042 C2048 0.949 . S
C2043 H2038 0.950 . S
C2043 C2045 1.327 . S
C2043 C2049 1.429 . S
C2044 C2036 1.574 . S
C2044 H2039 0.949 . S
C2044 C2050 1.368 . S
C2045 C2029 1.349 . S
C2045 H2037 0.950 1_556 S
C2045 C2043 1.327 . S
C2046 C2034 1.349 . S
C2046 H2040 0.950 . S
C2046 C2047 1.327 . S
C2047 H2041 0.950 . S
C2047 C2046 1.327 . S
C2047 C2051 1.429 . S
C2048 C2031 1.574 . S
C2048 H2042 0.949 . S
C2048 C2052 1.368 . S
C2049 C2030 1.429 . S
C2049 C2043 1.429 . S
C2049 C2050 1.523 . S
C2050 C2031 1.368 . S
C2050 C2044 1.368 . S
C2050 C2049 1.523 . S
C2051 C2035 1.429 . S
C2051 C2047 1.429 . S
C2051 C2052 1.523 . S
C2052 C2036 1.368 . S
C2052 C2048 1.368 . S
C2052 C2051 1.523 . S
H2053 C2028 0.950 . S
H2054 C2030 0.950 . S
H2055 C2031 0.949 . S
H2056 C2033 0.950 . S
H2057 C2035 0.950 . S
C2058 C2059 1.349 . S
C2058 C2060 1.327 . S
C2058 H2083 0.950 . S
C2059 C2058 1.349 . S
C2059 C2075 1.349 . S
C2060 C2058 1.327 . S
C2060 C2079 1.429 . S
C2060 H2084 0.950 . S
C2061 C2078 1.574 . S
C2061 C2080 1.368 . S
C2061 H2085 0.949 . S
H2062 C2066 0.949 . S
C2063 C2064 1.349 . S
C2063 C2065 1.327 . S
C2063 H2086 0.950 . S
C2064 C2063 1.349 . S
C2064 C2076 1.349 . S
C2065 C2063 1.327 . S
C2065 C2081 1.429 . S
C2065 H2087 0.950 . S
C2066 H2062 0.949 . S
C2066 C2074 1.574 . S
C2066 C2082 1.380 . S
H2067 C2075 0.950 . S
H2068 C2073 0.950 . S
H2069 C2074 0.949 . S
H2070 C2076 0.950 . S
H2071 C2077 0.950 . S
H2072 C2078 0.949 1_455 S
C2073 H2068 0.950 . S
C2073 C2075 1.327 . S
C2073 C2079 1.429 . S
C2074 C2066 1.574 . S
C2074 H2069 0.949 . S
C2074 C2080 1.368 . S
C2075 C2059 1.349 . S
C2075 H2067 0.950 . S
C2075 C2073 1.327 . S
C2076 C2064 1.349 . S
C2076 H2070 0.950 . S
C2076 C2077 1.327 . S
C2077 H2071 0.950 . S
C2077 C2076 1.327 . S
C2077 C2081 1.429 . S
C2078 C2061 1.574 . S
C2078 H2072 0.949 1_655 S
C2078 C2082 1.374 . S
C2079 C2060 1.429 . S
C2079 C2073 1.429 . S
C2079 C2080 1.523 . S
C2080 C2061 1.368 . S
C2080 C2074 1.368 . S
C2080 C2079 1.523 . S
C2081 C2065 1.429 . S
C2081 C2077 1.429 . S
C2081 C2082 1.502 1_455 S
C2082 C2066 1.380 . S
C2082 C2078 1.374 . S
C2082 C2081 1.502 1_655 S
H2083 C2058 0.950 . S
H2084 C2060 0.950 . S
H2085 C2061 0.949 . S
H2086 C2063 0.950 . S
H2087 C2065 0.950 . S
C1009 C67 1.482 . S
C1014 C987 1.517 . S
C1039 C819 1.480 1_565 S
C1044 C147 1.490 . S
C1069 C231 1.400 . S
C1074 C735 1.397 . S
C1099 C315 1.442 . S
C1104 C903 1.439 1_545 S
C1129 C399 1.586 . S
C1134 C907 1.545 . S
C1159 C487 1.580 . S
C1164 C991 1.583 . S
C1189 C823 1.505 . S
C1194 C567 1.541 1_556 S
C1219 C651 1.498 . S
C1224 C739 1.462 . S
C1249 C319 1.584 . S
C1254 C403 1.584 . S
C1279 C63 1.468 . S
C1284 C483 1.474 . S
C1309 C151 1.579 . S
C1314 C571 1.589 . S
C1339 C655 1.589 . S
C1344 C235 1.586 . S
C1369 C70 1.631 . S
C1374 C746 1.764 . S
C1399 C142 1.412 . S
C1404 C914 1.603 . S
C1429 C998 1.672 . S
C1434 C226 1.469 . S
C1459 C310 1.509 . S
C1464 C830 1.720 . S
C1489 C394 1.483 . S
C1494 C812 1.682 . S
C1519 C728 1.844 . S
C1524 C490 1.701 . S
C1549 C896 1.798 . S
C1554 C562 1.581 . S
C1579 C980 1.750 . S
C1584 C646 1.540 . S
C1609 C74 1.769 . S
C1614 C322 1.633 . S
C1639 C58 1.604 . S
C1644 C140 1.822 . S
C1669 C154 1.734 . S
C1674 C224 1.880 . S
C1699 C308 1.843 . S
C1704 C238 1.701 . S
C1729 C478 1.469 . S
C1734 C392 1.664 . S
C1759 C494 1.606 . S
C1764 C574 1.487 . S
C1789 C560 1.682 . S
C1794 C658 1.554 . S
C1819 C406 1.585 . S
C1824 C644 1.718 . S
C1849 C742 1.554 . S
C1854 C326 1.683 . S
C1879 C476 1.734 . S
C1884 C814 1.525 . S
C1909 C730 1.485 . S
C1914 C578 1.692 . S
C1939 C898 1.417 . S
C1944 C662 1.612 . S
C1969 C410 1.591 . S
C1974 C982 1.396 . S
C1999 C994 1.454 . S
C2004 C158 1.578 . S
C2029 C242 1.601 . S
C2034 C826 1.478 . S
C2059 C910 1.590 . S
C2064 C56 1.724 . S
