# Generated by pormake.
# Topology toc-e, (7)-cn, num edge types: 1
# Building blocks:
#     Node 0, Type 0, BuildingBlock: NUHQUE_clean_sbu_2, # of connection points: 7
#     Node 1, Type 0, BuildingBlock: NUHQUE_clean_sbu_2, # of connection points: 7
#     Node 2, Type 0, BuildingBlock: NUHQUE_clean_sbu_2, # of connection points: 7
#     Node 3, Type 0, BuildingBlock: NUHQUE_clean_sbu_2, # of connection points: 7
#     Node 4, Type 0, BuildingBlock: NUHQUE_clean_sbu_2, # of connection points: 7
#     Node 5, Type 0, BuildingBlock: NUHQUE_clean_sbu_2, # of connection points: 7
#     Node 6, Type 0, BuildingBlock: NUHQUE_clean_sbu_2, # of connection points: 7
#     Node 7, Type 0, BuildingBlock: NUHQUE_clean_sbu_2, # of connection points: 7
#     Node 8, Type 0, BuildingBlock: NUHQUE_clean_sbu_2, # of connection points: 7
#     Node 9, Type 0, BuildingBlock: NUHQUE_clean_sbu_2, # of connection points: 7
#     Node 10, Type 0, BuildingBlock: NUHQUE_clean_sbu_2, # of connection points: 7
#     Node 11, Type 0, BuildingBlock: NUHQUE_clean_sbu_2, # of connection points: 7
#     Node 12, Type 0, BuildingBlock: NUHQUE_clean_sbu_2, # of connection points: 7
#     Node 13, Type 0, BuildingBlock: NUHQUE_clean_sbu_2, # of connection points: 7
#     Node 14, Type 0, BuildingBlock: NUHQUE_clean_sbu_2, # of connection points: 7
#     Node 15, Type 0, BuildingBlock: NUHQUE_clean_sbu_2, # of connection points: 7
#     Node 16, Type 0, BuildingBlock: NUHQUE_clean_sbu_2, # of connection points: 7
#     Node 17, Type 0, BuildingBlock: NUHQUE_clean_sbu_2, # of connection points: 7
#     Node 18, Type 0, BuildingBlock: NUHQUE_clean_sbu_2, # of connection points: 7
#     Node 19, Type 0, BuildingBlock: NUHQUE_clean_sbu_2, # of connection points: 7
#     Node 20, Type 0, BuildingBlock: NUHQUE_clean_sbu_2, # of connection points: 7
#     Node 21, Type 0, BuildingBlock: NUHQUE_clean_sbu_2, # of connection points: 7
#     Node 22, Type 0, BuildingBlock: NUHQUE_clean_sbu_2, # of connection points: 7
#     Node 23, Type 0, BuildingBlock: NUHQUE_clean_sbu_2, # of connection points: 7
#     Edge 24, Type (0, 0), BuildingBlock: ZUJKAS_clean_linker_0, # of connection points: 2
#     Edge 25, Type (0, 0), BuildingBlock: ZUJKAS_clean_linker_0, # of connection points: 2
#     Edge 26, Type (0, 0), BuildingBlock: ZUJKAS_clean_linker_0, # of connection points: 2
#     Edge 27, Type (0, 0), BuildingBlock: ZUJKAS_clean_linker_0, # of connection points: 2
#     Edge 28, Type (0, 0), BuildingBlock: ZUJKAS_clean_linker_0, # of connection points: 2
#     Edge 29, Type (0, 0), BuildingBlock: ZUJKAS_clean_linker_0, # of connection points: 2
#     Edge 30, Type (0, 0), BuildingBlock: ZUJKAS_clean_linker_0, # of connection points: 2
#     Edge 31, Type (0, 0), BuildingBlock: ZUJKAS_clean_linker_0, # of connection points: 2
#     Edge 32, Type (0, 0), BuildingBlock: ZUJKAS_clean_linker_0, # of connection points: 2
#     Edge 33, Type (0, 0), BuildingBlock: ZUJKAS_clean_linker_0, # of connection points: 2
#     Edge 34, Type (0, 0), BuildingBlock: ZUJKAS_clean_linker_0, # of connection points: 2
#     Edge 35, Type (0, 0), BuildingBlock: ZUJKAS_clean_linker_0, # of connection points: 2
#     Edge 36, Type (0, 0), BuildingBlock: ZUJKAS_clean_linker_0, # of connection points: 2
#     Edge 37, Type (0, 0), BuildingBlock: ZUJKAS_clean_linker_0, # of connection points: 2
#     Edge 38, Type (0, 0), BuildingBlock: ZUJKAS_clean_linker_0, # of connection points: 2
#     Edge 39, Type (0, 0), BuildingBlock: ZUJKAS_clean_linker_0, # of connection points: 2
#     Edge 40, Type (0, 0), BuildingBlock: ZUJKAS_clean_linker_0, # of connection points: 2
#     Edge 41, Type (0, 0), BuildingBlock: ZUJKAS_clean_linker_0, # of connection points: 2
#     Edge 42, Type (0, 0), BuildingBlock: ZUJKAS_clean_linker_0, # of connection points: 2
#     Edge 43, Type (0, 0), BuildingBlock: ZUJKAS_clean_linker_0, # of connection points: 2
#     Edge 44, Type (0, 0), BuildingBlock: ZUJKAS_clean_linker_0, # of connection points: 2
#     Edge 45, Type (0, 0), BuildingBlock: ZUJKAS_clean_linker_0, # of connection points: 2
#     Edge 46, Type (0, 0), BuildingBlock: ZUJKAS_clean_linker_0, # of connection points: 2
#     Edge 47, Type (0, 0), BuildingBlock: ZUJKAS_clean_linker_0, # of connection points: 2
#     Edge 48, Type (0, 0), BuildingBlock: ZUJKAS_clean_linker_0, # of connection points: 2
#     Edge 49, Type (0, 0), BuildingBlock: ZUJKAS_clean_linker_0, # of connection points: 2
#     Edge 50, Type (0, 0), BuildingBlock: ZUJKAS_clean_linker_0, # of connection points: 2
#     Edge 51, Type (0, 0), BuildingBlock: ZUJKAS_clean_linker_0, # of connection points: 2
#     Edge 52, Type (0, 0), BuildingBlock: ZUJKAS_clean_linker_0, # of connection points: 2
#     Edge 53, Type (0, 0), BuildingBlock: ZUJKAS_clean_linker_0, # of connection points: 2
#     Edge 54, Type (0, 0), BuildingBlock: ZUJKAS_clean_linker_0, # of connection points: 2
#     Edge 55, Type (0, 0), BuildingBlock: ZUJKAS_clean_linker_0, # of connection points: 2
#     Edge 56, Type (0, 0), BuildingBlock: ZUJKAS_clean_linker_0, # of connection points: 2
#     Edge 57, Type (0, 0), BuildingBlock: ZUJKAS_clean_linker_0, # of connection points: 2
#     Edge 58, Type (0, 0), BuildingBlock: ZUJKAS_clean_linker_0, # of connection points: 2
#     Edge 59, Type (0, 0), BuildingBlock: ZUJKAS_clean_linker_0, # of connection points: 2
#     Edge 60, Type (0, 0), BuildingBlock: ZUJKAS_clean_linker_0, # of connection points: 2
#     Edge 61, Type (0, 0), BuildingBlock: ZUJKAS_clean_linker_0, # of connection points: 2
#     Edge 62, Type (0, 0), BuildingBlock: ZUJKAS_clean_linker_0, # of connection points: 2
#     Edge 63, Type (0, 0), BuildingBlock: ZUJKAS_clean_linker_0, # of connection points: 2
#     Edge 64, Type (0, 0), BuildingBlock: ZUJKAS_clean_linker_0, # of connection points: 2
#     Edge 65, Type (0, 0), BuildingBlock: ZUJKAS_clean_linker_0, # of connection points: 2
#     Edge 66, Type (0, 0), BuildingBlock: ZUJKAS_clean_linker_0, # of connection points: 2
#     Edge 67, Type (0, 0), BuildingBlock: ZUJKAS_clean_linker_0, # of connection points: 2
#     Edge 68, Type (0, 0), BuildingBlock: ZUJKAS_clean_linker_0, # of connection points: 2
#     Edge 69, Type (0, 0), BuildingBlock: ZUJKAS_clean_linker_0, # of connection points: 2
#     Edge 70, Type (0, 0), BuildingBlock: ZUJKAS_clean_linker_0, # of connection points: 2
#     Edge 71, Type (0, 0), BuildingBlock: ZUJKAS_clean_linker_0, # of connection points: 2
#     Edge 72, Type (0, 0), BuildingBlock: ZUJKAS_clean_linker_0, # of connection points: 2
#     Edge 73, Type (0, 0), BuildingBlock: ZUJKAS_clean_linker_0, # of connection points: 2
#     Edge 74, Type (0, 0), BuildingBlock: ZUJKAS_clean_linker_0, # of connection points: 2
#     Edge 75, Type (0, 0), BuildingBlock: ZUJKAS_clean_linker_0, # of connection points: 2
#     Edge 76, Type (0, 0), BuildingBlock: ZUJKAS_clean_linker_0, # of connection points: 2
#     Edge 77, Type (0, 0), BuildingBlock: ZUJKAS_clean_linker_0, # of connection points: 2
#     Edge 78, Type (0, 0), BuildingBlock: ZUJKAS_clean_linker_0, # of connection points: 2
#     Edge 79, Type (0, 0), BuildingBlock: ZUJKAS_clean_linker_0, # of connection points: 2
#     Edge 80, Type (0, 0), BuildingBlock: ZUJKAS_clean_linker_0, # of connection points: 2
#     Edge 81, Type (0, 0), BuildingBlock: ZUJKAS_clean_linker_0, # of connection points: 2
#     Edge 82, Type (0, 0), BuildingBlock: ZUJKAS_clean_linker_0, # of connection points: 2
#     Edge 83, Type (0, 0), BuildingBlock: ZUJKAS_clean_linker_0, # of connection points: 2
#     Edge 84, Type (0, 0), BuildingBlock: ZUJKAS_clean_linker_0, # of connection points: 2
#     Edge 85, Type (0, 0), BuildingBlock: ZUJKAS_clean_linker_0, # of connection points: 2
#     Edge 86, Type (0, 0), BuildingBlock: ZUJKAS_clean_linker_0, # of connection points: 2
#     Edge 87, Type (0, 0), BuildingBlock: ZUJKAS_clean_linker_0, # of connection points: 2
#     Edge 88, Type (0, 0), BuildingBlock: ZUJKAS_clean_linker_0, # of connection points: 2
#     Edge 89, Type (0, 0), BuildingBlock: ZUJKAS_clean_linker_0, # of connection points: 2
#     Edge 90, Type (0, 0), BuildingBlock: ZUJKAS_clean_linker_0, # of connection points: 2
#     Edge 91, Type (0, 0), BuildingBlock: ZUJKAS_clean_linker_0, # of connection points: 2
#     Edge 92, Type (0, 0), BuildingBlock: ZUJKAS_clean_linker_0, # of connection points: 2
#     Edge 93, Type (0, 0), BuildingBlock: ZUJKAS_clean_linker_0, # of connection points: 2
#     Edge 94, Type (0, 0), BuildingBlock: ZUJKAS_clean_linker_0, # of connection points: 2
#     Edge 95, Type (0, 0), BuildingBlock: ZUJKAS_clean_linker_0, # of connection points: 2
#     Edge 96, Type (0, 0), BuildingBlock: ZUJKAS_clean_linker_0, # of connection points: 2
#     Edge 97, Type (0, 0), BuildingBlock: ZUJKAS_clean_linker_0, # of connection points: 2
#     Edge 98, Type (0, 0), BuildingBlock: ZUJKAS_clean_linker_0, # of connection points: 2
#     Edge 99, Type (0, 0), BuildingBlock: ZUJKAS_clean_linker_0, # of connection points: 2
#     Edge 100, Type (0, 0), BuildingBlock: ZUJKAS_clean_linker_0, # of connection points: 2
#     Edge 101, Type (0, 0), BuildingBlock: ZUJKAS_clean_linker_0, # of connection points: 2
#     Edge 102, Type (0, 0), BuildingBlock: ZUJKAS_clean_linker_0, # of connection points: 2
#     Edge 103, Type (0, 0), BuildingBlock: ZUJKAS_clean_linker_0, # of connection points: 2
#     Edge 104, Type (0, 0), BuildingBlock: ZUJKAS_clean_linker_0, # of connection points: 2
#     Edge 105, Type (0, 0), BuildingBlock: ZUJKAS_clean_linker_0, # of connection points: 2
#     Edge 106, Type (0, 0), BuildingBlock: ZUJKAS_clean_linker_0, # of connection points: 2
#     Edge 107, Type (0, 0), BuildingBlock: ZUJKAS_clean_linker_0, # of connection points: 2
# Relax obj value: 0.236
# Max RMSD: 0.246
# Mean RMSD: 0.246
data_MOF--net-toc-e--node1-NUHQUE_clean_sbu_2--edge1-ZUJKAS_clean_linker_0
_symmetry_space_group_name_H-M    P1
_symmetry_Int_Tables_number       1
_symmetry_cell_setting            triclinic
loop_
_symmetry_equiv_pos_as_xyz
'x, y, z'
_cell_length_a     66.724229
_cell_length_b     66.7222
_cell_length_c     67.023899
_cell_angle_alpha  90.193493
_cell_angle_beta   90.187075
_cell_angle_gamma 89.93522
loop_
_atom_site_label
_atom_site_type_symbol
_atom_site_fract_x
_atom_site_fract_y
_atom_site_fract_z
_atom_type_partial_charge
O0 O 0.17106 0.35075 0.67975 0.0
Tb1 Tb 0.15189 0.34149 0.65504 0.0
Eu2 Eu 0.13007 0.35145 0.59189 0.0
C3 C 0.18266 0.36668 0.67977 0.0
O4 O 0.18163 0.3795 0.66497 0.0
C5 C 0.16625 0.329 0.61263 0.0
O6 O 0.10607 0.33705 0.57337 0.0
C7 C 0.14067 0.38368 0.57339 0.0
C8 C 0.08748 0.33523 0.57939 0.0
O9 O 0.08344 0.33517 0.59853 0.0
C10 C 0.1153 0.36086 0.63906 0.0
C11 C 0.1498 0.4035 0.57552 0.0
C12 C 0.16208 0.40861 0.59185 0.0
C13 C 0.16946 0.42829 0.59377 0.0
C14 C 0.16424 0.44253 0.5792 0.0
C15 C 0.15174 0.43765 0.5631 0.0
C16 C 0.14468 0.41799 0.5613 0.0
O17 O 0.16416 0.34439 0.62492 0.0
O18 O 0.15509 0.32861 0.59626 0.0
O19 O 0.15807 0.30992 0.66107 0.0
O20 O 0.12808 0.31979 0.65941 0.0
C21 C 0.13944 0.30443 0.66276 0.0
O22 O 0.12796 0.35745 0.62455 0.0
O23 O 0.12364 0.3584 0.65662 0.0
O24 O 0.12308 0.38144 0.58185 0.0
O25 O 0.15232 0.36781 0.57471 0.0
H26 H 0.16547 0.39749 0.60312 0.0
H27 H 0.16952 0.45781 0.58065 0.0
H28 H 0.13476 0.41402 0.54906 0.0
O29 O 0.64784 0.67123 0.17254 0.0
Tb30 Tb 0.66718 0.65438 0.15257 0.0
Eu31 Eu 0.66389 0.62938 0.08865 0.0
C32 C 0.64602 0.69064 0.16991 0.0
O33 O 0.65348 0.69853 0.15365 0.0
C34 C 0.68479 0.666 0.11081 0.0
O35 O 0.67793 0.60694 0.06757 0.0
C36 C 0.63089 0.6408 0.07175 0.0
C37 C 0.68199 0.5883 0.07236 0.0
O38 O 0.68329 0.58331 0.09124 0.0
C39 C 0.6522 0.61576 0.1362 0.0
C40 C 0.61135 0.65063 0.07386 0.0
C41 C 0.60567 0.66072 0.09144 0.0
C42 C 0.58594 0.66808 0.09347 0.0
C43 C 0.57217 0.66481 0.07785 0.0
C44 C 0.57783 0.65489 0.06041 0.0
C45 C 0.59747 0.64803 0.05832 0.0
O46 O 0.66821 0.66477 0.12151 0.0
O47 O 0.68632 0.65452 0.09469 0.0
O48 O 0.69251 0.66716 0.16884 0.0
O49 O 0.69294 0.63629 0.16116 0.0
C50 C 0.70255 0.65052 0.17034 0.0
O51 O 0.65904 0.62691 0.12163 0.0
O52 O 0.65264 0.62501 0.15346 0.0
O53 O 0.63298 0.62342 0.08073 0.0
O54 O 0.64714 0.65196 0.07205 0.0
H55 H 0.61636 0.66236 0.10353 0.0
H56 H 0.55664 0.66934 0.0794 0.0
H57 H 0.60173 0.63997 0.04489 0.0
O58 O 0.33774 0.14056 0.66541 0.0
Tb59 Tb 0.35572 0.15961 0.646 0.0
Eu60 Eu 0.37101 0.16741 0.5947 0.0
C61 C 0.31819 0.13846 0.66357 0.0
O62 O 0.30927 0.14428 0.64711 0.0
C63 C 0.33127 0.18613 0.61492 0.0
O64 O 0.39285 0.1762 0.5704 0.0
C65 C 0.36155 0.13089 0.58514 0.0
C66 C 0.41202 0.17921 0.57419 0.0
O67 O 0.41797 0.18181 0.59265 0.0
C68 C 0.39806 0.15543 0.63085 0.0
C69 C 0.35155 0.11123 0.58336 0.0
C70 C 0.34091 0.10351 0.59967 0.0
C71 C 0.33427 0.08357 0.59955 0.0
C72 C 0.33804 0.07163 0.58268 0.0
C73 C 0.34779 0.07916 0.56583 0.0
C74 C 0.35488 0.09905 0.56636 0.0
O75 O 0.331 0.17053 0.62706 0.0
O76 O 0.34611 0.18913 0.60228 0.0
O77 O 0.36346 0.16886 0.67605 0.0
O78 O 0.3651 0.19051 0.65289 0.0
C79 C 0.36789 0.18725 0.67187 0.0
O80 O 0.39351 0.17069 0.61951 0.0
O81 O 0.38357 0.14429 0.63804 0.0
O82 O 0.36907 0.13609 0.6025 0.0
O83 O 0.35748 0.14601 0.57327 0.0
H84 H 0.33855 0.11281 0.61274 0.0
H85 H 0.33419 0.05586 0.58291 0.0
H86 H 0.36317 0.10494 0.5538 0.0
O87 O 0.86974 0.83304 0.16324 0.0
Tb88 Tb 0.85199 0.85317 0.14442 0.0
Eu89 Eu 0.84206 0.87364 0.09651 0.0
C90 C 0.86143 0.81554 0.16708 0.0
O91 O 0.84486 0.811 0.15747 0.0
C92 C 0.82579 0.83191 0.1125 0.0
O93 O 0.83292 0.8965 0.07349 0.0
C94 C 0.87818 0.86377 0.08591 0.0
C95 C 0.83054 0.91544 0.07856 0.0
O96 O 0.82884 0.9202 0.09748 0.0
C97 C 0.85594 0.89724 0.13447 0.0
C98 C 0.89714 0.85253 0.08647 0.0
C99 C 0.90432 0.84446 0.10443 0.0
C100 C 0.92385 0.83681 0.10552 0.0
C101 C 0.93614 0.83723 0.08856 0.0
C102 C 0.92939 0.8455 0.07053 0.0
C103 C 0.90965 0.85297 0.06958 0.0
O104 O 0.84328 0.83101 0.12172 0.0
O105 O 0.82044 0.84847 0.10326 0.0
O106 O 0.83695 0.85214 0.17297 0.0
O107 O 0.8216 0.86534 0.14846 0.0
C108 C 0.82053 0.86072 0.16726 0.0
O109 O 0.83999 0.89342 0.12367 0.0
O110 O 0.86714 0.88216 0.14071 0.0
O111 O 0.86223 0.85629 0.07707 0.0
O112 O 0.8741 0.87547 0.1011 0.0
H113 H 0.89513 0.84504 0.11774 0.0
H114 H 0.95163 0.83246 0.08992 0.0
H115 H 0.90424 0.85981 0.05594 0.0
O116 O 0.17156 0.14376 0.83126 0.0
Tb117 Tb 0.15571 0.16322 0.85197 0.0
Eu118 Eu 0.13203 0.15874 0.91513 0.0
C119 C 0.1905 0.13934 0.83451 0.0
O120 O 0.19838 0.14383 0.85193 0.0
C121 C 0.16863 0.17996 0.8937 0.0
O122 O 0.10799 0.1745 0.93253 0.0
C123 C 0.14196 0.12707 0.93505 0.0
C124 C 0.08928 0.17474 0.92646 0.0
O125 O 0.08533 0.17175 0.90752 0.0
C126 C 0.11738 0.14878 0.86833 0.0
C127 C 0.15088 0.10709 0.93315 0.0
C128 C 0.16204 0.10145 0.91628 0.0
C129 C 0.16884 0.08158 0.9142 0.0
C130 C 0.16414 0.06765 0.92922 0.0
C131 C 0.15291 0.07308 0.94599 0.0
C132 C 0.14644 0.09295 0.94793 0.0
O133 O 0.16738 0.16355 0.88261 0.0
O134 O 0.15716 0.18121 0.90978 0.0
O135 O 0.16974 0.18746 0.83556 0.0
O136 O 0.14009 0.19132 0.84634 0.0
C137 C 0.15452 0.19959 0.83637 0.0
O138 O 0.1305 0.15135 0.88268 0.0
O139 O 0.12527 0.15091 0.85063 0.0
O140 O 0.12445 0.12935 0.92632 0.0
O141 O 0.15382 0.14273 0.9334 0.0
H142 H 0.16499 0.11238 0.90473 0.0
H143 H 0.16885 0.0522 0.92769 0.0
H144 H 0.13743 0.09734 0.96065 0.0
O145 O 0.85786 0.67072 0.3356 0.0
Tb146 Tb 0.84592 0.65336 0.36042 0.0
Eu147 Eu 0.84358 0.64486 0.41213 0.0
C148 C 0.86934 0.68666 0.3374 0.0
O149 O 0.87621 0.69184 0.35507 0.0
C150 C 0.82199 0.68152 0.39039 0.0
O151 O 0.83878 0.6233 0.43749 0.0
C152 C 0.87942 0.65825 0.41675 0.0
C153 C 0.82937 0.60611 0.43519 0.0
O154 O 0.81765 0.60331 0.41965 0.0
C155 C 0.85875 0.61448 0.38032 0.0
C156 C 0.89998 0.66612 0.41827 0.0
C157 C 0.90908 0.67284 0.40074 0.0
C158 C 0.92933 0.67759 0.40047 0.0
C159 C 0.94068 0.67634 0.418 0.0
C160 C 0.93204 0.66963 0.43585 0.0
C161 C 0.91152 0.6644 0.43592 0.0
O162 O 0.83627 0.68028 0.37674 0.0
O163 O 0.82019 0.66819 0.40483 0.0
O164 O 0.83302 0.63723 0.33547 0.0
O165 O 0.8147 0.643 0.36079 0.0
C166 C 0.81545 0.63466 0.3432 0.0
O167 O 0.84372 0.61783 0.39236 0.0
O168 O 0.86604 0.62922 0.36958 0.0
O169 O 0.86743 0.65595 0.43213 0.0
O170 O 0.87132 0.65469 0.39919 0.0
H171 H 0.90069 0.67342 0.38686 0.0
H172 H 0.95665 0.6793 0.41739 0.0
H173 H 0.90478 0.65855 0.44938 0.0
O174 O 0.34134 0.36829 0.84225 0.0
Tb175 Tb 0.35832 0.34844 0.86187 0.0
Eu176 Eu 0.37001 0.34396 0.91248 0.0
C177 C 0.32185 0.37095 0.84366 0.0
O178 O 0.31252 0.36539 0.85994 0.0
C179 C 0.33541 0.32006 0.89156 0.0
O180 O 0.39193 0.3424 0.93853 0.0
C181 C 0.34899 0.37652 0.91598 0.0
C182 C 0.40958 0.33364 0.93664 0.0
O183 O 0.41302 0.32249 0.92083 0.0
C184 C 0.40024 0.35982 0.8795 0.0
C185 C 0.34964 0.39847 0.91925 0.0
C186 C 0.34239 0.4107 0.9038 0.0
C187 C 0.34217 0.43162 0.90575 0.0
C188 C 0.34954 0.44023 0.92342 0.0
C189 C 0.35589 0.42841 0.93941 0.0
C190 C 0.35592 0.40738 0.93741 0.0
O191 O 0.33399 0.33643 0.88056 0.0
O192 O 0.35071 0.31747 0.90383 0.0
O193 O 0.35869 0.33757 0.83147 0.0
O194 O 0.37266 0.31977 0.85378 0.0
C195 C 0.36848 0.32117 0.83479 0.0
O196 O 0.39727 0.34645 0.89337 0.0
O197 O 0.38531 0.36633 0.86829 0.0
O198 O 0.35269 0.36448 0.93108 0.0
O199 O 0.35595 0.36986 0.89882 0.0
H200 H 0.3366 0.40379 0.89031 0.0
H201 H 0.35012 0.45639 0.92504 0.0
H202 H 0.36071 0.39816 0.94983 0.0
O203 O 0.6498 0.84434 0.32938 0.0
Tb204 Tb 0.66673 0.86181 0.35093 0.0
Eu205 Eu 0.66065 0.88436 0.41514 0.0
C206 C 0.64316 0.82633 0.33368 0.0
O207 O 0.64441 0.81991 0.35215 0.0
C208 C 0.68239 0.84836 0.39312 0.0
O209 O 0.67618 0.90746 0.43405 0.0
C210 C 0.62826 0.87348 0.43331 0.0
C211 C 0.67922 0.92565 0.42748 0.0
O212 O 0.67709 0.92931 0.40839 0.0
C213 C 0.64959 0.89951 0.36766 0.0
C214 C 0.60885 0.86351 0.43095 0.0
C215 C 0.603 0.85449 0.41285 0.0
C216 C 0.58381 0.84597 0.41105 0.0
C217 C 0.57055 0.84691 0.42725 0.0
C218 C 0.57617 0.8563 0.44504 0.0
C219 C 0.59538 0.86441 0.44695 0.0
O220 O 0.66644 0.85038 0.38155 0.0
O221 O 0.68299 0.85909 0.40977 0.0
O222 O 0.69443 0.85136 0.33712 0.0
O223 O 0.69091 0.88229 0.34357 0.0
C224 C 0.70266 0.86896 0.3357 0.0
O225 O 0.655 0.88767 0.38235 0.0
O226 O 0.65105 0.8907 0.35022 0.0
O227 O 0.63021 0.89084 0.42433 0.0
O228 O 0.64448 0.86226 0.43268 0.0
H229 H 0.61311 0.85445 0.40022 0.0
H230 H 0.55543 0.84108 0.42575 0.0
H231 H 0.59968 0.87179 0.46076 0.0
O232 O 0.6777 0.17086 0.36124 0.0
Tb233 Tb 0.65812 0.15237 0.34278 0.0
Eu234 Eu 0.59581 0.13593 0.34721 0.0
C235 C 0.67739 0.19018 0.35755 0.0
O236 O 0.66385 0.19691 0.34503 0.0
C237 C 0.61843 0.16586 0.32064 0.0
O238 O 0.58398 0.10465 0.34861 0.0
C239 C 0.58106 0.15827 0.37541 0.0
C240 C 0.57323 0.09666 0.33427 0.0
O241 O 0.56996 0.10688 0.31786 0.0
C242 C 0.64084 0.11614 0.35982 0.0
C243 C 0.58034 0.15854 0.39748 0.0
C244 C 0.59645 0.16708 0.40813 0.0
C245 C 0.59656 0.16759 0.42897 0.0
C246 C 0.5801 0.15973 0.43923 0.0
C247 C 0.56348 0.15182 0.42903 0.0
C248 C 0.56368 0.1512 0.40803 0.0
O249 O 0.62846 0.16646 0.33784 0.0
O250 O 0.6024 0.1541 0.31961 0.0
O251 O 0.67703 0.1623 0.3184 0.0
O252 O 0.66383 0.13337 0.31694 0.0
C253 C 0.67532 0.14605 0.30784 0.0
O254 O 0.62755 0.12946 0.35439 0.0
O255 O 0.65886 0.12358 0.3588 0.0
O256 O 0.57013 0.14513 0.36557 0.0
O257 O 0.59894 0.16049 0.3678 0.0
H258 H 0.60899 0.17352 0.40019 0.0
H259 H 0.58005 0.16006 0.45538 0.0
H260 H 0.55093 0.14516 0.39998 0.0
O261 O 0.84481 0.17323 0.86482 0.0
Tb262 Tb 0.86013 0.15176 0.84537 0.0
Eu263 Eu 0.87512 0.09725 0.85122 0.0
C264 C 0.82532 0.17141 0.86766 0.0
O265 O 0.81656 0.15469 0.86206 0.0
C266 C 0.84224 0.11591 0.82482 0.0
O267 O 0.89917 0.07646 0.83992 0.0
C268 C 0.85283 0.07878 0.87674 0.0
C269 C 0.91784 0.08264 0.83889 0.0
O270 O 0.92165 0.10181 0.84096 0.0
C271 C 0.90137 0.13627 0.86475 0.0
C272 C 0.85027 0.08124 0.89844 0.0
C273 C 0.84474 0.09999 0.90636 0.0
C274 C 0.8424 0.10244 0.92686 0.0
C275 C 0.84612 0.08637 0.93968 0.0
C276 C 0.85237 0.06773 0.93222 0.0
C277 C 0.85414 0.06516 0.91143 0.0
O278 O 0.84048 0.12635 0.84133 0.0
O279 O 0.85791 0.10413 0.82297 0.0
O280 O 0.84911 0.17414 0.82462 0.0
O281 O 0.87305 0.1553 0.81563 0.0
C282 C 0.86136 0.1699 0.81026 0.0
O283 O 0.89288 0.11928 0.86995 0.0
O284 O 0.8915 0.15057 0.85527 0.0
O285 O 0.87016 0.07164 0.8708 0.0
O286 O 0.84637 0.09366 0.86571 0.0
H287 H 0.84227 0.11277 0.89671 0.0
H288 H 0.84423 0.08854 0.95562 0.0
H289 H 0.85888 0.05084 0.90538 0.0
O290 O 0.83738 0.34347 0.36144 0.0
Tb291 Tb 0.86039 0.36185 0.3477 0.0
Eu292 Eu 0.91304 0.37571 0.34459 0.0
C293 C 0.84061 0.32723 0.37202 0.0
O294 O 0.85891 0.32247 0.37751 0.0
C295 C 0.89337 0.33624 0.32605 0.0
O296 O 0.93859 0.3972 0.33881 0.0
C297 C 0.91888 0.36482 0.38116 0.0
C298 C 0.93561 0.41608 0.33388 0.0
O299 O 0.91786 0.42178 0.32761 0.0
C300 C 0.87682 0.40325 0.35458 0.0
C301 C 0.91812 0.35325 0.39973 0.0
C302 C 0.90008 0.3447 0.40627 0.0
C303 C 0.89873 0.33676 0.42554 0.0
C304 C 0.91549 0.33759 0.43822 0.0
C305 C 0.93358 0.34621 0.43203 0.0
C306 C 0.93484 0.3538 0.41255 0.0
O307 O 0.88064 0.33683 0.34112 0.0
O308 O 0.90627 0.35083 0.32288 0.0
O309 O 0.83384 0.37498 0.33451 0.0
O310 O 0.85835 0.36797 0.31549 0.0
C311 C 0.84031 0.37544 0.31634 0.0
O312 O 0.88906 0.39881 0.34003 0.0
O313 O 0.86814 0.38876 0.36456 0.0
O314 O 0.93199 0.36084 0.36708 0.0
O315 O 0.90244 0.37351 0.37487 0.0
H316 H 0.88689 0.34513 0.39682 0.0
H317 H 0.9139 0.33284 0.45359 0.0
H318 H 0.94855 0.36088 0.40758 0.0
O319 O 0.67299 0.33855 0.86212 0.0
Tb320 Tb 0.65427 0.3601 0.84585 0.0
Eu321 Eu 0.64292 0.41008 0.83951 0.0
C322 C 0.69236 0.34107 0.86522 0.0
O323 O 0.70048 0.35852 0.86129 0.0
C324 C 0.67904 0.38955 0.81732 0.0
O325 O 0.6206 0.43566 0.83652 0.0
C326 C 0.66223 0.41437 0.87293 0.0
C327 C 0.60247 0.43284 0.82907 0.0
O328 O 0.59837 0.41617 0.81947 0.0
C329 C 0.61306 0.37729 0.85467 0.0
C330 C 0.66165 0.41665 0.89488 0.0
C331 C 0.66959 0.40085 0.90625 0.0
C332 C 0.6717 0.40271 0.92687 0.0
C333 C 0.66518 0.4202 0.93639 0.0
C334 C 0.6569 0.43614 0.92557 0.0
C335 C 0.65546 0.4345 0.90459 0.0
O336 O 0.67937 0.37727 0.83288 0.0
O337 O 0.66435 0.40263 0.81472 0.0
O338 O 0.64339 0.33164 0.83445 0.0
O339 O 0.64258 0.3571 0.81536 0.0
C340 C 0.63831 0.33816 0.81697 0.0
O341 O 0.61686 0.38901 0.83965 0.0
O342 O 0.62811 0.36861 0.864 0.0
O343 O 0.65704 0.39686 0.8655 0.0
O344 O 0.65736 0.42961 0.86148 0.0
H345 H 0.67477 0.38725 0.89898 0.0
H346 H 0.66676 0.42145 0.95247 0.0
H347 H 0.64968 0.44697 0.896 0.0
O348 O 0.67478 0.33949 0.14993 0.0
Tb349 Tb 0.65131 0.35959 0.16083 0.0
Eu350 Eu 0.5993 0.37528 0.16589 0.0
C351 C 0.67445 0.32758 0.13424 0.0
O352 O 0.65943 0.32833 0.12157 0.0
C353 C 0.61861 0.33453 0.18306 0.0
O354 O 0.57705 0.39933 0.17448 0.0
C355 C 0.58951 0.36653 0.12933 0.0
C356 C 0.57794 0.41545 0.16318 0.0
O357 O 0.59172 0.41599 0.14925 0.0
C358 C 0.63605 0.40191 0.15443 0.0
C359 C 0.58898 0.35481 0.1106 0.0
C360 C 0.60658 0.34565 0.1037 0.0
C361 C 0.60796 0.33897 0.08395 0.0
C362 C 0.59128 0.34103 0.07127 0.0
C363 C 0.57295 0.34892 0.07801 0.0
C364 C 0.57204 0.35602 0.0979 0.0
O365 O 0.63058 0.33492 0.16737 0.0
O366 O 0.60634 0.34962 0.1869 0.0
O367 O 0.67793 0.37181 0.17473 0.0
O368 O 0.6523 0.36665 0.19285 0.0
C369 C 0.67067 0.37326 0.19256 0.0
O370 O 0.62412 0.39787 0.1694 0.0
O371 O 0.64404 0.38697 0.14419 0.0
O372 O 0.60677 0.37439 0.13465 0.0
O373 O 0.57771 0.36225 0.14443 0.0
H374 H 0.61964 0.34489 0.11333 0.0
H375 H 0.59307 0.33751 0.05561 0.0
H376 H 0.5585 0.36306 0.1034 0.0
O377 O 0.66903 0.16845 0.6431 0.0
Tb378 Tb 0.65371 0.14739 0.66273 0.0
Eu379 Eu 0.63842 0.09634 0.66551 0.0
C380 C 0.68842 0.16665 0.6398 0.0
O381 O 0.69748 0.15003 0.64519 0.0
C382 C 0.67624 0.11387 0.68607 0.0
O383 O 0.61567 0.07152 0.66835 0.0
C384 C 0.65252 0.09345 0.62998 0.0
C385 C 0.59883 0.07343 0.67835 0.0
O386 O 0.59628 0.08884 0.69033 0.0
C387 C 0.61049 0.13241 0.65416 0.0
C388 C 0.66059 0.09183 0.60966 0.0
C389 C 0.66928 0.10874 0.6008 0.0
C390 C 0.67486 0.10828 0.58072 0.0
C391 C 0.67154 0.09089 0.56945 0.0
C392 C 0.66233 0.07407 0.57786 0.0
C393 C 0.65734 0.07437 0.5982 0.0
O394 O 0.67627 0.12459 0.66959 0.0
O395 O 0.66168 0.10103 0.68929 0.0
O396 O 0.66083 0.17265 0.68187 0.0
O397 O 0.63687 0.1535 0.69019 0.0
C398 C 0.64705 0.16943 0.69503 0.0
O399 O 0.61397 0.11907 0.66805 0.0
O400 O 0.62519 0.14331 0.6467 0.0
O401 O 0.65011 0.07768 0.64144 0.0
O402 O 0.64821 0.11084 0.63819 0.0
H403 H 0.67111 0.1225 0.60928 0.0
H404 H 0.6752 0.09081 0.55369 0.0
H405 H 0.64985 0.06156 0.60471 0.0
O406 O 0.83509 0.1674 0.14628 0.0
Tb407 Tb 0.85979 0.15222 0.16148 0.0
Eu408 Eu 0.91262 0.14007 0.15764 0.0
C409 C 0.83716 0.18522 0.13818 0.0
O410 O 0.8552 0.19291 0.13655 0.0
C411 C 0.89386 0.17333 0.18347 0.0
O412 O 0.93592 0.11743 0.16688 0.0
C413 C 0.92522 0.16311 0.12925 0.0
C414 C 0.93046 0.09902 0.17135 0.0
O415 O 0.91139 0.09467 0.17321 0.0
C416 C 0.87504 0.11157 0.14076 0.0
C417 C 0.92662 0.16379 0.10724 0.0
C418 C 0.91136 0.17374 0.09668 0.0
C419 C 0.91158 0.1746 0.0759 0.0
C420 C 0.92743 0.16565 0.06554 0.0
C421 C 0.94311 0.15604 0.07565 0.0
C422 C 0.94282 0.15526 0.09665 0.0
O423 O 0.88243 0.17487 0.16752 0.0
O424 O 0.90586 0.15784 0.1853 0.0
O425 O 0.8393 0.15814 0.18574 0.0
O426 O 0.85851 0.13278 0.18773 0.0
C427 C 0.84458 0.14305 0.19668 0.0
O428 O 0.89394 0.1152 0.14499 0.0
O429 O 0.86029 0.12454 0.14369 0.0
O430 O 0.93723 0.151 0.13912 0.0
O431 O 0.90693 0.16366 0.1365 0.0
H432 H 0.89908 0.18078 0.10465 0.0
H433 H 0.92755 0.16609 0.04937 0.0
H434 H 0.95497 0.14797 0.10456 0.0
O435 O 0.84247 0.32945 0.648 0.0
Tb436 Tb 0.86 0.35233 0.66346 0.0
Eu437 Eu 0.88113 0.41668 0.65489 0.0
C438 C 0.82368 0.33305 0.64312 0.0
O439 O 0.81664 0.3513 0.64548 0.0
C440 C 0.84543 0.395 0.67725 0.0
O441 O 0.90409 0.43622 0.66977 0.0
C442 C 0.87008 0.43423 0.62225 0.0
C443 C 0.92297 0.43137 0.66779 0.0
O444 O 0.92739 0.41325 0.66163 0.0
C445 C 0.89773 0.36887 0.64641 0.0
C446 C 0.86013 0.43141 0.60294 0.0
C447 C 0.85064 0.41329 0.59782 0.0
C448 C 0.84238 0.41077 0.57864 0.0
C449 C 0.84393 0.4265 0.56481 0.0
C450 C 0.85338 0.44456 0.56975 0.0
C451 C 0.86146 0.44692 0.58893 0.0
O452 O 0.84762 0.38273 0.66184 0.0
O453 O 0.85594 0.41182 0.67723 0.0
O454 O 0.85026 0.34039 0.6921 0.0
O455 O 0.88072 0.34832 0.68822 0.0
C456 C 0.86778 0.34104 0.7006 0.0
O457 O 0.88513 0.38364 0.64995 0.0
O458 O 0.88937 0.35125 0.64871 0.0
O459 O 0.88754 0.42534 0.62445 0.0
O460 O 0.85886 0.43383 0.63835 0.0
H461 H 0.85011 0.40116 0.60853 0.0
H462 H 0.83877 0.42432 0.54961 0.0
H463 H 0.86893 0.4608 0.59295 0.0
O464 O 0.36762 0.6698 0.16748 0.0
Tb465 Tb 0.35251 0.64852 0.14713 0.0
Eu466 Eu 0.34798 0.59614 0.13455 0.0
C467 C 0.36583 0.66883 0.18711 0.0
O468 O 0.3576 0.6529 0.195 0.0
C469 C 0.32517 0.61674 0.16873 0.0
O470 O 0.34869 0.57118 0.1117 0.0
C471 C 0.38038 0.59494 0.1558 0.0
C472 C 0.33758 0.5716 0.09541 0.0
O473 O 0.32346 0.5852 0.09362 0.0
C474 C 0.36021 0.63086 0.10539 0.0
C475 C 0.40229 0.59269 0.1568 0.0
C476 C 0.4132 0.6093 0.16362 0.0
C477 C 0.43381 0.608 0.1665 0.0
C478 C 0.44379 0.59007 0.16216 0.0
C479 C 0.43331 0.57329 0.15504 0.0
C480 C 0.41234 0.57451 0.15264 0.0
O481 O 0.34211 0.62703 0.16969 0.0
O482 O 0.32222 0.6035 0.15439 0.0
O483 O 0.3407 0.67596 0.1345 0.0
O484 O 0.32055 0.65194 0.13992 0.0
C485 C 0.32226 0.67008 0.13312 0.0
O486 O 0.34621 0.61779 0.10929 0.0
O487 O 0.36946 0.64028 0.12011 0.0
O488 O 0.36906 0.57905 0.15275 0.0
O489 O 0.37351 0.61137 0.14743 0.0
H490 H 0.40559 0.62328 0.16703 0.0
H491 H 0.45991 0.58925 0.16426 0.0
H492 H 0.40402 0.56152 0.14753 0.0
O493 O 0.36868 0.83813 0.33875 0.0
Tb494 Tb 0.3487 0.85658 0.35721 0.0
Eu495 Eu 0.35489 0.91235 0.36632 0.0
C496 C 0.36874 0.83939 0.31907 0.0
O497 O 0.36028 0.85491 0.3105 0.0
C498 C 0.3249 0.89085 0.33797 0.0
O499 O 0.35103 0.93621 0.39015 0.0
C500 C 0.38047 0.92368 0.3398 0.0
C501 C 0.34595 0.93157 0.40857 0.0
O502 O 0.34012 0.91321 0.41248 0.0
C503 C 0.36733 0.8772 0.39699 0.0
C504 C 0.40257 0.92532 0.33939 0.0
C505 C 0.41384 0.90898 0.33222 0.0
C506 C 0.43475 0.909 0.33351 0.0
C507 C 0.44446 0.9257 0.34171 0.0
C508 C 0.43362 0.94236 0.3484 0.0
C509 C 0.41261 0.94228 0.34707 0.0
O510 O 0.34066 0.87931 0.3355 0.0
O511 O 0.32505 0.90434 0.35236 0.0
O512 O 0.33791 0.82638 0.36168 0.0
O513 O 0.31664 0.85013 0.36063 0.0
C514 C 0.3191 0.83093 0.36305 0.0
O515 O 0.37263 0.89378 0.38798 0.0
O516 O 0.35717 0.86275 0.38815 0.0
O517 O 0.37057 0.93651 0.35104 0.0
O518 O 0.37353 0.90529 0.34099 0.0
H519 H 0.40633 0.89598 0.326 0.0
H520 H 0.46066 0.92572 0.34307 0.0
H521 H 0.40422 0.95513 0.35242 0.0
O522 O 0.16544 0.86996 0.83562 0.0
Tb523 Tb 0.14644 0.85307 0.85633 0.0
Eu524 Eu 0.09623 0.84825 0.87278 0.0
C525 C 0.16981 0.86071 0.81871 0.0
O526 O 0.16038 0.84389 0.81479 0.0
C527 C 0.11338 0.82779 0.83467 0.0
O528 O 0.0715 0.84515 0.89563 0.0
C529 C 0.09303 0.88377 0.85829 0.0
C530 C 0.0742 0.83691 0.91328 0.0
O531 O 0.09079 0.82697 0.91697 0.0
C532 C 0.13341 0.85909 0.89985 0.0
C533 C 0.09172 0.90405 0.84986 0.0
C534 C 0.10899 0.91271 0.84169 0.0
C535 C 0.10889 0.93272 0.83565 0.0
C536 C 0.09139 0.94413 0.83782 0.0
C537 C 0.07413 0.93594 0.84643 0.0
C538 C 0.07418 0.91564 0.85202 0.0
O539 O 0.12403 0.84443 0.83393 0.0
O540 O 0.10089 0.82456 0.84946 0.0
O541 O 0.17552 0.83889 0.85666 0.0
O542 O 0.15052 0.82236 0.86747 0.0
C543 C 0.16971 0.82198 0.86401 0.0
O544 O 0.11999 0.8452 0.89627 0.0
O545 O 0.14222 0.86862 0.88502 0.0
O546 O 0.07728 0.87223 0.86081 0.0
O547 O 0.11036 0.87569 0.86291 0.0
H548 H 0.12276 0.90413 0.84061 0.0
H549 H 0.09154 0.95983 0.83367 0.0
H550 H 0.06106 0.90926 0.85907 0.0
O551 O 0.1404 0.66524 0.33275 0.0
Tb552 Tb 0.15636 0.64563 0.35382 0.0
Eu553 Eu 0.16597 0.596 0.36929 0.0
C554 C 0.14432 0.6652 0.31344 0.0
O555 O 0.15493 0.65048 0.3059 0.0
C556 C 0.1879 0.6161 0.33352 0.0
O557 O 0.17512 0.57158 0.39048 0.0
C558 C 0.13284 0.58621 0.35113 0.0
C559 C 0.18247 0.57627 0.40812 0.0
O560 O 0.18889 0.59461 0.41134 0.0
C561 C 0.14673 0.63004 0.39526 0.0
C562 C 0.11079 0.58799 0.35269 0.0
C563 C 0.10163 0.60492 0.34418 0.0
C564 C 0.08098 0.60715 0.34481 0.0
C565 C 0.06952 0.59332 0.35532 0.0
C566 C 0.07742 0.57459 0.36059 0.0
C567 C 0.09854 0.57223 0.35996 0.0
O568 O 0.17098 0.62631 0.33149 0.0
O569 O 0.19082 0.60367 0.34849 0.0
O570 O 0.18619 0.65204 0.36618 0.0
O571 O 0.16473 0.67547 0.36348 0.0
C572 C 0.18274 0.67102 0.36919 0.0
O573 O 0.16253 0.61872 0.39337 0.0
O574 O 0.13758 0.63689 0.37922 0.0
O575 O 0.14237 0.57388 0.36309 0.0
O576 O 0.14256 0.60303 0.34827 0.0
H577 H 0.11042 0.61603 0.33632 0.0
H578 H 0.0538 0.59663 0.35752 0.0
H579 H 0.10537 0.55814 0.36415 0.0
O580 O 0.33519 0.64779 0.83709 0.0
Tb581 Tb 0.35562 0.66654 0.85432 0.0
Eu582 Eu 0.41453 0.6579 0.87086 0.0
C583 C 0.33609 0.64944 0.81753 0.0
O584 O 0.35079 0.65999 0.80991 0.0
C585 C 0.39408 0.68663 0.84029 0.0
O586 O 0.43258 0.66939 0.89691 0.0
C587 C 0.43615 0.63246 0.85121 0.0
C588 C 0.42474 0.67138 0.91472 0.0
O589 O 0.40532 0.66975 0.91691 0.0
C590 C 0.37312 0.64539 0.89222 0.0
C591 C 0.43321 0.61094 0.84733 0.0
C592 C 0.41413 0.60374 0.842 0.0
C593 C 0.41102 0.58326 0.83929 0.0
C594 C 0.42679 0.56977 0.84245 0.0
C595 C 0.44578 0.57653 0.84849 0.0
C596 C 0.44897 0.5973 0.85063 0.0
O597 O 0.38332 0.67034 0.83796 0.0
O598 O 0.40882 0.6863 0.85335 0.0
O599 O 0.33503 0.69004 0.84493 0.0
O600 O 0.3498 0.69285 0.87285 0.0
C601 C 0.33688 0.70099 0.86087 0.0
O602 O 0.38802 0.63923 0.88094 0.0
O603 O 0.35716 0.65354 0.884 0.0
O604 O 0.43976 0.63719 0.86988 0.0
O605 O 0.42338 0.64469 0.84253 0.0
H606 H 0.40163 0.61397 0.84012 0.0
H607 H 0.4241 0.55387 0.84033 0.0
H608 H 0.46348 0.60284 0.85544 0.0
O609 O 0.146 0.83605 0.1668 0.0
Tb610 Tb 0.16591 0.85788 0.15305 0.0
Eu611 Eu 0.15778 0.91237 0.14205 0.0
C612 C 0.14168 0.8377 0.18591 0.0
O613 O 0.14588 0.85457 0.19516 0.0
C614 C 0.18607 0.89333 0.17266 0.0
O615 O 0.16592 0.93365 0.11745 0.0
C616 C 0.13137 0.92846 0.16533 0.0
C617 C 0.17072 0.92703 0.09959 0.0
O618 O 0.17382 0.90778 0.09688 0.0
C619 C 0.14503 0.87492 0.11314 0.0
C620 C 0.10922 0.9298 0.16473 0.0
C621 C 0.09759 0.91321 0.17051 0.0
C622 C 0.07667 0.91361 0.16875 0.0
C623 C 0.06742 0.93076 0.16095 0.0
C624 C 0.07858 0.94775 0.15608 0.0
C625 C 0.09952 0.94735 0.15808 0.0
O626 O 0.17008 0.88208 0.17419 0.0
O627 O 0.18688 0.90618 0.15794 0.0
O628 O 0.18638 0.83467 0.16311 0.0
O629 O 0.1953 0.85339 0.13924 0.0
C630 C 0.20052 0.83843 0.15049 0.0
O631 O 0.14013 0.89201 0.12169 0.0
O632 O 0.15514 0.86059 0.12229 0.0
O633 O 0.14124 0.93882 0.1519 0.0
O634 O 0.13887 0.91044 0.16814 0.0
H635 H 0.10478 0.89995 0.17647 0.0
H636 H 0.05128 0.93119 0.15906 0.0
H637 H 0.10817 0.96054 0.1543 0.0
O638 O 0.17174 0.6442 0.6644 0.0
Tb639 Tb 0.15029 0.66322 0.64869 0.0
Eu640 Eu 0.0996 0.66633 0.63274 0.0
C641 C 0.16932 0.63983 0.6834 0.0
O642 O 0.15189 0.64329 0.69177 0.0
C643 C 0.11674 0.68701 0.67063 0.0
O644 O 0.07459 0.66939 0.61011 0.0
C645 C 0.09658 0.63083 0.64728 0.0
C646 C 0.07707 0.67753 0.59241 0.0
O647 O 0.09352 0.68759 0.58864 0.0
C648 C 0.13553 0.65369 0.60578 0.0
C649 C 0.09488 0.61054 0.6556 0.0
C650 C 0.11201 0.60101 0.66328 0.0
C651 C 0.11128 0.58083 0.6688 0.0
C652 C 0.09335 0.57015 0.66653 0.0
C653 C 0.07628 0.57923 0.65834 0.0
C654 C 0.07694 0.59965 0.65335 0.0
O655 O 0.12743 0.67036 0.67099 0.0
O656 O 0.10443 0.69038 0.65565 0.0
O657 O 0.17515 0.68272 0.65609 0.0
O658 O 0.15623 0.69079 0.63183 0.0
C659 C 0.17189 0.69589 0.64231 0.0
O660 O 0.12282 0.66831 0.60894 0.0
O661 O 0.14643 0.64642 0.62058 0.0
O662 O 0.08087 0.64247 0.64466 0.0
O663 O 0.11397 0.63888 0.64297 0.0
H664 H 0.12612 0.60901 0.66428 0.0
H665 H 0.093 0.55433 0.6702 0.0
H666 H 0.06393 0.60665 0.64658 0.0
O667 O 0.33485 0.86266 0.66825 0.0
Tb668 Tb 0.35905 0.85014 0.65017 0.0
Eu669 Eu 0.41169 0.84468 0.63747 0.0
C670 C 0.33711 0.87313 0.6848 0.0
O671 O 0.355 0.87941 0.69011 0.0
C672 C 0.3908 0.82711 0.67636 0.0
O673 O 0.4363 0.83789 0.61554 0.0
C674 C 0.41917 0.88054 0.6497 0.0
C675 C 0.43315 0.82908 0.59824 0.0
O676 O 0.41612 0.81993 0.59464 0.0
C677 C 0.3766 0.85741 0.6093 0.0
C678 C 0.42085 0.90084 0.65807 0.0
C679 C 0.4035 0.90972 0.6658 0.0
C680 C 0.40343 0.92984 0.67138 0.0
C681 C 0.42097 0.94118 0.66956 0.0
C682 C 0.4385 0.93269 0.66171 0.0
C683 C 0.43854 0.91226 0.65626 0.0
O684 O 0.37858 0.84275 0.67556 0.0
O685 O 0.4035 0.82311 0.66181 0.0
O686 O 0.33378 0.83701 0.63459 0.0
O687 O 0.35771 0.8179 0.64346 0.0
C688 C 0.34043 0.81879 0.6344 0.0
O689 O 0.38841 0.84231 0.61344 0.0
O690 O 0.36797 0.8674 0.62393 0.0
O691 O 0.43261 0.86625 0.6518 0.0
O692 O 0.40203 0.87496 0.64186 0.0
H693 H 0.38966 0.90123 0.66664 0.0
H694 H 0.42066 0.95703 0.67324 0.0
H695 H 0.45179 0.90568 0.64959 0.0
H696 H 0.14252 0.47727 0.56951 0.0
H697 H 0.14201 0.50391 0.54454 0.0
H698 H 0.14803 0.45991 0.49774 0.0
H699 H 0.14957 0.43321 0.52255 0.0
H700 H 0.1805 0.50024 0.51446 0.0
H701 H 0.10398 0.50946 0.48235 0.0
H702 H 0.10814 0.50253 0.50811 0.0
H703 H 0.11247 0.48457 0.48867 0.0
C704 C 0.14354 0.47321 0.55389 0.0
C705 C 0.14669 0.45315 0.54803 0.0
C706 C 0.14296 0.48844 0.53968 0.0
C707 C 0.145 0.48377 0.51942 0.0
C708 C 0.14628 0.46368 0.51338 0.0
H709 H 0.16814 0.53793 0.40717 0.0
H710 H 0.15859 0.51721 0.43559 0.0
C711 C 0.14714 0.44845 0.52758 0.0
C712 C 0.14967 0.49965 0.50501 0.0
H713 H 0.13065 0.52583 0.46571 0.0
C714 C 0.16961 0.5061 0.50393 0.0
C715 C 0.13534 0.50704 0.49144 0.0
C716 C 0.11371 0.5007 0.49261 0.0
C717 C 0.17587 0.51919 0.48891 0.0
C718 C 0.16166 0.52625 0.47489 0.0
C719 C 0.14151 0.5203 0.47644 0.0
C720 C 0.16768 0.53892 0.45788 0.0
C721 C 0.1978 0.52457 0.48765 0.0
C722 C 0.17613 0.5579 0.46105 0.0
C723 C 0.18187 0.56967 0.44486 0.0
C724 C 0.17904 0.56274 0.42519 0.0
C725 C 0.17071 0.54364 0.42211 0.0
C726 C 0.16506 0.53185 0.43832 0.0
H727 H 0.20731 0.51431 0.49665 0.0
H728 H 0.20305 0.52414 0.47195 0.0
H729 H 0.19999 0.54001 0.49345 0.0
H730 H 0.178 0.56374 0.47604 0.0
H731 H 0.18794 0.58445 0.44777 0.0
H732 H 0.42835 0.63795 0.93665 0.0
H733 H 0.45209 0.63142 0.96384 0.0
H734 H 0.47563 0.69128 0.95765 0.0
H735 H 0.45162 0.69782 0.93047 0.0
H736 H 0.49401 0.63306 0.96058 0.0
H737 H 0.46568 0.68538 0.01835 0.0
H738 H 0.45081 0.67767 0.9971 0.0
H739 H 0.46924 0.69713 0.99455 0.0
C740 C 0.43817 0.64987 0.94159 0.0
C741 C 0.43788 0.66855 0.93204 0.0
C742 C 0.45185 0.64607 0.9569 0.0
C743 C 0.46537 0.66097 0.96294 0.0
C744 C 0.46502 0.67973 0.95344 0.0
H745 H 0.57529 0.673 0.02441 0.0
H746 H 0.54715 0.67117 1.0007 0.0
C747 C 0.45141 0.68346 0.93796 0.0
C748 C 0.48069 0.65657 0.97829 0.0
H749 H 0.49931 0.67328 0.02278 0.0
C750 C 0.49505 0.64167 0.97431 0.0
C751 C 0.48174 0.66755 0.99633 0.0
C752 C 0.46592 0.68268 1.00198 0.0
C753 C 0.51113 0.63832 0.98742 0.0
C754 C 0.51284 0.65023 0.00475 0.0
C755 C 0.49798 0.66438 0.00927 0.0
C756 C 0.53065 0.64924 0.01773 0.0
C757 C 0.52654 0.62251 0.98258 0.0
C758 C 0.53062 0.63727 0.03486 0.0
C759 C 0.54659 0.63836 0.04837 0.0
C760 C 0.56272 0.65135 0.04477 0.0
C761 C 0.56309 0.6627 0.02723 0.0
C762 C 0.54707 0.66171 0.0138 0.0
H763 H 0.5225 0.61373 0.96905 0.0
H764 H 0.54132 0.62972 0.98018 0.0
H765 H 0.52818 0.6121 0.99538 0.0
H766 H 0.51799 0.62763 0.03808 0.0
H767 H 0.54607 0.62958 0.06193 0.0
H768 H 0.31977 0.05449 0.54985 0.0
H769 H 0.32384 0.02878 0.52455 0.0
H770 H 0.38517 0.04704 0.51572 0.0
H771 H 0.38145 0.07239 0.54232 0.0
H772 H 0.33052 0.03258 0.48702 0.0
H773 H 0.39241 0.98704 0.51906 0.0
H774 H 0.37973 0.0063 0.53319 0.0
H775 H 0.39852 0.01295 0.51524 0.0
C776 C 0.33423 0.05303 0.54268 0.0
C777 C 0.35031 0.06548 0.54828 0.0
C778 C 0.33653 0.03827 0.52812 0.0
C779 C 0.35488 0.03562 0.51831 0.0
C780 C 0.37096 0.0484 0.52335 0.0
H781 H 0.36415 0.96829 0.40714 0.0
H782 H 0.36855 0.9925 0.43434 0.0
C783 C 0.36871 0.06317 0.53828 0.0
C784 C 0.35622 0.02019 0.50214 0.0
H785 H 0.38037 0.97739 0.487 0.0
C786 C 0.3415 0.02059 0.48708 0.0
C787 C 0.3704 1.00431 0.50221 0.0
C788 C 0.38606 1.00243 0.51837 0.0
C789 C 0.34038 1.00564 0.47236 0.0
C790 C 0.35463 0.99 0.47225 0.0
C791 C 0.36952 0.98951 0.4871 0.0
C792 C 0.35396 0.97425 0.45654 0.0
C793 C 0.32365 0.00633 0.45718 0.0
C794 C 0.34437 0.95589 0.46006 0.0
C795 C 0.34171 0.94203 0.44449 0.0
C796 C 0.34849 0.94634 0.42508 0.0
C797 C 0.35845 0.9646 0.42178 0.0
C798 C 0.36118 0.97838 0.43736 0.0
H799 H 0.31295 0.01876 0.4601 0.0
H800 H 0.33003 0.00829 0.44204 0.0
H801 H 0.31531 0.99194 0.45725 0.0
H802 H 0.33852 0.9525 0.47472 0.0
H803 H 0.33411 0.92806 0.44762 0.0
H804 H 0.04372 0.86435 0.91405 0.0
H805 H 0.02071 0.87163 0.94143 0.0
H806 H 0.04838 0.82507 0.97658 0.0
H807 H 0.07198 0.81834 0.94959 0.0
H808 H 0.99317 0.8502 0.95681 0.0
H809 H 0.04595 0.86765 0.01782 0.0
H810 H 0.05402 0.86542 0.99225 0.0
H811 H 0.05156 0.84344 0.00765 0.0
C812 C 0.04494 0.85567 0.92763 0.0
C813 C 0.05961 0.84065 0.92956 0.0
C814 C 0.03182 0.85994 0.94335 0.0
C815 C 0.03296 0.84919 0.96132 0.0
C816 C 0.04752 0.83405 0.96319 0.0
H817 H 0.95772 0.81862 0.05787 0.0
H818 H 0.98298 0.82303 0.032 0.0
C819 C 0.06084 0.82999 0.94759 0.0
C820 C 0.01793 0.85267 0.97741 0.0
H821 H 0.01258 0.85726 0.02797 0.0
C822 C 0.99747 0.85213 0.97232 0.0
C823 C 0.02341 0.85551 0.99769 0.0
C824 C 0.04494 0.85828 0.00411 0.0
C825 C 0.98247 0.8531 0.98695 0.0
C826 C 0.988 0.85446 0.00726 0.0
C827 C 0.00838 0.85593 0.01237 0.0
C828 C 0.97292 0.85257 0.02339 0.0
C829 C 0.96078 0.8518 0.98068 0.0
C830 C 0.95881 0.86775 0.02713 0.0
C831 C 0.94433 0.86533 0.04208 0.0
C832 C 0.94369 0.84767 0.05354 0.0
C833 C 0.95783 0.8325 0.04954 0.0
C834 C 0.97232 0.83498 0.03474 0.0
H835 H 0.95905 0.84859 0.96449 0.0
H836 H 0.953 0.83992 0.98925 0.0
H837 H 0.95322 0.86625 0.984 0.0
H838 H 0.9591 0.8815 0.0186 0.0
H839 H 0.93398 0.8775 0.04497 0.0
H840 H 0.16776 0.96771 0.10034 0.0
H841 H 0.16225 0.99016 0.07217 0.0
H842 H 0.16455 0.93995 0.03159 0.0
H843 H 0.17016 0.91722 0.05978 0.0
H844 H 0.18835 0.99399 0.03715 0.0
H845 H 0.11039 0.97024 0.0186 0.0
H846 H 0.12164 0.96506 0.04261 0.0
H847 H 0.12942 0.95123 0.02101 0.0
C848 C 0.16724 0.96141 0.08544 0.0
C849 C 0.16941 0.9407 0.08231 0.0
C850 C 0.16401 0.97425 0.06938 0.0
C851 C 0.1627 0.96665 0.0499 0.0
C852 C 0.16523 0.94603 0.04658 0.0
H853 H 0.14185 0.03382 0.94056 0.0
H854 H 0.14246 0.00727 0.96557 0.0
C855 C 0.16862 0.93313 0.06268 0.0
C856 C 0.15928 0.98066 0.03321 0.0
H857 H 0.12375 0.99728 1.00039 0.0
C858 C 0.17427 0.99468 0.02904 0.0
C859 C 0.141 0.98123 0.0225 0.0
C860 C 0.12457 0.96623 0.02636 0.0
C861 C 0.17138 0.00959 0.01467 0.0
C862 C 0.15266 0.01097 0.00475 0.0
C863 C 0.13789 0.99645 0.00836 0.0
C864 C 0.14857 0.02725 0.99033 0.0
C865 C 0.18855 0.02354 0.01009 0.0
C866 C 0.15059 0.0474 0.99615 0.0
C867 C 0.15078 0.06257 0.98183 0.0
C868 C 0.14859 0.05783 0.96151 0.0
C869 C 0.14434 0.03786 0.95604 0.0
C870 C 0.14446 0.02268 0.97032 0.0
H871 H 0.2032 0.0169 0.01442 0.0
H872 H 0.18903 0.02726 0.99396 0.0
H873 H 0.18665 0.03766 0.01867 0.0
H874 H 0.15316 0.05128 0.01165 0.0
H875 H 0.15389 0.07778 0.98659 0.0
H876 H 0.93583 0.63672 0.46035 0.0
H877 H 0.96096 0.63159 0.4869 0.0
H878 H 0.98382 0.69111 0.47705 0.0
H879 H 0.95882 0.6964 0.45087 0.0
H880 H 0.01371 0.65515 0.47849 0.0
H881 H 0.96176 0.66337 0.54302 0.0
H882 H 0.95484 0.6479 0.522 0.0
H883 H 0.95591 0.67458 0.5192 0.0
C884 C 0.94596 0.64883 0.46416 0.0
C885 C 0.94527 0.66703 0.45361 0.0
C886 C 0.96042 0.6458 0.47915 0.0
C887 C 0.97431 0.66095 0.48381 0.0
C888 C 0.97336 0.67918 0.47356 0.0
H889 H 0.07462 0.6951 0.5556 0.0
H890 H 0.05083 0.68762 0.52881 0.0
C891 C 0.959 0.68221 0.45868 0.0
C892 C 0.98969 0.65835 0.49964 0.0
H893 H 0.99614 0.66299 0.54991 0.0
C894 C 0.00992 0.65656 0.49415 0.0
C895 C 0.98467 0.65988 0.52002 0.0
C896 C 0.96315 0.66157 0.5266 0.0
C897 C 0.02532 0.65697 0.50855 0.0
C898 C 0.02036 0.66007 0.52889 0.0
C899 C 1.00004 0.66083 0.53436 0.0
C900 C 0.03578 0.66372 0.54464 0.0
C901 C 0.04668 0.65404 0.50176 0.0
C902 C 0.03499 0.65327 0.56279 0.0
C903 C 0.04819 0.65798 0.57837 0.0
C904 C 0.06259 0.67318 0.57613 0.0
C905 C 0.06363 0.6834 0.55786 0.0
C906 C 0.05021 0.67889 0.54238 0.0
H907 H 0.04732 0.64454 0.48813 0.0
H908 H 0.05325 0.66881 0.49797 0.0
H909 H 0.05603 0.64698 0.51354 0.0
H910 H 0.02402 0.64153 0.56498 0.0
H911 H 0.04719 0.64956 0.59212 0.0
H912 H 0.37358 0.55448 0.08658 0.0
H913 H 0.38172 0.53256 0.05846 0.0
H914 H 0.32035 0.53589 0.03816 0.0
H915 H 0.31248 0.55879 0.06563 0.0
H916 H 0.36994 0.49733 0.05137 0.0
H917 H 0.34685 0.54189 0.98609 0.0
H918 H 0.3485 0.55271 0.01074 0.0
H919 H 0.32621 0.53951 1.00291 0.0
C920 C 0.36184 0.5506 0.07605 0.0
C921 C 0.34232 0.55812 0.07845 0.0
C922 C 0.36654 0.53814 0.0599 0.0
C923 C 0.35175 0.53264 0.04593 0.0
C924 C 0.33223 0.54029 0.04829 0.0
H925 H 0.33318 0.42992 0.97281 0.0
H926 H 0.33508 0.45558 0.99911 0.0
C927 C 0.32765 0.55316 0.06419 0.0
C928 C 0.3563 0.51747 0.03015 0.0
H929 H 0.34879 0.50585 0.98091 0.0
C930 C 0.36556 0.49942 0.03592 0.0
C931 C 0.351 0.52014 0.00981 0.0
C932 C 0.34282 0.53972 1.00201 0.0
C933 C 0.36863 0.48371 0.02227 0.0
C934 C 0.36193 0.48585 1.00244 0.0
C935 C 0.35357 0.50414 0.9963 0.0
C936 C 0.36247 0.46882 0.98818 0.0
C937 C 0.37876 0.46472 0.02909 0.0
C938 C 0.37763 0.46741 0.9738 0.0
C939 C 0.37669 0.4526 0.95895 0.0
C940 C 0.36061 0.43898 0.95831 0.0
C941 C 0.34606 0.43978 0.97337 0.0
C942 C 0.34698 0.4546 0.98819 0.0
H943 H 0.38477 0.46604 0.04451 0.0
H944 H 0.36787 0.45216 0.02855 0.0
H945 H 0.39125 0.46091 0.01883 0.0
H946 H 0.38969 0.47825 0.97357 0.0
H947 H 0.3878 0.45259 0.9472 0.0
H948 H 0.57016 0.82997 0.47489 0.0
H949 H 0.544 0.83118 0.50047 0.0
H950 H 0.52315 0.88773 0.47709 0.0
H951 H 0.54919 0.88622 0.45117 0.0
H952 H 0.53692 0.85932 0.52981 0.0
H953 H 0.47196 0.85456 0.4775 0.0
H954 H 0.49733 0.84989 0.46941 0.0
H955 H 0.48899 0.87508 0.47401 0.0
C956 C 0.56004 0.84268 0.47538 0.0
C957 C 0.56156 0.85803 0.46131 0.0
C958 C 0.54513 0.84338 0.4899 0.0
C959 C 0.53147 0.85941 0.49052 0.0
C960 C 0.53328 0.87505 0.47666 0.0
H961 H 0.43728 0.86584 0.58234 0.0
H962 H 0.45979 0.876 0.55522 0.0
C963 C 0.54821 0.87429 0.46205 0.0
C964 C 0.51544 0.85934 0.50576 0.0
H965 H 0.46495 0.85325 0.51188 0.0
C966 C 0.52117 0.85822 0.52589 0.0
C967 C 0.49485 0.85816 0.50061 0.0
C968 C 0.48781 0.85936 0.47922 0.0
C969 C 0.50702 0.85493 0.5409 0.0
C970 C 0.48668 0.85252 0.53563 0.0
C971 C 0.48067 0.85484 0.51571 0.0
C972 C 0.47181 0.84625 0.55061 0.0
C973 C 0.5139 0.8534 0.5623 0.0
C974 C 0.47094 0.82611 0.55659 0.0
C975 C 0.458 0.82026 0.57187 0.0
C976 C 0.44609 0.83459 0.5815 0.0
C977 C 0.44663 0.85465 0.5752 0.0
C978 C 0.45933 0.86043 0.55973 0.0
H979 H 0.52956 0.8587 0.5643 0.0
H980 H 0.50393 0.86232 0.57217 0.0
H981 H 0.51306 0.83753 0.56714 0.0
H982 H 0.48054 0.81501 0.54964 0.0
H983 H 0.45767 0.80473 0.57651 0.0
H984 H 0.40675 0.17894 0.53359 0.0
H985 H 0.43178 0.17015 0.5082 0.0
H986 H 0.47616 0.16148 0.55425 0.0
H987 H 0.45148 0.17064 0.5796 0.0
H988 H 0.47476 0.19081 0.50652 0.0
H989 H 0.4729 0.10791 0.51634 0.0
H990 H 0.45177 0.12358 0.52288 0.0
H991 H 0.47389 0.12385 0.53809 0.0
C992 C 0.42187 0.17533 0.53826 0.0
C993 C 0.42719 0.17562 0.55856 0.0
C994 C 0.43608 0.17021 0.5238 0.0
C995 C 0.45564 0.16493 0.52947 0.0
C996 C 0.46106 0.16534 0.54966 0.0
H997 H 0.56183 0.13079 0.46409 0.0
H998 H 0.53443 0.1318 0.48816 0.0
C999 C 0.44698 0.17075 0.56407 0.0
C1000 C 0.47067 0.15984 0.51417 0.0
H1001 H 0.49536 0.12068 0.49234 0.0
C1002 C 0.47919 0.17549 0.50328 0.0
C1003 C 0.47675 0.13988 0.51052 0.0
C1004 C 0.46838 0.12273 0.52248 0.0
C1005 C 0.49364 0.17172 0.48862 0.0
C1006 C 0.49901 0.15165 0.48414 0.0
C1007 C 0.49081 0.13599 0.49542 0.0
C1008 C 0.51378 0.14698 0.46834 0.0
C1009 C 0.50351 0.18936 0.47859 0.0
C1010 C 0.51078 0.15388 0.44877 0.0
C1011 C 0.52655 0.15373 0.43511 0.0
C1012 C 0.54545 0.14636 0.44076 0.0
C1013 C 0.54757 0.13709 0.45951 0.0
C1014 C 0.5319 0.13755 0.47326 0.0
H1015 H 0.50196 0.2033 0.48757 0.0
H1016 H 0.51971 0.18651 0.47609 0.0
H1017 H 0.49626 0.19199 0.46391 0.0
H1018 H 0.49666 0.16067 0.44451 0.0
H1019 H 0.52438 0.16088 0.42079 0.0
H1020 H 0.87176 0.06948 0.96832 0.0
H1021 H 0.87243 0.04369 0.99412 0.0
H1022 H 0.84311 1.00243 0.95392 0.0
H1023 H 0.84162 0.02836 0.9283 0.0
H1024 H 0.82293 0.00965 0.99032 0.0
H1025 H 0.90322 0.99074 1.00339 0.0
H1026 H 0.89672 0.0169 1.00306 0.0
H1027 H 0.8946 1.00236 0.98059 0.0
C1028 C 0.86564 0.05483 0.96488 0.0
C1029 C 0.85629 0.05106 0.94635 0.0
C1030 C 0.86629 0.04005 0.97958 0.0
C1031 C 0.85788 0.02116 0.97589 0.0
C1032 C 0.84973 0.01694 0.957 0.0
H1033 H 0.84264 0.91148 0.03976 0.0
H1034 H 0.8508 0.93837 0.01638 0.0
C1035 C 0.84898 0.03174 0.94233 0.0
C1036 C 0.85501 0.00674 0.99233 0.0
H1037 H 0.87936 0.97558 0.0247 0.0
C1038 C 0.83527 1.0022 0.99783 0.0
C1039 C 0.87119 0.99736 1.00229 0.0
C1040 C 0.89266 1.00192 0.99703 0.0
C1041 C 0.8312 0.98813 0.0127 0.0
C1042 C 0.84729 0.97834 0.02229 0.0
C1043 C 0.8671 0.98313 0.01718 0.0
C1044 C 0.84353 0.96232 0.03692 0.0
C1045 C 0.80971 0.98345 0.01782 0.0
C1046 C 0.83665 0.96703 0.0561 0.0
C1047 C 0.83181 0.95175 0.06943 0.0
C1048 C 0.83375 0.9315 0.06376 0.0
C1049 C 0.84068 0.92689 0.04449 0.0
C1050 C 0.84559 0.94221 0.03121 0.0
H1051 H 0.79894 0.99089 0.00756 0.0
H1052 H 0.80714 0.96701 0.01726 0.0
H1053 H 0.80656 0.98859 0.03327 0.0
H1054 H 0.83496 0.98252 0.06071 0.0
H1055 H 0.82675 0.95582 0.08424 0.0
H1056 H 0.04909 0.32052 0.57887 0.0
H1057 H 0.023 0.32752 0.55381 0.0
H1058 H 0.06328 0.36779 0.52362 0.0
H1059 H 0.08951 0.35993 0.54766 0.0
H1060 H 1.00365 0.36028 0.5417 0.0
H1061 H 0.04942 0.33204 0.47846 0.0
H1062 H 0.05704 0.32881 0.50405 0.0
H1063 H 0.06099 0.35238 0.49163 0.0
C1064 C 0.05235 0.33063 0.56669 0.0
C1065 C 0.07145 0.33911 0.56476 0.0
C1066 C 0.03746 0.33474 0.55249 0.0
C1067 C 0.0414 0.3477 0.53644 0.0
C1068 C 0.06014 0.35709 0.53531 0.0
H1069 H 0.95955 0.3781 0.43685 0.0
H1070 H 0.98569 0.38207 0.46244 0.0
C1071 C 0.07511 0.35257 0.54909 0.0
C1072 C 0.02618 0.35099 0.52061 0.0
H1073 H 0.0182 0.34645 0.47039 0.0
C1074 C 0.00687 0.35732 0.52611 0.0
C1075 C 0.03042 0.34728 0.50019 0.0
C1076 C 0.05053 0.33958 0.49323 0.0
C1077 C 0.99159 0.35947 0.51182 0.0
C1078 C 0.99579 0.35528 0.49161 0.0
C1079 C 0.0152 0.3498 0.48596 0.0
C1080 C 0.97972 0.35362 0.47655 0.0
C1081 C 0.9709 0.36569 0.51837 0.0
C1082 C 0.96826 0.3361 0.47581 0.0
C1083 C 0.95382 0.33349 0.46097 0.0
C1084 C 0.9503 0.34851 0.44667 0.0
C1085 C 0.96201 0.36608 0.4474 0.0
C1086 C 0.97674 0.36854 0.46216 0.0
H1087 H 0.97086 0.37172 0.53384 0.0
H1088 H 0.96473 0.37722 0.50812 0.0
H1089 H 0.96079 0.3525 0.51774 0.0
H1090 H 0.97067 0.32429 0.48662 0.0
H1091 H 0.94542 0.31962 0.46071 0.0
H1092 H 0.66911 0.47475 0.91896 0.0
H1093 H 0.66829 0.50231 0.94335 0.0
H1094 H 0.63233 0.46627 0.98265 0.0
H1095 H 0.63305 0.43879 0.95839 0.0
H1096 H 0.63708 0.52402 0.96709 0.0
H1097 H 0.68664 0.47462 0.01242 0.0
H1098 H 0.68126 0.46948 0.9865 0.0
H1099 H 0.66276 0.46447 0.00523 0.0
C1100 C 0.66039 0.47301 0.93245 0.0
C1101 C 0.65134 0.45456 0.93686 0.0
C1102 C 0.66003 0.48871 0.94644 0.0
C1103 C 0.65065 0.48614 0.965 0.0
C1104 C 0.63993 0.46845 0.96857 0.0
H1105 H 0.6695 0.5498 0.07735 0.0
H1106 H 0.65964 0.52593 0.05149 0.0
C1107 C 0.64028 0.45281 0.95464 0.0
C1108 C 0.65416 0.50078 0.9814 0.0
H1109 H 0.67953 0.50644 0.02539 0.0
C1110 C 0.64632 0.52023 0.97988 0.0
C1111 C 0.66599 0.49568 0.99822 0.0
C1112 C 0.67479 0.47498 1.00075 0.0
C1113 C 0.65005 0.53477 0.99472 0.0
C1114 C 0.66263 0.52992 0.01113 0.0
C1115 C 0.67007 0.51029 0.01278 0.0
C1116 C 0.66842 0.5448 0.02678 0.0
C1117 C 0.64002 0.55496 0.9929 0.0
C1118 C 0.67711 0.56328 0.02168 0.0
C1119 C 0.68231 0.57719 0.03652 0.0
C1120 C 0.67956 0.57264 0.0568 0.0
C1121 C 0.67187 0.55376 0.0619 0.0
C1122 C 0.66615 0.5401 0.04708 0.0
H1123 H 0.62632 0.55413 0.98346 0.0
H1124 H 0.63583 0.56103 0.00776 0.0
H1125 H 0.65048 0.56562 0.98571 0.0
H1126 H 0.67983 0.567 0.00622 0.0
H1127 H 0.68829 0.5916 0.03213 0.0
H1128 H 0.56427 0.32375 0.04658 0.0
H1129 H 0.53831 0.32653 0.02175 0.0
H1130 H 0.51362 0.37766 0.05264 0.0
H1131 H 0.54147 0.37663 0.07647 0.0
H1132 H 0.50225 0.32027 0.02541 0.0
H1133 H 0.50718 0.39835 0.99801 0.0
H1134 H 0.52623 0.38749 0.01378 0.0
H1135 H 0.50342 0.39717 0.02445 0.0
C1136 C 0.55391 0.33615 0.04793 0.0
C1137 C 0.55555 0.3502 0.06364 0.0
C1138 C 0.5387 0.33752 0.03369 0.0
C1139 C 0.5239 0.35243 0.03496 0.0
C1140 C 0.52506 0.3663 0.05082 0.0
H1141 H 0.40843 0.35518 0.9718 0.0
H1142 H 0.43628 0.3618 0.99499 0.0
C1143 C 0.54084 0.36538 0.06483 0.0
C1144 C 0.50662 0.3519 0.02057 0.0
H1145 H 0.47848 0.37956 0.98772 0.0
C1146 C 0.49726 0.33331 0.01714 0.0
C1147 C 0.49984 0.36883 0.00963 0.0
C1148 C 0.50982 0.38903 0.01148 0.0
C1149 C 0.48169 0.33106 1.00322 0.0
C1150 C 0.47477 0.34792 0.99253 0.0
C1151 C 0.48374 0.36666 0.99604 0.0
C1152 C 0.45841 0.34593 0.97749 0.0
C1153 C 0.47274 0.31053 0.99998 0.0
C1154 C 0.46165 0.33506 0.95984 0.0
C1155 C 0.44577 0.33105 0.94673 0.0
C1156 C 0.42624 0.33789 0.9509 0.0
C1157 C 0.42317 0.34942 0.96827 0.0
C1158 C 0.43912 0.35338 0.98144 0.0
H1159 H 0.47704 0.29991 0.01199 0.0
H1160 H 0.45614 0.3114 0.99918 0.0
H1161 H 0.47821 0.30436 0.98559 0.0
H1162 H 0.47644 0.32932 0.95639 0.0
H1163 H 0.44886 0.32251 0.93332 0.0
H1164 H 0.64672 0.94888 0.43142 0.0
H1165 H 0.64013 0.97429 0.457 0.0
H1166 H 0.6983 0.96289 0.48292 0.0
H1167 H 0.70494 0.93754 0.45698 0.0
H1168 H 0.6389 0.96939 0.49811 0.0
H1169 H 0.69708 0.02413 0.47597 0.0
H1170 H 0.68928 1.00374 0.46 0.0
H1171 H 0.7069 0.99937 0.47989 0.0
C1172 C 0.65832 0.95237 0.44217 0.0
C1173 C 0.67663 0.94202 0.44185 0.0
C1174 C 0.65443 0.96659 0.45695 0.0
C1175 C 0.66886 0.97069 0.47164 0.0
C1176 C 0.68715 0.9602 0.47145 0.0
H1177 H 0.67119 0.0343 0.58293 0.0
H1178 H 0.66865 0.00782 0.55739 0.0
C1179 C 0.69096 0.94582 0.45669 0.0
C1180 C 0.66459 0.98566 0.4874 0.0
H1181 H 0.68199 0.0292 0.50782 0.0
C1182 C 0.64827 0.9825 0.50023 0.0
C1183 C 0.67654 1.00299 0.48977 0.0
C1184 C 0.6933 0.00792 0.47555 0.0
C1185 C 0.64414 0.99587 0.51593 0.0
C1186 C 0.65676 0.01257 0.51887 0.0
C1187 C 0.67259 0.0161 0.50565 0.0
C1188 C 0.65403 0.02672 0.53558 0.0
C1189 C 0.62637 0.99228 0.52926 0.0
C1190 C 0.64603 0.04574 0.53187 0.0
C1191 C 0.64742 0.06074 0.54633 0.0
C1192 C 0.65706 0.05701 0.56466 0.0
C1193 C 0.6637 0.03752 0.56894 0.0
C1194 C 0.66227 0.02245 0.5544 0.0
H1195 H 0.6171 0.97944 0.52408 0.0
H1196 H 0.63166 0.98925 0.54468 0.0
H1197 H 0.61685 0.00593 0.52982 0.0
H1198 H 0.63966 0.04927 0.5174 0.0
H1199 H 0.6419 0.0756 0.5428 0.0
H1200 H 0.98287 0.1644 0.0801 0.0
H1201 H 0.00827 0.1614 0.05387 0.0
H1202 H 0.96655 0.12855 0.01709 0.0
H1203 H 0.94122 0.13122 0.04331 0.0
H1204 H 0.01765 0.12037 0.0193 0.0
H1205 H 0.98392 0.19402 0.9986 0.0
H1206 H 0.98664 0.18764 0.0246 0.0
H1207 H 0.96907 0.17422 0.00936 0.0
C1208 C 0.97946 0.15571 0.06685 0.0
C1209 C 0.96004 0.14827 0.06361 0.0
C1210 C 0.99391 0.1541 0.05184 0.0
C1211 C 0.98911 0.14497 0.03355 0.0
C1212 C 0.97048 0.13563 0.03113 0.0
H1213 H 0.04878 0.17211 0.92008 0.0
H1214 H 0.02305 0.1632 0.94457 0.0
C1215 C 0.95606 0.13719 0.04611 0.0
C1216 C 1.00198 0.14836 0.01601 0.0
H1217 H 0.01236 0.18363 0.98075 0.0
C1218 C 0.01649 0.13412 0.01079 0.0
C1219 C 1.0 0.1661 0.00469 0.0
C1220 C 0.98406 0.18144 0.00942 0.0
C1221 C 0.02971 0.13762 0.99489 0.0
C1222 C 0.02851 0.15595 0.98435 0.0
C1223 C 0.01334 0.16971 0.98901 0.0
C1224 C 0.04373 0.16177 0.96947 0.0
C1225 C 0.04493 0.12177 0.98953 0.0
C1226 C 0.06363 0.1647 0.97555 0.0
C1227 C 0.07822 0.17009 0.96172 0.0
C1228 C 0.0732 0.17258 0.94147 0.0
C1229 C 0.05308 0.17035 0.93555 0.0
C1230 C 0.03842 0.16511 0.94948 0.0
H1231 H 0.04033 0.10675 0.99495 0.0
H1232 H 0.04716 0.121 0.97313 0.0
H1233 H 0.05951 0.12558 0.99658 0.0
H1234 H 0.06792 0.16264 0.99101 0.0
H1235 H 0.09355 0.17161 0.96684 0.0
H1236 H 0.80758 0.57254 0.44384 0.0
H1237 H 0.81827 0.54371 0.46386 0.0
H1238 H 0.87645 0.57074 0.47201 0.0
H1239 H 0.86545 0.59999 0.4531 0.0
H1240 H 0.84754 0.51619 0.4606 0.0
H1241 H 0.86179 0.56213 0.52867 0.0
H1242 H 0.84971 0.57239 0.5069 0.0
H1243 H 0.87647 0.56889 0.50739 0.0
C1244 C 0.82252 0.57243 0.4502 0.0
C1245 C 0.83541 0.58882 0.44757 0.0
C1246 C 0.82871 0.55589 0.46146 0.0
C1247 C 0.848 0.55529 0.46994 0.0
C1248 C 0.86125 0.57118 0.46633 0.0
H1249 H 0.88631 0.46752 0.56078 0.0
H1250 H 0.88908 0.49297 0.53452 0.0
C1251 C 0.85491 0.58792 0.45555 0.0
C1252 C 0.85381 0.53842 0.48319 0.0
H1253 H 0.8666 0.52754 0.53135 0.0
C1254 C 0.85184 0.51869 0.47604 0.0
C1255 C 0.85983 0.54164 0.50326 0.0
C1256 C 0.86195 0.56238 0.51209 0.0
C1257 C 0.85478 0.50217 0.48864 0.0
C1258 C 0.85953 0.5055 0.50896 0.0
C1259 C 0.86283 0.52509 0.51578 0.0
C1260 C 0.85862 0.48925 0.52393 0.0
C1261 C 0.85242 0.48131 0.48019 0.0
C1262 C 0.84049 0.47913 0.52693 0.0
C1263 C 0.83879 0.46488 0.54198 0.0
C1264 C 0.8552 0.46047 0.55443 0.0
C1265 C 0.87335 0.47076 0.55155 0.0
C1266 C 0.87502 0.4851 0.53645 0.0
H1267 H 0.85568 0.48097 0.46395 0.0
H1268 H 0.86246 0.47049 0.48786 0.0
H1269 H 0.8367 0.47633 0.48225 0.0
H1270 H 0.82745 0.48257 0.51789 0.0
H1271 H 0.82453 0.45745 0.54402 0.0
H1272 H 0.57814 0.4498 0.14173 0.0
H1273 H 0.55247 0.47565 0.14003 0.0
H1274 H 0.5178 0.44442 0.18429 0.0
H1275 H 0.54378 0.41827 0.18625 0.0
H1276 H 0.51232 0.46912 0.12873 0.0
H1277 H 0.51905 0.50363 0.20399 0.0
H1278 H 0.53853 0.48833 0.19311 0.0
H1279 H 0.51681 0.47676 0.20383 0.0
C1280 C 0.56521 0.44847 0.15136 0.0
C1281 C 0.563 0.4319 0.16412 0.0
C1282 C 0.5505 0.46327 0.15027 0.0
C1283 C 0.53323 0.46197 0.162 0.0
C1284 C 0.53114 0.44578 0.17523 0.0
H1285 H 0.42588 0.53562 0.16917 0.0
H1286 H 0.4491 0.507 0.16881 0.0
C1287 C 0.54595 0.43085 0.17633 0.0
C1288 C 0.51713 0.47713 0.15955 0.0
H1289 H 0.4918 0.51429 0.18394 0.0
C1290 C 0.50777 0.47896 0.14082 0.0
C1291 C 0.5115 0.49017 0.17522 0.0
C1292 C 0.52208 0.48985 0.19514 0.0
C1293 C 0.49269 0.49329 0.13747 0.0
C1294 C 0.48674 0.50596 0.15329 0.0
C1295 C 0.49616 0.50423 0.17197 0.0
C1296 C 0.47136 0.52176 0.15068 0.0
C1297 C 0.48312 0.4948 0.11711 0.0
C1298 C 0.47598 0.53922 0.14009 0.0
C1299 C 0.46279 0.5555 0.14027 0.0
C1300 C 0.44476 0.55461 0.15109 0.0
C1301 C 0.43957 0.53664 0.1606 0.0
C1302 C 0.45287 0.52037 0.16052 0.0
H1303 H 0.48746 0.48213 0.10722 0.0
H1304 H 0.46654 0.49516 0.11847 0.0
H1305 H 0.48785 0.50899 0.10995 0.0
H1306 H 0.49024 0.54064 0.13253 0.0
H1307 H 0.46714 0.56917 0.13277 0.0
H1308 H 0.54746 0.07657 0.30947 0.0
H1309 H 0.52625 0.04802 0.31815 0.0
H1310 H 0.55379 0.04533 0.37635 0.0
H1311 H 0.5752 0.07369 0.36783 0.0
H1312 H 0.53626 0.00735 0.33458 0.0
H1313 H 0.49214 0.05678 0.38543 0.0
H1314 H 0.50844 0.0669 0.36651 0.0
H1315 H 0.51893 0.05577 0.38852 0.0
C1316 C 0.54925 0.0697 0.32398 0.0
C1317 C 0.56272 0.07761 0.33808 0.0
C1318 C 0.53715 0.05341 0.32891 0.0
C1319 C 0.5383 0.0449 0.34799 0.0
C1320 C 0.55255 0.05194 0.36166 0.0
H1321 H 0.46171 0.94298 0.3779 0.0
H1322 H 0.48763 0.96861 0.38252 0.0
C1323 C 0.56475 0.06814 0.35672 0.0
C1324 C 0.52346 0.02972 0.3539 0.0
H1325 H 0.47963 0.02436 0.37951 0.0
C1326 C 0.52405 0.01089 0.34464 0.0
C1327 C 0.50766 0.03451 0.36711 0.0
C1328 C 0.50656 0.0546 0.37747 0.0
C1329 C 0.5087 0.99691 0.34767 0.0
C1330 C 0.49239 1.0021 0.36007 0.0
C1331 C 0.4922 0.02059 0.36999 0.0
C1332 C 0.47462 0.9891 0.36118 0.0
C1333 C 0.50951 0.97701 0.33693 0.0
C1334 C 0.45828 0.99279 0.34849 0.0
C1335 C 0.44346 0.97823 0.34585 0.0
C1336 C 0.44496 0.95986 0.35584 0.0
C1337 C 0.46032 0.95706 0.37 0.0
C1338 C 0.47511 0.9716 0.37263 0.0
H1339 H 0.52302 0.97553 0.32739 0.0
H1340 H 0.50959 0.96466 0.34798 0.0
H1341 H 0.49596 0.97515 0.32745 0.0
H1342 H 0.45778 0.00627 0.33953 0.0
H1343 H 0.43188 0.98063 0.33474 0.0
H1344 H 0.91561 0.04228 0.83232 0.0
H1345 H 0.94245 0.01754 0.83612 0.0
H1346 H 0.98422 0.06468 0.85059 0.0
H1347 H 0.95751 0.08962 0.84672 0.0
H1348 H 0.983 0.01901 0.81477 0.0
H1349 H 0.98638 0.02115 0.89787 0.0
H1350 H 0.96412 0.02846 0.88427 0.0
H1351 H 0.98566 0.04448 0.88442 0.0
C1352 C 0.93053 0.04743 0.83611 0.0
C1353 C 0.93443 0.06791 0.83912 0.0
C1354 C 0.94581 0.03327 0.83836 0.0
C1355 C 0.96517 0.03931 0.84387 0.0
C1356 C 0.96928 0.05975 0.84654 0.0
H1357 H 0.07471 0.97282 0.86396 0.0
H1358 H 0.04755 0.99741 0.86508 0.0
C1359 C 0.95404 0.07397 0.84413 0.0
C1360 C 0.9811 0.02411 0.8464 0.0
H1361 H 0.00848 0.99894 0.88145 0.0
C1362 C 0.98856 0.01457 0.82933 0.0
C1363 C 0.98843 0.01862 0.86542 0.0
C1364 C 0.98077 0.02859 0.88414 0.0
C1365 C 1.00322 0.99956 0.83075 0.0
C1366 C 0.01009 0.99351 0.8498 0.0
C1367 C 1.00289 1.00335 0.8669 0.0
C1368 C 0.02546 0.97761 0.85198 0.0
C1369 C 0.01161 0.99066 0.8118 0.0
C1370 C 0.02178 0.95802 0.8451 0.0
C1371 C 0.03734 0.94393 0.84431 0.0
C1372 C 0.05677 0.94929 0.8504 0.0
C1373 C 0.05997 0.96844 0.85873 0.0
C1374 C 0.04445 0.98246 0.85951 0.0
H1375 H 0.00828 1.00015 0.7986 0.0
H1376 H 0.02811 0.9887 0.81297 0.0
H1377 H 1.00481 0.9757 0.80921 0.0
H1378 H 0.00707 0.9539 0.83958 0.0
H1379 H 0.03443 0.92926 0.83798 0.0
H1380 H 0.08243 0.53822 0.38099 0.0
H1381 H 0.05935 0.50942 0.3808 0.0
H1382 H 0.01623 0.54387 0.34746 0.0
H1383 H 0.03915 0.571 0.34521 0.0
H1384 H 0.01617 0.50371 0.39185 0.0
H1385 H 0.02939 0.49726 0.31043 0.0
H1386 H 0.04531 0.5121 0.32651 0.0
H1387 H 0.02164 0.52186 0.31794 0.0
C1388 C 0.0681 0.53968 0.37355 0.0
C1389 C 0.06301 0.55745 0.36333 0.0
C1390 C 0.05481 0.52326 0.37369 0.0
C1391 C 0.0362 0.52449 0.36385 0.0
C1392 C 0.03059 0.5425 0.35495 0.0
H1393 H 0.93434 0.45611 0.32541 0.0
H1394 H 0.9587 0.48181 0.33493 0.0
C1395 C 0.04389 0.5584 0.35413 0.0
C1396 C 0.02315 0.50678 0.36068 0.0
H1397 H 1.0009 0.48002 0.32316 0.0
C1398 C 0.01311 0.49819 0.37691 0.0
C1399 C 0.01894 0.49986 0.34109 0.0
C1400 C 0.02952 0.50813 0.32302 0.0
C1401 C 0.9985 0.48323 0.37393 0.0
C1402 C 0.99408 0.4767 0.3543 0.0
C1403 C 1.00434 0.48509 0.33819 0.0
C1404 C 0.97879 0.46125 0.34986 0.0
C1405 C 0.98733 0.475 0.39162 0.0
C1406 C 0.98222 0.44114 0.35484 0.0
C1407 C 0.96848 0.42633 0.34915 0.0
C1408 C 0.95104 0.43141 0.33842 0.0
C1409 C 0.94769 0.45163 0.33349 0.0
C1410 C 0.96149 0.46637 0.33907 0.0
H1411 H 0.99016 0.48386 0.40541 0.0
H1412 H 0.97095 0.47484 0.38856 0.0
H1413 H 0.99213 0.45931 0.39431 0.0
H1414 H 0.99566 0.43687 0.36287 0.0
H1415 H 0.97142 0.41095 0.35338 0.0
H1416 H 0.48539 0.57909 0.83807 0.0
H1417 H 0.51101 0.55293 0.84085 0.0
H1418 H 0.46858 0.51414 0.86981 0.0
H1419 H 0.44298 0.54036 0.8676 0.0
H1420 H 0.52395 0.52682 0.87855 0.0
H1421 H 0.48819 0.48671 0.81458 0.0
H1422 H 0.48412 0.51319 0.81861 0.0
H1423 H 0.47298 0.4953 0.83506 0.0
C1424 C 0.48161 0.5652 0.84545 0.0
C1425 C 0.46204 0.56172 0.85231 0.0
C1426 C 0.49625 0.55025 0.84697 0.0
C1427 C 0.49157 0.5316 0.85534 0.0
C1428 C 0.47239 0.5284 0.86315 0.0
H1429 H 0.56314 0.42358 0.83429 0.0
H1430 H 0.53583 0.44598 0.84393 0.0
C1431 C 0.45777 0.54335 0.86172 0.0
C1432 C 0.5063 0.51505 0.85431 0.0
H1433 H 0.51919 0.47467 0.82582 0.0
C1434 C 0.52291 0.51528 0.86716 0.0
C1435 C 0.50455 0.49978 0.83978 0.0
C1436 C 0.48656 0.49858 0.82612 0.0
C1437 C 0.53821 0.50088 0.86544 0.0
C1438 C 0.53731 0.48651 0.84981 0.0
C1439 C 0.52015 0.48581 0.83759 0.0
C1440 C 0.55426 0.47267 0.84521 0.0
C1441 C 0.55496 0.50111 0.88061 0.0
C1442 C 0.57382 0.48009 0.84261 0.0
C1443 C 0.58957 0.4672 0.83749 0.0
C1444 C 0.58595 0.44676 0.83414 0.0
C1445 C 0.56635 0.43936 0.83645 0.0
C1446 C 0.55072 0.45214 0.84207 0.0
H1447 H 0.54971 0.50714 0.89515 0.0
H1448 H 0.56121 0.48589 0.88306 0.0
H1449 H 0.56712 0.51107 0.87529 0.0
H1450 H 0.57689 0.49594 0.84422 0.0
H1451 H 0.60451 0.47328 0.83576 0.0
H1452 H 0.07805 0.98242 0.177 0.0
H1453 H 0.05252 0.00867 0.17479 0.0
H1454 H 0.02799 0.98051 0.12205 0.0
H1455 H 0.05311 0.95375 0.12477 0.0
H1456 H 0.04078 0.03594 0.14754 0.0
H1457 H 0.97999 0.97987 0.15805 0.0
H1458 H 0.00611 0.97331 0.16046 0.0
H1459 H 0.99507 0.97656 0.13618 0.0
C1460 C 0.0676 0.98223 0.16459 0.0
C1461 C 0.0675 0.9662 0.15103 0.0
C1462 C 0.05291 0.99709 0.16342 0.0
C1463 C 0.03799 0.99621 0.1486 0.0
C1464 C 0.03896 0.98114 0.13397 0.0
H1465 H 0.92847 0.06882 0.14455 0.0
H1466 H 0.95422 0.04356 0.13748 0.0
C1467 C 0.05349 0.96608 0.13532 0.0
C1468 C 0.02102 0.01055 0.14935 0.0
H1469 H 0.97054 0.01377 0.15716 0.0
C1470 C 0.0254 0.03109 0.14952 0.0
C1471 C 1.0009 1.00418 0.15168 0.0
C1472 C 0.99517 0.98229 0.15174 0.0
C1473 C 0.01037 0.04547 0.15246 0.0
C1474 C 0.99045 0.03911 0.15591 0.0
C1475 C 0.98587 0.0186 0.15484 0.0
C1476 C 0.97429 0.05353 0.16096 0.0
C1477 C 0.01607 0.06734 0.15169 0.0
C1478 C 0.9767 0.06711 0.1769 0.0
C1479 C 0.96231 0.08188 0.18053 0.0
C1480 C 0.94491 0.08267 0.16886 0.0
C1481 C 0.94184 0.06836 0.15375 0.0
C1482 C 0.95651 0.05397 0.14972 0.0
H1483 H 0.02973 0.06968 0.14256 0.0
H1484 H 1.00377 0.07661 0.14539 0.0
H1485 H 0.01942 0.07273 0.16702 0.0
H1486 H 0.98991 0.06652 0.1863 0.0
H1487 H 0.96475 0.09268 0.19239 0.0
H1488 H 0.956 0.43147 0.64505 0.0
H1489 H 0.98139 0.45757 0.64198 0.0
H1490 H 0.94702 0.4953 0.68162 0.0
H1491 H 0.92269 0.46817 0.68615 0.0
H1492 H 0.97929 0.49325 0.62729 0.0
H1493 H 1.00081 0.50037 0.70682 0.0
H1494 H 0.98544 0.48011 0.69771 0.0
H1495 H 0.97446 0.50418 0.70322 0.0
C1496 C 0.95462 0.44485 0.65401 0.0
C1497 C 0.93821 0.44728 0.66681 0.0
C1498 C 0.96875 0.46002 0.65181 0.0
C1499 C 0.96643 0.47826 0.66199 0.0
C1500 C 0.94954 0.48109 0.6742 0.0
H1501 H 0.03709 0.58725 0.66732 0.0
H1502 H 0.00871 0.56394 0.6649 0.0
C1503 C 0.9356 0.46565 0.67671 0.0
C1504 C 0.98147 0.49439 0.6594 0.0
H1505 H 0.01243 0.52591 0.68517 0.0
C1506 C 0.98654 0.50039 0.63995 0.0
C1507 C 0.99118 0.50348 0.6759 0.0
C1508 C 0.98787 0.49655 0.69705 0.0
C1509 C 1.00081 0.51545 0.63662 0.0
C1510 C 0.00998 0.52491 0.65317 0.0
C1511 C 1.00497 0.51891 0.67255 0.0
C1512 C 0.02583 0.54018 0.65099 0.0
C1513 C 0.00599 0.52115 0.6155 0.0
C1514 C 0.04463 0.53464 0.64351 0.0
C1515 C 0.06076 0.54784 0.64493 0.0
C1516 C 0.05842 0.56676 0.654 0.0
C1517 C 0.03929 0.57277 0.66032 0.0
C1518 C 0.02313 0.55949 0.65896 0.0
H1519 H 0.99452 0.5158 0.60466 0.0
H1520 H 0.00754 0.53765 0.61408 0.0
H1521 H 0.02056 0.51423 0.61143 0.0
H1522 H 0.04709 0.51973 0.63756 0.0
H1523 H 0.0753 0.54296 0.63963 0.0
H1524 H 0.43889 0.96694 0.6399 0.0
H1525 H 0.46602 0.99139 0.63703 0.0
H1526 H 0.50384 0.95374 0.67347 0.0
H1527 H 0.4769 0.92889 0.67565 0.0
H1528 H 0.48201 0.01324 0.66418 0.0
H1529 H 0.54275 0.96828 0.6313 0.0
H1530 H 0.51727 0.95938 0.63223 0.0
H1531 H 0.53381 0.95613 0.65333 0.0
C1532 C 0.45318 0.96372 0.64693 0.0
C1533 C 0.45589 0.94599 0.65793 0.0
C1534 C 0.46865 0.97774 0.64535 0.0
C1535 C 0.48713 0.97441 0.65485 0.0
C1536 C 0.48997 0.95647 0.66552 0.0
H1537 H 0.56661 0.06464 0.70194 0.0
H1538 H 0.53871 0.04212 0.69416 0.0
C1539 C 0.47456 0.94228 0.66685 0.0
C1540 C 0.50284 0.9903 0.65492 0.0
H1541 H 0.55318 0.99755 0.65001 0.0
C1542 C 0.49754 0.00985 0.66082 0.0
C1543 C 0.52302 0.98625 0.64986 0.0
C1544 C 0.52947 0.96643 0.64109 0.0
C1545 C 0.51199 0.02506 0.66284 0.0
C1546 C 0.53248 0.02038 0.65984 0.0
C1547 C 0.53759 1.00114 0.65286 0.0
C1548 C 0.54894 0.03484 0.66432 0.0
C1549 C 0.50499 0.04598 0.66792 0.0
C1550 C 0.56445 0.03782 0.65051 0.0
C1551 C 0.58078 0.05006 0.65527 0.0
C1552 C 0.58187 0.05984 0.67385 0.0
C1553 C 0.5662 0.05723 0.68754 0.0
C1554 C 0.55008 0.04458 0.68295 0.0
H1555 H 0.48962 0.04873 0.6621 0.0
H1556 H 0.50445 0.04775 0.68437 0.0
H1557 H 0.51515 0.05755 0.66172 0.0
H1558 H 0.56399 0.03058 0.63602 0.0
H1559 H 0.59243 0.05209 0.64424 0.0
H1560 H 0.16867 0.29134 0.59648 0.0
H1561 H 0.19614 0.2672 0.59903 0.0
H1562 H 0.22884 0.30843 0.63661 0.0
H1563 H 0.20082 0.33213 0.63499 0.0
H1564 H 0.23197 0.26838 0.58636 0.0
H1565 H 0.23884 0.26003 0.66826 0.0
H1566 H 0.2181 0.27314 0.65694 0.0
H1567 H 0.24188 0.28548 0.66045 0.0
C1568 C 0.18155 0.29513 0.60561 0.0
C1569 C 0.18238 0.31366 0.61565 0.0
C1570 C 0.19738 0.2813 0.607 0.0
C1571 C 0.21472 0.28563 0.61826 0.0
C1572 C 0.21555 0.3042 0.62834 0.0
H1573 H 0.32972 0.22413 0.59944 0.0
H1574 H 0.30204 0.24821 0.60073 0.0
C1575 C 0.19949 0.31789 0.62729 0.0
C1576 C 0.23212 0.27113 0.61841 0.0
H1577 H 0.26502 0.24576 0.6487 0.0
C1578 C 0.23906 0.26345 0.60007 0.0
C1579 C 0.24158 0.2644 0.63621 0.0
C1580 C 0.2346 0.27103 0.65657 0.0
C1581 C 0.25495 0.24952 0.59901 0.0
C1582 C 0.26463 0.24317 0.61672 0.0
C1583 C 0.25773 0.25069 0.63508 0.0
C1584 C 0.28173 0.22855 0.61637 0.0
C1585 C 0.26098 0.24126 0.57892 0.0
C1586 C 0.27984 0.20949 0.62507 0.0
C1587 C 0.29575 0.19564 0.62442 0.0
C1588 C 0.31397 0.20048 0.61502 0.0
C1589 C 0.31584 0.21965 0.60646 0.0
C1590 C 0.29999 0.23351 0.60722 0.0
H1591 H 0.24977 0.2448 0.56715 0.0
H1592 H 0.27554 0.24785 0.57447 0.0
H1593 H 0.26289 0.22474 0.57967 0.0
H1594 H 0.26596 0.20524 0.63223 0.0
H1595 H 0.29371 0.1811 0.63124 0.0
H1596 H 0.72473 0.66586 0.10148 0.0
H1597 H 0.74883 0.6934 0.10451 0.0
H1598 H 0.70275 0.73104 0.12968 0.0
H1599 H 0.67889 0.7034 0.12695 0.0
H1600 H 0.74972 0.7277 0.08684 0.0
H1601 H 0.7462 0.74477 0.16763 0.0
H1602 H 0.73491 0.72257 0.15709 0.0
H1603 H 0.72209 0.74632 0.15588 0.0
C1604 C 0.71985 0.67988 0.10805 0.0
C1605 C 0.69992 0.68218 0.11448 0.0
C1606 C 0.73366 0.69571 0.10973 0.0
C1607 C 0.72794 0.71442 0.11771 0.0
C1608 C 0.70799 0.7167 0.12415 0.0
H1609 H 0.78555 0.83149 0.10381 0.0
H1610 H 0.76207 0.80333 0.10587 0.0
C1611 C 0.69425 0.70078 0.12267 0.0
C1612 C 0.74244 0.73177 0.1179 0.0
H1613 H 0.7628 0.76892 0.1472 0.0
C1614 C 0.75261 0.73654 0.10015 0.0
C1615 C 0.74641 0.74357 0.13517 0.0
C1616 C 0.73698 0.73894 0.15505 0.0
C1617 C 0.76625 0.75265 0.09914 0.0
C1618 C 0.76994 0.76454 0.11624 0.0
C1619 C 0.75993 0.75986 0.13403 0.0
C1620 C 0.78422 0.78183 0.11569 0.0
C1621 C 0.77676 0.75696 0.07975 0.0
C1622 C 0.80458 0.7792 0.12045 0.0
C1623 C 0.81814 0.7953 0.1192 0.0
C1624 C 0.81166 0.81445 0.11312 0.0
C1625 C 0.79121 0.81698 0.10835 0.0
C1626 C 0.77768 0.8009 0.10966 0.0
H1627 H 0.77246 0.74628 0.06774 0.0
H1628 H 0.77313 0.77242 0.07481 0.0
H1629 H 0.79324 0.75617 0.08202 0.0
H1630 H 0.81004 0.76461 0.12499 0.0
H1631 H 0.83373 0.79268 0.12287 0.0
H1632 H 0.29611 0.32685 0.90091 0.0
H1633 H 0.26816 0.30298 0.89985 0.0
H1634 H 0.30828 0.25721 0.87793 0.0
H1635 H 0.3364 0.28066 0.88068 0.0
H1636 H 0.24935 0.28432 0.87315 0.0
H1637 H 0.28366 0.22421 0.91855 0.0
H1638 H 0.29528 0.24841 0.91605 0.0
H1639 H 0.29839 0.22952 0.89696 0.0
C1640 C 0.29896 0.31154 0.89627 0.0
C1641 C 0.31852 0.30547 0.89138 0.0
C1642 C 0.28293 0.29787 0.89551 0.0
C1643 C 0.2859 0.27785 0.88934 0.0
C1644 C 0.30545 0.2721 0.88369 0.0
H1645 H 0.20192 0.17755 0.86947 0.0
H1646 H 0.22972 0.20139 0.86684 0.0
C1647 C 0.32158 0.2856 0.88509 0.0
C1648 C 0.26853 0.26331 0.88845 0.0
H1649 H 0.25354 0.21592 0.90151 0.0
C1650 C 0.25036 0.26944 0.87952 0.0
C1651 C 0.26947 0.24368 0.89664 0.0
C1652 C 0.28767 0.23615 0.90776 0.0
C1653 C 0.23345 0.25672 0.87855 0.0
C1654 C 0.23454 0.23716 0.88659 0.0
C1655 C 0.25268 0.23085 0.89521 0.0
C1656 C 0.21685 0.22327 0.88695 0.0
C1657 C 0.21451 0.26423 0.86876 0.0
C1658 C 0.20016 0.22752 0.899 0.0
C1659 C 0.1843 0.21376 0.90067 0.0
C1660 C 0.18459 0.19539 0.89022 0.0
C1661 C 0.20104 0.19147 0.87767 0.0
C1662 C 0.21704 0.20512 0.8762 0.0
H1663 H 0.21724 0.2778 0.8596 0.0
H1664 H 0.20779 0.25242 0.85913 0.0
H1665 H 0.20344 0.26813 0.88047 0.0
H1666 H 0.19965 0.24128 0.90761 0.0
H1667 H 0.17195 0.21739 0.91048 0.0
H1668 H 0.80552 0.6986 0.35731 0.0
H1669 H 0.78162 0.72662 0.35558 0.0
H1670 H 0.78277 0.73171 0.41966 0.0
H1671 H 0.80629 0.7033 0.42153 0.0
H1672 H 0.74019 0.72966 0.38715 0.0
H1673 H 0.79826 0.78937 0.38317 0.0
H1674 H 0.80244 0.76471 0.37273 0.0
H1675 H 0.80224 0.76805 0.39925 0.0
C1676 C 0.80075 0.70576 0.37104 0.0
C1677 C 0.80788 0.69882 0.38957 0.0
C1678 C 0.78702 0.7217 0.37002 0.0
C1679 C 0.78041 0.7313 0.38748 0.0
C1680 C 0.78758 0.72447 0.406 0.0
H1681 H 0.71552 0.83984 0.41573 0.0
H1682 H 0.73847 0.81151 0.41286 0.0
C1683 C 0.80102 0.70826 0.40706 0.0
C1684 C 0.76619 0.74859 0.38638 0.0
H1685 H 0.76457 0.79981 0.3848 0.0
C1686 C 0.74546 0.74501 0.38654 0.0
C1687 C 0.77309 0.76858 0.38553 0.0
C1688 C 0.79521 0.77312 0.3851 0.0
C1689 C 0.73146 0.76092 0.38636 0.0
C1690 C 0.73833 0.78105 0.3857 0.0
C1691 C 0.75915 0.7845 0.38527 0.0
C1692 C 0.72436 0.79875 0.38665 0.0
C1693 C 0.70945 0.75596 0.3876 0.0
C1694 C 0.70883 0.80155 0.37262 0.0
C1695 C 0.69551 0.81789 0.37427 0.0
C1696 C 0.69745 0.83194 0.38991 0.0
C1697 C 0.71341 0.8294 0.4035 0.0
C1698 C 0.72664 0.81311 0.40188 0.0
H1699 H 0.70694 0.74046 0.39307 0.0
H1700 H 0.70153 0.76657 0.39765 0.0
H1701 H 0.70266 0.75711 0.37252 0.0
H1702 H 0.70695 0.79108 0.36039 0.0
H1703 H 0.68353 0.81932 0.36346 0.0
H1704 H 0.63217 0.20416 0.32699 0.0
H1705 H 0.63382 0.23199 0.30339 0.0
H1706 H 0.6097 0.19383 0.25723 0.0
H1707 H 0.60839 0.16579 0.28084 0.0
H1708 H 0.65288 0.23845 0.2675 0.0
H1709 H 0.57058 0.24038 0.25642 0.0
H1710 H 0.58229 0.22583 0.27588 0.0
H1711 H 0.58156 0.21649 0.25067 0.0
C1712 C 0.62788 0.20144 0.31167 0.0
C1713 C 0.62064 0.18248 0.30578 0.0
C1714 C 0.62854 0.21753 0.29818 0.0
C1715 C 0.62166 0.21527 0.27845 0.0
C1716 C 0.61477 0.19623 0.27241 0.0
H1717 H 0.63716 0.29792 0.17765 0.0
H1718 H 0.63855 0.26953 0.20081 0.0
C1719 C 0.61413 0.18011 0.28592 0.0
C1720 C 0.62123 0.23289 0.26445 0.0
H1721 H 0.58986 0.26131 0.23535 0.0
C1722 C 0.63909 0.24336 0.26044 0.0
C1723 C 0.60322 0.23979 0.25546 0.0
C1724 C 0.58328 0.2302 0.25994 0.0
C1725 C 0.63947 0.26001 0.24743 0.0
C1726 C 0.62156 0.26644 0.23798 0.0
C1727 C 0.60366 0.25628 0.24232 0.0
C1728 C 0.62098 0.28387 0.22386 0.0
C1729 C 0.65894 0.27097 0.2442 0.0
C1730 C 0.61034 0.30139 0.22881 0.0
C1731 C 0.60938 0.31763 0.21551 0.0
C1732 C 0.61896 0.3168 0.1968 0.0
C1733 C 0.62957 0.29919 0.19186 0.0
C1734 C 0.63049 0.28293 0.20518 0.0
H1735 H 0.67082 0.26601 0.25473 0.0
H1736 H 0.66424 0.26822 0.22876 0.0
H1737 H 0.65666 0.28737 0.24598 0.0
H1738 H 0.60288 0.30258 0.2431 0.0
H1739 H 0.6013 0.33096 0.22005 0.0
H1740 H 0.69053 0.08471 0.71116 0.0
H1741 H 0.71919 0.08699 0.73413 0.0
H1742 H 0.72979 0.14777 0.71538 0.0
H1743 H 0.70129 0.14555 0.69222 0.0
H1744 H 0.76543 0.11816 0.71678 0.0
H1745 H 0.72084 0.12457 0.78657 0.0
H1746 H 0.71227 0.10727 0.76768 0.0
H1747 H 0.71177 0.13366 0.76283 0.0
C1748 C 0.69894 0.09856 0.71195 0.0
C1749 C 0.69372 0.1149 0.6998 0.0
C1750 C 0.7153 0.09985 0.72508 0.0
C1751 C 0.72656 0.11758 0.72652 0.0
C1752 C 0.72137 0.13393 0.71443 0.0
H1753 H 0.81279 0.14411 0.82131 0.0
H1754 H 0.78569 0.14563 0.79679 0.0
C1755 C 0.70513 0.1326 0.70117 0.0
C1756 C 0.74385 0.1189 0.74052 0.0
H1757 H 0.75577 0.12075 0.79009 0.0
C1758 C 0.76337 0.11876 0.73281 0.0
C1759 C 0.7411 0.12013 0.76138 0.0
C1760 C 0.72041 0.12155 0.77026 0.0
C1761 C 0.78027 0.11925 0.74547 0.0
C1762 C 0.77757 0.11947 0.76645 0.0
C1763 C 0.75795 0.12026 0.77407 0.0
C1764 C 0.79478 0.11891 0.78079 0.0
C1765 C 0.80081 0.11991 0.73616 0.0
C1766 C 0.80908 0.10339 0.7801 0.0
C1767 C 0.82479 0.10259 0.79407 0.0
C1768 C 0.82633 0.11709 0.80926 0.0
C1769 C 0.81202 0.13261 0.8099 0.0
C1770 C 0.79647 0.13351 0.79585 0.0
H1771 H 0.80022 0.12609 0.7208 0.0
H1772 H 0.81131 0.12914 0.7452 0.0
H1773 H 0.80689 0.10446 0.73517 0.0
H1774 H 0.80788 0.09163 0.769 0.0
H1775 H 0.83544 0.09036 0.79325 0.0
H1776 H 0.92243 0.32506 0.29939 0.0
H1777 H 0.92169 0.29693 0.27583 0.0
H1778 H 0.86364 0.27957 0.29777 0.0
H1779 H 0.86429 0.30756 0.32159 0.0
H1780 H 0.91331 0.25218 0.28755 0.0
H1781 H 0.86011 0.2868 0.23349 0.0
H1782 H 0.87526 0.30181 0.25022 0.0
H1783 H 0.85439 0.28797 0.25973 0.0
C1784 C 0.90953 0.31522 0.29932 0.0
C1785 C 0.89346 0.31853 0.3125 0.0
C1786 C 0.90914 0.29916 0.28582 0.0
C1787 C 0.89257 0.28627 0.28497 0.0
C1788 C 0.87653 0.28942 0.29813 0.0
H1789 H 0.86156 0.19264 0.19893 0.0
H1790 H 0.8612 0.21897 0.22445 0.0
C1791 C 0.877 0.30535 0.31182 0.0
C1792 C 0.8922 0.2694 0.27044 0.0
H1793 H 0.8721 0.25457 0.2259 0.0
C1794 C 0.90429 0.25261 0.27406 0.0
C1795 C 0.88021 0.26994 0.25306 0.0
C1796 C 0.86676 0.28758 0.2487 0.0
C1797 C 0.90459 0.23617 0.26085 0.0
C1798 C 0.89318 0.23695 0.24292 0.0
C1799 C 0.88097 0.25383 0.23946 0.0
C1800 C 0.89352 0.22048 0.22765 0.0
C1801 C 0.91665 0.21797 0.26675 0.0
C1802 C 0.91173 0.21244 0.22064 0.0
C1803 C 0.91187 0.1968 0.20663 0.0
C1804 C 0.89385 0.18951 0.19859 0.0
C1805 C 0.87567 0.19798 0.20494 0.0
C1806 C 0.87549 0.2131 0.2195 0.0
H1807 H 0.91821 0.2169 0.28322 0.0
H1808 H 0.90967 0.20391 0.2612 0.0
H1809 H 0.93197 0.21921 0.26049 0.0
H1810 H 0.92591 0.21835 0.22585 0.0
H1811 H 0.92609 0.19075 0.20168 0.0
H1812 H 0.7056 0.359 0.81036 0.0
H1813 H 0.73388 0.35826 0.78705 0.0
H1814 H 0.72047 0.41873 0.76909 0.0
H1815 H 0.69198 0.41956 0.79225 0.0
H1816 H 0.72813 0.38052 0.73697 0.0
H1817 H 0.78702 0.39993 0.7928 0.0
H1818 H 0.76605 0.38437 0.7997 0.0
H1819 H 0.76211 0.4104 0.79462 0.0
C1820 C 0.70869 0.37222 0.80154 0.0
C1821 C 0.69646 0.38938 0.80328 0.0
C1822 C 0.72487 0.37172 0.78815 0.0
C1823 C 0.72937 0.38843 0.77629 0.0
C1824 C 0.71726 0.40561 0.778 0.0
H1825 H 0.83391 0.421 0.7068 0.0
H1826 H 0.80604 0.41816 0.73003 0.0
C1827 C 0.70095 0.40606 0.79127 0.0
C1828 C 0.74671 0.38796 0.76214 0.0
H1829 H 0.79742 0.39509 0.75967 0.0
C1830 C 0.74331 0.38365 0.74189 0.0
C1831 C 0.76649 0.39206 0.76854 0.0
C1832 C 0.77086 0.39698 0.79008 0.0
C1833 C 0.75908 0.38362 0.72783 0.0
C1834 C 0.77903 0.38771 0.73419 0.0
C1835 C 0.78232 0.39187 0.75458 0.0
C1836 C 0.79649 0.38884 0.71994 0.0
C1837 C 0.75395 0.37986 0.70621 0.0
C1838 C 0.80103 0.37319 0.70647 0.0
C1839 C 0.81693 0.37496 0.69278 0.0
C1840 C 0.82913 0.39217 0.69247 0.0
C1841 C 0.82499 0.40746 0.70645 0.0
C1842 C 0.80894 0.40584 0.71987 0.0
H1843 H 0.73784 0.38274 0.70308 0.0
H1844 H 0.76305 0.38943 0.69621 0.0
H1845 H 0.75702 0.36392 0.70253 0.0
H1846 H 0.79225 0.35957 0.70647 0.0
H1847 H 0.81957 0.36285 0.68239 0.0
H1848 H 0.29995 0.58737 0.1822 0.0
H1849 H 0.27735 0.58912 0.211 0.0
H1850 H 0.2963 0.64978 0.22262 0.0
H1851 H 0.31869 0.64828 0.19374 0.0
H1852 H 0.29503 0.61416 0.25723 0.0
H1853 H 0.22639 0.63375 0.21387 0.0
H1854 H 0.24418 0.61634 0.20326 0.0
H1855 H 0.25101 0.6421 0.20648 0.0
C1856 C 0.29925 0.60109 0.19085 0.0
C1857 C 0.31127 0.61761 0.18587 0.0
C1858 C 0.28642 0.60204 0.2073 0.0
C1859 C 0.2853 0.61954 0.21891 0.0
C1860 C 0.29714 0.63609 0.21392 0.0
H1861 H 0.19447 0.64701 0.30803 0.0
H1862 H 0.21891 0.64885 0.28104 0.0
C1863 C 0.30999 0.63515 0.19751 0.0
C1864 C 0.27154 0.62056 0.23613 0.0
H1865 H 0.22235 0.62719 0.24811 0.0
C1866 C 0.27913 0.61704 0.25533 0.0
C1867 C 0.25098 0.62476 0.23354 0.0
C1868 C 0.24249 0.62955 0.21323 0.0
C1869 C 0.26649 0.61712 0.27206 0.0
C1870 C 0.24565 0.6203 0.26938 0.0
C1871 C 0.23824 0.62446 0.25017 0.0
C1872 C 0.23121 0.61927 0.2862 0.0
C1873 C 0.27566 0.61414 0.29245 0.0
C1874 C 0.22984 0.60198 0.29804 0.0
C1875 C 0.21591 0.60094 0.31357 0.0
C1876 C 0.20278 0.617 0.31724 0.0
C1877 C 0.2041 0.63423 0.30531 0.0
C1878 C 0.21816 0.63536 0.28995 0.0
H1879 H 0.29176 0.61839 0.29265 0.0
H1880 H 0.2677 0.62309 0.30397 0.0
H1881 H 0.27466 0.59807 0.29653 0.0
H1882 H 0.23936 0.58916 0.29511 0.0
H1883 H 0.21518 0.58743 0.32245 0.0
H1884 H 0.19363 0.86294 0.19853 0.0
H1885 H 0.21742 0.86253 0.22643 0.0
H1886 H 0.23703 0.92202 0.21108 0.0
H1887 H 0.21327 0.92253 0.18295 0.0
H1888 H 0.26836 0.88584 0.22057 0.0
H1889 H 0.21025 0.9039 0.27742 0.0
H1890 H 0.20428 0.88691 0.25728 0.0
H1891 H 0.20833 0.91291 0.25208 0.0
C1892 C 0.20303 0.87594 0.20105 0.0
C1893 C 0.20149 0.89284 0.18862 0.0
C1894 C 0.21662 0.87565 0.21697 0.0
C1895 C 0.22882 0.8923 0.22088 0.0
C1896 C 0.2277 0.90902 0.20826 0.0
H1897 H 0.29834 0.92091 0.32781 0.0
H1898 H 0.27513 0.92124 0.29925 0.0
C1899 C 0.21417 0.90928 0.1922 0.0
C1900 C 0.24244 0.89233 0.23842 0.0
H1901 H 0.24307 0.89826 0.28907 0.0
C1902 C 0.26291 0.8886 0.23556 0.0
C1903 C 0.23522 0.89595 0.25789 0.0
C1904 C 0.21333 0.90021 0.26155 0.0
C1905 C 0.2764 0.88836 0.25173 0.0
C1906 C 0.26916 0.89176 0.27135 0.0
C1907 C 0.24865 0.89565 0.2741 0.0
C1908 C 0.28259 0.89128 0.28917 0.0
C1909 C 0.29833 0.88478 0.24754 0.0
C1910 C 0.29403 0.87415 0.29342 0.0
C1911 C 0.30734 0.87401 0.30957 0.0
C1912 C 0.30932 0.89087 0.3221 0.0
C1913 C 0.29718 0.90771 0.31844 0.0
C1914 C 0.28396 0.90791 0.30209 0.0
H1915 H 0.30215 0.88834 0.23182 0.0
H1916 H 0.30799 0.89392 0.25755 0.0
H1917 H 0.30185 0.86873 0.25003 0.0
H1918 H 0.29278 0.86088 0.28416 0.0
H1919 H 0.31622 0.86066 0.31215 0.0
H1920 H 0.09072 0.71759 0.6794 0.0
H1921 H 0.09222 0.74101 0.70758 0.0
H1922 H 0.1459 0.7121 0.72895 0.0
H1923 H 0.14446 0.68846 0.70086 0.0
H1924 H 0.09402 0.72841 0.75097 0.0
H1925 H 0.15872 0.77462 0.72618 0.0
H1926 H 0.14405 0.75986 0.70882 0.0
H1927 H 0.16118 0.74775 0.72555 0.0
C1928 C 0.10284 0.71616 0.69008 0.0
C1929 C 0.11737 0.70102 0.68793 0.0
C1930 C 0.10369 0.72959 0.70617 0.0
C1931 C 0.11924 0.7284 0.72027 0.0
C1932 C 0.13386 0.7134 0.71814 0.0
H1933 H 0.14601 0.80736 0.82179 0.0
H1934 H 0.14794 0.78277 0.7946 0.0
C1935 C 0.13291 0.6998 0.70216 0.0
C1936 C 0.11961 0.74243 0.73755 0.0
H1937 H 0.14352 0.78355 0.7566 0.0
C1938 C 0.10484 0.74047 0.75225 0.0
C1939 C 0.134 0.75787 0.73939 0.0
C1940 C 0.15039 0.76035 0.72416 0.0
C1941 C 0.10397 0.75357 0.7687 0.0
C1942 C 0.11769 0.76976 0.77007 0.0
C1943 C 0.13279 0.7714 0.75553 0.0
C1944 C 0.11658 0.78509 0.7864 0.0
C1945 C 0.08867 0.74943 0.7847 0.0
C1946 C 0.09845 0.79498 0.79079 0.0
C1947 C 0.09728 0.80873 0.80661 0.0
C1948 C 0.11439 0.81345 0.81786 0.0
C1949 C 0.13266 0.80414 0.81313 0.0
C1950 C 0.13374 0.79005 0.79762 0.0
H1951 H 0.08465 0.73328 0.78513 0.0
H1952 H 0.09424 0.75391 0.79969 0.0
H1953 H 0.07476 0.75794 0.78138 0.0
H1954 H 0.08514 0.7921 0.78197 0.0
H1955 H 0.08308 0.81589 0.80988 0.0
H1956 H 0.36456 0.71386 0.83281 0.0
H1957 H 0.36249 0.73788 0.80523 0.0
H1958 H 0.42019 0.71797 0.78416 0.0
H1959 H 0.42226 0.694 0.8119 0.0
H1960 H 0.39 0.76963 0.79511 0.0
H1961 H 0.38248 0.71327 0.73452 0.0
H1962 H 0.37817 0.70736 0.76043 0.0
H1963 H 0.40331 0.70915 0.75109 0.0
C1964 C 0.37676 0.71463 0.82231 0.0
C1965 C 0.39356 0.70212 0.8245 0.0
C1966 C 0.37561 0.72838 0.80656 0.0
C1967 C 0.39106 0.72959 0.79243 0.0
C1968 C 0.40796 0.71717 0.79471 0.0
H1969 H 0.41709 0.79696 0.68565 0.0
H1970 H 0.41603 0.77407 0.71395 0.0
C1971 C 0.40923 0.70362 0.81065 0.0
C1972 C 0.38969 0.74404 0.77552 0.0
H1973 H 0.38818 0.74691 0.72459 0.0
C1974 C 0.38949 0.76469 0.77968 0.0
C1975 C 0.38888 0.7376 0.75539 0.0
C1976 C 0.38803 0.71564 0.75 0.0
C1977 C 0.3893 0.77904 0.7643 0.0
C1978 C 0.38886 0.77261 0.74412 0.0
C1979 C 0.38863 0.75192 0.74 0.0
C1980 C 0.38937 0.787 0.72705 0.0
C1981 C 0.3903 0.80095 0.76986 0.0
C1982 C 0.37467 0.80197 0.72476 0.0
C1983 C 0.37536 0.81531 0.70861 0.0
C1984 C 0.39061 0.81381 0.6942 0.0
C1985 C 0.40517 0.79869 0.69646 0.0
C1986 C 0.40455 0.78549 0.71265 0.0
H1987 H 0.39594 0.80316 0.78532 0.0
H1988 H 0.40016 0.80931 0.75949 0.0
H1989 H 0.37504 0.80751 0.76898 0.0
H1990 H 0.36248 0.80318 0.73532 0.0
H1991 H 0.3637 0.82654 0.70723 0.0
H1992 H 0.14473 0.57808 0.64621 0.0
H1993 H 0.16815 0.54993 0.64669 0.0
H1994 H 0.14239 0.52936 0.70187 0.0
H1995 H 0.11852 0.55724 0.70113 0.0
H1996 H 0.19533 0.52574 0.67265 0.0
H1997 H 0.12042 0.49238 0.65648 0.0
H1998 H 0.12446 0.51904 0.657 0.0
H1999 H 0.12285 0.50524 0.67992 0.0
C2000 C 0.14478 0.56816 0.65897 0.0
C2001 C 0.1297 0.56953 0.67347 0.0
C2002 C 0.15819 0.55209 0.65925 0.0
C2003 C 0.15668 0.53741 0.67412 0.0
C2004 C 0.14364 0.5405 0.69021 0.0
H2005 H 0.16195 0.41834 0.63277 0.0
H2006 H 0.16737 0.44099 0.66075 0.0
C2007 C 0.13002 0.55638 0.68978 0.0
C2008 C 0.16438 0.5171 0.66988 0.0
H2009 H 0.14804 0.47193 0.65287 0.0
C2010 C 0.1851 0.51372 0.66874 0.0
C2011 C 0.15092 0.50161 0.66455 0.0
C2012 C 0.12844 0.50468 0.66436 0.0
C2013 C 0.19275 0.49524 0.66199 0.0
C2014 C 0.17925 0.47998 0.6559 0.0
C2015 C 0.15854 0.48328 0.65791 0.0
C2016 C 0.18536 0.46208 0.64407 0.0
C2017 C 0.21515 0.49255 0.66109 0.0
C2018 C 0.19603 0.46485 0.62628 0.0
C2019 C 0.19386 0.45125 0.61059 0.0
C2020 C 0.18 0.43543 0.61205 0.0
C2021 C 0.17234 0.43064 0.63093 0.0
C2022 C 0.17535 0.44374 0.64698 0.0
H2023 H 0.22251 0.50022 0.67389 0.0
H2024 H 0.21954 0.4765 0.66116 0.0
H2025 H 0.2209 0.49963 0.64728 0.0
H2026 H 0.20389 0.47871 0.62339 0.0
H2027 H 0.20075 0.45479 0.59642 0.0
H2028 H 0.55916 0.69886 0.09863 0.0
H2029 H 0.53582 0.7009 0.12619 0.0
H2030 H 0.57272 0.66013 0.16009 0.0
H2031 H 0.595 0.65634 0.1317 0.0
H2032 H 0.53999 0.64311 0.14905 0.0
H2033 H 0.51761 0.71637 0.18012 0.0
H2034 H 0.5181 0.71742 0.15345 0.0
H2035 H 0.54104 0.71295 0.16706 0.0
C2036 C 0.56268 0.69078 0.1122 0.0
C2037 C 0.5783 0.67656 0.11256 0.0
C2038 C 0.54946 0.69232 0.12821 0.0
C2039 C 0.55222 0.68032 0.14514 0.0
C2040 C 0.57014 0.66933 0.14703 0.0
H2041 H 0.45864 0.61162 0.19853 0.0
H2042 H 0.48615 0.6357 0.20135 0.0
C2043 C 0.58296 0.66718 0.13072 0.0
C2044 C 0.53438 0.67405 0.1567 0.0
H2045 H 0.49098 0.69082 0.1781 0.0
C2046 C 0.5297 0.65355 0.15608 0.0
C2047 C 0.52049 0.68767 0.1652 0.0
C2048 C 0.52471 0.70981 0.16662 0.0
C2049 C 0.5113 0.64637 0.16272 0.0
C2050 C 0.49727 0.65999 0.17088 0.0
C2051 C 0.50199 0.68044 0.17216 0.0
C2052 C 0.47694 0.65296 0.17565 0.0
C2053 C 0.50653 0.62439 0.1596 0.0
C2054 C 0.46171 0.65607 0.16151 0.0
C2055 C 0.44592 0.64246 0.16 0.0
C2056 C 0.44546 0.62569 0.17256 0.0
C2057 C 0.45898 0.62437 0.18856 0.0
C2058 C 0.47453 0.6382 0.19029 0.0
H2059 H 0.51766 0.61677 0.14988 0.0
H2060 H 0.50651 0.61664 0.17422 0.0
H2061 H 0.49148 0.62252 0.15272 0.0
H2062 H 0.46335 0.66741 0.15009 0.0
H2063 H 0.43549 0.64376 0.14764 0.0
H2064 H 0.37083 0.93112 0.64741 0.0
H2065 H 0.34557 0.95762 0.64769 0.0
H2066 H 0.36818 0.97868 0.70434 0.0
H2067 H 0.39391 0.95248 0.70382 0.0
H2068 H 0.31626 0.98048 0.67481 0.0
H2069 H 0.38985 0.01625 0.65832 0.0
H2070 H 0.38653 0.98947 0.65812 0.0
H2071 H 0.38819 1.00278 0.6814 0.0
C2072 C 0.36972 0.94077 0.6604 0.0
C2073 C 0.38442 0.94017 0.67544 0.0
C2074 C 0.35523 0.95583 0.66059 0.0
C2075 C 0.35529 0.97019 0.6759 0.0
C2076 C 0.36802 0.96769 0.6924 0.0
H2077 H 0.3447 0.09035 0.6388 0.0
H2078 H 0.34177 0.06588 0.66532 0.0
C2079 C 0.38274 0.95285 0.69206 0.0
C2080 C 0.34685 0.99013 0.67173 0.0
H2081 H 0.36152 0.0359 0.65535 0.0
C2082 C 0.32603 0.99285 0.67097 0.0
C2083 C 0.35975 0.00601 0.66643 0.0
C2084 C 0.38231 1.00356 0.66592 0.0
C2085 C 0.31771 0.0112 0.6648 0.0
C2086 C 0.33064 0.02695 0.65891 0.0
C2087 C 0.35148 0.02418 0.66031 0.0
C2088 C 0.3237 0.04509 0.6481 0.0
C2089 C 0.29522 0.01329 0.66442 0.0
C2090 C 0.31234 0.04281 0.63059 0.0
C2091 C 0.31304 0.0574 0.61579 0.0
C2092 C 0.32612 0.07383 0.61775 0.0
C2093 C 0.33479 0.0777 0.63651 0.0
C2094 C 0.33322 0.06357 0.65173 0.0
H2095 H 0.28839 1.00494 0.677 0.0
H2096 H 0.29041 0.02919 0.66529 0.0
H2097 H 0.28933 0.00658 0.65041 0.0
H2098 H 0.30489 0.02882 0.62716 0.0
H2099 H 0.30534 0.05449 0.60183 0.0
H2100 H 0.94358 0.80252 0.11548 0.0
H2101 H 0.96979 0.80029 0.14094 0.0
H2102 H 0.9527 0.85854 0.16333 0.0
H2103 H 0.92629 0.86052 0.1383 0.0
H2104 H 0.99659 0.82871 0.13306 0.0
H2105 H 0.97768 0.83433 0.2128 0.0
H2106 H 0.96018 0.82482 0.1944 0.0
H2107 H 0.96285 0.85142 0.19839 0.0
C2108 C 0.9447 0.81426 0.12663 0.0
C2109 C 0.93317 0.83179 0.12487 0.0
C2110 C 0.95963 0.81297 0.1412 0.0
C2111 C 0.9633 0.82927 0.15399 0.0
C2112 C 0.94997 0.84559 0.15393 0.0
H2113 H 0.04004 0.91413 0.18679 0.0
H2114 H 0.01611 0.88691 0.18789 0.0
C2115 C 0.93489 0.84679 0.13949 0.0
C2116 C 0.98368 0.83228 0.16224 0.0
H2117 H 0.0081 0.85221 0.20234 0.0
C2118 C 0.99937 0.8332 0.1484 0.0
C2119 C 0.98718 0.8382 0.18217 0.0
C2120 C 0.97106 0.83695 0.19781 0.0
C2121 C 0.01767 0.84222 0.1532 0.0
C2122 C 0.02072 0.84965 0.17284 0.0
C2123 C 0.00578 0.84659 0.1873 0.0
C2124 C 0.03686 0.86428 0.17722 0.0
C2125 C 0.03245 0.84567 0.13649 0.0
C2126 C 0.05694 0.8605 0.17218 0.0
C2127 C 0.07044 0.8764 0.17038 0.0
C2128 C 0.06421 0.89614 0.1745 0.0
C2129 C 0.04501 0.89928 0.1825 0.0
C2130 C 0.03139 0.88358 0.18354 0.0
H2131 H 0.02609 0.8419 0.1216 0.0
H2132 H 0.03732 0.86157 0.13614 0.0
H2133 H 0.04583 0.83606 0.13877 0.0
H2134 H 0.06176 0.84554 0.16813 0.0
H2135 H 0.08522 0.87334 0.1645 0.0
H2136 H 0.11609 0.95568 0.80295 0.0
H2137 H 0.14111 0.98234 0.80137 0.0
H2138 H 0.16793 0.96071 0.85585 0.0
H2139 H 0.14327 0.93387 0.85721 0.0
H2140 H 0.134 1.00509 0.83506 0.0
H2141 H 0.21527 0.98952 0.82938 0.0
H2142 H 0.1964 0.97288 0.81917 0.0
H2143 H 0.20202 0.97263 0.84542 0.0
C2144 C 0.12805 0.95599 0.81392 0.0
C2145 C 0.12765 0.94303 0.83036 0.0
C2146 C 0.14241 0.97112 0.81295 0.0
C2147 C 0.15632 0.97358 0.82853 0.0
C2148 C 0.15759 0.95893 0.84347 0.0
H2149 H 0.19838 0.05309 0.91034 0.0
H2150 H 0.19982 0.02984 0.88257 0.0
C2151 C 0.14337 0.94364 0.84433 0.0
C2152 C 0.1641 0.99385 0.8329 0.0
H2153 H 0.2058 0.01961 0.84732 0.0
C2154 C 0.14975 0.00856 0.83719 0.0
C2155 C 0.18457 0.99796 0.83618 0.0
C2156 C 0.20048 0.98244 0.83215 0.0
C2157 C 0.15501 0.02668 0.84628 0.0
C2158 C 0.17559 0.03094 0.84988 0.0
C2159 C 0.19011 0.01664 0.84427 0.0
C2160 C 0.18166 0.04809 0.86279 0.0
C2161 C 0.13811 0.03983 0.85378 0.0
C2162 C 0.17325 0.06725 0.86026 0.0
C2163 C 0.17098 0.07994 0.87677 0.0
C2164 C 0.17835 0.07403 0.89554 0.0
C2165 C 0.19129 0.05736 0.89643 0.0
C2166 C 0.19244 0.04413 0.88036 0.0
H2167 H 0.12342 0.03199 0.85353 0.0
H2168 H 0.14094 0.04479 0.86936 0.0
H2169 H 0.13664 0.0532 0.8441 0.0
H2170 H 0.1661 0.07127 0.84632 0.0
H2171 H 0.16154 0.09306 0.87522 0.0
H2172 H 0.93169 0.6506 0.37057 0.0
H2173 H 0.95707 0.65019 0.34439 0.0
H2174 H 0.97505 0.71007 0.36098 0.0
H2175 H 0.9503 0.7101 0.38792 0.0
H2176 H 0.97646 0.67289 0.31237 0.0
H2177 H 0.01689 0.67078 0.38518 0.0
H2178 H 0.99009 0.66888 0.38331 0.0
H2179 H 1.00211 0.69289 0.3812 0.0
C2180 C 0.94051 0.66398 0.36803 0.0
C2181 C 0.93953 0.68025 0.38132 0.0
C2182 C 0.95484 0.66381 0.35296 0.0
C2183 C 0.96806 0.67999 0.35106 0.0
C2184 C 0.96498 0.69744 0.3624 0.0
H2185 H 0.08864 0.64753 0.3429 0.0
H2186 H 0.06426 0.67282 0.33236 0.0
C2187 C 0.95102 0.69741 0.37782 0.0
C2188 C 0.98789 0.67623 0.34229 0.0
H2189 H 0.0356 0.66615 0.35681 0.0
C2190 C 0.98962 0.6719 0.32187 0.0
C2191 C 1.00478 0.67437 0.35494 0.0
C2192 C 1.00345 0.67676 0.37738 0.0
C2193 C 0.00792 0.66536 0.3138 0.0
C2194 C 0.02474 0.66323 0.32657 0.0
C2195 C 0.02301 0.66846 0.34679 0.0
C2196 C 0.04261 0.65126 0.32126 0.0
C2197 C 0.00877 0.66004 0.29194 0.0
C2198 C 0.03959 0.6311 0.31616 0.0
C2199 C 0.05363 0.61681 0.32178 0.0
C2200 C 0.07056 0.6225 0.33292 0.0
C2201 C 0.07537 0.64284 0.33478 0.0
C2202 C 0.06152 0.65726 0.32857 0.0
H2203 H 0.99934 0.67048 0.28308 0.0
H2204 H 0.02432 0.66038 0.28613 0.0
H2205 H 1.00256 0.64476 0.28973 0.0
H2206 H 0.02526 0.62589 0.3106 0.0
H2207 H 0.0501 0.60112 0.31945 0.0
H2208 H 0.34485 0.42541 0.86503 0.0
H2209 H 0.34043 0.45056 0.83915 0.0
H2210 H 0.32084 0.49327 0.88348 0.0
H2211 H 0.32231 0.46753 0.90881 0.0
H2212 H 0.30804 0.50518 0.84926 0.0
H2213 H 0.38866 0.48427 0.84103 0.0
H2214 H 0.37122 0.46552 0.83306 0.0
H2215 H 0.37284 0.47243 0.85906 0.0
C2216 C 0.33871 0.43984 0.8692 0.0
C2217 C 0.33506 0.44478 0.8893 0.0
C2218 C 0.33643 0.45432 0.85435 0.0
C2219 C 0.3316 0.47414 0.85959 0.0
C2220 C 0.32519 0.47824 0.87908 0.0
H2221 H 0.37885 0.58142 0.86365 0.0
H2222 H 0.35125 0.55766 0.86009 0.0
C2223 C 0.32653 0.46357 0.89372 0.0
C2224 C 0.33711 0.49121 0.84662 0.0
H2225 H 0.3786 0.51448 0.82847 0.0
C2226 C 0.32336 0.50706 0.84423 0.0
C2227 C 0.35719 0.49377 0.84018 0.0
C2228 C 0.37337 0.47822 0.84356 0.0
C2229 C 0.32956 0.52585 0.83717 0.0
C2230 C 0.34981 0.52858 0.83189 0.0
C2231 C 0.36298 0.51222 0.83234 0.0
C2232 C 0.35917 0.54854 0.83007 0.0
C2233 C 0.31476 0.54291 0.83655 0.0
C2234 C 0.37204 0.55218 0.81396 0.0
C2235 C 0.38808 0.56538 0.8162 0.0
C2236 C 0.39107 0.57535 0.8344 0.0
C2237 C 0.37663 0.5739 0.84945 0.0
C2238 C 0.36072 0.56049 0.84731 0.0
H2239 H 0.29926 0.53731 0.83418 0.0
H2240 H 0.31513 0.55097 0.85106 0.0
H2241 H 0.31852 0.55372 0.82458 0.0
H2242 H 0.37119 0.54299 0.80062 0.0
H2243 H 0.39917 0.56635 0.80448 0.0
H2244 H 0.47033 0.90762 0.31366 0.0
H2245 H 0.49446 0.88049 0.31494 0.0
H2246 H 0.45011 0.84206 0.34176 0.0
H2247 H 0.42626 0.86981 0.34185 0.0
H2248 H 0.47913 0.8469 0.36563 0.0
H2249 H 0.51423 0.82903 0.29405 0.0
H2250 H 0.51337 0.85574 0.29615 0.0
H2251 H 0.49028 0.84163 0.29537 0.0
C2252 C 0.46554 0.89322 0.31933 0.0
C2253 C 0.44664 0.89101 0.3282 0.0
C2254 C 0.47927 0.8775 0.31967 0.0
C2255 C 0.47417 0.85911 0.32842 0.0
C2256 C 0.45439 0.8561 0.3349 0.0
H2257 H 0.58124 0.86656 0.37638 0.0
H2258 H 0.55565 0.8607 0.35091 0.0
C2259 C 0.44073 0.87199 0.33492 0.0
C2260 C 0.4905 0.84585 0.33558 0.0
H2261 H 0.53792 0.83122 0.32329 0.0
C2262 C 0.49164 0.84263 0.35623 0.0
C2263 C 0.50688 0.84027 0.32341 0.0
C2264 C 0.50595 0.8417 0.30099 0.0
C2265 C 0.50947 0.83641 0.3653 0.0
C2266 C 0.52655 0.83285 0.35328 0.0
C2267 C 0.52485 0.83407 0.33245 0.0
C2268 C 0.54665 0.83187 0.36253 0.0
C2269 C 0.5104 0.83581 0.38786 0.0
C2270 C 0.55125 0.81676 0.3763 0.0
C2271 C 0.56571 0.82021 0.39102 0.0
C2272 C 0.57591 0.83863 0.39179 0.0
C2273 C 0.57359 0.85225 0.37605 0.0
C2274 C 0.55895 0.84889 0.36149 0.0
H2275 H 0.49637 0.84133 0.39489 0.0
H2276 H 0.51287 0.82016 0.39283 0.0
H2277 H 0.52304 0.84508 0.39347 0.0
H2278 H 0.54206 0.80341 0.37715 0.0
H2279 H 0.56735 0.80948 0.40301 0.0
H2280 H 0.70781 0.11395 0.55762 0.0
H2281 H 0.71015 0.1384 0.53065 0.0
H2282 H 0.65633 0.16719 0.55193 0.0
H2283 H 0.65437 0.14324 0.57912 0.0
H2284 H 0.67889 0.13258 0.50692 0.0
H2285 H 0.6825 0.21344 0.52358 0.0
H2286 H 0.69157 0.19467 0.54083 0.0
H2287 H 0.66532 0.20104 0.53991 0.0
C2288 C 0.69722 0.12626 0.55716 0.0
C2289 C 0.68081 0.12668 0.57019 0.0
C2290 C 0.69859 0.14025 0.54182 0.0
C2291 C 0.68339 0.15459 0.53919 0.0
C2292 C 0.66847 0.15658 0.55382 0.0
H2293 H 0.59683 0.1891 0.46392 0.0
H2294 H 0.62467 0.19127 0.48726 0.0
C2295 C 0.66726 0.14275 0.56933 0.0
C2296 C 0.67934 0.16251 0.51899 0.0
H2297 H 0.66174 0.20378 0.4947 0.0
C2298 C 0.67585 0.14827 0.50395 0.0
C2299 C 0.67507 0.1829 0.51532 0.0
C2300 C 0.679 0.19888 0.53077 0.0
C2301 C 0.66626 0.15342 0.48614 0.0
C2302 C 0.6609 0.17372 0.48281 0.0
C2303 C 0.666 0.18829 0.49716 0.0
C2304 C 0.64659 0.17904 0.46677 0.0
C2305 C 0.66005 0.13662 0.4722 0.0
C2306 C 0.64998 0.17313 0.44694 0.0
C2307 C 0.6338 0.17077 0.43387 0.0
C2308 C 0.6142 0.17517 0.44027 0.0
C2309 C 0.61157 0.18453 0.45891 0.0
C2310 C 0.62759 0.18618 0.47217 0.0
H2311 H 0.66229 0.12158 0.47893 0.0
H2312 H 0.64399 0.13802 0.46804 0.0
H2313 H 0.66916 0.13724 0.45841 0.0
H2314 H 0.66474 0.16832 0.44224 0.0
H2315 H 0.63652 0.16386 0.4195 0.0
H2316 H 0.91249 0.19824 0.04271 0.0
H2317 H 0.88594 0.20024 0.01793 0.0
H2318 H 0.84487 0.17252 0.05907 0.0
H2319 H 0.87176 0.16929 0.08346 0.0
H2320 H 0.85434 0.14861 0.02969 0.0
H2321 H 0.83428 0.22113 0.99611 0.0
H2322 H 0.86093 0.21929 0.99881 0.0
H2323 H 0.8453 0.2193 0.02072 0.0
C2324 C 0.89761 0.19321 0.04671 0.0
C2325 C 0.89437 0.18288 0.06464 0.0
C2326 C 0.88227 0.19475 0.03266 0.0
C2327 C 0.86343 0.18633 0.03655 0.0
C2328 C 0.85933 0.17909 0.05577 0.0
H2329 H 0.80855 0.11291 0.94649 0.0
H2330 H 0.80616 0.1401 0.97099 0.0
C2331 C 0.87477 0.1772 0.0697 0.0
C2332 C 0.85135 0.17909 0.01948 0.0
H2333 H 0.83534 0.19217 0.97286 0.0
C2334 C 0.84942 0.15823 0.01761 0.0
C2335 C 0.84542 0.19158 0.00351 0.0
C2336 C 0.84645 0.21409 0.00502 0.0
C2337 C 0.84327 0.14942 0.99973 0.0
C2338 C 0.83826 0.16186 0.98341 0.0
C2339 C 0.83903 0.18276 0.98551 0.0
C2340 C 0.83498 0.15281 0.96363 0.0
C2341 C 0.84385 0.12679 0.99799 0.0
C2342 C 0.85114 0.15226 0.95029 0.0
C2343 C 0.8524 0.1369 0.93617 0.0
C2344 C 0.83755 0.12207 0.93549 0.0
C2345 C 0.82012 0.12429 0.9469 0.0
C2346 C 0.81871 0.13983 0.96077 0.0
H2347 H 0.85094 0.1196 0.01118 0.0
H2348 H 0.82835 0.12094 0.9966 0.0
H2349 H 0.85228 0.12212 0.98449 0.0
H2350 H 0.86387 0.16212 0.95238 0.0
H2351 H 0.86598 0.13532 0.92747 0.0
H2352 H 0.85802 0.37331 0.58547 0.0
H2353 H 0.8553 0.34548 0.5619 0.0
H2354 H 0.80847 0.37683 0.53033 0.0
H2355 H 0.80966 0.40364 0.55497 0.0
H2356 H 0.80813 0.33807 0.51982 0.0
H2357 H 0.88561 0.36869 0.51569 0.0
H2358 H 0.88043 0.35584 0.53851 0.0
H2359 H 0.8672 0.37863 0.53255 0.0
C2360 C 0.84625 0.37371 0.57431 0.0
C2361 C 0.83478 0.39113 0.57136 0.0
C2362 C 0.84485 0.35785 0.56068 0.0
C2363 C 0.83261 0.35976 0.54367 0.0
C2364 C 0.81846 0.37528 0.54301 0.0
H2365 H 0.86437 0.35868 0.42601 0.0
H2366 H 0.84024 0.35755 0.45323 0.0
C2367 C 0.8193 0.39073 0.55704 0.0
C2368 C 0.83798 0.34947 0.52478 0.0
H2369 H 0.87587 0.34653 0.49082 0.0
C2370 C 0.82303 0.33958 0.5136 0.0
C2371 C 0.85727 0.35216 0.51632 0.0
C2372 C 0.87349 0.36456 0.52624 0.0
C2373 C 0.82691 0.33245 0.49418 0.0
C2374 C 0.84618 0.33497 0.48611 0.0
C2375 C 0.86117 0.34437 0.49738 0.0
C2376 C 0.85145 0.32974 0.46541 0.0
C2377 C 0.81044 0.32285 0.48211 0.0
C2378 C 0.86448 0.31355 0.46231 0.0
C2379 C 0.8783 0.31416 0.44674 0.0
C2380 C 0.87927 0.33107 0.43434 0.0
C2381 C 0.86395 0.34548 0.43537 0.0
C2382 C 0.85007 0.34482 0.45092 0.0
H2383 H 0.79654 0.32079 0.49093 0.0
H2384 H 0.80699 0.33238 0.46898 0.0
H2385 H 0.81554 0.30807 0.47638 0.0
H2386 H 0.86587 0.3019 0.47345 0.0
H2387 H 0.8899 0.3028 0.44611 0.0
H2388 H 0.70272 0.40471 0.95306 0.0
H2389 H 0.70799 0.38204 0.98111 0.0
H2390 H 0.66397 0.34151 0.95664 0.0
H2391 H 0.65874 0.36414 0.92845 0.0
H2392 H 0.66515 0.3803 0.99667 0.0
H2393 H 0.7043 0.30657 0.9947 0.0
H2394 H 0.71323 0.32794 0.98074 0.0
H2395 H 0.69099 0.31514 0.97283 0.0
C2396 C 0.69495 0.39046 0.95318 0.0
C2397 C 0.67999 0.38628 0.939 0.0
C2398 C 0.69816 0.3774 0.96905 0.0
C2399 C 0.68633 0.36017 0.97093 0.0
C2400 C 0.67345 0.3546 0.95527 0.0
H2401 H 0.61536 0.30885 0.05715 0.0
H2402 H 0.642 0.30992 0.03239 0.0
C2403 C 0.67032 0.36762 0.93928 0.0
C2404 C 0.68166 0.35315 0.99116 0.0
H2405 H 0.68386 0.31342 0.02301 0.0
C2406 C 0.66961 0.36585 1.00266 0.0
C2407 C 0.68704 0.33409 0.99844 0.0
C2408 C 0.69966 0.32004 0.98614 0.0
C2409 C 0.66219 0.35986 0.02109 0.0
C2410 C 0.66782 0.34089 0.02876 0.0
C2411 C 0.68012 0.32816 0.01735 0.0
C2412 C 0.65852 0.33351 0.04728 0.0
C2413 C 0.64731 0.37345 0.03148 0.0
C2414 C 0.66021 0.34489 0.06487 0.0
C2415 C 0.64454 0.34496 0.0786 0.0
C2416 C 0.62748 0.33307 0.07514 0.0
C2417 C 0.62802 0.31868 0.05975 0.0
C2418 C 0.64338 0.31907 0.04571 0.0
H2419 H 0.64152 0.38539 0.02147 0.0
H2420 H 0.63431 0.36477 0.03707 0.0
H2421 H 0.65469 0.38087 0.04439 0.0
H2422 H 0.67208 0.35585 0.06647 0.0
H2423 H 0.64476 0.35608 0.09041 0.0
H2424 H 0.86952 0.42144 0.3907 0.0
H2425 H 0.86733 0.45784 0.39706 0.0
H2426 H 0.87379 0.46906 0.33407 0.0
H2427 H 0.87595 0.43315 0.32771 0.0
H2428 H 0.89832 0.48763 0.38485 0.0
H2429 H 0.82342 0.50176 0.35145 0.0
H2430 H 0.83136 0.47725 0.35969 0.0
H2431 H 0.83986 0.48689 0.33619 0.0
C2432 C 0.87006 0.43174 0.37826 0.0
C2433 C 0.87286 0.42458 0.35874 0.0
C2434 C 0.86899 0.45244 0.38189 0.0
C2435 C 0.87029 0.46606 0.36599 0.0
C2436 C 0.87256 0.4588 0.3465 0.0
H2437 H 0.87005 0.59447 0.34635 0.0
H2438 H 0.87545 0.55807 0.34311 0.0
C2439 C 0.87384 0.43829 0.34292 0.0
C2440 C 0.86997 0.48796 0.36942 0.0
H2441 H 0.84403 0.53031 0.35723 0.0
C2442 C 0.88637 0.49699 0.37905 0.0
C2443 C 0.85444 0.50007 0.36164 0.0
C2444 C 0.83617 0.49104 0.35181 0.0
C2445 C 0.88782 0.51795 0.38068 0.0
C2446 C 0.87243 0.53005 0.37257 0.0
C2447 C 0.85595 0.52098 0.36317 0.0
C2448 C 0.8724 0.55214 0.37469 0.0
C2449 C 0.90594 0.52707 0.39067 0.0
C2450 C 0.86927 0.56076 0.39351 0.0
C2451 C 0.86602 0.58134 0.39531 0.0
C2452 C 0.866 0.5937 0.37837 0.0
C2453 C 0.87025 0.58527 0.35964 0.0
C2454 C 0.87322 0.56454 0.35779 0.0
H2455 H 0.91835 0.51606 0.39227 0.0
H2456 H 0.91142 0.54015 0.38207 0.0
H2457 H 0.90174 0.53243 0.40578 0.0
H2458 H 0.86832 0.55145 0.40668 0.0
H2459 H 0.86281 0.58751 0.40991 0.0
H2460 H 0.4282 0.36515 0.90825 0.0
H2461 H 0.46424 0.36984 0.90424 0.0
H2462 H 0.45655 0.37319 0.84048 0.0
H2463 H 0.42005 0.36863 0.84443 0.0
H2464 H 0.48635 0.34032 0.86389 0.0
H2465 H 0.49752 0.42195 0.87773 0.0
H2466 H 0.47881 0.4086 0.89181 0.0
H2467 H 0.4752 0.41245 0.86561 0.0
C2468 C 0.43407 0.36729 0.89336 0.0
C2469 C 0.42126 0.36652 0.87663 0.0
C2470 C 0.4547 0.36998 0.89112 0.0
C2471 C 0.46308 0.37183 0.8721 0.0
C2472 C 0.45033 0.37187 0.85532 0.0
H2473 H 0.58329 0.37459 0.8275 0.0
H2474 H 0.5473 0.37238 0.83318 0.0
C2475 C 0.42949 0.36941 0.85758 0.0
C2476 C 0.48527 0.37198 0.86996 0.0
H2477 H 0.52661 0.40203 0.87412 0.0
C2478 C 0.49516 0.35381 0.86606 0.0
C2479 C 0.49671 0.38954 0.87309 0.0
C2480 C 0.48667 0.40935 0.87726 0.0
C2481 C 0.51621 0.35278 0.86513 0.0
C2482 C 0.52768 0.37033 0.86815 0.0
C2483 C 0.5178 0.38852 0.87211 0.0
C2484 C 0.54978 0.37039 0.86524 0.0
C2485 C 0.5262 0.33296 0.86084 0.0
C2486 C 0.56326 0.36958 0.88144 0.0
C2487 C 0.58412 0.3706 0.87822 0.0
C2488 C 0.59165 0.37275 0.85877 0.0
C2489 C 0.57801 0.37301 0.84268 0.0
C2490 C 0.55739 0.37179 0.84587 0.0
H2491 H 0.5154 0.32029 0.86102 0.0
H2492 H 0.53337 0.33351 0.84593 0.0
H2493 H 0.53818 0.33007 0.87201 0.0
H2494 H 0.55764 0.36849 0.89654 0.0
H2495 H 0.59422 0.37062 0.8909 0.0
H2496 H 0.65 0.92641 0.33747 0.0
H2497 H 0.64528 0.96262 0.33869 0.0
H2498 H 0.63283 0.95937 0.40149 0.0
H2499 H 0.63775 0.92258 0.40052 0.0
H2500 H 0.60614 0.98722 0.37337 0.0
H2501 H 0.68852 0.9995 0.37 0.0
H2502 H 0.67794 0.98058 0.35391 0.0
H2503 H 0.67775 0.97701 0.38041 0.0
C2504 C 0.64618 0.93322 0.35165 0.0
C2505 C 0.64476 0.92145 0.36904 0.0
C2506 C 0.64351 0.95406 0.35228 0.0
C2507 C 0.63913 0.96386 0.37027 0.0
C2508 C 0.63657 0.95215 0.38752 0.0
H2509 H 0.65839 0.09283 0.38822 0.0
H2510 H 0.65644 0.05635 0.39211 0.0
C2511 C 0.63939 0.93113 0.38694 0.0
C2512 C 0.63824 0.98634 0.37094 0.0
H2513 H 0.66788 0.028 0.36703 0.0
C2514 C 0.61963 0.99616 0.37215 0.0
C2515 C 0.6558 0.9981 0.36936 0.0
C2516 C 0.67621 0.9884 0.36845 0.0
C2517 C 0.61814 0.01733 0.37148 0.0
C2518 C 0.63571 0.02914 0.36935 0.0
C2519 C 0.65433 0.0192 0.36858 0.0
C2520 C 0.63532 0.05174 0.36795 0.0
C2521 C 0.59769 0.02678 0.37321 0.0
C2522 C 0.62411 0.0617 0.3531 0.0
C2523 C 0.62515 0.0827 0.35098 0.0
C2524 C 0.63728 0.09435 0.3637 0.0
C2525 C 0.64848 0.0844 0.3785 0.0
C2526 C 0.64745 0.06346 0.38065 0.0
H2527 H 0.58689 0.01662 0.38067 0.0
H2528 H 0.59834 0.04111 0.38166 0.0
H2529 H 0.59186 0.02992 0.35802 0.0
H2530 H 0.6152 0.05318 0.34256 0.0
H2531 H 0.61741 0.08967 0.33861 0.0
H2532 H 0.92616 0.11076 0.88543 0.0
H2533 H 0.96254 0.11245 0.88896 0.0
H2534 H 0.96296 0.16888 0.85791 0.0
H2535 H 0.92646 0.16728 0.85411 0.0
H2536 H 0.99092 0.11368 0.85832 0.0
H2537 H 0.99788 0.18038 0.90732 0.0
H2538 H 0.97462 0.16691 0.90415 0.0
H2539 H 0.9826 0.18455 0.88559 0.0
C2540 C 0.93385 0.12378 0.87964 0.0
C2541 C 0.92315 0.13898 0.86958 0.0
C2542 C 0.95477 0.12463 0.8816 0.0
C2543 C 0.9656 0.14086 0.87388 0.0
C2544 C 0.95498 0.15634 0.86431 0.0
H2545 H 0.08863 0.16776 0.84697 0.0
H2546 H 0.05216 0.16472 0.84969 0.0
C2547 C 0.93402 0.15543 0.86218 0.0
C2548 C 0.98803 0.14114 0.87505 0.0
H2549 H 0.02782 0.16912 0.89139 0.0
C2550 C 0.99898 0.12566 0.86581 0.0
C2551 C 0.99865 0.15667 0.88492 0.0
C2552 C 0.98788 0.17298 0.89624 0.0
C2553 C 0.02013 0.1257 0.86561 0.0
C2554 C 0.03069 0.14157 0.87492 0.0
C2555 C 0.01978 0.15686 0.88442 0.0
C2556 C 0.05299 0.14325 0.87373 0.0
C2557 C 0.03115 0.10916 0.85489 0.0
C2558 C 0.0657 0.13224 0.88645 0.0
C2559 C 0.0867 0.13414 0.88508 0.0
C2560 C 0.09529 0.14703 0.87091 0.0
C2561 C 0.08248 0.15781 0.85812 0.0
C2562 C 0.06161 0.1561 0.85966 0.0
H2563 H 0.02079 0.09818 0.84785 0.0
H2564 H 0.04089 0.11566 0.84317 0.0
H2565 H 0.04101 0.10113 0.86558 0.0
H2566 H 0.05938 0.12222 0.89743 0.0
H2567 H 0.09619 0.12543 0.89491 0.0
H2568 H 0.82915 0.92593 0.14397 0.0
H2569 H 0.83411 0.96217 0.14456 0.0
H2570 H 0.89724 0.95374 0.13399 0.0
H2571 H 0.89231 0.91704 0.1335 0.0
H2572 H 0.86172 0.98713 0.16889 0.0
H2573 H 0.87505 0.99062 0.087 0.0
H2574 H 0.86358 0.96915 0.09867 0.0
H2575 H 0.88998 0.97335 0.10137 0.0
C2576 C 0.8442 0.93174 0.14221 0.0
C2577 C 0.86037 0.91862 0.13884 0.0
C2578 C 0.84699 0.95249 0.14246 0.0
C2579 C 0.86597 0.96073 0.13908 0.0
C2580 C 0.8824 0.9477 0.13647 0.0
H2581 H 0.89991 0.08548 0.12167 0.0
H2582 H 0.89735 0.04906 0.1208 0.0
C2583 C 0.87964 0.92676 0.13645 0.0
C2584 C 0.86804 0.98296 0.13772 0.0
H2585 H 0.87411 0.02127 0.10448 0.0
C2586 C 0.86454 0.99462 0.15484 0.0
C2587 C 0.87168 0.99272 0.11937 0.0
C2588 C 0.87519 0.98093 0.10046 0.0
C2589 C 0.86467 0.01572 0.15416 0.0
C2590 C 0.86767 0.02556 0.13567 0.0
C2591 C 0.87151 0.01384 0.1186 0.0
C2592 C 0.86782 0.04795 0.13397 0.0
C2593 C 0.86209 0.02721 0.17342 0.0
C2594 C 0.85163 0.05977 0.14065 0.0
C2595 C 0.85307 0.0808 0.14121 0.0
C2596 C 0.87068 0.09044 0.13492 0.0
C2597 C 0.88613 0.0786 0.12672 0.0
C2598 C 0.88473 0.05768 0.12626 0.0
H2599 H 0.86578 0.01782 0.1866 0.0
H2600 H 0.87174 0.04075 0.17378 0.0
H2601 H 0.84624 0.03202 0.17482 0.0
H2602 H 0.83814 0.0527 0.14614 0.0
H2603 H 0.84095 0.08937 0.14777 0.0
H2604 H 0.92622 0.34609 0.66397 0.0
H2605 H 0.96249 0.3465 0.65945 0.0
H2606 H 0.95645 0.3947 0.61717 0.0
H2607 H 0.91979 0.39446 0.62199 0.0
H2608 H 0.9854 0.33872 0.62863 0.0
H2609 H 1.00063 0.4172 0.65138 0.0
H2610 H 0.9768 0.40523 0.65544 0.0
H2611 H 0.98323 0.41484 0.63106 0.0
C2612 C 0.93258 0.35694 0.6538 0.0
C2613 C 0.92001 0.37052 0.64366 0.0
C2614 C 0.95345 0.35713 0.65117 0.0
C2615 C 0.96264 0.37081 0.63817 0.0
C2616 C 0.95006 0.38427 0.6277 0.0
H2617 H 0.09314 0.3799 0.60945 0.0
H2618 H 0.05626 0.38243 0.60694 0.0
C2619 C 0.92901 0.3841 0.63039 0.0
C2620 C 0.9852 0.37031 0.63546 0.0
H2621 H 0.02807 0.3986 0.63947 0.0
C2622 C 0.99461 0.35191 0.63095 0.0
C2623 C 0.99766 0.38733 0.6385 0.0
C2624 C 0.98912 0.40726 0.64456 0.0
C2625 C 0.01569 0.35012 0.62961 0.0
C2626 C 0.02799 0.36712 0.63283 0.0
C2627 C 0.01871 0.38557 0.63682 0.0
C2628 C 0.05045 0.36564 0.63388 0.0
C2629 C 0.02476 0.32994 0.62494 0.0
C2630 C 0.05958 0.35568 0.64994 0.0
C2631 C 0.08052 0.35445 0.65149 0.0
C2632 C 0.09305 0.36291 0.63689 0.0
C2633 C 0.08398 0.37308 0.62084 0.0
C2634 C 0.06288 0.37453 0.61943 0.0
H2635 H 0.01356 0.31947 0.61841 0.0
H2636 H 0.03747 0.33151 0.6144 0.0
H2637 H 0.03066 0.32324 0.63891 0.0
H2638 H 0.05046 0.34892 0.66144 0.0
H2639 H 0.08693 0.34655 0.66409 0.0
H2640 H 0.64123 0.5914 0.16671 0.0
H2641 H 0.63713 0.55506 0.1663 0.0
H2642 H 0.64528 0.55442 0.10264 0.0
H2643 H 0.6487 0.59131 0.10284 0.0
H2644 H 0.61005 0.52695 0.1304 0.0
H2645 H 0.69207 0.51962 0.14478 0.0
H2646 H 0.67809 0.54077 0.15419 0.0
H2647 H 0.68284 0.53867 0.12799 0.0
C2648 C 0.64195 0.58367 0.15249 0.0
C2649 C 0.64621 0.59423 0.13481 0.0
C2650 C 0.63961 0.56281 0.15234 0.0
C2651 C 0.64148 0.55194 0.13452 0.0
C2652 C 0.64427 0.5625 0.11662 0.0
H2653 H 0.64299 0.4199 0.11792 0.0
H2654 H 0.6446 0.45627 0.11119 0.0
C2655 C 0.6464 0.58351 0.11675 0.0
C2656 C 0.64184 0.52958 0.13504 0.0
H2657 H 0.67322 0.48985 0.14363 0.0
C2658 C 0.62389 0.51881 0.13295 0.0
C2659 C 0.65984 0.51899 0.13884 0.0
C2660 C 0.6794 0.52996 0.14164 0.0
C2661 C 0.62351 0.49773 0.13467 0.0
C2662 C 0.64153 0.48715 0.13841 0.0
C2663 C 0.65948 0.49793 0.14041 0.0
C2664 C 0.64164 0.46512 0.14213 0.0
C2665 C 0.60378 0.48684 0.13329 0.0
C2666 C 0.63982 0.45808 0.1617 0.0
C2667 C 0.63884 0.43751 0.16551 0.0
C2668 C 0.63988 0.42339 0.14989 0.0
C2669 C 0.64242 0.43038 0.13028 0.0
C2670 C 0.64318 0.45113 0.12642 0.0
H2671 H 0.5912 0.49698 0.12927 0.0
H2672 H 0.60475 0.47465 0.12201 0.0
H2673 H 0.60046 0.47981 0.1479 0.0
H2674 H 0.63871 0.46855 0.17404 0.0
H2675 H 0.63693 0.43265 0.1808 0.0
H2676 H 0.5898 0.16679 0.64403 0.0
H2677 H 0.55324 0.16958 0.63901 0.0
H2678 H 0.54761 0.10545 0.64447 0.0
H2679 H 0.58369 0.10264 0.64952 0.0
H2680 H 0.52568 0.15028 0.61098 0.0
H2681 H 0.51153 0.12748 0.68937 0.0
H2682 H 0.53586 0.13557 0.68088 0.0
H2683 H 0.52714 0.11071 0.67528 0.0
C2684 C 0.58074 0.15333 0.64376 0.0
C2685 C 0.58947 0.13455 0.64748 0.0
C2686 C 0.55991 0.15492 0.64102 0.0
C2687 C 0.54769 0.13775 0.64193 0.0
C2688 C 0.55666 0.11893 0.64427 0.0
H2689 H 0.41698 0.11957 0.63913 0.0
H2690 H 0.45345 0.11395 0.6418 0.0
C2691 C 0.57729 0.11736 0.6471 0.0
C2692 C 0.52551 0.13936 0.64113 0.0
H2693 H 0.48311 0.131 0.66842 0.0
C2694 C 0.51637 0.14616 0.62355 0.0
C2695 C 0.51338 0.13366 0.65747 0.0
C2696 C 0.52242 0.12658 0.67689 0.0
C2697 C 0.49541 0.14737 0.62185 0.0
C2698 C 0.48329 0.1421 0.63834 0.0
C2699 C 0.49242 0.13501 0.65581 0.0
C2700 C 0.46125 0.14521 0.63808 0.0
C2701 C 0.48637 0.15402 0.60231 0.0
C2702 C 0.45359 0.16464 0.63599 0.0
C2703 C 0.43299 0.16784 0.6346 0.0
C2704 C 0.4195 0.15168 0.6353 0.0
C2705 C 0.42704 0.13228 0.63851 0.0
C2706 C 0.44783 0.12907 0.63991 0.0
H2707 H 0.49709 0.15229 0.58976 0.0
H2708 H 0.47263 0.1453 0.59881 0.0
H2709 H 0.48221 0.17009 0.60338 0.0
H2710 H 0.46361 0.17738 0.63515 0.0
H2711 H 0.42763 0.18303 0.6326 0.0
H2712 H 0.3564 0.84693 0.42236 0.0
H2713 H 0.35847 0.8469 0.45879 0.0
H2714 H 0.38853 0.90399 0.45775 0.0
H2715 H 0.3866 0.90429 0.42131 0.0
H2716 H 0.40482 0.86948 0.48504 0.0
H2717 H 0.32447 0.89028 0.4936 0.0
H2718 H 0.33044 0.87114 0.47555 0.0
H2719 H 0.33873 0.89635 0.47155 0.0
C2720 C 0.36376 0.85936 0.42978 0.0
C2721 C 0.37132 0.87562 0.41879 0.0
C2722 C 0.3648 0.85935 0.45063 0.0
C2723 C 0.37345 0.87554 0.4609 0.0
C2724 C 0.38176 0.89139 0.45005 0.0
H2725 H 0.36743 0.89375 0.59176 0.0
H2726 H 0.36662 0.90083 0.5556 0.0
C2727 C 0.3807 0.89145 0.4292 0.0
C2728 C 0.37331 0.87608 0.48298 0.0
H2729 H 0.34202 0.88101 0.52297 0.0
C2730 C 0.39117 0.87219 0.49336 0.0
C2731 C 0.35551 0.8799 0.49374 0.0
C2732 C 0.33615 0.88479 0.48315 0.0
C2733 C 0.39148 0.87118 0.5143 0.0
C2734 C 0.37346 0.87406 0.52504 0.0
C2735 C 0.35579 0.87881 0.51469 0.0
C2736 C 0.3724 0.87013 0.54675 0.0
C2737 C 0.41101 0.86663 0.5248 0.0
C2738 C 0.37514 0.85052 0.55357 0.0
C2739 C 0.37551 0.8465 0.57392 0.0
C2740 C 0.37307 0.86199 0.588 0.0
C2741 C 0.36928 0.88154 0.58123 0.0
C2742 C 0.36894 0.8856 0.56065 0.0
H2743 H 0.42414 0.86965 0.51511 0.0
H2744 H 0.41248 0.87562 0.5387 0.0
H2745 H 0.41138 0.85055 0.52896 0.0
H2746 H 0.37738 0.83832 0.54309 0.0
H2747 H 0.37811 0.83121 0.57865 0.0
H2748 H 0.13588 0.83142 0.92889 0.0
H2749 H 0.13837 0.83694 0.96479 0.0
H2750 H 0.14377 0.90055 0.95515 0.0
H2751 H 0.14141 0.89504 0.91873 0.0
H2752 H 0.17084 0.86019 0.9876 0.0
H2753 H 0.09279 0.88936 0.9938 0.0
H2754 H 0.10046 0.87386 0.97303 0.0
H2755 H 0.10908 0.89923 0.97481 0.0
C2756 C 0.13795 0.84659 0.93435 0.0
C2757 C 0.13853 0.86282 0.92102 0.0
C2758 C 0.13931 0.8497 0.95488 0.0
C2759 C 0.14103 0.86913 0.96262 0.0
C2760 C 0.14232 0.88542 0.94941 0.0
H2761 H 0.13036 0.90356 0.08777 0.0
H2762 H 0.12947 0.90254 0.05153 0.0
C2763 C 0.1412 0.88227 0.92866 0.0
C2764 C 0.14098 0.87192 0.98459 0.0
H2765 H 0.11035 0.88361 0.02368 0.0
C2766 C 0.15772 0.86552 0.99554 0.0
C2767 C 0.12382 0.87883 0.99483 0.0
C2768 C 0.10541 0.88569 0.98365 0.0
C2769 C 0.15779 0.86577 0.01651 0.0
C2770 C 0.14029 0.87185 0.02689 0.0
C2771 C 0.12368 0.8787 0.01584 0.0
C2772 C 0.13911 0.87165 0.04914 0.0
C2773 C 0.17681 0.85985 0.02723 0.0
C2774 C 0.14395 0.85435 0.06013 0.0
C2775 C 0.14489 0.85497 0.08104 0.0
C2776 C 0.14044 0.87277 0.09144 0.0
C2777 C 0.13398 0.88955 0.0804 0.0
C2778 C 0.13348 0.88904 0.05954 0.0
H2779 H 0.19017 0.86189 0.0176 0.0
H2780 H 0.17898 0.86876 0.04108 0.0
H2781 H 0.17603 0.84375 0.03124 0.0
H2782 H 0.14754 0.84047 0.05254 0.0
H2783 H 0.14971 0.84169 0.08897 0.0
H2784 H 0.16833 0.64472 0.5824 0.0
H2785 H 0.16769 0.63891 0.546 0.0
H2786 H 0.10307 0.63909 0.54688 0.0
H2787 H 0.10368 0.64465 0.58288 0.0
H2788 H 0.14639 0.60895 0.51948 0.0
H2789 H 0.11972 0.6875 0.51075 0.0
H2790 H 0.1313 0.67858 0.53344 0.0
H2791 H 0.10576 0.67219 0.5278 0.0
C2792 C 0.15407 0.6429 0.57485 0.0
C2793 C 0.13606 0.6454 0.58533 0.0
C2794 C 0.15368 0.63973 0.55409 0.0
C2795 C 0.1353 0.63903 0.54371 0.0
C2796 C 0.11739 0.63995 0.5545 0.0
H2797 H 0.10984 0.63276 0.41388 0.0
H2798 H 0.10455 0.63532 0.45033 0.0
C2799 C 0.11778 0.64312 0.57507 0.0
C2800 C 0.13463 0.63892 0.52156 0.0
H2801 H 0.12211 0.66797 0.4814 0.0
C2802 C 0.14104 0.62181 0.51116 0.0
C2803 C 0.12746 0.65569 0.51072 0.0
C2804 C 0.12078 0.67462 0.52117 0.0
C2805 C 0.1406 0.62111 0.49018 0.0
C2806 C 0.13383 0.63802 0.47937 0.0
C2807 C 0.12708 0.65498 0.48975 0.0
C2808 C 0.13601 0.63908 0.45738 0.0
C2809 C 0.14763 0.60238 0.47963 0.0
C2810 C 0.15521 0.64134 0.44939 0.0
C2811 C 0.15815 0.64017 0.42887 0.0
C2812 C 0.14198 0.63668 0.41578 0.0
C2813 C 0.1225 0.63574 0.4236 0.0
C2814 C 0.11952 0.63697 0.44438 0.0
H2815 H 0.14831 0.58931 0.48985 0.0
H2816 H 0.13758 0.5987 0.46691 0.0
H2817 H 0.16287 0.60495 0.47358 0.0
H2818 H 0.16807 0.64322 0.45913 0.0
H2819 H 0.17335 0.64097 0.42327 0.0
H2820 H 0.3473 0.66029 0.91997 0.0
H2821 H 0.34907 0.65706 0.95617 0.0
H2822 H 0.39982 0.61749 0.95054 0.0
H2823 H 0.39826 0.62072 0.91401 0.0
H2824 H 0.37144 0.60529 0.97969 0.0
H2825 H 0.3927 0.68492 0.99005 0.0
H2826 H 0.37073 0.68149 0.97487 0.0
H2827 H 0.39451 0.67219 0.96629 0.0
C2828 C 0.35872 0.65066 0.92632 0.0
C2829 C 0.37273 0.64086 0.91399 0.0
C2830 C 0.35984 0.64902 0.94709 0.0
C2831 C 0.37495 0.63752 0.95612 0.0
C2832 C 0.38823 0.62672 0.9439 0.0
H2833 H 0.39501 0.64474 0.08742 0.0
H2834 H 0.40162 0.64633 0.05118 0.0
C2835 C 0.38725 0.62849 0.92302 0.0
C2836 C 0.3768 0.63705 0.97829 0.0
H2837 H 0.38166 0.66754 0.0192 0.0
C2838 C 0.37394 0.61884 0.98831 0.0
C2839 C 0.38049 0.65466 0.98961 0.0
C2840 C 0.38499 0.6744 0.97969 0.0
C2841 C 0.37349 0.618 0.00929 0.0
C2842 C 0.37574 0.63588 0.02057 0.0
C2843 C 0.37976 0.65388 0.01059 0.0
C2844 C 0.37197 0.63637 0.04247 0.0
C2845 C 0.37025 0.59799 0.0192 0.0
C2846 C 0.35297 0.63111 0.04952 0.0
C2847 C 0.34922 0.63026 0.06993 0.0
C2848 C 0.3643 0.63481 0.08397 0.0
C2849 C 0.3831 0.64117 0.07699 0.0
C2850 C 0.3869 0.64195 0.05633 0.0
H2851 H 0.37494 0.58539 0.00937 0.0
H2852 H 0.37866 0.59699 0.03349 0.0
H2853 H 0.35407 0.59609 0.02245 0.0
H2854 H 0.34104 0.62732 0.03918 0.0
H2855 H 0.33443 0.62564 0.07471 0.0
H2856 H 0.16122 0.27182 0.67353 0.0
H2857 H 0.15672 0.2541 0.70502 0.0
H2858 H 0.09992 0.28382 0.71359 0.0
H2859 H 0.10384 0.30073 0.68173 0.0
H2860 H 0.15545 0.28227 0.73652 0.0
H2861 H 0.09068 0.22977 0.74058 0.0
H2862 H 0.10181 0.2368 0.71706 0.0
H2863 H 0.0862 0.25421 0.73029 0.0
C2864 C 0.14725 0.27362 0.68156 0.0
C2865 C 0.1331 0.28788 0.67553 0.0
C2866 C 0.14474 0.26363 0.69958 0.0
C2867 C 0.12816 0.26798 0.7117 0.0
C2868 C 0.11273 0.28015 0.70438 0.0
H2869 H 0.12269 0.22512 0.83473 0.0
H2870 H 0.11467 0.24785 0.80713 0.0
C2871 C 0.11504 0.28982 0.68614 0.0
C2872 C 0.12938 0.26344 0.73313 0.0
H2873 H 0.10957 0.23474 0.76997 0.0
C2874 C 0.14535 0.27194 0.74388 0.0
C2875 C 0.11561 0.25082 0.74286 0.0
C2876 C 0.09762 0.24226 0.73215 0.0
C2877 C 0.14889 0.26688 0.76376 0.0
C2878 C 0.13636 0.25262 0.77293 0.0
C2879 C 0.11932 0.24548 0.76276 0.0
C2880 C 0.14249 0.24247 0.79147 0.0
C2881 C 0.16641 0.27639 0.77449 0.0
C2882 C 0.16101 0.23249 0.79202 0.0
C2883 C 0.16573 0.21989 0.80782 0.0
C2884 C 0.15178 0.21669 0.82305 0.0
C2885 C 0.13371 0.22749 0.82314 0.0
C2886 C 0.12907 0.24035 0.80739 0.0
H2887 H 0.16884 0.29196 0.76922 0.0
H2888 H 0.16418 0.27667 0.7909 0.0
H2889 H 0.18023 0.26775 0.77113 0.0
H2890 H 0.17131 0.2334 0.77961 0.0
H2891 H 0.17964 0.21152 0.80729 0.0
H2892 H 0.71853 0.6775 0.19633 0.0
H2893 H 0.73759 0.66961 0.22662 0.0
H2894 H 0.73979 0.60738 0.20925 0.0
H2895 H 0.72068 0.61509 0.17893 0.0
H2896 H 0.7195 0.63235 0.25362 0.0
H2897 H 0.79941 0.63081 0.22945 0.0
H2898 H 0.78155 0.64748 0.21776 0.0
H2899 H 0.77992 0.62104 0.21341 0.0
C2900 C 0.7236 0.66225 0.19867 0.0
C2901 C 0.71813 0.64687 0.1854 0.0
C2902 C 0.73432 0.65777 0.21599 0.0
C2903 C 0.73981 0.63793 0.22007 0.0
C2904 C 0.73558 0.62276 0.20622 0.0
H2905 H 0.81416 0.60241 0.31906 0.0
H2906 H 0.79175 0.59843 0.29041 0.0
C2907 C 0.72481 0.62722 0.18891 0.0
C2908 C 0.74847 0.63288 0.23958 0.0
H2909 H 0.7929 0.62608 0.26351 0.0
C2910 C 0.73553 0.63078 0.25588 0.0
C2911 C 0.76927 0.63061 0.24218 0.0
C2912 C 0.7835 0.63258 0.22485 0.0
C2913 C 0.74301 0.62681 0.27504 0.0
C2914 C 0.76397 0.62543 0.27788 0.0
C2915 C 0.77681 0.62701 0.26134 0.0
C2916 C 0.77324 0.62404 0.29791 0.0
C2917 C 0.72838 0.62412 0.29193 0.0
C2918 C 0.76943 0.63891 0.31233 0.0
C2919 C 0.78182 0.64072 0.32908 0.0
C2920 C 0.79843 0.62805 0.33118 0.0
C2921 C 0.80123 0.61217 0.31774 0.0
C2922 C 0.78856 0.61002 0.30132 0.0
H2923 H 0.71386 0.61811 0.28641 0.0
H2924 H 0.73436 0.61386 0.30352 0.0
H2925 H 0.72535 0.63891 0.29892 0.0
H2926 H 0.75806 0.65021 0.30981 0.0
H2927 H 0.77975 0.65335 0.33906 0.0
H2928 H 0.3867 0.28426 0.83801 0.0
H2929 H 0.39366 0.26065 0.81047 0.0
H2930 H 0.36842 0.30266 0.76853 0.0
H2931 H 0.3616 0.32602 0.79556 0.0
H2932 H 0.3637 0.24502 0.7843 0.0
H2933 H 0.42143 0.28657 0.74205 0.0
H2934 H 0.41577 0.29192 0.76788 0.0
H2935 H 0.4 0.30157 0.74832 0.0
C2936 C 0.38291 0.28844 0.82286 0.0
C2937 C 0.37368 0.30691 0.81886 0.0
C2938 C 0.3869 0.27504 0.8072 0.0
C2939 C 0.38194 0.28017 0.78746 0.0
C2940 C 0.37287 0.29867 0.78356 0.0
H2941 H 0.36344 0.2281 0.67185 0.0
H2942 H 0.36974 0.25073 0.70029 0.0
C2943 C 0.36882 0.31191 0.79908 0.0
C2944 C 0.38435 0.2657 0.77093 0.0
H2945 H 0.40366 0.2609 0.72403 0.0
C2946 C 0.37275 0.24823 0.77127 0.0
C2947 C 0.39594 0.27019 0.75389 0.0
C2948 C 0.40914 0.28851 0.75304 0.0
C2949 C 0.37168 0.23553 0.75462 0.0
C2950 C 0.38295 0.24022 0.73739 0.0
C2951 C 0.39501 0.25741 0.73725 0.0
C2952 C 0.38197 0.22752 0.71932 0.0
C2953 C 0.35774 0.21772 0.75532 0.0
C2954 C 0.38759 0.20733 0.72039 0.0
C2955 C 0.3837 0.19449 0.70445 0.0
C2956 C 0.3746 0.20173 0.68699 0.0
C2957 C 0.37045 0.22225 0.68522 0.0
C2958 C 0.37403 0.23511 0.7014 0.0
H2959 H 0.34655 0.21914 0.76749 0.0
H2960 H 0.34961 0.21585 0.74095 0.0
H2961 H 0.36662 0.20393 0.75808 0.0
H2962 H 0.39422 0.20133 0.73389 0.0
H2963 H 0.38731 0.17873 0.706 0.0
H2964 H 0.79738 0.89458 0.16846 0.0
H2965 H 0.77612 0.90505 0.19676 0.0
H2966 H 0.78684 0.84807 0.22513 0.0
H2967 H 0.80817 0.83786 0.19741 0.0
H2968 H 0.74101 0.88216 0.2184 0.0
H2969 H 0.81032 0.89478 0.26261 0.0
H2970 H 0.80981 0.89553 0.23564 0.0
H2971 H 0.81028 0.87188 0.24842 0.0
C2972 C 0.79461 0.88419 0.18052 0.0
C2973 C 0.80431 0.86551 0.18101 0.0
C2974 C 0.78267 0.89019 0.19663 0.0
C2975 C 0.78035 0.8774 0.21304 0.0
C2976 C 0.78878 0.85818 0.21266 0.0
H2977 H 0.7272 0.84293 0.31634 0.0
H2978 H 0.74739 0.85039 0.28683 0.0
C2979 C 0.80083 0.85235 0.19685 0.0
C2980 C 0.77045 0.88406 0.23144 0.0
H2981 H 0.78027 0.88805 0.28124 0.0
C2982 C 0.74949 0.88417 0.23209 0.0
C2983 C 0.7817 0.88668 0.24917 0.0
C2984 C 0.8043 0.88741 0.24897 0.0
C2985 C 0.73948 0.88508 0.25043 0.0
C2986 C 0.75084 0.88585 0.26824 0.0
C2987 C 0.77171 0.88736 0.26747 0.0
C2988 C 0.74141 0.88226 0.28764 0.0
C2989 C 0.71692 0.88376 0.25084 0.0
C2990 C 0.73228 0.89792 0.29816 0.0
C2991 C 0.721 0.89374 0.31513 0.0
C2992 C 0.71861 0.87384 0.32154 0.0
C2993 C 0.7289 0.85838 0.31171 0.0
C2994 C 0.74029 0.8626 0.29485 0.0
H2995 H 0.71024 0.88421 0.23564 0.0
H2996 H 0.71235 0.86959 0.25816 0.0
H2997 H 0.7107 0.89634 0.25978 0.0
H2998 H 0.7331 0.91317 0.2927 0.0
H2999 H 0.71308 0.90591 0.32241 0.0
H3000 H 0.68084 0.10937 0.29099 0.0
H3001 H 0.70906 0.09962 0.26967 0.0
H3002 H 0.72774 0.16139 0.26656 0.0
H3003 H 0.69979 0.17122 0.28793 0.0
H3004 H 0.72994 0.13201 0.2285 0.0
H3005 H 0.76725 0.10996 0.29983 0.0
H3006 H 0.74165 0.10283 0.29475 0.0
H3007 H 0.74758 0.12856 0.2997 0.0
C3008 C 0.69061 0.12091 0.28519 0.0
C3009 C 0.68843 0.14098 0.29117 0.0
C3010 C 0.70666 0.11531 0.27311 0.0
C3011 C 0.72039 0.12981 0.26687 0.0
C3012 C 0.71717 0.15008 0.27135 0.0
H3013 H 0.82681 0.16644 0.22407 0.0
H3014 H 0.79741 0.15716 0.24359 0.0
C3015 C 0.70125 0.15565 0.2835 0.0
C3016 C 0.73957 0.12396 0.25805 0.0
H3017 H 0.78786 0.11419 0.27171 0.0
C3018 C 0.74252 0.12743 0.23772 0.0
C3019 C 0.75581 0.11823 0.27037 0.0
C3020 C 0.75309 0.11464 0.29241 0.0
C3021 C 0.76174 0.12645 0.22954 0.0
C3022 C 0.77818 0.12204 0.24214 0.0
C3023 C 0.77508 0.11735 0.2622 0.0
C3024 C 0.79866 0.12582 0.23532 0.0
C3025 C 0.76462 0.1316 0.20783 0.0
C3026 C 0.8096 0.1109 0.22541 0.0
C3027 C 0.82665 0.11612 0.21456 0.0
C3028 C 0.83244 0.1363 0.21339 0.0
C3029 C 0.82257 0.15078 0.22492 0.0
C3030 C 0.8058 0.14553 0.23597 0.0
H3031 H 0.75017 0.13224 0.19957 0.0
H3032 H 0.77202 0.14645 0.20668 0.0
H3033 H 0.77453 0.12039 0.20055 0.0
H3034 H 0.80408 0.09565 0.22478 0.0
H3035 H 0.83395 0.10482 0.20548 0.0
H3036 H 0.83535 0.19688 0.79534 0.0
H3037 H 0.84409 0.22596 0.77515 0.0
H3038 H 0.90423 0.20325 0.76834 0.0
H3039 H 0.89549 0.17384 0.78845 0.0
H3040 H 0.88173 0.24888 0.79262 0.0
H3041 H 0.88203 0.22883 0.71171 0.0
H3042 H 0.86487 0.21664 0.72855 0.0
H3043 H 0.89116 0.2115 0.73031 0.0
C3044 C 0.8502 0.19771 0.7889 0.0
C3045 C 0.86484 0.18336 0.7935 0.0
C3046 C 0.85517 0.2143 0.77747 0.0
C3047 C 0.87481 0.21667 0.77057 0.0
C3048 C 0.889 0.20149 0.77359 0.0
H3049 H 0.90499 0.32827 0.71068 0.0
H3050 H 0.91236 0.29919 0.7316 0.0
C3051 C 0.88397 0.18473 0.78495 0.0
C3052 C 0.88082 0.2363 0.76296 0.0
H3053 H 0.88413 0.26318 0.72012 0.0
C3054 C 0.88274 0.25203 0.77678 0.0
C3055 C 0.88217 0.24008 0.74237 0.0
C3056 C 0.87999 0.22345 0.72724 0.0
C3057 C 0.88469 0.27185 0.77038 0.0
C3058 C 0.88471 0.27578 0.74978 0.0
C3059 C 0.88421 0.25991 0.73597 0.0
C3060 C 0.88194 0.29611 0.7421 0.0
C3061 C 0.88565 0.28858 0.78552 0.0
C3062 C 0.86259 0.30432 0.74197 0.0
C3063 C 0.85825 0.32067 0.72983 0.0
C3064 C 0.87331 0.32895 0.71791 0.0
C3065 C 0.89315 0.32211 0.71982 0.0
C3066 C 0.8974 0.30552 0.73168 0.0
H3067 H 0.8894 0.28295 0.80066 0.0
H3068 H 0.89699 0.29988 0.78105 0.0
H3069 H 0.87088 0.29621 0.78618 0.0
H3070 H 0.8505 0.29703 0.74989 0.0
H3071 H 0.84287 0.32574 0.72854 0.0
H3072 H 0.81338 0.40529 0.31576 0.0
H3073 H 0.78498 0.40841 0.29285 0.0
H3074 H 0.80833 0.3598 0.25728 0.0
H3075 H 0.83717 0.35685 0.28012 0.0
H3076 H 0.78629 0.39825 0.23721 0.0
H3077 H 0.74651 0.35539 0.29625 0.0
H3078 H 0.76258 0.37563 0.30407 0.0
H3079 H 0.77328 0.35373 0.29274 0.0
C3080 C 0.81284 0.39581 0.30261 0.0
C3081 C 0.82731 0.38085 0.29958 0.0
C3082 C 0.79664 0.39757 0.28961 0.0
C3083 C 0.79458 0.3842 0.27361 0.0
C3084 C 0.80984 0.37028 0.26957 0.0
H3085 H 0.68631 0.3449 0.21618 0.0
H3086 H 0.71636 0.34861 0.23684 0.0
C3087 C 0.82629 0.36868 0.2825 0.0
C3088 C 0.77522 0.38302 0.26311 0.0
H3089 H 0.72713 0.36712 0.2694 0.0
C3090 C 0.77331 0.39142 0.24411 0.0
C3091 C 0.75851 0.37392 0.27225 0.0
C3092 C 0.76018 0.36402 0.29241 0.0
C3093 C 0.75491 0.39102 0.23391 0.0
C3094 C 0.73795 0.38243 0.24333 0.0
C3095 C 0.74003 0.37392 0.26233 0.0
C3096 C 0.71824 0.38083 0.23322 0.0
C3097 C 0.75405 0.39926 0.21298 0.0
C3098 C 0.70871 0.3978 0.22524 0.0
C3099 C 0.69171 0.3956 0.21322 0.0
C3100 C 0.68361 0.37653 0.2098 0.0
C3101 C 0.69207 0.3598 0.21916 0.0
C3102 C 0.70933 0.36191 0.23075 0.0
H3103 H 0.76918 0.40008 0.20615 0.0
H3104 H 0.7443 0.38994 0.20323 0.0
H3105 H 0.74785 0.4147 0.21342 0.0
H3106 H 0.71495 0.41261 0.2275 0.0
H3107 H 0.68554 0.40861 0.20574 0.0
H3108 H 0.61054 0.17632 0.71218 0.0
H3109 H 0.60157 0.2056 0.73284 0.0
H3110 H 0.66333 0.22458 0.73284 0.0
H3111 H 0.67228 0.19572 0.71218 0.0
H3112 H 0.62325 0.22163 0.77244 0.0
H3113 H 0.62629 0.2702 0.70524 0.0
H3114 H 0.62115 0.24362 0.70382 0.0
H3115 H 0.64624 0.25228 0.70818 0.0
C3116 C 0.62221 0.18649 0.71711 0.0
C3117 C 0.64206 0.18395 0.71066 0.0
C3118 C 0.61707 0.20319 0.72872 0.0
C3119 C 0.63179 0.21725 0.73397 0.0
C3120 C 0.65179 0.21394 0.72865 0.0
H3121 H 0.65944 0.32855 0.78417 0.0
H3122 H 0.65349 0.2995 0.76255 0.0
C3123 C 0.65688 0.19746 0.71697 0.0
C3124 C 0.62651 0.2361 0.74408 0.0
H3125 H 0.62643 0.2866 0.73672 0.0
C3126 C 0.62348 0.23588 0.7647 0.0
C3127 C 0.62705 0.2545 0.73374 0.0
C3128 C 0.63022 0.2553 0.71148 0.0
C3129 C 0.62227 0.25381 0.77561 0.0
C3130 C 0.62347 0.27236 0.76535 0.0
C3131 C 0.62543 0.27242 0.74452 0.0
C3132 C 0.6251 0.29168 0.77612 0.0
C3133 C 0.62117 0.25262 0.79808 0.0
C3134 C 0.61067 0.29749 0.7902 0.0
C3135 C 0.61435 0.31375 0.80282 0.0
C3136 C 0.63202 0.32488 0.80084 0.0
C3137 C 0.64555 0.32028 0.7856 0.0
C3138 C 0.64218 0.30367 0.77337 0.0
H3139 H 0.62509 0.23745 0.80366 0.0
H3140 H 0.63142 0.26364 0.80519 0.0
H3141 H 0.60565 0.25599 0.80294 0.0
H3142 H 0.5971 0.28884 0.79213 0.0
H3143 H 0.60384 0.31712 0.81467 0.0
H3144 H 0.28527 0.67272 0.14996 0.0
H3145 H 0.26282 0.70187 0.14744 0.0
H3146 H 0.30083 0.72717 0.10213 0.0
H3147 H 0.32337 0.69839 0.10484 0.0
H3148 H 0.29558 0.74754 0.14379 0.0
H3149 H 0.2261 0.73063 0.10045 0.0
H3150 H 0.23642 0.71183 0.11686 0.0
H3151 H 0.24977 0.71869 0.09478 0.0
C3152 C 0.28826 0.6841 0.13886 0.0
C3153 C 0.30593 0.68356 0.12761 0.0
C3154 C 0.27551 0.70069 0.13746 0.0
C3155 C 0.2803 0.71651 0.12459 0.0
C3156 C 0.29695 0.71499 0.11205 0.0
H3157 H 0.22081 0.83271 0.11573 0.0
H3158 H 0.24297 0.80427 0.10802 0.0
C3159 C 0.30976 0.69862 0.11361 0.0
C3160 C 0.27052 0.73607 0.12693 0.0
H3161 H 0.22816 0.76241 0.11612 0.0
C3162 C 0.28089 0.7509 0.13765 0.0
C3163 C 0.2515 0.74021 0.11876 0.0
C3164 C 0.24018 0.7246 0.10698 0.0
C3165 C 0.27245 0.76983 0.1408 0.0
C3166 C 0.2532 0.77386 0.13306 0.0
C3167 C 0.24302 0.75919 0.1219 0.0
C3168 C 0.24255 0.79248 0.13805 0.0
C3169 C 0.284 0.7853 0.15259 0.0
C3170 C 0.23559 0.79533 0.15754 0.0
C3171 C 0.22295 0.81134 0.1619 0.0
C3172 C 0.21724 0.82474 0.14684 0.0
C3173 C 0.22524 0.82264 0.1276 0.0
C3174 C 0.23771 0.8064 0.12316 0.0
H3175 H 0.30021 0.78156 0.1535 0.0
H3176 H 0.28229 0.80038 0.14583 0.0
H3177 H 0.278 0.786 0.168 0.0
H3178 H 0.2391 0.78459 0.16913 0.0
H3179 H 0.21685 0.81268 0.17681 0.0
H3180 H 0.27837 0.83502 0.35964 0.0
H3181 H 0.25314 0.809 0.36648 0.0
H3182 H 0.30009 0.76843 0.38473 0.0
H3183 H 0.32512 0.79399 0.37778 0.0
H3184 H 0.25518 0.76994 0.34654 0.0
H3185 H 0.25658 0.76384 0.42917 0.0
H3186 H 0.26469 0.78605 0.4161 0.0
H3187 H 0.28083 0.76455 0.41759 0.0
C3188 C 0.28316 0.8206 0.36533 0.0
C3189 C 0.30357 0.81634 0.36805 0.0
C3190 C 0.26883 0.80587 0.36928 0.0
C3191 C 0.27486 0.78701 0.37637 0.0
C3192 C 0.29519 0.78304 0.37961 0.0
H3193 H 0.22359 0.66886 0.36746 0.0
H3194 H 0.2469 0.69715 0.37168 0.0
C3195 C 0.30944 0.79757 0.37544 0.0
C3196 C 0.26041 0.77054 0.37825 0.0
H3197 H 0.24168 0.73657 0.41123 0.0
C3198 C 0.252 0.76277 0.36069 0.0
C3199 C 0.25657 0.76123 0.39675 0.0
C3200 C 0.265 0.76941 0.41603 0.0
C3201 C 0.24016 0.7455 0.36108 0.0
C3202 C 0.23675 0.7359 0.37949 0.0
C3203 C 0.24471 0.74391 0.39715 0.0
C3204 C 0.22384 0.71817 0.38053 0.0
C3205 C 0.23144 0.73749 0.34184 0.0
C3206 C 0.20349 0.72075 0.38474 0.0
C3207 C 0.19028 0.70484 0.38216 0.0
C3208 C 0.19731 0.68613 0.37556 0.0
C3209 C 0.21792 0.68316 0.3727 0.0
C3210 C 0.23116 0.69922 0.37506 0.0
H3211 H 0.23451 0.74747 0.32898 0.0
H3212 H 0.23793 0.72249 0.33863 0.0
H3213 H 0.21498 0.73563 0.34332 0.0
H3214 H 0.19769 0.73534 0.38891 0.0
H3215 H 0.17442 0.70741 0.38449 0.0
H3216 H 0.16923 0.79458 0.89443 0.0
H3217 H 0.19702 0.77167 0.90318 0.0
H3218 H 0.22881 0.79012 0.85039 0.0
H3219 H 0.2016 0.81293 0.84186 0.0
H3220 H 0.2191 0.74001 0.87572 0.0
H3221 H 0.26457 0.80461 0.90189 0.0
H3222 H 0.23746 0.80494 0.90147 0.0
H3223 H 0.25135 0.80884 0.87888 0.0
C3224 C 0.18199 0.79326 0.88456 0.0
C3225 C 0.18356 0.80546 0.86762 0.0
C3226 C 0.1978 0.78038 0.8896 0.0
C3227 C 0.21497 0.77968 0.87759 0.0
C3228 C 0.21576 0.79082 0.85997 0.0
H3229 H 0.31355 0.72289 0.83621 0.0
H3230 H 0.28397 0.74236 0.84579 0.0
C3231 C 0.20023 0.80373 0.85509 0.0
C3232 C 0.23281 0.7682 0.88336 0.0
H3233 H 0.28286 0.77549 0.89065 0.0
C3234 C 0.23295 0.74754 0.87972 0.0
C3235 C 0.25075 0.77822 0.88856 0.0
C3236 C 0.25107 0.80037 0.89311 0.0
C3237 C 0.25106 0.73694 0.87936 0.0
C3238 C 0.26917 0.7474 0.88264 0.0
C3239 C 0.26885 0.76764 0.88806 0.0
C3240 C 0.28845 0.73825 0.8775 0.0
C3241 C 0.25094 0.71493 0.87413 0.0
C3242 C 0.30109 0.73056 0.89231 0.0
C3243 C 0.31814 0.7197 0.88688 0.0
C3244 C 0.32244 0.71641 0.86662 0.0
C3245 C 0.31045 0.72528 0.8519 0.0
C3246 C 0.29357 0.73623 0.85733 0.0
H3247 H 0.23575 0.7083 0.87555 0.0
H3248 H 0.25599 0.71296 0.85848 0.0
H3249 H 0.2615 0.7066 0.8839 0.0
H3250 H 0.29726 0.73212 0.90794 0.0
H3251 H 0.32712 0.71277 0.89846 0.0
H3252 H 0.17993 0.71306 0.60621 0.0
H3253 H 0.2091 0.73435 0.59865 0.0
H3254 H 0.22486 0.73552 0.6611 0.0
H3255 H 0.19613 0.71423 0.66865 0.0
H3256 H 0.22424 0.77497 0.62215 0.0
H3257 H 0.27181 0.70644 0.62541 0.0
H3258 H 0.24554 0.70556 0.61877 0.0
H3259 H 0.25287 0.7095 0.64425 0.0
C3260 C 0.18932 0.71842 0.61831 0.0
C3261 C 0.18599 0.71206 0.63797 0.0
C3262 C 0.20595 0.73041 0.61399 0.0
C3263 C 0.21911 0.73615 0.62934 0.0
C3264 C 0.21489 0.73101 0.6491 0.0
H3265 H 0.33258 0.78543 0.65587 0.0
H3266 H 0.30337 0.76368 0.65113 0.0
C3267 C 0.1985 0.71894 0.65338 0.0
C3268 C 0.23821 0.74611 0.62493 0.0
H3269 H 0.2886 0.73763 0.62501 0.0
C3270 C 0.23835 0.76689 0.62236 0.0
C3271 C 0.25643 0.73535 0.62559 0.0
C3272 C 0.25681 0.71294 0.62855 0.0
C3273 C 0.25647 0.77745 0.62136 0.0
C3274 C 0.27484 0.76671 0.62226 0.0
C3275 C 0.27455 0.74579 0.62415 0.0
C3276 C 0.29442 0.77708 0.62305 0.0
C3277 C 0.25567 0.80007 0.6206 0.0
C3278 C 0.29975 0.79088 0.60825 0.0
C3279 C 0.31611 0.80352 0.6112 0.0
C3280 C 0.32781 0.80191 0.62853 0.0
C3281 C 0.32388 0.78665 0.64225 0.0
C3282 C 0.30713 0.77437 0.6396 0.0
H3283 H 0.24079 0.80595 0.62518 0.0
H3284 H 0.26726 0.80683 0.63044 0.0
H3285 H 0.25842 0.80508 0.60508 0.0
H3286 H 0.29056 0.79271 0.59504 0.0
H3287 H 0.31897 0.8153 0.60048 0.0
H3288 H 0.84427 0.78067 0.17845 0.0
H3289 H 0.85105 0.76073 0.20779 0.0
H3290 H 0.89958 0.80027 0.22402 0.0
H3291 H 0.89226 0.82112 0.19458 0.0
H3292 H 0.8831 0.73978 0.21824 0.0
H3293 H 0.86899 0.79819 0.27597 0.0
H3294 H 0.86261 0.80189 0.25006 0.0
H3295 H 0.88823 0.80379 0.25817 0.0
C3296 C 0.85647 0.78525 0.18813 0.0
C3297 C 0.86769 0.80262 0.18408 0.0
C3298 C 0.86033 0.77374 0.20501 0.0
C3299 C 0.87564 0.77903 0.21839 0.0
C3300 C 0.88737 0.79607 0.2142 0.0
H3301 H 0.89729 0.7166 0.3327 0.0
H3302 H 0.90152 0.73879 0.30385 0.0
C3303 C 0.88335 0.80785 0.19723 0.0
C3304 C 0.87902 0.7662 0.23633 0.0
H3305 H 0.87604 0.76563 0.28729 0.0
C3306 C 0.88175 0.74551 0.23335 0.0
C3307 C 0.87736 0.77359 0.2561 0.0
C3308 C 0.87399 0.79554 0.26039 0.0
C3309 C 0.8822 0.73199 0.24937 0.0
C3310 C 0.87965 0.73923 0.26909 0.0
C3311 C 0.87789 0.76002 0.2722 0.0
C3312 C 0.87761 0.72541 0.28646 0.0
C3313 C 0.88526 0.71003 0.24487 0.0
C3314 C 0.8627 0.71055 0.28645 0.0
C3315 C 0.86047 0.6977 0.30274 0.0
C3316 C 0.87279 0.69964 0.31972 0.0
C3317 C 0.88759 0.71466 0.31986 0.0
C3318 C 0.88998 0.72739 0.30339 0.0
H3319 H 0.89358 0.70783 0.2307 0.0
H3320 H 0.89358 0.70241 0.25706 0.0
H3321 H 0.87043 0.7027 0.24312 0.0
H3322 H 0.85251 0.70906 0.27392 0.0
H3323 H 0.84869 0.68655 0.3022 0.0
H3324 H 0.33061 0.36132 0.80506 0.0
H3325 H 0.30837 0.36359 0.7761 0.0
H3326 H 0.26399 0.39352 0.81219 0.0
H3327 H 0.28587 0.39039 0.84145 0.0
H3328 H 0.24798 0.36305 0.79288 0.0
H3329 H 0.29185 0.40686 0.73816 0.0
H3330 H 0.30518 0.38568 0.74794 0.0
H3331 H 0.29835 0.40598 0.76432 0.0
C3332 C 0.31633 0.36888 0.8067 0.0
C3333 C 0.31001 0.37579 0.82553 0.0
C3334 C 0.30362 0.37023 0.79006 0.0
C3335 C 0.28452 0.37898 0.79178 0.0
C3336 C 0.27862 0.38671 0.81042 0.0
H3337 H 0.20124 0.40119 0.69266 0.0
H3338 H 0.22589 0.40455 0.71979 0.0
C3339 C 0.29115 0.38499 0.82714 0.0
C3340 C 0.26988 0.37821 0.7749 0.0
H3341 H 0.26291 0.38997 0.7257 0.0
C3342 C 0.25122 0.36912 0.77826 0.0
C3343 C 0.274 0.38613 0.75575 0.0
C3344 C 0.29335 0.39688 0.75132 0.0
C3345 C 0.23667 0.36761 0.76314 0.0
C3346 C 0.24101 0.37492 0.7438 0.0
C3347 C 0.25959 0.38424 0.74044 0.0
C3348 C 0.22647 0.37292 0.72693 0.0
C3349 C 0.21665 0.35847 0.76826 0.0
C3350 C 0.21882 0.35403 0.72161 0.0
C3351 C 0.20446 0.35218 0.70649 0.0
C3352 C 0.19779 0.36909 0.69589 0.0
C3353 C 0.20599 0.38791 0.70064 0.0
C3354 C 0.22012 0.38982 0.7161 0.0
H3355 H 0.21352 0.35959 0.7845 0.0
H3356 H 0.20424 0.36585 0.76001 0.0
H3357 H 0.21682 0.34232 0.76425 0.0
H3358 H 0.22395 0.34066 0.72918 0.0
H3359 H 0.19878 0.33738 0.70292 0.0
H3360 H 0.62908 0.67994 0.20566 0.0
H3361 H 0.62233 0.7019 0.23432 0.0
H3362 H 0.6431 0.75275 0.20067 0.0
H3363 H 0.64915 0.73124 0.17198 0.0
H3364 H 0.64913 0.72351 0.25509 0.0
H3365 H 0.59299 0.77567 0.2237 0.0
H3366 H 0.59953 0.75241 0.2115 0.0
H3367 H 0.61493 0.77435 0.20843 0.0
C3368 C 0.63175 0.69588 0.20425 0.0
C3369 C 0.6395 0.70385 0.18647 0.0
C3370 C 0.62795 0.7084 0.22065 0.0
C3371 C 0.63185 0.72906 0.21956 0.0
C3372 C 0.63934 0.73701 0.20172 0.0
H3373 H 0.64857 0.83153 0.29369 0.0
H3374 H 0.64363 0.80688 0.26718 0.0
C3375 C 0.64291 0.72461 0.18531 0.0
C3376 C 0.62968 0.74217 0.2374 0.0
H3377 H 0.61082 0.78722 0.25283 0.0
C3378 C 0.64046 0.73727 0.25475 0.0
C3379 C 0.61841 0.76016 0.23693 0.0
C3380 C 0.60566 0.76585 0.21919 0.0
C3381 C 0.64113 0.75033 0.27123 0.0
C3382 C 0.63041 0.76865 0.27046 0.0
C3383 C 0.61908 0.77322 0.25338 0.0
C3384 C 0.63186 0.7839 0.2866 0.0
C3385 C 0.65412 0.74483 0.28887 0.0
C3386 C 0.62633 0.77942 0.30629 0.0
C3387 C 0.62932 0.79347 0.32158 0.0
C3388 C 0.63758 0.81236 0.31737 0.0
C3389 C 0.64213 0.81715 0.29747 0.0
C3390 C 0.63934 0.80304 0.28227 0.0
H3391 H 0.6649 0.73268 0.28517 0.0
H3392 H 0.66267 0.75802 0.29435 0.0
H3393 H 0.64446 0.73945 0.30118 0.0
H3394 H 0.62003 0.76494 0.3099 0.0
H3395 H 0.62553 0.78938 0.33672 0.0
H3396 H 0.27804 0.13022 0.6649 0.0
H3397 H 0.25706 0.12688 0.6946 0.0
H3398 H 0.30937 0.13239 0.73212 0.0
H3399 H 0.33049 0.13577 0.70254 0.0
H3400 H 0.2583 0.09948 0.72764 0.0
H3401 H 0.27187 0.17841 0.7507 0.0
H3402 H 0.27781 0.16919 0.72606 0.0
H3403 H 0.2941 0.16372 0.74674 0.0
C3404 C 0.28514 0.13042 0.67945 0.0
C3405 C 0.30596 0.1333 0.6813 0.0
C3406 C 0.27311 0.12854 0.69642 0.0
C3407 C 0.28161 0.12972 0.71556 0.0
C3408 C 0.30247 0.13173 0.71748 0.0
H3409 H 0.23129 0.13566 0.83479 0.0
H3410 H 0.25341 0.13147 0.8061 0.0
C3411 C 0.31454 0.13348 0.70052 0.0
C3412 C 0.26856 0.12951 0.73348 0.0
H3413 H 0.25313 0.15832 0.7728 0.0
C3414 C 0.25714 0.11233 0.73752 0.0
C3415 C 0.26702 0.14635 0.74631 0.0
C3416 C 0.27819 0.16555 0.74222 0.0
C3417 C 0.24445 0.11144 0.75422 0.0
C3418 C 0.24295 0.12825 0.76703 0.0
C3419 C 0.25439 0.14541 0.76301 0.0
C3420 C 0.2294 0.12857 0.78456 0.0
C3421 C 0.23298 0.09243 0.75824 0.0
C3422 C 0.20851 0.12802 0.78201 0.0
C3423 C 0.19576 0.13047 0.79841 0.0
C3424 C 0.20369 0.13353 0.81766 0.0
C3425 C 0.22464 0.13326 0.82022 0.0
C3426 C 0.23734 0.13094 0.80382 0.0
H3427 H 0.23914 0.07949 0.74975 0.0
H3428 H 0.23326 0.08879 0.7744 0.0
H3429 H 0.21711 0.09454 0.75371 0.0
H3430 H 0.20206 0.12648 0.76723 0.0
H3431 H 0.17972 0.1307 0.79588 0.0
H3432 H 0.18615 0.83835 0.78916 0.0
H3433 H 0.21467 0.84569 0.76823 0.0
H3434 H 0.22167 0.90309 0.79715 0.0
H3435 H 0.19293 0.8955 0.81898 0.0
H3436 H 0.21849 0.87594 0.7414 0.0
H3437 H 0.27896 0.88094 0.7986 0.0
H3438 H 0.25469 0.87041 0.8041 0.0
H3439 H 0.2576 0.89705 0.80192 0.0
C3440 C 0.1936 0.85263 0.79121 0.0
C3441 C 0.18703 0.8664 0.80577 0.0
C3442 C 0.21005 0.85677 0.77915 0.0
C3443 C 0.22051 0.87487 0.78108 0.0
C3444 C 0.21408 0.88884 0.79555 0.0
H3445 H 0.33029 0.90278 0.71267 0.0
H3446 H 0.30166 0.90575 0.73553 0.0
C3447 C 0.19754 0.88458 0.80791 0.0
C3448 C 0.23755 0.87882 0.76721 0.0
H3449 H 0.28857 0.88348 0.765 0.0
C3450 C 0.2338 0.8778 0.74659 0.0
C3451 C 0.25755 0.88141 0.77389 0.0
C3452 C 0.2626 0.8824 0.79582 0.0
C3453 C 0.24936 0.87871 0.73254 0.0
C3454 C 0.26951 0.88022 0.7392 0.0
C3455 C 0.27322 0.88216 0.75981 0.0
C3456 C 0.28685 0.87879 0.72511 0.0
C3457 C 0.24388 0.87802 0.71068 0.0
C3458 C 0.28834 0.86257 0.71174 0.0
C3459 C 0.30435 0.86117 0.69837 0.0
C3460 C 0.31971 0.87557 0.69843 0.0
C3461 C 0.31861 0.89151 0.71218 0.0
C3462 C 0.30228 0.89318 0.72529 0.0
H3463 H 0.22862 0.88417 0.70807 0.0
H3464 H 0.25468 0.88658 0.70148 0.0
H3465 H 0.24379 0.86219 0.70554 0.0
H3466 H 0.27721 0.85078 0.71175 0.0
H3467 H 0.30495 0.84843 0.68832 0.0
H3468 H 0.14846 0.79824 0.17663 0.0
H3469 H 0.14572 0.76937 0.19901 0.0
H3470 H 0.12183 0.80763 0.24509 0.0
H3471 H 0.12472 0.8366 0.22291 0.0
H3472 H 0.16595 0.76857 0.23891 0.0
H3473 H 0.08342 0.75724 0.24263 0.0
H3474 H 0.09533 0.7697 0.22192 0.0
H3475 H 0.09255 0.7825 0.24531 0.0
C3476 C 0.14214 0.80044 0.19134 0.0
C3477 C 0.13667 0.81973 0.19794 0.0
C3478 C 0.14073 0.78394 0.20417 0.0
C3479 C 0.13348 0.78632 0.22369 0.0
C3480 C 0.12727 0.8054 0.23004 0.0
H3481 H 0.12743 0.7015 0.32427 0.0
H3482 H 0.12416 0.73169 0.30349 0.0
C3483 C 0.12893 0.82194 0.21733 0.0
C3484 C 0.13372 0.76917 0.23784 0.0
H3485 H 0.10349 0.737 0.2636 0.0
C3486 C 0.1523 0.76166 0.24428 0.0
C3487 C 0.1159 0.76034 0.24507 0.0
C3488 C 0.09561 0.7677 0.23836 0.0
C3489 C 0.15353 0.74548 0.25764 0.0
C3490 C 0.13572 0.73629 0.26447 0.0
C3491 C 0.11712 0.74405 0.25836 0.0
C3492 C 0.1363 0.71784 0.27691 0.0
C3493 C 0.17389 0.73838 0.26448 0.0
C3494 C 0.14365 0.69994 0.26874 0.0
C3495 C 0.14536 0.68271 0.28044 0.0
C3496 C 0.13977 0.68292 0.30069 0.0
C3497 C 0.13176 0.70073 0.30873 0.0
C3498 C 0.12996 0.71803 0.2969 0.0
H3499 H 0.18571 0.74974 0.26164 0.0
H3500 H 0.17375 0.73486 0.28067 0.0
H3501 H 0.17791 0.72449 0.25627 0.0
H3502 H 0.1484 0.69937 0.2533 0.0
H3503 H 0.15159 0.66934 0.27366 0.0
H3504 H 0.20874 0.64835 0.67611 0.0
H3505 H 0.23687 0.64613 0.69963 0.0
H3506 H 0.198 0.61979 0.74351 0.0
H3507 H 0.16966 0.62227 0.72021 0.0
H3508 H 0.23332 0.66504 0.74242 0.0
H3509 H 0.25255 0.58383 0.73876 0.0
H3510 H 0.24115 0.59683 0.718 0.0
H3511 H 0.22648 0.59097 0.73954 0.0
C3512 C 0.20624 0.64165 0.69059 0.0
C3513 C 0.18695 0.63536 0.69625 0.0
C3514 C 0.22232 0.64052 0.70405 0.0
C3515 C 0.21951 0.63274 0.72328 0.0
C3516 C 0.20049 0.62573 0.72871 0.0
H3517 H 0.29921 0.63427 0.82822 0.0
H3518 H 0.27016 0.62871 0.80618 0.0
C3519 C 0.18433 0.62714 0.71537 0.0
C3520 C 0.23613 0.6332 0.73807 0.0
H3521 H 0.27089 0.60376 0.76158 0.0
C3522 C 0.24149 0.65165 0.74667 0.0
C3523 C 0.24669 0.61568 0.74363 0.0
C3524 C 0.2416 0.59564 0.73452 0.0
C3525 C 0.25721 0.65304 0.76061 0.0
C3526 C 0.26796 0.63558 0.76595 0.0
C3527 C 0.2625 0.61708 0.75754 0.0
C3528 C 0.2858 0.63674 0.77916 0.0
C3529 C 0.26247 0.67317 0.76948 0.0
C3530 C 0.30424 0.6426 0.77117 0.0
C3531 C 0.32079 0.64569 0.78362 0.0
C3532 C 0.31926 0.64305 0.80439 0.0
C3533 C 0.30094 0.63635 0.8123 0.0
C3534 C 0.28432 0.63322 0.79975 0.0
H3535 H 0.25144 0.68495 0.76537 0.0
H3536 H 0.26325 0.6721 0.786 0.0
H3537 H 0.27749 0.67782 0.76414 0.0
H3538 H 0.30567 0.64538 0.75532 0.0
H3539 H 0.33463 0.65082 0.77697 0.0
H3540 H 0.38105 0.83935 0.28022 0.0
H3541 H 0.38413 0.81042 0.25774 0.0
H3542 H 0.37048 0.77074 0.30642 0.0
H3543 H 0.3677 0.79959 0.32908 0.0
H3544 H 0.4084 0.77229 0.26035 0.0
H3545 H 0.32581 0.7617 0.26196 0.0
H3546 H 0.33769 0.78479 0.26964 0.0
H3547 H 0.338 0.76347 0.2859 0.0
C3548 C 0.37915 0.82443 0.28625 0.0
C3549 C 0.37422 0.8218 0.30648 0.0
C3550 C 0.38087 0.8079 0.27336 0.0
C3551 C 0.37733 0.78841 0.28031 0.0
C3552 C 0.3732 0.78565 0.30068 0.0
H3553 H 0.36272 0.67095 0.22768 0.0
H3554 H 0.36684 0.70013 0.2493 0.0
C3555 C 0.37179 0.80216 0.31367 0.0
C3556 C 0.37671 0.77115 0.26607 0.0
H3557 H 0.3447 0.73723 0.24469 0.0
C3558 C 0.39448 0.76466 0.25685 0.0
C3559 C 0.35852 0.76129 0.26137 0.0
C3560 C 0.33884 0.76819 0.27006 0.0
C3561 C 0.39458 0.74823 0.24352 0.0
C3562 C 0.37641 0.7382 0.23906 0.0
C3563 C 0.35864 0.74487 0.24811 0.0
C3564 C 0.37551 0.72025 0.22567 0.0
C3565 C 0.41417 0.74131 0.23472 0.0
C3566 C 0.37917 0.72169 0.20505 0.0
C3567 C 0.37676 0.7049 0.19248 0.0
C3568 C 0.37065 0.68632 0.20029 0.0
C3569 C 0.36749 0.68492 0.22103 0.0
C3570 C 0.3698 0.70165 0.23349 0.0
H3571 H 0.42726 0.7486 0.24202 0.0
H3572 H 0.41571 0.7248 0.23617 0.0
H3573 H 0.41446 0.74497 0.21859 0.0
H3574 H 0.38334 0.73594 0.19859 0.0
H3575 H 0.37915 0.70663 0.17661 0.0
H3576 H 0.78589 0.17148 0.87852 0.0
H3577 H 0.7634 0.2003 0.88134 0.0
H3578 H 0.81306 0.24017 0.87101 0.0
H3579 H 0.83568 0.21134 0.86795 0.0
H3580 H 0.76172 0.23424 0.90543 0.0
H3581 H 0.77388 0.25492 0.82633 0.0
H3582 H 0.78215 0.23132 0.83655 0.0
H3583 H 0.79659 0.2537 0.84073 0.0
C3584 C 0.79213 0.18639 0.87713 0.0
C3585 C 0.81263 0.18904 0.8729 0.0
C3586 C 0.77921 0.20288 0.87874 0.0
C3587 C 0.7864 0.22244 0.87598 0.0
C3588 C 0.80705 0.22522 0.87281 0.0
H3589 H 0.73315 0.34063 0.86933 0.0
H3590 H 0.7551 0.31162 0.87346 0.0
C3591 C 0.82003 0.20871 0.87128 0.0
C3592 C 0.77216 0.23974 0.87559 0.0
H3593 H 0.75496 0.27771 0.84589 0.0
C3594 C 0.76021 0.24372 0.8924 0.0
C3595 C 0.76991 0.25197 0.85847 0.0
C3596 C 0.78114 0.2477 0.83941 0.0
C3597 C 0.74659 0.2599 0.89275 0.0
C3598 C 0.74476 0.27238 0.87582 0.0
C3599 C 0.7565 0.26825 0.85894 0.0
C3600 C 0.73105 0.29004 0.87527 0.0
C3601 C 0.73454 0.26383 0.91135 0.0
C3602 C 0.71012 0.28764 0.87512 0.0
C3603 C 0.69744 0.30428 0.87267 0.0
C3604 C 0.70544 0.32366 0.87033 0.0
C3605 C 0.7264 0.32601 0.87113 0.0
C3606 C 0.73902 0.30939 0.87345 0.0
H3607 H 0.74008 0.25499 0.92426 0.0
H3608 H 0.73496 0.28 0.9153 0.0
H3609 H 0.71866 0.2597 0.90856 0.0
H3610 H 0.70361 0.27282 0.87623 0.0
H3611 H 0.6814 0.30186 0.87202 0.0
H3612 H 0.72763 0.16707 0.62825 0.0
H3613 H 0.74958 0.1962 0.625 0.0
H3614 H 0.69942 0.23547 0.6359 0.0
H3615 H 0.67734 0.20635 0.63938 0.0
H3616 H 0.74989 0.23045 0.60074 0.0
H3617 H 0.73909 0.25016 0.68057 0.0
H3618 H 0.73112 0.22649 0.67018 0.0
H3619 H 0.71631 0.24866 0.6663 0.0
C3620 C 0.72117 0.18191 0.62966 0.0
C3621 C 0.70072 0.18433 0.63421 0.0
C3622 C 0.73376 0.19856 0.62779 0.0
C3623 C 0.72626 0.21802 0.63061 0.0
C3624 C 0.70564 0.22058 0.63404 0.0
H3625 H 0.78309 0.335 0.63791 0.0
H3626 H 0.75968 0.30724 0.63314 0.0
C3627 C 0.69298 0.2039 0.63582 0.0
C3628 C 0.74025 0.23543 0.63099 0.0
H3629 H 0.75858 0.27244 0.66138 0.0
C3630 C 0.75178 0.23963 0.61399 0.0
C3631 C 0.74289 0.24731 0.64836 0.0
C3632 C 0.73186 0.24288 0.66747 0.0
C3633 C 0.76562 0.25556 0.61384 0.0
C3634 C 0.7681 0.26748 0.63114 0.0
C3635 C 0.75657 0.26332 0.6481 0.0
C3636 C 0.7826 0.28435 0.6321 0.0
C3637 C 0.77735 0.25978 0.59513 0.0
C3638 C 0.80333 0.28072 0.63292 0.0
C3639 C 0.81683 0.29659 0.6358 0.0
C3640 C 0.80982 0.3164 0.63783 0.0
C3641 C 0.78906 0.31998 0.63634 0.0
C3642 C 0.77562 0.30412 0.63365 0.0
H3643 H 0.7716 0.25116 0.58211 0.0
H3644 H 0.7768 0.27603 0.59159 0.0
H3645 H 0.79329 0.25567 0.59757 0.0
H3646 H 0.80902 0.26554 0.63197 0.0
H3647 H 0.83268 0.29327 0.63693 0.0
H3648 H 0.83498 0.21861 0.11466 0.0
H3649 H 0.8066 0.24167 0.11089 0.0
H3650 H 0.77065 0.2039 0.14855 0.0
H3651 H 0.79887 0.1806 0.15218 0.0
H3652 H 0.75012 0.22038 0.11304 0.0
H3653 H 0.78926 0.27809 0.15875 0.0
H3654 H 0.80349 0.26703 0.13879 0.0
H3655 H 0.79594 0.25187 0.15951 0.0
C3656 C 0.82096 0.21507 0.12195 0.0
C3657 C 0.81925 0.19778 0.13377 0.0
C3658 C 0.80477 0.2283 0.11982 0.0
C3659 C 0.78658 0.22466 0.12965 0.0
C3660 C 0.78453 0.20701 0.1408 0.0
H3661 H 0.6974 0.31183 0.16384 0.0
H3662 H 0.72366 0.28659 0.16141 0.0
C3663 C 0.80068 0.19367 0.14282 0.0
C3664 C 0.77014 0.23981 0.12918 0.0
H3665 H 0.75832 0.28721 0.14461 0.0
C3666 C 0.75186 0.23502 0.11989 0.0
C3667 C 0.77235 0.25879 0.13839 0.0
C3668 C 0.79122 0.26433 0.14958 0.0
C3669 C 0.73576 0.24874 0.1195 0.0
C3670 C 0.7381 0.26795 0.12835 0.0
C3671 C 0.75645 0.27263 0.13765 0.0
C3672 C 0.72147 0.28304 0.12936 0.0
C3673 C 0.71623 0.2422 0.11014 0.0
C3674 C 0.71127 0.2897 0.11215 0.0
C3675 C 0.6958 0.30399 0.11357 0.0
C3676 C 0.69062 0.31232 0.13216 0.0
C3677 C 0.70107 0.30587 0.14925 0.0
C3678 C 0.71615 0.29138 0.14788 0.0
H3679 H 0.71511 0.22561 0.10916 0.0
H3680 H 0.70321 0.24793 0.11872 0.0
H3681 H 0.71529 0.2482 0.09474 0.0
H3682 H 0.7154 0.28404 0.09758 0.0
H3683 H 0.68818 0.30878 0.10011 0.0
H3684 H 0.70201 0.18802 0.39078 0.0
H3685 H 0.72973 0.211 0.39941 0.0
H3686 H 0.7188 0.244 0.34521 0.0
H3687 H 0.69099 0.22202 0.33711 0.0
H3688 H 0.76457 0.2202 0.37929 0.0
H3689 H 0.71822 0.28864 0.38519 0.0
H3690 H 0.70737 0.26386 0.38482 0.0
H3691 H 0.71427 0.27604 0.36189 0.0
C3692 C 0.70548 0.20034 0.3809 0.0
C3693 C 0.69409 0.20349 0.3635 0.0
C3694 C 0.72129 0.21341 0.3858 0.0
C3695 C 0.72597 0.22961 0.37324 0.0
C3696 C 0.71501 0.23217 0.35555 0.0
H3697 H 0.80768 0.32278 0.34865 0.0
H3698 H 0.78075 0.29844 0.35187 0.0
C3699 C 0.69912 0.21949 0.3509 0.0
C3700 C 0.74256 0.24374 0.37793 0.0
H3701 H 0.7534 0.2937 0.3795 0.0
C3702 C 0.76216 0.23627 0.37973 0.0
C3703 C 0.73937 0.26471 0.37855 0.0
C3704 C 0.71863 0.27376 0.37771 0.0
C3705 C 0.77878 0.24925 0.38072 0.0
C3706 C 0.77562 0.27027 0.38034 0.0
C3707 C 0.7559 0.27764 0.37963 0.0
C3708 C 0.79237 0.28496 0.37889 0.0
C3709 C 0.79954 0.24027 0.38102 0.0
C3710 C 0.80794 0.28571 0.3931 0.0
C3711 C 0.8237 0.29948 0.39105 0.0
C3712 C 0.82382 0.31308 0.37508 0.0
C3713 C 0.80795 0.31264 0.36125 0.0
C3714 C 0.79252 0.29867 0.36305 0.0
H3715 H 0.79947 0.22425 0.37646 0.0
H3716 H 0.80976 0.24859 0.37098 0.0
H3717 H 0.80567 0.24115 0.39641 0.0
H3718 H 0.8079 0.27573 0.40579 0.0
H3719 H 0.83566 0.29961 0.40201 0.0
loop_
_geom_bond_atom_site_label_1
_geom_bond_atom_site_label_2
_geom_bond_distance
_geom_bond_site_symmetry_2
_ccdc_geom_bond_type
O0 Tb1 2.292 . S
O0 C3 1.255 . S
Tb1 O0 2.292 . S
Tb1 O17 2.326 . S
Tb1 O19 2.500 . S
Tb1 O20 2.473 . S
Tb1 O23 2.324 . S
Eu2 O6 2.292 . S
Eu2 C7 2.852 . S
Eu2 O18 2.324 . S
Eu2 O22 2.326 . S
Eu2 O24 2.500 . S
Eu2 O25 2.473 . S
C3 O0 1.255 . S
C3 O4 1.247 . S
O4 C3 1.247 . S
C5 O17 1.242 . S
C5 O18 1.258 . S
O6 Eu2 2.292 . S
O6 C8 1.255 . S
C7 Eu2 2.852 . S
C7 C11 1.503 . S
C7 O24 1.273 . S
C7 O25 1.257 . S
C8 O6 1.255 . S
C8 O9 1.247 . S
O9 C8 1.247 . S
C10 O22 1.242 . S
C10 O23 1.258 . S
C11 C7 1.503 . S
C11 C12 1.379 . S
C11 C16 1.392 . S
C12 C11 1.379 . S
C12 C13 1.404 . S
C12 H26 0.929 . S
C13 C12 1.404 . S
C13 C14 1.389 . S
C14 C13 1.389 . S
C14 C15 1.399 . S
C14 H27 0.931 . S
C15 C14 1.399 . S
C15 C16 1.390 . S
C16 C11 1.392 . S
C16 C15 1.390 . S
C16 H28 0.929 . S
O17 Tb1 2.326 . S
O17 C5 1.242 . S
O18 Eu2 2.324 . S
O18 C5 1.258 . S
O19 Tb1 2.500 . S
O19 C21 1.273 . S
O20 Tb1 2.473 . S
O20 C21 1.257 . S
C21 O19 1.273 . S
C21 O20 1.257 . S
O22 Eu2 2.326 . S
O22 C10 1.242 . S
O23 Tb1 2.324 . S
O23 C10 1.258 . S
O24 Eu2 2.500 . S
O24 C7 1.273 . S
O25 Eu2 2.473 . S
O25 C7 1.257 . S
H26 C12 0.929 . S
H27 C14 0.931 . S
H28 C16 0.929 . S
O29 Tb30 2.292 . S
O29 C32 1.255 . S
Tb30 O29 2.292 . S
Tb30 O46 2.326 . S
Tb30 O48 2.500 . S
Tb30 O49 2.473 . S
Tb30 O52 2.324 . S
Eu31 O35 2.292 . S
Eu31 C36 2.852 . S
Eu31 O47 2.324 . S
Eu31 O51 2.326 . S
Eu31 O53 2.500 . S
Eu31 O54 2.473 . S
C32 O29 1.255 . S
C32 O33 1.247 . S
O33 C32 1.247 . S
C34 O46 1.242 . S
C34 O47 1.258 . S
O35 Eu31 2.292 . S
O35 C37 1.255 . S
C36 Eu31 2.852 . S
C36 C40 1.503 . S
C36 O53 1.273 . S
C36 O54 1.257 . S
C37 O35 1.255 . S
C37 O38 1.247 . S
O38 C37 1.247 . S
C39 O51 1.242 . S
C39 O52 1.258 . S
C40 C36 1.503 . S
C40 C41 1.379 . S
C40 C45 1.392 . S
C41 C40 1.379 . S
C41 C42 1.404 . S
C41 H55 0.929 . S
C42 C41 1.404 . S
C42 C43 1.389 . S
C43 C42 1.389 . S
C43 C44 1.399 . S
C43 H56 0.931 . S
C44 C43 1.399 . S
C44 C45 1.390 . S
C45 C40 1.392 . S
C45 C44 1.390 . S
C45 H57 0.929 . S
O46 Tb30 2.326 . S
O46 C34 1.242 . S
O47 Eu31 2.324 . S
O47 C34 1.258 . S
O48 Tb30 2.500 . S
O48 C50 1.273 . S
O49 Tb30 2.473 . S
O49 C50 1.257 . S
C50 O48 1.273 . S
C50 O49 1.257 . S
O51 Eu31 2.326 . S
O51 C39 1.242 . S
O52 Tb30 2.324 . S
O52 C39 1.258 . S
O53 Eu31 2.500 . S
O53 C36 1.273 . S
O54 Eu31 2.473 . S
O54 C36 1.257 . S
H55 C41 0.929 . S
H56 C43 0.931 . S
H57 C45 0.929 . S
O58 Tb59 2.292 . S
O58 C61 1.255 . S
Tb59 O58 2.292 . S
Tb59 O75 2.326 . S
Tb59 O77 2.500 . S
Tb59 O78 2.473 . S
Tb59 O81 2.324 . S
Eu60 O64 2.292 . S
Eu60 C65 2.852 . S
Eu60 O76 2.324 . S
Eu60 O80 2.326 . S
Eu60 O82 2.500 . S
Eu60 O83 2.473 . S
C61 O58 1.255 . S
C61 O62 1.247 . S
O62 C61 1.247 . S
C63 O75 1.242 . S
C63 O76 1.258 . S
O64 Eu60 2.292 . S
O64 C66 1.255 . S
C65 Eu60 2.852 . S
C65 C69 1.503 . S
C65 O82 1.273 . S
C65 O83 1.257 . S
C66 O64 1.255 . S
C66 O67 1.247 . S
O67 C66 1.247 . S
C68 O80 1.242 . S
C68 O81 1.258 . S
C69 C65 1.503 . S
C69 C70 1.379 . S
C69 C74 1.392 . S
C70 C69 1.379 . S
C70 C71 1.404 . S
C70 H84 0.929 . S
C71 C70 1.404 . S
C71 C72 1.389 . S
C72 C71 1.389 . S
C72 C73 1.399 . S
C72 H85 0.931 . S
C73 C72 1.399 . S
C73 C74 1.390 . S
C74 C69 1.392 . S
C74 C73 1.390 . S
C74 H86 0.929 . S
O75 Tb59 2.326 . S
O75 C63 1.242 . S
O76 Eu60 2.324 . S
O76 C63 1.258 . S
O77 Tb59 2.500 . S
O77 C79 1.273 . S
O78 Tb59 2.473 . S
O78 C79 1.257 . S
C79 O77 1.273 . S
C79 O78 1.257 . S
O80 Eu60 2.326 . S
O80 C68 1.242 . S
O81 Tb59 2.324 . S
O81 C68 1.258 . S
O82 Eu60 2.500 . S
O82 C65 1.273 . S
O83 Eu60 2.473 . S
O83 C65 1.257 . S
H84 C70 0.929 . S
H85 C72 0.931 . S
H86 C74 0.929 . S
O87 Tb88 2.292 . S
O87 C90 1.255 . S
Tb88 O87 2.292 . S
Tb88 O104 2.326 . S
Tb88 O106 2.500 . S
Tb88 O107 2.473 . S
Tb88 O110 2.324 . S
Eu89 O93 2.292 . S
Eu89 C94 2.852 . S
Eu89 O105 2.324 . S
Eu89 O109 2.326 . S
Eu89 O111 2.500 . S
Eu89 O112 2.473 . S
C90 O87 1.255 . S
C90 O91 1.247 . S
O91 C90 1.247 . S
C92 O104 1.242 . S
C92 O105 1.258 . S
O93 Eu89 2.292 . S
O93 C95 1.255 . S
C94 Eu89 2.852 . S
C94 C98 1.503 . S
C94 O111 1.273 . S
C94 O112 1.257 . S
C95 O93 1.255 . S
C95 O96 1.247 . S
O96 C95 1.247 . S
C97 O109 1.242 . S
C97 O110 1.258 . S
C98 C94 1.503 . S
C98 C99 1.379 . S
C98 C103 1.392 . S
C99 C98 1.379 . S
C99 C100 1.404 . S
C99 H113 0.929 . S
C100 C99 1.404 . S
C100 C101 1.389 . S
C101 C100 1.389 . S
C101 C102 1.399 . S
C101 H114 0.931 . S
C102 C101 1.399 . S
C102 C103 1.390 . S
C103 C98 1.392 . S
C103 C102 1.390 . S
C103 H115 0.929 . S
O104 Tb88 2.326 . S
O104 C92 1.242 . S
O105 Eu89 2.324 . S
O105 C92 1.258 . S
O106 Tb88 2.500 . S
O106 C108 1.273 . S
O107 Tb88 2.473 . S
O107 C108 1.257 . S
C108 O106 1.273 . S
C108 O107 1.257 . S
O109 Eu89 2.326 . S
O109 C97 1.242 . S
O110 Tb88 2.324 . S
O110 C97 1.258 . S
O111 Eu89 2.500 . S
O111 C94 1.273 . S
O112 Eu89 2.473 . S
O112 C94 1.257 . S
H113 C99 0.929 . S
H114 C101 0.931 . S
H115 C103 0.929 . S
O116 Tb117 2.292 . S
O116 C119 1.255 . S
Tb117 O116 2.292 . S
Tb117 O133 2.326 . S
Tb117 O135 2.500 . S
Tb117 O136 2.473 . S
Tb117 O139 2.324 . S
Eu118 O122 2.292 . S
Eu118 C123 2.852 . S
Eu118 O134 2.324 . S
Eu118 O138 2.326 . S
Eu118 O140 2.500 . S
Eu118 O141 2.473 . S
C119 O116 1.255 . S
C119 O120 1.247 . S
O120 C119 1.247 . S
C121 O133 1.242 . S
C121 O134 1.258 . S
O122 Eu118 2.292 . S
O122 C124 1.255 . S
C123 Eu118 2.852 . S
C123 C127 1.503 . S
C123 O140 1.273 . S
C123 O141 1.257 . S
C124 O122 1.255 . S
C124 O125 1.247 . S
O125 C124 1.247 . S
C126 O138 1.242 . S
C126 O139 1.258 . S
C127 C123 1.503 . S
C127 C128 1.379 . S
C127 C132 1.392 . S
C128 C127 1.379 . S
C128 C129 1.404 . S
C128 H142 0.929 . S
C129 C128 1.404 . S
C129 C130 1.389 . S
C130 C129 1.389 . S
C130 C131 1.399 . S
C130 H143 0.931 . S
C131 C130 1.399 . S
C131 C132 1.390 . S
C132 C127 1.392 . S
C132 C131 1.390 . S
C132 H144 0.929 . S
O133 Tb117 2.326 . S
O133 C121 1.242 . S
O134 Eu118 2.324 . S
O134 C121 1.258 . S
O135 Tb117 2.500 . S
O135 C137 1.273 . S
O136 Tb117 2.473 . S
O136 C137 1.257 . S
C137 O135 1.273 . S
C137 O136 1.257 . S
O138 Eu118 2.326 . S
O138 C126 1.242 . S
O139 Tb117 2.324 . S
O139 C126 1.258 . S
O140 Eu118 2.500 . S
O140 C123 1.273 . S
O141 Eu118 2.473 . S
O141 C123 1.257 . S
H142 C128 0.929 . S
H143 C130 0.931 . S
H144 C132 0.929 . S
O145 Tb146 2.292 . S
O145 C148 1.255 . S
Tb146 O145 2.292 . S
Tb146 O162 2.326 . S
Tb146 O164 2.500 . S
Tb146 O165 2.473 . S
Tb146 O168 2.324 . S
Eu147 O151 2.292 . S
Eu147 C152 2.852 . S
Eu147 O163 2.324 . S
Eu147 O167 2.326 . S
Eu147 O169 2.500 . S
Eu147 O170 2.473 . S
C148 O145 1.255 . S
C148 O149 1.247 . S
O149 C148 1.247 . S
C150 O162 1.242 . S
C150 O163 1.258 . S
O151 Eu147 2.292 . S
O151 C153 1.255 . S
C152 Eu147 2.852 . S
C152 C156 1.503 . S
C152 O169 1.273 . S
C152 O170 1.257 . S
C153 O151 1.255 . S
C153 O154 1.247 . S
O154 C153 1.247 . S
C155 O167 1.242 . S
C155 O168 1.258 . S
C156 C152 1.503 . S
C156 C157 1.379 . S
C156 C161 1.392 . S
C157 C156 1.379 . S
C157 C158 1.404 . S
C157 H171 0.929 . S
C158 C157 1.404 . S
C158 C159 1.389 . S
C159 C158 1.389 . S
C159 C160 1.399 . S
C159 H172 0.931 . S
C160 C159 1.399 . S
C160 C161 1.390 . S
C161 C156 1.392 . S
C161 C160 1.390 . S
C161 H173 0.929 . S
O162 Tb146 2.326 . S
O162 C150 1.242 . S
O163 Eu147 2.324 . S
O163 C150 1.258 . S
O164 Tb146 2.500 . S
O164 C166 1.273 . S
O165 Tb146 2.473 . S
O165 C166 1.257 . S
C166 O164 1.273 . S
C166 O165 1.257 . S
O167 Eu147 2.326 . S
O167 C155 1.242 . S
O168 Tb146 2.324 . S
O168 C155 1.258 . S
O169 Eu147 2.500 . S
O169 C152 1.273 . S
O170 Eu147 2.473 . S
O170 C152 1.257 . S
H171 C157 0.929 . S
H172 C159 0.931 . S
H173 C161 0.929 . S
O174 Tb175 2.292 . S
O174 C177 1.255 . S
Tb175 O174 2.292 . S
Tb175 O191 2.326 . S
Tb175 O193 2.500 . S
Tb175 O194 2.473 . S
Tb175 O197 2.324 . S
Eu176 O180 2.292 . S
Eu176 C181 2.852 . S
Eu176 O192 2.324 . S
Eu176 O196 2.326 . S
Eu176 O198 2.500 . S
Eu176 O199 2.473 . S
C177 O174 1.255 . S
C177 O178 1.247 . S
O178 C177 1.247 . S
C179 O191 1.242 . S
C179 O192 1.258 . S
O180 Eu176 2.292 . S
O180 C182 1.255 . S
C181 Eu176 2.852 . S
C181 C185 1.503 . S
C181 O198 1.273 . S
C181 O199 1.257 . S
C182 O180 1.255 . S
C182 O183 1.247 . S
O183 C182 1.247 . S
C184 O196 1.242 . S
C184 O197 1.258 . S
C185 C181 1.503 . S
C185 C186 1.379 . S
C185 C190 1.392 . S
C186 C185 1.379 . S
C186 C187 1.404 . S
C186 H200 0.929 . S
C187 C186 1.404 . S
C187 C188 1.389 . S
C188 C187 1.389 . S
C188 C189 1.399 . S
C188 H201 0.931 . S
C189 C188 1.399 . S
C189 C190 1.390 . S
C190 C185 1.392 . S
C190 C189 1.390 . S
C190 H202 0.929 . S
O191 Tb175 2.326 . S
O191 C179 1.242 . S
O192 Eu176 2.324 . S
O192 C179 1.258 . S
O193 Tb175 2.500 . S
O193 C195 1.273 . S
O194 Tb175 2.473 . S
O194 C195 1.257 . S
C195 O193 1.273 . S
C195 O194 1.257 . S
O196 Eu176 2.326 . S
O196 C184 1.242 . S
O197 Tb175 2.324 . S
O197 C184 1.258 . S
O198 Eu176 2.500 . S
O198 C181 1.273 . S
O199 Eu176 2.473 . S
O199 C181 1.257 . S
H200 C186 0.929 . S
H201 C188 0.931 . S
H202 C190 0.929 . S
O203 Tb204 2.292 . S
O203 C206 1.255 . S
Tb204 O203 2.292 . S
Tb204 O220 2.326 . S
Tb204 O222 2.500 . S
Tb204 O223 2.473 . S
Tb204 O226 2.324 . S
Eu205 O209 2.292 . S
Eu205 C210 2.852 . S
Eu205 O221 2.324 . S
Eu205 O225 2.326 . S
Eu205 O227 2.500 . S
Eu205 O228 2.473 . S
C206 O203 1.255 . S
C206 O207 1.247 . S
O207 C206 1.247 . S
C208 O220 1.242 . S
C208 O221 1.258 . S
O209 Eu205 2.292 . S
O209 C211 1.255 . S
C210 Eu205 2.852 . S
C210 C214 1.503 . S
C210 O227 1.273 . S
C210 O228 1.257 . S
C211 O209 1.255 . S
C211 O212 1.247 . S
O212 C211 1.247 . S
C213 O225 1.242 . S
C213 O226 1.258 . S
C214 C210 1.503 . S
C214 C215 1.379 . S
C214 C219 1.392 . S
C215 C214 1.379 . S
C215 C216 1.404 . S
C215 H229 0.929 . S
C216 C215 1.404 . S
C216 C217 1.389 . S
C217 C216 1.389 . S
C217 C218 1.399 . S
C217 H230 0.931 . S
C218 C217 1.399 . S
C218 C219 1.390 . S
C219 C214 1.392 . S
C219 C218 1.390 . S
C219 H231 0.929 . S
O220 Tb204 2.326 . S
O220 C208 1.242 . S
O221 Eu205 2.324 . S
O221 C208 1.258 . S
O222 Tb204 2.500 . S
O222 C224 1.273 . S
O223 Tb204 2.473 . S
O223 C224 1.257 . S
C224 O222 1.273 . S
C224 O223 1.257 . S
O225 Eu205 2.326 . S
O225 C213 1.242 . S
O226 Tb204 2.324 . S
O226 C213 1.258 . S
O227 Eu205 2.500 . S
O227 C210 1.273 . S
O228 Eu205 2.473 . S
O228 C210 1.257 . S
H229 C215 0.929 . S
H230 C217 0.931 . S
H231 C219 0.929 . S
O232 Tb233 2.292 . S
O232 C235 1.255 . S
Tb233 O232 2.292 . S
Tb233 O249 2.326 . S
Tb233 O251 2.500 . S
Tb233 O252 2.473 . S
Tb233 O255 2.324 . S
Eu234 O238 2.292 . S
Eu234 C239 2.852 . S
Eu234 O250 2.324 . S
Eu234 O254 2.326 . S
Eu234 O256 2.500 . S
Eu234 O257 2.473 . S
C235 O232 1.255 . S
C235 O236 1.247 . S
O236 C235 1.247 . S
C237 O249 1.242 . S
C237 O250 1.258 . S
O238 Eu234 2.292 . S
O238 C240 1.255 . S
C239 Eu234 2.852 . S
C239 C243 1.503 . S
C239 O256 1.273 . S
C239 O257 1.257 . S
C240 O238 1.255 . S
C240 O241 1.247 . S
O241 C240 1.247 . S
C242 O254 1.242 . S
C242 O255 1.258 . S
C243 C239 1.503 . S
C243 C244 1.379 . S
C243 C248 1.392 . S
C244 C243 1.379 . S
C244 C245 1.404 . S
C244 H258 0.929 . S
C245 C244 1.404 . S
C245 C246 1.389 . S
C246 C245 1.389 . S
C246 C247 1.399 . S
C246 H259 0.931 . S
C247 C246 1.399 . S
C247 C248 1.390 . S
C248 C243 1.392 . S
C248 C247 1.390 . S
C248 H260 0.929 . S
O249 Tb233 2.326 . S
O249 C237 1.242 . S
O250 Eu234 2.324 . S
O250 C237 1.258 . S
O251 Tb233 2.500 . S
O251 C253 1.273 . S
O252 Tb233 2.473 . S
O252 C253 1.257 . S
C253 O251 1.273 . S
C253 O252 1.257 . S
O254 Eu234 2.326 . S
O254 C242 1.242 . S
O255 Tb233 2.324 . S
O255 C242 1.258 . S
O256 Eu234 2.500 . S
O256 C239 1.273 . S
O257 Eu234 2.473 . S
O257 C239 1.257 . S
H258 C244 0.929 . S
H259 C246 0.931 . S
H260 C248 0.929 . S
O261 Tb262 2.292 . S
O261 C264 1.255 . S
Tb262 O261 2.292 . S
Tb262 O278 2.326 . S
Tb262 O280 2.500 . S
Tb262 O281 2.473 . S
Tb262 O284 2.324 . S
Eu263 O267 2.292 . S
Eu263 C268 2.852 . S
Eu263 O279 2.324 . S
Eu263 O283 2.326 . S
Eu263 O285 2.500 . S
Eu263 O286 2.473 . S
C264 O261 1.255 . S
C264 O265 1.247 . S
O265 C264 1.247 . S
C266 O278 1.242 . S
C266 O279 1.258 . S
O267 Eu263 2.292 . S
O267 C269 1.255 . S
C268 Eu263 2.852 . S
C268 C272 1.503 . S
C268 O285 1.273 . S
C268 O286 1.257 . S
C269 O267 1.255 . S
C269 O270 1.247 . S
O270 C269 1.247 . S
C271 O283 1.242 . S
C271 O284 1.258 . S
C272 C268 1.503 . S
C272 C273 1.379 . S
C272 C277 1.392 . S
C273 C272 1.379 . S
C273 C274 1.404 . S
C273 H287 0.929 . S
C274 C273 1.404 . S
C274 C275 1.389 . S
C275 C274 1.389 . S
C275 C276 1.399 . S
C275 H288 0.931 . S
C276 C275 1.399 . S
C276 C277 1.390 . S
C277 C272 1.392 . S
C277 C276 1.390 . S
C277 H289 0.929 . S
O278 Tb262 2.326 . S
O278 C266 1.242 . S
O279 Eu263 2.324 . S
O279 C266 1.258 . S
O280 Tb262 2.500 . S
O280 C282 1.273 . S
O281 Tb262 2.473 . S
O281 C282 1.257 . S
C282 O280 1.273 . S
C282 O281 1.257 . S
O283 Eu263 2.326 . S
O283 C271 1.242 . S
O284 Tb262 2.324 . S
O284 C271 1.258 . S
O285 Eu263 2.500 . S
O285 C268 1.273 . S
O286 Eu263 2.473 . S
O286 C268 1.257 . S
H287 C273 0.929 . S
H288 C275 0.931 . S
H289 C277 0.929 . S
O290 Tb291 2.292 . S
O290 C293 1.255 . S
Tb291 O290 2.292 . S
Tb291 O307 2.326 . S
Tb291 O309 2.500 . S
Tb291 O310 2.473 . S
Tb291 O313 2.324 . S
Eu292 O296 2.292 . S
Eu292 C297 2.852 . S
Eu292 O308 2.324 . S
Eu292 O312 2.326 . S
Eu292 O314 2.500 . S
Eu292 O315 2.473 . S
C293 O290 1.255 . S
C293 O294 1.247 . S
O294 C293 1.247 . S
C295 O307 1.242 . S
C295 O308 1.258 . S
O296 Eu292 2.292 . S
O296 C298 1.255 . S
C297 Eu292 2.852 . S
C297 C301 1.503 . S
C297 O314 1.273 . S
C297 O315 1.257 . S
C298 O296 1.255 . S
C298 O299 1.247 . S
O299 C298 1.247 . S
C300 O312 1.242 . S
C300 O313 1.258 . S
C301 C297 1.503 . S
C301 C302 1.379 . S
C301 C306 1.392 . S
C302 C301 1.379 . S
C302 C303 1.404 . S
C302 H316 0.929 . S
C303 C302 1.404 . S
C303 C304 1.389 . S
C304 C303 1.389 . S
C304 C305 1.399 . S
C304 H317 0.931 . S
C305 C304 1.399 . S
C305 C306 1.390 . S
C306 C301 1.392 . S
C306 C305 1.390 . S
C306 H318 0.929 . S
O307 Tb291 2.326 . S
O307 C295 1.242 . S
O308 Eu292 2.324 . S
O308 C295 1.258 . S
O309 Tb291 2.500 . S
O309 C311 1.273 . S
O310 Tb291 2.473 . S
O310 C311 1.257 . S
C311 O309 1.273 . S
C311 O310 1.257 . S
O312 Eu292 2.326 . S
O312 C300 1.242 . S
O313 Tb291 2.324 . S
O313 C300 1.258 . S
O314 Eu292 2.500 . S
O314 C297 1.273 . S
O315 Eu292 2.473 . S
O315 C297 1.257 . S
H316 C302 0.929 . S
H317 C304 0.931 . S
H318 C306 0.929 . S
O319 Tb320 2.292 . S
O319 C322 1.255 . S
Tb320 O319 2.292 . S
Tb320 O336 2.326 . S
Tb320 O338 2.500 . S
Tb320 O339 2.473 . S
Tb320 O342 2.324 . S
Eu321 O325 2.292 . S
Eu321 C326 2.852 . S
Eu321 O337 2.324 . S
Eu321 O341 2.326 . S
Eu321 O343 2.500 . S
Eu321 O344 2.473 . S
C322 O319 1.255 . S
C322 O323 1.247 . S
O323 C322 1.247 . S
C324 O336 1.242 . S
C324 O337 1.258 . S
O325 Eu321 2.292 . S
O325 C327 1.255 . S
C326 Eu321 2.852 . S
C326 C330 1.503 . S
C326 O343 1.273 . S
C326 O344 1.257 . S
C327 O325 1.255 . S
C327 O328 1.247 . S
O328 C327 1.247 . S
C329 O341 1.242 . S
C329 O342 1.258 . S
C330 C326 1.503 . S
C330 C331 1.379 . S
C330 C335 1.392 . S
C331 C330 1.379 . S
C331 C332 1.404 . S
C331 H345 0.929 . S
C332 C331 1.404 . S
C332 C333 1.389 . S
C333 C332 1.389 . S
C333 C334 1.399 . S
C333 H346 0.931 . S
C334 C333 1.399 . S
C334 C335 1.390 . S
C335 C330 1.392 . S
C335 C334 1.390 . S
C335 H347 0.929 . S
O336 Tb320 2.326 . S
O336 C324 1.242 . S
O337 Eu321 2.324 . S
O337 C324 1.258 . S
O338 Tb320 2.500 . S
O338 C340 1.273 . S
O339 Tb320 2.473 . S
O339 C340 1.257 . S
C340 O338 1.273 . S
C340 O339 1.257 . S
O341 Eu321 2.326 . S
O341 C329 1.242 . S
O342 Tb320 2.324 . S
O342 C329 1.258 . S
O343 Eu321 2.500 . S
O343 C326 1.273 . S
O344 Eu321 2.473 . S
O344 C326 1.257 . S
H345 C331 0.929 . S
H346 C333 0.931 . S
H347 C335 0.929 . S
O348 Tb349 2.292 . S
O348 C351 1.255 . S
Tb349 O348 2.292 . S
Tb349 O365 2.326 . S
Tb349 O367 2.500 . S
Tb349 O368 2.473 . S
Tb349 O371 2.324 . S
Eu350 O354 2.292 . S
Eu350 C355 2.852 . S
Eu350 O366 2.324 . S
Eu350 O370 2.326 . S
Eu350 O372 2.500 . S
Eu350 O373 2.473 . S
C351 O348 1.255 . S
C351 O352 1.247 . S
O352 C351 1.247 . S
C353 O365 1.242 . S
C353 O366 1.258 . S
O354 Eu350 2.292 . S
O354 C356 1.255 . S
C355 Eu350 2.852 . S
C355 C359 1.503 . S
C355 O372 1.273 . S
C355 O373 1.257 . S
C356 O354 1.255 . S
C356 O357 1.247 . S
O357 C356 1.247 . S
C358 O370 1.242 . S
C358 O371 1.258 . S
C359 C355 1.503 . S
C359 C360 1.379 . S
C359 C364 1.392 . S
C360 C359 1.379 . S
C360 C361 1.404 . S
C360 H374 0.929 . S
C361 C360 1.404 . S
C361 C362 1.389 . S
C362 C361 1.389 . S
C362 C363 1.399 . S
C362 H375 0.931 . S
C363 C362 1.399 . S
C363 C364 1.390 . S
C364 C359 1.392 . S
C364 C363 1.390 . S
C364 H376 0.929 . S
O365 Tb349 2.326 . S
O365 C353 1.242 . S
O366 Eu350 2.324 . S
O366 C353 1.258 . S
O367 Tb349 2.500 . S
O367 C369 1.273 . S
O368 Tb349 2.473 . S
O368 C369 1.257 . S
C369 O367 1.273 . S
C369 O368 1.257 . S
O370 Eu350 2.326 . S
O370 C358 1.242 . S
O371 Tb349 2.324 . S
O371 C358 1.258 . S
O372 Eu350 2.500 . S
O372 C355 1.273 . S
O373 Eu350 2.473 . S
O373 C355 1.257 . S
H374 C360 0.929 . S
H375 C362 0.931 . S
H376 C364 0.929 . S
O377 Tb378 2.292 . S
O377 C380 1.255 . S
Tb378 O377 2.292 . S
Tb378 O394 2.326 . S
Tb378 O396 2.500 . S
Tb378 O397 2.473 . S
Tb378 O400 2.324 . S
Eu379 O383 2.292 . S
Eu379 C384 2.852 . S
Eu379 O395 2.324 . S
Eu379 O399 2.326 . S
Eu379 O401 2.500 . S
Eu379 O402 2.473 . S
C380 O377 1.255 . S
C380 O381 1.247 . S
O381 C380 1.247 . S
C382 O394 1.242 . S
C382 O395 1.258 . S
O383 Eu379 2.292 . S
O383 C385 1.255 . S
C384 Eu379 2.852 . S
C384 C388 1.503 . S
C384 O401 1.273 . S
C384 O402 1.257 . S
C385 O383 1.255 . S
C385 O386 1.247 . S
O386 C385 1.247 . S
C387 O399 1.242 . S
C387 O400 1.258 . S
C388 C384 1.503 . S
C388 C389 1.379 . S
C388 C393 1.392 . S
C389 C388 1.379 . S
C389 C390 1.404 . S
C389 H403 0.929 . S
C390 C389 1.404 . S
C390 C391 1.389 . S
C391 C390 1.389 . S
C391 C392 1.399 . S
C391 H404 0.931 . S
C392 C391 1.399 . S
C392 C393 1.390 . S
C393 C388 1.392 . S
C393 C392 1.390 . S
C393 H405 0.929 . S
O394 Tb378 2.326 . S
O394 C382 1.242 . S
O395 Eu379 2.324 . S
O395 C382 1.258 . S
O396 Tb378 2.500 . S
O396 C398 1.273 . S
O397 Tb378 2.473 . S
O397 C398 1.257 . S
C398 O396 1.273 . S
C398 O397 1.257 . S
O399 Eu379 2.326 . S
O399 C387 1.242 . S
O400 Tb378 2.324 . S
O400 C387 1.258 . S
O401 Eu379 2.500 . S
O401 C384 1.273 . S
O402 Eu379 2.473 . S
O402 C384 1.257 . S
H403 C389 0.929 . S
H404 C391 0.931 . S
H405 C393 0.929 . S
O406 Tb407 2.292 . S
O406 C409 1.255 . S
Tb407 O406 2.292 . S
Tb407 O423 2.326 . S
Tb407 O425 2.500 . S
Tb407 O426 2.473 . S
Tb407 O429 2.324 . S
Eu408 O412 2.292 . S
Eu408 C413 2.852 . S
Eu408 O424 2.324 . S
Eu408 O428 2.326 . S
Eu408 O430 2.500 . S
Eu408 O431 2.473 . S
C409 O406 1.255 . S
C409 O410 1.247 . S
O410 C409 1.247 . S
C411 O423 1.242 . S
C411 O424 1.258 . S
O412 Eu408 2.292 . S
O412 C414 1.255 . S
C413 Eu408 2.852 . S
C413 C417 1.503 . S
C413 O430 1.273 . S
C413 O431 1.257 . S
C414 O412 1.255 . S
C414 O415 1.247 . S
O415 C414 1.247 . S
C416 O428 1.242 . S
C416 O429 1.258 . S
C417 C413 1.503 . S
C417 C418 1.379 . S
C417 C422 1.392 . S
C418 C417 1.379 . S
C418 C419 1.404 . S
C418 H432 0.929 . S
C419 C418 1.404 . S
C419 C420 1.389 . S
C420 C419 1.389 . S
C420 C421 1.399 . S
C420 H433 0.931 . S
C421 C420 1.399 . S
C421 C422 1.390 . S
C422 C417 1.392 . S
C422 C421 1.390 . S
C422 H434 0.929 . S
O423 Tb407 2.326 . S
O423 C411 1.242 . S
O424 Eu408 2.324 . S
O424 C411 1.258 . S
O425 Tb407 2.500 . S
O425 C427 1.273 . S
O426 Tb407 2.473 . S
O426 C427 1.257 . S
C427 O425 1.273 . S
C427 O426 1.257 . S
O428 Eu408 2.326 . S
O428 C416 1.242 . S
O429 Tb407 2.324 . S
O429 C416 1.258 . S
O430 Eu408 2.500 . S
O430 C413 1.273 . S
O431 Eu408 2.473 . S
O431 C413 1.257 . S
H432 C418 0.929 . S
H433 C420 0.931 . S
H434 C422 0.929 . S
O435 Tb436 2.292 . S
O435 C438 1.255 . S
Tb436 O435 2.292 . S
Tb436 O452 2.326 . S
Tb436 O454 2.500 . S
Tb436 O455 2.473 . S
Tb436 O458 2.324 . S
Eu437 O441 2.292 . S
Eu437 C442 2.852 . S
Eu437 O453 2.324 . S
Eu437 O457 2.326 . S
Eu437 O459 2.500 . S
Eu437 O460 2.473 . S
C438 O435 1.255 . S
C438 O439 1.247 . S
O439 C438 1.247 . S
C440 O452 1.242 . S
C440 O453 1.258 . S
O441 Eu437 2.292 . S
O441 C443 1.255 . S
C442 Eu437 2.852 . S
C442 C446 1.503 . S
C442 O459 1.273 . S
C442 O460 1.257 . S
C443 O441 1.255 . S
C443 O444 1.247 . S
O444 C443 1.247 . S
C445 O457 1.242 . S
C445 O458 1.258 . S
C446 C442 1.503 . S
C446 C447 1.379 . S
C446 C451 1.392 . S
C447 C446 1.379 . S
C447 C448 1.404 . S
C447 H461 0.929 . S
C448 C447 1.404 . S
C448 C449 1.389 . S
C449 C448 1.389 . S
C449 C450 1.399 . S
C449 H462 0.931 . S
C450 C449 1.399 . S
C450 C451 1.390 . S
C451 C446 1.392 . S
C451 C450 1.390 . S
C451 H463 0.929 . S
O452 Tb436 2.326 . S
O452 C440 1.242 . S
O453 Eu437 2.324 . S
O453 C440 1.258 . S
O454 Tb436 2.500 . S
O454 C456 1.273 . S
O455 Tb436 2.473 . S
O455 C456 1.257 . S
C456 O454 1.273 . S
C456 O455 1.257 . S
O457 Eu437 2.326 . S
O457 C445 1.242 . S
O458 Tb436 2.324 . S
O458 C445 1.258 . S
O459 Eu437 2.500 . S
O459 C442 1.273 . S
O460 Eu437 2.473 . S
O460 C442 1.257 . S
H461 C447 0.929 . S
H462 C449 0.931 . S
H463 C451 0.929 . S
O464 Tb465 2.292 . S
O464 C467 1.255 . S
Tb465 O464 2.292 . S
Tb465 O481 2.326 . S
Tb465 O483 2.500 . S
Tb465 O484 2.473 . S
Tb465 O487 2.324 . S
Eu466 O470 2.292 . S
Eu466 C471 2.852 . S
Eu466 O482 2.324 . S
Eu466 O486 2.326 . S
Eu466 O488 2.500 . S
Eu466 O489 2.473 . S
C467 O464 1.255 . S
C467 O468 1.247 . S
O468 C467 1.247 . S
C469 O481 1.242 . S
C469 O482 1.258 . S
O470 Eu466 2.292 . S
O470 C472 1.255 . S
C471 Eu466 2.852 . S
C471 C475 1.503 . S
C471 O488 1.273 . S
C471 O489 1.257 . S
C472 O470 1.255 . S
C472 O473 1.247 . S
O473 C472 1.247 . S
C474 O486 1.242 . S
C474 O487 1.258 . S
C475 C471 1.503 . S
C475 C476 1.379 . S
C475 C480 1.392 . S
C476 C475 1.379 . S
C476 C477 1.404 . S
C476 H490 0.929 . S
C477 C476 1.404 . S
C477 C478 1.389 . S
C478 C477 1.389 . S
C478 C479 1.399 . S
C478 H491 0.931 . S
C479 C478 1.399 . S
C479 C480 1.390 . S
C480 C475 1.392 . S
C480 C479 1.390 . S
C480 H492 0.929 . S
O481 Tb465 2.326 . S
O481 C469 1.242 . S
O482 Eu466 2.324 . S
O482 C469 1.258 . S
O483 Tb465 2.500 . S
O483 C485 1.273 . S
O484 Tb465 2.473 . S
O484 C485 1.257 . S
C485 O483 1.273 . S
C485 O484 1.257 . S
O486 Eu466 2.326 . S
O486 C474 1.242 . S
O487 Tb465 2.324 . S
O487 C474 1.258 . S
O488 Eu466 2.500 . S
O488 C471 1.273 . S
O489 Eu466 2.473 . S
O489 C471 1.257 . S
H490 C476 0.929 . S
H491 C478 0.931 . S
H492 C480 0.929 . S
O493 Tb494 2.292 . S
O493 C496 1.255 . S
Tb494 O493 2.292 . S
Tb494 O510 2.326 . S
Tb494 O512 2.500 . S
Tb494 O513 2.473 . S
Tb494 O516 2.324 . S
Eu495 O499 2.292 . S
Eu495 C500 2.852 . S
Eu495 O511 2.324 . S
Eu495 O515 2.326 . S
Eu495 O517 2.500 . S
Eu495 O518 2.473 . S
C496 O493 1.255 . S
C496 O497 1.247 . S
O497 C496 1.247 . S
C498 O510 1.242 . S
C498 O511 1.258 . S
O499 Eu495 2.292 . S
O499 C501 1.255 . S
C500 Eu495 2.852 . S
C500 C504 1.503 . S
C500 O517 1.273 . S
C500 O518 1.257 . S
C501 O499 1.255 . S
C501 O502 1.247 . S
O502 C501 1.247 . S
C503 O515 1.242 . S
C503 O516 1.258 . S
C504 C500 1.503 . S
C504 C505 1.379 . S
C504 C509 1.392 . S
C505 C504 1.379 . S
C505 C506 1.404 . S
C505 H519 0.929 . S
C506 C505 1.404 . S
C506 C507 1.389 . S
C507 C506 1.389 . S
C507 C508 1.399 . S
C507 H520 0.931 . S
C508 C507 1.399 . S
C508 C509 1.390 . S
C509 C504 1.392 . S
C509 C508 1.390 . S
C509 H521 0.929 . S
O510 Tb494 2.326 . S
O510 C498 1.242 . S
O511 Eu495 2.324 . S
O511 C498 1.258 . S
O512 Tb494 2.500 . S
O512 C514 1.273 . S
O513 Tb494 2.473 . S
O513 C514 1.257 . S
C514 O512 1.273 . S
C514 O513 1.257 . S
O515 Eu495 2.326 . S
O515 C503 1.242 . S
O516 Tb494 2.324 . S
O516 C503 1.258 . S
O517 Eu495 2.500 . S
O517 C500 1.273 . S
O518 Eu495 2.473 . S
O518 C500 1.257 . S
H519 C505 0.929 . S
H520 C507 0.931 . S
H521 C509 0.929 . S
O522 Tb523 2.292 . S
O522 C525 1.255 . S
Tb523 O522 2.292 . S
Tb523 O539 2.326 . S
Tb523 O541 2.500 . S
Tb523 O542 2.473 . S
Tb523 O545 2.324 . S
Eu524 O528 2.292 . S
Eu524 C529 2.852 . S
Eu524 O540 2.324 . S
Eu524 O544 2.326 . S
Eu524 O546 2.500 . S
Eu524 O547 2.473 . S
C525 O522 1.255 . S
C525 O526 1.247 . S
O526 C525 1.247 . S
C527 O539 1.242 . S
C527 O540 1.258 . S
O528 Eu524 2.292 . S
O528 C530 1.255 . S
C529 Eu524 2.852 . S
C529 C533 1.503 . S
C529 O546 1.273 . S
C529 O547 1.257 . S
C530 O528 1.255 . S
C530 O531 1.247 . S
O531 C530 1.247 . S
C532 O544 1.242 . S
C532 O545 1.258 . S
C533 C529 1.503 . S
C533 C534 1.379 . S
C533 C538 1.392 . S
C534 C533 1.379 . S
C534 C535 1.404 . S
C534 H548 0.929 . S
C535 C534 1.404 . S
C535 C536 1.389 . S
C536 C535 1.389 . S
C536 C537 1.399 . S
C536 H549 0.931 . S
C537 C536 1.399 . S
C537 C538 1.390 . S
C538 C533 1.392 . S
C538 C537 1.390 . S
C538 H550 0.929 . S
O539 Tb523 2.326 . S
O539 C527 1.242 . S
O540 Eu524 2.324 . S
O540 C527 1.258 . S
O541 Tb523 2.500 . S
O541 C543 1.273 . S
O542 Tb523 2.473 . S
O542 C543 1.257 . S
C543 O541 1.273 . S
C543 O542 1.257 . S
O544 Eu524 2.326 . S
O544 C532 1.242 . S
O545 Tb523 2.324 . S
O545 C532 1.258 . S
O546 Eu524 2.500 . S
O546 C529 1.273 . S
O547 Eu524 2.473 . S
O547 C529 1.257 . S
H548 C534 0.929 . S
H549 C536 0.931 . S
H550 C538 0.929 . S
O551 Tb552 2.292 . S
O551 C554 1.255 . S
Tb552 O551 2.292 . S
Tb552 O568 2.326 . S
Tb552 O570 2.500 . S
Tb552 O571 2.473 . S
Tb552 O574 2.324 . S
Eu553 O557 2.292 . S
Eu553 C558 2.852 . S
Eu553 O569 2.324 . S
Eu553 O573 2.326 . S
Eu553 O575 2.500 . S
Eu553 O576 2.473 . S
C554 O551 1.255 . S
C554 O555 1.247 . S
O555 C554 1.247 . S
C556 O568 1.242 . S
C556 O569 1.258 . S
O557 Eu553 2.292 . S
O557 C559 1.255 . S
C558 Eu553 2.852 . S
C558 C562 1.503 . S
C558 O575 1.273 . S
C558 O576 1.257 . S
C559 O557 1.255 . S
C559 O560 1.247 . S
O560 C559 1.247 . S
C561 O573 1.242 . S
C561 O574 1.258 . S
C562 C558 1.503 . S
C562 C563 1.379 . S
C562 C567 1.392 . S
C563 C562 1.379 . S
C563 C564 1.404 . S
C563 H577 0.929 . S
C564 C563 1.404 . S
C564 C565 1.389 . S
C565 C564 1.389 . S
C565 C566 1.399 . S
C565 H578 0.931 . S
C566 C565 1.399 . S
C566 C567 1.390 . S
C567 C562 1.392 . S
C567 C566 1.390 . S
C567 H579 0.929 . S
O568 Tb552 2.326 . S
O568 C556 1.242 . S
O569 Eu553 2.324 . S
O569 C556 1.258 . S
O570 Tb552 2.500 . S
O570 C572 1.273 . S
O571 Tb552 2.473 . S
O571 C572 1.257 . S
C572 O570 1.273 . S
C572 O571 1.257 . S
O573 Eu553 2.326 . S
O573 C561 1.242 . S
O574 Tb552 2.324 . S
O574 C561 1.258 . S
O575 Eu553 2.500 . S
O575 C558 1.273 . S
O576 Eu553 2.473 . S
O576 C558 1.257 . S
H577 C563 0.929 . S
H578 C565 0.931 . S
H579 C567 0.929 . S
O580 Tb581 2.292 . S
O580 C583 1.255 . S
Tb581 O580 2.292 . S
Tb581 O597 2.326 . S
Tb581 O599 2.500 . S
Tb581 O600 2.473 . S
Tb581 O603 2.324 . S
Eu582 O586 2.292 . S
Eu582 C587 2.852 . S
Eu582 O598 2.324 . S
Eu582 O602 2.326 . S
Eu582 O604 2.500 . S
Eu582 O605 2.473 . S
C583 O580 1.255 . S
C583 O584 1.247 . S
O584 C583 1.247 . S
C585 O597 1.242 . S
C585 O598 1.258 . S
O586 Eu582 2.292 . S
O586 C588 1.255 . S
C587 Eu582 2.852 . S
C587 C591 1.503 . S
C587 O604 1.273 . S
C587 O605 1.257 . S
C588 O586 1.255 . S
C588 O589 1.247 . S
O589 C588 1.247 . S
C590 O602 1.242 . S
C590 O603 1.258 . S
C591 C587 1.503 . S
C591 C592 1.379 . S
C591 C596 1.392 . S
C592 C591 1.379 . S
C592 C593 1.404 . S
C592 H606 0.929 . S
C593 C592 1.404 . S
C593 C594 1.389 . S
C594 C593 1.389 . S
C594 C595 1.399 . S
C594 H607 0.931 . S
C595 C594 1.399 . S
C595 C596 1.390 . S
C596 C591 1.392 . S
C596 C595 1.390 . S
C596 H608 0.929 . S
O597 Tb581 2.326 . S
O597 C585 1.242 . S
O598 Eu582 2.324 . S
O598 C585 1.258 . S
O599 Tb581 2.500 . S
O599 C601 1.273 . S
O600 Tb581 2.473 . S
O600 C601 1.257 . S
C601 O599 1.273 . S
C601 O600 1.257 . S
O602 Eu582 2.326 . S
O602 C590 1.242 . S
O603 Tb581 2.324 . S
O603 C590 1.258 . S
O604 Eu582 2.500 . S
O604 C587 1.273 . S
O605 Eu582 2.473 . S
O605 C587 1.257 . S
H606 C592 0.929 . S
H607 C594 0.931 . S
H608 C596 0.929 . S
O609 Tb610 2.292 . S
O609 C612 1.255 . S
Tb610 O609 2.292 . S
Tb610 O626 2.326 . S
Tb610 O628 2.500 . S
Tb610 O629 2.473 . S
Tb610 O632 2.324 . S
Eu611 O615 2.292 . S
Eu611 C616 2.852 . S
Eu611 O627 2.324 . S
Eu611 O631 2.326 . S
Eu611 O633 2.500 . S
Eu611 O634 2.473 . S
C612 O609 1.255 . S
C612 O613 1.247 . S
O613 C612 1.247 . S
C614 O626 1.242 . S
C614 O627 1.258 . S
O615 Eu611 2.292 . S
O615 C617 1.255 . S
C616 Eu611 2.852 . S
C616 C620 1.503 . S
C616 O633 1.273 . S
C616 O634 1.257 . S
C617 O615 1.255 . S
C617 O618 1.247 . S
O618 C617 1.247 . S
C619 O631 1.242 . S
C619 O632 1.258 . S
C620 C616 1.503 . S
C620 C621 1.379 . S
C620 C625 1.392 . S
C621 C620 1.379 . S
C621 C622 1.404 . S
C621 H635 0.929 . S
C622 C621 1.404 . S
C622 C623 1.389 . S
C623 C622 1.389 . S
C623 C624 1.399 . S
C623 H636 0.931 . S
C624 C623 1.399 . S
C624 C625 1.390 . S
C625 C620 1.392 . S
C625 C624 1.390 . S
C625 H637 0.929 . S
O626 Tb610 2.326 . S
O626 C614 1.242 . S
O627 Eu611 2.324 . S
O627 C614 1.258 . S
O628 Tb610 2.500 . S
O628 C630 1.273 . S
O629 Tb610 2.473 . S
O629 C630 1.257 . S
C630 O628 1.273 . S
C630 O629 1.257 . S
O631 Eu611 2.326 . S
O631 C619 1.242 . S
O632 Tb610 2.324 . S
O632 C619 1.258 . S
O633 Eu611 2.500 . S
O633 C616 1.273 . S
O634 Eu611 2.473 . S
O634 C616 1.257 . S
H635 C621 0.929 . S
H636 C623 0.931 . S
H637 C625 0.929 . S
O638 Tb639 2.292 . S
O638 C641 1.255 . S
Tb639 O638 2.292 . S
Tb639 O655 2.326 . S
Tb639 O657 2.500 . S
Tb639 O658 2.473 . S
Tb639 O661 2.324 . S
Eu640 O644 2.292 . S
Eu640 C645 2.852 . S
Eu640 O656 2.324 . S
Eu640 O660 2.326 . S
Eu640 O662 2.500 . S
Eu640 O663 2.473 . S
C641 O638 1.255 . S
C641 O642 1.247 . S
O642 C641 1.247 . S
C643 O655 1.242 . S
C643 O656 1.258 . S
O644 Eu640 2.292 . S
O644 C646 1.255 . S
C645 Eu640 2.852 . S
C645 C649 1.503 . S
C645 O662 1.273 . S
C645 O663 1.257 . S
C646 O644 1.255 . S
C646 O647 1.247 . S
O647 C646 1.247 . S
C648 O660 1.242 . S
C648 O661 1.258 . S
C649 C645 1.503 . S
C649 C650 1.379 . S
C649 C654 1.392 . S
C650 C649 1.379 . S
C650 C651 1.404 . S
C650 H664 0.929 . S
C651 C650 1.404 . S
C651 C652 1.389 . S
C652 C651 1.389 . S
C652 C653 1.399 . S
C652 H665 0.931 . S
C653 C652 1.399 . S
C653 C654 1.390 . S
C654 C649 1.392 . S
C654 C653 1.390 . S
C654 H666 0.929 . S
O655 Tb639 2.326 . S
O655 C643 1.242 . S
O656 Eu640 2.324 . S
O656 C643 1.258 . S
O657 Tb639 2.500 . S
O657 C659 1.273 . S
O658 Tb639 2.473 . S
O658 C659 1.257 . S
C659 O657 1.273 . S
C659 O658 1.257 . S
O660 Eu640 2.326 . S
O660 C648 1.242 . S
O661 Tb639 2.324 . S
O661 C648 1.258 . S
O662 Eu640 2.500 . S
O662 C645 1.273 . S
O663 Eu640 2.473 . S
O663 C645 1.257 . S
H664 C650 0.929 . S
H665 C652 0.931 . S
H666 C654 0.929 . S
O667 Tb668 2.292 . S
O667 C670 1.255 . S
Tb668 O667 2.292 . S
Tb668 O684 2.326 . S
Tb668 O686 2.500 . S
Tb668 O687 2.473 . S
Tb668 O690 2.324 . S
Eu669 O673 2.292 . S
Eu669 C674 2.852 . S
Eu669 O685 2.324 . S
Eu669 O689 2.326 . S
Eu669 O691 2.500 . S
Eu669 O692 2.473 . S
C670 O667 1.255 . S
C670 O671 1.247 . S
O671 C670 1.247 . S
C672 O684 1.242 . S
C672 O685 1.258 . S
O673 Eu669 2.292 . S
O673 C675 1.255 . S
C674 Eu669 2.852 . S
C674 C678 1.503 . S
C674 O691 1.273 . S
C674 O692 1.257 . S
C675 O673 1.255 . S
C675 O676 1.247 . S
O676 C675 1.247 . S
C677 O689 1.242 . S
C677 O690 1.258 . S
C678 C674 1.503 . S
C678 C679 1.379 . S
C678 C683 1.392 . S
C679 C678 1.379 . S
C679 C680 1.404 . S
C679 H693 0.929 . S
C680 C679 1.404 . S
C680 C681 1.389 . S
C681 C680 1.389 . S
C681 C682 1.399 . S
C681 H694 0.931 . S
C682 C681 1.399 . S
C682 C683 1.390 . S
C683 C678 1.392 . S
C683 C682 1.390 . S
C683 H695 0.929 . S
O684 Tb668 2.326 . S
O684 C672 1.242 . S
O685 Eu669 2.324 . S
O685 C672 1.258 . S
O686 Tb668 2.500 . S
O686 C688 1.273 . S
O687 Tb668 2.473 . S
O687 C688 1.257 . S
C688 O686 1.273 . S
C688 O687 1.257 . S
O689 Eu669 2.326 . S
O689 C677 1.242 . S
O690 Tb668 2.324 . S
O690 C677 1.258 . S
O691 Eu669 2.500 . S
O691 C674 1.273 . S
O692 Eu669 2.473 . S
O692 C674 1.257 . S
H693 C679 0.929 . S
H694 C681 0.931 . S
H695 C683 0.929 . S
H696 C704 0.929 . S
H697 C706 0.930 . S
H698 C708 0.930 . S
H699 C711 0.929 . S
H700 C714 0.930 . S
H701 C716 0.960 . S
H702 C716 0.960 . S
H703 C716 0.960 . S
C704 H696 0.929 . S
C704 C705 1.377 . S
C704 C706 1.384 . S
C705 C704 1.377 . S
C705 C711 1.390 . S
C706 H697 0.930 . S
C706 C704 1.384 . S
C706 C707 1.372 . S
C707 C706 1.372 . S
C707 C708 1.400 . S
C707 C712 1.490 . S
C708 H698 0.930 . S
C708 C707 1.400 . S
C708 C711 1.386 . S
H709 C725 0.930 . S
H710 C726 0.931 . S
C711 H699 0.929 . S
C711 C705 1.390 . S
C711 C708 1.386 . S
C712 C707 1.490 . S
C712 C714 1.395 . S
C712 C715 1.403 . S
H713 C719 0.930 . S
C714 H700 0.930 . S
C714 C712 1.395 . S
C714 C717 1.403 . S
C715 C712 1.403 . S
C715 C716 1.524 . S
C715 C719 1.400 . S
C716 H701 0.960 . S
C716 H702 0.960 . S
C716 H703 0.960 . S
C716 C715 1.524 . S
C717 C714 1.403 . S
C717 C718 1.392 . S
C717 C721 1.495 . S
C718 C717 1.392 . S
C718 C719 1.385 . S
C718 C720 1.478 . S
C719 H713 0.930 . S
C719 C715 1.400 . S
C719 C718 1.385 . S
C720 C718 1.478 . S
C720 C722 1.381 . S
C720 C726 1.383 . S
C721 C717 1.495 . S
C721 H727 0.959 . S
C721 H728 0.961 . S
C721 H729 0.960 . S
C722 C720 1.381 . S
C722 C723 1.394 . S
C722 H730 0.930 . S
C723 C722 1.394 . S
C723 C724 1.383 . S
C723 H731 0.929 . S
C724 C723 1.383 . S
C724 C725 1.377 . S
C725 H709 0.930 . S
C725 C724 1.377 . S
C725 C726 1.379 . S
C726 H710 0.931 . S
C726 C720 1.383 . S
C726 C725 1.379 . S
H727 C721 0.959 . S
H728 C721 0.961 . S
H729 C721 0.960 . S
H730 C722 0.930 . S
H731 C723 0.929 . S
H732 C740 0.929 . S
H733 C742 0.930 . S
H734 C744 0.930 . S
H735 C747 0.929 . S
H736 C750 0.930 . S
H737 C752 0.960 . S
H738 C752 0.960 . S
H739 C752 0.960 1_556 S
C740 H732 0.929 . S
C740 C741 1.377 . S
C740 C742 1.384 . S
C741 C740 1.377 . S
C741 C747 1.390 . S
C742 H733 0.930 . S
C742 C740 1.384 . S
C742 C743 1.372 . S
C743 C742 1.372 . S
C743 C744 1.400 . S
C743 C748 1.490 . S
C744 H734 0.930 . S
C744 C743 1.400 . S
C744 C747 1.386 . S
H745 C761 0.930 . S
H746 C762 0.931 . S
C747 H735 0.929 . S
C747 C741 1.390 . S
C747 C744 1.386 . S
C748 C743 1.490 . S
C748 C750 1.395 . S
C748 C751 1.403 1_556 S
H749 C755 0.930 . S
C750 H736 0.930 . S
C750 C748 1.395 . S
C750 C753 1.403 . S
C751 C748 1.403 1_554 S
C751 C752 1.524 . S
C751 C755 1.400 . S
C752 H737 0.960 . S
C752 H738 0.960 . S
C752 H739 0.960 1_554 S
C752 C751 1.524 . S
C753 C750 1.403 . S
C753 C754 1.392 1_556 S
C753 C757 1.495 . S
C754 C753 1.392 1_554 S
C754 C755 1.385 . S
C754 C756 1.478 . S
C755 H749 0.930 . S
C755 C751 1.400 . S
C755 C754 1.385 . S
C756 C754 1.478 . S
C756 C758 1.381 . S
C756 C762 1.383 . S
C757 C753 1.495 . S
C757 H763 0.959 . S
C757 H764 0.961 . S
C757 H765 0.960 1_556 S
C758 C756 1.381 . S
C758 C759 1.394 . S
C758 H766 0.930 . S
C759 C758 1.394 . S
C759 C760 1.383 . S
C759 H767 0.929 . S
C760 C759 1.383 . S
C760 C761 1.377 . S
C761 H745 0.930 . S
C761 C760 1.377 . S
C761 C762 1.379 . S
C762 H746 0.931 . S
C762 C756 1.383 . S
C762 C761 1.379 . S
H763 C757 0.959 . S
H764 C757 0.961 . S
H765 C757 0.960 1_554 S
H766 C758 0.930 . S
H767 C759 0.929 . S
H768 C776 0.929 . S
H769 C778 0.930 . S
H770 C780 0.930 . S
H771 C783 0.929 . S
H772 C786 0.930 . S
H773 C788 0.960 . S
H774 C788 0.960 . S
H775 C788 0.960 . S
C776 H768 0.929 . S
C776 C777 1.377 . S
C776 C778 1.384 . S
C777 C776 1.377 . S
C777 C783 1.390 . S
C778 H769 0.930 . S
C778 C776 1.384 . S
C778 C779 1.372 . S
C779 C778 1.372 . S
C779 C780 1.400 . S
C779 C784 1.490 1_545 S
C780 H770 0.930 . S
C780 C779 1.400 . S
C780 C783 1.386 . S
H781 C797 0.930 . S
H782 C798 0.931 . S
C783 H771 0.929 . S
C783 C777 1.390 . S
C783 C780 1.386 . S
C784 C779 1.490 1_565 S
C784 C786 1.395 1_565 S
C784 C787 1.403 . S
H785 C791 0.930 . S
C786 H772 0.930 . S
C786 C784 1.395 1_545 S
C786 C789 1.403 1_545 S
C787 C784 1.403 . S
C787 C788 1.524 . S
C787 C791 1.400 . S
C788 H773 0.960 . S
C788 H774 0.960 . S
C788 H775 0.960 . S
C788 C787 1.524 . S
C789 C786 1.403 1_565 S
C789 C790 1.392 . S
C789 C793 1.495 . S
C790 C789 1.392 . S
C790 C791 1.385 . S
C790 C792 1.478 . S
C791 H785 0.930 . S
C791 C787 1.400 . S
C791 C790 1.385 . S
C792 C790 1.478 . S
C792 C794 1.381 . S
C792 C798 1.383 . S
C793 C789 1.495 . S
C793 H799 0.959 1_565 S
C793 H800 0.961 1_565 S
C793 H801 0.960 . S
C794 C792 1.381 . S
C794 C795 1.394 . S
C794 H802 0.930 . S
C795 C794 1.394 . S
C795 C796 1.383 . S
C795 H803 0.929 . S
C796 C795 1.383 . S
C796 C797 1.377 . S
C797 H781 0.930 . S
C797 C796 1.377 . S
C797 C798 1.379 . S
C798 H782 0.931 . S
C798 C792 1.383 . S
C798 C797 1.379 . S
H799 C793 0.959 1_545 S
H800 C793 0.961 1_545 S
H801 C793 0.960 . S
H802 C794 0.930 . S
H803 C795 0.929 . S
H804 C812 0.929 . S
H805 C814 0.930 . S
H806 C816 0.930 . S
H807 C819 0.929 . S
H808 C822 0.930 . S
H809 C824 0.960 . S
H810 C824 0.959 1_556 S
H811 C824 0.960 . S
C812 H804 0.929 . S
C812 C813 1.377 . S
C812 C814 1.384 . S
C813 C812 1.377 . S
C813 C819 1.390 . S
C814 H805 0.930 . S
C814 C812 1.384 . S
C814 C815 1.372 . S
C815 C814 1.372 . S
C815 C816 1.400 . S
C815 C820 1.490 . S
C816 H806 0.930 . S
C816 C815 1.400 . S
C816 C819 1.386 . S
H817 C833 0.930 . S
H818 C834 0.931 . S
C819 H807 0.929 . S
C819 C813 1.390 . S
C819 C816 1.386 . S
C820 C815 1.490 . S
C820 C822 1.395 . S
C820 C823 1.403 1_556 S
H821 C827 0.930 . S
C822 H808 0.930 . S
C822 C820 1.395 . S
C822 C825 1.403 1_455 S
C823 C820 1.403 1_554 S
C823 C824 1.524 . S
C823 C827 1.400 . S
C824 H809 0.960 . S
C824 H810 0.959 1_554 S
C824 H811 0.960 . S
C824 C823 1.524 . S
C825 C822 1.403 1_655 S
C825 C826 1.392 1_556 S
C825 C829 1.495 . S
C826 C825 1.392 1_554 S
C826 C827 1.385 1_655 S
C826 C828 1.478 . S
C827 H821 0.930 . S
C827 C823 1.400 . S
C827 C826 1.385 1_455 S
C828 C826 1.478 . S
C828 C830 1.381 . S
C828 C834 1.383 . S
C829 C825 1.495 . S
C829 H835 0.959 . S
C829 H836 0.961 . S
C829 H837 0.960 . S
C830 C828 1.381 . S
C830 C831 1.394 . S
C830 H838 0.930 . S
C831 C830 1.394 . S
C831 C832 1.383 . S
C831 H839 0.929 . S
C832 C831 1.383 . S
C832 C833 1.377 . S
C833 H817 0.930 . S
C833 C832 1.377 . S
C833 C834 1.379 . S
C834 H818 0.931 . S
C834 C828 1.383 . S
C834 C833 1.379 . S
H835 C829 0.959 . S
H836 C829 0.961 . S
H837 C829 0.960 . S
H838 C830 0.930 . S
H839 C831 0.929 . S
H840 C848 0.929 . S
H841 C850 0.930 . S
H842 C852 0.930 . S
H843 C855 0.929 . S
H844 C858 0.930 . S
H845 C860 0.963 . S
H846 C860 0.960 . S
H847 C860 0.960 . S
C848 H840 0.929 . S
C848 C849 1.377 . S
C848 C850 1.384 . S
C849 C848 1.377 . S
C849 C855 1.390 . S
C850 H841 0.930 . S
C850 C848 1.384 . S
C850 C851 1.372 . S
C851 C850 1.372 . S
C851 C852 1.400 . S
C851 C856 1.490 . S
C852 H842 0.930 . S
C852 C851 1.400 . S
C852 C855 1.386 . S
H853 C869 0.930 . S
H854 C870 0.931 1_565 S
C855 H843 0.929 . S
C855 C849 1.390 . S
C855 C852 1.386 . S
C856 C851 1.490 . S
C856 C858 1.395 . S
C856 C859 1.403 . S
H857 C863 0.930 . S
C858 H844 0.930 . S
C858 C856 1.395 . S
C858 C861 1.403 1_564 S
C859 C856 1.403 . S
C859 C860 1.524 . S
C859 C863 1.400 1_554 S
C860 H845 0.963 . S
C860 H846 0.960 . S
C860 H847 0.960 . S
C860 C859 1.524 . S
C861 C858 1.403 1_546 S
C861 C862 1.393 . S
C861 C865 1.495 . S
C862 C861 1.393 . S
C862 C863 1.380 1_545 S
C862 C864 1.482 . S
C863 H857 0.930 . S
C863 C859 1.400 1_556 S
C863 C862 1.380 1_565 S
C864 C862 1.482 . S
C864 C866 1.381 . S
C864 C870 1.383 . S
C865 C861 1.495 . S
C865 H871 0.959 1_556 S
C865 H872 0.961 . S
C865 H873 0.960 . S
C866 C864 1.381 . S
C866 C867 1.394 . S
C866 H874 0.930 . S
C867 C866 1.394 . S
C867 C868 1.383 . S
C867 H875 0.929 . S
C868 C867 1.383 . S
C868 C869 1.377 . S
C869 H853 0.930 . S
C869 C868 1.377 . S
C869 C870 1.379 . S
C870 H854 0.931 1_545 S
C870 C864 1.383 . S
C870 C869 1.379 . S
H871 C865 0.959 1_554 S
H872 C865 0.961 . S
H873 C865 0.960 . S
H874 C866 0.930 . S
H875 C867 0.929 . S
H876 C884 0.929 . S
H877 C886 0.930 . S
H878 C888 0.930 . S
H879 C891 0.929 . S
H880 C894 0.930 . S
H881 C896 0.960 . S
H882 C896 0.960 . S
H883 C896 0.960 . S
C884 H876 0.929 . S
C884 C885 1.377 . S
C884 C886 1.384 . S
C885 C884 1.377 . S
C885 C891 1.390 . S
C886 H877 0.930 . S
C886 C884 1.384 . S
C886 C887 1.372 . S
C887 C886 1.372 . S
C887 C888 1.400 . S
C887 C892 1.490 1_655 S
C888 H878 0.930 . S
C888 C887 1.400 . S
C888 C891 1.386 . S
H889 C905 0.930 . S
H890 C906 0.931 . S
C891 H879 0.929 . S
C891 C885 1.390 . S
C891 C888 1.386 . S
C892 C887 1.490 1_455 S
C892 C894 1.395 . S
C892 C895 1.403 1_455 S
H893 C899 0.930 . S
C894 H880 0.930 . S
C894 C892 1.395 . S
C894 C897 1.403 . S
C895 C892 1.403 1_655 S
C895 C896 1.524 . S
C895 C899 1.400 1_655 S
C896 H881 0.960 . S
C896 H882 0.960 . S
C896 H883 0.960 . S
C896 C895 1.524 . S
C897 C894 1.403 . S
C897 C898 1.392 . S
C897 C901 1.495 . S
C898 C897 1.392 . S
C898 C899 1.385 . S
C898 C900 1.478 . S
C899 H893 0.930 . S
C899 C895 1.400 1_455 S
C899 C898 1.385 . S
C900 C898 1.478 . S
C900 C902 1.381 . S
C900 C906 1.383 . S
C901 C897 1.495 . S
C901 H907 0.959 . S
C901 H908 0.961 . S
C901 H909 0.960 . S
C902 C900 1.381 . S
C902 C903 1.394 . S
C902 H910 0.930 . S
C903 C902 1.394 . S
C903 C904 1.383 . S
C903 H911 0.929 . S
C904 C903 1.383 . S
C904 C905 1.377 . S
C905 H889 0.930 . S
C905 C904 1.377 . S
C905 C906 1.379 . S
C906 H890 0.931 . S
C906 C900 1.383 . S
C906 C905 1.379 . S
H907 C901 0.959 . S
H908 C901 0.961 . S
H909 C901 0.960 . S
H910 C902 0.930 . S
H911 C903 0.929 . S
H912 C920 0.929 . S
H913 C922 0.930 . S
H914 C924 0.930 . S
H915 C927 0.929 . S
H916 C930 0.930 . S
H917 C932 0.960 . S
H918 C932 0.960 . S
H919 C932 0.960 . S
C920 H912 0.929 . S
C920 C921 1.377 . S
C920 C922 1.384 . S
C921 C920 1.377 . S
C921 C927 1.390 . S
C922 H913 0.930 . S
C922 C920 1.384 . S
C922 C923 1.372 . S
C923 C922 1.372 . S
C923 C924 1.400 . S
C923 C928 1.490 . S
C924 H914 0.930 . S
C924 C923 1.400 . S
C924 C927 1.386 . S
H925 C941 0.930 . S
H926 C942 0.931 . S
C927 H915 0.929 . S
C927 C921 1.390 . S
C927 C924 1.386 . S
C928 C923 1.490 . S
C928 C930 1.395 . S
C928 C931 1.403 1_554 S
H929 C935 0.930 . S
C930 H916 0.930 . S
C930 C928 1.395 . S
C930 C933 1.403 . S
C931 C928 1.403 1_556 S
C931 C932 1.524 . S
C931 C935 1.400 . S
C932 H917 0.960 . S
C932 H918 0.960 . S
C932 H919 0.960 . S
C932 C931 1.524 . S
C933 C930 1.403 . S
C933 C934 1.392 1_554 S
C933 C937 1.495 . S
C934 C933 1.392 1_556 S
C934 C935 1.385 . S
C934 C936 1.478 . S
C935 H929 0.930 . S
C935 C931 1.400 . S
C935 C934 1.385 . S
C936 C934 1.478 . S
C936 C938 1.381 . S
C936 C942 1.383 . S
C937 C933 1.495 . S
C937 H943 0.959 . S
C937 H944 0.961 . S
C937 H945 0.960 . S
C938 C936 1.381 . S
C938 C939 1.394 . S
C938 H946 0.930 . S
C939 C938 1.394 . S
C939 C940 1.383 . S
C939 H947 0.929 . S
C940 C939 1.383 . S
C940 C941 1.377 . S
C941 H925 0.930 . S
C941 C940 1.377 . S
C941 C942 1.379 . S
C942 H926 0.931 . S
C942 C936 1.383 . S
C942 C941 1.379 . S
H943 C937 0.959 . S
H944 C937 0.961 . S
H945 C937 0.960 . S
H946 C938 0.930 . S
H947 C939 0.929 . S
H948 C956 0.929 . S
H949 C958 0.930 . S
H950 C960 0.930 . S
H951 C963 0.929 . S
H952 C966 0.930 . S
H953 C968 0.960 . S
H954 C968 0.960 . S
H955 C968 0.960 . S
C956 H948 0.929 . S
C956 C957 1.377 . S
C956 C958 1.384 . S
C957 C956 1.377 . S
C957 C963 1.390 . S
C958 H949 0.930 . S
C958 C956 1.384 . S
C958 C959 1.372 . S
C959 C958 1.372 . S
C959 C960 1.400 . S
C959 C964 1.490 . S
C960 H950 0.930 . S
C960 C959 1.400 . S
C960 C963 1.386 . S
H961 C977 0.930 . S
H962 C978 0.931 . S
C963 H951 0.929 . S
C963 C957 1.390 . S
C963 C960 1.386 . S
C964 C959 1.490 . S
C964 C966 1.395 . S
C964 C967 1.403 . S
H965 C971 0.930 . S
C966 H952 0.930 . S
C966 C964 1.395 . S
C966 C969 1.403 . S
C967 C964 1.403 . S
C967 C968 1.524 . S
C967 C971 1.400 . S
C968 H953 0.960 . S
C968 H954 0.960 . S
C968 H955 0.960 . S
C968 C967 1.524 . S
C969 C966 1.403 . S
C969 C970 1.392 . S
C969 C973 1.495 . S
C970 C969 1.392 . S
C970 C971 1.385 . S
C970 C972 1.478 . S
C971 H965 0.930 . S
C971 C967 1.400 . S
C971 C970 1.385 . S
C972 C970 1.478 . S
C972 C974 1.381 . S
C972 C978 1.383 . S
C973 C969 1.495 . S
C973 H979 0.959 . S
C973 H980 0.961 . S
C973 H981 0.960 . S
C974 C972 1.381 . S
C974 C975 1.394 . S
C974 H982 0.930 . S
C975 C974 1.394 . S
C975 C976 1.383 . S
C975 H983 0.929 . S
C976 C975 1.383 . S
C976 C977 1.377 . S
C977 H961 0.930 . S
C977 C976 1.377 . S
C977 C978 1.379 . S
C978 H962 0.931 . S
C978 C972 1.383 . S
C978 C977 1.379 . S
H979 C973 0.959 . S
H980 C973 0.961 . S
H981 C973 0.960 . S
H982 C974 0.930 . S
H983 C975 0.929 . S
H984 C992 0.929 . S
H985 C994 0.930 . S
H986 C996 0.930 . S
H987 C999 0.929 . S
H988 C1002 0.930 . S
H989 C1004 0.960 . S
H990 C1004 0.960 . S
H991 C1004 0.960 . S
C992 H984 0.929 . S
C992 C993 1.377 . S
C992 C994 1.384 . S
C993 C992 1.377 . S
C993 C999 1.390 . S
C994 H985 0.930 . S
C994 C992 1.384 . S
C994 C995 1.372 . S
C995 C994 1.372 . S
C995 C996 1.400 . S
C995 C1000 1.490 . S
C996 H986 0.930 . S
C996 C995 1.400 . S
C996 C999 1.386 . S
H997 C1013 0.930 . S
H998 C1014 0.931 . S
C999 H987 0.929 . S
C999 C993 1.390 . S
C999 C996 1.386 . S
C1000 C995 1.490 . S
C1000 C1002 1.395 . S
C1000 C1003 1.403 . S
H1001 C1007 0.930 . S
C1002 H988 0.930 . S
C1002 C1000 1.395 . S
C1002 C1005 1.403 . S
C1003 C1000 1.403 . S
C1003 C1004 1.524 . S
C1003 C1007 1.400 . S
C1004 H989 0.960 . S
C1004 H990 0.960 . S
C1004 H991 0.960 . S
C1004 C1003 1.524 . S
C1005 C1002 1.403 . S
C1005 C1006 1.392 . S
C1005 C1009 1.495 . S
C1006 C1005 1.392 . S
C1006 C1007 1.385 . S
C1006 C1008 1.478 . S
C1007 H1001 0.930 . S
C1007 C1003 1.400 . S
C1007 C1006 1.385 . S
C1008 C1006 1.478 . S
C1008 C1010 1.381 . S
C1008 C1014 1.383 . S
C1009 C1005 1.495 . S
C1009 H1015 0.959 . S
C1009 H1016 0.961 . S
C1009 H1017 0.960 . S
C1010 C1008 1.381 . S
C1010 C1011 1.394 . S
C1010 H1018 0.930 . S
C1011 C1010 1.394 . S
C1011 C1012 1.383 . S
C1011 H1019 0.929 . S
C1012 C1011 1.383 . S
C1012 C1013 1.377 . S
C1013 H997 0.930 . S
C1013 C1012 1.377 . S
C1013 C1014 1.379 . S
C1014 H998 0.931 . S
C1014 C1008 1.383 . S
C1014 C1013 1.379 . S
H1015 C1009 0.959 . S
H1016 C1009 0.961 . S
H1017 C1009 0.960 . S
H1018 C1010 0.930 . S
H1019 C1011 0.929 . S
H1020 C1028 0.929 . S
H1021 C1030 0.930 1_554 S
H1022 C1032 0.930 . S
H1023 C1035 0.929 . S
H1024 C1038 0.927 1_556 S
H1025 C1040 0.992 . S
H1026 C1040 0.960 . S
H1027 C1040 0.960 1_556 S
C1028 H1020 0.929 . S
C1028 C1029 1.377 . S
C1028 C1030 1.384 . S
C1029 C1028 1.377 . S
C1029 C1035 1.390 . S
C1030 H1021 0.930 1_556 S
C1030 C1028 1.384 . S
C1030 C1031 1.372 . S
C1031 C1030 1.372 . S
C1031 C1032 1.400 . S
C1031 C1036 1.490 1_556 S
C1032 H1022 0.930 . S
C1032 C1031 1.400 . S
C1032 C1035 1.386 . S
H1033 C1049 0.930 . S
H1034 C1050 0.931 . S
C1035 H1023 0.929 . S
C1035 C1029 1.390 . S
C1035 C1032 1.386 . S
C1036 C1031 1.490 1_554 S
C1036 C1038 1.395 . S
C1036 C1039 1.403 . S
H1037 C1043 0.930 . S
C1038 H1024 0.927 1_554 S
C1038 C1036 1.395 . S
C1038 C1041 1.403 1_545 S
C1039 C1036 1.403 . S
C1039 C1040 1.524 . S
C1039 C1043 1.400 1_545 S
C1040 H1025 0.992 . S
C1040 H1026 0.960 . S
C1040 H1027 0.960 1_554 S
C1040 C1039 1.524 . S
C1041 C1038 1.403 1_565 S
C1041 C1042 1.392 . S
C1041 C1045 1.495 . S
C1042 C1041 1.392 . S
C1042 C1043 1.385 . S
C1042 C1044 1.478 . S
C1043 H1037 0.930 . S
C1043 C1039 1.400 1_565 S
C1043 C1042 1.385 . S
C1044 C1042 1.478 . S
C1044 C1046 1.381 . S
C1044 C1050 1.383 . S
C1045 C1041 1.495 . S
C1045 H1051 0.958 . S
C1045 H1052 0.961 . S
C1045 H1053 0.960 . S
C1046 C1044 1.381 . S
C1046 C1047 1.394 . S
C1046 H1054 0.930 . S
C1047 C1046 1.394 . S
C1047 C1048 1.383 . S
C1047 H1055 0.929 . S
C1048 C1047 1.383 . S
C1048 C1049 1.377 . S
C1049 H1033 0.930 . S
C1049 C1048 1.377 . S
C1049 C1050 1.379 . S
C1050 H1034 0.931 . S
C1050 C1044 1.383 . S
C1050 C1049 1.379 . S
H1051 C1045 0.958 . S
H1052 C1045 0.961 . S
H1053 C1045 0.960 . S
H1054 C1046 0.930 . S
H1055 C1047 0.929 . S
H1056 C1064 0.929 . S
H1057 C1066 0.930 . S
H1058 C1068 0.930 . S
H1059 C1071 0.929 . S
H1060 C1074 0.930 . S
H1061 C1076 0.960 . S
H1062 C1076 0.960 . S
H1063 C1076 0.960 . S
C1064 H1056 0.929 . S
C1064 C1065 1.377 . S
C1064 C1066 1.384 . S
C1065 C1064 1.377 . S
C1065 C1071 1.390 . S
C1066 H1057 0.930 . S
C1066 C1064 1.384 . S
C1066 C1067 1.372 . S
C1067 C1066 1.372 . S
C1067 C1068 1.400 . S
C1067 C1072 1.490 . S
C1068 H1058 0.930 . S
C1068 C1067 1.400 . S
C1068 C1071 1.386 . S
H1069 C1085 0.930 . S
H1070 C1086 0.931 . S
C1071 H1059 0.929 . S
C1071 C1065 1.390 . S
C1071 C1068 1.386 . S
C1072 C1067 1.490 . S
C1072 C1074 1.395 1_455 S
C1072 C1075 1.403 . S
H1073 C1079 0.930 1_455 S
C1074 H1060 0.930 . S
C1074 C1072 1.395 1_655 S
C1074 C1077 1.403 . S
C1075 C1072 1.403 . S
C1075 C1076 1.524 . S
C1075 C1079 1.377 1_455 S
C1076 H1061 0.960 . S
C1076 H1062 0.960 . S
C1076 H1063 0.960 . S
C1076 C1075 1.524 . S
C1077 C1074 1.403 . S
C1077 C1078 1.392 . S
C1077 C1081 1.495 . S
C1078 C1077 1.392 . S
C1078 C1079 1.410 . S
C1078 C1080 1.478 . S
C1079 H1073 0.930 1_655 S
C1079 C1075 1.377 1_655 S
C1079 C1078 1.410 . S
C1080 C1078 1.478 . S
C1080 C1082 1.381 . S
C1080 C1086 1.383 . S
C1081 C1077 1.495 . S
C1081 H1087 0.959 . S
C1081 H1088 0.961 . S
C1081 H1089 0.960 . S
C1082 C1080 1.381 . S
C1082 C1083 1.394 . S
C1082 H1090 0.930 . S
C1083 C1082 1.394 . S
C1083 C1084 1.383 . S
C1083 H1091 0.929 . S
C1084 C1083 1.383 . S
C1084 C1085 1.377 . S
C1085 H1069 0.930 . S
C1085 C1084 1.377 . S
C1085 C1086 1.379 . S
C1086 H1070 0.931 . S
C1086 C1080 1.383 . S
C1086 C1085 1.379 . S
H1087 C1081 0.959 . S
H1088 C1081 0.961 . S
H1089 C1081 0.960 . S
H1090 C1082 0.930 . S
H1091 C1083 0.929 . S
H1092 C1100 0.929 . S
H1093 C1102 0.930 . S
H1094 C1104 0.930 1_554 S
H1095 C1107 0.929 . S
H1096 C1110 0.930 . S
H1097 C1112 0.960 . S
H1098 C1112 0.960 . S
H1099 C1112 0.960 . S
C1100 H1092 0.929 . S
C1100 C1101 1.377 . S
C1100 C1102 1.384 . S
C1101 C1100 1.377 . S
C1101 C1107 1.390 . S
C1102 H1093 0.930 . S
C1102 C1100 1.384 . S
C1102 C1103 1.372 . S
C1103 C1102 1.372 . S
C1103 C1104 1.400 . S
C1103 C1108 1.490 1_556 S
C1104 H1094 0.930 1_556 S
C1104 C1103 1.400 . S
C1104 C1107 1.386 . S
H1105 C1121 0.930 . S
H1106 C1122 0.931 . S
C1107 H1095 0.929 . S
C1107 C1101 1.390 . S
C1107 C1104 1.386 . S
C1108 C1103 1.490 1_554 S
C1108 C1110 1.395 1_554 S
C1108 C1111 1.403 . S
H1109 C1115 0.930 . S
C1110 H1096 0.930 . S
C1110 C1108 1.395 1_556 S
C1110 C1113 1.403 1_556 S
C1111 C1108 1.403 . S
C1111 C1112 1.524 . S
C1111 C1115 1.400 . S
C1112 H1097 0.960 . S
C1112 H1098 0.960 . S
C1112 H1099 0.960 . S
C1112 C1111 1.524 . S
C1113 C1110 1.403 1_554 S
C1113 C1114 1.392 . S
C1113 C1117 1.495 . S
C1114 C1113 1.392 . S
C1114 C1115 1.385 . S
C1114 C1116 1.478 . S
C1115 H1109 0.930 . S
C1115 C1111 1.400 . S
C1115 C1114 1.385 . S
C1116 C1114 1.478 . S
C1116 C1118 1.381 . S
C1116 C1122 1.383 . S
C1117 C1113 1.495 . S
C1117 H1123 0.959 1_554 S
C1117 H1124 0.961 . S
C1117 H1125 0.960 . S
C1118 C1116 1.381 . S
C1118 C1119 1.394 . S
C1118 H1126 0.930 . S
C1119 C1118 1.394 . S
C1119 C1120 1.383 . S
C1119 H1127 0.929 . S
C1120 C1119 1.383 . S
C1120 C1121 1.377 . S
C1121 H1105 0.930 . S
C1121 C1120 1.377 . S
C1121 C1122 1.379 . S
C1122 H1106 0.931 . S
C1122 C1116 1.383 . S
C1122 C1121 1.379 . S
H1123 C1117 0.959 1_556 S
H1124 C1117 0.961 . S
H1125 C1117 0.960 . S
H1126 C1118 0.930 . S
H1127 C1119 0.929 . S
H1128 C1136 0.929 . S
H1129 C1138 0.930 1_556 S
H1130 C1140 0.930 . S
H1131 C1143 0.929 . S
H1132 C1146 0.930 1_554 S
H1133 C1148 0.960 . S
H1134 C1148 0.960 . S
H1135 C1148 0.960 . S
C1136 H1128 0.929 . S
C1136 C1137 1.377 . S
C1136 C1138 1.384 . S
C1137 C1136 1.377 . S
C1137 C1143 1.390 . S
C1138 H1129 0.930 1_554 S
C1138 C1136 1.384 . S
C1138 C1139 1.372 . S
C1139 C1138 1.372 . S
C1139 C1140 1.400 . S
C1139 C1144 1.490 1_554 S
C1140 H1130 0.930 . S
C1140 C1139 1.400 . S
C1140 C1143 1.386 . S
H1141 C1157 0.930 . S
H1142 C1158 0.931 . S
C1143 H1131 0.929 . S
C1143 C1137 1.390 . S
C1143 C1140 1.386 . S
C1144 C1139 1.490 1_556 S
C1144 C1146 1.395 . S
C1144 C1147 1.403 . S
H1145 C1151 0.930 . S
C1146 H1132 0.930 1_556 S
C1146 C1144 1.395 . S
C1146 C1149 1.403 . S
C1147 C1144 1.403 . S
C1147 C1148 1.524 . S
C1147 C1151 1.400 . S
C1148 H1133 0.960 . S
C1148 H1134 0.960 . S
C1148 H1135 0.960 . S
C1148 C1147 1.524 . S
C1149 C1146 1.403 . S
C1149 C1150 1.392 . S
C1149 C1153 1.495 . S
C1150 C1149 1.392 . S
C1150 C1151 1.385 . S
C1150 C1152 1.478 . S
C1151 H1145 0.930 . S
C1151 C1147 1.400 . S
C1151 C1150 1.385 . S
C1152 C1150 1.478 . S
C1152 C1154 1.381 . S
C1152 C1158 1.383 . S
C1153 C1149 1.495 . S
C1153 H1159 0.959 . S
C1153 H1160 0.961 . S
C1153 H1161 0.960 . S
C1154 C1152 1.381 . S
C1154 C1155 1.394 . S
C1154 H1162 0.930 . S
C1155 C1154 1.394 . S
C1155 C1156 1.383 . S
C1155 H1163 0.929 . S
C1156 C1155 1.383 . S
C1156 C1157 1.377 . S
C1157 H1141 0.930 . S
C1157 C1156 1.377 . S
C1157 C1158 1.379 . S
C1158 H1142 0.931 . S
C1158 C1152 1.383 . S
C1158 C1157 1.379 . S
H1159 C1153 0.959 . S
H1160 C1153 0.961 . S
H1161 C1153 0.960 . S
H1162 C1154 0.930 . S
H1163 C1155 0.929 . S
H1164 C1172 0.929 . S
H1165 C1174 0.930 . S
H1166 C1176 0.930 . S
H1167 C1179 0.929 . S
H1168 C1182 0.930 . S
H1169 C1184 0.960 . S
H1170 C1184 0.960 . S
H1171 C1184 0.960 1_565 S
C1172 H1164 0.929 . S
C1172 C1173 1.377 . S
C1172 C1174 1.384 . S
C1173 C1172 1.377 . S
C1173 C1179 1.390 . S
C1174 H1165 0.930 . S
C1174 C1172 1.384 . S
C1174 C1175 1.372 . S
C1175 C1174 1.372 . S
C1175 C1176 1.400 . S
C1175 C1180 1.490 . S
C1176 H1166 0.930 . S
C1176 C1175 1.400 . S
C1176 C1179 1.386 . S
H1177 C1193 0.930 . S
H1178 C1194 0.931 . S
C1179 H1167 0.929 . S
C1179 C1173 1.390 . S
C1179 C1176 1.386 . S
C1180 C1175 1.490 . S
C1180 C1182 1.395 . S
C1180 C1183 1.404 . S
H1181 C1187 0.930 . S
C1182 H1168 0.930 . S
C1182 C1180 1.395 . S
C1182 C1185 1.403 . S
C1183 C1180 1.404 . S
C1183 C1184 1.523 1_565 S
C1183 C1187 1.398 1_565 S
C1184 H1169 0.960 . S
C1184 H1170 0.960 . S
C1184 H1171 0.960 1_545 S
C1184 C1183 1.523 1_545 S
C1185 C1182 1.403 . S
C1185 C1186 1.392 1_565 S
C1185 C1189 1.495 . S
C1186 C1185 1.392 1_545 S
C1186 C1187 1.385 . S
C1186 C1188 1.478 . S
C1187 H1181 0.930 . S
C1187 C1183 1.398 1_545 S
C1187 C1186 1.385 . S
C1188 C1186 1.478 . S
C1188 C1190 1.381 . S
C1188 C1194 1.383 . S
C1189 C1185 1.495 . S
C1189 H1195 0.959 . S
C1189 H1196 0.961 . S
C1189 H1197 0.960 1_565 S
C1190 C1188 1.381 . S
C1190 C1191 1.394 . S
C1190 H1198 0.930 . S
C1191 C1190 1.394 . S
C1191 C1192 1.383 . S
C1191 H1199 0.929 . S
C1192 C1191 1.383 . S
C1192 C1193 1.377 . S
C1193 H1177 0.930 . S
C1193 C1192 1.377 . S
C1193 C1194 1.379 . S
C1194 H1178 0.931 . S
C1194 C1188 1.383 . S
C1194 C1193 1.379 . S
H1195 C1189 0.959 . S
H1196 C1189 0.961 . S
H1197 C1189 0.960 1_545 S
H1198 C1190 0.930 . S
H1199 C1191 0.929 . S
H1200 C1208 0.929 . S
H1201 C1210 0.930 . S
H1202 C1212 0.930 1_556 S
H1203 C1215 0.929 . S
H1204 C1218 0.907 1_554 S
H1205 C1220 0.960 . S
H1206 C1220 0.960 1_554 S
H1207 C1220 0.960 . S
C1208 H1200 0.929 . S
C1208 C1209 1.377 . S
C1208 C1210 1.384 . S
C1209 C1208 1.377 . S
C1209 C1215 1.390 . S
C1210 H1201 0.930 . S
C1210 C1208 1.384 . S
C1210 C1211 1.372 . S
C1211 C1210 1.372 . S
C1211 C1212 1.400 . S
C1211 C1216 1.490 1_554 S
C1212 H1202 0.930 1_554 S
C1212 C1211 1.400 . S
C1212 C1215 1.386 . S
H1213 C1229 0.930 . S
H1214 C1230 0.931 . S
C1215 H1203 0.929 . S
C1215 C1209 1.390 . S
C1215 C1212 1.386 . S
C1216 C1211 1.490 1_556 S
C1216 C1218 1.395 . S
C1216 C1219 1.403 . S
H1217 C1223 0.930 . S
C1218 H1204 0.907 1_556 S
C1218 C1216 1.395 . S
C1218 C1221 1.403 1_655 S
C1219 C1216 1.403 . S
C1219 C1220 1.524 . S
C1219 C1223 1.400 1_655 S
C1220 H1205 0.960 . S
C1220 H1206 0.960 1_556 S
C1220 H1207 0.960 . S
C1220 C1219 1.524 . S
C1221 C1218 1.403 1_455 S
C1221 C1222 1.392 . S
C1221 C1225 1.495 . S
C1222 C1221 1.392 . S
C1222 C1223 1.385 . S
C1222 C1224 1.478 . S
C1223 H1217 0.930 . S
C1223 C1219 1.400 1_455 S
C1223 C1222 1.385 . S
C1224 C1222 1.478 . S
C1224 C1226 1.381 . S
C1224 C1230 1.383 . S
C1225 C1221 1.495 . S
C1225 H1231 0.959 . S
C1225 H1232 0.961 . S
C1225 H1233 0.960 . S
C1226 C1224 1.381 . S
C1226 C1227 1.394 . S
C1226 H1234 0.930 . S
C1227 C1226 1.394 . S
C1227 C1228 1.383 . S
C1227 H1235 0.929 . S
C1228 C1227 1.383 . S
C1228 C1229 1.377 . S
C1229 H1213 0.930 . S
C1229 C1228 1.377 . S
C1229 C1230 1.379 . S
C1230 H1214 0.931 . S
C1230 C1224 1.383 . S
C1230 C1229 1.379 . S
H1231 C1225 0.959 . S
H1232 C1225 0.961 . S
H1233 C1225 0.960 . S
H1234 C1226 0.930 . S
H1235 C1227 0.929 . S
H1236 C1244 0.929 . S
H1237 C1246 0.930 . S
H1238 C1248 0.930 . S
H1239 C1251 0.929 . S
H1240 C1254 0.930 . S
H1241 C1256 0.960 . S
H1242 C1256 0.960 . S
H1243 C1256 0.960 . S
C1244 H1236 0.929 . S
C1244 C1245 1.377 . S
C1244 C1246 1.384 . S
C1245 C1244 1.377 . S
C1245 C1251 1.390 . S
C1246 H1237 0.930 . S
C1246 C1244 1.384 . S
C1246 C1247 1.372 . S
C1247 C1246 1.372 . S
C1247 C1248 1.400 . S
C1247 C1252 1.490 . S
C1248 H1238 0.930 . S
C1248 C1247 1.400 . S
C1248 C1251 1.386 . S
H1249 C1265 0.930 . S
H1250 C1266 0.931 . S
C1251 H1239 0.929 . S
C1251 C1245 1.390 . S
C1251 C1248 1.386 . S
C1252 C1247 1.490 . S
C1252 C1254 1.395 . S
C1252 C1255 1.403 . S
H1253 C1259 0.930 . S
C1254 H1240 0.930 . S
C1254 C1252 1.395 . S
C1254 C1257 1.403 . S
C1255 C1252 1.403 . S
C1255 C1256 1.524 . S
C1255 C1259 1.400 . S
C1256 H1241 0.960 . S
C1256 H1242 0.960 . S
C1256 H1243 0.960 . S
C1256 C1255 1.524 . S
C1257 C1254 1.403 . S
C1257 C1258 1.392 . S
C1257 C1261 1.495 . S
C1258 C1257 1.392 . S
C1258 C1259 1.385 . S
C1258 C1260 1.478 . S
C1259 H1253 0.930 . S
C1259 C1255 1.400 . S
C1259 C1258 1.385 . S
C1260 C1258 1.478 . S
C1260 C1262 1.381 . S
C1260 C1266 1.383 . S
C1261 C1257 1.495 . S
C1261 H1267 0.959 . S
C1261 H1268 0.961 . S
C1261 H1269 0.960 . S
C1262 C1260 1.381 . S
C1262 C1263 1.394 . S
C1262 H1270 0.930 . S
C1263 C1262 1.394 . S
C1263 C1264 1.383 . S
C1263 H1271 0.929 . S
C1264 C1263 1.383 . S
C1264 C1265 1.377 . S
C1265 H1249 0.930 . S
C1265 C1264 1.377 . S
C1265 C1266 1.379 . S
C1266 H1250 0.931 . S
C1266 C1260 1.383 . S
C1266 C1265 1.379 . S
H1267 C1261 0.959 . S
H1268 C1261 0.961 . S
H1269 C1261 0.960 . S
H1270 C1262 0.930 . S
H1271 C1263 0.929 . S
H1272 C1280 0.929 . S
H1273 C1282 0.930 . S
H1274 C1284 0.930 . S
H1275 C1287 0.929 . S
H1276 C1290 0.930 . S
H1277 C1292 0.960 . S
H1278 C1292 0.960 . S
H1279 C1292 0.960 . S
C1280 H1272 0.929 . S
C1280 C1281 1.377 . S
C1280 C1282 1.384 . S
C1281 C1280 1.377 . S
C1281 C1287 1.390 . S
C1282 H1273 0.930 . S
C1282 C1280 1.384 . S
C1282 C1283 1.372 . S
C1283 C1282 1.372 . S
C1283 C1284 1.400 . S
C1283 C1288 1.490 . S
C1284 H1274 0.930 . S
C1284 C1283 1.400 . S
C1284 C1287 1.386 . S
H1285 C1301 0.930 . S
H1286 C1302 0.931 . S
C1287 H1275 0.929 . S
C1287 C1281 1.390 . S
C1287 C1284 1.386 . S
C1288 C1283 1.490 . S
C1288 C1290 1.395 . S
C1288 C1291 1.403 . S
H1289 C1295 0.930 . S
C1290 H1276 0.930 . S
C1290 C1288 1.395 . S
C1290 C1293 1.403 . S
C1291 C1288 1.403 . S
C1291 C1292 1.524 . S
C1291 C1295 1.400 . S
C1292 H1277 0.960 . S
C1292 H1278 0.960 . S
C1292 H1279 0.960 . S
C1292 C1291 1.524 . S
C1293 C1290 1.403 . S
C1293 C1294 1.392 . S
C1293 C1297 1.495 . S
C1294 C1293 1.392 . S
C1294 C1295 1.385 . S
C1294 C1296 1.478 . S
C1295 H1289 0.930 . S
C1295 C1291 1.400 . S
C1295 C1294 1.385 . S
C1296 C1294 1.478 . S
C1296 C1298 1.381 . S
C1296 C1302 1.383 . S
C1297 C1293 1.495 . S
C1297 H1303 0.959 . S
C1297 H1304 0.961 . S
C1297 H1305 0.960 . S
C1298 C1296 1.381 . S
C1298 C1299 1.394 . S
C1298 H1306 0.930 . S
C1299 C1298 1.394 . S
C1299 C1300 1.383 . S
C1299 H1307 0.929 . S
C1300 C1299 1.383 . S
C1300 C1301 1.377 . S
C1301 H1285 0.930 . S
C1301 C1300 1.377 . S
C1301 C1302 1.379 . S
C1302 H1286 0.931 . S
C1302 C1296 1.383 . S
C1302 C1301 1.379 . S
H1303 C1297 0.959 . S
H1304 C1297 0.961 . S
H1305 C1297 0.960 . S
H1306 C1298 0.930 . S
H1307 C1299 0.929 . S
H1308 C1316 0.929 . S
H1309 C1318 0.930 . S
H1310 C1320 0.930 . S
H1311 C1323 0.929 . S
H1312 C1326 0.930 . S
H1313 C1328 0.960 . S
H1314 C1328 0.960 . S
H1315 C1328 0.960 . S
C1316 H1308 0.929 . S
C1316 C1317 1.377 . S
C1316 C1318 1.384 . S
C1317 C1316 1.377 . S
C1317 C1323 1.390 . S
C1318 H1309 0.930 . S
C1318 C1316 1.384 . S
C1318 C1319 1.372 . S
C1319 C1318 1.372 . S
C1319 C1320 1.400 . S
C1319 C1324 1.490 . S
C1320 H1310 0.930 . S
C1320 C1319 1.400 . S
C1320 C1323 1.386 . S
H1321 C1337 0.930 . S
H1322 C1338 0.931 . S
C1323 H1311 0.929 . S
C1323 C1317 1.390 . S
C1323 C1320 1.386 . S
C1324 C1319 1.490 . S
C1324 C1326 1.395 1_545 S
C1324 C1327 1.403 . S
H1325 C1331 0.930 . S
C1326 H1312 0.930 . S
C1326 C1324 1.395 1_565 S
C1326 C1329 1.403 . S
C1327 C1324 1.403 . S
C1327 C1328 1.524 . S
C1327 C1331 1.384 1_545 S
C1328 H1313 0.960 . S
C1328 H1314 0.960 . S
C1328 H1315 0.960 . S
C1328 C1327 1.524 . S
C1329 C1326 1.403 . S
C1329 C1330 1.392 . S
C1329 C1333 1.495 . S
C1330 C1329 1.392 . S
C1330 C1331 1.402 . S
C1330 C1332 1.478 . S
C1331 H1325 0.930 . S
C1331 C1327 1.384 1_565 S
C1331 C1330 1.402 . S
C1332 C1330 1.478 . S
C1332 C1334 1.381 . S
C1332 C1338 1.383 . S
C1333 C1329 1.495 . S
C1333 H1339 0.959 . S
C1333 H1340 0.961 . S
C1333 H1341 0.960 . S
C1334 C1332 1.381 . S
C1334 C1335 1.394 . S
C1334 H1342 0.930 . S
C1335 C1334 1.394 . S
C1335 C1336 1.383 . S
C1335 H1343 0.929 . S
C1336 C1335 1.383 . S
C1336 C1337 1.377 . S
C1337 H1321 0.930 . S
C1337 C1336 1.377 . S
C1337 C1338 1.379 . S
C1338 H1322 0.931 . S
C1338 C1332 1.383 . S
C1338 C1337 1.379 . S
H1339 C1333 0.959 . S
H1340 C1333 0.961 . S
H1341 C1333 0.960 . S
H1342 C1334 0.930 . S
H1343 C1335 0.929 . S
H1344 C1352 0.929 . S
H1345 C1354 0.930 . S
H1346 C1356 0.930 . S
H1347 C1359 0.929 . S
H1348 C1362 0.930 . S
H1349 C1364 0.960 . S
H1350 C1364 0.960 . S
H1351 C1364 0.960 . S
C1352 H1344 0.929 . S
C1352 C1353 1.377 . S
C1352 C1354 1.384 . S
C1353 C1352 1.377 . S
C1353 C1359 1.390 . S
C1354 H1345 0.930 . S
C1354 C1352 1.384 . S
C1354 C1355 1.372 . S
C1355 C1354 1.372 . S
C1355 C1356 1.400 . S
C1355 C1360 1.490 . S
C1356 H1346 0.930 . S
C1356 C1355 1.400 . S
C1356 C1359 1.386 . S
H1357 C1373 0.930 . S
H1358 C1374 0.931 1_545 S
C1359 H1347 0.929 . S
C1359 C1353 1.390 . S
C1359 C1356 1.386 . S
C1360 C1355 1.490 . S
C1360 C1362 1.395 . S
C1360 C1363 1.403 . S
H1361 C1367 0.930 . S
C1362 H1348 0.930 . S
C1362 C1360 1.395 . S
C1362 C1365 1.403 1_655 S
C1363 C1360 1.403 . S
C1363 C1364 1.524 . S
C1363 C1367 1.400 1_655 S
C1364 H1349 0.960 . S
C1364 H1350 0.960 . S
C1364 H1351 0.960 . S
C1364 C1363 1.524 . S
C1365 C1362 1.403 1_455 S
C1365 C1366 1.404 . S
C1365 C1369 1.495 1_545 S
C1366 C1365 1.404 . S
C1366 C1367 1.410 . S
C1366 C1368 1.444 1_545 S
C1367 H1361 0.930 . S
C1367 C1363 1.400 1_455 S
C1367 C1366 1.410 . S
C1368 C1366 1.444 1_565 S
C1368 C1370 1.381 . S
C1368 C1374 1.383 . S
C1369 C1365 1.495 1_565 S
C1369 H1375 0.953 1_565 S
C1369 H1376 0.957 1_565 S
C1369 H1377 0.960 . S
C1370 C1368 1.381 . S
C1370 C1371 1.394 . S
C1370 H1378 0.930 . S
C1371 C1370 1.394 . S
C1371 C1372 1.383 . S
C1371 H1379 0.929 . S
C1372 C1371 1.383 . S
C1372 C1373 1.377 . S
C1373 H1357 0.930 . S
C1373 C1372 1.377 . S
C1373 C1374 1.379 . S
C1374 H1358 0.931 1_565 S
C1374 C1368 1.383 . S
C1374 C1373 1.379 . S
H1375 C1369 0.953 1_545 S
H1376 C1369 0.957 1_545 S
H1377 C1369 0.960 . S
H1378 C1370 0.930 . S
H1379 C1371 0.929 . S
H1380 C1388 0.929 . S
H1381 C1390 0.930 . S
H1382 C1392 0.930 1_655 S
H1383 C1395 0.929 . S
H1384 C1398 0.930 . S
H1385 C1400 0.965 . S
H1386 C1400 0.960 . S
H1387 C1400 0.960 . S
C1388 H1380 0.929 . S
C1388 C1389 1.377 . S
C1388 C1390 1.384 . S
C1389 C1388 1.377 . S
C1389 C1395 1.390 . S
C1390 H1381 0.930 . S
C1390 C1388 1.384 . S
C1390 C1391 1.372 . S
C1391 C1390 1.372 . S
C1391 C1392 1.400 . S
C1391 C1396 1.490 1_455 S
C1392 H1382 0.930 1_455 S
C1392 C1391 1.400 . S
C1392 C1395 1.386 . S
H1393 C1409 0.930 . S
H1394 C1410 0.931 . S
C1395 H1383 0.929 . S
C1395 C1389 1.390 . S
C1395 C1392 1.386 . S
C1396 C1391 1.490 1_655 S
C1396 C1398 1.395 . S
C1396 C1399 1.403 . S
H1397 C1403 0.930 . S
C1398 H1384 0.930 . S
C1398 C1396 1.395 . S
C1398 C1401 1.403 . S
C1399 C1396 1.403 . S
C1399 C1400 1.524 1_655 S
C1399 C1403 1.400 . S
C1400 H1385 0.965 . S
C1400 H1386 0.960 . S
C1400 H1387 0.960 . S
C1400 C1399 1.524 1_455 S
C1401 C1398 1.403 . S
C1401 C1402 1.392 . S
C1401 C1405 1.495 . S
C1402 C1401 1.392 . S
C1402 C1403 1.385 . S
C1402 C1404 1.478 . S
C1403 H1397 0.930 . S
C1403 C1399 1.400 . S
C1403 C1402 1.385 . S
C1404 C1402 1.478 . S
C1404 C1406 1.381 . S
C1404 C1410 1.383 . S
C1405 C1401 1.495 . S
C1405 H1411 0.959 . S
C1405 H1412 0.961 . S
C1405 H1413 0.960 . S
C1406 C1404 1.381 . S
C1406 C1407 1.394 . S
C1406 H1414 0.930 . S
C1407 C1406 1.394 . S
C1407 C1408 1.383 . S
C1407 H1415 0.929 . S
C1408 C1407 1.383 . S
C1408 C1409 1.377 . S
C1409 H1393 0.930 . S
C1409 C1408 1.377 . S
C1409 C1410 1.379 . S
C1410 H1394 0.931 . S
C1410 C1404 1.383 . S
C1410 C1409 1.379 . S
H1411 C1405 0.959 . S
H1412 C1405 0.961 . S
H1413 C1405 0.960 . S
H1414 C1406 0.930 . S
H1415 C1407 0.929 . S
H1416 C1424 0.929 . S
H1417 C1426 0.930 . S
H1418 C1428 0.930 . S
H1419 C1431 0.929 . S
H1420 C1434 0.930 . S
H1421 C1436 0.960 . S
H1422 C1436 0.960 . S
H1423 C1436 0.960 . S
C1424 H1416 0.929 . S
C1424 C1425 1.377 . S
C1424 C1426 1.384 . S
C1425 C1424 1.377 . S
C1425 C1431 1.390 . S
C1426 H1417 0.930 . S
C1426 C1424 1.384 . S
C1426 C1427 1.372 . S
C1427 C1426 1.372 . S
C1427 C1428 1.400 . S
C1427 C1432 1.490 . S
C1428 H1418 0.930 . S
C1428 C1427 1.400 . S
C1428 C1431 1.386 . S
H1429 C1445 0.930 . S
H1430 C1446 0.931 . S
C1431 H1419 0.929 . S
C1431 C1425 1.390 . S
C1431 C1428 1.386 . S
C1432 C1427 1.490 . S
C1432 C1434 1.395 . S
C1432 C1435 1.403 . S
H1433 C1439 0.930 . S
C1434 H1420 0.930 . S
C1434 C1432 1.395 . S
C1434 C1437 1.403 . S
C1435 C1432 1.403 . S
C1435 C1436 1.524 . S
C1435 C1439 1.400 . S
C1436 H1421 0.960 . S
C1436 H1422 0.960 . S
C1436 H1423 0.960 . S
C1436 C1435 1.524 . S
C1437 C1434 1.403 . S
C1437 C1438 1.392 . S
C1437 C1441 1.495 . S
C1438 C1437 1.392 . S
C1438 C1439 1.385 . S
C1438 C1440 1.478 . S
C1439 H1433 0.930 . S
C1439 C1435 1.400 . S
C1439 C1438 1.385 . S
C1440 C1438 1.478 . S
C1440 C1442 1.381 . S
C1440 C1446 1.383 . S
C1441 C1437 1.495 . S
C1441 H1447 0.959 . S
C1441 H1448 0.961 . S
C1441 H1449 0.960 . S
C1442 C1440 1.381 . S
C1442 C1443 1.394 . S
C1442 H1450 0.930 . S
C1443 C1442 1.394 . S
C1443 C1444 1.383 . S
C1443 H1451 0.929 . S
C1444 C1443 1.383 . S
C1444 C1445 1.377 . S
C1445 H1429 0.930 . S
C1445 C1444 1.377 . S
C1445 C1446 1.379 . S
C1446 H1430 0.931 . S
C1446 C1440 1.383 . S
C1446 C1445 1.379 . S
H1447 C1441 0.959 . S
H1448 C1441 0.961 . S
H1449 C1441 0.960 . S
H1450 C1442 0.930 . S
H1451 C1443 0.929 . S
H1452 C1460 0.929 . S
H1453 C1462 0.930 . S
H1454 C1464 0.953 . S
H1455 C1467 0.929 . S
H1456 C1470 0.930 . S
H1457 C1472 0.960 . S
H1458 C1472 0.960 . S
H1459 C1472 0.960 . S
C1460 H1452 0.929 . S
C1460 C1461 1.377 . S
C1460 C1462 1.384 . S
C1461 C1460 1.377 . S
C1461 C1467 1.390 . S
C1462 H1453 0.930 . S
C1462 C1460 1.384 . S
C1462 C1463 1.372 . S
C1463 C1462 1.372 . S
C1463 C1464 1.400 . S
C1463 C1468 1.490 1_455 S
C1464 H1454 0.953 . S
C1464 C1463 1.400 . S
C1464 C1467 1.386 . S
H1465 C1481 0.930 . S
H1466 C1482 0.931 . S
C1467 H1455 0.929 . S
C1467 C1461 1.390 . S
C1467 C1464 1.386 . S
C1468 C1463 1.490 1_655 S
C1468 C1470 1.395 1_665 S
C1468 C1471 1.403 . S
H1469 C1475 0.929 1_565 S
C1470 H1456 0.930 . S
C1470 C1468 1.395 1_445 S
C1470 C1473 1.403 1_455 S
C1471 C1468 1.403 . S
C1471 C1472 1.524 . S
C1471 C1475 1.368 1_565 S
C1472 H1457 0.960 . S
C1472 H1458 0.960 . S
C1472 H1459 0.960 . S
C1472 C1471 1.524 . S
C1473 C1470 1.403 1_655 S
C1473 C1474 1.392 . S
C1473 C1477 1.495 1_655 S
C1474 C1473 1.392 . S
C1474 C1475 1.420 . S
C1474 C1476 1.478 . S
C1475 H1469 0.929 1_545 S
C1475 C1471 1.368 1_545 S
C1475 C1474 1.420 . S
C1476 C1474 1.478 . S
C1476 C1478 1.381 . S
C1476 C1482 1.383 . S
C1477 C1473 1.495 1_455 S
C1477 H1483 0.959 . S
C1477 H1484 0.961 . S
C1477 H1485 0.960 . S
C1478 C1476 1.381 . S
C1478 C1479 1.394 . S
C1478 H1486 0.930 . S
C1479 C1478 1.394 . S
C1479 C1480 1.383 . S
C1479 H1487 0.929 . S
C1480 C1479 1.383 . S
C1480 C1481 1.377 . S
C1481 H1465 0.930 . S
C1481 C1480 1.377 . S
C1481 C1482 1.379 . S
C1482 H1466 0.931 . S
C1482 C1476 1.383 . S
C1482 C1481 1.379 . S
H1483 C1477 0.959 . S
H1484 C1477 0.961 . S
H1485 C1477 0.960 . S
H1486 C1478 0.930 . S
H1487 C1479 0.929 . S
H1488 C1496 0.929 . S
H1489 C1498 0.930 . S
H1490 C1500 0.930 . S
H1491 C1503 0.929 . S
H1492 C1506 0.930 . S
H1493 C1508 0.960 . S
H1494 C1508 0.960 . S
H1495 C1508 0.960 . S
C1496 H1488 0.929 . S
C1496 C1497 1.377 . S
C1496 C1498 1.384 . S
C1497 C1496 1.377 . S
C1497 C1503 1.390 . S
C1498 H1489 0.930 . S
C1498 C1496 1.384 . S
C1498 C1499 1.372 . S
C1499 C1498 1.372 . S
C1499 C1500 1.400 . S
C1499 C1504 1.490 . S
C1500 H1490 0.930 . S
C1500 C1499 1.400 . S
C1500 C1503 1.386 . S
H1501 C1517 0.930 . S
H1502 C1518 0.931 . S
C1503 H1491 0.929 . S
C1503 C1497 1.390 . S
C1503 C1500 1.386 . S
C1504 C1499 1.490 . S
C1504 C1506 1.395 . S
C1504 C1507 1.403 . S
H1505 C1511 0.930 . S
C1506 H1492 0.930 . S
C1506 C1504 1.395 . S
C1506 C1509 1.403 1_655 S
C1507 C1504 1.403 . S
C1507 C1508 1.524 . S
C1507 C1511 1.400 1_655 S
C1508 H1493 0.960 . S
C1508 H1494 0.960 . S
C1508 H1495 0.960 . S
C1508 C1507 1.524 . S
C1509 C1506 1.403 1_455 S
C1509 C1510 1.392 . S
C1509 C1513 1.495 . S
C1510 C1509 1.392 . S
C1510 C1511 1.385 . S
C1510 C1512 1.478 . S
C1511 H1505 0.930 . S
C1511 C1507 1.400 1_455 S
C1511 C1510 1.385 . S
C1512 C1510 1.478 . S
C1512 C1514 1.381 . S
C1512 C1518 1.383 . S
C1513 C1509 1.495 . S
C1513 H1519 0.959 . S
C1513 H1520 0.961 . S
C1513 H1521 0.960 . S
C1514 C1512 1.381 . S
C1514 C1515 1.394 . S
C1514 H1522 0.930 . S
C1515 C1514 1.394 . S
C1515 C1516 1.383 . S
C1515 H1523 0.929 . S
C1516 C1515 1.383 . S
C1516 C1517 1.377 . S
C1517 H1501 0.930 . S
C1517 C1516 1.377 . S
C1517 C1518 1.379 . S
C1518 H1502 0.931 . S
C1518 C1512 1.383 . S
C1518 C1517 1.379 . S
H1519 C1513 0.959 . S
H1520 C1513 0.961 . S
H1521 C1513 0.960 . S
H1522 C1514 0.930 . S
H1523 C1515 0.929 . S
H1524 C1532 0.929 . S
H1525 C1534 0.930 1_545 S
H1526 C1536 0.930 . S
H1527 C1539 0.929 . S
H1528 C1542 0.930 . S
H1529 C1544 0.960 . S
H1530 C1544 0.960 . S
H1531 C1544 0.960 . S
C1532 H1524 0.929 . S
C1532 C1533 1.377 . S
C1532 C1534 1.384 . S
C1533 C1532 1.377 . S
C1533 C1539 1.390 . S
C1534 H1525 0.930 1_565 S
C1534 C1532 1.384 . S
C1534 C1535 1.372 . S
C1535 C1534 1.372 . S
C1535 C1536 1.400 . S
C1535 C1540 1.490 1_565 S
C1536 H1526 0.930 . S
C1536 C1535 1.400 . S
C1536 C1539 1.386 . S
H1537 C1553 0.930 . S
H1538 C1554 0.931 . S
C1539 H1527 0.929 . S
C1539 C1533 1.390 . S
C1539 C1536 1.386 . S
C1540 C1535 1.490 1_545 S
C1540 C1542 1.395 . S
C1540 C1543 1.403 1_545 S
H1541 C1547 0.930 . S
C1542 H1528 0.930 . S
C1542 C1540 1.395 . S
C1542 C1545 1.403 . S
C1543 C1540 1.403 1_565 S
C1543 C1544 1.524 . S
C1543 C1547 1.400 1_565 S
C1544 H1529 0.960 . S
C1544 H1530 0.960 . S
C1544 H1531 0.960 . S
C1544 C1543 1.524 . S
C1545 C1542 1.403 . S
C1545 C1546 1.392 . S
C1545 C1549 1.495 . S
C1546 C1545 1.392 . S
C1546 C1547 1.385 . S
C1546 C1548 1.478 . S
C1547 H1541 0.930 . S
C1547 C1543 1.400 1_545 S
C1547 C1546 1.385 . S
C1548 C1546 1.478 . S
C1548 C1550 1.381 . S
C1548 C1554 1.383 . S
C1549 C1545 1.495 . S
C1549 H1555 0.959 . S
C1549 H1556 0.961 . S
C1549 H1557 0.960 . S
C1550 C1548 1.381 . S
C1550 C1551 1.394 . S
C1550 H1558 0.930 . S
C1551 C1550 1.394 . S
C1551 C1552 1.383 . S
C1551 H1559 0.929 . S
C1552 C1551 1.383 . S
C1552 C1553 1.377 . S
C1553 H1537 0.930 . S
C1553 C1552 1.377 . S
C1553 C1554 1.379 . S
C1554 H1538 0.931 . S
C1554 C1548 1.383 . S
C1554 C1553 1.379 . S
H1555 C1549 0.959 . S
H1556 C1549 0.961 . S
H1557 C1549 0.960 . S
H1558 C1550 0.930 . S
H1559 C1551 0.929 . S
H1560 C1568 0.929 . S
H1561 C1570 0.930 . S
H1562 C1572 0.930 . S
H1563 C1575 0.929 . S
H1564 C1578 0.930 . S
H1565 C1580 0.960 . S
H1566 C1580 0.960 . S
H1567 C1580 0.960 . S
C1568 H1560 0.929 . S
C1568 C1569 1.377 . S
C1568 C1570 1.384 . S
C1569 C1568 1.377 . S
C1569 C1575 1.390 . S
C1570 H1561 0.930 . S
C1570 C1568 1.384 . S
C1570 C1571 1.372 . S
C1571 C1570 1.372 . S
C1571 C1572 1.400 . S
C1571 C1576 1.490 . S
C1572 H1562 0.930 . S
C1572 C1571 1.400 . S
C1572 C1575 1.386 . S
H1573 C1589 0.930 . S
H1574 C1590 0.931 . S
C1575 H1563 0.929 . S
C1575 C1569 1.390 . S
C1575 C1572 1.386 . S
C1576 C1571 1.490 . S
C1576 C1578 1.395 . S
C1576 C1579 1.403 . S
H1577 C1583 0.930 . S
C1578 H1564 0.930 . S
C1578 C1576 1.395 . S
C1578 C1581 1.403 . S
C1579 C1576 1.403 . S
C1579 C1580 1.524 . S
C1579 C1583 1.400 . S
C1580 H1565 0.960 . S
C1580 H1566 0.960 . S
C1580 H1567 0.960 . S
C1580 C1579 1.524 . S
C1581 C1578 1.403 . S
C1581 C1582 1.392 . S
C1581 C1585 1.495 . S
C1582 C1581 1.392 . S
C1582 C1583 1.385 . S
C1582 C1584 1.478 . S
C1583 H1577 0.930 . S
C1583 C1579 1.400 . S
C1583 C1582 1.385 . S
C1584 C1582 1.478 . S
C1584 C1586 1.381 . S
C1584 C1590 1.383 . S
C1585 C1581 1.495 . S
C1585 H1591 0.959 . S
C1585 H1592 0.961 . S
C1585 H1593 0.960 . S
C1586 C1584 1.381 . S
C1586 C1587 1.394 . S
C1586 H1594 0.930 . S
C1587 C1586 1.394 . S
C1587 C1588 1.383 . S
C1587 H1595 0.929 . S
C1588 C1587 1.383 . S
C1588 C1589 1.377 . S
C1589 H1573 0.930 . S
C1589 C1588 1.377 . S
C1589 C1590 1.379 . S
C1590 H1574 0.931 . S
C1590 C1584 1.383 . S
C1590 C1589 1.379 . S
H1591 C1585 0.959 . S
H1592 C1585 0.961 . S
H1593 C1585 0.960 . S
H1594 C1586 0.930 . S
H1595 C1587 0.929 . S
H1596 C1604 0.929 . S
H1597 C1606 0.930 . S
H1598 C1608 0.930 . S
H1599 C1611 0.929 . S
H1600 C1614 0.930 . S
H1601 C1616 0.960 . S
H1602 C1616 0.960 . S
H1603 C1616 0.960 . S
C1604 H1596 0.929 . S
C1604 C1605 1.377 . S
C1604 C1606 1.384 . S
C1605 C1604 1.377 . S
C1605 C1611 1.390 . S
C1606 H1597 0.930 . S
C1606 C1604 1.384 . S
C1606 C1607 1.372 . S
C1607 C1606 1.372 . S
C1607 C1608 1.400 . S
C1607 C1612 1.490 . S
C1608 H1598 0.930 . S
C1608 C1607 1.400 . S
C1608 C1611 1.386 . S
H1609 C1625 0.930 . S
H1610 C1626 0.931 . S
C1611 H1599 0.929 . S
C1611 C1605 1.390 . S
C1611 C1608 1.386 . S
C1612 C1607 1.490 . S
C1612 C1614 1.395 . S
C1612 C1615 1.403 . S
H1613 C1619 0.930 . S
C1614 H1600 0.930 . S
C1614 C1612 1.395 . S
C1614 C1617 1.403 . S
C1615 C1612 1.403 . S
C1615 C1616 1.524 . S
C1615 C1619 1.400 . S
C1616 H1601 0.960 . S
C1616 H1602 0.960 . S
C1616 H1603 0.960 . S
C1616 C1615 1.524 . S
C1617 C1614 1.403 . S
C1617 C1618 1.392 . S
C1617 C1621 1.495 . S
C1618 C1617 1.392 . S
C1618 C1619 1.385 . S
C1618 C1620 1.478 . S
C1619 H1613 0.930 . S
C1619 C1615 1.400 . S
C1619 C1618 1.385 . S
C1620 C1618 1.478 . S
C1620 C1622 1.381 . S
C1620 C1626 1.383 . S
C1621 C1617 1.495 . S
C1621 H1627 0.959 . S
C1621 H1628 0.961 . S
C1621 H1629 0.960 . S
C1622 C1620 1.381 . S
C1622 C1623 1.394 . S
C1622 H1630 0.930 . S
C1623 C1622 1.394 . S
C1623 C1624 1.383 . S
C1623 H1631 0.929 . S
C1624 C1623 1.383 . S
C1624 C1625 1.377 . S
C1625 H1609 0.930 . S
C1625 C1624 1.377 . S
C1625 C1626 1.379 . S
C1626 H1610 0.931 . S
C1626 C1620 1.383 . S
C1626 C1625 1.379 . S
H1627 C1621 0.959 . S
H1628 C1621 0.961 . S
H1629 C1621 0.960 . S
H1630 C1622 0.930 . S
H1631 C1623 0.929 . S
H1632 C1640 0.929 . S
H1633 C1642 0.930 . S
H1634 C1644 0.930 . S
H1635 C1647 0.929 . S
H1636 C1650 0.930 . S
H1637 C1652 0.960 . S
H1638 C1652 0.960 . S
H1639 C1652 0.960 . S
C1640 H1632 0.929 . S
C1640 C1641 1.377 . S
C1640 C1642 1.384 . S
C1641 C1640 1.377 . S
C1641 C1647 1.390 . S
C1642 H1633 0.930 . S
C1642 C1640 1.384 . S
C1642 C1643 1.372 . S
C1643 C1642 1.372 . S
C1643 C1644 1.400 . S
C1643 C1648 1.490 . S
C1644 H1634 0.930 . S
C1644 C1643 1.400 . S
C1644 C1647 1.386 . S
H1645 C1661 0.930 . S
H1646 C1662 0.931 . S
C1647 H1635 0.929 . S
C1647 C1641 1.390 . S
C1647 C1644 1.386 . S
C1648 C1643 1.490 . S
C1648 C1650 1.395 . S
C1648 C1651 1.403 . S
H1649 C1655 0.930 . S
C1650 H1636 0.930 . S
C1650 C1648 1.395 . S
C1650 C1653 1.403 . S
C1651 C1648 1.403 . S
C1651 C1652 1.524 . S
C1651 C1655 1.400 . S
C1652 H1637 0.960 . S
C1652 H1638 0.960 . S
C1652 H1639 0.960 . S
C1652 C1651 1.524 . S
C1653 C1650 1.403 . S
C1653 C1654 1.392 . S
C1653 C1657 1.495 . S
C1654 C1653 1.392 . S
C1654 C1655 1.385 . S
C1654 C1656 1.478 . S
C1655 H1649 0.930 . S
C1655 C1651 1.400 . S
C1655 C1654 1.385 . S
C1656 C1654 1.478 . S
C1656 C1658 1.381 . S
C1656 C1662 1.383 . S
C1657 C1653 1.495 . S
C1657 H1663 0.959 . S
C1657 H1664 0.961 . S
C1657 H1665 0.960 . S
C1658 C1656 1.381 . S
C1658 C1659 1.394 . S
C1658 H1666 0.930 . S
C1659 C1658 1.394 . S
C1659 C1660 1.383 . S
C1659 H1667 0.929 . S
C1660 C1659 1.383 . S
C1660 C1661 1.377 . S
C1661 H1645 0.930 . S
C1661 C1660 1.377 . S
C1661 C1662 1.379 . S
C1662 H1646 0.931 . S
C1662 C1656 1.383 . S
C1662 C1661 1.379 . S
H1663 C1657 0.959 . S
H1664 C1657 0.961 . S
H1665 C1657 0.960 . S
H1666 C1658 0.930 . S
H1667 C1659 0.929 . S
H1668 C1676 0.929 . S
H1669 C1678 0.930 . S
H1670 C1680 0.930 . S
H1671 C1683 0.929 . S
H1672 C1686 0.930 . S
H1673 C1688 0.960 . S
H1674 C1688 0.960 . S
H1675 C1688 0.960 . S
C1676 H1668 0.929 . S
C1676 C1677 1.377 . S
C1676 C1678 1.384 . S
C1677 C1676 1.377 . S
C1677 C1683 1.390 . S
C1678 H1669 0.930 . S
C1678 C1676 1.384 . S
C1678 C1679 1.372 . S
C1679 C1678 1.372 . S
C1679 C1680 1.400 . S
C1679 C1684 1.490 . S
C1680 H1670 0.930 . S
C1680 C1679 1.400 . S
C1680 C1683 1.386 . S
H1681 C1697 0.930 . S
H1682 C1698 0.931 . S
C1683 H1671 0.929 . S
C1683 C1677 1.390 . S
C1683 C1680 1.386 . S
C1684 C1679 1.490 . S
C1684 C1686 1.395 . S
C1684 C1687 1.403 . S
H1685 C1691 0.930 . S
C1686 H1672 0.930 . S
C1686 C1684 1.395 . S
C1686 C1689 1.403 . S
C1687 C1684 1.403 . S
C1687 C1688 1.524 . S
C1687 C1691 1.400 . S
C1688 H1673 0.960 . S
C1688 H1674 0.960 . S
C1688 H1675 0.960 . S
C1688 C1687 1.524 . S
C1689 C1686 1.403 . S
C1689 C1690 1.392 . S
C1689 C1693 1.495 . S
C1690 C1689 1.392 . S
C1690 C1691 1.385 . S
C1690 C1692 1.478 . S
C1691 H1685 0.930 . S
C1691 C1687 1.400 . S
C1691 C1690 1.385 . S
C1692 C1690 1.478 . S
C1692 C1694 1.381 . S
C1692 C1698 1.383 . S
C1693 C1689 1.495 . S
C1693 H1699 0.959 . S
C1693 H1700 0.961 . S
C1693 H1701 0.960 . S
C1694 C1692 1.381 . S
C1694 C1695 1.394 . S
C1694 H1702 0.930 . S
C1695 C1694 1.394 . S
C1695 C1696 1.383 . S
C1695 H1703 0.929 . S
C1696 C1695 1.383 . S
C1696 C1697 1.377 . S
C1697 H1681 0.930 . S
C1697 C1696 1.377 . S
C1697 C1698 1.379 . S
C1698 H1682 0.931 . S
C1698 C1692 1.383 . S
C1698 C1697 1.379 . S
H1699 C1693 0.959 . S
H1700 C1693 0.961 . S
H1701 C1693 0.960 . S
H1702 C1694 0.930 . S
H1703 C1695 0.929 . S
H1704 C1712 0.929 . S
H1705 C1714 0.930 . S
H1706 C1716 0.930 . S
H1707 C1719 0.929 . S
H1708 C1722 0.930 . S
H1709 C1724 0.960 . S
H1710 C1724 0.960 . S
H1711 C1724 0.960 . S
C1712 H1704 0.929 . S
C1712 C1713 1.377 . S
C1712 C1714 1.384 . S
C1713 C1712 1.377 . S
C1713 C1719 1.390 . S
C1714 H1705 0.930 . S
C1714 C1712 1.384 . S
C1714 C1715 1.372 . S
C1715 C1714 1.372 . S
C1715 C1716 1.400 . S
C1715 C1720 1.490 . S
C1716 H1706 0.930 . S
C1716 C1715 1.400 . S
C1716 C1719 1.386 . S
H1717 C1733 0.930 . S
H1718 C1734 0.931 . S
C1719 H1707 0.929 . S
C1719 C1713 1.390 . S
C1719 C1716 1.386 . S
C1720 C1715 1.490 . S
C1720 C1722 1.395 . S
C1720 C1723 1.403 . S
H1721 C1727 0.930 . S
C1722 H1708 0.930 . S
C1722 C1720 1.395 . S
C1722 C1725 1.403 . S
C1723 C1720 1.403 . S
C1723 C1724 1.524 . S
C1723 C1727 1.400 . S
C1724 H1709 0.960 . S
C1724 H1710 0.960 . S
C1724 H1711 0.960 . S
C1724 C1723 1.524 . S
C1725 C1722 1.403 . S
C1725 C1726 1.392 . S
C1725 C1729 1.495 . S
C1726 C1725 1.392 . S
C1726 C1727 1.385 . S
C1726 C1728 1.478 . S
C1727 H1721 0.930 . S
C1727 C1723 1.400 . S
C1727 C1726 1.385 . S
C1728 C1726 1.478 . S
C1728 C1730 1.381 . S
C1728 C1734 1.383 . S
C1729 C1725 1.495 . S
C1729 H1735 0.959 . S
C1729 H1736 0.961 . S
C1729 H1737 0.960 . S
C1730 C1728 1.381 . S
C1730 C1731 1.394 . S
C1730 H1738 0.930 . S
C1731 C1730 1.394 . S
C1731 C1732 1.383 . S
C1731 H1739 0.929 . S
C1732 C1731 1.383 . S
C1732 C1733 1.377 . S
C1733 H1717 0.930 . S
C1733 C1732 1.377 . S
C1733 C1734 1.379 . S
C1734 H1718 0.931 . S
C1734 C1728 1.383 . S
C1734 C1733 1.379 . S
H1735 C1729 0.959 . S
H1736 C1729 0.961 . S
H1737 C1729 0.960 . S
H1738 C1730 0.930 . S
H1739 C1731 0.929 . S
H1740 C1748 0.929 . S
H1741 C1750 0.930 . S
H1742 C1752 0.930 . S
H1743 C1755 0.929 . S
H1744 C1758 0.930 . S
H1745 C1760 0.960 . S
H1746 C1760 0.960 . S
H1747 C1760 0.960 . S
C1748 H1740 0.929 . S
C1748 C1749 1.377 . S
C1748 C1750 1.384 . S
C1749 C1748 1.377 . S
C1749 C1755 1.390 . S
C1750 H1741 0.930 . S
C1750 C1748 1.384 . S
C1750 C1751 1.372 . S
C1751 C1750 1.372 . S
C1751 C1752 1.400 . S
C1751 C1756 1.490 . S
C1752 H1742 0.930 . S
C1752 C1751 1.400 . S
C1752 C1755 1.386 . S
H1753 C1769 0.930 . S
H1754 C1770 0.931 . S
C1755 H1743 0.929 . S
C1755 C1749 1.390 . S
C1755 C1752 1.386 . S
C1756 C1751 1.490 . S
C1756 C1758 1.395 . S
C1756 C1759 1.403 . S
H1757 C1763 0.930 . S
C1758 H1744 0.930 . S
C1758 C1756 1.395 . S
C1758 C1761 1.403 . S
C1759 C1756 1.403 . S
C1759 C1760 1.524 . S
C1759 C1763 1.400 . S
C1760 H1745 0.960 . S
C1760 H1746 0.960 . S
C1760 H1747 0.960 . S
C1760 C1759 1.524 . S
C1761 C1758 1.403 . S
C1761 C1762 1.392 . S
C1761 C1765 1.495 . S
C1762 C1761 1.392 . S
C1762 C1763 1.385 . S
C1762 C1764 1.478 . S
C1763 H1757 0.930 . S
C1763 C1759 1.400 . S
C1763 C1762 1.385 . S
C1764 C1762 1.478 . S
C1764 C1766 1.381 . S
C1764 C1770 1.383 . S
C1765 C1761 1.495 . S
C1765 H1771 0.959 . S
C1765 H1772 0.961 . S
C1765 H1773 0.960 . S
C1766 C1764 1.381 . S
C1766 C1767 1.394 . S
C1766 H1774 0.930 . S
C1767 C1766 1.394 . S
C1767 C1768 1.383 . S
C1767 H1775 0.929 . S
C1768 C1767 1.383 . S
C1768 C1769 1.377 . S
C1769 H1753 0.930 . S
C1769 C1768 1.377 . S
C1769 C1770 1.379 . S
C1770 H1754 0.931 . S
C1770 C1764 1.383 . S
C1770 C1769 1.379 . S
H1771 C1765 0.959 . S
H1772 C1765 0.961 . S
H1773 C1765 0.960 . S
H1774 C1766 0.930 . S
H1775 C1767 0.929 . S
H1776 C1784 0.929 . S
H1777 C1786 0.930 . S
H1778 C1788 0.930 . S
H1779 C1791 0.929 . S
H1780 C1794 0.930 . S
H1781 C1796 0.960 . S
H1782 C1796 0.960 . S
H1783 C1796 0.960 . S
C1784 H1776 0.929 . S
C1784 C1785 1.377 . S
C1784 C1786 1.384 . S
C1785 C1784 1.377 . S
C1785 C1791 1.390 . S
C1786 H1777 0.930 . S
C1786 C1784 1.384 . S
C1786 C1787 1.372 . S
C1787 C1786 1.372 . S
C1787 C1788 1.400 . S
C1787 C1792 1.490 . S
C1788 H1778 0.930 . S
C1788 C1787 1.400 . S
C1788 C1791 1.386 . S
H1789 C1805 0.930 . S
H1790 C1806 0.931 . S
C1791 H1779 0.929 . S
C1791 C1785 1.390 . S
C1791 C1788 1.386 . S
C1792 C1787 1.490 . S
C1792 C1794 1.395 . S
C1792 C1795 1.403 . S
H1793 C1799 0.930 . S
C1794 H1780 0.930 . S
C1794 C1792 1.395 . S
C1794 C1797 1.403 . S
C1795 C1792 1.403 . S
C1795 C1796 1.524 . S
C1795 C1799 1.400 . S
C1796 H1781 0.960 . S
C1796 H1782 0.960 . S
C1796 H1783 0.960 . S
C1796 C1795 1.524 . S
C1797 C1794 1.403 . S
C1797 C1798 1.392 . S
C1797 C1801 1.495 . S
C1798 C1797 1.392 . S
C1798 C1799 1.385 . S
C1798 C1800 1.478 . S
C1799 H1793 0.930 . S
C1799 C1795 1.400 . S
C1799 C1798 1.385 . S
C1800 C1798 1.478 . S
C1800 C1802 1.381 . S
C1800 C1806 1.383 . S
C1801 C1797 1.495 . S
C1801 H1807 0.959 . S
C1801 H1808 0.961 . S
C1801 H1809 0.960 . S
C1802 C1800 1.381 . S
C1802 C1803 1.394 . S
C1802 H1810 0.930 . S
C1803 C1802 1.394 . S
C1803 C1804 1.383 . S
C1803 H1811 0.929 . S
C1804 C1803 1.383 . S
C1804 C1805 1.377 . S
C1805 H1789 0.930 . S
C1805 C1804 1.377 . S
C1805 C1806 1.379 . S
C1806 H1790 0.931 . S
C1806 C1800 1.383 . S
C1806 C1805 1.379 . S
H1807 C1801 0.959 . S
H1808 C1801 0.961 . S
H1809 C1801 0.960 . S
H1810 C1802 0.930 . S
H1811 C1803 0.929 . S
H1812 C1820 0.929 . S
H1813 C1822 0.930 . S
H1814 C1824 0.930 . S
H1815 C1827 0.929 . S
H1816 C1830 0.930 . S
H1817 C1832 0.960 . S
H1818 C1832 0.960 . S
H1819 C1832 0.960 . S
C1820 H1812 0.929 . S
C1820 C1821 1.377 . S
C1820 C1822 1.384 . S
C1821 C1820 1.377 . S
C1821 C1827 1.390 . S
C1822 H1813 0.930 . S
C1822 C1820 1.384 . S
C1822 C1823 1.372 . S
C1823 C1822 1.372 . S
C1823 C1824 1.400 . S
C1823 C1828 1.490 . S
C1824 H1814 0.930 . S
C1824 C1823 1.400 . S
C1824 C1827 1.386 . S
H1825 C1841 0.930 . S
H1826 C1842 0.931 . S
C1827 H1815 0.929 . S
C1827 C1821 1.390 . S
C1827 C1824 1.386 . S
C1828 C1823 1.490 . S
C1828 C1830 1.395 . S
C1828 C1831 1.403 . S
H1829 C1835 0.930 . S
C1830 H1816 0.930 . S
C1830 C1828 1.395 . S
C1830 C1833 1.403 . S
C1831 C1828 1.403 . S
C1831 C1832 1.524 . S
C1831 C1835 1.400 . S
C1832 H1817 0.960 . S
C1832 H1818 0.960 . S
C1832 H1819 0.960 . S
C1832 C1831 1.524 . S
C1833 C1830 1.403 . S
C1833 C1834 1.392 . S
C1833 C1837 1.495 . S
C1834 C1833 1.392 . S
C1834 C1835 1.385 . S
C1834 C1836 1.478 . S
C1835 H1829 0.930 . S
C1835 C1831 1.400 . S
C1835 C1834 1.385 . S
C1836 C1834 1.478 . S
C1836 C1838 1.381 . S
C1836 C1842 1.383 . S
C1837 C1833 1.495 . S
C1837 H1843 0.959 . S
C1837 H1844 0.961 . S
C1837 H1845 0.960 . S
C1838 C1836 1.381 . S
C1838 C1839 1.394 . S
C1838 H1846 0.930 . S
C1839 C1838 1.394 . S
C1839 C1840 1.383 . S
C1839 H1847 0.929 . S
C1840 C1839 1.383 . S
C1840 C1841 1.377 . S
C1841 H1825 0.930 . S
C1841 C1840 1.377 . S
C1841 C1842 1.379 . S
C1842 H1826 0.931 . S
C1842 C1836 1.383 . S
C1842 C1841 1.379 . S
H1843 C1837 0.959 . S
H1844 C1837 0.961 . S
H1845 C1837 0.960 . S
H1846 C1838 0.930 . S
H1847 C1839 0.929 . S
H1848 C1856 0.929 . S
H1849 C1858 0.930 . S
H1850 C1860 0.930 . S
H1851 C1863 0.929 . S
H1852 C1866 0.930 . S
H1853 C1868 0.960 . S
H1854 C1868 0.960 . S
H1855 C1868 0.960 . S
C1856 H1848 0.929 . S
C1856 C1857 1.377 . S
C1856 C1858 1.384 . S
C1857 C1856 1.377 . S
C1857 C1863 1.390 . S
C1858 H1849 0.930 . S
C1858 C1856 1.384 . S
C1858 C1859 1.372 . S
C1859 C1858 1.372 . S
C1859 C1860 1.400 . S
C1859 C1864 1.490 . S
C1860 H1850 0.930 . S
C1860 C1859 1.400 . S
C1860 C1863 1.386 . S
H1861 C1877 0.930 . S
H1862 C1878 0.931 . S
C1863 H1851 0.929 . S
C1863 C1857 1.390 . S
C1863 C1860 1.386 . S
C1864 C1859 1.490 . S
C1864 C1866 1.395 . S
C1864 C1867 1.403 . S
H1865 C1871 0.930 . S
C1866 H1852 0.930 . S
C1866 C1864 1.395 . S
C1866 C1869 1.403 . S
C1867 C1864 1.403 . S
C1867 C1868 1.524 . S
C1867 C1871 1.400 . S
C1868 H1853 0.960 . S
C1868 H1854 0.960 . S
C1868 H1855 0.960 . S
C1868 C1867 1.524 . S
C1869 C1866 1.403 . S
C1869 C1870 1.392 . S
C1869 C1873 1.495 . S
C1870 C1869 1.392 . S
C1870 C1871 1.385 . S
C1870 C1872 1.478 . S
C1871 H1865 0.930 . S
C1871 C1867 1.400 . S
C1871 C1870 1.385 . S
C1872 C1870 1.478 . S
C1872 C1874 1.381 . S
C1872 C1878 1.383 . S
C1873 C1869 1.495 . S
C1873 H1879 0.959 . S
C1873 H1880 0.961 . S
C1873 H1881 0.960 . S
C1874 C1872 1.381 . S
C1874 C1875 1.394 . S
C1874 H1882 0.930 . S
C1875 C1874 1.394 . S
C1875 C1876 1.383 . S
C1875 H1883 0.929 . S
C1876 C1875 1.383 . S
C1876 C1877 1.377 . S
C1877 H1861 0.930 . S
C1877 C1876 1.377 . S
C1877 C1878 1.379 . S
C1878 H1862 0.931 . S
C1878 C1872 1.383 . S
C1878 C1877 1.379 . S
H1879 C1873 0.959 . S
H1880 C1873 0.961 . S
H1881 C1873 0.960 . S
H1882 C1874 0.930 . S
H1883 C1875 0.929 . S
H1884 C1892 0.929 . S
H1885 C1894 0.930 . S
H1886 C1896 0.930 . S
H1887 C1899 0.929 . S
H1888 C1902 0.930 . S
H1889 C1904 0.960 . S
H1890 C1904 0.960 . S
H1891 C1904 0.960 . S
C1892 H1884 0.929 . S
C1892 C1893 1.377 . S
C1892 C1894 1.384 . S
C1893 C1892 1.377 . S
C1893 C1899 1.390 . S
C1894 H1885 0.930 . S
C1894 C1892 1.384 . S
C1894 C1895 1.372 . S
C1895 C1894 1.372 . S
C1895 C1896 1.400 . S
C1895 C1900 1.490 . S
C1896 H1886 0.930 . S
C1896 C1895 1.400 . S
C1896 C1899 1.386 . S
H1897 C1913 0.930 . S
H1898 C1914 0.931 . S
C1899 H1887 0.929 . S
C1899 C1893 1.390 . S
C1899 C1896 1.386 . S
C1900 C1895 1.490 . S
C1900 C1902 1.395 . S
C1900 C1903 1.403 . S
H1901 C1907 0.930 . S
C1902 H1888 0.930 . S
C1902 C1900 1.395 . S
C1902 C1905 1.403 . S
C1903 C1900 1.403 . S
C1903 C1904 1.524 . S
C1903 C1907 1.400 . S
C1904 H1889 0.960 . S
C1904 H1890 0.960 . S
C1904 H1891 0.960 . S
C1904 C1903 1.524 . S
C1905 C1902 1.403 . S
C1905 C1906 1.392 . S
C1905 C1909 1.495 . S
C1906 C1905 1.392 . S
C1906 C1907 1.385 . S
C1906 C1908 1.478 . S
C1907 H1901 0.930 . S
C1907 C1903 1.400 . S
C1907 C1906 1.385 . S
C1908 C1906 1.478 . S
C1908 C1910 1.381 . S
C1908 C1914 1.383 . S
C1909 C1905 1.495 . S
C1909 H1915 0.959 . S
C1909 H1916 0.961 . S
C1909 H1917 0.960 . S
C1910 C1908 1.381 . S
C1910 C1911 1.394 . S
C1910 H1918 0.930 . S
C1911 C1910 1.394 . S
C1911 C1912 1.383 . S
C1911 H1919 0.929 . S
C1912 C1911 1.383 . S
C1912 C1913 1.377 . S
C1913 H1897 0.930 . S
C1913 C1912 1.377 . S
C1913 C1914 1.379 . S
C1914 H1898 0.931 . S
C1914 C1908 1.383 . S
C1914 C1913 1.379 . S
H1915 C1909 0.959 . S
H1916 C1909 0.961 . S
H1917 C1909 0.960 . S
H1918 C1910 0.930 . S
H1919 C1911 0.929 . S
H1920 C1928 0.929 . S
H1921 C1930 0.930 . S
H1922 C1932 0.930 . S
H1923 C1935 0.929 . S
H1924 C1938 0.930 . S
H1925 C1940 0.960 . S
H1926 C1940 0.960 . S
H1927 C1940 0.960 . S
C1928 H1920 0.929 . S
C1928 C1929 1.377 . S
C1928 C1930 1.384 . S
C1929 C1928 1.377 . S
C1929 C1935 1.390 . S
C1930 H1921 0.930 . S
C1930 C1928 1.384 . S
C1930 C1931 1.372 . S
C1931 C1930 1.372 . S
C1931 C1932 1.400 . S
C1931 C1936 1.490 . S
C1932 H1922 0.930 . S
C1932 C1931 1.400 . S
C1932 C1935 1.386 . S
H1933 C1949 0.930 . S
H1934 C1950 0.931 . S
C1935 H1923 0.929 . S
C1935 C1929 1.390 . S
C1935 C1932 1.386 . S
C1936 C1931 1.490 . S
C1936 C1938 1.395 . S
C1936 C1939 1.403 . S
H1937 C1943 0.930 . S
C1938 H1924 0.930 . S
C1938 C1936 1.395 . S
C1938 C1941 1.403 . S
C1939 C1936 1.403 . S
C1939 C1940 1.524 . S
C1939 C1943 1.400 . S
C1940 H1925 0.960 . S
C1940 H1926 0.960 . S
C1940 H1927 0.960 . S
C1940 C1939 1.524 . S
C1941 C1938 1.403 . S
C1941 C1942 1.392 . S
C1941 C1945 1.495 . S
C1942 C1941 1.392 . S
C1942 C1943 1.385 . S
C1942 C1944 1.478 . S
C1943 H1937 0.930 . S
C1943 C1939 1.400 . S
C1943 C1942 1.385 . S
C1944 C1942 1.478 . S
C1944 C1946 1.381 . S
C1944 C1950 1.383 . S
C1945 C1941 1.495 . S
C1945 H1951 0.959 . S
C1945 H1952 0.961 . S
C1945 H1953 0.960 . S
C1946 C1944 1.381 . S
C1946 C1947 1.394 . S
C1946 H1954 0.930 . S
C1947 C1946 1.394 . S
C1947 C1948 1.383 . S
C1947 H1955 0.929 . S
C1948 C1947 1.383 . S
C1948 C1949 1.377 . S
C1949 H1933 0.930 . S
C1949 C1948 1.377 . S
C1949 C1950 1.379 . S
C1950 H1934 0.931 . S
C1950 C1944 1.383 . S
C1950 C1949 1.379 . S
H1951 C1945 0.959 . S
H1952 C1945 0.961 . S
H1953 C1945 0.960 . S
H1954 C1946 0.930 . S
H1955 C1947 0.929 . S
H1956 C1964 0.929 . S
H1957 C1966 0.930 . S
H1958 C1968 0.930 . S
H1959 C1971 0.929 . S
H1960 C1974 0.930 . S
H1961 C1976 0.960 . S
H1962 C1976 0.960 . S
H1963 C1976 0.960 . S
C1964 H1956 0.929 . S
C1964 C1965 1.377 . S
C1964 C1966 1.384 . S
C1965 C1964 1.377 . S
C1965 C1971 1.390 . S
C1966 H1957 0.930 . S
C1966 C1964 1.384 . S
C1966 C1967 1.372 . S
C1967 C1966 1.372 . S
C1967 C1968 1.400 . S
C1967 C1972 1.490 . S
C1968 H1958 0.930 . S
C1968 C1967 1.400 . S
C1968 C1971 1.386 . S
H1969 C1985 0.930 . S
H1970 C1986 0.931 . S
C1971 H1959 0.929 . S
C1971 C1965 1.390 . S
C1971 C1968 1.386 . S
C1972 C1967 1.490 . S
C1972 C1974 1.395 . S
C1972 C1975 1.403 . S
H1973 C1979 0.930 . S
C1974 H1960 0.930 . S
C1974 C1972 1.395 . S
C1974 C1977 1.403 . S
C1975 C1972 1.403 . S
C1975 C1976 1.524 . S
C1975 C1979 1.400 . S
C1976 H1961 0.960 . S
C1976 H1962 0.960 . S
C1976 H1963 0.960 . S
C1976 C1975 1.524 . S
C1977 C1974 1.403 . S
C1977 C1978 1.392 . S
C1977 C1981 1.495 . S
C1978 C1977 1.392 . S
C1978 C1979 1.385 . S
C1978 C1980 1.478 . S
C1979 H1973 0.930 . S
C1979 C1975 1.400 . S
C1979 C1978 1.385 . S
C1980 C1978 1.478 . S
C1980 C1982 1.381 . S
C1980 C1986 1.383 . S
C1981 C1977 1.495 . S
C1981 H1987 0.959 . S
C1981 H1988 0.961 . S
C1981 H1989 0.960 . S
C1982 C1980 1.381 . S
C1982 C1983 1.394 . S
C1982 H1990 0.930 . S
C1983 C1982 1.394 . S
C1983 C1984 1.383 . S
C1983 H1991 0.929 . S
C1984 C1983 1.383 . S
C1984 C1985 1.377 . S
C1985 H1969 0.930 . S
C1985 C1984 1.377 . S
C1985 C1986 1.379 . S
C1986 H1970 0.931 . S
C1986 C1980 1.383 . S
C1986 C1985 1.379 . S
H1987 C1981 0.959 . S
H1988 C1981 0.961 . S
H1989 C1981 0.960 . S
H1990 C1982 0.930 . S
H1991 C1983 0.929 . S
H1992 C2000 0.929 . S
H1993 C2002 0.930 . S
H1994 C2004 0.930 . S
H1995 C2007 0.929 . S
H1996 C2010 0.930 . S
H1997 C2012 0.960 . S
H1998 C2012 0.960 . S
H1999 C2012 0.960 . S
C2000 H1992 0.929 . S
C2000 C2001 1.377 . S
C2000 C2002 1.384 . S
C2001 C2000 1.377 . S
C2001 C2007 1.390 . S
C2002 H1993 0.930 . S
C2002 C2000 1.384 . S
C2002 C2003 1.372 . S
C2003 C2002 1.372 . S
C2003 C2004 1.400 . S
C2003 C2008 1.490 . S
C2004 H1994 0.930 . S
C2004 C2003 1.400 . S
C2004 C2007 1.386 . S
H2005 C2021 0.930 . S
H2006 C2022 0.931 . S
C2007 H1995 0.929 . S
C2007 C2001 1.390 . S
C2007 C2004 1.386 . S
C2008 C2003 1.490 . S
C2008 C2010 1.395 . S
C2008 C2011 1.403 . S
H2009 C2015 0.930 . S
C2010 H1996 0.930 . S
C2010 C2008 1.395 . S
C2010 C2013 1.403 . S
C2011 C2008 1.403 . S
C2011 C2012 1.524 . S
C2011 C2015 1.400 . S
C2012 H1997 0.960 . S
C2012 H1998 0.960 . S
C2012 H1999 0.960 . S
C2012 C2011 1.524 . S
C2013 C2010 1.403 . S
C2013 C2014 1.392 . S
C2013 C2017 1.495 . S
C2014 C2013 1.392 . S
C2014 C2015 1.385 . S
C2014 C2016 1.478 . S
C2015 H2009 0.930 . S
C2015 C2011 1.400 . S
C2015 C2014 1.385 . S
C2016 C2014 1.478 . S
C2016 C2018 1.381 . S
C2016 C2022 1.383 . S
C2017 C2013 1.495 . S
C2017 H2023 0.959 . S
C2017 H2024 0.961 . S
C2017 H2025 0.960 . S
C2018 C2016 1.381 . S
C2018 C2019 1.394 . S
C2018 H2026 0.930 . S
C2019 C2018 1.394 . S
C2019 C2020 1.383 . S
C2019 H2027 0.929 . S
C2020 C2019 1.383 . S
C2020 C2021 1.377 . S
C2021 H2005 0.930 . S
C2021 C2020 1.377 . S
C2021 C2022 1.379 . S
C2022 H2006 0.931 . S
C2022 C2016 1.383 . S
C2022 C2021 1.379 . S
H2023 C2017 0.959 . S
H2024 C2017 0.961 . S
H2025 C2017 0.960 . S
H2026 C2018 0.930 . S
H2027 C2019 0.929 . S
H2028 C2036 0.929 . S
H2029 C2038 0.930 . S
H2030 C2040 0.930 . S
H2031 C2043 0.929 . S
H2032 C2046 0.930 . S
H2033 C2048 0.960 . S
H2034 C2048 0.960 . S
H2035 C2048 0.960 . S
C2036 H2028 0.929 . S
C2036 C2037 1.377 . S
C2036 C2038 1.384 . S
C2037 C2036 1.377 . S
C2037 C2043 1.390 . S
C2038 H2029 0.930 . S
C2038 C2036 1.384 . S
C2038 C2039 1.372 . S
C2039 C2038 1.372 . S
C2039 C2040 1.400 . S
C2039 C2044 1.490 . S
C2040 H2030 0.930 . S
C2040 C2039 1.400 . S
C2040 C2043 1.386 . S
H2041 C2057 0.930 . S
H2042 C2058 0.931 . S
C2043 H2031 0.929 . S
C2043 C2037 1.390 . S
C2043 C2040 1.386 . S
C2044 C2039 1.490 . S
C2044 C2046 1.395 . S
C2044 C2047 1.403 . S
H2045 C2051 0.930 . S
C2046 H2032 0.930 . S
C2046 C2044 1.395 . S
C2046 C2049 1.403 . S
C2047 C2044 1.403 . S
C2047 C2048 1.524 . S
C2047 C2051 1.400 . S
C2048 H2033 0.960 . S
C2048 H2034 0.960 . S
C2048 H2035 0.960 . S
C2048 C2047 1.524 . S
C2049 C2046 1.403 . S
C2049 C2050 1.392 . S
C2049 C2053 1.495 . S
C2050 C2049 1.392 . S
C2050 C2051 1.385 . S
C2050 C2052 1.478 . S
C2051 H2045 0.930 . S
C2051 C2047 1.400 . S
C2051 C2050 1.385 . S
C2052 C2050 1.478 . S
C2052 C2054 1.381 . S
C2052 C2058 1.383 . S
C2053 C2049 1.495 . S
C2053 H2059 0.959 . S
C2053 H2060 0.961 . S
C2053 H2061 0.960 . S
C2054 C2052 1.381 . S
C2054 C2055 1.394 . S
C2054 H2062 0.930 . S
C2055 C2054 1.394 . S
C2055 C2056 1.383 . S
C2055 H2063 0.929 . S
C2056 C2055 1.383 . S
C2056 C2057 1.377 . S
C2057 H2041 0.930 . S
C2057 C2056 1.377 . S
C2057 C2058 1.379 . S
C2058 H2042 0.931 . S
C2058 C2052 1.383 . S
C2058 C2057 1.379 . S
H2059 C2053 0.959 . S
H2060 C2053 0.961 . S
H2061 C2053 0.960 . S
H2062 C2054 0.930 . S
H2063 C2055 0.929 . S
H2064 C2072 0.929 . S
H2065 C2074 0.930 . S
H2066 C2076 0.930 . S
H2067 C2079 0.929 . S
H2068 C2082 0.930 . S
H2069 C2084 0.965 . S
H2070 C2084 0.957 1_565 S
H2071 C2084 0.958 1_565 S
C2072 H2064 0.929 . S
C2072 C2073 1.377 . S
C2072 C2074 1.384 . S
C2073 C2072 1.377 . S
C2073 C2079 1.390 . S
C2074 H2065 0.930 . S
C2074 C2072 1.384 . S
C2074 C2075 1.372 . S
C2075 C2074 1.372 . S
C2075 C2076 1.400 . S
C2075 C2080 1.490 . S
C2076 H2066 0.930 . S
C2076 C2075 1.400 . S
C2076 C2079 1.386 . S
H2077 C2093 0.930 . S
H2078 C2094 0.931 . S
C2079 H2067 0.929 . S
C2079 C2073 1.390 . S
C2079 C2076 1.386 . S
C2080 C2075 1.490 . S
C2080 C2082 1.395 . S
C2080 C2083 1.450 . S
H2081 C2087 0.930 . S
C2082 H2068 0.930 . S
C2082 C2080 1.395 . S
C2082 C2085 1.403 . S
C2083 C2080 1.450 . S
C2083 C2084 1.522 1_565 S
C2083 C2087 1.354 1_565 S
C2084 H2069 0.965 . S
C2084 H2070 0.957 1_545 S
C2084 H2071 0.958 1_545 S
C2084 C2083 1.522 1_545 S
C2085 C2082 1.403 . S
C2085 C2086 1.392 1_565 S
C2085 C2089 1.495 . S
C2086 C2085 1.392 1_545 S
C2086 C2087 1.385 . S
C2086 C2088 1.478 . S
C2087 H2081 0.930 . S
C2087 C2083 1.354 1_545 S
C2087 C2086 1.385 . S
C2088 C2086 1.478 . S
C2088 C2090 1.381 . S
C2088 C2094 1.383 . S
C2089 C2085 1.495 . S
C2089 H2095 0.959 . S
C2089 H2096 0.961 1_565 S
C2089 H2097 0.960 1_565 S
C2090 C2088 1.381 . S
C2090 C2091 1.394 . S
C2090 H2098 0.930 . S
C2091 C2090 1.394 . S
C2091 C2092 1.383 . S
C2091 H2099 0.929 . S
C2092 C2091 1.383 . S
C2092 C2093 1.377 . S
C2093 H2077 0.930 . S
C2093 C2092 1.377 . S
C2093 C2094 1.379 . S
C2094 H2078 0.931 . S
C2094 C2088 1.383 . S
C2094 C2093 1.379 . S
H2095 C2089 0.959 . S
H2096 C2089 0.961 1_545 S
H2097 C2089 0.960 1_545 S
H2098 C2090 0.930 . S
H2099 C2091 0.929 . S
H2100 C2108 0.929 . S
H2101 C2110 0.930 . S
H2102 C2112 0.930 . S
H2103 C2115 0.929 . S
H2104 C2118 0.936 . S
H2105 C2120 0.960 . S
H2106 C2120 0.960 . S
H2107 C2120 0.960 . S
C2108 H2100 0.929 . S
C2108 C2109 1.377 . S
C2108 C2110 1.384 . S
C2109 C2108 1.377 . S
C2109 C2115 1.390 . S
C2110 H2101 0.930 . S
C2110 C2108 1.384 . S
C2110 C2111 1.372 . S
C2111 C2110 1.372 . S
C2111 C2112 1.400 . S
C2111 C2116 1.490 . S
C2112 H2102 0.930 . S
C2112 C2111 1.400 . S
C2112 C2115 1.386 . S
H2113 C2129 0.930 . S
H2114 C2130 0.931 . S
C2115 H2103 0.929 . S
C2115 C2109 1.390 . S
C2115 C2112 1.386 . S
C2116 C2111 1.490 . S
C2116 C2118 1.430 . S
C2116 C2119 1.403 . S
H2117 C2123 0.930 . S
C2118 H2104 0.936 . S
C2118 C2116 1.430 . S
C2118 C2121 1.364 1_655 S
C2119 C2116 1.403 . S
C2119 C2120 1.524 . S
C2119 C2123 1.400 1_655 S
C2120 H2105 0.960 . S
C2120 H2106 0.960 . S
C2120 H2107 0.960 . S
C2120 C2119 1.524 . S
C2121 C2118 1.364 1_455 S
C2121 C2122 1.392 . S
C2121 C2125 1.495 . S
C2122 C2121 1.392 . S
C2122 C2123 1.385 . S
C2122 C2124 1.478 . S
C2123 H2117 0.930 . S
C2123 C2119 1.400 1_455 S
C2123 C2122 1.385 . S
C2124 C2122 1.478 . S
C2124 C2126 1.381 . S
C2124 C2130 1.383 . S
C2125 C2121 1.495 . S
C2125 H2131 0.959 . S
C2125 H2132 0.961 . S
C2125 H2133 0.960 . S
C2126 C2124 1.381 . S
C2126 C2127 1.394 . S
C2126 H2134 0.930 . S
C2127 C2126 1.394 . S
C2127 C2128 1.383 . S
C2127 H2135 0.929 . S
C2128 C2127 1.383 . S
C2128 C2129 1.377 . S
C2129 H2113 0.930 . S
C2129 C2128 1.377 . S
C2129 C2130 1.379 . S
C2130 H2114 0.931 . S
C2130 C2124 1.383 . S
C2130 C2129 1.379 . S
H2131 C2125 0.959 . S
H2132 C2125 0.961 . S
H2133 C2125 0.960 . S
H2134 C2126 0.930 . S
H2135 C2127 0.929 . S
H2136 C2144 0.929 . S
H2137 C2146 0.930 . S
H2138 C2148 0.930 . S
H2139 C2151 0.929 . S
H2140 C2154 0.937 . S
H2141 C2156 0.960 . S
H2142 C2156 0.960 . S
H2143 C2156 0.960 . S
C2144 H2136 0.929 . S
C2144 C2145 1.377 . S
C2144 C2146 1.384 . S
C2145 C2144 1.377 . S
C2145 C2151 1.390 . S
C2146 H2137 0.930 . S
C2146 C2144 1.384 . S
C2146 C2147 1.372 . S
C2147 C2146 1.372 . S
C2147 C2148 1.400 . S
C2147 C2152 1.490 . S
C2148 H2138 0.930 . S
C2148 C2147 1.400 . S
C2148 C2151 1.386 . S
H2149 C2165 0.930 . S
H2150 C2166 0.931 . S
C2151 H2139 0.929 . S
C2151 C2145 1.390 . S
C2151 C2148 1.386 . S
C2152 C2147 1.490 . S
C2152 C2154 1.436 . S
C2152 C2155 1.403 . S
H2153 C2159 0.930 . S
C2154 H2140 0.937 . S
C2154 C2152 1.436 . S
C2154 C2157 1.357 1_565 S
C2155 C2152 1.403 . S
C2155 C2156 1.524 . S
C2155 C2159 1.400 1_565 S
C2156 H2141 0.960 . S
C2156 H2142 0.960 . S
C2156 H2143 0.960 . S
C2156 C2155 1.524 . S
C2157 C2154 1.357 1_545 S
C2157 C2158 1.392 . S
C2157 C2161 1.495 . S
C2158 C2157 1.392 . S
C2158 C2159 1.385 . S
C2158 C2160 1.478 . S
C2159 H2153 0.930 . S
C2159 C2155 1.400 1_545 S
C2159 C2158 1.385 . S
C2160 C2158 1.478 . S
C2160 C2162 1.381 . S
C2160 C2166 1.383 . S
C2161 C2157 1.495 . S
C2161 H2167 0.959 . S
C2161 H2168 0.961 . S
C2161 H2169 0.960 . S
C2162 C2160 1.381 . S
C2162 C2163 1.394 . S
C2162 H2170 0.930 . S
C2163 C2162 1.394 . S
C2163 C2164 1.383 . S
C2163 H2171 0.929 . S
C2164 C2163 1.383 . S
C2164 C2165 1.377 . S
C2165 H2149 0.930 . S
C2165 C2164 1.377 . S
C2165 C2166 1.379 . S
C2166 H2150 0.931 . S
C2166 C2160 1.383 . S
C2166 C2165 1.379 . S
H2167 C2161 0.959 . S
H2168 C2161 0.961 . S
H2169 C2161 0.960 . S
H2170 C2162 0.930 . S
H2171 C2163 0.929 . S
H2172 C2180 0.929 . S
H2173 C2182 0.930 . S
H2174 C2184 0.930 . S
H2175 C2187 0.929 . S
H2176 C2190 0.930 . S
H2177 C2192 0.960 . S
H2178 C2192 0.960 1_655 S
H2179 C2192 0.960 1_655 S
C2180 H2172 0.929 . S
C2180 C2181 1.377 . S
C2180 C2182 1.384 . S
C2181 C2180 1.377 . S
C2181 C2187 1.390 . S
C2182 H2173 0.930 . S
C2182 C2180 1.384 . S
C2182 C2183 1.372 . S
C2183 C2182 1.372 . S
C2183 C2184 1.400 . S
C2183 C2188 1.490 . S
C2184 H2174 0.930 . S
C2184 C2183 1.400 . S
C2184 C2187 1.386 . S
H2185 C2201 0.930 . S
H2186 C2202 0.931 . S
C2187 H2175 0.929 . S
C2187 C2181 1.390 . S
C2187 C2184 1.386 . S
C2188 C2183 1.490 . S
C2188 C2190 1.395 . S
C2188 C2191 1.428 . S
H2189 C2195 0.930 . S
C2190 H2176 0.930 . S
C2190 C2188 1.395 . S
C2190 C2193 1.403 . S
C2191 C2188 1.428 . S
C2191 C2192 1.522 1_655 S
C2191 C2195 1.375 1_655 S
C2192 H2177 0.960 . S
C2192 H2178 0.960 1_455 S
C2192 H2179 0.960 1_455 S
C2192 C2191 1.522 1_455 S
C2193 C2190 1.403 . S
C2193 C2194 1.392 1_655 S
C2193 C2197 1.495 . S
C2194 C2193 1.392 1_455 S
C2194 C2195 1.385 . S
C2194 C2196 1.478 . S
C2195 H2189 0.930 . S
C2195 C2191 1.375 1_455 S
C2195 C2194 1.385 . S
C2196 C2194 1.478 . S
C2196 C2198 1.381 . S
C2196 C2202 1.383 . S
C2197 C2193 1.495 . S
C2197 H2203 0.959 . S
C2197 H2204 0.961 1_655 S
C2197 H2205 0.960 1_655 S
C2198 C2196 1.381 . S
C2198 C2199 1.394 . S
C2198 H2206 0.930 . S
C2199 C2198 1.394 . S
C2199 C2200 1.383 . S
C2199 H2207 0.929 . S
C2200 C2199 1.383 . S
C2200 C2201 1.377 . S
C2201 H2185 0.930 . S
C2201 C2200 1.377 . S
C2201 C2202 1.379 . S
C2202 H2186 0.931 . S
C2202 C2196 1.383 . S
C2202 C2201 1.379 . S
H2203 C2197 0.959 . S
H2204 C2197 0.961 1_455 S
H2205 C2197 0.960 1_455 S
H2206 C2198 0.930 . S
H2207 C2199 0.929 . S
H2208 C2216 0.929 . S
H2209 C2218 0.930 . S
H2210 C2220 0.930 . S
H2211 C2223 0.929 . S
H2212 C2226 0.930 . S
H2213 C2228 0.960 . S
H2214 C2228 0.960 . S
H2215 C2228 0.960 . S
C2216 H2208 0.929 . S
C2216 C2217 1.377 . S
C2216 C2218 1.384 . S
C2217 C2216 1.377 . S
C2217 C2223 1.390 . S
C2218 H2209 0.930 . S
C2218 C2216 1.384 . S
C2218 C2219 1.372 . S
C2219 C2218 1.372 . S
C2219 C2220 1.400 . S
C2219 C2224 1.490 . S
C2220 H2210 0.930 . S
C2220 C2219 1.400 . S
C2220 C2223 1.386 . S
H2221 C2237 0.930 . S
H2222 C2238 0.931 . S
C2223 H2211 0.929 . S
C2223 C2217 1.390 . S
C2223 C2220 1.386 . S
C2224 C2219 1.490 . S
C2224 C2226 1.395 . S
C2224 C2227 1.403 . S
H2225 C2231 0.930 . S
C2226 H2212 0.930 . S
C2226 C2224 1.395 . S
C2226 C2229 1.403 . S
C2227 C2224 1.403 . S
C2227 C2228 1.524 . S
C2227 C2231 1.400 . S
C2228 H2213 0.960 . S
C2228 H2214 0.960 . S
C2228 H2215 0.960 . S
C2228 C2227 1.524 . S
C2229 C2226 1.403 . S
C2229 C2230 1.392 . S
C2229 C2233 1.495 . S
C2230 C2229 1.392 . S
C2230 C2231 1.385 . S
C2230 C2232 1.478 . S
C2231 H2225 0.930 . S
C2231 C2227 1.400 . S
C2231 C2230 1.385 . S
C2232 C2230 1.478 . S
C2232 C2234 1.381 . S
C2232 C2238 1.383 . S
C2233 C2229 1.495 . S
C2233 H2239 0.959 . S
C2233 H2240 0.961 . S
C2233 H2241 0.960 . S
C2234 C2232 1.381 . S
C2234 C2235 1.394 . S
C2234 H2242 0.930 . S
C2235 C2234 1.394 . S
C2235 C2236 1.383 . S
C2235 H2243 0.929 . S
C2236 C2235 1.383 . S
C2236 C2237 1.377 . S
C2237 H2221 0.930 . S
C2237 C2236 1.377 . S
C2237 C2238 1.379 . S
C2238 H2222 0.931 . S
C2238 C2232 1.383 . S
C2238 C2237 1.379 . S
H2239 C2233 0.959 . S
H2240 C2233 0.961 . S
H2241 C2233 0.960 . S
H2242 C2234 0.930 . S
H2243 C2235 0.929 . S
H2244 C2252 0.929 . S
H2245 C2254 0.930 . S
H2246 C2256 0.930 . S
H2247 C2259 0.929 . S
H2248 C2262 0.930 . S
H2249 C2264 0.960 . S
H2250 C2264 0.960 . S
H2251 C2264 0.960 . S
C2252 H2244 0.929 . S
C2252 C2253 1.377 . S
C2252 C2254 1.384 . S
C2253 C2252 1.377 . S
C2253 C2259 1.390 . S
C2254 H2245 0.930 . S
C2254 C2252 1.384 . S
C2254 C2255 1.372 . S
C2255 C2254 1.372 . S
C2255 C2256 1.400 . S
C2255 C2260 1.490 . S
C2256 H2246 0.930 . S
C2256 C2255 1.400 . S
C2256 C2259 1.386 . S
H2257 C2273 0.930 . S
H2258 C2274 0.931 . S
C2259 H2247 0.929 . S
C2259 C2253 1.390 . S
C2259 C2256 1.386 . S
C2260 C2255 1.490 . S
C2260 C2262 1.395 . S
C2260 C2263 1.403 . S
H2261 C2267 0.930 . S
C2262 H2248 0.930 . S
C2262 C2260 1.395 . S
C2262 C2265 1.403 . S
C2263 C2260 1.403 . S
C2263 C2264 1.524 . S
C2263 C2267 1.400 . S
C2264 H2249 0.960 . S
C2264 H2250 0.960 . S
C2264 H2251 0.960 . S
C2264 C2263 1.524 . S
C2265 C2262 1.403 . S
C2265 C2266 1.392 . S
C2265 C2269 1.495 . S
C2266 C2265 1.392 . S
C2266 C2267 1.385 . S
C2266 C2268 1.478 . S
C2267 H2261 0.930 . S
C2267 C2263 1.400 . S
C2267 C2266 1.385 . S
C2268 C2266 1.478 . S
C2268 C2270 1.381 . S
C2268 C2274 1.383 . S
C2269 C2265 1.495 . S
C2269 H2275 0.959 . S
C2269 H2276 0.961 . S
C2269 H2277 0.960 . S
C2270 C2268 1.381 . S
C2270 C2271 1.394 . S
C2270 H2278 0.930 . S
C2271 C2270 1.394 . S
C2271 C2272 1.383 . S
C2271 H2279 0.929 . S
C2272 C2271 1.383 . S
C2272 C2273 1.377 . S
C2273 H2257 0.930 . S
C2273 C2272 1.377 . S
C2273 C2274 1.379 . S
C2274 H2258 0.931 . S
C2274 C2268 1.383 . S
C2274 C2273 1.379 . S
H2275 C2269 0.959 . S
H2276 C2269 0.961 . S
H2277 C2269 0.960 . S
H2278 C2270 0.930 . S
H2279 C2271 0.929 . S
H2280 C2288 0.929 . S
H2281 C2290 0.930 . S
H2282 C2292 0.930 . S
H2283 C2295 0.929 . S
H2284 C2298 0.930 . S
H2285 C2300 0.960 . S
H2286 C2300 0.960 . S
H2287 C2300 0.960 . S
C2288 H2280 0.929 . S
C2288 C2289 1.377 . S
C2288 C2290 1.384 . S
C2289 C2288 1.377 . S
C2289 C2295 1.390 . S
C2290 H2281 0.930 . S
C2290 C2288 1.384 . S
C2290 C2291 1.372 . S
C2291 C2290 1.372 . S
C2291 C2292 1.400 . S
C2291 C2296 1.490 . S
C2292 H2282 0.930 . S
C2292 C2291 1.400 . S
C2292 C2295 1.386 . S
H2293 C2309 0.930 . S
H2294 C2310 0.931 . S
C2295 H2283 0.929 . S
C2295 C2289 1.390 . S
C2295 C2292 1.386 . S
C2296 C2291 1.490 . S
C2296 C2298 1.395 . S
C2296 C2299 1.403 . S
H2297 C2303 0.930 . S
C2298 H2284 0.930 . S
C2298 C2296 1.395 . S
C2298 C2301 1.403 . S
C2299 C2296 1.403 . S
C2299 C2300 1.524 . S
C2299 C2303 1.400 . S
C2300 H2285 0.960 . S
C2300 H2286 0.960 . S
C2300 H2287 0.960 . S
C2300 C2299 1.524 . S
C2301 C2298 1.403 . S
C2301 C2302 1.392 . S
C2301 C2305 1.495 . S
C2302 C2301 1.392 . S
C2302 C2303 1.385 . S
C2302 C2304 1.478 . S
C2303 H2297 0.930 . S
C2303 C2299 1.400 . S
C2303 C2302 1.385 . S
C2304 C2302 1.478 . S
C2304 C2306 1.381 . S
C2304 C2310 1.383 . S
C2305 C2301 1.495 . S
C2305 H2311 0.959 . S
C2305 H2312 0.961 . S
C2305 H2313 0.960 . S
C2306 C2304 1.381 . S
C2306 C2307 1.394 . S
C2306 H2314 0.930 . S
C2307 C2306 1.394 . S
C2307 C2308 1.383 . S
C2307 H2315 0.929 . S
C2308 C2307 1.383 . S
C2308 C2309 1.377 . S
C2309 H2293 0.930 . S
C2309 C2308 1.377 . S
C2309 C2310 1.379 . S
C2310 H2294 0.931 . S
C2310 C2304 1.383 . S
C2310 C2309 1.379 . S
H2311 C2305 0.959 . S
H2312 C2305 0.961 . S
H2313 C2305 0.960 . S
H2314 C2306 0.930 . S
H2315 C2307 0.929 . S
H2316 C2324 0.929 . S
H2317 C2326 0.930 . S
H2318 C2328 0.930 . S
H2319 C2331 0.929 . S
H2320 C2334 0.930 . S
H2321 C2336 0.960 1_556 S
H2322 C2336 0.960 . S
H2323 C2336 0.960 . S
C2324 H2316 0.929 . S
C2324 C2325 1.377 . S
C2324 C2326 1.384 . S
C2325 C2324 1.377 . S
C2325 C2331 1.390 . S
C2326 H2317 0.930 . S
C2326 C2324 1.384 . S
C2326 C2327 1.372 . S
C2327 C2326 1.372 . S
C2327 C2328 1.400 . S
C2327 C2332 1.490 . S
C2328 H2318 0.930 . S
C2328 C2327 1.400 . S
C2328 C2331 1.386 . S
H2329 C2345 0.930 . S
H2330 C2346 0.931 . S
C2331 H2319 0.929 . S
C2331 C2325 1.390 . S
C2331 C2328 1.386 . S
C2332 C2327 1.490 . S
C2332 C2334 1.395 . S
C2332 C2335 1.403 . S
H2333 C2339 0.930 . S
C2334 H2320 0.930 . S
C2334 C2332 1.395 . S
C2334 C2337 1.403 1_554 S
C2335 C2332 1.403 . S
C2335 C2336 1.524 . S
C2335 C2339 1.400 1_554 S
C2336 H2321 0.960 1_554 S
C2336 H2322 0.960 . S
C2336 H2323 0.960 . S
C2336 C2335 1.524 . S
C2337 C2334 1.403 1_556 S
C2337 C2338 1.392 . S
C2337 C2341 1.495 . S
C2338 C2337 1.392 . S
C2338 C2339 1.385 . S
C2338 C2340 1.478 . S
C2339 H2333 0.930 . S
C2339 C2335 1.400 1_556 S
C2339 C2338 1.385 . S
C2340 C2338 1.478 . S
C2340 C2342 1.381 . S
C2340 C2346 1.383 . S
C2341 C2337 1.495 . S
C2341 H2347 0.959 1_556 S
C2341 H2348 0.961 . S
C2341 H2349 0.960 . S
C2342 C2340 1.381 . S
C2342 C2343 1.394 . S
C2342 H2350 0.930 . S
C2343 C2342 1.394 . S
C2343 C2344 1.383 . S
C2343 H2351 0.929 . S
C2344 C2343 1.383 . S
C2344 C2345 1.377 . S
C2345 H2329 0.930 . S
C2345 C2344 1.377 . S
C2345 C2346 1.379 . S
C2346 H2330 0.931 . S
C2346 C2340 1.383 . S
C2346 C2345 1.379 . S
H2347 C2341 0.959 1_554 S
H2348 C2341 0.961 . S
H2349 C2341 0.960 . S
H2350 C2342 0.930 . S
H2351 C2343 0.929 . S
H2352 C2360 0.929 . S
H2353 C2362 0.930 . S
H2354 C2364 0.930 . S
H2355 C2367 0.929 . S
H2356 C2370 0.930 . S
H2357 C2372 0.960 . S
H2358 C2372 0.960 . S
H2359 C2372 0.960 . S
C2360 H2352 0.929 . S
C2360 C2361 1.377 . S
C2360 C2362 1.384 . S
C2361 C2360 1.377 . S
C2361 C2367 1.390 . S
C2362 H2353 0.930 . S
C2362 C2360 1.384 . S
C2362 C2363 1.372 . S
C2363 C2362 1.372 . S
C2363 C2364 1.400 . S
C2363 C2368 1.490 . S
C2364 H2354 0.930 . S
C2364 C2363 1.400 . S
C2364 C2367 1.386 . S
H2365 C2381 0.930 . S
H2366 C2382 0.931 . S
C2367 H2355 0.929 . S
C2367 C2361 1.390 . S
C2367 C2364 1.386 . S
C2368 C2363 1.490 . S
C2368 C2370 1.395 . S
C2368 C2371 1.403 . S
H2369 C2375 0.930 . S
C2370 H2356 0.930 . S
C2370 C2368 1.395 . S
C2370 C2373 1.403 . S
C2371 C2368 1.403 . S
C2371 C2372 1.524 . S
C2371 C2375 1.400 . S
C2372 H2357 0.960 . S
C2372 H2358 0.960 . S
C2372 H2359 0.960 . S
C2372 C2371 1.524 . S
C2373 C2370 1.403 . S
C2373 C2374 1.392 . S
C2373 C2377 1.495 . S
C2374 C2373 1.392 . S
C2374 C2375 1.385 . S
C2374 C2376 1.478 . S
C2375 H2369 0.930 . S
C2375 C2371 1.400 . S
C2375 C2374 1.385 . S
C2376 C2374 1.478 . S
C2376 C2378 1.381 . S
C2376 C2382 1.383 . S
C2377 C2373 1.495 . S
C2377 H2383 0.959 . S
C2377 H2384 0.961 . S
C2377 H2385 0.960 . S
C2378 C2376 1.381 . S
C2378 C2379 1.394 . S
C2378 H2386 0.930 . S
C2379 C2378 1.394 . S
C2379 C2380 1.383 . S
C2379 H2387 0.929 . S
C2380 C2379 1.383 . S
C2380 C2381 1.377 . S
C2381 H2365 0.930 . S
C2381 C2380 1.377 . S
C2381 C2382 1.379 . S
C2382 H2366 0.931 . S
C2382 C2376 1.383 . S
C2382 C2381 1.379 . S
H2383 C2377 0.959 . S
H2384 C2377 0.961 . S
H2385 C2377 0.960 . S
H2386 C2378 0.930 . S
H2387 C2379 0.929 . S
H2388 C2396 0.929 . S
H2389 C2398 0.930 . S
H2390 C2400 0.930 . S
H2391 C2403 0.929 . S
H2392 C2406 0.930 . S
H2393 C2408 0.960 . S
H2394 C2408 0.960 . S
H2395 C2408 0.960 . S
C2396 H2388 0.929 . S
C2396 C2397 1.377 . S
C2396 C2398 1.384 . S
C2397 C2396 1.377 . S
C2397 C2403 1.390 . S
C2398 H2389 0.930 . S
C2398 C2396 1.384 . S
C2398 C2399 1.372 . S
C2399 C2398 1.372 . S
C2399 C2400 1.400 . S
C2399 C2404 1.490 . S
C2400 H2390 0.930 . S
C2400 C2399 1.400 . S
C2400 C2403 1.386 . S
H2401 C2417 0.930 . S
H2402 C2418 0.931 . S
C2403 H2391 0.929 . S
C2403 C2397 1.390 . S
C2403 C2400 1.386 . S
C2404 C2399 1.490 . S
C2404 C2406 1.395 . S
C2404 C2407 1.403 . S
H2405 C2411 0.930 . S
C2406 H2392 0.930 . S
C2406 C2404 1.395 . S
C2406 C2409 1.403 1_556 S
C2407 C2404 1.403 . S
C2407 C2408 1.524 . S
C2407 C2411 1.400 1_556 S
C2408 H2393 0.960 . S
C2408 H2394 0.960 . S
C2408 H2395 0.960 . S
C2408 C2407 1.524 . S
C2409 C2406 1.403 1_554 S
C2409 C2410 1.392 . S
C2409 C2413 1.495 . S
C2410 C2409 1.392 . S
C2410 C2411 1.385 . S
C2410 C2412 1.478 . S
C2411 H2405 0.930 . S
C2411 C2407 1.400 1_554 S
C2411 C2410 1.385 . S
C2412 C2410 1.478 . S
C2412 C2414 1.381 . S
C2412 C2418 1.383 . S
C2413 C2409 1.495 . S
C2413 H2419 0.959 . S
C2413 H2420 0.961 . S
C2413 H2421 0.960 . S
C2414 C2412 1.381 . S
C2414 C2415 1.394 . S
C2414 H2422 0.930 . S
C2415 C2414 1.394 . S
C2415 C2416 1.383 . S
C2415 H2423 0.929 . S
C2416 C2415 1.383 . S
C2416 C2417 1.377 . S
C2417 H2401 0.930 . S
C2417 C2416 1.377 . S
C2417 C2418 1.379 . S
C2418 H2402 0.931 . S
C2418 C2412 1.383 . S
C2418 C2417 1.379 . S
H2419 C2413 0.959 . S
H2420 C2413 0.961 . S
H2421 C2413 0.960 . S
H2422 C2414 0.930 . S
H2423 C2415 0.929 . S
H2424 C2432 0.929 . S
H2425 C2434 0.930 . S
H2426 C2436 0.930 . S
H2427 C2439 0.929 . S
H2428 C2442 0.930 . S
H2429 C2444 0.960 . S
H2430 C2444 0.960 . S
H2431 C2444 0.960 . S
C2432 H2424 0.929 . S
C2432 C2433 1.377 . S
C2432 C2434 1.384 . S
C2433 C2432 1.377 . S
C2433 C2439 1.390 . S
C2434 H2425 0.930 . S
C2434 C2432 1.384 . S
C2434 C2435 1.372 . S
C2435 C2434 1.372 . S
C2435 C2436 1.400 . S
C2435 C2440 1.490 . S
C2436 H2426 0.930 . S
C2436 C2435 1.400 . S
C2436 C2439 1.386 . S
H2437 C2453 0.930 . S
H2438 C2454 0.931 . S
C2439 H2427 0.929 . S
C2439 C2433 1.390 . S
C2439 C2436 1.386 . S
C2440 C2435 1.490 . S
C2440 C2442 1.395 . S
C2440 C2443 1.403 . S
H2441 C2447 0.930 . S
C2442 H2428 0.930 . S
C2442 C2440 1.395 . S
C2442 C2445 1.403 . S
C2443 C2440 1.403 . S
C2443 C2444 1.524 . S
C2443 C2447 1.400 . S
C2444 H2429 0.960 . S
C2444 H2430 0.960 . S
C2444 H2431 0.960 . S
C2444 C2443 1.524 . S
C2445 C2442 1.403 . S
C2445 C2446 1.392 . S
C2445 C2449 1.495 . S
C2446 C2445 1.392 . S
C2446 C2447 1.385 . S
C2446 C2448 1.478 . S
C2447 H2441 0.930 . S
C2447 C2443 1.400 . S
C2447 C2446 1.385 . S
C2448 C2446 1.478 . S
C2448 C2450 1.381 . S
C2448 C2454 1.383 . S
C2449 C2445 1.495 . S
C2449 H2455 0.959 . S
C2449 H2456 0.961 . S
C2449 H2457 0.960 . S
C2450 C2448 1.381 . S
C2450 C2451 1.394 . S
C2450 H2458 0.930 . S
C2451 C2450 1.394 . S
C2451 C2452 1.383 . S
C2451 H2459 0.929 . S
C2452 C2451 1.383 . S
C2452 C2453 1.377 . S
C2453 H2437 0.930 . S
C2453 C2452 1.377 . S
C2453 C2454 1.379 . S
C2454 H2438 0.931 . S
C2454 C2448 1.383 . S
C2454 C2453 1.379 . S
H2455 C2449 0.959 . S
H2456 C2449 0.961 . S
H2457 C2449 0.960 . S
H2458 C2450 0.930 . S
H2459 C2451 0.929 . S
H2460 C2468 0.929 . S
H2461 C2470 0.930 . S
H2462 C2472 0.930 . S
H2463 C2475 0.929 . S
H2464 C2478 0.930 . S
H2465 C2480 0.960 . S
H2466 C2480 0.960 . S
H2467 C2480 0.960 . S
C2468 H2460 0.929 . S
C2468 C2469 1.377 . S
C2468 C2470 1.384 . S
C2469 C2468 1.377 . S
C2469 C2475 1.390 . S
C2470 H2461 0.930 . S
C2470 C2468 1.384 . S
C2470 C2471 1.372 . S
C2471 C2470 1.372 . S
C2471 C2472 1.400 . S
C2471 C2476 1.490 . S
C2472 H2462 0.930 . S
C2472 C2471 1.400 . S
C2472 C2475 1.386 . S
H2473 C2489 0.930 . S
H2474 C2490 0.931 . S
C2475 H2463 0.929 . S
C2475 C2469 1.390 . S
C2475 C2472 1.386 . S
C2476 C2471 1.490 . S
C2476 C2478 1.395 . S
C2476 C2479 1.403 . S
H2477 C2483 0.930 . S
C2478 H2464 0.930 . S
C2478 C2476 1.395 . S
C2478 C2481 1.403 . S
C2479 C2476 1.403 . S
C2479 C2480 1.524 . S
C2479 C2483 1.400 . S
C2480 H2465 0.960 . S
C2480 H2466 0.960 . S
C2480 H2467 0.960 . S
C2480 C2479 1.524 . S
C2481 C2478 1.403 . S
C2481 C2482 1.392 . S
C2481 C2485 1.495 . S
C2482 C2481 1.392 . S
C2482 C2483 1.385 . S
C2482 C2484 1.478 . S
C2483 H2477 0.930 . S
C2483 C2479 1.400 . S
C2483 C2482 1.385 . S
C2484 C2482 1.478 . S
C2484 C2486 1.381 . S
C2484 C2490 1.383 . S
C2485 C2481 1.495 . S
C2485 H2491 0.959 . S
C2485 H2492 0.961 . S
C2485 H2493 0.960 . S
C2486 C2484 1.381 . S
C2486 C2487 1.394 . S
C2486 H2494 0.930 . S
C2487 C2486 1.394 . S
C2487 C2488 1.383 . S
C2487 H2495 0.929 . S
C2488 C2487 1.383 . S
C2488 C2489 1.377 . S
C2489 H2473 0.930 . S
C2489 C2488 1.377 . S
C2489 C2490 1.379 . S
C2490 H2474 0.931 . S
C2490 C2484 1.383 . S
C2490 C2489 1.379 . S
H2491 C2485 0.959 . S
H2492 C2485 0.961 . S
H2493 C2485 0.960 . S
H2494 C2486 0.930 . S
H2495 C2487 0.929 . S
H2496 C2504 0.929 . S
H2497 C2506 0.930 . S
H2498 C2508 0.930 . S
H2499 C2511 0.929 . S
H2500 C2514 0.930 . S
H2501 C2516 0.960 . S
H2502 C2516 0.960 . S
H2503 C2516 0.960 . S
C2504 H2496 0.929 . S
C2504 C2505 1.377 . S
C2504 C2506 1.384 . S
C2505 C2504 1.377 . S
C2505 C2511 1.390 . S
C2506 H2497 0.930 . S
C2506 C2504 1.384 . S
C2506 C2507 1.372 . S
C2507 C2506 1.372 . S
C2507 C2508 1.400 . S
C2507 C2512 1.490 . S
C2508 H2498 0.930 . S
C2508 C2507 1.400 . S
C2508 C2511 1.386 . S
H2509 C2525 0.930 . S
H2510 C2526 0.931 . S
C2511 H2499 0.929 . S
C2511 C2505 1.390 . S
C2511 C2508 1.386 . S
C2512 C2507 1.490 . S
C2512 C2514 1.395 . S
C2512 C2515 1.403 . S
H2513 C2519 0.930 . S
C2514 H2500 0.930 . S
C2514 C2512 1.395 . S
C2514 C2517 1.403 1_565 S
C2515 C2512 1.403 . S
C2515 C2516 1.524 . S
C2515 C2519 1.400 1_565 S
C2516 H2501 0.960 . S
C2516 H2502 0.960 . S
C2516 H2503 0.960 . S
C2516 C2515 1.524 . S
C2517 C2514 1.403 1_545 S
C2517 C2518 1.392 . S
C2517 C2521 1.495 . S
C2518 C2517 1.392 . S
C2518 C2519 1.385 . S
C2518 C2520 1.478 . S
C2519 H2513 0.930 . S
C2519 C2515 1.400 1_545 S
C2519 C2518 1.385 . S
C2520 C2518 1.478 . S
C2520 C2522 1.381 . S
C2520 C2526 1.383 . S
C2521 C2517 1.495 . S
C2521 H2527 0.959 . S
C2521 H2528 0.961 . S
C2521 H2529 0.960 . S
C2522 C2520 1.381 . S
C2522 C2523 1.394 . S
C2522 H2530 0.930 . S
C2523 C2522 1.394 . S
C2523 C2524 1.383 . S
C2523 H2531 0.929 . S
C2524 C2523 1.383 . S
C2524 C2525 1.377 . S
C2525 H2509 0.930 . S
C2525 C2524 1.377 . S
C2525 C2526 1.379 . S
C2526 H2510 0.931 . S
C2526 C2520 1.383 . S
C2526 C2525 1.379 . S
H2527 C2521 0.959 . S
H2528 C2521 0.961 . S
H2529 C2521 0.960 . S
H2530 C2522 0.930 . S
H2531 C2523 0.929 . S
H2532 C2540 0.929 . S
H2533 C2542 0.930 . S
H2534 C2544 0.930 . S
H2535 C2547 0.929 . S
H2536 C2550 0.930 . S
H2537 C2552 0.960 . S
H2538 C2552 0.960 . S
H2539 C2552 0.960 . S
C2540 H2532 0.929 . S
C2540 C2541 1.377 . S
C2540 C2542 1.384 . S
C2541 C2540 1.377 . S
C2541 C2547 1.390 . S
C2542 H2533 0.930 . S
C2542 C2540 1.384 . S
C2542 C2543 1.372 . S
C2543 C2542 1.372 . S
C2543 C2544 1.400 . S
C2543 C2548 1.490 . S
C2544 H2534 0.930 . S
C2544 C2543 1.400 . S
C2544 C2547 1.386 . S
H2545 C2561 0.930 . S
H2546 C2562 0.931 . S
C2547 H2535 0.929 . S
C2547 C2541 1.390 . S
C2547 C2544 1.386 . S
C2548 C2543 1.490 . S
C2548 C2550 1.395 . S
C2548 C2551 1.403 . S
H2549 C2555 0.930 . S
C2550 H2536 0.930 . S
C2550 C2548 1.395 . S
C2550 C2553 1.403 1_655 S
C2551 C2548 1.403 . S
C2551 C2552 1.524 . S
C2551 C2555 1.400 1_655 S
C2552 H2537 0.960 . S
C2552 H2538 0.960 . S
C2552 H2539 0.960 . S
C2552 C2551 1.524 . S
C2553 C2550 1.403 1_455 S
C2553 C2554 1.392 . S
C2553 C2557 1.495 . S
C2554 C2553 1.392 . S
C2554 C2555 1.385 . S
C2554 C2556 1.478 . S
C2555 H2549 0.930 . S
C2555 C2551 1.400 1_455 S
C2555 C2554 1.385 . S
C2556 C2554 1.478 . S
C2556 C2558 1.381 . S
C2556 C2562 1.383 . S
C2557 C2553 1.495 . S
C2557 H2563 0.959 . S
C2557 H2564 0.961 . S
C2557 H2565 0.960 . S
C2558 C2556 1.381 . S
C2558 C2559 1.394 . S
C2558 H2566 0.930 . S
C2559 C2558 1.394 . S
C2559 C2560 1.383 . S
C2559 H2567 0.929 . S
C2560 C2559 1.383 . S
C2560 C2561 1.377 . S
C2561 H2545 0.930 . S
C2561 C2560 1.377 . S
C2561 C2562 1.379 . S
C2562 H2546 0.931 . S
C2562 C2556 1.383 . S
C2562 C2561 1.379 . S
H2563 C2557 0.959 . S
H2564 C2557 0.961 . S
H2565 C2557 0.960 . S
H2566 C2558 0.930 . S
H2567 C2559 0.929 . S
H2568 C2576 0.929 . S
H2569 C2578 0.930 . S
H2570 C2580 0.930 . S
H2571 C2583 0.929 . S
H2572 C2586 0.930 . S
H2573 C2588 0.960 . S
H2574 C2588 0.960 . S
H2575 C2588 0.960 . S
C2576 H2568 0.929 . S
C2576 C2577 1.377 . S
C2576 C2578 1.384 . S
C2577 C2576 1.377 . S
C2577 C2583 1.390 . S
C2578 H2569 0.930 . S
C2578 C2576 1.384 . S
C2578 C2579 1.372 . S
C2579 C2578 1.372 . S
C2579 C2580 1.400 . S
C2579 C2584 1.490 . S
C2580 H2570 0.930 . S
C2580 C2579 1.400 . S
C2580 C2583 1.386 . S
H2581 C2597 0.930 . S
H2582 C2598 0.931 . S
C2583 H2571 0.929 . S
C2583 C2577 1.390 . S
C2583 C2580 1.386 . S
C2584 C2579 1.490 . S
C2584 C2586 1.395 . S
C2584 C2587 1.403 . S
H2585 C2591 0.930 . S
C2586 H2572 0.930 . S
C2586 C2584 1.395 . S
C2586 C2589 1.403 1_565 S
C2587 C2584 1.403 . S
C2587 C2588 1.524 . S
C2587 C2591 1.400 1_565 S
C2588 H2573 0.960 . S
C2588 H2574 0.960 . S
C2588 H2575 0.960 . S
C2588 C2587 1.524 . S
C2589 C2586 1.403 1_545 S
C2589 C2590 1.392 . S
C2589 C2593 1.495 . S
C2590 C2589 1.392 . S
C2590 C2591 1.385 . S
C2590 C2592 1.478 . S
C2591 H2585 0.930 . S
C2591 C2587 1.400 1_545 S
C2591 C2590 1.385 . S
C2592 C2590 1.478 . S
C2592 C2594 1.381 . S
C2592 C2598 1.383 . S
C2593 C2589 1.495 . S
C2593 H2599 0.959 . S
C2593 H2600 0.961 . S
C2593 H2601 0.960 . S
C2594 C2592 1.381 . S
C2594 C2595 1.394 . S
C2594 H2602 0.930 . S
C2595 C2594 1.394 . S
C2595 C2596 1.383 . S
C2595 H2603 0.929 . S
C2596 C2595 1.383 . S
C2596 C2597 1.377 . S
C2597 H2581 0.930 . S
C2597 C2596 1.377 . S
C2597 C2598 1.379 . S
C2598 H2582 0.931 . S
C2598 C2592 1.383 . S
C2598 C2597 1.379 . S
H2599 C2593 0.959 . S
H2600 C2593 0.961 . S
H2601 C2593 0.960 . S
H2602 C2594 0.930 . S
H2603 C2595 0.929 . S
H2604 C2612 0.929 . S
H2605 C2614 0.930 . S
H2606 C2616 0.930 . S
H2607 C2619 0.929 . S
H2608 C2622 0.930 . S
H2609 C2624 0.960 . S
H2610 C2624 0.960 . S
H2611 C2624 0.960 . S
C2612 H2604 0.929 . S
C2612 C2613 1.377 . S
C2612 C2614 1.384 . S
C2613 C2612 1.377 . S
C2613 C2619 1.390 . S
C2614 H2605 0.930 . S
C2614 C2612 1.384 . S
C2614 C2615 1.372 . S
C2615 C2614 1.372 . S
C2615 C2616 1.400 . S
C2615 C2620 1.490 . S
C2616 H2606 0.930 . S
C2616 C2615 1.400 . S
C2616 C2619 1.386 . S
H2617 C2633 0.930 . S
H2618 C2634 0.931 . S
C2619 H2607 0.929 . S
C2619 C2613 1.390 . S
C2619 C2616 1.386 . S
C2620 C2615 1.490 . S
C2620 C2622 1.395 . S
C2620 C2623 1.403 . S
H2621 C2627 0.930 . S
C2622 H2608 0.930 . S
C2622 C2620 1.395 . S
C2622 C2625 1.403 1_655 S
C2623 C2620 1.403 . S
C2623 C2624 1.524 . S
C2623 C2627 1.400 1_655 S
C2624 H2609 0.960 . S
C2624 H2610 0.960 . S
C2624 H2611 0.960 . S
C2624 C2623 1.524 . S
C2625 C2622 1.403 1_455 S
C2625 C2626 1.392 . S
C2625 C2629 1.495 . S
C2626 C2625 1.392 . S
C2626 C2627 1.385 . S
C2626 C2628 1.478 . S
C2627 H2621 0.930 . S
C2627 C2623 1.400 1_455 S
C2627 C2626 1.385 . S
C2628 C2626 1.478 . S
C2628 C2630 1.381 . S
C2628 C2634 1.383 . S
C2629 C2625 1.495 . S
C2629 H2635 0.959 . S
C2629 H2636 0.961 . S
C2629 H2637 0.960 . S
C2630 C2628 1.381 . S
C2630 C2631 1.394 . S
C2630 H2638 0.930 . S
C2631 C2630 1.394 . S
C2631 C2632 1.383 . S
C2631 H2639 0.929 . S
C2632 C2631 1.383 . S
C2632 C2633 1.377 . S
C2633 H2617 0.930 . S
C2633 C2632 1.377 . S
C2633 C2634 1.379 . S
C2634 H2618 0.931 . S
C2634 C2628 1.383 . S
C2634 C2633 1.379 . S
H2635 C2629 0.959 . S
H2636 C2629 0.961 . S
H2637 C2629 0.960 . S
H2638 C2630 0.930 . S
H2639 C2631 0.929 . S
H2640 C2648 0.929 . S
H2641 C2650 0.930 . S
H2642 C2652 0.930 . S
H2643 C2655 0.929 . S
H2644 C2658 0.930 . S
H2645 C2660 0.960 . S
H2646 C2660 0.960 . S
H2647 C2660 0.960 . S
C2648 H2640 0.929 . S
C2648 C2649 1.377 . S
C2648 C2650 1.384 . S
C2649 C2648 1.377 . S
C2649 C2655 1.390 . S
C2650 H2641 0.930 . S
C2650 C2648 1.384 . S
C2650 C2651 1.372 . S
C2651 C2650 1.372 . S
C2651 C2652 1.400 . S
C2651 C2656 1.490 . S
C2652 H2642 0.930 . S
C2652 C2651 1.400 . S
C2652 C2655 1.386 . S
H2653 C2669 0.930 . S
H2654 C2670 0.931 . S
C2655 H2643 0.929 . S
C2655 C2649 1.390 . S
C2655 C2652 1.386 . S
C2656 C2651 1.490 . S
C2656 C2658 1.395 . S
C2656 C2659 1.403 . S
H2657 C2663 0.930 . S
C2658 H2644 0.930 . S
C2658 C2656 1.395 . S
C2658 C2661 1.403 . S
C2659 C2656 1.403 . S
C2659 C2660 1.524 . S
C2659 C2663 1.400 . S
C2660 H2645 0.960 . S
C2660 H2646 0.960 . S
C2660 H2647 0.960 . S
C2660 C2659 1.524 . S
C2661 C2658 1.403 . S
C2661 C2662 1.392 . S
C2661 C2665 1.495 . S
C2662 C2661 1.392 . S
C2662 C2663 1.385 . S
C2662 C2664 1.478 . S
C2663 H2657 0.930 . S
C2663 C2659 1.400 . S
C2663 C2662 1.385 . S
C2664 C2662 1.478 . S
C2664 C2666 1.381 . S
C2664 C2670 1.383 . S
C2665 C2661 1.495 . S
C2665 H2671 0.959 . S
C2665 H2672 0.961 . S
C2665 H2673 0.960 . S
C2666 C2664 1.381 . S
C2666 C2667 1.394 . S
C2666 H2674 0.930 . S
C2667 C2666 1.394 . S
C2667 C2668 1.383 . S
C2667 H2675 0.929 . S
C2668 C2667 1.383 . S
C2668 C2669 1.377 . S
C2669 H2653 0.930 . S
C2669 C2668 1.377 . S
C2669 C2670 1.379 . S
C2670 H2654 0.931 . S
C2670 C2664 1.383 . S
C2670 C2669 1.379 . S
H2671 C2665 0.959 . S
H2672 C2665 0.961 . S
H2673 C2665 0.960 . S
H2674 C2666 0.930 . S
H2675 C2667 0.929 . S
H2676 C2684 0.929 . S
H2677 C2686 0.930 . S
H2678 C2688 0.930 . S
H2679 C2691 0.929 . S
H2680 C2694 0.930 . S
H2681 C2696 0.960 . S
H2682 C2696 0.960 . S
H2683 C2696 0.960 . S
C2684 H2676 0.929 . S
C2684 C2685 1.377 . S
C2684 C2686 1.384 . S
C2685 C2684 1.377 . S
C2685 C2691 1.390 . S
C2686 H2677 0.930 . S
C2686 C2684 1.384 . S
C2686 C2687 1.372 . S
C2687 C2686 1.372 . S
C2687 C2688 1.400 . S
C2687 C2692 1.490 . S
C2688 H2678 0.930 . S
C2688 C2687 1.400 . S
C2688 C2691 1.386 . S
H2689 C2705 0.930 . S
H2690 C2706 0.931 . S
C2691 H2679 0.929 . S
C2691 C2685 1.390 . S
C2691 C2688 1.386 . S
C2692 C2687 1.490 . S
C2692 C2694 1.395 . S
C2692 C2695 1.403 . S
H2693 C2699 0.930 . S
C2694 H2680 0.930 . S
C2694 C2692 1.395 . S
C2694 C2697 1.403 . S
C2695 C2692 1.403 . S
C2695 C2696 1.524 . S
C2695 C2699 1.400 . S
C2696 H2681 0.960 . S
C2696 H2682 0.960 . S
C2696 H2683 0.960 . S
C2696 C2695 1.524 . S
C2697 C2694 1.403 . S
C2697 C2698 1.392 . S
C2697 C2701 1.495 . S
C2698 C2697 1.392 . S
C2698 C2699 1.385 . S
C2698 C2700 1.478 . S
C2699 H2693 0.930 . S
C2699 C2695 1.400 . S
C2699 C2698 1.385 . S
C2700 C2698 1.478 . S
C2700 C2702 1.381 . S
C2700 C2706 1.383 . S
C2701 C2697 1.495 . S
C2701 H2707 0.959 . S
C2701 H2708 0.961 . S
C2701 H2709 0.960 . S
C2702 C2700 1.381 . S
C2702 C2703 1.394 . S
C2702 H2710 0.930 . S
C2703 C2702 1.394 . S
C2703 C2704 1.383 . S
C2703 H2711 0.929 . S
C2704 C2703 1.383 . S
C2704 C2705 1.377 . S
C2705 H2689 0.930 . S
C2705 C2704 1.377 . S
C2705 C2706 1.379 . S
C2706 H2690 0.931 . S
C2706 C2700 1.383 . S
C2706 C2705 1.379 . S
H2707 C2701 0.959 . S
H2708 C2701 0.961 . S
H2709 C2701 0.960 . S
H2710 C2702 0.930 . S
H2711 C2703 0.929 . S
H2712 C2720 0.929 . S
H2713 C2722 0.930 . S
H2714 C2724 0.930 . S
H2715 C2727 0.929 . S
H2716 C2730 0.930 . S
H2717 C2732 0.960 . S
H2718 C2732 0.960 . S
H2719 C2732 0.960 . S
C2720 H2712 0.929 . S
C2720 C2721 1.377 . S
C2720 C2722 1.384 . S
C2721 C2720 1.377 . S
C2721 C2727 1.390 . S
C2722 H2713 0.930 . S
C2722 C2720 1.384 . S
C2722 C2723 1.372 . S
C2723 C2722 1.372 . S
C2723 C2724 1.400 . S
C2723 C2728 1.490 . S
C2724 H2714 0.930 . S
C2724 C2723 1.400 . S
C2724 C2727 1.386 . S
H2725 C2741 0.930 . S
H2726 C2742 0.931 . S
C2727 H2715 0.929 . S
C2727 C2721 1.390 . S
C2727 C2724 1.386 . S
C2728 C2723 1.490 . S
C2728 C2730 1.395 . S
C2728 C2731 1.403 . S
H2729 C2735 0.930 . S
C2730 H2716 0.930 . S
C2730 C2728 1.395 . S
C2730 C2733 1.403 . S
C2731 C2728 1.403 . S
C2731 C2732 1.524 . S
C2731 C2735 1.400 . S
C2732 H2717 0.960 . S
C2732 H2718 0.960 . S
C2732 H2719 0.960 . S
C2732 C2731 1.524 . S
C2733 C2730 1.403 . S
C2733 C2734 1.392 . S
C2733 C2737 1.495 . S
C2734 C2733 1.392 . S
C2734 C2735 1.385 . S
C2734 C2736 1.478 . S
C2735 H2729 0.930 . S
C2735 C2731 1.400 . S
C2735 C2734 1.385 . S
C2736 C2734 1.478 . S
C2736 C2738 1.381 . S
C2736 C2742 1.383 . S
C2737 C2733 1.495 . S
C2737 H2743 0.959 . S
C2737 H2744 0.961 . S
C2737 H2745 0.960 . S
C2738 C2736 1.381 . S
C2738 C2739 1.394 . S
C2738 H2746 0.930 . S
C2739 C2738 1.394 . S
C2739 C2740 1.383 . S
C2739 H2747 0.929 . S
C2740 C2739 1.383 . S
C2740 C2741 1.377 . S
C2741 H2725 0.930 . S
C2741 C2740 1.377 . S
C2741 C2742 1.379 . S
C2742 H2726 0.931 . S
C2742 C2736 1.383 . S
C2742 C2741 1.379 . S
H2743 C2737 0.959 . S
H2744 C2737 0.961 . S
H2745 C2737 0.960 . S
H2746 C2738 0.930 . S
H2747 C2739 0.929 . S
H2748 C2756 0.929 . S
H2749 C2758 0.930 . S
H2750 C2760 0.930 . S
H2751 C2763 0.929 . S
H2752 C2766 0.930 . S
H2753 C2768 0.960 . S
H2754 C2768 0.960 . S
H2755 C2768 0.960 . S
C2756 H2748 0.929 . S
C2756 C2757 1.377 . S
C2756 C2758 1.384 . S
C2757 C2756 1.377 . S
C2757 C2763 1.390 . S
C2758 H2749 0.930 . S
C2758 C2756 1.384 . S
C2758 C2759 1.372 . S
C2759 C2758 1.372 . S
C2759 C2760 1.400 . S
C2759 C2764 1.490 . S
C2760 H2750 0.930 . S
C2760 C2759 1.400 . S
C2760 C2763 1.386 . S
H2761 C2777 0.930 . S
H2762 C2778 0.931 . S
C2763 H2751 0.929 . S
C2763 C2757 1.390 . S
C2763 C2760 1.386 . S
C2764 C2759 1.490 . S
C2764 C2766 1.395 . S
C2764 C2767 1.403 . S
H2765 C2771 0.930 . S
C2766 H2752 0.930 . S
C2766 C2764 1.395 . S
C2766 C2769 1.403 1_556 S
C2767 C2764 1.403 . S
C2767 C2768 1.524 . S
C2767 C2771 1.400 1_556 S
C2768 H2753 0.960 . S
C2768 H2754 0.960 . S
C2768 H2755 0.960 . S
C2768 C2767 1.524 . S
C2769 C2766 1.403 1_554 S
C2769 C2770 1.392 . S
C2769 C2773 1.495 . S
C2770 C2769 1.392 . S
C2770 C2771 1.385 . S
C2770 C2772 1.478 . S
C2771 H2765 0.930 . S
C2771 C2767 1.400 1_554 S
C2771 C2770 1.385 . S
C2772 C2770 1.478 . S
C2772 C2774 1.381 . S
C2772 C2778 1.383 . S
C2773 C2769 1.495 . S
C2773 H2779 0.959 . S
C2773 H2780 0.961 . S
C2773 H2781 0.960 . S
C2774 C2772 1.381 . S
C2774 C2775 1.394 . S
C2774 H2782 0.930 . S
C2775 C2774 1.394 . S
C2775 C2776 1.383 . S
C2775 H2783 0.929 . S
C2776 C2775 1.383 . S
C2776 C2777 1.377 . S
C2777 H2761 0.930 . S
C2777 C2776 1.377 . S
C2777 C2778 1.379 . S
C2778 H2762 0.931 . S
C2778 C2772 1.383 . S
C2778 C2777 1.379 . S
H2779 C2773 0.959 . S
H2780 C2773 0.961 . S
H2781 C2773 0.960 . S
H2782 C2774 0.930 . S
H2783 C2775 0.929 . S
H2784 C2792 0.929 . S
H2785 C2794 0.930 . S
H2786 C2796 0.930 . S
H2787 C2799 0.929 . S
H2788 C2802 0.930 . S
H2789 C2804 0.960 . S
H2790 C2804 0.960 . S
H2791 C2804 0.960 . S
C2792 H2784 0.929 . S
C2792 C2793 1.377 . S
C2792 C2794 1.384 . S
C2793 C2792 1.377 . S
C2793 C2799 1.390 . S
C2794 H2785 0.930 . S
C2794 C2792 1.384 . S
C2794 C2795 1.372 . S
C2795 C2794 1.372 . S
C2795 C2796 1.400 . S
C2795 C2800 1.490 . S
C2796 H2786 0.930 . S
C2796 C2795 1.400 . S
C2796 C2799 1.386 . S
H2797 C2813 0.930 . S
H2798 C2814 0.931 . S
C2799 H2787 0.929 . S
C2799 C2793 1.390 . S
C2799 C2796 1.386 . S
C2800 C2795 1.490 . S
C2800 C2802 1.395 . S
C2800 C2803 1.403 . S
H2801 C2807 0.930 . S
C2802 H2788 0.930 . S
C2802 C2800 1.395 . S
C2802 C2805 1.403 . S
C2803 C2800 1.403 . S
C2803 C2804 1.524 . S
C2803 C2807 1.400 . S
C2804 H2789 0.960 . S
C2804 H2790 0.960 . S
C2804 H2791 0.960 . S
C2804 C2803 1.524 . S
C2805 C2802 1.403 . S
C2805 C2806 1.392 . S
C2805 C2809 1.495 . S
C2806 C2805 1.392 . S
C2806 C2807 1.385 . S
C2806 C2808 1.478 . S
C2807 H2801 0.930 . S
C2807 C2803 1.400 . S
C2807 C2806 1.385 . S
C2808 C2806 1.478 . S
C2808 C2810 1.381 . S
C2808 C2814 1.383 . S
C2809 C2805 1.495 . S
C2809 H2815 0.959 . S
C2809 H2816 0.961 . S
C2809 H2817 0.960 . S
C2810 C2808 1.381 . S
C2810 C2811 1.394 . S
C2810 H2818 0.930 . S
C2811 C2810 1.394 . S
C2811 C2812 1.383 . S
C2811 H2819 0.929 . S
C2812 C2811 1.383 . S
C2812 C2813 1.377 . S
C2813 H2797 0.930 . S
C2813 C2812 1.377 . S
C2813 C2814 1.379 . S
C2814 H2798 0.931 . S
C2814 C2808 1.383 . S
C2814 C2813 1.379 . S
H2815 C2809 0.959 . S
H2816 C2809 0.961 . S
H2817 C2809 0.960 . S
H2818 C2810 0.930 . S
H2819 C2811 0.929 . S
H2820 C2828 0.929 . S
H2821 C2830 0.930 . S
H2822 C2832 0.930 . S
H2823 C2835 0.929 . S
H2824 C2838 0.930 . S
H2825 C2840 0.960 . S
H2826 C2840 0.960 . S
H2827 C2840 0.960 . S
C2828 H2820 0.929 . S
C2828 C2829 1.377 . S
C2828 C2830 1.384 . S
C2829 C2828 1.377 . S
C2829 C2835 1.390 . S
C2830 H2821 0.930 . S
C2830 C2828 1.384 . S
C2830 C2831 1.372 . S
C2831 C2830 1.372 . S
C2831 C2832 1.400 . S
C2831 C2836 1.490 . S
C2832 H2822 0.930 . S
C2832 C2831 1.400 . S
C2832 C2835 1.386 . S
H2833 C2849 0.930 . S
H2834 C2850 0.931 . S
C2835 H2823 0.929 . S
C2835 C2829 1.390 . S
C2835 C2832 1.386 . S
C2836 C2831 1.490 . S
C2836 C2838 1.395 . S
C2836 C2839 1.403 . S
H2837 C2843 0.930 . S
C2838 H2824 0.930 . S
C2838 C2836 1.395 . S
C2838 C2841 1.403 1_556 S
C2839 C2836 1.403 . S
C2839 C2840 1.524 . S
C2839 C2843 1.400 1_556 S
C2840 H2825 0.960 . S
C2840 H2826 0.960 . S
C2840 H2827 0.960 . S
C2840 C2839 1.524 . S
C2841 C2838 1.403 1_554 S
C2841 C2842 1.392 . S
C2841 C2845 1.495 . S
C2842 C2841 1.392 . S
C2842 C2843 1.385 . S
C2842 C2844 1.478 . S
C2843 H2837 0.930 . S
C2843 C2839 1.400 1_554 S
C2843 C2842 1.385 . S
C2844 C2842 1.478 . S
C2844 C2846 1.381 . S
C2844 C2850 1.383 . S
C2845 C2841 1.495 . S
C2845 H2851 0.959 . S
C2845 H2852 0.961 . S
C2845 H2853 0.960 . S
C2846 C2844 1.381 . S
C2846 C2847 1.394 . S
C2846 H2854 0.930 . S
C2847 C2846 1.394 . S
C2847 C2848 1.383 . S
C2847 H2855 0.929 . S
C2848 C2847 1.383 . S
C2848 C2849 1.377 . S
C2849 H2833 0.930 . S
C2849 C2848 1.377 . S
C2849 C2850 1.379 . S
C2850 H2834 0.931 . S
C2850 C2844 1.383 . S
C2850 C2849 1.379 . S
H2851 C2845 0.959 . S
H2852 C2845 0.961 . S
H2853 C2845 0.960 . S
H2854 C2846 0.930 . S
H2855 C2847 0.929 . S
H2856 C2864 0.929 . S
H2857 C2866 0.930 . S
H2858 C2868 0.930 . S
H2859 C2871 0.929 . S
H2860 C2874 0.930 . S
H2861 C2876 0.960 . S
H2862 C2876 0.960 . S
H2863 C2876 0.960 . S
C2864 H2856 0.929 . S
C2864 C2865 1.377 . S
C2864 C2866 1.384 . S
C2865 C2864 1.377 . S
C2865 C2871 1.390 . S
C2866 H2857 0.930 . S
C2866 C2864 1.384 . S
C2866 C2867 1.372 . S
C2867 C2866 1.372 . S
C2867 C2868 1.400 . S
C2867 C2872 1.490 . S
C2868 H2858 0.930 . S
C2868 C2867 1.400 . S
C2868 C2871 1.386 . S
H2869 C2885 0.930 . S
H2870 C2886 0.931 . S
C2871 H2859 0.929 . S
C2871 C2865 1.390 . S
C2871 C2868 1.386 . S
C2872 C2867 1.490 . S
C2872 C2874 1.395 . S
C2872 C2875 1.403 . S
H2873 C2879 0.930 . S
C2874 H2860 0.930 . S
C2874 C2872 1.395 . S
C2874 C2877 1.403 . S
C2875 C2872 1.403 . S
C2875 C2876 1.524 . S
C2875 C2879 1.400 . S
C2876 H2861 0.960 . S
C2876 H2862 0.960 . S
C2876 H2863 0.960 . S
C2876 C2875 1.524 . S
C2877 C2874 1.403 . S
C2877 C2878 1.392 . S
C2877 C2881 1.495 . S
C2878 C2877 1.392 . S
C2878 C2879 1.385 . S
C2878 C2880 1.478 . S
C2879 H2873 0.930 . S
C2879 C2875 1.400 . S
C2879 C2878 1.385 . S
C2880 C2878 1.478 . S
C2880 C2882 1.381 . S
C2880 C2886 1.383 . S
C2881 C2877 1.495 . S
C2881 H2887 0.959 . S
C2881 H2888 0.961 . S
C2881 H2889 0.960 . S
C2882 C2880 1.381 . S
C2882 C2883 1.394 . S
C2882 H2890 0.930 . S
C2883 C2882 1.394 . S
C2883 C2884 1.383 . S
C2883 H2891 0.929 . S
C2884 C2883 1.383 . S
C2884 C2885 1.377 . S
C2885 H2869 0.930 . S
C2885 C2884 1.377 . S
C2885 C2886 1.379 . S
C2886 H2870 0.931 . S
C2886 C2880 1.383 . S
C2886 C2885 1.379 . S
H2887 C2881 0.959 . S
H2888 C2881 0.961 . S
H2889 C2881 0.960 . S
H2890 C2882 0.930 . S
H2891 C2883 0.929 . S
H2892 C2900 0.929 . S
H2893 C2902 0.930 . S
H2894 C2904 0.930 . S
H2895 C2907 0.929 . S
H2896 C2910 0.930 . S
H2897 C2912 0.960 . S
H2898 C2912 0.960 . S
H2899 C2912 0.960 . S
C2900 H2892 0.929 . S
C2900 C2901 1.377 . S
C2900 C2902 1.384 . S
C2901 C2900 1.377 . S
C2901 C2907 1.390 . S
C2902 H2893 0.930 . S
C2902 C2900 1.384 . S
C2902 C2903 1.372 . S
C2903 C2902 1.372 . S
C2903 C2904 1.400 . S
C2903 C2908 1.490 . S
C2904 H2894 0.930 . S
C2904 C2903 1.400 . S
C2904 C2907 1.386 . S
H2905 C2921 0.930 . S
H2906 C2922 0.931 . S
C2907 H2895 0.929 . S
C2907 C2901 1.390 . S
C2907 C2904 1.386 . S
C2908 C2903 1.490 . S
C2908 C2910 1.395 . S
C2908 C2911 1.403 . S
H2909 C2915 0.930 . S
C2910 H2896 0.930 . S
C2910 C2908 1.395 . S
C2910 C2913 1.403 . S
C2911 C2908 1.403 . S
C2911 C2912 1.524 . S
C2911 C2915 1.400 . S
C2912 H2897 0.960 . S
C2912 H2898 0.960 . S
C2912 H2899 0.960 . S
C2912 C2911 1.524 . S
C2913 C2910 1.403 . S
C2913 C2914 1.392 . S
C2913 C2917 1.495 . S
C2914 C2913 1.392 . S
C2914 C2915 1.385 . S
C2914 C2916 1.478 . S
C2915 H2909 0.930 . S
C2915 C2911 1.400 . S
C2915 C2914 1.385 . S
C2916 C2914 1.478 . S
C2916 C2918 1.381 . S
C2916 C2922 1.383 . S
C2917 C2913 1.495 . S
C2917 H2923 0.959 . S
C2917 H2924 0.961 . S
C2917 H2925 0.960 . S
C2918 C2916 1.381 . S
C2918 C2919 1.394 . S
C2918 H2926 0.930 . S
C2919 C2918 1.394 . S
C2919 C2920 1.383 . S
C2919 H2927 0.929 . S
C2920 C2919 1.383 . S
C2920 C2921 1.377 . S
C2921 H2905 0.930 . S
C2921 C2920 1.377 . S
C2921 C2922 1.379 . S
C2922 H2906 0.931 . S
C2922 C2916 1.383 . S
C2922 C2921 1.379 . S
H2923 C2917 0.959 . S
H2924 C2917 0.961 . S
H2925 C2917 0.960 . S
H2926 C2918 0.930 . S
H2927 C2919 0.929 . S
H2928 C2936 0.929 . S
H2929 C2938 0.930 . S
H2930 C2940 0.930 . S
H2931 C2943 0.929 . S
H2932 C2946 0.930 . S
H2933 C2948 0.960 . S
H2934 C2948 0.960 . S
H2935 C2948 0.960 . S
C2936 H2928 0.929 . S
C2936 C2937 1.377 . S
C2936 C2938 1.384 . S
C2937 C2936 1.377 . S
C2937 C2943 1.390 . S
C2938 H2929 0.930 . S
C2938 C2936 1.384 . S
C2938 C2939 1.372 . S
C2939 C2938 1.372 . S
C2939 C2940 1.400 . S
C2939 C2944 1.490 . S
C2940 H2930 0.930 . S
C2940 C2939 1.400 . S
C2940 C2943 1.386 . S
H2941 C2957 0.930 . S
H2942 C2958 0.931 . S
C2943 H2931 0.929 . S
C2943 C2937 1.390 . S
C2943 C2940 1.386 . S
C2944 C2939 1.490 . S
C2944 C2946 1.395 . S
C2944 C2947 1.403 . S
H2945 C2951 0.930 . S
C2946 H2932 0.930 . S
C2946 C2944 1.395 . S
C2946 C2949 1.403 . S
C2947 C2944 1.403 . S
C2947 C2948 1.524 . S
C2947 C2951 1.400 . S
C2948 H2933 0.960 . S
C2948 H2934 0.960 . S
C2948 H2935 0.960 . S
C2948 C2947 1.524 . S
C2949 C2946 1.403 . S
C2949 C2950 1.392 . S
C2949 C2953 1.495 . S
C2950 C2949 1.392 . S
C2950 C2951 1.385 . S
C2950 C2952 1.478 . S
C2951 H2945 0.930 . S
C2951 C2947 1.400 . S
C2951 C2950 1.385 . S
C2952 C2950 1.478 . S
C2952 C2954 1.381 . S
C2952 C2958 1.383 . S
C2953 C2949 1.495 . S
C2953 H2959 0.959 . S
C2953 H2960 0.961 . S
C2953 H2961 0.960 . S
C2954 C2952 1.381 . S
C2954 C2955 1.394 . S
C2954 H2962 0.930 . S
C2955 C2954 1.394 . S
C2955 C2956 1.383 . S
C2955 H2963 0.929 . S
C2956 C2955 1.383 . S
C2956 C2957 1.377 . S
C2957 H2941 0.930 . S
C2957 C2956 1.377 . S
C2957 C2958 1.379 . S
C2958 H2942 0.931 . S
C2958 C2952 1.383 . S
C2958 C2957 1.379 . S
H2959 C2953 0.959 . S
H2960 C2953 0.961 . S
H2961 C2953 0.960 . S
H2962 C2954 0.930 . S
H2963 C2955 0.929 . S
H2964 C2972 0.929 . S
H2965 C2974 0.930 . S
H2966 C2976 0.930 . S
H2967 C2979 0.929 . S
H2968 C2982 0.930 . S
H2969 C2984 0.960 . S
H2970 C2984 0.960 . S
H2971 C2984 0.960 . S
C2972 H2964 0.929 . S
C2972 C2973 1.377 . S
C2972 C2974 1.384 . S
C2973 C2972 1.377 . S
C2973 C2979 1.390 . S
C2974 H2965 0.930 . S
C2974 C2972 1.384 . S
C2974 C2975 1.372 . S
C2975 C2974 1.372 . S
C2975 C2976 1.400 . S
C2975 C2980 1.490 . S
C2976 H2966 0.930 . S
C2976 C2975 1.400 . S
C2976 C2979 1.386 . S
H2977 C2993 0.930 . S
H2978 C2994 0.931 . S
C2979 H2967 0.929 . S
C2979 C2973 1.390 . S
C2979 C2976 1.386 . S
C2980 C2975 1.490 . S
C2980 C2982 1.395 . S
C2980 C2983 1.403 . S
H2981 C2987 0.930 . S
C2982 H2968 0.930 . S
C2982 C2980 1.395 . S
C2982 C2985 1.403 . S
C2983 C2980 1.403 . S
C2983 C2984 1.524 . S
C2983 C2987 1.400 . S
C2984 H2969 0.960 . S
C2984 H2970 0.960 . S
C2984 H2971 0.960 . S
C2984 C2983 1.524 . S
C2985 C2982 1.403 . S
C2985 C2986 1.392 . S
C2985 C2989 1.495 . S
C2986 C2985 1.392 . S
C2986 C2987 1.385 . S
C2986 C2988 1.478 . S
C2987 H2981 0.930 . S
C2987 C2983 1.400 . S
C2987 C2986 1.385 . S
C2988 C2986 1.478 . S
C2988 C2990 1.381 . S
C2988 C2994 1.383 . S
C2989 C2985 1.495 . S
C2989 H2995 0.959 . S
C2989 H2996 0.961 . S
C2989 H2997 0.960 . S
C2990 C2988 1.381 . S
C2990 C2991 1.394 . S
C2990 H2998 0.930 . S
C2991 C2990 1.394 . S
C2991 C2992 1.383 . S
C2991 H2999 0.929 . S
C2992 C2991 1.383 . S
C2992 C2993 1.377 . S
C2993 H2977 0.930 . S
C2993 C2992 1.377 . S
C2993 C2994 1.379 . S
C2994 H2978 0.931 . S
C2994 C2988 1.383 . S
C2994 C2993 1.379 . S
H2995 C2989 0.959 . S
H2996 C2989 0.961 . S
H2997 C2989 0.960 . S
H2998 C2990 0.930 . S
H2999 C2991 0.929 . S
H3000 C3008 0.929 . S
H3001 C3010 0.930 . S
H3002 C3012 0.930 . S
H3003 C3015 0.929 . S
H3004 C3018 0.930 . S
H3005 C3020 0.960 . S
H3006 C3020 0.960 . S
H3007 C3020 0.960 . S
C3008 H3000 0.929 . S
C3008 C3009 1.377 . S
C3008 C3010 1.384 . S
C3009 C3008 1.377 . S
C3009 C3015 1.390 . S
C3010 H3001 0.930 . S
C3010 C3008 1.384 . S
C3010 C3011 1.372 . S
C3011 C3010 1.372 . S
C3011 C3012 1.400 . S
C3011 C3016 1.490 . S
C3012 H3002 0.930 . S
C3012 C3011 1.400 . S
C3012 C3015 1.386 . S
H3013 C3029 0.930 . S
H3014 C3030 0.931 . S
C3015 H3003 0.929 . S
C3015 C3009 1.390 . S
C3015 C3012 1.386 . S
C3016 C3011 1.490 . S
C3016 C3018 1.395 . S
C3016 C3019 1.403 . S
H3017 C3023 0.930 . S
C3018 H3004 0.930 . S
C3018 C3016 1.395 . S
C3018 C3021 1.403 . S
C3019 C3016 1.403 . S
C3019 C3020 1.524 . S
C3019 C3023 1.400 . S
C3020 H3005 0.960 . S
C3020 H3006 0.960 . S
C3020 H3007 0.960 . S
C3020 C3019 1.524 . S
C3021 C3018 1.403 . S
C3021 C3022 1.392 . S
C3021 C3025 1.495 . S
C3022 C3021 1.392 . S
C3022 C3023 1.385 . S
C3022 C3024 1.478 . S
C3023 H3017 0.930 . S
C3023 C3019 1.400 . S
C3023 C3022 1.385 . S
C3024 C3022 1.478 . S
C3024 C3026 1.381 . S
C3024 C3030 1.383 . S
C3025 C3021 1.495 . S
C3025 H3031 0.959 . S
C3025 H3032 0.961 . S
C3025 H3033 0.960 . S
C3026 C3024 1.381 . S
C3026 C3027 1.394 . S
C3026 H3034 0.930 . S
C3027 C3026 1.394 . S
C3027 C3028 1.383 . S
C3027 H3035 0.929 . S
C3028 C3027 1.383 . S
C3028 C3029 1.377 . S
C3029 H3013 0.930 . S
C3029 C3028 1.377 . S
C3029 C3030 1.379 . S
C3030 H3014 0.931 . S
C3030 C3024 1.383 . S
C3030 C3029 1.379 . S
H3031 C3025 0.959 . S
H3032 C3025 0.961 . S
H3033 C3025 0.960 . S
H3034 C3026 0.930 . S
H3035 C3027 0.929 . S
H3036 C3044 0.929 . S
H3037 C3046 0.930 . S
H3038 C3048 0.930 . S
H3039 C3051 0.929 . S
H3040 C3054 0.930 . S
H3041 C3056 0.960 . S
H3042 C3056 0.960 . S
H3043 C3056 0.960 . S
C3044 H3036 0.929 . S
C3044 C3045 1.377 . S
C3044 C3046 1.384 . S
C3045 C3044 1.377 . S
C3045 C3051 1.390 . S
C3046 H3037 0.930 . S
C3046 C3044 1.384 . S
C3046 C3047 1.372 . S
C3047 C3046 1.372 . S
C3047 C3048 1.400 . S
C3047 C3052 1.490 . S
C3048 H3038 0.930 . S
C3048 C3047 1.400 . S
C3048 C3051 1.386 . S
H3049 C3065 0.930 . S
H3050 C3066 0.931 . S
C3051 H3039 0.929 . S
C3051 C3045 1.390 . S
C3051 C3048 1.386 . S
C3052 C3047 1.490 . S
C3052 C3054 1.395 . S
C3052 C3055 1.403 . S
H3053 C3059 0.930 . S
C3054 H3040 0.930 . S
C3054 C3052 1.395 . S
C3054 C3057 1.403 . S
C3055 C3052 1.403 . S
C3055 C3056 1.524 . S
C3055 C3059 1.400 . S
C3056 H3041 0.960 . S
C3056 H3042 0.960 . S
C3056 H3043 0.960 . S
C3056 C3055 1.524 . S
C3057 C3054 1.403 . S
C3057 C3058 1.392 . S
C3057 C3061 1.495 . S
C3058 C3057 1.392 . S
C3058 C3059 1.385 . S
C3058 C3060 1.478 . S
C3059 H3053 0.930 . S
C3059 C3055 1.400 . S
C3059 C3058 1.385 . S
C3060 C3058 1.478 . S
C3060 C3062 1.381 . S
C3060 C3066 1.383 . S
C3061 C3057 1.495 . S
C3061 H3067 0.959 . S
C3061 H3068 0.961 . S
C3061 H3069 0.960 . S
C3062 C3060 1.381 . S
C3062 C3063 1.394 . S
C3062 H3070 0.930 . S
C3063 C3062 1.394 . S
C3063 C3064 1.383 . S
C3063 H3071 0.929 . S
C3064 C3063 1.383 . S
C3064 C3065 1.377 . S
C3065 H3049 0.930 . S
C3065 C3064 1.377 . S
C3065 C3066 1.379 . S
C3066 H3050 0.931 . S
C3066 C3060 1.383 . S
C3066 C3065 1.379 . S
H3067 C3061 0.959 . S
H3068 C3061 0.961 . S
H3069 C3061 0.960 . S
H3070 C3062 0.930 . S
H3071 C3063 0.929 . S
H3072 C3080 0.929 . S
H3073 C3082 0.930 . S
H3074 C3084 0.930 . S
H3075 C3087 0.929 . S
H3076 C3090 0.930 . S
H3077 C3092 0.960 . S
H3078 C3092 0.960 . S
H3079 C3092 0.960 . S
C3080 H3072 0.929 . S
C3080 C3081 1.377 . S
C3080 C3082 1.384 . S
C3081 C3080 1.377 . S
C3081 C3087 1.390 . S
C3082 H3073 0.930 . S
C3082 C3080 1.384 . S
C3082 C3083 1.372 . S
C3083 C3082 1.372 . S
C3083 C3084 1.400 . S
C3083 C3088 1.490 . S
C3084 H3074 0.930 . S
C3084 C3083 1.400 . S
C3084 C3087 1.386 . S
H3085 C3101 0.930 . S
H3086 C3102 0.931 . S
C3087 H3075 0.929 . S
C3087 C3081 1.390 . S
C3087 C3084 1.386 . S
C3088 C3083 1.490 . S
C3088 C3090 1.395 . S
C3088 C3091 1.403 . S
H3089 C3095 0.930 . S
C3090 H3076 0.930 . S
C3090 C3088 1.395 . S
C3090 C3093 1.403 . S
C3091 C3088 1.403 . S
C3091 C3092 1.524 . S
C3091 C3095 1.400 . S
C3092 H3077 0.960 . S
C3092 H3078 0.960 . S
C3092 H3079 0.960 . S
C3092 C3091 1.524 . S
C3093 C3090 1.403 . S
C3093 C3094 1.392 . S
C3093 C3097 1.495 . S
C3094 C3093 1.392 . S
C3094 C3095 1.385 . S
C3094 C3096 1.478 . S
C3095 H3089 0.930 . S
C3095 C3091 1.400 . S
C3095 C3094 1.385 . S
C3096 C3094 1.478 . S
C3096 C3098 1.381 . S
C3096 C3102 1.383 . S
C3097 C3093 1.495 . S
C3097 H3103 0.959 . S
C3097 H3104 0.961 . S
C3097 H3105 0.960 . S
C3098 C3096 1.381 . S
C3098 C3099 1.394 . S
C3098 H3106 0.930 . S
C3099 C3098 1.394 . S
C3099 C3100 1.383 . S
C3099 H3107 0.929 . S
C3100 C3099 1.383 . S
C3100 C3101 1.377 . S
C3101 H3085 0.930 . S
C3101 C3100 1.377 . S
C3101 C3102 1.379 . S
C3102 H3086 0.931 . S
C3102 C3096 1.383 . S
C3102 C3101 1.379 . S
H3103 C3097 0.959 . S
H3104 C3097 0.961 . S
H3105 C3097 0.960 . S
H3106 C3098 0.930 . S
H3107 C3099 0.929 . S
H3108 C3116 0.929 . S
H3109 C3118 0.930 . S
H3110 C3120 0.930 . S
H3111 C3123 0.929 . S
H3112 C3126 0.930 . S
H3113 C3128 0.960 . S
H3114 C3128 0.960 . S
H3115 C3128 0.960 . S
C3116 H3108 0.929 . S
C3116 C3117 1.377 . S
C3116 C3118 1.384 . S
C3117 C3116 1.377 . S
C3117 C3123 1.390 . S
C3118 H3109 0.930 . S
C3118 C3116 1.384 . S
C3118 C3119 1.372 . S
C3119 C3118 1.372 . S
C3119 C3120 1.400 . S
C3119 C3124 1.490 . S
C3120 H3110 0.930 . S
C3120 C3119 1.400 . S
C3120 C3123 1.386 . S
H3121 C3137 0.930 . S
H3122 C3138 0.931 . S
C3123 H3111 0.929 . S
C3123 C3117 1.390 . S
C3123 C3120 1.386 . S
C3124 C3119 1.490 . S
C3124 C3126 1.395 . S
C3124 C3127 1.403 . S
H3125 C3131 0.930 . S
C3126 H3112 0.930 . S
C3126 C3124 1.395 . S
C3126 C3129 1.403 . S
C3127 C3124 1.403 . S
C3127 C3128 1.524 . S
C3127 C3131 1.400 . S
C3128 H3113 0.960 . S
C3128 H3114 0.960 . S
C3128 H3115 0.960 . S
C3128 C3127 1.524 . S
C3129 C3126 1.403 . S
C3129 C3130 1.392 . S
C3129 C3133 1.495 . S
C3130 C3129 1.392 . S
C3130 C3131 1.385 . S
C3130 C3132 1.478 . S
C3131 H3125 0.930 . S
C3131 C3127 1.400 . S
C3131 C3130 1.385 . S
C3132 C3130 1.478 . S
C3132 C3134 1.381 . S
C3132 C3138 1.383 . S
C3133 C3129 1.495 . S
C3133 H3139 0.959 . S
C3133 H3140 0.961 . S
C3133 H3141 0.960 . S
C3134 C3132 1.381 . S
C3134 C3135 1.394 . S
C3134 H3142 0.930 . S
C3135 C3134 1.394 . S
C3135 C3136 1.383 . S
C3135 H3143 0.929 . S
C3136 C3135 1.383 . S
C3136 C3137 1.377 . S
C3137 H3121 0.930 . S
C3137 C3136 1.377 . S
C3137 C3138 1.379 . S
C3138 H3122 0.931 . S
C3138 C3132 1.383 . S
C3138 C3137 1.379 . S
H3139 C3133 0.959 . S
H3140 C3133 0.961 . S
H3141 C3133 0.960 . S
H3142 C3134 0.930 . S
H3143 C3135 0.929 . S
H3144 C3152 0.929 . S
H3145 C3154 0.930 . S
H3146 C3156 0.930 . S
H3147 C3159 0.929 . S
H3148 C3162 0.930 . S
H3149 C3164 0.960 . S
H3150 C3164 0.960 . S
H3151 C3164 0.960 . S
C3152 H3144 0.929 . S
C3152 C3153 1.377 . S
C3152 C3154 1.384 . S
C3153 C3152 1.377 . S
C3153 C3159 1.390 . S
C3154 H3145 0.930 . S
C3154 C3152 1.384 . S
C3154 C3155 1.372 . S
C3155 C3154 1.372 . S
C3155 C3156 1.400 . S
C3155 C3160 1.490 . S
C3156 H3146 0.930 . S
C3156 C3155 1.400 . S
C3156 C3159 1.386 . S
H3157 C3173 0.930 . S
H3158 C3174 0.931 . S
C3159 H3147 0.929 . S
C3159 C3153 1.390 . S
C3159 C3156 1.386 . S
C3160 C3155 1.490 . S
C3160 C3162 1.395 . S
C3160 C3163 1.403 . S
H3161 C3167 0.930 . S
C3162 H3148 0.930 . S
C3162 C3160 1.395 . S
C3162 C3165 1.403 . S
C3163 C3160 1.403 . S
C3163 C3164 1.524 . S
C3163 C3167 1.400 . S
C3164 H3149 0.960 . S
C3164 H3150 0.960 . S
C3164 H3151 0.960 . S
C3164 C3163 1.524 . S
C3165 C3162 1.403 . S
C3165 C3166 1.392 . S
C3165 C3169 1.495 . S
C3166 C3165 1.392 . S
C3166 C3167 1.385 . S
C3166 C3168 1.478 . S
C3167 H3161 0.930 . S
C3167 C3163 1.400 . S
C3167 C3166 1.385 . S
C3168 C3166 1.478 . S
C3168 C3170 1.381 . S
C3168 C3174 1.383 . S
C3169 C3165 1.495 . S
C3169 H3175 0.959 . S
C3169 H3176 0.961 . S
C3169 H3177 0.960 . S
C3170 C3168 1.381 . S
C3170 C3171 1.394 . S
C3170 H3178 0.930 . S
C3171 C3170 1.394 . S
C3171 C3172 1.383 . S
C3171 H3179 0.929 . S
C3172 C3171 1.383 . S
C3172 C3173 1.377 . S
C3173 H3157 0.930 . S
C3173 C3172 1.377 . S
C3173 C3174 1.379 . S
C3174 H3158 0.931 . S
C3174 C3168 1.383 . S
C3174 C3173 1.379 . S
H3175 C3169 0.959 . S
H3176 C3169 0.961 . S
H3177 C3169 0.960 . S
H3178 C3170 0.930 . S
H3179 C3171 0.929 . S
H3180 C3188 0.929 . S
H3181 C3190 0.930 . S
H3182 C3192 0.930 . S
H3183 C3195 0.929 . S
H3184 C3198 0.930 . S
H3185 C3200 0.960 . S
H3186 C3200 0.960 . S
H3187 C3200 0.960 . S
C3188 H3180 0.929 . S
C3188 C3189 1.377 . S
C3188 C3190 1.384 . S
C3189 C3188 1.377 . S
C3189 C3195 1.390 . S
C3190 H3181 0.930 . S
C3190 C3188 1.384 . S
C3190 C3191 1.372 . S
C3191 C3190 1.372 . S
C3191 C3192 1.400 . S
C3191 C3196 1.490 . S
C3192 H3182 0.930 . S
C3192 C3191 1.400 . S
C3192 C3195 1.386 . S
H3193 C3209 0.930 . S
H3194 C3210 0.931 . S
C3195 H3183 0.929 . S
C3195 C3189 1.390 . S
C3195 C3192 1.386 . S
C3196 C3191 1.490 . S
C3196 C3198 1.395 . S
C3196 C3199 1.403 . S
H3197 C3203 0.930 . S
C3198 H3184 0.930 . S
C3198 C3196 1.395 . S
C3198 C3201 1.403 . S
C3199 C3196 1.403 . S
C3199 C3200 1.524 . S
C3199 C3203 1.400 . S
C3200 H3185 0.960 . S
C3200 H3186 0.960 . S
C3200 H3187 0.960 . S
C3200 C3199 1.524 . S
C3201 C3198 1.403 . S
C3201 C3202 1.392 . S
C3201 C3205 1.495 . S
C3202 C3201 1.392 . S
C3202 C3203 1.385 . S
C3202 C3204 1.478 . S
C3203 H3197 0.930 . S
C3203 C3199 1.400 . S
C3203 C3202 1.385 . S
C3204 C3202 1.478 . S
C3204 C3206 1.381 . S
C3204 C3210 1.383 . S
C3205 C3201 1.495 . S
C3205 H3211 0.959 . S
C3205 H3212 0.961 . S
C3205 H3213 0.960 . S
C3206 C3204 1.381 . S
C3206 C3207 1.394 . S
C3206 H3214 0.930 . S
C3207 C3206 1.394 . S
C3207 C3208 1.383 . S
C3207 H3215 0.929 . S
C3208 C3207 1.383 . S
C3208 C3209 1.377 . S
C3209 H3193 0.930 . S
C3209 C3208 1.377 . S
C3209 C3210 1.379 . S
C3210 H3194 0.931 . S
C3210 C3204 1.383 . S
C3210 C3209 1.379 . S
H3211 C3205 0.959 . S
H3212 C3205 0.961 . S
H3213 C3205 0.960 . S
H3214 C3206 0.930 . S
H3215 C3207 0.929 . S
H3216 C3224 0.929 . S
H3217 C3226 0.930 . S
H3218 C3228 0.930 . S
H3219 C3231 0.929 . S
H3220 C3234 0.930 . S
H3221 C3236 0.960 . S
H3222 C3236 0.960 . S
H3223 C3236 0.960 . S
C3224 H3216 0.929 . S
C3224 C3225 1.377 . S
C3224 C3226 1.384 . S
C3225 C3224 1.377 . S
C3225 C3231 1.390 . S
C3226 H3217 0.930 . S
C3226 C3224 1.384 . S
C3226 C3227 1.372 . S
C3227 C3226 1.372 . S
C3227 C3228 1.400 . S
C3227 C3232 1.490 . S
C3228 H3218 0.930 . S
C3228 C3227 1.400 . S
C3228 C3231 1.386 . S
H3229 C3245 0.930 . S
H3230 C3246 0.931 . S
C3231 H3219 0.929 . S
C3231 C3225 1.390 . S
C3231 C3228 1.386 . S
C3232 C3227 1.490 . S
C3232 C3234 1.395 . S
C3232 C3235 1.403 . S
H3233 C3239 0.930 . S
C3234 H3220 0.930 . S
C3234 C3232 1.395 . S
C3234 C3237 1.403 . S
C3235 C3232 1.403 . S
C3235 C3236 1.524 . S
C3235 C3239 1.400 . S
C3236 H3221 0.960 . S
C3236 H3222 0.960 . S
C3236 H3223 0.960 . S
C3236 C3235 1.524 . S
C3237 C3234 1.403 . S
C3237 C3238 1.392 . S
C3237 C3241 1.495 . S
C3238 C3237 1.392 . S
C3238 C3239 1.385 . S
C3238 C3240 1.478 . S
C3239 H3233 0.930 . S
C3239 C3235 1.400 . S
C3239 C3238 1.385 . S
C3240 C3238 1.478 . S
C3240 C3242 1.381 . S
C3240 C3246 1.383 . S
C3241 C3237 1.495 . S
C3241 H3247 0.959 . S
C3241 H3248 0.961 . S
C3241 H3249 0.960 . S
C3242 C3240 1.381 . S
C3242 C3243 1.394 . S
C3242 H3250 0.930 . S
C3243 C3242 1.394 . S
C3243 C3244 1.383 . S
C3243 H3251 0.929 . S
C3244 C3243 1.383 . S
C3244 C3245 1.377 . S
C3245 H3229 0.930 . S
C3245 C3244 1.377 . S
C3245 C3246 1.379 . S
C3246 H3230 0.931 . S
C3246 C3240 1.383 . S
C3246 C3245 1.379 . S
H3247 C3241 0.959 . S
H3248 C3241 0.961 . S
H3249 C3241 0.960 . S
H3250 C3242 0.930 . S
H3251 C3243 0.929 . S
H3252 C3260 0.929 . S
H3253 C3262 0.930 . S
H3254 C3264 0.930 . S
H3255 C3267 0.929 . S
H3256 C3270 0.930 . S
H3257 C3272 0.960 . S
H3258 C3272 0.960 . S
H3259 C3272 0.960 . S
C3260 H3252 0.929 . S
C3260 C3261 1.377 . S
C3260 C3262 1.384 . S
C3261 C3260 1.377 . S
C3261 C3267 1.390 . S
C3262 H3253 0.930 . S
C3262 C3260 1.384 . S
C3262 C3263 1.372 . S
C3263 C3262 1.372 . S
C3263 C3264 1.400 . S
C3263 C3268 1.490 . S
C3264 H3254 0.930 . S
C3264 C3263 1.400 . S
C3264 C3267 1.386 . S
H3265 C3281 0.930 . S
H3266 C3282 0.931 . S
C3267 H3255 0.929 . S
C3267 C3261 1.390 . S
C3267 C3264 1.386 . S
C3268 C3263 1.490 . S
C3268 C3270 1.395 . S
C3268 C3271 1.403 . S
H3269 C3275 0.930 . S
C3270 H3256 0.930 . S
C3270 C3268 1.395 . S
C3270 C3273 1.403 . S
C3271 C3268 1.403 . S
C3271 C3272 1.524 . S
C3271 C3275 1.400 . S
C3272 H3257 0.960 . S
C3272 H3258 0.960 . S
C3272 H3259 0.960 . S
C3272 C3271 1.524 . S
C3273 C3270 1.403 . S
C3273 C3274 1.392 . S
C3273 C3277 1.495 . S
C3274 C3273 1.392 . S
C3274 C3275 1.385 . S
C3274 C3276 1.478 . S
C3275 H3269 0.930 . S
C3275 C3271 1.400 . S
C3275 C3274 1.385 . S
C3276 C3274 1.478 . S
C3276 C3278 1.381 . S
C3276 C3282 1.383 . S
C3277 C3273 1.495 . S
C3277 H3283 0.959 . S
C3277 H3284 0.961 . S
C3277 H3285 0.960 . S
C3278 C3276 1.381 . S
C3278 C3279 1.394 . S
C3278 H3286 0.930 . S
C3279 C3278 1.394 . S
C3279 C3280 1.383 . S
C3279 H3287 0.929 . S
C3280 C3279 1.383 . S
C3280 C3281 1.377 . S
C3281 H3265 0.930 . S
C3281 C3280 1.377 . S
C3281 C3282 1.379 . S
C3282 H3266 0.931 . S
C3282 C3276 1.383 . S
C3282 C3281 1.379 . S
H3283 C3277 0.959 . S
H3284 C3277 0.961 . S
H3285 C3277 0.960 . S
H3286 C3278 0.930 . S
H3287 C3279 0.929 . S
H3288 C3296 0.929 . S
H3289 C3298 0.930 . S
H3290 C3300 0.930 . S
H3291 C3303 0.929 . S
H3292 C3306 0.930 . S
H3293 C3308 0.960 . S
H3294 C3308 0.960 . S
H3295 C3308 0.960 . S
C3296 H3288 0.929 . S
C3296 C3297 1.377 . S
C3296 C3298 1.384 . S
C3297 C3296 1.377 . S
C3297 C3303 1.390 . S
C3298 H3289 0.930 . S
C3298 C3296 1.384 . S
C3298 C3299 1.372 . S
C3299 C3298 1.372 . S
C3299 C3300 1.400 . S
C3299 C3304 1.490 . S
C3300 H3290 0.930 . S
C3300 C3299 1.400 . S
C3300 C3303 1.386 . S
H3301 C3317 0.930 . S
H3302 C3318 0.931 . S
C3303 H3291 0.929 . S
C3303 C3297 1.390 . S
C3303 C3300 1.386 . S
C3304 C3299 1.490 . S
C3304 C3306 1.395 . S
C3304 C3307 1.403 . S
H3305 C3311 0.930 . S
C3306 H3292 0.930 . S
C3306 C3304 1.395 . S
C3306 C3309 1.403 . S
C3307 C3304 1.403 . S
C3307 C3308 1.524 . S
C3307 C3311 1.400 . S
C3308 H3293 0.960 . S
C3308 H3294 0.960 . S
C3308 H3295 0.960 . S
C3308 C3307 1.524 . S
C3309 C3306 1.403 . S
C3309 C3310 1.392 . S
C3309 C3313 1.495 . S
C3310 C3309 1.392 . S
C3310 C3311 1.385 . S
C3310 C3312 1.478 . S
C3311 H3305 0.930 . S
C3311 C3307 1.400 . S
C3311 C3310 1.385 . S
C3312 C3310 1.478 . S
C3312 C3314 1.381 . S
C3312 C3318 1.383 . S
C3313 C3309 1.495 . S
C3313 H3319 0.959 . S
C3313 H3320 0.961 . S
C3313 H3321 0.960 . S
C3314 C3312 1.381 . S
C3314 C3315 1.394 . S
C3314 H3322 0.930 . S
C3315 C3314 1.394 . S
C3315 C3316 1.383 . S
C3315 H3323 0.929 . S
C3316 C3315 1.383 . S
C3316 C3317 1.377 . S
C3317 H3301 0.930 . S
C3317 C3316 1.377 . S
C3317 C3318 1.379 . S
C3318 H3302 0.931 . S
C3318 C3312 1.383 . S
C3318 C3317 1.379 . S
H3319 C3313 0.959 . S
H3320 C3313 0.961 . S
H3321 C3313 0.960 . S
H3322 C3314 0.930 . S
H3323 C3315 0.929 . S
H3324 C3332 0.929 . S
H3325 C3334 0.930 . S
H3326 C3336 0.930 . S
H3327 C3339 0.929 . S
H3328 C3342 0.930 . S
H3329 C3344 0.960 . S
H3330 C3344 0.960 . S
H3331 C3344 0.960 . S
C3332 H3324 0.929 . S
C3332 C3333 1.377 . S
C3332 C3334 1.384 . S
C3333 C3332 1.377 . S
C3333 C3339 1.390 . S
C3334 H3325 0.930 . S
C3334 C3332 1.384 . S
C3334 C3335 1.372 . S
C3335 C3334 1.372 . S
C3335 C3336 1.400 . S
C3335 C3340 1.490 . S
C3336 H3326 0.930 . S
C3336 C3335 1.400 . S
C3336 C3339 1.386 . S
H3337 C3353 0.930 . S
H3338 C3354 0.931 . S
C3339 H3327 0.929 . S
C3339 C3333 1.390 . S
C3339 C3336 1.386 . S
C3340 C3335 1.490 . S
C3340 C3342 1.395 . S
C3340 C3343 1.403 . S
H3341 C3347 0.930 . S
C3342 H3328 0.930 . S
C3342 C3340 1.395 . S
C3342 C3345 1.403 . S
C3343 C3340 1.403 . S
C3343 C3344 1.524 . S
C3343 C3347 1.400 . S
C3344 H3329 0.960 . S
C3344 H3330 0.960 . S
C3344 H3331 0.960 . S
C3344 C3343 1.524 . S
C3345 C3342 1.403 . S
C3345 C3346 1.392 . S
C3345 C3349 1.495 . S
C3346 C3345 1.392 . S
C3346 C3347 1.385 . S
C3346 C3348 1.478 . S
C3347 H3341 0.930 . S
C3347 C3343 1.400 . S
C3347 C3346 1.385 . S
C3348 C3346 1.478 . S
C3348 C3350 1.381 . S
C3348 C3354 1.383 . S
C3349 C3345 1.495 . S
C3349 H3355 0.959 . S
C3349 H3356 0.961 . S
C3349 H3357 0.960 . S
C3350 C3348 1.381 . S
C3350 C3351 1.394 . S
C3350 H3358 0.930 . S
C3351 C3350 1.394 . S
C3351 C3352 1.383 . S
C3351 H3359 0.929 . S
C3352 C3351 1.383 . S
C3352 C3353 1.377 . S
C3353 H3337 0.930 . S
C3353 C3352 1.377 . S
C3353 C3354 1.379 . S
C3354 H3338 0.931 . S
C3354 C3348 1.383 . S
C3354 C3353 1.379 . S
H3355 C3349 0.959 . S
H3356 C3349 0.961 . S
H3357 C3349 0.960 . S
H3358 C3350 0.930 . S
H3359 C3351 0.929 . S
H3360 C3368 0.929 . S
H3361 C3370 0.930 . S
H3362 C3372 0.930 . S
H3363 C3375 0.929 . S
H3364 C3378 0.930 . S
H3365 C3380 0.960 . S
H3366 C3380 0.960 . S
H3367 C3380 0.960 . S
C3368 H3360 0.929 . S
C3368 C3369 1.377 . S
C3368 C3370 1.384 . S
C3369 C3368 1.377 . S
C3369 C3375 1.390 . S
C3370 H3361 0.930 . S
C3370 C3368 1.384 . S
C3370 C3371 1.372 . S
C3371 C3370 1.372 . S
C3371 C3372 1.400 . S
C3371 C3376 1.490 . S
C3372 H3362 0.930 . S
C3372 C3371 1.400 . S
C3372 C3375 1.386 . S
H3373 C3389 0.930 . S
H3374 C3390 0.931 . S
C3375 H3363 0.929 . S
C3375 C3369 1.390 . S
C3375 C3372 1.386 . S
C3376 C3371 1.490 . S
C3376 C3378 1.395 . S
C3376 C3379 1.403 . S
H3377 C3383 0.930 . S
C3378 H3364 0.930 . S
C3378 C3376 1.395 . S
C3378 C3381 1.403 . S
C3379 C3376 1.403 . S
C3379 C3380 1.524 . S
C3379 C3383 1.400 . S
C3380 H3365 0.960 . S
C3380 H3366 0.960 . S
C3380 H3367 0.960 . S
C3380 C3379 1.524 . S
C3381 C3378 1.403 . S
C3381 C3382 1.392 . S
C3381 C3385 1.495 . S
C3382 C3381 1.392 . S
C3382 C3383 1.385 . S
C3382 C3384 1.478 . S
C3383 H3377 0.930 . S
C3383 C3379 1.400 . S
C3383 C3382 1.385 . S
C3384 C3382 1.478 . S
C3384 C3386 1.381 . S
C3384 C3390 1.383 . S
C3385 C3381 1.495 . S
C3385 H3391 0.959 . S
C3385 H3392 0.961 . S
C3385 H3393 0.960 . S
C3386 C3384 1.381 . S
C3386 C3387 1.394 . S
C3386 H3394 0.930 . S
C3387 C3386 1.394 . S
C3387 C3388 1.383 . S
C3387 H3395 0.929 . S
C3388 C3387 1.383 . S
C3388 C3389 1.377 . S
C3389 H3373 0.930 . S
C3389 C3388 1.377 . S
C3389 C3390 1.379 . S
C3390 H3374 0.931 . S
C3390 C3384 1.383 . S
C3390 C3389 1.379 . S
H3391 C3385 0.959 . S
H3392 C3385 0.961 . S
H3393 C3385 0.960 . S
H3394 C3386 0.930 . S
H3395 C3387 0.929 . S
H3396 C3404 0.929 . S
H3397 C3406 0.930 . S
H3398 C3408 0.930 . S
H3399 C3411 0.929 . S
H3400 C3414 0.930 . S
H3401 C3416 0.960 . S
H3402 C3416 0.960 . S
H3403 C3416 0.960 . S
C3404 H3396 0.929 . S
C3404 C3405 1.377 . S
C3404 C3406 1.384 . S
C3405 C3404 1.377 . S
C3405 C3411 1.390 . S
C3406 H3397 0.930 . S
C3406 C3404 1.384 . S
C3406 C3407 1.372 . S
C3407 C3406 1.372 . S
C3407 C3408 1.400 . S
C3407 C3412 1.490 . S
C3408 H3398 0.930 . S
C3408 C3407 1.400 . S
C3408 C3411 1.386 . S
H3409 C3425 0.930 . S
H3410 C3426 0.931 . S
C3411 H3399 0.929 . S
C3411 C3405 1.390 . S
C3411 C3408 1.386 . S
C3412 C3407 1.490 . S
C3412 C3414 1.395 . S
C3412 C3415 1.403 . S
H3413 C3419 0.930 . S
C3414 H3400 0.930 . S
C3414 C3412 1.395 . S
C3414 C3417 1.403 . S
C3415 C3412 1.403 . S
C3415 C3416 1.524 . S
C3415 C3419 1.400 . S
C3416 H3401 0.960 . S
C3416 H3402 0.960 . S
C3416 H3403 0.960 . S
C3416 C3415 1.524 . S
C3417 C3414 1.403 . S
C3417 C3418 1.392 . S
C3417 C3421 1.495 . S
C3418 C3417 1.392 . S
C3418 C3419 1.385 . S
C3418 C3420 1.478 . S
C3419 H3413 0.930 . S
C3419 C3415 1.400 . S
C3419 C3418 1.385 . S
C3420 C3418 1.478 . S
C3420 C3422 1.381 . S
C3420 C3426 1.383 . S
C3421 C3417 1.495 . S
C3421 H3427 0.959 . S
C3421 H3428 0.961 . S
C3421 H3429 0.960 . S
C3422 C3420 1.381 . S
C3422 C3423 1.394 . S
C3422 H3430 0.930 . S
C3423 C3422 1.394 . S
C3423 C3424 1.383 . S
C3423 H3431 0.929 . S
C3424 C3423 1.383 . S
C3424 C3425 1.377 . S
C3425 H3409 0.930 . S
C3425 C3424 1.377 . S
C3425 C3426 1.379 . S
C3426 H3410 0.931 . S
C3426 C3420 1.383 . S
C3426 C3425 1.379 . S
H3427 C3421 0.959 . S
H3428 C3421 0.961 . S
H3429 C3421 0.960 . S
H3430 C3422 0.930 . S
H3431 C3423 0.929 . S
H3432 C3440 0.929 . S
H3433 C3442 0.930 . S
H3434 C3444 0.930 . S
H3435 C3447 0.929 . S
H3436 C3450 0.930 . S
H3437 C3452 0.960 . S
H3438 C3452 0.960 . S
H3439 C3452 0.960 . S
C3440 H3432 0.929 . S
C3440 C3441 1.377 . S
C3440 C3442 1.384 . S
C3441 C3440 1.377 . S
C3441 C3447 1.390 . S
C3442 H3433 0.930 . S
C3442 C3440 1.384 . S
C3442 C3443 1.372 . S
C3443 C3442 1.372 . S
C3443 C3444 1.400 . S
C3443 C3448 1.490 . S
C3444 H3434 0.930 . S
C3444 C3443 1.400 . S
C3444 C3447 1.386 . S
H3445 C3461 0.930 . S
H3446 C3462 0.931 . S
C3447 H3435 0.929 . S
C3447 C3441 1.390 . S
C3447 C3444 1.386 . S
C3448 C3443 1.490 . S
C3448 C3450 1.395 . S
C3448 C3451 1.403 . S
H3449 C3455 0.930 . S
C3450 H3436 0.930 . S
C3450 C3448 1.395 . S
C3450 C3453 1.403 . S
C3451 C3448 1.403 . S
C3451 C3452 1.524 . S
C3451 C3455 1.400 . S
C3452 H3437 0.960 . S
C3452 H3438 0.960 . S
C3452 H3439 0.960 . S
C3452 C3451 1.524 . S
C3453 C3450 1.403 . S
C3453 C3454 1.392 . S
C3453 C3457 1.495 . S
C3454 C3453 1.392 . S
C3454 C3455 1.385 . S
C3454 C3456 1.478 . S
C3455 H3449 0.930 . S
C3455 C3451 1.400 . S
C3455 C3454 1.385 . S
C3456 C3454 1.478 . S
C3456 C3458 1.381 . S
C3456 C3462 1.383 . S
C3457 C3453 1.495 . S
C3457 H3463 0.959 . S
C3457 H3464 0.961 . S
C3457 H3465 0.960 . S
C3458 C3456 1.381 . S
C3458 C3459 1.394 . S
C3458 H3466 0.930 . S
C3459 C3458 1.394 . S
C3459 C3460 1.383 . S
C3459 H3467 0.929 . S
C3460 C3459 1.383 . S
C3460 C3461 1.377 . S
C3461 H3445 0.930 . S
C3461 C3460 1.377 . S
C3461 C3462 1.379 . S
C3462 H3446 0.931 . S
C3462 C3456 1.383 . S
C3462 C3461 1.379 . S
H3463 C3457 0.959 . S
H3464 C3457 0.961 . S
H3465 C3457 0.960 . S
H3466 C3458 0.930 . S
H3467 C3459 0.929 . S
H3468 C3476 0.929 . S
H3469 C3478 0.930 . S
H3470 C3480 0.930 . S
H3471 C3483 0.929 . S
H3472 C3486 0.930 . S
H3473 C3488 0.960 . S
H3474 C3488 0.960 . S
H3475 C3488 0.960 . S
C3476 H3468 0.929 . S
C3476 C3477 1.377 . S
C3476 C3478 1.384 . S
C3477 C3476 1.377 . S
C3477 C3483 1.390 . S
C3478 H3469 0.930 . S
C3478 C3476 1.384 . S
C3478 C3479 1.372 . S
C3479 C3478 1.372 . S
C3479 C3480 1.400 . S
C3479 C3484 1.490 . S
C3480 H3470 0.930 . S
C3480 C3479 1.400 . S
C3480 C3483 1.386 . S
H3481 C3497 0.930 . S
H3482 C3498 0.931 . S
C3483 H3471 0.929 . S
C3483 C3477 1.390 . S
C3483 C3480 1.386 . S
C3484 C3479 1.490 . S
C3484 C3486 1.395 . S
C3484 C3487 1.403 . S
H3485 C3491 0.930 . S
C3486 H3472 0.930 . S
C3486 C3484 1.395 . S
C3486 C3489 1.403 . S
C3487 C3484 1.403 . S
C3487 C3488 1.524 . S
C3487 C3491 1.400 . S
C3488 H3473 0.960 . S
C3488 H3474 0.960 . S
C3488 H3475 0.960 . S
C3488 C3487 1.524 . S
C3489 C3486 1.403 . S
C3489 C3490 1.392 . S
C3489 C3493 1.495 . S
C3490 C3489 1.392 . S
C3490 C3491 1.385 . S
C3490 C3492 1.478 . S
C3491 H3485 0.930 . S
C3491 C3487 1.400 . S
C3491 C3490 1.385 . S
C3492 C3490 1.478 . S
C3492 C3494 1.381 . S
C3492 C3498 1.383 . S
C3493 C3489 1.495 . S
C3493 H3499 0.959 . S
C3493 H3500 0.961 . S
C3493 H3501 0.960 . S
C3494 C3492 1.381 . S
C3494 C3495 1.394 . S
C3494 H3502 0.930 . S
C3495 C3494 1.394 . S
C3495 C3496 1.383 . S
C3495 H3503 0.929 . S
C3496 C3495 1.383 . S
C3496 C3497 1.377 . S
C3497 H3481 0.930 . S
C3497 C3496 1.377 . S
C3497 C3498 1.379 . S
C3498 H3482 0.931 . S
C3498 C3492 1.383 . S
C3498 C3497 1.379 . S
H3499 C3493 0.959 . S
H3500 C3493 0.961 . S
H3501 C3493 0.960 . S
H3502 C3494 0.930 . S
H3503 C3495 0.929 . S
H3504 C3512 0.929 . S
H3505 C3514 0.930 . S
H3506 C3516 0.930 . S
H3507 C3519 0.929 . S
H3508 C3522 0.930 . S
H3509 C3524 0.960 . S
H3510 C3524 0.960 . S
H3511 C3524 0.960 . S
C3512 H3504 0.929 . S
C3512 C3513 1.377 . S
C3512 C3514 1.384 . S
C3513 C3512 1.377 . S
C3513 C3519 1.390 . S
C3514 H3505 0.930 . S
C3514 C3512 1.384 . S
C3514 C3515 1.372 . S
C3515 C3514 1.372 . S
C3515 C3516 1.400 . S
C3515 C3520 1.490 . S
C3516 H3506 0.930 . S
C3516 C3515 1.400 . S
C3516 C3519 1.386 . S
H3517 C3533 0.930 . S
H3518 C3534 0.931 . S
C3519 H3507 0.929 . S
C3519 C3513 1.390 . S
C3519 C3516 1.386 . S
C3520 C3515 1.490 . S
C3520 C3522 1.395 . S
C3520 C3523 1.403 . S
H3521 C3527 0.930 . S
C3522 H3508 0.930 . S
C3522 C3520 1.395 . S
C3522 C3525 1.403 . S
C3523 C3520 1.403 . S
C3523 C3524 1.524 . S
C3523 C3527 1.400 . S
C3524 H3509 0.960 . S
C3524 H3510 0.960 . S
C3524 H3511 0.960 . S
C3524 C3523 1.524 . S
C3525 C3522 1.403 . S
C3525 C3526 1.392 . S
C3525 C3529 1.495 . S
C3526 C3525 1.392 . S
C3526 C3527 1.385 . S
C3526 C3528 1.478 . S
C3527 H3521 0.930 . S
C3527 C3523 1.400 . S
C3527 C3526 1.385 . S
C3528 C3526 1.478 . S
C3528 C3530 1.381 . S
C3528 C3534 1.383 . S
C3529 C3525 1.495 . S
C3529 H3535 0.959 . S
C3529 H3536 0.961 . S
C3529 H3537 0.960 . S
C3530 C3528 1.381 . S
C3530 C3531 1.394 . S
C3530 H3538 0.930 . S
C3531 C3530 1.394 . S
C3531 C3532 1.383 . S
C3531 H3539 0.929 . S
C3532 C3531 1.383 . S
C3532 C3533 1.377 . S
C3533 H3517 0.930 . S
C3533 C3532 1.377 . S
C3533 C3534 1.379 . S
C3534 H3518 0.931 . S
C3534 C3528 1.383 . S
C3534 C3533 1.379 . S
H3535 C3529 0.959 . S
H3536 C3529 0.961 . S
H3537 C3529 0.960 . S
H3538 C3530 0.930 . S
H3539 C3531 0.929 . S
H3540 C3548 0.929 . S
H3541 C3550 0.930 . S
H3542 C3552 0.930 . S
H3543 C3555 0.929 . S
H3544 C3558 0.930 . S
H3545 C3560 0.960 . S
H3546 C3560 0.960 . S
H3547 C3560 0.960 . S
C3548 H3540 0.929 . S
C3548 C3549 1.377 . S
C3548 C3550 1.384 . S
C3549 C3548 1.377 . S
C3549 C3555 1.390 . S
C3550 H3541 0.930 . S
C3550 C3548 1.384 . S
C3550 C3551 1.372 . S
C3551 C3550 1.372 . S
C3551 C3552 1.400 . S
C3551 C3556 1.490 . S
C3552 H3542 0.930 . S
C3552 C3551 1.400 . S
C3552 C3555 1.386 . S
H3553 C3569 0.930 . S
H3554 C3570 0.931 . S
C3555 H3543 0.929 . S
C3555 C3549 1.390 . S
C3555 C3552 1.386 . S
C3556 C3551 1.490 . S
C3556 C3558 1.395 . S
C3556 C3559 1.403 . S
H3557 C3563 0.930 . S
C3558 H3544 0.930 . S
C3558 C3556 1.395 . S
C3558 C3561 1.403 . S
C3559 C3556 1.403 . S
C3559 C3560 1.524 . S
C3559 C3563 1.400 . S
C3560 H3545 0.960 . S
C3560 H3546 0.960 . S
C3560 H3547 0.960 . S
C3560 C3559 1.524 . S
C3561 C3558 1.403 . S
C3561 C3562 1.392 . S
C3561 C3565 1.495 . S
C3562 C3561 1.392 . S
C3562 C3563 1.385 . S
C3562 C3564 1.478 . S
C3563 H3557 0.930 . S
C3563 C3559 1.400 . S
C3563 C3562 1.385 . S
C3564 C3562 1.478 . S
C3564 C3566 1.381 . S
C3564 C3570 1.383 . S
C3565 C3561 1.495 . S
C3565 H3571 0.959 . S
C3565 H3572 0.961 . S
C3565 H3573 0.960 . S
C3566 C3564 1.381 . S
C3566 C3567 1.394 . S
C3566 H3574 0.930 . S
C3567 C3566 1.394 . S
C3567 C3568 1.383 . S
C3567 H3575 0.929 . S
C3568 C3567 1.383 . S
C3568 C3569 1.377 . S
C3569 H3553 0.930 . S
C3569 C3568 1.377 . S
C3569 C3570 1.379 . S
C3570 H3554 0.931 . S
C3570 C3564 1.383 . S
C3570 C3569 1.379 . S
H3571 C3565 0.959 . S
H3572 C3565 0.961 . S
H3573 C3565 0.960 . S
H3574 C3566 0.930 . S
H3575 C3567 0.929 . S
H3576 C3584 0.929 . S
H3577 C3586 0.930 . S
H3578 C3588 0.930 . S
H3579 C3591 0.929 . S
H3580 C3594 0.930 . S
H3581 C3596 0.960 . S
H3582 C3596 0.960 . S
H3583 C3596 0.960 . S
C3584 H3576 0.929 . S
C3584 C3585 1.377 . S
C3584 C3586 1.384 . S
C3585 C3584 1.377 . S
C3585 C3591 1.390 . S
C3586 H3577 0.930 . S
C3586 C3584 1.384 . S
C3586 C3587 1.372 . S
C3587 C3586 1.372 . S
C3587 C3588 1.400 . S
C3587 C3592 1.490 . S
C3588 H3578 0.930 . S
C3588 C3587 1.400 . S
C3588 C3591 1.386 . S
H3589 C3605 0.930 . S
H3590 C3606 0.931 . S
C3591 H3579 0.929 . S
C3591 C3585 1.390 . S
C3591 C3588 1.386 . S
C3592 C3587 1.490 . S
C3592 C3594 1.395 . S
C3592 C3595 1.403 . S
H3593 C3599 0.930 . S
C3594 H3580 0.930 . S
C3594 C3592 1.395 . S
C3594 C3597 1.403 . S
C3595 C3592 1.403 . S
C3595 C3596 1.524 . S
C3595 C3599 1.400 . S
C3596 H3581 0.960 . S
C3596 H3582 0.960 . S
C3596 H3583 0.960 . S
C3596 C3595 1.524 . S
C3597 C3594 1.403 . S
C3597 C3598 1.392 . S
C3597 C3601 1.495 . S
C3598 C3597 1.392 . S
C3598 C3599 1.385 . S
C3598 C3600 1.478 . S
C3599 H3593 0.930 . S
C3599 C3595 1.400 . S
C3599 C3598 1.385 . S
C3600 C3598 1.478 . S
C3600 C3602 1.381 . S
C3600 C3606 1.383 . S
C3601 C3597 1.495 . S
C3601 H3607 0.959 . S
C3601 H3608 0.961 . S
C3601 H3609 0.960 . S
C3602 C3600 1.381 . S
C3602 C3603 1.394 . S
C3602 H3610 0.930 . S
C3603 C3602 1.394 . S
C3603 C3604 1.383 . S
C3603 H3611 0.929 . S
C3604 C3603 1.383 . S
C3604 C3605 1.377 . S
C3605 H3589 0.930 . S
C3605 C3604 1.377 . S
C3605 C3606 1.379 . S
C3606 H3590 0.931 . S
C3606 C3600 1.383 . S
C3606 C3605 1.379 . S
H3607 C3601 0.959 . S
H3608 C3601 0.961 . S
H3609 C3601 0.960 . S
H3610 C3602 0.930 . S
H3611 C3603 0.929 . S
H3612 C3620 0.929 . S
H3613 C3622 0.930 . S
H3614 C3624 0.930 . S
H3615 C3627 0.929 . S
H3616 C3630 0.930 . S
H3617 C3632 0.960 . S
H3618 C3632 0.960 . S
H3619 C3632 0.960 . S
C3620 H3612 0.929 . S
C3620 C3621 1.377 . S
C3620 C3622 1.384 . S
C3621 C3620 1.377 . S
C3621 C3627 1.390 . S
C3622 H3613 0.930 . S
C3622 C3620 1.384 . S
C3622 C3623 1.372 . S
C3623 C3622 1.372 . S
C3623 C3624 1.400 . S
C3623 C3628 1.490 . S
C3624 H3614 0.930 . S
C3624 C3623 1.400 . S
C3624 C3627 1.386 . S
H3625 C3641 0.930 . S
H3626 C3642 0.931 . S
C3627 H3615 0.929 . S
C3627 C3621 1.390 . S
C3627 C3624 1.386 . S
C3628 C3623 1.490 . S
C3628 C3630 1.395 . S
C3628 C3631 1.403 . S
H3629 C3635 0.930 . S
C3630 H3616 0.930 . S
C3630 C3628 1.395 . S
C3630 C3633 1.403 . S
C3631 C3628 1.403 . S
C3631 C3632 1.524 . S
C3631 C3635 1.400 . S
C3632 H3617 0.960 . S
C3632 H3618 0.960 . S
C3632 H3619 0.960 . S
C3632 C3631 1.524 . S
C3633 C3630 1.403 . S
C3633 C3634 1.392 . S
C3633 C3637 1.495 . S
C3634 C3633 1.392 . S
C3634 C3635 1.385 . S
C3634 C3636 1.478 . S
C3635 H3629 0.930 . S
C3635 C3631 1.400 . S
C3635 C3634 1.385 . S
C3636 C3634 1.478 . S
C3636 C3638 1.381 . S
C3636 C3642 1.383 . S
C3637 C3633 1.495 . S
C3637 H3643 0.959 . S
C3637 H3644 0.961 . S
C3637 H3645 0.960 . S
C3638 C3636 1.381 . S
C3638 C3639 1.394 . S
C3638 H3646 0.930 . S
C3639 C3638 1.394 . S
C3639 C3640 1.383 . S
C3639 H3647 0.929 . S
C3640 C3639 1.383 . S
C3640 C3641 1.377 . S
C3641 H3625 0.930 . S
C3641 C3640 1.377 . S
C3641 C3642 1.379 . S
C3642 H3626 0.931 . S
C3642 C3636 1.383 . S
C3642 C3641 1.379 . S
H3643 C3637 0.959 . S
H3644 C3637 0.961 . S
H3645 C3637 0.960 . S
H3646 C3638 0.930 . S
H3647 C3639 0.929 . S
H3648 C3656 0.929 . S
H3649 C3658 0.930 . S
H3650 C3660 0.930 . S
H3651 C3663 0.929 . S
H3652 C3666 0.930 . S
H3653 C3668 0.960 . S
H3654 C3668 0.960 . S
H3655 C3668 0.960 . S
C3656 H3648 0.929 . S
C3656 C3657 1.377 . S
C3656 C3658 1.384 . S
C3657 C3656 1.377 . S
C3657 C3663 1.390 . S
C3658 H3649 0.930 . S
C3658 C3656 1.384 . S
C3658 C3659 1.372 . S
C3659 C3658 1.372 . S
C3659 C3660 1.400 . S
C3659 C3664 1.490 . S
C3660 H3650 0.930 . S
C3660 C3659 1.400 . S
C3660 C3663 1.386 . S
H3661 C3677 0.930 . S
H3662 C3678 0.931 . S
C3663 H3651 0.929 . S
C3663 C3657 1.390 . S
C3663 C3660 1.386 . S
C3664 C3659 1.490 . S
C3664 C3666 1.395 . S
C3664 C3667 1.403 . S
H3665 C3671 0.930 . S
C3666 H3652 0.930 . S
C3666 C3664 1.395 . S
C3666 C3669 1.403 . S
C3667 C3664 1.403 . S
C3667 C3668 1.524 . S
C3667 C3671 1.400 . S
C3668 H3653 0.960 . S
C3668 H3654 0.960 . S
C3668 H3655 0.960 . S
C3668 C3667 1.524 . S
C3669 C3666 1.403 . S
C3669 C3670 1.392 . S
C3669 C3673 1.495 . S
C3670 C3669 1.392 . S
C3670 C3671 1.385 . S
C3670 C3672 1.478 . S
C3671 H3665 0.930 . S
C3671 C3667 1.400 . S
C3671 C3670 1.385 . S
C3672 C3670 1.478 . S
C3672 C3674 1.381 . S
C3672 C3678 1.383 . S
C3673 C3669 1.495 . S
C3673 H3679 0.959 . S
C3673 H3680 0.961 . S
C3673 H3681 0.960 . S
C3674 C3672 1.381 . S
C3674 C3675 1.394 . S
C3674 H3682 0.930 . S
C3675 C3674 1.394 . S
C3675 C3676 1.383 . S
C3675 H3683 0.929 . S
C3676 C3675 1.383 . S
C3676 C3677 1.377 . S
C3677 H3661 0.930 . S
C3677 C3676 1.377 . S
C3677 C3678 1.379 . S
C3678 H3662 0.931 . S
C3678 C3672 1.383 . S
C3678 C3677 1.379 . S
H3679 C3673 0.959 . S
H3680 C3673 0.961 . S
H3681 C3673 0.960 . S
H3682 C3674 0.930 . S
H3683 C3675 0.929 . S
H3684 C3692 0.929 . S
H3685 C3694 0.930 . S
H3686 C3696 0.930 . S
H3687 C3699 0.929 . S
H3688 C3702 0.930 . S
H3689 C3704 0.960 . S
H3690 C3704 0.960 . S
H3691 C3704 0.960 . S
C3692 H3684 0.929 . S
C3692 C3693 1.377 . S
C3692 C3694 1.384 . S
C3693 C3692 1.377 . S
C3693 C3699 1.390 . S
C3694 H3685 0.930 . S
C3694 C3692 1.384 . S
C3694 C3695 1.372 . S
C3695 C3694 1.372 . S
C3695 C3696 1.400 . S
C3695 C3700 1.490 . S
C3696 H3686 0.930 . S
C3696 C3695 1.400 . S
C3696 C3699 1.386 . S
H3697 C3713 0.930 . S
H3698 C3714 0.931 . S
C3699 H3687 0.929 . S
C3699 C3693 1.390 . S
C3699 C3696 1.386 . S
C3700 C3695 1.490 . S
C3700 C3702 1.395 . S
C3700 C3703 1.403 . S
H3701 C3707 0.930 . S
C3702 H3688 0.930 . S
C3702 C3700 1.395 . S
C3702 C3705 1.403 . S
C3703 C3700 1.403 . S
C3703 C3704 1.524 . S
C3703 C3707 1.400 . S
C3704 H3689 0.960 . S
C3704 H3690 0.960 . S
C3704 H3691 0.960 . S
C3704 C3703 1.524 . S
C3705 C3702 1.403 . S
C3705 C3706 1.392 . S
C3705 C3709 1.495 . S
C3706 C3705 1.392 . S
C3706 C3707 1.385 . S
C3706 C3708 1.478 . S
C3707 H3701 0.930 . S
C3707 C3703 1.400 . S
C3707 C3706 1.385 . S
C3708 C3706 1.478 . S
C3708 C3710 1.381 . S
C3708 C3714 1.383 . S
C3709 C3705 1.495 . S
C3709 H3715 0.959 . S
C3709 H3716 0.961 . S
C3709 H3717 0.960 . S
C3710 C3708 1.381 . S
C3710 C3711 1.394 . S
C3710 H3718 0.930 . S
C3711 C3710 1.394 . S
C3711 C3712 1.383 . S
C3711 H3719 0.929 . S
C3712 C3711 1.383 . S
C3712 C3713 1.377 . S
C3713 H3697 0.930 . S
C3713 C3712 1.377 . S
C3713 C3714 1.379 . S
C3714 H3698 0.931 . S
C3714 C3708 1.383 . S
C3714 C3713 1.379 . S
H3715 C3709 0.959 . S
H3716 C3709 0.961 . S
H3717 C3709 0.960 . S
H3718 C3710 0.930 . S
H3719 C3711 0.929 . S
C705 C15 1.915 . S
C724 C559 2.068 . S
C741 C588 2.071 . S
C760 C44 1.925 . S
C777 C73 1.910 . S
C796 C501 2.072 . S
C813 C530 2.072 . S
C832 C102 1.899 . S
C849 C617 2.073 . S
C868 C131 1.879 . S
C885 C160 1.915 . S
C904 C646 2.063 . S
C921 C472 2.071 . S
C940 C189 1.915 . S
C957 C218 1.906 . S
C976 C675 2.073 . S
C993 C66 2.073 . S
C1012 C247 1.878 . S
C1029 C276 1.914 . S
C1048 C95 2.070 . S
C1065 C8 2.073 . S
C1084 C305 1.919 . S
C1101 C334 1.905 . S
C1120 C37 2.071 . S
C1137 C363 1.913 . S
C1156 C182 2.070 . S
C1173 C211 2.071 . S
C1192 C392 1.931 . S
C1209 C421 1.907 . S
C1228 C124 2.068 . S
C1245 C153 2.073 . S
C1264 C450 1.903 . S
C1281 C356 2.071 . S
C1300 C479 1.933 . S
C1317 C240 2.073 . S
C1336 C508 1.892 . S
C1353 C269 2.073 . S
C1372 C537 1.878 . S
C1389 C566 1.909 . S
C1408 C298 2.066 . S
C1425 C595 1.905 . S
C1444 C327 2.070 . S
C1461 C624 1.906 . S
C1480 C414 2.073 . S
C1497 C443 2.071 . S
C1516 C653 1.937 . S
C1533 C682 1.917 . S
C1552 C385 2.064 . S
C1569 C5 2.475 . S
C1588 C63 2.465 . S
C1605 C34 2.475 . S
C1624 C92 2.467 . S
C1641 C179 2.475 . S
C1660 C121 2.465 . S
C1677 C150 2.478 . S
C1696 C208 2.482 . S
C1713 C237 2.478 . S
C1732 C353 2.477 . S
C1749 C382 2.474 . S
C1768 C266 2.459 . S
C1785 C295 2.473 . S
C1804 C411 2.457 . S
C1821 C324 2.479 . S
C1840 C440 2.486 . S
C1857 C469 2.474 . S
C1876 C556 2.458 . S
C1893 C614 2.479 . S
C1912 C498 2.486 . S
C1929 C643 2.473 . S
C1948 C527 2.458 . S
C1965 C585 2.478 . S
C1984 C672 2.483 . S
C2001 C651 1.573 . S
C2020 C13 1.612 . S
C2037 C42 1.581 . S
C2056 C477 1.560 . S
C2073 C680 1.573 . S
C2092 C71 1.610 . S
C2109 C100 1.589 . S
C2128 C622 1.578 . S
C2145 C535 1.590 . S
C2164 C129 1.572 . S
C2181 C158 1.573 . S
C2200 C564 1.602 . S
C2217 C187 1.585 . S
C2236 C593 1.605 . S
C2253 C506 1.578 . S
C2272 C216 1.575 . S
C2289 C390 1.590 . S
C2308 C245 1.566 . S
C2325 C419 1.580 . S
C2344 C274 1.565 . S
C2361 C448 1.581 . S
C2380 C303 1.623 . S
C2397 C332 1.588 . S
C2416 C361 1.548 . S
C2433 C300 1.280 . S
C2452 C155 1.303 . S
C2469 C184 1.283 . S
C2488 C329 1.259 . S
C2505 C213 1.276 . S
C2524 C242 1.295 . S
C2541 C271 1.285 . S
C2560 C126 1.284 . S
C2577 C97 1.278 . S
C2596 C416 1.251 . S
C2613 C445 1.275 . S
C2632 C10 1.258 . S
C2649 C39 1.276 . S
C2668 C358 1.294 . S
C2685 C387 1.275 . S
C2704 C68 1.285 . S
C2721 C503 1.275 . S
C2740 C677 1.286 . S
C2757 C532 1.279 . S
C2776 C619 1.251 . S
C2793 C648 1.275 . S
C2812 C561 1.284 . S
C2829 C590 1.275 . S
C2848 C474 1.287 . S
C2865 C21 1.058 . S
C2884 C137 1.060 . S
C2901 C50 1.049 . S
C2920 C166 1.104 . S
C2937 C195 1.049 . S
C2956 C79 0.996 . S
C2973 C108 1.041 . S
C2992 C224 0.981 . S
C3009 C253 1.043 . S
C3028 C427 0.983 . S
C3045 C282 1.048 . S
C3064 C456 1.104 . S
C3081 C311 1.035 . S
C3100 C369 0.993 . S
C3117 C398 1.038 . S
C3136 C340 0.983 . S
C3153 C485 1.056 . S
C3172 C630 1.094 . S
C3189 C514 1.056 . S
C3208 C572 1.031 . S
C3225 C543 1.043 . S
C3244 C601 0.983 . S
C3261 C659 1.038 . S
C3280 C688 0.983 . S
C3297 C90 0.675 . S
C3316 C148 0.680 . S
C3333 C177 0.675 . S
C3352 C3 0.690 . S
C3369 C32 0.667 . S
C3388 C206 0.674 . S
C3405 C61 0.672 . S
C3424 C119 0.654 . S
C3441 C525 0.675 . S
C3460 C670 0.684 . S
C3477 C612 0.671 . S
C3496 C554 0.692 . S
C3513 C641 0.672 . S
C3532 C583 0.693 . S
C3549 C496 0.670 . S
C3568 C467 0.651 . S
C3585 C264 0.672 . S
C3604 C322 0.654 . S
C3621 C380 0.671 . S
C3640 C438 0.654 . S
C3657 C409 0.667 . S
C3676 C351 0.653 . S
C3693 C235 0.666 . S
C3712 C293 0.659 . S
