# Generated by pormake.
# Topology wld, (5)-cn, num edge types: 1
# Building blocks:
#     Node 0, Type 0, BuildingBlock: XOMCOT_clean_sbu_1, # of connection points: 5
#     Node 1, Type 0, BuildingBlock: XOMCOT_clean_sbu_1, # of connection points: 5
#     Node 2, Type 0, BuildingBlock: XOMCOT_clean_sbu_1, # of connection points: 5
#     Node 3, Type 0, BuildingBlock: XOMCOT_clean_sbu_1, # of connection points: 5
#     Node 4, Type 0, BuildingBlock: XOMCOT_clean_sbu_1, # of connection points: 5
#     Node 5, Type 0, BuildingBlock: XOMCOT_clean_sbu_1, # of connection points: 5
#     Node 6, Type 0, BuildingBlock: XOMCOT_clean_sbu_1, # of connection points: 5
#     Node 7, Type 0, BuildingBlock: XOMCOT_clean_sbu_1, # of connection points: 5
#     Node 8, Type 0, BuildingBlock: XOMCOT_clean_sbu_1, # of connection points: 5
#     Node 9, Type 0, BuildingBlock: XOMCOT_clean_sbu_1, # of connection points: 5
#     Node 10, Type 0, BuildingBlock: XOMCOT_clean_sbu_1, # of connection points: 5
#     Node 11, Type 0, BuildingBlock: XOMCOT_clean_sbu_1, # of connection points: 5
#     Edge 12, Type (0, 0), BuildingBlock: TEMPAE_clean_linker_10, # of connection points: 2
#     Edge 13, Type (0, 0), BuildingBlock: TEMPAE_clean_linker_10, # of connection points: 2
#     Edge 14, Type (0, 0), BuildingBlock: TEMPAE_clean_linker_10, # of connection points: 2
#     Edge 15, Type (0, 0), BuildingBlock: TEMPAE_clean_linker_10, # of connection points: 2
#     Edge 16, Type (0, 0), BuildingBlock: TEMPAE_clean_linker_10, # of connection points: 2
#     Edge 17, Type (0, 0), BuildingBlock: TEMPAE_clean_linker_10, # of connection points: 2
#     Edge 18, Type (0, 0), BuildingBlock: TEMPAE_clean_linker_10, # of connection points: 2
#     Edge 19, Type (0, 0), BuildingBlock: TEMPAE_clean_linker_10, # of connection points: 2
#     Edge 20, Type (0, 0), BuildingBlock: TEMPAE_clean_linker_10, # of connection points: 2
#     Edge 21, Type (0, 0), BuildingBlock: TEMPAE_clean_linker_10, # of connection points: 2
#     Edge 22, Type (0, 0), BuildingBlock: TEMPAE_clean_linker_10, # of connection points: 2
#     Edge 23, Type (0, 0), BuildingBlock: TEMPAE_clean_linker_10, # of connection points: 2
#     Edge 24, Type (0, 0), BuildingBlock: TEMPAE_clean_linker_10, # of connection points: 2
#     Edge 25, Type (0, 0), BuildingBlock: TEMPAE_clean_linker_10, # of connection points: 2
#     Edge 26, Type (0, 0), BuildingBlock: TEMPAE_clean_linker_10, # of connection points: 2
#     Edge 27, Type (0, 0), BuildingBlock: TEMPAE_clean_linker_10, # of connection points: 2
#     Edge 28, Type (0, 0), BuildingBlock: TEMPAE_clean_linker_10, # of connection points: 2
#     Edge 29, Type (0, 0), BuildingBlock: TEMPAE_clean_linker_10, # of connection points: 2
#     Edge 30, Type (0, 0), BuildingBlock: TEMPAE_clean_linker_10, # of connection points: 2
#     Edge 31, Type (0, 0), BuildingBlock: TEMPAE_clean_linker_10, # of connection points: 2
#     Edge 32, Type (0, 0), BuildingBlock: TEMPAE_clean_linker_10, # of connection points: 2
#     Edge 33, Type (0, 0), BuildingBlock: TEMPAE_clean_linker_10, # of connection points: 2
#     Edge 34, Type (0, 0), BuildingBlock: TEMPAE_clean_linker_10, # of connection points: 2
#     Edge 35, Type (0, 0), BuildingBlock: TEMPAE_clean_linker_10, # of connection points: 2
#     Edge 36, Type (0, 0), BuildingBlock: TEMPAE_clean_linker_10, # of connection points: 2
#     Edge 37, Type (0, 0), BuildingBlock: TEMPAE_clean_linker_10, # of connection points: 2
#     Edge 38, Type (0, 0), BuildingBlock: TEMPAE_clean_linker_10, # of connection points: 2
#     Edge 39, Type (0, 0), BuildingBlock: TEMPAE_clean_linker_10, # of connection points: 2
#     Edge 40, Type (0, 0), BuildingBlock: TEMPAE_clean_linker_10, # of connection points: 2
#     Edge 41, Type (0, 0), BuildingBlock: TEMPAE_clean_linker_10, # of connection points: 2
# Relax obj value: 0.226
# Max RMSD: 0.209
# Mean RMSD: 0.209
data_MOF--net-wld--node1-XOMCOT_clean_sbu_1--edge1-TEMPAE_clean_linker_10
_symmetry_space_group_name_H-M    P1
_symmetry_Int_Tables_number       1
_symmetry_cell_setting            triclinic
loop_
_symmetry_equiv_pos_as_xyz
'x, y, z'
_cell_length_a     37.415916
_cell_length_b     37.399803
_cell_length_c     52.785883
_cell_angle_alpha  90.012643
_cell_angle_beta   89.973104
_cell_angle_gamma 119.98352
loop_
_atom_site_label
_atom_site_type_symbol
_atom_site_fract_x
_atom_site_fract_y
_atom_site_fract_z
_atom_type_partial_charge
C0 C 0.41754 0.17655 0.13343 0.0
C1 C 0.44921 0.16798 0.13458 0.0
N2 N 0.47284 0.18369 0.11373 0.0
N3 N 0.42146 0.19798 0.1121 0.0
C4 C 0.45527 0.20173 0.10043 0.0
H5 H 0.39246 0.1666 0.14683 0.0
Co6 Co 0.38408 0.21248 0.09998 0.0
C7 C 0.43715 0.30204 0.08965 0.0
O8 O 0.40861 0.30855 0.09951 0.0
N9 N 0.34444 0.22495 0.08698 0.0
C10 C 0.28252 0.21596 0.07723 0.0
C11 C 0.30372 0.20332 0.09248 0.0
C12 C 0.34662 0.2491 0.06719 0.0
N13 N 0.30955 0.24488 0.06132 0.0
O14 O 0.38163 0.1859 0.06865 0.0
H15 H 0.28932 0.17751 0.10531 0.0
H16 H 0.37426 0.26755 0.05618 0.0
O17 O 0.43046 0.26508 0.08759 0.0
C18 C 0.35257 0.14846 0.06896 0.0
O19 O 0.33028 0.1342 0.08964 0.0
N20 N 0.3847 0.23601 0.13202 0.0
C21 C 0.37778 0.26952 0.17767 0.0
C22 C 0.41592 0.2862 0.16528 0.0
C23 C 0.41906 0.2679 0.14291 0.0
C24 C 0.34908 0.21634 0.14566 0.0
C25 C 0.34456 0.23304 0.16821 0.0
H26 H 0.44902 0.27991 0.13422 0.0
H27 H 0.32403 0.18729 0.13928 0.0
H28 H 0.46612 0.21655 0.08221 0.0
H29 H 0.45336 0.14991 0.14908 0.0
H30 H 0.24949 0.20374 0.07728 0.0
H31 H 0.44294 0.31309 0.17275 0.0
H32 H 0.31495 0.21806 0.17773 0.0
C33 C 0.82853 0.23514 0.13334 0.0
C34 C 0.83889 0.27569 0.12994 0.0
N35 N 0.82159 0.27845 0.10818 0.0
N36 N 0.80457 0.21248 0.11391 0.0
C37 C 0.80101 0.23971 0.09885 0.0
H38 H 0.83885 0.2232 0.14859 0.0
Co39 Co 0.7874 0.15778 0.10708 0.0
C40 C 0.69999 0.12306 0.08918 0.0
O41 O 0.68914 0.08651 0.09862 0.0
N42 N 0.77193 0.10247 0.09971 0.0
C43 C 0.76761 0.04094 0.10079 0.0
C44 C 0.78104 0.07751 0.11336 0.0
C45 C 0.75482 0.08082 0.07821 0.0
N46 N 0.75067 0.04274 0.07871 0.0
O47 O 0.81577 0.17407 0.07561 0.0
H48 H 0.79828 0.0855 0.13077 0.0
H49 H 0.74553 0.09291 0.0625 0.0
O50 O 0.73747 0.1522 0.09109 0.0
C51 C 0.85209 0.17943 0.07654 0.0
O52 O 0.865 0.17182 0.09793 0.0
N53 N 0.76165 0.1428 0.13923 0.0
C54 C 0.72505 0.10659 0.18514 0.0
C55 C 0.70543 0.12051 0.16851 0.0
C56 C 0.72499 0.13991 0.14593 0.0
C57 C 0.78375 0.13564 0.15697 0.0
C58 C 0.76574 0.11662 0.17988 0.0
H59 H 0.71006 0.15173 0.1339 0.0
H60 H 0.81489 0.14273 0.1527 0.0
H61 H 0.78538 0.23164 0.08075 0.0
H62 H 0.85794 0.30119 0.14241 0.0
H63 H 0.77171 0.01569 0.10707 0.0
H64 H 0.6749 0.11554 0.17263 0.0
H65 H 0.78266 0.10769 0.19258 0.0
C66 C 0.77171 0.60635 0.10957 0.0
C67 C 0.73 0.57869 0.10952 0.0
N68 N 0.72424 0.54237 0.10087 0.0
N69 N 0.79211 0.58766 0.10075 0.0
C70 C 0.76217 0.54844 0.09573 0.0
H71 H 0.78613 0.63868 0.11448 0.0
Co72 Co 0.84803 0.6166 0.09236 0.0
C73 C 0.8413 0.54601 0.06058 0.0
O74 O 0.84166 0.56115 0.03807 0.0
N75 N 0.90383 0.64719 0.08415 0.0
C76 C 0.96744 0.70078 0.08499 0.0
C77 C 0.92939 0.68261 0.09626 0.0
C78 C 0.927 0.64456 0.06535 0.0
N79 N 0.96615 0.67695 0.06544 0.0
O80 O 0.83377 0.62781 0.05998 0.0
H81 H 0.92036 0.69549 0.11164 0.0
H82 H 0.9151 0.62021 0.05142 0.0
O83 O 0.84422 0.56644 0.0805 0.0
C84 C 0.83351 0.66168 0.05947 0.0
O85 O 0.84558 0.68522 0.07975 0.0
N86 N 0.86236 0.60767 0.12481 0.0
C87 C 0.90148 0.61515 0.17112 0.0
C88 C 0.89783 0.58582 0.15316 0.0
C89 C 0.87879 0.58302 0.12995 0.0
C90 C 0.86241 0.63377 0.1428 0.0
C91 C 0.8821 0.63829 0.16601 0.0
H92 H 0.8799 0.56281 0.1158 0.0
H93 H 0.85023 0.65383 0.13829 0.0
H94 H 0.76742 0.52536 0.08698 0.0
H95 H 0.70568 0.58498 0.11471 0.0
H96 H 0.99325 0.7306 0.09 0.0
H97 H 0.91139 0.56655 0.15642 0.0
H98 H 0.88445 0.66178 0.17899 0.0
C99 C 0.18477 0.42506 0.35685 0.0
C100 C 0.17802 0.45798 0.3563 0.0
N101 N 0.19141 0.47884 0.37832 0.0
N102 N 0.20275 0.42532 0.37901 0.0
C103 C 0.20628 0.4583 0.39171 0.0
H104 H 0.17574 0.4016 0.34242 0.0
Co105 Co 0.21387 0.38521 0.39092 0.0
C106 C 0.30136 0.43366 0.40846 0.0
O107 O 0.30839 0.4042 0.40098 0.0
N108 N 0.22338 0.34338 0.40362 0.0
C109 C 0.22134 0.28344 0.40981 0.0
C110 C 0.21061 0.30547 0.39383 0.0
C111 C 0.23988 0.34254 0.42631 0.0
N112 N 0.24011 0.30697 0.43017 0.0
O113 O 0.18409 0.38089 0.42112 0.0
H114 H 0.1933 0.29338 0.3766 0.0
H115 H 0.25119 0.36747 0.43994 0.0
O116 O 0.2652 0.42895 0.40601 0.0
C117 C 0.14593 0.3544 0.41889 0.0
O118 O 0.13283 0.33499 0.39715 0.0
N119 N 0.24069 0.38776 0.35999 0.0
C120 C 0.27613 0.3796 0.31556 0.0
C121 C 0.29669 0.41556 0.3302 0.0
C122 C 0.27772 0.41966 0.35195 0.0
C123 C 0.21816 0.35546 0.34412 0.0
C124 C 0.23556 0.35019 0.32208 0.0
H125 H 0.2931 0.44843 0.36216 0.0
H126 H 0.18659 0.33321 0.34883 0.0
H127 H 0.21859 0.46639 0.41072 0.0
H128 H 0.16259 0.46479 0.34131 0.0
H129 H 0.21589 0.25251 0.40662 0.0
H130 H 0.32715 0.44014 0.32495 0.0
H131 H 0.21789 0.32262 0.31081 0.0
C132 C 0.60134 0.7664 0.36833 0.0
C133 C 0.57428 0.72443 0.36717 0.0
N134 N 0.54772 0.71381 0.38676 0.0
N135 N 0.59147 0.78202 0.38841 0.0
C136 C 0.559 0.74927 0.39932 0.0
H137 H 0.62638 0.78435 0.35535 0.0
Co138 Co 0.61578 0.83625 0.39963 0.0
C139 C 0.54677 0.83518 0.42749 0.0
O140 O 0.56978 0.85315 0.44746 0.0
N141 N 0.63959 0.89115 0.41111 0.0
C142 C 0.65282 0.95589 0.41545 0.0
C143 C 0.62955 0.9193 0.4029 0.0
C144 C 0.6686 0.91135 0.4291 0.0
N145 N 0.67719 0.95075 0.43193 0.0
O146 O 0.62277 0.81837 0.43226 0.0
H147 H 0.60603 0.91353 0.38906 0.0
H148 H 0.68297 0.89757 0.44011 0.0
O149 O 0.56217 0.82734 0.40825 0.0
C150 C 0.65432 0.81382 0.43134 0.0
O151 O 0.67592 0.82394 0.41025 0.0
N152 N 0.61201 0.85344 0.36707 0.0
C153 C 0.61968 0.8941 0.32164 0.0
C154 C 0.58075 0.86986 0.33278 0.0
C155 C 0.57741 0.84902 0.35545 0.0
C156 C 0.64955 0.87455 0.35565 0.0
C157 C 0.65412 0.89517 0.33289 0.0
H158 H 0.5474 0.83107 0.36408 0.0
H159 H 0.67643 0.8771 0.36503 0.0
H160 H 0.54342 0.75158 0.41598 0.0
H161 H 0.57436 0.7034 0.35311 0.0
H162 H 0.65087 0.98367 0.41339 0.0
H163 H 0.55341 0.86788 0.32437 0.0
H164 H 0.68471 0.91365 0.32492 0.0
C165 C 0.23328 0.82711 0.36229 0.0
C166 C 0.27337 0.83499 0.3631 0.0
N167 N 0.27905 0.8203 0.38516 0.0
N168 N 0.2137 0.80719 0.38363 0.0
C169 C 0.24239 0.80381 0.39723 0.0
H170 H 0.21946 0.83563 0.34721 0.0
Co171 Co 0.16021 0.79053 0.39369 0.0
C172 C 0.12774 0.7033 0.41092 0.0
O173 O 0.09006 0.6929 0.40395 0.0
N174 N 0.10611 0.77494 0.40455 0.0
C175 C 0.04409 0.76906 0.40837 0.0
C176 C 0.07734 0.78075 0.39272 0.0
C177 C 0.08978 0.76086 0.42782 0.0
N178 N 0.05189 0.75653 0.43047 0.0
O179 O 0.1811 0.81963 0.42473 0.0
H180 H 0.08023 0.7943 0.37433 0.0
H181 H 0.10593 0.75495 0.44279 0.0
O182 O 0.15672 0.74072 0.40837 0.0
C183 C 0.18503 0.85543 0.42405 0.0
O184 O 0.17369 0.86678 0.40341 0.0
N185 N 0.14073 0.76465 0.36198 0.0
C186 C 0.10278 0.73072 0.31578 0.0
C187 C 0.11848 0.71084 0.33091 0.0
C188 C 0.13821 0.72881 0.35375 0.0
C189 C 0.13138 0.7871 0.3458 0.0
C190 C 0.11117 0.77029 0.32301 0.0
H191 H 0.15128 0.71371 0.36454 0.0
H192 H 0.13801 0.81771 0.35123 0.0
H193 H 0.23668 0.7905 0.41601 0.0
H194 H 0.29635 0.85012 0.34845 0.0
H195 H 0.01647 0.77023 0.40388 0.0
H196 H 0.11524 0.6815 0.3253 0.0
H197 H 0.10077 0.7876 0.31183 0.0
C198 C 0.63152 0.86031 0.88619 0.0
C199 C 0.60848 0.87973 0.88428 0.0
N200 N 0.56873 0.85135 0.88846 0.0
N201 N 0.60631 0.82017 0.89195 0.0
C202 C 0.56823 0.81573 0.89297 0.0
H203 H 0.66471 0.87492 0.88463 0.0
Co204 Co 0.62236 0.78247 0.90174 0.0
C205 C 0.54712 0.71866 0.92704 0.0
O206 O 0.56767 0.72091 0.94773 0.0
N207 N 0.63828 0.74417 0.91158 0.0
C208 C 0.63732 0.68461 0.91671 0.0
C209 C 0.61834 0.70368 0.90531 0.0
C210 C 0.66993 0.74909 0.92636 0.0
N211 N 0.66975 0.71325 0.92989 0.0
O212 O 0.62851 0.80291 0.93543 0.0
H213 H 0.59099 0.68858 0.89364 0.0
H214 H 0.69195 0.7779 0.93513 0.0
O215 O 0.5658 0.7416 0.90815 0.0
C216 C 0.66411 0.83374 0.93969 0.0
O217 O 0.69262 0.84517 0.92208 0.0
N218 N 0.61885 0.76513 0.86841 0.0
C219 C 0.62566 0.73486 0.82175 0.0
C220 C 0.5867 0.72209 0.83229 0.0
C221 C 0.58386 0.73816 0.85563 0.0
C222 C 0.6567 0.77978 0.8577 0.0
C223 C 0.66086 0.76509 0.8343 0.0
H224 H 0.55372 0.72745 0.86376 0.0
H225 H 0.68394 0.80144 0.86809 0.0
H226 H 0.54068 0.78772 0.89843 0.0
H227 H 0.62003 0.91218 0.88068 0.0
H228 H 0.6278 0.65215 0.91566 0.0
H229 H 0.55886 0.69916 0.8229 0.0
H230 H 0.69147 0.77556 0.8268 0.0
C231 C 0.19923 0.76635 0.85719 0.0
C232 C 0.19136 0.72629 0.85764 0.0
N233 N 0.20348 0.71939 0.88025 0.0
N234 N 0.2169 0.7849 0.87927 0.0
C235 C 0.21894 0.75544 0.89298 0.0
H236 H 0.19095 0.78046 0.84214 0.0
Co237 Co 0.22784 0.83676 0.89007 0.0
C238 C 0.31791 0.88187 0.89839 0.0
O239 O 0.3193 0.91424 0.88761 0.0
N240 N 0.23662 0.88852 0.90189 0.0
C241 C 0.2257 0.9408 0.90984 0.0
C242 C 0.21379 0.90599 0.89559 0.0
C243 C 0.26033 0.91219 0.92135 0.0
N244 N 0.25538 0.94504 0.92597 0.0
O245 O 0.20408 0.81357 0.92215 0.0
H246 H 0.18774 0.89289 0.88292 0.0
H247 H 0.28017 0.90488 0.93237 0.0
O248 O 0.28298 0.849 0.90178 0.0
C249 C 0.16648 0.80423 0.92388 0.0
O250 O 0.14927 0.81232 0.9047 0.0
N251 N 0.24908 0.85845 0.85731 0.0
C252 C 0.28135 0.89758 0.81117 0.0
C253 C 0.29923 0.87766 0.82399 0.0
C254 C 0.28158 0.85683 0.84658 0.0
C255 C 0.22818 0.87259 0.84323 0.0
C256 C 0.24422 0.89314 0.82039 0.0
H257 H 0.29483 0.84034 0.85575 0.0
H258 H 0.19876 0.86774 0.84951 0.0
H259 H 0.23021 0.75994 0.91226 0.0
H260 H 0.17577 0.70334 0.84302 0.0
H261 H 0.21172 0.96008 0.90929 0.0
H262 H 0.32672 0.87847 0.81674 0.0
H263 H 0.22833 0.90648 0.81048 0.0
C264 C 0.22751 0.42072 0.86018 0.0
C265 C 0.266 0.45543 0.85855 0.0
N266 N 0.27409 0.47595 0.88073 0.0
N267 N 0.21149 0.41965 0.88323 0.0
C268 C 0.24053 0.45355 0.89528 0.0
H269 H 0.21261 0.39721 0.84581 0.0
Co270 Co 0.16327 0.37794 0.89733 0.0
C271 C 0.12568 0.42872 0.91405 0.0
O272 O 0.08947 0.40203 0.9046 0.0
N273 N 0.11565 0.33447 0.91206 0.0
C274 C 0.07225 0.26924 0.92284 0.0
C275 C 0.10571 0.29488 0.90827 0.0
C276 C 0.08905 0.3321 0.93028 0.0
N277 N 0.06153 0.29266 0.93665 0.0
O278 O 0.1936 0.3767 0.92605 0.0
H279 H 0.12297 0.28528 0.89641 0.0
H280 H 0.09076 0.35852 0.93964 0.0
O281 O 0.15507 0.4206 0.91346 0.0
C282 C 0.21425 0.35858 0.92219 0.0
O283 O 0.21407 0.34447 0.89935 0.0
N284 N 0.13381 0.3775 0.86797 0.0
C285 C 0.08822 0.37118 0.82467 0.0
C286 C 0.11105 0.40914 0.83708 0.0
C287 C 0.13472 0.41192 0.85829 0.0
C288 C 0.11442 0.34134 0.8548 0.0
C289 C 0.09095 0.33729 0.8334 0.0
H290 H 0.15367 0.44178 0.86694 0.0
H291 H 0.11741 0.31538 0.86054 0.0
H292 H 0.23799 0.46038 0.91489 0.0
H293 H 0.28663 0.46445 0.84245 0.0
H294 H 0.05824 0.23602 0.92405 0.0
H295 H 0.11104 0.43645 0.83027 0.0
H296 H 0.07464 0.30765 0.82396 0.0
C297 C 0.82156 0.59074 0.63779 0.0
C298 C 0.8283 0.55783 0.6376 0.0
N299 N 0.81313 0.53675 0.61581 0.0
N300 N 0.80185 0.59028 0.61635 0.0
C301 C 0.7975 0.55733 0.60323 0.0
H302 H 0.83145 0.61412 0.65234 0.0
Co303 Co 0.78836 0.62958 0.60633 0.0
C304 C 0.70242 0.57873 0.5855 0.0
O305 O 0.69189 0.60577 0.59286 0.0
N306 N 0.77646 0.67088 0.59591 0.0
C307 C 0.77395 0.7291 0.59439 0.0
C308 C 0.78539 0.70579 0.60858 0.0
C309 C 0.76147 0.67499 0.57339 0.0
N310 N 0.75864 0.70963 0.57226 0.0
O311 O 0.81948 0.63852 0.57619 0.0
H312 H 0.80045 0.71506 0.6267 0.0
H313 H 0.75311 0.6531 0.55801 0.0
O314 O 0.73917 0.58596 0.58949 0.0
C315 C 0.85755 0.66508 0.57862 0.0
O316 O 0.87074 0.68318 0.60071 0.0
N317 N 0.75987 0.62203 0.63722 0.0
C318 C 0.72256 0.62506 0.68211 0.0
C319 C 0.70193 0.59164 0.66552 0.0
C320 C 0.72177 0.58998 0.6435 0.0
C321 C 0.78216 0.6515 0.65482 0.0
C322 C 0.76391 0.65414 0.67722 0.0
H323 H 0.70615 0.56298 0.63174 0.0
H324 H 0.814 0.67413 0.65095 0.0
H325 H 0.78385 0.54916 0.58458 0.0
H326 H 0.84457 0.55097 0.65201 0.0
H327 H 0.77661 0.75814 0.60007 0.0
H328 H 0.67066 0.56733 0.6694 0.0
H329 H 0.78142 0.67981 0.68994 0.0
C330 C 0.42484 0.24209 0.63357 0.0
C331 C 0.45796 0.2816 0.63463 0.0
N332 N 0.47809 0.29024 0.61228 0.0
N333 N 0.42431 0.22574 0.61074 0.0
C334 C 0.45695 0.25576 0.59817 0.0
H335 H 0.40181 0.22678 0.64815 0.0
Co336 Co 0.38368 0.17545 0.59816 0.0
C337 C 0.4349 0.13871 0.58117 0.0
O338 O 0.40801 0.10244 0.59048 0.0
N339 N 0.34091 0.12533 0.58502 0.0
C340 C 0.27622 0.07618 0.57727 0.0
C341 C 0.30098 0.11079 0.59121 0.0
C342 C 0.33912 0.10031 0.56588 0.0
N343 N 0.30025 0.06926 0.56141 0.0
O344 O 0.37915 0.20244 0.56873 0.0
H345 H 0.29001 0.12577 0.60397 0.0
H346 H 0.36543 0.10551 0.55469 0.0
O347 O 0.42721 0.1684 0.5821 0.0
C348 C 0.35582 0.21768 0.57241 0.0
O349 O 0.34025 0.21468 0.59516 0.0
N350 N 0.38625 0.14931 0.62835 0.0
C351 C 0.38185 0.10587 0.67224 0.0
C352 C 0.41871 0.12633 0.65845 0.0
C353 C 0.42071 0.14925 0.63701 0.0
C354 C 0.35183 0.13328 0.64316 0.0
C355 C 0.34866 0.11084 0.66491 0.0
H356 H 0.44991 0.16667 0.62739 0.0
H357 H 0.32668 0.13817 0.63836 0.0
H358 H 0.4643 0.25262 0.57877 0.0
H359 H 0.4654 0.30291 0.65026 0.0
H360 H 0.24285 0.05877 0.5779 0.0
H361 H 0.44568 0.12481 0.66427 0.0
H362 H 0.32008 0.09671 0.67556 0.0
C363 C 0.76514 0.17998 0.63123 0.0
C364 C 0.72462 0.17062 0.63114 0.0
N365 N 0.71813 0.18735 0.61026 0.0
N366 N 0.78435 0.20296 0.61067 0.0
C367 C 0.75481 0.20651 0.5981 0.0
H368 H 0.77942 0.16997 0.64518 0.0
Co369 Co 0.83872 0.22209 0.60112 0.0
C370 C 0.86906 0.30847 0.58306 0.0
O371 O 0.90696 0.3198 0.59003 0.0
N372 N 0.89381 0.24013 0.59098 0.0
C373 C 0.95783 0.25061 0.58879 0.0
C374 C 0.92375 0.23772 0.60391 0.0
C375 C 0.91041 0.25355 0.56767 0.0
N376 N 0.94947 0.26068 0.56601 0.0
O377 O 0.81943 0.19302 0.56989 0.0
H378 H 0.92128 0.22602 0.62282 0.0
H379 H 0.89382 0.25733 0.55207 0.0
O380 O 0.84049 0.27099 0.58622 0.0
C381 C 0.82293 0.16104 0.56745 0.0
O382 O 0.84089 0.15154 0.58552 0.0
N383 N 0.85647 0.24797 0.63303 0.0
C384 C 0.89039 0.28069 0.68021 0.0
C385 C 0.87726 0.30166 0.66411 0.0
C386 C 0.85918 0.28412 0.64084 0.0
C387 C 0.86444 0.22511 0.64975 0.0
C388 C 0.88214 0.24112 0.67326 0.0
H389 H 0.84756 0.29989 0.62941 0.0
H390 H 0.85874 0.19483 0.64424 0.0
H391 H 0.76007 0.22259 0.58025 0.0
H392 H 0.70145 0.15192 0.64503 0.0
H393 H 0.98652 0.2522 0.59413 0.0
H394 H 0.88123 0.33142 0.66938 0.0
H395 H 0.89101 0.22342 0.68531 0.0
C396 C 0.62573 0.10218 0.08376 0.0
C397 C 0.6673 0.13343 0.08378 0.0
C398 C 0.59397 0.11175 0.08469 0.0
C399 C 0.60402 0.15359 0.08565 0.0
C400 C 0.64571 0.18525 0.0834 0.0
C401 C 0.67689 0.1748 0.08245 0.0
C402 C 0.54985 0.07704 0.08672 0.0
C403 C 0.65773 0.23024 0.08414 0.0
C404 C 0.51611 0.17679 0.08076 0.0
C405 C 0.50733 0.17884 0.10641 0.0
C406 C 0.54806 0.16943 0.07358 0.0
C407 C 0.57168 0.16396 0.0925 0.0
C408 C 0.56361 0.16704 0.11839 0.0
C409 C 0.53161 0.17446 0.125 0.0
C410 C 0.55591 0.16657 0.0458 0.0
C411 C 0.58832 0.16172 0.13919 0.0
H412 H 0.61796 0.07012 0.08446 0.0
H413 H 0.70884 0.19925 0.0823 0.0
H414 H 0.53852 0.07589 0.10631 0.0
H415 H 0.52964 0.08235 0.07377 0.0
H416 H 0.54674 0.04658 0.08225 0.0
H417 H 0.68965 0.25044 0.07717 0.0
H418 H 0.63635 0.23597 0.07258 0.0
H419 H 0.65594 0.23916 0.10395 0.0
H420 H 0.49724 0.17971 0.06628 0.0
H421 H 0.52548 0.17673 0.14481 0.0
H422 H 0.54934 0.13488 0.04129 0.0
H423 H 0.58885 0.18793 0.04124 0.0
H424 H 0.53651 0.17404 0.03343 0.0
H425 H 0.58449 0.13036 0.13815 0.0
H426 H 0.57879 0.16603 0.15836 0.0
H427 H 0.62163 0.18422 0.13668 0.0
C428 C 0.86102 0.35351 0.10055 0.0
C429 C 0.82523 0.31522 0.09693 0.0
C430 C 0.86395 0.38995 0.09115 0.0
C431 C 0.83004 0.38812 0.07805 0.0
C432 C 0.7945 0.34935 0.07336 0.0
C433 C 0.79261 0.31333 0.0828 0.0
C434 C 0.90266 0.43062 0.0962 0.0
C435 C 0.7574 0.3459 0.0598 0.0
C436 C 0.82039 0.48331 0.08665 0.0
C437 C 0.83592 0.50429 0.06367 0.0
C438 C 0.8169 0.44483 0.09107 0.0
C439 C 0.83003 0.42703 0.07223 0.0
C440 C 0.84487 0.44748 0.04871 0.0
C441 C 0.84731 0.48586 0.04459 0.0
C442 C 0.80004 0.42371 0.1162 0.0
C443 C 0.85914 0.42934 0.02823 0.0
H444 H 0.88667 0.35501 0.11096 0.0
H445 H 0.76488 0.28382 0.08002 0.0
H446 H 0.9138 0.44893 0.0785 0.0
H447 H 0.89579 0.4489 0.10989 0.0
H448 H 0.92782 0.42639 0.10412 0.0
H449 H 0.7373 0.31436 0.05215 0.0
H450 H 0.73897 0.35283 0.07333 0.0
H451 H 0.7667 0.36834 0.04398 0.0
H452 H 0.81108 0.4971 0.10142 0.0
H453 H 0.85935 0.50199 0.02682 0.0
H454 H 0.82443 0.42141 0.12679 0.0
H455 H 0.7742 0.39183 0.11311 0.0
H456 H 0.78878 0.44049 0.12817 0.0
H457 H 0.88615 0.42736 0.03506 0.0
H458 H 0.86797 0.44802 0.01058 0.0
H459 H 0.83441 0.39746 0.02373 0.0
C460 C 0.67598 0.46805 0.10607 0.0
C461 C 0.68534 0.50613 0.09564 0.0
C462 C 0.63652 0.43326 0.1031 0.0
C463 C 0.60634 0.43655 0.08864 0.0
C464 C 0.61672 0.47452 0.0768 0.0
C465 C 0.65589 0.50906 0.08084 0.0
C466 C 0.62644 0.39378 0.11666 0.0
C467 C 0.58602 0.47907 0.06057 0.0
C468 C 0.50808 0.33729 0.0704 0.0
C469 C 0.4799 0.33702 0.08799 0.0
C470 C 0.54929 0.3699 0.06996 0.0
C471 C 0.56278 0.40192 0.0882 0.0
C472 C 0.53442 0.40124 0.10623 0.0
C473 C 0.49327 0.36925 0.10561 0.0
C474 C 0.57827 0.37026 0.04995 0.0
C475 C 0.54768 0.43395 0.12653 0.0
H476 H 0.699 0.46612 0.11752 0.0
H477 H 0.66361 0.53858 0.07255 0.0
H478 H 0.60326 0.38751 0.13168 0.0
H479 H 0.61261 0.36729 0.10337 0.0
H480 H 0.6541 0.39534 0.12554 0.0
H481 H 0.6006 0.50875 0.05001 0.0
H482 H 0.57134 0.45328 0.04679 0.0
H483 H 0.56116 0.47776 0.07268 0.0
H484 H 0.49778 0.31225 0.05686 0.0
H485 H 0.4718 0.36871 0.11962 0.0
H486 H 0.60428 0.36884 0.05899 0.0
H487 H 0.59168 0.39953 0.03906 0.0
H488 H 0.56261 0.34397 0.03655 0.0
H489 H 0.57387 0.43579 0.13746 0.0
H490 H 0.52229 0.42774 0.13991 0.0
H491 H 0.55853 0.4646 0.11771 0.0
C492 C 0.18493 0.53988 0.36854 0.0
C493 C 0.18694 0.51328 0.38647 0.0
C494 C 0.17739 0.57157 0.37586 0.0
C495 C 0.17188 0.57706 0.40183 0.0
C496 C 0.17535 0.55135 0.42016 0.0
C497 C 0.18276 0.5197 0.41227 0.0
C498 C 0.17432 0.59857 0.3557 0.0
C499 C 0.1702 0.55661 0.44803 0.0
C500 C 0.18006 0.68045 0.41597 0.0
C501 C 0.1386 0.67041 0.4142 0.0
C502 C 0.19131 0.64992 0.41364 0.0
C503 C 0.16039 0.60841 0.40936 0.0
C504 C 0.11834 0.59768 0.4095 0.0
C505 C 0.10796 0.62876 0.41201 0.0
C506 C 0.23649 0.66273 0.41395 0.0
C507 C 0.08437 0.55375 0.40517 0.0
H508 H 0.18897 0.53572 0.34865 0.0
H509 H 0.18394 0.4992 0.42629 0.0
H510 H 0.14296 0.59481 0.35588 0.0
H511 H 0.19657 0.63152 0.35968 0.0
H512 H 0.18055 0.59106 0.33641 0.0
H513 H 0.17671 0.5361 0.46001 0.0
H514 H 0.19111 0.5891 0.45381 0.0
H515 H 0.13817 0.5496 0.4518 0.0
H516 H 0.20404 0.71244 0.41784 0.0
H517 H 0.07582 0.62053 0.41085 0.0
H518 H 0.24764 0.66535 0.39418 0.0
H519 H 0.24168 0.63952 0.4238 0.0
H520 H 0.25533 0.69308 0.42335 0.0
H521 H 0.08582 0.54468 0.38534 0.0
H522 H 0.05326 0.54976 0.40851 0.0
H523 H 0.08842 0.53231 0.41777 0.0
C524 C 0.49977 0.66295 0.41778 0.0
C525 C 0.51332 0.6736 0.39266 0.0
C526 C 0.46538 0.62449 0.42371 0.0
C527 C 0.44396 0.59604 0.40404 0.0
C528 C 0.45766 0.60647 0.37867 0.0
C529 C 0.49222 0.64506 0.37331 0.0
C530 C 0.45194 0.61434 0.45099 0.0
C531 C 0.43553 0.577 0.35712 0.0
C532 C 0.37684 0.48095 0.41511 0.0
C533 C 0.3371 0.47554 0.41259 0.0
C534 C 0.41196 0.52036 0.41378 0.0
C535 C 0.40723 0.55518 0.40975 0.0
C536 C 0.36716 0.55023 0.40894 0.0
C537 C 0.33254 0.51045 0.41048 0.0
C538 C 0.45413 0.52439 0.41511 0.0
C539 C 0.3608 0.58661 0.40477 0.0
H540 H 0.51629 0.6846 0.43287 0.0
H541 H 0.50217 0.65328 0.35386 0.0
H542 H 0.41979 0.608 0.45315 0.0
H543 H 0.45223 0.58597 0.45676 0.0
H544 H 0.47211 0.63976 0.46408 0.0
H545 H 0.45009 0.58981 0.33847 0.0
H546 H 0.43533 0.54756 0.36025 0.0
H547 H 0.40291 0.56964 0.35643 0.0
H548 H 0.38063 0.45417 0.41699 0.0
H549 H 0.30199 0.50663 0.40853 0.0
H550 H 0.47431 0.54938 0.4284 0.0
H551 H 0.46889 0.5328 0.39616 0.0
H552 H 0.4526 0.49525 0.42127 0.0
H553 H 0.38008 0.61199 0.41807 0.0
H554 H 0.32802 0.57823 0.40723 0.0
H555 H 0.37059 0.59866 0.38527 0.0
C556 C 0.49075 0.84902 0.4415 0.0
C557 C 0.50428 0.82813 0.42561 0.0
C558 C 0.45243 0.84654 0.43741 0.0
C559 C 0.42722 0.82255 0.41702 0.0
C560 C 0.4398 0.79964 0.40183 0.0
C561 C 0.47813 0.8027 0.40632 0.0
C562 C 0.43961 0.87078 0.45426 0.0
C563 C 0.41358 0.77324 0.38014 0.0
C564 C 0.31448 0.79316 0.41188 0.0
C565 C 0.31634 0.82194 0.39407 0.0
C566 C 0.3504 0.79374 0.42023 0.0
C567 C 0.38913 0.82355 0.41031 0.0
C568 C 0.39135 0.85317 0.39271 0.0
C569 C 0.35499 0.85207 0.38488 0.0
C570 C 0.34654 0.76148 0.43895 0.0
C571 C 0.43212 0.88556 0.38174 0.0
H572 H 0.51074 0.86861 0.45649 0.0
H573 H 0.48807 0.78586 0.39423 0.0
H574 H 0.43872 0.89542 0.44307 0.0
H575 H 0.40807 0.85037 0.46176 0.0
H576 H 0.46106 0.88529 0.47046 0.0
H577 H 0.42665 0.75545 0.37111 0.0
H578 H 0.38195 0.75126 0.38688 0.0
H579 H 0.41089 0.7931 0.36553 0.0
H580 H 0.28486 0.76948 0.41893 0.0
H581 H 0.35692 0.87492 0.37152 0.0
H582 H 0.37178 0.77484 0.45314 0.0
H583 H 0.34873 0.73676 0.42869 0.0
H584 H 0.31653 0.74718 0.44912 0.0
H585 H 0.45384 0.90346 0.39719 0.0
H586 H 0.42875 0.90735 0.36901 0.0
H587 H 0.44625 0.87042 0.37081 0.0
C588 C 0.38782 0.90229 0.88224 0.0
C589 C 0.35638 0.88007 0.89992 0.0
C590 C 0.42305 0.8983 0.88123 0.0
C591 C 0.42765 0.87242 0.89886 0.0
C592 C 0.3967 0.85101 0.9174 0.0
C593 C 0.36094 0.85449 0.91741 0.0
C594 C 0.45456 0.92056 0.86063 0.0
C595 C 0.40111 0.82403 0.93695 0.0
C596 C 0.49629 0.8292 0.87948 0.0
C597 C 0.53395 0.85754 0.89055 0.0
C598 C 0.46137 0.83354 0.88215 0.0
C599 C 0.46397 0.86639 0.89692 0.0
C600 C 0.50184 0.89467 0.90859 0.0
C601 C 0.53663 0.89024 0.90493 0.0
C602 C 0.42195 0.80343 0.86879 0.0
C603 C 0.50551 0.92937 0.92503 0.0
H604 H 0.3841 0.92155 0.86836 0.0
H605 H 0.33661 0.83727 0.93105 0.0
H606 H 0.48536 0.9409 0.86907 0.0
H607 H 0.45724 0.89778 0.84849 0.0
H608 H 0.44639 0.93963 0.84844 0.0
H609 H 0.37626 0.81262 0.95144 0.0
H610 H 0.40014 0.79703 0.92756 0.0
H611 H 0.43141 0.8414 0.94661 0.0
H612 H 0.49446 0.80391 0.86843 0.0
H613 H 0.56567 0.91159 0.91387 0.0
H614 H 0.41272 0.82031 0.85544 0.0
H615 H 0.39658 0.78764 0.88271 0.0
H616 H 0.42515 0.77964 0.85803 0.0
H617 H 0.50001 0.95096 0.91353 0.0
H618 H 0.53636 0.94703 0.93406 0.0
H619 H 0.48162 0.91685 0.9401 0.0
C620 C 0.17611 0.50265 0.92456 0.0
C621 C 0.1358 0.47209 0.91816 0.0
C622 C 0.18858 0.54477 0.92275 0.0
C623 C 0.16014 0.55663 0.91422 0.0
C624 C 0.11852 0.52599 0.90994 0.0
C625 C 0.10683 0.48412 0.91204 0.0
C626 C 0.23306 0.5762 0.92808 0.0
C627 C 0.08702 0.53728 0.90118 0.0
C628 C 0.18524 0.66874 0.91498 0.0
C629 C 0.19632 0.68013 0.8896 0.0
C630 C 0.17434 0.62896 0.92357 0.0
C631 C 0.17478 0.60008 0.90639 0.0
C632 C 0.18755 0.61206 0.88103 0.0
C633 C 0.19794 0.65182 0.87295 0.0
C634 C 0.16128 0.61745 0.95078 0.0
C635 C 0.18932 0.58253 0.86222 0.0
H636 H 0.19867 0.49382 0.92969 0.0
H637 H 0.07548 0.46087 0.90731 0.0
H638 H 0.25102 0.58318 0.91022 0.0
H639 H 0.2365 0.6055 0.9355 0.0
H640 H 0.24661 0.56406 0.94198 0.0
H641 H 0.0551 0.51053 0.90187 0.0
H642 H 0.08848 0.5625 0.913 0.0
H643 H 0.09393 0.54867 0.88136 0.0
H644 H 0.18359 0.6904 0.92788 0.0
H645 H 0.20707 0.66078 0.85345 0.0
H646 H 0.17892 0.60408 0.95957 0.0
H647 H 0.12815 0.59349 0.95152 0.0
H648 H 0.16592 0.64437 0.96222 0.0
H649 H 0.20947 0.57097 0.86957 0.0
H650 H 0.20124 0.5971 0.84345 0.0
H651 H 0.15804 0.55541 0.85959 0.0
C652 C 0.47986 0.68844 0.90431 0.0
C653 C 0.50384 0.68553 0.92375 0.0
C654 C 0.44056 0.65539 0.89872 0.0
C655 C 0.42519 0.61824 0.91257 0.0
C656 C 0.44838 0.6157 0.93298 0.0
C657 C 0.48744 0.64955 0.93845 0.0
C658 C 0.41601 0.6598 0.87748 0.0
C659 C 0.43241 0.57678 0.94849 0.0
C660 C 0.31127 0.53878 0.90683 0.0
C661 C 0.31185 0.51205 0.88839 0.0
C662 C 0.34787 0.57323 0.9152 0.0
C663 C 0.386 0.58132 0.90468 0.0
C664 C 0.38682 0.55448 0.88605 0.0
C665 C 0.34974 0.52022 0.87811 0.0
C666 C 0.3451 0.60117 0.93479 0.0
C667 C 0.42695 0.56187 0.87458 0.0
H668 H 0.49213 0.71629 0.89303 0.0
H669 H 0.5058 0.64714 0.95351 0.0
H670 H 0.41203 0.63817 0.86192 0.0
H671 H 0.38476 0.65155 0.88433 0.0
H672 H 0.43115 0.69166 0.86969 0.0
H673 H 0.45344 0.58028 0.96435 0.0
H674 H 0.40161 0.56803 0.9564 0.0
H675 H 0.42855 0.55101 0.93619 0.0
H676 H 0.28206 0.53295 0.9146 0.0
H677 H 0.3505 0.49936 0.86418 0.0
H678 H 0.33984 0.62441 0.92501 0.0
H679 H 0.37358 0.61781 0.9463 0.0
H680 H 0.31874 0.58336 0.94782 0.0
H681 H 0.44259 0.59225 0.86487 0.0
H682 H 0.42235 0.53762 0.86068 0.0
H683 H 0.44796 0.5628 0.88973 0.0
C684 C 0.81581 0.49297 0.58142 0.0
C685 C 0.81556 0.5013 0.60736 0.0
C686 C 0.82104 0.46014 0.57312 0.0
C687 C 0.82646 0.43529 0.59118 0.0
C688 C 0.82479 0.44264 0.61735 0.0
C689 C 0.81917 0.47535 0.62508 0.0
C690 C 0.82218 0.45296 0.54507 0.0
C691 C 0.83024 0.41673 0.63727 0.0
C692 C 0.81622 0.33073 0.57881 0.0
C693 C 0.85777 0.34084 0.57899 0.0
C694 C 0.80534 0.36154 0.58084 0.0
C695 C 0.83676 0.40335 0.58313 0.0
C696 C 0.87864 0.41393 0.5811 0.0
C697 C 0.88862 0.38257 0.57895 0.0
C698 C 0.76028 0.349 0.58247 0.0
C699 C 0.91313 0.45816 0.58329 0.0
H700 H 0.81328 0.51287 0.56753 0.0
H701 H 0.81799 0.48083 0.64512 0.0
H702 H 0.85397 0.46126 0.53943 0.0
H703 H 0.80175 0.41985 0.54045 0.0
H704 H 0.81256 0.47162 0.5336 0.0
H705 H 0.82657 0.42548 0.65681 0.0
H706 H 0.80744 0.3836 0.63436 0.0
H707 H 0.86143 0.4203 0.63557 0.0
H708 H 0.79208 0.29865 0.57859 0.0
H709 H 0.92081 0.39077 0.57876 0.0
H710 H 0.75373 0.36979 0.57087 0.0
H711 H 0.75238 0.35159 0.6024 0.0
H712 H 0.73989 0.31667 0.5761 0.0
H713 H 0.90727 0.47851 0.5708 0.0
H714 H 0.9436 0.46173 0.57833 0.0
H715 H 0.91462 0.46899 0.60305 0.0
C716 C 0.62791 0.52465 0.58276 0.0
C717 C 0.66951 0.53561 0.58046 0.0
C718 C 0.59675 0.48311 0.58419 0.0
C719 C 0.60742 0.45176 0.5831 0.0
C720 C 0.64886 0.46248 0.57847 0.0
C721 C 0.67942 0.50431 0.57716 0.0
C722 C 0.55286 0.47299 0.58893 0.0
C723 C 0.66146 0.42998 0.5768 0.0
C724 C 0.53948 0.35705 0.62268 0.0
C725 C 0.51248 0.3294 0.60451 0.0
C726 C 0.57113 0.39651 0.6158 0.0
C727 C 0.57622 0.40866 0.59003 0.0
C728 C 0.55015 0.38043 0.57143 0.0
C729 C 0.51849 0.34117 0.57889 0.0
C730 C 0.59843 0.42564 0.63625 0.0
C731 C 0.55484 0.39215 0.54376 0.0
H732 H 0.61978 0.54851 0.58504 0.0
H733 H 0.71135 0.51236 0.57496 0.0
H734 H 0.5313 0.44802 0.57609 0.0
H735 H 0.54398 0.46171 0.60865 0.0
H736 H 0.54888 0.50026 0.58626 0.0
H737 H 0.69336 0.44275 0.5694 0.0
H738 H 0.66003 0.41703 0.59592 0.0
H739 H 0.63995 0.40415 0.56443 0.0
H740 H 0.53565 0.34796 0.64241 0.0
H741 H 0.49765 0.32028 0.5647 0.0
H742 H 0.59453 0.45316 0.63696 0.0
H743 H 0.63132 0.43666 0.63188 0.0
H744 H 0.5913 0.41097 0.65527 0.0
H745 H 0.54647 0.41641 0.54079 0.0
H746 H 0.53495 0.36541 0.53142 0.0
H747 H 0.58742 0.40519 0.53772 0.0
C748 C 0.67033 0.18419 0.57671 0.0
C749 C 0.67966 0.18417 0.60248 0.0
C750 C 0.63198 0.17896 0.56905 0.0
C751 C 0.60236 0.17368 0.5876 0.0
C752 C 0.61209 0.17474 0.61361 0.0
C753 C 0.65052 0.17994 0.62069 0.0
C754 C 0.62274 0.17798 0.54115 0.0
C755 C 0.58156 0.16959 0.63404 0.0
C756 C 0.51061 0.18886 0.57642 0.0
C757 C 0.47787 0.1479 0.57674 0.0
C758 C 0.55177 0.19788 0.57821 0.0
C759 C 0.56037 0.16516 0.58018 0.0
C760 C 0.52769 0.12382 0.57831 0.0
C761 C 0.48686 0.1157 0.57664 0.0
C762 C 0.58569 0.2424 0.57999 0.0
C763 C 0.5355 0.088 0.58003 0.0
H764 H 0.69252 0.1871 0.56251 0.0
H765 H 0.6578 0.1807 0.64061 0.0
H766 H 0.59729 0.14687 0.53589 0.0
H767 H 0.61223 0.20029 0.53682 0.0
H768 H 0.65001 0.18538 0.52918 0.0
H769 H 0.59446 0.17262 0.65339 0.0
H770 H 0.57188 0.19301 0.6317 0.0
H771 H 0.55347 0.13875 0.63236 0.0
H772 H 0.50411 0.21402 0.57639 0.0
H773 H 0.46183 0.08396 0.57662 0.0
H774 H 0.61218 0.2481 0.56781 0.0
H775 H 0.59709 0.24941 0.59979 0.0
H776 H 0.57484 0.26404 0.57442 0.0
H777 H 0.56127 0.09298 0.56738 0.0
H778 H 0.50775 0.05823 0.57494 0.0
H779 H 0.5446 0.08559 0.59968 0.0
C780 C 0.37199 0.128 0.02812 0.0
C781 C 0.34237 0.12128 0.0466 0.0
C782 C 0.36214 0.10073 0.00751 0.0
C783 C 0.32156 0.06666 0.00517 0.0
C784 C 0.29149 0.0603 0.02363 0.0
C785 C 0.30238 0.08742 0.04419 0.0
C786 C 0.39515 0.10806 0.98842 0.0
C787 C 0.24766 0.02489 0.02162 0.0
C788 C 0.27676 0.01491 0.94219 0.0
C789 C 0.27556 0.97696 0.94491 0.0
C790 C 0.29331 0.04516 0.96117 0.0
C791 C 0.30974 0.03768 0.98335 0.0
C792 C 0.3107 1.00045 0.9857 0.0
C793 C 0.2934 0.97044 0.96654 0.0
C794 C 0.29144 0.08433 0.95797 0.0
C795 C 0.32838 0.99153 0.00897 0.0
H796 H 0.40301 0.15399 0.03006 0.0
H797 H 0.27927 0.08229 0.05834 0.0
H798 H 0.39922 0.08066 0.98749 0.0
H799 H 0.38567 0.11235 0.96928 0.0
H800 H 0.42532 0.13558 0.99313 0.0
H801 H 0.22785 0.02469 0.03737 0.0
H802 H 0.23385 0.02679 0.00343 0.0
H803 H 0.24736 0.99508 0.02174 0.0
H804 H 0.26419 0.02089 0.9253 0.0
H805 H 0.2927 0.94138 0.96899 0.0
H806 H 0.32222 0.11176 0.96133 0.0
H807 H 0.27 0.08511 0.9722 0.0
H808 H 0.28068 0.08687 0.93879 0.0
H809 H 0.35913 0.01825 0.01351 0.0
H810 H 0.33148 0.96369 0.00657 0.0
H811 H 0.30798 0.98652 0.02545 0.0
C812 C 0.87185 0.21409 0.03409 0.0
C813 C 0.88027 0.19553 0.05455 0.0
C814 C 0.89981 0.23132 0.01385 0.0
C815 C 0.9367 0.22944 0.01402 0.0
C816 C 0.94496 0.21016 0.03446 0.0
C817 C 0.91676 0.19365 0.05451 0.0
C818 C 0.89018 0.25196 0.99247 0.0
C819 C 0.98369 0.20705 0.0352 0.0
C820 C 0.9947 0.23807 0.95333 0.0
C821 C 0.02885 0.2781 0.95521 0.0
C822 C 0.9638 0.2223 0.97192 0.0
C823 C 0.9668 0.24727 0.99284 0.0
C824 C 1.00028 0.28824 0.99442 0.0
C825 C 0.03098 0.30313 0.97563 0.0
C826 C 0.92862 0.17842 0.96958 0.0
C827 C 0.00439 0.3159 0.0164 0.0
H828 H 0.8438 0.21587 0.03412 0.0
H829 H 0.92338 0.17918 0.07021 0.0
H830 H 0.91483 0.28476 0.99099 0.0
H831 H 0.88947 0.23694 0.9742 0.0
H832 H 0.86012 0.2507 0.99513 0.0
H833 H 0.98522 0.1906 0.05232 0.0
H834 H 0.98524 0.19049 0.01816 0.0
H835 H 0.01129 0.23839 0.0349 0.0
H836 H 0.99222 0.21883 0.93734 0.0
H837 H 0.05725 0.33394 0.97743 0.0
H838 H 0.89861 0.17752 0.97096 0.0
H839 H 0.92994 0.15962 0.98542 0.0
H840 H 0.92953 0.16385 0.95143 0.0
H841 H 0.97533 0.31661 0.01904 0.0
H842 H 0.03015 0.348 0.0137 0.0
H843 H 0.00999 0.30345 0.0341 0.0
C844 C 0.79928 0.69883 0.04229 0.0
C845 C 0.81462 0.67193 0.03819 0.0
C846 C 0.77789 0.70645 0.02326 0.0
C847 C 0.77256 0.68748 -0.0007 0.0
C848 C 0.78949 0.66164 0.99466 0.0
C849 C 0.80989 0.65367 0.01433 0.0
C850 C 0.75947 0.73342 0.02919 0.0
C851 C 0.78526 0.64172 0.96914 0.0
C852 C 0.6791 0.67115 0.96199 0.0
C853 C 0.69607 0.70603 0.94632 0.0
C854 C 0.70384 0.66434 0.97898 0.0
C855 C 0.74679 0.69265 0.97985 0.0
C856 C 0.76432 0.72727 0.96345 0.0
C857 C 0.73856 0.73388 0.94711 0.0
C858 C 0.68376 0.62768 0.99663 0.0
C859 C 0.8101 0.75757 0.96345 0.0
H860 H 0.80257 0.71281 0.06077 0.0
H861 H 0.82194 0.63305 0.01108 0.0
H862 H 0.77044 0.75909 0.01536 0.0
H863 H 0.72536 0.71504 0.02751 0.0
H864 H 0.76736 0.74671 0.04857 0.0
H865 H 0.80367 0.62593 0.96784 0.0
H866 H 0.75241 0.61869 0.96557 0.0
H867 H 0.79532 0.66525 0.9539 0.0
H868 H 0.64613 0.64992 0.96151 0.0
H869 H 0.75157 0.76061 0.93476 0.0
H870 H 0.68837 0.63853 0.01657 0.0
H871 H 0.69836 0.60834 0.9945 0.0
H872 H 0.65011 0.60811 0.99311 0.0
H873 H 0.81928 0.77417 0.98182 0.0
H874 H 0.81928 0.78069 0.948 0.0
H875 H 0.82755 0.74095 0.96133 0.0
C876 C 0.9764 0.30445 0.52787 0.0
C877 C 0.97678 0.27543 0.5445 0.0
C878 C 0.00418 0.3202 0.50745 0.0
C879 C 0.03255 0.30612 0.50344 0.0
C880 C 0.03279 0.27657 0.52008 0.0
C881 C 0.00503 0.26175 0.54044 0.0
C882 C 0.00325 0.35192 0.49021 0.0
C883 C 0.06206 0.26024 0.51624 0.0
C884 C 0.07616 0.31096 0.43788 0.0
C885 C 0.11672 0.34396 0.44027 0.0
C886 C 0.04822 0.29903 0.4581 0.0
C887 C 0.06096 0.3208 0.48128 0.0
C888 C 0.1015 0.35489 0.48365 0.0
C889 C 0.12902 0.36597 0.46313 0.0
C890 C 0.0054 0.26231 0.45486 0.0
C891 C 0.11604 0.37906 0.50803 0.0
H892 H 0.95493 0.31543 0.53117 0.0
H893 H 0.00503 0.23891 0.55306 0.0
H894 H 0.03412 0.38017 0.4897 0.0
H895 H 0.99585 0.33977 0.47058 0.0
H896 H 0.98015 0.36053 0.49634 0.0
H897 H 0.05866 0.23772 0.5311 0.0
H898 H 0.05645 0.24494 0.49749 0.0
H899 H 0.09442 0.2861 0.51634 0.0
H900 H 0.06632 0.29377 0.42029 0.0
H901 H 0.16022 0.39165 0.46505 0.0
H902 H 0.98183 0.271 0.45954 0.0
H903 H 1.00094 0.23742 0.46814 0.0
H904 H 0.99976 0.24979 0.43527 0.0
H905 H 0.09432 0.38953 0.514 0.0
H906 H 0.14742 0.40644 0.50625 0.0
H907 H 0.11654 0.35894 0.52331 0.0
C908 C 0.64561 0.78669 0.47591 0.0
C909 C 0.66661 0.7966 0.4527 0.0
C910 C 0.65798 0.77057 0.49601 0.0
C911 C 0.692 0.76419 0.49269 0.0
C912 C 0.71283 0.77361 0.46917 0.0
C913 C 0.69995 0.78971 0.44954 0.0
C914 C 0.63512 0.76094 0.52088 0.0
C915 C 0.74921 0.76727 0.46481 0.0
C916 C 0.7556 0.76514 0.54885 0.0
C917 C 0.74188 0.723 0.55217 0.0
C918 C 0.73874 0.77879 0.53007 0.0
C919 C 0.70745 0.74963 0.51403 0.0
C920 C 0.69326 0.707 0.51728 0.0
C921 C 0.71068 0.69419 0.53631 0.0
C922 C 0.75502 0.82455 0.52708 0.0
C923 C 0.66002 0.675 0.50047 0.0
H924 H 0.61975 0.7918 0.47845 0.0
H925 H 0.71629 0.79701 0.43163 0.0
H926 H 0.62407 0.72841 0.52633 0.0
H927 H 0.65631 0.78076 0.53604 0.0
H928 H 0.60827 0.76594 0.52009 0.0
H929 H 0.76109 0.77473 0.44509 0.0
H930 H 0.77463 0.78706 0.47796 0.0
H931 H 0.74038 0.73477 0.46885 0.0
H932 H 0.78006 0.78766 0.56076 0.0
H933 H 0.69948 0.66157 0.53901 0.0
H934 H 0.72923 0.83113 0.52781 0.0
H935 H 0.77006 0.83497 0.50831 0.0
H936 H 0.77779 0.84302 0.54198 0.0
H937 H 0.63224 0.67842 0.50096 0.0
H938 H 0.65104 0.64301 0.50621 0.0
H939 H 0.67098 0.67973 0.48056 0.0
C940 C 0.2489 0.99953 0.54659 0.0
C941 C 0.28644 0.03638 0.54301 0.0
C942 C 0.23352 0.96815 0.52831 0.0
C943 C 0.25643 0.97339 0.50593 0.0
C944 C 0.29516 0.00966 0.5026 0.0
C945 C 0.30963 0.0408 0.52112 0.0
C946 C 0.19201 0.93001 0.53255 0.0
C947 C 0.32063 0.01622 0.47905 0.0
C948 C 0.2259 0.87915 0.46436 0.0
C949 C 0.2025 0.88446 0.44556 0.0
C950 C 0.2441 0.90807 0.48407 0.0
C951 C 0.23814 0.9426 0.48511 0.0
C952 C 0.21401 0.94765 0.46636 0.0
C953 C 0.19674 0.9187 0.44676 0.0
C954 C 0.27002 0.90195 0.5036 0.0
C955 C 0.20634 0.98366 0.467 0.0
H956 H 0.23122 0.99527 0.56369 0.0
H957 H 0.33852 0.06907 0.51803 0.0
H958 H 0.16979 0.92859 0.5181 0.0
H959 H 0.19446 0.90183 0.53031 0.0
H960 H 0.17925 0.92954 0.55164 0.0
H961 H 0.35174 0.04408 0.48045 0.0
H962 H 0.32424 0.98895 0.47548 0.0
H963 H 0.30455 0.01977 0.46241 0.0
H964 H 0.23067 0.85288 0.4634 0.0
H965 H 0.17848 0.92284 0.43236 0.0
H966 H 0.25698 0.89979 0.52278 0.0
H967 H 0.30174 0.92898 0.50364 0.0
H968 H 0.27188 0.87365 0.50002 0.0
H969 H 0.19126 0.98362 0.48512 0.0
H970 H 0.18649 0.98285 0.45111 0.0
H971 H 0.23609 0.01313 0.46604 0.0
C972 C 0.73038 0.02034 0.03428 0.0
C973 C 0.73301 0.01076 0.05967 0.0
C974 C 0.71532 0.98959 0.01552 0.0
C975 C 0.70305 0.94837 0.02225 0.0
C976 C 0.70437 0.93824 0.0479 0.0
C977 C 0.71899 0.96944 0.06628 0.0
C978 C 0.71389 0.00147 0.98836 0.0
C979 C 0.69178 0.89469 0.05581 0.0
C980 C 0.64133 0.86266 0.97481 0.0
C981 C 0.67281 0.85934 0.96259 0.0
C982 C 0.65056 0.89135 0.99446 0.0
C983 C 0.69208 0.91658 0.00224 0.0
C984 C 0.72366 0.91203 0.99059 0.0
C985 C 0.71366 0.88373 0.97075 0.0
C986 C 0.61618 0.89573 0.00623 0.0
C987 C 0.7682 0.93773 -0.00132 0.0
H988 H 0.74118 0.05203 0.02887 0.0
H989 H 0.71974 0.96137 0.08587 0.0
H990 H 0.7368 0.99785 0.97696 0.0
H991 H 0.68304 0.98074 0.98007 0.0
H992 H 0.72073 0.03389 0.9866 0.0
H993 H 0.69235 0.89144 0.07671 0.0
H994 H 0.66028 0.87281 0.04885 0.0
H995 H 0.71302 0.88547 0.04718 0.0
H996 H 0.60977 0.84415 0.96828 0.0
H997 H 0.738 0.88105 0.96137 0.0
H998 H 0.62111 0.92702 0.00226 0.0
H999 H 0.61628 0.89248 0.02711 0.0
H1000 H 0.58537 0.87251 -0.00113 0.0
H1001 H 0.77927 0.97085 0.99502 0.0
H1002 H 0.7887 0.92897 0.98852 0.0
H1003 H 0.77105 0.93426 0.01934 0.0
C1004 C 0.03929 0.71779 0.05239 0.0
C1005 C 0.99833 0.68779 0.04678 0.0
C1006 C 0.06967 0.73402 0.03348 0.0
C1007 C 0.05927 0.71915 0.0084 0.0
C1008 C 0.01907 0.68629 0.00302 0.0
C1009 C 0.98896 0.67125 0.0222 0.0
C1010 C 0.11213 0.76911 0.04004 0.0
C1011 C 0.00712 0.66874 0.97663 0.0
C1012 C 0.11198 0.7942 0.95441 0.0
C1013 C 0.1417 0.78425 0.94663 0.0
C1014 C 0.08572 0.77379 0.97484 0.0
C1015 C 0.08842 0.74171 0.98734 0.0
C1016 C 0.11863 0.73163 0.97963 0.0
C1017 C 0.14537 0.75347 0.95949 0.0
C1018 C 0.05482 0.78641 0.98289 0.0
C1019 C 0.12171 0.69687 0.99195 0.0
H1020 H 0.04743 0.72984 0.07145 0.0
H1021 H 0.95771 0.64797 0.01749 0.0
H1022 H 0.13629 0.76299 0.0326 0.0
H1023 H 0.11681 0.79792 0.03097 0.0
H1024 H 0.11653 0.77435 0.0608 0.0
H1025 H 0.97711 0.63938 0.97637 0.0
H1026 H 0.00454 0.6913 0.96423 0.0
H1027 H 0.03117 0.66312 0.96842 0.0
H1028 H 0.10932 0.81815 0.94448 0.0
H1029 H 0.16801 0.7454 0.95315 0.0
H1030 H 0.05861 0.79441 0.00333 0.0
H1031 H 0.02301 0.76026 0.98019 0.0
H1032 H 0.05814 0.81331 0.97199 0.0
H1033 H 0.12153 0.69919 0.01289 0.0
H1034 H 0.15002 0.69646 0.98607 0.0
H1035 H 0.09446 0.66698 0.98653 0.0
C1036 C 0.22856 0.35643 0.96845 0.0
C1037 C 0.23531 0.35011 0.94312 0.0
C1038 C 0.24455 0.34366 0.98836 0.0
C1039 C 0.26784 0.32423 0.98274 0.0
C1040 C 0.27664 0.3199 0.95723 0.0
C1041 C 0.26025 0.33286 0.93775 0.0
C1042 C 0.23468 0.34898 0.01534 0.0
C1043 C 0.30146 0.2995 0.95041 0.0
C1044 C 0.32776 0.30577 0.03449 0.0
C1045 C 0.29992 0.26478 0.04125 0.0
C1046 C 0.31769 0.32589 0.01568 0.0
C1047 C 0.27906 0.30428 0.00322 0.0
C1048 C 0.25111 0.26275 0.00981 0.0
C1049 C 0.26184 0.2436 0.02876 0.0
C1050 C 0.34816 0.37026 0.00924 0.0
C1051 C 0.20985 0.23837 0.99675 0.0
H1052 H 0.20945 0.36989 0.97275 0.0
H1053 H 0.26604 0.32828 0.91823 0.0
H1054 H 0.21293 0.31833 0.02354 0.0
H1055 H 0.26304 0.36275 0.0271 0.0
H1056 H 0.22043 0.36882 0.01665 0.0
H1057 H 0.3091 0.3023 0.92991 0.0
H1058 H 0.33059 0.31328 0.96142 0.0
H1059 H 0.28364 0.26623 0.95535 0.0
H1060 H 0.35704 0.3223 0.0443 0.0
H1061 H 0.24052 0.21173 0.03362 0.0
H1062 H 0.33385 0.38968 0.01238 0.0
H1063 H 0.35664 0.37293 0.9889 0.0
H1064 H 0.37676 0.38277 0.02076 0.0
H1065 H 0.19163 0.25415 -0.00088 0.0
H1066 H 0.19152 0.20646 0.00427 0.0
H1067 H 0.21452 0.23661 0.97613 0.0
C1068 C 0.02484 0.71273 0.46862 0.0
C1069 C 0.02541 0.74268 0.45239 0.0
C1070 C 0.99774 0.69785 0.4894 0.0
C1071 C 0.97091 0.71359 0.4941 0.0
C1072 C 0.97173 0.74416 0.47792 0.0
C1073 C 0.99891 0.75826 0.45729 0.0
C1074 C 0.99759 0.66512 0.5062 0.0
C1075 C 0.94398 0.76211 0.48246 0.0
C1076 C 0.87401 0.65487 0.53405 0.0
C1077 C 0.88672 0.67599 0.55719 0.0
C1078 C 0.90149 0.66591 0.51354 0.0
C1079 C 0.94248 0.699 0.51622 0.0
C1080 C 0.95565 0.71991 0.53967 0.0
C1081 C 0.92766 0.70809 0.55986 0.0
C1082 C 0.88644 0.64276 0.48884 0.0
C1083 C 0.99902 0.75551 0.54324 0.0
H1084 H 0.04497 0.70033 0.46473 0.0
H1085 H 0.99971 0.78189 0.44506 0.0
H1086 H 0.00501 0.67657 0.52597 0.0
H1087 H 0.96636 0.63735 0.50641 0.0
H1088 H 0.02016 0.65591 0.49987 0.0
H1089 H 0.94828 0.78552 0.468 0.0
H1090 H 0.9112 0.73719 0.48223 0.0
H1091 H 0.95024 0.7768 0.50143 0.0
H1092 H 0.84251 0.62986 0.5319 0.0
H1093 H 0.9378 0.72455 0.57769 0.0
H1094 H 0.90722 0.63128 0.48262 0.0
H1095 H 0.88703 0.6639 0.47389 0.0
H1096 H 0.85453 0.61615 0.49033 0.0
H1097 H 0.02179 0.74593 0.53818 0.0
H1098 H 0.00495 0.76726 0.56301 0.0
H1099 H 0.00441 0.78122 0.53039 0.0
C1100 C 0.31587 0.24993 0.55626 0.0
C1101 C 0.3435 0.23564 0.55147 0.0
C1102 C 0.30095 0.26406 0.5366 0.0
C1103 C 0.31411 0.26416 0.51147 0.0
C1104 C 0.34312 0.25116 0.50656 0.0
C1105 C 0.35743 0.23693 0.52664 0.0
C1106 C 0.26996 0.27753 0.54263 0.0
C1107 C 0.35811 0.25115 0.48001 0.0
C1108 C 0.24096 0.25551 0.45894 0.0
C1109 C 0.25812 0.29663 0.45101 0.0
C1110 C 0.25908 0.24456 0.47845 0.0
C1111 C 0.29546 0.27546 0.49025 0.0
C1112 C 0.31299 0.31707 0.48235 0.0
C1113 C 0.29397 0.32719 0.46289 0.0
C1114 C 0.23908 0.19992 0.48657 0.0
C1115 C 0.3519 0.35082 0.49437 0.0
H1116 H 0.30502 0.24924 0.5754 0.0
H1117 H 0.37887 0.22607 0.5228 0.0
H1118 H 0.2807 0.30898 0.5351 0.0
H1119 H 0.24012 0.25644 0.5333 0.0
H1120 H 0.2645 0.27761 0.56332 0.0
H1121 H 0.38293 0.24307 0.47961 0.0
H1122 H 0.33202 0.22852 0.46822 0.0
H1123 H 0.36988 0.28193 0.47116 0.0
H1124 H 0.21303 0.23189 0.44999 0.0
H1125 H 0.30766 0.3589 0.45655 0.0
H1126 H 0.23023 0.19705 0.50684 0.0
H1127 H 0.26131 0.18865 0.4846 0.0
H1128 H 0.2111 0.17961 0.47526 0.0
H1129 H 0.34687 0.35268 0.51493 0.0
H1130 H 0.36206 0.3815 0.4857 0.0
H1131 H 0.37714 0.34359 0.49245 0.0
C1132 C 0.76844 0.12668 0.5345 0.0
C1133 C 0.80535 0.13339 0.54546 0.0
C1134 C 0.74907 0.09686 0.51545 0.0
C1135 C 0.76784 0.07429 0.5067 0.0
C1136 C 0.80607 0.08235 0.51701 0.0
C1137 C 0.82403 0.11135 0.53659 0.0
C1138 C 0.70786 0.08851 0.50532 0.0
C1139 C 0.82771 0.05995 0.50761 0.0
C1140 C 0.69921 0.96984 0.47606 0.0
C1141 C 0.7033 0.98047 0.4504 0.0
C1142 C 0.72031 1.00007 0.49465 0.0
C1143 C 0.74694 0.04157 0.4872 0.0
C1144 C 0.75259 0.05196 0.46116 0.0
C1145 C 0.73011 0.02134 0.44308 0.0
C1146 C 0.71279 0.98792 0.52224 0.0
C1147 C 0.78168 0.09553 0.45241 0.0
H1148 H 0.75381 0.14346 0.54159 0.0
H1149 H 0.85275 0.11679 0.54501 0.0
H1150 H 0.70966 0.09331 0.48453 0.0
H1151 H 0.68421 0.05581 0.50889 0.0
H1152 H 0.69741 0.10868 0.51417 0.0
H1153 H 0.85866 0.072 0.51632 0.0
H1154 H 0.80885 0.02658 0.51202 0.0
H1155 H 0.83131 0.06288 0.48672 0.0
H1156 H 0.67792 0.93825 0.48158 0.0
H1157 H 0.7331 0.02925 0.42314 0.0
H1158 H 0.69926 0.00486 0.5318 0.0
H1159 H 0.74237 0.99664 0.53187 0.0
H1160 H 0.69158 0.95427 0.52483 0.0
H1161 H 0.77009 0.11619 0.45869 0.0
H1162 H 0.78513 0.09771 0.43147 0.0
H1163 H 0.81257 0.10715 0.46107 0.0
C1164 C 0.27655 0.35512 0.27149 0.0
C1165 C 0.29724 0.37163 0.29438 0.0
C1166 C 0.2942 0.34256 0.25255 0.0
C1167 C 0.33335 0.34636 0.2567 0.0
C1168 C 0.35517 0.36466 0.27931 0.0
C1169 C 0.33687 0.37721 0.29788 0.0
C1170 C 0.27017 0.32365 0.22853 0.0
C1171 C 0.39689 0.36909 0.28445 0.0
C1172 C 0.34915 0.26766 0.22078 0.0
C1173 C 0.37176 0.29054 0.19969 0.0
C1174 C 0.33809 0.28603 0.24008 0.0
C1175 C 0.34974 0.32824 0.23814 0.0
C1176 C 0.37432 0.35201 0.21752 0.0
C1177 C 0.38516 0.33286 0.19853 0.0
C1178 C 0.31234 0.25976 0.26196 0.0
C1179 C 0.38731 0.39707 0.2148 0.0
H1180 H 0.24613 0.35126 0.26862 0.0
H1181 H 0.3528 0.38961 0.31567 0.0
H1182 H 0.28956 0.33919 0.21171 0.0
H1183 H 0.26138 0.29062 0.22756 0.0
H1184 H 0.24165 0.3258 0.22743 0.0
H1185 H 0.41157 0.38766 0.30172 0.0
H1186 H 0.39344 0.33806 0.28699 0.0
H1187 H 0.41784 0.38381 0.2681 0.0
H1188 H 0.33925 0.23506 0.22187 0.0
H1189 H 0.40237 0.35055 0.18213 0.0
H1190 H 0.28123 0.25654 0.26118 0.0
H1191 H 0.32654 0.2748 0.28024 0.0
H1192 H 0.30872 0.22841 0.26171 0.0
H1193 H 0.35979 0.40006 0.21086 0.0
H1194 H 0.40988 0.41218 0.19919 0.0
H1195 H 0.40117 0.41388 0.23269 0.0
C1196 C 0.7213 0.08336 0.23003 0.0
C1197 C 0.70229 0.07854 0.20643 0.0
C1198 C 0.70275 0.05313 0.24889 0.0
C1199 C 0.66449 0.01709 0.24389 0.0
C1200 C 0.64409 0.01314 0.22062 0.0
C1201 C 0.66321 0.04403 0.20217 0.0
C1202 C 0.72518 0.05875 0.27364 0.0
C1203 C 0.60337 0.97515 0.21456 0.0
C1204 C 0.65042 0.92293 0.27936 0.0
C1205 C 0.62556 0.92114 0.29971 0.0
C1206 C 0.66171 0.95291 0.26041 0.0
C1207 C 0.64812 0.98204 0.26203 0.0
C1208 C 0.62138 0.97914 0.2819 0.0
C1209 C 0.61026 0.94854 0.3005 0.0
C1210 C 0.68974 0.95456 0.23928 0.0
C1211 C 0.60637 0.0097 0.28428 0.0
H1212 H 0.75131 0.11023 0.23345 0.0
H1213 H 0.6486 0.03996 0.18384 0.0
H1214 H 0.70413 0.05319 0.28984 0.0
H1215 H 0.73572 0.03585 0.27497 0.0
H1216 H 0.75249 0.09017 0.27552 0.0
H1217 H 0.58918 0.97907 0.19707 0.0
H1218 H 0.60823 0.94845 0.21186 0.0
H1219 H 0.58136 0.96746 0.23048 0.0
H1220 H 0.66199 0.90153 0.27868 0.0
H1221 H 0.59138 0.94746 0.3164 0.0
H1222 H 0.7201 0.98325 0.24093 0.0
H1223 H 0.67651 0.95533 0.22062 0.0
H1224 H 0.69485 0.92774 0.23966 0.0
H1225 H 0.63271 0.04053 0.28917 0.0
H1226 H 0.58233 1.00058 0.29915 0.0
H1227 H 0.59363 0.01287 0.266 0.0
C1228 C 0.96616 0.62415 0.19144 0.0
C1229 C 0.92904 0.62484 0.19355 0.0
C1230 C 0.99468 0.6374 0.2114 0.0
C1231 C 0.98648 0.65274 0.23381 0.0
C1232 C 0.94864 0.65239 0.23644 0.0
C1233 C 0.92019 0.63801 0.2164 0.0
C1234 C 0.03432 0.63652 0.20807 0.0
C1235 C 0.93895 0.66885 0.26002 0.0
C1236 C 0.04725 0.66732 0.29426 0.0
C1237 C 0.07609 0.70977 0.29346 0.0
C1238 C 0.01879 0.64797 0.27456 0.0
C1239 C 0.01857 0.67176 0.2538 0.0
C1240 C 0.0483 0.71428 0.25246 0.0
C1241 C 0.07699 0.73263 0.27213 0.0
C1242 C 0.98818 0.60233 0.27633 0.0
C1243 C 0.04895 0.74076 0.23066 0.0
H1244 H 0.97392 0.61484 0.17381 0.0
H1245 H 0.89135 0.63795 0.21848 0.0
H1246 H 0.06062 0.66852 0.20654 0.0
H1247 H 0.04008 0.62215 0.22481 0.0
H1248 H 0.03385 0.61923 0.19084 0.0
H1249 H 0.9075 0.6649 0.25952 0.0
H1250 H 0.94158 0.65297 0.27705 0.0
H1251 H 0.9617 0.7022 0.26212 0.0
H1252 H 0.04585 0.64937 0.31073 0.0
H1253 H 0.09973 0.76516 0.27096 0.0
H1254 H 0.98831 0.58655 0.25855 0.0
H1255 H 0.9566 0.59745 0.27876 0.0
H1256 H 0.99489 0.58752 0.29246 0.0
H1257 H 0.05245 0.728 0.21246 0.0
H1258 H 0.07438 0.77325 0.23233 0.0
H1259 H 0.01921 0.74056 0.22986 0.0
C1260 C 0.71909 0.6432 0.72725 0.0
C1261 C 0.70061 0.63155 0.70334 0.0
C1262 C 0.70159 0.6556 0.74636 0.0
C1263 C 0.66505 0.65684 0.74126 0.0
C1264 C 0.64516 0.64313 0.71755 0.0
C1265 C 0.66312 0.63044 0.69887 0.0
C1266 C 0.72333 0.66933 0.77158 0.0
C1267 C 0.60633 0.64423 0.71138 0.0
C1268 C 0.61205 0.67131 0.79839 0.0
C1269 C 0.6304 0.71442 0.79907 0.0
C1270 C 0.62172 0.65177 0.77906 0.0
C1271 C 0.65006 0.67601 0.75995 0.0
C1272 C 0.66676 0.71936 0.75978 0.0
C1273 C 0.65692 0.73808 0.77947 0.0
C1274 C 0.60351 0.60554 0.77994 0.0
C1275 C 0.69658 0.7462 0.73948 0.0
H1276 H 0.74787 0.64367 0.73076 0.0
H1277 H 0.64902 0.62181 0.68028 0.0
H1278 H 0.73599 0.70303 0.7739 0.0
H1279 H 0.70125 0.65368 0.78731 0.0
H1280 H 0.7491 0.66278 0.77332 0.0
H1281 H 0.59216 0.62817 0.6933 0.0
H1282 H 0.5833 0.62978 0.72679 0.0
H1283 H 0.61369 0.6768 0.70976 0.0
H1284 H 0.59188 0.65305 0.81372 0.0
H1285 H 0.67086 0.7714 0.77996 0.0
H1286 H 0.62809 0.59827 0.78463 0.0
H1287 H 0.59086 0.59166 0.76116 0.0
H1288 H 0.57861 0.59078 0.79432 0.0
H1289 H 0.72577 0.74549 0.74117 0.0
H1290 H 0.70387 0.77881 0.74084 0.0
H1291 H 0.68366 0.73422 0.72041 0.0
C1292 C 0.34382 0.95482 0.79048 0.0
C1293 C 0.30199 0.92448 0.78906 0.0
C1294 C 0.36241 0.98459 0.77134 0.0
C1295 C 0.33861 0.98368 0.75027 0.0
C1296 C 0.29704 0.95162 0.74805 0.0
C1297 C 0.27917 0.92251 0.76756 0.0
C1298 C 0.40673 0.01836 0.77443 0.0
C1299 C 0.2708 0.94922 0.72566 0.0
C1300 C 0.35936 0.08142 0.71645 0.0
C1301 C 0.37702 0.07843 0.69373 0.0
C1302 C 0.34872 0.05184 0.73559 0.0
C1303 C 0.35553 0.01824 0.73175 0.0
C1304 C 0.37531 0.01621 0.70937 0.0
C1305 C 0.38603 0.04654 0.69062 0.0
C1306 C 0.32832 0.05549 0.75938 0.0
C1307 C 0.38297 0.98081 0.70458 0.0
H1308 H 0.36145 0.95659 0.80721 0.0
H1309 H 0.24697 0.89874 0.7663 0.0
H1310 H 0.42429 0.02254 0.75669 0.0
H1311 H 0.40778 0.04799 0.77846 0.0
H1312 H 0.42237 0.01183 0.79016 0.0
H1313 H 0.2404 0.92029 0.72563 0.0
H1314 H 0.26542 0.97582 0.72609 0.0
H1315 H 0.28699 0.95108 0.70768 0.0
H1316 H 0.35282 0.10637 0.71895 0.0
H1317 H 0.39944 0.04408 0.67295 0.0
H1318 H 0.34409 0.05262 0.7764 0.0
H1319 H 0.2958 0.03001 0.76005 0.0
H1320 H 0.32859 0.0853 0.76038 0.0
H1321 H 0.39766 0.97551 0.72131 0.0
H1322 H 0.4029 0.98628 0.68775 0.0
H1323 H 0.35307 0.95211 0.70141 0.0
C1324 C 0.03267 0.37993 0.80428 0.0
C1325 C 0.06139 0.36632 0.80279 0.0
C1326 C 0.00364 0.37086 0.78489 0.0
C1327 C 0.0037 0.34795 0.76355 0.0
C1328 C 0.03397 0.33593 0.76146 0.0
C1329 C 0.06236 0.34517 0.78114 0.0
C1330 C 0.97184 0.38415 0.78777 0.0
C1331 C 0.03543 0.31192 0.73884 0.0
C1332 C 0.90777 0.27828 0.72573 0.0
C1333 C 0.91511 0.30073 0.70321 0.0
C1334 C 0.93513 0.2945 0.74622 0.0
C1335 C 0.97077 0.33401 0.74404 0.0
C1336 C 0.97696 0.35788 0.72196 0.0
C1337 C 0.94896 0.34095 0.70179 0.0
C1338 C 0.92715 0.26828 0.7696 0.0
C1339 C 0.01456 0.40011 0.71892 0.0
H1340 H 0.03175 0.39608 0.82111 0.0
H1341 H 0.08494 0.33516 0.77982 0.0
H1342 H 0.97027 0.39984 0.77032 0.0
H1343 H 0.94094 0.35656 0.79059 0.0
H1344 H 0.97855 0.40527 0.80413 0.0
H1345 H 0.06248 0.30721 0.73939 0.0
H1346 H 0.00696 0.28123 0.73823 0.0
H1347 H 0.03667 0.32826 0.72104 0.0
H1348 H 0.8813 0.24741 0.727 0.0
H1349 H 0.95492 0.35832 0.68434 0.0
H1350 H 0.93027 0.28644 0.78691 0.0
H1351 H 0.95044 0.25824 0.77081 0.0
H1352 H 0.89596 0.24037 0.76944 0.0
H1353 H 0.01961 0.41904 0.73615 0.0
H1354 H 0.01195 0.41687 0.7023 0.0
H1355 H 0.04225 0.39687 0.71636 0.0
loop_
_geom_bond_atom_site_label_1
_geom_bond_atom_site_label_2
_geom_bond_distance
_geom_bond_site_symmetry_2
_ccdc_geom_bond_type
C0 C1 1.351 . S
C0 N3 1.368 . S
C0 H5 0.931 . S
C1 C0 1.351 . S
C1 N2 1.373 . S
C1 H29 0.930 . S
N2 C1 1.373 . S
N2 C4 1.340 . S
N3 C0 1.368 . S
N3 C4 1.321 . S
N3 Co6 2.135 . S
C4 N2 1.340 . S
C4 N3 1.321 . S
C4 H28 0.930 . S
H5 C0 0.931 . S
Co6 N3 2.135 . S
Co6 N9 2.121 . S
Co6 O14 2.055 . S
Co6 O17 2.039 . S
Co6 N20 2.140 . S
C7 O8 1.227 . S
C7 O17 1.265 . S
O8 C7 1.227 . S
N9 Co6 2.121 . S
N9 C11 1.375 . S
N9 C12 1.313 . S
C10 C11 1.338 . S
C10 N13 1.377 . S
C10 H30 0.930 . S
C11 N9 1.375 . S
C11 C10 1.338 . S
C11 H15 0.931 . S
C12 N9 1.313 . S
C12 N13 1.344 . S
C12 H16 0.930 . S
N13 C10 1.377 . S
N13 C12 1.344 . S
O14 Co6 2.055 . S
O14 C18 1.253 . S
H15 C11 0.931 . S
H16 C12 0.930 . S
O17 Co6 2.039 . S
O17 C7 1.265 . S
C18 O14 1.253 . S
C18 O19 1.227 . S
O19 C18 1.227 . S
N20 Co6 2.140 . S
N20 C23 1.346 . S
N20 C24 1.345 . S
C21 C22 1.387 . S
C21 C25 1.391 . S
C22 C21 1.387 . S
C22 C23 1.369 . S
C22 H31 0.929 . S
C23 N20 1.346 . S
C23 C22 1.369 . S
C23 H26 0.928 . S
C24 N20 1.345 . S
C24 C25 1.371 . S
C24 H27 0.931 . S
C25 C21 1.391 . S
C25 C24 1.371 . S
C25 H32 0.930 . S
H26 C23 0.928 . S
H27 C24 0.931 . S
H28 C4 0.930 . S
H29 C1 0.930 . S
H30 C10 0.930 . S
H31 C22 0.929 . S
H32 C25 0.930 . S
C33 C34 1.351 . S
C33 N36 1.368 . S
C33 H38 0.931 . S
C34 C33 1.351 . S
C34 N35 1.373 . S
C34 H62 0.930 . S
N35 C34 1.373 . S
N35 C37 1.340 . S
N36 C33 1.368 . S
N36 C37 1.321 . S
N36 Co39 2.135 . S
C37 N35 1.340 . S
C37 N36 1.321 . S
C37 H61 0.930 . S
H38 C33 0.931 . S
Co39 N36 2.135 . S
Co39 N42 2.121 . S
Co39 O47 2.055 . S
Co39 O50 2.039 . S
Co39 N53 2.140 . S
C40 O41 1.227 . S
C40 O50 1.265 . S
O41 C40 1.227 . S
N42 Co39 2.121 . S
N42 C44 1.375 . S
N42 C45 1.313 . S
C43 C44 1.338 . S
C43 N46 1.377 . S
C43 H63 0.930 . S
C44 N42 1.375 . S
C44 C43 1.338 . S
C44 H48 0.931 . S
C45 N42 1.313 . S
C45 N46 1.344 . S
C45 H49 0.930 . S
N46 C43 1.377 . S
N46 C45 1.344 . S
O47 Co39 2.055 . S
O47 C51 1.253 . S
H48 C44 0.931 . S
H49 C45 0.930 . S
O50 Co39 2.039 . S
O50 C40 1.265 . S
C51 O47 1.253 . S
C51 O52 1.227 . S
O52 C51 1.227 . S
N53 Co39 2.140 . S
N53 C56 1.346 . S
N53 C57 1.345 . S
C54 C55 1.387 . S
C54 C58 1.391 . S
C55 C54 1.387 . S
C55 C56 1.369 . S
C55 H64 0.929 . S
C56 N53 1.346 . S
C56 C55 1.369 . S
C56 H59 0.928 . S
C57 N53 1.345 . S
C57 C58 1.371 . S
C57 H60 0.931 . S
C58 C54 1.391 . S
C58 C57 1.371 . S
C58 H65 0.930 . S
H59 C56 0.928 . S
H60 C57 0.931 . S
H61 C37 0.930 . S
H62 C34 0.930 . S
H63 C43 0.930 . S
H64 C55 0.929 . S
H65 C58 0.930 . S
C66 C67 1.351 . S
C66 N69 1.368 . S
C66 H71 0.931 . S
C67 C66 1.351 . S
C67 N68 1.373 . S
C67 H95 0.930 . S
N68 C67 1.373 . S
N68 C70 1.340 . S
N69 C66 1.368 . S
N69 C70 1.321 . S
N69 Co72 2.135 . S
C70 N68 1.340 . S
C70 N69 1.321 . S
C70 H94 0.930 . S
H71 C66 0.931 . S
Co72 N69 2.135 . S
Co72 N75 2.121 . S
Co72 O80 2.055 . S
Co72 O83 2.039 . S
Co72 N86 2.140 . S
C73 O74 1.227 . S
C73 O83 1.265 . S
O74 C73 1.227 . S
N75 Co72 2.121 . S
N75 C77 1.375 . S
N75 C78 1.313 . S
C76 C77 1.338 . S
C76 N79 1.377 . S
C76 H96 0.930 . S
C77 N75 1.375 . S
C77 C76 1.338 . S
C77 H81 0.931 . S
C78 N75 1.313 . S
C78 N79 1.344 . S
C78 H82 0.930 . S
N79 C76 1.377 . S
N79 C78 1.344 . S
O80 Co72 2.055 . S
O80 C84 1.253 . S
H81 C77 0.931 . S
H82 C78 0.930 . S
O83 Co72 2.039 . S
O83 C73 1.265 . S
C84 O80 1.253 . S
C84 O85 1.227 . S
O85 C84 1.227 . S
N86 Co72 2.140 . S
N86 C89 1.346 . S
N86 C90 1.345 . S
C87 C88 1.387 . S
C87 C91 1.391 . S
C88 C87 1.387 . S
C88 C89 1.369 . S
C88 H97 0.929 . S
C89 N86 1.346 . S
C89 C88 1.369 . S
C89 H92 0.928 . S
C90 N86 1.345 . S
C90 C91 1.371 . S
C90 H93 0.931 . S
C91 C87 1.391 . S
C91 C90 1.371 . S
C91 H98 0.930 . S
H92 C89 0.928 . S
H93 C90 0.931 . S
H94 C70 0.930 . S
H95 C67 0.930 . S
H96 C76 0.930 . S
H97 C88 0.929 . S
H98 C91 0.930 . S
C99 C100 1.351 . S
C99 N102 1.368 . S
C99 H104 0.931 . S
C100 C99 1.351 . S
C100 N101 1.373 . S
C100 H128 0.930 . S
N101 C100 1.373 . S
N101 C103 1.340 . S
N102 C99 1.368 . S
N102 C103 1.321 . S
N102 Co105 2.135 . S
C103 N101 1.340 . S
C103 N102 1.321 . S
C103 H127 0.930 . S
H104 C99 0.931 . S
Co105 N102 2.135 . S
Co105 N108 2.121 . S
Co105 O113 2.055 . S
Co105 O116 2.039 . S
Co105 N119 2.140 . S
C106 O107 1.227 . S
C106 O116 1.265 . S
O107 C106 1.227 . S
N108 Co105 2.121 . S
N108 C110 1.375 . S
N108 C111 1.313 . S
C109 C110 1.338 . S
C109 N112 1.377 . S
C109 H129 0.930 . S
C110 N108 1.375 . S
C110 C109 1.338 . S
C110 H114 0.931 . S
C111 N108 1.313 . S
C111 N112 1.344 . S
C111 H115 0.930 . S
N112 C109 1.377 . S
N112 C111 1.344 . S
O113 Co105 2.055 . S
O113 C117 1.253 . S
H114 C110 0.931 . S
H115 C111 0.930 . S
O116 Co105 2.039 . S
O116 C106 1.265 . S
C117 O113 1.253 . S
C117 O118 1.227 . S
O118 C117 1.227 . S
N119 Co105 2.140 . S
N119 C122 1.346 . S
N119 C123 1.345 . S
C120 C121 1.387 . S
C120 C124 1.391 . S
C121 C120 1.387 . S
C121 C122 1.369 . S
C121 H130 0.929 . S
C122 N119 1.346 . S
C122 C121 1.369 . S
C122 H125 0.928 . S
C123 N119 1.345 . S
C123 C124 1.371 . S
C123 H126 0.931 . S
C124 C120 1.391 . S
C124 C123 1.371 . S
C124 H131 0.930 . S
H125 C122 0.928 . S
H126 C123 0.931 . S
H127 C103 0.930 . S
H128 C100 0.930 . S
H129 C109 0.930 . S
H130 C121 0.929 . S
H131 C124 0.930 . S
C132 C133 1.351 . S
C132 N135 1.368 . S
C132 H137 0.931 . S
C133 C132 1.351 . S
C133 N134 1.373 . S
C133 H161 0.930 . S
N134 C133 1.373 . S
N134 C136 1.340 . S
N135 C132 1.368 . S
N135 C136 1.321 . S
N135 Co138 2.135 . S
C136 N134 1.340 . S
C136 N135 1.321 . S
C136 H160 0.930 . S
H137 C132 0.931 . S
Co138 N135 2.135 . S
Co138 N141 2.121 . S
Co138 O146 2.055 . S
Co138 O149 2.039 . S
Co138 N152 2.140 . S
C139 O140 1.227 . S
C139 O149 1.265 . S
O140 C139 1.227 . S
N141 Co138 2.121 . S
N141 C143 1.375 . S
N141 C144 1.313 . S
C142 C143 1.338 . S
C142 N145 1.377 . S
C142 H162 0.930 . S
C143 N141 1.375 . S
C143 C142 1.338 . S
C143 H147 0.931 . S
C144 N141 1.313 . S
C144 N145 1.344 . S
C144 H148 0.930 . S
N145 C142 1.377 . S
N145 C144 1.344 . S
O146 Co138 2.055 . S
O146 C150 1.253 . S
H147 C143 0.931 . S
H148 C144 0.930 . S
O149 Co138 2.039 . S
O149 C139 1.265 . S
C150 O146 1.253 . S
C150 O151 1.227 . S
O151 C150 1.227 . S
N152 Co138 2.140 . S
N152 C155 1.346 . S
N152 C156 1.345 . S
C153 C154 1.387 . S
C153 C157 1.391 . S
C154 C153 1.387 . S
C154 C155 1.369 . S
C154 H163 0.929 . S
C155 N152 1.346 . S
C155 C154 1.369 . S
C155 H158 0.928 . S
C156 N152 1.345 . S
C156 C157 1.371 . S
C156 H159 0.931 . S
C157 C153 1.391 . S
C157 C156 1.371 . S
C157 H164 0.930 . S
H158 C155 0.928 . S
H159 C156 0.931 . S
H160 C136 0.930 . S
H161 C133 0.930 . S
H162 C142 0.930 . S
H163 C154 0.929 . S
H164 C157 0.930 . S
C165 C166 1.351 . S
C165 N168 1.368 . S
C165 H170 0.931 . S
C166 C165 1.351 . S
C166 N167 1.373 . S
C166 H194 0.930 . S
N167 C166 1.373 . S
N167 C169 1.340 . S
N168 C165 1.368 . S
N168 C169 1.321 . S
N168 Co171 2.135 . S
C169 N167 1.340 . S
C169 N168 1.321 . S
C169 H193 0.930 . S
H170 C165 0.931 . S
Co171 N168 2.135 . S
Co171 N174 2.121 . S
Co171 O179 2.055 . S
Co171 O182 2.039 . S
Co171 N185 2.140 . S
C172 O173 1.227 . S
C172 O182 1.265 . S
O173 C172 1.227 . S
N174 Co171 2.121 . S
N174 C176 1.375 . S
N174 C177 1.313 . S
C175 C176 1.338 . S
C175 N178 1.377 . S
C175 H195 0.930 . S
C176 N174 1.375 . S
C176 C175 1.338 . S
C176 H180 0.931 . S
C177 N174 1.313 . S
C177 N178 1.344 . S
C177 H181 0.930 . S
N178 C175 1.377 . S
N178 C177 1.344 . S
O179 Co171 2.055 . S
O179 C183 1.253 . S
H180 C176 0.931 . S
H181 C177 0.930 . S
O182 Co171 2.039 . S
O182 C172 1.265 . S
C183 O179 1.253 . S
C183 O184 1.227 . S
O184 C183 1.227 . S
N185 Co171 2.140 . S
N185 C188 1.346 . S
N185 C189 1.345 . S
C186 C187 1.387 . S
C186 C190 1.391 . S
C187 C186 1.387 . S
C187 C188 1.369 . S
C187 H196 0.929 . S
C188 N185 1.346 . S
C188 C187 1.369 . S
C188 H191 0.928 . S
C189 N185 1.345 . S
C189 C190 1.371 . S
C189 H192 0.931 . S
C190 C186 1.391 . S
C190 C189 1.371 . S
C190 H197 0.930 . S
H191 C188 0.928 . S
H192 C189 0.931 . S
H193 C169 0.930 . S
H194 C166 0.930 . S
H195 C175 0.930 . S
H196 C187 0.929 . S
H197 C190 0.930 . S
C198 C199 1.351 . S
C198 N201 1.368 . S
C198 H203 0.931 . S
C199 C198 1.351 . S
C199 N200 1.373 . S
C199 H227 0.930 . S
N200 C199 1.373 . S
N200 C202 1.340 . S
N201 C198 1.368 . S
N201 C202 1.321 . S
N201 Co204 2.135 . S
C202 N200 1.340 . S
C202 N201 1.321 . S
C202 H226 0.930 . S
H203 C198 0.931 . S
Co204 N201 2.135 . S
Co204 N207 2.121 . S
Co204 O212 2.055 . S
Co204 O215 2.039 . S
Co204 N218 2.140 . S
C205 O206 1.227 . S
C205 O215 1.265 . S
O206 C205 1.227 . S
N207 Co204 2.121 . S
N207 C209 1.375 . S
N207 C210 1.313 . S
C208 C209 1.338 . S
C208 N211 1.377 . S
C208 H228 0.930 . S
C209 N207 1.375 . S
C209 C208 1.338 . S
C209 H213 0.931 . S
C210 N207 1.313 . S
C210 N211 1.344 . S
C210 H214 0.930 . S
N211 C208 1.377 . S
N211 C210 1.344 . S
O212 Co204 2.055 . S
O212 C216 1.253 . S
H213 C209 0.931 . S
H214 C210 0.930 . S
O215 Co204 2.039 . S
O215 C205 1.265 . S
C216 O212 1.253 . S
C216 O217 1.227 . S
O217 C216 1.227 . S
N218 Co204 2.140 . S
N218 C221 1.346 . S
N218 C222 1.345 . S
C219 C220 1.387 . S
C219 C223 1.391 . S
C220 C219 1.387 . S
C220 C221 1.369 . S
C220 H229 0.929 . S
C221 N218 1.346 . S
C221 C220 1.369 . S
C221 H224 0.928 . S
C222 N218 1.345 . S
C222 C223 1.371 . S
C222 H225 0.931 . S
C223 C219 1.391 . S
C223 C222 1.371 . S
C223 H230 0.930 . S
H224 C221 0.928 . S
H225 C222 0.931 . S
H226 C202 0.930 . S
H227 C199 0.930 . S
H228 C208 0.930 . S
H229 C220 0.929 . S
H230 C223 0.930 . S
C231 C232 1.351 . S
C231 N234 1.368 . S
C231 H236 0.931 . S
C232 C231 1.351 . S
C232 N233 1.373 . S
C232 H260 0.930 . S
N233 C232 1.373 . S
N233 C235 1.340 . S
N234 C231 1.368 . S
N234 C235 1.321 . S
N234 Co237 2.135 . S
C235 N233 1.340 . S
C235 N234 1.321 . S
C235 H259 0.930 . S
H236 C231 0.931 . S
Co237 N234 2.135 . S
Co237 N240 2.121 . S
Co237 O245 2.055 . S
Co237 O248 2.039 . S
Co237 N251 2.140 . S
C238 O239 1.227 . S
C238 O248 1.265 . S
O239 C238 1.227 . S
N240 Co237 2.121 . S
N240 C242 1.375 . S
N240 C243 1.313 . S
C241 C242 1.338 . S
C241 N244 1.377 . S
C241 H261 0.930 . S
C242 N240 1.375 . S
C242 C241 1.338 . S
C242 H246 0.931 . S
C243 N240 1.313 . S
C243 N244 1.344 . S
C243 H247 0.930 . S
N244 C241 1.377 . S
N244 C243 1.344 . S
O245 Co237 2.055 . S
O245 C249 1.253 . S
H246 C242 0.931 . S
H247 C243 0.930 . S
O248 Co237 2.039 . S
O248 C238 1.265 . S
C249 O245 1.253 . S
C249 O250 1.227 . S
O250 C249 1.227 . S
N251 Co237 2.140 . S
N251 C254 1.346 . S
N251 C255 1.345 . S
C252 C253 1.387 . S
C252 C256 1.391 . S
C253 C252 1.387 . S
C253 C254 1.369 . S
C253 H262 0.929 . S
C254 N251 1.346 . S
C254 C253 1.369 . S
C254 H257 0.928 . S
C255 N251 1.345 . S
C255 C256 1.371 . S
C255 H258 0.931 . S
C256 C252 1.391 . S
C256 C255 1.371 . S
C256 H263 0.930 . S
H257 C254 0.928 . S
H258 C255 0.931 . S
H259 C235 0.930 . S
H260 C232 0.930 . S
H261 C241 0.930 . S
H262 C253 0.929 . S
H263 C256 0.930 . S
C264 C265 1.351 . S
C264 N267 1.368 . S
C264 H269 0.931 . S
C265 C264 1.351 . S
C265 N266 1.373 . S
C265 H293 0.930 . S
N266 C265 1.373 . S
N266 C268 1.340 . S
N267 C264 1.368 . S
N267 C268 1.321 . S
N267 Co270 2.135 . S
C268 N266 1.340 . S
C268 N267 1.321 . S
C268 H292 0.930 . S
H269 C264 0.931 . S
Co270 N267 2.135 . S
Co270 N273 2.121 . S
Co270 O278 2.055 . S
Co270 O281 2.039 . S
Co270 N284 2.140 . S
C271 O272 1.227 . S
C271 O281 1.265 . S
O272 C271 1.227 . S
N273 Co270 2.121 . S
N273 C275 1.375 . S
N273 C276 1.313 . S
C274 C275 1.338 . S
C274 N277 1.377 . S
C274 H294 0.930 . S
C275 N273 1.375 . S
C275 C274 1.338 . S
C275 H279 0.931 . S
C276 N273 1.313 . S
C276 N277 1.344 . S
C276 H280 0.930 . S
N277 C274 1.377 . S
N277 C276 1.344 . S
O278 Co270 2.055 . S
O278 C282 1.253 . S
H279 C275 0.931 . S
H280 C276 0.930 . S
O281 Co270 2.039 . S
O281 C271 1.265 . S
C282 O278 1.253 . S
C282 O283 1.227 . S
O283 C282 1.227 . S
N284 Co270 2.140 . S
N284 C287 1.346 . S
N284 C288 1.345 . S
C285 C286 1.387 . S
C285 C289 1.391 . S
C286 C285 1.387 . S
C286 C287 1.369 . S
C286 H295 0.929 . S
C287 N284 1.346 . S
C287 C286 1.369 . S
C287 H290 0.928 . S
C288 N284 1.345 . S
C288 C289 1.371 . S
C288 H291 0.931 . S
C289 C285 1.391 . S
C289 C288 1.371 . S
C289 H296 0.930 . S
H290 C287 0.928 . S
H291 C288 0.931 . S
H292 C268 0.930 . S
H293 C265 0.930 . S
H294 C274 0.930 . S
H295 C286 0.929 . S
H296 C289 0.930 . S
C297 C298 1.351 . S
C297 N300 1.368 . S
C297 H302 0.931 . S
C298 C297 1.351 . S
C298 N299 1.373 . S
C298 H326 0.930 . S
N299 C298 1.373 . S
N299 C301 1.340 . S
N300 C297 1.368 . S
N300 C301 1.321 . S
N300 Co303 2.135 . S
C301 N299 1.340 . S
C301 N300 1.321 . S
C301 H325 0.930 . S
H302 C297 0.931 . S
Co303 N300 2.135 . S
Co303 N306 2.121 . S
Co303 O311 2.055 . S
Co303 O314 2.039 . S
Co303 N317 2.140 . S
C304 O305 1.227 . S
C304 O314 1.265 . S
O305 C304 1.227 . S
N306 Co303 2.121 . S
N306 C308 1.375 . S
N306 C309 1.313 . S
C307 C308 1.338 . S
C307 N310 1.377 . S
C307 H327 0.930 . S
C308 N306 1.375 . S
C308 C307 1.338 . S
C308 H312 0.931 . S
C309 N306 1.313 . S
C309 N310 1.344 . S
C309 H313 0.930 . S
N310 C307 1.377 . S
N310 C309 1.344 . S
O311 Co303 2.055 . S
O311 C315 1.253 . S
H312 C308 0.931 . S
H313 C309 0.930 . S
O314 Co303 2.039 . S
O314 C304 1.265 . S
C315 O311 1.253 . S
C315 O316 1.227 . S
O316 C315 1.227 . S
N317 Co303 2.140 . S
N317 C320 1.346 . S
N317 C321 1.345 . S
C318 C319 1.387 . S
C318 C322 1.391 . S
C319 C318 1.387 . S
C319 C320 1.369 . S
C319 H328 0.929 . S
C320 N317 1.346 . S
C320 C319 1.369 . S
C320 H323 0.928 . S
C321 N317 1.345 . S
C321 C322 1.371 . S
C321 H324 0.931 . S
C322 C318 1.391 . S
C322 C321 1.371 . S
C322 H329 0.930 . S
H323 C320 0.928 . S
H324 C321 0.931 . S
H325 C301 0.930 . S
H326 C298 0.930 . S
H327 C307 0.930 . S
H328 C319 0.929 . S
H329 C322 0.930 . S
C330 C331 1.351 . S
C330 N333 1.368 . S
C330 H335 0.931 . S
C331 C330 1.351 . S
C331 N332 1.373 . S
C331 H359 0.930 . S
N332 C331 1.373 . S
N332 C334 1.340 . S
N333 C330 1.368 . S
N333 C334 1.321 . S
N333 Co336 2.135 . S
C334 N332 1.340 . S
C334 N333 1.321 . S
C334 H358 0.930 . S
H335 C330 0.931 . S
Co336 N333 2.135 . S
Co336 N339 2.121 . S
Co336 O344 2.055 . S
Co336 O347 2.039 . S
Co336 N350 2.140 . S
C337 O338 1.227 . S
C337 O347 1.265 . S
O338 C337 1.227 . S
N339 Co336 2.121 . S
N339 C341 1.375 . S
N339 C342 1.313 . S
C340 C341 1.338 . S
C340 N343 1.377 . S
C340 H360 0.930 . S
C341 N339 1.375 . S
C341 C340 1.338 . S
C341 H345 0.931 . S
C342 N339 1.313 . S
C342 N343 1.344 . S
C342 H346 0.930 . S
N343 C340 1.377 . S
N343 C342 1.344 . S
O344 Co336 2.055 . S
O344 C348 1.253 . S
H345 C341 0.931 . S
H346 C342 0.930 . S
O347 Co336 2.039 . S
O347 C337 1.265 . S
C348 O344 1.253 . S
C348 O349 1.227 . S
O349 C348 1.227 . S
N350 Co336 2.140 . S
N350 C353 1.346 . S
N350 C354 1.345 . S
C351 C352 1.387 . S
C351 C355 1.391 . S
C352 C351 1.387 . S
C352 C353 1.369 . S
C352 H361 0.929 . S
C353 N350 1.346 . S
C353 C352 1.369 . S
C353 H356 0.928 . S
C354 N350 1.345 . S
C354 C355 1.371 . S
C354 H357 0.931 . S
C355 C351 1.391 . S
C355 C354 1.371 . S
C355 H362 0.930 . S
H356 C353 0.928 . S
H357 C354 0.931 . S
H358 C334 0.930 . S
H359 C331 0.930 . S
H360 C340 0.930 . S
H361 C352 0.929 . S
H362 C355 0.930 . S
C363 C364 1.351 . S
C363 N366 1.368 . S
C363 H368 0.931 . S
C364 C363 1.351 . S
C364 N365 1.373 . S
C364 H392 0.930 . S
N365 C364 1.373 . S
N365 C367 1.340 . S
N366 C363 1.368 . S
N366 C367 1.321 . S
N366 Co369 2.135 . S
C367 N365 1.340 . S
C367 N366 1.321 . S
C367 H391 0.930 . S
H368 C363 0.931 . S
Co369 N366 2.135 . S
Co369 N372 2.121 . S
Co369 O377 2.055 . S
Co369 O380 2.039 . S
Co369 N383 2.140 . S
C370 O371 1.227 . S
C370 O380 1.265 . S
O371 C370 1.227 . S
N372 Co369 2.121 . S
N372 C374 1.375 . S
N372 C375 1.313 . S
C373 C374 1.338 . S
C373 N376 1.377 . S
C373 H393 0.930 . S
C374 N372 1.375 . S
C374 C373 1.338 . S
C374 H378 0.931 . S
C375 N372 1.313 . S
C375 N376 1.344 . S
C375 H379 0.930 . S
N376 C373 1.377 . S
N376 C375 1.344 . S
O377 Co369 2.055 . S
O377 C381 1.253 . S
H378 C374 0.931 . S
H379 C375 0.930 . S
O380 Co369 2.039 . S
O380 C370 1.265 . S
C381 O377 1.253 . S
C381 O382 1.227 . S
O382 C381 1.227 . S
N383 Co369 2.140 . S
N383 C386 1.346 . S
N383 C387 1.345 . S
C384 C385 1.387 . S
C384 C388 1.391 . S
C385 C384 1.387 . S
C385 C386 1.369 . S
C385 H394 0.929 . S
C386 N383 1.346 . S
C386 C385 1.369 . S
C386 H389 0.928 . S
C387 N383 1.345 . S
C387 C388 1.371 . S
C387 H390 0.931 . S
C388 C384 1.391 . S
C388 C387 1.371 . S
C388 H395 0.930 . S
H389 C386 0.928 . S
H390 C387 0.931 . S
H391 C367 0.930 . S
H392 C364 0.930 . S
H393 C373 0.930 . S
H394 C385 0.929 . S
H395 C388 0.930 . S
C396 C397 1.391 . S
C396 C398 1.394 . S
C396 H412 0.931 . S
C397 C396 1.391 . S
C397 C401 1.376 . S
C398 C396 1.394 . S
C398 C399 1.369 . S
C398 C402 1.531 . S
C399 C398 1.369 . S
C399 C400 1.410 . S
C399 C407 1.503 . S
C400 C399 1.410 . S
C400 C401 1.392 . S
C400 C403 1.511 . S
C401 C397 1.376 . S
C401 C400 1.392 . S
C401 H413 0.929 . S
C402 C398 1.531 . S
C402 H414 0.960 . S
C402 H415 0.962 . S
C402 H416 0.960 . S
C403 C400 1.511 . S
C403 H417 0.961 . S
C403 H418 0.961 . S
C403 H419 0.961 . S
C404 C405 1.370 . S
C404 C406 1.363 . S
C404 H420 0.931 . S
C405 C404 1.370 . S
C405 C409 1.408 . S
C406 C404 1.363 . S
C406 C407 1.370 . S
C406 C410 1.524 . S
C407 C399 1.503 . S
C407 C406 1.370 . S
C407 C408 1.403 . S
C408 C407 1.403 . S
C408 C409 1.404 . S
C408 C411 1.539 . S
C409 C405 1.408 . S
C409 C408 1.404 . S
C409 H421 0.930 . S
C410 C406 1.524 . S
C410 H422 0.956 . S
C410 H423 0.961 . S
C410 H424 0.961 . S
C411 C408 1.539 . S
C411 H425 0.958 . S
C411 H426 0.961 . S
C411 H427 0.960 . S
H412 C396 0.931 . S
H413 C401 0.929 . S
H414 C402 0.960 . S
H415 C402 0.962 . S
H416 C402 0.960 . S
H417 C403 0.961 . S
H418 C403 0.961 . S
H419 C403 0.961 . S
H420 C404 0.931 . S
H421 C409 0.930 . S
H422 C410 0.956 . S
H423 C410 0.961 . S
H424 C410 0.961 . S
H425 C411 0.958 . S
H426 C411 0.961 . S
H427 C411 0.960 . S
C428 C429 1.391 . S
C428 C430 1.394 . S
C428 H444 0.931 . S
C429 C428 1.391 . S
C429 C433 1.376 . S
C430 C428 1.394 . S
C430 C431 1.369 . S
C430 C434 1.531 . S
C431 C430 1.369 . S
C431 C432 1.410 . S
C431 C439 1.503 . S
C432 C431 1.410 . S
C432 C433 1.392 . S
C432 C435 1.511 . S
C433 C429 1.376 . S
C433 C432 1.392 . S
C433 H445 0.929 . S
C434 C430 1.531 . S
C434 H446 0.960 . S
C434 H447 0.962 . S
C434 H448 0.960 . S
C435 C432 1.511 . S
C435 H449 0.961 . S
C435 H450 0.961 . S
C435 H451 0.961 . S
C436 C437 1.370 . S
C436 C438 1.363 . S
C436 H452 0.931 . S
C437 C436 1.370 . S
C437 C441 1.408 . S
C438 C436 1.363 . S
C438 C439 1.370 . S
C438 C442 1.524 . S
C439 C431 1.503 . S
C439 C438 1.370 . S
C439 C440 1.403 . S
C440 C439 1.403 . S
C440 C441 1.404 . S
C440 C443 1.539 . S
C441 C437 1.408 . S
C441 C440 1.404 . S
C441 H453 0.930 . S
C442 C438 1.524 . S
C442 H454 0.956 . S
C442 H455 0.961 . S
C442 H456 0.961 . S
C443 C440 1.539 . S
C443 H457 0.958 . S
C443 H458 0.961 . S
C443 H459 0.960 . S
H444 C428 0.931 . S
H445 C433 0.929 . S
H446 C434 0.960 . S
H447 C434 0.962 . S
H448 C434 0.960 . S
H449 C435 0.961 . S
H450 C435 0.961 . S
H451 C435 0.961 . S
H452 C436 0.931 . S
H453 C441 0.930 . S
H454 C442 0.956 . S
H455 C442 0.961 . S
H456 C442 0.961 . S
H457 C443 0.958 . S
H458 C443 0.961 . S
H459 C443 0.960 . S
C460 C461 1.391 . S
C460 C462 1.394 . S
C460 H476 0.931 . S
C461 C460 1.391 . S
C461 C465 1.376 . S
C462 C460 1.394 . S
C462 C463 1.369 . S
C462 C466 1.531 . S
C463 C462 1.369 . S
C463 C464 1.410 . S
C463 C471 1.503 . S
C464 C463 1.410 . S
C464 C465 1.392 . S
C464 C467 1.511 . S
C465 C461 1.376 . S
C465 C464 1.392 . S
C465 H477 0.929 . S
C466 C462 1.531 . S
C466 H478 0.960 . S
C466 H479 0.962 . S
C466 H480 0.960 . S
C467 C464 1.511 . S
C467 H481 0.961 . S
C467 H482 0.961 . S
C467 H483 0.961 . S
C468 C469 1.370 . S
C468 C470 1.363 . S
C468 H484 0.931 . S
C469 C468 1.370 . S
C469 C473 1.408 . S
C470 C468 1.363 . S
C470 C471 1.370 . S
C470 C474 1.524 . S
C471 C463 1.503 . S
C471 C470 1.370 . S
C471 C472 1.403 . S
C472 C471 1.403 . S
C472 C473 1.404 . S
C472 C475 1.539 . S
C473 C469 1.408 . S
C473 C472 1.404 . S
C473 H485 0.930 . S
C474 C470 1.524 . S
C474 H486 0.956 . S
C474 H487 0.961 . S
C474 H488 0.961 . S
C475 C472 1.539 . S
C475 H489 0.958 . S
C475 H490 0.961 . S
C475 H491 0.960 . S
H476 C460 0.931 . S
H477 C465 0.929 . S
H478 C466 0.960 . S
H479 C466 0.962 . S
H480 C466 0.960 . S
H481 C467 0.961 . S
H482 C467 0.961 . S
H483 C467 0.961 . S
H484 C468 0.931 . S
H485 C473 0.930 . S
H486 C474 0.956 . S
H487 C474 0.961 . S
H488 C474 0.961 . S
H489 C475 0.958 . S
H490 C475 0.961 . S
H491 C475 0.960 . S
C492 C493 1.391 . S
C492 C494 1.394 . S
C492 H508 0.931 . S
C493 C492 1.391 . S
C493 C497 1.376 . S
C494 C492 1.394 . S
C494 C495 1.369 . S
C494 C498 1.531 . S
C495 C494 1.369 . S
C495 C496 1.410 . S
C495 C503 1.503 . S
C496 C495 1.410 . S
C496 C497 1.392 . S
C496 C499 1.511 . S
C497 C493 1.376 . S
C497 C496 1.392 . S
C497 H509 0.929 . S
C498 C494 1.531 . S
C498 H510 0.960 . S
C498 H511 0.962 . S
C498 H512 0.960 . S
C499 C496 1.511 . S
C499 H513 0.961 . S
C499 H514 0.961 . S
C499 H515 0.961 . S
C500 C501 1.370 . S
C500 C502 1.363 . S
C500 H516 0.931 . S
C501 C500 1.370 . S
C501 C505 1.408 . S
C502 C500 1.363 . S
C502 C503 1.370 . S
C502 C506 1.524 . S
C503 C495 1.503 . S
C503 C502 1.370 . S
C503 C504 1.403 . S
C504 C503 1.403 . S
C504 C505 1.404 . S
C504 C507 1.539 . S
C505 C501 1.408 . S
C505 C504 1.404 . S
C505 H517 0.930 . S
C506 C502 1.524 . S
C506 H518 0.956 . S
C506 H519 0.961 . S
C506 H520 0.961 . S
C507 C504 1.539 . S
C507 H521 0.958 . S
C507 H522 0.961 . S
C507 H523 0.960 . S
H508 C492 0.931 . S
H509 C497 0.929 . S
H510 C498 0.960 . S
H511 C498 0.962 . S
H512 C498 0.960 . S
H513 C499 0.961 . S
H514 C499 0.961 . S
H515 C499 0.961 . S
H516 C500 0.931 . S
H517 C505 0.930 . S
H518 C506 0.956 . S
H519 C506 0.961 . S
H520 C506 0.961 . S
H521 C507 0.958 . S
H522 C507 0.961 . S
H523 C507 0.960 . S
C524 C525 1.391 . S
C524 C526 1.394 . S
C524 H540 0.931 . S
C525 C524 1.391 . S
C525 C529 1.376 . S
C526 C524 1.394 . S
C526 C527 1.369 . S
C526 C530 1.531 . S
C527 C526 1.369 . S
C527 C528 1.410 . S
C527 C535 1.503 . S
C528 C527 1.410 . S
C528 C529 1.392 . S
C528 C531 1.511 . S
C529 C525 1.376 . S
C529 C528 1.392 . S
C529 H541 0.929 . S
C530 C526 1.531 . S
C530 H542 0.960 . S
C530 H543 0.962 . S
C530 H544 0.960 . S
C531 C528 1.511 . S
C531 H545 0.961 . S
C531 H546 0.961 . S
C531 H547 0.961 . S
C532 C533 1.370 . S
C532 C534 1.363 . S
C532 H548 0.931 . S
C533 C532 1.370 . S
C533 C537 1.408 . S
C534 C532 1.363 . S
C534 C535 1.370 . S
C534 C538 1.524 . S
C535 C527 1.503 . S
C535 C534 1.370 . S
C535 C536 1.403 . S
C536 C535 1.403 . S
C536 C537 1.404 . S
C536 C539 1.539 . S
C537 C533 1.408 . S
C537 C536 1.404 . S
C537 H549 0.930 . S
C538 C534 1.524 . S
C538 H550 0.956 . S
C538 H551 0.961 . S
C538 H552 0.961 . S
C539 C536 1.539 . S
C539 H553 0.958 . S
C539 H554 0.961 . S
C539 H555 0.960 . S
H540 C524 0.931 . S
H541 C529 0.929 . S
H542 C530 0.960 . S
H543 C530 0.962 . S
H544 C530 0.960 . S
H545 C531 0.961 . S
H546 C531 0.961 . S
H547 C531 0.961 . S
H548 C532 0.931 . S
H549 C537 0.930 . S
H550 C538 0.956 . S
H551 C538 0.961 . S
H552 C538 0.961 . S
H553 C539 0.958 . S
H554 C539 0.961 . S
H555 C539 0.960 . S
C556 C557 1.391 . S
C556 C558 1.394 . S
C556 H572 0.931 . S
C557 C556 1.391 . S
C557 C561 1.376 . S
C558 C556 1.394 . S
C558 C559 1.369 . S
C558 C562 1.531 . S
C559 C558 1.369 . S
C559 C560 1.410 . S
C559 C567 1.503 . S
C560 C559 1.410 . S
C560 C561 1.392 . S
C560 C563 1.511 . S
C561 C557 1.376 . S
C561 C560 1.392 . S
C561 H573 0.929 . S
C562 C558 1.531 . S
C562 H574 0.960 . S
C562 H575 0.962 . S
C562 H576 0.960 . S
C563 C560 1.511 . S
C563 H577 0.961 . S
C563 H578 0.961 . S
C563 H579 0.961 . S
C564 C565 1.370 . S
C564 C566 1.363 . S
C564 H580 0.931 . S
C565 C564 1.370 . S
C565 C569 1.408 . S
C566 C564 1.363 . S
C566 C567 1.370 . S
C566 C570 1.524 . S
C567 C559 1.503 . S
C567 C566 1.370 . S
C567 C568 1.403 . S
C568 C567 1.403 . S
C568 C569 1.404 . S
C568 C571 1.539 . S
C569 C565 1.408 . S
C569 C568 1.404 . S
C569 H581 0.930 . S
C570 C566 1.524 . S
C570 H582 0.956 . S
C570 H583 0.961 . S
C570 H584 0.961 . S
C571 C568 1.539 . S
C571 H585 0.958 . S
C571 H586 0.961 . S
C571 H587 0.960 . S
H572 C556 0.931 . S
H573 C561 0.929 . S
H574 C562 0.960 . S
H575 C562 0.962 . S
H576 C562 0.960 . S
H577 C563 0.961 . S
H578 C563 0.961 . S
H579 C563 0.961 . S
H580 C564 0.931 . S
H581 C569 0.930 . S
H582 C570 0.956 . S
H583 C570 0.961 . S
H584 C570 0.961 . S
H585 C571 0.958 . S
H586 C571 0.961 . S
H587 C571 0.960 . S
C588 C589 1.391 . S
C588 C590 1.394 . S
C588 H604 0.931 . S
C589 C588 1.391 . S
C589 C593 1.376 . S
C590 C588 1.394 . S
C590 C591 1.369 . S
C590 C594 1.531 . S
C591 C590 1.369 . S
C591 C592 1.410 . S
C591 C599 1.503 . S
C592 C591 1.410 . S
C592 C593 1.392 . S
C592 C595 1.511 . S
C593 C589 1.376 . S
C593 C592 1.392 . S
C593 H605 0.929 . S
C594 C590 1.531 . S
C594 H606 0.960 . S
C594 H607 0.962 . S
C594 H608 0.960 . S
C595 C592 1.511 . S
C595 H609 0.961 . S
C595 H610 0.961 . S
C595 H611 0.961 . S
C596 C597 1.370 . S
C596 C598 1.363 . S
C596 H612 0.931 . S
C597 C596 1.370 . S
C597 C601 1.408 . S
C598 C596 1.363 . S
C598 C599 1.370 . S
C598 C602 1.524 . S
C599 C591 1.503 . S
C599 C598 1.370 . S
C599 C600 1.403 . S
C600 C599 1.403 . S
C600 C601 1.404 . S
C600 C603 1.539 . S
C601 C597 1.408 . S
C601 C600 1.404 . S
C601 H613 0.930 . S
C602 C598 1.524 . S
C602 H614 0.956 . S
C602 H615 0.961 . S
C602 H616 0.961 . S
C603 C600 1.539 . S
C603 H617 0.958 . S
C603 H618 0.961 . S
C603 H619 0.960 . S
H604 C588 0.931 . S
H605 C593 0.929 . S
H606 C594 0.960 . S
H607 C594 0.962 . S
H608 C594 0.960 . S
H609 C595 0.961 . S
H610 C595 0.961 . S
H611 C595 0.961 . S
H612 C596 0.931 . S
H613 C601 0.930 . S
H614 C602 0.956 . S
H615 C602 0.961 . S
H616 C602 0.961 . S
H617 C603 0.958 . S
H618 C603 0.961 . S
H619 C603 0.960 . S
C620 C621 1.391 . S
C620 C622 1.394 . S
C620 H636 0.931 . S
C621 C620 1.391 . S
C621 C625 1.376 . S
C622 C620 1.394 . S
C622 C623 1.369 . S
C622 C626 1.531 . S
C623 C622 1.369 . S
C623 C624 1.410 . S
C623 C631 1.503 . S
C624 C623 1.410 . S
C624 C625 1.392 . S
C624 C627 1.511 . S
C625 C621 1.376 . S
C625 C624 1.392 . S
C625 H637 0.929 . S
C626 C622 1.531 . S
C626 H638 0.960 . S
C626 H639 0.962 . S
C626 H640 0.960 . S
C627 C624 1.511 . S
C627 H641 0.961 . S
C627 H642 0.961 . S
C627 H643 0.961 . S
C628 C629 1.370 . S
C628 C630 1.363 . S
C628 H644 0.931 . S
C629 C628 1.370 . S
C629 C633 1.408 . S
C630 C628 1.363 . S
C630 C631 1.370 . S
C630 C634 1.524 . S
C631 C623 1.503 . S
C631 C630 1.370 . S
C631 C632 1.403 . S
C632 C631 1.403 . S
C632 C633 1.404 . S
C632 C635 1.539 . S
C633 C629 1.408 . S
C633 C632 1.404 . S
C633 H645 0.930 . S
C634 C630 1.524 . S
C634 H646 0.956 . S
C634 H647 0.961 . S
C634 H648 0.961 . S
C635 C632 1.539 . S
C635 H649 0.958 . S
C635 H650 0.961 . S
C635 H651 0.960 . S
H636 C620 0.931 . S
H637 C625 0.929 . S
H638 C626 0.960 . S
H639 C626 0.962 . S
H640 C626 0.960 . S
H641 C627 0.961 . S
H642 C627 0.961 . S
H643 C627 0.961 . S
H644 C628 0.931 . S
H645 C633 0.930 . S
H646 C634 0.956 . S
H647 C634 0.961 . S
H648 C634 0.961 . S
H649 C635 0.958 . S
H650 C635 0.961 . S
H651 C635 0.960 . S
C652 C653 1.391 . S
C652 C654 1.394 . S
C652 H668 0.931 . S
C653 C652 1.391 . S
C653 C657 1.376 . S
C654 C652 1.394 . S
C654 C655 1.369 . S
C654 C658 1.531 . S
C655 C654 1.369 . S
C655 C656 1.410 . S
C655 C663 1.503 . S
C656 C655 1.410 . S
C656 C657 1.392 . S
C656 C659 1.511 . S
C657 C653 1.376 . S
C657 C656 1.392 . S
C657 H669 0.929 . S
C658 C654 1.531 . S
C658 H670 0.960 . S
C658 H671 0.962 . S
C658 H672 0.960 . S
C659 C656 1.511 . S
C659 H673 0.961 . S
C659 H674 0.961 . S
C659 H675 0.961 . S
C660 C661 1.370 . S
C660 C662 1.363 . S
C660 H676 0.931 . S
C661 C660 1.370 . S
C661 C665 1.408 . S
C662 C660 1.363 . S
C662 C663 1.370 . S
C662 C666 1.524 . S
C663 C655 1.503 . S
C663 C662 1.370 . S
C663 C664 1.403 . S
C664 C663 1.403 . S
C664 C665 1.404 . S
C664 C667 1.539 . S
C665 C661 1.408 . S
C665 C664 1.404 . S
C665 H677 0.930 . S
C666 C662 1.524 . S
C666 H678 0.956 . S
C666 H679 0.961 . S
C666 H680 0.961 . S
C667 C664 1.539 . S
C667 H681 0.958 . S
C667 H682 0.961 . S
C667 H683 0.960 . S
H668 C652 0.931 . S
H669 C657 0.929 . S
H670 C658 0.960 . S
H671 C658 0.962 . S
H672 C658 0.960 . S
H673 C659 0.961 . S
H674 C659 0.961 . S
H675 C659 0.961 . S
H676 C660 0.931 . S
H677 C665 0.930 . S
H678 C666 0.956 . S
H679 C666 0.961 . S
H680 C666 0.961 . S
H681 C667 0.958 . S
H682 C667 0.961 . S
H683 C667 0.960 . S
C684 C685 1.391 . S
C684 C686 1.394 . S
C684 H700 0.931 . S
C685 C684 1.391 . S
C685 C689 1.376 . S
C686 C684 1.394 . S
C686 C687 1.369 . S
C686 C690 1.531 . S
C687 C686 1.369 . S
C687 C688 1.410 . S
C687 C695 1.503 . S
C688 C687 1.410 . S
C688 C689 1.392 . S
C688 C691 1.511 . S
C689 C685 1.376 . S
C689 C688 1.392 . S
C689 H701 0.929 . S
C690 C686 1.531 . S
C690 H702 0.960 . S
C690 H703 0.962 . S
C690 H704 0.960 . S
C691 C688 1.511 . S
C691 H705 0.961 . S
C691 H706 0.961 . S
C691 H707 0.961 . S
C692 C693 1.370 . S
C692 C694 1.363 . S
C692 H708 0.931 . S
C693 C692 1.370 . S
C693 C697 1.408 . S
C694 C692 1.363 . S
C694 C695 1.370 . S
C694 C698 1.524 . S
C695 C687 1.503 . S
C695 C694 1.370 . S
C695 C696 1.403 . S
C696 C695 1.403 . S
C696 C697 1.404 . S
C696 C699 1.539 . S
C697 C693 1.408 . S
C697 C696 1.404 . S
C697 H709 0.930 . S
C698 C694 1.524 . S
C698 H710 0.956 . S
C698 H711 0.961 . S
C698 H712 0.961 . S
C699 C696 1.539 . S
C699 H713 0.958 . S
C699 H714 0.961 . S
C699 H715 0.960 . S
H700 C684 0.931 . S
H701 C689 0.929 . S
H702 C690 0.960 . S
H703 C690 0.962 . S
H704 C690 0.960 . S
H705 C691 0.961 . S
H706 C691 0.961 . S
H707 C691 0.961 . S
H708 C692 0.931 . S
H709 C697 0.930 . S
H710 C698 0.956 . S
H711 C698 0.961 . S
H712 C698 0.961 . S
H713 C699 0.958 . S
H714 C699 0.961 . S
H715 C699 0.960 . S
C716 C717 1.391 . S
C716 C718 1.394 . S
C716 H732 0.931 . S
C717 C716 1.391 . S
C717 C721 1.376 . S
C718 C716 1.394 . S
C718 C719 1.369 . S
C718 C722 1.531 . S
C719 C718 1.369 . S
C719 C720 1.410 . S
C719 C727 1.503 . S
C720 C719 1.410 . S
C720 C721 1.392 . S
C720 C723 1.511 . S
C721 C717 1.376 . S
C721 C720 1.392 . S
C721 H733 0.929 . S
C722 C718 1.531 . S
C722 H734 0.960 . S
C722 H735 0.962 . S
C722 H736 0.960 . S
C723 C720 1.511 . S
C723 H737 0.961 . S
C723 H738 0.961 . S
C723 H739 0.961 . S
C724 C725 1.370 . S
C724 C726 1.363 . S
C724 H740 0.931 . S
C725 C724 1.370 . S
C725 C729 1.408 . S
C726 C724 1.363 . S
C726 C727 1.370 . S
C726 C730 1.524 . S
C727 C719 1.503 . S
C727 C726 1.370 . S
C727 C728 1.403 . S
C728 C727 1.403 . S
C728 C729 1.404 . S
C728 C731 1.539 . S
C729 C725 1.408 . S
C729 C728 1.404 . S
C729 H741 0.930 . S
C730 C726 1.524 . S
C730 H742 0.956 . S
C730 H743 0.961 . S
C730 H744 0.961 . S
C731 C728 1.539 . S
C731 H745 0.958 . S
C731 H746 0.961 . S
C731 H747 0.960 . S
H732 C716 0.931 . S
H733 C721 0.929 . S
H734 C722 0.960 . S
H735 C722 0.962 . S
H736 C722 0.960 . S
H737 C723 0.961 . S
H738 C723 0.961 . S
H739 C723 0.961 . S
H740 C724 0.931 . S
H741 C729 0.930 . S
H742 C730 0.956 . S
H743 C730 0.961 . S
H744 C730 0.961 . S
H745 C731 0.958 . S
H746 C731 0.961 . S
H747 C731 0.960 . S
C748 C749 1.391 . S
C748 C750 1.394 . S
C748 H764 0.931 . S
C749 C748 1.391 . S
C749 C753 1.376 . S
C750 C748 1.394 . S
C750 C751 1.369 . S
C750 C754 1.531 . S
C751 C750 1.369 . S
C751 C752 1.410 . S
C751 C759 1.503 . S
C752 C751 1.410 . S
C752 C753 1.392 . S
C752 C755 1.511 . S
C753 C749 1.376 . S
C753 C752 1.392 . S
C753 H765 0.929 . S
C754 C750 1.531 . S
C754 H766 0.960 . S
C754 H767 0.962 . S
C754 H768 0.960 . S
C755 C752 1.511 . S
C755 H769 0.961 . S
C755 H770 0.961 . S
C755 H771 0.961 . S
C756 C757 1.370 . S
C756 C758 1.363 . S
C756 H772 0.931 . S
C757 C756 1.370 . S
C757 C761 1.408 . S
C758 C756 1.363 . S
C758 C759 1.370 . S
C758 C762 1.524 . S
C759 C751 1.503 . S
C759 C758 1.370 . S
C759 C760 1.403 . S
C760 C759 1.403 . S
C760 C761 1.404 . S
C760 C763 1.539 . S
C761 C757 1.408 . S
C761 C760 1.404 . S
C761 H773 0.930 . S
C762 C758 1.524 . S
C762 H774 0.956 . S
C762 H775 0.961 . S
C762 H776 0.961 . S
C763 C760 1.539 . S
C763 H777 0.958 . S
C763 H778 0.961 . S
C763 H779 0.960 . S
H764 C748 0.931 . S
H765 C753 0.929 . S
H766 C754 0.960 . S
H767 C754 0.962 . S
H768 C754 0.960 . S
H769 C755 0.961 . S
H770 C755 0.961 . S
H771 C755 0.961 . S
H772 C756 0.931 . S
H773 C761 0.930 . S
H774 C762 0.956 . S
H775 C762 0.961 . S
H776 C762 0.961 . S
H777 C763 0.958 . S
H778 C763 0.961 . S
H779 C763 0.960 . S
C780 C781 1.391 . S
C780 C782 1.394 . S
C780 H796 0.931 . S
C781 C780 1.391 . S
C781 C785 1.376 . S
C782 C780 1.394 . S
C782 C783 1.369 . S
C782 C786 1.531 . S
C783 C782 1.369 . S
C783 C784 1.410 . S
C783 C791 1.503 1_554 S
C784 C783 1.410 . S
C784 C785 1.392 . S
C784 C787 1.511 1_554 S
C785 C781 1.376 . S
C785 C784 1.392 . S
C785 H797 0.929 . S
C786 C782 1.531 . S
C786 H798 0.960 . S
C786 H799 0.962 . S
C786 H800 0.960 . S
C787 C784 1.511 1_556 S
C787 H801 0.961 . S
C787 H802 0.961 . S
C787 H803 0.961 . S
C788 C789 1.370 1_545 S
C788 C790 1.363 . S
C788 H804 0.931 . S
C789 C788 1.370 1_565 S
C789 C793 1.408 . S
C790 C788 1.363 . S
C790 C791 1.370 . S
C790 C794 1.524 . S
C791 C783 1.503 1_556 S
C791 C790 1.370 . S
C791 C792 1.403 1_545 S
C792 C791 1.403 1_565 S
C792 C793 1.404 . S
C792 C795 1.539 1_556 S
C793 C789 1.408 . S
C793 C792 1.404 . S
C793 H805 0.930 . S
C794 C790 1.524 . S
C794 H806 0.956 . S
C794 H807 0.961 . S
C794 H808 0.961 . S
C795 C792 1.539 1_554 S
C795 H809 0.958 . S
C795 H810 0.961 . S
C795 H811 0.960 1_565 S
H796 C780 0.931 . S
H797 C785 0.929 . S
H798 C786 0.960 . S
H799 C786 0.962 . S
H800 C786 0.960 . S
H801 C787 0.961 . S
H802 C787 0.961 . S
H803 C787 0.961 . S
H804 C788 0.931 . S
H805 C793 0.930 . S
H806 C794 0.956 . S
H807 C794 0.961 . S
H808 C794 0.961 . S
H809 C795 0.958 . S
H810 C795 0.961 . S
H811 C795 0.960 1_545 S
C812 C813 1.391 . S
C812 C814 1.394 . S
C812 H828 0.931 . S
C813 C812 1.391 . S
C813 C817 1.376 . S
C814 C812 1.394 . S
C814 C815 1.369 . S
C814 C818 1.531 . S
C815 C814 1.369 . S
C815 C816 1.410 . S
C815 C823 1.503 1_554 S
C816 C815 1.410 . S
C816 C817 1.392 . S
C816 C819 1.511 1_554 S
C817 C813 1.376 . S
C817 C816 1.392 . S
C817 H829 0.929 . S
C818 C814 1.531 . S
C818 H830 0.960 . S
C818 H831 0.962 . S
C818 H832 0.960 . S
C819 C816 1.511 1_556 S
C819 H833 0.961 . S
C819 H834 0.961 . S
C819 H835 0.961 1_556 S
C820 C821 1.370 1_655 S
C820 C822 1.363 . S
C820 H836 0.931 . S
C821 C820 1.370 1_455 S
C821 C825 1.408 . S
C822 C820 1.363 . S
C822 C823 1.370 . S
C822 C826 1.524 . S
C823 C815 1.503 1_556 S
C823 C822 1.370 . S
C823 C824 1.403 1_655 S
C824 C823 1.403 1_455 S
C824 C825 1.404 . S
C824 C827 1.539 1_556 S
C825 C821 1.408 . S
C825 C824 1.404 . S
C825 H837 0.930 . S
C826 C822 1.524 . S
C826 H838 0.956 . S
C826 H839 0.961 . S
C826 H840 0.961 . S
C827 C824 1.539 1_554 S
C827 H841 0.958 . S
C827 H842 0.961 . S
C827 H843 0.960 1_455 S
H828 C812 0.931 . S
H829 C817 0.929 . S
H830 C818 0.960 . S
H831 C818 0.962 . S
H832 C818 0.960 . S
H833 C819 0.961 . S
H834 C819 0.961 . S
H835 C819 0.961 1_554 S
H836 C820 0.931 . S
H837 C825 0.930 . S
H838 C826 0.956 . S
H839 C826 0.961 . S
H840 C826 0.961 . S
H841 C827 0.958 . S
H842 C827 0.961 . S
H843 C827 0.960 1_655 S
C844 C845 1.391 . S
C844 C846 1.394 . S
C844 H860 0.931 . S
C845 C844 1.391 . S
C845 C849 1.376 . S
C846 C844 1.394 . S
C846 C847 1.369 . S
C846 C850 1.531 . S
C847 C846 1.369 . S
C847 C848 1.410 . S
C847 C855 1.503 1_554 S
C848 C847 1.410 . S
C848 C849 1.392 . S
C848 C851 1.511 1_554 S
C849 C845 1.376 . S
C849 C848 1.392 . S
C849 H861 0.929 . S
C850 C846 1.531 . S
C850 H862 0.960 . S
C850 H863 0.962 . S
C850 H864 0.960 . S
C851 C848 1.511 1_556 S
C851 H865 0.961 . S
C851 H866 0.961 . S
C851 H867 0.961 . S
C852 C853 1.370 . S
C852 C854 1.363 . S
C852 H868 0.931 . S
C853 C852 1.370 . S
C853 C857 1.408 . S
C854 C852 1.363 . S
C854 C855 1.370 . S
C854 C858 1.524 . S
C855 C847 1.503 1_556 S
C855 C854 1.370 . S
C855 C856 1.403 . S
C856 C855 1.403 . S
C856 C857 1.404 . S
C856 C859 1.539 . S
C857 C853 1.408 . S
C857 C856 1.404 . S
C857 H869 0.930 . S
C858 C854 1.524 . S
C858 H870 0.956 1_556 S
C858 H871 0.961 . S
C858 H872 0.961 . S
C859 C856 1.539 . S
C859 H873 0.958 1_556 S
C859 H874 0.961 . S
C859 H875 0.960 1_556 S
H860 C844 0.931 . S
H861 C849 0.929 . S
H862 C850 0.960 . S
H863 C850 0.962 . S
H864 C850 0.960 . S
H865 C851 0.961 . S
H866 C851 0.961 . S
H867 C851 0.961 . S
H868 C852 0.931 . S
H869 C857 0.930 . S
H870 C858 0.956 1_554 S
H871 C858 0.961 . S
H872 C858 0.961 . S
H873 C859 0.958 1_554 S
H874 C859 0.961 . S
H875 C859 0.960 1_554 S
C876 C877 1.391 . S
C876 C878 1.394 1_655 S
C876 H892 0.931 . S
C877 C876 1.391 . S
C877 C881 1.376 1_655 S
C878 C876 1.394 1_455 S
C878 C879 1.369 . S
C878 C882 1.531 . S
C879 C878 1.369 . S
C879 C880 1.410 . S
C879 C887 1.503 . S
C880 C879 1.410 . S
C880 C881 1.392 . S
C880 C883 1.511 . S
C881 C877 1.376 1_455 S
C881 C880 1.392 . S
C881 H893 0.929 . S
C882 C878 1.531 . S
C882 H894 0.960 . S
C882 H895 0.962 . S
C882 H896 0.960 . S
C883 C880 1.511 . S
C883 H897 0.961 . S
C883 H898 0.961 . S
C883 H899 0.961 . S
C884 C885 1.370 . S
C884 C886 1.363 . S
C884 H900 0.931 . S
C885 C884 1.370 . S
C885 C889 1.408 . S
C886 C884 1.363 . S
C886 C887 1.370 . S
C886 C890 1.524 . S
C887 C879 1.503 . S
C887 C886 1.370 . S
C887 C888 1.403 . S
C888 C887 1.403 . S
C888 C889 1.404 . S
C888 C891 1.539 . S
C889 C885 1.408 . S
C889 C888 1.404 . S
C889 H901 0.930 . S
C890 C886 1.524 . S
C890 H902 0.956 1_455 S
C890 H903 0.961 . S
C890 H904 0.961 . S
C891 C888 1.539 . S
C891 H905 0.958 . S
C891 H906 0.961 . S
C891 H907 0.960 . S
H892 C876 0.931 . S
H893 C881 0.929 . S
H894 C882 0.960 . S
H895 C882 0.962 . S
H896 C882 0.960 . S
H897 C883 0.961 . S
H898 C883 0.961 . S
H899 C883 0.961 . S
H900 C884 0.931 . S
H901 C889 0.930 . S
H902 C890 0.956 1_655 S
H903 C890 0.961 . S
H904 C890 0.961 . S
H905 C891 0.958 . S
H906 C891 0.961 . S
H907 C891 0.960 . S
C908 C909 1.391 . S
C908 C910 1.394 . S
C908 H924 0.931 . S
C909 C908 1.391 . S
C909 C913 1.376 . S
C910 C908 1.394 . S
C910 C911 1.369 . S
C910 C914 1.531 . S
C911 C910 1.369 . S
C911 C912 1.410 . S
C911 C919 1.503 . S
C912 C911 1.410 . S
C912 C913 1.392 . S
C912 C915 1.511 . S
C913 C909 1.376 . S
C913 C912 1.392 . S
C913 H925 0.929 . S
C914 C910 1.531 . S
C914 H926 0.960 . S
C914 H927 0.962 . S
C914 H928 0.960 . S
C915 C912 1.511 . S
C915 H929 0.961 . S
C915 H930 0.961 . S
C915 H931 0.961 . S
C916 C917 1.370 . S
C916 C918 1.363 . S
C916 H932 0.931 . S
C917 C916 1.370 . S
C917 C921 1.408 . S
C918 C916 1.363 . S
C918 C919 1.370 . S
C918 C922 1.524 . S
C919 C911 1.503 . S
C919 C918 1.370 . S
C919 C920 1.403 . S
C920 C919 1.403 . S
C920 C921 1.404 . S
C920 C923 1.539 . S
C921 C917 1.408 . S
C921 C920 1.404 . S
C921 H933 0.930 . S
C922 C918 1.524 . S
C922 H934 0.956 . S
C922 H935 0.961 . S
C922 H936 0.961 . S
C923 C920 1.539 . S
C923 H937 0.958 . S
C923 H938 0.961 . S
C923 H939 0.960 . S
H924 C908 0.931 . S
H925 C913 0.929 . S
H926 C914 0.960 . S
H927 C914 0.962 . S
H928 C914 0.960 . S
H929 C915 0.961 . S
H930 C915 0.961 . S
H931 C915 0.961 . S
H932 C916 0.931 . S
H933 C921 0.930 . S
H934 C922 0.956 . S
H935 C922 0.961 . S
H936 C922 0.961 . S
H937 C923 0.958 . S
H938 C923 0.961 . S
H939 C923 0.960 . S
C940 C941 1.391 1_565 S
C940 C942 1.394 . S
C940 H956 0.931 . S
C941 C940 1.391 1_545 S
C941 C945 1.376 . S
C942 C940 1.394 . S
C942 C943 1.369 . S
C942 C946 1.531 . S
C943 C942 1.369 . S
C943 C944 1.410 . S
C943 C951 1.503 . S
C944 C943 1.410 . S
C944 C945 1.392 1_565 S
C944 C947 1.511 1_565 S
C945 C941 1.376 . S
C945 C944 1.392 1_545 S
C945 H957 0.929 . S
C946 C942 1.531 . S
C946 H958 0.960 . S
C946 H959 0.962 . S
C946 H960 0.960 . S
C947 C944 1.511 1_545 S
C947 H961 0.961 . S
C947 H962 0.961 1_545 S
C947 H963 0.961 1_545 S
C948 C949 1.370 . S
C948 C950 1.363 . S
C948 H964 0.931 . S
C949 C948 1.370 . S
C949 C953 1.408 . S
C950 C948 1.363 . S
C950 C951 1.370 . S
C950 C954 1.524 . S
C951 C943 1.503 . S
C951 C950 1.370 . S
C951 C952 1.403 . S
C952 C951 1.403 . S
C952 C953 1.404 . S
C952 C955 1.539 . S
C953 C949 1.408 . S
C953 C952 1.404 . S
C953 H965 0.930 . S
C954 C950 1.524 . S
C954 H966 0.956 . S
C954 H967 0.961 . S
C954 H968 0.961 . S
C955 C952 1.539 . S
C955 H969 0.958 . S
C955 H970 0.961 . S
C955 H971 0.960 . S
H956 C940 0.931 . S
H957 C945 0.929 . S
H958 C946 0.960 . S
H959 C946 0.962 . S
H960 C946 0.960 . S
H961 C947 0.961 . S
H962 C947 0.961 1_565 S
H963 C947 0.961 1_565 S
H964 C948 0.931 . S
H965 C953 0.930 . S
H966 C954 0.956 . S
H967 C954 0.961 . S
H968 C954 0.961 . S
H969 C955 0.958 . S
H970 C955 0.961 . S
H971 C955 0.960 . S
C972 C973 1.391 . S
C972 C974 1.394 1_545 S
C972 H988 0.931 . S
C973 C972 1.391 . S
C973 C977 1.376 1_545 S
C974 C972 1.394 1_565 S
C974 C975 1.369 . S
C974 C978 1.531 1_564 S
C975 C974 1.369 . S
C975 C976 1.410 . S
C975 C983 1.503 1_554 S
C976 C975 1.410 . S
C976 C977 1.392 . S
C976 C979 1.511 . S
C977 C973 1.376 1_565 S
C977 C976 1.392 . S
C977 H989 0.929 . S
C978 C974 1.531 1_546 S
C978 H990 0.960 1_545 S
C978 H991 0.962 . S
C978 H992 0.960 . S
C979 C976 1.511 . S
C979 H993 0.961 . S
C979 H994 0.961 . S
C979 H995 0.961 . S
C980 C981 1.370 . S
C980 C982 1.363 . S
C980 H996 0.931 . S
C981 C980 1.370 . S
C981 C985 1.408 . S
C982 C980 1.363 . S
C982 C983 1.370 . S
C982 C986 1.524 . S
C983 C975 1.503 1_556 S
C983 C982 1.370 . S
C983 C984 1.403 . S
C984 C983 1.403 . S
C984 C985 1.404 . S
C984 C987 1.539 1_556 S
C985 C981 1.408 . S
C985 C984 1.404 . S
C985 H997 0.930 . S
C986 C982 1.524 . S
C986 H998 0.956 . S
C986 H999 0.961 . S
C986 H1000 0.961 . S
C987 C984 1.539 1_554 S
C987 H1001 0.958 . S
C987 H1002 0.961 . S
C987 H1003 0.960 . S
H988 C972 0.931 . S
H989 C977 0.929 . S
H990 C978 0.960 1_565 S
H991 C978 0.962 . S
H992 C978 0.960 . S
H993 C979 0.961 . S
H994 C979 0.961 . S
H995 C979 0.961 . S
H996 C980 0.931 . S
H997 C985 0.930 . S
H998 C986 0.956 . S
H999 C986 0.961 . S
H1000 C986 0.961 . S
H1001 C987 0.958 . S
H1002 C987 0.961 . S
H1003 C987 0.960 . S
C1004 C1005 1.391 1_455 S
C1004 C1006 1.394 . S
C1004 H1020 0.931 . S
C1005 C1004 1.391 1_655 S
C1005 C1009 1.376 . S
C1006 C1004 1.394 . S
C1006 C1007 1.369 . S
C1006 C1010 1.531 . S
C1007 C1006 1.369 . S
C1007 C1008 1.410 1_455 S
C1007 C1015 1.503 1_554 S
C1008 C1007 1.410 1_655 S
C1008 C1009 1.392 . S
C1008 C1011 1.511 1_554 S
C1009 C1005 1.376 . S
C1009 C1008 1.392 . S
C1009 H1021 0.929 . S
C1010 C1006 1.531 . S
C1010 H1022 0.960 . S
C1010 H1023 0.962 . S
C1010 H1024 0.960 . S
C1011 C1008 1.511 1_556 S
C1011 H1025 0.961 . S
C1011 H1026 0.961 1_655 S
C1011 H1027 0.961 . S
C1012 C1013 1.370 . S
C1012 C1014 1.363 . S
C1012 H1028 0.931 . S
C1013 C1012 1.370 . S
C1013 C1017 1.408 . S
C1014 C1012 1.363 . S
C1014 C1015 1.370 . S
C1014 C1018 1.524 1_556 S
C1015 C1007 1.503 1_556 S
C1015 C1014 1.370 . S
C1015 C1016 1.403 . S
C1016 C1015 1.403 . S
C1016 C1017 1.404 . S
C1016 C1019 1.539 . S
C1017 C1013 1.408 . S
C1017 C1016 1.404 . S
C1017 H1029 0.930 . S
C1018 C1014 1.524 1_554 S
C1018 H1030 0.956 . S
C1018 H1031 0.961 . S
C1018 H1032 0.961 . S
C1019 C1016 1.539 . S
C1019 H1033 0.958 . S
C1019 H1034 0.961 . S
C1019 H1035 0.960 . S
H1020 C1004 0.931 . S
H1021 C1009 0.929 . S
H1022 C1010 0.960 . S
H1023 C1010 0.962 . S
H1024 C1010 0.960 . S
H1025 C1011 0.961 . S
H1026 C1011 0.961 1_455 S
H1027 C1011 0.961 . S
H1028 C1012 0.931 . S
H1029 C1017 0.930 . S
H1030 C1018 0.956 . S
H1031 C1018 0.961 . S
H1032 C1018 0.961 . S
H1033 C1019 0.958 . S
H1034 C1019 0.961 . S
H1035 C1019 0.960 . S
C1036 C1037 1.391 . S
C1036 C1038 1.394 . S
C1036 H1052 0.931 . S
C1037 C1036 1.391 . S
C1037 C1041 1.376 . S
C1038 C1036 1.394 . S
C1038 C1039 1.369 . S
C1038 C1042 1.531 1_556 S
C1039 C1038 1.369 . S
C1039 C1040 1.410 . S
C1039 C1047 1.503 1_556 S
C1040 C1039 1.410 . S
C1040 C1041 1.392 . S
C1040 C1043 1.511 . S
C1041 C1037 1.376 . S
C1041 C1040 1.392 . S
C1041 H1053 0.929 . S
C1042 C1038 1.531 1_554 S
C1042 H1054 0.960 . S
C1042 H1055 0.962 . S
C1042 H1056 0.960 . S
C1043 C1040 1.511 . S
C1043 H1057 0.961 . S
C1043 H1058 0.961 . S
C1043 H1059 0.961 . S
C1044 C1045 1.370 . S
C1044 C1046 1.363 . S
C1044 H1060 0.931 . S
C1045 C1044 1.370 . S
C1045 C1049 1.408 . S
C1046 C1044 1.363 . S
C1046 C1047 1.370 . S
C1046 C1050 1.524 . S
C1047 C1039 1.503 1_554 S
C1047 C1046 1.370 . S
C1047 C1048 1.403 . S
C1048 C1047 1.403 . S
C1048 C1049 1.404 . S
C1048 C1051 1.539 1_554 S
C1049 C1045 1.408 . S
C1049 C1048 1.404 . S
C1049 H1061 0.930 . S
C1050 C1046 1.524 . S
C1050 H1062 0.956 . S
C1050 H1063 0.964 . S
C1050 H1064 0.961 . S
C1051 C1048 1.539 1_556 S
C1051 H1065 0.958 . S
C1051 H1066 0.961 . S
C1051 H1067 0.960 . S
H1052 C1036 0.931 . S
H1053 C1041 0.929 . S
H1054 C1042 0.960 . S
H1055 C1042 0.962 . S
H1056 C1042 0.960 . S
H1057 C1043 0.961 . S
H1058 C1043 0.961 . S
H1059 C1043 0.961 . S
H1060 C1044 0.931 . S
H1061 C1049 0.930 . S
H1062 C1050 0.956 . S
H1063 C1050 0.964 . S
H1064 C1050 0.961 . S
H1065 C1051 0.958 . S
H1066 C1051 0.961 . S
H1067 C1051 0.960 . S
C1068 C1069 1.391 . S
C1068 C1070 1.394 . S
C1068 H1084 0.931 . S
C1069 C1068 1.391 . S
C1069 C1073 1.376 1_455 S
C1070 C1068 1.394 . S
C1070 C1071 1.369 1_455 S
C1070 C1074 1.531 . S
C1071 C1070 1.369 1_655 S
C1071 C1072 1.410 . S
C1071 C1079 1.503 . S
C1072 C1071 1.410 . S
C1072 C1073 1.392 . S
C1072 C1075 1.511 . S
C1073 C1069 1.376 1_655 S
C1073 C1072 1.392 . S
C1073 H1085 0.929 . S
C1074 C1070 1.531 . S
C1074 H1086 0.960 . S
C1074 H1087 0.962 . S
C1074 H1088 0.960 . S
C1075 C1072 1.511 . S
C1075 H1089 0.961 . S
C1075 H1090 0.961 . S
C1075 H1091 0.961 . S
C1076 C1077 1.370 . S
C1076 C1078 1.363 . S
C1076 H1092 0.931 . S
C1077 C1076 1.370 . S
C1077 C1081 1.408 . S
C1078 C1076 1.363 . S
C1078 C1079 1.370 . S
C1078 C1082 1.524 . S
C1079 C1071 1.503 . S
C1079 C1078 1.370 . S
C1079 C1080 1.403 . S
C1080 C1079 1.403 . S
C1080 C1081 1.404 . S
C1080 C1083 1.539 . S
C1081 C1077 1.408 . S
C1081 C1080 1.404 . S
C1081 H1093 0.930 . S
C1082 C1078 1.524 . S
C1082 H1094 0.956 . S
C1082 H1095 0.961 . S
C1082 H1096 0.961 . S
C1083 C1080 1.539 . S
C1083 H1097 0.958 . S
C1083 H1098 0.961 . S
C1083 H1099 0.960 . S
H1084 C1068 0.931 . S
H1085 C1073 0.929 . S
H1086 C1074 0.960 . S
H1087 C1074 0.962 . S
H1088 C1074 0.960 . S
H1089 C1075 0.961 . S
H1090 C1075 0.961 . S
H1091 C1075 0.961 . S
H1092 C1076 0.931 . S
H1093 C1081 0.930 . S
H1094 C1082 0.956 . S
H1095 C1082 0.961 . S
H1096 C1082 0.961 . S
H1097 C1083 0.958 . S
H1098 C1083 0.961 . S
H1099 C1083 0.960 . S
C1100 C1101 1.391 . S
C1100 C1102 1.394 . S
C1100 H1116 0.931 . S
C1101 C1100 1.391 . S
C1101 C1105 1.376 . S
C1102 C1100 1.394 . S
C1102 C1103 1.369 . S
C1102 C1106 1.531 . S
C1103 C1102 1.369 . S
C1103 C1104 1.410 . S
C1103 C1111 1.503 . S
C1104 C1103 1.410 . S
C1104 C1105 1.392 . S
C1104 C1107 1.511 . S
C1105 C1101 1.376 . S
C1105 C1104 1.392 . S
C1105 H1117 0.929 . S
C1106 C1102 1.531 . S
C1106 H1118 0.960 . S
C1106 H1119 0.962 . S
C1106 H1120 0.960 . S
C1107 C1104 1.511 . S
C1107 H1121 0.961 . S
C1107 H1122 0.961 . S
C1107 H1123 0.961 . S
C1108 C1109 1.370 . S
C1108 C1110 1.363 . S
C1108 H1124 0.931 . S
C1109 C1108 1.370 . S
C1109 C1113 1.408 . S
C1110 C1108 1.363 . S
C1110 C1111 1.370 . S
C1110 C1114 1.524 . S
C1111 C1103 1.503 . S
C1111 C1110 1.370 . S
C1111 C1112 1.403 . S
C1112 C1111 1.403 . S
C1112 C1113 1.404 . S
C1112 C1115 1.539 . S
C1113 C1109 1.408 . S
C1113 C1112 1.404 . S
C1113 H1125 0.930 . S
C1114 C1110 1.524 . S
C1114 H1126 0.956 . S
C1114 H1127 0.961 . S
C1114 H1128 0.961 . S
C1115 C1112 1.539 . S
C1115 H1129 0.958 . S
C1115 H1130 0.961 . S
C1115 H1131 0.960 . S
H1116 C1100 0.931 . S
H1117 C1105 0.929 . S
H1118 C1106 0.960 . S
H1119 C1106 0.962 . S
H1120 C1106 0.960 . S
H1121 C1107 0.961 . S
H1122 C1107 0.961 . S
H1123 C1107 0.961 . S
H1124 C1108 0.931 . S
H1125 C1113 0.930 . S
H1126 C1114 0.956 . S
H1127 C1114 0.961 . S
H1128 C1114 0.961 . S
H1129 C1115 0.958 . S
H1130 C1115 0.961 . S
H1131 C1115 0.960 . S
C1132 C1133 1.391 . S
C1132 C1134 1.394 . S
C1132 H1148 0.931 . S
C1133 C1132 1.391 . S
C1133 C1137 1.376 . S
C1134 C1132 1.394 . S
C1134 C1135 1.369 . S
C1134 C1138 1.531 . S
C1135 C1134 1.369 . S
C1135 C1136 1.410 . S
C1135 C1143 1.503 . S
C1136 C1135 1.410 . S
C1136 C1137 1.392 . S
C1136 C1139 1.511 . S
C1137 C1133 1.376 . S
C1137 C1136 1.392 . S
C1137 H1149 0.929 . S
C1138 C1134 1.531 . S
C1138 H1150 0.960 . S
C1138 H1151 0.962 . S
C1138 H1152 0.960 . S
C1139 C1136 1.511 . S
C1139 H1153 0.961 . S
C1139 H1154 0.961 . S
C1139 H1155 0.961 . S
C1140 C1141 1.370 . S
C1140 C1142 1.363 1_565 S
C1140 H1156 0.931 . S
C1141 C1140 1.370 . S
C1141 C1145 1.408 1_565 S
C1142 C1140 1.363 1_545 S
C1142 C1143 1.370 . S
C1142 C1146 1.524 . S
C1143 C1135 1.503 . S
C1143 C1142 1.370 . S
C1143 C1144 1.403 . S
C1144 C1143 1.403 . S
C1144 C1145 1.404 . S
C1144 C1147 1.539 . S
C1145 C1141 1.408 1_545 S
C1145 C1144 1.404 . S
C1145 H1157 0.930 . S
C1146 C1142 1.524 . S
C1146 H1158 0.956 . S
C1146 H1159 0.961 . S
C1146 H1160 0.961 1_545 S
C1147 C1144 1.539 . S
C1147 H1161 0.958 . S
C1147 H1162 0.961 . S
C1147 H1163 0.960 . S
H1148 C1132 0.931 . S
H1149 C1137 0.929 . S
H1150 C1138 0.960 . S
H1151 C1138 0.962 . S
H1152 C1138 0.960 . S
H1153 C1139 0.961 . S
H1154 C1139 0.961 . S
H1155 C1139 0.961 . S
H1156 C1140 0.931 . S
H1157 C1145 0.930 . S
H1158 C1146 0.956 . S
H1159 C1146 0.961 . S
H1160 C1146 0.961 1_565 S
H1161 C1147 0.958 . S
H1162 C1147 0.961 . S
H1163 C1147 0.960 . S
C1164 C1165 1.391 . S
C1164 C1166 1.394 . S
C1164 H1180 0.931 . S
C1165 C1164 1.391 . S
C1165 C1169 1.376 . S
C1166 C1164 1.394 . S
C1166 C1167 1.369 . S
C1166 C1170 1.531 . S
C1167 C1166 1.369 . S
C1167 C1168 1.410 . S
C1167 C1175 1.503 . S
C1168 C1167 1.410 . S
C1168 C1169 1.392 . S
C1168 C1171 1.511 . S
C1169 C1165 1.376 . S
C1169 C1168 1.392 . S
C1169 H1181 0.929 . S
C1170 C1166 1.531 . S
C1170 H1182 0.960 . S
C1170 H1183 0.962 . S
C1170 H1184 0.960 . S
C1171 C1168 1.511 . S
C1171 H1185 0.961 . S
C1171 H1186 0.961 . S
C1171 H1187 0.961 . S
C1172 C1173 1.370 . S
C1172 C1174 1.363 . S
C1172 H1188 0.931 . S
C1173 C1172 1.370 . S
C1173 C1177 1.408 . S
C1174 C1172 1.363 . S
C1174 C1175 1.370 . S
C1174 C1178 1.524 . S
C1175 C1167 1.503 . S
C1175 C1174 1.370 . S
C1175 C1176 1.403 . S
C1176 C1175 1.403 . S
C1176 C1177 1.404 . S
C1176 C1179 1.539 . S
C1177 C1173 1.408 . S
C1177 C1176 1.404 . S
C1177 H1189 0.930 . S
C1178 C1174 1.524 . S
C1178 H1190 0.956 . S
C1178 H1191 0.961 . S
C1178 H1192 0.961 . S
C1179 C1176 1.539 . S
C1179 H1193 0.958 . S
C1179 H1194 0.961 . S
C1179 H1195 0.960 . S
H1180 C1164 0.931 . S
H1181 C1169 0.929 . S
H1182 C1170 0.960 . S
H1183 C1170 0.962 . S
H1184 C1170 0.960 . S
H1185 C1171 0.961 . S
H1186 C1171 0.961 . S
H1187 C1171 0.961 . S
H1188 C1172 0.931 . S
H1189 C1177 0.930 . S
H1190 C1178 0.956 . S
H1191 C1178 0.961 . S
H1192 C1178 0.961 . S
H1193 C1179 0.958 . S
H1194 C1179 0.961 . S
H1195 C1179 0.960 . S
C1196 C1197 1.391 . S
C1196 C1198 1.394 . S
C1196 H1212 0.931 . S
C1197 C1196 1.391 . S
C1197 C1201 1.376 . S
C1198 C1196 1.394 . S
C1198 C1199 1.369 . S
C1198 C1202 1.531 . S
C1199 C1198 1.369 . S
C1199 C1200 1.410 . S
C1199 C1207 1.503 1_545 S
C1200 C1199 1.410 . S
C1200 C1201 1.392 . S
C1200 C1203 1.511 1_545 S
C1201 C1197 1.376 . S
C1201 C1200 1.392 . S
C1201 H1213 0.929 . S
C1202 C1198 1.531 . S
C1202 H1214 0.960 . S
C1202 H1215 0.962 . S
C1202 H1216 0.960 . S
C1203 C1200 1.511 1_565 S
C1203 H1217 0.961 . S
C1203 H1218 0.961 . S
C1203 H1219 0.961 1_565 S
C1204 C1205 1.370 . S
C1204 C1206 1.363 . S
C1204 H1220 0.931 . S
C1205 C1204 1.370 . S
C1205 C1209 1.408 . S
C1206 C1204 1.363 . S
C1206 C1207 1.370 . S
C1206 C1210 1.524 . S
C1207 C1199 1.503 1_565 S
C1207 C1206 1.370 . S
C1207 C1208 1.403 . S
C1208 C1207 1.403 . S
C1208 C1209 1.404 . S
C1208 C1211 1.539 1_565 S
C1209 C1205 1.408 . S
C1209 C1208 1.404 . S
C1209 H1221 0.930 . S
C1210 C1206 1.524 . S
C1210 H1222 0.956 . S
C1210 H1223 0.961 . S
C1210 H1224 0.961 . S
C1211 C1208 1.539 1_545 S
C1211 H1225 0.958 . S
C1211 H1226 0.961 . S
C1211 H1227 0.960 . S
H1212 C1196 0.931 . S
H1213 C1201 0.929 . S
H1214 C1202 0.960 . S
H1215 C1202 0.962 . S
H1216 C1202 0.960 . S
H1217 C1203 0.961 . S
H1218 C1203 0.961 . S
H1219 C1203 0.961 1_545 S
H1220 C1204 0.931 . S
H1221 C1209 0.930 . S
H1222 C1210 0.956 . S
H1223 C1210 0.961 . S
H1224 C1210 0.961 . S
H1225 C1211 0.958 . S
H1226 C1211 0.961 . S
H1227 C1211 0.960 . S
C1228 C1229 1.391 . S
C1228 C1230 1.394 . S
C1228 H1244 0.931 . S
C1229 C1228 1.391 . S
C1229 C1233 1.376 . S
C1230 C1228 1.394 . S
C1230 C1231 1.369 . S
C1230 C1234 1.531 1_655 S
C1231 C1230 1.369 . S
C1231 C1232 1.410 . S
C1231 C1239 1.503 1_655 S
C1232 C1231 1.410 . S
C1232 C1233 1.392 . S
C1232 C1235 1.511 . S
C1233 C1229 1.376 . S
C1233 C1232 1.392 . S
C1233 H1245 0.929 . S
C1234 C1230 1.531 1_455 S
C1234 H1246 0.960 . S
C1234 H1247 0.962 . S
C1234 H1248 0.960 . S
C1235 C1232 1.511 . S
C1235 H1249 0.961 . S
C1235 H1250 0.961 . S
C1235 H1251 0.961 . S
C1236 C1237 1.370 . S
C1236 C1238 1.363 . S
C1236 H1252 0.931 . S
C1237 C1236 1.370 . S
C1237 C1241 1.408 . S
C1238 C1236 1.363 . S
C1238 C1239 1.370 . S
C1238 C1242 1.524 . S
C1239 C1231 1.503 1_455 S
C1239 C1238 1.370 . S
C1239 C1240 1.403 . S
C1240 C1239 1.403 . S
C1240 C1241 1.404 . S
C1240 C1243 1.539 1_455 S
C1241 C1237 1.408 . S
C1241 C1240 1.404 . S
C1241 H1253 0.930 . S
C1242 C1238 1.524 . S
C1242 H1254 0.956 . S
C1242 H1255 0.961 . S
C1242 H1256 0.961 . S
C1243 C1240 1.539 1_655 S
C1243 H1257 0.958 . S
C1243 H1258 0.961 . S
C1243 H1259 0.960 . S
H1244 C1228 0.931 . S
H1245 C1233 0.929 . S
H1246 C1234 0.960 . S
H1247 C1234 0.962 . S
H1248 C1234 0.960 . S
H1249 C1235 0.961 . S
H1250 C1235 0.961 . S
H1251 C1235 0.961 . S
H1252 C1236 0.931 . S
H1253 C1241 0.930 . S
H1254 C1242 0.956 . S
H1255 C1242 0.961 . S
H1256 C1242 0.961 . S
H1257 C1243 0.958 . S
H1258 C1243 0.961 . S
H1259 C1243 0.960 . S
C1260 C1261 1.391 . S
C1260 C1262 1.394 . S
C1260 H1276 0.931 . S
C1261 C1260 1.391 . S
C1261 C1265 1.376 . S
C1262 C1260 1.394 . S
C1262 C1263 1.369 . S
C1262 C1266 1.531 . S
C1263 C1262 1.369 . S
C1263 C1264 1.410 . S
C1263 C1271 1.503 . S
C1264 C1263 1.410 . S
C1264 C1265 1.392 . S
C1264 C1267 1.511 . S
C1265 C1261 1.376 . S
C1265 C1264 1.392 . S
C1265 H1277 0.929 . S
C1266 C1262 1.531 . S
C1266 H1278 0.960 . S
C1266 H1279 0.962 . S
C1266 H1280 0.960 . S
C1267 C1264 1.511 . S
C1267 H1281 0.961 . S
C1267 H1282 0.961 . S
C1267 H1283 0.961 . S
C1268 C1269 1.370 . S
C1268 C1270 1.363 . S
C1268 H1284 0.931 . S
C1269 C1268 1.370 . S
C1269 C1273 1.408 . S
C1270 C1268 1.363 . S
C1270 C1271 1.370 . S
C1270 C1274 1.524 . S
C1271 C1263 1.503 . S
C1271 C1270 1.370 . S
C1271 C1272 1.403 . S
C1272 C1271 1.403 . S
C1272 C1273 1.404 . S
C1272 C1275 1.539 . S
C1273 C1269 1.408 . S
C1273 C1272 1.404 . S
C1273 H1285 0.930 . S
C1274 C1270 1.524 . S
C1274 H1286 0.956 . S
C1274 H1287 0.961 . S
C1274 H1288 0.961 . S
C1275 C1272 1.539 . S
C1275 H1289 0.958 . S
C1275 H1290 0.961 . S
C1275 H1291 0.960 . S
H1276 C1260 0.931 . S
H1277 C1265 0.929 . S
H1278 C1266 0.960 . S
H1279 C1266 0.962 . S
H1280 C1266 0.960 . S
H1281 C1267 0.961 . S
H1282 C1267 0.961 . S
H1283 C1267 0.961 . S
H1284 C1268 0.931 . S
H1285 C1273 0.930 . S
H1286 C1274 0.956 . S
H1287 C1274 0.961 . S
H1288 C1274 0.961 . S
H1289 C1275 0.958 . S
H1290 C1275 0.961 . S
H1291 C1275 0.960 . S
C1292 C1293 1.391 . S
C1292 C1294 1.394 . S
C1292 H1308 0.931 . S
C1293 C1292 1.391 . S
C1293 C1297 1.376 . S
C1294 C1292 1.394 . S
C1294 C1295 1.369 . S
C1294 C1298 1.531 . S
C1295 C1294 1.369 . S
C1295 C1296 1.410 . S
C1295 C1303 1.503 1_565 S
C1296 C1295 1.410 . S
C1296 C1297 1.392 . S
C1296 C1299 1.511 . S
C1297 C1293 1.376 . S
C1297 C1296 1.392 . S
C1297 H1309 0.929 . S
C1298 C1294 1.531 . S
C1298 H1310 0.960 . S
C1298 H1311 0.962 1_565 S
C1298 H1312 0.960 . S
C1299 C1296 1.511 . S
C1299 H1313 0.961 . S
C1299 H1314 0.961 1_565 S
C1299 H1315 0.961 . S
C1300 C1301 1.370 . S
C1300 C1302 1.363 . S
C1300 H1316 0.931 . S
C1301 C1300 1.370 . S
C1301 C1305 1.408 . S
C1302 C1300 1.363 . S
C1302 C1303 1.370 . S
C1302 C1306 1.524 . S
C1303 C1295 1.503 1_545 S
C1303 C1302 1.370 . S
C1303 C1304 1.403 . S
C1304 C1303 1.403 . S
C1304 C1305 1.404 . S
C1304 C1307 1.539 1_545 S
C1305 C1301 1.408 . S
C1305 C1304 1.404 . S
C1305 H1317 0.930 . S
C1306 C1302 1.524 . S
C1306 H1318 0.956 . S
C1306 H1319 0.961 . S
C1306 H1320 0.961 . S
C1307 C1304 1.539 1_565 S
C1307 H1321 0.958 . S
C1307 H1322 0.961 . S
C1307 H1323 0.960 . S
H1308 C1292 0.931 . S
H1309 C1297 0.929 . S
H1310 C1298 0.960 . S
H1311 C1298 0.962 1_545 S
H1312 C1298 0.960 . S
H1313 C1299 0.961 . S
H1314 C1299 0.961 1_545 S
H1315 C1299 0.961 . S
H1316 C1300 0.931 . S
H1317 C1305 0.930 . S
H1318 C1306 0.956 . S
H1319 C1306 0.961 . S
H1320 C1306 0.961 . S
H1321 C1307 0.958 . S
H1322 C1307 0.961 . S
H1323 C1307 0.960 . S
C1324 C1325 1.391 . S
C1324 C1326 1.394 . S
C1324 H1340 0.931 . S
C1325 C1324 1.391 . S
C1325 C1329 1.376 . S
C1326 C1324 1.394 . S
C1326 C1327 1.369 . S
C1326 C1330 1.531 . S
C1327 C1326 1.369 . S
C1327 C1328 1.410 . S
C1327 C1335 1.503 1_455 S
C1328 C1327 1.410 . S
C1328 C1329 1.392 . S
C1328 C1331 1.511 . S
C1329 C1325 1.376 . S
C1329 C1328 1.392 . S
C1329 H1341 0.929 . S
C1330 C1326 1.531 . S
C1330 H1342 0.960 . S
C1330 H1343 0.949 1_455 S
C1330 H1344 0.960 . S
C1331 C1328 1.511 . S
C1331 H1345 0.961 . S
C1331 H1346 0.961 1_455 S
C1331 H1347 0.961 . S
C1332 C1333 1.370 . S
C1332 C1334 1.363 . S
C1332 H1348 0.931 . S
C1333 C1332 1.370 . S
C1333 C1337 1.408 . S
C1334 C1332 1.363 . S
C1334 C1335 1.370 . S
C1334 C1338 1.524 . S
C1335 C1327 1.503 1_655 S
C1335 C1334 1.370 . S
C1335 C1336 1.403 . S
C1336 C1335 1.403 . S
C1336 C1337 1.404 . S
C1336 C1339 1.539 1_655 S
C1337 C1333 1.408 . S
C1337 C1336 1.404 . S
C1337 H1349 0.930 . S
C1338 C1334 1.524 . S
C1338 H1350 0.956 . S
C1338 H1351 0.961 . S
C1338 H1352 0.961 . S
C1339 C1336 1.539 1_455 S
C1339 H1353 0.958 . S
C1339 H1354 0.961 . S
C1339 H1355 0.960 . S
H1340 C1324 0.931 . S
H1341 C1329 0.929 . S
H1342 C1330 0.960 . S
H1343 C1330 0.949 1_655 S
H1344 C1330 0.960 . S
H1345 C1331 0.961 . S
H1346 C1331 0.961 1_655 S
H1347 C1331 0.961 . S
H1348 C1332 0.931 . S
H1349 C1337 0.930 . S
H1350 C1338 0.956 . S
H1351 C1338 0.961 . S
H1352 C1338 0.961 . S
H1353 C1339 0.958 . S
H1354 C1339 0.961 . S
H1355 C1339 0.960 . S
C397 C40 1.505 . S
C405 N2 1.471 . S
C429 N35 1.438 . S
C437 C73 1.547 . S
C461 N68 1.474 . S
C469 C7 1.536 . S
C493 N101 1.489 . S
C501 C172 1.532 . S
C525 N134 1.419 . S
C533 C106 1.549 . S
C557 C139 1.518 . S
C565 N167 1.465 . S
C589 C238 1.534 . S
C597 N200 1.449 . S
C621 C271 1.505 . S
C629 N233 1.470 . S
C653 C205 1.522 . S
C661 N266 1.457 . S
C685 N299 1.490 . S
C693 C370 1.529 . S
C717 C304 1.572 . S
C725 N332 1.430 . S
C749 N365 1.459 . S
C757 C337 1.536 . S
C781 C18 1.345 . S
C789 N244 1.316 . S
C813 C51 1.345 . S
C821 N277 1.315 . S
C845 C84 1.344 . S
C853 N211 1.320 . S
C877 N376 1.304 . S
C885 C117 1.329 . S
C909 C150 1.321 . S
C917 N310 1.297 . S
C941 N343 1.333 . S
C949 C183 1.336 . S
C973 N46 1.334 . S
C981 C216 1.334 . S
C1005 N79 1.278 . S
C1013 C249 1.334 . S
C1037 C282 1.345 . S
C1045 N13 1.315 . S
C1069 N178 1.329 . S
C1077 C315 1.339 . S
C1101 C348 1.323 . S
C1109 N112 1.297 . S
C1133 C381 1.333 . S
C1141 N145 1.321 . S
C1165 C120 1.338 . S
C1173 C21 1.357 . S
C1197 C54 1.365 . S
C1205 C153 1.350 . S
C1229 C87 1.383 . S
C1237 C186 1.360 . S
C1261 C318 1.359 . S
C1269 C219 1.372 . S
C1293 C252 1.377 . S
C1301 C351 1.353 . S
C1325 C285 1.379 . S
C1333 C384 1.354 . S
