# Generated by pormake.
# Topology mon, (4)-cn, num edge types: 1
# Building blocks:
#     Node 0, Type 0, BuildingBlock: QUQFOY_clean_sbu_1, # of connection points: 4
#     Node 1, Type 0, BuildingBlock: QUQFOY_clean_sbu_1, # of connection points: 4
#     Node 2, Type 0, BuildingBlock: QUQFOY_clean_sbu_1, # of connection points: 4
#     Node 3, Type 0, BuildingBlock: QUQFOY_clean_sbu_1, # of connection points: 4
#     Node 4, Type 0, BuildingBlock: QUQFOY_clean_sbu_1, # of connection points: 4
#     Node 5, Type 0, BuildingBlock: QUQFOY_clean_sbu_1, # of connection points: 4
#     Node 6, Type 0, BuildingBlock: QUQFOY_clean_sbu_1, # of connection points: 4
#     Node 7, Type 0, BuildingBlock: QUQFOY_clean_sbu_1, # of connection points: 4
#     Node 8, Type 0, BuildingBlock: QUQFOY_clean_sbu_1, # of connection points: 4
#     Node 9, Type 0, BuildingBlock: QUQFOY_clean_sbu_1, # of connection points: 4
#     Node 10, Type 0, BuildingBlock: QUQFOY_clean_sbu_1, # of connection points: 4
#     Node 11, Type 0, BuildingBlock: QUQFOY_clean_sbu_1, # of connection points: 4
#     Node 12, Type 0, BuildingBlock: QUQFOY_clean_sbu_1, # of connection points: 4
#     Node 13, Type 0, BuildingBlock: QUQFOY_clean_sbu_1, # of connection points: 4
#     Node 14, Type 0, BuildingBlock: QUQFOY_clean_sbu_1, # of connection points: 4
#     Node 15, Type 0, BuildingBlock: QUQFOY_clean_sbu_1, # of connection points: 4
#     Edge 16, Type (0, 0), BuildingBlock: AJUNOK_clean_linker_0, # of connection points: 2
#     Edge 17, Type (0, 0), BuildingBlock: AJUNOK_clean_linker_0, # of connection points: 2
#     Edge 18, Type (0, 0), BuildingBlock: AJUNOK_clean_linker_0, # of connection points: 2
#     Edge 19, Type (0, 0), BuildingBlock: AJUNOK_clean_linker_0, # of connection points: 2
#     Edge 20, Type (0, 0), BuildingBlock: AJUNOK_clean_linker_0, # of connection points: 2
#     Edge 21, Type (0, 0), BuildingBlock: AJUNOK_clean_linker_0, # of connection points: 2
#     Edge 22, Type (0, 0), BuildingBlock: AJUNOK_clean_linker_0, # of connection points: 2
#     Edge 23, Type (0, 0), BuildingBlock: AJUNOK_clean_linker_0, # of connection points: 2
#     Edge 24, Type (0, 0), BuildingBlock: AJUNOK_clean_linker_0, # of connection points: 2
#     Edge 25, Type (0, 0), BuildingBlock: AJUNOK_clean_linker_0, # of connection points: 2
#     Edge 26, Type (0, 0), BuildingBlock: AJUNOK_clean_linker_0, # of connection points: 2
#     Edge 27, Type (0, 0), BuildingBlock: AJUNOK_clean_linker_0, # of connection points: 2
#     Edge 28, Type (0, 0), BuildingBlock: AJUNOK_clean_linker_0, # of connection points: 2
#     Edge 29, Type (0, 0), BuildingBlock: AJUNOK_clean_linker_0, # of connection points: 2
#     Edge 30, Type (0, 0), BuildingBlock: AJUNOK_clean_linker_0, # of connection points: 2
#     Edge 31, Type (0, 0), BuildingBlock: AJUNOK_clean_linker_0, # of connection points: 2
#     Edge 32, Type (0, 0), BuildingBlock: AJUNOK_clean_linker_0, # of connection points: 2
#     Edge 33, Type (0, 0), BuildingBlock: AJUNOK_clean_linker_0, # of connection points: 2
#     Edge 34, Type (0, 0), BuildingBlock: AJUNOK_clean_linker_0, # of connection points: 2
#     Edge 35, Type (0, 0), BuildingBlock: AJUNOK_clean_linker_0, # of connection points: 2
#     Edge 36, Type (0, 0), BuildingBlock: AJUNOK_clean_linker_0, # of connection points: 2
#     Edge 37, Type (0, 0), BuildingBlock: AJUNOK_clean_linker_0, # of connection points: 2
#     Edge 38, Type (0, 0), BuildingBlock: AJUNOK_clean_linker_0, # of connection points: 2
#     Edge 39, Type (0, 0), BuildingBlock: AJUNOK_clean_linker_0, # of connection points: 2
#     Edge 40, Type (0, 0), BuildingBlock: AJUNOK_clean_linker_0, # of connection points: 2
#     Edge 41, Type (0, 0), BuildingBlock: AJUNOK_clean_linker_0, # of connection points: 2
#     Edge 42, Type (0, 0), BuildingBlock: AJUNOK_clean_linker_0, # of connection points: 2
#     Edge 43, Type (0, 0), BuildingBlock: AJUNOK_clean_linker_0, # of connection points: 2
#     Edge 44, Type (0, 0), BuildingBlock: AJUNOK_clean_linker_0, # of connection points: 2
#     Edge 45, Type (0, 0), BuildingBlock: AJUNOK_clean_linker_0, # of connection points: 2
#     Edge 46, Type (0, 0), BuildingBlock: AJUNOK_clean_linker_0, # of connection points: 2
#     Edge 47, Type (0, 0), BuildingBlock: AJUNOK_clean_linker_0, # of connection points: 2
# Relax obj value: 0.197
# Max RMSD: 0.215
# Mean RMSD: 0.215
data_MOF--net-mon--node1-QUQFOY_clean_sbu_1--edge1-AJUNOK_clean_linker_0
_symmetry_space_group_name_H-M    P1
_symmetry_Int_Tables_number       1
_symmetry_cell_setting            triclinic
loop_
_symmetry_equiv_pos_as_xyz
'x, y, z'
_cell_length_a     27.191198
_cell_length_b     27.224805
_cell_length_c     63.056166
_cell_angle_alpha  90.060568
_cell_angle_beta   89.955085
_cell_angle_gamma 90.051281
loop_
_atom_site_label
_atom_site_type_symbol
_atom_site_fract_x
_atom_site_fract_y
_atom_site_fract_z
_atom_type_partial_charge
O0 O 0.02553 0.05272 0.54324 0.0
Cd1 Cd 0.02397 0.07063 0.57499 0.0
Cd2 Cd 0.09366 0.99927 0.5767 0.0
O3 O 0.09593 0.01285 0.5447 0.0
O4 O 1.00276 0.1405 0.57778 0.0
O5 O 0.07725 0.11441 0.5863 0.0
C6 C 0.04677 0.15054 0.58418 0.0
C7 C 0.1666 0.97041 0.59212 0.0
C8 C 0.0607 0.03066 0.53401 0.0
C9 C 0.9909 0.97936 0.59466 0.0
O10 O 0.0319 0.96327 0.5879 0.0
O11 O 0.98117 0.02493 0.5934 0.0
O12 O 0.14338 0.94564 0.57797 0.0
O13 O 0.1493 0.01282 0.59736 0.0
O14 O 0.27536 0.69204 0.79018 0.0
Cd15 Cd 0.25341 0.68993 0.82143 0.0
Cd16 Cd 0.32629 0.7588 0.82602 0.0
O17 O 0.31831 0.76031 0.79362 0.0
O18 O 0.18237 0.6725 0.82286 0.0
O19 O 0.21187 0.74523 0.83231 0.0
C20 C 0.17435 0.71662 0.82958 0.0
C21 C 0.35666 0.83162 0.84116 0.0
C22 C 0.30041 0.72661 0.78204 0.0
C23 C 0.33923 0.65508 0.84461 0.0
O24 O 0.35714 0.69639 0.83915 0.0
O25 O 0.29448 0.6452 0.84077 0.0
O26 O 0.38238 0.80574 0.82825 0.0
O27 O 0.31267 0.8169 0.84546 0.0
O28 O 0.63081 0.96113 0.03965 0.0
Cd29 Cd 0.63345 0.9427 0.07129 0.0
Cd30 Cd 0.56707 0.01584 0.07435 0.0
O31 O 0.56165 1.00273 0.04237 0.0
O32 O 0.65077 0.87194 0.07376 0.0
O33 O 0.57832 0.90236 0.08309 0.0
C34 C 0.6066 0.86457 0.08063 0.0
C35 C 0.49603 0.04583 0.09095 0.0
C36 C 0.59545 0.98413 0.03106 0.0
C37 C 0.67158 0.03133 0.09101 0.0
O38 O 0.63092 0.04939 0.08484 0.0
O39 O 0.67922 0.98545 0.0895 0.0
O40 O 0.51881 0.07058 0.07667 0.0
O41 O 0.51282 1.00297 0.09577 0.0
O42 O 0.3773 0.31017 0.29129 0.0
Cd43 Cd 0.39334 0.3153 0.32312 0.0
Cd44 Cd 0.31477 0.25092 0.32696 0.0
O45 O 0.31945 0.25363 0.29459 0.0
O46 O 0.46454 0.3312 0.32571 0.0
O47 O 0.43222 0.26012 0.33566 0.0
C48 C 0.47081 0.28724 0.33291 0.0
C49 C 0.2847 0.17703 0.341 0.0
C50 C 0.34581 0.28137 0.28311 0.0
C51 C 0.30675 0.35418 0.34599 0.0
O52 O 0.28773 0.31273 0.34156 0.0
O53 O 0.3511 0.36328 0.34094 0.0
O54 O 0.25802 0.20494 0.32933 0.0
O55 O 0.32929 0.19058 0.34483 0.0
O56 O 0.02185 0.96103 0.43575 0.0
Cd57 Cd 0.0188 0.94172 0.40417 0.0
Cd58 Cd 0.08651 0.01458 0.40087 0.0
O59 O 0.0912 1.00244 0.43293 0.0
O60 O 0.99816 0.87169 0.40211 0.0
O61 O 0.07199 0.89833 0.3926 0.0
C62 C 0.04177 0.86206 0.39514 0.0
C63 C 0.15795 0.04439 0.38448 0.0
C64 C 0.05721 0.98428 0.44427 0.0
C65 C 0.9823 0.03065 0.38396 0.0
O66 O 0.02323 0.04835 0.39004 0.0
O67 O 0.9739 0.98495 0.3858 0.0
O68 O 0.13492 0.06929 0.39865 0.0
O69 O 0.14124 1.00144 0.37968 0.0
O70 O 0.37465 0.69518 0.68371 0.0
Cd71 Cd 0.39377 0.69524 0.65209 0.0
Cd72 Cd 0.32266 0.76476 0.64986 0.0
O73 O 0.33424 0.76519 0.68204 0.0
O74 O 0.46483 0.67825 0.64922 0.0
O75 O 0.43441 0.75145 0.64139 0.0
C76 C 0.4723 0.72305 0.64325 0.0
C77 C 0.29458 0.83901 0.63542 0.0
C78 C 0.35179 0.72999 0.69281 0.0
C79 C 0.30421 0.66281 0.63073 0.0
O80 O 0.28762 0.70376 0.63733 0.0
O81 O 0.34952 0.65264 0.63294 0.0
O82 O 0.26891 0.81437 0.64879 0.0
O83 O 0.33718 0.82207 0.63018 0.0
O84 O 0.62588 0.05097 0.93199 0.0
Cd85 Cd 0.62665 0.06924 0.90033 0.0
Cd86 Cd 0.55882 0.99546 0.89844 0.0
O87 O 0.55652 0.0092 0.93047 0.0
O88 O 0.64813 0.13896 0.89791 0.0
O89 O 0.57336 0.11329 0.88937 0.0
C90 C 0.60421 0.14917 0.89152 0.0
C91 C 0.4861 0.96413 0.88362 0.0
C92 C 0.59128 0.02795 0.94117 0.0
C93 C 0.6622 0.97954 0.8803 0.0
O94 O 0.62175 0.96189 0.88699 0.0
O95 O 0.67044 0.02536 0.88171 0.0
O96 O 0.51079 0.94012 0.89751 0.0
O97 O 0.50212 0.00682 0.87805 0.0
O98 O 0.2767 0.31023 0.18529 0.0
Cd99 Cd 0.25876 0.31583 0.15366 0.0
Cd100 Cd 0.33704 0.25101 0.14869 0.0
O101 O 0.33381 0.25332 0.1811 0.0
O102 O 0.18751 0.33197 0.1518 0.0
O103 O 0.219 0.26102 0.14123 0.0
C104 C 0.18068 0.2882 0.14442 0.0
C105 C 0.36828 0.17771 0.13446 0.0
C106 C 0.30867 0.2813 0.19297 0.0
C107 C 0.34445 0.35492 0.13024 0.0
O108 O 0.36339 0.31326 0.13424 0.0
O109 O 0.30036 0.36405 0.13568 0.0
O110 O 0.3946 0.20619 0.14606 0.0
O111 O 0.32341 0.19036 0.13077 0.0
O112 O 0.87769 0.19138 0.18572 0.0
Cd113 Cd 0.90111 0.18862 0.15467 0.0
Cd114 Cd 0.82909 0.26336 0.14985 0.0
O115 O 0.83395 0.25934 0.1824 0.0
O116 O 0.972 0.17093 0.15309 0.0
O117 O 0.94272 0.24385 0.14384 0.0
C118 C 0.98007 0.21494 0.14625 0.0
C119 C 0.78608 0.33193 0.13697 0.0
C120 C 0.85159 0.22526 0.19383 0.0
C121 C 0.81802 0.16066 0.12845 0.0
O122 O 0.80293 0.20316 0.13353 0.0
O123 O 0.85979 0.14577 0.13463 0.0
O124 O 0.76567 0.29881 0.14841 0.0
O125 O 0.83274 0.32844 0.13368 0.0
O126 O 0.77472 0.81728 0.68287 0.0
Cd127 Cd 0.75464 0.81726 0.65138 0.0
Cd128 Cd 0.82235 0.74361 0.64886 0.0
O129 O 0.81236 0.74574 0.68113 0.0
O130 O 0.68443 0.83747 0.64864 0.0
O131 O 0.71122 0.76256 0.64119 0.0
C132 C 0.6748 0.79292 0.64287 0.0
C133 C 0.84886 0.66801 0.63517 0.0
C134 C 0.79671 0.78189 0.6919 0.0
C135 C 0.84461 0.84349 0.62862 0.0
O136 O 0.85926 0.80192 0.63523 0.0
O137 O 0.80041 0.85687 0.63171 0.0
O138 O 0.87498 0.69288 0.64829 0.0
O139 O 0.80647 0.68529 0.6299 0.0
O140 O 0.77128 0.18952 0.29101 0.0
Cd141 Cd 0.7495 0.18692 0.32229 0.0
Cd142 Cd 0.82036 0.26264 0.32627 0.0
O143 O 0.81228 0.25933 0.29383 0.0
O144 O 0.67874 0.16895 0.32455 0.0
O145 O 0.70831 0.24215 0.33334 0.0
C146 C 0.67088 0.21311 0.33128 0.0
C147 C 0.8636 0.33198 0.33849 0.0
C148 C 0.79533 0.22449 0.28259 0.0
C149 C 0.83481 0.16007 0.34726 0.0
O150 O 0.84919 0.20257 0.34179 0.0
O151 O 0.79239 0.14496 0.34199 0.0
O152 O 0.88315 0.29948 0.32644 0.0
O153 O 0.81752 0.32726 0.34287 0.0
O154 O 0.87472 0.82047 0.78915 0.0
Cd155 Cd 0.89711 0.82271 0.82031 0.0
Cd156 Cd 0.82793 0.74693 0.82436 0.0
O157 O 0.83637 0.74927 0.79199 0.0
O158 O 0.96867 0.83744 0.82245 0.0
O159 O 0.9358 0.76554 0.831 0.0
C160 C 0.9746 0.79264 0.82875 0.0
C161 C 0.78514 0.67752 0.83674 0.0
C162 C 0.85181 0.78473 0.78073 0.0
C163 C 0.81163 0.84966 0.84495 0.0
O164 O 0.79768 0.80715 0.83928 0.0
O165 O 0.85441 0.86472 0.84019 0.0
O166 O 0.76565 0.70933 0.82439 0.0
O167 O 0.831 0.68297 0.84137 0.0
O168 O 0.52913 0.56249 0.03895 0.0
Cd169 Cd 0.5176 0.58279 0.07011 0.0
Cd170 Cd 0.58733 0.50604 0.07748 0.0
O171 O 0.58694 0.50702 0.04499 0.0
O172 O 0.49746 0.65303 0.0709 0.0
O173 O 0.56824 0.62593 0.08379 0.0
C174 C 0.53922 0.6624 0.07978 0.0
C175 C 0.65385 0.46311 0.09249 0.0
C176 C 0.55962 0.53064 0.03228 0.0
C177 C 0.48028 0.49841 0.09422 0.0
O178 O 0.52375 0.48256 0.09167 0.0
O179 O 0.46839 0.54055 0.08731 0.0
O180 O 0.6213 0.44223 0.0809 0.0
O181 O 0.65065 0.50997 0.09502 0.0
O182 O 0.11375 0.45303 0.54156 0.0
Cd183 Cd 0.12163 0.43716 0.57339 0.0
Cd184 Cd 0.05596 0.51519 0.57786 0.0
O185 O 0.05815 0.51148 0.54547 0.0
O186 O 0.14564 0.36801 0.5753 0.0
O187 O 0.07223 0.39136 0.58659 0.0
C188 C 0.1036 0.35643 0.58339 0.0
C189 C 0.98137 0.54145 0.59259 0.0
C190 C 0.08507 0.485 0.53369 0.0
C191 C 0.15918 0.5265 0.59584 0.0
O192 O 0.11711 0.54479 0.59207 0.0
O193 O 0.16865 0.48238 0.59055 0.0
O194 O 0.0076 0.56955 0.58079 0.0
O195 O 0.99689 0.49743 0.59606 0.0
O196 O 0.52966 0.45056 0.93593 0.0
Cd197 Cd 0.5181 0.43158 0.90461 0.0
Cd198 Cd 0.58522 0.50931 0.89794 0.0
O199 O 0.58537 0.50847 0.93042 0.0
O200 O 0.49935 0.36089 0.90344 0.0
O201 O 0.56924 0.38996 0.89043 0.0
C202 C 0.54122 0.35266 0.89442 0.0
C203 C 0.65248 0.54855 0.88196 0.0
C204 C 0.55921 0.48297 0.94292 0.0
C205 C 0.47876 0.51625 0.88118 0.0
O206 O 0.52173 0.53326 0.88391 0.0
O207 O 0.46803 0.47346 0.88774 0.0
O208 O 0.6212 0.57163 0.89345 0.0
O209 O 0.64765 0.50164 0.88014 0.0
O210 O 0.11983 0.56023 0.43726 0.0
Cd211 Cd 0.13143 0.58045 0.4061 0.0
Cd212 Cd 0.06299 0.50354 0.39881 0.0
O213 O 0.0627 0.50391 0.43128 0.0
O214 O 0.14936 0.65135 0.40526 0.0
O215 O 0.07968 0.62172 0.39226 0.0
C216 C 0.10726 0.65927 0.39642 0.0
C217 C 0.9963 0.46268 0.38297 0.0
C218 C 0.08971 0.52804 0.44397 0.0
C219 C 0.17008 0.49636 0.38228 0.0
O220 O 0.12679 0.48003 0.38486 0.0
O221 O 0.18144 0.53889 0.38899 0.0
O222 O 0.02816 0.44044 0.39442 0.0
O223 O 1.00024 0.50964 0.38107 0.0
C224 C 0.02684 0.24019 0.58726 0.0
C225 C 0.06234 0.20251 0.58728 0.0
C226 C 0.0405 0.28993 0.58724 0.0
C227 C 0.09026 0.3041 0.58696 0.0
H228 H 0.98803 0.23129 0.5866 0.0
H229 H 0.01175 0.31738 0.58641 0.0
S230 S 0.19772 0.22021 0.58926 0.0
N231 N 0.14963 0.18317 0.58889 0.0
N232 N 0.17521 0.27648 0.58858 0.0
C233 C 0.12615 0.26693 0.58807 0.0
C234 C 0.11224 0.21623 0.58832 0.0
C235 C 0.06583 0.80413 0.8314 0.0
C236 C 0.02488 0.77241 0.83185 0.0
C237 C 0.11405 0.78585 0.83176 0.0
C238 C 0.12334 0.73505 0.83233 0.0
H239 H 0.06075 0.84349 0.83019 0.0
H240 H 0.14419 0.81177 0.83067 0.0
S241 S 0.02933 0.63638 0.8359 0.0
N242 N 0.99709 0.68764 0.83466 0.0
N243 N 0.08759 0.65337 0.83509 0.0
C244 C 0.08284 0.70297 0.83378 0.0
C245 C 0.03368 0.72161 0.83363 0.0
C246 C 0.60548 0.72535 0.08411 0.0
C247 C 0.55507 0.71389 0.08342 0.0
C248 C 0.62173 0.77426 0.08416 0.0
C249 C 0.58823 0.81369 0.08384 0.0
H250 H 0.63277 0.69641 0.08356 0.0
H251 H 0.66097 0.78112 0.08379 0.0
S252 S 0.45206 0.80324 0.08476 0.0
N253 N 0.47161 0.74585 0.08433 0.0
N254 N 0.50205 0.83771 0.08474 0.0
C255 C 0.53765 0.80269 0.08453 0.0
C256 C 0.52111 0.75284 0.08421 0.0
C257 C 0.61026 0.28179 0.33454 0.0
C258 C 0.62 0.23106 0.3349 0.0
C259 C 0.56191 0.29965 0.33493 0.0
C260 C 0.5213 0.26758 0.33594 0.0
H261 H 0.64006 0.30797 0.33298 0.0
H262 H 0.55639 0.33895 0.33373 0.0
S263 S 0.52718 0.13162 0.33994 0.0
N264 N 0.58521 0.14908 0.33825 0.0
N265 N 0.49443 0.18262 0.3392 0.0
C266 C 0.53064 0.21688 0.33765 0.0
C267 C 0.57993 0.19864 0.33704 0.0
C268 C 0.10813 0.7986 0.39353 0.0
C269 C 0.05791 0.81047 0.39207 0.0
C270 C 0.12387 0.74956 0.39402 0.0
C271 C 0.09013 0.71038 0.39276 0.0
H272 H 0.13541 0.82732 0.39534 0.0
H273 H 0.16277 0.74239 0.39604 0.0
S274 S 0.95495 0.72189 0.38611 0.0
N275 N 0.9748 0.77912 0.38753 0.0
N276 N 1.00438 0.68705 0.38814 0.0
C277 C 0.04006 0.72179 0.38996 0.0
C278 C 0.02396 0.77177 0.38973 0.0
C279 C 0.56325 0.70883 0.64081 0.0
C280 C 0.52333 0.74176 0.64021 0.0
C281 C 0.61207 0.72562 0.64061 0.0
C282 C 0.62312 0.77611 0.64002 0.0
H283 H 0.55687 0.66966 0.64204 0.0
H284 H 0.64129 0.69875 0.64181 0.0
S285 S 0.53235 0.87758 0.63613 0.0
N286 N 0.49844 0.82733 0.63729 0.0
N287 N 0.59002 0.85882 0.63711 0.0
C288 C 0.58366 0.80939 0.63842 0.0
C289 C 0.53387 0.79226 0.63844 0.0
C290 C 0.52343 0.26262 0.89177 0.0
C291 C 0.55757 0.30143 0.89034 0.0
C292 C 0.53854 0.21341 0.89086 0.0
C293 C 0.58851 0.20098 0.8888 0.0
H294 H 0.48474 0.27019 0.89424 0.0
H295 H 0.51102 0.18498 0.89284 0.0
S296 S 0.69217 0.28847 0.8821 0.0
N297 N 0.6433 0.32385 0.88487 0.0
N298 N 0.67172 0.23145 0.88347 0.0
C299 C 0.62279 0.23933 0.88626 0.0
C300 C 0.60732 0.2895 0.88693 0.0
C301 C 0.08959 0.30109 0.14297 0.0
C302 C 0.12997 0.26885 0.1416 0.0
C303 C 0.04112 0.28344 0.1434 0.0
C304 C 0.03104 0.23278 0.14275 0.0
H305 H 0.0954 0.34032 0.14437 0.0
H306 H 0.01149 0.3097 0.1452 0.0
S307 S 0.12308 0.13304 0.13681 0.0
N308 N 0.15619 0.18385 0.13775 0.0
N309 N 0.06521 0.15074 0.13881 0.0
C310 C 0.07086 0.20023 0.14032 0.0
C311 C 0.12025 0.21824 0.13965 0.0
C312 C 0.1018 1.00172 0.478 0.0
C313 C 0.05707 0.99441 0.46726 0.0
C314 C 0.10263 0.0142 0.49954 0.0
C315 C 0.05876 0.02106 0.51099 0.0
H316 H 0.13647 0.99744 0.46972 0.0
H317 H 0.13793 0.01869 0.50727 0.0
S318 S 0.93191 0.00733 0.49009 0.0
N319 N 0.96777 0.99526 0.4696 0.0
N320 N 0.96931 0.01965 0.51001 0.0
C321 C 0.01375 0.01446 0.50038 0.0
C322 C 0.01291 1.00077 0.47855 0.0
C323 C 0.32096 0.77095 0.74862 0.0
C324 C 0.31223 0.72633 0.75919 0.0
C325 C 0.33458 0.77174 0.72721 0.0
C326 C 0.34122 0.72791 0.71575 0.0
H327 H 0.3168 0.8056 0.7569 0.0
H328 H 0.34007 0.80698 0.71959 0.0
S329 S 0.32412 0.60133 0.73626 0.0
N330 N 0.3116 0.63717 0.7567 0.0
N331 N 0.33821 0.63862 0.71653 0.0
C332 C 0.33332 0.68299 0.7262 0.0
C333 C 0.31845 0.68221 0.7479 0.0
C334 C 0.55057 1.00013 -0.00269 0.0
C335 C 0.59539 0.99344 0.00803 0.0
C336 C 0.54955 0.01189 0.97571 0.0
C337 C 0.59334 0.01867 0.9642 0.0
H338 H 0.51596 0.99594 0.00565 0.0
H339 H 0.5142 0.01598 0.96799 0.0
S340 S 0.72036 0.00615 0.98498 0.0
N341 N 0.68467 0.99457 0.00557 0.0
N342 N 0.68279 0.01768 0.96504 0.0
C343 C 0.63844 0.01259 0.97477 0.0
C344 C 0.63946 0.9996 -0.00334 0.0
C345 C 0.27982 0.28179 0.23043 0.0
C346 C 0.31877 0.28165 0.21583 0.0
C347 C 0.28906 0.281 0.25227 0.0
C348 C 0.33749 0.28167 0.26011 0.0
H349 H 0.24207 0.28162 0.22494 0.0
H350 H 0.25811 0.28059 0.2631 0.0
S351 S 0.45204 0.28309 0.22833 0.0
N352 N 0.4074 0.28241 0.21057 0.0
N353 N 0.42465 0.28298 0.25173 0.0
C354 C 0.37669 0.2825 0.24568 0.0
C355 C 0.36733 0.2819 0.22347 0.0
C356 C 0.82908 0.26796 0.22746 0.0
C357 C 0.83852 0.22387 0.21656 0.0
C358 C 0.81442 0.26775 0.24875 0.0
C359 C 0.8074 0.2234 0.25976 0.0
H360 H 0.8335 0.30299 0.21954 0.0
H361 H 0.80836 0.30262 0.25662 0.0
S362 S 0.82607 0.09785 0.23829 0.0
N363 N 0.83944 0.13462 0.21828 0.0
N364 N 0.81084 0.1342 0.25821 0.0
C365 C 0.81602 0.179 0.24898 0.0
C366 C 0.83197 0.17924 0.22741 0.0
C367 C 0.81651 0.74014 0.72597 0.0
C368 C 0.80839 0.784 0.71475 0.0
C369 C 0.83121 0.74083 0.74722 0.0
C370 C 0.83937 0.7854 0.75795 0.0
H371 H 0.8114 0.70489 0.71828 0.0
H372 H 0.8365 0.70609 0.75527 0.0
S373 S 0.82366 0.91055 0.7357 0.0
N374 N 0.80952 0.87334 0.71593 0.0
N375 N 0.8379 0.87461 0.75586 0.0
C376 C 0.83168 0.82959 0.74691 0.0
C377 C 0.81585 0.8289 0.72534 0.0
C378 C 0.56138 0.54322 0.97257 0.0
C379 C 0.56078 0.49398 0.96574 0.0
C380 C 0.56064 0.55504 -0.00581 0.0
C381 C 0.56095 0.51794 0.00962 0.0
H382 H 0.56123 0.57283 0.96109 0.0
H383 H 0.5603 0.59334 -0.00113 0.0
S384 S 0.56042 0.3835 -6e-05 0.0
N385 N 0.56024 0.40805 0.976 0.0
N386 N 0.56097 0.43013 0.01673 0.0
C387 C 0.56124 0.46859 0.003 0.0
C388 C 0.56057 0.45661 0.98101 0.0
C389 C 0.08506 0.54351 0.50349 0.0
C390 C 0.08551 0.49464 0.51076 0.0
C391 C 0.08699 0.55421 0.48179 0.0
C392 C 0.0878 0.51633 0.4667 0.0
H393 H 0.08421 0.57372 0.51468 0.0
H394 H 0.08721 0.59227 0.47678 0.0
S395 S 0.08885 0.38244 0.47755 0.0
N396 N 0.08741 0.4082 0.50127 0.0
N397 N 0.08894 0.42819 0.46035 0.0
C398 C 0.08759 0.46733 0.47374 0.0
C399 C 0.08704 0.45649 0.49583 0.0
C400 C 0.27249 0.8845 0.60264 0.0
C401 C 0.27248 0.8819 0.62488 0.0
C402 C 0.24036 0.91632 0.592 0.0
C403 C 0.20836 0.94752 0.60327 0.0
H404 H 0.29429 0.85893 0.59341 0.0
H405 H 0.23861 0.91459 0.57485 0.0
S406 S 0.19983 0.95947 0.66168 0.0
N407 N 0.24149 0.91622 0.65784 0.0
N408 N 0.18255 0.97751 0.63782 0.0
C409 C 0.21145 0.94848 0.62548 0.0
C410 C 0.24316 0.91517 0.63631 0.0
C411 C 0.41163 0.90471 0.84038 0.0
C412 C 0.37961 0.874 0.85186 0.0
C413 C 0.4429 0.93792 0.85078 0.0
C414 C 0.44415 0.94024 0.87301 0.0
H415 H 0.41428 0.90128 0.82329 0.0
H416 H 0.46897 0.95888 0.84144 0.0
S417 S 0.36449 0.87106 0.91023 0.0
N418 N 0.34772 0.85147 0.8865 0.0
N419 N 0.40805 0.91234 0.90613 0.0
C420 C 0.4103 0.91191 0.8846 0.0
C421 C 0.37751 0.87915 0.87398 0.0
C422 C 0.42056 0.09743 0.09145 0.0
C423 C 0.45513 0.06895 0.10258 0.0
C424 C 0.38854 0.12934 0.10217 0.0
C425 C 0.39132 0.13482 0.12428 0.0
H426 H 0.42001 0.09689 0.07426 0.0
H427 H 0.3644 0.1527 0.09296 0.0
S428 S 0.4724 0.06566 0.16081 0.0
N429 N 0.48706 0.04496 0.13699 0.0
N430 N 0.4284 0.10657 0.15709 0.0
C431 C 0.42367 0.1045 0.13566 0.0
C432 C 0.45523 0.07103 0.1248 0.0
C433 C 0.233 0.09669 0.38405 0.0
C434 C 0.19894 0.06753 0.37291 0.0
C435 C 0.26479 0.12883 0.37333 0.0
C436 C 0.26226 0.13386 0.3512 0.0
H437 H 0.23326 0.09655 0.40124 0.0
H438 H 0.28844 0.15275 0.38254 0.0
S439 S 0.18277 0.06269 0.31463 0.0
N440 N 0.16795 0.0423 0.33847 0.0
N441 N 0.22616 0.10433 0.31836 0.0
C442 C 0.23054 0.10279 0.33981 0.0
C443 C 0.19923 0.06909 0.35067 0.0
C444 C 0.90124 0.04498 0.36579 0.0
C445 C 0.94387 0.06407 0.37548 0.0
C446 C 0.86496 0.07613 0.35742 0.0
C447 C 0.86996 0.12753 0.35843 0.0
H448 H 0.89617 0.00566 0.3643 0.0
H449 H 0.83358 0.05977 0.34953 0.0
S450 S 0.97182 0.19633 0.38419 0.0
N451 N 0.98691 0.13802 0.38697 0.0
N452 N 0.91897 0.19612 0.37139 0.0
C453 C 0.91146 0.14706 0.3688 0.0
C454 C 0.94833 0.11549 0.37726 0.0
C455 C 0.75131 0.04536 0.11029 0.0
C456 C 0.71045 0.06449 0.09934 0.0
C457 C 0.78747 0.07647 0.11886 0.0
C458 C 0.78406 0.1278 0.11677 0.0
H459 H 0.75486 0.00615 0.11273 0.0
H460 H 0.81725 0.06026 0.12785 0.0
S461 S 0.68799 0.19619 0.08717 0.0
N462 N 0.67139 0.13807 0.08524 0.0
N463 N 0.73909 0.19608 0.10123 0.0
C464 C 0.74466 0.14721 0.105 0.0
C465 C 0.70792 0.11571 0.09634 0.0
C466 C 0.78121 0.93358 0.85515 0.0
C467 C 0.77557 0.88222 0.85566 0.0
C468 C 0.74444 0.96483 0.86309 0.0
C469 C 0.70063 0.94592 0.87186 0.0
H470 H 0.81362 0.94987 0.84804 0.0
H471 H 0.75025 0.00413 0.86211 0.0
S472 S 0.6699 0.81366 0.87858 0.0
N473 N 0.72418 0.81375 0.86691 0.0
N474 N 0.6553 0.87202 0.88163 0.0
C475 C 0.69527 0.89448 0.87298 0.0
C476 C 0.73266 0.8628 0.86497 0.0
C477 C 0.87238 0.92833 0.61846 0.0
C478 C 0.88069 0.8773 0.61863 0.0
C479 C 0.9082 0.9611 0.61083 0.0
C480 C 0.9537 0.94414 0.60301 0.0
H481 H 0.83843 0.94325 0.62472 0.0
H482 H 0.90017 1.00005 0.61121 0.0
S483 S 0.99204 0.81335 0.59855 0.0
N484 N 0.93673 0.81114 0.60925 0.0
N485 N 1.00383 0.87222 0.59503 0.0
C486 C 0.96191 0.89298 0.60266 0.0
C487 C 0.92551 0.85975 0.61042 0.0
C488 C 0.7072 0.35289 0.12006 0.0
C489 C 0.7547 0.36793 0.12593 0.0
C490 C 0.67564 0.38418 0.10917 0.0
C491 C 0.68972 0.43234 0.10397 0.0
H492 H 0.69434 0.31609 0.12359 0.0
H493 H 0.63949 0.37045 0.105 0.0
S494 S 0.81 0.49023 0.11597 0.0
N495 N 0.81482 0.43407 0.12571 0.0
N496 N 0.75426 0.49412 0.10564 0.0
C497 C 0.73692 0.44842 0.10992 0.0
C498 C 0.7698 0.41582 0.12072 0.0
C499 C 0.94562 0.35749 0.35121 0.0
C500 C 0.89552 0.36895 0.34878 0.0
C501 C 0.97739 0.38869 0.3621 0.0
C502 C 0.96086 0.43327 0.37069 0.0
H503 H 0.96042 0.32324 0.34521 0.0
H504 H 0.01545 0.37758 0.36385 0.0
S505 S 0.83389 0.48206 0.36797 0.0
N506 N 0.83084 0.42867 0.35551 0.0
N507 N 0.89173 0.48863 0.37556 0.0
C508 C 0.91132 0.44634 0.36789 0.0
C509 C 0.87832 0.41375 0.3571 0.0
C510 C 0.90617 0.59314 0.59183 0.0
C511 C 0.93772 0.56189 0.60323 0.0
C512 C 0.87261 0.62377 0.60235 0.0
C513 C 0.87082 0.6251 0.62459 0.0
H514 H 0.90956 0.59611 0.57476 0.0
H515 H 0.85141 0.64973 0.5931 0.0
S516 S 0.94176 0.54667 0.66154 0.0
N517 N 0.96121 0.53022 0.63774 0.0
N518 N 0.89965 0.58941 0.6576 0.0
C519 C 0.89959 0.59153 0.63607 0.0
C520 C 0.93272 0.5594 0.62534 0.0
C521 C 0.70279 0.65122 0.84876 0.0
C522 C 0.75326 0.64061 0.84707 0.0
C523 C 0.67099 0.62042 0.85983 0.0
C524 C 0.6879 0.57708 0.86934 0.0
H525 H 0.68768 0.68461 0.84208 0.0
H526 H 0.63264 0.63093 0.86106 0.0
S527 S 0.81584 0.53053 0.86869 0.0
N528 N 0.81864 0.58279 0.85539 0.0
N529 N 0.7577 0.52353 0.87579 0.0
C530 C 0.73779 0.56468 0.86722 0.0
C531 C 0.7708 0.59689 0.85625 0.0
C532 C 0.45493 0.598 0.86691 0.0
C533 C 0.44138 0.54922 0.87153 0.0
C534 C 0.42134 0.63156 0.85867 0.0
C535 C 0.37236 0.61818 0.85447 0.0
H536 H 0.492 0.61099 0.86979 0.0
H537 H 0.43435 0.66845 0.85549 0.0
S538 S 0.31752 0.49488 0.8635 0.0
N539 N 0.37521 0.48901 0.87128 0.0
N540 N 0.31169 0.55233 0.85549 0.0
C541 C 0.35792 0.5695 0.85897 0.0
C542 C 0.39245 0.53503 0.86752 0.0
C543 C 0.18432 0.60642 0.61193 0.0
C544 C 0.1975 0.55875 0.60538 0.0
C545 C 0.2192 0.63944 0.61976 0.0
C546 C 0.26916 0.62658 0.62151 0.0
H547 H 0.14655 0.61881 0.61091 0.0
H548 H 0.20652 0.67552 0.62451 0.0
S549 S 0.32342 0.50605 0.6068 0.0
N550 N 0.26435 0.50007 0.6013 0.0
N551 N 0.33015 0.56229 0.6162 0.0
C552 C 0.2831 0.5789 0.61517 0.0
C553 C 0.24729 0.545 0.60713 0.0
C554 C 0.19374 0.41305 0.36989 0.0
C555 C 0.20711 0.46254 0.37291 0.0
C556 C 0.22672 0.37877 0.36176 0.0
C557 C 0.27491 0.39203 0.35603 0.0
H558 H 0.15726 0.40006 0.37395 0.0
H559 H 0.21374 0.3414 0.35982 0.0
S560 S 0.32921 0.51681 0.36085 0.0
N561 N 0.27244 0.52322 0.36978 0.0
N562 N 0.33485 0.45843 0.3541 0.0
C563 C 0.28933 0.44133 0.35906 0.0
C564 C 0.2554 0.47659 0.36756 0.0
C565 C 0.45828 0.41582 0.108 0.0
C566 C 0.44364 0.46443 0.10379 0.0
C567 C 0.42554 0.38116 0.11601 0.0
C568 C 0.3763 0.39314 0.12046 0.0
H569 H 0.49559 0.40378 0.10494 0.0
H570 H 0.43954 0.34453 0.11888 0.0
S571 S 0.3186 0.51534 0.11241 0.0
N572 N 0.37609 0.52297 0.10457 0.0
N573 N 0.31413 0.45748 0.12005 0.0
C574 C 0.36071 0.44162 0.11637 0.0
C575 C 0.3944 0.47726 0.10798 0.0
loop_
_geom_bond_atom_site_label_1
_geom_bond_atom_site_label_2
_geom_bond_distance
_geom_bond_site_symmetry_2
_ccdc_geom_bond_type
O0 Cd1 2.223 . S
O0 C8 1.315 1_655 S
Cd1 O0 2.223 . S
Cd1 O4 2.297 1_655 S
Cd1 O5 2.439 1_655 S
Cd1 O11 2.240 1_545 S
Cd2 O3 2.240 1_565 S
Cd2 O10 2.214 1_455 S
Cd2 O12 2.297 . S
Cd2 O13 2.439 . S
O3 Cd2 2.240 1_545 S
O3 C8 1.279 . S
O4 Cd1 2.297 1_455 S
O4 C6 1.247 . S
O5 Cd1 2.439 1_455 S
O5 C6 1.208 . S
C6 O4 1.247 . S
C6 O5 1.208 . S
C7 O12 1.247 . S
C7 O13 1.208 . S
C8 O0 1.315 1_455 S
C8 O3 1.279 . S
C9 O10 1.320 . S
C9 O11 1.279 . S
O10 Cd2 2.214 1_655 S
O10 C9 1.320 . S
O11 Cd1 2.240 1_565 S
O11 C9 1.279 . S
O12 Cd2 2.297 . S
O12 C7 1.247 . S
O13 Cd2 2.439 . S
O13 C7 1.208 . S
O14 Cd15 2.223 . S
O14 C22 1.315 . S
Cd15 O14 2.223 . S
Cd15 O18 2.297 . S
Cd15 O19 2.439 . S
Cd15 O25 2.240 . S
Cd16 O17 2.240 . S
Cd16 O24 2.223 . S
Cd16 O26 2.297 . S
Cd16 O27 2.439 . S
O17 Cd16 2.240 . S
O17 C22 1.279 . S
O18 Cd15 2.297 . S
O18 C20 1.247 . S
O19 Cd15 2.439 . S
O19 C20 1.208 . S
C20 O18 1.247 . S
C20 O19 1.208 . S
C21 O26 1.247 . S
C21 O27 1.208 . S
C22 O14 1.315 . S
C22 O17 1.279 . S
C23 O24 1.315 . S
C23 O25 1.279 . S
O24 Cd16 2.223 . S
O24 C23 1.315 . S
O25 Cd15 2.240 . S
O25 C23 1.279 . S
O26 Cd16 2.297 . S
O26 C21 1.247 . S
O27 Cd16 2.439 . S
O27 C21 1.208 . S
O28 Cd29 2.223 . S
O28 C36 1.315 . S
Cd29 O28 2.223 . S
Cd29 O32 2.297 . S
Cd29 O33 2.439 . S
Cd29 O39 2.240 1_565 S
Cd30 O31 2.240 1_545 S
Cd30 O38 2.223 . S
Cd30 O40 2.297 . S
Cd30 O41 2.439 . S
O31 Cd30 2.240 1_565 S
O31 C36 1.279 . S
O32 Cd29 2.297 . S
O32 C34 1.247 . S
O33 Cd29 2.439 . S
O33 C34 1.208 . S
C34 O32 1.247 . S
C34 O33 1.208 . S
C35 O40 1.247 . S
C35 O41 1.208 . S
C36 O28 1.315 . S
C36 O31 1.279 . S
C37 O38 1.315 . S
C37 O39 1.279 . S
O38 Cd30 2.223 . S
O38 C37 1.315 . S
O39 Cd29 2.240 1_545 S
O39 C37 1.279 . S
O40 Cd30 2.297 . S
O40 C35 1.247 . S
O41 Cd30 2.439 . S
O41 C35 1.208 . S
O42 Cd43 2.223 . S
O42 C50 1.315 . S
Cd43 O42 2.223 . S
Cd43 O46 2.297 . S
Cd43 O47 2.439 . S
Cd43 O53 2.240 . S
Cd44 O45 2.240 . S
Cd44 O52 2.223 . S
Cd44 O54 2.297 . S
Cd44 O55 2.439 . S
O45 Cd44 2.240 . S
O45 C50 1.279 . S
O46 Cd43 2.297 . S
O46 C48 1.247 . S
O47 Cd43 2.439 . S
O47 C48 1.208 . S
C48 O46 1.247 . S
C48 O47 1.208 . S
C49 O54 1.247 . S
C49 O55 1.208 . S
C50 O42 1.315 . S
C50 O45 1.279 . S
C51 O52 1.315 . S
C51 O53 1.279 . S
O52 Cd44 2.223 . S
O52 C51 1.315 . S
O53 Cd43 2.240 . S
O53 C51 1.279 . S
O54 Cd44 2.297 . S
O54 C49 1.247 . S
O55 Cd44 2.439 . S
O55 C49 1.208 . S
O56 Cd57 2.223 . S
O56 C64 1.315 1_655 S
Cd57 O56 2.223 . S
Cd57 O60 2.297 1_655 S
Cd57 O61 2.439 1_655 S
Cd57 O67 2.240 1_565 S
Cd58 O59 2.240 1_545 S
Cd58 O66 2.214 1_455 S
Cd58 O68 2.297 . S
Cd58 O69 2.439 . S
O59 Cd58 2.240 1_565 S
O59 C64 1.279 . S
O60 Cd57 2.297 1_455 S
O60 C62 1.247 . S
O61 Cd57 2.439 1_455 S
O61 C62 1.208 . S
C62 O60 1.247 . S
C62 O61 1.208 . S
C63 O68 1.247 . S
C63 O69 1.208 . S
C64 O56 1.315 1_455 S
C64 O59 1.279 . S
C65 O66 1.320 . S
C65 O67 1.279 . S
O66 Cd58 2.214 1_655 S
O66 C65 1.320 . S
O67 Cd57 2.240 1_545 S
O67 C65 1.279 . S
O68 Cd58 2.297 . S
O68 C63 1.247 . S
O69 Cd58 2.439 . S
O69 C63 1.208 . S
O70 Cd71 2.223 . S
O70 C78 1.315 . S
Cd71 O70 2.223 . S
Cd71 O74 2.297 . S
Cd71 O75 2.439 . S
Cd71 O81 2.240 . S
Cd72 O73 2.240 . S
Cd72 O80 2.223 . S
Cd72 O82 2.297 . S
Cd72 O83 2.439 . S
O73 Cd72 2.240 . S
O73 C78 1.279 . S
O74 Cd71 2.297 . S
O74 C76 1.247 . S
O75 Cd71 2.439 . S
O75 C76 1.208 . S
C76 O74 1.247 . S
C76 O75 1.208 . S
C77 O82 1.247 . S
C77 O83 1.208 . S
C78 O70 1.315 . S
C78 O73 1.279 . S
C79 O80 1.315 . S
C79 O81 1.279 . S
O80 Cd72 2.223 . S
O80 C79 1.315 . S
O81 Cd71 2.240 . S
O81 C79 1.279 . S
O82 Cd72 2.297 . S
O82 C77 1.247 . S
O83 Cd72 2.439 . S
O83 C77 1.208 . S
O84 Cd85 2.223 . S
O84 C92 1.315 . S
Cd85 O84 2.223 . S
Cd85 O88 2.297 . S
Cd85 O89 2.439 . S
Cd85 O95 2.240 1_545 S
Cd86 O87 2.240 1_565 S
Cd86 O94 2.223 . S
Cd86 O96 2.297 . S
Cd86 O97 2.439 . S
O87 Cd86 2.240 1_545 S
O87 C92 1.279 . S
O88 Cd85 2.297 . S
O88 C90 1.247 . S
O89 Cd85 2.439 . S
O89 C90 1.208 . S
C90 O88 1.247 . S
C90 O89 1.208 . S
C91 O96 1.247 . S
C91 O97 1.208 . S
C92 O84 1.315 . S
C92 O87 1.279 . S
C93 O94 1.315 . S
C93 O95 1.279 . S
O94 Cd86 2.223 . S
O94 C93 1.315 . S
O95 Cd85 2.240 1_565 S
O95 C93 1.279 . S
O96 Cd86 2.297 . S
O96 C91 1.247 . S
O97 Cd86 2.439 . S
O97 C91 1.208 . S
O98 Cd99 2.223 . S
O98 C106 1.315 . S
Cd99 O98 2.223 . S
Cd99 O102 2.297 . S
Cd99 O103 2.439 . S
Cd99 O109 2.240 . S
Cd100 O101 2.240 . S
Cd100 O108 2.223 . S
Cd100 O110 2.297 . S
Cd100 O111 2.439 . S
O101 Cd100 2.240 . S
O101 C106 1.279 . S
O102 Cd99 2.297 . S
O102 C104 1.247 . S
O103 Cd99 2.439 . S
O103 C104 1.208 . S
C104 O102 1.247 . S
C104 O103 1.208 . S
C105 O110 1.247 . S
C105 O111 1.208 . S
C106 O98 1.315 . S
C106 O101 1.279 . S
C107 O108 1.315 . S
C107 O109 1.279 . S
O108 Cd100 2.223 . S
O108 C107 1.315 . S
O109 Cd99 2.240 . S
O109 C107 1.279 . S
O110 Cd100 2.297 . S
O110 C105 1.247 . S
O111 Cd100 2.439 . S
O111 C105 1.208 . S
O112 Cd113 2.223 . S
O112 C120 1.315 . S
Cd113 O112 2.223 . S
Cd113 O116 2.297 . S
Cd113 O117 2.439 . S
Cd113 O123 2.240 . S
Cd114 O115 2.240 . S
Cd114 O122 2.223 . S
Cd114 O124 2.297 . S
Cd114 O125 2.439 . S
O115 Cd114 2.240 . S
O115 C120 1.279 . S
O116 Cd113 2.297 . S
O116 C118 1.247 . S
O117 Cd113 2.439 . S
O117 C118 1.208 . S
C118 O116 1.247 . S
C118 O117 1.208 . S
C119 O124 1.247 . S
C119 O125 1.208 . S
C120 O112 1.315 . S
C120 O115 1.279 . S
C121 O122 1.315 . S
C121 O123 1.279 . S
O122 Cd114 2.223 . S
O122 C121 1.315 . S
O123 Cd113 2.240 . S
O123 C121 1.279 . S
O124 Cd114 2.297 . S
O124 C119 1.247 . S
O125 Cd114 2.439 . S
O125 C119 1.208 . S
O126 Cd127 2.223 . S
O126 C134 1.315 . S
Cd127 O126 2.223 . S
Cd127 O130 2.297 . S
Cd127 O131 2.439 . S
Cd127 O137 2.240 . S
Cd128 O129 2.240 . S
Cd128 O136 2.223 . S
Cd128 O138 2.297 . S
Cd128 O139 2.439 . S
O129 Cd128 2.240 . S
O129 C134 1.279 . S
O130 Cd127 2.297 . S
O130 C132 1.247 . S
O131 Cd127 2.439 . S
O131 C132 1.208 . S
C132 O130 1.247 . S
C132 O131 1.208 . S
C133 O138 1.247 . S
C133 O139 1.208 . S
C134 O126 1.315 . S
C134 O129 1.279 . S
C135 O136 1.315 . S
C135 O137 1.279 . S
O136 Cd128 2.223 . S
O136 C135 1.315 . S
O137 Cd127 2.240 . S
O137 C135 1.279 . S
O138 Cd128 2.297 . S
O138 C133 1.247 . S
O139 Cd128 2.439 . S
O139 C133 1.208 . S
O140 Cd141 2.223 . S
O140 C148 1.315 . S
Cd141 O140 2.223 . S
Cd141 O144 2.297 . S
Cd141 O145 2.439 . S
Cd141 O151 2.240 . S
Cd142 O143 2.240 . S
Cd142 O150 2.223 . S
Cd142 O152 2.297 . S
Cd142 O153 2.439 . S
O143 Cd142 2.240 . S
O143 C148 1.279 . S
O144 Cd141 2.297 . S
O144 C146 1.247 . S
O145 Cd141 2.439 . S
O145 C146 1.208 . S
C146 O144 1.247 . S
C146 O145 1.208 . S
C147 O152 1.247 . S
C147 O153 1.208 . S
C148 O140 1.315 . S
C148 O143 1.279 . S
C149 O150 1.315 . S
C149 O151 1.279 . S
O150 Cd142 2.223 . S
O150 C149 1.315 . S
O151 Cd141 2.240 . S
O151 C149 1.279 . S
O152 Cd142 2.297 . S
O152 C147 1.247 . S
O153 Cd142 2.439 . S
O153 C147 1.208 . S
O154 Cd155 2.223 . S
O154 C162 1.315 . S
Cd155 O154 2.223 . S
Cd155 O158 2.297 . S
Cd155 O159 2.439 . S
Cd155 O165 2.240 . S
Cd156 O157 2.240 . S
Cd156 O164 2.223 . S
Cd156 O166 2.297 . S
Cd156 O167 2.439 . S
O157 Cd156 2.240 . S
O157 C162 1.279 . S
O158 Cd155 2.297 . S
O158 C160 1.247 . S
O159 Cd155 2.439 . S
O159 C160 1.208 . S
C160 O158 1.247 . S
C160 O159 1.208 . S
C161 O166 1.247 . S
C161 O167 1.208 . S
C162 O154 1.315 . S
C162 O157 1.279 . S
C163 O164 1.315 . S
C163 O165 1.279 . S
O164 Cd156 2.223 . S
O164 C163 1.315 . S
O165 Cd155 2.240 . S
O165 C163 1.279 . S
O166 Cd156 2.297 . S
O166 C161 1.247 . S
O167 Cd156 2.439 . S
O167 C161 1.208 . S
O168 Cd169 2.223 . S
O168 C176 1.315 . S
Cd169 O168 2.223 . S
Cd169 O172 2.297 . S
Cd169 O173 2.439 . S
Cd169 O179 2.240 . S
Cd170 O171 2.240 . S
Cd170 O178 2.223 . S
Cd170 O180 2.297 . S
Cd170 O181 2.439 . S
O171 Cd170 2.240 . S
O171 C176 1.279 . S
O172 Cd169 2.297 . S
O172 C174 1.247 . S
O173 Cd169 2.439 . S
O173 C174 1.208 . S
C174 O172 1.247 . S
C174 O173 1.208 . S
C175 O180 1.247 . S
C175 O181 1.208 . S
C176 O168 1.315 . S
C176 O171 1.279 . S
C177 O178 1.315 . S
C177 O179 1.279 . S
O178 Cd170 2.223 . S
O178 C177 1.315 . S
O179 Cd169 2.240 . S
O179 C177 1.279 . S
O180 Cd170 2.297 . S
O180 C175 1.247 . S
O181 Cd170 2.439 . S
O181 C175 1.208 . S
O182 Cd183 2.223 . S
O182 C190 1.315 . S
Cd183 O182 2.223 . S
Cd183 O186 2.297 . S
Cd183 O187 2.439 . S
Cd183 O193 2.240 . S
Cd184 O185 2.240 . S
Cd184 O192 2.223 . S
Cd184 O194 2.297 . S
Cd184 O195 2.439 . S
O185 Cd184 2.240 . S
O185 C190 1.279 . S
O186 Cd183 2.297 . S
O186 C188 1.247 . S
O187 Cd183 2.439 . S
O187 C188 1.208 . S
C188 O186 1.247 . S
C188 O187 1.208 . S
C189 O194 1.247 . S
C189 O195 1.208 . S
C190 O182 1.315 . S
C190 O185 1.279 . S
C191 O192 1.315 . S
C191 O193 1.279 . S
O192 Cd184 2.223 . S
O192 C191 1.315 . S
O193 Cd183 2.240 . S
O193 C191 1.279 . S
O194 Cd184 2.297 . S
O194 C189 1.247 . S
O195 Cd184 2.439 . S
O195 C189 1.208 . S
O196 Cd197 2.223 . S
O196 C204 1.315 . S
Cd197 O196 2.223 . S
Cd197 O200 2.297 . S
Cd197 O201 2.439 . S
Cd197 O207 2.240 . S
Cd198 O199 2.240 . S
Cd198 O206 2.223 . S
Cd198 O208 2.297 . S
Cd198 O209 2.439 . S
O199 Cd198 2.240 . S
O199 C204 1.279 . S
O200 Cd197 2.297 . S
O200 C202 1.247 . S
O201 Cd197 2.439 . S
O201 C202 1.208 . S
C202 O200 1.247 . S
C202 O201 1.208 . S
C203 O208 1.247 . S
C203 O209 1.208 . S
C204 O196 1.315 . S
C204 O199 1.279 . S
C205 O206 1.315 . S
C205 O207 1.279 . S
O206 Cd198 2.223 . S
O206 C205 1.315 . S
O207 Cd197 2.240 . S
O207 C205 1.279 . S
O208 Cd198 2.297 . S
O208 C203 1.247 . S
O209 Cd198 2.439 . S
O209 C203 1.208 . S
O210 Cd211 2.223 . S
O210 C218 1.315 . S
Cd211 O210 2.223 . S
Cd211 O214 2.297 . S
Cd211 O215 2.439 . S
Cd211 O221 2.240 . S
Cd212 O213 2.240 . S
Cd212 O220 2.223 . S
Cd212 O222 2.297 . S
Cd212 O223 2.439 . S
O213 Cd212 2.240 . S
O213 C218 1.279 . S
O214 Cd211 2.297 . S
O214 C216 1.247 . S
O215 Cd211 2.439 . S
O215 C216 1.208 . S
C216 O214 1.247 . S
C216 O215 1.208 . S
C217 O222 1.247 . S
C217 O223 1.208 . S
C218 O210 1.315 . S
C218 O213 1.279 . S
C219 O220 1.315 . S
C219 O221 1.279 . S
O220 Cd212 2.223 . S
O220 C219 1.315 . S
O221 Cd211 2.240 . S
O221 C219 1.279 . S
O222 Cd212 2.297 . S
O222 C217 1.247 . S
O223 Cd212 2.439 . S
O223 C217 1.208 . S
C224 C225 1.369 . S
C224 C226 1.419 . S
C224 H228 0.930 . S
C225 C224 1.369 . S
C225 C234 1.429 . S
C226 C224 1.419 . S
C226 C227 1.363 . S
C226 H229 0.929 . S
C227 C226 1.363 . S
C227 C233 1.428 . S
H228 C224 0.930 . S
H229 C226 0.929 . S
S230 N231 1.613 . S
S230 N232 1.610 . S
N231 S230 1.613 . S
N231 C234 1.350 . S
N232 S230 1.610 . S
N232 C233 1.351 . S
C233 C227 1.428 . S
C233 N232 1.351 . S
C233 C234 1.434 . S
C234 C225 1.429 . S
C234 N231 1.350 . S
C234 C233 1.434 . S
C235 C236 1.369 . S
C235 C237 1.419 . S
C235 H239 0.930 . S
C236 C235 1.369 . S
C236 C245 1.429 . S
C237 C235 1.419 . S
C237 C238 1.363 . S
C237 H240 0.929 . S
C238 C237 1.363 . S
C238 C244 1.428 . S
H239 C235 0.930 . S
H240 C237 0.929 . S
S241 N242 1.613 . S
S241 N243 1.610 . S
N242 S241 1.613 . S
N242 C245 1.350 . S
N243 S241 1.610 . S
N243 C244 1.351 . S
C244 C238 1.428 . S
C244 N243 1.351 . S
C244 C245 1.434 . S
C245 C236 1.429 . S
C245 N242 1.350 . S
C245 C244 1.434 . S
C246 C247 1.369 . S
C246 C248 1.419 . S
C246 H250 0.930 . S
C247 C246 1.369 . S
C247 C256 1.429 . S
C248 C246 1.419 . S
C248 C249 1.363 . S
C248 H251 0.929 . S
C249 C248 1.363 . S
C249 C255 1.428 . S
H250 C246 0.930 . S
H251 C248 0.929 . S
S252 N253 1.613 . S
S252 N254 1.610 . S
N253 S252 1.613 . S
N253 C256 1.350 . S
N254 S252 1.610 . S
N254 C255 1.351 . S
C255 C249 1.428 . S
C255 N254 1.351 . S
C255 C256 1.434 . S
C256 C247 1.429 . S
C256 N253 1.350 . S
C256 C255 1.434 . S
C257 C258 1.369 . S
C257 C259 1.419 . S
C257 H261 0.930 . S
C258 C257 1.369 . S
C258 C267 1.429 . S
C259 C257 1.419 . S
C259 C260 1.363 . S
C259 H262 0.929 . S
C260 C259 1.363 . S
C260 C266 1.428 . S
H261 C257 0.930 . S
H262 C259 0.929 . S
S263 N264 1.613 . S
S263 N265 1.610 . S
N264 S263 1.613 . S
N264 C267 1.350 . S
N265 S263 1.610 . S
N265 C266 1.351 . S
C266 C260 1.428 . S
C266 N265 1.351 . S
C266 C267 1.434 . S
C267 C258 1.429 . S
C267 N264 1.350 . S
C267 C266 1.434 . S
C268 C269 1.369 . S
C268 C270 1.419 . S
C268 H272 0.930 . S
C269 C268 1.369 . S
C269 C278 1.429 . S
C270 C268 1.419 . S
C270 C271 1.363 . S
C270 H273 0.929 . S
C271 C270 1.363 . S
C271 C277 1.428 . S
H272 C268 0.930 . S
H273 C270 0.929 . S
S274 N275 1.613 . S
S274 N276 1.610 . S
N275 S274 1.613 . S
N275 C278 1.350 1_655 S
N276 S274 1.610 . S
N276 C277 1.351 1_655 S
C277 C271 1.428 . S
C277 N276 1.351 1_455 S
C277 C278 1.434 . S
C278 C269 1.429 . S
C278 N275 1.350 1_455 S
C278 C277 1.434 . S
C279 C280 1.369 . S
C279 C281 1.419 . S
C279 H283 0.930 . S
C280 C279 1.369 . S
C280 C289 1.429 . S
C281 C279 1.419 . S
C281 C282 1.363 . S
C281 H284 0.929 . S
C282 C281 1.363 . S
C282 C288 1.428 . S
H283 C279 0.930 . S
H284 C281 0.929 . S
S285 N286 1.613 . S
S285 N287 1.610 . S
N286 S285 1.613 . S
N286 C289 1.350 . S
N287 S285 1.610 . S
N287 C288 1.351 . S
C288 C282 1.428 . S
C288 N287 1.351 . S
C288 C289 1.434 . S
C289 C280 1.429 . S
C289 N286 1.350 . S
C289 C288 1.434 . S
C290 C291 1.369 . S
C290 C292 1.419 . S
C290 H294 0.930 . S
C291 C290 1.369 . S
C291 C300 1.429 . S
C292 C290 1.419 . S
C292 C293 1.363 . S
C292 H295 0.929 . S
C293 C292 1.363 . S
C293 C299 1.428 . S
H294 C290 0.930 . S
H295 C292 0.929 . S
S296 N297 1.613 . S
S296 N298 1.610 . S
N297 S296 1.613 . S
N297 C300 1.350 . S
N298 S296 1.610 . S
N298 C299 1.351 . S
C299 C293 1.428 . S
C299 N298 1.351 . S
C299 C300 1.434 . S
C300 C291 1.429 . S
C300 N297 1.350 . S
C300 C299 1.434 . S
C301 C302 1.369 . S
C301 C303 1.419 . S
C301 H305 0.930 . S
C302 C301 1.369 . S
C302 C311 1.429 . S
C303 C301 1.419 . S
C303 C304 1.363 . S
C303 H306 0.929 . S
C304 C303 1.363 . S
C304 C310 1.428 . S
H305 C301 0.930 . S
H306 C303 0.929 . S
S307 N308 1.613 . S
S307 N309 1.610 . S
N308 S307 1.613 . S
N308 C311 1.350 . S
N309 S307 1.610 . S
N309 C310 1.351 . S
C310 C304 1.428 . S
C310 N309 1.351 . S
C310 C311 1.434 . S
C311 C302 1.429 . S
C311 N308 1.350 . S
C311 C310 1.434 . S
C312 C313 1.359 1_455 S
C312 C314 1.419 . S
C312 H316 0.930 . S
C313 C312 1.359 1_655 S
C313 C322 1.439 1_565 S
C314 C312 1.419 . S
C314 C315 1.353 1_465 S
C314 H317 0.929 . S
C315 C314 1.353 1_645 S
C315 C321 1.439 . S
H316 C312 0.930 . S
H317 C314 0.929 . S
S318 N319 1.613 . S
S318 N320 1.610 . S
N319 S318 1.613 . S
N319 C322 1.350 . S
N320 S318 1.610 . S
N320 C321 1.351 . S
C321 C315 1.439 . S
C321 N320 1.351 . S
C321 C322 1.434 . S
C322 C313 1.439 1_545 S
C322 N319 1.350 . S
C322 C321 1.434 . S
C323 C324 1.369 . S
C323 C325 1.419 . S
C323 H327 0.930 . S
C324 C323 1.369 . S
C324 C333 1.429 . S
C325 C323 1.419 . S
C325 C326 1.363 . S
C325 H328 0.929 . S
C326 C325 1.363 . S
C326 C332 1.428 . S
H327 C323 0.930 . S
H328 C325 0.929 . S
S329 N330 1.613 . S
S329 N331 1.610 . S
N330 S329 1.613 . S
N330 C333 1.350 . S
N331 S329 1.610 . S
N331 C332 1.351 . S
C332 C326 1.428 . S
C332 N331 1.351 . S
C332 C333 1.434 . S
C333 C324 1.429 . S
C333 N330 1.350 . S
C333 C332 1.434 . S
C334 C335 1.369 . S
C334 C336 1.419 1_564 S
C334 H338 0.930 . S
C335 C334 1.369 . S
C335 C344 1.429 . S
C336 C334 1.419 1_546 S
C336 C337 1.363 . S
C336 H339 0.929 . S
C337 C336 1.363 . S
C337 C343 1.428 . S
H338 C334 0.930 . S
H339 C336 0.929 . S
S340 N341 1.631 1_545 S
S340 N342 1.593 1_554 S
N341 S340 1.631 1_565 S
N341 C344 1.350 . S
N342 S340 1.593 1_556 S
N342 C343 1.351 . S
C343 C337 1.428 . S
C343 N342 1.351 . S
C343 C344 1.434 1_546 S
C344 C335 1.429 . S
C344 N341 1.350 . S
C344 C343 1.434 1_564 S
C345 C346 1.369 . S
C345 C347 1.419 . S
C345 H349 0.930 . S
C346 C345 1.369 . S
C346 C355 1.429 . S
C347 C345 1.419 . S
C347 C348 1.363 . S
C347 H350 0.929 . S
C348 C347 1.363 . S
C348 C354 1.428 . S
H349 C345 0.930 . S
H350 C347 0.929 . S
S351 N352 1.613 . S
S351 N353 1.610 . S
N352 S351 1.613 . S
N352 C355 1.350 . S
N353 S351 1.610 . S
N353 C354 1.351 . S
C354 C348 1.428 . S
C354 N353 1.351 . S
C354 C355 1.434 . S
C355 C346 1.429 . S
C355 N352 1.350 . S
C355 C354 1.434 . S
C356 C357 1.369 . S
C356 C358 1.419 . S
C356 H360 0.930 . S
C357 C356 1.369 . S
C357 C366 1.429 . S
C358 C356 1.419 . S
C358 C359 1.363 . S
C358 H361 0.929 . S
C359 C358 1.363 . S
C359 C365 1.428 . S
H360 C356 0.930 . S
H361 C358 0.929 . S
S362 N363 1.613 . S
S362 N364 1.610 . S
N363 S362 1.613 . S
N363 C366 1.350 . S
N364 S362 1.610 . S
N364 C365 1.351 . S
C365 C359 1.428 . S
C365 N364 1.351 . S
C365 C366 1.434 . S
C366 C357 1.429 . S
C366 N363 1.350 . S
C366 C365 1.434 . S
C367 C368 1.369 . S
C367 C369 1.419 . S
C367 H371 0.930 . S
C368 C367 1.369 . S
C368 C377 1.429 . S
C369 C367 1.419 . S
C369 C370 1.363 . S
C369 H372 0.929 . S
C370 C369 1.363 . S
C370 C376 1.428 . S
H371 C367 0.930 . S
H372 C369 0.929 . S
S373 N374 1.613 . S
S373 N375 1.610 . S
N374 S373 1.613 . S
N374 C377 1.350 . S
N375 S373 1.610 . S
N375 C376 1.351 . S
C376 C370 1.428 . S
C376 N375 1.351 . S
C376 C377 1.434 . S
C377 C368 1.429 . S
C377 N374 1.350 . S
C377 C376 1.434 . S
C378 C379 1.369 . S
C378 C380 1.419 1_556 S
C378 H382 0.930 . S
C379 C378 1.369 . S
C379 C388 1.429 . S
C380 C378 1.419 1_554 S
C380 C381 1.363 . S
C380 H383 0.929 . S
C381 C380 1.363 . S
C381 C387 1.428 . S
H382 C378 0.930 . S
H383 C380 0.929 . S
S384 N385 1.613 1_554 S
S384 N386 1.610 . S
N385 S384 1.613 1_556 S
N385 C388 1.350 . S
N386 S384 1.610 . S
N386 C387 1.351 . S
C387 C381 1.428 . S
C387 N386 1.351 . S
C387 C388 1.434 1_554 S
C388 C379 1.429 . S
C388 N385 1.350 . S
C388 C387 1.434 1_556 S
C389 C390 1.369 . S
C389 C391 1.419 . S
C389 H393 0.930 . S
C390 C389 1.369 . S
C390 C399 1.429 . S
C391 C389 1.419 . S
C391 C392 1.363 . S
C391 H394 0.929 . S
C392 C391 1.363 . S
C392 C398 1.428 . S
H393 C389 0.930 . S
H394 C391 0.929 . S
S395 N396 1.613 . S
S395 N397 1.610 . S
N396 S395 1.613 . S
N396 C399 1.350 . S
N397 S395 1.610 . S
N397 C398 1.351 . S
C398 C392 1.428 . S
C398 N397 1.351 . S
C398 C399 1.434 . S
C399 C390 1.429 . S
C399 N396 1.350 . S
C399 C398 1.434 . S
C400 C401 1.369 . S
C400 C402 1.419 . S
C400 H404 0.930 . S
C401 C400 1.369 . S
C401 C410 1.429 . S
C402 C400 1.419 . S
C402 C403 1.363 . S
C402 H405 0.929 . S
C403 C402 1.363 . S
C403 C409 1.428 . S
H404 C400 0.930 . S
H405 C402 0.929 . S
S406 N407 1.613 . S
S406 N408 1.610 . S
N407 S406 1.613 . S
N407 C410 1.350 . S
N408 S406 1.610 . S
N408 C409 1.351 . S
C409 C403 1.428 . S
C409 N408 1.351 . S
C409 C410 1.434 . S
C410 C401 1.429 . S
C410 N407 1.350 . S
C410 C409 1.434 . S
C411 C412 1.369 . S
C411 C413 1.419 . S
C411 H415 0.930 . S
C412 C411 1.369 . S
C412 C421 1.429 . S
C413 C411 1.419 . S
C413 C414 1.363 . S
C413 H416 0.929 . S
C414 C413 1.363 . S
C414 C420 1.428 . S
H415 C411 0.930 . S
H416 C413 0.929 . S
S417 N418 1.613 . S
S417 N419 1.610 . S
N418 S417 1.613 . S
N418 C421 1.350 . S
N419 S417 1.610 . S
N419 C420 1.351 . S
C420 C414 1.428 . S
C420 N419 1.351 . S
C420 C421 1.434 . S
C421 C412 1.429 . S
C421 N418 1.350 . S
C421 C420 1.434 . S
C422 C423 1.369 . S
C422 C424 1.419 . S
C422 H426 0.930 . S
C423 C422 1.369 . S
C423 C432 1.429 . S
C424 C422 1.419 . S
C424 C425 1.363 . S
C424 H427 0.929 . S
C425 C424 1.363 . S
C425 C431 1.428 . S
H426 C422 0.930 . S
H427 C424 0.929 . S
S428 N429 1.613 . S
S428 N430 1.610 . S
N429 S428 1.613 . S
N429 C432 1.350 . S
N430 S428 1.610 . S
N430 C431 1.351 . S
C431 C425 1.428 . S
C431 N430 1.351 . S
C431 C432 1.434 . S
C432 C423 1.429 . S
C432 N429 1.350 . S
C432 C431 1.434 . S
C433 C434 1.369 . S
C433 C435 1.419 . S
C433 H437 0.930 . S
C434 C433 1.369 . S
C434 C443 1.429 . S
C435 C433 1.419 . S
C435 C436 1.363 . S
C435 H438 0.929 . S
C436 C435 1.363 . S
C436 C442 1.428 . S
H437 C433 0.930 . S
H438 C435 0.929 . S
S439 N440 1.613 . S
S439 N441 1.610 . S
N440 S439 1.613 . S
N440 C443 1.350 . S
N441 S439 1.610 . S
N441 C442 1.351 . S
C442 C436 1.428 . S
C442 N441 1.351 . S
C442 C443 1.434 . S
C443 C434 1.429 . S
C443 N440 1.350 . S
C443 C442 1.434 . S
C444 C445 1.369 . S
C444 C446 1.419 . S
C444 H448 0.930 . S
C445 C444 1.369 . S
C445 C454 1.429 . S
C446 C444 1.419 . S
C446 C447 1.363 . S
C446 H449 0.929 . S
C447 C446 1.363 . S
C447 C453 1.428 . S
H448 C444 0.930 . S
H449 C446 0.929 . S
S450 N451 1.613 . S
S450 N452 1.610 . S
N451 S450 1.613 . S
N451 C454 1.350 . S
N452 S450 1.610 . S
N452 C453 1.351 . S
C453 C447 1.428 . S
C453 N452 1.351 . S
C453 C454 1.434 . S
C454 C445 1.429 . S
C454 N451 1.350 . S
C454 C453 1.434 . S
C455 C456 1.369 . S
C455 C457 1.419 . S
C455 H459 0.930 . S
C456 C455 1.369 . S
C456 C465 1.429 . S
C457 C455 1.419 . S
C457 C458 1.363 . S
C457 H460 0.929 . S
C458 C457 1.363 . S
C458 C464 1.428 . S
H459 C455 0.930 . S
H460 C457 0.929 . S
S461 N462 1.613 . S
S461 N463 1.610 . S
N462 S461 1.613 . S
N462 C465 1.350 . S
N463 S461 1.610 . S
N463 C464 1.351 . S
C464 C458 1.428 . S
C464 N463 1.351 . S
C464 C465 1.434 . S
C465 C456 1.429 . S
C465 N462 1.350 . S
C465 C464 1.434 . S
C466 C467 1.369 . S
C466 C468 1.419 . S
C466 H470 0.930 . S
C467 C466 1.369 . S
C467 C476 1.429 . S
C468 C466 1.419 . S
C468 C469 1.363 . S
C468 H471 0.929 . S
C469 C468 1.363 . S
C469 C475 1.428 . S
H470 C466 0.930 . S
H471 C468 0.929 . S
S472 N473 1.613 . S
S472 N474 1.610 . S
N473 S472 1.613 . S
N473 C476 1.350 . S
N474 S472 1.610 . S
N474 C475 1.351 . S
C475 C469 1.428 . S
C475 N474 1.351 . S
C475 C476 1.434 . S
C476 C467 1.429 . S
C476 N473 1.350 . S
C476 C475 1.434 . S
C477 C478 1.369 . S
C477 C479 1.419 . S
C477 H481 0.930 . S
C478 C477 1.369 . S
C478 C487 1.429 . S
C479 C477 1.419 . S
C479 C480 1.363 . S
C479 H482 0.929 . S
C480 C479 1.363 . S
C480 C486 1.428 . S
H481 C477 0.930 . S
H482 C479 0.929 . S
S483 N484 1.613 . S
S483 N485 1.610 . S
N484 S483 1.613 . S
N484 C487 1.350 . S
N485 S483 1.610 . S
N485 C486 1.351 . S
C486 C480 1.428 . S
C486 N485 1.351 . S
C486 C487 1.434 . S
C487 C478 1.429 . S
C487 N484 1.350 . S
C487 C486 1.434 . S
C488 C489 1.369 . S
C488 C490 1.419 . S
C488 H492 0.930 . S
C489 C488 1.369 . S
C489 C498 1.429 . S
C490 C488 1.419 . S
C490 C491 1.363 . S
C490 H493 0.929 . S
C491 C490 1.363 . S
C491 C497 1.428 . S
H492 C488 0.930 . S
H493 C490 0.929 . S
S494 N495 1.613 . S
S494 N496 1.610 . S
N495 S494 1.613 . S
N495 C498 1.350 . S
N496 S494 1.610 . S
N496 C497 1.351 . S
C497 C491 1.428 . S
C497 N496 1.351 . S
C497 C498 1.434 . S
C498 C489 1.429 . S
C498 N495 1.350 . S
C498 C497 1.434 . S
C499 C500 1.369 . S
C499 C501 1.419 . S
C499 H503 0.930 . S
C500 C499 1.369 . S
C500 C509 1.429 . S
C501 C499 1.419 . S
C501 C502 1.363 . S
C501 H504 0.929 1_655 S
C502 C501 1.363 . S
C502 C508 1.428 . S
H503 C499 0.930 . S
H504 C501 0.929 1_455 S
S505 N506 1.613 . S
S505 N507 1.610 . S
N506 S505 1.613 . S
N506 C509 1.350 . S
N507 S505 1.610 . S
N507 C508 1.351 . S
C508 C502 1.428 . S
C508 N507 1.351 . S
C508 C509 1.434 . S
C509 C500 1.429 . S
C509 N506 1.350 . S
C509 C508 1.434 . S
C510 C511 1.369 . S
C510 C512 1.419 . S
C510 H514 0.930 . S
C511 C510 1.369 . S
C511 C520 1.429 . S
C512 C510 1.419 . S
C512 C513 1.363 . S
C512 H515 0.929 . S
C513 C512 1.363 . S
C513 C519 1.428 . S
H514 C510 0.930 . S
H515 C512 0.929 . S
S516 N517 1.613 . S
S516 N518 1.610 . S
N517 S516 1.613 . S
N517 C520 1.350 . S
N518 S516 1.610 . S
N518 C519 1.351 . S
C519 C513 1.428 . S
C519 N518 1.351 . S
C519 C520 1.434 . S
C520 C511 1.429 . S
C520 N517 1.350 . S
C520 C519 1.434 . S
C521 C522 1.369 . S
C521 C523 1.419 . S
C521 H525 0.930 . S
C522 C521 1.369 . S
C522 C531 1.429 . S
C523 C521 1.419 . S
C523 C524 1.363 . S
C523 H526 0.929 . S
C524 C523 1.363 . S
C524 C530 1.428 . S
H525 C521 0.930 . S
H526 C523 0.929 . S
S527 N528 1.613 . S
S527 N529 1.610 . S
N528 S527 1.613 . S
N528 C531 1.350 . S
N529 S527 1.610 . S
N529 C530 1.351 . S
C530 C524 1.428 . S
C530 N529 1.351 . S
C530 C531 1.434 . S
C531 C522 1.429 . S
C531 N528 1.350 . S
C531 C530 1.434 . S
C532 C533 1.369 . S
C532 C534 1.419 . S
C532 H536 0.930 . S
C533 C532 1.369 . S
C533 C542 1.429 . S
C534 C532 1.419 . S
C534 C535 1.363 . S
C534 H537 0.929 . S
C535 C534 1.363 . S
C535 C541 1.428 . S
H536 C532 0.930 . S
H537 C534 0.929 . S
S538 N539 1.613 . S
S538 N540 1.610 . S
N539 S538 1.613 . S
N539 C542 1.350 . S
N540 S538 1.610 . S
N540 C541 1.351 . S
C541 C535 1.428 . S
C541 N540 1.351 . S
C541 C542 1.434 . S
C542 C533 1.429 . S
C542 N539 1.350 . S
C542 C541 1.434 . S
C543 C544 1.369 . S
C543 C545 1.419 . S
C543 H547 0.930 . S
C544 C543 1.369 . S
C544 C553 1.429 . S
C545 C543 1.419 . S
C545 C546 1.363 . S
C545 H548 0.929 . S
C546 C545 1.363 . S
C546 C552 1.428 . S
H547 C543 0.930 . S
H548 C545 0.929 . S
S549 N550 1.613 . S
S549 N551 1.610 . S
N550 S549 1.613 . S
N550 C553 1.350 . S
N551 S549 1.610 . S
N551 C552 1.351 . S
C552 C546 1.428 . S
C552 N551 1.351 . S
C552 C553 1.434 . S
C553 C544 1.429 . S
C553 N550 1.350 . S
C553 C552 1.434 . S
C554 C555 1.369 . S
C554 C556 1.419 . S
C554 H558 0.930 . S
C555 C554 1.369 . S
C555 C564 1.429 . S
C556 C554 1.419 . S
C556 C557 1.363 . S
C556 H559 0.929 . S
C557 C556 1.363 . S
C557 C563 1.428 . S
H558 C554 0.930 . S
H559 C556 0.929 . S
S560 N561 1.613 . S
S560 N562 1.610 . S
N561 S560 1.613 . S
N561 C564 1.350 . S
N562 S560 1.610 . S
N562 C563 1.351 . S
C563 C557 1.428 . S
C563 N562 1.351 . S
C563 C564 1.434 . S
C564 C555 1.429 . S
C564 N561 1.350 . S
C564 C563 1.434 . S
C565 C566 1.369 . S
C565 C567 1.419 . S
C565 H569 0.930 . S
C566 C565 1.369 . S
C566 C575 1.429 . S
C567 C565 1.419 . S
C567 C568 1.363 . S
C567 H570 0.929 . S
C568 C567 1.363 . S
C568 C574 1.428 . S
H569 C565 0.930 . S
H570 C567 0.929 . S
S571 N572 1.613 . S
S571 N573 1.610 . S
N572 S571 1.613 . S
N572 C575 1.350 . S
N573 S571 1.610 . S
N573 C574 1.351 . S
C574 C568 1.428 . S
C574 N573 1.351 . S
C574 C575 1.434 . S
C575 C566 1.429 . S
C575 N572 1.350 . S
C575 C574 1.434 . S
C225 C6 1.412 . S
C227 C188 1.411 . S
C236 C160 1.414 1_455 S
C238 C20 1.409 . S
C247 C174 1.407 . S
C249 C34 1.414 . S
C258 C146 1.408 . S
C260 C48 1.414 . S
C269 C62 1.408 . S
C271 C216 1.414 . S
C280 C76 1.416 . S
C282 C132 1.408 . S
C291 C202 1.411 . S
C293 C90 1.411 . S
C302 C104 1.410 . S
C304 C118 1.413 1_455 S
C313 C64 1.767 1_655 S
C315 C8 1.765 1_655 S
C324 C22 1.768 . S
C326 C78 1.767 . S
C335 C36 1.767 . S
C337 C92 1.767 . S
C346 C106 1.766 . S
C348 C50 1.766 . S
C357 C120 1.767 . S
C359 C148 1.767 . S
C368 C134 1.768 . S
C370 C162 1.767 . S
C379 C204 1.765 . S
C381 C176 1.767 . S
C390 C190 1.766 . S
C392 C218 1.767 . S
C401 C77 1.480 . S
C403 C7 1.491 . S
C412 C21 1.490 . S
C414 C91 1.484 . S
C423 C35 1.489 . S
C425 C105 1.479 . S
C434 C63 1.491 . S
C436 C49 1.479 . S
C445 C65 1.415 . S
C447 C149 1.410 . S
C456 C37 1.417 . S
C458 C121 1.410 . S
C467 C163 1.411 . S
C469 C93 1.410 . S
C478 C135 1.408 . S
C480 C9 1.415 . S
C489 C119 1.481 . S
C491 C175 1.490 . S
C500 C147 1.486 . S
C502 C217 1.488 1_655 S
C511 C189 1.492 1_655 S
C513 C133 1.480 . S
C522 C161 1.485 . S
C524 C203 1.489 . S
C533 C205 1.411 . S
C535 C23 1.418 . S
C544 C191 1.417 . S
C546 C79 1.418 . S
C555 C219 1.415 . S
C557 C51 1.418 . S
C566 C177 1.416 . S
C568 C107 1.418 . S
