# Generated by pormake.
# Topology sop, (7)-cn, num edge types: 1
# Building blocks:
#     Node 0, Type 0, BuildingBlock: NUHQUE_clean_sbu_2, # of connection points: 7
#     Node 1, Type 0, BuildingBlock: NUHQUE_clean_sbu_2, # of connection points: 7
#     Node 2, Type 0, BuildingBlock: NUHQUE_clean_sbu_2, # of connection points: 7
#     Node 3, Type 0, BuildingBlock: NUHQUE_clean_sbu_2, # of connection points: 7
#     Node 4, Type 0, BuildingBlock: NUHQUE_clean_sbu_2, # of connection points: 7
#     Node 5, Type 0, BuildingBlock: NUHQUE_clean_sbu_2, # of connection points: 7
#     Node 6, Type 0, BuildingBlock: NUHQUE_clean_sbu_2, # of connection points: 7
#     Node 7, Type 0, BuildingBlock: NUHQUE_clean_sbu_2, # of connection points: 7
#     Node 8, Type 0, BuildingBlock: NUHQUE_clean_sbu_2, # of connection points: 7
#     Node 9, Type 0, BuildingBlock: NUHQUE_clean_sbu_2, # of connection points: 7
#     Node 10, Type 0, BuildingBlock: NUHQUE_clean_sbu_2, # of connection points: 7
#     Node 11, Type 0, BuildingBlock: NUHQUE_clean_sbu_2, # of connection points: 7
#     Node 12, Type 0, BuildingBlock: NUHQUE_clean_sbu_2, # of connection points: 7
#     Node 13, Type 0, BuildingBlock: NUHQUE_clean_sbu_2, # of connection points: 7
#     Node 14, Type 0, BuildingBlock: NUHQUE_clean_sbu_2, # of connection points: 7
#     Node 15, Type 0, BuildingBlock: NUHQUE_clean_sbu_2, # of connection points: 7
#     Node 16, Type 0, BuildingBlock: NUHQUE_clean_sbu_2, # of connection points: 7
#     Node 17, Type 0, BuildingBlock: NUHQUE_clean_sbu_2, # of connection points: 7
#     Node 18, Type 0, BuildingBlock: NUHQUE_clean_sbu_2, # of connection points: 7
#     Node 19, Type 0, BuildingBlock: NUHQUE_clean_sbu_2, # of connection points: 7
#     Node 20, Type 0, BuildingBlock: NUHQUE_clean_sbu_2, # of connection points: 7
#     Node 21, Type 0, BuildingBlock: NUHQUE_clean_sbu_2, # of connection points: 7
#     Node 22, Type 0, BuildingBlock: NUHQUE_clean_sbu_2, # of connection points: 7
#     Node 23, Type 0, BuildingBlock: NUHQUE_clean_sbu_2, # of connection points: 7
#     Node 24, Type 0, BuildingBlock: NUHQUE_clean_sbu_2, # of connection points: 7
#     Node 25, Type 0, BuildingBlock: NUHQUE_clean_sbu_2, # of connection points: 7
#     Node 26, Type 0, BuildingBlock: NUHQUE_clean_sbu_2, # of connection points: 7
#     Node 27, Type 0, BuildingBlock: NUHQUE_clean_sbu_2, # of connection points: 7
#     Node 28, Type 0, BuildingBlock: NUHQUE_clean_sbu_2, # of connection points: 7
#     Node 29, Type 0, BuildingBlock: NUHQUE_clean_sbu_2, # of connection points: 7
#     Node 30, Type 0, BuildingBlock: NUHQUE_clean_sbu_2, # of connection points: 7
#     Node 31, Type 0, BuildingBlock: NUHQUE_clean_sbu_2, # of connection points: 7
#     Edge 32, Type (0, 0), BuildingBlock: TEMPAE_clean_linker_10, # of connection points: 2
#     Edge 33, Type (0, 0), BuildingBlock: TEMPAE_clean_linker_10, # of connection points: 2
#     Edge 34, Type (0, 0), BuildingBlock: TEMPAE_clean_linker_10, # of connection points: 2
#     Edge 35, Type (0, 0), BuildingBlock: TEMPAE_clean_linker_10, # of connection points: 2
#     Edge 36, Type (0, 0), BuildingBlock: TEMPAE_clean_linker_10, # of connection points: 2
#     Edge 37, Type (0, 0), BuildingBlock: TEMPAE_clean_linker_10, # of connection points: 2
#     Edge 38, Type (0, 0), BuildingBlock: TEMPAE_clean_linker_10, # of connection points: 2
#     Edge 39, Type (0, 0), BuildingBlock: TEMPAE_clean_linker_10, # of connection points: 2
#     Edge 40, Type (0, 0), BuildingBlock: TEMPAE_clean_linker_10, # of connection points: 2
#     Edge 41, Type (0, 0), BuildingBlock: TEMPAE_clean_linker_10, # of connection points: 2
#     Edge 42, Type (0, 0), BuildingBlock: TEMPAE_clean_linker_10, # of connection points: 2
#     Edge 43, Type (0, 0), BuildingBlock: TEMPAE_clean_linker_10, # of connection points: 2
#     Edge 44, Type (0, 0), BuildingBlock: TEMPAE_clean_linker_10, # of connection points: 2
#     Edge 45, Type (0, 0), BuildingBlock: TEMPAE_clean_linker_10, # of connection points: 2
#     Edge 46, Type (0, 0), BuildingBlock: TEMPAE_clean_linker_10, # of connection points: 2
#     Edge 47, Type (0, 0), BuildingBlock: TEMPAE_clean_linker_10, # of connection points: 2
#     Edge 48, Type (0, 0), BuildingBlock: TEMPAE_clean_linker_10, # of connection points: 2
#     Edge 49, Type (0, 0), BuildingBlock: TEMPAE_clean_linker_10, # of connection points: 2
#     Edge 50, Type (0, 0), BuildingBlock: TEMPAE_clean_linker_10, # of connection points: 2
#     Edge 51, Type (0, 0), BuildingBlock: TEMPAE_clean_linker_10, # of connection points: 2
#     Edge 52, Type (0, 0), BuildingBlock: TEMPAE_clean_linker_10, # of connection points: 2
#     Edge 53, Type (0, 0), BuildingBlock: TEMPAE_clean_linker_10, # of connection points: 2
#     Edge 54, Type (0, 0), BuildingBlock: TEMPAE_clean_linker_10, # of connection points: 2
#     Edge 55, Type (0, 0), BuildingBlock: TEMPAE_clean_linker_10, # of connection points: 2
#     Edge 56, Type (0, 0), BuildingBlock: TEMPAE_clean_linker_10, # of connection points: 2
#     Edge 57, Type (0, 0), BuildingBlock: TEMPAE_clean_linker_10, # of connection points: 2
#     Edge 58, Type (0, 0), BuildingBlock: TEMPAE_clean_linker_10, # of connection points: 2
#     Edge 59, Type (0, 0), BuildingBlock: TEMPAE_clean_linker_10, # of connection points: 2
#     Edge 60, Type (0, 0), BuildingBlock: TEMPAE_clean_linker_10, # of connection points: 2
#     Edge 61, Type (0, 0), BuildingBlock: TEMPAE_clean_linker_10, # of connection points: 2
#     Edge 62, Type (0, 0), BuildingBlock: TEMPAE_clean_linker_10, # of connection points: 2
#     Edge 63, Type (0, 0), BuildingBlock: TEMPAE_clean_linker_10, # of connection points: 2
#     Edge 64, Type (0, 0), BuildingBlock: TEMPAE_clean_linker_10, # of connection points: 2
#     Edge 65, Type (0, 0), BuildingBlock: TEMPAE_clean_linker_10, # of connection points: 2
#     Edge 66, Type (0, 0), BuildingBlock: TEMPAE_clean_linker_10, # of connection points: 2
#     Edge 67, Type (0, 0), BuildingBlock: TEMPAE_clean_linker_10, # of connection points: 2
#     Edge 68, Type (0, 0), BuildingBlock: TEMPAE_clean_linker_10, # of connection points: 2
#     Edge 69, Type (0, 0), BuildingBlock: TEMPAE_clean_linker_10, # of connection points: 2
#     Edge 70, Type (0, 0), BuildingBlock: TEMPAE_clean_linker_10, # of connection points: 2
#     Edge 71, Type (0, 0), BuildingBlock: TEMPAE_clean_linker_10, # of connection points: 2
#     Edge 72, Type (0, 0), BuildingBlock: TEMPAE_clean_linker_10, # of connection points: 2
#     Edge 73, Type (0, 0), BuildingBlock: TEMPAE_clean_linker_10, # of connection points: 2
#     Edge 74, Type (0, 0), BuildingBlock: TEMPAE_clean_linker_10, # of connection points: 2
#     Edge 75, Type (0, 0), BuildingBlock: TEMPAE_clean_linker_10, # of connection points: 2
#     Edge 76, Type (0, 0), BuildingBlock: TEMPAE_clean_linker_10, # of connection points: 2
#     Edge 77, Type (0, 0), BuildingBlock: TEMPAE_clean_linker_10, # of connection points: 2
#     Edge 78, Type (0, 0), BuildingBlock: TEMPAE_clean_linker_10, # of connection points: 2
#     Edge 79, Type (0, 0), BuildingBlock: TEMPAE_clean_linker_10, # of connection points: 2
#     Edge 80, Type (0, 0), BuildingBlock: TEMPAE_clean_linker_10, # of connection points: 2
#     Edge 81, Type (0, 0), BuildingBlock: TEMPAE_clean_linker_10, # of connection points: 2
#     Edge 82, Type (0, 0), BuildingBlock: TEMPAE_clean_linker_10, # of connection points: 2
#     Edge 83, Type (0, 0), BuildingBlock: TEMPAE_clean_linker_10, # of connection points: 2
#     Edge 84, Type (0, 0), BuildingBlock: TEMPAE_clean_linker_10, # of connection points: 2
#     Edge 85, Type (0, 0), BuildingBlock: TEMPAE_clean_linker_10, # of connection points: 2
#     Edge 86, Type (0, 0), BuildingBlock: TEMPAE_clean_linker_10, # of connection points: 2
#     Edge 87, Type (0, 0), BuildingBlock: TEMPAE_clean_linker_10, # of connection points: 2
#     Edge 88, Type (0, 0), BuildingBlock: TEMPAE_clean_linker_10, # of connection points: 2
#     Edge 89, Type (0, 0), BuildingBlock: TEMPAE_clean_linker_10, # of connection points: 2
#     Edge 90, Type (0, 0), BuildingBlock: TEMPAE_clean_linker_10, # of connection points: 2
#     Edge 91, Type (0, 0), BuildingBlock: TEMPAE_clean_linker_10, # of connection points: 2
#     Edge 92, Type (0, 0), BuildingBlock: TEMPAE_clean_linker_10, # of connection points: 2
#     Edge 93, Type (0, 0), BuildingBlock: TEMPAE_clean_linker_10, # of connection points: 2
#     Edge 94, Type (0, 0), BuildingBlock: TEMPAE_clean_linker_10, # of connection points: 2
#     Edge 95, Type (0, 0), BuildingBlock: TEMPAE_clean_linker_10, # of connection points: 2
#     Edge 96, Type (0, 0), BuildingBlock: TEMPAE_clean_linker_10, # of connection points: 2
#     Edge 97, Type (0, 0), BuildingBlock: TEMPAE_clean_linker_10, # of connection points: 2
#     Edge 98, Type (0, 0), BuildingBlock: TEMPAE_clean_linker_10, # of connection points: 2
#     Edge 99, Type (0, 0), BuildingBlock: TEMPAE_clean_linker_10, # of connection points: 2
#     Edge 100, Type (0, 0), BuildingBlock: TEMPAE_clean_linker_10, # of connection points: 2
#     Edge 101, Type (0, 0), BuildingBlock: TEMPAE_clean_linker_10, # of connection points: 2
#     Edge 102, Type (0, 0), BuildingBlock: TEMPAE_clean_linker_10, # of connection points: 2
#     Edge 103, Type (0, 0), BuildingBlock: TEMPAE_clean_linker_10, # of connection points: 2
#     Edge 104, Type (0, 0), BuildingBlock: TEMPAE_clean_linker_10, # of connection points: 2
#     Edge 105, Type (0, 0), BuildingBlock: TEMPAE_clean_linker_10, # of connection points: 2
#     Edge 106, Type (0, 0), BuildingBlock: TEMPAE_clean_linker_10, # of connection points: 2
#     Edge 107, Type (0, 0), BuildingBlock: TEMPAE_clean_linker_10, # of connection points: 2
#     Edge 108, Type (0, 0), BuildingBlock: TEMPAE_clean_linker_10, # of connection points: 2
#     Edge 109, Type (0, 0), BuildingBlock: TEMPAE_clean_linker_10, # of connection points: 2
#     Edge 110, Type (0, 0), BuildingBlock: TEMPAE_clean_linker_10, # of connection points: 2
#     Edge 111, Type (0, 0), BuildingBlock: TEMPAE_clean_linker_10, # of connection points: 2
#     Edge 112, Type (0, 0), BuildingBlock: TEMPAE_clean_linker_10, # of connection points: 2
#     Edge 113, Type (0, 0), BuildingBlock: TEMPAE_clean_linker_10, # of connection points: 2
#     Edge 114, Type (0, 0), BuildingBlock: TEMPAE_clean_linker_10, # of connection points: 2
#     Edge 115, Type (0, 0), BuildingBlock: TEMPAE_clean_linker_10, # of connection points: 2
#     Edge 116, Type (0, 0), BuildingBlock: TEMPAE_clean_linker_10, # of connection points: 2
#     Edge 117, Type (0, 0), BuildingBlock: TEMPAE_clean_linker_10, # of connection points: 2
#     Edge 118, Type (0, 0), BuildingBlock: TEMPAE_clean_linker_10, # of connection points: 2
#     Edge 119, Type (0, 0), BuildingBlock: TEMPAE_clean_linker_10, # of connection points: 2
#     Edge 120, Type (0, 0), BuildingBlock: TEMPAE_clean_linker_10, # of connection points: 2
#     Edge 121, Type (0, 0), BuildingBlock: TEMPAE_clean_linker_10, # of connection points: 2
#     Edge 122, Type (0, 0), BuildingBlock: TEMPAE_clean_linker_10, # of connection points: 2
#     Edge 123, Type (0, 0), BuildingBlock: TEMPAE_clean_linker_10, # of connection points: 2
#     Edge 124, Type (0, 0), BuildingBlock: TEMPAE_clean_linker_10, # of connection points: 2
#     Edge 125, Type (0, 0), BuildingBlock: TEMPAE_clean_linker_10, # of connection points: 2
#     Edge 126, Type (0, 0), BuildingBlock: TEMPAE_clean_linker_10, # of connection points: 2
#     Edge 127, Type (0, 0), BuildingBlock: TEMPAE_clean_linker_10, # of connection points: 2
#     Edge 128, Type (0, 0), BuildingBlock: TEMPAE_clean_linker_10, # of connection points: 2
#     Edge 129, Type (0, 0), BuildingBlock: TEMPAE_clean_linker_10, # of connection points: 2
#     Edge 130, Type (0, 0), BuildingBlock: TEMPAE_clean_linker_10, # of connection points: 2
#     Edge 131, Type (0, 0), BuildingBlock: TEMPAE_clean_linker_10, # of connection points: 2
#     Edge 132, Type (0, 0), BuildingBlock: TEMPAE_clean_linker_10, # of connection points: 2
#     Edge 133, Type (0, 0), BuildingBlock: TEMPAE_clean_linker_10, # of connection points: 2
#     Edge 134, Type (0, 0), BuildingBlock: TEMPAE_clean_linker_10, # of connection points: 2
#     Edge 135, Type (0, 0), BuildingBlock: TEMPAE_clean_linker_10, # of connection points: 2
#     Edge 136, Type (0, 0), BuildingBlock: TEMPAE_clean_linker_10, # of connection points: 2
#     Edge 137, Type (0, 0), BuildingBlock: TEMPAE_clean_linker_10, # of connection points: 2
#     Edge 138, Type (0, 0), BuildingBlock: TEMPAE_clean_linker_10, # of connection points: 2
#     Edge 139, Type (0, 0), BuildingBlock: TEMPAE_clean_linker_10, # of connection points: 2
#     Edge 140, Type (0, 0), BuildingBlock: TEMPAE_clean_linker_10, # of connection points: 2
#     Edge 141, Type (0, 0), BuildingBlock: TEMPAE_clean_linker_10, # of connection points: 2
#     Edge 142, Type (0, 0), BuildingBlock: TEMPAE_clean_linker_10, # of connection points: 2
#     Edge 143, Type (0, 0), BuildingBlock: TEMPAE_clean_linker_10, # of connection points: 2
# Relax obj value: 0.249
# Max RMSD: 0.261
# Mean RMSD: 0.261
data_MOF--net-sop--node1-NUHQUE_clean_sbu_2--edge1-TEMPAE_clean_linker_10
_symmetry_space_group_name_H-M    P1
_symmetry_Int_Tables_number       1
_symmetry_cell_setting            triclinic
loop_
_symmetry_equiv_pos_as_xyz
'x, y, z'
_cell_length_a     118.65429
_cell_length_b     27.001659
_cell_length_c     62.590665
_cell_angle_alpha  89.945742
_cell_angle_beta   90.013552
_cell_angle_gamma 89.938683
loop_
_atom_site_label
_atom_site_type_symbol
_atom_site_fract_x
_atom_site_fract_y
_atom_site_fract_z
_atom_type_partial_charge
O0 O 0.11998 0.35828 0.07261 0.0
Tb1 Tb 0.10565 0.40281 0.08241 0.0
Eu2 Eu 0.08039 0.43768 0.07495 0.0
C3 C 0.12104 0.34782 0.05217 0.0
O4 O 0.11404 0.3687 0.03859 0.0
C5 C 0.08756 0.32959 0.10043 0.0
O6 O 0.07174 0.49892 0.09328 0.0
C7 C 0.0684 0.42376 0.03964 0.0
C8 C 0.07024 0.49713 0.11407 0.0
O9 O 0.07214 0.45541 0.1242 0.0
C10 C 0.10326 0.50842 0.06496 0.0
C11 C 0.06109 0.4432 1.02119 0.0
C12 C 0.06395 0.43586 0.99909 0.0
C13 C 0.05628 0.44843 0.98212 0.0
C14 C 0.04559 0.46731 0.98814 0.0
C15 C 0.0425 0.47574 1.00956 0.0
C16 C 0.0503 0.46356 1.02582 0.0
O17 O 0.09688 0.33198 0.08888 0.0
O18 O 0.08046 0.36846 0.09924 0.0
O19 O 0.11372 0.42991 0.1113 0.0
O20 O 0.09593 0.43982 0.10704 0.0
C21 C 0.10448 0.44844 0.11944 0.0
O22 O 0.09283 0.50611 0.07291 0.0
O23 O 0.10835 0.46599 0.06081 0.0
O24 O 0.06427 0.42674 0.05911 0.0
O25 O 0.07953 0.42624 0.03957 0.0
H26 H 0.07207 0.41993 0.99523 0.0
H27 H 0.03925 0.474 0.97605 0.0
H28 H 0.04783 0.46937 0.04228 0.0
O29 O 0.15324 0.99221 1.02598 0.0
Tb30 Tb 0.15578 0.95517 0.05628 0.0
Eu31 Eu 0.17501 0.89859 0.0752 0.0
C32 C 0.1599 1.02931 1.02092 0.0
O33 O 0.17053 1.02671 1.02673 0.0
C34 C 0.16997 1.01169 0.0911 0.0
O35 O 0.1829 0.83776 0.09509 0.0
C36 C 0.18697 0.91166 0.03985 0.0
C37 C 0.17871 0.82912 0.11423 0.0
O38 O 0.17117 0.86017 0.12181 0.0
C39 C 0.15204 0.83753 0.06163 0.0
C40 C 0.19436 0.89155 1.02173 0.0
C41 C 0.19209 0.90244 0.99967 0.0
C42 C 0.19992 0.88993 0.98304 0.0
C43 C 0.20999 0.8656 0.98922 0.0
C44 C 0.21269 0.85555 1.01072 0.0
C45 C 0.20474 0.86779 1.0267 0.0
O46 O 0.16688 1.01366 0.07074 0.0
O47 O 0.17248 0.96665 0.09819 0.0
O48 O 0.14103 0.99918 0.06362 0.0
O49 O 0.14848 0.95271 0.08754 0.0
C50 C 0.14109 0.98733 0.08378 0.0
O51 O 0.161 0.83911 0.0742 0.0
O52 O 0.14964 0.87753 0.04998 0.0
O53 O 0.19111 0.91107 0.05939 0.0
O54 O 0.17588 0.907 0.03975 0.0
H55 H 0.18446 0.92237 0.99561 0.0
H56 H 0.21592 0.8539 0.97709 0.0
H57 H 0.20691 0.86077 0.04323 0.0
O58 O 0.112 0.99449 0.25698 0.0
Tb59 Tb 0.10275 0.95431 0.23246 0.0
Eu60 Eu 0.07949 0.90188 0.22376 0.0
C61 C 0.10859 1.03877 0.26295 0.0
O62 O 0.09792 0.05042 0.26066 0.0
C63 C 0.08487 1.01498 0.20598 0.0
O64 O 0.07131 0.84314 0.20323 0.0
C65 C 0.06772 0.9129 0.25943 0.0
C66 C 0.07688 0.82868 0.18612 0.0
O67 O 0.08591 0.8537 0.18053 0.0
C68 C 0.10301 0.83434 0.2312 0.0
C69 C 0.06045 0.8928 0.27774 0.0
C70 C 0.06328 0.89964 0.29988 0.0
C71 C 0.05555 0.88698 0.31671 0.0
C72 C 0.0448 0.86931 0.31054 0.0
C73 C 0.04174 0.86175 0.28904 0.0
C74 C 0.04968 0.87279 0.27294 0.0
O75 O 0.09077 1.01532 0.22399 0.0
O76 O 0.08035 0.97145 0.20079 0.0
O77 O 0.11676 0.98833 0.21652 0.0
O78 O 0.10422 0.95072 0.19811 0.0
C79 C 0.11287 0.98034 0.19744 0.0
O80 O 0.09251 0.83692 0.2239 0.0
O81 O 0.10788 0.87541 0.23848 0.0
O82 O 0.06347 0.91177 0.24 0.0
O83 O 0.07884 0.90969 0.25931 0.0
H84 H 0.07141 0.91518 0.3039 0.0
H85 H 0.03854 0.8616 0.32265 0.0
H86 H 0.04718 0.86802 0.25643 0.0
O87 O 0.16325 0.35593 0.24693 0.0
Tb88 Tb 0.14718 0.3711 0.23169 0.0
Eu89 Eu 0.17181 0.4263 0.22517 0.0
C90 C 0.16586 0.31369 0.25636 0.0
O91 O 0.17574 0.30912 0.2656 0.0
C92 C 0.1623 0.32567 0.19511 0.0
O93 O 0.17951 0.48209 0.20245 0.0
C94 C 0.18434 0.42189 0.26044 0.0
C95 C 0.17353 0.49636 0.18579 0.0
O96 O 0.16404 0.47306 0.18176 0.0
C97 C 0.14767 0.49269 0.22649 0.0
C98 C 0.19196 0.4418 0.27814 0.0
C99 C 0.18943 0.43322 0.30022 0.0
C100 C 0.19689 0.44865 0.31686 0.0
C101 C 0.20703 0.47215 0.31093 0.0
C102 C 0.21003 0.47992 0.28932 0.0
C103 C 0.20238 0.46482 0.27316 0.0
O104 O 0.15177 0.3358 0.20097 0.0
O105 O 0.17084 0.3516 0.20408 0.0
O106 O 0.13701 0.30474 0.23634 0.0
O107 O 0.13705 0.36579 0.2604 0.0
C108 C 0.13715 0.35302 0.23985 0.0
O109 O 0.15888 0.49157 0.22695 0.0
O110 O 0.14187 0.45062 0.2261 0.0
O111 O 0.18825 0.41766 0.24083 0.0
O112 O 0.1734 0.4296 0.26074 0.0
H113 H 0.1817 0.41432 0.30445 0.0
H114 H 0.21289 0.4827 0.32341 0.0
H115 H 0.20459 0.4708 0.25657 0.0
O116 O 0.91158 0.72371 0.99957 0.0
Tb117 Tb 0.89807 0.70248 0.97814 0.0
Eu118 Eu 0.92303 0.65403 0.97482 0.0
C119 C 0.91147 0.76059 1.0134 0.0
O120 O 0.92007 0.76517 1.02647 0.0
C121 C 0.91367 0.75402 0.94396 0.0
O122 O 0.93035 0.59814 0.95171 0.0
C123 C 0.93646 0.66017 1.0088 0.0
C124 C 0.92437 0.58487 0.93494 0.0
O125 O 0.91493 0.60869 0.93102 0.0
C126 C 0.89941 0.58335 0.97584 0.0
C127 C 0.944 0.641 1.02686 0.0
C128 C 0.94115 0.6492 0.04882 0.0
C129 C 0.94861 0.63568 0.06576 0.0
C130 C 0.95912 0.61485 0.06032 0.0
C131 C 0.96245 0.60757 0.03887 0.0
C132 C 0.95474 0.62003 1.02236 0.0
O133 O 0.90315 0.74222 0.94892 0.0
O134 O 0.92218 0.7288 0.9535 0.0
O135 O 0.88476 0.70316 1.00239 0.0
O136 O 0.88337 0.75058 0.97594 0.0
C137 C 0.87823 0.73524 0.99308 0.0
O138 O 0.91053 0.5868 0.97868 0.0
O139 O 0.89349 0.62406 0.97224 0.0
O140 O 0.93998 0.65879 0.98886 0.0
O141 O 0.92542 0.65759 1.0101 0.0
H142 H 0.93317 0.66647 0.05273 0.0
H143 H 0.96487 0.60477 0.07306 0.0
H144 H 0.95731 0.61518 1.00589 0.0
O145 O 0.85973 0.08416 1.0155 0.0
Tb146 Tb 0.85247 0.12637 0.98924 0.0
Eu147 Eu 0.83 0.18114 0.97696 0.0
C148 C 0.8555 1.04068 1.02066 0.0
O149 O 0.84482 1.03211 1.01664 0.0
C150 C 0.83548 0.06826 0.95901 0.0
O151 O 0.82185 0.24062 0.95663 0.0
C152 C 0.81853 0.17095 1.01305 0.0
C153 C 0.82732 0.255 0.93938 0.0
O154 O 0.83631 0.22985 0.93358 0.0
C155 C 0.85362 0.24555 0.98579 0.0
C156 C 0.81173 0.19117 0.03199 0.0
C157 C 0.81491 0.18208 0.05374 0.0
C158 C 0.80774 0.19561 0.07118 0.0
C159 C 0.7973 0.21815 0.06647 0.0
C160 C 0.79375 0.2272 0.04527 0.0
C161 C 0.80107 0.21377 0.02832 0.0
O162 O 0.84107 0.06632 0.97736 0.0
O163 O 0.83094 0.1119 0.95402 0.0
O164 O 0.86737 0.09177 0.9765 0.0
O165 O 0.85611 0.13094 0.95568 0.0
C166 C 0.86478 0.10139 0.95677 0.0
O167 O 0.84364 0.24308 0.97629 0.0
O168 O 0.85759 0.20525 0.99554 0.0
O169 O 0.81404 0.17373 0.99383 0.0
O170 O 0.82967 0.17218 1.01243 0.0
H171 H 0.8228 0.16342 0.05708 0.0
H172 H 0.79171 0.22735 0.07958 0.0
H173 H 0.79833 0.22041 1.01206 0.0
O174 O 0.90207 0.08976 0.7759 0.0
Tb175 Tb 0.90591 0.1292 0.80508 0.0
Eu176 Eu 0.92528 0.18293 0.82361 0.0
C177 C 0.90885 0.05385 0.76988 0.0
O178 O 0.91959 0.05752 0.77473 0.0
C179 C 0.92006 0.06945 0.83935 0.0
O180 O 0.93312 0.24334 0.84377 0.0
C181 C 0.93705 0.17088 0.78797 0.0
C182 C 0.9284 0.25307 0.86236 0.0
O183 O 0.92045 0.22314 0.86921 0.0
C184 C 0.90248 0.24601 0.81056 0.0
C185 C 0.94439 0.19058 0.76967 0.0
C186 C 0.94186 0.18059 0.74763 0.0
C187 C 0.94968 0.19224 0.73085 0.0
C188 C 0.95997 0.21477 0.73679 0.0
C189 C 0.96287 0.22434 0.75824 0.0
C190 C 0.95494 0.21287 0.77439 0.0
O191 O 0.91651 0.06807 0.81923 0.0
O192 O 0.92301 0.11407 0.84631 0.0
O193 O 0.89091 0.09091 0.8155 0.0
O194 O 0.89993 0.13811 0.83705 0.0
C195 C 0.89193 0.10547 0.83523 0.0
O196 O 0.9113 0.24278 0.82343 0.0
O197 O 0.90018 0.20715 0.7982 0.0
O198 O 0.94131 0.17126 0.80743 0.0
O199 O 0.92597 0.17551 0.78809 0.0
H200 H 0.93407 0.16193 0.74366 0.0
H201 H 0.96589 0.22537 0.72446 0.0
H202 H 0.95728 0.21929 0.79089 0.0
O203 O 0.87016 0.72892 0.82636 0.0
Tb204 Tb 0.85612 0.684 0.83717 0.0
Eu205 Eu 0.83096 0.64657 0.82849 0.0
C206 C 0.87129 0.7366 0.8057 0.0
O207 O 0.86456 0.71295 0.79254 0.0
C208 C 0.83759 0.75584 0.85285 0.0
O209 O 0.82261 0.58326 0.84602 0.0
C210 C 0.81901 0.66024 0.79312 0.0
C211 C 0.81951 0.58529 0.86614 0.0
O212 O 0.8196 0.62802 0.87609 0.0
C213 C 0.8543 0.57653 0.81988 0.0
C214 C 0.81184 0.63967 0.77474 0.0
C215 C 0.81432 0.64975 0.75267 0.0
C216 C 0.80662 0.63673 0.73587 0.0
C217 C 0.79651 0.6127 0.74187 0.0
C218 C 0.79356 0.60374 0.76332 0.0
C219 C 0.80138 0.61642 0.77947 0.0
O220 O 0.84658 0.75378 0.84043 0.0
O221 O 0.83083 0.71582 0.85275 0.0
O222 O 0.86384 0.66964 0.86803 0.0
O223 O 0.84663 0.64916 0.86283 0.0
C224 C 0.85479 0.65048 0.87667 0.0
O225 O 0.84358 0.57866 0.82639 0.0
O226 O 0.85975 0.6187 0.81726 0.0
O227 O 0.81485 0.65722 0.81257 0.0
O228 O 0.83015 0.65824 0.79313 0.0
H229 H 0.82199 0.6694 0.74872 0.0
H230 H 0.79071 0.60049 0.7296 0.0
H231 H 0.79901 0.61021 0.79597 0.0
O232 O 0.09748 0.86273 0.54429 0.0
Tb233 Tb 0.1088 0.88357 0.57 0.0
Eu234 Eu 0.08378 0.93023 0.56933 0.0
C235 C 0.09895 0.82479 0.53116 0.0
O236 O 0.09184 0.81966 0.51524 0.0
C237 C 0.0915 0.82558 0.59857 0.0
O238 O 0.07904 0.98904 0.59408 0.0
C239 C 0.06935 0.93636 0.53725 0.0
C240 C 0.08553 0.99949 0.61064 0.0
O241 O 0.0942 0.97059 0.61464 0.0
C242 C 0.10708 0.99825 0.5722 0.0
C243 C 0.06058 0.9409 0.51941 0.0
C244 C 0.06312 0.93315 0.49723 0.0
C245 C 0.05482 0.94082 0.48081 0.0
C246 C 0.04386 0.95502 0.48751 0.0
C247 C 0.04115 0.96463 0.50906 0.0
C248 C 0.04957 0.95734 0.52471 0.0
O249 O 0.10219 0.83792 0.59592 0.0
O250 O 0.0834 0.85266 0.58868 0.0
O251 O 0.12382 0.83853 0.57358 0.0
O252 O 0.12322 0.89063 0.54848 0.0
C253 C 0.12947 0.85739 0.5577 0.0
O254 O 0.0973 0.99156 0.56227 0.0
O255 O 0.11166 0.95962 0.58166 0.0
O256 O 0.0667 0.94402 0.55742 0.0
O257 O 0.07989 0.9222 0.53454 0.0
H258 H 0.07159 0.92254 0.4928 0.0
H259 H 0.03724 0.95952 0.47579 0.0
H260 H 0.04749 0.96457 0.54127 0.0
O261 O 0.14956 0.49581 0.54767 0.0
Tb262 Tb 0.14773 0.45971 0.57866 0.0
Eu263 Eu 0.17437 0.40793 0.57185 0.0
C264 C 0.15397 0.54067 0.54709 0.0
O265 O 0.16237 0.55013 0.56011 0.0
C266 C 0.16864 0.5086 0.60397 0.0
O267 O 0.18089 0.34826 0.59453 0.0
C268 C 0.18759 0.41322 0.53774 0.0
C269 C 0.17436 0.33213 0.61014 0.0
O270 O 0.16478 0.35528 0.61363 0.0
C271 C 0.14992 0.34045 0.57146 0.0
C272 C 0.19475 0.39297 0.5193 0.0
C273 C 0.19226 0.40286 0.49723 0.0
C274 C 0.19988 0.38902 0.48041 0.0
C275 C 0.20992 0.36403 0.48642 0.0
C276 C 0.21286 0.35527 0.50792 0.0
C277 C 0.20518 0.36959 0.52405 0.0
O278 O 0.15778 0.49912 0.60275 0.0
O279 O 0.17604 0.48149 0.59266 0.0
O280 O 0.13414 0.51337 0.57434 0.0
O281 O 0.13332 0.46442 0.60011 0.0
C282 C 0.12846 0.5025 0.59131 0.0
O283 O 0.161 0.34439 0.56789 0.0
O284 O 0.14373 0.37997 0.576 0.0
O285 O 0.19104 0.40531 0.55744 0.0
O286 O 0.17654 0.419 0.53664 0.0
H287 H 0.18464 0.4229 0.49328 0.0
H288 H 0.21575 0.35202 0.47419 0.0
H289 H 0.20749 0.36298 0.54055 0.0
O290 O 0.10053 0.44805 0.75065 0.0
Tb291 Tb 0.10839 0.44844 0.71898 0.0
Eu292 Eu 0.08268 0.40337 0.72852 0.0
C293 C 0.10023 0.48345 0.76533 0.0
O294 O 0.09602 0.47233 0.78414 0.0
C295 C 0.08852 0.50081 0.69435 0.0
O296 O 0.07773 0.34069 0.70589 0.0
C297 C 0.06845 0.40714 0.76121 0.0
C298 C 0.08386 0.33051 0.68882 0.0
O299 O 0.09193 0.36142 0.68349 0.0
C300 C 0.10639 0.33393 0.72547 0.0
C301 C 0.061 0.38883 0.77959 0.0
C302 C 0.06381 0.39606 0.80171 0.0
C303 C 0.05605 0.38408 0.81859 0.0
C304 C 0.04532 0.36588 0.81241 0.0
C305 C 0.04231 0.35755 0.79093 0.0
C306 C 0.0502 0.36925 0.77479 0.0
O307 O 0.09893 0.48455 0.69329 0.0
O308 O 0.08142 0.47941 0.70843 0.0
O309 O 0.12009 0.50738 0.72798 0.0
O310 O 0.12579 0.45217 0.70745 0.0
C311 C 0.12856 0.49394 0.71629 0.0
O312 O 0.09677 0.34371 0.73584 0.0
O313 O 0.11122 0.36903 0.71406 0.0
O314 O 0.06557 0.39749 0.74131 0.0
O315 O 0.07935 0.41468 0.76325 0.0
H316 H 0.07197 0.41132 0.80567 0.0
H317 H 0.03892 0.35964 0.8244 0.0
H318 H 0.0478 0.36365 0.75827 0.0
O319 O 0.13711 0.84022 0.7243 0.0
Tb320 Tb 0.15056 0.89146 0.71557 0.0
Eu321 Eu 0.17642 0.93617 0.72599 0.0
C322 C 0.13898 0.81083 0.74074 0.0
O323 O 0.14827 0.81683 0.75186 0.0
C324 C 0.17079 0.82504 0.70369 0.0
O325 O 0.18345 1.0031 0.70832 0.0
C326 C 0.18818 0.92498 0.76164 0.0
C327 C 0.18473 1.00411 0.68744 0.0
O328 O 0.18413 0.96238 0.67686 0.0
C329 C 0.15181 0.99995 0.73182 0.0
C330 C 0.195 0.94501 0.78054 0.0
C331 C 0.19193 0.93612 0.80237 0.0
C332 C 0.19907 0.9509 0.81968 0.0
C333 C 0.20946 0.97367 0.8147 0.0
C334 C 0.213 0.98116 0.79341 0.0
C335 C 0.20564 0.96735 0.77666 0.0
O336 O 0.16182 0.827 0.71606 0.0
O337 O 0.17728 0.86568 0.70289 0.0
O338 O 0.14341 0.90359 0.68395 0.0
O339 O 0.16047 0.92496 0.69024 0.0
C340 C 0.15257 0.92305 0.67592 0.0
O341 O 0.1628 0.99952 0.72723 0.0
O342 O 0.1464 0.95752 0.73424 0.0
O343 O 0.1925 0.93 0.74236 0.0
O344 O 0.17703 0.92451 0.76133 0.0
H345 H 0.18407 0.9174 0.80587 0.0
H346 H 0.21508 0.98367 0.82764 0.0
H347 H 0.20836 0.97336 0.76035 0.0
O348 O 0.89904 0.23357 0.49833 0.0
Tb349 Tb 0.89649 0.19966 0.46718 0.0
Eu350 Eu 0.92276 0.14918 0.47514 0.0
C351 C 0.9039 0.27744 0.49914 0.0
O352 O 0.91267 0.28506 0.48682 0.0
C353 C 0.91684 0.2463 0.44208 0.0
O354 O 0.92924 0.09355 0.45058 0.0
C355 C 0.93574 0.14384 0.50936 0.0
C356 C 0.92237 0.07475 0.43608 0.0
O357 O 0.91225 0.09398 0.43405 0.0
C358 C 0.89826 0.08188 0.47583 0.0
C359 C 0.94391 0.13877 0.52825 0.0
C360 C 0.94084 0.1489 0.54997 0.0
C361 C 0.94846 0.13923 0.56725 0.0
C362 C 0.95916 0.11933 0.56238 0.0
C363 C 0.96255 0.10927 0.54119 0.0
C364 C 0.95486 0.11942 0.52443 0.0
O365 O 0.90667 0.22739 0.44041 0.0
O366 O 0.92401 0.22617 0.45632 0.0
O367 O 0.88509 0.26299 0.46642 0.0
O368 O 0.88024 0.19779 0.45108 0.0
C369 C 0.87737 0.24359 0.45447 0.0
O370 O 0.90936 0.08581 0.47881 0.0
O371 O 0.89205 0.12118 0.47127 0.0
O372 O 0.93913 0.13463 0.48973 0.0
O373 O 0.92518 0.15914 0.51042 0.0
H374 H 0.93252 0.16325 0.55347 0.0
H375 H 0.96499 0.11217 0.57536 0.0
H376 H 0.95734 0.11058 0.50822 0.0
O377 O 0.84836 0.60315 0.50562 0.0
Tb378 Tb 0.85933 0.62647 0.47985 0.0
Eu379 Eu 0.83371 0.66728 0.48204 0.0
C380 C 0.85009 0.56426 0.51806 0.0
O381 O 0.84324 0.55735 0.53427 0.0
C382 C 0.84269 0.56866 0.45035 0.0
O383 O 0.82775 0.72774 0.4592 0.0
C384 C 0.81964 0.65994 0.51492 0.0
C385 C 0.83328 0.73709 0.44133 0.0
O386 O 0.84141 0.70681 0.43562 0.0
C387 C 0.85609 0.7399 0.47808 0.0
C388 C 0.81247 0.68092 0.53314 0.0
C389 C 0.81534 0.67345 0.55515 0.0
C390 C 0.80808 0.68948 0.57203 0.0
C391 C 0.79779 0.71235 0.56646 0.0
C392 C 0.79442 0.71867 0.54496 0.0
C393 C 0.80188 0.70313 0.52857 0.0
O394 O 0.85324 0.58258 0.4532 0.0
O395 O 0.83435 0.59266 0.46087 0.0
O396 O 0.87411 0.63899 0.49992 0.0
O397 O 0.87472 0.58372 0.47619 0.0
C398 C 0.88053 0.60595 0.491 0.0
O399 O 0.84667 0.73099 0.48894 0.0
O400 O 0.8608 0.70269 0.46792 0.0
O401 O 0.81653 0.66745 0.49496 0.0
O402 O 0.83065 0.65557 0.51675 0.0
H403 H 0.82316 0.65488 0.55916 0.0
H404 H 0.7921 0.72344 0.57913 0.0
H405 H 0.79932 0.70791 0.51209 0.0
O406 O 0.88444 0.60347 0.32273 0.0
Tb407 Tb 0.89969 0.64374 0.33067 0.0
Eu408 Eu 0.92576 0.67894 0.32188 0.0
C409 C 0.88132 0.59781 0.30267 0.0
O410 O 0.88698 0.62072 0.28758 0.0
C411 C 0.91813 0.56905 0.34418 0.0
O412 O 0.93281 0.74656 0.33893 0.0
C413 C 0.93757 0.66652 0.28642 0.0
C414 C 0.93567 0.74847 0.35923 0.0
O415 O 0.93697 0.70699 0.36987 0.0
C416 C 0.90269 0.74914 0.31363 0.0
C417 C 0.94464 0.6877 0.26808 0.0
C418 C 0.94222 0.67761 0.24601 0.0
C419 C 0.94982 0.69188 0.22924 0.0
C420 C 0.95974 0.7175 0.23526 0.0
C421 C 0.96258 0.72669 0.25675 0.0
C422 C 0.95493 0.71204 0.27286 0.0
O423 O 0.90908 0.57359 0.33201 0.0
O424 O 0.92524 0.60784 0.34488 0.0
O425 O 0.89247 0.66171 0.36171 0.0
O426 O 0.90982 0.67729 0.35581 0.0
C427 C 0.90177 0.67938 0.36984 0.0
O428 O 0.91323 0.74609 0.32078 0.0
O429 O 0.89719 0.70777 0.30979 0.0
O430 O 0.94184 0.66897 0.30586 0.0
O431 O 0.92642 0.66864 0.28652 0.0
H432 H 0.93469 0.65699 0.24203 0.0
H433 H 0.96557 0.72957 0.22303 0.0
H434 H 0.95716 0.71907 0.28936 0.0
O435 O 0.85206 0.23935 0.28563 0.0
Tb436 Tb 0.85778 0.20028 0.314 0.0
Eu437 Eu 0.83373 0.14374 0.32662 0.0
C438 C 0.84454 0.275 0.28742 0.0
O439 O 0.83655 0.27007 0.30178 0.0
C440 C 0.84103 0.25166 0.35005 0.0
O441 O 0.82766 0.08307 0.3493 0.0
C442 C 0.82095 0.14161 0.29216 0.0
C443 C 0.83384 0.07068 0.36605 0.0
O444 O 0.84254 0.09868 0.37085 0.0
C445 C 0.85723 0.08197 0.31552 0.0
C446 C 0.81266 0.13811 0.27341 0.0
C447 C 0.81542 0.14912 0.25156 0.0
C448 C 0.80718 0.14465 0.23482 0.0
C449 C 0.79629 0.12784 0.24052 0.0
C450 C 0.79331 0.11622 0.26174 0.0
C451 C 0.80155 0.12167 0.27784 0.0
O452 O 0.85056 0.24991 0.33905 0.0
O453 O 0.83329 0.21608 0.3476 0.0
O454 O 0.87262 0.243 0.30475 0.0
O455 O 0.87343 0.19809 0.33199 0.0
C456 C 0.87897 0.23069 0.32085 0.0
O457 O 0.84783 0.08454 0.32677 0.0
O458 O 0.8609 0.12174 0.30535 0.0
O459 O 0.81741 0.13316 0.31179 0.0
O460 O 0.83175 0.15343 0.29111 0.0
H461 H 0.82384 0.16163 0.24766 0.0
H462 H 0.79006 0.12237 0.22808 0.0
H463 H 0.79919 0.11322 0.29415 0.0
O464 O 0.62002 0.36373 0.57582 0.0
Tb465 Tb 0.6059 0.40785 0.58606 0.0
Eu466 Eu 0.58097 0.44211 0.57783 0.0
C467 C 0.62014 0.35138 0.55554 0.0
O468 O 0.61283 0.37263 0.54269 0.0
C469 C 0.58792 0.33321 0.60175 0.0
O470 O 0.57495 0.50637 0.59792 0.0
C471 C 0.56825 0.43213 0.5433 0.0
C472 C 0.56982 0.50318 0.61647 0.0
O473 O 0.5662 0.46009 0.62336 0.0
C474 C 0.60383 0.51111 0.5672 0.0
C475 C 0.56114 0.45213 0.52468 0.0
C476 C 0.56368 0.44175 0.50268 0.0
C477 C 0.55602 0.45453 0.48576 0.0
C478 C 0.54589 0.47884 0.4915 0.0
C479 C 0.543 0.48906 0.51292 0.0
C480 C 0.55071 0.47577 0.52919 0.0
O481 O 0.59711 0.33677 0.59001 0.0
O482 O 0.58085 0.3721 0.60145 0.0
O483 O 0.61396 0.42915 0.61582 0.0
O484 O 0.59644 0.4451 0.6111 0.0
C485 C 0.6049 0.44881 0.62422 0.0
O486 O 0.59343 0.50963 0.57514 0.0
O487 O 0.60894 0.4687 0.56379 0.0
O488 O 0.56442 0.43822 0.56292 0.0
O489 O 0.57938 0.42993 0.54266 0.0
H490 H 0.57137 0.42201 0.49883 0.0
H491 H 0.53998 0.4891 0.47908 0.0
H492 H 0.54844 0.48332 0.54562 0.0
O493 O 0.6403 0.98396 0.56867 0.0
Tb494 Tb 0.65296 0.93793 0.58317 0.0
Eu495 Eu 0.67713 0.89507 0.58098 0.0
C496 C 0.6428 1.0014 0.54968 0.0
O497 O 0.65155 0.98259 0.53968 0.0
C498 C 0.67084 1.00606 0.60285 0.0
O499 O 0.68401 0.83186 0.60107 0.0
C500 C 0.68977 0.90807 0.5465 0.0
C501 C 0.68193 0.82908 0.62174 0.0
O502 O 0.67776 0.86801 0.63152 0.0
C503 C 0.65403 0.83137 0.56698 0.0
C504 C 0.69669 0.88911 0.52747 0.0
C505 C 0.69365 0.89921 0.50569 0.0
C506 C 0.70088 0.88581 0.48829 0.0
C507 C 0.71134 0.86351 0.49315 0.0
C508 C 0.71483 0.85448 0.51438 0.0
C509 C 0.70734 0.86659 0.53122 0.0
O510 O 0.66278 1.0057 0.58848 0.0
O511 O 0.67673 0.96394 0.6051 0.0
O512 O 0.64293 0.92462 0.61159 0.0
O513 O 0.65903 0.89017 0.60863 0.0
C514 C 0.65015 0.89444 0.62057 0.0
O515 O 0.66406 0.83051 0.57652 0.0
O516 O 0.64978 0.875 0.56189 0.0
O517 O 0.69365 0.90009 0.56594 0.0
O518 O 0.67864 0.91069 0.54608 0.0
H519 H 0.68575 0.91771 0.5023 0.0
H520 H 0.71693 0.85365 0.48013 0.0
H521 H 0.7101 0.86042 0.5475 0.0
O522 O 0.6211 0.9871 0.70756 0.0
Tb523 Tb 0.60598 0.94246 0.70908 0.0
Eu524 Eu 0.58199 0.90582 0.72778 0.0
C525 C 0.62585 0.99914 0.72579 0.0
O526 O 0.62263 0.97586 0.74319 0.0
C527 C 0.58754 1.01723 0.70442 0.0
O528 O 0.5745 0.84503 0.70715 0.0
C529 C 0.56952 0.91352 0.76286 0.0
C530 C 0.57353 0.79989 0.71503 0.0
O531 O 0.57545 0.79291 0.7355 0.0
C532 C 0.60692 0.83953 0.73119 0.0
C533 C 0.56241 0.89244 0.78125 0.0
C534 C 0.56508 0.90016 0.80344 0.0
C535 C 0.55739 0.88649 0.82022 0.0
C536 C 0.5468 0.86715 0.81391 0.0
C537 C 0.54392 0.85851 0.79241 0.0
C538 C 0.55185 0.87038 0.77639 0.0
O539 O 0.59707 1.01151 0.71457 0.0
O540 O 0.5806 0.97792 0.70495 0.0
O541 O 0.60676 0.9276 0.67494 0.0
O542 O 0.59372 0.89521 0.69308 0.0
C543 C 0.59818 0.89736 0.67417 0.0
O544 O 0.59562 0.84128 0.73077 0.0
O545 O 0.61268 0.88088 0.72811 0.0
O546 O 0.56562 0.9087 0.74329 0.0
O547 O 0.58064 0.91579 0.76324 0.0
H548 H 0.57305 0.91711 0.80754 0.0
H549 H 0.54051 0.85892 0.8259 0.0
H550 H 0.54946 0.8647 0.75987 0.0
O551 O 0.65968 0.36894 0.75621 0.0
Tb552 Tb 0.64832 0.38737 0.73038 0.0
Eu553 Eu 0.6738 0.42518 0.73471 0.0
C554 C 0.66189 0.32332 0.76237 0.0
O555 O 0.66951 0.31583 0.77724 0.0
C556 C 0.66508 0.32551 0.70237 0.0
O557 O 0.68036 0.48405 0.71208 0.0
C558 C 0.68781 0.41807 0.76785 0.0
C559 C 0.67464 0.4956 0.69473 0.0
O560 O 0.66599 0.46795 0.68938 0.0
C561 C 0.65153 0.50011 0.72979 0.0
C562 C 0.69546 0.43779 0.78567 0.0
C563 C 0.69273 0.43221 0.80792 0.0
C564 C 0.70053 0.44528 0.82455 0.0
C565 C 0.71122 0.4631 0.81801 0.0
C566 C 0.71417 0.46999 0.79639 0.0
C567 C 0.70625 0.45698 0.78046 0.0
O568 O 0.65444 0.33848 0.70517 0.0
O569 O 0.67327 0.35066 0.71299 0.0
O570 O 0.63414 0.40086 0.75182 0.0
O571 O 0.63234 0.34816 0.72733 0.0
C572 C 0.62706 0.37078 0.74278 0.0
O573 O 0.66078 0.48991 0.74111 0.0
O574 O 0.64709 0.46379 0.71862 0.0
O575 O 0.69096 0.42223 0.74775 0.0
O576 O 0.67679 0.4176 0.76978 0.0
H577 H 0.68457 0.41726 0.81217 0.0
H578 H 0.71765 0.47023 0.82985 0.0
H579 H 0.70859 0.4614 0.76384 0.0
O580 O 0.40861 0.71615 0.50529 0.0
Tb581 Tb 0.39635 0.69778 0.48081 0.0
Eu582 Eu 0.42124 0.65469 0.48336 0.0
C583 C 0.41218 0.76122 0.50996 0.0
O584 O 0.42049 0.7661 0.52366 0.0
C585 C 0.41311 0.75621 0.45176 0.0
O586 O 0.42704 0.5974 0.45922 0.0
C587 C 0.4356 0.65081 0.51578 0.0
C588 C 0.42066 0.58434 0.44293 0.0
O589 O 0.41149 0.60998 0.4389 0.0
C590 C 0.39822 0.58353 0.47956 0.0
C591 C 0.44428 0.64771 0.53387 0.0
C592 C 0.44159 0.65685 0.55589 0.0
C593 C 0.44991 0.65214 0.57238 0.0
C594 C 0.46087 0.63709 0.56638 0.0
C595 C 0.46378 0.62646 0.54499 0.0
C596 C 0.45542 0.63224 0.52901 0.0
O597 O 0.40246 0.74349 0.4545 0.0
O598 O 0.42123 0.73094 0.4626 0.0
O599 O 0.38087 0.74091 0.4786 0.0
O600 O 0.38228 0.68721 0.50284 0.0
C601 C 0.37548 0.71915 0.49414 0.0
O602 O 0.40793 0.59121 0.48974 0.0
O603 O 0.39376 0.62148 0.46941 0.0
O604 O 0.43847 0.64579 0.49557 0.0
O605 O 0.42483 0.66035 0.51843 0.0
H606 H 0.43311 0.66793 0.56015 0.0
H607 H 0.46716 0.63194 0.57875 0.0
H608 H 0.45764 0.62446 0.51257 0.0
O609 O 0.37001 0.09811 0.45982 0.0
Tb610 Tb 0.35421 0.13856 0.45942 0.0
Eu611 Eu 0.32951 0.17241 0.47678 0.0
C612 C 0.37397 0.08405 0.4785 0.0
O613 O 0.36924 0.10195 0.49583 0.0
C614 C 0.33586 0.06326 0.45209 0.0
O615 O 0.32077 0.23301 0.45806 0.0
C616 C 0.31745 0.16034 0.51218 0.0
C617 C 0.31867 0.23036 0.43745 0.0
O618 O 0.32042 0.18853 0.42728 0.0
C619 C 0.35375 0.24264 0.48083 0.0
C620 C 0.31025 0.18117 0.53052 0.0
C621 C 0.3127 0.17164 0.55266 0.0
C622 C 0.30494 0.18475 0.56937 0.0
C623 C 0.29477 0.2082 0.56318 0.0
C624 C 0.29187 0.21686 0.54166 0.0
C625 C 0.29976 0.20412 0.52564 0.0
O626 O 0.34534 0.06844 0.46257 0.0
O627 O 0.32874 0.10198 0.45305 0.0
O628 O 0.35598 0.15371 0.42545 0.0
O629 O 0.34258 0.18688 0.44238 0.0
C630 C 0.34751 0.18439 0.42391 0.0
O631 O 0.34245 0.23983 0.47948 0.0
O632 O 0.35976 0.20146 0.47897 0.0
O633 O 0.31335 0.16365 0.49271 0.0
O634 O 0.32858 0.16139 0.51223 0.0
H635 H 0.32041 0.15234 0.55677 0.0
H636 H 0.2889 0.22029 0.57536 0.0
H637 H 0.29742 0.21004 0.50911 0.0
O638 O 0.38849 0.10324 0.31677 0.0
Tb639 Tb 0.40195 0.14479 0.33113 0.0
Eu640 Eu 0.42605 0.18593 0.32895 0.0
C641 C 0.38987 0.0904 0.29671 0.0
O642 O 0.39835 0.10968 0.28608 0.0
C643 C 0.41938 0.07476 0.35068 0.0
O644 O 0.43268 0.24953 0.34905 0.0
C645 C 0.43882 0.17365 0.29455 0.0
C646 C 0.43078 0.25212 0.36978 0.0
O647 O 0.42723 0.21241 0.37986 0.0
C648 C 0.4032 0.25201 0.31531 0.0
C649 C 0.44595 0.19433 0.27611 0.0
C650 C 0.44356 0.18416 0.254 0.0
C651 C 0.45119 0.1983 0.23721 0.0
C652 C 0.46112 0.22382 0.2433 0.0
C653 C 0.46394 0.23311 0.26482 0.0
C654 C 0.45626 0.21857 0.2809 0.0
O655 O 0.41141 0.07584 0.33612 0.0
O656 O 0.42539 0.11653 0.353 0.0
O657 O 0.39257 0.1574 0.36037 0.0
O658 O 0.40855 0.19195 0.35624 0.0
C659 C 0.39998 0.18724 0.36891 0.0
O660 O 0.4133 0.25191 0.32458 0.0
O661 O 0.39874 0.20879 0.31033 0.0
O662 O 0.44261 0.17936 0.31421 0.0
O663 O 0.42769 0.17249 0.29388 0.0
H664 H 0.43602 0.16368 0.25 0.0
H665 H 0.46697 0.23587 0.23111 0.0
H666 H 0.45846 0.22568 0.29741 0.0
O667 O 0.36731 0.73165 0.31778 0.0
Tb668 Tb 0.35462 0.68341 0.33076 0.0
Eu669 Eu 0.32954 0.63708 0.32698 0.0
C670 C 0.36592 0.74531 0.29781 0.0
O671 O 0.35791 0.72404 0.2866 0.0
C672 C 0.33546 0.7515 0.34706 0.0
O673 O 0.32215 0.57988 0.35019 0.0
C674 C 0.3169 0.63743 0.29224 0.0
C675 C 0.32868 0.55426 0.36337 0.0
O676 O 0.33948 0.56377 0.36396 0.0
C677 C 0.3535 0.57462 0.31561 0.0
C678 C 0.30882 0.63567 0.27312 0.0
C679 C 0.31205 0.64649 0.25152 0.0
C680 C 0.30413 0.6428 0.23425 0.0
C681 C 0.29305 0.6273 0.23904 0.0
C682 C 0.28963 0.61511 0.25999 0.0
C683 C 0.29757 0.61982 0.27672 0.0
O684 O 0.34405 0.75013 0.33361 0.0
O685 O 0.32902 0.71064 0.34844 0.0
O686 O 0.36334 0.67218 0.36108 0.0
O687 O 0.34595 0.65255 0.3578 0.0
C688 C 0.35446 0.65424 0.37077 0.0
O689 O 0.34312 0.57435 0.32359 0.0
O690 O 0.35828 0.61758 0.31135 0.0
O691 O 0.3133 0.62628 0.31154 0.0
O692 O 0.32756 0.65153 0.29182 0.0
H693 H 0.32061 0.65791 0.24817 0.0
H694 H 0.28708 0.62316 0.22605 0.0
H695 H 0.29491 0.61106 0.29283 0.0
O696 O 0.60213 0.88564 0.05483 0.0
Tb697 Tb 0.60894 0.89403 0.08707 0.0
Eu698 Eu 0.58385 0.92891 0.0738 0.0
C699 C 0.60122 0.84438 0.04351 0.0
O700 O 0.59681 0.84724 1.02431 0.0
C701 C 0.58992 0.83428 0.10897 0.0
O702 O 0.57863 0.98523 0.09899 0.0
C703 C 0.56957 0.93446 0.04143 0.0
C704 C 0.58495 0.99404 0.11591 0.0
O705 O 0.59356 0.96476 0.11976 0.0
C706 C 0.60626 1.0058 0.07729 0.0
C707 C 0.56087 0.93862 1.02338 0.0
C708 C 0.56362 0.93186 1.0012 0.0
C709 C 0.55549 0.94039 0.98453 0.0
C710 C 0.54452 0.95507 0.99099 0.0
C711 C 0.54159 0.96353 1.01252 0.0
C712 C 0.54978 0.95447 0.02846 0.0
O713 O 0.59941 0.85795 0.11257 0.0
O714 O 0.5834 0.8505 0.09265 0.0
O715 O 0.6214 0.83616 0.08211 0.0
O716 O 0.6262 0.89936 0.09875 0.0
C717 C 0.62956 0.85557 0.09305 0.0
O718 O 0.5972 0.9917 0.06618 0.0
O719 O 0.611 0.97402 0.09039 0.0
O720 O 0.56686 0.94321 0.06149 0.0
O721 O 0.58006 0.9193 0.03906 0.0
H722 H 0.57214 0.92142 0.99698 0.0
H723 H 0.53794 0.9595 0.97918 0.0
H724 H 0.54757 0.96151 0.04497 0.0
O725 O 0.63459 0.48755 0.08859 0.0
Tb726 Tb 0.65 0.44557 0.09275 0.0
Eu727 Eu 0.6755 0.4069 0.08109 0.0
C728 C 0.63142 0.50156 0.06933 0.0
O729 O 0.63653 0.48245 0.05263 0.0
C730 C 0.66884 0.51786 0.10402 0.0
O731 O 0.68317 0.34456 0.10081 0.0
C732 C 0.68809 0.41696 0.04627 0.0
C733 C 0.68345 0.34424 0.12188 0.0
O734 O 0.68081 0.3847 0.13238 0.0
C735 C 0.65126 0.34116 0.07295 0.0
C736 C 0.69541 0.39694 0.02794 0.0
C737 C 0.69261 0.40384 1.00577 0.0
C738 C 0.70037 0.39132 0.98895 0.0
C739 C 0.71114 0.37374 0.9952 0.0
C740 C 0.71418 0.36582 1.0167 0.0
C741 C 0.70619 0.3768 0.03278 0.0
O742 O 0.65964 0.5142 0.09243 0.0
O743 O 0.67578 0.47844 0.10404 0.0
O744 O 0.64514 0.42784 0.12545 0.0
O745 O 0.6604 0.39914 0.11311 0.0
C746 C 0.65382 0.39967 0.12966 0.0
O747 O 0.66223 0.34176 0.07794 0.0
O748 O 0.64578 0.38375 0.07156 0.0
O749 O 0.69194 0.41261 0.06591 0.0
O750 O 0.67695 0.41762 0.04571 0.0
H751 H 0.68447 0.41929 1.00172 0.0
H752 H 0.71745 0.36632 0.98316 0.0
H753 H 0.70867 0.37185 0.0493 0.0
O754 O 0.62368 0.48137 0.22737 0.0
Tb755 Tb 0.60868 0.43936 0.21939 0.0
Eu756 Eu 0.58375 0.3993 0.23048 0.0
C757 C 0.62665 0.4869 0.24753 0.0
O758 O 0.6213 0.46175 0.26235 0.0
C759 C 0.58936 0.51156 0.20691 0.0
O760 O 0.57866 0.34176 0.20565 0.0
C761 C 0.57055 0.39634 0.26442 0.0
C762 C 0.57627 0.29589 0.21141 0.0
O763 O 0.57527 0.28581 0.23187 0.0
C764 C 0.60795 0.33509 0.23939 0.0
C765 C 0.56233 0.39326 0.28331 0.0
C766 C 0.56539 0.40401 0.30501 0.0
C767 C 0.55753 0.39777 0.3222 0.0
C768 C 0.54658 0.38085 0.31725 0.0
C769 C 0.54324 0.36985 0.29611 0.0
C770 C 0.5512 0.37624 0.27947 0.0
O771 O 0.59926 0.5085 0.2163 0.0
O772 O 0.58225 0.47298 0.209 0.0
O773 O 0.61501 0.42154 0.18776 0.0
O774 O 0.59946 0.39051 0.19799 0.0
C775 C 0.60678 0.39172 0.18256 0.0
O776 O 0.59712 0.33502 0.23384 0.0
O777 O 0.61317 0.37808 0.24086 0.0
O778 O 0.56724 0.38586 0.24483 0.0
O779 O 0.58115 0.41116 0.26552 0.0
H780 H 0.57386 0.41645 0.30855 0.0
H781 H 0.54065 0.37532 0.33019 0.0
H782 H 0.54864 0.36793 0.26326 0.0
O783 O 0.65644 0.84268 0.27192 0.0
Tb784 Tb 0.65339 0.88642 0.24344 0.0
Eu785 Eu 0.67746 0.93647 0.23178 0.0
C786 C 0.66415 0.80769 0.27126 0.0
O787 O 0.67286 0.81421 0.25859 0.0
C788 C 0.66946 0.83082 0.20763 0.0
O789 O 0.68546 0.99683 0.21168 0.0
C790 C 0.68891 0.92539 0.26786 0.0
C791 C 0.68024 1.00889 0.19382 0.0
O792 O 0.67182 0.98081 0.18755 0.0
C793 C 0.65487 1.00367 0.24284 0.0
C794 C 0.69609 0.94618 0.28612 0.0
C795 C 0.69385 0.93552 0.30822 0.0
C796 C 0.7016 0.94914 0.32485 0.0
C797 C 0.71154 0.97446 0.3186 0.0
C798 C 0.71418 0.98423 0.29703 0.0
C799 C 0.70633 0.97053 0.28114 0.0
O800 O 0.66042 0.83207 0.22001 0.0
O801 O 0.67697 0.86754 0.2088 0.0
O802 O 0.637 0.85113 0.24726 0.0
O803 O 0.63967 0.90034 0.22158 0.0
C804 C 0.63247 0.86983 0.2301 0.0
O805 O 0.66402 0.99898 0.23095 0.0
O806 O 0.6513 0.96472 0.25371 0.0
O807 O 0.69331 0.92592 0.24853 0.0
O808 O 0.67781 0.92944 0.26739 0.0
H809 H 0.68632 0.91495 0.31232 0.0
H810 H 0.71752 0.98591 0.33066 0.0
H811 H 0.70838 0.97817 0.2646 0.0
O812 O 0.38642 0.23809 0.96709 0.0
Tb813 Tb 0.40083 0.18865 0.9651 0.0
Eu814 Eu 0.42696 0.15491 0.97928 0.0
C815 C 0.38274 0.25299 0.98581 0.0
O816 O 0.38677 0.23205 1.00316 0.0
C817 C 0.41973 0.26284 0.95506 0.0
O818 O 0.43549 0.09164 0.96205 0.0
C819 C 0.43822 0.16617 1.0156 0.0
C820 C 0.43855 0.09296 0.94189 0.0
O821 O 0.43844 0.13546 0.9317 0.0
C822 C 0.40334 0.08545 0.98462 0.0
C823 C 0.44507 0.14455 0.03426 0.0
C824 C 0.44231 0.15437 0.05619 0.0
C825 C 0.44952 0.13885 0.07333 0.0
C826 C 0.45972 0.1148 0.068 0.0
C827 C 0.46293 0.10574 0.04662 0.0
C828 C 0.45542 0.11979 0.03006 0.0
O829 O 0.41036 0.2579 0.96611 0.0
O830 O 0.42713 0.22519 0.9559 0.0
O831 O 0.39428 0.16451 0.93447 0.0
O832 O 0.41191 0.15798 0.94055 0.0
C833 C 0.40395 0.15041 0.92665 0.0
O834 O 0.41415 0.08822 0.9789 0.0
O835 O 0.39758 0.12691 0.98698 0.0
O836 O 0.44277 0.16452 0.99641 0.0
O837 O 0.42709 0.16398 1.0148 0.0
H838 H 0.43464 0.17435 0.0599 0.0
H839 H 0.46535 0.10356 0.08077 0.0
H840 H 0.45797 0.11341 1.01368 0.0
O841 O 0.34531 0.61835 1.00766 0.0
Tb842 Tb 0.35895 0.63366 0.98563 0.0
Eu843 Eu 0.33392 0.68479 0.98138 0.0
C844 C 0.34192 0.57359 1.0131 0.0
O845 O 0.33283 0.56896 1.02489 0.0
C846 C 0.34294 0.58168 0.95273 0.0
O847 O 0.32852 0.74231 0.95661 0.0
C848 C 0.31959 0.68988 1.01379 0.0
C849 C 0.33543 0.75631 0.94118 0.0
O850 O 0.34485 0.73148 0.93852 0.0
C851 C 0.35815 0.75073 0.98159 0.0
C852 C 0.31099 0.69351 0.03199 0.0
C853 C 0.31377 0.68404 0.05394 0.0
C854 C 0.30557 0.68934 0.0706 0.0
C855 C 0.29468 0.70582 0.06489 0.0
C856 C 0.29169 0.71674 0.04358 0.0
C857 C 0.29985 0.70957 1.02734 0.0
O858 O 0.35349 0.59412 0.95689 0.0
O859 O 0.33447 0.6071 0.96227 0.0
O860 O 0.37279 0.63435 1.00883 0.0
O861 O 0.37284 0.58086 0.9844 0.0
C862 C 0.3785 0.59798 1.00062 0.0
O863 O 0.34717 0.74835 0.98585 0.0
O864 O 0.36378 0.70982 0.97718 0.0
O865 O 0.31661 0.69222 0.99352 0.0
O866 O 0.33047 0.6832 1.01651 0.0
H867 H 0.32221 0.67208 0.05803 0.0
H868 H 0.28842 0.71041 0.07734 0.0
H869 H 0.29759 0.71825 1.01099 0.0
O870 O 0.38666 0.59124 0.84656 0.0
Tb871 Tb 0.4002 0.64446 0.84883 0.0
Eu872 Eu 0.42545 0.68757 0.82956 0.0
C873 C 0.38311 0.57817 0.82752 0.0
O874 O 0.38684 0.6025 0.81077 0.0
C875 C 0.42002 0.57458 0.85101 0.0
O876 O 0.43232 0.74625 0.85249 0.0
C877 C 0.43806 0.68999 0.79477 0.0
C878 C 0.42553 0.7719 0.86509 0.0
O879 O 0.41487 0.75949 0.86615 0.0
C880 C 0.4002 0.75005 0.82657 0.0
C881 C 0.44608 0.69326 0.77558 0.0
C882 C 0.44277 0.6837 0.75391 0.0
C883 C 0.45051 0.69003 0.7365 0.0
C884 C 0.46148 0.70697 0.74119 0.0
C885 C 0.46499 0.71767 0.76222 0.0
C886 C 0.45727 0.71006 0.77913 0.0
O887 O 0.41042 0.58012 0.84089 0.0
O888 O 0.42707 0.6135 0.85062 0.0
O889 O 0.39474 0.65785 0.88136 0.0
O890 O 0.41222 0.66431 0.87383 0.0
C891 C 0.40474 0.66754 0.88889 0.0
O892 O 0.41144 0.74867 0.82529 0.0
O893 O 0.39439 0.70969 0.83117 0.0
O894 O 0.44157 0.70162 0.81407 0.0
O895 O 0.42757 0.67368 0.79441 0.0
H896 H 0.43426 0.67147 0.75059 0.0
H897 H 0.4674 0.71204 0.72817 0.0
H898 H 0.45995 0.71884 0.79523 0.0
O899 O 0.34645 0.21409 0.80028 0.0
Tb900 Tb 0.35861 0.19795 0.82507 0.0
Eu901 Eu 0.33299 0.15791 0.8235 0.0
C902 C 0.34384 0.25905 0.79379 0.0
O903 O 0.33566 0.26495 0.77989 0.0
C904 C 0.34246 0.25902 0.85427 0.0
O905 O 0.32721 0.09713 0.84631 0.0
C906 C 0.31883 0.16368 0.79054 0.0
C907 C 0.33288 0.08754 0.864 0.0
O908 O 0.34094 0.11813 0.8697 0.0
C909 C 0.35561 0.08574 0.82767 0.0
C910 C 0.31126 0.14421 0.77261 0.0
C911 C 0.31403 0.15153 0.75051 0.0
C912 C 0.30645 0.13776 0.73377 0.0
C913 C 0.29593 0.11755 0.73959 0.0
C914 C 0.29273 0.11105 0.76117 0.0
C915 C 0.30054 0.12382 0.77743 0.0
O916 O 0.35302 0.24561 0.85101 0.0
O917 O 0.33405 0.23407 0.84419 0.0
O918 O 0.37258 0.1833 0.8032 0.0
O919 O 0.37417 0.24065 0.82583 0.0
C920 C 0.37936 0.21693 0.81058 0.0
O921 O 0.34618 0.09468 0.81678 0.0
O922 O 0.36024 0.12292 0.83793 0.0
O923 O 0.3157 0.16005 0.81069 0.0
O924 O 0.32983 0.16358 0.78852 0.0
H925 H 0.32201 0.16835 0.74634 0.0
H926 H 0.29009 0.10723 0.72705 0.0
H927 H 0.29804 0.11969 0.79397 0.0
C928 C 0.05277 0.36259 0.85824 0.0
C929 C 0.05851 0.39119 0.84267 0.0
C930 C 0.05355 0.37212 0.88049 0.0
C931 C 0.06084 0.40951 0.88839 0.0
C932 C 0.06737 0.43613 0.87304 0.0
C933 C 0.06599 0.42744 0.85064 0.0
C934 C 0.04618 0.34291 0.89557 0.0
C935 C 0.07573 0.47471 0.88016 0.0
C936 C 0.05323 0.47072 0.94251 0.0
C937 C 0.05875 0.44118 0.95806 0.0
C938 C 0.05393 0.4611 0.92026 0.0
C939 C 0.06091 0.42254 0.91235 0.0
C940 C 0.06724 0.39491 0.92768 0.0
C941 C 0.06595 0.4038 0.95009 0.0
C942 C 0.04677 0.49149 0.9052 0.0
C943 C 0.07529 0.35503 0.92053 0.0
H944 H 0.04741 0.33247 0.85314 0.0
H945 H 0.07065 0.45007 0.83943 0.0
H946 H 0.05149 0.32093 0.90665 0.0
H947 H 0.04101 0.36853 0.90541 0.0
H948 H 0.04043 0.31723 0.88702 0.0
H949 H 0.08223 0.48162 0.86773 0.0
H950 H 0.07127 0.51009 0.88323 0.0
H951 H 0.08 0.46333 0.89518 0.0
H952 H 0.0481 0.50163 0.94765 0.0
H953 H 0.07044 0.38045 0.96131 0.0
H954 H 0.0414 0.46673 0.89539 0.0
H955 H 0.05224 0.51258 0.8941 0.0
H956 H 0.04124 0.51811 0.91376 0.0
H957 H 0.07055 0.32046 0.91736 0.0
H958 H 0.08171 0.3469 0.93298 0.0
H959 H 0.07967 0.36586 0.90556 0.0
C960 C 0.20765 0.91333 0.94605 0.0
C961 C 0.19825 0.90272 0.95922 0.0
C962 C 0.20674 0.9203 0.92364 0.0
C963 C 0.19608 0.91863 0.91336 0.0
C964 C 0.18645 0.91016 0.92653 0.0
C965 C 0.18764 0.90207 0.94903 0.0
C966 C 0.21735 0.92887 0.91085 0.0
C967 C 0.17484 0.90926 0.9168 0.0
C968 C 0.19549 0.98181 0.85757 0.0
C969 C 0.19634 0.94183 0.84319 0.0
C970 C 0.19473 0.97473 0.88006 0.0
C971 C 0.19519 0.92631 0.88904 0.0
C972 C 0.19582 0.88569 0.87453 0.0
C973 C 0.19629 0.89383 0.85202 0.0
C974 C 0.19381 1.01958 0.8943 0.0
C975 C 0.19659 0.83339 0.88286 0.0
H976 H 0.21592 0.9162 0.95326 0.0
H977 H 0.18022 0.89418 0.95853 0.0
H978 H 0.21805 0.90069 0.89802 0.0
H979 H 0.217 0.96569 0.90301 0.0
H980 H 0.22507 0.92713 0.92087 0.0
H981 H 0.16812 0.90524 0.92904 0.0
H982 H 0.17333 0.94385 0.90764 0.0
H983 H 0.17418 0.878 0.90538 0.0
H984 H 0.19566 1.01913 0.85118 0.0
H985 H 0.19718 0.86252 0.84133 0.0
H986 H 0.20181 1.02466 0.90321 0.0
H987 H 0.18701 1.0143 0.90625 0.0
H988 H 0.19207 0.05391 0.88508 0.0
H989 H 0.2046 0.82866 0.89181 0.0
H990 H 0.19631 0.80555 0.86982 0.0
H991 H 0.1896 0.82588 0.89416 0.0
C992 C 0.06525 0.90202 0.44827 0.0
C993 C 0.05718 0.93526 0.45664 0.0
C994 C 0.06667 0.89484 0.42579 0.0
C995 C 0.05968 0.92017 0.41077 0.0
C996 C 0.05177 0.9546 0.41908 0.0
C997 C 0.05086 0.96252 0.44143 0.0
C998 C 0.0756 0.85926 0.41815 0.0
C999 C 0.04391 0.98228 0.40431 0.0
C1000 C 0.06484 0.93084 0.34925 0.0
C1001 C 0.05803 0.89275 0.34079 0.0
C1002 C 0.06598 0.93858 0.37176 0.0
C1003 C 0.05994 0.90866 0.38668 0.0
C1004 C 0.05339 0.86928 0.37826 0.0
C1005 C 0.05278 0.8612 0.35589 0.0
C1006 C 0.0735 0.97975 0.37953 0.0
C1007 C 0.04658 0.83646 0.39291 0.0
H1008 H 0.07035 0.88057 0.45926 0.0
H1009 H 0.04498 0.9904 0.44688 0.0
H1010 H 0.07158 0.82426 0.41293 0.0
H1011 H 0.08018 0.87484 0.40422 0.0
H1012 H 0.08178 0.85038 0.43093 0.0
H1013 H 0.03799 1.00681 0.41309 0.0
H1014 H 0.04883 1.00521 0.39296 0.0
H1015 H 0.03892 0.95556 0.39473 0.0
H1016 H 0.06908 0.9557 0.33831 0.0
H1017 H 0.0479 0.82999 0.35026 0.0
H1018 H 0.07852 0.96745 0.39352 0.0
H1019 H 0.06825 1.01159 0.38468 0.0
H1020 H 0.07933 0.99274 0.36683 0.0
H1021 H 0.05221 0.81753 0.40446 0.0
H1022 H 0.04173 0.8079 0.38405 0.0
H1023 H 0.04058 0.85933 0.40227 0.0
C1024 C 0.20729 0.41015 0.4429 0.0
C1025 C 0.198 0.40118 0.45658 0.0
C1026 C 0.20612 0.41688 0.42051 0.0
C1027 C 0.19531 0.41678 0.41078 0.0
C1028 C 0.18581 0.40993 0.42446 0.0
C1029 C 0.18725 0.40194 0.4469 0.0
C1030 C 0.2166 0.42362 0.40717 0.0
C1031 C 0.17406 0.41081 0.41532 0.0
C1032 C 0.19441 0.48002 0.35502 0.0
C1033 C 0.19466 0.43994 0.34061 0.0
C1034 C 0.19396 0.47305 0.37755 0.0
C1035 C 0.19413 0.42459 0.38651 0.0
C1036 C 0.19416 0.3839 0.37199 0.0
C1037 C 0.19431 0.39198 0.34945 0.0
C1038 C 0.19364 0.51801 0.39182 0.0
C1039 C 0.19462 0.33151 0.38028 0.0
H1040 H 0.21567 0.41204 0.44966 0.0
H1041 H 0.17991 0.39535 0.45678 0.0
H1042 H 0.21685 0.39546 0.39426 0.0
H1043 H 0.21649 0.46054 0.39941 0.0
H1044 H 0.22445 0.42036 0.41677 0.0
H1045 H 0.1675 0.40779 0.4279 0.0
H1046 H 0.17269 0.44565 0.40625 0.0
H1047 H 0.173 0.37972 0.40393 0.0
H1048 H 0.19477 0.5173 0.34862 0.0
H1049 H 0.19471 0.36055 0.33872 0.0
H1050 H 0.2018 0.5217 0.40033 0.0
H1051 H 0.18697 0.5139 0.4041 0.0
H1052 H 0.19208 0.55264 0.38268 0.0
H1053 H 0.2027 0.3255 0.38884 0.0
H1054 H 0.19393 0.30375 0.36726 0.0
H1055 H 0.18773 0.32511 0.39193 0.0
C1056 C 0.94582 0.69144 0.09842 0.0
C1057 C 0.94599 0.64375 0.08936 0.0
C1058 C 0.94539 0.69882 0.12097 0.0
C1059 C 0.94491 0.65768 0.13525 0.0
C1060 C 0.94458 0.60953 0.12603 0.0
C1061 C 0.9453 0.60324 0.1035 0.0
C1062 C 0.94603 0.75087 0.12957 0.0
C1063 C 0.94383 0.56419 0.14004 0.0
C1064 C 0.9575 0.66963 0.19215 0.0
C1065 C 0.94811 0.67944 0.20544 0.0
C1066 C 0.95654 0.6632 0.16973 0.0
C1067 C 0.94584 0.66462 0.15959 0.0
C1068 C 0.93623 0.67225 0.17288 0.0
C1069 C 0.93746 0.6798 0.19539 0.0
C1070 C 0.96714 0.65552 0.15679 0.0
C1071 C 0.92458 0.67286 0.16327 0.0
H1072 H 0.94659 0.72314 0.08789 0.0
H1073 H 0.94555 0.56615 0.0969 0.0
H1074 H 0.93904 0.75768 0.14097 0.0
H1075 H 0.95404 0.7557 0.13849 0.0
H1076 H 0.94563 0.77912 0.11668 0.0
H1077 H 0.94218 0.53006 0.13065 0.0
H1078 H 0.95186 0.55923 0.14887 0.0
H1079 H 0.93704 0.56873 0.15207 0.0
H1080 H 0.96579 0.66704 0.19926 0.0
H1081 H 0.93005 0.68708 0.20501 0.0
H1082 H 0.96773 0.68417 0.14411 0.0
H1083 H 0.96687 0.61897 0.14874 0.0
H1084 H 0.97488 0.65725 0.16674 0.0
H1085 H 0.9238 0.70442 0.15201 0.0
H1086 H 0.9179 0.67616 0.1756 0.0
H1087 H 0.92315 0.63847 0.15396 0.0
C1088 C 0.80102 0.18151 0.19903 0.0
C1089 C 0.80934 0.15677 0.21118 0.0
C1090 C 0.80183 0.1876 0.17654 0.0
C1091 C 0.81127 0.16887 0.16513 0.0
C1092 C 0.81994 0.14542 0.17732 0.0
C1093 C 0.8189 0.13977 0.19997 0.0
C1094 C 0.79234 0.21324 0.16487 0.0
C1095 C 0.83022 0.12493 0.1663 0.0
C1096 C 0.80622 0.14244 0.10477 0.0
C1097 C 0.81047 0.18501 0.09456 0.0
C1098 C 0.80685 0.13587 0.12733 0.0
C1099 C 0.81177 0.17287 0.14059 0.0
C1100 C 0.81633 0.21542 0.13025 0.0
C1101 C 0.81557 0.22104 0.10763 0.0
C1102 C 0.80179 0.0899 0.13708 0.0
C1103 C 0.82165 0.25624 0.14319 0.0
H1104 H 0.79363 0.1957 0.20717 0.0
H1105 H 0.8254 0.12028 0.20876 0.0
H1106 H 0.79566 0.24485 0.15547 0.0
H1107 H 0.78838 0.18716 0.15343 0.0
H1108 H 0.78573 0.22722 0.1759 0.0
H1109 H 0.83656 0.11059 0.17783 0.0
H1110 H 0.82771 0.09437 0.15547 0.0
H1111 H 0.83421 0.154 0.15631 0.0
H1112 H 0.80201 0.11478 0.09509 0.0
H1113 H 0.81864 0.25467 0.1002 0.0
H1114 H 0.79437 0.10017 0.14692 0.0
H1115 H 0.80798 0.07175 0.14784 0.0
H1116 H 0.79907 0.06279 0.12478 0.0
H1117 H 0.8151 0.2748 0.15299 0.0
H1118 H 0.82578 0.2845 0.13295 0.0
H1119 H 0.828 0.2407 0.15436 0.0
C1120 C 0.95693 0.16489 0.69415 0.0
C1121 C 0.94779 0.18017 0.70709 0.0
C1122 C 0.95598 0.15867 0.6717 0.0
C1123 C 0.94555 0.16683 0.66113 0.0
C1124 C 0.93614 0.18041 0.67409 0.0
C1125 C 0.93735 0.18691 0.69666 0.0
C1126 C 0.96633 0.14405 0.65916 0.0
C1127 C 0.92477 0.18893 0.664 0.0
C1128 C 0.94736 0.19501 0.60018 0.0
C1129 C 0.94567 0.14833 0.5907 0.0
C1130 C 0.9469 0.2019 0.62275 0.0
C1131 C 0.94467 0.16129 0.63669 0.0
C1132 C 0.94258 0.11442 0.62707 0.0
C1133 C 0.94322 0.10849 0.60449 0.0
C1134 C 0.94935 0.25253 0.63176 0.0
C1135 C 0.94008 0.06973 0.64072 0.0
H1136 H 0.96501 0.15796 0.70161 0.0
H1137 H 0.93016 0.1987 0.70604 0.0
H1138 H 0.96478 0.10889 0.65051 0.0
H1139 H 0.96823 0.17278 0.647 0.0
H1140 H 0.97386 0.13921 0.66951 0.0
H1141 H 0.91813 0.19665 0.67607 0.0
H1142 H 0.92524 0.22072 0.6528 0.0
H1143 H 0.92226 0.156 0.65454 0.0
H1144 H 0.94954 0.22595 0.58994 0.0
H1145 H 0.94213 0.072 0.59759 0.0
H1146 H 0.95735 0.25139 0.64092 0.0
H1147 H 0.94259 0.26374 0.64301 0.0
H1148 H 0.95009 0.28113 0.61907 0.0
H1149 H 0.94772 0.05926 0.6499 0.0
H1150 H 0.93739 1.03737 0.63103 0.0
H1151 H 0.93335 0.07845 0.65245 0.0
C1152 C 0.7991 0.65947 0.69868 0.0
C1153 C 0.80843 0.64876 0.71203 0.0
C1154 C 0.80008 0.66534 0.67623 0.0
C1155 C 0.81076 0.66249 0.66608 0.0
C1156 C 0.82033 0.65406 0.67942 0.0
C1157 C 0.81907 0.64702 0.70196 0.0
C1158 C 0.78952 0.67389 0.66327 0.0
C1159 C 0.83196 0.65203 0.66981 0.0
C1160 C 0.8106 0.63425 0.60503 0.0
C1161 C 0.81065 0.68172 0.5957 0.0
C1162 C 0.81101 0.62736 0.62762 0.0
C1163 C 0.81171 0.66877 0.64169 0.0
C1164 C 0.81227 0.71665 0.63221 0.0
C1165 C 0.81155 0.72249 0.60965 0.0
C1166 C 0.81011 0.5756 0.63649 0.0
C1167 C 0.81327 0.76224 0.64598 0.0
H1168 H 0.79082 0.66315 0.70579 0.0
H1169 H 0.82643 0.63905 0.71161 0.0
H1170 H 0.78998 0.71026 0.65508 0.0
H1171 H 0.78877 0.64508 0.65071 0.0
H1172 H 0.78177 0.67313 0.67323 0.0
H1173 H 0.83864 0.64851 0.68216 0.0
H1174 H 0.83259 0.62002 0.65878 0.0
H1175 H 0.83356 0.68596 0.66025 0.0
H1176 H 0.80968 0.60237 0.59467 0.0
H1177 H 0.81147 0.75943 0.60286 0.0
H1178 H 0.8021 0.57181 0.64548 0.0
H1179 H 0.81709 0.56833 0.64787 0.0
H1180 H 0.81033 0.54701 0.62374 0.0
H1181 H 0.80527 0.76833 0.65475 0.0
H1182 H 0.81513 0.79593 0.6364 0.0
H1183 H 0.82003 0.75724 0.65805 0.0
C1184 C 0.56285 0.36794 0.3596 0.0
C1185 C 0.56028 0.40738 0.34566 0.0
C1186 C 0.56337 0.37425 0.3822 0.0
C1187 C 0.56109 0.42116 0.39168 0.0
C1188 C 0.55874 0.46137 0.37757 0.0
C1189 C 0.55834 0.45404 0.35501 0.0
C1190 C 0.56593 0.32989 0.39602 0.0
C1191 C 0.55615 0.51206 0.38638 0.0
C1192 C 0.54878 0.42637 0.44914 0.0
C1193 C 0.55791 0.44178 0.46205 0.0
C1194 C 0.54975 0.41937 0.42672 0.0
C1195 C 0.56019 0.42719 0.41613 0.0
C1196 C 0.56958 0.44113 0.42906 0.0
C1197 C 0.56835 0.44813 0.45161 0.0
C1198 C 0.53943 0.40423 0.41424 0.0
C1199 C 0.58094 0.44964 0.41895 0.0
H1200 H 0.56409 0.33142 0.35283 0.0
H1201 H 0.55605 0.48465 0.34467 0.0
H1202 H 0.57265 0.33895 0.40771 0.0
H1203 H 0.55831 0.31955 0.40526 0.0
H1204 H 0.56864 0.29735 0.38646 0.0
H1205 H 0.55537 0.5404 0.37359 0.0
H1206 H 0.54812 0.51081 0.39546 0.0
H1207 H 0.56285 0.52372 0.39766 0.0
H1208 H 0.54068 0.41994 0.45662 0.0
H1209 H 0.57553 0.4601 0.46096 0.0
H1210 H 0.54107 0.36912 0.4056 0.0
H1211 H 0.53743 0.43284 0.40207 0.0
H1212 H 0.53193 0.39907 0.42463 0.0
H1213 H 0.58352 0.41646 0.40971 0.0
H1214 H 0.58755 0.45797 0.43099 0.0
H1215 H 0.5804 0.48102 0.40754 0.0
C1216 C 0.69792 0.94345 0.4561 0.0
C1217 C 0.69813 0.89529 0.46477 0.0
C1218 C 0.69746 0.95201 0.4336 0.0
C1219 C 0.69701 0.91166 0.41892 0.0
C1220 C 0.69673 0.86305 0.42774 0.0
C1221 C 0.69746 0.85557 0.45022 0.0
C1222 C 0.69803 1.00451 0.42547 0.0
C1223 C 0.69603 0.81842 0.41333 0.0
C1224 C 0.68939 0.93598 0.3589 0.0
C1225 C 0.7 0.93629 0.34871 0.0
C1226 C 0.68823 0.92767 0.3814 0.0
C1227 C 0.69789 0.91986 0.39459 0.0
C1228 C 0.70856 0.9192 0.38432 0.0
C1229 C 0.70944 0.92646 0.36191 0.0
C1230 C 0.67661 0.92758 0.39111 0.0
C1231 C 0.7192 0.91131 0.39712 0.0
H1232 H 0.69869 0.9746 0.46691 0.0
H1233 H 0.69775 0.81814 0.45646 0.0
H1234 H 0.70603 1.01001 0.41661 0.0
H1235 H 0.69103 1.01173 0.41413 0.0
H1236 H 0.6976 1.03206 0.43862 0.0
H1237 H 0.69446 0.78375 0.42242 0.0
H1238 H 0.6892 0.82336 0.40139 0.0
H1239 H 0.70405 0.8142 0.4044 0.0
H1240 H 0.68194 0.94326 0.34939 0.0
H1241 H 0.71773 0.92434 0.35473 0.0
H1242 H 0.67584 0.95843 0.40271 0.0
H1243 H 0.67522 0.89262 0.40006 0.0
H1244 H 0.66989 0.93157 0.37887 0.0
H1245 H 0.71976 0.93936 0.41003 0.0
H1246 H 0.72691 0.91382 0.38713 0.0
H1247 H 0.71901 0.87436 0.40486 0.0
C1248 C 0.55172 0.96213 0.94502 0.0
C1249 C 0.55802 0.93511 0.96037 0.0
C1250 C 0.55278 0.95434 0.92267 0.0
C1251 C 0.56084 0.9204 0.91448 0.0
C1252 C 0.56781 0.8954 0.92964 0.0
C1253 C 0.56623 0.90233 0.95211 0.0
C1254 C 0.54492 0.98162 0.90778 0.0
C1255 C 0.5769 0.86043 0.92218 0.0
C1256 C 0.55452 0.86074 0.85942 0.0
C1257 C 0.55969 0.89273 0.84438 0.0
C1258 C 0.55495 0.86899 0.88181 0.0
C1259 C 0.56126 0.90896 0.89036 0.0
C1260 C 0.56724 0.93938 0.87551 0.0
C1261 C 0.56627 0.93149 0.85297 0.0
C1262 C 0.54821 0.8356 0.89632 0.0
C1263 C 0.57455 0.98117 0.88339 0.0
H1264 H 0.54574 0.98974 0.95035 0.0
H1265 H 0.57132 0.88106 0.96317 0.0
H1266 H 0.54983 1.00524 0.89668 0.0
H1267 H 0.54013 0.95468 0.89793 0.0
H1268 H 0.53881 1.00542 0.91647 0.0
H1269 H 0.58315 0.85273 0.93498 0.0
H1270 H 0.57305 0.82479 0.91731 0.0
H1271 H 0.58137 0.87584 0.90809 0.0
H1272 H 0.54985 0.82897 0.85374 0.0
H1273 H 0.57045 0.95671 0.8421 0.0
H1274 H 0.54215 0.85801 0.90577 0.0
H1275 H 0.55388 0.81667 0.9078 0.0
H1276 H 0.54343 0.80701 0.88735 0.0
H1277 H 0.56915 1.01294 0.88804 0.0
H1278 H 0.58052 0.994 0.87089 0.0
H1279 H 0.57941 0.96964 0.89771 0.0
C1280 C 0.70391 0.46922 0.86392 0.0
C1281 C 0.69813 0.43971 0.84875 0.0
C1282 C 0.70314 0.4612 0.8863 0.0
C1283 C 0.69584 0.42443 0.89472 0.0
C1284 C 0.68929 0.39686 0.87975 0.0
C1285 C 0.69064 0.40407 0.85724 0.0
C1286 C 0.71055 0.49134 0.90097 0.0
C1287 C 0.68093 0.35881 0.88742 0.0
C1288 C 0.70348 0.3668 0.94963 0.0
C1289 C 0.69791 0.39712 0.9648 0.0
C1290 C 0.7028 0.37504 0.92727 0.0
C1291 C 0.69579 0.41298 0.91886 0.0
C1292 C 0.68942 0.44143 0.93383 0.0
C1293 C 0.69068 0.43387 0.95635 0.0
C1294 C 0.70999 0.34387 0.91261 0.0
C1295 C 0.68136 0.48077 0.92615 0.0
H1296 H 0.70929 0.49891 0.85841 0.0
H1297 H 0.68595 0.38077 0.84634 0.0
H1298 H 0.70526 0.51375 0.9119 0.0
H1299 H 0.71577 0.46632 0.911 0.0
H1300 H 0.71623 0.51669 0.89209 0.0
H1301 H 0.67455 0.35026 0.87497 0.0
H1302 H 0.68543 0.32401 0.89144 0.0
H1303 H 0.67652 0.37177 0.90203 0.0
H1304 H 0.70864 0.33632 0.95517 0.0
H1305 H 0.68616 0.45777 0.96728 0.0
H1306 H 0.71542 0.36814 0.90264 0.0
H1307 H 0.70456 0.32231 0.90163 0.0
H1308 H 0.71548 0.31764 0.9215 0.0
H1309 H 0.68612 0.51484 0.92215 0.0
H1310 H 0.67504 0.4903 0.93859 0.0
H1311 H 0.67686 0.46852 0.91152 0.0
C1312 C 0.4392 0.63708 0.60766 0.0
C1313 C 0.44768 0.66196 0.59611 0.0
C1314 C 0.43838 0.64051 0.6304 0.0
C1315 C 0.44608 0.67019 0.64232 0.0
C1316 C 0.45435 0.69689 0.63056 0.0
C1317 C 0.4551 0.69213 0.60799 0.0
C1318 C 0.4295 0.61061 0.64179 0.0
C1319 C 0.46268 0.72982 0.64193 0.0
C1320 C 0.44045 0.7107 0.70125 0.0
C1321 C 0.44771 0.67979 0.71309 0.0
C1322 C 0.43957 0.70721 0.67853 0.0
C1323 C 0.446 0.67156 0.66693 0.0
C1324 C 0.45299 0.63908 0.679 0.0
C1325 C 0.45385 0.64397 0.70158 0.0
C1326 C 0.43212 0.74344 0.66682 0.0
C1327 C 0.45994 0.5999 0.66797 0.0
H1328 H 0.4335 0.61302 0.59902 0.0
H1329 H 0.46171 0.71167 0.59953 0.0
H1330 H 0.43362 0.58213 0.65194 0.0
H1331 H 0.42449 0.63476 0.65252 0.0
H1332 H 0.42369 0.59179 0.63049 0.0
H1333 H 0.46801 0.75116 0.63062 0.0
H1334 H 0.45817 0.75622 0.65249 0.0
H1335 H 0.46826 0.70699 0.65221 0.0
H1336 H 0.43584 0.73937 0.70965 0.0
H1337 H 0.45964 0.62028 0.71028 0.0
H1338 H 0.42638 0.72353 0.6558 0.0
H1339 H 0.43741 0.76842 0.65695 0.0
H1340 H 0.42699 0.76634 0.67791 0.0
H1341 H 0.45454 0.57768 0.65712 0.0
H1342 H 0.46412 0.57455 0.67949 0.0
H1343 H 0.46652 0.61779 0.65802 0.0
C1344 C 0.30846 0.19188 0.70031 0.0
C1345 C 0.30896 0.14486 0.71003 0.0
C1346 C 0.30884 0.19792 0.67766 0.0
C1347 C 0.30991 0.15612 0.66389 0.0
C1348 C 0.31086 0.10874 0.67376 0.0
C1349 C 0.3102 0.10371 0.69638 0.0
C1350 C 0.30754 0.24917 0.66841 0.0
C1351 C 0.31222 0.06277 0.66033 0.0
C1352 C 0.29743 0.16218 0.60661 0.0
C1353 C 0.30674 0.17347 0.59331 0.0
C1354 C 0.29837 0.15697 0.62912 0.0
C1355 C 0.30899 0.16136 0.63941 0.0
C1356 C 0.31855 0.17053 0.62613 0.0
C1357 C 0.31733 0.17667 0.60351 0.0
C1358 C 0.28783 0.14747 0.64199 0.0
C1359 C 0.33013 0.1744 0.63588 0.0
H1360 H 0.30725 0.224 0.71043 0.0
H1361 H 0.31043 0.06707 0.70346 0.0
H1362 H 0.31448 0.25702 0.65705 0.0
H1363 H 0.29953 0.25141 0.65931 0.0
H1364 H 0.30748 0.27826 0.68095 0.0
H1365 H 0.31425 1.02968 0.67017 0.0
H1366 H 0.3043 0.05544 0.65147 0.0
H1367 H 0.319 0.06813 0.64834 0.0
H1368 H 0.2892 0.15754 0.59942 0.0
H1369 H 0.32467 0.18519 0.59391 0.0
H1370 H 0.28679 0.17678 0.65425 0.0
H1371 H 0.28856 0.11163 0.65054 0.0
H1372 H 0.28014 0.14654 0.6319 0.0
H1373 H 0.33046 0.20675 0.64677 0.0
H1374 H 0.33682 0.17853 0.6236 0.0
H1375 H 0.33194 0.14095 0.64562 0.0
C1376 C 0.45885 0.17688 0.19987 0.0
C1377 C 0.44947 0.18599 0.21331 0.0
C1378 C 0.45786 0.17028 0.17743 0.0
C1379 C 0.44713 0.1708 0.16735 0.0
C1380 C 0.43754 0.17785 0.18078 0.0
C1381 C 0.4388 0.18557 0.2033 0.0
C1382 C 0.46844 0.16321 0.16441 0.0
C1383 C 0.42586 0.17753 0.17129 0.0
C1384 C 0.44673 0.19576 0.10586 0.0
C1385 C 0.44702 0.14781 0.09701 0.0
C1386 C 0.4464 0.20381 0.12841 0.0
C1387 C 0.44615 0.16312 0.14298 0.0
C1388 C 0.44593 0.11471 0.134 0.0
C1389 C 0.44654 0.10777 0.11147 0.0
C1390 C 0.44689 0.25615 0.1367 0.0
C1391 C 0.44542 0.06973 0.14827 0.0
H1392 H 0.46717 0.17483 0.20688 0.0
H1393 H 0.43139 0.19229 0.21298 0.0
H1394 H 0.46832 0.12641 0.15656 0.0
H1395 H 0.46886 0.19155 0.15158 0.0
H1396 H 0.47621 0.16592 0.17426 0.0
H1397 H 0.4192 0.18085 0.18367 0.0
H1398 H 0.42496 0.20869 0.15985 0.0
H1399 H 0.42451 0.14278 0.16219 0.0
H1400 H 0.44732 0.2272 0.09514 0.0
H1401 H 0.44687 0.07047 0.10511 0.0
H1402 H 0.45492 0.26179 0.14547 0.0
H1403 H 0.43993 0.26282 0.14816 0.0
H1404 H 0.44634 0.28397 0.12365 0.0
H1405 H 0.45349 0.06571 0.15705 0.0
H1406 H 0.44389 1.03519 0.13909 0.0
H1407 H 0.43864 0.07407 0.16033 0.0
C1408 C 0.30081 0.64503 0.10541 0.0
C1409 C 0.30782 0.6782 0.09418 0.0
C1410 C 0.30144 0.63898 0.12794 0.0
C1411 C 0.30912 0.66754 0.1403 0.0
C1412 C 0.31641 0.70042 0.12901 0.0
C1413 C 0.31574 0.70504 0.1063 0.0
C1414 C 0.29358 0.60273 0.13863 0.0
C1415 C 0.32462 0.73251 0.14105 0.0
C1416 C 0.30026 0.68835 0.19934 0.0
C1417 C 0.30689 0.65421 0.2109 0.0
C1418 C 0.30126 0.69443 0.17685 0.0
C1419 C 0.30894 0.66494 0.16488 0.0
C1420 C 0.31586 0.63111 0.17652 0.0
C1421 C 0.31482 0.62644 0.19918 0.0
C1422 C 0.29379 0.73169 0.16578 0.0
C1423 C 0.32405 0.59803 0.16489 0.0
H1424 H 0.29458 0.62421 0.09648 0.0
H1425 H 0.32108 0.7315 0.09812 0.0
H1426 H 0.29841 0.57749 0.14925 0.0
H1427 H 0.28747 0.62307 0.14876 0.0
H1428 H 0.28882 0.58013 0.12689 0.0
H1429 H 0.33024 0.75367 0.13018 0.0
H1430 H 0.31991 0.75911 0.1512 0.0
H1431 H 0.32988 0.70952 0.15185 0.0
H1432 H 0.29402 0.70984 0.20794 0.0
H1433 H 0.31986 0.5992 0.2076 0.0
H1434 H 0.28768 0.71214 0.15537 0.0
H1435 H 0.2989 0.75625 0.15539 0.0
H1436 H 0.28901 0.75494 0.17729 0.0
H1437 H 0.31932 0.57196 0.15453 0.0
H1438 H 0.3294 0.57625 0.17604 0.0
H1439 H 0.32958 0.62036 0.15434 0.0
C1440 C 0.13418 0.27708 0.05959 0.0
C1441 C 0.12864 0.30763 0.04481 0.0
C1442 C 0.14006 0.2347 0.05286 0.0
C1443 C 0.14044 0.22262 0.03086 0.0
C1444 C 0.13541 0.25479 1.01577 0.0
C1445 C 0.12956 0.29686 1.02292 0.0
C1446 C 0.14541 0.20144 0.0694 0.0
C1447 C 0.13578 0.24358 0.99216 0.0
C1448 C 0.16151 0.12148 1.01713 0.0
C1449 C 0.15471 0.07902 1.01828 0.0
C1450 C 0.15688 0.16901 1.01987 0.0
C1451 C 0.14521 0.1741 1.02404 0.0
C1452 C 0.1382 0.1317 1.02371 0.0
C1453 C 0.14301 0.0848 1.02059 0.0
C1454 C 0.16463 0.21332 1.01981 0.0
C1455 C 0.12573 0.13537 0.02829 0.0
H1456 H 0.13354 0.28508 0.07652 0.0
H1457 H 0.12538 0.32046 1.01134 0.0
H1458 H 0.14078 0.16579 0.07009 0.0
H1459 H 0.15423 0.19277 0.06495 0.0
H1460 H 0.14536 0.21852 0.0855 0.0
H1461 H 0.13262 0.27499 0.98236 0.0
H1462 H 0.14451 0.2347 0.98711 0.0
H1463 H 0.13052 0.21058 0.98875 0.0
H1464 H 0.17054 0.11751 1.01523 0.0
H1465 H 0.13765 0.0524 1.0214 0.0
H1466 H 0.16596 0.22607 0.03647 0.0
H1467 H 0.16082 0.24451 1.01078 0.0
H1468 H 0.17297 0.20445 1.01274 0.0
H1469 H 0.12445 0.14616 0.04523 0.0
H1470 H 0.12129 0.09978 1.02546 0.0
H1471 H 0.12179 0.1644 1.0182 0.0
C1472 C 0.12825 0.06848 0.27044 0.0
C1473 C 0.11704 0.07896 0.26501 0.0
C1474 C 0.13656 0.10562 0.26971 0.0
C1475 C 0.13363 0.15403 0.26289 0.0
C1476 C 0.1223 0.16479 0.25751 0.0
C1477 C 0.11414 0.12735 0.25887 0.0
C1478 C 0.14851 0.0929 0.27593 0.0
C1479 C 0.11884 0.21534 0.24947 0.0
C1480 C 0.15188 0.26505 0.27696 0.0
C1481 C 0.1578 0.27262 0.25792 0.0
C1482 C 0.14417 0.22588 0.27893 0.0
C1483 C 0.14236 0.19366 0.26141 0.0
C1484 C 0.14856 0.20065 0.24226 0.0
C1485 C 0.15636 0.23973 0.24087 0.0
C1486 C 0.13784 0.21944 0.29967 0.0
C1487 C 0.14682 0.16755 0.22311 0.0
H1488 H 0.13056 1.03108 0.27501 0.0
H1489 H 0.10555 0.13561 0.25416 0.0
H1490 H 0.15415 0.09739 0.26194 0.0
H1491 H 0.15152 0.11866 0.2885 0.0
H1492 H 0.1493 0.05433 0.28194 0.0
H1493 H 0.10958 0.2186 0.24727 0.0
H1494 H 0.12164 0.24455 0.26073 0.0
H1495 H 0.12297 0.22257 0.23387 0.0
H1496 H 0.15321 0.29016 0.29023 0.0
H1497 H 0.16119 0.24511 0.22636 0.0
H1498 H 0.13893 0.18112 0.30574 0.0
H1499 H 0.1287 0.22525 0.29691 0.0
H1500 H 0.1407 0.2458 0.31216 0.0
H1501 H 0.14972 0.12948 0.22691 0.0
H1502 H 0.15148 0.18087 0.20881 0.0
H1503 H 0.13773 0.16528 0.21913 0.0
C1504 C 0.87497 1.00519 1.02438 0.0
C1505 C 0.86326 0.99801 1.0239 0.0
C1506 C 0.88246 0.96482 1.0235 0.0
C1507 C 0.87817 0.91596 1.02197 0.0
C1508 C 0.86635 0.90835 1.02243 0.0
C1509 C 0.85908 0.94937 1.02348 0.0
C1510 C 0.89498 0.9746 1.02352 0.0
C1511 C 0.86111 0.85752 1.02107 0.0
C1512 C 0.89804 0.82121 0.99703 0.0
C1513 C 0.90212 0.79647 1.01509 0.0
C1514 C 0.88989 0.8589 0.99896 0.0
C1515 C 0.88611 0.87338 1.01952 0.0
C1516 C 0.89017 0.84814 0.03778 0.0
C1517 C 0.89816 0.81012 0.03534 0.0
C1518 C 0.88535 0.88332 0.97906 0.0
C1519 C 0.88617 0.86168 0.05989 0.0
H1520 H 0.87832 0.04251 1.0247 0.0
H1521 H 0.85006 0.9431 1.02308 0.0
H1522 H 0.89914 0.95255 0.03627 0.0
H1523 H 0.89867 0.96281 1.00804 0.0
H1524 H 0.89698 1.01435 1.02605 0.0
H1525 H 0.85519 0.85229 0.03462 0.0
H1526 H 0.85605 0.85504 1.00619 0.0
H1527 H 0.86731 0.82679 1.02123 0.0
H1528 H 0.90134 0.81161 0.98143 0.0
H1529 H 0.90143 0.79136 0.04936 0.0
H1530 H 0.88697 0.92374 0.97965 0.0
H1531 H 0.87607 0.87822 0.9783 0.0
H1532 H 0.88916 0.86795 0.96427 0.0
H1533 H 0.88809 0.90116 0.0632 0.0
H1534 H 0.89014 0.83848 0.07248 0.0
H1535 H 0.87688 0.85719 0.06086 0.0
C1536 C 0.88371 0.81032 0.81158 0.0
C1537 C 0.87867 0.77663 0.79749 0.0
C1538 C 0.88936 0.85238 0.80389 0.0
C1539 C 0.89003 0.86089 0.78159 0.0
C1540 C 0.88551 0.82565 0.76726 0.0
C1541 C 0.87985 0.78401 0.77538 0.0
C1542 C 0.89406 0.88916 0.81968 0.0
C1543 C 0.88621 0.83303 0.74339 0.0
C1544 C 0.8922 0.99734 0.76831 0.0
C1545 C 0.90391 1.00378 0.76701 0.0
C1546 C 0.8875 0.95034 0.77174 0.0
C1547 C 0.89468 0.90863 0.77358 0.0
C1548 C 0.90641 0.91418 0.77023 0.0
C1549 C 0.91089 0.96174 0.76698 0.0
C1550 C 0.87494 0.9461 0.7752 0.0
C1551 C 0.91433 0.87059 0.77188 0.0
H1552 H 0.88284 0.80502 0.82867 0.0
H1553 H 0.87606 0.75798 0.76435 0.0
H1554 H 0.90272 0.90038 0.81514 0.0
H1555 H 0.88877 0.92308 0.81959 0.0
H1556 H 0.89426 0.87394 0.83614 0.0
H1557 H 0.88346 0.79967 0.73443 0.0
H1558 H 0.88078 0.86463 0.73864 0.0
H1559 H 0.89496 0.8423 0.7386 0.0
H1560 H 0.8867 1.02942 0.76816 0.0
H1561 H 0.91995 0.96616 0.76583 0.0
H1562 H 0.87325 0.9382 0.79231 0.0
H1563 H 0.87143 0.91498 0.76576 0.0
H1564 H 0.87041 0.98063 0.77074 0.0
H1565 H 0.91532 0.86003 0.78892 0.0
H1566 H 0.9228 0.8793 0.76533 0.0
H1567 H 0.91088 0.83803 0.7633 0.0
C1568 C 0.13554 0.57692 0.53409 0.0
C1569 C 0.1469 0.58339 0.53978 0.0
C1570 C 0.12821 0.61776 0.53187 0.0
C1571 C 0.13233 0.66658 0.5349 0.0
C1572 C 0.144 0.67338 0.53887 0.0
C1573 C 0.15107 0.6319 0.54144 0.0
C1574 C 0.11594 0.60851 0.52694 0.0
C1575 C 0.14928 0.72388 0.54095 0.0
C1576 C 0.1143 0.77436 0.51466 0.0
C1577 C 0.10834 0.78843 0.53306 0.0
C1578 C 0.12226 0.73564 0.51511 0.0
C1579 C 0.12434 0.70986 0.53443 0.0
C1580 C 0.11853 0.72467 0.5532 0.0
C1581 C 0.11045 0.76306 0.55219 0.0
C1582 C 0.12838 0.72192 0.49483 0.0
C1583 C 0.12078 0.69955 0.57433 0.0
H1584 H 0.13221 0.53978 0.53243 0.0
H1585 H 0.15986 0.63773 0.54545 0.0
H1586 H 0.11069 0.62027 0.5407 0.0
H1587 H 0.11329 0.63086 0.51292 0.0
H1588 H 0.11419 0.56885 0.52359 0.0
H1589 H 0.15606 0.72781 0.52884 0.0
H1590 H 0.14325 0.75483 0.53882 0.0
H1591 H 0.15337 0.72701 0.55685 0.0
H1592 H 0.11258 0.79331 0.49972 0.0
H1593 H 0.10561 0.77246 0.56626 0.0
H1594 H 0.12677 0.6825 0.49088 0.0
H1595 H 0.1376 0.72612 0.49722 0.0
H1596 H 0.12578 0.74522 0.48105 0.0
H1597 H 0.11818 0.66014 0.57346 0.0
H1598 H 0.11619 0.71749 0.58769 0.0
H1599 H 0.12995 0.70029 0.5779 0.0
C1600 C 0.10222 0.56167 0.74397 0.0
C1601 C 0.10475 0.53402 0.76223 0.0
C1602 C 0.10678 0.6093 0.74101 0.0
C1603 C 0.11368 0.63063 0.75712 0.0
C1604 C 0.1151 0.60479 0.77667 0.0
C1605 C 0.11082 0.55657 0.7788 0.0
C1606 C 0.10404 0.63581 0.72052 0.0
C1607 C 0.12132 0.62721 0.79535 0.0
C1608 C 0.13782 0.72015 0.74589 0.0
C1609 C 0.13223 0.76562 0.74424 0.0
C1610 C 0.13193 0.67616 0.74992 0.0
C1611 C 0.12006 0.67765 0.75307 0.0
C1612 C 0.11443 0.72421 0.75208 0.0
C1613 C 0.12055 0.76742 0.74705 0.0
C1614 C 0.13881 0.62904 0.75106 0.0
C1615 C 0.10197 0.72932 0.75642 0.0
H1616 H 0.09694 0.54556 0.73172 0.0
H1617 H 0.11232 0.53626 0.79349 0.0
H1618 H 0.1098 0.66686 0.71695 0.0
H1619 H 0.1042 0.60942 0.70694 0.0
H1620 H 0.0954 0.65102 0.72183 0.0
H1621 H 0.11787 0.61335 0.81073 0.0
H1622 H 0.13031 0.61609 0.79463 0.0
H1623 H 0.12083 0.66827 0.7953 0.0
H1624 H 0.14689 0.71882 0.74379 0.0
H1625 H 0.11626 0.80282 0.74609 0.0
H1626 H 0.14469 0.6272 0.73727 0.0
H1627 H 0.13371 0.59473 0.75132 0.0
H1628 H 0.14411 0.62994 0.76567 0.0
H1629 H 0.09738 0.73075 0.74098 0.0
H1630 H 0.10018 0.76457 0.76491 0.0
H1631 H 0.09858 0.69828 0.76609 0.0
C1632 C 0.88576 0.31621 0.5119 0.0
C1633 C 0.89705 0.32141 0.50555 0.0
C1634 C 0.87867 0.35778 0.51416 0.0
C1635 C 0.88295 0.40597 0.51019 0.0
C1636 C 0.89449 0.41154 0.50489 0.0
C1637 C 0.90134 0.36937 0.50257 0.0
C1638 C 0.86648 0.34996 0.52017 0.0
C1639 C 0.89975 0.46138 0.50062 0.0
C1640 C 0.86105 0.50426 0.49543 0.0
C1641 C 0.85948 0.52865 0.51495 0.0
C1642 C 0.86899 0.46561 0.49339 0.0
C1643 C 0.87526 0.45001 0.51149 0.0
C1644 C 0.87386 0.47535 0.53111 0.0
C1645 C 0.86595 0.51405 0.53262 0.0
C1646 C 0.87051 0.4408 0.47198 0.0
C1647 C 0.88059 0.46096 0.55062 0.0
H1648 H 0.8823 0.27947 0.51426 0.0
H1649 H 0.91004 0.37418 0.49768 0.0
H1650 H 0.86436 0.37228 0.5345 0.0
H1651 H 0.86095 0.36279 0.50697 0.0
H1652 H 0.86455 0.31048 0.52356 0.0
H1653 H 0.90808 0.46384 0.50866 0.0
H1654 H 0.90131 0.46485 0.4832 0.0
H1655 H 0.89449 0.49294 0.50597 0.0
H1656 H 0.85582 0.51424 0.48195 0.0
H1657 H 0.86467 0.53245 0.54782 0.0
H1658 H 0.86805 0.40124 0.47312 0.0
H1659 H 0.87953 0.44199 0.46725 0.0
H1660 H 0.8654 0.45866 0.45924 0.0
H1661 H 0.87876 0.42194 0.55498 0.0
H1662 H 0.8787 0.48494 0.56458 0.0
H1663 H 0.88973 0.46344 0.54703 0.0
C1664 C 0.8402 0.36546 0.28307 0.0
C1665 C 0.84781 0.32595 0.28088 0.0
C1666 C 0.84392 0.41491 0.28236 0.0
C1667 C 0.85558 0.42499 0.28012 0.0
C1668 C 0.86314 0.38538 0.27614 0.0
C1669 C 0.85912 0.33651 0.27613 0.0
C1670 C 0.83553 0.45608 0.28594 0.0
C1671 C 0.87567 0.39399 0.27413 0.0
C1672 C 0.86967 0.55129 0.27569 0.0
C1673 C 0.87291 0.55934 0.29701 0.0
C1674 C 0.86321 0.50959 0.26998 0.0
C1675 C 0.86019 0.4747 0.28587 0.0
C1676 C 0.8628 0.48475 0.3075 0.0
C1677 C 0.86902 0.52698 0.31282 0.0
C1678 C 0.86014 0.50165 0.24685 0.0
C1679 C 0.86019 0.44809 0.32486 0.0
H1680 H 0.83142 0.35775 0.28651 0.0
H1681 H 0.86508 0.30645 0.27417 0.0
H1682 H 0.83612 0.46905 0.30272 0.0
H1683 H 0.8374 0.48812 0.2754 0.0
H1684 H 0.82675 0.4436 0.28297 0.0
H1685 H 0.88024 0.36013 0.26897 0.0
H1686 H 0.87742 0.42404 0.26254 0.0
H1687 H 0.8791 0.40572 0.28984 0.0
H1688 H 0.8725 0.57655 0.26335 0.0
H1689 H 0.87143 0.53281 0.32934 0.0
H1690 H 0.85145 0.48682 0.24537 0.0
H1691 H 0.86597 0.47414 0.2397 0.0
H1692 H 0.86077 0.53651 0.23748 0.0
H1693 H 0.85151 0.43351 0.32343 0.0
H1694 H 0.86126 0.46425 0.34105 0.0
H1695 H 0.8661 0.41661 0.323 0.0
C1696 C 0.62204 0.28043 0.53048 0.0
C1697 C 0.62571 0.30504 0.54895 0.0
C1698 C 0.62507 0.2311 0.52666 0.0
C1699 C 0.6321 0.2064 0.54145 0.0
C1700 C 0.6367 0.23253 0.55902 0.0
C1701 C 0.63337 0.28159 0.56265 0.0
C1702 C 0.61997 0.20437 0.5078 0.0
C1703 C 0.64449 0.20766 0.57484 0.0
C1704 C 0.62898 0.07013 0.55351 0.0
C1705 C 0.63856 0.05066 0.54353 0.0
C1706 C 0.62638 0.12057 0.55179 0.0
C1707 C 0.63365 0.15211 0.54008 0.0
C1708 C 0.64287 0.13204 0.52873 0.0
C1709 C 0.64516 0.08129 0.53041 0.0
C1710 C 0.61628 0.14062 0.56365 0.0
C1711 C 0.65084 0.16459 0.51622 0.0
H1712 H 0.61614 0.29841 0.51975 0.0
H1713 H 0.63633 0.3007 0.57681 0.0
H1714 H 0.62641 0.18177 0.49944 0.0
H1715 H 0.61333 0.17872 0.51356 0.0
H1716 H 0.61611 0.23042 0.49615 0.0
H1717 H 0.64842 0.23465 0.58596 0.0
H1718 H 0.63968 0.18029 0.58442 0.0
H1719 H 0.65127 0.18726 0.56638 0.0
H1720 H 0.62383 0.04643 0.56351 0.0
H1721 H 0.6526 0.06646 0.52267 0.0
H1722 H 0.61106 0.16393 0.5529 0.0
H1723 H 0.61916 0.16447 0.577 0.0
H1724 H 0.61092 0.11064 0.57032 0.0
H1725 H 0.64613 0.19147 0.50622 0.0
H1726 H 0.65652 0.14263 0.50577 0.0
H1727 H 0.6561 0.18622 0.52752 0.0
C1728 C 0.6449 0.27087 0.75762 0.0
C1729 C 0.6562 0.2804 0.75289 0.0
C1730 C 0.63985 0.22605 0.75146 0.0
C1731 C 0.64628 0.19045 0.74013 0.0
C1732 C 0.65758 0.2012 0.73454 0.0
C1733 C 0.66249 0.2456 0.74145 0.0
C1734 C 0.62786 0.21575 0.75816 0.0
C1735 C 0.66452 0.1654 0.72158 0.0
C1736 C 0.63864 0.05464 0.74634 0.0
C1737 C 0.63229 0.04578 0.72785 0.0
C1738 C 0.64331 0.10142 0.75038 0.0
C1739 C 0.64156 0.14044 0.7356 0.0
C1740 C 0.63533 0.13147 0.7167 0.0
C1741 C 0.63083 0.08413 0.71296 0.0
C1742 C 0.64981 0.10951 0.77083 0.0
C1743 C 0.63294 0.17235 0.70093 0.0
H1744 H 0.64019 0.29738 0.76709 0.0
H1745 H 0.67129 0.253 0.73807 0.0
H1746 H 0.62278 0.2032 0.74432 0.0
H1747 H 0.62778 0.18543 0.77014 0.0
H1748 H 0.62373 0.24884 0.76524 0.0
H1749 H 0.67301 0.18024 0.7177 0.0
H1750 H 0.66555 0.13001 0.73038 0.0
H1751 H 0.66003 0.15705 0.70648 0.0
H1752 H 0.63972 1.02521 0.75796 0.0
H1753 H 0.62571 0.07792 0.69887 0.0
H1754 H 0.64574 0.13924 0.78035 0.0
H1755 H 0.6585 0.12187 0.76714 0.0
H1756 H 0.65029 0.07548 0.78078 0.0
H1757 H 0.64055 0.19522 0.69832 0.0
H1758 H 0.62632 0.19711 0.70743 0.0
H1759 H 0.62992 0.15767 0.68537 0.0
C1760 C 0.3863 1.02815 0.50018 0.0
C1761 C 0.38168 1.04096 0.48029 0.0
C1762 C 0.39203 0.9831 0.50311 0.0
C1763 C 0.39305 0.94971 0.4858 0.0
C1764 C 0.38895 0.96364 0.46543 0.0
C1765 C 0.38335 1.00917 0.46286 0.0
C1766 C 0.39667 0.9705 0.5249 0.0
C1767 C 0.39022 0.92977 0.44651 0.0
C1768 C 0.41408 0.84425 0.49306 0.0
C1769 C 0.40711 0.80637 0.50076 0.0
C1770 C 0.40962 0.89061 0.4873 0.0
C1771 C 0.39789 0.8993 0.48939 0.0
C1772 C 0.39079 0.86046 0.49657 0.0
C1773 C 0.39555 0.81484 0.50258 0.0
C1774 C 0.41773 0.93041 0.48025 0.0
C1775 C 0.37823 0.86779 0.49882 0.0
H1776 H 0.38515 0.05272 0.5137 0.0
H1777 H 0.37983 1.01873 0.44741 0.0
H1778 H 0.39573 1.00155 0.5364 0.0
H1779 H 0.39223 0.93763 0.53141 0.0
H1780 H 0.40574 0.96084 0.52362 0.0
H1781 H 0.3874 0.94756 0.43142 0.0
H1782 H 0.39917 0.91865 0.44489 0.0
H1783 H 0.38522 0.89556 0.4491 0.0
H1784 H 0.4231 0.83809 0.49209 0.0
H1785 H 0.39033 0.7868 0.50991 0.0
H1786 H 0.42244 0.94396 0.49441 0.0
H1787 H 0.41352 0.96249 0.47261 0.0
H1788 H 0.42401 0.91484 0.46893 0.0
H1789 H 0.37385 0.83332 0.50377 0.0
H1790 H 0.37461 0.88056 0.48342 0.0
H1791 H 0.3765 0.89692 0.51088 0.0
C1792 C 0.38974 1.01678 0.27284 0.0
C1793 C 0.38452 0.04465 0.28897 0.0
C1794 C 0.38676 0.96721 0.26944 0.0
C1795 C 0.37827 0.94569 0.28226 0.0
C1796 C 0.37214 0.97531 0.29687 0.0
C1797 C 0.37539 1.02452 0.30014 0.0
C1798 C 0.39344 0.93685 0.25363 0.0
C1799 C 0.36282 0.95392 0.31044 0.0
C1800 C 0.3658 0.81866 0.27368 0.0
C1801 C 0.37091 0.79219 0.29039 0.0
C1802 C 0.36861 0.86824 0.26981 0.0
C1803 C 0.37681 0.89129 0.28279 0.0
C1804 C 0.38275 0.8633 0.29831 0.0
C1805 C 0.37967 0.81403 0.30201 0.0
C1806 C 0.36212 0.8969 0.25313 0.0
C1807 C 0.39176 0.88635 0.31214 0.0
H1808 H 0.39677 1.03226 0.26403 0.0
H1809 H 0.37123 0.04624 0.31239 0.0
H1810 H 0.39963 0.91371 0.26242 0.0
H1811 H 0.38788 0.9115 0.24454 0.0
H1812 H 0.39811 0.96064 0.24218 0.0
H1813 H 0.35789 0.98322 0.3187 0.0
H1814 H 0.35698 0.9315 0.30055 0.0
H1815 H 0.36651 0.92903 0.32272 0.0
H1816 H 0.35904 0.80188 0.26458 0.0
H1817 H 0.38372 0.79344 0.31476 0.0
H1818 H 0.36778 0.92161 0.2439 0.0
H1819 H 0.35576 0.92062 0.26115 0.0
H1820 H 0.35766 0.87195 0.24185 0.0
H1821 H 0.39777 0.90793 0.30226 0.0
H1822 H 0.39656 0.85809 0.32133 0.0
H1823 H 0.3878 0.91234 0.32365 0.0
C1824 C 0.61613 0.7798 0.04584 0.0
C1825 C 0.60518 0.79535 0.05084 0.0
C1826 C 0.61964 0.73085 0.04976 0.0
C1827 C 0.61177 0.69556 0.0574 0.0
C1828 C 0.60058 0.71084 0.06186 0.0
C1829 C 0.59745 0.76068 0.05873 0.0
C1830 C 0.63177 0.7169 0.04566 0.0
C1831 C 0.59191 0.67431 0.06971 0.0
C1832 C 0.6202 0.56125 0.04685 0.0
C1833 C 0.62456 0.54706 0.0668 0.0
C1834 C 0.61542 0.60857 0.04381 0.0
C1835 C 0.61533 0.64292 0.06094 0.0
C1836 C 0.6193 0.62757 0.0812 0.0
C1837 C 0.62369 0.5799 0.08395 0.0
C1838 C 0.61085 0.62241 1.02212 0.0
C1839 C 0.62007 0.66249 0.09967 0.0
H1840 H 0.62198 0.8062 0.03896 0.0
H1841 H 0.58884 0.7722 0.06174 0.0
H1842 H 0.63222 0.6882 0.03303 0.0
H1843 H 0.63693 0.74916 0.04063 0.0
H1844 H 0.63552 0.70083 0.06037 0.0
H1845 H 0.58329 0.69032 0.06987 0.0
H1846 H 0.59187 0.6408 0.05946 0.0
H1847 H 0.59414 0.6623 0.08613 0.0
H1848 H 0.6208 0.5359 0.03347 0.0
H1849 H 0.62717 0.56969 0.09937 0.0
H1850 H 0.61638 0.65062 1.01465 0.0
H1851 H 0.60234 0.63906 1.02372 0.0
H1852 H 0.61032 0.58997 1.01126 0.0
H1853 H 0.62022 0.64206 0.11502 0.0
H1854 H 0.61302 0.68944 0.09979 0.0
H1855 H 0.62818 0.68246 0.09833 0.0
C1856 C 0.6391 0.52946 0.27425 0.0
C1857 C 0.63421 0.52792 0.25382 0.0
C1858 C 0.64512 0.57142 0.28119 0.0
C1859 C 0.64602 0.61306 0.26753 0.0
C1860 C 0.64117 0.6112 0.24686 0.0
C1861 C 0.63548 0.56853 0.24018 0.0
C1862 C 0.65002 0.572 0.30343 0.0
C1863 C 0.64123 0.65529 0.23211 0.0
C1864 C 0.64972 0.74673 0.28396 0.0
C1865 C 0.66069 0.75624 0.27659 0.0
C1866 C 0.64513 0.69886 0.28304 0.0
C1867 C 0.65167 0.65952 0.27466 0.0
C1868 C 0.66313 0.66785 0.26945 0.0
C1869 C 0.66751 0.71611 0.27054 0.0
C1870 C 0.63293 0.69156 0.2891 0.0
C1871 C 0.67045 0.62662 0.26093 0.0
H1872 H 0.63805 0.49823 0.28496 0.0
H1873 H 0.63151 0.56814 0.22457 0.0
H1874 H 0.65878 0.58627 0.30323 0.0
H1875 H 0.64498 0.59726 0.31364 0.0
H1876 H 0.65 0.53462 0.31086 0.0
H1877 H 0.63994 0.64386 0.21525 0.0
H1878 H 0.63423 0.68047 0.23659 0.0
H1879 H 0.64919 0.67653 0.23328 0.0
H1880 H 0.6444 0.77724 0.28896 0.0
H1881 H 0.67606 0.72284 0.26514 0.0
H1882 H 0.63177 0.65626 0.2979 0.0
H1883 H 0.62774 0.68971 0.27438 0.0
H1884 H 0.62973 0.72247 0.29911 0.0
H1885 H 0.67067 0.59551 0.27251 0.0
H1886 H 0.67922 0.63897 0.25779 0.0
H1887 H 0.66683 0.61202 0.24587 0.0
C1888 C 0.37643 0.33567 0.97213 0.0
C1889 C 0.37569 0.29808 0.98759 0.0
C1890 C 0.37093 0.38135 0.97505 0.0
C1891 C 0.36434 0.38911 0.99362 0.0
C1892 C 0.36324 0.35056 1.00885 0.0
C1893 C 0.36904 0.30577 1.00578 0.0
C1894 C 0.37269 0.42213 0.95885 0.0
C1895 C 0.3561 0.35697 0.02863 0.0
C1896 C 0.35884 0.51944 1.01418 0.0
C1897 C 0.348 0.52866 1.00646 0.0
C1898 C 0.36443 0.47484 1.0095 0.0
C1899 C 0.3588 0.43788 0.9975 0.0
C1900 C 0.34769 0.44673 0.99011 0.0
C1901 C 0.34243 0.49215 0.99465 0.0
C1902 C 0.37622 0.46675 1.01788 0.0
C1903 C 0.34131 0.40811 0.97762 0.0
H1904 H 0.38173 0.33029 0.95822 0.0
H1905 H 0.36846 0.27682 1.01774 0.0
H1906 H 0.37847 0.45029 0.96563 0.0
H1907 H 0.37644 0.408 0.94378 0.0
H1908 H 0.36463 0.44113 0.95511 0.0
H1909 H 0.35573 0.32271 0.03845 0.0
H1910 H 0.35955 0.3873 0.03862 0.0
H1911 H 0.34739 0.36763 1.02409 0.0
H1912 H 0.36283 0.54662 1.0244 0.0
H1913 H 0.33388 0.49892 0.98925 0.0
H1914 H 0.37624 0.43575 0.02952 0.0
H1915 H 0.37965 0.50022 1.02587 0.0
H1916 H 0.38194 0.45623 1.00462 0.0
H1917 H 0.34488 0.40564 0.96129 0.0
H1918 H 0.33222 0.41722 0.97638 0.0
H1919 H 0.34216 0.37106 0.98512 0.0
C1920 C 0.37099 0.52341 0.80529 0.0
C1921 C 0.37662 0.53203 0.8246 0.0
C1922 C 0.36571 0.47796 0.80128 0.0
C1923 C 0.36617 0.44004 0.8169 0.0
C1924 C 0.3718 0.44849 0.8365 0.0
C1925 C 0.37688 0.49467 0.84021 0.0
C1926 C 0.3598 0.47023 0.78017 0.0
C1927 C 0.37282 0.40816 0.85314 0.0
C1928 C 0.34382 0.34049 0.8119 0.0
C1929 C 0.34982 0.30278 0.80167 0.0
C1930 C 0.34914 0.38497 0.81749 0.0
C1931 C 0.36069 0.39166 0.81261 0.0
C1932 C 0.36678 0.3533 0.80235 0.0
C1933 C 0.36119 0.30943 0.79676 0.0
C1934 C 0.34235 0.42509 0.82824 0.0
C1935 C 0.37904 0.35935 0.79646 0.0
H1936 H 0.37082 0.55212 0.79317 0.0
H1937 H 0.3814 0.50081 0.85502 0.0
H1938 H 0.36365 0.43854 0.77157 0.0
H1939 H 0.35081 0.46097 0.78293 0.0
H1940 H 0.36022 0.50348 0.76973 0.0
H1941 H 0.37655 0.42193 0.86828 0.0
H1942 H 0.36445 0.39161 0.85655 0.0
H1943 H 0.37828 0.37802 0.84698 0.0
H1944 H 0.33493 0.33536 0.81524 0.0
H1945 H 0.36559 0.28105 0.78782 0.0
H1946 H 0.34339 0.46095 0.81982 0.0
H1947 H 0.34544 0.43015 0.8448 0.0
H1948 H 0.33323 0.41604 0.82876 0.0
H1949 H 0.37994 0.38953 0.78454 0.0
H1950 H 0.3827 0.32491 0.78966 0.0
H1951 H 0.38404 0.37005 0.8107 0.0
C1952 C 0.07982 0.28579 0.13548 0.0
C1953 C 0.08568 0.28353 0.11569 0.0
C1954 C 0.079 0.24431 0.15018 0.0
C1955 C 0.08406 0.19689 0.14574 0.0
C1956 C 0.08956 0.1942 0.1254 0.0
C1957 C 0.0905 0.23645 0.11129 0.0
C1958 C 0.07253 0.25251 0.17057 0.0
C1959 C 0.0945 0.14573 0.11829 0.0
C1960 C 0.09108 0.10473 0.19415 0.0
C1961 C 0.08416 0.06233 0.19105 0.0
C1962 C 0.09104 0.14738 0.18007 0.0
C1963 C 0.08376 0.15076 0.1618 0.0
C1964 C 0.07652 0.10852 0.15896 0.0
C1965 C 0.07696 0.06578 0.17298 0.0
C1966 C 0.09902 0.18926 0.18483 0.0
C1967 C 0.06795 0.10741 0.1412 0.0
H1968 H 0.07602 0.3208 0.13992 0.0
H1969 H 0.09505 0.23222 0.0964 0.0
H1970 H 0.07034 0.21749 0.17886 0.0
H1971 H 0.07765 0.27578 0.18149 0.0
H1972 H 0.06464 0.27325 0.1672 0.0
H1973 H 0.099 0.14894 0.10284 0.0
H1974 H 0.1003 0.13153 0.13076 0.0
H1975 H 0.08771 0.11802 0.11627 0.0
H1976 H 0.09682 0.10438 0.20761 0.0
H1977 H 0.07143 1.03479 0.16972 0.0
H1978 H 0.09416 0.22299 0.18893 0.0
H1979 H 0.10414 0.19793 0.17045 0.0
H1980 H 0.10473 0.18068 0.1984 0.0
H1981 H 0.067 0.14347 0.13291 0.0
H1982 H 0.05962 0.09628 0.14768 0.0
H1983 H 0.07043 0.07878 0.12938 0.0
C1984 C 0.16894 0.05583 0.12862 0.0
C1985 C 0.16985 0.05893 0.10601 0.0
C1986 C 0.16819 0.09873 0.14241 0.0
C1987 C 0.16857 0.1483 0.13424 0.0
C1988 C 0.1699 0.15167 0.1115 0.0
C1989 C 0.17023 0.10817 0.09798 0.0
C1990 C 0.16692 0.0909 0.16611 0.0
C1991 C 0.17148 0.20179 0.10134 0.0
C1992 C 0.15528 0.2604 0.16709 0.0
C1993 C 0.16431 0.28189 0.17879 0.0
C1994 C 0.15663 0.21922 0.1526 0.0
C1995 C 0.16728 0.19559 0.14924 0.0
C1996 C 0.17651 0.21758 0.1607 0.0
C1997 C 0.17494 0.25929 0.175 0.0
C1998 C 0.14649 0.20132 0.14043 0.0
C1999 C 0.18823 0.19707 0.15801 0.0
H2000 H 0.16855 1.01927 0.13571 0.0
H2001 H 0.17101 0.11299 0.08085 0.0
H2002 H 0.17403 0.10856 0.17468 0.0
H2003 H 0.15907 0.10907 0.17177 0.0
H2004 H 0.16672 0.05108 0.17051 0.0
H2005 H 0.1728 0.19931 0.08381 0.0
H2006 H 0.16408 0.22569 0.10449 0.0
H2007 H 0.17889 0.22038 0.10859 0.0
H2008 H 0.14695 0.27614 0.16915 0.0
H2009 H 0.18217 0.27384 0.18349 0.0
H2010 H 0.14552 0.16077 0.14246 0.0
H2011 H 0.14773 0.20815 0.12317 0.0
H2012 H 0.13866 0.22058 0.14537 0.0
H2013 H 0.1893 0.16454 0.16865 0.0
H2014 H 0.19474 0.22483 0.16236 0.0
H2015 H 0.18972 0.18471 0.14134 0.0
C2016 C 0.92598 0.82278 0.92422 0.0
C2017 C 0.91555 0.79832 0.92771 0.0
C2018 C 0.92728 0.86476 0.90989 0.0
C2019 C 0.91796 0.88542 0.89809 0.0
C2020 C 0.90749 0.85983 0.90123 0.0
C2021 C 0.90645 0.81831 0.91565 0.0
C2022 C 0.93892 0.88631 0.90755 0.0
C2023 C 0.89711 0.87476 0.88895 0.0
C2024 C 0.91995 1.02525 0.87697 0.0
C2025 C 0.92003 1.02207 0.8543 0.0
C2026 C 0.91934 0.98253 0.89094 0.0
C2027 C 0.91902 0.93279 0.88288 0.0
C2028 C 0.9195 0.92932 0.86001 0.0
C2029 C 0.9197 0.97276 0.84636 0.0
C2030 C 0.91914 0.99102 0.91471 0.0
C2031 C 0.92031 0.87899 0.84978 0.0
H2032 H 0.93328 0.80943 0.9329 0.0
H2033 H 0.89826 0.80106 0.91734 0.0
H2034 H 0.9399 0.90837 0.89271 0.0
H2035 H 0.9407 0.9105 0.92147 0.0
H2036 H 0.94535 0.85639 0.9076 0.0
H2037 H 0.88943 0.87034 0.8989 0.0
H2038 H 0.89754 0.9134 0.88305 0.0
H2039 H 0.89612 0.84972 0.87505 0.0
H2040 H 0.92014 0.06186 0.88402 0.0
H2041 H 0.91983 0.96777 0.82919 0.0
H2042 H 0.92724 0.9785 0.92171 0.0
H2043 H 0.91233 0.96899 0.92227 0.0
H2044 H 0.91798 1.03068 0.91881 0.0
H2045 H 0.92743 0.85802 0.85692 0.0
H2046 H 0.92159 0.88129 0.83222 0.0
H2047 H 0.91254 0.85758 0.85298 0.0
C2048 C 0.8434 0.98437 0.94389 0.0
C2049 C 0.83496 1.02177 0.94368 0.0
C2050 C 0.84353 0.94264 0.92942 0.0
C2051 C 0.83476 0.93457 0.91401 0.0
C2052 C 0.82617 0.97209 0.91379 0.0
C2053 C 0.82646 1.01448 0.928 0.0
C2054 C 0.85359 0.90856 0.93013 0.0
C2055 C 0.81658 0.96784 0.89814 0.0
C2056 C 0.84105 0.84851 0.86359 0.0
C2057 C 0.83595 0.80204 0.86808 0.0
C2058 C 0.8404 0.89083 0.87766 0.0
C2059 C 0.83483 0.88879 0.89791 0.0
C2060 C 0.82966 0.84194 0.90263 0.0
C2061 C 0.83016 0.80035 0.88797 0.0
C2062 C 0.84587 0.93841 0.87083 0.0
C2063 C 0.82357 0.83548 0.92354 0.0
H2064 H 0.85028 0.9884 0.95514 0.0
H2065 H 0.81984 1.04201 0.92689 0.0
H2066 H 0.85722 0.90651 0.94648 0.0
H2067 H 0.85152 0.87074 0.92457 0.0
H2068 H 0.86017 0.92341 0.91932 0.0
H2069 H 0.81031 0.99808 0.90005 0.0
H2070 H 0.8199 0.96883 0.88158 0.0
H2071 H 0.81226 0.93175 0.90026 0.0
H2072 H 0.84565 0.85214 0.84872 0.0
H2073 H 0.82623 0.76569 0.89249 0.0
H2074 H 0.8527 0.94756 0.88224 0.0
H2075 H 0.83968 0.96921 0.87143 0.0
H2076 H 0.84935 0.93622 0.85441 0.0
H2077 H 0.82907 0.84701 0.93698 0.0
H2078 H 0.82084 0.79661 0.92617 0.0
H2079 H 0.81602 0.85978 0.9238 0.0
C2080 C 0.09843 0.7508 0.62093 0.0
C2081 C 0.08922 0.77802 0.61249 0.0
C2082 C 0.09729 0.70622 0.63319 0.0
C2083 C 0.08653 0.68592 0.6385 0.0
C2084 C 0.07709 0.71249 0.62969 0.0
C2085 C 0.0785 0.75735 0.61714 0.0
C2086 C 0.10805 0.68166 0.64008 0.0
C2087 C 0.06537 0.69246 0.63292 0.0
C2088 C 0.08726 0.54533 0.65738 0.0
C2089 C 0.08554 0.54646 0.67981 0.0
C2090 C 0.08709 0.58886 0.64401 0.0
C2091 C 0.08531 0.63735 0.65262 0.0
C2092 C 0.08321 0.63865 0.67519 0.0
C2093 C 0.08314 0.59414 0.68812 0.0
C2094 C 0.08927 0.58287 0.62044 0.0
C2095 C 0.08184 0.68783 0.68623 0.0
H2096 H 0.10689 0.76413 0.61781 0.0
H2097 H 0.07112 0.77593 0.61081 0.0
H2098 H 0.1068 0.64586 0.64833 0.0
H2099 H 0.11348 0.67525 0.62591 0.0
H2100 H 0.11265 0.70751 0.65071 0.0
H2101 H 0.05895 0.7139 0.62389 0.0
H2102 H 0.06504 0.65316 0.62774 0.0
H2103 H 0.06316 0.69339 0.65012 0.0
H2104 H 0.08899 0.50976 0.6501 0.0
H2105 H 0.08185 0.59722 0.70519 0.0
H2106 H 0.0977 0.59817 0.61649 0.0
H2107 H 0.08294 0.60398 0.61106 0.0
H2108 H 0.08906 0.54344 0.61542 0.0
H2109 H 0.07628 0.71293 0.67698 0.0
H2110 H 0.09022 0.70592 0.6874 0.0
H2111 H 0.07834 0.68364 0.70259 0.0
C2112 C 0.17665 0.55158 0.6384 0.0
C2113 C 0.17202 0.55474 0.61758 0.0
C2114 C 0.1778 0.59404 0.65229 0.0
C2115 C 0.17417 0.64261 0.64591 0.0
C2116 C 0.16998 0.64598 0.62454 0.0
C2117 C 0.16878 0.60302 0.61116 0.0
C2118 C 0.18275 0.58634 0.6742 0.0
C2119 C 0.1664 0.69541 0.61577 0.0
C2120 C 0.16508 0.73713 0.69122 0.0
C2121 C 0.17258 0.77771 0.68959 0.0
C2122 C 0.16568 0.69398 0.67791 0.0
C2123 C 0.17407 0.68859 0.66162 0.0
C2124 C 0.18194 0.72903 0.66024 0.0
C2125 C 0.18104 0.77229 0.67378 0.0
C2126 C 0.15666 0.65573 0.68122 0.0
C2127 C 0.19154 0.7277 0.64452 0.0
H2128 H 0.17904 0.51532 0.64428 0.0
H2129 H 0.165 0.60732 0.59551 0.0
H2130 H 0.1884 0.61752 0.67852 0.0
H2131 H 0.17585 0.58494 0.68615 0.0
H2132 H 0.18756 0.55112 0.67521 0.0
H2133 H 0.1618 0.69199 0.60038 0.0
H2134 H 0.16099 0.7149 0.62752 0.0
H2135 H 0.17395 0.71863 0.61295 0.0
H2136 H 0.15836 0.73915 0.70293 0.0
H2137 H 0.18704 0.80219 0.67175 0.0
H2138 H 0.15583 0.64683 0.69848 0.0
H2139 H 0.15807 0.62097 0.6723 0.0
H2140 H 0.14856 0.6721 0.676 0.0
H2141 H 0.19276 0.69079 0.63712 0.0
H2142 H 0.19949 0.73861 0.6526 0.0
H2143 H 0.18997 0.75542 0.63175 0.0
C2144 C 0.92702 0.51656 0.37565 0.0
C2145 C 0.91946 0.52105 0.35822 0.0
C2146 C 0.92755 0.47316 0.38921 0.0
C2147 C 0.92029 0.43114 0.38605 0.0
C2148 C 0.91277 0.43545 0.36817 0.0
C2149 C 0.91244 0.47919 0.35501 0.0
C2150 C 0.93603 0.47339 0.40712 0.0
C2151 C 0.90473 0.39438 0.36233 0.0
C2152 C 0.92458 0.2942 0.40866 0.0
C2153 C 0.91931 0.2944 0.42897 0.0
C2154 C 0.92525 0.33758 0.39516 0.0
C2155 C 0.92036 0.38414 0.40129 0.0
C2156 C 0.91522 0.38445 0.42202 0.0
C2157 C 0.91468 0.34061 0.43511 0.0
C2158 C 0.9311 0.33296 0.37391 0.0
C2159 C 0.90994 0.43112 0.43057 0.0
H2160 H 0.93253 0.54756 0.37906 0.0
H2161 H 0.90644 0.48038 0.34195 0.0
H2162 H 0.93245 0.49392 0.42089 0.0
H2163 H 0.93833 0.4355 0.41245 0.0
H2164 H 0.94383 0.49303 0.40218 0.0
H2165 H 0.89597 0.40884 0.36235 0.0
H2166 H 0.90652 0.38185 0.34577 0.0
H2167 H 0.9052 0.36185 0.37304 0.0
H2168 H 0.92799 0.25944 0.40292 0.0
H2169 H 0.91031 0.34247 0.45029 0.0
H2170 H 0.93625 0.36635 0.37053 0.0
H2171 H 0.92468 0.3296 0.36109 0.0
H2172 H 0.93662 0.29973 0.37327 0.0
H2173 H 0.91661 0.45382 0.43817 0.0
H2174 H 0.90348 0.42302 0.44292 0.0
H2175 H 0.90599 0.45333 0.41765 0.0
C2176 C 0.83055 0.49752 0.43215 0.0
C2177 C 0.84088 0.52283 0.43542 0.0
C2178 C 0.82967 0.45384 0.4188 0.0
C2179 C 0.83928 0.43318 0.40804 0.0
C2180 C 0.8496 0.459 0.41142 0.0
C2181 C 0.85024 0.50215 0.42458 0.0
C2182 C 0.81834 0.42949 0.41626 0.0
C2183 C 0.86022 0.4413 0.40096 0.0
C2184 C 0.84063 0.29376 0.38772 0.0
C2185 C 0.83923 0.29687 0.36527 0.0
C2186 C 0.8405 0.33658 0.40152 0.0
C2187 C 0.83869 0.38558 0.39337 0.0
C2188 C 0.83701 0.38865 0.37076 0.0
C2189 C 0.83744 0.3454 0.35728 0.0
C2190 C 0.84269 0.32932 0.42502 0.0
C2191 C 0.83492 0.43836 0.36054 0.0
H2192 H 0.82311 0.51151 0.44015 0.0
H2193 H 0.85838 0.51981 0.42642 0.0
H2194 H 0.81605 0.42787 0.39908 0.0
H2195 H 0.81876 0.39079 0.42218 0.0
H2196 H 0.8116 0.44944 0.42506 0.0
H2197 H 0.86146 0.40157 0.40458 0.0
H2198 H 0.85936 0.446 0.38347 0.0
H2199 H 0.86779 0.46202 0.40633 0.0
H2200 H 0.84221 0.2576 0.39459 0.0
H2201 H 0.83654 0.34986 0.34016 0.0
H2202 H 0.83593 0.3471 0.43456 0.0
H2203 H 0.85075 0.34754 0.42941 0.0
H2204 H 0.84322 0.28955 0.42946 0.0
H2205 H 0.82789 0.45761 0.36877 0.0
H2206 H 0.83284 0.43514 0.3433 0.0
H2207 H 0.84252 0.4619 0.36229 0.0
C2208 C 0.57795 0.0698 0.67351 0.0
C2209 C 0.58603 0.06476 0.6901 0.0
C2210 C 0.57755 0.11233 0.65937 0.0
C2211 C 0.58529 0.15294 0.66132 0.0
C2212 C 0.59329 0.14827 0.6783 0.0
C2213 C 0.59361 0.10529 0.69192 0.0
C2214 C 0.56887 0.11322 0.64182 0.0
C2215 C 0.60189 0.18843 0.68197 0.0
C2216 C 0.59282 0.24257 0.61304 0.0
C2217 C 0.58638 0.28627 0.61638 0.0
C2218 C 0.59234 0.19986 0.62685 0.0
C2219 C 0.58536 0.19876 0.64546 0.0
C2220 C 0.57886 0.24286 0.64906 0.0
C2221 C 0.57936 0.28493 0.63473 0.0
C2222 C 0.59956 0.15563 0.62155 0.0
C2223 C 0.57157 0.24637 0.66868 0.0
H2224 H 0.57205 1.03975 0.67113 0.0
H2225 H 0.60007 0.10342 0.70415 0.0
H2226 H 0.56364 0.14717 0.64312 0.0
H2227 H 0.57316 0.11447 0.62607 0.0
H2228 H 0.56326 0.08034 0.64228 0.0
H2229 H 0.6089 0.18386 0.67041 0.0
H2230 H 0.59819 0.2257 0.67944 0.0
H2231 H 0.60546 0.18669 0.69836 0.0
H2232 H 0.59844 0.24159 0.5994 0.0
H2233 H 0.57442 0.31764 0.63835 0.0
H2234 H 0.6061 0.15078 0.63406 0.0
H2235 H 0.60382 0.15957 0.60585 0.0
H2236 H 0.59436 0.12149 0.62135 0.0
H2237 H 0.56561 0.21475 0.66923 0.0
H2238 H 0.56669 0.28148 0.66924 0.0
H2239 H 0.57694 0.24403 0.68317 0.0
C2240 C 0.67258 0.04978 0.64013 0.0
C2241 C 0.67211 0.0527 0.61755 0.0
C2242 C 0.67212 0.09281 0.65382 0.0
C2243 C 0.6715 0.14221 0.64536 0.0
C2244 C 0.67146 0.14524 0.62251 0.0
C2245 C 0.67146 0.10155 0.60926 0.0
C2246 C 0.67165 0.08452 0.67758 0.0
C2247 C 0.67146 0.19528 0.6118 0.0
C2248 C 0.65814 0.2543 0.67752 0.0
C2249 C 0.66729 0.27935 0.68747 0.0
C2250 C 0.6594 0.21109 0.66427 0.0
C2251 C 0.67019 0.1898 0.65999 0.0
C2252 C 0.67954 0.21515 0.66964 0.0
C2253 C 0.67802 0.25839 0.68309 0.0
C2254 C 0.64897 0.18725 0.65514 0.0
C2255 C 0.69132 0.19667 0.66557 0.0
H2256 H 0.67275 1.01325 0.64732 0.0
H2257 H 0.67098 0.10584 0.59207 0.0
H2258 H 0.67658 0.11286 0.68629 0.0
H2259 H 0.66274 0.08727 0.68287 0.0
H2260 H 0.67485 0.04725 0.68207 0.0
H2261 H 0.67205 0.19241 0.59413 0.0
H2262 H 0.66367 0.21588 0.61588 0.0
H2263 H 0.67868 0.21749 0.61774 0.0
H2264 H 0.64971 0.26835 0.68023 0.0
H2265 H 0.68533 0.27577 0.6902 0.0
H2266 H 0.64793 0.14986 0.66226 0.0
H2267 H 0.64978 0.18217 0.63765 0.0
H2268 H 0.64126 0.20942 0.65824 0.0
H2269 H 0.69234 0.1591 0.67249 0.0
H2270 H 0.69781 0.22139 0.6726 0.0
H2271 H 0.69281 0.19359 0.64811 0.0
C2272 C 0.41909 0.97928 0.35738 0.0
C2273 C 0.42039 1.02795 0.3655 0.0
C2274 C 0.41896 0.93555 0.37063 0.0
C2275 C 0.41942 0.93829 0.39354 0.0
C2276 C 0.42057 0.98773 0.40185 0.0
C2277 C 0.42131 1.03065 0.38805 0.0
C2278 C 0.41833 0.88632 0.35937 0.0
C2279 C 0.42074 0.99656 0.42559 0.0
C2280 C 0.40652 0.82177 0.42385 0.0
C2281 C 0.41537 0.80177 0.43654 0.0
C2282 C 0.40772 0.8645 0.41026 0.0
C2283 C 0.41816 0.89075 0.40842 0.0
C2284 C 0.42724 0.87036 0.42098 0.0
C2285 C 0.42575 0.82743 0.43465 0.0
C2286 C 0.39746 0.88128 0.39794 0.0
C2287 C 0.43877 0.89344 0.42019 0.0
H2288 H 0.41824 0.97496 0.34024 0.0
H2289 H 0.42208 0.06703 0.3952 0.0
H2290 H 0.42043 0.85454 0.36988 0.0
H2291 H 0.40971 0.88125 0.35288 0.0
H2292 H 0.42417 0.88597 0.34551 0.0
H2293 H 0.41674 1.03259 0.42962 0.0
H2294 H 0.41631 0.9669 0.43447 0.0
H2295 H 0.42961 0.99807 0.43113 0.0
H2296 H 0.39836 0.80388 0.42452 0.0
H2297 H 0.43282 0.81425 0.44403 0.0
H2298 H 0.39741 0.86287 0.38213 0.0
H2299 H 0.39738 0.92197 0.39544 0.0
H2300 H 0.38955 0.87049 0.40621 0.0
H2301 H 0.44025 0.91413 0.40512 0.0
H2302 H 0.44543 0.86473 0.42191 0.0
H2303 H 0.43967 0.91937 0.43382 0.0
C2304 C 0.32576 1.01036 0.42192 0.0
C2305 C 0.33443 1.01645 0.43731 0.0
C2306 C 0.32525 0.9684 0.40752 0.0
C2307 C 0.33353 0.92956 0.40786 0.0
C2308 C 0.3422 0.93542 0.42353 0.0
C2309 C 0.34256 0.97767 0.43755 0.0
C2310 C 0.31582 0.96616 0.39143 0.0
C2311 C 0.3515 0.89751 0.42528 0.0
C2312 C 0.32798 0.79712 0.38157 0.0
C2313 C 0.33405 0.7979 0.36203 0.0
C2314 C 0.32767 0.83861 0.39619 0.0
C2315 C 0.33339 0.88428 0.39174 0.0
C2316 C 0.33942 0.8853 0.37195 0.0
C2317 C 0.33975 0.84313 0.35784 0.0
C2318 C 0.3214 0.83294 0.41695 0.0
C2319 C 0.34582 0.93124 0.3657 0.0
H2320 H 0.3194 1.03904 0.42078 0.0
H2321 H 0.34948 0.98041 0.44877 0.0
H2322 H 0.31938 0.96625 0.37503 0.0
H2323 H 0.31106 0.93111 0.39338 0.0
H2324 H 0.30989 0.99779 0.39301 0.0
H2325 H 0.35576 0.89906 0.44108 0.0
H2326 H 0.34826 0.85947 0.42274 0.0
H2327 H 0.3579 0.90495 0.41277 0.0
H2328 H 0.32366 0.76321 0.38586 0.0
H2329 H 0.34467 0.84572 0.34329 0.0
H2330 H 0.31466 0.86139 0.41802 0.0
H2331 H 0.32723 0.83917 0.43055 0.0
H2332 H 0.31753 0.79569 0.41868 0.0
H2333 H 0.34034 0.9644 0.36715 0.0
H2334 H 0.34907 0.92913 0.34911 0.0
H2335 H 0.35305 0.93639 0.37671 0.0
C2336 C 0.59202 0.78423 0.14435 0.0
C2337 C 0.5875 0.78755 0.12335 0.0
C2338 C 0.59123 0.74066 0.15758 0.0
C2339 C 0.58597 0.69625 0.15021 0.0
C2340 C 0.58127 0.69928 0.12908 0.0
C2341 C 0.58195 0.74403 0.1163 0.0
C2342 C 0.59613 0.74238 0.1798 0.0
C2343 C 0.57583 0.65411 0.11954 0.0
C2344 C 0.59616 0.57092 0.17725 0.0
C2345 C 0.58747 0.55673 0.19152 0.0
C2346 C 0.59553 0.61345 0.16351 0.0
C2347 C 0.58614 0.64674 0.16392 0.0
C2348 C 0.57726 0.63276 0.17835 0.0
C2349 C 0.57793 0.58847 0.19147 0.0
C2350 C 0.60535 0.62251 0.14889 0.0
C2351 C 0.56707 0.66563 0.18043 0.0
H2352 H 0.59632 0.81638 0.15066 0.0
H2353 H 0.57844 0.74416 0.10033 0.0
H2354 H 0.58922 0.73907 0.19167 0.0
H2355 H 0.60191 0.71062 0.18241 0.0
H2356 H 0.6008 0.77729 0.18289 0.0
H2357 H 0.57191 0.66194 0.10378 0.0
H2358 H 0.58227 0.62464 0.11753 0.0
H2359 H 0.56928 0.63942 0.13048 0.0
H2360 H 0.60367 0.54809 0.17667 0.0
H2361 H 0.57109 0.57982 0.2023 0.0
H2362 H 0.61234 0.63841 0.15842 0.0
H2363 H 0.60325 0.64794 0.13558 0.0
H2364 H 0.60843 0.58704 0.14205 0.0
H2365 H 0.56969 0.7026 0.18635 0.0
H2366 H 0.5607 0.65007 0.19155 0.0
H2367 H 0.5631 0.67124 0.16456 0.0
C2368 C 0.66137 0.60021 0.12029 0.0
C2369 C 0.67023 0.56497 0.11853 0.0
C2370 C 0.6618 0.6429 0.13399 0.0
C2371 C 0.67142 0.65325 0.147 0.0
C2372 C 0.6805 0.61831 0.14514 0.0
C2373 C 0.67979 0.57532 0.13138 0.0
C2374 C 0.65157 0.67598 0.13498 0.0
C2375 C 0.69109 0.62621 0.15795 0.0
C2376 C 0.67491 0.78913 0.17098 0.0
C2377 C 0.67095 0.78535 0.19229 0.0
C2378 C 0.67525 0.74745 0.15649 0.0
C2379 C 0.67172 0.69883 0.16287 0.0
C2380 C 0.66806 0.69471 0.18454 0.0
C2381 C 0.66766 0.73698 0.19857 0.0
C2382 C 0.67924 0.75585 0.13395 0.0
C2383 C 0.66407 0.64544 0.1929 0.0
H2384 H 0.65377 0.59403 0.11108 0.0
H2385 H 0.6868 0.54964 0.13078 0.0
H2386 H 0.64661 0.66616 0.14938 0.0
H2387 H 0.65395 0.71558 0.13621 0.0
H2388 H 0.64605 0.67121 0.12079 0.0
H2389 H 0.69769 0.59835 0.15419 0.0
H2390 H 0.6945 0.66378 0.15479 0.0
H2391 H 0.68913 0.62411 0.17526 0.0
H2392 H 0.67746 0.82532 0.16529 0.0
H2393 H 0.66459 0.73199 0.21474 0.0
H2394 H 0.67217 0.74943 0.12269 0.0
H2395 H 0.68599 0.72896 0.12991 0.0
H2396 H 0.68248 0.79401 0.13148 0.0
H2397 H 0.65554 0.63773 0.18642 0.0
H2398 H 0.66365 0.64495 0.21057 0.0
H2399 H 0.6697 0.61502 0.18763 0.0
C2400 C 0.4128 0.34774 0.94045 0.0
C2401 C 0.42101 0.30941 0.94027 0.0
C2402 C 0.41308 0.38974 0.92634 0.0
C2403 C 0.42182 0.39587 0.91084 0.0
C2404 C 0.43006 0.35694 0.91028 0.0
C2405 C 0.42962 0.31525 0.92477 0.0
C2406 C 0.40354 0.42651 0.92762 0.0
C2407 C 0.43914 0.35805 0.89349 0.0
C2408 C 0.41501 0.48453 0.86202 0.0
C2409 C 0.42152 0.52782 0.86555 0.0
C2410 C 0.41525 0.44208 0.87589 0.0
C2411 C 0.42199 0.44112 0.89484 0.0
C2412 C 0.42845 0.48508 0.89874 0.0
C2413 C 0.42827 0.52674 0.88422 0.0
C2414 C 0.40781 0.39881 0.87027 0.0
C2415 C 0.43526 0.48913 0.91897 0.0
H2416 H 0.40586 0.34472 0.95161 0.0
H2417 H 0.43594 0.28643 0.92354 0.0
H2418 H 0.39964 0.42672 0.94376 0.0
H2419 H 0.40636 0.46454 0.92359 0.0
H2420 H 0.39691 0.41577 0.91602 0.0
H2421 H 0.44493 0.32582 0.8947 0.0
H2422 H 0.43521 0.35811 0.87739 0.0
H2423 H 0.44414 0.39258 0.89491 0.0
H2424 H 0.40949 0.48372 0.84822 0.0
H2425 H 0.43314 0.55948 0.88804 0.0
H2426 H 0.40684 0.3953 0.85268 0.0
H2427 H 0.3993 0.40507 0.87709 0.0
H2428 H 0.41114 0.36343 0.87672 0.0
H2429 H 0.42968 0.48353 0.93301 0.0
H2430 H 0.43949 0.52564 0.92048 0.0
H2431 H 0.44176 0.45962 0.91942 0.0
C2432 C 0.34923 0.52474 0.92153 0.0
C2433 C 0.34111 0.53642 0.93736 0.0
C2434 C 0.34854 0.48209 0.90787 0.0
C2435 C 0.33979 0.44581 0.91008 0.0
C2436 C 0.33151 0.45736 0.92616 0.0
C2437 C 0.33214 0.50198 0.93897 0.0
C2438 C 0.35746 0.47685 0.89092 0.0
C2439 C 0.3219 0.42235 0.93042 0.0
C2440 C 0.33196 0.34043 0.86739 0.0
C2441 C 0.34067 0.30477 0.86944 0.0
C2442 C 0.33151 0.38535 0.88007 0.0
C2443 C 0.33972 0.39612 0.8964 0.0
C2444 C 0.34823 0.35882 0.89897 0.0
C2445 C 0.34871 0.31574 0.88552 0.0
C2446 C 0.32217 0.42152 0.87527 0.0
C2447 C 0.35711 0.36303 0.91608 0.0
H2448 H 0.35629 0.54976 0.91953 0.0
H2449 H 0.32573 0.50872 0.95094 0.0
H2450 H 0.36504 0.45935 0.89804 0.0
H2451 H 0.35452 0.45417 0.8773 0.0
H2452 H 0.36005 0.51368 0.88471 0.0
H2453 H 0.31907 0.42463 0.94729 0.0
H2454 H 0.31462 0.43321 0.92034 0.0
H2455 H 0.32417 0.38339 0.92677 0.0
H2456 H 0.32564 0.33446 0.85516 0.0
H2457 H 0.35559 0.28984 0.88789 0.0
H2458 H 0.3243 0.45988 0.88013 0.0
H2459 H 0.31446 0.4097 0.88388 0.0
H2460 H 0.32007 0.42149 0.85799 0.0
H2461 H 0.36524 0.3736 0.90861 0.0
H2462 H 0.35844 0.3266 0.92396 0.0
H2463 H 0.35493 0.39045 0.92852 0.0
C2464 C 0.11234 0.49004 0.1511 0.0
C2465 C 0.10345 0.46467 0.14155 0.0
C2466 C 0.11382 0.4876 0.17323 0.0
C2467 C 0.1065 0.45703 0.18534 0.0
C2468 C 0.09617 0.44164 0.17634 0.0
C2469 C 0.09483 0.44488 0.15419 0.0
C2470 C 0.12439 0.50913 0.18279 0.0
C2471 C 0.08773 0.4121 0.18903 0.0
C2472 C 0.12525 0.35764 0.20703 0.0
C2473 C 0.12724 0.37433 0.22784 0.0
C2474 C 0.11761 0.38159 0.19372 0.0
C2475 C 0.11189 0.42431 0.2013 0.0
C2476 C 0.11289 0.43844 0.22294 0.0
C2477 C 0.12051 0.41281 0.23614 0.0
C2478 C 0.11644 0.36281 0.17103 0.0
C2479 C 0.10624 0.48134 0.23189 0.0
H2480 H 0.11878 0.50692 0.14117 0.0
H2481 H 0.08793 0.42522 0.14678 0.0
H2482 H 0.12249 0.52608 0.19846 0.0
H2483 H 0.13069 0.47927 0.18532 0.0
H2484 H 0.1282 0.53776 0.17227 0.0
H2485 H 0.07908 0.41775 0.18267 0.0
H2486 H 0.08976 0.37207 0.18769 0.0
H2487 H 0.0879 0.42236 0.20616 0.0
H2488 H 0.13008 0.32692 0.2007 0.0
H2489 H 0.1217 0.42507 0.25245 0.0
H2490 H 0.11992 0.39037 0.15969 0.0
H2491 H 0.10746 0.35661 0.16703 0.0
H2492 H 0.12099 0.32731 0.16844 0.0
H2493 H 0.10775 0.51542 0.22244 0.0
H2494 H 0.10835 0.48879 0.24887 0.0
H2495 H 0.0971 0.47316 0.23083 0.0
C2496 C 0.11868 0.06379 0.18534 0.0
C2497 C 0.11411 1.01709 0.18065 0.0
C2498 C 0.12114 0.09672 0.16878 0.0
C2499 C 0.11986 0.08005 0.14763 0.0
C2500 C 0.11223 1.04052 0.14368 0.0
C2501 C 0.1098 1.00793 0.16034 0.0
C2502 C 0.12677 0.14516 0.1737 0.0
C2503 C 0.10847 1.02642 0.12151 0.0
C2504 C 0.13249 0.06686 0.096 0.0
C2505 C 0.13757 1.02114 0.10057 0.0
C2506 C 0.12892 0.09744 0.1128 0.0
C2507 C 0.13 0.07999 0.13395 0.0
C2508 C 0.13778 1.04118 0.13814 0.0
C2509 C 0.14097 1.01068 0.12141 0.0
C2510 C 0.12344 0.14637 0.10795 0.0
C2511 C 0.14136 1.02585 0.16031 0.0
H2512 H 0.12084 0.07365 0.20163 0.0
H2513 H 0.10519 0.97407 0.15715 0.0
H2514 H 0.13603 0.13999 0.17449 0.0
H2515 H 0.12475 0.17275 0.16114 0.0
H2516 H 0.124 0.15961 0.18943 0.0
H2517 H 0.1 1.00898 0.12198 0.0
H2518 H 0.10811 0.05891 0.11072 0.0
H2519 H 0.11443 0.99883 0.11478 0.0
H2520 H 0.13102 0.07799 0.07958 0.0
H2521 H 0.14593 0.97784 0.12485 0.0
H2522 H 0.13011 0.17366 0.1042 0.0
H2523 H 0.11864 0.1611 0.12175 0.0
H2524 H 0.11798 0.14349 0.0936 0.0
H2525 H 0.14183 0.05773 0.17134 0.0
H2526 H 0.14976 1.00767 0.15996 0.0
H2527 H 0.13539 0.99799 0.16664 0.0
C2528 C 0.8601 0.76167 0.97891 0.0
C2529 C 0.86586 0.73116 0.9933 0.0
C2530 C 0.85275 0.74036 0.96405 0.0
C2531 C 0.85107 0.68845 0.96458 0.0
C2532 C 0.85374 0.66251 0.98351 0.0
C2533 C 0.86126 0.6845 0.99804 0.0
C2534 C 0.84879 0.77158 0.94558 0.0
C2535 C 0.85055 0.60891 0.98613 0.0
C2536 C 0.8426 0.64927 0.90911 0.0
C2537 C 0.85327 0.64411 0.89976 0.0
C2538 C 0.84145 0.65732 0.93117 0.0
C2539 C 0.85127 0.66163 0.94382 0.0
C2540 C 0.86193 0.64993 0.93462 0.0
C2541 C 0.86275 0.64137 0.9127 0.0
C2542 C 0.82979 0.66498 0.9402 0.0
C2543 C 0.87276 0.65234 0.94705 0.0
H2544 H 0.86311 0.79908 0.97618 0.0
H2545 H 0.86511 0.66162 1.01029 0.0
H2546 H 0.84057 0.75861 0.93942 0.0
H2547 H 0.8479 0.8108 0.95057 0.0
H2548 H 0.85506 0.76958 0.93244 0.0
H2549 H 0.85052 0.59803 1.00325 0.0
H2550 H 0.84211 0.60178 0.97909 0.0
H2551 H 0.85674 0.58529 0.97762 0.0
H2552 H 0.83522 0.65131 0.8991 0.0
H2553 H 0.87097 0.6364 0.90541 0.0
H2554 H 0.82589 0.69815 0.93274 0.0
H2555 H 0.82974 0.66931 0.95782 0.0
H2556 H 0.8244 0.63289 0.93597 0.0
H2557 H 0.87198 0.63299 0.96255 0.0
H2558 H 0.87483 0.69165 0.94995 0.0
H2559 H 0.87991 0.63546 0.93819 0.0
C2560 C 0.86238 0.07443 0.91972 0.0
C2561 C 0.86762 0.06801 0.93945 0.0
C2562 C 0.86552 0.0454 0.90241 0.0
C2563 C 0.87471 1.01215 0.90493 0.0
C2564 C 0.8779 0.99735 0.92571 0.0
C2565 C 0.87445 1.02644 0.94299 0.0
C2566 C 0.86051 0.05838 0.88093 0.0
C2567 C 0.88619 0.95591 0.92934 0.0
C2568 C 0.88418 1.02729 0.8503 0.0
C2569 C 0.88899 0.07419 0.85325 0.0
C2570 C 0.88162 0.99777 0.86806 0.0
C2571 C 0.8836 1.01702 0.88867 0.0
C2572 C 0.89077 0.05868 0.89107 0.0
C2573 C 0.89293 0.08793 0.87336 0.0
C2574 C 0.87588 0.94872 0.86474 0.0
C2575 C 0.89487 0.07728 0.91246 0.0
H2576 H 0.85625 0.10379 0.91746 0.0
H2577 H 0.87758 1.01831 0.95889 0.0
H2578 H 0.86582 0.08692 0.87309 0.0
H2579 H 0.86002 1.02573 0.87036 0.0
H2580 H 0.85188 0.07388 0.88266 0.0
H2581 H 0.88153 0.92033 0.92991 0.0
H2582 H 0.89241 0.95362 0.91623 0.0
H2583 H 0.89081 0.96047 0.94463 0.0
H2584 H 0.88213 1.01428 0.83439 0.0
H2585 H 0.89755 0.12225 0.87542 0.0
H2586 H 0.86887 0.95277 0.85315 0.0
H2587 H 0.87281 0.93214 0.87988 0.0
H2588 H 0.88195 0.92261 0.85748 0.0
H2589 H 0.88815 0.09956 0.92015 0.0
H2590 H 0.90237 0.10156 0.91068 0.0
H2591 H 0.89723 0.04629 0.92314 0.0
C2592 C 0.165 0.92477 0.64403 0.0
C2593 C 0.15437 0.93251 0.65315 0.0
C2594 C 0.16636 0.9233 0.62182 0.0
C2595 C 0.1567 0.92635 0.60871 0.0
C2596 C 0.14618 0.94018 0.61791 0.0
C2597 C 0.14518 0.94308 0.64012 0.0
C2598 C 0.17791 0.91303 0.61282 0.0
C2599 C 0.13556 0.9453 0.6048 0.0
C2600 C 0.14686 0.90593 0.55409 0.0
C2601 C 0.14181 0.86003 0.55843 0.0
C2602 C 0.15439 0.92628 0.569 0.0
C2603 C 0.1565 0.89968 0.58803 0.0
C2604 C 0.15403 0.84831 0.58875 0.0
C2605 C 0.14695 0.82844 0.57314 0.0
C2606 C 0.15834 0.97889 0.56622 0.0
C2607 C 0.15675 0.81685 0.60803 0.0
H2608 H 0.17206 0.91505 0.65405 0.0
H2609 H 0.13702 0.94992 0.64733 0.0
H2610 H 0.1842 0.93745 0.62066 0.0
H2611 H 0.18038 0.8743 0.61648 0.0
H2612 H 0.17829 0.91901 0.59529 0.0
H2613 H 0.12842 0.95997 0.61436 0.0
H2614 H 0.13693 0.97042 0.59107 0.0
H2615 H 0.13308 0.90851 0.5986 0.0
H2616 H 0.14345 0.9295 0.54162 0.0
H2617 H 0.1434 0.79191 0.57568 0.0
H2618 H 0.16074 0.9856 0.54931 0.0
H2619 H 0.16564 0.98723 0.57671 0.0
H2620 H 0.15139 1.00487 0.57012 0.0
H2621 H 0.166 0.81489 0.61027 0.0
H2622 H 0.15342 0.77874 0.60633 0.0
H2623 H 0.153 0.83297 0.6227 0.0
C2624 C 0.13113 0.57906 0.70322 0.0
C2625 C 0.13534 0.53061 0.70448 0.0
C2626 C 0.13105 0.60416 0.68364 0.0
C2627 C 0.13518 0.57974 0.66537 0.0
C2628 C 0.14245 0.53854 0.66839 0.0
C2629 C 0.14239 0.51379 0.68811 0.0
C2630 C 0.12524 0.65333 0.68219 0.0
C2631 C 0.14835 0.51471 0.64982 0.0
C2632 C 0.11757 0.52521 0.62257 0.0
C2633 C 0.12376 0.54118 0.60504 0.0
C2634 C 0.11996 0.5442 0.64282 0.0
C2635 C 0.12848 0.58073 0.64519 0.0
C2636 C 0.13246 0.60529 0.62673 0.0
C2637 C 0.12985 0.58556 0.60656 0.0
C2638 C 0.11493 0.51832 0.66175 0.0
C2639 C 0.14044 0.64834 0.62819 0.0
H2640 H 0.12621 0.59397 0.71621 0.0
H2641 H 0.1462 0.47738 0.68933 0.0
H2642 H 0.12826 0.67471 0.66826 0.0
H2643 H 0.11606 0.6473 0.68072 0.0
H2644 H 0.12681 0.67541 0.69686 0.0
H2645 H 0.156 0.49437 0.65515 0.0
H2646 H 0.14258 0.48784 0.64207 0.0
H2647 H 0.15076 0.54311 0.63789 0.0
H2648 H 0.11248 0.49202 0.6211 0.0
H2649 H 0.13418 0.59971 0.59257 0.0
H2650 H 0.11214 0.54591 0.67376 0.0
H2651 H 0.12128 0.49363 0.6691 0.0
H2652 H 0.10779 0.4944 0.65699 0.0
H2653 H 0.13602 0.68068 0.63514 0.0
H2654 H 0.14368 0.65938 0.61226 0.0
H2655 H 0.14761 0.63899 0.63875 0.0
C2656 C 0.86701 0.24539 0.42098 0.0
C2657 C 0.87201 0.27244 0.43742 0.0
C2658 C 0.8695 0.25695 0.39977 0.0
C2659 C 0.87644 0.29839 0.39525 0.0
C2660 C 0.87903 0.33223 0.41169 0.0
C2661 C 0.87657 0.31921 0.43287 0.0
C2662 C 0.86613 0.22039 0.38277 0.0
C2663 C 0.88571 0.37838 0.40736 0.0
C2664 C 0.8925 0.25122 0.34883 0.0
C2665 C 0.88537 0.26821 0.33259 0.0
C2666 C 0.89109 0.26878 0.36975 0.0
C2667 C 0.88203 0.30148 0.37409 0.0
C2668 C 0.87659 0.32557 0.35693 0.0
C2669 C 0.87934 0.3121 0.33598 0.0
C2670 C 0.89794 0.24603 0.38751 0.0
C2671 C 0.86677 0.35968 0.36035 0.0
H2672 H 0.86301 0.21026 0.42461 0.0
H2673 H 0.87997 0.34161 0.44572 0.0
H2674 H 0.8647 0.23929 0.36738 0.0
H2675 H 0.87303 0.1931 0.38054 0.0
H2676 H 0.85839 0.19974 0.38729 0.0
H2677 H 0.88526 0.40488 0.4209 0.0
H2678 H 0.8946 0.36773 0.40482 0.0
H2679 H 0.88273 0.39701 0.39263 0.0
H2680 H 0.89772 0.21889 0.34603 0.0
H2681 H 0.87442 0.3276 0.32297 0.0
H2682 H 0.89334 0.21378 0.3942 0.0
H2683 H 0.89928 0.27315 0.40058 0.0
H2684 H 0.90625 0.23296 0.38159 0.0
H2685 H 0.86209 0.35126 0.37517 0.0
H2686 H 0.86067 0.35704 0.34698 0.0
H2687 H 0.87006 0.39796 0.36122 0.0
C2688 C 0.89724 0.65956 0.49238 0.0
C2689 C 0.89276 0.61216 0.48881 0.0
C2690 C 0.90419 0.68116 0.47681 0.0
C2691 C 0.90643 0.65407 0.45799 0.0
C2692 C 0.90475 0.60211 0.45798 0.0
C2693 C 0.89804 0.5813 0.47398 0.0
C2694 C 0.9073 0.73507 0.47864 0.0
C2695 C 0.90794 0.57039 0.43907 0.0
C2696 C 0.89418 0.69501 0.40594 0.0
C2697 C 0.9035 0.68901 0.39268 0.0
C2698 C 0.89528 0.69037 0.42809 0.0
C2699 C 0.90604 0.67962 0.43704 0.0
C2700 C 0.91569 0.6806 0.42385 0.0
C2701 C 0.91426 0.6845 0.40168 0.0
C2702 C 0.88463 0.69056 0.44134 0.0
C2703 C 0.92739 0.67219 0.43261 0.0
H2704 H 0.89373 0.68282 0.50484 0.0
H2705 H 0.89495 0.5439 0.47189 0.0
H2706 H 0.91479 0.74392 0.46872 0.0
H2707 H 0.90016 0.75842 0.47314 0.0
H2708 H 0.90905 0.74488 0.49555 0.0
H2709 H 0.90333 0.58271 0.42458 0.0
H2710 H 0.91709 0.57371 0.43585 0.0
H2711 H 0.90595 0.53083 0.44185 0.0
H2712 H 0.88588 0.69938 0.39889 0.0
H2713 H 0.92146 0.67926 0.39146 0.0
H2714 H 0.88553 0.71538 0.4553 0.0
H2715 H 0.88293 0.65262 0.44728 0.0
H2716 H 0.87717 0.70293 0.43202 0.0
H2717 H 0.92773 0.67455 0.45029 0.0
H2718 H 0.93328 0.69993 0.42588 0.0
H2719 H 0.93051 0.63532 0.42746 0.0
C2720 C 0.59319 0.46619 0.65642 0.0
C2721 C 0.60383 0.46236 0.64681 0.0
C2722 C 0.59208 0.46368 0.67872 0.0
C2723 C 0.60182 0.4559 0.6913 0.0
C2724 C 0.61264 0.46034 0.68167 0.0
C2725 C 0.61347 0.46347 0.65946 0.0
C2726 C 0.58043 0.46509 0.68828 0.0
C2727 C 0.62345 0.45519 0.69421 0.0
C2728 C 0.61151 0.43091 0.74546 0.0
C2729 C 0.61495 0.38208 0.74118 0.0
C2730 C 0.60451 0.45573 0.73086 0.0
C2731 C 0.60107 0.43029 0.71227 0.0
C2732 C 0.60162 0.37781 0.71201 0.0
C2733 C 0.60863 0.35389 0.72679 0.0
C2734 C 0.60276 0.51078 0.7331 0.0
C2735 C 0.59688 0.34811 0.6937 0.0
H2736 H 0.5857 0.46694 0.6466 0.0
H2737 H 0.6217 0.46233 0.65194 0.0
H2738 H 0.57561 0.49656 0.68137 0.0
H2739 H 0.57583 0.43074 0.68398 0.0
H2740 H 0.58057 0.46895 0.70592 0.0
H2741 H 0.63096 0.4654 0.68457 0.0
H2742 H 0.62333 0.47902 0.70858 0.0
H2743 H 0.62447 0.41619 0.69934 0.0
H2744 H 0.61585 0.45232 0.75758 0.0
H2745 H 0.61077 0.31522 0.72437 0.0
H2746 H 0.59526 0.52343 0.72396 0.0
H2747 H 0.61026 0.53071 0.72693 0.0
H2748 H 0.60173 0.52099 0.75017 0.0
H2749 H 0.58832 0.36135 0.68947 0.0
H2750 H 0.5964 0.30807 0.69768 0.0
H2751 H 0.60237 0.35251 0.67945 0.0
C2752 C 0.64518 0.8077 0.62843 0.0
C2753 C 0.64655 0.85645 0.63568 0.0
C2754 C 0.63646 0.77829 0.63678 0.0
C2755 C 0.62906 0.79924 0.65192 0.0
C2756 C 0.63296 0.84118 0.6635 0.0
C2757 C 0.64131 0.87103 0.65447 0.0
C2758 C 0.63423 0.72833 0.62726 0.0
C2759 C 0.62794 0.85798 0.68427 0.0
C2760 C 0.60322 0.86148 0.63978 0.0
C2761 C 0.59856 0.85417 0.65999 0.0
C2762 C 0.61217 0.83144 0.6331 0.0
C2763 C 0.61666 0.79646 0.6478 0.0
C2764 C 0.60942 0.77869 0.66396 0.0
C2765 C 0.60014 0.80798 0.66991 0.0
C2766 C 0.61804 0.84425 0.6125 0.0
C2767 C 0.61261 0.73447 0.67716 0.0
H2768 H 0.64979 0.79505 0.61454 0.0
H2769 H 0.64302 0.9074 0.66107 0.0
H2770 H 0.62778 0.70741 0.63636 0.0
H2771 H 0.63138 0.73305 0.61056 0.0
H2772 H 0.64217 0.7066 0.6269 0.0
H2773 H 0.63455 0.85504 0.69672 0.0
H2774 H 0.62575 0.89779 0.68343 0.0
H2775 H 0.6206 0.83609 0.68948 0.0
H2776 H 0.60134 0.89525 0.63107 0.0
H2777 H 0.59582 0.79981 0.68476 0.0
H2778 H 0.61202 0.86027 0.60078 0.0
H2779 H 0.62204 0.8112 0.60526 0.0
H2780 H 0.62458 0.87245 0.61569 0.0
H2781 H 0.60555 0.72202 0.68752 0.0
H2782 H 0.61995 0.74371 0.68736 0.0
H2783 H 0.6151 0.70365 0.66646 0.0
C2784 C 0.35725 0.74306 0.47942 0.0
C2785 C 0.36327 0.71071 0.49263 0.0
C2786 C 0.35065 0.72372 0.46286 0.0
C2787 C 0.35015 0.67163 0.46033 0.0
C2788 C 0.35314 0.64092 0.47772 0.0
C2789 C 0.35962 0.66138 0.49427 0.0
C2790 C 0.34639 0.75845 0.44579 0.0
C2791 C 0.35168 0.58553 0.47663 0.0
C2792 C 0.34274 0.64176 0.40326 0.0
C2793 C 0.35343 0.64575 0.39379 0.0
C2794 C 0.34148 0.6444 0.4255 0.0
C2795 C 0.35114 0.65195 0.43829 0.0
C2796 C 0.36203 0.65003 0.42875 0.0
C2797 C 0.363 0.64723 0.40656 0.0
C2798 C 0.32977 0.64266 0.43478 0.0
C2799 C 0.37271 0.65637 0.44146 0.0
H2800 H 0.3595 0.78199 0.47911 0.0
H2801 H 0.36368 0.6366 0.50555 0.0
H2802 H 0.35254 0.75964 0.43241 0.0
H2803 H 0.3382 0.74556 0.43935 0.0
H2804 H 0.34533 0.79662 0.45208 0.0
H2805 H 0.35091 0.5694 0.4929 0.0
H2806 H 0.34414 0.5755 0.46707 0.0
H2807 H 0.35919 0.56875 0.46889 0.0
H2808 H 0.33527 0.63977 0.39332 0.0
H2809 H 0.37125 0.64927 0.39915 0.0
H2810 H 0.32538 0.67812 0.43136 0.0
H2811 H 0.32977 0.63628 0.45229 0.0
H2812 H 0.32482 0.6128 0.42698 0.0
H2813 H 0.37358 0.69589 0.44584 0.0
H2814 H 0.38031 0.64557 0.43218 0.0
H2815 H 0.37253 0.63383 0.45622 0.0
C2816 C 0.35279 0.21867 0.38934 0.0
C2817 C 0.34821 0.22709 0.40952 0.0
C2818 C 0.36182 0.24779 0.38235 0.0
C2819 C 0.36646 0.28299 0.39671 0.0
C2820 C 0.35941 0.30159 0.41297 0.0
C2821 C 0.35002 0.27335 0.41917 0.0
C2822 C 0.36761 0.23369 0.36184 0.0
C2823 C 0.36288 0.34588 0.42583 0.0
C2824 C 0.39158 0.21019 0.40315 0.0
C2825 C 0.39667 0.22509 0.38426 0.0
C2826 C 0.38299 0.23897 0.41204 0.0
C2827 C 0.37889 0.28045 0.40034 0.0
C2828 C 0.38611 0.30206 0.38509 0.0
C2829 C 0.39503 0.27362 0.37689 0.0
C2830 C 0.37779 0.22061 0.43245 0.0
C2831 C 0.38348 0.35129 0.37517 0.0
H2832 H 0.35076 0.18476 0.3809 0.0
H2833 H 0.34574 0.2823 0.43398 0.0
H2834 H 0.37162 0.26623 0.3542 0.0
H2835 H 0.37414 0.20557 0.36531 0.0
H2836 H 0.36154 0.21716 0.35036 0.0
H2837 H 0.3567 0.35475 0.43857 0.0
H2838 H 0.37128 0.33958 0.43312 0.0
H2839 H 0.36364 0.37819 0.41496 0.0
H2840 H 0.39345 0.1739 0.40973 0.0
H2841 H 0.39951 0.28647 0.36287 0.0
H2842 H 0.37043 0.24222 0.43777 0.0
H2843 H 0.38428 0.2222 0.44519 0.0
H2844 H 0.37555 0.18099 0.43085 0.0
H2845 H 0.38046 0.34546 0.35865 0.0
H2846 H 0.39128 0.37373 0.37419 0.0
H2847 H 0.37703 0.372 0.38439 0.0
C2848 C 0.64284 0.84957 0.12305 0.0
C2849 C 0.63568 0.82536 0.10869 0.0
C2850 C 0.64217 0.83867 0.1449 0.0
C2851 C 0.63401 0.80409 0.15197 0.0
C2852 C 0.62883 0.77237 0.13711 0.0
C2853 C 0.63017 0.7822 0.11535 0.0
C2854 C 0.64894 0.86909 0.16047 0.0
C2855 C 0.62088 0.73189 0.14383 0.0
C2856 C 0.63032 0.7926 0.21148 0.0
C2857 C 0.6258 0.83966 0.21553 0.0
C2858 C 0.63268 0.77848 0.19043 0.0
C2859 C 0.62919 0.8096 0.1736 0.0
C2860 C 0.62191 0.85005 0.17786 0.0
C2861 C 0.62032 0.86495 0.19904 0.0
C2862 C 0.63983 0.73339 0.18643 0.0
C2863 C 0.617 0.88143 0.16019 0.0
H2864 H 0.64752 0.88185 0.11782 0.0
H2865 H 0.62489 0.76267 0.10411 0.0
H2866 H 0.65698 0.88172 0.15317 0.0
H2867 H 0.64403 0.90236 0.16513 0.0
H2868 H 0.65084 0.84757 0.17515 0.0
H2869 H 0.61346 0.73051 0.13308 0.0
H2870 H 0.62544 0.69617 0.14276 0.0
H2871 H 0.6178 0.73572 0.1604 0.0
H2872 H 0.63409 0.77179 0.22448 0.0
H2873 H 0.61644 0.90055 0.2023 0.0
H2874 H 0.63433 0.70178 0.18209 0.0
H2875 H 0.64467 0.72324 0.20084 0.0
H2876 H 0.64589 0.73957 0.17323 0.0
H2877 H 0.60921 0.90064 0.16554 0.0
H2878 H 0.61501 0.85877 0.14591 0.0
H2879 H 0.62321 0.91006 0.15543 0.0
C2880 C 0.60977 0.30225 0.17773 0.0
C2881 C 0.60881 0.34949 0.16848 0.0
C2882 C 0.61794 0.2691 0.17001 0.0
C2883 C 0.62527 0.28509 0.15374 0.0
C2884 C 0.62114 0.32306 0.14007 0.0
C2885 C 0.61358 0.35776 0.14846 0.0
C2886 C 0.61974 0.22045 0.18096 0.0
C2887 C 0.62542 0.33005 0.11769 0.0
C2888 C 0.6479 0.36341 0.16407 0.0
C2889 C 0.65278 0.35707 0.144 0.0
C2890 C 0.64108 0.32583 0.17251 0.0
C2891 C 0.63764 0.28693 0.1587 0.0
C2892 C 0.64524 0.27377 0.14237 0.0
C2893 C 0.65284 0.30959 0.13486 0.0
C2894 C 0.63664 0.33098 0.19489 0.0
C2895 C 0.64415 0.22543 0.13093 0.0
H2896 H 0.60545 0.29397 0.19256 0.0
H2897 H 0.61214 0.39257 0.14025 0.0
H2898 H 0.6242 0.19395 0.17035 0.0
H2899 H 0.62481 0.22622 0.19552 0.0
H2900 H 0.61152 0.20465 0.18596 0.0
H2901 H 0.63343 0.35062 0.11777 0.0
H2902 H 0.62681 0.29371 0.11007 0.0
H2903 H 0.61932 0.3514 0.10784 0.0
H2904 H 0.64862 0.39862 0.17227 0.0
H2905 H 0.65732 0.30297 0.12003 0.0
H2906 H 0.63547 0.29419 0.20237 0.0
H2907 H 0.62848 0.35053 0.19478 0.0
H2908 H 0.64252 0.3529 0.20494 0.0
H2909 H 0.64127 0.19603 0.14206 0.0
H2910 H 0.65226 0.2146 0.12344 0.0
H2911 H 0.63791 0.22935 0.11802 0.0
C2912 C 0.39773 0.24342 0.82368 0.0
C2913 C 0.39168 0.21155 0.81037 0.0
C2914 C 0.4055 0.22356 0.83818 0.0
C2915 C 0.40728 0.17162 0.83828 0.0
C2916 C 0.40419 0.14407 0.82004 0.0
C2917 C 0.39618 0.16447 0.80604 0.0
C2918 C 0.40986 0.25631 0.85583 0.0
C2919 C 0.40761 0.09062 0.81763 0.0
C2920 C 0.41631 0.1434 0.89444 0.0
C2921 C 0.4057 0.13843 0.90402 0.0
C2922 C 0.41733 0.14674 0.87212 0.0
C2923 C 0.40745 0.14665 0.85946 0.0
C2924 C 0.39694 0.13441 0.86912 0.0
C2925 C 0.39628 0.13005 0.8913 0.0
C2926 C 0.42888 0.15443 0.86263 0.0
C2927 C 0.38602 0.1325 0.85675 0.0
H2928 H 0.39479 0.28115 0.82586 0.0
H2929 H 0.39207 0.14052 0.79453 0.0
H2930 H 0.41894 0.24922 0.85863 0.0
H2931 H 0.40877 0.29609 0.85188 0.0
H2932 H 0.40524 0.24839 0.87088 0.0
H2933 H 0.40082 0.06618 0.82373 0.0
H2934 H 0.40889 0.08153 0.8005 0.0
H2935 H 0.41546 0.08251 0.82665 0.0
H2936 H 0.42368 0.14889 0.90426 0.0
H2937 H 0.38813 0.12459 0.89881 0.0
H2938 H 0.42877 0.15794 0.84497 0.0
H2939 H 0.43434 0.12258 0.8669 0.0
H2940 H 0.43283 0.18789 0.8697 0.0
H2941 H 0.38394 0.17001 0.8508 0.0
H2942 H 0.37885 0.11979 0.86674 0.0
H2943 H 0.3867 0.1071 0.84295 0.0
C2944 C 0.39826 0.68519 0.92513 0.0
C2945 C 0.40717 0.67351 0.91167 0.0
C2946 C 0.39906 0.67713 0.94705 0.0
C2947 C 0.40915 0.65656 0.95573 0.0
C2948 C 0.4188 0.65279 0.94247 0.0
C2949 C 0.41767 0.66079 0.92035 0.0
C2950 C 0.38844 0.68463 0.95989 0.0
C2951 C 0.43014 0.63732 0.95106 0.0
C2952 C 0.39697 0.6367 1.00789 0.0
C2953 C 0.39088 0.59461 1.00152 0.0
C2954 C 0.406 0.65333 0.99518 0.0
C2955 C 0.40832 0.62779 0.97601 0.0
C2956 C 0.40476 0.57791 0.97422 0.0
C2957 C 0.39599 0.56141 0.98738 0.0
C2958 C 0.41137 0.70271 0.99969 0.0
C2959 C 0.4084 0.54561 0.95589 0.0
H2960 H 0.39029 0.69685 0.91827 0.0
H2961 H 0.42474 0.65346 0.90985 0.0
H2962 H 0.38454 0.64815 0.96299 0.0
H2963 H 0.39018 0.70318 0.97524 0.0
H2964 H 0.38216 0.70764 0.95122 0.0
H2965 H 0.4365 0.66574 0.94671 0.0
H2966 H 0.43019 0.6326 0.96867 0.0
H2967 H 0.43284 0.60225 0.94335 0.0
H2968 H 0.39355 0.66109 1.02001 0.0
H2969 H 0.39177 0.52689 0.98358 0.0
H2970 H 0.40692 0.73227 0.99071 0.0
H2971 H 0.4203 0.70263 0.99438 0.0
H2972 H 0.41095 0.71179 1.01698 0.0
H2973 H 0.404 0.55734 0.94106 0.0
H2974 H 0.4064 0.50615 0.95904 0.0
H2975 H 0.4176 0.54885 0.95325 0.0
C2976 C 0.9836 0.60707 0.04536 0.0
C2977 C 0.97423 0.58869 0.03406 0.0
C2978 C 0.99465 0.58932 0.04164 0.0
C2979 C 0.99658 0.55151 1.02633 0.0
C2980 C 0.98717 0.53282 1.0148 0.0
C2981 C 0.9762 0.55178 1.01865 0.0
C2982 C 0.00431 0.61137 0.05411 0.0
C2983 C 0.98868 0.49227 0.99848 0.0
C2984 C 0.02634 0.53554 1.00256 0.0
C2985 C 0.03089 0.49618 1.01459 0.0
C2986 C 0.01533 0.55383 1.00625 0.0
C2987 C 0.00843 0.53217 1.02225 0.0
C2988 C 0.01297 0.49252 0.03452 0.0
C2989 C 0.02409 0.47537 0.03068 0.0
C2990 C 0.01108 0.59663 0.99296 0.0
C2991 C 0.006 0.46769 0.05159 0.0
H2992 H 0.98231 0.63605 0.05708 0.0
H2993 H 0.9691 0.53685 1.00988 0.0
H2994 H 0.00864 0.58203 0.06344 0.0
H2995 H 0.01061 0.62732 0.04296 0.0
H2996 H 1.00149 0.64084 0.06527 0.0
H2997 H 0.98057 0.4811 0.99103 0.0
H2998 H 0.99451 0.50474 0.98572 0.0
H2999 H 0.99255 0.45931 1.00615 0.0
H3000 H 0.03147 0.55244 0.99023 0.0
H3001 H 0.02737 0.44466 0.03996 0.0
H3002 H 0.00866 0.62788 1.00352 0.0
H3003 H 1.00342 0.58542 0.98405 0.0
H3004 H 0.01747 0.60994 0.98134 0.0
H3005 H 0.00346 0.49516 0.06385 0.0
H3006 H 0.01061 0.43703 0.05959 0.0
H3007 H 0.99815 0.45263 0.04446 0.0
C3008 C 0.27518 0.77392 0.05141 0.0
C3009 C 0.28004 0.73675 0.0386 0.0
C3010 C 0.26426 0.79283 0.0473 0.0
C3011 C 0.25778 0.77395 0.03007 0.0
C3012 C 0.26261 0.73622 1.01713 0.0
C3013 C 0.27364 0.71851 1.0214 0.0
C3014 C 0.25971 0.83362 0.06134 0.0
C3015 C 0.25607 0.71426 0.99877 0.0
C3016 C 0.22557 0.79551 0.03079 0.0
C3017 C 0.2242 0.83472 1.0162 0.0
C3018 C 0.23634 0.77509 0.03526 0.0
C3019 C 0.24614 0.79467 1.02527 0.0
C3020 C 0.24481 0.83478 1.01081 0.0
C3021 C 0.23395 0.85389 1.0064 0.0
C3022 C 0.23723 0.73206 0.05056 0.0
C3023 C 0.25489 0.85788 1.00003 0.0
H3024 H 0.28002 0.78894 0.06458 0.0
H3025 H 0.27719 0.68956 1.01147 0.0
H3026 H 0.25776 0.86674 0.05149 0.0
H3027 H 0.25172 0.82161 0.06894 0.0
H3028 H 0.26574 0.84445 0.07408 0.0
H3029 H 0.26079 0.68419 0.9906 0.0
H3030 H 0.24795 0.69916 1.00464 0.0
H3031 H 0.25406 0.7435 0.9869 0.0
H3032 H 0.21816 0.78002 0.03841 0.0
H3033 H 0.2331 0.88459 0.99534 0.0
H3034 H 0.24268 0.74218 0.06428 0.0
H3035 H 0.24124 0.70006 0.04246 0.0
H3036 H 0.22887 0.72036 0.05677 0.0
H3037 H 0.2609 0.87162 1.01225 0.0
H3038 H 0.25251 0.88921 0.98942 0.0
H3039 H 0.25939 0.82968 0.99038 0.0
C3040 C 0.02824 0.80637 0.26829 0.0
C3041 C 0.03001 0.8436 0.28363 0.0
C3042 C 0.01733 0.78775 0.26388 0.0
C3043 C 0.00779 0.80694 0.27486 0.0
C3044 C 0.00951 0.84511 0.29008 0.0
C3045 C 0.0205 0.86273 0.29428 0.0
C3046 C 0.01602 0.74694 0.24763 0.0
C3047 C 0.99969 0.86741 0.30203 0.0
C3048 C 0.97833 0.7888 0.25025 0.0
C3049 C 0.97391 0.74907 0.26218 0.0
C3050 C 0.98922 0.80803 0.25426 0.0
C3051 C 0.99606 0.78708 0.27054 0.0
C3052 C 0.99162 0.74729 0.28277 0.0
C3053 C 0.98066 0.72903 0.27854 0.0
C3054 C 0.99342 0.85081 0.24094 0.0
C3055 C 0.99854 0.72337 0.3002 0.0
H3056 H 0.03546 0.79089 0.26003 0.0
H3057 H 0.02164 0.89202 0.3059 0.0
H3058 H 0.01224 0.71384 0.25532 0.0
H3059 H 0.01019 0.7589 0.23476 0.0
H3060 H 0.02418 0.73613 0.24031 0.0
H3061 H 1.00235 0.89736 0.31309 0.0
H3062 H 0.99347 0.88279 0.29056 0.0
H3063 H 0.99533 0.83831 0.31142 0.0
H3064 H 0.97323 0.80512 0.23772 0.0
H3065 H 0.9775 0.69797 0.28771 0.0
H3066 H 1.00118 0.83981 0.23227 0.0
H3067 H 0.99566 0.88238 0.25144 0.0
H3068 H 0.98706 0.86357 0.22911 0.0
H3069 H 0.00645 0.7082 0.29337 0.0
H3070 H 0.99393 0.69294 0.30835 0.0
H3071 H 1.00095 0.75143 0.31229 0.0
C3072 C 0.26841 0.61709 0.25361 0.0
C3073 C 0.27778 0.59653 0.26425 0.0
C3074 C 0.25733 0.59943 0.25711 0.0
C3075 C 0.25538 0.55983 0.27159 0.0
C3076 C 0.26478 0.53895 0.2824 0.0
C3077 C 0.27577 0.55745 0.27866 0.0
C3078 C 0.24766 0.62337 0.24529 0.0
C3079 C 0.26324 0.49664 0.29789 0.0
C3080 C 0.22592 0.54122 0.29614 0.0
C3081 C 0.2214 0.50221 0.28391 0.0
C3082 C 0.23681 0.56049 0.29218 0.0
C3083 C 0.24355 0.54053 0.27555 0.0
C3084 C 0.239 0.50168 0.26292 0.0
C3085 C 0.22805 0.48321 0.26718 0.0
C3086 C 0.24114 0.60211 0.30599 0.0
C3087 C 0.24579 0.47889 0.24508 0.0
H3088 H 0.26971 0.64763 0.24265 0.0
H3089 H 0.28285 0.5405 0.2868 0.0
H3090 H 0.24316 0.59526 0.23561 0.0
H3091 H 0.24151 0.63874 0.25687 0.0
H3092 H 0.2505 0.65366 0.23455 0.0
H3093 H 0.27134 0.48429 0.30504 0.0
H3094 H 0.25747 0.5079 0.31095 0.0
H3095 H 0.2593 0.46472 0.28962 0.0
H3096 H 0.2209 0.55695 0.30891 0.0
H3097 H 0.22482 0.45278 0.25773 0.0
H3098 H 0.24349 0.63424 0.29588 0.0
H3099 H 0.24885 0.59002 0.31456 0.0
H3100 H 0.23482 0.61447 0.31795 0.0
H3101 H 0.24838 0.5079 0.23352 0.0
H3102 H 0.24103 0.4498 0.23639 0.0
H3103 H 0.25361 0.46221 0.25165 0.0
C3104 C 0.77519 0.23015 1.02472 0.0
C3105 C 0.78216 0.24895 0.04101 0.0
C3106 C 0.76417 0.24879 1.02118 0.0
C3107 C 0.75986 0.2878 0.03405 0.0
C3108 C 0.76689 0.30725 0.05038 0.0
C3109 C 0.77783 0.28762 0.0537 0.0
C3110 C 0.75707 0.22631 1.0037 0.0
C3111 C 0.76286 0.34917 0.06437 0.0
C3112 C 0.73545 0.36638 1.01151 0.0
C3113 C 0.72592 0.34717 1.02206 0.0
C3114 C 0.74643 0.34794 1.01541 0.0
C3115 C 0.74813 0.30873 0.03019 0.0
C3116 C 0.73857 0.28951 0.04111 0.0
C3117 C 0.72767 0.30903 0.03704 0.0
C3118 C 0.75625 0.37044 1.00355 0.0
C3119 C 0.73984 0.2476 0.05688 0.0
H3120 H 0.77826 0.19991 1.01494 0.0
H3121 H 0.78308 0.30307 0.06619 0.0
H3122 H 0.74913 0.21155 1.01054 0.0
H3123 H 0.75473 0.25515 0.99187 0.0
H3124 H 0.76151 0.19586 0.99523 0.0
H3125 H 0.76928 0.36042 0.07633 0.0
H3126 H 0.76072 0.38178 0.05435 0.0
H3127 H 0.75507 0.33808 0.07292 0.0
H3128 H 0.73434 0.39631 1.00016 0.0
H3129 H 0.72045 0.29344 0.04522 0.0
H3130 H 0.76045 0.34177 0.99367 0.0
H3131 H 0.76259 0.38443 1.01509 0.0
H3132 H 0.75363 0.40145 0.99298 0.0
H3133 H 0.74346 0.21473 0.04874 0.0
H3134 H 0.73168 0.23696 0.06425 0.0
H3135 H 0.74579 0.25829 0.06974 0.0
C3136 C 0.9841 0.22516 0.75304 0.0
C3137 C 0.9745 0.24402 0.76352 0.0
C3138 C 0.99504 0.2433 0.7573 0.0
C3139 C 0.99664 0.28188 0.77238 0.0
C3140 C 0.98701 0.30107 0.78308 0.0
C3141 C 0.97614 0.2818 0.77867 0.0
C3142 C 0.00495 0.22081 0.74569 0.0
C3143 C 0.98818 0.34239 0.79913 0.0
C3144 C 0.02598 0.29875 0.79775 0.0
C3145 C 0.0307 0.33751 0.78565 0.0
C3146 C 0.01502 0.28049 0.79363 0.0
C3147 C 0.00838 0.30151 0.77707 0.0
C3148 C 0.01309 0.34062 0.76476 0.0
C3149 C 0.02414 0.35782 0.76908 0.0
C3150 C 0.01056 0.23833 0.80702 0.0
C3151 C 0.00639 0.3647 0.74708 0.0
H3152 H 0.98306 0.19547 0.74157 0.0
H3153 H 0.96886 0.29708 0.78681 0.0
H3154 H 0.00944 0.2498 0.73646 0.0
H3155 H 0.01103 0.20529 0.75738 0.0
H3156 H 1.00237 0.19091 0.73454 0.0
H3157 H 0.97993 0.35382 0.80594 0.0
H3158 H 0.99378 0.33058 0.81238 0.0
H3159 H 0.99216 0.37504 0.79145 0.0
H3160 H 0.03093 0.28219 0.81044 0.0
H3161 H 0.02756 0.38809 0.75973 0.0
H3162 H 0.00841 0.20646 0.79661 0.0
H3163 H 1.00269 0.24983 0.81523 0.0
H3164 H 0.01672 0.22579 0.81924 0.0
H3165 H 0.00411 0.3367 0.73487 0.0
H3166 H 0.01111 0.39512 0.73916 0.0
H3167 H 0.99841 0.37989 0.75358 0.0
C3168 C 0.77237 0.6015 0.75766 0.0
C3169 C 0.78195 0.58366 0.76856 0.0
C3170 C 0.76144 0.58315 0.76188 0.0
C3171 C 0.75983 0.54539 0.77736 0.0
C3172 C 0.76944 0.5272 0.78848 0.0
C3173 C 0.7803 0.54666 0.78409 0.0
C3174 C 0.75156 0.60459 0.7498 0.0
C3175 C 0.76825 0.48681 0.80499 0.0
C3176 C 0.7304 0.52972 0.80247 0.0
C3177 C 0.72574 0.49006 0.79084 0.0
C3178 C 0.74136 0.54785 0.79828 0.0
C3179 C 0.74809 0.52583 0.78212 0.0
C3180 C 0.74344 0.48589 0.77024 0.0
C3181 C 0.73238 0.4688 0.77461 0.0
C3182 C 0.74574 0.59092 0.8112 0.0
C3183 C 0.75022 0.46078 0.75298 0.0
H3184 H 0.7734 0.63062 0.7459 0.0
H3185 H 0.78755 0.53217 0.79257 0.0
H3186 H 0.74713 0.57487 0.74092 0.0
H3187 H 0.74541 0.62083 0.76118 0.0
H3188 H 0.75415 0.63374 0.73827 0.0
H3189 H 0.77648 0.47595 0.81204 0.0
H3190 H 0.76259 0.49929 0.81802 0.0
H3191 H 0.76433 0.45364 0.79764 0.0
H3192 H 0.72539 0.54704 0.81487 0.0
H3193 H 0.72901 0.43788 0.76563 0.0
H3194 H 0.74791 0.62213 0.80042 0.0
H3195 H 0.75357 0.58005 0.81968 0.0
H3196 H 0.73951 0.60417 0.82316 0.0
H3197 H 0.75255 0.48802 0.74046 0.0
H3198 H 0.74555 0.42984 0.74536 0.0
H3199 H 0.75818 0.44607 0.7598 0.0
C3200 C 0.97864 0.04981 0.54972 0.0
C3201 C 0.97409 0.08737 0.53666 0.0
C3202 C 0.98941 1.02908 0.54578 0.0
C3203 C 0.99604 0.04627 0.52841 0.0
C3204 C 0.99153 0.08427 0.5152 0.0
C3205 C 0.98068 0.104 0.51938 0.0
C3206 C 0.99367 0.98835 0.56021 0.0
C3207 C 0.99822 0.10441 0.49664 0.0
C3208 C 0.02819 1.02384 0.52915 0.0
C3209 C 0.02953 0.98397 0.5149 0.0
C3210 C 0.01744 0.04427 0.53368 0.0
C3211 C 0.00761 1.02435 0.52397 0.0
C3212 C 0.00889 0.98352 0.50989 0.0
C3213 C 0.01974 0.96415 0.50548 0.0
C3214 C 0.01663 0.08791 0.54864 0.0
C3215 C 0.99877 0.96028 0.49933 0.0
H3216 H 0.97367 1.03589 0.56295 0.0
H3217 H 0.97742 0.13327 0.50925 0.0
H3218 H 0.99544 0.9546 0.55067 0.0
H3219 H 1.00171 0.99973 0.56778 0.0
H3220 H 0.98755 0.97881 0.57298 0.0
H3221 H 0.99366 0.13428 0.48799 0.0
H3222 H 0.00639 0.11928 0.50241 0.0
H3223 H 1.00015 0.07421 0.4852 0.0
H3224 H 0.03561 1.04009 0.53638 0.0
H3225 H 0.02055 0.93306 0.49466 0.0
H3226 H 0.01098 0.07891 0.56221 0.0
H3227 H 0.01288 0.12003 0.54013 0.0
H3228 H 0.02498 0.09899 0.55509 0.0
H3229 H 0.99267 0.94786 0.51165 0.0
H3230 H 1.00107 0.92806 0.4892 0.0
H3231 H 0.9944 0.98809 0.48921 0.0
C3232 C 0.27869 0.27359 0.52048 0.0
C3233 C 0.28027 0.23686 0.53617 0.0
C3234 C 0.26784 0.29304 0.51581 0.0
C3235 C 0.25818 0.27512 0.52681 0.0
C3236 C 0.25972 0.23754 0.54241 0.0
C3237 C 0.27064 0.2192 0.54691 0.0
C3238 C 0.26674 0.33329 0.49921 0.0
C3239 C 0.24978 0.21642 0.55438 0.0
C3240 C 0.23104 0.35388 0.5296 0.0
C3241 C 0.22429 0.33338 0.51336 0.0
C3242 C 0.24202 0.33574 0.53398 0.0
C3243 C 0.24649 0.29547 0.52207 0.0
C3244 C 0.23966 0.27417 0.50587 0.0
C3245 C 0.22876 0.29339 0.50167 0.0
C3246 C 0.24891 0.3602 0.55126 0.0
C3247 C 0.24386 0.2308 0.49292 0.0
H3248 H 0.28598 0.28795 0.51211 0.0
H3249 H 0.27162 0.1903 0.55879 0.0
H3250 H 0.26101 0.32106 0.48625 0.0
H3251 H 0.26295 0.36682 0.50651 0.0
H3252 H 0.275 0.34347 0.49207 0.0
H3253 H 0.2523 0.1869 0.56581 0.0
H3254 H 0.24543 0.24623 0.56337 0.0
H3255 H 0.24359 0.20079 0.54294 0.0
H3256 H 0.22784 0.38515 0.5386 0.0
H3257 H 0.22368 0.2767 0.48923 0.0
H3258 H 0.25691 0.3744 0.54443 0.0
H3259 H 0.25116 0.33269 0.56372 0.0
H3260 H 0.24435 0.39141 0.55895 0.0
H3261 H 0.2517 0.24112 0.48437 0.0
H3262 H 0.23755 0.21801 0.48102 0.0
H3263 H 0.24596 0.19944 0.50368 0.0
C3264 C 0.27922 0.05682 0.78255 0.0
C3265 C 0.28102 0.09258 0.76655 0.0
C3266 C 0.26829 1.03859 0.78721 0.0
C3267 C 0.25876 0.05683 0.77588 0.0
C3268 C 0.26052 0.09348 0.75995 0.0
C3269 C 0.27153 0.11056 0.75544 0.0
C3270 C 0.26695 0.99918 0.80411 0.0
C3271 C 0.25072 0.11486 0.74762 0.0
C3272 C 0.23149 0.9797 0.77285 0.0
C3273 C 0.22466 1.00128 0.7887 0.0
C3274 C 0.24254 0.99693 0.76871 0.0
C3275 C 0.247 1.03739 0.78046 0.0
C3276 C 0.24012 0.05959 0.79637 0.0
C3277 C 0.22915 1.04118 0.80037 0.0
C3278 C 0.2495 0.97143 0.7518 0.0
C3279 C 0.24433 0.10318 0.80914 0.0
H3280 H 0.28641 1.04222 0.79118 0.0
H3281 H 0.2727 0.13869 0.74329 0.0
H3282 H 0.26117 1.01236 0.81682 0.0
H3283 H 0.26311 0.96558 0.797 0.0
H3284 H 0.27512 0.98875 0.81155 0.0
H3285 H 0.2534 0.1439 0.73611 0.0
H3286 H 0.24636 0.08505 0.73867 0.0
H3287 H 0.24449 0.13116 0.75882 0.0
H3288 H 0.22827 0.94842 0.7639 0.0
H3289 H 0.22399 0.05859 0.81254 0.0
H3290 H 0.25745 0.95733 0.75891 0.0
H3291 H 0.25185 0.99827 0.73913 0.0
H3292 H 0.24496 0.93998 0.74429 0.0
H3293 H 0.25212 0.09281 0.81789 0.0
H3294 H 0.238 0.11661 0.82085 0.0
H3295 H 0.24654 0.13409 0.79823 0.0
C3296 C 0.73595 0.85171 0.50742 0.0
C3297 C 0.72654 0.8343 0.51888 0.0
C3298 C 0.74696 0.83366 0.51137 0.0
C3299 C 0.7488 0.79664 0.52712 0.0
C3300 C 0.73934 0.77876 0.53872 0.0
C3301 C 0.72842 0.79787 0.53459 0.0
C3302 C 0.75669 0.85463 0.49874 0.0
C3303 C 0.74074 0.73906 0.55549 0.0
C3304 C 0.776 0.71842 0.52398 0.0
C3305 C 0.78287 0.73974 0.53984 0.0
C3306 C 0.76498 0.73622 0.51979 0.0
C3307 C 0.76058 0.77696 0.5315 0.0
C3308 C 0.76753 0.79905 0.54732 0.0
C3309 C 0.77847 0.78017 0.55134 0.0
C3310 C 0.75796 0.71091 0.50293 0.0
C3311 C 0.76341 0.84288 0.56005 0.0
H3312 H 0.73475 0.88033 0.49548 0.0
H3313 H 0.72129 0.78361 0.54348 0.0
H3314 H 0.76296 0.87124 0.50975 0.0
H3315 H 0.76102 0.82458 0.48988 0.0
H3316 H 0.75394 0.88337 0.48714 0.0
H3317 H 0.7326 0.72851 0.56298 0.0
H3318 H 0.74459 0.70558 0.54825 0.0
H3319 H 0.74655 0.7521 0.56818 0.0
H3320 H 0.77914 0.68682 0.51513 0.0
H3321 H 0.78365 0.79751 0.56347 0.0
H3322 H 0.7555 0.73791 0.49039 0.0
H3323 H 0.75007 0.69659 0.51017 0.0
H3324 H 0.7625 0.67964 0.49525 0.0
H3325 H 0.76112 0.87367 0.54912 0.0
H3326 H 0.76982 0.85643 0.57158 0.0
H3327 H 0.75568 0.83269 0.56902 0.0
C3328 C 0.73182 0.98705 0.27395 0.0
C3329 C 0.72551 1.00616 0.29112 0.0
C3330 C 0.7427 1.00513 0.26898 0.0
C3331 C 0.74755 0.04371 0.28133 0.0
C3332 C 0.74117 0.06369 0.29848 0.0
C3333 C 0.73033 0.04474 0.30317 0.0
C3334 C 0.7491 0.98226 0.25064 0.0
C3335 C 0.74584 0.10505 0.31203 0.0
C3336 C 0.77982 0.05923 0.28167 0.0
C3337 C 0.78156 0.09803 0.267 0.0
C3338 C 0.76889 1.04136 0.28644 0.0
C3339 C 0.75929 0.0627 0.27647 0.0
C3340 C 0.76097 0.10207 0.26176 0.0
C3341 C 0.77199 0.11904 0.2572 0.0
C3342 C 0.76764 0.99919 0.30209 0.0
C3343 C 0.75108 0.12645 0.2508 0.0
H3344 H 0.72836 0.95683 0.26465 0.0
H3345 H 0.72558 0.06041 0.31632 0.0
H3346 H 0.75144 1.01123 0.23887 0.0
H3347 H 0.75705 0.96553 0.2566 0.0
H3348 H 0.74415 0.95319 0.24231 0.0
H3349 H 0.7398 0.11741 0.32449 0.0
H3350 H 0.75372 0.0927 0.31997 0.0
H3351 H 0.74802 0.13723 0.3018 0.0
H3352 H 0.78706 1.04203 0.2892 0.0
H3353 H 0.77311 0.1494 0.24607 0.0
H3354 H 0.76347 0.96735 0.29417 0.0
H3355 H 0.76217 1.01067 0.31559 0.0
H3356 H 0.77587 0.98663 0.30861 0.0
H3357 H 0.74633 0.09859 0.24142 0.0
H3358 H 0.75372 0.1568 0.23991 0.0
H3359 H 0.74521 0.1418 0.26291 0.0
C3360 C 0.47727 0.56923 0.52506 0.0
C3361 C 0.47554 0.60823 0.53962 0.0
C3362 C 0.48818 0.55037 0.52071 0.0
C3363 C 0.49778 0.57094 0.53097 0.0
C3364 C 0.49611 0.61076 0.54543 0.0
C3365 C 0.48511 0.62866 0.54959 0.0
C3366 C 0.48942 0.50778 0.5053 0.0
C3367 C 0.50599 0.63453 0.55661 0.0
C3368 C 0.52503 0.49337 0.53515 0.0
C3369 C 0.53161 0.51158 0.51816 0.0
C3370 C 0.51411 0.51221 0.53947 0.0
C3371 C 0.50952 0.55074 0.52666 0.0
C3372 C 0.51618 0.56979 0.5097 0.0
C3373 C 0.52703 0.55003 0.50564 0.0
C3374 C 0.50741 0.49026 0.55763 0.0
C3375 C 0.51181 0.61111 0.4957 0.0
H3376 H 0.47003 0.55248 0.51739 0.0
H3377 H 0.48401 0.65915 0.56065 0.0
H3378 H 0.49512 0.51837 0.49202 0.0
H3379 H 0.49331 0.47565 0.51356 0.0
H3380 H 0.48121 0.49602 0.49846 0.0
H3381 H 0.50338 0.66563 0.56712 0.0
H3382 H 0.51047 0.60657 0.56646 0.0
H3383 H 0.51209 0.64872 0.54466 0.0
H3384 H 0.5283 0.46331 0.54482 0.0
H3385 H 0.53199 0.56505 0.49263 0.0
H3386 H 0.49945 0.47426 0.55142 0.0
H3387 H 0.50508 0.51964 0.5692 0.0
H3388 H 0.51213 0.46082 0.56624 0.0
H3389 H 0.50397 0.59921 0.48754 0.0
H3390 H 0.51804 0.62257 0.4834 0.0
H3391 H 0.50966 0.64378 0.50564 0.0
C3392 C 0.52265 0.85779 0.79676 0.0
C3393 C 0.53237 0.83845 0.78692 0.0
C3394 C 0.5118 0.83851 0.79254 0.0
C3395 C 0.51046 0.79818 0.77823 0.0
C3396 C 0.52023 0.77863 0.76813 0.0
C3397 C 0.53099 0.79913 0.77243 0.0
C3398 C 0.50172 0.86147 0.80345 0.0
C3399 C 0.51933 0.73542 0.75297 0.0
C3400 C 0.48335 0.72033 0.78333 0.0
C3401 C 0.47668 0.73796 0.76635 0.0
C3402 C 0.49433 0.73885 0.78714 0.0
C3403 C 0.49886 0.77672 0.7739 0.0
C3404 C 0.49215 0.79484 0.75682 0.0
C3405 C 0.48126 0.77519 0.75319 0.0
C3406 C 0.50113 0.71771 0.80537 0.0
C3407 C 0.49641 0.83563 0.74245 0.0
H3408 H 0.52351 0.88856 0.80775 0.0
H3409 H 0.53838 0.7835 0.76483 0.0
H3410 H 0.49556 0.87443 0.79132 0.0
H3411 H 0.49741 0.83337 0.81345 0.0
H3412 H 0.50409 0.8933 0.81375 0.0
H3413 H 0.52766 0.7243 0.74639 0.0
H3414 H 0.51557 0.70319 0.76134 0.0
H3415 H 0.51366 0.74497 0.73949 0.0
H3416 H 0.48003 0.69132 0.79351 0.0
H3417 H 0.47621 0.78976 0.74019 0.0
H3418 H 0.50312 0.74731 0.81705 0.0
H3419 H 0.50927 0.7031 0.79931 0.0
H3420 H 0.49662 0.68745 0.81382 0.0
H3421 H 0.49826 0.86915 0.75207 0.0
H3422 H 0.49024 0.84563 0.7298 0.0
H3423 H 0.5044 0.82411 0.73472 0.0
C3424 C 0.52199 0.37076 0.30212 0.0
C3425 C 0.53145 0.35093 0.29153 0.0
C3426 C 0.51095 0.35306 0.29822 0.0
C3427 C 0.50913 0.31406 0.28341 0.0
C3428 C 0.51862 0.29386 0.27267 0.0
C3429 C 0.52957 0.31249 0.27677 0.0
C3430 C 0.50119 0.37635 0.30997 0.0
C3431 C 0.51723 0.2521 0.25689 0.0
C3432 C 0.4819 0.23654 0.2871 0.0
C3433 C 0.47527 0.25575 0.27037 0.0
C3434 C 0.49281 0.25516 0.29156 0.0
C3435 C 0.49735 0.29447 0.27915 0.0
C3436 C 0.49062 0.31462 0.2625 0.0
C3437 C 0.47977 0.29508 0.2583 0.0
C3438 C 0.49958 0.23204 0.30937 0.0
C3439 C 0.49493 0.35677 0.24894 0.0
H3440 H 0.5232 0.40081 0.31335 0.0
H3441 H 0.53672 0.29614 0.26864 0.0
H3442 H 0.49505 0.39177 0.29834 0.0
H3443 H 0.4967 0.34782 0.31947 0.0
H3444 H 0.50392 0.40646 0.32087 0.0
H3445 H 0.52539 0.24024 0.24983 0.0
H3446 H 0.51329 0.21978 0.26488 0.0
H3447 H 0.51151 0.26369 0.24378 0.0
H3448 H 0.47868 0.20581 0.29642 0.0
H3449 H 0.47477 0.31087 0.2455 0.0
H3450 H 0.50205 0.26074 0.32115 0.0
H3451 H 0.50747 0.21596 0.30283 0.0
H3452 H 0.49486 0.20241 0.31782 0.0
H3453 H 0.4972 0.38866 0.25923 0.0
H3454 H 0.48862 0.36928 0.23696 0.0
H3455 H 0.50269 0.34517 0.24041 0.0
C3456 C 0.48412 0.10061 0.05235 0.0
C3457 C 0.47441 0.08368 0.04171 0.0
C3458 C 0.49495 0.08103 0.04793 0.0
C3459 C 0.49629 0.04261 0.03265 0.0
C3460 C 0.4865 1.025 1.02197 0.0
C3461 C 0.47577 0.04592 1.02643 0.0
C3462 C 0.50503 0.1021 0.05947 0.0
C3463 C 0.48734 0.98373 1.00582 0.0
C3464 C 0.52528 1.02287 1.0061 0.0
C3465 C 0.53 0.98372 1.01802 0.0
C3466 C 0.51446 1.04227 1.01072 0.0
C3467 C 0.50791 1.02187 1.02754 0.0
C3468 C 0.51259 0.98216 0.03958 0.0
C3469 C 0.52355 0.96403 0.03486 0.0
C3470 C 0.51008 0.08515 0.99764 0.0
C3471 C 0.50597 0.95842 0.05742 0.0
H3472 H 0.4833 0.13015 0.06396 0.0
H3473 H 0.4684 1.03206 1.01817 0.0
H3474 H 0.50944 0.07238 0.06843 0.0
H3475 H 0.51112 0.11734 0.04772 0.0
H3476 H 0.50267 0.13192 0.07084 0.0
H3477 H 0.47897 0.97286 0.99939 0.0
H3478 H 0.49278 0.99535 0.99232 0.0
H3479 H 0.49134 0.95077 1.01325 0.0
H3480 H 0.53016 1.03903 0.99323 0.0
H3481 H 0.52698 0.93363 0.04412 0.0
H3482 H 0.50816 0.11695 1.00825 0.0
H3483 H 0.50211 0.07458 0.98959 0.0
H3484 H 0.51621 0.09741 0.9853 0.0
H3485 H 0.50401 0.98632 0.06987 0.0
H3486 H 0.51059 0.92719 0.06497 0.0
H3487 H 0.49781 0.94444 0.05118 0.0
C3488 C 0.06494 0.58686 0.11558 0.0
C3489 C 0.06858 0.54387 0.12613 0.0
C3490 C 0.06493 0.63302 0.12595 0.0
C3491 C 0.06886 0.63651 0.14728 0.0
C3492 C 0.07211 0.59287 0.15829 0.0
C3493 C 0.07182 0.54705 0.14765 0.0
C3494 C 0.06127 0.67844 0.11369 0.0
C3495 C 0.07658 0.59485 0.18086 0.0
C3496 C 0.08272 0.758 0.16292 0.0
C3497 C 0.07442 0.78059 0.17559 0.0
C3498 C 0.08103 0.7111 0.15385 0.0
C3499 C 0.07069 0.68619 0.15718 0.0
C3500 C 0.06219 0.70893 0.16975 0.0
C3501 C 0.0642 0.75571 0.17898 0.0
C3502 C 0.09041 0.68791 0.14094 0.0
C3503 C 0.05102 0.68375 0.17347 0.0
H3504 H 0.06238 0.58469 0.09898 0.0
H3505 H 0.07472 0.5141 0.1559 0.0
H3506 H 0.05531 0.70084 0.12334 0.0
H3507 H 0.06872 0.70199 0.1103 0.0
H3508 H 0.05718 0.66885 0.09828 0.0
H3509 H 0.07738 0.55739 0.18808 0.0
H3510 H 0.08502 0.61241 0.18081 0.0
H3511 H 0.07103 0.61777 0.19113 0.0
H3512 H 0.09072 0.77649 0.16046 0.0
H3513 H 0.05776 0.77281 0.18881 0.0
H3514 H 0.08739 0.6792 0.1246 0.0
H3515 H 0.09306 0.65249 0.14843 0.0
H3516 H 0.09791 0.71237 0.13964 0.0
H3517 H 0.0469 0.67577 0.15794 0.0
H3518 H 0.04522 0.70662 0.18331 0.0
H3519 H 0.05237 0.64774 0.18164 0.0
C3520 C 0.16855 0.56193 0.15913 0.0
C3521 C 0.17632 0.54248 0.17385 0.0
C3522 C 0.17032 0.60799 0.14927 0.0
C3523 C 0.18017 0.63549 0.15399 0.0
C3524 C 0.18827 0.61532 0.16822 0.0
C3525 C 0.18622 0.56918 0.17808 0.0
C3526 C 0.16137 0.62817 0.13446 0.0
C3527 C 0.19892 0.64314 0.17355 0.0
C3528 C 0.186 0.74147 0.11514 0.0
C3529 C 0.1808 0.78145 0.12554 0.0
C3530 C 0.1864 0.69415 0.12465 0.0
C3531 C 0.18149 0.68661 0.14505 0.0
C3532 C 0.1768 0.72751 0.15608 0.0
C3533 C 0.17651 0.77427 0.14621 0.0
C3534 C 0.19155 0.65169 0.11239 0.0
C3535 C 0.17155 0.7214 0.17789 0.0
H3536 H 0.16084 0.54189 0.15578 0.0
H3537 H 0.19228 0.55454 0.18941 0.0
H3538 H 0.15756 0.66184 0.14161 0.0
H3539 H 0.16516 0.63914 0.11897 0.0
H3540 H 0.15455 0.60096 0.13136 0.0
H3541 H 0.20487 0.62044 0.18316 0.0
H3542 H 0.20322 0.65521 0.1587 0.0
H3543 H 0.1968 0.677 0.18274 0.0
H3544 H 0.18934 0.74655 0.09917 0.0
H3545 H 0.17255 0.80494 0.15448 0.0
H3546 H 0.18479 0.62608 0.10713 0.0
H3547 H 0.19737 0.63027 0.12276 0.0
H3548 H 0.19623 0.66454 0.09806 0.0
H3549 H 0.16428 0.69583 0.17681 0.0
H3550 H 0.16859 0.75711 0.18468 0.0
H3551 H 0.1777 0.70459 0.1891 0.0
C3552 C 0.92014 0.52425 0.90576 0.0
C3553 C 0.92721 0.5395 0.9225 0.0
C3554 C 0.92176 0.47861 0.89545 0.0
C3555 C 0.93069 0.44711 0.90191 0.0
C3556 C 0.93818 0.46325 0.91812 0.0
C3557 C 0.93634 0.50918 0.92825 0.0
C3558 C 0.91347 0.46289 0.87847 0.0
C3559 C 0.94785 0.43106 0.9254 0.0
C3560 C 0.9249 0.31009 0.89315 0.0
C3561 C 0.93042 0.30072 0.87372 0.0
C3562 C 0.92532 0.35693 0.90285 0.0
C3563 C 0.93145 0.39571 0.89303 0.0
C3564 C 0.93749 0.38596 0.87394 0.0
C3565 C 0.9369 0.33861 0.86449 0.0
C3566 C 0.91872 0.36551 0.92314 0.0
C3567 C 0.94416 0.42616 0.86297 0.0
H3568 H 0.91306 0.54727 0.90112 0.0
H3569 H 0.94186 0.52055 0.94114 0.0
H3570 H 0.91794 0.44871 0.86416 0.0
H3571 H 0.9082 0.43234 0.88481 0.0
H3572 H 0.90782 0.49365 0.8735 0.0
H3573 H 0.95364 0.45102 0.93637 0.0
H3574 H 0.94451 0.39805 0.93385 0.0
H3575 H 0.95274 0.41757 0.91146 0.0
H3576 H 0.91991 0.28115 0.90051 0.0
H3577 H 0.94118 0.33188 0.84947 0.0
H3578 H 0.91186 0.39255 0.92005 0.0
H3579 H 0.92425 0.38158 0.93563 0.0
H3580 H 0.91491 0.3309 0.92946 0.0
H3581 H 0.93831 0.45453 0.85652 0.0
H3582 H 0.94934 0.41152 0.84961 0.0
H3583 H 0.94978 0.44498 0.87457 0.0
C3584 C 0.83305 0.32605 0.91626 0.0
C3585 C 0.82473 0.30284 0.92867 0.0
C3586 C 0.83119 0.37258 0.90688 0.0
C3587 C 0.82066 0.39644 0.9096 0.0
C3588 C 0.81215 0.373 0.92189 0.0
C3589 C 0.81433 0.32668 0.93148 0.0
C3590 C 0.8406 0.39652 0.8943 0.0
C3591 C 0.80075 0.39686 0.92486 0.0
C3592 C 0.82092 0.5357 0.89985 0.0
C3593 C 0.81801 0.53838 0.87816 0.0
C3594 C 0.82142 0.48993 0.91056 0.0
C3595 C 0.81867 0.44583 0.89945 0.0
C3596 C 0.81508 0.44875 0.87789 0.0
C3597 C 0.81493 0.49487 0.86744 0.0
C3598 C 0.82556 0.48854 0.93337 0.0
C3599 C 0.81192 0.40286 0.86552 0.0
H3600 H 0.84118 0.30836 0.91424 0.0
H3601 H 0.80787 0.30904 0.94108 0.0
H3602 H 0.8378 0.40409 0.87772 0.0
H3603 H 0.84286 0.4326 0.90162 0.0
H3604 H 0.84829 0.37305 0.89367 0.0
H3605 H 0.79495 0.37344 0.93444 0.0
H3606 H 0.80172 0.43314 0.93296 0.0
H3607 H 0.79683 0.4041 0.90906 0.0
H3608 H 0.82345 0.56906 0.90815 0.0
H3609 H 0.81266 0.49672 0.85068 0.0
H3610 H 0.83385 0.46952 0.93403 0.0
H3611 H 0.81966 0.4671 0.94353 0.0
H3612 H 0.82653 0.52622 0.94025 0.0
H3613 H 0.81958 0.38029 0.8625 0.0
H3614 H 0.80797 0.41191 0.8499 0.0
H3615 H 0.80599 0.37969 0.8749 0.0
C3616 C 0.08916 0.2736 0.65862 0.0
C3617 C 0.08268 0.28246 0.67703 0.0
C3618 C 0.08896 0.22749 0.6481 0.0
C3619 C 0.08214 0.18856 0.65606 0.0
C3620 C 0.07545 0.19738 0.67448 0.0
C3621 C 0.07577 0.2441 0.68469 0.0
C3622 C 0.09624 0.22024 0.62861 0.0
C3623 C 0.06815 0.157 0.68372 0.0
C3624 C 0.0757 0.08123 0.61772 0.0
C3625 C 0.08395 0.04615 0.62332 0.0
C3626 C 0.07484 0.12705 0.62852 0.0
C3627 C 0.08237 0.13842 0.64545 0.0
C3628 C 0.09054 0.10269 0.65148 0.0
C3629 C 0.09124 0.05732 0.64039 0.0
C3630 C 0.06606 0.16398 0.62136 0.0
C3631 C 0.09877 0.11286 0.66935 0.0
H3632 H 0.09456 0.30267 0.65251 0.0
H3633 H 0.0708 0.25015 0.69897 0.0
H3634 H 0.10257 0.19079 0.63169 0.0
H3635 H 0.09102 0.20799 0.61489 0.0
H3636 H 0.10076 0.25464 0.62404 0.0
H3637 H 0.0631 0.17005 0.69757 0.0
H3638 H 0.06232 0.14261 0.67133 0.0
H3639 H 0.07351 0.12558 0.68898 0.0
H3640 H 0.07006 0.07339 0.60454 0.0
H3641 H 0.09768 1.03084 0.64491 0.0
H3642 H 0.07026 0.19761 0.61502 0.0
H3643 H 0.06081 0.17569 0.63514 0.0
H3644 H 0.06045 0.14877 0.60877 0.0
H3645 H 0.10431 0.14433 0.66494 0.0
H3646 H 0.10417 0.08028 0.67301 0.0
H3647 H 0.09417 0.12367 0.68406 0.0
C3648 C 0.18171 0.05441 0.65412 0.0
C3649 C 0.18493 0.0523 0.67571 0.0
C3650 C 0.18056 0.09998 0.64335 0.0
C3651 C 0.18293 0.14485 0.65421 0.0
C3652 C 0.18656 0.14283 0.6758 0.0
C3653 C 0.18739 0.09675 0.68634 0.0
C3654 C 0.17638 0.10011 0.62055 0.0
C3655 C 0.18931 0.18951 0.68796 0.0
C3656 C 0.18741 0.26174 0.62037 0.0
C3657 C 0.17691 0.28543 0.62208 0.0
C3658 C 0.18957 0.21651 0.63099 0.0
C3659 C 0.18098 0.19384 0.64338 0.0
C3660 C 0.17037 0.21767 0.64515 0.0
C3661 C 0.16851 0.26308 0.63466 0.0
C3662 C 0.20103 0.19276 0.62885 0.0
C3663 C 0.16088 0.19475 0.65785 0.0
H3664 H 0.17965 1.02044 0.64579 0.0
H3665 H 0.18985 0.09559 0.70301 0.0
H3666 H 0.16816 0.11968 0.61966 0.0
H3667 H 0.18235 0.12046 0.61014 0.0
H3668 H 0.17527 0.06208 0.61412 0.0
H3669 H 0.19297 0.18156 0.70394 0.0
H3670 H 0.19536 0.21248 0.67876 0.0
H3671 H 0.18155 0.21184 0.69015 0.0
H3672 H 0.19396 0.27851 0.6107 0.0
H3673 H 0.16032 0.28061 0.636 0.0
H3674 H 0.20021 0.1561 0.62103 0.0
H3675 H 0.20472 0.18635 0.64491 0.0
H3676 H 0.20695 0.21582 0.61936 0.0
H3677 H 0.1588 0.15773 0.65126 0.0
H3678 H 0.15313 0.21788 0.65764 0.0
H3679 H 0.16351 0.18928 0.67469 0.0
C3680 C 0.91664 0.99943 0.41531 0.0
C3681 C 0.92528 1.02849 0.42418 0.0
C3682 C 0.91896 0.95429 0.40497 0.0
C3683 C 0.93025 0.93769 0.40302 0.0
C3684 C 0.93904 0.9671 0.4117 0.0
C3685 C 0.93645 1.01182 0.42236 0.0
C3686 C 0.90926 0.9238 0.39655 0.0
C3687 C 0.95119 0.9512 0.4098 0.0
C3688 C 0.93462 0.79922 0.39291 0.0
C3689 C 0.93562 0.7972 0.37057 0.0
C3690 C 0.93308 0.84453 0.4037 0.0
C3691 C 0.93276 0.88947 0.39197 0.0
C3692 C 0.93415 0.88786 0.36947 0.0
C3693 C 0.93548 0.8419 0.35906 0.0
C3694 C 0.93136 0.84402 0.4276 0.0
C3695 C 0.934 0.93474 0.35631 0.0
H3696 H 0.90795 1.01137 0.4169 0.0
H3697 H 0.94317 1.03383 0.42918 0.0
H3698 H 0.91075 0.9133 0.37967 0.0
H3699 H 0.90859 0.88899 0.4059 0.0
H3700 H 0.90108 0.94376 0.3976 0.0
H3701 H 0.95707 0.97864 0.41689 0.0
H3702 H 0.95243 0.91509 0.41794 0.0
H3703 H 0.95341 0.94589 0.39274 0.0
H3704 H 0.93459 0.7651 0.40194 0.0
H3705 H 0.93622 0.84096 0.34181 0.0
H3706 H 0.92281 0.85809 0.43146 0.0
H3707 H 0.93751 0.86898 0.43545 0.0
H3708 H 0.93227 0.8063 0.4345 0.0
H3709 H 0.92598 0.95506 0.35892 0.0
H3710 H 0.93494 0.9273 0.33895 0.0
H3711 H 0.94094 0.95946 0.36151 0.0
C3712 C 0.82502 0.82307 0.43756 0.0
C3713 C 0.83143 0.78405 0.42906 0.0
C3714 C 0.82434 0.8694 0.42712 0.0
C3715 C 0.83013 0.87705 0.40755 0.0
C3716 C 0.83624 0.83709 0.39849 0.0
C3717 C 0.83687 0.79145 0.40937 0.0
C3718 C 0.8178 0.91084 0.43749 0.0
C3719 C 0.84263 0.84306 0.37779 0.0
C3720 C 0.82345 0.98981 0.3722 0.0
C3721 C 0.83223 1.02245 0.37751 0.0
C3722 C 0.82253 0.94278 0.38202 0.0
C3723 C 0.8306 0.92768 0.39747 0.0
C3724 C 0.83942 0.96063 0.40292 0.0
C3725 C 0.84008 1.0074 0.39305 0.0
C3726 C 0.81309 0.90867 0.37547 0.0
C3727 C 0.8483 0.9462 0.41904 0.0
H3728 H 0.82083 0.81806 0.4528 0.0
H3729 H 0.84187 0.76176 0.40258 0.0
H3730 H 0.82369 0.94054 0.44249 0.0
H3731 H 0.8118 0.92739 0.42591 0.0
H3732 H 0.81303 0.8981 0.45174 0.0
H3733 H 0.84503 0.80677 0.37078 0.0
H3734 H 0.83759 0.86401 0.36588 0.0
H3735 H 0.85045 0.8643 0.38087 0.0
H3736 H 0.81738 1.00068 0.36013 0.0
H3737 H 0.84696 1.03188 0.39727 0.0
H3738 H 0.8082 0.897 0.38972 0.0
H3739 H 0.81664 0.87467 0.36813 0.0
H3740 H 0.80725 0.92633 0.36385 0.0
H3741 H 0.84424 0.93789 0.4346 0.0
H3742 H 0.85468 0.97577 0.4214 0.0
H3743 H 0.85272 0.91209 0.41379 0.0
C3744 C 0.56119 0.55423 0.64582 0.0
C3745 C 0.56972 0.54722 0.63064 0.0
C3746 C 0.56126 0.59581 0.6594 0.0
C3747 C 0.57027 0.63025 0.65826 0.0
C3748 C 0.57902 0.62264 0.64323 0.0
C3749 C 0.57854 0.58172 0.62941 0.0
C3750 C 0.55171 0.60285 0.67503 0.0
C3751 C 0.58901 0.6572 0.64199 0.0
C3752 C 0.56725 0.76128 0.68048 0.0
C3753 C 0.57215 0.75643 0.70074 0.0
C3754 C 0.56632 0.72026 0.66669 0.0
C3755 C 0.5707 0.67362 0.67307 0.0
C3756 C 0.57577 0.66872 0.69345 0.0
C3757 C 0.57631 0.70995 0.7071 0.0
C3758 C 0.56069 0.72685 0.64526 0.0
C3759 C 0.58095 0.62032 0.70063 0.0
H3760 H 0.5544 0.52754 0.64688 0.0
H3761 H 0.58528 0.57594 0.61799 0.0
H3762 H 0.55499 0.60124 0.69162 0.0
H3763 H 0.54786 0.63996 0.67279 0.0
H3764 H 0.54506 0.57425 0.67321 0.0
H3765 H 0.59529 0.64511 0.62991 0.0
H3766 H 0.58616 0.69516 0.63789 0.0
H3767 H 0.59324 0.65931 0.65778 0.0
H3768 H 0.56407 0.79709 0.67545 0.0
H3769 H 0.5803 0.70602 0.72258 0.0
H3770 H 0.55379 0.69946 0.6434 0.0
H3771 H 0.56686 0.71991 0.63228 0.0
H3772 H 0.55715 0.76465 0.64317 0.0
H3773 H 0.57492 0.58938 0.69851 0.0
H3774 H 0.58362 0.6213 0.71763 0.0
H3775 H 0.58844 0.61198 0.69064 0.0
C3776 C 0.68746 0.73908 0.62355 0.0
C3777 C 0.6824 0.78055 0.63305 0.0
C3778 C 0.68701 0.6921 0.63334 0.0
C3779 C 0.68122 0.68618 0.65299 0.0
C3780 C 0.6762 0.72805 0.66278 0.0
C3781 C 0.67691 0.77462 0.65278 0.0
C3782 C 0.69247 0.64851 0.62236 0.0
C3783 C 0.66976 0.72342 0.68351 0.0
C3784 C 0.66916 0.5598 0.66766 0.0
C3785 C 0.67687 0.54266 0.68303 0.0
C3786 C 0.67056 0.60601 0.65764 0.0
C3787 C 0.67995 0.63596 0.6629 0.0
C3788 C 0.68789 0.6185 0.67808 0.0
C3789 C 0.68623 0.57221 0.68802 0.0
C3790 C 0.66186 0.62319 0.64167 0.0
C3791 C 0.69802 0.6492 0.68415 0.0
H3792 H 0.69167 0.74316 0.60827 0.0
H3793 H 0.67282 0.80617 0.66017 0.0
H3794 H 0.69831 0.62937 0.6335 0.0
H3795 H 0.68593 0.62134 0.61763 0.0
H3796 H 0.69724 0.65969 0.60786 0.0
H3797 H 0.66238 0.69877 0.68123 0.0
H3798 H 0.67517 0.7063 0.69595 0.0
H3799 H 0.6667 0.75978 0.68947 0.0
H3800 H 0.66184 0.53759 0.66377 0.0
H3801 H 0.69222 0.55944 0.6999 0.0
H3802 H 0.66599 0.63127 0.62618 0.0
H3803 H 0.65789 0.65805 0.64727 0.0
H3804 H 0.65513 0.59528 0.63901 0.0
H3805 H 0.70291 0.65908 0.66965 0.0
H3806 H 0.70367 0.62956 0.6955 0.0
H3807 H 0.6952 0.68434 0.69162 0.0
C3808 C 0.42671 0.30482 0.40195 0.0
C3809 C 0.4307 0.301 0.38087 0.0
C3810 C 0.42542 0.35112 0.41196 0.0
C3811 C 0.42824 0.39498 0.40075 0.0
C3812 C 0.43242 0.39139 0.37958 0.0
C3813 C 0.4336 0.34456 0.36992 0.0
C3814 C 0.42071 0.35315 0.43436 0.0
C3815 C 0.43527 0.43721 0.36687 0.0
C3816 C 0.41439 0.51557 0.41879 0.0
C3817 C 0.42292 0.53752 0.4311 0.0
C3818 C 0.41602 0.46953 0.40875 0.0
C3819 C 0.42648 0.44465 0.4109 0.0
C3820 C 0.43519 0.46692 0.42307 0.0
C3821 C 0.43329 0.51289 0.4331 0.0
C3822 C 0.40633 0.44689 0.39655 0.0
C3823 C 0.44646 0.44174 0.42579 0.0
H3824 H 0.42428 0.27159 0.41051 0.0
H3825 H 0.43655 0.34224 0.35357 0.0
H3826 H 0.42641 0.37467 0.44489 0.0
H3827 H 0.41245 0.37242 0.43421 0.0
H3828 H 0.41951 0.3157 0.44136 0.0
H3829 H 0.43894 0.42822 0.35101 0.0
H3830 H 0.42752 0.45958 0.36438 0.0
H3831 H 0.44133 0.46054 0.37583 0.0
H3832 H 0.40626 0.53372 0.41743 0.0
H3833 H 0.43992 0.52939 0.44265 0.0
H3834 H 0.40212 0.41889 0.40678 0.0
H3835 H 0.40932 0.4278 0.38195 0.0
H3836 H 0.39995 0.47507 0.39192 0.0
H3837 H 0.4453 0.40549 0.43386 0.0
H3838 H 0.45245 0.46432 0.43533 0.0
H3839 H 0.45026 0.43428 0.40992 0.0
C3840 C 0.33179 0.4896 0.39105 0.0
C3841 C 0.32456 0.51114 0.37586 0.0
C3842 C 0.32918 0.44448 0.4009 0.0
C3843 C 0.31895 0.42034 0.39581 0.0
C3844 C 0.31129 0.44313 0.38142 0.0
C3845 C 0.31421 0.48829 0.3715 0.0
C3846 C 0.33766 0.42156 0.41602 0.0
C3847 C 0.30022 0.41887 0.37592 0.0
C3848 C 0.32055 0.28128 0.40431 0.0
C3849 C 0.31669 0.2768 0.42539 0.0
C3850 C 0.32081 0.32754 0.39403 0.0
C3851 C 0.31675 0.3701 0.40483 0.0
C3852 C 0.31204 0.36501 0.42551 0.0
C3853 C 0.31222 0.31855 0.43567 0.0
C3854 C 0.32626 0.33139 0.37229 0.0
C3855 C 0.30745 0.40917 0.43746 0.0
H3856 H 0.33976 0.5072 0.39479 0.0
H3857 H 0.30858 0.50466 0.35981 0.0
H3858 H 0.33373 0.41473 0.43182 0.0
H3859 H 0.34046 0.38521 0.40969 0.0
H3860 H 0.34521 0.44527 0.41837 0.0
H3861 H 0.29472 0.44349 0.36624 0.0
H3862 H 0.30182 0.38444 0.36673 0.0
H3863 H 0.29567 0.40819 0.3907 0.0
H3864 H 0.3241 0.24925 0.39632 0.0
H3865 H 0.30917 0.31523 0.45194 0.0
H3866 H 0.33445 0.35095 0.37379 0.0
H3867 H 0.3209 0.35331 0.36126 0.0
H3868 H 0.32785 0.29445 0.36508 0.0
H3869 H 0.31454 0.43265 0.44299 0.0
H3870 H 0.30243 0.39792 0.45163 0.0
H3871 H 0.30209 0.43221 0.42685 0.0
C3872 C 0.57369 0.0696 0.12654 0.0
C3873 C 0.58319 1.03918 0.12928 0.0
C3874 C 0.57225 0.11312 0.13872 0.0
C3875 C 0.58052 0.12691 0.15399 0.0
C3876 C 0.59018 0.09654 0.1566 0.0
C3877 C 0.59138 0.05332 0.14427 0.0
C3878 C 0.56186 0.14438 0.13531 0.0
C3879 C 0.59949 0.10994 0.17194 0.0
C3880 C 0.58156 0.2597 0.17561 0.0
C3881 C 0.57638 0.25441 0.19566 0.0
C3882 C 0.58294 0.21881 0.16182 0.0
C3883 C 0.57879 0.17159 0.16793 0.0
C3884 C 0.5733 0.16646 0.18792 0.0
C3885 C 0.57223 0.20766 0.20152 0.0
C3886 C 0.58931 0.22575 0.14117 0.0
C3887 C 0.56895 0.11682 0.19534 0.0
H3888 H 0.56735 0.05939 0.11488 0.0
H3889 H 0.59889 1.03086 0.14626 0.0
H3890 H 0.55693 0.1464 0.15035 0.0
H3891 H 0.56433 0.18277 0.13104 0.0
H3892 H 0.55635 0.12946 0.1225 0.0
H3893 H 0.60438 0.0768 0.17696 0.0
H3894 H 0.60537 0.1356 0.16377 0.0
H3895 H 0.59623 0.12863 0.18643 0.0
H3896 H 0.58493 0.29544 0.17102 0.0
H3897 H 0.56827 0.20299 0.21699 0.0
H3898 H 0.5907 0.26548 0.13739 0.0
H3899 H 0.58475 0.20816 0.1277 0.0
H3900 H 0.59765 0.20744 0.14253 0.0
H3901 H 0.56317 0.10096 0.18321 0.0
H3902 H 0.56441 0.11932 0.21082 0.0
H3903 H 0.57612 0.09071 0.1972 0.0
C3904 C 0.68079 0.29102 0.15438 0.0
C3905 C 0.685 0.29661 0.13356 0.0
C3906 C 0.68091 0.24474 0.16476 0.0
C3907 C 0.68556 0.20293 0.15425 0.0
C3908 C 0.69024 0.20883 0.13356 0.0
C3909 C 0.6898 0.25537 0.12339 0.0
C3910 C 0.67545 0.2403 0.18646 0.0
C3911 C 0.69531 0.16546 0.12178 0.0
C3912 C 0.69167 0.08661 0.1875 0.0
C3913 C 0.6822 0.05728 0.18299 0.0
C3914 C 0.69301 0.13374 0.17801 0.0
C3915 C 0.68459 0.15234 0.16402 0.0
C3916 C 0.67506 0.12271 0.15947 0.0
C3917 C 0.67403 0.07567 0.16881 0.0
C3918 C 0.70333 0.16398 0.1832 0.0
C3919 C 0.66566 0.14149 0.14542 0.0
H3920 H 0.6769 0.32239 0.16228 0.0
H3921 H 0.69306 0.25927 0.10731 0.0
H3922 H 0.66705 0.22281 0.18462 0.0
H3923 H 0.68052 0.21653 0.19726 0.0
H3924 H 0.67424 0.27702 0.19412 0.0
H3925 H 0.6996 0.17698 0.10681 0.0
H3926 H 0.70148 0.14591 0.13212 0.0
H3927 H 0.68858 0.1386 0.11767 0.0
H3928 H 0.698 0.07286 0.1985 0.0
H3929 H 0.66658 0.05385 0.16543 0.0
H3930 H 0.70079 0.19878 0.1913 0.0
H3931 H 0.70774 0.17453 0.16824 0.0
H3932 H 0.70931 0.14367 0.19368 0.0
H3933 H 0.66154 0.17324 0.15349 0.0
H3934 H 0.65916 0.11282 0.14222 0.0
H3935 H 0.66902 0.15491 0.12993 0.0
C3936 C 0.4399 0.04457 0.90769 0.0
C3937 C 0.44001 0.04551 0.9301 0.0
C3938 C 0.43918 0.99957 0.89644 0.0
C3939 C 0.43865 0.95426 0.90787 0.0
C3940 C 0.43957 0.95486 0.93043 0.0
C3941 C 0.4402 1.00037 0.94126 0.0
C3942 C 0.43811 1.00112 0.87242 0.0
C3943 C 0.43913 0.90756 0.94329 0.0
C3944 C 0.42106 0.8499 0.88468 0.0
C3945 C 0.42925 0.81772 0.87626 0.0
C3946 C 0.42404 0.89445 0.89465 0.0
C3947 C 0.43555 0.90728 0.89667 0.0
C3948 C 0.44391 0.87504 0.8883 0.0
C3949 C 0.44065 0.83072 0.87805 0.0
C3950 C 0.41482 0.92799 0.90293 0.0
C3951 C 0.45625 0.88751 0.89014 0.0
H3952 H 0.43978 0.07913 0.89892 0.0
H3953 H 0.44037 1.00054 0.95857 0.0
H3954 H 0.44235 0.969 0.86483 0.0
H3955 H 0.42905 0.9998 0.86804 0.0
H3956 H 0.44174 1.03569 0.86571 0.0
H3957 H 0.44155 0.91355 0.96024 0.0
H3958 H 0.43044 0.89246 0.9429 0.0
H3959 H 0.4448 0.8792 0.93629 0.0
H3960 H 0.4122 0.84073 0.8832 0.0
H3961 H 0.44703 0.80626 0.87152 0.0
H3962 H 0.41543 0.96488 0.89519 0.0
H3963 H 0.41584 0.93364 0.92038 0.0
H3964 H 0.40627 0.91283 0.89991 0.0
H3965 H 0.45797 0.92336 0.88209 0.0
H3966 H 0.46172 0.85859 0.88294 0.0
H3967 H 0.45858 0.89195 0.9072 0.0
C3968 C 0.32518 1.00042 0.86722 0.0
C3969 C 0.33133 1.03998 0.87595 0.0
C3970 C 0.32478 0.95374 0.87745 0.0
C3971 C 0.33061 0.94628 0.89701 0.0
C3972 C 0.3365 0.98664 0.90619 0.0
C3973 C 0.33682 1.03265 0.89559 0.0
C3974 C 0.31847 0.91188 0.86693 0.0
C3975 C 0.3428 0.9808 0.92696 0.0
C3976 C 0.32441 0.83476 0.93331 0.0
C3977 C 0.33347 0.80294 0.92869 0.0
C3978 C 0.32319 0.88086 0.92281 0.0
C3979 C 0.3312 0.89579 0.90725 0.0
C3980 C 0.34021 0.86331 0.90222 0.0
C3981 C 0.34122 0.81758 0.91291 0.0
C3982 C 0.3135 0.91426 0.92883 0.0
C3983 C 0.34898 0.87738 0.88583 0.0
H3984 H 0.32096 1.00538 0.852 0.0
H3985 H 0.34159 0.06278 0.90257 0.0
H3986 H 0.32451 0.88268 0.86196 0.0
H3987 H 0.31251 0.89475 0.87841 0.0
H3988 H 0.31369 0.92436 0.85264 0.0
H3989 H 0.34666 1.01602 0.93246 0.0
H3990 H 0.33701 0.96713 0.93957 0.0
H3991 H 0.34956 0.95282 0.92502 0.0
H3992 H 0.3184 0.82419 0.94551 0.0
H3993 H 0.34827 0.79361 0.90915 0.0
H3994 H 0.30874 0.92544 0.91434 0.0
H3995 H 0.3168 0.94858 0.93628 0.0
H3996 H 0.3076 0.89624 0.94021 0.0
H3997 H 0.34483 0.88608 0.87039 0.0
H3998 H 0.35526 0.84748 0.88323 0.0
H3999 H 0.35351 0.91121 0.89104 0.0
C4000 C 0.13613 0.78101 0.04573 0.0
C4001 C 0.14457 0.78996 0.06128 0.0
C4002 C 0.12931 0.73686 0.04563 0.0
C4003 C 0.13048 0.69945 0.06172 0.0
C4004 C 0.13884 0.70881 0.07763 0.0
C4005 C 0.14572 0.75254 0.07705 0.0
C4006 C 0.12081 0.73007 0.02798 0.0
C4007 C 0.14065 0.6723 0.09554 0.0
C4008 C 0.10601 0.60284 0.07257 0.0
C4009 C 0.10983 0.55828 0.06303 0.0
C4010 C 0.11245 0.64803 0.07219 0.0
C4011 C 0.12318 0.65087 0.0618 0.0
C4012 C 0.12699 0.60616 0.05194 0.0
C4013 C 0.12046 0.56135 0.0528 0.0
C4014 C 0.10784 0.69274 0.08365 0.0
C4015 C 0.13815 0.60539 0.04048 0.0
H4016 H 0.13491 0.80848 0.03332 0.0
H4017 H 0.15202 0.75764 0.08939 0.0
H4018 H 0.12259 0.69514 1.01927 0.0
H4019 H 0.11223 0.72677 0.03486 0.0
H4020 H 0.12089 0.76127 1.01641 0.0
H4021 H 0.14543 0.63994 0.08942 0.0
H4022 H 0.14548 0.68892 0.10892 0.0
H4023 H 0.13249 0.65855 0.10183 0.0
H4024 H 0.09801 0.60225 0.08091 0.0
H4025 H 0.1238 0.52819 0.04539 0.0
H4026 H 0.09911 0.68678 0.08949 0.0
H4027 H 0.10791 0.7255 0.07295 0.0
H4028 H 0.11332 0.70147 0.09753 0.0
H4029 H 0.13844 0.63545 0.02839 0.0
H4030 H 0.13976 0.56946 0.03241 0.0
H4031 H 0.14505 0.61233 0.05206 0.0
C4032 C 0.13166 0.55064 0.24003 0.0
C4033 C 0.14123 0.54308 0.2269 0.0
C4034 C 0.12563 0.59687 0.24096 0.0
C4035 C 0.12871 0.63816 0.22786 0.0
C4036 C 0.13823 0.63026 0.21416 0.0
C4037 C 0.14441 0.58426 0.21426 0.0
C4038 C 0.11591 0.60147 0.2563 0.0
C4039 C 0.14203 0.67043 0.1991 0.0
C4040 C 0.10597 0.74352 0.21785 0.0
C4041 C 0.10954 0.78391 0.23067 0.0
C4042 C 0.11207 0.69746 0.21648 0.0
C4043 C 0.1221 0.68883 0.22867 0.0
C4044 C 0.12569 0.72932 0.24175 0.0
C4045 C 0.1196 0.77551 0.24237 0.0
C4046 C 0.1078 0.65799 0.20152 0.0
C4047 C 0.13609 0.7238 0.25534 0.0
H4048 H 0.12897 0.52028 0.25013 0.0
H4049 H 0.15165 0.58023 0.20384 0.0
H4050 H 0.11661 0.63621 0.26567 0.0
H4051 H 0.10789 0.60317 0.24721 0.0
H4052 H 0.11547 0.5697 0.26755 0.0
H4053 H 0.14647 0.65456 0.18506 0.0
H4054 H 0.13484 0.69305 0.19329 0.0
H4055 H 0.14797 0.69529 0.20757 0.0
H4056 H 0.0984 0.74815 0.20836 0.0
H4057 H 0.12272 0.80522 0.25236 0.0
H4058 H 0.10437 0.62657 0.2109 0.0
H4059 H 0.1148 0.64337 0.19157 0.0
H4060 H 0.10106 0.67211 0.1908 0.0
H4061 H 0.13535 0.6904 0.2656 0.0
H4062 H 0.13756 0.75658 0.26568 0.0
H4063 H 0.14356 0.7185 0.24493 0.0
C4064 C 0.859 0.32946 0.96793 0.0
C4065 C 0.86055 0.29474 0.98471 0.0
C4066 C 0.86546 0.37436 0.96605 0.0
C4067 C 0.87368 0.38798 0.98171 0.0
C4068 C 0.87511 0.35357 0.99895 0.0
C4069 C 0.86885 0.30787 0.99997 0.0
C4070 C 0.86346 0.40726 0.94696 0.0
C4071 C 0.88317 0.36559 1.01681 0.0
C4072 C 0.8978 0.48703 0.97091 0.0
C4073 C 0.89306 0.53278 0.97737 0.0
C4074 C 0.89172 0.44083 0.97196 0.0
C4075 C 0.88049 0.43804 0.98035 0.0
C4076 C 0.8758 0.4841 0.98736 0.0
C4077 C 0.8819 0.52988 0.98534 0.0
C4078 C 0.89729 0.39512 0.96309 0.0
C4079 C 0.86423 0.48561 0.99726 0.0
H4080 H 0.8528 0.32105 0.95576 0.0
H4081 H 0.87031 0.28272 1.01318 0.0
H4082 H 0.85895 0.44123 0.95206 0.0
H4083 H 0.8716 0.41883 0.9398 0.0
H4084 H 0.85831 0.38865 0.9345 0.0
H4085 H 0.88295 0.33749 0.02977 0.0
H4086 H 0.89189 0.36786 1.01052 0.0
H4087 H 0.88106 0.40236 1.02367 0.0
H4088 H 0.90626 0.48736 0.96438 0.0
H4089 H 0.8779 0.56386 0.9906 0.0
H4090 H 0.89391 0.38797 0.94685 0.0
H4091 H 0.89548 0.36201 0.97298 0.0
H4092 H 0.90657 0.3997 0.9619 0.0
H4093 H 0.8578 0.48772 0.98442 0.0
H4094 H 0.86317 0.51856 1.00768 0.0
H4095 H 0.86254 0.45191 1.0069 0.0
C4096 C 0.85661 0.48085 0.82516 0.0
C4097 C 0.86071 0.52643 0.81705 0.0
C4098 C 0.86294 0.43535 0.82394 0.0
C4099 C 0.8738 0.43325 0.81399 0.0
C4100 C 0.87787 0.47901 0.80552 0.0
C4101 C 0.87147 0.52406 0.80728 0.0
C4102 C 0.85806 0.38938 0.83397 0.0
C4103 C 0.88919 0.48067 0.79463 0.0
C4104 C 0.896 0.32881 0.8277 0.0
C4105 C 0.89503 0.29371 0.81097 0.0
C4106 C 0.88914 0.37254 0.82908 0.0
C4107 C 0.881 0.38437 0.81305 0.0
C4108 C 0.88002 0.34933 0.79598 0.0
C4109 C 0.88681 0.30501 0.79529 0.0
C4110 C 0.89072 0.40637 0.84797 0.0
C4111 C 0.87178 0.35891 0.77812 0.0
H4112 H 0.84849 0.48082 0.83308 0.0
H4113 H 0.87502 0.55797 0.80092 0.0
H4114 H 0.86359 0.37687 0.84722 0.0
H4115 H 0.84945 0.39562 0.84038 0.0
H4116 H 0.85773 0.35896 0.82209 0.0
H4117 H 0.89098 0.51751 0.7875 0.0
H4118 H 0.89592 0.47186 0.80635 0.0
H4119 H 0.88959 0.45224 0.78186 0.0
H4120 H 0.90213 0.32182 0.84019 0.0
H4121 H 0.88573 0.27935 0.78215 0.0
H4122 H 0.88247 0.41903 0.85431 0.0
H4123 H 0.89549 0.43966 0.84288 0.0
H4124 H 0.89544 0.3879 0.86106 0.0
H4125 H 0.86311 0.36162 0.78464 0.0
H4126 H 0.87197 0.32935 0.7658 0.0
H4127 H 0.87373 0.3949 0.77039 0.0
C4128 C 0.11303 0.08075 0.55419 0.0
C4129 C 0.11328 0.04864 0.57203 0.0
C4130 C 0.11927 0.12624 0.55348 0.0
C4131 C 0.12581 0.14259 0.57131 0.0
C4132 C 0.12588 0.11072 0.58954 0.0
C4133 C 0.11989 0.0646 0.58952 0.0
C4134 C 0.11895 0.15673 0.53331 0.0
C4135 C 0.13212 0.12585 0.60947 0.0
C4136 C 0.14946 0.24455 0.56553 0.0
C4137 C 0.14393 0.28929 0.57096 0.0
C4138 C 0.14379 0.19749 0.5654 0.0
C4139 C 0.13216 0.19325 0.57116 0.0
C4140 C 0.12661 0.23821 0.57682 0.0
C4141 C 0.13241 0.28466 0.57651 0.0
C4142 C 0.1503 0.15198 0.5589 0.0
C4143 C 0.11438 0.23747 0.58333 0.0
H4144 H 0.10815 0.06964 0.54038 0.0
H4145 H 0.12019 1.04131 0.60361 0.0
H4146 H 0.11473 0.19262 0.53646 0.0
H4147 H 0.12766 0.16504 0.52792 0.0
H4148 H 0.1144 0.13766 0.52017 0.0
H4149 H 0.13137 0.09792 0.62244 0.0
H4150 H 0.14118 0.1314 0.60585 0.0
H4151 H 0.12877 0.16173 0.61536 0.0
H4152 H 0.1583 0.24617 0.56124 0.0
H4153 H 0.1278 0.31778 0.58089 0.0
H4154 H 0.14583 0.13258 0.54576 0.0
H4155 H 0.15083 0.12584 0.57254 0.0
H4156 H 0.15898 0.16096 0.55355 0.0
H4157 H 0.10905 0.22986 0.56916 0.0
H4158 H 0.11165 0.27324 0.59038 0.0
H4159 H 0.11286 0.20739 0.59505 0.0
C4160 C 0.15031 0.09591 0.73371 0.0
C4161 C 0.14508 0.04902 0.7323 0.0
C4162 C 0.14404 0.14135 0.73322 0.0
C4163 C 0.13207 0.14152 0.73057 0.0
C4164 C 0.12679 0.09429 0.72878 0.0
C4165 C 0.13321 0.04949 0.72999 0.0
C4166 C 0.15031 0.18956 0.73552 0.0
C4167 C 0.11424 0.09084 0.72521 0.0
C4168 C 0.11337 0.25641 0.74615 0.0
C4169 C 0.11231 0.28316 0.72685 0.0
C4170 C 0.1198 0.21152 0.74764 0.0
C4171 C 0.12516 0.1905 0.72931 0.0
C4172 C 0.12376 0.21661 0.70966 0.0
C4173 C 0.11767 0.26234 0.7088 0.0
C4174 C 0.12108 0.18704 0.76915 0.0
C4175 C 0.12863 0.19595 0.68927 0.0
H4176 H 0.15939 0.09725 0.73531 0.0
H4177 H 0.12886 1.01438 0.72852 0.0
H4178 H 0.14979 0.21077 0.72037 0.0
H4179 H 0.14637 0.21254 0.74818 0.0
H4180 H 0.15934 0.18381 0.73951 0.0
H4181 H 0.11153 0.05265 0.72111 0.0
H4182 H 0.10974 0.1025 0.73989 0.0
H4183 H 0.11161 0.1162 0.71217 0.0
H4184 H 0.10948 0.27155 0.76038 0.0
H4185 H 0.11698 0.28173 0.69368 0.0
H4186 H 0.13016 0.1826 0.77301 0.0
H4187 H 0.11733 0.14947 0.76876 0.0
H4188 H 0.11698 0.20858 0.78212 0.0
H4189 H 0.13795 0.19444 0.69042 0.0
H4190 H 0.12631 0.21845 0.67506 0.0
H4191 H 0.12562 0.15747 0.6868 0.0
C4192 C 0.86185 0.82262 0.49589 0.0
C4193 C 0.86192 0.79086 0.47798 0.0
C4194 C 0.86798 0.86834 0.49629 0.0
C4195 C 0.8742 0.88496 0.47812 0.0
C4196 C 0.874 0.8536 0.45979 0.0
C4197 C 0.86816 0.80729 0.4601 0.0
C4198 C 0.86783 0.89889 0.51642 0.0
C4199 C 0.87973 0.86965 0.43942 0.0
C4200 C 0.88059 1.02683 0.47282 0.0
C4201 C 0.89227 1.03105 0.47699 0.0
C4202 C 0.87475 0.98061 0.47308 0.0
C4203 C 0.88048 0.93553 0.47793 0.0
C4204 C 0.89225 0.93942 0.48246 0.0
C4205 C 0.89794 0.9863 0.48178 0.0
C4206 C 0.86228 0.98093 0.46843 0.0
C4207 C 0.89889 0.89379 0.48837 0.0
H4208 H 0.85722 0.81108 0.50996 0.0
H4209 H 0.8683 0.78413 0.44598 0.0
H4210 H 0.87655 0.90928 0.52101 0.0
H4211 H 0.86308 0.93365 0.51354 0.0
H4212 H 0.86383 0.87894 0.52997 0.0
H4213 H 0.87878 0.84197 0.42642 0.0
H4214 H 0.87609 0.9054 0.43397 0.0
H4215 H 0.88884 0.87582 0.4423 0.0
H4216 H 0.87585 0.06011 0.46914 0.0
H4217 H 0.90689 0.98778 0.48509 0.0
H4218 H 0.85761 0.98593 0.48362 0.0
H4219 H 0.85945 0.94579 0.46106 0.0
H4220 H 0.85997 1.01216 0.45772 0.0
H4221 H 0.89474 0.87438 0.50189 0.0
H4222 H 0.90771 0.90263 0.49296 0.0
H4223 H 0.89908 0.8677 0.4747 0.0
C4224 C 0.90073 0.84215 0.32253 0.0
C4225 C 0.89647 0.79918 0.31251 0.0
C4226 C 0.8946 0.8878 0.32306 0.0
C4227 C 0.88381 0.8922 0.31316 0.0
C4228 C 0.87957 0.84915 0.30272 0.0
C4229 C 0.8858 0.80381 0.3027 0.0
C4230 C 0.8996 0.93112 0.33491 0.0
C4231 C 0.86832 0.85086 0.29152 0.0
C4232 C 0.86235 0.99541 0.33001 0.0
C4233 C 0.86394 1.03316 0.31465 0.0
C4234 C 0.86879 0.95061 0.32997 0.0
C4235 C 0.87697 0.94118 0.31378 0.0
C4236 C 0.87851 0.97893 0.29808 0.0
C4237 C 0.87218 1.02402 0.29886 0.0
C4238 C 0.86681 0.91332 0.34751 0.0
C4239 C 0.88686 0.97157 0.28021 0.0
H4240 H 0.90882 0.8399 0.33054 0.0
H4241 H 0.88222 0.7716 0.29493 0.0
H4242 H 0.89923 0.96517 0.32501 0.0
H4243 H 0.8946 0.93817 0.34958 0.0
H4244 H 0.90849 0.9243 0.33956 0.0
H4245 H 0.86637 0.81567 0.28312 0.0
H4246 H 0.86155 0.85836 0.30329 0.0
H4247 H 0.86821 0.88156 0.27971 0.0
H4248 H 0.85617 1.00123 0.3425 0.0
H4249 H 0.87363 0.0521 0.2868 0.0
H4250 H 0.87494 0.90156 0.35466 0.0
H4251 H 0.86274 0.87984 0.34077 0.0
H4252 H 0.86133 0.92831 0.36036 0.0
H4253 H 0.89545 0.9667 0.28689 0.0
H4254 H 0.88697 1.00326 0.26888 0.0
H4255 H 0.88478 0.93733 0.27124 0.0
C4256 C 0.62007 0.56387 0.55188 0.0
C4257 C 0.61046 0.55996 0.56509 0.0
C4258 C 0.6268 0.60774 0.55078 0.0
C4259 C 0.62442 0.64971 0.56397 0.0
C4260 C 0.61461 0.64601 0.57724 0.0
C4261 C 0.60785 0.60211 0.57746 0.0
C4262 C 0.63649 0.60811 0.53519 0.0
C4263 C 0.61122 0.68711 0.59222 0.0
C4264 C 0.64992 0.73904 0.57495 0.0
C4265 C 0.64682 0.78391 0.56487 0.0
C4266 C 0.64283 0.69613 0.57489 0.0
C4267 C 0.63222 0.69613 0.5641 0.0
C4268 C 0.62926 0.74077 0.55319 0.0
C4269 C 0.63636 0.78362 0.55405 0.0
C4270 C 0.64667 0.65091 0.58702 0.0
C4271 C 0.61852 0.7434 0.54038 0.0
H4272 H 0.62237 0.53233 0.5421 0.0
H4273 H 0.60064 0.60037 0.58807 0.0
H4274 H 0.63928 0.64608 0.53097 0.0
H4275 H 0.64371 0.58771 0.54224 0.0
H4276 H 0.63412 0.58851 0.52026 0.0
H4277 H 0.61361 0.67648 0.60874 0.0
H4278 H 0.61519 0.72311 0.58841 0.0
H4279 H 0.60192 0.69202 0.59205 0.0
H4280 H 0.65784 0.7377 0.58356 0.0
H4281 H 0.63366 0.81723 0.54608 0.0
H4282 H 0.64945 0.62208 0.5756 0.0
H4283 H 0.63965 0.63534 0.59664 0.0
H4284 H 0.65383 0.65935 0.59781 0.0
H4285 H 0.61768 0.71008 0.53012 0.0
H4286 H 0.61818 0.77694 0.53011 0.0
H4287 H 0.61118 0.7442 0.55135 0.0
C4288 C 0.63988 0.57003 0.71226 0.0
C4289 C 0.64551 0.55105 0.7304 0.0
C4290 C 0.63377 0.61588 0.71248 0.0
C4291 C 0.63265 0.64456 0.73156 0.0
C4292 C 0.63819 0.62505 0.75006 0.0
C4293 C 0.64462 0.57988 0.74918 0.0
C4294 C 0.62867 0.63392 0.6919 0.0
C4295 C 0.63709 0.65139 0.77116 0.0
C4296 C 0.62528 0.78702 0.73094 0.0
C4297 C 0.6134 0.78938 0.73294 0.0
C4298 C 0.63143 0.74129 0.7299 0.0
C4299 C 0.62592 0.6946 0.73214 0.0
C4300 C 0.61395 0.69664 0.73499 0.0
C4301 C 0.60793 0.74301 0.73495 0.0
C4302 C 0.64393 0.74315 0.72562 0.0
C4303 C 0.60732 0.64951 0.73782 0.0
H4304 H 0.64038 0.5491 0.69753 0.0
H4305 H 0.64865 0.56623 0.76355 0.0
H4306 H 0.61946 0.63871 0.6939 0.0
H4307 H 0.63234 0.67043 0.68772 0.0
H4308 H 0.63017 0.60804 0.67841 0.0
H4309 H 0.64118 0.6307 0.78441 0.0
H4310 H 0.64095 0.68867 0.77011 0.0
H4311 H 0.62804 0.65666 0.77507 0.0
H4312 H 0.62989 0.82144 0.72968 0.0
H4313 H 0.59884 0.74271 0.73642 0.0
H4314 H 0.646 0.71994 0.71152 0.0
H4315 H 0.64862 0.72771 0.73943 0.0
H4316 H 0.64696 0.78144 0.7226 0.0
H4317 H 0.60626 0.63126 0.72208 0.0
H4318 H 0.59881 0.65673 0.74453 0.0
H4319 H 0.61184 0.62329 0.74848 0.0
C4320 C 0.38495 0.51791 0.46293 0.0
C4321 C 0.39191 0.5331 0.48004 0.0
C4322 C 0.37873 0.4723 0.46307 0.0
C4323 C 0.37893 0.43963 0.48111 0.0
C4324 C 0.38574 0.45557 0.4987 0.0
C4325 C 0.39221 0.50062 0.49778 0.0
C4326 C 0.37233 0.45864 0.44319 0.0
C4327 C 0.386 0.42549 0.51899 0.0
C4328 C 0.35462 0.33924 0.48625 0.0
C4329 C 0.36006 0.29342 0.48226 0.0
C4330 C 0.36054 0.38591 0.48647 0.0
C4331 C 0.37232 0.38911 0.48153 0.0
C4332 C 0.37776 0.34307 0.4771 0.0
C4333 C 0.37179 0.29689 0.47823 0.0
C4334 C 0.35406 0.43221 0.49196 0.0
C4335 C 0.38993 0.34249 0.4701 0.0
H4336 H 0.38449 0.54159 0.44896 0.0
H4337 H 0.39729 0.51118 0.51143 0.0
H4338 H 0.37069 0.49136 0.43286 0.0
H4339 H 0.37746 0.43183 0.43392 0.0
H4340 H 0.36417 0.441 0.44708 0.0
H4341 H 0.39034 0.44524 0.53219 0.0
H4342 H 0.37728 0.41652 0.52412 0.0
H4343 H 0.39043 0.38997 0.51615 0.0
H4344 H 0.34564 0.33881 0.48938 0.0
H4345 H 0.37639 0.26301 0.47528 0.0
H4346 H 0.3457 0.42365 0.49907 0.0
H4347 H 0.35268 0.45451 0.4773 0.0
H4348 H 0.35891 0.45539 0.50335 0.0
H4349 H 0.39117 0.36886 0.45668 0.0
H4350 H 0.39271 0.30514 0.46486 0.0
H4351 H 0.39543 0.35466 0.4834 0.0
C4352 C 0.39943 0.3446 0.32349 0.0
C4353 C 0.3962 0.30016 0.31325 0.0
C4354 C 0.39252 0.38815 0.32341 0.0
C4355 C 0.38194 0.38919 0.3125 0.0
C4356 C 0.37886 0.345 0.30142 0.0
C4357 C 0.38579 0.30154 0.30227 0.0
C4358 C 0.39647 0.43298 0.3356 0.0
C4359 C 0.36816 0.34349 0.28844 0.0
C4360 C 0.35771 0.4839 0.32595 0.0
C4361 C 0.36034 0.52616 0.31363 0.0
C4362 C 0.36444 0.43989 0.32572 0.0
C4363 C 0.37426 0.4361 0.31249 0.0
C4364 C 0.37668 0.47823 0.29937 0.0
C4365 C 0.36997 0.52227 0.30048 0.0
C4366 C 0.36098 0.39869 0.34062 0.0
C4367 C 0.38637 0.47785 0.28378 0.0
H4368 H 0.40732 0.34508 0.33223 0.0
H4369 H 0.38299 0.26832 0.29417 0.0
H4370 H 0.3983 0.46356 0.32432 0.0
H4371 H 0.38975 0.44596 0.34661 0.0
H4372 H 0.40423 0.42532 0.34494 0.0
H4373 H 0.36773 0.31015 0.27809 0.0
H4374 H 0.36077 0.34318 0.29929 0.0
H4375 H 0.3675 0.37705 0.27824 0.0
H4376 H 0.35047 0.48556 0.33649 0.0
H4377 H 0.37228 0.55383 0.29071 0.0
H4378 H 0.3636 0.40855 0.35709 0.0
H4379 H 0.36473 0.36242 0.33647 0.0
H4380 H 0.35166 0.39471 0.34079 0.0
H4381 H 0.39346 0.49957 0.29052 0.0
H4382 H 0.38386 0.49622 0.26862 0.0
H4383 H 0.3894 0.43999 0.28001 0.0
C4384 C 0.64951 0.24521 0.07594 0.0
C4385 C 0.64459 0.2918 0.07135 0.0
C4386 C 0.64311 0.20007 0.0764 0.0
C4387 C 0.63126 0.19978 0.07228 0.0
C4388 C 0.62629 0.24659 0.06736 0.0
C4389 C 0.63289 0.29106 0.06688 0.0
C4390 C 0.64902 0.15248 0.08215 0.0
C4391 C 0.6138 0.25011 0.06324 0.0
C4392 C 0.61627 0.07526 0.05586 0.0
C4393 C 0.61159 0.0575 0.07514 0.0
C4394 C 0.62253 0.12068 0.05474 0.0
C4395 C 0.62413 0.15114 0.07319 0.0
C4396 C 0.61891 0.13407 0.09244 0.0
C4397 C 0.61313 0.0877 0.09326 0.0
C4398 C 0.62763 0.13578 0.03368 0.0
C4399 C 0.61951 0.16374 0.11273 0.0
H4400 H 0.65841 0.24397 0.07974 0.0
H4401 H 0.62872 0.32589 0.06349 0.0
H4402 H 0.64519 0.13664 0.09683 0.0
H4403 H 0.64789 0.12498 0.06917 0.0
H4404 H 0.65818 0.15792 0.08498 0.0
H4405 H 0.61114 0.28822 0.05884 0.0
H4406 H 0.61136 0.22443 0.05021 0.0
H4407 H 0.60913 0.23863 0.07778 0.0
H4408 H 0.61539 0.05263 0.04167 0.0
H4409 H 0.60971 0.07501 0.10837 0.0
H4410 H 0.63693 0.13798 0.03525 0.0
H4411 H 0.62458 0.17318 0.0291 0.0
H4412 H 0.62554 0.10941 1.02065 0.0
H4413 H 0.61965 0.20409 0.10951 0.0
H4414 H 0.62725 0.15297 0.12147 0.0
H4415 H 0.61223 0.15563 0.12334 0.0
C4416 C 0.64933 0.08833 0.22671 0.0
C4417 C 0.6483 0.05314 0.24331 0.0
C4418 C 0.64298 0.13345 0.22622 0.0
C4419 C 0.63525 0.14578 0.24295 0.0
C4420 C 0.63447 0.11099 0.26012 0.0
C4421 C 0.64071 0.06547 0.25988 0.0
C4422 C 0.64446 0.16662 0.20706 0.0
C4423 C 0.62716 0.12231 0.27922 0.0
C4424 C 0.626 0.2852 0.24871 0.0
C4425 C 0.61468 0.28609 0.24158 0.0
C4426 C 0.63257 0.24066 0.24957 0.0
C4427 C 0.62808 0.19431 0.24266 0.0
C4428 C 0.61664 0.19494 0.2355 0.0
C4429 C 0.61018 0.23991 0.23518 0.0
C4430 C 0.64448 0.24341 0.25786 0.0
C4431 C 0.61131 0.14818 0.22712 0.0
H4432 H 0.65498 0.0801 0.21358 0.0
H4433 H 0.63975 1.03966 0.27302 0.0
H4434 H 0.63838 0.15506 0.19457 0.0
H4435 H 0.64296 0.20613 0.21084 0.0
H4436 H 0.65305 0.16283 0.20019 0.0
H4437 H 0.62829 0.09482 0.29226 0.0
H4438 H 0.62917 0.15972 0.2855 0.0
H4439 H 0.61817 0.12255 0.27446 0.0
H4440 H 0.62982 0.31977 0.25363 0.0
H4441 H 0.60161 0.23898 0.22923 0.0
H4442 H 0.65048 0.23573 0.24468 0.0
H4443 H 0.64585 0.21477 0.27034 0.0
H4444 H 0.64648 0.28033 0.26469 0.0
H4445 H 0.61624 0.13422 0.2133 0.0
H4446 H 0.60244 0.15412 0.22204 0.0
H4447 H 0.61146 0.11886 0.23951 0.0
C4448 C 0.35961 0.84611 0.9768 0.0
C4449 C 0.3646 0.80035 0.98233 0.0
C4450 C 0.36579 0.89179 0.97705 0.0
C4451 C 0.37733 0.89352 0.98359 0.0
C4452 C 0.38232 0.84741 0.98951 0.0
C4453 C 0.37606 0.80222 0.98854 0.0
C4454 C 0.36001 0.93823 0.96944 0.0
C4455 C 0.39439 0.84549 0.99696 0.0
C4456 C 0.39801 1.0014 0.96792 0.0
C4457 C 0.39709 1.03539 0.98498 0.0
C4458 C 0.39152 0.95673 0.96695 0.0
C4459 C 0.38416 0.94281 0.98399 0.0
C4460 C 0.38352 0.97633 1.00161 0.0
C4461 C 0.38962 1.02214 1.00158 0.0
C4462 C 0.39265 0.92474 0.94733 0.0
C4463 C 0.37651 0.96335 1.0209 0.0
H4464 H 0.35089 0.84614 0.97168 0.0
H4465 H 0.38015 0.768 0.99317 0.0
H4466 H 0.36416 0.95129 0.95458 0.0
H4467 H 0.35091 0.93208 0.96624 0.0
H4468 H 0.36084 0.96823 0.9814 0.0
H4469 H 0.39645 0.80968 1.0048 0.0
H4470 H 0.40007 0.85021 0.98303 0.0
H4471 H 0.39616 0.876 1.00835 0.0
H4472 H 0.40356 1.01057 0.95475 0.0
H4473 H 0.38871 0.04733 1.01494 0.0
H4474 H 0.38484 0.90357 0.94395 0.0
H4475 H 0.39965 0.89803 0.94975 0.0
H4476 H 0.39471 0.94752 0.93307 0.0
H4477 H 0.36747 0.96202 1.0165 0.0
H4478 H 0.37758 0.99047 0.03408 0.0
H4479 H 0.37888 0.926 1.02685 0.0
C4480 C 0.39896 0.84508 0.81984 0.0
C4481 C 0.39369 0.79948 0.82463 0.0
C4482 C 0.39292 0.89113 0.8196 0.0
C4483 C 0.3812 0.89329 0.82479 0.0
C4484 C 0.37587 0.84738 0.82967 0.0
C4485 C 0.38203 0.80193 0.8293 0.0
C4486 C 0.39915 0.93785 0.81376 0.0
C4487 C 0.36352 0.84562 0.83534 0.0
C4488 C 0.36825 1.01877 0.84451 0.0
C4489 C 0.36171 1.03543 0.82705 0.0
C4490 C 0.37441 0.97326 0.84407 0.0
C4491 C 0.37458 0.94297 0.82541 0.0
C4492 C 0.36804 0.95982 0.80768 0.0
C4493 C 0.36164 1.00475 0.80881 0.0
C4494 C 0.38056 0.95693 0.86397 0.0
C4495 C 0.36788 0.93044 0.78722 0.0
H4496 H 0.4079 0.84498 0.81633 0.0
H4497 H 0.37763 0.76798 0.8332 0.0
H4498 H 0.39453 0.95813 0.80104 0.0
H4499 H 0.39963 0.96264 0.82784 0.0
H4500 H 0.40786 0.93018 0.80813 0.0
H4501 H 0.36146 0.81222 0.84494 0.0
H4502 H 0.3609 0.87897 0.84439 0.0
H4503 H 0.35848 0.8442 0.82044 0.0
H4504 H 0.3684 1.04111 0.85887 0.0
H4505 H 0.35679 1.01659 0.79504 0.0
H4506 H 0.38966 0.95208 0.86054 0.0
H4507 H 0.37725 0.92047 0.86928 0.0
H4508 H 0.37962 0.98383 0.87728 0.0
H4509 H 0.37663 0.92235 0.78197 0.0
H4510 H 0.3634 0.95022 0.77416 0.0
H4511 H 0.36363 0.89445 0.78999 0.0
loop_
_geom_bond_atom_site_label_1
_geom_bond_atom_site_label_2
_geom_bond_distance
_geom_bond_site_symmetry_2
_ccdc_geom_bond_type
O0 Tb1 2.292 . S
O0 C3 1.255 . S
Tb1 O0 2.292 . S
Tb1 O17 2.326 . S
Tb1 O19 2.500 . S
Tb1 O20 2.473 . S
Tb1 O23 2.324 . S
Eu2 O6 2.292 . S
Eu2 C7 2.852 . S
Eu2 O18 2.324 . S
Eu2 O22 2.326 . S
Eu2 O24 2.500 . S
Eu2 O25 2.473 . S
C3 O0 1.255 . S
C3 O4 1.247 . S
O4 C3 1.247 . S
C5 O17 1.242 . S
C5 O18 1.258 . S
O6 Eu2 2.292 . S
O6 C8 1.255 . S
C7 Eu2 2.852 . S
C7 C11 1.503 . S
C7 O24 1.273 . S
C7 O25 1.257 . S
C8 O6 1.255 . S
C8 O9 1.247 . S
O9 C8 1.247 . S
C10 O22 1.242 . S
C10 O23 1.258 . S
C11 C7 1.503 . S
C11 C12 1.379 1_554 S
C11 C16 1.392 . S
C12 C11 1.379 1_556 S
C12 C13 1.404 . S
C12 H26 0.912 1_556 S
C13 C12 1.404 . S
C13 C14 1.389 . S
C14 C13 1.389 . S
C14 C15 1.399 . S
C14 H27 0.931 . S
C15 C14 1.399 . S
C15 C16 1.390 1_556 S
C16 C11 1.392 . S
C16 C15 1.390 1_554 S
C16 H28 0.929 . S
O17 Tb1 2.326 . S
O17 C5 1.242 . S
O18 Eu2 2.324 . S
O18 C5 1.258 . S
O19 Tb1 2.500 . S
O19 C21 1.273 . S
O20 Tb1 2.473 . S
O20 C21 1.257 . S
C21 O19 1.273 . S
C21 O20 1.257 . S
O22 Eu2 2.326 . S
O22 C10 1.242 . S
O23 Tb1 2.324 . S
O23 C10 1.258 . S
O24 Eu2 2.500 . S
O24 C7 1.273 . S
O25 Eu2 2.473 . S
O25 C7 1.257 . S
H26 C12 0.912 1_554 S
H27 C14 0.931 . S
H28 C16 0.929 . S
O29 Tb30 2.292 . S
O29 C32 1.255 1_565 S
Tb30 O29 2.292 . S
Tb30 O46 2.326 . S
Tb30 O48 2.500 . S
Tb30 O49 2.473 . S
Tb30 O52 2.324 . S
Eu31 O35 2.292 . S
Eu31 C36 2.852 . S
Eu31 O47 2.324 . S
Eu31 O51 2.326 . S
Eu31 O53 2.500 . S
Eu31 O54 2.473 . S
C32 O29 1.255 1_545 S
C32 O33 1.247 . S
O33 C32 1.247 . S
C34 O46 1.242 . S
C34 O47 1.258 . S
O35 Eu31 2.292 . S
O35 C37 1.255 . S
C36 Eu31 2.852 . S
C36 C40 1.503 . S
C36 O53 1.273 . S
C36 O54 1.257 . S
C37 O35 1.255 . S
C37 O38 1.247 . S
O38 C37 1.247 . S
C39 O51 1.242 . S
C39 O52 1.258 . S
C40 C36 1.503 . S
C40 C41 1.379 1_554 S
C40 C45 1.392 . S
C41 C40 1.379 1_556 S
C41 C42 1.404 . S
C41 H55 0.912 1_556 S
C42 C41 1.404 . S
C42 C43 1.389 . S
C43 C42 1.389 . S
C43 C44 1.399 . S
C43 H56 0.931 . S
C44 C43 1.399 . S
C44 C45 1.390 1_556 S
C45 C40 1.392 . S
C45 C44 1.390 1_554 S
C45 H57 0.929 . S
O46 Tb30 2.326 . S
O46 C34 1.242 . S
O47 Eu31 2.324 . S
O47 C34 1.258 . S
O48 Tb30 2.500 . S
O48 C50 1.273 . S
O49 Tb30 2.473 . S
O49 C50 1.257 . S
C50 O48 1.273 . S
C50 O49 1.257 . S
O51 Eu31 2.326 . S
O51 C39 1.242 . S
O52 Tb30 2.324 . S
O52 C39 1.258 . S
O53 Eu31 2.500 . S
O53 C36 1.273 . S
O54 Eu31 2.473 . S
O54 C36 1.257 . S
H55 C41 0.912 1_554 S
H56 C43 0.931 . S
H57 C45 0.929 . S
O58 Tb59 2.292 . S
O58 C61 1.255 1_565 S
Tb59 O58 2.292 . S
Tb59 O75 2.326 . S
Tb59 O77 2.500 . S
Tb59 O78 2.473 . S
Tb59 O81 2.324 . S
Eu60 O64 2.292 . S
Eu60 C65 2.852 . S
Eu60 O76 2.324 . S
Eu60 O80 2.326 . S
Eu60 O82 2.500 . S
Eu60 O83 2.473 . S
C61 O58 1.255 1_545 S
C61 O62 1.247 . S
O62 C61 1.247 . S
C63 O75 1.242 . S
C63 O76 1.258 . S
O64 Eu60 2.292 . S
O64 C66 1.255 . S
C65 Eu60 2.852 . S
C65 C69 1.503 . S
C65 O82 1.273 . S
C65 O83 1.257 . S
C66 O64 1.255 . S
C66 O67 1.247 . S
O67 C66 1.247 . S
C68 O80 1.242 . S
C68 O81 1.258 . S
C69 C65 1.503 . S
C69 C70 1.379 . S
C69 C74 1.392 . S
C70 C69 1.379 . S
C70 C71 1.404 . S
C70 H84 0.929 . S
C71 C70 1.404 . S
C71 C72 1.389 . S
C72 C71 1.389 . S
C72 C73 1.399 . S
C72 H85 0.931 . S
C73 C72 1.399 . S
C73 C74 1.390 . S
C74 C69 1.392 . S
C74 C73 1.390 . S
C74 H86 0.929 . S
O75 Tb59 2.326 . S
O75 C63 1.242 . S
O76 Eu60 2.324 . S
O76 C63 1.258 . S
O77 Tb59 2.500 . S
O77 C79 1.273 . S
O78 Tb59 2.473 . S
O78 C79 1.257 . S
C79 O77 1.273 . S
C79 O78 1.257 . S
O80 Eu60 2.326 . S
O80 C68 1.242 . S
O81 Tb59 2.324 . S
O81 C68 1.258 . S
O82 Eu60 2.500 . S
O82 C65 1.273 . S
O83 Eu60 2.473 . S
O83 C65 1.257 . S
H84 C70 0.929 . S
H85 C72 0.931 . S
H86 C74 0.929 . S
O87 Tb88 2.292 . S
O87 C90 1.255 . S
Tb88 O87 2.292 . S
Tb88 O104 2.326 . S
Tb88 O106 2.500 . S
Tb88 O107 2.473 . S
Tb88 O110 2.324 . S
Eu89 O93 2.292 . S
Eu89 C94 2.852 . S
Eu89 O105 2.324 . S
Eu89 O109 2.326 . S
Eu89 O111 2.500 . S
Eu89 O112 2.473 . S
C90 O87 1.255 . S
C90 O91 1.247 . S
O91 C90 1.247 . S
C92 O104 1.242 . S
C92 O105 1.258 . S
O93 Eu89 2.292 . S
O93 C95 1.255 . S
C94 Eu89 2.852 . S
C94 C98 1.503 . S
C94 O111 1.273 . S
C94 O112 1.257 . S
C95 O93 1.255 . S
C95 O96 1.247 . S
O96 C95 1.247 . S
C97 O109 1.242 . S
C97 O110 1.258 . S
C98 C94 1.503 . S
C98 C99 1.379 . S
C98 C103 1.392 . S
C99 C98 1.379 . S
C99 C100 1.404 . S
C99 H113 0.929 . S
C100 C99 1.404 . S
C100 C101 1.389 . S
C101 C100 1.389 . S
C101 C102 1.399 . S
C101 H114 0.931 . S
C102 C101 1.399 . S
C102 C103 1.390 . S
C103 C98 1.392 . S
C103 C102 1.390 . S
C103 H115 0.929 . S
O104 Tb88 2.326 . S
O104 C92 1.242 . S
O105 Eu89 2.324 . S
O105 C92 1.258 . S
O106 Tb88 2.500 . S
O106 C108 1.273 . S
O107 Tb88 2.473 . S
O107 C108 1.257 . S
C108 O106 1.273 . S
C108 O107 1.257 . S
O109 Eu89 2.326 . S
O109 C97 1.242 . S
O110 Tb88 2.324 . S
O110 C97 1.258 . S
O111 Eu89 2.500 . S
O111 C94 1.273 . S
O112 Eu89 2.473 . S
O112 C94 1.257 . S
H113 C99 0.929 . S
H114 C101 0.931 . S
H115 C103 0.929 . S
O116 Tb117 2.292 . S
O116 C119 1.255 . S
Tb117 O116 2.292 . S
Tb117 O133 2.326 . S
Tb117 O135 2.500 . S
Tb117 O136 2.473 . S
Tb117 O139 2.324 . S
Eu118 O122 2.292 . S
Eu118 C123 2.852 . S
Eu118 O134 2.324 . S
Eu118 O138 2.326 . S
Eu118 O140 2.500 . S
Eu118 O141 2.473 . S
C119 O116 1.255 . S
C119 O120 1.247 . S
O120 C119 1.247 . S
C121 O133 1.242 . S
C121 O134 1.258 . S
O122 Eu118 2.292 . S
O122 C124 1.255 . S
C123 Eu118 2.852 . S
C123 C127 1.503 . S
C123 O140 1.273 . S
C123 O141 1.257 . S
C124 O122 1.255 . S
C124 O125 1.247 . S
O125 C124 1.247 . S
C126 O138 1.242 . S
C126 O139 1.258 . S
C127 C123 1.503 . S
C127 C128 1.379 1_556 S
C127 C132 1.392 . S
C128 C127 1.379 1_554 S
C128 C129 1.404 . S
C128 H142 0.912 1_554 S
C129 C128 1.404 . S
C129 C130 1.389 . S
C130 C129 1.389 . S
C130 C131 1.399 . S
C130 H143 0.931 . S
C131 C130 1.399 . S
C131 C132 1.390 1_554 S
C132 C127 1.392 . S
C132 C131 1.390 1_556 S
C132 H144 0.929 . S
O133 Tb117 2.326 . S
O133 C121 1.242 . S
O134 Eu118 2.324 . S
O134 C121 1.258 . S
O135 Tb117 2.500 . S
O135 C137 1.273 . S
O136 Tb117 2.473 . S
O136 C137 1.257 . S
C137 O135 1.273 . S
C137 O136 1.257 . S
O138 Eu118 2.326 . S
O138 C126 1.242 . S
O139 Tb117 2.324 . S
O139 C126 1.258 . S
O140 Eu118 2.500 . S
O140 C123 1.273 . S
O141 Eu118 2.473 . S
O141 C123 1.257 . S
H142 C128 0.912 1_556 S
H143 C130 0.931 . S
H144 C132 0.929 . S
O145 Tb146 2.292 . S
O145 C148 1.255 1_545 S
Tb146 O145 2.292 . S
Tb146 O162 2.326 . S
Tb146 O164 2.500 . S
Tb146 O165 2.473 . S
Tb146 O168 2.324 . S
Eu147 O151 2.292 . S
Eu147 C152 2.852 . S
Eu147 O163 2.324 . S
Eu147 O167 2.326 . S
Eu147 O169 2.500 . S
Eu147 O170 2.473 . S
C148 O145 1.255 1_565 S
C148 O149 1.247 . S
O149 C148 1.247 . S
C150 O162 1.242 . S
C150 O163 1.258 . S
O151 Eu147 2.292 . S
O151 C153 1.255 . S
C152 Eu147 2.852 . S
C152 C156 1.503 . S
C152 O169 1.273 . S
C152 O170 1.257 . S
C153 O151 1.255 . S
C153 O154 1.247 . S
O154 C153 1.247 . S
C155 O167 1.242 . S
C155 O168 1.258 . S
C156 C152 1.503 . S
C156 C157 1.379 1_556 S
C156 C161 1.392 . S
C157 C156 1.379 1_554 S
C157 C158 1.404 . S
C157 H171 0.912 1_554 S
C158 C157 1.404 . S
C158 C159 1.389 . S
C159 C158 1.389 . S
C159 C160 1.399 . S
C159 H172 0.931 . S
C160 C159 1.399 . S
C160 C161 1.390 1_554 S
C161 C156 1.392 . S
C161 C160 1.390 1_556 S
C161 H173 0.929 . S
O162 Tb146 2.326 . S
O162 C150 1.242 . S
O163 Eu147 2.324 . S
O163 C150 1.258 . S
O164 Tb146 2.500 . S
O164 C166 1.273 . S
O165 Tb146 2.473 . S
O165 C166 1.257 . S
C166 O164 1.273 . S
C166 O165 1.257 . S
O167 Eu147 2.326 . S
O167 C155 1.242 . S
O168 Tb146 2.324 . S
O168 C155 1.258 . S
O169 Eu147 2.500 . S
O169 C152 1.273 . S
O170 Eu147 2.473 . S
O170 C152 1.257 . S
H171 C157 0.912 1_556 S
H172 C159 0.931 . S
H173 C161 0.929 . S
O174 Tb175 2.292 . S
O174 C177 1.255 1_545 S
Tb175 O174 2.292 . S
Tb175 O191 2.326 . S
Tb175 O193 2.500 . S
Tb175 O194 2.473 . S
Tb175 O197 2.324 . S
Eu176 O180 2.292 . S
Eu176 C181 2.852 . S
Eu176 O192 2.324 . S
Eu176 O196 2.326 . S
Eu176 O198 2.500 . S
Eu176 O199 2.473 . S
C177 O174 1.255 1_565 S
C177 O178 1.247 . S
O178 C177 1.247 . S
C179 O191 1.242 . S
C179 O192 1.258 . S
O180 Eu176 2.292 . S
O180 C182 1.255 . S
C181 Eu176 2.852 . S
C181 C185 1.503 . S
C181 O198 1.273 . S
C181 O199 1.257 . S
C182 O180 1.255 . S
C182 O183 1.247 . S
O183 C182 1.247 . S
C184 O196 1.242 . S
C184 O197 1.258 . S
C185 C181 1.503 . S
C185 C186 1.379 . S
C185 C190 1.392 . S
C186 C185 1.379 . S
C186 C187 1.404 . S
C186 H200 0.929 . S
C187 C186 1.404 . S
C187 C188 1.389 . S
C188 C187 1.389 . S
C188 C189 1.399 . S
C188 H201 0.931 . S
C189 C188 1.399 . S
C189 C190 1.390 . S
C190 C185 1.392 . S
C190 C189 1.390 . S
C190 H202 0.929 . S
O191 Tb175 2.326 . S
O191 C179 1.242 . S
O192 Eu176 2.324 . S
O192 C179 1.258 . S
O193 Tb175 2.500 . S
O193 C195 1.273 . S
O194 Tb175 2.473 . S
O194 C195 1.257 . S
C195 O193 1.273 . S
C195 O194 1.257 . S
O196 Eu176 2.326 . S
O196 C184 1.242 . S
O197 Tb175 2.324 . S
O197 C184 1.258 . S
O198 Eu176 2.500 . S
O198 C181 1.273 . S
O199 Eu176 2.473 . S
O199 C181 1.257 . S
H200 C186 0.929 . S
H201 C188 0.931 . S
H202 C190 0.929 . S
O203 Tb204 2.292 . S
O203 C206 1.255 . S
Tb204 O203 2.292 . S
Tb204 O220 2.326 . S
Tb204 O222 2.500 . S
Tb204 O223 2.473 . S
Tb204 O226 2.324 . S
Eu205 O209 2.292 . S
Eu205 C210 2.852 . S
Eu205 O221 2.324 . S
Eu205 O225 2.326 . S
Eu205 O227 2.500 . S
Eu205 O228 2.473 . S
C206 O203 1.255 . S
C206 O207 1.247 . S
O207 C206 1.247 . S
C208 O220 1.242 . S
C208 O221 1.258 . S
O209 Eu205 2.292 . S
O209 C211 1.255 . S
C210 Eu205 2.852 . S
C210 C214 1.503 . S
C210 O227 1.273 . S
C210 O228 1.257 . S
C211 O209 1.255 . S
C211 O212 1.247 . S
O212 C211 1.247 . S
C213 O225 1.242 . S
C213 O226 1.258 . S
C214 C210 1.503 . S
C214 C215 1.379 . S
C214 C219 1.392 . S
C215 C214 1.379 . S
C215 C216 1.404 . S
C215 H229 0.929 . S
C216 C215 1.404 . S
C216 C217 1.389 . S
C217 C216 1.389 . S
C217 C218 1.399 . S
C217 H230 0.931 . S
C218 C217 1.399 . S
C218 C219 1.390 . S
C219 C214 1.392 . S
C219 C218 1.390 . S
C219 H231 0.929 . S
O220 Tb204 2.326 . S
O220 C208 1.242 . S
O221 Eu205 2.324 . S
O221 C208 1.258 . S
O222 Tb204 2.500 . S
O222 C224 1.273 . S
O223 Tb204 2.473 . S
O223 C224 1.257 . S
C224 O222 1.273 . S
C224 O223 1.257 . S
O225 Eu205 2.326 . S
O225 C213 1.242 . S
O226 Tb204 2.324 . S
O226 C213 1.258 . S
O227 Eu205 2.500 . S
O227 C210 1.273 . S
O228 Eu205 2.473 . S
O228 C210 1.257 . S
H229 C215 0.929 . S
H230 C217 0.931 . S
H231 C219 0.929 . S
O232 Tb233 2.292 . S
O232 C235 1.255 . S
Tb233 O232 2.292 . S
Tb233 O249 2.326 . S
Tb233 O251 2.500 . S
Tb233 O252 2.473 . S
Tb233 O255 2.324 . S
Eu234 O238 2.292 . S
Eu234 C239 2.852 . S
Eu234 O250 2.324 . S
Eu234 O254 2.326 . S
Eu234 O256 2.500 . S
Eu234 O257 2.473 . S
C235 O232 1.255 . S
C235 O236 1.247 . S
O236 C235 1.247 . S
C237 O249 1.242 . S
C237 O250 1.258 . S
O238 Eu234 2.292 . S
O238 C240 1.255 1_565 S
C239 Eu234 2.852 . S
C239 C243 1.503 . S
C239 O256 1.273 . S
C239 O257 1.257 . S
C240 O238 1.255 1_545 S
C240 O241 1.247 1_545 S
O241 C240 1.247 1_565 S
C242 O254 1.242 . S
C242 O255 1.258 . S
C243 C239 1.503 . S
C243 C244 1.379 . S
C243 C248 1.392 . S
C244 C243 1.379 . S
C244 C245 1.404 . S
C244 H258 0.929 . S
C245 C244 1.404 . S
C245 C246 1.389 . S
C246 C245 1.389 . S
C246 C247 1.399 . S
C246 H259 0.931 . S
C247 C246 1.399 . S
C247 C248 1.390 . S
C248 C243 1.392 . S
C248 C247 1.390 . S
C248 H260 0.929 . S
O249 Tb233 2.326 . S
O249 C237 1.242 . S
O250 Eu234 2.324 . S
O250 C237 1.258 . S
O251 Tb233 2.500 . S
O251 C253 1.273 . S
O252 Tb233 2.473 . S
O252 C253 1.257 . S
C253 O251 1.273 . S
C253 O252 1.257 . S
O254 Eu234 2.326 . S
O254 C242 1.242 . S
O255 Tb233 2.324 . S
O255 C242 1.258 . S
O256 Eu234 2.500 . S
O256 C239 1.273 . S
O257 Eu234 2.473 . S
O257 C239 1.257 . S
H258 C244 0.929 . S
H259 C246 0.931 . S
H260 C248 0.929 . S
O261 Tb262 2.292 . S
O261 C264 1.255 . S
Tb262 O261 2.292 . S
Tb262 O278 2.326 . S
Tb262 O280 2.500 . S
Tb262 O281 2.473 . S
Tb262 O284 2.324 . S
Eu263 O267 2.292 . S
Eu263 C268 2.852 . S
Eu263 O279 2.324 . S
Eu263 O283 2.326 . S
Eu263 O285 2.500 . S
Eu263 O286 2.473 . S
C264 O261 1.255 . S
C264 O265 1.247 . S
O265 C264 1.247 . S
C266 O278 1.242 . S
C266 O279 1.258 . S
O267 Eu263 2.292 . S
O267 C269 1.255 . S
C268 Eu263 2.852 . S
C268 C272 1.503 . S
C268 O285 1.273 . S
C268 O286 1.257 . S
C269 O267 1.255 . S
C269 O270 1.247 . S
O270 C269 1.247 . S
C271 O283 1.242 . S
C271 O284 1.258 . S
C272 C268 1.503 . S
C272 C273 1.379 . S
C272 C277 1.392 . S
C273 C272 1.379 . S
C273 C274 1.404 . S
C273 H287 0.929 . S
C274 C273 1.404 . S
C274 C275 1.389 . S
C275 C274 1.389 . S
C275 C276 1.399 . S
C275 H288 0.931 . S
C276 C275 1.399 . S
C276 C277 1.390 . S
C277 C272 1.392 . S
C277 C276 1.390 . S
C277 H289 0.929 . S
O278 Tb262 2.326 . S
O278 C266 1.242 . S
O279 Eu263 2.324 . S
O279 C266 1.258 . S
O280 Tb262 2.500 . S
O280 C282 1.273 . S
O281 Tb262 2.473 . S
O281 C282 1.257 . S
C282 O280 1.273 . S
C282 O281 1.257 . S
O283 Eu263 2.326 . S
O283 C271 1.242 . S
O284 Tb262 2.324 . S
O284 C271 1.258 . S
O285 Eu263 2.500 . S
O285 C268 1.273 . S
O286 Eu263 2.473 . S
O286 C268 1.257 . S
H287 C273 0.929 . S
H288 C275 0.931 . S
H289 C277 0.929 . S
O290 Tb291 2.292 . S
O290 C293 1.255 . S
Tb291 O290 2.292 . S
Tb291 O307 2.326 . S
Tb291 O309 2.500 . S
Tb291 O310 2.473 . S
Tb291 O313 2.324 . S
Eu292 O296 2.292 . S
Eu292 C297 2.852 . S
Eu292 O308 2.324 . S
Eu292 O312 2.326 . S
Eu292 O314 2.500 . S
Eu292 O315 2.473 . S
C293 O290 1.255 . S
C293 O294 1.247 . S
O294 C293 1.247 . S
C295 O307 1.242 . S
C295 O308 1.258 . S
O296 Eu292 2.292 . S
O296 C298 1.255 . S
C297 Eu292 2.852 . S
C297 C301 1.503 . S
C297 O314 1.273 . S
C297 O315 1.257 . S
C298 O296 1.255 . S
C298 O299 1.247 . S
O299 C298 1.247 . S
C300 O312 1.242 . S
C300 O313 1.258 . S
C301 C297 1.503 . S
C301 C302 1.379 . S
C301 C306 1.392 . S
C302 C301 1.379 . S
C302 C303 1.404 . S
C302 H316 0.929 . S
C303 C302 1.404 . S
C303 C304 1.389 . S
C304 C303 1.389 . S
C304 C305 1.399 . S
C304 H317 0.931 . S
C305 C304 1.399 . S
C305 C306 1.390 . S
C306 C301 1.392 . S
C306 C305 1.390 . S
C306 H318 0.929 . S
O307 Tb291 2.326 . S
O307 C295 1.242 . S
O308 Eu292 2.324 . S
O308 C295 1.258 . S
O309 Tb291 2.500 . S
O309 C311 1.273 . S
O310 Tb291 2.473 . S
O310 C311 1.257 . S
C311 O309 1.273 . S
C311 O310 1.257 . S
O312 Eu292 2.326 . S
O312 C300 1.242 . S
O313 Tb291 2.324 . S
O313 C300 1.258 . S
O314 Eu292 2.500 . S
O314 C297 1.273 . S
O315 Eu292 2.473 . S
O315 C297 1.257 . S
H316 C302 0.929 . S
H317 C304 0.931 . S
H318 C306 0.929 . S
O319 Tb320 2.292 . S
O319 C322 1.255 . S
Tb320 O319 2.292 . S
Tb320 O336 2.326 . S
Tb320 O338 2.500 . S
Tb320 O339 2.473 . S
Tb320 O342 2.324 . S
Eu321 O325 2.292 . S
Eu321 C326 2.852 . S
Eu321 O337 2.324 . S
Eu321 O341 2.326 . S
Eu321 O343 2.500 . S
Eu321 O344 2.473 . S
C322 O319 1.255 . S
C322 O323 1.247 . S
O323 C322 1.247 . S
C324 O336 1.242 . S
C324 O337 1.258 . S
O325 Eu321 2.292 . S
O325 C327 1.255 1_565 S
C326 Eu321 2.852 . S
C326 C330 1.503 . S
C326 O343 1.273 . S
C326 O344 1.257 . S
C327 O325 1.255 1_545 S
C327 O328 1.247 1_545 S
O328 C327 1.247 1_565 S
C329 O341 1.242 . S
C329 O342 1.258 . S
C330 C326 1.503 . S
C330 C331 1.379 . S
C330 C335 1.392 . S
C331 C330 1.379 . S
C331 C332 1.404 . S
C331 H345 0.929 . S
C332 C331 1.404 . S
C332 C333 1.389 . S
C333 C332 1.389 . S
C333 C334 1.399 . S
C333 H346 0.931 . S
C334 C333 1.399 . S
C334 C335 1.390 . S
C335 C330 1.392 . S
C335 C334 1.390 . S
C335 H347 0.929 . S
O336 Tb320 2.326 . S
O336 C324 1.242 . S
O337 Eu321 2.324 . S
O337 C324 1.258 . S
O338 Tb320 2.500 . S
O338 C340 1.273 . S
O339 Tb320 2.473 . S
O339 C340 1.257 . S
C340 O338 1.273 . S
C340 O339 1.257 . S
O341 Eu321 2.326 . S
O341 C329 1.242 . S
O342 Tb320 2.324 . S
O342 C329 1.258 . S
O343 Eu321 2.500 . S
O343 C326 1.273 . S
O344 Eu321 2.473 . S
O344 C326 1.257 . S
H345 C331 0.929 . S
H346 C333 0.931 . S
H347 C335 0.929 . S
O348 Tb349 2.292 . S
O348 C351 1.255 . S
Tb349 O348 2.292 . S
Tb349 O365 2.326 . S
Tb349 O367 2.500 . S
Tb349 O368 2.473 . S
Tb349 O371 2.324 . S
Eu350 O354 2.292 . S
Eu350 C355 2.852 . S
Eu350 O366 2.324 . S
Eu350 O370 2.326 . S
Eu350 O372 2.500 . S
Eu350 O373 2.473 . S
C351 O348 1.255 . S
C351 O352 1.247 . S
O352 C351 1.247 . S
C353 O365 1.242 . S
C353 O366 1.258 . S
O354 Eu350 2.292 . S
O354 C356 1.255 1_545 S
C355 Eu350 2.852 . S
C355 C359 1.503 . S
C355 O372 1.273 . S
C355 O373 1.257 . S
C356 O354 1.255 1_565 S
C356 O357 1.247 1_565 S
O357 C356 1.247 1_545 S
C358 O370 1.242 . S
C358 O371 1.258 . S
C359 C355 1.503 . S
C359 C360 1.379 . S
C359 C364 1.392 . S
C360 C359 1.379 . S
C360 C361 1.404 . S
C360 H374 0.929 . S
C361 C360 1.404 . S
C361 C362 1.389 . S
C362 C361 1.389 . S
C362 C363 1.399 . S
C362 H375 0.931 . S
C363 C362 1.399 . S
C363 C364 1.390 . S
C364 C359 1.392 . S
C364 C363 1.390 . S
C364 H376 0.929 . S
O365 Tb349 2.326 . S
O365 C353 1.242 . S
O366 Eu350 2.324 . S
O366 C353 1.258 . S
O367 Tb349 2.500 . S
O367 C369 1.273 . S
O368 Tb349 2.473 . S
O368 C369 1.257 . S
C369 O367 1.273 . S
C369 O368 1.257 . S
O370 Eu350 2.326 . S
O370 C358 1.242 . S
O371 Tb349 2.324 . S
O371 C358 1.258 . S
O372 Eu350 2.500 . S
O372 C355 1.273 . S
O373 Eu350 2.473 . S
O373 C355 1.257 . S
H374 C360 0.929 . S
H375 C362 0.931 . S
H376 C364 0.929 . S
O377 Tb378 2.292 . S
O377 C380 1.255 . S
Tb378 O377 2.292 . S
Tb378 O394 2.326 . S
Tb378 O396 2.500 . S
Tb378 O397 2.473 . S
Tb378 O400 2.324 . S
Eu379 O383 2.292 . S
Eu379 C384 2.852 . S
Eu379 O395 2.324 . S
Eu379 O399 2.326 . S
Eu379 O401 2.500 . S
Eu379 O402 2.473 . S
C380 O377 1.255 . S
C380 O381 1.247 . S
O381 C380 1.247 . S
C382 O394 1.242 . S
C382 O395 1.258 . S
O383 Eu379 2.292 . S
O383 C385 1.255 . S
C384 Eu379 2.852 . S
C384 C388 1.503 . S
C384 O401 1.273 . S
C384 O402 1.257 . S
C385 O383 1.255 . S
C385 O386 1.247 . S
O386 C385 1.247 . S
C387 O399 1.242 . S
C387 O400 1.258 . S
C388 C384 1.503 . S
C388 C389 1.379 . S
C388 C393 1.392 . S
C389 C388 1.379 . S
C389 C390 1.404 . S
C389 H403 0.929 . S
C390 C389 1.404 . S
C390 C391 1.389 . S
C391 C390 1.389 . S
C391 C392 1.399 . S
C391 H404 0.931 . S
C392 C391 1.399 . S
C392 C393 1.390 . S
C393 C388 1.392 . S
C393 C392 1.390 . S
C393 H405 0.929 . S
O394 Tb378 2.326 . S
O394 C382 1.242 . S
O395 Eu379 2.324 . S
O395 C382 1.258 . S
O396 Tb378 2.500 . S
O396 C398 1.273 . S
O397 Tb378 2.473 . S
O397 C398 1.257 . S
C398 O396 1.273 . S
C398 O397 1.257 . S
O399 Eu379 2.326 . S
O399 C387 1.242 . S
O400 Tb378 2.324 . S
O400 C387 1.258 . S
O401 Eu379 2.500 . S
O401 C384 1.273 . S
O402 Eu379 2.473 . S
O402 C384 1.257 . S
H403 C389 0.929 . S
H404 C391 0.931 . S
H405 C393 0.929 . S
O406 Tb407 2.292 . S
O406 C409 1.255 . S
Tb407 O406 2.292 . S
Tb407 O423 2.326 . S
Tb407 O425 2.500 . S
Tb407 O426 2.473 . S
Tb407 O429 2.324 . S
Eu408 O412 2.292 . S
Eu408 C413 2.852 . S
Eu408 O424 2.324 . S
Eu408 O428 2.326 . S
Eu408 O430 2.500 . S
Eu408 O431 2.473 . S
C409 O406 1.255 . S
C409 O410 1.247 . S
O410 C409 1.247 . S
C411 O423 1.242 . S
C411 O424 1.258 . S
O412 Eu408 2.292 . S
O412 C414 1.255 . S
C413 Eu408 2.852 . S
C413 C417 1.503 . S
C413 O430 1.273 . S
C413 O431 1.257 . S
C414 O412 1.255 . S
C414 O415 1.247 . S
O415 C414 1.247 . S
C416 O428 1.242 . S
C416 O429 1.258 . S
C417 C413 1.503 . S
C417 C418 1.379 . S
C417 C422 1.392 . S
C418 C417 1.379 . S
C418 C419 1.404 . S
C418 H432 0.929 . S
C419 C418 1.404 . S
C419 C420 1.389 . S
C420 C419 1.389 . S
C420 C421 1.399 . S
C420 H433 0.931 . S
C421 C420 1.399 . S
C421 C422 1.390 . S
C422 C417 1.392 . S
C422 C421 1.390 . S
C422 H434 0.929 . S
O423 Tb407 2.326 . S
O423 C411 1.242 . S
O424 Eu408 2.324 . S
O424 C411 1.258 . S
O425 Tb407 2.500 . S
O425 C427 1.273 . S
O426 Tb407 2.473 . S
O426 C427 1.257 . S
C427 O425 1.273 . S
C427 O426 1.257 . S
O428 Eu408 2.326 . S
O428 C416 1.242 . S
O429 Tb407 2.324 . S
O429 C416 1.258 . S
O430 Eu408 2.500 . S
O430 C413 1.273 . S
O431 Eu408 2.473 . S
O431 C413 1.257 . S
H432 C418 0.929 . S
H433 C420 0.931 . S
H434 C422 0.929 . S
O435 Tb436 2.292 . S
O435 C438 1.255 . S
Tb436 O435 2.292 . S
Tb436 O452 2.326 . S
Tb436 O454 2.500 . S
Tb436 O455 2.473 . S
Tb436 O458 2.324 . S
Eu437 O441 2.292 . S
Eu437 C442 2.852 . S
Eu437 O453 2.324 . S
Eu437 O457 2.326 . S
Eu437 O459 2.500 . S
Eu437 O460 2.473 . S
C438 O435 1.255 . S
C438 O439 1.247 . S
O439 C438 1.247 . S
C440 O452 1.242 . S
C440 O453 1.258 . S
O441 Eu437 2.292 . S
O441 C443 1.255 1_545 S
C442 Eu437 2.852 . S
C442 C446 1.503 . S
C442 O459 1.273 . S
C442 O460 1.257 . S
C443 O441 1.255 1_565 S
C443 O444 1.247 1_565 S
O444 C443 1.247 1_545 S
C445 O457 1.242 . S
C445 O458 1.258 . S
C446 C442 1.503 . S
C446 C447 1.379 . S
C446 C451 1.392 . S
C447 C446 1.379 . S
C447 C448 1.404 . S
C447 H461 0.929 . S
C448 C447 1.404 . S
C448 C449 1.389 . S
C449 C448 1.389 . S
C449 C450 1.399 . S
C449 H462 0.931 . S
C450 C449 1.399 . S
C450 C451 1.390 . S
C451 C446 1.392 . S
C451 C450 1.390 . S
C451 H463 0.929 . S
O452 Tb436 2.326 . S
O452 C440 1.242 . S
O453 Eu437 2.324 . S
O453 C440 1.258 . S
O454 Tb436 2.500 . S
O454 C456 1.273 . S
O455 Tb436 2.473 . S
O455 C456 1.257 . S
C456 O454 1.273 . S
C456 O455 1.257 . S
O457 Eu437 2.326 . S
O457 C445 1.242 . S
O458 Tb436 2.324 . S
O458 C445 1.258 . S
O459 Eu437 2.500 . S
O459 C442 1.273 . S
O460 Eu437 2.473 . S
O460 C442 1.257 . S
H461 C447 0.929 . S
H462 C449 0.931 . S
H463 C451 0.929 . S
O464 Tb465 2.292 . S
O464 C467 1.255 . S
Tb465 O464 2.292 . S
Tb465 O481 2.326 . S
Tb465 O483 2.500 . S
Tb465 O484 2.473 . S
Tb465 O487 2.324 . S
Eu466 O470 2.292 . S
Eu466 C471 2.852 . S
Eu466 O482 2.324 . S
Eu466 O486 2.326 . S
Eu466 O488 2.500 . S
Eu466 O489 2.473 . S
C467 O464 1.255 . S
C467 O468 1.247 . S
O468 C467 1.247 . S
C469 O481 1.242 . S
C469 O482 1.258 . S
O470 Eu466 2.292 . S
O470 C472 1.255 . S
C471 Eu466 2.852 . S
C471 C475 1.503 . S
C471 O488 1.273 . S
C471 O489 1.257 . S
C472 O470 1.255 . S
C472 O473 1.247 . S
O473 C472 1.247 . S
C474 O486 1.242 . S
C474 O487 1.258 . S
C475 C471 1.503 . S
C475 C476 1.379 . S
C475 C480 1.392 . S
C476 C475 1.379 . S
C476 C477 1.404 . S
C476 H490 0.929 . S
C477 C476 1.404 . S
C477 C478 1.389 . S
C478 C477 1.389 . S
C478 C479 1.399 . S
C478 H491 0.931 . S
C479 C478 1.399 . S
C479 C480 1.390 . S
C480 C475 1.392 . S
C480 C479 1.390 . S
C480 H492 0.929 . S
O481 Tb465 2.326 . S
O481 C469 1.242 . S
O482 Eu466 2.324 . S
O482 C469 1.258 . S
O483 Tb465 2.500 . S
O483 C485 1.273 . S
O484 Tb465 2.473 . S
O484 C485 1.257 . S
C485 O483 1.273 . S
C485 O484 1.257 . S
O486 Eu466 2.326 . S
O486 C474 1.242 . S
O487 Tb465 2.324 . S
O487 C474 1.258 . S
O488 Eu466 2.500 . S
O488 C471 1.273 . S
O489 Eu466 2.473 . S
O489 C471 1.257 . S
H490 C476 0.929 . S
H491 C478 0.931 . S
H492 C480 0.929 . S
O493 Tb494 2.292 . S
O493 C496 1.255 1_565 S
Tb494 O493 2.292 . S
Tb494 O510 2.326 . S
Tb494 O512 2.500 . S
Tb494 O513 2.473 . S
Tb494 O516 2.324 . S
Eu495 O499 2.292 . S
Eu495 C500 2.852 . S
Eu495 O511 2.324 . S
Eu495 O515 2.326 . S
Eu495 O517 2.500 . S
Eu495 O518 2.473 . S
C496 O493 1.255 1_545 S
C496 O497 1.247 . S
O497 C496 1.247 . S
C498 O510 1.242 . S
C498 O511 1.258 . S
O499 Eu495 2.292 . S
O499 C501 1.255 . S
C500 Eu495 2.852 . S
C500 C504 1.503 . S
C500 O517 1.273 . S
C500 O518 1.257 . S
C501 O499 1.255 . S
C501 O502 1.247 . S
O502 C501 1.247 . S
C503 O515 1.242 . S
C503 O516 1.258 . S
C504 C500 1.503 . S
C504 C505 1.379 . S
C504 C509 1.392 . S
C505 C504 1.379 . S
C505 C506 1.404 . S
C505 H519 0.929 . S
C506 C505 1.404 . S
C506 C507 1.389 . S
C507 C506 1.389 . S
C507 C508 1.399 . S
C507 H520 0.931 . S
C508 C507 1.399 . S
C508 C509 1.390 . S
C509 C504 1.392 . S
C509 C508 1.390 . S
C509 H521 0.929 . S
O510 Tb494 2.326 . S
O510 C498 1.242 . S
O511 Eu495 2.324 . S
O511 C498 1.258 . S
O512 Tb494 2.500 . S
O512 C514 1.273 . S
O513 Tb494 2.473 . S
O513 C514 1.257 . S
C514 O512 1.273 . S
C514 O513 1.257 . S
O515 Eu495 2.326 . S
O515 C503 1.242 . S
O516 Tb494 2.324 . S
O516 C503 1.258 . S
O517 Eu495 2.500 . S
O517 C500 1.273 . S
O518 Eu495 2.473 . S
O518 C500 1.257 . S
H519 C505 0.929 . S
H520 C507 0.931 . S
H521 C509 0.929 . S
O522 Tb523 2.292 . S
O522 C525 1.255 1_565 S
Tb523 O522 2.292 . S
Tb523 O539 2.326 . S
Tb523 O541 2.500 . S
Tb523 O542 2.473 . S
Tb523 O545 2.324 . S
Eu524 O528 2.292 . S
Eu524 C529 2.852 . S
Eu524 O540 2.324 . S
Eu524 O544 2.326 . S
Eu524 O546 2.500 . S
Eu524 O547 2.473 . S
C525 O522 1.255 1_545 S
C525 O526 1.247 . S
O526 C525 1.247 . S
C527 O539 1.242 . S
C527 O540 1.258 . S
O528 Eu524 2.292 . S
O528 C530 1.255 . S
C529 Eu524 2.852 . S
C529 C533 1.503 . S
C529 O546 1.273 . S
C529 O547 1.257 . S
C530 O528 1.255 . S
C530 O531 1.247 . S
O531 C530 1.247 . S
C532 O544 1.242 . S
C532 O545 1.258 . S
C533 C529 1.503 . S
C533 C534 1.379 . S
C533 C538 1.392 . S
C534 C533 1.379 . S
C534 C535 1.404 . S
C534 H548 0.929 . S
C535 C534 1.404 . S
C535 C536 1.389 . S
C536 C535 1.389 . S
C536 C537 1.399 . S
C536 H549 0.931 . S
C537 C536 1.399 . S
C537 C538 1.390 . S
C538 C533 1.392 . S
C538 C537 1.390 . S
C538 H550 0.929 . S
O539 Tb523 2.326 . S
O539 C527 1.242 . S
O540 Eu524 2.324 . S
O540 C527 1.258 . S
O541 Tb523 2.500 . S
O541 C543 1.273 . S
O542 Tb523 2.473 . S
O542 C543 1.257 . S
C543 O541 1.273 . S
C543 O542 1.257 . S
O544 Eu524 2.326 . S
O544 C532 1.242 . S
O545 Tb523 2.324 . S
O545 C532 1.258 . S
O546 Eu524 2.500 . S
O546 C529 1.273 . S
O547 Eu524 2.473 . S
O547 C529 1.257 . S
H548 C534 0.929 . S
H549 C536 0.931 . S
H550 C538 0.929 . S
O551 Tb552 2.292 . S
O551 C554 1.255 . S
Tb552 O551 2.292 . S
Tb552 O568 2.326 . S
Tb552 O570 2.500 . S
Tb552 O571 2.473 . S
Tb552 O574 2.324 . S
Eu553 O557 2.292 . S
Eu553 C558 2.852 . S
Eu553 O569 2.324 . S
Eu553 O573 2.326 . S
Eu553 O575 2.500 . S
Eu553 O576 2.473 . S
C554 O551 1.255 . S
C554 O555 1.247 . S
O555 C554 1.247 . S
C556 O568 1.242 . S
C556 O569 1.258 . S
O557 Eu553 2.292 . S
O557 C559 1.255 . S
C558 Eu553 2.852 . S
C558 C562 1.503 . S
C558 O575 1.273 . S
C558 O576 1.257 . S
C559 O557 1.255 . S
C559 O560 1.247 . S
O560 C559 1.247 . S
C561 O573 1.242 . S
C561 O574 1.258 . S
C562 C558 1.503 . S
C562 C563 1.379 . S
C562 C567 1.392 . S
C563 C562 1.379 . S
C563 C564 1.404 . S
C563 H577 0.929 . S
C564 C563 1.404 . S
C564 C565 1.389 . S
C565 C564 1.389 . S
C565 C566 1.399 . S
C565 H578 0.931 . S
C566 C565 1.399 . S
C566 C567 1.390 . S
C567 C562 1.392 . S
C567 C566 1.390 . S
C567 H579 0.929 . S
O568 Tb552 2.326 . S
O568 C556 1.242 . S
O569 Eu553 2.324 . S
O569 C556 1.258 . S
O570 Tb552 2.500 . S
O570 C572 1.273 . S
O571 Tb552 2.473 . S
O571 C572 1.257 . S
C572 O570 1.273 . S
C572 O571 1.257 . S
O573 Eu553 2.326 . S
O573 C561 1.242 . S
O574 Tb552 2.324 . S
O574 C561 1.258 . S
O575 Eu553 2.500 . S
O575 C558 1.273 . S
O576 Eu553 2.473 . S
O576 C558 1.257 . S
H577 C563 0.929 . S
H578 C565 0.931 . S
H579 C567 0.929 . S
O580 Tb581 2.292 . S
O580 C583 1.255 . S
Tb581 O580 2.292 . S
Tb581 O597 2.326 . S
Tb581 O599 2.500 . S
Tb581 O600 2.473 . S
Tb581 O603 2.324 . S
Eu582 O586 2.292 . S
Eu582 C587 2.852 . S
Eu582 O598 2.324 . S
Eu582 O602 2.326 . S
Eu582 O604 2.500 . S
Eu582 O605 2.473 . S
C583 O580 1.255 . S
C583 O584 1.247 . S
O584 C583 1.247 . S
C585 O597 1.242 . S
C585 O598 1.258 . S
O586 Eu582 2.292 . S
O586 C588 1.255 . S
C587 Eu582 2.852 . S
C587 C591 1.503 . S
C587 O604 1.273 . S
C587 O605 1.257 . S
C588 O586 1.255 . S
C588 O589 1.247 . S
O589 C588 1.247 . S
C590 O602 1.242 . S
C590 O603 1.258 . S
C591 C587 1.503 . S
C591 C592 1.379 . S
C591 C596 1.392 . S
C592 C591 1.379 . S
C592 C593 1.404 . S
C592 H606 0.929 . S
C593 C592 1.404 . S
C593 C594 1.389 . S
C594 C593 1.389 . S
C594 C595 1.399 . S
C594 H607 0.931 . S
C595 C594 1.399 . S
C595 C596 1.390 . S
C596 C591 1.392 . S
C596 C595 1.390 . S
C596 H608 0.929 . S
O597 Tb581 2.326 . S
O597 C585 1.242 . S
O598 Eu582 2.324 . S
O598 C585 1.258 . S
O599 Tb581 2.500 . S
O599 C601 1.273 . S
O600 Tb581 2.473 . S
O600 C601 1.257 . S
C601 O599 1.273 . S
C601 O600 1.257 . S
O602 Eu582 2.326 . S
O602 C590 1.242 . S
O603 Tb581 2.324 . S
O603 C590 1.258 . S
O604 Eu582 2.500 . S
O604 C587 1.273 . S
O605 Eu582 2.473 . S
O605 C587 1.257 . S
H606 C592 0.929 . S
H607 C594 0.931 . S
H608 C596 0.929 . S
O609 Tb610 2.292 . S
O609 C612 1.255 1_545 S
Tb610 O609 2.292 . S
Tb610 O626 2.326 . S
Tb610 O628 2.500 . S
Tb610 O629 2.473 . S
Tb610 O632 2.324 . S
Eu611 O615 2.292 . S
Eu611 C616 2.852 . S
Eu611 O627 2.324 . S
Eu611 O631 2.326 . S
Eu611 O633 2.500 . S
Eu611 O634 2.473 . S
C612 O609 1.255 1_565 S
C612 O613 1.247 . S
O613 C612 1.247 . S
C614 O626 1.242 . S
C614 O627 1.258 . S
O615 Eu611 2.292 . S
O615 C617 1.255 . S
C616 Eu611 2.852 . S
C616 C620 1.503 . S
C616 O633 1.273 . S
C616 O634 1.257 . S
C617 O615 1.255 . S
C617 O618 1.247 . S
O618 C617 1.247 . S
C619 O631 1.242 . S
C619 O632 1.258 . S
C620 C616 1.503 . S
C620 C621 1.379 . S
C620 C625 1.392 . S
C621 C620 1.379 . S
C621 C622 1.404 . S
C621 H635 0.929 . S
C622 C621 1.404 . S
C622 C623 1.389 . S
C623 C622 1.389 . S
C623 C624 1.399 . S
C623 H636 0.931 . S
C624 C623 1.399 . S
C624 C625 1.390 . S
C625 C620 1.392 . S
C625 C624 1.390 . S
C625 H637 0.929 . S
O626 Tb610 2.326 . S
O626 C614 1.242 . S
O627 Eu611 2.324 . S
O627 C614 1.258 . S
O628 Tb610 2.500 . S
O628 C630 1.273 . S
O629 Tb610 2.473 . S
O629 C630 1.257 . S
C630 O628 1.273 . S
C630 O629 1.257 . S
O631 Eu611 2.326 . S
O631 C619 1.242 . S
O632 Tb610 2.324 . S
O632 C619 1.258 . S
O633 Eu611 2.500 . S
O633 C616 1.273 . S
O634 Eu611 2.473 . S
O634 C616 1.257 . S
H635 C621 0.929 . S
H636 C623 0.931 . S
H637 C625 0.929 . S
O638 Tb639 2.292 . S
O638 C641 1.255 1_545 S
Tb639 O638 2.292 . S
Tb639 O655 2.326 . S
Tb639 O657 2.500 . S
Tb639 O658 2.473 . S
Tb639 O661 2.324 . S
Eu640 O644 2.292 . S
Eu640 C645 2.852 . S
Eu640 O656 2.324 . S
Eu640 O660 2.326 . S
Eu640 O662 2.500 . S
Eu640 O663 2.473 . S
C641 O638 1.255 1_565 S
C641 O642 1.247 . S
O642 C641 1.247 . S
C643 O655 1.242 . S
C643 O656 1.258 . S
O644 Eu640 2.292 . S
O644 C646 1.255 . S
C645 Eu640 2.852 . S
C645 C649 1.503 . S
C645 O662 1.273 . S
C645 O663 1.257 . S
C646 O644 1.255 . S
C646 O647 1.247 . S
O647 C646 1.247 . S
C648 O660 1.242 . S
C648 O661 1.258 . S
C649 C645 1.503 . S
C649 C650 1.379 . S
C649 C654 1.392 . S
C650 C649 1.379 . S
C650 C651 1.404 . S
C650 H664 0.929 . S
C651 C650 1.404 . S
C651 C652 1.389 . S
C652 C651 1.389 . S
C652 C653 1.399 . S
C652 H665 0.931 . S
C653 C652 1.399 . S
C653 C654 1.390 . S
C654 C649 1.392 . S
C654 C653 1.390 . S
C654 H666 0.929 . S
O655 Tb639 2.326 . S
O655 C643 1.242 . S
O656 Eu640 2.324 . S
O656 C643 1.258 . S
O657 Tb639 2.500 . S
O657 C659 1.273 . S
O658 Tb639 2.473 . S
O658 C659 1.257 . S
C659 O657 1.273 . S
C659 O658 1.257 . S
O660 Eu640 2.326 . S
O660 C648 1.242 . S
O661 Tb639 2.324 . S
O661 C648 1.258 . S
O662 Eu640 2.500 . S
O662 C645 1.273 . S
O663 Eu640 2.473 . S
O663 C645 1.257 . S
H664 C650 0.929 . S
H665 C652 0.931 . S
H666 C654 0.929 . S
O667 Tb668 2.292 . S
O667 C670 1.255 . S
Tb668 O667 2.292 . S
Tb668 O684 2.326 . S
Tb668 O686 2.500 . S
Tb668 O687 2.473 . S
Tb668 O690 2.324 . S
Eu669 O673 2.292 . S
Eu669 C674 2.852 . S
Eu669 O685 2.324 . S
Eu669 O689 2.326 . S
Eu669 O691 2.500 . S
Eu669 O692 2.473 . S
C670 O667 1.255 . S
C670 O671 1.247 . S
O671 C670 1.247 . S
C672 O684 1.242 . S
C672 O685 1.258 . S
O673 Eu669 2.292 . S
O673 C675 1.255 . S
C674 Eu669 2.852 . S
C674 C678 1.503 . S
C674 O691 1.273 . S
C674 O692 1.257 . S
C675 O673 1.255 . S
C675 O676 1.247 . S
O676 C675 1.247 . S
C677 O689 1.242 . S
C677 O690 1.258 . S
C678 C674 1.503 . S
C678 C679 1.379 . S
C678 C683 1.392 . S
C679 C678 1.379 . S
C679 C680 1.404 . S
C679 H693 0.929 . S
C680 C679 1.404 . S
C680 C681 1.389 . S
C681 C680 1.389 . S
C681 C682 1.399 . S
C681 H694 0.931 . S
C682 C681 1.399 . S
C682 C683 1.390 . S
C683 C678 1.392 . S
C683 C682 1.390 . S
C683 H695 0.929 . S
O684 Tb668 2.326 . S
O684 C672 1.242 . S
O685 Eu669 2.324 . S
O685 C672 1.258 . S
O686 Tb668 2.500 . S
O686 C688 1.273 . S
O687 Tb668 2.473 . S
O687 C688 1.257 . S
C688 O686 1.273 . S
C688 O687 1.257 . S
O689 Eu669 2.326 . S
O689 C677 1.242 . S
O690 Tb668 2.324 . S
O690 C677 1.258 . S
O691 Eu669 2.500 . S
O691 C674 1.273 . S
O692 Eu669 2.473 . S
O692 C674 1.257 . S
H693 C679 0.929 . S
H694 C681 0.931 . S
H695 C683 0.929 . S
O696 Tb697 2.292 . S
O696 C699 1.255 . S
Tb697 O696 2.292 . S
Tb697 O713 2.326 . S
Tb697 O715 2.500 . S
Tb697 O716 2.473 . S
Tb697 O719 2.324 . S
Eu698 O702 2.292 . S
Eu698 C703 2.852 . S
Eu698 O714 2.324 . S
Eu698 O718 2.326 . S
Eu698 O720 2.500 . S
Eu698 O721 2.473 . S
C699 O696 1.255 . S
C699 O700 1.247 . S
O700 C699 1.247 . S
C701 O713 1.242 . S
C701 O714 1.258 . S
O702 Eu698 2.292 . S
O702 C704 1.255 1_565 S
C703 Eu698 2.852 . S
C703 C707 1.503 . S
C703 O720 1.273 . S
C703 O721 1.257 . S
C704 O702 1.255 1_545 S
C704 O705 1.247 1_545 S
O705 C704 1.247 1_565 S
C706 O718 1.242 . S
C706 O719 1.258 . S
C707 C703 1.503 . S
C707 C708 1.379 1_554 S
C707 C712 1.392 . S
C708 C707 1.379 1_556 S
C708 C709 1.404 . S
C708 H722 0.912 1_556 S
C709 C708 1.404 . S
C709 C710 1.389 . S
C710 C709 1.389 . S
C710 C711 1.399 . S
C710 H723 0.931 . S
C711 C710 1.399 . S
C711 C712 1.390 1_556 S
C712 C707 1.392 . S
C712 C711 1.390 1_554 S
C712 H724 0.929 . S
O713 Tb697 2.326 . S
O713 C701 1.242 . S
O714 Eu698 2.324 . S
O714 C701 1.258 . S
O715 Tb697 2.500 . S
O715 C717 1.273 . S
O716 Tb697 2.473 . S
O716 C717 1.257 . S
C717 O715 1.273 . S
C717 O716 1.257 . S
O718 Eu698 2.326 . S
O718 C706 1.242 . S
O719 Tb697 2.324 . S
O719 C706 1.258 . S
O720 Eu698 2.500 . S
O720 C703 1.273 . S
O721 Eu698 2.473 . S
O721 C703 1.257 . S
H722 C708 0.912 1_554 S
H723 C710 0.931 . S
H724 C712 0.929 . S
O725 Tb726 2.292 . S
O725 C728 1.255 . S
Tb726 O725 2.292 . S
Tb726 O742 2.326 . S
Tb726 O744 2.500 . S
Tb726 O745 2.473 . S
Tb726 O748 2.324 . S
Eu727 O731 2.292 . S
Eu727 C732 2.852 . S
Eu727 O743 2.324 . S
Eu727 O747 2.326 . S
Eu727 O749 2.500 . S
Eu727 O750 2.473 . S
C728 O725 1.255 . S
C728 O729 1.247 . S
O729 C728 1.247 . S
C730 O742 1.242 . S
C730 O743 1.258 . S
O731 Eu727 2.292 . S
O731 C733 1.255 . S
C732 Eu727 2.852 . S
C732 C736 1.503 . S
C732 O749 1.273 . S
C732 O750 1.257 . S
C733 O731 1.255 . S
C733 O734 1.247 . S
O734 C733 1.247 . S
C735 O747 1.242 . S
C735 O748 1.258 . S
C736 C732 1.503 . S
C736 C737 1.379 1_554 S
C736 C741 1.392 . S
C737 C736 1.379 1_556 S
C737 C738 1.404 . S
C737 H751 0.912 1_556 S
C738 C737 1.404 . S
C738 C739 1.389 . S
C739 C738 1.389 . S
C739 C740 1.399 . S
C739 H752 0.931 . S
C740 C739 1.399 . S
C740 C741 1.390 1_556 S
C741 C736 1.392 . S
C741 C740 1.390 1_554 S
C741 H753 0.929 . S
O742 Tb726 2.326 . S
O742 C730 1.242 . S
O743 Eu727 2.324 . S
O743 C730 1.258 . S
O744 Tb726 2.500 . S
O744 C746 1.273 . S
O745 Tb726 2.473 . S
O745 C746 1.257 . S
C746 O744 1.273 . S
C746 O745 1.257 . S
O747 Eu727 2.326 . S
O747 C735 1.242 . S
O748 Tb726 2.324 . S
O748 C735 1.258 . S
O749 Eu727 2.500 . S
O749 C732 1.273 . S
O750 Eu727 2.473 . S
O750 C732 1.257 . S
H751 C737 0.912 1_554 S
H752 C739 0.931 . S
H753 C741 0.929 . S
O754 Tb755 2.292 . S
O754 C757 1.255 . S
Tb755 O754 2.292 . S
Tb755 O771 2.326 . S
Tb755 O773 2.500 . S
Tb755 O774 2.473 . S
Tb755 O777 2.324 . S
Eu756 O760 2.292 . S
Eu756 C761 2.852 . S
Eu756 O772 2.324 . S
Eu756 O776 2.326 . S
Eu756 O778 2.500 . S
Eu756 O779 2.473 . S
C757 O754 1.255 . S
C757 O758 1.247 . S
O758 C757 1.247 . S
C759 O771 1.242 . S
C759 O772 1.258 . S
O760 Eu756 2.292 . S
O760 C762 1.255 . S
C761 Eu756 2.852 . S
C761 C765 1.503 . S
C761 O778 1.273 . S
C761 O779 1.257 . S
C762 O760 1.255 . S
C762 O763 1.247 . S
O763 C762 1.247 . S
C764 O776 1.242 . S
C764 O777 1.258 . S
C765 C761 1.503 . S
C765 C766 1.379 . S
C765 C770 1.392 . S
C766 C765 1.379 . S
C766 C767 1.404 . S
C766 H780 0.929 . S
C767 C766 1.404 . S
C767 C768 1.389 . S
C768 C767 1.389 . S
C768 C769 1.399 . S
C768 H781 0.931 . S
C769 C768 1.399 . S
C769 C770 1.390 . S
C770 C765 1.392 . S
C770 C769 1.390 . S
C770 H782 0.929 . S
O771 Tb755 2.326 . S
O771 C759 1.242 . S
O772 Eu756 2.324 . S
O772 C759 1.258 . S
O773 Tb755 2.500 . S
O773 C775 1.273 . S
O774 Tb755 2.473 . S
O774 C775 1.257 . S
C775 O773 1.273 . S
C775 O774 1.257 . S
O776 Eu756 2.326 . S
O776 C764 1.242 . S
O777 Tb755 2.324 . S
O777 C764 1.258 . S
O778 Eu756 2.500 . S
O778 C761 1.273 . S
O779 Eu756 2.473 . S
O779 C761 1.257 . S
H780 C766 0.929 . S
H781 C768 0.931 . S
H782 C770 0.929 . S
O783 Tb784 2.292 . S
O783 C786 1.255 . S
Tb784 O783 2.292 . S
Tb784 O800 2.326 . S
Tb784 O802 2.500 . S
Tb784 O803 2.473 . S
Tb784 O806 2.324 . S
Eu785 O789 2.292 . S
Eu785 C790 2.852 . S
Eu785 O801 2.324 . S
Eu785 O805 2.326 . S
Eu785 O807 2.500 . S
Eu785 O808 2.473 . S
C786 O783 1.255 . S
C786 O787 1.247 . S
O787 C786 1.247 . S
C788 O800 1.242 . S
C788 O801 1.258 . S
O789 Eu785 2.292 . S
O789 C791 1.255 1_565 S
C790 Eu785 2.852 . S
C790 C794 1.503 . S
C790 O807 1.273 . S
C790 O808 1.257 . S
C791 O789 1.255 1_545 S
C791 O792 1.247 1_545 S
O792 C791 1.247 1_565 S
C793 O805 1.242 . S
C793 O806 1.258 . S
C794 C790 1.503 . S
C794 C795 1.379 . S
C794 C799 1.392 . S
C795 C794 1.379 . S
C795 C796 1.404 . S
C795 H809 0.929 . S
C796 C795 1.404 . S
C796 C797 1.389 . S
C797 C796 1.389 . S
C797 C798 1.399 . S
C797 H810 0.931 . S
C798 C797 1.399 . S
C798 C799 1.390 . S
C799 C794 1.392 . S
C799 C798 1.390 . S
C799 H811 0.929 . S
O800 Tb784 2.326 . S
O800 C788 1.242 . S
O801 Eu785 2.324 . S
O801 C788 1.258 . S
O802 Tb784 2.500 . S
O802 C804 1.273 . S
O803 Tb784 2.473 . S
O803 C804 1.257 . S
C804 O802 1.273 . S
C804 O803 1.257 . S
O805 Eu785 2.326 . S
O805 C793 1.242 . S
O806 Tb784 2.324 . S
O806 C793 1.258 . S
O807 Eu785 2.500 . S
O807 C790 1.273 . S
O808 Eu785 2.473 . S
O808 C790 1.257 . S
H809 C795 0.929 . S
H810 C797 0.931 . S
H811 C799 0.929 . S
O812 Tb813 2.292 . S
O812 C815 1.255 . S
Tb813 O812 2.292 . S
Tb813 O829 2.326 . S
Tb813 O831 2.500 . S
Tb813 O832 2.473 . S
Tb813 O835 2.324 . S
Eu814 O818 2.292 . S
Eu814 C819 2.852 . S
Eu814 O830 2.324 . S
Eu814 O834 2.326 . S
Eu814 O836 2.500 . S
Eu814 O837 2.473 . S
C815 O812 1.255 . S
C815 O816 1.247 . S
O816 C815 1.247 . S
C817 O829 1.242 . S
C817 O830 1.258 . S
O818 Eu814 2.292 . S
O818 C820 1.255 1_545 S
C819 Eu814 2.852 . S
C819 C823 1.503 . S
C819 O836 1.273 . S
C819 O837 1.257 . S
C820 O818 1.255 1_565 S
C820 O821 1.247 1_565 S
O821 C820 1.247 1_545 S
C822 O834 1.242 . S
C822 O835 1.258 . S
C823 C819 1.503 . S
C823 C824 1.379 1_556 S
C823 C828 1.392 . S
C824 C823 1.379 1_554 S
C824 C825 1.404 . S
C824 H838 0.912 1_554 S
C825 C824 1.404 . S
C825 C826 1.389 . S
C826 C825 1.389 . S
C826 C827 1.399 . S
C826 H839 0.931 . S
C827 C826 1.399 . S
C827 C828 1.390 1_554 S
C828 C823 1.392 . S
C828 C827 1.390 1_556 S
C828 H840 0.929 . S
O829 Tb813 2.326 . S
O829 C817 1.242 . S
O830 Eu814 2.324 . S
O830 C817 1.258 . S
O831 Tb813 2.500 . S
O831 C833 1.273 . S
O832 Tb813 2.473 . S
O832 C833 1.257 . S
C833 O831 1.273 . S
C833 O832 1.257 . S
O834 Eu814 2.326 . S
O834 C822 1.242 . S
O835 Tb813 2.324 . S
O835 C822 1.258 . S
O836 Eu814 2.500 . S
O836 C819 1.273 . S
O837 Eu814 2.473 . S
O837 C819 1.257 . S
H838 C824 0.912 1_556 S
H839 C826 0.931 . S
H840 C828 0.929 . S
O841 Tb842 2.292 . S
O841 C844 1.255 . S
Tb842 O841 2.292 . S
Tb842 O858 2.326 . S
Tb842 O860 2.500 . S
Tb842 O861 2.473 . S
Tb842 O864 2.324 . S
Eu843 O847 2.292 . S
Eu843 C848 2.852 . S
Eu843 O859 2.324 . S
Eu843 O863 2.326 . S
Eu843 O865 2.500 . S
Eu843 O866 2.473 . S
C844 O841 1.255 . S
C844 O845 1.247 . S
O845 C844 1.247 . S
C846 O858 1.242 . S
C846 O859 1.258 . S
O847 Eu843 2.292 . S
O847 C849 1.255 . S
C848 Eu843 2.852 . S
C848 C852 1.503 . S
C848 O865 1.273 . S
C848 O866 1.257 . S
C849 O847 1.255 . S
C849 O850 1.247 . S
O850 C849 1.247 . S
C851 O863 1.242 . S
C851 O864 1.258 . S
C852 C848 1.503 . S
C852 C853 1.379 1_556 S
C852 C857 1.392 . S
C853 C852 1.379 1_554 S
C853 C854 1.404 . S
C853 H867 0.912 1_554 S
C854 C853 1.404 . S
C854 C855 1.389 . S
C855 C854 1.389 . S
C855 C856 1.399 . S
C855 H868 0.931 . S
C856 C855 1.399 . S
C856 C857 1.390 1_554 S
C857 C852 1.392 . S
C857 C856 1.390 1_556 S
C857 H869 0.929 . S
O858 Tb842 2.326 . S
O858 C846 1.242 . S
O859 Eu843 2.324 . S
O859 C846 1.258 . S
O860 Tb842 2.500 . S
O860 C862 1.273 . S
O861 Tb842 2.473 . S
O861 C862 1.257 . S
C862 O860 1.273 . S
C862 O861 1.257 . S
O863 Eu843 2.326 . S
O863 C851 1.242 . S
O864 Tb842 2.324 . S
O864 C851 1.258 . S
O865 Eu843 2.500 . S
O865 C848 1.273 . S
O866 Eu843 2.473 . S
O866 C848 1.257 . S
H867 C853 0.912 1_556 S
H868 C855 0.931 . S
H869 C857 0.929 . S
O870 Tb871 2.292 . S
O870 C873 1.255 . S
Tb871 O870 2.292 . S
Tb871 O887 2.326 . S
Tb871 O889 2.500 . S
Tb871 O890 2.473 . S
Tb871 O893 2.324 . S
Eu872 O876 2.292 . S
Eu872 C877 2.852 . S
Eu872 O888 2.324 . S
Eu872 O892 2.326 . S
Eu872 O894 2.500 . S
Eu872 O895 2.473 . S
C873 O870 1.255 . S
C873 O874 1.247 . S
O874 C873 1.247 . S
C875 O887 1.242 . S
C875 O888 1.258 . S
O876 Eu872 2.292 . S
O876 C878 1.255 . S
C877 Eu872 2.852 . S
C877 C881 1.503 . S
C877 O894 1.273 . S
C877 O895 1.257 . S
C878 O876 1.255 . S
C878 O879 1.247 . S
O879 C878 1.247 . S
C880 O892 1.242 . S
C880 O893 1.258 . S
C881 C877 1.503 . S
C881 C882 1.379 . S
C881 C886 1.392 . S
C882 C881 1.379 . S
C882 C883 1.404 . S
C882 H896 0.929 . S
C883 C882 1.404 . S
C883 C884 1.389 . S
C884 C883 1.389 . S
C884 C885 1.399 . S
C884 H897 0.931 . S
C885 C884 1.399 . S
C885 C886 1.390 . S
C886 C881 1.392 . S
C886 C885 1.390 . S
C886 H898 0.929 . S
O887 Tb871 2.326 . S
O887 C875 1.242 . S
O888 Eu872 2.324 . S
O888 C875 1.258 . S
O889 Tb871 2.500 . S
O889 C891 1.273 . S
O890 Tb871 2.473 . S
O890 C891 1.257 . S
C891 O889 1.273 . S
C891 O890 1.257 . S
O892 Eu872 2.326 . S
O892 C880 1.242 . S
O893 Tb871 2.324 . S
O893 C880 1.258 . S
O894 Eu872 2.500 . S
O894 C877 1.273 . S
O895 Eu872 2.473 . S
O895 C877 1.257 . S
H896 C882 0.929 . S
H897 C884 0.931 . S
H898 C886 0.929 . S
O899 Tb900 2.292 . S
O899 C902 1.255 . S
Tb900 O899 2.292 . S
Tb900 O916 2.326 . S
Tb900 O918 2.500 . S
Tb900 O919 2.473 . S
Tb900 O922 2.324 . S
Eu901 O905 2.292 . S
Eu901 C906 2.852 . S
Eu901 O917 2.324 . S
Eu901 O921 2.326 . S
Eu901 O923 2.500 . S
Eu901 O924 2.473 . S
C902 O899 1.255 . S
C902 O903 1.247 . S
O903 C902 1.247 . S
C904 O916 1.242 . S
C904 O917 1.258 . S
O905 Eu901 2.292 . S
O905 C907 1.255 1_545 S
C906 Eu901 2.852 . S
C906 C910 1.503 . S
C906 O923 1.273 . S
C906 O924 1.257 . S
C907 O905 1.255 1_565 S
C907 O908 1.247 1_565 S
O908 C907 1.247 1_545 S
C909 O921 1.242 . S
C909 O922 1.258 . S
C910 C906 1.503 . S
C910 C911 1.379 . S
C910 C915 1.392 . S
C911 C910 1.379 . S
C911 C912 1.404 . S
C911 H925 0.929 . S
C912 C911 1.404 . S
C912 C913 1.389 . S
C913 C912 1.389 . S
C913 C914 1.399 . S
C913 H926 0.931 . S
C914 C913 1.399 . S
C914 C915 1.390 . S
C915 C910 1.392 . S
C915 C914 1.390 . S
C915 H927 0.929 . S
O916 Tb900 2.326 . S
O916 C904 1.242 . S
O917 Eu901 2.324 . S
O917 C904 1.258 . S
O918 Tb900 2.500 . S
O918 C920 1.273 . S
O919 Tb900 2.473 . S
O919 C920 1.257 . S
C920 O918 1.273 . S
C920 O919 1.257 . S
O921 Eu901 2.326 . S
O921 C909 1.242 . S
O922 Tb900 2.324 . S
O922 C909 1.258 . S
O923 Eu901 2.500 . S
O923 C906 1.273 . S
O924 Eu901 2.473 . S
O924 C906 1.257 . S
H925 C911 0.929 . S
H926 C913 0.931 . S
H927 C915 0.929 . S
C928 C929 1.391 . S
C928 C930 1.394 . S
C928 H944 0.931 . S
C929 C928 1.391 . S
C929 C933 1.376 . S
C930 C928 1.394 . S
C930 C931 1.369 . S
C930 C934 1.531 . S
C931 C930 1.369 . S
C931 C932 1.410 . S
C931 C939 1.503 . S
C932 C931 1.410 . S
C932 C933 1.392 . S
C932 C935 1.511 . S
C933 C929 1.376 . S
C933 C932 1.392 . S
C933 H945 0.929 . S
C934 C930 1.531 . S
C934 H946 0.960 . S
C934 H947 0.962 . S
C934 H948 0.960 . S
C935 C932 1.511 . S
C935 H949 0.961 . S
C935 H950 0.961 . S
C935 H951 0.961 . S
C936 C937 1.370 . S
C936 C938 1.363 . S
C936 H952 0.931 . S
C937 C936 1.370 . S
C937 C941 1.408 . S
C938 C936 1.363 . S
C938 C939 1.370 . S
C938 C942 1.524 . S
C939 C931 1.503 . S
C939 C938 1.370 . S
C939 C940 1.403 . S
C940 C939 1.403 . S
C940 C941 1.404 . S
C940 C943 1.539 . S
C941 C937 1.408 . S
C941 C940 1.404 . S
C941 H953 0.930 . S
C942 C938 1.524 . S
C942 H954 0.956 . S
C942 H955 0.961 . S
C942 H956 0.961 . S
C943 C940 1.539 . S
C943 H957 0.958 . S
C943 H958 0.961 . S
C943 H959 0.960 . S
H944 C928 0.931 . S
H945 C933 0.929 . S
H946 C934 0.960 . S
H947 C934 0.962 . S
H948 C934 0.960 . S
H949 C935 0.961 . S
H950 C935 0.961 . S
H951 C935 0.961 . S
H952 C936 0.931 . S
H953 C941 0.930 . S
H954 C942 0.956 . S
H955 C942 0.961 . S
H956 C942 0.961 . S
H957 C943 0.958 . S
H958 C943 0.961 . S
H959 C943 0.960 . S
C960 C961 1.391 . S
C960 C962 1.394 . S
C960 H976 0.931 . S
C961 C960 1.391 . S
C961 C965 1.376 . S
C962 C960 1.394 . S
C962 C963 1.369 . S
C962 C966 1.531 . S
C963 C962 1.369 . S
C963 C964 1.410 . S
C963 C971 1.503 . S
C964 C963 1.410 . S
C964 C965 1.392 . S
C964 C967 1.511 . S
C965 C961 1.376 . S
C965 C964 1.392 . S
C965 H977 0.929 . S
C966 C962 1.531 . S
C966 H978 0.960 . S
C966 H979 0.962 . S
C966 H980 0.960 . S
C967 C964 1.511 . S
C967 H981 0.961 . S
C967 H982 0.961 . S
C967 H983 0.961 . S
C968 C969 1.370 . S
C968 C970 1.363 . S
C968 H984 0.931 . S
C969 C968 1.370 . S
C969 C973 1.408 . S
C970 C968 1.363 . S
C970 C971 1.370 . S
C970 C974 1.524 . S
C971 C963 1.503 . S
C971 C970 1.370 . S
C971 C972 1.403 . S
C972 C971 1.403 . S
C972 C973 1.404 . S
C972 C975 1.539 . S
C973 C969 1.408 . S
C973 C972 1.404 . S
C973 H985 0.930 . S
C974 C970 1.524 . S
C974 H986 0.956 . S
C974 H987 0.961 . S
C974 H988 0.961 . S
C975 C972 1.539 . S
C975 H989 0.958 . S
C975 H990 0.961 . S
C975 H991 0.960 . S
H976 C960 0.931 . S
H977 C965 0.929 . S
H978 C966 0.960 . S
H979 C966 0.962 . S
H980 C966 0.960 . S
H981 C967 0.961 . S
H982 C967 0.961 . S
H983 C967 0.961 . S
H984 C968 0.931 . S
H985 C973 0.930 . S
H986 C974 0.956 . S
H987 C974 0.961 . S
H988 C974 0.961 . S
H989 C975 0.958 . S
H990 C975 0.961 . S
H991 C975 0.960 . S
C992 C993 1.391 . S
C992 C994 1.394 . S
C992 H1008 0.931 . S
C993 C992 1.391 . S
C993 C997 1.376 . S
C994 C992 1.394 . S
C994 C995 1.369 . S
C994 C998 1.531 . S
C995 C994 1.369 . S
C995 C996 1.410 . S
C995 C1003 1.503 . S
C996 C995 1.410 . S
C996 C997 1.392 . S
C996 C999 1.511 . S
C997 C993 1.376 . S
C997 C996 1.392 . S
C997 H1009 0.929 . S
C998 C994 1.531 . S
C998 H1010 0.960 . S
C998 H1011 0.962 . S
C998 H1012 0.960 . S
C999 C996 1.511 . S
C999 H1013 0.961 . S
C999 H1014 0.961 . S
C999 H1015 0.961 . S
C1000 C1001 1.370 . S
C1000 C1002 1.363 . S
C1000 H1016 0.931 . S
C1001 C1000 1.370 . S
C1001 C1005 1.408 . S
C1002 C1000 1.363 . S
C1002 C1003 1.370 . S
C1002 C1006 1.524 . S
C1003 C995 1.503 . S
C1003 C1002 1.370 . S
C1003 C1004 1.403 . S
C1004 C1003 1.403 . S
C1004 C1005 1.404 . S
C1004 C1007 1.539 . S
C1005 C1001 1.408 . S
C1005 C1004 1.404 . S
C1005 H1017 0.930 . S
C1006 C1002 1.524 . S
C1006 H1018 0.956 . S
C1006 H1019 0.961 . S
C1006 H1020 0.961 . S
C1007 C1004 1.539 . S
C1007 H1021 0.958 . S
C1007 H1022 0.961 . S
C1007 H1023 0.960 . S
H1008 C992 0.931 . S
H1009 C997 0.929 . S
H1010 C998 0.960 . S
H1011 C998 0.962 . S
H1012 C998 0.960 . S
H1013 C999 0.961 . S
H1014 C999 0.961 . S
H1015 C999 0.961 . S
H1016 C1000 0.931 . S
H1017 C1005 0.930 . S
H1018 C1006 0.956 . S
H1019 C1006 0.961 . S
H1020 C1006 0.961 . S
H1021 C1007 0.958 . S
H1022 C1007 0.961 . S
H1023 C1007 0.960 . S
C1024 C1025 1.391 . S
C1024 C1026 1.394 . S
C1024 H1040 0.931 . S
C1025 C1024 1.391 . S
C1025 C1029 1.376 . S
C1026 C1024 1.394 . S
C1026 C1027 1.369 . S
C1026 C1030 1.531 . S
C1027 C1026 1.369 . S
C1027 C1028 1.410 . S
C1027 C1035 1.503 . S
C1028 C1027 1.410 . S
C1028 C1029 1.392 . S
C1028 C1031 1.511 . S
C1029 C1025 1.376 . S
C1029 C1028 1.392 . S
C1029 H1041 0.929 . S
C1030 C1026 1.531 . S
C1030 H1042 0.960 . S
C1030 H1043 0.962 . S
C1030 H1044 0.960 . S
C1031 C1028 1.511 . S
C1031 H1045 0.961 . S
C1031 H1046 0.961 . S
C1031 H1047 0.961 . S
C1032 C1033 1.370 . S
C1032 C1034 1.363 . S
C1032 H1048 0.931 . S
C1033 C1032 1.370 . S
C1033 C1037 1.408 . S
C1034 C1032 1.363 . S
C1034 C1035 1.370 . S
C1034 C1038 1.524 . S
C1035 C1027 1.503 . S
C1035 C1034 1.370 . S
C1035 C1036 1.403 . S
C1036 C1035 1.403 . S
C1036 C1037 1.404 . S
C1036 C1039 1.539 . S
C1037 C1033 1.408 . S
C1037 C1036 1.404 . S
C1037 H1049 0.930 . S
C1038 C1034 1.524 . S
C1038 H1050 0.956 . S
C1038 H1051 0.961 . S
C1038 H1052 0.961 . S
C1039 C1036 1.539 . S
C1039 H1053 0.958 . S
C1039 H1054 0.961 . S
C1039 H1055 0.960 . S
H1040 C1024 0.931 . S
H1041 C1029 0.929 . S
H1042 C1030 0.960 . S
H1043 C1030 0.962 . S
H1044 C1030 0.960 . S
H1045 C1031 0.961 . S
H1046 C1031 0.961 . S
H1047 C1031 0.961 . S
H1048 C1032 0.931 . S
H1049 C1037 0.930 . S
H1050 C1038 0.956 . S
H1051 C1038 0.961 . S
H1052 C1038 0.961 . S
H1053 C1039 0.958 . S
H1054 C1039 0.961 . S
H1055 C1039 0.960 . S
C1056 C1057 1.391 . S
C1056 C1058 1.394 . S
C1056 H1072 0.931 . S
C1057 C1056 1.391 . S
C1057 C1061 1.376 . S
C1058 C1056 1.394 . S
C1058 C1059 1.369 . S
C1058 C1062 1.531 . S
C1059 C1058 1.369 . S
C1059 C1060 1.410 . S
C1059 C1067 1.503 . S
C1060 C1059 1.410 . S
C1060 C1061 1.392 . S
C1060 C1063 1.511 . S
C1061 C1057 1.376 . S
C1061 C1060 1.392 . S
C1061 H1073 0.929 . S
C1062 C1058 1.531 . S
C1062 H1074 0.960 . S
C1062 H1075 0.962 . S
C1062 H1076 0.960 . S
C1063 C1060 1.511 . S
C1063 H1077 0.961 . S
C1063 H1078 0.961 . S
C1063 H1079 0.961 . S
C1064 C1065 1.370 . S
C1064 C1066 1.363 . S
C1064 H1080 0.931 . S
C1065 C1064 1.370 . S
C1065 C1069 1.408 . S
C1066 C1064 1.363 . S
C1066 C1067 1.370 . S
C1066 C1070 1.524 . S
C1067 C1059 1.503 . S
C1067 C1066 1.370 . S
C1067 C1068 1.403 . S
C1068 C1067 1.403 . S
C1068 C1069 1.404 . S
C1068 C1071 1.539 . S
C1069 C1065 1.408 . S
C1069 C1068 1.404 . S
C1069 H1081 0.930 . S
C1070 C1066 1.524 . S
C1070 H1082 0.956 . S
C1070 H1083 0.961 . S
C1070 H1084 0.961 . S
C1071 C1068 1.539 . S
C1071 H1085 0.958 . S
C1071 H1086 0.961 . S
C1071 H1087 0.960 . S
H1072 C1056 0.931 . S
H1073 C1061 0.929 . S
H1074 C1062 0.960 . S
H1075 C1062 0.962 . S
H1076 C1062 0.960 . S
H1077 C1063 0.961 . S
H1078 C1063 0.961 . S
H1079 C1063 0.961 . S
H1080 C1064 0.931 . S
H1081 C1069 0.930 . S
H1082 C1070 0.956 . S
H1083 C1070 0.961 . S
H1084 C1070 0.961 . S
H1085 C1071 0.958 . S
H1086 C1071 0.961 . S
H1087 C1071 0.960 . S
C1088 C1089 1.391 . S
C1088 C1090 1.394 . S
C1088 H1104 0.931 . S
C1089 C1088 1.391 . S
C1089 C1093 1.376 . S
C1090 C1088 1.394 . S
C1090 C1091 1.369 . S
C1090 C1094 1.531 . S
C1091 C1090 1.369 . S
C1091 C1092 1.410 . S
C1091 C1099 1.503 . S
C1092 C1091 1.410 . S
C1092 C1093 1.392 . S
C1092 C1095 1.511 . S
C1093 C1089 1.376 . S
C1093 C1092 1.392 . S
C1093 H1105 0.929 . S
C1094 C1090 1.531 . S
C1094 H1106 0.960 . S
C1094 H1107 0.962 . S
C1094 H1108 0.960 . S
C1095 C1092 1.511 . S
C1095 H1109 0.961 . S
C1095 H1110 0.961 . S
C1095 H1111 0.961 . S
C1096 C1097 1.370 . S
C1096 C1098 1.363 . S
C1096 H1112 0.931 . S
C1097 C1096 1.370 . S
C1097 C1101 1.408 . S
C1098 C1096 1.363 . S
C1098 C1099 1.370 . S
C1098 C1102 1.524 . S
C1099 C1091 1.503 . S
C1099 C1098 1.370 . S
C1099 C1100 1.403 . S
C1100 C1099 1.403 . S
C1100 C1101 1.404 . S
C1100 C1103 1.539 . S
C1101 C1097 1.408 . S
C1101 C1100 1.404 . S
C1101 H1113 0.930 . S
C1102 C1098 1.524 . S
C1102 H1114 0.956 . S
C1102 H1115 0.961 . S
C1102 H1116 0.961 . S
C1103 C1100 1.539 . S
C1103 H1117 0.958 . S
C1103 H1118 0.961 . S
C1103 H1119 0.960 . S
H1104 C1088 0.931 . S
H1105 C1093 0.929 . S
H1106 C1094 0.960 . S
H1107 C1094 0.962 . S
H1108 C1094 0.960 . S
H1109 C1095 0.961 . S
H1110 C1095 0.961 . S
H1111 C1095 0.961 . S
H1112 C1096 0.931 . S
H1113 C1101 0.930 . S
H1114 C1102 0.956 . S
H1115 C1102 0.961 . S
H1116 C1102 0.961 . S
H1117 C1103 0.958 . S
H1118 C1103 0.961 . S
H1119 C1103 0.960 . S
C1120 C1121 1.391 . S
C1120 C1122 1.394 . S
C1120 H1136 0.931 . S
C1121 C1120 1.391 . S
C1121 C1125 1.376 . S
C1122 C1120 1.394 . S
C1122 C1123 1.369 . S
C1122 C1126 1.531 . S
C1123 C1122 1.369 . S
C1123 C1124 1.410 . S
C1123 C1131 1.503 . S
C1124 C1123 1.410 . S
C1124 C1125 1.392 . S
C1124 C1127 1.511 . S
C1125 C1121 1.376 . S
C1125 C1124 1.392 . S
C1125 H1137 0.929 . S
C1126 C1122 1.531 . S
C1126 H1138 0.960 . S
C1126 H1139 0.962 . S
C1126 H1140 0.960 . S
C1127 C1124 1.511 . S
C1127 H1141 0.961 . S
C1127 H1142 0.961 . S
C1127 H1143 0.961 . S
C1128 C1129 1.370 . S
C1128 C1130 1.363 . S
C1128 H1144 0.931 . S
C1129 C1128 1.370 . S
C1129 C1133 1.408 . S
C1130 C1128 1.363 . S
C1130 C1131 1.370 . S
C1130 C1134 1.524 . S
C1131 C1123 1.503 . S
C1131 C1130 1.370 . S
C1131 C1132 1.403 . S
C1132 C1131 1.403 . S
C1132 C1133 1.404 . S
C1132 C1135 1.539 . S
C1133 C1129 1.408 . S
C1133 C1132 1.404 . S
C1133 H1145 0.930 . S
C1134 C1130 1.524 . S
C1134 H1146 0.956 . S
C1134 H1147 0.961 . S
C1134 H1148 0.961 . S
C1135 C1132 1.539 . S
C1135 H1149 0.958 . S
C1135 H1150 0.961 . S
C1135 H1151 0.960 . S
H1136 C1120 0.931 . S
H1137 C1125 0.929 . S
H1138 C1126 0.960 . S
H1139 C1126 0.962 . S
H1140 C1126 0.960 . S
H1141 C1127 0.961 . S
H1142 C1127 0.961 . S
H1143 C1127 0.961 . S
H1144 C1128 0.931 . S
H1145 C1133 0.930 . S
H1146 C1134 0.956 . S
H1147 C1134 0.961 . S
H1148 C1134 0.961 . S
H1149 C1135 0.958 . S
H1150 C1135 0.961 . S
H1151 C1135 0.960 . S
C1152 C1153 1.391 . S
C1152 C1154 1.394 . S
C1152 H1168 0.931 . S
C1153 C1152 1.391 . S
C1153 C1157 1.376 . S
C1154 C1152 1.394 . S
C1154 C1155 1.369 . S
C1154 C1158 1.531 . S
C1155 C1154 1.369 . S
C1155 C1156 1.410 . S
C1155 C1163 1.503 . S
C1156 C1155 1.410 . S
C1156 C1157 1.392 . S
C1156 C1159 1.511 . S
C1157 C1153 1.376 . S
C1157 C1156 1.392 . S
C1157 H1169 0.929 . S
C1158 C1154 1.531 . S
C1158 H1170 0.960 . S
C1158 H1171 0.962 . S
C1158 H1172 0.960 . S
C1159 C1156 1.511 . S
C1159 H1173 0.961 . S
C1159 H1174 0.961 . S
C1159 H1175 0.961 . S
C1160 C1161 1.370 . S
C1160 C1162 1.363 . S
C1160 H1176 0.931 . S
C1161 C1160 1.370 . S
C1161 C1165 1.408 . S
C1162 C1160 1.363 . S
C1162 C1163 1.370 . S
C1162 C1166 1.524 . S
C1163 C1155 1.503 . S
C1163 C1162 1.370 . S
C1163 C1164 1.403 . S
C1164 C1163 1.403 . S
C1164 C1165 1.404 . S
C1164 C1167 1.539 . S
C1165 C1161 1.408 . S
C1165 C1164 1.404 . S
C1165 H1177 0.930 . S
C1166 C1162 1.524 . S
C1166 H1178 0.956 . S
C1166 H1179 0.961 . S
C1166 H1180 0.961 . S
C1167 C1164 1.539 . S
C1167 H1181 0.958 . S
C1167 H1182 0.961 . S
C1167 H1183 0.960 . S
H1168 C1152 0.931 . S
H1169 C1157 0.929 . S
H1170 C1158 0.960 . S
H1171 C1158 0.962 . S
H1172 C1158 0.960 . S
H1173 C1159 0.961 . S
H1174 C1159 0.961 . S
H1175 C1159 0.961 . S
H1176 C1160 0.931 . S
H1177 C1165 0.930 . S
H1178 C1166 0.956 . S
H1179 C1166 0.961 . S
H1180 C1166 0.961 . S
H1181 C1167 0.958 . S
H1182 C1167 0.961 . S
H1183 C1167 0.960 . S
C1184 C1185 1.391 . S
C1184 C1186 1.394 . S
C1184 H1200 0.931 . S
C1185 C1184 1.391 . S
C1185 C1189 1.376 . S
C1186 C1184 1.394 . S
C1186 C1187 1.369 . S
C1186 C1190 1.531 . S
C1187 C1186 1.369 . S
C1187 C1188 1.410 . S
C1187 C1195 1.503 . S
C1188 C1187 1.410 . S
C1188 C1189 1.392 . S
C1188 C1191 1.511 . S
C1189 C1185 1.376 . S
C1189 C1188 1.392 . S
C1189 H1201 0.929 . S
C1190 C1186 1.531 . S
C1190 H1202 0.960 . S
C1190 H1203 0.962 . S
C1190 H1204 0.960 . S
C1191 C1188 1.511 . S
C1191 H1205 0.961 . S
C1191 H1206 0.961 . S
C1191 H1207 0.961 . S
C1192 C1193 1.370 . S
C1192 C1194 1.363 . S
C1192 H1208 0.931 . S
C1193 C1192 1.370 . S
C1193 C1197 1.408 . S
C1194 C1192 1.363 . S
C1194 C1195 1.370 . S
C1194 C1198 1.524 . S
C1195 C1187 1.503 . S
C1195 C1194 1.370 . S
C1195 C1196 1.403 . S
C1196 C1195 1.403 . S
C1196 C1197 1.404 . S
C1196 C1199 1.539 . S
C1197 C1193 1.408 . S
C1197 C1196 1.404 . S
C1197 H1209 0.930 . S
C1198 C1194 1.524 . S
C1198 H1210 0.956 . S
C1198 H1211 0.961 . S
C1198 H1212 0.961 . S
C1199 C1196 1.539 . S
C1199 H1213 0.958 . S
C1199 H1214 0.961 . S
C1199 H1215 0.960 . S
H1200 C1184 0.931 . S
H1201 C1189 0.929 . S
H1202 C1190 0.960 . S
H1203 C1190 0.962 . S
H1204 C1190 0.960 . S
H1205 C1191 0.961 . S
H1206 C1191 0.961 . S
H1207 C1191 0.961 . S
H1208 C1192 0.931 . S
H1209 C1197 0.930 . S
H1210 C1198 0.956 . S
H1211 C1198 0.961 . S
H1212 C1198 0.961 . S
H1213 C1199 0.958 . S
H1214 C1199 0.961 . S
H1215 C1199 0.960 . S
C1216 C1217 1.391 . S
C1216 C1218 1.394 . S
C1216 H1232 0.931 . S
C1217 C1216 1.391 . S
C1217 C1221 1.376 . S
C1218 C1216 1.394 . S
C1218 C1219 1.369 . S
C1218 C1222 1.531 . S
C1219 C1218 1.369 . S
C1219 C1220 1.410 . S
C1219 C1227 1.503 . S
C1220 C1219 1.410 . S
C1220 C1221 1.392 . S
C1220 C1223 1.511 . S
C1221 C1217 1.376 . S
C1221 C1220 1.392 . S
C1221 H1233 0.929 . S
C1222 C1218 1.531 . S
C1222 H1234 0.960 . S
C1222 H1235 0.962 . S
C1222 H1236 0.960 . S
C1223 C1220 1.511 . S
C1223 H1237 0.961 . S
C1223 H1238 0.961 . S
C1223 H1239 0.961 . S
C1224 C1225 1.370 . S
C1224 C1226 1.363 . S
C1224 H1240 0.931 . S
C1225 C1224 1.370 . S
C1225 C1229 1.408 . S
C1226 C1224 1.363 . S
C1226 C1227 1.370 . S
C1226 C1230 1.524 . S
C1227 C1219 1.503 . S
C1227 C1226 1.370 . S
C1227 C1228 1.403 . S
C1228 C1227 1.403 . S
C1228 C1229 1.404 . S
C1228 C1231 1.539 . S
C1229 C1225 1.408 . S
C1229 C1228 1.404 . S
C1229 H1241 0.930 . S
C1230 C1226 1.524 . S
C1230 H1242 0.956 . S
C1230 H1243 0.961 . S
C1230 H1244 0.961 . S
C1231 C1228 1.539 . S
C1231 H1245 0.958 . S
C1231 H1246 0.961 . S
C1231 H1247 0.960 . S
H1232 C1216 0.931 . S
H1233 C1221 0.929 . S
H1234 C1222 0.960 . S
H1235 C1222 0.962 . S
H1236 C1222 0.960 . S
H1237 C1223 0.961 . S
H1238 C1223 0.961 . S
H1239 C1223 0.961 . S
H1240 C1224 0.931 . S
H1241 C1229 0.930 . S
H1242 C1230 0.956 . S
H1243 C1230 0.961 . S
H1244 C1230 0.961 . S
H1245 C1231 0.958 . S
H1246 C1231 0.961 . S
H1247 C1231 0.960 . S
C1248 C1249 1.391 . S
C1248 C1250 1.394 . S
C1248 H1264 0.931 . S
C1249 C1248 1.391 . S
C1249 C1253 1.376 . S
C1250 C1248 1.394 . S
C1250 C1251 1.369 . S
C1250 C1254 1.531 . S
C1251 C1250 1.369 . S
C1251 C1252 1.410 . S
C1251 C1259 1.503 . S
C1252 C1251 1.410 . S
C1252 C1253 1.392 . S
C1252 C1255 1.511 . S
C1253 C1249 1.376 . S
C1253 C1252 1.392 . S
C1253 H1265 0.929 . S
C1254 C1250 1.531 . S
C1254 H1266 0.960 . S
C1254 H1267 0.962 . S
C1254 H1268 0.960 . S
C1255 C1252 1.511 . S
C1255 H1269 0.961 . S
C1255 H1270 0.961 . S
C1255 H1271 0.961 . S
C1256 C1257 1.370 . S
C1256 C1258 1.363 . S
C1256 H1272 0.931 . S
C1257 C1256 1.370 . S
C1257 C1261 1.408 . S
C1258 C1256 1.363 . S
C1258 C1259 1.370 . S
C1258 C1262 1.524 . S
C1259 C1251 1.503 . S
C1259 C1258 1.370 . S
C1259 C1260 1.403 . S
C1260 C1259 1.403 . S
C1260 C1261 1.404 . S
C1260 C1263 1.539 . S
C1261 C1257 1.408 . S
C1261 C1260 1.404 . S
C1261 H1273 0.930 . S
C1262 C1258 1.524 . S
C1262 H1274 0.956 . S
C1262 H1275 0.961 . S
C1262 H1276 0.961 . S
C1263 C1260 1.539 . S
C1263 H1277 0.958 . S
C1263 H1278 0.961 . S
C1263 H1279 0.960 . S
H1264 C1248 0.931 . S
H1265 C1253 0.929 . S
H1266 C1254 0.960 . S
H1267 C1254 0.962 . S
H1268 C1254 0.960 . S
H1269 C1255 0.961 . S
H1270 C1255 0.961 . S
H1271 C1255 0.961 . S
H1272 C1256 0.931 . S
H1273 C1261 0.930 . S
H1274 C1262 0.956 . S
H1275 C1262 0.961 . S
H1276 C1262 0.961 . S
H1277 C1263 0.958 . S
H1278 C1263 0.961 . S
H1279 C1263 0.960 . S
C1280 C1281 1.391 . S
C1280 C1282 1.394 . S
C1280 H1296 0.931 . S
C1281 C1280 1.391 . S
C1281 C1285 1.376 . S
C1282 C1280 1.394 . S
C1282 C1283 1.369 . S
C1282 C1286 1.531 . S
C1283 C1282 1.369 . S
C1283 C1284 1.410 . S
C1283 C1291 1.503 . S
C1284 C1283 1.410 . S
C1284 C1285 1.392 . S
C1284 C1287 1.511 . S
C1285 C1281 1.376 . S
C1285 C1284 1.392 . S
C1285 H1297 0.929 . S
C1286 C1282 1.531 . S
C1286 H1298 0.960 . S
C1286 H1299 0.962 . S
C1286 H1300 0.960 . S
C1287 C1284 1.511 . S
C1287 H1301 0.961 . S
C1287 H1302 0.961 . S
C1287 H1303 0.961 . S
C1288 C1289 1.370 . S
C1288 C1290 1.363 . S
C1288 H1304 0.931 . S
C1289 C1288 1.370 . S
C1289 C1293 1.408 . S
C1290 C1288 1.363 . S
C1290 C1291 1.370 . S
C1290 C1294 1.524 . S
C1291 C1283 1.503 . S
C1291 C1290 1.370 . S
C1291 C1292 1.403 . S
C1292 C1291 1.403 . S
C1292 C1293 1.404 . S
C1292 C1295 1.539 . S
C1293 C1289 1.408 . S
C1293 C1292 1.404 . S
C1293 H1305 0.930 . S
C1294 C1290 1.524 . S
C1294 H1306 0.956 . S
C1294 H1307 0.961 . S
C1294 H1308 0.961 . S
C1295 C1292 1.539 . S
C1295 H1309 0.958 . S
C1295 H1310 0.961 . S
C1295 H1311 0.960 . S
H1296 C1280 0.931 . S
H1297 C1285 0.929 . S
H1298 C1286 0.960 . S
H1299 C1286 0.962 . S
H1300 C1286 0.960 . S
H1301 C1287 0.961 . S
H1302 C1287 0.961 . S
H1303 C1287 0.961 . S
H1304 C1288 0.931 . S
H1305 C1293 0.930 . S
H1306 C1294 0.956 . S
H1307 C1294 0.961 . S
H1308 C1294 0.961 . S
H1309 C1295 0.958 . S
H1310 C1295 0.961 . S
H1311 C1295 0.960 . S
C1312 C1313 1.391 . S
C1312 C1314 1.394 . S
C1312 H1328 0.931 . S
C1313 C1312 1.391 . S
C1313 C1317 1.376 . S
C1314 C1312 1.394 . S
C1314 C1315 1.369 . S
C1314 C1318 1.531 . S
C1315 C1314 1.369 . S
C1315 C1316 1.410 . S
C1315 C1323 1.503 . S
C1316 C1315 1.410 . S
C1316 C1317 1.392 . S
C1316 C1319 1.511 . S
C1317 C1313 1.376 . S
C1317 C1316 1.392 . S
C1317 H1329 0.929 . S
C1318 C1314 1.531 . S
C1318 H1330 0.960 . S
C1318 H1331 0.962 . S
C1318 H1332 0.960 . S
C1319 C1316 1.511 . S
C1319 H1333 0.961 . S
C1319 H1334 0.961 . S
C1319 H1335 0.961 . S
C1320 C1321 1.370 . S
C1320 C1322 1.363 . S
C1320 H1336 0.931 . S
C1321 C1320 1.370 . S
C1321 C1325 1.408 . S
C1322 C1320 1.363 . S
C1322 C1323 1.370 . S
C1322 C1326 1.524 . S
C1323 C1315 1.503 . S
C1323 C1322 1.370 . S
C1323 C1324 1.403 . S
C1324 C1323 1.403 . S
C1324 C1325 1.404 . S
C1324 C1327 1.539 . S
C1325 C1321 1.408 . S
C1325 C1324 1.404 . S
C1325 H1337 0.930 . S
C1326 C1322 1.524 . S
C1326 H1338 0.956 . S
C1326 H1339 0.961 . S
C1326 H1340 0.961 . S
C1327 C1324 1.539 . S
C1327 H1341 0.958 . S
C1327 H1342 0.961 . S
C1327 H1343 0.960 . S
H1328 C1312 0.931 . S
H1329 C1317 0.929 . S
H1330 C1318 0.960 . S
H1331 C1318 0.962 . S
H1332 C1318 0.960 . S
H1333 C1319 0.961 . S
H1334 C1319 0.961 . S
H1335 C1319 0.961 . S
H1336 C1320 0.931 . S
H1337 C1325 0.930 . S
H1338 C1326 0.956 . S
H1339 C1326 0.961 . S
H1340 C1326 0.961 . S
H1341 C1327 0.958 . S
H1342 C1327 0.961 . S
H1343 C1327 0.960 . S
C1344 C1345 1.391 . S
C1344 C1346 1.394 . S
C1344 H1360 0.931 . S
C1345 C1344 1.391 . S
C1345 C1349 1.376 . S
C1346 C1344 1.394 . S
C1346 C1347 1.369 . S
C1346 C1350 1.531 . S
C1347 C1346 1.369 . S
C1347 C1348 1.410 . S
C1347 C1355 1.503 . S
C1348 C1347 1.410 . S
C1348 C1349 1.392 . S
C1348 C1351 1.511 . S
C1349 C1345 1.376 . S
C1349 C1348 1.392 . S
C1349 H1361 0.929 . S
C1350 C1346 1.531 . S
C1350 H1362 0.960 . S
C1350 H1363 0.962 . S
C1350 H1364 0.960 . S
C1351 C1348 1.511 . S
C1351 H1365 0.961 . S
C1351 H1366 0.961 . S
C1351 H1367 0.961 . S
C1352 C1353 1.370 . S
C1352 C1354 1.363 . S
C1352 H1368 0.931 . S
C1353 C1352 1.370 . S
C1353 C1357 1.408 . S
C1354 C1352 1.363 . S
C1354 C1355 1.370 . S
C1354 C1358 1.524 . S
C1355 C1347 1.503 . S
C1355 C1354 1.370 . S
C1355 C1356 1.403 . S
C1356 C1355 1.403 . S
C1356 C1357 1.404 . S
C1356 C1359 1.539 . S
C1357 C1353 1.408 . S
C1357 C1356 1.404 . S
C1357 H1369 0.930 . S
C1358 C1354 1.524 . S
C1358 H1370 0.956 . S
C1358 H1371 0.961 . S
C1358 H1372 0.961 . S
C1359 C1356 1.539 . S
C1359 H1373 0.958 . S
C1359 H1374 0.961 . S
C1359 H1375 0.960 . S
H1360 C1344 0.931 . S
H1361 C1349 0.929 . S
H1362 C1350 0.960 . S
H1363 C1350 0.962 . S
H1364 C1350 0.960 . S
H1365 C1351 0.961 . S
H1366 C1351 0.961 . S
H1367 C1351 0.961 . S
H1368 C1352 0.931 . S
H1369 C1357 0.930 . S
H1370 C1358 0.956 . S
H1371 C1358 0.961 . S
H1372 C1358 0.961 . S
H1373 C1359 0.958 . S
H1374 C1359 0.961 . S
H1375 C1359 0.960 . S
C1376 C1377 1.391 . S
C1376 C1378 1.394 . S
C1376 H1392 0.931 . S
C1377 C1376 1.391 . S
C1377 C1381 1.376 . S
C1378 C1376 1.394 . S
C1378 C1379 1.369 . S
C1378 C1382 1.531 . S
C1379 C1378 1.369 . S
C1379 C1380 1.410 . S
C1379 C1387 1.503 . S
C1380 C1379 1.410 . S
C1380 C1381 1.392 . S
C1380 C1383 1.511 . S
C1381 C1377 1.376 . S
C1381 C1380 1.392 . S
C1381 H1393 0.929 . S
C1382 C1378 1.531 . S
C1382 H1394 0.960 . S
C1382 H1395 0.962 . S
C1382 H1396 0.960 . S
C1383 C1380 1.511 . S
C1383 H1397 0.961 . S
C1383 H1398 0.961 . S
C1383 H1399 0.961 . S
C1384 C1385 1.370 . S
C1384 C1386 1.363 . S
C1384 H1400 0.931 . S
C1385 C1384 1.370 . S
C1385 C1389 1.408 . S
C1386 C1384 1.363 . S
C1386 C1387 1.370 . S
C1386 C1390 1.524 . S
C1387 C1379 1.503 . S
C1387 C1386 1.370 . S
C1387 C1388 1.403 . S
C1388 C1387 1.403 . S
C1388 C1389 1.404 . S
C1388 C1391 1.539 . S
C1389 C1385 1.408 . S
C1389 C1388 1.404 . S
C1389 H1401 0.930 . S
C1390 C1386 1.524 . S
C1390 H1402 0.956 . S
C1390 H1403 0.961 . S
C1390 H1404 0.961 . S
C1391 C1388 1.539 . S
C1391 H1405 0.958 . S
C1391 H1406 0.961 . S
C1391 H1407 0.960 . S
H1392 C1376 0.931 . S
H1393 C1381 0.929 . S
H1394 C1382 0.960 . S
H1395 C1382 0.962 . S
H1396 C1382 0.960 . S
H1397 C1383 0.961 . S
H1398 C1383 0.961 . S
H1399 C1383 0.961 . S
H1400 C1384 0.931 . S
H1401 C1389 0.930 . S
H1402 C1390 0.956 . S
H1403 C1390 0.961 . S
H1404 C1390 0.961 . S
H1405 C1391 0.958 . S
H1406 C1391 0.961 . S
H1407 C1391 0.960 . S
C1408 C1409 1.391 . S
C1408 C1410 1.394 . S
C1408 H1424 0.931 . S
C1409 C1408 1.391 . S
C1409 C1413 1.376 . S
C1410 C1408 1.394 . S
C1410 C1411 1.369 . S
C1410 C1414 1.531 . S
C1411 C1410 1.369 . S
C1411 C1412 1.410 . S
C1411 C1419 1.503 . S
C1412 C1411 1.410 . S
C1412 C1413 1.392 . S
C1412 C1415 1.511 . S
C1413 C1409 1.376 . S
C1413 C1412 1.392 . S
C1413 H1425 0.929 . S
C1414 C1410 1.531 . S
C1414 H1426 0.960 . S
C1414 H1427 0.962 . S
C1414 H1428 0.960 . S
C1415 C1412 1.511 . S
C1415 H1429 0.961 . S
C1415 H1430 0.961 . S
C1415 H1431 0.961 . S
C1416 C1417 1.370 . S
C1416 C1418 1.363 . S
C1416 H1432 0.931 . S
C1417 C1416 1.370 . S
C1417 C1421 1.408 . S
C1418 C1416 1.363 . S
C1418 C1419 1.370 . S
C1418 C1422 1.524 . S
C1419 C1411 1.503 . S
C1419 C1418 1.370 . S
C1419 C1420 1.403 . S
C1420 C1419 1.403 . S
C1420 C1421 1.404 . S
C1420 C1423 1.539 . S
C1421 C1417 1.408 . S
C1421 C1420 1.404 . S
C1421 H1433 0.930 . S
C1422 C1418 1.524 . S
C1422 H1434 0.956 . S
C1422 H1435 0.961 . S
C1422 H1436 0.961 . S
C1423 C1420 1.539 . S
C1423 H1437 0.958 . S
C1423 H1438 0.961 . S
C1423 H1439 0.960 . S
H1424 C1408 0.931 . S
H1425 C1413 0.929 . S
H1426 C1414 0.960 . S
H1427 C1414 0.962 . S
H1428 C1414 0.960 . S
H1429 C1415 0.961 . S
H1430 C1415 0.961 . S
H1431 C1415 0.961 . S
H1432 C1416 0.931 . S
H1433 C1421 0.930 . S
H1434 C1422 0.956 . S
H1435 C1422 0.961 . S
H1436 C1422 0.961 . S
H1437 C1423 0.958 . S
H1438 C1423 0.961 . S
H1439 C1423 0.960 . S
C1440 C1441 1.391 . S
C1440 C1442 1.394 . S
C1440 H1456 0.931 . S
C1441 C1440 1.391 . S
C1441 C1445 1.376 . S
C1442 C1440 1.394 . S
C1442 C1443 1.369 . S
C1442 C1446 1.531 . S
C1443 C1442 1.369 . S
C1443 C1444 1.410 . S
C1443 C1451 1.503 . S
C1444 C1443 1.410 . S
C1444 C1445 1.392 . S
C1444 C1447 1.511 . S
C1445 C1441 1.376 . S
C1445 C1444 1.392 . S
C1445 H1457 0.929 . S
C1446 C1442 1.531 . S
C1446 H1458 0.960 . S
C1446 H1459 0.962 . S
C1446 H1460 0.960 . S
C1447 C1444 1.511 . S
C1447 H1461 0.961 . S
C1447 H1462 0.961 . S
C1447 H1463 0.961 . S
C1448 C1449 1.370 . S
C1448 C1450 1.363 . S
C1448 H1464 0.931 . S
C1449 C1448 1.370 . S
C1449 C1453 1.408 . S
C1450 C1448 1.363 . S
C1450 C1451 1.370 . S
C1450 C1454 1.527 . S
C1451 C1443 1.503 . S
C1451 C1450 1.370 . S
C1451 C1452 1.403 . S
C1452 C1451 1.403 . S
C1452 C1453 1.404 . S
C1452 C1455 1.539 . S
C1453 C1449 1.408 . S
C1453 C1452 1.404 . S
C1453 H1465 0.930 . S
C1454 C1450 1.527 . S
C1454 H1466 0.957 . S
C1454 H1467 0.959 1_554 S
C1454 H1468 0.958 1_554 S
C1455 C1452 1.539 . S
C1455 H1469 0.958 . S
C1455 H1470 0.961 . S
C1455 H1471 0.960 . S
H1456 C1440 0.931 . S
H1457 C1445 0.929 . S
H1458 C1446 0.960 . S
H1459 C1446 0.962 . S
H1460 C1446 0.960 . S
H1461 C1447 0.961 . S
H1462 C1447 0.961 . S
H1463 C1447 0.961 . S
H1464 C1448 0.931 . S
H1465 C1453 0.930 . S
H1466 C1454 0.957 . S
H1467 C1454 0.959 1_556 S
H1468 C1454 0.958 1_556 S
H1469 C1455 0.958 . S
H1470 C1455 0.961 . S
H1471 C1455 0.960 . S
C1472 C1473 1.391 . S
C1472 C1474 1.394 . S
C1472 H1488 0.931 . S
C1473 C1472 1.391 . S
C1473 C1477 1.376 . S
C1474 C1472 1.394 . S
C1474 C1475 1.369 . S
C1474 C1478 1.531 . S
C1475 C1474 1.369 . S
C1475 C1476 1.410 . S
C1475 C1483 1.503 . S
C1476 C1475 1.410 . S
C1476 C1477 1.392 . S
C1476 C1479 1.511 . S
C1477 C1473 1.376 . S
C1477 C1476 1.392 . S
C1477 H1489 0.929 . S
C1478 C1474 1.531 . S
C1478 H1490 0.960 . S
C1478 H1491 0.962 . S
C1478 H1492 0.960 . S
C1479 C1476 1.511 . S
C1479 H1493 0.961 . S
C1479 H1494 0.961 . S
C1479 H1495 0.961 . S
C1480 C1481 1.370 . S
C1480 C1482 1.363 . S
C1480 H1496 0.931 . S
C1481 C1480 1.370 . S
C1481 C1485 1.408 . S
C1482 C1480 1.363 . S
C1482 C1483 1.370 . S
C1482 C1486 1.524 . S
C1483 C1475 1.503 . S
C1483 C1482 1.370 . S
C1483 C1484 1.403 . S
C1484 C1483 1.403 . S
C1484 C1485 1.404 . S
C1484 C1487 1.539 . S
C1485 C1481 1.408 . S
C1485 C1484 1.404 . S
C1485 H1497 0.930 . S
C1486 C1482 1.524 . S
C1486 H1498 0.956 . S
C1486 H1499 0.961 . S
C1486 H1500 0.961 . S
C1487 C1484 1.539 . S
C1487 H1501 0.958 . S
C1487 H1502 0.961 . S
C1487 H1503 0.960 . S
H1488 C1472 0.931 . S
H1489 C1477 0.929 . S
H1490 C1478 0.960 . S
H1491 C1478 0.962 . S
H1492 C1478 0.960 . S
H1493 C1479 0.961 . S
H1494 C1479 0.961 . S
H1495 C1479 0.961 . S
H1496 C1480 0.931 . S
H1497 C1485 0.930 . S
H1498 C1486 0.956 . S
H1499 C1486 0.961 . S
H1500 C1486 0.961 . S
H1501 C1487 0.958 . S
H1502 C1487 0.961 . S
H1503 C1487 0.960 . S
C1504 C1505 1.391 . S
C1504 C1506 1.394 . S
C1504 H1520 0.931 . S
C1505 C1504 1.391 . S
C1505 C1509 1.376 . S
C1506 C1504 1.394 . S
C1506 C1507 1.369 . S
C1506 C1510 1.531 . S
C1507 C1506 1.369 . S
C1507 C1508 1.410 . S
C1507 C1515 1.503 . S
C1508 C1507 1.410 . S
C1508 C1509 1.392 . S
C1508 C1511 1.511 . S
C1509 C1505 1.376 . S
C1509 C1508 1.392 . S
C1509 H1521 0.929 . S
C1510 C1506 1.531 . S
C1510 H1522 0.960 1_556 S
C1510 H1523 0.962 . S
C1510 H1524 0.960 1_556 S
C1511 C1508 1.511 . S
C1511 H1525 0.961 . S
C1511 H1526 0.961 . S
C1511 H1527 0.961 . S
C1512 C1513 1.370 . S
C1512 C1514 1.363 . S
C1512 H1528 0.931 . S
C1513 C1512 1.370 . S
C1513 C1517 1.408 . S
C1514 C1512 1.363 . S
C1514 C1515 1.370 . S
C1514 C1518 1.524 . S
C1515 C1507 1.503 . S
C1515 C1514 1.370 . S
C1515 C1516 1.403 . S
C1516 C1515 1.403 . S
C1516 C1517 1.404 . S
C1516 C1519 1.539 1_556 S
C1517 C1513 1.408 . S
C1517 C1516 1.404 . S
C1517 H1529 0.930 . S
C1518 C1514 1.524 . S
C1518 H1530 0.956 . S
C1518 H1531 0.961 . S
C1518 H1532 0.961 . S
C1519 C1516 1.539 1_554 S
C1519 H1533 0.958 . S
C1519 H1534 0.961 . S
C1519 H1535 0.960 . S
H1520 C1504 0.931 . S
H1521 C1509 0.929 . S
H1522 C1510 0.960 1_554 S
H1523 C1510 0.962 . S
H1524 C1510 0.960 1_554 S
H1525 C1511 0.961 . S
H1526 C1511 0.961 . S
H1527 C1511 0.961 . S
H1528 C1512 0.931 . S
H1529 C1517 0.930 . S
H1530 C1518 0.956 . S
H1531 C1518 0.961 . S
H1532 C1518 0.961 . S
H1533 C1519 0.958 . S
H1534 C1519 0.961 . S
H1535 C1519 0.960 . S
C1536 C1537 1.391 . S
C1536 C1538 1.394 . S
C1536 H1552 0.931 . S
C1537 C1536 1.391 . S
C1537 C1541 1.376 . S
C1538 C1536 1.394 . S
C1538 C1539 1.369 . S
C1538 C1542 1.531 . S
C1539 C1538 1.369 . S
C1539 C1540 1.410 . S
C1539 C1547 1.503 . S
C1540 C1539 1.410 . S
C1540 C1541 1.392 . S
C1540 C1543 1.511 . S
C1541 C1537 1.376 . S
C1541 C1540 1.392 . S
C1541 H1553 0.929 . S
C1542 C1538 1.531 . S
C1542 H1554 0.960 . S
C1542 H1555 0.962 . S
C1542 H1556 0.960 . S
C1543 C1540 1.511 . S
C1543 H1557 0.961 . S
C1543 H1558 0.961 . S
C1543 H1559 0.961 . S
C1544 C1545 1.370 . S
C1544 C1546 1.363 . S
C1544 H1560 0.931 . S
C1545 C1544 1.370 . S
C1545 C1549 1.408 . S
C1546 C1544 1.363 . S
C1546 C1547 1.370 . S
C1546 C1550 1.524 . S
C1547 C1539 1.503 . S
C1547 C1546 1.370 . S
C1547 C1548 1.403 . S
C1548 C1547 1.403 . S
C1548 C1549 1.404 . S
C1548 C1551 1.539 . S
C1549 C1545 1.408 . S
C1549 C1548 1.404 . S
C1549 H1561 0.930 . S
C1550 C1546 1.524 . S
C1550 H1562 0.956 . S
C1550 H1563 0.961 . S
C1550 H1564 0.961 . S
C1551 C1548 1.539 . S
C1551 H1565 0.958 . S
C1551 H1566 0.961 . S
C1551 H1567 0.960 . S
H1552 C1536 0.931 . S
H1553 C1541 0.929 . S
H1554 C1542 0.960 . S
H1555 C1542 0.962 . S
H1556 C1542 0.960 . S
H1557 C1543 0.961 . S
H1558 C1543 0.961 . S
H1559 C1543 0.961 . S
H1560 C1544 0.931 . S
H1561 C1549 0.930 . S
H1562 C1550 0.956 . S
H1563 C1550 0.961 . S
H1564 C1550 0.961 . S
H1565 C1551 0.958 . S
H1566 C1551 0.961 . S
H1567 C1551 0.960 . S
C1568 C1569 1.391 . S
C1568 C1570 1.394 . S
C1568 H1584 0.931 . S
C1569 C1568 1.391 . S
C1569 C1573 1.376 . S
C1570 C1568 1.394 . S
C1570 C1571 1.369 . S
C1570 C1574 1.531 . S
C1571 C1570 1.369 . S
C1571 C1572 1.410 . S
C1571 C1579 1.503 . S
C1572 C1571 1.410 . S
C1572 C1573 1.392 . S
C1572 C1575 1.511 . S
C1573 C1569 1.376 . S
C1573 C1572 1.392 . S
C1573 H1585 0.929 . S
C1574 C1570 1.531 . S
C1574 H1586 0.960 . S
C1574 H1587 0.962 . S
C1574 H1588 0.960 . S
C1575 C1572 1.511 . S
C1575 H1589 0.961 . S
C1575 H1590 0.961 . S
C1575 H1591 0.961 . S
C1576 C1577 1.370 . S
C1576 C1578 1.363 . S
C1576 H1592 0.931 . S
C1577 C1576 1.370 . S
C1577 C1581 1.408 . S
C1578 C1576 1.363 . S
C1578 C1579 1.370 . S
C1578 C1582 1.524 . S
C1579 C1571 1.503 . S
C1579 C1578 1.370 . S
C1579 C1580 1.403 . S
C1580 C1579 1.403 . S
C1580 C1581 1.404 . S
C1580 C1583 1.539 . S
C1581 C1577 1.408 . S
C1581 C1580 1.404 . S
C1581 H1593 0.930 . S
C1582 C1578 1.524 . S
C1582 H1594 0.956 . S
C1582 H1595 0.961 . S
C1582 H1596 0.961 . S
C1583 C1580 1.539 . S
C1583 H1597 0.958 . S
C1583 H1598 0.961 . S
C1583 H1599 0.960 . S
H1584 C1568 0.931 . S
H1585 C1573 0.929 . S
H1586 C1574 0.960 . S
H1587 C1574 0.962 . S
H1588 C1574 0.960 . S
H1589 C1575 0.961 . S
H1590 C1575 0.961 . S
H1591 C1575 0.961 . S
H1592 C1576 0.931 . S
H1593 C1581 0.930 . S
H1594 C1582 0.956 . S
H1595 C1582 0.961 . S
H1596 C1582 0.961 . S
H1597 C1583 0.958 . S
H1598 C1583 0.961 . S
H1599 C1583 0.960 . S
C1600 C1601 1.391 . S
C1600 C1602 1.394 . S
C1600 H1616 0.931 . S
C1601 C1600 1.391 . S
C1601 C1605 1.376 . S
C1602 C1600 1.394 . S
C1602 C1603 1.369 . S
C1602 C1606 1.531 . S
C1603 C1602 1.369 . S
C1603 C1604 1.410 . S
C1603 C1611 1.503 . S
C1604 C1603 1.410 . S
C1604 C1605 1.392 . S
C1604 C1607 1.511 . S
C1605 C1601 1.376 . S
C1605 C1604 1.392 . S
C1605 H1617 0.929 . S
C1606 C1602 1.531 . S
C1606 H1618 0.960 . S
C1606 H1619 0.962 . S
C1606 H1620 0.960 . S
C1607 C1604 1.511 . S
C1607 H1621 0.961 . S
C1607 H1622 0.961 . S
C1607 H1623 0.961 . S
C1608 C1609 1.370 . S
C1608 C1610 1.363 . S
C1608 H1624 0.931 . S
C1609 C1608 1.370 . S
C1609 C1613 1.408 . S
C1610 C1608 1.363 . S
C1610 C1611 1.370 . S
C1610 C1614 1.524 . S
C1611 C1603 1.503 . S
C1611 C1610 1.370 . S
C1611 C1612 1.403 . S
C1612 C1611 1.403 . S
C1612 C1613 1.404 . S
C1612 C1615 1.539 . S
C1613 C1609 1.408 . S
C1613 C1612 1.404 . S
C1613 H1625 0.930 . S
C1614 C1610 1.524 . S
C1614 H1626 0.956 . S
C1614 H1627 0.961 . S
C1614 H1628 0.961 . S
C1615 C1612 1.539 . S
C1615 H1629 0.958 . S
C1615 H1630 0.961 . S
C1615 H1631 0.960 . S
H1616 C1600 0.931 . S
H1617 C1605 0.929 . S
H1618 C1606 0.960 . S
H1619 C1606 0.962 . S
H1620 C1606 0.960 . S
H1621 C1607 0.961 . S
H1622 C1607 0.961 . S
H1623 C1607 0.961 . S
H1624 C1608 0.931 . S
H1625 C1613 0.930 . S
H1626 C1614 0.956 . S
H1627 C1614 0.961 . S
H1628 C1614 0.961 . S
H1629 C1615 0.958 . S
H1630 C1615 0.961 . S
H1631 C1615 0.960 . S
C1632 C1633 1.391 . S
C1632 C1634 1.394 . S
C1632 H1648 0.931 . S
C1633 C1632 1.391 . S
C1633 C1637 1.376 . S
C1634 C1632 1.394 . S
C1634 C1635 1.369 . S
C1634 C1638 1.531 . S
C1635 C1634 1.369 . S
C1635 C1636 1.410 . S
C1635 C1643 1.503 . S
C1636 C1635 1.410 . S
C1636 C1637 1.392 . S
C1636 C1639 1.511 . S
C1637 C1633 1.376 . S
C1637 C1636 1.392 . S
C1637 H1649 0.929 . S
C1638 C1634 1.531 . S
C1638 H1650 0.960 . S
C1638 H1651 0.962 . S
C1638 H1652 0.960 . S
C1639 C1636 1.511 . S
C1639 H1653 0.961 . S
C1639 H1654 0.961 . S
C1639 H1655 0.961 . S
C1640 C1641 1.370 . S
C1640 C1642 1.363 . S
C1640 H1656 0.931 . S
C1641 C1640 1.370 . S
C1641 C1645 1.408 . S
C1642 C1640 1.363 . S
C1642 C1643 1.370 . S
C1642 C1646 1.524 . S
C1643 C1635 1.503 . S
C1643 C1642 1.370 . S
C1643 C1644 1.403 . S
C1644 C1643 1.403 . S
C1644 C1645 1.404 . S
C1644 C1647 1.539 . S
C1645 C1641 1.408 . S
C1645 C1644 1.404 . S
C1645 H1657 0.930 . S
C1646 C1642 1.524 . S
C1646 H1658 0.956 . S
C1646 H1659 0.961 . S
C1646 H1660 0.961 . S
C1647 C1644 1.539 . S
C1647 H1661 0.958 . S
C1647 H1662 0.961 . S
C1647 H1663 0.960 . S
H1648 C1632 0.931 . S
H1649 C1637 0.929 . S
H1650 C1638 0.960 . S
H1651 C1638 0.962 . S
H1652 C1638 0.960 . S
H1653 C1639 0.961 . S
H1654 C1639 0.961 . S
H1655 C1639 0.961 . S
H1656 C1640 0.931 . S
H1657 C1645 0.930 . S
H1658 C1646 0.956 . S
H1659 C1646 0.961 . S
H1660 C1646 0.961 . S
H1661 C1647 0.958 . S
H1662 C1647 0.961 . S
H1663 C1647 0.960 . S
C1664 C1665 1.391 . S
C1664 C1666 1.394 . S
C1664 H1680 0.931 . S
C1665 C1664 1.391 . S
C1665 C1669 1.376 . S
C1666 C1664 1.394 . S
C1666 C1667 1.369 . S
C1666 C1670 1.531 . S
C1667 C1666 1.369 . S
C1667 C1668 1.410 . S
C1667 C1675 1.503 . S
C1668 C1667 1.410 . S
C1668 C1669 1.392 . S
C1668 C1671 1.511 . S
C1669 C1665 1.376 . S
C1669 C1668 1.392 . S
C1669 H1681 0.929 . S
C1670 C1666 1.531 . S
C1670 H1682 0.960 . S
C1670 H1683 0.962 . S
C1670 H1684 0.960 . S
C1671 C1668 1.511 . S
C1671 H1685 0.961 . S
C1671 H1686 0.961 . S
C1671 H1687 0.961 . S
C1672 C1673 1.370 . S
C1672 C1674 1.363 . S
C1672 H1688 0.931 . S
C1673 C1672 1.370 . S
C1673 C1677 1.408 . S
C1674 C1672 1.363 . S
C1674 C1675 1.370 . S
C1674 C1678 1.524 . S
C1675 C1667 1.503 . S
C1675 C1674 1.370 . S
C1675 C1676 1.403 . S
C1676 C1675 1.403 . S
C1676 C1677 1.404 . S
C1676 C1679 1.539 . S
C1677 C1673 1.408 . S
C1677 C1676 1.404 . S
C1677 H1689 0.930 . S
C1678 C1674 1.524 . S
C1678 H1690 0.956 . S
C1678 H1691 0.961 . S
C1678 H1692 0.961 . S
C1679 C1676 1.539 . S
C1679 H1693 0.958 . S
C1679 H1694 0.961 . S
C1679 H1695 0.960 . S
H1680 C1664 0.931 . S
H1681 C1669 0.929 . S
H1682 C1670 0.960 . S
H1683 C1670 0.962 . S
H1684 C1670 0.960 . S
H1685 C1671 0.961 . S
H1686 C1671 0.961 . S
H1687 C1671 0.961 . S
H1688 C1672 0.931 . S
H1689 C1677 0.930 . S
H1690 C1678 0.956 . S
H1691 C1678 0.961 . S
H1692 C1678 0.961 . S
H1693 C1679 0.958 . S
H1694 C1679 0.961 . S
H1695 C1679 0.960 . S
C1696 C1697 1.391 . S
C1696 C1698 1.394 . S
C1696 H1712 0.931 . S
C1697 C1696 1.391 . S
C1697 C1701 1.376 . S
C1698 C1696 1.394 . S
C1698 C1699 1.369 . S
C1698 C1702 1.531 . S
C1699 C1698 1.369 . S
C1699 C1700 1.410 . S
C1699 C1707 1.503 . S
C1700 C1699 1.410 . S
C1700 C1701 1.392 . S
C1700 C1703 1.511 . S
C1701 C1697 1.376 . S
C1701 C1700 1.392 . S
C1701 H1713 0.929 . S
C1702 C1698 1.531 . S
C1702 H1714 0.960 . S
C1702 H1715 0.962 . S
C1702 H1716 0.960 . S
C1703 C1700 1.511 . S
C1703 H1717 0.961 . S
C1703 H1718 0.961 . S
C1703 H1719 0.961 . S
C1704 C1705 1.370 . S
C1704 C1706 1.363 . S
C1704 H1720 0.931 . S
C1705 C1704 1.370 . S
C1705 C1709 1.408 . S
C1706 C1704 1.363 . S
C1706 C1707 1.370 . S
C1706 C1710 1.524 . S
C1707 C1699 1.503 . S
C1707 C1706 1.370 . S
C1707 C1708 1.403 . S
C1708 C1707 1.403 . S
C1708 C1709 1.404 . S
C1708 C1711 1.539 . S
C1709 C1705 1.408 . S
C1709 C1708 1.404 . S
C1709 H1721 0.930 . S
C1710 C1706 1.524 . S
C1710 H1722 0.956 . S
C1710 H1723 0.961 . S
C1710 H1724 0.961 . S
C1711 C1708 1.539 . S
C1711 H1725 0.958 . S
C1711 H1726 0.961 . S
C1711 H1727 0.960 . S
H1712 C1696 0.931 . S
H1713 C1701 0.929 . S
H1714 C1702 0.960 . S
H1715 C1702 0.962 . S
H1716 C1702 0.960 . S
H1717 C1703 0.961 . S
H1718 C1703 0.961 . S
H1719 C1703 0.961 . S
H1720 C1704 0.931 . S
H1721 C1709 0.930 . S
H1722 C1710 0.956 . S
H1723 C1710 0.961 . S
H1724 C1710 0.961 . S
H1725 C1711 0.958 . S
H1726 C1711 0.961 . S
H1727 C1711 0.960 . S
C1728 C1729 1.391 . S
C1728 C1730 1.394 . S
C1728 H1744 0.931 . S
C1729 C1728 1.391 . S
C1729 C1733 1.376 . S
C1730 C1728 1.394 . S
C1730 C1731 1.369 . S
C1730 C1734 1.531 . S
C1731 C1730 1.369 . S
C1731 C1732 1.410 . S
C1731 C1739 1.503 . S
C1732 C1731 1.410 . S
C1732 C1733 1.392 . S
C1732 C1735 1.511 . S
C1733 C1729 1.376 . S
C1733 C1732 1.392 . S
C1733 H1745 0.929 . S
C1734 C1730 1.531 . S
C1734 H1746 0.960 . S
C1734 H1747 0.962 . S
C1734 H1748 0.960 . S
C1735 C1732 1.511 . S
C1735 H1749 0.961 . S
C1735 H1750 0.961 . S
C1735 H1751 0.961 . S
C1736 C1737 1.370 . S
C1736 C1738 1.363 . S
C1736 H1752 0.931 . S
C1737 C1736 1.370 . S
C1737 C1741 1.408 . S
C1738 C1736 1.363 . S
C1738 C1739 1.370 . S
C1738 C1742 1.524 . S
C1739 C1731 1.503 . S
C1739 C1738 1.370 . S
C1739 C1740 1.403 . S
C1740 C1739 1.403 . S
C1740 C1741 1.404 . S
C1740 C1743 1.539 . S
C1741 C1737 1.408 . S
C1741 C1740 1.404 . S
C1741 H1753 0.930 . S
C1742 C1738 1.524 . S
C1742 H1754 0.956 . S
C1742 H1755 0.961 . S
C1742 H1756 0.961 . S
C1743 C1740 1.539 . S
C1743 H1757 0.958 . S
C1743 H1758 0.961 . S
C1743 H1759 0.960 . S
H1744 C1728 0.931 . S
H1745 C1733 0.929 . S
H1746 C1734 0.960 . S
H1747 C1734 0.962 . S
H1748 C1734 0.960 . S
H1749 C1735 0.961 . S
H1750 C1735 0.961 . S
H1751 C1735 0.961 . S
H1752 C1736 0.931 . S
H1753 C1741 0.930 . S
H1754 C1742 0.956 . S
H1755 C1742 0.961 . S
H1756 C1742 0.961 . S
H1757 C1743 0.958 . S
H1758 C1743 0.961 . S
H1759 C1743 0.960 . S
C1760 C1761 1.391 . S
C1760 C1762 1.394 . S
C1760 H1776 0.931 . S
C1761 C1760 1.391 . S
C1761 C1765 1.376 . S
C1762 C1760 1.394 . S
C1762 C1763 1.369 . S
C1762 C1766 1.531 . S
C1763 C1762 1.369 . S
C1763 C1764 1.410 . S
C1763 C1771 1.503 . S
C1764 C1763 1.410 . S
C1764 C1765 1.392 . S
C1764 C1767 1.511 . S
C1765 C1761 1.376 . S
C1765 C1764 1.392 . S
C1765 H1777 0.919 1_565 S
C1766 C1762 1.531 . S
C1766 H1778 0.960 . S
C1766 H1779 0.962 . S
C1766 H1780 0.960 . S
C1767 C1764 1.511 . S
C1767 H1781 0.961 . S
C1767 H1782 0.961 . S
C1767 H1783 0.961 . S
C1768 C1769 1.370 . S
C1768 C1770 1.363 . S
C1768 H1784 0.931 . S
C1769 C1768 1.370 . S
C1769 C1773 1.408 . S
C1770 C1768 1.363 . S
C1770 C1771 1.370 . S
C1770 C1774 1.524 . S
C1771 C1763 1.503 . S
C1771 C1770 1.370 . S
C1771 C1772 1.403 . S
C1772 C1771 1.403 . S
C1772 C1773 1.404 . S
C1772 C1775 1.539 . S
C1773 C1769 1.408 . S
C1773 C1772 1.404 . S
C1773 H1785 0.930 . S
C1774 C1770 1.524 . S
C1774 H1786 0.956 . S
C1774 H1787 0.961 . S
C1774 H1788 0.961 . S
C1775 C1772 1.539 . S
C1775 H1789 0.958 . S
C1775 H1790 0.961 . S
C1775 H1791 0.960 . S
H1776 C1760 0.931 . S
H1777 C1765 0.919 1_545 S
H1778 C1766 0.960 . S
H1779 C1766 0.962 . S
H1780 C1766 0.960 . S
H1781 C1767 0.961 . S
H1782 C1767 0.961 . S
H1783 C1767 0.961 . S
H1784 C1768 0.931 . S
H1785 C1773 0.930 . S
H1786 C1774 0.956 . S
H1787 C1774 0.961 . S
H1788 C1774 0.961 . S
H1789 C1775 0.958 . S
H1790 C1775 0.961 . S
H1791 C1775 0.960 . S
C1792 C1793 1.391 . S
C1792 C1794 1.394 . S
C1792 H1808 0.931 . S
C1793 C1792 1.391 . S
C1793 C1797 1.376 . S
C1794 C1792 1.394 . S
C1794 C1795 1.369 . S
C1794 C1798 1.531 . S
C1795 C1794 1.369 . S
C1795 C1796 1.410 . S
C1795 C1803 1.503 . S
C1796 C1795 1.410 . S
C1796 C1797 1.392 . S
C1796 C1799 1.511 . S
C1797 C1793 1.376 . S
C1797 C1796 1.392 . S
C1797 H1809 0.929 . S
C1798 C1794 1.531 . S
C1798 H1810 0.960 . S
C1798 H1811 0.962 . S
C1798 H1812 0.960 . S
C1799 C1796 1.511 . S
C1799 H1813 0.961 . S
C1799 H1814 0.961 . S
C1799 H1815 0.961 . S
C1800 C1801 1.370 . S
C1800 C1802 1.363 . S
C1800 H1816 0.931 . S
C1801 C1800 1.370 . S
C1801 C1805 1.408 . S
C1802 C1800 1.363 . S
C1802 C1803 1.370 . S
C1802 C1806 1.524 . S
C1803 C1795 1.503 . S
C1803 C1802 1.370 . S
C1803 C1804 1.403 . S
C1804 C1803 1.403 . S
C1804 C1805 1.404 . S
C1804 C1807 1.539 . S
C1805 C1801 1.408 . S
C1805 C1804 1.404 . S
C1805 H1817 0.930 . S
C1806 C1802 1.524 . S
C1806 H1818 0.956 . S
C1806 H1819 0.961 . S
C1806 H1820 0.961 . S
C1807 C1804 1.539 . S
C1807 H1821 0.958 . S
C1807 H1822 0.961 . S
C1807 H1823 0.960 . S
H1808 C1792 0.931 . S
H1809 C1797 0.929 . S
H1810 C1798 0.960 . S
H1811 C1798 0.962 . S
H1812 C1798 0.960 . S
H1813 C1799 0.961 . S
H1814 C1799 0.961 . S
H1815 C1799 0.961 . S
H1816 C1800 0.931 . S
H1817 C1805 0.930 . S
H1818 C1806 0.956 . S
H1819 C1806 0.961 . S
H1820 C1806 0.961 . S
H1821 C1807 0.958 . S
H1822 C1807 0.961 . S
H1823 C1807 0.960 . S
C1824 C1825 1.391 . S
C1824 C1826 1.394 . S
C1824 H1840 0.931 . S
C1825 C1824 1.391 . S
C1825 C1829 1.376 . S
C1826 C1824 1.394 . S
C1826 C1827 1.369 . S
C1826 C1830 1.531 . S
C1827 C1826 1.369 . S
C1827 C1828 1.410 . S
C1827 C1835 1.503 . S
C1828 C1827 1.410 . S
C1828 C1829 1.392 . S
C1828 C1831 1.511 . S
C1829 C1825 1.376 . S
C1829 C1828 1.392 . S
C1829 H1841 0.929 . S
C1830 C1826 1.531 . S
C1830 H1842 0.960 . S
C1830 H1843 0.962 . S
C1830 H1844 0.960 . S
C1831 C1828 1.511 . S
C1831 H1845 0.961 1_554 S
C1831 H1846 0.976 . S
C1831 H1847 0.961 . S
C1832 C1833 1.370 . S
C1832 C1834 1.363 . S
C1832 H1848 0.931 . S
C1833 C1832 1.370 . S
C1833 C1837 1.408 . S
C1834 C1832 1.363 . S
C1834 C1835 1.370 . S
C1834 C1838 1.524 . S
C1835 C1827 1.503 . S
C1835 C1834 1.370 . S
C1835 C1836 1.403 . S
C1836 C1835 1.403 . S
C1836 C1837 1.404 . S
C1836 C1839 1.539 . S
C1837 C1833 1.408 . S
C1837 C1836 1.404 . S
C1837 H1849 0.930 . S
C1838 C1834 1.524 . S
C1838 H1850 0.956 . S
C1838 H1851 0.961 1_554 S
C1838 H1852 0.961 1_554 S
C1839 C1836 1.539 . S
C1839 H1853 0.958 . S
C1839 H1854 0.961 . S
C1839 H1855 0.960 . S
H1840 C1824 0.931 . S
H1841 C1829 0.929 . S
H1842 C1830 0.960 . S
H1843 C1830 0.962 . S
H1844 C1830 0.960 . S
H1845 C1831 0.961 1_556 S
H1846 C1831 0.976 . S
H1847 C1831 0.961 . S
H1848 C1832 0.931 . S
H1849 C1837 0.930 . S
H1850 C1838 0.956 . S
H1851 C1838 0.961 1_556 S
H1852 C1838 0.961 1_556 S
H1853 C1839 0.958 . S
H1854 C1839 0.961 . S
H1855 C1839 0.960 . S
C1856 C1857 1.391 . S
C1856 C1858 1.394 . S
C1856 H1872 0.931 . S
C1857 C1856 1.391 . S
C1857 C1861 1.376 . S
C1858 C1856 1.394 . S
C1858 C1859 1.369 . S
C1858 C1862 1.531 . S
C1859 C1858 1.369 . S
C1859 C1860 1.410 . S
C1859 C1867 1.503 . S
C1860 C1859 1.410 . S
C1860 C1861 1.392 . S
C1860 C1863 1.511 . S
C1861 C1857 1.376 . S
C1861 C1860 1.392 . S
C1861 H1873 0.929 . S
C1862 C1858 1.531 . S
C1862 H1874 0.960 . S
C1862 H1875 0.962 . S
C1862 H1876 0.960 . S
C1863 C1860 1.511 . S
C1863 H1877 0.961 . S
C1863 H1878 0.961 . S
C1863 H1879 0.961 . S
C1864 C1865 1.370 . S
C1864 C1866 1.363 . S
C1864 H1880 0.931 . S
C1865 C1864 1.370 . S
C1865 C1869 1.408 . S
C1866 C1864 1.363 . S
C1866 C1867 1.370 . S
C1866 C1870 1.524 . S
C1867 C1859 1.503 . S
C1867 C1866 1.370 . S
C1867 C1868 1.403 . S
C1868 C1867 1.403 . S
C1868 C1869 1.404 . S
C1868 C1871 1.539 . S
C1869 C1865 1.408 . S
C1869 C1868 1.404 . S
C1869 H1881 0.930 . S
C1870 C1866 1.524 . S
C1870 H1882 0.956 . S
C1870 H1883 0.961 . S
C1870 H1884 0.961 . S
C1871 C1868 1.539 . S
C1871 H1885 0.958 . S
C1871 H1886 0.961 . S
C1871 H1887 0.960 . S
H1872 C1856 0.931 . S
H1873 C1861 0.929 . S
H1874 C1862 0.960 . S
H1875 C1862 0.962 . S
H1876 C1862 0.960 . S
H1877 C1863 0.961 . S
H1878 C1863 0.961 . S
H1879 C1863 0.961 . S
H1880 C1864 0.931 . S
H1881 C1869 0.930 . S
H1882 C1870 0.956 . S
H1883 C1870 0.961 . S
H1884 C1870 0.961 . S
H1885 C1871 0.958 . S
H1886 C1871 0.961 . S
H1887 C1871 0.960 . S
C1888 C1889 1.391 . S
C1888 C1890 1.394 . S
C1888 H1904 0.931 . S
C1889 C1888 1.391 . S
C1889 C1893 1.376 . S
C1890 C1888 1.394 . S
C1890 C1891 1.369 . S
C1890 C1894 1.531 . S
C1891 C1890 1.369 . S
C1891 C1892 1.410 . S
C1891 C1899 1.503 . S
C1892 C1891 1.410 . S
C1892 C1893 1.392 . S
C1892 C1895 1.511 . S
C1893 C1889 1.376 . S
C1893 C1892 1.392 . S
C1893 H1905 0.929 . S
C1894 C1890 1.531 . S
C1894 H1906 0.960 . S
C1894 H1907 0.962 . S
C1894 H1908 0.960 . S
C1895 C1892 1.511 . S
C1895 H1909 0.961 . S
C1895 H1910 0.961 . S
C1895 H1911 0.961 . S
C1896 C1897 1.370 . S
C1896 C1898 1.363 . S
C1896 H1912 0.931 . S
C1897 C1896 1.370 . S
C1897 C1901 1.408 . S
C1898 C1896 1.363 . S
C1898 C1899 1.370 . S
C1898 C1902 1.524 . S
C1899 C1891 1.503 . S
C1899 C1898 1.370 . S
C1899 C1900 1.403 . S
C1900 C1899 1.403 . S
C1900 C1901 1.404 . S
C1900 C1903 1.539 1_556 S
C1901 C1897 1.408 . S
C1901 C1900 1.404 . S
C1901 H1913 0.930 1_556 S
C1902 C1898 1.524 . S
C1902 H1914 0.956 . S
C1902 H1915 0.961 . S
C1902 H1916 0.961 . S
C1903 C1900 1.539 1_554 S
C1903 H1917 0.958 . S
C1903 H1918 0.961 . S
C1903 H1919 0.960 . S
H1904 C1888 0.931 . S
H1905 C1893 0.929 . S
H1906 C1894 0.960 . S
H1907 C1894 0.962 . S
H1908 C1894 0.960 . S
H1909 C1895 0.961 . S
H1910 C1895 0.961 . S
H1911 C1895 0.961 . S
H1912 C1896 0.931 . S
H1913 C1901 0.930 1_554 S
H1914 C1902 0.956 . S
H1915 C1902 0.961 . S
H1916 C1902 0.961 . S
H1917 C1903 0.958 . S
H1918 C1903 0.961 . S
H1919 C1903 0.960 . S
C1920 C1921 1.391 . S
C1920 C1922 1.394 . S
C1920 H1936 0.931 . S
C1921 C1920 1.391 . S
C1921 C1925 1.376 . S
C1922 C1920 1.394 . S
C1922 C1923 1.369 . S
C1922 C1926 1.531 . S
C1923 C1922 1.369 . S
C1923 C1924 1.410 . S
C1923 C1931 1.503 . S
C1924 C1923 1.410 . S
C1924 C1925 1.392 . S
C1924 C1927 1.511 . S
C1925 C1921 1.376 . S
C1925 C1924 1.392 . S
C1925 H1937 0.929 . S
C1926 C1922 1.531 . S
C1926 H1938 0.960 . S
C1926 H1939 0.962 . S
C1926 H1940 0.960 . S
C1927 C1924 1.511 . S
C1927 H1941 0.961 . S
C1927 H1942 0.961 . S
C1927 H1943 0.961 . S
C1928 C1929 1.370 . S
C1928 C1930 1.363 . S
C1928 H1944 0.931 . S
C1929 C1928 1.370 . S
C1929 C1933 1.408 . S
C1930 C1928 1.363 . S
C1930 C1931 1.370 . S
C1930 C1934 1.524 . S
C1931 C1923 1.503 . S
C1931 C1930 1.370 . S
C1931 C1932 1.403 . S
C1932 C1931 1.403 . S
C1932 C1933 1.404 . S
C1932 C1935 1.539 . S
C1933 C1929 1.408 . S
C1933 C1932 1.404 . S
C1933 H1945 0.930 . S
C1934 C1930 1.524 . S
C1934 H1946 0.956 . S
C1934 H1947 0.961 . S
C1934 H1948 0.961 . S
C1935 C1932 1.539 . S
C1935 H1949 0.958 . S
C1935 H1950 0.961 . S
C1935 H1951 0.960 . S
H1936 C1920 0.931 . S
H1937 C1925 0.929 . S
H1938 C1926 0.960 . S
H1939 C1926 0.962 . S
H1940 C1926 0.960 . S
H1941 C1927 0.961 . S
H1942 C1927 0.961 . S
H1943 C1927 0.961 . S
H1944 C1928 0.931 . S
H1945 C1933 0.930 . S
H1946 C1934 0.956 . S
H1947 C1934 0.961 . S
H1948 C1934 0.961 . S
H1949 C1935 0.958 . S
H1950 C1935 0.961 . S
H1951 C1935 0.960 . S
C1952 C1953 1.391 . S
C1952 C1954 1.394 . S
C1952 H1968 0.931 . S
C1953 C1952 1.391 . S
C1953 C1957 1.376 . S
C1954 C1952 1.394 . S
C1954 C1955 1.369 . S
C1954 C1958 1.531 . S
C1955 C1954 1.369 . S
C1955 C1956 1.410 . S
C1955 C1963 1.503 . S
C1956 C1955 1.410 . S
C1956 C1957 1.392 . S
C1956 C1959 1.511 . S
C1957 C1953 1.376 . S
C1957 C1956 1.392 . S
C1957 H1969 0.929 . S
C1958 C1954 1.531 . S
C1958 H1970 0.960 . S
C1958 H1971 0.962 . S
C1958 H1972 0.960 . S
C1959 C1956 1.511 . S
C1959 H1973 0.961 . S
C1959 H1974 0.961 . S
C1959 H1975 0.961 . S
C1960 C1961 1.370 . S
C1960 C1962 1.363 . S
C1960 H1976 0.931 . S
C1961 C1960 1.370 . S
C1961 C1965 1.408 . S
C1962 C1960 1.363 . S
C1962 C1963 1.370 . S
C1962 C1966 1.524 . S
C1963 C1955 1.503 . S
C1963 C1962 1.370 . S
C1963 C1964 1.403 . S
C1964 C1963 1.403 . S
C1964 C1965 1.404 . S
C1964 C1967 1.539 . S
C1965 C1961 1.408 . S
C1965 C1964 1.404 . S
C1965 H1977 0.930 1_545 S
C1966 C1962 1.524 . S
C1966 H1978 0.956 . S
C1966 H1979 0.961 . S
C1966 H1980 0.961 . S
C1967 C1964 1.539 . S
C1967 H1981 0.958 . S
C1967 H1982 0.961 . S
C1967 H1983 0.960 . S
H1968 C1952 0.931 . S
H1969 C1957 0.929 . S
H1970 C1958 0.960 . S
H1971 C1958 0.962 . S
H1972 C1958 0.960 . S
H1973 C1959 0.961 . S
H1974 C1959 0.961 . S
H1975 C1959 0.961 . S
H1976 C1960 0.931 . S
H1977 C1965 0.930 1_565 S
H1978 C1966 0.956 . S
H1979 C1966 0.961 . S
H1980 C1966 0.961 . S
H1981 C1967 0.958 . S
H1982 C1967 0.961 . S
H1983 C1967 0.960 . S
C1984 C1985 1.391 . S
C1984 C1986 1.394 . S
C1984 H2000 0.931 . S
C1985 C1984 1.391 . S
C1985 C1989 1.376 . S
C1986 C1984 1.394 . S
C1986 C1987 1.369 . S
C1986 C1990 1.531 . S
C1987 C1986 1.369 . S
C1987 C1988 1.410 . S
C1987 C1995 1.503 . S
C1988 C1987 1.410 . S
C1988 C1989 1.392 . S
C1988 C1991 1.511 . S
C1989 C1985 1.376 . S
C1989 C1988 1.392 . S
C1989 H2001 0.929 . S
C1990 C1986 1.531 . S
C1990 H2002 0.960 . S
C1990 H2003 0.962 . S
C1990 H2004 0.960 . S
C1991 C1988 1.511 . S
C1991 H2005 0.961 . S
C1991 H2006 0.961 . S
C1991 H2007 0.961 . S
C1992 C1993 1.370 . S
C1992 C1994 1.363 . S
C1992 H2008 0.931 . S
C1993 C1992 1.370 . S
C1993 C1997 1.408 . S
C1994 C1992 1.363 . S
C1994 C1995 1.370 . S
C1994 C1998 1.524 . S
C1995 C1987 1.503 . S
C1995 C1994 1.370 . S
C1995 C1996 1.403 . S
C1996 C1995 1.403 . S
C1996 C1997 1.404 . S
C1996 C1999 1.539 . S
C1997 C1993 1.408 . S
C1997 C1996 1.404 . S
C1997 H2009 0.930 . S
C1998 C1994 1.524 . S
C1998 H2010 0.956 . S
C1998 H2011 0.961 . S
C1998 H2012 0.961 . S
C1999 C1996 1.539 . S
C1999 H2013 0.958 . S
C1999 H2014 0.961 . S
C1999 H2015 0.960 . S
H2000 C1984 0.931 . S
H2001 C1989 0.929 . S
H2002 C1990 0.960 . S
H2003 C1990 0.962 . S
H2004 C1990 0.960 . S
H2005 C1991 0.961 . S
H2006 C1991 0.961 . S
H2007 C1991 0.961 . S
H2008 C1992 0.931 . S
H2009 C1997 0.930 . S
H2010 C1998 0.956 . S
H2011 C1998 0.961 . S
H2012 C1998 0.961 . S
H2013 C1999 0.958 . S
H2014 C1999 0.961 . S
H2015 C1999 0.960 . S
C2016 C2017 1.391 . S
C2016 C2018 1.394 . S
C2016 H2032 0.931 . S
C2017 C2016 1.391 . S
C2017 C2021 1.376 . S
C2018 C2016 1.394 . S
C2018 C2019 1.369 . S
C2018 C2022 1.531 . S
C2019 C2018 1.369 . S
C2019 C2020 1.410 . S
C2019 C2027 1.503 . S
C2020 C2019 1.410 . S
C2020 C2021 1.392 . S
C2020 C2023 1.511 . S
C2021 C2017 1.376 . S
C2021 C2020 1.392 . S
C2021 H2033 0.929 . S
C2022 C2018 1.531 . S
C2022 H2034 0.960 . S
C2022 H2035 0.962 . S
C2022 H2036 0.960 . S
C2023 C2020 1.511 . S
C2023 H2037 0.961 . S
C2023 H2038 0.961 . S
C2023 H2039 0.961 . S
C2024 C2025 1.370 . S
C2024 C2026 1.363 . S
C2024 H2040 0.931 . S
C2025 C2024 1.370 . S
C2025 C2029 1.408 . S
C2026 C2024 1.363 . S
C2026 C2027 1.370 . S
C2026 C2030 1.524 . S
C2027 C2019 1.503 . S
C2027 C2026 1.370 . S
C2027 C2028 1.403 . S
C2028 C2027 1.403 . S
C2028 C2029 1.404 . S
C2028 C2031 1.539 . S
C2029 C2025 1.408 . S
C2029 C2028 1.404 . S
C2029 H2041 0.930 . S
C2030 C2026 1.524 . S
C2030 H2042 0.956 . S
C2030 H2043 0.961 . S
C2030 H2044 0.961 . S
C2031 C2028 1.539 . S
C2031 H2045 0.958 . S
C2031 H2046 0.961 . S
C2031 H2047 0.960 . S
H2032 C2016 0.931 . S
H2033 C2021 0.929 . S
H2034 C2022 0.960 . S
H2035 C2022 0.962 . S
H2036 C2022 0.960 . S
H2037 C2023 0.961 . S
H2038 C2023 0.961 . S
H2039 C2023 0.961 . S
H2040 C2024 0.931 . S
H2041 C2029 0.930 . S
H2042 C2030 0.956 . S
H2043 C2030 0.961 . S
H2044 C2030 0.961 . S
H2045 C2031 0.958 . S
H2046 C2031 0.961 . S
H2047 C2031 0.960 . S
C2048 C2049 1.391 . S
C2048 C2050 1.394 . S
C2048 H2064 0.931 . S
C2049 C2048 1.391 . S
C2049 C2053 1.376 . S
C2050 C2048 1.394 . S
C2050 C2051 1.369 . S
C2050 C2054 1.531 . S
C2051 C2050 1.369 . S
C2051 C2052 1.410 . S
C2051 C2059 1.503 . S
C2052 C2051 1.410 . S
C2052 C2053 1.392 . S
C2052 C2055 1.511 . S
C2053 C2049 1.376 . S
C2053 C2052 1.392 . S
C2053 H2065 0.929 . S
C2054 C2050 1.531 . S
C2054 H2066 0.960 . S
C2054 H2067 0.962 . S
C2054 H2068 0.960 . S
C2055 C2052 1.511 . S
C2055 H2069 0.961 . S
C2055 H2070 0.961 . S
C2055 H2071 0.961 . S
C2056 C2057 1.370 . S
C2056 C2058 1.363 . S
C2056 H2072 0.931 . S
C2057 C2056 1.370 . S
C2057 C2061 1.408 . S
C2058 C2056 1.363 . S
C2058 C2059 1.370 . S
C2058 C2062 1.524 . S
C2059 C2051 1.503 . S
C2059 C2058 1.370 . S
C2059 C2060 1.403 . S
C2060 C2059 1.403 . S
C2060 C2061 1.404 . S
C2060 C2063 1.539 . S
C2061 C2057 1.408 . S
C2061 C2060 1.404 . S
C2061 H2073 0.930 . S
C2062 C2058 1.524 . S
C2062 H2074 0.956 . S
C2062 H2075 0.961 . S
C2062 H2076 0.961 . S
C2063 C2060 1.539 . S
C2063 H2077 0.958 . S
C2063 H2078 0.961 . S
C2063 H2079 0.960 . S
H2064 C2048 0.931 . S
H2065 C2053 0.929 . S
H2066 C2054 0.960 . S
H2067 C2054 0.962 . S
H2068 C2054 0.960 . S
H2069 C2055 0.961 . S
H2070 C2055 0.961 . S
H2071 C2055 0.961 . S
H2072 C2056 0.931 . S
H2073 C2061 0.930 . S
H2074 C2062 0.956 . S
H2075 C2062 0.961 . S
H2076 C2062 0.961 . S
H2077 C2063 0.958 . S
H2078 C2063 0.961 . S
H2079 C2063 0.960 . S
C2080 C2081 1.391 . S
C2080 C2082 1.394 . S
C2080 H2096 0.931 . S
C2081 C2080 1.391 . S
C2081 C2085 1.376 . S
C2082 C2080 1.394 . S
C2082 C2083 1.369 . S
C2082 C2086 1.531 . S
C2083 C2082 1.369 . S
C2083 C2084 1.410 . S
C2083 C2091 1.503 . S
C2084 C2083 1.410 . S
C2084 C2085 1.392 . S
C2084 C2087 1.511 . S
C2085 C2081 1.376 . S
C2085 C2084 1.392 . S
C2085 H2097 0.929 . S
C2086 C2082 1.531 . S
C2086 H2098 0.960 . S
C2086 H2099 0.962 . S
C2086 H2100 0.960 . S
C2087 C2084 1.511 . S
C2087 H2101 0.961 . S
C2087 H2102 0.961 . S
C2087 H2103 0.961 . S
C2088 C2089 1.370 . S
C2088 C2090 1.363 . S
C2088 H2104 0.931 . S
C2089 C2088 1.370 . S
C2089 C2093 1.408 . S
C2090 C2088 1.363 . S
C2090 C2091 1.370 . S
C2090 C2094 1.524 . S
C2091 C2083 1.503 . S
C2091 C2090 1.370 . S
C2091 C2092 1.403 . S
C2092 C2091 1.403 . S
C2092 C2093 1.404 . S
C2092 C2095 1.539 . S
C2093 C2089 1.408 . S
C2093 C2092 1.404 . S
C2093 H2105 0.930 . S
C2094 C2090 1.524 . S
C2094 H2106 0.956 . S
C2094 H2107 0.961 . S
C2094 H2108 0.961 . S
C2095 C2092 1.539 . S
C2095 H2109 0.958 . S
C2095 H2110 0.961 . S
C2095 H2111 0.960 . S
H2096 C2080 0.931 . S
H2097 C2085 0.929 . S
H2098 C2086 0.960 . S
H2099 C2086 0.962 . S
H2100 C2086 0.960 . S
H2101 C2087 0.961 . S
H2102 C2087 0.961 . S
H2103 C2087 0.961 . S
H2104 C2088 0.931 . S
H2105 C2093 0.930 . S
H2106 C2094 0.956 . S
H2107 C2094 0.961 . S
H2108 C2094 0.961 . S
H2109 C2095 0.958 . S
H2110 C2095 0.961 . S
H2111 C2095 0.960 . S
C2112 C2113 1.391 . S
C2112 C2114 1.394 . S
C2112 H2128 0.931 . S
C2113 C2112 1.391 . S
C2113 C2117 1.376 . S
C2114 C2112 1.394 . S
C2114 C2115 1.369 . S
C2114 C2118 1.531 . S
C2115 C2114 1.369 . S
C2115 C2116 1.410 . S
C2115 C2123 1.503 . S
C2116 C2115 1.410 . S
C2116 C2117 1.392 . S
C2116 C2119 1.511 . S
C2117 C2113 1.376 . S
C2117 C2116 1.392 . S
C2117 H2129 0.929 . S
C2118 C2114 1.531 . S
C2118 H2130 0.960 . S
C2118 H2131 0.962 . S
C2118 H2132 0.960 . S
C2119 C2116 1.511 . S
C2119 H2133 0.961 . S
C2119 H2134 0.961 . S
C2119 H2135 0.961 . S
C2120 C2121 1.370 . S
C2120 C2122 1.363 . S
C2120 H2136 0.931 . S
C2121 C2120 1.370 . S
C2121 C2125 1.408 . S
C2122 C2120 1.363 . S
C2122 C2123 1.370 . S
C2122 C2126 1.524 . S
C2123 C2115 1.503 . S
C2123 C2122 1.370 . S
C2123 C2124 1.403 . S
C2124 C2123 1.403 . S
C2124 C2125 1.404 . S
C2124 C2127 1.539 . S
C2125 C2121 1.408 . S
C2125 C2124 1.404 . S
C2125 H2137 0.930 . S
C2126 C2122 1.524 . S
C2126 H2138 0.956 . S
C2126 H2139 0.961 . S
C2126 H2140 0.961 . S
C2127 C2124 1.539 . S
C2127 H2141 0.958 . S
C2127 H2142 0.961 . S
C2127 H2143 0.960 . S
H2128 C2112 0.931 . S
H2129 C2117 0.929 . S
H2130 C2118 0.960 . S
H2131 C2118 0.962 . S
H2132 C2118 0.960 . S
H2133 C2119 0.961 . S
H2134 C2119 0.961 . S
H2135 C2119 0.961 . S
H2136 C2120 0.931 . S
H2137 C2125 0.930 . S
H2138 C2126 0.956 . S
H2139 C2126 0.961 . S
H2140 C2126 0.961 . S
H2141 C2127 0.958 . S
H2142 C2127 0.961 . S
H2143 C2127 0.960 . S
C2144 C2145 1.391 . S
C2144 C2146 1.394 . S
C2144 H2160 0.931 . S
C2145 C2144 1.391 . S
C2145 C2149 1.376 . S
C2146 C2144 1.394 . S
C2146 C2147 1.369 . S
C2146 C2150 1.531 . S
C2147 C2146 1.369 . S
C2147 C2148 1.410 . S
C2147 C2155 1.503 . S
C2148 C2147 1.410 . S
C2148 C2149 1.392 . S
C2148 C2151 1.511 . S
C2149 C2145 1.376 . S
C2149 C2148 1.392 . S
C2149 H2161 0.929 . S
C2150 C2146 1.531 . S
C2150 H2162 0.960 . S
C2150 H2163 0.962 . S
C2150 H2164 0.960 . S
C2151 C2148 1.511 . S
C2151 H2165 0.961 . S
C2151 H2166 0.961 . S
C2151 H2167 0.961 . S
C2152 C2153 1.370 . S
C2152 C2154 1.363 . S
C2152 H2168 0.931 . S
C2153 C2152 1.370 . S
C2153 C2157 1.408 . S
C2154 C2152 1.363 . S
C2154 C2155 1.370 . S
C2154 C2158 1.524 . S
C2155 C2147 1.503 . S
C2155 C2154 1.370 . S
C2155 C2156 1.403 . S
C2156 C2155 1.403 . S
C2156 C2157 1.404 . S
C2156 C2159 1.539 . S
C2157 C2153 1.408 . S
C2157 C2156 1.404 . S
C2157 H2169 0.930 . S
C2158 C2154 1.524 . S
C2158 H2170 0.956 . S
C2158 H2171 0.961 . S
C2158 H2172 0.961 . S
C2159 C2156 1.539 . S
C2159 H2173 0.958 . S
C2159 H2174 0.961 . S
C2159 H2175 0.960 . S
H2160 C2144 0.931 . S
H2161 C2149 0.929 . S
H2162 C2150 0.960 . S
H2163 C2150 0.962 . S
H2164 C2150 0.960 . S
H2165 C2151 0.961 . S
H2166 C2151 0.961 . S
H2167 C2151 0.961 . S
H2168 C2152 0.931 . S
H2169 C2157 0.930 . S
H2170 C2158 0.956 . S
H2171 C2158 0.961 . S
H2172 C2158 0.961 . S
H2173 C2159 0.958 . S
H2174 C2159 0.961 . S
H2175 C2159 0.960 . S
C2176 C2177 1.391 . S
C2176 C2178 1.394 . S
C2176 H2192 0.931 . S
C2177 C2176 1.391 . S
C2177 C2181 1.376 . S
C2178 C2176 1.394 . S
C2178 C2179 1.369 . S
C2178 C2182 1.531 . S
C2179 C2178 1.369 . S
C2179 C2180 1.410 . S
C2179 C2187 1.503 . S
C2180 C2179 1.410 . S
C2180 C2181 1.392 . S
C2180 C2183 1.511 . S
C2181 C2177 1.376 . S
C2181 C2180 1.392 . S
C2181 H2193 0.929 . S
C2182 C2178 1.531 . S
C2182 H2194 0.960 . S
C2182 H2195 0.962 . S
C2182 H2196 0.960 . S
C2183 C2180 1.511 . S
C2183 H2197 0.961 . S
C2183 H2198 0.961 . S
C2183 H2199 0.961 . S
C2184 C2185 1.370 . S
C2184 C2186 1.363 . S
C2184 H2200 0.931 . S
C2185 C2184 1.370 . S
C2185 C2189 1.408 . S
C2186 C2184 1.363 . S
C2186 C2187 1.370 . S
C2186 C2190 1.524 . S
C2187 C2179 1.503 . S
C2187 C2186 1.370 . S
C2187 C2188 1.403 . S
C2188 C2187 1.403 . S
C2188 C2189 1.404 . S
C2188 C2191 1.539 . S
C2189 C2185 1.408 . S
C2189 C2188 1.404 . S
C2189 H2201 0.930 . S
C2190 C2186 1.524 . S
C2190 H2202 0.956 . S
C2190 H2203 0.961 . S
C2190 H2204 0.961 . S
C2191 C2188 1.539 . S
C2191 H2205 0.958 . S
C2191 H2206 0.961 . S
C2191 H2207 0.960 . S
H2192 C2176 0.931 . S
H2193 C2181 0.929 . S
H2194 C2182 0.960 . S
H2195 C2182 0.962 . S
H2196 C2182 0.960 . S
H2197 C2183 0.961 . S
H2198 C2183 0.961 . S
H2199 C2183 0.961 . S
H2200 C2184 0.931 . S
H2201 C2189 0.930 . S
H2202 C2190 0.956 . S
H2203 C2190 0.961 . S
H2204 C2190 0.961 . S
H2205 C2191 0.958 . S
H2206 C2191 0.961 . S
H2207 C2191 0.960 . S
C2208 C2209 1.391 . S
C2208 C2210 1.394 . S
C2208 H2224 0.931 . S
C2209 C2208 1.391 . S
C2209 C2213 1.376 . S
C2210 C2208 1.394 . S
C2210 C2211 1.369 . S
C2210 C2214 1.531 . S
C2211 C2210 1.369 . S
C2211 C2212 1.410 . S
C2211 C2219 1.503 . S
C2212 C2211 1.410 . S
C2212 C2213 1.392 . S
C2212 C2215 1.511 . S
C2213 C2209 1.376 . S
C2213 C2212 1.392 . S
C2213 H2225 0.929 . S
C2214 C2210 1.531 . S
C2214 H2226 0.960 . S
C2214 H2227 0.962 . S
C2214 H2228 0.960 . S
C2215 C2212 1.511 . S
C2215 H2229 0.961 . S
C2215 H2230 0.961 . S
C2215 H2231 0.961 . S
C2216 C2217 1.370 . S
C2216 C2218 1.363 . S
C2216 H2232 0.931 . S
C2217 C2216 1.370 . S
C2217 C2221 1.408 . S
C2218 C2216 1.363 . S
C2218 C2219 1.370 . S
C2218 C2222 1.524 . S
C2219 C2211 1.503 . S
C2219 C2218 1.370 . S
C2219 C2220 1.403 . S
C2220 C2219 1.403 . S
C2220 C2221 1.404 . S
C2220 C2223 1.539 . S
C2221 C2217 1.408 . S
C2221 C2220 1.404 . S
C2221 H2233 0.930 . S
C2222 C2218 1.524 . S
C2222 H2234 0.956 . S
C2222 H2235 0.961 . S
C2222 H2236 0.961 . S
C2223 C2220 1.539 . S
C2223 H2237 0.958 . S
C2223 H2238 0.961 . S
C2223 H2239 0.960 . S
H2224 C2208 0.931 . S
H2225 C2213 0.929 . S
H2226 C2214 0.960 . S
H2227 C2214 0.962 . S
H2228 C2214 0.960 . S
H2229 C2215 0.961 . S
H2230 C2215 0.961 . S
H2231 C2215 0.961 . S
H2232 C2216 0.931 . S
H2233 C2221 0.930 . S
H2234 C2222 0.956 . S
H2235 C2222 0.961 . S
H2236 C2222 0.961 . S
H2237 C2223 0.958 . S
H2238 C2223 0.961 . S
H2239 C2223 0.960 . S
C2240 C2241 1.391 . S
C2240 C2242 1.394 . S
C2240 H2256 0.931 1_545 S
C2241 C2240 1.391 . S
C2241 C2245 1.376 . S
C2242 C2240 1.394 . S
C2242 C2243 1.369 . S
C2242 C2246 1.531 . S
C2243 C2242 1.369 . S
C2243 C2244 1.410 . S
C2243 C2251 1.503 . S
C2244 C2243 1.410 . S
C2244 C2245 1.392 . S
C2244 C2247 1.511 . S
C2245 C2241 1.376 . S
C2245 C2244 1.392 . S
C2245 H2257 0.929 . S
C2246 C2242 1.531 . S
C2246 H2258 0.960 . S
C2246 H2259 0.962 . S
C2246 H2260 0.960 . S
C2247 C2244 1.511 . S
C2247 H2261 0.961 . S
C2247 H2262 0.961 . S
C2247 H2263 0.961 . S
C2248 C2249 1.370 . S
C2248 C2250 1.363 . S
C2248 H2264 0.931 . S
C2249 C2248 1.370 . S
C2249 C2253 1.408 . S
C2250 C2248 1.363 . S
C2250 C2251 1.370 . S
C2250 C2254 1.524 . S
C2251 C2243 1.503 . S
C2251 C2250 1.370 . S
C2251 C2252 1.403 . S
C2252 C2251 1.403 . S
C2252 C2253 1.404 . S
C2252 C2255 1.539 . S
C2253 C2249 1.408 . S
C2253 C2252 1.404 . S
C2253 H2265 0.930 . S
C2254 C2250 1.524 . S
C2254 H2266 0.956 . S
C2254 H2267 0.961 . S
C2254 H2268 0.961 . S
C2255 C2252 1.539 . S
C2255 H2269 0.958 . S
C2255 H2270 0.961 . S
C2255 H2271 0.960 . S
H2256 C2240 0.931 1_565 S
H2257 C2245 0.929 . S
H2258 C2246 0.960 . S
H2259 C2246 0.962 . S
H2260 C2246 0.960 . S
H2261 C2247 0.961 . S
H2262 C2247 0.961 . S
H2263 C2247 0.961 . S
H2264 C2248 0.931 . S
H2265 C2253 0.930 . S
H2266 C2254 0.956 . S
H2267 C2254 0.961 . S
H2268 C2254 0.961 . S
H2269 C2255 0.958 . S
H2270 C2255 0.961 . S
H2271 C2255 0.960 . S
C2272 C2273 1.391 . S
C2272 C2274 1.394 . S
C2272 H2288 0.931 . S
C2273 C2272 1.391 . S
C2273 C2277 1.376 . S
C2274 C2272 1.394 . S
C2274 C2275 1.369 . S
C2274 C2278 1.531 . S
C2275 C2274 1.369 . S
C2275 C2276 1.410 . S
C2275 C2283 1.503 . S
C2276 C2275 1.410 . S
C2276 C2277 1.392 . S
C2276 C2279 1.511 . S
C2277 C2273 1.376 . S
C2277 C2276 1.392 . S
C2277 H2289 0.929 1_565 S
C2278 C2274 1.531 . S
C2278 H2290 0.960 . S
C2278 H2291 0.962 . S
C2278 H2292 0.960 . S
C2279 C2276 1.511 . S
C2279 H2293 0.961 . S
C2279 H2294 0.961 . S
C2279 H2295 0.961 . S
C2280 C2281 1.370 . S
C2280 C2282 1.363 . S
C2280 H2296 0.931 . S
C2281 C2280 1.370 . S
C2281 C2285 1.408 . S
C2282 C2280 1.363 . S
C2282 C2283 1.370 . S
C2282 C2286 1.524 . S
C2283 C2275 1.503 . S
C2283 C2282 1.370 . S
C2283 C2284 1.403 . S
C2284 C2283 1.403 . S
C2284 C2285 1.404 . S
C2284 C2287 1.539 . S
C2285 C2281 1.408 . S
C2285 C2284 1.404 . S
C2285 H2297 0.930 . S
C2286 C2282 1.524 . S
C2286 H2298 0.956 . S
C2286 H2299 0.961 . S
C2286 H2300 0.961 . S
C2287 C2284 1.539 . S
C2287 H2301 0.958 . S
C2287 H2302 0.961 . S
C2287 H2303 0.960 . S
H2288 C2272 0.931 . S
H2289 C2277 0.929 1_545 S
H2290 C2278 0.960 . S
H2291 C2278 0.962 . S
H2292 C2278 0.960 . S
H2293 C2279 0.961 . S
H2294 C2279 0.961 . S
H2295 C2279 0.961 . S
H2296 C2280 0.931 . S
H2297 C2285 0.930 . S
H2298 C2286 0.956 . S
H2299 C2286 0.961 . S
H2300 C2286 0.961 . S
H2301 C2287 0.958 . S
H2302 C2287 0.961 . S
H2303 C2287 0.960 . S
C2304 C2305 1.391 . S
C2304 C2306 1.394 . S
C2304 H2320 0.931 . S
C2305 C2304 1.391 . S
C2305 C2309 1.376 . S
C2306 C2304 1.394 . S
C2306 C2307 1.369 . S
C2306 C2310 1.531 . S
C2307 C2306 1.369 . S
C2307 C2308 1.410 . S
C2307 C2315 1.503 . S
C2308 C2307 1.410 . S
C2308 C2309 1.392 . S
C2308 C2311 1.511 . S
C2309 C2305 1.376 . S
C2309 C2308 1.392 . S
C2309 H2321 0.929 . S
C2310 C2306 1.531 . S
C2310 H2322 0.960 . S
C2310 H2323 0.962 . S
C2310 H2324 0.960 . S
C2311 C2308 1.511 . S
C2311 H2325 0.961 . S
C2311 H2326 0.961 . S
C2311 H2327 0.961 . S
C2312 C2313 1.370 . S
C2312 C2314 1.363 . S
C2312 H2328 0.931 . S
C2313 C2312 1.370 . S
C2313 C2317 1.408 . S
C2314 C2312 1.363 . S
C2314 C2315 1.370 . S
C2314 C2318 1.524 . S
C2315 C2307 1.503 . S
C2315 C2314 1.370 . S
C2315 C2316 1.403 . S
C2316 C2315 1.403 . S
C2316 C2317 1.404 . S
C2316 C2319 1.539 . S
C2317 C2313 1.408 . S
C2317 C2316 1.404 . S
C2317 H2329 0.930 . S
C2318 C2314 1.524 . S
C2318 H2330 0.956 . S
C2318 H2331 0.961 . S
C2318 H2332 0.961 . S
C2319 C2316 1.539 . S
C2319 H2333 0.958 . S
C2319 H2334 0.961 . S
C2319 H2335 0.960 . S
H2320 C2304 0.931 . S
H2321 C2309 0.929 . S
H2322 C2310 0.960 . S
H2323 C2310 0.962 . S
H2324 C2310 0.960 . S
H2325 C2311 0.961 . S
H2326 C2311 0.961 . S
H2327 C2311 0.961 . S
H2328 C2312 0.931 . S
H2329 C2317 0.930 . S
H2330 C2318 0.956 . S
H2331 C2318 0.961 . S
H2332 C2318 0.961 . S
H2333 C2319 0.958 . S
H2334 C2319 0.961 . S
H2335 C2319 0.960 . S
C2336 C2337 1.391 . S
C2336 C2338 1.394 . S
C2336 H2352 0.931 . S
C2337 C2336 1.391 . S
C2337 C2341 1.376 . S
C2338 C2336 1.394 . S
C2338 C2339 1.369 . S
C2338 C2342 1.531 . S
C2339 C2338 1.369 . S
C2339 C2340 1.410 . S
C2339 C2347 1.503 . S
C2340 C2339 1.410 . S
C2340 C2341 1.392 . S
C2340 C2343 1.511 . S
C2341 C2337 1.376 . S
C2341 C2340 1.392 . S
C2341 H2353 0.929 . S
C2342 C2338 1.531 . S
C2342 H2354 0.960 . S
C2342 H2355 0.962 . S
C2342 H2356 0.960 . S
C2343 C2340 1.511 . S
C2343 H2357 0.961 . S
C2343 H2358 0.961 . S
C2343 H2359 0.961 . S
C2344 C2345 1.370 . S
C2344 C2346 1.363 . S
C2344 H2360 0.931 . S
C2345 C2344 1.370 . S
C2345 C2349 1.408 . S
C2346 C2344 1.363 . S
C2346 C2347 1.370 . S
C2346 C2350 1.524 . S
C2347 C2339 1.503 . S
C2347 C2346 1.370 . S
C2347 C2348 1.403 . S
C2348 C2347 1.403 . S
C2348 C2349 1.404 . S
C2348 C2351 1.539 . S
C2349 C2345 1.408 . S
C2349 C2348 1.404 . S
C2349 H2361 0.930 . S
C2350 C2346 1.524 . S
C2350 H2362 0.956 . S
C2350 H2363 0.961 . S
C2350 H2364 0.961 . S
C2351 C2348 1.539 . S
C2351 H2365 0.958 . S
C2351 H2366 0.961 . S
C2351 H2367 0.960 . S
H2352 C2336 0.931 . S
H2353 C2341 0.929 . S
H2354 C2342 0.960 . S
H2355 C2342 0.962 . S
H2356 C2342 0.960 . S
H2357 C2343 0.961 . S
H2358 C2343 0.961 . S
H2359 C2343 0.961 . S
H2360 C2344 0.931 . S
H2361 C2349 0.930 . S
H2362 C2350 0.956 . S
H2363 C2350 0.961 . S
H2364 C2350 0.961 . S
H2365 C2351 0.958 . S
H2366 C2351 0.961 . S
H2367 C2351 0.960 . S
C2368 C2369 1.391 . S
C2368 C2370 1.394 . S
C2368 H2384 0.931 . S
C2369 C2368 1.391 . S
C2369 C2373 1.376 . S
C2370 C2368 1.394 . S
C2370 C2371 1.369 . S
C2370 C2374 1.531 . S
C2371 C2370 1.369 . S
C2371 C2372 1.410 . S
C2371 C2379 1.503 . S
C2372 C2371 1.410 . S
C2372 C2373 1.392 . S
C2372 C2375 1.511 . S
C2373 C2369 1.376 . S
C2373 C2372 1.392 . S
C2373 H2385 0.929 . S
C2374 C2370 1.531 . S
C2374 H2386 0.960 . S
C2374 H2387 0.962 . S
C2374 H2388 0.960 . S
C2375 C2372 1.511 . S
C2375 H2389 0.961 . S
C2375 H2390 0.961 . S
C2375 H2391 0.961 . S
C2376 C2377 1.370 . S
C2376 C2378 1.363 . S
C2376 H2392 0.931 . S
C2377 C2376 1.370 . S
C2377 C2381 1.408 . S
C2378 C2376 1.363 . S
C2378 C2379 1.370 . S
C2378 C2382 1.524 . S
C2379 C2371 1.503 . S
C2379 C2378 1.370 . S
C2379 C2380 1.403 . S
C2380 C2379 1.403 . S
C2380 C2381 1.404 . S
C2380 C2383 1.539 . S
C2381 C2377 1.408 . S
C2381 C2380 1.404 . S
C2381 H2393 0.930 . S
C2382 C2378 1.524 . S
C2382 H2394 0.956 . S
C2382 H2395 0.961 . S
C2382 H2396 0.961 . S
C2383 C2380 1.539 . S
C2383 H2397 0.958 . S
C2383 H2398 0.961 . S
C2383 H2399 0.960 . S
H2384 C2368 0.931 . S
H2385 C2373 0.929 . S
H2386 C2374 0.960 . S
H2387 C2374 0.962 . S
H2388 C2374 0.960 . S
H2389 C2375 0.961 . S
H2390 C2375 0.961 . S
H2391 C2375 0.961 . S
H2392 C2376 0.931 . S
H2393 C2381 0.930 . S
H2394 C2382 0.956 . S
H2395 C2382 0.961 . S
H2396 C2382 0.961 . S
H2397 C2383 0.958 . S
H2398 C2383 0.961 . S
H2399 C2383 0.960 . S
C2400 C2401 1.391 . S
C2400 C2402 1.394 . S
C2400 H2416 0.931 . S
C2401 C2400 1.391 . S
C2401 C2405 1.376 . S
C2402 C2400 1.394 . S
C2402 C2403 1.369 . S
C2402 C2406 1.531 . S
C2403 C2402 1.369 . S
C2403 C2404 1.410 . S
C2403 C2411 1.503 . S
C2404 C2403 1.410 . S
C2404 C2405 1.392 . S
C2404 C2407 1.511 . S
C2405 C2401 1.376 . S
C2405 C2404 1.392 . S
C2405 H2417 0.929 . S
C2406 C2402 1.531 . S
C2406 H2418 0.960 . S
C2406 H2419 0.962 . S
C2406 H2420 0.960 . S
C2407 C2404 1.511 . S
C2407 H2421 0.961 . S
C2407 H2422 0.961 . S
C2407 H2423 0.961 . S
C2408 C2409 1.370 . S
C2408 C2410 1.363 . S
C2408 H2424 0.931 . S
C2409 C2408 1.370 . S
C2409 C2413 1.408 . S
C2410 C2408 1.363 . S
C2410 C2411 1.370 . S
C2410 C2414 1.524 . S
C2411 C2403 1.503 . S
C2411 C2410 1.370 . S
C2411 C2412 1.403 . S
C2412 C2411 1.403 . S
C2412 C2413 1.404 . S
C2412 C2415 1.539 . S
C2413 C2409 1.408 . S
C2413 C2412 1.404 . S
C2413 H2425 0.930 . S
C2414 C2410 1.524 . S
C2414 H2426 0.956 . S
C2414 H2427 0.961 . S
C2414 H2428 0.961 . S
C2415 C2412 1.539 . S
C2415 H2429 0.958 . S
C2415 H2430 0.961 . S
C2415 H2431 0.960 . S
H2416 C2400 0.931 . S
H2417 C2405 0.929 . S
H2418 C2406 0.960 . S
H2419 C2406 0.962 . S
H2420 C2406 0.960 . S
H2421 C2407 0.961 . S
H2422 C2407 0.961 . S
H2423 C2407 0.961 . S
H2424 C2408 0.931 . S
H2425 C2413 0.930 . S
H2426 C2414 0.956 . S
H2427 C2414 0.961 . S
H2428 C2414 0.961 . S
H2429 C2415 0.958 . S
H2430 C2415 0.961 . S
H2431 C2415 0.960 . S
C2432 C2433 1.391 . S
C2432 C2434 1.394 . S
C2432 H2448 0.931 . S
C2433 C2432 1.391 . S
C2433 C2437 1.376 . S
C2434 C2432 1.394 . S
C2434 C2435 1.369 . S
C2434 C2438 1.531 . S
C2435 C2434 1.369 . S
C2435 C2436 1.410 . S
C2435 C2443 1.503 . S
C2436 C2435 1.410 . S
C2436 C2437 1.392 . S
C2436 C2439 1.511 . S
C2437 C2433 1.376 . S
C2437 C2436 1.392 . S
C2437 H2449 0.929 . S
C2438 C2434 1.531 . S
C2438 H2450 0.960 . S
C2438 H2451 0.962 . S
C2438 H2452 0.960 . S
C2439 C2436 1.511 . S
C2439 H2453 0.961 . S
C2439 H2454 0.961 . S
C2439 H2455 0.961 . S
C2440 C2441 1.370 . S
C2440 C2442 1.363 . S
C2440 H2456 0.931 . S
C2441 C2440 1.370 . S
C2441 C2445 1.408 . S
C2442 C2440 1.363 . S
C2442 C2443 1.370 . S
C2442 C2446 1.524 . S
C2443 C2435 1.503 . S
C2443 C2442 1.370 . S
C2443 C2444 1.403 . S
C2444 C2443 1.403 . S
C2444 C2445 1.404 . S
C2444 C2447 1.539 . S
C2445 C2441 1.408 . S
C2445 C2444 1.404 . S
C2445 H2457 0.930 . S
C2446 C2442 1.524 . S
C2446 H2458 0.956 . S
C2446 H2459 0.961 . S
C2446 H2460 0.961 . S
C2447 C2444 1.539 . S
C2447 H2461 0.958 . S
C2447 H2462 0.961 . S
C2447 H2463 0.960 . S
H2448 C2432 0.931 . S
H2449 C2437 0.929 . S
H2450 C2438 0.960 . S
H2451 C2438 0.962 . S
H2452 C2438 0.960 . S
H2453 C2439 0.961 . S
H2454 C2439 0.961 . S
H2455 C2439 0.961 . S
H2456 C2440 0.931 . S
H2457 C2445 0.930 . S
H2458 C2446 0.956 . S
H2459 C2446 0.961 . S
H2460 C2446 0.961 . S
H2461 C2447 0.958 . S
H2462 C2447 0.961 . S
H2463 C2447 0.960 . S
C2464 C2465 1.391 . S
C2464 C2466 1.394 . S
C2464 H2480 0.931 . S
C2465 C2464 1.391 . S
C2465 C2469 1.376 . S
C2466 C2464 1.394 . S
C2466 C2467 1.369 . S
C2466 C2470 1.531 . S
C2467 C2466 1.369 . S
C2467 C2468 1.410 . S
C2467 C2475 1.503 . S
C2468 C2467 1.410 . S
C2468 C2469 1.392 . S
C2468 C2471 1.511 . S
C2469 C2465 1.376 . S
C2469 C2468 1.392 . S
C2469 H2481 0.929 . S
C2470 C2466 1.531 . S
C2470 H2482 0.960 . S
C2470 H2483 0.962 . S
C2470 H2484 0.960 . S
C2471 C2468 1.511 . S
C2471 H2485 0.961 . S
C2471 H2486 0.961 . S
C2471 H2487 0.961 . S
C2472 C2473 1.370 . S
C2472 C2474 1.363 . S
C2472 H2488 0.931 . S
C2473 C2472 1.370 . S
C2473 C2477 1.408 . S
C2474 C2472 1.363 . S
C2474 C2475 1.370 . S
C2474 C2478 1.524 . S
C2475 C2467 1.503 . S
C2475 C2474 1.370 . S
C2475 C2476 1.403 . S
C2476 C2475 1.403 . S
C2476 C2477 1.404 . S
C2476 C2479 1.539 . S
C2477 C2473 1.408 . S
C2477 C2476 1.404 . S
C2477 H2489 0.930 . S
C2478 C2474 1.524 . S
C2478 H2490 0.956 . S
C2478 H2491 0.961 . S
C2478 H2492 0.961 . S
C2479 C2476 1.539 . S
C2479 H2493 0.958 . S
C2479 H2494 0.961 . S
C2479 H2495 0.960 . S
H2480 C2464 0.931 . S
H2481 C2469 0.929 . S
H2482 C2470 0.960 . S
H2483 C2470 0.962 . S
H2484 C2470 0.960 . S
H2485 C2471 0.961 . S
H2486 C2471 0.961 . S
H2487 C2471 0.961 . S
H2488 C2472 0.931 . S
H2489 C2477 0.930 . S
H2490 C2478 0.956 . S
H2491 C2478 0.961 . S
H2492 C2478 0.961 . S
H2493 C2479 0.958 . S
H2494 C2479 0.961 . S
H2495 C2479 0.960 . S
C2496 C2497 1.391 . S
C2496 C2498 1.394 . S
C2496 H2512 0.931 . S
C2497 C2496 1.391 . S
C2497 C2501 1.376 . S
C2498 C2496 1.394 . S
C2498 C2499 1.369 . S
C2498 C2502 1.531 . S
C2499 C2498 1.369 . S
C2499 C2500 1.410 . S
C2499 C2507 1.503 . S
C2500 C2499 1.410 . S
C2500 C2501 1.392 . S
C2500 C2503 1.511 . S
C2501 C2497 1.376 . S
C2501 C2500 1.392 . S
C2501 H2513 0.929 . S
C2502 C2498 1.531 . S
C2502 H2514 0.960 . S
C2502 H2515 0.962 1_565 S
C2502 H2516 0.960 . S
C2503 C2500 1.511 . S
C2503 H2517 0.961 . S
C2503 H2518 0.961 . S
C2503 H2519 0.961 . S
C2504 C2505 1.370 . S
C2504 C2506 1.363 . S
C2504 H2520 0.931 . S
C2505 C2504 1.370 . S
C2505 C2509 1.408 . S
C2506 C2504 1.363 . S
C2506 C2507 1.370 . S
C2506 C2510 1.524 . S
C2507 C2499 1.503 . S
C2507 C2506 1.370 . S
C2507 C2508 1.403 . S
C2508 C2507 1.403 . S
C2508 C2509 1.404 . S
C2508 C2511 1.539 . S
C2509 C2505 1.408 . S
C2509 C2508 1.404 . S
C2509 H2521 0.930 . S
C2510 C2506 1.524 . S
C2510 H2522 0.956 . S
C2510 H2523 0.961 . S
C2510 H2524 0.961 . S
C2511 C2508 1.539 . S
C2511 H2525 0.958 . S
C2511 H2526 0.961 . S
C2511 H2527 0.960 . S
H2512 C2496 0.931 . S
H2513 C2501 0.929 . S
H2514 C2502 0.960 . S
H2515 C2502 0.962 1_545 S
H2516 C2502 0.960 . S
H2517 C2503 0.961 . S
H2518 C2503 0.961 . S
H2519 C2503 0.961 . S
H2520 C2504 0.931 . S
H2521 C2509 0.930 . S
H2522 C2510 0.956 . S
H2523 C2510 0.961 . S
H2524 C2510 0.961 . S
H2525 C2511 0.958 . S
H2526 C2511 0.961 . S
H2527 C2511 0.960 . S
C2528 C2529 1.391 . S
C2528 C2530 1.394 . S
C2528 H2544 0.931 . S
C2529 C2528 1.391 . S
C2529 C2533 1.376 . S
C2530 C2528 1.394 . S
C2530 C2531 1.369 . S
C2530 C2534 1.531 . S
C2531 C2530 1.369 . S
C2531 C2532 1.410 . S
C2531 C2539 1.503 . S
C2532 C2531 1.410 . S
C2532 C2533 1.392 . S
C2532 C2535 1.511 . S
C2533 C2529 1.376 . S
C2533 C2532 1.392 . S
C2533 H2545 0.929 . S
C2534 C2530 1.531 . S
C2534 H2546 0.960 . S
C2534 H2547 0.962 . S
C2534 H2548 0.960 . S
C2535 C2532 1.511 . S
C2535 H2549 0.961 . S
C2535 H2550 0.961 . S
C2535 H2551 0.961 . S
C2536 C2537 1.370 . S
C2536 C2538 1.363 . S
C2536 H2552 0.931 . S
C2537 C2536 1.370 . S
C2537 C2541 1.408 . S
C2538 C2536 1.363 . S
C2538 C2539 1.370 . S
C2538 C2542 1.524 . S
C2539 C2531 1.503 . S
C2539 C2538 1.370 . S
C2539 C2540 1.403 . S
C2540 C2539 1.403 . S
C2540 C2541 1.404 . S
C2540 C2543 1.539 . S
C2541 C2537 1.408 . S
C2541 C2540 1.404 . S
C2541 H2553 0.930 . S
C2542 C2538 1.524 . S
C2542 H2554 0.956 . S
C2542 H2555 0.961 . S
C2542 H2556 0.961 . S
C2543 C2540 1.539 . S
C2543 H2557 0.958 . S
C2543 H2558 0.961 . S
C2543 H2559 0.960 . S
H2544 C2528 0.931 . S
H2545 C2533 0.929 . S
H2546 C2534 0.960 . S
H2547 C2534 0.962 . S
H2548 C2534 0.960 . S
H2549 C2535 0.961 . S
H2550 C2535 0.961 . S
H2551 C2535 0.961 . S
H2552 C2536 0.931 . S
H2553 C2541 0.930 . S
H2554 C2542 0.956 . S
H2555 C2542 0.961 . S
H2556 C2542 0.961 . S
H2557 C2543 0.958 . S
H2558 C2543 0.961 . S
H2559 C2543 0.960 . S
C2560 C2561 1.391 . S
C2560 C2562 1.394 . S
C2560 H2576 0.931 . S
C2561 C2560 1.391 . S
C2561 C2565 1.376 . S
C2562 C2560 1.394 . S
C2562 C2563 1.369 . S
C2562 C2566 1.531 . S
C2563 C2562 1.369 . S
C2563 C2564 1.410 . S
C2563 C2571 1.503 . S
C2564 C2563 1.410 . S
C2564 C2565 1.392 . S
C2564 C2567 1.511 . S
C2565 C2561 1.376 . S
C2565 C2564 1.392 . S
C2565 H2577 0.929 . S
C2566 C2562 1.531 . S
C2566 H2578 0.960 . S
C2566 H2579 0.962 . S
C2566 H2580 0.960 . S
C2567 C2564 1.511 . S
C2567 H2581 0.961 . S
C2567 H2582 0.961 . S
C2567 H2583 0.961 . S
C2568 C2569 1.370 . S
C2568 C2570 1.363 . S
C2568 H2584 0.931 . S
C2569 C2568 1.370 . S
C2569 C2573 1.408 . S
C2570 C2568 1.363 . S
C2570 C2571 1.370 . S
C2570 C2574 1.524 . S
C2571 C2563 1.503 . S
C2571 C2570 1.370 . S
C2571 C2572 1.403 . S
C2572 C2571 1.403 . S
C2572 C2573 1.404 . S
C2572 C2575 1.539 . S
C2573 C2569 1.408 . S
C2573 C2572 1.404 . S
C2573 H2585 0.930 . S
C2574 C2570 1.524 . S
C2574 H2586 0.956 . S
C2574 H2587 0.961 . S
C2574 H2588 0.961 1_545 S
C2575 C2572 1.539 . S
C2575 H2589 0.958 . S
C2575 H2590 0.961 . S
C2575 H2591 0.960 . S
H2576 C2560 0.931 . S
H2577 C2565 0.929 . S
H2578 C2566 0.960 . S
H2579 C2566 0.962 . S
H2580 C2566 0.960 . S
H2581 C2567 0.961 . S
H2582 C2567 0.961 . S
H2583 C2567 0.961 . S
H2584 C2568 0.931 . S
H2585 C2573 0.930 . S
H2586 C2574 0.956 . S
H2587 C2574 0.961 . S
H2588 C2574 0.961 1_565 S
H2589 C2575 0.958 . S
H2590 C2575 0.961 . S
H2591 C2575 0.960 . S
C2592 C2593 1.391 . S
C2592 C2594 1.394 . S
C2592 H2608 0.931 . S
C2593 C2592 1.391 . S
C2593 C2597 1.376 . S
C2594 C2592 1.394 . S
C2594 C2595 1.369 . S
C2594 C2598 1.531 . S
C2595 C2594 1.369 . S
C2595 C2596 1.410 . S
C2595 C2603 1.503 . S
C2596 C2595 1.410 . S
C2596 C2597 1.392 . S
C2596 C2599 1.511 . S
C2597 C2593 1.376 . S
C2597 C2596 1.392 . S
C2597 H2609 0.929 . S
C2598 C2594 1.531 . S
C2598 H2610 0.960 . S
C2598 H2611 0.962 . S
C2598 H2612 0.960 . S
C2599 C2596 1.511 . S
C2599 H2613 0.961 . S
C2599 H2614 0.961 . S
C2599 H2615 0.961 . S
C2600 C2601 1.370 . S
C2600 C2602 1.363 . S
C2600 H2616 0.931 . S
C2601 C2600 1.370 . S
C2601 C2605 1.408 . S
C2602 C2600 1.363 . S
C2602 C2603 1.370 . S
C2602 C2606 1.524 . S
C2603 C2595 1.503 . S
C2603 C2602 1.370 . S
C2603 C2604 1.403 . S
C2604 C2603 1.403 . S
C2604 C2605 1.404 . S
C2604 C2607 1.539 . S
C2605 C2601 1.408 . S
C2605 C2604 1.404 . S
C2605 H2617 0.930 . S
C2606 C2602 1.524 . S
C2606 H2618 0.956 . S
C2606 H2619 0.961 . S
C2606 H2620 0.961 . S
C2607 C2604 1.539 . S
C2607 H2621 0.958 . S
C2607 H2622 0.961 . S
C2607 H2623 0.960 . S
H2608 C2592 0.931 . S
H2609 C2597 0.929 . S
H2610 C2598 0.960 . S
H2611 C2598 0.962 . S
H2612 C2598 0.960 . S
H2613 C2599 0.961 . S
H2614 C2599 0.961 . S
H2615 C2599 0.961 . S
H2616 C2600 0.931 . S
H2617 C2605 0.930 . S
H2618 C2606 0.956 . S
H2619 C2606 0.961 . S
H2620 C2606 0.961 . S
H2621 C2607 0.958 . S
H2622 C2607 0.961 . S
H2623 C2607 0.960 . S
C2624 C2625 1.391 . S
C2624 C2626 1.394 . S
C2624 H2640 0.931 . S
C2625 C2624 1.391 . S
C2625 C2629 1.376 . S
C2626 C2624 1.394 . S
C2626 C2627 1.369 . S
C2626 C2630 1.531 . S
C2627 C2626 1.369 . S
C2627 C2628 1.410 . S
C2627 C2635 1.503 . S
C2628 C2627 1.410 . S
C2628 C2629 1.392 . S
C2628 C2631 1.511 . S
C2629 C2625 1.376 . S
C2629 C2628 1.392 . S
C2629 H2641 0.929 . S
C2630 C2626 1.531 . S
C2630 H2642 0.960 . S
C2630 H2643 0.962 . S
C2630 H2644 0.960 . S
C2631 C2628 1.511 . S
C2631 H2645 0.961 . S
C2631 H2646 0.961 . S
C2631 H2647 0.961 . S
C2632 C2633 1.370 . S
C2632 C2634 1.363 . S
C2632 H2648 0.931 . S
C2633 C2632 1.370 . S
C2633 C2637 1.408 . S
C2634 C2632 1.363 . S
C2634 C2635 1.370 . S
C2634 C2638 1.524 . S
C2635 C2627 1.503 . S
C2635 C2634 1.370 . S
C2635 C2636 1.403 . S
C2636 C2635 1.403 . S
C2636 C2637 1.404 . S
C2636 C2639 1.539 . S
C2637 C2633 1.408 . S
C2637 C2636 1.404 . S
C2637 H2649 0.930 . S
C2638 C2634 1.524 . S
C2638 H2650 0.956 . S
C2638 H2651 0.961 . S
C2638 H2652 0.961 . S
C2639 C2636 1.539 . S
C2639 H2653 0.958 . S
C2639 H2654 0.961 . S
C2639 H2655 0.960 . S
H2640 C2624 0.931 . S
H2641 C2629 0.929 . S
H2642 C2630 0.960 . S
H2643 C2630 0.962 . S
H2644 C2630 0.960 . S
H2645 C2631 0.961 . S
H2646 C2631 0.961 . S
H2647 C2631 0.961 . S
H2648 C2632 0.931 . S
H2649 C2637 0.930 . S
H2650 C2638 0.956 . S
H2651 C2638 0.961 . S
H2652 C2638 0.961 . S
H2653 C2639 0.958 . S
H2654 C2639 0.961 . S
H2655 C2639 0.960 . S
C2656 C2657 1.391 . S
C2656 C2658 1.394 . S
C2656 H2672 0.931 . S
C2657 C2656 1.391 . S
C2657 C2661 1.376 . S
C2658 C2656 1.394 . S
C2658 C2659 1.369 . S
C2658 C2662 1.531 . S
C2659 C2658 1.369 . S
C2659 C2660 1.410 . S
C2659 C2667 1.503 . S
C2660 C2659 1.410 . S
C2660 C2661 1.392 . S
C2660 C2663 1.511 . S
C2661 C2657 1.376 . S
C2661 C2660 1.392 . S
C2661 H2673 0.929 . S
C2662 C2658 1.531 . S
C2662 H2674 0.960 . S
C2662 H2675 0.962 . S
C2662 H2676 0.960 . S
C2663 C2660 1.511 . S
C2663 H2677 0.961 . S
C2663 H2678 0.961 . S
C2663 H2679 0.961 . S
C2664 C2665 1.370 . S
C2664 C2666 1.363 . S
C2664 H2680 0.931 . S
C2665 C2664 1.370 . S
C2665 C2669 1.408 . S
C2666 C2664 1.363 . S
C2666 C2667 1.370 . S
C2666 C2670 1.524 . S
C2667 C2659 1.503 . S
C2667 C2666 1.370 . S
C2667 C2668 1.403 . S
C2668 C2667 1.403 . S
C2668 C2669 1.404 . S
C2668 C2671 1.539 . S
C2669 C2665 1.408 . S
C2669 C2668 1.404 . S
C2669 H2681 0.930 . S
C2670 C2666 1.524 . S
C2670 H2682 0.956 . S
C2670 H2683 0.961 . S
C2670 H2684 0.961 . S
C2671 C2668 1.539 . S
C2671 H2685 0.958 . S
C2671 H2686 0.961 . S
C2671 H2687 0.960 . S
H2672 C2656 0.931 . S
H2673 C2661 0.929 . S
H2674 C2662 0.960 . S
H2675 C2662 0.962 . S
H2676 C2662 0.960 . S
H2677 C2663 0.961 . S
H2678 C2663 0.961 . S
H2679 C2663 0.961 . S
H2680 C2664 0.931 . S
H2681 C2669 0.930 . S
H2682 C2670 0.956 . S
H2683 C2670 0.961 . S
H2684 C2670 0.961 . S
H2685 C2671 0.958 . S
H2686 C2671 0.961 . S
H2687 C2671 0.960 . S
C2688 C2689 1.391 . S
C2688 C2690 1.394 . S
C2688 H2704 0.931 . S
C2689 C2688 1.391 . S
C2689 C2693 1.376 . S
C2690 C2688 1.394 . S
C2690 C2691 1.369 . S
C2690 C2694 1.531 . S
C2691 C2690 1.369 . S
C2691 C2692 1.410 . S
C2691 C2699 1.503 . S
C2692 C2691 1.410 . S
C2692 C2693 1.392 . S
C2692 C2695 1.511 . S
C2693 C2689 1.376 . S
C2693 C2692 1.392 . S
C2693 H2705 0.929 . S
C2694 C2690 1.531 . S
C2694 H2706 0.960 . S
C2694 H2707 0.962 . S
C2694 H2708 0.960 . S
C2695 C2692 1.511 . S
C2695 H2709 0.961 . S
C2695 H2710 0.961 . S
C2695 H2711 0.961 . S
C2696 C2697 1.370 . S
C2696 C2698 1.363 . S
C2696 H2712 0.931 . S
C2697 C2696 1.370 . S
C2697 C2701 1.408 . S
C2698 C2696 1.363 . S
C2698 C2699 1.370 . S
C2698 C2702 1.524 . S
C2699 C2691 1.503 . S
C2699 C2698 1.370 . S
C2699 C2700 1.403 . S
C2700 C2699 1.403 . S
C2700 C2701 1.404 . S
C2700 C2703 1.539 . S
C2701 C2697 1.408 . S
C2701 C2700 1.404 . S
C2701 H2713 0.930 . S
C2702 C2698 1.524 . S
C2702 H2714 0.956 . S
C2702 H2715 0.961 . S
C2702 H2716 0.961 . S
C2703 C2700 1.539 . S
C2703 H2717 0.958 . S
C2703 H2718 0.961 . S
C2703 H2719 0.960 . S
H2704 C2688 0.931 . S
H2705 C2693 0.929 . S
H2706 C2694 0.960 . S
H2707 C2694 0.962 . S
H2708 C2694 0.960 . S
H2709 C2695 0.961 . S
H2710 C2695 0.961 . S
H2711 C2695 0.961 . S
H2712 C2696 0.931 . S
H2713 C2701 0.930 . S
H2714 C2702 0.956 . S
H2715 C2702 0.961 . S
H2716 C2702 0.961 . S
H2717 C2703 0.958 . S
H2718 C2703 0.961 . S
H2719 C2703 0.960 . S
C2720 C2721 1.391 . S
C2720 C2722 1.394 . S
C2720 H2736 0.931 . S
C2721 C2720 1.391 . S
C2721 C2725 1.376 . S
C2722 C2720 1.394 . S
C2722 C2723 1.369 . S
C2722 C2726 1.531 . S
C2723 C2722 1.369 . S
C2723 C2724 1.410 . S
C2723 C2731 1.503 . S
C2724 C2723 1.410 . S
C2724 C2725 1.392 . S
C2724 C2727 1.511 . S
C2725 C2721 1.376 . S
C2725 C2724 1.392 . S
C2725 H2737 0.929 . S
C2726 C2722 1.531 . S
C2726 H2738 0.960 . S
C2726 H2739 0.962 . S
C2726 H2740 0.960 . S
C2727 C2724 1.511 . S
C2727 H2741 0.961 . S
C2727 H2742 0.961 . S
C2727 H2743 0.961 . S
C2728 C2729 1.370 . S
C2728 C2730 1.363 . S
C2728 H2744 0.931 . S
C2729 C2728 1.370 . S
C2729 C2733 1.408 . S
C2730 C2728 1.363 . S
C2730 C2731 1.370 . S
C2730 C2734 1.524 . S
C2731 C2723 1.503 . S
C2731 C2730 1.370 . S
C2731 C2732 1.403 . S
C2732 C2731 1.403 . S
C2732 C2733 1.404 . S
C2732 C2735 1.539 . S
C2733 C2729 1.408 . S
C2733 C2732 1.404 . S
C2733 H2745 0.930 . S
C2734 C2730 1.524 . S
C2734 H2746 0.956 . S
C2734 H2747 0.961 . S
C2734 H2748 0.961 . S
C2735 C2732 1.539 . S
C2735 H2749 0.958 . S
C2735 H2750 0.961 . S
C2735 H2751 0.960 . S
H2736 C2720 0.931 . S
H2737 C2725 0.929 . S
H2738 C2726 0.960 . S
H2739 C2726 0.962 . S
H2740 C2726 0.960 . S
H2741 C2727 0.961 . S
H2742 C2727 0.961 . S
H2743 C2727 0.961 . S
H2744 C2728 0.931 . S
H2745 C2733 0.930 . S
H2746 C2734 0.956 . S
H2747 C2734 0.961 . S
H2748 C2734 0.961 . S
H2749 C2735 0.958 . S
H2750 C2735 0.961 . S
H2751 C2735 0.960 . S
C2752 C2753 1.391 . S
C2752 C2754 1.394 . S
C2752 H2768 0.931 . S
C2753 C2752 1.391 . S
C2753 C2757 1.376 . S
C2754 C2752 1.394 . S
C2754 C2755 1.369 . S
C2754 C2758 1.531 . S
C2755 C2754 1.369 . S
C2755 C2756 1.410 . S
C2755 C2763 1.503 . S
C2756 C2755 1.410 . S
C2756 C2757 1.392 . S
C2756 C2759 1.511 . S
C2757 C2753 1.376 . S
C2757 C2756 1.392 . S
C2757 H2769 0.929 . S
C2758 C2754 1.531 . S
C2758 H2770 0.960 . S
C2758 H2771 0.962 . S
C2758 H2772 0.960 . S
C2759 C2756 1.511 . S
C2759 H2773 0.961 . S
C2759 H2774 0.961 . S
C2759 H2775 0.961 . S
C2760 C2761 1.370 . S
C2760 C2762 1.363 . S
C2760 H2776 0.931 . S
C2761 C2760 1.370 . S
C2761 C2765 1.408 . S
C2762 C2760 1.363 . S
C2762 C2763 1.370 . S
C2762 C2766 1.524 . S
C2763 C2755 1.503 . S
C2763 C2762 1.370 . S
C2763 C2764 1.403 . S
C2764 C2763 1.403 . S
C2764 C2765 1.404 . S
C2764 C2767 1.539 . S
C2765 C2761 1.408 . S
C2765 C2764 1.404 . S
C2765 H2777 0.930 . S
C2766 C2762 1.524 . S
C2766 H2778 0.956 . S
C2766 H2779 0.961 . S
C2766 H2780 0.961 1_565 S
C2767 C2764 1.539 . S
C2767 H2781 0.958 . S
C2767 H2782 0.961 . S
C2767 H2783 0.960 . S
H2768 C2752 0.931 . S
H2769 C2757 0.929 . S
H2770 C2758 0.960 . S
H2771 C2758 0.962 . S
H2772 C2758 0.960 . S
H2773 C2759 0.961 . S
H2774 C2759 0.961 . S
H2775 C2759 0.961 . S
H2776 C2760 0.931 . S
H2777 C2765 0.930 . S
H2778 C2766 0.956 . S
H2779 C2766 0.961 . S
H2780 C2766 0.961 1_545 S
H2781 C2767 0.958 . S
H2782 C2767 0.961 . S
H2783 C2767 0.960 . S
C2784 C2785 1.391 . S
C2784 C2786 1.394 . S
C2784 H2800 0.931 . S
C2785 C2784 1.391 . S
C2785 C2789 1.376 . S
C2786 C2784 1.394 . S
C2786 C2787 1.369 . S
C2786 C2790 1.531 . S
C2787 C2786 1.369 . S
C2787 C2788 1.410 . S
C2787 C2795 1.503 . S
C2788 C2787 1.410 . S
C2788 C2789 1.392 . S
C2788 C2791 1.511 . S
C2789 C2785 1.376 . S
C2789 C2788 1.392 . S
C2789 H2801 0.929 . S
C2790 C2786 1.531 . S
C2790 H2802 0.960 . S
C2790 H2803 0.962 . S
C2790 H2804 0.960 . S
C2791 C2788 1.511 . S
C2791 H2805 0.961 . S
C2791 H2806 0.961 . S
C2791 H2807 0.961 . S
C2792 C2793 1.370 . S
C2792 C2794 1.363 . S
C2792 H2808 0.931 . S
C2793 C2792 1.370 . S
C2793 C2797 1.408 . S
C2794 C2792 1.363 . S
C2794 C2795 1.370 . S
C2794 C2798 1.524 . S
C2795 C2787 1.503 . S
C2795 C2794 1.370 . S
C2795 C2796 1.403 . S
C2796 C2795 1.403 . S
C2796 C2797 1.404 . S
C2796 C2799 1.539 . S
C2797 C2793 1.408 . S
C2797 C2796 1.404 . S
C2797 H2809 0.930 . S
C2798 C2794 1.524 . S
C2798 H2810 0.956 . S
C2798 H2811 0.961 . S
C2798 H2812 0.961 . S
C2799 C2796 1.539 . S
C2799 H2813 0.958 . S
C2799 H2814 0.961 . S
C2799 H2815 0.960 . S
H2800 C2784 0.931 . S
H2801 C2789 0.929 . S
H2802 C2790 0.960 . S
H2803 C2790 0.962 . S
H2804 C2790 0.960 . S
H2805 C2791 0.961 . S
H2806 C2791 0.961 . S
H2807 C2791 0.961 . S
H2808 C2792 0.931 . S
H2809 C2797 0.930 . S
H2810 C2798 0.956 . S
H2811 C2798 0.961 . S
H2812 C2798 0.961 . S
H2813 C2799 0.958 . S
H2814 C2799 0.961 . S
H2815 C2799 0.960 . S
C2816 C2817 1.391 . S
C2816 C2818 1.394 . S
C2816 H2832 0.931 . S
C2817 C2816 1.391 . S
C2817 C2821 1.376 . S
C2818 C2816 1.394 . S
C2818 C2819 1.369 . S
C2818 C2822 1.531 . S
C2819 C2818 1.369 . S
C2819 C2820 1.410 . S
C2819 C2827 1.503 . S
C2820 C2819 1.410 . S
C2820 C2821 1.392 . S
C2820 C2823 1.511 . S
C2821 C2817 1.376 . S
C2821 C2820 1.392 . S
C2821 H2833 0.929 . S
C2822 C2818 1.531 . S
C2822 H2834 0.960 . S
C2822 H2835 0.962 . S
C2822 H2836 0.960 . S
C2823 C2820 1.511 . S
C2823 H2837 0.961 . S
C2823 H2838 0.961 . S
C2823 H2839 0.961 . S
C2824 C2825 1.370 . S
C2824 C2826 1.363 . S
C2824 H2840 0.931 . S
C2825 C2824 1.370 . S
C2825 C2829 1.408 . S
C2826 C2824 1.363 . S
C2826 C2827 1.370 . S
C2826 C2830 1.524 . S
C2827 C2819 1.503 . S
C2827 C2826 1.370 . S
C2827 C2828 1.403 . S
C2828 C2827 1.403 . S
C2828 C2829 1.404 . S
C2828 C2831 1.539 . S
C2829 C2825 1.408 . S
C2829 C2828 1.404 . S
C2829 H2841 0.930 . S
C2830 C2826 1.524 . S
C2830 H2842 0.956 . S
C2830 H2843 0.961 . S
C2830 H2844 0.961 1_545 S
C2831 C2828 1.539 . S
C2831 H2845 0.958 . S
C2831 H2846 0.961 . S
C2831 H2847 0.960 . S
H2832 C2816 0.931 . S
H2833 C2821 0.929 . S
H2834 C2822 0.960 . S
H2835 C2822 0.962 . S
H2836 C2822 0.960 . S
H2837 C2823 0.961 . S
H2838 C2823 0.961 . S
H2839 C2823 0.961 . S
H2840 C2824 0.931 . S
H2841 C2829 0.930 . S
H2842 C2830 0.956 . S
H2843 C2830 0.961 . S
H2844 C2830 0.961 1_565 S
H2845 C2831 0.958 . S
H2846 C2831 0.961 . S
H2847 C2831 0.960 . S
C2848 C2849 1.391 . S
C2848 C2850 1.394 . S
C2848 H2864 0.931 . S
C2849 C2848 1.391 . S
C2849 C2853 1.376 . S
C2850 C2848 1.394 . S
C2850 C2851 1.369 . S
C2850 C2854 1.531 . S
C2851 C2850 1.369 . S
C2851 C2852 1.410 . S
C2851 C2859 1.503 . S
C2852 C2851 1.410 . S
C2852 C2853 1.392 . S
C2852 C2855 1.511 . S
C2853 C2849 1.376 . S
C2853 C2852 1.392 . S
C2853 H2865 0.929 . S
C2854 C2850 1.531 . S
C2854 H2866 0.960 . S
C2854 H2867 0.962 . S
C2854 H2868 0.960 . S
C2855 C2852 1.511 . S
C2855 H2869 0.961 . S
C2855 H2870 0.961 . S
C2855 H2871 0.961 . S
C2856 C2857 1.370 . S
C2856 C2858 1.363 . S
C2856 H2872 0.931 . S
C2857 C2856 1.370 . S
C2857 C2861 1.408 . S
C2858 C2856 1.363 . S
C2858 C2859 1.370 . S
C2858 C2862 1.524 . S
C2859 C2851 1.503 . S
C2859 C2858 1.370 . S
C2859 C2860 1.403 . S
C2860 C2859 1.403 . S
C2860 C2861 1.404 . S
C2860 C2863 1.539 . S
C2861 C2857 1.408 . S
C2861 C2860 1.404 . S
C2861 H2873 0.930 . S
C2862 C2858 1.524 . S
C2862 H2874 0.956 . S
C2862 H2875 0.961 . S
C2862 H2876 0.961 . S
C2863 C2860 1.539 . S
C2863 H2877 0.958 . S
C2863 H2878 0.961 . S
C2863 H2879 0.960 . S
H2864 C2848 0.931 . S
H2865 C2853 0.929 . S
H2866 C2854 0.960 . S
H2867 C2854 0.962 . S
H2868 C2854 0.960 . S
H2869 C2855 0.961 . S
H2870 C2855 0.961 . S
H2871 C2855 0.961 . S
H2872 C2856 0.931 . S
H2873 C2861 0.930 . S
H2874 C2862 0.956 . S
H2875 C2862 0.961 . S
H2876 C2862 0.961 . S
H2877 C2863 0.958 . S
H2878 C2863 0.961 . S
H2879 C2863 0.960 . S
C2880 C2881 1.391 . S
C2880 C2882 1.394 . S
C2880 H2896 0.931 . S
C2881 C2880 1.391 . S
C2881 C2885 1.376 . S
C2882 C2880 1.394 . S
C2882 C2883 1.369 . S
C2882 C2886 1.531 . S
C2883 C2882 1.369 . S
C2883 C2884 1.410 . S
C2883 C2891 1.503 . S
C2884 C2883 1.410 . S
C2884 C2885 1.392 . S
C2884 C2887 1.511 . S
C2885 C2881 1.376 . S
C2885 C2884 1.392 . S
C2885 H2897 0.929 . S
C2886 C2882 1.531 . S
C2886 H2898 0.960 . S
C2886 H2899 0.962 . S
C2886 H2900 0.960 . S
C2887 C2884 1.511 . S
C2887 H2901 0.961 . S
C2887 H2902 0.961 . S
C2887 H2903 0.961 . S
C2888 C2889 1.370 . S
C2888 C2890 1.363 . S
C2888 H2904 0.931 . S
C2889 C2888 1.370 . S
C2889 C2893 1.408 . S
C2890 C2888 1.363 . S
C2890 C2891 1.370 . S
C2890 C2894 1.524 . S
C2891 C2883 1.503 . S
C2891 C2890 1.370 . S
C2891 C2892 1.403 . S
C2892 C2891 1.403 . S
C2892 C2893 1.404 . S
C2892 C2895 1.539 . S
C2893 C2889 1.408 . S
C2893 C2892 1.404 . S
C2893 H2905 0.930 . S
C2894 C2890 1.524 . S
C2894 H2906 0.956 . S
C2894 H2907 0.961 . S
C2894 H2908 0.961 . S
C2895 C2892 1.539 . S
C2895 H2909 0.958 . S
C2895 H2910 0.961 . S
C2895 H2911 0.960 . S
H2896 C2880 0.931 . S
H2897 C2885 0.929 . S
H2898 C2886 0.960 . S
H2899 C2886 0.962 . S
H2900 C2886 0.960 . S
H2901 C2887 0.961 . S
H2902 C2887 0.961 . S
H2903 C2887 0.961 . S
H2904 C2888 0.931 . S
H2905 C2893 0.930 . S
H2906 C2894 0.956 . S
H2907 C2894 0.961 . S
H2908 C2894 0.961 . S
H2909 C2895 0.958 . S
H2910 C2895 0.961 . S
H2911 C2895 0.960 . S
C2912 C2913 1.391 . S
C2912 C2914 1.394 . S
C2912 H2928 0.931 . S
C2913 C2912 1.391 . S
C2913 C2917 1.376 . S
C2914 C2912 1.394 . S
C2914 C2915 1.369 . S
C2914 C2918 1.531 . S
C2915 C2914 1.369 . S
C2915 C2916 1.410 . S
C2915 C2923 1.503 . S
C2916 C2915 1.410 . S
C2916 C2917 1.392 . S
C2916 C2919 1.511 . S
C2917 C2913 1.376 . S
C2917 C2916 1.392 . S
C2917 H2929 0.929 . S
C2918 C2914 1.531 . S
C2918 H2930 0.960 . S
C2918 H2931 0.962 . S
C2918 H2932 0.960 . S
C2919 C2916 1.511 . S
C2919 H2933 0.961 . S
C2919 H2934 0.961 . S
C2919 H2935 0.961 . S
C2920 C2921 1.370 . S
C2920 C2922 1.363 . S
C2920 H2936 0.931 . S
C2921 C2920 1.370 . S
C2921 C2925 1.408 . S
C2922 C2920 1.363 . S
C2922 C2923 1.370 . S
C2922 C2926 1.524 . S
C2923 C2915 1.503 . S
C2923 C2922 1.370 . S
C2923 C2924 1.403 . S
C2924 C2923 1.403 . S
C2924 C2925 1.404 . S
C2924 C2927 1.539 . S
C2925 C2921 1.408 . S
C2925 C2924 1.404 . S
C2925 H2937 0.930 . S
C2926 C2922 1.524 . S
C2926 H2938 0.956 . S
C2926 H2939 0.961 . S
C2926 H2940 0.961 . S
C2927 C2924 1.539 . S
C2927 H2941 0.958 . S
C2927 H2942 0.961 . S
C2927 H2943 0.960 . S
H2928 C2912 0.931 . S
H2929 C2917 0.929 . S
H2930 C2918 0.960 . S
H2931 C2918 0.962 . S
H2932 C2918 0.960 . S
H2933 C2919 0.961 . S
H2934 C2919 0.961 . S
H2935 C2919 0.961 . S
H2936 C2920 0.931 . S
H2937 C2925 0.930 . S
H2938 C2926 0.956 . S
H2939 C2926 0.961 . S
H2940 C2926 0.961 . S
H2941 C2927 0.958 . S
H2942 C2927 0.961 . S
H2943 C2927 0.960 . S
C2944 C2945 1.391 . S
C2944 C2946 1.394 . S
C2944 H2960 0.931 . S
C2945 C2944 1.391 . S
C2945 C2949 1.376 . S
C2946 C2944 1.394 . S
C2946 C2947 1.369 . S
C2946 C2950 1.531 . S
C2947 C2946 1.369 . S
C2947 C2948 1.410 . S
C2947 C2955 1.503 . S
C2948 C2947 1.410 . S
C2948 C2949 1.392 . S
C2948 C2951 1.511 . S
C2949 C2945 1.376 . S
C2949 C2948 1.392 . S
C2949 H2961 0.929 . S
C2950 C2946 1.531 . S
C2950 H2962 0.960 . S
C2950 H2963 0.962 . S
C2950 H2964 0.960 . S
C2951 C2948 1.511 . S
C2951 H2965 0.961 . S
C2951 H2966 0.961 . S
C2951 H2967 0.961 . S
C2952 C2953 1.370 . S
C2952 C2954 1.363 . S
C2952 H2968 0.931 . S
C2953 C2952 1.370 . S
C2953 C2957 1.408 . S
C2954 C2952 1.363 . S
C2954 C2955 1.370 . S
C2954 C2958 1.524 . S
C2955 C2947 1.503 . S
C2955 C2954 1.370 . S
C2955 C2956 1.403 . S
C2956 C2955 1.403 . S
C2956 C2957 1.404 . S
C2956 C2959 1.539 . S
C2957 C2953 1.408 . S
C2957 C2956 1.404 . S
C2957 H2969 0.930 . S
C2958 C2954 1.524 . S
C2958 H2970 0.956 . S
C2958 H2971 0.961 . S
C2958 H2972 0.961 . S
C2959 C2956 1.539 . S
C2959 H2973 0.958 . S
C2959 H2974 0.961 . S
C2959 H2975 0.960 . S
H2960 C2944 0.931 . S
H2961 C2949 0.929 . S
H2962 C2950 0.960 . S
H2963 C2950 0.962 . S
H2964 C2950 0.960 . S
H2965 C2951 0.961 . S
H2966 C2951 0.961 . S
H2967 C2951 0.961 . S
H2968 C2952 0.931 . S
H2969 C2957 0.930 . S
H2970 C2958 0.956 . S
H2971 C2958 0.961 . S
H2972 C2958 0.961 . S
H2973 C2959 0.958 . S
H2974 C2959 0.961 . S
H2975 C2959 0.960 . S
C2976 C2977 1.391 . S
C2976 C2978 1.394 . S
C2976 H2992 0.931 . S
C2977 C2976 1.391 . S
C2977 C2981 1.376 1_554 S
C2978 C2976 1.394 . S
C2978 C2979 1.369 . S
C2978 C2982 1.536 . S
C2979 C2978 1.369 . S
C2979 C2980 1.410 1_554 S
C2979 C2987 1.503 1_654 S
C2980 C2979 1.410 1_556 S
C2980 C2981 1.392 . S
C2980 C2983 1.511 . S
C2981 C2977 1.376 1_556 S
C2981 C2980 1.392 . S
C2981 H2993 0.929 . S
C2982 C2978 1.536 . S
C2982 H2994 0.954 1_655 S
C2982 H2995 0.958 1_655 S
C2982 H2996 0.964 . S
C2983 C2980 1.511 . S
C2983 H2997 0.961 . S
C2983 H2998 0.961 . S
C2983 H2999 0.961 . S
C2984 C2985 1.370 . S
C2984 C2986 1.363 . S
C2984 H3000 0.931 . S
C2985 C2984 1.370 . S
C2985 C2989 1.408 . S
C2986 C2984 1.363 . S
C2986 C2987 1.370 . S
C2986 C2990 1.524 . S
C2987 C2979 1.503 1_456 S
C2987 C2986 1.370 . S
C2987 C2988 1.403 . S
C2988 C2987 1.403 . S
C2988 C2989 1.404 . S
C2988 C2991 1.539 1_556 S
C2989 C2985 1.408 . S
C2989 C2988 1.404 . S
C2989 H3001 0.930 . S
C2990 C2986 1.524 . S
C2990 H3002 0.956 1_556 S
C2990 H3003 1.026 . S
C2990 H3004 0.961 . S
C2991 C2988 1.539 1_554 S
C2991 H3005 0.959 . S
C2991 H3006 0.960 1_554 S
C2991 H3007 0.959 1_454 S
H2992 C2976 0.931 . S
H2993 C2981 0.929 . S
H2994 C2982 0.954 1_455 S
H2995 C2982 0.958 1_455 S
H2996 C2982 0.964 . S
H2997 C2983 0.961 . S
H2998 C2983 0.961 . S
H2999 C2983 0.961 . S
H3000 C2984 0.931 . S
H3001 C2989 0.930 . S
H3002 C2990 0.956 1_554 S
H3003 C2990 1.026 . S
H3004 C2990 0.961 . S
H3005 C2991 0.959 . S
H3006 C2991 0.960 1_556 S
H3007 C2991 0.959 1_656 S
C3008 C3009 1.391 . S
C3008 C3010 1.394 . S
C3008 H3024 0.931 . S
C3009 C3008 1.391 . S
C3009 C3013 1.376 1_554 S
C3010 C3008 1.394 . S
C3010 C3011 1.369 . S
C3010 C3014 1.531 . S
C3011 C3010 1.369 . S
C3011 C3012 1.410 1_554 S
C3011 C3019 1.503 1_554 S
C3012 C3011 1.410 1_556 S
C3012 C3013 1.392 . S
C3012 C3015 1.511 . S
C3013 C3009 1.376 1_556 S
C3013 C3012 1.392 . S
C3013 H3025 0.929 . S
C3014 C3010 1.531 . S
C3014 H3026 0.960 . S
C3014 H3027 0.962 . S
C3014 H3028 0.960 . S
C3015 C3012 1.511 . S
C3015 H3029 0.961 . S
C3015 H3030 0.961 . S
C3015 H3031 0.961 . S
C3016 C3017 1.370 . S
C3016 C3018 1.355 1_556 S
C3016 H3032 0.932 . S
C3017 C3016 1.370 . S
C3017 C3021 1.408 . S
C3018 C3016 1.355 1_554 S
C3018 C3019 1.362 1_554 S
C3018 C3022 1.543 . S
C3019 C3011 1.503 1_556 S
C3019 C3018 1.362 1_556 S
C3019 C3020 1.403 . S
C3020 C3019 1.403 . S
C3020 C3021 1.404 . S
C3020 C3023 1.539 . S
C3021 C3017 1.408 . S
C3021 C3020 1.404 . S
C3021 H3033 0.930 . S
C3022 C3018 1.543 . S
C3022 H3034 0.956 . S
C3022 H3035 0.961 . S
C3022 H3036 0.961 . S
C3023 C3020 1.539 . S
C3023 H3037 0.958 . S
C3023 H3038 0.961 . S
C3023 H3039 0.960 . S
H3024 C3008 0.931 . S
H3025 C3013 0.929 . S
H3026 C3014 0.960 . S
H3027 C3014 0.962 . S
H3028 C3014 0.960 . S
H3029 C3015 0.961 . S
H3030 C3015 0.961 . S
H3031 C3015 0.961 . S
H3032 C3016 0.932 . S
H3033 C3021 0.930 . S
H3034 C3022 0.956 . S
H3035 C3022 0.961 . S
H3036 C3022 0.961 . S
H3037 C3023 0.958 . S
H3038 C3023 0.961 . S
H3039 C3023 0.960 . S
C3040 C3041 1.391 . S
C3040 C3042 1.394 . S
C3040 H3056 0.931 . S
C3041 C3040 1.391 . S
C3041 C3045 1.376 . S
C3042 C3040 1.394 . S
C3042 C3043 1.369 . S
C3042 C3046 1.531 . S
C3043 C3042 1.369 . S
C3043 C3044 1.410 . S
C3043 C3051 1.503 1_455 S
C3044 C3043 1.410 . S
C3044 C3045 1.392 . S
C3044 C3047 1.511 1_455 S
C3045 C3041 1.376 . S
C3045 C3044 1.392 . S
C3045 H3057 0.929 . S
C3046 C3042 1.531 . S
C3046 H3058 0.960 . S
C3046 H3059 0.962 . S
C3046 H3060 0.960 . S
C3047 C3044 1.511 1_655 S
C3047 H3061 0.961 1_655 S
C3047 H3062 0.961 . S
C3047 H3063 0.961 . S
C3048 C3049 1.370 . S
C3048 C3050 1.363 . S
C3048 H3064 0.931 . S
C3049 C3048 1.370 . S
C3049 C3053 1.408 . S
C3050 C3048 1.363 . S
C3050 C3051 1.370 . S
C3050 C3054 1.524 . S
C3051 C3043 1.503 1_655 S
C3051 C3050 1.370 . S
C3051 C3052 1.403 . S
C3052 C3051 1.403 . S
C3052 C3053 1.404 . S
C3052 C3055 1.539 . S
C3053 C3049 1.408 . S
C3053 C3052 1.404 . S
C3053 H3065 0.930 . S
C3054 C3050 1.524 . S
C3054 H3066 0.956 1_655 S
C3054 H3067 0.947 1_655 S
C3054 H3068 0.961 . S
C3055 C3052 1.539 . S
C3055 H3069 0.958 . S
C3055 H3070 0.961 . S
C3055 H3071 0.960 . S
H3056 C3040 0.931 . S
H3057 C3045 0.929 . S
H3058 C3046 0.960 . S
H3059 C3046 0.962 . S
H3060 C3046 0.960 . S
H3061 C3047 0.961 1_455 S
H3062 C3047 0.961 . S
H3063 C3047 0.961 . S
H3064 C3048 0.931 . S
H3065 C3053 0.930 . S
H3066 C3054 0.956 1_455 S
H3067 C3054 0.947 1_455 S
H3068 C3054 0.961 . S
H3069 C3055 0.958 . S
H3070 C3055 0.961 . S
H3071 C3055 0.960 . S
C3072 C3073 1.391 . S
C3072 C3074 1.394 . S
C3072 H3088 0.931 . S
C3073 C3072 1.391 . S
C3073 C3077 1.376 . S
C3074 C3072 1.394 . S
C3074 C3075 1.369 . S
C3074 C3078 1.531 . S
C3075 C3074 1.369 . S
C3075 C3076 1.410 . S
C3075 C3083 1.503 . S
C3076 C3075 1.410 . S
C3076 C3077 1.392 . S
C3076 C3079 1.511 . S
C3077 C3073 1.376 . S
C3077 C3076 1.392 . S
C3077 H3089 0.929 . S
C3078 C3074 1.531 . S
C3078 H3090 0.960 . S
C3078 H3091 0.962 . S
C3078 H3092 0.960 . S
C3079 C3076 1.511 . S
C3079 H3093 0.961 . S
C3079 H3094 0.961 . S
C3079 H3095 0.961 . S
C3080 C3081 1.370 . S
C3080 C3082 1.363 . S
C3080 H3096 0.931 . S
C3081 C3080 1.370 . S
C3081 C3085 1.408 . S
C3082 C3080 1.363 . S
C3082 C3083 1.370 . S
C3082 C3086 1.524 . S
C3083 C3075 1.503 . S
C3083 C3082 1.370 . S
C3083 C3084 1.403 . S
C3084 C3083 1.403 . S
C3084 C3085 1.404 . S
C3084 C3087 1.539 . S
C3085 C3081 1.408 . S
C3085 C3084 1.404 . S
C3085 H3097 0.930 . S
C3086 C3082 1.524 . S
C3086 H3098 0.956 . S
C3086 H3099 0.961 . S
C3086 H3100 0.961 . S
C3087 C3084 1.539 . S
C3087 H3101 0.958 . S
C3087 H3102 0.961 . S
C3087 H3103 0.960 . S
H3088 C3072 0.931 . S
H3089 C3077 0.929 . S
H3090 C3078 0.960 . S
H3091 C3078 0.962 . S
H3092 C3078 0.960 . S
H3093 C3079 0.961 . S
H3094 C3079 0.961 . S
H3095 C3079 0.961 . S
H3096 C3080 0.931 . S
H3097 C3085 0.930 . S
H3098 C3086 0.956 . S
H3099 C3086 0.961 . S
H3100 C3086 0.961 . S
H3101 C3087 0.958 . S
H3102 C3087 0.961 . S
H3103 C3087 0.960 . S
C3104 C3105 1.391 1_556 S
C3104 C3106 1.394 . S
C3104 H3120 0.931 . S
C3105 C3104 1.391 1_554 S
C3105 C3109 1.376 . S
C3106 C3104 1.394 . S
C3106 C3107 1.369 1_556 S
C3106 C3110 1.531 . S
C3107 C3106 1.369 1_554 S
C3107 C3108 1.410 . S
C3107 C3115 1.503 1_554 S
C3108 C3107 1.410 . S
C3108 C3109 1.392 . S
C3108 C3111 1.511 . S
C3109 C3105 1.376 . S
C3109 C3108 1.392 . S
C3109 H3121 0.929 . S
C3110 C3106 1.531 . S
C3110 H3122 0.960 . S
C3110 H3123 0.962 . S
C3110 H3124 0.960 . S
C3111 C3108 1.511 . S
C3111 H3125 0.961 . S
C3111 H3126 0.961 . S
C3111 H3127 0.961 . S
C3112 C3113 1.370 . S
C3112 C3114 1.363 . S
C3112 H3128 0.931 . S
C3113 C3112 1.370 . S
C3113 C3117 1.408 . S
C3114 C3112 1.363 . S
C3114 C3115 1.370 . S
C3114 C3118 1.524 . S
C3115 C3107 1.503 1_556 S
C3115 C3114 1.370 . S
C3115 C3116 1.403 . S
C3116 C3115 1.403 . S
C3116 C3117 1.404 . S
C3116 C3119 1.539 1_556 S
C3117 C3113 1.408 . S
C3117 C3116 1.404 . S
C3117 H3129 0.930 . S
C3118 C3114 1.524 . S
C3118 H3130 0.956 . S
C3118 H3131 0.961 1_556 S
C3118 H3132 0.961 . S
C3119 C3116 1.539 1_554 S
C3119 H3133 0.958 1_554 S
C3119 H3134 0.961 . S
C3119 H3135 0.960 . S
H3120 C3104 0.931 . S
H3121 C3109 0.929 . S
H3122 C3110 0.960 . S
H3123 C3110 0.962 . S
H3124 C3110 0.960 . S
H3125 C3111 0.961 . S
H3126 C3111 0.961 . S
H3127 C3111 0.961 . S
H3128 C3112 0.931 . S
H3129 C3117 0.930 . S
H3130 C3118 0.956 . S
H3131 C3118 0.961 1_554 S
H3132 C3118 0.961 . S
H3133 C3119 0.958 1_556 S
H3134 C3119 0.961 . S
H3135 C3119 0.960 . S
C3136 C3137 1.391 . S
C3136 C3138 1.394 . S
C3136 H3152 0.931 . S
C3137 C3136 1.391 . S
C3137 C3141 1.376 . S
C3138 C3136 1.394 . S
C3138 C3139 1.369 . S
C3138 C3142 1.536 . S
C3139 C3138 1.369 . S
C3139 C3140 1.410 . S
C3139 C3147 1.503 1_655 S
C3140 C3139 1.410 . S
C3140 C3141 1.392 . S
C3140 C3143 1.511 . S
C3141 C3137 1.376 . S
C3141 C3140 1.392 . S
C3141 H3153 0.929 . S
C3142 C3138 1.536 . S
C3142 H3154 0.954 1_655 S
C3142 H3155 0.958 1_655 S
C3142 H3156 0.964 . S
C3143 C3140 1.511 . S
C3143 H3157 0.961 . S
C3143 H3158 0.961 . S
C3143 H3159 0.961 . S
C3144 C3145 1.370 . S
C3144 C3146 1.363 . S
C3144 H3160 0.931 . S
C3145 C3144 1.370 . S
C3145 C3149 1.408 . S
C3146 C3144 1.363 . S
C3146 C3147 1.370 . S
C3146 C3150 1.524 . S
C3147 C3139 1.503 1_455 S
C3147 C3146 1.370 . S
C3147 C3148 1.403 . S
C3148 C3147 1.403 . S
C3148 C3149 1.404 . S
C3148 C3151 1.539 . S
C3149 C3145 1.408 . S
C3149 C3148 1.404 . S
C3149 H3161 0.930 . S
C3150 C3146 1.524 . S
C3150 H3162 0.956 . S
C3150 H3163 1.026 . S
C3150 H3164 0.961 . S
C3151 C3148 1.539 . S
C3151 H3165 0.958 . S
C3151 H3166 0.961 . S
C3151 H3167 0.960 1_455 S
H3152 C3136 0.931 . S
H3153 C3141 0.929 . S
H3154 C3142 0.954 1_455 S
H3155 C3142 0.958 1_455 S
H3156 C3142 0.964 . S
H3157 C3143 0.961 . S
H3158 C3143 0.961 . S
H3159 C3143 0.961 . S
H3160 C3144 0.931 . S
H3161 C3149 0.930 . S
H3162 C3150 0.956 . S
H3163 C3150 1.026 . S
H3164 C3150 0.961 . S
H3165 C3151 0.958 . S
H3166 C3151 0.961 . S
H3167 C3151 0.960 1_655 S
C3168 C3169 1.391 . S
C3168 C3170 1.394 . S
C3168 H3184 0.931 . S
C3169 C3168 1.391 . S
C3169 C3173 1.376 . S
C3170 C3168 1.394 . S
C3170 C3171 1.369 . S
C3170 C3174 1.531 . S
C3171 C3170 1.369 . S
C3171 C3172 1.410 . S
C3171 C3179 1.503 . S
C3172 C3171 1.410 . S
C3172 C3173 1.392 . S
C3172 C3175 1.511 . S
C3173 C3169 1.376 . S
C3173 C3172 1.392 . S
C3173 H3185 0.929 . S
C3174 C3170 1.531 . S
C3174 H3186 0.960 . S
C3174 H3187 0.962 . S
C3174 H3188 0.960 . S
C3175 C3172 1.511 . S
C3175 H3189 0.961 . S
C3175 H3190 0.961 . S
C3175 H3191 0.961 . S
C3176 C3177 1.370 . S
C3176 C3178 1.363 . S
C3176 H3192 0.931 . S
C3177 C3176 1.370 . S
C3177 C3181 1.408 . S
C3178 C3176 1.363 . S
C3178 C3179 1.370 . S
C3178 C3182 1.524 . S
C3179 C3171 1.503 . S
C3179 C3178 1.370 . S
C3179 C3180 1.403 . S
C3180 C3179 1.403 . S
C3180 C3181 1.404 . S
C3180 C3183 1.539 . S
C3181 C3177 1.408 . S
C3181 C3180 1.404 . S
C3181 H3193 0.930 . S
C3182 C3178 1.524 . S
C3182 H3194 0.956 . S
C3182 H3195 0.961 . S
C3182 H3196 0.961 . S
C3183 C3180 1.539 . S
C3183 H3197 0.958 . S
C3183 H3198 0.961 . S
C3183 H3199 0.960 . S
H3184 C3168 0.931 . S
H3185 C3173 0.929 . S
H3186 C3174 0.960 . S
H3187 C3174 0.962 . S
H3188 C3174 0.960 . S
H3189 C3175 0.961 . S
H3190 C3175 0.961 . S
H3191 C3175 0.961 . S
H3192 C3176 0.931 . S
H3193 C3181 0.930 . S
H3194 C3182 0.956 . S
H3195 C3182 0.961 . S
H3196 C3182 0.961 . S
H3197 C3183 0.958 . S
H3198 C3183 0.961 . S
H3199 C3183 0.960 . S
C3200 C3201 1.392 . S
C3200 C3202 1.393 1_545 S
C3200 H3216 0.930 1_545 S
C3201 C3200 1.392 . S
C3201 C3205 1.376 . S
C3202 C3200 1.393 1_565 S
C3202 C3203 1.369 . S
C3202 C3206 1.531 . S
C3203 C3202 1.369 . S
C3203 C3204 1.410 1_565 S
C3203 C3211 1.503 1_655 S
C3204 C3203 1.410 1_545 S
C3204 C3205 1.392 . S
C3204 C3207 1.511 . S
C3205 C3201 1.376 . S
C3205 C3204 1.392 . S
C3205 H3217 0.929 . S
C3206 C3202 1.531 . S
C3206 H3218 0.960 1_655 S
C3206 H3219 0.962 1_655 S
C3206 H3220 0.960 . S
C3207 C3204 1.511 . S
C3207 H3221 0.961 . S
C3207 H3222 0.961 . S
C3207 H3223 0.961 1_545 S
C3208 C3209 1.370 1_545 S
C3208 C3210 1.363 . S
C3208 H3224 0.931 . S
C3209 C3208 1.370 1_565 S
C3209 C3213 1.408 . S
C3210 C3208 1.363 . S
C3210 C3211 1.370 1_545 S
C3210 C3214 1.524 . S
C3211 C3203 1.503 1_455 S
C3211 C3210 1.370 1_565 S
C3211 C3212 1.403 . S
C3212 C3211 1.403 . S
C3212 C3213 1.404 . S
C3212 C3215 1.539 . S
C3213 C3209 1.408 . S
C3213 C3212 1.404 . S
C3213 H3225 0.930 . S
C3214 C3210 1.524 . S
C3214 H3226 0.956 . S
C3214 H3227 0.961 . S
C3214 H3228 0.961 . S
C3215 C3212 1.539 . S
C3215 H3229 0.965 . S
C3215 H3230 0.961 . S
C3215 H3231 0.960 1_455 S
H3216 C3200 0.930 1_565 S
H3217 C3205 0.929 . S
H3218 C3206 0.960 1_455 S
H3219 C3206 0.962 1_455 S
H3220 C3206 0.960 . S
H3221 C3207 0.961 . S
H3222 C3207 0.961 . S
H3223 C3207 0.961 1_565 S
H3224 C3208 0.931 . S
H3225 C3213 0.930 . S
H3226 C3214 0.956 . S
H3227 C3214 0.961 . S
H3228 C3214 0.961 . S
H3229 C3215 0.965 . S
H3230 C3215 0.961 . S
H3231 C3215 0.960 1_655 S
C3232 C3233 1.391 . S
C3232 C3234 1.394 . S
C3232 H3248 0.931 . S
C3233 C3232 1.391 . S
C3233 C3237 1.376 . S
C3234 C3232 1.394 . S
C3234 C3235 1.369 . S
C3234 C3238 1.531 . S
C3235 C3234 1.369 . S
C3235 C3236 1.410 . S
C3235 C3243 1.503 . S
C3236 C3235 1.410 . S
C3236 C3237 1.392 . S
C3236 C3239 1.511 . S
C3237 C3233 1.376 . S
C3237 C3236 1.392 . S
C3237 H3249 0.929 . S
C3238 C3234 1.531 . S
C3238 H3250 0.960 . S
C3238 H3251 0.962 . S
C3238 H3252 0.960 . S
C3239 C3236 1.511 . S
C3239 H3253 0.961 . S
C3239 H3254 0.961 . S
C3239 H3255 0.961 . S
C3240 C3241 1.370 . S
C3240 C3242 1.363 . S
C3240 H3256 0.931 . S
C3241 C3240 1.370 . S
C3241 C3245 1.408 . S
C3242 C3240 1.363 . S
C3242 C3243 1.370 . S
C3242 C3246 1.524 . S
C3243 C3235 1.503 . S
C3243 C3242 1.370 . S
C3243 C3244 1.403 . S
C3244 C3243 1.403 . S
C3244 C3245 1.404 . S
C3244 C3247 1.539 . S
C3245 C3241 1.408 . S
C3245 C3244 1.404 . S
C3245 H3257 0.930 . S
C3246 C3242 1.524 . S
C3246 H3258 0.956 . S
C3246 H3259 0.961 . S
C3246 H3260 0.961 . S
C3247 C3244 1.539 . S
C3247 H3261 0.958 . S
C3247 H3262 0.961 . S
C3247 H3263 0.960 . S
H3248 C3232 0.931 . S
H3249 C3237 0.929 . S
H3250 C3238 0.960 . S
H3251 C3238 0.962 . S
H3252 C3238 0.960 . S
H3253 C3239 0.961 . S
H3254 C3239 0.961 . S
H3255 C3239 0.961 . S
H3256 C3240 0.931 . S
H3257 C3245 0.930 . S
H3258 C3246 0.956 . S
H3259 C3246 0.961 . S
H3260 C3246 0.961 . S
H3261 C3247 0.958 . S
H3262 C3247 0.961 . S
H3263 C3247 0.960 . S
C3264 C3265 1.391 . S
C3264 C3266 1.394 1_545 S
C3264 H3280 0.931 1_545 S
C3265 C3264 1.391 . S
C3265 C3269 1.376 . S
C3266 C3264 1.394 1_565 S
C3266 C3267 1.369 1_565 S
C3266 C3270 1.531 . S
C3267 C3266 1.369 1_545 S
C3267 C3268 1.410 . S
C3267 C3275 1.503 . S
C3268 C3267 1.410 . S
C3268 C3269 1.392 . S
C3268 C3271 1.511 . S
C3269 C3265 1.376 . S
C3269 C3268 1.392 . S
C3269 H3281 0.929 . S
C3270 C3266 1.531 . S
C3270 H3282 0.960 . S
C3270 H3283 0.962 . S
C3270 H3284 0.960 . S
C3271 C3268 1.511 . S
C3271 H3285 0.961 . S
C3271 H3286 0.961 . S
C3271 H3287 0.961 . S
C3272 C3273 1.370 . S
C3272 C3274 1.363 . S
C3272 H3288 0.931 . S
C3273 C3272 1.370 . S
C3273 C3277 1.408 1_565 S
C3274 C3272 1.363 . S
C3274 C3275 1.370 1_565 S
C3274 C3278 1.524 . S
C3275 C3267 1.503 . S
C3275 C3274 1.370 1_545 S
C3275 C3276 1.403 . S
C3276 C3275 1.403 . S
C3276 C3277 1.404 . S
C3276 C3279 1.539 . S
C3277 C3273 1.408 1_545 S
C3277 C3276 1.404 . S
C3277 H3289 0.930 . S
C3278 C3274 1.524 . S
C3278 H3290 0.956 . S
C3278 H3291 0.961 . S
C3278 H3292 0.961 . S
C3279 C3276 1.539 . S
C3279 H3293 0.958 . S
C3279 H3294 0.961 . S
C3279 H3295 0.960 . S
H3280 C3264 0.931 1_565 S
H3281 C3269 0.929 . S
H3282 C3270 0.960 . S
H3283 C3270 0.962 . S
H3284 C3270 0.960 . S
H3285 C3271 0.961 . S
H3286 C3271 0.961 . S
H3287 C3271 0.961 . S
H3288 C3272 0.931 . S
H3289 C3277 0.930 . S
H3290 C3278 0.956 . S
H3291 C3278 0.961 . S
H3292 C3278 0.961 . S
H3293 C3279 0.958 . S
H3294 C3279 0.961 . S
H3295 C3279 0.960 . S
C3296 C3297 1.391 . S
C3296 C3298 1.394 . S
C3296 H3312 0.931 . S
C3297 C3296 1.391 . S
C3297 C3301 1.376 . S
C3298 C3296 1.394 . S
C3298 C3299 1.369 . S
C3298 C3302 1.531 . S
C3299 C3298 1.369 . S
C3299 C3300 1.410 . S
C3299 C3307 1.503 . S
C3300 C3299 1.410 . S
C3300 C3301 1.392 . S
C3300 C3303 1.511 . S
C3301 C3297 1.376 . S
C3301 C3300 1.392 . S
C3301 H3313 0.929 . S
C3302 C3298 1.531 . S
C3302 H3314 0.960 . S
C3302 H3315 0.962 . S
C3302 H3316 0.960 . S
C3303 C3300 1.511 . S
C3303 H3317 0.961 . S
C3303 H3318 0.961 . S
C3303 H3319 0.961 . S
C3304 C3305 1.370 . S
C3304 C3306 1.363 . S
C3304 H3320 0.931 . S
C3305 C3304 1.370 . S
C3305 C3309 1.408 . S
C3306 C3304 1.363 . S
C3306 C3307 1.370 . S
C3306 C3310 1.524 . S
C3307 C3299 1.503 . S
C3307 C3306 1.370 . S
C3307 C3308 1.403 . S
C3308 C3307 1.403 . S
C3308 C3309 1.404 . S
C3308 C3311 1.539 . S
C3309 C3305 1.408 . S
C3309 C3308 1.404 . S
C3309 H3321 0.930 . S
C3310 C3306 1.524 . S
C3310 H3322 0.956 . S
C3310 H3323 0.961 . S
C3310 H3324 0.961 . S
C3311 C3308 1.539 . S
C3311 H3325 0.958 . S
C3311 H3326 0.961 . S
C3311 H3327 0.960 . S
H3312 C3296 0.931 . S
H3313 C3301 0.929 . S
H3314 C3302 0.960 . S
H3315 C3302 0.962 . S
H3316 C3302 0.960 . S
H3317 C3303 0.961 . S
H3318 C3303 0.961 . S
H3319 C3303 0.961 . S
H3320 C3304 0.931 . S
H3321 C3309 0.930 . S
H3322 C3310 0.956 . S
H3323 C3310 0.961 . S
H3324 C3310 0.961 . S
H3325 C3311 0.958 . S
H3326 C3311 0.961 . S
H3327 C3311 0.960 . S
C3328 C3329 1.391 . S
C3328 C3330 1.394 . S
C3328 H3344 0.931 . S
C3329 C3328 1.391 . S
C3329 C3333 1.376 1_565 S
C3330 C3328 1.394 . S
C3330 C3331 1.369 . S
C3330 C3334 1.531 . S
C3331 C3330 1.369 . S
C3331 C3332 1.410 1_565 S
C3331 C3339 1.503 1_565 S
C3332 C3331 1.410 1_545 S
C3332 C3333 1.392 . S
C3332 C3335 1.511 . S
C3333 C3329 1.376 1_545 S
C3333 C3332 1.392 . S
C3333 H3345 0.929 . S
C3334 C3330 1.531 . S
C3334 H3346 0.960 . S
C3334 H3347 0.962 . S
C3334 H3348 0.960 . S
C3335 C3332 1.511 . S
C3335 H3349 0.961 . S
C3335 H3350 0.961 . S
C3335 H3351 0.961 . S
C3336 C3337 1.370 . S
C3336 C3338 1.365 . S
C3336 H3352 0.931 . S
C3337 C3336 1.370 . S
C3337 C3341 1.408 . S
C3338 C3336 1.365 . S
C3338 C3339 1.372 . S
C3338 C3342 1.520 1_545 S
C3339 C3331 1.503 1_545 S
C3339 C3338 1.372 . S
C3339 C3340 1.403 . S
C3340 C3339 1.403 . S
C3340 C3341 1.404 . S
C3340 C3343 1.539 . S
C3341 C3337 1.408 . S
C3341 C3340 1.404 . S
C3341 H3353 0.930 . S
C3342 C3338 1.520 1_565 S
C3342 H3354 0.956 . S
C3342 H3355 0.961 1_565 S
C3342 H3356 0.961 . S
C3343 C3340 1.539 . S
C3343 H3357 0.958 . S
C3343 H3358 0.961 . S
C3343 H3359 0.960 . S
H3344 C3328 0.931 . S
H3345 C3333 0.929 . S
H3346 C3334 0.960 . S
H3347 C3334 0.962 . S
H3348 C3334 0.960 . S
H3349 C3335 0.961 . S
H3350 C3335 0.961 . S
H3351 C3335 0.961 . S
H3352 C3336 0.931 . S
H3353 C3341 0.930 . S
H3354 C3342 0.956 . S
H3355 C3342 0.961 1_545 S
H3356 C3342 0.961 . S
H3357 C3343 0.958 . S
H3358 C3343 0.961 . S
H3359 C3343 0.960 . S
C3360 C3361 1.391 . S
C3360 C3362 1.394 . S
C3360 H3376 0.931 . S
C3361 C3360 1.391 . S
C3361 C3365 1.376 . S
C3362 C3360 1.394 . S
C3362 C3363 1.369 . S
C3362 C3366 1.531 . S
C3363 C3362 1.369 . S
C3363 C3364 1.410 . S
C3363 C3371 1.503 . S
C3364 C3363 1.410 . S
C3364 C3365 1.392 . S
C3364 C3367 1.511 . S
C3365 C3361 1.376 . S
C3365 C3364 1.392 . S
C3365 H3377 0.929 . S
C3366 C3362 1.531 . S
C3366 H3378 0.960 . S
C3366 H3379 0.962 . S
C3366 H3380 0.960 . S
C3367 C3364 1.511 . S
C3367 H3381 0.961 . S
C3367 H3382 0.961 . S
C3367 H3383 0.961 . S
C3368 C3369 1.370 . S
C3368 C3370 1.363 . S
C3368 H3384 0.931 . S
C3369 C3368 1.370 . S
C3369 C3373 1.408 . S
C3370 C3368 1.363 . S
C3370 C3371 1.370 . S
C3370 C3374 1.524 . S
C3371 C3363 1.503 . S
C3371 C3370 1.370 . S
C3371 C3372 1.403 . S
C3372 C3371 1.403 . S
C3372 C3373 1.404 . S
C3372 C3375 1.539 . S
C3373 C3369 1.408 . S
C3373 C3372 1.404 . S
C3373 H3385 0.930 . S
C3374 C3370 1.524 . S
C3374 H3386 0.956 . S
C3374 H3387 0.961 . S
C3374 H3388 0.961 . S
C3375 C3372 1.539 . S
C3375 H3389 0.958 . S
C3375 H3390 0.961 . S
C3375 H3391 0.960 . S
H3376 C3360 0.931 . S
H3377 C3365 0.929 . S
H3378 C3366 0.960 . S
H3379 C3366 0.962 . S
H3380 C3366 0.960 . S
H3381 C3367 0.961 . S
H3382 C3367 0.961 . S
H3383 C3367 0.961 . S
H3384 C3368 0.931 . S
H3385 C3373 0.930 . S
H3386 C3374 0.956 . S
H3387 C3374 0.961 . S
H3388 C3374 0.961 . S
H3389 C3375 0.958 . S
H3390 C3375 0.961 . S
H3391 C3375 0.960 . S
C3392 C3393 1.391 . S
C3392 C3394 1.394 . S
C3392 H3408 0.931 . S
C3393 C3392 1.391 . S
C3393 C3397 1.376 . S
C3394 C3392 1.394 . S
C3394 C3395 1.369 . S
C3394 C3398 1.531 . S
C3395 C3394 1.369 . S
C3395 C3396 1.410 . S
C3395 C3403 1.503 . S
C3396 C3395 1.410 . S
C3396 C3397 1.392 . S
C3396 C3399 1.511 . S
C3397 C3393 1.376 . S
C3397 C3396 1.392 . S
C3397 H3409 0.929 . S
C3398 C3394 1.531 . S
C3398 H3410 0.960 . S
C3398 H3411 0.962 . S
C3398 H3412 0.960 . S
C3399 C3396 1.511 . S
C3399 H3413 0.961 . S
C3399 H3414 0.961 . S
C3399 H3415 0.961 . S
C3400 C3401 1.370 . S
C3400 C3402 1.363 . S
C3400 H3416 0.931 . S
C3401 C3400 1.370 . S
C3401 C3405 1.408 . S
C3402 C3400 1.363 . S
C3402 C3403 1.370 . S
C3402 C3406 1.524 . S
C3403 C3395 1.503 . S
C3403 C3402 1.370 . S
C3403 C3404 1.403 . S
C3404 C3403 1.403 . S
C3404 C3405 1.404 . S
C3404 C3407 1.539 . S
C3405 C3401 1.408 . S
C3405 C3404 1.404 . S
C3405 H3417 0.930 . S
C3406 C3402 1.524 . S
C3406 H3418 0.956 . S
C3406 H3419 0.961 . S
C3406 H3420 0.961 . S
C3407 C3404 1.539 . S
C3407 H3421 0.958 . S
C3407 H3422 0.961 . S
C3407 H3423 0.960 . S
H3408 C3392 0.931 . S
H3409 C3397 0.929 . S
H3410 C3398 0.960 . S
H3411 C3398 0.962 . S
H3412 C3398 0.960 . S
H3413 C3399 0.961 . S
H3414 C3399 0.961 . S
H3415 C3399 0.961 . S
H3416 C3400 0.931 . S
H3417 C3405 0.930 . S
H3418 C3406 0.956 . S
H3419 C3406 0.961 . S
H3420 C3406 0.961 . S
H3421 C3407 0.958 . S
H3422 C3407 0.961 . S
H3423 C3407 0.960 . S
C3424 C3425 1.391 . S
C3424 C3426 1.394 . S
C3424 H3440 0.931 . S
C3425 C3424 1.391 . S
C3425 C3429 1.376 . S
C3426 C3424 1.394 . S
C3426 C3427 1.369 . S
C3426 C3430 1.531 . S
C3427 C3426 1.369 . S
C3427 C3428 1.410 . S
C3427 C3435 1.503 . S
C3428 C3427 1.410 . S
C3428 C3429 1.392 . S
C3428 C3431 1.511 . S
C3429 C3425 1.376 . S
C3429 C3428 1.392 . S
C3429 H3441 0.929 . S
C3430 C3426 1.531 . S
C3430 H3442 0.960 . S
C3430 H3443 0.962 . S
C3430 H3444 0.960 . S
C3431 C3428 1.511 . S
C3431 H3445 0.961 . S
C3431 H3446 0.961 . S
C3431 H3447 0.961 . S
C3432 C3433 1.370 . S
C3432 C3434 1.363 . S
C3432 H3448 0.931 . S
C3433 C3432 1.370 . S
C3433 C3437 1.408 . S
C3434 C3432 1.363 . S
C3434 C3435 1.370 . S
C3434 C3438 1.524 . S
C3435 C3427 1.503 . S
C3435 C3434 1.370 . S
C3435 C3436 1.403 . S
C3436 C3435 1.403 . S
C3436 C3437 1.404 . S
C3436 C3439 1.539 . S
C3437 C3433 1.408 . S
C3437 C3436 1.404 . S
C3437 H3449 0.930 . S
C3438 C3434 1.524 . S
C3438 H3450 0.956 . S
C3438 H3451 0.961 . S
C3438 H3452 0.961 . S
C3439 C3436 1.539 . S
C3439 H3453 0.958 . S
C3439 H3454 0.961 . S
C3439 H3455 0.960 . S
H3440 C3424 0.931 . S
H3441 C3429 0.929 . S
H3442 C3430 0.960 . S
H3443 C3430 0.962 . S
H3444 C3430 0.960 . S
H3445 C3431 0.961 . S
H3446 C3431 0.961 . S
H3447 C3431 0.961 . S
H3448 C3432 0.931 . S
H3449 C3437 0.930 . S
H3450 C3438 0.956 . S
H3451 C3438 0.961 . S
H3452 C3438 0.961 . S
H3453 C3439 0.958 . S
H3454 C3439 0.961 . S
H3455 C3439 0.960 . S
C3456 C3457 1.391 . S
C3456 C3458 1.394 . S
C3456 H3472 0.931 . S
C3457 C3456 1.391 . S
C3457 C3461 1.376 1_544 S
C3458 C3456 1.394 . S
C3458 C3459 1.369 1_545 S
C3458 C3462 1.531 . S
C3459 C3458 1.369 1_565 S
C3459 C3460 1.410 1_554 S
C3459 C3467 1.503 1_554 S
C3460 C3459 1.410 1_556 S
C3460 C3461 1.392 . S
C3460 C3463 1.511 . S
C3461 C3457 1.376 1_566 S
C3461 C3460 1.392 . S
C3461 H3473 0.929 . S
C3462 C3458 1.531 . S
C3462 H3474 0.960 . S
C3462 H3475 0.962 . S
C3462 H3476 0.960 . S
C3463 C3460 1.511 . S
C3463 H3477 0.961 . S
C3463 H3478 0.961 . S
C3463 H3479 0.961 . S
C3464 C3465 1.370 1_545 S
C3464 C3466 1.363 . S
C3464 H3480 0.931 . S
C3465 C3464 1.370 1_565 S
C3465 C3469 1.408 . S
C3466 C3464 1.363 . S
C3466 C3467 1.370 1_545 S
C3466 C3470 1.524 . S
C3467 C3459 1.503 1_556 S
C3467 C3466 1.370 1_565 S
C3467 C3468 1.403 1_556 S
C3468 C3467 1.403 1_554 S
C3468 C3469 1.404 1_554 S
C3468 C3471 1.539 . S
C3469 C3465 1.408 . S
C3469 C3468 1.404 1_556 S
C3469 H3481 0.930 1_556 S
C3470 C3466 1.524 . S
C3470 H3482 0.956 . S
C3470 H3483 0.961 . S
C3470 H3484 0.961 . S
C3471 C3468 1.539 . S
C3471 H3485 0.958 . S
C3471 H3486 0.961 . S
C3471 H3487 0.960 . S
H3472 C3456 0.931 . S
H3473 C3461 0.929 . S
H3474 C3462 0.960 . S
H3475 C3462 0.962 . S
H3476 C3462 0.960 . S
H3477 C3463 0.961 . S
H3478 C3463 0.961 . S
H3479 C3463 0.961 . S
H3480 C3464 0.931 . S
H3481 C3469 0.930 1_554 S
H3482 C3470 0.956 . S
H3483 C3470 0.961 . S
H3484 C3470 0.961 . S
H3485 C3471 0.958 . S
H3486 C3471 0.961 . S
H3487 C3471 0.960 . S
C3488 C3489 1.391 . S
C3488 C3490 1.394 . S
C3488 H3504 0.931 . S
C3489 C3488 1.391 . S
C3489 C3493 1.376 . S
C3490 C3488 1.394 . S
C3490 C3491 1.369 . S
C3490 C3494 1.531 . S
C3491 C3490 1.369 . S
C3491 C3492 1.410 . S
C3491 C3499 1.503 . S
C3492 C3491 1.410 . S
C3492 C3493 1.392 . S
C3492 C3495 1.511 . S
C3493 C3489 1.376 . S
C3493 C3492 1.392 . S
C3493 H3505 0.929 . S
C3494 C3490 1.531 . S
C3494 H3506 0.960 . S
C3494 H3507 0.962 . S
C3494 H3508 0.960 . S
C3495 C3492 1.511 . S
C3495 H3509 0.961 . S
C3495 H3510 0.961 . S
C3495 H3511 0.961 . S
C3496 C3497 1.370 . S
C3496 C3498 1.363 . S
C3496 H3512 0.931 . S
C3497 C3496 1.370 . S
C3497 C3501 1.408 . S
C3498 C3496 1.363 . S
C3498 C3499 1.370 . S
C3498 C3502 1.524 . S
C3499 C3491 1.503 . S
C3499 C3498 1.370 . S
C3499 C3500 1.403 . S
C3500 C3499 1.403 . S
C3500 C3501 1.404 . S
C3500 C3503 1.539 . S
C3501 C3497 1.408 . S
C3501 C3500 1.404 . S
C3501 H3513 0.930 . S
C3502 C3498 1.524 . S
C3502 H3514 0.956 . S
C3502 H3515 0.961 . S
C3502 H3516 0.961 . S
C3503 C3500 1.539 . S
C3503 H3517 0.958 . S
C3503 H3518 0.961 . S
C3503 H3519 0.960 . S
H3504 C3488 0.931 . S
H3505 C3493 0.929 . S
H3506 C3494 0.960 . S
H3507 C3494 0.962 . S
H3508 C3494 0.960 . S
H3509 C3495 0.961 . S
H3510 C3495 0.961 . S
H3511 C3495 0.961 . S
H3512 C3496 0.931 . S
H3513 C3501 0.930 . S
H3514 C3502 0.956 . S
H3515 C3502 0.961 . S
H3516 C3502 0.961 . S
H3517 C3503 0.958 . S
H3518 C3503 0.961 . S
H3519 C3503 0.960 . S
C3520 C3521 1.391 . S
C3520 C3522 1.394 . S
C3520 H3536 0.931 . S
C3521 C3520 1.391 . S
C3521 C3525 1.376 . S
C3522 C3520 1.394 . S
C3522 C3523 1.369 . S
C3522 C3526 1.531 . S
C3523 C3522 1.369 . S
C3523 C3524 1.410 . S
C3523 C3531 1.503 . S
C3524 C3523 1.410 . S
C3524 C3525 1.392 . S
C3524 C3527 1.511 . S
C3525 C3521 1.376 . S
C3525 C3524 1.392 . S
C3525 H3537 0.929 . S
C3526 C3522 1.531 . S
C3526 H3538 0.960 . S
C3526 H3539 0.962 . S
C3526 H3540 0.960 . S
C3527 C3524 1.511 . S
C3527 H3541 0.961 . S
C3527 H3542 0.961 . S
C3527 H3543 0.961 . S
C3528 C3529 1.370 . S
C3528 C3530 1.363 . S
C3528 H3544 0.931 . S
C3529 C3528 1.370 . S
C3529 C3533 1.408 . S
C3530 C3528 1.363 . S
C3530 C3531 1.370 . S
C3530 C3534 1.524 . S
C3531 C3523 1.503 . S
C3531 C3530 1.370 . S
C3531 C3532 1.403 . S
C3532 C3531 1.403 . S
C3532 C3533 1.404 . S
C3532 C3535 1.539 . S
C3533 C3529 1.408 . S
C3533 C3532 1.404 . S
C3533 H3545 0.930 . S
C3534 C3530 1.524 . S
C3534 H3546 0.956 . S
C3534 H3547 0.961 . S
C3534 H3548 0.961 . S
C3535 C3532 1.539 . S
C3535 H3549 0.958 . S
C3535 H3550 0.961 . S
C3535 H3551 0.960 . S
H3536 C3520 0.931 . S
H3537 C3525 0.929 . S
H3538 C3526 0.960 . S
H3539 C3526 0.962 . S
H3540 C3526 0.960 . S
H3541 C3527 0.961 . S
H3542 C3527 0.961 . S
H3543 C3527 0.961 . S
H3544 C3528 0.931 . S
H3545 C3533 0.930 . S
H3546 C3534 0.956 . S
H3547 C3534 0.961 . S
H3548 C3534 0.961 . S
H3549 C3535 0.958 . S
H3550 C3535 0.961 . S
H3551 C3535 0.960 . S
C3552 C3553 1.391 . S
C3552 C3554 1.394 . S
C3552 H3568 0.931 . S
C3553 C3552 1.391 . S
C3553 C3557 1.376 . S
C3554 C3552 1.394 . S
C3554 C3555 1.369 . S
C3554 C3558 1.531 . S
C3555 C3554 1.369 . S
C3555 C3556 1.410 . S
C3555 C3563 1.503 . S
C3556 C3555 1.410 . S
C3556 C3557 1.392 . S
C3556 C3559 1.511 . S
C3557 C3553 1.376 . S
C3557 C3556 1.392 . S
C3557 H3569 0.929 . S
C3558 C3554 1.531 . S
C3558 H3570 0.960 . S
C3558 H3571 0.962 . S
C3558 H3572 0.960 . S
C3559 C3556 1.511 . S
C3559 H3573 0.961 . S
C3559 H3574 0.961 . S
C3559 H3575 0.961 . S
C3560 C3561 1.370 . S
C3560 C3562 1.363 . S
C3560 H3576 0.931 . S
C3561 C3560 1.370 . S
C3561 C3565 1.408 . S
C3562 C3560 1.363 . S
C3562 C3563 1.370 . S
C3562 C3566 1.524 . S
C3563 C3555 1.503 . S
C3563 C3562 1.370 . S
C3563 C3564 1.403 . S
C3564 C3563 1.403 . S
C3564 C3565 1.404 . S
C3564 C3567 1.539 . S
C3565 C3561 1.408 . S
C3565 C3564 1.404 . S
C3565 H3577 0.930 . S
C3566 C3562 1.524 . S
C3566 H3578 0.956 . S
C3566 H3579 0.961 . S
C3566 H3580 0.961 . S
C3567 C3564 1.539 . S
C3567 H3581 0.958 . S
C3567 H3582 0.961 . S
C3567 H3583 0.960 . S
H3568 C3552 0.931 . S
H3569 C3557 0.929 . S
H3570 C3558 0.960 . S
H3571 C3558 0.962 . S
H3572 C3558 0.960 . S
H3573 C3559 0.961 . S
H3574 C3559 0.961 . S
H3575 C3559 0.961 . S
H3576 C3560 0.931 . S
H3577 C3565 0.930 . S
H3578 C3566 0.956 . S
H3579 C3566 0.961 . S
H3580 C3566 0.961 . S
H3581 C3567 0.958 . S
H3582 C3567 0.961 . S
H3583 C3567 0.960 . S
C3584 C3585 1.391 . S
C3584 C3586 1.394 . S
C3584 H3600 0.931 . S
C3585 C3584 1.391 . S
C3585 C3589 1.376 . S
C3586 C3584 1.394 . S
C3586 C3587 1.369 . S
C3586 C3590 1.531 . S
C3587 C3586 1.369 . S
C3587 C3588 1.410 . S
C3587 C3595 1.503 . S
C3588 C3587 1.410 . S
C3588 C3589 1.392 . S
C3588 C3591 1.511 . S
C3589 C3585 1.376 . S
C3589 C3588 1.392 . S
C3589 H3601 0.929 . S
C3590 C3586 1.531 . S
C3590 H3602 0.960 . S
C3590 H3603 0.962 . S
C3590 H3604 0.960 . S
C3591 C3588 1.511 . S
C3591 H3605 0.961 . S
C3591 H3606 0.961 . S
C3591 H3607 0.961 . S
C3592 C3593 1.370 . S
C3592 C3594 1.363 . S
C3592 H3608 0.931 . S
C3593 C3592 1.370 . S
C3593 C3597 1.408 . S
C3594 C3592 1.363 . S
C3594 C3595 1.370 . S
C3594 C3598 1.524 . S
C3595 C3587 1.503 . S
C3595 C3594 1.370 . S
C3595 C3596 1.403 . S
C3596 C3595 1.403 . S
C3596 C3597 1.404 . S
C3596 C3599 1.539 . S
C3597 C3593 1.408 . S
C3597 C3596 1.404 . S
C3597 H3609 0.930 . S
C3598 C3594 1.524 . S
C3598 H3610 0.956 . S
C3598 H3611 0.961 . S
C3598 H3612 0.961 . S
C3599 C3596 1.539 . S
C3599 H3613 0.958 . S
C3599 H3614 0.961 . S
C3599 H3615 0.960 . S
H3600 C3584 0.931 . S
H3601 C3589 0.929 . S
H3602 C3590 0.960 . S
H3603 C3590 0.962 . S
H3604 C3590 0.960 . S
H3605 C3591 0.961 . S
H3606 C3591 0.961 . S
H3607 C3591 0.961 . S
H3608 C3592 0.931 . S
H3609 C3597 0.930 . S
H3610 C3598 0.956 . S
H3611 C3598 0.961 . S
H3612 C3598 0.961 . S
H3613 C3599 0.958 . S
H3614 C3599 0.961 . S
H3615 C3599 0.960 . S
C3616 C3617 1.391 . S
C3616 C3618 1.394 . S
C3616 H3632 0.931 . S
C3617 C3616 1.391 . S
C3617 C3621 1.376 . S
C3618 C3616 1.394 . S
C3618 C3619 1.369 . S
C3618 C3622 1.531 . S
C3619 C3618 1.369 . S
C3619 C3620 1.410 . S
C3619 C3627 1.503 . S
C3620 C3619 1.410 . S
C3620 C3621 1.392 . S
C3620 C3623 1.511 . S
C3621 C3617 1.376 . S
C3621 C3620 1.392 . S
C3621 H3633 0.929 . S
C3622 C3618 1.531 . S
C3622 H3634 0.960 . S
C3622 H3635 0.962 . S
C3622 H3636 0.960 . S
C3623 C3620 1.511 . S
C3623 H3637 0.961 . S
C3623 H3638 0.961 . S
C3623 H3639 0.961 . S
C3624 C3625 1.370 . S
C3624 C3626 1.363 . S
C3624 H3640 0.931 . S
C3625 C3624 1.370 . S
C3625 C3629 1.408 . S
C3626 C3624 1.363 . S
C3626 C3627 1.370 . S
C3626 C3630 1.524 . S
C3627 C3619 1.503 . S
C3627 C3626 1.370 . S
C3627 C3628 1.403 . S
C3628 C3627 1.403 . S
C3628 C3629 1.404 . S
C3628 C3631 1.539 . S
C3629 C3625 1.408 . S
C3629 C3628 1.404 . S
C3629 H3641 0.930 . S
C3630 C3626 1.524 . S
C3630 H3642 0.956 . S
C3630 H3643 0.961 . S
C3630 H3644 0.961 . S
C3631 C3628 1.539 . S
C3631 H3645 0.958 . S
C3631 H3646 0.961 . S
C3631 H3647 0.960 . S
H3632 C3616 0.931 . S
H3633 C3621 0.929 . S
H3634 C3622 0.960 . S
H3635 C3622 0.962 . S
H3636 C3622 0.960 . S
H3637 C3623 0.961 . S
H3638 C3623 0.961 . S
H3639 C3623 0.961 . S
H3640 C3624 0.931 . S
H3641 C3629 0.930 . S
H3642 C3630 0.956 . S
H3643 C3630 0.961 . S
H3644 C3630 0.961 . S
H3645 C3631 0.958 . S
H3646 C3631 0.961 . S
H3647 C3631 0.960 . S
C3648 C3649 1.391 . S
C3648 C3650 1.394 . S
C3648 H3664 0.931 . S
C3649 C3648 1.391 . S
C3649 C3653 1.376 . S
C3650 C3648 1.394 . S
C3650 C3651 1.369 . S
C3650 C3654 1.531 . S
C3651 C3650 1.369 . S
C3651 C3652 1.410 . S
C3651 C3659 1.503 . S
C3652 C3651 1.410 . S
C3652 C3653 1.392 . S
C3652 C3655 1.511 . S
C3653 C3649 1.376 . S
C3653 C3652 1.392 . S
C3653 H3665 0.929 . S
C3654 C3650 1.531 . S
C3654 H3666 0.960 . S
C3654 H3667 0.962 . S
C3654 H3668 0.960 . S
C3655 C3652 1.511 . S
C3655 H3669 0.961 . S
C3655 H3670 0.961 . S
C3655 H3671 0.961 . S
C3656 C3657 1.370 . S
C3656 C3658 1.363 . S
C3656 H3672 0.931 . S
C3657 C3656 1.370 . S
C3657 C3661 1.408 . S
C3658 C3656 1.363 . S
C3658 C3659 1.370 . S
C3658 C3662 1.524 . S
C3659 C3651 1.503 . S
C3659 C3658 1.370 . S
C3659 C3660 1.403 . S
C3660 C3659 1.403 . S
C3660 C3661 1.404 . S
C3660 C3663 1.539 . S
C3661 C3657 1.408 . S
C3661 C3660 1.404 . S
C3661 H3673 0.930 . S
C3662 C3658 1.524 . S
C3662 H3674 0.956 . S
C3662 H3675 0.961 . S
C3662 H3676 0.961 . S
C3663 C3660 1.539 . S
C3663 H3677 0.958 . S
C3663 H3678 0.961 . S
C3663 H3679 0.960 . S
H3664 C3648 0.931 . S
H3665 C3653 0.929 . S
H3666 C3654 0.960 . S
H3667 C3654 0.962 . S
H3668 C3654 0.960 . S
H3669 C3655 0.961 . S
H3670 C3655 0.961 . S
H3671 C3655 0.961 . S
H3672 C3656 0.931 . S
H3673 C3661 0.930 . S
H3674 C3662 0.956 . S
H3675 C3662 0.961 . S
H3676 C3662 0.961 . S
H3677 C3663 0.958 . S
H3678 C3663 0.961 . S
H3679 C3663 0.960 . S
C3680 C3681 1.391 . S
C3680 C3682 1.394 . S
C3680 H3696 0.931 . S
C3681 C3680 1.391 . S
C3681 C3685 1.376 . S
C3682 C3680 1.394 . S
C3682 C3683 1.369 . S
C3682 C3686 1.531 . S
C3683 C3682 1.369 . S
C3683 C3684 1.410 . S
C3683 C3691 1.503 . S
C3684 C3683 1.410 . S
C3684 C3685 1.392 . S
C3684 C3687 1.511 . S
C3685 C3681 1.376 . S
C3685 C3684 1.392 . S
C3685 H3697 0.929 . S
C3686 C3682 1.531 . S
C3686 H3698 0.960 . S
C3686 H3699 0.962 . S
C3686 H3700 0.960 . S
C3687 C3684 1.511 . S
C3687 H3701 0.961 . S
C3687 H3702 0.961 . S
C3687 H3703 0.961 . S
C3688 C3689 1.370 . S
C3688 C3690 1.363 . S
C3688 H3704 0.931 . S
C3689 C3688 1.370 . S
C3689 C3693 1.408 . S
C3690 C3688 1.363 . S
C3690 C3691 1.370 . S
C3690 C3694 1.524 . S
C3691 C3683 1.503 . S
C3691 C3690 1.370 . S
C3691 C3692 1.403 . S
C3692 C3691 1.403 . S
C3692 C3693 1.404 . S
C3692 C3695 1.539 . S
C3693 C3689 1.408 . S
C3693 C3692 1.404 . S
C3693 H3705 0.930 . S
C3694 C3690 1.524 . S
C3694 H3706 0.956 . S
C3694 H3707 0.961 . S
C3694 H3708 0.961 . S
C3695 C3692 1.539 . S
C3695 H3709 0.958 . S
C3695 H3710 0.961 . S
C3695 H3711 0.960 . S
H3696 C3680 0.931 . S
H3697 C3685 0.929 . S
H3698 C3686 0.960 . S
H3699 C3686 0.962 . S
H3700 C3686 0.960 . S
H3701 C3687 0.961 . S
H3702 C3687 0.961 . S
H3703 C3687 0.961 . S
H3704 C3688 0.931 . S
H3705 C3693 0.930 . S
H3706 C3694 0.956 . S
H3707 C3694 0.961 . S
H3708 C3694 0.961 . S
H3709 C3695 0.958 . S
H3710 C3695 0.961 . S
H3711 C3695 0.960 . S
C3712 C3713 1.391 . S
C3712 C3714 1.394 . S
C3712 H3728 0.931 . S
C3713 C3712 1.391 . S
C3713 C3717 1.376 . S
C3714 C3712 1.394 . S
C3714 C3715 1.369 . S
C3714 C3718 1.531 . S
C3715 C3714 1.369 . S
C3715 C3716 1.410 . S
C3715 C3723 1.503 . S
C3716 C3715 1.410 . S
C3716 C3717 1.392 . S
C3716 C3719 1.511 . S
C3717 C3713 1.376 . S
C3717 C3716 1.392 . S
C3717 H3729 0.929 . S
C3718 C3714 1.531 . S
C3718 H3730 0.960 . S
C3718 H3731 0.962 . S
C3718 H3732 0.960 . S
C3719 C3716 1.511 . S
C3719 H3733 0.961 . S
C3719 H3734 0.961 . S
C3719 H3735 0.961 . S
C3720 C3721 1.370 . S
C3720 C3722 1.363 . S
C3720 H3736 0.931 . S
C3721 C3720 1.370 . S
C3721 C3725 1.408 . S
C3722 C3720 1.363 . S
C3722 C3723 1.370 . S
C3722 C3726 1.524 . S
C3723 C3715 1.503 . S
C3723 C3722 1.370 . S
C3723 C3724 1.403 . S
C3724 C3723 1.403 . S
C3724 C3725 1.404 . S
C3724 C3727 1.539 . S
C3725 C3721 1.408 . S
C3725 C3724 1.404 . S
C3725 H3737 0.930 1_565 S
C3726 C3722 1.524 . S
C3726 H3738 0.956 . S
C3726 H3739 0.961 . S
C3726 H3740 0.961 . S
C3727 C3724 1.539 . S
C3727 H3741 0.958 . S
C3727 H3742 0.961 . S
C3727 H3743 0.960 . S
H3728 C3712 0.931 . S
H3729 C3717 0.929 . S
H3730 C3718 0.960 . S
H3731 C3718 0.962 . S
H3732 C3718 0.960 . S
H3733 C3719 0.961 . S
H3734 C3719 0.961 . S
H3735 C3719 0.961 . S
H3736 C3720 0.931 . S
H3737 C3725 0.930 1_545 S
H3738 C3726 0.956 . S
H3739 C3726 0.961 . S
H3740 C3726 0.961 . S
H3741 C3727 0.958 . S
H3742 C3727 0.961 . S
H3743 C3727 0.960 . S
C3744 C3745 1.391 . S
C3744 C3746 1.394 . S
C3744 H3760 0.931 . S
C3745 C3744 1.391 . S
C3745 C3749 1.376 . S
C3746 C3744 1.394 . S
C3746 C3747 1.369 . S
C3746 C3750 1.531 . S
C3747 C3746 1.369 . S
C3747 C3748 1.410 . S
C3747 C3755 1.503 . S
C3748 C3747 1.410 . S
C3748 C3749 1.392 . S
C3748 C3751 1.511 . S
C3749 C3745 1.376 . S
C3749 C3748 1.392 . S
C3749 H3761 0.929 . S
C3750 C3746 1.531 . S
C3750 H3762 0.960 . S
C3750 H3763 0.962 . S
C3750 H3764 0.960 . S
C3751 C3748 1.511 . S
C3751 H3765 0.961 . S
C3751 H3766 0.961 . S
C3751 H3767 0.961 . S
C3752 C3753 1.370 . S
C3752 C3754 1.363 . S
C3752 H3768 0.931 . S
C3753 C3752 1.370 . S
C3753 C3757 1.408 . S
C3754 C3752 1.363 . S
C3754 C3755 1.370 . S
C3754 C3758 1.524 . S
C3755 C3747 1.503 . S
C3755 C3754 1.370 . S
C3755 C3756 1.403 . S
C3756 C3755 1.403 . S
C3756 C3757 1.404 . S
C3756 C3759 1.539 . S
C3757 C3753 1.408 . S
C3757 C3756 1.404 . S
C3757 H3769 0.930 . S
C3758 C3754 1.524 . S
C3758 H3770 0.956 . S
C3758 H3771 0.961 . S
C3758 H3772 0.961 . S
C3759 C3756 1.539 . S
C3759 H3773 0.958 . S
C3759 H3774 0.961 . S
C3759 H3775 0.960 . S
H3760 C3744 0.931 . S
H3761 C3749 0.929 . S
H3762 C3750 0.960 . S
H3763 C3750 0.962 . S
H3764 C3750 0.960 . S
H3765 C3751 0.961 . S
H3766 C3751 0.961 . S
H3767 C3751 0.961 . S
H3768 C3752 0.931 . S
H3769 C3757 0.930 . S
H3770 C3758 0.956 . S
H3771 C3758 0.961 . S
H3772 C3758 0.961 . S
H3773 C3759 0.958 . S
H3774 C3759 0.961 . S
H3775 C3759 0.960 . S
C3776 C3777 1.391 . S
C3776 C3778 1.394 . S
C3776 H3792 0.931 . S
C3777 C3776 1.391 . S
C3777 C3781 1.376 . S
C3778 C3776 1.394 . S
C3778 C3779 1.369 . S
C3778 C3782 1.531 . S
C3779 C3778 1.369 . S
C3779 C3780 1.410 . S
C3779 C3787 1.503 . S
C3780 C3779 1.410 . S
C3780 C3781 1.392 . S
C3780 C3783 1.511 . S
C3781 C3777 1.376 . S
C3781 C3780 1.392 . S
C3781 H3793 0.929 . S
C3782 C3778 1.531 . S
C3782 H3794 0.960 . S
C3782 H3795 0.962 . S
C3782 H3796 0.960 . S
C3783 C3780 1.511 . S
C3783 H3797 0.961 . S
C3783 H3798 0.961 . S
C3783 H3799 0.961 . S
C3784 C3785 1.370 . S
C3784 C3786 1.363 . S
C3784 H3800 0.931 . S
C3785 C3784 1.370 . S
C3785 C3789 1.408 . S
C3786 C3784 1.363 . S
C3786 C3787 1.370 . S
C3786 C3790 1.524 . S
C3787 C3779 1.503 . S
C3787 C3786 1.370 . S
C3787 C3788 1.403 . S
C3788 C3787 1.403 . S
C3788 C3789 1.404 . S
C3788 C3791 1.539 . S
C3789 C3785 1.408 . S
C3789 C3788 1.404 . S
C3789 H3801 0.930 . S
C3790 C3786 1.524 . S
C3790 H3802 0.956 . S
C3790 H3803 0.961 . S
C3790 H3804 0.961 . S
C3791 C3788 1.539 . S
C3791 H3805 0.958 . S
C3791 H3806 0.961 . S
C3791 H3807 0.960 . S
H3792 C3776 0.931 . S
H3793 C3781 0.929 . S
H3794 C3782 0.960 . S
H3795 C3782 0.962 . S
H3796 C3782 0.960 . S
H3797 C3783 0.961 . S
H3798 C3783 0.961 . S
H3799 C3783 0.961 . S
H3800 C3784 0.931 . S
H3801 C3789 0.930 . S
H3802 C3790 0.956 . S
H3803 C3790 0.961 . S
H3804 C3790 0.961 . S
H3805 C3791 0.958 . S
H3806 C3791 0.961 . S
H3807 C3791 0.960 . S
C3808 C3809 1.391 . S
C3808 C3810 1.394 . S
C3808 H3824 0.931 . S
C3809 C3808 1.391 . S
C3809 C3813 1.376 . S
C3810 C3808 1.394 . S
C3810 C3811 1.369 . S
C3810 C3814 1.531 . S
C3811 C3810 1.369 . S
C3811 C3812 1.410 . S
C3811 C3819 1.503 . S
C3812 C3811 1.410 . S
C3812 C3813 1.392 . S
C3812 C3815 1.511 . S
C3813 C3809 1.376 . S
C3813 C3812 1.392 . S
C3813 H3825 0.929 . S
C3814 C3810 1.531 . S
C3814 H3826 0.960 . S
C3814 H3827 0.962 . S
C3814 H3828 0.960 . S
C3815 C3812 1.511 . S
C3815 H3829 0.961 . S
C3815 H3830 0.961 . S
C3815 H3831 0.961 . S
C3816 C3817 1.370 . S
C3816 C3818 1.363 . S
C3816 H3832 0.931 . S
C3817 C3816 1.370 . S
C3817 C3821 1.408 . S
C3818 C3816 1.363 . S
C3818 C3819 1.370 . S
C3818 C3822 1.524 . S
C3819 C3811 1.503 . S
C3819 C3818 1.370 . S
C3819 C3820 1.403 . S
C3820 C3819 1.403 . S
C3820 C3821 1.404 . S
C3820 C3823 1.539 . S
C3821 C3817 1.408 . S
C3821 C3820 1.404 . S
C3821 H3833 0.930 . S
C3822 C3818 1.524 . S
C3822 H3834 0.956 . S
C3822 H3835 0.961 . S
C3822 H3836 0.961 . S
C3823 C3820 1.539 . S
C3823 H3837 0.958 . S
C3823 H3838 0.961 . S
C3823 H3839 0.960 . S
H3824 C3808 0.931 . S
H3825 C3813 0.929 . S
H3826 C3814 0.960 . S
H3827 C3814 0.962 . S
H3828 C3814 0.960 . S
H3829 C3815 0.961 . S
H3830 C3815 0.961 . S
H3831 C3815 0.961 . S
H3832 C3816 0.931 . S
H3833 C3821 0.930 . S
H3834 C3822 0.956 . S
H3835 C3822 0.961 . S
H3836 C3822 0.961 . S
H3837 C3823 0.958 . S
H3838 C3823 0.961 . S
H3839 C3823 0.960 . S
C3840 C3841 1.391 . S
C3840 C3842 1.394 . S
C3840 H3856 0.931 . S
C3841 C3840 1.391 . S
C3841 C3845 1.376 . S
C3842 C3840 1.394 . S
C3842 C3843 1.369 . S
C3842 C3846 1.531 . S
C3843 C3842 1.369 . S
C3843 C3844 1.410 . S
C3843 C3851 1.503 . S
C3844 C3843 1.410 . S
C3844 C3845 1.392 . S
C3844 C3847 1.511 . S
C3845 C3841 1.376 . S
C3845 C3844 1.392 . S
C3845 H3857 0.929 . S
C3846 C3842 1.531 . S
C3846 H3858 0.960 . S
C3846 H3859 0.962 . S
C3846 H3860 0.960 . S
C3847 C3844 1.511 . S
C3847 H3861 0.961 . S
C3847 H3862 0.961 . S
C3847 H3863 0.961 . S
C3848 C3849 1.370 . S
C3848 C3850 1.363 . S
C3848 H3864 0.931 . S
C3849 C3848 1.370 . S
C3849 C3853 1.408 . S
C3850 C3848 1.363 . S
C3850 C3851 1.370 . S
C3850 C3854 1.524 . S
C3851 C3843 1.503 . S
C3851 C3850 1.370 . S
C3851 C3852 1.403 . S
C3852 C3851 1.403 . S
C3852 C3853 1.404 . S
C3852 C3855 1.539 . S
C3853 C3849 1.408 . S
C3853 C3852 1.404 . S
C3853 H3865 0.930 . S
C3854 C3850 1.524 . S
C3854 H3866 0.956 . S
C3854 H3867 0.961 . S
C3854 H3868 0.961 . S
C3855 C3852 1.539 . S
C3855 H3869 0.958 . S
C3855 H3870 0.961 . S
C3855 H3871 0.960 . S
H3856 C3840 0.931 . S
H3857 C3845 0.929 . S
H3858 C3846 0.960 . S
H3859 C3846 0.962 . S
H3860 C3846 0.960 . S
H3861 C3847 0.961 . S
H3862 C3847 0.961 . S
H3863 C3847 0.961 . S
H3864 C3848 0.931 . S
H3865 C3853 0.930 . S
H3866 C3854 0.956 . S
H3867 C3854 0.961 . S
H3868 C3854 0.961 . S
H3869 C3855 0.958 . S
H3870 C3855 0.961 . S
H3871 C3855 0.960 . S
C3872 C3873 1.391 . S
C3872 C3874 1.394 . S
C3872 H3888 0.931 . S
C3873 C3872 1.391 . S
C3873 C3877 1.376 . S
C3874 C3872 1.394 . S
C3874 C3875 1.369 . S
C3874 C3878 1.531 . S
C3875 C3874 1.369 . S
C3875 C3876 1.410 . S
C3875 C3883 1.503 . S
C3876 C3875 1.410 . S
C3876 C3877 1.392 . S
C3876 C3879 1.511 . S
C3877 C3873 1.376 . S
C3877 C3876 1.392 . S
C3877 H3889 0.929 1_545 S
C3878 C3874 1.531 . S
C3878 H3890 0.960 . S
C3878 H3891 0.962 . S
C3878 H3892 0.960 . S
C3879 C3876 1.511 . S
C3879 H3893 0.961 . S
C3879 H3894 0.961 . S
C3879 H3895 0.961 . S
C3880 C3881 1.370 . S
C3880 C3882 1.363 . S
C3880 H3896 0.931 . S
C3881 C3880 1.370 . S
C3881 C3885 1.408 . S
C3882 C3880 1.363 . S
C3882 C3883 1.370 . S
C3882 C3886 1.524 . S
C3883 C3875 1.503 . S
C3883 C3882 1.370 . S
C3883 C3884 1.403 . S
C3884 C3883 1.403 . S
C3884 C3885 1.404 . S
C3884 C3887 1.539 . S
C3885 C3881 1.408 . S
C3885 C3884 1.404 . S
C3885 H3897 0.930 . S
C3886 C3882 1.524 . S
C3886 H3898 0.956 . S
C3886 H3899 0.961 . S
C3886 H3900 0.961 . S
C3887 C3884 1.539 . S
C3887 H3901 0.958 . S
C3887 H3902 0.961 . S
C3887 H3903 0.960 . S
H3888 C3872 0.931 . S
H3889 C3877 0.929 1_565 S
H3890 C3878 0.960 . S
H3891 C3878 0.962 . S
H3892 C3878 0.960 . S
H3893 C3879 0.961 . S
H3894 C3879 0.961 . S
H3895 C3879 0.961 . S
H3896 C3880 0.931 . S
H3897 C3885 0.930 . S
H3898 C3886 0.956 . S
H3899 C3886 0.961 . S
H3900 C3886 0.961 . S
H3901 C3887 0.958 . S
H3902 C3887 0.961 . S
H3903 C3887 0.960 . S
C3904 C3905 1.391 . S
C3904 C3906 1.394 . S
C3904 H3920 0.931 . S
C3905 C3904 1.391 . S
C3905 C3909 1.376 . S
C3906 C3904 1.394 . S
C3906 C3907 1.369 . S
C3906 C3910 1.531 . S
C3907 C3906 1.369 . S
C3907 C3908 1.410 . S
C3907 C3915 1.503 . S
C3908 C3907 1.410 . S
C3908 C3909 1.392 . S
C3908 C3911 1.511 . S
C3909 C3905 1.376 . S
C3909 C3908 1.392 . S
C3909 H3921 0.929 . S
C3910 C3906 1.531 . S
C3910 H3922 0.960 . S
C3910 H3923 0.962 . S
C3910 H3924 0.960 . S
C3911 C3908 1.511 . S
C3911 H3925 0.961 . S
C3911 H3926 0.961 . S
C3911 H3927 0.961 . S
C3912 C3913 1.370 . S
C3912 C3914 1.363 . S
C3912 H3928 0.931 . S
C3913 C3912 1.370 . S
C3913 C3917 1.408 . S
C3914 C3912 1.363 . S
C3914 C3915 1.370 . S
C3914 C3918 1.524 . S
C3915 C3907 1.503 . S
C3915 C3914 1.370 . S
C3915 C3916 1.403 . S
C3916 C3915 1.403 . S
C3916 C3917 1.404 . S
C3916 C3919 1.539 . S
C3917 C3913 1.408 . S
C3917 C3916 1.404 . S
C3917 H3929 0.930 . S
C3918 C3914 1.524 . S
C3918 H3930 0.956 . S
C3918 H3931 0.961 . S
C3918 H3932 0.961 . S
C3919 C3916 1.539 . S
C3919 H3933 0.958 . S
C3919 H3934 0.961 . S
C3919 H3935 0.960 . S
H3920 C3904 0.931 . S
H3921 C3909 0.929 . S
H3922 C3910 0.960 . S
H3923 C3910 0.962 . S
H3924 C3910 0.960 . S
H3925 C3911 0.961 . S
H3926 C3911 0.961 . S
H3927 C3911 0.961 . S
H3928 C3912 0.931 . S
H3929 C3917 0.930 . S
H3930 C3918 0.956 . S
H3931 C3918 0.961 . S
H3932 C3918 0.961 . S
H3933 C3919 0.958 . S
H3934 C3919 0.961 . S
H3935 C3919 0.960 . S
C3936 C3937 1.391 . S
C3936 C3938 1.394 . S
C3936 H3952 0.931 . S
C3937 C3936 1.391 . S
C3937 C3941 1.376 . S
C3938 C3936 1.394 . S
C3938 C3939 1.369 . S
C3938 C3942 1.531 . S
C3939 C3938 1.369 . S
C3939 C3940 1.410 . S
C3939 C3947 1.503 . S
C3940 C3939 1.410 . S
C3940 C3941 1.392 . S
C3940 C3943 1.511 . S
C3941 C3937 1.376 . S
C3941 C3940 1.392 . S
C3941 H3953 0.929 . S
C3942 C3938 1.531 . S
C3942 H3954 0.960 . S
C3942 H3955 0.962 . S
C3942 H3956 0.960 . S
C3943 C3940 1.511 . S
C3943 H3957 0.961 . S
C3943 H3958 0.961 . S
C3943 H3959 0.961 . S
C3944 C3945 1.370 . S
C3944 C3946 1.363 . S
C3944 H3960 0.931 . S
C3945 C3944 1.370 . S
C3945 C3949 1.408 . S
C3946 C3944 1.363 . S
C3946 C3947 1.370 . S
C3946 C3950 1.524 . S
C3947 C3939 1.503 . S
C3947 C3946 1.370 . S
C3947 C3948 1.403 . S
C3948 C3947 1.403 . S
C3948 C3949 1.404 . S
C3948 C3951 1.539 . S
C3949 C3945 1.408 . S
C3949 C3948 1.404 . S
C3949 H3961 0.930 . S
C3950 C3946 1.524 . S
C3950 H3962 0.956 . S
C3950 H3963 0.961 . S
C3950 H3964 0.961 . S
C3951 C3948 1.539 . S
C3951 H3965 0.958 . S
C3951 H3966 0.961 . S
C3951 H3967 0.960 . S
H3952 C3936 0.931 . S
H3953 C3941 0.929 . S
H3954 C3942 0.960 . S
H3955 C3942 0.962 . S
H3956 C3942 0.960 . S
H3957 C3943 0.961 . S
H3958 C3943 0.961 . S
H3959 C3943 0.961 . S
H3960 C3944 0.931 . S
H3961 C3949 0.930 . S
H3962 C3950 0.956 . S
H3963 C3950 0.961 . S
H3964 C3950 0.961 . S
H3965 C3951 0.958 . S
H3966 C3951 0.961 . S
H3967 C3951 0.960 . S
C3968 C3969 1.391 . S
C3968 C3970 1.394 . S
C3968 H3984 0.931 . S
C3969 C3968 1.391 . S
C3969 C3973 1.376 . S
C3970 C3968 1.394 . S
C3970 C3971 1.369 . S
C3970 C3974 1.531 . S
C3971 C3970 1.369 . S
C3971 C3972 1.410 . S
C3971 C3979 1.503 . S
C3972 C3971 1.410 . S
C3972 C3973 1.392 . S
C3972 C3975 1.511 . S
C3973 C3969 1.376 . S
C3973 C3972 1.392 . S
C3973 H3985 0.929 . S
C3974 C3970 1.531 . S
C3974 H3986 0.960 . S
C3974 H3987 0.962 . S
C3974 H3988 0.960 . S
C3975 C3972 1.511 . S
C3975 H3989 0.961 . S
C3975 H3990 0.961 . S
C3975 H3991 0.961 . S
C3976 C3977 1.370 . S
C3976 C3978 1.363 . S
C3976 H3992 0.931 . S
C3977 C3976 1.370 . S
C3977 C3981 1.408 . S
C3978 C3976 1.363 . S
C3978 C3979 1.370 . S
C3978 C3982 1.524 . S
C3979 C3971 1.503 . S
C3979 C3978 1.370 . S
C3979 C3980 1.403 . S
C3980 C3979 1.403 . S
C3980 C3981 1.404 . S
C3980 C3983 1.539 . S
C3981 C3977 1.408 . S
C3981 C3980 1.404 . S
C3981 H3993 0.930 . S
C3982 C3978 1.524 . S
C3982 H3994 0.956 . S
C3982 H3995 0.961 . S
C3982 H3996 0.961 . S
C3983 C3980 1.539 . S
C3983 H3997 0.958 . S
C3983 H3998 0.961 . S
C3983 H3999 0.960 . S
H3984 C3968 0.931 . S
H3985 C3973 0.929 . S
H3986 C3974 0.960 . S
H3987 C3974 0.962 . S
H3988 C3974 0.960 . S
H3989 C3975 0.961 . S
H3990 C3975 0.961 . S
H3991 C3975 0.961 . S
H3992 C3976 0.931 . S
H3993 C3981 0.930 . S
H3994 C3982 0.956 . S
H3995 C3982 0.961 . S
H3996 C3982 0.961 . S
H3997 C3983 0.958 . S
H3998 C3983 0.961 . S
H3999 C3983 0.960 . S
C4000 C4001 1.391 . S
C4000 C4002 1.394 . S
C4000 H4016 0.931 . S
C4001 C4000 1.391 . S
C4001 C4005 1.376 . S
C4002 C4000 1.394 . S
C4002 C4003 1.369 . S
C4002 C4006 1.531 . S
C4003 C4002 1.369 . S
C4003 C4004 1.410 . S
C4003 C4011 1.503 . S
C4004 C4003 1.410 . S
C4004 C4005 1.392 . S
C4004 C4007 1.511 . S
C4005 C4001 1.376 . S
C4005 C4004 1.392 . S
C4005 H4017 0.929 . S
C4006 C4002 1.531 . S
C4006 H4018 0.960 . S
C4006 H4019 0.962 . S
C4006 H4020 0.960 . S
C4007 C4004 1.511 . S
C4007 H4021 0.961 . S
C4007 H4022 0.961 . S
C4007 H4023 0.961 . S
C4008 C4009 1.370 . S
C4008 C4010 1.363 . S
C4008 H4024 0.931 . S
C4009 C4008 1.370 . S
C4009 C4013 1.408 . S
C4010 C4008 1.363 . S
C4010 C4011 1.370 . S
C4010 C4014 1.524 . S
C4011 C4003 1.503 . S
C4011 C4010 1.370 . S
C4011 C4012 1.403 . S
C4012 C4011 1.403 . S
C4012 C4013 1.404 . S
C4012 C4015 1.555 . S
C4013 C4009 1.408 . S
C4013 C4012 1.404 . S
C4013 H4025 0.930 . S
C4014 C4010 1.524 . S
C4014 H4026 0.956 . S
C4014 H4027 0.961 . S
C4014 H4028 0.961 . S
C4015 C4012 1.555 . S
C4015 H4029 0.953 1_554 S
C4015 H4030 0.950 1_554 S
C4015 H4031 0.959 . S
H4016 C4000 0.931 . S
H4017 C4005 0.929 . S
H4018 C4006 0.960 . S
H4019 C4006 0.962 . S
H4020 C4006 0.960 . S
H4021 C4007 0.961 . S
H4022 C4007 0.961 . S
H4023 C4007 0.961 . S
H4024 C4008 0.931 . S
H4025 C4013 0.930 . S
H4026 C4014 0.956 . S
H4027 C4014 0.961 . S
H4028 C4014 0.961 . S
H4029 C4015 0.953 1_556 S
H4030 C4015 0.950 1_556 S
H4031 C4015 0.959 . S
C4032 C4033 1.391 . S
C4032 C4034 1.394 . S
C4032 H4048 0.931 . S
C4033 C4032 1.391 . S
C4033 C4037 1.376 . S
C4034 C4032 1.394 . S
C4034 C4035 1.369 . S
C4034 C4038 1.531 . S
C4035 C4034 1.369 . S
C4035 C4036 1.410 . S
C4035 C4043 1.503 . S
C4036 C4035 1.410 . S
C4036 C4037 1.392 . S
C4036 C4039 1.511 . S
C4037 C4033 1.376 . S
C4037 C4036 1.392 . S
C4037 H4049 0.929 . S
C4038 C4034 1.531 . S
C4038 H4050 0.960 . S
C4038 H4051 0.962 . S
C4038 H4052 0.960 . S
C4039 C4036 1.511 . S
C4039 H4053 0.961 . S
C4039 H4054 0.961 . S
C4039 H4055 0.961 . S
C4040 C4041 1.370 . S
C4040 C4042 1.363 . S
C4040 H4056 0.931 . S
C4041 C4040 1.370 . S
C4041 C4045 1.408 . S
C4042 C4040 1.363 . S
C4042 C4043 1.370 . S
C4042 C4046 1.524 . S
C4043 C4035 1.503 . S
C4043 C4042 1.370 . S
C4043 C4044 1.403 . S
C4044 C4043 1.403 . S
C4044 C4045 1.404 . S
C4044 C4047 1.539 . S
C4045 C4041 1.408 . S
C4045 C4044 1.404 . S
C4045 H4057 0.930 . S
C4046 C4042 1.524 . S
C4046 H4058 0.956 . S
C4046 H4059 0.961 . S
C4046 H4060 0.961 . S
C4047 C4044 1.539 . S
C4047 H4061 0.958 . S
C4047 H4062 0.961 . S
C4047 H4063 0.960 . S
H4048 C4032 0.931 . S
H4049 C4037 0.929 . S
H4050 C4038 0.960 . S
H4051 C4038 0.962 . S
H4052 C4038 0.960 . S
H4053 C4039 0.961 . S
H4054 C4039 0.961 . S
H4055 C4039 0.961 . S
H4056 C4040 0.931 . S
H4057 C4045 0.930 . S
H4058 C4046 0.956 . S
H4059 C4046 0.961 . S
H4060 C4046 0.961 . S
H4061 C4047 0.958 . S
H4062 C4047 0.961 . S
H4063 C4047 0.960 . S
C4064 C4065 1.391 . S
C4064 C4066 1.394 . S
C4064 H4080 0.931 . S
C4065 C4064 1.391 . S
C4065 C4069 1.376 . S
C4066 C4064 1.394 . S
C4066 C4067 1.369 . S
C4066 C4070 1.531 . S
C4067 C4066 1.369 . S
C4067 C4068 1.410 . S
C4067 C4075 1.503 . S
C4068 C4067 1.410 . S
C4068 C4069 1.392 . S
C4068 C4071 1.511 . S
C4069 C4065 1.376 . S
C4069 C4068 1.392 . S
C4069 H4081 0.929 . S
C4070 C4066 1.531 . S
C4070 H4082 0.960 . S
C4070 H4083 0.962 . S
C4070 H4084 0.960 . S
C4071 C4068 1.511 . S
C4071 H4085 0.961 . S
C4071 H4086 0.961 . S
C4071 H4087 0.961 . S
C4072 C4073 1.370 . S
C4072 C4074 1.363 . S
C4072 H4088 0.931 . S
C4073 C4072 1.370 . S
C4073 C4077 1.408 . S
C4074 C4072 1.363 . S
C4074 C4075 1.370 . S
C4074 C4078 1.524 . S
C4075 C4067 1.503 . S
C4075 C4074 1.370 . S
C4075 C4076 1.403 . S
C4076 C4075 1.403 . S
C4076 C4077 1.404 . S
C4076 C4079 1.539 . S
C4077 C4073 1.408 . S
C4077 C4076 1.404 . S
C4077 H4089 0.930 . S
C4078 C4074 1.524 . S
C4078 H4090 0.956 . S
C4078 H4091 0.961 . S
C4078 H4092 0.961 . S
C4079 C4076 1.539 . S
C4079 H4093 0.958 1_556 S
C4079 H4094 0.961 1_556 S
C4079 H4095 0.960 . S
H4080 C4064 0.931 . S
H4081 C4069 0.929 . S
H4082 C4070 0.960 . S
H4083 C4070 0.962 . S
H4084 C4070 0.960 . S
H4085 C4071 0.961 . S
H4086 C4071 0.961 . S
H4087 C4071 0.961 . S
H4088 C4072 0.931 . S
H4089 C4077 0.930 . S
H4090 C4078 0.956 . S
H4091 C4078 0.961 . S
H4092 C4078 0.961 . S
H4093 C4079 0.958 1_554 S
H4094 C4079 0.961 1_554 S
H4095 C4079 0.960 . S
C4096 C4097 1.391 . S
C4096 C4098 1.394 . S
C4096 H4112 0.931 . S
C4097 C4096 1.391 . S
C4097 C4101 1.376 . S
C4098 C4096 1.394 . S
C4098 C4099 1.369 . S
C4098 C4102 1.531 . S
C4099 C4098 1.369 . S
C4099 C4100 1.410 . S
C4099 C4107 1.503 . S
C4100 C4099 1.410 . S
C4100 C4101 1.392 . S
C4100 C4103 1.511 . S
C4101 C4097 1.376 . S
C4101 C4100 1.392 . S
C4101 H4113 0.929 . S
C4102 C4098 1.531 . S
C4102 H4114 0.960 . S
C4102 H4115 0.962 . S
C4102 H4116 0.960 . S
C4103 C4100 1.511 . S
C4103 H4117 0.961 . S
C4103 H4118 0.961 . S
C4103 H4119 0.961 . S
C4104 C4105 1.370 . S
C4104 C4106 1.363 . S
C4104 H4120 0.931 . S
C4105 C4104 1.370 . S
C4105 C4109 1.408 . S
C4106 C4104 1.363 . S
C4106 C4107 1.370 . S
C4106 C4110 1.524 . S
C4107 C4099 1.503 . S
C4107 C4106 1.370 . S
C4107 C4108 1.403 . S
C4108 C4107 1.403 . S
C4108 C4109 1.404 . S
C4108 C4111 1.539 . S
C4109 C4105 1.408 . S
C4109 C4108 1.404 . S
C4109 H4121 0.930 . S
C4110 C4106 1.524 . S
C4110 H4122 0.956 . S
C4110 H4123 0.961 . S
C4110 H4124 0.961 . S
C4111 C4108 1.539 . S
C4111 H4125 0.958 . S
C4111 H4126 0.961 . S
C4111 H4127 0.960 . S
H4112 C4096 0.931 . S
H4113 C4101 0.929 . S
H4114 C4102 0.960 . S
H4115 C4102 0.962 . S
H4116 C4102 0.960 . S
H4117 C4103 0.961 . S
H4118 C4103 0.961 . S
H4119 C4103 0.961 . S
H4120 C4104 0.931 . S
H4121 C4109 0.930 . S
H4122 C4110 0.956 . S
H4123 C4110 0.961 . S
H4124 C4110 0.961 . S
H4125 C4111 0.958 . S
H4126 C4111 0.961 . S
H4127 C4111 0.960 . S
C4128 C4129 1.391 . S
C4128 C4130 1.394 . S
C4128 H4144 0.931 . S
C4129 C4128 1.391 . S
C4129 C4133 1.376 . S
C4130 C4128 1.394 . S
C4130 C4131 1.369 . S
C4130 C4134 1.531 . S
C4131 C4130 1.369 . S
C4131 C4132 1.410 . S
C4131 C4139 1.503 . S
C4132 C4131 1.410 . S
C4132 C4133 1.392 . S
C4132 C4135 1.511 . S
C4133 C4129 1.376 . S
C4133 C4132 1.392 . S
C4133 H4145 0.929 . S
C4134 C4130 1.531 . S
C4134 H4146 0.960 . S
C4134 H4147 0.962 . S
C4134 H4148 0.960 . S
C4135 C4132 1.511 . S
C4135 H4149 0.961 . S
C4135 H4150 0.961 . S
C4135 H4151 0.961 . S
C4136 C4137 1.370 . S
C4136 C4138 1.363 . S
C4136 H4152 0.931 . S
C4137 C4136 1.370 . S
C4137 C4141 1.408 . S
C4138 C4136 1.363 . S
C4138 C4139 1.370 . S
C4138 C4142 1.524 . S
C4139 C4131 1.503 . S
C4139 C4138 1.370 . S
C4139 C4140 1.403 . S
C4140 C4139 1.403 . S
C4140 C4141 1.404 . S
C4140 C4143 1.539 . S
C4141 C4137 1.408 . S
C4141 C4140 1.404 . S
C4141 H4153 0.930 . S
C4142 C4138 1.524 . S
C4142 H4154 0.956 . S
C4142 H4155 0.961 . S
C4142 H4156 0.961 . S
C4143 C4140 1.539 . S
C4143 H4157 0.958 . S
C4143 H4158 0.961 . S
C4143 H4159 0.960 . S
H4144 C4128 0.931 . S
H4145 C4133 0.929 . S
H4146 C4134 0.960 . S
H4147 C4134 0.962 . S
H4148 C4134 0.960 . S
H4149 C4135 0.961 . S
H4150 C4135 0.961 . S
H4151 C4135 0.961 . S
H4152 C4136 0.931 . S
H4153 C4141 0.930 . S
H4154 C4142 0.956 . S
H4155 C4142 0.961 . S
H4156 C4142 0.961 . S
H4157 C4143 0.958 . S
H4158 C4143 0.961 . S
H4159 C4143 0.960 . S
C4160 C4161 1.391 . S
C4160 C4162 1.394 . S
C4160 H4176 0.931 . S
C4161 C4160 1.391 . S
C4161 C4165 1.376 . S
C4162 C4160 1.394 . S
C4162 C4163 1.369 . S
C4162 C4166 1.531 . S
C4163 C4162 1.369 . S
C4163 C4164 1.410 . S
C4163 C4171 1.503 . S
C4164 C4163 1.410 . S
C4164 C4165 1.392 . S
C4164 C4167 1.511 . S
C4165 C4161 1.376 . S
C4165 C4164 1.392 . S
C4165 H4177 0.929 . S
C4166 C4162 1.531 . S
C4166 H4178 0.960 . S
C4166 H4179 0.962 . S
C4166 H4180 0.960 . S
C4167 C4164 1.511 . S
C4167 H4181 0.961 . S
C4167 H4182 0.961 . S
C4167 H4183 0.961 . S
C4168 C4169 1.370 . S
C4168 C4170 1.363 . S
C4168 H4184 0.931 . S
C4169 C4168 1.370 . S
C4169 C4173 1.408 . S
C4170 C4168 1.363 . S
C4170 C4171 1.370 . S
C4170 C4174 1.524 . S
C4171 C4163 1.503 . S
C4171 C4170 1.370 . S
C4171 C4172 1.403 . S
C4172 C4171 1.403 . S
C4172 C4173 1.404 . S
C4172 C4175 1.539 . S
C4173 C4169 1.408 . S
C4173 C4172 1.404 . S
C4173 H4185 0.930 . S
C4174 C4170 1.524 . S
C4174 H4186 0.956 . S
C4174 H4187 0.961 . S
C4174 H4188 0.961 . S
C4175 C4172 1.539 . S
C4175 H4189 0.958 . S
C4175 H4190 0.961 . S
C4175 H4191 0.960 . S
H4176 C4160 0.931 . S
H4177 C4165 0.929 . S
H4178 C4166 0.960 . S
H4179 C4166 0.962 . S
H4180 C4166 0.960 . S
H4181 C4167 0.961 . S
H4182 C4167 0.961 . S
H4183 C4167 0.961 . S
H4184 C4168 0.931 . S
H4185 C4173 0.930 . S
H4186 C4174 0.956 . S
H4187 C4174 0.961 . S
H4188 C4174 0.961 . S
H4189 C4175 0.958 . S
H4190 C4175 0.961 . S
H4191 C4175 0.960 . S
C4192 C4193 1.391 . S
C4192 C4194 1.394 . S
C4192 H4208 0.931 . S
C4193 C4192 1.391 . S
C4193 C4197 1.376 . S
C4194 C4192 1.394 . S
C4194 C4195 1.369 . S
C4194 C4198 1.531 . S
C4195 C4194 1.369 . S
C4195 C4196 1.410 . S
C4195 C4203 1.503 . S
C4196 C4195 1.410 . S
C4196 C4197 1.392 . S
C4196 C4199 1.511 . S
C4197 C4193 1.376 . S
C4197 C4196 1.392 . S
C4197 H4209 0.929 . S
C4198 C4194 1.531 . S
C4198 H4210 0.960 . S
C4198 H4211 0.962 . S
C4198 H4212 0.960 . S
C4199 C4196 1.511 . S
C4199 H4213 0.961 . S
C4199 H4214 0.961 . S
C4199 H4215 0.961 . S
C4200 C4201 1.370 . S
C4200 C4202 1.363 . S
C4200 H4216 0.931 . S
C4201 C4200 1.370 . S
C4201 C4205 1.408 . S
C4202 C4200 1.363 . S
C4202 C4203 1.370 . S
C4202 C4206 1.524 . S
C4203 C4195 1.503 . S
C4203 C4202 1.370 . S
C4203 C4204 1.403 . S
C4204 C4203 1.403 . S
C4204 C4205 1.404 . S
C4204 C4207 1.539 . S
C4205 C4201 1.408 . S
C4205 C4204 1.404 . S
C4205 H4217 0.930 . S
C4206 C4202 1.524 . S
C4206 H4218 0.956 . S
C4206 H4219 0.961 . S
C4206 H4220 0.961 . S
C4207 C4204 1.539 . S
C4207 H4221 0.958 . S
C4207 H4222 0.961 . S
C4207 H4223 0.960 . S
H4208 C4192 0.931 . S
H4209 C4197 0.929 . S
H4210 C4198 0.960 . S
H4211 C4198 0.962 . S
H4212 C4198 0.960 . S
H4213 C4199 0.961 . S
H4214 C4199 0.961 . S
H4215 C4199 0.961 . S
H4216 C4200 0.931 . S
H4217 C4205 0.930 . S
H4218 C4206 0.956 . S
H4219 C4206 0.961 . S
H4220 C4206 0.961 . S
H4221 C4207 0.958 . S
H4222 C4207 0.961 . S
H4223 C4207 0.960 . S
C4224 C4225 1.391 . S
C4224 C4226 1.394 . S
C4224 H4240 0.931 . S
C4225 C4224 1.391 . S
C4225 C4229 1.376 . S
C4226 C4224 1.394 . S
C4226 C4227 1.369 . S
C4226 C4230 1.531 . S
C4227 C4226 1.369 . S
C4227 C4228 1.410 . S
C4227 C4235 1.503 . S
C4228 C4227 1.410 . S
C4228 C4229 1.392 . S
C4228 C4231 1.511 . S
C4229 C4225 1.376 . S
C4229 C4228 1.392 . S
C4229 H4241 0.929 . S
C4230 C4226 1.531 . S
C4230 H4242 0.960 . S
C4230 H4243 0.962 . S
C4230 H4244 0.960 . S
C4231 C4228 1.511 . S
C4231 H4245 0.961 . S
C4231 H4246 0.961 . S
C4231 H4247 0.961 . S
C4232 C4233 1.370 . S
C4232 C4234 1.363 . S
C4232 H4248 0.931 . S
C4233 C4232 1.370 . S
C4233 C4237 1.408 . S
C4234 C4232 1.363 . S
C4234 C4235 1.370 . S
C4234 C4238 1.524 . S
C4235 C4227 1.503 . S
C4235 C4234 1.370 . S
C4235 C4236 1.403 . S
C4236 C4235 1.403 . S
C4236 C4237 1.404 . S
C4236 C4239 1.539 . S
C4237 C4233 1.408 . S
C4237 C4236 1.404 . S
C4237 H4249 0.930 . S
C4238 C4234 1.524 . S
C4238 H4250 0.956 . S
C4238 H4251 0.961 . S
C4238 H4252 0.961 . S
C4239 C4236 1.539 . S
C4239 H4253 0.958 . S
C4239 H4254 0.961 . S
C4239 H4255 0.960 . S
H4240 C4224 0.931 . S
H4241 C4229 0.929 . S
H4242 C4230 0.960 . S
H4243 C4230 0.962 . S
H4244 C4230 0.960 . S
H4245 C4231 0.961 . S
H4246 C4231 0.961 . S
H4247 C4231 0.961 . S
H4248 C4232 0.931 . S
H4249 C4237 0.930 . S
H4250 C4238 0.956 . S
H4251 C4238 0.961 . S
H4252 C4238 0.961 . S
H4253 C4239 0.958 . S
H4254 C4239 0.961 . S
H4255 C4239 0.960 . S
C4256 C4257 1.391 . S
C4256 C4258 1.394 . S
C4256 H4272 0.931 . S
C4257 C4256 1.391 . S
C4257 C4261 1.376 . S
C4258 C4256 1.394 . S
C4258 C4259 1.369 . S
C4258 C4262 1.531 . S
C4259 C4258 1.369 . S
C4259 C4260 1.410 . S
C4259 C4267 1.503 . S
C4260 C4259 1.410 . S
C4260 C4261 1.392 . S
C4260 C4263 1.511 . S
C4261 C4257 1.376 . S
C4261 C4260 1.392 . S
C4261 H4273 0.929 . S
C4262 C4258 1.531 . S
C4262 H4274 0.960 . S
C4262 H4275 0.962 . S
C4262 H4276 0.960 . S
C4263 C4260 1.511 . S
C4263 H4277 0.961 . S
C4263 H4278 0.961 . S
C4263 H4279 0.961 . S
C4264 C4265 1.370 . S
C4264 C4266 1.363 . S
C4264 H4280 0.931 . S
C4265 C4264 1.370 . S
C4265 C4269 1.408 . S
C4266 C4264 1.363 . S
C4266 C4267 1.370 . S
C4266 C4270 1.524 . S
C4267 C4259 1.503 . S
C4267 C4266 1.370 . S
C4267 C4268 1.403 . S
C4268 C4267 1.403 . S
C4268 C4269 1.404 . S
C4268 C4271 1.539 . S
C4269 C4265 1.408 . S
C4269 C4268 1.404 . S
C4269 H4281 0.930 . S
C4270 C4266 1.524 . S
C4270 H4282 0.956 . S
C4270 H4283 0.961 . S
C4270 H4284 0.961 . S
C4271 C4268 1.539 . S
C4271 H4285 0.958 . S
C4271 H4286 0.961 . S
C4271 H4287 0.960 . S
H4272 C4256 0.931 . S
H4273 C4261 0.929 . S
H4274 C4262 0.960 . S
H4275 C4262 0.962 . S
H4276 C4262 0.960 . S
H4277 C4263 0.961 . S
H4278 C4263 0.961 . S
H4279 C4263 0.961 . S
H4280 C4264 0.931 . S
H4281 C4269 0.930 . S
H4282 C4270 0.956 . S
H4283 C4270 0.961 . S
H4284 C4270 0.961 . S
H4285 C4271 0.958 . S
H4286 C4271 0.961 . S
H4287 C4271 0.960 . S
C4288 C4289 1.391 . S
C4288 C4290 1.394 . S
C4288 H4304 0.931 . S
C4289 C4288 1.391 . S
C4289 C4293 1.376 . S
C4290 C4288 1.394 . S
C4290 C4291 1.369 . S
C4290 C4294 1.531 . S
C4291 C4290 1.369 . S
C4291 C4292 1.410 . S
C4291 C4299 1.503 . S
C4292 C4291 1.410 . S
C4292 C4293 1.392 . S
C4292 C4295 1.511 . S
C4293 C4289 1.376 . S
C4293 C4292 1.392 . S
C4293 H4305 0.929 . S
C4294 C4290 1.531 . S
C4294 H4306 0.960 . S
C4294 H4307 0.962 . S
C4294 H4308 0.960 . S
C4295 C4292 1.511 . S
C4295 H4309 0.961 . S
C4295 H4310 0.961 . S
C4295 H4311 0.961 . S
C4296 C4297 1.370 . S
C4296 C4298 1.363 . S
C4296 H4312 0.931 . S
C4297 C4296 1.370 . S
C4297 C4301 1.408 . S
C4298 C4296 1.363 . S
C4298 C4299 1.370 . S
C4298 C4302 1.524 . S
C4299 C4291 1.503 . S
C4299 C4298 1.370 . S
C4299 C4300 1.403 . S
C4300 C4299 1.403 . S
C4300 C4301 1.404 . S
C4300 C4303 1.539 . S
C4301 C4297 1.408 . S
C4301 C4300 1.404 . S
C4301 H4313 0.930 . S
C4302 C4298 1.524 . S
C4302 H4314 0.956 . S
C4302 H4315 0.961 . S
C4302 H4316 0.961 . S
C4303 C4300 1.539 . S
C4303 H4317 0.958 . S
C4303 H4318 0.961 . S
C4303 H4319 0.960 . S
H4304 C4288 0.931 . S
H4305 C4293 0.929 . S
H4306 C4294 0.960 . S
H4307 C4294 0.962 . S
H4308 C4294 0.960 . S
H4309 C4295 0.961 . S
H4310 C4295 0.961 . S
H4311 C4295 0.961 . S
H4312 C4296 0.931 . S
H4313 C4301 0.930 . S
H4314 C4302 0.956 . S
H4315 C4302 0.961 . S
H4316 C4302 0.961 . S
H4317 C4303 0.958 . S
H4318 C4303 0.961 . S
H4319 C4303 0.960 . S
C4320 C4321 1.391 . S
C4320 C4322 1.394 . S
C4320 H4336 0.931 . S
C4321 C4320 1.391 . S
C4321 C4325 1.376 . S
C4322 C4320 1.394 . S
C4322 C4323 1.369 . S
C4322 C4326 1.531 . S
C4323 C4322 1.369 . S
C4323 C4324 1.410 . S
C4323 C4331 1.503 . S
C4324 C4323 1.410 . S
C4324 C4325 1.392 . S
C4324 C4327 1.511 . S
C4325 C4321 1.376 . S
C4325 C4324 1.392 . S
C4325 H4337 0.929 . S
C4326 C4322 1.531 . S
C4326 H4338 0.960 . S
C4326 H4339 0.962 . S
C4326 H4340 0.960 . S
C4327 C4324 1.511 . S
C4327 H4341 0.961 . S
C4327 H4342 0.961 . S
C4327 H4343 0.961 . S
C4328 C4329 1.370 . S
C4328 C4330 1.363 . S
C4328 H4344 0.931 . S
C4329 C4328 1.370 . S
C4329 C4333 1.408 . S
C4330 C4328 1.363 . S
C4330 C4331 1.370 . S
C4330 C4334 1.524 . S
C4331 C4323 1.503 . S
C4331 C4330 1.370 . S
C4331 C4332 1.403 . S
C4332 C4331 1.403 . S
C4332 C4333 1.404 . S
C4332 C4335 1.539 . S
C4333 C4329 1.408 . S
C4333 C4332 1.404 . S
C4333 H4345 0.930 . S
C4334 C4330 1.524 . S
C4334 H4346 0.956 . S
C4334 H4347 0.961 . S
C4334 H4348 0.961 . S
C4335 C4332 1.539 . S
C4335 H4349 0.958 . S
C4335 H4350 0.961 . S
C4335 H4351 0.960 . S
H4336 C4320 0.931 . S
H4337 C4325 0.929 . S
H4338 C4326 0.960 . S
H4339 C4326 0.962 . S
H4340 C4326 0.960 . S
H4341 C4327 0.961 . S
H4342 C4327 0.961 . S
H4343 C4327 0.961 . S
H4344 C4328 0.931 . S
H4345 C4333 0.930 . S
H4346 C4334 0.956 . S
H4347 C4334 0.961 . S
H4348 C4334 0.961 . S
H4349 C4335 0.958 . S
H4350 C4335 0.961 . S
H4351 C4335 0.960 . S
C4352 C4353 1.391 . S
C4352 C4354 1.394 . S
C4352 H4368 0.931 . S
C4353 C4352 1.391 . S
C4353 C4357 1.376 . S
C4354 C4352 1.394 . S
C4354 C4355 1.369 . S
C4354 C4358 1.531 . S
C4355 C4354 1.369 . S
C4355 C4356 1.410 . S
C4355 C4363 1.503 . S
C4356 C4355 1.410 . S
C4356 C4357 1.392 . S
C4356 C4359 1.511 . S
C4357 C4353 1.376 . S
C4357 C4356 1.392 . S
C4357 H4369 0.929 . S
C4358 C4354 1.531 . S
C4358 H4370 0.960 . S
C4358 H4371 0.962 . S
C4358 H4372 0.960 . S
C4359 C4356 1.511 . S
C4359 H4373 0.961 . S
C4359 H4374 0.961 . S
C4359 H4375 0.961 . S
C4360 C4361 1.370 . S
C4360 C4362 1.363 . S
C4360 H4376 0.931 . S
C4361 C4360 1.370 . S
C4361 C4365 1.408 . S
C4362 C4360 1.363 . S
C4362 C4363 1.370 . S
C4362 C4366 1.524 . S
C4363 C4355 1.503 . S
C4363 C4362 1.370 . S
C4363 C4364 1.403 . S
C4364 C4363 1.403 . S
C4364 C4365 1.404 . S
C4364 C4367 1.539 . S
C4365 C4361 1.408 . S
C4365 C4364 1.404 . S
C4365 H4377 0.930 . S
C4366 C4362 1.524 . S
C4366 H4378 0.956 . S
C4366 H4379 0.961 . S
C4366 H4380 0.961 . S
C4367 C4364 1.539 . S
C4367 H4381 0.958 . S
C4367 H4382 0.961 . S
C4367 H4383 0.960 . S
H4368 C4352 0.931 . S
H4369 C4357 0.929 . S
H4370 C4358 0.960 . S
H4371 C4358 0.962 . S
H4372 C4358 0.960 . S
H4373 C4359 0.961 . S
H4374 C4359 0.961 . S
H4375 C4359 0.961 . S
H4376 C4360 0.931 . S
H4377 C4365 0.930 . S
H4378 C4366 0.956 . S
H4379 C4366 0.961 . S
H4380 C4366 0.961 . S
H4381 C4367 0.958 . S
H4382 C4367 0.961 . S
H4383 C4367 0.960 . S
C4384 C4385 1.391 . S
C4384 C4386 1.394 . S
C4384 H4400 0.931 . S
C4385 C4384 1.391 . S
C4385 C4389 1.376 . S
C4386 C4384 1.394 . S
C4386 C4387 1.369 . S
C4386 C4390 1.531 . S
C4387 C4386 1.369 . S
C4387 C4388 1.410 . S
C4387 C4395 1.503 . S
C4388 C4387 1.410 . S
C4388 C4389 1.392 . S
C4388 C4391 1.511 . S
C4389 C4385 1.376 . S
C4389 C4388 1.392 . S
C4389 H4401 0.929 . S
C4390 C4386 1.531 . S
C4390 H4402 0.960 . S
C4390 H4403 0.962 . S
C4390 H4404 0.960 . S
C4391 C4388 1.511 . S
C4391 H4405 0.961 . S
C4391 H4406 0.961 . S
C4391 H4407 0.961 . S
C4392 C4393 1.370 . S
C4392 C4394 1.363 . S
C4392 H4408 0.931 . S
C4393 C4392 1.370 . S
C4393 C4397 1.408 . S
C4394 C4392 1.363 . S
C4394 C4395 1.370 . S
C4394 C4398 1.524 . S
C4395 C4387 1.503 . S
C4395 C4394 1.370 . S
C4395 C4396 1.403 . S
C4396 C4395 1.403 . S
C4396 C4397 1.404 . S
C4396 C4399 1.539 . S
C4397 C4393 1.408 . S
C4397 C4396 1.404 . S
C4397 H4409 0.930 . S
C4398 C4394 1.524 . S
C4398 H4410 0.956 . S
C4398 H4411 0.961 . S
C4398 H4412 0.961 . S
C4399 C4396 1.539 . S
C4399 H4413 0.958 . S
C4399 H4414 0.961 . S
C4399 H4415 0.960 . S
H4400 C4384 0.931 . S
H4401 C4389 0.929 . S
H4402 C4390 0.960 . S
H4403 C4390 0.962 . S
H4404 C4390 0.960 . S
H4405 C4391 0.961 . S
H4406 C4391 0.961 . S
H4407 C4391 0.961 . S
H4408 C4392 0.931 . S
H4409 C4397 0.930 . S
H4410 C4398 0.956 . S
H4411 C4398 0.961 . S
H4412 C4398 0.961 . S
H4413 C4399 0.958 . S
H4414 C4399 0.961 . S
H4415 C4399 0.960 . S
C4416 C4417 1.391 . S
C4416 C4418 1.394 . S
C4416 H4432 0.931 . S
C4417 C4416 1.391 . S
C4417 C4421 1.376 . S
C4418 C4416 1.394 . S
C4418 C4419 1.369 . S
C4418 C4422 1.531 . S
C4419 C4418 1.369 . S
C4419 C4420 1.410 . S
C4419 C4427 1.503 . S
C4420 C4419 1.410 . S
C4420 C4421 1.392 . S
C4420 C4423 1.511 . S
C4421 C4417 1.376 . S
C4421 C4420 1.392 . S
C4421 H4433 0.929 . S
C4422 C4418 1.531 . S
C4422 H4434 0.960 . S
C4422 H4435 0.962 . S
C4422 H4436 0.960 . S
C4423 C4420 1.511 . S
C4423 H4437 0.961 . S
C4423 H4438 0.961 . S
C4423 H4439 0.961 . S
C4424 C4425 1.370 . S
C4424 C4426 1.363 . S
C4424 H4440 0.931 . S
C4425 C4424 1.370 . S
C4425 C4429 1.408 . S
C4426 C4424 1.363 . S
C4426 C4427 1.370 . S
C4426 C4430 1.524 . S
C4427 C4419 1.503 . S
C4427 C4426 1.370 . S
C4427 C4428 1.403 . S
C4428 C4427 1.403 . S
C4428 C4429 1.404 . S
C4428 C4431 1.539 . S
C4429 C4425 1.408 . S
C4429 C4428 1.404 . S
C4429 H4441 0.930 . S
C4430 C4426 1.524 . S
C4430 H4442 0.956 . S
C4430 H4443 0.961 . S
C4430 H4444 0.961 . S
C4431 C4428 1.539 . S
C4431 H4445 0.958 . S
C4431 H4446 0.961 . S
C4431 H4447 0.960 . S
H4432 C4416 0.931 . S
H4433 C4421 0.929 . S
H4434 C4422 0.960 . S
H4435 C4422 0.962 . S
H4436 C4422 0.960 . S
H4437 C4423 0.961 . S
H4438 C4423 0.961 . S
H4439 C4423 0.961 . S
H4440 C4424 0.931 . S
H4441 C4429 0.930 . S
H4442 C4430 0.956 . S
H4443 C4430 0.961 . S
H4444 C4430 0.961 . S
H4445 C4431 0.958 . S
H4446 C4431 0.961 . S
H4447 C4431 0.960 . S
C4448 C4449 1.391 . S
C4448 C4450 1.394 . S
C4448 H4464 0.931 . S
C4449 C4448 1.391 . S
C4449 C4453 1.376 . S
C4450 C4448 1.394 . S
C4450 C4451 1.369 . S
C4450 C4454 1.531 . S
C4451 C4450 1.369 . S
C4451 C4452 1.410 . S
C4451 C4459 1.503 . S
C4452 C4451 1.410 . S
C4452 C4453 1.392 . S
C4452 C4455 1.511 . S
C4453 C4449 1.376 . S
C4453 C4452 1.392 . S
C4453 H4465 0.929 . S
C4454 C4450 1.531 . S
C4454 H4466 0.960 . S
C4454 H4467 0.962 . S
C4454 H4468 0.960 . S
C4455 C4452 1.511 . S
C4455 H4469 0.961 . S
C4455 H4470 0.961 . S
C4455 H4471 0.961 . S
C4456 C4457 1.370 . S
C4456 C4458 1.363 . S
C4456 H4472 0.931 . S
C4457 C4456 1.370 . S
C4457 C4461 1.408 . S
C4458 C4456 1.363 . S
C4458 C4459 1.370 . S
C4458 C4462 1.524 . S
C4459 C4451 1.503 . S
C4459 C4458 1.370 . S
C4459 C4460 1.403 . S
C4460 C4459 1.403 . S
C4460 C4461 1.404 . S
C4460 C4463 1.539 . S
C4461 C4457 1.408 . S
C4461 C4460 1.404 . S
C4461 H4473 0.930 . S
C4462 C4458 1.524 . S
C4462 H4474 0.956 . S
C4462 H4475 0.961 . S
C4462 H4476 0.961 . S
C4463 C4460 1.539 . S
C4463 H4477 0.958 . S
C4463 H4478 0.961 1_556 S
C4463 H4479 0.960 . S
H4464 C4448 0.931 . S
H4465 C4453 0.929 . S
H4466 C4454 0.960 . S
H4467 C4454 0.962 . S
H4468 C4454 0.960 . S
H4469 C4455 0.961 . S
H4470 C4455 0.961 . S
H4471 C4455 0.961 . S
H4472 C4456 0.931 . S
H4473 C4461 0.930 . S
H4474 C4462 0.956 . S
H4475 C4462 0.961 . S
H4476 C4462 0.961 . S
H4477 C4463 0.958 . S
H4478 C4463 0.961 1_554 S
H4479 C4463 0.960 . S
C4480 C4481 1.391 . S
C4480 C4482 1.394 . S
C4480 H4496 0.931 . S
C4481 C4480 1.391 . S
C4481 C4485 1.376 . S
C4482 C4480 1.394 . S
C4482 C4483 1.369 . S
C4482 C4486 1.531 . S
C4483 C4482 1.369 . S
C4483 C4484 1.410 . S
C4483 C4491 1.503 . S
C4484 C4483 1.410 . S
C4484 C4485 1.392 . S
C4484 C4487 1.511 . S
C4485 C4481 1.376 . S
C4485 C4484 1.392 . S
C4485 H4497 0.929 . S
C4486 C4482 1.531 . S
C4486 H4498 0.960 . S
C4486 H4499 0.962 . S
C4486 H4500 0.960 . S
C4487 C4484 1.511 . S
C4487 H4501 0.961 . S
C4487 H4502 0.961 . S
C4487 H4503 0.961 . S
C4488 C4489 1.370 . S
C4488 C4490 1.363 . S
C4488 H4504 0.931 . S
C4489 C4488 1.370 . S
C4489 C4493 1.408 . S
C4490 C4488 1.363 . S
C4490 C4491 1.370 . S
C4490 C4494 1.524 . S
C4491 C4483 1.503 . S
C4491 C4490 1.370 . S
C4491 C4492 1.403 . S
C4492 C4491 1.403 . S
C4492 C4493 1.404 . S
C4492 C4495 1.539 . S
C4493 C4489 1.408 . S
C4493 C4492 1.404 . S
C4493 H4505 0.930 . S
C4494 C4490 1.524 . S
C4494 H4506 0.956 . S
C4494 H4507 0.961 . S
C4494 H4508 0.961 . S
C4495 C4492 1.539 . S
C4495 H4509 0.958 . S
C4495 H4510 0.961 . S
C4495 H4511 0.960 . S
H4496 C4480 0.931 . S
H4497 C4485 0.929 . S
H4498 C4486 0.960 . S
H4499 C4486 0.962 . S
H4500 C4486 0.960 . S
H4501 C4487 0.961 . S
H4502 C4487 0.961 . S
H4503 C4487 0.961 . S
H4504 C4488 0.931 . S
H4505 C4493 0.930 . S
H4506 C4494 0.956 . S
H4507 C4494 0.961 . S
H4508 C4494 0.961 . S
H4509 C4495 0.958 . S
H4510 C4495 0.961 . S
H4511 C4495 0.960 . S
C929 C303 3.144 . S
C937 C13 3.171 . S
C961 C42 3.135 . S
C969 C332 3.171 . S
C993 C245 3.163 . S
C1001 C71 3.154 . S
C1025 C274 3.134 . S
C1033 C100 3.171 . S
C1057 C129 3.176 . S
C1065 C419 3.162 . S
C1089 C448 3.179 . S
C1097 C158 3.155 . S
C1121 C187 3.179 . S
C1129 C361 3.158 . S
C1153 C216 3.175 . S
C1161 C390 3.153 . S
C1185 C767 3.162 . S
C1193 C477 3.166 . S
C1217 C506 3.142 . S
C1225 C796 3.162 . S
C1249 C709 3.145 . S
C1257 C535 3.171 . S
C1281 C564 3.155 . S
C1289 C738 3.168 . S
C1313 C593 3.133 . S
C1321 C883 3.168 . S
C1345 C912 3.160 . S
C1353 C622 3.169 . S
C1377 C651 3.179 . S
C1385 C825 3.156 . S
C1409 C854 3.176 . S
C1417 C680 3.162 . S
C1441 C3 0.862 . S
C1449 C32 0.836 . S
C1473 C61 0.825 . S
C1481 C90 0.851 . S
C1505 C148 0.869 . S
C1513 C119 0.838 . S
C1537 C206 0.869 . S
C1545 C177 0.838 . S
C1569 C264 0.817 . S
C1577 C235 0.862 . S
C1601 C293 0.881 . S
C1609 C322 0.834 . S
C1633 C351 0.860 . S
C1641 C380 0.842 . S
C1665 C438 0.834 . S
C1673 C409 0.852 . S
C1697 C467 0.810 . S
C1705 C496 0.860 . S
C1729 C554 0.810 . S
C1737 C525 0.860 . S
C1761 C612 0.830 . S
C1769 C583 0.853 . S
C1793 C641 0.879 . S
C1801 C670 0.834 . S
C1825 C699 0.870 . S
C1833 C728 0.833 . S
C1857 C757 0.825 . S
C1865 C786 0.851 . S
C1889 C815 0.848 . S
C1897 C844 0.847 . S
C1921 C873 0.880 . S
C1929 C902 0.833 . S
C1953 C5 2.517 . S
C1961 C63 2.508 1_545 S
C1985 C34 2.498 1_545 S
C1993 C92 2.516 . S
C2017 C121 2.496 . S
C2025 C179 2.517 1_565 S
C2049 C150 2.519 1_565 S
C2057 C208 2.508 . S
C2081 C237 2.496 . S
C2089 C295 2.517 . S
C2113 C266 2.518 . S
C2121 C324 2.508 . S
C2145 C411 2.495 . S
C2153 C353 2.517 . S
C2177 C382 2.495 . S
C2185 C440 2.516 . S
C2209 C527 2.518 1_545 S
C2217 C469 2.508 . S
C2241 C498 2.502 1_545 S
C2249 C556 2.514 . S
C2273 C643 2.506 1_565 S
C2281 C585 2.514 . S
C2305 C614 2.495 1_565 S
C2313 C672 2.516 . S
C2337 C701 2.499 . S
C2345 C759 2.516 . S
C2369 C730 2.495 . S
C2377 C788 2.517 . S
C2401 C817 2.519 . S
C2409 C875 2.508 . S
C2433 C846 2.515 . S
C2441 C904 2.508 . S
C2465 C21 0.887 . S
C2473 C108 0.805 . S
C2497 C79 0.791 . S
C2505 C50 0.838 . S
C2529 C137 0.805 . S
C2537 C224 0.836 . S
C2561 C166 0.805 . S
C2569 C195 0.836 . S
C2593 C340 0.786 . S
C2601 C253 0.842 . S
C2625 C311 0.847 . S
C2633 C282 0.828 . S
C2657 C369 0.785 . S
C2665 C456 0.845 . S
C2689 C398 0.798 . S
C2697 C427 0.841 . S
C2721 C485 0.887 . S
C2729 C572 0.805 . S
C2753 C514 0.845 . S
C2761 C543 0.813 . S
C2785 C601 0.870 . S
C2793 C688 0.811 . S
C2817 C630 0.858 . S
C2825 C659 0.814 . S
C2849 C717 0.791 . S
C2857 C804 0.838 . S
C2881 C775 0.878 . S
C2889 C746 0.803 . S
C2913 C920 0.805 . S
C2921 C833 0.836 . S
C2945 C891 0.785 . S
C2953 C862 0.845 . S
C2977 C131 2.700 . S
C2985 C15 2.670 . S
C3009 C856 2.689 . S
C3017 C44 2.675 . S
C3041 C73 2.702 . S
C3049 C421 2.669 . S
C3073 C682 2.696 . S
C3081 C102 2.669 . S
C3105 C160 2.652 . S
C3113 C740 2.687 . S
C3137 C189 2.700 . S
C3145 C305 2.670 . S
C3169 C218 2.700 . S
C3177 C566 2.670 . S
C3201 C363 2.693 . S
C3209 C247 2.673 . S
C3233 C624 2.652 . S
C3241 C276 2.690 . S
C3265 C914 2.645 . S
C3273 C334 2.692 . S
C3297 C508 2.653 . S
C3305 C392 2.687 . S
C3329 C798 2.665 . S
C3337 C450 2.682 . S
C3361 C595 2.645 . S
C3369 C479 2.692 . S
C3393 C537 2.645 . S
C3401 C885 2.692 . S
C3425 C769 2.647 . S
C3433 C653 2.690 . S
C3457 C827 2.703 . S
C3465 C711 2.668 . S
C3489 C8 0.828 . S
C3497 C66 0.883 . S
C3521 C95 0.918 . S
C3529 C37 0.845 . S
C3553 C124 0.821 . S
C3561 C182 0.885 . S
C3585 C153 0.786 . S
C3593 C211 0.866 . S
C3617 C298 0.808 . S
C3625 C240 0.836 . S
C3649 C327 0.923 . S
C3657 C269 0.851 . S
C3681 C356 0.837 . S
C3689 C414 0.886 . S
C3713 C385 0.878 . S
C3721 C443 0.828 . S
C3745 C472 0.793 . S
C3753 C530 0.845 . S
C3777 C501 0.790 . S
C3785 C559 0.866 . S
C3809 C646 0.791 . S
C3817 C588 0.875 . S
C3841 C675 0.786 . S
C3849 C617 0.869 . S
C3873 C704 0.916 . S
C3881 C762 0.872 . S
C3905 C733 0.817 . S
C3913 C791 0.834 . S
C3937 C820 0.847 . S
C3945 C878 0.886 . S
C3969 C907 0.855 . S
C3977 C849 0.830 . S
C4001 C39 3.291 . S
C4009 C10 3.294 . S
C4033 C97 3.291 . S
C4041 C68 3.294 . S
C4065 C155 3.288 . S
C4073 C126 3.297 . S
C4097 C213 3.294 . S
C4105 C184 3.295 . S
C4129 C242 3.300 1_545 S
C4137 C271 3.289 . S
C4161 C329 3.299 1_545 S
C4169 C300 3.284 . S
C4193 C387 3.270 . S
C4201 C358 3.298 1_565 S
C4225 C416 3.288 . S
C4233 C445 3.297 1_565 S
C4257 C474 3.300 . S
C4265 C503 3.289 . S
C4289 C561 3.272 . S
C4297 C532 3.299 . S
C4321 C590 3.303 . S
C4329 C619 3.287 . S
C4353 C648 3.300 . S
C4361 C677 3.292 . S
C4385 C735 3.271 . S
C4393 C706 3.294 1_545 S
C4417 C793 3.272 1_545 S
C4425 C764 3.299 . S
C4449 C851 3.300 . S
C4457 C822 3.292 1_565 S
C4481 C880 3.283 . S
C4489 C909 3.298 1_565 S
