# Generated by pormake.
# Topology rac, (4)-cn, num edge types: 1
# Building blocks:
#     Node 0, Type 0, BuildingBlock: NAHDIM_clean_sbu_0, # of connection points: 4
#     Node 1, Type 0, BuildingBlock: NAHDIM_clean_sbu_0, # of connection points: 4
#     Node 2, Type 0, BuildingBlock: NAHDIM_clean_sbu_0, # of connection points: 4
#     Node 3, Type 0, BuildingBlock: NAHDIM_clean_sbu_0, # of connection points: 4
#     Node 4, Type 0, BuildingBlock: NAHDIM_clean_sbu_0, # of connection points: 4
#     Node 5, Type 0, BuildingBlock: NAHDIM_clean_sbu_0, # of connection points: 4
#     Node 6, Type 0, BuildingBlock: NAHDIM_clean_sbu_0, # of connection points: 4
#     Node 7, Type 0, BuildingBlock: NAHDIM_clean_sbu_0, # of connection points: 4
#     Edge 8, Type (0, 0), BuildingBlock: XUDNAN_clean_linker_2, # of connection points: 2
#     Edge 9, Type (0, 0), BuildingBlock: XUDNAN_clean_linker_2, # of connection points: 2
#     Edge 10, Type (0, 0), BuildingBlock: XUDNAN_clean_linker_2, # of connection points: 2
#     Edge 11, Type (0, 0), BuildingBlock: XUDNAN_clean_linker_2, # of connection points: 2
#     Edge 12, Type (0, 0), BuildingBlock: XUDNAN_clean_linker_2, # of connection points: 2
#     Edge 13, Type (0, 0), BuildingBlock: XUDNAN_clean_linker_2, # of connection points: 2
#     Edge 14, Type (0, 0), BuildingBlock: XUDNAN_clean_linker_2, # of connection points: 2
#     Edge 15, Type (0, 0), BuildingBlock: XUDNAN_clean_linker_2, # of connection points: 2
#     Edge 16, Type (0, 0), BuildingBlock: XUDNAN_clean_linker_2, # of connection points: 2
#     Edge 17, Type (0, 0), BuildingBlock: XUDNAN_clean_linker_2, # of connection points: 2
#     Edge 18, Type (0, 0), BuildingBlock: XUDNAN_clean_linker_2, # of connection points: 2
#     Edge 19, Type (0, 0), BuildingBlock: XUDNAN_clean_linker_2, # of connection points: 2
#     Edge 20, Type (0, 0), BuildingBlock: XUDNAN_clean_linker_2, # of connection points: 2
#     Edge 21, Type (0, 0), BuildingBlock: XUDNAN_clean_linker_2, # of connection points: 2
#     Edge 22, Type (0, 0), BuildingBlock: XUDNAN_clean_linker_2, # of connection points: 2
#     Edge 23, Type (0, 0), BuildingBlock: XUDNAN_clean_linker_2, # of connection points: 2
# Relax obj value: 0.227
# Max RMSD: 0.117
# Mean RMSD: 0.117
data_MOF--net-rac--node1-NAHDIM_clean_sbu_0--edge1-XUDNAN_clean_linker_2
_symmetry_space_group_name_H-M    P1
_symmetry_Int_Tables_number       1
_symmetry_cell_setting            triclinic
loop_
_symmetry_equiv_pos_as_xyz
'x, y, z'
_cell_length_a     39.6954
_cell_length_b     20.713797
_cell_length_c     41.688167
_cell_angle_alpha  90.037387
_cell_angle_beta   89.991416
_cell_angle_gamma 89.945868
loop_
_atom_site_label
_atom_site_type_symbol
_atom_site_fract_x
_atom_site_fract_y
_atom_site_fract_z
_atom_type_partial_charge
C0 C 0.42471 0.34181 0.06726 0.0
O1 O 0.41341 0.34301 0.09689 0.0
O2 O 0.40362 0.20498 0.11478 0.0
Zn3 Zn 0.38336 0.23581 0.07305 0.0
O4 O 0.34684 0.29488 0.08744 0.0
C5 C 0.35678 0.10824 0.0584 0.0
O6 O 0.37695 0.09076 0.08181 0.0
O7 O 0.41631 0.29448 0.0494 0.0
C8 C 0.32753 0.32262 0.06757 0.0
O9 O 0.33145 0.31171 0.03673 0.0
C10 C 0.38301 0.18818 0.13659 0.0
O11 O 0.35081 0.1841 0.12953 0.0
O12 O 0.35848 0.16585 0.04793 0.0
C13 C 0.04138 0.69162 0.04519 0.0
O14 O 0.02982 0.73028 0.06762 0.0
O15 O 0.08774 0.75857 0.11086 0.0
Zn16 Zn 0.10725 0.73669 0.06731 0.0
O17 O 0.14169 0.66719 0.07479 0.0
C18 C 0.15714 0.83073 0.06816 0.0
O19 O 0.15794 0.80515 0.09696 0.0
O20 O 0.07264 0.69301 0.03842 0.0
C21 C 0.155 0.65317 0.10165 0.0
O22 O 0.14648 0.68558 0.12748 0.0
C23 C 0.07356 0.71428 0.12713 0.0
O24 O 0.06947 0.65708 0.11406 0.0
O25 O 0.13422 0.81223 0.04882 0.0
C26 C 0.43311 0.168 0.45577 0.0
O27 O 0.41583 0.13843 0.43327 0.0
O28 O 0.39908 0.2519 0.38755 0.0
Zn29 Zn 0.38797 0.2625 0.43485 0.0
O30 O 0.34831 0.20906 0.44665 0.0
C31 C 0.37648 0.39982 0.42462 0.0
O32 O 0.39686 0.3912 0.40016 0.0
O33 O 0.42662 0.22721 0.46157 0.0
C34 C 0.31934 0.21853 0.43469 0.0
O35 O 0.31519 0.26225 0.41222 0.0
C36 C 0.38605 0.20826 0.37 0.0
O37 O 0.36448 0.16748 0.38258 0.0
O38 O 0.37179 0.35361 0.44414 0.0
C39 C 0.06998 0.82515 0.4466 0.0
O40 O 0.06783 0.83767 0.41579 0.0
O41 O 0.10605 0.74684 0.37867 0.0
Zn42 Zn 0.12699 0.76481 0.42206 0.0
O43 O 0.15136 0.84926 0.42199 0.0
C44 C 0.18858 0.7066 0.4128 0.0
O45 O 0.18563 0.75048 0.39022 0.0
O46 O 0.0916 0.78365 0.45595 0.0
C47 C 0.16198 0.86448 0.44973 0.0
O48 O 0.15682 0.8245 0.47369 0.0
C49 C 0.10987 0.78547 0.35524 0.0
O50 O 0.12755 0.83838 0.35938 0.0
O51 O 0.16381 0.69812 0.43182 0.0
C52 C 0.56502 0.66617 0.95746 0.0
O53 O 0.57706 0.64055 0.93099 0.0
O54 O 0.5958 0.76035 0.89073 0.0
Zn55 Zn 0.61118 0.76006 0.93689 0.0
O56 O 0.64993 0.69824 0.93759 0.0
C57 C 0.62373 0.89797 0.93236 0.0
O58 O 0.59969 0.89501 0.91076 0.0
O59 O 0.57521 0.7221 0.96578 0.0
C60 C 0.6794 0.7131 0.94688 0.0
O61 O 0.68513 0.77082 0.95871 0.0
C62 C 0.61923 0.76653 0.87016 0.0
O63 O 0.65017 0.77601 0.88033 0.0
O64 O 0.63022 0.84799 0.94892 0.0
C65 C 0.93726 0.31042 0.9463 0.0
O66 O 0.94334 0.31722 0.91553 0.0
O67 O 0.90069 0.22599 0.87786 0.0
Zn68 Zn 0.8792 0.25138 0.92029 0.0
O69 O 0.8563 0.33706 0.91584 0.0
C70 C 0.82525 0.16392 0.90954 0.0
O71 O 0.83519 0.17614 0.88012 0.0
O72 O 0.91303 0.274 0.95495 0.0
C73 C 0.8288 0.34977 0.90171 0.0
O74 O 0.81273 0.30402 0.88626 0.0
C75 C 0.90291 0.26653 0.85503 0.0
O76 O 0.89354 0.32653 0.85999 0.0
O77 O 0.84202 0.1874 0.93284 0.0
C78 C 0.5792 0.84674 0.56123 0.0
O79 O 0.59657 0.85354 0.58785 0.0
O80 O 0.60423 0.72484 0.61441 0.0
Zn81 Zn 0.61765 0.73825 0.56793 0.0
O82 O 0.65798 0.7952 0.56806 0.0
C83 C 0.64383 0.60876 0.56404 0.0
O84 O 0.63281 0.60724 0.59372 0.0
O85 O 0.58209 0.79383 0.54574 0.0
C86 C 0.67464 0.80196 0.54231 0.0
O87 O 0.66499 0.77106 0.51636 0.0
C88 C 0.62705 0.72742 0.63579 0.0
O89 O 0.65861 0.73385 0.62683 0.0
O90 O 0.63566 0.65648 0.54641 0.0
C91 C 0.96437 0.20137 0.54885 0.0
O92 O 0.97007 0.22702 0.57714 0.0
O93 O 0.90586 0.2416 0.60909 0.0
Zn94 Zn 0.89489 0.23782 0.56165 0.0
O95 O 0.86395 0.16344 0.55424 0.0
C96 C 0.84343 0.32903 0.56665 0.0
O97 O 0.84148 0.29571 0.59337 0.0
O98 O 0.93586 0.21056 0.53562 0.0
C99 C 0.8441 0.13774 0.57436 0.0
O100 O 0.84231 0.16057 0.60371 0.0
C101 C 0.91555 0.19113 0.62386 0.0
O102 O 0.91942 0.13713 0.6077 0.0
O103 O 0.86765 0.31683 0.54746 0.0
H104 H 0.33445 0.00183 0.09046 0.0
H105 H 0.3119 0.12286 0.00834 0.0
H106 H 0.25911 0.06151 0.9994 0.0
H107 H 0.2988 0.85076 0.05986 0.0
H108 H 0.28264 0.82856 0.09873 0.0
H109 H 0.32017 0.877 0.09573 0.0
H110 H 0.29252 0.96411 0.13188 0.0
H111 H 0.25481 0.91638 0.13469 0.0
H112 H 0.25254 0.99834 0.12035 0.0
H113 H 0.20637 0.98839 0.0018 0.0
H114 H 0.15966 0.91386 0.01611 0.0
H115 H 0.21709 0.84788 0.09833 0.0
C116 C 0.31895 0.01458 0.07004 0.0
C117 C 0.32763 0.06669 0.04983 0.0
C118 C 0.30599 0.08267 0.02395 0.0
C119 C 0.27591 0.04813 0.01873 0.0
C120 C 0.26771 0.99804 0.03973 0.0
C121 C 0.28876 0.98147 0.06485 0.0
C122 C 0.2734 0.9294 0.08559 0.0
C123 C 0.29504 0.86778 0.08492 0.0
C124 C 0.268 0.95353 0.12016 0.0
C125 C 0.24023 0.91944 0.0685 0.0
C126 C 0.23735 0.95868 0.04186 0.0
C127 C 0.2085 0.95745 0.02261 0.0
C128 C 0.18207 0.91509 0.03089 0.0
C129 C 0.18454 0.87542 0.05846 0.0
C130 C 0.21414 0.87792 0.07726 0.0
H131 H 0.20231 0.59104 0.44447 0.0
H132 H 0.24866 0.74324 0.38812 0.0
H133 H 0.30279 0.68608 0.38998 0.0
H134 H 0.27696 0.55498 0.4949 0.0
H135 H 0.26954 0.46915 0.49456 0.0
H136 H 0.23458 0.52446 0.49164 0.0
H137 H 0.21548 0.46922 0.43895 0.0
H138 H 0.25027 0.41374 0.44177 0.0
H139 H 0.24485 0.46192 0.40615 0.0
H140 H 0.35064 0.61006 0.39349 0.0
H141 H 0.3894 0.51731 0.39804 0.0
H142 H 0.31396 0.41292 0.45262 0.0
C143 C 0.22401 0.61266 0.43301 0.0
C144 C 0.22112 0.67176 0.41617 0.0
C145 C 0.25005 0.69797 0.40105 0.0
C146 C 0.28108 0.66604 0.4021 0.0
C147 C 0.28307 0.60765 0.4184 0.0
C148 C 0.25543 0.58096 0.43362 0.0
C149 C 0.26432 0.51537 0.44763 0.0
C150 C 0.26116 0.51606 0.48437 0.0
C151 C 0.24243 0.46192 0.43273 0.0
C152 C 0.30093 0.50919 0.43726 0.0
C153 C 0.3112 0.56336 0.42066 0.0
C154 C 0.34311 0.56769 0.40685 0.0
C155 C 0.36496 0.51477 0.40954 0.0
C156 C 0.35495 0.45828 0.42602 0.0
C157 C 0.32267 0.45607 0.44055 0.0
H158 H 0.68518 0.90855 0.9631 0.0
H159 H 0.61656 0.01193 0.9003 0.0
H160 H 0.6595 0.09597 0.89209 0.0
H161 H 0.72649 0.0552 0.99851 0.0
H162 H 0.76725 0.01679 0.99937 0.0
H163 H 0.72959 0.96908 0.00402 0.0
H164 H 0.74819 0.89683 0.9565 0.0
H165 H 0.78566 0.94458 0.95145 0.0
H166 H 0.7572 0.93346 0.91823 0.0
H167 H 0.71161 0.1587 0.88368 0.0
H168 H 0.76894 0.20304 0.87933 0.0
H169 H 0.80465 0.0644 0.94943 0.0
C170 C 0.67881 0.94983 0.9484 0.0
C171 C 0.64733 0.9536 0.93241 0.0
C172 C 0.64032 0.00792 0.9129 0.0
C173 C 0.6646 0.05599 0.90807 0.0
C174 C 0.69573 0.0496 0.92317 0.0
C175 C 0.70282 0.99854 0.94336 0.0
C176 C 0.73917 0.0013 0.95486 0.0
C177 C 0.74071 0.0112 0.99136 0.0
C178 C 0.75869 0.94043 0.94464 0.0
C179 C 0.75163 0.0607 0.93711 0.0
C180 C 0.72599 0.08764 0.91904 0.0
C181 C 0.73168 0.13909 0.89831 0.0
C182 C 0.76437 0.16376 0.8959 0.0
C183 C 0.791 0.13779 0.91441 0.0
C184 C 0.7845 0.08604 0.93561 0.0
H185 H 0.66934 0.50778 0.59839 0.0
H186 H 0.68247 0.6116 0.50891 0.0
H187 H 0.73458 0.54924 0.49824 0.0
H188 H 0.75358 0.50877 0.62098 0.0
H189 H 0.75316 0.4295 0.63879 0.0
H190 H 0.71507 0.47651 0.63734 0.0
H191 H 0.68447 0.38377 0.60742 0.0
H192 H 0.72235 0.33596 0.60924 0.0
H193 H 0.70253 0.35145 0.57112 0.0
H194 H 0.78864 0.47959 0.50004 0.0
H195 H 0.83665 0.40719 0.51304 0.0
H196 H 0.78722 0.35399 0.60201 0.0
C197 C 0.68264 0.51657 0.57614 0.0
C198 C 0.67156 0.56443 0.5544 0.0
C199 C 0.69016 0.57473 0.5258 0.0
C200 C 0.71993 0.53973 0.51962 0.0
C201 C 0.73074 0.49447 0.54221 0.0
C202 C 0.71233 0.48253 0.56974 0.0
C203 C 0.72987 0.43418 0.59117 0.0
C204 C 0.73842 0.46405 0.624 0.0
C205 C 0.70854 0.3727 0.59494 0.0
C206 C 0.76134 0.4213 0.57175 0.0
C207 C 0.76151 0.456 0.54347 0.0
C208 C 0.78856 0.45199 0.52207 0.0
C209 C 0.81581 0.41098 0.52969 0.0
C210 C 0.81587 0.37494 0.55858 0.0
C211 C 0.78819 0.3808 0.57974 0.0
H212 H 0.34785 0.1365 0.18659 0.0
H213 H 0.44188 0.23215 0.16316 0.0
H214 H 0.4552 0.2409 0.22092 0.0
H215 H 0.32675 0.23093 0.2516 0.0
H216 H 0.30918 0.16686 0.27556 0.0
H217 H 0.30903 0.16056 0.23254 0.0
H218 H 0.34093 0.05154 0.2358 0.0
H219 H 0.3408 0.05704 0.27895 0.0
H220 H 0.38001 0.04692 0.25771 0.0
H221 H 0.45405 0.25322 0.28119 0.0
H222 H 0.44124 0.25818 0.33925 0.0
H223 H 0.34916 0.15041 0.32287 0.0
C224 C 0.37164 0.15787 0.19356 0.0
C225 C 0.39385 0.18357 0.17042 0.0
C226 C 0.42463 0.2116 0.18049 0.0
C227 C 0.43235 0.217 0.21324 0.0
C228 C 0.40929 0.19315 0.23551 0.0
C229 C 0.37986 0.16301 0.22605 0.0
C230 C 0.35849 0.14431 0.25463 0.0
C231 C 0.32383 0.17768 0.2535 0.0
C232 C 0.35486 0.07057 0.2569 0.0
C233 C 0.37994 0.17051 0.28163 0.0
C234 C 0.40916 0.19849 0.27018 0.0
C235 C 0.43161 0.23027 0.29049 0.0
C236 C 0.42404 0.2332 0.32336 0.0
C237 C 0.39441 0.20412 0.33554 0.0
C238 C 0.37232 0.17204 0.31434 0.0
H239 H 0.11977 0.85081 0.29897 0.0
H240 H 0.06844 0.68453 0.33923 0.0
H241 H 0.04762 0.65557 0.28528 0.0
H242 H 0.05658 0.88927 0.23681 0.0
H243 H 0.08835 0.91133 0.20794 0.0
H244 H 0.09599 0.92309 0.25016 0.0
H245 H 0.15059 0.85477 0.24603 0.0
H246 H 0.14317 0.84304 0.20388 0.0
H247 H 0.14843 0.77416 0.2298 0.0
H248 H 0.03701 0.639 0.22653 0.0
H249 H 0.03885 0.63422 0.16738 0.0
H250 H 0.09683 0.81174 0.16565 0.0
C251 C 0.10365 0.80894 0.29659 0.0
C252 C 0.09563 0.77006 0.32335 0.0
C253 C 0.07487 0.71512 0.31908 0.0
C254 C 0.06279 0.69845 0.28856 0.0
C255 C 0.07155 0.73739 0.26261 0.0
C256 C 0.09147 0.79156 0.26633 0.0
C257 C 0.09941 0.82248 0.23432 0.0
C258 C 0.08416 0.89058 0.23219 0.0
C259 C 0.13766 0.82363 0.22816 0.0
C260 C 0.08166 0.77619 0.2119 0.0
C261 C 0.06538 0.72789 0.2287 0.0
C262 C 0.04924 0.67707 0.21312 0.0
C263 C 0.05044 0.67475 0.17952 0.0
C264 C 0.06777 0.72282 0.1619 0.0
C265 C 0.08284 0.77492 0.17839 0.0
H266 H 0.66549 0.76564 0.82181 0.0
H267 H 0.55808 0.75107 0.83998 0.0
H268 H 0.54801 0.73653 0.78179 0.0
H269 H 0.66001 0.85426 0.7485 0.0
H270 H 0.69504 0.81275 0.73024 0.0
H271 H 0.6933 0.82191 0.77314 0.0
H272 H 0.6988 0.69789 0.77985 0.0
H273 H 0.70037 0.68831 0.73694 0.0
H274 H 0.66913 0.64554 0.75999 0.0
H275 H 0.55016 0.72444 0.72101 0.0
H276 H 0.56422 0.71765 0.66325 0.0
H277 H 0.67028 0.73857 0.68639 0.0
C278 C 0.63978 0.75965 0.81365 0.0
C279 C 0.61254 0.75969 0.83543 0.0
C280 C 0.57934 0.75131 0.82369 0.0
C281 C 0.57339 0.74291 0.79072 0.0
C282 C 0.60093 0.74274 0.76993 0.0
C283 C 0.63345 0.75092 0.78101 0.0
C284 C 0.65878 0.74891 0.75395 0.0
C285 C 0.67789 0.81329 0.75131 0.0
C286 C 0.6832 0.69176 0.75793 0.0
C287 C 0.63545 0.73885 0.72576 0.0
C288 C 0.60218 0.73522 0.73535 0.0
C289 C 0.57615 0.72703 0.71327 0.0
C290 C 0.58438 0.72313 0.68053 0.0
C291 C 0.61835 0.72742 0.67029 0.0
C292 C 0.64408 0.73482 0.69337 0.0
H293 H 0.90549 0.29268 0.665 0.0
H294 H 0.93636 0.0916 0.6623 0.0
H295 H 0.94105 0.09126 0.72135 0.0
H296 H 0.95934 0.34137 0.73253 0.0
H297 H 0.92775 0.3947 0.74879 0.0
H298 H 0.92968 0.38054 0.70618 0.0
H299 H 0.86715 0.34452 0.70647 0.0
H300 H 0.86503 0.35851 0.74901 0.0
H301 H 0.85412 0.28047 0.73296 0.0
H302 H 0.93779 0.11041 0.781 0.0
H303 H 0.92705 0.14796 0.83639 0.0
H304 H 0.89918 0.33666 0.79964 0.0
C305 C 0.91375 0.24882 0.67675 0.0
C306 C 0.92063 0.19221 0.65901 0.0
C307 C 0.93101 0.13563 0.67537 0.0
C308 C 0.93383 0.13498 0.70891 0.0
C309 C 0.92639 0.19138 0.72571 0.0
C310 C 0.91672 0.24734 0.71016 0.0
C311 C 0.9084 0.30045 0.73381 0.0
C312 C 0.93275 0.35764 0.7301 0.0
C313 C 0.87149 0.32222 0.73035 0.0
C314 C 0.91419 0.26523 0.76512 0.0
C315 C 0.92477 0.2025 0.75999 0.0
C316 C 0.92992 0.15969 0.78533 0.0
C317 C 0.92373 0.18141 0.81669 0.0
C318 C 0.91248 0.24533 0.82238 0.0
C319 C 0.90818 0.28778 0.79618 0.0
H320 H 0.45652 0.35638 0.00835 0.0
H321 H 0.43867 0.4531 0.09928 0.0
H322 H 0.47079 0.54707 0.08052 0.0
H323 H 0.54181 0.41323 0.99829 0.0
H324 H 0.53826 0.42322 0.95547 0.0
H325 H 0.51315 0.36337 0.97568 0.0
H326 H 0.45899 0.41425 0.95189 0.0
H327 H 0.48396 0.47443 0.93172 0.0
H328 H 0.45052 0.49879 0.95839 0.0
H329 H 0.50466 0.63142 0.05232 0.0
H330 H 0.54048 0.69813 0.01698 0.0
H331 H 0.53752 0.54733 0.94461 0.0
C332 C 0.45938 0.39732 0.02427 0.0
C333 C 0.44496 0.39709 0.05531 0.0
C334 C 0.44944 0.45173 0.07542 0.0
C335 C 0.46761 0.50566 0.06498 0.0
C336 C 0.48138 0.50453 0.03432 0.0
C337 C 0.47772 0.45177 0.01427 0.0
C338 C 0.4958 0.46286 0.9827 0.0
C339 C 0.52393 0.41269 0.97776 0.0
C340 C 0.47082 0.46257 0.95451 0.0
C341 C 0.51017 0.52984 0.98828 0.0
C342 C 0.50137 0.55312 0.01815 0.0
C343 C 0.51176 0.61375 0.02884 0.0
C344 C 0.53204 0.65138 0.00857 0.0
C345 C 0.54186 0.62814 0.97802 0.0
C346 C 0.53048 0.56665 0.9678 0.0
H347 H 0.05251 0.61168 0.99328 0.0
H348 H 0.98325 0.64645 0.07203 0.0
H349 H 0.95211 0.5475 0.05794 0.0
H350 H 0.98891 0.55249 0.93791 0.0
H351 H 0.01672 0.49382 0.91999 0.0
H352 H 0.03367 0.56706 0.93672 0.0
H353 H 0.07328 0.49909 0.97281 0.0
H354 H 0.05593 0.42561 0.95663 0.0
H355 H 0.05553 0.43939 0.99933 0.0
H356 H 0.9299 0.44181 0.03692 0.0
H357 H 0.91238 0.34734 0.00488 0.0
H358 H 0.99412 0.38369 0.93814 0.0
C359 C 0.0306 0.59879 0.00736 0.0
C360 C 0.02039 0.63694 0.0338 0.0
C361 C 0.9915 0.61842 0.05154 0.0
C362 C 0.97379 0.56186 0.04393 0.0
C363 C 0.98499 0.52454 0.01824 0.0
C364 C 0.01227 0.54291 -0.00022 0.0
C365 C 0.01811 0.49564 0.97254 0.0
C366 C 0.0141 0.52926 0.93986 0.0
C367 C 0.05277 0.46301 0.97552 0.0
C368 C 0.98985 0.44792 0.97859 0.0
C369 C 0.97142 0.46487 0.00541 0.0
C370 C 0.94407 0.42819 0.01579 0.0
C371 C 0.93448 0.37419 0.99758 0.0
C372 C 0.95188 0.35793 0.96901 0.0
C373 C 0.98039 0.39465 0.95992 0.0
H374 H 0.53785 0.85385 0.5075 0.0
H375 H 0.57444 0.9657 0.58849 0.0
H376 H 0.54265 0.06001 0.56965 0.0
H377 H 0.53997 0.98366 0.44962 0.0
H378 H 0.50165 0.95956 0.42977 0.0
H379 H 0.52758 0.89994 0.44928 0.0
H380 H 0.47659 0.8633 0.48352 0.0
H381 H 0.45048 0.92259 0.46399 0.0
H382 H 0.45397 0.92208 0.5071 0.0
H383 H 0.50731 0.14344 0.54222 0.0
H384 H 0.46839 0.20822 0.50889 0.0
H385 H 0.45382 0.04319 0.44611 0.0
C386 C 0.53911 0.89813 0.52126 0.0
C387 C 0.55875 0.90203 0.5495 0.0
C388 C 0.55963 0.96107 0.56681 0.0
C389 C 0.54168 0.01525 0.55628 0.0
C390 C 0.52275 0.01003 0.52837 0.0
C391 C 0.52112 0.953 0.51114 0.0
C392 C 0.49831 0.96049 0.4822 0.0
C393 C 0.51807 0.95031 0.45086 0.0
C394 C 0.46804 0.91438 0.48435 0.0
C395 C 0.48745 0.03038 0.48601 0.0
C396 C 0.50199 0.05817 0.5127 0.0
C397 C 0.49571 0.12224 0.52123 0.0
C398 C 0.47364 0.15874 0.50212 0.0
C399 C 0.458 0.13097 0.47491 0.0
C400 C 0.46532 0.066 0.46676 0.0
H401 H 0.95926 0.13283 0.49233 0.0
H402 H 0.01889 0.14836 0.57931 0.0
H403 H 0.04978 0.04946 0.56441 0.0
H404 H 0.95114 0.96242 0.492 0.0
H405 H 0.95524 0.95382 0.44915 0.0
H406 H 0.93834 0.02724 0.46585 0.0
H407 H 0.98383 0.09445 0.43633 0.0
H408 H 1.00036 0.02139 0.41895 0.0
H409 H 0.02767 0.07411 0.44145 0.0
H410 H 0.07204 0.94457 0.54156 0.0
H411 H 0.08992 0.8518 0.50829 0.0
H412 H 0.01684 0.90625 0.43576 0.0
C413 C 0.97918 0.11611 0.50802 0.0
C414 C 0.98655 0.14861 0.53704 0.0
C415 C 0.01279 0.12473 0.55688 0.0
C416 C 0.03034 0.06816 0.54876 0.0
C417 C 0.02163 0.03612 0.52057 0.0
C418 C 0.99715 0.05995 0.50017 0.0
C419 C 0.99304 0.01696 0.47101 0.0
C420 C 0.95732 0.98844 0.46943 0.0
C421 C 0.00176 0.05393 0.44011 0.0
C422 C 0.01896 0.96519 0.47824 0.0
C423 C 0.03489 0.97661 0.50713 0.0
C424 C 0.0598 0.93527 0.51883 0.0
C425 C 0.06956 0.88225 0.49991 0.0
C426 C 0.05469 0.87151 0.46948 0.0
C427 C 0.02856 0.91291 0.45899 0.0
H428 H 0.182 0.58459 0.05187 0.0
H429 H 0.18574 0.60567 0.1555 0.0
H430 H 0.22923 0.52049 0.15816 0.0
H431 H 0.1934 0.41158 0.0495 0.0
H432 H 0.2193 0.41402 0.014 0.0
H433 H 0.18766 0.47507 0.02044 0.0
H434 H 0.23309 0.56425 0.01496 0.0
H435 H 0.26486 0.50354 0.00852 0.0
H436 H 0.26985 0.56173 0.04032 0.0
H437 H 0.27293 0.43518 0.14936 0.0
H438 H 0.3147 0.35636 0.12977 0.0
H439 H 0.28241 0.39217 0.0318 0.0
C440 C 0.19177 0.57109 0.07518 0.0
C441 C 0.18047 0.60159 0.1035 0.0
C442 C 0.19406 0.58286 0.13349 0.0
C443 C 0.21869 0.53451 0.13526 0.0
C444 C 0.22934 0.50563 0.10683 0.0
C445 C 0.21635 0.52322 0.07737 0.0
C446 C 0.23271 0.48596 0.05033 0.0
C447 C 0.20671 0.44418 0.03253 0.0
C448 C 0.25123 0.5316 0.02718 0.0
C449 C 0.25714 0.44488 0.06918 0.0
C450 C 0.25469 0.45675 0.10173 0.0
C451 C 0.27503 0.42529 0.12395 0.0
C452 C 0.29867 0.38065 0.11255 0.0
C453 C 0.30178 0.36817 0.07924 0.0
C454 C 0.28058 0.40057 0.05738 0.0
H455 H 0.26942 0.16919 0.39711 0.0
H456 H 0.30796 0.17211 0.49439 0.0
H457 H 0.26547 0.09142 0.5104 0.0
H458 H 0.17862 0.13594 0.4172 0.0
H459 H 0.1741 0.08197 0.38355 0.0
H460 H 0.20268 0.14939 0.38114 0.0
H461 H 0.25136 0.07119 0.36656 0.0
H462 H 0.22308 0.00367 0.36916 0.0
H463 H 0.26094 0.00484 0.39302 0.0
H464 H 0.22452 0.00256 0.51445 0.0
H465 H 0.18882 0.90699 0.50605 0.0
H466 H 0.17838 0.957 0.40535 0.0
C467 C 0.268 0.15434 0.42198 0.0
C468 C 0.2914 0.1771 0.44472 0.0
C469 C 0.28992 0.1552 0.47679 0.0
C470 C 0.26581 0.1098 0.48611 0.0
C471 C 0.24364 0.08665 0.46295 0.0
C472 C 0.24447 0.108 0.43152 0.0
C473 C 0.22092 0.06906 0.41051 0.0
C474 C 0.19238 0.11164 0.39733 0.0
C475 C 0.24024 0.03519 0.38322 0.0
C476 C 0.20776 0.02105 0.43481 0.0
C477 C 0.22063 0.03308 0.46502 0.0
C478 C 0.21386 0.99308 0.49102 0.0
C479 C 0.19369 0.93875 0.48596 0.0
C480 C 0.18092 0.92457 0.45503 0.0
C481 C 0.18764 0.96689 0.42929 0.0
H482 H 0.67617 0.59411 0.91885 0.0
H483 H 0.7458 0.72915 0.96308 0.0
H484 H 0.7927 0.65339 0.95274 0.0
H485 H 0.71314 0.4511 0.94977 0.0
H486 H 0.7057 0.40457 0.91392 0.0
H487 H 0.67811 0.47051 0.92399 0.0
H488 H 0.6895 0.52218 0.86839 0.0
H489 H 0.71741 0.45661 0.85826 0.0
H490 H 0.73225 0.53873 0.85634 0.0
H491 H 0.83135 0.56152 0.93927 0.0
H492 H 0.85885 0.45831 0.92549 0.0
H493 H 0.76372 0.38499 0.8892 0.0
C494 C 0.70126 0.60791 0.92639 0.0
C495 C 0.70737 0.66745 0.94182 0.0
C496 C 0.74057 0.68366 0.95127 0.0
C497 C 0.76736 0.64114 0.94537 0.0
C498 C 0.76044 0.58302 0.92989 0.0
C499 C 0.7282 0.56635 0.9206 0.0
C500 C 0.72727 0.50033 0.90515 0.0
C501 C 0.70473 0.4539 0.92437 0.0
C502 C 0.71594 0.50477 0.86994 0.0
C503 C 0.764 0.48191 0.90766 0.0
C504 C 0.78275 0.53041 0.9218 0.0
C505 C 0.81701 0.52338 0.92795 0.0
C506 C 0.83237 0.46462 0.92004 0.0
C507 C 0.8134 0.41381 0.90618 0.0
C508 C 0.77895 0.42323 0.89938 0.0
H509 H 0.69725 0.8795 0.59067 0.0
H510 H 0.71746 0.8241 0.492 0.0
H511 H 0.76491 0.90109 0.49032 0.0
H512 H 0.71287 0.04599 0.58083 0.0
H513 H 0.73218 0.0563 0.61962 0.0
H514 H 0.70121 0.99404 0.61367 0.0
H515 H 0.74365 0.90802 0.63392 0.0
H516 H 0.77478 0.97007 0.64001 0.0
H517 H 0.78438 0.90141 0.61503 0.0
H518 H 0.80825 0.98692 0.49869 0.0
H519 H 0.8447 0.07637 0.51631 0.0
H520 H 0.79568 0.07558 0.60952 0.0
C521 C 0.71182 0.88302 0.56878 0.0
C522 C 0.70376 0.84582 0.54146 0.0
C523 C 0.72326 0.85219 0.51321 0.0
C524 C 0.75026 0.89563 0.51204 0.0
C525 C 0.75731 0.93199 0.53934 0.0
C526 C 0.73871 0.92608 0.56718 0.0
C527 C 0.75066 0.97243 0.59279 0.0
C528 C 0.72256 0.02 0.60226 0.0
C529 C 0.76418 0.93578 0.62217 0.0
C530 C 0.77869 0.00597 0.57485 0.0
C531 C 0.78223 0.9817 0.54414 0.0
C532 C 0.80587 0.00613 0.52274 0.0
C533 C 0.82638 0.05701 0.53298 0.0
C534 C 0.823 0.08291 0.56431 0.0
C535 C 0.79896 0.05664 0.5855 0.0
loop_
_geom_bond_atom_site_label_1
_geom_bond_atom_site_label_2
_geom_bond_distance
_geom_bond_site_symmetry_2
_ccdc_geom_bond_type
C0 O1 1.160 . S
C0 O7 1.185 . S
O1 C0 1.160 . S
O2 Zn3 1.899 . S
O2 C10 1.284 . S
Zn3 O2 1.899 . S
Zn3 O4 2.032 . S
Zn3 O7 2.086 . S
Zn3 O12 1.977 . S
O4 Zn3 2.032 . S
O4 C8 1.278 . S
C5 O6 1.203 . S
C5 O12 1.267 . S
O6 C5 1.203 . S
O7 C0 1.185 . S
O7 Zn3 2.086 . S
C8 O4 1.278 . S
C8 O9 1.211 . S
O9 C8 1.211 . S
C10 O2 1.284 . S
C10 O11 1.273 . S
O11 C10 1.273 . S
O12 Zn3 1.977 . S
O12 C5 1.267 . S
C13 O14 1.160 . S
C13 O20 1.185 . S
O14 C13 1.160 . S
O15 Zn16 1.899 . S
O15 C23 1.284 . S
Zn16 O15 1.899 . S
Zn16 O17 2.032 . S
Zn16 O20 2.086 . S
Zn16 O25 1.977 . S
O17 Zn16 2.032 . S
O17 C21 1.278 . S
C18 O19 1.203 . S
C18 O25 1.267 . S
O19 C18 1.203 . S
O20 C13 1.185 . S
O20 Zn16 2.086 . S
C21 O17 1.278 . S
C21 O22 1.211 . S
O22 C21 1.211 . S
C23 O15 1.284 . S
C23 O24 1.273 . S
O24 C23 1.273 . S
O25 Zn16 1.977 . S
O25 C18 1.267 . S
C26 O27 1.160 . S
C26 O33 1.185 . S
O27 C26 1.160 . S
O28 Zn29 1.899 . S
O28 C36 1.284 . S
Zn29 O28 1.899 . S
Zn29 O30 2.032 . S
Zn29 O33 2.086 . S
Zn29 O38 1.977 . S
O30 Zn29 2.032 . S
O30 C34 1.278 . S
C31 O32 1.203 . S
C31 O38 1.267 . S
O32 C31 1.203 . S
O33 C26 1.185 . S
O33 Zn29 2.086 . S
C34 O30 1.278 . S
C34 O35 1.211 . S
O35 C34 1.211 . S
C36 O28 1.284 . S
C36 O37 1.273 . S
O37 C36 1.273 . S
O38 Zn29 1.977 . S
O38 C31 1.267 . S
C39 O40 1.160 . S
C39 O46 1.185 . S
O40 C39 1.160 . S
O41 Zn42 1.899 . S
O41 C49 1.284 . S
Zn42 O41 1.899 . S
Zn42 O43 2.032 . S
Zn42 O46 2.086 . S
Zn42 O51 1.977 . S
O43 Zn42 2.032 . S
O43 C47 1.278 . S
C44 O45 1.203 . S
C44 O51 1.267 . S
O45 C44 1.203 . S
O46 C39 1.185 . S
O46 Zn42 2.086 . S
C47 O43 1.278 . S
C47 O48 1.211 . S
O48 C47 1.211 . S
C49 O41 1.284 . S
C49 O50 1.273 . S
O50 C49 1.273 . S
O51 Zn42 1.977 . S
O51 C44 1.267 . S
C52 O53 1.160 . S
C52 O59 1.185 . S
O53 C52 1.160 . S
O54 Zn55 1.899 . S
O54 C62 1.284 . S
Zn55 O54 1.899 . S
Zn55 O56 2.032 . S
Zn55 O59 2.086 . S
Zn55 O64 1.977 . S
O56 Zn55 2.032 . S
O56 C60 1.278 . S
C57 O58 1.203 . S
C57 O64 1.267 . S
O58 C57 1.203 . S
O59 C52 1.185 . S
O59 Zn55 2.086 . S
C60 O56 1.278 . S
C60 O61 1.211 . S
O61 C60 1.211 . S
C62 O54 1.284 . S
C62 O63 1.273 . S
O63 C62 1.273 . S
O64 Zn55 1.977 . S
O64 C57 1.267 . S
C65 O66 1.160 . S
C65 O72 1.185 . S
O66 C65 1.160 . S
O67 Zn68 1.899 . S
O67 C75 1.284 . S
Zn68 O67 1.899 . S
Zn68 O69 2.032 . S
Zn68 O72 2.086 . S
Zn68 O77 1.977 . S
O69 Zn68 2.032 . S
O69 C73 1.278 . S
C70 O71 1.203 . S
C70 O77 1.267 . S
O71 C70 1.203 . S
O72 C65 1.185 . S
O72 Zn68 2.086 . S
C73 O69 1.278 . S
C73 O74 1.211 . S
O74 C73 1.211 . S
C75 O67 1.284 . S
C75 O76 1.273 . S
O76 C75 1.273 . S
O77 Zn68 1.977 . S
O77 C70 1.267 . S
C78 O79 1.160 . S
C78 O85 1.185 . S
O79 C78 1.160 . S
O80 Zn81 1.899 . S
O80 C88 1.284 . S
Zn81 O80 1.899 . S
Zn81 O82 2.032 . S
Zn81 O85 2.086 . S
Zn81 O90 1.977 . S
O82 Zn81 2.032 . S
O82 C86 1.278 . S
C83 O84 1.203 . S
C83 O90 1.267 . S
O84 C83 1.203 . S
O85 C78 1.185 . S
O85 Zn81 2.086 . S
C86 O82 1.278 . S
C86 O87 1.211 . S
O87 C86 1.211 . S
C88 O80 1.284 . S
C88 O89 1.273 . S
O89 C88 1.273 . S
O90 Zn81 1.977 . S
O90 C83 1.267 . S
C91 O92 1.160 . S
C91 O98 1.185 . S
O92 C91 1.160 . S
O93 Zn94 1.899 . S
O93 C101 1.284 . S
Zn94 O93 1.899 . S
Zn94 O95 2.032 . S
Zn94 O98 2.086 . S
Zn94 O103 1.977 . S
O95 Zn94 2.032 . S
O95 C99 1.278 . S
C96 O97 1.203 . S
C96 O103 1.267 . S
O97 C96 1.203 . S
O98 C91 1.185 . S
O98 Zn94 2.086 . S
C99 O95 1.278 . S
C99 O100 1.211 . S
O100 C99 1.211 . S
C101 O93 1.284 . S
C101 O102 1.273 . S
O102 C101 1.273 . S
O103 Zn94 1.977 . S
O103 C96 1.267 . S
H104 C116 0.930 . S
H105 C118 0.930 . S
H106 C119 0.930 1_556 S
H107 C123 0.959 . S
H108 C123 0.959 . S
H109 C123 0.961 . S
H110 C124 0.960 . S
H111 C124 0.961 1_565 S
H112 C124 0.959 . S
H113 C127 0.929 1_546 S
H114 C128 0.931 . S
H115 C130 0.930 . S
C116 H104 0.930 . S
C116 C117 1.399 . S
C116 C121 1.399 . S
C117 C116 1.399 . S
C117 C118 1.376 . S
C118 H105 0.930 . S
C118 C117 1.376 . S
C118 C119 1.388 . S
C119 H106 0.930 1_554 S
C119 C118 1.388 . S
C119 C120 1.390 . S
C120 C119 1.390 . S
C120 C121 1.394 . S
C120 C126 1.465 1_545 S
C121 C116 1.399 . S
C121 C120 1.394 . S
C121 C122 1.516 1_545 S
C122 C121 1.516 1_565 S
C122 C123 1.502 . S
C122 C124 1.561 1_565 S
C122 C125 1.526 . S
C123 H107 0.959 . S
C123 H108 0.959 . S
C123 H109 0.961 . S
C123 C122 1.502 . S
C124 H110 0.960 . S
C124 H111 0.961 1_545 S
C124 H112 0.959 . S
C124 C122 1.561 1_545 S
C125 C122 1.526 . S
C125 C126 1.396 . S
C125 C130 1.390 . S
C126 C120 1.465 1_565 S
C126 C125 1.396 . S
C126 C127 1.399 . S
C127 H113 0.929 1_564 S
C127 C126 1.399 . S
C127 C128 1.385 . S
C128 H114 0.931 . S
C128 C127 1.385 . S
C128 C129 1.389 . S
C129 C128 1.389 . S
C129 C130 1.387 . S
C130 H115 0.930 . S
C130 C125 1.390 . S
C130 C129 1.387 . S
H131 C143 0.930 . S
H132 C145 0.930 . S
H133 C146 0.930 . S
H134 C150 0.959 . S
H135 C150 0.959 . S
H136 C150 0.961 . S
H137 C151 0.960 . S
H138 C151 0.961 . S
H139 C151 0.959 . S
H140 C154 0.929 . S
H141 C155 0.931 . S
H142 C157 0.930 . S
C143 H131 0.930 . S
C143 C144 1.399 . S
C143 C148 1.399 . S
C144 C143 1.399 . S
C144 C145 1.376 . S
C145 H132 0.930 . S
C145 C144 1.376 . S
C145 C146 1.388 . S
C146 H133 0.930 . S
C146 C145 1.388 . S
C146 C147 1.390 . S
C147 C146 1.390 . S
C147 C148 1.394 . S
C147 C153 1.465 . S
C148 C143 1.399 . S
C148 C147 1.394 . S
C148 C149 1.516 . S
C149 C148 1.516 . S
C149 C150 1.502 . S
C149 C151 1.561 . S
C149 C152 1.526 . S
C150 H134 0.959 . S
C150 H135 0.959 . S
C150 H136 0.961 . S
C150 C149 1.502 . S
C151 H137 0.960 . S
C151 H138 0.961 . S
C151 H139 0.959 . S
C151 C149 1.561 . S
C152 C149 1.526 . S
C152 C153 1.396 . S
C152 C157 1.390 . S
C153 C147 1.465 . S
C153 C152 1.396 . S
C153 C154 1.399 . S
C154 H140 0.929 . S
C154 C153 1.399 . S
C154 C155 1.385 . S
C155 H141 0.931 . S
C155 C154 1.385 . S
C155 C156 1.389 . S
C156 C155 1.389 . S
C156 C157 1.387 . S
C157 H142 0.930 . S
C157 C152 1.390 . S
C157 C156 1.387 . S
H158 C170 0.930 . S
H159 C172 0.930 . S
H160 C173 0.930 . S
H161 C177 0.959 1_556 S
H162 C177 0.959 . S
H163 C177 0.961 . S
H164 C178 0.960 . S
H165 C178 0.961 . S
H166 C178 0.959 1_556 S
H167 C181 0.929 . S
H168 C182 0.931 . S
H169 C184 0.930 . S
C170 H158 0.930 . S
C170 C171 1.399 . S
C170 C175 1.399 . S
C171 C170 1.399 . S
C171 C172 1.376 . S
C172 H159 0.930 . S
C172 C171 1.376 . S
C172 C173 1.388 . S
C173 H160 0.930 . S
C173 C172 1.388 . S
C173 C174 1.390 . S
C174 C173 1.390 . S
C174 C175 1.394 . S
C174 C180 1.465 1_565 S
C175 C170 1.399 . S
C175 C174 1.394 . S
C175 C176 1.516 1_565 S
C176 C175 1.516 1_545 S
C176 C177 1.502 1_556 S
C176 C178 1.561 1_546 S
C176 C179 1.526 . S
C177 H161 0.959 1_554 S
C177 H162 0.959 . S
C177 H163 0.961 . S
C177 C176 1.502 1_554 S
C178 H164 0.960 . S
C178 H165 0.961 . S
C178 H166 0.959 1_554 S
C178 C176 1.561 1_564 S
C179 C176 1.526 . S
C179 C180 1.396 . S
C179 C184 1.390 . S
C180 C174 1.465 1_545 S
C180 C179 1.396 . S
C180 C181 1.399 . S
C181 H167 0.929 . S
C181 C180 1.399 . S
C181 C182 1.385 . S
C182 H168 0.931 . S
C182 C181 1.385 . S
C182 C183 1.389 . S
C183 C182 1.389 . S
C183 C184 1.387 . S
C184 H169 0.930 . S
C184 C179 1.390 . S
C184 C183 1.387 . S
H185 C197 0.930 . S
H186 C199 0.930 . S
H187 C200 0.930 . S
H188 C204 0.959 . S
H189 C204 0.959 . S
H190 C204 0.961 . S
H191 C205 0.960 . S
H192 C205 0.961 . S
H193 C205 0.959 . S
H194 C208 0.929 . S
H195 C209 0.931 . S
H196 C211 0.930 . S
C197 H185 0.930 . S
C197 C198 1.399 . S
C197 C202 1.399 . S
C198 C197 1.399 . S
C198 C199 1.376 . S
C199 H186 0.930 . S
C199 C198 1.376 . S
C199 C200 1.388 . S
C200 H187 0.930 . S
C200 C199 1.388 . S
C200 C201 1.390 . S
C201 C200 1.390 . S
C201 C202 1.394 . S
C201 C207 1.465 . S
C202 C197 1.399 . S
C202 C201 1.394 . S
C202 C203 1.516 . S
C203 C202 1.516 . S
C203 C204 1.502 . S
C203 C205 1.561 . S
C203 C206 1.526 . S
C204 H188 0.959 . S
C204 H189 0.959 . S
C204 H190 0.961 . S
C204 C203 1.502 . S
C205 H191 0.960 . S
C205 H192 0.961 . S
C205 H193 0.959 . S
C205 C203 1.561 . S
C206 C203 1.526 . S
C206 C207 1.396 . S
C206 C211 1.390 . S
C207 C201 1.465 . S
C207 C206 1.396 . S
C207 C208 1.399 . S
C208 H194 0.929 . S
C208 C207 1.399 . S
C208 C209 1.385 . S
C209 H195 0.931 . S
C209 C208 1.385 . S
C209 C210 1.389 . S
C210 C209 1.389 . S
C210 C211 1.387 . S
C211 H196 0.930 . S
C211 C206 1.390 . S
C211 C210 1.387 . S
H212 C224 0.930 . S
H213 C226 0.930 . S
H214 C227 0.930 . S
H215 C231 0.959 . S
H216 C231 0.959 . S
H217 C231 0.961 . S
H218 C232 0.960 . S
H219 C232 0.961 . S
H220 C232 0.959 . S
H221 C235 0.929 . S
H222 C236 0.931 . S
H223 C238 0.930 . S
C224 H212 0.930 . S
C224 C225 1.399 . S
C224 C229 1.399 . S
C225 C224 1.399 . S
C225 C226 1.376 . S
C226 H213 0.930 . S
C226 C225 1.376 . S
C226 C227 1.388 . S
C227 H214 0.930 . S
C227 C226 1.388 . S
C227 C228 1.390 . S
C228 C227 1.390 . S
C228 C229 1.394 . S
C228 C234 1.465 . S
C229 C224 1.399 . S
C229 C228 1.394 . S
C229 C230 1.516 . S
C230 C229 1.516 . S
C230 C231 1.502 . S
C230 C232 1.561 . S
C230 C233 1.526 . S
C231 H215 0.959 . S
C231 H216 0.959 . S
C231 H217 0.961 . S
C231 C230 1.502 . S
C232 H218 0.960 . S
C232 H219 0.961 . S
C232 H220 0.959 . S
C232 C230 1.561 . S
C233 C230 1.526 . S
C233 C234 1.396 . S
C233 C238 1.390 . S
C234 C228 1.465 . S
C234 C233 1.396 . S
C234 C235 1.399 . S
C235 H221 0.929 . S
C235 C234 1.399 . S
C235 C236 1.385 . S
C236 H222 0.931 . S
C236 C235 1.385 . S
C236 C237 1.389 . S
C237 C236 1.389 . S
C237 C238 1.387 . S
C238 H223 0.930 . S
C238 C233 1.390 . S
C238 C237 1.387 . S
H239 C251 0.930 . S
H240 C253 0.930 . S
H241 C254 0.930 . S
H242 C258 0.959 . S
H243 C258 0.959 . S
H244 C258 0.961 . S
H245 C259 0.960 . S
H246 C259 0.961 . S
H247 C259 0.959 . S
H248 C262 0.929 . S
H249 C263 0.931 . S
H250 C265 0.930 . S
C251 H239 0.930 . S
C251 C252 1.399 . S
C251 C256 1.399 . S
C252 C251 1.399 . S
C252 C253 1.376 . S
C253 H240 0.930 . S
C253 C252 1.376 . S
C253 C254 1.388 . S
C254 H241 0.930 . S
C254 C253 1.388 . S
C254 C255 1.390 . S
C255 C254 1.390 . S
C255 C256 1.394 . S
C255 C261 1.465 . S
C256 C251 1.399 . S
C256 C255 1.394 . S
C256 C257 1.516 . S
C257 C256 1.516 . S
C257 C258 1.502 . S
C257 C259 1.561 . S
C257 C260 1.526 . S
C258 H242 0.959 . S
C258 H243 0.959 . S
C258 H244 0.961 . S
C258 C257 1.502 . S
C259 H245 0.960 . S
C259 H246 0.961 . S
C259 H247 0.959 . S
C259 C257 1.561 . S
C260 C257 1.526 . S
C260 C261 1.396 . S
C260 C265 1.390 . S
C261 C255 1.465 . S
C261 C260 1.396 . S
C261 C262 1.399 . S
C262 H248 0.929 . S
C262 C261 1.399 . S
C262 C263 1.385 . S
C263 H249 0.931 . S
C263 C262 1.385 . S
C263 C264 1.389 . S
C264 C263 1.389 . S
C264 C265 1.387 . S
C265 H250 0.930 . S
C265 C260 1.390 . S
C265 C264 1.387 . S
H266 C278 0.930 . S
H267 C280 0.930 . S
H268 C281 0.930 . S
H269 C285 0.959 . S
H270 C285 0.959 . S
H271 C285 0.961 . S
H272 C286 0.960 . S
H273 C286 0.961 . S
H274 C286 0.959 . S
H275 C289 0.929 . S
H276 C290 0.931 . S
H277 C292 0.930 . S
C278 H266 0.930 . S
C278 C279 1.399 . S
C278 C283 1.399 . S
C279 C278 1.399 . S
C279 C280 1.376 . S
C280 H267 0.930 . S
C280 C279 1.376 . S
C280 C281 1.388 . S
C281 H268 0.930 . S
C281 C280 1.388 . S
C281 C282 1.390 . S
C282 C281 1.390 . S
C282 C283 1.394 . S
C282 C288 1.465 . S
C283 C278 1.399 . S
C283 C282 1.394 . S
C283 C284 1.516 . S
C284 C283 1.516 . S
C284 C285 1.502 . S
C284 C286 1.561 . S
C284 C287 1.526 . S
C285 H269 0.959 . S
C285 H270 0.959 . S
C285 H271 0.961 . S
C285 C284 1.502 . S
C286 H272 0.960 . S
C286 H273 0.961 . S
C286 H274 0.959 . S
C286 C284 1.561 . S
C287 C284 1.526 . S
C287 C288 1.396 . S
C287 C292 1.390 . S
C288 C282 1.465 . S
C288 C287 1.396 . S
C288 C289 1.399 . S
C289 H275 0.929 . S
C289 C288 1.399 . S
C289 C290 1.385 . S
C290 H276 0.931 . S
C290 C289 1.385 . S
C290 C291 1.389 . S
C291 C290 1.389 . S
C291 C292 1.387 . S
C292 H277 0.930 . S
C292 C287 1.390 . S
C292 C291 1.387 . S
H293 C305 0.930 . S
H294 C307 0.930 . S
H295 C308 0.930 . S
H296 C312 0.959 . S
H297 C312 0.959 . S
H298 C312 0.961 . S
H299 C313 0.960 . S
H300 C313 0.961 . S
H301 C313 0.959 . S
H302 C316 0.929 . S
H303 C317 0.931 . S
H304 C319 0.930 . S
C305 H293 0.930 . S
C305 C306 1.399 . S
C305 C310 1.399 . S
C306 C305 1.399 . S
C306 C307 1.376 . S
C307 H294 0.930 . S
C307 C306 1.376 . S
C307 C308 1.388 . S
C308 H295 0.930 . S
C308 C307 1.388 . S
C308 C309 1.390 . S
C309 C308 1.390 . S
C309 C310 1.394 . S
C309 C315 1.465 . S
C310 C305 1.399 . S
C310 C309 1.394 . S
C310 C311 1.516 . S
C311 C310 1.516 . S
C311 C312 1.502 . S
C311 C313 1.561 . S
C311 C314 1.526 . S
C312 H296 0.959 . S
C312 H297 0.959 . S
C312 H298 0.961 . S
C312 C311 1.502 . S
C313 H299 0.960 . S
C313 H300 0.961 . S
C313 H301 0.959 . S
C313 C311 1.561 . S
C314 C311 1.526 . S
C314 C315 1.396 . S
C314 C319 1.390 . S
C315 C309 1.465 . S
C315 C314 1.396 . S
C315 C316 1.399 . S
C316 H302 0.929 . S
C316 C315 1.399 . S
C316 C317 1.385 . S
C317 H303 0.931 . S
C317 C316 1.385 . S
C317 C318 1.389 . S
C318 C317 1.389 . S
C318 C319 1.387 . S
C319 H304 0.930 . S
C319 C314 1.390 . S
C319 C318 1.387 . S
H320 C332 0.930 . S
H321 C334 0.930 . S
H322 C335 0.930 . S
H323 C339 0.959 . S
H324 C339 0.959 . S
H325 C339 0.961 . S
H326 C340 0.960 . S
H327 C340 0.961 . S
H328 C340 0.959 . S
H329 C343 0.929 . S
H330 C344 0.931 . S
H331 C346 0.930 . S
C332 H320 0.930 . S
C332 C333 1.399 1_556 S
C332 C337 1.399 . S
C333 C332 1.399 1_554 S
C333 C334 1.376 . S
C334 H321 0.930 . S
C334 C333 1.376 . S
C334 C335 1.388 . S
C335 H322 0.930 . S
C335 C334 1.388 . S
C335 C336 1.390 . S
C336 C335 1.390 . S
C336 C337 1.394 1_554 S
C336 C342 1.465 . S
C337 C332 1.399 . S
C337 C336 1.394 1_556 S
C337 C338 1.516 . S
C338 C337 1.516 . S
C338 C339 1.502 . S
C338 C340 1.561 . S
C338 C341 1.526 . S
C339 H323 0.959 . S
C339 H324 0.959 . S
C339 H325 0.961 . S
C339 C338 1.502 . S
C340 H326 0.960 . S
C340 H327 0.961 . S
C340 H328 0.959 . S
C340 C338 1.561 . S
C341 C338 1.526 . S
C341 C342 1.396 1_556 S
C341 C346 1.390 . S
C342 C336 1.465 . S
C342 C341 1.396 1_554 S
C342 C343 1.399 . S
C343 H329 0.929 . S
C343 C342 1.399 . S
C343 C344 1.385 . S
C344 H330 0.931 . S
C344 C343 1.385 . S
C344 C345 1.389 1_554 S
C345 C344 1.389 1_556 S
C345 C346 1.387 . S
C346 H331 0.930 . S
C346 C341 1.390 . S
C346 C345 1.387 . S
H347 C359 0.930 . S
H348 C361 0.930 . S
H349 C362 0.930 . S
H350 C366 0.959 . S
H351 C366 0.959 . S
H352 C366 0.961 1_455 S
H353 C367 0.960 . S
H354 C367 0.961 . S
H355 C367 0.959 . S
H356 C370 0.929 . S
H357 C371 0.931 . S
H358 C373 0.930 . S
C359 H347 0.930 . S
C359 C360 1.399 1_556 S
C359 C364 1.399 . S
C360 C359 1.399 1_554 S
C360 C361 1.376 . S
C361 H348 0.930 . S
C361 C360 1.376 . S
C361 C362 1.388 . S
C362 H349 0.930 . S
C362 C361 1.388 . S
C362 C363 1.390 . S
C363 C362 1.390 . S
C363 C364 1.394 1_554 S
C363 C369 1.465 1_455 S
C364 C359 1.399 . S
C364 C363 1.394 1_556 S
C364 C365 1.516 . S
C365 C364 1.516 . S
C365 C366 1.502 1_455 S
C365 C367 1.561 . S
C365 C368 1.526 1_455 S
C366 H350 0.959 . S
C366 H351 0.959 . S
C366 H352 0.961 1_655 S
C366 C365 1.502 1_655 S
C367 H353 0.960 . S
C367 H354 0.961 . S
C367 H355 0.959 . S
C367 C365 1.561 . S
C368 C365 1.526 1_655 S
C368 C369 1.396 1_556 S
C368 C373 1.390 . S
C369 C363 1.465 1_655 S
C369 C368 1.396 1_554 S
C369 C370 1.399 . S
C370 H356 0.929 . S
C370 C369 1.399 . S
C370 C371 1.385 . S
C371 H357 0.931 . S
C371 C370 1.385 . S
C371 C372 1.389 1_554 S
C372 C371 1.389 1_556 S
C372 C373 1.387 . S
C373 H358 0.930 . S
C373 C368 1.390 . S
C373 C372 1.387 . S
H374 C386 0.930 . S
H375 C388 0.930 . S
H376 C389 0.930 1_545 S
H377 C393 0.959 . S
H378 C393 0.959 . S
H379 C393 0.961 . S
H380 C394 0.960 . S
H381 C394 0.961 . S
H382 C394 0.959 . S
H383 C397 0.929 . S
H384 C398 0.931 . S
H385 C400 0.930 . S
C386 H374 0.930 . S
C386 C387 1.399 . S
C386 C391 1.399 . S
C387 C386 1.399 . S
C387 C388 1.376 . S
C388 H375 0.930 . S
C388 C387 1.376 . S
C388 C389 1.388 . S
C389 H376 0.930 1_565 S
C389 C388 1.388 . S
C389 C390 1.390 . S
C390 C389 1.390 . S
C390 C391 1.394 . S
C390 C396 1.465 1_565 S
C391 C386 1.399 . S
C391 C390 1.394 . S
C391 C392 1.516 . S
C392 C391 1.516 . S
C392 C393 1.502 . S
C392 C394 1.561 . S
C392 C395 1.526 1_565 S
C393 H377 0.959 . S
C393 H378 0.959 . S
C393 H379 0.961 . S
C393 C392 1.502 . S
C394 H380 0.960 . S
C394 H381 0.961 . S
C394 H382 0.959 . S
C394 C392 1.561 . S
C395 C392 1.526 1_545 S
C395 C396 1.396 . S
C395 C400 1.390 . S
C396 C390 1.465 1_545 S
C396 C395 1.396 . S
C396 C397 1.399 . S
C397 H383 0.929 . S
C397 C396 1.399 . S
C397 C398 1.385 . S
C398 H384 0.931 . S
C398 C397 1.385 . S
C398 C399 1.389 . S
C399 C398 1.389 . S
C399 C400 1.387 . S
C400 H385 0.930 . S
C400 C395 1.390 . S
C400 C399 1.387 . S
H401 C413 0.930 . S
H402 C415 0.930 . S
H403 C416 0.930 . S
H404 C420 0.959 . S
H405 C420 0.959 . S
H406 C420 0.967 . S
H407 C421 0.960 . S
H408 C421 0.961 1_455 S
H409 C421 0.959 1_455 S
H410 C424 0.929 . S
H411 C425 0.931 . S
H412 C427 0.930 . S
C413 H401 0.930 . S
C413 C414 1.399 . S
C413 C418 1.399 . S
C414 C413 1.399 . S
C414 C415 1.376 . S
C415 H402 0.930 . S
C415 C414 1.376 . S
C415 C416 1.388 1_655 S
C416 H403 0.930 . S
C416 C415 1.388 1_455 S
C416 C417 1.390 . S
C417 C416 1.390 . S
C417 C418 1.394 1_455 S
C417 C423 1.465 1_545 S
C418 C413 1.399 . S
C418 C417 1.394 1_655 S
C418 C419 1.516 . S
C419 C418 1.516 . S
C419 C420 1.502 1_545 S
C419 C421 1.561 . S
C419 C422 1.526 1_645 S
C420 H404 0.959 . S
C420 H405 0.959 . S
C420 H406 0.967 . S
C420 C419 1.502 1_565 S
C421 H407 0.960 . S
C421 H408 0.961 1_655 S
C421 H409 0.959 1_655 S
C421 C419 1.561 . S
C422 C419 1.526 1_465 S
C422 C423 1.396 . S
C422 C427 1.390 . S
C423 C417 1.465 1_565 S
C423 C422 1.396 . S
C423 C424 1.399 . S
C424 H410 0.929 . S
C424 C423 1.399 . S
C424 C425 1.385 . S
C425 H411 0.931 . S
C425 C424 1.385 . S
C425 C426 1.389 . S
C426 C425 1.389 . S
C426 C427 1.387 . S
C427 H412 0.930 . S
C427 C422 1.390 . S
C427 C426 1.387 . S
H428 C440 0.930 . S
H429 C442 0.930 . S
H430 C443 0.930 . S
H431 C447 0.959 . S
H432 C447 0.959 1_556 S
H433 C447 0.947 1_556 S
H434 C448 0.960 . S
H435 C448 0.961 . S
H436 C448 0.959 1_554 S
H437 C451 0.929 . S
H438 C452 0.931 . S
H439 C454 0.930 . S
C440 H428 0.930 . S
C440 C441 1.399 . S
C440 C445 1.399 . S
C441 C440 1.399 . S
C441 C442 1.376 . S
C442 H429 0.930 . S
C442 C441 1.376 . S
C442 C443 1.388 . S
C443 H430 0.930 . S
C443 C442 1.388 . S
C443 C444 1.390 . S
C444 C443 1.390 . S
C444 C445 1.394 . S
C444 C450 1.465 . S
C445 C440 1.399 . S
C445 C444 1.394 . S
C445 C446 1.516 . S
C446 C445 1.516 . S
C446 C447 1.502 . S
C446 C448 1.561 1_554 S
C446 C449 1.526 . S
C447 H431 0.959 . S
C447 H432 0.959 1_554 S
C447 H433 0.947 1_554 S
C447 C446 1.502 . S
C448 H434 0.960 . S
C448 H435 0.961 . S
C448 H436 0.959 1_556 S
C448 C446 1.561 1_556 S
C449 C446 1.526 . S
C449 C450 1.396 . S
C449 C454 1.390 . S
C450 C444 1.465 . S
C450 C449 1.396 . S
C450 C451 1.399 . S
C451 H437 0.929 . S
C451 C450 1.399 . S
C451 C452 1.385 . S
C452 H438 0.931 . S
C452 C451 1.385 . S
C452 C453 1.389 . S
C453 C452 1.389 . S
C453 C454 1.387 . S
C454 H439 0.930 . S
C454 C449 1.390 . S
C454 C453 1.387 . S
H455 C467 0.930 . S
H456 C469 0.930 . S
H457 C470 0.930 . S
H458 C474 0.959 . S
H459 C474 0.959 . S
H460 C474 0.961 . S
H461 C475 0.960 1_545 S
H462 C475 0.961 . S
H463 C475 0.959 . S
H464 C478 0.929 . S
H465 C479 0.931 . S
H466 C481 0.930 . S
C467 H455 0.930 . S
C467 C468 1.399 . S
C467 C472 1.399 . S
C468 C467 1.399 . S
C468 C469 1.376 . S
C469 H456 0.930 . S
C469 C468 1.376 . S
C469 C470 1.388 . S
C470 H457 0.930 . S
C470 C469 1.388 . S
C470 C471 1.390 . S
C471 C470 1.390 . S
C471 C472 1.394 . S
C471 C477 1.465 1_545 S
C472 C467 1.399 . S
C472 C471 1.394 . S
C472 C473 1.516 . S
C473 C472 1.516 . S
C473 C474 1.502 . S
C473 C475 1.561 1_545 S
C473 C476 1.526 1_545 S
C474 H458 0.959 . S
C474 H459 0.959 . S
C474 H460 0.961 . S
C474 C473 1.502 . S
C475 H461 0.960 1_565 S
C475 H462 0.961 . S
C475 H463 0.959 . S
C475 C473 1.561 1_565 S
C476 C473 1.526 1_565 S
C476 C477 1.396 . S
C476 C481 1.390 . S
C477 C471 1.465 1_565 S
C477 C476 1.396 . S
C477 C478 1.399 . S
C478 H464 0.929 . S
C478 C477 1.399 . S
C478 C479 1.385 . S
C479 H465 0.931 . S
C479 C478 1.385 . S
C479 C480 1.389 . S
C480 C479 1.389 . S
C480 C481 1.387 . S
C481 H466 0.930 . S
C481 C476 1.390 . S
C481 C480 1.387 . S
H482 C494 0.930 . S
H483 C496 0.930 . S
H484 C497 0.930 . S
H485 C501 0.959 . S
H486 C501 0.959 . S
H487 C501 0.961 . S
H488 C502 0.960 . S
H489 C502 0.961 . S
H490 C502 0.959 . S
H491 C505 0.929 . S
H492 C506 0.931 . S
H493 C508 0.930 . S
C494 H482 0.930 . S
C494 C495 1.399 . S
C494 C499 1.399 . S
C495 C494 1.399 . S
C495 C496 1.376 . S
C496 H483 0.930 . S
C496 C495 1.376 . S
C496 C497 1.388 . S
C497 H484 0.930 . S
C497 C496 1.388 . S
C497 C498 1.390 . S
C498 C497 1.390 . S
C498 C499 1.394 . S
C498 C504 1.465 . S
C499 C494 1.399 . S
C499 C498 1.394 . S
C499 C500 1.516 . S
C500 C499 1.516 . S
C500 C501 1.502 . S
C500 C502 1.561 . S
C500 C503 1.526 . S
C501 H485 0.959 . S
C501 H486 0.959 . S
C501 H487 0.961 . S
C501 C500 1.502 . S
C502 H488 0.960 . S
C502 H489 0.961 . S
C502 H490 0.959 . S
C502 C500 1.561 . S
C503 C500 1.526 . S
C503 C504 1.396 . S
C503 C508 1.390 . S
C504 C498 1.465 . S
C504 C503 1.396 . S
C504 C505 1.399 . S
C505 H491 0.929 . S
C505 C504 1.399 . S
C505 C506 1.385 . S
C506 H492 0.931 . S
C506 C505 1.385 . S
C506 C507 1.389 . S
C507 C506 1.389 . S
C507 C508 1.387 . S
C508 H493 0.930 . S
C508 C503 1.390 . S
C508 C507 1.387 . S
H509 C521 0.930 . S
H510 C523 0.930 . S
H511 C524 0.930 . S
H512 C528 0.959 . S
H513 C528 0.959 . S
H514 C528 0.961 . S
H515 C529 0.960 . S
H516 C529 0.961 . S
H517 C529 0.959 . S
H518 C532 0.929 . S
H519 C533 0.931 . S
H520 C535 0.930 . S
C521 H509 0.930 . S
C521 C522 1.399 . S
C521 C526 1.399 . S
C522 C521 1.399 . S
C522 C523 1.376 . S
C523 H510 0.930 . S
C523 C522 1.376 . S
C523 C524 1.388 . S
C524 H511 0.930 . S
C524 C523 1.388 . S
C524 C525 1.390 . S
C525 C524 1.390 . S
C525 C526 1.394 . S
C525 C531 1.465 1_565 S
C526 C521 1.399 . S
C526 C525 1.394 . S
C526 C527 1.516 1_565 S
C527 C526 1.516 1_545 S
C527 C528 1.502 . S
C527 C529 1.561 1_545 S
C527 C530 1.526 . S
C528 H512 0.959 . S
C528 H513 0.959 . S
C528 H514 0.961 . S
C528 C527 1.502 . S
C529 H515 0.960 . S
C529 H516 0.961 . S
C529 H517 0.959 . S
C529 C527 1.561 1_565 S
C530 C527 1.526 . S
C530 C531 1.396 . S
C530 C535 1.390 . S
C531 C525 1.465 1_545 S
C531 C530 1.396 . S
C531 C532 1.399 . S
C532 H518 0.929 . S
C532 C531 1.399 . S
C532 C533 1.385 . S
C533 H519 0.931 . S
C533 C532 1.385 . S
C533 C534 1.389 . S
C534 C533 1.389 . S
C534 C535 1.387 . S
C535 H520 0.930 . S
C535 C530 1.390 . S
C535 C534 1.387 . S
C117 C5 1.325 . S
C129 C18 1.383 . S
C144 C44 1.266 . S
C156 C31 1.308 . S
C171 C57 1.262 . S
C183 C70 1.288 . S
C198 C83 1.384 . S
C210 C96 1.360 . S
C225 C10 1.476 . S
C237 C36 1.504 . S
C252 C49 1.473 . S
C264 C23 1.450 . S
C279 C62 1.513 . S
C291 C88 1.477 . S
C306 C101 1.446 . S
C318 C75 1.479 . S
C333 C0 1.439 . S
C345 C52 1.535 . S
C360 C13 1.438 . S
C372 C65 1.532 . S
C387 C78 1.438 . S
C399 C26 1.533 . S
C414 C91 1.475 . S
C426 C39 1.513 . S
C441 C21 0.627 . S
C453 C8 0.702 . S
C468 C34 0.729 . S
C480 C47 0.665 . S
C495 C60 0.645 . S
C507 C73 0.717 . S
C522 C86 0.651 . S
C534 C99 0.712 . S
