# Generated by pormake.
# Topology sod-g, (3)-cn, num edge types: 1
# Building blocks:
#     Node 0, Type 0, BuildingBlock: OLANEW_clean_sbu_2, # of connection points: 3
#     Node 1, Type 0, BuildingBlock: OLANEW_clean_sbu_2, # of connection points: 3
#     Node 2, Type 0, BuildingBlock: OLANEW_clean_sbu_2, # of connection points: 3
#     Node 3, Type 0, BuildingBlock: OLANEW_clean_sbu_2, # of connection points: 3
#     Node 4, Type 0, BuildingBlock: OLANEW_clean_sbu_2, # of connection points: 3
#     Node 5, Type 0, BuildingBlock: OLANEW_clean_sbu_2, # of connection points: 3
#     Node 6, Type 0, BuildingBlock: OLANEW_clean_sbu_2, # of connection points: 3
#     Node 7, Type 0, BuildingBlock: OLANEW_clean_sbu_2, # of connection points: 3
#     Node 8, Type 0, BuildingBlock: OLANEW_clean_sbu_2, # of connection points: 3
#     Node 9, Type 0, BuildingBlock: OLANEW_clean_sbu_2, # of connection points: 3
#     Node 10, Type 0, BuildingBlock: OLANEW_clean_sbu_2, # of connection points: 3
#     Node 11, Type 0, BuildingBlock: OLANEW_clean_sbu_2, # of connection points: 3
#     Node 12, Type 0, BuildingBlock: OLANEW_clean_sbu_2, # of connection points: 3
#     Node 13, Type 0, BuildingBlock: OLANEW_clean_sbu_2, # of connection points: 3
#     Node 14, Type 0, BuildingBlock: OLANEW_clean_sbu_2, # of connection points: 3
#     Node 15, Type 0, BuildingBlock: OLANEW_clean_sbu_2, # of connection points: 3
#     Node 16, Type 0, BuildingBlock: OLANEW_clean_sbu_2, # of connection points: 3
#     Node 17, Type 0, BuildingBlock: OLANEW_clean_sbu_2, # of connection points: 3
#     Node 18, Type 0, BuildingBlock: OLANEW_clean_sbu_2, # of connection points: 3
#     Node 19, Type 0, BuildingBlock: OLANEW_clean_sbu_2, # of connection points: 3
#     Node 20, Type 0, BuildingBlock: OLANEW_clean_sbu_2, # of connection points: 3
#     Node 21, Type 0, BuildingBlock: OLANEW_clean_sbu_2, # of connection points: 3
#     Node 22, Type 0, BuildingBlock: OLANEW_clean_sbu_2, # of connection points: 3
#     Node 23, Type 0, BuildingBlock: OLANEW_clean_sbu_2, # of connection points: 3
#     Node 24, Type 0, BuildingBlock: OLANEW_clean_sbu_2, # of connection points: 3
#     Node 25, Type 0, BuildingBlock: OLANEW_clean_sbu_2, # of connection points: 3
#     Node 26, Type 0, BuildingBlock: OLANEW_clean_sbu_2, # of connection points: 3
#     Node 27, Type 0, BuildingBlock: OLANEW_clean_sbu_2, # of connection points: 3
#     Node 28, Type 0, BuildingBlock: OLANEW_clean_sbu_2, # of connection points: 3
#     Node 29, Type 0, BuildingBlock: OLANEW_clean_sbu_2, # of connection points: 3
#     Node 30, Type 0, BuildingBlock: OLANEW_clean_sbu_2, # of connection points: 3
#     Node 31, Type 0, BuildingBlock: OLANEW_clean_sbu_2, # of connection points: 3
#     Node 32, Type 0, BuildingBlock: OLANEW_clean_sbu_2, # of connection points: 3
#     Node 33, Type 0, BuildingBlock: OLANEW_clean_sbu_2, # of connection points: 3
#     Node 34, Type 0, BuildingBlock: OLANEW_clean_sbu_2, # of connection points: 3
#     Node 35, Type 0, BuildingBlock: OLANEW_clean_sbu_2, # of connection points: 3
#     Node 36, Type 0, BuildingBlock: OLANEW_clean_sbu_2, # of connection points: 3
#     Node 37, Type 0, BuildingBlock: OLANEW_clean_sbu_2, # of connection points: 3
#     Node 38, Type 0, BuildingBlock: OLANEW_clean_sbu_2, # of connection points: 3
#     Node 39, Type 0, BuildingBlock: OLANEW_clean_sbu_2, # of connection points: 3
#     Node 40, Type 0, BuildingBlock: OLANEW_clean_sbu_2, # of connection points: 3
#     Node 41, Type 0, BuildingBlock: OLANEW_clean_sbu_2, # of connection points: 3
#     Node 42, Type 0, BuildingBlock: OLANEW_clean_sbu_2, # of connection points: 3
#     Node 43, Type 0, BuildingBlock: OLANEW_clean_sbu_2, # of connection points: 3
#     Node 44, Type 0, BuildingBlock: OLANEW_clean_sbu_2, # of connection points: 3
#     Node 45, Type 0, BuildingBlock: OLANEW_clean_sbu_2, # of connection points: 3
#     Node 46, Type 0, BuildingBlock: OLANEW_clean_sbu_2, # of connection points: 3
#     Node 47, Type 0, BuildingBlock: OLANEW_clean_sbu_2, # of connection points: 3
#     Edge 48, Type (0, 0), BuildingBlock: OJICUG_clean_linker_0, # of connection points: 2
#     Edge 49, Type (0, 0), BuildingBlock: OJICUG_clean_linker_0, # of connection points: 2
#     Edge 50, Type (0, 0), BuildingBlock: OJICUG_clean_linker_0, # of connection points: 2
#     Edge 51, Type (0, 0), BuildingBlock: OJICUG_clean_linker_0, # of connection points: 2
#     Edge 52, Type (0, 0), BuildingBlock: OJICUG_clean_linker_0, # of connection points: 2
#     Edge 53, Type (0, 0), BuildingBlock: OJICUG_clean_linker_0, # of connection points: 2
#     Edge 54, Type (0, 0), BuildingBlock: OJICUG_clean_linker_0, # of connection points: 2
#     Edge 55, Type (0, 0), BuildingBlock: OJICUG_clean_linker_0, # of connection points: 2
#     Edge 56, Type (0, 0), BuildingBlock: OJICUG_clean_linker_0, # of connection points: 2
#     Edge 57, Type (0, 0), BuildingBlock: OJICUG_clean_linker_0, # of connection points: 2
#     Edge 58, Type (0, 0), BuildingBlock: OJICUG_clean_linker_0, # of connection points: 2
#     Edge 59, Type (0, 0), BuildingBlock: OJICUG_clean_linker_0, # of connection points: 2
#     Edge 60, Type (0, 0), BuildingBlock: OJICUG_clean_linker_0, # of connection points: 2
#     Edge 61, Type (0, 0), BuildingBlock: OJICUG_clean_linker_0, # of connection points: 2
#     Edge 62, Type (0, 0), BuildingBlock: OJICUG_clean_linker_0, # of connection points: 2
#     Edge 63, Type (0, 0), BuildingBlock: OJICUG_clean_linker_0, # of connection points: 2
#     Edge 64, Type (0, 0), BuildingBlock: OJICUG_clean_linker_0, # of connection points: 2
#     Edge 65, Type (0, 0), BuildingBlock: OJICUG_clean_linker_0, # of connection points: 2
#     Edge 66, Type (0, 0), BuildingBlock: OJICUG_clean_linker_0, # of connection points: 2
#     Edge 67, Type (0, 0), BuildingBlock: OJICUG_clean_linker_0, # of connection points: 2
#     Edge 68, Type (0, 0), BuildingBlock: OJICUG_clean_linker_0, # of connection points: 2
#     Edge 69, Type (0, 0), BuildingBlock: OJICUG_clean_linker_0, # of connection points: 2
#     Edge 70, Type (0, 0), BuildingBlock: OJICUG_clean_linker_0, # of connection points: 2
#     Edge 71, Type (0, 0), BuildingBlock: OJICUG_clean_linker_0, # of connection points: 2
#     Edge 72, Type (0, 0), BuildingBlock: OJICUG_clean_linker_0, # of connection points: 2
#     Edge 73, Type (0, 0), BuildingBlock: OJICUG_clean_linker_0, # of connection points: 2
#     Edge 74, Type (0, 0), BuildingBlock: OJICUG_clean_linker_0, # of connection points: 2
#     Edge 75, Type (0, 0), BuildingBlock: OJICUG_clean_linker_0, # of connection points: 2
#     Edge 76, Type (0, 0), BuildingBlock: OJICUG_clean_linker_0, # of connection points: 2
#     Edge 77, Type (0, 0), BuildingBlock: OJICUG_clean_linker_0, # of connection points: 2
#     Edge 78, Type (0, 0), BuildingBlock: OJICUG_clean_linker_0, # of connection points: 2
#     Edge 79, Type (0, 0), BuildingBlock: OJICUG_clean_linker_0, # of connection points: 2
#     Edge 80, Type (0, 0), BuildingBlock: OJICUG_clean_linker_0, # of connection points: 2
#     Edge 81, Type (0, 0), BuildingBlock: OJICUG_clean_linker_0, # of connection points: 2
#     Edge 82, Type (0, 0), BuildingBlock: OJICUG_clean_linker_0, # of connection points: 2
#     Edge 83, Type (0, 0), BuildingBlock: OJICUG_clean_linker_0, # of connection points: 2
#     Edge 84, Type (0, 0), BuildingBlock: OJICUG_clean_linker_0, # of connection points: 2
#     Edge 85, Type (0, 0), BuildingBlock: OJICUG_clean_linker_0, # of connection points: 2
#     Edge 86, Type (0, 0), BuildingBlock: OJICUG_clean_linker_0, # of connection points: 2
#     Edge 87, Type (0, 0), BuildingBlock: OJICUG_clean_linker_0, # of connection points: 2
#     Edge 88, Type (0, 0), BuildingBlock: OJICUG_clean_linker_0, # of connection points: 2
#     Edge 89, Type (0, 0), BuildingBlock: OJICUG_clean_linker_0, # of connection points: 2
#     Edge 90, Type (0, 0), BuildingBlock: OJICUG_clean_linker_0, # of connection points: 2
#     Edge 91, Type (0, 0), BuildingBlock: OJICUG_clean_linker_0, # of connection points: 2
#     Edge 92, Type (0, 0), BuildingBlock: OJICUG_clean_linker_0, # of connection points: 2
#     Edge 93, Type (0, 0), BuildingBlock: OJICUG_clean_linker_0, # of connection points: 2
#     Edge 94, Type (0, 0), BuildingBlock: OJICUG_clean_linker_0, # of connection points: 2
#     Edge 95, Type (0, 0), BuildingBlock: OJICUG_clean_linker_0, # of connection points: 2
#     Edge 96, Type (0, 0), BuildingBlock: OJICUG_clean_linker_0, # of connection points: 2
#     Edge 97, Type (0, 0), BuildingBlock: OJICUG_clean_linker_0, # of connection points: 2
#     Edge 98, Type (0, 0), BuildingBlock: OJICUG_clean_linker_0, # of connection points: 2
#     Edge 99, Type (0, 0), BuildingBlock: OJICUG_clean_linker_0, # of connection points: 2
#     Edge 100, Type (0, 0), BuildingBlock: OJICUG_clean_linker_0, # of connection points: 2
#     Edge 101, Type (0, 0), BuildingBlock: OJICUG_clean_linker_0, # of connection points: 2
#     Edge 102, Type (0, 0), BuildingBlock: OJICUG_clean_linker_0, # of connection points: 2
#     Edge 103, Type (0, 0), BuildingBlock: OJICUG_clean_linker_0, # of connection points: 2
#     Edge 104, Type (0, 0), BuildingBlock: OJICUG_clean_linker_0, # of connection points: 2
#     Edge 105, Type (0, 0), BuildingBlock: OJICUG_clean_linker_0, # of connection points: 2
#     Edge 106, Type (0, 0), BuildingBlock: OJICUG_clean_linker_0, # of connection points: 2
#     Edge 107, Type (0, 0), BuildingBlock: OJICUG_clean_linker_0, # of connection points: 2
#     Edge 108, Type (0, 0), BuildingBlock: OJICUG_clean_linker_0, # of connection points: 2
#     Edge 109, Type (0, 0), BuildingBlock: OJICUG_clean_linker_0, # of connection points: 2
#     Edge 110, Type (0, 0), BuildingBlock: OJICUG_clean_linker_0, # of connection points: 2
#     Edge 111, Type (0, 0), BuildingBlock: OJICUG_clean_linker_0, # of connection points: 2
#     Edge 112, Type (0, 0), BuildingBlock: OJICUG_clean_linker_0, # of connection points: 2
#     Edge 113, Type (0, 0), BuildingBlock: OJICUG_clean_linker_0, # of connection points: 2
#     Edge 114, Type (0, 0), BuildingBlock: OJICUG_clean_linker_0, # of connection points: 2
#     Edge 115, Type (0, 0), BuildingBlock: OJICUG_clean_linker_0, # of connection points: 2
#     Edge 116, Type (0, 0), BuildingBlock: OJICUG_clean_linker_0, # of connection points: 2
#     Edge 117, Type (0, 0), BuildingBlock: OJICUG_clean_linker_0, # of connection points: 2
#     Edge 118, Type (0, 0), BuildingBlock: OJICUG_clean_linker_0, # of connection points: 2
#     Edge 119, Type (0, 0), BuildingBlock: OJICUG_clean_linker_0, # of connection points: 2
# Relax obj value: 0.019
# Max RMSD: 0.018
# Mean RMSD: 0.018
data_MOF--net-sod-g--node1-OLANEW_clean_sbu_2--edge1-OJICUG_clean_linker_0
_symmetry_space_group_name_H-M    P1
_symmetry_Int_Tables_number       1
_symmetry_cell_setting            triclinic
loop_
_symmetry_equiv_pos_as_xyz
'x, y, z'
_cell_length_a     77.180709
_cell_length_b     77.197398
_cell_length_c     77.192827
_cell_angle_alpha  89.997912
_cell_angle_beta   90.009414
_cell_angle_gamma 89.99986
loop_
_atom_site_label
_atom_site_type_symbol
_atom_site_fract_x
_atom_site_fract_y
_atom_site_fract_z
_atom_type_partial_charge
O0 O 0.05676 0.53114 0.10721 0.0
Cd1 Cd 0.08835 0.52917 0.10885 0.0
O2 O 0.05816 0.53122 0.13548 0.0
Cd3 Cd 0.04879 0.53054 0.16227 0.0
O4 O 0.04372 0.53038 0.1901 0.0
C5 C 0.03719 0.51712 0.19735 0.0
O6 O 0.033 0.50369 0.18777 0.0
C7 C 0.04906 0.53185 0.12174 0.0
C8 C 0.10306 0.50457 0.08687 0.0
O9 O 0.09695 0.50023 0.10169 0.0
O10 O 0.10196 0.5205 0.08232 0.0
O11 O 0.53786 0.03288 0.13017 0.0
Cd12 Cd 0.54686 0.06305 0.12787 0.0
O13 O 0.53636 0.034 0.1585 0.0
Cd14 Cd 0.5317 0.02424 0.18478 0.0
O15 O 0.52887 0.01869 0.21241 0.0
C16 C 0.53745 0.0066 0.21957 0.0
O17 O 0.54774 0.99698 0.21001 0.0
C18 C 0.53411 0.02565 0.14447 0.0
C19 C 0.51749 0.08208 0.11899 0.0
O20 O 0.52653 0.07432 0.10744 0.0
O21 O 0.52262 0.08133 0.13477 0.0
O22 O 0.96532 0.53778 0.11171 0.0
Cd23 Cd 0.93429 0.53934 0.11784 0.0
O24 O 0.9667 0.53372 0.13969 0.0
Cd25 Cd 0.97939 0.52817 0.16439 0.0
O26 O 0.98569 0.52439 0.19165 0.0
C27 C 0.99235 0.53674 0.20025 0.0
O28 O 0.9961 0.55128 0.19224 0.0
C29 C 0.9744 0.53544 0.12523 0.0
C30 C 0.9175 0.50774 0.1133 0.0
O31 O 0.91659 0.5196 0.10172 0.0
O32 O 0.9264 0.51076 0.12699 0.0
O33 O 0.49124 0.9583 0.12269 0.0
Cd34 Cd 0.46927 0.93617 0.11743 0.0
O35 O 0.49072 0.95285 0.15056 0.0
Cd36 Cd 0.49898 0.95764 0.17718 0.0
O37 O 0.50377 0.96295 0.20444 0.0
C38 C 0.49755 0.97653 0.21135 0.0
O39 O 0.4888 0.98747 0.20167 0.0
C40 C 0.49627 0.96185 0.13794 0.0
C41 C 0.48118 0.90734 0.0994 0.0
O42 O 0.47768 0.92154 0.09154 0.0
O43 O 0.47931 0.90679 0.11589 0.0
O44 O 0.01437 0.56795 0.89088 0.0
Cd45 Cd 0.04531 0.57449 0.89197 0.0
O46 O 0.02013 0.55753 0.86518 0.0
Cd47 Cd 0.01466 0.54488 0.84044 0.0
O48 O 0.01364 0.53575 0.81374 0.0
C49 C 0.00356 0.54309 0.80299 0.0
O50 O 0.9934 0.55562 0.80843 0.0
C51 C 0.00909 0.56107 0.87689 0.0
C52 C 0.06538 0.54472 0.88845 0.0
O53 O 0.06257 0.55135 0.90341 0.0
O54 O 0.05876 0.55216 0.87518 0.0
O55 O 0.51566 0.06642 0.86663 0.0
Cd56 Cd 0.49355 0.08874 0.8628 0.0
O57 O 0.51041 0.05917 0.83983 0.0
Cd58 Cd 0.50983 0.0435 0.81628 0.0
O59 O 0.50396 0.03274 0.79088 0.0
C60 C 0.49586 0.01848 0.78955 0.0
O61 O 0.49176 0.00995 0.80369 0.0
C62 C 0.51837 0.05628 0.85396 0.0
C63 C 0.49407 0.11427 0.88823 0.0
O64 O 0.48762 0.09929 0.8913 0.0
O65 O 0.50046 0.11719 0.87319 0.0
O66 O 0.92557 0.5543 0.8803 0.0
Cd67 Cd 0.89433 0.55214 0.87579 0.0
O68 O 0.9288 0.54606 0.85338 0.0
Cd69 Cd 0.9423 0.53802 0.82973 0.0
O70 O 0.95144 0.52929 0.80439 0.0
C71 C 0.96313 0.51778 0.80307 0.0
O72 O 0.9701 0.5114 0.81724 0.0
C73 C 0.93553 0.55087 0.86765 0.0
C74 C 0.87805 0.529 0.89824 0.0
O75 O 0.88437 0.52387 0.88377 0.0
O76 O 0.87962 0.54506 0.90219 0.0
O77 O 0.56334 0.98935 0.87872 0.0
Cd78 Cd 0.57319 0.96002 0.88501 0.0
O79 O 0.5551 0.98044 0.8531 0.0
Cd80 Cd 0.54164 0.98181 0.8282 0.0
O81 O 0.53211 0.9808 0.80159 0.0
C82 C 0.53575 0.99304 0.79121 0.0
O83 O 0.54472 0.00632 0.79693 0.0
C84 C 0.55606 0.99249 0.8643 0.0
C85 C 0.54393 0.93917 0.88838 0.0
O86 O 0.54961 0.94816 0.90112 0.0
O87 O 0.55235 0.93964 0.87408 0.0
O88 O 0.14628 0.03763 0.49508 0.0
Cd89 Cd 0.14188 0.0627 0.47629 0.0
O90 O 0.15254 0.05439 0.51718 0.0
Cd91 Cd 0.16312 0.07331 0.4991 0.0
O92 O 0.18831 0.07293 0.4861 0.0
C93 C 0.19835 0.06114 0.49175 0.0
O94 O 0.19284 0.05113 0.50438 0.0
C95 C 0.14853 0.03955 0.5113 0.0
C96 C 0.10886 0.07463 0.48468 0.0
O97 O 0.1111 0.0633 0.47275 0.0
O98 O 0.12234 0.08097 0.49203 0.0
O99 O 0.90496 0.12571 0.5123 0.0
Cd100 Cd 0.87432 0.13349 0.51103 0.0
O101 O 0.91259 0.15303 0.5121 0.0
Cd102 Cd 0.93042 0.17505 0.51117 0.0
O103 O 0.94577 0.19864 0.50876 0.0
C104 C 0.95861 0.19918 0.49848 0.0
O105 O 0.96277 0.18519 0.48972 0.0
C106 C 0.91683 0.13711 0.51272 0.0
C107 C 0.85389 0.10408 0.5063 0.0
O108 O 0.85883 0.1132 0.49334 0.0
O109 O 0.85849 0.10895 0.52149 0.0
O110 O 0.8576 0.92694 0.42525 0.0
Cd111 Cd 0.87215 0.90181 0.41264 0.0
O112 O 0.83149 0.91781 0.4182 0.0
Cd113 Cd 0.80353 0.92186 0.42127 0.0
O114 O 0.78194 0.9358 0.43324 0.0
C115 C 0.77457 0.94823 0.42533 0.0
O116 O 0.77919 0.95171 0.40932 0.0
C117 C 0.8413 0.92913 0.42506 0.0
C118 C 0.90035 0.89255 0.43326 0.0
O119 O 0.90184 0.90404 0.42137 0.0
O120 O 0.88557 0.88522 0.43522 0.0
O121 O 0.09386 0.8388 0.48134 0.0
Cd122 Cd 0.12459 0.83158 0.47966 0.0
O123 O 0.08659 0.81144 0.47987 0.0
Cd124 Cd 0.06928 0.78915 0.48151 0.0
O125 O 0.04912 0.76946 0.48082 0.0
C126 C 0.03833 0.76943 0.46838 0.0
O127 O 0.03978 0.78117 0.45614 0.0
C128 C 0.08215 0.82724 0.48151 0.0
C129 C 0.14281 0.856 0.49901 0.0
O130 O 0.14122 0.85764 0.48256 0.0
O131 O 0.13619 0.84259 0.50621 0.0
O132 O 0.16698 0.96706 0.5458 0.0
Cd133 Cd 0.18186 0.9416 0.55732 0.0
O134 O 0.16423 0.98165 0.57013 0.0
Cd135 Cd 0.18158 0.96319 0.58244 0.0
O136 O 0.20887 0.95938 0.57641 0.0
C137 C 0.2148 0.9713 0.56671 0.0
O138 O 0.20448 0.98408 0.56225 0.0
C139 C 0.16147 0.98029 0.55395 0.0
C140 C 0.17135 0.91221 0.53921 0.0
O141 O 0.16434 0.91627 0.5537 0.0
O142 O 0.18353 0.92189 0.53341 0.0
O143 O 0.98709 0.09575 0.52776 0.0
Cd144 Cd 0.01341 0.08198 0.53857 0.0
O145 O -0.00037 0.12111 0.52516 0.0
Cd146 Cd 0.00079 0.14862 0.51843 0.0
O147 O 0.00671 0.17584 0.5135 0.0
C148 C -0.00051 0.18771 0.52233 0.0
O149 O 0.98793 0.18341 0.53406 0.0
C150 C 0.98611 0.11176 0.52409 0.0
C151 C 0.04235 0.08361 0.51705 0.0
O152 O 0.03096 0.07166 0.51523 0.0
O153 O 0.03977 0.09514 0.52872 0.0
O154 O 0.81041 0.98975 0.47472 0.0
Cd155 Cd 0.79455 0.01143 0.49149 0.0
O156 O 0.79453 0.9937 0.45136 0.0
Cd157 Cd 0.7785 0.0134 0.46368 0.0
O158 O 0.76393 0.03228 0.47881 0.0
C159 C 0.75629 0.02737 0.49254 0.0
O160 O 0.75715 0.01097 0.49704 0.0
C161 C 0.80692 0.986 0.45906 0.0
C162 C 0.81357 0.04171 0.49636 0.0
O163 O 0.81365 0.02963 0.50777 0.0
O164 O 0.8045 0.03944 0.48264 0.0
O165 O 0.00853 0.86408 0.49811 0.0
Cd166 Cd 0.98031 0.87465 0.5078 0.0
O167 O -0.0005 0.83722 0.49895 0.0
Cd168 Cd 0.00086 0.80887 0.49967 0.0
O169 O 0.99258 0.78276 0.5071 0.0
C170 C 0.98276 0.78185 0.5203 0.0
O171 O 0.9787 0.79622 0.52846 0.0
C172 C 0.01167 0.84802 0.49633 0.0
C173 C 0.95586 0.87892 0.4816 0.0
O174 O 0.96692 0.89082 0.48501 0.0
O175 O 0.95657 0.86483 0.49037 0.0
O176 O 0.42558 0.14264 0.06229 0.0
Cd177 Cd 0.42172 0.13061 0.09124 0.0
O178 O 0.42862 0.16924 0.07199 0.0
Cd179 Cd 0.43657 0.19621 0.06782 0.0
O180 O 0.44574 0.22262 0.06303 0.0
C181 C 0.45632 0.22615 0.05089 0.0
O182 O 0.46185 0.2136 0.0408 0.0
C183 C 0.42835 0.1586 0.05942 0.0
C184 C 0.45266 0.11492 0.10126 0.0
O185 O 0.4417 0.10698 0.09166 0.0
O186 O 0.44888 0.13021 0.1065 0.0
O187 O 0.45275 0.86876 0.93008 0.0
Cd188 Cd 0.45073 0.8805 0.90085 0.0
O189 O 0.45172 0.8415 0.92179 0.0
Cd190 Cd 0.45543 0.8142 0.92858 0.0
O191 O 0.46006 0.78937 0.94142 0.0
C192 C 0.4713 0.78813 0.95341 0.0
O193 O 0.48031 0.8019 0.95777 0.0
C194 C 0.45302 0.85273 0.93376 0.0
C195 C 0.48054 0.9 0.89503 0.0
O196 O 0.46741 0.90647 0.90285 0.0
O197 O 0.47944 0.88439 0.88947 0.0
O198 O 0.12799 0.43766 0.90514 0.0
Cd199 Cd 0.12715 0.4534 0.87774 0.0
O200 O 0.15428 0.44824 0.90739 0.0
Cd201 Cd 0.17774 0.45356 0.92262 0.0
O202 O 0.20085 0.46049 0.93766 0.0
C203 C 0.20433 0.45293 0.95188 0.0
O204 O 0.1938 0.44088 0.95763 0.0
C205 C 0.14202 0.43916 0.91359 0.0
C206 C 0.10704 0.48318 0.88085 0.0
O207 O 0.10087 0.46948 0.87378 0.0
O208 O 0.12271 0.48284 0.88631 0.0
O209 O 0.46792 0.1803 0.99007 0.0
Cd210 Cd 0.48619 0.19165 0.96685 0.0
O211 O 0.4449 0.19661 0.98586 0.0
Cd212 Cd 0.45858 0.21099 0.96595 0.0
O213 O 0.47819 0.2308 0.9624 0.0
C214 C 0.48648 0.23429 0.97619 0.0
O215 O 0.48273 0.22568 0.99039 0.0
C216 C 0.45257 0.18465 0.99417 0.0
C217 C 0.49003 0.1671 0.94075 0.0
O218 O 0.49881 0.16607 0.95479 0.0
O219 O 0.47954 0.17983 0.93891 0.0
O220 O 0.82871 0.44605 0.98452 0.0
Cd221 Cd 0.81594 0.46058 0.95941 0.0
O222 O 0.80494 0.43103 0.9893 0.0
Cd223 Cd 0.7905 0.4446 0.96918 0.0
O224 O 0.77817 0.46548 0.95464 0.0
C225 C 0.77839 0.48042 0.96157 0.0
O226 O 0.78588 0.48232 0.97674 0.0
C227 C 0.82054 0.43469 0.99325 0.0
C228 C 0.83823 0.48227 0.94116 0.0
O229 O 0.82937 0.48799 0.95399 0.0
O230 O 0.83679 0.4662 0.93721 0.0
O231 O 0.48628 0.83032 0.00679 0.0
Cd232 Cd 0.49961 0.8207 0.03382 0.0
O233 O 0.46095 0.81764 0.01013 0.0
Cd234 Cd 0.47078 0.80351 0.03237 0.0
O235 O 0.48648 0.78207 0.0416 0.0
C236 C 0.49845 0.7774 0.03132 0.0
O237 O 0.50063 0.78605 0.01681 0.0
C238 C 0.47093 0.82749 0.0015 0.0
C239 C 0.49658 0.84753 0.05766 0.0
O240 O 0.50876 0.84743 0.0464 0.0
O241 O 0.48608 0.83467 0.05801 0.0
O242 O 0.14784 0.42833 0.99542 0.0
Cd243 Cd 0.15755 0.42986 0.02553 0.0
O244 O 0.17015 0.4126 0.98725 0.0
Cd245 Cd 0.1835 0.41566 0.01185 0.0
O246 O 0.20374 0.43194 0.02281 0.0
C247 C 0.20469 0.447 0.01622 0.0
O248 O 0.19322 0.45154 0.00448 0.0
C249 C 0.15594 0.42012 0.98365 0.0
C250 C 0.1389 0.45415 0.04468 0.0
O251 O 0.15193 0.4587 0.03545 0.0
O252 O 0.13465 0.4381 0.04483 0.0
O253 O 0.86032 0.41042 0.06462 0.0
Cd254 Cd 0.86602 0.41133 0.09568 0.0
O255 O 0.8334 0.41621 0.07172 0.0
Cd256 Cd 0.80794 0.42573 0.06362 0.0
O257 O 0.78978 0.43902 0.04648 0.0
C258 C 0.78037 0.4306 0.03591 0.0
O259 O 0.78073 0.41359 0.03623 0.0
C260 C 0.84484 0.4137 0.06012 0.0
C261 C 0.88252 0.44252 0.10326 0.0
O262 O 0.8912 0.42842 0.10207 0.0
O263 O 0.86606 0.44181 0.10126 0.0
O264 O 0.51395 0.9929 0.62497 0.0
Cd265 Cd 0.54381 0.99234 0.61456 0.0
O266 O 0.52307 0.99433 0.6518 0.0
Cd267 Cd 0.52053 0.9961 0.67996 0.0
O268 O 0.52398 0.99901 0.70786 0.0
C269 C 0.51874 0.98752 0.71842 0.0
O270 O 0.51059 0.97384 0.7124 0.0
C271 C 0.5106 0.99323 0.64108 0.0
C272 C 0.55792 0.02452 0.60638 0.0
O273 O 0.54864 0.01619 0.59541 0.0
O274 O 0.5602 0.01781 0.6214 0.0
O275 O 0.02159 0.52857 0.63811 0.0
Cd276 Cd 0.02826 0.5578 0.62807 0.0
O277 O 0.01649 0.53778 0.66446 0.0
Cd278 Cd 0.00788 0.53564 0.69134 0.0
O279 O 0.00214 0.53807 0.71889 0.0
C280 C 0.00959 0.5283 0.72984 0.0
O281 O 0.02031 0.51631 0.72429 0.0
C282 C 0.01726 0.52537 0.65366 0.0
C283 C 0.9981 0.5757 0.61951 0.0
O284 O 0.00531 0.56538 0.6087 0.0
O285 O 0.00519 0.57766 0.6344 0.0
O286 O 0.42986 0.97561 0.64477 0.0
Cd287 Cd 0.40088 0.96326 0.64718 0.0
O288 O 0.43398 0.97362 0.67276 0.0
Cd289 Cd 0.44791 0.97716 0.69712 0.0
O290 O 0.46008 0.98314 0.72186 0.0
C291 C 0.47044 0.99588 0.72285 0.0
O292 O 0.47389 0.00483 0.70878 0.0
C293 C 0.43971 0.97751 0.6578 0.0
C294 C 0.38961 0.95432 0.61413 0.0
O295 O 0.38479 0.96857 0.62115 0.0
O296 O 0.39939 0.94417 0.62289 0.0
O297 O 0.00177 0.4434 0.65845 0.0
Cd298 Cd 0.99484 0.41261 0.66061 0.0
O299 O 0.99843 0.44886 0.68612 0.0
Cd300 Cd 0.99579 0.4647 0.70952 0.0
O301 O 0.99125 0.47704 0.7346 0.0
C302 C 0.98129 0.49009 0.7358 0.0
O303 O 0.97415 0.49636 0.72167 0.0
C304 C 0.00185 0.45418 0.6709 0.0
C305 C 0.01319 0.39433 0.63545 0.0
O306 O -0.0007 0.40258 0.63163 0.0
O307 O 0.01832 0.39446 0.65124 0.0
O308 O 0.54134 0.00309 0.38403 0.0
Cd309 Cd 0.56284 0.02511 0.39136 0.0
O310 O 0.55103 0.00215 0.35742 0.0
Cd311 Cd 0.55274 0.99482 0.32999 0.0
O312 O 0.55059 0.99283 0.30181 0.0
C313 C 0.53853 0.00116 0.29428 0.0
O314 O 0.52768 0.01025 0.30373 0.0
C315 C 0.54002 0.99726 0.3687 0.0
C316 C 0.59245 0.01322 0.40822 0.0
O317 O 0.57834 0.01593 0.41654 0.0
O318 O 0.59248 0.0157 0.3918 0.0
O319 O 0.97783 0.54709 0.36556 0.0
Cd320 Cd 0.95135 0.56378 0.37006 0.0
O321 O 0.97656 0.55076 0.33742 0.0
Cd322 Cd 0.98646 0.54818 0.31103 0.0
O323 O 0.99262 0.54779 0.28347 0.0
C324 C 0.99193 0.53374 0.27494 0.0
O325 O 0.98805 0.5193 0.28308 0.0
C326 C 0.98401 0.54425 0.35058 0.0
C327 C 0.95706 0.59302 0.39039 0.0
O328 O 0.9552 0.57803 0.39726 0.0
O329 O 0.95624 0.59425 0.37385 0.0
O330 O 0.47378 0.94472 0.36334 0.0
Cd331 Cd 0.4464 0.9321 0.35364 0.0
O332 O 0.46989 0.95986 0.33985 0.0
Cd333 Cd 0.47406 0.97874 0.31913 0.0
O334 O 0.48048 0.98619 0.2927 0.0
C335 C 0.49322 0.97847 0.28569 0.0
O336 O 0.50231 0.96749 0.29501 0.0
C337 C 0.47916 0.95636 0.35304 0.0
C338 C 0.4192 0.9549 0.36019 0.0
O339 O 0.42209 0.94195 0.37017 0.0
O340 O 0.42902 0.95699 0.34698 0.0
O341 O 0.04839 0.49269 0.3619 0.0
Cd342 Cd 0.07084 0.47065 0.36498 0.0
O343 O 0.04704 0.48949 0.33374 0.0
Cd344 Cd 0.03896 0.49489 0.30709 0.0
O345 O 0.03451 0.4978 0.27931 0.0
C346 C 0.03622 0.51249 0.27208 0.0
O347 O 0.04014 0.52601 0.28165 0.0
C348 C 0.04163 0.49683 0.34748 0.0
C349 C 0.0563 0.44015 0.37765 0.0
O350 O 0.06043 0.45258 0.38784 0.0
O351 O 0.05925 0.442 0.36141 0.0
O352 O 0.66753 0.58156 0.92327 0.0
Cd353 Cd 0.66707 0.61306 0.92531 0.0
O354 O 0.69592 0.58335 0.92327 0.0
Cd355 Cd 0.72077 0.57054 0.92816 0.0
O356 O 0.73822 0.55087 0.93864 0.0
C357 C 0.74336 0.53829 0.92934 0.0
O358 O 0.73906 0.53785 0.91288 0.0
C359 C 0.68223 0.57419 0.92351 0.0
C360 C 0.65118 0.62122 0.95664 0.0
O361 O 0.6428 0.62237 0.94235 0.0
O362 O 0.66715 0.61677 0.95607 0.0
O363 O 0.47759 0.64128 0.01223 0.0
Cd364 Cd 0.44959 0.65009 0.00026 0.0
O365 O 0.48164 0.66918 0.01102 0.0
Cd366 Cd 0.49439 0.69449 0.01091 0.0
O367 O 0.49349 0.7206 -9e-05 0.0
C368 C 0.48194 0.72256 0.98831 0.0
O369 O 0.47217 0.70923 0.98421 0.0
C370 C 0.48743 0.65422 0.01479 0.0
C371 C 0.42129 0.63086 0.01159 0.0
O372 O 0.42878 0.62734 0.99718 0.0
O373 O 0.4274 0.64327 0.02078 0.0
O374 O 0.35745 0.45951 0.01133 0.0
Cd375 Cd 0.36604 0.4315 -0.00063 0.0
O376 O 0.33003 0.45299 0.00809 0.0
Cd377 Cd 0.3021 0.45771 0.00635 0.0
O378 O 0.27521 0.45592 0.99765 0.0
C379 C 0.26938 0.46658 0.98653 0.0
O380 O 0.27946 0.4792 0.98115 0.0
C381 C 0.34161 0.4638 0.01265 0.0
C382 C 0.39694 0.41986 0.01396 0.0
O383 O 0.39698 0.43054 0.00124 0.0
O384 O 0.38228 0.41462 0.01974 0.0
O385 O 0.58869 0.36293 0.99656 0.0
Cd386 Cd 0.61604 0.35673 0.98198 0.0
O387 O 0.58034 0.33646 0.99098 0.0
Cd388 Cd 0.56373 0.31373 0.99286 0.0
O389 O 0.54533 0.29245 0.99237 0.0
C390 C 0.53722 0.28926 0.97842 0.0
O391 O 0.54026 0.29886 0.9647 0.0
C392 C 0.5773 0.35113 0.99783 0.0
C393 C 0.63666 0.38624 0.97978 0.0
O394 O 0.62725 0.38149 0.96695 0.0
O395 O 0.63635 0.37701 0.99358 0.0
O396 O 0.69188 0.49967 0.95932 0.0
Cd397 Cd 0.70348 0.4744 0.9744 0.0
O398 O 0.71052 0.49725 0.93787 0.0
Cd399 Cd 0.72368 0.47538 0.94998 0.0
O400 O 0.73729 0.45955 0.96906 0.0
C401 C 0.74258 0.46728 0.9826 0.0
O402 O 0.73971 0.48399 0.98415 0.0
C403 C 0.69781 0.50506 0.94491 0.0
C404 C 0.68072 0.44652 0.97582 0.0
O405 O 0.68213 0.45703 0.9886 0.0
O406 O 0.68994 0.44932 0.9623 0.0
O407 O 0.56331 0.62971 0.04308 0.0
Cd408 Cd 0.59397 0.63024 0.05083 0.0
O409 O 0.56742 0.65765 0.04158 0.0
Cd410 Cd 0.56061 0.68442 0.03563 0.0
O411 O 0.54826 0.70946 0.03195 0.0
C412 C 0.53756 0.71477 0.04326 0.0
O413 O 0.53459 0.70517 0.057 0.0
C414 C 0.5573 0.64472 0.04004 0.0
C415 C 0.61416 0.62849 0.021 0.0
O416 O 0.61187 0.61508 0.03052 0.0
O417 O 0.60711 0.64276 0.02567 0.0
O418 O 0.3369 0.54389 0.03778 0.0
Cd419 Cd 0.33128 0.57446 0.04336 0.0
O420 O 0.30913 0.53868 0.03514 0.0
Cd421 Cd 0.28641 0.52317 0.0283 0.0
O422 O 0.2642 0.5065 0.023 0.0
C423 C 0.2629 0.49191 0.03053 0.0
O424 O 0.27509 0.48708 0.04138 0.0
C425 C 0.3247 0.5333 0.03465 0.0
C426 C 0.36015 0.59364 0.03335 0.0
O427 O 0.35793 0.5893 0.04923 0.0
O428 O 0.34857 0.58919 0.02232 0.0
O429 O 0.51456 0.38013 0.04519 0.0
Cd430 Cd 0.4907 0.38857 0.0642 0.0
O431 O 0.50365 0.35436 0.04057 0.0
Cd432 Cd 0.50227 0.32718 0.0324 0.0
O433 O 0.49371 0.3001 0.0323 0.0
C434 C 0.48177 0.29633 0.04301 0.0
O435 O 0.47557 0.30866 0.05298 0.0
C436 C 0.51571 0.36533 0.03809 0.0
C437 C 0.46067 0.39797 0.04654 0.0
O438 O 0.47304 0.40882 0.04877 0.0
O439 O 0.46257 0.38259 0.05249 0.0
O440 O 0.91039 0.64176 0.56115 0.0
Cd441 Cd 0.90614 0.63054 0.5904 0.0
O442 O 0.91956 0.66698 0.57069 0.0
Cd443 Cd 0.93204 0.69201 0.56557 0.0
O444 O 0.94402 0.71621 0.55687 0.0
C445 C 0.95366 0.71665 0.54351 0.0
O446 O 0.95656 0.70225 0.53491 0.0
C447 C 0.91607 0.6569 0.55814 0.0
C448 C 0.93558 0.61243 0.60087 0.0
O449 O 0.92382 0.60512 0.59172 0.0
O450 O 0.93334 0.62827 0.6053 0.0
O451 O 0.02285 0.34423 0.44852 0.0
Cd452 Cd 0.01059 0.34836 0.41966 0.0
O453 O 0.01454 0.31714 0.4499 0.0
Cd454 Cd 0.00939 0.29199 0.4619 0.0
O455 O 0.00089 0.26639 0.47029 0.0
C456 C 0.99149 0.26479 0.4837 0.0
O457 O 0.98754 0.27867 0.49272 0.0
C458 C 0.0219 0.33011 0.45692 0.0
C459 C 0.02467 0.37809 0.40483 0.0
O460 O 0.01195 0.379 0.41546 0.0
O461 O 0.0306 0.36308 0.40095 0.0
O462 O 0.67382 0.02767 0.49211 0.0
Cd463 Cd 0.68222 0.00544 0.47122 0.0
O464 O 0.69543 0.04569 0.48764 0.0
Cd465 Cd 0.70861 0.02731 0.47061 0.0
O466 O 0.7241 0.00901 0.45555 0.0
C467 C 0.72972 0.9953 0.46274 0.0
O468 O 0.72585 0.99238 0.47906 0.0
C469 C 0.6812 0.04208 0.49511 0.0
C470 C 0.6546 0.00289 0.44812 0.0
O471 O 0.6547 0.9943 0.46233 0.0
O472 O 0.66792 0.01211 0.44446 0.0
O473 O 0.95049 0.67214 0.48399 0.0
Cd474 Cd 0.9665 0.68019 0.4579 0.0
O475 O 0.93239 0.69415 0.48429 0.0
Cd476 Cd 0.94644 0.70647 0.46325 0.0
O477 O 0.96876 0.72267 0.45762 0.0
C478 C 0.98093 0.72143 0.46864 0.0
O479 O 0.97931 0.71029 0.48141 0.0
C480 C 0.93772 0.68 0.49079 0.0
C481 C 0.96522 0.65277 0.43452 0.0
O482 O 0.97629 0.65296 0.44689 0.0
O483 O 0.95495 0.66572 0.43295 0.0
O484 O 0.34812 0.01719 0.42944 0.0
Cd485 Cd 0.34615 0.02702 0.39952 0.0
O486 O 0.32224 0.02577 0.43734 0.0
Cd487 Cd 0.2996 0.0295 0.45407 0.0
O488 O 0.27495 0.03553 0.46675 0.0
C489 C 0.2656 0.04791 0.46118 0.0
O490 O 0.27106 0.05705 0.4479 0.0
C491 C 0.33627 0.01782 0.44083 0.0
C492 C 0.36788 0.00457 0.38153 0.0
O493 O 0.37304 0.01979 0.38571 0.0
O494 O 0.35223 0.00034 0.38506 0.0
O495 O 0.06037 0.34271 0.52995 0.0
Cd496 Cd 0.07544 0.34611 0.55757 0.0
O497 O 0.05046 0.31677 0.53601 0.0
Cd498 Cd 0.03486 0.29357 0.53129 0.0
O499 O 0.02152 0.26866 0.52994 0.0
C500 C 0.02509 0.25794 0.51797 0.0
O501 O 0.03648 0.2623 0.5061 0.0
C502 C 0.05174 0.32941 0.52553 0.0
C503 C 0.05441 0.36109 0.58279 0.0
O504 O 0.06155 0.37032 0.57099 0.0
O505 O 0.05716 0.34472 0.58272 0.0
O506 O 0.63444 0.09207 0.54472 0.0
Cd507 Cd 0.61915 0.10762 0.56761 0.0
O508 O 0.66028 0.09546 0.55633 0.0
Cd509 Cd 0.68745 0.0874 0.55661 0.0
O510 O 0.70767 0.07071 0.54605 0.0
C511 C 0.71738 0.07618 0.53394 0.0
O512 O 0.71609 0.09242 0.52903 0.0
C513 C 0.65067 0.08933 0.54443 0.0
C514 C 0.59671 0.08393 0.58306 0.0
O515 O 0.59206 0.09269 0.56976 0.0
O516 O 0.61177 0.08681 0.58944 0.0
O517 O 0.36143 0.95822 0.49144 0.0
Cd518 Cd 0.36324 0.93191 0.5089 0.0
O519 O 0.33729 0.96247 0.5055 0.0
Cd520 Cd 0.31322 0.9748 0.51348 0.0
O521 O 0.28819 0.97863 0.52581 0.0
C522 C 0.2833 0.96737 0.53679 0.0
O523 O 0.29356 0.95424 0.54026 0.0
C524 C 0.34793 0.96731 0.49391 0.0
C525 C 0.37144 0.9389 0.54329 0.0
O526 O 0.38314 0.9341 0.53253 0.0
O527 O 0.35585 0.94044 0.53779 0.0
C528 C 0.00166 0.52729 0.10973 0.0
C529 C 0.99346 0.53472 0.12417 0.0
H530 H 0.02576 0.52031 0.09781 0.0
C531 C 0.00364 0.5418 0.13746 0.0
H532 H 0.99408 0.52191 0.09922 0.0
C533 C 0.02169 0.54108 0.13658 0.0
C534 C 0.02994 0.53302 0.1225 0.0
H535 H 0.99767 0.54833 0.14834 0.0
H536 H 0.02913 0.54726 0.1467 0.0
C537 C 0.01975 0.52639 0.10894 0.0
C538 C 0.52955 0.99689 0.13043 0.0
C539 C 0.52619 0.00823 0.14428 0.0
H540 H 0.52277 0.97315 0.11767 0.0
C541 C 0.51363 0.00361 0.1566 0.0
H542 H 0.53903 0.0002 0.12062 0.0
C543 C 0.5044 0.98813 0.15493 0.0
C544 C 0.50752 0.977 0.14089 0.0
H545 H 0.51004 0.01243 0.16686 0.0
H546 H 0.49407 0.98546 0.16402 0.0
C547 C 0.52027 0.98144 0.12872 0.0
C548 C 0.9651 0.55696 0.85559 0.0
C549 C 0.9545 0.55262 0.86973 0.0
H550 H 0.99059 0.5634 0.84684 0.0
C551 C 0.96206 0.55096 0.88622 0.0
H552 H 0.9596 0.55926 0.84292 0.0
C553 C 0.97985 0.55347 0.88849 0.0
C554 C 0.99045 0.55761 0.87431 0.0
H555 H 0.95419 0.54779 0.8974 0.0
H556 H 0.98532 0.55219 0.90135 0.0
C557 C 0.9829 0.55939 0.85785 0.0
C558 C 0.53711 0.03219 0.84235 0.0
C559 C 0.52922 0.04065 0.85641 0.0
H560 H 0.55224 0.01051 0.83383 0.0
C561 C 0.53136 0.03376 0.87313 0.0
H562 H 0.53651 0.03761 0.82946 0.0
C563 C 0.54046 0.01834 0.87563 0.0
C564 C 0.54758 0.00942 0.86147 0.0
H565 H 0.52557 0.04001 0.88428 0.0
H566 H 0.54145 0.01312 0.88862 0.0
C567 C 0.54617 0.01667 0.84485 0.0
C568 C 0.15412 0.01176 0.55128 0.0
C569 C 0.15439 0.99507 0.54402 0.0
H570 H 0.15204 0.039 0.54659 0.0
C571 C 0.15027 0.99305 0.5264 0.0
H572 H 0.15721 0.01375 0.56483 0.0
C573 C 0.14726 0.00751 0.51597 0.0
C574 C 0.14845 0.0243 0.52291 0.0
H575 H 0.15022 0.98035 0.52045 0.0
H576 H 0.14495 0.00553 0.50226 0.0
C577 C 0.15124 0.02625 0.54081 0.0
C578 C 0.95691 0.10909 0.51058 0.0
C579 C 0.96914 0.11924 0.51942 0.0
H580 H 0.93089 0.10699 0.50125 0.0
C581 C 0.96432 0.13576 0.52533 0.0
H582 H 0.96026 0.09625 0.50602 0.0
C583 C 0.94744 0.14185 0.52277 0.0
C584 C 0.93513 0.1316 0.51409 0.0
H585 H 0.97324 0.14355 0.53283 0.0
H586 H 0.94384 0.15411 0.52848 0.0
C587 C 0.94011 0.11523 0.50789 0.0
C588 C 0.8211 0.95425 0.4245 0.0
C589 C 0.83365 0.94452 0.43331 0.0
H590 H 0.80304 0.97521 0.42562 0.0
C591 C 0.83838 0.94926 0.4502 0.0
H592 H 0.81754 0.95101 0.41132 0.0
C593 C 0.82994 0.96299 0.45852 0.0
C594 C 0.81682 0.97233 0.44995 0.0
H595 H 0.84814 0.94198 0.45717 0.0
H596 H 0.83345 0.96603 0.47175 0.0
C597 C 0.81283 0.96809 0.4327 0.0
C598 C 0.04989 0.82239 0.4789 0.0
C599 C 0.06394 0.83233 0.48487 0.0
H600 H 0.02224 0.81946 0.47786 0.0
C601 C 0.06054 0.84757 0.49423 0.0
H602 H 0.05199 0.81118 0.47082 0.0
C603 C 0.04356 0.85254 0.49787 0.0
C604 C 0.02953 0.84234 0.49238 0.0
H605 H 0.07105 0.8556 0.49893 0.0
H606 H 0.04142 0.86431 0.50521 0.0
C607 C 0.03282 0.82724 0.48279 0.0
C608 C 0.45028 0.16083 0.01591 0.0
C609 C 0.4445 0.17692 0.00966 0.0
H610 H 0.44938 0.14231 0.03656 0.0
C611 C 0.43218 0.18627 0.01926 0.0
H612 H 0.45972 0.15332 0.00873 0.0
C613 C 0.42652 0.1801 0.03531 0.0
C614 C 0.43288 0.16438 0.04185 0.0
H615 H 0.42753 0.19873 0.01478 0.0
H616 H 0.41738 0.18773 0.04273 0.0
C617 C 0.44437 0.15452 0.03179 0.0
C618 C 0.46966 0.85525 0.9612 0.0
C619 C 0.45642 0.84725 0.95168 0.0
H620 H 0.48476 0.85512 0.98444 0.0
C621 C 0.44704 0.83359 0.95916 0.0
H622 H 0.47701 0.86586 0.95569 0.0
C623 C 0.45128 0.82757 0.9757 0.0
C624 C 0.46514 0.83499 0.98489 0.0
H625 H 0.43657 0.82744 0.95212 0.0
H626 H 0.44414 0.81672 0.98099 0.0
C627 C 0.47411 0.84906 0.9776 0.0
C628 C 0.13484 0.43 0.96097 0.0
C629 C 0.15044 0.42164 0.96535 0.0
H630 H 0.11979 0.44187 0.94079 0.0
C631 C 0.16196 0.41695 0.95204 0.0
H632 H 0.12564 0.43368 0.9709 0.0
C633 C 0.15883 0.42207 0.935 0.0
C634 C 0.14384 0.43143 0.93087 0.0
H635 H 0.17401 0.41034 0.95491 0.0
H636 H 0.16842 0.41926 0.92514 0.0
C637 C 0.13148 0.4347 0.94378 0.0
C638 C 0.8251 0.40954 0.03497 0.0
C639 C 0.84042 0.41651 0.04179 0.0
H640 H 0.8071 0.40938 0.01392 0.0
C641 C 0.85045 0.42768 0.03155 0.0
H642 H 0.81732 0.40067 0.04257 0.0
C643 C 0.84446 0.43296 0.01526 0.0
C644 C 0.82845 0.42695 0.00893 0.0
H645 H 0.86235 0.43317 0.03656 0.0
H646 H 0.85196 0.44236 0.00804 0.0
C647 C 0.81924 0.41459 0.01862 0.0
C648 C 0.47893 0.99759 0.63652 0.0
C649 C 0.49249 0.99138 0.64694 0.0
H650 H 0.45157 0.99838 0.63208 0.0
C651 C 0.48848 0.98165 0.66178 0.0
H652 H 0.48166 0.00503 0.62493 0.0
C653 C 0.47126 0.9777 0.66579 0.0
C654 C 0.45771 0.98356 0.65513 0.0
H655 H 0.49867 0.97608 0.66965 0.0
H656 H 0.46873 0.96911 0.67655 0.0
C657 C 0.46172 0.99377 0.64061 0.0
C658 C 0.01648 0.50101 0.67528 0.0
C659 C 0.01275 0.50746 0.65867 0.0
H660 H 0.01651 0.47894 0.69209 0.0
C661 C 0.00532 0.49635 0.64634 0.0
H662 H 0.02287 0.50906 0.68481 0.0
C663 C 0.00158 0.47919 0.65054 0.0
C664 C 0.00524 0.47267 0.66714 0.0
H665 H 0.00238 0.50095 0.63341 0.0
H666 H 0.99582 0.47098 0.64071 0.0
C667 C 0.01279 0.48374 0.67947 0.0
C668 C 0.5045 0.97443 0.34353 0.0
C669 C 0.49546 0.96581 0.35674 0.0
H670 H 0.52462 0.99201 0.33697 0.0
C671 C 0.50196 0.96663 0.37373 0.0
H672 H 0.50049 0.97342 0.33021 0.0
C673 C 0.51675 0.97643 0.37747 0.0
C674 C 0.52536 0.98565 0.36431 0.0
H675 H 0.49539 0.96003 0.38423 0.0
H676 H 0.52126 0.97702 0.39074 0.0
C677 C 0.51898 0.98455 0.34732 0.0
C678 C 0.01468 0.50963 0.33436 0.0
C679 C 0.02764 0.50993 0.34715 0.0
H680 H 0.99062 0.52023 0.32547 0.0
C681 C 0.02641 0.5221 0.36064 0.0
H682 H 0.01471 0.49989 0.32432 0.0
C683 C 0.01244 0.53355 0.36147 0.0
C684 C -0.00051 0.53321 0.34872 0.0
H685 H 0.03612 0.52259 0.37077 0.0
H686 H 0.01166 0.54257 0.37219 0.0
C687 C 0.00079 0.52125 0.33508 0.0
C688 C 0.6955 0.54542 0.91735 0.0
C689 C 0.68354 0.55543 0.92664 0.0
H690 H 0.70889 0.52123 0.91545 0.0
C691 C 0.67438 0.54789 0.9404 0.0
H692 H 0.70252 0.55095 0.90653 0.0
C693 C 0.6783 0.53104 0.94579 0.0
C694 C 0.69126 0.52142 0.93732 0.0
H695 H 0.66506 0.5554 0.94772 0.0
H696 H 0.67178 0.52592 0.95712 0.0
C697 C 0.69918 0.52847 0.92252 0.0
C698 C 0.51415 0.63621 0.01825 0.0
C699 C 0.50519 0.65174 0.02148 0.0
H700 H 0.53777 0.62194 0.02143 0.0
C701 C 0.51318 0.6646 0.03154 0.0
H702 H 0.50823 0.626 0.01067 0.0
C703 C 0.52992 0.66212 0.03798 0.0
C704 C 0.53919 0.64694 0.03413 0.0
H705 H 0.50634 0.6764 0.03482 0.0
H706 H 0.53542 0.67191 0.04631 0.0
C707 C 0.53102 0.63387 0.02446 0.0
C708 C 0.32169 0.48471 0.02764 0.0
C709 C 0.33707 0.48145 0.01849 0.0
H710 H 0.30615 0.50357 0.04078 0.0
C711 C 0.34852 0.49521 0.01525 0.0
H712 H 0.31298 0.47424 0.03096 0.0
C713 C 0.34447 0.51199 0.02062 0.0
C714 C 0.32891 0.51537 0.02942 0.0
H715 H 0.36054 0.49306 0.00833 0.0
H716 H 0.35343 0.52237 0.01766 0.0
C717 C 0.31771 0.50152 0.03317 0.0
C718 C 0.53079 0.34923 0.01405 0.0
C719 C 0.53134 0.3611 0.02783 0.0
H720 H 0.54465 0.33733 0.99317 0.0
C721 C 0.54697 0.36971 0.03143 0.0
H722 H 0.51878 0.34291 0.01054 0.0
C723 C 0.56179 0.36637 0.02165 0.0
C724 C 0.56136 0.35438 0.00799 0.0
H725 H 0.54779 0.379 0.04191 0.0
H726 H 0.57366 0.37312 0.02489 0.0
C727 C 0.54566 0.34597 0.00415 0.0
C728 C 0.92084 0.68455 0.51808 0.0
C729 C 0.93019 0.67343 0.50711 0.0
H730 H 0.90896 0.68794 0.54295 0.0
C731 C 0.93356 0.65638 0.51256 0.0
H732 H 0.91804 0.69776 0.51424 0.0
C733 C 0.92827 0.65078 0.52894 0.0
C734 C 0.91985 0.66224 0.54024 0.0
H735 H 0.94065 0.64748 0.50435 0.0
H736 H 0.93143 0.63774 0.53304 0.0
C737 C 0.9158 0.67902 0.53455 0.0
C738 C 0.04216 0.31371 0.4987 0.0
C739 C 0.04323 0.32907 0.5084 0.0
H740 H 0.0352 0.30204 0.47453 0.0
C741 C 0.03705 0.34455 0.50116 0.0
H742 H 0.04748 0.30173 0.50367 0.0
C743 C 0.02988 0.34471 0.48457 0.0
C744 C 0.0288 0.32939 0.47479 0.0
H745 H 0.03781 0.3566 0.50832 0.0
H746 H 0.02524 0.35689 0.47937 0.0
C747 C 0.03507 0.31389 0.482 0.0
C748 C 0.67341 0.08219 0.52248 0.0
C749 C 0.65804 0.0778 0.53112 0.0
H750 H 0.69273 0.07442 0.50412 0.0
C751 C 0.64989 0.06202 0.52729 0.0
H752 H 0.67967 0.09449 0.52496 0.0
C753 C 0.65739 0.05047 0.51555 0.0
C754 C 0.67308 0.05458 0.50722 0.0
H755 H 0.63796 0.05841 0.53374 0.0
H756 H 0.65095 0.03824 0.51315 0.0
C757 C 0.68084 0.07071 0.51057 0.0
C758 C 0.35846 0.99158 0.47543 0.0
C759 C 0.34452 0.98253 0.48279 0.0
H760 H 0.36666 0.01032 0.45676 0.0
C761 C 0.32755 0.98691 0.47783 0.0
H762 H 0.37168 0.9885 0.47902 0.0
C763 C 0.32465 -0.00057 0.46502 0.0
C764 C 0.33868 0.00782 0.457 0.0
H765 H 0.31657 0.97979 0.48285 0.0
H766 H 0.31154 0.00148 0.4605 0.0
C767 C 0.35557 0.00412 0.46273 0.0
C768 C 0.03076 0.50084 0.22469 0.0
C769 C 0.03566 0.51632 0.21645 0.0
H770 H 0.02703 0.4875 0.2487 0.0
C771 C 0.03979 0.53081 0.22668 0.0
H772 H 0.02739 0.48947 0.21719 0.0
C773 C 0.03951 0.5297 0.24475 0.0
C774 C 0.03519 0.51405 0.25299 0.0
H775 H 0.04346 0.54298 0.22075 0.0
H776 H 0.04301 0.54103 0.25224 0.0
C777 C 0.03057 0.49971 0.24276 0.0
C778 C 0.52601 0.01313 0.26686 0.0
C779 C 0.53745 0.00164 0.27513 0.0
H780 H 0.51696 0.02366 0.24287 0.0
C781 C 0.54825 0.99111 0.26493 0.0
H782 H 0.51742 0.02135 0.27432 0.0
C783 C 0.54793 0.99239 0.24685 0.0
C784 C 0.53687 0.00429 0.23861 0.0
H785 H 0.55712 0.98203 0.2709 0.0
H786 H 0.55659 0.98428 0.23938 0.0
C787 C 0.52575 0.01448 0.24881 0.0
C788 C 0.98985 0.51993 0.22792 0.0
C789 C 0.994 0.53543 0.21931 0.0
H790 H 0.98616 0.50717 0.25225 0.0
C791 C 0.99873 0.54998 0.22916 0.0
H792 H 0.98632 0.50843 0.2207 0.0
C793 C 0.99857 0.54928 0.24724 0.0
C794 C 0.99376 0.53398 0.25586 0.0
H795 H 0.00212 0.56209 0.22293 0.0
H796 H 0.00188 0.56085 0.25446 0.0
C797 C 0.98978 0.5192 0.24601 0.0
C798 C 0.48749 0.9909 0.23862 0.0
C799 C 0.49826 0.97878 0.23034 0.0
H800 H 0.47746 0.00037 0.26268 0.0
C801 C 0.50872 0.96789 0.2405 0.0
H802 H 0.47937 -0.00043 0.23115 0.0
C803 C 0.50774 0.96844 0.25854 0.0
C804 C 0.49613 0.97977 0.26681 0.0
H805 H 0.51735 0.95858 0.2345 0.0
H806 H 0.5156 0.9595 0.26597 0.0
C807 C 0.48637 0.99134 0.25668 0.0
C808 C 0.01672 0.52169 0.76081 0.0
C809 C 0.00719 0.53129 0.74863 0.0
H810 H 0.02299 0.5178 0.78753 0.0
C811 C 0.99582 0.54422 0.75456 0.0
H812 H 0.02551 0.51156 0.75669 0.0
C813 C 0.99434 0.54777 0.77224 0.0
C814 C 0.00423 0.5385 0.78439 0.0
H815 H 0.98819 0.55177 0.74552 0.0
H816 H 0.98562 0.55797 0.77635 0.0
C817 C 0.01528 0.52528 0.7785 0.0
C818 C 0.47451 0.99128 0.75473 0.0
C819 C 0.4777 0.00118 0.73977 0.0
H820 H 0.47786 0.98889 0.78214 0.0
C821 C 0.48745 0.01647 0.74124 0.0
H822 H 0.46712 0.97937 0.75402 0.0
C823 C 0.49358 0.02194 0.75737 0.0
C824 C 0.49012 0.01221 0.77237 0.0
H825 H 0.49022 0.02435 0.72997 0.0
H826 H 0.50091 0.03388 0.75807 0.0
C827 C 0.48067 0.99673 0.77085 0.0
C828 C 0.9608 0.51793 0.77067 0.0
C829 C 0.96825 0.51111 0.78583 0.0
H830 H 0.95915 0.51676 0.74303 0.0
C831 C 0.98038 0.49761 0.78435 0.0
H832 H 0.95148 0.5284 0.77133 0.0
C833 C 0.98476 0.49092 0.7681 0.0
C834 C 0.97714 0.49759 0.75296 0.0
H835 H 0.98644 0.49212 0.79575 0.0
H836 H 0.99408 0.48044 0.76743 0.0
C837 C 0.96521 0.51126 0.75442 0.0
C838 C 0.52138 0.97762 0.76646 0.0
C839 C 0.53077 0.99192 0.77272 0.0
H840 H 0.51012 0.96506 0.74445 0.0
C841 C 0.53573 0.00497 0.76105 0.0
H842 H 0.51727 0.96738 0.77513 0.0
C843 C 0.53168 0.00361 0.74346 0.0
C844 C 0.52251 0.9892 0.73715 0.0
H845 H 0.5429 0.0162 0.76544 0.0
H846 H 0.53581 0.01385 0.73481 0.0
C847 C 0.51729 0.97628 0.74886 0.0
C848 C 0.24264 0.04175 0.48329 0.0
C849 C 0.24858 0.05168 0.46924 0.0
H850 H 0.22225 0.03698 0.50137 0.0
C851 C 0.23798 0.06507 0.46284 0.0
H852 H 0.25047 0.03137 0.48857 0.0
C853 C 0.22172 0.0683 0.4702 0.0
C854 C 0.21573 0.05822 0.48413 0.0
H855 H 0.24217 0.07298 0.45204 0.0
H856 H 0.21381 0.07861 0.4649 0.0
C857 C 0.22643 0.04498 0.49064 0.0
C858 C 0.96392 0.23046 0.50535 0.0
C859 C 0.96791 0.21567 0.4955 0.0
H860 H 0.96836 0.2575 0.50949 0.0
C861 C 0.98041 0.21698 0.48233 0.0
H862 H 0.95445 0.22986 0.51569 0.0
C863 C 0.98834 0.23286 0.47873 0.0
C864 C 0.984 0.24774 0.48828 0.0
H865 H 0.98387 0.20582 0.47457 0.0
H866 H 0.99771 0.23348 0.46831 0.0
C867 C 0.97191 0.24631 0.50181 0.0
C868 C 0.74761 0.96824 0.46121 0.0
C869 C 0.74075 0.98297 0.453 0.0
H870 H 0.76356 0.94568 0.45894 0.0
C871 C 0.7447 0.98589 0.43546 0.0
H872 H 0.74485 0.9656 0.47471 0.0
C873 C 0.75539 0.97442 0.42639 0.0
C874 C 0.76239 0.95978 0.43465 0.0
H875 H 0.73963 0.99712 0.42874 0.0
H876 H 0.75833 0.97718 0.41295 0.0
C877 C 0.75832 0.95678 0.45215 0.0
C878 C 0.01134 0.75743 0.45493 0.0
C879 C 0.02405 0.75667 0.46795 0.0
H880 H 0.98775 0.74685 0.44487 0.0
C881 C 0.02281 0.74381 0.48076 0.0
H882 H 0.01194 0.76717 0.44485 0.0
C883 C 0.00901 0.73212 0.48071 0.0
C884 C 0.9961 0.7331 0.46792 0.0
H885 H 0.0324 0.74284 0.49096 0.0
H886 H 0.00832 0.72252 0.49092 0.0
C887 C 0.99749 0.74577 0.45492 0.0
C888 C 0.24367 0.95664 0.56374 0.0
C889 C 0.23264 0.97056 0.55978 0.0
H890 H 0.26837 0.94472 0.55961 0.0
C891 C 0.23861 0.98366 0.54862 0.0
H892 H 0.23945 0.94635 0.5723 0.0
C893 C 0.25513 0.98272 0.54134 0.0
C894 C 0.26607 0.96867 0.54506 0.0
H895 H 0.23045 0.99459 0.54532 0.0
H896 H 0.25924 0.99295 0.53265 0.0
C897 C 0.26023 0.95571 0.55646 0.0
C898 C 0.9988 0.21879 0.53166 0.0
C899 C 0.00506 0.20596 0.52037 0.0
H900 H 0.00014 0.24528 0.53972 0.0
C901 C 0.01724 0.2106 0.50765 0.0
H902 H 0.98932 0.21568 0.54152 0.0
C903 C 0.02339 0.2276 0.50657 0.0
C904 C 0.01756 0.2403 0.51824 0.0
H905 H 0.02222 0.20106 0.49866 0.0
H906 H 0.03297 0.23068 0.49679 0.0
C907 C 0.00502 0.23577 0.53063 0.0
C908 C 0.74672 0.05766 0.49922 0.0
C909 C 0.74674 0.03994 0.5034 0.0
H910 H 0.73761 0.08303 0.50569 0.0
C911 C 0.73755 0.03434 0.51807 0.0
H912 H 0.75372 0.06242 0.48803 0.0
C913 C 0.72835 0.04616 0.52823 0.0
C914 C 0.72817 0.06386 0.52396 0.0
H915 H 0.7373 0.02077 0.52165 0.0
H916 H 0.72119 0.04137 0.5393 0.0
C917 C 0.73754 0.0695 0.5094 0.0
C918 C 0.96512 0.76435 0.54113 0.0
C919 C 0.97565 0.76504 0.52629 0.0
H920 H 0.94998 0.74863 0.5582 0.0
C921 C 0.97903 0.74963 0.5172 0.0
H922 H 0.96224 0.77596 0.54846 0.0
C923 C 0.97197 0.73389 0.52282 0.0
C924 C 0.96137 0.73324 0.53763 0.0
H925 H 0.98704 0.74974 0.5057 0.0
H926 H 0.97479 0.72225 0.51551 0.0
C927 C 0.95807 0.74865 0.54673 0.0
C928 C 0.45636 0.25754 0.05908 0.0
C929 C 0.46262 0.24414 0.04847 0.0
H930 H 0.45744 0.2844 0.06564 0.0
C931 C 0.47508 0.24809 0.03576 0.0
H932 H 0.44674 0.25499 0.06897 0.0
C933 C 0.48128 0.26504 0.03387 0.0
C934 C 0.4751 0.27839 0.04461 0.0
H935 H 0.48016 0.23807 0.02736 0.0
H936 H 0.49095 0.26767 0.02405 0.0
C937 C 0.46251 0.27445 0.05716 0.0
C938 C 0.48667 0.76985 0.97553 0.0
C939 C 0.47413 0.7714 0.96239 0.0
H940 H 0.49904 0.75319 0.99399 0.0
C941 C 0.46423 0.7568 0.95794 0.0
H942 H 0.49451 0.78086 0.97929 0.0
C943 C 0.4668 0.74101 0.96638 0.0
C944 C 0.47937 0.73941 0.97948 0.0
H945 H 0.45444 0.75753 0.94791 0.0
H946 H 0.45892 0.73004 0.96259 0.0
C947 C 0.48928 0.75401 0.98397 0.0
C948 C 0.23055 0.4715 0.95685 0.0
C949 C 0.22045 0.45706 0.96145 0.0
H950 H 0.25377 0.48598 0.96132 0.0
C951 C 0.22616 0.44629 0.97497 0.0
H952 H 0.22645 0.48011 0.94656 0.0
C953 C 0.24187 0.44959 0.98337 0.0
C954 C 0.25215 0.46382 0.97854 0.0
H955 H 0.21868 0.43507 0.97886 0.0
H956 H 0.24604 0.44084 0.99352 0.0
C957 C 0.24619 0.47488 0.96535 0.0
C958 C 0.52089 0.26509 0.99253 0.0
C959 C 0.52443 0.27502 0.9777 0.0
H960 H 0.50624 0.2444 0.00364 0.0
C961 C 0.51557 0.27128 0.96224 0.0
H962 H 0.52748 0.26763 0.00466 0.0
C963 C 0.50333 0.25795 0.96166 0.0
C964 C 0.49972 0.2481 0.97654 0.0
H965 H 0.51802 0.27869 0.95057 0.0
H966 H 0.49664 0.25543 0.94958 0.0
C967 C 0.50869 0.25177 0.99195 0.0
C968 C 0.76801 0.51112 0.96194 0.0
C969 C 0.76983 0.49532 0.95308 0.0
H970 H 0.75823 0.53706 0.96142 0.0
C971 C 0.76319 0.49389 0.93618 0.0
H972 H 0.77291 0.51264 0.975 0.0
C973 C 0.7549 0.50796 0.92834 0.0
C974 C 0.75292 0.5237 0.93728 0.0
H975 H 0.76436 0.48188 0.92902 0.0
H976 H 0.74978 0.50639 0.91537 0.0
C977 C 0.75958 0.52512 0.95417 0.0
C978 C 0.51517 0.73639 0.05242 0.0
C979 C 0.5281 0.73121 0.04069 0.0
H980 H 0.49567 0.75507 0.05871 0.0
C981 C 0.53163 0.74171 0.02625 0.0
H982 H 0.51215 0.72859 0.06369 0.0
C983 C 0.52226 0.75692 0.02346 0.0
C984 C 0.50907 0.76189 0.03497 0.0
H985 H 0.54155 0.73812 0.01699 0.0
H986 H 0.52521 0.76462 0.01211 0.0
C987 C 0.50574 0.75157 0.04958 0.0
C988 C 0.23455 0.4859 0.01592 0.0
C989 C 0.24781 0.48057 0.0272 0.0
H990 H 0.21051 0.47955 0.00372 0.0
C991 C 0.24654 0.46428 0.03523 0.0
H992 H 0.23515 0.49835 0.00948 0.0
C993 C 0.23237 0.45349 0.03195 0.0
C994 C 0.21919 0.45876 0.02056 0.0
H995 H 0.25655 0.45977 0.04397 0.0
H996 H 0.23188 0.44092 0.03817 0.0
C997 C 0.22038 0.47513 0.01266 0.0
C998 C 0.75948 0.46683 0.01025 0.0
C999 C 0.75201 0.45779 0.99632 0.0
H1000 H 0.77424 0.46537 0.03365 0.0
C1001 C 0.7537 0.43967 0.99566 0.0
H1002 H 0.75847 0.4808 0.01111 0.0
C1003 C 0.76265 0.4308 0.00868 0.0
C1004 C 0.77021 0.43987 0.02255 0.0
H1005 H 0.74811 0.43233 0.98509 0.0
H1006 H 0.76384 0.41685 0.00774 0.0
C1007 C 0.76853 0.45798 0.02318 0.0
C1008 C 0.11814 0.46164 0.06847 0.0
C1009 C 0.12922 0.46702 0.05506 0.0
H1010 H 0.10129 0.4693 0.08914 0.0
C1011 C 0.13122 0.48483 0.05187 0.0
H1012 H 0.11636 0.448 0.07125 0.0
C1013 C 0.12239 0.49702 0.06195 0.0
C1014 C 0.11162 0.49165 0.07561 0.0
H1015 H 0.13961 0.48937 0.04158 0.0
H1016 H 0.12429 0.51066 0.05926 0.0
C1017 C 0.10954 0.47383 0.07873 0.0
C1018 C 0.47632 0.09374 0.09519 0.0
C1019 C 0.46935 0.10674 0.10583 0.0
H1020 H 0.49722 0.07605 0.09084 0.0
C1021 C 0.47851 0.11189 0.1207 0.0
H1022 H 0.46959 0.0896 0.08358 0.0
C1023 C 0.49419 0.10389 0.12503 0.0
C1024 C 0.5012 0.09094 0.11432 0.0
H1025 H 0.47341 0.12188 0.12913 0.0
H1026 H 0.50089 0.10789 0.1367 0.0
C1027 C 0.49218 0.08607 0.09928 0.0
C1028 C 0.91518 0.47583 0.11829 0.0
C1029 C 0.90846 0.49108 0.11098 0.0
H1030 H 0.91237 0.44834 0.12125 0.0
C1031 C 0.89302 0.49029 0.1014 0.0
H1032 H 0.9271 0.47612 0.12571 0.0
C1033 C 0.88436 0.47453 0.09928 0.0
C1034 C 0.89128 0.45922 0.10627 0.0
H1035 H 0.88753 0.50188 0.09571 0.0
H1036 H 0.87245 0.47427 0.09185 0.0
C1037 C 0.9068 0.45998 0.11572 0.0
C1038 C 0.48199 0.87524 0.09536 0.0
C1039 C 0.48649 0.89188 0.08954 0.0
H1040 H 0.48141 0.84806 0.08961 0.0
C1041 C 0.49526 0.89369 0.07371 0.0
H1042 H 0.47516 0.87352 0.1075 0.0
C1043 C 0.49921 0.87914 0.06373 0.0
C1044 C 0.49403 0.86256 0.06916 0.0
H1045 H 0.49892 0.90639 0.06898 0.0
H1046 H 0.50573 0.88093 0.05143 0.0
C1047 C 0.4855 0.86071 0.08512 0.0
C1048 C 0.08917 0.52523 0.8985 0.0
C1049 C 0.07599 0.52895 0.88654 0.0
H1050 H 0.10963 0.50793 0.90581 0.0
C1051 C 0.07305 0.51752 0.87269 0.0
H1052 H 0.09173 0.53387 0.90925 0.0
C1053 C 0.083 0.50248 0.87097 0.0
C1054 C 0.09637 0.4989 0.88277 0.0
H1055 H 0.06291 0.52008 0.86333 0.0
H1056 H 0.0804 0.49379 0.86025 0.0
C1057 C 0.09945 0.51045 0.89649 0.0
C1058 C 0.48986 0.15807 0.90967 0.0
C1059 C 0.49167 0.15373 0.92724 0.0
H1060 H 0.48973 0.14892 0.88343 0.0
C1061 C 0.49472 0.13641 0.93187 0.0
H1062 H 0.48755 0.17137 0.90581 0.0
C1063 C 0.49546 0.12354 0.91916 0.0
C1064 C 0.49374 0.12789 0.90158 0.0
H1065 H 0.49609 0.13274 0.94535 0.0
H1066 H 0.49747 0.11021 0.92305 0.0
C1067 C 0.49118 0.14528 0.89691 0.0
C1068 C 0.8509 0.51158 0.93527 0.0
C1069 C 0.84931 0.494 0.9308 0.0
H1070 H 0.86129 0.5364 0.92857 0.0
C1071 C 0.85786 0.48789 0.91593 0.0
H1072 H 0.8445 0.5167 0.94666 0.0
C1073 C 0.86744 0.4992 0.90553 0.0
C1074 C 0.86873 0.51685 0.90979 0.0
H1075 H 0.85691 0.47442 0.91213 0.0
H1076 H 0.87364 0.49413 0.89401 0.0
C1077 C 0.86053 0.52288 0.9249 0.0
C1078 C 0.51563 0.93324 0.90285 0.0
C1079 C 0.52781 0.92898 0.89003 0.0
H1080 H 0.49098 0.92762 0.91423 0.0
C1081 C 0.52428 0.91519 0.87869 0.0
H1082 H 0.51795 0.94388 0.9117 0.0
C1083 C 0.50893 0.90568 0.88032 0.0
C1084 C 0.49668 0.91008 0.89304 0.0
H1085 H 0.53346 0.91163 0.86869 0.0
H1086 H 0.50658 0.89499 0.87153 0.0
C1087 C 0.50014 0.92401 0.90422 0.0
C1088 C 0.07691 0.06919 0.48544 0.0
C1089 C 0.09127 0.07893 0.49097 0.0
H1090 H 0.05015 0.06306 0.48933 0.0
C1091 C 0.08889 0.09158 0.50386 0.0
H1092 H 0.07829 0.05938 0.47551 0.0
C1093 C 0.07271 0.09377 0.51171 0.0
C1094 C 0.05864 0.08324 0.50694 0.0
H1095 H 0.09968 0.09935 0.50835 0.0
H1096 H 0.07147 0.10315 0.52206 0.0
C1097 C 0.06078 0.07127 0.49339 0.0
C1098 C 0.83594 0.08453 0.4876 0.0
C1099 C 0.84335 0.08826 0.50381 0.0
H1100 H 0.82059 0.06697 0.47258 0.0
C1101 C 0.84076 0.07663 0.51758 0.0
H1102 H 0.83766 0.09325 0.47674 0.0
C1103 C 0.83113 0.0615 0.51515 0.0
C1104 C 0.8237 0.05777 0.49895 0.0
H1105 H 0.84634 0.07912 0.53021 0.0
H1106 H 0.82945 0.05275 0.52599 0.0
C1107 C 0.82612 0.06949 0.48522 0.0
C1108 C 0.91426 0.87402 0.456 0.0
C1109 C 0.91506 0.88836 0.44482 0.0
H1110 H 0.92666 0.85964 0.47623 0.0
C1111 C 0.92977 0.89908 0.44525 0.0
H1112 H 0.90313 0.86548 0.45592 0.0
C1113 C 0.94316 0.89584 0.457 0.0
C1114 C 0.94223 0.88168 0.46841 0.0
H1115 H 0.93077 0.91024 0.43681 0.0
H1116 H 0.95417 0.90454 0.45727 0.0
C1117 C 0.92777 0.87064 0.4676 0.0
C1118 C 0.15494 0.88434 0.53712 0.0
C1119 C 0.16512 0.89715 0.52916 0.0
H1120 H 0.14017 0.86109 0.53386 0.0
C1121 C 0.16867 0.89582 0.51135 0.0
H1122 H 0.15205 0.88498 0.55084 0.0
C1123 C 0.16167 0.88228 0.50158 0.0
C1124 C 0.15124 0.86963 0.50949 0.0
H1125 H 0.17645 0.90553 0.50486 0.0
H1126 H 0.16427 0.88182 0.4878 0.0
C1127 C 0.1482 0.87062 0.52741 0.0
C1128 C 0.57135 0.06391 0.58046 0.0
C1129 C 0.58556 0.07002 0.59008 0.0
H1130 H 0.5515 0.0447 0.57805 0.0
C1131 C 0.58972 0.06185 0.60581 0.0
H1132 H 0.56781 0.06992 0.56828 0.0
C1133 C 0.58025 0.0475 0.6115 0.0
C1134 C 0.56658 0.04088 0.60144 0.0
H1135 H 0.60055 0.0663 0.61355 0.0
H1136 H 0.58406 0.04121 0.62345 0.0
C1137 C 0.56203 0.04943 0.58603 0.0
C1138 C 0.97694 0.59987 0.62417 0.0
C1139 C 0.98202 0.58503 0.61492 0.0
H1140 H 0.95835 0.62033 0.62681 0.0
C1141 C 0.97161 0.57918 0.60118 0.0
H1142 H 0.98473 0.60469 0.6348 0.0
C1143 C 0.95639 0.58794 0.59682 0.0
C1144 C 0.95143 0.60292 0.60589 0.0
H1145 H 0.97516 0.56774 0.59387 0.0
H1146 H 0.94863 0.58311 0.58616 0.0
C1147 C 0.96188 0.60883 0.61957 0.0
C1148 C 0.36983 0.95749 0.58863 0.0
C1149 C 0.38457 0.94998 0.59621 0.0
H1150 H 0.35393 0.95961 0.56595 0.0
C1151 C 0.3948 0.93862 0.58634 0.0
H1152 H 0.3617 0.96628 0.59596 0.0
C1153 C 0.39058 0.93512 0.5691 0.0
C1154 C 0.37582 0.94258 0.56153 0.0
H1155 H 0.40629 0.93272 0.59183 0.0
H1156 H 0.39882 0.92647 0.56172 0.0
C1157 C 0.36537 0.95365 0.5715 0.0
C1158 C 0.03372 0.38405 0.59223 0.0
C1159 C 0.04344 0.36919 0.59616 0.0
H1160 H 0.01613 0.40339 0.60157 0.0
C1161 C 0.04286 0.36238 0.61302 0.0
H1162 H 0.03391 0.3895 0.5793 0.0
C1163 C 0.03308 0.3706 0.62588 0.0
C1164 C 0.02328 0.38541 0.62191 0.0
H1165 H 0.05031 0.35097 0.61637 0.0
H1166 H 0.03307 0.36531 0.63888 0.0
C1167 C 0.02351 0.39193 0.60493 0.0
C1168 C 0.62479 0.01206 0.41027 0.0
C1169 C 0.60849 0.00848 0.41754 0.0
H1170 H 0.65225 0.01322 0.41432 0.0
C1171 C 0.60764 0.00154 0.43434 0.0
H1172 H 0.62584 0.01745 0.39735 0.0
C1173 C 0.62276 0.99883 0.44392 0.0
C1174 C 0.639 0.00334 0.43703 0.0
H1175 H 0.59526 0.99857 0.44023 0.0
H1176 H 0.62164 0.99395 0.45703 0.0
C1177 C 0.6399 0.00969 0.41999 0.0
C1178 C 0.96715 0.60677 0.41787 0.0
C1179 C 0.95982 0.60846 0.40131 0.0
H1180 H 0.97496 0.61957 0.44121 0.0
C1181 C 0.95479 0.62495 0.39548 0.0
H1182 H 0.97121 0.59421 0.42265 0.0
C1183 C 0.9566 0.63942 0.40624 0.0
C1184 C 0.96389 0.6377 0.42283 0.0
H1185 H 0.94906 0.6266 0.38278 0.0
H1186 H 0.9523 0.65194 0.40159 0.0
C1187 C 0.96937 0.62128 0.42845 0.0
C1188 C 0.37786 0.97407 0.37805 0.0
C1189 C 0.38009 0.99175 0.37435 0.0
H1190 H 0.38874 0.94856 0.37673 0.0
C1191 C 0.39479 0.99708 0.36504 0.0
H1192 H 0.36672 0.96962 0.38532 0.0
C1193 C 0.40718 0.98496 0.35977 0.0
C1194 C 0.40533 0.9674 0.3642 0.0
H1195 H 0.3968 0.01065 0.36205 0.0
H1196 H 0.41855 0.98942 0.35284 0.0
C1197 C 0.3905 0.96204 0.37324 0.0
C1198 C 0.04183 0.39347 0.382 0.0
C1199 C 0.03255 0.39396 0.39764 0.0
H1200 H 0.0564 0.40785 0.36321 0.0
C1201 C 0.03108 0.40974 0.40659 0.0
H1202 H 0.04312 0.38148 0.37483 0.0
C1203 C 0.03899 0.42469 0.40016 0.0
C1204 C 0.04815 0.42425 0.38445 0.0
H1205 H 0.02407 0.41047 0.41872 0.0
H1206 H 0.03776 0.43665 0.40741 0.0
C1207 C 0.04938 0.40855 0.37534 0.0
C1208 C 0.62851 0.63563 0.97474 0.0
C1209 C 0.64241 0.62398 0.97337 0.0
H1210 H 0.60893 0.64653 0.99117 0.0
C1211 C 0.64735 0.61428 0.98795 0.0
H1212 H 0.62447 0.64326 0.96367 0.0
C1213 C 0.63817 0.61576 0.00348 0.0
C1214 C 0.62425 0.62738 0.00484 0.0
H1215 H 0.65796 0.60512 0.98718 0.0
H1216 H 0.64196 0.60784 0.01443 0.0
C1217 C 0.61968 0.63753 0.99044 0.0
C1218 C 0.38095 0.60304 0.01039 0.0
C1219 C 0.37577 0.60322 0.02784 0.0
H1220 H 0.39961 0.6114 0.99164 0.0
C1221 C 0.38577 0.61241 0.03995 0.0
H1222 H 0.37355 0.59598 0.00078 0.0
C1223 C 0.40055 0.62145 0.03467 0.0
C1224 C 0.40581 0.62115 0.01725 0.0
H1225 H 0.38206 0.61278 0.05348 0.0
H1226 H 0.40794 0.62855 0.04426 0.0
C1227 C 0.39592 0.61178 0.00518 0.0
C1228 C 0.42871 0.42337 0.01934 0.0
C1229 C 0.41334 0.41396 0.02188 0.0
H1230 H 0.4557 0.42579 0.02531 0.0
C1231 C 0.41374 0.39901 0.03225 0.0
H1232 H 0.42879 0.43497 0.01144 0.0
C1233 C 0.42921 0.39359 0.03996 0.0
C1234 C 0.4445 0.40321 0.03771 0.0
H1235 H 0.4021 0.39146 0.03438 0.0
H1236 H 0.42912 0.38206 0.04795 0.0
C1237 C 0.44411 0.41814 0.02731 0.0
C1238 C 0.66341 0.4231 0.9616 0.0
C1239 C 0.66907 0.43139 0.97678 0.0
H1240 H 0.64844 0.40244 0.95065 0.0
C1241 C 0.66379 0.42487 0.99293 0.0
H1242 H 0.66724 0.42788 0.94897 0.0
C1243 C 0.65332 0.41014 0.99389 0.0
C1244 C 0.64762 0.40187 0.97872 0.0
H1245 H 0.66802 0.43097 0.00484 0.0
H1246 H 0.6496 0.4053 0.00652 0.0
C1247 C 0.65261 0.40858 0.96255 0.0
loop_
_geom_bond_atom_site_label_1
_geom_bond_atom_site_label_2
_geom_bond_distance
_geom_bond_site_symmetry_2
_ccdc_geom_bond_type
O0 Cd1 2.300 . S
O0 C7 1.275 . S
Cd1 O0 2.300 . S
Cd1 O9 2.381 . S
Cd1 O10 2.378 . S
O2 Cd3 2.385 . S
O2 C7 1.255 . S
Cd3 O2 2.385 . S
Cd3 O4 2.317 . S
O4 Cd3 2.317 . S
O4 C5 1.232 . S
C5 O4 1.232 . S
C5 O6 1.218 . S
O6 C5 1.218 . S
C7 O0 1.275 . S
C7 O2 1.255 . S
C8 O9 1.258 . S
C8 O10 1.256 . S
O9 Cd1 2.381 . S
O9 C8 1.258 . S
O10 Cd1 2.378 . S
O10 C8 1.256 . S
O11 Cd12 2.300 . S
O11 C18 1.275 . S
Cd12 O11 2.300 . S
Cd12 O20 2.381 . S
Cd12 O21 2.378 . S
O13 Cd14 2.385 . S
O13 C18 1.255 . S
Cd14 O13 2.385 . S
Cd14 O15 2.317 . S
O15 Cd14 2.317 . S
O15 C16 1.232 . S
C16 O15 1.232 . S
C16 O17 1.218 . S
O17 C16 1.218 . S
C18 O11 1.275 . S
C18 O13 1.255 . S
C19 O20 1.258 . S
C19 O21 1.256 . S
O20 Cd12 2.381 . S
O20 C19 1.258 . S
O21 Cd12 2.378 . S
O21 C19 1.256 . S
O22 Cd23 2.300 . S
O22 C29 1.275 . S
Cd23 O22 2.300 . S
Cd23 O31 2.381 . S
Cd23 O32 2.378 . S
O24 Cd25 2.385 . S
O24 C29 1.255 . S
Cd25 O24 2.385 . S
Cd25 O26 2.317 . S
O26 Cd25 2.317 . S
O26 C27 1.232 . S
C27 O26 1.232 . S
C27 O28 1.218 . S
O28 C27 1.218 . S
C29 O22 1.275 . S
C29 O24 1.255 . S
C30 O31 1.258 . S
C30 O32 1.256 . S
O31 Cd23 2.381 . S
O31 C30 1.258 . S
O32 Cd23 2.378 . S
O32 C30 1.256 . S
O33 Cd34 2.300 . S
O33 C40 1.275 . S
Cd34 O33 2.300 . S
Cd34 O42 2.381 . S
Cd34 O43 2.378 . S
O35 Cd36 2.385 . S
O35 C40 1.255 . S
Cd36 O35 2.385 . S
Cd36 O37 2.317 . S
O37 Cd36 2.317 . S
O37 C38 1.232 . S
C38 O37 1.232 . S
C38 O39 1.218 . S
O39 C38 1.218 . S
C40 O33 1.275 . S
C40 O35 1.255 . S
C41 O42 1.258 . S
C41 O43 1.256 . S
O42 Cd34 2.381 . S
O42 C41 1.258 . S
O43 Cd34 2.378 . S
O43 C41 1.256 . S
O44 Cd45 2.300 . S
O44 C51 1.275 . S
Cd45 O44 2.300 . S
Cd45 O53 2.381 . S
Cd45 O54 2.378 . S
O46 Cd47 2.385 . S
O46 C51 1.255 . S
Cd47 O46 2.385 . S
Cd47 O48 2.317 . S
O48 Cd47 2.317 . S
O48 C49 1.232 . S
C49 O48 1.232 . S
C49 O50 1.218 . S
O50 C49 1.218 . S
C51 O44 1.275 . S
C51 O46 1.255 . S
C52 O53 1.258 . S
C52 O54 1.256 . S
O53 Cd45 2.381 . S
O53 C52 1.258 . S
O54 Cd45 2.378 . S
O54 C52 1.256 . S
O55 Cd56 2.300 . S
O55 C62 1.275 . S
Cd56 O55 2.300 . S
Cd56 O64 2.381 . S
Cd56 O65 2.378 . S
O57 Cd58 2.385 . S
O57 C62 1.255 . S
Cd58 O57 2.385 . S
Cd58 O59 2.317 . S
O59 Cd58 2.317 . S
O59 C60 1.232 . S
C60 O59 1.232 . S
C60 O61 1.218 . S
O61 C60 1.218 . S
C62 O55 1.275 . S
C62 O57 1.255 . S
C63 O64 1.258 . S
C63 O65 1.256 . S
O64 Cd56 2.381 . S
O64 C63 1.258 . S
O65 Cd56 2.378 . S
O65 C63 1.256 . S
O66 Cd67 2.300 . S
O66 C73 1.275 . S
Cd67 O66 2.300 . S
Cd67 O75 2.381 . S
Cd67 O76 2.378 . S
O68 Cd69 2.385 . S
O68 C73 1.255 . S
Cd69 O68 2.385 . S
Cd69 O70 2.317 . S
O70 Cd69 2.317 . S
O70 C71 1.232 . S
C71 O70 1.232 . S
C71 O72 1.218 . S
O72 C71 1.218 . S
C73 O66 1.275 . S
C73 O68 1.255 . S
C74 O75 1.258 . S
C74 O76 1.256 . S
O75 Cd67 2.381 . S
O75 C74 1.258 . S
O76 Cd67 2.378 . S
O76 C74 1.256 . S
O77 Cd78 2.300 . S
O77 C84 1.275 . S
Cd78 O77 2.300 . S
Cd78 O86 2.381 . S
Cd78 O87 2.378 . S
O79 Cd80 2.385 . S
O79 C84 1.255 . S
Cd80 O79 2.385 . S
Cd80 O81 2.317 . S
O81 Cd80 2.317 . S
O81 C82 1.232 . S
C82 O81 1.232 . S
C82 O83 1.218 . S
O83 C82 1.218 . S
C84 O77 1.275 . S
C84 O79 1.255 . S
C85 O86 1.258 . S
C85 O87 1.256 . S
O86 Cd78 2.381 . S
O86 C85 1.258 . S
O87 Cd78 2.378 . S
O87 C85 1.256 . S
O88 Cd89 2.300 . S
O88 C95 1.275 . S
Cd89 O88 2.300 . S
Cd89 O97 2.381 . S
Cd89 O98 2.378 . S
O90 Cd91 2.385 . S
O90 C95 1.255 . S
Cd91 O90 2.385 . S
Cd91 O92 2.317 . S
O92 Cd91 2.317 . S
O92 C93 1.232 . S
C93 O92 1.232 . S
C93 O94 1.218 . S
O94 C93 1.218 . S
C95 O88 1.275 . S
C95 O90 1.255 . S
C96 O97 1.258 . S
C96 O98 1.256 . S
O97 Cd89 2.381 . S
O97 C96 1.258 . S
O98 Cd89 2.378 . S
O98 C96 1.256 . S
O99 Cd100 2.300 . S
O99 C106 1.275 . S
Cd100 O99 2.300 . S
Cd100 O108 2.381 . S
Cd100 O109 2.378 . S
O101 Cd102 2.385 . S
O101 C106 1.255 . S
Cd102 O101 2.385 . S
Cd102 O103 2.317 . S
O103 Cd102 2.317 . S
O103 C104 1.232 . S
C104 O103 1.232 . S
C104 O105 1.218 . S
O105 C104 1.218 . S
C106 O99 1.275 . S
C106 O101 1.255 . S
C107 O108 1.258 . S
C107 O109 1.256 . S
O108 Cd100 2.381 . S
O108 C107 1.258 . S
O109 Cd100 2.378 . S
O109 C107 1.256 . S
O110 Cd111 2.300 . S
O110 C117 1.275 . S
Cd111 O110 2.300 . S
Cd111 O119 2.381 . S
Cd111 O120 2.378 . S
O112 Cd113 2.385 . S
O112 C117 1.255 . S
Cd113 O112 2.385 . S
Cd113 O114 2.317 . S
O114 Cd113 2.317 . S
O114 C115 1.232 . S
C115 O114 1.232 . S
C115 O116 1.218 . S
O116 C115 1.218 . S
C117 O110 1.275 . S
C117 O112 1.255 . S
C118 O119 1.258 . S
C118 O120 1.256 . S
O119 Cd111 2.381 . S
O119 C118 1.258 . S
O120 Cd111 2.378 . S
O120 C118 1.256 . S
O121 Cd122 2.300 . S
O121 C128 1.275 . S
Cd122 O121 2.300 . S
Cd122 O130 2.381 . S
Cd122 O131 2.378 . S
O123 Cd124 2.385 . S
O123 C128 1.255 . S
Cd124 O123 2.385 . S
Cd124 O125 2.317 . S
O125 Cd124 2.317 . S
O125 C126 1.232 . S
C126 O125 1.232 . S
C126 O127 1.218 . S
O127 C126 1.218 . S
C128 O121 1.275 . S
C128 O123 1.255 . S
C129 O130 1.258 . S
C129 O131 1.256 . S
O130 Cd122 2.381 . S
O130 C129 1.258 . S
O131 Cd122 2.378 . S
O131 C129 1.256 . S
O132 Cd133 2.300 . S
O132 C139 1.275 . S
Cd133 O132 2.300 . S
Cd133 O141 2.381 . S
Cd133 O142 2.378 . S
O134 Cd135 2.385 . S
O134 C139 1.255 . S
Cd135 O134 2.385 . S
Cd135 O136 2.317 . S
O136 Cd135 2.317 . S
O136 C137 1.232 . S
C137 O136 1.232 . S
C137 O138 1.218 . S
O138 C137 1.218 . S
C139 O132 1.275 . S
C139 O134 1.255 . S
C140 O141 1.258 . S
C140 O142 1.256 . S
O141 Cd133 2.381 . S
O141 C140 1.258 . S
O142 Cd133 2.378 . S
O142 C140 1.256 . S
O143 Cd144 2.300 . S
O143 C150 1.275 . S
Cd144 O143 2.300 . S
Cd144 O152 2.381 . S
Cd144 O153 2.378 . S
O145 Cd146 2.385 . S
O145 C150 1.255 . S
Cd146 O145 2.385 . S
Cd146 O147 2.317 . S
O147 Cd146 2.317 . S
O147 C148 1.232 . S
C148 O147 1.232 . S
C148 O149 1.218 . S
O149 C148 1.218 . S
C150 O143 1.275 . S
C150 O145 1.255 . S
C151 O152 1.258 . S
C151 O153 1.256 . S
O152 Cd144 2.381 . S
O152 C151 1.258 . S
O153 Cd144 2.378 . S
O153 C151 1.256 . S
O154 Cd155 2.300 . S
O154 C161 1.275 . S
Cd155 O154 2.300 . S
Cd155 O163 2.381 . S
Cd155 O164 2.378 . S
O156 Cd157 2.385 . S
O156 C161 1.255 . S
Cd157 O156 2.385 . S
Cd157 O158 2.317 . S
O158 Cd157 2.317 . S
O158 C159 1.232 . S
C159 O158 1.232 . S
C159 O160 1.218 . S
O160 C159 1.218 . S
C161 O154 1.275 . S
C161 O156 1.255 . S
C162 O163 1.258 . S
C162 O164 1.256 . S
O163 Cd155 2.381 . S
O163 C162 1.258 . S
O164 Cd155 2.378 . S
O164 C162 1.256 . S
O165 Cd166 2.300 . S
O165 C172 1.275 . S
Cd166 O165 2.300 . S
Cd166 O174 2.381 . S
Cd166 O175 2.378 . S
O167 Cd168 2.385 . S
O167 C172 1.255 . S
Cd168 O167 2.385 . S
Cd168 O169 2.317 . S
O169 Cd168 2.317 . S
O169 C170 1.232 . S
C170 O169 1.232 . S
C170 O171 1.218 . S
O171 C170 1.218 . S
C172 O165 1.275 . S
C172 O167 1.255 . S
C173 O174 1.258 . S
C173 O175 1.256 . S
O174 Cd166 2.381 . S
O174 C173 1.258 . S
O175 Cd166 2.378 . S
O175 C173 1.256 . S
O176 Cd177 2.300 . S
O176 C183 1.275 . S
Cd177 O176 2.300 . S
Cd177 O185 2.381 . S
Cd177 O186 2.378 . S
O178 Cd179 2.385 . S
O178 C183 1.255 . S
Cd179 O178 2.385 . S
Cd179 O180 2.317 . S
O180 Cd179 2.317 . S
O180 C181 1.232 . S
C181 O180 1.232 . S
C181 O182 1.218 . S
O182 C181 1.218 . S
C183 O176 1.275 . S
C183 O178 1.255 . S
C184 O185 1.258 . S
C184 O186 1.256 . S
O185 Cd177 2.381 . S
O185 C184 1.258 . S
O186 Cd177 2.378 . S
O186 C184 1.256 . S
O187 Cd188 2.300 . S
O187 C194 1.275 . S
Cd188 O187 2.300 . S
Cd188 O196 2.381 . S
Cd188 O197 2.378 . S
O189 Cd190 2.385 . S
O189 C194 1.255 . S
Cd190 O189 2.385 . S
Cd190 O191 2.317 . S
O191 Cd190 2.317 . S
O191 C192 1.232 . S
C192 O191 1.232 . S
C192 O193 1.218 . S
O193 C192 1.218 . S
C194 O187 1.275 . S
C194 O189 1.255 . S
C195 O196 1.258 . S
C195 O197 1.256 . S
O196 Cd188 2.381 . S
O196 C195 1.258 . S
O197 Cd188 2.378 . S
O197 C195 1.256 . S
O198 Cd199 2.300 . S
O198 C205 1.275 . S
Cd199 O198 2.300 . S
Cd199 O207 2.381 . S
Cd199 O208 2.378 . S
O200 Cd201 2.385 . S
O200 C205 1.255 . S
Cd201 O200 2.385 . S
Cd201 O202 2.317 . S
O202 Cd201 2.317 . S
O202 C203 1.232 . S
C203 O202 1.232 . S
C203 O204 1.218 . S
O204 C203 1.218 . S
C205 O198 1.275 . S
C205 O200 1.255 . S
C206 O207 1.258 . S
C206 O208 1.256 . S
O207 Cd199 2.381 . S
O207 C206 1.258 . S
O208 Cd199 2.378 . S
O208 C206 1.256 . S
O209 Cd210 2.300 . S
O209 C216 1.275 . S
Cd210 O209 2.300 . S
Cd210 O218 2.381 . S
Cd210 O219 2.378 . S
O211 Cd212 2.385 . S
O211 C216 1.255 . S
Cd212 O211 2.385 . S
Cd212 O213 2.317 . S
O213 Cd212 2.317 . S
O213 C214 1.232 . S
C214 O213 1.232 . S
C214 O215 1.218 . S
O215 C214 1.218 . S
C216 O209 1.275 . S
C216 O211 1.255 . S
C217 O218 1.258 . S
C217 O219 1.256 . S
O218 Cd210 2.381 . S
O218 C217 1.258 . S
O219 Cd210 2.378 . S
O219 C217 1.256 . S
O220 Cd221 2.300 . S
O220 C227 1.275 . S
Cd221 O220 2.300 . S
Cd221 O229 2.381 . S
Cd221 O230 2.378 . S
O222 Cd223 2.385 . S
O222 C227 1.255 . S
Cd223 O222 2.385 . S
Cd223 O224 2.317 . S
O224 Cd223 2.317 . S
O224 C225 1.232 . S
C225 O224 1.232 . S
C225 O226 1.218 . S
O226 C225 1.218 . S
C227 O220 1.275 . S
C227 O222 1.255 . S
C228 O229 1.258 . S
C228 O230 1.256 . S
O229 Cd221 2.381 . S
O229 C228 1.258 . S
O230 Cd221 2.378 . S
O230 C228 1.256 . S
O231 Cd232 2.300 . S
O231 C238 1.275 . S
Cd232 O231 2.300 . S
Cd232 O240 2.381 . S
Cd232 O241 2.378 . S
O233 Cd234 2.385 . S
O233 C238 1.255 . S
Cd234 O233 2.385 . S
Cd234 O235 2.317 . S
O235 Cd234 2.317 . S
O235 C236 1.232 . S
C236 O235 1.232 . S
C236 O237 1.218 . S
O237 C236 1.218 . S
C238 O231 1.275 . S
C238 O233 1.255 . S
C239 O240 1.258 . S
C239 O241 1.256 . S
O240 Cd232 2.381 . S
O240 C239 1.258 . S
O241 Cd232 2.378 . S
O241 C239 1.256 . S
O242 Cd243 2.300 . S
O242 C249 1.275 . S
Cd243 O242 2.300 . S
Cd243 O251 2.381 . S
Cd243 O252 2.378 . S
O244 Cd245 2.385 . S
O244 C249 1.255 . S
Cd245 O244 2.385 . S
Cd245 O246 2.317 . S
O246 Cd245 2.317 . S
O246 C247 1.232 . S
C247 O246 1.232 . S
C247 O248 1.218 . S
O248 C247 1.218 . S
C249 O242 1.275 . S
C249 O244 1.255 . S
C250 O251 1.258 . S
C250 O252 1.256 . S
O251 Cd243 2.381 . S
O251 C250 1.258 . S
O252 Cd243 2.378 . S
O252 C250 1.256 . S
O253 Cd254 2.300 . S
O253 C260 1.275 . S
Cd254 O253 2.300 . S
Cd254 O262 2.381 . S
Cd254 O263 2.378 . S
O255 Cd256 2.385 . S
O255 C260 1.255 . S
Cd256 O255 2.385 . S
Cd256 O257 2.317 . S
O257 Cd256 2.317 . S
O257 C258 1.232 . S
C258 O257 1.232 . S
C258 O259 1.218 . S
O259 C258 1.218 . S
C260 O253 1.275 . S
C260 O255 1.255 . S
C261 O262 1.258 . S
C261 O263 1.256 . S
O262 Cd254 2.381 . S
O262 C261 1.258 . S
O263 Cd254 2.378 . S
O263 C261 1.256 . S
O264 Cd265 2.300 . S
O264 C271 1.275 . S
Cd265 O264 2.300 . S
Cd265 O273 2.381 . S
Cd265 O274 2.378 . S
O266 Cd267 2.385 . S
O266 C271 1.255 . S
Cd267 O266 2.385 . S
Cd267 O268 2.317 . S
O268 Cd267 2.317 . S
O268 C269 1.232 . S
C269 O268 1.232 . S
C269 O270 1.218 . S
O270 C269 1.218 . S
C271 O264 1.275 . S
C271 O266 1.255 . S
C272 O273 1.258 . S
C272 O274 1.256 . S
O273 Cd265 2.381 . S
O273 C272 1.258 . S
O274 Cd265 2.378 . S
O274 C272 1.256 . S
O275 Cd276 2.300 . S
O275 C282 1.275 . S
Cd276 O275 2.300 . S
Cd276 O284 2.381 . S
Cd276 O285 2.378 . S
O277 Cd278 2.385 . S
O277 C282 1.255 . S
Cd278 O277 2.385 . S
Cd278 O279 2.317 . S
O279 Cd278 2.317 . S
O279 C280 1.232 . S
C280 O279 1.232 . S
C280 O281 1.218 . S
O281 C280 1.218 . S
C282 O275 1.275 . S
C282 O277 1.255 . S
C283 O284 1.258 . S
C283 O285 1.256 . S
O284 Cd276 2.381 . S
O284 C283 1.258 . S
O285 Cd276 2.378 . S
O285 C283 1.256 . S
O286 Cd287 2.300 . S
O286 C293 1.275 . S
Cd287 O286 2.300 . S
Cd287 O295 2.381 . S
Cd287 O296 2.378 . S
O288 Cd289 2.385 . S
O288 C293 1.255 . S
Cd289 O288 2.385 . S
Cd289 O290 2.317 . S
O290 Cd289 2.317 . S
O290 C291 1.232 . S
C291 O290 1.232 . S
C291 O292 1.218 . S
O292 C291 1.218 . S
C293 O286 1.275 . S
C293 O288 1.255 . S
C294 O295 1.258 . S
C294 O296 1.256 . S
O295 Cd287 2.381 . S
O295 C294 1.258 . S
O296 Cd287 2.378 . S
O296 C294 1.256 . S
O297 Cd298 2.300 . S
O297 C304 1.275 . S
Cd298 O297 2.300 . S
Cd298 O306 2.381 . S
Cd298 O307 2.378 . S
O299 Cd300 2.385 . S
O299 C304 1.255 . S
Cd300 O299 2.385 . S
Cd300 O301 2.317 . S
O301 Cd300 2.317 . S
O301 C302 1.232 . S
C302 O301 1.232 . S
C302 O303 1.218 . S
O303 C302 1.218 . S
C304 O297 1.275 . S
C304 O299 1.255 . S
C305 O306 1.258 . S
C305 O307 1.256 . S
O306 Cd298 2.381 . S
O306 C305 1.258 . S
O307 Cd298 2.378 . S
O307 C305 1.256 . S
O308 Cd309 2.300 . S
O308 C315 1.275 . S
Cd309 O308 2.300 . S
Cd309 O317 2.381 . S
Cd309 O318 2.378 . S
O310 Cd311 2.385 . S
O310 C315 1.255 . S
Cd311 O310 2.385 . S
Cd311 O312 2.317 . S
O312 Cd311 2.317 . S
O312 C313 1.232 . S
C313 O312 1.232 . S
C313 O314 1.218 . S
O314 C313 1.218 . S
C315 O308 1.275 . S
C315 O310 1.255 . S
C316 O317 1.258 . S
C316 O318 1.256 . S
O317 Cd309 2.381 . S
O317 C316 1.258 . S
O318 Cd309 2.378 . S
O318 C316 1.256 . S
O319 Cd320 2.300 . S
O319 C326 1.275 . S
Cd320 O319 2.300 . S
Cd320 O328 2.381 . S
Cd320 O329 2.378 . S
O321 Cd322 2.385 . S
O321 C326 1.255 . S
Cd322 O321 2.385 . S
Cd322 O323 2.317 . S
O323 Cd322 2.317 . S
O323 C324 1.232 . S
C324 O323 1.232 . S
C324 O325 1.218 . S
O325 C324 1.218 . S
C326 O319 1.275 . S
C326 O321 1.255 . S
C327 O328 1.258 . S
C327 O329 1.256 . S
O328 Cd320 2.381 . S
O328 C327 1.258 . S
O329 Cd320 2.378 . S
O329 C327 1.256 . S
O330 Cd331 2.300 . S
O330 C337 1.275 . S
Cd331 O330 2.300 . S
Cd331 O339 2.381 . S
Cd331 O340 2.378 . S
O332 Cd333 2.385 . S
O332 C337 1.255 . S
Cd333 O332 2.385 . S
Cd333 O334 2.317 . S
O334 Cd333 2.317 . S
O334 C335 1.232 . S
C335 O334 1.232 . S
C335 O336 1.218 . S
O336 C335 1.218 . S
C337 O330 1.275 . S
C337 O332 1.255 . S
C338 O339 1.258 . S
C338 O340 1.256 . S
O339 Cd331 2.381 . S
O339 C338 1.258 . S
O340 Cd331 2.378 . S
O340 C338 1.256 . S
O341 Cd342 2.300 . S
O341 C348 1.275 . S
Cd342 O341 2.300 . S
Cd342 O350 2.381 . S
Cd342 O351 2.378 . S
O343 Cd344 2.385 . S
O343 C348 1.255 . S
Cd344 O343 2.385 . S
Cd344 O345 2.317 . S
O345 Cd344 2.317 . S
O345 C346 1.232 . S
C346 O345 1.232 . S
C346 O347 1.218 . S
O347 C346 1.218 . S
C348 O341 1.275 . S
C348 O343 1.255 . S
C349 O350 1.258 . S
C349 O351 1.256 . S
O350 Cd342 2.381 . S
O350 C349 1.258 . S
O351 Cd342 2.378 . S
O351 C349 1.256 . S
O352 Cd353 2.300 . S
O352 C359 1.275 . S
Cd353 O352 2.300 . S
Cd353 O361 2.381 . S
Cd353 O362 2.378 . S
O354 Cd355 2.385 . S
O354 C359 1.255 . S
Cd355 O354 2.385 . S
Cd355 O356 2.317 . S
O356 Cd355 2.317 . S
O356 C357 1.232 . S
C357 O356 1.232 . S
C357 O358 1.218 . S
O358 C357 1.218 . S
C359 O352 1.275 . S
C359 O354 1.255 . S
C360 O361 1.258 . S
C360 O362 1.256 . S
O361 Cd353 2.381 . S
O361 C360 1.258 . S
O362 Cd353 2.378 . S
O362 C360 1.256 . S
O363 Cd364 2.300 . S
O363 C370 1.275 . S
Cd364 O363 2.300 . S
Cd364 O372 2.381 . S
Cd364 O373 2.378 . S
O365 Cd366 2.385 . S
O365 C370 1.255 . S
Cd366 O365 2.385 . S
Cd366 O367 2.317 . S
O367 Cd366 2.317 . S
O367 C368 1.232 . S
C368 O367 1.232 . S
C368 O369 1.218 . S
O369 C368 1.218 . S
C370 O363 1.275 . S
C370 O365 1.255 . S
C371 O372 1.258 . S
C371 O373 1.256 . S
O372 Cd364 2.381 . S
O372 C371 1.258 . S
O373 Cd364 2.378 . S
O373 C371 1.256 . S
O374 Cd375 2.300 . S
O374 C381 1.275 . S
Cd375 O374 2.300 . S
Cd375 O383 2.381 . S
Cd375 O384 2.378 . S
O376 Cd377 2.385 . S
O376 C381 1.255 . S
Cd377 O376 2.385 . S
Cd377 O378 2.317 . S
O378 Cd377 2.317 . S
O378 C379 1.232 . S
C379 O378 1.232 . S
C379 O380 1.218 . S
O380 C379 1.218 . S
C381 O374 1.275 . S
C381 O376 1.255 . S
C382 O383 1.258 . S
C382 O384 1.256 . S
O383 Cd375 2.381 . S
O383 C382 1.258 . S
O384 Cd375 2.378 . S
O384 C382 1.256 . S
O385 Cd386 2.300 . S
O385 C392 1.275 . S
Cd386 O385 2.300 . S
Cd386 O394 2.381 . S
Cd386 O395 2.378 . S
O387 Cd388 2.385 . S
O387 C392 1.255 . S
Cd388 O387 2.385 . S
Cd388 O389 2.317 . S
O389 Cd388 2.317 . S
O389 C390 1.232 . S
C390 O389 1.232 . S
C390 O391 1.218 . S
O391 C390 1.218 . S
C392 O385 1.275 . S
C392 O387 1.255 . S
C393 O394 1.258 . S
C393 O395 1.256 . S
O394 Cd386 2.381 . S
O394 C393 1.258 . S
O395 Cd386 2.378 . S
O395 C393 1.256 . S
O396 Cd397 2.300 . S
O396 C403 1.275 . S
Cd397 O396 2.300 . S
Cd397 O405 2.381 . S
Cd397 O406 2.378 . S
O398 Cd399 2.385 . S
O398 C403 1.255 . S
Cd399 O398 2.385 . S
Cd399 O400 2.317 . S
O400 Cd399 2.317 . S
O400 C401 1.232 . S
C401 O400 1.232 . S
C401 O402 1.218 . S
O402 C401 1.218 . S
C403 O396 1.275 . S
C403 O398 1.255 . S
C404 O405 1.258 . S
C404 O406 1.256 . S
O405 Cd397 2.381 . S
O405 C404 1.258 . S
O406 Cd397 2.378 . S
O406 C404 1.256 . S
O407 Cd408 2.300 . S
O407 C414 1.275 . S
Cd408 O407 2.300 . S
Cd408 O416 2.381 . S
Cd408 O417 2.378 . S
O409 Cd410 2.385 . S
O409 C414 1.255 . S
Cd410 O409 2.385 . S
Cd410 O411 2.317 . S
O411 Cd410 2.317 . S
O411 C412 1.232 . S
C412 O411 1.232 . S
C412 O413 1.218 . S
O413 C412 1.218 . S
C414 O407 1.275 . S
C414 O409 1.255 . S
C415 O416 1.258 . S
C415 O417 1.256 . S
O416 Cd408 2.381 . S
O416 C415 1.258 . S
O417 Cd408 2.378 . S
O417 C415 1.256 . S
O418 Cd419 2.300 . S
O418 C425 1.275 . S
Cd419 O418 2.300 . S
Cd419 O427 2.381 . S
Cd419 O428 2.378 . S
O420 Cd421 2.385 . S
O420 C425 1.255 . S
Cd421 O420 2.385 . S
Cd421 O422 2.317 . S
O422 Cd421 2.317 . S
O422 C423 1.232 . S
C423 O422 1.232 . S
C423 O424 1.218 . S
O424 C423 1.218 . S
C425 O418 1.275 . S
C425 O420 1.255 . S
C426 O427 1.258 . S
C426 O428 1.256 . S
O427 Cd419 2.381 . S
O427 C426 1.258 . S
O428 Cd419 2.378 . S
O428 C426 1.256 . S
O429 Cd430 2.300 . S
O429 C436 1.275 . S
Cd430 O429 2.300 . S
Cd430 O438 2.381 . S
Cd430 O439 2.378 . S
O431 Cd432 2.385 . S
O431 C436 1.255 . S
Cd432 O431 2.385 . S
Cd432 O433 2.317 . S
O433 Cd432 2.317 . S
O433 C434 1.232 . S
C434 O433 1.232 . S
C434 O435 1.218 . S
O435 C434 1.218 . S
C436 O429 1.275 . S
C436 O431 1.255 . S
C437 O438 1.258 . S
C437 O439 1.256 . S
O438 Cd430 2.381 . S
O438 C437 1.258 . S
O439 Cd430 2.378 . S
O439 C437 1.256 . S
O440 Cd441 2.300 . S
O440 C447 1.275 . S
Cd441 O440 2.300 . S
Cd441 O449 2.381 . S
Cd441 O450 2.378 . S
O442 Cd443 2.385 . S
O442 C447 1.255 . S
Cd443 O442 2.385 . S
Cd443 O444 2.317 . S
O444 Cd443 2.317 . S
O444 C445 1.232 . S
C445 O444 1.232 . S
C445 O446 1.218 . S
O446 C445 1.218 . S
C447 O440 1.275 . S
C447 O442 1.255 . S
C448 O449 1.258 . S
C448 O450 1.256 . S
O449 Cd441 2.381 . S
O449 C448 1.258 . S
O450 Cd441 2.378 . S
O450 C448 1.256 . S
O451 Cd452 2.300 . S
O451 C458 1.275 . S
Cd452 O451 2.300 . S
Cd452 O460 2.381 . S
Cd452 O461 2.378 . S
O453 Cd454 2.385 . S
O453 C458 1.255 . S
Cd454 O453 2.385 . S
Cd454 O455 2.317 . S
O455 Cd454 2.317 . S
O455 C456 1.232 . S
C456 O455 1.232 . S
C456 O457 1.218 . S
O457 C456 1.218 . S
C458 O451 1.275 . S
C458 O453 1.255 . S
C459 O460 1.258 . S
C459 O461 1.256 . S
O460 Cd452 2.381 . S
O460 C459 1.258 . S
O461 Cd452 2.378 . S
O461 C459 1.256 . S
O462 Cd463 2.300 . S
O462 C469 1.275 . S
Cd463 O462 2.300 . S
Cd463 O471 2.381 . S
Cd463 O472 2.378 . S
O464 Cd465 2.385 . S
O464 C469 1.255 . S
Cd465 O464 2.385 . S
Cd465 O466 2.317 . S
O466 Cd465 2.317 . S
O466 C467 1.232 . S
C467 O466 1.232 . S
C467 O468 1.218 . S
O468 C467 1.218 . S
C469 O462 1.275 . S
C469 O464 1.255 . S
C470 O471 1.258 . S
C470 O472 1.256 . S
O471 Cd463 2.381 . S
O471 C470 1.258 . S
O472 Cd463 2.378 . S
O472 C470 1.256 . S
O473 Cd474 2.300 . S
O473 C480 1.275 . S
Cd474 O473 2.300 . S
Cd474 O482 2.381 . S
Cd474 O483 2.378 . S
O475 Cd476 2.385 . S
O475 C480 1.255 . S
Cd476 O475 2.385 . S
Cd476 O477 2.317 . S
O477 Cd476 2.317 . S
O477 C478 1.232 . S
C478 O477 1.232 . S
C478 O479 1.218 . S
O479 C478 1.218 . S
C480 O473 1.275 . S
C480 O475 1.255 . S
C481 O482 1.258 . S
C481 O483 1.256 . S
O482 Cd474 2.381 . S
O482 C481 1.258 . S
O483 Cd474 2.378 . S
O483 C481 1.256 . S
O484 Cd485 2.300 . S
O484 C491 1.275 . S
Cd485 O484 2.300 . S
Cd485 O493 2.381 . S
Cd485 O494 2.378 . S
O486 Cd487 2.385 . S
O486 C491 1.255 . S
Cd487 O486 2.385 . S
Cd487 O488 2.317 . S
O488 Cd487 2.317 . S
O488 C489 1.232 . S
C489 O488 1.232 . S
C489 O490 1.218 . S
O490 C489 1.218 . S
C491 O484 1.275 . S
C491 O486 1.255 . S
C492 O493 1.258 . S
C492 O494 1.256 . S
O493 Cd485 2.381 . S
O493 C492 1.258 . S
O494 Cd485 2.378 . S
O494 C492 1.256 . S
O495 Cd496 2.300 . S
O495 C502 1.275 . S
Cd496 O495 2.300 . S
Cd496 O504 2.381 . S
Cd496 O505 2.378 . S
O497 Cd498 2.385 . S
O497 C502 1.255 . S
Cd498 O497 2.385 . S
Cd498 O499 2.317 . S
O499 Cd498 2.317 . S
O499 C500 1.232 . S
C500 O499 1.232 . S
C500 O501 1.218 . S
O501 C500 1.218 . S
C502 O495 1.275 . S
C502 O497 1.255 . S
C503 O504 1.258 . S
C503 O505 1.256 . S
O504 Cd496 2.381 . S
O504 C503 1.258 . S
O505 Cd496 2.378 . S
O505 C503 1.256 . S
O506 Cd507 2.300 . S
O506 C513 1.275 . S
Cd507 O506 2.300 . S
Cd507 O515 2.381 . S
Cd507 O516 2.378 . S
O508 Cd509 2.385 . S
O508 C513 1.255 . S
Cd509 O508 2.385 . S
Cd509 O510 2.317 . S
O510 Cd509 2.317 . S
O510 C511 1.232 . S
C511 O510 1.232 . S
C511 O512 1.218 . S
O512 C511 1.218 . S
C513 O506 1.275 . S
C513 O508 1.255 . S
C514 O515 1.258 . S
C514 O516 1.256 . S
O515 Cd507 2.381 . S
O515 C514 1.258 . S
O516 Cd507 2.378 . S
O516 C514 1.256 . S
O517 Cd518 2.300 . S
O517 C524 1.275 . S
Cd518 O517 2.300 . S
Cd518 O526 2.381 . S
Cd518 O527 2.378 . S
O519 Cd520 2.385 . S
O519 C524 1.255 . S
Cd520 O519 2.385 . S
Cd520 O521 2.317 . S
O521 Cd520 2.317 . S
O521 C522 1.232 . S
C522 O521 1.232 . S
C522 O523 1.218 . S
O523 C522 1.218 . S
C524 O517 1.275 . S
C524 O519 1.255 . S
C525 O526 1.258 . S
C525 O527 1.256 . S
O526 Cd518 2.381 . S
O526 C525 1.258 . S
O527 Cd518 2.378 . S
O527 C525 1.256 . S
C528 C529 1.387 . S
C528 H532 0.950 . S
C528 C537 1.390 1_655 S
C529 C528 1.387 . S
C529 C531 1.387 . S
H530 C537 0.950 . S
C531 C529 1.387 . S
C531 C533 1.390 1_655 S
C531 H535 0.950 . S
H532 C528 0.950 . S
C533 C531 1.390 1_455 S
C533 C534 1.387 . S
C533 H536 0.950 . S
C534 C533 1.387 . S
C534 C537 1.387 . S
H535 C531 0.950 . S
H536 C533 0.950 . S
C537 C528 1.390 1_455 S
C537 H530 0.950 . S
C537 C534 1.387 . S
C538 C539 1.387 . S
C538 H542 0.950 . S
C538 C547 1.390 1_545 S
C539 C538 1.387 . S
C539 C541 1.387 . S
H540 C547 0.950 . S
C541 C539 1.387 . S
C541 C543 1.390 1_545 S
C541 H545 0.950 . S
H542 C538 0.950 . S
C543 C541 1.390 1_565 S
C543 C544 1.387 . S
C543 H546 0.950 . S
C544 C543 1.387 . S
C544 C547 1.387 . S
H545 C541 0.950 . S
H546 C543 0.950 . S
C547 C538 1.390 1_565 S
C547 H540 0.950 . S
C547 C544 1.387 . S
C548 C549 1.387 . S
C548 H552 0.950 . S
C548 C557 1.390 1_655 S
C549 C548 1.387 . S
C549 C551 1.387 . S
H550 C557 0.950 . S
C551 C549 1.387 . S
C551 C553 1.390 1_655 S
C551 H555 0.950 . S
H552 C548 0.950 . S
C553 C551 1.390 1_455 S
C553 C554 1.387 . S
C553 H556 0.950 . S
C554 C553 1.387 . S
C554 C557 1.387 . S
H555 C551 0.950 . S
H556 C553 0.950 . S
C557 C548 1.390 1_455 S
C557 H550 0.950 . S
C557 C554 1.387 . S
C558 C559 1.387 . S
C558 H562 0.950 . S
C558 C567 1.390 1_545 S
C559 C558 1.387 . S
C559 C561 1.387 . S
H560 C567 0.950 . S
C561 C559 1.387 . S
C561 C563 1.390 1_545 S
C561 H565 0.950 . S
H562 C558 0.950 . S
C563 C561 1.390 1_565 S
C563 C564 1.387 . S
C563 H566 0.950 . S
C564 C563 1.387 . S
C564 C567 1.387 . S
H565 C561 0.950 . S
H566 C563 0.950 . S
C567 C558 1.390 1_565 S
C567 H560 0.950 . S
C567 C564 1.387 . S
C568 C569 1.387 . S
C568 H572 0.950 . S
C568 C577 1.390 1_565 S
C569 C568 1.387 . S
C569 C571 1.387 . S
H570 C577 0.950 . S
C571 C569 1.387 . S
C571 C573 1.390 1_565 S
C571 H575 0.950 . S
H572 C568 0.950 . S
C573 C571 1.390 1_545 S
C573 C574 1.387 . S
C573 H576 0.950 . S
C574 C573 1.387 . S
C574 C577 1.387 . S
H575 C571 0.950 . S
H576 C573 0.950 . S
C577 C568 1.390 1_545 S
C577 H570 0.950 . S
C577 C574 1.387 . S
C578 C579 1.387 . S
C578 H582 0.950 . S
C578 C587 1.390 1_455 S
C579 C578 1.387 . S
C579 C581 1.387 . S
H580 C587 0.950 . S
C581 C579 1.387 . S
C581 C583 1.390 1_455 S
C581 H585 0.950 . S
H582 C578 0.950 . S
C583 C581 1.390 1_655 S
C583 C584 1.387 . S
C583 H586 0.950 . S
C584 C583 1.387 . S
C584 C587 1.387 . S
H585 C581 0.950 . S
H586 C583 0.950 . S
C587 C578 1.390 1_655 S
C587 H580 0.950 . S
C587 C584 1.387 . S
C588 C589 1.387 . S
C588 H592 0.950 . S
C588 C597 1.390 1_565 S
C589 C588 1.387 . S
C589 C591 1.387 . S
H590 C597 0.950 . S
C591 C589 1.387 . S
C591 C593 1.390 1_565 S
C591 H595 0.950 . S
H592 C588 0.950 . S
C593 C591 1.390 1_545 S
C593 C594 1.387 . S
C593 H596 0.950 . S
C594 C593 1.387 . S
C594 C597 1.387 . S
H595 C591 0.950 . S
H596 C593 0.950 . S
C597 C588 1.390 1_545 S
C597 H590 0.950 . S
C597 C594 1.387 . S
C598 C599 1.387 . S
C598 H602 0.950 . S
C598 C607 1.390 1_455 S
C599 C598 1.387 . S
C599 C601 1.387 . S
H600 C607 0.950 . S
C601 C599 1.387 . S
C601 C603 1.390 1_455 S
C601 H605 0.950 . S
H602 C598 0.950 . S
C603 C601 1.390 1_655 S
C603 C604 1.387 . S
C603 H606 0.950 . S
C604 C603 1.387 . S
C604 C607 1.387 . S
H605 C601 0.950 . S
H606 C603 0.950 . S
C607 C598 1.390 1_655 S
C607 H600 0.950 . S
C607 C604 1.387 . S
C608 C609 1.387 . S
C608 H612 0.950 . S
C608 C617 1.390 1_556 S
C609 C608 1.387 . S
C609 C611 1.387 . S
H610 C617 0.950 . S
C611 C609 1.387 . S
C611 C613 1.390 1_556 S
C611 H615 0.950 . S
H612 C608 0.950 . S
C613 C611 1.390 1_554 S
C613 C614 1.387 . S
C613 H616 0.950 . S
C614 C613 1.387 . S
C614 C617 1.387 . S
H615 C611 0.950 . S
H616 C613 0.950 . S
C617 C608 1.390 1_554 S
C617 H610 0.950 . S
C617 C614 1.387 . S
C618 C619 1.387 . S
C618 H622 0.950 . S
C618 C627 1.390 1_556 S
C619 C618 1.387 . S
C619 C621 1.387 . S
H620 C627 0.950 . S
C621 C619 1.387 . S
C621 C623 1.390 1_556 S
C621 H625 0.950 . S
H622 C618 0.950 . S
C623 C621 1.390 1_554 S
C623 C624 1.387 . S
C623 H626 0.950 . S
C624 C623 1.387 . S
C624 C627 1.387 . S
H625 C621 0.950 . S
H626 C623 0.950 . S
C627 C618 1.390 1_554 S
C627 H620 0.950 . S
C627 C624 1.387 . S
C628 C629 1.387 . S
C628 H632 0.950 . S
C628 C637 1.390 1_554 S
C629 C628 1.387 . S
C629 C631 1.387 . S
H630 C637 0.950 . S
C631 C629 1.387 . S
C631 C633 1.390 1_554 S
C631 H635 0.950 . S
H632 C628 0.950 . S
C633 C631 1.390 1_556 S
C633 C634 1.387 . S
C633 H636 0.950 . S
C634 C633 1.387 . S
C634 C637 1.387 . S
H635 C631 0.950 . S
H636 C633 0.950 . S
C637 C628 1.390 1_556 S
C637 H630 0.950 . S
C637 C634 1.387 . S
C638 C639 1.387 . S
C638 H642 0.950 . S
C638 C647 1.390 1_554 S
C639 C638 1.387 . S
C639 C641 1.387 . S
H640 C647 0.950 . S
C641 C639 1.387 . S
C641 C643 1.390 1_554 S
C641 H645 0.950 . S
H642 C638 0.950 . S
C643 C641 1.390 1_556 S
C643 C644 1.387 . S
C643 H646 0.950 . S
C644 C643 1.387 . S
C644 C647 1.387 . S
H645 C641 0.950 . S
H646 C643 0.950 . S
C647 C638 1.390 1_556 S
C647 H640 0.950 . S
C647 C644 1.387 . S
C648 C649 1.387 . S
C648 H652 0.950 . S
C648 C657 1.390 1_565 S
C649 C648 1.387 . S
C649 C651 1.387 . S
H650 C657 0.950 . S
C651 C649 1.387 . S
C651 C653 1.390 1_565 S
C651 H655 0.950 . S
H652 C648 0.950 . S
C653 C651 1.390 1_545 S
C653 C654 1.387 . S
C653 H656 0.950 . S
C654 C653 1.387 . S
C654 C657 1.387 . S
H655 C651 0.950 . S
H656 C653 0.950 . S
C657 C648 1.390 1_545 S
C657 H650 0.950 . S
C657 C654 1.387 . S
C658 C659 1.387 . S
C658 H662 0.950 . S
C658 C667 1.390 1_455 S
C659 C658 1.387 . S
C659 C661 1.387 . S
H660 C667 0.950 . S
C661 C659 1.387 . S
C661 C663 1.390 1_455 S
C661 H665 0.950 . S
H662 C658 0.950 . S
C663 C661 1.390 1_655 S
C663 C664 1.387 . S
C663 H666 0.950 . S
C664 C663 1.387 . S
C664 C667 1.387 . S
H665 C661 0.950 . S
H666 C663 0.950 . S
C667 C658 1.390 1_655 S
C667 H660 0.950 . S
C667 C664 1.387 . S
C668 C669 1.387 . S
C668 H672 0.950 . S
C668 C677 1.390 1_565 S
C669 C668 1.387 . S
C669 C671 1.387 . S
H670 C677 0.950 . S
C671 C669 1.387 . S
C671 C673 1.390 1_565 S
C671 H675 0.950 . S
H672 C668 0.950 . S
C673 C671 1.390 1_545 S
C673 C674 1.387 . S
C673 H676 0.950 . S
C674 C673 1.387 . S
C674 C677 1.387 . S
H675 C671 0.950 . S
H676 C673 0.950 . S
C677 C668 1.390 1_545 S
C677 H670 0.950 . S
C677 C674 1.387 . S
C678 C679 1.387 . S
C678 H682 0.950 . S
C678 C687 1.390 1_455 S
C679 C678 1.387 . S
C679 C681 1.387 . S
H680 C687 0.950 . S
C681 C679 1.387 . S
C681 C683 1.390 1_455 S
C681 H685 0.950 . S
H682 C678 0.950 . S
C683 C681 1.390 1_655 S
C683 C684 1.387 . S
C683 H686 0.950 . S
C684 C683 1.387 . S
C684 C687 1.387 . S
H685 C681 0.950 . S
H686 C683 0.950 . S
C687 C678 1.390 1_655 S
C687 H680 0.950 . S
C687 C684 1.387 . S
C688 C689 1.387 . S
C688 H692 0.950 . S
C688 C697 1.390 1_556 S
C689 C688 1.387 . S
C689 C691 1.387 . S
H690 C697 0.950 . S
C691 C689 1.387 . S
C691 C693 1.390 1_556 S
C691 H695 0.950 . S
H692 C688 0.950 . S
C693 C691 1.390 1_554 S
C693 C694 1.387 . S
C693 H696 0.950 . S
C694 C693 1.387 . S
C694 C697 1.387 . S
H695 C691 0.950 . S
H696 C693 0.950 . S
C697 C688 1.390 1_554 S
C697 H690 0.950 . S
C697 C694 1.387 . S
C698 C699 1.387 . S
C698 H702 0.950 . S
C698 C707 1.390 1_556 S
C699 C698 1.387 . S
C699 C701 1.387 . S
H700 C707 0.950 . S
C701 C699 1.387 . S
C701 C703 1.390 1_556 S
C701 H705 0.950 . S
H702 C698 0.950 . S
C703 C701 1.390 1_554 S
C703 C704 1.387 . S
C703 H706 0.950 . S
C704 C703 1.387 . S
C704 C707 1.387 . S
H705 C701 0.950 . S
H706 C703 0.950 . S
C707 C698 1.390 1_554 S
C707 H700 0.950 . S
C707 C704 1.387 . S
C708 C709 1.387 . S
C708 H712 0.950 . S
C708 C717 1.390 1_556 S
C709 C708 1.387 . S
C709 C711 1.387 . S
H710 C717 0.950 . S
C711 C709 1.387 . S
C711 C713 1.390 1_556 S
C711 H715 0.950 . S
H712 C708 0.950 . S
C713 C711 1.390 1_554 S
C713 C714 1.387 . S
C713 H716 0.950 . S
C714 C713 1.387 . S
C714 C717 1.387 . S
H715 C711 0.950 . S
H716 C713 0.950 . S
C717 C708 1.390 1_554 S
C717 H710 0.950 . S
C717 C714 1.387 . S
C718 C719 1.387 . S
C718 H722 0.950 . S
C718 C727 1.390 1_554 S
C719 C718 1.387 . S
C719 C721 1.387 . S
H720 C727 0.950 . S
C721 C719 1.387 . S
C721 C723 1.390 1_554 S
C721 H725 0.950 . S
H722 C718 0.950 . S
C723 C721 1.390 1_556 S
C723 C724 1.387 . S
C723 H726 0.950 . S
C724 C723 1.387 . S
C724 C727 1.387 . S
H725 C721 0.950 . S
H726 C723 0.950 . S
C727 C718 1.390 1_556 S
C727 H720 0.950 . S
C727 C724 1.387 . S
C728 C729 1.387 . S
C728 H732 0.950 . S
C728 C737 1.390 1_455 S
C729 C728 1.387 . S
C729 C731 1.387 . S
H730 C737 0.950 . S
C731 C729 1.387 . S
C731 C733 1.390 1_455 S
C731 H735 0.950 . S
H732 C728 0.950 . S
C733 C731 1.390 1_655 S
C733 C734 1.387 . S
C733 H736 0.950 . S
C734 C733 1.387 . S
C734 C737 1.387 . S
H735 C731 0.950 . S
H736 C733 0.950 . S
C737 C728 1.390 1_655 S
C737 H730 0.950 . S
C737 C734 1.387 . S
C738 C739 1.387 . S
C738 H742 0.950 . S
C738 C747 1.390 1_455 S
C739 C738 1.387 . S
C739 C741 1.387 . S
H740 C747 0.950 . S
C741 C739 1.387 . S
C741 C743 1.390 1_455 S
C741 H745 0.950 . S
H742 C738 0.950 . S
C743 C741 1.390 1_655 S
C743 C744 1.387 . S
C743 H746 0.950 . S
C744 C743 1.387 . S
C744 C747 1.387 . S
H745 C741 0.950 . S
H746 C743 0.950 . S
C747 C738 1.390 1_655 S
C747 H740 0.950 . S
C747 C744 1.387 . S
C748 C749 1.387 . S
C748 H752 0.950 . S
C748 C757 1.390 1_545 S
C749 C748 1.387 . S
C749 C751 1.387 . S
H750 C757 0.950 . S
C751 C749 1.387 . S
C751 C753 1.390 1_545 S
C751 H755 0.950 . S
H752 C748 0.950 . S
C753 C751 1.390 1_565 S
C753 C754 1.387 . S
C753 H756 0.950 . S
C754 C753 1.387 . S
C754 C757 1.387 . S
H755 C751 0.950 . S
H756 C753 0.950 . S
C757 C748 1.390 1_565 S
C757 H750 0.950 . S
C757 C754 1.387 . S
C758 C759 1.387 . S
C758 H762 0.950 . S
C758 C767 1.390 1_565 S
C759 C758 1.387 . S
C759 C761 1.387 . S
H760 C767 0.950 . S
C761 C759 1.387 . S
C761 C763 1.390 1_565 S
C761 H765 0.950 . S
H762 C758 0.950 . S
C763 C761 1.390 1_545 S
C763 C764 1.387 . S
C763 H766 0.950 . S
C764 C763 1.387 . S
C764 C767 1.387 . S
H765 C761 0.950 . S
H766 C763 0.950 . S
C767 C758 1.390 1_545 S
C767 H760 0.950 . S
C767 C764 1.387 . S
C768 C769 1.387 . S
C768 H772 0.950 . S
C768 C777 1.390 . S
C769 C768 1.387 . S
C769 C771 1.387 . S
H770 C777 0.950 . S
C771 C769 1.387 . S
C771 C773 1.390 . S
C771 H775 0.950 . S
H772 C768 0.950 . S
C773 C771 1.390 . S
C773 C774 1.387 . S
C773 H776 0.950 . S
C774 C773 1.387 . S
C774 C777 1.387 . S
H775 C771 0.950 . S
H776 C773 0.950 . S
C777 C768 1.390 . S
C777 H770 0.950 . S
C777 C774 1.387 . S
C778 C779 1.387 . S
C778 H782 0.950 . S
C778 C787 1.390 . S
C779 C778 1.387 . S
C779 C781 1.387 . S
H780 C787 0.950 . S
C781 C779 1.387 . S
C781 C783 1.390 . S
C781 H785 0.950 . S
H782 C778 0.950 . S
C783 C781 1.390 . S
C783 C784 1.387 . S
C783 H786 0.950 . S
C784 C783 1.387 . S
C784 C787 1.387 . S
H785 C781 0.950 . S
H786 C783 0.950 . S
C787 C778 1.390 . S
C787 H780 0.950 . S
C787 C784 1.387 . S
C788 C789 1.387 . S
C788 H792 0.950 . S
C788 C797 1.390 . S
C789 C788 1.387 . S
C789 C791 1.387 . S
H790 C797 0.950 . S
C791 C789 1.387 . S
C791 C793 1.390 . S
C791 H795 0.950 . S
H792 C788 0.950 . S
C793 C791 1.390 . S
C793 C794 1.387 . S
C793 H796 0.950 . S
C794 C793 1.387 . S
C794 C797 1.387 . S
H795 C791 0.950 . S
H796 C793 0.950 . S
C797 C788 1.390 . S
C797 H790 0.950 . S
C797 C794 1.387 . S
C798 C799 1.387 . S
C798 H802 0.950 . S
C798 C807 1.390 . S
C799 C798 1.387 . S
C799 C801 1.387 . S
H800 C807 0.950 . S
C801 C799 1.387 . S
C801 C803 1.390 . S
C801 H805 0.950 . S
H802 C798 0.950 . S
C803 C801 1.390 . S
C803 C804 1.387 . S
C803 H806 0.950 . S
C804 C803 1.387 . S
C804 C807 1.387 . S
H805 C801 0.950 . S
H806 C803 0.950 . S
C807 C798 1.390 . S
C807 H800 0.950 . S
C807 C804 1.387 . S
C808 C809 1.387 . S
C808 H812 0.950 . S
C808 C817 1.390 . S
C809 C808 1.387 . S
C809 C811 1.387 . S
H810 C817 0.950 . S
C811 C809 1.387 . S
C811 C813 1.390 . S
C811 H815 0.950 . S
H812 C808 0.950 . S
C813 C811 1.390 . S
C813 C814 1.387 . S
C813 H816 0.950 . S
C814 C813 1.387 . S
C814 C817 1.387 . S
H815 C811 0.950 . S
H816 C813 0.950 . S
C817 C808 1.390 . S
C817 H810 0.950 . S
C817 C814 1.387 . S
C818 C819 1.387 . S
C818 H822 0.950 . S
C818 C827 1.390 . S
C819 C818 1.387 . S
C819 C821 1.387 . S
H820 C827 0.950 . S
C821 C819 1.387 . S
C821 C823 1.390 . S
C821 H825 0.950 . S
H822 C818 0.950 . S
C823 C821 1.390 . S
C823 C824 1.387 . S
C823 H826 0.950 . S
C824 C823 1.387 . S
C824 C827 1.387 . S
H825 C821 0.950 . S
H826 C823 0.950 . S
C827 C818 1.390 . S
C827 H820 0.950 . S
C827 C824 1.387 . S
C828 C829 1.387 . S
C828 H832 0.950 . S
C828 C837 1.390 . S
C829 C828 1.387 . S
C829 C831 1.387 . S
H830 C837 0.950 . S
C831 C829 1.387 . S
C831 C833 1.390 . S
C831 H835 0.950 . S
H832 C828 0.950 . S
C833 C831 1.390 . S
C833 C834 1.387 . S
C833 H836 0.950 . S
C834 C833 1.387 . S
C834 C837 1.387 . S
H835 C831 0.950 . S
H836 C833 0.950 . S
C837 C828 1.390 . S
C837 H830 0.950 . S
C837 C834 1.387 . S
C838 C839 1.387 . S
C838 H842 0.950 . S
C838 C847 1.390 . S
C839 C838 1.387 . S
C839 C841 1.387 . S
H840 C847 0.950 . S
C841 C839 1.387 . S
C841 C843 1.390 . S
C841 H845 0.950 . S
H842 C838 0.950 . S
C843 C841 1.390 . S
C843 C844 1.387 . S
C843 H846 0.950 . S
C844 C843 1.387 . S
C844 C847 1.387 . S
H845 C841 0.950 . S
H846 C843 0.950 . S
C847 C838 1.390 . S
C847 H840 0.950 . S
C847 C844 1.387 . S
C848 C849 1.387 . S
C848 H852 0.950 . S
C848 C857 1.390 . S
C849 C848 1.387 . S
C849 C851 1.387 . S
H850 C857 0.950 . S
C851 C849 1.387 . S
C851 C853 1.390 . S
C851 H855 0.950 . S
H852 C848 0.950 . S
C853 C851 1.390 . S
C853 C854 1.387 . S
C853 H856 0.950 . S
C854 C853 1.387 . S
C854 C857 1.387 . S
H855 C851 0.950 . S
H856 C853 0.950 . S
C857 C848 1.390 . S
C857 H850 0.950 . S
C857 C854 1.387 . S
C858 C859 1.387 . S
C858 H862 0.950 . S
C858 C867 1.390 . S
C859 C858 1.387 . S
C859 C861 1.387 . S
H860 C867 0.950 . S
C861 C859 1.387 . S
C861 C863 1.390 . S
C861 H865 0.950 . S
H862 C858 0.950 . S
C863 C861 1.390 . S
C863 C864 1.387 . S
C863 H866 0.950 . S
C864 C863 1.387 . S
C864 C867 1.387 . S
H865 C861 0.950 . S
H866 C863 0.950 . S
C867 C858 1.390 . S
C867 H860 0.950 . S
C867 C864 1.387 . S
C868 C869 1.387 . S
C868 H872 0.950 . S
C868 C877 1.390 . S
C869 C868 1.387 . S
C869 C871 1.387 . S
H870 C877 0.950 . S
C871 C869 1.387 . S
C871 C873 1.390 . S
C871 H875 0.950 . S
H872 C868 0.950 . S
C873 C871 1.390 . S
C873 C874 1.387 . S
C873 H876 0.950 . S
C874 C873 1.387 . S
C874 C877 1.387 . S
H875 C871 0.950 . S
H876 C873 0.950 . S
C877 C868 1.390 . S
C877 H870 0.950 . S
C877 C874 1.387 . S
C878 C879 1.387 . S
C878 H882 0.950 . S
C878 C887 1.390 . S
C879 C878 1.387 . S
C879 C881 1.387 . S
H880 C887 0.950 . S
C881 C879 1.387 . S
C881 C883 1.390 . S
C881 H885 0.950 . S
H882 C878 0.950 . S
C883 C881 1.390 . S
C883 C884 1.387 . S
C883 H886 0.950 . S
C884 C883 1.387 . S
C884 C887 1.387 . S
H885 C881 0.950 . S
H886 C883 0.950 . S
C887 C878 1.390 . S
C887 H880 0.950 . S
C887 C884 1.387 . S
C888 C889 1.387 . S
C888 H892 0.950 . S
C888 C897 1.390 . S
C889 C888 1.387 . S
C889 C891 1.387 . S
H890 C897 0.950 . S
C891 C889 1.387 . S
C891 C893 1.390 . S
C891 H895 0.950 . S
H892 C888 0.950 . S
C893 C891 1.390 . S
C893 C894 1.387 . S
C893 H896 0.950 . S
C894 C893 1.387 . S
C894 C897 1.387 . S
H895 C891 0.950 . S
H896 C893 0.950 . S
C897 C888 1.390 . S
C897 H890 0.950 . S
C897 C894 1.387 . S
C898 C899 1.387 . S
C898 H902 0.950 . S
C898 C907 1.390 . S
C899 C898 1.387 . S
C899 C901 1.387 . S
H900 C907 0.950 . S
C901 C899 1.387 . S
C901 C903 1.390 . S
C901 H905 0.950 . S
H902 C898 0.950 . S
C903 C901 1.390 . S
C903 C904 1.387 . S
C903 H906 0.950 . S
C904 C903 1.387 . S
C904 C907 1.387 . S
H905 C901 0.950 . S
H906 C903 0.950 . S
C907 C898 1.390 . S
C907 H900 0.950 . S
C907 C904 1.387 . S
C908 C909 1.387 . S
C908 H912 0.950 . S
C908 C917 1.390 . S
C909 C908 1.387 . S
C909 C911 1.387 . S
H910 C917 0.950 . S
C911 C909 1.387 . S
C911 C913 1.390 . S
C911 H915 0.950 . S
H912 C908 0.950 . S
C913 C911 1.390 . S
C913 C914 1.387 . S
C913 H916 0.950 . S
C914 C913 1.387 . S
C914 C917 1.387 . S
H915 C911 0.950 . S
H916 C913 0.950 . S
C917 C908 1.390 . S
C917 H910 0.950 . S
C917 C914 1.387 . S
C918 C919 1.387 . S
C918 H922 0.950 . S
C918 C927 1.390 . S
C919 C918 1.387 . S
C919 C921 1.387 . S
H920 C927 0.950 . S
C921 C919 1.387 . S
C921 C923 1.390 . S
C921 H925 0.950 . S
H922 C918 0.950 . S
C923 C921 1.390 . S
C923 C924 1.387 . S
C923 H926 0.950 . S
C924 C923 1.387 . S
C924 C927 1.387 . S
H925 C921 0.950 . S
H926 C923 0.950 . S
C927 C918 1.390 . S
C927 H920 0.950 . S
C927 C924 1.387 . S
C928 C929 1.387 . S
C928 H932 0.950 . S
C928 C937 1.390 . S
C929 C928 1.387 . S
C929 C931 1.387 . S
H930 C937 0.950 . S
C931 C929 1.387 . S
C931 C933 1.390 . S
C931 H935 0.950 . S
H932 C928 0.950 . S
C933 C931 1.390 . S
C933 C934 1.387 . S
C933 H936 0.950 . S
C934 C933 1.387 . S
C934 C937 1.387 . S
H935 C931 0.950 . S
H936 C933 0.950 . S
C937 C928 1.390 . S
C937 H930 0.950 . S
C937 C934 1.387 . S
C938 C939 1.387 . S
C938 H942 0.950 . S
C938 C947 1.390 . S
C939 C938 1.387 . S
C939 C941 1.387 . S
H940 C947 0.950 . S
C941 C939 1.387 . S
C941 C943 1.390 . S
C941 H945 0.950 . S
H942 C938 0.950 . S
C943 C941 1.390 . S
C943 C944 1.387 . S
C943 H946 0.950 . S
C944 C943 1.387 . S
C944 C947 1.387 . S
H945 C941 0.950 . S
H946 C943 0.950 . S
C947 C938 1.390 . S
C947 H940 0.950 . S
C947 C944 1.387 . S
C948 C949 1.387 . S
C948 H952 0.950 . S
C948 C957 1.390 . S
C949 C948 1.387 . S
C949 C951 1.387 . S
H950 C957 0.950 . S
C951 C949 1.387 . S
C951 C953 1.390 . S
C951 H955 0.950 . S
H952 C948 0.950 . S
C953 C951 1.390 . S
C953 C954 1.387 . S
C953 H956 0.950 . S
C954 C953 1.387 . S
C954 C957 1.387 . S
H955 C951 0.950 . S
H956 C953 0.950 . S
C957 C948 1.390 . S
C957 H950 0.950 . S
C957 C954 1.387 . S
C958 C959 1.387 . S
C958 H962 0.950 . S
C958 C967 1.390 . S
C959 C958 1.387 . S
C959 C961 1.387 . S
H960 C967 0.950 . S
C961 C959 1.387 . S
C961 C963 1.390 . S
C961 H965 0.950 . S
H962 C958 0.950 . S
C963 C961 1.390 . S
C963 C964 1.387 . S
C963 H966 0.950 . S
C964 C963 1.387 . S
C964 C967 1.387 . S
H965 C961 0.950 . S
H966 C963 0.950 . S
C967 C958 1.390 . S
C967 H960 0.950 . S
C967 C964 1.387 . S
C968 C969 1.387 . S
C968 H972 0.950 . S
C968 C977 1.390 . S
C969 C968 1.387 . S
C969 C971 1.387 . S
H970 C977 0.950 . S
C971 C969 1.387 . S
C971 C973 1.390 . S
C971 H975 0.950 . S
H972 C968 0.950 . S
C973 C971 1.390 . S
C973 C974 1.387 . S
C973 H976 0.950 . S
C974 C973 1.387 . S
C974 C977 1.387 . S
H975 C971 0.950 . S
H976 C973 0.950 . S
C977 C968 1.390 . S
C977 H970 0.950 . S
C977 C974 1.387 . S
C978 C979 1.387 . S
C978 H982 0.950 . S
C978 C987 1.390 . S
C979 C978 1.387 . S
C979 C981 1.387 . S
H980 C987 0.950 . S
C981 C979 1.387 . S
C981 C983 1.390 . S
C981 H985 0.950 . S
H982 C978 0.950 . S
C983 C981 1.390 . S
C983 C984 1.387 . S
C983 H986 0.950 . S
C984 C983 1.387 . S
C984 C987 1.387 . S
H985 C981 0.950 . S
H986 C983 0.950 . S
C987 C978 1.390 . S
C987 H980 0.950 . S
C987 C984 1.387 . S
C988 C989 1.387 . S
C988 H992 0.950 . S
C988 C997 1.390 . S
C989 C988 1.387 . S
C989 C991 1.387 . S
H990 C997 0.950 . S
C991 C989 1.387 . S
C991 C993 1.390 . S
C991 H995 0.950 . S
H992 C988 0.950 . S
C993 C991 1.390 . S
C993 C994 1.387 . S
C993 H996 0.950 . S
C994 C993 1.387 . S
C994 C997 1.387 . S
H995 C991 0.950 . S
H996 C993 0.950 . S
C997 C988 1.390 . S
C997 H990 0.950 . S
C997 C994 1.387 . S
C998 C999 1.387 . S
C998 H1002 0.950 . S
C998 C1007 1.390 . S
C999 C998 1.387 . S
C999 C1001 1.387 . S
H1000 C1007 0.950 . S
C1001 C999 1.387 . S
C1001 C1003 1.390 . S
C1001 H1005 0.950 . S
H1002 C998 0.950 . S
C1003 C1001 1.390 . S
C1003 C1004 1.387 . S
C1003 H1006 0.950 . S
C1004 C1003 1.387 . S
C1004 C1007 1.387 . S
H1005 C1001 0.950 . S
H1006 C1003 0.950 . S
C1007 C998 1.390 . S
C1007 H1000 0.950 . S
C1007 C1004 1.387 . S
C1008 C1009 1.387 . S
C1008 H1012 0.950 . S
C1008 C1017 1.390 . S
C1009 C1008 1.387 . S
C1009 C1011 1.387 . S
H1010 C1017 0.950 . S
C1011 C1009 1.387 . S
C1011 C1013 1.390 . S
C1011 H1015 0.950 . S
H1012 C1008 0.950 . S
C1013 C1011 1.390 . S
C1013 C1014 1.387 . S
C1013 H1016 0.950 . S
C1014 C1013 1.387 . S
C1014 C1017 1.387 . S
H1015 C1011 0.950 . S
H1016 C1013 0.950 . S
C1017 C1008 1.390 . S
C1017 H1010 0.950 . S
C1017 C1014 1.387 . S
C1018 C1019 1.387 . S
C1018 H1022 0.950 . S
C1018 C1027 1.390 . S
C1019 C1018 1.387 . S
C1019 C1021 1.387 . S
H1020 C1027 0.950 . S
C1021 C1019 1.387 . S
C1021 C1023 1.390 . S
C1021 H1025 0.950 . S
H1022 C1018 0.950 . S
C1023 C1021 1.390 . S
C1023 C1024 1.387 . S
C1023 H1026 0.950 . S
C1024 C1023 1.387 . S
C1024 C1027 1.387 . S
H1025 C1021 0.950 . S
H1026 C1023 0.950 . S
C1027 C1018 1.390 . S
C1027 H1020 0.950 . S
C1027 C1024 1.387 . S
C1028 C1029 1.387 . S
C1028 H1032 0.950 . S
C1028 C1037 1.390 . S
C1029 C1028 1.387 . S
C1029 C1031 1.387 . S
H1030 C1037 0.950 . S
C1031 C1029 1.387 . S
C1031 C1033 1.390 . S
C1031 H1035 0.950 . S
H1032 C1028 0.950 . S
C1033 C1031 1.390 . S
C1033 C1034 1.387 . S
C1033 H1036 0.950 . S
C1034 C1033 1.387 . S
C1034 C1037 1.387 . S
H1035 C1031 0.950 . S
H1036 C1033 0.950 . S
C1037 C1028 1.390 . S
C1037 H1030 0.950 . S
C1037 C1034 1.387 . S
C1038 C1039 1.387 . S
C1038 H1042 0.950 . S
C1038 C1047 1.390 . S
C1039 C1038 1.387 . S
C1039 C1041 1.387 . S
H1040 C1047 0.950 . S
C1041 C1039 1.387 . S
C1041 C1043 1.390 . S
C1041 H1045 0.950 . S
H1042 C1038 0.950 . S
C1043 C1041 1.390 . S
C1043 C1044 1.387 . S
C1043 H1046 0.950 . S
C1044 C1043 1.387 . S
C1044 C1047 1.387 . S
H1045 C1041 0.950 . S
H1046 C1043 0.950 . S
C1047 C1038 1.390 . S
C1047 H1040 0.950 . S
C1047 C1044 1.387 . S
C1048 C1049 1.387 . S
C1048 H1052 0.950 . S
C1048 C1057 1.390 . S
C1049 C1048 1.387 . S
C1049 C1051 1.387 . S
H1050 C1057 0.950 . S
C1051 C1049 1.387 . S
C1051 C1053 1.390 . S
C1051 H1055 0.950 . S
H1052 C1048 0.950 . S
C1053 C1051 1.390 . S
C1053 C1054 1.387 . S
C1053 H1056 0.950 . S
C1054 C1053 1.387 . S
C1054 C1057 1.387 . S
H1055 C1051 0.950 . S
H1056 C1053 0.950 . S
C1057 C1048 1.390 . S
C1057 H1050 0.950 . S
C1057 C1054 1.387 . S
C1058 C1059 1.387 . S
C1058 H1062 0.950 . S
C1058 C1067 1.390 . S
C1059 C1058 1.387 . S
C1059 C1061 1.387 . S
H1060 C1067 0.950 . S
C1061 C1059 1.387 . S
C1061 C1063 1.390 . S
C1061 H1065 0.950 . S
H1062 C1058 0.950 . S
C1063 C1061 1.390 . S
C1063 C1064 1.387 . S
C1063 H1066 0.950 . S
C1064 C1063 1.387 . S
C1064 C1067 1.387 . S
H1065 C1061 0.950 . S
H1066 C1063 0.950 . S
C1067 C1058 1.390 . S
C1067 H1060 0.950 . S
C1067 C1064 1.387 . S
C1068 C1069 1.387 . S
C1068 H1072 0.950 . S
C1068 C1077 1.390 . S
C1069 C1068 1.387 . S
C1069 C1071 1.387 . S
H1070 C1077 0.950 . S
C1071 C1069 1.387 . S
C1071 C1073 1.390 . S
C1071 H1075 0.950 . S
H1072 C1068 0.950 . S
C1073 C1071 1.390 . S
C1073 C1074 1.387 . S
C1073 H1076 0.950 . S
C1074 C1073 1.387 . S
C1074 C1077 1.387 . S
H1075 C1071 0.950 . S
H1076 C1073 0.950 . S
C1077 C1068 1.390 . S
C1077 H1070 0.950 . S
C1077 C1074 1.387 . S
C1078 C1079 1.387 . S
C1078 H1082 0.950 . S
C1078 C1087 1.390 . S
C1079 C1078 1.387 . S
C1079 C1081 1.387 . S
H1080 C1087 0.950 . S
C1081 C1079 1.387 . S
C1081 C1083 1.390 . S
C1081 H1085 0.950 . S
H1082 C1078 0.950 . S
C1083 C1081 1.390 . S
C1083 C1084 1.387 . S
C1083 H1086 0.950 . S
C1084 C1083 1.387 . S
C1084 C1087 1.387 . S
H1085 C1081 0.950 . S
H1086 C1083 0.950 . S
C1087 C1078 1.390 . S
C1087 H1080 0.950 . S
C1087 C1084 1.387 . S
C1088 C1089 1.387 . S
C1088 H1092 0.950 . S
C1088 C1097 1.390 . S
C1089 C1088 1.387 . S
C1089 C1091 1.387 . S
H1090 C1097 0.950 . S
C1091 C1089 1.387 . S
C1091 C1093 1.390 . S
C1091 H1095 0.950 . S
H1092 C1088 0.950 . S
C1093 C1091 1.390 . S
C1093 C1094 1.387 . S
C1093 H1096 0.950 . S
C1094 C1093 1.387 . S
C1094 C1097 1.387 . S
H1095 C1091 0.950 . S
H1096 C1093 0.950 . S
C1097 C1088 1.390 . S
C1097 H1090 0.950 . S
C1097 C1094 1.387 . S
C1098 C1099 1.387 . S
C1098 H1102 0.950 . S
C1098 C1107 1.390 . S
C1099 C1098 1.387 . S
C1099 C1101 1.387 . S
H1100 C1107 0.950 . S
C1101 C1099 1.387 . S
C1101 C1103 1.390 . S
C1101 H1105 0.950 . S
H1102 C1098 0.950 . S
C1103 C1101 1.390 . S
C1103 C1104 1.387 . S
C1103 H1106 0.950 . S
C1104 C1103 1.387 . S
C1104 C1107 1.387 . S
H1105 C1101 0.950 . S
H1106 C1103 0.950 . S
C1107 C1098 1.390 . S
C1107 H1100 0.950 . S
C1107 C1104 1.387 . S
C1108 C1109 1.387 . S
C1108 H1112 0.950 . S
C1108 C1117 1.390 . S
C1109 C1108 1.387 . S
C1109 C1111 1.387 . S
H1110 C1117 0.950 . S
C1111 C1109 1.387 . S
C1111 C1113 1.390 . S
C1111 H1115 0.950 . S
H1112 C1108 0.950 . S
C1113 C1111 1.390 . S
C1113 C1114 1.387 . S
C1113 H1116 0.950 . S
C1114 C1113 1.387 . S
C1114 C1117 1.387 . S
H1115 C1111 0.950 . S
H1116 C1113 0.950 . S
C1117 C1108 1.390 . S
C1117 H1110 0.950 . S
C1117 C1114 1.387 . S
C1118 C1119 1.387 . S
C1118 H1122 0.950 . S
C1118 C1127 1.390 . S
C1119 C1118 1.387 . S
C1119 C1121 1.387 . S
H1120 C1127 0.950 . S
C1121 C1119 1.387 . S
C1121 C1123 1.390 . S
C1121 H1125 0.950 . S
H1122 C1118 0.950 . S
C1123 C1121 1.390 . S
C1123 C1124 1.387 . S
C1123 H1126 0.950 . S
C1124 C1123 1.387 . S
C1124 C1127 1.387 . S
H1125 C1121 0.950 . S
H1126 C1123 0.950 . S
C1127 C1118 1.390 . S
C1127 H1120 0.950 . S
C1127 C1124 1.387 . S
C1128 C1129 1.388 1_565 S
C1128 H1132 0.950 . S
C1128 C1137 1.389 . S
C1129 C1128 1.388 1_545 S
C1129 C1131 1.387 . S
H1130 C1137 0.950 . S
C1131 C1129 1.387 . S
C1131 C1133 1.389 . S
C1131 H1135 0.950 . S
H1132 C1128 0.950 . S
C1133 C1131 1.389 . S
C1133 C1134 1.388 1_545 S
C1133 H1136 0.950 . S
C1134 C1133 1.388 1_565 S
C1134 C1137 1.387 . S
H1135 C1131 0.950 . S
H1136 C1133 0.950 . S
C1137 C1128 1.389 . S
C1137 H1130 0.950 . S
C1137 C1134 1.387 . S
C1138 C1139 1.387 . S
C1138 H1142 0.950 . S
C1138 C1147 1.390 1_455 S
C1139 C1138 1.387 . S
C1139 C1141 1.387 . S
H1140 C1147 0.950 . S
C1141 C1139 1.387 . S
C1141 C1143 1.390 1_455 S
C1141 H1145 0.950 . S
H1142 C1138 0.950 . S
C1143 C1141 1.390 1_655 S
C1143 C1144 1.387 . S
C1143 H1146 0.950 . S
C1144 C1143 1.387 . S
C1144 C1147 1.387 . S
H1145 C1141 0.950 . S
H1146 C1143 0.950 . S
C1147 C1138 1.390 1_655 S
C1147 H1140 0.950 . S
C1147 C1144 1.387 . S
C1148 C1149 1.387 . S
C1148 H1152 0.950 . S
C1148 C1157 1.390 . S
C1149 C1148 1.387 . S
C1149 C1151 1.387 1_545 S
H1150 C1157 0.950 . S
C1151 C1149 1.387 1_565 S
C1151 C1153 1.390 . S
C1151 H1155 0.950 . S
H1152 C1148 0.950 . S
C1153 C1151 1.390 . S
C1153 C1154 1.387 . S
C1153 H1156 0.950 . S
C1154 C1153 1.387 . S
C1154 C1157 1.387 1_565 S
H1155 C1151 0.950 . S
H1156 C1153 0.950 . S
C1157 C1148 1.390 . S
C1157 H1150 0.950 . S
C1157 C1154 1.387 1_545 S
C1158 C1159 1.387 . S
C1158 H1162 0.950 . S
C1158 C1167 1.390 1_455 S
C1159 C1158 1.387 . S
C1159 C1161 1.387 . S
H1160 C1167 0.950 . S
C1161 C1159 1.387 . S
C1161 C1163 1.390 1_455 S
C1161 H1165 0.950 . S
H1162 C1158 0.950 . S
C1163 C1161 1.390 1_655 S
C1163 C1164 1.387 . S
C1163 H1166 0.950 . S
C1164 C1163 1.387 . S
C1164 C1167 1.387 . S
H1165 C1161 0.950 . S
H1166 C1163 0.950 . S
C1167 C1158 1.390 1_655 S
C1167 H1160 0.950 . S
C1167 C1164 1.387 . S
C1168 C1169 1.387 . S
C1168 H1172 0.950 . S
C1168 C1177 1.390 . S
C1169 C1168 1.387 . S
C1169 C1171 1.387 1_545 S
H1170 C1177 0.950 . S
C1171 C1169 1.387 1_565 S
C1171 C1173 1.390 . S
C1171 H1175 0.950 . S
H1172 C1168 0.950 . S
C1173 C1171 1.390 . S
C1173 C1174 1.387 . S
C1173 H1176 0.950 . S
C1174 C1173 1.387 . S
C1174 C1177 1.387 1_565 S
H1175 C1171 0.950 . S
H1176 C1173 0.950 . S
C1177 C1168 1.390 . S
C1177 H1170 0.950 . S
C1177 C1174 1.387 1_545 S
C1178 C1179 1.387 . S
C1178 H1182 0.950 . S
C1178 C1187 1.390 1_655 S
C1179 C1178 1.387 . S
C1179 C1181 1.387 . S
H1180 C1187 0.950 . S
C1181 C1179 1.387 . S
C1181 C1183 1.390 1_655 S
C1181 H1185 0.950 . S
H1182 C1178 0.950 . S
C1183 C1181 1.390 1_455 S
C1183 C1184 1.387 . S
C1183 H1186 0.950 . S
C1184 C1183 1.387 . S
C1184 C1187 1.387 . S
H1185 C1181 0.950 . S
H1186 C1183 0.950 . S
C1187 C1178 1.390 1_455 S
C1187 H1180 0.950 . S
C1187 C1184 1.387 . S
C1188 C1189 1.387 1_565 S
C1188 H1192 0.950 . S
C1188 C1197 1.390 . S
C1189 C1188 1.387 1_545 S
C1189 C1191 1.387 . S
H1190 C1197 0.950 . S
C1191 C1189 1.387 . S
C1191 C1193 1.390 . S
C1191 H1195 0.950 . S
H1192 C1188 0.950 . S
C1193 C1191 1.390 . S
C1193 C1194 1.387 1_545 S
C1193 H1196 0.950 . S
C1194 C1193 1.387 1_565 S
C1194 C1197 1.387 . S
H1195 C1191 0.950 . S
H1196 C1193 0.950 . S
C1197 C1188 1.390 . S
C1197 H1190 0.950 . S
C1197 C1194 1.387 . S
C1198 C1199 1.387 . S
C1198 H1202 0.950 . S
C1198 C1207 1.390 1_655 S
C1199 C1198 1.387 . S
C1199 C1201 1.387 . S
H1200 C1207 0.950 . S
C1201 C1199 1.387 . S
C1201 C1203 1.390 1_655 S
C1201 H1205 0.950 . S
H1202 C1198 0.950 . S
C1203 C1201 1.390 1_455 S
C1203 C1204 1.387 . S
C1203 H1206 0.950 . S
C1204 C1203 1.387 . S
C1204 C1207 1.387 . S
H1205 C1201 0.950 . S
H1206 C1203 0.950 . S
C1207 C1198 1.390 1_455 S
C1207 H1200 0.950 . S
C1207 C1204 1.387 . S
C1208 C1209 1.387 . S
C1208 H1212 0.950 . S
C1208 C1217 1.390 . S
C1209 C1208 1.387 . S
C1209 C1211 1.387 1_556 S
H1210 C1217 0.950 . S
C1211 C1209 1.387 1_554 S
C1211 C1213 1.390 . S
C1211 H1215 0.950 . S
H1212 C1208 0.950 . S
C1213 C1211 1.390 . S
C1213 C1214 1.387 . S
C1213 H1216 0.950 . S
C1214 C1213 1.387 . S
C1214 C1217 1.387 1_554 S
H1215 C1211 0.950 . S
H1216 C1213 0.950 . S
C1217 C1208 1.390 . S
C1217 H1210 0.950 . S
C1217 C1214 1.387 1_556 S
C1218 C1219 1.387 1_556 S
C1218 H1222 0.950 . S
C1218 C1227 1.390 . S
C1219 C1218 1.387 1_554 S
C1219 C1221 1.387 . S
H1220 C1227 0.950 . S
C1221 C1219 1.387 . S
C1221 C1223 1.390 . S
C1221 H1225 0.950 . S
H1222 C1218 0.950 . S
C1223 C1221 1.390 . S
C1223 C1224 1.387 1_554 S
C1223 H1226 0.950 . S
C1224 C1223 1.387 1_556 S
C1224 C1227 1.387 . S
H1225 C1221 0.950 . S
H1226 C1223 0.950 . S
C1227 C1218 1.390 . S
C1227 H1220 0.950 . S
C1227 C1224 1.387 . S
C1228 C1229 1.387 . S
C1228 H1232 0.950 . S
C1228 C1237 1.430 . S
C1229 C1228 1.387 . S
C1229 C1231 1.347 1_556 S
H1230 C1237 0.954 . S
C1231 C1229 1.347 1_554 S
C1231 C1233 1.430 . S
C1231 H1235 0.954 . S
H1232 C1228 0.950 . S
C1233 C1231 1.430 . S
C1233 C1234 1.387 . S
C1233 H1236 0.950 . S
C1234 C1233 1.387 . S
C1234 C1237 1.347 1_554 S
H1235 C1231 0.954 . S
H1236 C1233 0.950 . S
C1237 C1228 1.430 . S
C1237 H1230 0.954 . S
C1237 C1234 1.347 1_556 S
C1238 C1239 1.387 1_556 S
C1238 H1242 0.950 . S
C1238 C1247 1.390 . S
C1239 C1238 1.387 1_554 S
C1239 C1241 1.387 . S
H1240 C1247 0.950 . S
C1241 C1239 1.387 . S
C1241 C1243 1.390 . S
C1241 H1245 0.950 . S
H1242 C1238 0.950 . S
C1243 C1241 1.390 . S
C1243 C1244 1.387 1_554 S
C1243 H1246 0.950 . S
C1244 C1243 1.387 1_556 S
C1244 C1247 1.387 . S
H1245 C1241 0.950 . S
H1246 C1243 0.950 . S
C1247 C1238 1.390 . S
C1247 H1240 0.950 . S
C1247 C1244 1.387 . S
C529 C29 1.472 . S
C534 C7 1.472 . S
C539 C18 1.472 . S
C544 C40 1.472 . S
C549 C73 1.477 . S
C554 C51 1.477 . S
C559 C62 1.477 . S
C564 C84 1.477 . S
C569 C139 1.477 . S
C574 C95 1.477 . S
C579 C150 1.472 . S
C584 C106 1.472 . S
C589 C117 1.477 . S
C594 C161 1.477 . S
C599 C128 1.477 . S
C604 C172 1.477 . S
C609 C216 1.472 . S
C614 C183 1.472 . S
C619 C194 1.472 . S
C624 C238 1.472 . S
C629 C249 1.472 . S
C634 C205 1.472 . S
C639 C260 1.477 . S
C644 C227 1.477 . S
C649 C271 1.472 . S
C654 C293 1.472 . S
C659 C282 1.477 . S
C664 C304 1.477 . S
C669 C337 1.477 . S
C674 C315 1.477 . S
C679 C348 1.477 . S
C684 C326 1.477 . S
C689 C359 1.477 . S
C694 C403 1.477 . S
C699 C370 1.472 . S
C704 C414 1.472 . S
C709 C381 1.477 . S
C714 C425 1.477 . S
C719 C436 1.477 . S
C724 C392 1.477 . S
C729 C480 1.477 . S
C734 C447 1.477 . S
C739 C502 1.477 . S
C744 C458 1.477 . S
C749 C513 1.477 . S
C754 C469 1.477 . S
C759 C524 1.472 . S
C764 C491 1.472 . S
C769 C5 1.228 . S
C774 C346 1.233 . S
C779 C313 1.228 . S
C784 C16 1.233 . S
C789 C27 1.230 . S
C794 C324 1.226 . S
C799 C38 1.228 . S
C804 C335 1.233 . S
C809 C280 1.226 . S
C814 C49 1.230 . S
C819 C291 1.231 . S
C824 C60 1.226 . S
C829 C71 1.232 . S
C834 C302 1.227 . S
C839 C82 1.233 . S
C844 C269 1.228 . S
C849 C489 1.229 . S
C854 C93 1.226 . S
C859 C104 1.230 . S
C864 C456 1.226 . S
C869 C467 1.227 . S
C874 C115 1.228 . S
C879 C126 1.231 . S
C884 C478 1.232 . S
C889 C137 1.232 . S
C894 C522 1.231 . S
C899 C148 1.229 . S
C904 C500 1.233 . S
C909 C159 1.232 . S
C914 C511 1.231 . S
C919 C170 1.229 . S
C924 C445 1.233 . S
C929 C181 1.233 . S
C934 C434 1.228 . S
C939 C192 1.227 . S
C944 C368 1.233 . S
C949 C203 1.232 . S
C954 C379 1.227 . S
C959 C390 1.228 . S
C964 C214 1.227 . S
C969 C225 1.227 . S
C974 C357 1.228 . S
C979 C412 1.231 . S
C984 C236 1.232 . S
C989 C423 1.227 . S
C994 C247 1.227 . S
C999 C401 1.227 . S
C1004 C258 1.227 . S
C1009 C250 1.632 . S
C1014 C8 1.632 . S
C1019 C184 1.635 . S
C1024 C19 1.635 . S
C1029 C30 1.633 . S
C1034 C261 1.633 . S
C1039 C41 1.632 . S
C1044 C239 1.631 . S
C1049 C52 1.634 . S
C1054 C206 1.634 . S
C1059 C217 1.631 . S
C1064 C63 1.631 . S
C1069 C228 1.634 . S
C1074 C74 1.634 . S
C1079 C85 1.635 . S
C1084 C195 1.635 . S
C1089 C96 1.635 . S
C1094 C151 1.635 . S
C1099 C107 1.634 . S
C1104 C162 1.634 . S
C1109 C118 1.631 . S
C1114 C173 1.631 . S
C1119 C140 1.633 . S
C1124 C129 1.633 . S
C1129 C514 1.634 . S
C1134 C272 1.634 . S
C1139 C283 1.631 . S
C1144 C448 1.631 . S
C1149 C294 1.632 . S
C1154 C525 1.633 . S
C1159 C503 1.635 . S
C1164 C305 1.635 . S
C1169 C316 1.631 . S
C1174 C470 1.632 . S
C1179 C327 1.635 . S
C1184 C481 1.635 . S
C1189 C492 1.634 . S
C1194 C338 1.634 . S
C1199 C459 1.631 . S
C1204 C349 1.631 . S
C1209 C360 1.632 . S
C1214 C415 1.633 . S
C1219 C426 1.632 . S
C1224 C371 1.631 . S
C1229 C382 1.634 . S
C1234 C437 1.634 . S
C1239 C404 1.633 . S
C1244 C393 1.633 . S
