# Generated by pormake.
# Topology wli, (5)-cn, num edge types: 1
# Building blocks:
#     Node 0, Type 0, BuildingBlock: XOMCOT_clean_sbu_1, # of connection points: 5
#     Node 1, Type 0, BuildingBlock: XOMCOT_clean_sbu_1, # of connection points: 5
#     Node 2, Type 0, BuildingBlock: XOMCOT_clean_sbu_1, # of connection points: 5
#     Node 3, Type 0, BuildingBlock: XOMCOT_clean_sbu_1, # of connection points: 5
#     Node 4, Type 0, BuildingBlock: XOMCOT_clean_sbu_1, # of connection points: 5
#     Node 5, Type 0, BuildingBlock: XOMCOT_clean_sbu_1, # of connection points: 5
#     Edge 6, Type (0, 0), BuildingBlock: UVAHIK_clean_linker_0, # of connection points: 2
#     Edge 7, Type (0, 0), BuildingBlock: UVAHIK_clean_linker_0, # of connection points: 2
#     Edge 8, Type (0, 0), BuildingBlock: UVAHIK_clean_linker_0, # of connection points: 2
#     Edge 9, Type (0, 0), BuildingBlock: UVAHIK_clean_linker_0, # of connection points: 2
#     Edge 10, Type (0, 0), BuildingBlock: UVAHIK_clean_linker_0, # of connection points: 2
#     Edge 11, Type (0, 0), BuildingBlock: UVAHIK_clean_linker_0, # of connection points: 2
#     Edge 12, Type (0, 0), BuildingBlock: UVAHIK_clean_linker_0, # of connection points: 2
#     Edge 13, Type (0, 0), BuildingBlock: UVAHIK_clean_linker_0, # of connection points: 2
#     Edge 14, Type (0, 0), BuildingBlock: UVAHIK_clean_linker_0, # of connection points: 2
#     Edge 15, Type (0, 0), BuildingBlock: UVAHIK_clean_linker_0, # of connection points: 2
#     Edge 16, Type (0, 0), BuildingBlock: UVAHIK_clean_linker_0, # of connection points: 2
#     Edge 17, Type (0, 0), BuildingBlock: UVAHIK_clean_linker_0, # of connection points: 2
#     Edge 18, Type (0, 0), BuildingBlock: UVAHIK_clean_linker_0, # of connection points: 2
#     Edge 19, Type (0, 0), BuildingBlock: UVAHIK_clean_linker_0, # of connection points: 2
#     Edge 20, Type (0, 0), BuildingBlock: UVAHIK_clean_linker_0, # of connection points: 2
# Relax obj value: 0.113
# Max RMSD: 0.138
# Mean RMSD: 0.138
data_MOF--net-wli--node1-XOMCOT_clean_sbu_1--edge1-UVAHIK_clean_linker_0
_symmetry_space_group_name_H-M    P1
_symmetry_Int_Tables_number       1
_symmetry_cell_setting            triclinic
loop_
_symmetry_equiv_pos_as_xyz
'x, y, z'
_cell_length_a     45.501392
_cell_length_b     45.534956
_cell_length_c     33.768692
_cell_angle_alpha  89.797878
_cell_angle_beta   90.481963
_cell_angle_gamma 120.02518
loop_
_atom_site_label
_atom_site_type_symbol
_atom_site_fract_x
_atom_site_fract_y
_atom_site_fract_z
_atom_type_partial_charge
C0 C 0.20012 0.46838 0.04056 0.0
C1 C 0.22198 0.49619 0.01852 0.0
N2 N 0.25408 0.505 0.0287 0.0
N3 N 0.2183 0.45945 0.06427 0.0
C4 C 0.25107 0.48221 0.0565 0.0
H5 H 0.1727 0.45592 0.04007 0.0
Co6 Co 0.20052 0.4265 0.1034 0.0
C7 C 0.23506 0.38687 0.0936 0.0
O8 O 0.20513 0.35968 0.09841 0.0
N9 N 0.18224 0.39433 0.14534 0.0
C10 C 0.18041 0.36944 0.20307 0.0
C11 C 0.20063 0.38787 0.17204 0.0
C12 C 0.15119 0.3808 0.16225 0.0
N13 N 0.14923 0.36512 0.19703 0.0
O14 O 0.22648 0.46067 0.142 0.0
H15 H 0.22772 0.39788 0.17063 0.0
H16 H 0.13143 0.38544 0.15187 0.0
O17 O 0.23787 0.41634 0.09535 0.0
C18 C 0.20785 0.47052 0.15857 0.0
O19 O 0.17575 0.45631 0.148 0.0
N20 N 0.17318 0.39415 0.06427 0.0
C21 C 0.13114 0.35502 1.00178 0.0
C22 C 0.16642 0.36936 0.99958 0.0
C23 C 0.18699 0.38926 0.03078 0.0
C24 C 0.13897 0.3814 0.066 0.0
C25 C 0.11743 0.36105 0.03567 0.0
H26 H 0.21416 0.40218 0.02692 0.0
H27 H 0.1283 0.389 0.08933 0.0
H28 H 0.27222 0.48294 0.07229 0.0
H29 H 0.2147 0.50905 0.99693 0.0
H30 H 0.18862 0.36131 0.22894 0.0
H31 H 0.17812 0.36615 0.97339 0.0
H32 H 0.09046 0.35193 0.03762 0.0
C33 C 0.54776 0.7311 0.71663 0.0
C34 C 0.51902 0.72488 0.69601 0.0
N35 N 0.51147 0.74912 0.70536 0.0
N36 N 0.55857 0.75929 0.7387 0.0
C37 C 0.53592 0.76966 0.73139 0.0
H38 H 0.55994 0.71592 0.71587 0.0
Co39 Co 0.5953 0.77622 0.77382 0.0
C40 C 0.60095 0.84537 0.77733 0.0
O41 O 0.58282 0.83917 0.80956 0.0
N42 N 0.63197 0.79239 0.80963 0.0
C43 C 0.68342 0.82137 0.8369 0.0
C44 C 0.66195 0.82168 0.80805 0.0
C45 C 0.63579 0.77486 0.83976 0.0
N46 N 0.66687 0.79185 0.85681 0.0
O47 O 0.56521 0.7706 0.81619 0.0
H48 H 0.66839 0.84136 0.78619 0.0
H49 H 0.61689 0.74927 0.84767 0.0
O50 O 0.60601 0.82249 0.76277 0.0
C51 C 0.55133 0.73993 0.82797 0.0
O52 O 0.55991 0.7195 0.81072 0.0
N53 N 0.62372 0.77893 0.73242 0.0
C54 C 0.66074 0.77445 0.66975 0.0
C55 C 0.64441 0.79353 0.66601 0.0
C56 C 0.62598 0.79545 0.69775 0.0
C57 C 0.6394 0.76024 0.73655 0.0
C58 C 0.65848 0.75805 0.70575 0.0
H59 H 0.61226 0.80895 0.69378 0.0
H60 H 0.63632 0.74614 0.76351 0.0
H61 H 0.53681 0.79127 0.74578 0.0
H62 H 0.50495 0.70418 0.67552 0.0
H63 H 0.70942 0.84104 0.84227 0.0
H64 H 0.64537 0.80632 0.63854 0.0
H65 H 0.6701 0.74247 0.70948 0.0
C66 C 0.29642 0.8233 0.38578 0.0
C67 C 0.3026 0.80125 0.36463 0.0
N68 N 0.27565 0.76968 0.36831 0.0
N69 N 0.26573 0.8059 0.40276 0.0
C70 C 0.25368 0.77333 0.39177 0.0
H71 H 0.31338 0.85031 0.38905 0.0
Co72 Co 0.24753 0.82502 0.43605 0.0
C73 C 0.17538 0.76924 0.44327 0.0
O74 O 0.17676 0.77099 0.48213 0.0
N75 N 0.2302 0.84523 0.46999 0.0
C76 C 0.20335 0.87143 0.49218 0.0
C77 C 0.20339 0.8498 0.46373 0.0
C78 C 0.2458 0.86405 0.50253 0.0
N79 N 0.23007 0.88027 0.51654 0.0
O80 O 0.25219 0.80027 0.47957 0.0
H81 H 0.18617 0.83972 0.43871 0.0
H82 H 0.26965 0.8679 0.5142 0.0
O83 O 0.20172 0.78868 0.4232 0.0
C84 C 0.28265 0.81695 0.49256 0.0
O85 O 0.30341 0.84625 0.47595 0.0
N86 N 0.24594 0.8508 0.39371 0.0
C87 C 0.25283 0.89276 0.32999 0.0
C88 C 0.2325 0.85742 0.32665 0.0
C89 C 0.22945 0.83683 0.35888 0.0
C90 C 0.26569 0.88508 0.39756 0.0
C91 C 0.26916 0.9066 0.3662 0.0
H92 H 0.21505 0.80966 0.35518 0.0
H93 H 0.27959 0.89576 0.42484 0.0
H94 H 0.22924 0.75281 0.40089 0.0
H95 H 0.32557 0.80807 0.3485 0.0
H96 H 0.1858 0.88088 0.494 0.0
H97 H 0.21963 0.84576 0.2991 0.0
H98 H 0.28565 0.9337 0.36972 0.0
C99 C 0.49024 0.19978 0.94699 0.0
C100 C 0.51821 0.22222 0.96873 0.0
N101 N 0.52061 0.25298 0.96741 0.0
N102 N 0.4748 0.2161 0.93218 0.0
C103 C 0.4939 0.24847 0.94483 0.0
H104 H 0.482 0.17337 0.94154 0.0
Co105 Co 0.43795 0.19674 0.89746 0.0
C106 C 0.39526 0.22425 0.92564 0.0
O107 O 0.36963 0.19294 0.92445 0.0
N108 N 0.40178 0.1768 0.85967 0.0
C109 C 0.36322 0.16825 0.81289 0.0
C110 C 0.38373 0.18973 0.84237 0.0
C111 C 0.39334 0.14865 0.83789 0.0
N112 N 0.36948 0.14249 0.81009 0.0
O113 O 0.46694 0.22588 0.85678 0.0
H114 H 0.38649 0.21418 0.84883 0.0
H115 H 0.40544 0.13351 0.8411 0.0
O116 O 0.4246 0.23055 0.91377 0.0
C117 C 0.47931 0.21048 0.83779 0.0
O118 O 0.46968 0.17896 0.84731 0.0
N119 N 0.41105 0.16641 0.9385 0.0
C120 C 0.37649 0.12106 1.00031 0.0
C121 C 0.39407 0.15618 0.00687 0.0
C122 C 0.41147 0.17831 0.97582 0.0
C123 C 0.39536 0.13227 0.9322 0.0
C124 C 0.37732 0.10926 0.96226 0.0
H125 H 0.42582 0.20518 0.98207 0.0
H126 H 0.39762 0.12231 0.9044 0.0
H127 H 0.48841 0.26832 0.9372 0.0
H128 H 0.53591 0.21636 0.98332 0.0
H129 H 0.34651 0.17228 0.79347 0.0
H130 H 0.39535 0.1666 0.03602 0.0
H131 H 0.36454 0.0824 0.95568 0.0
C132 C 0.83204 0.28851 0.63025 0.0
C133 C 0.81164 0.29595 0.65286 0.0
N134 N 0.77904 0.27116 0.64777 0.0
N135 N 0.81261 0.25905 0.61112 0.0
C136 C 0.78051 0.24907 0.62218 0.0
H137 H 0.85921 0.30418 0.62676 0.0
Co138 Co 0.82838 0.24179 0.57227 0.0
C139 C 0.79524 0.16861 0.58987 0.0
O140 O 0.82518 0.17145 0.58492 0.0
N141 N 0.84471 0.22613 0.5303 0.0
C142 C 0.84652 0.19979 0.47545 0.0
C143 C 0.8273 0.19807 0.50757 0.0
C144 C 0.87351 0.24535 0.50954 0.0
N145 N 0.87564 0.22973 0.47666 0.0
O146 O 0.80036 0.24801 0.53438 0.0
H147 H 0.80126 0.17854 0.51213 0.0
H148 H 0.89159 0.27138 0.51672 0.0
O149 O 0.79176 0.19469 0.58481 0.0
C150 C 0.81765 0.27687 0.51783 0.0
O151 O 0.84965 0.29604 0.52818 0.0
N152 N 0.85783 0.23874 0.61061 0.0
C153 C 0.90297 0.24423 0.67119 0.0
C154 C 0.86777 0.22627 0.67719 0.0
C155 C 0.84574 0.22407 0.64676 0.0
C156 C 0.89201 0.25686 0.60473 0.0
C157 C 0.91485 0.25908 0.63399 0.0
H158 H 0.81892 0.21187 0.65304 0.0
H159 H 0.90221 0.27147 0.57835 0.0
H160 H 0.75869 0.22652 0.6106 0.0
H161 H 0.8203 0.31872 0.6703 0.0
H162 H 0.83862 0.18146 0.45165 0.0
H163 H 0.85722 0.21535 0.70573 0.0
H164 H 0.94174 0.27335 0.62769 0.0
C165 C 0.73102 0.54344 0.29107 0.0
C166 C 0.72383 0.51502 0.31265 0.0
N167 N 0.7505 0.50979 0.31047 0.0
N168 N 0.76208 0.55633 0.27524 0.0
C169 C 0.77335 0.53535 0.28737 0.0
H170 H 0.71445 0.55382 0.28657 0.0
Co171 Co 0.78093 0.59347 0.24134 0.0
C172 C 0.85255 0.6082 0.23582 0.0
O173 O 0.85075 0.6064 0.19697 0.0
N174 N 0.79875 0.63076 0.20655 0.0
C175 C 0.82676 0.6833 0.18255 0.0
C176 C 0.82649 0.6617 0.21147 0.0
C177 C 0.78274 0.63422 0.17442 0.0
N178 N 0.79915 0.6659 0.15929 0.0
O179 O 0.77691 0.56375 0.19885 0.0
H180 H 0.84432 0.66866 0.23585 0.0
H181 H 0.75825 0.61465 0.16383 0.0
O182 O 0.82656 0.60294 0.25552 0.0
C183 C 0.74702 0.55 0.18418 0.0
O184 O 0.72545 0.55832 0.19863 0.0
N185 N 0.78214 0.62129 0.28277 0.0
C186 C 0.77576 0.65776 0.34492 0.0
C187 C 0.79467 0.64135 0.34979 0.0
C188 C 0.79753 0.62318 0.31831 0.0
C189 C 0.76356 0.63699 0.27754 0.0
C190 C 0.76044 0.6558 0.30808 0.0
H191 H 0.81091 0.60947 0.3231 0.0
H192 H 0.75038 0.63422 0.24978 0.0
H193 H 0.79777 0.53877 0.27907 0.0
H194 H 0.70028 0.49914 0.32792 0.0
H195 H 0.84525 0.70999 0.17964 0.0
H196 H 0.80666 0.64209 0.37791 0.0
H197 H 0.74504 0.66753 0.30343 0.0
C198 C 0.24651 0.70676 0.36485 0.0
C199 C 0.27149 0.73876 0.35094 0.0
C200 C 0.24215 0.67698 0.34748 0.0
C201 C 0.28445 0.64198 0.28678 0.0
H202 H 0.19261 0.57373 0.25818 0.0
C203 C 0.2523 0.52815 0.18218 0.0
C204 C 0.22118 0.49825 0.18781 0.0
C205 C 0.26108 0.55677 0.2057 0.0
C206 C 0.21841 0.5921 0.26662 0.0
H207 H 0.31148 0.76393 0.30743 0.0
H208 H 0.30414 0.71209 0.27788 0.0
H209 H 0.20254 0.62469 0.29246 0.0
H210 H 0.17619 0.47361 0.22408 0.0
H211 H 0.19215 0.52253 0.26632 0.0
H212 H 0.30031 0.60923 0.26107 0.0
C213 C 0.28812 0.7102 0.30246 0.0
C214 C 0.22406 0.62145 0.28617 0.0
C215 C 0.29229 0.73999 0.31953 0.0
C216 C 0.20019 0.49656 0.21894 0.0
C217 C 0.20921 0.52476 0.24284 0.0
C218 C 0.27876 0.61235 0.26752 0.0
C219 C 0.26282 0.67838 0.31601 0.0
C220 C 0.25711 0.64678 0.29636 0.0
C221 C 0.23906 0.55571 0.23555 0.0
C222 C 0.24562 0.587 0.25714 0.0
H223 H 0.23034 0.70449 0.38931 0.0
H224 H 0.22265 0.65277 0.35884 0.0
H225 H 0.31021 0.66102 0.29452 0.0
H226 H 0.26872 0.53009 0.15804 0.0
H227 H 0.28421 0.58014 0.19905 0.0
C228 C 0.5014 0.73697 0.86317 0.0
C229 C 0.52505 0.72599 0.85887 0.0
C230 C 0.47318 0.7191 0.88786 0.0
C231 C 0.43817 0.65398 0.9677 0.0
H232 H 0.35124 0.62594 0.91729 0.0
C233 C 0.3157 0.53343 0.01494 0.0
C234 C 0.28494 0.5337 0.01427 0.0
C235 C 0.34543 0.561 1.00031 0.0
C236 C 0.37524 0.63393 0.93219 0.0
H237 H 0.53914 0.68935 0.87866 0.0
H238 H 0.49063 0.6587 0.92172 0.0
H239 H 0.40321 0.66903 0.88597 0.0
H240 H 0.26175 0.56385 0.99874 0.0
H241 H 0.3135 0.6118 0.97322 0.0
H242 H 0.41033 0.61829 0.0134 0.0
C243 C 0.49347 0.68085 0.90625 0.0
C244 C 0.40506 0.65874 0.91425 0.0
C245 C 0.5212 0.6983 0.88134 0.0
C246 C 0.28479 0.56244 0.99905 0.0
C247 C 0.31452 0.59002 0.98446 0.0
C248 C 0.40839 0.62923 0.98565 0.0
C249 C 0.46862 0.69041 0.90906 0.0
C250 C 0.43692 0.66843 0.9313 0.0
C251 C 0.34519 0.5896 0.98472 0.0
C252 C 0.3766 0.61828 0.96764 0.0
H253 H 0.50371 0.75813 0.84594 0.0
H254 H 0.45454 0.72719 0.88964 0.0
H255 H 0.46231 0.66126 0.98188 0.0
H256 H 0.31668 0.51159 0.02596 0.0
H257 H 0.36846 0.55953 1.00035 0.0
C258 C 0.32367 0.82812 0.54722 0.0
C259 C 0.29603 0.80441 0.5244 0.0
C260 C 0.34066 0.81769 0.57313 0.0
C261 C 0.36093 0.75003 0.58514 0.0
H262 H 0.40178 0.7971 0.68353 0.0
C263 C 0.45371 0.72351 0.67597 0.0
C264 C 0.48316 0.75212 0.69057 0.0
C265 C 0.42682 0.72653 0.66014 0.0
C266 C 0.39072 0.78383 0.65603 0.0
H267 H 0.26352 0.75094 0.51195 0.0
H268 H 0.29352 0.7324 0.55753 0.0
H269 H 0.36003 0.80703 0.64956 0.0
H270 H 0.50707 0.80637 0.70012 0.0
H271 H 0.46029 0.81167 0.67251 0.0
H272 H 0.3923 0.72754 0.59102 0.0
C273 C 0.30201 0.7592 0.55517 0.0
C274 C 0.36667 0.78941 0.63662 0.0
C275 C 0.28464 0.76972 0.52939 0.0
C276 C 0.4847 0.78374 0.68962 0.0
C277 C 0.45779 0.78675 0.67379 0.0
C278 C 0.38499 0.74442 0.60457 0.0
C279 C 0.33067 0.7832 0.57675 0.0
C280 C 0.35207 0.77321 0.60044 0.0
C281 C 0.42861 0.75823 0.65854 0.0
C282 C 0.40076 0.76183 0.63981 0.0
H283 H 0.33297 0.85505 0.54408 0.0
H284 H 0.36279 0.83693 0.58882 0.0
H285 H 0.35054 0.73746 0.5571 0.0
H286 H 0.45126 0.69864 0.67689 0.0
H287 H 0.40455 0.70395 0.64926 0.0
C288 C 0.50827 0.20931 0.77663 0.0
C289 C 0.50711 0.2277 0.80925 0.0
C290 C 0.53787 0.22136 0.75454 0.0
C291 C 0.62856 0.26864 0.77043 0.0
H292 H 0.63285 0.25844 0.65703 0.0
C293 C 0.75206 0.29183 0.69538 0.0
C294 C 0.74914 0.27005 0.66416 0.0
C295 C 0.7234 0.29141 0.71068 0.0
C296 C 0.63205 0.26113 0.68878 0.0
H297 H 0.53526 0.2738 0.84347 0.0
H298 H 0.58762 0.2949 0.80496 0.0
H299 H 0.58086 0.2515 0.68629 0.0
H300 H 0.71287 0.23055 0.6249 0.0
H301 H 0.66312 0.22886 0.65264 0.0
H302 H 0.67893 0.27654 0.77349 0.0
C303 C 0.56541 0.27126 0.79633 0.0
C304 C 0.60235 0.25745 0.70546 0.0
C305 C 0.53544 0.25943 0.81805 0.0
C306 C 0.7165 0.24761 0.64901 0.0
C307 C 0.68779 0.24698 0.66461 0.0
C308 C 0.65814 0.27197 0.75384 0.0
C309 C 0.56719 0.25179 0.7651 0.0
C310 C 0.6001 0.26064 0.74654 0.0
C311 C 0.69083 0.26893 0.69562 0.0
C312 C 0.66012 0.2677 0.71286 0.0
H313 H 0.48677 0.18464 0.76949 0.0
H314 H 0.53847 0.20563 0.73093 0.0
H315 H 0.62742 0.27065 0.80227 0.0
H316 H 0.77645 0.30925 0.70839 0.0
H317 H 0.72691 0.30898 0.73422 0.0
C318 C 0.73007 0.46142 0.35747 0.0
C319 C 0.75334 0.48232 0.32848 0.0
C320 C 0.73249 0.43475 0.37471 0.0
C321 C 0.77277 0.3814 0.36183 0.0
H322 H 0.75423 0.3641 0.47397 0.0
C323 C 0.82362 0.31262 0.45949 0.0
C324 C 0.80282 0.29047 0.48918 0.0
C325 C 0.8125 0.33053 0.43614 0.0
C326 C 0.75889 0.36818 0.44248 0.0
H327 H 0.79758 0.49075 0.29522 0.0
H328 H 0.80253 0.44533 0.32634 0.0
H329 H 0.74619 0.40745 0.44156 0.0
H330 H 0.75361 0.26869 0.51698 0.0
H331 H 0.73411 0.30068 0.47628 0.0
H332 H 0.78693 0.34301 0.36343 0.0
C333 C 0.78182 0.44912 0.33505 0.0
C334 C 0.75432 0.3931 0.4238 0.0
C335 C 0.77923 0.47565 0.31749 0.0
C336 C 0.76998 0.2854 0.494 0.0
C337 C 0.759 0.30389 0.471 0.0
C338 C 0.77766 0.35671 0.38062 0.0
C339 C 0.75847 0.42827 0.36392 0.0
C340 C 0.76162 0.4004 0.38331 0.0
C341 C 0.78048 0.32716 0.44235 0.0
C342 C 0.77121 0.35015 0.42127 0.0
H343 H 0.70992 0.46559 0.36733 0.0
H344 H 0.71373 0.41906 0.39641 0.0
H345 H 0.77794 0.38569 0.33046 0.0
H346 H 0.84908 0.31698 0.4552 0.0
H347 H 0.82975 0.34842 0.41462 0.0
C348 C 0.56735 0.2832 0.01631 0.0
C349 C 0.5468 0.28407 0.9854 0.0
C350 C 0.59273 0.31316 0.0337 0.0
C351 C 0.61595 0.40159 0.05115 0.0
H352 H 0.70523 0.41506 0.07621 0.0
C353 C 0.71577 0.52614 0.12144 0.0
C354 C 0.73504 0.5241 0.15281 0.0
C355 C 0.69727 0.49847 0.09638 0.0
C356 C 0.68036 0.41161 0.06973 0.0
H357 H 0.53773 0.31787 0.94835 0.0
H358 H 0.58141 0.36991 0.97925 0.0
H359 H 0.66347 0.36325 0.04227 0.0
H360 H 0.75138 0.49228 0.18192 0.0
H361 H 0.71816 0.44319 0.13878 0.0
H362 H 0.63193 0.44902 0.07957 0.0
C363 C 0.57768 0.34586 0.99005 0.0
C364 C 0.65645 0.38194 0.05022 0.0
C365 C 0.55247 0.3159 0.97241 0.0
C366 C 0.73707 0.49455 0.15746 0.0
C367 C 0.71793 0.46645 0.13276 0.0
C368 C 0.63963 0.431 0.07091 0.0
C369 C 0.59806 0.34484 0.02094 0.0
C370 C 0.62396 0.37662 0.04073 0.0
C371 C 0.69679 0.46768 0.10277 0.0
C372 C 0.67223 0.43655 0.08045 0.0
H373 H 0.56359 0.25935 0.0277 0.0
H374 H 0.60765 0.31148 0.05784 0.0
H375 H 0.59096 0.398 0.04495 0.0
H376 H 0.7139 0.54877 0.11731 0.0
H377 H 0.68225 0.50086 0.07289 0.0
C378 C 0.91932 0.22489 0.73364 0.0
C379 C 0.92717 0.24974 0.70427 0.0
C380 C 0.94146 0.23106 0.76562 0.0
C381 C 0.03012 0.2827 0.79718 0.0
H382 H 0.9951 0.27509 0.90326 0.0
C383 C 0.11791 0.35126 0.92934 0.0
C384 C 0.10904 0.33703 0.96734 0.0
C385 C 0.09597 0.33602 0.89723 0.0
C386 C 1.0053 0.27668 0.87398 0.0
H387 H 0.96469 0.30087 0.68631 0.0
H388 H 1.00357 0.31079 0.74093 0.0
H389 H 0.9561 0.25592 0.84682 0.0
H390 H 0.07079 0.2951 1.00138 0.0
H391 H 0.03274 0.26774 0.94503 0.0
H392 H 0.07924 0.30327 0.82392 0.0
C393 C 0.98032 0.28652 0.739 0.0
C394 C 0.98289 0.26578 0.84166 0.0
C395 C 0.95802 0.28065 0.7075 0.0
C396 C 0.07812 0.30672 0.97241 0.0
C397 C 0.05629 0.29118 0.94014 0.0
C398 C 0.05247 0.29312 0.82948 0.0
C399 C 0.97216 0.26194 0.76852 0.0
C400 C 0.99522 0.26945 0.80293 0.0
C401 C 0.06471 0.3059 0.9022 0.0
C402 C 0.04049 0.2911 0.86827 0.0
H403 H 0.8961 0.20062 0.73197 0.0
H404 H 0.93469 0.21165 0.788 0.0
H405 H 0.04018 0.2854 0.76759 0.0
H406 H 0.1413 0.37495 0.92467 0.0
H407 H 0.10309 0.3486 0.86878 0.0
C408 C 0.75992 0.65837 0.41548 0.0
C409 C 0.77009 0.67488 0.37878 0.0
C410 C 0.75246 0.67338 0.44686 0.0
C411 C 0.72889 0.73883 0.46763 0.0
H412 H 0.74435 0.72169 0.57616 0.0
C413 C 0.66142 0.76006 0.59852 0.0
C414 C 0.67791 0.76952 0.63547 0.0
C415 C 0.67621 0.75264 0.56689 0.0
C416 C 0.7403 0.72729 0.54609 0.0
H417 H 0.78147 0.72043 0.34637 0.0
H418 H 0.76948 0.74729 0.40155 0.0
H419 H 0.76529 0.70219 0.52232 0.0
H420 H 0.72335 0.77998 0.668 0.0
H421 H 0.74985 0.76814 0.61243 0.0
H422 H 0.70479 0.76481 0.49143 0.0
C423 C 0.76635 0.72232 0.40588 0.0
C424 C 0.75186 0.71557 0.51509 0.0
C425 C 0.77338 0.70706 0.3743 0.0
C426 C 0.70997 0.77242 0.63988 0.0
C427 C 0.72502 0.76545 0.60808 0.0
C428 C 0.71771 0.75094 0.49864 0.0
C429 C 0.75539 0.70549 0.44246 0.0
C430 C 0.74572 0.72058 0.47543 0.0
C431 C 0.70808 0.75492 0.57131 0.0
C432 C 0.72267 0.74476 0.5383 0.0
H433 H 0.75666 0.6333 0.41956 0.0
H434 H 0.74342 0.65927 0.4742 0.0
H435 H 0.72338 0.74296 0.43754 0.0
H436 H 0.63645 0.75714 0.59447 0.0
H437 H 0.66204 0.744 0.53939 0.0
C438 C 0.34228 0.10459 0.06308 0.0
C439 C 0.3589 0.09691 0.03333 0.0
C440 C 0.32672 0.08229 0.09468 0.0
C441 C 0.29067 0.99335 0.12449 0.0
H442 H 0.31383 0.02857 0.23152 0.0
C443 C 0.2671 0.90635 0.25846 0.0
C444 C 0.25908 0.91493 0.29511 0.0
C445 C 0.27538 0.92821 0.22614 0.0
C446 C 0.30649 0.01832 0.20189 0.0
H447 H 0.37231 0.05967 0.01405 0.0
H448 H 0.34435 0.02055 0.06843 0.0
H449 H 0.33508 0.06754 0.17555 0.0
H450 H 0.25235 0.95257 0.3264 0.0
H451 H 0.26604 0.99054 0.26964 0.0
H452 H 0.26199 0.94419 0.15052 0.0
C453 C 0.34323 0.04375 0.06706 0.0
C454 C 0.31879 0.04069 0.16984 0.0
C455 C 0.35915 0.06617 0.03579 0.0
C456 C 0.25874 0.94549 0.29855 0.0
C457 C 0.26672 0.96726 0.26607 0.0
C458 C 0.27804 0.97102 0.1565 0.0
C459 C 0.32705 0.05166 0.09692 0.0
C460 C 0.31152 0.02834 0.13085 0.0
C461 C 0.27555 0.95908 0.22957 0.0
C462 C 0.28634 0.98313 0.19562 0.0
H463 H 0.34111 0.12774 0.06188 0.0
H464 H 0.31418 0.08886 0.11721 0.0
H465 H 0.2843 0.98323 0.09469 0.0
H466 H 0.26813 0.88323 0.2551 0.0
H467 H 0.28271 0.92133 0.19883 0.0
C468 C 0.409 0.28505 0.93517 0.0
C469 C 0.38997 0.25043 0.94495 0.0
C470 C 0.40176 0.30862 0.95301 0.0
C471 C 0.36301 0.32109 0.04185 0.0
H472 H 0.33267 0.3711 0.97645 0.0
C473 C 0.26315 0.35207 0.09437 0.0
C474 C 0.26392 0.38211 0.08288 0.0
C475 C 0.28715 0.34425 0.08033 0.0
C476 C 0.34182 0.35802 0.99525 0.0
H477 H 0.34947 0.21366 0.9821 0.0
H478 H 0.33763 0.25444 0.01347 0.0
H479 H 0.36003 0.34229 0.94567 0.0
H480 H 0.29118 0.42811 0.04837 0.0
H481 H 0.33349 0.41427 0.02333 0.0
H482 H 0.34392 0.33556 0.09122 0.0
C483 C 0.35778 0.2635 0.99185 0.0
C484 C 0.35747 0.34151 0.97758 0.0
C485 C 0.36443 0.24008 0.97358 0.0
C486 C 0.29014 0.40489 0.05798 0.0
C487 C 0.31413 0.39682 0.0434 0.0
C488 C 0.34767 0.3377 0.05947 0.0
C489 C 0.3761 0.29797 0.98167 0.0
C490 C 0.36693 0.32173 1.00058 0.0
C491 C 0.31262 0.36613 0.05407 0.0
C492 C 0.33551 0.35513 0.03626 0.0
H493 H 0.42881 0.29371 0.91317 0.0
H494 H 0.41623 0.33509 0.94461 0.0
H495 H 0.37045 0.30638 0.06036 0.0
H496 H 0.24328 0.33398 0.1135 0.0
H497 H 0.28475 0.32018 0.08876 0.0
C498 C 0.74108 0.13328 0.62804 0.0
C499 C 0.76703 0.13553 0.60364 0.0
C500 C 0.71761 0.10209 0.64524 0.0
C501 C 0.68296 1.00897 0.63651 0.0
H502 H 0.66938 1.00663 0.74991 0.0
C503 C 0.6388 0.88669 0.72597 0.0
C504 C 0.61601 0.87905 0.75742 0.0
C505 C 0.65299 0.91799 0.70668 0.0
C506 C 0.6724 1.0068 0.71812 0.0
H507 H 0.78777 0.1067 0.5768 0.0
H508 H 0.74696 0.05281 0.60595 0.0
H509 H 0.70027 0.06125 0.71587 0.0
H510 H 0.59064 0.89888 0.79341 0.0
H511 H 0.61544 0.95374 0.7595 0.0
H512 H 0.65575 0.95475 0.63859 0.0
C513 C 0.74454 0.07483 0.61206 0.0
C514 C 0.69009 0.03816 0.69859 0.0
C515 C 0.7681 0.10585 0.59547 0.0
C516 C 0.60807 0.90385 0.76931 0.0
C517 C 0.62238 0.93536 0.74994 0.0
C518 C 0.66527 0.97774 0.65593 0.0
C519 C 0.71932 0.07255 0.63772 0.0
C520 C 0.69635 0.0396 0.65768 0.0
C521 C 0.6449 0.94276 0.71817 0.0
C522 C 0.66051 0.97617 0.69717 0.0
H523 H 0.73982 0.1558 0.63515 0.0
H524 H 0.69837 0.10115 0.66472 0.0
H525 H 0.68675 1.00912 0.60486 0.0
H526 H 0.64606 0.86858 0.71633 0.0
H527 H 0.67081 0.92296 0.68303 0.0
C528 C 0.11158 0.7325 0.44307 0.0
C529 C 0.14242 0.74778 0.42234 0.0
C530 C 0.08045 0.71476 0.42278 0.0
C531 C 0.04219 0.7077 0.32302 0.0
H532 H 0.9658 0.62691 0.3665 0.0
C533 C 0.9159 0.63184 0.2354 0.0
C534 C 0.8856 0.61996 0.25672 0.0
C535 C 0.94726 0.64523 0.25518 0.0
C536 C 0.98676 0.64962 0.35405 0.0
H537 H 0.1645 0.75487 0.36397 0.0
H538 H 0.11054 0.72389 0.3288 0.0
H539 H 0.02008 0.65401 0.40182 0.0
H540 H 0.86473 0.61195 0.31586 0.0
H541 H 0.91912 0.63555 0.35015 0.0
H542 H 1.00888 0.70356 0.27548 0.0
C543 C 0.11026 0.72622 0.36067 0.0
C544 C 0.01796 0.66521 0.37437 0.0
C545 C 0.14132 0.74393 0.38093 0.0
C546 C 0.88745 0.62101 0.29836 0.0
C547 C 0.91876 0.63435 0.31812 0.0
C548 C 1.01102 0.69214 0.30273 0.0
C549 C 0.07932 0.71178 0.3812 0.0
C550 C 0.04613 0.69455 0.35922 0.0
C551 C 0.94919 0.64704 0.29684 0.0
C552 C 0.98277 0.66293 0.31798 0.0
H553 H 0.11138 0.73499 0.47493 0.0
H554 H 0.05723 0.70428 0.43965 0.0
H555 H 0.06302 0.73058 0.31069 0.0
H556 H 0.91553 0.63138 0.20333 0.0
H557 H 0.97003 0.65423 0.23773 0.0
C558 C 0.92222 0.27851 0.44141 0.0
C559 C 0.90214 0.2433 0.44728 0.0
C560 C 0.9482 0.29159 0.4134 0.0
C561 C 0.97936 0.26817 0.32438 0.0
H562 H 0.06448 0.34872 0.35135 0.0
C563 C 0.08761 0.33831 0.21064 0.0
C564 C 0.12109 0.35082 0.22431 0.0
C565 C 0.06044 0.32502 0.23715 0.0
C566 C 0.04097 0.32607 0.34341 0.0
H567 H 0.89381 0.19433 0.42817 0.0
H568 H 0.93923 0.21709 0.37945 0.0
H569 H 0.01825 0.32561 0.39878 0.0
H570 H 0.15198 0.3592 0.277 0.0
H571 H 0.10478 0.33547 0.32284 0.0
H572 H 1.00245 0.26823 0.26932 0.0
C573 C 0.93456 0.2346 0.39612 0.0
C574 C 1.01427 0.31304 0.37045 0.0
C575 C 0.90852 0.22152 0.42411 0.0
C576 C 0.12662 0.34951 0.26518 0.0
C577 C 0.09951 0.33627 0.29164 0.0
C578 C 1.00609 0.28123 0.29729 0.0
C579 C 0.95485 0.26983 0.39052 0.0
C580 C 0.98312 0.28387 0.36137 0.0
C581 C 0.06606 0.32396 0.27804 0.0
C582 C 0.03731 0.31028 0.30651 0.0
H583 H 0.91764 0.29607 0.45803 0.0
H584 H 0.96287 0.31881 0.40938 0.0
H585 H 0.95563 0.24588 0.31619 0.0
H586 H 0.08234 0.33861 0.17938 0.0
H587 H 0.03506 0.31604 0.22564 0.0
C588 C 0.65943 0.75869 0.91797 0.0
C589 C 0.68037 0.77963 0.88748 0.0
C590 C 0.67249 0.74661 0.94753 0.0
C591 C 0.73948 0.72607 0.96737 0.0
H592 H 0.7237 0.73492 0.07826 0.0
C593 C 0.76916 0.65861 0.09538 0.0
C594 C 0.78721 0.67906 0.12794 0.0
C595 C 0.75664 0.67099 0.06555 0.0
C596 C 0.72835 0.73232 0.04742 0.0
H597 H 0.73127 0.80375 0.86375 0.0
H598 H 0.75394 0.78217 0.91496 0.0
H599 H 0.70045 0.75611 0.02719 0.0
H600 H 0.80588 0.72841 0.15492 0.0
H601 H 0.78354 0.74986 0.10316 0.0
H602 H 0.76698 0.70186 0.98758 0.0
C603 C 0.72749 0.77539 0.91617 0.0
C604 C 0.71486 0.74424 0.0182 0.0
C605 C 0.7146 0.78798 0.88705 0.0
C606 C 0.79241 0.71218 0.13001 0.0
C607 C 0.77936 0.72434 0.10058 0.0
C608 C 0.75244 0.71358 0.99656 0.0
C609 C 0.70662 0.75465 0.94681 0.0
C610 C 0.72044 0.74144 0.97785 0.0
C611 C 0.76133 0.7039 0.06801 0.0
C612 C 0.7472 0.71676 0.03692 0.0
H613 H 0.63302 0.75197 0.91915 0.0
H614 H 0.65575 0.73054 0.97065 0.0
H615 H 0.74402 0.72337 0.93651 0.0
H616 H 0.76487 0.63305 0.09293 0.0
H617 H 0.74271 0.65459 0.04091 0.0
C618 C 0.37603 0.10507 0.76244 0.0
C619 C 0.35531 0.11535 0.78149 0.0
C620 C 0.36228 0.07916 0.73404 0.0
C621 C 0.28604 1.00268 0.70462 0.0
H622 H 0.32086 0.0212 0.59743 0.0
C623 C 0.25631 0.90057 0.58249 0.0
C624 C 0.2423 0.90541 0.54753 0.0
C625 C 0.26933 0.92555 0.61203 0.0
C626 C 0.31099 0.01573 0.62728 0.0
H627 H 0.30408 0.10631 0.78653 0.0
H628 H 0.27971 0.06003 0.73777 0.0
H629 H 0.34589 0.06613 0.64777 0.0
H630 H 0.23136 0.94024 0.51573 0.0
H631 H 0.25516 0.98446 0.5669 0.0
H632 H 0.25172 0.95201 0.68434 0.0
C633 C 0.30663 0.07242 0.74443 0.0
C634 C 0.32535 0.0413 0.65602 0.0
C635 C 0.32054 0.0989 0.77207 0.0
C636 C 0.24167 0.93575 0.54259 0.0
C637 C 0.25545 0.96106 0.57166 0.0
C638 C 0.27224 0.97684 0.67611 0.0
C639 C 0.32742 0.06249 0.72495 0.0
C640 C 0.31282 0.03508 0.69485 0.0
C641 C 0.26937 0.95618 0.60664 0.0
C642 C 0.28441 0.98324 0.63712 0.0
H643 H 0.40295 0.11756 0.76898 0.0
H644 H 0.3788 0.0719 0.71942 0.0
H645 H 0.27603 0.99728 0.73441 0.0
H646 H 0.25704 0.87739 0.58695 0.0
H647 H 0.28003 0.92127 0.63872 0.0
loop_
_geom_bond_atom_site_label_1
_geom_bond_atom_site_label_2
_geom_bond_distance
_geom_bond_site_symmetry_2
_ccdc_geom_bond_type
C0 C1 1.351 1_554 S
C0 N3 1.368 . S
C0 H5 0.931 . S
C1 C0 1.351 1_556 S
C1 N2 1.373 . S
C1 H29 0.930 . S
N2 C1 1.373 . S
N2 C4 1.340 1_556 S
N3 C0 1.368 . S
N3 C4 1.321 . S
N3 Co6 2.135 . S
C4 N2 1.340 1_554 S
C4 N3 1.321 . S
C4 H28 0.930 . S
H5 C0 0.931 . S
Co6 N3 2.135 . S
Co6 N9 2.121 . S
Co6 O14 2.055 . S
Co6 O17 2.039 . S
Co6 N20 2.140 . S
C7 O8 1.227 . S
C7 O17 1.265 . S
O8 C7 1.227 . S
N9 Co6 2.121 . S
N9 C11 1.375 . S
N9 C12 1.313 . S
C10 C11 1.338 . S
C10 N13 1.377 . S
C10 H30 0.930 . S
C11 N9 1.375 . S
C11 C10 1.338 . S
C11 H15 0.931 . S
C12 N9 1.313 . S
C12 N13 1.344 . S
C12 H16 0.930 . S
N13 C10 1.377 . S
N13 C12 1.344 . S
O14 Co6 2.055 . S
O14 C18 1.253 . S
H15 C11 0.931 . S
H16 C12 0.930 . S
O17 Co6 2.039 . S
O17 C7 1.265 . S
C18 O14 1.253 . S
C18 O19 1.227 . S
O19 C18 1.227 . S
N20 Co6 2.140 . S
N20 C23 1.346 1_554 S
N20 C24 1.345 . S
C21 C22 1.387 . S
C21 C25 1.391 1_556 S
C22 C21 1.387 . S
C22 C23 1.369 . S
C22 H31 0.929 . S
C23 N20 1.346 1_556 S
C23 C22 1.369 . S
C23 H26 0.928 . S
C24 N20 1.345 . S
C24 C25 1.371 . S
C24 H27 0.931 . S
C25 C21 1.391 1_554 S
C25 C24 1.371 . S
C25 H32 0.930 . S
H26 C23 0.928 . S
H27 C24 0.931 . S
H28 C4 0.930 . S
H29 C1 0.930 . S
H30 C10 0.930 . S
H31 C22 0.929 . S
H32 C25 0.930 . S
C33 C34 1.351 . S
C33 N36 1.368 . S
C33 H38 0.931 . S
C34 C33 1.351 . S
C34 N35 1.373 . S
C34 H62 0.930 . S
N35 C34 1.373 . S
N35 C37 1.340 . S
N36 C33 1.368 . S
N36 C37 1.321 . S
N36 Co39 2.135 . S
C37 N35 1.340 . S
C37 N36 1.321 . S
C37 H61 0.930 . S
H38 C33 0.931 . S
Co39 N36 2.135 . S
Co39 N42 2.121 . S
Co39 O47 2.055 . S
Co39 O50 2.039 . S
Co39 N53 2.140 . S
C40 O41 1.227 . S
C40 O50 1.265 . S
O41 C40 1.227 . S
N42 Co39 2.121 . S
N42 C44 1.375 . S
N42 C45 1.313 . S
C43 C44 1.338 . S
C43 N46 1.377 . S
C43 H63 0.930 . S
C44 N42 1.375 . S
C44 C43 1.338 . S
C44 H48 0.931 . S
C45 N42 1.313 . S
C45 N46 1.344 . S
C45 H49 0.930 . S
N46 C43 1.377 . S
N46 C45 1.344 . S
O47 Co39 2.055 . S
O47 C51 1.253 . S
H48 C44 0.931 . S
H49 C45 0.930 . S
O50 Co39 2.039 . S
O50 C40 1.265 . S
C51 O47 1.253 . S
C51 O52 1.227 . S
O52 C51 1.227 . S
N53 Co39 2.140 . S
N53 C56 1.346 . S
N53 C57 1.345 . S
C54 C55 1.387 . S
C54 C58 1.391 . S
C55 C54 1.387 . S
C55 C56 1.369 . S
C55 H64 0.929 . S
C56 N53 1.346 . S
C56 C55 1.369 . S
C56 H59 0.928 . S
C57 N53 1.345 . S
C57 C58 1.371 . S
C57 H60 0.931 . S
C58 C54 1.391 . S
C58 C57 1.371 . S
C58 H65 0.930 . S
H59 C56 0.928 . S
H60 C57 0.931 . S
H61 C37 0.930 . S
H62 C34 0.930 . S
H63 C43 0.930 . S
H64 C55 0.929 . S
H65 C58 0.930 . S
C66 C67 1.351 . S
C66 N69 1.368 . S
C66 H71 0.931 . S
C67 C66 1.351 . S
C67 N68 1.373 . S
C67 H95 0.930 . S
N68 C67 1.373 . S
N68 C70 1.340 . S
N69 C66 1.368 . S
N69 C70 1.321 . S
N69 Co72 2.135 . S
C70 N68 1.340 . S
C70 N69 1.321 . S
C70 H94 0.930 . S
H71 C66 0.931 . S
Co72 N69 2.135 . S
Co72 N75 2.121 . S
Co72 O80 2.055 . S
Co72 O83 2.039 . S
Co72 N86 2.140 . S
C73 O74 1.227 . S
C73 O83 1.265 . S
O74 C73 1.227 . S
N75 Co72 2.121 . S
N75 C77 1.375 . S
N75 C78 1.313 . S
C76 C77 1.338 . S
C76 N79 1.377 . S
C76 H96 0.930 . S
C77 N75 1.375 . S
C77 C76 1.338 . S
C77 H81 0.931 . S
C78 N75 1.313 . S
C78 N79 1.344 . S
C78 H82 0.930 . S
N79 C76 1.377 . S
N79 C78 1.344 . S
O80 Co72 2.055 . S
O80 C84 1.253 . S
H81 C77 0.931 . S
H82 C78 0.930 . S
O83 Co72 2.039 . S
O83 C73 1.265 . S
C84 O80 1.253 . S
C84 O85 1.227 . S
O85 C84 1.227 . S
N86 Co72 2.140 . S
N86 C89 1.346 . S
N86 C90 1.345 . S
C87 C88 1.387 . S
C87 C91 1.391 . S
C88 C87 1.387 . S
C88 C89 1.369 . S
C88 H97 0.929 . S
C89 N86 1.346 . S
C89 C88 1.369 . S
C89 H92 0.928 . S
C90 N86 1.345 . S
C90 C91 1.371 . S
C90 H93 0.931 . S
C91 C87 1.391 . S
C91 C90 1.371 . S
C91 H98 0.930 . S
H92 C89 0.928 . S
H93 C90 0.931 . S
H94 C70 0.930 . S
H95 C67 0.930 . S
H96 C76 0.930 . S
H97 C88 0.929 . S
H98 C91 0.930 . S
C99 C100 1.351 1_556 S
C99 N102 1.368 . S
C99 H104 0.931 . S
C100 C99 1.351 1_554 S
C100 N101 1.373 . S
C100 H128 0.930 . S
N101 C100 1.373 . S
N101 C103 1.340 1_554 S
N102 C99 1.368 . S
N102 C103 1.321 . S
N102 Co105 2.135 . S
C103 N101 1.340 1_556 S
C103 N102 1.321 . S
C103 H127 0.930 . S
H104 C99 0.931 . S
Co105 N102 2.135 . S
Co105 N108 2.121 . S
Co105 O113 2.055 . S
Co105 O116 2.039 . S
Co105 N119 2.140 . S
C106 O107 1.227 . S
C106 O116 1.265 . S
O107 C106 1.227 . S
N108 Co105 2.121 . S
N108 C110 1.375 . S
N108 C111 1.313 . S
C109 C110 1.338 . S
C109 N112 1.377 . S
C109 H129 0.930 . S
C110 N108 1.375 . S
C110 C109 1.338 . S
C110 H114 0.931 . S
C111 N108 1.313 . S
C111 N112 1.344 . S
C111 H115 0.930 . S
N112 C109 1.377 . S
N112 C111 1.344 . S
O113 Co105 2.055 . S
O113 C117 1.253 . S
H114 C110 0.931 . S
H115 C111 0.930 . S
O116 Co105 2.039 . S
O116 C106 1.265 . S
C117 O113 1.253 . S
C117 O118 1.227 . S
O118 C117 1.227 . S
N119 Co105 2.140 . S
N119 C122 1.346 1_556 S
N119 C123 1.345 . S
C120 C121 1.387 . S
C120 C124 1.391 1_554 S
C121 C120 1.387 . S
C121 C122 1.369 . S
C121 H130 0.929 . S
C122 N119 1.346 1_554 S
C122 C121 1.369 . S
C122 H125 0.928 . S
C123 N119 1.345 . S
C123 C124 1.371 . S
C123 H126 0.931 . S
C124 C120 1.391 1_556 S
C124 C123 1.371 . S
C124 H131 0.930 . S
H125 C122 0.928 . S
H126 C123 0.931 . S
H127 C103 0.930 . S
H128 C100 0.930 . S
H129 C109 0.930 . S
H130 C121 0.929 . S
H131 C124 0.930 . S
C132 C133 1.351 . S
C132 N135 1.368 . S
C132 H137 0.931 . S
C133 C132 1.351 . S
C133 N134 1.373 . S
C133 H161 0.930 . S
N134 C133 1.373 . S
N134 C136 1.340 . S
N135 C132 1.368 . S
N135 C136 1.321 . S
N135 Co138 2.135 . S
C136 N134 1.340 . S
C136 N135 1.321 . S
C136 H160 0.930 . S
H137 C132 0.931 . S
Co138 N135 2.135 . S
Co138 N141 2.121 . S
Co138 O146 2.055 . S
Co138 O149 2.039 . S
Co138 N152 2.140 . S
C139 O140 1.227 . S
C139 O149 1.265 . S
O140 C139 1.227 . S
N141 Co138 2.121 . S
N141 C143 1.375 . S
N141 C144 1.313 . S
C142 C143 1.338 . S
C142 N145 1.377 . S
C142 H162 0.930 . S
C143 N141 1.375 . S
C143 C142 1.338 . S
C143 H147 0.931 . S
C144 N141 1.313 . S
C144 N145 1.344 . S
C144 H148 0.930 . S
N145 C142 1.377 . S
N145 C144 1.344 . S
O146 Co138 2.055 . S
O146 C150 1.253 . S
H147 C143 0.931 . S
H148 C144 0.930 . S
O149 Co138 2.039 . S
O149 C139 1.265 . S
C150 O146 1.253 . S
C150 O151 1.227 . S
O151 C150 1.227 . S
N152 Co138 2.140 . S
N152 C155 1.346 . S
N152 C156 1.345 . S
C153 C154 1.387 . S
C153 C157 1.391 . S
C154 C153 1.387 . S
C154 C155 1.369 . S
C154 H163 0.929 . S
C155 N152 1.346 . S
C155 C154 1.369 . S
C155 H158 0.928 . S
C156 N152 1.345 . S
C156 C157 1.371 . S
C156 H159 0.931 . S
C157 C153 1.391 . S
C157 C156 1.371 . S
C157 H164 0.930 . S
H158 C155 0.928 . S
H159 C156 0.931 . S
H160 C136 0.930 . S
H161 C133 0.930 . S
H162 C142 0.930 . S
H163 C154 0.929 . S
H164 C157 0.930 . S
C165 C166 1.351 . S
C165 N168 1.368 . S
C165 H170 0.931 . S
C166 C165 1.351 . S
C166 N167 1.373 . S
C166 H194 0.930 . S
N167 C166 1.373 . S
N167 C169 1.340 . S
N168 C165 1.368 . S
N168 C169 1.321 . S
N168 Co171 2.135 . S
C169 N167 1.340 . S
C169 N168 1.321 . S
C169 H193 0.930 . S
H170 C165 0.931 . S
Co171 N168 2.135 . S
Co171 N174 2.121 . S
Co171 O179 2.055 . S
Co171 O182 2.039 . S
Co171 N185 2.140 . S
C172 O173 1.227 . S
C172 O182 1.265 . S
O173 C172 1.227 . S
N174 Co171 2.121 . S
N174 C176 1.375 . S
N174 C177 1.313 . S
C175 C176 1.338 . S
C175 N178 1.377 . S
C175 H195 0.930 . S
C176 N174 1.375 . S
C176 C175 1.338 . S
C176 H180 0.931 . S
C177 N174 1.313 . S
C177 N178 1.344 . S
C177 H181 0.930 . S
N178 C175 1.377 . S
N178 C177 1.344 . S
O179 Co171 2.055 . S
O179 C183 1.253 . S
H180 C176 0.931 . S
H181 C177 0.930 . S
O182 Co171 2.039 . S
O182 C172 1.265 . S
C183 O179 1.253 . S
C183 O184 1.227 . S
O184 C183 1.227 . S
N185 Co171 2.140 . S
N185 C188 1.346 . S
N185 C189 1.345 . S
C186 C187 1.387 . S
C186 C190 1.391 . S
C187 C186 1.387 . S
C187 C188 1.369 . S
C187 H196 0.929 . S
C188 N185 1.346 . S
C188 C187 1.369 . S
C188 H191 0.928 . S
C189 N185 1.345 . S
C189 C190 1.371 . S
C189 H192 0.931 . S
C190 C186 1.391 . S
C190 C189 1.371 . S
C190 H197 0.930 . S
H191 C188 0.928 . S
H192 C189 0.931 . S
H193 C169 0.930 . S
H194 C166 0.930 . S
H195 C175 0.930 . S
H196 C187 0.929 . S
H197 C190 0.930 . S
C198 C199 1.349 . S
C198 C200 1.327 . S
C198 H223 0.950 . S
C199 C198 1.349 . S
C199 C215 1.349 . S
C200 C198 1.327 . S
C200 C219 1.429 . S
C200 H224 0.950 . S
C201 C218 1.574 . S
C201 C220 1.368 . S
C201 H225 0.949 . S
H202 C206 0.949 . S
C203 C204 1.349 . S
C203 C205 1.327 . S
C203 H226 0.950 . S
C204 C203 1.349 . S
C204 C216 1.349 . S
C205 C203 1.327 . S
C205 C221 1.429 . S
C205 H227 0.950 . S
C206 H202 0.949 . S
C206 C214 1.574 . S
C206 C222 1.368 . S
H207 C215 0.950 . S
H208 C213 0.950 . S
H209 C214 0.949 . S
H210 C216 0.950 . S
H211 C217 0.950 . S
H212 C218 0.949 . S
C213 H208 0.950 . S
C213 C215 1.327 . S
C213 C219 1.429 . S
C214 C206 1.574 . S
C214 H209 0.949 . S
C214 C220 1.368 . S
C215 C199 1.349 . S
C215 H207 0.950 . S
C215 C213 1.327 . S
C216 C204 1.349 . S
C216 H210 0.950 . S
C216 C217 1.327 . S
C217 H211 0.950 . S
C217 C216 1.327 . S
C217 C221 1.429 . S
C218 C201 1.574 . S
C218 H212 0.949 . S
C218 C222 1.368 . S
C219 C200 1.429 . S
C219 C213 1.429 . S
C219 C220 1.523 . S
C220 C201 1.368 . S
C220 C214 1.368 . S
C220 C219 1.523 . S
C221 C205 1.429 . S
C221 C217 1.429 . S
C221 C222 1.523 . S
C222 C206 1.368 . S
C222 C218 1.368 . S
C222 C221 1.523 . S
H223 C198 0.950 . S
H224 C200 0.950 . S
H225 C201 0.949 . S
H226 C203 0.950 . S
H227 C205 0.950 . S
C228 C229 1.349 . S
C228 C230 1.327 . S
C228 H253 0.950 . S
C229 C228 1.349 . S
C229 C245 1.349 . S
C230 C228 1.327 . S
C230 C249 1.429 . S
C230 H254 0.950 . S
C231 C248 1.574 . S
C231 C250 1.368 . S
C231 H255 0.949 . S
H232 C236 0.949 . S
C233 C234 1.349 . S
C233 C235 1.327 . S
C233 H256 0.950 . S
C234 C233 1.349 . S
C234 C246 1.349 . S
C235 C233 1.327 . S
C235 C251 1.429 . S
C235 H257 0.950 . S
C236 H232 0.949 . S
C236 C244 1.574 . S
C236 C252 1.368 . S
H237 C245 0.950 . S
H238 C243 0.950 . S
H239 C244 0.949 . S
H240 C246 0.950 . S
H241 C247 0.950 . S
H242 C248 0.949 . S
C243 H238 0.950 . S
C243 C245 1.327 . S
C243 C249 1.429 . S
C244 C236 1.574 . S
C244 H239 0.949 . S
C244 C250 1.368 . S
C245 C229 1.349 . S
C245 H237 0.950 . S
C245 C243 1.327 . S
C246 C234 1.349 . S
C246 H240 0.950 . S
C246 C247 1.327 . S
C247 H241 0.950 . S
C247 C246 1.327 . S
C247 C251 1.429 . S
C248 C231 1.574 . S
C248 H242 0.949 . S
C248 C252 1.368 . S
C249 C230 1.429 . S
C249 C243 1.429 . S
C249 C250 1.523 . S
C250 C231 1.368 . S
C250 C244 1.368 . S
C250 C249 1.523 . S
C251 C235 1.429 . S
C251 C247 1.429 . S
C251 C252 1.523 . S
C252 C236 1.368 . S
C252 C248 1.368 . S
C252 C251 1.523 . S
H253 C228 0.950 . S
H254 C230 0.950 . S
H255 C231 0.949 . S
H256 C233 0.950 . S
H257 C235 0.950 . S
C258 C259 1.349 . S
C258 C260 1.327 . S
C258 H283 0.950 . S
C259 C258 1.349 . S
C259 C275 1.349 . S
C260 C258 1.327 . S
C260 C279 1.429 . S
C260 H284 0.950 . S
C261 C278 1.574 . S
C261 C280 1.368 . S
C261 H285 0.949 . S
H262 C266 0.949 . S
C263 C264 1.349 . S
C263 C265 1.327 . S
C263 H286 0.950 . S
C264 C263 1.349 . S
C264 C276 1.349 . S
C265 C263 1.327 . S
C265 C281 1.429 . S
C265 H287 0.950 . S
C266 H262 0.949 . S
C266 C274 1.574 . S
C266 C282 1.368 . S
H267 C275 0.950 . S
H268 C273 0.950 . S
H269 C274 0.949 . S
H270 C276 0.950 . S
H271 C277 0.950 . S
H272 C278 0.949 . S
C273 H268 0.950 . S
C273 C275 1.327 . S
C273 C279 1.429 . S
C274 C266 1.574 . S
C274 H269 0.949 . S
C274 C280 1.368 . S
C275 C259 1.349 . S
C275 H267 0.950 . S
C275 C273 1.327 . S
C276 C264 1.349 . S
C276 H270 0.950 . S
C276 C277 1.327 . S
C277 H271 0.950 . S
C277 C276 1.327 . S
C277 C281 1.429 . S
C278 C261 1.574 . S
C278 H272 0.949 . S
C278 C282 1.368 . S
C279 C260 1.429 . S
C279 C273 1.429 . S
C279 C280 1.523 . S
C280 C261 1.368 . S
C280 C274 1.368 . S
C280 C279 1.523 . S
C281 C265 1.429 . S
C281 C277 1.429 . S
C281 C282 1.523 . S
C282 C266 1.368 . S
C282 C278 1.368 . S
C282 C281 1.523 . S
H283 C258 0.950 . S
H284 C260 0.950 . S
H285 C261 0.949 . S
H286 C263 0.950 . S
H287 C265 0.950 . S
C288 C289 1.349 . S
C288 C290 1.327 . S
C288 H313 0.950 . S
C289 C288 1.349 . S
C289 C305 1.349 . S
C290 C288 1.327 . S
C290 C309 1.429 . S
C290 H314 0.950 . S
C291 C308 1.574 . S
C291 C310 1.368 . S
C291 H315 0.949 . S
H292 C296 0.949 . S
C293 C294 1.349 . S
C293 C295 1.327 . S
C293 H316 0.950 . S
C294 C293 1.349 . S
C294 C306 1.349 . S
C295 C293 1.327 . S
C295 C311 1.429 . S
C295 H317 0.950 . S
C296 H292 0.949 . S
C296 C304 1.574 . S
C296 C312 1.368 . S
H297 C305 0.950 . S
H298 C303 0.950 . S
H299 C304 0.949 . S
H300 C306 0.950 . S
H301 C307 0.950 . S
H302 C308 0.949 . S
C303 H298 0.950 . S
C303 C305 1.327 . S
C303 C309 1.429 . S
C304 C296 1.574 . S
C304 H299 0.949 . S
C304 C310 1.368 . S
C305 C289 1.349 . S
C305 H297 0.950 . S
C305 C303 1.327 . S
C306 C294 1.349 . S
C306 H300 0.950 . S
C306 C307 1.327 . S
C307 H301 0.950 . S
C307 C306 1.327 . S
C307 C311 1.429 . S
C308 C291 1.574 . S
C308 H302 0.949 . S
C308 C312 1.368 . S
C309 C290 1.429 . S
C309 C303 1.429 . S
C309 C310 1.523 . S
C310 C291 1.368 . S
C310 C304 1.368 . S
C310 C309 1.523 . S
C311 C295 1.429 . S
C311 C307 1.429 . S
C311 C312 1.523 . S
C312 C296 1.368 . S
C312 C308 1.368 . S
C312 C311 1.523 . S
H313 C288 0.950 . S
H314 C290 0.950 . S
H315 C291 0.949 . S
H316 C293 0.950 . S
H317 C295 0.950 . S
C318 C319 1.349 . S
C318 C320 1.327 . S
C318 H343 0.950 . S
C319 C318 1.349 . S
C319 C335 1.349 . S
C320 C318 1.327 . S
C320 C339 1.429 . S
C320 H344 0.950 . S
C321 C338 1.574 . S
C321 C340 1.368 . S
C321 H345 0.949 . S
H322 C326 0.949 . S
C323 C324 1.349 . S
C323 C325 1.327 . S
C323 H346 0.950 . S
C324 C323 1.349 . S
C324 C336 1.349 . S
C325 C323 1.327 . S
C325 C341 1.429 . S
C325 H347 0.950 . S
C326 H322 0.949 . S
C326 C334 1.574 . S
C326 C342 1.368 . S
H327 C335 0.950 . S
H328 C333 0.950 . S
H329 C334 0.949 . S
H330 C336 0.950 . S
H331 C337 0.950 . S
H332 C338 0.949 . S
C333 H328 0.950 . S
C333 C335 1.327 . S
C333 C339 1.429 . S
C334 C326 1.574 . S
C334 H329 0.949 . S
C334 C340 1.368 . S
C335 C319 1.349 . S
C335 H327 0.950 . S
C335 C333 1.327 . S
C336 C324 1.349 . S
C336 H330 0.950 . S
C336 C337 1.327 . S
C337 H331 0.950 . S
C337 C336 1.327 . S
C337 C341 1.429 . S
C338 C321 1.574 . S
C338 H332 0.949 . S
C338 C342 1.368 . S
C339 C320 1.429 . S
C339 C333 1.429 . S
C339 C340 1.523 . S
C340 C321 1.368 . S
C340 C334 1.368 . S
C340 C339 1.523 . S
C341 C325 1.429 . S
C341 C337 1.429 . S
C341 C342 1.523 . S
C342 C326 1.368 . S
C342 C338 1.368 . S
C342 C341 1.523 . S
H343 C318 0.950 . S
H344 C320 0.950 . S
H345 C321 0.949 . S
H346 C323 0.950 . S
H347 C325 0.950 . S
C348 C349 1.349 . S
C348 C350 1.327 . S
C348 H373 0.950 . S
C349 C348 1.349 . S
C349 C365 1.349 . S
C350 C348 1.327 . S
C350 C369 1.429 . S
C350 H374 0.950 . S
C351 C368 1.574 . S
C351 C370 1.368 . S
C351 H375 0.949 . S
H352 C356 0.949 . S
C353 C354 1.349 . S
C353 C355 1.327 . S
C353 H376 0.950 . S
C354 C353 1.349 . S
C354 C366 1.349 . S
C355 C353 1.327 . S
C355 C371 1.429 . S
C355 H377 0.950 . S
C356 H352 0.949 . S
C356 C364 1.574 . S
C356 C372 1.368 . S
H357 C365 0.950 . S
H358 C363 0.950 . S
H359 C364 0.949 . S
H360 C366 0.950 . S
H361 C367 0.950 . S
H362 C368 0.949 . S
C363 H358 0.950 . S
C363 C365 1.327 . S
C363 C369 1.429 . S
C364 C356 1.574 . S
C364 H359 0.949 . S
C364 C370 1.368 . S
C365 C349 1.349 . S
C365 H357 0.950 . S
C365 C363 1.327 . S
C366 C354 1.349 . S
C366 H360 0.950 . S
C366 C367 1.327 . S
C367 H361 0.950 . S
C367 C366 1.327 . S
C367 C371 1.429 . S
C368 C351 1.574 . S
C368 H362 0.949 . S
C368 C372 1.368 . S
C369 C350 1.429 . S
C369 C363 1.429 . S
C369 C370 1.523 . S
C370 C351 1.368 . S
C370 C364 1.368 . S
C370 C369 1.523 . S
C371 C355 1.429 . S
C371 C367 1.429 . S
C371 C372 1.523 . S
C372 C356 1.368 . S
C372 C368 1.368 . S
C372 C371 1.523 . S
H373 C348 0.950 . S
H374 C350 0.950 . S
H375 C351 0.949 . S
H376 C353 0.950 . S
H377 C355 0.950 . S
C378 C379 1.349 . S
C378 C380 1.327 . S
C378 H403 0.950 . S
C379 C378 1.349 . S
C379 C395 1.349 . S
C380 C378 1.327 . S
C380 C399 1.429 . S
C380 H404 0.950 . S
C381 C398 1.574 . S
C381 C400 1.368 1_455 S
C381 H405 0.949 . S
H382 C386 0.949 . S
C383 C384 1.349 . S
C383 C385 1.327 . S
C383 H406 0.950 . S
C384 C383 1.349 . S
C384 C396 1.349 . S
C385 C383 1.327 . S
C385 C401 1.429 . S
C385 H407 0.950 . S
C386 H382 0.949 . S
C386 C394 1.574 . S
C386 C402 1.368 1_655 S
H387 C395 0.950 . S
H388 C393 0.950 . S
H389 C394 0.949 . S
H390 C396 0.950 . S
H391 C397 0.950 . S
H392 C398 0.949 . S
C393 H388 0.950 . S
C393 C395 1.327 . S
C393 C399 1.429 . S
C394 C386 1.574 . S
C394 H389 0.949 . S
C394 C400 1.368 . S
C395 C379 1.349 . S
C395 H387 0.950 . S
C395 C393 1.327 . S
C396 C384 1.349 . S
C396 H390 0.950 . S
C396 C397 1.327 . S
C397 H391 0.950 . S
C397 C396 1.327 . S
C397 C401 1.429 . S
C398 C381 1.574 . S
C398 H392 0.949 . S
C398 C402 1.368 . S
C399 C380 1.429 . S
C399 C393 1.429 . S
C399 C400 1.523 . S
C400 C381 1.368 1_655 S
C400 C394 1.368 . S
C400 C399 1.523 . S
C401 C385 1.429 . S
C401 C397 1.429 . S
C401 C402 1.523 . S
C402 C386 1.368 1_455 S
C402 C398 1.368 . S
C402 C401 1.523 . S
H403 C378 0.950 . S
H404 C380 0.950 . S
H405 C381 0.949 . S
H406 C383 0.950 . S
H407 C385 0.950 . S
C408 C409 1.349 . S
C408 C410 1.327 . S
C408 H433 0.950 . S
C409 C408 1.349 . S
C409 C425 1.349 . S
C410 C408 1.327 . S
C410 C429 1.429 . S
C410 H434 0.950 . S
C411 C428 1.574 . S
C411 C430 1.368 . S
C411 H435 0.949 . S
H412 C416 0.949 . S
C413 C414 1.349 . S
C413 C415 1.327 . S
C413 H436 0.950 . S
C414 C413 1.349 . S
C414 C426 1.349 . S
C415 C413 1.327 . S
C415 C431 1.429 . S
C415 H437 0.950 . S
C416 H412 0.949 . S
C416 C424 1.574 . S
C416 C432 1.368 . S
H417 C425 0.950 . S
H418 C423 0.950 . S
H419 C424 0.949 . S
H420 C426 0.950 . S
H421 C427 0.950 . S
H422 C428 0.949 . S
C423 H418 0.950 . S
C423 C425 1.327 . S
C423 C429 1.429 . S
C424 C416 1.574 . S
C424 H419 0.949 . S
C424 C430 1.368 . S
C425 C409 1.349 . S
C425 H417 0.950 . S
C425 C423 1.327 . S
C426 C414 1.349 . S
C426 H420 0.950 . S
C426 C427 1.327 . S
C427 H421 0.950 . S
C427 C426 1.327 . S
C427 C431 1.429 . S
C428 C411 1.574 . S
C428 H422 0.949 . S
C428 C432 1.368 . S
C429 C410 1.429 . S
C429 C423 1.429 . S
C429 C430 1.523 . S
C430 C411 1.368 . S
C430 C424 1.368 . S
C430 C429 1.523 . S
C431 C415 1.429 . S
C431 C427 1.429 . S
C431 C432 1.523 . S
C432 C416 1.368 . S
C432 C428 1.368 . S
C432 C431 1.523 . S
H433 C408 0.950 . S
H434 C410 0.950 . S
H435 C411 0.949 . S
H436 C413 0.950 . S
H437 C415 0.950 . S
C438 C439 1.349 . S
C438 C440 1.327 . S
C438 H463 0.950 . S
C439 C438 1.349 . S
C439 C455 1.349 . S
C440 C438 1.327 . S
C440 C459 1.429 . S
C440 H464 0.950 . S
C441 C458 1.574 . S
C441 C460 1.368 1_565 S
C441 H465 0.949 . S
H442 C446 0.949 . S
C443 C444 1.349 . S
C443 C445 1.327 . S
C443 H466 0.950 . S
C444 C443 1.349 . S
C444 C456 1.349 . S
C445 C443 1.327 . S
C445 C461 1.429 . S
C445 H467 0.950 . S
C446 H442 0.949 . S
C446 C454 1.574 . S
C446 C462 1.368 1_545 S
H447 C455 0.950 . S
H448 C453 0.950 . S
H449 C454 0.949 . S
H450 C456 0.950 . S
H451 C457 0.950 . S
H452 C458 0.949 . S
C453 H448 0.950 . S
C453 C455 1.327 . S
C453 C459 1.429 . S
C454 C446 1.574 . S
C454 H449 0.949 . S
C454 C460 1.368 . S
C455 C439 1.349 . S
C455 H447 0.950 . S
C455 C453 1.327 . S
C456 C444 1.349 . S
C456 H450 0.950 . S
C456 C457 1.327 . S
C457 H451 0.950 . S
C457 C456 1.327 . S
C457 C461 1.429 . S
C458 C441 1.574 . S
C458 H452 0.949 . S
C458 C462 1.368 . S
C459 C440 1.429 . S
C459 C453 1.429 . S
C459 C460 1.523 . S
C460 C441 1.368 1_545 S
C460 C454 1.368 . S
C460 C459 1.523 . S
C461 C445 1.429 . S
C461 C457 1.429 . S
C461 C462 1.523 . S
C462 C446 1.368 1_565 S
C462 C458 1.368 . S
C462 C461 1.523 . S
H463 C438 0.950 . S
H464 C440 0.950 . S
H465 C441 0.949 . S
H466 C443 0.950 . S
H467 C445 0.950 . S
C468 C469 1.349 . S
C468 C470 1.327 . S
C468 H493 0.950 . S
C469 C468 1.349 . S
C469 C485 1.349 . S
C470 C468 1.327 . S
C470 C489 1.429 . S
C470 H494 0.950 . S
C471 C488 1.574 . S
C471 C490 1.368 1_554 S
C471 H495 0.949 . S
H472 C476 0.949 . S
C473 C474 1.349 . S
C473 C475 1.327 . S
C473 H496 0.950 . S
C474 C473 1.349 . S
C474 C486 1.349 . S
C475 C473 1.327 . S
C475 C491 1.429 . S
C475 H497 0.950 . S
C476 H472 0.949 . S
C476 C484 1.574 . S
C476 C492 1.368 1_556 S
H477 C485 0.950 . S
H478 C483 0.950 1_554 S
H479 C484 0.949 . S
H480 C486 0.950 . S
H481 C487 0.950 1_556 S
H482 C488 0.949 . S
C483 H478 0.950 1_556 S
C483 C485 1.327 . S
C483 C489 1.429 . S
C484 C476 1.574 . S
C484 H479 0.949 . S
C484 C490 1.368 . S
C485 C469 1.349 . S
C485 H477 0.950 . S
C485 C483 1.327 . S
C486 C474 1.349 . S
C486 H480 0.950 . S
C486 C487 1.327 . S
C487 H481 0.950 1_554 S
C487 C486 1.327 . S
C487 C491 1.429 . S
C488 C471 1.574 . S
C488 H482 0.949 . S
C488 C492 1.368 . S
C489 C470 1.429 . S
C489 C483 1.429 . S
C489 C490 1.523 . S
C490 C471 1.368 1_556 S
C490 C484 1.368 . S
C490 C489 1.523 . S
C491 C475 1.429 . S
C491 C487 1.429 . S
C491 C492 1.523 . S
C492 C476 1.368 1_554 S
C492 C488 1.368 . S
C492 C491 1.523 . S
H493 C468 0.950 . S
H494 C470 0.950 . S
H495 C471 0.949 . S
H496 C473 0.950 . S
H497 C475 0.950 . S
C498 C499 1.349 . S
C498 C500 1.327 . S
C498 H523 0.950 . S
C499 C498 1.349 . S
C499 C515 1.349 . S
C500 C498 1.327 . S
C500 C519 1.429 . S
C500 H524 0.950 . S
C501 C518 1.574 1_545 S
C501 C520 1.368 . S
C501 H525 0.949 . S
H502 C506 0.949 . S
C503 C504 1.349 . S
C503 C505 1.327 . S
C503 H526 0.950 . S
C504 C503 1.349 . S
C504 C516 1.349 . S
C505 C503 1.327 . S
C505 C521 1.429 . S
C505 H527 0.950 . S
C506 H502 0.949 . S
C506 C514 1.574 1_565 S
C506 C522 1.368 . S
H507 C515 0.950 . S
H508 C513 0.950 . S
H509 C514 0.949 . S
H510 C516 0.950 . S
H511 C517 0.950 . S
H512 C518 0.949 . S
C513 H508 0.950 . S
C513 C515 1.327 . S
C513 C519 1.429 . S
C514 C506 1.574 1_545 S
C514 H509 0.949 . S
C514 C520 1.368 . S
C515 C499 1.349 . S
C515 H507 0.950 . S
C515 C513 1.327 . S
C516 C504 1.349 . S
C516 H510 0.950 . S
C516 C517 1.327 . S
C517 H511 0.950 . S
C517 C516 1.327 . S
C517 C521 1.429 . S
C518 C501 1.574 1_565 S
C518 H512 0.949 . S
C518 C522 1.368 . S
C519 C500 1.429 . S
C519 C513 1.429 . S
C519 C520 1.523 . S
C520 C501 1.368 . S
C520 C514 1.368 . S
C520 C519 1.523 . S
C521 C505 1.429 . S
C521 C517 1.429 . S
C521 C522 1.523 . S
C522 C506 1.368 . S
C522 C518 1.368 . S
C522 C521 1.523 . S
H523 C498 0.950 . S
H524 C500 0.950 . S
H525 C501 0.949 . S
H526 C503 0.950 . S
H527 C505 0.950 . S
C528 C529 1.349 . S
C528 C530 1.327 . S
C528 H553 0.950 . S
C529 C528 1.349 . S
C529 C545 1.349 . S
C530 C528 1.327 . S
C530 C549 1.429 . S
C530 H554 0.950 . S
C531 C548 1.574 1_455 S
C531 C550 1.368 . S
C531 H555 0.949 . S
H532 C536 0.949 . S
C533 C534 1.349 . S
C533 C535 1.327 . S
C533 H556 0.950 . S
C534 C533 1.349 . S
C534 C546 1.349 . S
C535 C533 1.327 . S
C535 C551 1.429 . S
C535 H557 0.950 . S
C536 H532 0.949 . S
C536 C544 1.574 1_655 S
C536 C552 1.368 . S
H537 C545 0.950 . S
H538 C543 0.950 . S
H539 C544 0.949 . S
H540 C546 0.950 . S
H541 C547 0.950 . S
H542 C548 0.949 . S
C543 H538 0.950 . S
C543 C545 1.327 . S
C543 C549 1.429 . S
C544 C536 1.574 1_455 S
C544 H539 0.949 . S
C544 C550 1.368 . S
C545 C529 1.349 . S
C545 H537 0.950 . S
C545 C543 1.327 . S
C546 C534 1.349 . S
C546 H540 0.950 . S
C546 C547 1.327 . S
C547 H541 0.950 . S
C547 C546 1.327 . S
C547 C551 1.429 . S
C548 C531 1.574 1_655 S
C548 H542 0.949 . S
C548 C552 1.368 . S
C549 C530 1.429 . S
C549 C543 1.429 . S
C549 C550 1.523 . S
C550 C531 1.368 . S
C550 C544 1.368 . S
C550 C549 1.523 . S
C551 C535 1.429 . S
C551 C547 1.429 . S
C551 C552 1.523 . S
C552 C536 1.368 . S
C552 C548 1.368 . S
C552 C551 1.523 . S
H553 C528 0.950 . S
H554 C530 0.950 . S
H555 C531 0.949 . S
H556 C533 0.950 . S
H557 C535 0.950 . S
C558 C559 1.349 . S
C558 C560 1.327 . S
C558 H583 0.950 . S
C559 C558 1.349 . S
C559 C575 1.349 . S
C560 C558 1.327 . S
C560 C579 1.429 . S
C560 H584 0.950 . S
C561 C578 1.574 1_655 S
C561 C580 1.368 . S
C561 H585 0.949 . S
H562 C566 0.949 . S
C563 C564 1.349 . S
C563 C565 1.327 . S
C563 H586 0.950 . S
C564 C563 1.349 . S
C564 C576 1.349 . S
C565 C563 1.327 . S
C565 C581 1.429 . S
C565 H587 0.950 . S
C566 H562 0.949 . S
C566 C574 1.574 1_455 S
C566 C582 1.368 . S
H567 C575 0.950 . S
H568 C573 0.950 . S
H569 C574 0.949 . S
H570 C576 0.950 . S
H571 C577 0.950 . S
H572 C578 0.949 . S
C573 H568 0.950 . S
C573 C575 1.327 . S
C573 C579 1.429 . S
C574 C566 1.574 1_655 S
C574 H569 0.949 . S
C574 C580 1.368 . S
C575 C559 1.349 . S
C575 H567 0.950 . S
C575 C573 1.327 . S
C576 C564 1.349 . S
C576 H570 0.950 . S
C576 C577 1.327 . S
C577 H571 0.950 . S
C577 C576 1.327 . S
C577 C581 1.429 . S
C578 C561 1.574 1_455 S
C578 H572 0.949 . S
C578 C582 1.368 . S
C579 C560 1.429 . S
C579 C573 1.429 . S
C579 C580 1.523 . S
C580 C561 1.368 . S
C580 C574 1.368 . S
C580 C579 1.523 . S
C581 C565 1.429 . S
C581 C577 1.429 . S
C581 C582 1.523 . S
C582 C566 1.368 . S
C582 C578 1.368 . S
C582 C581 1.523 . S
H583 C558 0.950 . S
H584 C560 0.950 . S
H585 C561 0.949 . S
H586 C563 0.950 . S
H587 C565 0.950 . S
C588 C589 1.349 . S
C588 C590 1.327 . S
C588 H613 0.950 . S
C589 C588 1.349 . S
C589 C605 1.349 . S
C590 C588 1.327 . S
C590 C609 1.429 . S
C590 H614 0.950 . S
C591 C608 1.574 . S
C591 C610 1.368 . S
C591 H615 0.949 . S
H592 C596 0.949 . S
C593 C594 1.349 . S
C593 C595 1.327 . S
C593 H616 0.950 . S
C594 C593 1.349 . S
C594 C606 1.349 . S
C595 C593 1.327 . S
C595 C611 1.429 . S
C595 H617 0.950 . S
C596 H592 0.949 . S
C596 C604 1.574 . S
C596 C612 1.368 . S
H597 C605 0.950 . S
H598 C603 0.950 . S
H599 C604 0.949 . S
H600 C606 0.950 . S
H601 C607 0.950 . S
H602 C608 0.949 . S
C603 H598 0.950 . S
C603 C605 1.327 . S
C603 C609 1.429 . S
C604 C596 1.574 . S
C604 H599 0.949 . S
C604 C610 1.368 1_554 S
C605 C589 1.349 . S
C605 H597 0.950 . S
C605 C603 1.327 . S
C606 C594 1.349 . S
C606 H600 0.950 . S
C606 C607 1.327 . S
C607 H601 0.950 . S
C607 C606 1.327 . S
C607 C611 1.429 . S
C608 C591 1.574 . S
C608 H602 0.949 . S
C608 C612 1.368 1_556 S
C609 C590 1.429 . S
C609 C603 1.429 . S
C609 C610 1.523 . S
C610 C591 1.368 . S
C610 C604 1.368 1_556 S
C610 C609 1.523 . S
C611 C595 1.429 . S
C611 C607 1.429 . S
C611 C612 1.523 . S
C612 C596 1.368 . S
C612 C608 1.368 1_554 S
C612 C611 1.523 . S
H613 C588 0.950 . S
H614 C590 0.950 . S
H615 C591 0.949 . S
H616 C593 0.950 . S
H617 C595 0.950 . S
C618 C619 1.349 . S
C618 C620 1.327 . S
C618 H643 0.950 . S
C619 C618 1.349 . S
C619 C635 1.349 . S
C620 C618 1.327 . S
C620 C639 1.429 . S
C620 H644 0.950 . S
C621 C638 1.574 . S
C621 C640 1.368 1_565 S
C621 H645 0.949 . S
H622 C626 0.949 . S
C623 C624 1.349 . S
C623 C625 1.327 . S
C623 H646 0.950 . S
C624 C623 1.349 . S
C624 C636 1.349 . S
C625 C623 1.327 . S
C625 C641 1.429 . S
C625 H647 0.950 . S
C626 H622 0.949 . S
C626 C634 1.574 . S
C626 C642 1.368 1_545 S
H627 C635 0.950 . S
H628 C633 0.950 . S
H629 C634 0.949 . S
H630 C636 0.950 . S
H631 C637 0.950 . S
H632 C638 0.949 . S
C633 H628 0.950 . S
C633 C635 1.327 . S
C633 C639 1.429 . S
C634 C626 1.574 . S
C634 H629 0.949 . S
C634 C640 1.368 . S
C635 C619 1.349 . S
C635 H627 0.950 . S
C635 C633 1.327 . S
C636 C624 1.349 . S
C636 H630 0.950 . S
C636 C637 1.327 . S
C637 H631 0.950 . S
C637 C636 1.327 . S
C637 C641 1.429 . S
C638 C621 1.574 . S
C638 H632 0.949 . S
C638 C642 1.368 . S
C639 C620 1.429 . S
C639 C633 1.429 . S
C639 C640 1.523 . S
C640 C621 1.368 1_545 S
C640 C634 1.368 . S
C640 C639 1.523 . S
C641 C625 1.429 . S
C641 C637 1.429 . S
C641 C642 1.523 . S
C642 C626 1.368 1_565 S
C642 C638 1.368 . S
C642 C641 1.523 . S
H643 C618 0.950 . S
H644 C620 0.950 . S
H645 C621 0.949 . S
H646 C623 0.950 . S
H647 C625 0.950 . S
C199 N68 1.110 . S
C204 C18 1.168 . S
C229 C51 1.168 . S
C234 N2 1.110 . S
C259 C84 1.168 . S
C264 N35 1.110 . S
C289 C117 1.168 . S
C294 N134 1.110 . S
C319 N167 1.110 . S
C324 C150 1.168 . S
C349 N101 1.110 . S
C354 C183 1.168 . S
C379 C153 0.481 . S
C384 C21 0.481 . S
C409 C186 0.481 . S
C414 C54 0.481 . S
C439 C120 0.481 . S
C444 C87 0.481 . S
C469 C106 1.502 . S
C474 C7 1.502 . S
C499 C139 1.502 . S
C504 C40 1.502 . S
C529 C73 1.502 . S
C534 C172 1.502 . S
C559 N145 2.111 . S
C564 N13 2.111 . S
C589 N46 2.111 . S
C594 N178 2.111 . S
C619 N112 2.111 . S
C624 N79 2.111 . S
