# Generated by pormake.
# Topology wne, (6)-cn, num edge types: 1
# Building blocks:
#     Node 0, Type 0, BuildingBlock: BETDAH_clean_sbu_0, # of connection points: 6
#     Node 1, Type 0, BuildingBlock: BETDAH_clean_sbu_0, # of connection points: 6
#     Node 2, Type 0, BuildingBlock: BETDAH_clean_sbu_0, # of connection points: 6
#     Node 3, Type 0, BuildingBlock: BETDAH_clean_sbu_0, # of connection points: 6
#     Node 4, Type 0, BuildingBlock: BETDAH_clean_sbu_0, # of connection points: 6
#     Node 5, Type 0, BuildingBlock: BETDAH_clean_sbu_0, # of connection points: 6
#     Node 6, Type 0, BuildingBlock: BETDAH_clean_sbu_0, # of connection points: 6
#     Node 7, Type 0, BuildingBlock: BETDAH_clean_sbu_0, # of connection points: 6
#     Node 8, Type 0, BuildingBlock: BETDAH_clean_sbu_0, # of connection points: 6
#     Node 9, Type 0, BuildingBlock: BETDAH_clean_sbu_0, # of connection points: 6
#     Node 10, Type 0, BuildingBlock: BETDAH_clean_sbu_0, # of connection points: 6
#     Node 11, Type 0, BuildingBlock: BETDAH_clean_sbu_0, # of connection points: 6
#     Node 12, Type 0, BuildingBlock: BETDAH_clean_sbu_0, # of connection points: 6
#     Node 13, Type 0, BuildingBlock: BETDAH_clean_sbu_0, # of connection points: 6
#     Node 14, Type 0, BuildingBlock: BETDAH_clean_sbu_0, # of connection points: 6
#     Node 15, Type 0, BuildingBlock: BETDAH_clean_sbu_0, # of connection points: 6
#     Node 16, Type 0, BuildingBlock: BETDAH_clean_sbu_0, # of connection points: 6
#     Node 17, Type 0, BuildingBlock: BETDAH_clean_sbu_0, # of connection points: 6
#     Node 18, Type 0, BuildingBlock: BETDAH_clean_sbu_0, # of connection points: 6
#     Node 19, Type 0, BuildingBlock: BETDAH_clean_sbu_0, # of connection points: 6
#     Node 20, Type 0, BuildingBlock: BETDAH_clean_sbu_0, # of connection points: 6
#     Node 21, Type 0, BuildingBlock: BETDAH_clean_sbu_0, # of connection points: 6
#     Node 22, Type 0, BuildingBlock: BETDAH_clean_sbu_0, # of connection points: 6
#     Node 23, Type 0, BuildingBlock: BETDAH_clean_sbu_0, # of connection points: 6
#     Node 24, Type 0, BuildingBlock: BETDAH_clean_sbu_0, # of connection points: 6
#     Node 25, Type 0, BuildingBlock: BETDAH_clean_sbu_0, # of connection points: 6
#     Node 26, Type 0, BuildingBlock: BETDAH_clean_sbu_0, # of connection points: 6
#     Node 27, Type 0, BuildingBlock: BETDAH_clean_sbu_0, # of connection points: 6
#     Node 28, Type 0, BuildingBlock: BETDAH_clean_sbu_0, # of connection points: 6
#     Node 29, Type 0, BuildingBlock: BETDAH_clean_sbu_0, # of connection points: 6
#     Node 30, Type 0, BuildingBlock: BETDAH_clean_sbu_0, # of connection points: 6
#     Node 31, Type 0, BuildingBlock: BETDAH_clean_sbu_0, # of connection points: 6
#     Node 32, Type 0, BuildingBlock: BETDAH_clean_sbu_0, # of connection points: 6
#     Node 33, Type 0, BuildingBlock: BETDAH_clean_sbu_0, # of connection points: 6
#     Node 34, Type 0, BuildingBlock: BETDAH_clean_sbu_0, # of connection points: 6
#     Node 35, Type 0, BuildingBlock: BETDAH_clean_sbu_0, # of connection points: 6
#     Edge 36, Type (0, 0), BuildingBlock: OJICUG_clean_linker_0, # of connection points: 2
#     Edge 37, Type (0, 0), BuildingBlock: OJICUG_clean_linker_0, # of connection points: 2
#     Edge 38, Type (0, 0), BuildingBlock: OJICUG_clean_linker_0, # of connection points: 2
#     Edge 39, Type (0, 0), BuildingBlock: OJICUG_clean_linker_0, # of connection points: 2
#     Edge 40, Type (0, 0), BuildingBlock: OJICUG_clean_linker_0, # of connection points: 2
#     Edge 41, Type (0, 0), BuildingBlock: OJICUG_clean_linker_0, # of connection points: 2
#     Edge 42, Type (0, 0), BuildingBlock: OJICUG_clean_linker_0, # of connection points: 2
#     Edge 43, Type (0, 0), BuildingBlock: OJICUG_clean_linker_0, # of connection points: 2
#     Edge 44, Type (0, 0), BuildingBlock: OJICUG_clean_linker_0, # of connection points: 2
#     Edge 45, Type (0, 0), BuildingBlock: OJICUG_clean_linker_0, # of connection points: 2
#     Edge 46, Type (0, 0), BuildingBlock: OJICUG_clean_linker_0, # of connection points: 2
#     Edge 47, Type (0, 0), BuildingBlock: OJICUG_clean_linker_0, # of connection points: 2
#     Edge 48, Type (0, 0), BuildingBlock: OJICUG_clean_linker_0, # of connection points: 2
#     Edge 49, Type (0, 0), BuildingBlock: OJICUG_clean_linker_0, # of connection points: 2
#     Edge 50, Type (0, 0), BuildingBlock: OJICUG_clean_linker_0, # of connection points: 2
#     Edge 51, Type (0, 0), BuildingBlock: OJICUG_clean_linker_0, # of connection points: 2
#     Edge 52, Type (0, 0), BuildingBlock: OJICUG_clean_linker_0, # of connection points: 2
#     Edge 53, Type (0, 0), BuildingBlock: OJICUG_clean_linker_0, # of connection points: 2
#     Edge 54, Type (0, 0), BuildingBlock: OJICUG_clean_linker_0, # of connection points: 2
#     Edge 55, Type (0, 0), BuildingBlock: OJICUG_clean_linker_0, # of connection points: 2
#     Edge 56, Type (0, 0), BuildingBlock: OJICUG_clean_linker_0, # of connection points: 2
#     Edge 57, Type (0, 0), BuildingBlock: OJICUG_clean_linker_0, # of connection points: 2
#     Edge 58, Type (0, 0), BuildingBlock: OJICUG_clean_linker_0, # of connection points: 2
#     Edge 59, Type (0, 0), BuildingBlock: OJICUG_clean_linker_0, # of connection points: 2
#     Edge 60, Type (0, 0), BuildingBlock: OJICUG_clean_linker_0, # of connection points: 2
#     Edge 61, Type (0, 0), BuildingBlock: OJICUG_clean_linker_0, # of connection points: 2
#     Edge 62, Type (0, 0), BuildingBlock: OJICUG_clean_linker_0, # of connection points: 2
#     Edge 63, Type (0, 0), BuildingBlock: OJICUG_clean_linker_0, # of connection points: 2
#     Edge 64, Type (0, 0), BuildingBlock: OJICUG_clean_linker_0, # of connection points: 2
#     Edge 65, Type (0, 0), BuildingBlock: OJICUG_clean_linker_0, # of connection points: 2
#     Edge 66, Type (0, 0), BuildingBlock: OJICUG_clean_linker_0, # of connection points: 2
#     Edge 67, Type (0, 0), BuildingBlock: OJICUG_clean_linker_0, # of connection points: 2
#     Edge 68, Type (0, 0), BuildingBlock: OJICUG_clean_linker_0, # of connection points: 2
#     Edge 69, Type (0, 0), BuildingBlock: OJICUG_clean_linker_0, # of connection points: 2
#     Edge 70, Type (0, 0), BuildingBlock: OJICUG_clean_linker_0, # of connection points: 2
#     Edge 71, Type (0, 0), BuildingBlock: OJICUG_clean_linker_0, # of connection points: 2
#     Edge 72, Type (0, 0), BuildingBlock: OJICUG_clean_linker_0, # of connection points: 2
#     Edge 73, Type (0, 0), BuildingBlock: OJICUG_clean_linker_0, # of connection points: 2
#     Edge 74, Type (0, 0), BuildingBlock: OJICUG_clean_linker_0, # of connection points: 2
#     Edge 75, Type (0, 0), BuildingBlock: OJICUG_clean_linker_0, # of connection points: 2
#     Edge 76, Type (0, 0), BuildingBlock: OJICUG_clean_linker_0, # of connection points: 2
#     Edge 77, Type (0, 0), BuildingBlock: OJICUG_clean_linker_0, # of connection points: 2
#     Edge 78, Type (0, 0), BuildingBlock: OJICUG_clean_linker_0, # of connection points: 2
#     Edge 79, Type (0, 0), BuildingBlock: OJICUG_clean_linker_0, # of connection points: 2
#     Edge 80, Type (0, 0), BuildingBlock: OJICUG_clean_linker_0, # of connection points: 2
#     Edge 81, Type (0, 0), BuildingBlock: OJICUG_clean_linker_0, # of connection points: 2
#     Edge 82, Type (0, 0), BuildingBlock: OJICUG_clean_linker_0, # of connection points: 2
#     Edge 83, Type (0, 0), BuildingBlock: OJICUG_clean_linker_0, # of connection points: 2
#     Edge 84, Type (0, 0), BuildingBlock: OJICUG_clean_linker_0, # of connection points: 2
#     Edge 85, Type (0, 0), BuildingBlock: OJICUG_clean_linker_0, # of connection points: 2
#     Edge 86, Type (0, 0), BuildingBlock: OJICUG_clean_linker_0, # of connection points: 2
#     Edge 87, Type (0, 0), BuildingBlock: OJICUG_clean_linker_0, # of connection points: 2
#     Edge 88, Type (0, 0), BuildingBlock: OJICUG_clean_linker_0, # of connection points: 2
#     Edge 89, Type (0, 0), BuildingBlock: OJICUG_clean_linker_0, # of connection points: 2
#     Edge 90, Type (0, 0), BuildingBlock: OJICUG_clean_linker_0, # of connection points: 2
#     Edge 91, Type (0, 0), BuildingBlock: OJICUG_clean_linker_0, # of connection points: 2
#     Edge 92, Type (0, 0), BuildingBlock: OJICUG_clean_linker_0, # of connection points: 2
#     Edge 93, Type (0, 0), BuildingBlock: OJICUG_clean_linker_0, # of connection points: 2
#     Edge 94, Type (0, 0), BuildingBlock: OJICUG_clean_linker_0, # of connection points: 2
#     Edge 95, Type (0, 0), BuildingBlock: OJICUG_clean_linker_0, # of connection points: 2
#     Edge 96, Type (0, 0), BuildingBlock: OJICUG_clean_linker_0, # of connection points: 2
#     Edge 97, Type (0, 0), BuildingBlock: OJICUG_clean_linker_0, # of connection points: 2
#     Edge 98, Type (0, 0), BuildingBlock: OJICUG_clean_linker_0, # of connection points: 2
#     Edge 99, Type (0, 0), BuildingBlock: OJICUG_clean_linker_0, # of connection points: 2
#     Edge 100, Type (0, 0), BuildingBlock: OJICUG_clean_linker_0, # of connection points: 2
#     Edge 101, Type (0, 0), BuildingBlock: OJICUG_clean_linker_0, # of connection points: 2
#     Edge 102, Type (0, 0), BuildingBlock: OJICUG_clean_linker_0, # of connection points: 2
#     Edge 103, Type (0, 0), BuildingBlock: OJICUG_clean_linker_0, # of connection points: 2
#     Edge 104, Type (0, 0), BuildingBlock: OJICUG_clean_linker_0, # of connection points: 2
#     Edge 105, Type (0, 0), BuildingBlock: OJICUG_clean_linker_0, # of connection points: 2
#     Edge 106, Type (0, 0), BuildingBlock: OJICUG_clean_linker_0, # of connection points: 2
#     Edge 107, Type (0, 0), BuildingBlock: OJICUG_clean_linker_0, # of connection points: 2
#     Edge 108, Type (0, 0), BuildingBlock: OJICUG_clean_linker_0, # of connection points: 2
#     Edge 109, Type (0, 0), BuildingBlock: OJICUG_clean_linker_0, # of connection points: 2
#     Edge 110, Type (0, 0), BuildingBlock: OJICUG_clean_linker_0, # of connection points: 2
#     Edge 111, Type (0, 0), BuildingBlock: OJICUG_clean_linker_0, # of connection points: 2
#     Edge 112, Type (0, 0), BuildingBlock: OJICUG_clean_linker_0, # of connection points: 2
#     Edge 113, Type (0, 0), BuildingBlock: OJICUG_clean_linker_0, # of connection points: 2
#     Edge 114, Type (0, 0), BuildingBlock: OJICUG_clean_linker_0, # of connection points: 2
#     Edge 115, Type (0, 0), BuildingBlock: OJICUG_clean_linker_0, # of connection points: 2
#     Edge 116, Type (0, 0), BuildingBlock: OJICUG_clean_linker_0, # of connection points: 2
#     Edge 117, Type (0, 0), BuildingBlock: OJICUG_clean_linker_0, # of connection points: 2
#     Edge 118, Type (0, 0), BuildingBlock: OJICUG_clean_linker_0, # of connection points: 2
#     Edge 119, Type (0, 0), BuildingBlock: OJICUG_clean_linker_0, # of connection points: 2
#     Edge 120, Type (0, 0), BuildingBlock: OJICUG_clean_linker_0, # of connection points: 2
#     Edge 121, Type (0, 0), BuildingBlock: OJICUG_clean_linker_0, # of connection points: 2
#     Edge 122, Type (0, 0), BuildingBlock: OJICUG_clean_linker_0, # of connection points: 2
#     Edge 123, Type (0, 0), BuildingBlock: OJICUG_clean_linker_0, # of connection points: 2
#     Edge 124, Type (0, 0), BuildingBlock: OJICUG_clean_linker_0, # of connection points: 2
#     Edge 125, Type (0, 0), BuildingBlock: OJICUG_clean_linker_0, # of connection points: 2
#     Edge 126, Type (0, 0), BuildingBlock: OJICUG_clean_linker_0, # of connection points: 2
#     Edge 127, Type (0, 0), BuildingBlock: OJICUG_clean_linker_0, # of connection points: 2
#     Edge 128, Type (0, 0), BuildingBlock: OJICUG_clean_linker_0, # of connection points: 2
#     Edge 129, Type (0, 0), BuildingBlock: OJICUG_clean_linker_0, # of connection points: 2
#     Edge 130, Type (0, 0), BuildingBlock: OJICUG_clean_linker_0, # of connection points: 2
#     Edge 131, Type (0, 0), BuildingBlock: OJICUG_clean_linker_0, # of connection points: 2
#     Edge 132, Type (0, 0), BuildingBlock: OJICUG_clean_linker_0, # of connection points: 2
#     Edge 133, Type (0, 0), BuildingBlock: OJICUG_clean_linker_0, # of connection points: 2
#     Edge 134, Type (0, 0), BuildingBlock: OJICUG_clean_linker_0, # of connection points: 2
#     Edge 135, Type (0, 0), BuildingBlock: OJICUG_clean_linker_0, # of connection points: 2
#     Edge 136, Type (0, 0), BuildingBlock: OJICUG_clean_linker_0, # of connection points: 2
#     Edge 137, Type (0, 0), BuildingBlock: OJICUG_clean_linker_0, # of connection points: 2
#     Edge 138, Type (0, 0), BuildingBlock: OJICUG_clean_linker_0, # of connection points: 2
#     Edge 139, Type (0, 0), BuildingBlock: OJICUG_clean_linker_0, # of connection points: 2
#     Edge 140, Type (0, 0), BuildingBlock: OJICUG_clean_linker_0, # of connection points: 2
#     Edge 141, Type (0, 0), BuildingBlock: OJICUG_clean_linker_0, # of connection points: 2
#     Edge 142, Type (0, 0), BuildingBlock: OJICUG_clean_linker_0, # of connection points: 2
#     Edge 143, Type (0, 0), BuildingBlock: OJICUG_clean_linker_0, # of connection points: 2
# Relax obj value: 0.479
# Max RMSD: 0.284
# Mean RMSD: 0.284
data_MOF--net-wne--node1-BETDAH_clean_sbu_0--edge1-OJICUG_clean_linker_0
_symmetry_space_group_name_H-M    P1
_symmetry_Int_Tables_number       1
_symmetry_cell_setting            triclinic
loop_
_symmetry_equiv_pos_as_xyz
'x, y, z'
_cell_length_a     67.291902
_cell_length_b     67.307929
_cell_length_c     21.832478
_cell_angle_alpha  89.901647
_cell_angle_beta   90.047636
_cell_angle_gamma 119.98236
loop_
_atom_site_label
_atom_site_type_symbol
_atom_site_fract_x
_atom_site_fract_y
_atom_site_fract_z
_atom_type_partial_charge
Ho0 Ho 0.32269 0.21827 0.09806 0.0
Ho1 Ho 0.35785 0.26858 0.11728 0.0
C2 C 0.37189 0.22968 0.15726 0.0
C3 C 0.29893 0.17508 0.06655 0.0
C4 C 0.2985 0.15271 0.0561 0.0
C5 C 0.30604 0.14764 1.00119 0.0
C6 C 0.30298 0.12555 0.99053 0.0
C7 C 0.29201 0.10768 0.03404 0.0
C8 C 0.28475 0.11296 0.0891 0.0
C9 C 0.28792 0.13498 0.09983 0.0
C10 C 0.30718 0.23739 0.19065 0.0
C11 C 0.31007 0.25508 0.04668 0.0
C12 C 0.38028 0.30821 0.16723 0.0
C13 C 0.36997 0.32238 0.18067 0.0
C14 C 0.34596 0.31159 0.18207 0.0
C15 C 0.33482 0.32425 0.1771 0.0
C16 C 0.34767 0.34807 0.17314 0.0
C17 C 0.37183 0.35911 0.17604 0.0
C18 C 0.38296 0.3463 0.17913 0.0
C19 C 0.36472 0.25453 1.00651 0.0
O20 O 0.35058 0.21388 0.14366 0.0
O21 O 0.37859 0.25191 0.15168 0.0
O22 O 0.30181 0.18257 0.12296 0.0
O23 O 0.30846 0.19192 0.02652 0.0
O24 O 0.29645 0.2163 0.17203 0.0
O25 O 0.32562 0.24566 0.16014 0.0
O26 O 0.3268 0.27018 0.0824 0.0
O27 O 0.30796 0.23469 0.03589 0.0
O28 O 0.38148 0.30496 0.10858 0.0
O29 O 0.37199 0.28914 0.19893 0.0
O30 O 0.36481 0.27354 0.01736 0.0
O31 O 0.35857 0.24245 0.05626 0.0
H32 H 0.3139 0.16059 0.96584 0.0
H33 H 0.30864 0.12232 0.94718 0.0
H34 H 0.27654 0.10002 0.1243 0.0
H35 H 0.28154 0.13798 0.14233 0.0
H36 H 0.33599 0.29317 0.18268 0.0
H37 H 0.31635 0.31554 0.17274 0.0
H38 H 0.38212 0.37755 0.17111 0.0
H39 H 0.4015 0.35493 0.17668 0.0
Ho40 Ho 0.89874 0.12565 0.09887 0.0
Ho41 Ho 0.85439 0.11282 0.13368 0.0
C42 C 0.89192 0.16599 0.15975 0.0
C43 C 0.94223 0.14511 0.06922 0.0
C44 C 0.96439 0.16744 0.06057 0.0
C45 C 0.9692 0.18076 1.00694 0.0
C46 C 0.99109 0.20013 0.99696 0.0
C47 C 1.00906 0.20676 0.03994 0.0
C48 C 1.00404 0.19356 0.09391 0.0
C49 C 0.98218 0.17429 0.10392 0.0
C50 C 0.88153 0.09006 0.18686 0.0
C51 C 0.861 0.07725 0.04983 0.0
C52 C 0.8168 0.09695 0.19446 0.0
C53 C 0.80175 0.07241 0.20539 0.0
C54 C 0.81133 0.05805 0.20327 0.0
C55 C 0.79766 1.03467 0.19223 0.0
C56 C 0.77413 1.02539 0.18335 0.0
C57 C 0.7642 1.03935 0.19185 0.0
C58 C 0.77799 0.06282 0.20232 0.0
C59 C 0.86004 0.13019 0.01769 0.0
O60 O 0.90674 0.15956 0.14332 0.0
O61 O 0.86976 0.15062 0.15904 0.0
O62 O 0.93436 0.13931 0.12501 0.0
O63 O 0.92563 0.13867 0.02904 0.0
O64 O 0.89371 0.09176 0.13933 0.0
O65 O 0.87979 0.10815 0.1865 0.0
O66 O 0.84889 0.07905 0.09501 0.0
O67 O 0.88024 0.09583 0.03287 0.0
O68 O 0.81839 0.10263 0.13686 0.0
O69 O 0.83683 0.10607 0.22103 0.0
O70 O 0.8434 0.11061 0.03638 0.0
O71 O 0.87518 0.13831 0.06069 0.0
H72 H 0.95621 0.17595 0.97185 0.0
H73 H 0.99411 0.20949 0.9544 0.0
H74 H 1.01706 0.19805 0.12872 0.0
H75 H 0.97936 0.16438 0.14542 0.0
H76 H 0.82963 0.06526 0.20462 0.0
H77 H 0.80564 1.02431 0.18513 0.0
H78 H 0.74605 1.03263 0.18384 0.0
H79 H 0.77033 0.07365 0.20279 0.0
Ho80 Ho 0.98979 0.79556 0.09543 0.0
Ho81 Ho 1.00301 0.76346 0.12698 0.0
C82 C 0.95017 0.7479 0.15702 0.0
C83 C 0.96981 0.81921 0.06703 0.0
C84 C 0.94725 0.81858 0.05855 0.0
C85 C 0.93299 0.80831 1.00729 0.0
C86 C 0.91335 0.81038 0.99715 0.0
C87 C 0.90741 0.823 0.03752 0.0
C88 C 0.9215 0.83283 0.08934 0.0
C89 C 0.94101 0.83068 0.09954 0.0
C90 C 1.026 0.81345 0.18129 0.0
C91 C 1.03776 0.806 0.04294 0.0
C92 C 1.01905 0.74162 0.1866 0.0
C93 C 1.04348 0.75163 0.20003 0.0
C94 C 1.05726 0.77563 0.19816 0.0
C95 C 0.08074 0.78598 0.18771 0.0
C96 C 0.09071 0.77232 0.17957 0.0
C97 C 0.07733 0.74837 0.18833 0.0
C98 C 1.05374 0.73805 0.19804 0.0
C99 C 0.98414 0.75277 1.01195 0.0
O100 O 0.95639 0.76924 0.14165 0.0
O101 O 0.9655 0.7411 0.15418 0.0
O102 O 0.97572 0.81708 0.1227 0.0
O103 O 0.9765 0.80942 0.02643 0.0
O104 O 1.02383 0.82429 0.13518 0.0
O105 O 1.00801 0.79354 0.18089 0.0
O106 O 1.03636 0.79197 0.08737 0.0
O107 O 1.01909 0.80679 0.02765 0.0
O108 O 1.01442 0.73859 0.12823 0.0
O109 O 1.00892 0.75146 0.2136 0.0
O110 O 1.00308 0.75375 0.02888 0.0
O111 O 0.97692 0.75961 0.05725 0.0
H112 H 0.93727 0.7991 0.97411 0.0
H113 H 0.90325 0.80271 0.95635 0.0
H114 H 0.91755 0.84237 0.12223 0.0
H115 H 0.95161 0.83904 0.13917 0.0
H116 H 1.04947 0.7862 0.19848 0.0
H117 H 0.09063 0.80432 0.18012 0.0
H118 H 0.08461 0.7374 0.18092 0.0
H119 H 1.04336 0.71952 0.19833 0.0
Ho120 Ho 0.24423 0.29747 0.42681 0.0
Ho121 Ho 0.28985 0.32877 0.39297 0.0
C122 C 0.25329 0.34547 0.36441 0.0
C123 C 0.20058 0.27421 0.45525 0.0
C124 C 0.17837 0.27433 0.46342 0.0
C125 C 0.1735 0.28298 0.51657 0.0
C126 C 0.15153 0.28032 0.52626 0.0
C127 C 0.13354 0.2687 0.4835 0.0
C128 C 0.13862 0.26036 0.43004 0.0
C129 C 0.16056 0.26311 0.42028 0.0
C130 C 0.26144 0.27889 0.34051 0.0
C131 C 0.28151 0.28592 0.47659 0.0
C132 C 0.32785 0.34943 0.33352 0.0
C133 C 0.3434 0.34037 0.32463 0.0
C134 C 0.33472 0.31658 0.32864 0.0
C135 C 0.34943 0.30786 0.33744 0.0
C136 C 0.37305 0.32292 0.34256 0.0
C137 C 0.38185 0.34656 0.33224 0.0
C138 C 0.36707 0.35525 0.32398 0.0
C139 C 0.28297 0.33939 0.50865 0.0
O140 O 0.23796 0.32439 0.38122 0.0
O141 O 0.27535 0.35177 0.3655 0.0
O142 O 0.20862 0.2763 0.39963 0.0
O143 O 0.21707 0.28415 0.49588 0.0
O144 O 0.24838 0.26822 0.3866 0.0
O145 O 0.26384 0.29898 0.3409 0.0
O146 O 0.29414 0.29995 0.43227 0.0
O147 O 0.26224 0.28541 0.49277 0.0
O148 O 0.32597 0.35418 0.39034 0.0
O149 O 0.30797 0.33804 0.30638 0.0
O150 O 0.30015 0.33715 0.49103 0.0
O151 O 0.2685 0.33332 0.46438 0.0
H152 H 0.1865 0.29137 0.55151 0.0
H153 H 0.14848 0.2868 0.56846 0.0
H154 H 0.12558 0.2516 0.39542 0.0
H155 H 0.16343 0.25589 0.37919 0.0
H156 H 0.31647 0.30485 0.32975 0.0
H157 H 0.34225 0.28968 0.34593 0.0
H158 H 0.40001 0.35867 0.33711 0.0
H159 H 0.37405 0.37364 0.32148 0.0
Ho160 Ho 0.81817 0.96836 0.43173 0.0
Ho161 Ho 0.78682 0.98247 0.4016 0.0
C162 C 0.77032 0.9294 0.37007 0.0
C163 C 0.84121 0.94751 0.45865 0.0
C164 C 0.84032 0.92476 0.46727 0.0
C165 C 0.83524 0.91355 0.52453 0.0
C166 C 0.83741 0.89394 0.53418 0.0
C167 C 0.84497 0.88486 0.48712 0.0
C168 C 0.84972 0.89594 0.42962 0.0
C169 C 0.84748 0.91547 0.41996 0.0
C170 C 0.83647 1.00466 0.34588 0.0
C171 C 0.82991 1.01662 0.48536 0.0
C172 C 0.76531 0.99983 0.34607 0.0
C173 C 0.77454 1.02454 0.33922 0.0
C174 C 0.79839 1.0392 0.34338 0.0
C175 C 0.80761 0.06256 0.35414 0.0
C176 C 0.79302 0.07162 0.36014 0.0
C177 C 0.76921 0.0572 0.35114 0.0
C178 C 0.76001 1.03374 0.34125 0.0
C179 C 0.77619 0.96404 0.51647 0.0
O180 O 0.79158 0.93534 0.38522 0.0
O181 O 0.76383 0.94499 0.37329 0.0
O182 O 0.83885 0.95346 0.40322 0.0
O183 O 0.83196 0.95459 0.49982 0.0
O184 O 0.84723 1.00223 0.39174 0.0
O185 O 0.81641 0.98689 0.34646 0.0
O186 O 0.81566 1.01549 0.44194 0.0
O187 O 0.83058 0.9978 0.49951 0.0
O188 O 0.76106 0.99276 0.40265 0.0
O189 O 0.77647 0.99154 0.31686 0.0
O190 O 0.77877 0.98374 0.50041 0.0
O191 O 0.78229 0.95605 0.47125 0.0
H192 H 0.83014 0.92027 0.56266 0.0
H193 H 0.83386 0.88636 0.57947 0.0
H194 H 0.8553 0.88957 0.39172 0.0
H195 H 0.85193 0.92368 0.37544 0.0
H196 H 0.80975 1.03227 0.3422 0.0
H197 H 0.82588 0.07321 0.36193 0.0
H198 H 0.75747 0.06366 0.35727 0.0
H199 H 0.74156 1.02265 0.33924 0.0
Ho200 Ho 0.14729 0.87306 0.42759 0.0
Ho201 Ho 0.13387 0.82799 0.39663 0.0
C202 C 0.18703 0.86517 0.36719 0.0
C203 C 0.16733 0.9169 0.45398 0.0
C204 C 0.18976 0.93909 0.4618 0.0
C205 C 0.2038 0.9437 0.5139 0.0
C206 C 0.2233 0.96557 0.52325 0.0
C207 C 0.22941 0.98376 0.48119 0.0
C208 C 0.21546 0.97894 0.42877 0.0
C209 C 0.19606 0.95709 0.41936 0.0
C210 C 0.11123 0.85493 0.34101 0.0
C211 C 0.09928 0.83615 0.48102 0.0
C212 C 0.11698 0.78944 0.34001 0.0
C213 C 0.09233 0.77344 0.3341 0.0
C214 C 0.07713 0.78197 0.33908 0.0
C215 C 1.05399 0.76734 0.35184 0.0
C216 C 1.04572 0.74386 0.35915 0.0
C217 C 1.06054 0.73506 0.34846 0.0
C218 C 0.08379 0.74982 0.33661 0.0
C219 C 0.15167 0.83519 0.51199 0.0
O220 O 0.18077 0.8802 0.38254 0.0
O221 O 0.17157 0.84301 0.36934 0.0
O222 O 0.16141 0.90854 0.39868 0.0
O223 O 0.16076 0.90064 0.4953 0.0
O224 O 0.1132 0.86767 0.38744 0.0
O225 O 0.12925 0.85307 0.34168 0.0
O226 O 0.10061 0.82329 0.43722 0.0
O227 O 0.11799 0.85564 0.4955 0.0
O228 O 0.12444 0.79218 0.39617 0.0
O229 O 0.12462 0.80895 0.31142 0.0
O230 O 0.13209 0.81811 0.49507 0.0
O231 O 0.15985 0.84964 0.46741 0.0
H232 H 0.19946 0.93055 0.5483 0.0
H233 H 0.2332 0.96838 0.56468 0.0
H234 H 0.21949 0.99211 0.39464 0.0
H235 H 0.18561 0.95443 0.37908 0.0
H236 H 0.08351 0.80018 0.33745 0.0
H237 H 1.043 0.77452 0.36066 0.0
H238 H 1.05468 0.71701 0.35528 0.0
H239 H 0.09529 0.74295 0.33377 0.0
Ho240 Ho 0.78359 0.82577 0.90438 0.0
Ho241 Ho 0.81839 0.87567 0.92338 0.0
C242 C 0.83129 0.83917 0.97519 0.0
C243 C 0.7608 0.78646 0.85333 0.0
C244 C 0.77098 0.77221 0.84008 0.0
C245 C 0.75801 0.74838 0.845 0.0
C246 C 0.76914 0.73579 0.85374 0.0
C247 C 0.79327 0.74709 0.85914 0.0
C248 C 0.80613 0.77064 0.84909 0.0
C249 C 0.79499 0.78304 0.83879 0.0
C250 C 0.77593 0.83927 0.01483 0.0
C251 C 0.76943 0.86443 0.86393 0.0
C252 C 0.84115 0.91884 0.95607 0.0
C253 C 0.84014 0.94053 0.96673 0.0
C254 C 0.8344 0.94593 0.02404 0.0
C255 C 0.83633 0.96757 0.03476 0.0
C256 C 0.84437 0.98472 0.98883 0.0
C257 C 0.84974 0.97908 0.93137 0.0
C258 C 0.84769 0.95749 0.92061 0.0
C259 C 0.8347 0.85685 0.8314 0.0
O260 O 0.81453 0.82399 0.93963 0.0
O261 O 0.83334 0.85954 0.98578 0.0
O262 O 0.75952 0.7895 0.91206 0.0
O263 O 0.76937 0.80565 0.82209 0.0
O264 O 0.77631 0.8205 1.00405 0.0
O265 O 0.78242 0.85163 0.96543 0.0
O266 O 0.79084 0.88018 0.87633 0.0
O267 O 0.76269 0.84227 0.87048 0.0
O268 O 0.83888 0.91155 0.89957 0.0
O269 O 0.832 0.9018 0.9956 0.0
O270 O 0.84502 0.87797 0.84996 0.0
O271 O 0.81612 0.84829 0.86162 0.0
H272 H 0.73946 0.73978 0.84735 0.0
H273 H 0.7588 0.71758 0.86304 0.0
H274 H 0.82457 0.77954 0.85444 0.0
H275 H 0.805 0.80144 0.83532 0.0
H276 H 0.82892 0.93364 0.06122 0.0
H277 H 0.83223 0.9711 0.07992 0.0
H278 H 0.85568 0.99143 0.89431 0.0
H279 H 0.85263 0.95431 0.8761 0.0
Ho280 Ho 0.28654 0.98112 0.89869 0.0
Ho281 Ho 0.23953 0.96601 0.92157 0.0
C282 C 0.27447 1.01474 0.97509 0.0
C283 C 0.32674 0.99892 0.84922 0.0
C284 C 0.34196 1.02353 0.8383 0.0
C285 C 0.3332 1.03827 0.84775 0.0
C286 C 0.34726 0.06185 0.84789 0.0
C287 C 0.37094 0.07123 0.84427 0.0
C288 C 0.37992 0.05668 0.83098 0.0
C289 C 0.36542 1.03287 0.82766 0.0
C290 C 0.2758 0.96123 1.01247 0.0
C291 C 0.25044 0.92799 0.86349 0.0
C292 C 0.19554 0.94437 0.94627 0.0
C293 C 0.17398 0.92153 0.95575 0.0
C294 C 0.16883 0.90981 1.01225 0.0
C295 C 0.14723 0.89012 0.02287 0.0
C296 C 0.12987 0.88152 0.97763 0.0
C297 C 0.13526 0.89306 0.92078 0.0
C298 C 0.15685 0.91267 0.91014 0.0
C299 C 0.25836 1.00198 0.83499 0.0
O300 O 0.2885 1.01348 0.93535 0.0
O301 O 0.25488 0.99594 0.9882 0.0
O302 O 0.32294 0.99337 0.90696 0.0
O303 O 0.30779 0.98948 0.81742 0.0
O304 O 0.29352 0.98087 0.99903 0.0
O305 O 0.26297 0.95417 0.96461 0.0
O306 O 0.23463 0.93359 0.87553 0.0
O307 O 0.27244 0.94369 0.86963 0.0
O308 O 0.20407 0.94979 0.89092 0.0
O309 O 0.21164 0.95225 0.98829 0.0
O310 O 0.24276 0.99823 0.8752 0.0
O311 O 0.26194 0.98503 0.83956 0.0
H312 H 0.31554 1.03154 0.85908 0.0
H313 H 0.3399 0.07252 0.85884 0.0
H314 H 0.39827 0.06339 0.82911 0.0
H315 H 0.37267 1.02183 0.82133 0.0
H316 H 0.18127 0.91619 0.04909 0.0
H317 H 0.14391 0.88211 0.0676 0.0
H318 H 0.12271 0.88704 0.88423 0.0
H319 H 0.1599 0.92129 0.86633 0.0
Ho320 Ho 0.13464 0.32795 0.89921 0.0
Ho321 Ho 0.15015 0.2971 0.92609 0.0
C322 C 0.10136 0.28285 0.97872 0.0
C323 C 0.11607 0.34968 0.84958 0.0
C324 C 0.09127 0.34074 0.84358 0.0
C325 C 0.07626 0.3174 0.85492 0.0
C326 C 1.05281 0.30851 0.85952 0.0
C327 C 1.04397 0.3233 0.85835 0.0
C328 C 1.05868 0.34665 0.84343 0.0
C329 C 0.08228 0.35532 0.836 0.0
C330 C 0.15356 0.33847 0.01367 0.0
C331 C 0.1881 0.3454 0.86549 0.0
C332 C 0.17187 0.27501 0.95292 0.0
C333 C 0.19457 0.276 0.96157 0.0
C334 C 0.20858 0.28609 0.01334 0.0
C335 C 0.22825 0.28409 0.02378 0.0
C336 C 0.23441 0.2717 0.98322 0.0
C337 C 0.2206 0.26211 0.93086 0.0
C338 C 0.20109 0.26421 0.92034 0.0
C339 C 0.11454 0.27887 0.8384 0.0
O340 O 0.10239 0.29751 0.93705 0.0
O341 O 0.12036 0.28264 0.99297 0.0
O342 O 0.12337 0.35293 0.9059 0.0
O343 O 0.12418 0.33892 0.81782 0.0
O344 O 0.13318 0.33436 0.99894 0.0
O345 O 0.16145 0.33263 0.96755 0.0
O346 O 0.18264 0.32422 0.8797 0.0
O347 O 0.17215 0.35149 0.86963 0.0
O348 O 0.16605 0.27738 0.89738 0.0
O349 O 0.16454 0.284 0.99416 0.0
O350 O 0.11809 0.26754 0.88072 0.0
O351 O 0.13138 0.29947 0.84195 0.0
H352 H 0.08269 0.30613 0.86487 0.0
H353 H 1.04201 0.29063 0.8719 0.0
H354 H 1.05239 0.35865 0.84352 0.0
H355 H 0.09355 0.37352 0.82853 0.0
H356 H 0.20406 0.29506 0.04671 0.0
H357 H 0.23817 0.29159 0.06494 0.0
H358 H 0.22475 0.25274 0.89786 0.0
H359 H 0.19066 0.25597 0.88034 0.0
Ho360 Ho 0.85298 0.76488 0.62676 0.0
Ho361 Ho 0.89777 0.79602 0.59422 0.0
C362 C 0.86092 0.80809 0.54493 0.0
C363 C 0.81537 0.74324 0.68752 0.0
C364 C 0.80148 0.75371 0.70212 0.0
C365 C 0.81213 0.77772 0.6995 0.0
C366 C 0.79936 0.78854 0.69078 0.0
C367 C 0.77564 0.7753 0.68374 0.0
C368 C 0.76468 0.75136 0.69352 0.0
C369 C 0.77759 0.74058 0.70219 0.0
C370 C 0.85913 0.75359 0.51123 0.0
C371 C 0.88989 0.74866 0.6552 0.0
C372 C 0.9414 0.81864 0.56502 0.0
C373 C 0.9631 0.81737 0.5582 0.0
C374 C 0.96758 0.80778 0.50627 0.0
C375 C 0.98915 0.80932 0.49789 0.0
C376 C 1.00714 0.82072 0.54076 0.0
C377 C 1.00239 0.82988 0.59316 0.0
C378 C 0.98086 0.82826 0.60161 0.0
C379 C 0.88074 0.815 0.68068 0.0
O380 O 0.84832 0.79378 0.58889 0.0
O381 O 0.88014 0.8086 0.52846 0.0
O382 O 0.81661 0.74033 0.62895 0.0
O383 O 0.83548 0.75268 0.71381 0.0
O384 O 0.84223 0.75623 0.52911 0.0
O385 O 0.87398 0.76004 0.55484 0.0
O386 O 0.90495 0.77019 0.64222 0.0
O387 O 0.86778 0.74182 0.65091 0.0
O388 O 0.93347 0.8174 0.62038 0.0
O389 O 0.92481 0.80861 0.52476 0.0
O390 O 0.89383 0.82548 0.63441 0.0
O391 O 0.87827 0.79483 0.6806 0.0
H392 H 0.83048 0.78789 0.69754 0.0
H393 H 0.80812 0.80689 0.68297 0.0
H394 H 0.74633 0.74067 0.68718 0.0
H395 H 0.76907 0.72202 0.70307 0.0
H396 H 0.9546 0.79955 0.47121 0.0
H397 H 0.99196 0.80221 0.45652 0.0
H398 H 1.01541 0.8385 0.6279 0.0
H399 H 0.97832 0.83611 0.64185 0.0
Ho400 Ho 0.35277 0.10821 0.61828 0.0
Ho401 Ho 0.32222 0.12469 0.59405 0.0
C402 C 0.30694 0.07581 0.53986 0.0
C403 C 0.37409 0.08865 0.66517 0.0
C404 C 0.36532 0.06382 0.67008 0.0
C405 C 0.34231 0.04861 0.65576 0.0
C406 C 0.33363 1.02516 0.65304 0.0
C407 C 0.34845 1.01641 0.6583 0.0
C408 C 0.37153 1.03141 0.67545 0.0
C409 C 0.37986 0.05501 0.68167 0.0
C410 C 0.36388 0.12892 0.50547 0.0
C411 C 0.37096 0.1616 0.65551 0.0
C412 C 0.30081 0.14723 0.56886 0.0
C413 C 0.30221 0.17013 0.55986 0.0
C414 C 0.3085 0.1818 0.50326 0.0
C415 C 0.30656 0.2015 0.49302 0.0
C416 C 0.29803 0.21012 0.53875 0.0
C417 C 0.29219 0.19865 0.59569 0.0
C418 C 0.29422 0.17905 0.60597 0.0
C419 C 0.30366 0.0886 0.68033 0.0
O420 O 0.3218 0.07649 0.5803 0.0
O421 O 0.307 0.09503 0.52664 0.0
O422 O 0.37723 0.09635 0.60923 0.0
O423 O 0.36335 0.0965 0.69807 0.0
O424 O 0.35986 0.1084 0.51807 0.0
O425 O 0.35778 0.13597 0.55281 0.0
O426 O 0.34989 0.15661 0.64126 0.0
O427 O 0.37668 0.14538 0.65057 0.0
O428 O 0.3035 0.14147 0.62422 0.0
O429 O 0.3091 0.13939 0.52699 0.0
O430 O 0.29237 0.09292 0.63964 0.0
O431 O 0.32446 0.10508 0.6765 0.0
H432 H 0.3311 0.05484 0.64306 0.0
H433 H 0.31589 1.0142 0.63959 0.0
H434 H 0.38366 1.02533 0.67877 0.0
H435 H 0.39784 0.06641 0.69174 0.0
H436 H 0.31432 0.17535 0.46607 0.0
H437 H 0.31101 0.20947 0.44823 0.0
H438 H 0.28586 0.20471 0.63257 0.0
H439 H 0.28885 0.17046 0.64986 0.0
Ho440 Ho 1.00871 0.26588 0.6221 0.0
Ho441 Ho 0.99217 0.21878 0.5971 0.0
C442 C 1.04118 0.25273 0.54355 0.0
C443 C 1.02811 0.30641 0.67043 0.0
C444 C 1.05292 0.3219 0.6782 0.0
C445 C 1.06208 0.34517 0.69114 0.0
C446 C 0.08586 0.35996 0.68786 0.0
C447 C 0.10071 0.35147 0.67274 0.0
C448 C 0.09145 0.32788 0.66597 0.0
C449 C 1.06788 0.31363 0.66548 0.0
C450 C 0.98835 0.25663 0.50896 0.0
C451 C 0.95548 0.23071 0.65919 0.0
C452 C 0.9694 0.17478 0.57226 0.0
C453 C 0.94649 0.15308 0.56521 0.0
C454 C 0.93232 0.1487 0.51348 0.0
C455 C 0.91247 0.12702 0.50459 0.0
C456 C 0.9062 0.10883 0.5467 0.0
C457 C 0.92021 0.11348 0.59891 0.0
C458 C 0.93991 0.13512 0.6079 0.0
C459 C 1.02807 0.23614 0.68374 0.0
O460 O 1.04044 0.26674 0.58435 0.0
O461 O 1.02203 0.23354 0.53008 0.0
O462 O 1.02137 0.30236 0.61363 0.0
O463 O 1.0193 0.28759 0.70278 0.0
O464 O 1.00877 0.27316 0.5221 0.0
O465 O 0.98113 0.24333 0.55612 0.0
O466 O 0.9605 0.21463 0.64542 0.0
O467 O 0.97156 0.25263 0.65353 0.0
O468 O 0.97585 0.18326 0.62728 0.0
O469 O 0.97659 0.19091 0.53034 0.0
O470 O 1.02398 0.22074 0.64267 0.0
O471 O 1.01155 0.24039 0.67975 0.0
H472 H 1.05089 0.3521 0.69995 0.0
H473 H 0.09231 0.37821 0.69208 0.0
H474 H 0.10227 0.3208 0.65379 0.0
H475 H 1.0614 0.29623 0.65204 0.0
H476 H 0.93686 0.16184 0.47894 0.0
H477 H 0.90247 0.12432 0.46339 0.0
H478 H 0.91605 0.1003 0.63309 0.0
H479 H 0.95044 0.13759 0.64791 0.0
Ho480 Ho 0.98952 0.55384 0.42511 0.0
Ho481 Ho 1.02086 0.59871 0.46067 0.0
C482 C 1.03663 0.56123 0.48836 0.0
C483 C 0.96581 0.51032 0.39578 0.0
C484 C 0.96562 0.48794 0.38839 0.0
C485 C 0.975 0.48307 0.33674 0.0
C486 C 0.9722 0.46101 0.32782 0.0
C487 C 0.95972 0.44294 0.36985 0.0
C488 C 0.95061 0.44801 0.42178 0.0
C489 C 0.9535 0.47003 0.43079 0.0
C490 C 0.97066 0.57079 0.51178 0.0
C491 C 0.97844 0.59143 0.37615 0.0
C492 C 1.0418 0.63625 0.52212 0.0
C493 C 1.03253 0.65152 0.53292 0.0
C494 C 1.04717 0.67522 0.5355 0.0
C495 C 1.03829 0.68986 0.52744 0.0
C496 C 1.01468 0.6809 0.51591 0.0
C497 C 0.99983 0.6572 0.51936 0.0
C498 C 1.00875 0.64265 0.52754 0.0
C499 C 1.03315 0.59292 0.34546 0.0
O500 O 1.01549 0.54631 0.47127 0.0
O501 O 1.0433 0.58339 0.48763 0.0
O502 O 0.96754 0.51826 0.45132 0.0
O503 O 0.97636 0.52686 0.35554 0.0
O504 O 0.96025 0.55815 0.46488 0.0
O505 O 0.99065 0.57291 0.51195 0.0
O506 O 0.99239 0.6037 0.42102 0.0
O507 O 0.97796 0.57227 0.35918 0.0
O508 O 1.04625 0.63482 0.46474 0.0
O509 O 1.03063 0.61615 0.54824 0.0
O510 O 1.03028 0.60968 0.36347 0.0
O511 O 1.02589 0.57785 0.38872 0.0
H512 H 0.98411 0.49615 0.3024 0.0
H513 H 0.97929 0.45798 0.28676 0.0
H514 H 0.94116 0.43491 0.45581 0.0
H515 H 0.94571 0.4729 0.47069 0.0
H516 H 1.06557 0.68237 0.53888 0.0
H517 H 1.05026 0.7081 0.52386 0.0
H518 H 0.98168 0.6499 0.51012 0.0
H519 H 0.99725 0.62443 0.52459 0.0
Ho520 Ho 0.56351 0.45819 0.42799 0.0
Ho521 Ho 0.51875 0.44497 0.46159 0.0
C522 C 0.55628 0.49802 0.49108 0.0
C523 C 0.60717 0.47765 0.40047 0.0
C524 C 0.62947 0.49987 0.39285 0.0
C525 C 0.63419 0.51412 0.34119 0.0
C526 C 0.65617 0.53344 0.332 0.0
C527 C 0.6743 0.53909 0.37382 0.0
C528 C 0.66938 0.52493 0.42582 0.0
C529 C 0.64743 0.50571 0.43506 0.0
C530 C 0.5457 0.42206 0.51417 0.0
C531 C 0.52615 0.41053 0.37468 0.0
C532 C 0.48028 0.42764 0.51886 0.0
C533 C 0.46446 0.40289 0.52395 0.0
C534 C 0.47328 0.38789 0.51996 0.0
C535 C 0.45891 0.36468 0.50755 0.0
C536 C 0.43541 0.35613 0.4994 0.0
C537 C 0.42632 0.37078 0.50852 0.0
C538 C 0.44081 0.39409 0.52018 0.0
C539 C 0.52538 0.46357 0.3468 0.0
O540 O 0.57115 0.49187 0.47305 0.0
O541 O 0.53411 0.4825 0.4908 0.0
O542 O 0.59894 0.47166 0.4559 0.0
O543 O 0.59085 0.47151 0.35955 0.0
O544 O 0.55797 0.4239 0.46675 0.0
O545 O 0.54405 0.44018 0.51453 0.0
O546 O 0.51371 0.41178 0.41981 0.0
O547 O 0.54553 0.42925 0.35949 0.0
O548 O 0.48289 0.43546 0.4631 0.0
O549 O 0.49986 0.43531 0.54714 0.0
O550 O 0.50854 0.44383 0.36381 0.0
O551 O 0.54011 0.47115 0.39076 0.0
H552 H 0.62105 0.5101 0.30702 0.0
H553 H 0.6591 0.54355 0.29089 0.0
H554 H 0.68253 0.52865 0.45971 0.0
H555 H 0.64464 0.49506 0.47499 0.0
H556 H 0.49151 0.39444 0.52236 0.0
H557 H 0.46631 0.35383 0.49991 0.0
H558 H 0.40826 0.3647 0.50097 0.0
H559 H 0.43373 0.40542 0.52217 0.0
Ho560 Ho 0.66041 0.12943 0.4308 0.0
Ho561 Ho 0.67399 0.09791 0.46351 0.0
C562 C 0.62084 0.08162 0.49239 0.0
C563 C 0.64044 0.15323 0.40328 0.0
C564 C 0.61813 0.15319 0.39465 0.0
C565 C 0.60475 0.14468 0.34117 0.0
C566 C 0.58548 0.14739 0.33104 0.0
C567 C 0.57898 0.15892 0.37369 0.0
C568 C 0.59226 0.16712 0.42751 0.0
C569 C 0.61142 0.16433 0.43769 0.0
C570 C 0.69652 0.14773 0.51701 0.0
C571 C 0.70844 0.14021 0.37783 0.0
C572 C 0.69105 0.0768 0.52238 0.0
C573 C 0.71572 0.08613 0.53081 0.0
C574 C 0.73041 0.10996 0.52582 0.0
C575 C 0.75379 0.11911 0.51537 0.0
C576 C 0.76283 0.10446 0.51031 0.0
C577 C 0.74841 0.08074 0.52075 0.0
C578 C 0.72494 0.07161 0.53046 0.0
C579 C 0.65608 0.08704 0.34817 0.0
O580 O 0.6269 0.1028 0.47582 0.0
O581 O 0.63643 0.0751 0.49106 0.0
O582 O 0.64615 0.15073 0.45883 0.0
O583 O 0.64707 0.1435 0.36236 0.0
O584 O 0.6945 0.15829 0.47006 0.0
O585 O 0.67854 0.12784 0.51696 0.0
O586 O 0.70718 0.12633 0.42251 0.0
O587 O 0.68971 0.14094 0.36286 0.0
O588 O 0.68443 0.07227 0.46552 0.0
O589 O 0.68248 0.08803 0.5499 0.0
O590 O 0.67549 0.08919 0.36551 0.0
O591 O 0.64795 0.09342 0.39245 0.0
H592 H 0.60944 0.13636 0.30628 0.0
H593 H 0.5761 0.14103 0.28857 0.0
H594 H 0.58789 0.1758 0.4621 0.0
H595 H 0.62139 0.17144 0.47904 0.0
H596 H 0.72348 0.12132 0.52553 0.0
H597 H 0.76443 0.13731 0.50653 0.0
H598 H 0.75483 0.06894 0.51551 0.0
H599 H 0.71385 0.05318 0.53323 0.0
Ho600 Ho 0.90985 0.63226 0.754 0.0
Ho601 Ho 0.95996 0.66741 0.73608 0.0
C602 C 0.92135 0.68149 0.69513 0.0
C603 C 0.8666 0.60843 0.78528 0.0
C604 C 0.8443 0.60813 0.79615 0.0
C605 C 0.83927 0.61541 0.85155 0.0
C606 C 0.81725 0.61248 0.86257 0.0
C607 C 0.79939 0.6019 0.81892 0.0
C608 C 0.80462 0.59487 0.76339 0.0
C609 C 0.82658 0.59791 0.75232 0.0
C610 C 0.92914 0.61667 0.662 0.0
C611 C 0.94649 0.61967 0.80639 0.0
C612 C 0.99956 0.69048 0.68629 0.0
C613 C 1.01403 0.68054 0.67294 0.0
C614 C 1.00337 0.65657 0.66981 0.0
C615 C 1.01582 0.64545 0.6797 0.0
C616 C 1.03928 0.6583 0.69126 0.0
C617 C 1.05047 0.68247 0.6877 0.0
C618 C 1.03783 0.69356 0.67932 0.0
C619 C 0.9456 0.67413 0.84656 0.0
O620 O 0.90553 0.66013 0.70814 0.0
O621 O 0.94352 0.68822 0.70146 0.0
O622 O 0.87414 0.61154 0.72887 0.0
O623 O 0.88342 0.61773 0.82537 0.0
O624 O 0.90796 0.60611 0.68002 0.0
O625 O 0.9375 0.63511 0.69258 0.0
O626 O 0.9617 0.63639 0.77071 0.0
O627 O 0.9261 0.61759 0.81684 0.0
O628 O 0.99621 0.69144 0.74499 0.0
O629 O 0.98051 0.68199 0.6545 0.0
O630 O 0.96464 0.67422 0.83608 0.0
O631 O 0.93365 0.66805 0.7966 0.0
H632 H 0.8522 0.62297 0.887 0.0
H633 H 0.81405 0.61793 0.90627 0.0
H634 H 0.79169 0.58696 0.72809 0.0
H635 H 0.82955 0.59173 0.70945 0.0
H636 H 0.985 0.64653 0.66527 0.0
H637 H 1.00697 0.62696 0.68364 0.0
H638 H 1.06859 0.6928 0.69814 0.0
H639 H 1.0463 0.71206 0.68304 0.0
Ho640 Ho 0.48675 0.30064 0.75853 0.0
Ho641 Ho 0.45411 0.31317 0.72792 0.0
C642 C 0.43899 0.26017 0.6986 0.0
C643 C 0.51227 0.28265 0.78581 0.0
C644 C 0.5136 0.26141 0.79718 0.0
C645 C 0.53484 0.26373 0.8137 0.0
C646 C 0.53742 0.24443 0.82242 0.0
C647 C 0.51877 0.22199 0.81493 0.0
C648 C 0.49733 0.21968 0.79875 0.0
C649 C 0.4948 0.23913 0.78978 0.0
C650 C 0.50388 0.33677 0.67255 0.0
C651 C 0.49656 0.34833 0.81176 0.0
C652 C 0.43182 0.32916 0.67009 0.0
C653 C 0.441 0.35365 0.65885 0.0
C654 C 0.46488 0.36836 0.66167 0.0
C655 C 0.47415 0.39184 0.67031 0.0
C656 C 0.45958 0.40095 0.67553 0.0
C657 C 0.43574 0.38645 0.66732 0.0
C658 C 0.4265 0.36289 0.65938 0.0
C659 C 0.44385 0.29419 0.84293 0.0
O660 O 0.46028 0.26655 0.71518 0.0
O661 O 0.43215 0.27553 0.69989 0.0
O662 O 0.50807 0.28654 0.72991 0.0
O663 O 0.50252 0.28917 0.82693 0.0
O664 O 0.51491 0.33492 0.71853 0.0
O665 O 0.48416 0.31858 0.67319 0.0
O666 O 0.48234 0.34676 0.76768 0.0
O667 O 0.49762 0.32978 0.82662 0.0
O668 O 0.42847 0.32361 0.7279 0.0
O669 O 0.44247 0.32007 0.64206 0.0
O670 O 0.44466 0.31308 0.82635 0.0
O671 O 0.4508 0.28719 0.79742 0.0
H672 H 0.54967 0.28065 0.81969 0.0
H673 H 0.55409 0.24719 0.83596 0.0
H674 H 0.48252 0.20283 0.79201 0.0
H675 H 0.47822 0.23675 0.77672 0.0
H676 H 0.47622 0.36142 0.66207 0.0
H677 H 0.49245 0.40256 0.67758 0.0
H678 H 0.42402 0.39296 0.67276 0.0
H679 H 0.40804 0.35178 0.65835 0.0
Ho680 Ho 0.81764 0.20877 0.76324 0.0
Ho681 Ho 0.80417 0.1639 0.73107 0.0
C682 C 0.85736 0.20075 0.70319 0.0
C683 C 0.83757 0.25249 0.79054 0.0
C684 C 0.85996 0.27461 0.79877 0.0
C685 C 0.87315 0.27962 0.8527 0.0
C686 C 0.89253 0.30153 0.86231 0.0
C687 C 0.89932 0.31932 0.81866 0.0
C688 C 0.88627 0.3141 0.7644 0.0
C689 C 0.86699 0.29222 0.75474 0.0
C690 C 0.7818 0.19117 0.67616 0.0
C691 C 0.76946 0.17178 0.81524 0.0
C692 C 0.78735 0.12575 0.6729 0.0
C693 C 0.76263 0.11083 0.66453 0.0
C694 C 0.74856 0.12075 0.66655 0.0
C695 C 0.72524 0.10749 0.67923 0.0
C696 C 0.7157 0.08401 0.68948 0.0
C697 C 0.72932 0.07368 0.68148 0.0
C698 C 0.75275 0.08708 0.66965 0.0
C699 C 0.82111 0.17041 0.84724 0.0
O700 O 0.85124 0.21588 0.71873 0.0
O701 O 0.84183 0.17866 0.70505 0.0
O702 O 0.83178 0.24428 0.73507 0.0
O703 O 0.83093 0.23612 0.83158 0.0
O704 O 0.7837 0.20369 0.72305 0.0
O705 O 0.79976 0.18921 0.67675 0.0
O706 O 0.77083 0.15922 0.77068 0.0
O707 O 0.78818 0.19113 0.83062 0.0
O708 O 0.79383 0.12784 0.72991 0.0
O709 O 0.79629 0.14551 0.6449 0.0
O710 O 0.8017 0.15342 0.82903 0.0
O711 O 0.82978 0.18508 0.80328 0.0
H712 H 0.8682 0.26678 0.8883 0.0
H713 H 0.90176 0.30469 0.90512 0.0
H714 H 0.89088 0.32698 0.72908 0.0
H715 H 0.85719 0.28926 0.713 0.0
H716 H 0.756 0.13905 0.66345 0.0
H717 H 0.71515 0.11577 0.68613 0.0
H718 H 0.72236 0.05557 0.69064 0.0
H719 H 0.76336 0.07917 0.66934 0.0
Ho720 Ho 0.45725 0.16288 0.23407 0.0
Ho721 Ho 0.48791 0.20952 0.26 0.0
C722 C 0.5028 0.17529 0.3125 0.0
C723 C 0.43569 0.12268 0.18401 0.0
C724 C 0.44463 0.10688 0.17641 0.0
C725 C 0.43014 0.0836 0.16428 0.0
C726 C 0.43866 0.06844 0.16889 0.0
C727 C 0.46187 0.07656 0.18473 0.0
C728 C 0.47664 0.10013 0.19018 0.0
C729 C 0.46778 0.11478 0.18925 0.0
C730 C 0.44698 0.17142 0.34824 0.0
C731 C 0.43953 0.19869 0.19966 0.0
C732 C 0.50917 0.2534 0.28604 0.0
C733 C 0.5074 0.27478 0.2935 0.0
C734 C 0.49897 0.27946 0.34746 0.0
C735 C 0.50035 0.30093 0.35649 0.0
C736 C 0.51047 0.31861 0.31223 0.0
C737 C 0.51843 0.31365 0.25782 0.0
C738 C 0.51694 0.29221 0.24872 0.0
C739 C 0.5064 0.19232 0.17277 0.0
O740 O 0.48796 0.16145 0.27154 0.0
O741 O 0.50298 0.19452 0.32638 0.0
O742 O 0.43272 0.12652 0.24075 0.0
O743 O 0.44624 0.14167 0.15248 0.0
O744 O 0.4507 0.15488 0.33392 0.0
O745 O 0.45242 0.18501 0.30186 0.0
O746 O 0.46082 0.2145 0.21216 0.0
O747 O 0.43343 0.17669 0.20533 0.0
O748 O 0.50726 0.24512 0.23083 0.0
O749 O 0.50035 0.23713 0.32756 0.0
O750 O 0.51769 0.20748 0.21442 0.0
O751 O 0.48568 0.18825 0.17654 0.0
H752 H 0.41207 0.07696 0.15535 0.0
H753 H 0.42657 0.05024 0.16552 0.0
H754 H 0.49444 0.1069 0.20294 0.0
H755 H 0.47896 0.13219 0.20228 0.0
H756 H 0.49183 0.26676 0.38361 0.0
H757 H 0.49422 0.30392 0.39937 0.0
H758 H 0.52605 0.32645 0.22205 0.0
H759 H 0.52392 0.28952 0.2069 0.0
Ho760 Ho 0.95773 0.31799 0.23659 0.0
Ho761 Ho 0.91034 0.30145 0.25915 0.0
C762 C 0.94386 0.35046 0.31286 0.0
C763 C 0.99889 0.33724 0.19153 0.0
C764 C 1.01549 0.362 0.18839 0.0
C765 C 1.00821 0.37746 0.20432 0.0
C766 C 1.02325 0.40084 0.20672 0.0
C767 C 1.04672 0.40926 0.20027 0.0
C768 C 1.05434 0.39398 0.18225 0.0
C769 C 1.03872 0.37045 0.17577 0.0
C770 C 0.94755 0.29846 0.35021 0.0
C771 C 0.92254 0.26455 0.20008 0.0
C772 C 0.86629 0.27873 0.28324 0.0
C773 C 0.84475 0.25578 0.29178 0.0
C774 C 0.83999 0.24302 0.34649 0.0
C775 C 0.81838 0.22322 0.3565 0.0
C776 C 0.80062 0.21561 0.31251 0.0
C777 C 0.80563 0.22819 0.25739 0.0
C778 C 0.82722 0.24785 0.2473 0.0
C779 C 0.9283 0.33735 0.17237 0.0
O780 O 0.95817 0.34967 0.27316 0.0
O781 O 0.92456 0.33134 0.32578 0.0
O782 O 0.99383 0.32895 0.24685 0.0
O783 O 0.98053 0.33023 0.15798 0.0
O784 O 0.96424 0.31883 0.33737 0.0
O785 O 0.9347 0.29065 0.30251 0.0
O786 O 0.90641 0.2696 0.21284 0.0
O787 O 0.94447 0.28071 0.20563 0.0
O788 O 0.8749 0.28457 0.22808 0.0
O789 O 0.8823 0.28657 0.3255 0.0
O790 O 0.91239 0.33305 0.21206 0.0
O791 O 0.93263 0.32089 0.17727 0.0
H792 H 0.99098 0.3715 0.21822 0.0
H793 H 1.01677 0.412 0.22066 0.0
H794 H 0.07247 0.39979 0.17798 0.0
H795 H 1.04492 0.35884 0.16443 0.0
H796 H 0.85276 0.24864 0.38244 0.0
H797 H 0.81535 0.21435 0.39989 0.0
H798 H 0.79277 0.22294 0.22182 0.0
H799 H 0.82998 0.25728 0.20494 0.0
Ho800 Ho 0.79888 0.66095 0.23516 0.0
Ho801 Ho 0.81551 0.63065 0.26084 0.0
C802 C 0.76653 0.61549 0.31438 0.0
C803 C 0.77927 0.68177 0.18619 0.0
C804 C 0.75438 0.67223 0.18019 0.0
C805 C 0.73977 0.64883 0.19195 0.0
C806 C 0.71626 0.63951 0.197 0.0
C807 C 0.70695 0.6539 0.19541 0.0
C808 C 0.72124 0.67725 0.17974 0.0
C809 C 0.74489 0.68637 0.17217 0.0
C810 C 0.8187 0.67201 0.34875 0.0
C811 C 0.85218 0.67941 0.1993 0.0
C812 C 0.83847 0.60963 0.2867 0.0
C813 C 0.86153 0.61122 0.29558 0.0
C814 C 0.873 0.6171 0.35248 0.0
C815 C 0.89282 0.61532 0.36252 0.0
C816 C 0.90182 0.60735 0.3163 0.0
C817 C 0.89053 0.60189 0.2591 0.0
C818 C 0.87081 0.60376 0.24903 0.0
C819 C 0.77966 0.61201 0.17382 0.0
O820 O 0.76718 0.63018 0.2734 0.0
O821 O 0.7857 0.61548 0.32782 0.0
O822 O 0.78657 0.68508 0.24253 0.0
O823 O 0.78786 0.67153 0.15411 0.0
O824 O 0.79817 0.66771 0.33505 0.0
O825 O 0.82631 0.66613 0.3021 0.0
O826 O 0.84727 0.65835 0.21322 0.0
O827 O 0.83599 0.68511 0.20442 0.0
O828 O 0.8325 0.61202 0.23133 0.0
O829 O 0.83058 0.61798 0.32828 0.0
O830 O 0.78372 0.60076 0.21532 0.0
O831 O 0.7962 0.63275 0.17764 0.0
H832 H 0.74658 0.63786 0.20178 0.0
H833 H 0.7058 0.62164 0.20994 0.0
H834 H 0.7146 0.68897 0.17946 0.0
H835 H 0.75584 0.70459 0.16428 0.0
H836 H 0.86629 0.62248 0.39005 0.0
H837 H 0.90061 0.61946 0.40753 0.0
H838 H 0.89684 0.59599 0.22179 0.0
H839 H 0.86241 0.5987 0.20486 0.0
Ho840 Ho 0.52115 0.10029 0.95739 0.0
Ho841 Ho 0.56764 0.13092 0.93172 0.0
C842 C 0.53354 0.1452 0.8764 0.0
C843 C 0.4808 0.07896 1.00656 0.0
C844 C 0.46512 0.08812 1.01175 0.0
C845 C 0.47352 0.11137 0.99884 0.0
C846 C 0.45905 0.12033 0.99325 0.0
C847 C 0.43542 0.10567 0.99544 0.0
C848 C 0.42672 0.08246 1.0121 0.0
C849 C 0.44157 0.07373 0.02025 0.0
C850 C 0.52966 0.0896 0.84337 0.0
C851 C 0.55677 0.08243 0.99189 0.0
C852 C 0.61162 0.15278 0.90681 0.0
C853 C 0.6332 0.15145 0.89865 0.0
C854 C 0.63805 0.14353 0.84404 0.0
C855 C 0.65967 0.14535 0.83437 0.0
C856 C 0.67732 0.15537 0.87866 0.0
C857 C 0.6722 0.16283 0.9337 0.0
C858 C 0.65062 0.16094 0.9434 0.0
C859 C 0.55001 0.1493 0.01836 0.0
O860 O 0.51971 0.13074 0.91807 0.0
O861 O 0.55277 0.14531 0.8633 0.0
O862 O 0.48487 0.07549 0.95049 0.0
O863 O 0.49964 0.08968 0.03852 0.0
O864 O 0.51341 0.09379 0.85765 0.0
O865 O 0.54332 0.09543 0.88974 0.0
O866 O 0.57264 0.10358 0.97806 0.0
O867 O 0.53479 0.07651 0.9873 0.0
O868 O 0.60312 0.15018 0.96201 0.0
O869 O 0.59552 0.14423 0.86487 0.0
O870 O 0.56501 0.16056 0.9763 0.0
O871 O 0.54625 0.12869 0.01509 0.0
H872 H 0.49123 0.12251 0.98874 0.0
H873 H 0.46616 0.13809 0.9795 0.0
H874 H 0.40842 0.07056 0.01281 0.0
H875 H 0.43457 0.05559 0.029 0.0
H876 H 0.62536 0.13647 0.8079 0.0
H877 H 0.66277 0.13961 0.791 0.0
H878 H 0.68498 0.17034 0.96952 0.0
H879 H 0.64777 0.16753 0.9857 0.0
Ho880 Ho 1.0202 0.4456 0.95722 0.0
Ho881 Ho 0.98837 0.46031 0.93211 0.0
C882 C 0.9753 0.41188 0.87822 0.0
C883 C 1.0424 0.42807 1.00929 0.0
C884 C 1.03269 0.40349 0.02114 0.0
C885 C 1.00911 0.38909 1.01228 0.0
C886 C 0.99927 0.36547 1.0111 0.0
C887 C 1.01332 0.35577 0.0132 0.0
C888 C 1.03692 0.36996 0.02651 0.0
C889 C 1.04655 0.39379 0.03069 0.0
C890 C 1.03006 0.46555 0.84347 0.0
C891 C 1.03673 0.49869 0.99192 0.0
C892 C 0.96573 0.48146 0.90558 0.0
C893 C 0.96677 0.50413 0.89613 0.0
C894 C 0.97661 0.51776 0.84355 0.0
C895 C 0.9747 0.53742 0.83235 0.0
C896 C 0.96265 0.54399 0.87298 0.0
C897 C 0.9533 0.53057 0.92615 0.0
C898 C 0.9553 0.51104 0.93741 0.0
C899 C 0.97065 0.42407 0.01795 0.0
O900 O 0.99028 0.41308 0.91909 0.0
O901 O 0.97461 0.4307 0.86472 0.0
O902 O 1.04438 0.43332 0.95129 0.0
O903 O 1.03294 0.43784 0.03987 0.0
O904 O 1.02829 0.446 0.85746 0.0
O905 O 1.02392 0.47254 0.8907 0.0
O906 O 1.01532 0.49288 0.9791 0.0
O907 O 1.04322 0.48311 0.98626 0.0
O908 O 0.96844 0.47595 0.96123 0.0
O909 O 0.97454 0.47397 0.86424 0.0
O910 O 0.95916 0.42775 0.9764 0.0
O911 O 0.99115 0.44118 0.01487 0.0
H912 H 0.99842 0.39618 1.00141 0.0
H913 H 0.9812 0.35508 1.00005 0.0
H914 H 1.04837 0.36301 0.02729 0.0
H915 H 1.06491 0.40458 0.03647 0.0
H916 H 0.98532 0.51295 0.81013 0.0
H917 H 0.98199 0.54702 0.79056 0.0
H918 H 0.94421 0.53504 0.95924 0.0
H919 H 0.94726 0.50091 0.97803 0.0
Ho920 Ho 0.67368 0.59768 0.95697 0.0
Ho921 Ho 0.65759 0.55071 0.93092 0.0
C922 C 0.7068 0.58522 0.8793 0.0
C923 C 0.69232 0.63803 1.00619 0.0
C924 C 0.71702 0.65398 0.01426 0.0
C925 C 0.72557 0.67717 0.02718 0.0
C926 C 0.74922 0.69252 0.02346 0.0
C927 C 0.76455 0.68468 1.00777 0.0
C928 C 0.75595 0.66117 1.00135 0.0
C929 C 0.73247 0.64633 1.00141 0.0
C930 C 0.65382 0.58869 0.84321 0.0
C931 C 0.62035 0.56197 0.99218 0.0
C932 C 0.63507 0.50683 0.90437 0.0
C933 C 0.61215 0.48517 0.89595 0.0
C934 C 0.59918 0.48046 0.84163 0.0
C935 C 0.57941 0.45879 0.83169 0.0
C936 C 0.57201 0.4409 0.87532 0.0
C937 C 0.5848 0.44588 0.93006 0.0
C938 C 0.60443 0.46751 0.94008 0.0
C939 C 0.69317 0.5681 0.01865 0.0
O940 O 0.70576 0.599 0.92032 0.0
O941 O 0.68777 0.56603 0.86493 0.0
O942 O 0.68569 0.63403 0.9493 0.0
O943 O 0.68386 0.61912 0.03811 0.0
O944 O 0.67417 0.60523 0.857 0.0
O945 O 0.64647 0.57522 0.89003 0.0
O946 O 0.62556 0.54605 0.9783 0.0
O947 O 0.63635 0.58395 0.98734 0.0
O948 O 0.64117 0.51504 0.95977 0.0
O949 O 0.64259 0.52318 0.86303 0.0
O950 O 0.68934 0.55281 0.97738 0.0
O951 O 0.67652 0.57215 0.01427 0.0
H952 H 0.71397 0.68361 0.03615 0.0
H953 H 0.75516 0.71067 0.02757 0.0
H954 H 0.76716 0.65459 0.98884 0.0
H955 H 0.72644 0.62901 0.98784 0.0
H956 H 0.60463 0.49331 0.80592 0.0
H957 H 0.57041 0.45584 0.78858 0.0
H958 H 0.57975 0.43296 0.96545 0.0
H959 H 0.61399 0.4702 0.98213 0.0
Ho960 Ho 0.65321 0.8853 0.76641 0.0
Ho961 Ho 0.68473 0.9319 0.79279 0.0
C962 C 0.70167 0.89541 0.82572 0.0
C963 C 0.63041 0.84141 0.74078 0.0
C964 C 0.63076 0.81936 0.73196 0.0
C965 C 0.63956 0.81478 0.67862 0.0
C966 C 0.63703 0.7929 0.66829 0.0
C967 C 0.6254 0.77472 0.71058 0.0
C968 C 0.61693 0.77952 0.76427 0.0
C969 C 0.61955 0.80137 0.77467 0.0
C970 C 0.63547 0.90324 0.85374 0.0
C971 C 0.63977 0.92054 0.71382 0.0
C972 C 0.70705 0.97203 0.84279 0.0
C973 C 0.69886 0.98843 0.85022 0.0
C974 C 0.71404 1.01164 0.86153 0.0
C975 C 0.70637 1.02745 0.85628 0.0
C976 C 0.68332 1.02009 0.84052 0.0
C977 C 0.66785 0.99664 0.83549 0.0
C978 C 0.67582 0.98123 0.8376 0.0
C979 C 0.69486 0.92286 0.67849 0.0
O980 O 0.68041 0.87978 0.81188 0.0
O981 O 0.70793 0.91748 0.82176 0.0
O982 O 0.63332 0.84979 0.79618 0.0
O983 O 0.63938 0.85762 0.69907 0.0
O984 O 0.62394 0.88824 0.81199 0.0
O985 O 0.656 0.9068 0.84992 0.0
O986 O 0.65449 0.93409 0.75545 0.0
O987 O 0.63933 0.90122 0.69951 0.0
O988 O 0.70991 0.96805 0.78608 0.0
O989 O 0.69602 0.9531 0.87434 0.0
O990 O 0.69142 0.93959 0.6929 0.0
O991 O 0.68881 0.9093 0.72509 0.0
H992 H 0.64796 0.82793 0.64402 0.0
H993 H 0.64361 0.79008 0.62596 0.0
H994 H 0.60816 0.76632 0.79856 0.0
H995 H 0.61223 0.80402 0.81588 0.0
H996 H 0.73202 1.01769 0.87032 0.0
H997 H 0.71896 1.04553 0.85929 0.0
H998 H 0.65014 0.99045 0.82283 0.0
H999 H 0.66409 0.96382 0.82537 0.0
Ho1000 Ho 0.2318 0.79238 0.76198 0.0
Ho1001 Ho 0.18509 0.77639 0.79007 0.0
C1002 C 0.22087 0.82983 0.8232 0.0
C1003 C 0.27561 0.81469 0.7343 0.0
C1004 C 0.29723 0.83759 0.72516 0.0
C1005 C 0.30323 0.84853 0.66752 0.0
C1006 C 0.32492 0.8682 0.65745 0.0
C1007 C 0.34159 0.8776 0.70443 0.0
C1008 C 0.33537 0.86682 0.7623 0.0
C1009 C 0.31368 0.84723 0.77239 0.0
C1010 C 0.21491 0.75683 0.84985 0.0
C1011 C 0.19695 0.74301 0.71205 0.0
C1012 C 0.1452 0.75799 0.8418 0.0
C1013 C 0.12966 0.73332 0.85137 0.0
C1014 C 0.13796 0.71821 0.84135 0.0
C1015 C 0.12341 0.69466 0.84041 0.0
C1016 C 0.09974 0.68571 0.8437 0.0
C1017 C 0.09127 0.70069 0.85709 0.0
C1018 C 0.10622 0.72439 0.86132 0.0
C1019 C 0.1933 0.7955 0.67554 0.0
O1020 O 0.23674 0.82454 0.80927 0.0
O1021 O 0.19889 0.81385 0.8188 0.0
O1022 O 0.26753 0.80876 0.78991 0.0
O1023 O 0.25914 0.80708 0.69332 0.0
O1024 O 0.22989 0.76062 0.80769 0.0
O1025 O 0.21085 0.77348 0.84613 0.0
O1026 O 0.18335 0.74411 0.75365 0.0
O1027 O 0.21603 0.76203 0.69675 0.0
O1028 O 0.14863 0.76418 0.78449 0.0
O1029 O 0.16437 0.76694 0.87258 0.0
O1030 O 0.17696 0.77517 0.69045 0.0
O1031 O 0.20705 0.80328 0.72166 0.0
H1032 H 0.29139 0.84151 0.62945 0.0
H1033 H 0.32886 0.87556 0.61191 0.0
H1034 H 0.34734 0.87344 0.80016 0.0
H1035 H 0.31005 0.83924 0.8172 0.0
H1036 H 0.15556 0.72461 0.82971 0.0
H1037 H 0.13044 0.6837 0.82938 0.0
H1038 H 0.07301 0.69445 0.85868 0.0
H1039 H 0.09932 0.73573 0.86796 0.0
Ho1040 Ho 0.32531 0.46095 0.76067 0.0
Ho1041 Ho 0.33988 0.42975 0.78982 0.0
C1042 C 0.28661 0.41303 0.82187 0.0
C1043 C 0.3043 0.48379 0.73352 0.0
C1044 C 0.28174 0.48321 0.72511 0.0
C1045 C 0.26745 0.47304 0.67381 0.0
C1046 C 0.24789 0.47529 0.66363 0.0
C1047 C 0.24206 0.48802 0.70395 0.0
C1048 C 0.25618 0.49776 0.75578 0.0
C1049 C 0.27559 0.49541 0.76605 0.0
C1050 C 0.36149 0.479 0.84703 0.0
C1051 C 0.37382 0.47371 0.70796 0.0
C1052 C 0.35799 0.40844 0.84272 0.0
C1053 C 0.38278 0.41755 0.84726 0.0
C1054 C 0.39169 0.40276 0.84891 0.0
C1055 C 0.41505 0.4114 0.83818 0.0
C1056 C 0.42964 0.43488 0.82487 0.0
C1057 C 0.42098 0.44988 0.8283 0.0
C1058 C 0.39771 0.44123 0.83945 0.0
C1059 C 0.32165 0.41926 0.67487 0.0
O1060 O 0.29242 0.43425 0.80696 0.0
O1061 O 0.30233 0.40665 0.81864 0.0
O1062 O 0.31024 0.48151 0.78903 0.0
O1063 O 0.31124 0.47437 0.69247 0.0
O1064 O 0.35844 0.49011 0.80309 0.0
O1065 O 0.34396 0.45882 0.8454 0.0
O1066 O 0.37263 0.4592 0.75052 0.0
O1067 O 0.35497 0.47423 0.69348 0.0
O1068 O 0.35013 0.40395 0.78692 0.0
O1069 O 0.35017 0.41978 0.87304 0.0
O1070 O 0.34182 0.42303 0.6907 0.0
O1071 O 0.31357 0.42527 0.72021 0.0
H1072 H 0.27165 0.46377 0.64062 0.0
H1073 H 0.23778 0.46767 0.62282 0.0
H1074 H 0.25233 0.50739 0.78865 0.0
H1075 H 0.28621 0.50373 0.80568 0.0
H1076 H 0.38043 0.38444 0.85422 0.0
H1077 H 0.42119 0.39933 0.83436 0.0
H1078 H 0.43185 0.46794 0.81813 0.0
H1079 H 0.3912 0.45294 0.83852 0.0
Ho1080 Ho 0.57572 0.96558 0.09556 0.0
Ho1081 Ho 0.62244 0.99634 0.06822 0.0
C1082 C 0.58648 1.01391 0.03433 0.0
C1083 C 0.53191 0.94378 0.12263 0.0
C1084 C 0.51014 0.94474 0.13116 0.0
C1085 C 0.50601 0.95444 0.18341 0.0
C1086 C 0.48429 0.95237 0.1937 0.0
C1087 C 0.46585 0.94026 0.15253 0.0
C1088 C 0.47027 0.93103 0.09974 0.0
C1089 C 0.49193 0.93322 0.08935 0.0
C1090 C 0.59294 0.94715 1.00814 0.0
C1091 C 0.61035 0.95133 0.14808 0.0
C1092 C 0.66279 1.01802 0.01887 0.0
C1093 C 0.67925 1.00977 0.01419 0.0
C1094 C 0.67186 0.98673 0.02752 0.0
C1095 C 0.68721 0.97875 0.03221 0.0
C1096 C 0.71072 0.99418 0.02886 0.0
C1097 C 0.71833 1.01722 1.01243 0.0
C1098 C 0.70262 1.02493 1.00489 0.0
C1099 C 0.61396 1.0067 0.18275 0.0
O1100 O 0.57064 0.99282 0.04889 0.0
O1101 O 0.60849 1.01985 0.03818 0.0
O1102 O 0.54005 0.94598 0.06711 0.0
O1103 O 0.54829 0.95283 0.16377 0.0
O1104 O 0.57792 0.93587 0.05017 0.0
O1105 O 0.59689 0.9678 1.01173 0.0
O1106 O 0.62399 0.9658 0.10607 0.0
O1107 O 0.59121 0.95127 0.16242 0.0
O1108 O 0.65859 1.02164 0.07467 0.0
O1109 O 0.64397 1.00659 0.98716 0.0
O1110 O 0.63019 1.00252 0.16809 0.0
O1111 O 0.60036 1.00108 0.13636 0.0
H1112 H 0.51938 0.96316 0.21727 0.0
H1113 H 0.48175 0.95958 0.23522 0.0
H1114 H 0.45687 0.9219 0.06625 0.0
H1115 H 0.49425 0.92526 0.04898 0.0
H1116 H 0.65433 0.97503 0.03858 0.0
H1117 H 0.68084 0.96106 0.04545 0.0
H1118 H 0.73646 1.02976 1.01073 0.0
H1119 H 0.70882 1.04291 0.99569 0.0
Ho1120 Ho 0.15393 0.63456 0.09116 0.0
Ho1121 Ho 0.12279 0.65059 0.06628 0.0
C1122 C 0.10501 0.59704 0.03265 0.0
C1123 C 0.17567 0.61238 0.11741 0.0
C1124 C 0.17438 0.58954 0.12751 0.0
C1125 C 0.16979 0.57903 0.18569 0.0
C1126 C 0.17182 0.55942 0.19654 0.0
C1127 C 0.17877 0.54966 0.1498 0.0
C1128 C 0.18298 0.56001 0.09138 0.0
C1129 C 0.18086 0.57954 0.08053 0.0
C1130 C 0.17165 0.66995 1.00292 0.0
C1131 C 0.16888 0.6839 0.14187 0.0
C1132 C 0.10038 0.66897 0.01938 0.0
C1133 C 0.10805 0.69358 0.01551 0.0
C1134 C 0.09258 0.70136 1.0052 0.0
C1135 C 0.09987 0.72472 1.0119 0.0
C1136 C 0.12281 0.74051 0.02834 0.0
C1137 C 0.13851 0.73281 0.03301 0.0
C1138 C 0.1309 0.70956 0.02946 0.0
C1139 C 0.11415 0.63243 0.18129 0.0
O1140 O 0.12621 0.60227 0.04584 0.0
O1141 O 0.0991 0.6131 0.03715 0.0
O1142 O 0.17272 0.61776 0.06183 0.0
O1143 O 0.16749 0.62048 0.15892 0.0
O1144 O 0.18333 0.66604 0.04336 0.0
O1145 O 0.15093 0.65341 1.00807 0.0
O1146 O 0.15381 0.68278 0.10143 0.0
O1147 O 0.16917 0.66493 0.15628 0.0
O1148 O 0.09711 0.66088 0.07493 0.0
O1149 O 0.11206 0.66216 0.98661 0.0
O1150 O 0.11776 0.65265 0.16673 0.0
O1151 O 0.11886 0.62399 0.13434 0.0
H1152 H 0.16523 0.58634 0.22356 0.0
H1153 H 0.16869 0.55239 0.24245 0.0
H1154 H 0.18807 0.55308 0.05372 0.0
H1155 H 0.18494 0.58721 0.03532 0.0
H1156 H 0.07471 0.68933 0.99552 0.0
H1157 H 0.08711 0.73001 1.00926 0.0
H1158 H 0.15613 0.74441 0.04628 0.0
H1159 H 0.14275 0.70406 0.04161 0.0
Ho1160 Ho 0.48296 0.54163 0.09107 0.0
Ho1161 Ho 0.46925 0.49549 0.06633 0.0
C1162 C 0.52215 0.5321 0.0335 0.0
C1163 C 0.50323 0.58567 0.1146 0.0
C1164 C 0.52562 0.60772 0.12432 0.0
C1165 C 0.53838 0.61243 0.17895 0.0
C1166 C 0.55773 0.63427 0.18981 0.0
C1167 C 0.56492 0.65232 0.14676 0.0
C1168 C 0.55228 0.64739 0.09178 0.0
C1169 C 0.53304 0.62557 0.08087 0.0
C1170 C 0.44766 0.52203 1.00284 0.0
C1171 C 0.43425 0.50555 0.14303 0.0
C1172 C 0.45019 0.45491 0.024 0.0
C1173 C 0.42607 0.43876 0.03956 0.0
C1174 C 0.40911 0.43251 0.99472 0.0
C1175 C 0.38596 0.42227 1.01074 0.0
C1176 C 0.37923 0.4177 0.07239 0.0
C1177 C 0.39645 0.42407 0.11737 0.0
C1178 C 0.41944 0.43439 0.1012 0.0
C1179 C 0.48614 0.50496 0.18241 0.0
O1180 O 0.51657 0.54752 0.05028 0.0
O1181 O 0.50626 0.51006 0.03388 0.0
O1182 O 0.49841 0.57696 0.05941 0.0
O1183 O 0.49552 0.5697 0.157 0.0
O1184 O 0.45008 0.53678 0.04425 0.0
O1185 O 0.46541 0.51982 1.00725 0.0
O1186 O 0.43604 0.49178 0.10316 0.0
O1187 O 0.45275 0.52534 0.15666 0.0
O1188 O 0.46485 0.46131 0.06918 0.0
O1189 O 0.45305 0.47222 0.99044 0.0
O1190 O 0.4663 0.48802 0.16669 0.0
O1191 O 0.49471 0.51841 0.13603 0.0
H1192 H 0.53314 0.5994 0.21413 0.0
H1193 H 0.56661 0.63718 0.2331 0.0
H1194 H 0.5572 0.66045 0.05684 0.0
H1195 H 0.52358 0.62282 0.03861 0.0
H1196 H 0.41406 0.43659 0.94764 0.0
H1197 H 0.3733 0.4177 0.975 0.0
H1198 H 0.39236 0.42048 0.16548 0.0
H1199 H 0.43202 0.43948 0.13755 0.0
Ho1200 Ho 0.11797 0.49103 0.57257 0.0
Ho1201 Ho 0.15286 0.54091 0.59041 0.0
C1202 C 0.16596 0.50454 0.6423 0.0
C1203 C 0.09518 0.45144 0.52298 0.0
C1204 C 0.10561 0.43742 0.50949 0.0
C1205 C 0.12963 0.44857 0.50685 0.0
C1206 C 0.14117 0.43651 0.51622 0.0
C1207 C 0.12873 0.41297 0.52666 0.0
C1208 C 0.10454 0.40134 0.5229 0.0
C1209 C 0.09301 0.41358 0.5151 0.0
C1210 C 0.11043 0.50503 0.68254 0.0
C1211 C 0.10374 0.52955 0.53098 0.0
C1212 C 0.17631 0.58412 0.62193 0.0
C1213 C 0.17607 0.60616 0.63231 0.0
C1214 C 0.16915 0.61129 0.68818 0.0
C1215 C 0.17162 0.63314 0.69868 0.0
C1216 C 0.18135 0.65072 0.654 0.0
C1217 C 0.18797 0.64538 0.59799 0.0
C1218 C 0.18541 0.62359 0.58745 0.0
C1219 C 0.16885 0.522 0.4983 0.0
O1220 O 0.14905 0.48931 0.60719 0.0
O1221 O 0.16803 0.52493 0.65273 0.0
O1222 O 0.0942 0.45472 0.5817 0.0
O1223 O 0.1033 0.47047 0.49116 0.0
O1224 O 0.11077 0.4862 0.67241 0.0
O1225 O 0.11693 0.51717 0.63281 0.0
O1226 O 0.12509 0.54533 0.54414 0.0
O1227 O 0.09706 0.50738 0.53729 0.0
O1228 O 0.17355 0.57663 0.56554 0.0
O1229 O 0.16702 0.56725 0.66195 0.0
O1230 O 0.17916 0.54317 0.51627 0.0
O1231 O 0.15038 0.51337 0.52897 0.0
H1232 H 0.13937 0.46697 0.50284 0.0
H1233 H 0.15964 0.44564 0.52045 0.0
H1234 H 0.09452 0.38313 0.53261 0.0
H1235 H 0.07447 0.40474 0.51855 0.0
H1236 H 0.16227 0.59859 0.72439 0.0
H1237 H 0.16651 0.63645 0.74276 0.0
H1238 H 0.19523 0.6581 0.56191 0.0
H1239 H 0.19128 0.62056 0.54415 0.0
Ho1240 Ho 0.62329 0.65013 0.57074 0.0
Ho1241 Ho 0.57618 0.63409 0.59352 0.0
C1242 C 0.60983 0.6827 0.64824 0.0
C1243 C 0.66445 0.66915 0.52558 0.0
C1244 C 0.68112 0.69388 0.52235 0.0
C1245 C 0.67394 0.70938 0.53863 0.0
C1246 C 0.68895 0.73277 0.54013 0.0
C1247 C 0.71239 0.74122 0.53272 0.0
C1248 C 0.71994 0.72588 0.51462 0.0
C1249 C 0.70429 0.70232 0.50883 0.0
C1250 C 0.61318 0.63062 0.68434 0.0
C1251 C 0.58763 0.59668 0.53446 0.0
C1252 C 0.53212 0.61209 0.61708 0.0
C1253 C 0.51039 0.58939 0.62565 0.0
C1254 C 0.50537 0.57679 0.68069 0.0
C1255 C 0.48363 0.55723 0.69066 0.0
C1256 C 0.46602 0.5497 0.64626 0.0
C1257 C 0.47127 0.56212 0.59086 0.0
C1258 C 0.493 0.58157 0.58083 0.0
C1259 C 0.59432 0.67 0.50685 0.0
O1260 O 0.62397 0.68193 0.60785 0.0
O1261 O 0.59058 0.66358 0.66123 0.0
O1262 O 0.65935 0.66088 0.58091 0.0
O1263 O 0.64609 0.66222 0.4921 0.0
O1264 O 0.62993 0.65094 0.67141 0.0
O1265 O 0.60023 0.62285 0.63679 0.0
O1266 O 0.57168 0.60189 0.54794 0.0
O1267 O 0.60963 0.61277 0.53943 0.0
O1268 O 0.54084 0.61767 0.56197 0.0
O1269 O 0.54805 0.61974 0.65954 0.0
O1270 O 0.57864 0.66595 0.54702 0.0
O1271 O 0.59841 0.65339 0.5114 0.0
H1272 H 0.65678 0.70345 0.5531 0.0
H1273 H 0.68249 0.74396 0.55394 0.0
H1274 H 0.73803 0.73169 0.50958 0.0
H1275 H 0.71042 0.69068 0.49718 0.0
H1276 H 0.51804 0.58237 0.71689 0.0
H1277 H 0.4804 0.54846 0.73426 0.0
H1278 H 0.4585 0.5569 0.55502 0.0
H1279 H 0.49598 0.59091 0.53821 0.0
Ho1280 Ho 0.46907 0.99784 0.56395 0.0
Ho1281 Ho 0.48271 0.96645 0.59544 0.0
C1282 C 0.43405 0.95456 0.64574 0.0
C1283 C 0.45246 1.01933 0.50504 0.0
C1284 C 0.42801 1.0086 0.4907 0.0
C1285 C 0.41493 0.98457 0.49228 0.0
C1286 C 0.39125 0.97338 0.49943 0.0
C1287 C 0.38035 0.98625 0.50588 0.0
C1288 C 0.39314 1.01029 0.49777 0.0
C1289 C 0.41693 1.02144 0.49065 0.0
C1290 C 0.48717 1.00882 0.6792 0.0
C1291 C 0.52222 1.01423 0.53457 0.0
C1292 C 0.50275 0.94284 0.62344 0.0
C1293 C 0.52509 0.94308 0.63196 0.0
C1294 C 0.53811 0.95107 0.68615 0.0
C1295 C 0.55742 0.94845 0.69609 0.0
C1296 C 0.56427 0.93754 0.65248 0.0
C1297 C 0.5514 0.9299 0.59793 0.0
C1298 C 0.53219 0.9326 0.58796 0.0
C1299 C 0.44665 0.94777 0.50938 0.0
O1300 O 0.43564 0.96881 0.60176 0.0
O1301 O 0.45283 0.95415 0.66203 0.0
O1302 O 0.45675 1.02201 0.56359 0.0
O1303 O 0.46333 1.0103 0.47781 0.0
O1304 O 0.46772 1.0066 0.66207 0.0
O1305 O 0.49521 1.00237 0.63487 0.0
O1306 O 0.51604 0.99288 0.54942 0.0
O1307 O 0.50674 1.02086 0.53756 0.0
O1308 O 0.49705 0.94526 0.56781 0.0
O1309 O 0.49607 0.95257 0.66427 0.0
O1310 O 0.44927 0.93719 0.55533 0.0
O1311 O 0.46433 0.96795 0.50956 0.0
H1312 H 0.42334 0.97461 0.49409 0.0
H1313 H 0.38184 0.95496 0.50606 0.0
H1314 H 0.38517 1.02071 0.50383 0.0
H1315 H 0.42674 1.04001 0.49057 0.0
H1316 H 0.53308 0.95887 0.72172 0.0
H1317 H 0.56652 0.95435 0.73909 0.0
H1318 H 0.55609 0.92171 0.56268 0.0
H1319 H 0.5225 0.9259 0.54603 0.0
Ho1320 Ho 0.18656 0.43023 0.2944 0.0
Ho1321 Ho 0.23157 0.46131 0.26115 0.0
C1322 C 0.19466 0.47324 0.21172 0.0
C1323 C 0.14888 0.40905 0.35512 0.0
C1324 C 0.13516 0.41975 0.36944 0.0
C1325 C 0.14599 0.44377 0.36673 0.0
C1326 C 0.13336 0.45478 0.35885 0.0
C1327 C 0.1096 0.44173 0.35263 0.0
C1328 C 0.09849 0.41778 0.36229 0.0
C1329 C 0.11126 0.40681 0.37019 0.0
C1330 C 0.19287 0.41902 0.17881 0.0
C1331 C 0.2231 0.41355 0.32256 0.0
C1332 C 0.27514 0.48431 0.2317 0.0
C1333 C 0.297 0.48355 0.22291 0.0
C1334 C 0.30247 0.47709 0.16678 0.0
C1335 C 0.32425 0.47936 0.15684 0.0
C1336 C 0.34149 0.48843 0.20239 0.0
C1337 C 0.33581 0.4945 0.25881 0.0
C1338 C 0.31404 0.49213 0.26881 0.0
C1339 C 0.21474 0.48035 0.34765 0.0
O1340 O 0.18216 0.45921 0.25625 0.0
O1341 O 0.21376 0.47354 0.19504 0.0
O1342 O 0.1501 0.40598 0.29663 0.0
O1343 O 0.16897 0.41838 0.38147 0.0
O1344 O 0.17583 0.4214 0.19676 0.0
O1345 O 0.20762 0.42538 0.22254 0.0
O1346 O 0.23835 0.43484 0.30741 0.0
O1347 O 0.20104 0.40706 0.32 0.0
O1348 O 0.26728 0.48234 0.28747 0.0
O1349 O 0.25851 0.47459 0.19142 0.0
O1350 O 0.22773 0.49079 0.30125 0.0
O1351 O 0.21219 0.46016 0.34757 0.0
H1352 H 0.16434 0.4538 0.36431 0.0
H1353 H 0.14225 0.47313 0.35106 0.0
H1354 H 0.08009 0.40722 0.35655 0.0
H1355 H 0.1026 0.38824 0.3712 0.0
H1356 H 0.29011 0.47083 0.12975 0.0
H1357 H 0.32782 0.47471 0.11244 0.0
H1358 H 0.34828 0.50126 0.29553 0.0
H1359 H 0.31076 0.49764 0.31235 0.0
Ho1360 Ho 0.68591 0.7781 0.28938 0.0
Ho1361 Ho 0.65401 0.79278 0.26627 0.0
C1362 C 0.64086 0.74459 0.21047 0.0
C1363 C 0.70813 0.76034 0.34008 0.0
C1364 C 0.69815 0.73578 0.35267 0.0
C1365 C 0.67448 0.72165 0.34466 0.0
C1366 C 0.66427 0.69798 0.34482 0.0
C1367 C 0.67797 0.68789 0.34761 0.0
C1368 C 0.70169 0.70188 0.3598 0.0
C1369 C 0.71173 0.72578 0.3626 0.0
C1370 C 0.6957 0.79866 0.17628 0.0
C1371 C 0.70266 0.83106 0.32575 0.0
C1372 C 0.63087 0.81363 0.24249 0.0
C1373 C 0.63143 0.8361 0.23372 0.0
C1374 C 0.63994 0.84925 0.17986 0.0
C1375 C 0.63756 0.86867 0.1695 0.0
C1376 C 0.6264 0.87551 0.21236 0.0
C1377 C 0.61828 0.86251 0.26665 0.0
C1378 C 0.62073 0.84319 0.27704 0.0
C1379 C 0.63656 0.75635 0.35138 0.0
O1380 O 0.65587 0.74566 0.25103 0.0
O1381 O 0.64021 0.76349 0.19777 0.0
O1382 O 0.70964 0.76531 0.28195 0.0
O1383 O 0.69922 0.77052 0.37121 0.0
O1384 O 0.69407 0.77912 0.18945 0.0
O1385 O 0.6895 0.80534 0.22401 0.0
O1386 O 0.68125 0.82532 0.31295 0.0
O1387 O 0.7091 0.81547 0.31951 0.0
O1388 O 0.6342 0.80826 0.29769 0.0
O1389 O 0.63948 0.80631 0.20015 0.0
O1390 O 0.62499 0.76004 0.31016 0.0
O1391 O 0.65704 0.77347 0.34825 0.0
H1392 H 0.66399 0.72896 0.33385 0.0
H1393 H 0.64611 0.68776 0.33464 0.0
H1394 H 0.71289 0.69463 0.36101 0.0
H1395 H 0.73014 0.73636 0.36777 0.0
H1396 H 0.64796 0.84424 0.14483 0.0
H1397 H 0.64384 0.87787 0.12671 0.0
H1398 H 0.60989 0.8672 0.30135 0.0
H1399 H 0.61366 0.83338 0.31869 0.0
Ho1400 Ho 0.33851 0.93641 0.28471 0.0
Ho1401 Ho 0.32414 0.88675 0.26663 0.0
C1402 C 0.37334 0.92355 0.21476 0.0
C1403 C 0.35464 0.97579 0.33517 0.0
C1404 C 0.37896 0.99 0.34979 0.0
C1405 C 0.38994 1.01386 0.34525 0.0
C1406 C 0.41375 1.02642 0.33827 0.0
C1407 C 0.42657 1.01507 0.3343 0.0
C1408 C 0.41571 0.99149 0.3439 0.0
C1409 C 0.39208 0.97911 0.35242 0.0
C1410 C 0.31708 0.92239 0.17455 0.0
C1411 C 0.28592 0.89738 0.32579 0.0
C1412 C 0.30518 0.84364 0.23483 0.0
C1413 C 0.28327 0.82132 0.22404 0.0
C1414 C 0.27083 0.81633 0.16883 0.0
C1415 C 0.25178 0.79431 0.15792 0.0
C1416 C 0.24469 0.77644 0.20151 0.0
C1417 C 0.25707 0.78162 0.25685 0.0
C1418 C 0.27596 0.80359 0.26781 0.0
C1419 C 0.35905 0.90587 0.35877 0.0
O1420 O 0.37153 0.93861 0.25026 0.0
O1421 O 0.35513 0.90314 0.20406 0.0
O1422 O 0.35075 0.97269 0.27625 0.0
O1423 O 0.34377 0.95663 0.36644 0.0
O1424 O 0.3361 0.94135 0.18496 0.0
O1425 O 0.31153 0.91018 0.22415 0.0
O1426 O 0.29172 0.88177 0.31265 0.0
O1427 O 0.30121 0.9196 0.31957 0.0
O1428 O 0.30963 0.85107 0.29131 0.0
O1429 O 0.31248 0.86052 0.19492 0.0
O1430 O 0.34835 0.88472 0.3407 0.0
O1431 O 0.34906 0.91439 0.32821 0.0
H1432 H 0.38006 1.02251 0.34188 0.0
H1433 H 0.42175 1.04465 0.32923 0.0
H1434 H 0.42527 0.9826 0.33949 0.0
H1435 H 0.38364 0.96069 0.35563 0.0
H1436 H 0.27606 0.82929 0.13345 0.0
H1437 H 0.24302 0.79112 0.11436 0.0
H1438 H 0.25218 0.76867 0.2921 0.0
H1439 H 0.28521 0.80654 0.31054 0.0
C1440 C 0.30404 0.0802 0.98998 0.0
C1441 C 0.28785 0.08368 0.02194 0.0
H1442 H 0.31289 0.05631 0.95204 0.0
C1443 C 0.26757 0.06391 0.04176 0.0
H1444 H 0.32002 0.09471 0.97466 0.0
C1445 C 0.26344 1.04159 0.02877 0.0
C1446 C 0.2795 1.03821 0.99582 0.0
H1447 H 0.25448 0.06563 0.06595 0.0
H1448 H 0.24738 1.02698 0.04329 0.0
C1449 C 0.29997 0.05796 0.97738 0.0
C1450 C 1.05815 0.26498 0.98346 0.0
C1451 C 0.07808 0.26438 1.00055 0.0
H1452 H 1.02137 0.24801 0.98243 0.0
C1453 C 0.07507 0.24498 0.03314 0.0
H1454 H 1.05956 0.27955 0.95865 0.0
C1455 C 1.05289 0.22661 0.04673 0.0
C1456 C 1.03291 0.22694 0.02803 0.0
H1457 H 0.08984 0.24364 0.04667 0.0
H1458 H 1.05147 0.21179 0.0703 0.0
C1459 C 1.03605 0.24665 0.99679 0.0
C1460 C 0.87 0.85141 0.02469 0.0
C1461 C 0.84978 0.83429 0.99669 0.0
H1462 H 0.90371 0.86159 0.05848 0.0
C1463 C 0.84838 0.81303 0.9846 0.0
H1464 H 0.87199 0.86808 0.03447 0.0
C1465 C 0.86676 0.80928 0.99807 0.0
C1466 C 0.88721 0.82659 0.02488 0.0
H1467 H 0.83321 0.79938 0.96314 0.0
H1468 H 0.86488 0.79272 0.98741 0.0
C1469 C 0.88832 0.84763 0.03859 0.0
C1470 C 1.06746 0.2408 0.49036 0.0
C1471 C 1.06443 0.25735 0.52188 0.0
H1472 H 0.09111 0.23109 0.45428 0.0
C1473 C 0.08439 0.27797 0.53824 0.0
H1474 H 1.05269 0.22462 0.47744 0.0
C1475 C 0.10648 0.28169 0.52526 0.0
C1476 C 0.10964 0.26498 0.49507 0.0
H1477 H 0.08302 0.29129 0.56227 0.0
H1478 H 0.12115 0.29782 0.53903 0.0
C1479 C 0.08966 0.24457 0.47707 0.0
C1480 C 0.83383 0.84653 0.53854 0.0
C1481 C 0.84832 0.86438 0.49839 0.0
H1482 H 0.82625 0.81518 0.58351 0.0
C1483 C 0.86635 0.86262 0.4704 0.0
H1484 H 0.81956 0.84676 0.56065 0.0
C1485 C 0.87004 0.8441 0.48336 0.0
C1486 C 0.85576 0.82654 0.52444 0.0
H1487 H 0.87816 0.87596 0.43977 0.0
H1488 H 0.88448 0.84387 0.46224 0.0
C1489 C 0.83748 0.82805 0.55113 0.0
C1490 C 0.2496 1.02773 0.47515 0.0
C1491 C 0.24988 1.00758 0.49242 0.0
H1492 H 0.26697 0.06471 0.47571 0.0
C1493 C 0.26988 1.0105 0.52155 0.0
H1494 H 0.2346 1.0265 0.45323 0.0
C1495 C 0.28851 1.03251 0.5342 0.0
C1496 C 0.288 0.05262 0.51853 0.0
H1497 H 0.27125 0.99572 0.53473 0.0
H1498 H 0.30327 1.03368 0.55739 0.0
C1499 C 0.26829 0.04982 0.48806 0.0
C1500 C 0.83635 1.0338 0.05194 0.0
C1501 C 0.85542 0.05369 0.02809 0.0
H1502 H 0.81788 0.99703 0.05914 0.0
C1503 C 0.87027 0.05054 0.98896 0.0
H1504 H 0.82464 1.03537 0.0827 0.0
C1505 C 0.86648 1.02838 0.97553 0.0
C1506 C 0.84777 1.00848 1.00101 0.0
H1507 H 0.88528 0.06526 0.97 0.0
H1508 H 0.87875 1.02694 0.94659 0.0
C1509 C 0.83265 1.01167 0.03901 0.0
C1510 C 0.08613 0.86015 0.96632 0.0
C1511 C 0.10616 0.86118 0.99027 0.0
H1512 H 1.0492 0.84228 0.96321 0.0
C1513 C 0.10317 0.84281 0.02784 0.0
H1514 H 0.08742 0.87392 0.93782 0.0
C1515 C 0.08112 0.82455 0.04212 0.0
C1516 C 1.06112 0.82389 0.01985 0.0
H1517 H 0.11791 0.84253 0.04677 0.0
H1518 H 0.07972 0.81129 0.07279 0.0
C1519 C 1.06403 0.84189 0.98095 0.0
C1520 C 0.2715 0.24303 0.997 0.0
C1521 C 0.29173 0.26012 0.02499 0.0
H1522 H 0.23787 0.23301 0.96288 0.0
C1523 C 0.29327 0.28148 0.03679 0.0
H1524 H 0.26941 0.22632 0.98741 0.0
C1525 C 0.27496 0.28531 0.0231 0.0
C1526 C 0.2545 0.26803 0.99626 0.0
H1527 H 0.3085 0.29518 0.05808 0.0
H1528 H 0.27689 0.3019 0.03356 0.0
C1529 C 0.25328 0.24693 0.9828 0.0
C1530 C 0.07301 0.84777 0.53442 0.0
C1531 C 0.07597 0.831 0.50385 0.0
H1532 H 1.04963 0.85801 0.56894 0.0
C1533 C 1.05599 0.81022 0.4888 0.0
H1534 H 0.08779 0.86408 0.54641 0.0
C1535 C 1.03389 0.80674 0.50127 0.0
C1536 C 1.03087 0.82382 0.53005 0.0
H1537 H 1.05741 0.79684 0.46527 0.0
H1538 H 1.01913 0.79062 0.48794 0.0
C1539 C 1.05092 0.84424 0.54732 0.0
C1540 C 0.30994 0.24888 0.48922 0.0
C1541 C 0.29461 0.23043 0.52658 0.0
H1542 H 0.31823 0.28071 0.44576 0.0
C1543 C 0.27564 0.23139 0.55097 0.0
H1544 H 0.32493 0.2492 0.4701 0.0
C1545 C 0.27182 0.24972 0.53709 0.0
C1546 C 0.28688 0.26784 0.49857 0.0
H1547 H 0.26321 0.21755 0.57934 0.0
H1548 H 0.25664 0.24931 0.5552 0.0
C1549 C 0.30618 0.26722 0.47568 0.0
C1550 C 0.86551 0.08194 0.50722 0.0
C1551 C 0.88575 0.08503 0.53544 0.0
H1552 H 0.83209 0.05837 0.47134 0.0
C1553 C 0.88641 0.06502 0.55166 0.0
H1554 H 0.86393 0.09665 0.49468 0.0
C1555 C 0.86796 1.04289 0.53836 0.0
C1556 C 0.84807 1.03988 0.50846 0.0
H1557 H 0.90159 0.06637 0.5728 0.0
H1558 H 0.86969 1.02815 0.54957 0.0
C1559 C 0.84701 0.05982 0.49436 0.0
C1560 C 0.93513 0.39908 0.37528 0.0
C1561 C 0.95594 0.41899 0.35915 0.0
H1562 H 0.91491 0.36214 0.3741 0.0
C1563 C 0.97305 0.41572 0.33177 0.0
H1564 H 0.92135 0.40063 0.39592 0.0
C1565 C 0.96934 0.39359 0.31959 0.0
C1566 C 0.94834 0.37371 0.33395 0.0
H1567 H 0.98947 0.43032 0.3196 0.0
H1568 H 0.98299 0.39214 0.29785 0.0
C1569 C 0.93138 0.37685 0.36278 0.0
C1570 C 0.74033 0.57689 0.36565 0.0
C1571 C 0.74336 0.59688 0.33634 0.0
H1572 H 0.71666 0.54316 0.39957 0.0
C1573 C 0.72346 0.59798 0.32213 0.0
H1574 H 0.75508 0.57516 0.37681 0.0
C1575 C 0.70137 0.57959 0.33493 0.0
C1576 C 0.69819 0.55929 0.36271 0.0
H1577 H 0.72489 0.61303 0.29997 0.0
H1578 H 0.68672 0.58137 0.32285 0.0
C1579 C 0.71814 0.55844 0.37869 0.0
C1580 C 0.52082 0.15003 0.31694 0.0
C1581 C 0.52138 0.17053 0.33409 0.0
H1582 H 0.53774 0.13018 0.31595 0.0
C1583 C 0.54079 0.18685 0.36666 0.0
H1584 H 0.50627 0.13689 0.29204 0.0
C1585 C 0.55915 0.183 0.38028 0.0
C1586 C 0.55884 0.16271 0.36164 0.0
H1587 H 0.54212 0.20294 0.38023 0.0
H1588 H 0.57396 0.19634 0.4039 0.0
C1589 C 0.53913 0.14621 0.33031 0.0
C1590 C 0.77222 0.61409 0.86434 0.0
C1591 C 0.77547 0.59796 0.83135 0.0
H1592 H 0.74863 0.6231 0.90342 0.0
C1593 C 0.75556 0.57797 0.8109 0.0
H1594 H 0.78685 0.62987 0.88015 0.0
C1595 C 0.73332 0.57404 0.82428 0.0
C1596 C 0.73018 0.59003 0.85828 0.0
H1597 H 0.7571 0.56493 0.78589 0.0
H1598 H 0.71859 0.55819 0.80922 0.0
C1599 C 0.75008 0.61023 0.87733 0.0
C1600 C 0.54596 0.18336 0.82329 0.0
C1601 C 0.52895 0.16365 0.85333 0.0
H1602 H 0.55614 0.21678 0.78699 0.0
C1603 C 0.50802 0.16277 0.86705 0.0
H1604 H 0.56231 0.18484 0.81203 0.0
C1605 C 0.5045 0.18123 0.85321 0.0
C1606 C 0.52181 0.20137 0.82526 0.0
H1607 H 0.49443 0.14795 0.89008 0.0
H1608 H 0.48842 0.17997 0.86661 0.0
C1609 C 0.54246 0.20189 0.80956 0.0
C1610 C 0.91925 0.36312 0.81034 0.0
C1611 C 0.91949 0.34322 0.83021 0.0
H1612 H 0.9363 0.40006 0.80905 0.0
C1613 C 0.93909 0.34648 0.86231 0.0
H1614 H 0.90452 0.36161 0.78612 0.0
C1615 C 0.95739 0.36862 0.87525 0.0
C1616 C 0.95689 0.38849 0.85686 0.0
H1617 H 0.94037 0.33186 0.87767 0.0
H1618 H 0.97184 0.37012 0.90092 0.0
C1619 C 0.93759 0.38534 0.82354 0.0
C1620 C 0.49698 0.34517 0.35574 0.0
C1621 C 0.51353 0.34226 0.32356 0.0
H1622 H 0.48758 0.36857 0.39517 0.0
C1623 C 0.53342 0.36235 0.30363 0.0
H1624 H 0.48126 0.33037 0.37126 0.0
C1625 C 0.537 0.3844 0.31729 0.0
C1626 C 0.5208 0.38726 0.35122 0.0
H1627 H 0.54677 0.36112 0.2793 0.0
H1628 H 0.55295 0.39924 0.30314 0.0
C1629 C 0.50049 0.36722 0.36893 0.0
C1630 C 0.75171 0.15759 0.37172 0.0
C1631 C 0.73174 0.15801 0.354 0.0
H1632 H 0.78856 0.17487 0.37331 0.0
C1633 C 0.73472 0.177 0.31938 0.0
H1634 H 0.75029 0.14338 0.39845 0.0
C1635 C 0.75684 0.19524 0.30492 0.0
C1636 C 0.77686 0.19528 0.32479 0.0
H1637 H 0.71994 0.17821 0.30515 0.0
H1638 H 0.75818 0.20977 0.27995 0.0
C1639 C 0.77382 0.1759 0.35779 0.0
C1640 C 0.92383 0.58568 0.30196 0.0
C1641 C 0.92234 0.60411 0.32813 0.0
H1642 H 0.94229 0.56725 0.29566 0.0
C1643 C 0.94049 0.61909 0.36684 0.0
H1644 H 0.91026 0.5735 0.27253 0.0
C1645 C 0.95902 0.61551 0.37981 0.0
C1646 C 0.96017 0.59676 0.355 0.0
H1647 H 0.94044 0.63368 0.38745 0.0
H1648 H 0.97223 0.62725 0.41078 0.0
C1649 C 0.94233 0.58204 0.31528 0.0
C1650 C 0.74319 0.18221 0.87382 0.0
C1651 C 0.74615 0.1664 0.83837 0.0
H1652 H 0.71975 0.19148 0.91344 0.0
C1653 C 0.72619 0.14636 0.81921 0.0
H1654 H 0.75799 0.19797 0.88907 0.0
C1655 C 0.7041 0.14261 0.8329 0.0
C1656 C 0.70106 0.15872 0.86679 0.0
H1657 H 0.72765 0.13388 0.79146 0.0
H1658 H 0.68938 0.12704 0.8164 0.0
C1659 C 0.72108 0.17843 0.88784 0.0
C1660 C 0.97251 0.60247 0.81581 0.0
C1661 C 0.95141 0.60131 0.82864 0.0
H1662 H 0.9927 0.58585 0.8192 0.0
C1663 C 0.93444 0.58146 0.85844 0.0
H1664 H 0.98603 0.61737 0.79296 0.0
C1665 C 0.93822 0.56324 0.87349 0.0
C1666 C 0.95911 0.5641 0.85914 0.0
H1667 H 0.91789 0.57967 0.86888 0.0
H1668 H 0.92439 0.54811 0.89482 0.0
C1669 C 0.97626 0.58418 0.83045 0.0
C1670 C 0.53226 0.41387 0.83012 0.0
C1671 C 0.5517 0.41707 0.86313 0.0
H1672 H 0.49972 0.39018 0.78979 0.0
C1673 C 0.55172 0.39709 0.88324 0.0
H1674 H 0.53116 0.42854 0.81433 0.0
C1675 C 0.53348 0.37492 0.86926 0.0
C1676 C 0.5144 0.37178 0.8348 0.0
H1677 H 0.56629 0.3985 0.90812 0.0
H1678 H 0.53475 0.3602 0.8838 0.0
C1679 C 0.51395 0.39169 0.81658 0.0
C1680 C 0.60139 0.73082 0.71586 0.0
C1681 C 0.62178 0.75091 0.69827 0.0
H1682 H 0.58155 0.69387 0.71465 0.0
C1683 C 0.63857 0.74794 0.66778 0.0
H1684 H 0.58784 0.73212 0.73884 0.0
C1685 C 0.63494 0.72593 0.65416 0.0
C1686 C 0.61434 0.70588 0.67016 0.0
H1687 H 0.65469 0.7627 0.65429 0.0
H1688 H 0.64832 0.72471 0.63001 0.0
C1689 C 0.59771 0.70872 0.70194 0.0
C1690 C 0.38521 0.90011 0.72111 0.0
C1691 C 0.36535 0.8981 0.69276 0.0
H1692 H 0.42208 0.91909 0.72939 0.0
C1693 C 0.36859 0.91575 0.65196 0.0
H1694 H 0.38377 0.88692 0.75222 0.0
C1695 C 0.39066 0.93427 0.63915 0.0
C1696 C 0.41051 0.93604 0.6663 0.0
H1697 H 0.35403 0.91531 0.6295 0.0
H1698 H 0.39222 0.94695 0.60623 0.0
C1699 C 0.40736 0.91867 0.70795 0.0
C1700 C 0.18308 0.47838 0.65115 0.0
C1701 C 0.18451 0.49963 0.6635 0.0
H1702 H 0.19947 0.45797 0.65355 0.0
C1703 C 0.20477 0.51669 0.69151 0.0
H1704 H 0.16789 0.4648 0.62961 0.0
C1705 C 0.22307 0.51281 0.70527 0.0
C1706 C 0.22191 0.49175 0.69134 0.0
H1707 H 0.20681 0.53336 0.7015 0.0
H1708 H 0.23848 0.52671 0.72526 0.0
C1709 C 0.20143 0.47454 0.66442 0.0
C1710 C 0.39998 0.91173 0.16432 0.0
C1711 C 0.3968 0.92861 0.19345 0.0
H1712 H 0.42363 0.90187 0.1295 0.0
C1713 C 0.41662 0.94974 0.20673 0.0
H1714 H 0.38534 0.89515 0.15355 0.0
C1715 C 0.4388 0.95361 0.19334 0.0
C1716 C 0.44203 0.93656 0.16529 0.0
H1717 H 0.41502 0.96318 0.22914 0.0
H1718 H 0.45344 0.97007 0.20501 0.0
C1719 C 0.42213 0.91564 0.15039 0.0
C1720 C 0.16788 0.51189 0.20396 0.0
C1721 C 0.1821 0.52926 0.16229 0.0
H1722 H 0.16055 0.48102 0.25113 0.0
C1723 C 0.19983 0.52711 0.13393 0.0
H1724 H 0.15385 0.51246 0.22645 0.0
C1725 C 0.20352 0.50867 0.14792 0.0
C1726 C 0.18951 0.49159 0.19045 0.0
H1727 H 0.21143 0.54009 0.10215 0.0
H1728 H 0.21773 0.50812 0.12641 0.0
C1729 C 0.17152 0.49349 0.21759 0.0
C1730 C 0.60342 0.71835 0.15402 0.0
C1731 C 0.62243 0.72129 0.18844 0.0
H1732 H 0.57063 0.69488 0.11461 0.0
C1733 C 0.62264 0.70127 0.20694 0.0
H1734 H 0.60236 0.73316 0.13936 0.0
C1735 C 0.60436 0.6792 0.19294 0.0
C1736 C 0.58506 0.67615 0.15961 0.0
H1737 H 0.63684 0.70258 0.23348 0.0
H1738 H 0.60544 0.66448 0.20842 0.0
C1739 C 0.58512 0.69621 0.13974 0.0
C1740 C 0.2081 0.71663 0.65645 0.0
C1741 C 0.19226 0.71963 0.69165 0.0
H1742 H 0.21739 0.69306 0.61767 0.0
C1743 C 0.17249 0.69967 0.71255 0.0
H1744 H 0.22364 0.73142 0.63999 0.0
C1745 C 0.16892 0.6776 0.7001 0.0
C1746 C 0.18492 0.67451 0.66587 0.0
H1747 H 0.15978 0.70103 0.73972 0.0
H1748 H 0.15348 0.6629 0.71735 0.0
C1749 C 0.20446 0.69447 0.64364 0.0
C1750 C 0.42226 0.52936 0.63758 0.0
C1751 C 0.44224 0.52946 0.65823 0.0
H1752 H 0.38533 0.51205 0.63629 0.0
C1753 C 0.43917 0.51016 0.69155 0.0
H1754 H 0.42367 0.54386 0.61235 0.0
C1755 C 0.41709 0.49181 0.70487 0.0
C1756 C 0.39714 0.49202 0.68592 0.0
H1757 H 0.45389 0.50917 0.70752 0.0
H1758 H 0.41567 0.47754 0.73117 0.0
C1759 C 0.40012 0.511 0.65133 0.0
C1760 C 0.62207 0.94602 0.71005 0.0
C1761 C 0.62148 0.9256 0.69201 0.0
H1762 H 0.60519 0.9659 0.7117 0.0
C1763 C 0.60225 0.90953 0.65845 0.0
H1764 H 0.63649 0.95894 0.73579 0.0
C1765 C 0.58402 0.91352 0.64478 0.0
C1766 C 0.58432 0.9337 0.66438 0.0
H1767 H 0.60094 0.89352 0.6442 0.0
H1768 H 0.5693 0.90036 0.62044 0.0
C1769 C 0.60387 0.94997 0.69661 0.0
C1770 C 0.38515 0.5115 0.21389 0.0
C1771 C 0.36535 0.49212 0.1906 0.0
H1772 H 0.42206 0.53095 0.21788 0.0
C1773 C 0.36869 0.4766 0.15485 0.0
H1774 H 0.38356 0.52408 0.24103 0.0
C1775 C 0.39089 0.48053 0.14184 0.0
C1776 C 0.41068 0.50021 0.16372 0.0
H1777 H 0.3541 0.46129 0.13668 0.0
H1778 H 0.39247 0.46826 0.11327 0.0
C1779 C 0.4074 0.51551 0.20052 0.0
C1780 C 0.60254 0.89544 0.21821 0.0
C1781 C 0.6228 0.89566 0.19985 0.0
H1782 H 0.58268 0.91251 0.2171 0.0
C1783 C 0.63939 0.91521 0.16815 0.0
H1784 H 0.58915 0.88073 0.24211 0.0
C1785 C 0.63564 0.93347 0.15394 0.0
C1786 C 0.61514 0.93297 0.17069 0.0
H1787 H 0.6554 0.91646 0.15404 0.0
H1788 H 0.6488 0.94791 0.12869 0.0
C1789 C 0.59876 0.91376 0.20382 0.0
C1790 C 0.20525 0.74927 0.1568 0.0
C1791 C 0.22476 0.75253 0.18922 0.0
H1792 H 0.17256 0.72567 0.11833 0.0
C1793 C 0.22503 0.73266 0.20928 0.0
H1794 H 0.20398 0.76389 0.14134 0.0
C1795 C 0.20673 0.71043 0.19606 0.0
C1796 C 0.18746 0.70727 0.1626 0.0
H1797 H 0.23972 0.73423 0.23385 0.0
H1798 H 0.20797 0.69572 0.21081 0.0
C1799 C 0.18699 0.72714 0.14395 0.0
C1800 C 0.38229 0.19822 0.17376 0.0
C1801 C 0.38915 0.22183 0.17085 0.0
H1802 H 0.39215 0.1724 0.18425 0.0
C1803 C 0.41285 0.23752 0.17611 0.0
H1804 H 0.36433 0.18538 0.16947 0.0
C1805 C 0.42893 0.22996 0.184 0.0
C1806 C 0.42208 0.20636 0.1868 0.0
H1807 H 0.41912 0.25577 0.17349 0.0
H1808 H 0.44689 0.24281 0.18819 0.0
C1809 C 0.39838 0.19065 0.18169 0.0
C1810 C 0.88433 0.199 0.18019 0.0
C1811 C 0.9001 0.19123 0.17175 0.0
H1812 H 0.87873 0.22737 0.19438 0.0
C1813 C 0.92366 0.20818 0.17103 0.0
H1814 H 0.86609 0.18684 0.18057 0.0
C1815 C 0.93108 0.23183 0.17889 0.0
C1816 C 0.91522 0.23954 0.18721 0.0
H1817 H 0.9365 0.20318 0.16421 0.0
H1818 H 0.9493 0.24407 0.17881 0.0
C1819 C 0.8917 0.22254 0.18766 0.0
C1820 C 0.89417 0.69085 0.1857 0.0
C1821 C 0.87704 0.69717 0.1858 0.0
H1822 H 0.92993 0.70131 0.17768 0.0
C1823 C 0.88444 0.72066 0.17754 0.0
H1824 H 0.88953 0.67309 0.1923 0.0
C1825 C 0.90799 0.73709 0.16937 0.0
C1826 C 0.92508 0.73069 0.16959 0.0
H1827 H 0.87204 0.72646 0.17784 0.0
H1828 H 0.91277 0.75487 0.16266 0.0
C1829 C 0.91762 0.70721 0.17779 0.0
C1830 C 0.21497 0.37285 0.34595 0.0
C1831 C 0.23087 0.39623 0.33514 0.0
H1832 H 0.20924 0.33887 0.3628 0.0
C1833 C 0.25431 0.40254 0.33257 0.0
H1834 H 0.19679 0.36704 0.34781 0.0
C1835 C 0.26152 0.38621 0.34068 0.0
C1836 C 0.2456 0.36284 0.35155 0.0
H1837 H 0.26723 0.42022 0.32388 0.0
H1838 H 0.27969 0.39202 0.33884 0.0
C1839 C 0.22217 0.35653 0.3541 0.0
C1840 C 0.74364 0.86388 0.34665 0.0
C1841 C 0.72002 0.8561 0.33929 0.0
H1842 H 0.77767 0.89243 0.36131 0.0
C1843 C 0.71334 0.87297 0.34077 0.0
H1844 H 0.74975 0.85175 0.34527 0.0
C1845 C 0.72949 0.89652 0.34933 0.0
C1846 C 0.75309 0.90432 0.35674 0.0
H1847 H 0.69547 0.86803 0.33487 0.0
H1848 H 0.72335 0.90864 0.35063 0.0
C1849 C 0.7598 0.88745 0.35537 0.0
C1850 C 0.25261 0.90485 0.34666 0.0
C1851 C 0.26077 0.88933 0.33931 0.0
H1852 H 0.22364 0.90974 0.36043 0.0
C1853 C 0.24413 0.86568 0.34004 0.0
H1854 H 0.26454 0.92314 0.3458 0.0
C1855 C 0.22045 0.85791 0.34771 0.0
C1856 C 0.21228 0.87342 0.35495 0.0
H1857 H 0.24934 0.85297 0.33408 0.0
H1858 H 0.20853 0.83962 0.34836 0.0
C1859 C 0.22891 0.89707 0.35452 0.0
C1860 C 0.75892 0.89586 0.84965 0.0
C1861 C 0.75212 0.87226 0.85126 0.0
H1862 H 0.74895 0.92164 0.84135 0.0
C1863 C 0.72842 0.85653 0.84594 0.0
H1864 H 0.77687 0.90871 0.85415 0.0
C1865 C 0.71229 0.86406 0.83911 0.0
C1866 C 0.71908 0.88765 0.83762 0.0
H1867 H 0.72222 0.83828 0.84764 0.0
H1868 H 0.69433 0.8512 0.83472 0.0
C1869 C 0.74277 0.90338 0.84291 0.0
C1870 C 0.25177 0.87183 0.83774 0.0
C1871 C 0.22826 0.85481 0.836 0.0
H1872 H 0.27716 0.90761 0.84691 0.0
C1873 C 0.21225 0.8624 0.84197 0.0
H1874 H 0.26482 0.867 0.83289 0.0
C1875 C 0.21943 0.88595 0.84943 0.0
C1876 C 0.24295 0.90296 0.85109 0.0
H1877 H 0.19404 0.85014 0.84033 0.0
H1878 H 0.2064 0.89079 0.85428 0.0
C1879 C 0.25895 0.89536 0.84526 0.0
C1880 C 0.23011 0.35616 0.85235 0.0
C1881 C 0.21317 0.3628 0.85215 0.0
H1882 H 0.26585 0.36617 0.84398 0.0
C1883 C 0.22094 0.38633 0.84333 0.0
H1884 H 0.22519 0.33836 0.85942 0.0
C1885 C 0.24456 0.40245 0.83485 0.0
C1886 C 0.26148 0.39579 0.8351 0.0
H1887 H 0.20878 0.39241 0.84335 0.0
H1888 H 0.24952 0.42027 0.82774 0.0
C1889 C 0.2537 0.37227 0.84396 0.0
C1890 C 0.92165 0.73853 0.66842 0.0
C1891 C 0.89803 0.73159 0.66696 0.0
H1892 H 0.94753 0.72873 0.67763 0.0
C1893 C 0.88238 0.7079 0.67268 0.0
H1894 H 0.93441 0.7565 0.66364 0.0
C1895 C 0.88997 0.69186 0.67996 0.0
C1896 C 0.91357 0.69876 0.68178 0.0
H1897 H 0.8641 0.70161 0.67116 0.0
H1898 H 0.87714 0.67391 0.68478 0.0
C1899 C 0.92926 0.72247 0.67587 0.0
C1900 C 0.38215 0.20363 0.66944 0.0
C1901 C 0.38864 0.1866 0.66927 0.0
H1902 H 0.39225 0.23932 0.67771 0.0
C1903 C 0.41221 0.19429 0.67778 0.0
H1904 H 0.36436 0.19884 0.66268 0.0
C1905 C 0.42846 0.21793 0.68622 0.0
C1906 C 0.42189 0.23492 0.68608 0.0
H1907 H 0.41819 0.18206 0.67744 0.0
H1908 H 0.44629 0.22288 0.69293 0.0
C1909 C 0.39834 0.22716 0.67762 0.0
C1910 C 0.91352 0.19995 0.67346 0.0
C1911 C 0.93059 0.22344 0.67322 0.0
H1912 H 0.87779 0.17452 0.682 0.0
C1913 C 0.92307 0.23942 0.68192 0.0
H1914 H 0.91824 0.18692 0.66652 0.0
C1915 C 0.89951 0.23216 0.69062 0.0
C1916 C 0.88248 0.20865 0.69052 0.0
H1917 H 0.93538 0.25761 0.68156 0.0
H1918 H 0.89466 0.2451 0.69757 0.0
C1919 C 0.89004 0.19274 0.68189 0.0
C1920 C 1.04684 0.52939 0.50038 0.0
C1921 C 1.05365 0.553 0.501 0.0
H1922 H 1.05669 0.50349 0.50862 0.0
C1923 C 0.07722 0.56859 0.50972 0.0
H1924 H 1.02898 0.51667 0.49335 0.0
C1925 C 0.09324 0.56098 0.51764 0.0
C1926 C 0.08647 0.53739 0.51729 0.0
H1927 H 0.08345 0.58686 0.50999 0.0
H1928 H 0.11107 0.57377 0.52467 0.0
C1929 C 1.06288 0.52175 0.50862 0.0
C1930 C 0.55649 0.55469 0.5222 0.0
C1931 C 0.58006 0.57161 0.52118 0.0
H1932 H 0.53067 0.51903 0.51476 0.0
C1933 C 0.59575 0.56378 0.51161 0.0
H1934 H 0.54364 0.55961 0.52987 0.0
C1935 C 0.58815 0.54011 0.50304 0.0
C1936 C 0.56455 0.52324 0.50422 0.0
H1937 H 0.61399 0.57592 0.51101 0.0
H1938 H 0.60089 0.53506 0.49522 0.0
C1939 C 0.54893 0.53111 0.51399 0.0
C1940 C 0.58793 1.04098 0.51563 0.0
C1941 C 0.59568 0.06444 0.50521 0.0
H1942 H 0.55939 1.0071 0.53216 0.0
C1943 C 0.57874 0.07102 0.5032 0.0
H1944 H 0.60013 1.03494 0.51705 0.0
C1945 C 0.55514 0.05489 0.51148 0.0
C1946 C 0.54739 1.03142 0.52185 0.0
H1947 H 0.58367 0.08876 0.49486 0.0
H1948 H 0.54294 0.06092 0.51006 0.0
C1949 C 0.56433 1.02484 0.52384 0.0
C1950 C 0.59498 0.05498 0.0135 0.0
C1951 C 0.57902 1.03146 0.02113 0.0
H1952 H 0.60077 0.0891 0.99935 0.0
C1953 C 0.55549 1.02502 0.02057 0.0
H1954 H 0.61319 0.0609 0.01419 0.0
C1955 C 0.54825 1.04133 1.01254 0.0
C1956 C 0.56422 0.06486 1.00495 0.0
H1957 H 0.54247 1.00721 0.02675 0.0
H1958 H 0.53004 1.03542 1.01185 0.0
C1959 C 0.58774 0.0713 1.0055 0.0
C1960 C 1.04748 0.5407 1.00645 0.0
C1961 C 1.05411 0.52377 1.00459 0.0
H1962 H 1.05772 0.57649 0.01591 0.0
C1963 C 0.07774 0.53151 1.01046 0.0
H1964 H 1.02957 0.53575 1.00161 0.0
C1965 C 0.09398 0.55507 0.01809 0.0
C1966 C 0.08739 0.57202 0.01999 0.0
H1967 H 0.08381 0.51935 1.00867 0.0
H1968 H 0.11188 0.55996 0.02284 0.0
C1969 C 1.06375 0.5643 0.01411 0.0
C1970 C 0.5643 0.56329 0.0219 0.0
C1971 C 0.54722 0.53979 0.02095 0.0
H1972 H 0.60019 0.58873 0.01435 0.0
C1973 C 0.55475 0.52386 1.01221 0.0
H1974 H 0.55948 0.57625 0.02898 0.0
C1975 C 0.57828 0.53108 1.00455 0.0
C1976 C 0.59538 0.55457 1.00528 0.0
H1977 H 0.54245 0.50566 1.01177 0.0
H1978 H 0.58303 0.51807 0.9975 0.0
C1979 C 0.58786 0.57053 0.01402 0.0
C1980 C 0.4071 0.26857 0.98838 0.0
C1981 C 0.38438 0.2577 0.96545 0.0
H1982 H 0.44343 0.28838 0.96877 0.0
C1983 C 0.38195 0.25656 0.90109 0.0
H1984 H 0.40993 0.27076 0.03736 0.0
C1985 C 0.40131 0.26643 0.86151 0.0
C1986 C 0.42398 0.27835 0.88451 0.0
H1987 H 0.36499 0.24926 0.88117 0.0
H1988 H 0.39846 0.26615 0.81259 0.0
C1989 C 0.42647 0.27886 0.9488 0.0
C1990 C 0.8661 0.15902 0.92935 0.0
C1991 C 0.85303 0.14463 0.97851 0.0
H1992 H 0.86688 0.17883 0.84963 0.0
C1993 C 0.83092 0.1418 0.98682 0.0
H1994 H 0.88306 0.1616 0.92045 0.0
C1995 C 0.82177 0.15168 0.94678 0.0
C1996 C 0.83415 0.16513 0.89603 0.0
H1997 H 0.82009 0.1311 0.02373 0.0
H1998 H 0.8043 0.14789 0.95426 0.0
C1999 C 0.8568 0.16906 0.88869 0.0
C2000 C 0.94709 0.69099 0.95223 0.0
C2001 C 0.94856 0.69364 0.88791 0.0
H2002 H 0.95612 0.7072 0.04114 0.0
C2003 C 0.95948 0.71644 0.86548 0.0
H2004 H 0.93975 0.67397 0.97183 0.0
C2005 C 0.96945 0.73567 0.90552 0.0
C2006 C 0.96858 0.73298 0.96979 0.0
H2007 H 0.96193 0.71946 0.8166 0.0
H2008 H 0.97901 0.75271 0.88594 0.0
C2009 C 0.95665 0.71021 0.99225 0.0
C2010 C 0.30094 0.3592 0.60825 0.0
C2011 C 0.28787 0.35784 0.55636 0.0
H2012 H 0.32081 0.37856 0.68549 0.0
C2013 C 0.28379 0.37638 0.54695 0.0
H2014 H 0.30481 0.34565 0.61722 0.0
C2015 C 0.29342 0.3959 0.58669 0.0
C2016 C 0.3074 0.39749 0.63712 0.0
H2017 H 0.27429 0.37643 0.50695 0.0
H2018 H 0.29085 0.41017 0.57612 0.0
C2019 C 0.31032 0.37837 0.64759 0.0
C2020 C 0.71756 0.91883 0.58725 0.0
C2021 C 0.71678 0.9299 0.64159 0.0
H2022 H 0.73674 0.92024 0.50578 0.0
C2023 C 0.73696 0.95057 0.65655 0.0
H2024 H 0.70245 0.90316 0.57299 0.0
C2025 C 0.75648 0.9604 0.61804 0.0
C2026 C 0.75713 0.95 0.56264 0.0
H2027 H 0.73734 0.95989 0.69735 0.0
H2028 H 0.7709 0.97691 0.63056 0.0
C2029 C 0.73741 0.92866 0.54857 0.0
C2030 C 0.15404 0.81708 0.61139 0.0
C2031 C 0.16544 0.83002 0.55894 0.0
H2032 H 0.15382 0.79709 0.68837 0.0
C2033 C 0.18781 0.83362 0.54825 0.0
H2034 H 0.13679 0.8135 0.6214 0.0
C2035 C 0.19776 0.82374 0.58725 0.0
C2036 C 0.18571 0.80996 0.63838 0.0
H2037 H 0.19713 0.84295 0.50781 0.0
H2038 H 0.2144 0.826 0.57561 0.0
C2039 C 0.1639 0.80745 0.65003 0.0
C2040 C 0.73806 0.8282 0.15777 0.0
C2041 C 0.71557 0.81455 0.1344 0.0
H2042 H 0.77454 0.84691 0.13933 0.0
C2043 C 0.7135 0.8124 0.07005 0.0
H2044 H 0.74069 0.82977 0.20688 0.0
C2045 C 0.73302 0.82282 0.03097 0.0
C2046 C 0.75561 0.8355 0.0544 0.0
H2047 H 0.69678 0.80155 0.04984 0.0
H2048 H 0.7305 0.81943 0.98226 0.0
C2049 C 0.75764 0.8382 0.11872 0.0
C2050 C 0.28093 0.94861 0.11912 0.0
C2051 C 0.28018 0.94575 0.05494 0.0
H2052 H 0.29182 0.94257 0.20683 0.0
C2053 C 0.28881 0.93187 0.03199 0.0
H2054 H 0.27524 0.95966 0.13893 0.0
C2055 C 0.29885 0.92233 0.07121 0.0
C2056 C 0.30019 0.92576 0.13529 0.0
H2057 H 0.28937 0.92975 0.98296 0.0
H2058 H 0.30683 0.91341 0.05079 0.0
C2059 C 0.29046 0.93865 0.15838 0.0
C2060 C 0.19194 0.38189 0.14047 0.0
C2061 C 0.1877 0.40033 0.13134 0.0
H2062 H 0.18494 0.34808 0.11147 0.0
C2063 C 0.17425 0.39869 0.07998 0.0
H2064 H 0.20172 0.38201 0.18004 0.0
C2065 C 0.16473 0.3794 0.04097 0.0
C2066 C 0.16787 0.36039 0.05112 0.0
H2067 H 0.17023 0.41214 0.07117 0.0
H2068 H 0.15399 0.37903 1.00352 0.0
C2069 C 0.18218 0.36224 0.10105 0.0
C2070 C 0.85787 0.71615 0.47363 0.0
C2071 C 0.85359 0.73458 0.46434 0.0
H2072 H 0.8507 0.68219 0.44548 0.0
C2073 C 0.83979 0.73262 0.41349 0.0
H2074 H 0.86791 0.71648 0.5128 0.0
C2075 C 0.82999 0.7131 0.37518 0.0
C2076 C 0.83321 0.69414 0.38548 0.0
H2077 H 0.8357 0.74602 0.40453 0.0
H2078 H 0.81899 0.71253 0.33815 0.0
C2079 C 0.84784 0.69629 0.4349 0.0
C2080 C 0.38759 0.15704 0.41705 0.0
C2081 C 0.38614 0.14406 0.4698 0.0
H2082 H 0.40763 0.17627 0.33795 0.0
C2083 C 0.40605 0.14297 0.48448 0.0
H2084 H 0.37275 0.15815 0.40302 0.0
C2085 C 0.42594 0.15327 0.44731 0.0
C2086 C 0.4273 0.16549 0.39337 0.0
H2087 H 0.40596 0.1332 0.52407 0.0
H2088 H 0.44015 0.15079 0.45968 0.0
C2089 C 0.4078 0.16759 0.37959 0.0
C2090 C 0.97388 0.28446 0.48876 0.0
C2091 C 0.97337 0.26384 0.47289 0.0
H2092 H 0.96612 0.31085 0.46438 0.0
C2093 C 0.96148 0.25306 0.4183 0.0
H2094 H 0.9829 0.29359 0.5297 0.0
C2095 C 0.95137 0.26305 0.38037 0.0
C2096 C 0.95294 0.2843 0.39539 0.0
H2097 H 0.96091 0.23747 0.40328 0.0
H2098 H 0.94353 0.25479 0.33747 0.0
C2099 C 0.96408 0.29443 0.45102 0.0
C2100 C 0.09421 0.63049 0.28117 0.0
C2101 C 0.09511 0.61902 0.22817 0.0
H2102 H 0.07503 0.63134 0.3586 0.0
C2103 C 0.07574 0.59707 0.21707 0.0
H2104 H 0.10838 0.64743 0.29157 0.0
C2105 C 1.056 0.58765 0.25625 0.0
C2106 C 1.05492 0.59985 0.30781 0.0
H2107 H 0.07526 0.58772 0.17626 0.0
H2108 H 1.04119 0.57134 0.2444 0.0
C2109 C 0.07478 0.62119 0.31983 0.0
C2110 C 0.49751 0.47746 0.32205 0.0
C2111 C 0.51866 0.47859 0.30943 0.0
H2112 H 0.47138 0.48503 0.29387 0.0
C2113 C 0.53074 0.49151 0.25727 0.0
H2114 H 0.48746 0.46779 0.36128 0.0
C2115 C 0.52137 0.50184 0.21803 0.0
C2116 C 0.49958 0.49959 0.22965 0.0
H2117 H 0.54687 0.49267 0.24498 0.0
H2118 H 0.53057 0.51041 0.17668 0.0
C2119 C 0.48823 0.48758 0.28322 0.0
C2120 C 0.61973 0.04989 0.3109 0.0
C2121 C 0.64226 0.06845 0.30076 0.0
H2122 H 0.59288 1.016 0.2826 0.0
C2123 C 0.65367 0.06699 0.24832 0.0
H2124 H 0.61041 0.04987 0.35132 0.0
C2125 C 0.64366 0.04774 0.20914 0.0
C2126 C 0.62169 1.02861 0.22027 0.0
H2127 H 0.67102 0.08053 0.23875 0.0
H2128 H 0.65374 0.04749 0.17082 0.0
C2129 C 0.60964 1.03028 0.27138 0.0
C2130 C 0.52354 1.04622 0.71532 0.0
C2131 C 0.50112 1.02756 0.72622 0.0
H2132 H 0.55038 0.08025 0.74268 0.0
C2133 C 0.48995 1.02904 0.77916 0.0
H2134 H 0.53269 1.04624 0.67451 0.0
C2135 C 0.50008 0.04837 0.81813 0.0
C2136 C 0.52193 0.06758 0.80625 0.0
H2137 H 0.47268 1.01545 0.78934 0.0
H2138 H 0.49016 0.04864 0.85685 0.0
C2139 C 0.53374 0.06591 0.75457 0.0
C2140 C 1.0675 0.4885 0.69812 0.0
C2141 C 0.09006 0.50145 0.72157 0.0
H2142 H 1.03126 0.46731 0.71701 0.0
C2143 C 0.09204 0.50474 0.78571 0.0
H2144 H 1.06503 0.48467 0.64961 0.0
C2145 C 0.07241 0.49504 0.82463 0.0
C2146 C 1.04996 0.48113 0.80131 0.0
H2147 H 0.10892 0.5137 0.80637 0.0
H2148 H 0.075 0.49707 0.87371 0.0
C2149 C 1.04795 0.47838 0.73709 0.0
C2150 C 0.61691 0.59516 0.7145 0.0
C2151 C 0.6185 0.61642 0.72952 0.0
H2152 H 0.62641 0.56955 0.73744 0.0
C2153 C 0.62964 0.62655 0.78515 0.0
H2154 H 0.60907 0.5869 0.67159 0.0
C2155 C 0.63943 0.61656 0.82288 0.0
C2156 C 0.63891 0.59595 0.80701 0.0
H2157 H 0.63169 0.64297 0.7985 0.0
H2158 H 0.64843 0.62569 0.86384 0.0
C2159 C 0.627 0.58516 0.75243 0.0
C2160 C 0.28163 0.2764 0.24074 0.0
C2161 C 0.27381 0.26917 0.30123 0.0
H2162 H 0.29694 0.27195 0.15875 0.0
C2163 C 0.27735 0.25142 0.32421 0.0
H2164 H 0.27892 0.28945 0.21986 0.0
C2165 C 0.28847 0.24181 0.2894 0.0
C2166 C 0.29669 0.24927 0.22928 0.0
H2167 H 0.2715 0.24483 0.36992 0.0
H2168 H 0.29055 0.2283 0.30987 0.0
C2169 C 0.29234 0.26639 0.20547 0.0
C2170 C 0.86108 1.04596 0.20369 0.0
C2171 C 0.86921 0.06831 0.22809 0.0
H2172 H 0.84363 1.00911 0.21825 0.0
C2173 C 0.86578 0.06905 0.29179 0.0
H2174 H 0.86365 1.04417 0.15564 0.0
C2175 C 0.85548 0.04872 0.3288 0.0
C2176 C 0.84647 1.02631 0.30403 0.0
H2177 H 0.87178 0.08549 0.31373 0.0
H2178 H 0.85431 0.05061 0.37745 0.0
C2179 C 0.84948 1.02555 0.2401 0.0
C2180 C 1.04689 0.81957 0.28677 0.0
C2181 C 1.04773 0.82309 0.22269 0.0
H2182 H 1.06521 0.82737 0.37275 0.0
C2183 C 1.07013 0.83695 0.19808 0.0
H2184 H 1.0304 0.80944 0.30886 0.0
C2185 C 0.0905 0.84607 0.23477 0.0
C2186 C 0.08964 0.84299 0.29906 0.0
H2187 H 0.072 0.84075 0.14964 0.0
H2188 H 0.10698 0.85634 0.21275 0.0
C2189 C 1.06717 0.8299 0.3239 0.0
C2190 C 0.86599 0.84356 0.6989 0.0
C2191 C 0.86894 0.82532 0.72104 0.0
H2192 H 0.85315 0.86701 0.71345 0.0
C2193 C 0.86047 0.81774 0.78108 0.0
H2194 H 0.87228 0.85047 0.65369 0.0
C2195 C 0.8495 0.82764 0.81608 0.0
C2196 C 0.84569 0.84521 0.79291 0.0
H2197 H 0.86252 0.80421 0.80152 0.0
H2198 H 0.84422 0.8216 0.86219 0.0
C2199 C 0.85476 0.85317 0.73359 0.0
C2200 C 0.29162 1.03225 0.7658 0.0
C2201 C 0.26962 1.02343 0.79215 0.0
H2202 H 0.32153 0.06206 0.72902 0.0
C2203 C 0.25902 1.0368 0.78071 0.0
H2204 H 0.29995 1.02213 0.76789 0.0
C2205 C 0.26974 0.05736 0.74456 0.0
C2206 C 0.29267 0.06717 0.72314 0.0
H2207 H 0.242 1.03106 0.79863 0.0
H2208 H 0.26016 0.066 0.73483 0.0
C2209 C 0.30359 0.05457 0.73834 0.0
C2210 C 1.06065 0.23445 0.74409 0.0
C2211 C 1.04949 0.24676 0.72646 0.0
H2212 H 0.088 0.23386 0.79543 0.0
C2213 C 1.06058 0.2698 0.74599 0.0
H2214 H 1.05312 0.21659 0.73125 0.0
C2215 C 0.08296 0.28079 0.77303 0.0
C2216 C 0.09318 0.26831 0.79542 0.0
H2217 H 1.05198 0.27945 0.73978 0.0
H2218 H 0.09212 0.29914 0.77734 0.0
C2219 C 0.08117 0.2446 0.78041 0.0
C2220 C 0.95854 0.60229 0.64651 0.0
C2221 C 0.94096 0.60606 0.62336 0.0
H2222 H 0.98195 0.58928 0.63169 0.0
C2223 C 0.93303 0.59717 0.564 0.0
H2224 H 0.96451 0.60745 0.6927 0.0
C2225 C 0.94262 0.58602 0.52924 0.0
C2226 C 0.96079 0.583 0.55149 0.0
H2227 H 0.91918 0.59881 0.54403 0.0
H2228 H 0.93571 0.57975 0.48405 0.0
C2229 C 0.96847 0.59144 0.61134 0.0
C2230 C 0.53438 0.40123 0.62013 0.0
C2231 C 0.53362 0.40037 0.55541 0.0
H2232 H 0.52723 0.38274 0.70578 0.0
C2233 C 0.52242 0.37793 0.52989 0.0
H2234 H 0.54306 0.41774 0.64272 0.0
C2235 C 0.51178 0.35757 0.56664 0.0
C2236 C 0.51311 0.35844 0.63132 0.0
H2237 H 0.52176 0.37605 0.48076 0.0
H2238 H 0.5033 0.34106 0.54404 0.0
C2239 C 0.52507 0.38087 0.65677 0.0
C2240 C 0.71727 0.15784 0.62327 0.0
C2241 C 0.71819 0.1575 0.55856 0.0
H2242 H 0.73568 0.16949 0.70894 0.0
C2243 C 0.74069 0.16847 0.53325 0.0
H2244 H 0.70074 0.15026 0.64574 0.0
C2245 C 0.76101 0.17823 0.57017 0.0
C2246 C 0.76009 0.17906 0.6348 0.0
H2247 H 0.74264 0.16937 0.48413 0.0
H2248 H 0.77755 0.18593 0.54767 0.0
C2249 C 0.73762 0.16896 0.66001 0.0
C2250 C 0.54073 0.19378 0.11325 0.0
C2251 C 0.51717 0.18166 0.12999 0.0
H2252 H 0.56873 0.1942 0.06276 0.0
C2253 C 0.50508 0.15872 0.10957 0.0
H2254 H 0.55119 0.21154 0.12677 0.0
C2255 C 0.51636 0.14762 0.08255 0.0
C2256 C 0.5392 0.15993 0.06114 0.0
H2257 H 0.48679 0.14921 0.11507 0.0
H2258 H 0.50699 0.1293 0.07761 0.0
C2259 C 0.55106 0.18357 0.077 0.0
C2260 C 0.92584 0.36764 0.10303 0.0
C2261 C 0.93909 0.35881 0.12968 0.0
H2262 H 0.92469 0.39325 0.04511 0.0
C2263 C 0.96294 0.37247 0.12014 0.0
H2264 H 0.90739 0.35821 0.10851 0.0
C2265 C 0.97323 0.3947 0.09217 0.0
C2266 C 0.96011 0.40257 0.06068 0.0
H2267 H 0.97366 0.36581 0.13417 0.0
H2268 H 0.99167 0.40537 0.09332 0.0
C2269 C 0.93596 0.38826 0.06708 0.0
C2270 C 0.74664 0.5775 0.11549 0.0
C2271 C 0.75826 0.60118 0.13084 0.0
H2272 H 0.71893 0.54929 0.06612 0.0
C2273 C 0.74768 0.61335 0.10857 0.0
H2274 H 0.75375 0.567 0.13037 0.0
C2275 C 0.72537 0.60206 0.08105 0.0
C2276 C 0.71462 0.57904 0.06139 0.0
H2277 H 0.7565 0.63167 0.11335 0.0
H2278 H 0.71655 0.61151 0.07456 0.0
C2279 C 0.72613 0.56706 0.07904 0.0
C2280 C 0.63765 0.93704 0.91805 0.0
C2281 C 0.6251 0.91426 0.89646 0.0
H2282 H 0.63659 0.96658 0.95282 0.0
C2283 C 0.60144 0.90259 0.91199 0.0
H2284 H 0.65596 0.94629 0.91262 0.0
C2285 C 0.59133 0.91301 0.9481 0.0
C2286 C 0.60367 0.93646 0.9655 0.0
H2287 H 0.59067 0.88499 0.89742 0.0
H2288 H 0.57348 0.9027 0.96111 0.0
C2289 C 0.62677 0.94839 0.94598 0.0
C2290 C 0.17072 0.70378 0.94684 0.0
C2291 C 0.18206 0.69145 0.96052 0.0
H2292 H 0.17349 0.73584 0.91741 0.0
C2293 C 0.20485 0.70156 0.938 0.0
H2294 H 0.15289 0.69614 0.95773 0.0
C2295 C 0.21511 0.72221 0.90227 0.0
C2296 C 0.20411 0.73527 0.89211 0.0
H2297 H 0.2147 0.69314 0.94666 0.0
H2298 H 0.23209 0.72826 0.88362 0.0
C2299 C 0.18217 0.72606 0.91911 0.0
C2300 C 0.42212 0.52211 0.91428 0.0
C2301 C 0.42651 0.50978 0.95971 0.0
H2302 H 0.39959 0.52251 0.84434 0.0
C2303 C 0.40863 0.48673 0.96855 0.0
H2304 H 0.43474 0.53993 0.90614 0.0
C2305 C 0.38765 0.47671 0.93393 0.0
C2306 C 0.38352 0.48905 0.88757 0.0
H2307 H 0.41052 0.47648 1.0037 0.0
H2308 H 0.37466 0.45916 0.94354 0.0
C2309 C 0.40151 0.512 0.87881 0.0
C2310 C 0.18392 0.49312 0.48326 0.0
C2311 C 0.17977 0.51042 0.45974 0.0
H2312 H 0.19723 0.46995 0.46887 0.0
C2313 C 0.18853 0.51822 0.40013 0.0
H2314 H 0.17889 0.48728 0.5296 0.0
C2315 C 0.19977 0.50867 0.36542 0.0
C2316 C 0.20301 0.49066 0.38793 0.0
H2317 H 0.18665 0.53188 0.37983 0.0
H2318 H 0.20584 0.51542 0.31996 0.0
C2319 C 0.19489 0.48327 0.44824 0.0
C2320 C 0.60191 0.72062 0.40065 0.0
C2321 C 0.62605 0.73495 0.39434 0.0
H2322 H 0.57333 0.69061 0.44221 0.0
C2323 C 0.6392 0.72719 0.42617 0.0
H2324 H 0.59063 0.72554 0.3784 0.0
C2325 C 0.62892 0.70503 0.45448 0.0
C2326 C 0.60507 0.69134 0.46383 0.0
H2327 H 0.65764 0.73787 0.42724 0.0
H2328 H 0.63965 0.69844 0.46886 0.0
C2329 C 0.5918 0.70007 0.43681 0.0
C2330 C 0.42373 0.94505 0.40911 0.0
C2331 C 0.4246 0.93748 0.46911 0.0
H2332 H 0.40358 0.94113 0.32802 0.0
C2333 C 0.40346 0.91922 0.49133 0.0
H2334 H 0.43931 0.95857 0.38869 0.0
C2335 C 0.38265 0.90958 0.45665 0.0
C2336 C 0.38155 0.91756 0.39737 0.0
H2337 H 0.40289 0.91231 0.53653 0.0
H2338 H 0.36721 0.89572 0.47671 0.0
C2339 C 0.40288 0.93514 0.37413 0.0
C2340 C 0.34103 0.38076 0.18329 0.0
C2341 C 0.33706 0.36117 0.15074 0.0
H2342 H 0.35558 0.41703 0.17776 0.0
C2343 C 0.33401 0.36077 0.08709 0.0
H2344 H 0.34252 0.38126 0.23271 0.0
C2345 C 0.34304 0.38157 0.05578 0.0
C2346 C 0.35482 0.40206 0.08946 0.0
H2347 H 0.32973 0.34544 0.06107 0.0
H2348 H 0.34536 0.38131 1.00679 0.0
C2349 C 0.34872 0.40132 0.15144 0.0
C2350 C 0.74945 0.99861 0.04112 0.0
C2351 C 0.72663 0.98856 0.06083 0.0
H2352 H 0.78425 1.01778 0.06947 0.0
C2353 C 0.72133 0.98074 0.12184 0.0
H2354 H 0.75389 1.00405 0.99393 0.0
C2355 C 0.73878 0.98879 0.16534 0.0
C2356 C 0.76124 1.00439 0.14719 0.0
H2357 H 0.70381 0.97225 0.13836 0.0
H2358 H 0.7342 0.9866 0.21345 0.0
C2359 C 0.76688 1.00629 0.08465 0.0
C2360 C 0.10973 0.7842 0.08083 0.0
C2361 C 0.11186 0.78098 0.14362 0.0
H2362 H 0.11201 0.77296 0.99091 0.0
C2363 C 0.12793 0.77483 0.1624 0.0
H2364 H 0.09789 0.78957 0.06517 0.0
C2365 C 0.13617 0.76539 0.11965 0.0
C2366 C 0.12811 0.76218 0.05878 0.0
H2367 H 0.13032 0.77288 0.21069 0.0
H2368 H 0.14502 0.75681 0.13696 0.0
C2369 C 0.11762 0.77442 0.03806 0.0
C2370 C 0.42752 0.33436 0.40393 0.0
C2371 C 0.42147 0.33466 0.4654 0.0
H2372 H 0.41521 0.32894 0.31173 0.0
C2373 C 0.39872 0.32009 0.48364 0.0
H2374 H 0.44509 0.34504 0.38887 0.0
C2375 C 0.38159 0.3104 0.43919 0.0
C2376 C 0.38743 0.31602 0.37721 0.0
H2377 H 0.39378 0.31963 0.5311 0.0
H2378 H 0.36391 0.30278 0.45409 0.0
C2379 C 0.41037 0.32504 0.35945 0.0
C2380 C 0.79267 0.10792 0.37183 0.0
C2381 C 0.80094 0.0936 0.39182 0.0
H2382 H 0.77432 0.12462 0.39879 0.0
C2383 C 0.80724 0.09448 0.4536 0.0
H2384 H 0.78837 0.10805 0.32403 0.0
C2385 C 0.79881 0.10365 0.49679 0.0
C2386 C 0.7845 0.112 0.47725 0.0
H2387 H 0.81435 0.08413 0.46997 0.0
H2388 H 0.79956 0.1 0.54484 0.0
C2389 C 0.78462 0.11745 0.41499 0.0
C2390 C 1.01017 0.70691 0.37627 0.0
C2391 C 1.02462 0.72967 0.39443 0.0
H2392 H 0.99389 0.67206 0.40516 0.0
C2393 C 1.02494 0.7355 0.45639 0.0
H2394 H 1.00922 0.70215 0.32851 0.0
C2395 C 1.01654 0.71824 0.50067 0.0
C2396 C 1.00766 0.6954 0.48225 0.0
H2397 H 1.03552 0.75308 0.47144 0.0
H2398 H 1.0209 0.72298 0.54826 0.0
C2399 C 1.00139 0.68966 0.42055 0.0
C2400 C 0.78971 0.69595 0.9173 0.0
C2401 C 0.78668 0.70071 0.97843 0.0
H2402 H 0.79545 0.70907 0.82595 0.0
C2403 C 0.79889 0.72347 0.99878 0.0
H2404 H 0.78145 0.67853 0.90025 0.0
C2405 C 0.80758 0.74109 0.95556 0.0
C2406 C 0.80341 0.7355 0.89308 0.0
H2407 H 0.79777 0.72758 0.04617 0.0
H2408 H 0.81265 0.75822 0.97123 0.0
C2409 C 0.79794 0.71353 0.87413 0.0
C2410 C 0.40822 0.10707 0.85475 0.0
C2411 C 0.3857 0.09319 0.87534 0.0
H2412 H 0.44328 0.12378 0.88103 0.0
C2413 C 0.38052 0.09472 0.93713 0.0
H2414 H 0.41248 0.10684 0.80698 0.0
C2415 C 0.39816 0.10383 0.98005 0.0
C2416 C 0.42066 0.11188 0.96027 0.0
H2417 H 0.36311 0.08489 0.95419 0.0
H2418 H 0.39388 0.10069 0.02827 0.0
C2419 C 0.42586 0.11675 0.8976 0.0
C2420 C 1.01429 0.31984 0.99895 0.0
C2421 C 1.00593 0.33416 0.98001 0.0
H2422 H 1.03278 0.30349 0.97082 0.0
C2423 C 0.99975 0.33371 0.91808 0.0
H2424 H 1.01837 0.31924 0.04671 0.0
C2425 C 1.00864 0.32533 0.87413 0.0
C2426 C 1.02284 0.31683 0.89297 0.0
H2427 H 0.99239 0.34389 0.90221 0.0
H2428 H 1.00791 0.32929 0.82632 0.0
C2429 C 1.0226 0.31087 0.95501 0.0
C2430 C 0.76897 0.78648 0.58358 0.0
C2431 C 0.76355 0.78406 0.64637 0.0
H2432 H 0.75564 0.77364 0.49437 0.0
C2433 C 0.7413 0.77812 0.66404 0.0
H2434 H 0.78625 0.7919 0.56856 0.0
C2435 C 0.72366 0.76761 0.62142 0.0
C2436 C 0.72863 0.76338 0.5616 0.0
H2437 H 0.73692 0.77694 0.71218 0.0
H2438 H 0.70627 0.75917 0.63885 0.0
C2439 C 0.75135 0.77567 0.5409 0.0
C2440 C 0.36035 0.97244 0.60293 0.0
C2441 C 0.35878 0.9767 0.5405 0.0
H2442 H 0.35775 0.98264 0.69387 0.0
C2443 C 0.34273 0.98298 0.52252 0.0
H2444 H 0.37198 0.96673 0.61806 0.0
C2445 C 0.33436 0.99198 0.56623 0.0
C2446 C 0.34232 0.9946 0.62715 0.0
H2447 H 0.34059 0.98554 0.47447 0.0
H2448 H 0.32568 1.00083 0.54971 0.0
C2449 C 0.35236 0.9818 0.64669 0.0
C2450 C 0.13418 0.37983 0.53999 0.0
C2451 C 0.13956 0.40176 0.55921 0.0
H2452 H 0.11784 0.34485 0.566 0.0
C2453 C 0.14416 0.40737 0.62158 0.0
H2454 H 0.13148 0.3754 0.49182 0.0
C2455 C 0.13568 0.38975 0.66477 0.0
C2456 C 0.12319 0.36702 0.64432 0.0
H2457 H 0.14928 0.42448 0.63742 0.0
H2458 H 0.13471 0.39388 0.71225 0.0
C2459 C 0.12618 0.36227 0.58316 0.0
C2460 C 1.0444 0.6428 0.78683 0.0
C2461 C 1.0507 0.64791 0.72494 0.0
H2462 H 1.05679 0.65144 0.87863 0.0
C2463 C 0.07297 0.65385 0.70738 0.0
H2464 H 1.02704 0.63734 0.80134 0.0
C2465 C 0.09003 0.66154 0.75194 0.0
C2466 C 0.08449 0.66368 0.81297 0.0
H2467 H 0.07798 0.65708 0.65961 0.0
H2468 H 0.10768 0.67021 0.73634 0.0
C2469 C 1.06151 0.65097 0.83142 0.0
C2470 C 0.47391 0.42428 0.76797 0.0
C2471 C 0.46757 0.42312 0.70615 0.0
H2472 H 0.46614 0.42995 0.85895 0.0
C2473 C 0.45913 0.43724 0.68559 0.0
H2474 H 0.48115 0.4141 0.78475 0.0
C2475 C 0.45092 0.44676 0.72836 0.0
C2476 C 0.45096 0.44164 0.79083 0.0
H2477 H 0.45477 0.43715 0.63775 0.0
H2478 H 0.44053 0.45382 0.71184 0.0
C2479 C 0.4653 0.43338 0.81078 0.0
C2480 C 0.69665 0.07684 0.78832 0.0
C2481 C 0.6946 0.07152 0.72557 0.0
H2482 H 0.69387 0.06319 0.87841 0.0
C2483 C 0.67844 0.04937 0.70672 0.0
H2484 H 0.70861 0.09399 0.80397 0.0
C2485 C 0.66982 1.03167 0.74957 0.0
C2486 C 0.67776 1.0364 0.81055 0.0
H2487 H 0.67615 1.04508 0.65843 0.0
H2488 H 0.66085 1.01426 0.73231 0.0
C2489 C 0.68835 0.05913 0.83119 0.0
C2490 C 0.45777 1.03807 0.19634 0.0
C2491 C 0.46809 0.06092 0.21578 0.0
H2492 H 0.43613 1.00354 0.22439 0.0
C2493 C 0.47514 0.06595 0.27744 0.0
H2494 H 0.45313 1.03376 0.14867 0.0
C2495 C 0.46499 0.04863 0.32113 0.0
C2496 C 0.44864 1.0266 0.30206 0.0
H2497 H 0.48419 0.08347 0.29386 0.0
H2498 H 0.46631 0.05333 0.36904 0.0
C2499 C 0.44807 1.02069 0.24008 0.0
C2500 C 1.05769 0.43474 0.29069 0.0
C2501 C 1.06283 0.43118 0.23039 0.0
H2502 H 1.07067 0.44293 0.38196 0.0
C2503 C 0.0856 0.44363 0.21025 0.0
H2504 H 1.04024 0.42615 0.30765 0.0
C2505 C 0.1031 0.45387 0.25346 0.0
C2506 C 0.0975 0.45074 0.31614 0.0
H2507 H 0.08999 0.44208 0.16343 0.0
H2508 H 0.1204 0.45939 0.23841 0.0
C2509 C 0.07521 0.44466 0.33384 0.0
C2510 C 0.67827 0.65149 0.33629 0.0
C2511 C 0.66992 0.66574 0.3166 0.0
H2512 H 0.69636 0.63467 0.30869 0.0
C2513 C 0.66302 0.66443 0.25503 0.0
H2514 H 0.68283 0.65148 0.38391 0.0
C2515 C 0.67136 0.6554 0.2114 0.0
C2516 C 0.68582 0.64721 0.23034 0.0
H2517 H 0.65556 0.67447 0.23865 0.0
H2518 H 0.6702 0.6588 0.16339 0.0
C2519 C 0.68606 0.64189 0.29273 0.0
loop_
_geom_bond_atom_site_label_1
_geom_bond_atom_site_label_2
_geom_bond_distance
_geom_bond_site_symmetry_2
_ccdc_geom_bond_type
Ho0 C3 2.811 . S
Ho0 O20 2.322 . S
Ho0 O22 2.378 . S
Ho0 O23 2.524 . S
Ho0 O24 2.381 . S
Ho0 O25 2.669 . S
Ho0 O27 2.346 . S
Ho0 O31 2.305 . S
Ho1 C12 2.811 . S
Ho1 O21 2.346 . S
Ho1 O25 2.305 . S
Ho1 O26 2.322 . S
Ho1 O28 2.378 . S
Ho1 O29 2.524 . S
Ho1 O30 2.381 . S
Ho1 O31 2.669 . S
C2 O20 1.259 . S
C2 O21 1.268 . S
C3 Ho0 2.811 . S
C3 C4 1.488 . S
C3 O22 1.215 . S
C3 O23 1.289 . S
C4 C3 1.488 . S
C4 C5 1.348 . S
C4 C9 1.413 . S
C5 C4 1.348 . S
C5 C6 1.442 . S
C5 H32 0.930 . S
C6 C5 1.442 . S
C6 C7 1.381 . S
C6 H33 0.931 . S
C7 C6 1.381 . S
C7 C8 1.321 . S
C8 C7 1.321 . S
C8 C9 1.403 . S
C8 H34 0.934 . S
C9 C4 1.413 . S
C9 C8 1.403 . S
C9 H35 0.930 . S
C10 O24 1.275 . S
C10 O25 1.256 . S
C11 O26 1.259 . S
C11 O27 1.268 . S
C12 Ho1 2.811 . S
C12 C13 1.488 . S
C12 O28 1.215 . S
C12 O29 1.289 . S
C13 C12 1.488 . S
C13 C14 1.348 . S
C13 C18 1.413 . S
C14 C13 1.348 . S
C14 C15 1.442 . S
C14 H36 0.930 . S
C15 C14 1.442 . S
C15 C16 1.381 . S
C15 H37 0.931 . S
C16 C15 1.381 . S
C16 C17 1.321 . S
C17 C16 1.321 . S
C17 C18 1.403 . S
C17 H38 0.934 . S
C18 C13 1.413 . S
C18 C17 1.403 . S
C18 H39 0.930 . S
C19 O30 1.275 . S
C19 O31 1.256 . S
O20 Ho0 2.322 . S
O20 C2 1.259 . S
O21 Ho1 2.346 . S
O21 C2 1.268 . S
O22 Ho0 2.378 . S
O22 C3 1.215 . S
O23 Ho0 2.524 . S
O23 C3 1.289 . S
O24 Ho0 2.381 . S
O24 C10 1.275 . S
O25 Ho0 2.669 . S
O25 Ho1 2.305 . S
O25 C10 1.256 . S
O26 Ho1 2.322 . S
O26 C11 1.259 . S
O27 Ho0 2.346 . S
O27 C11 1.268 . S
O28 Ho1 2.378 . S
O28 C12 1.215 . S
O29 Ho1 2.524 . S
O29 C12 1.289 . S
O30 Ho1 2.381 . S
O30 C19 1.275 . S
O31 Ho0 2.305 . S
O31 Ho1 2.669 . S
O31 C19 1.256 . S
H32 C5 0.930 . S
H33 C6 0.931 . S
H34 C8 0.934 . S
H35 C9 0.930 . S
H36 C14 0.930 . S
H37 C15 0.931 . S
H38 C17 0.934 . S
H39 C18 0.930 . S
Ho40 C43 2.811 . S
Ho40 O60 2.322 . S
Ho40 O62 2.378 . S
Ho40 O63 2.524 . S
Ho40 O64 2.381 . S
Ho40 O65 2.669 . S
Ho40 O67 2.346 . S
Ho40 O71 2.305 . S
Ho41 C52 2.811 . S
Ho41 O61 2.346 . S
Ho41 O65 2.305 . S
Ho41 O66 2.322 . S
Ho41 O68 2.378 . S
Ho41 O69 2.524 . S
Ho41 O70 2.381 . S
Ho41 O71 2.669 . S
C42 O60 1.259 . S
C42 O61 1.268 . S
C43 Ho40 2.811 . S
C43 C44 1.488 . S
C43 O62 1.215 . S
C43 O63 1.289 . S
C44 C43 1.488 . S
C44 C45 1.348 . S
C44 C49 1.413 . S
C45 C44 1.348 . S
C45 C46 1.442 . S
C45 H72 0.930 . S
C46 C45 1.442 . S
C46 C47 1.381 . S
C46 H73 0.931 . S
C47 C46 1.381 . S
C47 C48 1.321 . S
C48 C47 1.321 . S
C48 C49 1.403 . S
C48 H74 0.934 . S
C49 C44 1.413 . S
C49 C48 1.403 . S
C49 H75 0.930 . S
C50 O64 1.275 . S
C50 O65 1.256 . S
C51 O66 1.259 . S
C51 O67 1.268 . S
C52 Ho41 2.811 . S
C52 C53 1.488 . S
C52 O68 1.215 . S
C52 O69 1.289 . S
C53 C52 1.488 . S
C53 C54 1.348 . S
C53 C58 1.413 . S
C54 C53 1.348 . S
C54 C55 1.442 1_545 S
C54 H76 0.930 . S
C55 C54 1.442 1_565 S
C55 C56 1.381 . S
C55 H77 0.931 . S
C56 C55 1.381 . S
C56 C57 1.321 1_565 S
C57 C56 1.321 1_545 S
C57 C58 1.403 . S
C57 H78 0.934 . S
C58 C53 1.413 . S
C58 C57 1.403 . S
C58 H79 0.930 . S
C59 O70 1.275 . S
C59 O71 1.256 . S
O60 Ho40 2.322 . S
O60 C42 1.259 . S
O61 Ho41 2.346 . S
O61 C42 1.268 . S
O62 Ho40 2.378 . S
O62 C43 1.215 . S
O63 Ho40 2.524 . S
O63 C43 1.289 . S
O64 Ho40 2.381 . S
O64 C50 1.275 . S
O65 Ho40 2.669 . S
O65 Ho41 2.305 . S
O65 C50 1.256 . S
O66 Ho41 2.322 . S
O66 C51 1.259 . S
O67 Ho40 2.346 . S
O67 C51 1.268 . S
O68 Ho41 2.378 . S
O68 C52 1.215 . S
O69 Ho41 2.524 . S
O69 C52 1.289 . S
O70 Ho41 2.381 . S
O70 C59 1.275 . S
O71 Ho40 2.305 . S
O71 Ho41 2.669 . S
O71 C59 1.256 . S
H72 C45 0.930 . S
H73 C46 0.931 . S
H74 C48 0.934 . S
H75 C49 0.930 . S
H76 C54 0.930 . S
H77 C55 0.931 . S
H78 C57 0.934 . S
H79 C58 0.930 . S
Ho80 C83 2.811 . S
Ho80 O100 2.322 . S
Ho80 O102 2.378 . S
Ho80 O103 2.524 . S
Ho80 O104 2.381 . S
Ho80 O105 2.669 . S
Ho80 O107 2.346 . S
Ho80 O111 2.305 . S
Ho81 C92 2.811 . S
Ho81 O101 2.346 . S
Ho81 O105 2.305 . S
Ho81 O106 2.322 . S
Ho81 O108 2.378 . S
Ho81 O109 2.524 . S
Ho81 O110 2.381 . S
Ho81 O111 2.669 . S
C82 O100 1.259 . S
C82 O101 1.268 . S
C83 Ho80 2.811 . S
C83 C84 1.488 . S
C83 O102 1.215 . S
C83 O103 1.289 . S
C84 C83 1.488 . S
C84 C85 1.348 . S
C84 C89 1.413 . S
C85 C84 1.348 . S
C85 C86 1.442 . S
C85 H112 0.930 . S
C86 C85 1.442 . S
C86 C87 1.381 . S
C86 H113 0.931 . S
C87 C86 1.381 . S
C87 C88 1.321 . S
C88 C87 1.321 . S
C88 C89 1.403 . S
C88 H114 0.934 . S
C89 C84 1.413 . S
C89 C88 1.403 . S
C89 H115 0.930 . S
C90 O104 1.275 . S
C90 O105 1.256 . S
C91 O106 1.259 . S
C91 O107 1.268 . S
C92 Ho81 2.811 . S
C92 C93 1.488 . S
C92 O108 1.215 . S
C92 O109 1.289 . S
C93 C92 1.488 . S
C93 C94 1.348 . S
C93 C98 1.413 . S
C94 C93 1.348 . S
C94 C95 1.442 1_655 S
C94 H116 0.930 . S
C95 C94 1.442 1_455 S
C95 C96 1.381 . S
C95 H117 0.931 . S
C96 C95 1.381 . S
C96 C97 1.321 1_455 S
C97 C96 1.321 1_655 S
C97 C98 1.403 . S
C97 H118 0.934 . S
C98 C93 1.413 . S
C98 C97 1.403 . S
C98 H119 0.930 . S
C99 O110 1.275 . S
C99 O111 1.256 . S
O100 Ho80 2.322 . S
O100 C82 1.259 . S
O101 Ho81 2.346 . S
O101 C82 1.268 . S
O102 Ho80 2.378 . S
O102 C83 1.215 . S
O103 Ho80 2.524 . S
O103 C83 1.289 . S
O104 Ho80 2.381 . S
O104 C90 1.275 . S
O105 Ho80 2.669 . S
O105 Ho81 2.305 . S
O105 C90 1.256 . S
O106 Ho81 2.322 . S
O106 C91 1.259 . S
O107 Ho80 2.346 . S
O107 C91 1.268 . S
O108 Ho81 2.378 . S
O108 C92 1.215 . S
O109 Ho81 2.524 . S
O109 C92 1.289 . S
O110 Ho81 2.381 . S
O110 C99 1.275 . S
O111 Ho80 2.305 . S
O111 Ho81 2.669 . S
O111 C99 1.256 . S
H112 C85 0.930 . S
H113 C86 0.931 . S
H114 C88 0.934 . S
H115 C89 0.930 . S
H116 C94 0.930 . S
H117 C95 0.931 . S
H118 C97 0.934 . S
H119 C98 0.930 . S
Ho120 C123 2.811 . S
Ho120 O140 2.322 . S
Ho120 O142 2.378 . S
Ho120 O143 2.524 . S
Ho120 O144 2.381 . S
Ho120 O145 2.669 . S
Ho120 O147 2.346 . S
Ho120 O151 2.305 . S
Ho121 C132 2.811 . S
Ho121 O141 2.346 . S
Ho121 O145 2.305 . S
Ho121 O146 2.322 . S
Ho121 O148 2.378 . S
Ho121 O149 2.524 . S
Ho121 O150 2.381 . S
Ho121 O151 2.669 . S
C122 O140 1.259 . S
C122 O141 1.268 . S
C123 Ho120 2.811 . S
C123 C124 1.488 . S
C123 O142 1.215 . S
C123 O143 1.289 . S
C124 C123 1.488 . S
C124 C125 1.348 . S
C124 C129 1.413 . S
C125 C124 1.348 . S
C125 C126 1.442 . S
C125 H152 0.930 . S
C126 C125 1.442 . S
C126 C127 1.381 . S
C126 H153 0.931 . S
C127 C126 1.381 . S
C127 C128 1.321 . S
C128 C127 1.321 . S
C128 C129 1.403 . S
C128 H154 0.934 . S
C129 C124 1.413 . S
C129 C128 1.403 . S
C129 H155 0.930 . S
C130 O144 1.275 . S
C130 O145 1.256 . S
C131 O146 1.259 . S
C131 O147 1.268 . S
C132 Ho121 2.811 . S
C132 C133 1.488 . S
C132 O148 1.215 . S
C132 O149 1.289 . S
C133 C132 1.488 . S
C133 C134 1.348 . S
C133 C138 1.413 . S
C134 C133 1.348 . S
C134 C135 1.442 . S
C134 H156 0.930 . S
C135 C134 1.442 . S
C135 C136 1.381 . S
C135 H157 0.931 . S
C136 C135 1.381 . S
C136 C137 1.321 . S
C137 C136 1.321 . S
C137 C138 1.403 . S
C137 H158 0.934 . S
C138 C133 1.413 . S
C138 C137 1.403 . S
C138 H159 0.930 . S
C139 O150 1.275 . S
C139 O151 1.256 . S
O140 Ho120 2.322 . S
O140 C122 1.259 . S
O141 Ho121 2.346 . S
O141 C122 1.268 . S
O142 Ho120 2.378 . S
O142 C123 1.215 . S
O143 Ho120 2.524 . S
O143 C123 1.289 . S
O144 Ho120 2.381 . S
O144 C130 1.275 . S
O145 Ho120 2.669 . S
O145 Ho121 2.305 . S
O145 C130 1.256 . S
O146 Ho121 2.322 . S
O146 C131 1.259 . S
O147 Ho120 2.346 . S
O147 C131 1.268 . S
O148 Ho121 2.378 . S
O148 C132 1.215 . S
O149 Ho121 2.524 . S
O149 C132 1.289 . S
O150 Ho121 2.381 . S
O150 C139 1.275 . S
O151 Ho120 2.305 . S
O151 Ho121 2.669 . S
O151 C139 1.256 . S
H152 C125 0.930 . S
H153 C126 0.931 . S
H154 C128 0.934 . S
H155 C129 0.930 . S
H156 C134 0.930 . S
H157 C135 0.931 . S
H158 C137 0.934 . S
H159 C138 0.930 . S
Ho160 C163 2.811 . S
Ho160 O180 2.322 . S
Ho160 O182 2.378 . S
Ho160 O183 2.524 . S
Ho160 O184 2.381 . S
Ho160 O185 2.669 . S
Ho160 O187 2.346 . S
Ho160 O191 2.305 . S
Ho161 C172 2.811 . S
Ho161 O181 2.346 . S
Ho161 O185 2.305 . S
Ho161 O186 2.322 . S
Ho161 O188 2.378 . S
Ho161 O189 2.524 . S
Ho161 O190 2.381 . S
Ho161 O191 2.669 . S
C162 O180 1.259 . S
C162 O181 1.268 . S
C163 Ho160 2.811 . S
C163 C164 1.488 . S
C163 O182 1.215 . S
C163 O183 1.289 . S
C164 C163 1.488 . S
C164 C165 1.348 . S
C164 C169 1.413 . S
C165 C164 1.348 . S
C165 C166 1.442 . S
C165 H192 0.930 . S
C166 C165 1.442 . S
C166 C167 1.381 . S
C166 H193 0.931 . S
C167 C166 1.381 . S
C167 C168 1.321 . S
C168 C167 1.321 . S
C168 C169 1.403 . S
C168 H194 0.934 . S
C169 C164 1.413 . S
C169 C168 1.403 . S
C169 H195 0.930 . S
C170 O184 1.275 . S
C170 O185 1.256 . S
C171 O186 1.259 . S
C171 O187 1.268 . S
C172 Ho161 2.811 . S
C172 C173 1.488 . S
C172 O188 1.215 . S
C172 O189 1.289 . S
C173 C172 1.488 . S
C173 C174 1.348 . S
C173 C178 1.413 . S
C174 C173 1.348 . S
C174 C175 1.442 1_565 S
C174 H196 0.930 . S
C175 C174 1.442 1_545 S
C175 C176 1.381 . S
C175 H197 0.931 . S
C176 C175 1.381 . S
C176 C177 1.321 1_545 S
C177 C176 1.321 1_565 S
C177 C178 1.403 . S
C177 H198 0.934 . S
C178 C173 1.413 . S
C178 C177 1.403 . S
C178 H199 0.930 . S
C179 O190 1.275 . S
C179 O191 1.256 . S
O180 Ho160 2.322 . S
O180 C162 1.259 . S
O181 Ho161 2.346 . S
O181 C162 1.268 . S
O182 Ho160 2.378 . S
O182 C163 1.215 . S
O183 Ho160 2.524 . S
O183 C163 1.289 . S
O184 Ho160 2.381 . S
O184 C170 1.275 . S
O185 Ho160 2.669 . S
O185 Ho161 2.305 . S
O185 C170 1.256 . S
O186 Ho161 2.322 . S
O186 C171 1.259 . S
O187 Ho160 2.346 . S
O187 C171 1.268 . S
O188 Ho161 2.378 . S
O188 C172 1.215 . S
O189 Ho161 2.524 . S
O189 C172 1.289 . S
O190 Ho161 2.381 . S
O190 C179 1.275 . S
O191 Ho160 2.305 . S
O191 Ho161 2.669 . S
O191 C179 1.256 . S
H192 C165 0.930 . S
H193 C166 0.931 . S
H194 C168 0.934 . S
H195 C169 0.930 . S
H196 C174 0.930 . S
H197 C175 0.931 . S
H198 C177 0.934 . S
H199 C178 0.930 . S
Ho200 C203 2.811 . S
Ho200 O220 2.322 . S
Ho200 O222 2.378 . S
Ho200 O223 2.524 . S
Ho200 O224 2.381 . S
Ho200 O225 2.669 . S
Ho200 O227 2.346 . S
Ho200 O231 2.305 . S
Ho201 C212 2.811 . S
Ho201 O221 2.346 . S
Ho201 O225 2.305 . S
Ho201 O226 2.322 . S
Ho201 O228 2.378 . S
Ho201 O229 2.524 . S
Ho201 O230 2.381 . S
Ho201 O231 2.669 . S
C202 O220 1.259 . S
C202 O221 1.268 . S
C203 Ho200 2.811 . S
C203 C204 1.488 . S
C203 O222 1.215 . S
C203 O223 1.289 . S
C204 C203 1.488 . S
C204 C205 1.348 . S
C204 C209 1.413 . S
C205 C204 1.348 . S
C205 C206 1.442 . S
C205 H232 0.930 . S
C206 C205 1.442 . S
C206 C207 1.381 . S
C206 H233 0.931 . S
C207 C206 1.381 . S
C207 C208 1.321 . S
C208 C207 1.321 . S
C208 C209 1.403 . S
C208 H234 0.934 . S
C209 C204 1.413 . S
C209 C208 1.403 . S
C209 H235 0.930 . S
C210 O224 1.275 . S
C210 O225 1.256 . S
C211 O226 1.259 . S
C211 O227 1.268 . S
C212 Ho201 2.811 . S
C212 C213 1.488 . S
C212 O228 1.215 . S
C212 O229 1.289 . S
C213 C212 1.488 . S
C213 C214 1.348 . S
C213 C218 1.413 . S
C214 C213 1.348 . S
C214 C215 1.442 1_455 S
C214 H236 0.930 . S
C215 C214 1.442 1_655 S
C215 C216 1.381 . S
C215 H237 0.931 . S
C216 C215 1.381 . S
C216 C217 1.321 1_655 S
C217 C216 1.321 1_455 S
C217 C218 1.403 . S
C217 H238 0.934 . S
C218 C213 1.413 . S
C218 C217 1.403 . S
C218 H239 0.930 . S
C219 O230 1.275 . S
C219 O231 1.256 . S
O220 Ho200 2.322 . S
O220 C202 1.259 . S
O221 Ho201 2.346 . S
O221 C202 1.268 . S
O222 Ho200 2.378 . S
O222 C203 1.215 . S
O223 Ho200 2.524 . S
O223 C203 1.289 . S
O224 Ho200 2.381 . S
O224 C210 1.275 . S
O225 Ho200 2.669 . S
O225 Ho201 2.305 . S
O225 C210 1.256 . S
O226 Ho201 2.322 . S
O226 C211 1.259 . S
O227 Ho200 2.346 . S
O227 C211 1.268 . S
O228 Ho201 2.378 . S
O228 C212 1.215 . S
O229 Ho201 2.524 . S
O229 C212 1.289 . S
O230 Ho201 2.381 . S
O230 C219 1.275 . S
O231 Ho200 2.305 . S
O231 Ho201 2.669 . S
O231 C219 1.256 . S
H232 C205 0.930 . S
H233 C206 0.931 . S
H234 C208 0.934 . S
H235 C209 0.930 . S
H236 C214 0.930 . S
H237 C215 0.931 . S
H238 C217 0.934 . S
H239 C218 0.930 . S
Ho240 C243 2.811 . S
Ho240 O260 2.322 . S
Ho240 O262 2.378 . S
Ho240 O263 2.524 . S
Ho240 O264 2.381 . S
Ho240 O265 2.669 . S
Ho240 O267 2.346 . S
Ho240 O271 2.305 . S
Ho241 C252 2.811 . S
Ho241 O261 2.346 . S
Ho241 O265 2.305 . S
Ho241 O266 2.322 . S
Ho241 O268 2.378 . S
Ho241 O269 2.524 . S
Ho241 O270 2.381 . S
Ho241 O271 2.669 . S
C242 O260 1.259 . S
C242 O261 1.268 . S
C243 Ho240 2.811 . S
C243 C244 1.488 . S
C243 O262 1.215 . S
C243 O263 1.289 . S
C244 C243 1.488 . S
C244 C245 1.348 . S
C244 C249 1.413 . S
C245 C244 1.348 . S
C245 C246 1.442 . S
C245 H272 0.930 . S
C246 C245 1.442 . S
C246 C247 1.381 . S
C246 H273 0.931 . S
C247 C246 1.381 . S
C247 C248 1.321 . S
C248 C247 1.321 . S
C248 C249 1.403 . S
C248 H274 0.934 . S
C249 C244 1.413 . S
C249 C248 1.403 . S
C249 H275 0.930 . S
C250 O264 1.275 . S
C250 O265 1.256 . S
C251 O266 1.259 . S
C251 O267 1.268 . S
C252 Ho241 2.811 . S
C252 C253 1.488 . S
C252 O268 1.215 . S
C252 O269 1.289 . S
C253 C252 1.488 . S
C253 C254 1.348 . S
C253 C258 1.413 . S
C254 C253 1.348 . S
C254 C255 1.442 . S
C254 H276 0.930 . S
C255 C254 1.442 . S
C255 C256 1.381 . S
C255 H277 0.931 . S
C256 C255 1.381 . S
C256 C257 1.321 . S
C257 C256 1.321 . S
C257 C258 1.403 . S
C257 H278 0.934 . S
C258 C253 1.413 . S
C258 C257 1.403 . S
C258 H279 0.930 . S
C259 O270 1.275 . S
C259 O271 1.256 . S
O260 Ho240 2.322 . S
O260 C242 1.259 . S
O261 Ho241 2.346 . S
O261 C242 1.268 . S
O262 Ho240 2.378 . S
O262 C243 1.215 . S
O263 Ho240 2.524 . S
O263 C243 1.289 . S
O264 Ho240 2.381 . S
O264 C250 1.275 . S
O265 Ho240 2.669 . S
O265 Ho241 2.305 . S
O265 C250 1.256 . S
O266 Ho241 2.322 . S
O266 C251 1.259 . S
O267 Ho240 2.346 . S
O267 C251 1.268 . S
O268 Ho241 2.378 . S
O268 C252 1.215 . S
O269 Ho241 2.524 . S
O269 C252 1.289 . S
O270 Ho241 2.381 . S
O270 C259 1.275 . S
O271 Ho240 2.305 . S
O271 Ho241 2.669 . S
O271 C259 1.256 . S
H272 C245 0.930 . S
H273 C246 0.931 . S
H274 C248 0.934 . S
H275 C249 0.930 . S
H276 C254 0.930 . S
H277 C255 0.931 . S
H278 C257 0.934 . S
H279 C258 0.930 . S
Ho280 C283 2.811 . S
Ho280 O300 2.322 . S
Ho280 O302 2.378 . S
Ho280 O303 2.524 . S
Ho280 O304 2.381 . S
Ho280 O305 2.669 . S
Ho280 O307 2.346 . S
Ho280 O311 2.305 . S
Ho281 C292 2.811 . S
Ho281 O301 2.346 . S
Ho281 O305 2.305 . S
Ho281 O306 2.322 . S
Ho281 O308 2.378 . S
Ho281 O309 2.524 . S
Ho281 O310 2.381 . S
Ho281 O311 2.669 . S
C282 O300 1.259 . S
C282 O301 1.268 . S
C283 Ho280 2.811 . S
C283 C284 1.488 . S
C283 O302 1.215 . S
C283 O303 1.289 . S
C284 C283 1.488 . S
C284 C285 1.348 . S
C284 C289 1.413 . S
C285 C284 1.348 . S
C285 C286 1.442 1_565 S
C285 H312 0.930 . S
C286 C285 1.442 1_545 S
C286 C287 1.381 . S
C286 H313 0.931 . S
C287 C286 1.381 . S
C287 C288 1.321 1_545 S
C288 C287 1.321 1_565 S
C288 C289 1.403 . S
C288 H314 0.934 . S
C289 C284 1.413 . S
C289 C288 1.403 . S
C289 H315 0.930 . S
C290 O304 1.275 . S
C290 O305 1.256 . S
C291 O306 1.259 . S
C291 O307 1.268 . S
C292 Ho281 2.811 . S
C292 C293 1.488 . S
C292 O308 1.215 . S
C292 O309 1.289 . S
C293 C292 1.488 . S
C293 C294 1.348 . S
C293 C298 1.413 . S
C294 C293 1.348 . S
C294 C295 1.442 . S
C294 H316 0.930 . S
C295 C294 1.442 . S
C295 C296 1.381 . S
C295 H317 0.931 . S
C296 C295 1.381 . S
C296 C297 1.321 . S
C297 C296 1.321 . S
C297 C298 1.403 . S
C297 H318 0.934 . S
C298 C293 1.413 . S
C298 C297 1.403 . S
C298 H319 0.930 . S
C299 O310 1.275 . S
C299 O311 1.256 . S
O300 Ho280 2.322 . S
O300 C282 1.259 . S
O301 Ho281 2.346 . S
O301 C282 1.268 . S
O302 Ho280 2.378 . S
O302 C283 1.215 . S
O303 Ho280 2.524 . S
O303 C283 1.289 . S
O304 Ho280 2.381 . S
O304 C290 1.275 . S
O305 Ho280 2.669 . S
O305 Ho281 2.305 . S
O305 C290 1.256 . S
O306 Ho281 2.322 . S
O306 C291 1.259 . S
O307 Ho280 2.346 . S
O307 C291 1.268 . S
O308 Ho281 2.378 . S
O308 C292 1.215 . S
O309 Ho281 2.524 . S
O309 C292 1.289 . S
O310 Ho281 2.381 . S
O310 C299 1.275 . S
O311 Ho280 2.305 . S
O311 Ho281 2.669 . S
O311 C299 1.256 . S
H312 C285 0.930 . S
H313 C286 0.931 . S
H314 C288 0.934 . S
H315 C289 0.930 . S
H316 C294 0.930 . S
H317 C295 0.931 . S
H318 C297 0.934 . S
H319 C298 0.930 . S
Ho320 C323 2.811 . S
Ho320 O340 2.322 . S
Ho320 O342 2.378 . S
Ho320 O343 2.524 . S
Ho320 O344 2.381 . S
Ho320 O345 2.669 . S
Ho320 O347 2.346 . S
Ho320 O351 2.305 . S
Ho321 C332 2.811 . S
Ho321 O341 2.346 . S
Ho321 O345 2.305 . S
Ho321 O346 2.322 . S
Ho321 O348 2.378 . S
Ho321 O349 2.524 . S
Ho321 O350 2.381 . S
Ho321 O351 2.669 . S
C322 O340 1.259 . S
C322 O341 1.268 . S
C323 Ho320 2.811 . S
C323 C324 1.488 . S
C323 O342 1.215 . S
C323 O343 1.289 . S
C324 C323 1.488 . S
C324 C325 1.348 . S
C324 C329 1.413 . S
C325 C324 1.348 . S
C325 C326 1.442 1_455 S
C325 H352 0.930 . S
C326 C325 1.442 1_655 S
C326 C327 1.381 . S
C326 H353 0.931 . S
C327 C326 1.381 . S
C327 C328 1.321 1_655 S
C328 C327 1.321 1_455 S
C328 C329 1.403 . S
C328 H354 0.934 . S
C329 C324 1.413 . S
C329 C328 1.403 . S
C329 H355 0.930 . S
C330 O344 1.275 . S
C330 O345 1.256 . S
C331 O346 1.259 . S
C331 O347 1.268 . S
C332 Ho321 2.811 . S
C332 C333 1.488 . S
C332 O348 1.215 . S
C332 O349 1.289 . S
C333 C332 1.488 . S
C333 C334 1.348 . S
C333 C338 1.413 . S
C334 C333 1.348 . S
C334 C335 1.442 . S
C334 H356 0.930 . S
C335 C334 1.442 . S
C335 C336 1.381 . S
C335 H357 0.931 . S
C336 C335 1.381 . S
C336 C337 1.321 . S
C337 C336 1.321 . S
C337 C338 1.403 . S
C337 H358 0.934 . S
C338 C333 1.413 . S
C338 C337 1.403 . S
C338 H359 0.930 . S
C339 O350 1.275 . S
C339 O351 1.256 . S
O340 Ho320 2.322 . S
O340 C322 1.259 . S
O341 Ho321 2.346 . S
O341 C322 1.268 . S
O342 Ho320 2.378 . S
O342 C323 1.215 . S
O343 Ho320 2.524 . S
O343 C323 1.289 . S
O344 Ho320 2.381 . S
O344 C330 1.275 . S
O345 Ho320 2.669 . S
O345 Ho321 2.305 . S
O345 C330 1.256 . S
O346 Ho321 2.322 . S
O346 C331 1.259 . S
O347 Ho320 2.346 . S
O347 C331 1.268 . S
O348 Ho321 2.378 . S
O348 C332 1.215 . S
O349 Ho321 2.524 . S
O349 C332 1.289 . S
O350 Ho321 2.381 . S
O350 C339 1.275 . S
O351 Ho320 2.305 . S
O351 Ho321 2.669 . S
O351 C339 1.256 . S
H352 C325 0.930 . S
H353 C326 0.931 . S
H354 C328 0.934 . S
H355 C329 0.930 . S
H356 C334 0.930 . S
H357 C335 0.931 . S
H358 C337 0.934 . S
H359 C338 0.930 . S
Ho360 C363 2.811 . S
Ho360 O380 2.322 . S
Ho360 O382 2.378 . S
Ho360 O383 2.524 . S
Ho360 O384 2.381 . S
Ho360 O385 2.669 . S
Ho360 O387 2.346 . S
Ho360 O391 2.305 . S
Ho361 C372 2.811 . S
Ho361 O381 2.346 . S
Ho361 O385 2.305 . S
Ho361 O386 2.322 . S
Ho361 O388 2.378 . S
Ho361 O389 2.524 . S
Ho361 O390 2.381 . S
Ho361 O391 2.669 . S
C362 O380 1.259 . S
C362 O381 1.268 . S
C363 Ho360 2.811 . S
C363 C364 1.488 . S
C363 O382 1.215 . S
C363 O383 1.289 . S
C364 C363 1.488 . S
C364 C365 1.348 . S
C364 C369 1.413 . S
C365 C364 1.348 . S
C365 C366 1.442 . S
C365 H392 0.930 . S
C366 C365 1.442 . S
C366 C367 1.381 . S
C366 H393 0.931 . S
C367 C366 1.381 . S
C367 C368 1.321 . S
C368 C367 1.321 . S
C368 C369 1.403 . S
C368 H394 0.934 . S
C369 C364 1.413 . S
C369 C368 1.403 . S
C369 H395 0.930 . S
C370 O384 1.275 . S
C370 O385 1.256 . S
C371 O386 1.259 . S
C371 O387 1.268 . S
C372 Ho361 2.811 . S
C372 C373 1.488 . S
C372 O388 1.215 . S
C372 O389 1.289 . S
C373 C372 1.488 . S
C373 C374 1.348 . S
C373 C378 1.413 . S
C374 C373 1.348 . S
C374 C375 1.442 . S
C374 H396 0.930 . S
C375 C374 1.442 . S
C375 C376 1.381 . S
C375 H397 0.931 . S
C376 C375 1.381 . S
C376 C377 1.321 . S
C377 C376 1.321 . S
C377 C378 1.403 . S
C377 H398 0.934 . S
C378 C373 1.413 . S
C378 C377 1.403 . S
C378 H399 0.930 . S
C379 O390 1.275 . S
C379 O391 1.256 . S
O380 Ho360 2.322 . S
O380 C362 1.259 . S
O381 Ho361 2.346 . S
O381 C362 1.268 . S
O382 Ho360 2.378 . S
O382 C363 1.215 . S
O383 Ho360 2.524 . S
O383 C363 1.289 . S
O384 Ho360 2.381 . S
O384 C370 1.275 . S
O385 Ho360 2.669 . S
O385 Ho361 2.305 . S
O385 C370 1.256 . S
O386 Ho361 2.322 . S
O386 C371 1.259 . S
O387 Ho360 2.346 . S
O387 C371 1.268 . S
O388 Ho361 2.378 . S
O388 C372 1.215 . S
O389 Ho361 2.524 . S
O389 C372 1.289 . S
O390 Ho361 2.381 . S
O390 C379 1.275 . S
O391 Ho360 2.305 . S
O391 Ho361 2.669 . S
O391 C379 1.256 . S
H392 C365 0.930 . S
H393 C366 0.931 . S
H394 C368 0.934 . S
H395 C369 0.930 . S
H396 C374 0.930 . S
H397 C375 0.931 . S
H398 C377 0.934 . S
H399 C378 0.930 . S
Ho400 C403 2.811 . S
Ho400 O420 2.322 . S
Ho400 O422 2.378 . S
Ho400 O423 2.524 . S
Ho400 O424 2.381 . S
Ho400 O425 2.669 . S
Ho400 O427 2.346 . S
Ho400 O431 2.305 . S
Ho401 C412 2.811 . S
Ho401 O421 2.346 . S
Ho401 O425 2.305 . S
Ho401 O426 2.322 . S
Ho401 O428 2.378 . S
Ho401 O429 2.524 . S
Ho401 O430 2.381 . S
Ho401 O431 2.669 . S
C402 O420 1.259 . S
C402 O421 1.268 . S
C403 Ho400 2.811 . S
C403 C404 1.488 . S
C403 O422 1.215 . S
C403 O423 1.289 . S
C404 C403 1.488 . S
C404 C405 1.348 . S
C404 C409 1.413 . S
C405 C404 1.348 . S
C405 C406 1.442 1_545 S
C405 H432 0.930 . S
C406 C405 1.442 1_565 S
C406 C407 1.381 . S
C406 H433 0.931 . S
C407 C406 1.381 . S
C407 C408 1.321 1_565 S
C408 C407 1.321 1_545 S
C408 C409 1.403 . S
C408 H434 0.934 . S
C409 C404 1.413 . S
C409 C408 1.403 . S
C409 H435 0.930 . S
C410 O424 1.275 . S
C410 O425 1.256 . S
C411 O426 1.259 . S
C411 O427 1.268 . S
C412 Ho401 2.811 . S
C412 C413 1.488 . S
C412 O428 1.215 . S
C412 O429 1.289 . S
C413 C412 1.488 . S
C413 C414 1.348 . S
C413 C418 1.413 . S
C414 C413 1.348 . S
C414 C415 1.442 . S
C414 H436 0.930 . S
C415 C414 1.442 . S
C415 C416 1.381 . S
C415 H437 0.931 . S
C416 C415 1.381 . S
C416 C417 1.321 . S
C417 C416 1.321 . S
C417 C418 1.403 . S
C417 H438 0.934 . S
C418 C413 1.413 . S
C418 C417 1.403 . S
C418 H439 0.930 . S
C419 O430 1.275 . S
C419 O431 1.256 . S
O420 Ho400 2.322 . S
O420 C402 1.259 . S
O421 Ho401 2.346 . S
O421 C402 1.268 . S
O422 Ho400 2.378 . S
O422 C403 1.215 . S
O423 Ho400 2.524 . S
O423 C403 1.289 . S
O424 Ho400 2.381 . S
O424 C410 1.275 . S
O425 Ho400 2.669 . S
O425 Ho401 2.305 . S
O425 C410 1.256 . S
O426 Ho401 2.322 . S
O426 C411 1.259 . S
O427 Ho400 2.346 . S
O427 C411 1.268 . S
O428 Ho401 2.378 . S
O428 C412 1.215 . S
O429 Ho401 2.524 . S
O429 C412 1.289 . S
O430 Ho401 2.381 . S
O430 C419 1.275 . S
O431 Ho400 2.305 . S
O431 Ho401 2.669 . S
O431 C419 1.256 . S
H432 C405 0.930 . S
H433 C406 0.931 . S
H434 C408 0.934 . S
H435 C409 0.930 . S
H436 C414 0.930 . S
H437 C415 0.931 . S
H438 C417 0.934 . S
H439 C418 0.930 . S
Ho440 C443 2.811 . S
Ho440 O460 2.322 . S
Ho440 O462 2.378 . S
Ho440 O463 2.524 . S
Ho440 O464 2.381 . S
Ho440 O465 2.669 . S
Ho440 O467 2.346 . S
Ho440 O471 2.305 . S
Ho441 C452 2.811 . S
Ho441 O461 2.346 . S
Ho441 O465 2.305 . S
Ho441 O466 2.322 . S
Ho441 O468 2.378 . S
Ho441 O469 2.524 . S
Ho441 O470 2.381 . S
Ho441 O471 2.669 . S
C442 O460 1.259 . S
C442 O461 1.268 . S
C443 Ho440 2.811 . S
C443 C444 1.488 . S
C443 O462 1.215 . S
C443 O463 1.289 . S
C444 C443 1.488 . S
C444 C445 1.348 . S
C444 C449 1.413 . S
C445 C444 1.348 . S
C445 C446 1.442 1_655 S
C445 H472 0.930 . S
C446 C445 1.442 1_455 S
C446 C447 1.381 . S
C446 H473 0.931 . S
C447 C446 1.381 . S
C447 C448 1.321 1_455 S
C448 C447 1.321 1_655 S
C448 C449 1.403 . S
C448 H474 0.934 . S
C449 C444 1.413 . S
C449 C448 1.403 . S
C449 H475 0.930 . S
C450 O464 1.275 . S
C450 O465 1.256 . S
C451 O466 1.259 . S
C451 O467 1.268 . S
C452 Ho441 2.811 . S
C452 C453 1.488 . S
C452 O468 1.215 . S
C452 O469 1.289 . S
C453 C452 1.488 . S
C453 C454 1.348 . S
C453 C458 1.413 . S
C454 C453 1.348 . S
C454 C455 1.442 . S
C454 H476 0.930 . S
C455 C454 1.442 . S
C455 C456 1.381 . S
C455 H477 0.931 . S
C456 C455 1.381 . S
C456 C457 1.321 . S
C457 C456 1.321 . S
C457 C458 1.403 . S
C457 H478 0.934 . S
C458 C453 1.413 . S
C458 C457 1.403 . S
C458 H479 0.930 . S
C459 O470 1.275 . S
C459 O471 1.256 . S
O460 Ho440 2.322 . S
O460 C442 1.259 . S
O461 Ho441 2.346 . S
O461 C442 1.268 . S
O462 Ho440 2.378 . S
O462 C443 1.215 . S
O463 Ho440 2.524 . S
O463 C443 1.289 . S
O464 Ho440 2.381 . S
O464 C450 1.275 . S
O465 Ho440 2.669 . S
O465 Ho441 2.305 . S
O465 C450 1.256 . S
O466 Ho441 2.322 . S
O466 C451 1.259 . S
O467 Ho440 2.346 . S
O467 C451 1.268 . S
O468 Ho441 2.378 . S
O468 C452 1.215 . S
O469 Ho441 2.524 . S
O469 C452 1.289 . S
O470 Ho441 2.381 . S
O470 C459 1.275 . S
O471 Ho440 2.305 . S
O471 Ho441 2.669 . S
O471 C459 1.256 . S
H472 C445 0.930 . S
H473 C446 0.931 . S
H474 C448 0.934 . S
H475 C449 0.930 . S
H476 C454 0.930 . S
H477 C455 0.931 . S
H478 C457 0.934 . S
H479 C458 0.930 . S
Ho480 C483 2.811 . S
Ho480 O500 2.322 . S
Ho480 O502 2.378 . S
Ho480 O503 2.524 . S
Ho480 O504 2.381 . S
Ho480 O505 2.669 . S
Ho480 O507 2.346 . S
Ho480 O511 2.305 . S
Ho481 C492 2.811 . S
Ho481 O501 2.346 . S
Ho481 O505 2.305 . S
Ho481 O506 2.322 . S
Ho481 O508 2.378 . S
Ho481 O509 2.524 . S
Ho481 O510 2.381 . S
Ho481 O511 2.669 . S
C482 O500 1.259 . S
C482 O501 1.268 . S
C483 Ho480 2.811 . S
C483 C484 1.488 . S
C483 O502 1.215 . S
C483 O503 1.289 . S
C484 C483 1.488 . S
C484 C485 1.348 . S
C484 C489 1.413 . S
C485 C484 1.348 . S
C485 C486 1.442 . S
C485 H512 0.930 . S
C486 C485 1.442 . S
C486 C487 1.381 . S
C486 H513 0.931 . S
C487 C486 1.381 . S
C487 C488 1.321 . S
C488 C487 1.321 . S
C488 C489 1.403 . S
C488 H514 0.934 . S
C489 C484 1.413 . S
C489 C488 1.403 . S
C489 H515 0.930 . S
C490 O504 1.275 . S
C490 O505 1.256 . S
C491 O506 1.259 . S
C491 O507 1.268 . S
C492 Ho481 2.811 . S
C492 C493 1.488 . S
C492 O508 1.215 . S
C492 O509 1.289 . S
C493 C492 1.488 . S
C493 C494 1.348 . S
C493 C498 1.413 . S
C494 C493 1.348 . S
C494 C495 1.442 . S
C494 H516 0.930 . S
C495 C494 1.442 . S
C495 C496 1.381 . S
C495 H517 0.931 . S
C496 C495 1.381 . S
C496 C497 1.321 . S
C497 C496 1.321 . S
C497 C498 1.403 . S
C497 H518 0.934 . S
C498 C493 1.413 . S
C498 C497 1.403 . S
C498 H519 0.930 . S
C499 O510 1.275 . S
C499 O511 1.256 . S
O500 Ho480 2.322 . S
O500 C482 1.259 . S
O501 Ho481 2.346 . S
O501 C482 1.268 . S
O502 Ho480 2.378 . S
O502 C483 1.215 . S
O503 Ho480 2.524 . S
O503 C483 1.289 . S
O504 Ho480 2.381 . S
O504 C490 1.275 . S
O505 Ho480 2.669 . S
O505 Ho481 2.305 . S
O505 C490 1.256 . S
O506 Ho481 2.322 . S
O506 C491 1.259 . S
O507 Ho480 2.346 . S
O507 C491 1.268 . S
O508 Ho481 2.378 . S
O508 C492 1.215 . S
O509 Ho481 2.524 . S
O509 C492 1.289 . S
O510 Ho481 2.381 . S
O510 C499 1.275 . S
O511 Ho480 2.305 . S
O511 Ho481 2.669 . S
O511 C499 1.256 . S
H512 C485 0.930 . S
H513 C486 0.931 . S
H514 C488 0.934 . S
H515 C489 0.930 . S
H516 C494 0.930 . S
H517 C495 0.931 . S
H518 C497 0.934 . S
H519 C498 0.930 . S
Ho520 C523 2.811 . S
Ho520 O540 2.322 . S
Ho520 O542 2.378 . S
Ho520 O543 2.524 . S
Ho520 O544 2.381 . S
Ho520 O545 2.669 . S
Ho520 O547 2.346 . S
Ho520 O551 2.305 . S
Ho521 C532 2.811 . S
Ho521 O541 2.346 . S
Ho521 O545 2.305 . S
Ho521 O546 2.322 . S
Ho521 O548 2.378 . S
Ho521 O549 2.524 . S
Ho521 O550 2.381 . S
Ho521 O551 2.669 . S
C522 O540 1.259 . S
C522 O541 1.268 . S
C523 Ho520 2.811 . S
C523 C524 1.488 . S
C523 O542 1.215 . S
C523 O543 1.289 . S
C524 C523 1.488 . S
C524 C525 1.348 . S
C524 C529 1.413 . S
C525 C524 1.348 . S
C525 C526 1.442 . S
C525 H552 0.930 . S
C526 C525 1.442 . S
C526 C527 1.381 . S
C526 H553 0.931 . S
C527 C526 1.381 . S
C527 C528 1.321 . S
C528 C527 1.321 . S
C528 C529 1.403 . S
C528 H554 0.934 . S
C529 C524 1.413 . S
C529 C528 1.403 . S
C529 H555 0.930 . S
C530 O544 1.275 . S
C530 O545 1.256 . S
C531 O546 1.259 . S
C531 O547 1.268 . S
C532 Ho521 2.811 . S
C532 C533 1.488 . S
C532 O548 1.215 . S
C532 O549 1.289 . S
C533 C532 1.488 . S
C533 C534 1.348 . S
C533 C538 1.413 . S
C534 C533 1.348 . S
C534 C535 1.442 . S
C534 H556 0.930 . S
C535 C534 1.442 . S
C535 C536 1.381 . S
C535 H557 0.931 . S
C536 C535 1.381 . S
C536 C537 1.321 . S
C537 C536 1.321 . S
C537 C538 1.403 . S
C537 H558 0.934 . S
C538 C533 1.413 . S
C538 C537 1.403 . S
C538 H559 0.930 . S
C539 O550 1.275 . S
C539 O551 1.256 . S
O540 Ho520 2.322 . S
O540 C522 1.259 . S
O541 Ho521 2.346 . S
O541 C522 1.268 . S
O542 Ho520 2.378 . S
O542 C523 1.215 . S
O543 Ho520 2.524 . S
O543 C523 1.289 . S
O544 Ho520 2.381 . S
O544 C530 1.275 . S
O545 Ho520 2.669 . S
O545 Ho521 2.305 . S
O545 C530 1.256 . S
O546 Ho521 2.322 . S
O546 C531 1.259 . S
O547 Ho520 2.346 . S
O547 C531 1.268 . S
O548 Ho521 2.378 . S
O548 C532 1.215 . S
O549 Ho521 2.524 . S
O549 C532 1.289 . S
O550 Ho521 2.381 . S
O550 C539 1.275 . S
O551 Ho520 2.305 . S
O551 Ho521 2.669 . S
O551 C539 1.256 . S
H552 C525 0.930 . S
H553 C526 0.931 . S
H554 C528 0.934 . S
H555 C529 0.930 . S
H556 C534 0.930 . S
H557 C535 0.931 . S
H558 C537 0.934 . S
H559 C538 0.930 . S
Ho560 C563 2.811 . S
Ho560 O580 2.322 . S
Ho560 O582 2.378 . S
Ho560 O583 2.524 . S
Ho560 O584 2.381 . S
Ho560 O585 2.669 . S
Ho560 O587 2.346 . S
Ho560 O591 2.305 . S
Ho561 C572 2.811 . S
Ho561 O581 2.346 . S
Ho561 O585 2.305 . S
Ho561 O586 2.322 . S
Ho561 O588 2.378 . S
Ho561 O589 2.524 . S
Ho561 O590 2.381 . S
Ho561 O591 2.669 . S
C562 O580 1.259 . S
C562 O581 1.268 . S
C563 Ho560 2.811 . S
C563 C564 1.488 . S
C563 O582 1.215 . S
C563 O583 1.289 . S
C564 C563 1.488 . S
C564 C565 1.348 . S
C564 C569 1.413 . S
C565 C564 1.348 . S
C565 C566 1.442 . S
C565 H592 0.930 . S
C566 C565 1.442 . S
C566 C567 1.381 . S
C566 H593 0.931 . S
C567 C566 1.381 . S
C567 C568 1.321 . S
C568 C567 1.321 . S
C568 C569 1.403 . S
C568 H594 0.934 . S
C569 C564 1.413 . S
C569 C568 1.403 . S
C569 H595 0.930 . S
C570 O584 1.275 . S
C570 O585 1.256 . S
C571 O586 1.259 . S
C571 O587 1.268 . S
C572 Ho561 2.811 . S
C572 C573 1.488 . S
C572 O588 1.215 . S
C572 O589 1.289 . S
C573 C572 1.488 . S
C573 C574 1.348 . S
C573 C578 1.413 . S
C574 C573 1.348 . S
C574 C575 1.442 . S
C574 H596 0.930 . S
C575 C574 1.442 . S
C575 C576 1.381 . S
C575 H597 0.931 . S
C576 C575 1.381 . S
C576 C577 1.321 . S
C577 C576 1.321 . S
C577 C578 1.403 . S
C577 H598 0.934 . S
C578 C573 1.413 . S
C578 C577 1.403 . S
C578 H599 0.930 . S
C579 O590 1.275 . S
C579 O591 1.256 . S
O580 Ho560 2.322 . S
O580 C562 1.259 . S
O581 Ho561 2.346 . S
O581 C562 1.268 . S
O582 Ho560 2.378 . S
O582 C563 1.215 . S
O583 Ho560 2.524 . S
O583 C563 1.289 . S
O584 Ho560 2.381 . S
O584 C570 1.275 . S
O585 Ho560 2.669 . S
O585 Ho561 2.305 . S
O585 C570 1.256 . S
O586 Ho561 2.322 . S
O586 C571 1.259 . S
O587 Ho560 2.346 . S
O587 C571 1.268 . S
O588 Ho561 2.378 . S
O588 C572 1.215 . S
O589 Ho561 2.524 . S
O589 C572 1.289 . S
O590 Ho561 2.381 . S
O590 C579 1.275 . S
O591 Ho560 2.305 . S
O591 Ho561 2.669 . S
O591 C579 1.256 . S
H592 C565 0.930 . S
H593 C566 0.931 . S
H594 C568 0.934 . S
H595 C569 0.930 . S
H596 C574 0.930 . S
H597 C575 0.931 . S
H598 C577 0.934 . S
H599 C578 0.930 . S
Ho600 C603 2.811 . S
Ho600 O620 2.322 . S
Ho600 O622 2.378 . S
Ho600 O623 2.524 . S
Ho600 O624 2.381 . S
Ho600 O625 2.669 . S
Ho600 O627 2.346 . S
Ho600 O631 2.305 . S
Ho601 C612 2.811 . S
Ho601 O621 2.346 . S
Ho601 O625 2.305 . S
Ho601 O626 2.322 . S
Ho601 O628 2.378 . S
Ho601 O629 2.524 . S
Ho601 O630 2.381 . S
Ho601 O631 2.669 . S
C602 O620 1.259 . S
C602 O621 1.268 . S
C603 Ho600 2.811 . S
C603 C604 1.488 . S
C603 O622 1.215 . S
C603 O623 1.289 . S
C604 C603 1.488 . S
C604 C605 1.348 . S
C604 C609 1.413 . S
C605 C604 1.348 . S
C605 C606 1.442 . S
C605 H632 0.930 . S
C606 C605 1.442 . S
C606 C607 1.381 . S
C606 H633 0.931 . S
C607 C606 1.381 . S
C607 C608 1.321 . S
C608 C607 1.321 . S
C608 C609 1.403 . S
C608 H634 0.934 . S
C609 C604 1.413 . S
C609 C608 1.403 . S
C609 H635 0.930 . S
C610 O624 1.275 . S
C610 O625 1.256 . S
C611 O626 1.259 . S
C611 O627 1.268 . S
C612 Ho601 2.811 . S
C612 C613 1.488 . S
C612 O628 1.215 . S
C612 O629 1.289 . S
C613 C612 1.488 . S
C613 C614 1.348 . S
C613 C618 1.413 . S
C614 C613 1.348 . S
C614 C615 1.442 . S
C614 H636 0.930 . S
C615 C614 1.442 . S
C615 C616 1.381 . S
C615 H637 0.931 . S
C616 C615 1.381 . S
C616 C617 1.321 . S
C617 C616 1.321 . S
C617 C618 1.403 . S
C617 H638 0.934 . S
C618 C613 1.413 . S
C618 C617 1.403 . S
C618 H639 0.930 . S
C619 O630 1.275 . S
C619 O631 1.256 . S
O620 Ho600 2.322 . S
O620 C602 1.259 . S
O621 Ho601 2.346 . S
O621 C602 1.268 . S
O622 Ho600 2.378 . S
O622 C603 1.215 . S
O623 Ho600 2.524 . S
O623 C603 1.289 . S
O624 Ho600 2.381 . S
O624 C610 1.275 . S
O625 Ho600 2.669 . S
O625 Ho601 2.305 . S
O625 C610 1.256 . S
O626 Ho601 2.322 . S
O626 C611 1.259 . S
O627 Ho600 2.346 . S
O627 C611 1.268 . S
O628 Ho601 2.378 . S
O628 C612 1.215 . S
O629 Ho601 2.524 . S
O629 C612 1.289 . S
O630 Ho601 2.381 . S
O630 C619 1.275 . S
O631 Ho600 2.305 . S
O631 Ho601 2.669 . S
O631 C619 1.256 . S
H632 C605 0.930 . S
H633 C606 0.931 . S
H634 C608 0.934 . S
H635 C609 0.930 . S
H636 C614 0.930 . S
H637 C615 0.931 . S
H638 C617 0.934 . S
H639 C618 0.930 . S
Ho640 C643 2.811 . S
Ho640 O660 2.322 . S
Ho640 O662 2.378 . S
Ho640 O663 2.524 . S
Ho640 O664 2.381 . S
Ho640 O665 2.669 . S
Ho640 O667 2.346 . S
Ho640 O671 2.305 . S
Ho641 C652 2.811 . S
Ho641 O661 2.346 . S
Ho641 O665 2.305 . S
Ho641 O666 2.322 . S
Ho641 O668 2.378 . S
Ho641 O669 2.524 . S
Ho641 O670 2.381 . S
Ho641 O671 2.669 . S
C642 O660 1.259 . S
C642 O661 1.268 . S
C643 Ho640 2.811 . S
C643 C644 1.488 . S
C643 O662 1.215 . S
C643 O663 1.289 . S
C644 C643 1.488 . S
C644 C645 1.348 . S
C644 C649 1.413 . S
C645 C644 1.348 . S
C645 C646 1.442 . S
C645 H672 0.930 . S
C646 C645 1.442 . S
C646 C647 1.381 . S
C646 H673 0.931 . S
C647 C646 1.381 . S
C647 C648 1.321 . S
C648 C647 1.321 . S
C648 C649 1.403 . S
C648 H674 0.934 . S
C649 C644 1.413 . S
C649 C648 1.403 . S
C649 H675 0.930 . S
C650 O664 1.275 . S
C650 O665 1.256 . S
C651 O666 1.259 . S
C651 O667 1.268 . S
C652 Ho641 2.811 . S
C652 C653 1.488 . S
C652 O668 1.215 . S
C652 O669 1.289 . S
C653 C652 1.488 . S
C653 C654 1.348 . S
C653 C658 1.413 . S
C654 C653 1.348 . S
C654 C655 1.442 . S
C654 H676 0.930 . S
C655 C654 1.442 . S
C655 C656 1.381 . S
C655 H677 0.931 . S
C656 C655 1.381 . S
C656 C657 1.321 . S
C657 C656 1.321 . S
C657 C658 1.403 . S
C657 H678 0.934 . S
C658 C653 1.413 . S
C658 C657 1.403 . S
C658 H679 0.930 . S
C659 O670 1.275 . S
C659 O671 1.256 . S
O660 Ho640 2.322 . S
O660 C642 1.259 . S
O661 Ho641 2.346 . S
O661 C642 1.268 . S
O662 Ho640 2.378 . S
O662 C643 1.215 . S
O663 Ho640 2.524 . S
O663 C643 1.289 . S
O664 Ho640 2.381 . S
O664 C650 1.275 . S
O665 Ho640 2.669 . S
O665 Ho641 2.305 . S
O665 C650 1.256 . S
O666 Ho641 2.322 . S
O666 C651 1.259 . S
O667 Ho640 2.346 . S
O667 C651 1.268 . S
O668 Ho641 2.378 . S
O668 C652 1.215 . S
O669 Ho641 2.524 . S
O669 C652 1.289 . S
O670 Ho641 2.381 . S
O670 C659 1.275 . S
O671 Ho640 2.305 . S
O671 Ho641 2.669 . S
O671 C659 1.256 . S
H672 C645 0.930 . S
H673 C646 0.931 . S
H674 C648 0.934 . S
H675 C649 0.930 . S
H676 C654 0.930 . S
H677 C655 0.931 . S
H678 C657 0.934 . S
H679 C658 0.930 . S
Ho680 C683 2.811 . S
Ho680 O700 2.322 . S
Ho680 O702 2.378 . S
Ho680 O703 2.524 . S
Ho680 O704 2.381 . S
Ho680 O705 2.669 . S
Ho680 O707 2.346 . S
Ho680 O711 2.305 . S
Ho681 C692 2.811 . S
Ho681 O701 2.346 . S
Ho681 O705 2.305 . S
Ho681 O706 2.322 . S
Ho681 O708 2.378 . S
Ho681 O709 2.524 . S
Ho681 O710 2.381 . S
Ho681 O711 2.669 . S
C682 O700 1.259 . S
C682 O701 1.268 . S
C683 Ho680 2.811 . S
C683 C684 1.488 . S
C683 O702 1.215 . S
C683 O703 1.289 . S
C684 C683 1.488 . S
C684 C685 1.348 . S
C684 C689 1.413 . S
C685 C684 1.348 . S
C685 C686 1.442 . S
C685 H712 0.930 . S
C686 C685 1.442 . S
C686 C687 1.381 . S
C686 H713 0.931 . S
C687 C686 1.381 . S
C687 C688 1.321 . S
C688 C687 1.321 . S
C688 C689 1.403 . S
C688 H714 0.934 . S
C689 C684 1.413 . S
C689 C688 1.403 . S
C689 H715 0.930 . S
C690 O704 1.275 . S
C690 O705 1.256 . S
C691 O706 1.259 . S
C691 O707 1.268 . S
C692 Ho681 2.811 . S
C692 C693 1.488 . S
C692 O708 1.215 . S
C692 O709 1.289 . S
C693 C692 1.488 . S
C693 C694 1.348 . S
C693 C698 1.413 . S
C694 C693 1.348 . S
C694 C695 1.442 . S
C694 H716 0.930 . S
C695 C694 1.442 . S
C695 C696 1.381 . S
C695 H717 0.931 . S
C696 C695 1.381 . S
C696 C697 1.321 . S
C697 C696 1.321 . S
C697 C698 1.403 . S
C697 H718 0.934 . S
C698 C693 1.413 . S
C698 C697 1.403 . S
C698 H719 0.930 . S
C699 O710 1.275 . S
C699 O711 1.256 . S
O700 Ho680 2.322 . S
O700 C682 1.259 . S
O701 Ho681 2.346 . S
O701 C682 1.268 . S
O702 Ho680 2.378 . S
O702 C683 1.215 . S
O703 Ho680 2.524 . S
O703 C683 1.289 . S
O704 Ho680 2.381 . S
O704 C690 1.275 . S
O705 Ho680 2.669 . S
O705 Ho681 2.305 . S
O705 C690 1.256 . S
O706 Ho681 2.322 . S
O706 C691 1.259 . S
O707 Ho680 2.346 . S
O707 C691 1.268 . S
O708 Ho681 2.378 . S
O708 C692 1.215 . S
O709 Ho681 2.524 . S
O709 C692 1.289 . S
O710 Ho681 2.381 . S
O710 C699 1.275 . S
O711 Ho680 2.305 . S
O711 Ho681 2.669 . S
O711 C699 1.256 . S
H712 C685 0.930 . S
H713 C686 0.931 . S
H714 C688 0.934 . S
H715 C689 0.930 . S
H716 C694 0.930 . S
H717 C695 0.931 . S
H718 C697 0.934 . S
H719 C698 0.930 . S
Ho720 C723 2.811 . S
Ho720 O740 2.322 . S
Ho720 O742 2.378 . S
Ho720 O743 2.524 . S
Ho720 O744 2.381 . S
Ho720 O745 2.669 . S
Ho720 O747 2.346 . S
Ho720 O751 2.305 . S
Ho721 C732 2.811 . S
Ho721 O741 2.346 . S
Ho721 O745 2.305 . S
Ho721 O746 2.322 . S
Ho721 O748 2.378 . S
Ho721 O749 2.524 . S
Ho721 O750 2.381 . S
Ho721 O751 2.669 . S
C722 O740 1.259 . S
C722 O741 1.268 . S
C723 Ho720 2.811 . S
C723 C724 1.488 . S
C723 O742 1.215 . S
C723 O743 1.289 . S
C724 C723 1.488 . S
C724 C725 1.348 . S
C724 C729 1.413 . S
C725 C724 1.348 . S
C725 C726 1.442 . S
C725 H752 0.930 . S
C726 C725 1.442 . S
C726 C727 1.381 . S
C726 H753 0.931 . S
C727 C726 1.381 . S
C727 C728 1.321 . S
C728 C727 1.321 . S
C728 C729 1.403 . S
C728 H754 0.934 . S
C729 C724 1.413 . S
C729 C728 1.403 . S
C729 H755 0.930 . S
C730 O744 1.275 . S
C730 O745 1.256 . S
C731 O746 1.259 . S
C731 O747 1.268 . S
C732 Ho721 2.811 . S
C732 C733 1.488 . S
C732 O748 1.215 . S
C732 O749 1.289 . S
C733 C732 1.488 . S
C733 C734 1.348 . S
C733 C738 1.413 . S
C734 C733 1.348 . S
C734 C735 1.442 . S
C734 H756 0.930 . S
C735 C734 1.442 . S
C735 C736 1.381 . S
C735 H757 0.931 . S
C736 C735 1.381 . S
C736 C737 1.321 . S
C737 C736 1.321 . S
C737 C738 1.403 . S
C737 H758 0.934 . S
C738 C733 1.413 . S
C738 C737 1.403 . S
C738 H759 0.930 . S
C739 O750 1.275 . S
C739 O751 1.256 . S
O740 Ho720 2.322 . S
O740 C722 1.259 . S
O741 Ho721 2.346 . S
O741 C722 1.268 . S
O742 Ho720 2.378 . S
O742 C723 1.215 . S
O743 Ho720 2.524 . S
O743 C723 1.289 . S
O744 Ho720 2.381 . S
O744 C730 1.275 . S
O745 Ho720 2.669 . S
O745 Ho721 2.305 . S
O745 C730 1.256 . S
O746 Ho721 2.322 . S
O746 C731 1.259 . S
O747 Ho720 2.346 . S
O747 C731 1.268 . S
O748 Ho721 2.378 . S
O748 C732 1.215 . S
O749 Ho721 2.524 . S
O749 C732 1.289 . S
O750 Ho721 2.381 . S
O750 C739 1.275 . S
O751 Ho720 2.305 . S
O751 Ho721 2.669 . S
O751 C739 1.256 . S
H752 C725 0.930 . S
H753 C726 0.931 . S
H754 C728 0.934 . S
H755 C729 0.930 . S
H756 C734 0.930 . S
H757 C735 0.931 . S
H758 C737 0.934 . S
H759 C738 0.930 . S
Ho760 C763 2.811 . S
Ho760 O780 2.322 . S
Ho760 O782 2.378 . S
Ho760 O783 2.524 . S
Ho760 O784 2.381 . S
Ho760 O785 2.669 . S
Ho760 O787 2.346 . S
Ho760 O791 2.305 . S
Ho761 C772 2.811 . S
Ho761 O781 2.346 . S
Ho761 O785 2.305 . S
Ho761 O786 2.322 . S
Ho761 O788 2.378 . S
Ho761 O789 2.524 . S
Ho761 O790 2.381 . S
Ho761 O791 2.669 . S
C762 O780 1.259 . S
C762 O781 1.268 . S
C763 Ho760 2.811 . S
C763 C764 1.488 . S
C763 O782 1.215 . S
C763 O783 1.289 . S
C764 C763 1.488 . S
C764 C765 1.348 . S
C764 C769 1.413 . S
C765 C764 1.348 . S
C765 C766 1.442 . S
C765 H792 0.930 . S
C766 C765 1.442 . S
C766 C767 1.381 . S
C766 H793 0.931 . S
C767 C766 1.381 . S
C767 C768 1.321 . S
C768 C767 1.321 . S
C768 C769 1.403 . S
C768 H794 0.934 . S
C769 C764 1.413 . S
C769 C768 1.403 . S
C769 H795 0.930 . S
C770 O784 1.275 . S
C770 O785 1.256 . S
C771 O786 1.259 . S
C771 O787 1.268 . S
C772 Ho761 2.811 . S
C772 C773 1.488 . S
C772 O788 1.215 . S
C772 O789 1.289 . S
C773 C772 1.488 . S
C773 C774 1.348 . S
C773 C778 1.413 . S
C774 C773 1.348 . S
C774 C775 1.442 . S
C774 H796 0.930 . S
C775 C774 1.442 . S
C775 C776 1.381 . S
C775 H797 0.931 . S
C776 C775 1.381 . S
C776 C777 1.321 . S
C777 C776 1.321 . S
C777 C778 1.403 . S
C777 H798 0.934 . S
C778 C773 1.413 . S
C778 C777 1.403 . S
C778 H799 0.930 . S
C779 O790 1.275 . S
C779 O791 1.256 . S
O780 Ho760 2.322 . S
O780 C762 1.259 . S
O781 Ho761 2.346 . S
O781 C762 1.268 . S
O782 Ho760 2.378 . S
O782 C763 1.215 . S
O783 Ho760 2.524 . S
O783 C763 1.289 . S
O784 Ho760 2.381 . S
O784 C770 1.275 . S
O785 Ho760 2.669 . S
O785 Ho761 2.305 . S
O785 C770 1.256 . S
O786 Ho761 2.322 . S
O786 C771 1.259 . S
O787 Ho760 2.346 . S
O787 C771 1.268 . S
O788 Ho761 2.378 . S
O788 C772 1.215 . S
O789 Ho761 2.524 . S
O789 C772 1.289 . S
O790 Ho761 2.381 . S
O790 C779 1.275 . S
O791 Ho760 2.305 . S
O791 Ho761 2.669 . S
O791 C779 1.256 . S
H792 C765 0.930 . S
H793 C766 0.931 . S
H794 C768 0.934 . S
H795 C769 0.930 . S
H796 C774 0.930 . S
H797 C775 0.931 . S
H798 C777 0.934 . S
H799 C778 0.930 . S
Ho800 C803 2.811 . S
Ho800 O820 2.322 . S
Ho800 O822 2.378 . S
Ho800 O823 2.524 . S
Ho800 O824 2.381 . S
Ho800 O825 2.669 . S
Ho800 O827 2.346 . S
Ho800 O831 2.305 . S
Ho801 C812 2.811 . S
Ho801 O821 2.346 . S
Ho801 O825 2.305 . S
Ho801 O826 2.322 . S
Ho801 O828 2.378 . S
Ho801 O829 2.524 . S
Ho801 O830 2.381 . S
Ho801 O831 2.669 . S
C802 O820 1.259 . S
C802 O821 1.268 . S
C803 Ho800 2.811 . S
C803 C804 1.488 . S
C803 O822 1.215 . S
C803 O823 1.289 . S
C804 C803 1.488 . S
C804 C805 1.348 . S
C804 C809 1.413 . S
C805 C804 1.348 . S
C805 C806 1.442 . S
C805 H832 0.930 . S
C806 C805 1.442 . S
C806 C807 1.381 . S
C806 H833 0.931 . S
C807 C806 1.381 . S
C807 C808 1.321 . S
C808 C807 1.321 . S
C808 C809 1.403 . S
C808 H834 0.934 . S
C809 C804 1.413 . S
C809 C808 1.403 . S
C809 H835 0.930 . S
C810 O824 1.275 . S
C810 O825 1.256 . S
C811 O826 1.259 . S
C811 O827 1.268 . S
C812 Ho801 2.811 . S
C812 C813 1.488 . S
C812 O828 1.215 . S
C812 O829 1.289 . S
C813 C812 1.488 . S
C813 C814 1.348 . S
C813 C818 1.413 . S
C814 C813 1.348 . S
C814 C815 1.442 . S
C814 H836 0.930 . S
C815 C814 1.442 . S
C815 C816 1.381 . S
C815 H837 0.931 . S
C816 C815 1.381 . S
C816 C817 1.321 . S
C817 C816 1.321 . S
C817 C818 1.403 . S
C817 H838 0.934 . S
C818 C813 1.413 . S
C818 C817 1.403 . S
C818 H839 0.930 . S
C819 O830 1.275 . S
C819 O831 1.256 . S
O820 Ho800 2.322 . S
O820 C802 1.259 . S
O821 Ho801 2.346 . S
O821 C802 1.268 . S
O822 Ho800 2.378 . S
O822 C803 1.215 . S
O823 Ho800 2.524 . S
O823 C803 1.289 . S
O824 Ho800 2.381 . S
O824 C810 1.275 . S
O825 Ho800 2.669 . S
O825 Ho801 2.305 . S
O825 C810 1.256 . S
O826 Ho801 2.322 . S
O826 C811 1.259 . S
O827 Ho800 2.346 . S
O827 C811 1.268 . S
O828 Ho801 2.378 . S
O828 C812 1.215 . S
O829 Ho801 2.524 . S
O829 C812 1.289 . S
O830 Ho801 2.381 . S
O830 C819 1.275 . S
O831 Ho800 2.305 . S
O831 Ho801 2.669 . S
O831 C819 1.256 . S
H832 C805 0.930 . S
H833 C806 0.931 . S
H834 C808 0.934 . S
H835 C809 0.930 . S
H836 C814 0.930 . S
H837 C815 0.931 . S
H838 C817 0.934 . S
H839 C818 0.930 . S
Ho840 C843 2.811 . S
Ho840 O860 2.322 . S
Ho840 O862 2.378 . S
Ho840 O863 2.524 . S
Ho840 O864 2.381 . S
Ho840 O865 2.669 . S
Ho840 O867 2.346 . S
Ho840 O871 2.305 . S
Ho841 C852 2.811 . S
Ho841 O861 2.346 . S
Ho841 O865 2.305 . S
Ho841 O866 2.322 . S
Ho841 O868 2.378 . S
Ho841 O869 2.524 . S
Ho841 O870 2.393 . S
Ho841 O871 2.669 . S
C842 O860 1.259 . S
C842 O861 1.268 . S
C843 Ho840 2.811 . S
C843 C844 1.488 . S
C843 O862 1.215 . S
C843 O863 1.289 . S
C844 C843 1.488 . S
C844 C845 1.348 . S
C844 C849 1.413 . S
C845 C844 1.348 . S
C845 C846 1.442 . S
C845 H872 0.930 . S
C846 C845 1.442 . S
C846 C847 1.381 . S
C846 H873 0.931 . S
C847 C846 1.381 . S
C847 C848 1.321 . S
C848 C847 1.321 . S
C848 C849 1.403 . S
C848 H874 0.934 . S
C849 C844 1.413 . S
C849 C848 1.403 . S
C849 H875 0.930 . S
C850 O864 1.275 . S
C850 O865 1.256 . S
C851 O866 1.259 . S
C851 O867 1.268 . S
C852 Ho841 2.811 . S
C852 C853 1.488 . S
C852 O868 1.215 . S
C852 O869 1.289 . S
C853 C852 1.488 . S
C853 C854 1.348 . S
C853 C858 1.413 . S
C854 C853 1.348 . S
C854 C855 1.442 . S
C854 H876 0.930 . S
C855 C854 1.442 . S
C855 C856 1.381 . S
C855 H877 0.931 . S
C856 C855 1.381 . S
C856 C857 1.321 . S
C857 C856 1.321 . S
C857 C858 1.403 . S
C857 H878 0.934 . S
C858 C853 1.413 . S
C858 C857 1.403 . S
C858 H879 0.930 . S
C859 O870 1.271 1_554 S
C859 O871 1.256 1_554 S
O860 Ho840 2.322 . S
O860 C842 1.259 . S
O861 Ho841 2.346 . S
O861 C842 1.268 . S
O862 Ho840 2.378 . S
O862 C843 1.215 . S
O863 Ho840 2.524 . S
O863 C843 1.289 . S
O864 Ho840 2.381 . S
O864 C850 1.275 . S
O865 Ho840 2.669 . S
O865 Ho841 2.305 . S
O865 C850 1.256 . S
O866 Ho841 2.322 . S
O866 C851 1.259 . S
O867 Ho840 2.346 . S
O867 C851 1.268 . S
O868 Ho841 2.378 . S
O868 C852 1.215 . S
O869 Ho841 2.524 . S
O869 C852 1.289 . S
O870 Ho841 2.393 . S
O870 C859 1.271 1_556 S
O871 Ho840 2.305 . S
O871 Ho841 2.669 . S
O871 C859 1.256 1_556 S
H872 C845 0.930 . S
H873 C846 0.931 . S
H874 C848 0.934 . S
H875 C849 0.930 . S
H876 C854 0.930 . S
H877 C855 0.931 . S
H878 C857 0.934 . S
H879 C858 0.930 . S
Ho880 C883 2.811 . S
Ho880 O900 2.322 . S
Ho880 O902 2.378 . S
Ho880 O903 2.524 . S
Ho880 O904 2.381 . S
Ho880 O905 2.669 . S
Ho880 O907 2.346 . S
Ho880 O911 2.305 . S
Ho881 C892 2.811 . S
Ho881 O901 2.346 . S
Ho881 O905 2.305 . S
Ho881 O906 2.322 . S
Ho881 O908 2.378 . S
Ho881 O909 2.524 . S
Ho881 O910 2.393 . S
Ho881 O911 2.669 . S
C882 O900 1.259 . S
C882 O901 1.268 . S
C883 Ho880 2.811 . S
C883 C884 1.488 . S
C883 O902 1.215 . S
C883 O903 1.289 . S
C884 C883 1.488 . S
C884 C885 1.348 . S
C884 C889 1.413 . S
C885 C884 1.348 . S
C885 C886 1.442 . S
C885 H912 0.930 . S
C886 C885 1.442 . S
C886 C887 1.381 . S
C886 H913 0.931 . S
C887 C886 1.381 . S
C887 C888 1.321 . S
C888 C887 1.321 . S
C888 C889 1.403 . S
C888 H914 0.934 . S
C889 C884 1.413 . S
C889 C888 1.403 . S
C889 H915 0.930 . S
C890 O904 1.275 . S
C890 O905 1.256 . S
C891 O906 1.259 . S
C891 O907 1.268 . S
C892 Ho881 2.811 . S
C892 C893 1.488 . S
C892 O908 1.215 . S
C892 O909 1.289 . S
C893 C892 1.488 . S
C893 C894 1.348 . S
C893 C898 1.413 . S
C894 C893 1.348 . S
C894 C895 1.442 . S
C894 H916 0.930 . S
C895 C894 1.442 . S
C895 C896 1.381 . S
C895 H917 0.931 . S
C896 C895 1.381 . S
C896 C897 1.321 . S
C897 C896 1.321 . S
C897 C898 1.403 . S
C897 H918 0.934 . S
C898 C893 1.413 . S
C898 C897 1.403 . S
C898 H919 0.930 . S
C899 O910 1.271 1_554 S
C899 O911 1.256 1_554 S
O900 Ho880 2.322 . S
O900 C882 1.259 . S
O901 Ho881 2.346 . S
O901 C882 1.268 . S
O902 Ho880 2.378 . S
O902 C883 1.215 . S
O903 Ho880 2.524 . S
O903 C883 1.289 . S
O904 Ho880 2.381 . S
O904 C890 1.275 . S
O905 Ho880 2.669 . S
O905 Ho881 2.305 . S
O905 C890 1.256 . S
O906 Ho881 2.322 . S
O906 C891 1.259 . S
O907 Ho880 2.346 . S
O907 C891 1.268 . S
O908 Ho881 2.378 . S
O908 C892 1.215 . S
O909 Ho881 2.524 . S
O909 C892 1.289 . S
O910 Ho881 2.393 . S
O910 C899 1.271 1_556 S
O911 Ho880 2.305 . S
O911 Ho881 2.669 . S
O911 C899 1.256 1_556 S
H912 C885 0.930 . S
H913 C886 0.931 . S
H914 C888 0.934 . S
H915 C889 0.930 . S
H916 C894 0.930 . S
H917 C895 0.931 . S
H918 C897 0.934 . S
H919 C898 0.930 . S
Ho920 C923 2.811 . S
Ho920 O940 2.322 . S
Ho920 O942 2.378 . S
Ho920 O943 2.524 . S
Ho920 O944 2.381 . S
Ho920 O945 2.669 . S
Ho920 O947 2.346 . S
Ho920 O951 2.305 . S
Ho921 C932 2.811 . S
Ho921 O941 2.346 . S
Ho921 O945 2.305 . S
Ho921 O946 2.322 . S
Ho921 O948 2.378 . S
Ho921 O949 2.524 . S
Ho921 O950 2.393 . S
Ho921 O951 2.669 . S
C922 O940 1.259 . S
C922 O941 1.268 . S
C923 Ho920 2.811 . S
C923 C924 1.488 . S
C923 O942 1.215 . S
C923 O943 1.289 . S
C924 C923 1.488 . S
C924 C925 1.348 . S
C924 C929 1.413 . S
C925 C924 1.348 . S
C925 C926 1.442 . S
C925 H952 0.930 . S
C926 C925 1.442 . S
C926 C927 1.381 . S
C926 H953 0.931 . S
C927 C926 1.381 . S
C927 C928 1.321 . S
C928 C927 1.321 . S
C928 C929 1.403 . S
C928 H954 0.934 . S
C929 C924 1.413 . S
C929 C928 1.403 . S
C929 H955 0.930 . S
C930 O944 1.275 . S
C930 O945 1.256 . S
C931 O946 1.259 . S
C931 O947 1.268 . S
C932 Ho921 2.811 . S
C932 C933 1.488 . S
C932 O948 1.215 . S
C932 O949 1.289 . S
C933 C932 1.488 . S
C933 C934 1.348 . S
C933 C938 1.413 . S
C934 C933 1.348 . S
C934 C935 1.442 . S
C934 H956 0.930 . S
C935 C934 1.442 . S
C935 C936 1.381 . S
C935 H957 0.931 . S
C936 C935 1.381 . S
C936 C937 1.321 . S
C937 C936 1.321 . S
C937 C938 1.403 . S
C937 H958 0.934 . S
C938 C933 1.413 . S
C938 C937 1.403 . S
C938 H959 0.930 . S
C939 O950 1.271 1_554 S
C939 O951 1.256 1_554 S
O940 Ho920 2.322 . S
O940 C922 1.259 . S
O941 Ho921 2.346 . S
O941 C922 1.268 . S
O942 Ho920 2.378 . S
O942 C923 1.215 . S
O943 Ho920 2.524 . S
O943 C923 1.289 . S
O944 Ho920 2.381 . S
O944 C930 1.275 . S
O945 Ho920 2.669 . S
O945 Ho921 2.305 . S
O945 C930 1.256 . S
O946 Ho921 2.322 . S
O946 C931 1.259 . S
O947 Ho920 2.346 . S
O947 C931 1.268 . S
O948 Ho921 2.378 . S
O948 C932 1.215 . S
O949 Ho921 2.524 . S
O949 C932 1.289 . S
O950 Ho921 2.393 . S
O950 C939 1.271 1_556 S
O951 Ho920 2.305 . S
O951 Ho921 2.669 . S
O951 C939 1.256 1_556 S
H952 C925 0.930 . S
H953 C926 0.931 . S
H954 C928 0.934 . S
H955 C929 0.930 . S
H956 C934 0.930 . S
H957 C935 0.931 . S
H958 C937 0.934 . S
H959 C938 0.930 . S
Ho960 C963 2.811 . S
Ho960 O980 2.322 . S
Ho960 O982 2.378 . S
Ho960 O983 2.524 . S
Ho960 O984 2.381 . S
Ho960 O985 2.669 . S
Ho960 O987 2.346 . S
Ho960 O991 2.305 . S
Ho961 C972 2.811 . S
Ho961 O981 2.346 . S
Ho961 O985 2.305 . S
Ho961 O986 2.322 . S
Ho961 O988 2.378 . S
Ho961 O989 2.524 . S
Ho961 O990 2.381 . S
Ho961 O991 2.669 . S
C962 O980 1.259 . S
C962 O981 1.268 . S
C963 Ho960 2.811 . S
C963 C964 1.488 . S
C963 O982 1.215 . S
C963 O983 1.289 . S
C964 C963 1.488 . S
C964 C965 1.348 . S
C964 C969 1.413 . S
C965 C964 1.348 . S
C965 C966 1.442 . S
C965 H992 0.930 . S
C966 C965 1.442 . S
C966 C967 1.381 . S
C966 H993 0.931 . S
C967 C966 1.381 . S
C967 C968 1.321 . S
C968 C967 1.321 . S
C968 C969 1.403 . S
C968 H994 0.934 . S
C969 C964 1.413 . S
C969 C968 1.403 . S
C969 H995 0.930 . S
C970 O984 1.275 . S
C970 O985 1.256 . S
C971 O986 1.259 . S
C971 O987 1.268 . S
C972 Ho961 2.811 . S
C972 C973 1.488 . S
C972 O988 1.215 . S
C972 O989 1.289 . S
C973 C972 1.488 . S
C973 C974 1.348 . S
C973 C978 1.413 . S
C974 C973 1.348 . S
C974 C975 1.442 . S
C974 H996 0.930 . S
C975 C974 1.442 . S
C975 C976 1.381 . S
C975 H997 0.931 . S
C976 C975 1.381 . S
C976 C977 1.321 . S
C977 C976 1.321 . S
C977 C978 1.403 . S
C977 H998 0.934 . S
C978 C973 1.413 . S
C978 C977 1.403 . S
C978 H999 0.930 . S
C979 O990 1.275 . S
C979 O991 1.256 . S
O980 Ho960 2.322 . S
O980 C962 1.259 . S
O981 Ho961 2.346 . S
O981 C962 1.268 . S
O982 Ho960 2.378 . S
O982 C963 1.215 . S
O983 Ho960 2.524 . S
O983 C963 1.289 . S
O984 Ho960 2.381 . S
O984 C970 1.275 . S
O985 Ho960 2.669 . S
O985 Ho961 2.305 . S
O985 C970 1.256 . S
O986 Ho961 2.322 . S
O986 C971 1.259 . S
O987 Ho960 2.346 . S
O987 C971 1.268 . S
O988 Ho961 2.378 . S
O988 C972 1.215 . S
O989 Ho961 2.524 . S
O989 C972 1.289 . S
O990 Ho961 2.381 . S
O990 C979 1.275 . S
O991 Ho960 2.305 . S
O991 Ho961 2.669 . S
O991 C979 1.256 . S
H992 C965 0.930 . S
H993 C966 0.931 . S
H994 C968 0.934 . S
H995 C969 0.930 . S
H996 C974 0.930 . S
H997 C975 0.931 . S
H998 C977 0.934 . S
H999 C978 0.930 . S
Ho1000 C1003 2.811 . S
Ho1000 O1020 2.322 . S
Ho1000 O1022 2.378 . S
Ho1000 O1023 2.524 . S
Ho1000 O1024 2.381 . S
Ho1000 O1025 2.669 . S
Ho1000 O1027 2.346 . S
Ho1000 O1031 2.305 . S
Ho1001 C1012 2.811 . S
Ho1001 O1021 2.346 . S
Ho1001 O1025 2.305 . S
Ho1001 O1026 2.322 . S
Ho1001 O1028 2.378 . S
Ho1001 O1029 2.524 . S
Ho1001 O1030 2.381 . S
Ho1001 O1031 2.669 . S
C1002 O1020 1.259 . S
C1002 O1021 1.268 . S
C1003 Ho1000 2.811 . S
C1003 C1004 1.488 . S
C1003 O1022 1.215 . S
C1003 O1023 1.289 . S
C1004 C1003 1.488 . S
C1004 C1005 1.348 . S
C1004 C1009 1.413 . S
C1005 C1004 1.348 . S
C1005 C1006 1.442 . S
C1005 H1032 0.930 . S
C1006 C1005 1.442 . S
C1006 C1007 1.381 . S
C1006 H1033 0.931 . S
C1007 C1006 1.381 . S
C1007 C1008 1.321 . S
C1008 C1007 1.321 . S
C1008 C1009 1.403 . S
C1008 H1034 0.934 . S
C1009 C1004 1.413 . S
C1009 C1008 1.403 . S
C1009 H1035 0.930 . S
C1010 O1024 1.275 . S
C1010 O1025 1.256 . S
C1011 O1026 1.259 . S
C1011 O1027 1.268 . S
C1012 Ho1001 2.811 . S
C1012 C1013 1.488 . S
C1012 O1028 1.215 . S
C1012 O1029 1.289 . S
C1013 C1012 1.488 . S
C1013 C1014 1.348 . S
C1013 C1018 1.413 . S
C1014 C1013 1.348 . S
C1014 C1015 1.442 . S
C1014 H1036 0.930 . S
C1015 C1014 1.442 . S
C1015 C1016 1.381 . S
C1015 H1037 0.931 . S
C1016 C1015 1.381 . S
C1016 C1017 1.321 . S
C1017 C1016 1.321 . S
C1017 C1018 1.403 . S
C1017 H1038 0.934 . S
C1018 C1013 1.413 . S
C1018 C1017 1.403 . S
C1018 H1039 0.930 . S
C1019 O1030 1.275 . S
C1019 O1031 1.256 . S
O1020 Ho1000 2.322 . S
O1020 C1002 1.259 . S
O1021 Ho1001 2.346 . S
O1021 C1002 1.268 . S
O1022 Ho1000 2.378 . S
O1022 C1003 1.215 . S
O1023 Ho1000 2.524 . S
O1023 C1003 1.289 . S
O1024 Ho1000 2.381 . S
O1024 C1010 1.275 . S
O1025 Ho1000 2.669 . S
O1025 Ho1001 2.305 . S
O1025 C1010 1.256 . S
O1026 Ho1001 2.322 . S
O1026 C1011 1.259 . S
O1027 Ho1000 2.346 . S
O1027 C1011 1.268 . S
O1028 Ho1001 2.378 . S
O1028 C1012 1.215 . S
O1029 Ho1001 2.524 . S
O1029 C1012 1.289 . S
O1030 Ho1001 2.381 . S
O1030 C1019 1.275 . S
O1031 Ho1000 2.305 . S
O1031 Ho1001 2.669 . S
O1031 C1019 1.256 . S
H1032 C1005 0.930 . S
H1033 C1006 0.931 . S
H1034 C1008 0.934 . S
H1035 C1009 0.930 . S
H1036 C1014 0.930 . S
H1037 C1015 0.931 . S
H1038 C1017 0.934 . S
H1039 C1018 0.930 . S
Ho1040 C1043 2.811 . S
Ho1040 O1060 2.322 . S
Ho1040 O1062 2.378 . S
Ho1040 O1063 2.524 . S
Ho1040 O1064 2.381 . S
Ho1040 O1065 2.669 . S
Ho1040 O1067 2.346 . S
Ho1040 O1071 2.305 . S
Ho1041 C1052 2.811 . S
Ho1041 O1061 2.346 . S
Ho1041 O1065 2.305 . S
Ho1041 O1066 2.322 . S
Ho1041 O1068 2.378 . S
Ho1041 O1069 2.524 . S
Ho1041 O1070 2.381 . S
Ho1041 O1071 2.669 . S
C1042 O1060 1.259 . S
C1042 O1061 1.268 . S
C1043 Ho1040 2.811 . S
C1043 C1044 1.488 . S
C1043 O1062 1.215 . S
C1043 O1063 1.289 . S
C1044 C1043 1.488 . S
C1044 C1045 1.348 . S
C1044 C1049 1.413 . S
C1045 C1044 1.348 . S
C1045 C1046 1.442 . S
C1045 H1072 0.930 . S
C1046 C1045 1.442 . S
C1046 C1047 1.381 . S
C1046 H1073 0.931 . S
C1047 C1046 1.381 . S
C1047 C1048 1.321 . S
C1048 C1047 1.321 . S
C1048 C1049 1.403 . S
C1048 H1074 0.934 . S
C1049 C1044 1.413 . S
C1049 C1048 1.403 . S
C1049 H1075 0.930 . S
C1050 O1064 1.275 . S
C1050 O1065 1.256 . S
C1051 O1066 1.259 . S
C1051 O1067 1.268 . S
C1052 Ho1041 2.811 . S
C1052 C1053 1.488 . S
C1052 O1068 1.215 . S
C1052 O1069 1.289 . S
C1053 C1052 1.488 . S
C1053 C1054 1.348 . S
C1053 C1058 1.413 . S
C1054 C1053 1.348 . S
C1054 C1055 1.442 . S
C1054 H1076 0.930 . S
C1055 C1054 1.442 . S
C1055 C1056 1.381 . S
C1055 H1077 0.931 . S
C1056 C1055 1.381 . S
C1056 C1057 1.321 . S
C1057 C1056 1.321 . S
C1057 C1058 1.403 . S
C1057 H1078 0.934 . S
C1058 C1053 1.413 . S
C1058 C1057 1.403 . S
C1058 H1079 0.930 . S
C1059 O1070 1.275 . S
C1059 O1071 1.256 . S
O1060 Ho1040 2.322 . S
O1060 C1042 1.259 . S
O1061 Ho1041 2.346 . S
O1061 C1042 1.268 . S
O1062 Ho1040 2.378 . S
O1062 C1043 1.215 . S
O1063 Ho1040 2.524 . S
O1063 C1043 1.289 . S
O1064 Ho1040 2.381 . S
O1064 C1050 1.275 . S
O1065 Ho1040 2.669 . S
O1065 Ho1041 2.305 . S
O1065 C1050 1.256 . S
O1066 Ho1041 2.322 . S
O1066 C1051 1.259 . S
O1067 Ho1040 2.346 . S
O1067 C1051 1.268 . S
O1068 Ho1041 2.378 . S
O1068 C1052 1.215 . S
O1069 Ho1041 2.524 . S
O1069 C1052 1.289 . S
O1070 Ho1041 2.381 . S
O1070 C1059 1.275 . S
O1071 Ho1040 2.305 . S
O1071 Ho1041 2.669 . S
O1071 C1059 1.256 . S
H1072 C1045 0.930 . S
H1073 C1046 0.931 . S
H1074 C1048 0.934 . S
H1075 C1049 0.930 . S
H1076 C1054 0.930 . S
H1077 C1055 0.931 . S
H1078 C1057 0.934 . S
H1079 C1058 0.930 . S
Ho1080 C1083 2.811 . S
Ho1080 O1100 2.322 . S
Ho1080 O1102 2.378 . S
Ho1080 O1103 2.524 . S
Ho1080 O1104 2.393 . S
Ho1080 O1105 2.669 . S
Ho1080 O1107 2.346 . S
Ho1080 O1111 2.305 . S
Ho1081 C1092 2.811 . S
Ho1081 O1101 2.346 . S
Ho1081 O1105 2.305 . S
Ho1081 O1106 2.322 . S
Ho1081 O1108 2.378 . S
Ho1081 O1109 2.524 . S
Ho1081 O1110 2.381 . S
Ho1081 O1111 2.669 . S
C1082 O1100 1.259 . S
C1082 O1101 1.268 . S
C1083 Ho1080 2.811 . S
C1083 C1084 1.488 . S
C1083 O1102 1.215 . S
C1083 O1103 1.289 . S
C1084 C1083 1.488 . S
C1084 C1085 1.348 . S
C1084 C1089 1.413 . S
C1085 C1084 1.348 . S
C1085 C1086 1.442 . S
C1085 H1112 0.930 . S
C1086 C1085 1.442 . S
C1086 C1087 1.381 . S
C1086 H1113 0.931 . S
C1087 C1086 1.381 . S
C1087 C1088 1.321 . S
C1088 C1087 1.321 . S
C1088 C1089 1.403 . S
C1088 H1114 0.934 . S
C1089 C1084 1.413 . S
C1089 C1088 1.403 . S
C1089 H1115 0.930 . S
C1090 O1104 1.271 1_556 S
C1090 O1105 1.256 1_556 S
C1091 O1106 1.259 . S
C1091 O1107 1.268 . S
C1092 Ho1081 2.811 . S
C1092 C1093 1.488 . S
C1092 O1108 1.215 . S
C1092 O1109 1.289 . S
C1093 C1092 1.488 . S
C1093 C1094 1.348 . S
C1093 C1098 1.413 . S
C1094 C1093 1.348 . S
C1094 C1095 1.442 . S
C1094 H1116 0.930 . S
C1095 C1094 1.442 . S
C1095 C1096 1.381 . S
C1095 H1117 0.931 . S
C1096 C1095 1.381 . S
C1096 C1097 1.321 . S
C1097 C1096 1.321 . S
C1097 C1098 1.403 . S
C1097 H1118 0.934 . S
C1098 C1093 1.413 . S
C1098 C1097 1.403 . S
C1098 H1119 0.930 . S
C1099 O1110 1.275 . S
C1099 O1111 1.256 . S
O1100 Ho1080 2.322 . S
O1100 C1082 1.259 . S
O1101 Ho1081 2.346 . S
O1101 C1082 1.268 . S
O1102 Ho1080 2.378 . S
O1102 C1083 1.215 . S
O1103 Ho1080 2.524 . S
O1103 C1083 1.289 . S
O1104 Ho1080 2.393 . S
O1104 C1090 1.271 1_554 S
O1105 Ho1080 2.669 . S
O1105 Ho1081 2.305 . S
O1105 C1090 1.256 1_554 S
O1106 Ho1081 2.322 . S
O1106 C1091 1.259 . S
O1107 Ho1080 2.346 . S
O1107 C1091 1.268 . S
O1108 Ho1081 2.378 . S
O1108 C1092 1.215 . S
O1109 Ho1081 2.524 . S
O1109 C1092 1.289 . S
O1110 Ho1081 2.381 . S
O1110 C1099 1.275 . S
O1111 Ho1080 2.305 . S
O1111 Ho1081 2.669 . S
O1111 C1099 1.256 . S
H1112 C1085 0.930 . S
H1113 C1086 0.931 . S
H1114 C1088 0.934 . S
H1115 C1089 0.930 . S
H1116 C1094 0.930 . S
H1117 C1095 0.931 . S
H1118 C1097 0.934 . S
H1119 C1098 0.930 . S
Ho1120 C1123 2.811 . S
Ho1120 O1140 2.322 . S
Ho1120 O1142 2.378 . S
Ho1120 O1143 2.524 . S
Ho1120 O1144 2.393 . S
Ho1120 O1145 2.669 . S
Ho1120 O1147 2.346 . S
Ho1120 O1151 2.305 . S
Ho1121 C1132 2.811 . S
Ho1121 O1141 2.346 . S
Ho1121 O1145 2.305 . S
Ho1121 O1146 2.322 . S
Ho1121 O1148 2.378 . S
Ho1121 O1149 2.524 . S
Ho1121 O1150 2.381 . S
Ho1121 O1151 2.669 . S
C1122 O1140 1.259 . S
C1122 O1141 1.268 . S
C1123 Ho1120 2.811 . S
C1123 C1124 1.488 . S
C1123 O1142 1.215 . S
C1123 O1143 1.289 . S
C1124 C1123 1.488 . S
C1124 C1125 1.348 . S
C1124 C1129 1.413 . S
C1125 C1124 1.348 . S
C1125 C1126 1.442 . S
C1125 H1152 0.930 . S
C1126 C1125 1.442 . S
C1126 C1127 1.381 . S
C1126 H1153 0.931 . S
C1127 C1126 1.381 . S
C1127 C1128 1.321 . S
C1128 C1127 1.321 . S
C1128 C1129 1.403 . S
C1128 H1154 0.934 . S
C1129 C1124 1.413 . S
C1129 C1128 1.403 . S
C1129 H1155 0.930 . S
C1130 O1144 1.271 1_556 S
C1130 O1145 1.256 1_556 S
C1131 O1146 1.259 . S
C1131 O1147 1.268 . S
C1132 Ho1121 2.811 . S
C1132 C1133 1.488 . S
C1132 O1148 1.215 . S
C1132 O1149 1.289 . S
C1133 C1132 1.488 . S
C1133 C1134 1.348 . S
C1133 C1138 1.413 . S
C1134 C1133 1.348 . S
C1134 C1135 1.442 . S
C1134 H1156 0.930 . S
C1135 C1134 1.442 . S
C1135 C1136 1.381 . S
C1135 H1157 0.931 . S
C1136 C1135 1.381 . S
C1136 C1137 1.321 . S
C1137 C1136 1.321 . S
C1137 C1138 1.403 . S
C1137 H1158 0.934 . S
C1138 C1133 1.413 . S
C1138 C1137 1.403 . S
C1138 H1159 0.930 . S
C1139 O1150 1.275 . S
C1139 O1151 1.256 . S
O1140 Ho1120 2.322 . S
O1140 C1122 1.259 . S
O1141 Ho1121 2.346 . S
O1141 C1122 1.268 . S
O1142 Ho1120 2.378 . S
O1142 C1123 1.215 . S
O1143 Ho1120 2.524 . S
O1143 C1123 1.289 . S
O1144 Ho1120 2.393 . S
O1144 C1130 1.271 1_554 S
O1145 Ho1120 2.669 . S
O1145 Ho1121 2.305 . S
O1145 C1130 1.256 1_554 S
O1146 Ho1121 2.322 . S
O1146 C1131 1.259 . S
O1147 Ho1120 2.346 . S
O1147 C1131 1.268 . S
O1148 Ho1121 2.378 . S
O1148 C1132 1.215 . S
O1149 Ho1121 2.524 . S
O1149 C1132 1.289 . S
O1150 Ho1121 2.381 . S
O1150 C1139 1.275 . S
O1151 Ho1120 2.305 . S
O1151 Ho1121 2.669 . S
O1151 C1139 1.256 . S
H1152 C1125 0.930 . S
H1153 C1126 0.931 . S
H1154 C1128 0.934 . S
H1155 C1129 0.930 . S
H1156 C1134 0.930 . S
H1157 C1135 0.931 . S
H1158 C1137 0.934 . S
H1159 C1138 0.930 . S
Ho1160 C1163 2.811 . S
Ho1160 O1180 2.322 . S
Ho1160 O1182 2.378 . S
Ho1160 O1183 2.524 . S
Ho1160 O1184 2.393 . S
Ho1160 O1185 2.669 . S
Ho1160 O1187 2.346 . S
Ho1160 O1191 2.305 . S
Ho1161 C1172 2.811 . S
Ho1161 O1181 2.346 . S
Ho1161 O1185 2.305 . S
Ho1161 O1186 2.322 . S
Ho1161 O1188 2.378 . S
Ho1161 O1189 2.524 . S
Ho1161 O1190 2.381 . S
Ho1161 O1191 2.669 . S
C1162 O1180 1.259 . S
C1162 O1181 1.268 . S
C1163 Ho1160 2.811 . S
C1163 C1164 1.488 . S
C1163 O1182 1.215 . S
C1163 O1183 1.289 . S
C1164 C1163 1.488 . S
C1164 C1165 1.348 . S
C1164 C1169 1.413 . S
C1165 C1164 1.348 . S
C1165 C1166 1.442 . S
C1165 H1192 0.930 . S
C1166 C1165 1.442 . S
C1166 C1167 1.381 . S
C1166 H1193 0.931 . S
C1167 C1166 1.381 . S
C1167 C1168 1.321 . S
C1168 C1167 1.321 . S
C1168 C1169 1.403 . S
C1168 H1194 0.934 . S
C1169 C1164 1.413 . S
C1169 C1168 1.403 . S
C1169 H1195 0.930 . S
C1170 O1184 1.271 1_556 S
C1170 O1185 1.256 1_556 S
C1171 O1186 1.259 . S
C1171 O1187 1.268 . S
C1172 Ho1161 2.811 . S
C1172 C1173 1.488 . S
C1172 O1188 1.215 . S
C1172 O1189 1.289 . S
C1173 C1172 1.488 . S
C1173 C1174 1.348 . S
C1173 C1178 1.413 . S
C1174 C1173 1.348 . S
C1174 C1175 1.442 . S
C1174 H1196 0.930 . S
C1175 C1174 1.442 . S
C1175 C1176 1.381 . S
C1175 H1197 0.931 . S
C1176 C1175 1.381 . S
C1176 C1177 1.321 . S
C1177 C1176 1.321 . S
C1177 C1178 1.403 . S
C1177 H1198 0.934 . S
C1178 C1173 1.413 . S
C1178 C1177 1.403 . S
C1178 H1199 0.930 . S
C1179 O1190 1.275 . S
C1179 O1191 1.256 . S
O1180 Ho1160 2.322 . S
O1180 C1162 1.259 . S
O1181 Ho1161 2.346 . S
O1181 C1162 1.268 . S
O1182 Ho1160 2.378 . S
O1182 C1163 1.215 . S
O1183 Ho1160 2.524 . S
O1183 C1163 1.289 . S
O1184 Ho1160 2.393 . S
O1184 C1170 1.271 1_554 S
O1185 Ho1160 2.669 . S
O1185 Ho1161 2.305 . S
O1185 C1170 1.256 1_554 S
O1186 Ho1161 2.322 . S
O1186 C1171 1.259 . S
O1187 Ho1160 2.346 . S
O1187 C1171 1.268 . S
O1188 Ho1161 2.378 . S
O1188 C1172 1.215 . S
O1189 Ho1161 2.524 . S
O1189 C1172 1.289 . S
O1190 Ho1161 2.381 . S
O1190 C1179 1.275 . S
O1191 Ho1160 2.305 . S
O1191 Ho1161 2.669 . S
O1191 C1179 1.256 . S
H1192 C1165 0.930 . S
H1193 C1166 0.931 . S
H1194 C1168 0.934 . S
H1195 C1169 0.930 . S
H1196 C1174 0.930 . S
H1197 C1175 0.931 . S
H1198 C1177 0.934 . S
H1199 C1178 0.930 . S
Ho1200 C1203 2.811 . S
Ho1200 O1220 2.322 . S
Ho1200 O1222 2.378 . S
Ho1200 O1223 2.524 . S
Ho1200 O1224 2.381 . S
Ho1200 O1225 2.669 . S
Ho1200 O1227 2.346 . S
Ho1200 O1231 2.305 . S
Ho1201 C1212 2.811 . S
Ho1201 O1221 2.346 . S
Ho1201 O1225 2.305 . S
Ho1201 O1226 2.322 . S
Ho1201 O1228 2.378 . S
Ho1201 O1229 2.524 . S
Ho1201 O1230 2.381 . S
Ho1201 O1231 2.669 . S
C1202 O1220 1.259 . S
C1202 O1221 1.268 . S
C1203 Ho1200 2.811 . S
C1203 C1204 1.488 . S
C1203 O1222 1.215 . S
C1203 O1223 1.289 . S
C1204 C1203 1.488 . S
C1204 C1205 1.348 . S
C1204 C1209 1.413 . S
C1205 C1204 1.348 . S
C1205 C1206 1.442 . S
C1205 H1232 0.930 . S
C1206 C1205 1.442 . S
C1206 C1207 1.381 . S
C1206 H1233 0.931 . S
C1207 C1206 1.381 . S
C1207 C1208 1.321 . S
C1208 C1207 1.321 . S
C1208 C1209 1.403 . S
C1208 H1234 0.934 . S
C1209 C1204 1.413 . S
C1209 C1208 1.403 . S
C1209 H1235 0.930 . S
C1210 O1224 1.275 . S
C1210 O1225 1.256 . S
C1211 O1226 1.259 . S
C1211 O1227 1.268 . S
C1212 Ho1201 2.811 . S
C1212 C1213 1.488 . S
C1212 O1228 1.215 . S
C1212 O1229 1.289 . S
C1213 C1212 1.488 . S
C1213 C1214 1.348 . S
C1213 C1218 1.413 . S
C1214 C1213 1.348 . S
C1214 C1215 1.442 . S
C1214 H1236 0.930 . S
C1215 C1214 1.442 . S
C1215 C1216 1.381 . S
C1215 H1237 0.931 . S
C1216 C1215 1.381 . S
C1216 C1217 1.321 . S
C1217 C1216 1.321 . S
C1217 C1218 1.403 . S
C1217 H1238 0.934 . S
C1218 C1213 1.413 . S
C1218 C1217 1.403 . S
C1218 H1239 0.930 . S
C1219 O1230 1.275 . S
C1219 O1231 1.256 . S
O1220 Ho1200 2.322 . S
O1220 C1202 1.259 . S
O1221 Ho1201 2.346 . S
O1221 C1202 1.268 . S
O1222 Ho1200 2.378 . S
O1222 C1203 1.215 . S
O1223 Ho1200 2.524 . S
O1223 C1203 1.289 . S
O1224 Ho1200 2.381 . S
O1224 C1210 1.275 . S
O1225 Ho1200 2.669 . S
O1225 Ho1201 2.305 . S
O1225 C1210 1.256 . S
O1226 Ho1201 2.322 . S
O1226 C1211 1.259 . S
O1227 Ho1200 2.346 . S
O1227 C1211 1.268 . S
O1228 Ho1201 2.378 . S
O1228 C1212 1.215 . S
O1229 Ho1201 2.524 . S
O1229 C1212 1.289 . S
O1230 Ho1201 2.381 . S
O1230 C1219 1.275 . S
O1231 Ho1200 2.305 . S
O1231 Ho1201 2.669 . S
O1231 C1219 1.256 . S
H1232 C1205 0.930 . S
H1233 C1206 0.931 . S
H1234 C1208 0.934 . S
H1235 C1209 0.930 . S
H1236 C1214 0.930 . S
H1237 C1215 0.931 . S
H1238 C1217 0.934 . S
H1239 C1218 0.930 . S
Ho1240 C1243 2.811 . S
Ho1240 O1260 2.322 . S
Ho1240 O1262 2.378 . S
Ho1240 O1263 2.524 . S
Ho1240 O1264 2.381 . S
Ho1240 O1265 2.669 . S
Ho1240 O1267 2.346 . S
Ho1240 O1271 2.305 . S
Ho1241 C1252 2.811 . S
Ho1241 O1261 2.346 . S
Ho1241 O1265 2.305 . S
Ho1241 O1266 2.322 . S
Ho1241 O1268 2.378 . S
Ho1241 O1269 2.524 . S
Ho1241 O1270 2.381 . S
Ho1241 O1271 2.669 . S
C1242 O1260 1.259 . S
C1242 O1261 1.268 . S
C1243 Ho1240 2.811 . S
C1243 C1244 1.488 . S
C1243 O1262 1.215 . S
C1243 O1263 1.289 . S
C1244 C1243 1.488 . S
C1244 C1245 1.348 . S
C1244 C1249 1.413 . S
C1245 C1244 1.348 . S
C1245 C1246 1.442 . S
C1245 H1272 0.930 . S
C1246 C1245 1.442 . S
C1246 C1247 1.381 . S
C1246 H1273 0.931 . S
C1247 C1246 1.381 . S
C1247 C1248 1.321 . S
C1248 C1247 1.321 . S
C1248 C1249 1.403 . S
C1248 H1274 0.934 . S
C1249 C1244 1.413 . S
C1249 C1248 1.403 . S
C1249 H1275 0.930 . S
C1250 O1264 1.275 . S
C1250 O1265 1.256 . S
C1251 O1266 1.259 . S
C1251 O1267 1.268 . S
C1252 Ho1241 2.811 . S
C1252 C1253 1.488 . S
C1252 O1268 1.215 . S
C1252 O1269 1.289 . S
C1253 C1252 1.488 . S
C1253 C1254 1.348 . S
C1253 C1258 1.413 . S
C1254 C1253 1.348 . S
C1254 C1255 1.442 . S
C1254 H1276 0.930 . S
C1255 C1254 1.442 . S
C1255 C1256 1.381 . S
C1255 H1277 0.931 . S
C1256 C1255 1.381 . S
C1256 C1257 1.321 . S
C1257 C1256 1.321 . S
C1257 C1258 1.403 . S
C1257 H1278 0.934 . S
C1258 C1253 1.413 . S
C1258 C1257 1.403 . S
C1258 H1279 0.930 . S
C1259 O1270 1.275 . S
C1259 O1271 1.256 . S
O1260 Ho1240 2.322 . S
O1260 C1242 1.259 . S
O1261 Ho1241 2.346 . S
O1261 C1242 1.268 . S
O1262 Ho1240 2.378 . S
O1262 C1243 1.215 . S
O1263 Ho1240 2.524 . S
O1263 C1243 1.289 . S
O1264 Ho1240 2.381 . S
O1264 C1250 1.275 . S
O1265 Ho1240 2.669 . S
O1265 Ho1241 2.305 . S
O1265 C1250 1.256 . S
O1266 Ho1241 2.322 . S
O1266 C1251 1.259 . S
O1267 Ho1240 2.346 . S
O1267 C1251 1.268 . S
O1268 Ho1241 2.378 . S
O1268 C1252 1.215 . S
O1269 Ho1241 2.524 . S
O1269 C1252 1.289 . S
O1270 Ho1241 2.381 . S
O1270 C1259 1.275 . S
O1271 Ho1240 2.305 . S
O1271 Ho1241 2.669 . S
O1271 C1259 1.256 . S
H1272 C1245 0.930 . S
H1273 C1246 0.931 . S
H1274 C1248 0.934 . S
H1275 C1249 0.930 . S
H1276 C1254 0.930 . S
H1277 C1255 0.931 . S
H1278 C1257 0.934 . S
H1279 C1258 0.930 . S
Ho1280 C1283 2.811 . S
Ho1280 O1300 2.322 . S
Ho1280 O1302 2.378 . S
Ho1280 O1303 2.524 . S
Ho1280 O1304 2.381 . S
Ho1280 O1305 2.669 . S
Ho1280 O1307 2.346 . S
Ho1280 O1311 2.305 . S
Ho1281 C1292 2.811 . S
Ho1281 O1301 2.346 . S
Ho1281 O1305 2.305 . S
Ho1281 O1306 2.322 . S
Ho1281 O1308 2.378 . S
Ho1281 O1309 2.524 . S
Ho1281 O1310 2.381 . S
Ho1281 O1311 2.669 . S
C1282 O1300 1.259 . S
C1282 O1301 1.268 . S
C1283 Ho1280 2.811 . S
C1283 C1284 1.488 . S
C1283 O1302 1.215 . S
C1283 O1303 1.289 . S
C1284 C1283 1.488 . S
C1284 C1285 1.348 . S
C1284 C1289 1.413 . S
C1285 C1284 1.348 . S
C1285 C1286 1.442 . S
C1285 H1312 0.930 . S
C1286 C1285 1.442 . S
C1286 C1287 1.381 . S
C1286 H1313 0.931 . S
C1287 C1286 1.381 . S
C1287 C1288 1.321 . S
C1288 C1287 1.321 . S
C1288 C1289 1.403 . S
C1288 H1314 0.934 . S
C1289 C1284 1.413 . S
C1289 C1288 1.403 . S
C1289 H1315 0.930 . S
C1290 O1304 1.275 . S
C1290 O1305 1.256 . S
C1291 O1306 1.259 . S
C1291 O1307 1.268 . S
C1292 Ho1281 2.811 . S
C1292 C1293 1.488 . S
C1292 O1308 1.215 . S
C1292 O1309 1.289 . S
C1293 C1292 1.488 . S
C1293 C1294 1.348 . S
C1293 C1298 1.413 . S
C1294 C1293 1.348 . S
C1294 C1295 1.442 . S
C1294 H1316 0.930 . S
C1295 C1294 1.442 . S
C1295 C1296 1.381 . S
C1295 H1317 0.931 . S
C1296 C1295 1.381 . S
C1296 C1297 1.321 . S
C1297 C1296 1.321 . S
C1297 C1298 1.403 . S
C1297 H1318 0.934 . S
C1298 C1293 1.413 . S
C1298 C1297 1.403 . S
C1298 H1319 0.930 . S
C1299 O1310 1.275 . S
C1299 O1311 1.256 . S
O1300 Ho1280 2.322 . S
O1300 C1282 1.259 . S
O1301 Ho1281 2.346 . S
O1301 C1282 1.268 . S
O1302 Ho1280 2.378 . S
O1302 C1283 1.215 . S
O1303 Ho1280 2.524 . S
O1303 C1283 1.289 . S
O1304 Ho1280 2.381 . S
O1304 C1290 1.275 . S
O1305 Ho1280 2.669 . S
O1305 Ho1281 2.305 . S
O1305 C1290 1.256 . S
O1306 Ho1281 2.322 . S
O1306 C1291 1.259 . S
O1307 Ho1280 2.346 . S
O1307 C1291 1.268 . S
O1308 Ho1281 2.378 . S
O1308 C1292 1.215 . S
O1309 Ho1281 2.524 . S
O1309 C1292 1.289 . S
O1310 Ho1281 2.381 . S
O1310 C1299 1.275 . S
O1311 Ho1280 2.305 . S
O1311 Ho1281 2.669 . S
O1311 C1299 1.256 . S
H1312 C1285 0.930 . S
H1313 C1286 0.931 . S
H1314 C1288 0.934 . S
H1315 C1289 0.930 . S
H1316 C1294 0.930 . S
H1317 C1295 0.931 . S
H1318 C1297 0.934 . S
H1319 C1298 0.930 . S
Ho1320 C1323 2.811 . S
Ho1320 O1340 2.322 . S
Ho1320 O1342 2.378 . S
Ho1320 O1343 2.524 . S
Ho1320 O1344 2.381 . S
Ho1320 O1345 2.669 . S
Ho1320 O1347 2.346 . S
Ho1320 O1351 2.305 . S
Ho1321 C1332 2.811 . S
Ho1321 O1341 2.346 . S
Ho1321 O1345 2.305 . S
Ho1321 O1346 2.322 . S
Ho1321 O1348 2.378 . S
Ho1321 O1349 2.524 . S
Ho1321 O1350 2.381 . S
Ho1321 O1351 2.669 . S
C1322 O1340 1.259 . S
C1322 O1341 1.268 . S
C1323 Ho1320 2.811 . S
C1323 C1324 1.488 . S
C1323 O1342 1.215 . S
C1323 O1343 1.289 . S
C1324 C1323 1.488 . S
C1324 C1325 1.348 . S
C1324 C1329 1.413 . S
C1325 C1324 1.348 . S
C1325 C1326 1.442 . S
C1325 H1352 0.930 . S
C1326 C1325 1.442 . S
C1326 C1327 1.381 . S
C1326 H1353 0.931 . S
C1327 C1326 1.381 . S
C1327 C1328 1.321 . S
C1328 C1327 1.321 . S
C1328 C1329 1.403 . S
C1328 H1354 0.934 . S
C1329 C1324 1.413 . S
C1329 C1328 1.403 . S
C1329 H1355 0.930 . S
C1330 O1344 1.275 . S
C1330 O1345 1.256 . S
C1331 O1346 1.259 . S
C1331 O1347 1.268 . S
C1332 Ho1321 2.811 . S
C1332 C1333 1.488 . S
C1332 O1348 1.215 . S
C1332 O1349 1.289 . S
C1333 C1332 1.488 . S
C1333 C1334 1.348 . S
C1333 C1338 1.413 . S
C1334 C1333 1.348 . S
C1334 C1335 1.442 . S
C1334 H1356 0.930 . S
C1335 C1334 1.442 . S
C1335 C1336 1.381 . S
C1335 H1357 0.931 . S
C1336 C1335 1.381 . S
C1336 C1337 1.321 . S
C1337 C1336 1.321 . S
C1337 C1338 1.403 . S
C1337 H1358 0.934 . S
C1338 C1333 1.413 . S
C1338 C1337 1.403 . S
C1338 H1359 0.930 . S
C1339 O1350 1.275 . S
C1339 O1351 1.256 . S
O1340 Ho1320 2.322 . S
O1340 C1322 1.259 . S
O1341 Ho1321 2.346 . S
O1341 C1322 1.268 . S
O1342 Ho1320 2.378 . S
O1342 C1323 1.215 . S
O1343 Ho1320 2.524 . S
O1343 C1323 1.289 . S
O1344 Ho1320 2.381 . S
O1344 C1330 1.275 . S
O1345 Ho1320 2.669 . S
O1345 Ho1321 2.305 . S
O1345 C1330 1.256 . S
O1346 Ho1321 2.322 . S
O1346 C1331 1.259 . S
O1347 Ho1320 2.346 . S
O1347 C1331 1.268 . S
O1348 Ho1321 2.378 . S
O1348 C1332 1.215 . S
O1349 Ho1321 2.524 . S
O1349 C1332 1.289 . S
O1350 Ho1321 2.381 . S
O1350 C1339 1.275 . S
O1351 Ho1320 2.305 . S
O1351 Ho1321 2.669 . S
O1351 C1339 1.256 . S
H1352 C1325 0.930 . S
H1353 C1326 0.931 . S
H1354 C1328 0.934 . S
H1355 C1329 0.930 . S
H1356 C1334 0.930 . S
H1357 C1335 0.931 . S
H1358 C1337 0.934 . S
H1359 C1338 0.930 . S
Ho1360 C1363 2.811 . S
Ho1360 O1380 2.322 . S
Ho1360 O1382 2.378 . S
Ho1360 O1383 2.524 . S
Ho1360 O1384 2.381 . S
Ho1360 O1385 2.669 . S
Ho1360 O1387 2.346 . S
Ho1360 O1391 2.305 . S
Ho1361 C1372 2.811 . S
Ho1361 O1381 2.346 . S
Ho1361 O1385 2.305 . S
Ho1361 O1386 2.322 . S
Ho1361 O1388 2.378 . S
Ho1361 O1389 2.524 . S
Ho1361 O1390 2.381 . S
Ho1361 O1391 2.669 . S
C1362 O1380 1.259 . S
C1362 O1381 1.268 . S
C1363 Ho1360 2.811 . S
C1363 C1364 1.488 . S
C1363 O1382 1.215 . S
C1363 O1383 1.289 . S
C1364 C1363 1.488 . S
C1364 C1365 1.348 . S
C1364 C1369 1.413 . S
C1365 C1364 1.348 . S
C1365 C1366 1.442 . S
C1365 H1392 0.930 . S
C1366 C1365 1.442 . S
C1366 C1367 1.381 . S
C1366 H1393 0.931 . S
C1367 C1366 1.381 . S
C1367 C1368 1.321 . S
C1368 C1367 1.321 . S
C1368 C1369 1.403 . S
C1368 H1394 0.934 . S
C1369 C1364 1.413 . S
C1369 C1368 1.403 . S
C1369 H1395 0.930 . S
C1370 O1384 1.275 . S
C1370 O1385 1.256 . S
C1371 O1386 1.259 . S
C1371 O1387 1.268 . S
C1372 Ho1361 2.811 . S
C1372 C1373 1.488 . S
C1372 O1388 1.215 . S
C1372 O1389 1.289 . S
C1373 C1372 1.488 . S
C1373 C1374 1.348 . S
C1373 C1378 1.413 . S
C1374 C1373 1.348 . S
C1374 C1375 1.442 . S
C1374 H1396 0.930 . S
C1375 C1374 1.442 . S
C1375 C1376 1.381 . S
C1375 H1397 0.931 . S
C1376 C1375 1.381 . S
C1376 C1377 1.321 . S
C1377 C1376 1.321 . S
C1377 C1378 1.403 . S
C1377 H1398 0.934 . S
C1378 C1373 1.413 . S
C1378 C1377 1.403 . S
C1378 H1399 0.930 . S
C1379 O1390 1.275 . S
C1379 O1391 1.256 . S
O1380 Ho1360 2.322 . S
O1380 C1362 1.259 . S
O1381 Ho1361 2.346 . S
O1381 C1362 1.268 . S
O1382 Ho1360 2.378 . S
O1382 C1363 1.215 . S
O1383 Ho1360 2.524 . S
O1383 C1363 1.289 . S
O1384 Ho1360 2.381 . S
O1384 C1370 1.275 . S
O1385 Ho1360 2.669 . S
O1385 Ho1361 2.305 . S
O1385 C1370 1.256 . S
O1386 Ho1361 2.322 . S
O1386 C1371 1.259 . S
O1387 Ho1360 2.346 . S
O1387 C1371 1.268 . S
O1388 Ho1361 2.378 . S
O1388 C1372 1.215 . S
O1389 Ho1361 2.524 . S
O1389 C1372 1.289 . S
O1390 Ho1361 2.381 . S
O1390 C1379 1.275 . S
O1391 Ho1360 2.305 . S
O1391 Ho1361 2.669 . S
O1391 C1379 1.256 . S
H1392 C1365 0.930 . S
H1393 C1366 0.931 . S
H1394 C1368 0.934 . S
H1395 C1369 0.930 . S
H1396 C1374 0.930 . S
H1397 C1375 0.931 . S
H1398 C1377 0.934 . S
H1399 C1378 0.930 . S
Ho1400 C1403 2.811 . S
Ho1400 O1420 2.322 . S
Ho1400 O1422 2.378 . S
Ho1400 O1423 2.524 . S
Ho1400 O1424 2.381 . S
Ho1400 O1425 2.669 . S
Ho1400 O1427 2.346 . S
Ho1400 O1431 2.305 . S
Ho1401 C1412 2.811 . S
Ho1401 O1421 2.346 . S
Ho1401 O1425 2.305 . S
Ho1401 O1426 2.322 . S
Ho1401 O1428 2.378 . S
Ho1401 O1429 2.524 . S
Ho1401 O1430 2.381 . S
Ho1401 O1431 2.669 . S
C1402 O1420 1.259 . S
C1402 O1421 1.268 . S
C1403 Ho1400 2.811 . S
C1403 C1404 1.488 . S
C1403 O1422 1.215 . S
C1403 O1423 1.289 . S
C1404 C1403 1.488 . S
C1404 C1405 1.348 . S
C1404 C1409 1.413 . S
C1405 C1404 1.348 . S
C1405 C1406 1.442 . S
C1405 H1432 0.930 . S
C1406 C1405 1.442 . S
C1406 C1407 1.381 . S
C1406 H1433 0.931 . S
C1407 C1406 1.381 . S
C1407 C1408 1.321 . S
C1408 C1407 1.321 . S
C1408 C1409 1.403 . S
C1408 H1434 0.934 . S
C1409 C1404 1.413 . S
C1409 C1408 1.403 . S
C1409 H1435 0.930 . S
C1410 O1424 1.275 . S
C1410 O1425 1.256 . S
C1411 O1426 1.259 . S
C1411 O1427 1.268 . S
C1412 Ho1401 2.811 . S
C1412 C1413 1.488 . S
C1412 O1428 1.215 . S
C1412 O1429 1.289 . S
C1413 C1412 1.488 . S
C1413 C1414 1.348 . S
C1413 C1418 1.413 . S
C1414 C1413 1.348 . S
C1414 C1415 1.442 . S
C1414 H1436 0.930 . S
C1415 C1414 1.442 . S
C1415 C1416 1.381 . S
C1415 H1437 0.931 . S
C1416 C1415 1.381 . S
C1416 C1417 1.321 . S
C1417 C1416 1.321 . S
C1417 C1418 1.403 . S
C1417 H1438 0.934 . S
C1418 C1413 1.413 . S
C1418 C1417 1.403 . S
C1418 H1439 0.930 . S
C1419 O1430 1.275 . S
C1419 O1431 1.256 . S
O1420 Ho1400 2.322 . S
O1420 C1402 1.259 . S
O1421 Ho1401 2.346 . S
O1421 C1402 1.268 . S
O1422 Ho1400 2.378 . S
O1422 C1403 1.215 . S
O1423 Ho1400 2.524 . S
O1423 C1403 1.289 . S
O1424 Ho1400 2.381 . S
O1424 C1410 1.275 . S
O1425 Ho1400 2.669 . S
O1425 Ho1401 2.305 . S
O1425 C1410 1.256 . S
O1426 Ho1401 2.322 . S
O1426 C1411 1.259 . S
O1427 Ho1400 2.346 . S
O1427 C1411 1.268 . S
O1428 Ho1401 2.378 . S
O1428 C1412 1.215 . S
O1429 Ho1401 2.524 . S
O1429 C1412 1.289 . S
O1430 Ho1401 2.381 . S
O1430 C1419 1.275 . S
O1431 Ho1400 2.305 . S
O1431 Ho1401 2.669 . S
O1431 C1419 1.256 . S
H1432 C1405 0.930 . S
H1433 C1406 0.931 . S
H1434 C1408 0.934 . S
H1435 C1409 0.930 . S
H1436 C1414 0.930 . S
H1437 C1415 0.931 . S
H1438 C1417 0.934 . S
H1439 C1418 0.930 . S
C1440 C1441 1.387 . S
C1440 H1444 0.950 . S
C1440 C1449 1.396 1_544 S
C1441 C1440 1.387 . S
C1441 C1443 1.387 . S
H1442 C1449 0.920 . S
C1443 C1441 1.387 . S
C1443 C1445 1.390 1_545 S
C1443 H1447 0.950 . S
H1444 C1440 0.950 . S
C1445 C1443 1.390 1_565 S
C1445 C1446 1.377 1_554 S
C1445 H1448 0.950 . S
C1446 C1445 1.377 1_556 S
C1446 C1449 1.387 . S
H1447 C1443 0.950 . S
H1448 C1445 0.950 . S
C1449 C1440 1.396 1_566 S
C1449 H1442 0.920 . S
C1449 C1446 1.387 . S
C1450 C1451 1.407 . S
C1450 H1454 0.956 . S
C1450 C1459 1.366 1_455 S
C1451 C1450 1.407 . S
C1451 C1453 1.387 1_556 S
H1452 C1459 0.950 . S
C1453 C1451 1.387 1_554 S
C1453 C1455 1.390 1_455 S
C1453 H1457 0.950 . S
H1454 C1450 0.956 . S
C1455 C1453 1.390 1_655 S
C1455 C1456 1.387 . S
C1455 H1458 0.950 . S
C1456 C1455 1.387 . S
C1456 C1459 1.387 1_554 S
H1457 C1453 0.950 . S
H1458 C1455 0.950 . S
C1459 C1450 1.366 1_655 S
C1459 H1452 0.950 . S
C1459 C1456 1.387 1_556 S
C1460 C1461 1.387 1_554 S
C1460 H1464 0.950 . S
C1460 C1469 1.390 . S
C1461 C1460 1.387 1_556 S
C1461 C1463 1.387 . S
H1462 C1469 0.950 . S
C1463 C1461 1.387 . S
C1463 C1465 1.390 1_556 S
C1463 H1467 0.950 . S
H1464 C1460 0.950 . S
C1465 C1463 1.390 1_554 S
C1465 C1466 1.387 . S
C1465 H1468 0.950 1_554 S
C1466 C1465 1.387 . S
C1466 C1469 1.387 . S
H1467 C1463 0.950 . S
H1468 C1465 0.950 1_556 S
C1469 C1460 1.390 . S
C1469 H1462 0.950 . S
C1469 C1466 1.387 . S
C1470 C1471 1.387 . S
C1470 H1474 0.950 . S
C1470 C1479 1.390 1_655 S
C1471 C1470 1.387 . S
C1471 C1473 1.379 1_655 S
H1472 C1479 0.950 . S
C1473 C1471 1.379 1_455 S
C1473 C1475 1.407 . S
C1473 H1477 0.936 1_455 S
H1474 C1470 0.950 . S
C1475 C1473 1.407 . S
C1475 C1476 1.387 . S
C1475 H1478 0.950 . S
C1476 C1475 1.387 . S
C1476 C1479 1.387 . S
H1477 C1473 0.936 1_655 S
H1478 C1475 0.950 . S
C1479 C1470 1.390 1_455 S
C1479 H1472 0.950 . S
C1479 C1476 1.387 . S
C1480 C1481 1.387 . S
C1480 H1484 0.950 . S
C1480 C1489 1.390 . S
C1481 C1480 1.387 . S
C1481 C1483 1.387 . S
H1482 C1489 0.950 . S
C1483 C1481 1.387 . S
C1483 C1485 1.390 . S
C1483 H1487 0.950 . S
H1484 C1480 0.950 . S
C1485 C1483 1.390 . S
C1485 C1486 1.387 . S
C1485 H1488 0.950 . S
C1486 C1485 1.387 . S
C1486 C1489 1.387 . S
H1487 C1483 0.950 . S
H1488 C1485 0.950 . S
C1489 C1480 1.390 . S
C1489 H1482 0.950 . S
C1489 C1486 1.387 . S
C1490 C1491 1.387 . S
C1490 H1494 0.950 . S
C1490 C1499 1.390 1_565 S
C1491 C1490 1.387 . S
C1491 C1493 1.387 . S
H1492 C1499 0.950 . S
C1493 C1491 1.387 . S
C1493 C1495 1.371 1_565 S
C1493 H1497 0.950 . S
H1494 C1490 0.950 . S
C1495 C1493 1.371 1_545 S
C1495 C1496 1.403 . S
C1495 H1498 0.954 . S
C1496 C1495 1.403 . S
C1496 C1499 1.387 . S
H1497 C1493 0.950 . S
H1498 C1495 0.954 . S
C1499 C1490 1.390 1_545 S
C1499 H1492 0.950 . S
C1499 C1496 1.387 . S
C1500 C1501 1.387 1_556 S
C1500 H1504 0.950 . S
C1500 C1509 1.390 1_545 S
C1501 C1500 1.387 1_554 S
C1501 C1503 1.387 . S
H1502 C1509 0.950 . S
C1503 C1501 1.387 . S
C1503 C1505 1.390 1_544 S
C1503 H1507 0.950 . S
H1504 C1500 0.950 . S
C1505 C1503 1.390 1_566 S
C1505 C1506 1.387 . S
C1505 H1508 0.950 . S
C1506 C1505 1.387 . S
C1506 C1509 1.387 . S
H1507 C1503 0.950 . S
H1508 C1505 0.950 . S
C1509 C1500 1.390 1_565 S
C1509 H1502 0.950 . S
C1509 C1506 1.387 . S
C1510 C1511 1.387 . S
C1510 H1514 0.950 . S
C1510 C1519 1.390 1_455 S
C1511 C1510 1.387 . S
C1511 C1513 1.387 1_556 S
H1512 C1519 0.950 . S
C1513 C1511 1.387 1_554 S
C1513 C1515 1.390 1_455 S
C1513 H1517 0.950 . S
H1514 C1510 0.950 . S
C1515 C1513 1.390 1_655 S
C1515 C1516 1.387 . S
C1515 H1518 0.950 . S
C1516 C1515 1.387 . S
C1516 C1519 1.387 1_554 S
H1517 C1513 0.950 . S
H1518 C1515 0.950 . S
C1519 C1510 1.390 1_655 S
C1519 H1512 0.950 . S
C1519 C1516 1.387 1_556 S
C1520 C1521 1.380 1_556 S
C1520 H1524 0.950 . S
C1520 C1529 1.390 . S
C1521 C1520 1.380 1_554 S
C1521 C1523 1.387 1_554 S
H1522 C1529 0.950 . S
C1523 C1521 1.387 1_556 S
C1523 C1525 1.390 . S
C1523 H1527 0.950 1_556 S
H1524 C1520 0.950 . S
C1525 C1523 1.390 . S
C1525 C1526 1.387 . S
C1525 H1528 0.950 . S
C1526 C1525 1.387 . S
C1526 C1529 1.387 . S
H1527 C1523 0.950 1_554 S
H1528 C1525 0.950 . S
C1529 C1520 1.390 . S
C1529 H1522 0.950 . S
C1529 C1526 1.387 . S
C1530 C1531 1.387 . S
C1530 H1534 0.950 . S
C1530 C1539 1.390 1_455 S
C1531 C1530 1.387 . S
C1531 C1533 1.387 1_455 S
H1532 C1539 0.950 . S
C1533 C1531 1.387 1_655 S
C1533 C1535 1.390 . S
C1533 H1537 0.974 . S
H1534 C1530 0.950 . S
C1535 C1533 1.390 . S
C1535 C1536 1.387 . S
C1535 H1538 0.950 . S
C1536 C1535 1.387 . S
C1536 C1539 1.387 . S
H1537 C1533 0.974 . S
H1538 C1535 0.950 . S
C1539 C1530 1.390 1_655 S
C1539 H1532 0.950 . S
C1539 C1536 1.387 . S
C1540 C1541 1.387 . S
C1540 H1544 0.950 . S
C1540 C1549 1.390 . S
C1541 C1540 1.387 . S
C1541 C1543 1.387 . S
H1542 C1549 0.950 . S
C1543 C1541 1.387 . S
C1543 C1545 1.390 . S
C1543 H1547 0.950 . S
H1544 C1540 0.950 . S
C1545 C1543 1.390 . S
C1545 C1546 1.387 . S
C1545 H1548 0.950 . S
C1546 C1545 1.387 . S
C1546 C1549 1.387 . S
H1547 C1543 0.950 . S
H1548 C1545 0.950 . S
C1549 C1540 1.390 . S
C1549 H1542 0.950 . S
C1549 C1546 1.387 . S
C1550 C1551 1.387 . S
C1550 H1554 0.950 . S
C1550 C1559 1.390 1_545 S
C1551 C1550 1.387 . S
C1551 C1553 1.387 . S
H1552 C1559 0.950 . S
C1553 C1551 1.387 . S
C1553 C1555 1.390 1_545 S
C1553 H1557 0.950 . S
H1554 C1550 0.950 . S
C1555 C1553 1.390 1_565 S
C1555 C1556 1.387 . S
C1555 H1558 0.950 . S
C1556 C1555 1.387 . S
C1556 C1559 1.387 . S
H1557 C1553 0.950 . S
H1558 C1555 0.950 . S
C1559 C1550 1.390 1_565 S
C1559 H1552 0.950 . S
C1559 C1556 1.387 . S
C1560 C1561 1.387 . S
C1560 H1564 0.950 . S
C1560 C1569 1.390 . S
C1561 C1560 1.387 . S
C1561 C1563 1.387 . S
H1562 C1569 0.950 . S
C1563 C1561 1.387 . S
C1563 C1565 1.390 . S
C1563 H1567 0.950 . S
H1564 C1560 0.950 . S
C1565 C1563 1.390 . S
C1565 C1566 1.387 . S
C1565 H1568 0.950 . S
C1566 C1565 1.387 . S
C1566 C1569 1.387 . S
H1567 C1563 0.950 . S
H1568 C1565 0.950 . S
C1569 C1560 1.390 . S
C1569 H1562 0.950 . S
C1569 C1566 1.387 . S
C1570 C1571 1.387 . S
C1570 H1574 0.950 . S
C1570 C1579 1.390 . S
C1571 C1570 1.387 . S
C1571 C1573 1.387 . S
H1572 C1579 0.950 . S
C1573 C1571 1.387 . S
C1573 C1575 1.390 . S
C1573 H1577 0.950 . S
H1574 C1570 0.950 . S
C1575 C1573 1.390 . S
C1575 C1576 1.387 . S
C1575 H1578 0.950 . S
C1576 C1575 1.387 . S
C1576 C1579 1.387 . S
H1577 C1573 0.950 . S
H1578 C1575 0.950 . S
C1579 C1570 1.390 . S
C1579 H1572 0.950 . S
C1579 C1576 1.387 . S
C1580 C1581 1.387 . S
C1580 H1584 0.950 . S
C1580 C1589 1.390 . S
C1581 C1580 1.387 . S
C1581 C1583 1.387 . S
H1582 C1589 0.950 . S
C1583 C1581 1.387 . S
C1583 C1585 1.390 . S
C1583 H1587 0.950 . S
H1584 C1580 0.950 . S
C1585 C1583 1.390 . S
C1585 C1586 1.387 . S
C1585 H1588 0.950 . S
C1586 C1585 1.387 . S
C1586 C1589 1.387 . S
H1587 C1583 0.950 . S
H1588 C1585 0.950 . S
C1589 C1580 1.390 . S
C1589 H1582 0.950 . S
C1589 C1586 1.387 . S
C1590 C1591 1.387 . S
C1590 H1594 0.950 . S
C1590 C1599 1.390 . S
C1591 C1590 1.387 . S
C1591 C1593 1.387 . S
H1592 C1599 0.950 . S
C1593 C1591 1.387 . S
C1593 C1595 1.390 . S
C1593 H1597 0.950 . S
H1594 C1590 0.950 . S
C1595 C1593 1.390 . S
C1595 C1596 1.387 . S
C1595 H1598 0.950 . S
C1596 C1595 1.387 . S
C1596 C1599 1.387 . S
H1597 C1593 0.950 . S
H1598 C1595 0.950 . S
C1599 C1590 1.390 . S
C1599 H1592 0.950 . S
C1599 C1596 1.387 . S
C1600 C1601 1.387 . S
C1600 H1604 0.950 . S
C1600 C1609 1.390 . S
C1601 C1600 1.387 . S
C1601 C1603 1.387 . S
H1602 C1609 0.950 . S
C1603 C1601 1.387 . S
C1603 C1605 1.390 . S
C1603 H1607 0.950 . S
H1604 C1600 0.950 . S
C1605 C1603 1.390 . S
C1605 C1606 1.387 . S
C1605 H1608 0.950 . S
C1606 C1605 1.387 . S
C1606 C1609 1.387 . S
H1607 C1603 0.950 . S
H1608 C1605 0.950 . S
C1609 C1600 1.390 . S
C1609 H1602 0.950 . S
C1609 C1606 1.387 . S
C1610 C1611 1.387 . S
C1610 H1614 0.950 . S
C1610 C1619 1.390 . S
C1611 C1610 1.387 . S
C1611 C1613 1.387 . S
H1612 C1619 0.950 . S
C1613 C1611 1.387 . S
C1613 C1615 1.390 . S
C1613 H1617 0.950 . S
H1614 C1610 0.950 . S
C1615 C1613 1.390 . S
C1615 C1616 1.387 . S
C1615 H1618 0.950 . S
C1616 C1615 1.387 . S
C1616 C1619 1.387 . S
H1617 C1613 0.950 . S
H1618 C1615 0.950 . S
C1619 C1610 1.390 . S
C1619 H1612 0.950 . S
C1619 C1616 1.387 . S
C1620 C1621 1.387 . S
C1620 H1624 0.950 . S
C1620 C1629 1.390 . S
C1621 C1620 1.387 . S
C1621 C1623 1.387 . S
H1622 C1629 0.950 . S
C1623 C1621 1.387 . S
C1623 C1625 1.390 . S
C1623 H1627 0.950 . S
H1624 C1620 0.950 . S
C1625 C1623 1.390 . S
C1625 C1626 1.387 . S
C1625 H1628 0.950 . S
C1626 C1625 1.387 . S
C1626 C1629 1.387 . S
H1627 C1623 0.950 . S
H1628 C1625 0.950 . S
C1629 C1620 1.390 . S
C1629 H1622 0.950 . S
C1629 C1626 1.387 . S
C1630 C1631 1.387 . S
C1630 H1634 0.950 . S
C1630 C1639 1.390 . S
C1631 C1630 1.387 . S
C1631 C1633 1.387 . S
H1632 C1639 0.950 . S
C1633 C1631 1.387 . S
C1633 C1635 1.390 . S
C1633 H1637 0.950 . S
H1634 C1630 0.950 . S
C1635 C1633 1.390 . S
C1635 C1636 1.387 . S
C1635 H1638 0.950 . S
C1636 C1635 1.387 . S
C1636 C1639 1.387 . S
H1637 C1633 0.950 . S
H1638 C1635 0.950 . S
C1639 C1630 1.390 . S
C1639 H1632 0.950 . S
C1639 C1636 1.387 . S
C1640 C1641 1.387 . S
C1640 H1644 0.950 . S
C1640 C1649 1.390 . S
C1641 C1640 1.387 . S
C1641 C1643 1.387 . S
H1642 C1649 0.950 . S
C1643 C1641 1.387 . S
C1643 C1645 1.390 . S
C1643 H1647 0.950 . S
H1644 C1640 0.950 . S
C1645 C1643 1.390 . S
C1645 C1646 1.387 . S
C1645 H1648 0.950 . S
C1646 C1645 1.387 . S
C1646 C1649 1.387 . S
H1647 C1643 0.950 . S
H1648 C1645 0.950 . S
C1649 C1640 1.390 . S
C1649 H1642 0.950 . S
C1649 C1646 1.387 . S
C1650 C1651 1.387 . S
C1650 H1654 0.950 . S
C1650 C1659 1.390 . S
C1651 C1650 1.387 . S
C1651 C1653 1.387 . S
H1652 C1659 0.950 . S
C1653 C1651 1.387 . S
C1653 C1655 1.390 . S
C1653 H1657 0.950 . S
H1654 C1650 0.950 . S
C1655 C1653 1.390 . S
C1655 C1656 1.387 . S
C1655 H1658 0.950 . S
C1656 C1655 1.387 . S
C1656 C1659 1.387 . S
H1657 C1653 0.950 . S
H1658 C1655 0.950 . S
C1659 C1650 1.390 . S
C1659 H1652 0.950 . S
C1659 C1656 1.387 . S
C1660 C1661 1.387 . S
C1660 H1664 0.950 . S
C1660 C1669 1.390 . S
C1661 C1660 1.387 . S
C1661 C1663 1.387 . S
H1662 C1669 0.950 . S
C1663 C1661 1.387 . S
C1663 C1665 1.390 . S
C1663 H1667 0.950 . S
H1664 C1660 0.950 . S
C1665 C1663 1.390 . S
C1665 C1666 1.387 . S
C1665 H1668 0.950 . S
C1666 C1665 1.387 . S
C1666 C1669 1.387 . S
H1667 C1663 0.950 . S
H1668 C1665 0.950 . S
C1669 C1660 1.390 . S
C1669 H1662 0.950 . S
C1669 C1666 1.387 . S
C1670 C1671 1.387 . S
C1670 H1674 0.950 . S
C1670 C1679 1.390 . S
C1671 C1670 1.387 . S
C1671 C1673 1.387 . S
H1672 C1679 0.950 . S
C1673 C1671 1.387 . S
C1673 C1675 1.390 . S
C1673 H1677 0.950 . S
H1674 C1670 0.950 . S
C1675 C1673 1.390 . S
C1675 C1676 1.387 . S
C1675 H1678 0.950 . S
C1676 C1675 1.387 . S
C1676 C1679 1.387 . S
H1677 C1673 0.950 . S
H1678 C1675 0.950 . S
C1679 C1670 1.390 . S
C1679 H1672 0.950 . S
C1679 C1676 1.387 . S
C1680 C1681 1.387 . S
C1680 H1684 0.950 . S
C1680 C1689 1.390 . S
C1681 C1680 1.387 . S
C1681 C1683 1.387 . S
H1682 C1689 0.950 . S
C1683 C1681 1.387 . S
C1683 C1685 1.390 . S
C1683 H1687 0.950 . S
H1684 C1680 0.950 . S
C1685 C1683 1.390 . S
C1685 C1686 1.387 . S
C1685 H1688 0.950 . S
C1686 C1685 1.387 . S
C1686 C1689 1.387 . S
H1687 C1683 0.950 . S
H1688 C1685 0.950 . S
C1689 C1680 1.390 . S
C1689 H1682 0.950 . S
C1689 C1686 1.387 . S
C1690 C1691 1.387 . S
C1690 H1694 0.950 . S
C1690 C1699 1.390 . S
C1691 C1690 1.387 . S
C1691 C1693 1.387 . S
H1692 C1699 0.950 . S
C1693 C1691 1.387 . S
C1693 C1695 1.390 . S
C1693 H1697 0.950 . S
H1694 C1690 0.950 . S
C1695 C1693 1.390 . S
C1695 C1696 1.387 . S
C1695 H1698 0.950 . S
C1696 C1695 1.387 . S
C1696 C1699 1.387 . S
H1697 C1693 0.950 . S
H1698 C1695 0.950 . S
C1699 C1690 1.390 . S
C1699 H1692 0.950 . S
C1699 C1696 1.387 . S
C1700 C1701 1.387 . S
C1700 H1704 0.950 . S
C1700 C1709 1.390 . S
C1701 C1700 1.387 . S
C1701 C1703 1.387 . S
H1702 C1709 0.950 . S
C1703 C1701 1.387 . S
C1703 C1705 1.390 . S
C1703 H1707 0.950 . S
H1704 C1700 0.950 . S
C1705 C1703 1.390 . S
C1705 C1706 1.387 . S
C1705 H1708 0.950 . S
C1706 C1705 1.387 . S
C1706 C1709 1.387 . S
H1707 C1703 0.950 . S
H1708 C1705 0.950 . S
C1709 C1700 1.390 . S
C1709 H1702 0.950 . S
C1709 C1706 1.387 . S
C1710 C1711 1.387 . S
C1710 H1714 0.950 . S
C1710 C1719 1.390 . S
C1711 C1710 1.387 . S
C1711 C1713 1.387 . S
H1712 C1719 0.950 . S
C1713 C1711 1.387 . S
C1713 C1715 1.390 . S
C1713 H1717 0.950 . S
H1714 C1710 0.950 . S
C1715 C1713 1.390 . S
C1715 C1716 1.387 . S
C1715 H1718 0.950 . S
C1716 C1715 1.387 . S
C1716 C1719 1.387 . S
H1717 C1713 0.950 . S
H1718 C1715 0.950 . S
C1719 C1710 1.390 . S
C1719 H1712 0.950 . S
C1719 C1716 1.387 . S
C1720 C1721 1.387 . S
C1720 H1724 0.950 . S
C1720 C1729 1.390 . S
C1721 C1720 1.387 . S
C1721 C1723 1.387 . S
H1722 C1729 0.950 . S
C1723 C1721 1.387 . S
C1723 C1725 1.390 . S
C1723 H1727 0.950 . S
H1724 C1720 0.950 . S
C1725 C1723 1.390 . S
C1725 C1726 1.387 . S
C1725 H1728 0.950 . S
C1726 C1725 1.387 . S
C1726 C1729 1.387 . S
H1727 C1723 0.950 . S
H1728 C1725 0.950 . S
C1729 C1720 1.390 . S
C1729 H1722 0.950 . S
C1729 C1726 1.387 . S
C1730 C1731 1.387 . S
C1730 H1734 0.950 . S
C1730 C1739 1.390 . S
C1731 C1730 1.387 . S
C1731 C1733 1.387 . S
H1732 C1739 0.950 . S
C1733 C1731 1.387 . S
C1733 C1735 1.390 . S
C1733 H1737 0.950 . S
H1734 C1730 0.950 . S
C1735 C1733 1.390 . S
C1735 C1736 1.387 . S
C1735 H1738 0.950 . S
C1736 C1735 1.387 . S
C1736 C1739 1.387 . S
H1737 C1733 0.950 . S
H1738 C1735 0.950 . S
C1739 C1730 1.390 . S
C1739 H1732 0.950 . S
C1739 C1736 1.387 . S
C1740 C1741 1.387 . S
C1740 H1744 0.950 . S
C1740 C1749 1.390 . S
C1741 C1740 1.387 . S
C1741 C1743 1.387 . S
H1742 C1749 0.950 . S
C1743 C1741 1.387 . S
C1743 C1745 1.390 . S
C1743 H1747 0.950 . S
H1744 C1740 0.950 . S
C1745 C1743 1.390 . S
C1745 C1746 1.387 . S
C1745 H1748 0.950 . S
C1746 C1745 1.387 . S
C1746 C1749 1.387 . S
H1747 C1743 0.950 . S
H1748 C1745 0.950 . S
C1749 C1740 1.390 . S
C1749 H1742 0.950 . S
C1749 C1746 1.387 . S
C1750 C1751 1.387 . S
C1750 H1754 0.950 . S
C1750 C1759 1.390 . S
C1751 C1750 1.387 . S
C1751 C1753 1.387 . S
H1752 C1759 0.950 . S
C1753 C1751 1.387 . S
C1753 C1755 1.390 . S
C1753 H1757 0.950 . S
H1754 C1750 0.950 . S
C1755 C1753 1.390 . S
C1755 C1756 1.387 . S
C1755 H1758 0.950 . S
C1756 C1755 1.387 . S
C1756 C1759 1.387 . S
H1757 C1753 0.950 . S
H1758 C1755 0.950 . S
C1759 C1750 1.390 . S
C1759 H1752 0.950 . S
C1759 C1756 1.387 . S
C1760 C1761 1.387 . S
C1760 H1764 0.950 . S
C1760 C1769 1.390 . S
C1761 C1760 1.387 . S
C1761 C1763 1.387 . S
H1762 C1769 0.950 . S
C1763 C1761 1.387 . S
C1763 C1765 1.390 . S
C1763 H1767 0.950 . S
H1764 C1760 0.950 . S
C1765 C1763 1.390 . S
C1765 C1766 1.387 . S
C1765 H1768 0.950 . S
C1766 C1765 1.387 . S
C1766 C1769 1.387 . S
H1767 C1763 0.950 . S
H1768 C1765 0.950 . S
C1769 C1760 1.390 . S
C1769 H1762 0.950 . S
C1769 C1766 1.387 . S
C1770 C1771 1.387 . S
C1770 H1774 0.950 . S
C1770 C1779 1.390 . S
C1771 C1770 1.387 . S
C1771 C1773 1.387 . S
H1772 C1779 0.950 . S
C1773 C1771 1.387 . S
C1773 C1775 1.390 . S
C1773 H1777 0.950 . S
H1774 C1770 0.950 . S
C1775 C1773 1.390 . S
C1775 C1776 1.387 . S
C1775 H1778 0.950 . S
C1776 C1775 1.387 . S
C1776 C1779 1.387 . S
H1777 C1773 0.950 . S
H1778 C1775 0.950 . S
C1779 C1770 1.390 . S
C1779 H1772 0.950 . S
C1779 C1776 1.387 . S
C1780 C1781 1.387 . S
C1780 H1784 0.950 . S
C1780 C1789 1.390 . S
C1781 C1780 1.387 . S
C1781 C1783 1.387 . S
H1782 C1789 0.950 . S
C1783 C1781 1.387 . S
C1783 C1785 1.390 . S
C1783 H1787 0.950 . S
H1784 C1780 0.950 . S
C1785 C1783 1.390 . S
C1785 C1786 1.387 . S
C1785 H1788 0.950 . S
C1786 C1785 1.387 . S
C1786 C1789 1.387 . S
H1787 C1783 0.950 . S
H1788 C1785 0.950 . S
C1789 C1780 1.390 . S
C1789 H1782 0.950 . S
C1789 C1786 1.387 . S
C1790 C1791 1.387 . S
C1790 H1794 0.950 . S
C1790 C1799 1.390 . S
C1791 C1790 1.387 . S
C1791 C1793 1.387 . S
H1792 C1799 0.950 . S
C1793 C1791 1.387 . S
C1793 C1795 1.390 . S
C1793 H1797 0.950 . S
H1794 C1790 0.950 . S
C1795 C1793 1.390 . S
C1795 C1796 1.387 . S
C1795 H1798 0.950 . S
C1796 C1795 1.387 . S
C1796 C1799 1.387 . S
H1797 C1793 0.950 . S
H1798 C1795 0.950 . S
C1799 C1790 1.390 . S
C1799 H1792 0.950 . S
C1799 C1796 1.387 . S
C1800 C1801 1.387 . S
C1800 H1804 0.950 . S
C1800 C1809 1.390 . S
C1801 C1800 1.387 . S
C1801 C1803 1.387 . S
H1802 C1809 0.950 . S
C1803 C1801 1.387 . S
C1803 C1805 1.390 . S
C1803 H1807 0.950 . S
H1804 C1800 0.950 . S
C1805 C1803 1.390 . S
C1805 C1806 1.387 . S
C1805 H1808 0.950 . S
C1806 C1805 1.387 . S
C1806 C1809 1.387 . S
H1807 C1803 0.950 . S
H1808 C1805 0.950 . S
C1809 C1800 1.390 . S
C1809 H1802 0.950 . S
C1809 C1806 1.387 . S
C1810 C1811 1.387 . S
C1810 H1814 0.950 . S
C1810 C1819 1.390 . S
C1811 C1810 1.387 . S
C1811 C1813 1.387 . S
H1812 C1819 0.950 . S
C1813 C1811 1.387 . S
C1813 C1815 1.390 . S
C1813 H1817 0.950 . S
H1814 C1810 0.950 . S
C1815 C1813 1.390 . S
C1815 C1816 1.387 . S
C1815 H1818 0.950 . S
C1816 C1815 1.387 . S
C1816 C1819 1.387 . S
H1817 C1813 0.950 . S
H1818 C1815 0.950 . S
C1819 C1810 1.390 . S
C1819 H1812 0.950 . S
C1819 C1816 1.387 . S
C1820 C1821 1.387 . S
C1820 H1824 0.950 . S
C1820 C1829 1.390 . S
C1821 C1820 1.387 . S
C1821 C1823 1.387 . S
H1822 C1829 0.950 . S
C1823 C1821 1.387 . S
C1823 C1825 1.390 . S
C1823 H1827 0.950 . S
H1824 C1820 0.950 . S
C1825 C1823 1.390 . S
C1825 C1826 1.387 . S
C1825 H1828 0.950 . S
C1826 C1825 1.387 . S
C1826 C1829 1.387 . S
H1827 C1823 0.950 . S
H1828 C1825 0.950 . S
C1829 C1820 1.390 . S
C1829 H1822 0.950 . S
C1829 C1826 1.387 . S
C1830 C1831 1.387 . S
C1830 H1834 0.950 . S
C1830 C1839 1.390 . S
C1831 C1830 1.387 . S
C1831 C1833 1.387 . S
H1832 C1839 0.950 . S
C1833 C1831 1.387 . S
C1833 C1835 1.390 . S
C1833 H1837 0.950 . S
H1834 C1830 0.950 . S
C1835 C1833 1.390 . S
C1835 C1836 1.387 . S
C1835 H1838 0.950 . S
C1836 C1835 1.387 . S
C1836 C1839 1.387 . S
H1837 C1833 0.950 . S
H1838 C1835 0.950 . S
C1839 C1830 1.390 . S
C1839 H1832 0.950 . S
C1839 C1836 1.387 . S
C1840 C1841 1.387 . S
C1840 H1844 0.950 . S
C1840 C1849 1.390 . S
C1841 C1840 1.387 . S
C1841 C1843 1.387 . S
H1842 C1849 0.950 . S
C1843 C1841 1.387 . S
C1843 C1845 1.390 . S
C1843 H1847 0.950 . S
H1844 C1840 0.950 . S
C1845 C1843 1.390 . S
C1845 C1846 1.387 . S
C1845 H1848 0.950 . S
C1846 C1845 1.387 . S
C1846 C1849 1.387 . S
H1847 C1843 0.950 . S
H1848 C1845 0.950 . S
C1849 C1840 1.390 . S
C1849 H1842 0.950 . S
C1849 C1846 1.387 . S
C1850 C1851 1.387 . S
C1850 H1854 0.950 . S
C1850 C1859 1.390 . S
C1851 C1850 1.387 . S
C1851 C1853 1.387 . S
H1852 C1859 0.950 . S
C1853 C1851 1.387 . S
C1853 C1855 1.390 . S
C1853 H1857 0.950 . S
H1854 C1850 0.950 . S
C1855 C1853 1.390 . S
C1855 C1856 1.387 . S
C1855 H1858 0.950 . S
C1856 C1855 1.387 . S
C1856 C1859 1.387 . S
H1857 C1853 0.950 . S
H1858 C1855 0.950 . S
C1859 C1850 1.390 . S
C1859 H1852 0.950 . S
C1859 C1856 1.387 . S
C1860 C1861 1.387 . S
C1860 H1864 0.950 . S
C1860 C1869 1.390 . S
C1861 C1860 1.387 . S
C1861 C1863 1.387 . S
H1862 C1869 0.950 . S
C1863 C1861 1.387 . S
C1863 C1865 1.390 . S
C1863 H1867 0.950 . S
H1864 C1860 0.950 . S
C1865 C1863 1.390 . S
C1865 C1866 1.387 . S
C1865 H1868 0.950 . S
C1866 C1865 1.387 . S
C1866 C1869 1.387 . S
H1867 C1863 0.950 . S
H1868 C1865 0.950 . S
C1869 C1860 1.390 . S
C1869 H1862 0.950 . S
C1869 C1866 1.387 . S
C1870 C1871 1.387 . S
C1870 H1874 0.950 . S
C1870 C1879 1.390 . S
C1871 C1870 1.387 . S
C1871 C1873 1.387 . S
H1872 C1879 0.950 . S
C1873 C1871 1.387 . S
C1873 C1875 1.390 . S
C1873 H1877 0.950 . S
H1874 C1870 0.950 . S
C1875 C1873 1.390 . S
C1875 C1876 1.387 . S
C1875 H1878 0.950 . S
C1876 C1875 1.387 . S
C1876 C1879 1.387 . S
H1877 C1873 0.950 . S
H1878 C1875 0.950 . S
C1879 C1870 1.390 . S
C1879 H1872 0.950 . S
C1879 C1876 1.387 . S
C1880 C1881 1.387 . S
C1880 H1884 0.950 . S
C1880 C1889 1.390 . S
C1881 C1880 1.387 . S
C1881 C1883 1.387 . S
H1882 C1889 0.950 . S
C1883 C1881 1.387 . S
C1883 C1885 1.390 . S
C1883 H1887 0.950 . S
H1884 C1880 0.950 . S
C1885 C1883 1.390 . S
C1885 C1886 1.387 . S
C1885 H1888 0.950 . S
C1886 C1885 1.387 . S
C1886 C1889 1.387 . S
H1887 C1883 0.950 . S
H1888 C1885 0.950 . S
C1889 C1880 1.390 . S
C1889 H1882 0.950 . S
C1889 C1886 1.387 . S
C1890 C1891 1.387 . S
C1890 H1894 0.950 . S
C1890 C1899 1.390 . S
C1891 C1890 1.387 . S
C1891 C1893 1.387 . S
H1892 C1899 0.950 . S
C1893 C1891 1.387 . S
C1893 C1895 1.390 . S
C1893 H1897 0.950 . S
H1894 C1890 0.950 . S
C1895 C1893 1.390 . S
C1895 C1896 1.387 . S
C1895 H1898 0.950 . S
C1896 C1895 1.387 . S
C1896 C1899 1.387 . S
H1897 C1893 0.950 . S
H1898 C1895 0.950 . S
C1899 C1890 1.390 . S
C1899 H1892 0.950 . S
C1899 C1896 1.387 . S
C1900 C1901 1.387 . S
C1900 H1904 0.950 . S
C1900 C1909 1.390 . S
C1901 C1900 1.387 . S
C1901 C1903 1.387 . S
H1902 C1909 0.950 . S
C1903 C1901 1.387 . S
C1903 C1905 1.390 . S
C1903 H1907 0.950 . S
H1904 C1900 0.950 . S
C1905 C1903 1.390 . S
C1905 C1906 1.387 . S
C1905 H1908 0.950 . S
C1906 C1905 1.387 . S
C1906 C1909 1.387 . S
H1907 C1903 0.950 . S
H1908 C1905 0.950 . S
C1909 C1900 1.390 . S
C1909 H1902 0.950 . S
C1909 C1906 1.387 . S
C1910 C1911 1.387 . S
C1910 H1914 0.950 . S
C1910 C1919 1.390 . S
C1911 C1910 1.387 . S
C1911 C1913 1.387 . S
H1912 C1919 0.950 . S
C1913 C1911 1.387 . S
C1913 C1915 1.390 . S
C1913 H1917 0.950 . S
H1914 C1910 0.950 . S
C1915 C1913 1.390 . S
C1915 C1916 1.387 . S
C1915 H1918 0.950 . S
C1916 C1915 1.387 . S
C1916 C1919 1.387 . S
H1917 C1913 0.950 . S
H1918 C1915 0.950 . S
C1919 C1910 1.390 . S
C1919 H1912 0.950 . S
C1919 C1916 1.387 . S
C1920 C1921 1.387 . S
C1920 H1924 0.950 . S
C1920 C1929 1.390 1_655 S
C1921 C1920 1.387 . S
C1921 C1923 1.387 . S
H1922 C1929 0.950 . S
C1923 C1921 1.387 . S
C1923 C1925 1.390 1_655 S
C1923 H1927 0.950 . S
H1924 C1920 0.950 . S
C1925 C1923 1.390 1_455 S
C1925 C1926 1.387 . S
C1925 H1928 0.950 . S
C1926 C1925 1.387 . S
C1926 C1929 1.387 . S
H1927 C1923 0.950 . S
H1928 C1925 0.950 . S
C1929 C1920 1.390 1_455 S
C1929 H1922 0.950 . S
C1929 C1926 1.387 . S
C1930 C1931 1.387 . S
C1930 H1934 0.950 . S
C1930 C1939 1.390 . S
C1931 C1930 1.387 . S
C1931 C1933 1.387 . S
H1932 C1939 0.950 . S
C1933 C1931 1.387 . S
C1933 C1935 1.390 . S
C1933 H1937 0.950 . S
H1934 C1930 0.950 . S
C1935 C1933 1.390 . S
C1935 C1936 1.387 . S
C1935 H1938 0.950 . S
C1936 C1935 1.387 . S
C1936 C1939 1.387 . S
H1937 C1933 0.950 . S
H1938 C1935 0.950 . S
C1939 C1930 1.390 . S
C1939 H1932 0.950 . S
C1939 C1936 1.387 . S
C1940 C1941 1.387 . S
C1940 H1944 0.950 . S
C1940 C1949 1.390 1_545 S
C1941 C1940 1.387 . S
C1941 C1943 1.387 . S
H1942 C1949 0.950 . S
C1943 C1941 1.387 . S
C1943 C1945 1.390 1_545 S
C1943 H1947 0.950 . S
H1944 C1940 0.950 . S
C1945 C1943 1.390 1_565 S
C1945 C1946 1.387 . S
C1945 H1948 0.950 . S
C1946 C1945 1.387 . S
C1946 C1949 1.387 . S
H1947 C1943 0.950 . S
H1948 C1945 0.950 . S
C1949 C1940 1.390 1_565 S
C1949 H1942 0.950 . S
C1949 C1946 1.387 . S
C1950 C1951 1.387 . S
C1950 H1954 0.950 . S
C1950 C1959 1.390 1_565 S
C1951 C1950 1.387 . S
C1951 C1953 1.387 1_554 S
H1952 C1959 0.950 . S
C1953 C1951 1.387 1_556 S
C1953 C1955 1.390 1_565 S
C1953 H1957 0.950 . S
H1954 C1950 0.950 . S
C1955 C1953 1.390 1_545 S
C1955 C1956 1.387 . S
C1955 H1958 0.950 . S
C1956 C1955 1.387 . S
C1956 C1959 1.387 1_556 S
H1957 C1953 0.950 . S
H1958 C1955 0.950 . S
C1959 C1950 1.390 1_545 S
C1959 H1952 0.950 . S
C1959 C1956 1.387 1_554 S
C1960 C1961 1.387 . S
C1960 H1964 0.950 . S
C1960 C1969 1.390 1_655 S
C1961 C1960 1.387 . S
C1961 C1963 1.387 1_556 S
H1962 C1969 0.950 . S
C1963 C1961 1.387 1_554 S
C1963 C1965 1.390 1_655 S
C1963 H1967 0.950 . S
H1964 C1960 0.950 . S
C1965 C1963 1.390 1_455 S
C1965 C1966 1.387 . S
C1965 H1968 0.950 . S
C1966 C1965 1.387 . S
C1966 C1969 1.387 1_554 S
H1967 C1963 0.950 . S
H1968 C1965 0.950 . S
C1969 C1960 1.390 1_455 S
C1969 H1962 0.950 . S
C1969 C1966 1.387 1_556 S
C1970 C1971 1.387 1_556 S
C1970 H1974 0.950 . S
C1970 C1979 1.390 . S
C1971 C1970 1.387 1_554 S
C1971 C1973 1.387 . S
H1972 C1979 0.950 . S
C1973 C1971 1.387 . S
C1973 C1975 1.390 . S
C1973 H1977 0.950 . S
H1974 C1970 0.950 . S
C1975 C1973 1.390 . S
C1975 C1976 1.387 1_554 S
C1975 H1978 0.950 . S
C1976 C1975 1.387 1_556 S
C1976 C1979 1.387 . S
H1977 C1973 0.950 . S
H1978 C1975 0.950 . S
C1979 C1970 1.390 . S
C1979 H1972 0.950 . S
C1979 C1976 1.387 . S
C1980 C1981 1.387 . S
C1980 H1984 0.950 1_556 S
C1980 C1989 1.390 . S
C1981 C1980 1.387 . S
C1981 C1983 1.387 . S
H1982 C1989 0.950 . S
C1983 C1981 1.387 . S
C1983 C1985 1.390 . S
C1983 H1987 0.950 . S
H1984 C1980 0.950 1_554 S
C1985 C1983 1.390 . S
C1985 C1986 1.387 . S
C1985 H1988 0.950 . S
C1986 C1985 1.387 . S
C1986 C1989 1.387 . S
H1987 C1983 0.950 . S
H1988 C1985 0.950 . S
C1989 C1980 1.390 . S
C1989 H1982 0.950 . S
C1989 C1986 1.387 . S
C1990 C1991 1.387 . S
C1990 H1994 0.950 . S
C1990 C1999 1.390 . S
C1991 C1990 1.387 . S
C1991 C1993 1.387 . S
H1992 C1999 0.950 . S
C1993 C1991 1.387 . S
C1993 C1995 1.390 . S
C1993 H1997 0.950 1_556 S
H1994 C1990 0.950 . S
C1995 C1993 1.390 . S
C1995 C1996 1.387 . S
C1995 H1998 0.950 . S
C1996 C1995 1.387 . S
C1996 C1999 1.387 . S
H1997 C1993 0.950 1_554 S
H1998 C1995 0.950 . S
C1999 C1990 1.390 . S
C1999 H1992 0.950 . S
C1999 C1996 1.387 . S
C2000 C2001 1.387 . S
C2000 H2004 0.950 . S
C2000 C2009 1.390 . S
C2001 C2000 1.387 . S
C2001 C2003 1.387 . S
H2002 C2009 0.950 . S
C2003 C2001 1.387 . S
C2003 C2005 1.390 . S
C2003 H2007 0.950 . S
H2004 C2000 0.950 . S
C2005 C2003 1.390 . S
C2005 C2006 1.387 . S
C2005 H2008 0.950 . S
C2006 C2005 1.387 . S
C2006 C2009 1.387 . S
H2007 C2003 0.950 . S
H2008 C2005 0.950 . S
C2009 C2000 1.390 . S
C2009 H2002 0.950 . S
C2009 C2006 1.387 . S
C2010 C2011 1.387 . S
C2010 H2014 0.950 . S
C2010 C2019 1.390 . S
C2011 C2010 1.387 . S
C2011 C2013 1.387 . S
H2012 C2019 0.950 . S
C2013 C2011 1.387 . S
C2013 C2015 1.390 . S
C2013 H2017 0.950 . S
H2014 C2010 0.950 . S
C2015 C2013 1.390 . S
C2015 C2016 1.387 . S
C2015 H2018 0.950 . S
C2016 C2015 1.387 . S
C2016 C2019 1.387 . S
H2017 C2013 0.950 . S
H2018 C2015 0.950 . S
C2019 C2010 1.390 . S
C2019 H2012 0.950 . S
C2019 C2016 1.387 . S
C2020 C2021 1.387 . S
C2020 H2024 0.950 . S
C2020 C2029 1.390 . S
C2021 C2020 1.387 . S
C2021 C2023 1.387 . S
H2022 C2029 0.950 . S
C2023 C2021 1.387 . S
C2023 C2025 1.390 . S
C2023 H2027 0.950 . S
H2024 C2020 0.950 . S
C2025 C2023 1.390 . S
C2025 C2026 1.387 . S
C2025 H2028 0.950 . S
C2026 C2025 1.387 . S
C2026 C2029 1.387 . S
H2027 C2023 0.950 . S
H2028 C2025 0.950 . S
C2029 C2020 1.390 . S
C2029 H2022 0.950 . S
C2029 C2026 1.387 . S
C2030 C2031 1.387 . S
C2030 H2034 0.950 . S
C2030 C2039 1.390 . S
C2031 C2030 1.387 . S
C2031 C2033 1.387 . S
H2032 C2039 0.950 . S
C2033 C2031 1.387 . S
C2033 C2035 1.390 . S
C2033 H2037 0.950 . S
H2034 C2030 0.950 . S
C2035 C2033 1.390 . S
C2035 C2036 1.387 . S
C2035 H2038 0.950 . S
C2036 C2035 1.387 . S
C2036 C2039 1.387 . S
H2037 C2033 0.950 . S
H2038 C2035 0.950 . S
C2039 C2030 1.390 . S
C2039 H2032 0.950 . S
C2039 C2036 1.387 . S
C2040 C2041 1.387 . S
C2040 H2044 0.950 . S
C2040 C2049 1.390 . S
C2041 C2040 1.387 . S
C2041 C2043 1.387 . S
H2042 C2049 0.950 . S
C2043 C2041 1.387 . S
C2043 C2045 1.390 . S
C2043 H2047 0.950 . S
H2044 C2040 0.950 . S
C2045 C2043 1.390 . S
C2045 C2046 1.387 . S
C2045 H2048 0.950 1_554 S
C2046 C2045 1.387 . S
C2046 C2049 1.387 . S
H2047 C2043 0.950 . S
H2048 C2045 0.950 1_556 S
C2049 C2040 1.390 . S
C2049 H2042 0.950 . S
C2049 C2046 1.387 . S
C2050 C2051 1.387 . S
C2050 H2054 0.950 . S
C2050 C2059 1.390 . S
C2051 C2050 1.387 . S
C2051 C2053 1.387 . S
H2052 C2059 0.950 . S
C2053 C2051 1.387 . S
C2053 C2055 1.390 . S
C2053 H2057 0.950 1_554 S
H2054 C2050 0.950 . S
C2055 C2053 1.390 . S
C2055 C2056 1.387 . S
C2055 H2058 0.950 . S
C2056 C2055 1.387 . S
C2056 C2059 1.387 . S
H2057 C2053 0.950 1_556 S
H2058 C2055 0.950 . S
C2059 C2050 1.390 . S
C2059 H2052 0.950 . S
C2059 C2056 1.387 . S
C2060 C2061 1.387 . S
C2060 H2064 0.950 . S
C2060 C2069 1.390 . S
C2061 C2060 1.387 . S
C2061 C2063 1.387 . S
H2062 C2069 0.950 . S
C2063 C2061 1.387 . S
C2063 C2065 1.390 . S
C2063 H2067 0.950 . S
H2064 C2060 0.950 . S
C2065 C2063 1.390 . S
C2065 C2066 1.387 . S
C2065 H2068 0.950 . S
C2066 C2065 1.387 . S
C2066 C2069 1.387 . S
H2067 C2063 0.950 . S
H2068 C2065 0.950 . S
C2069 C2060 1.390 . S
C2069 H2062 0.950 . S
C2069 C2066 1.387 . S
C2070 C2071 1.387 . S
C2070 H2074 0.950 . S
C2070 C2079 1.390 . S
C2071 C2070 1.387 . S
C2071 C2073 1.387 . S
H2072 C2079 0.950 . S
C2073 C2071 1.387 . S
C2073 C2075 1.390 . S
C2073 H2077 0.950 . S
H2074 C2070 0.950 . S
C2075 C2073 1.390 . S
C2075 C2076 1.387 . S
C2075 H2078 0.950 . S
C2076 C2075 1.387 . S
C2076 C2079 1.387 . S
H2077 C2073 0.950 . S
H2078 C2075 0.950 . S
C2079 C2070 1.390 . S
C2079 H2072 0.950 . S
C2079 C2076 1.387 . S
C2080 C2081 1.387 . S
C2080 H2084 0.950 . S
C2080 C2089 1.390 . S
C2081 C2080 1.387 . S
C2081 C2083 1.387 . S
H2082 C2089 0.950 . S
C2083 C2081 1.387 . S
C2083 C2085 1.390 . S
C2083 H2087 0.950 . S
H2084 C2080 0.950 . S
C2085 C2083 1.390 . S
C2085 C2086 1.387 . S
C2085 H2088 0.950 . S
C2086 C2085 1.387 . S
C2086 C2089 1.387 . S
H2087 C2083 0.950 . S
H2088 C2085 0.950 . S
C2089 C2080 1.390 . S
C2089 H2082 0.950 . S
C2089 C2086 1.387 . S
C2090 C2091 1.387 . S
C2090 H2094 0.950 . S
C2090 C2099 1.390 . S
C2091 C2090 1.387 . S
C2091 C2093 1.387 . S
H2092 C2099 0.950 . S
C2093 C2091 1.387 . S
C2093 C2095 1.390 . S
C2093 H2097 0.950 . S
H2094 C2090 0.950 . S
C2095 C2093 1.390 . S
C2095 C2096 1.387 . S
C2095 H2098 0.950 . S
C2096 C2095 1.387 . S
C2096 C2099 1.387 . S
H2097 C2093 0.950 . S
H2098 C2095 0.950 . S
C2099 C2090 1.390 . S
C2099 H2092 0.950 . S
C2099 C2096 1.387 . S
C2100 C2101 1.387 . S
C2100 H2104 0.950 . S
C2100 C2109 1.390 1_455 S
C2101 C2100 1.387 . S
C2101 C2103 1.387 . S
H2102 C2109 0.950 . S
C2103 C2101 1.387 . S
C2103 C2105 1.390 1_455 S
C2103 H2107 0.950 . S
H2104 C2100 0.950 . S
C2105 C2103 1.390 1_655 S
C2105 C2106 1.387 . S
C2105 H2108 0.950 . S
C2106 C2105 1.387 . S
C2106 C2109 1.387 . S
H2107 C2103 0.950 . S
H2108 C2105 0.950 . S
C2109 C2100 1.390 1_655 S
C2109 H2102 0.950 . S
C2109 C2106 1.387 . S
C2110 C2111 1.387 . S
C2110 H2114 0.950 . S
C2110 C2119 1.390 . S
C2111 C2110 1.387 . S
C2111 C2113 1.387 . S
H2112 C2119 0.950 . S
C2113 C2111 1.387 . S
C2113 C2115 1.390 . S
C2113 H2117 0.950 . S
H2114 C2110 0.950 . S
C2115 C2113 1.390 . S
C2115 C2116 1.387 . S
C2115 H2118 0.950 . S
C2116 C2115 1.387 . S
C2116 C2119 1.387 . S
H2117 C2113 0.950 . S
H2118 C2115 0.950 . S
C2119 C2110 1.390 . S
C2119 H2112 0.950 . S
C2119 C2116 1.387 . S
C2120 C2121 1.387 . S
C2120 H2124 0.950 . S
C2120 C2129 1.390 1_545 S
C2121 C2120 1.387 . S
C2121 C2123 1.387 . S
H2122 C2129 0.950 . S
C2123 C2121 1.387 . S
C2123 C2125 1.390 1_545 S
C2123 H2127 0.950 . S
H2124 C2120 0.950 . S
C2125 C2123 1.390 1_565 S
C2125 C2126 1.387 . S
C2125 H2128 0.950 . S
C2126 C2125 1.387 . S
C2126 C2129 1.387 . S
H2127 C2123 0.950 . S
H2128 C2125 0.950 . S
C2129 C2120 1.390 1_565 S
C2129 H2122 0.950 . S
C2129 C2126 1.387 . S
C2130 C2131 1.387 . S
C2130 H2134 0.950 . S
C2130 C2139 1.390 1_565 S
C2131 C2130 1.387 . S
C2131 C2133 1.387 . S
H2132 C2139 0.950 . S
C2133 C2131 1.387 . S
C2133 C2135 1.390 1_565 S
C2133 H2137 0.950 . S
H2134 C2130 0.950 . S
C2135 C2133 1.390 1_545 S
C2135 C2136 1.387 . S
C2135 H2138 0.950 . S
C2136 C2135 1.387 . S
C2136 C2139 1.387 . S
H2137 C2133 0.950 . S
H2138 C2135 0.950 . S
C2139 C2130 1.390 1_545 S
C2139 H2132 0.950 . S
C2139 C2136 1.387 . S
C2140 C2141 1.387 . S
C2140 H2144 0.950 . S
C2140 C2149 1.390 1_455 S
C2141 C2140 1.387 . S
C2141 C2143 1.387 . S
H2142 C2149 0.950 . S
C2143 C2141 1.387 . S
C2143 C2145 1.390 1_455 S
C2143 H2147 0.950 . S
H2144 C2140 0.950 . S
C2145 C2143 1.390 1_655 S
C2145 C2146 1.387 . S
C2145 H2148 0.950 . S
C2146 C2145 1.387 . S
C2146 C2149 1.387 . S
H2147 C2143 0.950 . S
H2148 C2145 0.950 . S
C2149 C2140 1.390 1_655 S
C2149 H2142 0.950 . S
C2149 C2146 1.387 . S
C2150 C2151 1.387 . S
C2150 H2154 0.950 . S
C2150 C2159 1.390 . S
C2151 C2150 1.387 . S
C2151 C2153 1.387 . S
H2152 C2159 0.950 . S
C2153 C2151 1.387 . S
C2153 C2155 1.390 . S
C2153 H2157 0.950 . S
H2154 C2150 0.950 . S
C2155 C2153 1.390 . S
C2155 C2156 1.387 . S
C2155 H2158 0.950 . S
C2156 C2155 1.387 . S
C2156 C2159 1.387 . S
H2157 C2153 0.950 . S
H2158 C2155 0.950 . S
C2159 C2150 1.390 . S
C2159 H2152 0.950 . S
C2159 C2156 1.387 . S
C2160 C2161 1.387 . S
C2160 H2164 0.950 . S
C2160 C2169 1.390 . S
C2161 C2160 1.387 . S
C2161 C2163 1.387 . S
H2162 C2169 0.950 . S
C2163 C2161 1.387 . S
C2163 C2165 1.390 . S
C2163 H2167 0.950 . S
H2164 C2160 0.950 . S
C2165 C2163 1.390 . S
C2165 C2166 1.387 . S
C2165 H2168 0.950 . S
C2166 C2165 1.387 . S
C2166 C2169 1.387 . S
H2167 C2163 0.950 . S
H2168 C2165 0.950 . S
C2169 C2160 1.390 . S
C2169 H2162 0.950 . S
C2169 C2166 1.387 . S
C2170 C2171 1.387 . S
C2170 H2174 0.950 . S
C2170 C2179 1.390 1_545 S
C2171 C2170 1.387 . S
C2171 C2173 1.387 . S
H2172 C2179 0.950 . S
C2173 C2171 1.387 . S
C2173 C2175 1.390 1_545 S
C2173 H2177 0.950 . S
H2174 C2170 0.950 . S
C2175 C2173 1.390 1_565 S
C2175 C2176 1.387 . S
C2175 H2178 0.950 . S
C2176 C2175 1.387 . S
C2176 C2179 1.387 . S
H2177 C2173 0.950 . S
H2178 C2175 0.950 . S
C2179 C2170 1.390 1_565 S
C2179 H2172 0.950 . S
C2179 C2176 1.387 . S
C2180 C2181 1.387 . S
C2180 H2184 0.950 . S
C2180 C2189 1.390 1_655 S
C2181 C2180 1.387 . S
C2181 C2183 1.387 . S
H2182 C2189 0.950 . S
C2183 C2181 1.387 . S
C2183 C2185 1.390 1_655 S
C2183 H2187 0.950 . S
H2184 C2180 0.950 . S
C2185 C2183 1.390 1_455 S
C2185 C2186 1.387 . S
C2185 H2188 0.950 . S
C2186 C2185 1.387 . S
C2186 C2189 1.387 . S
H2187 C2183 0.950 . S
H2188 C2185 0.950 . S
C2189 C2180 1.390 1_455 S
C2189 H2182 0.950 . S
C2189 C2186 1.387 . S
C2190 C2191 1.387 . S
C2190 H2194 0.950 . S
C2190 C2199 1.390 . S
C2191 C2190 1.387 . S
C2191 C2193 1.387 . S
H2192 C2199 0.950 . S
C2193 C2191 1.387 . S
C2193 C2195 1.390 . S
C2193 H2197 0.950 . S
H2194 C2190 0.950 . S
C2195 C2193 1.390 . S
C2195 C2196 1.387 . S
C2195 H2198 0.950 . S
C2196 C2195 1.387 . S
C2196 C2199 1.387 . S
H2197 C2193 0.950 . S
H2198 C2195 0.950 . S
C2199 C2190 1.390 . S
C2199 H2192 0.950 . S
C2199 C2196 1.387 . S
C2200 C2201 1.387 . S
C2200 H2204 0.950 . S
C2200 C2209 1.390 1_565 S
C2201 C2200 1.387 . S
C2201 C2203 1.387 . S
H2202 C2209 0.950 . S
C2203 C2201 1.387 . S
C2203 C2205 1.390 1_565 S
C2203 H2207 0.950 . S
H2204 C2200 0.950 . S
C2205 C2203 1.390 1_545 S
C2205 C2206 1.387 . S
C2205 H2208 0.950 . S
C2206 C2205 1.387 . S
C2206 C2209 1.387 . S
H2207 C2203 0.950 . S
H2208 C2205 0.950 . S
C2209 C2200 1.390 1_545 S
C2209 H2202 0.950 . S
C2209 C2206 1.387 . S
C2210 C2211 1.387 . S
C2210 H2214 0.950 . S
C2210 C2219 1.390 1_655 S
C2211 C2210 1.387 . S
C2211 C2213 1.387 . S
H2212 C2219 0.950 . S
C2213 C2211 1.387 . S
C2213 C2215 1.390 1_655 S
C2213 H2217 0.950 . S
H2214 C2210 0.950 . S
C2215 C2213 1.390 1_455 S
C2215 C2216 1.387 . S
C2215 H2218 0.950 . S
C2216 C2215 1.387 . S
C2216 C2219 1.387 . S
H2217 C2213 0.950 . S
H2218 C2215 0.950 . S
C2219 C2210 1.390 1_455 S
C2219 H2212 0.950 . S
C2219 C2216 1.387 . S
C2220 C2221 1.387 . S
C2220 H2224 0.950 . S
C2220 C2229 1.390 . S
C2221 C2220 1.387 . S
C2221 C2223 1.387 . S
H2222 C2229 0.950 . S
C2223 C2221 1.387 . S
C2223 C2225 1.390 . S
C2223 H2227 0.950 . S
H2224 C2220 0.950 . S
C2225 C2223 1.390 . S
C2225 C2226 1.387 . S
C2225 H2228 0.950 . S
C2226 C2225 1.387 . S
C2226 C2229 1.387 . S
H2227 C2223 0.950 . S
H2228 C2225 0.950 . S
C2229 C2220 1.390 . S
C2229 H2222 0.950 . S
C2229 C2226 1.387 . S
C2230 C2231 1.387 . S
C2230 H2234 0.950 . S
C2230 C2239 1.390 . S
C2231 C2230 1.387 . S
C2231 C2233 1.387 . S
H2232 C2239 0.950 . S
C2233 C2231 1.387 . S
C2233 C2235 1.390 . S
C2233 H2237 0.950 . S
H2234 C2230 0.950 . S
C2235 C2233 1.390 . S
C2235 C2236 1.387 . S
C2235 H2238 0.950 . S
C2236 C2235 1.387 . S
C2236 C2239 1.387 . S
H2237 C2233 0.950 . S
H2238 C2235 0.950 . S
C2239 C2230 1.390 . S
C2239 H2232 0.950 . S
C2239 C2236 1.387 . S
C2240 C2241 1.387 . S
C2240 H2244 0.950 . S
C2240 C2249 1.390 . S
C2241 C2240 1.387 . S
C2241 C2243 1.387 . S
H2242 C2249 0.950 . S
C2243 C2241 1.387 . S
C2243 C2245 1.390 . S
C2243 H2247 0.950 . S
H2244 C2240 0.950 . S
C2245 C2243 1.390 . S
C2245 C2246 1.387 . S
C2245 H2248 0.950 . S
C2246 C2245 1.387 . S
C2246 C2249 1.387 . S
H2247 C2243 0.950 . S
H2248 C2245 0.950 . S
C2249 C2240 1.390 . S
C2249 H2242 0.950 . S
C2249 C2246 1.387 . S
C2250 C2251 1.387 . S
C2250 H2254 0.950 . S
C2250 C2259 1.390 . S
C2251 C2250 1.387 . S
C2251 C2253 1.387 . S
H2252 C2259 0.950 . S
C2253 C2251 1.387 . S
C2253 C2255 1.390 . S
C2253 H2257 0.950 . S
H2254 C2250 0.950 . S
C2255 C2253 1.390 . S
C2255 C2256 1.387 . S
C2255 H2258 0.950 . S
C2256 C2255 1.387 . S
C2256 C2259 1.387 . S
H2257 C2253 0.950 . S
H2258 C2255 0.950 . S
C2259 C2250 1.390 . S
C2259 H2252 0.950 . S
C2259 C2256 1.387 . S
C2260 C2261 1.387 . S
C2260 H2264 0.950 . S
C2260 C2269 1.390 . S
C2261 C2260 1.387 . S
C2261 C2263 1.387 . S
H2262 C2269 0.950 . S
C2263 C2261 1.387 . S
C2263 C2265 1.390 . S
C2263 H2267 0.950 . S
H2264 C2260 0.950 . S
C2265 C2263 1.390 . S
C2265 C2266 1.387 . S
C2265 H2268 0.950 . S
C2266 C2265 1.387 . S
C2266 C2269 1.387 . S
H2267 C2263 0.950 . S
H2268 C2265 0.950 . S
C2269 C2260 1.390 . S
C2269 H2262 0.950 . S
C2269 C2266 1.387 . S
C2270 C2271 1.387 . S
C2270 H2274 0.950 . S
C2270 C2279 1.390 . S
C2271 C2270 1.387 . S
C2271 C2273 1.387 . S
H2272 C2279 0.950 . S
C2273 C2271 1.387 . S
C2273 C2275 1.390 . S
C2273 H2277 0.950 . S
H2274 C2270 0.950 . S
C2275 C2273 1.390 . S
C2275 C2276 1.387 . S
C2275 H2278 0.950 . S
C2276 C2275 1.387 . S
C2276 C2279 1.387 . S
H2277 C2273 0.950 . S
H2278 C2275 0.950 . S
C2279 C2270 1.390 . S
C2279 H2272 0.950 . S
C2279 C2276 1.387 . S
C2280 C2281 1.387 . S
C2280 H2284 0.950 . S
C2280 C2289 1.390 . S
C2281 C2280 1.387 . S
C2281 C2283 1.387 . S
H2282 C2289 0.950 . S
C2283 C2281 1.387 . S
C2283 C2285 1.390 . S
C2283 H2287 0.950 . S
H2284 C2280 0.950 . S
C2285 C2283 1.390 . S
C2285 C2286 1.387 . S
C2285 H2288 0.950 1_556 S
C2286 C2285 1.387 . S
C2286 C2289 1.387 . S
H2287 C2283 0.950 . S
H2288 C2285 0.950 1_554 S
C2289 C2280 1.390 . S
C2289 H2282 0.950 . S
C2289 C2286 1.387 . S
C2290 C2291 1.387 . S
C2290 H2294 0.950 . S
C2290 C2299 1.390 . S
C2291 C2290 1.387 . S
C2291 C2293 1.387 . S
H2292 C2299 0.950 . S
C2293 C2291 1.387 . S
C2293 C2295 1.390 . S
C2293 H2297 0.950 . S
H2294 C2290 0.950 . S
C2295 C2293 1.390 . S
C2295 C2296 1.387 . S
C2295 H2298 0.950 . S
C2296 C2295 1.387 . S
C2296 C2299 1.387 . S
H2297 C2293 0.950 . S
H2298 C2295 0.950 . S
C2299 C2290 1.390 . S
C2299 H2292 0.950 . S
C2299 C2296 1.387 . S
C2300 C2301 1.387 . S
C2300 H2304 0.950 . S
C2300 C2309 1.390 . S
C2301 C2300 1.387 . S
C2301 C2303 1.387 . S
H2302 C2309 0.950 . S
C2303 C2301 1.387 . S
C2303 C2305 1.390 . S
C2303 H2307 0.950 1_556 S
H2304 C2300 0.950 . S
C2305 C2303 1.390 . S
C2305 C2306 1.387 . S
C2305 H2308 0.950 . S
C2306 C2305 1.387 . S
C2306 C2309 1.387 . S
H2307 C2303 0.950 1_554 S
H2308 C2305 0.950 . S
C2309 C2300 1.390 . S
C2309 H2302 0.950 . S
C2309 C2306 1.387 . S
C2310 C2311 1.387 . S
C2310 H2314 0.950 . S
C2310 C2319 1.390 . S
C2311 C2310 1.387 . S
C2311 C2313 1.387 . S
H2312 C2319 0.950 . S
C2313 C2311 1.387 . S
C2313 C2315 1.390 . S
C2313 H2317 0.950 . S
H2314 C2310 0.950 . S
C2315 C2313 1.390 . S
C2315 C2316 1.387 . S
C2315 H2318 0.950 . S
C2316 C2315 1.387 . S
C2316 C2319 1.387 . S
H2317 C2313 0.950 . S
H2318 C2315 0.950 . S
C2319 C2310 1.390 . S
C2319 H2312 0.950 . S
C2319 C2316 1.387 . S
C2320 C2321 1.387 . S
C2320 H2324 0.950 . S
C2320 C2329 1.390 . S
C2321 C2320 1.387 . S
C2321 C2323 1.387 . S
H2322 C2329 0.950 . S
C2323 C2321 1.387 . S
C2323 C2325 1.390 . S
C2323 H2327 0.950 . S
H2324 C2320 0.950 . S
C2325 C2323 1.390 . S
C2325 C2326 1.387 . S
C2325 H2328 0.950 . S
C2326 C2325 1.387 . S
C2326 C2329 1.387 . S
H2327 C2323 0.950 . S
H2328 C2325 0.950 . S
C2329 C2320 1.390 . S
C2329 H2322 0.950 . S
C2329 C2326 1.387 . S
C2330 C2331 1.387 . S
C2330 H2334 0.950 . S
C2330 C2339 1.390 . S
C2331 C2330 1.387 . S
C2331 C2333 1.387 . S
H2332 C2339 0.950 . S
C2333 C2331 1.387 . S
C2333 C2335 1.390 . S
C2333 H2337 0.950 . S
H2334 C2330 0.950 . S
C2335 C2333 1.390 . S
C2335 C2336 1.387 . S
C2335 H2338 0.950 . S
C2336 C2335 1.387 . S
C2336 C2339 1.387 . S
H2337 C2333 0.950 . S
H2338 C2335 0.950 . S
C2339 C2330 1.390 . S
C2339 H2332 0.950 . S
C2339 C2336 1.387 . S
C2340 C2341 1.387 . S
C2340 H2344 0.950 . S
C2340 C2349 1.390 . S
C2341 C2340 1.387 . S
C2341 C2343 1.387 . S
H2342 C2349 0.950 . S
C2343 C2341 1.387 . S
C2343 C2345 1.390 . S
C2343 H2347 0.950 . S
H2344 C2340 0.950 . S
C2345 C2343 1.390 . S
C2345 C2346 1.387 . S
C2345 H2348 0.950 . S
C2346 C2345 1.387 . S
C2346 C2349 1.387 . S
H2347 C2343 0.950 . S
H2348 C2345 0.950 . S
C2349 C2340 1.390 . S
C2349 H2342 0.950 . S
C2349 C2346 1.387 . S
C2350 C2351 1.387 . S
C2350 H2354 0.950 1_554 S
C2350 C2359 1.390 . S
C2351 C2350 1.387 . S
C2351 C2353 1.387 . S
H2352 C2359 0.932 1_545 S
C2353 C2351 1.387 . S
C2353 C2355 1.390 . S
C2353 H2357 0.950 . S
H2354 C2350 0.950 1_556 S
C2355 C2353 1.390 . S
C2355 C2356 1.387 . S
C2355 H2358 0.950 . S
C2356 C2355 1.387 . S
C2356 C2359 1.387 . S
H2357 C2353 0.950 . S
H2358 C2355 0.950 . S
C2359 C2350 1.390 . S
C2359 H2352 0.932 1_565 S
C2359 C2356 1.387 . S
C2360 C2361 1.387 . S
C2360 H2364 0.950 . S
C2360 C2369 1.390 . S
C2361 C2360 1.387 . S
C2361 C2363 1.387 . S
H2362 C2369 0.950 . S
C2363 C2361 1.387 . S
C2363 C2365 1.390 . S
C2363 H2367 0.950 1_455 S
H2364 C2360 0.950 . S
C2365 C2363 1.390 . S
C2365 C2366 1.387 . S
C2365 H2368 0.950 . S
C2366 C2365 1.387 . S
C2366 C2369 1.387 . S
H2367 C2363 0.950 1_655 S
H2368 C2365 0.950 . S
C2369 C2360 1.390 . S
C2369 H2362 0.950 . S
C2369 C2366 1.387 . S
C2370 C2371 1.387 . S
C2370 H2374 0.950 . S
C2370 C2379 1.390 . S
C2371 C2370 1.387 . S
C2371 C2373 1.387 . S
H2372 C2379 0.950 . S
C2373 C2371 1.387 . S
C2373 C2375 1.390 . S
C2373 H2377 0.950 . S
H2374 C2370 0.950 . S
C2375 C2373 1.390 . S
C2375 C2376 1.387 . S
C2375 H2378 0.950 . S
C2376 C2375 1.387 . S
C2376 C2379 1.387 . S
H2377 C2373 0.950 . S
H2378 C2375 0.950 . S
C2379 C2370 1.390 . S
C2379 H2372 0.950 . S
C2379 C2376 1.387 . S
C2380 C2381 1.387 . S
C2380 H2384 0.950 . S
C2380 C2389 1.390 . S
C2381 C2380 1.387 . S
C2381 C2383 1.387 . S
H2382 C2389 0.950 . S
C2383 C2381 1.387 . S
C2383 C2385 1.390 . S
C2383 H2387 0.950 1_545 S
H2384 C2380 0.950 . S
C2385 C2383 1.390 . S
C2385 C2386 1.387 . S
C2385 H2388 0.950 . S
C2386 C2385 1.387 . S
C2386 C2389 1.387 . S
H2387 C2383 0.950 1_565 S
H2388 C2385 0.950 . S
C2389 C2380 1.390 . S
C2389 H2382 0.950 . S
C2389 C2386 1.387 . S
C2390 C2391 1.387 . S
C2390 H2394 0.950 1_655 S
C2390 C2399 1.390 . S
C2391 C2390 1.387 . S
C2391 C2393 1.387 . S
H2392 C2399 0.950 . S
C2393 C2391 1.387 . S
C2393 C2395 1.390 . S
C2393 H2397 0.950 . S
H2394 C2390 0.950 1_455 S
C2395 C2393 1.390 . S
C2395 C2396 1.387 . S
C2395 H2398 0.950 . S
C2396 C2395 1.387 . S
C2396 C2399 1.387 . S
H2397 C2393 0.950 . S
H2398 C2395 0.950 . S
C2399 C2390 1.390 . S
C2399 H2392 0.950 . S
C2399 C2396 1.387 . S
C2400 C2401 1.387 . S
C2400 H2404 0.950 . S
C2400 C2409 1.390 . S
C2401 C2400 1.387 . S
C2401 C2403 1.387 . S
H2402 C2409 0.950 . S
C2403 C2401 1.387 . S
C2403 C2405 1.390 . S
C2403 H2407 0.950 . S
H2404 C2400 0.950 . S
C2405 C2403 1.390 . S
C2405 C2406 1.387 . S
C2405 H2408 0.950 . S
C2406 C2405 1.387 . S
C2406 C2409 1.387 . S
H2407 C2403 0.950 . S
H2408 C2405 0.950 . S
C2409 C2400 1.390 . S
C2409 H2402 0.950 . S
C2409 C2406 1.387 . S
C2410 C2411 1.387 . S
C2410 H2414 0.950 . S
C2410 C2419 1.390 . S
C2411 C2410 1.387 . S
C2411 C2413 1.387 . S
H2412 C2419 0.950 . S
C2413 C2411 1.387 . S
C2413 C2415 1.390 . S
C2413 H2417 0.950 1_545 S
H2414 C2410 0.950 . S
C2415 C2413 1.390 . S
C2415 C2416 1.387 . S
C2415 H2418 0.950 1_556 S
C2416 C2415 1.387 . S
C2416 C2419 1.387 . S
H2417 C2413 0.950 1_565 S
H2418 C2415 0.950 1_554 S
C2419 C2410 1.390 . S
C2419 H2412 0.950 . S
C2419 C2416 1.387 . S
C2420 C2421 1.387 . S
C2420 H2424 0.950 1_556 S
C2420 C2429 1.390 . S
C2421 C2420 1.387 . S
C2421 C2423 1.387 . S
H2422 C2429 0.950 . S
C2423 C2421 1.387 . S
C2423 C2425 1.390 . S
C2423 H2427 0.950 . S
H2424 C2420 0.950 1_554 S
C2425 C2423 1.390 . S
C2425 C2426 1.387 . S
C2425 H2428 0.950 . S
C2426 C2425 1.387 . S
C2426 C2429 1.387 . S
H2427 C2423 0.950 . S
H2428 C2425 0.950 . S
C2429 C2420 1.390 . S
C2429 H2422 0.950 . S
C2429 C2426 1.387 . S
C2430 C2431 1.387 . S
C2430 H2434 0.950 . S
C2430 C2439 1.390 . S
C2431 C2430 1.387 . S
C2431 C2433 1.387 . S
H2432 C2439 0.950 . S
C2433 C2431 1.387 . S
C2433 C2435 1.390 . S
C2433 H2437 0.950 . S
H2434 C2430 0.950 . S
C2435 C2433 1.390 . S
C2435 C2436 1.387 . S
C2435 H2438 0.950 . S
C2436 C2435 1.387 . S
C2436 C2439 1.387 . S
H2437 C2433 0.950 . S
H2438 C2435 0.950 . S
C2439 C2430 1.390 . S
C2439 H2432 0.950 . S
C2439 C2436 1.387 . S
C2440 C2441 1.387 . S
C2440 H2444 0.950 . S
C2440 C2449 1.390 . S
C2441 C2440 1.387 . S
C2441 C2443 1.387 . S
H2442 C2449 0.950 . S
C2443 C2441 1.387 . S
C2443 C2445 1.390 . S
C2443 H2447 0.950 . S
H2444 C2440 0.950 . S
C2445 C2443 1.390 . S
C2445 C2446 1.387 . S
C2445 H2448 0.950 1_565 S
C2446 C2445 1.387 . S
C2446 C2449 1.387 . S
H2447 C2443 0.950 . S
H2448 C2445 0.950 1_545 S
C2449 C2440 1.390 . S
C2449 H2442 0.950 . S
C2449 C2446 1.387 . S
C2450 C2451 1.387 . S
C2450 H2454 0.950 . S
C2450 C2459 1.390 . S
C2451 C2450 1.387 . S
C2451 C2453 1.387 . S
H2452 C2459 0.950 1_655 S
C2453 C2451 1.387 . S
C2453 C2455 1.390 . S
C2453 H2457 0.950 . S
H2454 C2450 0.950 . S
C2455 C2453 1.390 . S
C2455 C2456 1.387 . S
C2455 H2458 0.950 . S
C2456 C2455 1.387 . S
C2456 C2459 1.387 . S
H2457 C2453 0.950 . S
H2458 C2455 0.950 . S
C2459 C2450 1.390 . S
C2459 H2452 0.950 1_455 S
C2459 C2456 1.387 . S
C2460 C2461 1.387 . S
C2460 H2464 0.950 . S
C2460 C2469 1.371 1_655 S
C2461 C2460 1.387 . S
C2461 C2463 1.402 . S
H2462 C2469 0.946 . S
C2463 C2461 1.402 . S
C2463 C2465 1.371 1_655 S
C2463 H2467 0.946 . S
H2464 C2460 0.950 . S
C2465 C2463 1.371 1_455 S
C2465 C2466 1.387 . S
C2465 H2468 0.950 . S
C2466 C2465 1.387 . S
C2466 C2469 1.402 . S
H2467 C2463 0.946 . S
H2468 C2465 0.950 . S
C2469 C2460 1.371 1_455 S
C2469 H2462 0.946 . S
C2469 C2466 1.402 . S
C2470 C2471 1.387 . S
C2470 H2474 0.950 . S
C2470 C2479 1.390 . S
C2471 C2470 1.387 . S
C2471 C2473 1.387 . S
H2472 C2479 0.950 . S
C2473 C2471 1.387 . S
C2473 C2475 1.390 . S
C2473 H2477 0.950 . S
H2474 C2470 0.950 . S
C2475 C2473 1.390 . S
C2475 C2476 1.387 . S
C2475 H2478 0.950 . S
C2476 C2475 1.387 . S
C2476 C2479 1.387 . S
H2477 C2473 0.950 . S
H2478 C2475 0.950 . S
C2479 C2470 1.390 . S
C2479 H2472 0.950 . S
C2479 C2476 1.387 . S
C2480 C2481 1.387 . S
C2480 H2484 0.950 . S
C2480 C2489 1.390 1_545 S
C2481 C2480 1.387 . S
C2481 C2483 1.387 . S
H2482 C2489 0.950 . S
C2483 C2481 1.387 . S
C2483 C2485 1.390 1_545 S
C2483 H2487 0.950 . S
H2484 C2480 0.950 . S
C2485 C2483 1.390 1_565 S
C2485 C2486 1.387 . S
C2485 H2488 0.950 . S
C2486 C2485 1.387 . S
C2486 C2489 1.387 . S
H2487 C2483 0.950 . S
H2488 C2485 0.950 . S
C2489 C2480 1.390 1_565 S
C2489 H2482 0.950 . S
C2489 C2486 1.387 . S
C2490 C2491 1.387 . S
C2490 H2494 0.950 . S
C2490 C2499 1.390 1_545 S
C2491 C2490 1.387 . S
C2491 C2493 1.387 . S
H2492 C2499 0.950 . S
C2493 C2491 1.387 . S
C2493 C2495 1.390 1_545 S
C2493 H2497 0.950 . S
H2494 C2490 0.950 . S
C2495 C2493 1.390 1_565 S
C2495 C2496 1.387 . S
C2495 H2498 0.950 . S
C2496 C2495 1.387 . S
C2496 C2499 1.387 . S
H2497 C2493 0.950 . S
H2498 C2495 0.950 . S
C2499 C2490 1.390 1_565 S
C2499 H2492 0.950 . S
C2499 C2496 1.387 . S
C2500 C2501 1.387 . S
C2500 H2504 0.950 . S
C2500 C2509 1.392 1_655 S
C2501 C2500 1.387 . S
C2501 C2503 1.386 . S
H2502 C2509 0.949 . S
C2503 C2501 1.386 . S
C2503 C2505 1.392 1_655 S
C2503 H2507 0.949 . S
H2504 C2500 0.950 . S
C2505 C2503 1.392 1_455 S
C2505 C2506 1.387 . S
C2505 H2508 0.950 . S
C2506 C2505 1.387 . S
C2506 C2509 1.386 . S
H2507 C2503 0.949 . S
H2508 C2505 0.950 . S
C2509 C2500 1.392 1_455 S
C2509 H2502 0.949 . S
C2509 C2506 1.386 . S
C2510 C2511 1.387 . S
C2510 H2514 0.950 . S
C2510 C2519 1.390 . S
C2511 C2510 1.387 . S
C2511 C2513 1.387 . S
H2512 C2519 0.950 . S
C2513 C2511 1.387 . S
C2513 C2515 1.390 . S
C2513 H2517 0.950 . S
H2514 C2510 0.950 . S
C2515 C2513 1.390 . S
C2515 C2516 1.387 . S
C2515 H2518 0.950 . S
C2516 C2515 1.387 . S
C2516 C2519 1.387 . S
H2517 C2513 0.950 . S
H2518 C2515 0.950 . S
C2519 C2510 1.390 . S
C2519 H2512 0.950 . S
C2519 C2516 1.387 . S
C1441 C7 1.896 . S
C1446 C282 1.926 . S
C1451 C322 1.920 . S
C1456 C47 1.897 . S
C1461 C242 1.919 . S
C1466 C87 1.898 . S
C1471 C442 1.919 . S
C1476 C127 1.898 . S
C1481 C167 1.897 . S
C1486 C362 1.920 . S
C1491 C207 1.897 . S
C1496 C402 1.918 . S
C1501 C51 1.920 . S
C1506 C256 1.898 . S
C1511 C296 1.897 . S
C1516 C91 1.920 . S
C1521 C11 1.926 . S
C1526 C336 1.896 . S
C1531 C211 1.919 . S
C1536 C376 1.896 . S
C1541 C416 1.898 . S
C1546 C131 1.920 . S
C1551 C456 1.898 . S
C1556 C171 1.920 . S
C1561 C487 1.898 . S
C1566 C762 1.920 . S
C1571 C802 1.920 . S
C1576 C527 1.898 . S
C1581 C722 1.919 . S
C1586 C567 1.896 . S
C1591 C607 1.896 . S
C1596 C922 1.919 . S
C1601 C842 1.920 . S
C1606 C647 1.897 . S
C1611 C687 1.897 . S
C1616 C882 1.919 . S
C1621 C736 1.898 . S
C1626 C531 1.919 . S
C1631 C571 1.920 . S
C1636 C776 1.897 . S
C1641 C816 1.896 . S
C1646 C491 1.918 . S
C1651 C691 1.919 . S
C1656 C856 1.896 . S
C1661 C611 1.918 . S
C1666 C896 1.897 . S
C1671 C936 1.897 . S
C1676 C651 1.918 . S
C1681 C967 1.898 . S
C1686 C1242 1.920 . S
C1691 C1007 1.898 . S
C1696 C1282 1.919 . S
C1701 C1202 1.919 . S
C1706 C1047 1.896 . S
C1711 C1402 1.919 . S
C1716 C1087 1.898 . S
C1721 C1127 1.896 . S
C1726 C1322 1.918 . S
C1731 C1362 1.920 . S
C1736 C1167 1.898 . S
C1741 C1011 1.920 . S
C1746 C1216 1.897 . S
C1751 C1256 1.896 . S
C1756 C1051 1.919 . S
C1761 C971 1.919 . S
C1766 C1296 1.898 . S
C1771 C1336 1.896 . S
C1776 C1171 1.919 . S
C1781 C1376 1.897 . S
C1786 C1091 1.920 . S
C1791 C1416 1.898 . S
C1796 C1131 1.920 . S
C1801 C2 2.440 . S
C1806 C731 2.440 . S
C1811 C42 2.440 . S
C1816 C771 2.440 . S
C1821 C811 2.440 . S
C1826 C82 2.440 . S
C1831 C1331 2.440 . S
C1836 C122 2.440 . S
C1841 C1371 2.440 . S
C1846 C162 2.440 . S
C1851 C1411 2.440 . S
C1856 C202 2.440 . S
C1861 C251 2.442 . S
C1866 C962 2.442 . S
C1871 C1002 2.442 . S
C1876 C291 2.442 . S
C1881 C331 2.440 . S
C1886 C1042 2.440 . S
C1891 C371 2.442 . S
C1896 C602 2.442 . S
C1901 C411 2.440 . S
C1906 C642 2.440 . S
C1911 C451 2.440 . S
C1916 C682 2.440 . S
C1921 C482 2.440 . S
C1926 C1211 2.440 . S
C1931 C1251 2.440 . S
C1936 C522 2.440 . S
C1941 C562 2.442 . S
C1946 C1291 2.442 . S
C1951 C1082 2.442 . S
C1956 C851 2.442 . S
C1961 C891 2.440 . S
C1966 C1122 2.440 . S
C1971 C1162 2.440 . S
C1976 C931 2.440 . S
C1981 C19 2.332 1_556 S
C1986 C659 2.334 . S
C1991 C59 2.333 1_556 S
C1996 C699 2.331 . S
C2001 C619 2.331 . S
C2006 C99 2.331 1_556 S
C2011 C139 2.334 . S
C2016 C1059 2.334 . S
C2021 C979 2.332 . S
C2026 C179 2.331 . S
C2031 C219 2.334 . S
C2036 C1019 2.333 . S
C2041 C1370 2.334 . S
C2046 C250 2.332 1_554 S
C2051 C290 2.331 1_554 S
C2056 C1410 2.332 . S
C2061 C1330 2.334 . S
C2066 C330 2.334 1_554 S
C2071 C370 2.334 . S
C2076 C810 2.334 . S
C2081 C410 2.333 . S
C2086 C730 2.334 . S
C2091 C450 2.332 . S
C2096 C770 2.331 . S
C2101 C1139 2.334 . S
C2106 C499 2.332 . S
C2111 C539 2.333 . S
C2116 C1179 2.334 . S
C2121 C579 2.331 . S
C2126 C1099 2.331 . S
C2131 C1290 2.334 . S
C2136 C850 2.334 . S
C2141 C1210 2.332 . S
C2146 C890 2.331 . S
C2151 C1250 2.334 . S
C2156 C930 2.332 . S
C2161 C130 3.006 . S
C2166 C10 3.006 . S
C2171 C50 3.004 . S
C2176 C170 3.004 . S
C2181 C90 3.006 . S
C2186 C210 3.006 . S
C2191 C379 3.006 . S
C2196 C259 3.006 . S
C2201 C299 3.004 . S
C2206 C419 3.004 . S
C2211 C459 3.006 . S
C2216 C339 3.005 . S
C2221 C610 3.006 . S
C2226 C490 3.006 . S
C2231 C530 3.006 . S
C2236 C650 3.006 . S
C2241 C570 3.006 . S
C2246 C690 3.006 . S
C2251 C739 3.006 . S
C2256 C859 3.006 . S
C2261 C779 3.007 . S
C2266 C899 3.007 . S
C2271 C819 3.006 . S
C2276 C939 3.006 . S
C2281 C970 3.006 . S
C2286 C1090 3.006 . S
C2291 C1130 3.007 . S
C2296 C1010 3.007 . S
C2301 C1170 3.005 . S
C2306 C1050 3.005 . S
C2311 C1219 3.005 . S
C2316 C1339 3.005 . S
C2321 C1379 3.007 . S
C2326 C1259 3.007 . S
C2331 C1299 3.005 . S
C2336 C1419 3.005 . S
C2341 C16 0.485 . S
C2346 C1176 0.484 . S
C2351 C1096 0.485 . S
C2356 C56 0.480 . S
C2361 C96 0.475 . S
C2366 C1136 0.477 . S
C2371 C536 0.481 . S
C2376 C136 0.485 . S
C2381 C176 0.477 . S
C2386 C576 0.475 . S
C2391 C216 0.485 . S
C2396 C496 0.485 . S
C2401 C927 0.475 . S
C2406 C247 0.475 . S
C2411 C287 0.480 . S
C2416 C847 0.485 . S
C2421 C887 0.480 . S
C2426 C327 0.485 . S
C2431 C367 0.484 . S
C2436 C1247 0.478 . S
C2441 C1287 0.485 . S
C2446 C407 0.481 . S
C2451 C1207 0.475 . S
C2456 C447 0.475 . S
C2461 C616 0.476 . S
C2466 C1016 0.481 . S
C2471 C656 0.475 . S
C2476 C1056 0.476 . S
C2481 C696 0.475 . S
C2486 C976 0.475 . S
C2491 C727 0.485 . S
C2496 C1407 0.485 . S
C2501 C767 0.482 . S
C2506 C1327 0.476 . S
C2511 C1367 0.479 . S
C2516 C807 0.485 . S
