# Generated by pormake.
# Topology wiu, (6)-cn, num edge types: 1
# Building blocks:
#     Node 0, Type 0, BuildingBlock: KUMJIN_clean_sbu_1, # of connection points: 6
#     Node 1, Type 0, BuildingBlock: KUMJIN_clean_sbu_1, # of connection points: 6
#     Node 2, Type 0, BuildingBlock: KUMJIN_clean_sbu_1, # of connection points: 6
#     Node 3, Type 0, BuildingBlock: KUMJIN_clean_sbu_1, # of connection points: 6
#     Node 4, Type 0, BuildingBlock: KUMJIN_clean_sbu_1, # of connection points: 6
#     Node 5, Type 0, BuildingBlock: KUMJIN_clean_sbu_1, # of connection points: 6
#     Node 6, Type 0, BuildingBlock: KUMJIN_clean_sbu_1, # of connection points: 6
#     Node 7, Type 0, BuildingBlock: KUMJIN_clean_sbu_1, # of connection points: 6
#     Node 8, Type 0, BuildingBlock: KUMJIN_clean_sbu_1, # of connection points: 6
#     Node 9, Type 0, BuildingBlock: KUMJIN_clean_sbu_1, # of connection points: 6
#     Node 10, Type 0, BuildingBlock: KUMJIN_clean_sbu_1, # of connection points: 6
#     Node 11, Type 0, BuildingBlock: KUMJIN_clean_sbu_1, # of connection points: 6
#     Node 12, Type 0, BuildingBlock: KUMJIN_clean_sbu_1, # of connection points: 6
#     Node 13, Type 0, BuildingBlock: KUMJIN_clean_sbu_1, # of connection points: 6
#     Node 14, Type 0, BuildingBlock: KUMJIN_clean_sbu_1, # of connection points: 6
#     Node 15, Type 0, BuildingBlock: KUMJIN_clean_sbu_1, # of connection points: 6
#     Edge 16, Type (0, 0), BuildingBlock: XIVTED_clean_linker_0, # of connection points: 2
#     Edge 17, Type (0, 0), BuildingBlock: XIVTED_clean_linker_0, # of connection points: 2
#     Edge 18, Type (0, 0), BuildingBlock: XIVTED_clean_linker_0, # of connection points: 2
#     Edge 19, Type (0, 0), BuildingBlock: XIVTED_clean_linker_0, # of connection points: 2
#     Edge 20, Type (0, 0), BuildingBlock: XIVTED_clean_linker_0, # of connection points: 2
#     Edge 21, Type (0, 0), BuildingBlock: XIVTED_clean_linker_0, # of connection points: 2
#     Edge 22, Type (0, 0), BuildingBlock: XIVTED_clean_linker_0, # of connection points: 2
#     Edge 23, Type (0, 0), BuildingBlock: XIVTED_clean_linker_0, # of connection points: 2
#     Edge 24, Type (0, 0), BuildingBlock: XIVTED_clean_linker_0, # of connection points: 2
#     Edge 25, Type (0, 0), BuildingBlock: XIVTED_clean_linker_0, # of connection points: 2
#     Edge 26, Type (0, 0), BuildingBlock: XIVTED_clean_linker_0, # of connection points: 2
#     Edge 27, Type (0, 0), BuildingBlock: XIVTED_clean_linker_0, # of connection points: 2
#     Edge 28, Type (0, 0), BuildingBlock: XIVTED_clean_linker_0, # of connection points: 2
#     Edge 29, Type (0, 0), BuildingBlock: XIVTED_clean_linker_0, # of connection points: 2
#     Edge 30, Type (0, 0), BuildingBlock: XIVTED_clean_linker_0, # of connection points: 2
#     Edge 31, Type (0, 0), BuildingBlock: XIVTED_clean_linker_0, # of connection points: 2
#     Edge 32, Type (0, 0), BuildingBlock: XIVTED_clean_linker_0, # of connection points: 2
#     Edge 33, Type (0, 0), BuildingBlock: XIVTED_clean_linker_0, # of connection points: 2
#     Edge 34, Type (0, 0), BuildingBlock: XIVTED_clean_linker_0, # of connection points: 2
#     Edge 35, Type (0, 0), BuildingBlock: XIVTED_clean_linker_0, # of connection points: 2
#     Edge 36, Type (0, 0), BuildingBlock: XIVTED_clean_linker_0, # of connection points: 2
#     Edge 37, Type (0, 0), BuildingBlock: XIVTED_clean_linker_0, # of connection points: 2
#     Edge 38, Type (0, 0), BuildingBlock: XIVTED_clean_linker_0, # of connection points: 2
#     Edge 39, Type (0, 0), BuildingBlock: XIVTED_clean_linker_0, # of connection points: 2
#     Edge 40, Type (0, 0), BuildingBlock: XIVTED_clean_linker_0, # of connection points: 2
#     Edge 41, Type (0, 0), BuildingBlock: XIVTED_clean_linker_0, # of connection points: 2
#     Edge 42, Type (0, 0), BuildingBlock: XIVTED_clean_linker_0, # of connection points: 2
#     Edge 43, Type (0, 0), BuildingBlock: XIVTED_clean_linker_0, # of connection points: 2
#     Edge 44, Type (0, 0), BuildingBlock: XIVTED_clean_linker_0, # of connection points: 2
#     Edge 45, Type (0, 0), BuildingBlock: XIVTED_clean_linker_0, # of connection points: 2
#     Edge 46, Type (0, 0), BuildingBlock: XIVTED_clean_linker_0, # of connection points: 2
#     Edge 47, Type (0, 0), BuildingBlock: XIVTED_clean_linker_0, # of connection points: 2
#     Edge 48, Type (0, 0), BuildingBlock: XIVTED_clean_linker_0, # of connection points: 2
#     Edge 49, Type (0, 0), BuildingBlock: XIVTED_clean_linker_0, # of connection points: 2
#     Edge 50, Type (0, 0), BuildingBlock: XIVTED_clean_linker_0, # of connection points: 2
#     Edge 51, Type (0, 0), BuildingBlock: XIVTED_clean_linker_0, # of connection points: 2
#     Edge 52, Type (0, 0), BuildingBlock: XIVTED_clean_linker_0, # of connection points: 2
#     Edge 53, Type (0, 0), BuildingBlock: XIVTED_clean_linker_0, # of connection points: 2
#     Edge 54, Type (0, 0), BuildingBlock: XIVTED_clean_linker_0, # of connection points: 2
#     Edge 55, Type (0, 0), BuildingBlock: XIVTED_clean_linker_0, # of connection points: 2
#     Edge 56, Type (0, 0), BuildingBlock: XIVTED_clean_linker_0, # of connection points: 2
#     Edge 57, Type (0, 0), BuildingBlock: XIVTED_clean_linker_0, # of connection points: 2
#     Edge 58, Type (0, 0), BuildingBlock: XIVTED_clean_linker_0, # of connection points: 2
#     Edge 59, Type (0, 0), BuildingBlock: XIVTED_clean_linker_0, # of connection points: 2
#     Edge 60, Type (0, 0), BuildingBlock: XIVTED_clean_linker_0, # of connection points: 2
#     Edge 61, Type (0, 0), BuildingBlock: XIVTED_clean_linker_0, # of connection points: 2
#     Edge 62, Type (0, 0), BuildingBlock: XIVTED_clean_linker_0, # of connection points: 2
#     Edge 63, Type (0, 0), BuildingBlock: XIVTED_clean_linker_0, # of connection points: 2
# Relax obj value: 0.345
# Max RMSD: 0.281
# Mean RMSD: 0.281
data_MOF--net-wiu--node1-KUMJIN_clean_sbu_1--edge1-XIVTED_clean_linker_0
_symmetry_space_group_name_H-M    P1
_symmetry_Int_Tables_number       1
_symmetry_cell_setting            triclinic
loop_
_symmetry_equiv_pos_as_xyz
'x, y, z'
_cell_length_a     38.049716
_cell_length_b     38.089464
_cell_length_c     55.478664
_cell_angle_alpha  89.864745
_cell_angle_beta   90.309774
_cell_angle_gamma 89.807952
loop_
_atom_site_label
_atom_site_type_symbol
_atom_site_fract_x
_atom_site_fract_y
_atom_site_fract_z
_atom_type_partial_charge
Eu0 Eu 0.38218 0.094 0.21181 0.0
C1 C 0.29977 0.21846 0.1913 0.0
N2 N 0.33039 0.20326 0.19925 0.0
C3 C 0.36325 0.23787 0.17118 0.0
C4 C 0.3 0.24354 0.17257 0.0
C5 C 0.36185 0.21286 0.18963 0.0
C6 C 0.33228 0.25343 0.16272 0.0
C7 C 0.23577 0.21842 0.19052 0.0
C8 C 0.2678 0.20602 0.20025 0.0
C9 C 0.23609 0.24445 0.17256 0.0
C10 C 0.26807 0.25702 0.16366 0.0
Eu11 Eu 0.3238 0.16749 0.23396 0.0
N12 N 0.26813 0.18013 0.21728 0.0
C13 C 0.20434 0.20368 0.19872 0.0
C14 C 0.23763 0.16548 0.2252 0.0
C15 C 0.2053 0.17695 0.216 0.0
H16 H 0.38597 0.20151 0.19601 0.0
H17 H 0.18112 0.16548 0.22245 0.0
H18 H 0.34536 0.03444 0.17556 0.0
H19 H 0.49506 0.0781 0.27292 0.0
H20 H 0.23812 0.14587 0.23924 0.0
H21 H 0.17921 0.2125 0.19164 0.0
H22 H 0.45159 0.1108 0.24888 0.0
H23 H 0.38829 0.24525 0.16355 0.0
H24 H 0.21171 0.2545 0.16503 0.0
H25 H 0.26779 0.27648 0.14939 0.0
H26 H 0.34423 0.97015 0.17054 0.0
H27 H 0.33353 0.2726 0.14829 0.0
H28 H 0.49583 1.01319 0.27207 0.0
N29 N 0.38397 0.03325 0.20337 0.0
C30 C 0.40588 1.01311 0.21693 0.0
C31 C 0.36168 0.98188 0.18369 0.0
C32 C 0.40632 0.97624 0.2146 0.0
C33 C 0.36234 0.01834 0.18663 0.0
C34 C 0.38358 0.96068 0.19788 0.0
N35 N 0.42766 0.06509 0.234 0.0
C36 C 0.45186 0.08258 0.24779 0.0
C37 C 0.45292 1.00972 0.2464 0.0
C38 C 0.42864 0.02956 0.23265 0.0
C39 C 0.47679 0.02746 0.26122 0.0
C40 C 0.47649 0.06408 0.2617 0.0
H41 H 0.38302 0.93244 0.19559 0.0
H42 H 0.43013 0.92784 0.22744 0.0
H43 H 0.47113 0.95724 0.25526 0.0
O44 O 0.39322 0.1345 0.1853 0.0
O45 O 0.38048 0.0911 0.25299 0.0
O46 O 0.33709 0.12918 0.26622 0.0
O47 O 0.4172 0.08189 0.18223 0.0
O48 O 0.41479 0.14305 0.22139 0.0
O49 O 0.38084 0.18246 0.24218 0.0
O50 O 0.28644 0.19213 0.25926 0.0
O51 O 0.31492 0.15133 0.19326 0.0
O52 O 0.33193 0.09426 0.18834 0.0
O53 O 0.33307 0.22013 0.24748 0.0
O54 O 0.2972 0.11605 0.24279 0.0
O55 O 0.32555 0.07671 0.21749 0.0
C56 C 0.35992 0.103 0.27024 0.0
C57 C 0.4121 0.11572 0.14654 0.0
C58 C 0.44549 0.11918 1.10934 0.0
C59 C 0.4143 0.11445 1.09604 0.0
C60 C 0.38123 0.11037 0.13323 0.0
C61 C 0.38223 0.11046 1.10802 0.0
C62 C 0.44375 0.12071 0.13457 0.0
C63 C 0.4114 0.17247 0.23365 0.0
C64 C 0.41362 0.11341 0.17286 0.0
C65 C 0.4296 0.95621 0.22882 0.0
C66 C 0.45291 0.97294 0.24467 0.0
C67 C 0.31359 0.1217 0.1808 0.0
C68 C 0.29926 0.24826 0.27771 0.0
C69 C 0.28659 0.31007 0.28616 0.0
C70 C 0.30149 0.30536 0.30931 0.0
C71 C 0.31403 0.24412 0.30066 0.0
C72 C 0.28483 0.28072 0.27082 0.0
C73 C 0.31459 0.27254 0.31654 0.0
C74 C 0.29868 0.08604 0.2311 0.0
C75 C 0.30344 0.22171 0.25894 0.0
H76 H 0.41495 0.1125 1.07658 0.0
H77 H 0.3568 0.10522 0.14222 0.0
H78 H 0.35835 0.10606 1.09778 0.0
H79 H 0.46764 0.12295 0.14522 0.0
H80 H 0.30411 0.32711 0.32169 0.0
H81 H 0.32588 0.21937 0.306 0.0
H82 H 0.27326 0.28311 0.253 0.0
H83 H 0.32631 0.26947 0.33425 0.0
Eu84 Eu 0.69159 0.63265 0.46451 0.0
C85 C 0.56792 0.55255 0.44386 0.0
N86 N 0.58761 0.58103 0.45043 0.0
C87 C 0.56547 0.61317 0.41628 0.0
C88 C 0.5453 0.55411 0.42364 0.0
C89 C 0.58776 0.61043 0.43629 0.0
C90 C 0.54356 0.58522 0.41025 0.0
C91 C 0.55694 0.48974 0.44726 0.0
C92 C 0.57349 0.52044 0.45567 0.0
C93 C 0.53237 0.49201 0.42836 0.0
C94 C 0.52652 0.52411 0.41662 0.0
Eu95 Eu 0.61817 0.5733 0.48771 0.0
N96 N 0.59814 0.51861 0.47355 0.0
C97 C 0.56693 0.45736 0.45725 0.0
C98 C 0.60984 0.48699 0.48214 0.0
C99 C 0.59401 0.45592 0.47437 0.0
H100 H 0.60514 0.63179 0.44007 0.0
H101 H 0.60255 0.43091 0.48165 0.0
H102 H 0.75206 0.58318 0.43658 0.0
H103 H 0.71392 0.75084 0.51862 0.0
H104 H 0.63032 0.48611 0.49572 0.0
H105 H 0.55486 0.43319 0.4512 0.0
H106 H 0.67999 0.71046 0.49325 0.0
H107 H 0.56542 0.63678 0.40538 0.0
H108 H 0.51891 0.46878 0.42196 0.0
H109 H 0.50862 0.52506 0.40137 0.0
H110 H 0.81559 0.57014 0.43961 0.0
H111 H 0.52658 0.58738 0.39456 0.0
H112 H 0.77697 0.73959 0.52655 0.0
N113 N 0.75304 0.62204 0.46389 0.0
C114 C 0.77335 0.64202 0.47855 0.0
C115 C 0.80402 0.59022 0.45086 0.0
C116 C 0.80986 0.63602 0.48063 0.0
C117 C 0.76801 0.59744 0.44931 0.0
C118 C 0.82498 0.60923 0.46688 0.0
N119 N 0.72297 0.67556 0.48706 0.0
C120 C 0.70739 0.70491 0.49643 0.0
C121 C 0.77841 0.69254 0.50474 0.0
C122 C 0.75789 0.66988 0.49035 0.0
C123 C 0.76216 0.72161 0.51533 0.0
C124 C 0.7266 0.72805 0.51089 0.0
H125 H 0.85291 0.60374 0.46797 0.0
H126 H 0.85817 0.65307 0.49782 0.0
H127 H 0.83055 0.7026 0.51902 0.0
O128 O 0.66289 0.66119 0.4367 0.0
O129 O 0.6899 0.63427 0.50609 0.0
O130 O 0.65865 0.58529 0.51843 0.0
O131 O 0.72015 0.66107 0.4366 0.0
O132 O 0.64407 0.66672 0.47574 0.0
O133 O 0.59846 0.62969 0.48444 0.0
O134 O 0.5832 0.53891 0.50862 0.0
O135 O 0.63934 0.54839 0.45252 0.0
O136 O 0.67523 0.59043 0.43568 0.0
O137 O 0.5801 0.59473 0.51311 0.0
O138 O 0.67079 0.54999 0.49806 0.0
O139 O 0.70462 0.57454 0.46813 0.0
C140 C 0.6809 0.61146 0.52302 0.0
C141 C 0.69007 0.65589 0.39916 0.0
C142 C 0.66277 0.66097 0.3592 0.0
C143 C 0.68047 0.62995 0.35235 0.0
C144 C 0.70885 0.62628 0.39143 0.0
C145 C 0.70393 0.61338 0.36816 0.0
C146 C 0.66743 0.67306 0.38308 0.0
C147 C 0.61087 0.66147 0.48141 0.0
C148 C 0.69136 0.6677 0.4244 0.0
C149 C 0.83017 0.65752 0.49576 0.0
C150 C 0.81446 0.68575 0.5078 0.0
C151 C 0.65736 0.56049 0.43402 0.0
C152 C 0.52742 0.56519 0.50479 0.0
C153 C 0.47119 0.53701 0.49787 0.0
C154 C 0.46307 0.56188 0.47998 0.0
C155 C 0.51878 0.58956 0.48647 0.0
C156 C 0.50324 0.53872 0.51052 0.0
C157 C 0.48681 0.58809 0.47436 0.0
C158 C 0.69787 0.54896 0.48345 0.0
C159 C 0.56342 0.56507 0.5149 0.0
H160 H 0.67715 0.61881 0.33458 0.0
H161 H 0.72659 0.61256 0.40349 0.0
H162 H 0.71796 0.59008 0.36247 0.0
H163 H 0.65465 0.69672 0.38933 0.0
H164 H 0.43836 0.56074 0.4702 0.0
H165 H 0.53719 0.6091 0.4806 0.0
H166 H 0.5097 0.51906 0.524 0.0
H167 H 0.48079 0.60685 0.46023 0.0
Eu168 Eu 0.14897 0.92999 0.71436 0.0
C169 C 0.22486 0.8137 0.68704 0.0
N170 N 0.19735 0.83177 0.69697 0.0
C171 C 0.16013 0.81394 0.66415 0.0
C172 C 0.22042 0.79423 0.66563 0.0
C173 C 0.16574 0.83309 0.68528 0.0
C174 C 0.18735 0.79389 0.65454 0.0
C175 C 0.28785 0.80187 0.68586 0.0
C176 C 0.2585 0.81752 0.69695 0.0
C177 C 0.28296 0.78078 0.66542 0.0
C178 C 0.24937 0.777 0.65533 0.0
Eu179 Eu 0.21101 0.85762 0.73503 0.0
N180 N 0.26285 0.8394 0.7161 0.0
C181 C 0.32141 0.80887 0.69516 0.0
C182 C 0.29541 0.84699 0.72496 0.0
C183 C 0.32522 0.8318 0.71464 0.0
H184 H 0.14499 0.84956 0.69148 0.0
H185 H 0.35108 0.83763 0.72175 0.0
H186 H 0.19317 0.99062 0.68245 0.0
H187 H 0.03648 0.95743 0.77232 0.0
H188 H 0.2982 0.86442 0.74022 0.0
H189 H 0.3446 0.7973 0.68712 0.0
H190 H 0.07232 0.92282 0.74382 0.0
H191 H 0.13486 0.81501 0.65513 0.0
H192 H 0.30516 0.76821 0.6568 0.0
H193 H 0.24626 0.76162 0.63905 0.0
H194 H 0.21012 0.05318 0.68618 0.0
H195 H 0.18294 0.77938 0.63803 0.0
H196 H 0.05542 0.01709 0.78414 0.0
N197 N 0.16366 0.99045 0.71482 0.0
C198 C 0.14815 1.01026 0.73208 0.0
C199 C 0.19308 0.04132 0.69945 0.0
C200 C 0.15629 0.04615 0.73466 0.0
C201 C 0.18368 1.00597 0.69745 0.0
C202 C 0.18005 0.0613 0.71853 0.0
N203 N 0.11135 0.96222 0.74007 0.0
C204 C 0.08063 0.94889 0.74882 0.0
C205 C 0.10141 0.01637 0.7613 0.0
C206 C 0.12099 0.99565 0.74514 0.0
C207 C 0.07122 1.00199 0.77168 0.0
C208 C 0.06034 0.96839 0.76496 0.0
H209 H 0.18698 0.08879 0.71988 0.0
H210 H 0.14517 0.09365 0.75475 0.0
H211 H 0.09711 0.06747 0.77817 0.0
O212 O 0.12903 0.91338 0.67904 0.0
O213 O 0.1448 0.91761 0.75512 0.0
O214 O 0.19875 0.89684 0.76635 0.0
O215 O 0.10749 0.95945 0.69635 0.0
O216 O 0.11616 0.88109 0.72403 0.0
O217 O 0.15369 0.83855 0.73922 0.0
O218 O 0.24504 0.83801 0.76463 0.0
O219 O 0.23554 0.88418 0.70136 0.0
O220 O 0.18806 0.9123 0.68396 0.0
O221 O 0.21245 0.80229 0.74443 0.0
O222 O 0.23532 0.90996 0.74467 0.0
O223 O 0.20621 0.94679 0.71813 0.0
C224 C 0.17042 0.91591 0.77123 0.0
C225 C 0.11794 0.96457 0.6552 0.0
C226 C 0.10612 0.0203 0.63509 0.0
C227 C 0.13725 0.01689 0.62192 0.0
C228 C 0.14875 0.96101 0.64154 0.0
C229 C 0.15823 0.98696 0.62491 0.0
C230 C 0.09649 0.99388 0.65139 0.0
C231 C 0.12167 0.8496 0.73351 0.0
C232 C 0.1106 0.94215 0.6763 0.0
C233 C 0.13885 0.06618 0.7522 0.0
C234 C 0.11145 0.05129 0.76552 0.0
C235 C 0.2206 0.89947 0.68248 0.0
C236 C 0.238 0.77897 0.7797 0.0
C237 C 0.2503 0.71751 0.78957 0.0
C238 C 0.23496 0.72292 0.81235 0.0
C239 C 0.22267 0.78394 0.80229 0.0
C240 C 0.25236 0.74622 0.7737 0.0
C241 C 0.2216 0.75598 0.81868 0.0
C242 C 0.23352 0.93904 0.73188 0.0
C243 C 0.23686 0.80548 0.76058 0.0
H244 H 0.14512 0.03712 0.60932 0.0
H245 H 0.16609 0.93896 0.64425 0.0
H246 H 0.18228 0.98422 0.61475 0.0
H247 H 0.07307 0.99716 0.66225 0.0
H248 H 0.23242 0.70153 0.82509 0.0
H249 H 0.21112 0.809 0.80704 0.0
H250 H 0.26463 0.74316 0.75624 0.0
H251 H 0.20959 0.75967 0.83614 0.0
Eu252 Eu 0.842 0.39586 0.96999 0.0
C253 C 0.96911 0.46855 0.9458 0.0
N254 N 0.94812 0.44147 0.95316 0.0
C255 C 0.9665 0.40722 0.91923 0.0
C256 C 0.99064 0.46509 0.92532 0.0
C257 C 0.94521 0.41193 0.93942 0.0
C258 C 0.98997 0.4335 0.91252 0.0
C259 C 0.98306 0.53091 0.94751 0.0
C260 C 0.96556 0.50138 0.95689 0.0
C261 C 1.00668 0.52667 0.92839 0.0
C262 C 1.01053 0.49384 0.91737 0.0
Eu263 Eu 0.92009 0.45203 0.99075 0.0
N264 N 0.94173 0.50512 0.97496 0.0
C265 C 0.97489 0.56414 0.95678 0.0
C266 C 0.93182 0.53758 0.98292 0.0
C267 C 0.94864 0.56755 0.97417 0.0
H268 H 0.92586 0.39238 0.94333 0.0
H269 H 0.9415 0.59322 0.98092 0.0
H270 H 0.77743 0.45115 0.95092 0.0
H271 H 0.82434 0.27403 1.02073 0.0
H272 H 0.91201 0.53997 0.99674 0.0
H273 H 0.98773 0.58746 0.94997 0.0
H274 H 0.85383 0.31456 0.99284 0.0
H275 H 0.96438 0.38351 0.90861 0.0
H276 H 0.02088 0.54897 0.92124 0.0
H277 H 0.02762 0.49142 0.9019 0.0
H278 H 0.71765 0.46863 0.96298 0.0
H279 H 1.00604 0.42989 0.89664 0.0
H280 H 0.76686 0.29006 1.03826 0.0
N281 N 0.78268 0.4119 0.97806 0.0
C282 C 0.76571 0.39255 0.99493 0.0
C283 C 0.73102 0.44748 0.97238 0.0
C284 C 0.73111 0.40097 1.00199 0.0
C285 C 0.7651 0.43777 0.96578 0.0
C286 C 0.71418 0.42945 0.99092 0.0
N287 N 0.81409 0.35393 0.99501 0.0
C288 C 0.82891 0.32211 1.00042 0.0
C289 C 0.76391 0.33992 1.0195 0.0
C290 C 0.78182 0.36243 1.00353 0.0
C291 C 0.77978 0.3081 1.02608 0.0
C292 C 0.8122 0.29894 1.0162 0.0
H293 H 0.68762 0.43676 0.99582 0.0
H294 H 0.68759 0.38614 1.0249 0.0
H295 H 0.71639 0.33261 1.04028 0.0
O296 O 0.85908 0.36543 0.93903 0.0
O297 O 0.85567 0.39043 1.0105 0.0
O298 O 0.87809 0.44404 1.02101 0.0
O299 O 0.80323 0.37182 0.94608 0.0
O300 O 0.89025 0.35951 0.9756 0.0
O301 O 0.93546 0.39381 0.98975 0.0
O302 O 0.95841 0.48552 1.00986 0.0
O303 O 0.89875 0.47566 0.95484 0.0
O304 O 0.85923 0.43534 0.93977 0.0
O305 O 0.95867 0.43008 1.01602 0.0
O306 O 0.86956 0.47906 1.00139 0.0
O307 O 0.8335 0.45496 0.97242 0.0
C308 C 0.85884 0.41599 1.02644 0.0
C309 C 0.82274 0.37662 0.90562 0.0
C310 C 0.84138 0.37464 0.8636 0.0
C311 C 0.82031 0.40416 0.85856 0.0
C312 C 0.80184 0.4062 0.90033 0.0
C313 C 0.80068 0.41981 0.8769 0.0
C314 C 0.84229 0.36118 0.88725 0.0
C315 C 0.9227 0.36288 0.98389 0.0
C316 C 0.82715 0.36309 0.93038 0.0
C317 C 0.71398 0.37983 1.01903 0.0
C318 C 0.73035 0.34932 1.02776 0.0
C319 C 0.87868 0.46406 0.93707 0.0
C320 C 1.01276 0.45585 1.00568 0.0
C321 C 0.07129 0.47875 0.99728 0.0
C322 C 0.07628 0.45227 0.98011 0.0
C323 C 0.01869 0.42967 0.98819 0.0
C324 C 0.03947 0.48064 1.01021 0.0
C325 C 0.05012 0.42787 0.97564 0.0
C326 C 0.84223 0.48102 0.9868 0.0
C327 C 0.97722 0.45874 1.01651 0.0
H328 H 0.81869 0.41478 0.84046 0.0
H329 H 0.78682 0.41904 0.91427 0.0
H330 H 0.78459 0.44263 0.87296 0.0
H331 H 0.85754 0.33783 0.89144 0.0
H332 H 0.10055 0.45063 0.97003 0.0
H333 H 0.99863 0.41099 0.98345 0.0
H334 H 0.03528 0.50151 1.02313 0.0
H335 H 0.05396 0.40777 0.96214 0.0
Eu336 Eu 0.71467 0.85816 0.98972 0.0
C337 C 0.63131 1.01284 1.00597 0.0
N338 N 0.65385 0.99209 1.01859 0.0
C339 C 0.67861 0.04307 1.03754 0.0
C340 C 0.63161 0.04971 1.00857 0.0
C341 C 0.67686 1.00666 1.03466 0.0
C342 C 0.65587 0.06474 1.02446 0.0
C343 C 0.58282 0.0176 0.97776 0.0
C344 C 0.60739 0.99706 0.9908 0.0
C345 C 0.5833 0.05432 0.97996 0.0
C346 C 0.60767 0.07035 0.99534 0.0
Eu347 Eu 0.65297 0.93081 1.01051 0.0
N348 N 0.60775 0.96156 0.98909 0.0
C349 C 0.55832 1.00064 0.96302 0.0
C350 C 0.58326 0.94489 0.97506 0.0
C351 C 0.55843 0.9641 0.96179 0.0
H352 H 0.69421 0.99051 1.0453 0.0
H353 H 0.53952 0.95067 0.95049 0.0
H354 H 0.65323 0.82856 1.0305 0.0
H355 H 0.85712 0.86191 1.0009 0.0
H356 H 0.58316 0.91677 0.97333 0.0
H357 H 0.53909 0.01546 0.95268 0.0
H358 H 0.79962 0.88127 0.98447 0.0
H359 H 0.69731 0.05437 1.05005 0.0
H360 H 0.56477 0.07051 0.96999 0.0
H361 H 0.60762 0.09869 0.99703 0.0
H362 H 0.65158 0.78669 1.06405 0.0
H363 H 0.65703 0.09292 1.02691 0.0
H364 H 0.85971 0.815 1.03179 0.0
N365 N 0.70852 0.82457 1.02554 0.0
C366 C 0.73916 0.80923 1.03331 0.0
C367 C 0.67635 0.7928 1.05553 0.0
C368 C 0.73927 0.78523 1.0527 0.0
C369 C 0.67741 0.81672 1.0364 0.0
C370 C 0.7073 0.77673 1.06356 0.0
N371 N 0.77036 0.84641 1.00643 0.0
C372 C 0.80058 0.86142 0.99839 0.0
C373 C 0.80319 0.80874 1.03327 0.0
C374 C 0.771 0.82079 1.02362 0.0
C375 C 0.83445 0.82351 1.02476 0.0
C376 C 0.8331 0.8502 1.00743 0.0
H377 H 0.70632 0.75845 1.07853 0.0
H378 H 0.77185 0.75298 1.07611 0.0
H379 H 0.82767 0.7736 1.05919 0.0
O380 O 0.7522 0.83651 0.96334 0.0
O381 O 0.72885 0.87809 1.02866 0.0
O382 O 0.70042 0.92988 1.03703 0.0
O383 O 0.70977 0.80448 0.97717 0.0
O384 O 0.73743 0.9107 0.97955 0.0
O385 O 0.7096 0.94883 1.0058 0.0
O386 O 0.64462 0.89338 1.03983 0.0
O387 O 0.65587 0.93347 0.96955 0.0
O388 O 0.69766 0.89349 0.95651 0.0
O389 O 0.61252 0.94098 1.03669 0.0
O390 O 0.6213 0.88277 0.99741 0.0
O391 O 0.65855 0.83814 0.98625 0.0
C392 C 0.72331 0.9051 1.0432 0.0
C393 C 0.74206 0.78003 0.94502 0.0
C394 C 0.75572 0.7191 0.93501 0.0
C395 C 0.74101 0.72472 0.91193 0.0
C396 C 0.72727 0.78524 0.92216 0.0
C397 C 0.72728 0.75768 0.90553 0.0
C398 C 0.75694 0.74752 0.95108 0.0
C399 C 0.73641 0.93991 0.99205 0.0
C400 C 0.7383 0.80544 0.9645 0.0
C401 C 0.77134 0.77166 1.06136 0.0
C402 C 0.80317 0.78343 1.05171 0.0
C403 C 0.67521 0.91997 0.95224 0.0
C404 C 0.63348 0.92645 1.07549 0.0
C405 C 0.63634 0.97384 1.1049 0.0
C406 C 0.65823 0.95345 0.11972 0.0
C407 C 0.65571 0.90609 1.09033 0.0
C408 C 0.62349 0.95991 1.08334 0.0
C409 C 0.66782 0.91954 0.11239 0.0
C410 C 0.62672 0.85032 0.98996 0.0
C411 C 0.62343 0.91543 1.05083 0.0
H412 H 0.73911 0.70354 0.89903 0.0
H413 H 0.71512 0.8101 0.91744 0.0
H414 H 0.71565 0.76154 0.88787 0.0
H415 H 0.76858 0.74427 0.96883 0.0
H416 H 0.66792 0.96372 0.13667 0.0
H417 H 0.66425 0.88024 1.0847 0.0
H418 H 0.60594 0.97592 1.07239 0.0
H419 H 0.68509 0.90383 0.12365 0.0
Eu420 Eu 0.42369 0.45848 0.73661 0.0
C421 C 0.26963 0.38797 0.7457 0.0
N422 N 0.28984 0.40661 0.76129 0.0
C423 C 0.23861 0.43535 0.77681 0.0
C424 C 0.23295 0.39324 0.7445 0.0
C425 C 0.27483 0.429 0.77744 0.0
C426 C 0.21763 0.41777 0.76001 0.0
C427 C 0.26498 0.34123 0.71625 0.0
C428 C 0.28544 0.36222 0.73184 0.0
C429 C 0.22868 0.34741 0.71422 0.0
C430 C 0.2127 0.37336 0.72831 0.0
Eu431 Eu 0.35126 0.39795 0.75882 0.0
N432 N 0.32071 0.35713 0.73401 0.0
C433 C 0.28153 0.31438 0.70339 0.0
C434 C 0.33666 0.32987 0.72228 0.0
C435 C 0.31743 0.30841 0.70667 0.0
H436 H 0.291 0.44228 0.7906 0.0
H437 H 0.33038 0.28734 0.69708 0.0
H438 H 0.43707 0.39225 0.77948 0.0
H439 H 0.44028 0.59903 0.74849 0.0
H440 H 0.36435 0.32491 0.72431 0.0
H441 H 0.26675 0.29774 0.69122 0.0
H442 H 0.41563 0.54516 0.72999 0.0
H443 H 0.2269 0.45373 0.78928 0.0
H444 H 0.21264 0.33182 0.70214 0.0
H445 H 0.18455 0.37733 0.72692 0.0
H446 H 0.47022 0.3844 0.81674 0.0
H447 H 0.18956 0.42265 0.7596 0.0
H448 H 0.47935 0.59432 0.78415 0.0
N449 N 0.45038 0.44589 0.77479 0.0
C450 C 0.46684 0.47426 0.78495 0.0
C451 C 0.46979 0.40973 0.80785 0.0
C452 C 0.48598 0.47085 0.80672 0.0
C453 C 0.45106 0.41422 0.78633 0.0
C454 C 0.48774 0.43798 0.81791 0.0
N455 N 0.44056 0.51106 0.75514 0.0
C456 C 0.43255 0.54317 0.74567 0.0
C457 C 0.47643 0.53758 0.78587 0.0
C458 C 0.46208 0.50763 0.77473 0.0
C459 C 0.46876 0.57071 0.77609 0.0
C460 C 0.44654 0.57351 0.75602 0.0
H461 H 0.50204 0.43436 0.83468 0.0
H462 H 0.51673 0.49817 0.83376 0.0
H463 H 0.50849 0.55641 0.81548 0.0
O464 O 0.44189 0.49028 0.70562 0.0
O465 O 0.39655 0.485 0.76956 0.0
O466 O 0.3686 0.43897 0.78814 0.0
O467 O 0.47909 0.46519 0.72948 0.0
O468 O 0.37003 0.48111 0.72694 0.0
O469 O 0.33478 0.455 0.75553 0.0
O470 O 0.37895 0.36915 0.78705 0.0
O471 O 0.34722 0.40219 0.71775 0.0
O472 O 0.39142 0.43804 0.70309 0.0
O473 O 0.32202 0.36563 0.78417 0.0
O474 O 0.39912 0.36545 0.74581 0.0
O475 O 0.44422 0.40185 0.73402 0.0
C476 C 0.38199 0.47118 0.78898 0.0
C477 C 0.50226 0.48419 0.6929 0.0
C478 C 0.56448 0.49373 0.6842 0.0
C479 C 0.55993 0.47559 0.66229 0.0
C480 C 0.49816 0.46602 0.67119 0.0
C481 C 0.52694 0.46215 0.6558 0.0
C482 C 0.53503 0.49849 0.69901 0.0
C483 C 0.34151 0.48073 0.74033 0.0
C484 C 0.47485 0.48604 0.71128 0.0
C485 C 0.50168 0.5005 0.81719 0.0
C486 C 0.49697 0.53372 0.80679 0.0
C487 C 0.36292 0.41815 0.69965 0.0
C488 C 0.34704 0.36373 0.82309 0.0
C489 C 0.34616 0.33764 0.86314 0.0
C490 C 0.33844 0.37074 0.87302 0.0
C491 C 0.33743 0.39622 0.83298 0.0
C492 C 0.35192 0.3349 0.8382 0.0
C493 C 0.33427 0.39991 0.85794 0.0
C494 C 0.43148 0.37012 0.73778 0.0
C495 C 0.34991 0.35832 0.79702 0.0
H496 H 0.58193 0.47097 0.65041 0.0
H497 H 0.47314 0.4544 0.66641 0.0
H498 H 0.5239 0.44795 0.63905 0.0
H499 H 0.53755 0.51286 0.71577 0.0
H500 H 0.33352 0.37354 0.89213 0.0
H501 H 0.3318 0.41852 0.82156 0.0
H502 H 0.35702 0.30955 0.83004 0.0
H503 H 0.32706 0.4251 0.86549 0.0
Eu504 Eu 0.82833 0.17189 0.48998 0.0
C505 C 0.90749 0.01505 0.51824 0.0
N506 N 0.88585 0.0387 0.52878 0.0
C507 C 0.86349 0.99356 0.55479 0.0
C508 C 0.90761 0.9794 0.52529 0.0
C509 C 0.86444 0.02859 0.5472 0.0
C510 C 0.88495 0.96875 0.54364 0.0
C511 C 0.95401 1.00322 0.48985 0.0
C512 C 0.93021 0.02677 0.50083 0.0
C513 C 0.95372 0.96757 0.49633 0.0
C514 C 0.93052 0.95566 0.51402 0.0
Eu515 Eu 0.88423 0.09667 0.51291 0.0
N516 N 0.92957 0.06136 0.49499 0.0
C517 C 0.97756 0.01618 0.47281 0.0
C518 C 0.95321 0.07409 0.47856 0.0
C519 C 0.97729 0.05183 0.46728 0.0
H520 H 0.84793 0.04734 0.55622 0.0
H521 H 0.99539 0.0622 0.45409 0.0
H522 H 0.88568 0.21061 0.53078 0.0
H523 H 0.68514 0.16409 0.49506 0.0
H524 H 0.95316 0.10117 0.47308 0.0
H525 H 0.99616 0.99896 0.46395 0.0
H526 H 0.74414 0.14883 0.48004 0.0
H527 H 0.84618 0.98573 0.56924 0.0
H528 H 0.97158 0.9491 0.48795 0.0
H529 H 0.9308 0.92815 0.51906 0.0
H530 H 0.88279 0.25341 0.56319 0.0
H531 H 0.88417 0.94162 0.54953 0.0
H532 H 0.67854 0.20958 0.52645 0.0
N533 N 0.83018 0.20971 0.52425 0.0
C534 C 0.79827 0.22285 0.53113 0.0
C535 C 0.85885 0.2451 0.55428 0.0
C536 C 0.79573 0.24728 0.55016 0.0
C537 C 0.86026 0.22061 0.53562 0.0
C538 C 0.82654 0.25868 0.56148 0.0
N539 N 0.77074 0.18375 0.50352 0.0
C540 C 0.74162 0.16769 0.49434 0.0
C541 C 0.73448 0.21894 0.52959 0.0
C542 C 0.76779 0.20888 0.52086 0.0
C543 C 0.70454 0.20263 0.52013 0.0
C544 C 0.70815 0.17678 0.50252 0.0
H545 H 0.82562 0.27734 0.57618 0.0
H546 H 0.76019 0.27722 0.57261 0.0
H547 H 0.70666 0.25236 0.55469 0.0
O548 O 0.79204 0.20194 0.46688 0.0
O549 O 0.81778 0.15588 0.5302 0.0
O550 O 0.83097 0.09759 0.53351 0.0
O551 O 0.84763 0.21663 0.469 0.0
O552 O 0.80418 0.12065 0.47825 0.0
O553 O 0.82796 0.07979 0.50481 0.0
O554 O 0.88963 0.14391 0.53434 0.0
O555 O 0.88289 0.09161 0.47184 0.0
O556 O 0.84376 0.13386 0.45791 0.0
O557 O 0.91679 0.09569 0.54535 0.0
O558 O 0.92001 0.13932 0.49557 0.0
O559 O 0.8854 0.18849 0.49173 0.0
C560 C 0.81334 0.12542 0.54128 0.0
C561 C 0.81001 0.2523 0.44344 0.0
C562 C 0.79066 0.31264 0.43641 0.0
C563 C 0.80434 0.31047 0.41286 0.0
C564 C 0.82337 0.25068 0.42004 0.0
C565 C 0.82018 0.27959 0.40473 0.0
C566 C 0.79317 0.28288 0.45148 0.0
C567 C 0.80319 0.09036 0.48962 0.0
C568 C 0.81658 0.22339 0.46022 0.0
C569 C 0.76255 0.2584 0.55808 0.0
C570 C 0.73204 0.2442 0.5479 0.0
C571 C 0.86512 0.10639 0.45401 0.0
C572 C 0.90028 0.13579 0.57595 0.0
C573 C 0.91767 0.16116 0.61458 0.0
C574 C 0.88494 0.15115 0.62415 0.0
C575 C 0.87026 0.12195 0.58679 0.0
C576 C 0.92369 0.15553 0.58978 0.0
C577 C 0.86161 0.13119 0.61036 0.0
C578 C 0.91651 0.17361 0.4921 0.0
C579 C 0.90915 0.12836 0.55072 0.0
H580 H 0.80376 0.33287 0.40083 0.0
H581 H 0.83669 0.22726 0.41376 0.0
H582 H 0.83077 0.27838 0.38668 0.0
H583 H 0.78281 0.28353 0.46962 0.0
H584 H 0.8787 0.15597 0.64287 0.0
H585 H 0.85411 0.10338 0.57734 0.0
H586 H 0.94823 0.16317 0.58152 0.0
H587 H 0.83774 0.12125 0.61837 0.0
Eu588 Eu 0.11485 0.57583 0.23898 0.0
C589 C 0.27404 0.64936 0.26292 0.0
N590 N 0.24965 0.6298 0.27442 0.0
C591 C 0.29492 0.60465 0.29952 0.0
C592 C 0.3101 0.64679 0.26885 0.0
C593 C 0.25951 0.60835 0.29307 0.0
C594 C 0.32043 0.62362 0.28715 0.0
C595 C 0.28678 0.69574 0.23455 0.0
C596 C 0.26259 0.67331 0.2461 0.0
C597 C 0.32285 0.69243 0.2396 0.0
C598 C 0.33451 0.66795 0.25674 0.0
Eu599 Eu 0.19062 0.63207 0.25991 0.0
N600 N 0.22756 0.67584 0.24192 0.0
C601 C 0.27398 0.72132 0.21867 0.0
C602 C 0.21498 0.70191 0.22709 0.0
C603 C 0.23787 0.72468 0.21518 0.0
H604 H 0.24034 0.5939 0.30319 0.0
H605 H 0.22756 0.74474 0.20321 0.0
H606 H 0.07662 0.6274 0.28293 0.0
H607 H 0.11849 0.43263 0.23213 0.0
H608 H 0.18737 0.70532 0.2237 0.0
H609 H 0.29165 0.73901 0.20943 0.0
H610 H 0.13409 0.49332 0.22107 0.0
H611 H 0.30249 0.58721 0.3141 0.0
H612 H 0.34181 0.70917 0.23073 0.0
H613 H 0.36232 0.66612 0.26087 0.0
H614 H 0.03343 0.62018 0.31499 0.0
H615 H 0.34783 0.62082 0.29223 0.0
H616 H 0.07561 0.42183 0.26461 0.0
N617 N 0.07847 0.57288 0.27383 0.0
C618 C 0.06571 0.54015 0.27885 0.0
C619 C 0.0423 0.5975 0.30497 0.0
C620 C 0.04105 0.5351 0.29746 0.0
C621 C 0.06693 0.60143 0.2866 0.0
C622 C 0.02915 0.5643 0.31033 0.0
N623 N 0.10297 0.51656 0.24847 0.0
C624 C 0.11688 0.48887 0.23613 0.0
C625 C 0.06848 0.477 0.27262 0.0
C626 C 0.07923 0.51126 0.26644 0.0
C627 C 0.08312 0.44852 0.26028 0.0
C628 C 0.10746 0.45449 0.24201 0.0
H629 H 1.01021 0.56143 0.32472 0.0
H630 H 1.0108 0.49676 0.31736 0.0
H631 H 0.03489 0.44599 0.29575 0.0
O632 O 0.0751 0.54457 0.21965 0.0
O633 O 0.12979 0.56802 0.27956 0.0
O634 O 0.18817 0.58026 0.28255 0.0
O635 O 0.07704 0.60039 0.21432 0.0
O636 O 0.166 0.54812 0.22918 0.0
O637 O 0.20739 0.57542 0.25361 0.0
O638 O 0.14485 0.63982 0.28258 0.0
O639 O 0.19144 0.63127 0.21847 0.0
O640 O 0.15521 0.58515 0.20717 0.0
O641 O 0.19335 0.66826 0.29025 0.0
O642 O 0.14881 0.66548 0.23941 0.0
O643 O 0.09881 0.6334 0.24373 0.0
C644 C 0.16018 0.56348 0.29076 0.0
C645 C 0.02139 0.5755 0.22261 0.0
C646 C 0.96294 0.55169 0.23025 0.0
C647 C 0.95634 0.57925 0.24633 0.0
C648 C 1.01386 0.6026 0.23907 0.0
C649 C 0.98165 0.60459 0.25063 0.0
C650 C 0.99546 0.54984 0.21816 0.0
C651 C 0.19669 0.5486 0.24039 0.0
C652 C 0.05763 0.57226 0.21294 0.0
C653 C 0.02976 0.50106 0.30316 0.0
C654 C 0.04356 0.47212 0.29088 0.0
C655 C 0.18 0.60895 0.20197 0.0
C656 C 0.1559 0.65529 0.32306 0.0
C657 C 0.13385 0.67745 0.36138 0.0
C658 C 0.14435 0.64584 0.37254 0.0
C659 C 0.16861 0.62525 0.33485 0.0
C660 C 0.13863 0.68115 0.33632 0.0
C661 C 0.16176 0.61997 0.35929 0.0
C662 C 0.11413 0.66367 0.2397 0.0
C663 C 0.16126 0.6612 0.29717 0.0
H664 H 0.93148 0.58101 0.25571 0.0
H665 H 0.0333 0.62178 0.2439 0.0
H666 H 0.97658 0.62549 0.26335 0.0
H667 H 1.00087 0.5282 0.20608 0.0
H668 H 0.14074 0.64184 0.3917 0.0
H669 H 0.18441 0.60635 0.3254 0.0
H670 H 0.1313 0.70528 0.32718 0.0
H671 H 0.17113 0.59637 0.36818 0.0
Eu672 Eu 0.88398 0.59317 0.7182 0.0
C673 C 0.80944 0.71244 0.69134 0.0
N674 N 0.83732 0.69444 0.70117 0.0
C675 C 0.87318 0.71146 0.66763 0.0
C676 C 0.81311 0.73154 0.66966 0.0
C677 C 0.86836 0.69264 0.689 0.0
C678 C 0.84572 0.73157 0.65818 0.0
C679 C 0.74633 0.72405 0.69046 0.0
C680 C 0.77604 0.70863 0.70152 0.0
C681 C 0.75056 0.74488 0.66979 0.0
C682 C 0.7838 0.74858 0.65942 0.0
Eu683 Eu 0.82462 0.66846 0.73941 0.0
N684 N 0.77223 0.68678 0.72081 0.0
C685 C 0.71305 0.71701 0.69999 0.0
C686 C 0.73995 0.67924 0.72994 0.0
C687 C 0.70983 0.69428 0.71967 0.0
H688 H 0.88919 0.67598 0.69494 0.0
H689 H 0.68418 0.68843 0.72696 0.0
H690 H 0.83448 0.52769 0.69506 0.0
H691 H 0.99986 0.58312 0.7776 0.0
H692 H 0.73764 0.66196 0.74535 0.0
H693 H 0.6896 0.7284 0.69197 0.0
H694 H 0.95831 0.61278 0.75082 0.0
H695 H 0.89802 0.70999 0.65826 0.0
H696 H 0.72806 0.75725 0.66118 0.0
H697 H 0.78635 0.76366 0.64293 0.0
H698 H 0.82577 0.46427 0.70095 0.0
H699 H 0.84951 0.74576 0.64145 0.0
H700 H 0.99362 0.51983 0.78618 0.0
N701 N 0.87564 0.53154 0.72095 0.0
C702 C 0.89749 0.5138 0.73618 0.0
C703 C 0.84588 0.47789 0.71111 0.0
C704 C 0.89365 0.47732 0.73991 0.0
C705 C 0.85072 0.51395 0.70794 0.0
C706 C 0.86719 0.45953 0.72735 0.0
N707 N 0.92778 0.56704 0.74348 0.0
C708 C 0.9549 0.5852 0.75385 0.0
C709 C 0.94791 0.51394 0.76315 0.0
C710 C 0.92447 0.53192 0.74756 0.0
C711 C 0.97513 0.5327 0.7741 0.0
C712 C 0.97875 0.5684 0.7693 0.0
H713 H 0.86342 0.43156 0.72974 0.0
H714 H 0.91379 0.43166 0.75892 0.0
H715 H 0.96122 0.46376 0.77934 0.0
O716 O 0.91421 0.61481 0.68843 0.0
O717 O 0.87926 0.59007 0.75911 0.0
O718 O 0.84285 0.63466 0.77292 0.0
O719 O 0.90937 0.55821 0.69252 0.0
O720 O 0.91711 0.64236 0.72761 0.0
O721 O 0.88189 0.6868 0.74231 0.0
O722 O 0.79231 0.68886 0.76945 0.0
O723 O 0.79879 0.64254 0.70574 0.0
O724 O 0.84459 0.61238 0.68845 0.0
O725 O 0.82169 0.72418 0.74686 0.0
O726 O 0.79986 0.61604 0.74887 0.0
O727 O 0.82608 0.57993 0.72083 0.0
C728 C 0.86244 0.6059 0.77674 0.0
C729 C 0.90376 0.58191 0.65332 0.0
C730 C 0.91256 0.59347 0.61062 0.0
C731 C 0.8798 0.57835 0.60538 0.0
C732 C 0.87127 0.56629 0.64783 0.0
C733 C 0.85921 0.56494 0.624 0.0
C734 C 0.92369 0.59605 0.6348 0.0
C735 C 0.91316 0.67435 0.7366 0.0
C736 C 0.91733 0.5841 0.67817 0.0
C737 C 0.91654 0.4596 0.75573 0.0
C738 C 0.94358 0.47786 0.76732 0.0
C739 C 0.81307 0.62723 0.68679 0.0
C740 C 0.79974 0.74909 0.7823 0.0
C741 C 0.79028 0.81162 0.79037 0.0
C742 C 0.80673 0.80695 0.813 0.0
C743 C 0.81612 0.74493 0.80475 0.0
C744 C 0.78628 0.78203 0.7755 0.0
C745 C 0.81918 0.7738 0.82016 0.0
C746 C 0.8 0.58755 0.73547 0.0
C747 C 0.799 0.72139 0.76402 0.0
H748 H 0.87117 0.57516 0.58688 0.0
H749 H 0.85512 0.55533 0.66185 0.0
H750 H 0.8342 0.55279 0.61992 0.0
H751 H 0.94939 0.60654 0.63923 0.0
H752 H 0.81087 0.82894 0.82499 0.0
H753 H 0.82702 0.71977 0.81011 0.0
H754 H 0.77318 0.7845 0.75818 0.0
H755 H 0.83205 0.77071 0.83748 0.0
Eu756 Eu 0.17561 0.13259 0.96298 0.0
C757 C 0.05796 0.02419 0.94877 0.0
N758 N 0.06726 0.05839 0.95241 0.0
C759 C 0.02815 0.07636 0.92035 0.0
C760 C 0.03322 0.01508 0.93076 0.0
C761 C 0.05304 0.0843 0.93807 0.0
C762 C 0.01794 0.04171 0.91681 0.0
C763 C 0.06781 0.9622 0.95717 0.0
C764 C 0.07514 0.99786 0.96185 0.0
C765 C 0.04265 0.95332 0.93965 0.0
C766 C 0.02535 0.97965 0.92655 0.0
Eu767 Eu 0.10876 0.0675 0.98443 0.0
N768 N 0.09961 1.00693 0.9787 0.0
C769 C 0.08631 0.93639 0.97005 0.0
C770 C 0.1176 0.98187 0.9914 0.0
C771 C 0.11134 0.94627 0.9872 0.0
H772 H 0.06131 0.11119 0.93925 0.0
H773 H 0.12566 0.92648 0.9973 0.0
H774 H 0.2301 0.09754 0.92121 0.0
H775 H 0.20117 0.25004 1.01697 0.0
H776 H 0.13624 0.98938 1.00519 0.0
H777 H 0.08151 0.90876 0.96686 0.0
H778 H 0.16529 0.20642 0.9959 0.0
H779 H 0.01723 0.09703 0.90914 0.0
H780 H 0.03666 0.92608 0.93589 0.0
H781 H 1.00642 0.97231 0.91281 0.0
H782 H 0.29312 0.094 0.91273 0.0
H783 H 0.99896 0.03569 0.9028 0.0
H784 H 0.26588 0.24891 1.01306 0.0
N785 N 0.23544 0.13424 0.94983 0.0
C786 C 0.2579 0.15587 0.96152 0.0
C787 C 0.28363 0.11144 0.92665 0.0
C788 C 0.2943 0.1557 0.95669 0.0
C789 C 0.24771 0.11322 0.93178 0.0
C790 C 0.30714 0.13255 0.93932 0.0
N791 N 0.20867 0.17975 0.98016 0.0
C792 C 0.19328 0.20531 0.99382 0.0
C793 C 0.26573 0.20429 0.98896 0.0
C794 C 0.24395 0.17961 0.97727 0.0
C795 C 0.25013 0.22953 1.00372 0.0
C796 C 0.21365 0.23029 1.00591 0.0
H797 H 0.3349 0.13147 0.93512 0.0
H798 H 0.34453 0.17916 0.9657 0.0
H799 H 0.3194 0.22191 0.9941 0.0
O800 O 0.131 0.13452 0.93788 0.0
O801 O 0.17517 0.13183 1.00437 0.0
O802 O 0.1533 0.07715 1.01338 0.0
O803 O 0.17143 0.1747 0.93681 0.0
O804 O 0.13143 0.15677 0.98628 0.0
O805 O 0.08622 0.12195 0.9757 0.0
O806 O 0.07384 0.03694 1.0076 0.0
O807 O 0.12175 0.05739 0.94396 0.0
O808 O 0.17503 0.08387 0.93723 0.0
O809 O 0.08067 0.09273 1.014 0.0
O810 O 0.16345 0.04458 0.98985 0.0
O811 O 0.2006 0.07832 0.96628 0.0
C812 C 0.17183 0.10543 1.01962 0.0
C813 C 0.15382 0.15 0.89968 0.0
C814 C 0.19724 0.14911 0.86756 0.0
C815 C 0.17711 0.12486 0.85466 0.0
C816 C 0.13347 0.12574 0.88662 0.0
C817 C 0.14508 0.11337 0.86419 0.0
C818 C 0.1852 0.16195 0.88959 0.0
C819 C 0.09757 0.15307 0.98201 0.0
C820 C 0.14595 0.1591 0.92504 0.0
C821 C 0.31648 0.17912 0.96897 0.0
C822 C 0.30219 0.20343 0.98511 0.0
C823 C 0.14997 0.06166 0.9304 0.0
C824 C 0.02946 0.06629 1.03059 0.0
C825 C 0.96792 0.04817 1.03311 0.0
C826 C 0.96434 0.06916 1.05384 0.0
C827 C 0.02502 0.08667 1.05137 0.0
C828 C 1.00075 0.04703 1.02132 0.0
C829 C 0.99267 0.08814 1.06286 0.0
C830 C 0.19313 0.04925 0.97816 0.0
C831 C 0.06529 0.06379 1.02078 0.0
H832 H 0.18606 0.11497 0.83746 0.0
H833 H 0.10928 0.11554 0.89405 0.0
H834 H 0.12952 0.09436 0.8544 0.0
H835 H 0.20133 0.18082 0.89919 0.0
H836 H 0.93942 0.07121 1.06308 0.0
H837 H 0.04689 0.10116 1.05898 0.0
H838 H 1.00416 0.03071 1.00553 0.0
H839 H 0.98957 0.10392 1.07891 0.0
Eu840 Eu 0.64917 0.42844 0.21516 0.0
C841 C 0.72901 0.30083 0.19701 0.0
N842 N 0.69812 0.31569 0.20441 0.0
C843 C 0.66609 0.28057 0.17604 0.0
C844 C 0.72938 0.27575 0.17835 0.0
C845 C 0.66691 0.30569 0.19435 0.0
C846 C 0.69738 0.2654 0.16809 0.0
C847 C 0.79294 0.30183 0.19709 0.0
C848 C 0.7606 0.31373 0.20636 0.0
C849 C 0.79327 0.27592 0.17913 0.0
C850 C 0.76162 0.26284 0.16985 0.0
Eu851 Eu 0.70331 0.35247 0.23867 0.0
N852 N 0.75962 0.33945 0.2234 0.0
C853 C 0.82404 0.31693 0.20573 0.0
C854 C 0.78984 0.35432 0.23181 0.0
C855 C 0.82245 0.3434 0.22307 0.0
H856 H 0.64258 0.31704 0.20019 0.0
H857 H 0.84638 0.3551 0.22992 0.0
H858 H 0.69098 0.48572 0.17971 0.0
H859 H 0.53368 0.45095 0.27191 0.0
H860 H 0.78891 0.37363 0.24594 0.0
H861 H 0.84939 0.30853 0.199 0.0
H862 H 0.57669 0.41579 0.24951 0.0
H863 H 0.64127 0.27292 0.16804 0.0
H864 H 0.8179 0.26631 0.17193 0.0
H865 H 0.76237 0.24346 0.1556 0.0
H866 H 0.69571 0.54977 0.17427 0.0
H867 H 0.69661 0.24623 0.1537 0.0
H868 H 0.53665 0.51579 0.2709 0.0
N869 N 0.65121 0.4892 0.20638 0.0
C870 C 0.62974 0.51063 0.21909 0.0
C871 C 0.67707 0.53912 0.18699 0.0
C872 C 0.63132 0.54743 0.21646 0.0
C873 C 0.67437 0.50278 0.19017 0.0
C874 C 0.65565 0.56159 0.20034 0.0
N875 N 0.60426 0.46007 0.23566 0.0
C876 C 0.57815 0.444 0.24846 0.0
C877 C 0.58128 0.51678 0.24686 0.0
C878 C 0.60531 0.49557 0.23413 0.0
C879 C 0.55556 0.50045 0.26083 0.0
C880 C 0.55375 0.46388 0.2614 0.0
H881 H 0.65776 0.58972 0.19783 0.0
H882 H 0.60935 0.59714 0.22813 0.0
H883 H 0.56534 0.57022 0.25471 0.0
O884 O 0.63799 0.38865 0.18798 0.0
O885 O 0.64778 0.42992 0.25639 0.0
O886 O 0.69092 0.39189 0.2703 0.0
O887 O 0.61503 0.4417 0.18513 0.0
O888 O 0.61394 0.38083 0.22397 0.0
O889 O 0.64558 0.3389 0.24452 0.0
O890 O 0.74012 0.32458 0.26297 0.0
O891 O 0.71085 0.36731 0.19761 0.0
O892 O 0.70082 0.42591 0.19373 0.0
O893 O 0.68788 0.30328 0.25554 0.0
O894 O 0.72994 0.40295 0.24933 0.0
O895 O 0.70661 0.44333 0.22223 0.0
C896 C 0.66797 0.41797 0.27401 0.0
C897 C 0.61974 0.40932 0.1491 0.0
C898 C 0.58713 0.41784 0.11178 0.0
C899 C 0.61882 0.41848 1.09892 0.0
C900 C 0.65131 0.40998 0.13625 0.0
C901 C 0.65081 0.41384 1.11115 0.0
C902 C 0.58794 0.41199 0.1367 0.0
C903 C 0.61575 0.35067 0.23566 0.0
C904 C 0.61815 0.41043 0.17546 0.0
C905 C 0.60835 0.5688 0.22974 0.0
C906 C 0.58332 0.55349 0.24489 0.0
C907 C 0.71674 0.39725 0.18611 0.0
C908 C 0.72333 0.27133 0.28386 0.0
C909 C 0.73748 0.20986 0.29204 0.0
C910 C 0.72312 0.2138 0.31527 0.0
C911 C 0.70902 0.27479 0.3069 0.0
C912 C 0.7382 0.23936 0.27674 0.0
C913 C 0.70942 0.24615 0.32267 0.0
C914 C 0.73156 0.43267 0.23731 0.0
C915 C 0.71849 0.29852 0.26555 0.0
H916 H 0.61887 0.42412 1.07977 0.0
H917 H 0.67607 0.40871 0.14557 0.0
H918 H 0.6753 0.41495 1.10133 0.0
H919 H 0.56373 0.41315 0.14695 0.0
H920 H 0.72143 0.19175 0.32754 0.0
H921 H 0.69687 0.29923 0.31241 0.0
H922 H 0.74933 0.2374 0.25884 0.0
H923 H 0.69809 0.2487 0.34044 0.0
Eu924 Eu 0.3446 0.88752 0.46302 0.0
C925 C 0.4612 0.97077 0.43643 0.0
N926 N 0.44364 0.94174 0.44451 0.0
C927 C 0.46405 0.90895 0.41038 0.0
C928 C 0.48181 0.96926 0.41538 0.0
C929 C 0.44363 0.91162 0.43115 0.0
C930 C 0.48381 0.9376 0.40275 0.0
C931 C 0.46985 0.0341 0.43799 0.0
C932 C 0.4556 1.00311 0.44777 0.0
C933 C 0.49236 0.03204 0.41809 0.0
C934 C 0.49841 0.99972 0.40687 0.0
Eu935 Eu 0.41659 0.94993 0.48288 0.0
N936 N 0.43304 1.00469 0.46673 0.0
C937 C 0.45969 0.06646 0.44775 0.0
C938 C 0.42107 0.03618 0.47521 0.0
C939 C 0.43464 0.06753 0.46607 0.0
H940 H 0.42791 0.88949 0.43621 0.0
H941 H 0.42593 0.09246 0.47324 0.0
H942 H 0.29209 0.93161 0.42483 0.0
H943 H 0.30667 0.78192 0.52434 0.0
H944 H 0.40217 0.03681 0.4897 0.0
H945 H 0.47003 0.09084 0.44066 0.0
H946 H 0.34687 0.81612 0.49852 0.0
H947 H 0.46434 0.88478 0.40016 0.0
H948 H 0.50408 0.05553 0.41061 0.0
H949 H 0.51474 0.99883 0.39094 0.0
H950 H 0.22921 0.94726 0.42047 0.0
H951 H 0.49934 0.93545 0.3865 0.0
H952 H 0.2437 0.79808 0.52641 0.0
N953 N 0.28452 0.90165 0.45671 0.0
C954 C 0.26086 0.88616 0.47145 0.0
C955 C 0.23779 0.93047 0.43514 0.0
C956 C 0.22464 0.89366 0.46942 0.0
C957 C 0.27336 0.92181 0.43775 0.0
C958 C 0.21338 0.91696 0.45139 0.0
N959 N 0.30727 0.85194 0.48685 0.0
C960 C 0.31943 0.82339 0.49939 0.0
C961 C 0.24862 0.8413 0.50121 0.0
C962 C 0.27261 0.86029 0.48698 0.0
C963 C 0.26126 0.81327 0.51518 0.0
C964 C 0.29676 0.80401 0.51402 0.0
H965 H 0.18577 0.92332 0.44916 0.0
H966 H 0.17289 0.88197 0.48344 0.0
H967 H 0.19396 0.83618 0.51144 0.0
O968 O 0.36652 0.86754 0.42923 0.0
O969 O 0.35116 0.88719 0.50453 0.0
O970 O 0.37821 0.93917 0.51493 0.0
O971 O 0.32143 0.84237 0.44533 0.0
O972 O 0.39197 0.85498 0.47666 0.0
O973 O 0.43774 0.89381 0.47909 0.0
O974 O 0.45262 0.98637 0.50136 0.0
O975 O 0.39019 0.97359 0.44882 0.0
O976 O 0.35966 0.92738 0.43211 0.0
O977 O 0.45708 0.93122 0.50801 0.0
O978 O 0.3638 0.97213 0.49395 0.0
O979 O 0.32729 0.94453 0.46655 0.0
C980 C 0.35775 0.91204 0.52055 0.0
C981 C 0.31748 0.85432 0.40394 0.0
C982 C 0.25796 0.85965 0.38713 0.0
C983 C 0.27126 0.88105 0.36862 0.0
C984 C 0.33036 0.87444 0.38474 0.0
C985 C 0.30731 0.88782 0.36725 0.0
C986 C 0.28161 0.84574 0.40426 0.0
C987 C 0.42582 0.86145 0.47908 0.0
C988 C 0.33929 0.84721 0.42563 0.0
C989 C 0.20078 0.8763 0.48453 0.0
C990 C 0.21276 0.85016 0.50043 0.0
C991 C 0.37328 0.95953 0.4304 0.0
C992 C 0.50881 0.96106 0.49772 0.0
C993 C 0.56717 0.98546 0.49202 0.0
C994 C 0.57271 0.96246 0.47269 0.0
C995 C 0.51513 0.93859 0.47808 0.0
C996 C 0.5352 0.98479 0.50475 0.0
C997 C 0.54676 0.93911 0.46579 0.0
C998 C 0.33514 0.97141 0.48049 0.0
C999 C 0.47327 0.96128 0.50845 0.0
H1000 H 0.25396 0.89248 0.35517 0.0
H1001 H 0.35802 0.88063 0.38369 0.0
H1002 H 0.31736 0.90404 0.35281 0.0
H1003 H 0.27206 0.82856 0.41833 0.0
H1004 H 0.59723 0.96277 0.46282 0.0
H1005 H 0.49519 0.92111 0.47162 0.0
H1006 H 0.5307 1.00293 0.51944 0.0
H1007 H 0.55091 0.92173 0.45065 0.0
Eu1008 Eu 0.21518 0.35149 0.48457 0.0
C1009 C 0.1505 0.50368 0.48099 0.0
N1010 N 0.17125 0.4869 0.49745 0.0
C1011 C 0.20413 0.53989 0.50365 0.0
C1012 C 0.15728 0.53875 0.47417 0.0
C1013 C 0.19606 0.50533 0.51004 0.0
C1014 C 0.18523 0.5564 0.48521 0.0
C1015 C 0.09648 0.50496 0.45749 0.0
C1016 C 0.12025 0.48709 0.47286 0.0
C1017 C 0.10456 0.53886 0.44928 0.0
C1018 C 0.1349 0.55573 0.45761 0.0
Eu1019 Eu 0.15699 0.42705 0.50507 0.0
N1020 N 0.11278 0.45447 0.48136 0.0
C1021 C 0.0647 0.48871 0.45147 0.0
C1022 C 0.08101 0.43932 0.47658 0.0
C1023 C 0.05672 0.45598 0.46136 0.0
H1024 H 0.21005 0.49324 0.52484 0.0
H1025 H 0.03184 0.44358 0.45729 0.0
H1026 H 0.15187 0.34477 0.52988 0.0
H1027 H 0.35619 0.33346 0.49609 0.0
H1028 H 0.07436 0.41424 0.48424 0.0
H1029 H 0.04576 0.5016 0.43975 0.0
H1030 H 0.30216 0.35889 0.47787 0.0
H1031 H 0.22465 0.55388 0.51315 0.0
H1032 H 0.08687 0.55275 0.43719 0.0
H1033 H 0.14003 0.58245 0.45191 0.0
H1034 H 0.14389 0.31086 0.56672 0.0
H1035 H 0.19124 0.58334 0.4805 0.0
H1036 H 0.3518 0.29398 0.53142 0.0
N1037 N 0.20377 0.32655 0.52329 0.0
C1038 C 0.2319 0.30877 0.53292 0.0
C1039 C 0.16858 0.30952 0.55715 0.0
C1040 C 0.22878 0.28993 0.55475 0.0
C1041 C 0.1729 0.32818 0.53567 0.0
C1042 C 0.19637 0.28975 0.56649 0.0
N1043 N 0.26819 0.33399 0.5028 0.0
C1044 C 0.30026 0.34181 0.4934 0.0
C1045 C 0.29505 0.29764 0.53329 0.0
C1046 C 0.26498 0.31253 0.52234 0.0
C1047 C 0.3281 0.30492 0.52347 0.0
C1048 C 0.33073 0.32737 0.5036 0.0
H1049 H 0.19298 0.27571 0.58333 0.0
H1050 H 0.25629 0.25844 0.58146 0.0
H1051 H 0.31419 0.26516 0.56269 0.0
O1052 O 0.24862 0.32913 0.45595 0.0
O1053 O 0.24239 0.37881 0.51722 0.0
O1054 O 0.19518 0.40543 0.53502 0.0
O1055 O 0.21173 0.29642 0.47509 0.0
O1056 O 0.23641 0.40289 0.47121 0.0
O1057 O 0.21493 0.43949 0.50037 0.0
O1058 O 0.13686 0.41281 0.54063 0.0
O1059 O 0.14955 0.41616 0.46435 0.0
O1060 O 0.20093 0.38971 0.45258 0.0
O1061 O 0.12702 0.46478 0.5261 0.0
O1062 O 0.12233 0.37797 0.49836 0.0
O1063 O 0.15745 0.33481 0.48172 0.0
C1064 C 0.22814 0.39391 0.53624 0.0
C1065 C 0.23702 0.27114 0.44064 0.0
C1066 C 0.24613 0.20916 0.43136 0.0
C1067 C 0.23005 0.21479 0.40872 0.0
C1068 C 0.22081 0.27643 0.41824 0.0
C1069 C 0.21785 0.2483 0.40217 0.0
C1070 C 0.25033 0.23801 0.44678 0.0
C1071 C 0.23916 0.431 0.48461 0.0
C1072 C 0.23715 0.29753 0.45968 0.0
C1073 C 0.2584 0.27329 0.56485 0.0
C1074 C 0.29142 0.27715 0.55417 0.0
C1075 C 0.17379 0.4109 0.44776 0.0
C1076 C 0.14097 0.46159 0.56708 0.0
C1077 C 0.12955 0.5009 0.60051 0.0
C1078 C 0.16566 0.50516 0.60439 0.0
C1079 C 0.17722 0.46704 0.57053 0.0
C1080 C 0.11747 0.47786 0.58257 0.0
C1081 C 0.18948 0.48759 0.58964 0.0
C1082 C 0.12638 0.34641 0.48863 0.0
C1083 C 0.1268 0.44492 0.54518 0.0
H1084 H 0.22597 0.19328 0.39632 0.0
H1085 H 0.20996 0.30184 0.41344 0.0
H1086 H 0.20517 0.25221 0.38486 0.0
H1087 H 0.26325 0.23471 0.46411 0.0
H1088 H 0.17524 0.52343 0.61782 0.0
H1089 H 0.19621 0.45707 0.55804 0.0
H1090 H 0.08952 0.4757 0.57884 0.0
H1091 H 0.21743 0.49164 0.59203 0.0
Eu1092 Eu 0.92549 0.96284 0.23997 0.0
C1093 C 0.77519 0.88934 0.25058 0.0
N1094 N 0.79775 0.90598 0.26566 0.0
C1095 C 0.74918 0.92972 0.28779 0.0
C1096 C 0.73852 0.89383 0.25267 0.0
C1097 C 0.78529 0.92412 0.28504 0.0
C1098 C 0.72569 0.91513 0.27119 0.0
C1099 C 0.76611 0.84463 0.22026 0.0
C1100 C 0.78873 0.86494 0.2348 0.0
C1101 C 0.72972 0.85091 0.22087 0.0
C1102 C 0.71592 0.87544 0.2371 0.0
Eu1103 Eu 0.85871 0.89655 0.25956 0.0
N1104 N 0.8238 0.8587 0.23542 0.0
C1105 C 0.78058 0.8175 0.2065 0.0
C1106 C 0.83774 0.83084 0.22323 0.0
C1107 C 0.81648 0.81015 0.20835 0.0
H1108 H 0.80347 0.93499 0.29805 0.0
H1109 H 0.8278 0.78861 0.19832 0.0
H1110 H 0.939 0.89495 0.28187 0.0
H1111 H 0.93816 0.10295 0.25495 0.0
H1112 H 0.86551 0.82508 0.22458 0.0
H1113 H 0.76411 0.80128 0.1951 0.0
H1114 H 0.91761 0.04909 0.23408 0.0
H1115 H 0.7395 0.94505 0.30276 0.0
H1116 H 0.71194 0.83589 0.20962 0.0
H1117 H 0.6877 0.8789 0.23817 0.0
H1118 H 0.97106 0.88622 0.31942 0.0
H1119 H 0.6977 0.91917 0.27347 0.0
H1120 H 0.97377 0.09782 0.29224 0.0
N1121 N 0.95268 0.94875 0.27784 0.0
C1122 C 0.96688 0.97728 0.28934 0.0
C1123 C 0.97069 0.91182 0.31092 0.0
C1124 C 0.98446 0.97351 0.31172 0.0
C1125 C 0.95312 0.91673 0.289 0.0
C1126 C 0.98695 0.94015 0.32213 0.0
N1127 N 0.94152 1.01477 0.2595 0.0
C1128 C 0.93307 0.04702 0.25045 0.0
C1129 C 0.97314 0.04094 0.29243 0.0
C1130 C 0.96112 1.01105 0.27997 0.0
C1131 C 0.96498 0.07427 0.28314 0.0
C1132 C 0.94474 0.07731 0.26213 0.0
H1133 H 1.00009 0.93626 0.33931 0.0
H1134 H 1.01137 1.00061 0.34071 0.0
H1135 H 1.00164 0.05945 0.32378 0.0
O1136 O 0.93971 0.97972 0.20335 0.0
O1137 O 0.89508 0.98692 0.27204 0.0
O1138 O 0.8746 0.93663 0.28998 0.0
O1139 O 0.97535 0.98875 0.23233 0.0
O1140 O 0.87168 0.98734 0.23407 0.0
O1141 O 0.83323 0.95029 0.25418 0.0
O1142 O 0.87767 0.88195 0.29565 0.0
O1143 O 0.86936 0.89512 0.21857 0.0
O1144 O 0.88461 0.95122 0.20953 0.0
O1145 O 0.84215 0.84789 0.27621 0.0
O1146 O 0.9083 0.86702 0.24663 0.0
O1147 O 0.95101 0.90769 0.23738 0.0
C1148 C 0.88235 0.97067 0.29114 0.0
C1149 C 1.00106 0.98111 0.19445 0.0
C1150 C 0.06447 0.98492 0.18751 0.0
C1151 C 0.06046 0.96258 0.16749 0.0
C1152 C 0.99769 0.95903 0.17437 0.0
C1153 C 0.02729 0.95 0.16093 0.0
C1154 C 0.03434 0.99439 0.20062 0.0
C1155 C 0.8405 0.98002 0.24308 0.0
C1156 C 0.97062 0.99095 0.20938 0.0
C1157 C 0.99764 1.00322 0.32363 0.0
C1158 C 0.99203 0.03679 0.31403 0.0
C1159 C 0.86824 0.92192 0.20348 0.0
C1160 C 0.82841 0.85858 0.31661 0.0
C1161 C 0.76908 0.8434 0.32961 0.0
C1162 C 0.7709 0.86928 0.34753 0.0
C1163 C 0.83022 0.88383 0.33501 0.0
C1164 C 0.79794 0.8384 0.31438 0.0
C1165 C 0.80153 0.88919 0.3503 0.0
C1166 C 0.94065 0.8747 0.23979 0.0
C1167 C 0.85489 0.85645 0.29722 0.0
H1168 H 0.08296 0.95428 0.15707 0.0
H1169 H 0.97233 0.94863 0.1691 0.0
H1170 H 0.02458 0.93286 0.14551 0.0
H1171 H 0.03659 1.0123 0.21569 0.0
H1172 H 0.74907 0.87367 0.35961 0.0
H1173 H 0.8532 0.90013 0.33708 0.0
H1174 H 0.79609 0.8195 0.29986 0.0
H1175 H 0.80292 0.90908 0.36417 0.0
Eu1176 Eu 0.32853 0.67443 0.98829 0.0
C1177 C 0.41092 0.51778 1.01074 0.0
N1178 N 0.3907 0.54109 1.02283 0.0
C1179 C 0.37067 0.4948 1.04883 0.0
C1180 C 0.41147 0.48181 1.01699 0.0
C1181 C 0.37152 0.53026 1.04222 0.0
C1182 C 0.39058 0.47041 1.03608 0.0
C1183 C 0.45458 0.50709 0.98011 0.0
C1184 C 0.43201 0.53019 0.99261 0.0
C1185 C 0.45461 0.47114 0.98576 0.0
C1186 C 0.43304 0.4585 1.00417 0.0
Eu1187 Eu 0.38753 0.59966 1.00784 0.0
N1188 N 0.43115 0.56504 0.98765 0.0
C1189 C 0.47672 0.52083 0.96246 0.0
C1190 C 0.45352 0.57857 0.97072 0.0
C1191 C 0.47637 0.55679 0.9579 0.0
H1192 H 0.35675 0.54868 1.05284 0.0
H1193 H 0.49345 0.56777 0.94431 0.0
H1194 H 0.38629 0.71114 1.0292 0.0
H1195 H 0.18563 0.66397 0.99438 0.0
H1196 H 0.45328 0.60601 0.96611 0.0
H1197 H 0.49436 0.50398 0.95243 0.0
H1198 H 0.24454 0.65001 0.97866 0.0
H1199 H 0.3547 0.48631 1.06382 0.0
H1200 H 0.47152 0.453 0.97621 0.0
H1201 H 0.43359 0.43077 1.00858 0.0
H1202 H 0.38368 0.75262 1.06263 0.0
H1203 H 0.39007 0.443 1.04135 0.0
H1204 H 0.17906 0.70767 1.02696 0.0
N1205 N 0.33065 0.70907 1.02394 0.0
C1206 C 0.29875 0.72157 1.03135 0.0
C1207 C 0.35962 0.74407 1.05399 0.0
C1208 C 0.29633 0.74533 1.05076 0.0
C1209 C 0.36089 0.72027 1.03489 0.0
C1210 C 0.32728 0.75679 1.06188 0.0
N1211 N 0.2712 0.68337 1.00318 0.0
C1212 C 0.2421 0.66782 0.99359 0.0
C1213 C 0.23499 0.71715 1.03014 0.0
C1214 C 0.26824 0.70768 1.02106 0.0
C1215 C 0.20505 0.70114 1.02041 0.0
C1216 C 0.20865 0.67627 1.00214 0.0
H1217 H 0.32648 0.77497 1.07687 0.0
H1218 H 0.26086 0.77413 1.07395 0.0
H1219 H 0.20726 0.74943 1.05598 0.0
O1220 O 0.29134 0.70191 0.96403 0.0
O1221 O 0.31874 0.6552 1.02804 0.0
O1222 O 0.33711 0.59811 1.03148 0.0
O1223 O 0.34085 0.72617 0.97399 0.0
O1224 O 0.30493 0.623 0.97629 0.0
O1225 O 0.331 0.58192 1.00165 0.0
O1226 O 0.3907 0.64434 1.03243 0.0
O1227 O 0.38249 0.59603 0.96712 0.0
O1228 O 0.34479 0.64019 0.95422 0.0
O1229 O 0.42723 0.60018 1.03574 0.0
O1230 O 0.42093 0.6435 0.99023 0.0
O1231 O 0.38543 0.69219 0.98883 0.0
C1232 C 0.31862 0.62494 1.03992 0.0
C1233 C 0.30733 0.75556 0.94378 0.0
C1234 C 0.2949 0.81661 0.93274 0.0
C1235 C 0.30872 0.80981 0.90967 0.0
C1236 C 0.32107 0.74927 0.92086 0.0
C1237 C 0.3213 0.7763 0.90377 0.0
C1238 C 0.29362 0.78872 0.94941 0.0
C1239 C 0.30489 0.59263 0.9876 0.0
C1240 C 0.31056 0.73001 0.96339 0.0
C1241 C 0.26316 0.75581 1.05912 0.0
C1242 C 0.23262 0.74169 1.04891 0.0
C1243 C 0.36505 0.61202 0.94972 0.0
C1244 C 0.4028 0.62182 1.07178 0.0
C1245 C 0.40157 0.58227 1.10638 0.0
C1246 C 0.37944 0.60545 0.11866 0.0
C1247 C 0.38051 0.64507 1.08412 0.0
C1248 C 0.41334 0.59079 1.08332 0.0
C1249 C 0.36889 0.63682 1.10744 0.0
C1250 C 0.41678 0.67786 0.98821 0.0
C1251 C 0.41317 0.62757 1.04637 0.0
H1252 H 0.31076 0.83045 0.89633 0.0
H1253 H 0.33216 0.72388 0.91642 0.0
H1254 H 0.33215 0.77157 0.88607 0.0
H1255 H 0.28265 0.79276 0.96718 0.0
H1256 H 0.37067 0.59946 0.13673 0.0
H1257 H 0.37162 0.66917 1.07567 0.0
H1258 H 0.43105 0.57267 1.07438 0.0
H1259 H 0.3516 0.65476 0.1168 0.0
Eu1260 Eu 0.61238 0.06814 0.73902 0.0
C1261 C 0.76657 0.13484 0.74791 0.0
N1262 N 0.74405 0.1188 0.76322 0.0
C1263 C 0.79253 0.09212 0.78422 0.0
C1264 C 0.80307 0.12858 0.74932 0.0
C1265 C 0.75661 0.09954 0.7822 0.0
C1266 C 0.81582 0.10607 0.76736 0.0
C1267 C 0.77629 0.18041 0.71819 0.0
C1268 C 0.75342 0.16049 0.73269 0.0
C1269 C 0.81235 0.17236 0.71807 0.0
C1270 C 0.82574 0.1465 0.73365 0.0
Eu1271 Eu 0.68344 0.13139 0.75824 0.0
N1272 N 0.71872 0.16839 0.73397 0.0
C1273 C 0.76253 0.209 0.70529 0.0
C1274 C 0.7056 0.19762 0.72269 0.0
C1275 C 0.72717 0.21809 0.70797 0.0
H1276 H 0.73864 0.08934 0.7955 0.0
H1277 H 0.71648 0.24074 0.69864 0.0
H1278 H 0.6031 0.13633 0.78062 0.0
H1279 H 0.59598 0.9285 0.75472 0.0
H1280 H 0.67822 0.20462 0.72465 0.0
H1281 H 0.77924 0.225 0.69399 0.0
H1282 H 0.61885 0.9815 0.73401 0.0
H1283 H 0.80224 0.07592 0.79888 0.0
H1284 H 0.83029 0.18704 0.7068 0.0
H1285 H 0.85382 0.14168 0.7342 0.0
H1286 H 0.57202 0.14637 0.81826 0.0
H1287 H 0.84369 0.10065 0.76911 0.0
H1288 H 0.56043 0.93493 0.79168 0.0
N1289 N 0.58849 0.08276 0.77748 0.0
C1290 C 0.57297 0.05495 0.78893 0.0
C1291 C 0.57166 0.12064 0.81002 0.0
C1292 C 0.5555 0.05949 0.81111 0.0
C1293 C 0.5889 0.11497 0.78819 0.0
C1294 C 0.55442 0.09297 0.82134 0.0
N1295 N 0.59667 0.01669 0.75933 0.0
C1296 C 0.60357 0.98419 0.75029 0.0
C1297 C 0.56362 0.99172 0.7919 0.0
C1298 C 0.57704 0.02109 0.77955 0.0
C1299 C 0.57033 0.95813 0.78268 0.0
C1300 C 0.59055 0.95436 0.76188 0.0
H1301 H 0.54137 0.09747 0.83837 0.0
H1302 H 0.52702 0.03357 0.83978 0.0
H1303 H 0.53402 0.9744 0.82294 0.0
O1304 O 0.59376 0.03786 0.70745 0.0
O1305 O 0.64275 0.04332 0.7712 0.0
O1306 O 0.6678 0.09171 0.78898 0.0
O1307 O 0.55699 0.0573 0.73331 0.0
O1308 O 0.66509 0.04357 0.72995 0.0
O1309 O 0.70424 0.0756 0.75325 0.0
O1310 O 0.66577 0.14845 0.79396 0.0
O1311 O 0.67432 0.13354 0.71697 0.0
O1312 O 0.64934 0.08092 0.70662 0.0
O1313 O 0.70511 0.1781 0.77482 0.0
O1314 O 0.63451 0.16299 0.7463 0.0
O1315 O 0.59086 0.12464 0.73454 0.0
C1316 C 0.65755 0.05834 0.79012 0.0
C1317 C 0.53279 0.04293 0.69592 0.0
C1318 C 0.47026 0.03469 0.68692 0.0
C1319 C 0.47512 0.05265 0.66495 0.0
C1320 C 0.53713 0.0608 0.67407 0.0
C1321 C 0.50834 0.06532 0.65856 0.0
C1322 C 0.49968 0.02948 0.70198 0.0
C1323 C 0.69583 0.0474 0.7407 0.0
C1324 C 0.56104 0.03923 0.71389 0.0
C1325 C 0.54077 0.03038 0.82287 0.0
C1326 C 0.5448 0.99664 0.8133 0.0
C1327 C 0.6695 0.10817 0.70109 0.0
C1328 C 0.71689 0.16714 0.8155 0.0
C1329 C 0.7777 0.17575 0.82873 0.0
C1330 C 0.7731 0.1498 0.84648 0.0
C1331 C 0.7126 0.14174 0.83361 0.0
C1332 C 0.74901 0.18487 0.81392 0.0
C1333 C 0.74055 0.13326 0.84906 0.0
C1334 C 0.60235 0.15697 0.7382 0.0
C1335 C 0.69106 0.17151 0.79566 0.0
H1336 H 0.4532 0.05766 0.65289 0.0
H1337 H 0.56244 0.07155 0.66918 0.0
H1338 H 0.51163 0.07928 0.64171 0.0
H1339 H 0.49696 0.01511 0.71876 0.0
H1340 H 0.79455 0.14224 0.85832 0.0
H1341 H 0.68811 0.12778 0.83538 0.0
H1342 H 0.75177 0.2055 0.80059 0.0
H1343 H 0.73717 0.1133 0.86277 0.0
H1344 H 0.43199 0.21608 0.27151 0.0
H1345 H 0.56655 0.33751 0.19975 0.0
H1346 H 0.4615 0.18865 0.19917 0.0
H1347 H 0.59228 0.3064 0.27236 0.0
H1348 H 0.51857 0.29397 0.19939 0.0
H1349 H 0.48074 0.25888 0.27272 0.0
C1350 C 0.44868 0.21883 0.25587 0.0
C1351 C 0.44246 0.19786 0.23533 0.0
C1352 C 0.53447 0.29686 0.21551 0.0
C1353 C 0.49814 0.24869 0.23626 0.0
C1354 C 0.56183 0.32208 0.21583 0.0
C1355 C 0.5838 0.32633 0.23621 0.0
C1356 C 0.52765 0.27603 0.23601 0.0
C1357 C 0.57626 0.30458 0.25623 0.0
C1358 C 0.47664 0.24343 0.25659 0.0
C1359 C 0.46523 0.20346 0.21561 0.0
N1360 N 0.54885 0.28102 0.25574 0.0
N1361 N 0.49136 0.22838 0.21644 0.0
H1362 H 0.61956 0.73209 0.46821 0.0
H1363 H 0.41514 0.78874 0.48337 0.0
H1364 H 0.54161 0.66241 0.49735 0.0
H1365 H 0.4989 0.86386 0.4774 0.0
H1366 H 0.45954 0.74133 0.48458 0.0
H1367 H 0.57535 0.77964 0.46801 0.0
C1368 C 0.59329 0.72648 0.47452 0.0
C1369 C 0.58477 0.69226 0.48237 0.0
C1370 C 0.46822 0.76827 0.48304 0.0
C1371 C 0.53294 0.74741 0.48177 0.0
C1372 C 0.44268 0.79559 0.48233 0.0
C1373 C 0.4526 0.83119 0.48033 0.0
C1374 C 0.50446 0.77601 0.48138 0.0
C1375 C 0.48923 0.83748 0.47898 0.0
C1376 C 0.56783 0.75384 0.47433 0.0
C1377 C 0.54977 0.6875 0.49033 0.0
N1378 N 0.51337 0.8106 0.47938 0.0
N1379 N 0.52548 0.71425 0.48963 0.0
H1380 H 0.04951 0.86297 0.73069 0.0
H1381 H 0.98505 0.66057 0.72991 0.0
H1382 H 0.12178 0.7767 0.74004 0.0
H1383 H 0.91468 0.74674 0.7443 0.0
H1384 H 0.03465 0.70192 0.73024 0.0
H1385 H 1.00029 0.82127 0.7322 0.0
C1386 C 0.05529 0.83536 0.73319 0.0
C1387 C 0.09059 0.82401 0.73548 0.0
C1388 C 1.00841 0.71185 0.73346 0.0
C1389 C 0.03303 0.77495 0.73671 0.0
C1390 C 0.97974 0.68801 0.73338 0.0
C1391 C 0.94486 0.69941 0.7375 0.0
C1392 C 1.0028 0.74813 0.73713 0.0
C1393 C 0.94065 0.73598 0.74132 0.0
C1394 C 0.02686 0.81134 0.73404 0.0
C1395 C 0.09545 0.78733 0.73844 0.0
N1396 N 0.9688 0.75863 0.74088 0.0
N1397 N 0.06742 0.76448 0.73878 0.0
H1398 H 0.02677 0.1543 0.96976 0.0
H1399 H 0.9901 0.35801 1.00337 0.0
H1400 H 0.1073 0.22343 0.99646 0.0
H1401 H 0.91378 0.294 0.96662 0.0
H1402 H 0.03175 0.3089 1.00263 0.0
H1403 H 0.98482 0.2034 0.97035 0.0
C1404 C 0.03594 0.17969 0.9758 0.0
C1405 C 0.07143 0.18395 0.983 0.0
C1406 C 1.00597 0.30541 0.99467 0.0
C1407 C 0.02216 0.24162 0.9838 0.0
C1408 C 0.98189 0.33384 0.99492 0.0
C1409 C 0.94786 0.33116 0.98468 0.0
C1410 C 0.9965 0.27297 0.98437 0.0
C1411 C 0.93937 0.29803 0.97474 0.0
C1412 C 1.01165 0.20799 0.97608 0.0
C1413 C 0.08076 0.21814 0.9906 0.0
N1414 N 0.96322 0.27065 0.97486 0.0
N1415 N 0.05658 0.24519 0.99083 0.0
H1416 H 0.62777 0.77813 0.98239 0.0
H1417 H 0.41692 0.75047 0.98669 0.0
H1418 H 0.55413 0.86271 0.99331 0.0
H1419 H 0.48965 0.66349 0.98652 0.0
H1420 H 0.46645 0.79118 0.98637 0.0
H1421 H 0.57855 0.73655 0.98125 0.0
C1422 C 0.60132 0.78828 0.98432 0.0
C1423 C 0.59579 0.82469 0.98779 0.0
C1424 C 0.47181 0.76324 0.98632 0.0
C1425 C 0.5381 0.77599 0.98652 0.0
C1426 C 0.44325 0.73961 0.9864 0.0
C1427 C 0.44834 0.70278 0.98652 0.0
C1428 C 0.50667 0.75071 0.98624 0.0
C1429 C 0.48376 0.69131 0.98632 0.0
C1430 C 0.57301 0.76419 0.98377 0.0
C1431 C 0.56035 0.8353 0.99044 0.0
N1432 N 0.5112 0.71493 0.98615 0.0
N1433 N 0.5333 0.81138 0.98969 0.0
H1434 H 0.52911 0.15691 0.73349 0.0
H1435 H 0.50384 0.36871 0.73019 0.0
H1436 H 0.61564 0.22913 0.73887 0.0
H1437 H 0.41757 0.29791 0.74208 0.0
H1438 H 0.54422 0.31823 0.72962 0.0
H1439 H 0.48812 0.20715 0.73285 0.0
C1440 C 0.53977 0.18321 0.73428 0.0
C1441 C 0.57654 0.18805 0.73609 0.0
C1442 C 0.51645 0.31356 0.73222 0.0
C1443 C 0.52865 0.24694 0.73534 0.0
C1444 C 0.49305 0.34265 0.73244 0.0
C1445 C 0.45651 0.33836 0.73597 0.0
C1446 C 0.50385 0.27903 0.7353 0.0
C1447 C 0.4451 0.30325 0.73905 0.0
C1448 C 0.51607 0.21213 0.73405 0.0
C1449 C 0.58788 0.2234 0.73735 0.0
N1450 N 0.46834 0.27539 0.73853 0.0
N1451 N 0.56437 0.25099 0.73685 0.0
H1452 H 0.12658 0.2749 0.47833 0.0
H1453 H 0.91714 0.24608 0.49137 0.0
H1454 H 0.05473 0.35744 0.49817 0.0
H1455 H 0.98951 0.15883 0.48945 0.0
H1456 H 0.96667 0.28659 0.49037 0.0
H1457 H 0.07764 0.23294 0.47897 0.0
C1458 C 0.10057 0.28456 0.48263 0.0
C1459 C 0.09546 0.32055 0.48798 0.0
C1460 C 0.97196 0.25865 0.4901 0.0
C1461 C 0.03809 0.27141 0.48867 0.0
C1462 C 0.94339 0.23509 0.49058 0.0
C1463 C 0.94835 0.19822 0.4904 0.0
C1464 C 1.00674 0.24606 0.48917 0.0
C1465 C 0.98372 0.18666 0.48953 0.0
C1466 C 0.07244 0.26023 0.48309 0.0
C1467 C 0.06062 0.33047 0.49365 0.0
N1468 N 1.0112 0.21026 0.48884 0.0
N1469 N 0.03369 0.30639 0.4937 0.0
H1470 H 0.04592 0.66874 0.22233 0.0
H1471 H 1.01424 0.87734 0.23974 0.0
H1472 H 0.12769 0.73508 0.25023 0.0
H1473 H 0.92995 0.80236 0.23609 0.0
H1474 H 0.05694 0.82838 0.23906 0.0
H1475 H 1.00519 0.71849 0.22282 0.0
C1476 C 0.05542 0.69352 0.22902 0.0
C1477 C 0.09057 0.6965 0.2371 0.0
C1478 C 0.02913 0.82256 0.2383 0.0
C1479 C 0.0432 0.75586 0.23647 0.0
C1480 C 1.00446 0.85074 0.23854 0.0
C1481 C 0.96776 0.84471 0.23783 0.0
C1482 C 0.01763 0.7874 0.23693 0.0
C1483 C 0.95757 0.80903 0.23659 0.0
C1484 C 0.03195 0.72241 0.22896 0.0
C1485 C 0.10109 0.73075 0.24393 0.0
N1486 N 0.982 0.78227 0.23604 0.0
N1487 N 0.07777 0.75871 0.24347 0.0
H1488 H 0.4656 0.0694 1.07712 0.0
H1489 H 0.65528 0.0351 1.08392 0.0
H1490 H 0.50564 0.15696 0.118 0.0
H1491 H 0.58741 0.99155 0.13792 0.0
H1492 H 0.61386 0.08433 1.07835 0.0
H1493 H 0.52483 0.04477 1.07588 0.0
C1494 C 0.48705 0.08445 1.08472 0.0
C1495 C 0.48058 0.11467 1.09839 0.0
C1496 C 0.60906 0.06483 1.09219 0.0
C1497 C 0.54768 0.08621 1.09748 0.0
C1498 C 0.63266 0.03709 1.09552 0.0
C1499 C 0.62438 1.00934 0.1112 0.0
C1500 C 0.57759 0.06464 1.10502 0.0
C1501 C 0.59474 1.01257 0.12579 0.0
C1502 C 0.52074 0.07015 1.08424 0.0
C1503 C 0.50957 0.13298 1.10791 0.0
N1504 N 0.57178 0.03932 0.12188 0.0
N1505 N 0.54186 0.11764 1.10826 0.0
H1506 H 0.67193 0.66266 0.30924 0.0
H1507 H 0.69809 0.86032 0.33265 0.0
H1508 H 0.61202 0.71433 0.36474 0.0
H1509 H 0.76928 0.77388 0.3196 0.0
H1510 H 0.64819 0.81973 0.32631 0.0
H1511 H 0.67782 0.71798 0.28884 0.0
C1512 C 0.65904 0.68513 0.31715 0.0
C1513 C 0.64591 0.68457 0.34081 0.0
C1514 C 0.67489 0.81038 0.32414 0.0
C1515 C 0.65454 0.74803 0.31779 0.0
C1516 C 0.70325 0.83313 0.32821 0.0
C1517 C 0.73797 0.82054 0.32645 0.0
C1518 C 0.68166 0.77541 0.31767 0.0
C1519 C 0.74319 0.78521 0.32048 0.0
C1520 C 0.66238 0.71709 0.3052 0.0
C1521 C 0.62695 0.7145 0.34821 0.0
N1522 N 0.71548 0.76412 0.31627 0.0
N1523 N 0.63384 0.74593 0.33763 0.0
H1524 H 0.03665 0.02082 0.62588 0.0
H1525 H 0.979 0.19959 0.60681 0.0
H1526 H 0.12383 0.08993 0.64035 0.0
H1527 H 0.92898 0.13462 0.66032 0.0
H1528 H 0.03517 0.17152 0.61669 0.0
H1529 H 0.99638 0.07007 0.63087 0.0
C1530 C 0.04725 0.04657 0.62985 0.0
C1531 C 0.08335 0.05145 0.63301 0.0
C1532 C 1.01208 0.16482 0.62705 0.0
C1533 C 0.03762 0.10751 0.63915 0.0
C1534 C 0.97988 0.18066 0.62139 0.0
C1535 C 0.94861 0.16651 0.63077 0.0
C1536 C 1.01237 0.1361 0.64281 0.0
C1537 C 0.95182 0.14453 0.65105 0.0
C1538 C 0.02436 0.07442 0.63301 0.0
C1539 C 0.09599 0.0854 0.63779 0.0
N1540 N 0.98297 0.12851 0.65559 0.0
N1541 N 0.07296 0.11255 0.64076 0.0
H1542 H 0.90612 0.34216 0.86342 0.0
H1543 H 0.82265 0.19707 0.86465 0.0
H1544 H 0.81379 0.35828 0.81935 0.0
H1545 H 0.80932 0.19991 0.78731 0.0
H1546 H 0.86438 0.24479 0.86164 0.0
H1547 H 0.91382 0.28428 0.84518 0.0
C1548 C 0.88849 0.33431 0.84902 0.0
C1549 C 0.8577 0.35365 0.84417 0.0
C1550 C 0.85354 0.23403 0.84515 0.0
C1551 C 0.86685 0.28855 0.82311 0.0
C1552 C 0.82943 0.20671 0.84691 0.0
C1553 C 0.81109 0.19557 0.82635 0.0
C1554 C 0.85832 0.25098 0.82287 0.0
C1555 C 0.82136 0.20916 0.80384 0.0
C1556 C 0.89301 0.30133 0.83863 0.0
C1557 C 0.83688 0.34335 0.82453 0.0
N1558 N 0.84301 0.23738 0.80279 0.0
N1559 N 0.84108 0.31071 0.81524 0.0
H1560 H 0.29047 0.32501 0.89223 0.0
H1561 H 0.26326 0.12705 0.87898 0.0
H1562 H 0.38302 0.27505 0.86333 0.0
H1563 H 0.20576 0.20604 0.83959 0.0
H1564 H 0.31066 0.16989 0.88646 0.0
H1565 H 0.26136 0.26838 0.89297 0.0
C1566 C 0.30548 0.30194 0.88726 0.0
C1567 C 0.33859 0.30492 0.87652 0.0
C1568 C 0.2882 0.17723 0.87545 0.0
C1569 C 0.3051 0.24064 0.87684 0.0
C1570 C 0.26162 0.15283 0.87085 0.0
C1571 C 0.23062 0.16343 0.85898 0.0
C1572 C 0.28309 0.21197 0.86804 0.0
C1573 C 0.2293 0.19695 0.84876 0.0
C1574 C 0.28855 0.26972 0.88731 0.0
C1575 C 0.35681 0.27383 0.87078 0.0
N1576 N 0.25467 0.22051 0.85421 0.0
N1577 N 0.33923 0.24284 0.86995 0.0
H1578 H 0.21208 0.84907 0.34931 0.0
H1579 H 0.08821 0.73209 0.35047 0.0
H1580 H 0.21679 0.84697 0.42712 0.0
H1581 H 0.16044 0.6963 0.40564 0.0
H1582 H 0.0998 0.79266 0.36263 0.0
H1583 H 0.15793 0.81596 0.35082 0.0
C1584 C 0.20125 0.84286 0.3668 0.0
C1585 C 0.22018 0.8495 0.38807 0.0
C1586 C 0.11194 0.77134 0.37263 0.0
C1587 C 0.15818 0.81073 0.38985 0.0
C1588 C 0.10551 0.73676 0.36569 0.0
C1589 C 0.12543 0.70921 0.37584 0.0
C1590 C 0.13789 0.77792 0.39006 0.0
C1591 C 0.14561 0.71664 0.39647 0.0
C1592 C 0.16997 0.82395 0.36766 0.0
C1593 C 0.20425 0.84076 0.41014 0.0
N1594 N 0.15222 0.75049 0.40243 0.0
N1595 N 0.17499 0.82047 0.41044 0.0
H1596 H 0.07139 0.48707 0.6268 0.0
H1597 H 0.95846 0.64802 0.60161 0.0
H1598 H 0.12853 0.571 0.59274 0.0
H1599 H 0.93111 0.54398 0.57813 0.0
H1600 H 0.02065 0.6311 0.60136 0.0
H1601 H 0.01677 0.51956 0.61992 0.0
C1602 C 0.07255 0.51322 0.61908 0.0
C1603 C 0.10402 0.52619 0.60978 0.0
C1604 C 1.00101 0.61254 0.5953 0.0
C1605 C 0.04237 0.56241 0.60106 0.0
C1606 C 0.96563 0.62236 0.59481 0.0
C1607 C 0.93983 0.59628 0.59199 0.0
C1608 C 1.00945 0.57714 0.59188 0.0
C1609 C 0.95027 0.56417 0.58207 0.0
C1610 C 0.04148 0.53119 0.61451 0.0
C1611 C 0.10444 0.56015 0.59986 0.0
N1612 N 0.98443 0.55456 0.58383 0.0
N1613 N 0.07366 0.57701 0.59511 0.0
H1614 H 0.52115 0.38899 0.11196 0.0
H1615 H 0.45699 0.57845 0.13642 0.0
H1616 H 0.57874 0.48148 1.09133 0.0
H1617 H 0.38229 0.51452 1.09823 0.0
H1618 H 0.50012 0.53096 0.13361 0.0
H1619 H 0.46723 0.42477 0.11445 0.0
C1620 C 0.52203 0.41643 1.10682 0.0
C1621 C 0.55436 0.43254 1.10171 0.0
C1622 C 0.47387 0.52697 0.12647 0.0
C1623 C 0.49408 0.47319 1.10579 0.0
C1624 C 0.44905 0.5536 0.12867 0.0
C1625 C 0.41642 0.55031 0.11722 0.0
C1626 C 0.46564 0.49691 0.11306 0.0
C1627 C 0.40751 0.51781 1.10698 0.0
C1628 C 0.49154 0.43678 1.10866 0.0
C1629 C 0.55439 0.46812 1.0954 0.0
N1630 N 0.43239 0.49235 1.10454 0.0
N1631 N 0.52489 0.48756 1.0984 0.0
H1632 H 0.28579 0.3368 0.23954 0.0
H1633 H 0.2446 0.53197 0.27528 0.0
H1634 H 0.2602 0.36553 0.31282 0.0
H1635 H 0.1945 0.48872 0.21204 0.0
H1636 H 0.26682 0.47382 0.28558 0.0
H1637 H 0.26592 0.3946 0.22612 0.0
C1638 C 0.27572 0.35478 0.2529 0.0
C1639 C 0.27457 0.34555 0.27755 0.0
C1640 C 0.25113 0.47716 0.26938 0.0
C1641 C 0.25357 0.41269 0.26204 0.0
C1642 C 0.23851 0.51039 0.26334 0.0
C1643 C 0.21651 0.51516 0.24315 0.0
C1644 C 0.24284 0.44852 0.25471 0.0
C1645 C 0.21043 0.48609 0.22815 0.0
C1646 C 0.26472 0.38798 0.2451 0.0
C1647 C 0.26238 0.37114 0.29378 0.0
N1648 N 0.22347 0.45385 0.23426 0.0
N1649 N 0.25272 0.40355 0.28577 0.0
H1650 H 0.45794 0.48033 0.47025 0.0
H1651 H 0.26477 0.46631 0.52372 0.0
H1652 H 0.42409 0.53439 0.53418 0.0
H1653 H 0.29511 0.42619 0.45409 0.0
H1654 H 0.32518 0.48348 0.53125 0.0
H1655 H 0.40184 0.44914 0.46896 0.0
C1656 C 0.4391 0.48441 0.48458 0.0
C1657 C 0.44527 0.5096 0.50241 0.0
C1658 C 0.31861 0.47114 0.51426 0.0
C1659 C 0.38091 0.47566 0.50049 0.0
C1660 C 0.2839 0.46193 0.50969 0.0
C1661 C 0.27461 0.44562 0.48791 0.0
C1662 C 0.34432 0.46399 0.49694 0.0
C1663 C 0.30104 0.43914 0.47098 0.0
C1664 C 0.40697 0.46713 0.48364 0.0
C1665 C 0.42013 0.51478 0.52033 0.0
N1666 N 0.33474 0.44843 0.47583 0.0
N1667 N 0.38862 0.49836 0.5187 0.0
H1668 H 0.28018 0.66487 0.81735 0.0
H1669 H 0.33864 0.53975 0.71131 0.0
H1670 H 0.24951 0.68865 0.74391 0.0
H1671 H 0.30526 0.50011 0.78043 0.0
H1672 H 0.31568 0.598 0.72263 0.0
H1673 H 0.30002 0.60701 0.80404 0.0
C1674 C 0.2774 0.65809 0.7985 0.0
C1675 C 0.26305 0.68209 0.78183 0.0
C1676 C 0.31309 0.57621 0.73507 0.0
C1677 C 0.28676 0.61607 0.76643 0.0
C1678 C 0.326 0.54304 0.7286 0.0
C1679 C 0.32345 0.51471 0.74474 0.0
C1680 C 0.29853 0.58114 0.75804 0.0
C1681 C 0.30721 0.52068 0.7671 0.0
C1682 C 0.28895 0.62509 0.79091 0.0
C1683 C 0.26107 0.67167 0.75746 0.0
N1684 N 0.29587 0.55323 0.77319 0.0
N1685 N 0.27299 0.63959 0.75049 0.0
H1686 H 0.0875 0.534 0.96872 0.0
H1687 H 0.28306 0.54614 1.022 0.0
H1688 H 0.12231 0.47725 1.0317 0.0
H1689 H 0.24981 0.59527 0.95548 0.0
H1690 H 0.22375 0.5233 1.02731 0.0
H1691 H 0.14504 0.56248 0.96645 0.0
C1692 C 0.10697 0.52861 0.98258 0.0
C1693 C 0.10021 0.50384 1.00066 0.0
C1694 C 0.22942 0.53899 1.01151 0.0
C1695 C 0.16648 0.53477 0.99758 0.0
C1696 C 0.26344 0.55175 1.00831 0.0
C1697 C 0.27135 0.57309 0.9884 0.0
C1698 C 0.2031 0.54742 0.9946 0.0
C1699 C 0.24477 0.57936 0.97128 0.0
C1700 C 0.13996 0.54434 0.98108 0.0
C1701 C 0.12646 0.49678 1.0178 0.0
N1702 N 0.21179 0.56683 0.97486 0.0
N1703 N 0.15864 0.5119 1.01571 0.0
H1704 H 0.83971 0.54019 1.01546 0.0
H1705 H 0.7868 0.66706 0.90776 0.0
H1706 H 0.81118 0.5019 0.94485 0.0
H1707 H 0.75332 0.68958 0.9805 0.0
H1708 H 0.80656 0.60916 0.92136 0.0
H1709 H 0.81834 0.59891 1.00338 0.0
C1710 C 0.82868 0.54397 0.9976 0.0
C1711 C 0.82683 0.51592 0.9813 0.0
C1712 C 0.79496 0.627 0.93428 0.0
C1713 C 0.80359 0.58271 0.96723 0.0
C1714 C 0.78344 0.66002 0.92652 0.0
C1715 C 0.76838 0.68368 0.94292 0.0
C1716 C 0.79201 0.61767 0.95868 0.0
C1717 C 0.76554 0.6729 0.96718 0.0
C1718 C 0.81659 0.57736 0.99073 0.0
C1719 C 0.81257 0.52238 0.95826 0.0
N1720 N 0.77744 0.64083 0.97435 0.0
N1721 N 0.80192 0.55509 0.95185 0.0
H1722 H 0.61829 0.51995 0.65635 0.0
H1723 H 0.74081 0.58365 0.76409 0.0
H1724 H 0.59163 0.49733 0.73041 0.0
H1725 H 0.78043 0.55405 0.69425 0.0
H1726 H 0.68293 0.56007 0.75227 0.0
H1727 H 0.67559 0.54097 0.66999 0.0
C1728 C 0.62437 0.51917 0.67542 0.0
C1729 C 0.59972 0.50679 0.69215 0.0
C1730 C 0.70464 0.5584 0.73978 0.0
C1731 C 0.66522 0.53173 0.70794 0.0
C1732 C 0.73759 0.57172 0.74652 0.0
C1733 C 0.76587 0.57017 0.7304 0.0
C1734 C 0.69987 0.54436 0.71656 0.0
C1735 C 0.76 0.5549 0.70767 0.0
C1736 C 0.65708 0.53138 0.68321 0.0
C1737 C 0.60922 0.50728 0.71677 0.0
N1738 N 0.72772 0.54299 0.70138 0.0
N1739 N 0.64108 0.51971 0.72392 0.0
H1740 H 0.79274 0.33987 0.48263 0.0
H1741 H 0.7313 0.52812 0.4427 0.0
H1742 H 0.7536 0.36277 0.41094 0.0
H1743 H 0.70226 0.49084 0.51336 0.0
H1744 H 0.75319 0.47028 0.43289 0.0
H1745 H 0.77022 0.39677 0.49611 0.0
C1746 C 0.77912 0.35644 0.46973 0.0
C1747 C 0.7754 0.34626 0.44544 0.0
C1748 C 0.74242 0.47483 0.45065 0.0
C1749 C 0.75088 0.41187 0.46079 0.0
C1750 C 0.73041 0.50815 0.45651 0.0
C1751 C 0.71523 0.51472 0.47907 0.0
C1752 C 0.73985 0.44768 0.46754 0.0
C1753 C 0.7138 0.48696 0.49577 0.0
C1754 C 0.76652 0.38901 0.4775 0.0
C1755 C 0.75809 0.36955 0.42963 0.0
N1756 N 0.72609 0.45449 0.4897 0.0
N1757 N 0.74691 0.40135 0.43751 0.0
H1758 H 0.78486 0.42858 0.27067 0.0
H1759 H 0.91748 0.54512 0.19253 0.0
H1760 H 0.75631 0.47882 0.20354 0.0
H1761 H 0.94331 0.50165 0.26213 0.0
H1762 H 0.86069 0.51477 0.19377 0.0
H1763 H 0.84438 0.45164 0.26658 0.0
C1764 C 0.79102 0.44471 0.25516 0.0
C1765 C 0.7656 0.45143 0.2373 0.0
C1766 C 0.87904 0.51127 0.20857 0.0
C1767 C 0.83387 0.47772 0.23237 0.0
C1768 C 0.91161 0.52809 0.20764 0.0
C1769 C 0.935 0.5254 0.22712 0.0
C1770 C 0.86986 0.49197 0.22925 0.0
C1771 C 0.92596 0.50391 0.24665 0.0
C1772 C 0.82509 0.45769 0.25275 0.0
C1773 C 0.77502 0.47281 0.21772 0.0
N1774 N 0.89395 0.48828 0.24735 0.0
N1775 N 0.80842 0.485 0.2157 0.0
H1776 H 0.7885 0.83779 0.74376 0.0
H1777 H 0.73447 0.03119 0.78068 0.0
H1778 H 0.76499 0.86737 0.81715 0.0
H1779 H 0.70147 0.98816 0.71242 0.0
H1780 H 0.75903 0.97458 0.79193 0.0
H1781 H 0.76772 0.8952 0.73017 0.0
C1782 C 0.77873 0.85599 0.75711 0.0
C1783 C 0.77833 0.8471 0.7818 0.0
C1784 C 0.74699 0.97766 0.77432 0.0
C1785 C 0.75591 0.91376 0.76611 0.0
C1786 C 0.73354 1.0103 0.76759 0.0
C1787 C 0.71651 1.01491 0.74527 0.0
C1788 C 0.7439 0.94921 0.75853 0.0
C1789 C 0.71469 0.98593 0.72969 0.0
C1790 C 0.76715 0.88895 0.74922 0.0
C1791 C 0.76643 0.87279 0.79804 0.0
N1792 N 0.7283 0.95426 0.73658 0.0
N1793 N 0.75592 0.90491 0.78992 0.0
H1794 H 0.75588 0.98108 1.02981 0.0
H1795 H 0.94427 0.03863 0.98633 0.0
H1796 H 0.79314 0.94306 0.96128 0.0
H1797 H 0.92071 1.01147 1.06007 0.0
H1798 H 0.88771 1.0127 0.97386 0.0
H1799 H 0.81386 1.005 1.03809 0.0
C1800 C 0.77599 0.97836 1.01623 0.0
C1801 C 0.76956 0.95986 0.99483 0.0
C1802 C 0.89527 1.01229 0.9927 0.0
C1803 C 0.83633 0.98726 1.00435 0.0
C1804 C 0.92754 0.02684 0.99983 0.0
C1805 C 0.93691 0.02797 1.02437 0.0
C1806 C 0.87228 0.99934 1.01031 0.0
C1807 C 0.91415 1.01227 1.04106 0.0
C1808 C 0.80926 0.9917 1.02113 0.0
C1809 C 0.79703 0.95702 0.97805 0.0
N1810 N 0.88277 0.99917 1.03379 0.0
N1811 N 0.82935 0.97061 0.98314 0.0
H1812 H 0.80249 0.99364 0.28316 0.0
H1813 H 0.73523 0.18302 0.24574 0.0
H1814 H 0.82818 0.0369 0.21361 0.0
H1815 H 0.76841 0.15621 0.31821 0.0
H1816 H 0.75668 0.1261 0.23198 0.0
H1817 H 0.77448 0.04868 0.29405 0.0
C1818 C 0.80089 1.01412 0.26973 0.0
C1819 C 0.81694 1.01025 0.24718 0.0
C1820 C 0.75914 0.13286 0.25086 0.0
C1821 C 0.78597 0.07407 0.25998 0.0
C1822 C 0.74724 0.16553 0.25882 0.0
C1823 C 0.75015 0.17497 0.28331 0.0
C1824 C 0.77318 0.10898 0.26754 0.0
C1825 C 0.76494 0.15025 0.29929 0.0
C1826 C 0.78556 0.04589 0.27621 0.0
C1827 C 0.81572 0.0387 0.23106 0.0
N1828 N 0.77568 0.11839 0.29115 0.0
N1829 N 0.80047 0.06956 0.23777 0.0
H1830 H 0.77909 0.04358 0.52306 0.0
H1831 H 0.58484 0.04413 0.46765 0.0
H1832 H 0.75005 0.09452 0.45624 0.0
H1833 H 0.61594 0.97883 0.52758 0.0
H1834 H 0.64338 0.07047 0.46752 0.0
H1835 H 0.71867 0.02341 0.52745 0.0
C1836 C 0.76014 0.05013 0.50912 0.0
C1837 C 0.76946 0.07138 0.48947 0.0
C1838 C 0.63726 0.05093 0.48106 0.0
C1839 C 0.70016 0.04886 0.49463 0.0
C1840 C 0.60371 0.03647 0.48141 0.0
C1841 C 0.59577 1.00973 0.49784 0.0
C1842 C 0.66302 0.03817 0.49708 0.0
C1843 C 0.62114 0.99983 0.51492 0.0
C1844 C 0.72555 0.0389 0.51179 0.0
C1845 C 0.74384 0.07872 0.47189 0.0
N1846 N 0.65393 1.01376 0.51391 0.0
N1847 N 0.71026 0.0678 0.47501 0.0
H1848 H 0.24504 0.18161 0.47742 0.0
H1849 H 0.29932 0.98951 0.43972 0.0
H1850 H 0.27246 0.15441 0.40424 0.0
H1851 H 0.33123 0.03091 0.50875 0.0
H1852 H 0.27656 0.0467 0.42845 0.0
H1853 H 0.2656 0.12404 0.49074 0.0
C1854 C 0.25567 0.16386 0.46409 0.0
C1855 C 0.25738 0.17344 0.43956 0.0
C1856 C 0.28812 0.04319 0.44619 0.0
C1857 C 0.27949 0.10674 0.45487 0.0
C1858 C 0.30064 1.01026 0.45289 0.0
C1859 C 0.31679 1.00502 0.47545 0.0
C1860 C 0.29116 0.07124 0.46225 0.0
C1861 C 0.3188 0.03369 0.49126 0.0
C1862 C 0.26713 0.13086 0.47181 0.0
C1863 C 0.27018 0.14838 0.42323 0.0
N1864 N 0.30599 0.06568 0.48439 0.0
N1865 N 0.28056 0.11616 0.43117 0.0
H1866 H 0.12034 1.00278 0.15861 0.0
H1867 H 0.23937 0.08763 0.25956 0.0
H1868 H 0.08972 0.99723 0.23344 0.0
H1869 H 0.283 0.03736 0.19673 0.0
H1870 H 0.18217 0.06121 0.24988 0.0
H1871 H 0.17825 0.02328 0.17128 0.0
C1872 C 0.12572 1.00553 0.17769 0.0
C1873 C 0.09986 0.998 0.19492 0.0
C1874 C 0.20449 0.05579 0.23843 0.0
C1875 C 0.16607 0.02239 0.20946 0.0
C1876 C 0.23709 0.0708 0.24392 0.0
C1877 C 0.26597 0.06525 0.22872 0.0
C1878 C 0.20075 0.03564 0.21741 0.0
C1879 C 0.26153 0.04282 0.20885 0.0
C1880 C 0.1588 0.01739 0.18489 0.0
C1881 C 0.10842 1.00319 0.2194 0.0
N1882 N 0.22944 0.02938 0.20354 0.0
N1883 N 0.14069 0.01527 0.22593 0.0
H1884 H 0.20133 0.99199 1.00785 0.0
H1885 H 0.26534 0.8687 0.90415 0.0
H1886 H 0.2357 0.03506 0.94001 0.0
H1887 H 0.29744 0.84773 0.97773 0.0
H1888 H 0.24635 0.92727 0.91649 0.0
H1889 H 0.22924 0.93592 0.99724 0.0
C1890 C 0.21514 0.98982 0.99089 0.0
C1891 C 0.21593 0.01815 0.97469 0.0
C1892 C 0.25768 0.90969 0.92983 0.0
C1893 C 0.24691 0.95409 0.96225 0.0
C1894 C 0.2687 0.87621 0.92282 0.0
C1895 C 0.283 0.85266 0.93984 0.0
C1896 C 0.26018 0.91957 0.95411 0.0
C1897 C 0.28575 0.86418 0.96393 0.0
C1898 C 0.23099 0.95788 0.98487 0.0
C1899 C 0.23436 1.01394 0.95301 0.0
N1900 N 0.27409 0.89659 0.97037 0.0
N1901 N 0.24851 0.98229 0.94719 0.0
H1902 H 0.44289 0.03089 0.7329 0.0
H1903 H 0.25162 0.9745 0.69112 0.0
H1904 H 0.41586 1.00985 0.65855 0.0
H1905 H 0.29223 0.94485 0.76104 0.0
H1906 H 0.30849 0.99885 0.68083 0.0
H1907 H 0.38539 1.00901 0.745 0.0
C1908 C 0.42518 0.02144 0.71905 0.0
C1909 C 0.43476 0.02209 0.69454 0.0
C1910 C 0.30487 0.98746 0.69855 0.0
C1911 C 0.36812 0.99816 0.70849 0.0
C1912 C 0.2721 0.97406 0.70467 0.0
C1913 C 0.26673 0.95815 0.72723 0.0
C1914 C 0.33264 0.98548 0.71516 0.0
C1915 C 0.29509 0.95711 0.74353 0.0
C1916 C 0.3922 1.00918 0.72606 0.0
C1917 C 0.40981 1.01046 0.67757 0.0
N1918 N 0.32686 0.97072 0.73722 0.0
N1919 N 0.37768 0.99917 0.68486 0.0
H1920 H 0.29075 0.06207 0.15601 0.0
H1921 H 0.20315 0.16326 1.04148 0.0
H1922 H 0.28506 0.17464 0.15096 0.0
H1923 H 0.18631 0.05315 1.05458 0.0
H1924 H 0.2356 0.16718 1.07977 0.0
H1925 H 0.25612 0.0577 0.11854 0.0
C1926 C 0.28219 0.08605 0.14728 0.0
C1927 C 0.2911 0.1189 0.15753 0.0
C1928 C 0.2248 0.14209 1.07445 0.0
C1929 C 0.25094 0.11389 0.11315 0.0
C1930 C 0.20603 0.13972 1.0523 0.0
C1931 C 0.19119 0.10776 1.04417 0.0
C1932 C 0.22992 0.1122 1.08917 0.0
C1933 C 0.19663 0.07854 1.05966 0.0
C1934 C 0.26221 0.08345 0.1256 0.0
C1935 C 0.27891 0.14865 0.14452 0.0
N1936 N 0.21543 0.08143 1.08097 0.0
N1937 N 0.26 0.14543 0.12332 0.0
H1938 H 0.63893 0.48325 0.28369 0.0
H1939 H 0.66997 0.48863 0.42838 0.0
H1940 H 0.69316 0.39947 0.32074 0.0
H1941 H 0.6451 0.58024 0.38635 0.0
H1942 H 0.67381 0.45394 0.39089 0.0
H1943 H 0.63663 0.51638 0.3214 0.0
C1944 C 0.65022 0.47137 0.29971 0.0
C1945 C 0.66617 0.43775 0.29834 0.0
C1946 C 0.66798 0.48173 0.3897 0.0
C1947 C 0.66325 0.47684 0.34302 0.0
C1948 C 0.66589 0.50179 0.41128 0.0
C1949 C 0.65903 0.53833 0.41086 0.0
C1950 C 0.6619 0.49759 0.36698 0.0
C1951 C 0.65242 0.55286 0.38782 0.0
C1952 C 0.64898 0.49073 0.32149 0.0
C1953 C 0.68049 0.42494 0.32034 0.0
N1954 N 0.65394 0.53277 0.36717 0.0
N1955 N 0.67846 0.44413 0.34147 0.0
H1956 H 0.1973 0.88832 0.63532 0.0
H1957 H 0.37765 0.93965 0.56582 0.0
H1958 H 0.29194 0.91265 0.67445 0.0
H1959 H 0.29408 0.88126 0.53259 0.0
H1960 H 0.34598 0.93628 0.60466 0.0
H1961 H 0.23038 0.89179 0.59734 0.0
C1962 C 0.22484 0.89525 0.63605 0.0
C1963 C 0.24107 0.90142 0.6586 0.0
C1964 C 0.33455 0.92404 0.58888 0.0
C1965 C 0.28027 0.90486 0.61415 0.0
C1966 C 0.35275 0.92601 0.56648 0.0
C1967 C 0.33923 0.91025 0.54529 0.0
C1968 C 0.30163 0.90699 0.59052 0.0
C1969 C 0.30641 0.89324 0.548 0.0
C1970 C 0.24402 0.89676 0.61416 0.0
C1971 C 0.27766 0.90836 0.6578 0.0
N1972 N 0.28898 0.89235 0.5697 0.0
N1973 N 0.29562 0.91028 0.63626 0.0
H1974 H 0.85217 0.6318 0.82432 0.0
H1975 H 0.87159 0.44107 0.88984 0.0
H1976 H 0.87574 0.53601 0.78658 0.0
H1977 H 0.88147 0.53689 0.93 0.0
H1978 H 0.86674 0.47567 0.85235 0.0
H1979 H 0.85634 0.59889 0.86293 0.0
C1980 C 0.85823 0.60402 0.82393 0.0
C1981 C 0.86406 0.5873 0.80153 0.0
C1982 C 0.86972 0.48937 0.86931 0.0
C1983 C 0.86835 0.54863 0.84646 0.0
C1984 C 0.87213 0.4694 0.89092 0.0
C1985 C 0.87619 0.48558 0.91359 0.0
C1986 C 0.87093 0.52648 0.86981 0.0
C1987 C 0.87811 0.52278 0.91323 0.0
C1988 C 0.86073 0.5851 0.84617 0.0
C1989 C 0.87166 0.55083 0.80292 0.0
N1990 N 0.87514 0.54169 0.89203 0.0
N1991 N 0.87333 0.53314 0.82452 0.0
H1992 H 0.84758 0.86249 0.1773 0.0
H1993 H 0.73333 0.96336 1.07363 0.0
H1994 H 0.84135 0.97512 0.17346 0.0
H1995 H 0.76311 0.85468 1.06849 0.0
H1996 H 0.76796 0.96785 1.11117 0.0
H1997 H 0.81301 0.85876 0.13975 0.0
C1998 C 0.83892 0.88658 0.1688 0.0
C1999 C 0.84791 0.9192 0.17928 0.0
C2000 C 0.76711 0.94295 1.10182 0.0
C2001 C 0.8072 0.91505 0.13501 0.0
C2002 C 0.74708 0.94028 1.0801 0.0
C2003 C 0.74498 0.90854 1.06688 0.0
C2004 C 0.78532 0.91353 0.11133 0.0
C2005 C 0.76376 0.87991 1.07717 0.0
C2006 C 0.81912 0.8844 0.147 0.0
C2007 C 0.83574 0.94922 0.16647 0.0
N2008 N 0.78258 0.88302 1.0984 0.0
N2009 N 0.81618 0.94642 0.14548 0.0
H2010 H 0.34459 0.63565 0.9027 0.0
H2011 H 0.38736 0.44941 0.83671 0.0
H2012 H 0.38926 0.54547 0.93868 0.0
H2013 H 0.37253 0.54392 0.79538 0.0
H2014 H 0.38212 0.48376 0.87399 0.0
H2015 H 0.34878 0.6034 0.86391 0.0
C2016 C 0.35523 0.60926 0.9027 0.0
C2017 C 0.36668 0.59396 0.9247 0.0
C2018 C 0.37968 0.49722 0.85685 0.0
C2019 C 0.37112 0.55592 0.87951 0.0
C2020 C 0.38222 0.47727 0.83532 0.0
C2021 C 0.37936 0.49302 0.81234 0.0
C2022 C 0.37393 0.53392 0.85609 0.0
C2023 C 0.3745 0.53001 0.81237 0.0
C2024 C 0.3577 0.5907 0.88032 0.0
C2025 C 0.38016 0.55923 0.92273 0.0
N2026 N 0.37163 0.54884 0.83358 0.0
N2027 N 0.38171 0.54182 0.90106 0.0
H2028 H 0.68249 0.05544 0.66681 0.0
H2029 H 0.78903 0.1787 0.57168 0.0
H2030 H 0.70028 0.16567 0.67767 0.0
H2031 H 0.78455 0.0664 0.56473 0.0
H2032 H 0.75405 0.17464 0.60867 0.0
H2033 H 0.71578 0.05894 0.62875 0.0
C2034 C 0.69307 0.08056 0.66133 0.0
C2035 C 0.68811 0.11028 0.67627 0.0
C2036 C 0.76037 0.15076 0.59906 0.0
C2037 C 0.72739 0.11453 0.63158 0.0
C2038 C 0.78035 0.15311 0.5775 0.0
C2039 C 0.78999 0.12302 0.56412 0.0
C2040 C 0.74899 0.11792 0.60799 0.0
C2041 C 0.77808 0.09063 0.57381 0.0
C2042 C 0.71248 0.08248 0.63941 0.0
C2043 C 0.70331 0.14177 0.66752 0.0
N2044 N 0.75848 0.08905 0.59471 0.0
N2045 N 0.7218 0.143 0.64619 0.0
H2046 H 0.22653 0.42465 0.41394 0.0
H2047 H 0.1065 0.54124 0.32138 0.0
H2048 H 0.11675 0.44536 0.42547 0.0
H2049 H 0.2187 0.5331 0.31467 0.0
H2050 H 0.10937 0.50442 0.35774 0.0
H2051 H 0.22389 0.46074 0.37696 0.0
C2052 C 0.20166 0.43642 0.40878 0.0
C2053 C 0.17182 0.43134 0.42355 0.0
C2054 C 0.13348 0.51035 0.34833 0.0
C2055 C 0.16861 0.47399 0.3801 0.0
C2056 C 0.13182 0.53141 0.32712 0.0
C2057 C 0.1622 0.5404 0.31387 0.0
C2058 C 0.16594 0.49725 0.35708 0.0
C2059 C 0.19423 0.52712 0.32355 0.0
C2060 C 0.20025 0.45747 0.38749 0.0
C2061 C 0.14071 0.44827 0.41531 0.0
N2062 N 0.19516 0.50644 0.3441 0.0
N2063 N 0.13996 0.46835 0.39453 0.0
H2064 H 0.6588 0.58712 0.56835 0.0
H2065 H 0.83804 0.63602 0.64038 0.0
H2066 H 0.74517 0.64118 0.53531 0.0
H2067 H 0.74125 0.61716 0.67783 0.0
H2068 H 0.80612 0.63228 0.60173 0.0
H2069 H 0.68923 0.59179 0.60774 0.0
C2070 C 0.68407 0.60004 0.56918 0.0
C2071 C 0.69883 0.61413 0.54791 0.0
C2072 C 0.7917 0.62875 0.61833 0.0
C2073 C 0.73482 0.61899 0.59373 0.0
C2074 C 0.81012 0.6306 0.64058 0.0
C2075 C 0.79289 0.62598 0.6628 0.0
C2076 C 0.75526 0.62183 0.61771 0.0
C2077 C 0.75616 0.62033 0.66142 0.0
C2078 C 0.70153 0.60278 0.59188 0.0
C2079 C 0.73201 0.63038 0.5508 0.0
N2080 N 0.7389 0.61799 0.63954 0.0
N2081 N 0.74868 0.63205 0.57284 0.0
H2082 H 0.11035 0.93754 0.79621 0.0
H2083 H 0.20924 0.04951 0.90113 0.0
H2084 H 0.22291 0.94122 0.80249 0.0
H2085 H 0.09935 0.02395 0.90419 0.0
H2086 H 0.21436 1.01462 0.86409 0.0
H2087 H 0.10551 0.97253 0.83333 0.0
C2088 C 0.1342 0.94574 0.80516 0.0
C2089 C 0.16712 0.93595 0.79545 0.0
C2090 C 0.18904 0.0165 0.87279 0.0
C2091 C 0.1617 0.97706 0.83931 0.0
C2092 C 0.18598 0.03678 0.89426 0.0
C2093 C 0.15374 0.04019 0.90673 0.0
C2094 C 0.15955 0.99926 0.86276 0.0
C2095 C 0.12496 0.02238 0.89595 0.0
C2096 C 0.13138 0.96576 0.82673 0.0
C2097 C 0.19679 0.94744 0.80887 0.0
N2098 N 0.1285 1.00325 0.87495 0.0
N2099 N 0.19339 0.9672 0.82963 0.0
H2100 H 0.84344 0.46836 1.06018 0.0
H2101 H 0.74071 0.34312 0.15588 0.0
H2102 H 0.82977 0.35744 1.04947 0.0
H2103 H 0.74479 0.45552 0.1624 0.0
H2104 H 0.77518 0.34721 0.11854 0.0
H2105 H 0.81046 0.46379 1.09821 0.0
C2106 C 0.83375 0.4429 1.0657 0.0
C2107 C 0.83974 0.41331 1.05089 0.0
C2108 C 0.7688 0.37107 0.12816 0.0
C2109 C 0.80098 0.40777 1.09549 0.0
C2110 C 0.74913 0.3687 0.14986 0.0
C2111 C 0.73962 0.39888 0.16316 0.0
C2112 C 0.77979 0.40399 0.11911 0.0
C2113 C 0.7512 0.43125 0.15335 0.0
C2114 C 0.81457 0.44033 1.0876 0.0
C2115 C 0.82581 0.38125 1.05963 0.0
N2116 N 0.77039 0.43285 0.13235 0.0
N2117 N 0.80745 0.3794 1.08098 0.0
H2118 H 0.36651 0.03201 0.4247 0.0
H2119 H 0.38654 0.03666 0.27979 0.0
H2120 H 0.3738 0.93836 0.382 0.0
H2121 H 0.33664 0.12221 0.31713 0.0
H2122 H 0.38853 1.00316 0.31749 0.0
H2123 H 0.36187 0.06711 0.38732 0.0
C2124 C 0.36686 0.01853 0.40754 0.0
C2125 C 0.36965 0.98143 0.40705 0.0
C2126 C 0.37716 0.02925 0.31763 0.0
C2127 C 0.36548 0.02257 0.36318 0.0
C2128 C 0.37611 0.04883 0.29587 0.0
C2129 C 0.36141 0.08304 0.29458 0.0
C2130 C 0.36412 0.04355 0.33924 0.0
C2131 C 0.34825 0.09625 0.31667 0.0
C2132 C 0.36419 0.03884 0.38601 0.0
C2133 C 0.37053 0.96635 0.38379 0.0
N2134 N 0.35021 0.07686 0.3378 0.0
N2135 N 0.36882 0.98667 0.36318 0.0
H2136 H 0.29332 0.40377 0.6897 0.0
H2137 H 0.30103 0.39585 0.54358 0.0
H2138 H 0.38905 0.42609 0.65174 0.0
H2139 H 0.20478 0.39852 0.58387 0.0
H2140 H 0.3344 0.40251 0.58166 0.0
H2141 H 0.26247 0.39769 0.65124 0.0
C2142 C 0.30829 0.40705 0.67335 0.0
C2143 C 0.34458 0.41509 0.67474 0.0
C2144 C 0.30598 0.4018 0.58226 0.0
C2145 C 0.30799 0.40817 0.62905 0.0
C2146 C 0.28668 0.39785 0.56033 0.0
C2147 C 0.24946 0.39711 0.5599 0.0
C2148 C 0.28843 0.4044 0.6046 0.0
C2149 C 0.23313 0.39962 0.58271 0.0
C2150 C 0.29024 0.4038 0.65108 0.0
C2151 C 0.36135 0.41983 0.65218 0.0
N2152 N 0.25242 0.40297 0.6037 0.0
N2153 N 0.3432 0.41608 0.6306 0.0
H2154 H 0.84096 0.12849 0.40787 0.0
H2155 H 0.89229 0.94724 0.33838 0.0
H2156 H 0.8941 0.04159 0.44216 0.0
H2157 H 0.86672 0.04165 0.29938 0.0
H2158 H 0.88775 0.98004 0.37646 0.0
H2159 H 0.84497 0.09707 0.3689 0.0
C2160 C 0.85349 0.10295 0.40744 0.0
C2161 C 0.86728 0.08832 0.42903 0.0
C2162 C 0.88279 0.99373 0.35966 0.0
C2163 C 0.87153 0.05113 0.38352 0.0
C2164 C 0.88498 0.97469 0.33769 0.0
C2165 C 0.87912 0.99096 0.31511 0.0
C2166 C 0.87418 0.0299 0.35975 0.0
C2167 C 0.87123 0.02739 0.31601 0.0
C2168 C 0.85582 0.08485 0.38494 0.0
C2169 C 0.88309 0.05469 0.42651 0.0
N2170 N 0.86872 0.04524 0.33762 0.0
N2171 N 0.88449 0.03759 0.40467 0.0
H2172 H 0.18644 0.55677 0.16596 0.0
H2173 H 0.29506 0.67739 1.07088 0.0
H2174 H 0.21698 0.66343 0.1802 0.0
H2175 H 0.29383 0.56493 1.06482 0.0
H2176 H 0.2615 0.67304 1.10833 0.0
H2177 H 0.21944 0.55924 0.12759 0.0
C2178 C 0.19959 0.58091 0.1611 0.0
C2179 C 0.19816 0.60998 0.17698 0.0
C2180 C 0.26826 0.64915 1.09887 0.0
C2181 C 0.23681 0.61307 0.13197 0.0
C2182 C 0.28742 0.65167 1.07702 0.0
C2183 C 0.29751 0.62169 1.0637 0.0
C2184 C 0.2579 0.61622 1.10814 0.0
C2185 C 0.28703 0.58911 1.07387 0.0
C2186 C 0.21884 0.58221 0.13903 0.0
C2187 C 0.21673 0.64014 0.16909 0.0
N2188 N 0.26789 0.58734 1.09502 0.0
N2189 N 0.23464 0.64088 0.14754 0.0
H2190 H 0.64644 0.98498 0.94154 0.0
H2191 H 0.66968 0.98653 0.79655 0.0
H2192 H 0.69867 0.8996 0.90547 0.0
H2193 H 0.65181 0.07987 0.83816 0.0
H2194 H 0.67514 0.95247 0.83437 0.0
H2195 H 0.6431 0.01698 0.90338 0.0
C2196 C 0.65713 0.9725 0.92565 0.0
C2197 C 0.67288 0.93879 0.92747 0.0
C2198 C 0.67037 0.98046 0.83534 0.0
C2199 C 0.66865 0.97667 0.88219 0.0
C2200 C 0.66722 1.00017 0.81357 0.0
C2201 C 0.66135 0.03692 0.81365 0.0
C2202 C 0.66657 0.99695 0.85798 0.0
C2203 C 0.65773 0.05221 0.83672 0.0
C2204 C 0.65527 0.99124 0.90359 0.0
C2205 C 0.68625 0.92519 0.90555 0.0
N2206 N 0.66013 0.03243 0.85754 0.0
N2207 N 0.6836 0.94383 0.88412 0.0
loop_
_geom_bond_atom_site_label_1
_geom_bond_atom_site_label_2
_geom_bond_distance
_geom_bond_site_symmetry_2
_ccdc_geom_bond_type
Eu0 N29 2.600 . S
Eu0 N35 2.562 . S
Eu0 O44 2.462 . S
Eu0 O45 2.373 . S
Eu0 O47 2.432 . S
Eu0 O48 2.291 . S
Eu0 O52 2.335 . S
Eu0 O55 2.372 . S
Eu0 C64 2.787 . S
C1 N2 1.365 . S
C1 C4 1.405 . S
C1 C8 1.448 . S
N2 C1 1.365 . S
N2 C5 1.319 . S
N2 Eu11 2.600 . S
C3 C5 1.397 . S
C3 C6 1.367 . S
C3 H23 0.931 . S
C4 C1 1.405 . S
C4 C6 1.403 . S
C4 C10 1.439 . S
C5 N2 1.319 . S
C5 C3 1.397 . S
C5 H16 0.930 . S
C6 C3 1.367 . S
C6 C4 1.403 . S
C6 H27 0.929 . S
C7 C8 1.430 . S
C7 C9 1.387 . S
C7 C13 1.404 . S
C8 C1 1.448 . S
C8 C7 1.430 . S
C8 N12 1.351 . S
C9 C7 1.387 . S
C9 C10 1.374 . S
C9 H24 0.931 . S
C10 C4 1.439 . S
C10 C9 1.374 . S
C10 H25 0.931 . S
Eu11 N2 2.600 . S
Eu11 N12 2.562 . S
Eu11 O46 2.335 . S
Eu11 O49 2.372 . S
Eu11 O50 2.462 . S
Eu11 O51 2.373 . S
Eu11 O53 2.432 . S
Eu11 O54 2.291 . S
Eu11 C75 2.787 . S
N12 C8 1.351 . S
N12 Eu11 2.562 . S
N12 C14 1.325 . S
C13 C7 1.404 . S
C13 C15 1.366 . S
C13 H21 0.930 . S
C14 N12 1.325 . S
C14 C15 1.416 . S
C14 H20 0.929 . S
C15 C13 1.366 . S
C15 C14 1.416 . S
C15 H17 0.930 . S
H16 C5 0.930 . S
H17 C15 0.930 . S
H18 C33 0.930 . S
H19 C40 0.930 . S
H20 C14 0.929 . S
H21 C13 0.930 . S
H22 C36 0.929 . S
H23 C3 0.931 . S
H24 C9 0.931 . S
H25 C10 0.931 . S
H26 C31 0.931 1_565 S
H27 C6 0.929 . S
H28 C39 0.930 . S
N29 Eu0 2.600 . S
N29 C30 1.365 . S
N29 C33 1.319 . S
C30 N29 1.365 . S
C30 C32 1.405 . S
C30 C38 1.448 . S
C31 H26 0.931 1_545 S
C31 C33 1.397 . S
C31 C34 1.367 1_545 S
C32 C30 1.405 . S
C32 C34 1.403 1_545 S
C32 C65 1.439 . S
C33 H18 0.930 . S
C33 N29 1.319 . S
C33 C31 1.397 . S
C34 C31 1.367 1_565 S
C34 C32 1.403 1_565 S
C34 H41 0.929 . S
N35 Eu0 2.562 . S
N35 C36 1.325 . S
N35 C38 1.351 . S
C36 H22 0.929 . S
C36 N35 1.325 . S
C36 C40 1.416 . S
C37 C38 1.430 . S
C37 C39 1.404 . S
C37 C66 1.387 . S
C38 C30 1.448 . S
C38 N35 1.351 . S
C38 C37 1.430 . S
C39 H28 0.930 . S
C39 C37 1.404 . S
C39 C40 1.366 . S
C40 H19 0.930 . S
C40 C36 1.416 . S
C40 C39 1.366 . S
H41 C34 0.929 . S
H42 C65 0.931 1_565 S
H43 C66 0.931 . S
O44 Eu0 2.462 . S
O44 C64 1.252 . S
O45 Eu0 2.373 . S
O45 C56 1.249 . S
O46 Eu11 2.335 . S
O46 C56 1.264 . S
O47 Eu0 2.432 . S
O47 C64 1.268 . S
O48 Eu0 2.291 . S
O48 C63 1.255 . S
O49 Eu11 2.372 . S
O49 C63 1.257 . S
O50 Eu11 2.462 . S
O50 C75 1.252 . S
O51 Eu11 2.373 . S
O51 C67 1.249 . S
O52 Eu0 2.335 . S
O52 C67 1.264 . S
O53 Eu11 2.432 . S
O53 C75 1.268 . S
O54 Eu11 2.291 . S
O54 C74 1.255 . S
O55 Eu0 2.372 . S
O55 C74 1.257 . S
C56 O45 1.249 . S
C56 O46 1.264 . S
C57 C60 1.382 . S
C57 C62 1.390 . S
C57 C64 1.506 . S
C58 C59 1.398 1_545 S
C58 C62 1.392 . S
C59 C58 1.398 1_565 S
C59 C61 1.372 . S
C59 H76 0.896 1_554 S
C60 C57 1.382 . S
C60 C61 1.390 1_545 S
C60 H77 0.931 1_545 S
C61 C59 1.372 . S
C61 C60 1.390 1_565 S
C61 H78 0.929 . S
C62 C57 1.390 . S
C62 C58 1.392 . S
C62 H79 0.930 . S
C63 O48 1.255 . S
C63 O49 1.257 . S
C64 Eu0 2.787 . S
C64 O44 1.252 . S
C64 O47 1.268 . S
C64 C57 1.506 . S
C65 C32 1.439 . S
C65 H42 0.931 1_545 S
C65 C66 1.374 . S
C66 C37 1.387 . S
C66 H43 0.931 . S
C66 C65 1.374 . S
C67 O51 1.249 . S
C67 O52 1.264 . S
C68 C71 1.382 . S
C68 C72 1.390 . S
C68 C75 1.506 . S
C69 C70 1.398 . S
C69 C72 1.392 . S
C70 C69 1.398 . S
C70 C73 1.372 . S
C70 H80 0.931 . S
C71 C68 1.382 . S
C71 C73 1.390 . S
C71 H81 0.931 . S
C72 C68 1.390 . S
C72 C69 1.392 . S
C72 H82 0.930 . S
C73 C70 1.372 . S
C73 C71 1.390 . S
C73 H83 0.929 . S
C74 O54 1.255 . S
C74 O55 1.257 . S
C75 Eu11 2.787 . S
C75 O50 1.252 . S
C75 O53 1.268 . S
C75 C68 1.506 . S
H76 C59 0.896 1_556 S
H77 C60 0.931 1_565 S
H78 C61 0.929 . S
H79 C62 0.930 . S
H80 C70 0.931 . S
H81 C71 0.931 . S
H82 C72 0.930 . S
H83 C73 0.929 . S
Eu84 N113 2.600 . S
Eu84 N119 2.562 . S
Eu84 O128 2.462 . S
Eu84 O129 2.373 . S
Eu84 O131 2.432 . S
Eu84 O132 2.291 . S
Eu84 O136 2.335 . S
Eu84 O139 2.372 . S
Eu84 C148 2.787 . S
C85 N86 1.365 . S
C85 C88 1.405 . S
C85 C92 1.448 . S
N86 C85 1.365 . S
N86 C89 1.319 . S
N86 Eu95 2.600 . S
C87 C89 1.397 . S
C87 C90 1.367 . S
C87 H107 0.931 . S
C88 C85 1.405 . S
C88 C90 1.403 . S
C88 C94 1.439 . S
C89 N86 1.319 . S
C89 C87 1.397 . S
C89 H100 0.930 . S
C90 C87 1.367 . S
C90 C88 1.403 . S
C90 H111 0.929 . S
C91 C92 1.430 . S
C91 C93 1.387 . S
C91 C97 1.404 . S
C92 C85 1.448 . S
C92 C91 1.430 . S
C92 N96 1.351 . S
C93 C91 1.387 . S
C93 C94 1.374 . S
C93 H108 0.931 . S
C94 C88 1.439 . S
C94 C93 1.374 . S
C94 H109 0.931 . S
Eu95 N86 2.600 . S
Eu95 N96 2.562 . S
Eu95 O130 2.335 . S
Eu95 O133 2.372 . S
Eu95 O134 2.462 . S
Eu95 O135 2.373 . S
Eu95 O137 2.432 . S
Eu95 O138 2.291 . S
Eu95 C159 2.787 . S
N96 C92 1.351 . S
N96 Eu95 2.562 . S
N96 C98 1.325 . S
C97 C91 1.404 . S
C97 C99 1.366 . S
C97 H105 0.930 . S
C98 N96 1.325 . S
C98 C99 1.416 . S
C98 H104 0.929 . S
C99 C97 1.366 . S
C99 C98 1.416 . S
C99 H101 0.930 . S
H100 C89 0.930 . S
H101 C99 0.930 . S
H102 C117 0.930 . S
H103 C124 0.930 . S
H104 C98 0.929 . S
H105 C97 0.930 . S
H106 C120 0.929 . S
H107 C87 0.931 . S
H108 C93 0.931 . S
H109 C94 0.931 . S
H110 C115 0.931 . S
H111 C90 0.929 . S
H112 C123 0.930 . S
N113 Eu84 2.600 . S
N113 C114 1.365 . S
N113 C117 1.319 . S
C114 N113 1.365 . S
C114 C116 1.405 . S
C114 C122 1.448 . S
C115 H110 0.931 . S
C115 C117 1.397 . S
C115 C118 1.367 . S
C116 C114 1.405 . S
C116 C118 1.403 . S
C116 C149 1.439 . S
C117 H102 0.930 . S
C117 N113 1.319 . S
C117 C115 1.397 . S
C118 C115 1.367 . S
C118 C116 1.403 . S
C118 H125 0.929 . S
N119 Eu84 2.562 . S
N119 C120 1.325 . S
N119 C122 1.351 . S
C120 H106 0.929 . S
C120 N119 1.325 . S
C120 C124 1.416 . S
C121 C122 1.430 . S
C121 C123 1.404 . S
C121 C150 1.387 . S
C122 C114 1.448 . S
C122 N119 1.351 . S
C122 C121 1.430 . S
C123 H112 0.930 . S
C123 C121 1.404 . S
C123 C124 1.366 . S
C124 H103 0.930 . S
C124 C120 1.416 . S
C124 C123 1.366 . S
H125 C118 0.929 . S
H126 C149 0.931 . S
H127 C150 0.931 . S
O128 Eu84 2.462 . S
O128 C148 1.252 . S
O129 Eu84 2.373 . S
O129 C140 1.249 . S
O130 Eu95 2.335 . S
O130 C140 1.264 . S
O131 Eu84 2.432 . S
O131 C148 1.268 . S
O132 Eu84 2.291 . S
O132 C147 1.255 . S
O133 Eu95 2.372 . S
O133 C147 1.257 . S
O134 Eu95 2.462 . S
O134 C159 1.252 . S
O135 Eu95 2.373 . S
O135 C151 1.249 . S
O136 Eu84 2.335 . S
O136 C151 1.264 . S
O137 Eu95 2.432 . S
O137 C159 1.268 . S
O138 Eu95 2.291 . S
O138 C158 1.255 . S
O139 Eu84 2.372 . S
O139 C158 1.257 . S
C140 O129 1.249 . S
C140 O130 1.264 . S
C141 C144 1.382 . S
C141 C146 1.390 . S
C141 C148 1.506 . S
C142 C143 1.398 . S
C142 C146 1.392 . S
C143 C142 1.398 . S
C143 C145 1.372 . S
C143 H160 0.931 . S
C144 C141 1.382 . S
C144 C145 1.390 . S
C144 H161 0.931 . S
C145 C143 1.372 . S
C145 C144 1.390 . S
C145 H162 0.929 . S
C146 C141 1.390 . S
C146 C142 1.392 . S
C146 H163 0.930 . S
C147 O132 1.255 . S
C147 O133 1.257 . S
C148 Eu84 2.787 . S
C148 O128 1.252 . S
C148 O131 1.268 . S
C148 C141 1.506 . S
C149 C116 1.439 . S
C149 H126 0.931 . S
C149 C150 1.374 . S
C150 C121 1.387 . S
C150 H127 0.931 . S
C150 C149 1.374 . S
C151 O135 1.249 . S
C151 O136 1.264 . S
C152 C155 1.382 . S
C152 C156 1.390 . S
C152 C159 1.506 . S
C153 C154 1.398 . S
C153 C156 1.392 . S
C154 C153 1.398 . S
C154 C157 1.372 . S
C154 H164 0.931 . S
C155 C152 1.382 . S
C155 C157 1.390 . S
C155 H165 0.931 . S
C156 C152 1.390 . S
C156 C153 1.392 . S
C156 H166 0.930 . S
C157 C154 1.372 . S
C157 C155 1.390 . S
C157 H167 0.929 . S
C158 O138 1.255 . S
C158 O139 1.257 . S
C159 Eu95 2.787 . S
C159 O134 1.252 . S
C159 O137 1.268 . S
C159 C152 1.506 . S
H160 C143 0.931 . S
H161 C144 0.931 . S
H162 C145 0.929 . S
H163 C146 0.930 . S
H164 C154 0.931 . S
H165 C155 0.931 . S
H166 C156 0.930 . S
H167 C157 0.929 . S
Eu168 N197 2.600 . S
Eu168 N203 2.562 . S
Eu168 O212 2.462 . S
Eu168 O213 2.373 . S
Eu168 O215 2.432 . S
Eu168 O216 2.291 . S
Eu168 O220 2.335 . S
Eu168 O223 2.372 . S
Eu168 C232 2.787 . S
C169 N170 1.365 . S
C169 C172 1.405 . S
C169 C176 1.448 . S
N170 C169 1.365 . S
N170 C173 1.319 . S
N170 Eu179 2.600 . S
C171 C173 1.397 . S
C171 C174 1.367 . S
C171 H191 0.931 . S
C172 C169 1.405 . S
C172 C174 1.403 . S
C172 C178 1.439 . S
C173 N170 1.319 . S
C173 C171 1.397 . S
C173 H184 0.930 . S
C174 C171 1.367 . S
C174 C172 1.403 . S
C174 H195 0.929 . S
C175 C176 1.430 . S
C175 C177 1.387 . S
C175 C181 1.404 . S
C176 C169 1.448 . S
C176 C175 1.430 . S
C176 N180 1.351 . S
C177 C175 1.387 . S
C177 C178 1.374 . S
C177 H192 0.931 . S
C178 C172 1.439 . S
C178 C177 1.374 . S
C178 H193 0.931 . S
Eu179 N170 2.600 . S
Eu179 N180 2.562 . S
Eu179 O214 2.335 . S
Eu179 O217 2.372 . S
Eu179 O218 2.462 . S
Eu179 O219 2.373 . S
Eu179 O221 2.432 . S
Eu179 O222 2.291 . S
Eu179 C243 2.787 . S
N180 C176 1.351 . S
N180 Eu179 2.562 . S
N180 C182 1.325 . S
C181 C175 1.404 . S
C181 C183 1.366 . S
C181 H189 0.930 . S
C182 N180 1.325 . S
C182 C183 1.416 . S
C182 H188 0.929 . S
C183 C181 1.366 . S
C183 C182 1.416 . S
C183 H185 0.930 . S
H184 C173 0.930 . S
H185 C183 0.930 . S
H186 C201 0.930 . S
H187 C208 0.930 . S
H188 C182 0.929 . S
H189 C181 0.930 . S
H190 C204 0.929 . S
H191 C171 0.931 . S
H192 C177 0.931 . S
H193 C178 0.931 . S
H194 C199 0.931 1_545 S
H195 C174 0.929 . S
H196 C207 0.930 . S
N197 Eu168 2.600 . S
N197 C198 1.365 . S
N197 C201 1.319 . S
C198 N197 1.365 . S
C198 C200 1.405 . S
C198 C206 1.448 . S
C199 H194 0.931 1_565 S
C199 C201 1.397 . S
C199 C202 1.367 1_565 S
C200 C198 1.405 . S
C200 C202 1.403 1_565 S
C200 C233 1.439 . S
C201 H186 0.930 . S
C201 N197 1.319 . S
C201 C199 1.397 . S
C202 C199 1.367 1_545 S
C202 C200 1.403 1_545 S
C202 H209 0.929 . S
N203 Eu168 2.562 . S
N203 C204 1.325 . S
N203 C206 1.351 . S
C204 H190 0.929 . S
C204 N203 1.325 . S
C204 C208 1.416 . S
C205 C206 1.430 . S
C205 C207 1.404 . S
C205 C234 1.387 . S
C206 C198 1.448 . S
C206 N203 1.351 . S
C206 C205 1.430 . S
C207 H196 0.930 . S
C207 C205 1.404 . S
C207 C208 1.366 . S
C208 H187 0.930 . S
C208 C204 1.416 . S
C208 C207 1.366 . S
H209 C202 0.929 . S
H210 C233 0.931 1_545 S
H211 C234 0.931 . S
O212 Eu168 2.462 . S
O212 C232 1.252 . S
O213 Eu168 2.373 . S
O213 C224 1.249 . S
O214 Eu179 2.335 . S
O214 C224 1.264 . S
O215 Eu168 2.432 . S
O215 C232 1.268 . S
O216 Eu168 2.291 . S
O216 C231 1.255 . S
O217 Eu179 2.372 . S
O217 C231 1.257 . S
O218 Eu179 2.462 . S
O218 C243 1.252 . S
O219 Eu179 2.373 . S
O219 C235 1.249 . S
O220 Eu168 2.335 . S
O220 C235 1.264 . S
O221 Eu179 2.432 . S
O221 C243 1.268 . S
O222 Eu179 2.291 . S
O222 C242 1.255 . S
O223 Eu168 2.372 . S
O223 C242 1.257 . S
C224 O213 1.249 . S
C224 O214 1.264 . S
C225 C228 1.382 . S
C225 C230 1.390 . S
C225 C232 1.506 . S
C226 C227 1.398 1_565 S
C226 C230 1.392 . S
C227 C226 1.398 1_545 S
C227 C229 1.372 . S
C227 H244 0.931 . S
C228 C225 1.382 . S
C228 C229 1.390 1_565 S
C228 H245 0.931 1_565 S
C229 C227 1.372 . S
C229 C228 1.390 1_545 S
C229 H246 0.929 . S
C230 C225 1.390 . S
C230 C226 1.392 . S
C230 H247 0.930 . S
C231 O216 1.255 . S
C231 O217 1.257 . S
C232 Eu168 2.787 . S
C232 O212 1.252 . S
C232 O215 1.268 . S
C232 C225 1.506 . S
C233 C200 1.439 . S
C233 H210 0.931 1_565 S
C233 C234 1.374 . S
C234 C205 1.387 . S
C234 H211 0.931 . S
C234 C233 1.374 . S
C235 O219 1.249 . S
C235 O220 1.264 . S
C236 C239 1.382 . S
C236 C240 1.390 . S
C236 C243 1.506 . S
C237 C238 1.398 . S
C237 C240 1.392 . S
C238 C237 1.398 . S
C238 C241 1.372 . S
C238 H248 0.931 . S
C239 C236 1.382 . S
C239 C241 1.390 . S
C239 H249 0.931 . S
C240 C236 1.390 . S
C240 C237 1.392 . S
C240 H250 0.930 . S
C241 C238 1.372 . S
C241 C239 1.390 . S
C241 H251 0.929 . S
C242 O222 1.255 . S
C242 O223 1.257 . S
C243 Eu179 2.787 . S
C243 O218 1.252 . S
C243 O221 1.268 . S
C243 C236 1.506 . S
H244 C227 0.931 . S
H245 C228 0.931 1_545 S
H246 C229 0.929 . S
H247 C230 0.930 . S
H248 C238 0.931 . S
H249 C239 0.931 . S
H250 C240 0.930 . S
H251 C241 0.929 . S
Eu252 N281 2.600 . S
Eu252 N287 2.562 . S
Eu252 O296 2.462 . S
Eu252 O297 2.373 . S
Eu252 O299 2.432 . S
Eu252 O300 2.291 . S
Eu252 O304 2.335 . S
Eu252 O307 2.372 . S
Eu252 C316 2.787 . S
C253 N254 1.365 . S
C253 C256 1.405 . S
C253 C260 1.448 1_455 S
N254 C253 1.365 . S
N254 C257 1.319 . S
N254 Eu263 2.600 1_455 S
C255 C257 1.397 . S
C255 C258 1.367 . S
C255 H275 0.931 . S
C256 C253 1.405 . S
C256 C258 1.403 . S
C256 C262 1.439 . S
C257 N254 1.319 . S
C257 C255 1.397 . S
C257 H268 0.930 . S
C258 C255 1.367 . S
C258 C256 1.403 . S
C258 H279 0.929 . S
C259 C260 1.430 1_455 S
C259 C261 1.387 . S
C259 C265 1.404 1_455 S
C260 C253 1.448 1_655 S
C260 C259 1.430 1_655 S
C260 N264 1.351 . S
C261 C259 1.387 . S
C261 C262 1.374 . S
C261 H276 0.931 . S
C262 C256 1.439 . S
C262 C261 1.374 . S
C262 H277 0.931 . S
Eu263 N254 2.600 1_655 S
Eu263 N264 2.562 . S
Eu263 O298 2.335 . S
Eu263 O301 2.372 . S
Eu263 O302 2.462 . S
Eu263 O303 2.373 . S
Eu263 O305 2.432 1_655 S
Eu263 O306 2.291 . S
Eu263 C327 2.787 . S
N264 C260 1.351 . S
N264 Eu263 2.562 . S
N264 C266 1.325 . S
C265 C259 1.404 1_655 S
C265 C267 1.366 . S
C265 H273 0.930 . S
C266 N264 1.325 . S
C266 C267 1.416 . S
C266 H272 0.929 . S
C267 C265 1.366 . S
C267 C266 1.416 . S
C267 H269 0.930 . S
H268 C257 0.930 . S
H269 C267 0.930 . S
H270 C285 0.930 . S
H271 C292 0.930 . S
H272 C266 0.929 . S
H273 C265 0.930 . S
H274 C288 0.929 . S
H275 C255 0.931 . S
H276 C261 0.931 . S
H277 C262 0.931 . S
H278 C283 0.931 . S
H279 C258 0.929 . S
H280 C291 0.930 . S
N281 Eu252 2.600 . S
N281 C282 1.365 . S
N281 C285 1.319 . S
C282 N281 1.365 . S
C282 C284 1.405 . S
C282 C290 1.448 . S
C283 H278 0.931 . S
C283 C285 1.397 . S
C283 C286 1.367 . S
C284 C282 1.405 . S
C284 C286 1.403 . S
C284 C317 1.439 . S
C285 H270 0.930 . S
C285 N281 1.319 . S
C285 C283 1.397 . S
C286 C283 1.367 . S
C286 C284 1.403 . S
C286 H293 0.929 . S
N287 Eu252 2.562 . S
N287 C288 1.325 . S
N287 C290 1.351 . S
C288 H274 0.929 . S
C288 N287 1.325 . S
C288 C292 1.416 . S
C289 C290 1.430 . S
C289 C291 1.404 . S
C289 C318 1.387 . S
C290 C282 1.448 . S
C290 N287 1.351 . S
C290 C289 1.430 . S
C291 H280 0.930 . S
C291 C289 1.404 . S
C291 C292 1.366 . S
C292 H271 0.930 . S
C292 C288 1.416 . S
C292 C291 1.366 . S
H293 C286 0.929 . S
H294 C317 0.931 . S
H295 C318 0.931 . S
O296 Eu252 2.462 . S
O296 C316 1.252 . S
O297 Eu252 2.373 . S
O297 C308 1.249 . S
O298 Eu263 2.335 . S
O298 C308 1.264 . S
O299 Eu252 2.432 . S
O299 C316 1.268 . S
O300 Eu252 2.291 . S
O300 C315 1.255 . S
O301 Eu263 2.372 . S
O301 C315 1.257 . S
O302 Eu263 2.462 . S
O302 C327 1.252 . S
O303 Eu263 2.373 . S
O303 C319 1.249 . S
O304 Eu252 2.335 . S
O304 C319 1.264 . S
O305 Eu263 2.432 1_455 S
O305 C327 1.268 1_455 S
O306 Eu263 2.291 . S
O306 C326 1.255 . S
O307 Eu252 2.372 . S
O307 C326 1.257 . S
C308 O297 1.249 . S
C308 O298 1.264 . S
C309 C312 1.382 . S
C309 C314 1.390 . S
C309 C316 1.506 . S
C310 C311 1.398 . S
C310 C314 1.392 . S
C311 C310 1.398 . S
C311 C313 1.372 . S
C311 H328 0.931 . S
C312 C309 1.382 . S
C312 C313 1.390 . S
C312 H329 0.931 . S
C313 C311 1.372 . S
C313 C312 1.390 . S
C313 H330 0.929 . S
C314 C309 1.390 . S
C314 C310 1.392 . S
C314 H331 0.930 . S
C315 O300 1.255 . S
C315 O301 1.257 . S
C316 Eu252 2.787 . S
C316 O296 1.252 . S
C316 O299 1.268 . S
C316 C309 1.506 . S
C317 C284 1.439 . S
C317 H294 0.931 . S
C317 C318 1.374 . S
C318 C289 1.387 . S
C318 H295 0.931 . S
C318 C317 1.374 . S
C319 O303 1.249 . S
C319 O304 1.264 . S
C320 C323 1.382 . S
C320 C324 1.390 . S
C320 C327 1.506 1_455 S
C321 C322 1.398 . S
C321 C324 1.392 . S
C322 C321 1.398 . S
C322 C325 1.372 . S
C322 H332 0.931 . S
C323 C320 1.382 . S
C323 C325 1.390 . S
C323 H333 0.931 . S
C324 C320 1.390 . S
C324 C321 1.392 . S
C324 H334 0.930 1_455 S
C325 C322 1.372 . S
C325 C323 1.390 . S
C325 H335 0.929 . S
C326 O306 1.255 . S
C326 O307 1.257 . S
C327 Eu263 2.787 . S
C327 O302 1.252 . S
C327 O305 1.268 1_655 S
C327 C320 1.506 1_655 S
H328 C311 0.931 . S
H329 C312 0.931 . S
H330 C313 0.929 . S
H331 C314 0.930 . S
H332 C322 0.931 . S
H333 C323 0.931 . S
H334 C324 0.930 1_655 S
H335 C325 0.929 . S
Eu336 N365 2.600 . S
Eu336 N371 2.562 . S
Eu336 O380 2.462 . S
Eu336 O381 2.373 . S
Eu336 O383 2.432 . S
Eu336 O384 2.291 . S
Eu336 O388 2.335 . S
Eu336 O391 2.372 . S
Eu336 C400 2.787 . S
C337 N338 1.365 . S
C337 C340 1.405 . S
C337 C344 1.448 . S
N338 C337 1.365 . S
N338 C341 1.319 . S
N338 Eu347 2.600 . S
C339 C341 1.397 . S
C339 C342 1.367 1_565 S
C339 H359 0.931 1_565 S
C340 C337 1.405 . S
C340 C342 1.403 1_565 S
C340 C346 1.439 . S
C341 N338 1.319 . S
C341 C339 1.397 . S
C341 H352 0.930 . S
C342 C339 1.367 1_545 S
C342 C340 1.403 1_545 S
C342 H363 0.929 . S
C343 C344 1.430 . S
C343 C345 1.387 . S
C343 C349 1.404 . S
C344 C337 1.448 . S
C344 C343 1.430 . S
C344 N348 1.351 . S
C345 C343 1.387 . S
C345 C346 1.374 . S
C345 H360 0.931 . S
C346 C340 1.439 . S
C346 C345 1.374 . S
C346 H361 0.931 1_565 S
Eu347 N338 2.600 . S
Eu347 N348 2.562 . S
Eu347 O382 2.335 . S
Eu347 O385 2.372 . S
Eu347 O386 2.462 . S
Eu347 O387 2.373 . S
Eu347 O389 2.432 . S
Eu347 O390 2.291 . S
Eu347 C411 2.787 . S
N348 C344 1.351 . S
N348 Eu347 2.562 . S
N348 C350 1.325 . S
C349 C343 1.404 . S
C349 C351 1.366 . S
C349 H357 0.930 . S
C350 N348 1.325 . S
C350 C351 1.416 . S
C350 H356 0.929 . S
C351 C349 1.366 . S
C351 C350 1.416 . S
C351 H353 0.930 . S
H352 C341 0.930 . S
H353 C351 0.930 . S
H354 C369 0.930 . S
H355 C376 0.930 . S
H356 C350 0.929 . S
H357 C349 0.930 . S
H358 C372 0.929 . S
H359 C339 0.931 1_545 S
H360 C345 0.931 . S
H361 C346 0.931 1_545 S
H362 C367 0.931 . S
H363 C342 0.929 . S
H364 C375 0.930 . S
N365 Eu336 2.600 . S
N365 C366 1.365 . S
N365 C369 1.319 . S
C366 N365 1.365 . S
C366 C368 1.405 . S
C366 C374 1.448 . S
C367 H362 0.931 . S
C367 C369 1.397 . S
C367 C370 1.367 . S
C368 C366 1.405 . S
C368 C370 1.403 . S
C368 C401 1.439 . S
C369 H354 0.930 . S
C369 N365 1.319 . S
C369 C367 1.397 . S
C370 C367 1.367 . S
C370 C368 1.403 . S
C370 H377 0.929 . S
N371 Eu336 2.562 . S
N371 C372 1.325 . S
N371 C374 1.351 . S
C372 H358 0.929 . S
C372 N371 1.325 . S
C372 C376 1.416 . S
C373 C374 1.430 . S
C373 C375 1.404 . S
C373 C402 1.387 . S
C374 C366 1.448 . S
C374 N371 1.351 . S
C374 C373 1.430 . S
C375 H364 0.930 . S
C375 C373 1.404 . S
C375 C376 1.366 . S
C376 H355 0.930 . S
C376 C372 1.416 . S
C376 C375 1.366 . S
H377 C370 0.929 . S
H378 C401 0.931 . S
H379 C402 0.931 . S
O380 Eu336 2.462 . S
O380 C400 1.252 . S
O381 Eu336 2.373 . S
O381 C392 1.249 . S
O382 Eu347 2.335 . S
O382 C392 1.264 . S
O383 Eu336 2.432 . S
O383 C400 1.268 . S
O384 Eu336 2.291 . S
O384 C399 1.255 . S
O385 Eu347 2.372 . S
O385 C399 1.257 . S
O386 Eu347 2.462 . S
O386 C411 1.252 . S
O387 Eu347 2.373 . S
O387 C403 1.249 . S
O388 Eu336 2.335 . S
O388 C403 1.264 . S
O389 Eu347 2.432 . S
O389 C411 1.268 . S
O390 Eu347 2.291 . S
O390 C410 1.255 . S
O391 Eu336 2.372 . S
O391 C410 1.257 . S
C392 O381 1.249 . S
C392 O382 1.264 . S
C393 C396 1.382 . S
C393 C398 1.390 . S
C393 C400 1.506 . S
C394 C395 1.398 . S
C394 C398 1.392 . S
C395 C394 1.398 . S
C395 C397 1.372 . S
C395 H412 0.931 . S
C396 C393 1.382 . S
C396 C397 1.390 . S
C396 H413 0.931 . S
C397 C395 1.372 . S
C397 C396 1.390 . S
C397 H414 0.929 . S
C398 C393 1.390 . S
C398 C394 1.392 . S
C398 H415 0.930 . S
C399 O384 1.255 . S
C399 O385 1.257 . S
C400 Eu336 2.787 . S
C400 O380 1.252 . S
C400 O383 1.268 . S
C400 C393 1.506 . S
C401 C368 1.439 . S
C401 H378 0.931 . S
C401 C402 1.374 . S
C402 C373 1.387 . S
C402 H379 0.931 . S
C402 C401 1.374 . S
C403 O387 1.249 . S
C403 O388 1.264 . S
C404 C407 1.382 . S
C404 C408 1.390 . S
C404 C411 1.506 . S
C405 C406 1.398 1_565 S
C405 C408 1.392 . S
C406 C405 1.398 1_545 S
C406 C409 1.372 . S
C406 H416 0.896 1_556 S
C407 C404 1.382 . S
C407 C409 1.390 1_565 S
C407 H417 0.931 1_565 S
C408 C404 1.390 . S
C408 C405 1.392 . S
C408 H418 0.930 . S
C409 C406 1.372 . S
C409 C407 1.390 1_545 S
C409 H419 0.929 . S
C410 O390 1.255 . S
C410 O391 1.257 . S
C411 Eu347 2.787 . S
C411 O386 1.252 . S
C411 O389 1.268 . S
C411 C404 1.506 . S
H412 C395 0.931 . S
H413 C396 0.931 . S
H414 C397 0.929 . S
H415 C398 0.930 . S
H416 C406 0.896 1_554 S
H417 C407 0.931 1_545 S
H418 C408 0.930 . S
H419 C409 0.929 . S
Eu420 N449 2.600 . S
Eu420 N455 2.562 . S
Eu420 O464 2.462 . S
Eu420 O465 2.373 . S
Eu420 O467 2.432 . S
Eu420 O468 2.291 . S
Eu420 O472 2.335 . S
Eu420 O475 2.372 . S
Eu420 C484 2.787 . S
C421 N422 1.365 . S
C421 C424 1.405 . S
C421 C428 1.448 . S
N422 C421 1.365 . S
N422 C425 1.319 . S
N422 Eu431 2.600 . S
C423 C425 1.397 . S
C423 C426 1.367 . S
C423 H443 0.931 . S
C424 C421 1.405 . S
C424 C426 1.403 . S
C424 C430 1.439 . S
C425 N422 1.319 . S
C425 C423 1.397 . S
C425 H436 0.930 . S
C426 C423 1.367 . S
C426 C424 1.403 . S
C426 H447 0.929 . S
C427 C428 1.430 . S
C427 C429 1.387 . S
C427 C433 1.404 . S
C428 C421 1.448 . S
C428 C427 1.430 . S
C428 N432 1.351 . S
C429 C427 1.387 . S
C429 C430 1.374 . S
C429 H444 0.931 . S
C430 C424 1.439 . S
C430 C429 1.374 . S
C430 H445 0.931 . S
Eu431 N422 2.600 . S
Eu431 N432 2.562 . S
Eu431 O466 2.335 . S
Eu431 O469 2.372 . S
Eu431 O470 2.462 . S
Eu431 O471 2.373 . S
Eu431 O473 2.432 . S
Eu431 O474 2.291 . S
Eu431 C495 2.787 . S
N432 C428 1.351 . S
N432 Eu431 2.562 . S
N432 C434 1.325 . S
C433 C427 1.404 . S
C433 C435 1.366 . S
C433 H441 0.930 . S
C434 N432 1.325 . S
C434 C435 1.416 . S
C434 H440 0.929 . S
C435 C433 1.366 . S
C435 C434 1.416 . S
C435 H437 0.930 . S
H436 C425 0.930 . S
H437 C435 0.930 . S
H438 C453 0.930 . S
H439 C460 0.930 . S
H440 C434 0.929 . S
H441 C433 0.930 . S
H442 C456 0.929 . S
H443 C423 0.931 . S
H444 C429 0.931 . S
H445 C430 0.931 . S
H446 C451 0.931 . S
H447 C426 0.929 . S
H448 C459 0.930 . S
N449 Eu420 2.600 . S
N449 C450 1.365 . S
N449 C453 1.319 . S
C450 N449 1.365 . S
C450 C452 1.405 . S
C450 C458 1.448 . S
C451 H446 0.931 . S
C451 C453 1.397 . S
C451 C454 1.367 . S
C452 C450 1.405 . S
C452 C454 1.403 . S
C452 C485 1.439 . S
C453 H438 0.930 . S
C453 N449 1.319 . S
C453 C451 1.397 . S
C454 C451 1.367 . S
C454 C452 1.403 . S
C454 H461 0.929 . S
N455 Eu420 2.562 . S
N455 C456 1.325 . S
N455 C458 1.351 . S
C456 H442 0.929 . S
C456 N455 1.325 . S
C456 C460 1.416 . S
C457 C458 1.430 . S
C457 C459 1.404 . S
C457 C486 1.387 . S
C458 C450 1.448 . S
C458 N455 1.351 . S
C458 C457 1.430 . S
C459 H448 0.930 . S
C459 C457 1.404 . S
C459 C460 1.366 . S
C460 H439 0.930 . S
C460 C456 1.416 . S
C460 C459 1.366 . S
H461 C454 0.929 . S
H462 C485 0.931 . S
H463 C486 0.931 . S
O464 Eu420 2.462 . S
O464 C484 1.252 . S
O465 Eu420 2.373 . S
O465 C476 1.249 . S
O466 Eu431 2.335 . S
O466 C476 1.264 . S
O467 Eu420 2.432 . S
O467 C484 1.268 . S
O468 Eu420 2.291 . S
O468 C483 1.255 . S
O469 Eu431 2.372 . S
O469 C483 1.257 . S
O470 Eu431 2.462 . S
O470 C495 1.252 . S
O471 Eu431 2.373 . S
O471 C487 1.249 . S
O472 Eu420 2.335 . S
O472 C487 1.264 . S
O473 Eu431 2.432 . S
O473 C495 1.268 . S
O474 Eu431 2.291 . S
O474 C494 1.255 . S
O475 Eu420 2.372 . S
O475 C494 1.257 . S
C476 O465 1.249 . S
C476 O466 1.264 . S
C477 C480 1.382 . S
C477 C482 1.390 . S
C477 C484 1.506 . S
C478 C479 1.398 . S
C478 C482 1.392 . S
C479 C478 1.398 . S
C479 C481 1.372 . S
C479 H496 0.931 . S
C480 C477 1.382 . S
C480 C481 1.390 . S
C480 H497 0.931 . S
C481 C479 1.372 . S
C481 C480 1.390 . S
C481 H498 0.929 . S
C482 C477 1.390 . S
C482 C478 1.392 . S
C482 H499 0.930 . S
C483 O468 1.255 . S
C483 O469 1.257 . S
C484 Eu420 2.787 . S
C484 O464 1.252 . S
C484 O467 1.268 . S
C484 C477 1.506 . S
C485 C452 1.439 . S
C485 H462 0.931 . S
C485 C486 1.374 . S
C486 C457 1.387 . S
C486 H463 0.931 . S
C486 C485 1.374 . S
C487 O471 1.249 . S
C487 O472 1.264 . S
C488 C491 1.382 . S
C488 C492 1.390 . S
C488 C495 1.506 . S
C489 C490 1.398 . S
C489 C492 1.392 . S
C490 C489 1.398 . S
C490 C493 1.372 . S
C490 H500 0.931 . S
C491 C488 1.382 . S
C491 C493 1.390 . S
C491 H501 0.931 . S
C492 C488 1.390 . S
C492 C489 1.392 . S
C492 H502 0.930 . S
C493 C490 1.372 . S
C493 C491 1.390 . S
C493 H503 0.929 . S
C494 O474 1.255 . S
C494 O475 1.257 . S
C495 Eu431 2.787 . S
C495 O470 1.252 . S
C495 O473 1.268 . S
C495 C488 1.506 . S
H496 C479 0.931 . S
H497 C480 0.931 . S
H498 C481 0.929 . S
H499 C482 0.930 . S
H500 C490 0.931 . S
H501 C491 0.931 . S
H502 C492 0.930 . S
H503 C493 0.929 . S
Eu504 N533 2.600 . S
Eu504 N539 2.562 . S
Eu504 O548 2.462 . S
Eu504 O549 2.373 . S
Eu504 O551 2.432 . S
Eu504 O552 2.291 . S
Eu504 O556 2.335 . S
Eu504 O559 2.372 . S
Eu504 C568 2.787 . S
C505 N506 1.365 . S
C505 C508 1.405 . S
C505 C512 1.448 . S
N506 C505 1.365 . S
N506 C509 1.319 . S
N506 Eu515 2.600 . S
C507 C509 1.397 . S
C507 C510 1.367 1_545 S
C507 H527 0.931 1_545 S
C508 C505 1.405 . S
C508 C510 1.403 1_545 S
C508 C514 1.439 . S
C509 N506 1.319 . S
C509 C507 1.397 . S
C509 H520 0.930 . S
C510 C507 1.367 1_565 S
C510 C508 1.403 1_565 S
C510 H531 0.929 . S
C511 C512 1.430 . S
C511 C513 1.387 . S
C511 C517 1.404 . S
C512 C505 1.448 . S
C512 C511 1.430 . S
C512 N516 1.351 . S
C513 C511 1.387 . S
C513 C514 1.374 . S
C513 H528 0.931 . S
C514 C508 1.439 . S
C514 C513 1.374 . S
C514 H529 0.931 1_545 S
Eu515 N506 2.600 . S
Eu515 N516 2.562 . S
Eu515 O550 2.335 . S
Eu515 O553 2.372 . S
Eu515 O554 2.462 . S
Eu515 O555 2.373 . S
Eu515 O557 2.432 . S
Eu515 O558 2.291 . S
Eu515 C579 2.787 . S
N516 C512 1.351 . S
N516 Eu515 2.562 . S
N516 C518 1.325 . S
C517 C511 1.404 . S
C517 C519 1.366 . S
C517 H525 0.930 . S
C518 N516 1.325 . S
C518 C519 1.416 . S
C518 H524 0.929 . S
C519 C517 1.366 . S
C519 C518 1.416 . S
C519 H521 0.930 . S
H520 C509 0.930 . S
H521 C519 0.930 . S
H522 C537 0.930 . S
H523 C544 0.930 . S
H524 C518 0.929 . S
H525 C517 0.930 . S
H526 C540 0.929 . S
H527 C507 0.931 1_565 S
H528 C513 0.931 . S
H529 C514 0.931 1_565 S
H530 C535 0.931 . S
H531 C510 0.929 . S
H532 C543 0.930 . S
N533 Eu504 2.600 . S
N533 C534 1.365 . S
N533 C537 1.319 . S
C534 N533 1.365 . S
C534 C536 1.405 . S
C534 C542 1.448 . S
C535 H530 0.931 . S
C535 C537 1.397 . S
C535 C538 1.367 . S
C536 C534 1.405 . S
C536 C538 1.403 . S
C536 C569 1.439 . S
C537 H522 0.930 . S
C537 N533 1.319 . S
C537 C535 1.397 . S
C538 C535 1.367 . S
C538 C536 1.403 . S
C538 H545 0.929 . S
N539 Eu504 2.562 . S
N539 C540 1.325 . S
N539 C542 1.351 . S
C540 H526 0.929 . S
C540 N539 1.325 . S
C540 C544 1.416 . S
C541 C542 1.430 . S
C541 C543 1.404 . S
C541 C570 1.387 . S
C542 C534 1.448 . S
C542 N539 1.351 . S
C542 C541 1.430 . S
C543 H532 0.930 . S
C543 C541 1.404 . S
C543 C544 1.366 . S
C544 H523 0.930 . S
C544 C540 1.416 . S
C544 C543 1.366 . S
H545 C538 0.929 . S
H546 C569 0.931 . S
H547 C570 0.931 . S
O548 Eu504 2.462 . S
O548 C568 1.252 . S
O549 Eu504 2.373 . S
O549 C560 1.249 . S
O550 Eu515 2.335 . S
O550 C560 1.264 . S
O551 Eu504 2.432 . S
O551 C568 1.268 . S
O552 Eu504 2.291 . S
O552 C567 1.255 . S
O553 Eu515 2.372 . S
O553 C567 1.257 . S
O554 Eu515 2.462 . S
O554 C579 1.252 . S
O555 Eu515 2.373 . S
O555 C571 1.249 . S
O556 Eu504 2.335 . S
O556 C571 1.264 . S
O557 Eu515 2.432 . S
O557 C579 1.268 . S
O558 Eu515 2.291 . S
O558 C578 1.255 . S
O559 Eu504 2.372 . S
O559 C578 1.257 . S
C560 O549 1.249 . S
C560 O550 1.264 . S
C561 C564 1.382 . S
C561 C566 1.390 . S
C561 C568 1.506 . S
C562 C563 1.398 . S
C562 C566 1.392 . S
C563 C562 1.398 . S
C563 C565 1.372 . S
C563 H580 0.931 . S
C564 C561 1.382 . S
C564 C565 1.390 . S
C564 H581 0.931 . S
C565 C563 1.372 . S
C565 C564 1.390 . S
C565 H582 0.929 . S
C566 C561 1.390 . S
C566 C562 1.392 . S
C566 H583 0.930 . S
C567 O552 1.255 . S
C567 O553 1.257 . S
C568 Eu504 2.787 . S
C568 O548 1.252 . S
C568 O551 1.268 . S
C568 C561 1.506 . S
C569 C536 1.439 . S
C569 H546 0.931 . S
C569 C570 1.374 . S
C570 C541 1.387 . S
C570 H547 0.931 . S
C570 C569 1.374 . S
C571 O555 1.249 . S
C571 O556 1.264 . S
C572 C575 1.382 . S
C572 C576 1.390 . S
C572 C579 1.506 . S
C573 C574 1.398 1_545 S
C573 C576 1.392 . S
C574 C573 1.398 1_565 S
C574 C577 1.372 . S
C574 H584 0.931 . S
C575 C572 1.382 . S
C575 C577 1.390 1_545 S
C575 H585 0.931 1_545 S
C576 C572 1.390 . S
C576 C573 1.392 . S
C576 H586 0.930 . S
C577 C574 1.372 . S
C577 C575 1.390 1_565 S
C577 H587 0.929 . S
C578 O558 1.255 . S
C578 O559 1.257 . S
C579 Eu515 2.787 . S
C579 O554 1.252 . S
C579 O557 1.268 . S
C579 C572 1.506 . S
H580 C563 0.931 . S
H581 C564 0.931 . S
H582 C565 0.929 . S
H583 C566 0.930 . S
H584 C574 0.931 . S
H585 C575 0.931 1_565 S
H586 C576 0.930 . S
H587 C577 0.929 . S
Eu588 N617 2.600 1_455 S
Eu588 N623 2.562 . S
Eu588 O632 2.462 . S
Eu588 O633 2.373 . S
Eu588 O635 2.432 1_455 S
Eu588 O636 2.291 . S
Eu588 O640 2.335 . S
Eu588 O643 2.372 . S
Eu588 C652 2.787 . S
C589 N590 1.365 . S
C589 C592 1.405 . S
C589 C596 1.448 . S
N590 C589 1.365 . S
N590 C593 1.319 . S
N590 Eu599 2.600 . S
C591 C593 1.397 . S
C591 C594 1.367 . S
C591 H611 0.931 . S
C592 C589 1.405 . S
C592 C594 1.403 . S
C592 C598 1.439 . S
C593 N590 1.319 . S
C593 C591 1.397 . S
C593 H604 0.930 . S
C594 C591 1.367 . S
C594 C592 1.403 . S
C594 H615 0.929 . S
C595 C596 1.430 . S
C595 C597 1.387 . S
C595 C601 1.404 . S
C596 C589 1.448 . S
C596 C595 1.430 . S
C596 N600 1.351 . S
C597 C595 1.387 . S
C597 C598 1.374 . S
C597 H612 0.931 . S
C598 C592 1.439 . S
C598 C597 1.374 . S
C598 H613 0.931 . S
Eu599 N590 2.600 . S
Eu599 N600 2.562 . S
Eu599 O634 2.335 . S
Eu599 O637 2.372 . S
Eu599 O638 2.462 . S
Eu599 O639 2.373 . S
Eu599 O641 2.432 . S
Eu599 O642 2.291 . S
Eu599 C663 2.787 . S
N600 C596 1.351 . S
N600 Eu599 2.562 . S
N600 C602 1.325 . S
C601 C595 1.404 . S
C601 C603 1.366 . S
C601 H609 0.930 . S
C602 N600 1.325 . S
C602 C603 1.416 . S
C602 H608 0.929 . S
C603 C601 1.366 . S
C603 C602 1.416 . S
C603 H605 0.930 . S
H604 C593 0.930 . S
H605 C603 0.930 . S
H606 C621 0.930 . S
H607 C628 0.930 . S
H608 C602 0.929 . S
H609 C601 0.930 . S
H610 C624 0.929 . S
H611 C591 0.931 . S
H612 C597 0.931 . S
H613 C598 0.931 . S
H614 C619 0.931 . S
H615 C594 0.929 . S
H616 C627 0.930 . S
N617 Eu588 2.600 1_655 S
N617 C618 1.365 . S
N617 C621 1.319 . S
C618 N617 1.365 . S
C618 C620 1.405 . S
C618 C626 1.448 1_655 S
C619 H614 0.931 . S
C619 C621 1.397 . S
C619 C622 1.367 . S
C620 C618 1.405 . S
C620 C622 1.403 . S
C620 C653 1.439 . S
C621 H606 0.930 . S
C621 N617 1.319 . S
C621 C619 1.397 . S
C622 C619 1.367 . S
C622 C620 1.403 . S
C622 H629 0.929 . S
N623 Eu588 2.562 . S
N623 C624 1.325 . S
N623 C626 1.351 . S
C624 H610 0.929 . S
C624 N623 1.325 . S
C624 C628 1.416 . S
C625 C626 1.430 1_655 S
C625 C627 1.404 1_655 S
C625 C654 1.387 . S
C626 C618 1.448 1_455 S
C626 N623 1.351 . S
C626 C625 1.430 1_455 S
C627 H616 0.930 . S
C627 C625 1.404 1_455 S
C627 C628 1.366 . S
C628 H607 0.930 . S
C628 C624 1.416 . S
C628 C627 1.366 . S
H629 C622 0.929 . S
H630 C653 0.931 . S
H631 C654 0.931 . S
O632 Eu588 2.462 . S
O632 C652 1.252 . S
O633 Eu588 2.373 . S
O633 C644 1.249 . S
O634 Eu599 2.335 . S
O634 C644 1.264 . S
O635 Eu588 2.432 1_655 S
O635 C652 1.268 1_655 S
O636 Eu588 2.291 . S
O636 C651 1.255 . S
O637 Eu599 2.372 . S
O637 C651 1.257 . S
O638 Eu599 2.462 . S
O638 C663 1.252 . S
O639 Eu599 2.373 . S
O639 C655 1.249 . S
O640 Eu588 2.335 . S
O640 C655 1.264 . S
O641 Eu599 2.432 . S
O641 C663 1.268 . S
O642 Eu599 2.291 . S
O642 C662 1.255 . S
O643 Eu588 2.372 . S
O643 C662 1.257 . S
C644 O633 1.249 . S
C644 O634 1.264 . S
C645 C648 1.382 . S
C645 C650 1.390 . S
C645 C652 1.506 1_655 S
C646 C647 1.398 . S
C646 C650 1.392 . S
C647 C646 1.398 . S
C647 C649 1.372 . S
C647 H664 0.931 . S
C648 C645 1.382 . S
C648 C649 1.390 . S
C648 H665 0.931 . S
C649 C647 1.372 . S
C649 C648 1.390 . S
C649 H666 0.929 . S
C650 C645 1.390 . S
C650 C646 1.392 . S
C650 H667 0.930 1_655 S
C651 O636 1.255 . S
C651 O637 1.257 . S
C652 Eu588 2.787 . S
C652 O632 1.252 . S
C652 O635 1.268 1_455 S
C652 C645 1.506 1_455 S
C653 C620 1.439 . S
C653 H630 0.931 . S
C653 C654 1.374 . S
C654 C625 1.387 . S
C654 H631 0.931 . S
C654 C653 1.374 . S
C655 O639 1.249 . S
C655 O640 1.264 . S
C656 C659 1.382 . S
C656 C660 1.390 . S
C656 C663 1.506 . S
C657 C658 1.398 . S
C657 C660 1.392 . S
C658 C657 1.398 . S
C658 C661 1.372 . S
C658 H668 0.931 . S
C659 C656 1.382 . S
C659 C661 1.390 . S
C659 H669 0.931 . S
C660 C656 1.390 . S
C660 C657 1.392 . S
C660 H670 0.930 . S
C661 C658 1.372 . S
C661 C659 1.390 . S
C661 H671 0.929 . S
C662 O642 1.255 . S
C662 O643 1.257 . S
C663 Eu599 2.787 . S
C663 O638 1.252 . S
C663 O641 1.268 . S
C663 C656 1.506 . S
H664 C647 0.931 . S
H665 C648 0.931 . S
H666 C649 0.929 . S
H667 C650 0.930 1_455 S
H668 C658 0.931 . S
H669 C659 0.931 . S
H670 C660 0.930 . S
H671 C661 0.929 . S
Eu672 N701 2.600 . S
Eu672 N707 2.562 . S
Eu672 O716 2.462 . S
Eu672 O717 2.373 . S
Eu672 O719 2.432 . S
Eu672 O720 2.291 . S
Eu672 O724 2.335 . S
Eu672 O727 2.372 . S
Eu672 C736 2.787 . S
C673 N674 1.365 . S
C673 C676 1.405 . S
C673 C680 1.448 . S
N674 C673 1.365 . S
N674 C677 1.319 . S
N674 Eu683 2.600 . S
C675 C677 1.397 . S
C675 C678 1.367 . S
C675 H695 0.931 . S
C676 C673 1.405 . S
C676 C678 1.403 . S
C676 C682 1.439 . S
C677 N674 1.319 . S
C677 C675 1.397 . S
C677 H688 0.930 . S
C678 C675 1.367 . S
C678 C676 1.403 . S
C678 H699 0.929 . S
C679 C680 1.430 . S
C679 C681 1.387 . S
C679 C685 1.404 . S
C680 C673 1.448 . S
C680 C679 1.430 . S
C680 N684 1.351 . S
C681 C679 1.387 . S
C681 C682 1.374 . S
C681 H696 0.931 . S
C682 C676 1.439 . S
C682 C681 1.374 . S
C682 H697 0.931 . S
Eu683 N674 2.600 . S
Eu683 N684 2.562 . S
Eu683 O718 2.335 . S
Eu683 O721 2.372 . S
Eu683 O722 2.462 . S
Eu683 O723 2.373 . S
Eu683 O725 2.432 . S
Eu683 O726 2.291 . S
Eu683 C747 2.787 . S
N684 C680 1.351 . S
N684 Eu683 2.562 . S
N684 C686 1.325 . S
C685 C679 1.404 . S
C685 C687 1.366 . S
C685 H693 0.930 . S
C686 N684 1.325 . S
C686 C687 1.416 . S
C686 H692 0.929 . S
C687 C685 1.366 . S
C687 C686 1.416 . S
C687 H689 0.930 . S
H688 C677 0.930 . S
H689 C687 0.930 . S
H690 C705 0.930 . S
H691 C712 0.930 . S
H692 C686 0.929 . S
H693 C685 0.930 . S
H694 C708 0.929 . S
H695 C675 0.931 . S
H696 C681 0.931 . S
H697 C682 0.931 . S
H698 C703 0.931 . S
H699 C678 0.929 . S
H700 C711 0.930 . S
N701 Eu672 2.600 . S
N701 C702 1.365 . S
N701 C705 1.319 . S
C702 N701 1.365 . S
C702 C704 1.405 . S
C702 C710 1.448 . S
C703 H698 0.931 . S
C703 C705 1.397 . S
C703 C706 1.367 . S
C704 C702 1.405 . S
C704 C706 1.403 . S
C704 C737 1.439 . S
C705 H690 0.930 . S
C705 N701 1.319 . S
C705 C703 1.397 . S
C706 C703 1.367 . S
C706 C704 1.403 . S
C706 H713 0.929 . S
N707 Eu672 2.562 . S
N707 C708 1.325 . S
N707 C710 1.351 . S
C708 H694 0.929 . S
C708 N707 1.325 . S
C708 C712 1.416 . S
C709 C710 1.430 . S
C709 C711 1.404 . S
C709 C738 1.387 . S
C710 C702 1.448 . S
C710 N707 1.351 . S
C710 C709 1.430 . S
C711 H700 0.930 . S
C711 C709 1.404 . S
C711 C712 1.366 . S
C712 H691 0.930 . S
C712 C708 1.416 . S
C712 C711 1.366 . S
H713 C706 0.929 . S
H714 C737 0.931 . S
H715 C738 0.931 . S
O716 Eu672 2.462 . S
O716 C736 1.252 . S
O717 Eu672 2.373 . S
O717 C728 1.249 . S
O718 Eu683 2.335 . S
O718 C728 1.264 . S
O719 Eu672 2.432 . S
O719 C736 1.268 . S
O720 Eu672 2.291 . S
O720 C735 1.255 . S
O721 Eu683 2.372 . S
O721 C735 1.257 . S
O722 Eu683 2.462 . S
O722 C747 1.252 . S
O723 Eu683 2.373 . S
O723 C739 1.249 . S
O724 Eu672 2.335 . S
O724 C739 1.264 . S
O725 Eu683 2.432 . S
O725 C747 1.268 . S
O726 Eu683 2.291 . S
O726 C746 1.255 . S
O727 Eu672 2.372 . S
O727 C746 1.257 . S
C728 O717 1.249 . S
C728 O718 1.264 . S
C729 C732 1.382 . S
C729 C734 1.390 . S
C729 C736 1.506 . S
C730 C731 1.398 . S
C730 C734 1.392 . S
C731 C730 1.398 . S
C731 C733 1.372 . S
C731 H748 0.931 . S
C732 C729 1.382 . S
C732 C733 1.390 . S
C732 H749 0.931 . S
C733 C731 1.372 . S
C733 C732 1.390 . S
C733 H750 0.929 . S
C734 C729 1.390 . S
C734 C730 1.392 . S
C734 H751 0.930 . S
C735 O720 1.255 . S
C735 O721 1.257 . S
C736 Eu672 2.787 . S
C736 O716 1.252 . S
C736 O719 1.268 . S
C736 C729 1.506 . S
C737 C704 1.439 . S
C737 H714 0.931 . S
C737 C738 1.374 . S
C738 C709 1.387 . S
C738 H715 0.931 . S
C738 C737 1.374 . S
C739 O723 1.249 . S
C739 O724 1.264 . S
C740 C743 1.382 . S
C740 C744 1.390 . S
C740 C747 1.506 . S
C741 C742 1.398 . S
C741 C744 1.392 . S
C742 C741 1.398 . S
C742 C745 1.372 . S
C742 H752 0.931 . S
C743 C740 1.382 . S
C743 C745 1.390 . S
C743 H753 0.931 . S
C744 C740 1.390 . S
C744 C741 1.392 . S
C744 H754 0.930 . S
C745 C742 1.372 . S
C745 C743 1.390 . S
C745 H755 0.929 . S
C746 O726 1.255 . S
C746 O727 1.257 . S
C747 Eu683 2.787 . S
C747 O722 1.252 . S
C747 O725 1.268 . S
C747 C740 1.506 . S
H748 C731 0.931 . S
H749 C732 0.931 . S
H750 C733 0.929 . S
H751 C734 0.930 . S
H752 C742 0.931 . S
H753 C743 0.931 . S
H754 C744 0.930 . S
H755 C745 0.929 . S
Eu756 N785 2.600 . S
Eu756 N791 2.562 . S
Eu756 O800 2.462 . S
Eu756 O801 2.373 . S
Eu756 O803 2.432 . S
Eu756 O804 2.291 . S
Eu756 O808 2.335 . S
Eu756 O811 2.396 . S
Eu756 C820 2.787 . S
C757 N758 1.365 . S
C757 C760 1.405 . S
C757 C764 1.448 1_645 S
N758 C757 1.365 . S
N758 C761 1.319 . S
N758 Eu767 2.600 1_655 S
C759 C761 1.397 . S
C759 C762 1.367 . S
C759 H779 0.931 . S
C760 C757 1.405 . S
C760 C762 1.403 . S
C760 C766 1.439 1_545 S
C761 N758 1.319 . S
C761 C759 1.397 . S
C761 H772 0.930 . S
C762 C759 1.367 . S
C762 C760 1.403 . S
C762 H783 0.929 . S
C763 C764 1.430 1_655 S
C763 C765 1.387 . S
C763 C769 1.404 1_655 S
C764 C757 1.448 1_465 S
C764 C763 1.430 1_455 S
C764 N768 1.351 . S
C765 C763 1.387 . S
C765 C766 1.374 . S
C765 H780 0.931 . S
C766 C760 1.439 1_565 S
C766 C765 1.374 . S
C766 H781 0.931 . S
Eu767 N758 2.600 1_455 S
Eu767 N768 2.562 1_545 S
Eu767 O802 2.335 . S
Eu767 O805 2.372 . S
Eu767 O806 2.462 1_545 S
Eu767 O807 2.373 . S
Eu767 O809 2.432 1_455 S
Eu767 O810 2.291 1_545 S
Eu767 C831 2.787 1_545 S
N768 C764 1.351 . S
N768 Eu767 2.562 1_565 S
N768 C770 1.325 . S
C769 C763 1.404 1_455 S
C769 C771 1.366 . S
C769 H777 0.930 . S
C770 N768 1.325 . S
C770 C771 1.416 . S
C770 H776 0.929 . S
C771 C769 1.366 . S
C771 C770 1.416 . S
C771 H773 0.930 . S
H772 C761 0.930 . S
H773 C771 0.930 . S
H774 C789 0.930 . S
H775 C796 0.930 . S
H776 C770 0.929 . S
H777 C769 0.930 . S
H778 C792 0.929 . S
H779 C759 0.931 . S
H780 C765 0.931 . S
H781 C766 0.931 . S
H782 C787 0.931 1_565 S
H783 C762 0.929 . S
H784 C795 0.930 . S
N785 Eu756 2.600 . S
N785 C786 1.365 . S
N785 C789 1.319 . S
C786 N785 1.365 . S
C786 C788 1.405 . S
C786 C794 1.448 . S
C787 H782 0.931 1_545 S
C787 C789 1.397 . S
C787 C790 1.367 . S
C788 C786 1.405 . S
C788 C790 1.403 . S
C788 C821 1.439 . S
C789 H774 0.930 . S
C789 N785 1.319 . S
C789 C787 1.397 . S
C790 C787 1.367 . S
C790 C788 1.403 . S
C790 H797 0.929 . S
N791 Eu756 2.562 . S
N791 C792 1.325 . S
N791 C794 1.351 . S
C792 H778 0.929 . S
C792 N791 1.325 . S
C792 C796 1.416 . S
C793 C794 1.430 . S
C793 C795 1.404 . S
C793 C822 1.387 . S
C794 C786 1.448 . S
C794 N791 1.351 . S
C794 C793 1.430 . S
C795 H784 0.930 . S
C795 C793 1.404 . S
C795 C796 1.366 . S
C796 H775 0.930 . S
C796 C792 1.416 . S
C796 C795 1.366 . S
H797 C790 0.929 . S
H798 C821 0.931 . S
H799 C822 0.931 . S
O800 Eu756 2.462 . S
O800 C820 1.252 . S
O801 Eu756 2.373 . S
O801 C812 1.249 . S
O802 Eu767 2.335 . S
O802 C812 1.264 . S
O803 Eu756 2.432 . S
O803 C820 1.268 . S
O804 Eu756 2.291 . S
O804 C819 1.255 . S
O805 Eu767 2.372 . S
O805 C819 1.257 . S
O806 Eu767 2.462 1_565 S
O806 C831 1.252 . S
O807 Eu767 2.373 . S
O807 C823 1.249 . S
O808 Eu756 2.335 . S
O808 C823 1.264 . S
O809 Eu767 2.432 1_655 S
O809 C831 1.268 1_645 S
O810 Eu767 2.291 1_565 S
O810 C830 1.255 . S
O811 Eu756 2.396 . S
O811 C830 1.243 1_545 S
C812 O801 1.249 . S
C812 O802 1.264 . S
C813 C816 1.382 . S
C813 C818 1.390 . S
C813 C820 1.506 . S
C814 C815 1.398 . S
C814 C818 1.392 . S
C815 C814 1.398 . S
C815 C817 1.372 . S
C815 H832 0.931 . S
C816 C813 1.382 . S
C816 C817 1.390 . S
C816 H833 0.931 . S
C817 C815 1.372 . S
C817 C816 1.390 . S
C817 H834 0.929 . S
C818 C813 1.390 . S
C818 C814 1.392 . S
C818 H835 0.930 . S
C819 O804 1.255 . S
C819 O805 1.257 . S
C820 Eu756 2.787 . S
C820 O800 1.252 . S
C820 O803 1.268 . S
C820 C813 1.506 . S
C821 C788 1.439 . S
C821 H798 0.931 . S
C821 C822 1.374 . S
C822 C793 1.387 . S
C822 H799 0.931 . S
C822 C821 1.374 . S
C823 O807 1.249 . S
C823 O808 1.264 . S
C824 C827 1.382 . S
C824 C828 1.390 . S
C824 C831 1.506 1_655 S
C825 C826 1.398 . S
C825 C828 1.392 . S
C826 C825 1.398 . S
C826 C829 1.372 . S
C826 H836 0.931 . S
C827 C824 1.382 . S
C827 C829 1.390 . S
C827 H837 0.931 1_565 S
C828 C824 1.390 . S
C828 C825 1.392 . S
C828 H838 0.930 1_655 S
C829 C826 1.372 . S
C829 C827 1.390 . S
C829 H839 0.929 . S
C830 O810 1.255 . S
C830 O811 1.243 1_565 S
C831 Eu767 2.787 1_565 S
C831 O806 1.252 . S
C831 O809 1.268 1_465 S
C831 C824 1.506 1_455 S
H832 C815 0.931 . S
H833 C816 0.931 . S
H834 C817 0.929 . S
H835 C818 0.930 . S
H836 C826 0.931 . S
H837 C827 0.931 1_545 S
H838 C828 0.930 1_455 S
H839 C829 0.929 . S
Eu840 N869 2.600 . S
Eu840 N875 2.562 . S
Eu840 O884 2.462 . S
Eu840 O885 2.373 . S
Eu840 O887 2.432 . S
Eu840 O888 2.291 . S
Eu840 O892 2.335 . S
Eu840 O895 2.372 . S
Eu840 C904 2.787 . S
C841 N842 1.365 . S
C841 C844 1.405 . S
C841 C848 1.448 . S
N842 C841 1.365 . S
N842 C845 1.319 . S
N842 Eu851 2.600 . S
C843 C845 1.397 . S
C843 C846 1.367 . S
C843 H863 0.931 . S
C844 C841 1.405 . S
C844 C846 1.403 . S
C844 C850 1.439 . S
C845 N842 1.319 . S
C845 C843 1.397 . S
C845 H856 0.930 . S
C846 C843 1.367 . S
C846 C844 1.403 . S
C846 H867 0.929 . S
C847 C848 1.430 . S
C847 C849 1.387 . S
C847 C853 1.404 . S
C848 C841 1.448 . S
C848 C847 1.430 . S
C848 N852 1.351 . S
C849 C847 1.387 . S
C849 C850 1.374 . S
C849 H864 0.931 . S
C850 C844 1.439 . S
C850 C849 1.374 . S
C850 H865 0.931 . S
Eu851 N842 2.600 . S
Eu851 N852 2.562 . S
Eu851 O886 2.335 . S
Eu851 O889 2.372 . S
Eu851 O890 2.462 . S
Eu851 O891 2.373 . S
Eu851 O893 2.432 . S
Eu851 O894 2.291 . S
Eu851 C915 2.787 . S
N852 C848 1.351 . S
N852 Eu851 2.562 . S
N852 C854 1.325 . S
C853 C847 1.404 . S
C853 C855 1.366 . S
C853 H861 0.930 . S
C854 N852 1.325 . S
C854 C855 1.416 . S
C854 H860 0.929 . S
C855 C853 1.366 . S
C855 C854 1.416 . S
C855 H857 0.930 . S
H856 C845 0.930 . S
H857 C855 0.930 . S
H858 C873 0.930 . S
H859 C880 0.930 . S
H860 C854 0.929 . S
H861 C853 0.930 . S
H862 C876 0.929 . S
H863 C843 0.931 . S
H864 C849 0.931 . S
H865 C850 0.931 . S
H866 C871 0.931 . S
H867 C846 0.929 . S
H868 C879 0.930 . S
N869 Eu840 2.600 . S
N869 C870 1.365 . S
N869 C873 1.319 . S
C870 N869 1.365 . S
C870 C872 1.405 . S
C870 C878 1.448 . S
C871 H866 0.931 . S
C871 C873 1.397 . S
C871 C874 1.367 . S
C872 C870 1.405 . S
C872 C874 1.403 . S
C872 C905 1.439 . S
C873 H858 0.930 . S
C873 N869 1.319 . S
C873 C871 1.397 . S
C874 C871 1.367 . S
C874 C872 1.403 . S
C874 H881 0.929 . S
N875 Eu840 2.562 . S
N875 C876 1.325 . S
N875 C878 1.351 . S
C876 H862 0.929 . S
C876 N875 1.325 . S
C876 C880 1.416 . S
C877 C878 1.430 . S
C877 C879 1.404 . S
C877 C906 1.387 . S
C878 C870 1.448 . S
C878 N875 1.351 . S
C878 C877 1.430 . S
C879 H868 0.930 . S
C879 C877 1.404 . S
C879 C880 1.366 . S
C880 H859 0.930 . S
C880 C876 1.416 . S
C880 C879 1.366 . S
H881 C874 0.929 . S
H882 C905 0.931 . S
H883 C906 0.931 . S
O884 Eu840 2.462 . S
O884 C904 1.252 . S
O885 Eu840 2.373 . S
O885 C896 1.249 . S
O886 Eu851 2.335 . S
O886 C896 1.264 . S
O887 Eu840 2.432 . S
O887 C904 1.268 . S
O888 Eu840 2.291 . S
O888 C903 1.255 . S
O889 Eu851 2.372 . S
O889 C903 1.257 . S
O890 Eu851 2.462 . S
O890 C915 1.252 . S
O891 Eu851 2.373 . S
O891 C907 1.249 . S
O892 Eu840 2.335 . S
O892 C907 1.264 . S
O893 Eu851 2.432 . S
O893 C915 1.268 . S
O894 Eu851 2.291 . S
O894 C914 1.255 . S
O895 Eu840 2.372 . S
O895 C914 1.257 . S
C896 O885 1.249 . S
C896 O886 1.264 . S
C897 C900 1.382 . S
C897 C902 1.390 . S
C897 C904 1.506 . S
C898 C899 1.398 . S
C898 C902 1.392 . S
C899 C898 1.398 . S
C899 C901 1.372 . S
C899 H916 0.896 1_554 S
C900 C897 1.382 . S
C900 C901 1.390 . S
C900 H917 0.931 . S
C901 C899 1.372 . S
C901 C900 1.390 . S
C901 H918 0.929 . S
C902 C897 1.390 . S
C902 C898 1.392 . S
C902 H919 0.930 . S
C903 O888 1.255 . S
C903 O889 1.257 . S
C904 Eu840 2.787 . S
C904 O884 1.252 . S
C904 O887 1.268 . S
C904 C897 1.506 . S
C905 C872 1.439 . S
C905 H882 0.931 . S
C905 C906 1.374 . S
C906 C877 1.387 . S
C906 H883 0.931 . S
C906 C905 1.374 . S
C907 O891 1.249 . S
C907 O892 1.264 . S
C908 C911 1.382 . S
C908 C912 1.390 . S
C908 C915 1.506 . S
C909 C910 1.398 . S
C909 C912 1.392 . S
C910 C909 1.398 . S
C910 C913 1.372 . S
C910 H920 0.931 . S
C911 C908 1.382 . S
C911 C913 1.390 . S
C911 H921 0.931 . S
C912 C908 1.390 . S
C912 C909 1.392 . S
C912 H922 0.930 . S
C913 C910 1.372 . S
C913 C911 1.390 . S
C913 H923 0.929 . S
C914 O894 1.255 . S
C914 O895 1.257 . S
C915 Eu851 2.787 . S
C915 O890 1.252 . S
C915 O893 1.268 . S
C915 C908 1.506 . S
H916 C899 0.896 1_556 S
H917 C900 0.931 . S
H918 C901 0.929 . S
H919 C902 0.930 . S
H920 C910 0.931 . S
H921 C911 0.931 . S
H922 C912 0.930 . S
H923 C913 0.929 . S
Eu924 N953 2.600 . S
Eu924 N959 2.562 . S
Eu924 O968 2.462 . S
Eu924 O969 2.373 . S
Eu924 O971 2.432 . S
Eu924 O972 2.291 . S
Eu924 O976 2.335 . S
Eu924 O979 2.396 . S
Eu924 C988 2.787 . S
C925 N926 1.365 . S
C925 C928 1.405 . S
C925 C932 1.448 1_565 S
N926 C925 1.365 . S
N926 C929 1.319 . S
N926 Eu935 2.600 . S
C927 C929 1.397 . S
C927 C930 1.367 . S
C927 H947 0.931 . S
C928 C925 1.405 . S
C928 C930 1.403 . S
C928 C934 1.439 1_565 S
C929 N926 1.319 . S
C929 C927 1.397 . S
C929 H940 0.930 . S
C930 C927 1.367 . S
C930 C928 1.403 . S
C930 H951 0.929 . S
C931 C932 1.430 . S
C931 C933 1.387 . S
C931 C937 1.404 . S
C932 C925 1.448 1_545 S
C932 C931 1.430 . S
C932 N936 1.351 . S
C933 C931 1.387 . S
C933 C934 1.374 . S
C933 H948 0.931 . S
C934 C928 1.439 1_545 S
C934 C933 1.374 . S
C934 H949 0.931 . S
Eu935 N926 2.600 . S
Eu935 N936 2.562 1_565 S
Eu935 O970 2.335 . S
Eu935 O973 2.372 . S
Eu935 O974 2.462 1_565 S
Eu935 O975 2.373 . S
Eu935 O977 2.432 . S
Eu935 O978 2.291 1_565 S
Eu935 C999 2.787 1_565 S
N936 C932 1.351 . S
N936 Eu935 2.562 1_545 S
N936 C938 1.325 . S
C937 C931 1.404 . S
C937 C939 1.366 . S
C937 H945 0.930 . S
C938 N936 1.325 . S
C938 C939 1.416 . S
C938 H944 0.929 . S
C939 C937 1.366 . S
C939 C938 1.416 . S
C939 H941 0.930 . S
H940 C929 0.930 . S
H941 C939 0.930 . S
H942 C957 0.930 . S
H943 C964 0.930 . S
H944 C938 0.929 . S
H945 C937 0.930 . S
H946 C960 0.929 . S
H947 C927 0.931 . S
H948 C933 0.931 . S
H949 C934 0.931 . S
H950 C955 0.931 1_545 S
H951 C930 0.929 . S
H952 C963 0.930 . S
N953 Eu924 2.600 . S
N953 C954 1.365 . S
N953 C957 1.319 . S
C954 N953 1.365 . S
C954 C956 1.405 . S
C954 C962 1.448 . S
C955 H950 0.931 1_565 S
C955 C957 1.397 . S
C955 C958 1.367 . S
C956 C954 1.405 . S
C956 C958 1.403 . S
C956 C989 1.439 . S
C957 H942 0.930 . S
C957 N953 1.319 . S
C957 C955 1.397 . S
C958 C955 1.367 . S
C958 C956 1.403 . S
C958 H965 0.929 . S
N959 Eu924 2.562 . S
N959 C960 1.325 . S
N959 C962 1.351 . S
C960 H946 0.929 . S
C960 N959 1.325 . S
C960 C964 1.416 . S
C961 C962 1.430 . S
C961 C963 1.404 . S
C961 C990 1.387 . S
C962 C954 1.448 . S
C962 N959 1.351 . S
C962 C961 1.430 . S
C963 H952 0.930 . S
C963 C961 1.404 . S
C963 C964 1.366 . S
C964 H943 0.930 . S
C964 C960 1.416 . S
C964 C963 1.366 . S
H965 C958 0.929 . S
H966 C989 0.931 . S
H967 C990 0.931 . S
O968 Eu924 2.462 . S
O968 C988 1.252 . S
O969 Eu924 2.373 . S
O969 C980 1.249 . S
O970 Eu935 2.335 . S
O970 C980 1.264 . S
O971 Eu924 2.432 . S
O971 C988 1.268 . S
O972 Eu924 2.291 . S
O972 C987 1.255 . S
O973 Eu935 2.372 . S
O973 C987 1.257 . S
O974 Eu935 2.462 1_545 S
O974 C999 1.252 . S
O975 Eu935 2.373 . S
O975 C991 1.249 . S
O976 Eu924 2.335 . S
O976 C991 1.264 . S
O977 Eu935 2.432 . S
O977 C999 1.268 1_565 S
O978 Eu935 2.291 1_545 S
O978 C998 1.255 . S
O979 Eu924 2.396 . S
O979 C998 1.243 1_565 S
C980 O969 1.249 . S
C980 O970 1.264 . S
C981 C984 1.382 . S
C981 C986 1.390 . S
C981 C988 1.506 . S
C982 C983 1.398 . S
C982 C986 1.392 . S
C983 C982 1.398 . S
C983 C985 1.372 . S
C983 H1000 0.931 . S
C984 C981 1.382 . S
C984 C985 1.390 . S
C984 H1001 0.931 . S
C985 C983 1.372 . S
C985 C984 1.390 . S
C985 H1002 0.929 . S
C986 C981 1.390 . S
C986 C982 1.392 . S
C986 H1003 0.930 . S
C987 O972 1.255 . S
C987 O973 1.257 . S
C988 Eu924 2.787 . S
C988 O968 1.252 . S
C988 O971 1.268 . S
C988 C981 1.506 . S
C989 C956 1.439 . S
C989 H966 0.931 . S
C989 C990 1.374 . S
C990 C961 1.387 . S
C990 H967 0.931 . S
C990 C989 1.374 . S
C991 O975 1.249 . S
C991 O976 1.264 . S
C992 C995 1.382 . S
C992 C996 1.390 . S
C992 C999 1.506 . S
C993 C994 1.398 . S
C993 C996 1.392 . S
C994 C993 1.398 . S
C994 C997 1.372 . S
C994 H1004 0.931 . S
C995 C992 1.382 . S
C995 C997 1.390 . S
C995 H1005 0.931 1_545 S
C996 C992 1.390 . S
C996 C993 1.392 . S
C996 H1006 0.930 . S
C997 C994 1.372 . S
C997 C995 1.390 . S
C997 H1007 0.929 . S
C998 O978 1.255 . S
C998 O979 1.243 1_545 S
C999 Eu935 2.787 1_545 S
C999 O974 1.252 . S
C999 O977 1.268 1_545 S
C999 C992 1.506 . S
H1000 C983 0.931 . S
H1001 C984 0.931 . S
H1002 C985 0.929 . S
H1003 C986 0.930 . S
H1004 C994 0.931 . S
H1005 C995 0.931 1_565 S
H1006 C996 0.930 . S
H1007 C997 0.929 . S
Eu1008 N1037 2.600 . S
Eu1008 N1043 2.562 . S
Eu1008 O1052 2.462 . S
Eu1008 O1053 2.373 . S
Eu1008 O1055 2.432 . S
Eu1008 O1056 2.291 . S
Eu1008 O1060 2.335 . S
Eu1008 O1063 2.372 . S
Eu1008 C1072 2.787 . S
C1009 N1010 1.365 . S
C1009 C1012 1.405 . S
C1009 C1016 1.448 . S
N1010 C1009 1.365 . S
N1010 C1013 1.319 . S
N1010 Eu1019 2.600 . S
C1011 C1013 1.397 . S
C1011 C1014 1.367 . S
C1011 H1031 0.931 . S
C1012 C1009 1.405 . S
C1012 C1014 1.403 . S
C1012 C1018 1.439 . S
C1013 N1010 1.319 . S
C1013 C1011 1.397 . S
C1013 H1024 0.930 . S
C1014 C1011 1.367 . S
C1014 C1012 1.403 . S
C1014 H1035 0.929 . S
C1015 C1016 1.430 . S
C1015 C1017 1.387 . S
C1015 C1021 1.404 . S
C1016 C1009 1.448 . S
C1016 C1015 1.430 . S
C1016 N1020 1.351 . S
C1017 C1015 1.387 . S
C1017 C1018 1.374 . S
C1017 H1032 0.931 . S
C1018 C1012 1.439 . S
C1018 C1017 1.374 . S
C1018 H1033 0.931 . S
Eu1019 N1010 2.600 . S
Eu1019 N1020 2.562 . S
Eu1019 O1054 2.335 . S
Eu1019 O1057 2.372 . S
Eu1019 O1058 2.462 . S
Eu1019 O1059 2.373 . S
Eu1019 O1061 2.432 . S
Eu1019 O1062 2.291 . S
Eu1019 C1083 2.787 . S
N1020 C1016 1.351 . S
N1020 Eu1019 2.562 . S
N1020 C1022 1.325 . S
C1021 C1015 1.404 . S
C1021 C1023 1.366 . S
C1021 H1029 0.930 . S
C1022 N1020 1.325 . S
C1022 C1023 1.416 . S
C1022 H1028 0.929 . S
C1023 C1021 1.366 . S
C1023 C1022 1.416 . S
C1023 H1025 0.930 . S
H1024 C1013 0.930 . S
H1025 C1023 0.930 . S
H1026 C1041 0.930 . S
H1027 C1048 0.930 . S
H1028 C1022 0.929 . S
H1029 C1021 0.930 . S
H1030 C1044 0.929 . S
H1031 C1011 0.931 . S
H1032 C1017 0.931 . S
H1033 C1018 0.931 . S
H1034 C1039 0.931 . S
H1035 C1014 0.929 . S
H1036 C1047 0.930 . S
N1037 Eu1008 2.600 . S
N1037 C1038 1.365 . S
N1037 C1041 1.319 . S
C1038 N1037 1.365 . S
C1038 C1040 1.405 . S
C1038 C1046 1.448 . S
C1039 H1034 0.931 . S
C1039 C1041 1.397 . S
C1039 C1042 1.367 . S
C1040 C1038 1.405 . S
C1040 C1042 1.403 . S
C1040 C1073 1.439 . S
C1041 H1026 0.930 . S
C1041 N1037 1.319 . S
C1041 C1039 1.397 . S
C1042 C1039 1.367 . S
C1042 C1040 1.403 . S
C1042 H1049 0.929 . S
N1043 Eu1008 2.562 . S
N1043 C1044 1.325 . S
N1043 C1046 1.351 . S
C1044 H1030 0.929 . S
C1044 N1043 1.325 . S
C1044 C1048 1.416 . S
C1045 C1046 1.430 . S
C1045 C1047 1.404 . S
C1045 C1074 1.387 . S
C1046 C1038 1.448 . S
C1046 N1043 1.351 . S
C1046 C1045 1.430 . S
C1047 H1036 0.930 . S
C1047 C1045 1.404 . S
C1047 C1048 1.366 . S
C1048 H1027 0.930 . S
C1048 C1044 1.416 . S
C1048 C1047 1.366 . S
H1049 C1042 0.929 . S
H1050 C1073 0.931 . S
H1051 C1074 0.931 . S
O1052 Eu1008 2.462 . S
O1052 C1072 1.252 . S
O1053 Eu1008 2.373 . S
O1053 C1064 1.249 . S
O1054 Eu1019 2.335 . S
O1054 C1064 1.264 . S
O1055 Eu1008 2.432 . S
O1055 C1072 1.268 . S
O1056 Eu1008 2.291 . S
O1056 C1071 1.255 . S
O1057 Eu1019 2.372 . S
O1057 C1071 1.257 . S
O1058 Eu1019 2.462 . S
O1058 C1083 1.252 . S
O1059 Eu1019 2.373 . S
O1059 C1075 1.249 . S
O1060 Eu1008 2.335 . S
O1060 C1075 1.264 . S
O1061 Eu1019 2.432 . S
O1061 C1083 1.268 . S
O1062 Eu1019 2.291 . S
O1062 C1082 1.255 . S
O1063 Eu1008 2.372 . S
O1063 C1082 1.257 . S
C1064 O1053 1.249 . S
C1064 O1054 1.264 . S
C1065 C1068 1.382 . S
C1065 C1070 1.390 . S
C1065 C1072 1.506 . S
C1066 C1067 1.398 . S
C1066 C1070 1.392 . S
C1067 C1066 1.398 . S
C1067 C1069 1.372 . S
C1067 H1084 0.931 . S
C1068 C1065 1.382 . S
C1068 C1069 1.390 . S
C1068 H1085 0.931 . S
C1069 C1067 1.372 . S
C1069 C1068 1.390 . S
C1069 H1086 0.929 . S
C1070 C1065 1.390 . S
C1070 C1066 1.392 . S
C1070 H1087 0.930 . S
C1071 O1056 1.255 . S
C1071 O1057 1.257 . S
C1072 Eu1008 2.787 . S
C1072 O1052 1.252 . S
C1072 O1055 1.268 . S
C1072 C1065 1.506 . S
C1073 C1040 1.439 . S
C1073 H1050 0.931 . S
C1073 C1074 1.374 . S
C1074 C1045 1.387 . S
C1074 H1051 0.931 . S
C1074 C1073 1.374 . S
C1075 O1059 1.249 . S
C1075 O1060 1.264 . S
C1076 C1079 1.382 . S
C1076 C1080 1.390 . S
C1076 C1083 1.506 . S
C1077 C1078 1.398 . S
C1077 C1080 1.392 . S
C1078 C1077 1.398 . S
C1078 C1081 1.372 . S
C1078 H1088 0.931 . S
C1079 C1076 1.382 . S
C1079 C1081 1.390 . S
C1079 H1089 0.931 . S
C1080 C1076 1.390 . S
C1080 C1077 1.392 . S
C1080 H1090 0.930 . S
C1081 C1078 1.372 . S
C1081 C1079 1.390 . S
C1081 H1091 0.929 . S
C1082 O1062 1.255 . S
C1082 O1063 1.257 . S
C1083 Eu1019 2.787 . S
C1083 O1058 1.252 . S
C1083 O1061 1.268 . S
C1083 C1076 1.506 . S
H1084 C1067 0.931 . S
H1085 C1068 0.931 . S
H1086 C1069 0.929 . S
H1087 C1070 0.930 . S
H1088 C1078 0.931 . S
H1089 C1079 0.931 . S
H1090 C1080 0.930 . S
H1091 C1081 0.929 . S
Eu1092 N1121 2.600 1_655 S
Eu1092 N1127 2.562 1_565 S
Eu1092 O1136 2.462 1_565 S
Eu1092 O1137 2.373 . S
Eu1092 O1139 2.432 1_655 S
Eu1092 O1140 2.291 1_565 S
Eu1092 O1144 2.335 . S
Eu1092 O1147 2.372 . S
Eu1092 C1156 2.787 1_565 S
C1093 N1094 1.365 . S
C1093 C1096 1.405 . S
C1093 C1100 1.448 . S
N1094 C1093 1.365 . S
N1094 C1097 1.319 . S
N1094 Eu1103 2.600 . S
C1095 C1097 1.397 . S
C1095 C1098 1.367 . S
C1095 H1115 0.931 1_565 S
C1096 C1093 1.405 . S
C1096 C1098 1.403 . S
C1096 C1102 1.439 . S
C1097 N1094 1.319 . S
C1097 C1095 1.397 . S
C1097 H1108 0.930 . S
C1098 C1095 1.367 . S
C1098 C1096 1.403 . S
C1098 H1119 0.929 . S
C1099 C1100 1.430 . S
C1099 C1101 1.387 . S
C1099 C1105 1.404 . S
C1100 C1093 1.448 . S
C1100 C1099 1.430 . S
C1100 N1104 1.351 . S
C1101 C1099 1.387 . S
C1101 C1102 1.374 . S
C1101 H1116 0.931 . S
C1102 C1096 1.439 . S
C1102 C1101 1.374 . S
C1102 H1117 0.931 . S
Eu1103 N1094 2.600 . S
Eu1103 N1104 2.562 . S
Eu1103 O1138 2.335 . S
Eu1103 O1141 2.396 . S
Eu1103 O1142 2.462 . S
Eu1103 O1143 2.373 . S
Eu1103 O1145 2.432 . S
Eu1103 O1146 2.291 . S
Eu1103 C1167 2.787 . S
N1104 C1100 1.351 . S
N1104 Eu1103 2.562 . S
N1104 C1106 1.325 . S
C1105 C1099 1.404 . S
C1105 C1107 1.366 . S
C1105 H1113 0.930 . S
C1106 N1104 1.325 . S
C1106 C1107 1.416 . S
C1106 H1112 0.929 . S
C1107 C1105 1.366 . S
C1107 C1106 1.416 . S
C1107 H1109 0.930 . S
H1108 C1097 0.930 . S
H1109 C1107 0.930 . S
H1110 C1125 0.930 . S
H1111 C1132 0.930 . S
H1112 C1106 0.929 . S
H1113 C1105 0.930 . S
H1114 C1128 0.929 . S
H1115 C1095 0.931 1_545 S
H1116 C1101 0.931 . S
H1117 C1102 0.931 . S
H1118 C1123 0.931 . S
H1119 C1098 0.929 . S
H1120 C1131 0.930 . S
N1121 Eu1092 2.600 1_455 S
N1121 C1122 1.365 . S
N1121 C1125 1.319 . S
C1122 N1121 1.365 . S
C1122 C1124 1.405 . S
C1122 C1130 1.448 1_465 S
C1123 H1118 0.931 . S
C1123 C1125 1.397 . S
C1123 C1126 1.367 . S
C1124 C1122 1.405 . S
C1124 C1126 1.403 . S
C1124 C1157 1.439 1_565 S
C1125 H1110 0.930 . S
C1125 N1121 1.319 . S
C1125 C1123 1.397 . S
C1126 C1123 1.367 . S
C1126 C1124 1.403 . S
C1126 H1133 0.929 . S
N1127 Eu1092 2.562 1_545 S
N1127 C1128 1.325 . S
N1127 C1130 1.351 . S
C1128 H1114 0.929 . S
C1128 N1127 1.325 . S
C1128 C1132 1.416 . S
C1129 C1130 1.430 1_455 S
C1129 C1131 1.404 1_455 S
C1129 C1158 1.387 . S
C1130 C1122 1.448 1_645 S
C1130 N1127 1.351 . S
C1130 C1129 1.430 1_655 S
C1131 H1120 0.930 . S
C1131 C1129 1.404 1_655 S
C1131 C1132 1.366 . S
C1132 H1111 0.930 . S
C1132 C1128 1.416 . S
C1132 C1131 1.366 . S
H1133 C1126 0.929 . S
H1134 C1157 0.931 . S
H1135 C1158 0.931 . S
O1136 Eu1092 2.462 1_545 S
O1136 C1156 1.252 . S
O1137 Eu1092 2.373 . S
O1137 C1148 1.249 . S
O1138 Eu1103 2.335 . S
O1138 C1148 1.264 . S
O1139 Eu1092 2.432 1_455 S
O1139 C1156 1.268 1_465 S
O1140 Eu1092 2.291 1_545 S
O1140 C1155 1.255 . S
O1141 Eu1103 2.396 . S
O1141 C1155 1.243 1_565 S
O1142 Eu1103 2.462 . S
O1142 C1167 1.252 . S
O1143 Eu1103 2.373 . S
O1143 C1159 1.249 . S
O1144 Eu1092 2.335 . S
O1144 C1159 1.264 . S
O1145 Eu1103 2.432 . S
O1145 C1167 1.268 . S
O1146 Eu1103 2.291 . S
O1146 C1166 1.255 . S
O1147 Eu1092 2.372 . S
O1147 C1166 1.257 . S
C1148 O1137 1.249 . S
C1148 O1138 1.264 . S
C1149 C1152 1.382 . S
C1149 C1154 1.390 . S
C1149 C1156 1.506 1_455 S
C1150 C1151 1.398 . S
C1150 C1154 1.392 . S
C1151 C1150 1.398 . S
C1151 C1153 1.372 . S
C1151 H1168 0.931 . S
C1152 C1149 1.382 . S
C1152 C1153 1.390 . S
C1152 H1169 0.931 1_545 S
C1153 C1151 1.372 . S
C1153 C1152 1.390 . S
C1153 H1170 0.929 . S
C1154 C1149 1.390 . S
C1154 C1150 1.392 . S
C1154 H1171 0.930 1_455 S
C1155 O1140 1.255 . S
C1155 O1141 1.243 1_545 S
C1156 Eu1092 2.787 1_545 S
C1156 O1136 1.252 . S
C1156 O1139 1.268 1_645 S
C1156 C1149 1.506 1_655 S
C1157 C1124 1.439 1_545 S
C1157 H1134 0.931 . S
C1157 C1158 1.374 . S
C1158 C1129 1.387 . S
C1158 H1135 0.931 . S
C1158 C1157 1.374 . S
C1159 O1143 1.249 . S
C1159 O1144 1.264 . S
C1160 C1163 1.382 . S
C1160 C1164 1.390 . S
C1160 C1167 1.506 . S
C1161 C1162 1.398 . S
C1161 C1164 1.392 . S
C1162 C1161 1.398 . S
C1162 C1165 1.372 . S
C1162 H1172 0.931 . S
C1163 C1160 1.382 . S
C1163 C1165 1.390 . S
C1163 H1173 0.931 . S
C1164 C1160 1.390 . S
C1164 C1161 1.392 . S
C1164 H1174 0.930 . S
C1165 C1162 1.372 . S
C1165 C1163 1.390 . S
C1165 H1175 0.929 . S
C1166 O1146 1.255 . S
C1166 O1147 1.257 . S
C1167 Eu1103 2.787 . S
C1167 O1142 1.252 . S
C1167 O1145 1.268 . S
C1167 C1160 1.506 . S
H1168 C1151 0.931 . S
H1169 C1152 0.931 1_565 S
H1170 C1153 0.929 . S
H1171 C1154 0.930 1_655 S
H1172 C1162 0.931 . S
H1173 C1163 0.931 . S
H1174 C1164 0.930 . S
H1175 C1165 0.929 . S
Eu1176 N1205 2.600 . S
Eu1176 N1211 2.562 . S
Eu1176 O1220 2.462 . S
Eu1176 O1221 2.373 . S
Eu1176 O1223 2.432 . S
Eu1176 O1224 2.291 . S
Eu1176 O1228 2.335 . S
Eu1176 O1231 2.372 . S
Eu1176 C1240 2.787 . S
C1177 N1178 1.365 . S
C1177 C1180 1.405 . S
C1177 C1184 1.448 . S
N1178 C1177 1.365 . S
N1178 C1181 1.319 . S
N1178 Eu1187 2.600 . S
C1179 C1181 1.397 . S
C1179 C1182 1.367 . S
C1179 H1199 0.931 . S
C1180 C1177 1.405 . S
C1180 C1182 1.403 . S
C1180 C1186 1.439 . S
C1181 N1178 1.319 . S
C1181 C1179 1.397 . S
C1181 H1192 0.930 . S
C1182 C1179 1.367 . S
C1182 C1180 1.403 . S
C1182 H1203 0.929 . S
C1183 C1184 1.430 . S
C1183 C1185 1.387 . S
C1183 C1189 1.404 . S
C1184 C1177 1.448 . S
C1184 C1183 1.430 . S
C1184 N1188 1.351 . S
C1185 C1183 1.387 . S
C1185 C1186 1.374 . S
C1185 H1200 0.931 . S
C1186 C1180 1.439 . S
C1186 C1185 1.374 . S
C1186 H1201 0.931 . S
Eu1187 N1178 2.600 . S
Eu1187 N1188 2.562 . S
Eu1187 O1222 2.335 . S
Eu1187 O1225 2.372 . S
Eu1187 O1226 2.462 . S
Eu1187 O1227 2.373 . S
Eu1187 O1229 2.432 . S
Eu1187 O1230 2.291 . S
Eu1187 C1251 2.787 . S
N1188 C1184 1.351 . S
N1188 Eu1187 2.562 . S
N1188 C1190 1.325 . S
C1189 C1183 1.404 . S
C1189 C1191 1.366 . S
C1189 H1197 0.930 . S
C1190 N1188 1.325 . S
C1190 C1191 1.416 . S
C1190 H1196 0.929 . S
C1191 C1189 1.366 . S
C1191 C1190 1.416 . S
C1191 H1193 0.930 . S
H1192 C1181 0.930 . S
H1193 C1191 0.930 . S
H1194 C1209 0.930 . S
H1195 C1216 0.930 . S
H1196 C1190 0.929 . S
H1197 C1189 0.930 . S
H1198 C1212 0.929 . S
H1199 C1179 0.931 . S
H1200 C1185 0.931 . S
H1201 C1186 0.931 . S
H1202 C1207 0.931 . S
H1203 C1182 0.929 . S
H1204 C1215 0.930 . S
N1205 Eu1176 2.600 . S
N1205 C1206 1.365 . S
N1205 C1209 1.319 . S
C1206 N1205 1.365 . S
C1206 C1208 1.405 . S
C1206 C1214 1.448 . S
C1207 H1202 0.931 . S
C1207 C1209 1.397 . S
C1207 C1210 1.367 . S
C1208 C1206 1.405 . S
C1208 C1210 1.403 . S
C1208 C1241 1.439 . S
C1209 H1194 0.930 . S
C1209 N1205 1.319 . S
C1209 C1207 1.397 . S
C1210 C1207 1.367 . S
C1210 C1208 1.403 . S
C1210 H1217 0.929 . S
N1211 Eu1176 2.562 . S
N1211 C1212 1.325 . S
N1211 C1214 1.351 . S
C1212 H1198 0.929 . S
C1212 N1211 1.325 . S
C1212 C1216 1.416 . S
C1213 C1214 1.430 . S
C1213 C1215 1.404 . S
C1213 C1242 1.387 . S
C1214 C1206 1.448 . S
C1214 N1211 1.351 . S
C1214 C1213 1.430 . S
C1215 H1204 0.930 . S
C1215 C1213 1.404 . S
C1215 C1216 1.366 . S
C1216 H1195 0.930 . S
C1216 C1212 1.416 . S
C1216 C1215 1.366 . S
H1217 C1210 0.929 . S
H1218 C1241 0.931 . S
H1219 C1242 0.931 . S
O1220 Eu1176 2.462 . S
O1220 C1240 1.252 . S
O1221 Eu1176 2.373 . S
O1221 C1232 1.249 . S
O1222 Eu1187 2.335 . S
O1222 C1232 1.264 . S
O1223 Eu1176 2.432 . S
O1223 C1240 1.268 . S
O1224 Eu1176 2.291 . S
O1224 C1239 1.255 . S
O1225 Eu1187 2.372 . S
O1225 C1239 1.257 . S
O1226 Eu1187 2.462 . S
O1226 C1251 1.252 . S
O1227 Eu1187 2.373 . S
O1227 C1243 1.249 . S
O1228 Eu1176 2.335 . S
O1228 C1243 1.264 . S
O1229 Eu1187 2.432 . S
O1229 C1251 1.268 . S
O1230 Eu1187 2.291 . S
O1230 C1250 1.255 . S
O1231 Eu1176 2.372 . S
O1231 C1250 1.257 . S
C1232 O1221 1.249 . S
C1232 O1222 1.264 . S
C1233 C1236 1.382 . S
C1233 C1238 1.390 . S
C1233 C1240 1.506 . S
C1234 C1235 1.398 . S
C1234 C1238 1.392 . S
C1235 C1234 1.398 . S
C1235 C1237 1.372 . S
C1235 H1252 0.931 . S
C1236 C1233 1.382 . S
C1236 C1237 1.390 . S
C1236 H1253 0.931 . S
C1237 C1235 1.372 . S
C1237 C1236 1.390 . S
C1237 H1254 0.929 . S
C1238 C1233 1.390 . S
C1238 C1234 1.392 . S
C1238 H1255 0.930 . S
C1239 O1224 1.255 . S
C1239 O1225 1.257 . S
C1240 Eu1176 2.787 . S
C1240 O1220 1.252 . S
C1240 O1223 1.268 . S
C1240 C1233 1.506 . S
C1241 C1208 1.439 . S
C1241 H1218 0.931 . S
C1241 C1242 1.374 . S
C1242 C1213 1.387 . S
C1242 H1219 0.931 . S
C1242 C1241 1.374 . S
C1243 O1227 1.249 . S
C1243 O1228 1.264 . S
C1244 C1247 1.382 . S
C1244 C1248 1.390 . S
C1244 C1251 1.506 . S
C1245 C1246 1.398 . S
C1245 C1248 1.392 . S
C1246 C1245 1.398 . S
C1246 C1249 1.372 . S
C1246 H1256 0.896 1_556 S
C1247 C1244 1.382 . S
C1247 C1249 1.390 . S
C1247 H1257 0.931 . S
C1248 C1244 1.390 . S
C1248 C1245 1.392 . S
C1248 H1258 0.930 . S
C1249 C1246 1.372 . S
C1249 C1247 1.390 . S
C1249 H1259 0.929 . S
C1250 O1230 1.255 . S
C1250 O1231 1.257 . S
C1251 Eu1187 2.787 . S
C1251 O1226 1.252 . S
C1251 O1229 1.268 . S
C1251 C1244 1.506 . S
H1252 C1235 0.931 . S
H1253 C1236 0.931 . S
H1254 C1237 0.929 . S
H1255 C1238 0.930 . S
H1256 C1246 0.896 1_554 S
H1257 C1247 0.931 . S
H1258 C1248 0.930 . S
H1259 C1249 0.929 . S
Eu1260 N1289 2.600 . S
Eu1260 N1295 2.562 1_545 S
Eu1260 O1304 2.462 1_545 S
Eu1260 O1305 2.373 . S
Eu1260 O1307 2.432 . S
Eu1260 O1308 2.291 1_545 S
Eu1260 O1312 2.335 . S
Eu1260 O1315 2.372 . S
Eu1260 C1324 2.787 1_545 S
C1261 N1262 1.365 . S
C1261 C1264 1.405 . S
C1261 C1268 1.448 . S
N1262 C1261 1.365 . S
N1262 C1265 1.319 . S
N1262 Eu1271 2.600 . S
C1263 C1265 1.397 . S
C1263 C1266 1.367 . S
C1263 H1283 0.931 1_545 S
C1264 C1261 1.405 . S
C1264 C1266 1.403 . S
C1264 C1270 1.439 . S
C1265 N1262 1.319 . S
C1265 C1263 1.397 . S
C1265 H1276 0.930 . S
C1266 C1263 1.367 . S
C1266 C1264 1.403 . S
C1266 H1287 0.929 . S
C1267 C1268 1.430 . S
C1267 C1269 1.387 . S
C1267 C1273 1.404 . S
C1268 C1261 1.448 . S
C1268 C1267 1.430 . S
C1268 N1272 1.351 . S
C1269 C1267 1.387 . S
C1269 C1270 1.374 . S
C1269 H1284 0.931 . S
C1270 C1264 1.439 . S
C1270 C1269 1.374 . S
C1270 H1285 0.931 . S
Eu1271 N1262 2.600 . S
Eu1271 N1272 2.562 . S
Eu1271 O1306 2.335 . S
Eu1271 O1309 2.396 . S
Eu1271 O1310 2.462 . S
Eu1271 O1311 2.373 . S
Eu1271 O1313 2.432 . S
Eu1271 O1314 2.291 . S
Eu1271 C1335 2.787 . S
N1272 C1268 1.351 . S
N1272 Eu1271 2.562 . S
N1272 C1274 1.325 . S
C1273 C1267 1.404 . S
C1273 C1275 1.366 . S
C1273 H1281 0.930 . S
C1274 N1272 1.325 . S
C1274 C1275 1.416 . S
C1274 H1280 0.929 . S
C1275 C1273 1.366 . S
C1275 C1274 1.416 . S
C1275 H1277 0.930 . S
H1276 C1265 0.930 . S
H1277 C1275 0.930 . S
H1278 C1293 0.930 . S
H1279 C1300 0.930 . S
H1280 C1274 0.929 . S
H1281 C1273 0.930 . S
H1282 C1296 0.929 . S
H1283 C1263 0.931 1_565 S
H1284 C1269 0.931 . S
H1285 C1270 0.931 . S
H1286 C1291 0.931 . S
H1287 C1266 0.929 . S
H1288 C1299 0.930 . S
N1289 Eu1260 2.600 . S
N1289 C1290 1.365 . S
N1289 C1293 1.319 . S
C1290 N1289 1.365 . S
C1290 C1292 1.405 . S
C1290 C1298 1.448 1_545 S
C1291 H1286 0.931 . S
C1291 C1293 1.397 . S
C1291 C1294 1.367 . S
C1292 C1290 1.405 . S
C1292 C1294 1.403 . S
C1292 C1325 1.439 1_545 S
C1293 H1278 0.930 . S
C1293 N1289 1.319 . S
C1293 C1291 1.397 . S
C1294 C1291 1.367 . S
C1294 C1292 1.403 . S
C1294 H1301 0.929 . S
N1295 Eu1260 2.562 1_565 S
N1295 C1296 1.325 . S
N1295 C1298 1.351 . S
C1296 H1282 0.929 . S
C1296 N1295 1.325 . S
C1296 C1300 1.416 . S
C1297 C1298 1.430 . S
C1297 C1299 1.404 . S
C1297 C1326 1.387 . S
C1298 C1290 1.448 1_565 S
C1298 N1295 1.351 . S
C1298 C1297 1.430 . S
C1299 H1288 0.930 . S
C1299 C1297 1.404 . S
C1299 C1300 1.366 . S
C1300 H1279 0.930 . S
C1300 C1296 1.416 . S
C1300 C1299 1.366 . S
H1301 C1294 0.929 . S
H1302 C1325 0.931 . S
H1303 C1326 0.931 . S
O1304 Eu1260 2.462 1_565 S
O1304 C1324 1.252 . S
O1305 Eu1260 2.373 . S
O1305 C1316 1.249 . S
O1306 Eu1271 2.335 . S
O1306 C1316 1.264 . S
O1307 Eu1260 2.432 . S
O1307 C1324 1.268 1_545 S
O1308 Eu1260 2.291 1_565 S
O1308 C1323 1.255 . S
O1309 Eu1271 2.396 . S
O1309 C1323 1.243 1_545 S
O1310 Eu1271 2.462 . S
O1310 C1335 1.252 . S
O1311 Eu1271 2.373 . S
O1311 C1327 1.249 . S
O1312 Eu1260 2.335 . S
O1312 C1327 1.264 . S
O1313 Eu1271 2.432 . S
O1313 C1335 1.268 . S
O1314 Eu1271 2.291 . S
O1314 C1334 1.255 . S
O1315 Eu1260 2.372 . S
O1315 C1334 1.257 . S
C1316 O1305 1.249 . S
C1316 O1306 1.264 . S
C1317 C1320 1.382 . S
C1317 C1322 1.390 . S
C1317 C1324 1.506 . S
C1318 C1319 1.398 . S
C1318 C1322 1.392 . S
C1319 C1318 1.398 . S
C1319 C1321 1.372 . S
C1319 H1336 0.931 . S
C1320 C1317 1.382 . S
C1320 C1321 1.390 . S
C1320 H1337 0.931 1_565 S
C1321 C1319 1.372 . S
C1321 C1320 1.390 . S
C1321 H1338 0.929 . S
C1322 C1317 1.390 . S
C1322 C1318 1.392 . S
C1322 H1339 0.930 . S
C1323 O1308 1.255 . S
C1323 O1309 1.243 1_565 S
C1324 Eu1260 2.787 1_565 S
C1324 O1304 1.252 . S
C1324 O1307 1.268 1_565 S
C1324 C1317 1.506 . S
C1325 C1292 1.439 1_565 S
C1325 H1302 0.931 . S
C1325 C1326 1.374 . S
C1326 C1297 1.387 . S
C1326 H1303 0.931 . S
C1326 C1325 1.374 . S
C1327 O1311 1.249 . S
C1327 O1312 1.264 . S
C1328 C1331 1.382 . S
C1328 C1332 1.390 . S
C1328 C1335 1.506 . S
C1329 C1330 1.398 . S
C1329 C1332 1.392 . S
C1330 C1329 1.398 . S
C1330 C1333 1.372 . S
C1330 H1340 0.931 . S
C1331 C1328 1.382 . S
C1331 C1333 1.390 . S
C1331 H1341 0.931 . S
C1332 C1328 1.390 . S
C1332 C1329 1.392 . S
C1332 H1342 0.930 . S
C1333 C1330 1.372 . S
C1333 C1331 1.390 . S
C1333 H1343 0.929 . S
C1334 O1314 1.255 . S
C1334 O1315 1.257 . S
C1335 Eu1271 2.787 . S
C1335 O1310 1.252 . S
C1335 O1313 1.268 . S
C1335 C1328 1.506 . S
H1336 C1319 0.931 . S
H1337 C1320 0.931 1_545 S
H1338 C1321 0.929 . S
H1339 C1322 0.930 . S
H1340 C1330 0.931 . S
H1341 C1331 0.931 . S
H1342 C1332 0.930 . S
H1343 C1333 0.929 . S
H1344 C1350 0.930 . S
H1345 C1354 0.930 . S
H1346 C1359 0.929 . S
H1347 C1357 0.929 . S
H1348 C1352 0.929 . S
H1349 C1358 0.929 . S
C1350 H1344 0.930 . S
C1350 C1351 1.367 . S
C1350 C1358 1.378 . S
C1351 C1350 1.367 . S
C1351 C1359 1.433 . S
C1352 H1348 0.929 . S
C1352 C1354 1.378 . S
C1352 C1356 1.350 . S
C1353 C1356 1.463 . S
C1353 C1358 1.350 . S
C1353 N1361 1.427 . S
C1354 H1345 0.930 . S
C1354 C1352 1.378 . S
C1354 C1355 1.367 . S
C1355 C1354 1.367 . S
C1355 C1357 1.433 . S
C1356 C1352 1.350 . S
C1356 C1353 1.463 . S
C1356 N1360 1.427 . S
C1357 H1347 0.929 . S
C1357 C1355 1.433 . S
C1357 N1360 1.384 . S
C1358 H1349 0.929 . S
C1358 C1350 1.378 . S
C1358 C1353 1.350 . S
C1359 H1346 0.929 . S
C1359 C1351 1.433 . S
C1359 N1361 1.384 . S
N1360 C1356 1.427 . S
N1360 C1357 1.384 . S
N1361 C1353 1.427 . S
N1361 C1359 1.384 . S
H1362 C1368 0.930 . S
H1363 C1372 0.930 . S
H1364 C1377 0.929 . S
H1365 C1375 0.929 . S
H1366 C1370 0.929 . S
H1367 C1376 0.929 . S
C1368 H1362 0.930 . S
C1368 C1369 1.367 . S
C1368 C1376 1.378 . S
C1369 C1368 1.367 . S
C1369 C1377 1.433 . S
C1370 H1366 0.929 . S
C1370 C1372 1.378 . S
C1370 C1374 1.350 . S
C1371 C1374 1.463 . S
C1371 C1376 1.350 . S
C1371 N1379 1.427 . S
C1372 H1363 0.930 . S
C1372 C1370 1.378 . S
C1372 C1373 1.367 . S
C1373 C1372 1.367 . S
C1373 C1375 1.433 . S
C1374 C1370 1.350 . S
C1374 C1371 1.463 . S
C1374 N1378 1.427 . S
C1375 H1365 0.929 . S
C1375 C1373 1.433 . S
C1375 N1378 1.384 . S
C1376 H1367 0.929 . S
C1376 C1368 1.378 . S
C1376 C1371 1.350 . S
C1377 H1364 0.929 . S
C1377 C1369 1.433 . S
C1377 N1379 1.384 . S
N1378 C1374 1.427 . S
N1378 C1375 1.384 . S
N1379 C1371 1.427 . S
N1379 C1377 1.384 . S
H1380 C1386 0.930 . S
H1381 C1390 0.930 . S
H1382 C1395 0.929 . S
H1383 C1393 0.929 . S
H1384 C1388 0.946 . S
H1385 C1394 0.946 . S
C1386 H1380 0.930 . S
C1386 C1387 1.367 . S
C1386 C1394 1.378 . S
C1387 C1386 1.367 . S
C1387 C1395 1.433 . S
C1388 H1384 0.946 . S
C1388 C1390 1.378 . S
C1388 C1392 1.350 . S
C1389 C1392 1.463 1_455 S
C1389 C1394 1.350 . S
C1389 N1397 1.427 . S
C1390 H1381 0.930 . S
C1390 C1388 1.378 . S
C1390 C1391 1.367 . S
C1391 C1390 1.367 . S
C1391 C1393 1.433 . S
C1392 C1388 1.350 . S
C1392 C1389 1.463 1_655 S
C1392 N1396 1.427 . S
C1393 H1383 0.929 . S
C1393 C1391 1.433 . S
C1393 N1396 1.384 . S
C1394 H1385 0.946 . S
C1394 C1386 1.378 . S
C1394 C1389 1.350 . S
C1395 H1382 0.929 . S
C1395 C1387 1.433 . S
C1395 N1397 1.384 . S
N1396 C1392 1.427 . S
N1396 C1393 1.384 . S
N1397 C1389 1.427 . S
N1397 C1395 1.384 . S
H1398 C1404 0.930 . S
H1399 C1408 0.930 . S
H1400 C1413 0.929 . S
H1401 C1411 0.929 . S
H1402 C1406 0.929 . S
H1403 C1412 0.929 . S
C1404 H1398 0.930 . S
C1404 C1405 1.367 . S
C1404 C1412 1.378 1_455 S
C1405 C1404 1.367 . S
C1405 C1413 1.433 . S
C1406 H1402 0.929 . S
C1406 C1408 1.378 1_455 S
C1406 C1410 1.350 1_455 S
C1407 C1410 1.463 1_455 S
C1407 C1412 1.350 1_455 S
C1407 N1415 1.427 . S
C1408 H1399 0.930 . S
C1408 C1406 1.378 1_655 S
C1408 C1409 1.367 . S
C1409 C1408 1.367 . S
C1409 C1411 1.433 . S
C1410 C1406 1.350 1_655 S
C1410 C1407 1.463 1_655 S
C1410 N1414 1.427 . S
C1411 H1401 0.929 . S
C1411 C1409 1.433 . S
C1411 N1414 1.384 . S
C1412 H1403 0.929 . S
C1412 C1404 1.378 1_655 S
C1412 C1407 1.350 1_655 S
C1413 H1400 0.929 . S
C1413 C1405 1.433 . S
C1413 N1415 1.384 . S
N1414 C1410 1.427 . S
N1414 C1411 1.384 . S
N1415 C1407 1.427 . S
N1415 C1413 1.384 . S
H1416 C1422 0.930 . S
H1417 C1426 0.930 . S
H1418 C1431 0.929 . S
H1419 C1429 0.929 . S
H1420 C1424 0.929 . S
H1421 C1430 0.929 . S
C1422 H1416 0.930 . S
C1422 C1423 1.367 . S
C1422 C1430 1.378 . S
C1423 C1422 1.367 . S
C1423 C1431 1.433 . S
C1424 H1420 0.929 . S
C1424 C1426 1.378 . S
C1424 C1428 1.350 . S
C1425 C1428 1.463 . S
C1425 C1430 1.350 . S
C1425 N1433 1.427 . S
C1426 H1417 0.930 . S
C1426 C1424 1.378 . S
C1426 C1427 1.367 . S
C1427 C1426 1.367 . S
C1427 C1429 1.433 . S
C1428 C1424 1.350 . S
C1428 C1425 1.463 . S
C1428 N1432 1.427 . S
C1429 H1419 0.929 . S
C1429 C1427 1.433 . S
C1429 N1432 1.384 . S
C1430 H1421 0.929 . S
C1430 C1422 1.378 . S
C1430 C1425 1.350 . S
C1431 H1418 0.929 . S
C1431 C1423 1.433 . S
C1431 N1433 1.384 . S
N1432 C1428 1.427 . S
N1432 C1429 1.384 . S
N1433 C1425 1.427 . S
N1433 C1431 1.384 . S
H1434 C1440 0.930 . S
H1435 C1444 0.930 . S
H1436 C1449 0.929 . S
H1437 C1447 0.929 . S
H1438 C1442 0.929 . S
H1439 C1448 0.929 . S
C1440 H1434 0.930 . S
C1440 C1441 1.367 . S
C1440 C1448 1.378 . S
C1441 C1440 1.367 . S
C1441 C1449 1.433 . S
C1442 H1438 0.929 . S
C1442 C1444 1.378 . S
C1442 C1446 1.350 . S
C1443 C1446 1.463 . S
C1443 C1448 1.350 . S
C1443 N1451 1.427 . S
C1444 H1435 0.930 . S
C1444 C1442 1.378 . S
C1444 C1445 1.367 . S
C1445 C1444 1.367 . S
C1445 C1447 1.433 . S
C1446 C1442 1.350 . S
C1446 C1443 1.463 . S
C1446 N1450 1.427 . S
C1447 H1437 0.929 . S
C1447 C1445 1.433 . S
C1447 N1450 1.384 . S
C1448 H1439 0.929 . S
C1448 C1440 1.378 . S
C1448 C1443 1.350 . S
C1449 H1436 0.929 . S
C1449 C1441 1.433 . S
C1449 N1451 1.384 . S
N1450 C1446 1.427 . S
N1450 C1447 1.384 . S
N1451 C1443 1.427 . S
N1451 C1449 1.384 . S
H1452 C1458 0.930 . S
H1453 C1462 0.930 . S
H1454 C1467 0.929 . S
H1455 C1465 0.929 . S
H1456 C1460 0.929 . S
H1457 C1466 0.929 . S
C1458 H1452 0.930 . S
C1458 C1459 1.367 . S
C1458 C1466 1.378 . S
C1459 C1458 1.367 . S
C1459 C1467 1.433 . S
C1460 H1456 0.929 . S
C1460 C1462 1.378 . S
C1460 C1464 1.350 . S
C1461 C1464 1.463 1_455 S
C1461 C1466 1.350 . S
C1461 N1469 1.427 . S
C1462 H1453 0.930 . S
C1462 C1460 1.378 . S
C1462 C1463 1.367 . S
C1463 C1462 1.367 . S
C1463 C1465 1.433 . S
C1464 C1460 1.350 . S
C1464 C1461 1.463 1_655 S
C1464 N1468 1.427 . S
C1465 H1455 0.929 . S
C1465 C1463 1.433 . S
C1465 N1468 1.384 . S
C1466 H1457 0.929 . S
C1466 C1458 1.378 . S
C1466 C1461 1.350 . S
C1467 H1454 0.929 . S
C1467 C1459 1.433 . S
C1467 N1469 1.384 . S
N1468 C1464 1.427 . S
N1468 C1465 1.384 . S
N1469 C1461 1.427 . S
N1469 C1467 1.384 . S
H1470 C1476 0.930 . S
H1471 C1480 0.930 . S
H1472 C1485 0.929 . S
H1473 C1483 0.929 . S
H1474 C1478 0.929 1_455 S
H1475 C1484 0.929 1_655 S
C1476 H1470 0.930 . S
C1476 C1477 1.367 . S
C1476 C1484 1.378 . S
C1477 C1476 1.367 . S
C1477 C1485 1.433 . S
C1478 H1474 0.929 1_655 S
C1478 C1480 1.378 . S
C1478 C1482 1.350 . S
C1479 C1482 1.463 1_455 S
C1479 C1484 1.350 . S
C1479 N1487 1.427 . S
C1480 H1471 0.930 . S
C1480 C1478 1.378 . S
C1480 C1481 1.367 . S
C1481 C1480 1.367 . S
C1481 C1483 1.433 . S
C1482 C1478 1.350 . S
C1482 C1479 1.463 1_655 S
C1482 N1486 1.427 . S
C1483 H1473 0.929 . S
C1483 C1481 1.433 . S
C1483 N1486 1.384 . S
C1484 H1475 0.929 1_455 S
C1484 C1476 1.378 . S
C1484 C1479 1.350 . S
C1485 H1472 0.929 . S
C1485 C1477 1.433 . S
C1485 N1487 1.384 . S
N1486 C1482 1.427 . S
N1486 C1483 1.384 . S
N1487 C1479 1.427 . S
N1487 C1485 1.384 . S
H1488 C1494 0.939 . S
H1489 C1498 0.939 . S
H1490 C1503 0.929 . S
H1491 C1501 0.929 . S
H1492 C1496 0.929 . S
H1493 C1502 0.929 . S
C1494 H1488 0.939 . S
C1494 C1495 1.353 1_565 S
C1494 C1502 1.383 . S
C1495 C1494 1.353 1_545 S
C1495 C1503 1.433 1_554 S
C1496 H1492 0.929 . S
C1496 C1498 1.383 . S
C1496 C1500 1.350 1_545 S
C1497 C1500 1.463 1_544 S
C1497 C1502 1.350 1_545 S
C1497 N1505 1.427 1_554 S
C1498 H1489 0.939 . S
C1498 C1496 1.383 . S
C1498 C1499 1.353 1_545 S
C1499 C1498 1.353 1_565 S
C1499 C1501 1.433 1_556 S
C1500 C1496 1.350 1_565 S
C1500 C1497 1.463 1_566 S
C1500 N1504 1.427 1_556 S
C1501 H1491 0.929 . S
C1501 C1499 1.433 1_554 S
C1501 N1504 1.384 . S
C1502 H1493 0.929 . S
C1502 C1494 1.383 . S
C1502 C1497 1.350 1_565 S
C1503 H1490 0.929 . S
C1503 C1495 1.433 1_556 S
C1503 N1505 1.384 . S
N1504 C1500 1.427 1_554 S
N1504 C1501 1.384 . S
N1505 C1497 1.427 1_556 S
N1505 C1503 1.384 . S
H1506 C1512 0.930 . S
H1507 C1516 0.930 . S
H1508 C1521 0.929 . S
H1509 C1519 0.929 . S
H1510 C1514 0.929 . S
H1511 C1520 0.929 . S
C1512 H1506 0.930 . S
C1512 C1513 1.367 . S
C1512 C1520 1.378 . S
C1513 C1512 1.367 . S
C1513 C1521 1.433 . S
C1514 H1510 0.929 . S
C1514 C1516 1.378 . S
C1514 C1518 1.350 . S
C1515 C1518 1.463 . S
C1515 C1520 1.350 . S
C1515 N1523 1.427 . S
C1516 H1507 0.930 . S
C1516 C1514 1.378 . S
C1516 C1517 1.367 . S
C1517 C1516 1.367 . S
C1517 C1519 1.433 . S
C1518 C1514 1.350 . S
C1518 C1515 1.463 . S
C1518 N1522 1.427 . S
C1519 H1509 0.929 . S
C1519 C1517 1.433 . S
C1519 N1522 1.384 . S
C1520 H1511 0.929 . S
C1520 C1512 1.378 . S
C1520 C1515 1.350 . S
C1521 H1508 0.929 . S
C1521 C1513 1.433 . S
C1521 N1523 1.384 . S
N1522 C1518 1.427 . S
N1522 C1519 1.384 . S
N1523 C1515 1.427 . S
N1523 C1521 1.384 . S
H1524 C1530 0.931 1_545 S
H1525 C1534 0.931 1_565 S
H1526 C1539 0.929 . S
H1527 C1537 0.929 . S
H1528 C1532 0.929 . S
H1529 C1538 0.929 . S
C1530 H1524 0.931 1_565 S
C1530 C1531 1.367 . S
C1530 C1538 1.378 1_565 S
C1531 C1530 1.367 . S
C1531 C1539 1.433 . S
C1532 H1528 0.929 . S
C1532 C1534 1.378 1_565 S
C1532 C1536 1.350 1_565 S
C1533 C1536 1.463 1_465 S
C1533 C1538 1.350 1_565 S
C1533 N1541 1.427 . S
C1534 H1525 0.931 1_545 S
C1534 C1532 1.378 1_545 S
C1534 C1535 1.367 . S
C1535 C1534 1.367 . S
C1535 C1537 1.433 . S
C1536 C1532 1.350 1_545 S
C1536 C1533 1.463 1_645 S
C1536 N1540 1.427 . S
C1537 H1527 0.929 . S
C1537 C1535 1.433 . S
C1537 N1540 1.384 . S
C1538 H1529 0.929 . S
C1538 C1530 1.378 1_545 S
C1538 C1533 1.350 1_545 S
C1539 H1526 0.929 . S
C1539 C1531 1.433 . S
C1539 N1541 1.384 . S
N1540 C1536 1.427 . S
N1540 C1537 1.384 . S
N1541 C1533 1.427 . S
N1541 C1539 1.384 . S
H1542 C1548 0.930 . S
H1543 C1552 0.930 . S
H1544 C1557 0.929 . S
H1545 C1555 0.929 . S
H1546 C1550 0.929 . S
H1547 C1556 0.929 . S
C1548 H1542 0.930 . S
C1548 C1549 1.367 . S
C1548 C1556 1.378 . S
C1549 C1548 1.367 . S
C1549 C1557 1.433 . S
C1550 H1546 0.929 . S
C1550 C1552 1.378 . S
C1550 C1554 1.350 . S
C1551 C1554 1.463 . S
C1551 C1556 1.350 . S
C1551 N1559 1.427 . S
C1552 H1543 0.930 . S
C1552 C1550 1.378 . S
C1552 C1553 1.367 . S
C1553 C1552 1.367 . S
C1553 C1555 1.433 . S
C1554 C1550 1.350 . S
C1554 C1551 1.463 . S
C1554 N1558 1.427 . S
C1555 H1545 0.929 . S
C1555 C1553 1.433 . S
C1555 N1558 1.384 . S
C1556 H1547 0.929 . S
C1556 C1548 1.378 . S
C1556 C1551 1.350 . S
C1557 H1544 0.929 . S
C1557 C1549 1.433 . S
C1557 N1559 1.384 . S
N1558 C1554 1.427 . S
N1558 C1555 1.384 . S
N1559 C1551 1.427 . S
N1559 C1557 1.384 . S
H1560 C1566 0.930 . S
H1561 C1570 0.930 . S
H1562 C1575 0.929 . S
H1563 C1573 0.929 . S
H1564 C1568 0.929 . S
H1565 C1574 0.929 . S
C1566 H1560 0.930 . S
C1566 C1567 1.367 . S
C1566 C1574 1.378 . S
C1567 C1566 1.367 . S
C1567 C1575 1.433 . S
C1568 H1564 0.929 . S
C1568 C1570 1.378 . S
C1568 C1572 1.350 . S
C1569 C1572 1.463 . S
C1569 C1574 1.350 . S
C1569 N1577 1.427 . S
C1570 H1561 0.930 . S
C1570 C1568 1.378 . S
C1570 C1571 1.367 . S
C1571 C1570 1.367 . S
C1571 C1573 1.433 . S
C1572 C1568 1.350 . S
C1572 C1569 1.463 . S
C1572 N1576 1.427 . S
C1573 H1563 0.929 . S
C1573 C1571 1.433 . S
C1573 N1576 1.384 . S
C1574 H1565 0.929 . S
C1574 C1566 1.378 . S
C1574 C1569 1.350 . S
C1575 H1562 0.929 . S
C1575 C1567 1.433 . S
C1575 N1577 1.384 . S
N1576 C1572 1.427 . S
N1576 C1573 1.384 . S
N1577 C1569 1.427 . S
N1577 C1575 1.384 . S
H1578 C1584 0.930 . S
H1579 C1588 0.930 . S
H1580 C1593 0.929 . S
H1581 C1591 0.929 . S
H1582 C1586 0.929 . S
H1583 C1592 0.929 . S
C1584 H1578 0.930 . S
C1584 C1585 1.367 . S
C1584 C1592 1.378 . S
C1585 C1584 1.367 . S
C1585 C1593 1.433 . S
C1586 H1582 0.929 . S
C1586 C1588 1.378 . S
C1586 C1590 1.350 . S
C1587 C1590 1.463 . S
C1587 C1592 1.350 . S
C1587 N1595 1.427 . S
C1588 H1579 0.930 . S
C1588 C1586 1.378 . S
C1588 C1589 1.367 . S
C1589 C1588 1.367 . S
C1589 C1591 1.433 . S
C1590 C1586 1.350 . S
C1590 C1587 1.463 . S
C1590 N1594 1.427 . S
C1591 H1581 0.929 . S
C1591 C1589 1.433 . S
C1591 N1594 1.384 . S
C1592 H1583 0.929 . S
C1592 C1584 1.378 . S
C1592 C1587 1.350 . S
C1593 H1580 0.929 . S
C1593 C1585 1.433 . S
C1593 N1595 1.384 . S
N1594 C1590 1.427 . S
N1594 C1591 1.384 . S
N1595 C1587 1.427 . S
N1595 C1593 1.384 . S
H1596 C1602 0.930 . S
H1597 C1606 0.930 . S
H1598 C1611 0.929 . S
H1599 C1609 0.929 . S
H1600 C1604 0.929 . S
H1601 C1610 0.929 . S
C1602 H1596 0.930 . S
C1602 C1603 1.367 . S
C1602 C1610 1.378 . S
C1603 C1602 1.367 . S
C1603 C1611 1.433 . S
C1604 H1600 0.929 . S
C1604 C1606 1.378 . S
C1604 C1608 1.350 . S
C1605 C1608 1.463 1_455 S
C1605 C1610 1.350 . S
C1605 N1613 1.427 . S
C1606 H1597 0.930 . S
C1606 C1604 1.378 . S
C1606 C1607 1.367 . S
C1607 C1606 1.367 . S
C1607 C1609 1.433 . S
C1608 C1604 1.350 . S
C1608 C1605 1.463 1_655 S
C1608 N1612 1.427 . S
C1609 H1599 0.929 . S
C1609 C1607 1.433 . S
C1609 N1612 1.384 . S
C1610 H1601 0.929 . S
C1610 C1602 1.378 . S
C1610 C1605 1.350 . S
C1611 H1598 0.929 . S
C1611 C1603 1.433 . S
C1611 N1613 1.384 . S
N1612 C1608 1.427 . S
N1612 C1609 1.384 . S
N1613 C1605 1.427 . S
N1613 C1611 1.384 . S
H1614 C1620 0.930 . S
H1615 C1624 0.930 . S
H1616 C1629 0.929 . S
H1617 C1627 0.929 . S
H1618 C1622 0.929 . S
H1619 C1628 0.929 . S
C1620 H1614 0.930 . S
C1620 C1621 1.367 1_556 S
C1620 C1628 1.378 . S
C1621 C1620 1.367 1_554 S
C1621 C1629 1.433 . S
C1622 H1618 0.929 . S
C1622 C1624 1.378 . S
C1622 C1626 1.322 1_554 S
C1623 C1626 1.458 1_554 S
C1623 C1628 1.322 1_554 S
C1623 N1631 1.463 . S
C1624 H1615 0.930 . S
C1624 C1622 1.378 . S
C1624 C1625 1.367 1_554 S
C1625 C1624 1.367 1_556 S
C1625 C1627 1.433 . S
C1626 C1622 1.322 1_556 S
C1626 C1623 1.458 1_556 S
C1626 N1630 1.463 . S
C1627 H1617 0.929 . S
C1627 C1625 1.433 . S
C1627 N1630 1.384 . S
C1628 H1619 0.929 . S
C1628 C1620 1.378 . S
C1628 C1623 1.322 1_556 S
C1629 H1616 0.929 . S
C1629 C1621 1.433 . S
C1629 N1631 1.384 . S
N1630 C1626 1.463 . S
N1630 C1627 1.384 . S
N1631 C1623 1.463 . S
N1631 C1629 1.384 . S
H1632 C1638 0.930 . S
H1633 C1642 0.930 . S
H1634 C1647 0.929 . S
H1635 C1645 0.929 . S
H1636 C1640 0.929 . S
H1637 C1646 0.929 . S
C1638 H1632 0.930 . S
C1638 C1639 1.367 . S
C1638 C1646 1.378 . S
C1639 C1638 1.367 . S
C1639 C1647 1.433 . S
C1640 H1636 0.929 . S
C1640 C1642 1.378 . S
C1640 C1644 1.350 . S
C1641 C1644 1.463 . S
C1641 C1646 1.350 . S
C1641 N1649 1.427 . S
C1642 H1633 0.930 . S
C1642 C1640 1.378 . S
C1642 C1643 1.367 . S
C1643 C1642 1.367 . S
C1643 C1645 1.433 . S
C1644 C1640 1.350 . S
C1644 C1641 1.463 . S
C1644 N1648 1.427 . S
C1645 H1635 0.929 . S
C1645 C1643 1.433 . S
C1645 N1648 1.384 . S
C1646 H1637 0.929 . S
C1646 C1638 1.378 . S
C1646 C1641 1.350 . S
C1647 H1634 0.929 . S
C1647 C1639 1.433 . S
C1647 N1649 1.384 . S
N1648 C1644 1.427 . S
N1648 C1645 1.384 . S
N1649 C1641 1.427 . S
N1649 C1647 1.384 . S
H1650 C1656 0.930 . S
H1651 C1660 0.930 . S
H1652 C1665 0.929 . S
H1653 C1663 0.929 . S
H1654 C1658 0.929 . S
H1655 C1664 0.929 . S
C1656 H1650 0.930 . S
C1656 C1657 1.367 . S
C1656 C1664 1.378 . S
C1657 C1656 1.367 . S
C1657 C1665 1.433 . S
C1658 H1654 0.929 . S
C1658 C1660 1.378 . S
C1658 C1662 1.350 . S
C1659 C1662 1.463 . S
C1659 C1664 1.350 . S
C1659 N1667 1.427 . S
C1660 H1651 0.930 . S
C1660 C1658 1.378 . S
C1660 C1661 1.367 . S
C1661 C1660 1.367 . S
C1661 C1663 1.433 . S
C1662 C1658 1.350 . S
C1662 C1659 1.463 . S
C1662 N1666 1.427 . S
C1663 H1653 0.929 . S
C1663 C1661 1.433 . S
C1663 N1666 1.384 . S
C1664 H1655 0.929 . S
C1664 C1656 1.378 . S
C1664 C1659 1.350 . S
C1665 H1652 0.929 . S
C1665 C1657 1.433 . S
C1665 N1667 1.384 . S
N1666 C1662 1.427 . S
N1666 C1663 1.384 . S
N1667 C1659 1.427 . S
N1667 C1665 1.384 . S
H1668 C1674 0.930 . S
H1669 C1678 0.930 . S
H1670 C1683 0.929 . S
H1671 C1681 0.929 . S
H1672 C1676 0.929 . S
H1673 C1682 0.929 . S
C1674 H1668 0.930 . S
C1674 C1675 1.367 . S
C1674 C1682 1.378 . S
C1675 C1674 1.367 . S
C1675 C1683 1.433 . S
C1676 H1672 0.929 . S
C1676 C1678 1.378 . S
C1676 C1680 1.350 . S
C1677 C1680 1.463 . S
C1677 C1682 1.350 . S
C1677 N1685 1.427 . S
C1678 H1669 0.930 . S
C1678 C1676 1.378 . S
C1678 C1679 1.367 . S
C1679 C1678 1.367 . S
C1679 C1681 1.433 . S
C1680 C1676 1.350 . S
C1680 C1677 1.463 . S
C1680 N1684 1.427 . S
C1681 H1671 0.929 . S
C1681 C1679 1.433 . S
C1681 N1684 1.384 . S
C1682 H1673 0.929 . S
C1682 C1674 1.378 . S
C1682 C1677 1.350 . S
C1683 H1670 0.929 . S
C1683 C1675 1.433 . S
C1683 N1685 1.384 . S
N1684 C1680 1.427 . S
N1684 C1681 1.384 . S
N1685 C1677 1.427 . S
N1685 C1683 1.384 . S
H1686 C1692 0.930 . S
H1687 C1696 0.930 . S
H1688 C1701 0.929 . S
H1689 C1699 0.929 . S
H1690 C1694 0.929 . S
H1691 C1700 0.929 . S
C1692 H1686 0.930 . S
C1692 C1693 1.367 . S
C1692 C1700 1.378 . S
C1693 C1692 1.367 . S
C1693 C1701 1.433 . S
C1694 H1690 0.929 . S
C1694 C1696 1.378 . S
C1694 C1698 1.350 . S
C1695 C1698 1.463 . S
C1695 C1700 1.350 . S
C1695 N1703 1.427 . S
C1696 H1687 0.930 . S
C1696 C1694 1.378 . S
C1696 C1697 1.367 . S
C1697 C1696 1.367 . S
C1697 C1699 1.433 . S
C1698 C1694 1.350 . S
C1698 C1695 1.463 . S
C1698 N1702 1.427 . S
C1699 H1689 0.929 . S
C1699 C1697 1.433 . S
C1699 N1702 1.384 . S
C1700 H1691 0.929 . S
C1700 C1692 1.378 . S
C1700 C1695 1.350 . S
C1701 H1688 0.929 . S
C1701 C1693 1.433 . S
C1701 N1703 1.384 . S
N1702 C1698 1.427 . S
N1702 C1699 1.384 . S
N1703 C1695 1.427 . S
N1703 C1701 1.384 . S
H1704 C1710 0.930 . S
H1705 C1714 0.930 . S
H1706 C1719 0.929 . S
H1707 C1717 0.929 . S
H1708 C1712 0.929 . S
H1709 C1718 0.929 . S
C1710 H1704 0.930 . S
C1710 C1711 1.367 . S
C1710 C1718 1.378 . S
C1711 C1710 1.367 . S
C1711 C1719 1.433 . S
C1712 H1708 0.929 . S
C1712 C1714 1.378 . S
C1712 C1716 1.350 . S
C1713 C1716 1.463 . S
C1713 C1718 1.350 . S
C1713 N1721 1.427 . S
C1714 H1705 0.930 . S
C1714 C1712 1.378 . S
C1714 C1715 1.367 . S
C1715 C1714 1.367 . S
C1715 C1717 1.433 . S
C1716 C1712 1.350 . S
C1716 C1713 1.463 . S
C1716 N1720 1.427 . S
C1717 H1707 0.929 . S
C1717 C1715 1.433 . S
C1717 N1720 1.384 . S
C1718 H1709 0.929 . S
C1718 C1710 1.378 . S
C1718 C1713 1.350 . S
C1719 H1706 0.929 . S
C1719 C1711 1.433 . S
C1719 N1721 1.384 . S
N1720 C1716 1.427 . S
N1720 C1717 1.384 . S
N1721 C1713 1.427 . S
N1721 C1719 1.384 . S
H1722 C1728 0.930 . S
H1723 C1732 0.930 . S
H1724 C1737 0.929 . S
H1725 C1735 0.929 . S
H1726 C1730 0.929 . S
H1727 C1736 0.929 . S
C1728 H1722 0.930 . S
C1728 C1729 1.367 . S
C1728 C1736 1.378 . S
C1729 C1728 1.367 . S
C1729 C1737 1.433 . S
C1730 H1726 0.929 . S
C1730 C1732 1.378 . S
C1730 C1734 1.350 . S
C1731 C1734 1.463 . S
C1731 C1736 1.350 . S
C1731 N1739 1.427 . S
C1732 H1723 0.930 . S
C1732 C1730 1.378 . S
C1732 C1733 1.367 . S
C1733 C1732 1.367 . S
C1733 C1735 1.433 . S
C1734 C1730 1.350 . S
C1734 C1731 1.463 . S
C1734 N1738 1.427 . S
C1735 H1725 0.929 . S
C1735 C1733 1.433 . S
C1735 N1738 1.384 . S
C1736 H1727 0.929 . S
C1736 C1728 1.378 . S
C1736 C1731 1.350 . S
C1737 H1724 0.929 . S
C1737 C1729 1.433 . S
C1737 N1739 1.384 . S
N1738 C1734 1.427 . S
N1738 C1735 1.384 . S
N1739 C1731 1.427 . S
N1739 C1737 1.384 . S
H1740 C1746 0.930 . S
H1741 C1750 0.930 . S
H1742 C1755 0.929 . S
H1743 C1753 0.929 . S
H1744 C1748 0.929 . S
H1745 C1754 0.929 . S
C1746 H1740 0.930 . S
C1746 C1747 1.367 . S
C1746 C1754 1.378 . S
C1747 C1746 1.367 . S
C1747 C1755 1.433 . S
C1748 H1744 0.929 . S
C1748 C1750 1.378 . S
C1748 C1752 1.350 . S
C1749 C1752 1.463 . S
C1749 C1754 1.350 . S
C1749 N1757 1.427 . S
C1750 H1741 0.930 . S
C1750 C1748 1.378 . S
C1750 C1751 1.367 . S
C1751 C1750 1.367 . S
C1751 C1753 1.433 . S
C1752 C1748 1.350 . S
C1752 C1749 1.463 . S
C1752 N1756 1.427 . S
C1753 H1743 0.929 . S
C1753 C1751 1.433 . S
C1753 N1756 1.384 . S
C1754 H1745 0.929 . S
C1754 C1746 1.378 . S
C1754 C1749 1.350 . S
C1755 H1742 0.929 . S
C1755 C1747 1.433 . S
C1755 N1757 1.384 . S
N1756 C1752 1.427 . S
N1756 C1753 1.384 . S
N1757 C1749 1.427 . S
N1757 C1755 1.384 . S
H1758 C1764 0.930 . S
H1759 C1768 0.930 . S
H1760 C1773 0.929 . S
H1761 C1771 0.929 . S
H1762 C1766 0.929 . S
H1763 C1772 0.929 . S
C1764 H1758 0.930 . S
C1764 C1765 1.367 . S
C1764 C1772 1.378 . S
C1765 C1764 1.367 . S
C1765 C1773 1.433 . S
C1766 H1762 0.929 . S
C1766 C1768 1.378 . S
C1766 C1770 1.350 . S
C1767 C1770 1.463 . S
C1767 C1772 1.350 . S
C1767 N1775 1.427 . S
C1768 H1759 0.930 . S
C1768 C1766 1.378 . S
C1768 C1769 1.367 . S
C1769 C1768 1.367 . S
C1769 C1771 1.433 . S
C1770 C1766 1.350 . S
C1770 C1767 1.463 . S
C1770 N1774 1.427 . S
C1771 H1761 0.929 . S
C1771 C1769 1.433 . S
C1771 N1774 1.384 . S
C1772 H1763 0.929 . S
C1772 C1764 1.378 . S
C1772 C1767 1.350 . S
C1773 H1760 0.929 . S
C1773 C1765 1.433 . S
C1773 N1775 1.384 . S
N1774 C1770 1.427 . S
N1774 C1771 1.384 . S
N1775 C1767 1.427 . S
N1775 C1773 1.384 . S
H1776 C1782 0.930 . S
H1777 C1786 0.930 . S
H1778 C1791 0.929 . S
H1779 C1789 0.929 . S
H1780 C1784 0.929 . S
H1781 C1790 0.929 . S
C1782 H1776 0.930 . S
C1782 C1783 1.367 . S
C1782 C1790 1.378 . S
C1783 C1782 1.367 . S
C1783 C1791 1.433 . S
C1784 H1780 0.929 . S
C1784 C1786 1.378 . S
C1784 C1788 1.350 . S
C1785 C1788 1.463 . S
C1785 C1790 1.350 . S
C1785 N1793 1.427 . S
C1786 H1777 0.930 . S
C1786 C1784 1.378 . S
C1786 C1787 1.367 . S
C1787 C1786 1.367 . S
C1787 C1789 1.433 . S
C1788 C1784 1.350 . S
C1788 C1785 1.463 . S
C1788 N1792 1.427 . S
C1789 H1779 0.929 . S
C1789 C1787 1.433 . S
C1789 N1792 1.384 . S
C1790 H1781 0.929 . S
C1790 C1782 1.378 . S
C1790 C1785 1.350 . S
C1791 H1778 0.929 . S
C1791 C1783 1.433 . S
C1791 N1793 1.384 . S
N1792 C1788 1.427 . S
N1792 C1789 1.384 . S
N1793 C1785 1.427 . S
N1793 C1791 1.384 . S
H1794 C1800 0.930 . S
H1795 C1804 0.930 . S
H1796 C1809 0.929 . S
H1797 C1807 0.929 . S
H1798 C1802 0.929 . S
H1799 C1808 0.929 . S
C1800 H1794 0.930 . S
C1800 C1801 1.367 . S
C1800 C1808 1.378 . S
C1801 C1800 1.367 . S
C1801 C1809 1.433 . S
C1802 H1798 0.929 . S
C1802 C1804 1.378 . S
C1802 C1806 1.350 . S
C1803 C1806 1.463 . S
C1803 C1808 1.350 . S
C1803 N1811 1.427 . S
C1804 H1795 0.930 . S
C1804 C1802 1.378 . S
C1804 C1805 1.367 . S
C1805 C1804 1.367 . S
C1805 C1807 1.433 . S
C1806 C1802 1.350 . S
C1806 C1803 1.463 . S
C1806 N1810 1.427 . S
C1807 H1797 0.929 . S
C1807 C1805 1.433 . S
C1807 N1810 1.384 . S
C1808 H1799 0.929 . S
C1808 C1800 1.378 . S
C1808 C1803 1.350 . S
C1809 H1796 0.929 . S
C1809 C1801 1.433 . S
C1809 N1811 1.384 . S
N1810 C1806 1.427 . S
N1810 C1807 1.384 . S
N1811 C1803 1.427 . S
N1811 C1809 1.384 . S
H1812 C1818 0.930 . S
H1813 C1822 0.930 . S
H1814 C1827 0.929 . S
H1815 C1825 0.929 . S
H1816 C1820 0.929 . S
H1817 C1826 0.929 . S
C1818 H1812 0.930 . S
C1818 C1819 1.367 . S
C1818 C1826 1.378 . S
C1819 C1818 1.367 . S
C1819 C1827 1.433 . S
C1820 H1816 0.929 . S
C1820 C1822 1.378 . S
C1820 C1824 1.350 . S
C1821 C1824 1.463 . S
C1821 C1826 1.350 . S
C1821 N1829 1.427 . S
C1822 H1813 0.930 . S
C1822 C1820 1.378 . S
C1822 C1823 1.367 . S
C1823 C1822 1.367 . S
C1823 C1825 1.433 . S
C1824 C1820 1.350 . S
C1824 C1821 1.463 . S
C1824 N1828 1.427 . S
C1825 H1815 0.929 . S
C1825 C1823 1.433 . S
C1825 N1828 1.384 . S
C1826 H1817 0.929 . S
C1826 C1818 1.378 . S
C1826 C1821 1.350 . S
C1827 H1814 0.929 . S
C1827 C1819 1.433 . S
C1827 N1829 1.384 . S
N1828 C1824 1.427 . S
N1828 C1825 1.384 . S
N1829 C1821 1.427 . S
N1829 C1827 1.384 . S
H1830 C1836 0.930 . S
H1831 C1840 0.930 . S
H1832 C1845 0.929 . S
H1833 C1843 0.929 . S
H1834 C1838 0.929 . S
H1835 C1844 0.929 . S
C1836 H1830 0.930 . S
C1836 C1837 1.367 . S
C1836 C1844 1.378 . S
C1837 C1836 1.367 . S
C1837 C1845 1.433 . S
C1838 H1834 0.929 . S
C1838 C1840 1.378 . S
C1838 C1842 1.350 . S
C1839 C1842 1.463 . S
C1839 C1844 1.350 . S
C1839 N1847 1.427 . S
C1840 H1831 0.930 . S
C1840 C1838 1.378 . S
C1840 C1841 1.367 . S
C1841 C1840 1.367 . S
C1841 C1843 1.433 . S
C1842 C1838 1.350 . S
C1842 C1839 1.463 . S
C1842 N1846 1.427 . S
C1843 H1833 0.929 . S
C1843 C1841 1.433 . S
C1843 N1846 1.384 . S
C1844 H1835 0.929 . S
C1844 C1836 1.378 . S
C1844 C1839 1.350 . S
C1845 H1832 0.929 . S
C1845 C1837 1.433 . S
C1845 N1847 1.384 . S
N1846 C1842 1.427 . S
N1846 C1843 1.384 . S
N1847 C1839 1.427 . S
N1847 C1845 1.384 . S
H1848 C1854 0.930 . S
H1849 C1858 0.930 . S
H1850 C1863 0.929 . S
H1851 C1861 0.929 . S
H1852 C1856 0.929 . S
H1853 C1862 0.929 . S
C1854 H1848 0.930 . S
C1854 C1855 1.367 . S
C1854 C1862 1.378 . S
C1855 C1854 1.367 . S
C1855 C1863 1.433 . S
C1856 H1852 0.929 . S
C1856 C1858 1.378 . S
C1856 C1860 1.350 . S
C1857 C1860 1.463 . S
C1857 C1862 1.350 . S
C1857 N1865 1.427 . S
C1858 H1849 0.930 . S
C1858 C1856 1.378 . S
C1858 C1859 1.367 . S
C1859 C1858 1.367 . S
C1859 C1861 1.433 . S
C1860 C1856 1.350 . S
C1860 C1857 1.463 . S
C1860 N1864 1.427 . S
C1861 H1851 0.929 . S
C1861 C1859 1.433 . S
C1861 N1864 1.384 . S
C1862 H1853 0.929 . S
C1862 C1854 1.378 . S
C1862 C1857 1.350 . S
C1863 H1850 0.929 . S
C1863 C1855 1.433 . S
C1863 N1865 1.384 . S
N1864 C1860 1.427 . S
N1864 C1861 1.384 . S
N1865 C1857 1.427 . S
N1865 C1863 1.384 . S
H1866 C1872 0.930 . S
H1867 C1876 0.930 . S
H1868 C1881 0.929 . S
H1869 C1879 0.929 . S
H1870 C1874 0.929 . S
H1871 C1880 0.929 . S
C1872 H1866 0.930 . S
C1872 C1873 1.367 . S
C1872 C1880 1.378 . S
C1873 C1872 1.367 . S
C1873 C1881 1.433 . S
C1874 H1870 0.929 . S
C1874 C1876 1.378 . S
C1874 C1878 1.350 . S
C1875 C1878 1.463 . S
C1875 C1880 1.350 . S
C1875 N1883 1.427 . S
C1876 H1867 0.930 . S
C1876 C1874 1.378 . S
C1876 C1877 1.367 . S
C1877 C1876 1.367 . S
C1877 C1879 1.433 . S
C1878 C1874 1.350 . S
C1878 C1875 1.463 . S
C1878 N1882 1.427 . S
C1879 H1869 0.929 . S
C1879 C1877 1.433 . S
C1879 N1882 1.384 . S
C1880 H1871 0.929 . S
C1880 C1872 1.378 . S
C1880 C1875 1.350 . S
C1881 H1868 0.929 . S
C1881 C1873 1.433 . S
C1881 N1883 1.384 . S
N1882 C1878 1.427 . S
N1882 C1879 1.384 . S
N1883 C1875 1.427 . S
N1883 C1881 1.384 . S
H1884 C1890 0.930 . S
H1885 C1894 0.930 . S
H1886 C1899 0.929 . S
H1887 C1897 0.929 . S
H1888 C1892 0.929 . S
H1889 C1898 0.929 . S
C1890 H1884 0.930 . S
C1890 C1891 1.367 . S
C1890 C1898 1.378 . S
C1891 C1890 1.367 . S
C1891 C1899 1.433 . S
C1892 H1888 0.929 . S
C1892 C1894 1.378 . S
C1892 C1896 1.350 . S
C1893 C1896 1.463 . S
C1893 C1898 1.350 . S
C1893 N1901 1.427 . S
C1894 H1885 0.930 . S
C1894 C1892 1.378 . S
C1894 C1895 1.367 . S
C1895 C1894 1.367 . S
C1895 C1897 1.433 . S
C1896 C1892 1.350 . S
C1896 C1893 1.463 . S
C1896 N1900 1.427 . S
C1897 H1887 0.929 . S
C1897 C1895 1.433 . S
C1897 N1900 1.384 . S
C1898 H1889 0.929 . S
C1898 C1890 1.378 . S
C1898 C1893 1.350 . S
C1899 H1886 0.929 . S
C1899 C1891 1.433 . S
C1899 N1901 1.384 . S
N1900 C1896 1.427 . S
N1900 C1897 1.384 . S
N1901 C1893 1.427 . S
N1901 C1899 1.384 . S
H1902 C1908 0.930 . S
H1903 C1912 0.930 . S
H1904 C1917 0.929 . S
H1905 C1915 0.929 . S
H1906 C1910 0.929 . S
H1907 C1916 0.929 . S
C1908 H1902 0.930 . S
C1908 C1909 1.367 . S
C1908 C1916 1.378 . S
C1909 C1908 1.367 . S
C1909 C1917 1.433 . S
C1910 H1906 0.929 . S
C1910 C1912 1.378 . S
C1910 C1914 1.350 . S
C1911 C1914 1.463 . S
C1911 C1916 1.350 . S
C1911 N1919 1.427 . S
C1912 H1903 0.930 . S
C1912 C1910 1.378 . S
C1912 C1913 1.367 . S
C1913 C1912 1.367 . S
C1913 C1915 1.433 . S
C1914 C1910 1.350 . S
C1914 C1911 1.463 . S
C1914 N1918 1.427 . S
C1915 H1905 0.929 . S
C1915 C1913 1.433 . S
C1915 N1918 1.384 . S
C1916 H1907 0.929 . S
C1916 C1908 1.378 . S
C1916 C1911 1.350 . S
C1917 H1904 0.929 . S
C1917 C1909 1.433 . S
C1917 N1919 1.384 . S
N1918 C1914 1.427 . S
N1918 C1915 1.384 . S
N1919 C1911 1.427 . S
N1919 C1917 1.384 . S
H1920 C1926 0.930 1_554 S
H1921 C1930 0.930 . S
H1922 C1935 0.929 . S
H1923 C1933 0.929 . S
H1924 C1928 0.929 . S
H1925 C1934 0.929 . S
C1926 H1920 0.930 1_556 S
C1926 C1927 1.367 . S
C1926 C1934 1.378 . S
C1927 C1926 1.367 . S
C1927 C1935 1.433 . S
C1928 H1924 0.929 . S
C1928 C1930 1.378 . S
C1928 C1932 1.350 . S
C1929 C1932 1.463 . S
C1929 C1934 1.350 . S
C1929 N1937 1.427 . S
C1930 H1921 0.930 . S
C1930 C1928 1.378 . S
C1930 C1931 1.367 . S
C1931 C1930 1.367 . S
C1931 C1933 1.433 . S
C1932 C1928 1.350 . S
C1932 C1929 1.463 . S
C1932 N1936 1.427 . S
C1933 H1923 0.929 . S
C1933 C1931 1.433 . S
C1933 N1936 1.384 . S
C1934 H1925 0.929 . S
C1934 C1926 1.378 . S
C1934 C1929 1.350 . S
C1935 H1922 0.929 . S
C1935 C1927 1.433 . S
C1935 N1937 1.384 . S
N1936 C1932 1.427 . S
N1936 C1933 1.384 . S
N1937 C1929 1.427 . S
N1937 C1935 1.384 . S
H1938 C1944 0.930 . S
H1939 C1948 0.930 . S
H1940 C1953 0.929 . S
H1941 C1951 0.929 . S
H1942 C1946 0.929 . S
H1943 C1952 0.929 . S
C1944 H1938 0.930 . S
C1944 C1945 1.367 . S
C1944 C1952 1.378 . S
C1945 C1944 1.367 . S
C1945 C1953 1.433 . S
C1946 H1942 0.929 . S
C1946 C1948 1.378 . S
C1946 C1950 1.350 . S
C1947 C1950 1.463 . S
C1947 C1952 1.350 . S
C1947 N1955 1.427 . S
C1948 H1939 0.930 . S
C1948 C1946 1.378 . S
C1948 C1949 1.367 . S
C1949 C1948 1.367 . S
C1949 C1951 1.433 . S
C1950 C1946 1.350 . S
C1950 C1947 1.463 . S
C1950 N1954 1.427 . S
C1951 H1941 0.929 . S
C1951 C1949 1.433 . S
C1951 N1954 1.384 . S
C1952 H1943 0.929 . S
C1952 C1944 1.378 . S
C1952 C1947 1.350 . S
C1953 H1940 0.929 . S
C1953 C1945 1.433 . S
C1953 N1955 1.384 . S
N1954 C1950 1.427 . S
N1954 C1951 1.384 . S
N1955 C1947 1.427 . S
N1955 C1953 1.384 . S
H1956 C1962 0.930 . S
H1957 C1966 0.930 . S
H1958 C1971 0.929 . S
H1959 C1969 0.929 . S
H1960 C1964 0.929 . S
H1961 C1970 0.929 . S
C1962 H1956 0.930 . S
C1962 C1963 1.367 . S
C1962 C1970 1.378 . S
C1963 C1962 1.367 . S
C1963 C1971 1.433 . S
C1964 H1960 0.929 . S
C1964 C1966 1.378 . S
C1964 C1968 1.350 . S
C1965 C1968 1.463 . S
C1965 C1970 1.350 . S
C1965 N1973 1.427 . S
C1966 H1957 0.930 . S
C1966 C1964 1.378 . S
C1966 C1967 1.367 . S
C1967 C1966 1.367 . S
C1967 C1969 1.433 . S
C1968 C1964 1.350 . S
C1968 C1965 1.463 . S
C1968 N1972 1.427 . S
C1969 H1959 0.929 . S
C1969 C1967 1.433 . S
C1969 N1972 1.384 . S
C1970 H1961 0.929 . S
C1970 C1962 1.378 . S
C1970 C1965 1.350 . S
C1971 H1958 0.929 . S
C1971 C1963 1.433 . S
C1971 N1973 1.384 . S
N1972 C1968 1.427 . S
N1972 C1969 1.384 . S
N1973 C1965 1.427 . S
N1973 C1971 1.384 . S
H1974 C1980 0.930 . S
H1975 C1984 0.930 . S
H1976 C1989 0.929 . S
H1977 C1987 0.929 . S
H1978 C1982 0.929 . S
H1979 C1988 0.929 . S
C1980 H1974 0.930 . S
C1980 C1981 1.367 . S
C1980 C1988 1.378 . S
C1981 C1980 1.367 . S
C1981 C1989 1.433 . S
C1982 H1978 0.929 . S
C1982 C1984 1.378 . S
C1982 C1986 1.350 . S
C1983 C1986 1.463 . S
C1983 C1988 1.350 . S
C1983 N1991 1.427 . S
C1984 H1975 0.930 . S
C1984 C1982 1.378 . S
C1984 C1985 1.367 . S
C1985 C1984 1.367 . S
C1985 C1987 1.433 . S
C1986 C1982 1.350 . S
C1986 C1983 1.463 . S
C1986 N1990 1.427 . S
C1987 H1977 0.929 . S
C1987 C1985 1.433 . S
C1987 N1990 1.384 . S
C1988 H1979 0.929 . S
C1988 C1980 1.378 . S
C1988 C1983 1.350 . S
C1989 H1976 0.929 . S
C1989 C1981 1.433 . S
C1989 N1991 1.384 . S
N1990 C1986 1.427 . S
N1990 C1987 1.384 . S
N1991 C1983 1.427 . S
N1991 C1989 1.384 . S
H1992 C1998 0.930 . S
H1993 C2002 0.930 1_556 S
H1994 C2007 0.929 . S
H1995 C2005 0.929 . S
H1996 C2000 0.929 . S
H1997 C2006 0.929 . S
C1998 H1992 0.930 . S
C1998 C1999 1.367 . S
C1998 C2006 1.378 . S
C1999 C1998 1.367 . S
C1999 C2007 1.433 . S
C2000 H1996 0.929 . S
C2000 C2002 1.378 . S
C2000 C2004 1.350 . S
C2001 C2004 1.463 . S
C2001 C2006 1.350 . S
C2001 N2009 1.427 . S
C2002 H1993 0.930 1_554 S
C2002 C2000 1.378 . S
C2002 C2003 1.367 . S
C2003 C2002 1.367 . S
C2003 C2005 1.433 . S
C2004 C2000 1.350 . S
C2004 C2001 1.463 . S
C2004 N2008 1.427 . S
C2005 H1995 0.929 . S
C2005 C2003 1.433 . S
C2005 N2008 1.384 . S
C2006 H1997 0.929 . S
C2006 C1998 1.378 . S
C2006 C2001 1.350 . S
C2007 H1994 0.929 . S
C2007 C1999 1.433 . S
C2007 N2009 1.384 . S
N2008 C2004 1.427 . S
N2008 C2005 1.384 . S
N2009 C2001 1.427 . S
N2009 C2007 1.384 . S
H2010 C2016 0.930 . S
H2011 C2020 0.930 . S
H2012 C2025 0.929 . S
H2013 C2023 0.929 . S
H2014 C2018 0.929 . S
H2015 C2024 0.929 . S
C2016 H2010 0.930 . S
C2016 C2017 1.367 . S
C2016 C2024 1.378 . S
C2017 C2016 1.367 . S
C2017 C2025 1.433 . S
C2018 H2014 0.929 . S
C2018 C2020 1.378 . S
C2018 C2022 1.350 . S
C2019 C2022 1.463 . S
C2019 C2024 1.350 . S
C2019 N2027 1.427 . S
C2020 H2011 0.930 . S
C2020 C2018 1.378 . S
C2020 C2021 1.367 . S
C2021 C2020 1.367 . S
C2021 C2023 1.433 . S
C2022 C2018 1.350 . S
C2022 C2019 1.463 . S
C2022 N2026 1.427 . S
C2023 H2013 0.929 . S
C2023 C2021 1.433 . S
C2023 N2026 1.384 . S
C2024 H2015 0.929 . S
C2024 C2016 1.378 . S
C2024 C2019 1.350 . S
C2025 H2012 0.929 . S
C2025 C2017 1.433 . S
C2025 N2027 1.384 . S
N2026 C2022 1.427 . S
N2026 C2023 1.384 . S
N2027 C2019 1.427 . S
N2027 C2025 1.384 . S
H2028 C2034 0.930 . S
H2029 C2038 0.930 . S
H2030 C2043 0.929 . S
H2031 C2041 0.929 . S
H2032 C2036 0.929 . S
H2033 C2042 0.929 . S
C2034 H2028 0.930 . S
C2034 C2035 1.367 . S
C2034 C2042 1.378 . S
C2035 C2034 1.367 . S
C2035 C2043 1.433 . S
C2036 H2032 0.929 . S
C2036 C2038 1.378 . S
C2036 C2040 1.350 . S
C2037 C2040 1.463 . S
C2037 C2042 1.350 . S
C2037 N2045 1.427 . S
C2038 H2029 0.930 . S
C2038 C2036 1.378 . S
C2038 C2039 1.367 . S
C2039 C2038 1.367 . S
C2039 C2041 1.433 . S
C2040 C2036 1.350 . S
C2040 C2037 1.463 . S
C2040 N2044 1.427 . S
C2041 H2031 0.929 . S
C2041 C2039 1.433 . S
C2041 N2044 1.384 . S
C2042 H2033 0.929 . S
C2042 C2034 1.378 . S
C2042 C2037 1.350 . S
C2043 H2030 0.929 . S
C2043 C2035 1.433 . S
C2043 N2045 1.384 . S
N2044 C2040 1.427 . S
N2044 C2041 1.384 . S
N2045 C2037 1.427 . S
N2045 C2043 1.384 . S
H2046 C2052 0.930 . S
H2047 C2056 0.930 . S
H2048 C2061 0.929 . S
H2049 C2059 0.929 . S
H2050 C2054 0.929 . S
H2051 C2060 0.929 . S
C2052 H2046 0.930 . S
C2052 C2053 1.367 . S
C2052 C2060 1.378 . S
C2053 C2052 1.367 . S
C2053 C2061 1.433 . S
C2054 H2050 0.929 . S
C2054 C2056 1.378 . S
C2054 C2058 1.350 . S
C2055 C2058 1.463 . S
C2055 C2060 1.350 . S
C2055 N2063 1.427 . S
C2056 H2047 0.930 . S
C2056 C2054 1.378 . S
C2056 C2057 1.367 . S
C2057 C2056 1.367 . S
C2057 C2059 1.433 . S
C2058 C2054 1.350 . S
C2058 C2055 1.463 . S
C2058 N2062 1.427 . S
C2059 H2049 0.929 . S
C2059 C2057 1.433 . S
C2059 N2062 1.384 . S
C2060 H2051 0.929 . S
C2060 C2052 1.378 . S
C2060 C2055 1.350 . S
C2061 H2048 0.929 . S
C2061 C2053 1.433 . S
C2061 N2063 1.384 . S
N2062 C2058 1.427 . S
N2062 C2059 1.384 . S
N2063 C2055 1.427 . S
N2063 C2061 1.384 . S
H2064 C2070 0.930 . S
H2065 C2074 0.930 . S
H2066 C2079 0.929 . S
H2067 C2077 0.929 . S
H2068 C2072 0.929 . S
H2069 C2078 0.929 . S
C2070 H2064 0.930 . S
C2070 C2071 1.367 . S
C2070 C2078 1.378 . S
C2071 C2070 1.367 . S
C2071 C2079 1.433 . S
C2072 H2068 0.929 . S
C2072 C2074 1.378 . S
C2072 C2076 1.350 . S
C2073 C2076 1.463 . S
C2073 C2078 1.350 . S
C2073 N2081 1.427 . S
C2074 H2065 0.930 . S
C2074 C2072 1.378 . S
C2074 C2075 1.367 . S
C2075 C2074 1.367 . S
C2075 C2077 1.433 . S
C2076 C2072 1.350 . S
C2076 C2073 1.463 . S
C2076 N2080 1.427 . S
C2077 H2067 0.929 . S
C2077 C2075 1.433 . S
C2077 N2080 1.384 . S
C2078 H2069 0.929 . S
C2078 C2070 1.378 . S
C2078 C2073 1.350 . S
C2079 H2066 0.929 . S
C2079 C2071 1.433 . S
C2079 N2081 1.384 . S
N2080 C2076 1.427 . S
N2080 C2077 1.384 . S
N2081 C2073 1.427 . S
N2081 C2079 1.384 . S
H2082 C2088 0.930 . S
H2083 C2092 0.930 . S
H2084 C2097 0.929 . S
H2085 C2095 0.929 . S
H2086 C2090 0.929 . S
H2087 C2096 0.929 . S
C2088 H2082 0.930 . S
C2088 C2089 1.367 . S
C2088 C2096 1.378 . S
C2089 C2088 1.367 . S
C2089 C2097 1.433 . S
C2090 H2086 0.929 . S
C2090 C2092 1.378 . S
C2090 C2094 1.350 . S
C2091 C2094 1.463 . S
C2091 C2096 1.350 . S
C2091 N2099 1.427 . S
C2092 H2083 0.930 . S
C2092 C2090 1.378 . S
C2092 C2093 1.367 . S
C2093 C2092 1.367 . S
C2093 C2095 1.433 . S
C2094 C2090 1.350 . S
C2094 C2091 1.463 . S
C2094 N2098 1.427 . S
C2095 H2085 0.929 . S
C2095 C2093 1.433 . S
C2095 N2098 1.384 . S
C2096 H2087 0.929 . S
C2096 C2088 1.378 . S
C2096 C2091 1.350 . S
C2097 H2084 0.929 . S
C2097 C2089 1.433 . S
C2097 N2099 1.384 . S
N2098 C2094 1.427 . S
N2098 C2095 1.384 . S
N2099 C2091 1.427 . S
N2099 C2097 1.384 . S
H2100 C2106 0.930 . S
H2101 C2110 0.930 . S
H2102 C2115 0.929 . S
H2103 C2113 0.929 . S
H2104 C2108 0.929 . S
H2105 C2114 0.929 . S
C2106 H2100 0.930 . S
C2106 C2107 1.367 . S
C2106 C2114 1.378 . S
C2107 C2106 1.367 . S
C2107 C2115 1.433 . S
C2108 H2104 0.929 . S
C2108 C2110 1.378 . S
C2108 C2112 1.350 . S
C2109 C2112 1.463 . S
C2109 C2114 1.350 . S
C2109 N2117 1.427 . S
C2110 H2101 0.930 . S
C2110 C2108 1.378 . S
C2110 C2111 1.367 . S
C2111 C2110 1.367 . S
C2111 C2113 1.433 . S
C2112 C2108 1.350 . S
C2112 C2109 1.463 . S
C2112 N2116 1.427 . S
C2113 H2103 0.929 . S
C2113 C2111 1.433 . S
C2113 N2116 1.384 . S
C2114 H2105 0.929 . S
C2114 C2106 1.378 . S
C2114 C2109 1.350 . S
C2115 H2102 0.929 . S
C2115 C2107 1.433 . S
C2115 N2117 1.384 . S
N2116 C2112 1.427 . S
N2116 C2113 1.384 . S
N2117 C2109 1.427 . S
N2117 C2115 1.384 . S
H2118 C2124 0.930 . S
H2119 C2128 0.930 . S
H2120 C2133 0.931 . S
H2121 C2131 0.929 . S
H2122 C2126 0.929 . S
H2123 C2132 0.929 . S
C2124 H2118 0.930 . S
C2124 C2125 1.367 . S
C2124 C2132 1.378 . S
C2125 C2124 1.367 . S
C2125 C2133 1.433 1_545 S
C2126 H2122 0.929 . S
C2126 C2128 1.378 . S
C2126 C2130 1.350 . S
C2127 C2130 1.463 . S
C2127 C2132 1.350 . S
C2127 N2135 1.427 . S
C2128 H2119 0.930 . S
C2128 C2126 1.378 . S
C2128 C2129 1.367 . S
C2129 C2128 1.367 . S
C2129 C2131 1.433 . S
C2130 C2126 1.350 . S
C2130 C2127 1.463 . S
C2130 N2134 1.427 . S
C2131 H2121 0.929 . S
C2131 C2129 1.433 . S
C2131 N2134 1.384 . S
C2132 H2123 0.929 . S
C2132 C2124 1.378 . S
C2132 C2127 1.350 . S
C2133 H2120 0.931 . S
C2133 C2125 1.433 1_565 S
C2133 N2135 1.383 1_565 S
N2134 C2130 1.427 . S
N2134 C2131 1.384 . S
N2135 C2127 1.427 . S
N2135 C2133 1.383 1_545 S
H2136 C2142 0.930 . S
H2137 C2146 0.930 . S
H2138 C2151 0.929 . S
H2139 C2149 0.929 . S
H2140 C2144 0.929 . S
H2141 C2150 0.929 . S
C2142 H2136 0.930 . S
C2142 C2143 1.367 . S
C2142 C2150 1.378 . S
C2143 C2142 1.367 . S
C2143 C2151 1.433 . S
C2144 H2140 0.929 . S
C2144 C2146 1.378 . S
C2144 C2148 1.350 . S
C2145 C2148 1.463 . S
C2145 C2150 1.350 . S
C2145 N2153 1.427 . S
C2146 H2137 0.930 . S
C2146 C2144 1.378 . S
C2146 C2147 1.367 . S
C2147 C2146 1.367 . S
C2147 C2149 1.433 . S
C2148 C2144 1.350 . S
C2148 C2145 1.463 . S
C2148 N2152 1.427 . S
C2149 H2139 0.929 . S
C2149 C2147 1.433 . S
C2149 N2152 1.384 . S
C2150 H2141 0.929 . S
C2150 C2142 1.378 . S
C2150 C2145 1.350 . S
C2151 H2138 0.929 . S
C2151 C2143 1.433 . S
C2151 N2153 1.384 . S
N2152 C2148 1.427 . S
N2152 C2149 1.384 . S
N2153 C2145 1.427 . S
N2153 C2151 1.384 . S
H2154 C2160 0.930 . S
H2155 C2164 0.930 1_565 S
H2156 C2169 0.929 . S
H2157 C2167 0.929 . S
H2158 C2162 0.929 . S
H2159 C2168 0.929 . S
C2160 H2154 0.930 . S
C2160 C2161 1.367 . S
C2160 C2168 1.378 . S
C2161 C2160 1.367 . S
C2161 C2169 1.433 . S
C2162 H2158 0.929 . S
C2162 C2164 1.378 . S
C2162 C2166 1.350 . S
C2163 C2166 1.463 . S
C2163 C2168 1.350 . S
C2163 N2171 1.427 . S
C2164 H2155 0.930 1_545 S
C2164 C2162 1.378 . S
C2164 C2165 1.367 . S
C2165 C2164 1.367 . S
C2165 C2167 1.433 . S
C2166 C2162 1.350 . S
C2166 C2163 1.463 . S
C2166 N2170 1.427 . S
C2167 H2157 0.929 . S
C2167 C2165 1.433 . S
C2167 N2170 1.384 . S
C2168 H2159 0.929 . S
C2168 C2160 1.378 . S
C2168 C2163 1.350 . S
C2169 H2156 0.929 . S
C2169 C2161 1.433 . S
C2169 N2171 1.384 . S
N2170 C2166 1.427 . S
N2170 C2167 1.384 . S
N2171 C2163 1.427 . S
N2171 C2169 1.384 . S
H2172 C2178 0.930 . S
H2173 C2182 0.930 . S
H2174 C2187 0.929 . S
H2175 C2185 0.929 1_556 S
H2176 C2180 0.929 . S
H2177 C2186 0.929 . S
C2178 H2172 0.930 . S
C2178 C2179 1.367 . S
C2178 C2186 1.378 . S
C2179 C2178 1.367 . S
C2179 C2187 1.433 . S
C2180 H2176 0.929 . S
C2180 C2182 1.378 . S
C2180 C2184 1.350 . S
C2181 C2184 1.463 . S
C2181 C2186 1.350 . S
C2181 N2189 1.427 . S
C2182 H2173 0.930 . S
C2182 C2180 1.378 . S
C2182 C2183 1.367 . S
C2183 C2182 1.367 . S
C2183 C2185 1.433 . S
C2184 C2180 1.350 . S
C2184 C2181 1.463 . S
C2184 N2188 1.427 . S
C2185 H2175 0.929 1_554 S
C2185 C2183 1.433 . S
C2185 N2188 1.384 . S
C2186 H2177 0.929 . S
C2186 C2178 1.378 . S
C2186 C2181 1.350 . S
C2187 H2174 0.929 . S
C2187 C2179 1.433 . S
C2187 N2189 1.384 . S
N2188 C2184 1.427 . S
N2188 C2185 1.384 . S
N2189 C2181 1.427 . S
N2189 C2187 1.384 . S
H2190 C2196 0.930 . S
H2191 C2200 0.930 . S
H2192 C2205 0.929 . S
H2193 C2203 0.929 1_545 S
H2194 C2198 0.929 . S
H2195 C2204 0.929 . S
C2196 H2190 0.930 . S
C2196 C2197 1.367 . S
C2196 C2204 1.378 . S
C2197 C2196 1.367 . S
C2197 C2205 1.433 . S
C2198 H2194 0.929 . S
C2198 C2200 1.378 . S
C2198 C2202 1.350 . S
C2199 C2202 1.463 . S
C2199 C2204 1.350 . S
C2199 N2207 1.427 . S
C2200 H2191 0.930 . S
C2200 C2198 1.378 . S
C2200 C2201 1.367 . S
C2201 C2200 1.367 . S
C2201 C2203 1.433 . S
C2202 C2198 1.350 . S
C2202 C2199 1.463 . S
C2202 N2206 1.427 . S
C2203 H2193 0.929 1_565 S
C2203 C2201 1.433 . S
C2203 N2206 1.384 . S
C2204 H2195 0.929 . S
C2204 C2196 1.378 . S
C2204 C2199 1.350 . S
C2205 H2192 0.929 . S
C2205 C2197 1.433 . S
C2205 N2207 1.384 . S
N2206 C2202 1.427 . S
N2206 C2203 1.384 . S
N2207 C2199 1.427 . S
N2207 C2205 1.384 . S
C1351 C63 3.041 . S
C1355 C903 3.047 . S
C1369 C147 3.045 . S
C1373 C987 3.047 . S
C1387 C231 3.048 . S
C1391 C735 3.044 . S
C1405 C819 3.045 . S
C1409 C315 3.041 . S
C1423 C410 3.041 . S
C1427 C1250 3.045 . S
C1441 C1334 3.041 . S
C1445 C494 3.046 . S
C1459 C1082 3.041 . S
C1463 C578 3.047 . S
C1477 C662 3.041 . S
C1481 C1166 3.046 . S
C1495 C58 0.647 . S
C1499 C405 0.647 . S
C1513 C142 0.655 . S
C1517 C1161 0.655 . S
C1531 C226 0.668 . S
C1535 C573 0.668 . S
C1549 C310 0.679 . S
C1553 C1329 0.679 . S
C1567 C489 0.658 . S
C1571 C814 0.658 . S
C1585 C982 0.678 . S
C1589 C657 0.678 . S
C1603 C1077 0.680 . S
C1607 C730 0.680 . S
C1621 C898 0.680 . S
C1625 C1245 0.680 . S
C1639 C69 0.803 . S
C1643 C651 1.053 . S
C1657 C153 0.828 . S
C1661 C1071 1.052 . S
C1675 C237 0.827 . S
C1679 C483 1.064 . S
C1693 C321 0.830 . S
C1697 C1239 1.052 . S
C1711 C326 1.064 . S
C1715 C394 0.839 . S
C1729 C478 0.843 . S
C1733 C746 1.064 . S
C1747 C562 0.809 . S
C1751 C158 1.052 . S
C1765 C914 1.063 . S
C1769 C646 0.817 . S
C1783 C741 0.805 . S
C1787 C1323 1.052 . S
C1801 C399 1.052 . S
C1805 C825 0.807 . S
C1819 C1155 1.053 . S
C1823 C909 0.803 . S
C1837 C567 1.057 . S
C1841 C993 0.849 . S
C1855 C1066 0.808 . S
C1859 C998 1.052 . S
C1873 C1150 0.849 . S
C1877 C74 1.063 . S
C1891 C830 1.060 . S
C1895 C1234 0.851 . S
C1909 C1318 0.818 . S
C1913 C242 1.051 . S
C1927 C67 3.705 1_556 S
C1931 C812 3.610 . S
C1945 C896 3.610 . S
C1949 C151 3.705 . S
C1963 C235 3.709 . S
C1967 C980 3.615 . S
C1981 C728 3.616 . S
C1985 C319 3.708 . S
C1999 C1159 3.610 . S
C2003 C392 3.705 1_554 S
C2017 C1243 3.616 . S
C2021 C476 3.707 . S
C2035 C1327 3.615 . S
C2039 C560 3.709 . S
C2053 C1075 3.611 . S
C2057 C644 3.708 . S
C2071 C140 3.615 . S
C2075 C739 3.707 . S
C2089 C224 3.614 . S
C2093 C823 3.706 1_565 S
C2107 C308 3.611 . S
C2111 C907 3.708 1_556 S
C2125 C991 3.706 1_545 S
C2129 C56 3.609 . S
C2143 C487 3.609 . S
C2147 C1064 3.707 . S
C2161 C571 3.615 . S
C2165 C1148 3.707 1_545 S
C2179 C655 3.613 . S
C2183 C1232 3.709 1_554 S
C2197 C403 3.610 . S
C2201 C1316 3.707 1_565 S
