# Generated by pormake.
# Topology ukr, (4)-cn, num edge types: 1
# Building blocks:
#     Node 0, Type 0, BuildingBlock: AZAVOO_clean_sbu_0, # of connection points: 4
#     Node 1, Type 0, BuildingBlock: AZAVOO_clean_sbu_0, # of connection points: 4
#     Node 2, Type 0, BuildingBlock: AZAVOO_clean_sbu_0, # of connection points: 4
#     Node 3, Type 0, BuildingBlock: AZAVOO_clean_sbu_0, # of connection points: 4
#     Node 4, Type 0, BuildingBlock: AZAVOO_clean_sbu_0, # of connection points: 4
#     Node 5, Type 0, BuildingBlock: AZAVOO_clean_sbu_0, # of connection points: 4
#     Node 6, Type 0, BuildingBlock: AZAVOO_clean_sbu_0, # of connection points: 4
#     Node 7, Type 0, BuildingBlock: AZAVOO_clean_sbu_0, # of connection points: 4
#     Node 8, Type 0, BuildingBlock: AZAVOO_clean_sbu_0, # of connection points: 4
#     Node 9, Type 0, BuildingBlock: AZAVOO_clean_sbu_0, # of connection points: 4
#     Node 10, Type 0, BuildingBlock: AZAVOO_clean_sbu_0, # of connection points: 4
#     Node 11, Type 0, BuildingBlock: AZAVOO_clean_sbu_0, # of connection points: 4
#     Node 12, Type 0, BuildingBlock: AZAVOO_clean_sbu_0, # of connection points: 4
#     Node 13, Type 0, BuildingBlock: AZAVOO_clean_sbu_0, # of connection points: 4
#     Node 14, Type 0, BuildingBlock: AZAVOO_clean_sbu_0, # of connection points: 4
#     Node 15, Type 0, BuildingBlock: AZAVOO_clean_sbu_0, # of connection points: 4
#     Node 16, Type 0, BuildingBlock: AZAVOO_clean_sbu_0, # of connection points: 4
#     Node 17, Type 0, BuildingBlock: AZAVOO_clean_sbu_0, # of connection points: 4
#     Node 18, Type 0, BuildingBlock: AZAVOO_clean_sbu_0, # of connection points: 4
#     Node 19, Type 0, BuildingBlock: AZAVOO_clean_sbu_0, # of connection points: 4
#     Node 20, Type 0, BuildingBlock: AZAVOO_clean_sbu_0, # of connection points: 4
#     Node 21, Type 0, BuildingBlock: AZAVOO_clean_sbu_0, # of connection points: 4
#     Node 22, Type 0, BuildingBlock: AZAVOO_clean_sbu_0, # of connection points: 4
#     Node 23, Type 0, BuildingBlock: AZAVOO_clean_sbu_0, # of connection points: 4
#     Node 24, Type 0, BuildingBlock: AZAVOO_clean_sbu_0, # of connection points: 4
#     Node 25, Type 0, BuildingBlock: AZAVOO_clean_sbu_0, # of connection points: 4
#     Node 26, Type 0, BuildingBlock: AZAVOO_clean_sbu_0, # of connection points: 4
#     Node 27, Type 0, BuildingBlock: AZAVOO_clean_sbu_0, # of connection points: 4
#     Node 28, Type 0, BuildingBlock: AZAVOO_clean_sbu_0, # of connection points: 4
#     Node 29, Type 0, BuildingBlock: AZAVOO_clean_sbu_0, # of connection points: 4
#     Node 30, Type 0, BuildingBlock: AZAVOO_clean_sbu_0, # of connection points: 4
#     Node 31, Type 0, BuildingBlock: AZAVOO_clean_sbu_0, # of connection points: 4
#     Node 32, Type 0, BuildingBlock: AZAVOO_clean_sbu_0, # of connection points: 4
#     Node 33, Type 0, BuildingBlock: AZAVOO_clean_sbu_0, # of connection points: 4
#     Node 34, Type 0, BuildingBlock: AZAVOO_clean_sbu_0, # of connection points: 4
#     Node 35, Type 0, BuildingBlock: AZAVOO_clean_sbu_0, # of connection points: 4
#     Node 36, Type 0, BuildingBlock: AZAVOO_clean_sbu_0, # of connection points: 4
#     Node 37, Type 0, BuildingBlock: AZAVOO_clean_sbu_0, # of connection points: 4
#     Node 38, Type 0, BuildingBlock: AZAVOO_clean_sbu_0, # of connection points: 4
#     Node 39, Type 0, BuildingBlock: AZAVOO_clean_sbu_0, # of connection points: 4
#     Node 40, Type 0, BuildingBlock: AZAVOO_clean_sbu_0, # of connection points: 4
#     Node 41, Type 0, BuildingBlock: AZAVOO_clean_sbu_0, # of connection points: 4
#     Node 42, Type 0, BuildingBlock: AZAVOO_clean_sbu_0, # of connection points: 4
#     Node 43, Type 0, BuildingBlock: AZAVOO_clean_sbu_0, # of connection points: 4
#     Node 44, Type 0, BuildingBlock: AZAVOO_clean_sbu_0, # of connection points: 4
#     Node 45, Type 0, BuildingBlock: AZAVOO_clean_sbu_0, # of connection points: 4
#     Node 46, Type 0, BuildingBlock: AZAVOO_clean_sbu_0, # of connection points: 4
#     Node 47, Type 0, BuildingBlock: AZAVOO_clean_sbu_0, # of connection points: 4
#     Edge 48, Type (0, 0), BuildingBlock: XUDNAN_clean_linker_2, # of connection points: 2
#     Edge 49, Type (0, 0), BuildingBlock: XUDNAN_clean_linker_2, # of connection points: 2
#     Edge 50, Type (0, 0), BuildingBlock: XUDNAN_clean_linker_2, # of connection points: 2
#     Edge 51, Type (0, 0), BuildingBlock: XUDNAN_clean_linker_2, # of connection points: 2
#     Edge 52, Type (0, 0), BuildingBlock: XUDNAN_clean_linker_2, # of connection points: 2
#     Edge 53, Type (0, 0), BuildingBlock: XUDNAN_clean_linker_2, # of connection points: 2
#     Edge 54, Type (0, 0), BuildingBlock: XUDNAN_clean_linker_2, # of connection points: 2
#     Edge 55, Type (0, 0), BuildingBlock: XUDNAN_clean_linker_2, # of connection points: 2
#     Edge 56, Type (0, 0), BuildingBlock: XUDNAN_clean_linker_2, # of connection points: 2
#     Edge 57, Type (0, 0), BuildingBlock: XUDNAN_clean_linker_2, # of connection points: 2
#     Edge 58, Type (0, 0), BuildingBlock: XUDNAN_clean_linker_2, # of connection points: 2
#     Edge 59, Type (0, 0), BuildingBlock: XUDNAN_clean_linker_2, # of connection points: 2
#     Edge 60, Type (0, 0), BuildingBlock: XUDNAN_clean_linker_2, # of connection points: 2
#     Edge 61, Type (0, 0), BuildingBlock: XUDNAN_clean_linker_2, # of connection points: 2
#     Edge 62, Type (0, 0), BuildingBlock: XUDNAN_clean_linker_2, # of connection points: 2
#     Edge 63, Type (0, 0), BuildingBlock: XUDNAN_clean_linker_2, # of connection points: 2
#     Edge 64, Type (0, 0), BuildingBlock: XUDNAN_clean_linker_2, # of connection points: 2
#     Edge 65, Type (0, 0), BuildingBlock: XUDNAN_clean_linker_2, # of connection points: 2
#     Edge 66, Type (0, 0), BuildingBlock: XUDNAN_clean_linker_2, # of connection points: 2
#     Edge 67, Type (0, 0), BuildingBlock: XUDNAN_clean_linker_2, # of connection points: 2
#     Edge 68, Type (0, 0), BuildingBlock: XUDNAN_clean_linker_2, # of connection points: 2
#     Edge 69, Type (0, 0), BuildingBlock: XUDNAN_clean_linker_2, # of connection points: 2
#     Edge 70, Type (0, 0), BuildingBlock: XUDNAN_clean_linker_2, # of connection points: 2
#     Edge 71, Type (0, 0), BuildingBlock: XUDNAN_clean_linker_2, # of connection points: 2
#     Edge 72, Type (0, 0), BuildingBlock: XUDNAN_clean_linker_2, # of connection points: 2
#     Edge 73, Type (0, 0), BuildingBlock: XUDNAN_clean_linker_2, # of connection points: 2
#     Edge 74, Type (0, 0), BuildingBlock: XUDNAN_clean_linker_2, # of connection points: 2
#     Edge 75, Type (0, 0), BuildingBlock: XUDNAN_clean_linker_2, # of connection points: 2
#     Edge 76, Type (0, 0), BuildingBlock: XUDNAN_clean_linker_2, # of connection points: 2
#     Edge 77, Type (0, 0), BuildingBlock: XUDNAN_clean_linker_2, # of connection points: 2
#     Edge 78, Type (0, 0), BuildingBlock: XUDNAN_clean_linker_2, # of connection points: 2
#     Edge 79, Type (0, 0), BuildingBlock: XUDNAN_clean_linker_2, # of connection points: 2
#     Edge 80, Type (0, 0), BuildingBlock: XUDNAN_clean_linker_2, # of connection points: 2
#     Edge 81, Type (0, 0), BuildingBlock: XUDNAN_clean_linker_2, # of connection points: 2
#     Edge 82, Type (0, 0), BuildingBlock: XUDNAN_clean_linker_2, # of connection points: 2
#     Edge 83, Type (0, 0), BuildingBlock: XUDNAN_clean_linker_2, # of connection points: 2
#     Edge 84, Type (0, 0), BuildingBlock: XUDNAN_clean_linker_2, # of connection points: 2
#     Edge 85, Type (0, 0), BuildingBlock: XUDNAN_clean_linker_2, # of connection points: 2
#     Edge 86, Type (0, 0), BuildingBlock: XUDNAN_clean_linker_2, # of connection points: 2
#     Edge 87, Type (0, 0), BuildingBlock: XUDNAN_clean_linker_2, # of connection points: 2
#     Edge 88, Type (0, 0), BuildingBlock: XUDNAN_clean_linker_2, # of connection points: 2
#     Edge 89, Type (0, 0), BuildingBlock: XUDNAN_clean_linker_2, # of connection points: 2
#     Edge 90, Type (0, 0), BuildingBlock: XUDNAN_clean_linker_2, # of connection points: 2
#     Edge 91, Type (0, 0), BuildingBlock: XUDNAN_clean_linker_2, # of connection points: 2
#     Edge 92, Type (0, 0), BuildingBlock: XUDNAN_clean_linker_2, # of connection points: 2
#     Edge 93, Type (0, 0), BuildingBlock: XUDNAN_clean_linker_2, # of connection points: 2
#     Edge 94, Type (0, 0), BuildingBlock: XUDNAN_clean_linker_2, # of connection points: 2
#     Edge 95, Type (0, 0), BuildingBlock: XUDNAN_clean_linker_2, # of connection points: 2
#     Edge 96, Type (0, 0), BuildingBlock: XUDNAN_clean_linker_2, # of connection points: 2
#     Edge 97, Type (0, 0), BuildingBlock: XUDNAN_clean_linker_2, # of connection points: 2
#     Edge 98, Type (0, 0), BuildingBlock: XUDNAN_clean_linker_2, # of connection points: 2
#     Edge 99, Type (0, 0), BuildingBlock: XUDNAN_clean_linker_2, # of connection points: 2
#     Edge 100, Type (0, 0), BuildingBlock: XUDNAN_clean_linker_2, # of connection points: 2
#     Edge 101, Type (0, 0), BuildingBlock: XUDNAN_clean_linker_2, # of connection points: 2
#     Edge 102, Type (0, 0), BuildingBlock: XUDNAN_clean_linker_2, # of connection points: 2
#     Edge 103, Type (0, 0), BuildingBlock: XUDNAN_clean_linker_2, # of connection points: 2
#     Edge 104, Type (0, 0), BuildingBlock: XUDNAN_clean_linker_2, # of connection points: 2
#     Edge 105, Type (0, 0), BuildingBlock: XUDNAN_clean_linker_2, # of connection points: 2
#     Edge 106, Type (0, 0), BuildingBlock: XUDNAN_clean_linker_2, # of connection points: 2
#     Edge 107, Type (0, 0), BuildingBlock: XUDNAN_clean_linker_2, # of connection points: 2
#     Edge 108, Type (0, 0), BuildingBlock: XUDNAN_clean_linker_2, # of connection points: 2
#     Edge 109, Type (0, 0), BuildingBlock: XUDNAN_clean_linker_2, # of connection points: 2
#     Edge 110, Type (0, 0), BuildingBlock: XUDNAN_clean_linker_2, # of connection points: 2
#     Edge 111, Type (0, 0), BuildingBlock: XUDNAN_clean_linker_2, # of connection points: 2
#     Edge 112, Type (0, 0), BuildingBlock: XUDNAN_clean_linker_2, # of connection points: 2
#     Edge 113, Type (0, 0), BuildingBlock: XUDNAN_clean_linker_2, # of connection points: 2
#     Edge 114, Type (0, 0), BuildingBlock: XUDNAN_clean_linker_2, # of connection points: 2
#     Edge 115, Type (0, 0), BuildingBlock: XUDNAN_clean_linker_2, # of connection points: 2
#     Edge 116, Type (0, 0), BuildingBlock: XUDNAN_clean_linker_2, # of connection points: 2
#     Edge 117, Type (0, 0), BuildingBlock: XUDNAN_clean_linker_2, # of connection points: 2
#     Edge 118, Type (0, 0), BuildingBlock: XUDNAN_clean_linker_2, # of connection points: 2
#     Edge 119, Type (0, 0), BuildingBlock: XUDNAN_clean_linker_2, # of connection points: 2
#     Edge 120, Type (0, 0), BuildingBlock: XUDNAN_clean_linker_2, # of connection points: 2
#     Edge 121, Type (0, 0), BuildingBlock: XUDNAN_clean_linker_2, # of connection points: 2
#     Edge 122, Type (0, 0), BuildingBlock: XUDNAN_clean_linker_2, # of connection points: 2
#     Edge 123, Type (0, 0), BuildingBlock: XUDNAN_clean_linker_2, # of connection points: 2
#     Edge 124, Type (0, 0), BuildingBlock: XUDNAN_clean_linker_2, # of connection points: 2
#     Edge 125, Type (0, 0), BuildingBlock: XUDNAN_clean_linker_2, # of connection points: 2
#     Edge 126, Type (0, 0), BuildingBlock: XUDNAN_clean_linker_2, # of connection points: 2
#     Edge 127, Type (0, 0), BuildingBlock: XUDNAN_clean_linker_2, # of connection points: 2
#     Edge 128, Type (0, 0), BuildingBlock: XUDNAN_clean_linker_2, # of connection points: 2
#     Edge 129, Type (0, 0), BuildingBlock: XUDNAN_clean_linker_2, # of connection points: 2
#     Edge 130, Type (0, 0), BuildingBlock: XUDNAN_clean_linker_2, # of connection points: 2
#     Edge 131, Type (0, 0), BuildingBlock: XUDNAN_clean_linker_2, # of connection points: 2
#     Edge 132, Type (0, 0), BuildingBlock: XUDNAN_clean_linker_2, # of connection points: 2
#     Edge 133, Type (0, 0), BuildingBlock: XUDNAN_clean_linker_2, # of connection points: 2
#     Edge 134, Type (0, 0), BuildingBlock: XUDNAN_clean_linker_2, # of connection points: 2
#     Edge 135, Type (0, 0), BuildingBlock: XUDNAN_clean_linker_2, # of connection points: 2
#     Edge 136, Type (0, 0), BuildingBlock: XUDNAN_clean_linker_2, # of connection points: 2
#     Edge 137, Type (0, 0), BuildingBlock: XUDNAN_clean_linker_2, # of connection points: 2
#     Edge 138, Type (0, 0), BuildingBlock: XUDNAN_clean_linker_2, # of connection points: 2
#     Edge 139, Type (0, 0), BuildingBlock: XUDNAN_clean_linker_2, # of connection points: 2
#     Edge 140, Type (0, 0), BuildingBlock: XUDNAN_clean_linker_2, # of connection points: 2
#     Edge 141, Type (0, 0), BuildingBlock: XUDNAN_clean_linker_2, # of connection points: 2
#     Edge 142, Type (0, 0), BuildingBlock: XUDNAN_clean_linker_2, # of connection points: 2
#     Edge 143, Type (0, 0), BuildingBlock: XUDNAN_clean_linker_2, # of connection points: 2
# Relax obj value: 0.367
# Max RMSD: 0.200
# Mean RMSD: 0.200
data_MOF--net-ukr--node1-AZAVOO_clean_sbu_0--edge1-XUDNAN_clean_linker_2
_symmetry_space_group_name_H-M    P1
_symmetry_Int_Tables_number       1
_symmetry_cell_setting            triclinic
loop_
_symmetry_equiv_pos_as_xyz
'x, y, z'
_cell_length_a     68.213087
_cell_length_b     68.023113
_cell_length_c     68.05249
_cell_angle_alpha  89.990998
_cell_angle_beta   90.032547
_cell_angle_gamma 89.997352
loop_
_atom_site_label
_atom_site_type_symbol
_atom_site_fract_x
_atom_site_fract_y
_atom_site_fract_z
_atom_type_partial_charge
Mg0 Mg 0.11045 0.28582 0.15822 0.0
O1 O 0.10968 0.25641 0.1751 0.0
O2 O 0.1406 0.24862 0.18319 0.0
Mg3 Mg 0.16062 0.27364 0.17375 0.0
C4 C 0.1223 0.24483 0.18274 0.0
C5 C 0.06973 0.28945 0.14174 0.0
O6 O 0.08183 0.29128 0.12684 0.0
O7 O 0.11374 0.30295 0.18732 0.0
O8 O 0.14433 0.2937 0.19493 0.0
O9 O 0.11727 0.26868 0.13074 0.0
O10 O 0.13966 0.28101 0.15061 0.0
C11 C 0.12863 0.30316 0.19875 0.0
C12 C 0.13552 0.27022 0.13569 0.0
O13 O 0.07694 0.2872 0.15882 0.0
Mg14 Mg 0.21068 0.61512 0.66 0.0
O15 O 0.23587 0.61667 0.68221 0.0
O16 O 0.2409 0.64835 0.68967 0.0
Mg17 Mg 0.21765 0.66681 0.67367 0.0
C18 C 0.24524 0.63015 0.69123 0.0
C19 C 0.22319 0.56982 0.66339 0.0
O20 O 0.24118 0.57642 0.66136 0.0
O21 O 0.18892 0.61945 0.68536 0.0
O22 O 0.19346 0.65153 0.69127 0.0
O23 O 0.23212 0.6216 0.63526 0.0
O24 O 0.21518 0.64393 0.65149 0.0
C25 C 0.18467 0.63527 0.69455 0.0
C26 C 0.22806 0.63992 0.63844 0.0
O27 O 0.20897 0.58188 0.66348 0.0
Mg28 Mg 0.8809 0.71072 0.15368 0.0
O29 O 0.88132 0.73795 0.17402 0.0
O30 O 0.85056 0.749 0.17699 0.0
Mg31 Mg 0.83042 0.72572 0.16379 0.0
C32 C 0.86894 0.75064 0.18013 0.0
C33 C 0.92555 0.72012 0.15901 0.0
O34 O 0.91904 0.73801 0.15575 0.0
O35 O 0.87268 0.69148 0.17998 0.0
O36 O 0.84273 0.70351 0.18601 0.0
O37 O 0.87966 0.73149 0.12819 0.0
O38 O 0.85355 0.71884 0.14271 0.0
C39 C 0.8571 0.69224 0.19032 0.0
C40 C 0.86082 0.73118 0.1304 0.0
O41 O 0.91346 0.70591 0.15934 0.0
Mg42 Mg 0.78622 0.38862 0.65049 0.0
O43 O 0.76086 0.38536 0.6727 0.0
O44 O 0.75837 0.35317 0.67894 0.0
Mg45 Mg 0.78201 0.33621 0.66236 0.0
C46 C 0.75258 0.37088 0.68135 0.0
C47 C 0.78734 0.43004 0.6368 0.0
O48 O 0.78917 0.41856 0.62138 0.0
O49 O 0.80849 0.3845 0.67551 0.0
O50 O 0.80513 0.35215 0.68082 0.0
O51 O 0.76457 0.38305 0.62628 0.0
O52 O 0.782 0.35983 0.64079 0.0
C53 C 0.81323 0.36867 0.68444 0.0
C54 C 0.76828 0.36458 0.62876 0.0
O55 O 0.78588 0.42206 0.65363 0.0
Mg56 Mg 0.11219 0.71525 0.84327 0.0
O57 O 0.11098 0.73997 0.82015 0.0
O58 O 0.14176 0.74552 0.80998 0.0
Mg59 Mg 0.16222 0.72379 0.82529 0.0
C60 C 0.12345 0.74933 0.80974 0.0
C61 C 0.07135 0.71025 0.85972 0.0
O62 O 0.0831 0.70883 0.87497 0.0
O63 O 0.11555 0.69247 0.81871 0.0
O64 O 0.14643 0.69869 0.80926 0.0
O65 O 0.11859 0.73769 0.86665 0.0
O66 O 0.14123 0.72212 0.8494 0.0
C67 C 0.13047 0.68896 0.80795 0.0
C68 C 0.13684 0.73539 0.86205 0.0
O69 O 0.07888 0.71289 0.84286 0.0
Mg70 Mg 0.78433 0.61745 0.34679 0.0
O71 O 0.75816 0.61943 0.32575 0.0
O72 O 0.75105 0.65127 0.32121 0.0
Mg73 Mg 0.77273 0.66953 0.33921 0.0
C74 C 0.74787 0.63305 0.31804 0.0
C75 C 0.7857 0.57248 0.35263 0.0
O76 O 0.78226 0.57864 0.3706 0.0
O77 O 0.80512 0.62654 0.32176 0.0
O78 O 0.79702 0.65823 0.31915 0.0
O79 O 0.76226 0.61792 0.37103 0.0
O80 O 0.77658 0.64451 0.35907 0.0
C81 C 0.80723 0.64344 0.31382 0.0
C82 C 0.76309 0.63689 0.36984 0.0
O83 O 0.78761 0.58507 0.33898 0.0
Mg84 Mg 0.88011 0.28971 0.83884 0.0
O85 O 0.87925 0.26186 0.81997 0.0
O86 O 0.84833 0.25742 0.8098 0.0
Mg87 Mg 0.82908 0.28063 0.82488 0.0
C88 C 0.86638 0.25243 0.81017 0.0
C89 C 0.92491 0.28413 0.84728 0.0
O90 O 0.91785 0.27659 0.86358 0.0
O91 O 0.87537 0.30898 0.81149 0.0
O92 O 0.84333 0.30453 0.80598 0.0
O93 O 0.8751 0.27073 0.86537 0.0
O94 O 0.85148 0.28437 0.84778 0.0
C95 C 0.85962 0.31294 0.80213 0.0
C96 C 0.8566 0.27256 0.8616 0.0
O97 O 0.91314 0.29094 0.8345 0.0
Mg98 Mg 0.2106 0.38259 0.34784 0.0
O99 O 0.23693 0.3794 0.32697 0.0
O100 O 0.24443 0.34746 0.32485 0.0
Mg101 Mg 0.221 0.33003 0.34128 0.0
C102 C 0.24785 0.36546 0.32077 0.0
C103 C 0.21297 0.42768 0.35328 0.0
O104 O 0.21822 0.42131 0.37073 0.0
O105 O 0.18953 0.37383 0.32275 0.0
O106 O 0.19738 0.34203 0.32088 0.0
O107 O 0.23218 0.38121 0.37282 0.0
O108 O 0.21701 0.35535 0.36056 0.0
C109 C 0.18728 0.35677 0.31518 0.0
C110 C 0.23042 0.3623 0.37184 0.0
O111 O 0.20862 0.4152 0.34005 0.0
Mg112 Mg 0.15375 0.11815 0.2876 0.0
O113 O 0.17028 0.12087 0.25834 0.0
O114 O 0.17214 0.15274 0.25009 0.0
Mg115 Mg 0.1577 0.17035 0.27476 0.0
C116 C 0.17553 0.1346 0.24669 0.0
C117 C 0.14992 0.07315 0.29015 0.0
O118 O 0.13149 0.07876 0.29054 0.0
O119 O 0.18152 0.12811 0.30362 0.0
O120 O 0.18293 0.15957 0.29405 0.0
O121 O 0.12611 0.11763 0.27005 0.0
O122 O 0.13964 0.14467 0.282 0.0
C123 C 0.18985 0.14491 0.30347 0.0
C124 C 0.12687 0.13664 0.27061 0.0
O125 O 0.16324 0.08616 0.28934 0.0
Mg126 Mg 0.37948 0.66132 0.79033 0.0
O127 O 0.37612 0.67623 0.76044 0.0
O128 O 0.34439 0.68379 0.75642 0.0
Mg129 Mg 0.32754 0.67286 0.78352 0.0
C130 C 0.36212 0.68352 0.7504 0.0
C131 C 0.42369 0.66076 0.7756 0.0
O132 O 0.41641 0.65072 0.7608 0.0
O133 O 0.37545 0.69105 0.80547 0.0
O134 O 0.34316 0.69618 0.80231 0.0
O135 O 0.37365 0.6327 0.77503 0.0
O136 O 0.35082 0.65122 0.78885 0.0
C137 C 0.36004 0.7012 0.80869 0.0
C138 C 0.35527 0.63629 0.77819 0.0
O139 O 0.41238 0.66655 0.78923 0.0
Mg140 Mg 0.84574 0.88269 0.28839 0.0
O141 O 0.8221 0.88161 0.26433 0.0
O142 O 0.81759 0.84992 0.25688 0.0
Mg143 Mg 0.83616 0.83076 0.27731 0.0
C144 C 0.81382 0.86814 0.25426 0.0
C145 C 0.83937 0.92767 0.27876 0.0
O146 O 0.84203 0.92125 0.26075 0.0
O147 O 0.82241 0.87412 0.31129 0.0
O148 O 0.81866 0.84244 0.30345 0.0
O149 O 0.86904 0.88088 0.26475 0.0
O150 O 0.85661 0.85516 0.28003 0.0
C151 C 0.81456 0.8573 0.31417 0.0
C152 C 0.86784 0.86199 0.26656 0.0
O153 O 0.83972 0.91546 0.29292 0.0
Mg154 Mg 0.61577 0.33943 0.78864 0.0
O155 O 0.61581 0.32032 0.761 0.0
O156 O 0.64596 0.30776 0.75748 0.0
Mg157 Mg 0.66601 0.32226 0.78057 0.0
C158 C 0.62812 0.30945 0.75202 0.0
C159 C 0.57059 0.34985 0.79447 0.0
O160 O 0.57737 0.36708 0.79995 0.0
O161 O 0.6188 0.31193 0.80843 0.0
O162 O 0.65059 0.305 0.80452 0.0
O163 O 0.62244 0.36562 0.76929 0.0
O164 O 0.6449 0.34665 0.78296 0.0
C165 C 0.63411 0.30202 0.81282 0.0
C166 C 0.64065 0.36047 0.77075 0.0
O167 O 0.58254 0.33645 0.78942 0.0
Mg168 Mg 0.16068 0.88268 0.71069 0.0
O169 O 0.17977 0.87791 0.73816 0.0
O170 O 0.18257 0.84532 0.74198 0.0
Mg171 Mg 0.16903 0.82973 0.71544 0.0
C172 C 0.18567 0.86291 0.74776 0.0
C173 C 0.16581 0.92751 0.72477 0.0
O174 O 0.15959 0.92116 0.7419 0.0
O175 O 0.1869 0.87698 0.69063 0.0
O176 O 0.19068 0.84445 0.69409 0.0
O177 O 0.13407 0.87806 0.72999 0.0
O178 O 0.14885 0.85461 0.71315 0.0
C179 C 0.19561 0.86091 0.68654 0.0
C180 C 0.13569 0.8596 0.72566 0.0
O181 O 0.16768 0.91545 0.71064 0.0
Mg182 Mg 0.61068 0.65906 0.21282 0.0
O183 O 0.61071 0.67979 0.23976 0.0
O184 O 0.64141 0.69108 0.24301 0.0
Mg185 Mg 0.6609 0.67708 0.21971 0.0
C186 C 0.62352 0.69042 0.24845 0.0
C187 C 0.5701 0.64192 0.20975 0.0
O188 O 0.58223 0.62706 0.20763 0.0
O189 O 0.61256 0.68551 0.19179 0.0
O190 O 0.64387 0.69422 0.19659 0.0
O191 O 0.61827 0.63392 0.23268 0.0
O192 O 0.64016 0.65251 0.21774 0.0
C193 C 0.6274 0.69631 0.18798 0.0
C194 C 0.63644 0.63877 0.2302 0.0
O195 O 0.57724 0.659 0.21218 0.0
Mg196 Mg 0.8431 0.11341 0.71298 0.0
O197 O 0.82418 0.12073 0.74029 0.0
O198 O 0.8223 0.15353 0.74306 0.0
Mg199 Mg 0.83481 0.16667 0.71503 0.0
C200 C 0.81896 0.13625 0.7495 0.0
C201 C 0.83776 0.07305 0.73375 0.0
O202 O 0.84297 0.0843 0.74855 0.0
O203 O 0.81643 0.11767 0.69297 0.0
O204 O 0.81211 0.15006 0.69674 0.0
O205 O 0.86956 0.11854 0.73177 0.0
O206 O 0.85521 0.14173 0.71419 0.0
C207 C 0.807 0.13351 0.68959 0.0
C208 C 0.86767 0.13702 0.72763 0.0
O209 O 0.83624 0.08064 0.71674 0.0
Mg210 Mg 0.38442 0.34083 0.21461 0.0
O211 O 0.38446 0.318 0.23968 0.0
O212 O 0.35313 0.31033 0.24602 0.0
Mg213 Mg 0.33351 0.32586 0.22365 0.0
C214 C 0.37144 0.30886 0.24961 0.0
C215 C 0.42534 0.35615 0.21201 0.0
O216 O 0.41353 0.37141 0.21185 0.0
O217 O 0.37958 0.31624 0.19207 0.0
O218 O 0.34824 0.30871 0.19858 0.0
O219 O 0.37951 0.36473 0.23687 0.0
O220 O 0.35572 0.34885 0.22157 0.0
C221 C 0.36399 0.30637 0.18873 0.0
C222 C 0.361 0.3613 0.23474 0.0
O223 O 0.4178 0.33908 0.21248 0.0
Mg224 Mg 0.28446 0.15638 0.11426 0.0
O225 O 0.2575 0.17584 0.11768 0.0
O226 O 0.25459 0.18484 0.14914 0.0
Mg227 Mg 0.27903 0.16931 0.16622 0.0
C228 C 0.24875 0.18515 0.13133 0.0
C229 C 0.29164 0.1545 0.06763 0.0
O230 O 0.30635 0.14275 0.07178 0.0
O231 O 0.30481 0.18326 0.11809 0.0
O232 O 0.30185 0.18794 0.15047 0.0
O233 O 0.26492 0.13061 0.11983 0.0
O234 O 0.28078 0.14649 0.14323 0.0
C235 C 0.3096 0.19212 0.13395 0.0
C236 C 0.26766 0.13374 0.13839 0.0
O237 O 0.28153 0.16182 0.08148 0.0
Mg238 Mg 0.28522 0.85029 0.88519 0.0
O239 O 0.26128 0.82728 0.87979 0.0
O240 O 0.25484 0.82614 0.84757 0.0
Mg241 Mg 0.27711 0.84596 0.83192 0.0
C242 C 0.25139 0.82079 0.86524 0.0
C243 C 0.28133 0.8555 0.92886 0.0
O244 O 0.27877 0.8729 0.92091 0.0
O245 O 0.30858 0.8278 0.87574 0.0
O246 O 0.30272 0.8274 0.84332 0.0
O247 O 0.26111 0.8726 0.88448 0.0
O248 O 0.27825 0.86409 0.85835 0.0
C249 C 0.31249 0.82187 0.85833 0.0
C250 C 0.26327 0.87293 0.86563 0.0
O251 O 0.286 0.8412 0.91777 0.0
Mg252 Mg 0.65621 0.78939 0.38641 0.0
O253 O 0.67359 0.76065 0.38147 0.0
O254 O 0.6777 0.75589 0.34914 0.0
Mg255 Mg 0.66795 0.78406 0.33403 0.0
C256 C 0.67932 0.75027 0.36693 0.0
C257 C 0.65956 0.76974 0.42773 0.0
O258 O 0.65506 0.75451 0.41676 0.0
O259 O 0.68454 0.80722 0.38313 0.0
O260 O 0.69092 0.8014 0.35141 0.0
O261 O 0.62869 0.77246 0.38019 0.0
O262 O 0.64593 0.78767 0.35736 0.0
C263 C 0.69539 0.80897 0.36797 0.0
C264 C 0.63196 0.7757 0.36174 0.0
O265 O 0.66095 0.78659 0.41974 0.0
Mg266 Mg 0.71206 0.1528 0.88666 0.0
O267 O 0.73555 0.17695 0.88361 0.0
O268 O 0.74048 0.18161 0.85139 0.0
Mg269 Mg 0.71762 0.16416 0.83426 0.0
C270 C 0.74474 0.185 0.86935 0.0
C271 C 0.71438 0.14059 0.92855 0.0
O272 O 0.71559 0.12474 0.91759 0.0
O273 O 0.68806 0.17576 0.88137 0.0
O274 O 0.6931 0.18172 0.84939 0.0
O275 O 0.73632 0.13128 0.88275 0.0
O276 O 0.71861 0.14276 0.85811 0.0
C277 C 0.68384 0.18469 0.86542 0.0
C278 C 0.73389 0.13336 0.86404 0.0
O279 O 0.71158 0.15702 0.9201 0.0
Mg280 Mg 0.34123 0.21239 0.38669 0.0
O281 O 0.32297 0.24025 0.38088 0.0
O282 O 0.32335 0.24864 0.34897 0.0
Mg283 Mg 0.33763 0.22321 0.33227 0.0
C284 C 0.31858 0.25186 0.36682 0.0
C285 C 0.33582 0.23138 0.42751 0.0
O286 O 0.34141 0.24627 0.41656 0.0
O287 O 0.31378 0.19242 0.3803 0.0
O288 O 0.32003 0.20393 0.35123 0.0
O289 O 0.36855 0.23129 0.38341 0.0
O290 O 0.35514 0.21598 0.35838 0.0
C291 C 0.3099 0.19286 0.36202 0.0
C292 C 0.36815 0.22783 0.36476 0.0
O293 O 0.33392 0.21454 0.41958 0.0
Mg294 Mg 0.71175 0.84481 0.11719 0.0
O295 O 0.7395 0.82569 0.11844 0.0
O296 O 0.74452 0.81737 0.14985 0.0
Mg297 Mg 0.72076 0.8321 0.16869 0.0
C298 C 0.74926 0.8168 0.13173 0.0
C299 C 0.72109 0.84912 0.07209 0.0
O300 O 0.73309 0.8627 0.07868 0.0
O301 O 0.69208 0.8179 0.12245 0.0
O302 O 0.69688 0.81308 0.15462 0.0
O303 O 0.73085 0.87144 0.12211 0.0
O304 O 0.71667 0.85455 0.14585 0.0
C305 C 0.68819 0.80897 0.1385 0.0
C306 C 0.72847 0.86832 0.14071 0.0
O307 O 0.71051 0.83964 0.08418 0.0
Mg308 Mg 0.65604 0.21307 0.61272 0.0
O309 O 0.6765 0.23959 0.61611 0.0
O310 O 0.68021 0.24726 0.6478 0.0
Mg311 Mg 0.66503 0.22279 0.66519 0.0
C312 C 0.68334 0.25059 0.62962 0.0
C313 C 0.65927 0.23055 0.57178 0.0
O314 O 0.65329 0.24509 0.58297 0.0
O315 O 0.68219 0.19251 0.61952 0.0
O316 O 0.68497 0.19988 0.65141 0.0
O317 O 0.62988 0.23327 0.6167 0.0
O318 O 0.64471 0.21775 0.64087 0.0
C319 C 0.69032 0.19012 0.63632 0.0
C320 C 0.6318 0.23029 0.63537 0.0
O321 O 0.66217 0.21381 0.57961 0.0
Mg322 Mg 0.34474 0.7842 0.61093 0.0
O323 O 0.32161 0.76051 0.61675 0.0
O324 O 0.31716 0.75705 0.64918 0.0
Mg325 Mg 0.33579 0.78078 0.66406 0.0
C326 C 0.31366 0.75207 0.63144 0.0
C327 C 0.33753 0.76543 0.57051 0.0
O328 O 0.34088 0.75014 0.58184 0.0
O329 O 0.32089 0.80741 0.61629 0.0
O330 O 0.31738 0.80444 0.64886 0.0
O331 O 0.36801 0.76135 0.61527 0.0
O332 O 0.35607 0.77978 0.63912 0.0
C333 C 0.313 0.81259 0.63253 0.0
C334 C 0.36659 0.76499 0.63388 0.0
O335 O 0.33782 0.78251 0.57809 0.0
Mg336 Mg 0.88702 0.71676 0.8395 0.0
O337 O 0.88742 0.74222 0.81695 0.0
O338 O 0.85611 0.74873 0.80934 0.0
Mg339 Mg 0.83635 0.72587 0.82393 0.0
C340 C 0.87441 0.75242 0.80804 0.0
C341 C 0.92711 0.71099 0.85562 0.0
O342 O 0.91465 0.70908 0.87022 0.0
O343 O 0.88244 0.69408 0.81493 0.0
O344 O 0.8511 0.70054 0.8073 0.0
O345 O 0.88141 0.73873 0.86361 0.0
O346 O 0.85826 0.72317 0.84716 0.0
C347 C 0.86684 0.69064 0.80509 0.0
C348 C 0.86296 0.73624 0.85993 0.0
O349 O 0.92034 0.71431 0.83853 0.0
Mg350 Mg 0.78446 0.38313 0.34534 0.0
O351 O 0.75793 0.38252 0.32434 0.0
O352 O 0.74946 0.35101 0.32032 0.0
Mg353 Mg 0.77082 0.33153 0.33734 0.0
C354 C 0.74683 0.36929 0.31703 0.0
C355 C 0.7861 0.42809 0.35207 0.0
O356 O 0.78224 0.42175 0.36989 0.0
O357 O 0.80465 0.37405 0.31961 0.0
O358 O 0.79476 0.34289 0.31718 0.0
O359 O 0.7634 0.38193 0.37117 0.0
O360 O 0.77659 0.35587 0.35729 0.0
C361 C 0.8056 0.3571 0.31154 0.0
C362 C 0.7645 0.36301 0.3698 0.0
O363 O 0.78826 0.41564 0.33833 0.0
Mg364 Mg 0.11396 0.28193 0.84363 0.0
O365 O 0.1163 0.25355 0.82561 0.0
O366 O 0.14821 0.24711 0.82105 0.0
Mg367 Mg 0.166 0.2722 0.83476 0.0
C368 C 0.13011 0.24277 0.81904 0.0
C369 C 0.06873 0.27869 0.84955 0.0
O370 O 0.07468 0.27291 0.86698 0.0
O371 O 0.12095 0.30007 0.81619 0.0
O372 O 0.15306 0.29426 0.81273 0.0
O373 O 0.11666 0.26304 0.87042 0.0
O374 O 0.14173 0.27701 0.85532 0.0
C375 C 0.13725 0.30279 0.80737 0.0
C376 C 0.13544 0.26464 0.86814 0.0
O377 O 0.08139 0.28332 0.83668 0.0
Mg378 Mg 0.20781 0.61767 0.3429 0.0
O379 O 0.23463 0.61602 0.32265 0.0
O380 O 0.23849 0.64558 0.30861 0.0
Mg381 Mg 0.21579 0.66661 0.32174 0.0
C382 C 0.2436 0.62769 0.31105 0.0
C383 C 0.21284 0.57223 0.35414 0.0
O384 O 0.22161 0.57894 0.36996 0.0
O385 O 0.18683 0.6191 0.31652 0.0
O386 O 0.19216 0.64958 0.30544 0.0
O387 O 0.22842 0.62565 0.36747 0.0
O388 O 0.21433 0.64723 0.34771 0.0
C389 C 0.18326 0.63314 0.30464 0.0
C390 C 0.22716 0.64354 0.36111 0.0
O391 O 0.20585 0.58427 0.34171 0.0
Mg392 Mg 0.88438 0.28611 0.15354 0.0
O393 O 0.88533 0.2587 0.17349 0.0
O394 O 0.85454 0.24835 0.17844 0.0
Mg395 Mg 0.83385 0.27085 0.16459 0.0
C396 C 0.87303 0.24651 0.1807 0.0
C397 C 0.92532 0.29258 0.13989 0.0
O398 O 0.91369 0.29451 0.12461 0.0
O399 O 0.87734 0.30489 0.18094 0.0
O400 O 0.84696 0.29341 0.18551 0.0
O401 O 0.88138 0.2665 0.12684 0.0
O402 O 0.85642 0.27854 0.1435 0.0
C403 C 0.86127 0.30438 0.19063 0.0
C404 C 0.86269 0.26741 0.12968 0.0
O405 O 0.91758 0.28961 0.15661 0.0
Mg406 Mg 0.20919 0.38079 0.65282 0.0
O407 O 0.23696 0.38042 0.672 0.0
O408 O 0.24383 0.34911 0.67949 0.0
Mg409 Mg 0.22104 0.3295 0.66451 0.0
C410 C 0.24752 0.36747 0.68047 0.0
C411 C 0.22037 0.4256 0.65769 0.0
O412 O 0.23804 0.41882 0.65413 0.0
O413 O 0.18986 0.37372 0.67953 0.0
O414 O 0.19739 0.34206 0.68475 0.0
O415 O 0.22869 0.37778 0.62642 0.0
O416 O 0.21577 0.35278 0.64272 0.0
C417 C 0.18771 0.35757 0.68886 0.0
C418 C 0.22746 0.359 0.62929 0.0
O419 O 0.20596 0.41373 0.65809 0.0
Mg420 Mg 0.11467 0.7134 0.15573 0.0
O421 O 0.11301 0.73811 0.17878 0.0
O422 O 0.14365 0.74319 0.18964 0.0
Mg423 Mg 0.16464 0.72228 0.17359 0.0
C424 C 0.12538 0.74719 0.18956 0.0
C425 C 0.06931 0.72283 0.15827 0.0
O426 O 0.07555 0.7411 0.15805 0.0
O427 O 0.11879 0.69066 0.18034 0.0
O428 O 0.15011 0.69599 0.18838 0.0
O429 O 0.12009 0.73629 0.13221 0.0
O430 O 0.14331 0.72178 0.14955 0.0
C431 C 0.13417 0.68634 0.19011 0.0
C432 C 0.13836 0.73523 0.13724 0.0
O433 O 0.08166 0.70888 0.15727 0.0
Mg434 Mg 0.78345 0.61513 0.65912 0.0
O435 O 0.75516 0.6129 0.67714 0.0
O436 O 0.75003 0.64247 0.69077 0.0
Mg437 Mg 0.77279 0.66418 0.67893 0.0
C438 C 0.74535 0.6245 0.6881 0.0
C439 C 0.78624 0.57479 0.64049 0.0
O440 O 0.78667 0.58722 0.62572 0.0
O441 O 0.80232 0.61683 0.68727 0.0
O442 O 0.79696 0.64822 0.69571 0.0
O443 O 0.7651 0.6232 0.63281 0.0
O444 O 0.77732 0.64468 0.65381 0.0
C445 C 0.80584 0.63187 0.69799 0.0
C446 C 0.76613 0.64111 0.63905 0.0
O447 O 0.78538 0.58161 0.65784 0.0
Mg448 Mg 0.84104 0.88874 0.71107 0.0
O449 O 0.82181 0.8834 0.73803 0.0
O450 O 0.82006 0.85148 0.74536 0.0
Mg451 Mg 0.83537 0.8356 0.71989 0.0
C452 C 0.81592 0.86942 0.749 0.0
C453 C 0.83613 0.92902 0.73027 0.0
O454 O 0.8426 0.91758 0.74441 0.0
O455 O 0.81409 0.88127 0.69166 0.0
O456 O 0.81288 0.84937 0.69933 0.0
O457 O 0.86789 0.88569 0.73036 0.0
O458 O 0.85417 0.86098 0.71457 0.0
C459 C 0.80607 0.8643 0.69022 0.0
C460 C 0.86711 0.86705 0.72679 0.0
O461 O 0.83342 0.92162 0.71329 0.0
Mg462 Mg 0.61063 0.34039 0.2143 0.0
O463 O 0.61069 0.32011 0.24131 0.0
O464 O 0.64196 0.31326 0.2487 0.0
Mg465 Mg 0.66166 0.32706 0.22512 0.0
C466 C 0.62361 0.31198 0.25218 0.0
C467 C 0.56972 0.35548 0.2114 0.0
O468 O 0.58158 0.37065 0.2102 0.0
O469 O 0.61563 0.31349 0.19444 0.0
O470 O 0.64736 0.30813 0.20114 0.0
O471 O 0.61572 0.36646 0.23406 0.0
O472 O 0.63937 0.34937 0.22003 0.0
C473 C 0.63168 0.30419 0.19162 0.0
C474 C 0.63423 0.36316 0.23179 0.0
O475 O 0.57721 0.33841 0.21265 0.0
Mg476 Mg 0.15734 0.11581 0.71058 0.0
O477 O 0.17597 0.11553 0.73856 0.0
O478 O 0.17698 0.14539 0.75233 0.0
Mg479 Mg 0.16423 0.166 0.72899 0.0
C480 C 0.18103 0.12707 0.75242 0.0
C481 C 0.16239 0.07147 0.72023 0.0
O482 O 0.15553 0.07811 0.737 0.0
O483 O 0.18502 0.12582 0.69428 0.0
O484 O 0.18876 0.15516 0.70875 0.0
O485 O 0.1303 0.11557 0.72948 0.0
O486 O 0.14491 0.14251 0.7188 0.0
C487 C 0.1947 0.14163 0.69719 0.0
C488 C 0.13187 0.13453 0.72982 0.0
O489 O 0.16489 0.08344 0.70608 0.0
Mg490 Mg 0.38508 0.6564 0.21564 0.0
O491 O 0.38443 0.67888 0.24106 0.0
O492 O 0.35294 0.68539 0.24786 0.0
Mg493 Mg 0.33398 0.6705 0.2245 0.0
C494 C 0.37122 0.68733 0.25137 0.0
C495 C 0.42575 0.64143 0.21088 0.0
O496 O 0.41377 0.62642 0.20894 0.0
O497 O 0.38026 0.6814 0.19357 0.0
O498 O 0.34901 0.68892 0.20055 0.0
O499 O 0.37995 0.63202 0.23737 0.0
O500 O 0.35648 0.64789 0.22165 0.0
C501 C 0.36476 0.69157 0.19076 0.0
C502 C 0.36144 0.63519 0.23471 0.0
O503 O 0.41841 0.65835 0.21379 0.0
Mg504 Mg 0.84588 0.11717 0.28971 0.0
O505 O 0.82496 0.11877 0.2631 0.0
O506 O 0.82128 0.15049 0.25517 0.0
Mg507 Mg 0.83612 0.16902 0.27879 0.0
C508 C 0.81805 0.13226 0.25201 0.0
C509 C 0.83987 0.07209 0.27872 0.0
O510 O 0.84273 0.07854 0.26075 0.0
O511 O 0.82006 0.12442 0.31005 0.0
O512 O 0.81461 0.15557 0.3009 0.0
O513 O 0.87129 0.11989 0.26874 0.0
O514 O 0.8569 0.14506 0.28334 0.0
C515 C 0.81024 0.14037 0.31103 0.0
C516 C 0.86946 0.13871 0.27082 0.0
O517 O 0.84004 0.08423 0.29293 0.0
Mg518 Mg 0.38174 0.34445 0.78471 0.0
O519 O 0.3798 0.32227 0.75925 0.0
O520 O 0.34835 0.31859 0.75053 0.0
Mg521 Mg 0.33009 0.33462 0.77377 0.0
C522 C 0.36658 0.31513 0.74805 0.0
C523 C 0.42649 0.35071 0.7924 0.0
O524 O 0.42001 0.36831 0.79698 0.0
O525 O 0.37394 0.31993 0.80636 0.0
O526 O 0.34271 0.31439 0.79772 0.0
O527 O 0.37952 0.36874 0.76247 0.0
O528 O 0.35418 0.35554 0.77777 0.0
C529 C 0.35779 0.31062 0.80819 0.0
C530 C 0.3607 0.36712 0.76436 0.0
O531 O 0.41431 0.3376 0.78712 0.0
Mg532 Mg 0.16085 0.88425 0.28402 0.0
O533 O 0.18253 0.88046 0.2587 0.0
O534 O 0.18686 0.84843 0.25271 0.0
Mg535 Mg 0.1693 0.83169 0.27636 0.0
C536 C 0.19013 0.86649 0.24882 0.0
C537 C 0.15409 0.929 0.28511 0.0
O538 O 0.13604 0.92225 0.28516 0.0
O539 O 0.18527 0.87709 0.30586 0.0
O540 O 0.18844 0.84459 0.30113 0.0
O541 O 0.13568 0.88098 0.26276 0.0
O542 O 0.14907 0.85652 0.27943 0.0
C543 C 0.19296 0.86049 0.31006 0.0
C544 C 0.13652 0.86237 0.26668 0.0
O545 O 0.1682 0.91684 0.28467 0.0
Mg546 Mg 0.61103 0.65797 0.78244 0.0
O547 O 0.61679 0.67717 0.75522 0.0
O548 O 0.64917 0.67693 0.74975 0.0
Mg549 Mg 0.66414 0.66001 0.77481 0.0
C550 C 0.63176 0.682 0.74507 0.0
C551 C 0.56721 0.66304 0.77039 0.0
O552 O 0.57333 0.65197 0.75582 0.0
O553 O 0.62099 0.6828 0.80284 0.0
O554 O 0.65353 0.68173 0.79839 0.0
O555 O 0.61101 0.63183 0.76227 0.0
O556 O 0.63715 0.6429 0.77793 0.0
C557 C 0.63833 0.68864 0.80688 0.0
C558 C 0.62979 0.63131 0.76496 0.0
O559 O 0.5794 0.66853 0.78341 0.0
Mg560 Mg 0.70906 0.84389 0.88295 0.0
O561 O 0.73695 0.82533 0.8816 0.0
O562 O 0.74027 0.81511 0.85046 0.0
Mg563 Mg 0.71719 0.83065 0.83149 0.0
C564 C 0.74578 0.8154 0.8684 0.0
C565 C 0.71882 0.84878 0.92784 0.0
O566 O 0.73076 0.86222 0.92085 0.0
O567 O 0.69065 0.81601 0.8781 0.0
O568 O 0.69409 0.81098 0.84576 0.0
O569 O 0.72779 0.87065 0.87811 0.0
O570 O 0.71419 0.85324 0.85433 0.0
C571 C 0.68647 0.80671 0.86233 0.0
C572 C 0.72615 0.86689 0.85955 0.0
O573 O 0.70804 0.83914 0.91604 0.0
Mg574 Mg 0.7119 0.15519 0.11486 0.0
O575 O 0.73811 0.17662 0.11481 0.0
O576 O 0.74415 0.18532 0.14595 0.0
Mg577 Mg 0.7209 0.17131 0.16564 0.0
C578 C 0.7482 0.18585 0.12765 0.0
C579 C 0.71503 0.14052 0.07302 0.0
O580 O 0.71759 0.12502 0.08424 0.0
O581 O 0.6905 0.18101 0.11864 0.0
O582 O 0.6971 0.18917 0.14989 0.0
O583 O 0.73273 0.13024 0.12132 0.0
O584 O 0.71773 0.14756 0.14418 0.0
C585 C 0.68758 0.19156 0.13391 0.0
C586 C 0.73026 0.1342 0.1397 0.0
O587 O 0.71112 0.15686 0.08116 0.0
Mg588 Mg 0.34092 0.21011 0.61202 0.0
O589 O 0.31855 0.23487 0.61787 0.0
O590 O 0.31612 0.24322 0.64979 0.0
Mg591 Mg 0.33176 0.21888 0.66744 0.0
C592 C 0.31189 0.24584 0.6316 0.0
C593 C 0.33529 0.22987 0.5717 0.0
O594 O 0.33863 0.24483 0.58344 0.0
O595 O 0.31619 0.18602 0.61564 0.0
O596 O 0.32329 0.20081 0.64229 0.0
O597 O 0.36499 0.23231 0.61786 0.0
O598 O 0.35206 0.21481 0.64185 0.0
C599 C 0.31334 0.18771 0.63394 0.0
C600 C 0.36388 0.2284 0.6364 0.0
O601 O 0.33515 0.21261 0.57891 0.0
Mg602 Mg 0.29103 0.84457 0.11246 0.0
O603 O 0.26357 0.8261 0.11763 0.0
O604 O 0.2596 0.82204 0.14994 0.0
Mg605 Mg 0.28576 0.83615 0.16564 0.0
C606 C 0.25387 0.81957 0.13224 0.0
C607 C 0.27176 0.84405 0.07188 0.0
O608 O 0.25821 0.85112 0.08363 0.0
O609 O 0.3104 0.8171 0.11772 0.0
O610 O 0.30642 0.81486 0.15028 0.0
O611 O 0.27214 0.87133 0.11795 0.0
O612 O 0.28916 0.85619 0.14096 0.0
C613 C 0.31416 0.80894 0.13426 0.0
C614 C 0.2764 0.86921 0.13633 0.0
O615 O 0.28806 0.83878 0.07929 0.0
Mg616 Mg 0.6505 0.78923 0.61213 0.0
O617 O 0.67184 0.76379 0.61823 0.0
O618 O 0.67221 0.75658 0.65029 0.0
Mg619 Mg 0.65524 0.78122 0.66542 0.0
C620 C 0.67744 0.75311 0.6326 0.0
C621 C 0.65948 0.77144 0.57168 0.0
O622 O 0.65481 0.75618 0.58254 0.0
O623 O 0.67525 0.81092 0.62036 0.0
O624 O 0.67708 0.80275 0.65211 0.0
O625 O 0.62628 0.76707 0.61353 0.0
O626 O 0.63678 0.78362 0.63933 0.0
C627 C 0.68327 0.81242 0.63728 0.0
C628 C 0.62669 0.76924 0.6324 0.0
O629 O 0.65945 0.78843 0.57952 0.0
Mg630 Mg 0.28559 0.15355 0.88227 0.0
O631 O 0.25742 0.17147 0.87899 0.0
O632 O 0.25138 0.1768 0.84711 0.0
Mg633 Mg 0.27682 0.16305 0.82987 0.0
C634 C 0.2469 0.17849 0.86523 0.0
C635 C 0.2697 0.16 0.92523 0.0
O636 O 0.25279 0.15847 0.91613 0.0
O637 O 0.30373 0.18151 0.87632 0.0
O638 O 0.2981 0.1848 0.84408 0.0
O639 O 0.26742 0.12633 0.87817 0.0
O640 O 0.28198 0.14242 0.854 0.0
C641 C 0.30646 0.19034 0.85994 0.0
C642 C 0.27032 0.12868 0.85952 0.0
O643 O 0.28554 0.15885 0.91544 0.0
Mg644 Mg 0.34551 0.78994 0.38697 0.0
O645 O 0.32561 0.76372 0.38055 0.0
O646 O 0.32065 0.76107 0.34825 0.0
Mg647 Mg 0.33646 0.78722 0.33387 0.0
C648 C 0.31812 0.75493 0.36581 0.0
C649 C 0.34039 0.76899 0.42676 0.0
O650 O 0.3457 0.75454 0.41511 0.0
O651 O 0.31899 0.81018 0.38251 0.0
O652 O 0.31557 0.8083 0.34982 0.0
O653 O 0.37121 0.77021 0.38159 0.0
O654 O 0.35706 0.78822 0.35855 0.0
C655 C 0.31047 0.81514 0.36653 0.0
C656 C 0.36946 0.77479 0.36322 0.0
O657 O 0.33891 0.78624 0.4197 0.0
Mg658 Mg 0.65343 0.2117 0.38714 0.0
O659 O 0.67341 0.2384 0.38376 0.0
O660 O 0.67638 0.24637 0.35211 0.0
Mg661 Mg 0.66087 0.2221 0.3346 0.0
C662 C 0.67997 0.24954 0.37026 0.0
C663 C 0.65727 0.2292 0.42788 0.0
O664 O 0.65064 0.24349 0.41673 0.0
O665 O 0.67991 0.19183 0.37957 0.0
O666 O 0.68198 0.19972 0.34776 0.0
O667 O 0.62713 0.23178 0.38406 0.0
O668 O 0.64119 0.21654 0.35921 0.0
C669 C 0.68796 0.19 0.36266 0.0
C670 C 0.62839 0.22886 0.36535 0.0
O671 O 0.66035 0.21245 0.42013 0.0
H672 H 0.95475 0.29024 0.16799 0.0
H673 H 0.94464 0.29461 0.10508 0.0
H674 H 0.98011 0.2936 0.09923 0.0
H675 H 0.99803 0.32096 0.16886 0.0
H676 H 0.01055 0.30654 0.18721 0.0
H677 H 0.98416 0.30729 0.18679 0.0
H678 H 0.98307 0.2693 0.18463 0.0
H679 H 0.00947 0.26843 0.18499 0.0
H680 H 0.99614 0.25697 0.16519 0.0
H681 H 0.01604 0.29221 0.09965 0.0
H682 H 0.05138 0.29134 0.10637 0.0
H683 H 0.03955 0.2881 0.16905 0.0
C684 C 0.96004 0.29102 0.15301 0.0
C685 C 0.94685 0.29254 0.137 0.0
C686 C 0.95436 0.29352 0.11761 0.0
C687 C 0.97453 0.2929 0.1141 0.0
C688 C 0.98709 0.29136 0.13011 0.0
C689 C 0.98027 0.2905 0.14919 0.0
C690 C 0.99722 0.28916 0.16364 0.0
C691 C 0.9975 0.30706 0.17744 0.0
C692 C 0.99642 0.26981 0.1753 0.0
C693 C 0.01454 0.28947 0.1496 0.0
C694 C 0.00822 0.29067 0.13036 0.0
C695 C 0.02123 0.2913 0.11465 0.0
C696 C 0.04131 0.29083 0.11866 0.0
C697 C 0.0483 0.28974 0.13824 0.0
C698 C 0.03467 0.28895 0.15393 0.0
H699 H 0.24976 0.53925 0.66295 0.0
H700 H 0.18746 0.55201 0.66656 0.0
H701 H 0.18027 0.51657 0.66717 0.0
H702 H 0.24608 0.49855 0.63102 0.0
H703 H 0.26519 0.4844 0.64265 0.0
H704 H 0.26571 0.51083 0.64385 0.0
H705 H 0.26713 0.50919 0.68186 0.0
H706 H 0.26664 0.48272 0.68078 0.0
H707 H 0.24855 0.49573 0.69503 0.0
H708 H 0.1795 0.48004 0.66577 0.0
H709 H 0.18526 0.44444 0.66231 0.0
H710 H 0.24801 0.45501 0.6595 0.0
C711 C 0.23463 0.5346 0.66406 0.0
C712 C 0.21919 0.54846 0.66471 0.0
C713 C 0.19956 0.54172 0.66607 0.0
C714 C 0.1953 0.5216 0.66646 0.0
C715 C 0.21081 0.50834 0.66559 0.0
C716 C 0.23009 0.51451 0.66451 0.0
C717 C 0.24393 0.49712 0.66315 0.0
C718 C 0.25593 0.49777 0.64403 0.0
C719 C 0.25735 0.49614 0.68129 0.0
C720 C 0.22935 0.48029 0.66304 0.0
C721 C 0.21036 0.48712 0.66471 0.0
C722 C 0.19431 0.47447 0.66458 0.0
C723 C 0.19775 0.45427 0.66258 0.0
C724 C 0.21708 0.44691 0.6606 0.0
C725 C 0.23306 0.46015 0.66099 0.0
H726 H 0.03878 0.74902 0.16107 0.0
H727 H 0.05188 0.68658 0.15867 0.0
H728 H 0.01657 0.67908 0.16053 0.0
H729 H 0.99752 0.74503 0.19511 0.0
H730 H 0.98376 0.76423 0.18314 0.0
H731 H 0.01017 0.76471 0.1827 0.0
H732 H 0.00959 0.76631 0.14465 0.0
H733 H 0.98321 0.76587 0.14497 0.0
H734 H 0.99652 0.74771 0.13105 0.0
H735 H 0.97984 0.67834 0.16148 0.0
H736 H 0.9442 0.68448 0.1604 0.0
H737 H 0.95503 0.74738 0.16189 0.0
C738 C 0.03425 0.73376 0.16105 0.0
C739 C 0.04812 0.7184 0.15972 0.0
C740 C 0.04155 0.69862 0.15969 0.0
C741 C 0.02152 0.6942 0.1608 0.0
C742 C 0.00824 0.70969 0.16201 0.0
C743 C 0.01431 0.72908 0.16216 0.0
C744 C 0.997 0.74298 0.16294 0.0
C745 C 0.99712 0.75494 0.18212 0.0
C746 C 0.99656 0.75651 0.14482 0.0
C747 C 0.98024 0.7284 0.16265 0.0
C748 C 0.98704 0.70927 0.16239 0.0
C749 C 0.97433 0.69326 0.16177 0.0
C750 C 0.95411 0.6969 0.16117 0.0
C751 C 0.94682 0.71641 0.16101 0.0
C752 C 0.96012 0.73231 0.16198 0.0
H753 H 0.78671 0.45924 0.66526 0.0
H754 H 0.78649 0.44973 0.6021 0.0
H755 H 0.78572 0.48539 0.59667 0.0
H756 H 0.75412 0.50157 0.66502 0.0
H757 H 0.76716 0.51436 0.68419 0.0
H758 H 0.7673 0.48788 0.68347 0.0
H759 H 0.80527 0.48803 0.68322 0.0
H760 H 0.80524 0.5145 0.68392 0.0
H761 H 0.81807 0.50179 0.66457 0.0
H762 H 0.78554 0.52152 0.59755 0.0
H763 H 0.78589 0.5569 0.60476 0.0
H764 H 0.78629 0.54417 0.66735 0.0
C765 C 0.78644 0.46469 0.65031 0.0
C766 C 0.78669 0.45163 0.63411 0.0
C767 C 0.78637 0.45937 0.61477 0.0
C768 C 0.78589 0.47964 0.6115 0.0
C769 C 0.78576 0.49208 0.62769 0.0
C770 C 0.78601 0.48503 0.64673 0.0
C771 C 0.78607 0.50186 0.6614 0.0
C772 C 0.76756 0.50139 0.67428 0.0
C773 C 0.80478 0.50152 0.67402 0.0
C774 C 0.78591 0.51938 0.64756 0.0
C775 C 0.78569 0.51328 0.6282 0.0
C776 C 0.78569 0.52653 0.61264 0.0
C777 C 0.78592 0.54663 0.61692 0.0
C778 C 0.78616 0.55337 0.63662 0.0
C779 C 0.78612 0.53949 0.65214 0.0
H780 H 0.95776 0.7139 0.8291 0.0
H781 H 0.94474 0.70553 0.89104 0.0
H782 H 0.97997 0.70408 0.89836 0.0
H783 H -0.00016 0.68118 0.82767 0.0
H784 H 0.0136 0.69642 0.81096 0.0
H785 H 0.98719 0.69663 0.81025 0.0
H786 H 0.98729 0.73439 0.81518 0.0
H787 H 0.01368 0.73429 0.8159 0.0
H788 H -2e-05 0.74477 0.83597 0.0
H789 H 0.01612 0.70392 0.89944 0.0
H790 H 0.05176 0.70501 0.89417 0.0
H791 H 0.04227 0.71337 0.83157 0.0
C792 C 0.96234 0.7117 0.84418 0.0
C793 C 0.94844 0.7098 0.85949 0.0
C794 C 0.95504 0.70698 0.87904 0.0
C795 C 0.97506 0.70613 0.88338 0.0
C796 C 0.98836 0.70808 0.86803 0.0
C797 C 0.98237 0.71077 0.84881 0.0
C798 C -0.0001 0.71254 0.83519 0.0
C799 C 0.00014 0.69569 0.82013 0.0
C800 C 0.00023 0.7327 0.82496 0.0
C801 C 0.01659 0.71056 0.84983 0.0
C802 C 0.0095 0.70796 0.86866 0.0
C803 C 0.0219 0.7059 0.88476 0.0
C804 C 0.04214 0.70654 0.88159 0.0
C805 C 0.04985 0.70925 0.86246 0.0
C806 C 0.03684 0.71124 0.84637 0.0
H807 H 0.78155 0.54206 0.37863 0.0
H808 H 0.79257 0.55469 0.31707 0.0
H809 H 0.79425 0.51905 0.31017 0.0
H810 H 0.81374 0.50038 0.38247 0.0
H811 H 0.79766 0.48703 0.39871 0.0
H812 H 0.7975 0.51351 0.39874 0.0
H813 H 0.76012 0.51337 0.39184 0.0
H814 H 0.76017 0.48691 0.3918 0.0
H815 H 0.75081 0.50016 0.37086 0.0
H816 H 0.79446 0.48189 0.31005 0.0
H817 H 0.79304 0.4462 0.3167 0.0
H818 H 0.78185 0.45829 0.37834 0.0
C819 C 0.78437 0.53738 0.36369 0.0
C820 C 0.78696 0.55118 0.34839 0.0
C821 C 0.79057 0.54439 0.32904 0.0
C822 C 0.79155 0.52419 0.32497 0.0
C823 C 0.7889 0.51099 0.34041 0.0
C824 C 0.78538 0.51732 0.35938 0.0
C825 C 0.78289 0.50019 0.37333 0.0
C826 C 0.7989 0.50029 0.38925 0.0
C827 C 0.76227 0.50016 0.38249 0.0
C828 C 0.78553 0.48319 0.35926 0.0
C829 C 0.789 0.48969 0.34034 0.0
C830 C 0.79179 0.47663 0.32482 0.0
C831 C 0.79096 0.45639 0.32874 0.0
C832 C 0.78737 0.44943 0.34804 0.0
C833 C 0.78467 0.46309 0.36343 0.0
H834 H 0.0379 0.26966 0.87375 0.0
H835 H 0.05169 0.29137 0.81535 0.0
H836 H 0.01635 0.29475 0.80827 0.0
H837 H 0.99509 0.24159 0.85982 0.0
H838 H 0.98186 0.24749 0.88197 0.0
H839 H 0.00825 0.24646 0.88229 0.0
H840 H 0.00953 0.28202 0.89591 0.0
H841 H 0.98316 0.28318 0.8956 0.0
H842 H 0.99731 0.30147 0.88271 0.0
H843 H 0.97959 0.29656 0.80786 0.0
H844 H 0.94392 0.29609 0.81391 0.0
H845 H 0.95425 0.27294 0.8725 0.0
C846 C 0.03352 0.27506 0.85944 0.0
C847 C 0.04757 0.28027 0.84511 0.0
C848 C 0.0412 0.28728 0.82657 0.0
C849 C 0.02116 0.28926 0.8224 0.0
C850 C 0.00771 0.28411 0.8369 0.0
C851 C 0.01361 0.27709 0.85502 0.0
C852 C 0.9962 0.27274 0.8681 0.0
C853 C 0.9953 0.25076 0.87335 0.0
C854 C 0.99658 0.28562 0.88668 0.0
C855 C 0.97958 0.27853 0.85455 0.0
C856 C 0.98653 0.28505 0.83663 0.0
C857 C 0.97396 0.29144 0.82181 0.0
C858 C 0.95373 0.29114 0.82541 0.0
C859 C 0.94628 0.28448 0.84368 0.0
C860 C 0.95945 0.27808 0.85837 0.0
H861 H 0.22198 0.45776 0.3785 0.0
H862 H 0.20185 0.446 0.3191 0.0
H863 H 0.19984 0.48174 0.31283 0.0
H864 H 0.19135 0.49946 0.3874 0.0
H865 H 0.20964 0.51263 0.40126 0.0
H866 H 0.20979 0.48616 0.40097 0.0
H867 H 0.24573 0.48637 0.38863 0.0
H868 H 0.24571 0.51284 0.38893 0.0
H869 H 0.25187 0.49987 0.36668 0.0
H870 H 0.19927 0.5187 0.31335 0.0
H871 H 0.20099 0.55424 0.32021 0.0
H872 H 0.22198 0.54182 0.37919 0.0
C873 C 0.21718 0.46265 0.36414 0.0
C874 C 0.21202 0.44906 0.34929 0.0
C875 C 0.20584 0.45613 0.33071 0.0
C876 C 0.20466 0.47639 0.32701 0.0
C877 C 0.20975 0.48937 0.34202 0.0
C878 C 0.21596 0.48279 0.36019 0.0
C879 C 0.22052 0.49978 0.37384 0.0
C880 C 0.20702 0.49948 0.39194 0.0
C881 C 0.24225 0.49971 0.37987 0.0
C882 C 0.21585 0.51699 0.36053 0.0
C883 C 0.20962 0.51065 0.34226 0.0
C884 C 0.20418 0.52382 0.32758 0.0
C885 C 0.20516 0.544 0.33166 0.0
C886 C 0.21163 0.55085 0.35025 0.0
C887 C 0.21705 0.53708 0.36482 0.0
H888 H 0.12694 0.95852 0.28696 0.0
H889 H 0.18967 0.94792 0.28473 0.0
H890 H 0.19565 0.98374 0.28608 0.0
H891 H 0.12681 0.00171 0.25671 0.0
H892 H 0.10789 0.01375 0.27074 0.0
H893 H 0.10872 0.98732 0.26958 0.0
H894 H 0.10974 0.98565 0.30764 0.0
H895 H 0.10899 0.01208 0.30891 0.0
H896 H 0.12859 0.99882 0.32075 0.0
H897 H 0.1946 0.02097 0.28769 0.0
H898 H 0.18657 0.0564 0.28908 0.0
H899 H 0.12456 0.04204 0.2904 0.0
C900 C 0.14196 0.96368 0.28674 0.0
C901 C 0.15784 0.95041 0.28576 0.0
C902 C 0.17726 0.95782 0.2855 0.0
C903 C 0.18081 0.97813 0.28627 0.0
C904 C 0.16478 0.9908 0.2873 0.0
C905 C 0.14575 0.98384 0.28751 0.0
C906 C 0.13107 0.00046 0.28865 0.0
C907 C 0.11785 0.00082 0.27033 0.0
C908 C 0.11889 0.99917 0.30762 0.0
C909 C 0.14479 0.01789 0.28905 0.0
C910 C 0.16418 0.01207 0.28826 0.0
C911 C 0.17946 0.02568 0.28833 0.0
C912 C 0.17475 0.04577 0.28914 0.0
C913 C 0.15494 0.052 0.28988 0.0
C914 C 0.13985 0.03779 0.2899 0.0
H915 H 0.53673 0.64946 0.74787 0.0
H916 H 0.5499 0.68622 0.79836 0.0
H917 H 0.5145 0.69119 0.80392 0.0
H918 H 0.49334 0.67698 0.73113 0.0
H919 H 0.4805 0.65497 0.72394 0.0
H920 H 0.50688 0.65577 0.72289 0.0
H921 H 0.50868 0.62486 0.7451 0.0
H922 H 0.48234 0.62404 0.74633 0.0
H923 H 0.49657 0.62505 0.76864 0.0
H924 H 0.47789 0.69012 0.80553 0.0
H925 H 0.44245 0.68366 0.80275 0.0
H926 H 0.45301 0.64755 0.75119 0.0
C927 C 0.5322 0.65884 0.7599 0.0
C928 C 0.5461 0.66749 0.77266 0.0
C929 C 0.53953 0.67946 0.78837 0.0
C930 C 0.51946 0.68239 0.79164 0.0
C931 C 0.50615 0.67333 0.77902 0.0
C932 C 0.51223 0.66189 0.7634 0.0
C933 C 0.49492 0.653 0.75263 0.0
C934 C 0.49385 0.66064 0.73139 0.0
C935 C 0.49568 0.6304 0.75322 0.0
C936 C 0.47817 0.6609 0.7649 0.0
C937 C 0.48497 0.67269 0.77996 0.0
C938 C 0.47236 0.68107 0.79368 0.0
C939 C 0.45225 0.67725 0.792 0.0
C940 C 0.44492 0.66512 0.77673 0.0
C941 C 0.45811 0.65698 0.76294 0.0
H942 H 0.83808 0.04196 0.25179 0.0
H943 H 0.83664 0.0539 0.31446 0.0
H944 H 0.83457 0.01833 0.32116 0.0
H945 H 0.80414 3e-05 0.25308 0.0
H946 H 0.81731 0.98677 0.23433 0.0
H947 H 0.81742 0.01326 0.23438 0.0
H948 H 0.85541 0.01312 0.23487 0.0
H949 H 0.85541 0.98667 0.23487 0.0
H950 H 0.8681 0.99988 0.25399 0.0
H951 H 0.83444 0.98148 0.32119 0.0
H952 H 0.83626 0.94587 0.31453 0.0
H953 H 0.83774 0.95779 0.25185 0.0
C954 C 0.83714 0.03712 0.26692 0.0
C955 C 0.83752 0.05077 0.2826 0.0
C956 C 0.83632 0.04378 0.30219 0.0
C957 C 0.83512 0.02358 0.30615 0.0
C958 C 0.83499 0.01054 0.29038 0.0
C959 C 0.83586 0.017 0.27115 0.0
C960 C 0.83608 0.99986 0.25692 0.0
C961 C 0.81764 0.99999 0.24391 0.0
C962 C 0.85487 0.99989 0.24443 0.0
C963 C 0.83577 0.98276 0.27119 0.0
C964 C 0.83493 0.98924 0.29041 0.0
C965 C 0.83496 0.97621 0.3062 0.0
C966 C 0.83601 0.956 0.30225 0.0
C967 C 0.83713 0.94899 0.28267 0.0
C968 C 0.83684 0.96263 0.26698 0.0
H969 H 0.5405 0.37496 0.80432 0.0
H970 H 0.55231 0.31598 0.7829 0.0
H971 H 0.51681 0.30953 0.78104 0.0
H972 H 0.49821 0.36204 0.83411 0.0
H973 H 0.48516 0.38436 0.82838 0.0
H974 H 0.51157 0.38424 0.8286 0.0
H975 H 0.51199 0.39747 0.79288 0.0
H976 H 0.4856 0.39764 0.79256 0.0
H977 H 0.49893 0.3843 0.77398 0.0
H978 H 0.48012 0.30961 0.78074 0.0
H979 H 0.44462 0.31642 0.78171 0.0
H980 H 0.45655 0.37532 0.80327 0.0
C981 C 0.53564 0.36066 0.79932 0.0
C982 C 0.54923 0.34599 0.79378 0.0
C983 C 0.54222 0.32747 0.78727 0.0
C984 C 0.52206 0.32363 0.78617 0.0
C985 C 0.50908 0.33842 0.79168 0.0
C986 C 0.51555 0.35656 0.79815 0.0
C987 C 0.49848 0.37 0.80287 0.0
C988 C 0.49835 0.37548 0.82479 0.0
C989 C 0.49877 0.38844 0.78979 0.0
C990 C 0.48143 0.35667 0.79777 0.0
C991 C 0.48788 0.33848 0.79146 0.0
C992 C 0.47488 0.32377 0.78572 0.0
C993 C 0.45473 0.32779 0.78633 0.0
C994 C 0.44777 0.3464 0.79257 0.0
C995 C 0.46137 0.36094 0.79845 0.0
H996 H 0.15846 0.04223 0.7477 0.0
H997 H 0.17534 0.05263 0.68706 0.0
H998 H 0.18051 0.017 0.68251 0.0
H999 H 0.19302 0.00159 0.75678 0.0
H1000 H 0.17583 0.98841 0.77197 0.0
H1001 H 0.17505 0.01487 0.77095 0.0
H1002 H 0.13848 0.01346 0.76072 0.0
H1003 H 0.13914 0.98703 0.7617 0.0
H1004 H 0.13146 0.99926 0.73948 0.0
H1005 H 0.18172 0.98025 0.68388 0.0
H1006 H 0.17846 0.94487 0.69082 0.0
H1007 H 0.16068 0.95826 0.75063 0.0
C1008 C 0.16346 0.03707 0.73351 0.0
C1009 C 0.16649 0.05024 0.71773 0.0
C1010 C 0.17295 0.04284 0.69938 0.0
C1011 C 0.17598 0.02263 0.69667 0.0
C1012 C 0.17263 0.01004 0.71247 0.0
C1013 C 0.16659 0.01696 0.73056 0.0
C1014 C 0.16316 0.00023 0.74487 0.0
C1015 C 0.17763 0.00135 0.76217 0.0
C1016 C 0.14179 0.99999 0.75211 0.0
C1017 C 0.16755 0.98277 0.73179 0.0
C1018 C 0.17326 0.98878 0.71325 0.0
C1019 C 0.17743 0.97537 0.69839 0.0
C1020 C 0.17549 0.95528 0.70249 0.0
C1021 C 0.16928 0.94874 0.72128 0.0
C1022 C 0.16554 0.96274 0.73616 0.0
H1023 H 0.45557 0.66889 0.21413 0.0
H1024 H 0.4445 0.6065 0.20604 0.0
H1025 H 0.47995 0.60025 0.20509 0.0
H1026 H 0.49758 0.67158 0.18192 0.0
H1027 H 0.51082 0.68874 0.19713 0.0
H1028 H 0.48441 0.68861 0.19733 0.0
H1029 H 0.48468 0.68372 0.23508 0.0
H1030 H 0.51109 0.68382 0.23499 0.0
H1031 H 0.49802 0.66333 0.24549 0.0
H1032 H 0.51609 0.60032 0.20496 0.0
H1033 H 0.55153 0.60678 0.20544 0.0
H1034 H 0.54017 0.66913 0.21352 0.0
C1035 C 0.46063 0.65394 0.21214 0.0
C1036 C 0.4472 0.63819 0.21014 0.0
C1037 C 0.45443 0.61883 0.20758 0.0
C1038 C 0.47457 0.61509 0.20703 0.0
C1039 C 0.48738 0.63086 0.20905 0.0
C1040 C 0.4808 0.6499 0.21153 0.0
C1041 C 0.4979 0.66409 0.21327 0.0
C1042 C 0.49766 0.67914 0.1964 0.0
C1043 C 0.49792 0.67434 0.23341 0.0
C1044 C 0.51503 0.64998 0.21133 0.0
C1045 C 0.50853 0.6309 0.20894 0.0
C1046 C 0.52141 0.6152 0.20681 0.0
C1047 C 0.54154 0.61905 0.20709 0.0
C1048 C 0.54868 0.63846 0.20948 0.0
C1049 C 0.53518 0.65413 0.21165 0.0
H1050 H 0.83304 0.044 0.70583 0.0
H1051 H 0.8357 0.05381 0.76883 0.0
H1052 H 0.83263 0.01819 0.7745 0.0
H1053 H 0.7981 0.0023 0.70754 0.0
H1054 H 0.81016 0.98941 0.68782 0.0
H1055 H 0.81062 0.0159 0.68858 0.0
H1056 H 0.84856 0.01532 0.68716 0.0
H1057 H 0.84823 0.98888 0.68643 0.0
H1058 H 0.86201 0.00141 0.70525 0.0
H1059 H 0.83191 0.98181 0.77355 0.0
H1060 H 0.83396 0.9465 0.76609 0.0
H1061 H 0.83181 0.95947 0.70364 0.0
C1062 C 0.83265 0.03867 0.72081 0.0
C1063 C 0.83457 0.05173 0.7369 0.0
C1064 C 0.83425 0.04414 0.75628 0.0
C1065 C 0.83243 0.02391 0.75966 0.0
C1066 C 0.83087 0.01143 0.74352 0.0
C1067 C 0.83089 0.01845 0.72447 0.0
C1068 C 0.83017 0.00167 0.70978 0.0
C1069 C 0.81113 0.00237 0.69772 0.0
C1070 C 0.84833 0.00183 0.69637 0.0
C1071 C 0.83036 0.98413 0.72357 0.0
C1072 C 0.83051 0.99019 0.74296 0.0
C1073 C 0.8316 0.97687 0.75843 0.0
C1074 C 0.83283 0.95682 0.75402 0.0
C1075 C 0.83304 0.95019 0.73428 0.0
C1076 C 0.83146 0.96407 0.71887 0.0
H1077 H 0.53981 0.32787 0.21026 0.0
H1078 H 0.55111 0.39062 0.21432 0.0
H1079 H 0.51573 0.39702 0.21555 0.0
H1080 H 0.49748 0.3318 0.17898 0.0
H1081 H 0.4842 0.31205 0.19057 0.0
H1082 H 0.5106 0.31195 0.19063 0.0
H1083 H 0.51066 0.30929 0.22859 0.0
H1084 H 0.48424 0.30934 0.22865 0.0
H1085 H 0.49751 0.32727 0.24291 0.0
H1086 H 0.47977 0.3972 0.21565 0.0
H1087 H 0.44432 0.39114 0.21467 0.0
H1088 H 0.45501 0.32829 0.21046 0.0
C1089 C 0.5348 0.34293 0.21146 0.0
C1090 C 0.54828 0.35874 0.21213 0.0
C1091 C 0.54114 0.37825 0.21367 0.0
C1092 C 0.52103 0.38207 0.21444 0.0
C1093 C 0.50816 0.36625 0.21362 0.0
C1094 C 0.51463 0.34706 0.21217 0.0
C1095 C 0.49742 0.33292 0.21118 0.0
C1096 C 0.49743 0.32151 0.19168 0.0
C1097 C 0.49747 0.31888 0.22889 0.0
C1098 C 0.48036 0.34724 0.2122 0.0
C1099 C 0.48702 0.36636 0.21365 0.0
C1100 C 0.47431 0.3823 0.21455 0.0
C1101 C 0.45416 0.37868 0.21393 0.0
C1102 C 0.44682 0.35924 0.21244 0.0
C1103 C 0.46016 0.3433 0.21161 0.0
H1104 H 0.31107 0.1439 0.03376 0.0
H1105 H 0.25885 0.17372 0.05492 0.0
H1106 H 0.2481 0.17909 0.02081 0.0
H1107 H 0.31909 0.17549 0.99148 0.0
H1108 H 0.32718 0.15566 0.9759 0.0
H1109 H 0.33106 0.15435 0.00206 0.0
H1110 H 0.31273 0.12099 0.0032 0.0
H1111 H 0.3088 0.1222 0.97706 0.0
H1112 H 0.28822 0.11935 0.99341 0.0
H1113 H 0.24189 0.17951 0.98466 0.0
H1114 H 0.2417 0.17657 0.94845 0.0
H1115 H 0.29859 0.14811 0.95052 0.0
C1116 C 0.29744 0.15167 0.03122 0.0
C1117 C 0.28582 0.15837 0.04704 0.0
C1118 C 0.26806 0.16847 0.04307 0.0
C1119 C 0.26179 0.17159 0.02373 0.0
C1120 C 0.27349 0.16468 0.00849 0.0
C1121 C 0.29101 0.15508 0.01196 0.0
C1122 C 0.30074 0.14906 0.99288 0.0
C1123 C 0.3207 0.15926 0.99044 0.0
C1124 C 0.30273 0.12657 0.99157 0.0
C1125 C 0.2859 0.15674 0.97819 0.0
C1126 C 0.27022 0.16555 0.98753 0.0
C1127 C 0.25419 0.17285 0.97714 0.0
C1128 C 0.25418 0.17108 0.95662 0.0
C1129 C 0.27021 0.16232 0.94675 0.0
C1130 C 0.28631 0.1552 0.9577 0.0
H1131 H 0.29454 0.82747 0.04241 0.0
H1132 H 0.24178 0.86179 0.05254 0.0
H1133 H 0.23735 0.86559 0.01697 0.0
H1134 H 0.31288 0.85434 0.003 0.0
H1135 H 0.32142 0.83372 0.98874 0.0
H1136 H 0.3197 0.83174 0.01505 0.0
H1137 H 0.29739 0.80116 0.01147 0.0
H1138 H 0.29912 0.80298 0.98509 0.0
H1139 H 0.27543 0.80274 0.9968 0.0
H1140 H 0.24063 0.86969 0.98143 0.0
H1141 H 0.25018 0.87178 0.94665 0.0
H1142 H 0.29959 0.83315 0.95769 0.0
C1143 C 0.2819 0.83549 0.03709 0.0
C1144 C 0.26854 0.84438 0.05033 0.0
C1145 C 0.2522 0.85479 0.04279 0.0
C1146 C 0.24951 0.85704 0.02256 0.0
C1147 C 0.26307 0.84847 0.00994 0.0
C1148 C 0.27878 0.83762 0.01677 0.0
C1149 C 0.29142 0.83055 0.99977 0.0
C1150 C 0.31261 0.83805 0.00177 0.0
C1151 C 0.2908 0.80802 0.99819 0.0
C1152 C 0.28095 0.84011 0.98251 0.0
C1153 C 0.26453 0.8502 0.98885 0.0
C1154 C 0.2532 0.86152 0.97618 0.0
C1155 C 0.25881 0.86271 0.95648 0.0
C1156 C 0.27549 0.85252 0.94952 0.0
C1157 C 0.28655 0.84077 0.96262 0.0
H1158 H 0.65851 0.79888 0.5417 0.0
H1159 H 0.66941 0.73717 0.55383 0.0
H1160 H 0.67316 0.73082 0.51844 0.0
H1161 H 0.62944 0.79135 0.49992 0.0
H1162 H 0.63855 0.8121 0.48622 0.0
H1163 H 0.63893 0.81255 0.51266 0.0
H1164 H 0.67629 0.81937 0.51222 0.0
H1165 H 0.67601 0.81905 0.48573 0.0
H1166 H 0.69233 0.80298 0.499 0.0
H1167 H 0.67242 0.73019 0.48211 0.0
H1168 H 0.66824 0.73557 0.44655 0.0
H1169 H 0.65822 0.79771 0.45708 0.0
C1170 C 0.66212 0.78414 0.5369 0.0
C1171 C 0.6637 0.76852 0.55054 0.0
C1172 C 0.66808 0.74936 0.54367 0.0
C1173 C 0.67031 0.7456 0.52358 0.0
C1174 C 0.66817 0.76116 0.51048 0.0
C1175 C 0.66431 0.78008 0.51678 0.0
C1176 C 0.6615 0.79382 0.49942 0.0
C1177 C 0.64088 0.80299 0.49957 0.0
C1178 C 0.67749 0.80975 0.49908 0.0
C1179 C 0.66392 0.77953 0.48245 0.0
C1180 C 0.66788 0.76081 0.48924 0.0
C1181 C 0.66958 0.74483 0.47657 0.0
C1182 C 0.66708 0.74802 0.4564 0.0
C1183 C 0.66298 0.76706 0.44904 0.0
C1184 C 0.66161 0.78305 0.46226 0.0
H1185 H 0.7039 0.16639 0.04344 0.0
H1186 H 0.73279 0.11044 0.05402 0.0
H1187 H 0.73738 0.10602 0.01856 0.0
H1188 H 0.67762 0.15101 0.00095 0.0
H1189 H 0.68015 0.17385 0.98777 0.0
H1190 H 0.6803 0.17378 0.01423 0.0
H1191 H 0.71385 0.19158 0.01422 0.0
H1192 H 0.71379 0.19173 0.98773 0.0
H1193 H 0.73411 0.18104 0.00088 0.0
H1194 H 0.73729 0.1061 0.98275 0.0
H1195 H 0.73244 0.11064 0.94732 0.0
H1196 H 0.70369 0.16659 0.95821 0.0
C1197 C 0.71136 0.15334 0.03824 0.0
C1198 C 0.71794 0.13873 0.05154 0.0
C1199 C 0.72748 0.12177 0.04418 0.0
C1200 C 0.73027 0.11915 0.02403 0.0
C1201 C 0.72343 0.1336 0.01132 0.0
C1202 C 0.71418 0.15038 0.01799 0.0
C1203 C 0.70746 0.16303 0.00081 0.0
C1204 C 0.68505 0.16556 0.00096 0.0
C1205 C 0.71793 0.18303 0.00092 0.0
C1206 C 0.7141 0.15046 0.98357 0.0
C1207 C 0.72339 0.13365 0.99014 0.0
C1208 C 0.73016 0.11926 0.97735 0.0
C1209 C 0.72723 0.12195 0.95723 0.0
C1210 C 0.71765 0.13894 0.94998 0.0
C1211 C 0.7112 0.15353 0.96334 0.0
H1212 H 0.33529 0.20265 0.54157 0.0
H1213 H 0.32906 0.26503 0.55364 0.0
H1214 H 0.32624 0.27164 0.51819 0.0
H1215 H 0.36513 0.208 0.49951 0.0
H1216 H 0.35439 0.18788 0.48605 0.0
H1217 H 0.35427 0.18763 0.5125 0.0
H1218 H 0.31651 0.18352 0.51241 0.0
H1219 H 0.31651 0.18371 0.48593 0.0
H1220 H 0.30156 0.20099 0.49928 0.0
H1221 H 0.32653 0.27204 0.48176 0.0
H1222 H 0.3296 0.26615 0.44619 0.0
H1223 H 0.3353 0.2035 0.457 0.0
C1224 C 0.33303 0.21765 0.53675 0.0
C1225 C 0.33238 0.23333 0.55041 0.0
C1226 C 0.32966 0.25278 0.54349 0.0
C1227 C 0.32797 0.2567 0.52337 0.0
C1228 C 0.32897 0.24101 0.51029 0.0
C1229 C 0.33137 0.22186 0.51663 0.0
C1230 C 0.33297 0.20786 0.49933 0.0
C1231 C 0.35287 0.19722 0.49935 0.0
C1232 C 0.31586 0.19315 0.49924 0.0
C1233 C 0.33141 0.22221 0.48232 0.0
C1234 C 0.32902 0.24123 0.48904 0.0
C1235 C 0.32818 0.2572 0.47629 0.0
C1236 C 0.33 0.2537 0.4561 0.0
C1237 C 0.33258 0.23437 0.4488 0.0
C1238 C 0.33305 0.2184 0.46212 0.0
H1239 H 0.73727 0.87014 0.0417 0.0
H1240 H 0.70147 0.81888 0.05432 0.0
H1241 H 0.69811 0.81252 0.01879 0.0
H1242 H 0.70998 0.88624 0.00025 0.0
H1243 H 0.73106 0.89453 0.98662 0.0
H1244 H 0.73162 0.89446 0.01307 0.0
H1245 H 0.7629 0.87285 0.01252 0.0
H1246 H 0.76248 0.87289 0.98605 0.0
H1247 H 0.76269 0.84991 0.99925 0.0
H1248 H 0.6974 0.81251 0.98201 0.0
H1249 H 0.69956 0.81876 0.94636 0.0
H1250 H 0.73583 0.87001 0.95763 0.0
C1251 C 0.72886 0.85748 0.03701 0.0
C1252 C 0.71962 0.84501 0.05079 0.0
C1253 C 0.70863 0.82868 0.04403 0.0
C1254 C 0.70668 0.82491 0.02388 0.0
C1255 C 0.71579 0.8376 0.01069 0.0
C1256 C 0.72669 0.85354 0.01694 0.0
C1257 C 0.73442 0.86528 0.99969 0.0
C1258 C 0.72628 0.88637 -7e-05 0.0
C1259 C 0.75696 0.86522 0.99936 0.0
C1260 C 0.72604 0.85352 0.98277 0.0
C1261 C 0.71538 0.83759 0.98944 0.0
C1262 C 0.70579 0.82488 0.9766 0.0
C1263 C 0.70706 0.82859 0.95638 0.0
C1264 C 0.71787 0.84487 0.9492 0.0
C1265 C 0.72755 0.85739 0.96263 0.0
H1266 H 0.6645 0.20297 0.54236 0.0
H1267 H 0.65953 0.26575 0.55295 0.0
H1268 H 0.66132 0.27195 0.51743 0.0
H1269 H 0.69817 0.20694 0.49953 0.0
H1270 H 0.68665 0.18684 0.48669 0.0
H1271 H 0.68702 0.18718 0.51318 0.0
H1272 H 0.64918 0.18392 0.51375 0.0
H1273 H 0.64869 0.18363 0.48731 0.0
H1274 H 0.63445 0.20157 0.50059 0.0
H1275 H 0.66086 0.2716 0.48133 0.0
H1276 H 0.6581 0.26472 0.44601 0.0
H1277 H 0.66335 0.20214 0.45768 0.0
C1278 C 0.66414 0.21802 0.53719 0.0
C1279 C 0.66189 0.23387 0.55046 0.0
C1280 C 0.66121 0.25335 0.54311 0.0
C1281 C 0.66231 0.25706 0.52294 0.0
C1282 C 0.66417 0.24116 0.51024 0.0
C1283 C 0.66517 0.22202 0.51698 0.0
C1284 C 0.66603 0.20763 0.49994 0.0
C1285 C 0.68563 0.19649 0.49983 0.0
C1286 C 0.64854 0.19335 0.50043 0.0
C1287 C 0.66464 0.22168 0.48266 0.0
C1288 C 0.66385 0.24095 0.48904 0.0
C1289 C 0.66167 0.2566 0.47609 0.0
C1290 C 0.66003 0.2525 0.45604 0.0
C1291 C 0.6605 0.23289 0.44906 0.0
C1292 C 0.66312 0.21729 0.46256 0.0
H1293 H 0.3384 0.79569 0.45712 0.0
H1294 H 0.33448 0.73335 0.44397 0.0
H1295 H 0.33048 0.72614 0.47922 0.0
H1296 H 0.36707 0.79065 0.49965 0.0
H1297 H 0.35545 0.81025 0.51314 0.0
H1298 H 0.35588 0.81088 0.48671 0.0
H1299 H 0.31802 0.81385 0.486 0.0
H1300 H 0.31747 0.81327 0.51248 0.0
H1301 H 0.30332 0.79576 0.49855 0.0
H1302 H 0.32945 0.72527 0.51565 0.0
H1303 H 0.33191 0.73072 0.55133 0.0
H1304 H 0.33676 0.79361 0.5414 0.0
C1305 C 0.33635 0.78056 0.46165 0.0
C1306 C 0.33671 0.76507 0.4478 0.0
C1307 C 0.3343 0.74545 0.45431 0.0
C1308 C 0.33192 0.7412 0.4743 0.0
C1309 C 0.33197 0.75674 0.4876 0.0
C1310 C 0.33409 0.77604 0.48161 0.0
C1311 C 0.33492 0.78982 0.49911 0.0
C1312 C 0.3545 0.80105 0.49968 0.0
C1313 C 0.31739 0.80401 0.49903 0.0
C1314 C 0.33343 0.77518 0.51584 0.0
C1315 C 0.33151 0.75622 0.50883 0.0
C1316 C 0.33076 0.74006 0.52135 0.0
C1317 C 0.33223 0.74332 0.54161 0.0
C1318 C 0.33451 0.76259 0.54917 0.0
C1319 C 0.33484 0.77873 0.53608 0.0
H1320 H 0.17543 0.32141 0.30118 0.0
H1321 H 0.16696 0.38404 0.29257 0.0
H1322 H 0.14556 0.3769 0.26388 0.0
H1323 H 0.18129 0.30989 0.25255 0.0
H1324 H 0.16942 0.28628 0.25425 0.0
H1325 H 0.18113 0.29663 0.27549 0.0
H1326 H 0.14859 0.29354 0.29498 0.0
H1327 H 0.13671 0.2833 0.27365 0.0
H1328 H 0.12659 0.30475 0.28545 0.0
H1329 H 0.12821 0.36221 0.23342 0.0
H1330 H 0.11908 0.34209 0.2043 0.0
H1331 H 0.13984 0.28985 0.23403 0.0
C1332 C 0.16885 0.33374 0.29357 0.0
C1333 C 0.17289 0.35331 0.29917 0.0
C1334 C 0.16398 0.36891 0.28864 0.0
C1335 C 0.15178 0.36497 0.27236 0.0
C1336 C 0.1485 0.34539 0.26702 0.0
C1337 C 0.15682 0.33009 0.27746 0.0
C1338 C 0.15299 0.31043 0.26794 0.0
C1339 C 0.17235 0.30023 0.26221 0.0
C1340 C 0.14047 0.29724 0.2813 0.0
C1341 C 0.14163 0.31695 0.25009 0.0
C1342 C 0.1388 0.3371 0.24982 0.0
C1343 C 0.13003 0.34641 0.23373 0.0
C1344 C 0.12474 0.3349 0.21732 0.0
C1345 C 0.12855 0.31446 0.21718 0.0
C1346 C 0.13646 0.30542 0.234 0.0
H1347 H 0.12501 0.69588 0.76962 0.0
H1348 H 0.1362 0.64948 0.81151 0.0
H1349 H 0.14454 0.6268 0.78426 0.0
H1350 H 0.10784 0.6626 0.72668 0.0
H1351 H 0.12018 0.67846 0.70944 0.0
H1352 H 0.10923 0.68865 0.73131 0.0
H1353 H 0.14257 0.70443 0.74056 0.0
H1354 H 0.15361 0.69419 0.719 0.0
H1355 H 0.16394 0.68897 0.74283 0.0
H1356 H 0.159 0.61211 0.75353 0.0
H1357 H 0.17845 0.60743 0.72311 0.0
H1358 H 0.15827 0.66382 0.70165 0.0
C1359 C 0.1281 0.68059 0.77284 0.0
C1360 C 0.12942 0.6741 0.7924 0.0
C1361 C 0.13451 0.65439 0.79646 0.0
C1362 C 0.13929 0.64147 0.78107 0.0
C1363 C 0.13875 0.64855 0.7618 0.0
C1364 C 0.13295 0.66764 0.75766 0.0
C1365 C 0.13674 0.67289 0.73642 0.0
C1366 C 0.11734 0.67582 0.72531 0.0
C1367 C 0.15001 0.69118 0.73463 0.0
C1368 C 0.14706 0.65446 0.72963 0.0
C1369 C 0.14751 0.64026 0.74418 0.0
C1370 C 0.15823 0.62289 0.74186 0.0
C1371 C 0.16922 0.62031 0.72455 0.0
C1372 C 0.16969 0.63525 0.71012 0.0
C1373 C 0.15792 0.65211 0.71244 0.0
H1374 H 0.81858 0.67818 0.2979 0.0
H1375 H 0.82545 0.61517 0.29089 0.0
H1376 H 0.84336 0.62085 0.25966 0.0
H1377 H 0.80654 0.68784 0.25043 0.0
H1378 H 0.81889 0.71123 0.24911 0.0
H1379 H 0.81023 0.70227 0.27235 0.0
H1380 H 0.84522 0.70538 0.28697 0.0
H1381 H 0.85401 0.71453 0.26373 0.0
H1382 H 0.86548 0.69342 0.27488 0.0
H1383 H 0.85737 0.63399 0.22694 0.0
H1384 H 0.86445 0.65287 0.19642 0.0
H1385 H 0.84607 0.70643 0.22541 0.0
C1386 C 0.82421 0.6655 0.29012 0.0
C1387 C 0.82063 0.64622 0.29689 0.0
C1388 C 0.82818 0.6301 0.28609 0.0
C1389 C 0.83836 0.6332 0.26834 0.0
C1390 C 0.84096 0.65248 0.26175 0.0
C1391 C 0.83415 0.66833 0.27248 0.0
C1392 C 0.83676 0.68748 0.2616 0.0
C1393 C 0.81693 0.69779 0.25817 0.0
C1394 C 0.85123 0.70099 0.27244 0.0
C1395 C 0.8454 0.67998 0.24265 0.0
C1396 C 0.84824 0.65985 0.24303 0.0
C1397 C 0.8554 0.64977 0.22663 0.0
C1398 C 0.8594 0.66055 0.20941 0.0
C1399 C 0.85573 0.681 0.20873 0.0
C1400 C 0.84898 0.69077 0.22564 0.0
H1401 H 0.83075 0.33831 0.79212 0.0
H1402 H 0.88855 0.31864 0.77467 0.0
H1403 H 0.88559 0.33767 0.74374 0.0
H1404 H 0.80842 0.33292 0.749 0.0
H1405 H 0.79297 0.35438 0.75031 0.0
H1406 H 0.80158 0.34308 0.77249 0.0
H1407 H 0.81677 0.3762 0.78361 0.0
H1408 H 0.80815 0.38767 0.76132 0.0
H1409 H 0.83377 0.3888 0.76772 0.0
H1410 H 0.87301 0.35233 0.71208 0.0
H1411 H 0.85256 0.36192 0.68353 0.0
H1412 H 0.8038 0.3735 0.72235 0.0
C1413 C 0.84305 0.33858 0.78206 0.0
C1414 C 0.85988 0.32711 0.7857 0.0
C1415 C 0.87564 0.32757 0.77221 0.0
C1416 C 0.87405 0.33835 0.75463 0.0
C1417 C 0.85686 0.34896 0.75111 0.0
C1418 C 0.8418 0.34946 0.7647 0.0
C1419 C 0.82401 0.36009 0.75674 0.0
C1420 C 0.80569 0.34682 0.75715 0.0
C1421 C 0.82047 0.37933 0.76802 0.0
C1422 C 0.83076 0.36418 0.73598 0.0
C1423 C 0.84992 0.35808 0.73308 0.0
C1424 C 0.85832 0.35786 0.71436 0.0
C1425 C 0.84667 0.36341 0.69823 0.0
C1426 C 0.82696 0.36914 0.70101 0.0
C1427 C 0.81915 0.37007 0.72011 0.0
H1428 H 0.27548 0.17606 0.37704 0.0
H1429 H 0.31054 0.18263 0.32409 0.0
H1430 H 0.28478 0.16735 0.30468 0.0
H1431 H 0.25241 0.12754 0.36099 0.0
H1432 H 0.22903 0.13371 0.37164 0.0
H1433 H 0.25134 0.14272 0.38267 0.0
H1434 H 0.23845 0.17841 0.37996 0.0
H1435 H 0.21615 0.16959 0.36894 0.0
H1436 H 0.23079 0.1877 0.35635 0.0
H1437 H 0.25494 0.15611 0.28988 0.0
H1438 H 0.22107 0.14817 0.2803 0.0
H1439 H 0.20377 0.14707 0.34159 0.0
C1440 C 0.27788 0.17363 0.36151 0.0
C1441 C 0.29505 0.18056 0.35215 0.0
C1442 C 0.29753 0.17753 0.33167 0.0
C1443 C 0.28301 0.16873 0.32042 0.0
C1444 C 0.26608 0.16257 0.3298 0.0
C1445 C 0.26336 0.16461 0.34985 0.0
C1446 C 0.24289 0.15785 0.35557 0.0
C1447 C 0.24398 0.13935 0.36849 0.0
C1448 C 0.2314 0.17438 0.3658 0.0
C1449 C 0.23437 0.15304 0.33547 0.0
C1450 C 0.24831 0.15552 0.32096 0.0
C1451 C 0.24397 0.15357 0.30108 0.0
C1452 C 0.22474 0.1491 0.29577 0.0
C1453 C 0.21014 0.14666 0.31025 0.0
C1454 C 0.21495 0.14835 0.33038 0.0
H1455 H 0.3151 0.78505 0.87361 0.0
H1456 H 0.34313 0.82549 0.83342 0.0
H1457 H 0.36411 0.79868 0.82093 0.0
H1458 H 0.35941 0.75028 0.88069 0.0
H1459 H 0.34341 0.7292 0.88078 0.0
H1460 H 0.33507 0.7523 0.89077 0.0
H1461 H 0.30501 0.75135 0.86748 0.0
H1462 H 0.31329 0.72847 0.85733 0.0
H1463 H 0.30887 0.74914 0.84135 0.0
H1464 H 0.37763 0.76699 0.80877 0.0
H1465 H 0.38071 0.73291 0.79637 0.0
H1466 H 0.34176 0.71259 0.84226 0.0
C1467 C 0.32646 0.78835 0.86299 0.0
C1468 C 0.32807 0.80734 0.8549 0.0
C1469 C 0.34217 0.81109 0.84014 0.0
C1470 C 0.35414 0.79595 0.833 0.0
C1471 C 0.35169 0.7771 0.84066 0.0
C1472 C 0.33822 0.77324 0.8554 0.0
C1473 C 0.33597 0.75131 0.85863 0.0
C1474 C 0.34394 0.74543 0.87892 0.0
C1475 C 0.31452 0.7447 0.85602 0.0
C1476 C 0.34901 0.74348 0.84241 0.0
C1477 C 0.35865 0.75856 0.8328 0.0
C1478 C 0.37053 0.75504 0.81647 0.0
C1479 C 0.37223 0.73568 0.80954 0.0
C1480 C 0.36168 0.7203 0.8186 0.0
C1481 C 0.35023 0.72417 0.8354 0.0
H1482 H 0.73092 0.79404 0.36026 0.0
H1483 H 0.70136 0.8479 0.37637 0.0
H1484 H 0.73181 0.86674 0.36954 0.0
H1485 H 0.78175 0.80887 0.37847 0.0
H1486 H 0.79297 0.79618 0.35812 0.0
H1487 H 0.7705 0.787 0.36862 0.0
H1488 H 0.75422 0.78807 0.33422 0.0
H1489 H 0.77642 0.79743 0.32367 0.0
H1490 H 0.75385 0.8109 0.32074 0.0
H1491 H 0.76335 0.87989 0.35414 0.0
H1492 H 0.79262 0.88566 0.33332 0.0
H1493 H 0.80128 0.82267 0.32876 0.0
C1494 C 0.73121 0.80969 0.36319 0.0
C1495 C 0.7141 0.81958 0.3691 0.0
C1496 C 0.71459 0.84011 0.37227 0.0
C1497 C 0.73178 0.85088 0.36836 0.0
C1498 C 0.74833 0.84074 0.36171 0.0
C1499 C 0.74822 0.82049 0.3596 0.0
C1500 C 0.76687 0.81313 0.35019 0.0
C1501 C 0.77873 0.80056 0.36472 0.0
C1502 C 0.76257 0.80174 0.33108 0.0
C1503 C 0.777 0.83244 0.34611 0.0
C1504 C 0.76638 0.84825 0.35312 0.0
C1505 C 0.77203 0.86758 0.34906 0.0
C1506 C 0.78867 0.87075 0.33721 0.0
C1507 C 0.79924 0.85462 0.3294 0.0
C1508 C 0.79359 0.83533 0.33454 0.0
H1509 H 0.69121 0.22287 0.87171 0.0
H1510 H 0.64493 0.18224 0.85654 0.0
H1511 H 0.62327 0.21021 0.84781 0.0
H1512 H 0.65877 0.26566 0.88869 0.0
H1513 H 0.67527 0.28304 0.87746 0.0
H1514 H 0.68468 0.26051 0.88776 0.0
H1515 H 0.70102 0.2522 0.85441 0.0
H1516 H 0.69162 0.2745 0.84401 0.0
H1517 H 0.68613 0.25126 0.83252 0.0
H1518 H 0.60941 0.24204 0.83454 0.0
H1519 H 0.60567 0.27367 0.81677 0.0
H1520 H 0.6616 0.29302 0.83978 0.0
C1521 C 0.67613 0.22003 0.86759 0.0
C1522 C 0.66936 0.20063 0.86543 0.0
C1523 C 0.65001 0.19714 0.85891 0.0
C1524 C 0.63767 0.21294 0.8539 0.0
C1525 C 0.64501 0.23205 0.8555 0.0
C1526 C 0.66381 0.23561 0.86237 0.0
C1527 C 0.66956 0.2569 0.85962 0.0
C1528 C 0.67222 0.26713 0.87957 0.0
C1529 C 0.68816 0.2588 0.84688 0.0
C1530 C 0.65161 0.26454 0.84905 0.0
C1531 C 0.6373 0.25024 0.8473 0.0
C1532 C 0.62029 0.25348 0.83627 0.0
C1533 C 0.61822 0.27149 0.82628 0.0
C1534 C 0.63328 0.28574 0.82711 0.0
C1535 C 0.64976 0.28243 0.83919 0.0
H1536 H 0.30447 0.83879 0.66127 0.0
H1537 H 0.28398 0.817 0.60511 0.0
H1538 H 0.25221 0.8337 0.61034 0.0
H1539 H 0.26505 0.82989 0.68705 0.0
H1540 H 0.26497 0.85154 0.70233 0.0
H1541 H 0.28754 0.84294 0.69195 0.0
H1542 H 0.29338 0.87681 0.67558 0.0
H1543 H 0.27084 0.88571 0.68622 0.0
H1544 H 0.27468 0.8873 0.66006 0.0
H1545 H 0.22078 0.84508 0.62535 0.0
H1546 H 0.19314 0.85216 0.64783 0.0
H1547 H 0.23408 0.86745 0.6939 0.0
C1548 C 0.29358 0.83833 0.64969 0.0
C1549 C 0.29664 0.82677 0.63274 0.0
C1550 C 0.28202 0.8261 0.61802 0.0
C1551 C 0.26392 0.83551 0.62092 0.0
C1552 C 0.26094 0.84592 0.63836 0.0
C1553 C 0.2756 0.84782 0.65229 0.0
C1554 C 0.26807 0.85762 0.6708 0.0
C1555 C 0.27161 0.84471 0.68908 0.0
C1556 C 0.27729 0.87808 0.67331 0.0
C1557 C 0.2465 0.85923 0.66589 0.0
C1558 C 0.24274 0.85294 0.6469 0.0
C1559 C 0.22362 0.85074 0.63993 0.0
C1560 C 0.20803 0.85475 0.65276 0.0
C1561 C 0.21169 0.86084 0.67226 0.0
C1562 C 0.23108 0.8635 0.67878 0.0
H1563 H 0.66384 0.80076 0.16868 0.0
H1564 H 0.67905 0.78183 0.10988 0.0
H1565 H 0.65738 0.75278 0.11371 0.0
H1566 H 0.66646 0.7572 0.19073 0.0
H1567 H 0.64613 0.76059 0.20731 0.0
H1568 H 0.659 0.78157 0.198 0.0
H1569 H 0.62631 0.79575 0.18459 0.0
H1570 H 0.61334 0.77456 0.19379 0.0
H1571 H 0.61148 0.78117 0.16821 0.0
H1572 H 0.64013 0.72265 0.12691 0.0
H1573 H 0.62983 0.69486 0.14807 0.0
H1574 H 0.62487 0.73431 0.19755 0.0
C1575 C 0.66215 0.79079 0.15639 0.0
C1576 C 0.67308 0.79343 0.13902 0.0
C1577 C 0.67063 0.78011 0.12325 0.0
C1578 C 0.65831 0.76363 0.1253 0.0
C1579 C 0.64819 0.76108 0.14299 0.0
C1580 C 0.64978 0.77455 0.15813 0.0
C1581 C 0.63944 0.76754 0.17648 0.0
C1582 C 0.65361 0.76665 0.19414 0.0
C1583 C 0.62158 0.78053 0.18103 0.0
C1584 C 0.63313 0.74729 0.16992 0.0
C1585 C 0.63776 0.74395 0.15038 0.0
C1586 C 0.63578 0.72532 0.14196 0.0
C1587 C 0.62978 0.70963 0.15401 0.0
C1588 C 0.62594 0.71276 0.17416 0.0
C1589 C 0.62689 0.73188 0.18195 0.0
H1590 H 0.77105 0.14207 0.70263 0.0
H1591 H 0.80314 0.12633 0.65017 0.0
H1592 H 0.77413 0.13491 0.62977 0.0
H1593 H 0.72078 0.12643 0.685 0.0
H1594 H 0.70969 0.14703 0.69742 0.0
H1595 H 0.73133 0.13563 0.70749 0.0
H1596 H 0.74876 0.16948 0.70764 0.0
H1597 H 0.72743 0.18093 0.69729 0.0
H1598 H 0.75074 0.18316 0.68503 0.0
H1599 H 0.74343 0.15145 0.6152 0.0
H1600 H 0.71424 0.17229 0.60846 0.0
H1601 H 0.70308 0.17584 0.67112 0.0
C1602 C 0.77158 0.13958 0.68691 0.0
C1603 C 0.78896 0.13321 0.67788 0.0
C1604 C 0.78962 0.13073 0.65727 0.0
C1605 C 0.77327 0.13567 0.64563 0.0
C1606 C 0.75645 0.14274 0.65496 0.0
C1607 C 0.75545 0.14427 0.67524 0.0
C1608 C 0.73682 0.15421 0.68181 0.0
C1609 C 0.72389 0.13997 0.69362 0.0
C1610 C 0.74122 0.17305 0.69362 0.0
C1611 C 0.72781 0.15888 0.66211 0.0
C1612 C 0.73908 0.15205 0.6467 0.0
C1613 C 0.73429 0.15646 0.62719 0.0
C1614 C 0.71772 0.16831 0.62347 0.0
C1615 C 0.70639 0.17575 0.63923 0.0
C1616 C 0.71137 0.17044 0.65867 0.0
H1617 H 0.33685 0.1995 0.16162 0.0
H1618 H 0.31345 0.22195 0.10691 0.0
H1619 H 0.33171 0.25309 0.11198 0.0
H1620 H 0.33029 0.2395 0.18819 0.0
H1621 H 0.35223 0.23789 0.20288 0.0
H1622 H 0.34191 0.21606 0.1924 0.0
H1623 H 0.37488 0.20833 0.17513 0.0
H1624 H 0.38544 0.2302 0.18574 0.0
H1625 H 0.38606 0.22656 0.15951 0.0
H1626 H 0.34599 0.28393 0.12704 0.0
H1627 H 0.35537 0.31068 0.14993 0.0
H1628 H 0.3697 0.2677 0.19445 0.0
C1629 C 0.33625 0.21069 0.1503 0.0
C1630 C 0.32393 0.20837 0.13382 0.0
C1631 C 0.32313 0.22336 0.11945 0.0
C1632 C 0.33342 0.24108 0.12227 0.0
C1633 C 0.34473 0.24329 0.13928 0.0
C1634 C 0.34648 0.22826 0.15286 0.0
C1635 C 0.35724 0.23491 0.17113 0.0
C1636 C 0.34466 0.23193 0.18972 0.0
C1637 C 0.37708 0.22437 0.17298 0.0
C1638 C 0.36002 0.25644 0.16646 0.0
C1639 C 0.3532 0.26097 0.14782 0.0
C1640 C 0.35201 0.28042 0.14133 0.0
C1641 C 0.35741 0.29552 0.15436 0.0
C1642 C 0.36383 0.29103 0.17359 0.0
C1643 C 0.3656 0.27131 0.1795 0.0
H1644 H 0.83628 0.65652 0.70169 0.0
H1645 H 0.80786 0.60711 0.72973 0.0
H1646 H 0.82769 0.6128 0.75978 0.0
H1647 H 0.88617 0.65111 0.72844 0.0
H1648 H 0.88858 0.67747 0.72936 0.0
H1649 H 0.87659 0.66597 0.70872 0.0
H1650 H 0.84593 0.68767 0.71467 0.0
H1651 H 0.85767 0.69905 0.73529 0.0
H1652 H 0.83422 0.68724 0.73843 0.0
H1653 H 0.84409 0.62892 0.7886 0.0
H1654 H 0.85555 0.65335 0.81299 0.0
H1655 H 0.87361 0.69208 0.76603 0.0
C1656 C 0.83502 0.64633 0.71387 0.0
C1657 C 0.82091 0.63121 0.71344 0.0
C1658 C 0.81901 0.61845 0.7297 0.0
C1659 C 0.83019 0.62164 0.7468 0.0
C1660 C 0.84342 0.63736 0.74711 0.0
C1661 C 0.84615 0.64925 0.73084 0.0
C1662 C 0.85898 0.66678 0.73558 0.0
C1663 C 0.87875 0.66523 0.72489 0.0
C1664 C 0.84856 0.68632 0.73072 0.0
C1665 C 0.86156 0.66401 0.75747 0.0
C1666 C 0.85307 0.64661 0.76378 0.0
C1667 C 0.85142 0.64216 0.78374 0.0
C1668 C 0.85802 0.65606 0.79749 0.0
C1669 C 0.86604 0.67416 0.79122 0.0
C1670 C 0.86832 0.67792 0.77103 0.0
H1671 H 0.83861 0.29373 0.22096 0.0
H1672 H 0.8779 0.34009 0.20203 0.0
H1673 H 0.86956 0.35916 0.23222 0.0
H1674 H 0.80143 0.3242 0.23834 0.0
H1675 H 0.79495 0.30801 0.25826 0.0
H1676 H 0.80552 0.29811 0.2362 0.0
H1677 H 0.83326 0.2818 0.25665 0.0
H1678 H 0.8227 0.29158 0.27882 0.0
H1679 H 0.84794 0.29671 0.27288 0.0
H1680 H 0.85349 0.374 0.26437 0.0
H1681 H 0.83361 0.38152 0.29416 0.0
H1682 H 0.80638 0.32403 0.28959 0.0
C1683 C 0.84567 0.30784 0.22312 0.0
C1684 C 0.85878 0.31552 0.20911 0.0
C1685 C 0.86783 0.33393 0.21267 0.0
C1686 C 0.8631 0.34484 0.22971 0.0
C1687 C 0.84954 0.33693 0.24298 0.0
C1688 C 0.84121 0.31869 0.23977 0.0
C1689 C 0.82656 0.31329 0.25536 0.0
C1690 C 0.80591 0.31077 0.24651 0.0
C1691 C 0.83301 0.29475 0.26659 0.0
C1692 C 0.82775 0.33132 0.26804 0.0
C1693 C 0.84092 0.345 0.26089 0.0
C1694 C 0.84334 0.36322 0.27014 0.0
C1695 C 0.83199 0.36739 0.28701 0.0
C1696 C 0.8185 0.35334 0.29438 0.0
C1697 C 0.81665 0.33512 0.28467 0.0
H1698 H 0.16658 0.32776 0.79734 0.0
H1699 H 0.11031 0.30574 0.77768 0.0
H1700 H 0.11473 0.32294 0.74587 0.0
H1701 H 0.16284 0.37675 0.7704 0.0
H1702 H 0.18882 0.37673 0.76557 0.0
H1703 H 0.17947 0.36574 0.7878 0.0
H1704 H 0.19691 0.33303 0.77903 0.0
H1705 H 0.20624 0.34387 0.75689 0.0
H1706 H 0.192 0.32157 0.75563 0.0
H1707 H 0.12822 0.33723 0.71449 0.0
H1708 H 0.14919 0.34797 0.68675 0.0
H1709 H 0.19593 0.36177 0.72742 0.0
C1710 C 0.15495 0.32707 0.78652 0.0
C1711 C 0.13809 0.31555 0.78987 0.0
C1712 C 0.12321 0.31476 0.77542 0.0
C1713 C 0.12561 0.32448 0.75735 0.0
C1714 C 0.14271 0.33534 0.75428 0.0
C1715 C 0.15695 0.33699 0.76865 0.0
C1716 C 0.17466 0.34817 0.76127 0.0
C1717 C 0.17655 0.36803 0.77189 0.0
C1718 C 0.19355 0.33592 0.76331 0.0
C1719 C 0.16893 0.3511 0.74 0.0
C1720 C 0.15023 0.34408 0.73633 0.0
C1721 C 0.14259 0.34337 0.71731 0.0
C1722 C 0.15452 0.34954 0.70167 0.0
C1723 C 0.1738 0.35625 0.7052 0.0
C1724 C 0.18092 0.35741 0.72457 0.0
H1725 H 0.19279 0.62774 0.26696 0.0
H1726 H 0.1434 0.63543 0.30589 0.0
H1727 H 0.12199 0.64243 0.27732 0.0
H1728 H 0.18542 0.66635 0.24052 0.0
H1729 H 0.19262 0.65693 0.21683 0.0
H1730 H 0.20208 0.64583 0.23871 0.0
H1731 H 0.18879 0.61188 0.22781 0.0
H1732 H 0.17943 0.62285 0.20558 0.0
H1733 H 0.16327 0.6092 0.22148 0.0
H1734 H 0.10856 0.65683 0.24614 0.0
H1735 H 0.1049 0.67733 0.21625 0.0
H1736 H 0.16337 0.66084 0.19793 0.0
C1737 C 0.17718 0.62967 0.26921 0.0
C1738 C 0.16948 0.63048 0.28834 0.0
C1739 C 0.1493 0.6341 0.29117 0.0
C1740 C 0.13709 0.63813 0.27502 0.0
C1741 C 0.14536 0.63831 0.25623 0.0
C1742 C 0.16495 0.6338 0.25326 0.0
C1743 C 0.1713 0.63843 0.23249 0.0
C1744 C 0.18886 0.65274 0.23215 0.0
C1745 C 0.17596 0.61946 0.22117 0.0
C1746 C 0.15282 0.64794 0.22475 0.0
C1747 C 0.13774 0.6471 0.2383 0.0
C1748 C 0.12006 0.65704 0.23519 0.0
C1749 C 0.11806 0.66864 0.21819 0.0
C1750 C 0.13384 0.67049 0.20486 0.0
C1751 C 0.15103 0.65941 0.20784 0.0
H1752 H 0.78248 0.83249 0.69198 0.0
H1753 H 0.78804 0.88886 0.66265 0.0
H1754 H 0.75743 0.88175 0.64392 0.0
H1755 H 0.76461 0.80487 0.65132 0.0
H1756 H 0.74852 0.79036 0.66651 0.0
H1757 H 0.77088 0.80012 0.67662 0.0
H1758 H 0.75115 0.81723 0.70439 0.0
H1759 H 0.72875 0.80746 0.69443 0.0
H1760 H 0.73134 0.83358 0.69802 0.0
H1761 H 0.72509 0.86686 0.62823 0.0
H1762 H 0.69498 0.8477 0.61996 0.0
H1763 H 0.71284 0.80257 0.6612 0.0
C1764 C 0.77754 0.84343 0.68153 0.0
C1765 C 0.78785 0.86118 0.67867 0.0
C1766 C 0.78043 0.8751 0.66505 0.0
C1767 C 0.7631 0.87114 0.65432 0.0
C1768 C 0.75342 0.85327 0.65753 0.0
C1769 C 0.7605 0.8398 0.67099 0.0
C1770 C 0.74756 0.82197 0.67269 0.0
C1771 C 0.75855 0.80323 0.6664 0.0
C1772 C 0.73921 0.81996 0.69361 0.0
C1773 C 0.73187 0.82733 0.65813 0.0
C1774 C 0.73533 0.84528 0.64925 0.0
C1775 C 0.72233 0.85284 0.63521 0.0
C1776 C 0.70534 0.84187 0.63052 0.0
C1777 C 0.70152 0.8238 0.64013 0.0
C1778 C 0.71518 0.81649 0.65381 0.0
H1779 H 0.66174 0.29703 0.16695 0.0
H1780 H 0.60474 0.27501 0.18417 0.0
H1781 H 0.61045 0.24493 0.16432 0.0
H1782 H 0.66213 0.27377 0.11577 0.0
H1783 H 0.6881 0.26926 0.11769 0.0
H1784 H 0.67747 0.29059 0.12927 0.0
H1785 H 0.69235 0.27986 0.16266 0.0
H1786 H 0.70292 0.25862 0.15125 0.0
H1787 H 0.6869 0.25569 0.17212 0.0
H1788 H 0.62551 0.21476 0.14853 0.0
H1789 H 0.64813 0.18801 0.1386 0.0
H1790 H 0.69487 0.2303 0.13141 0.0
C1791 C 0.65019 0.28614 0.16597 0.0
C1792 C 0.63281 0.28825 0.17696 0.0
C1793 C 0.61805 0.27372 0.17558 0.0
C1794 C 0.62119 0.25663 0.16434 0.0
C1795 C 0.63893 0.25464 0.15423 0.0
C1796 C 0.65302 0.26926 0.15468 0.0
C1797 C 0.67171 0.26288 0.14457 0.0
C1798 C 0.67504 0.27484 0.1257 0.0
C1799 C 0.68949 0.26433 0.15849 0.0
C1800 C 0.66664 0.24179 0.1398 0.0
C1801 C 0.64747 0.23741 0.14489 0.0
C1802 C 0.64029 0.2182 0.14388 0.0
C1803 C 0.65317 0.20311 0.13814 0.0
C1804 C 0.67295 0.20736 0.13369 0.0
C1805 C 0.67956 0.22694 0.13402 0.0
H1806 H 0.27877 0.17045 0.62111 0.0
H1807 H 0.31509 0.17995 0.67264 0.0
H1808 H 0.28992 0.16475 0.69345 0.0
H1809 H 0.23484 0.18331 0.64294 0.0
H1810 H 0.21972 0.16513 0.63101 0.0
H1811 H 0.24178 0.17361 0.61929 0.0
H1812 H 0.25436 0.13777 0.61679 0.0
H1813 H 0.23225 0.12915 0.62849 0.0
H1814 H 0.25583 0.12289 0.63867 0.0
H1815 H 0.26021 0.15317 0.70929 0.0
H1816 H 0.22651 0.1455 0.71971 0.0
H1817 H 0.20803 0.14281 0.6588 0.0
C1818 C 0.28158 0.16872 0.63668 0.0
C1819 C 0.29892 0.1762 0.64528 0.0
C1820 C 0.30193 0.17425 0.66577 0.0
C1821 C 0.28776 0.16555 0.67771 0.0
C1822 C 0.27062 0.15878 0.66898 0.0
C1823 C 0.26739 0.16012 0.64897 0.0
C1824 C 0.24675 0.15337 0.64387 0.0
C1825 C 0.23509 0.16984 0.63368 0.0
C1826 C 0.24734 0.13468 0.6312 0.0
C1827 C 0.23872 0.14898 0.66424 0.0
C1828 C 0.25299 0.15189 0.67839 0.0
C1829 C 0.24901 0.1504 0.69838 0.0
C1830 C 0.22986 0.14611 0.70415 0.0
C1831 C 0.21492 0.14333 0.69002 0.0
C1832 C 0.2194 0.14439 0.66979 0.0
H1833 H 0.33638 0.79926 0.16555 0.0
H1834 H 0.32117 0.77963 0.10693 0.0
H1835 H 0.33854 0.74813 0.11319 0.0
H1836 H 0.38481 0.77347 0.16982 0.0
H1837 H 0.38035 0.76814 0.19538 0.0
H1838 H 0.37062 0.79028 0.18454 0.0
H1839 H 0.3357 0.78036 0.19589 0.0
H1840 H 0.34527 0.75828 0.20665 0.0
H1841 H 0.32593 0.75682 0.18865 0.0
H1842 H 0.35249 0.71669 0.12847 0.0
H1843 H 0.36102 0.68915 0.15088 0.0
H1844 H 0.3662 0.73004 0.19923 0.0
C1845 C 0.33719 0.78859 0.15377 0.0
C1846 C 0.3275 0.79186 0.13574 0.0
C1847 C 0.32874 0.77749 0.12076 0.0
C1848 C 0.33855 0.75957 0.12423 0.0
C1849 C 0.34725 0.75651 0.14261 0.0
C1850 C 0.3468 0.77082 0.15702 0.0
C1851 C 0.35495 0.76343 0.1763 0.0
C1852 C 0.37381 0.77449 0.18183 0.0
C1853 C 0.33954 0.7648 0.19282 0.0
C1854 C 0.35927 0.74236 0.1709 0.0
C1855 C 0.35516 0.73863 0.15132 0.0
C1856 C 0.35626 0.71962 0.14363 0.0
C1857 C 0.36119 0.70408 0.15639 0.0
C1858 C 0.36476 0.70775 0.17652 0.0
C1859 C 0.36418 0.7271 0.18371 0.0
H1860 H 0.70378 0.17957 0.3277 0.0
H1861 H 0.7115 0.17148 0.39048 0.0
H1862 H 0.74248 0.15335 0.38402 0.0
H1863 H 0.72556 0.13294 0.31115 0.0
H1864 H 0.7366 0.14468 0.29015 0.0
H1865 H 0.71378 0.15381 0.29987 0.0
H1866 H 0.72917 0.18848 0.30365 0.0
H1867 H 0.75196 0.17949 0.29402 0.0
H1868 H 0.7514 0.1913 0.31772 0.0
H1869 H 0.77483 0.13892 0.36993 0.0
H1870 H 0.80484 0.13184 0.3503 0.0
H1871 H 0.77506 0.15166 0.29774 0.0
C1872 C 0.71169 0.17373 0.34021 0.0
C1873 C 0.70517 0.17698 0.35963 0.0
C1874 C 0.71613 0.16907 0.37545 0.0
C1875 C 0.73372 0.15874 0.3719 0.0
C1876 C 0.73999 0.15638 0.35247 0.0
C1877 C 0.72913 0.16367 0.33694 0.0
C1878 C 0.73957 0.16126 0.31756 0.0
C1879 C 0.7282 0.14734 0.30388 0.0
C1880 C 0.74324 0.18132 0.30768 0.0
C1881 C 0.7584 0.15202 0.32451 0.0
C1882 C 0.75838 0.14884 0.3446 0.0
C1883 C 0.77484 0.14118 0.35419 0.0
C1884 C 0.79177 0.13715 0.34299 0.0
C1885 C 0.79207 0.14124 0.32261 0.0
C1886 C 0.77508 0.14837 0.31332 0.0
H1887 H 0.32777 0.20183 0.82854 0.0
H1888 H 0.31313 0.21875 0.88813 0.0
H1889 H 0.3299 0.25076 0.88302 0.0
H1890 H 0.37617 0.22809 0.82588 0.0
H1891 H 0.37204 0.23438 0.80048 0.0
H1892 H 0.36228 0.21179 0.81031 0.0
H1893 H 0.32747 0.22199 0.79882 0.0
H1894 H 0.33706 0.24454 0.78909 0.0
H1895 H 0.31746 0.24517 0.80684 0.0
H1896 H 0.34357 0.28292 0.8691 0.0
H1897 H 0.35276 0.31134 0.84805 0.0
H1898 H 0.35807 0.27254 0.798 0.0
C1899 C 0.32855 0.21205 0.84072 0.0
C1900 C 0.31922 0.20786 0.85873 0.0
C1901 C 0.32042 0.22161 0.87429 0.0
C1902 C 0.3299 0.23981 0.87148 0.0
C1903 C 0.33837 0.24375 0.85319 0.0
C1904 C 0.33799 0.23004 0.8382 0.0
C1905 C 0.34634 0.23823 0.81933 0.0
C1906 C 0.36534 0.22748 0.81367 0.0
C1907 C 0.33118 0.23744 0.80255 0.0
C1908 C 0.3505 0.25908 0.82563 0.0
C1909 C 0.34625 0.262 0.84531 0.0
C1910 C 0.34742 0.28065 0.85384 0.0
C1911 C 0.35268 0.29667 0.84186 0.0
C1912 C 0.3565 0.29384 0.82164 0.0
C1913 C 0.35572 0.27484 0.81358 0.0
H1914 H 0.30128 0.84496 0.34179 0.0
H1915 H 0.27925 0.81163 0.39125 0.0
H1916 H 0.24618 0.82554 0.38577 0.0
H1917 H 0.26607 0.88935 0.34888 0.0
H1918 H 0.26445 0.89244 0.32263 0.0
H1919 H 0.28698 0.88394 0.33362 0.0
H1920 H 0.28634 0.85342 0.31087 0.0
H1921 H 0.26379 0.86159 0.30006 0.0
H1922 H 0.26518 0.83752 0.31107 0.0
H1923 H 0.21498 0.8355 0.36947 0.0
H1924 H 0.18861 0.84364 0.34583 0.0
H1925 H 0.23074 0.87263 0.30823 0.0
C1926 C 0.28964 0.8414 0.35201 0.0
C1927 C 0.29271 0.82744 0.36703 0.0
C1928 C 0.2772 0.82264 0.37993 0.0
C1929 C 0.25838 0.83043 0.37686 0.0
C1930 C 0.25556 0.84344 0.36123 0.0
C1931 C 0.27093 0.84938 0.34938 0.0
C1932 C 0.26376 0.86177 0.33232 0.0
C1933 C 0.27073 0.88314 0.3345 0.0
C1934 C 0.27013 0.85303 0.31243 0.0
C1935 C 0.24183 0.86027 0.33529 0.0
C1936 C 0.23738 0.85 0.35229 0.0
C1937 C 0.21822 0.84426 0.35661 0.0
C1938 C 0.20336 0.84887 0.34312 0.0
C1939 C 0.20774 0.85923 0.32567 0.0
C1940 C 0.22706 0.8654 0.32193 0.0
H1941 H 0.62609 0.72673 0.80644 0.0
H1942 H 0.65898 0.68435 0.84052 0.0
H1943 H 0.6689 0.71052 0.8637 0.0
H1944 H 0.66104 0.76157 0.80683 0.0
H1945 H 0.64512 0.78268 0.80833 0.0
H1946 H 0.63619 0.76019 0.79786 0.0
H1947 H 0.60748 0.75994 0.82282 0.0
H1948 H 0.61644 0.78251 0.83345 0.0
H1949 H 0.61265 0.76123 0.84876 0.0
H1950 H 0.67913 0.74157 0.88019 0.0
H1951 H 0.69235 0.77498 0.88579 0.0
H1952 H 0.65533 0.79751 0.83928 0.0
C1953 C 0.63465 0.72295 0.8193 0.0
C1954 C 0.64137 0.70359 0.82215 0.0
C1955 C 0.6534 0.69912 0.83847 0.0
C1956 C 0.65899 0.71386 0.85173 0.0
C1957 C 0.65258 0.73302 0.84832 0.0
C1958 C 0.64075 0.73763 0.83242 0.0
C1959 C 0.63876 0.75967 0.83003 0.0
C1960 C 0.64571 0.7664 0.80956 0.0
C1961 C 0.61757 0.76622 0.834 0.0
C1962 C 0.65237 0.76671 0.84616 0.0
C1963 C 0.65948 0.75116 0.85714 0.0
C1964 C 0.67335 0.75391 0.87198 0.0
C1965 C 0.68071 0.77292 0.87515 0.0
C1966 C 0.67457 0.78871 0.86315 0.0
C1967 C 0.65986 0.78566 0.8489 0.0
H1968 H 0.1144 0.2393 0.22116 0.0
H1969 H 0.11729 0.20931 0.1652 0.0
H1970 H 0.11193 0.17736 0.18195 0.0
H1971 H 0.14173 0.20696 0.24673 0.0
H1972 H 0.12829 0.20834 0.26949 0.0
H1973 H 0.12788 0.22873 0.25276 0.0
H1974 H 0.08987 0.22732 0.25188 0.0
H1975 H 0.09021 0.20679 0.26864 0.0
H1976 H 0.07779 0.20467 0.24536 0.0
H1977 H 0.11162 0.14869 0.20526 0.0
H1978 H 0.11846 0.126 0.23281 0.0
H1979 H 0.11612 0.17486 0.27356 0.0
C1980 C 0.11308 0.22602 0.21247 0.0
C1981 C 0.1157 0.22656 0.19198 0.0
C1982 C 0.11476 0.20903 0.18092 0.0
C1983 C 0.1117 0.1909 0.19031 0.0
C1984 C 0.10949 0.19072 0.2107 0.0
C1985 C 0.11003 0.20788 0.22163 0.0
C1986 C 0.10988 0.20363 0.24344 0.0
C1987 C 0.12802 0.21242 0.25368 0.0
C1988 C 0.0908 0.21104 0.25288 0.0
C1989 C 0.11052 0.18141 0.24314 0.0
C1990 C 0.10966 0.17417 0.22416 0.0
C1991 C 0.1118 0.15415 0.22019 0.0
C1992 C 0.11557 0.14134 0.23594 0.0
C1993 C 0.11755 0.14873 0.25528 0.0
C1994 C 0.11432 0.16886 0.25892 0.0
H1995 H 0.35108 0.63564 0.73858 0.0
H1996 H 0.32354 0.61764 0.79294 0.0
H1997 H 0.29345 0.60868 0.77477 0.0
H1998 H 0.31262 0.66045 0.7211 0.0
H1999 H 0.31507 0.65427 0.69544 0.0
H2000 H 0.33621 0.65386 0.71116 0.0
H2001 H 0.34314 0.61767 0.70184 0.0
H2002 H 0.32218 0.61797 0.68568 0.0
H2003 H 0.32409 0.59953 0.7046 0.0
H2004 H 0.26511 0.60647 0.75197 0.0
H2005 H 0.23995 0.61284 0.72651 0.0
H2006 H 0.28475 0.63527 0.68742 0.0
C2007 C 0.33904 0.62879 0.74638 0.0
C2008 C 0.33971 0.62655 0.76696 0.0
C2009 C 0.32336 0.6188 0.77706 0.0
C2010 C 0.30626 0.61371 0.76685 0.0
C2011 C 0.3057 0.61674 0.74659 0.0
C2012 C 0.32168 0.62408 0.73641 0.0
C2013 C 0.31625 0.62891 0.71533 0.0
C2014 C 0.32026 0.65066 0.7105 0.0
C2015 C 0.32706 0.6152 0.70101 0.0
C2016 C 0.29449 0.62444 0.71566 0.0
C2017 C 0.28888 0.61671 0.7336 0.0
C2018 C 0.26938 0.61221 0.73777 0.0
C2019 C 0.2552 0.6159 0.72331 0.0
C2020 C 0.26059 0.62444 0.70519 0.0
C2021 C 0.28044 0.62858 0.70121 0.0
H2022 H 0.85401 0.85431 0.23 0.0
H2023 H 0.89873 0.83749 0.27181 0.0
H2024 H 0.90787 0.80922 0.25077 0.0
H2025 H 0.83688 0.80846 0.22263 0.0
H2026 H 0.83126 0.81085 0.19679 0.0
H2027 H 0.83208 0.83224 0.21209 0.0
H2028 H 0.85705 0.8487 0.18933 0.0
H2029 H 0.85664 0.82732 0.17368 0.0
H2030 H 0.87956 0.83602 0.18363 0.0
H2031 H 0.90866 0.78013 0.2277 0.0
H2032 H 0.89994 0.75239 0.20575 0.0
H2033 H 0.85335 0.78741 0.18027 0.0
C2034 C 0.86639 0.84522 0.23411 0.0
C2035 C 0.87624 0.84838 0.25205 0.0
C2036 C 0.89153 0.83558 0.25775 0.0
C2037 C 0.89677 0.8195 0.2459 0.0
C2038 C 0.88643 0.81638 0.22848 0.0
C2039 C 0.8716 0.82896 0.22256 0.0
C2040 C 0.86079 0.82078 0.2049 0.0
C2041 C 0.83893 0.81782 0.2094 0.0
C2042 C 0.8637 0.83399 0.18681 0.0
C2043 C 0.87111 0.80131 0.20242 0.0
C2044 C 0.88624 0.7992 0.21577 0.0
C2045 C 0.89703 0.78179 0.21701 0.0
C2046 C 0.89197 0.76611 0.20454 0.0
C2047 C 0.87592 0.76779 0.19145 0.0
C2048 C 0.86567 0.78575 0.19018 0.0
H2049 H 0.66568 0.3376 0.75033 0.0
H2050 H 0.64854 0.3983 0.75806 0.0
H2051 H 0.67526 0.40847 0.73518 0.0
H2052 H 0.71669 0.34492 0.7508 0.0
H2053 H 0.72139 0.32606 0.73281 0.0
H2054 H 0.70034 0.3242 0.74862 0.0
H2055 H 0.67715 0.32181 0.71821 0.0
H2056 H 0.69852 0.32279 0.7028 0.0
H2057 H 0.6789 0.34019 0.69919 0.0
H2058 H 0.70565 0.41114 0.71203 0.0
H2059 H 0.73489 0.40624 0.69093 0.0
H2060 H 0.73114 0.34331 0.7009 0.0
C2061 C 0.66763 0.35304 0.74762 0.0
C2062 C 0.65543 0.36717 0.75639 0.0
C2063 C 0.65791 0.38724 0.75153 0.0
C2064 C 0.67304 0.39309 0.73862 0.0
C2065 C 0.68524 0.3786 0.73066 0.0
C2066 C 0.68246 0.35896 0.73497 0.0
C2067 C 0.69734 0.34597 0.72503 0.0
C2068 C 0.70967 0.33463 0.74022 0.0
C2069 C 0.68736 0.33188 0.71043 0.0
C2070 C 0.70935 0.36131 0.71456 0.0
C2071 C 0.70221 0.38007 0.71775 0.0
C2072 C 0.71125 0.39649 0.70943 0.0
C2073 C 0.72788 0.39356 0.69751 0.0
C2074 C 0.73533 0.37437 0.69416 0.0
C2075 C 0.72587 0.35818 0.70297 0.0
H2076 H 0.12372 0.78884 0.81561 0.0
H2077 H 0.10937 0.74379 0.7731 0.0
H2078 H 0.10401 0.76931 0.74777 0.0
H2079 H 0.08816 0.82787 0.79322 0.0
H2080 H 0.10505 0.84734 0.79922 0.0
H2081 H 0.10304 0.82617 0.81506 0.0
H2082 H 0.14031 0.8198 0.81186 0.0
H2083 H 0.142 0.84126 0.79681 0.0
H2084 H 0.15109 0.81793 0.78775 0.0
H2085 H 0.10751 0.79789 0.72606 0.0
H2086 H 0.11894 0.82783 0.70923 0.0
H2087 H 0.12994 0.85557 0.76544 0.0
C2088 C 0.11862 0.78459 0.80114 0.0
C2089 C 0.11658 0.76457 0.79618 0.0
C2090 C 0.11057 0.75916 0.7771 0.0
C2091 C 0.10746 0.77355 0.7627 0.0
C2092 C 0.1101 0.79324 0.7678 0.0
C2093 C 0.11515 0.79885 0.78667 0.0
C2094 C 0.11906 0.82079 0.78772 0.0
C2095 C 0.10286 0.83115 0.7995 0.0
C2096 C 0.13937 0.82516 0.79649 0.0
C2097 C 0.11781 0.82618 0.7661 0.0
C2098 C 0.11182 0.81018 0.75503 0.0
C2099 C 0.11159 0.81069 0.73457 0.0
C2100 C 0.11815 0.82773 0.72513 0.0
C2101 C 0.12483 0.84406 0.73608 0.0
C2102 C 0.12415 0.84352 0.75682 0.0
H2103 H 0.67565 0.64677 0.22843 0.0
H2104 H 0.63261 0.61346 0.26148 0.0
H2105 H 0.65823 0.60447 0.28562 0.0
H2106 H 0.7193 0.61645 0.2398 0.0
H2107 H 0.73471 0.63785 0.24204 0.0
H2108 H 0.71415 0.63808 0.22539 0.0
H2109 H 0.70069 0.66932 0.24254 0.0
H2110 H 0.72109 0.66915 0.25925 0.0
H2111 H 0.6964 0.66894 0.26867 0.0
H2112 H 0.68796 0.60193 0.30784 0.0
H2113 H 0.71815 0.60806 0.32725 0.0
H2114 H 0.73988 0.64631 0.28128 0.0
C2115 C 0.67154 0.63749 0.24062 0.0
C2116 C 0.65205 0.63104 0.24317 0.0
C2117 C 0.64747 0.61857 0.2592 0.0
C2118 C 0.66194 0.61335 0.27296 0.0
C2119 C 0.68084 0.62077 0.27045 0.0
C2120 C 0.68562 0.6326 0.25466 0.0
C2121 C 0.70618 0.64073 0.25645 0.0
C2122 C 0.71936 0.6328 0.23994 0.0
C2123 C 0.70607 0.66337 0.25676 0.0
C2124 C 0.712 0.63229 0.27614 0.0
C2125 C 0.69748 0.62028 0.28371 0.0
C2126 C 0.69946 0.61118 0.30197 0.0
C2127 C 0.71659 0.6147 0.31286 0.0
C2128 C 0.73113 0.62763 0.30563 0.0
C2129 C 0.72888 0.63636 0.28702 0.0
H2130 H 0.86134 0.2436 0.77151 0.0
H2131 H 0.88404 0.2205 0.82628 0.0
H2132 H 0.89111 0.18865 0.80998 0.0
H2133 H 0.83788 0.20143 0.75506 0.0
H2134 H 0.84422 0.20462 0.72955 0.0
H2135 H 0.84246 0.22569 0.74538 0.0
H2136 H 0.87803 0.23558 0.73605 0.0
H2137 H 0.87987 0.21436 0.7203 0.0
H2138 H 0.89767 0.21818 0.73951 0.0
H2139 H 0.89092 0.15806 0.78862 0.0
H2140 H 0.88506 0.13215 0.76381 0.0
H2141 H 0.86725 0.17676 0.72189 0.0
C2142 C 0.86813 0.2319 0.7799 0.0
C2143 C 0.87224 0.23431 0.80003 0.0
C2144 C 0.88102 0.21882 0.81073 0.0
C2145 C 0.88506 0.20075 0.80162 0.0
C2146 C 0.88072 0.19872 0.78169 0.0
C2147 C 0.8728 0.21403 0.77089 0.0
C2148 C 0.86898 0.20797 0.74987 0.0
C2149 C 0.84709 0.21005 0.74468 0.0
C2150 C 0.88191 0.21972 0.73559 0.0
C2151 C 0.87515 0.18663 0.7507 0.0
C2152 C 0.88187 0.18149 0.76916 0.0
C2153 C 0.88616 0.16202 0.77397 0.0
C2154 C 0.88287 0.14739 0.75975 0.0
C2155 C 0.87547 0.15238 0.74094 0.0
C2156 C 0.87258 0.17237 0.7362 0.0
H2157 H 0.34843 0.34204 0.26702 0.0
H2158 H 0.34061 0.39569 0.2338 0.0
H2159 H 0.31229 0.40461 0.25492 0.0
H2160 H 0.29972 0.33001 0.27002 0.0
H2161 H 0.30062 0.31986 0.29448 0.0
H2162 H 0.32221 0.3197 0.27937 0.0
H2163 H 0.34153 0.33865 0.30633 0.0
H2164 H 0.31996 0.3382 0.32161 0.0
H2165 H 0.33172 0.36126 0.31596 0.0
H2166 H 0.28281 0.40565 0.2774 0.0
H2167 H 0.2543 0.3986 0.29874 0.0
H2168 H 0.28074 0.3431 0.31569 0.0
C2169 C 0.34101 0.35587 0.26457 0.0
C2170 C 0.34665 0.36836 0.24909 0.0
C2171 C 0.33656 0.3862 0.24592 0.0
C2172 C 0.32051 0.39131 0.2578 0.0
C2173 C 0.31486 0.37834 0.27266 0.0
C2174 C 0.32491 0.36102 0.27613 0.0
C2175 C 0.31482 0.34863 0.29159 0.0
C2176 C 0.309 0.32837 0.28336 0.0
C2177 C 0.32777 0.34657 0.30997 0.0
C2178 C 0.29705 0.36127 0.29567 0.0
C2179 C 0.29754 0.37855 0.28499 0.0
C2180 C 0.28236 0.39225 0.28596 0.0
C2181 C 0.26622 0.38811 0.29808 0.0
C2182 C 0.26524 0.37024 0.30873 0.0
C2183 C 0.28099 0.35681 0.3076 0.0
H2184 H 0.269 0.13887 0.17825 0.0
H2185 H 0.23386 0.11257 0.13208 0.0
H2186 H 0.20732 0.10647 0.15607 0.0
H2187 H 0.25096 0.11055 0.22049 0.0
H2188 H 0.25069 0.13194 0.23613 0.0
H2189 H 0.26832 0.13013 0.21651 0.0
H2190 H 0.25626 0.1635 0.20266 0.0
H2191 H 0.23845 0.16534 0.22204 0.0
H2192 H 0.23068 0.1666 0.19675 0.0
H2193 H 0.18327 0.10633 0.18472 0.0
H2194 H 0.16371 0.11351 0.2147 0.0
H2195 H 0.21331 0.14421 0.2399 0.0
C2196 C 0.25581 0.13177 0.17309 0.0
C2197 C 0.25343 0.12652 0.15317 0.0
C2198 C 0.23607 0.1167 0.14728 0.0
C2199 C 0.22089 0.11322 0.16081 0.0
C2200 C 0.22327 0.11978 0.18009 0.0
C2201 C 0.24034 0.12888 0.18617 0.0
C2202 C 0.23847 0.13693 0.2068 0.0
C2203 C 0.25297 0.12677 0.22081 0.0
C2204 C 0.24112 0.15942 0.20706 0.0
C2205 C 0.21757 0.13119 0.21134 0.0
C2206 C 0.20914 0.1209 0.19598 0.0
C2207 C 0.18977 0.11431 0.19684 0.0
C2208 C 0.17879 0.11844 0.21382 0.0
C2209 C 0.18712 0.12946 0.22932 0.0
C2210 C 0.2067 0.13583 0.22809 0.0
H2211 H 0.36868 0.77034 0.67346 0.0
H2212 H 0.3776 0.72651 0.62806 0.0
H2213 H 0.38088 0.70085 0.65364 0.0
H2214 H 0.39957 0.74789 0.71237 0.0
H2215 H 0.38229 0.75456 0.73125 0.0
H2216 H 0.38488 0.76976 0.70971 0.0
H2217 H 0.3476 0.76657 0.70312 0.0
H2218 H 0.34487 0.7511 0.72436 0.0
H2219 H 0.33688 0.74247 0.70063 0.0
H2220 H 0.37948 0.67947 0.68431 0.0
H2221 H 0.37307 0.66451 0.717 0.0
H2222 H 0.36144 0.7222 0.74118 0.0
C2223 C 0.37165 0.75541 0.66886 0.0
C2224 C 0.37276 0.75041 0.64877 0.0
C2225 C 0.37687 0.73072 0.64339 0.0
C2226 C 0.37868 0.71604 0.65782 0.0
C2227 C 0.37635 0.72134 0.6775 0.0
C2228 C 0.37302 0.74062 0.68298 0.0
C2229 C 0.36881 0.74234 0.70473 0.0
C2230 C 0.38484 0.75435 0.71513 0.0
C2231 C 0.34833 0.75113 0.70841 0.0
C2232 C 0.36967 0.72096 0.7106 0.0
C2233 C 0.37449 0.70906 0.69483 0.0
C2234 C 0.37583 0.68868 0.69675 0.0
C2235 C 0.37213 0.68031 0.71526 0.0
C2236 C 0.36668 0.69231 0.7313 0.0
C2237 C 0.36551 0.71282 0.72898 0.0
H2238 H 0.80593 0.84699 0.22168 0.0
H2239 H 0.79121 0.9017 0.25042 0.0
H2240 H 0.76909 0.91009 0.22258 0.0
H2241 H 0.80883 0.87014 0.17236 0.0
H2242 H 0.80083 0.84788 0.1605 0.0
H2243 H 0.81487 0.84659 0.18283 0.0
H2244 H 0.7875 0.82567 0.19923 0.0
H2245 H 0.77374 0.82667 0.17677 0.0
H2246 H 0.76268 0.83484 0.19941 0.0
H2247 H 0.74548 0.90962 0.19265 0.0
H2248 H 0.72535 0.90168 0.16317 0.0
H2249 H 0.76161 0.85084 0.15214 0.0
C2250 C 0.79858 0.86097 0.22191 0.0
C2251 C 0.80048 0.87371 0.23805 0.0
C2252 C 0.79 0.8917 0.2381 0.0
C2253 C 0.7775 0.8966 0.22234 0.0
C2254 C 0.7764 0.88373 0.20637 0.0
C2255 C 0.78713 0.86652 0.20593 0.0
C2256 C 0.78423 0.85536 0.18701 0.0
C2257 C 0.80331 0.85498 0.17497 0.0
C2258 C 0.77656 0.83442 0.19086 0.0
C2259 C 0.76898 0.86818 0.17734 0.0
C2260 C 0.76459 0.88456 0.18858 0.0
C2261 C 0.74927 0.89721 0.18345 0.0
C2262 C 0.73799 0.8927 0.16669 0.0
C2263 C 0.7424 0.87593 0.15526 0.0
C2264 C 0.75835 0.86395 0.1604 0.0
H2265 H 0.63247 0.27089 0.74264 0.0
H2266 H 0.61071 0.32634 0.7203 0.0
H2267 H 0.60438 0.31087 0.6879 0.0
H2268 H 0.65728 0.25574 0.70163 0.0
H2269 H 0.65089 0.23011 0.70368 0.0
H2270 H 0.65151 0.24525 0.72527 0.0
H2271 H 0.6155 0.23553 0.73299 0.0
H2272 H 0.61483 0.22045 0.71122 0.0
H2273 H 0.59676 0.23947 0.71471 0.0
H2274 H 0.60622 0.29043 0.65655 0.0
H2275 H 0.61413 0.26651 0.63021 0.0
H2276 H 0.63009 0.22357 0.67451 0.0
C2277 C 0.62593 0.27958 0.73102 0.0
C2278 C 0.622 0.29968 0.73378 0.0
C2279 C 0.61358 0.3108 0.71836 0.0
C2280 C 0.60996 0.30215 0.69997 0.0
C2281 C 0.61428 0.28225 0.69755 0.0
C2282 C 0.62166 0.27103 0.71284 0.0
C2283 C 0.6259 0.25025 0.70635 0.0
C2284 C 0.64768 0.24505 0.70941 0.0
C2285 C 0.61244 0.23556 0.71695 0.0
C2286 C 0.62079 0.25177 0.68479 0.0
C2287 C 0.61406 0.27028 0.67988 0.0
C2288 C 0.61092 0.2757 0.66031 0.0
C2289 C 0.61538 0.26203 0.64543 0.0
C2290 C 0.62282 0.24323 0.65032 0.0
C2291 C 0.62455 0.23787 0.67027 0.0
H2292 H 0.218 0.88426 0.75941 0.0
H2293 H 0.17103 0.84737 0.78066 0.0
H2294 H 0.18261 0.85173 0.81485 0.0
H2295 H 0.25363 0.86299 0.79008 0.0
H2296 H 0.26735 0.88532 0.79389 0.0
H2297 H 0.2532 0.88221 0.77182 0.0
H2298 H 0.23478 0.91473 0.77941 0.0
H2299 H 0.2487 0.91765 0.80175 0.0
H2300 H 0.2223 0.91749 0.80259 0.0
H2301 H 0.20008 0.85865 0.84617 0.0
H2302 H 0.22565 0.86175 0.87165 0.0
H2303 H 0.26373 0.89081 0.82979 0.0
C2304 C 0.21005 0.87746 0.77138 0.0
C2305 C 0.19337 0.86578 0.76773 0.0
C2306 C 0.18362 0.85653 0.7835 0.0
C2307 C 0.19003 0.85908 0.80287 0.0
C2308 C 0.20653 0.87068 0.80614 0.0
C2309 C 0.21671 0.87935 0.79082 0.0
C2310 C 0.23563 0.88851 0.79806 0.0
C2311 C 0.2535 0.87919 0.78786 0.0
C2312 C 0.23533 0.91093 0.79528 0.0
C2313 C 0.23475 0.8831 0.81966 0.0
C2314 C 0.21746 0.8735 0.82413 0.0
C2315 C 0.21357 0.86637 0.84294 0.0
C2316 C 0.2281 0.86836 0.85737 0.0
C2317 C 0.24646 0.8768 0.85268 0.0
C2318 C 0.24961 0.88471 0.83377 0.0
H2319 H 0.63454 0.72784 0.25659 0.0
H2320 H 0.60039 0.67924 0.27937 0.0
H2321 H 0.59507 0.69763 0.31042 0.0
H2322 H 0.65896 0.73985 0.29917 0.0
H2323 H 0.65829 0.76609 0.29554 0.0
H2324 H 0.6575 0.7499 0.27469 0.0
H2325 H 0.62511 0.76618 0.26309 0.0
H2326 H 0.62585 0.7825 0.28395 0.0
H2327 H 0.60453 0.76743 0.27967 0.0
H2328 H 0.59852 0.7194 0.34081 0.0
H2329 H 0.60811 0.74335 0.36646 0.0
H2330 H 0.63604 0.77934 0.32193 0.0
C2331 C 0.62557 0.72128 0.26798 0.0
C2332 C 0.61785 0.7022 0.26572 0.0
C2333 C 0.60624 0.69397 0.28085 0.0
C2334 C 0.60321 0.70428 0.2985 0.0
C2335 C 0.61142 0.72298 0.30046 0.0
C2336 C 0.62199 0.73156 0.28538 0.0
C2337 C 0.62995 0.75144 0.29128 0.0
C2338 C 0.6525 0.75182 0.2901 0.0
C2339 C 0.62081 0.76786 0.27875 0.0
C2340 C 0.62293 0.75243 0.31232 0.0
C2341 C 0.61232 0.7359 0.31745 0.0
C2342 C 0.60638 0.73262 0.33681 0.0
C2343 C 0.61186 0.74634 0.35129 0.0
C2344 C 0.62306 0.76316 0.34629 0.0
C2345 C 0.62782 0.76652 0.32639 0.0
H2346 H 0.78389 0.11942 0.75927 0.0
H2347 H 0.83427 0.1497 0.78351 0.0
H2348 H 0.81935 0.14835 0.81664 0.0
H2349 H 0.7491 0.14579 0.78665 0.0
H2350 H 0.73247 0.12547 0.78999 0.0
H2351 H 0.74833 0.12613 0.7689 0.0
H2352 H 0.76221 0.09191 0.77831 0.0
H2353 H 0.74642 0.09121 0.79953 0.0
H2354 H 0.77251 0.08821 0.80243 0.0
H2355 H 0.79862 0.14478 0.84668 0.0
H2356 H 0.77168 0.14336 0.87088 0.0
H2357 H 0.73321 0.11861 0.82661 0.0
C2358 C 0.79186 0.12534 0.7717 0.0
C2359 C 0.81029 0.13434 0.76913 0.0
C2360 C 0.82019 0.14256 0.78543 0.0
C2361 C 0.81189 0.14177 0.80424 0.0
C2362 C 0.79359 0.13292 0.80638 0.0
C2363 C 0.78354 0.1251 0.79053 0.0
C2364 C 0.76317 0.11849 0.79645 0.0
C2365 C 0.74734 0.12964 0.78481 0.0
C2366 C 0.76095 0.09613 0.79403 0.0
C2367 C 0.76314 0.12427 0.81796 0.0
C2368 C 0.78106 0.132 0.8235 0.0
C2369 C 0.78458 0.13859 0.84256 0.0
C2370 C 0.76926 0.13761 0.85623 0.0
C2371 C 0.75054 0.13063 0.85059 0.0
C2372 C 0.7475 0.12375 0.83128 0.0
H2373 H 0.35791 0.3114 0.28692 0.0
H2374 H 0.39834 0.27912 0.25002 0.0
H2375 H 0.40596 0.25686 0.27792 0.0
H2376 H 0.38753 0.3068 0.33324 0.0
H2377 H 0.3657 0.30484 0.34803 0.0
H2378 H 0.36541 0.31921 0.32578 0.0
H2379 H 0.33587 0.29866 0.31294 0.0
H2380 H 0.33624 0.28466 0.33526 0.0
H2381 H 0.33797 0.27224 0.31194 0.0
H2382 H 0.40455 0.2352 0.30801 0.0
H2383 H 0.39591 0.21716 0.33841 0.0
H2384 H 0.3595 0.26574 0.35696 0.0
C2385 C 0.36863 0.29985 0.2849 0.0
C2386 C 0.37754 0.2968 0.26647 0.0
C2387 C 0.3915 0.28164 0.26416 0.0
C2388 C 0.3959 0.269 0.27991 0.0
C2389 C 0.38665 0.27222 0.29792 0.0
C2390 C 0.37359 0.28755 0.30058 0.0
C2391 C 0.36493 0.28737 0.32105 0.0
C2392 C 0.37128 0.30564 0.33271 0.0
C2393 C 0.34243 0.2856 0.32023 0.0
C2394 C 0.37441 0.26899 0.32926 0.0
C2395 C 0.38696 0.26049 0.31573 0.0
C2396 C 0.39543 0.24211 0.31903 0.0
C2397 C 0.39062 0.23204 0.33639 0.0
C2398 C 0.37788 0.24057 0.35036 0.0
C2399 C 0.37009 0.25944 0.34695 0.0
H2400 H 0.24017 0.22275 0.14158 0.0
H2401 H 0.21744 0.17233 0.11009 0.0
H2402 H 0.18641 0.19027 0.10378 0.0
H2403 H 0.19776 0.23691 0.16519 0.0
H2404 H 0.20159 0.26299 0.16246 0.0
H2405 H 0.22225 0.24662 0.16287 0.0
H2406 H 0.23372 0.26037 0.12919 0.0
H2407 H 0.21293 0.27673 0.12866 0.0
H2408 H 0.21712 0.25999 0.10857 0.0
H2409 H 0.15634 0.21234 0.10519 0.0
H2410 H 0.13071 0.23691 0.11312 0.0
H2411 H 0.17484 0.274 0.14018 0.0
C2412 C 0.22871 0.21565 0.13314 0.0
C2413 C 0.23096 0.19624 0.12639 0.0
C2414 C 0.21585 0.1873 0.11529 0.0
C2415 C 0.19826 0.19736 0.11162 0.0
C2416 C 0.19637 0.21653 0.11864 0.0
C2417 C 0.21137 0.22568 0.12884 0.0
C2418 C 0.20558 0.24611 0.13528 0.0
C2419 C 0.20686 0.24826 0.15778 0.0
C2420 C 0.21808 0.26172 0.1248 0.0
C2421 C 0.18461 0.24662 0.12816 0.0
C2422 C 0.17951 0.22953 0.11844 0.0
C2423 C 0.16028 0.22598 0.11237 0.0
C2424 C 0.14583 0.24002 0.11687 0.0
C2425 C 0.15079 0.2573 0.12735 0.0
C2426 C 0.17056 0.26088 0.13227 0.0
H2427 H 0.21874 0.81519 0.84247 0.0
H2428 H 0.24613 0.79673 0.89703 0.0
H2429 H 0.21796 0.77491 0.90381 0.0
H2430 H 0.16892 0.8153 0.86174 0.0
H2431 H 0.15799 0.80634 0.83939 0.0
H2432 H 0.17991 0.82113 0.83837 0.0
H2433 H 0.19825 0.79421 0.81902 0.0
H2434 H 0.17628 0.77958 0.819 0.0
H2435 H 0.19882 0.76943 0.82844 0.0
H2436 H 0.18781 0.75346 0.90352 0.0
H2437 H 0.15825 0.73369 0.89566 0.0
H2438 H 0.15013 0.76713 0.84216 0.0
C2439 C 0.21886 0.80649 0.8558 0.0
C2440 C 0.23471 0.80749 0.86914 0.0
C2441 C 0.23414 0.79616 0.8866 0.0
C2442 C 0.21819 0.78377 0.8906 0.0
C2443 C 0.20278 0.78315 0.87717 0.0
C2444 C 0.20294 0.79427 0.86016 0.0
C2445 C 0.18467 0.79076 0.84801 0.0
C2446 C 0.17214 0.80951 0.84681 0.0
C2447 C 0.18983 0.78302 0.8274 0.0
C2448 C 0.17468 0.77521 0.86036 0.0
C2449 C 0.18518 0.77123 0.87729 0.0
C2450 C 0.17931 0.75667 0.89048 0.0
C2451 C 0.16251 0.7456 0.886 0.0
C2452 C 0.15194 0.74924 0.86854 0.0
C2453 C 0.15789 0.76439 0.85576 0.0
H2454 H 0.71439 0.74095 0.38357 0.0
H2455 H 0.66227 0.71565 0.35753 0.0
H2456 H 0.67636 0.68228 0.36136 0.0
H2457 H 0.74701 0.71147 0.35835 0.0
H2458 H 0.76462 0.70926 0.37799 0.0
H2459 H 0.74891 0.73043 0.37678 0.0
H2460 H 0.73674 0.72328 0.41217 0.0
H2461 H 0.75235 0.70191 0.41338 0.0
H2462 H 0.72642 0.69957 0.41788 0.0
H2463 H 0.69714 0.65221 0.36539 0.0
H2464 H 0.72452 0.62841 0.36475 0.0
H2465 H 0.76414 0.67363 0.38551 0.0
C2466 C 0.70582 0.72827 0.37923 0.0
C2467 C 0.68718 0.73057 0.37066 0.0
C2468 C 0.6765 0.71392 0.3644 0.0
C2469 C 0.68433 0.69499 0.36663 0.0
C2470 C 0.70291 0.69308 0.37498 0.0
C2471 C 0.71362 0.7093 0.38098 0.0
C2472 C 0.73424 0.70355 0.38688 0.0
C2473 C 0.74959 0.71431 0.37423 0.0
C2474 C 0.73763 0.7073 0.40889 0.0
C2475 C 0.73374 0.68173 0.38247 0.0
C2476 C 0.71533 0.67585 0.37631 0.0
C2477 C 0.71153 0.65656 0.37049 0.0
C2478 C 0.72711 0.6431 0.37033 0.0
C2479 C 0.74627 0.64919 0.37543 0.0
C2480 C 0.7495 0.66859 0.38198 0.0
H2481 H 0.77706 0.19034 0.84663 0.0
H2482 H 0.75058 0.20844 0.90166 0.0
H2483 H 0.77861 0.23085 0.90776 0.0
H2484 H 0.82805 0.19161 0.8642 0.0
H2485 H 0.83716 0.20037 0.84093 0.0
H2486 H 0.8157 0.18493 0.84174 0.0
H2487 H 0.79596 0.21133 0.82265 0.0
H2488 H 0.81738 0.2267 0.8217 0.0
H2489 H 0.79494 0.23611 0.83202 0.0
H2490 H 0.80794 0.2539 0.90577 0.0
H2491 H 0.83622 0.27481 0.89607 0.0
H2492 H 0.84407 0.23963 0.84371 0.0
C2493 C 0.77719 0.19897 0.86001 0.0
C2494 C 0.76161 0.19788 0.8736 0.0
C2495 C 0.76242 0.20913 0.89108 0.0
C2496 C 0.77827 0.22183 0.89466 0.0
C2497 C 0.79333 0.22271 0.88083 0.0
C2498 C 0.79299 0.21138 0.86396 0.0
C2499 C 0.81061 0.21534 0.85108 0.0
C2500 C 0.82365 0.19697 0.8494 0.0
C2501 C 0.80434 0.22282 0.83066 0.0
C2502 C 0.82053 0.23127 0.86292 0.0
C2503 C 0.8105 0.23528 0.88012 0.0
C2504 C 0.81614 0.2506 0.89257 0.0
C2505 C 0.83219 0.26234 0.88703 0.0
C2506 C 0.84228 0.25853 0.86933 0.0
C2507 C 0.83665 0.24261 0.85742 0.0
H2508 H 0.27939 0.25787 0.37058 0.0
H2509 H 0.33565 0.28716 0.37362 0.0
H2510 H 0.31904 0.31882 0.38044 0.0
H2511 H 0.25474 0.29547 0.34551 0.0
H2512 H 0.23176 0.29207 0.35811 0.0
H2513 H 0.24839 0.27174 0.35547 0.0
H2514 H 0.24813 0.26689 0.39331 0.0
H2515 H 0.23172 0.28749 0.39601 0.0
H2516 H 0.2547 0.28712 0.40911 0.0
H2517 H 0.29604 0.34767 0.38347 0.0
H2518 H 0.26868 0.37138 0.38061 0.0
H2519 H 0.22752 0.32292 0.37745 0.0
C2520 C 0.28811 0.27095 0.37302 0.0
C2521 C 0.30867 0.27033 0.37163 0.0
C2522 C 0.31982 0.28757 0.37463 0.0
C2523 C 0.31052 0.30551 0.37863 0.0
C2524 C 0.29012 0.30579 0.37981 0.0
C2525 C 0.27905 0.28894 0.37711 0.0
C2526 C 0.25735 0.29342 0.37762 0.0
C2527 C 0.2475 0.28785 0.35802 0.0
C2528 C 0.24739 0.28312 0.39506 0.0
C2529 C 0.25793 0.31547 0.3805 0.0
C2530 C 0.27693 0.32236 0.38193 0.0
C2531 C 0.28108 0.34244 0.38275 0.0
C2532 C 0.26545 0.35581 0.38126 0.0
C2533 C 0.24601 0.34896 0.37885 0.0
C2534 C 0.24224 0.32857 0.37937 0.0
H2535 H 0.75652 0.77886 0.12064 0.0
H2536 H 0.78446 0.83491 0.13156 0.0
H2537 H 0.81705 0.81969 0.12698 0.0
H2538 H 0.78829 0.74959 0.14569 0.0
H2539 H 0.78859 0.72941 0.12851 0.0
H2540 H 0.76768 0.7454 0.12961 0.0
H2541 H 0.77128 0.75265 0.09234 0.0
H2542 H 0.7924 0.73672 0.09124 0.0
H2543 H 0.79424 0.76184 0.08302 0.0
H2544 H 0.84641 0.7976 0.12535 0.0
H2545 H 0.86999 0.77014 0.12856 0.0
H2546 H 0.82307 0.7285 0.11827 0.0
C2547 C 0.76954 0.78792 0.12152 0.0
C2548 C 0.76819 0.80797 0.12649 0.0
C2549 C 0.78538 0.81948 0.12786 0.0
C2550 C 0.8039 0.811 0.12508 0.0
C2551 C 0.80489 0.79106 0.12049 0.0
C2552 C 0.78815 0.7797 0.11851 0.0
C2553 C 0.79332 0.75833 0.11506 0.0
C2554 C 0.78392 0.74491 0.13066 0.0
C2555 C 0.78746 0.75201 0.09418 0.0
C2556 C 0.81541 0.7592 0.11713 0.0
C2557 C 0.82188 0.7783 0.11951 0.0
C2558 C 0.84159 0.78263 0.12301 0.0
C2559 C 0.85491 0.76697 0.12468 0.0
C2560 C 0.84831 0.74731 0.12331 0.0
C2561 C 0.82846 0.74346 0.11897 0.0
H2562 H 0.73361 0.35481 0.64511 0.0
H2563 H 0.77356 0.33933 0.59825 0.0
H2564 H 0.75337 0.30997 0.5906 0.0
H2565 H 0.72939 0.30854 0.66321 0.0
H2566 H 0.70388 0.30947 0.67002 0.0
H2567 H 0.71806 0.33174 0.66914 0.0
H2568 H 0.69393 0.34766 0.64489 0.0
H2569 H 0.67888 0.32592 0.64609 0.0
H2570 H 0.68734 0.33487 0.62265 0.0
H2571 H 0.73051 0.28084 0.59025 0.0
H2572 H 0.70848 0.25316 0.59856 0.0
H2573 H 0.6856 0.2863 0.6479 0.0
C2574 C 0.73761 0.34558 0.63279 0.0
C2575 C 0.75469 0.34943 0.62183 0.0
C2576 C 0.76016 0.33673 0.60637 0.0
C2577 C 0.7488 0.32009 0.60198 0.0
C2578 C 0.73222 0.31634 0.6134 0.0
C2579 C 0.72667 0.32874 0.62853 0.0
C2580 C 0.70991 0.32012 0.64029 0.0
C2581 C 0.71568 0.31729 0.66195 0.0
C2582 C 0.69142 0.3329 0.63835 0.0
C2583 C 0.70737 0.30062 0.62994 0.0
C2584 C 0.71996 0.29894 0.61411 0.0
C2585 C 0.72051 0.28205 0.60253 0.0
C2586 C 0.70799 0.26642 0.60737 0.0
C2587 C 0.69553 0.2676 0.62396 0.0
C2588 C 0.69513 0.28499 0.63525 0.0
H2589 H 0.26791 0.64468 0.63474 0.0
H2590 H 0.21196 0.67277 0.62381 0.0
H2591 H 0.22874 0.70398 0.61656 0.0
H2592 H 0.28807 0.68129 0.66081 0.0
H2593 H 0.31274 0.67996 0.65142 0.0
H2594 H 0.29734 0.65853 0.65092 0.0
H2595 H 0.30234 0.6552 0.61333 0.0
H2596 H 0.31814 0.67647 0.61373 0.0
H2597 H 0.29721 0.67588 0.59758 0.0
H2598 H 0.2503 0.73295 0.61593 0.0
H2599 H 0.27604 0.7581 0.62102 0.0
H2600 H 0.31828 0.71225 0.63366 0.0
C2601 C 0.2594 0.65718 0.62981 0.0
C2602 C 0.23873 0.65632 0.62933 0.0
C2603 C 0.22785 0.67314 0.62383 0.0
C2604 C 0.23724 0.69092 0.61971 0.0
C2605 C 0.25757 0.69165 0.62115 0.0
C2606 C 0.26862 0.67521 0.62581 0.0
C2607 C 0.29002 0.68068 0.62863 0.0
C2608 C 0.29746 0.67477 0.64917 0.0
C2609 C 0.30268 0.67151 0.61235 0.0
C2610 C 0.2889 0.70283 0.62631 0.0
C2611 C 0.27013 0.70874 0.6214 0.0
C2612 C 0.26514 0.72851 0.61939 0.0
C2613 C 0.27974 0.74266 0.62239 0.0
C2614 C 0.29891 0.73692 0.62767 0.0
C2615 C 0.30363 0.71682 0.62954 0.0
H2616 H 0.86038 0.85957 0.76527 0.0
H2617 H 0.89415 0.84039 0.71506 0.0
H2618 H 0.90436 0.81056 0.73321 0.0
H2619 H 0.89259 0.83588 0.8052 0.0
H2620 H 0.87114 0.82937 0.81922 0.0
H2621 H 0.87125 0.85149 0.80462 0.0
H2622 H 0.8401 0.83971 0.78731 0.0
H2623 H 0.83983 0.81712 0.80093 0.0
H2624 H 0.83987 0.81652 0.77442 0.0
H2625 H 0.90709 0.7808 0.75498 0.0
H2626 H 0.90021 0.75286 0.7774 0.0
H2627 H 0.86177 0.79007 0.81176 0.0
C2628 C 0.87081 0.84958 0.75862 0.0
C2629 C 0.8772 0.85252 0.73915 0.0
C2630 C 0.88975 0.83861 0.73025 0.0
C2631 C 0.89556 0.82164 0.74044 0.0
C2632 C 0.88845 0.81871 0.75944 0.0
C2633 C 0.87638 0.83236 0.76849 0.0
C2634 C 0.86821 0.82436 0.78759 0.0
C2635 C 0.87629 0.83596 0.8052 0.0
C2636 C 0.84565 0.82438 0.78752 0.0
C2637 C 0.87645 0.80369 0.7872 0.0
C2638 C 0.88875 0.80096 0.7713 0.0
C2639 C 0.89767 0.78285 0.7676 0.0
C2640 C 0.8937 0.76708 0.78035 0.0
C2641 C 0.88048 0.76944 0.79615 0.0
C2642 C 0.87195 0.788 0.79972 0.0
H2643 H 0.64387 0.34984 0.26772 0.0
H2644 H 0.65852 0.39405 0.22447 0.0
H2645 H 0.68748 0.40388 0.24431 0.0
H2646 H 0.66165 0.37651 0.31193 0.0
H2647 H 0.67093 0.35425 0.32277 0.0
H2648 H 0.64987 0.3533 0.30691 0.0
H2649 H 0.66744 0.32768 0.2846 0.0
H2650 H 0.68824 0.3284 0.30076 0.0
H2651 H 0.69131 0.33337 0.27491 0.0
H2652 H 0.71699 0.40588 0.26709 0.0
H2653 H 0.74467 0.39903 0.2898 0.0
H2654 H 0.71078 0.35256 0.31685 0.0
C2655 C 0.65283 0.36205 0.26287 0.0
C2656 C 0.64886 0.37166 0.24502 0.0
C2657 C 0.66119 0.387 0.23849 0.0
C2658 C 0.67764 0.39259 0.24962 0.0
C2659 C 0.6815 0.38249 0.26705 0.0
C2660 C 0.6694 0.36752 0.27359 0.0
C2661 C 0.67775 0.35746 0.29152 0.0
C2662 C 0.66426 0.36058 0.30934 0.0
C2663 C 0.6814 0.33544 0.28771 0.0
C2664 C 0.69681 0.36859 0.29367 0.0
C2665 C 0.69862 0.38323 0.27971 0.0
C2666 C 0.71561 0.39461 0.27822 0.0
C2667 C 0.73125 0.39063 0.29112 0.0
C2668 C 0.72986 0.37511 0.3049 0.0
C2669 C 0.71229 0.36433 0.30635 0.0
H2670 H 0.12204 0.17287 0.72742 0.0
H2671 H 0.12374 0.12365 0.76774 0.0
H2672 H 0.11859 0.14643 0.79563 0.0
H2673 H 0.14997 0.20304 0.75358 0.0
H2674 H 0.13732 0.22569 0.74823 0.0
H2675 H 0.13596 0.20555 0.73124 0.0
H2676 H 0.09803 0.20583 0.73302 0.0
H2677 H 0.09917 0.22638 0.74971 0.0
H2678 H 0.08606 0.20443 0.75659 0.0
H2679 H 0.12042 0.17508 0.81914 0.0
H2680 H 0.12631 0.2069 0.83601 0.0
H2681 H 0.12348 0.23721 0.78017 0.0
C2682 C 0.12039 0.16683 0.74205 0.0
C2683 C 0.12302 0.14656 0.74548 0.0
C2684 C 0.1213 0.13911 0.7648 0.0
C2685 C 0.11851 0.15197 0.78073 0.0
C2686 C 0.11712 0.17211 0.77694 0.0
C2687 C 0.11756 0.17943 0.75798 0.0
C2688 C 0.11809 0.20168 0.7578 0.0
C2689 C 0.13643 0.20942 0.74709 0.0
C2690 C 0.09921 0.21007 0.74875 0.0
C2691 C 0.11905 0.20579 0.77959 0.0
C2692 C 0.11814 0.18859 0.79045 0.0
C2693 C 0.12058 0.18863 0.81082 0.0
C2694 C 0.124 0.20668 0.82025 0.0
C2695 C 0.12504 0.22427 0.80927 0.0
C2696 C 0.12235 0.22387 0.78879 0.0
H2697 H 0.32248 0.63326 0.22754 0.0
H2698 H 0.36622 0.61903 0.27153 0.0
H2699 H 0.33979 0.61006 0.29485 0.0
H2700 H 0.29151 0.65759 0.25737 0.0
H2701 H 0.26907 0.64914 0.24618 0.0
H2702 H 0.29119 0.65016 0.23194 0.0
H2703 H 0.28762 0.61317 0.22336 0.0
H2704 H 0.26534 0.61205 0.23757 0.0
H2705 H 0.28521 0.59539 0.24285 0.0
H2706 H 0.30836 0.607 0.31453 0.0
H2707 H 0.2754 0.61186 0.32909 0.0
H2708 H 0.25302 0.63014 0.27243 0.0
C2709 C 0.32654 0.62781 0.24193 0.0
C2710 C 0.34634 0.62681 0.24777 0.0
C2711 C 0.3511 0.61969 0.26672 0.0
C2712 C 0.33619 0.61455 0.28002 0.0
C2713 C 0.3167 0.61638 0.27397 0.0
C2714 C 0.31191 0.62272 0.25528 0.0
C2715 C 0.29008 0.62565 0.25292 0.0
C2716 C 0.28519 0.64689 0.24676 0.0
C2717 C 0.28156 0.61067 0.23831 0.0
C2718 C 0.28335 0.6213 0.27359 0.0
C2719 C 0.29877 0.61527 0.28538 0.0
C2720 C 0.29616 0.61136 0.30533 0.0
C2721 C 0.27744 0.61409 0.31346 0.0
C2722 C 0.26184 0.62115 0.30172 0.0
C2723 C 0.26476 0.62448 0.28155 0.0
H2724 H 0.86208 0.14294 0.23183 0.0
H2725 H 0.8953 0.16738 0.28017 0.0
H2726 H 0.90489 0.19564 0.2594 0.0
H2727 H 0.89406 0.16349 0.18996 0.0
H2728 H 0.87256 0.1683 0.1753 0.0
H2729 H 0.87299 0.1476 0.19187 0.0
H2730 H 0.84155 0.1604 0.20752 0.0
H2731 H 0.84103 0.18198 0.19232 0.0
H2732 H 0.84085 0.18446 0.2187 0.0
H2733 H 0.90703 0.22325 0.23519 0.0
H2734 H 0.89924 0.24904 0.21071 0.0
H2735 H 0.86224 0.20798 0.17925 0.0
C2736 C 0.87224 0.15375 0.23758 0.0
C2737 C 0.87866 0.15275 0.25725 0.0
C2738 C 0.89084 0.1677 0.26489 0.0
C2739 C 0.89634 0.18376 0.25319 0.0
C2740 C 0.88932 0.18472 0.23396 0.0
C2741 C 0.87755 0.17007 0.22616 0.0
C2742 C 0.86939 0.17612 0.20633 0.0
C2743 C 0.87776 0.1631 0.18989 0.0
C2744 C 0.84685 0.17576 0.20625 0.0
C2745 C 0.87726 0.19686 0.20485 0.0
C2746 C 0.8894 0.20127 0.22051 0.0
C2747 C 0.89778 0.21985 0.22272 0.0
C2748 C 0.89332 0.23439 0.20877 0.0
C2749 C 0.88017 0.23038 0.19322 0.0
C2750 C 0.87234 0.21132 0.19106 0.0
H2751 H 0.25479 0.3711 0.71957 0.0
H2752 H 0.28161 0.37639 0.6622 0.0
H2753 H 0.31394 0.38213 0.67779 0.0
H2754 H 0.28714 0.40885 0.74439 0.0
H2755 H 0.28747 0.39495 0.76694 0.0
H2756 H 0.26619 0.39423 0.75122 0.0
H2757 H 0.26846 0.35618 0.74979 0.0
H2758 H 0.28963 0.35681 0.76548 0.0
H2759 H 0.29103 0.34484 0.74189 0.0
H2760 H 0.34385 0.38251 0.69974 0.0
H2761 H 0.36845 0.37701 0.72595 0.0
H2762 H 0.32172 0.3731 0.76891 0.0
C2763 C 0.26743 0.37407 0.71041 0.0
C2764 C 0.2659 0.37357 0.68981 0.0
C2765 C 0.28264 0.37702 0.67807 0.0
C2766 C 0.30099 0.38034 0.68679 0.0
C2767 C 0.30217 0.38053 0.70725 0.0
C2768 C 0.28576 0.37774 0.7189 0.0
C2769 C 0.29113 0.37709 0.74044 0.0
C2770 C 0.28247 0.39484 0.75139 0.0
C2771 C 0.28469 0.35757 0.74994 0.0
C2772 C 0.31321 0.37863 0.73904 0.0
C2773 C 0.31934 0.38104 0.71985 0.0
C2774 C 0.33921 0.38108 0.71487 0.0
C2775 C 0.35309 0.37803 0.72985 0.0
C2776 C 0.34695 0.37473 0.74943 0.0
C2777 C 0.32682 0.37573 0.75407 0.0
H2778 H 0.13732 0.85555 0.22731 0.0
H2779 H 0.11272 0.83485 0.28208 0.0
H2780 H 0.10086 0.8048 0.2656 0.0
H2781 H 0.09967 0.82984 0.19301 0.0
H2782 H 0.11876 0.82433 0.17557 0.0
H2783 H 0.11984 0.84667 0.18981 0.0
H2784 H 0.15447 0.83705 0.20248 0.0
H2785 H 0.15321 0.81512 0.18801 0.0
H2786 H 0.15789 0.81341 0.21404 0.0
H2787 H 0.0974 0.77473 0.24537 0.0
H2788 H 0.10392 0.74652 0.22324 0.0
H2789 H 0.13304 0.78547 0.18229 0.0
C2790 C 0.12845 0.84514 0.23542 0.0
C2791 C 0.12531 0.84762 0.25572 0.0
C2792 C 0.11472 0.8333 0.26637 0.0
C2793 C 0.10793 0.81623 0.25711 0.0
C2794 C 0.112 0.81366 0.23722 0.0
C2795 C 0.12191 0.82779 0.22642 0.0
C2796 C 0.12733 0.82005 0.20627 0.0
C2797 C 0.1157 0.83086 0.19022 0.0
C2798 C 0.14955 0.82148 0.20254 0.0
C2799 C 0.12057 0.79891 0.20814 0.0
C2800 C 0.11095 0.79576 0.22574 0.0
C2801 C 0.10451 0.77709 0.23135 0.0
C2802 C 0.10829 0.76117 0.2188 0.0
C2803 C 0.1188 0.76406 0.20119 0.0
C2804 C 0.12473 0.78313 0.19564 0.0
H2805 H 0.73621 0.61867 0.72643 0.0
H2806 H 0.71219 0.61715 0.66761 0.0
H2807 H 0.67889 0.61216 0.68127 0.0
H2808 H 0.70011 0.58169 0.74834 0.0
H2809 H 0.6996 0.59498 0.77124 0.0
H2810 H 0.72169 0.59451 0.75669 0.0
H2811 H 0.72229 0.63267 0.75631 0.0
H2812 H 0.70037 0.6332 0.77084 0.0
H2813 H 0.70106 0.64586 0.74759 0.0
H2814 H 0.64805 0.61381 0.7015 0.0
H2815 H 0.62281 0.62187 0.72635 0.0
H2816 H 0.66717 0.62024 0.77191 0.0
C2817 C 0.72397 0.61647 0.71652 0.0
C2818 C 0.72656 0.61785 0.69609 0.0
C2819 C 0.71035 0.61559 0.68335 0.0
C2820 C 0.69145 0.61277 0.69098 0.0
C2821 C 0.6892 0.61181 0.71133 0.0
C2822 C 0.70512 0.61326 0.72391 0.0
C2823 C 0.69868 0.61376 0.74515 0.0
C2824 C 0.70542 0.59512 0.75599 0.0
C2825 C 0.70603 0.63248 0.75556 0.0
C2826 C 0.67668 0.6139 0.74253 0.0
C2827 C 0.6714 0.61231 0.72298 0.0
C2828 C 0.65195 0.61445 0.71691 0.0
C2829 C 0.63768 0.61894 0.73111 0.0
C2830 C 0.64309 0.62148 0.75102 0.0
C2831 C 0.66264 0.6181 0.7568 0.0
H2832 H 0.75806 0.84707 0.84759 0.0
H2833 H 0.727 0.90186 0.83948 0.0
H2834 H 0.74941 0.91037 0.81191 0.0
H2835 H 0.80744 0.86306 0.83253 0.0
H2836 H 0.81219 0.84025 0.81992 0.0
H2837 H 0.79638 0.84058 0.84114 0.0
H2838 H 0.76891 0.8242 0.82076 0.0
H2839 H 0.78437 0.82398 0.79939 0.0
H2840 H 0.76067 0.83568 0.79834 0.0
H2841 H 0.77376 0.91116 0.78355 0.0
H2842 H 0.79599 0.90372 0.75589 0.0
H2843 H 0.80725 0.84601 0.78062 0.0
C2844 C 0.75609 0.8609 0.84015 0.0
C2845 C 0.74094 0.87383 0.84553 0.0
C2846 C 0.73881 0.89195 0.83562 0.0
C2847 C 0.75142 0.89681 0.82 0.0
C2848 C 0.76584 0.88327 0.81453 0.0
C2849 C 0.76815 0.86563 0.82435 0.0
C2850 C 0.78301 0.85249 0.81438 0.0
C2851 C 0.80081 0.84889 0.82779 0.0
C2852 C 0.77367 0.83295 0.80782 0.0
C2853 C 0.78837 0.86522 0.79702 0.0
C2854 C 0.77878 0.88313 0.79763 0.0
C2855 C 0.78139 0.89722 0.783 0.0
C2856 C 0.79402 0.89283 0.76733 0.0
C2857 C 0.80349 0.87429 0.76614 0.0
C2858 C 0.80052 0.86038 0.78122 0.0
H2859 H 0.63505 0.31569 0.29036 0.0
H2860 H 0.59801 0.2814 0.2517 0.0
H2861 H 0.59036 0.25872 0.27915 0.0
H2862 H 0.65661 0.27825 0.31628 0.0
H2863 H 0.65589 0.29066 0.33971 0.0
H2864 H 0.65628 0.30477 0.31745 0.0
H2865 H 0.62475 0.32239 0.3296 0.0
H2866 H 0.62443 0.30739 0.35145 0.0
H2867 H 0.60332 0.30805 0.33553 0.0
H2868 H 0.59216 0.23672 0.30848 0.0
H2869 H 0.60181 0.21789 0.33803 0.0
H2870 H 0.63543 0.26762 0.35889 0.0
C2871 C 0.62507 0.30358 0.28787 0.0
C2872 C 0.61717 0.30008 0.26904 0.0
C2873 C 0.60405 0.28427 0.26614 0.0
C2874 C 0.59962 0.27139 0.28164 0.0
C2875 C 0.60799 0.27495 0.30002 0.0
C2876 C 0.62012 0.2909 0.3033 0.0
C2877 C 0.62802 0.29085 0.32411 0.0
C2878 C 0.65056 0.29111 0.32433 0.0
C2879 C 0.61962 0.3082 0.33586 0.0
C2880 C 0.61989 0.27145 0.33149 0.0
C2881 C 0.608 0.26273 0.31748 0.0
C2882 C 0.60081 0.24368 0.31985 0.0
C2883 C 0.6063 0.23311 0.33666 0.0
C2884 C 0.61865 0.24167 0.35096 0.0
C2885 C 0.62515 0.26121 0.34859 0.0
H2886 H 0.17786 0.13123 0.79229 0.0
H2887 H 0.21443 0.10675 0.7464 0.0
H2888 H 0.23979 0.09847 0.77097 0.0
H2889 H 0.21227 0.15401 0.81921 0.0
H2890 H 0.20278 0.14771 0.8431 0.0
H2891 H 0.18659 0.14849 0.82239 0.0
H2892 H 0.17613 0.11253 0.82994 0.0
H2893 H 0.1928 0.11182 0.85052 0.0
H2894 H 0.19453 0.09357 0.8314 0.0
H2895 H 0.26344 0.10001 0.79842 0.0
H2896 H 0.28304 0.10892 0.82761 0.0
H2897 H 0.23058 0.12915 0.85706 0.0
C2898 C 0.19098 0.12357 0.78765 0.0
C2899 C 0.19432 0.11951 0.76762 0.0
C2900 C 0.21162 0.10968 0.7618 0.0
C2901 C 0.22605 0.10491 0.77564 0.0
C2902 C 0.2226 0.10946 0.7953 0.0
C2903 C 0.20528 0.1181 0.80141 0.0
C2904 C 0.20585 0.12264 0.8232 0.0
C2905 C 0.20165 0.14452 0.82717 0.0
C2906 C 0.19147 0.10935 0.83443 0.0
C2907 C 0.22688 0.11718 0.82791 0.0
C2908 C 0.23612 0.10914 0.81168 0.0
C2909 C 0.25623 0.10548 0.81148 0.0
C2910 C 0.26725 0.11056 0.82808 0.0
C2911 C 0.25811 0.11895 0.8447 0.0
C2912 C 0.23764 0.12181 0.84484 0.0
H2913 H 0.35899 0.73718 0.35611 0.0
H2914 H 0.39536 0.78459 0.33451 0.0
H2915 H 0.4034 0.76494 0.30489 0.0
H2916 H 0.38717 0.69493 0.33436 0.0
H2917 H 0.36491 0.682 0.3283 0.0
H2918 H 0.36572 0.69782 0.34954 0.0
H2919 H 0.33586 0.71688 0.33623 0.0
H2920 H 0.33504 0.70159 0.31473 0.0
H2921 H 0.33693 0.72791 0.31217 0.0
H2922 H 0.40522 0.74115 0.27651 0.0
H2923 H 0.39806 0.71694 0.25024 0.0
H2924 H 0.35728 0.68711 0.28886 0.0
C2925 C 0.36931 0.74298 0.34549 0.0
C2926 C 0.37723 0.76198 0.34775 0.0
C2927 C 0.38974 0.76975 0.33317 0.0
C2928 C 0.39432 0.75871 0.31635 0.0
C2929 C 0.38592 0.74012 0.31426 0.0
C2930 C 0.37355 0.73237 0.3284 0.0
C2931 C 0.36418 0.71343 0.32143 0.0
C2932 C 0.3709 0.69601 0.33416 0.0
C2933 C 0.34167 0.71508 0.3211 0.0
C2934 C 0.37262 0.71209 0.3009 0.0
C2935 C 0.38563 0.72725 0.29728 0.0
C2936 C 0.39515 0.72917 0.27923 0.0
C2937 C 0.39104 0.71538 0.26443 0.0
C2938 C 0.37714 0.7003 0.26763 0.0
C2939 C 0.36796 0.69857 0.28613 0.0
H2940 H 0.76203 0.15372 0.15243 0.0
H2941 H 0.72946 0.09986 0.16075 0.0
H2942 H 0.75088 0.09132 0.18915 0.0
H2943 H 0.81089 0.13541 0.16908 0.0
H2944 H 0.81583 0.15922 0.17956 0.0
H2945 H 0.80009 0.15704 0.15841 0.0
H2946 H 0.77348 0.17653 0.17871 0.0
H2947 H 0.7894 0.17691 0.19973 0.0
H2948 H 0.76524 0.16633 0.20169 0.0
H2949 H 0.77494 0.09045 0.21834 0.0
H2950 H 0.79732 0.098 0.24607 0.0
H2951 H 0.81049 0.15447 0.21965 0.0
C2952 C 0.75955 0.14007 0.16011 0.0
C2953 C 0.7443 0.12739 0.15453 0.0
C2954 C 0.74139 0.10957 0.16479 0.0
C2955 C 0.75343 0.10468 0.18089 0.0
C2956 C 0.7681 0.1179 0.18645 0.0
C2957 C 0.77109 0.13526 0.17631 0.0
C2958 C 0.78649 0.1479 0.18597 0.0
C2959 C 0.80441 0.15002 0.17248 0.0
C2960 C 0.77815 0.1681 0.19187 0.0
C2961 C 0.79116 0.13545 0.2037 0.0
C2962 C 0.78095 0.1179 0.2035 0.0
C2963 C 0.78304 0.10412 0.21856 0.0
C2964 C 0.79575 0.10854 0.23424 0.0
C2965 C 0.80574 0.12681 0.23496 0.0
C2966 C 0.80333 0.1403 0.21942 0.0
H2967 H 0.35598 0.31742 0.70946 0.0
H2968 H 0.39022 0.2831 0.75067 0.0
H2969 H 0.39763 0.25897 0.72444 0.0
H2970 H 0.33408 0.27995 0.68318 0.0
H2971 H 0.33672 0.29182 0.6596 0.0
H2972 H 0.33557 0.3064 0.68153 0.0
H2973 H 0.36849 0.32243 0.6707 0.0
H2974 H 0.36935 0.30684 0.64928 0.0
H2975 H 0.38957 0.30704 0.66635 0.0
H2976 H 0.39611 0.23608 0.69574 0.0
H2977 H 0.38772 0.21703 0.66596 0.0
H2978 H 0.35744 0.26754 0.64198 0.0
C2979 C 0.36531 0.30497 0.71277 0.0
C2980 C 0.37249 0.30193 0.73197 0.0
C2981 C 0.38471 0.28562 0.73595 0.0
C2982 C 0.389 0.27191 0.72115 0.0
C2983 C 0.3815 0.27514 0.70235 0.0
C2984 C 0.37027 0.2915 0.69801 0.0
C2985 C 0.36355 0.29121 0.67679 0.0
C2986 C 0.34111 0.29239 0.67526 0.0
C2987 C 0.37333 0.30787 0.66509 0.0
C2988 C 0.37123 0.27131 0.67034 0.0
C2989 C 0.38186 0.26245 0.68524 0.0
C2990 C 0.38844 0.2431 0.68372 0.0
C2991 C 0.38364 0.23241 0.66678 0.0
C2992 C 0.37263 0.24113 0.6515 0.0
C2993 C 0.36672 0.26094 0.6531 0.0
H2994 H 0.18792 0.85741 0.2096 0.0
H2995 H 0.22373 0.8871 0.25302 0.0
H2996 H 0.24815 0.89519 0.22738 0.0
H2997 H 0.22499 0.83603 0.18146 0.0
H2998 H 0.21359 0.84059 0.15799 0.0
H2999 H 0.1987 0.83831 0.17964 0.0
H3000 H 0.18338 0.87232 0.17219 0.0
H3001 H 0.19867 0.87478 0.15072 0.0
H3002 H 0.1991 0.89346 0.16949 0.0
H3003 H 0.27035 0.89616 0.19832 0.0
H3004 H 0.28861 0.8906 0.16745 0.0
H3005 H 0.23733 0.86338 0.14168 0.0
C3006 C 0.20087 0.86574 0.21356 0.0
C3007 C 0.20416 0.87157 0.23319 0.0
C3008 C 0.22107 0.88257 0.23799 0.0
C3009 C 0.23493 0.88728 0.22354 0.0
C3010 C 0.23133 0.88137 0.20425 0.0
C3011 C 0.21459 0.87108 0.19915 0.0
C3012 C 0.21449 0.86626 0.17738 0.0
C3013 C 0.21287 0.84397 0.17394 0.0
C3014 C 0.19792 0.87737 0.16682 0.0
C3015 C 0.2344 0.87419 0.17137 0.0
C3016 C 0.24372 0.88313 0.18706 0.0
C3017 C 0.26301 0.88977 0.18575 0.0
C3018 C 0.27323 0.88668 0.16816 0.0
C3019 C 0.26408 0.87732 0.15206 0.0
C3020 C 0.24428 0.87145 0.1535 0.0
H3021 H 0.61711 0.77148 0.67128 0.0
H3022 H 0.62593 0.73005 0.62369 0.0
H3023 H 0.62567 0.70266 0.64751 0.0
H3024 H 0.64825 0.75004 0.70413 0.0
H3025 H 0.63379 0.75426 0.72589 0.0
H3026 H 0.63132 0.77036 0.70507 0.0
H3027 H 0.594 0.76352 0.70358 0.0
H3028 H 0.59621 0.74768 0.72471 0.0
H3029 H 0.58535 0.7385 0.70237 0.0
H3030 H 0.63038 0.68071 0.6768 0.0
H3031 H 0.63521 0.66512 0.70936 0.0
H3032 H 0.62181 0.72036 0.73799 0.0
C3033 C 0.61825 0.75657 0.66583 0.0
C3034 C 0.62136 0.75286 0.64564 0.0
C3035 C 0.62314 0.7332 0.63904 0.0
C3036 C 0.62318 0.71756 0.65249 0.0
C3037 C 0.62101 0.7218 0.67242 0.0
C3038 C 0.61808 0.74079 0.67904 0.0
C3039 C 0.61734 0.74155 0.7013 0.0
C3040 C 0.63365 0.75483 0.70957 0.0
C3041 C 0.59701 0.7482 0.70841 0.0
C3042 C 0.62102 0.72015 0.70622 0.0
C3043 C 0.62311 0.709 0.68933 0.0
C3044 C 0.62826 0.68918 0.6901 0.0
C3045 C 0.6311 0.68049 0.70858 0.0
C3046 C 0.62864 0.69157 0.72597 0.0
C3047 C 0.62343 0.71159 0.72481 0.0
H3048 H 0.82368 0.73068 0.85822 0.0
H3049 H 0.8677 0.77171 0.87904 0.0
H3050 H 0.84141 0.79533 0.88779 0.0
H3051 H 0.79596 0.76467 0.8338 0.0
H3052 H 0.77262 0.75346 0.83914 0.0
H3053 H 0.79437 0.7386 0.83831 0.0
H3054 H 0.78754 0.72617 0.8737 0.0
H3055 H 0.76563 0.74097 0.87462 0.0
H3056 H 0.7842 0.74371 0.89327 0.0
H3057 H 0.81017 0.81563 0.89096 0.0
H3058 H 0.77758 0.83124 0.88656 0.0
H3059 H 0.75531 0.77749 0.86081 0.0
C3060 C 0.82785 0.74451 0.86487 0.0
C3061 C 0.84771 0.74943 0.86786 0.0
C3062 C 0.85253 0.76761 0.87675 0.0
C3063 C 0.8377 0.78108 0.88176 0.0
C3064 C 0.81824 0.77601 0.87786 0.0
C3065 C 0.81336 0.75809 0.86964 0.0
C3066 C 0.79179 0.75682 0.86481 0.0
C3067 C 0.78851 0.75319 0.84271 0.0
C3068 C 0.7817 0.74098 0.87735 0.0
C3069 C 0.7853 0.77715 0.8708 0.0
C3070 C 0.80058 0.78785 0.87885 0.0
C3071 C 0.79809 0.80728 0.88491 0.0
C3072 C 0.77959 0.816 0.88241 0.0
C3073 C 0.76412 0.8054 0.87349 0.0
C3074 C 0.76697 0.78575 0.8678 0.0
H3075 H 0.85324 0.23191 0.14424 0.0
H3076 H 0.84027 0.27229 0.09692 0.0
H3077 H 0.81117 0.25234 0.08789 0.0
H3078 H 0.83322 0.18604 0.12119 0.0
H3079 H 0.82355 0.17782 0.14436 0.0
H3080 H 0.84548 0.19246 0.14379 0.0
H3081 H 0.8294 0.21746 0.1675 0.0
H3082 H 0.80735 0.20311 0.16802 0.0
H3083 H 0.80638 0.22864 0.1609 0.0
H3084 H 0.78103 0.23053 0.08721 0.0
H3085 H 0.75219 0.20996 0.09567 0.0
H3086 H 0.78363 0.18647 0.14573 0.0
C3087 C 0.84464 0.23608 0.13155 0.0
C3088 C 0.84912 0.25321 0.12089 0.0
C3089 C 0.83731 0.25876 0.10477 0.0
C3090 C 0.82073 0.24759 0.09967 0.0
C3091 C 0.81615 0.23115 0.11106 0.0
C3092 C 0.82782 0.22545 0.1267 0.0
C3093 C 0.81848 0.209 0.13835 0.0
C3094 C 0.83091 0.19022 0.13682 0.0
C3095 C 0.8152 0.21493 0.15995 0.0
C3096 C 0.79926 0.20694 0.12744 0.0
C3097 C 0.79838 0.21939 0.1114 0.0
C3098 C 0.78165 0.22059 0.09962 0.0
C3099 C 0.76535 0.20894 0.10453 0.0
C3100 C 0.76576 0.19682 0.1214 0.0
C3101 C 0.78299 0.19569 0.1328 0.0
H3102 H 0.26199 0.35006 0.64582 0.0
H3103 H 0.22456 0.33614 0.5965 0.0
H3104 H 0.24523 0.30705 0.58901 0.0
H3105 H 0.30943 0.32919 0.62597 0.0
H3106 H 0.31592 0.32012 0.64998 0.0
H3107 H 0.3017 0.34229 0.64765 0.0
H3108 H 0.27573 0.32706 0.67042 0.0
H3109 H 0.28891 0.30431 0.67207 0.0
H3110 H 0.26387 0.30437 0.66354 0.0
H3111 H 0.26768 0.27742 0.58964 0.0
H3112 H 0.28857 0.24919 0.59901 0.0
H3113 H 0.30686 0.28031 0.65144 0.0
C3114 C 0.25865 0.34128 0.63304 0.0
C3115 C 0.24212 0.34544 0.62141 0.0
C3116 C 0.23762 0.33339 0.60514 0.0
C3117 C 0.24921 0.31685 0.60088 0.0
C3118 C 0.26496 0.31255 0.6133 0.0
C3119 C 0.26966 0.32448 0.62907 0.0
C3120 C 0.2852 0.31525 0.64198 0.0
C3121 C 0.30419 0.32743 0.64134 0.0
C3122 C 0.27796 0.31258 0.66324 0.0
C3123 C 0.28774 0.29575 0.63166 0.0
C3124 C 0.27657 0.29477 0.61472 0.0
C3125 C 0.27656 0.2781 0.6028 0.0
C3126 C 0.28837 0.26212 0.6083 0.0
C3127 C 0.29942 0.26266 0.62593 0.0
C3128 C 0.29886 0.27964 0.63777 0.0
H3129 H 0.23024 0.80175 0.1593 0.0
H3130 H 0.23528 0.81348 0.09679 0.0
H3131 H 0.20437 0.79539 0.09096 0.0
H3132 H 0.21312 0.75342 0.1551 0.0
H3133 H 0.19678 0.75517 0.17584 0.0
H3134 H 0.21844 0.77021 0.1749 0.0
H3135 H 0.19703 0.80109 0.17949 0.0
H3136 H 0.17505 0.78645 0.17981 0.0
H3137 H 0.17755 0.80624 0.16231 0.0
H3138 H 0.17306 0.77406 0.09218 0.0
H3139 H 0.14609 0.75082 0.10059 0.0
H3140 H 0.16265 0.75465 0.16182 0.0
C3141 C 0.22484 0.80071 0.14437 0.0
C3142 C 0.23523 0.80904 0.12854 0.0
C3143 C 0.2276 0.80719 0.10921 0.0
C3144 C 0.20999 0.79702 0.10574 0.0
C3145 C 0.20017 0.7889 0.12175 0.0
C3146 C 0.2074 0.7907 0.14067 0.0
C3147 C 0.19479 0.77995 0.15533 0.0
C3148 C 0.20648 0.76372 0.1659 0.0
C3149 C 0.18555 0.7943 0.1701 0.0
C3150 C 0.17956 0.77143 0.1417 0.0
C3151 C 0.18261 0.77681 0.1224 0.0
C3152 C 0.17052 0.76987 0.1073 0.0
C3153 C 0.15524 0.75676 0.11216 0.0
C3154 C 0.15256 0.75065 0.13185 0.0
C3155 C 0.16458 0.75855 0.14666 0.0
H3156 H 0.73568 0.65577 0.65955 0.0
H3157 H 0.76569 0.66034 0.60376 0.0
H3158 H 0.74436 0.68857 0.59466 0.0
H3159 H 0.6865 0.66988 0.64167 0.0
H3160 H 0.68098 0.68308 0.66395 0.0
H3161 H 0.69703 0.66204 0.66468 0.0
H3162 H 0.72393 0.68326 0.68115 0.0
H3163 H 0.7081 0.70438 0.68035 0.0
H3164 H 0.73207 0.70549 0.66926 0.0
H3165 H 0.72146 0.71802 0.5933 0.0
H3166 H 0.69903 0.7459 0.59937 0.0
H3167 H 0.6849 0.7218 0.65673 0.0
C3168 C 0.73759 0.66258 0.64536 0.0
C3169 C 0.75222 0.65608 0.63233 0.0
C3170 C 0.75434 0.66515 0.61379 0.0
C3171 C 0.74234 0.68114 0.60857 0.0
C3172 C 0.72827 0.68756 0.62205 0.0
C3173 C 0.72575 0.67838 0.63999 0.0
C3174 C 0.71044 0.6886 0.65237 0.0
C3175 C 0.69268 0.6751 0.65586 0.0
C3176 C 0.71917 0.69587 0.67193 0.0
C3177 C 0.70524 0.70551 0.63894 0.0
C3178 C 0.7154 0.7045 0.62139 0.0
C3179 C 0.71331 0.71885 0.60692 0.0
C3180 C 0.70057 0.73464 0.61052 0.0
C3181 C 0.69031 0.73609 0.62858 0.0
C3182 C 0.69263 0.7212 0.64284 0.0
H3183 H 0.17458 0.26864 0.87365 0.0
H3184 H 0.12712 0.22654 0.87816 0.0
H3185 H 0.15125 0.19971 0.88227 0.0
H3186 H 0.20335 0.24252 0.84406 0.0
H3187 H 0.22667 0.24904 0.85472 0.0
H3188 H 0.20616 0.2654 0.85714 0.0
H3189 H 0.20953 0.26494 0.89505 0.0
H3190 H 0.23045 0.24888 0.89281 0.0
H3191 H 0.20992 0.24175 0.90787 0.0
H3192 H 0.18054 0.17711 0.8807 0.0
H3193 H 0.21245 0.16087 0.87415 0.0
H3194 H 0.24028 0.21774 0.86841 0.0
C3195 C 0.16928 0.25386 0.87629 0.0
C3196 C 0.14905 0.24964 0.87579 0.0
C3197 C 0.14258 0.23012 0.87892 0.0
C3198 C 0.15619 0.21479 0.88117 0.0
C3199 C 0.17613 0.21934 0.88056 0.0
C3200 C 0.18265 0.23848 0.87853 0.0
C3201 C 0.20469 0.23935 0.87614 0.0
C3202 C 0.21054 0.24968 0.85687 0.0
C3203 C 0.21421 0.24932 0.89403 0.0
C3204 C 0.20945 0.21766 0.87563 0.0
C3205 C 0.1929 0.20634 0.87885 0.0
C3206 C 0.19359 0.18585 0.87838 0.0
C3207 C 0.21164 0.17676 0.87446 0.0
C3208 C 0.22847 0.18818 0.8705 0.0
C3209 C 0.22745 0.20882 0.87133 0.0
H3210 H 0.29917 0.73217 0.33847 0.0
H3211 H 0.30971 0.73735 0.40121 0.0
H3212 H 0.28899 0.70819 0.40707 0.0
H3213 H 0.24959 0.71906 0.3414 0.0
H3214 H 0.25047 0.70187 0.32125 0.0
H3215 H 0.26728 0.72223 0.32197 0.0
H3216 H 0.2965 0.69813 0.31928 0.0
H3217 H 0.27988 0.67755 0.31871 0.0
H3218 H 0.29903 0.67854 0.33694 0.0
H3219 H 0.26592 0.6785 0.40599 0.0
H3220 H 0.2418 0.65231 0.39773 0.0
H3221 H 0.24676 0.66783 0.33626 0.0
C3222 C 0.29729 0.72714 0.35345 0.0
C3223 C 0.30612 0.7371 0.36934 0.0
C3224 C 0.30315 0.72998 0.38873 0.0
C3225 C 0.29144 0.71337 0.39224 0.0
C3226 C 0.28285 0.70398 0.37622 0.0
C3227 C 0.2857 0.71062 0.35721 0.0
C3228 C 0.27433 0.69845 0.34257 0.0
C3229 C 0.25954 0.71116 0.33114 0.0
C3230 C 0.28827 0.68752 0.32855 0.0
C3231 C 0.26411 0.68436 0.35634 0.0
C3232 C 0.2694 0.68745 0.37567 0.0
C3233 C 0.26167 0.676 0.39087 0.0
C3234 C 0.24802 0.6612 0.3861 0.0
C3235 C 0.24204 0.65839 0.36639 0.0
C3236 C 0.25046 0.66997 0.35146 0.0
H3237 H 0.73125 0.35221 0.35175 0.0
H3238 H 0.76478 0.34317 0.40486 0.0
H3239 H 0.74369 0.31455 0.41327 0.0
H3240 H 0.68263 0.33214 0.36702 0.0
H3241 H 0.68 0.32145 0.34292 0.0
H3242 H 0.69407 0.34366 0.34623 0.0
H3243 H 0.72364 0.32444 0.32853 0.0
H3244 H 0.7085 0.30297 0.3272 0.0
H3245 H 0.73193 0.30196 0.33945 0.0
H3246 H 0.72062 0.28449 0.41348 0.0
H3247 H 0.70002 0.25574 0.40483 0.0
H3248 H 0.68705 0.28229 0.34841 0.0
C3249 C 0.73385 0.34448 0.36533 0.0
C3250 C 0.74928 0.35002 0.37785 0.0
C3251 C 0.75253 0.33945 0.39544 0.0
C3252 C 0.74074 0.32311 0.40019 0.0
C3253 C 0.72622 0.31735 0.38687 0.0
C3254 C 0.72296 0.32769 0.36968 0.0
C3255 C 0.70892 0.31704 0.35623 0.0
C3256 C 0.69028 0.32927 0.35288 0.0
C3257 C 0.71882 0.31128 0.33672 0.0
C3258 C 0.7047 0.29905 0.36838 0.0
C3259 C 0.71441 0.29955 0.3862 0.0
C3260 C 0.71292 0.28408 0.39958 0.0
C3261 C 0.70126 0.26779 0.3945 0.0
C3262 C 0.69179 0.26686 0.37594 0.0
C3263 C 0.69373 0.2827 0.3628 0.0
loop_
_geom_bond_atom_site_label_1
_geom_bond_atom_site_label_2
_geom_bond_distance
_geom_bond_site_symmetry_2
_ccdc_geom_bond_type
Mg0 O1 2.028 . S
Mg0 O7 1.986 . S
Mg0 O9 2.114 . S
Mg0 O10 2.251 . S
Mg0 O13 2.010 . S
O1 Mg0 2.028 . S
O1 C4 1.250 . S
O2 Mg3 2.028 . S
O2 C4 1.248 . S
Mg3 O2 2.028 . S
Mg3 O8 2.032 . S
Mg3 O10 2.079 . S
C4 O1 1.250 . S
C4 O2 1.248 . S
C5 O6 1.264 . S
C5 O13 1.249 . S
O6 C5 1.264 . S
O7 Mg0 1.986 . S
O7 C11 1.246 . S
O8 Mg3 2.032 . S
O8 C11 1.259 . S
O9 Mg0 2.114 . S
O9 C12 1.252 . S
O10 Mg0 2.251 . S
O10 Mg3 2.079 . S
O10 C12 1.273 . S
C11 O7 1.246 . S
C11 O8 1.259 . S
C12 O9 1.252 . S
C12 O10 1.273 . S
O13 Mg0 2.010 . S
O13 C5 1.249 . S
Mg14 O15 2.028 . S
Mg14 O21 1.986 . S
Mg14 O23 2.114 . S
Mg14 O24 2.251 . S
Mg14 O27 2.010 . S
O15 Mg14 2.028 . S
O15 C18 1.250 . S
O16 Mg17 2.028 . S
O16 C18 1.248 . S
Mg17 O16 2.028 . S
Mg17 O22 2.032 . S
Mg17 O24 2.079 . S
C18 O15 1.250 . S
C18 O16 1.248 . S
C19 O20 1.264 . S
C19 O27 1.249 . S
O20 C19 1.264 . S
O21 Mg14 1.986 . S
O21 C25 1.246 . S
O22 Mg17 2.032 . S
O22 C25 1.259 . S
O23 Mg14 2.114 . S
O23 C26 1.252 . S
O24 Mg14 2.251 . S
O24 Mg17 2.079 . S
O24 C26 1.273 . S
C25 O21 1.246 . S
C25 O22 1.259 . S
C26 O23 1.252 . S
C26 O24 1.273 . S
O27 Mg14 2.010 . S
O27 C19 1.249 . S
Mg28 O29 2.028 . S
Mg28 O35 1.986 . S
Mg28 O37 2.114 . S
Mg28 O38 2.251 . S
Mg28 O41 2.010 . S
O29 Mg28 2.028 . S
O29 C32 1.250 . S
O30 Mg31 2.028 . S
O30 C32 1.248 . S
Mg31 O30 2.028 . S
Mg31 O36 2.032 . S
Mg31 O38 2.079 . S
C32 O29 1.250 . S
C32 O30 1.248 . S
C33 O34 1.264 . S
C33 O41 1.249 . S
O34 C33 1.264 . S
O35 Mg28 1.986 . S
O35 C39 1.246 . S
O36 Mg31 2.032 . S
O36 C39 1.259 . S
O37 Mg28 2.114 . S
O37 C40 1.252 . S
O38 Mg28 2.251 . S
O38 Mg31 2.079 . S
O38 C40 1.273 . S
C39 O35 1.246 . S
C39 O36 1.259 . S
C40 O37 1.252 . S
C40 O38 1.273 . S
O41 Mg28 2.010 . S
O41 C33 1.249 . S
Mg42 O43 2.028 . S
Mg42 O49 1.986 . S
Mg42 O51 2.114 . S
Mg42 O52 2.251 . S
Mg42 O55 2.010 . S
O43 Mg42 2.028 . S
O43 C46 1.250 . S
O44 Mg45 2.028 . S
O44 C46 1.248 . S
Mg45 O44 2.028 . S
Mg45 O50 2.032 . S
Mg45 O52 2.079 . S
C46 O43 1.250 . S
C46 O44 1.248 . S
C47 O48 1.264 . S
C47 O55 1.249 . S
O48 C47 1.264 . S
O49 Mg42 1.986 . S
O49 C53 1.246 . S
O50 Mg45 2.032 . S
O50 C53 1.259 . S
O51 Mg42 2.114 . S
O51 C54 1.252 . S
O52 Mg42 2.251 . S
O52 Mg45 2.079 . S
O52 C54 1.273 . S
C53 O49 1.246 . S
C53 O50 1.259 . S
C54 O51 1.252 . S
C54 O52 1.273 . S
O55 Mg42 2.010 . S
O55 C47 1.249 . S
Mg56 O57 2.028 . S
Mg56 O63 1.986 . S
Mg56 O65 2.114 . S
Mg56 O66 2.251 . S
Mg56 O69 2.010 . S
O57 Mg56 2.028 . S
O57 C60 1.250 . S
O58 Mg59 2.028 . S
O58 C60 1.248 . S
Mg59 O58 2.028 . S
Mg59 O64 2.032 . S
Mg59 O66 2.079 . S
C60 O57 1.250 . S
C60 O58 1.248 . S
C61 O62 1.264 . S
C61 O69 1.249 . S
O62 C61 1.264 . S
O63 Mg56 1.986 . S
O63 C67 1.246 . S
O64 Mg59 2.032 . S
O64 C67 1.259 . S
O65 Mg56 2.114 . S
O65 C68 1.252 . S
O66 Mg56 2.251 . S
O66 Mg59 2.079 . S
O66 C68 1.273 . S
C67 O63 1.246 . S
C67 O64 1.259 . S
C68 O65 1.252 . S
C68 O66 1.273 . S
O69 Mg56 2.010 . S
O69 C61 1.249 . S
Mg70 O71 2.028 . S
Mg70 O77 1.986 . S
Mg70 O79 2.114 . S
Mg70 O80 2.251 . S
Mg70 O83 2.010 . S
O71 Mg70 2.028 . S
O71 C74 1.250 . S
O72 Mg73 2.028 . S
O72 C74 1.248 . S
Mg73 O72 2.028 . S
Mg73 O78 2.032 . S
Mg73 O80 2.079 . S
C74 O71 1.250 . S
C74 O72 1.248 . S
C75 O76 1.264 . S
C75 O83 1.249 . S
O76 C75 1.264 . S
O77 Mg70 1.986 . S
O77 C81 1.246 . S
O78 Mg73 2.032 . S
O78 C81 1.259 . S
O79 Mg70 2.114 . S
O79 C82 1.252 . S
O80 Mg70 2.251 . S
O80 Mg73 2.079 . S
O80 C82 1.273 . S
C81 O77 1.246 . S
C81 O78 1.259 . S
C82 O79 1.252 . S
C82 O80 1.273 . S
O83 Mg70 2.010 . S
O83 C75 1.249 . S
Mg84 O85 2.028 . S
Mg84 O91 1.986 . S
Mg84 O93 2.114 . S
Mg84 O94 2.251 . S
Mg84 O97 2.010 . S
O85 Mg84 2.028 . S
O85 C88 1.250 . S
O86 Mg87 2.028 . S
O86 C88 1.248 . S
Mg87 O86 2.028 . S
Mg87 O92 2.032 . S
Mg87 O94 2.079 . S
C88 O85 1.250 . S
C88 O86 1.248 . S
C89 O90 1.264 . S
C89 O97 1.249 . S
O90 C89 1.264 . S
O91 Mg84 1.986 . S
O91 C95 1.246 . S
O92 Mg87 2.032 . S
O92 C95 1.259 . S
O93 Mg84 2.114 . S
O93 C96 1.252 . S
O94 Mg84 2.251 . S
O94 Mg87 2.079 . S
O94 C96 1.273 . S
C95 O91 1.246 . S
C95 O92 1.259 . S
C96 O93 1.252 . S
C96 O94 1.273 . S
O97 Mg84 2.010 . S
O97 C89 1.249 . S
Mg98 O99 2.028 . S
Mg98 O105 1.986 . S
Mg98 O107 2.114 . S
Mg98 O108 2.251 . S
Mg98 O111 2.010 . S
O99 Mg98 2.028 . S
O99 C102 1.250 . S
O100 Mg101 2.028 . S
O100 C102 1.248 . S
Mg101 O100 2.028 . S
Mg101 O106 2.032 . S
Mg101 O108 2.079 . S
C102 O99 1.250 . S
C102 O100 1.248 . S
C103 O104 1.264 . S
C103 O111 1.249 . S
O104 C103 1.264 . S
O105 Mg98 1.986 . S
O105 C109 1.246 . S
O106 Mg101 2.032 . S
O106 C109 1.259 . S
O107 Mg98 2.114 . S
O107 C110 1.252 . S
O108 Mg98 2.251 . S
O108 Mg101 2.079 . S
O108 C110 1.273 . S
C109 O105 1.246 . S
C109 O106 1.259 . S
C110 O107 1.252 . S
C110 O108 1.273 . S
O111 Mg98 2.010 . S
O111 C103 1.249 . S
Mg112 O113 2.028 . S
Mg112 O119 1.986 . S
Mg112 O121 2.114 . S
Mg112 O122 2.251 . S
Mg112 O125 2.010 . S
O113 Mg112 2.028 . S
O113 C116 1.250 . S
O114 Mg115 2.028 . S
O114 C116 1.248 . S
Mg115 O114 2.028 . S
Mg115 O120 2.032 . S
Mg115 O122 2.079 . S
C116 O113 1.250 . S
C116 O114 1.248 . S
C117 O118 1.264 . S
C117 O125 1.249 . S
O118 C117 1.264 . S
O119 Mg112 1.986 . S
O119 C123 1.246 . S
O120 Mg115 2.032 . S
O120 C123 1.259 . S
O121 Mg112 2.114 . S
O121 C124 1.252 . S
O122 Mg112 2.251 . S
O122 Mg115 2.079 . S
O122 C124 1.273 . S
C123 O119 1.246 . S
C123 O120 1.259 . S
C124 O121 1.252 . S
C124 O122 1.273 . S
O125 Mg112 2.010 . S
O125 C117 1.249 . S
Mg126 O127 2.028 . S
Mg126 O133 1.986 . S
Mg126 O135 2.114 . S
Mg126 O136 2.251 . S
Mg126 O139 2.010 . S
O127 Mg126 2.028 . S
O127 C130 1.250 . S
O128 Mg129 2.028 . S
O128 C130 1.248 . S
Mg129 O128 2.028 . S
Mg129 O134 2.032 . S
Mg129 O136 2.079 . S
C130 O127 1.250 . S
C130 O128 1.248 . S
C131 O132 1.264 . S
C131 O139 1.249 . S
O132 C131 1.264 . S
O133 Mg126 1.986 . S
O133 C137 1.246 . S
O134 Mg129 2.032 . S
O134 C137 1.259 . S
O135 Mg126 2.114 . S
O135 C138 1.252 . S
O136 Mg126 2.251 . S
O136 Mg129 2.079 . S
O136 C138 1.273 . S
C137 O133 1.246 . S
C137 O134 1.259 . S
C138 O135 1.252 . S
C138 O136 1.273 . S
O139 Mg126 2.010 . S
O139 C131 1.249 . S
Mg140 O141 2.028 . S
Mg140 O147 1.986 . S
Mg140 O149 2.114 . S
Mg140 O150 2.251 . S
Mg140 O153 2.010 . S
O141 Mg140 2.028 . S
O141 C144 1.250 . S
O142 Mg143 2.028 . S
O142 C144 1.248 . S
Mg143 O142 2.028 . S
Mg143 O148 2.032 . S
Mg143 O150 2.079 . S
C144 O141 1.250 . S
C144 O142 1.248 . S
C145 O146 1.264 . S
C145 O153 1.249 . S
O146 C145 1.264 . S
O147 Mg140 1.986 . S
O147 C151 1.246 . S
O148 Mg143 2.032 . S
O148 C151 1.259 . S
O149 Mg140 2.114 . S
O149 C152 1.252 . S
O150 Mg140 2.251 . S
O150 Mg143 2.079 . S
O150 C152 1.273 . S
C151 O147 1.246 . S
C151 O148 1.259 . S
C152 O149 1.252 . S
C152 O150 1.273 . S
O153 Mg140 2.010 . S
O153 C145 1.249 . S
Mg154 O155 2.028 . S
Mg154 O161 1.986 . S
Mg154 O163 2.114 . S
Mg154 O164 2.251 . S
Mg154 O167 2.010 . S
O155 Mg154 2.028 . S
O155 C158 1.250 . S
O156 Mg157 2.028 . S
O156 C158 1.248 . S
Mg157 O156 2.028 . S
Mg157 O162 2.032 . S
Mg157 O164 2.079 . S
C158 O155 1.250 . S
C158 O156 1.248 . S
C159 O160 1.264 . S
C159 O167 1.249 . S
O160 C159 1.264 . S
O161 Mg154 1.986 . S
O161 C165 1.246 . S
O162 Mg157 2.032 . S
O162 C165 1.259 . S
O163 Mg154 2.114 . S
O163 C166 1.252 . S
O164 Mg154 2.251 . S
O164 Mg157 2.079 . S
O164 C166 1.273 . S
C165 O161 1.246 . S
C165 O162 1.259 . S
C166 O163 1.252 . S
C166 O164 1.273 . S
O167 Mg154 2.010 . S
O167 C159 1.249 . S
Mg168 O169 2.028 . S
Mg168 O175 1.986 . S
Mg168 O177 2.114 . S
Mg168 O178 2.251 . S
Mg168 O181 2.010 . S
O169 Mg168 2.028 . S
O169 C172 1.250 . S
O170 Mg171 2.028 . S
O170 C172 1.248 . S
Mg171 O170 2.028 . S
Mg171 O176 2.032 . S
Mg171 O178 2.079 . S
C172 O169 1.250 . S
C172 O170 1.248 . S
C173 O174 1.264 . S
C173 O181 1.249 . S
O174 C173 1.264 . S
O175 Mg168 1.986 . S
O175 C179 1.246 . S
O176 Mg171 2.032 . S
O176 C179 1.259 . S
O177 Mg168 2.114 . S
O177 C180 1.252 . S
O178 Mg168 2.251 . S
O178 Mg171 2.079 . S
O178 C180 1.273 . S
C179 O175 1.246 . S
C179 O176 1.259 . S
C180 O177 1.252 . S
C180 O178 1.273 . S
O181 Mg168 2.010 . S
O181 C173 1.249 . S
Mg182 O183 2.028 . S
Mg182 O189 1.986 . S
Mg182 O191 2.114 . S
Mg182 O192 2.251 . S
Mg182 O195 2.010 . S
O183 Mg182 2.028 . S
O183 C186 1.250 . S
O184 Mg185 2.028 . S
O184 C186 1.248 . S
Mg185 O184 2.028 . S
Mg185 O190 2.032 . S
Mg185 O192 2.079 . S
C186 O183 1.250 . S
C186 O184 1.248 . S
C187 O188 1.264 . S
C187 O195 1.249 . S
O188 C187 1.264 . S
O189 Mg182 1.986 . S
O189 C193 1.246 . S
O190 Mg185 2.032 . S
O190 C193 1.259 . S
O191 Mg182 2.114 . S
O191 C194 1.252 . S
O192 Mg182 2.251 . S
O192 Mg185 2.079 . S
O192 C194 1.273 . S
C193 O189 1.246 . S
C193 O190 1.259 . S
C194 O191 1.252 . S
C194 O192 1.273 . S
O195 Mg182 2.010 . S
O195 C187 1.249 . S
Mg196 O197 2.028 . S
Mg196 O203 1.986 . S
Mg196 O205 2.114 . S
Mg196 O206 2.251 . S
Mg196 O209 2.010 . S
O197 Mg196 2.028 . S
O197 C200 1.250 . S
O198 Mg199 2.028 . S
O198 C200 1.248 . S
Mg199 O198 2.028 . S
Mg199 O204 2.032 . S
Mg199 O206 2.079 . S
C200 O197 1.250 . S
C200 O198 1.248 . S
C201 O202 1.264 . S
C201 O209 1.249 . S
O202 C201 1.264 . S
O203 Mg196 1.986 . S
O203 C207 1.246 . S
O204 Mg199 2.032 . S
O204 C207 1.259 . S
O205 Mg196 2.114 . S
O205 C208 1.252 . S
O206 Mg196 2.251 . S
O206 Mg199 2.079 . S
O206 C208 1.273 . S
C207 O203 1.246 . S
C207 O204 1.259 . S
C208 O205 1.252 . S
C208 O206 1.273 . S
O209 Mg196 2.010 . S
O209 C201 1.249 . S
Mg210 O211 2.028 . S
Mg210 O217 1.986 . S
Mg210 O219 2.114 . S
Mg210 O220 2.251 . S
Mg210 O223 2.010 . S
O211 Mg210 2.028 . S
O211 C214 1.250 . S
O212 Mg213 2.028 . S
O212 C214 1.248 . S
Mg213 O212 2.028 . S
Mg213 O218 2.032 . S
Mg213 O220 2.079 . S
C214 O211 1.250 . S
C214 O212 1.248 . S
C215 O216 1.264 . S
C215 O223 1.249 . S
O216 C215 1.264 . S
O217 Mg210 1.986 . S
O217 C221 1.246 . S
O218 Mg213 2.032 . S
O218 C221 1.259 . S
O219 Mg210 2.114 . S
O219 C222 1.252 . S
O220 Mg210 2.251 . S
O220 Mg213 2.079 . S
O220 C222 1.273 . S
C221 O217 1.246 . S
C221 O218 1.259 . S
C222 O219 1.252 . S
C222 O220 1.273 . S
O223 Mg210 2.010 . S
O223 C215 1.249 . S
Mg224 O225 2.028 . S
Mg224 O231 1.986 . S
Mg224 O233 2.114 . S
Mg224 O234 2.251 . S
Mg224 O237 2.010 . S
O225 Mg224 2.028 . S
O225 C228 1.250 . S
O226 Mg227 2.028 . S
O226 C228 1.248 . S
Mg227 O226 2.028 . S
Mg227 O232 2.032 . S
Mg227 O234 2.079 . S
C228 O225 1.250 . S
C228 O226 1.248 . S
C229 O230 1.264 . S
C229 O237 1.249 . S
O230 C229 1.264 . S
O231 Mg224 1.986 . S
O231 C235 1.246 . S
O232 Mg227 2.032 . S
O232 C235 1.259 . S
O233 Mg224 2.114 . S
O233 C236 1.252 . S
O234 Mg224 2.251 . S
O234 Mg227 2.079 . S
O234 C236 1.273 . S
C235 O231 1.246 . S
C235 O232 1.259 . S
C236 O233 1.252 . S
C236 O234 1.273 . S
O237 Mg224 2.010 . S
O237 C229 1.249 . S
Mg238 O239 2.028 . S
Mg238 O245 1.986 . S
Mg238 O247 2.114 . S
Mg238 O248 2.251 . S
Mg238 O251 2.010 . S
O239 Mg238 2.028 . S
O239 C242 1.250 . S
O240 Mg241 2.028 . S
O240 C242 1.248 . S
Mg241 O240 2.028 . S
Mg241 O246 2.032 . S
Mg241 O248 2.079 . S
C242 O239 1.250 . S
C242 O240 1.248 . S
C243 O244 1.264 . S
C243 O251 1.249 . S
O244 C243 1.264 . S
O245 Mg238 1.986 . S
O245 C249 1.246 . S
O246 Mg241 2.032 . S
O246 C249 1.259 . S
O247 Mg238 2.114 . S
O247 C250 1.252 . S
O248 Mg238 2.251 . S
O248 Mg241 2.079 . S
O248 C250 1.273 . S
C249 O245 1.246 . S
C249 O246 1.259 . S
C250 O247 1.252 . S
C250 O248 1.273 . S
O251 Mg238 2.010 . S
O251 C243 1.249 . S
Mg252 O253 2.028 . S
Mg252 O259 1.986 . S
Mg252 O261 2.114 . S
Mg252 O262 2.251 . S
Mg252 O265 2.010 . S
O253 Mg252 2.028 . S
O253 C256 1.250 . S
O254 Mg255 2.028 . S
O254 C256 1.248 . S
Mg255 O254 2.028 . S
Mg255 O260 2.032 . S
Mg255 O262 2.079 . S
C256 O253 1.250 . S
C256 O254 1.248 . S
C257 O258 1.264 . S
C257 O265 1.249 . S
O258 C257 1.264 . S
O259 Mg252 1.986 . S
O259 C263 1.246 . S
O260 Mg255 2.032 . S
O260 C263 1.259 . S
O261 Mg252 2.114 . S
O261 C264 1.252 . S
O262 Mg252 2.251 . S
O262 Mg255 2.079 . S
O262 C264 1.273 . S
C263 O259 1.246 . S
C263 O260 1.259 . S
C264 O261 1.252 . S
C264 O262 1.273 . S
O265 Mg252 2.010 . S
O265 C257 1.249 . S
Mg266 O267 2.028 . S
Mg266 O273 1.986 . S
Mg266 O275 2.114 . S
Mg266 O276 2.251 . S
Mg266 O279 2.010 . S
O267 Mg266 2.028 . S
O267 C270 1.250 . S
O268 Mg269 2.028 . S
O268 C270 1.248 . S
Mg269 O268 2.028 . S
Mg269 O274 2.032 . S
Mg269 O276 2.079 . S
C270 O267 1.250 . S
C270 O268 1.248 . S
C271 O272 1.264 . S
C271 O279 1.249 . S
O272 C271 1.264 . S
O273 Mg266 1.986 . S
O273 C277 1.246 . S
O274 Mg269 2.032 . S
O274 C277 1.259 . S
O275 Mg266 2.114 . S
O275 C278 1.252 . S
O276 Mg266 2.251 . S
O276 Mg269 2.079 . S
O276 C278 1.273 . S
C277 O273 1.246 . S
C277 O274 1.259 . S
C278 O275 1.252 . S
C278 O276 1.273 . S
O279 Mg266 2.010 . S
O279 C271 1.249 . S
Mg280 O281 2.028 . S
Mg280 O287 1.986 . S
Mg280 O289 2.114 . S
Mg280 O290 2.251 . S
Mg280 O293 2.010 . S
O281 Mg280 2.028 . S
O281 C284 1.250 . S
O282 Mg283 2.028 . S
O282 C284 1.248 . S
Mg283 O282 2.028 . S
Mg283 O288 2.032 . S
Mg283 O290 2.079 . S
C284 O281 1.250 . S
C284 O282 1.248 . S
C285 O286 1.264 . S
C285 O293 1.249 . S
O286 C285 1.264 . S
O287 Mg280 1.986 . S
O287 C291 1.246 . S
O288 Mg283 2.032 . S
O288 C291 1.259 . S
O289 Mg280 2.114 . S
O289 C292 1.252 . S
O290 Mg280 2.251 . S
O290 Mg283 2.079 . S
O290 C292 1.273 . S
C291 O287 1.246 . S
C291 O288 1.259 . S
C292 O289 1.252 . S
C292 O290 1.273 . S
O293 Mg280 2.010 . S
O293 C285 1.249 . S
Mg294 O295 2.028 . S
Mg294 O301 1.986 . S
Mg294 O303 2.114 . S
Mg294 O304 2.251 . S
Mg294 O307 2.010 . S
O295 Mg294 2.028 . S
O295 C298 1.250 . S
O296 Mg297 2.028 . S
O296 C298 1.248 . S
Mg297 O296 2.028 . S
Mg297 O302 2.032 . S
Mg297 O304 2.079 . S
C298 O295 1.250 . S
C298 O296 1.248 . S
C299 O300 1.264 . S
C299 O307 1.249 . S
O300 C299 1.264 . S
O301 Mg294 1.986 . S
O301 C305 1.246 . S
O302 Mg297 2.032 . S
O302 C305 1.259 . S
O303 Mg294 2.114 . S
O303 C306 1.252 . S
O304 Mg294 2.251 . S
O304 Mg297 2.079 . S
O304 C306 1.273 . S
C305 O301 1.246 . S
C305 O302 1.259 . S
C306 O303 1.252 . S
C306 O304 1.273 . S
O307 Mg294 2.010 . S
O307 C299 1.249 . S
Mg308 O309 2.028 . S
Mg308 O315 1.986 . S
Mg308 O317 2.114 . S
Mg308 O318 2.251 . S
Mg308 O321 2.010 . S
O309 Mg308 2.028 . S
O309 C312 1.250 . S
O310 Mg311 2.028 . S
O310 C312 1.248 . S
Mg311 O310 2.028 . S
Mg311 O316 2.032 . S
Mg311 O318 2.079 . S
C312 O309 1.250 . S
C312 O310 1.248 . S
C313 O314 1.264 . S
C313 O321 1.249 . S
O314 C313 1.264 . S
O315 Mg308 1.986 . S
O315 C319 1.246 . S
O316 Mg311 2.032 . S
O316 C319 1.259 . S
O317 Mg308 2.114 . S
O317 C320 1.252 . S
O318 Mg308 2.251 . S
O318 Mg311 2.079 . S
O318 C320 1.273 . S
C319 O315 1.246 . S
C319 O316 1.259 . S
C320 O317 1.252 . S
C320 O318 1.273 . S
O321 Mg308 2.010 . S
O321 C313 1.249 . S
Mg322 O323 2.028 . S
Mg322 O329 1.986 . S
Mg322 O331 2.114 . S
Mg322 O332 2.251 . S
Mg322 O335 2.010 . S
O323 Mg322 2.028 . S
O323 C326 1.250 . S
O324 Mg325 2.028 . S
O324 C326 1.248 . S
Mg325 O324 2.028 . S
Mg325 O330 2.032 . S
Mg325 O332 2.079 . S
C326 O323 1.250 . S
C326 O324 1.248 . S
C327 O328 1.264 . S
C327 O335 1.249 . S
O328 C327 1.264 . S
O329 Mg322 1.986 . S
O329 C333 1.246 . S
O330 Mg325 2.032 . S
O330 C333 1.259 . S
O331 Mg322 2.114 . S
O331 C334 1.252 . S
O332 Mg322 2.251 . S
O332 Mg325 2.079 . S
O332 C334 1.273 . S
C333 O329 1.246 . S
C333 O330 1.259 . S
C334 O331 1.252 . S
C334 O332 1.273 . S
O335 Mg322 2.010 . S
O335 C327 1.249 . S
Mg336 O337 2.028 . S
Mg336 O343 1.986 . S
Mg336 O345 2.114 . S
Mg336 O346 2.251 . S
Mg336 O349 2.010 . S
O337 Mg336 2.028 . S
O337 C340 1.250 . S
O338 Mg339 2.028 . S
O338 C340 1.248 . S
Mg339 O338 2.028 . S
Mg339 O344 2.032 . S
Mg339 O346 2.079 . S
C340 O337 1.250 . S
C340 O338 1.248 . S
C341 O342 1.264 . S
C341 O349 1.249 . S
O342 C341 1.264 . S
O343 Mg336 1.986 . S
O343 C347 1.246 . S
O344 Mg339 2.032 . S
O344 C347 1.259 . S
O345 Mg336 2.114 . S
O345 C348 1.252 . S
O346 Mg336 2.251 . S
O346 Mg339 2.079 . S
O346 C348 1.273 . S
C347 O343 1.246 . S
C347 O344 1.259 . S
C348 O345 1.252 . S
C348 O346 1.273 . S
O349 Mg336 2.010 . S
O349 C341 1.249 . S
Mg350 O351 2.028 . S
Mg350 O357 1.986 . S
Mg350 O359 2.114 . S
Mg350 O360 2.251 . S
Mg350 O363 2.010 . S
O351 Mg350 2.028 . S
O351 C354 1.250 . S
O352 Mg353 2.028 . S
O352 C354 1.248 . S
Mg353 O352 2.028 . S
Mg353 O358 2.032 . S
Mg353 O360 2.079 . S
C354 O351 1.250 . S
C354 O352 1.248 . S
C355 O356 1.264 . S
C355 O363 1.249 . S
O356 C355 1.264 . S
O357 Mg350 1.986 . S
O357 C361 1.246 . S
O358 Mg353 2.032 . S
O358 C361 1.259 . S
O359 Mg350 2.114 . S
O359 C362 1.252 . S
O360 Mg350 2.251 . S
O360 Mg353 2.079 . S
O360 C362 1.273 . S
C361 O357 1.246 . S
C361 O358 1.259 . S
C362 O359 1.252 . S
C362 O360 1.273 . S
O363 Mg350 2.010 . S
O363 C355 1.249 . S
Mg364 O365 2.028 . S
Mg364 O371 1.986 . S
Mg364 O373 2.114 . S
Mg364 O374 2.251 . S
Mg364 O377 2.010 . S
O365 Mg364 2.028 . S
O365 C368 1.250 . S
O366 Mg367 2.028 . S
O366 C368 1.248 . S
Mg367 O366 2.028 . S
Mg367 O372 2.032 . S
Mg367 O374 2.079 . S
C368 O365 1.250 . S
C368 O366 1.248 . S
C369 O370 1.264 . S
C369 O377 1.249 . S
O370 C369 1.264 . S
O371 Mg364 1.986 . S
O371 C375 1.246 . S
O372 Mg367 2.032 . S
O372 C375 1.259 . S
O373 Mg364 2.114 . S
O373 C376 1.252 . S
O374 Mg364 2.251 . S
O374 Mg367 2.079 . S
O374 C376 1.273 . S
C375 O371 1.246 . S
C375 O372 1.259 . S
C376 O373 1.252 . S
C376 O374 1.273 . S
O377 Mg364 2.010 . S
O377 C369 1.249 . S
Mg378 O379 2.028 . S
Mg378 O385 1.986 . S
Mg378 O387 2.114 . S
Mg378 O388 2.251 . S
Mg378 O391 2.010 . S
O379 Mg378 2.028 . S
O379 C382 1.250 . S
O380 Mg381 2.028 . S
O380 C382 1.248 . S
Mg381 O380 2.028 . S
Mg381 O386 2.032 . S
Mg381 O388 2.079 . S
C382 O379 1.250 . S
C382 O380 1.248 . S
C383 O384 1.264 . S
C383 O391 1.249 . S
O384 C383 1.264 . S
O385 Mg378 1.986 . S
O385 C389 1.246 . S
O386 Mg381 2.032 . S
O386 C389 1.259 . S
O387 Mg378 2.114 . S
O387 C390 1.252 . S
O388 Mg378 2.251 . S
O388 Mg381 2.079 . S
O388 C390 1.273 . S
C389 O385 1.246 . S
C389 O386 1.259 . S
C390 O387 1.252 . S
C390 O388 1.273 . S
O391 Mg378 2.010 . S
O391 C383 1.249 . S
Mg392 O393 2.028 . S
Mg392 O399 1.986 . S
Mg392 O401 2.114 . S
Mg392 O402 2.251 . S
Mg392 O405 2.010 . S
O393 Mg392 2.028 . S
O393 C396 1.250 . S
O394 Mg395 2.028 . S
O394 C396 1.248 . S
Mg395 O394 2.028 . S
Mg395 O400 2.032 . S
Mg395 O402 2.079 . S
C396 O393 1.250 . S
C396 O394 1.248 . S
C397 O398 1.264 . S
C397 O405 1.249 . S
O398 C397 1.264 . S
O399 Mg392 1.986 . S
O399 C403 1.246 . S
O400 Mg395 2.032 . S
O400 C403 1.259 . S
O401 Mg392 2.114 . S
O401 C404 1.252 . S
O402 Mg392 2.251 . S
O402 Mg395 2.079 . S
O402 C404 1.273 . S
C403 O399 1.246 . S
C403 O400 1.259 . S
C404 O401 1.252 . S
C404 O402 1.273 . S
O405 Mg392 2.010 . S
O405 C397 1.249 . S
Mg406 O407 2.028 . S
Mg406 O413 1.986 . S
Mg406 O415 2.114 . S
Mg406 O416 2.251 . S
Mg406 O419 2.010 . S
O407 Mg406 2.028 . S
O407 C410 1.250 . S
O408 Mg409 2.028 . S
O408 C410 1.248 . S
Mg409 O408 2.028 . S
Mg409 O414 2.032 . S
Mg409 O416 2.079 . S
C410 O407 1.250 . S
C410 O408 1.248 . S
C411 O412 1.264 . S
C411 O419 1.249 . S
O412 C411 1.264 . S
O413 Mg406 1.986 . S
O413 C417 1.246 . S
O414 Mg409 2.032 . S
O414 C417 1.259 . S
O415 Mg406 2.114 . S
O415 C418 1.252 . S
O416 Mg406 2.251 . S
O416 Mg409 2.079 . S
O416 C418 1.273 . S
C417 O413 1.246 . S
C417 O414 1.259 . S
C418 O415 1.252 . S
C418 O416 1.273 . S
O419 Mg406 2.010 . S
O419 C411 1.249 . S
Mg420 O421 2.028 . S
Mg420 O427 1.986 . S
Mg420 O429 2.114 . S
Mg420 O430 2.251 . S
Mg420 O433 2.010 . S
O421 Mg420 2.028 . S
O421 C424 1.250 . S
O422 Mg423 2.028 . S
O422 C424 1.248 . S
Mg423 O422 2.028 . S
Mg423 O428 2.032 . S
Mg423 O430 2.079 . S
C424 O421 1.250 . S
C424 O422 1.248 . S
C425 O426 1.264 . S
C425 O433 1.249 . S
O426 C425 1.264 . S
O427 Mg420 1.986 . S
O427 C431 1.246 . S
O428 Mg423 2.032 . S
O428 C431 1.259 . S
O429 Mg420 2.114 . S
O429 C432 1.252 . S
O430 Mg420 2.251 . S
O430 Mg423 2.079 . S
O430 C432 1.273 . S
C431 O427 1.246 . S
C431 O428 1.259 . S
C432 O429 1.252 . S
C432 O430 1.273 . S
O433 Mg420 2.010 . S
O433 C425 1.249 . S
Mg434 O435 2.028 . S
Mg434 O441 1.986 . S
Mg434 O443 2.114 . S
Mg434 O444 2.251 . S
Mg434 O447 2.010 . S
O435 Mg434 2.028 . S
O435 C438 1.250 . S
O436 Mg437 2.028 . S
O436 C438 1.248 . S
Mg437 O436 2.028 . S
Mg437 O442 2.032 . S
Mg437 O444 2.079 . S
C438 O435 1.250 . S
C438 O436 1.248 . S
C439 O440 1.264 . S
C439 O447 1.249 . S
O440 C439 1.264 . S
O441 Mg434 1.986 . S
O441 C445 1.246 . S
O442 Mg437 2.032 . S
O442 C445 1.259 . S
O443 Mg434 2.114 . S
O443 C446 1.252 . S
O444 Mg434 2.251 . S
O444 Mg437 2.079 . S
O444 C446 1.273 . S
C445 O441 1.246 . S
C445 O442 1.259 . S
C446 O443 1.252 . S
C446 O444 1.273 . S
O447 Mg434 2.010 . S
O447 C439 1.249 . S
Mg448 O449 2.028 . S
Mg448 O455 1.986 . S
Mg448 O457 2.114 . S
Mg448 O458 2.251 . S
Mg448 O461 2.010 . S
O449 Mg448 2.028 . S
O449 C452 1.250 . S
O450 Mg451 2.028 . S
O450 C452 1.248 . S
Mg451 O450 2.028 . S
Mg451 O456 2.032 . S
Mg451 O458 2.079 . S
C452 O449 1.250 . S
C452 O450 1.248 . S
C453 O454 1.264 . S
C453 O461 1.249 . S
O454 C453 1.264 . S
O455 Mg448 1.986 . S
O455 C459 1.246 . S
O456 Mg451 2.032 . S
O456 C459 1.259 . S
O457 Mg448 2.114 . S
O457 C460 1.252 . S
O458 Mg448 2.251 . S
O458 Mg451 2.079 . S
O458 C460 1.273 . S
C459 O455 1.246 . S
C459 O456 1.259 . S
C460 O457 1.252 . S
C460 O458 1.273 . S
O461 Mg448 2.010 . S
O461 C453 1.249 . S
Mg462 O463 2.028 . S
Mg462 O469 1.986 . S
Mg462 O471 2.114 . S
Mg462 O472 2.251 . S
Mg462 O475 2.010 . S
O463 Mg462 2.028 . S
O463 C466 1.250 . S
O464 Mg465 2.028 . S
O464 C466 1.248 . S
Mg465 O464 2.028 . S
Mg465 O470 2.032 . S
Mg465 O472 2.079 . S
C466 O463 1.250 . S
C466 O464 1.248 . S
C467 O468 1.264 . S
C467 O475 1.249 . S
O468 C467 1.264 . S
O469 Mg462 1.986 . S
O469 C473 1.246 . S
O470 Mg465 2.032 . S
O470 C473 1.259 . S
O471 Mg462 2.114 . S
O471 C474 1.252 . S
O472 Mg462 2.251 . S
O472 Mg465 2.079 . S
O472 C474 1.273 . S
C473 O469 1.246 . S
C473 O470 1.259 . S
C474 O471 1.252 . S
C474 O472 1.273 . S
O475 Mg462 2.010 . S
O475 C467 1.249 . S
Mg476 O477 2.028 . S
Mg476 O483 1.986 . S
Mg476 O485 2.114 . S
Mg476 O486 2.251 . S
Mg476 O489 2.010 . S
O477 Mg476 2.028 . S
O477 C480 1.250 . S
O478 Mg479 2.028 . S
O478 C480 1.248 . S
Mg479 O478 2.028 . S
Mg479 O484 2.032 . S
Mg479 O486 2.079 . S
C480 O477 1.250 . S
C480 O478 1.248 . S
C481 O482 1.264 . S
C481 O489 1.249 . S
O482 C481 1.264 . S
O483 Mg476 1.986 . S
O483 C487 1.246 . S
O484 Mg479 2.032 . S
O484 C487 1.259 . S
O485 Mg476 2.114 . S
O485 C488 1.252 . S
O486 Mg476 2.251 . S
O486 Mg479 2.079 . S
O486 C488 1.273 . S
C487 O483 1.246 . S
C487 O484 1.259 . S
C488 O485 1.252 . S
C488 O486 1.273 . S
O489 Mg476 2.010 . S
O489 C481 1.249 . S
Mg490 O491 2.028 . S
Mg490 O497 1.986 . S
Mg490 O499 2.114 . S
Mg490 O500 2.251 . S
Mg490 O503 2.010 . S
O491 Mg490 2.028 . S
O491 C494 1.250 . S
O492 Mg493 2.028 . S
O492 C494 1.248 . S
Mg493 O492 2.028 . S
Mg493 O498 2.032 . S
Mg493 O500 2.079 . S
C494 O491 1.250 . S
C494 O492 1.248 . S
C495 O496 1.264 . S
C495 O503 1.249 . S
O496 C495 1.264 . S
O497 Mg490 1.986 . S
O497 C501 1.246 . S
O498 Mg493 2.032 . S
O498 C501 1.259 . S
O499 Mg490 2.114 . S
O499 C502 1.252 . S
O500 Mg490 2.251 . S
O500 Mg493 2.079 . S
O500 C502 1.273 . S
C501 O497 1.246 . S
C501 O498 1.259 . S
C502 O499 1.252 . S
C502 O500 1.273 . S
O503 Mg490 2.010 . S
O503 C495 1.249 . S
Mg504 O505 2.028 . S
Mg504 O511 1.986 . S
Mg504 O513 2.114 . S
Mg504 O514 2.251 . S
Mg504 O517 2.010 . S
O505 Mg504 2.028 . S
O505 C508 1.250 . S
O506 Mg507 2.028 . S
O506 C508 1.248 . S
Mg507 O506 2.028 . S
Mg507 O512 2.032 . S
Mg507 O514 2.079 . S
C508 O505 1.250 . S
C508 O506 1.248 . S
C509 O510 1.264 . S
C509 O517 1.249 . S
O510 C509 1.264 . S
O511 Mg504 1.986 . S
O511 C515 1.246 . S
O512 Mg507 2.032 . S
O512 C515 1.259 . S
O513 Mg504 2.114 . S
O513 C516 1.252 . S
O514 Mg504 2.251 . S
O514 Mg507 2.079 . S
O514 C516 1.273 . S
C515 O511 1.246 . S
C515 O512 1.259 . S
C516 O513 1.252 . S
C516 O514 1.273 . S
O517 Mg504 2.010 . S
O517 C509 1.249 . S
Mg518 O519 2.028 . S
Mg518 O525 1.986 . S
Mg518 O527 2.114 . S
Mg518 O528 2.251 . S
Mg518 O531 2.010 . S
O519 Mg518 2.028 . S
O519 C522 1.250 . S
O520 Mg521 2.028 . S
O520 C522 1.248 . S
Mg521 O520 2.028 . S
Mg521 O526 2.032 . S
Mg521 O528 2.079 . S
C522 O519 1.250 . S
C522 O520 1.248 . S
C523 O524 1.264 . S
C523 O531 1.249 . S
O524 C523 1.264 . S
O525 Mg518 1.986 . S
O525 C529 1.246 . S
O526 Mg521 2.032 . S
O526 C529 1.259 . S
O527 Mg518 2.114 . S
O527 C530 1.252 . S
O528 Mg518 2.251 . S
O528 Mg521 2.079 . S
O528 C530 1.273 . S
C529 O525 1.246 . S
C529 O526 1.259 . S
C530 O527 1.252 . S
C530 O528 1.273 . S
O531 Mg518 2.010 . S
O531 C523 1.249 . S
Mg532 O533 2.028 . S
Mg532 O539 1.986 . S
Mg532 O541 2.114 . S
Mg532 O542 2.251 . S
Mg532 O545 2.010 . S
O533 Mg532 2.028 . S
O533 C536 1.250 . S
O534 Mg535 2.028 . S
O534 C536 1.248 . S
Mg535 O534 2.028 . S
Mg535 O540 2.032 . S
Mg535 O542 2.079 . S
C536 O533 1.250 . S
C536 O534 1.248 . S
C537 O538 1.264 . S
C537 O545 1.249 . S
O538 C537 1.264 . S
O539 Mg532 1.986 . S
O539 C543 1.246 . S
O540 Mg535 2.032 . S
O540 C543 1.259 . S
O541 Mg532 2.114 . S
O541 C544 1.252 . S
O542 Mg532 2.251 . S
O542 Mg535 2.079 . S
O542 C544 1.273 . S
C543 O539 1.246 . S
C543 O540 1.259 . S
C544 O541 1.252 . S
C544 O542 1.273 . S
O545 Mg532 2.010 . S
O545 C537 1.249 . S
Mg546 O547 2.028 . S
Mg546 O553 1.986 . S
Mg546 O555 2.114 . S
Mg546 O556 2.251 . S
Mg546 O559 2.010 . S
O547 Mg546 2.028 . S
O547 C550 1.250 . S
O548 Mg549 2.028 . S
O548 C550 1.248 . S
Mg549 O548 2.028 . S
Mg549 O554 2.032 . S
Mg549 O556 2.079 . S
C550 O547 1.250 . S
C550 O548 1.248 . S
C551 O552 1.264 . S
C551 O559 1.249 . S
O552 C551 1.264 . S
O553 Mg546 1.986 . S
O553 C557 1.246 . S
O554 Mg549 2.032 . S
O554 C557 1.259 . S
O555 Mg546 2.114 . S
O555 C558 1.252 . S
O556 Mg546 2.251 . S
O556 Mg549 2.079 . S
O556 C558 1.273 . S
C557 O553 1.246 . S
C557 O554 1.259 . S
C558 O555 1.252 . S
C558 O556 1.273 . S
O559 Mg546 2.010 . S
O559 C551 1.249 . S
Mg560 O561 2.028 . S
Mg560 O567 1.986 . S
Mg560 O569 2.114 . S
Mg560 O570 2.251 . S
Mg560 O573 2.010 . S
O561 Mg560 2.028 . S
O561 C564 1.250 . S
O562 Mg563 2.028 . S
O562 C564 1.248 . S
Mg563 O562 2.028 . S
Mg563 O568 2.032 . S
Mg563 O570 2.079 . S
C564 O561 1.250 . S
C564 O562 1.248 . S
C565 O566 1.264 . S
C565 O573 1.249 . S
O566 C565 1.264 . S
O567 Mg560 1.986 . S
O567 C571 1.246 . S
O568 Mg563 2.032 . S
O568 C571 1.259 . S
O569 Mg560 2.114 . S
O569 C572 1.252 . S
O570 Mg560 2.251 . S
O570 Mg563 2.079 . S
O570 C572 1.273 . S
C571 O567 1.246 . S
C571 O568 1.259 . S
C572 O569 1.252 . S
C572 O570 1.273 . S
O573 Mg560 2.010 . S
O573 C565 1.249 . S
Mg574 O575 2.028 . S
Mg574 O581 1.986 . S
Mg574 O583 2.114 . S
Mg574 O584 2.251 . S
Mg574 O587 2.010 . S
O575 Mg574 2.028 . S
O575 C578 1.250 . S
O576 Mg577 2.028 . S
O576 C578 1.248 . S
Mg577 O576 2.028 . S
Mg577 O582 2.032 . S
Mg577 O584 2.079 . S
C578 O575 1.250 . S
C578 O576 1.248 . S
C579 O580 1.264 . S
C579 O587 1.249 . S
O580 C579 1.264 . S
O581 Mg574 1.986 . S
O581 C585 1.246 . S
O582 Mg577 2.032 . S
O582 C585 1.259 . S
O583 Mg574 2.114 . S
O583 C586 1.252 . S
O584 Mg574 2.251 . S
O584 Mg577 2.079 . S
O584 C586 1.273 . S
C585 O581 1.246 . S
C585 O582 1.259 . S
C586 O583 1.252 . S
C586 O584 1.273 . S
O587 Mg574 2.010 . S
O587 C579 1.249 . S
Mg588 O589 2.028 . S
Mg588 O595 1.986 . S
Mg588 O597 2.114 . S
Mg588 O598 2.251 . S
Mg588 O601 2.010 . S
O589 Mg588 2.028 . S
O589 C592 1.250 . S
O590 Mg591 2.028 . S
O590 C592 1.248 . S
Mg591 O590 2.028 . S
Mg591 O596 2.032 . S
Mg591 O598 2.079 . S
C592 O589 1.250 . S
C592 O590 1.248 . S
C593 O594 1.264 . S
C593 O601 1.249 . S
O594 C593 1.264 . S
O595 Mg588 1.986 . S
O595 C599 1.246 . S
O596 Mg591 2.032 . S
O596 C599 1.259 . S
O597 Mg588 2.114 . S
O597 C600 1.252 . S
O598 Mg588 2.251 . S
O598 Mg591 2.079 . S
O598 C600 1.273 . S
C599 O595 1.246 . S
C599 O596 1.259 . S
C600 O597 1.252 . S
C600 O598 1.273 . S
O601 Mg588 2.010 . S
O601 C593 1.249 . S
Mg602 O603 2.028 . S
Mg602 O609 1.986 . S
Mg602 O611 2.114 . S
Mg602 O612 2.251 . S
Mg602 O615 2.010 . S
O603 Mg602 2.028 . S
O603 C606 1.250 . S
O604 Mg605 2.028 . S
O604 C606 1.248 . S
Mg605 O604 2.028 . S
Mg605 O610 2.032 . S
Mg605 O612 2.079 . S
C606 O603 1.250 . S
C606 O604 1.248 . S
C607 O608 1.264 . S
C607 O615 1.249 . S
O608 C607 1.264 . S
O609 Mg602 1.986 . S
O609 C613 1.246 . S
O610 Mg605 2.032 . S
O610 C613 1.259 . S
O611 Mg602 2.114 . S
O611 C614 1.252 . S
O612 Mg602 2.251 . S
O612 Mg605 2.079 . S
O612 C614 1.273 . S
C613 O609 1.246 . S
C613 O610 1.259 . S
C614 O611 1.252 . S
C614 O612 1.273 . S
O615 Mg602 2.010 . S
O615 C607 1.249 . S
Mg616 O617 2.028 . S
Mg616 O623 1.986 . S
Mg616 O625 2.114 . S
Mg616 O626 2.251 . S
Mg616 O629 2.010 . S
O617 Mg616 2.028 . S
O617 C620 1.250 . S
O618 Mg619 2.028 . S
O618 C620 1.248 . S
Mg619 O618 2.028 . S
Mg619 O624 2.032 . S
Mg619 O626 2.079 . S
C620 O617 1.250 . S
C620 O618 1.248 . S
C621 O622 1.264 . S
C621 O629 1.249 . S
O622 C621 1.264 . S
O623 Mg616 1.986 . S
O623 C627 1.246 . S
O624 Mg619 2.032 . S
O624 C627 1.259 . S
O625 Mg616 2.114 . S
O625 C628 1.252 . S
O626 Mg616 2.251 . S
O626 Mg619 2.079 . S
O626 C628 1.273 . S
C627 O623 1.246 . S
C627 O624 1.259 . S
C628 O625 1.252 . S
C628 O626 1.273 . S
O629 Mg616 2.010 . S
O629 C621 1.249 . S
Mg630 O631 2.028 . S
Mg630 O637 1.986 . S
Mg630 O639 2.114 . S
Mg630 O640 2.251 . S
Mg630 O643 2.010 . S
O631 Mg630 2.028 . S
O631 C634 1.250 . S
O632 Mg633 2.028 . S
O632 C634 1.248 . S
Mg633 O632 2.028 . S
Mg633 O638 2.032 . S
Mg633 O640 2.079 . S
C634 O631 1.250 . S
C634 O632 1.248 . S
C635 O636 1.264 . S
C635 O643 1.249 . S
O636 C635 1.264 . S
O637 Mg630 1.986 . S
O637 C641 1.246 . S
O638 Mg633 2.032 . S
O638 C641 1.259 . S
O639 Mg630 2.114 . S
O639 C642 1.252 . S
O640 Mg630 2.251 . S
O640 Mg633 2.079 . S
O640 C642 1.273 . S
C641 O637 1.246 . S
C641 O638 1.259 . S
C642 O639 1.252 . S
C642 O640 1.273 . S
O643 Mg630 2.010 . S
O643 C635 1.249 . S
Mg644 O645 2.028 . S
Mg644 O651 1.986 . S
Mg644 O653 2.114 . S
Mg644 O654 2.251 . S
Mg644 O657 2.010 . S
O645 Mg644 2.028 . S
O645 C648 1.250 . S
O646 Mg647 2.028 . S
O646 C648 1.248 . S
Mg647 O646 2.028 . S
Mg647 O652 2.032 . S
Mg647 O654 2.079 . S
C648 O645 1.250 . S
C648 O646 1.248 . S
C649 O650 1.264 . S
C649 O657 1.249 . S
O650 C649 1.264 . S
O651 Mg644 1.986 . S
O651 C655 1.246 . S
O652 Mg647 2.032 . S
O652 C655 1.259 . S
O653 Mg644 2.114 . S
O653 C656 1.252 . S
O654 Mg644 2.251 . S
O654 Mg647 2.079 . S
O654 C656 1.273 . S
C655 O651 1.246 . S
C655 O652 1.259 . S
C656 O653 1.252 . S
C656 O654 1.273 . S
O657 Mg644 2.010 . S
O657 C649 1.249 . S
Mg658 O659 2.028 . S
Mg658 O665 1.986 . S
Mg658 O667 2.114 . S
Mg658 O668 2.251 . S
Mg658 O671 2.010 . S
O659 Mg658 2.028 . S
O659 C662 1.250 . S
O660 Mg661 2.028 . S
O660 C662 1.248 . S
Mg661 O660 2.028 . S
Mg661 O666 2.032 . S
Mg661 O668 2.079 . S
C662 O659 1.250 . S
C662 O660 1.248 . S
C663 O664 1.264 . S
C663 O671 1.249 . S
O664 C663 1.264 . S
O665 Mg658 1.986 . S
O665 C669 1.246 . S
O666 Mg661 2.032 . S
O666 C669 1.259 . S
O667 Mg658 2.114 . S
O667 C670 1.252 . S
O668 Mg658 2.251 . S
O668 Mg661 2.079 . S
O668 C670 1.273 . S
C669 O665 1.246 . S
C669 O666 1.259 . S
C670 O667 1.252 . S
C670 O668 1.273 . S
O671 Mg658 2.010 . S
O671 C663 1.249 . S
H672 C684 0.930 . S
H673 C686 0.930 . S
H674 C687 0.930 . S
H675 C691 0.962 . S
H676 C691 0.978 . S
H677 C691 0.940 1_655 S
H678 C692 0.959 1_655 S
H679 C692 0.962 . S
H680 C692 0.959 . S
H681 C695 0.929 . S
H682 C696 0.931 . S
H683 C698 0.930 . S
C684 H672 0.930 . S
C684 C685 1.399 . S
C684 C689 1.399 . S
C685 C684 1.399 . S
C685 C686 1.376 . S
C686 H673 0.930 . S
C686 C685 1.376 . S
C686 C687 1.388 . S
C687 H674 0.930 . S
C687 C686 1.388 . S
C687 C688 1.390 . S
C688 C687 1.390 . S
C688 C689 1.394 . S
C688 C694 1.465 1_655 S
C689 C684 1.399 . S
C689 C688 1.394 . S
C689 C690 1.518 1_655 S
C690 C689 1.518 1_455 S
C690 C691 1.502 . S
C690 C692 1.561 . S
C690 C693 1.524 . S
C691 H675 0.962 . S
C691 H676 0.978 . S
C691 H677 0.940 1_455 S
C691 C690 1.502 . S
C692 H678 0.959 1_455 S
C692 H679 0.962 . S
C692 H680 0.959 . S
C692 C690 1.561 . S
C693 C690 1.524 . S
C693 C694 1.396 . S
C693 C698 1.390 . S
C694 C688 1.465 1_455 S
C694 C693 1.396 . S
C694 C695 1.399 . S
C695 H681 0.929 . S
C695 C694 1.399 . S
C695 C696 1.385 . S
C696 H682 0.931 . S
C696 C695 1.385 . S
C696 C697 1.389 . S
C697 C696 1.389 . S
C697 C698 1.387 . S
C698 H683 0.930 . S
C698 C693 1.390 . S
C698 C697 1.387 . S
H699 C711 0.930 . S
H700 C713 0.930 . S
H701 C714 0.930 . S
H702 C718 0.959 . S
H703 C718 0.959 . S
H704 C718 0.961 . S
H705 C719 0.960 . S
H706 C719 0.961 . S
H707 C719 0.959 . S
H708 C722 0.929 . S
H709 C723 0.931 . S
H710 C725 0.930 . S
C711 H699 0.930 . S
C711 C712 1.399 . S
C711 C716 1.399 . S
C712 C711 1.399 . S
C712 C713 1.376 . S
C713 H700 0.930 . S
C713 C712 1.376 . S
C713 C714 1.388 . S
C714 H701 0.930 . S
C714 C713 1.388 . S
C714 C715 1.390 . S
C715 C714 1.390 . S
C715 C716 1.394 . S
C715 C721 1.465 . S
C716 C711 1.399 . S
C716 C715 1.394 . S
C716 C717 1.516 . S
C717 C716 1.516 . S
C717 C718 1.502 . S
C717 C719 1.561 . S
C717 C720 1.526 . S
C718 H702 0.959 . S
C718 H703 0.959 . S
C718 H704 0.961 . S
C718 C717 1.502 . S
C719 H705 0.960 . S
C719 H706 0.961 . S
C719 H707 0.959 . S
C719 C717 1.561 . S
C720 C717 1.526 . S
C720 C721 1.396 . S
C720 C725 1.390 . S
C721 C715 1.465 . S
C721 C720 1.396 . S
C721 C722 1.399 . S
C722 H708 0.929 . S
C722 C721 1.399 . S
C722 C723 1.385 . S
C723 H709 0.931 . S
C723 C722 1.385 . S
C723 C724 1.389 . S
C724 C723 1.389 . S
C724 C725 1.387 . S
C725 H710 0.930 . S
C725 C720 1.390 . S
C725 C724 1.387 . S
H726 C738 0.930 . S
H727 C740 0.930 . S
H728 C741 0.930 . S
H729 C745 0.962 . S
H730 C745 0.978 . S
H731 C745 0.940 1_455 S
H732 C746 0.959 1_455 S
H733 C746 0.962 . S
H734 C746 0.959 . S
H735 C749 0.929 . S
H736 C750 0.931 . S
H737 C752 0.930 . S
C738 H726 0.930 . S
C738 C739 1.399 . S
C738 C743 1.399 . S
C739 C738 1.399 . S
C739 C740 1.376 . S
C740 H727 0.930 . S
C740 C739 1.376 . S
C740 C741 1.388 . S
C741 H728 0.930 . S
C741 C740 1.388 . S
C741 C742 1.390 . S
C742 C741 1.390 . S
C742 C743 1.394 . S
C742 C748 1.465 1_455 S
C743 C738 1.399 . S
C743 C742 1.394 . S
C743 C744 1.518 1_455 S
C744 C743 1.518 1_655 S
C744 C745 1.502 . S
C744 C746 1.561 . S
C744 C747 1.524 . S
C745 H729 0.962 . S
C745 H730 0.978 . S
C745 H731 0.940 1_655 S
C745 C744 1.502 . S
C746 H732 0.959 1_655 S
C746 H733 0.962 . S
C746 H734 0.959 . S
C746 C744 1.561 . S
C747 C744 1.524 . S
C747 C748 1.396 . S
C747 C752 1.390 . S
C748 C742 1.465 1_655 S
C748 C747 1.396 . S
C748 C749 1.399 . S
C749 H735 0.929 . S
C749 C748 1.399 . S
C749 C750 1.385 . S
C750 H736 0.931 . S
C750 C749 1.385 . S
C750 C751 1.389 . S
C751 C750 1.389 . S
C751 C752 1.387 . S
C752 H737 0.930 . S
C752 C747 1.390 . S
C752 C751 1.387 . S
H753 C765 0.930 . S
H754 C767 0.930 . S
H755 C768 0.930 . S
H756 C772 0.959 . S
H757 C772 0.959 . S
H758 C772 0.961 . S
H759 C773 0.960 . S
H760 C773 0.961 . S
H761 C773 0.959 . S
H762 C776 0.929 . S
H763 C777 0.931 . S
H764 C779 0.930 . S
C765 H753 0.930 . S
C765 C766 1.399 . S
C765 C770 1.399 . S
C766 C765 1.399 . S
C766 C767 1.376 . S
C767 H754 0.930 . S
C767 C766 1.376 . S
C767 C768 1.388 . S
C768 H755 0.930 . S
C768 C767 1.388 . S
C768 C769 1.390 . S
C769 C768 1.390 . S
C769 C770 1.394 . S
C769 C775 1.465 . S
C770 C765 1.399 . S
C770 C769 1.394 . S
C770 C771 1.516 . S
C771 C770 1.516 . S
C771 C772 1.502 . S
C771 C773 1.561 . S
C771 C774 1.526 . S
C772 H756 0.959 . S
C772 H757 0.959 . S
C772 H758 0.961 . S
C772 C771 1.502 . S
C773 H759 0.960 . S
C773 H760 0.961 . S
C773 H761 0.959 . S
C773 C771 1.561 . S
C774 C771 1.526 . S
C774 C775 1.396 . S
C774 C779 1.390 . S
C775 C769 1.465 . S
C775 C774 1.396 . S
C775 C776 1.399 . S
C776 H762 0.929 . S
C776 C775 1.399 . S
C776 C777 1.385 . S
C777 H763 0.931 . S
C777 C776 1.385 . S
C777 C778 1.389 . S
C778 C777 1.389 . S
C778 C779 1.387 . S
C779 H764 0.930 . S
C779 C774 1.390 . S
C779 C778 1.387 . S
H780 C792 0.930 . S
H781 C794 0.930 . S
H782 C795 0.930 . S
H783 C799 0.962 . S
H784 C799 0.978 . S
H785 C799 0.940 1_655 S
H786 C800 0.959 1_655 S
H787 C800 0.962 . S
H788 C800 0.959 . S
H789 C803 0.929 . S
H790 C804 0.931 . S
H791 C806 0.930 . S
C792 H780 0.930 . S
C792 C793 1.399 . S
C792 C797 1.399 . S
C793 C792 1.399 . S
C793 C794 1.376 . S
C794 H781 0.930 . S
C794 C793 1.376 . S
C794 C795 1.388 . S
C795 H782 0.930 . S
C795 C794 1.388 . S
C795 C796 1.390 . S
C796 C795 1.390 . S
C796 C797 1.394 . S
C796 C802 1.465 1_655 S
C797 C792 1.399 . S
C797 C796 1.394 . S
C797 C798 1.518 1_655 S
C798 C797 1.518 1_455 S
C798 C799 1.502 . S
C798 C800 1.561 . S
C798 C801 1.524 . S
C799 H783 0.962 . S
C799 H784 0.978 . S
C799 H785 0.940 1_455 S
C799 C798 1.502 . S
C800 H786 0.959 1_455 S
C800 H787 0.962 . S
C800 H788 0.959 . S
C800 C798 1.561 . S
C801 C798 1.524 . S
C801 C802 1.396 . S
C801 C806 1.390 . S
C802 C796 1.465 1_455 S
C802 C801 1.396 . S
C802 C803 1.399 . S
C803 H789 0.929 . S
C803 C802 1.399 . S
C803 C804 1.385 . S
C804 H790 0.931 . S
C804 C803 1.385 . S
C804 C805 1.389 . S
C805 C804 1.389 . S
C805 C806 1.387 . S
C806 H791 0.930 . S
C806 C801 1.390 . S
C806 C805 1.387 . S
H807 C819 0.930 . S
H808 C821 0.930 . S
H809 C822 0.930 . S
H810 C826 0.959 . S
H811 C826 0.959 . S
H812 C826 0.961 . S
H813 C827 0.960 . S
H814 C827 0.961 . S
H815 C827 0.959 . S
H816 C830 0.929 . S
H817 C831 0.931 . S
H818 C833 0.930 . S
C819 H807 0.930 . S
C819 C820 1.399 . S
C819 C824 1.399 . S
C820 C819 1.399 . S
C820 C821 1.376 . S
C821 H808 0.930 . S
C821 C820 1.376 . S
C821 C822 1.388 . S
C822 H809 0.930 . S
C822 C821 1.388 . S
C822 C823 1.390 . S
C823 C822 1.390 . S
C823 C824 1.394 . S
C823 C829 1.465 . S
C824 C819 1.399 . S
C824 C823 1.394 . S
C824 C825 1.516 . S
C825 C824 1.516 . S
C825 C826 1.502 . S
C825 C827 1.561 . S
C825 C828 1.526 . S
C826 H810 0.959 . S
C826 H811 0.959 . S
C826 H812 0.961 . S
C826 C825 1.502 . S
C827 H813 0.960 . S
C827 H814 0.961 . S
C827 H815 0.959 . S
C827 C825 1.561 . S
C828 C825 1.526 . S
C828 C829 1.396 . S
C828 C833 1.390 . S
C829 C823 1.465 . S
C829 C828 1.396 . S
C829 C830 1.399 . S
C830 H816 0.929 . S
C830 C829 1.399 . S
C830 C831 1.385 . S
C831 H817 0.931 . S
C831 C830 1.385 . S
C831 C832 1.389 . S
C832 C831 1.389 . S
C832 C833 1.387 . S
C833 H818 0.930 . S
C833 C828 1.390 . S
C833 C832 1.387 . S
H834 C846 0.930 . S
H835 C848 0.930 . S
H836 C849 0.930 . S
H837 C853 0.962 . S
H838 C853 0.978 . S
H839 C853 0.940 1_455 S
H840 C854 0.958 1_455 S
H841 C854 0.962 . S
H842 C854 0.959 . S
H843 C857 0.929 . S
H844 C858 0.931 . S
H845 C860 0.930 . S
C846 H834 0.930 . S
C846 C847 1.399 . S
C846 C851 1.399 . S
C847 C846 1.399 . S
C847 C848 1.376 . S
C848 H835 0.930 . S
C848 C847 1.376 . S
C848 C849 1.388 . S
C849 H836 0.930 . S
C849 C848 1.388 . S
C849 C850 1.390 . S
C850 C849 1.390 . S
C850 C851 1.394 . S
C850 C856 1.465 1_455 S
C851 C846 1.399 . S
C851 C850 1.394 . S
C851 C852 1.518 1_455 S
C852 C851 1.518 1_655 S
C852 C853 1.502 . S
C852 C854 1.561 . S
C852 C855 1.524 . S
C853 H837 0.962 . S
C853 H838 0.978 . S
C853 H839 0.940 1_655 S
C853 C852 1.502 . S
C854 H840 0.958 1_655 S
C854 H841 0.962 . S
C854 H842 0.959 . S
C854 C852 1.561 . S
C855 C852 1.524 . S
C855 C856 1.396 . S
C855 C860 1.390 . S
C856 C850 1.465 1_655 S
C856 C855 1.396 . S
C856 C857 1.399 . S
C857 H843 0.929 . S
C857 C856 1.399 . S
C857 C858 1.385 . S
C858 H844 0.931 . S
C858 C857 1.385 . S
C858 C859 1.389 . S
C859 C858 1.389 . S
C859 C860 1.387 . S
C860 H845 0.930 . S
C860 C855 1.390 . S
C860 C859 1.387 . S
H861 C873 0.930 . S
H862 C875 0.930 . S
H863 C876 0.930 . S
H864 C880 0.959 . S
H865 C880 0.959 . S
H866 C880 0.961 . S
H867 C881 0.960 . S
H868 C881 0.961 . S
H869 C881 0.959 . S
H870 C884 0.929 . S
H871 C885 0.931 . S
H872 C887 0.930 . S
C873 H861 0.930 . S
C873 C874 1.399 . S
C873 C878 1.399 . S
C874 C873 1.399 . S
C874 C875 1.376 . S
C875 H862 0.930 . S
C875 C874 1.376 . S
C875 C876 1.388 . S
C876 H863 0.930 . S
C876 C875 1.388 . S
C876 C877 1.390 . S
C877 C876 1.390 . S
C877 C878 1.394 . S
C877 C883 1.465 . S
C878 C873 1.399 . S
C878 C877 1.394 . S
C878 C879 1.516 . S
C879 C878 1.516 . S
C879 C880 1.502 . S
C879 C881 1.561 . S
C879 C882 1.526 . S
C880 H864 0.959 . S
C880 H865 0.959 . S
C880 H866 0.961 . S
C880 C879 1.502 . S
C881 H867 0.960 . S
C881 H868 0.961 . S
C881 H869 0.959 . S
C881 C879 1.561 . S
C882 C879 1.526 . S
C882 C883 1.396 . S
C882 C887 1.390 . S
C883 C877 1.465 . S
C883 C882 1.396 . S
C883 C884 1.399 . S
C884 H870 0.929 . S
C884 C883 1.399 . S
C884 C885 1.385 . S
C885 H871 0.931 . S
C885 C884 1.385 . S
C885 C886 1.389 . S
C886 C885 1.389 . S
C886 C887 1.387 . S
C887 H872 0.930 . S
C887 C882 1.390 . S
C887 C886 1.387 . S
H888 C900 0.930 . S
H889 C902 0.930 . S
H890 C903 0.930 . S
H891 C907 0.962 . S
H892 C907 0.978 . S
H893 C907 0.940 1_565 S
H894 C908 0.959 1_565 S
H895 C908 0.962 . S
H896 C908 0.959 . S
H897 C911 0.929 . S
H898 C912 0.931 . S
H899 C914 0.930 . S
C900 H888 0.930 . S
C900 C901 1.399 . S
C900 C905 1.399 . S
C901 C900 1.399 . S
C901 C902 1.376 . S
C902 H889 0.930 . S
C902 C901 1.376 . S
C902 C903 1.388 . S
C903 H890 0.930 . S
C903 C902 1.388 . S
C903 C904 1.390 . S
C904 C903 1.390 . S
C904 C905 1.394 . S
C904 C910 1.465 1_565 S
C905 C900 1.399 . S
C905 C904 1.394 . S
C905 C906 1.518 1_565 S
C906 C905 1.518 1_545 S
C906 C907 1.502 . S
C906 C908 1.561 . S
C906 C909 1.524 . S
C907 H891 0.962 . S
C907 H892 0.978 . S
C907 H893 0.940 1_545 S
C907 C906 1.502 . S
C908 H894 0.959 1_545 S
C908 H895 0.962 . S
C908 H896 0.959 . S
C908 C906 1.561 . S
C909 C906 1.524 . S
C909 C910 1.396 . S
C909 C914 1.390 . S
C910 C904 1.465 1_545 S
C910 C909 1.396 . S
C910 C911 1.399 . S
C911 H897 0.929 . S
C911 C910 1.399 . S
C911 C912 1.385 . S
C912 H898 0.931 . S
C912 C911 1.385 . S
C912 C913 1.389 . S
C913 C912 1.389 . S
C913 C914 1.387 . S
C914 H899 0.930 . S
C914 C909 1.390 . S
C914 C913 1.387 . S
H915 C927 0.930 . S
H916 C929 0.930 . S
H917 C930 0.930 . S
H918 C934 0.959 . S
H919 C934 0.959 . S
H920 C934 0.961 . S
H921 C935 0.960 . S
H922 C935 0.961 . S
H923 C935 0.959 . S
H924 C938 0.929 . S
H925 C939 0.931 . S
H926 C941 0.930 . S
C927 H915 0.930 . S
C927 C928 1.399 . S
C927 C932 1.399 . S
C928 C927 1.399 . S
C928 C929 1.376 . S
C929 H916 0.930 . S
C929 C928 1.376 . S
C929 C930 1.388 . S
C930 H917 0.930 . S
C930 C929 1.388 . S
C930 C931 1.390 . S
C931 C930 1.390 . S
C931 C932 1.394 . S
C931 C937 1.465 . S
C932 C927 1.399 . S
C932 C931 1.394 . S
C932 C933 1.516 . S
C933 C932 1.516 . S
C933 C934 1.502 . S
C933 C935 1.561 . S
C933 C936 1.526 . S
C934 H918 0.959 . S
C934 H919 0.959 . S
C934 H920 0.961 . S
C934 C933 1.502 . S
C935 H921 0.960 . S
C935 H922 0.961 . S
C935 H923 0.959 . S
C935 C933 1.561 . S
C936 C933 1.526 . S
C936 C937 1.396 . S
C936 C941 1.390 . S
C937 C931 1.465 . S
C937 C936 1.396 . S
C937 C938 1.399 . S
C938 H924 0.929 . S
C938 C937 1.399 . S
C938 C939 1.385 . S
C939 H925 0.931 . S
C939 C938 1.385 . S
C939 C940 1.389 . S
C940 C939 1.389 . S
C940 C941 1.387 . S
C941 H926 0.930 . S
C941 C936 1.390 . S
C941 C940 1.387 . S
H942 C954 0.930 . S
H943 C956 0.930 . S
H944 C957 0.930 . S
H945 C961 0.962 . S
H946 C961 0.978 . S
H947 C961 0.940 1_545 S
H948 C962 0.958 1_545 S
H949 C962 0.962 . S
H950 C962 0.959 . S
H951 C965 0.929 . S
H952 C966 0.931 . S
H953 C968 0.930 . S
C954 H942 0.930 . S
C954 C955 1.399 . S
C954 C959 1.399 . S
C955 C954 1.399 . S
C955 C956 1.376 . S
C956 H943 0.930 . S
C956 C955 1.376 . S
C956 C957 1.388 . S
C957 H944 0.930 . S
C957 C956 1.388 . S
C957 C958 1.390 . S
C958 C957 1.390 . S
C958 C959 1.394 . S
C958 C964 1.465 1_545 S
C959 C954 1.399 . S
C959 C958 1.394 . S
C959 C960 1.518 1_545 S
C960 C959 1.518 1_565 S
C960 C961 1.502 . S
C960 C962 1.561 . S
C960 C963 1.524 . S
C961 H945 0.962 . S
C961 H946 0.978 . S
C961 H947 0.940 1_565 S
C961 C960 1.502 . S
C962 H948 0.958 1_565 S
C962 H949 0.962 . S
C962 H950 0.959 . S
C962 C960 1.561 . S
C963 C960 1.524 . S
C963 C964 1.396 . S
C963 C968 1.390 . S
C964 C958 1.465 1_565 S
C964 C963 1.396 . S
C964 C965 1.399 . S
C965 H951 0.929 . S
C965 C964 1.399 . S
C965 C966 1.385 . S
C966 H952 0.931 . S
C966 C965 1.385 . S
C966 C967 1.389 . S
C967 C966 1.389 . S
C967 C968 1.387 . S
C968 H953 0.930 . S
C968 C963 1.390 . S
C968 C967 1.387 . S
H969 C981 0.930 . S
H970 C983 0.930 . S
H971 C984 0.930 . S
H972 C988 0.959 . S
H973 C988 0.959 . S
H974 C988 0.961 . S
H975 C989 0.960 . S
H976 C989 0.961 . S
H977 C989 0.959 . S
H978 C992 0.929 . S
H979 C993 0.931 . S
H980 C995 0.930 . S
C981 H969 0.930 . S
C981 C982 1.399 . S
C981 C986 1.399 . S
C982 C981 1.399 . S
C982 C983 1.376 . S
C983 H970 0.930 . S
C983 C982 1.376 . S
C983 C984 1.388 . S
C984 H971 0.930 . S
C984 C983 1.388 . S
C984 C985 1.390 . S
C985 C984 1.390 . S
C985 C986 1.394 . S
C985 C991 1.465 . S
C986 C981 1.399 . S
C986 C985 1.394 . S
C986 C987 1.516 . S
C987 C986 1.516 . S
C987 C988 1.502 . S
C987 C989 1.561 . S
C987 C990 1.526 . S
C988 H972 0.959 . S
C988 H973 0.959 . S
C988 H974 0.961 . S
C988 C987 1.502 . S
C989 H975 0.960 . S
C989 H976 0.961 . S
C989 H977 0.959 . S
C989 C987 1.561 . S
C990 C987 1.526 . S
C990 C991 1.396 . S
C990 C995 1.390 . S
C991 C985 1.465 . S
C991 C990 1.396 . S
C991 C992 1.399 . S
C992 H978 0.929 . S
C992 C991 1.399 . S
C992 C993 1.385 . S
C993 H979 0.931 . S
C993 C992 1.385 . S
C993 C994 1.389 . S
C994 C993 1.389 . S
C994 C995 1.387 . S
C995 H980 0.930 . S
C995 C990 1.390 . S
C995 C994 1.387 . S
H996 C1008 0.930 . S
H997 C1010 0.930 . S
H998 C1011 0.930 . S
H999 C1015 0.962 . S
H1000 C1015 0.978 . S
H1001 C1015 0.940 1_545 S
H1002 C1016 0.959 1_545 S
H1003 C1016 0.962 . S
H1004 C1016 0.959 . S
H1005 C1019 0.929 . S
H1006 C1020 0.931 . S
H1007 C1022 0.930 . S
C1008 H996 0.930 . S
C1008 C1009 1.399 . S
C1008 C1013 1.399 . S
C1009 C1008 1.399 . S
C1009 C1010 1.376 . S
C1010 H997 0.930 . S
C1010 C1009 1.376 . S
C1010 C1011 1.388 . S
C1011 H998 0.930 . S
C1011 C1010 1.388 . S
C1011 C1012 1.390 . S
C1012 C1011 1.390 . S
C1012 C1013 1.394 . S
C1012 C1018 1.465 1_545 S
C1013 C1008 1.399 . S
C1013 C1012 1.394 . S
C1013 C1014 1.518 1_545 S
C1014 C1013 1.518 1_565 S
C1014 C1015 1.502 . S
C1014 C1016 1.561 . S
C1014 C1017 1.524 . S
C1015 H999 0.962 . S
C1015 H1000 0.978 . S
C1015 H1001 0.940 1_565 S
C1015 C1014 1.502 . S
C1016 H1002 0.959 1_565 S
C1016 H1003 0.962 . S
C1016 H1004 0.959 . S
C1016 C1014 1.561 . S
C1017 C1014 1.524 . S
C1017 C1018 1.396 . S
C1017 C1022 1.390 . S
C1018 C1012 1.465 1_565 S
C1018 C1017 1.396 . S
C1018 C1019 1.399 . S
C1019 H1005 0.929 . S
C1019 C1018 1.399 . S
C1019 C1020 1.385 . S
C1020 H1006 0.931 . S
C1020 C1019 1.385 . S
C1020 C1021 1.389 . S
C1021 C1020 1.389 . S
C1021 C1022 1.387 . S
C1022 H1007 0.930 . S
C1022 C1017 1.390 . S
C1022 C1021 1.387 . S
H1023 C1035 0.930 . S
H1024 C1037 0.930 . S
H1025 C1038 0.930 . S
H1026 C1042 0.959 . S
H1027 C1042 0.959 . S
H1028 C1042 0.961 . S
H1029 C1043 0.960 . S
H1030 C1043 0.961 . S
H1031 C1043 0.959 . S
H1032 C1046 0.929 . S
H1033 C1047 0.931 . S
H1034 C1049 0.930 . S
C1035 H1023 0.930 . S
C1035 C1036 1.399 . S
C1035 C1040 1.399 . S
C1036 C1035 1.399 . S
C1036 C1037 1.376 . S
C1037 H1024 0.930 . S
C1037 C1036 1.376 . S
C1037 C1038 1.388 . S
C1038 H1025 0.930 . S
C1038 C1037 1.388 . S
C1038 C1039 1.390 . S
C1039 C1038 1.390 . S
C1039 C1040 1.394 . S
C1039 C1045 1.465 . S
C1040 C1035 1.399 . S
C1040 C1039 1.394 . S
C1040 C1041 1.516 . S
C1041 C1040 1.516 . S
C1041 C1042 1.502 . S
C1041 C1043 1.561 . S
C1041 C1044 1.526 . S
C1042 H1026 0.959 . S
C1042 H1027 0.959 . S
C1042 H1028 0.961 . S
C1042 C1041 1.502 . S
C1043 H1029 0.960 . S
C1043 H1030 0.961 . S
C1043 H1031 0.959 . S
C1043 C1041 1.561 . S
C1044 C1041 1.526 . S
C1044 C1045 1.396 . S
C1044 C1049 1.390 . S
C1045 C1039 1.465 . S
C1045 C1044 1.396 . S
C1045 C1046 1.399 . S
C1046 H1032 0.929 . S
C1046 C1045 1.399 . S
C1046 C1047 1.385 . S
C1047 H1033 0.931 . S
C1047 C1046 1.385 . S
C1047 C1048 1.389 . S
C1048 C1047 1.389 . S
C1048 C1049 1.387 . S
C1049 H1034 0.930 . S
C1049 C1044 1.390 . S
C1049 C1048 1.387 . S
H1050 C1062 0.930 . S
H1051 C1064 0.930 . S
H1052 C1065 0.930 . S
H1053 C1069 0.962 . S
H1054 C1069 0.978 . S
H1055 C1069 0.940 1_545 S
H1056 C1070 0.959 1_545 S
H1057 C1070 0.962 . S
H1058 C1070 0.959 . S
H1059 C1073 0.929 . S
H1060 C1074 0.931 . S
H1061 C1076 0.930 . S
C1062 H1050 0.930 . S
C1062 C1063 1.399 . S
C1062 C1067 1.399 . S
C1063 C1062 1.399 . S
C1063 C1064 1.376 . S
C1064 H1051 0.930 . S
C1064 C1063 1.376 . S
C1064 C1065 1.388 . S
C1065 H1052 0.930 . S
C1065 C1064 1.388 . S
C1065 C1066 1.390 . S
C1066 C1065 1.390 . S
C1066 C1067 1.394 . S
C1066 C1072 1.465 1_545 S
C1067 C1062 1.399 . S
C1067 C1066 1.394 . S
C1067 C1068 1.518 1_545 S
C1068 C1067 1.518 1_565 S
C1068 C1069 1.502 . S
C1068 C1070 1.561 . S
C1068 C1071 1.524 . S
C1069 H1053 0.962 . S
C1069 H1054 0.978 . S
C1069 H1055 0.940 1_565 S
C1069 C1068 1.502 . S
C1070 H1056 0.959 1_565 S
C1070 H1057 0.962 . S
C1070 H1058 0.959 . S
C1070 C1068 1.561 . S
C1071 C1068 1.524 . S
C1071 C1072 1.396 . S
C1071 C1076 1.390 . S
C1072 C1066 1.465 1_565 S
C1072 C1071 1.396 . S
C1072 C1073 1.399 . S
C1073 H1059 0.929 . S
C1073 C1072 1.399 . S
C1073 C1074 1.385 . S
C1074 H1060 0.931 . S
C1074 C1073 1.385 . S
C1074 C1075 1.389 . S
C1075 C1074 1.389 . S
C1075 C1076 1.387 . S
C1076 H1061 0.930 . S
C1076 C1071 1.390 . S
C1076 C1075 1.387 . S
H1077 C1089 0.930 . S
H1078 C1091 0.930 . S
H1079 C1092 0.930 . S
H1080 C1096 0.959 . S
H1081 C1096 0.959 . S
H1082 C1096 0.961 . S
H1083 C1097 0.960 . S
H1084 C1097 0.961 . S
H1085 C1097 0.959 . S
H1086 C1100 0.929 . S
H1087 C1101 0.931 . S
H1088 C1103 0.930 . S
C1089 H1077 0.930 . S
C1089 C1090 1.399 . S
C1089 C1094 1.399 . S
C1090 C1089 1.399 . S
C1090 C1091 1.376 . S
C1091 H1078 0.930 . S
C1091 C1090 1.376 . S
C1091 C1092 1.388 . S
C1092 H1079 0.930 . S
C1092 C1091 1.388 . S
C1092 C1093 1.390 . S
C1093 C1092 1.390 . S
C1093 C1094 1.394 . S
C1093 C1099 1.465 . S
C1094 C1089 1.399 . S
C1094 C1093 1.394 . S
C1094 C1095 1.516 . S
C1095 C1094 1.516 . S
C1095 C1096 1.502 . S
C1095 C1097 1.561 . S
C1095 C1098 1.526 . S
C1096 H1080 0.959 . S
C1096 H1081 0.959 . S
C1096 H1082 0.961 . S
C1096 C1095 1.502 . S
C1097 H1083 0.960 . S
C1097 H1084 0.961 . S
C1097 H1085 0.959 . S
C1097 C1095 1.561 . S
C1098 C1095 1.526 . S
C1098 C1099 1.396 . S
C1098 C1103 1.390 . S
C1099 C1093 1.465 . S
C1099 C1098 1.396 . S
C1099 C1100 1.399 . S
C1100 H1086 0.929 . S
C1100 C1099 1.399 . S
C1100 C1101 1.385 . S
C1101 H1087 0.931 . S
C1101 C1100 1.385 . S
C1101 C1102 1.389 . S
C1102 C1101 1.389 . S
C1102 C1103 1.387 . S
C1103 H1088 0.930 . S
C1103 C1098 1.390 . S
C1103 C1102 1.387 . S
H1104 C1116 0.930 . S
H1105 C1118 0.930 . S
H1106 C1119 0.930 . S
H1107 C1123 0.962 . S
H1108 C1123 0.978 . S
H1109 C1123 0.940 1_554 S
H1110 C1124 0.959 1_554 S
H1111 C1124 0.962 . S
H1112 C1124 0.959 . S
H1113 C1127 0.929 . S
H1114 C1128 0.931 . S
H1115 C1130 0.930 . S
C1116 H1104 0.930 . S
C1116 C1117 1.399 . S
C1116 C1121 1.399 . S
C1117 C1116 1.399 . S
C1117 C1118 1.376 . S
C1118 H1105 0.930 . S
C1118 C1117 1.376 . S
C1118 C1119 1.388 . S
C1119 H1106 0.930 . S
C1119 C1118 1.388 . S
C1119 C1120 1.390 . S
C1120 C1119 1.390 . S
C1120 C1121 1.394 . S
C1120 C1126 1.465 1_554 S
C1121 C1116 1.399 . S
C1121 C1120 1.394 . S
C1121 C1122 1.518 1_554 S
C1122 C1121 1.518 1_556 S
C1122 C1123 1.502 . S
C1122 C1124 1.561 . S
C1122 C1125 1.524 . S
C1123 H1107 0.962 . S
C1123 H1108 0.978 . S
C1123 H1109 0.940 1_556 S
C1123 C1122 1.502 . S
C1124 H1110 0.959 1_556 S
C1124 H1111 0.962 . S
C1124 H1112 0.959 . S
C1124 C1122 1.561 . S
C1125 C1122 1.524 . S
C1125 C1126 1.396 . S
C1125 C1130 1.390 . S
C1126 C1120 1.465 1_556 S
C1126 C1125 1.396 . S
C1126 C1127 1.399 . S
C1127 H1113 0.929 . S
C1127 C1126 1.399 . S
C1127 C1128 1.385 . S
C1128 H1114 0.931 . S
C1128 C1127 1.385 . S
C1128 C1129 1.389 . S
C1129 C1128 1.389 . S
C1129 C1130 1.387 . S
C1130 H1115 0.930 . S
C1130 C1125 1.390 . S
C1130 C1129 1.387 . S
H1131 C1143 0.930 . S
H1132 C1145 0.930 . S
H1133 C1146 0.930 . S
H1134 C1150 0.962 . S
H1135 C1150 0.978 . S
H1136 C1150 0.940 1_554 S
H1137 C1151 0.959 1_554 S
H1138 C1151 0.962 . S
H1139 C1151 0.959 . S
H1140 C1154 0.929 . S
H1141 C1155 0.931 . S
H1142 C1157 0.930 . S
C1143 H1131 0.930 . S
C1143 C1144 1.399 . S
C1143 C1148 1.399 . S
C1144 C1143 1.399 . S
C1144 C1145 1.376 . S
C1145 H1132 0.930 . S
C1145 C1144 1.376 . S
C1145 C1146 1.388 . S
C1146 H1133 0.930 . S
C1146 C1145 1.388 . S
C1146 C1147 1.390 . S
C1147 C1146 1.390 . S
C1147 C1148 1.394 . S
C1147 C1153 1.465 1_554 S
C1148 C1143 1.399 . S
C1148 C1147 1.394 . S
C1148 C1149 1.518 1_554 S
C1149 C1148 1.518 1_556 S
C1149 C1150 1.502 . S
C1149 C1151 1.561 . S
C1149 C1152 1.524 . S
C1150 H1134 0.962 . S
C1150 H1135 0.978 . S
C1150 H1136 0.940 1_556 S
C1150 C1149 1.502 . S
C1151 H1137 0.959 1_556 S
C1151 H1138 0.962 . S
C1151 H1139 0.959 . S
C1151 C1149 1.561 . S
C1152 C1149 1.524 . S
C1152 C1153 1.396 . S
C1152 C1157 1.390 . S
C1153 C1147 1.465 1_556 S
C1153 C1152 1.396 . S
C1153 C1154 1.399 . S
C1154 H1140 0.929 . S
C1154 C1153 1.399 . S
C1154 C1155 1.385 . S
C1155 H1141 0.931 . S
C1155 C1154 1.385 . S
C1155 C1156 1.389 . S
C1156 C1155 1.389 . S
C1156 C1157 1.387 . S
C1157 H1142 0.930 . S
C1157 C1152 1.390 . S
C1157 C1156 1.387 . S
H1158 C1170 0.930 . S
H1159 C1172 0.930 . S
H1160 C1173 0.930 . S
H1161 C1177 0.959 . S
H1162 C1177 0.959 . S
H1163 C1177 0.961 . S
H1164 C1178 0.960 . S
H1165 C1178 0.961 . S
H1166 C1178 0.959 . S
H1167 C1181 0.929 . S
H1168 C1182 0.931 . S
H1169 C1184 0.930 . S
C1170 H1158 0.930 . S
C1170 C1171 1.399 . S
C1170 C1175 1.399 . S
C1171 C1170 1.399 . S
C1171 C1172 1.376 . S
C1172 H1159 0.930 . S
C1172 C1171 1.376 . S
C1172 C1173 1.388 . S
C1173 H1160 0.930 . S
C1173 C1172 1.388 . S
C1173 C1174 1.390 . S
C1174 C1173 1.390 . S
C1174 C1175 1.394 . S
C1174 C1180 1.465 . S
C1175 C1170 1.399 . S
C1175 C1174 1.394 . S
C1175 C1176 1.516 . S
C1176 C1175 1.516 . S
C1176 C1177 1.502 . S
C1176 C1178 1.561 . S
C1176 C1179 1.526 . S
C1177 H1161 0.959 . S
C1177 H1162 0.959 . S
C1177 H1163 0.961 . S
C1177 C1176 1.502 . S
C1178 H1164 0.960 . S
C1178 H1165 0.961 . S
C1178 H1166 0.959 . S
C1178 C1176 1.561 . S
C1179 C1176 1.526 . S
C1179 C1180 1.396 . S
C1179 C1184 1.390 . S
C1180 C1174 1.465 . S
C1180 C1179 1.396 . S
C1180 C1181 1.399 . S
C1181 H1167 0.929 . S
C1181 C1180 1.399 . S
C1181 C1182 1.385 . S
C1182 H1168 0.931 . S
C1182 C1181 1.385 . S
C1182 C1183 1.389 . S
C1183 C1182 1.389 . S
C1183 C1184 1.387 . S
C1184 H1169 0.930 . S
C1184 C1179 1.390 . S
C1184 C1183 1.387 . S
H1185 C1197 0.930 . S
H1186 C1199 0.930 . S
H1187 C1200 0.930 . S
H1188 C1204 0.962 . S
H1189 C1204 0.978 . S
H1190 C1204 0.940 1_554 S
H1191 C1205 0.959 1_554 S
H1192 C1205 0.962 . S
H1193 C1205 0.959 . S
H1194 C1208 0.929 . S
H1195 C1209 0.931 . S
H1196 C1211 0.930 . S
C1197 H1185 0.930 . S
C1197 C1198 1.399 . S
C1197 C1202 1.399 . S
C1198 C1197 1.399 . S
C1198 C1199 1.376 . S
C1199 H1186 0.930 . S
C1199 C1198 1.376 . S
C1199 C1200 1.388 . S
C1200 H1187 0.930 . S
C1200 C1199 1.388 . S
C1200 C1201 1.390 . S
C1201 C1200 1.390 . S
C1201 C1202 1.394 . S
C1201 C1207 1.465 1_554 S
C1202 C1197 1.399 . S
C1202 C1201 1.394 . S
C1202 C1203 1.518 1_554 S
C1203 C1202 1.518 1_556 S
C1203 C1204 1.502 . S
C1203 C1205 1.561 . S
C1203 C1206 1.524 . S
C1204 H1188 0.962 . S
C1204 H1189 0.978 . S
C1204 H1190 0.940 1_556 S
C1204 C1203 1.502 . S
C1205 H1191 0.959 1_556 S
C1205 H1192 0.962 . S
C1205 H1193 0.959 . S
C1205 C1203 1.561 . S
C1206 C1203 1.524 . S
C1206 C1207 1.396 . S
C1206 C1211 1.390 . S
C1207 C1201 1.465 1_556 S
C1207 C1206 1.396 . S
C1207 C1208 1.399 . S
C1208 H1194 0.929 . S
C1208 C1207 1.399 . S
C1208 C1209 1.385 . S
C1209 H1195 0.931 . S
C1209 C1208 1.385 . S
C1209 C1210 1.389 . S
C1210 C1209 1.389 . S
C1210 C1211 1.387 . S
C1211 H1196 0.930 . S
C1211 C1206 1.390 . S
C1211 C1210 1.387 . S
H1212 C1224 0.930 . S
H1213 C1226 0.930 . S
H1214 C1227 0.930 . S
H1215 C1231 0.959 . S
H1216 C1231 0.959 . S
H1217 C1231 0.961 . S
H1218 C1232 0.960 . S
H1219 C1232 0.961 . S
H1220 C1232 0.959 . S
H1221 C1235 0.929 . S
H1222 C1236 0.931 . S
H1223 C1238 0.930 . S
C1224 H1212 0.930 . S
C1224 C1225 1.399 . S
C1224 C1229 1.399 . S
C1225 C1224 1.399 . S
C1225 C1226 1.376 . S
C1226 H1213 0.930 . S
C1226 C1225 1.376 . S
C1226 C1227 1.388 . S
C1227 H1214 0.930 . S
C1227 C1226 1.388 . S
C1227 C1228 1.390 . S
C1228 C1227 1.390 . S
C1228 C1229 1.394 . S
C1228 C1234 1.465 . S
C1229 C1224 1.399 . S
C1229 C1228 1.394 . S
C1229 C1230 1.516 . S
C1230 C1229 1.516 . S
C1230 C1231 1.502 . S
C1230 C1232 1.561 . S
C1230 C1233 1.526 . S
C1231 H1215 0.959 . S
C1231 H1216 0.959 . S
C1231 H1217 0.961 . S
C1231 C1230 1.502 . S
C1232 H1218 0.960 . S
C1232 H1219 0.961 . S
C1232 H1220 0.959 . S
C1232 C1230 1.561 . S
C1233 C1230 1.526 . S
C1233 C1234 1.396 . S
C1233 C1238 1.390 . S
C1234 C1228 1.465 . S
C1234 C1233 1.396 . S
C1234 C1235 1.399 . S
C1235 H1221 0.929 . S
C1235 C1234 1.399 . S
C1235 C1236 1.385 . S
C1236 H1222 0.931 . S
C1236 C1235 1.385 . S
C1236 C1237 1.389 . S
C1237 C1236 1.389 . S
C1237 C1238 1.387 . S
C1238 H1223 0.930 . S
C1238 C1233 1.390 . S
C1238 C1237 1.387 . S
H1239 C1251 0.930 . S
H1240 C1253 0.930 . S
H1241 C1254 0.930 . S
H1242 C1258 0.962 . S
H1243 C1258 0.978 . S
H1244 C1258 0.940 1_554 S
H1245 C1259 0.959 1_554 S
H1246 C1259 0.962 . S
H1247 C1259 0.959 . S
H1248 C1262 0.929 . S
H1249 C1263 0.931 . S
H1250 C1265 0.930 . S
C1251 H1239 0.930 . S
C1251 C1252 1.399 . S
C1251 C1256 1.399 . S
C1252 C1251 1.399 . S
C1252 C1253 1.376 . S
C1253 H1240 0.930 . S
C1253 C1252 1.376 . S
C1253 C1254 1.388 . S
C1254 H1241 0.930 . S
C1254 C1253 1.388 . S
C1254 C1255 1.390 . S
C1255 C1254 1.390 . S
C1255 C1256 1.394 . S
C1255 C1261 1.465 1_554 S
C1256 C1251 1.399 . S
C1256 C1255 1.394 . S
C1256 C1257 1.518 1_554 S
C1257 C1256 1.518 1_556 S
C1257 C1258 1.502 . S
C1257 C1259 1.561 . S
C1257 C1260 1.524 . S
C1258 H1242 0.962 . S
C1258 H1243 0.978 . S
C1258 H1244 0.940 1_556 S
C1258 C1257 1.502 . S
C1259 H1245 0.959 1_556 S
C1259 H1246 0.962 . S
C1259 H1247 0.959 . S
C1259 C1257 1.561 . S
C1260 C1257 1.524 . S
C1260 C1261 1.396 . S
C1260 C1265 1.390 . S
C1261 C1255 1.465 1_556 S
C1261 C1260 1.396 . S
C1261 C1262 1.399 . S
C1262 H1248 0.929 . S
C1262 C1261 1.399 . S
C1262 C1263 1.385 . S
C1263 H1249 0.931 . S
C1263 C1262 1.385 . S
C1263 C1264 1.389 . S
C1264 C1263 1.389 . S
C1264 C1265 1.387 . S
C1265 H1250 0.930 . S
C1265 C1260 1.390 . S
C1265 C1264 1.387 . S
H1266 C1278 0.930 . S
H1267 C1280 0.930 . S
H1268 C1281 0.930 . S
H1269 C1285 0.959 . S
H1270 C1285 0.959 . S
H1271 C1285 0.961 . S
H1272 C1286 0.960 . S
H1273 C1286 0.961 . S
H1274 C1286 0.959 . S
H1275 C1289 0.929 . S
H1276 C1290 0.931 . S
H1277 C1292 0.930 . S
C1278 H1266 0.930 . S
C1278 C1279 1.399 . S
C1278 C1283 1.399 . S
C1279 C1278 1.399 . S
C1279 C1280 1.376 . S
C1280 H1267 0.930 . S
C1280 C1279 1.376 . S
C1280 C1281 1.388 . S
C1281 H1268 0.930 . S
C1281 C1280 1.388 . S
C1281 C1282 1.390 . S
C1282 C1281 1.390 . S
C1282 C1283 1.394 . S
C1282 C1288 1.465 . S
C1283 C1278 1.399 . S
C1283 C1282 1.394 . S
C1283 C1284 1.516 . S
C1284 C1283 1.516 . S
C1284 C1285 1.502 . S
C1284 C1286 1.561 . S
C1284 C1287 1.526 . S
C1285 H1269 0.959 . S
C1285 H1270 0.959 . S
C1285 H1271 0.961 . S
C1285 C1284 1.502 . S
C1286 H1272 0.960 . S
C1286 H1273 0.961 . S
C1286 H1274 0.959 . S
C1286 C1284 1.561 . S
C1287 C1284 1.526 . S
C1287 C1288 1.396 . S
C1287 C1292 1.390 . S
C1288 C1282 1.465 . S
C1288 C1287 1.396 . S
C1288 C1289 1.399 . S
C1289 H1275 0.929 . S
C1289 C1288 1.399 . S
C1289 C1290 1.385 . S
C1290 H1276 0.931 . S
C1290 C1289 1.385 . S
C1290 C1291 1.389 . S
C1291 C1290 1.389 . S
C1291 C1292 1.387 . S
C1292 H1277 0.930 . S
C1292 C1287 1.390 . S
C1292 C1291 1.387 . S
H1293 C1305 0.930 . S
H1294 C1307 0.930 . S
H1295 C1308 0.930 . S
H1296 C1312 0.959 . S
H1297 C1312 0.959 . S
H1298 C1312 0.961 . S
H1299 C1313 0.960 . S
H1300 C1313 0.961 . S
H1301 C1313 0.959 . S
H1302 C1316 0.929 . S
H1303 C1317 0.931 . S
H1304 C1319 0.930 . S
C1305 H1293 0.930 . S
C1305 C1306 1.399 . S
C1305 C1310 1.399 . S
C1306 C1305 1.399 . S
C1306 C1307 1.376 . S
C1307 H1294 0.930 . S
C1307 C1306 1.376 . S
C1307 C1308 1.388 . S
C1308 H1295 0.930 . S
C1308 C1307 1.388 . S
C1308 C1309 1.390 . S
C1309 C1308 1.390 . S
C1309 C1310 1.394 . S
C1309 C1315 1.465 . S
C1310 C1305 1.399 . S
C1310 C1309 1.394 . S
C1310 C1311 1.516 . S
C1311 C1310 1.516 . S
C1311 C1312 1.502 . S
C1311 C1313 1.561 . S
C1311 C1314 1.526 . S
C1312 H1296 0.959 . S
C1312 H1297 0.959 . S
C1312 H1298 0.961 . S
C1312 C1311 1.502 . S
C1313 H1299 0.960 . S
C1313 H1300 0.961 . S
C1313 H1301 0.959 . S
C1313 C1311 1.561 . S
C1314 C1311 1.526 . S
C1314 C1315 1.396 . S
C1314 C1319 1.390 . S
C1315 C1309 1.465 . S
C1315 C1314 1.396 . S
C1315 C1316 1.399 . S
C1316 H1302 0.929 . S
C1316 C1315 1.399 . S
C1316 C1317 1.385 . S
C1317 H1303 0.931 . S
C1317 C1316 1.385 . S
C1317 C1318 1.389 . S
C1318 C1317 1.389 . S
C1318 C1319 1.387 . S
C1319 H1304 0.930 . S
C1319 C1314 1.390 . S
C1319 C1318 1.387 . S
H1320 C1332 0.930 . S
H1321 C1334 0.930 . S
H1322 C1335 0.930 . S
H1323 C1339 0.959 . S
H1324 C1339 0.959 . S
H1325 C1339 0.961 . S
H1326 C1340 0.960 . S
H1327 C1340 0.961 . S
H1328 C1340 0.959 . S
H1329 C1343 0.929 . S
H1330 C1344 0.931 . S
H1331 C1346 0.930 . S
C1332 H1320 0.930 . S
C1332 C1333 1.399 . S
C1332 C1337 1.399 . S
C1333 C1332 1.399 . S
C1333 C1334 1.376 . S
C1334 H1321 0.930 . S
C1334 C1333 1.376 . S
C1334 C1335 1.388 . S
C1335 H1322 0.930 . S
C1335 C1334 1.388 . S
C1335 C1336 1.390 . S
C1336 C1335 1.390 . S
C1336 C1337 1.394 . S
C1336 C1342 1.465 . S
C1337 C1332 1.399 . S
C1337 C1336 1.394 . S
C1337 C1338 1.516 . S
C1338 C1337 1.516 . S
C1338 C1339 1.502 . S
C1338 C1340 1.561 . S
C1338 C1341 1.526 . S
C1339 H1323 0.959 . S
C1339 H1324 0.959 . S
C1339 H1325 0.961 . S
C1339 C1338 1.502 . S
C1340 H1326 0.960 . S
C1340 H1327 0.961 . S
C1340 H1328 0.959 . S
C1340 C1338 1.561 . S
C1341 C1338 1.526 . S
C1341 C1342 1.396 . S
C1341 C1346 1.390 . S
C1342 C1336 1.465 . S
C1342 C1341 1.396 . S
C1342 C1343 1.399 . S
C1343 H1329 0.929 . S
C1343 C1342 1.399 . S
C1343 C1344 1.385 . S
C1344 H1330 0.931 . S
C1344 C1343 1.385 . S
C1344 C1345 1.389 . S
C1345 C1344 1.389 . S
C1345 C1346 1.387 . S
C1346 H1331 0.930 . S
C1346 C1341 1.390 . S
C1346 C1345 1.387 . S
H1347 C1359 0.930 . S
H1348 C1361 0.930 . S
H1349 C1362 0.930 . S
H1350 C1366 0.959 . S
H1351 C1366 0.959 . S
H1352 C1366 0.961 . S
H1353 C1367 0.960 . S
H1354 C1367 0.961 . S
H1355 C1367 0.959 . S
H1356 C1370 0.929 . S
H1357 C1371 0.931 . S
H1358 C1373 0.930 . S
C1359 H1347 0.930 . S
C1359 C1360 1.399 . S
C1359 C1364 1.399 . S
C1360 C1359 1.399 . S
C1360 C1361 1.376 . S
C1361 H1348 0.930 . S
C1361 C1360 1.376 . S
C1361 C1362 1.388 . S
C1362 H1349 0.930 . S
C1362 C1361 1.388 . S
C1362 C1363 1.390 . S
C1363 C1362 1.390 . S
C1363 C1364 1.394 . S
C1363 C1369 1.465 . S
C1364 C1359 1.399 . S
C1364 C1363 1.394 . S
C1364 C1365 1.516 . S
C1365 C1364 1.516 . S
C1365 C1366 1.502 . S
C1365 C1367 1.561 . S
C1365 C1368 1.526 . S
C1366 H1350 0.959 . S
C1366 H1351 0.959 . S
C1366 H1352 0.961 . S
C1366 C1365 1.502 . S
C1367 H1353 0.960 . S
C1367 H1354 0.961 . S
C1367 H1355 0.959 . S
C1367 C1365 1.561 . S
C1368 C1365 1.526 . S
C1368 C1369 1.396 . S
C1368 C1373 1.390 . S
C1369 C1363 1.465 . S
C1369 C1368 1.396 . S
C1369 C1370 1.399 . S
C1370 H1356 0.929 . S
C1370 C1369 1.399 . S
C1370 C1371 1.385 . S
C1371 H1357 0.931 . S
C1371 C1370 1.385 . S
C1371 C1372 1.389 . S
C1372 C1371 1.389 . S
C1372 C1373 1.387 . S
C1373 H1358 0.930 . S
C1373 C1368 1.390 . S
C1373 C1372 1.387 . S
H1374 C1386 0.930 . S
H1375 C1388 0.930 . S
H1376 C1389 0.930 . S
H1377 C1393 0.959 . S
H1378 C1393 0.959 . S
H1379 C1393 0.961 . S
H1380 C1394 0.960 . S
H1381 C1394 0.961 . S
H1382 C1394 0.959 . S
H1383 C1397 0.929 . S
H1384 C1398 0.931 . S
H1385 C1400 0.930 . S
C1386 H1374 0.930 . S
C1386 C1387 1.399 . S
C1386 C1391 1.399 . S
C1387 C1386 1.399 . S
C1387 C1388 1.376 . S
C1388 H1375 0.930 . S
C1388 C1387 1.376 . S
C1388 C1389 1.388 . S
C1389 H1376 0.930 . S
C1389 C1388 1.388 . S
C1389 C1390 1.390 . S
C1390 C1389 1.390 . S
C1390 C1391 1.394 . S
C1390 C1396 1.465 . S
C1391 C1386 1.399 . S
C1391 C1390 1.394 . S
C1391 C1392 1.516 . S
C1392 C1391 1.516 . S
C1392 C1393 1.502 . S
C1392 C1394 1.561 . S
C1392 C1395 1.526 . S
C1393 H1377 0.959 . S
C1393 H1378 0.959 . S
C1393 H1379 0.961 . S
C1393 C1392 1.502 . S
C1394 H1380 0.960 . S
C1394 H1381 0.961 . S
C1394 H1382 0.959 . S
C1394 C1392 1.561 . S
C1395 C1392 1.526 . S
C1395 C1396 1.396 . S
C1395 C1400 1.390 . S
C1396 C1390 1.465 . S
C1396 C1395 1.396 . S
C1396 C1397 1.399 . S
C1397 H1383 0.929 . S
C1397 C1396 1.399 . S
C1397 C1398 1.385 . S
C1398 H1384 0.931 . S
C1398 C1397 1.385 . S
C1398 C1399 1.389 . S
C1399 C1398 1.389 . S
C1399 C1400 1.387 . S
C1400 H1385 0.930 . S
C1400 C1395 1.390 . S
C1400 C1399 1.387 . S
H1401 C1413 0.930 . S
H1402 C1415 0.930 . S
H1403 C1416 0.930 . S
H1404 C1420 0.959 . S
H1405 C1420 0.959 . S
H1406 C1420 0.961 . S
H1407 C1421 0.960 . S
H1408 C1421 0.961 . S
H1409 C1421 0.959 . S
H1410 C1424 0.929 . S
H1411 C1425 0.931 . S
H1412 C1427 0.930 . S
C1413 H1401 0.930 . S
C1413 C1414 1.399 . S
C1413 C1418 1.399 . S
C1414 C1413 1.399 . S
C1414 C1415 1.376 . S
C1415 H1402 0.930 . S
C1415 C1414 1.376 . S
C1415 C1416 1.388 . S
C1416 H1403 0.930 . S
C1416 C1415 1.388 . S
C1416 C1417 1.390 . S
C1417 C1416 1.390 . S
C1417 C1418 1.394 . S
C1417 C1423 1.465 . S
C1418 C1413 1.399 . S
C1418 C1417 1.394 . S
C1418 C1419 1.516 . S
C1419 C1418 1.516 . S
C1419 C1420 1.502 . S
C1419 C1421 1.561 . S
C1419 C1422 1.526 . S
C1420 H1404 0.959 . S
C1420 H1405 0.959 . S
C1420 H1406 0.961 . S
C1420 C1419 1.502 . S
C1421 H1407 0.960 . S
C1421 H1408 0.961 . S
C1421 H1409 0.959 . S
C1421 C1419 1.561 . S
C1422 C1419 1.526 . S
C1422 C1423 1.396 . S
C1422 C1427 1.390 . S
C1423 C1417 1.465 . S
C1423 C1422 1.396 . S
C1423 C1424 1.399 . S
C1424 H1410 0.929 . S
C1424 C1423 1.399 . S
C1424 C1425 1.385 . S
C1425 H1411 0.931 . S
C1425 C1424 1.385 . S
C1425 C1426 1.389 . S
C1426 C1425 1.389 . S
C1426 C1427 1.387 . S
C1427 H1412 0.930 . S
C1427 C1422 1.390 . S
C1427 C1426 1.387 . S
H1428 C1440 0.930 . S
H1429 C1442 0.930 . S
H1430 C1443 0.930 . S
H1431 C1447 0.959 . S
H1432 C1447 0.959 . S
H1433 C1447 0.961 . S
H1434 C1448 0.960 . S
H1435 C1448 0.961 . S
H1436 C1448 0.959 . S
H1437 C1451 0.929 . S
H1438 C1452 0.931 . S
H1439 C1454 0.930 . S
C1440 H1428 0.930 . S
C1440 C1441 1.399 . S
C1440 C1445 1.399 . S
C1441 C1440 1.399 . S
C1441 C1442 1.376 . S
C1442 H1429 0.930 . S
C1442 C1441 1.376 . S
C1442 C1443 1.388 . S
C1443 H1430 0.930 . S
C1443 C1442 1.388 . S
C1443 C1444 1.390 . S
C1444 C1443 1.390 . S
C1444 C1445 1.394 . S
C1444 C1450 1.465 . S
C1445 C1440 1.399 . S
C1445 C1444 1.394 . S
C1445 C1446 1.516 . S
C1446 C1445 1.516 . S
C1446 C1447 1.502 . S
C1446 C1448 1.561 . S
C1446 C1449 1.526 . S
C1447 H1431 0.959 . S
C1447 H1432 0.959 . S
C1447 H1433 0.961 . S
C1447 C1446 1.502 . S
C1448 H1434 0.960 . S
C1448 H1435 0.961 . S
C1448 H1436 0.959 . S
C1448 C1446 1.561 . S
C1449 C1446 1.526 . S
C1449 C1450 1.396 . S
C1449 C1454 1.390 . S
C1450 C1444 1.465 . S
C1450 C1449 1.396 . S
C1450 C1451 1.399 . S
C1451 H1437 0.929 . S
C1451 C1450 1.399 . S
C1451 C1452 1.385 . S
C1452 H1438 0.931 . S
C1452 C1451 1.385 . S
C1452 C1453 1.389 . S
C1453 C1452 1.389 . S
C1453 C1454 1.387 . S
C1454 H1439 0.930 . S
C1454 C1449 1.390 . S
C1454 C1453 1.387 . S
H1455 C1467 0.930 . S
H1456 C1469 0.930 . S
H1457 C1470 0.930 . S
H1458 C1474 0.959 . S
H1459 C1474 0.959 . S
H1460 C1474 0.961 . S
H1461 C1475 0.960 . S
H1462 C1475 0.961 . S
H1463 C1475 0.959 . S
H1464 C1478 0.929 . S
H1465 C1479 0.931 . S
H1466 C1481 0.930 . S
C1467 H1455 0.930 . S
C1467 C1468 1.399 . S
C1467 C1472 1.399 . S
C1468 C1467 1.399 . S
C1468 C1469 1.376 . S
C1469 H1456 0.930 . S
C1469 C1468 1.376 . S
C1469 C1470 1.388 . S
C1470 H1457 0.930 . S
C1470 C1469 1.388 . S
C1470 C1471 1.390 . S
C1471 C1470 1.390 . S
C1471 C1472 1.394 . S
C1471 C1477 1.465 . S
C1472 C1467 1.399 . S
C1472 C1471 1.394 . S
C1472 C1473 1.516 . S
C1473 C1472 1.516 . S
C1473 C1474 1.502 . S
C1473 C1475 1.561 . S
C1473 C1476 1.526 . S
C1474 H1458 0.959 . S
C1474 H1459 0.959 . S
C1474 H1460 0.961 . S
C1474 C1473 1.502 . S
C1475 H1461 0.960 . S
C1475 H1462 0.961 . S
C1475 H1463 0.959 . S
C1475 C1473 1.561 . S
C1476 C1473 1.526 . S
C1476 C1477 1.396 . S
C1476 C1481 1.390 . S
C1477 C1471 1.465 . S
C1477 C1476 1.396 . S
C1477 C1478 1.399 . S
C1478 H1464 0.929 . S
C1478 C1477 1.399 . S
C1478 C1479 1.385 . S
C1479 H1465 0.931 . S
C1479 C1478 1.385 . S
C1479 C1480 1.389 . S
C1480 C1479 1.389 . S
C1480 C1481 1.387 . S
C1481 H1466 0.930 . S
C1481 C1476 1.390 . S
C1481 C1480 1.387 . S
H1482 C1494 0.930 . S
H1483 C1496 0.930 . S
H1484 C1497 0.930 . S
H1485 C1501 0.959 . S
H1486 C1501 0.959 . S
H1487 C1501 0.961 . S
H1488 C1502 0.960 . S
H1489 C1502 0.961 . S
H1490 C1502 0.959 . S
H1491 C1505 0.929 . S
H1492 C1506 0.931 . S
H1493 C1508 0.930 . S
C1494 H1482 0.930 . S
C1494 C1495 1.399 . S
C1494 C1499 1.399 . S
C1495 C1494 1.399 . S
C1495 C1496 1.376 . S
C1496 H1483 0.930 . S
C1496 C1495 1.376 . S
C1496 C1497 1.388 . S
C1497 H1484 0.930 . S
C1497 C1496 1.388 . S
C1497 C1498 1.390 . S
C1498 C1497 1.390 . S
C1498 C1499 1.394 . S
C1498 C1504 1.465 . S
C1499 C1494 1.399 . S
C1499 C1498 1.394 . S
C1499 C1500 1.516 . S
C1500 C1499 1.516 . S
C1500 C1501 1.502 . S
C1500 C1502 1.561 . S
C1500 C1503 1.526 . S
C1501 H1485 0.959 . S
C1501 H1486 0.959 . S
C1501 H1487 0.961 . S
C1501 C1500 1.502 . S
C1502 H1488 0.960 . S
C1502 H1489 0.961 . S
C1502 H1490 0.959 . S
C1502 C1500 1.561 . S
C1503 C1500 1.526 . S
C1503 C1504 1.396 . S
C1503 C1508 1.390 . S
C1504 C1498 1.465 . S
C1504 C1503 1.396 . S
C1504 C1505 1.399 . S
C1505 H1491 0.929 . S
C1505 C1504 1.399 . S
C1505 C1506 1.385 . S
C1506 H1492 0.931 . S
C1506 C1505 1.385 . S
C1506 C1507 1.389 . S
C1507 C1506 1.389 . S
C1507 C1508 1.387 . S
C1508 H1493 0.930 . S
C1508 C1503 1.390 . S
C1508 C1507 1.387 . S
H1509 C1521 0.930 . S
H1510 C1523 0.930 . S
H1511 C1524 0.930 . S
H1512 C1528 0.959 . S
H1513 C1528 0.959 . S
H1514 C1528 0.961 . S
H1515 C1529 0.960 . S
H1516 C1529 0.961 . S
H1517 C1529 0.959 . S
H1518 C1532 0.929 . S
H1519 C1533 0.931 . S
H1520 C1535 0.930 . S
C1521 H1509 0.930 . S
C1521 C1522 1.399 . S
C1521 C1526 1.399 . S
C1522 C1521 1.399 . S
C1522 C1523 1.376 . S
C1523 H1510 0.930 . S
C1523 C1522 1.376 . S
C1523 C1524 1.388 . S
C1524 H1511 0.930 . S
C1524 C1523 1.388 . S
C1524 C1525 1.390 . S
C1525 C1524 1.390 . S
C1525 C1526 1.394 . S
C1525 C1531 1.465 . S
C1526 C1521 1.399 . S
C1526 C1525 1.394 . S
C1526 C1527 1.516 . S
C1527 C1526 1.516 . S
C1527 C1528 1.502 . S
C1527 C1529 1.561 . S
C1527 C1530 1.526 . S
C1528 H1512 0.959 . S
C1528 H1513 0.959 . S
C1528 H1514 0.961 . S
C1528 C1527 1.502 . S
C1529 H1515 0.960 . S
C1529 H1516 0.961 . S
C1529 H1517 0.959 . S
C1529 C1527 1.561 . S
C1530 C1527 1.526 . S
C1530 C1531 1.396 . S
C1530 C1535 1.390 . S
C1531 C1525 1.465 . S
C1531 C1530 1.396 . S
C1531 C1532 1.399 . S
C1532 H1518 0.929 . S
C1532 C1531 1.399 . S
C1532 C1533 1.385 . S
C1533 H1519 0.931 . S
C1533 C1532 1.385 . S
C1533 C1534 1.389 . S
C1534 C1533 1.389 . S
C1534 C1535 1.387 . S
C1535 H1520 0.930 . S
C1535 C1530 1.390 . S
C1535 C1534 1.387 . S
H1536 C1548 0.930 . S
H1537 C1550 0.930 . S
H1538 C1551 0.930 . S
H1539 C1555 0.959 . S
H1540 C1555 0.959 . S
H1541 C1555 0.961 . S
H1542 C1556 0.960 . S
H1543 C1556 0.961 . S
H1544 C1556 0.959 . S
H1545 C1559 0.929 . S
H1546 C1560 0.931 . S
H1547 C1562 0.930 . S
C1548 H1536 0.930 . S
C1548 C1549 1.399 . S
C1548 C1553 1.399 . S
C1549 C1548 1.399 . S
C1549 C1550 1.376 . S
C1550 H1537 0.930 . S
C1550 C1549 1.376 . S
C1550 C1551 1.388 . S
C1551 H1538 0.930 . S
C1551 C1550 1.388 . S
C1551 C1552 1.390 . S
C1552 C1551 1.390 . S
C1552 C1553 1.394 . S
C1552 C1558 1.465 . S
C1553 C1548 1.399 . S
C1553 C1552 1.394 . S
C1553 C1554 1.516 . S
C1554 C1553 1.516 . S
C1554 C1555 1.502 . S
C1554 C1556 1.561 . S
C1554 C1557 1.526 . S
C1555 H1539 0.959 . S
C1555 H1540 0.959 . S
C1555 H1541 0.961 . S
C1555 C1554 1.502 . S
C1556 H1542 0.960 . S
C1556 H1543 0.961 . S
C1556 H1544 0.959 . S
C1556 C1554 1.561 . S
C1557 C1554 1.526 . S
C1557 C1558 1.396 . S
C1557 C1562 1.390 . S
C1558 C1552 1.465 . S
C1558 C1557 1.396 . S
C1558 C1559 1.399 . S
C1559 H1545 0.929 . S
C1559 C1558 1.399 . S
C1559 C1560 1.385 . S
C1560 H1546 0.931 . S
C1560 C1559 1.385 . S
C1560 C1561 1.389 . S
C1561 C1560 1.389 . S
C1561 C1562 1.387 . S
C1562 H1547 0.930 . S
C1562 C1557 1.390 . S
C1562 C1561 1.387 . S
H1563 C1575 0.930 . S
H1564 C1577 0.930 . S
H1565 C1578 0.930 . S
H1566 C1582 0.959 . S
H1567 C1582 0.959 . S
H1568 C1582 0.961 . S
H1569 C1583 0.960 . S
H1570 C1583 0.961 . S
H1571 C1583 0.959 . S
H1572 C1586 0.929 . S
H1573 C1587 0.931 . S
H1574 C1589 0.930 . S
C1575 H1563 0.930 . S
C1575 C1576 1.399 . S
C1575 C1580 1.399 . S
C1576 C1575 1.399 . S
C1576 C1577 1.376 . S
C1577 H1564 0.930 . S
C1577 C1576 1.376 . S
C1577 C1578 1.388 . S
C1578 H1565 0.930 . S
C1578 C1577 1.388 . S
C1578 C1579 1.390 . S
C1579 C1578 1.390 . S
C1579 C1580 1.394 . S
C1579 C1585 1.465 . S
C1580 C1575 1.399 . S
C1580 C1579 1.394 . S
C1580 C1581 1.516 . S
C1581 C1580 1.516 . S
C1581 C1582 1.502 . S
C1581 C1583 1.561 . S
C1581 C1584 1.526 . S
C1582 H1566 0.959 . S
C1582 H1567 0.959 . S
C1582 H1568 0.961 . S
C1582 C1581 1.502 . S
C1583 H1569 0.960 . S
C1583 H1570 0.961 . S
C1583 H1571 0.959 . S
C1583 C1581 1.561 . S
C1584 C1581 1.526 . S
C1584 C1585 1.396 . S
C1584 C1589 1.390 . S
C1585 C1579 1.465 . S
C1585 C1584 1.396 . S
C1585 C1586 1.399 . S
C1586 H1572 0.929 . S
C1586 C1585 1.399 . S
C1586 C1587 1.385 . S
C1587 H1573 0.931 . S
C1587 C1586 1.385 . S
C1587 C1588 1.389 . S
C1588 C1587 1.389 . S
C1588 C1589 1.387 . S
C1589 H1574 0.930 . S
C1589 C1584 1.390 . S
C1589 C1588 1.387 . S
H1590 C1602 0.930 . S
H1591 C1604 0.930 . S
H1592 C1605 0.930 . S
H1593 C1609 0.959 . S
H1594 C1609 0.959 . S
H1595 C1609 0.961 . S
H1596 C1610 0.960 . S
H1597 C1610 0.961 . S
H1598 C1610 0.959 . S
H1599 C1613 0.929 . S
H1600 C1614 0.931 . S
H1601 C1616 0.930 . S
C1602 H1590 0.930 . S
C1602 C1603 1.399 . S
C1602 C1607 1.399 . S
C1603 C1602 1.399 . S
C1603 C1604 1.376 . S
C1604 H1591 0.930 . S
C1604 C1603 1.376 . S
C1604 C1605 1.388 . S
C1605 H1592 0.930 . S
C1605 C1604 1.388 . S
C1605 C1606 1.390 . S
C1606 C1605 1.390 . S
C1606 C1607 1.394 . S
C1606 C1612 1.465 . S
C1607 C1602 1.399 . S
C1607 C1606 1.394 . S
C1607 C1608 1.516 . S
C1608 C1607 1.516 . S
C1608 C1609 1.502 . S
C1608 C1610 1.561 . S
C1608 C1611 1.526 . S
C1609 H1593 0.959 . S
C1609 H1594 0.959 . S
C1609 H1595 0.961 . S
C1609 C1608 1.502 . S
C1610 H1596 0.960 . S
C1610 H1597 0.961 . S
C1610 H1598 0.959 . S
C1610 C1608 1.561 . S
C1611 C1608 1.526 . S
C1611 C1612 1.396 . S
C1611 C1616 1.390 . S
C1612 C1606 1.465 . S
C1612 C1611 1.396 . S
C1612 C1613 1.399 . S
C1613 H1599 0.929 . S
C1613 C1612 1.399 . S
C1613 C1614 1.385 . S
C1614 H1600 0.931 . S
C1614 C1613 1.385 . S
C1614 C1615 1.389 . S
C1615 C1614 1.389 . S
C1615 C1616 1.387 . S
C1616 H1601 0.930 . S
C1616 C1611 1.390 . S
C1616 C1615 1.387 . S
H1617 C1629 0.930 . S
H1618 C1631 0.930 . S
H1619 C1632 0.930 . S
H1620 C1636 0.959 . S
H1621 C1636 0.959 . S
H1622 C1636 0.961 . S
H1623 C1637 0.960 . S
H1624 C1637 0.961 . S
H1625 C1637 0.959 . S
H1626 C1640 0.929 . S
H1627 C1641 0.931 . S
H1628 C1643 0.930 . S
C1629 H1617 0.930 . S
C1629 C1630 1.399 . S
C1629 C1634 1.399 . S
C1630 C1629 1.399 . S
C1630 C1631 1.376 . S
C1631 H1618 0.930 . S
C1631 C1630 1.376 . S
C1631 C1632 1.388 . S
C1632 H1619 0.930 . S
C1632 C1631 1.388 . S
C1632 C1633 1.390 . S
C1633 C1632 1.390 . S
C1633 C1634 1.394 . S
C1633 C1639 1.465 . S
C1634 C1629 1.399 . S
C1634 C1633 1.394 . S
C1634 C1635 1.516 . S
C1635 C1634 1.516 . S
C1635 C1636 1.502 . S
C1635 C1637 1.561 . S
C1635 C1638 1.526 . S
C1636 H1620 0.959 . S
C1636 H1621 0.959 . S
C1636 H1622 0.961 . S
C1636 C1635 1.502 . S
C1637 H1623 0.960 . S
C1637 H1624 0.961 . S
C1637 H1625 0.959 . S
C1637 C1635 1.561 . S
C1638 C1635 1.526 . S
C1638 C1639 1.396 . S
C1638 C1643 1.390 . S
C1639 C1633 1.465 . S
C1639 C1638 1.396 . S
C1639 C1640 1.399 . S
C1640 H1626 0.929 . S
C1640 C1639 1.399 . S
C1640 C1641 1.385 . S
C1641 H1627 0.931 . S
C1641 C1640 1.385 . S
C1641 C1642 1.389 . S
C1642 C1641 1.389 . S
C1642 C1643 1.387 . S
C1643 H1628 0.930 . S
C1643 C1638 1.390 . S
C1643 C1642 1.387 . S
H1644 C1656 0.930 . S
H1645 C1658 0.930 . S
H1646 C1659 0.930 . S
H1647 C1663 0.959 . S
H1648 C1663 0.959 . S
H1649 C1663 0.961 . S
H1650 C1664 0.960 . S
H1651 C1664 0.961 . S
H1652 C1664 0.959 . S
H1653 C1667 0.929 . S
H1654 C1668 0.931 . S
H1655 C1670 0.930 . S
C1656 H1644 0.930 . S
C1656 C1657 1.399 . S
C1656 C1661 1.399 . S
C1657 C1656 1.399 . S
C1657 C1658 1.376 . S
C1658 H1645 0.930 . S
C1658 C1657 1.376 . S
C1658 C1659 1.388 . S
C1659 H1646 0.930 . S
C1659 C1658 1.388 . S
C1659 C1660 1.390 . S
C1660 C1659 1.390 . S
C1660 C1661 1.394 . S
C1660 C1666 1.465 . S
C1661 C1656 1.399 . S
C1661 C1660 1.394 . S
C1661 C1662 1.516 . S
C1662 C1661 1.516 . S
C1662 C1663 1.502 . S
C1662 C1664 1.561 . S
C1662 C1665 1.526 . S
C1663 H1647 0.959 . S
C1663 H1648 0.959 . S
C1663 H1649 0.961 . S
C1663 C1662 1.502 . S
C1664 H1650 0.960 . S
C1664 H1651 0.961 . S
C1664 H1652 0.959 . S
C1664 C1662 1.561 . S
C1665 C1662 1.526 . S
C1665 C1666 1.396 . S
C1665 C1670 1.390 . S
C1666 C1660 1.465 . S
C1666 C1665 1.396 . S
C1666 C1667 1.399 . S
C1667 H1653 0.929 . S
C1667 C1666 1.399 . S
C1667 C1668 1.385 . S
C1668 H1654 0.931 . S
C1668 C1667 1.385 . S
C1668 C1669 1.389 . S
C1669 C1668 1.389 . S
C1669 C1670 1.387 . S
C1670 H1655 0.930 . S
C1670 C1665 1.390 . S
C1670 C1669 1.387 . S
H1671 C1683 0.930 . S
H1672 C1685 0.930 . S
H1673 C1686 0.930 . S
H1674 C1690 0.959 . S
H1675 C1690 0.959 . S
H1676 C1690 0.961 . S
H1677 C1691 0.960 . S
H1678 C1691 0.961 . S
H1679 C1691 0.959 . S
H1680 C1694 0.929 . S
H1681 C1695 0.931 . S
H1682 C1697 0.930 . S
C1683 H1671 0.930 . S
C1683 C1684 1.399 . S
C1683 C1688 1.399 . S
C1684 C1683 1.399 . S
C1684 C1685 1.376 . S
C1685 H1672 0.930 . S
C1685 C1684 1.376 . S
C1685 C1686 1.388 . S
C1686 H1673 0.930 . S
C1686 C1685 1.388 . S
C1686 C1687 1.390 . S
C1687 C1686 1.390 . S
C1687 C1688 1.394 . S
C1687 C1693 1.465 . S
C1688 C1683 1.399 . S
C1688 C1687 1.394 . S
C1688 C1689 1.516 . S
C1689 C1688 1.516 . S
C1689 C1690 1.502 . S
C1689 C1691 1.561 . S
C1689 C1692 1.526 . S
C1690 H1674 0.959 . S
C1690 H1675 0.959 . S
C1690 H1676 0.961 . S
C1690 C1689 1.502 . S
C1691 H1677 0.960 . S
C1691 H1678 0.961 . S
C1691 H1679 0.959 . S
C1691 C1689 1.561 . S
C1692 C1689 1.526 . S
C1692 C1693 1.396 . S
C1692 C1697 1.390 . S
C1693 C1687 1.465 . S
C1693 C1692 1.396 . S
C1693 C1694 1.399 . S
C1694 H1680 0.929 . S
C1694 C1693 1.399 . S
C1694 C1695 1.385 . S
C1695 H1681 0.931 . S
C1695 C1694 1.385 . S
C1695 C1696 1.389 . S
C1696 C1695 1.389 . S
C1696 C1697 1.387 . S
C1697 H1682 0.930 . S
C1697 C1692 1.390 . S
C1697 C1696 1.387 . S
H1698 C1710 0.930 . S
H1699 C1712 0.930 . S
H1700 C1713 0.930 . S
H1701 C1717 0.959 . S
H1702 C1717 0.959 . S
H1703 C1717 0.961 . S
H1704 C1718 0.960 . S
H1705 C1718 0.961 . S
H1706 C1718 0.959 . S
H1707 C1721 0.929 . S
H1708 C1722 0.931 . S
H1709 C1724 0.930 . S
C1710 H1698 0.930 . S
C1710 C1711 1.399 . S
C1710 C1715 1.399 . S
C1711 C1710 1.399 . S
C1711 C1712 1.376 . S
C1712 H1699 0.930 . S
C1712 C1711 1.376 . S
C1712 C1713 1.388 . S
C1713 H1700 0.930 . S
C1713 C1712 1.388 . S
C1713 C1714 1.390 . S
C1714 C1713 1.390 . S
C1714 C1715 1.394 . S
C1714 C1720 1.465 . S
C1715 C1710 1.399 . S
C1715 C1714 1.394 . S
C1715 C1716 1.516 . S
C1716 C1715 1.516 . S
C1716 C1717 1.502 . S
C1716 C1718 1.561 . S
C1716 C1719 1.526 . S
C1717 H1701 0.959 . S
C1717 H1702 0.959 . S
C1717 H1703 0.961 . S
C1717 C1716 1.502 . S
C1718 H1704 0.960 . S
C1718 H1705 0.961 . S
C1718 H1706 0.959 . S
C1718 C1716 1.561 . S
C1719 C1716 1.526 . S
C1719 C1720 1.396 . S
C1719 C1724 1.390 . S
C1720 C1714 1.465 . S
C1720 C1719 1.396 . S
C1720 C1721 1.399 . S
C1721 H1707 0.929 . S
C1721 C1720 1.399 . S
C1721 C1722 1.385 . S
C1722 H1708 0.931 . S
C1722 C1721 1.385 . S
C1722 C1723 1.389 . S
C1723 C1722 1.389 . S
C1723 C1724 1.387 . S
C1724 H1709 0.930 . S
C1724 C1719 1.390 . S
C1724 C1723 1.387 . S
H1725 C1737 0.930 . S
H1726 C1739 0.930 . S
H1727 C1740 0.930 . S
H1728 C1744 0.959 . S
H1729 C1744 0.959 . S
H1730 C1744 0.961 . S
H1731 C1745 0.960 . S
H1732 C1745 0.961 . S
H1733 C1745 0.959 . S
H1734 C1748 0.929 . S
H1735 C1749 0.931 . S
H1736 C1751 0.930 . S
C1737 H1725 0.930 . S
C1737 C1738 1.399 . S
C1737 C1742 1.399 . S
C1738 C1737 1.399 . S
C1738 C1739 1.376 . S
C1739 H1726 0.930 . S
C1739 C1738 1.376 . S
C1739 C1740 1.388 . S
C1740 H1727 0.930 . S
C1740 C1739 1.388 . S
C1740 C1741 1.390 . S
C1741 C1740 1.390 . S
C1741 C1742 1.394 . S
C1741 C1747 1.465 . S
C1742 C1737 1.399 . S
C1742 C1741 1.394 . S
C1742 C1743 1.516 . S
C1743 C1742 1.516 . S
C1743 C1744 1.502 . S
C1743 C1745 1.561 . S
C1743 C1746 1.526 . S
C1744 H1728 0.959 . S
C1744 H1729 0.959 . S
C1744 H1730 0.961 . S
C1744 C1743 1.502 . S
C1745 H1731 0.960 . S
C1745 H1732 0.961 . S
C1745 H1733 0.959 . S
C1745 C1743 1.561 . S
C1746 C1743 1.526 . S
C1746 C1747 1.396 . S
C1746 C1751 1.390 . S
C1747 C1741 1.465 . S
C1747 C1746 1.396 . S
C1747 C1748 1.399 . S
C1748 H1734 0.929 . S
C1748 C1747 1.399 . S
C1748 C1749 1.385 . S
C1749 H1735 0.931 . S
C1749 C1748 1.385 . S
C1749 C1750 1.389 . S
C1750 C1749 1.389 . S
C1750 C1751 1.387 . S
C1751 H1736 0.930 . S
C1751 C1746 1.390 . S
C1751 C1750 1.387 . S
H1752 C1764 0.930 . S
H1753 C1766 0.930 . S
H1754 C1767 0.930 . S
H1755 C1771 0.959 . S
H1756 C1771 0.959 . S
H1757 C1771 0.961 . S
H1758 C1772 0.960 . S
H1759 C1772 0.961 . S
H1760 C1772 0.959 . S
H1761 C1775 0.929 . S
H1762 C1776 0.931 . S
H1763 C1778 0.930 . S
C1764 H1752 0.930 . S
C1764 C1765 1.399 . S
C1764 C1769 1.399 . S
C1765 C1764 1.399 . S
C1765 C1766 1.376 . S
C1766 H1753 0.930 . S
C1766 C1765 1.376 . S
C1766 C1767 1.388 . S
C1767 H1754 0.930 . S
C1767 C1766 1.388 . S
C1767 C1768 1.390 . S
C1768 C1767 1.390 . S
C1768 C1769 1.394 . S
C1768 C1774 1.465 . S
C1769 C1764 1.399 . S
C1769 C1768 1.394 . S
C1769 C1770 1.516 . S
C1770 C1769 1.516 . S
C1770 C1771 1.502 . S
C1770 C1772 1.561 . S
C1770 C1773 1.526 . S
C1771 H1755 0.959 . S
C1771 H1756 0.959 . S
C1771 H1757 0.961 . S
C1771 C1770 1.502 . S
C1772 H1758 0.960 . S
C1772 H1759 0.961 . S
C1772 H1760 0.959 . S
C1772 C1770 1.561 . S
C1773 C1770 1.526 . S
C1773 C1774 1.396 . S
C1773 C1778 1.390 . S
C1774 C1768 1.465 . S
C1774 C1773 1.396 . S
C1774 C1775 1.399 . S
C1775 H1761 0.929 . S
C1775 C1774 1.399 . S
C1775 C1776 1.385 . S
C1776 H1762 0.931 . S
C1776 C1775 1.385 . S
C1776 C1777 1.389 . S
C1777 C1776 1.389 . S
C1777 C1778 1.387 . S
C1778 H1763 0.930 . S
C1778 C1773 1.390 . S
C1778 C1777 1.387 . S
H1779 C1791 0.930 . S
H1780 C1793 0.930 . S
H1781 C1794 0.930 . S
H1782 C1798 0.959 . S
H1783 C1798 0.959 . S
H1784 C1798 0.961 . S
H1785 C1799 0.960 . S
H1786 C1799 0.961 . S
H1787 C1799 0.959 . S
H1788 C1802 0.929 . S
H1789 C1803 0.931 . S
H1790 C1805 0.930 . S
C1791 H1779 0.930 . S
C1791 C1792 1.399 . S
C1791 C1796 1.399 . S
C1792 C1791 1.399 . S
C1792 C1793 1.376 . S
C1793 H1780 0.930 . S
C1793 C1792 1.376 . S
C1793 C1794 1.388 . S
C1794 H1781 0.930 . S
C1794 C1793 1.388 . S
C1794 C1795 1.390 . S
C1795 C1794 1.390 . S
C1795 C1796 1.394 . S
C1795 C1801 1.465 . S
C1796 C1791 1.399 . S
C1796 C1795 1.394 . S
C1796 C1797 1.516 . S
C1797 C1796 1.516 . S
C1797 C1798 1.502 . S
C1797 C1799 1.561 . S
C1797 C1800 1.526 . S
C1798 H1782 0.959 . S
C1798 H1783 0.959 . S
C1798 H1784 0.961 . S
C1798 C1797 1.502 . S
C1799 H1785 0.960 . S
C1799 H1786 0.961 . S
C1799 H1787 0.959 . S
C1799 C1797 1.561 . S
C1800 C1797 1.526 . S
C1800 C1801 1.396 . S
C1800 C1805 1.390 . S
C1801 C1795 1.465 . S
C1801 C1800 1.396 . S
C1801 C1802 1.399 . S
C1802 H1788 0.929 . S
C1802 C1801 1.399 . S
C1802 C1803 1.385 . S
C1803 H1789 0.931 . S
C1803 C1802 1.385 . S
C1803 C1804 1.389 . S
C1804 C1803 1.389 . S
C1804 C1805 1.387 . S
C1805 H1790 0.930 . S
C1805 C1800 1.390 . S
C1805 C1804 1.387 . S
H1806 C1818 0.930 . S
H1807 C1820 0.930 . S
H1808 C1821 0.930 . S
H1809 C1825 0.959 . S
H1810 C1825 0.959 . S
H1811 C1825 0.961 . S
H1812 C1826 0.960 . S
H1813 C1826 0.961 . S
H1814 C1826 0.959 . S
H1815 C1829 0.929 . S
H1816 C1830 0.931 . S
H1817 C1832 0.930 . S
C1818 H1806 0.930 . S
C1818 C1819 1.399 . S
C1818 C1823 1.399 . S
C1819 C1818 1.399 . S
C1819 C1820 1.376 . S
C1820 H1807 0.930 . S
C1820 C1819 1.376 . S
C1820 C1821 1.388 . S
C1821 H1808 0.930 . S
C1821 C1820 1.388 . S
C1821 C1822 1.390 . S
C1822 C1821 1.390 . S
C1822 C1823 1.394 . S
C1822 C1828 1.465 . S
C1823 C1818 1.399 . S
C1823 C1822 1.394 . S
C1823 C1824 1.516 . S
C1824 C1823 1.516 . S
C1824 C1825 1.502 . S
C1824 C1826 1.561 . S
C1824 C1827 1.526 . S
C1825 H1809 0.959 . S
C1825 H1810 0.959 . S
C1825 H1811 0.961 . S
C1825 C1824 1.502 . S
C1826 H1812 0.960 . S
C1826 H1813 0.961 . S
C1826 H1814 0.959 . S
C1826 C1824 1.561 . S
C1827 C1824 1.526 . S
C1827 C1828 1.396 . S
C1827 C1832 1.390 . S
C1828 C1822 1.465 . S
C1828 C1827 1.396 . S
C1828 C1829 1.399 . S
C1829 H1815 0.929 . S
C1829 C1828 1.399 . S
C1829 C1830 1.385 . S
C1830 H1816 0.931 . S
C1830 C1829 1.385 . S
C1830 C1831 1.389 . S
C1831 C1830 1.389 . S
C1831 C1832 1.387 . S
C1832 H1817 0.930 . S
C1832 C1827 1.390 . S
C1832 C1831 1.387 . S
H1833 C1845 0.930 . S
H1834 C1847 0.930 . S
H1835 C1848 0.930 . S
H1836 C1852 0.959 . S
H1837 C1852 0.959 . S
H1838 C1852 0.961 . S
H1839 C1853 0.960 . S
H1840 C1853 0.961 . S
H1841 C1853 0.959 . S
H1842 C1856 0.929 . S
H1843 C1857 0.931 . S
H1844 C1859 0.930 . S
C1845 H1833 0.930 . S
C1845 C1846 1.399 . S
C1845 C1850 1.399 . S
C1846 C1845 1.399 . S
C1846 C1847 1.376 . S
C1847 H1834 0.930 . S
C1847 C1846 1.376 . S
C1847 C1848 1.388 . S
C1848 H1835 0.930 . S
C1848 C1847 1.388 . S
C1848 C1849 1.390 . S
C1849 C1848 1.390 . S
C1849 C1850 1.394 . S
C1849 C1855 1.465 . S
C1850 C1845 1.399 . S
C1850 C1849 1.394 . S
C1850 C1851 1.516 . S
C1851 C1850 1.516 . S
C1851 C1852 1.502 . S
C1851 C1853 1.561 . S
C1851 C1854 1.526 . S
C1852 H1836 0.959 . S
C1852 H1837 0.959 . S
C1852 H1838 0.961 . S
C1852 C1851 1.502 . S
C1853 H1839 0.960 . S
C1853 H1840 0.961 . S
C1853 H1841 0.959 . S
C1853 C1851 1.561 . S
C1854 C1851 1.526 . S
C1854 C1855 1.396 . S
C1854 C1859 1.390 . S
C1855 C1849 1.465 . S
C1855 C1854 1.396 . S
C1855 C1856 1.399 . S
C1856 H1842 0.929 . S
C1856 C1855 1.399 . S
C1856 C1857 1.385 . S
C1857 H1843 0.931 . S
C1857 C1856 1.385 . S
C1857 C1858 1.389 . S
C1858 C1857 1.389 . S
C1858 C1859 1.387 . S
C1859 H1844 0.930 . S
C1859 C1854 1.390 . S
C1859 C1858 1.387 . S
H1860 C1872 0.930 . S
H1861 C1874 0.930 . S
H1862 C1875 0.930 . S
H1863 C1879 0.959 . S
H1864 C1879 0.959 . S
H1865 C1879 0.961 . S
H1866 C1880 0.960 . S
H1867 C1880 0.961 . S
H1868 C1880 0.959 . S
H1869 C1883 0.929 . S
H1870 C1884 0.931 . S
H1871 C1886 0.930 . S
C1872 H1860 0.930 . S
C1872 C1873 1.399 . S
C1872 C1877 1.399 . S
C1873 C1872 1.399 . S
C1873 C1874 1.376 . S
C1874 H1861 0.930 . S
C1874 C1873 1.376 . S
C1874 C1875 1.388 . S
C1875 H1862 0.930 . S
C1875 C1874 1.388 . S
C1875 C1876 1.390 . S
C1876 C1875 1.390 . S
C1876 C1877 1.394 . S
C1876 C1882 1.465 . S
C1877 C1872 1.399 . S
C1877 C1876 1.394 . S
C1877 C1878 1.516 . S
C1878 C1877 1.516 . S
C1878 C1879 1.502 . S
C1878 C1880 1.561 . S
C1878 C1881 1.526 . S
C1879 H1863 0.959 . S
C1879 H1864 0.959 . S
C1879 H1865 0.961 . S
C1879 C1878 1.502 . S
C1880 H1866 0.960 . S
C1880 H1867 0.961 . S
C1880 H1868 0.959 . S
C1880 C1878 1.561 . S
C1881 C1878 1.526 . S
C1881 C1882 1.396 . S
C1881 C1886 1.390 . S
C1882 C1876 1.465 . S
C1882 C1881 1.396 . S
C1882 C1883 1.399 . S
C1883 H1869 0.929 . S
C1883 C1882 1.399 . S
C1883 C1884 1.385 . S
C1884 H1870 0.931 . S
C1884 C1883 1.385 . S
C1884 C1885 1.389 . S
C1885 C1884 1.389 . S
C1885 C1886 1.387 . S
C1886 H1871 0.930 . S
C1886 C1881 1.390 . S
C1886 C1885 1.387 . S
H1887 C1899 0.930 . S
H1888 C1901 0.930 . S
H1889 C1902 0.930 . S
H1890 C1906 0.959 . S
H1891 C1906 0.959 . S
H1892 C1906 0.961 . S
H1893 C1907 0.960 . S
H1894 C1907 0.961 . S
H1895 C1907 0.959 . S
H1896 C1910 0.929 . S
H1897 C1911 0.931 . S
H1898 C1913 0.930 . S
C1899 H1887 0.930 . S
C1899 C1900 1.399 . S
C1899 C1904 1.399 . S
C1900 C1899 1.399 . S
C1900 C1901 1.376 . S
C1901 H1888 0.930 . S
C1901 C1900 1.376 . S
C1901 C1902 1.388 . S
C1902 H1889 0.930 . S
C1902 C1901 1.388 . S
C1902 C1903 1.390 . S
C1903 C1902 1.390 . S
C1903 C1904 1.394 . S
C1903 C1909 1.465 . S
C1904 C1899 1.399 . S
C1904 C1903 1.394 . S
C1904 C1905 1.516 . S
C1905 C1904 1.516 . S
C1905 C1906 1.502 . S
C1905 C1907 1.561 . S
C1905 C1908 1.526 . S
C1906 H1890 0.959 . S
C1906 H1891 0.959 . S
C1906 H1892 0.961 . S
C1906 C1905 1.502 . S
C1907 H1893 0.960 . S
C1907 H1894 0.961 . S
C1907 H1895 0.959 . S
C1907 C1905 1.561 . S
C1908 C1905 1.526 . S
C1908 C1909 1.396 . S
C1908 C1913 1.390 . S
C1909 C1903 1.465 . S
C1909 C1908 1.396 . S
C1909 C1910 1.399 . S
C1910 H1896 0.929 . S
C1910 C1909 1.399 . S
C1910 C1911 1.385 . S
C1911 H1897 0.931 . S
C1911 C1910 1.385 . S
C1911 C1912 1.389 . S
C1912 C1911 1.389 . S
C1912 C1913 1.387 . S
C1913 H1898 0.930 . S
C1913 C1908 1.390 . S
C1913 C1912 1.387 . S
H1914 C1926 0.930 . S
H1915 C1928 0.930 . S
H1916 C1929 0.930 . S
H1917 C1933 0.959 . S
H1918 C1933 0.959 . S
H1919 C1933 0.961 . S
H1920 C1934 0.960 . S
H1921 C1934 0.961 . S
H1922 C1934 0.959 . S
H1923 C1937 0.929 . S
H1924 C1938 0.931 . S
H1925 C1940 0.930 . S
C1926 H1914 0.930 . S
C1926 C1927 1.399 . S
C1926 C1931 1.399 . S
C1927 C1926 1.399 . S
C1927 C1928 1.376 . S
C1928 H1915 0.930 . S
C1928 C1927 1.376 . S
C1928 C1929 1.388 . S
C1929 H1916 0.930 . S
C1929 C1928 1.388 . S
C1929 C1930 1.390 . S
C1930 C1929 1.390 . S
C1930 C1931 1.394 . S
C1930 C1936 1.465 . S
C1931 C1926 1.399 . S
C1931 C1930 1.394 . S
C1931 C1932 1.516 . S
C1932 C1931 1.516 . S
C1932 C1933 1.502 . S
C1932 C1934 1.561 . S
C1932 C1935 1.526 . S
C1933 H1917 0.959 . S
C1933 H1918 0.959 . S
C1933 H1919 0.961 . S
C1933 C1932 1.502 . S
C1934 H1920 0.960 . S
C1934 H1921 0.961 . S
C1934 H1922 0.959 . S
C1934 C1932 1.561 . S
C1935 C1932 1.526 . S
C1935 C1936 1.396 . S
C1935 C1940 1.390 . S
C1936 C1930 1.465 . S
C1936 C1935 1.396 . S
C1936 C1937 1.399 . S
C1937 H1923 0.929 . S
C1937 C1936 1.399 . S
C1937 C1938 1.385 . S
C1938 H1924 0.931 . S
C1938 C1937 1.385 . S
C1938 C1939 1.389 . S
C1939 C1938 1.389 . S
C1939 C1940 1.387 . S
C1940 H1925 0.930 . S
C1940 C1935 1.390 . S
C1940 C1939 1.387 . S
H1941 C1953 0.930 . S
H1942 C1955 0.930 . S
H1943 C1956 0.930 . S
H1944 C1960 0.959 . S
H1945 C1960 0.959 . S
H1946 C1960 0.961 . S
H1947 C1961 0.960 . S
H1948 C1961 0.961 . S
H1949 C1961 0.959 . S
H1950 C1964 0.929 . S
H1951 C1965 0.931 . S
H1952 C1967 0.930 . S
C1953 H1941 0.930 . S
C1953 C1954 1.399 . S
C1953 C1958 1.399 . S
C1954 C1953 1.399 . S
C1954 C1955 1.376 . S
C1955 H1942 0.930 . S
C1955 C1954 1.376 . S
C1955 C1956 1.388 . S
C1956 H1943 0.930 . S
C1956 C1955 1.388 . S
C1956 C1957 1.390 . S
C1957 C1956 1.390 . S
C1957 C1958 1.394 . S
C1957 C1963 1.465 . S
C1958 C1953 1.399 . S
C1958 C1957 1.394 . S
C1958 C1959 1.516 . S
C1959 C1958 1.516 . S
C1959 C1960 1.502 . S
C1959 C1961 1.561 . S
C1959 C1962 1.526 . S
C1960 H1944 0.959 . S
C1960 H1945 0.959 . S
C1960 H1946 0.961 . S
C1960 C1959 1.502 . S
C1961 H1947 0.960 . S
C1961 H1948 0.961 . S
C1961 H1949 0.959 . S
C1961 C1959 1.561 . S
C1962 C1959 1.526 . S
C1962 C1963 1.396 . S
C1962 C1967 1.390 . S
C1963 C1957 1.465 . S
C1963 C1962 1.396 . S
C1963 C1964 1.399 . S
C1964 H1950 0.929 . S
C1964 C1963 1.399 . S
C1964 C1965 1.385 . S
C1965 H1951 0.931 . S
C1965 C1964 1.385 . S
C1965 C1966 1.389 . S
C1966 C1965 1.389 . S
C1966 C1967 1.387 . S
C1967 H1952 0.930 . S
C1967 C1962 1.390 . S
C1967 C1966 1.387 . S
H1968 C1980 0.930 . S
H1969 C1982 0.930 . S
H1970 C1983 0.930 . S
H1971 C1987 0.959 . S
H1972 C1987 0.959 . S
H1973 C1987 0.961 . S
H1974 C1988 0.960 . S
H1975 C1988 0.961 . S
H1976 C1988 0.959 . S
H1977 C1991 0.929 . S
H1978 C1992 0.931 . S
H1979 C1994 0.930 . S
C1980 H1968 0.930 . S
C1980 C1981 1.399 . S
C1980 C1985 1.399 . S
C1981 C1980 1.399 . S
C1981 C1982 1.376 . S
C1982 H1969 0.930 . S
C1982 C1981 1.376 . S
C1982 C1983 1.388 . S
C1983 H1970 0.930 . S
C1983 C1982 1.388 . S
C1983 C1984 1.390 . S
C1984 C1983 1.390 . S
C1984 C1985 1.394 . S
C1984 C1990 1.465 . S
C1985 C1980 1.399 . S
C1985 C1984 1.394 . S
C1985 C1986 1.516 . S
C1986 C1985 1.516 . S
C1986 C1987 1.502 . S
C1986 C1988 1.561 . S
C1986 C1989 1.526 . S
C1987 H1971 0.959 . S
C1987 H1972 0.959 . S
C1987 H1973 0.961 . S
C1987 C1986 1.502 . S
C1988 H1974 0.960 . S
C1988 H1975 0.961 . S
C1988 H1976 0.959 . S
C1988 C1986 1.561 . S
C1989 C1986 1.526 . S
C1989 C1990 1.396 . S
C1989 C1994 1.390 . S
C1990 C1984 1.465 . S
C1990 C1989 1.396 . S
C1990 C1991 1.399 . S
C1991 H1977 0.929 . S
C1991 C1990 1.399 . S
C1991 C1992 1.385 . S
C1992 H1978 0.931 . S
C1992 C1991 1.385 . S
C1992 C1993 1.389 . S
C1993 C1992 1.389 . S
C1993 C1994 1.387 . S
C1994 H1979 0.930 . S
C1994 C1989 1.390 . S
C1994 C1993 1.387 . S
H1995 C2007 0.930 . S
H1996 C2009 0.930 . S
H1997 C2010 0.930 . S
H1998 C2014 0.959 . S
H1999 C2014 0.959 . S
H2000 C2014 0.961 . S
H2001 C2015 0.960 . S
H2002 C2015 0.961 . S
H2003 C2015 0.959 . S
H2004 C2018 0.929 . S
H2005 C2019 0.931 . S
H2006 C2021 0.930 . S
C2007 H1995 0.930 . S
C2007 C2008 1.399 . S
C2007 C2012 1.399 . S
C2008 C2007 1.399 . S
C2008 C2009 1.376 . S
C2009 H1996 0.930 . S
C2009 C2008 1.376 . S
C2009 C2010 1.388 . S
C2010 H1997 0.930 . S
C2010 C2009 1.388 . S
C2010 C2011 1.390 . S
C2011 C2010 1.390 . S
C2011 C2012 1.394 . S
C2011 C2017 1.465 . S
C2012 C2007 1.399 . S
C2012 C2011 1.394 . S
C2012 C2013 1.516 . S
C2013 C2012 1.516 . S
C2013 C2014 1.502 . S
C2013 C2015 1.561 . S
C2013 C2016 1.526 . S
C2014 H1998 0.959 . S
C2014 H1999 0.959 . S
C2014 H2000 0.961 . S
C2014 C2013 1.502 . S
C2015 H2001 0.960 . S
C2015 H2002 0.961 . S
C2015 H2003 0.959 . S
C2015 C2013 1.561 . S
C2016 C2013 1.526 . S
C2016 C2017 1.396 . S
C2016 C2021 1.390 . S
C2017 C2011 1.465 . S
C2017 C2016 1.396 . S
C2017 C2018 1.399 . S
C2018 H2004 0.929 . S
C2018 C2017 1.399 . S
C2018 C2019 1.385 . S
C2019 H2005 0.931 . S
C2019 C2018 1.385 . S
C2019 C2020 1.389 . S
C2020 C2019 1.389 . S
C2020 C2021 1.387 . S
C2021 H2006 0.930 . S
C2021 C2016 1.390 . S
C2021 C2020 1.387 . S
H2022 C2034 0.930 . S
H2023 C2036 0.930 . S
H2024 C2037 0.930 . S
H2025 C2041 0.959 . S
H2026 C2041 0.959 . S
H2027 C2041 0.961 . S
H2028 C2042 0.960 . S
H2029 C2042 0.961 . S
H2030 C2042 0.959 . S
H2031 C2045 0.929 . S
H2032 C2046 0.931 . S
H2033 C2048 0.930 . S
C2034 H2022 0.930 . S
C2034 C2035 1.399 . S
C2034 C2039 1.399 . S
C2035 C2034 1.399 . S
C2035 C2036 1.376 . S
C2036 H2023 0.930 . S
C2036 C2035 1.376 . S
C2036 C2037 1.388 . S
C2037 H2024 0.930 . S
C2037 C2036 1.388 . S
C2037 C2038 1.390 . S
C2038 C2037 1.390 . S
C2038 C2039 1.394 . S
C2038 C2044 1.465 . S
C2039 C2034 1.399 . S
C2039 C2038 1.394 . S
C2039 C2040 1.516 . S
C2040 C2039 1.516 . S
C2040 C2041 1.502 . S
C2040 C2042 1.561 . S
C2040 C2043 1.526 . S
C2041 H2025 0.959 . S
C2041 H2026 0.959 . S
C2041 H2027 0.961 . S
C2041 C2040 1.502 . S
C2042 H2028 0.960 . S
C2042 H2029 0.961 . S
C2042 H2030 0.959 . S
C2042 C2040 1.561 . S
C2043 C2040 1.526 . S
C2043 C2044 1.396 . S
C2043 C2048 1.390 . S
C2044 C2038 1.465 . S
C2044 C2043 1.396 . S
C2044 C2045 1.399 . S
C2045 H2031 0.929 . S
C2045 C2044 1.399 . S
C2045 C2046 1.385 . S
C2046 H2032 0.931 . S
C2046 C2045 1.385 . S
C2046 C2047 1.389 . S
C2047 C2046 1.389 . S
C2047 C2048 1.387 . S
C2048 H2033 0.930 . S
C2048 C2043 1.390 . S
C2048 C2047 1.387 . S
H2049 C2061 0.930 . S
H2050 C2063 0.930 . S
H2051 C2064 0.930 . S
H2052 C2068 0.959 . S
H2053 C2068 0.959 . S
H2054 C2068 0.961 . S
H2055 C2069 0.960 . S
H2056 C2069 0.961 . S
H2057 C2069 0.959 . S
H2058 C2072 0.929 . S
H2059 C2073 0.931 . S
H2060 C2075 0.930 . S
C2061 H2049 0.930 . S
C2061 C2062 1.399 . S
C2061 C2066 1.399 . S
C2062 C2061 1.399 . S
C2062 C2063 1.376 . S
C2063 H2050 0.930 . S
C2063 C2062 1.376 . S
C2063 C2064 1.388 . S
C2064 H2051 0.930 . S
C2064 C2063 1.388 . S
C2064 C2065 1.390 . S
C2065 C2064 1.390 . S
C2065 C2066 1.394 . S
C2065 C2071 1.465 . S
C2066 C2061 1.399 . S
C2066 C2065 1.394 . S
C2066 C2067 1.516 . S
C2067 C2066 1.516 . S
C2067 C2068 1.502 . S
C2067 C2069 1.561 . S
C2067 C2070 1.526 . S
C2068 H2052 0.959 . S
C2068 H2053 0.959 . S
C2068 H2054 0.961 . S
C2068 C2067 1.502 . S
C2069 H2055 0.960 . S
C2069 H2056 0.961 . S
C2069 H2057 0.959 . S
C2069 C2067 1.561 . S
C2070 C2067 1.526 . S
C2070 C2071 1.396 . S
C2070 C2075 1.390 . S
C2071 C2065 1.465 . S
C2071 C2070 1.396 . S
C2071 C2072 1.399 . S
C2072 H2058 0.929 . S
C2072 C2071 1.399 . S
C2072 C2073 1.385 . S
C2073 H2059 0.931 . S
C2073 C2072 1.385 . S
C2073 C2074 1.389 . S
C2074 C2073 1.389 . S
C2074 C2075 1.387 . S
C2075 H2060 0.930 . S
C2075 C2070 1.390 . S
C2075 C2074 1.387 . S
H2076 C2088 0.930 . S
H2077 C2090 0.930 . S
H2078 C2091 0.930 . S
H2079 C2095 0.959 . S
H2080 C2095 0.959 . S
H2081 C2095 0.961 . S
H2082 C2096 0.960 . S
H2083 C2096 0.961 . S
H2084 C2096 0.959 . S
H2085 C2099 0.929 . S
H2086 C2100 0.931 . S
H2087 C2102 0.930 . S
C2088 H2076 0.930 . S
C2088 C2089 1.399 . S
C2088 C2093 1.399 . S
C2089 C2088 1.399 . S
C2089 C2090 1.376 . S
C2090 H2077 0.930 . S
C2090 C2089 1.376 . S
C2090 C2091 1.388 . S
C2091 H2078 0.930 . S
C2091 C2090 1.388 . S
C2091 C2092 1.390 . S
C2092 C2091 1.390 . S
C2092 C2093 1.394 . S
C2092 C2098 1.465 . S
C2093 C2088 1.399 . S
C2093 C2092 1.394 . S
C2093 C2094 1.516 . S
C2094 C2093 1.516 . S
C2094 C2095 1.502 . S
C2094 C2096 1.561 . S
C2094 C2097 1.526 . S
C2095 H2079 0.959 . S
C2095 H2080 0.959 . S
C2095 H2081 0.961 . S
C2095 C2094 1.502 . S
C2096 H2082 0.960 . S
C2096 H2083 0.961 . S
C2096 H2084 0.959 . S
C2096 C2094 1.561 . S
C2097 C2094 1.526 . S
C2097 C2098 1.396 . S
C2097 C2102 1.390 . S
C2098 C2092 1.465 . S
C2098 C2097 1.396 . S
C2098 C2099 1.399 . S
C2099 H2085 0.929 . S
C2099 C2098 1.399 . S
C2099 C2100 1.385 . S
C2100 H2086 0.931 . S
C2100 C2099 1.385 . S
C2100 C2101 1.389 . S
C2101 C2100 1.389 . S
C2101 C2102 1.387 . S
C2102 H2087 0.930 . S
C2102 C2097 1.390 . S
C2102 C2101 1.387 . S
H2103 C2115 0.930 . S
H2104 C2117 0.930 . S
H2105 C2118 0.930 . S
H2106 C2122 0.959 . S
H2107 C2122 0.959 . S
H2108 C2122 0.961 . S
H2109 C2123 0.960 . S
H2110 C2123 0.961 . S
H2111 C2123 0.959 . S
H2112 C2126 0.929 . S
H2113 C2127 0.931 . S
H2114 C2129 0.930 . S
C2115 H2103 0.930 . S
C2115 C2116 1.399 . S
C2115 C2120 1.399 . S
C2116 C2115 1.399 . S
C2116 C2117 1.376 . S
C2117 H2104 0.930 . S
C2117 C2116 1.376 . S
C2117 C2118 1.388 . S
C2118 H2105 0.930 . S
C2118 C2117 1.388 . S
C2118 C2119 1.390 . S
C2119 C2118 1.390 . S
C2119 C2120 1.394 . S
C2119 C2125 1.465 . S
C2120 C2115 1.399 . S
C2120 C2119 1.394 . S
C2120 C2121 1.516 . S
C2121 C2120 1.516 . S
C2121 C2122 1.502 . S
C2121 C2123 1.561 . S
C2121 C2124 1.526 . S
C2122 H2106 0.959 . S
C2122 H2107 0.959 . S
C2122 H2108 0.961 . S
C2122 C2121 1.502 . S
C2123 H2109 0.960 . S
C2123 H2110 0.961 . S
C2123 H2111 0.959 . S
C2123 C2121 1.561 . S
C2124 C2121 1.526 . S
C2124 C2125 1.396 . S
C2124 C2129 1.390 . S
C2125 C2119 1.465 . S
C2125 C2124 1.396 . S
C2125 C2126 1.399 . S
C2126 H2112 0.929 . S
C2126 C2125 1.399 . S
C2126 C2127 1.385 . S
C2127 H2113 0.931 . S
C2127 C2126 1.385 . S
C2127 C2128 1.389 . S
C2128 C2127 1.389 . S
C2128 C2129 1.387 . S
C2129 H2114 0.930 . S
C2129 C2124 1.390 . S
C2129 C2128 1.387 . S
H2130 C2142 0.930 . S
H2131 C2144 0.930 . S
H2132 C2145 0.930 . S
H2133 C2149 0.959 . S
H2134 C2149 0.959 . S
H2135 C2149 0.961 . S
H2136 C2150 0.960 . S
H2137 C2150 0.961 . S
H2138 C2150 0.959 . S
H2139 C2153 0.929 . S
H2140 C2154 0.931 . S
H2141 C2156 0.930 . S
C2142 H2130 0.930 . S
C2142 C2143 1.399 . S
C2142 C2147 1.399 . S
C2143 C2142 1.399 . S
C2143 C2144 1.376 . S
C2144 H2131 0.930 . S
C2144 C2143 1.376 . S
C2144 C2145 1.388 . S
C2145 H2132 0.930 . S
C2145 C2144 1.388 . S
C2145 C2146 1.390 . S
C2146 C2145 1.390 . S
C2146 C2147 1.394 . S
C2146 C2152 1.465 . S
C2147 C2142 1.399 . S
C2147 C2146 1.394 . S
C2147 C2148 1.516 . S
C2148 C2147 1.516 . S
C2148 C2149 1.502 . S
C2148 C2150 1.561 . S
C2148 C2151 1.526 . S
C2149 H2133 0.959 . S
C2149 H2134 0.959 . S
C2149 H2135 0.961 . S
C2149 C2148 1.502 . S
C2150 H2136 0.960 . S
C2150 H2137 0.961 . S
C2150 H2138 0.959 . S
C2150 C2148 1.561 . S
C2151 C2148 1.526 . S
C2151 C2152 1.396 . S
C2151 C2156 1.390 . S
C2152 C2146 1.465 . S
C2152 C2151 1.396 . S
C2152 C2153 1.399 . S
C2153 H2139 0.929 . S
C2153 C2152 1.399 . S
C2153 C2154 1.385 . S
C2154 H2140 0.931 . S
C2154 C2153 1.385 . S
C2154 C2155 1.389 . S
C2155 C2154 1.389 . S
C2155 C2156 1.387 . S
C2156 H2141 0.930 . S
C2156 C2151 1.390 . S
C2156 C2155 1.387 . S
H2157 C2169 0.930 . S
H2158 C2171 0.930 . S
H2159 C2172 0.930 . S
H2160 C2176 0.959 . S
H2161 C2176 0.959 . S
H2162 C2176 0.961 . S
H2163 C2177 0.960 . S
H2164 C2177 0.961 . S
H2165 C2177 0.959 . S
H2166 C2180 0.929 . S
H2167 C2181 0.931 . S
H2168 C2183 0.930 . S
C2169 H2157 0.930 . S
C2169 C2170 1.399 . S
C2169 C2174 1.399 . S
C2170 C2169 1.399 . S
C2170 C2171 1.376 . S
C2171 H2158 0.930 . S
C2171 C2170 1.376 . S
C2171 C2172 1.388 . S
C2172 H2159 0.930 . S
C2172 C2171 1.388 . S
C2172 C2173 1.390 . S
C2173 C2172 1.390 . S
C2173 C2174 1.394 . S
C2173 C2179 1.465 . S
C2174 C2169 1.399 . S
C2174 C2173 1.394 . S
C2174 C2175 1.516 . S
C2175 C2174 1.516 . S
C2175 C2176 1.502 . S
C2175 C2177 1.561 . S
C2175 C2178 1.526 . S
C2176 H2160 0.959 . S
C2176 H2161 0.959 . S
C2176 H2162 0.961 . S
C2176 C2175 1.502 . S
C2177 H2163 0.960 . S
C2177 H2164 0.961 . S
C2177 H2165 0.959 . S
C2177 C2175 1.561 . S
C2178 C2175 1.526 . S
C2178 C2179 1.396 . S
C2178 C2183 1.390 . S
C2179 C2173 1.465 . S
C2179 C2178 1.396 . S
C2179 C2180 1.399 . S
C2180 H2166 0.929 . S
C2180 C2179 1.399 . S
C2180 C2181 1.385 . S
C2181 H2167 0.931 . S
C2181 C2180 1.385 . S
C2181 C2182 1.389 . S
C2182 C2181 1.389 . S
C2182 C2183 1.387 . S
C2183 H2168 0.930 . S
C2183 C2178 1.390 . S
C2183 C2182 1.387 . S
H2184 C2196 0.930 . S
H2185 C2198 0.930 . S
H2186 C2199 0.930 . S
H2187 C2203 0.959 . S
H2188 C2203 0.959 . S
H2189 C2203 0.961 . S
H2190 C2204 0.960 . S
H2191 C2204 0.961 . S
H2192 C2204 0.959 . S
H2193 C2207 0.929 . S
H2194 C2208 0.931 . S
H2195 C2210 0.930 . S
C2196 H2184 0.930 . S
C2196 C2197 1.399 . S
C2196 C2201 1.399 . S
C2197 C2196 1.399 . S
C2197 C2198 1.376 . S
C2198 H2185 0.930 . S
C2198 C2197 1.376 . S
C2198 C2199 1.388 . S
C2199 H2186 0.930 . S
C2199 C2198 1.388 . S
C2199 C2200 1.390 . S
C2200 C2199 1.390 . S
C2200 C2201 1.394 . S
C2200 C2206 1.465 . S
C2201 C2196 1.399 . S
C2201 C2200 1.394 . S
C2201 C2202 1.516 . S
C2202 C2201 1.516 . S
C2202 C2203 1.502 . S
C2202 C2204 1.561 . S
C2202 C2205 1.526 . S
C2203 H2187 0.959 . S
C2203 H2188 0.959 . S
C2203 H2189 0.961 . S
C2203 C2202 1.502 . S
C2204 H2190 0.960 . S
C2204 H2191 0.961 . S
C2204 H2192 0.959 . S
C2204 C2202 1.561 . S
C2205 C2202 1.526 . S
C2205 C2206 1.396 . S
C2205 C2210 1.390 . S
C2206 C2200 1.465 . S
C2206 C2205 1.396 . S
C2206 C2207 1.399 . S
C2207 H2193 0.929 . S
C2207 C2206 1.399 . S
C2207 C2208 1.385 . S
C2208 H2194 0.931 . S
C2208 C2207 1.385 . S
C2208 C2209 1.389 . S
C2209 C2208 1.389 . S
C2209 C2210 1.387 . S
C2210 H2195 0.930 . S
C2210 C2205 1.390 . S
C2210 C2209 1.387 . S
H2211 C2223 0.930 . S
H2212 C2225 0.930 . S
H2213 C2226 0.930 . S
H2214 C2230 0.959 . S
H2215 C2230 0.959 . S
H2216 C2230 0.961 . S
H2217 C2231 0.960 . S
H2218 C2231 0.961 . S
H2219 C2231 0.959 . S
H2220 C2234 0.929 . S
H2221 C2235 0.931 . S
H2222 C2237 0.930 . S
C2223 H2211 0.930 . S
C2223 C2224 1.399 . S
C2223 C2228 1.399 . S
C2224 C2223 1.399 . S
C2224 C2225 1.376 . S
C2225 H2212 0.930 . S
C2225 C2224 1.376 . S
C2225 C2226 1.388 . S
C2226 H2213 0.930 . S
C2226 C2225 1.388 . S
C2226 C2227 1.390 . S
C2227 C2226 1.390 . S
C2227 C2228 1.394 . S
C2227 C2233 1.465 . S
C2228 C2223 1.399 . S
C2228 C2227 1.394 . S
C2228 C2229 1.516 . S
C2229 C2228 1.516 . S
C2229 C2230 1.502 . S
C2229 C2231 1.561 . S
C2229 C2232 1.526 . S
C2230 H2214 0.959 . S
C2230 H2215 0.959 . S
C2230 H2216 0.961 . S
C2230 C2229 1.502 . S
C2231 H2217 0.960 . S
C2231 H2218 0.961 . S
C2231 H2219 0.959 . S
C2231 C2229 1.561 . S
C2232 C2229 1.526 . S
C2232 C2233 1.396 . S
C2232 C2237 1.390 . S
C2233 C2227 1.465 . S
C2233 C2232 1.396 . S
C2233 C2234 1.399 . S
C2234 H2220 0.929 . S
C2234 C2233 1.399 . S
C2234 C2235 1.385 . S
C2235 H2221 0.931 . S
C2235 C2234 1.385 . S
C2235 C2236 1.389 . S
C2236 C2235 1.389 . S
C2236 C2237 1.387 . S
C2237 H2222 0.930 . S
C2237 C2232 1.390 . S
C2237 C2236 1.387 . S
H2238 C2250 0.930 . S
H2239 C2252 0.930 . S
H2240 C2253 0.930 . S
H2241 C2257 0.959 . S
H2242 C2257 0.959 . S
H2243 C2257 0.961 . S
H2244 C2258 0.960 . S
H2245 C2258 0.961 . S
H2246 C2258 0.959 . S
H2247 C2261 0.929 . S
H2248 C2262 0.931 . S
H2249 C2264 0.930 . S
C2250 H2238 0.930 . S
C2250 C2251 1.399 . S
C2250 C2255 1.399 . S
C2251 C2250 1.399 . S
C2251 C2252 1.376 . S
C2252 H2239 0.930 . S
C2252 C2251 1.376 . S
C2252 C2253 1.388 . S
C2253 H2240 0.930 . S
C2253 C2252 1.388 . S
C2253 C2254 1.390 . S
C2254 C2253 1.390 . S
C2254 C2255 1.394 . S
C2254 C2260 1.465 . S
C2255 C2250 1.399 . S
C2255 C2254 1.394 . S
C2255 C2256 1.516 . S
C2256 C2255 1.516 . S
C2256 C2257 1.502 . S
C2256 C2258 1.561 . S
C2256 C2259 1.526 . S
C2257 H2241 0.959 . S
C2257 H2242 0.959 . S
C2257 H2243 0.961 . S
C2257 C2256 1.502 . S
C2258 H2244 0.960 . S
C2258 H2245 0.961 . S
C2258 H2246 0.959 . S
C2258 C2256 1.561 . S
C2259 C2256 1.526 . S
C2259 C2260 1.396 . S
C2259 C2264 1.390 . S
C2260 C2254 1.465 . S
C2260 C2259 1.396 . S
C2260 C2261 1.399 . S
C2261 H2247 0.929 . S
C2261 C2260 1.399 . S
C2261 C2262 1.385 . S
C2262 H2248 0.931 . S
C2262 C2261 1.385 . S
C2262 C2263 1.389 . S
C2263 C2262 1.389 . S
C2263 C2264 1.387 . S
C2264 H2249 0.930 . S
C2264 C2259 1.390 . S
C2264 C2263 1.387 . S
H2265 C2277 0.930 . S
H2266 C2279 0.930 . S
H2267 C2280 0.930 . S
H2268 C2284 0.959 . S
H2269 C2284 0.959 . S
H2270 C2284 0.961 . S
H2271 C2285 0.960 . S
H2272 C2285 0.961 . S
H2273 C2285 0.959 . S
H2274 C2288 0.929 . S
H2275 C2289 0.931 . S
H2276 C2291 0.930 . S
C2277 H2265 0.930 . S
C2277 C2278 1.399 . S
C2277 C2282 1.399 . S
C2278 C2277 1.399 . S
C2278 C2279 1.376 . S
C2279 H2266 0.930 . S
C2279 C2278 1.376 . S
C2279 C2280 1.388 . S
C2280 H2267 0.930 . S
C2280 C2279 1.388 . S
C2280 C2281 1.390 . S
C2281 C2280 1.390 . S
C2281 C2282 1.394 . S
C2281 C2287 1.465 . S
C2282 C2277 1.399 . S
C2282 C2281 1.394 . S
C2282 C2283 1.516 . S
C2283 C2282 1.516 . S
C2283 C2284 1.502 . S
C2283 C2285 1.561 . S
C2283 C2286 1.526 . S
C2284 H2268 0.959 . S
C2284 H2269 0.959 . S
C2284 H2270 0.961 . S
C2284 C2283 1.502 . S
C2285 H2271 0.960 . S
C2285 H2272 0.961 . S
C2285 H2273 0.959 . S
C2285 C2283 1.561 . S
C2286 C2283 1.526 . S
C2286 C2287 1.396 . S
C2286 C2291 1.390 . S
C2287 C2281 1.465 . S
C2287 C2286 1.396 . S
C2287 C2288 1.399 . S
C2288 H2274 0.929 . S
C2288 C2287 1.399 . S
C2288 C2289 1.385 . S
C2289 H2275 0.931 . S
C2289 C2288 1.385 . S
C2289 C2290 1.389 . S
C2290 C2289 1.389 . S
C2290 C2291 1.387 . S
C2291 H2276 0.930 . S
C2291 C2286 1.390 . S
C2291 C2290 1.387 . S
H2292 C2304 0.930 . S
H2293 C2306 0.930 . S
H2294 C2307 0.930 . S
H2295 C2311 0.959 . S
H2296 C2311 0.959 . S
H2297 C2311 0.961 . S
H2298 C2312 0.960 . S
H2299 C2312 0.961 . S
H2300 C2312 0.959 . S
H2301 C2315 0.929 . S
H2302 C2316 0.931 . S
H2303 C2318 0.930 . S
C2304 H2292 0.930 . S
C2304 C2305 1.399 . S
C2304 C2309 1.399 . S
C2305 C2304 1.399 . S
C2305 C2306 1.376 . S
C2306 H2293 0.930 . S
C2306 C2305 1.376 . S
C2306 C2307 1.388 . S
C2307 H2294 0.930 . S
C2307 C2306 1.388 . S
C2307 C2308 1.390 . S
C2308 C2307 1.390 . S
C2308 C2309 1.394 . S
C2308 C2314 1.465 . S
C2309 C2304 1.399 . S
C2309 C2308 1.394 . S
C2309 C2310 1.516 . S
C2310 C2309 1.516 . S
C2310 C2311 1.502 . S
C2310 C2312 1.561 . S
C2310 C2313 1.526 . S
C2311 H2295 0.959 . S
C2311 H2296 0.959 . S
C2311 H2297 0.961 . S
C2311 C2310 1.502 . S
C2312 H2298 0.960 . S
C2312 H2299 0.961 . S
C2312 H2300 0.959 . S
C2312 C2310 1.561 . S
C2313 C2310 1.526 . S
C2313 C2314 1.396 . S
C2313 C2318 1.390 . S
C2314 C2308 1.465 . S
C2314 C2313 1.396 . S
C2314 C2315 1.399 . S
C2315 H2301 0.929 . S
C2315 C2314 1.399 . S
C2315 C2316 1.385 . S
C2316 H2302 0.931 . S
C2316 C2315 1.385 . S
C2316 C2317 1.389 . S
C2317 C2316 1.389 . S
C2317 C2318 1.387 . S
C2318 H2303 0.930 . S
C2318 C2313 1.390 . S
C2318 C2317 1.387 . S
H2319 C2331 0.930 . S
H2320 C2333 0.930 . S
H2321 C2334 0.930 . S
H2322 C2338 0.959 . S
H2323 C2338 0.959 . S
H2324 C2338 0.961 . S
H2325 C2339 0.960 . S
H2326 C2339 0.961 . S
H2327 C2339 0.959 . S
H2328 C2342 0.929 . S
H2329 C2343 0.931 . S
H2330 C2345 0.930 . S
C2331 H2319 0.930 . S
C2331 C2332 1.399 . S
C2331 C2336 1.399 . S
C2332 C2331 1.399 . S
C2332 C2333 1.376 . S
C2333 H2320 0.930 . S
C2333 C2332 1.376 . S
C2333 C2334 1.388 . S
C2334 H2321 0.930 . S
C2334 C2333 1.388 . S
C2334 C2335 1.390 . S
C2335 C2334 1.390 . S
C2335 C2336 1.394 . S
C2335 C2341 1.465 . S
C2336 C2331 1.399 . S
C2336 C2335 1.394 . S
C2336 C2337 1.516 . S
C2337 C2336 1.516 . S
C2337 C2338 1.502 . S
C2337 C2339 1.561 . S
C2337 C2340 1.526 . S
C2338 H2322 0.959 . S
C2338 H2323 0.959 . S
C2338 H2324 0.961 . S
C2338 C2337 1.502 . S
C2339 H2325 0.960 . S
C2339 H2326 0.961 . S
C2339 H2327 0.959 . S
C2339 C2337 1.561 . S
C2340 C2337 1.526 . S
C2340 C2341 1.396 . S
C2340 C2345 1.390 . S
C2341 C2335 1.465 . S
C2341 C2340 1.396 . S
C2341 C2342 1.399 . S
C2342 H2328 0.929 . S
C2342 C2341 1.399 . S
C2342 C2343 1.385 . S
C2343 H2329 0.931 . S
C2343 C2342 1.385 . S
C2343 C2344 1.389 . S
C2344 C2343 1.389 . S
C2344 C2345 1.387 . S
C2345 H2330 0.930 . S
C2345 C2340 1.390 . S
C2345 C2344 1.387 . S
H2346 C2358 0.930 . S
H2347 C2360 0.930 . S
H2348 C2361 0.930 . S
H2349 C2365 0.959 . S
H2350 C2365 0.959 . S
H2351 C2365 0.961 . S
H2352 C2366 0.960 . S
H2353 C2366 0.961 . S
H2354 C2366 0.959 . S
H2355 C2369 0.929 . S
H2356 C2370 0.931 . S
H2357 C2372 0.930 . S
C2358 H2346 0.930 . S
C2358 C2359 1.399 . S
C2358 C2363 1.399 . S
C2359 C2358 1.399 . S
C2359 C2360 1.376 . S
C2360 H2347 0.930 . S
C2360 C2359 1.376 . S
C2360 C2361 1.388 . S
C2361 H2348 0.930 . S
C2361 C2360 1.388 . S
C2361 C2362 1.390 . S
C2362 C2361 1.390 . S
C2362 C2363 1.394 . S
C2362 C2368 1.465 . S
C2363 C2358 1.399 . S
C2363 C2362 1.394 . S
C2363 C2364 1.516 . S
C2364 C2363 1.516 . S
C2364 C2365 1.502 . S
C2364 C2366 1.561 . S
C2364 C2367 1.526 . S
C2365 H2349 0.959 . S
C2365 H2350 0.959 . S
C2365 H2351 0.961 . S
C2365 C2364 1.502 . S
C2366 H2352 0.960 . S
C2366 H2353 0.961 . S
C2366 H2354 0.959 . S
C2366 C2364 1.561 . S
C2367 C2364 1.526 . S
C2367 C2368 1.396 . S
C2367 C2372 1.390 . S
C2368 C2362 1.465 . S
C2368 C2367 1.396 . S
C2368 C2369 1.399 . S
C2369 H2355 0.929 . S
C2369 C2368 1.399 . S
C2369 C2370 1.385 . S
C2370 H2356 0.931 . S
C2370 C2369 1.385 . S
C2370 C2371 1.389 . S
C2371 C2370 1.389 . S
C2371 C2372 1.387 . S
C2372 H2357 0.930 . S
C2372 C2367 1.390 . S
C2372 C2371 1.387 . S
H2373 C2385 0.930 . S
H2374 C2387 0.930 . S
H2375 C2388 0.930 . S
H2376 C2392 0.959 . S
H2377 C2392 0.959 . S
H2378 C2392 0.961 . S
H2379 C2393 0.960 . S
H2380 C2393 0.961 . S
H2381 C2393 0.959 . S
H2382 C2396 0.929 . S
H2383 C2397 0.931 . S
H2384 C2399 0.930 . S
C2385 H2373 0.930 . S
C2385 C2386 1.399 . S
C2385 C2390 1.399 . S
C2386 C2385 1.399 . S
C2386 C2387 1.376 . S
C2387 H2374 0.930 . S
C2387 C2386 1.376 . S
C2387 C2388 1.388 . S
C2388 H2375 0.930 . S
C2388 C2387 1.388 . S
C2388 C2389 1.390 . S
C2389 C2388 1.390 . S
C2389 C2390 1.394 . S
C2389 C2395 1.465 . S
C2390 C2385 1.399 . S
C2390 C2389 1.394 . S
C2390 C2391 1.516 . S
C2391 C2390 1.516 . S
C2391 C2392 1.502 . S
C2391 C2393 1.561 . S
C2391 C2394 1.526 . S
C2392 H2376 0.959 . S
C2392 H2377 0.959 . S
C2392 H2378 0.961 . S
C2392 C2391 1.502 . S
C2393 H2379 0.960 . S
C2393 H2380 0.961 . S
C2393 H2381 0.959 . S
C2393 C2391 1.561 . S
C2394 C2391 1.526 . S
C2394 C2395 1.396 . S
C2394 C2399 1.390 . S
C2395 C2389 1.465 . S
C2395 C2394 1.396 . S
C2395 C2396 1.399 . S
C2396 H2382 0.929 . S
C2396 C2395 1.399 . S
C2396 C2397 1.385 . S
C2397 H2383 0.931 . S
C2397 C2396 1.385 . S
C2397 C2398 1.389 . S
C2398 C2397 1.389 . S
C2398 C2399 1.387 . S
C2399 H2384 0.930 . S
C2399 C2394 1.390 . S
C2399 C2398 1.387 . S
H2400 C2412 0.930 . S
H2401 C2414 0.930 . S
H2402 C2415 0.930 . S
H2403 C2419 0.959 . S
H2404 C2419 0.959 . S
H2405 C2419 0.961 . S
H2406 C2420 0.960 . S
H2407 C2420 0.961 . S
H2408 C2420 0.959 . S
H2409 C2423 0.929 . S
H2410 C2424 0.931 . S
H2411 C2426 0.930 . S
C2412 H2400 0.930 . S
C2412 C2413 1.399 . S
C2412 C2417 1.399 . S
C2413 C2412 1.399 . S
C2413 C2414 1.376 . S
C2414 H2401 0.930 . S
C2414 C2413 1.376 . S
C2414 C2415 1.388 . S
C2415 H2402 0.930 . S
C2415 C2414 1.388 . S
C2415 C2416 1.390 . S
C2416 C2415 1.390 . S
C2416 C2417 1.394 . S
C2416 C2422 1.465 . S
C2417 C2412 1.399 . S
C2417 C2416 1.394 . S
C2417 C2418 1.516 . S
C2418 C2417 1.516 . S
C2418 C2419 1.502 . S
C2418 C2420 1.561 . S
C2418 C2421 1.526 . S
C2419 H2403 0.959 . S
C2419 H2404 0.959 . S
C2419 H2405 0.961 . S
C2419 C2418 1.502 . S
C2420 H2406 0.960 . S
C2420 H2407 0.961 . S
C2420 H2408 0.959 . S
C2420 C2418 1.561 . S
C2421 C2418 1.526 . S
C2421 C2422 1.396 . S
C2421 C2426 1.390 . S
C2422 C2416 1.465 . S
C2422 C2421 1.396 . S
C2422 C2423 1.399 . S
C2423 H2409 0.929 . S
C2423 C2422 1.399 . S
C2423 C2424 1.385 . S
C2424 H2410 0.931 . S
C2424 C2423 1.385 . S
C2424 C2425 1.389 . S
C2425 C2424 1.389 . S
C2425 C2426 1.387 . S
C2426 H2411 0.930 . S
C2426 C2421 1.390 . S
C2426 C2425 1.387 . S
H2427 C2439 0.930 . S
H2428 C2441 0.930 . S
H2429 C2442 0.930 . S
H2430 C2446 0.959 . S
H2431 C2446 0.959 . S
H2432 C2446 0.961 . S
H2433 C2447 0.960 . S
H2434 C2447 0.961 . S
H2435 C2447 0.959 . S
H2436 C2450 0.929 . S
H2437 C2451 0.931 . S
H2438 C2453 0.930 . S
C2439 H2427 0.930 . S
C2439 C2440 1.399 . S
C2439 C2444 1.399 . S
C2440 C2439 1.399 . S
C2440 C2441 1.376 . S
C2441 H2428 0.930 . S
C2441 C2440 1.376 . S
C2441 C2442 1.388 . S
C2442 H2429 0.930 . S
C2442 C2441 1.388 . S
C2442 C2443 1.390 . S
C2443 C2442 1.390 . S
C2443 C2444 1.394 . S
C2443 C2449 1.465 . S
C2444 C2439 1.399 . S
C2444 C2443 1.394 . S
C2444 C2445 1.516 . S
C2445 C2444 1.516 . S
C2445 C2446 1.502 . S
C2445 C2447 1.561 . S
C2445 C2448 1.526 . S
C2446 H2430 0.959 . S
C2446 H2431 0.959 . S
C2446 H2432 0.961 . S
C2446 C2445 1.502 . S
C2447 H2433 0.960 . S
C2447 H2434 0.961 . S
C2447 H2435 0.959 . S
C2447 C2445 1.561 . S
C2448 C2445 1.526 . S
C2448 C2449 1.396 . S
C2448 C2453 1.390 . S
C2449 C2443 1.465 . S
C2449 C2448 1.396 . S
C2449 C2450 1.399 . S
C2450 H2436 0.929 . S
C2450 C2449 1.399 . S
C2450 C2451 1.385 . S
C2451 H2437 0.931 . S
C2451 C2450 1.385 . S
C2451 C2452 1.389 . S
C2452 C2451 1.389 . S
C2452 C2453 1.387 . S
C2453 H2438 0.930 . S
C2453 C2448 1.390 . S
C2453 C2452 1.387 . S
H2454 C2466 0.930 . S
H2455 C2468 0.930 . S
H2456 C2469 0.930 . S
H2457 C2473 0.959 . S
H2458 C2473 0.959 . S
H2459 C2473 0.961 . S
H2460 C2474 0.960 . S
H2461 C2474 0.961 . S
H2462 C2474 0.959 . S
H2463 C2477 0.929 . S
H2464 C2478 0.931 . S
H2465 C2480 0.930 . S
C2466 H2454 0.930 . S
C2466 C2467 1.399 . S
C2466 C2471 1.399 . S
C2467 C2466 1.399 . S
C2467 C2468 1.376 . S
C2468 H2455 0.930 . S
C2468 C2467 1.376 . S
C2468 C2469 1.388 . S
C2469 H2456 0.930 . S
C2469 C2468 1.388 . S
C2469 C2470 1.390 . S
C2470 C2469 1.390 . S
C2470 C2471 1.394 . S
C2470 C2476 1.465 . S
C2471 C2466 1.399 . S
C2471 C2470 1.394 . S
C2471 C2472 1.516 . S
C2472 C2471 1.516 . S
C2472 C2473 1.502 . S
C2472 C2474 1.561 . S
C2472 C2475 1.526 . S
C2473 H2457 0.959 . S
C2473 H2458 0.959 . S
C2473 H2459 0.961 . S
C2473 C2472 1.502 . S
C2474 H2460 0.960 . S
C2474 H2461 0.961 . S
C2474 H2462 0.959 . S
C2474 C2472 1.561 . S
C2475 C2472 1.526 . S
C2475 C2476 1.396 . S
C2475 C2480 1.390 . S
C2476 C2470 1.465 . S
C2476 C2475 1.396 . S
C2476 C2477 1.399 . S
C2477 H2463 0.929 . S
C2477 C2476 1.399 . S
C2477 C2478 1.385 . S
C2478 H2464 0.931 . S
C2478 C2477 1.385 . S
C2478 C2479 1.389 . S
C2479 C2478 1.389 . S
C2479 C2480 1.387 . S
C2480 H2465 0.930 . S
C2480 C2475 1.390 . S
C2480 C2479 1.387 . S
H2481 C2493 0.930 . S
H2482 C2495 0.930 . S
H2483 C2496 0.930 . S
H2484 C2500 0.959 . S
H2485 C2500 0.959 . S
H2486 C2500 0.961 . S
H2487 C2501 0.960 . S
H2488 C2501 0.961 . S
H2489 C2501 0.959 . S
H2490 C2504 0.929 . S
H2491 C2505 0.931 . S
H2492 C2507 0.930 . S
C2493 H2481 0.930 . S
C2493 C2494 1.399 . S
C2493 C2498 1.399 . S
C2494 C2493 1.399 . S
C2494 C2495 1.376 . S
C2495 H2482 0.930 . S
C2495 C2494 1.376 . S
C2495 C2496 1.388 . S
C2496 H2483 0.930 . S
C2496 C2495 1.388 . S
C2496 C2497 1.390 . S
C2497 C2496 1.390 . S
C2497 C2498 1.394 . S
C2497 C2503 1.465 . S
C2498 C2493 1.399 . S
C2498 C2497 1.394 . S
C2498 C2499 1.516 . S
C2499 C2498 1.516 . S
C2499 C2500 1.502 . S
C2499 C2501 1.561 . S
C2499 C2502 1.526 . S
C2500 H2484 0.959 . S
C2500 H2485 0.959 . S
C2500 H2486 0.961 . S
C2500 C2499 1.502 . S
C2501 H2487 0.960 . S
C2501 H2488 0.961 . S
C2501 H2489 0.959 . S
C2501 C2499 1.561 . S
C2502 C2499 1.526 . S
C2502 C2503 1.396 . S
C2502 C2507 1.390 . S
C2503 C2497 1.465 . S
C2503 C2502 1.396 . S
C2503 C2504 1.399 . S
C2504 H2490 0.929 . S
C2504 C2503 1.399 . S
C2504 C2505 1.385 . S
C2505 H2491 0.931 . S
C2505 C2504 1.385 . S
C2505 C2506 1.389 . S
C2506 C2505 1.389 . S
C2506 C2507 1.387 . S
C2507 H2492 0.930 . S
C2507 C2502 1.390 . S
C2507 C2506 1.387 . S
H2508 C2520 0.930 . S
H2509 C2522 0.930 . S
H2510 C2523 0.930 . S
H2511 C2527 0.959 . S
H2512 C2527 0.959 . S
H2513 C2527 0.961 . S
H2514 C2528 0.960 . S
H2515 C2528 0.961 . S
H2516 C2528 0.959 . S
H2517 C2531 0.929 . S
H2518 C2532 0.931 . S
H2519 C2534 0.930 . S
C2520 H2508 0.930 . S
C2520 C2521 1.399 . S
C2520 C2525 1.399 . S
C2521 C2520 1.399 . S
C2521 C2522 1.376 . S
C2522 H2509 0.930 . S
C2522 C2521 1.376 . S
C2522 C2523 1.388 . S
C2523 H2510 0.930 . S
C2523 C2522 1.388 . S
C2523 C2524 1.390 . S
C2524 C2523 1.390 . S
C2524 C2525 1.394 . S
C2524 C2530 1.465 . S
C2525 C2520 1.399 . S
C2525 C2524 1.394 . S
C2525 C2526 1.516 . S
C2526 C2525 1.516 . S
C2526 C2527 1.502 . S
C2526 C2528 1.561 . S
C2526 C2529 1.526 . S
C2527 H2511 0.959 . S
C2527 H2512 0.959 . S
C2527 H2513 0.961 . S
C2527 C2526 1.502 . S
C2528 H2514 0.960 . S
C2528 H2515 0.961 . S
C2528 H2516 0.959 . S
C2528 C2526 1.561 . S
C2529 C2526 1.526 . S
C2529 C2530 1.396 . S
C2529 C2534 1.390 . S
C2530 C2524 1.465 . S
C2530 C2529 1.396 . S
C2530 C2531 1.399 . S
C2531 H2517 0.929 . S
C2531 C2530 1.399 . S
C2531 C2532 1.385 . S
C2532 H2518 0.931 . S
C2532 C2531 1.385 . S
C2532 C2533 1.389 . S
C2533 C2532 1.389 . S
C2533 C2534 1.387 . S
C2534 H2519 0.930 . S
C2534 C2529 1.390 . S
C2534 C2533 1.387 . S
H2535 C2547 0.930 . S
H2536 C2549 0.930 . S
H2537 C2550 0.930 . S
H2538 C2554 0.959 . S
H2539 C2554 0.959 . S
H2540 C2554 0.961 . S
H2541 C2555 0.960 . S
H2542 C2555 0.961 . S
H2543 C2555 0.959 . S
H2544 C2558 0.929 . S
H2545 C2559 0.931 . S
H2546 C2561 0.930 . S
C2547 H2535 0.930 . S
C2547 C2548 1.399 . S
C2547 C2552 1.399 . S
C2548 C2547 1.399 . S
C2548 C2549 1.376 . S
C2549 H2536 0.930 . S
C2549 C2548 1.376 . S
C2549 C2550 1.388 . S
C2550 H2537 0.930 . S
C2550 C2549 1.388 . S
C2550 C2551 1.390 . S
C2551 C2550 1.390 . S
C2551 C2552 1.394 . S
C2551 C2557 1.465 . S
C2552 C2547 1.399 . S
C2552 C2551 1.394 . S
C2552 C2553 1.516 . S
C2553 C2552 1.516 . S
C2553 C2554 1.502 . S
C2553 C2555 1.561 . S
C2553 C2556 1.526 . S
C2554 H2538 0.959 . S
C2554 H2539 0.959 . S
C2554 H2540 0.961 . S
C2554 C2553 1.502 . S
C2555 H2541 0.960 . S
C2555 H2542 0.961 . S
C2555 H2543 0.959 . S
C2555 C2553 1.561 . S
C2556 C2553 1.526 . S
C2556 C2557 1.396 . S
C2556 C2561 1.390 . S
C2557 C2551 1.465 . S
C2557 C2556 1.396 . S
C2557 C2558 1.399 . S
C2558 H2544 0.929 . S
C2558 C2557 1.399 . S
C2558 C2559 1.385 . S
C2559 H2545 0.931 . S
C2559 C2558 1.385 . S
C2559 C2560 1.389 . S
C2560 C2559 1.389 . S
C2560 C2561 1.387 . S
C2561 H2546 0.930 . S
C2561 C2556 1.390 . S
C2561 C2560 1.387 . S
H2562 C2574 0.930 . S
H2563 C2576 0.930 . S
H2564 C2577 0.930 . S
H2565 C2581 0.959 . S
H2566 C2581 0.959 . S
H2567 C2581 0.961 . S
H2568 C2582 0.960 . S
H2569 C2582 0.961 . S
H2570 C2582 0.959 . S
H2571 C2585 0.929 . S
H2572 C2586 0.931 . S
H2573 C2588 0.930 . S
C2574 H2562 0.930 . S
C2574 C2575 1.399 . S
C2574 C2579 1.399 . S
C2575 C2574 1.399 . S
C2575 C2576 1.376 . S
C2576 H2563 0.930 . S
C2576 C2575 1.376 . S
C2576 C2577 1.388 . S
C2577 H2564 0.930 . S
C2577 C2576 1.388 . S
C2577 C2578 1.390 . S
C2578 C2577 1.390 . S
C2578 C2579 1.394 . S
C2578 C2584 1.465 . S
C2579 C2574 1.399 . S
C2579 C2578 1.394 . S
C2579 C2580 1.516 . S
C2580 C2579 1.516 . S
C2580 C2581 1.502 . S
C2580 C2582 1.561 . S
C2580 C2583 1.526 . S
C2581 H2565 0.959 . S
C2581 H2566 0.959 . S
C2581 H2567 0.961 . S
C2581 C2580 1.502 . S
C2582 H2568 0.960 . S
C2582 H2569 0.961 . S
C2582 H2570 0.959 . S
C2582 C2580 1.561 . S
C2583 C2580 1.526 . S
C2583 C2584 1.396 . S
C2583 C2588 1.390 . S
C2584 C2578 1.465 . S
C2584 C2583 1.396 . S
C2584 C2585 1.399 . S
C2585 H2571 0.929 . S
C2585 C2584 1.399 . S
C2585 C2586 1.385 . S
C2586 H2572 0.931 . S
C2586 C2585 1.385 . S
C2586 C2587 1.389 . S
C2587 C2586 1.389 . S
C2587 C2588 1.387 . S
C2588 H2573 0.930 . S
C2588 C2583 1.390 . S
C2588 C2587 1.387 . S
H2589 C2601 0.930 . S
H2590 C2603 0.930 . S
H2591 C2604 0.930 . S
H2592 C2608 0.959 . S
H2593 C2608 0.959 . S
H2594 C2608 0.961 . S
H2595 C2609 0.960 . S
H2596 C2609 0.961 . S
H2597 C2609 0.959 . S
H2598 C2612 0.929 . S
H2599 C2613 0.931 . S
H2600 C2615 0.930 . S
C2601 H2589 0.930 . S
C2601 C2602 1.399 . S
C2601 C2606 1.399 . S
C2602 C2601 1.399 . S
C2602 C2603 1.376 . S
C2603 H2590 0.930 . S
C2603 C2602 1.376 . S
C2603 C2604 1.388 . S
C2604 H2591 0.930 . S
C2604 C2603 1.388 . S
C2604 C2605 1.390 . S
C2605 C2604 1.390 . S
C2605 C2606 1.394 . S
C2605 C2611 1.465 . S
C2606 C2601 1.399 . S
C2606 C2605 1.394 . S
C2606 C2607 1.516 . S
C2607 C2606 1.516 . S
C2607 C2608 1.502 . S
C2607 C2609 1.561 . S
C2607 C2610 1.526 . S
C2608 H2592 0.959 . S
C2608 H2593 0.959 . S
C2608 H2594 0.961 . S
C2608 C2607 1.502 . S
C2609 H2595 0.960 . S
C2609 H2596 0.961 . S
C2609 H2597 0.959 . S
C2609 C2607 1.561 . S
C2610 C2607 1.526 . S
C2610 C2611 1.396 . S
C2610 C2615 1.390 . S
C2611 C2605 1.465 . S
C2611 C2610 1.396 . S
C2611 C2612 1.399 . S
C2612 H2598 0.929 . S
C2612 C2611 1.399 . S
C2612 C2613 1.385 . S
C2613 H2599 0.931 . S
C2613 C2612 1.385 . S
C2613 C2614 1.389 . S
C2614 C2613 1.389 . S
C2614 C2615 1.387 . S
C2615 H2600 0.930 . S
C2615 C2610 1.390 . S
C2615 C2614 1.387 . S
H2616 C2628 0.930 . S
H2617 C2630 0.930 . S
H2618 C2631 0.930 . S
H2619 C2635 0.959 . S
H2620 C2635 0.959 . S
H2621 C2635 0.961 . S
H2622 C2636 0.960 . S
H2623 C2636 0.961 . S
H2624 C2636 0.959 . S
H2625 C2639 0.929 . S
H2626 C2640 0.931 . S
H2627 C2642 0.930 . S
C2628 H2616 0.930 . S
C2628 C2629 1.399 . S
C2628 C2633 1.399 . S
C2629 C2628 1.399 . S
C2629 C2630 1.376 . S
C2630 H2617 0.930 . S
C2630 C2629 1.376 . S
C2630 C2631 1.388 . S
C2631 H2618 0.930 . S
C2631 C2630 1.388 . S
C2631 C2632 1.390 . S
C2632 C2631 1.390 . S
C2632 C2633 1.394 . S
C2632 C2638 1.465 . S
C2633 C2628 1.399 . S
C2633 C2632 1.394 . S
C2633 C2634 1.516 . S
C2634 C2633 1.516 . S
C2634 C2635 1.502 . S
C2634 C2636 1.561 . S
C2634 C2637 1.526 . S
C2635 H2619 0.959 . S
C2635 H2620 0.959 . S
C2635 H2621 0.961 . S
C2635 C2634 1.502 . S
C2636 H2622 0.960 . S
C2636 H2623 0.961 . S
C2636 H2624 0.959 . S
C2636 C2634 1.561 . S
C2637 C2634 1.526 . S
C2637 C2638 1.396 . S
C2637 C2642 1.390 . S
C2638 C2632 1.465 . S
C2638 C2637 1.396 . S
C2638 C2639 1.399 . S
C2639 H2625 0.929 . S
C2639 C2638 1.399 . S
C2639 C2640 1.385 . S
C2640 H2626 0.931 . S
C2640 C2639 1.385 . S
C2640 C2641 1.389 . S
C2641 C2640 1.389 . S
C2641 C2642 1.387 . S
C2642 H2627 0.930 . S
C2642 C2637 1.390 . S
C2642 C2641 1.387 . S
H2643 C2655 0.930 . S
H2644 C2657 0.930 . S
H2645 C2658 0.930 . S
H2646 C2662 0.959 . S
H2647 C2662 0.959 . S
H2648 C2662 0.961 . S
H2649 C2663 0.960 . S
H2650 C2663 0.961 . S
H2651 C2663 0.959 . S
H2652 C2666 0.929 . S
H2653 C2667 0.931 . S
H2654 C2669 0.930 . S
C2655 H2643 0.930 . S
C2655 C2656 1.399 . S
C2655 C2660 1.399 . S
C2656 C2655 1.399 . S
C2656 C2657 1.376 . S
C2657 H2644 0.930 . S
C2657 C2656 1.376 . S
C2657 C2658 1.388 . S
C2658 H2645 0.930 . S
C2658 C2657 1.388 . S
C2658 C2659 1.390 . S
C2659 C2658 1.390 . S
C2659 C2660 1.394 . S
C2659 C2665 1.465 . S
C2660 C2655 1.399 . S
C2660 C2659 1.394 . S
C2660 C2661 1.516 . S
C2661 C2660 1.516 . S
C2661 C2662 1.502 . S
C2661 C2663 1.561 . S
C2661 C2664 1.526 . S
C2662 H2646 0.959 . S
C2662 H2647 0.959 . S
C2662 H2648 0.961 . S
C2662 C2661 1.502 . S
C2663 H2649 0.960 . S
C2663 H2650 0.961 . S
C2663 H2651 0.959 . S
C2663 C2661 1.561 . S
C2664 C2661 1.526 . S
C2664 C2665 1.396 . S
C2664 C2669 1.390 . S
C2665 C2659 1.465 . S
C2665 C2664 1.396 . S
C2665 C2666 1.399 . S
C2666 H2652 0.929 . S
C2666 C2665 1.399 . S
C2666 C2667 1.385 . S
C2667 H2653 0.931 . S
C2667 C2666 1.385 . S
C2667 C2668 1.389 . S
C2668 C2667 1.389 . S
C2668 C2669 1.387 . S
C2669 H2654 0.930 . S
C2669 C2664 1.390 . S
C2669 C2668 1.387 . S
H2670 C2682 0.930 . S
H2671 C2684 0.930 . S
H2672 C2685 0.930 . S
H2673 C2689 0.959 . S
H2674 C2689 0.959 . S
H2675 C2689 0.961 . S
H2676 C2690 0.960 . S
H2677 C2690 0.961 . S
H2678 C2690 0.959 . S
H2679 C2693 0.929 . S
H2680 C2694 0.931 . S
H2681 C2696 0.930 . S
C2682 H2670 0.930 . S
C2682 C2683 1.399 . S
C2682 C2687 1.399 . S
C2683 C2682 1.399 . S
C2683 C2684 1.376 . S
C2684 H2671 0.930 . S
C2684 C2683 1.376 . S
C2684 C2685 1.388 . S
C2685 H2672 0.930 . S
C2685 C2684 1.388 . S
C2685 C2686 1.390 . S
C2686 C2685 1.390 . S
C2686 C2687 1.394 . S
C2686 C2692 1.465 . S
C2687 C2682 1.399 . S
C2687 C2686 1.394 . S
C2687 C2688 1.516 . S
C2688 C2687 1.516 . S
C2688 C2689 1.502 . S
C2688 C2690 1.561 . S
C2688 C2691 1.526 . S
C2689 H2673 0.959 . S
C2689 H2674 0.959 . S
C2689 H2675 0.961 . S
C2689 C2688 1.502 . S
C2690 H2676 0.960 . S
C2690 H2677 0.961 . S
C2690 H2678 0.959 . S
C2690 C2688 1.561 . S
C2691 C2688 1.526 . S
C2691 C2692 1.396 . S
C2691 C2696 1.390 . S
C2692 C2686 1.465 . S
C2692 C2691 1.396 . S
C2692 C2693 1.399 . S
C2693 H2679 0.929 . S
C2693 C2692 1.399 . S
C2693 C2694 1.385 . S
C2694 H2680 0.931 . S
C2694 C2693 1.385 . S
C2694 C2695 1.389 . S
C2695 C2694 1.389 . S
C2695 C2696 1.387 . S
C2696 H2681 0.930 . S
C2696 C2691 1.390 . S
C2696 C2695 1.387 . S
H2697 C2709 0.930 . S
H2698 C2711 0.930 . S
H2699 C2712 0.930 . S
H2700 C2716 0.959 . S
H2701 C2716 0.959 . S
H2702 C2716 0.961 . S
H2703 C2717 0.960 . S
H2704 C2717 0.961 . S
H2705 C2717 0.959 . S
H2706 C2720 0.929 . S
H2707 C2721 0.931 . S
H2708 C2723 0.930 . S
C2709 H2697 0.930 . S
C2709 C2710 1.399 . S
C2709 C2714 1.399 . S
C2710 C2709 1.399 . S
C2710 C2711 1.376 . S
C2711 H2698 0.930 . S
C2711 C2710 1.376 . S
C2711 C2712 1.388 . S
C2712 H2699 0.930 . S
C2712 C2711 1.388 . S
C2712 C2713 1.390 . S
C2713 C2712 1.390 . S
C2713 C2714 1.394 . S
C2713 C2719 1.465 . S
C2714 C2709 1.399 . S
C2714 C2713 1.394 . S
C2714 C2715 1.516 . S
C2715 C2714 1.516 . S
C2715 C2716 1.502 . S
C2715 C2717 1.561 . S
C2715 C2718 1.526 . S
C2716 H2700 0.959 . S
C2716 H2701 0.959 . S
C2716 H2702 0.961 . S
C2716 C2715 1.502 . S
C2717 H2703 0.960 . S
C2717 H2704 0.961 . S
C2717 H2705 0.959 . S
C2717 C2715 1.561 . S
C2718 C2715 1.526 . S
C2718 C2719 1.396 . S
C2718 C2723 1.390 . S
C2719 C2713 1.465 . S
C2719 C2718 1.396 . S
C2719 C2720 1.399 . S
C2720 H2706 0.929 . S
C2720 C2719 1.399 . S
C2720 C2721 1.385 . S
C2721 H2707 0.931 . S
C2721 C2720 1.385 . S
C2721 C2722 1.389 . S
C2722 C2721 1.389 . S
C2722 C2723 1.387 . S
C2723 H2708 0.930 . S
C2723 C2718 1.390 . S
C2723 C2722 1.387 . S
H2724 C2736 0.930 . S
H2725 C2738 0.930 . S
H2726 C2739 0.930 . S
H2727 C2743 0.959 . S
H2728 C2743 0.959 . S
H2729 C2743 0.961 . S
H2730 C2744 0.960 . S
H2731 C2744 0.961 . S
H2732 C2744 0.959 . S
H2733 C2747 0.929 . S
H2734 C2748 0.931 . S
H2735 C2750 0.930 . S
C2736 H2724 0.930 . S
C2736 C2737 1.399 . S
C2736 C2741 1.399 . S
C2737 C2736 1.399 . S
C2737 C2738 1.376 . S
C2738 H2725 0.930 . S
C2738 C2737 1.376 . S
C2738 C2739 1.388 . S
C2739 H2726 0.930 . S
C2739 C2738 1.388 . S
C2739 C2740 1.390 . S
C2740 C2739 1.390 . S
C2740 C2741 1.394 . S
C2740 C2746 1.465 . S
C2741 C2736 1.399 . S
C2741 C2740 1.394 . S
C2741 C2742 1.516 . S
C2742 C2741 1.516 . S
C2742 C2743 1.502 . S
C2742 C2744 1.561 . S
C2742 C2745 1.526 . S
C2743 H2727 0.959 . S
C2743 H2728 0.959 . S
C2743 H2729 0.961 . S
C2743 C2742 1.502 . S
C2744 H2730 0.960 . S
C2744 H2731 0.961 . S
C2744 H2732 0.959 . S
C2744 C2742 1.561 . S
C2745 C2742 1.526 . S
C2745 C2746 1.396 . S
C2745 C2750 1.390 . S
C2746 C2740 1.465 . S
C2746 C2745 1.396 . S
C2746 C2747 1.399 . S
C2747 H2733 0.929 . S
C2747 C2746 1.399 . S
C2747 C2748 1.385 . S
C2748 H2734 0.931 . S
C2748 C2747 1.385 . S
C2748 C2749 1.389 . S
C2749 C2748 1.389 . S
C2749 C2750 1.387 . S
C2750 H2735 0.930 . S
C2750 C2745 1.390 . S
C2750 C2749 1.387 . S
H2751 C2763 0.930 . S
H2752 C2765 0.930 . S
H2753 C2766 0.930 . S
H2754 C2770 0.959 . S
H2755 C2770 0.959 . S
H2756 C2770 0.961 . S
H2757 C2771 0.960 . S
H2758 C2771 0.961 . S
H2759 C2771 0.959 . S
H2760 C2774 0.929 . S
H2761 C2775 0.931 . S
H2762 C2777 0.930 . S
C2763 H2751 0.930 . S
C2763 C2764 1.399 . S
C2763 C2768 1.399 . S
C2764 C2763 1.399 . S
C2764 C2765 1.376 . S
C2765 H2752 0.930 . S
C2765 C2764 1.376 . S
C2765 C2766 1.388 . S
C2766 H2753 0.930 . S
C2766 C2765 1.388 . S
C2766 C2767 1.390 . S
C2767 C2766 1.390 . S
C2767 C2768 1.394 . S
C2767 C2773 1.465 . S
C2768 C2763 1.399 . S
C2768 C2767 1.394 . S
C2768 C2769 1.516 . S
C2769 C2768 1.516 . S
C2769 C2770 1.502 . S
C2769 C2771 1.561 . S
C2769 C2772 1.526 . S
C2770 H2754 0.959 . S
C2770 H2755 0.959 . S
C2770 H2756 0.961 . S
C2770 C2769 1.502 . S
C2771 H2757 0.960 . S
C2771 H2758 0.961 . S
C2771 H2759 0.959 . S
C2771 C2769 1.561 . S
C2772 C2769 1.526 . S
C2772 C2773 1.396 . S
C2772 C2777 1.390 . S
C2773 C2767 1.465 . S
C2773 C2772 1.396 . S
C2773 C2774 1.399 . S
C2774 H2760 0.929 . S
C2774 C2773 1.399 . S
C2774 C2775 1.385 . S
C2775 H2761 0.931 . S
C2775 C2774 1.385 . S
C2775 C2776 1.389 . S
C2776 C2775 1.389 . S
C2776 C2777 1.387 . S
C2777 H2762 0.930 . S
C2777 C2772 1.390 . S
C2777 C2776 1.387 . S
H2778 C2790 0.930 . S
H2779 C2792 0.930 . S
H2780 C2793 0.930 . S
H2781 C2797 0.959 . S
H2782 C2797 0.959 . S
H2783 C2797 0.961 . S
H2784 C2798 0.960 . S
H2785 C2798 0.961 . S
H2786 C2798 0.959 . S
H2787 C2801 0.929 . S
H2788 C2802 0.931 . S
H2789 C2804 0.930 . S
C2790 H2778 0.930 . S
C2790 C2791 1.399 . S
C2790 C2795 1.399 . S
C2791 C2790 1.399 . S
C2791 C2792 1.376 . S
C2792 H2779 0.930 . S
C2792 C2791 1.376 . S
C2792 C2793 1.388 . S
C2793 H2780 0.930 . S
C2793 C2792 1.388 . S
C2793 C2794 1.390 . S
C2794 C2793 1.390 . S
C2794 C2795 1.394 . S
C2794 C2800 1.465 . S
C2795 C2790 1.399 . S
C2795 C2794 1.394 . S
C2795 C2796 1.516 . S
C2796 C2795 1.516 . S
C2796 C2797 1.502 . S
C2796 C2798 1.561 . S
C2796 C2799 1.526 . S
C2797 H2781 0.959 . S
C2797 H2782 0.959 . S
C2797 H2783 0.961 . S
C2797 C2796 1.502 . S
C2798 H2784 0.960 . S
C2798 H2785 0.961 . S
C2798 H2786 0.959 . S
C2798 C2796 1.561 . S
C2799 C2796 1.526 . S
C2799 C2800 1.396 . S
C2799 C2804 1.390 . S
C2800 C2794 1.465 . S
C2800 C2799 1.396 . S
C2800 C2801 1.399 . S
C2801 H2787 0.929 . S
C2801 C2800 1.399 . S
C2801 C2802 1.385 . S
C2802 H2788 0.931 . S
C2802 C2801 1.385 . S
C2802 C2803 1.389 . S
C2803 C2802 1.389 . S
C2803 C2804 1.387 . S
C2804 H2789 0.930 . S
C2804 C2799 1.390 . S
C2804 C2803 1.387 . S
H2805 C2817 0.930 . S
H2806 C2819 0.930 . S
H2807 C2820 0.930 . S
H2808 C2824 0.959 . S
H2809 C2824 0.959 . S
H2810 C2824 0.961 . S
H2811 C2825 0.960 . S
H2812 C2825 0.961 . S
H2813 C2825 0.959 . S
H2814 C2828 0.929 . S
H2815 C2829 0.931 . S
H2816 C2831 0.930 . S
C2817 H2805 0.930 . S
C2817 C2818 1.399 . S
C2817 C2822 1.399 . S
C2818 C2817 1.399 . S
C2818 C2819 1.376 . S
C2819 H2806 0.930 . S
C2819 C2818 1.376 . S
C2819 C2820 1.388 . S
C2820 H2807 0.930 . S
C2820 C2819 1.388 . S
C2820 C2821 1.390 . S
C2821 C2820 1.390 . S
C2821 C2822 1.394 . S
C2821 C2827 1.465 . S
C2822 C2817 1.399 . S
C2822 C2821 1.394 . S
C2822 C2823 1.516 . S
C2823 C2822 1.516 . S
C2823 C2824 1.502 . S
C2823 C2825 1.561 . S
C2823 C2826 1.526 . S
C2824 H2808 0.959 . S
C2824 H2809 0.959 . S
C2824 H2810 0.961 . S
C2824 C2823 1.502 . S
C2825 H2811 0.960 . S
C2825 H2812 0.961 . S
C2825 H2813 0.959 . S
C2825 C2823 1.561 . S
C2826 C2823 1.526 . S
C2826 C2827 1.396 . S
C2826 C2831 1.390 . S
C2827 C2821 1.465 . S
C2827 C2826 1.396 . S
C2827 C2828 1.399 . S
C2828 H2814 0.929 . S
C2828 C2827 1.399 . S
C2828 C2829 1.385 . S
C2829 H2815 0.931 . S
C2829 C2828 1.385 . S
C2829 C2830 1.389 . S
C2830 C2829 1.389 . S
C2830 C2831 1.387 . S
C2831 H2816 0.930 . S
C2831 C2826 1.390 . S
C2831 C2830 1.387 . S
H2832 C2844 0.930 . S
H2833 C2846 0.930 . S
H2834 C2847 0.930 . S
H2835 C2851 0.959 . S
H2836 C2851 0.959 . S
H2837 C2851 0.961 . S
H2838 C2852 0.960 . S
H2839 C2852 0.961 . S
H2840 C2852 0.959 . S
H2841 C2855 0.929 . S
H2842 C2856 0.931 . S
H2843 C2858 0.930 . S
C2844 H2832 0.930 . S
C2844 C2845 1.399 . S
C2844 C2849 1.399 . S
C2845 C2844 1.399 . S
C2845 C2846 1.376 . S
C2846 H2833 0.930 . S
C2846 C2845 1.376 . S
C2846 C2847 1.388 . S
C2847 H2834 0.930 . S
C2847 C2846 1.388 . S
C2847 C2848 1.390 . S
C2848 C2847 1.390 . S
C2848 C2849 1.394 . S
C2848 C2854 1.465 . S
C2849 C2844 1.399 . S
C2849 C2848 1.394 . S
C2849 C2850 1.516 . S
C2850 C2849 1.516 . S
C2850 C2851 1.502 . S
C2850 C2852 1.561 . S
C2850 C2853 1.526 . S
C2851 H2835 0.959 . S
C2851 H2836 0.959 . S
C2851 H2837 0.961 . S
C2851 C2850 1.502 . S
C2852 H2838 0.960 . S
C2852 H2839 0.961 . S
C2852 H2840 0.959 . S
C2852 C2850 1.561 . S
C2853 C2850 1.526 . S
C2853 C2854 1.396 . S
C2853 C2858 1.390 . S
C2854 C2848 1.465 . S
C2854 C2853 1.396 . S
C2854 C2855 1.399 . S
C2855 H2841 0.929 . S
C2855 C2854 1.399 . S
C2855 C2856 1.385 . S
C2856 H2842 0.931 . S
C2856 C2855 1.385 . S
C2856 C2857 1.389 . S
C2857 C2856 1.389 . S
C2857 C2858 1.387 . S
C2858 H2843 0.930 . S
C2858 C2853 1.390 . S
C2858 C2857 1.387 . S
H2859 C2871 0.930 . S
H2860 C2873 0.930 . S
H2861 C2874 0.930 . S
H2862 C2878 0.959 . S
H2863 C2878 0.959 . S
H2864 C2878 0.961 . S
H2865 C2879 0.960 . S
H2866 C2879 0.961 . S
H2867 C2879 0.959 . S
H2868 C2882 0.929 . S
H2869 C2883 0.931 . S
H2870 C2885 0.930 . S
C2871 H2859 0.930 . S
C2871 C2872 1.399 . S
C2871 C2876 1.399 . S
C2872 C2871 1.399 . S
C2872 C2873 1.376 . S
C2873 H2860 0.930 . S
C2873 C2872 1.376 . S
C2873 C2874 1.388 . S
C2874 H2861 0.930 . S
C2874 C2873 1.388 . S
C2874 C2875 1.390 . S
C2875 C2874 1.390 . S
C2875 C2876 1.394 . S
C2875 C2881 1.465 . S
C2876 C2871 1.399 . S
C2876 C2875 1.394 . S
C2876 C2877 1.516 . S
C2877 C2876 1.516 . S
C2877 C2878 1.502 . S
C2877 C2879 1.561 . S
C2877 C2880 1.526 . S
C2878 H2862 0.959 . S
C2878 H2863 0.959 . S
C2878 H2864 0.961 . S
C2878 C2877 1.502 . S
C2879 H2865 0.960 . S
C2879 H2866 0.961 . S
C2879 H2867 0.959 . S
C2879 C2877 1.561 . S
C2880 C2877 1.526 . S
C2880 C2881 1.396 . S
C2880 C2885 1.390 . S
C2881 C2875 1.465 . S
C2881 C2880 1.396 . S
C2881 C2882 1.399 . S
C2882 H2868 0.929 . S
C2882 C2881 1.399 . S
C2882 C2883 1.385 . S
C2883 H2869 0.931 . S
C2883 C2882 1.385 . S
C2883 C2884 1.389 . S
C2884 C2883 1.389 . S
C2884 C2885 1.387 . S
C2885 H2870 0.930 . S
C2885 C2880 1.390 . S
C2885 C2884 1.387 . S
H2886 C2898 0.930 . S
H2887 C2900 0.930 . S
H2888 C2901 0.930 . S
H2889 C2905 0.959 . S
H2890 C2905 0.959 . S
H2891 C2905 0.961 . S
H2892 C2906 0.960 . S
H2893 C2906 0.961 . S
H2894 C2906 0.959 . S
H2895 C2909 0.929 . S
H2896 C2910 0.931 . S
H2897 C2912 0.930 . S
C2898 H2886 0.930 . S
C2898 C2899 1.399 . S
C2898 C2903 1.399 . S
C2899 C2898 1.399 . S
C2899 C2900 1.376 . S
C2900 H2887 0.930 . S
C2900 C2899 1.376 . S
C2900 C2901 1.388 . S
C2901 H2888 0.930 . S
C2901 C2900 1.388 . S
C2901 C2902 1.390 . S
C2902 C2901 1.390 . S
C2902 C2903 1.394 . S
C2902 C2908 1.465 . S
C2903 C2898 1.399 . S
C2903 C2902 1.394 . S
C2903 C2904 1.516 . S
C2904 C2903 1.516 . S
C2904 C2905 1.502 . S
C2904 C2906 1.561 . S
C2904 C2907 1.526 . S
C2905 H2889 0.959 . S
C2905 H2890 0.959 . S
C2905 H2891 0.961 . S
C2905 C2904 1.502 . S
C2906 H2892 0.960 . S
C2906 H2893 0.961 . S
C2906 H2894 0.959 . S
C2906 C2904 1.561 . S
C2907 C2904 1.526 . S
C2907 C2908 1.396 . S
C2907 C2912 1.390 . S
C2908 C2902 1.465 . S
C2908 C2907 1.396 . S
C2908 C2909 1.399 . S
C2909 H2895 0.929 . S
C2909 C2908 1.399 . S
C2909 C2910 1.385 . S
C2910 H2896 0.931 . S
C2910 C2909 1.385 . S
C2910 C2911 1.389 . S
C2911 C2910 1.389 . S
C2911 C2912 1.387 . S
C2912 H2897 0.930 . S
C2912 C2907 1.390 . S
C2912 C2911 1.387 . S
H2913 C2925 0.930 . S
H2914 C2927 0.930 . S
H2915 C2928 0.930 . S
H2916 C2932 0.959 . S
H2917 C2932 0.959 . S
H2918 C2932 0.961 . S
H2919 C2933 0.960 . S
H2920 C2933 0.961 . S
H2921 C2933 0.959 . S
H2922 C2936 0.929 . S
H2923 C2937 0.931 . S
H2924 C2939 0.930 . S
C2925 H2913 0.930 . S
C2925 C2926 1.399 . S
C2925 C2930 1.399 . S
C2926 C2925 1.399 . S
C2926 C2927 1.376 . S
C2927 H2914 0.930 . S
C2927 C2926 1.376 . S
C2927 C2928 1.388 . S
C2928 H2915 0.930 . S
C2928 C2927 1.388 . S
C2928 C2929 1.390 . S
C2929 C2928 1.390 . S
C2929 C2930 1.394 . S
C2929 C2935 1.465 . S
C2930 C2925 1.399 . S
C2930 C2929 1.394 . S
C2930 C2931 1.516 . S
C2931 C2930 1.516 . S
C2931 C2932 1.502 . S
C2931 C2933 1.561 . S
C2931 C2934 1.526 . S
C2932 H2916 0.959 . S
C2932 H2917 0.959 . S
C2932 H2918 0.961 . S
C2932 C2931 1.502 . S
C2933 H2919 0.960 . S
C2933 H2920 0.961 . S
C2933 H2921 0.959 . S
C2933 C2931 1.561 . S
C2934 C2931 1.526 . S
C2934 C2935 1.396 . S
C2934 C2939 1.390 . S
C2935 C2929 1.465 . S
C2935 C2934 1.396 . S
C2935 C2936 1.399 . S
C2936 H2922 0.929 . S
C2936 C2935 1.399 . S
C2936 C2937 1.385 . S
C2937 H2923 0.931 . S
C2937 C2936 1.385 . S
C2937 C2938 1.389 . S
C2938 C2937 1.389 . S
C2938 C2939 1.387 . S
C2939 H2924 0.930 . S
C2939 C2934 1.390 . S
C2939 C2938 1.387 . S
H2940 C2952 0.930 . S
H2941 C2954 0.930 . S
H2942 C2955 0.930 . S
H2943 C2959 0.959 . S
H2944 C2959 0.959 . S
H2945 C2959 0.961 . S
H2946 C2960 0.960 . S
H2947 C2960 0.961 . S
H2948 C2960 0.959 . S
H2949 C2963 0.929 . S
H2950 C2964 0.931 . S
H2951 C2966 0.930 . S
C2952 H2940 0.930 . S
C2952 C2953 1.399 . S
C2952 C2957 1.399 . S
C2953 C2952 1.399 . S
C2953 C2954 1.376 . S
C2954 H2941 0.930 . S
C2954 C2953 1.376 . S
C2954 C2955 1.388 . S
C2955 H2942 0.930 . S
C2955 C2954 1.388 . S
C2955 C2956 1.390 . S
C2956 C2955 1.390 . S
C2956 C2957 1.394 . S
C2956 C2962 1.465 . S
C2957 C2952 1.399 . S
C2957 C2956 1.394 . S
C2957 C2958 1.516 . S
C2958 C2957 1.516 . S
C2958 C2959 1.502 . S
C2958 C2960 1.561 . S
C2958 C2961 1.526 . S
C2959 H2943 0.959 . S
C2959 H2944 0.959 . S
C2959 H2945 0.961 . S
C2959 C2958 1.502 . S
C2960 H2946 0.960 . S
C2960 H2947 0.961 . S
C2960 H2948 0.959 . S
C2960 C2958 1.561 . S
C2961 C2958 1.526 . S
C2961 C2962 1.396 . S
C2961 C2966 1.390 . S
C2962 C2956 1.465 . S
C2962 C2961 1.396 . S
C2962 C2963 1.399 . S
C2963 H2949 0.929 . S
C2963 C2962 1.399 . S
C2963 C2964 1.385 . S
C2964 H2950 0.931 . S
C2964 C2963 1.385 . S
C2964 C2965 1.389 . S
C2965 C2964 1.389 . S
C2965 C2966 1.387 . S
C2966 H2951 0.930 . S
C2966 C2961 1.390 . S
C2966 C2965 1.387 . S
H2967 C2979 0.930 . S
H2968 C2981 0.930 . S
H2969 C2982 0.930 . S
H2970 C2986 0.959 . S
H2971 C2986 0.959 . S
H2972 C2986 0.961 . S
H2973 C2987 0.960 . S
H2974 C2987 0.961 . S
H2975 C2987 0.959 . S
H2976 C2990 0.929 . S
H2977 C2991 0.931 . S
H2978 C2993 0.930 . S
C2979 H2967 0.930 . S
C2979 C2980 1.399 . S
C2979 C2984 1.399 . S
C2980 C2979 1.399 . S
C2980 C2981 1.376 . S
C2981 H2968 0.930 . S
C2981 C2980 1.376 . S
C2981 C2982 1.388 . S
C2982 H2969 0.930 . S
C2982 C2981 1.388 . S
C2982 C2983 1.390 . S
C2983 C2982 1.390 . S
C2983 C2984 1.394 . S
C2983 C2989 1.465 . S
C2984 C2979 1.399 . S
C2984 C2983 1.394 . S
C2984 C2985 1.516 . S
C2985 C2984 1.516 . S
C2985 C2986 1.502 . S
C2985 C2987 1.561 . S
C2985 C2988 1.526 . S
C2986 H2970 0.959 . S
C2986 H2971 0.959 . S
C2986 H2972 0.961 . S
C2986 C2985 1.502 . S
C2987 H2973 0.960 . S
C2987 H2974 0.961 . S
C2987 H2975 0.959 . S
C2987 C2985 1.561 . S
C2988 C2985 1.526 . S
C2988 C2989 1.396 . S
C2988 C2993 1.390 . S
C2989 C2983 1.465 . S
C2989 C2988 1.396 . S
C2989 C2990 1.399 . S
C2990 H2976 0.929 . S
C2990 C2989 1.399 . S
C2990 C2991 1.385 . S
C2991 H2977 0.931 . S
C2991 C2990 1.385 . S
C2991 C2992 1.389 . S
C2992 C2991 1.389 . S
C2992 C2993 1.387 . S
C2993 H2978 0.930 . S
C2993 C2988 1.390 . S
C2993 C2992 1.387 . S
H2994 C3006 0.930 . S
H2995 C3008 0.930 . S
H2996 C3009 0.930 . S
H2997 C3013 0.959 . S
H2998 C3013 0.959 . S
H2999 C3013 0.961 . S
H3000 C3014 0.960 . S
H3001 C3014 0.961 . S
H3002 C3014 0.959 . S
H3003 C3017 0.929 . S
H3004 C3018 0.931 . S
H3005 C3020 0.930 . S
C3006 H2994 0.930 . S
C3006 C3007 1.399 . S
C3006 C3011 1.399 . S
C3007 C3006 1.399 . S
C3007 C3008 1.376 . S
C3008 H2995 0.930 . S
C3008 C3007 1.376 . S
C3008 C3009 1.388 . S
C3009 H2996 0.930 . S
C3009 C3008 1.388 . S
C3009 C3010 1.390 . S
C3010 C3009 1.390 . S
C3010 C3011 1.394 . S
C3010 C3016 1.465 . S
C3011 C3006 1.399 . S
C3011 C3010 1.394 . S
C3011 C3012 1.516 . S
C3012 C3011 1.516 . S
C3012 C3013 1.502 . S
C3012 C3014 1.561 . S
C3012 C3015 1.526 . S
C3013 H2997 0.959 . S
C3013 H2998 0.959 . S
C3013 H2999 0.961 . S
C3013 C3012 1.502 . S
C3014 H3000 0.960 . S
C3014 H3001 0.961 . S
C3014 H3002 0.959 . S
C3014 C3012 1.561 . S
C3015 C3012 1.526 . S
C3015 C3016 1.396 . S
C3015 C3020 1.390 . S
C3016 C3010 1.465 . S
C3016 C3015 1.396 . S
C3016 C3017 1.399 . S
C3017 H3003 0.929 . S
C3017 C3016 1.399 . S
C3017 C3018 1.385 . S
C3018 H3004 0.931 . S
C3018 C3017 1.385 . S
C3018 C3019 1.389 . S
C3019 C3018 1.389 . S
C3019 C3020 1.387 . S
C3020 H3005 0.930 . S
C3020 C3015 1.390 . S
C3020 C3019 1.387 . S
H3021 C3033 0.930 . S
H3022 C3035 0.930 . S
H3023 C3036 0.930 . S
H3024 C3040 0.959 . S
H3025 C3040 0.959 . S
H3026 C3040 0.961 . S
H3027 C3041 0.960 . S
H3028 C3041 0.961 . S
H3029 C3041 0.959 . S
H3030 C3044 0.929 . S
H3031 C3045 0.931 . S
H3032 C3047 0.930 . S
C3033 H3021 0.930 . S
C3033 C3034 1.399 . S
C3033 C3038 1.399 . S
C3034 C3033 1.399 . S
C3034 C3035 1.376 . S
C3035 H3022 0.930 . S
C3035 C3034 1.376 . S
C3035 C3036 1.388 . S
C3036 H3023 0.930 . S
C3036 C3035 1.388 . S
C3036 C3037 1.390 . S
C3037 C3036 1.390 . S
C3037 C3038 1.394 . S
C3037 C3043 1.465 . S
C3038 C3033 1.399 . S
C3038 C3037 1.394 . S
C3038 C3039 1.516 . S
C3039 C3038 1.516 . S
C3039 C3040 1.502 . S
C3039 C3041 1.561 . S
C3039 C3042 1.526 . S
C3040 H3024 0.959 . S
C3040 H3025 0.959 . S
C3040 H3026 0.961 . S
C3040 C3039 1.502 . S
C3041 H3027 0.960 . S
C3041 H3028 0.961 . S
C3041 H3029 0.959 . S
C3041 C3039 1.561 . S
C3042 C3039 1.526 . S
C3042 C3043 1.396 . S
C3042 C3047 1.390 . S
C3043 C3037 1.465 . S
C3043 C3042 1.396 . S
C3043 C3044 1.399 . S
C3044 H3030 0.929 . S
C3044 C3043 1.399 . S
C3044 C3045 1.385 . S
C3045 H3031 0.931 . S
C3045 C3044 1.385 . S
C3045 C3046 1.389 . S
C3046 C3045 1.389 . S
C3046 C3047 1.387 . S
C3047 H3032 0.930 . S
C3047 C3042 1.390 . S
C3047 C3046 1.387 . S
H3048 C3060 0.930 . S
H3049 C3062 0.930 . S
H3050 C3063 0.930 . S
H3051 C3067 0.959 . S
H3052 C3067 0.959 . S
H3053 C3067 0.961 . S
H3054 C3068 0.960 . S
H3055 C3068 0.961 . S
H3056 C3068 0.959 . S
H3057 C3071 0.929 . S
H3058 C3072 0.931 . S
H3059 C3074 0.930 . S
C3060 H3048 0.930 . S
C3060 C3061 1.399 . S
C3060 C3065 1.399 . S
C3061 C3060 1.399 . S
C3061 C3062 1.376 . S
C3062 H3049 0.930 . S
C3062 C3061 1.376 . S
C3062 C3063 1.388 . S
C3063 H3050 0.930 . S
C3063 C3062 1.388 . S
C3063 C3064 1.390 . S
C3064 C3063 1.390 . S
C3064 C3065 1.394 . S
C3064 C3070 1.465 . S
C3065 C3060 1.399 . S
C3065 C3064 1.394 . S
C3065 C3066 1.516 . S
C3066 C3065 1.516 . S
C3066 C3067 1.502 . S
C3066 C3068 1.561 . S
C3066 C3069 1.526 . S
C3067 H3051 0.959 . S
C3067 H3052 0.959 . S
C3067 H3053 0.961 . S
C3067 C3066 1.502 . S
C3068 H3054 0.960 . S
C3068 H3055 0.961 . S
C3068 H3056 0.959 . S
C3068 C3066 1.561 . S
C3069 C3066 1.526 . S
C3069 C3070 1.396 . S
C3069 C3074 1.390 . S
C3070 C3064 1.465 . S
C3070 C3069 1.396 . S
C3070 C3071 1.399 . S
C3071 H3057 0.929 . S
C3071 C3070 1.399 . S
C3071 C3072 1.385 . S
C3072 H3058 0.931 . S
C3072 C3071 1.385 . S
C3072 C3073 1.389 . S
C3073 C3072 1.389 . S
C3073 C3074 1.387 . S
C3074 H3059 0.930 . S
C3074 C3069 1.390 . S
C3074 C3073 1.387 . S
H3075 C3087 0.930 . S
H3076 C3089 0.930 . S
H3077 C3090 0.930 . S
H3078 C3094 0.959 . S
H3079 C3094 0.959 . S
H3080 C3094 0.961 . S
H3081 C3095 0.960 . S
H3082 C3095 0.961 . S
H3083 C3095 0.959 . S
H3084 C3098 0.929 . S
H3085 C3099 0.931 . S
H3086 C3101 0.930 . S
C3087 H3075 0.930 . S
C3087 C3088 1.399 . S
C3087 C3092 1.399 . S
C3088 C3087 1.399 . S
C3088 C3089 1.376 . S
C3089 H3076 0.930 . S
C3089 C3088 1.376 . S
C3089 C3090 1.388 . S
C3090 H3077 0.930 . S
C3090 C3089 1.388 . S
C3090 C3091 1.390 . S
C3091 C3090 1.390 . S
C3091 C3092 1.394 . S
C3091 C3097 1.465 . S
C3092 C3087 1.399 . S
C3092 C3091 1.394 . S
C3092 C3093 1.516 . S
C3093 C3092 1.516 . S
C3093 C3094 1.502 . S
C3093 C3095 1.561 . S
C3093 C3096 1.526 . S
C3094 H3078 0.959 . S
C3094 H3079 0.959 . S
C3094 H3080 0.961 . S
C3094 C3093 1.502 . S
C3095 H3081 0.960 . S
C3095 H3082 0.961 . S
C3095 H3083 0.959 . S
C3095 C3093 1.561 . S
C3096 C3093 1.526 . S
C3096 C3097 1.396 . S
C3096 C3101 1.390 . S
C3097 C3091 1.465 . S
C3097 C3096 1.396 . S
C3097 C3098 1.399 . S
C3098 H3084 0.929 . S
C3098 C3097 1.399 . S
C3098 C3099 1.385 . S
C3099 H3085 0.931 . S
C3099 C3098 1.385 . S
C3099 C3100 1.389 . S
C3100 C3099 1.389 . S
C3100 C3101 1.387 . S
C3101 H3086 0.930 . S
C3101 C3096 1.390 . S
C3101 C3100 1.387 . S
H3102 C3114 0.930 . S
H3103 C3116 0.930 . S
H3104 C3117 0.930 . S
H3105 C3121 0.959 . S
H3106 C3121 0.959 . S
H3107 C3121 0.961 . S
H3108 C3122 0.960 . S
H3109 C3122 0.961 . S
H3110 C3122 0.959 . S
H3111 C3125 0.929 . S
H3112 C3126 0.931 . S
H3113 C3128 0.930 . S
C3114 H3102 0.930 . S
C3114 C3115 1.399 . S
C3114 C3119 1.399 . S
C3115 C3114 1.399 . S
C3115 C3116 1.376 . S
C3116 H3103 0.930 . S
C3116 C3115 1.376 . S
C3116 C3117 1.388 . S
C3117 H3104 0.930 . S
C3117 C3116 1.388 . S
C3117 C3118 1.390 . S
C3118 C3117 1.390 . S
C3118 C3119 1.394 . S
C3118 C3124 1.465 . S
C3119 C3114 1.399 . S
C3119 C3118 1.394 . S
C3119 C3120 1.516 . S
C3120 C3119 1.516 . S
C3120 C3121 1.502 . S
C3120 C3122 1.561 . S
C3120 C3123 1.526 . S
C3121 H3105 0.959 . S
C3121 H3106 0.959 . S
C3121 H3107 0.961 . S
C3121 C3120 1.502 . S
C3122 H3108 0.960 . S
C3122 H3109 0.961 . S
C3122 H3110 0.959 . S
C3122 C3120 1.561 . S
C3123 C3120 1.526 . S
C3123 C3124 1.396 . S
C3123 C3128 1.390 . S
C3124 C3118 1.465 . S
C3124 C3123 1.396 . S
C3124 C3125 1.399 . S
C3125 H3111 0.929 . S
C3125 C3124 1.399 . S
C3125 C3126 1.385 . S
C3126 H3112 0.931 . S
C3126 C3125 1.385 . S
C3126 C3127 1.389 . S
C3127 C3126 1.389 . S
C3127 C3128 1.387 . S
C3128 H3113 0.930 . S
C3128 C3123 1.390 . S
C3128 C3127 1.387 . S
H3129 C3141 0.930 . S
H3130 C3143 0.930 . S
H3131 C3144 0.930 . S
H3132 C3148 0.959 . S
H3133 C3148 0.959 . S
H3134 C3148 0.961 . S
H3135 C3149 0.960 . S
H3136 C3149 0.961 . S
H3137 C3149 0.959 . S
H3138 C3152 0.929 . S
H3139 C3153 0.931 . S
H3140 C3155 0.930 . S
C3141 H3129 0.930 . S
C3141 C3142 1.399 . S
C3141 C3146 1.399 . S
C3142 C3141 1.399 . S
C3142 C3143 1.376 . S
C3143 H3130 0.930 . S
C3143 C3142 1.376 . S
C3143 C3144 1.388 . S
C3144 H3131 0.930 . S
C3144 C3143 1.388 . S
C3144 C3145 1.390 . S
C3145 C3144 1.390 . S
C3145 C3146 1.394 . S
C3145 C3151 1.465 . S
C3146 C3141 1.399 . S
C3146 C3145 1.394 . S
C3146 C3147 1.516 . S
C3147 C3146 1.516 . S
C3147 C3148 1.502 . S
C3147 C3149 1.561 . S
C3147 C3150 1.526 . S
C3148 H3132 0.959 . S
C3148 H3133 0.959 . S
C3148 H3134 0.961 . S
C3148 C3147 1.502 . S
C3149 H3135 0.960 . S
C3149 H3136 0.961 . S
C3149 H3137 0.959 . S
C3149 C3147 1.561 . S
C3150 C3147 1.526 . S
C3150 C3151 1.396 . S
C3150 C3155 1.390 . S
C3151 C3145 1.465 . S
C3151 C3150 1.396 . S
C3151 C3152 1.399 . S
C3152 H3138 0.929 . S
C3152 C3151 1.399 . S
C3152 C3153 1.385 . S
C3153 H3139 0.931 . S
C3153 C3152 1.385 . S
C3153 C3154 1.389 . S
C3154 C3153 1.389 . S
C3154 C3155 1.387 . S
C3155 H3140 0.930 . S
C3155 C3150 1.390 . S
C3155 C3154 1.387 . S
H3156 C3168 0.930 . S
H3157 C3170 0.930 . S
H3158 C3171 0.930 . S
H3159 C3175 0.959 . S
H3160 C3175 0.959 . S
H3161 C3175 0.961 . S
H3162 C3176 0.960 . S
H3163 C3176 0.961 . S
H3164 C3176 0.959 . S
H3165 C3179 0.929 . S
H3166 C3180 0.931 . S
H3167 C3182 0.930 . S
C3168 H3156 0.930 . S
C3168 C3169 1.399 . S
C3168 C3173 1.399 . S
C3169 C3168 1.399 . S
C3169 C3170 1.376 . S
C3170 H3157 0.930 . S
C3170 C3169 1.376 . S
C3170 C3171 1.388 . S
C3171 H3158 0.930 . S
C3171 C3170 1.388 . S
C3171 C3172 1.390 . S
C3172 C3171 1.390 . S
C3172 C3173 1.394 . S
C3172 C3178 1.465 . S
C3173 C3168 1.399 . S
C3173 C3172 1.394 . S
C3173 C3174 1.516 . S
C3174 C3173 1.516 . S
C3174 C3175 1.502 . S
C3174 C3176 1.561 . S
C3174 C3177 1.526 . S
C3175 H3159 0.959 . S
C3175 H3160 0.959 . S
C3175 H3161 0.961 . S
C3175 C3174 1.502 . S
C3176 H3162 0.960 . S
C3176 H3163 0.961 . S
C3176 H3164 0.959 . S
C3176 C3174 1.561 . S
C3177 C3174 1.526 . S
C3177 C3178 1.396 . S
C3177 C3182 1.390 . S
C3178 C3172 1.465 . S
C3178 C3177 1.396 . S
C3178 C3179 1.399 . S
C3179 H3165 0.929 . S
C3179 C3178 1.399 . S
C3179 C3180 1.385 . S
C3180 H3166 0.931 . S
C3180 C3179 1.385 . S
C3180 C3181 1.389 . S
C3181 C3180 1.389 . S
C3181 C3182 1.387 . S
C3182 H3167 0.930 . S
C3182 C3177 1.390 . S
C3182 C3181 1.387 . S
H3183 C3195 0.930 . S
H3184 C3197 0.930 . S
H3185 C3198 0.930 . S
H3186 C3202 0.959 . S
H3187 C3202 0.959 . S
H3188 C3202 0.961 . S
H3189 C3203 0.960 . S
H3190 C3203 0.961 . S
H3191 C3203 0.959 . S
H3192 C3206 0.929 . S
H3193 C3207 0.931 . S
H3194 C3209 0.930 . S
C3195 H3183 0.930 . S
C3195 C3196 1.399 . S
C3195 C3200 1.399 . S
C3196 C3195 1.399 . S
C3196 C3197 1.376 . S
C3197 H3184 0.930 . S
C3197 C3196 1.376 . S
C3197 C3198 1.388 . S
C3198 H3185 0.930 . S
C3198 C3197 1.388 . S
C3198 C3199 1.390 . S
C3199 C3198 1.390 . S
C3199 C3200 1.394 . S
C3199 C3205 1.465 . S
C3200 C3195 1.399 . S
C3200 C3199 1.394 . S
C3200 C3201 1.516 . S
C3201 C3200 1.516 . S
C3201 C3202 1.502 . S
C3201 C3203 1.561 . S
C3201 C3204 1.526 . S
C3202 H3186 0.959 . S
C3202 H3187 0.959 . S
C3202 H3188 0.961 . S
C3202 C3201 1.502 . S
C3203 H3189 0.960 . S
C3203 H3190 0.961 . S
C3203 H3191 0.959 . S
C3203 C3201 1.561 . S
C3204 C3201 1.526 . S
C3204 C3205 1.396 . S
C3204 C3209 1.390 . S
C3205 C3199 1.465 . S
C3205 C3204 1.396 . S
C3205 C3206 1.399 . S
C3206 H3192 0.929 . S
C3206 C3205 1.399 . S
C3206 C3207 1.385 . S
C3207 H3193 0.931 . S
C3207 C3206 1.385 . S
C3207 C3208 1.389 . S
C3208 C3207 1.389 . S
C3208 C3209 1.387 . S
C3209 H3194 0.930 . S
C3209 C3204 1.390 . S
C3209 C3208 1.387 . S
H3210 C3222 0.930 . S
H3211 C3224 0.930 . S
H3212 C3225 0.930 . S
H3213 C3229 0.959 . S
H3214 C3229 0.959 . S
H3215 C3229 0.961 . S
H3216 C3230 0.960 . S
H3217 C3230 0.961 . S
H3218 C3230 0.959 . S
H3219 C3233 0.929 . S
H3220 C3234 0.931 . S
H3221 C3236 0.930 . S
C3222 H3210 0.930 . S
C3222 C3223 1.399 . S
C3222 C3227 1.399 . S
C3223 C3222 1.399 . S
C3223 C3224 1.376 . S
C3224 H3211 0.930 . S
C3224 C3223 1.376 . S
C3224 C3225 1.388 . S
C3225 H3212 0.930 . S
C3225 C3224 1.388 . S
C3225 C3226 1.390 . S
C3226 C3225 1.390 . S
C3226 C3227 1.394 . S
C3226 C3232 1.465 . S
C3227 C3222 1.399 . S
C3227 C3226 1.394 . S
C3227 C3228 1.516 . S
C3228 C3227 1.516 . S
C3228 C3229 1.502 . S
C3228 C3230 1.561 . S
C3228 C3231 1.526 . S
C3229 H3213 0.959 . S
C3229 H3214 0.959 . S
C3229 H3215 0.961 . S
C3229 C3228 1.502 . S
C3230 H3216 0.960 . S
C3230 H3217 0.961 . S
C3230 H3218 0.959 . S
C3230 C3228 1.561 . S
C3231 C3228 1.526 . S
C3231 C3232 1.396 . S
C3231 C3236 1.390 . S
C3232 C3226 1.465 . S
C3232 C3231 1.396 . S
C3232 C3233 1.399 . S
C3233 H3219 0.929 . S
C3233 C3232 1.399 . S
C3233 C3234 1.385 . S
C3234 H3220 0.931 . S
C3234 C3233 1.385 . S
C3234 C3235 1.389 . S
C3235 C3234 1.389 . S
C3235 C3236 1.387 . S
C3236 H3221 0.930 . S
C3236 C3231 1.390 . S
C3236 C3235 1.387 . S
H3237 C3249 0.930 . S
H3238 C3251 0.930 . S
H3239 C3252 0.930 . S
H3240 C3256 0.959 . S
H3241 C3256 0.959 . S
H3242 C3256 0.961 . S
H3243 C3257 0.960 . S
H3244 C3257 0.961 . S
H3245 C3257 0.959 . S
H3246 C3260 0.929 . S
H3247 C3261 0.931 . S
H3248 C3263 0.930 . S
C3249 H3237 0.930 . S
C3249 C3250 1.399 . S
C3249 C3254 1.399 . S
C3250 C3249 1.399 . S
C3250 C3251 1.376 . S
C3251 H3238 0.930 . S
C3251 C3250 1.376 . S
C3251 C3252 1.388 . S
C3252 H3239 0.930 . S
C3252 C3251 1.388 . S
C3252 C3253 1.390 . S
C3253 C3252 1.390 . S
C3253 C3254 1.394 . S
C3253 C3259 1.465 . S
C3254 C3249 1.399 . S
C3254 C3253 1.394 . S
C3254 C3255 1.516 . S
C3255 C3254 1.516 . S
C3255 C3256 1.502 . S
C3255 C3257 1.561 . S
C3255 C3258 1.526 . S
C3256 H3240 0.959 . S
C3256 H3241 0.959 . S
C3256 H3242 0.961 . S
C3256 C3255 1.502 . S
C3257 H3243 0.960 . S
C3257 H3244 0.961 . S
C3257 H3245 0.959 . S
C3257 C3255 1.561 . S
C3258 C3255 1.526 . S
C3258 C3259 1.396 . S
C3258 C3263 1.390 . S
C3259 C3253 1.465 . S
C3259 C3258 1.396 . S
C3259 C3260 1.399 . S
C3260 H3246 0.929 . S
C3260 C3259 1.399 . S
C3260 C3261 1.385 . S
C3261 H3247 0.931 . S
C3261 C3260 1.385 . S
C3261 C3262 1.389 . S
C3262 C3261 1.389 . S
C3262 C3263 1.387 . S
C3263 H3248 0.930 . S
C3263 C3258 1.390 . S
C3263 C3262 1.387 . S
C685 C397 0.977 . S
C697 C5 0.954 . S
C712 C19 0.944 . S
C724 C411 0.931 . S
C739 C425 0.930 . S
C751 C33 0.924 . S
C766 C47 0.926 . S
C778 C439 0.939 . S
C793 C341 0.980 . S
C805 C61 0.957 . S
C820 C75 1.098 . S
C832 C355 1.089 . S
C847 C369 1.020 . S
C859 C89 1.046 . S
C874 C103 1.097 . S
C886 C383 1.085 . S
C901 C537 1.054 . S
C913 C117 1.074 . S
C928 C551 0.940 . S
C940 C131 0.962 . S
C955 C509 0.929 . S
C967 C145 0.924 . S
C982 C159 1.093 . S
C994 C523 1.097 . S
C1009 C481 0.923 . S
C1021 C173 0.925 . S
C1036 C495 0.971 . S
C1048 C187 0.949 . S
C1063 C201 1.045 . S
C1075 C453 1.067 . S
C1090 C467 0.996 . S
C1102 C215 0.971 . S
C1117 C229 1.092 . S
C1129 C635 1.097 . S
C1144 C607 1.041 . S
C1156 C243 1.014 . S
C1171 C621 1.095 . S
C1183 C257 1.098 . S
C1198 C579 1.033 . S
C1210 C271 1.007 . S
C1225 C593 1.094 . S
C1237 C285 1.098 . S
C1252 C299 1.084 . S
C1264 C565 1.065 . S
C1279 C313 1.032 . S
C1291 C663 1.056 . S
C1306 C649 1.098 . S
C1318 C327 1.097 . S
C1333 C109 1.496 . S
C1345 C11 1.495 . S
C1360 C67 1.436 . S
C1372 C25 1.438 . S
C1387 C81 1.489 . S
C1399 C39 1.487 . S
C1414 C95 1.458 . S
C1426 C53 1.456 . S
C1441 C291 1.410 . S
C1453 C123 1.411 . S
C1468 C249 1.411 . S
C1480 C137 1.411 . S
C1495 C263 1.469 . S
C1507 C151 1.471 . S
C1522 C277 1.439 . S
C1534 C165 1.442 . S
C1549 C333 1.435 . S
C1561 C179 1.434 . S
C1576 C305 1.472 . S
C1588 C193 1.470 . S
C1603 C207 1.470 . S
C1615 C319 1.472 . S
C1630 C235 1.470 . S
C1642 C221 1.468 . S
C1657 C445 1.410 . S
C1669 C347 1.421 . S
C1684 C403 1.490 . S
C1696 C361 1.497 . S
C1711 C375 1.410 . S
C1723 C417 1.419 . S
C1738 C389 1.469 . S
C1750 C431 1.444 . S
C1765 C459 1.481 . S
C1777 C627 1.495 . S
C1792 C473 1.415 . S
C1804 C585 1.433 . S
C1819 C599 1.421 . S
C1831 C487 1.411 . S
C1846 C613 1.447 . S
C1858 C501 1.472 . S
C1873 C669 1.473 . S
C1885 C515 1.491 . S
C1900 C641 1.448 . S
C1912 C529 1.472 . S
C1927 C655 1.410 . S
C1939 C543 1.419 . S
C1954 C557 1.438 . S
C1966 C571 1.419 . S
C1981 C4 0.962 . S
C1993 C124 0.905 . S
C2008 C138 0.921 . S
C2020 C18 0.907 . S
C2035 C152 1.019 . S
C2047 C32 0.997 . S
C2062 C166 0.995 . S
C2074 C46 1.022 . S
C2089 C60 0.906 . S
C2101 C180 0.922 . S
C2116 C194 0.912 . S
C2128 C74 0.971 . S
C2143 C88 1.009 . S
C2155 C208 0.964 . S
C2170 C222 1.023 . S
C2182 C102 1.011 . S
C2197 C236 0.974 . S
C2209 C116 1.014 . S
C2224 C334 0.885 . S
C2236 C130 0.942 . S
C2251 C144 1.016 . S
C2263 C306 1.022 . S
C2278 C158 1.004 . S
C2290 C320 0.956 . S
C2305 C172 0.909 . S
C2317 C250 0.873 . S
C2332 C186 1.026 . S
C2344 C264 1.009 . S
C2359 C200 0.916 . S
C2371 C278 0.874 . S
C2386 C214 0.918 . S
C2398 C292 0.943 . S
C2413 C228 1.005 . S
C2425 C12 0.957 . S
C2440 C242 1.005 . S
C2452 C68 1.020 . S
C2467 C256 0.905 . S
C2479 C82 0.873 . S
C2494 C270 1.009 . S
C2506 C96 1.022 . S
C2521 C284 1.013 . S
C2533 C110 0.972 . S
C2548 C298 0.910 . S
C2560 C40 0.873 . S
C2575 C54 1.021 . S
C2587 C312 1.003 . S
C2602 C26 0.913 . S
C2614 C326 0.904 . S
C2629 C460 0.929 . S
C2641 C340 0.944 . S
C2656 C474 1.004 . S
C2668 C354 1.007 . S
C2683 C488 0.950 . S
C2695 C368 0.964 . S
C2710 C502 0.906 . S
C2722 C382 0.927 . S
C2737 C516 0.913 . S
C2749 C396 0.931 . S
C2764 C410 0.897 . S
C2776 C530 0.875 . S
C2791 C544 0.898 . S
C2803 C424 0.918 . S
C2818 C438 0.897 . S
C2830 C558 0.875 . S
C2845 C572 1.012 . S
C2857 C452 1.014 . S
C2872 C466 0.966 . S
C2884 C670 0.955 . S
C2899 C480 0.919 . S
C2911 C642 0.900 . S
C2926 C656 0.940 . S
C2938 C494 0.954 . S
C2953 C586 0.984 . S
C2965 C508 0.991 . S
C2980 C522 1.013 . S
C2992 C600 1.008 . S
C3007 C536 0.920 . S
C3019 C614 0.902 . S
C3034 C628 0.893 . S
C3046 C550 0.916 . S
C3061 C348 0.993 . S
C3073 C564 0.999 . S
C3088 C404 1.007 . S
C3100 C578 1.010 . S
C3115 C418 1.011 . S
C3127 C592 1.013 . S
C3142 C606 1.013 . S
C3154 C432 1.007 . S
C3169 C446 1.016 . S
C3181 C620 1.018 . S
C3196 C376 0.885 . S
C3208 C634 0.909 . S
C3223 C648 1.020 . S
C3235 C390 1.015 . S
C3250 C362 0.993 . S
C3262 C662 0.998 . S
