# Generated by pormake.
# Topology xfg, (7)-cn, num edge types: 1
# Building blocks:
#     Node 0, Type 0, BuildingBlock: NUHQUE_clean_sbu_2, # of connection points: 7
#     Node 1, Type 0, BuildingBlock: NUHQUE_clean_sbu_2, # of connection points: 7
#     Node 2, Type 0, BuildingBlock: NUHQUE_clean_sbu_2, # of connection points: 7
#     Node 3, Type 0, BuildingBlock: NUHQUE_clean_sbu_2, # of connection points: 7
#     Node 4, Type 0, BuildingBlock: NUHQUE_clean_sbu_2, # of connection points: 7
#     Node 5, Type 0, BuildingBlock: NUHQUE_clean_sbu_2, # of connection points: 7
#     Node 6, Type 0, BuildingBlock: NUHQUE_clean_sbu_2, # of connection points: 7
#     Node 7, Type 0, BuildingBlock: NUHQUE_clean_sbu_2, # of connection points: 7
#     Node 8, Type 0, BuildingBlock: NUHQUE_clean_sbu_2, # of connection points: 7
#     Node 9, Type 0, BuildingBlock: NUHQUE_clean_sbu_2, # of connection points: 7
#     Node 10, Type 0, BuildingBlock: NUHQUE_clean_sbu_2, # of connection points: 7
#     Node 11, Type 0, BuildingBlock: NUHQUE_clean_sbu_2, # of connection points: 7
#     Node 12, Type 0, BuildingBlock: NUHQUE_clean_sbu_2, # of connection points: 7
#     Node 13, Type 0, BuildingBlock: NUHQUE_clean_sbu_2, # of connection points: 7
#     Node 14, Type 0, BuildingBlock: NUHQUE_clean_sbu_2, # of connection points: 7
#     Node 15, Type 0, BuildingBlock: NUHQUE_clean_sbu_2, # of connection points: 7
#     Edge 16, Type (0, 0), BuildingBlock: UVAHIK_clean_linker_0, # of connection points: 2
#     Edge 17, Type (0, 0), BuildingBlock: UVAHIK_clean_linker_0, # of connection points: 2
#     Edge 18, Type (0, 0), BuildingBlock: UVAHIK_clean_linker_0, # of connection points: 2
#     Edge 19, Type (0, 0), BuildingBlock: UVAHIK_clean_linker_0, # of connection points: 2
#     Edge 20, Type (0, 0), BuildingBlock: UVAHIK_clean_linker_0, # of connection points: 2
#     Edge 21, Type (0, 0), BuildingBlock: UVAHIK_clean_linker_0, # of connection points: 2
#     Edge 22, Type (0, 0), BuildingBlock: UVAHIK_clean_linker_0, # of connection points: 2
#     Edge 23, Type (0, 0), BuildingBlock: UVAHIK_clean_linker_0, # of connection points: 2
#     Edge 24, Type (0, 0), BuildingBlock: UVAHIK_clean_linker_0, # of connection points: 2
#     Edge 25, Type (0, 0), BuildingBlock: UVAHIK_clean_linker_0, # of connection points: 2
#     Edge 26, Type (0, 0), BuildingBlock: UVAHIK_clean_linker_0, # of connection points: 2
#     Edge 27, Type (0, 0), BuildingBlock: UVAHIK_clean_linker_0, # of connection points: 2
#     Edge 28, Type (0, 0), BuildingBlock: UVAHIK_clean_linker_0, # of connection points: 2
#     Edge 29, Type (0, 0), BuildingBlock: UVAHIK_clean_linker_0, # of connection points: 2
#     Edge 30, Type (0, 0), BuildingBlock: UVAHIK_clean_linker_0, # of connection points: 2
#     Edge 31, Type (0, 0), BuildingBlock: UVAHIK_clean_linker_0, # of connection points: 2
#     Edge 32, Type (0, 0), BuildingBlock: UVAHIK_clean_linker_0, # of connection points: 2
#     Edge 33, Type (0, 0), BuildingBlock: UVAHIK_clean_linker_0, # of connection points: 2
#     Edge 34, Type (0, 0), BuildingBlock: UVAHIK_clean_linker_0, # of connection points: 2
#     Edge 35, Type (0, 0), BuildingBlock: UVAHIK_clean_linker_0, # of connection points: 2
#     Edge 36, Type (0, 0), BuildingBlock: UVAHIK_clean_linker_0, # of connection points: 2
#     Edge 37, Type (0, 0), BuildingBlock: UVAHIK_clean_linker_0, # of connection points: 2
#     Edge 38, Type (0, 0), BuildingBlock: UVAHIK_clean_linker_0, # of connection points: 2
#     Edge 39, Type (0, 0), BuildingBlock: UVAHIK_clean_linker_0, # of connection points: 2
#     Edge 40, Type (0, 0), BuildingBlock: UVAHIK_clean_linker_0, # of connection points: 2
#     Edge 41, Type (0, 0), BuildingBlock: UVAHIK_clean_linker_0, # of connection points: 2
#     Edge 42, Type (0, 0), BuildingBlock: UVAHIK_clean_linker_0, # of connection points: 2
#     Edge 43, Type (0, 0), BuildingBlock: UVAHIK_clean_linker_0, # of connection points: 2
#     Edge 44, Type (0, 0), BuildingBlock: UVAHIK_clean_linker_0, # of connection points: 2
#     Edge 45, Type (0, 0), BuildingBlock: UVAHIK_clean_linker_0, # of connection points: 2
#     Edge 46, Type (0, 0), BuildingBlock: UVAHIK_clean_linker_0, # of connection points: 2
#     Edge 47, Type (0, 0), BuildingBlock: UVAHIK_clean_linker_0, # of connection points: 2
#     Edge 48, Type (0, 0), BuildingBlock: UVAHIK_clean_linker_0, # of connection points: 2
#     Edge 49, Type (0, 0), BuildingBlock: UVAHIK_clean_linker_0, # of connection points: 2
#     Edge 50, Type (0, 0), BuildingBlock: UVAHIK_clean_linker_0, # of connection points: 2
#     Edge 51, Type (0, 0), BuildingBlock: UVAHIK_clean_linker_0, # of connection points: 2
#     Edge 52, Type (0, 0), BuildingBlock: UVAHIK_clean_linker_0, # of connection points: 2
#     Edge 53, Type (0, 0), BuildingBlock: UVAHIK_clean_linker_0, # of connection points: 2
#     Edge 54, Type (0, 0), BuildingBlock: UVAHIK_clean_linker_0, # of connection points: 2
#     Edge 55, Type (0, 0), BuildingBlock: UVAHIK_clean_linker_0, # of connection points: 2
#     Edge 56, Type (0, 0), BuildingBlock: UVAHIK_clean_linker_0, # of connection points: 2
#     Edge 57, Type (0, 0), BuildingBlock: UVAHIK_clean_linker_0, # of connection points: 2
#     Edge 58, Type (0, 0), BuildingBlock: UVAHIK_clean_linker_0, # of connection points: 2
#     Edge 59, Type (0, 0), BuildingBlock: UVAHIK_clean_linker_0, # of connection points: 2
#     Edge 60, Type (0, 0), BuildingBlock: UVAHIK_clean_linker_0, # of connection points: 2
#     Edge 61, Type (0, 0), BuildingBlock: UVAHIK_clean_linker_0, # of connection points: 2
#     Edge 62, Type (0, 0), BuildingBlock: UVAHIK_clean_linker_0, # of connection points: 2
#     Edge 63, Type (0, 0), BuildingBlock: UVAHIK_clean_linker_0, # of connection points: 2
#     Edge 64, Type (0, 0), BuildingBlock: UVAHIK_clean_linker_0, # of connection points: 2
#     Edge 65, Type (0, 0), BuildingBlock: UVAHIK_clean_linker_0, # of connection points: 2
#     Edge 66, Type (0, 0), BuildingBlock: UVAHIK_clean_linker_0, # of connection points: 2
#     Edge 67, Type (0, 0), BuildingBlock: UVAHIK_clean_linker_0, # of connection points: 2
#     Edge 68, Type (0, 0), BuildingBlock: UVAHIK_clean_linker_0, # of connection points: 2
#     Edge 69, Type (0, 0), BuildingBlock: UVAHIK_clean_linker_0, # of connection points: 2
#     Edge 70, Type (0, 0), BuildingBlock: UVAHIK_clean_linker_0, # of connection points: 2
#     Edge 71, Type (0, 0), BuildingBlock: UVAHIK_clean_linker_0, # of connection points: 2
# Relax obj value: 0.097
# Max RMSD: 0.187
# Mean RMSD: 0.187
data_MOF--net-xfg--node1-NUHQUE_clean_sbu_2--edge1-UVAHIK_clean_linker_0
_symmetry_space_group_name_H-M    P1
_symmetry_Int_Tables_number       1
_symmetry_cell_setting            triclinic
loop_
_symmetry_equiv_pos_as_xyz
'x, y, z'
_cell_length_a     41.132817
_cell_length_b     41.241813
_cell_length_c     85.588328
_cell_angle_alpha  89.950481
_cell_angle_beta   89.996446
_cell_angle_gamma 90.230879
loop_
_atom_site_label
_atom_site_type_symbol
_atom_site_fract_x
_atom_site_fract_y
_atom_site_fract_z
_atom_type_partial_charge
O0 O 0.29374 0.10041 0.02163 0.0
Tb1 Tb 0.31153 0.08159 0.04367 0.0
Eu2 Eu 0.35032 0.1078 0.07581 0.0
C3 C 0.30277 0.12825 0.01549 0.0
O4 O 0.32204 0.14775 0.02336 0.0
C5 C 0.38766 0.08301 0.04536 0.0
O6 O 0.37131 0.10212 0.09995 0.0
C7 C 0.34416 0.16885 0.06855 0.0
C8 C 0.38619 0.0753 0.1041 0.0
O9 O 0.39028 0.0523 0.09367 0.0
C10 C 0.27577 0.08924 0.07527 0.0
C11 C 0.32608 0.20004 0.06915 0.0
C12 C 0.32062 0.21594 0.05484 0.0
C13 C 0.3071 0.24715 0.05429 0.0
C14 C 0.2979 0.26197 0.06837 0.0
C15 C 0.30255 0.24671 0.08284 0.0
C16 C 0.31726 0.21575 0.08326 0.0
O17 O 0.36202 0.09375 0.03768 0.0
O18 O 0.3871 0.08121 0.06076 0.0
O19 O 0.28644 0.03994 0.03381 0.0
O20 O 0.32489 0.03157 0.04991 0.0
C21 C 0.30315 1.01784 0.04097 0.0
O22 O 0.3031 0.08384 0.08272 0.0
O23 O 0.27664 0.10008 0.0608 0.0
O24 O 0.35989 0.15877 0.081 0.0
O25 O 0.33254 0.14514 0.05987 0.0
H26 H 0.3278 0.20417 0.04406 0.0
H27 H 0.28836 0.28644 0.06823 0.0
H28 H 0.32187 0.20419 0.09441 0.0
O29 O 0.69296 0.54154 0.27411 0.0
Tb30 Tb 0.71745 0.56186 0.29439 0.0
Eu31 Eu 0.69862 0.60014 0.32707 0.0
C32 C 0.66994 0.55675 0.26639 0.0
O33 O 0.65912 0.58467 0.27154 0.0
C34 C 0.72013 0.63781 0.29622 0.0
O35 O 0.7086 0.62575 0.34978 0.0
C36 C 0.63641 0.59489 0.32168 0.0
C37 C 0.73801 0.6244 0.35573 0.0
O38 O 0.76083 0.60933 0.34785 0.0
C39 C 0.7146 0.52547 0.32605 0.0
C40 C 0.60671 0.57407 0.32195 0.0
C41 C 0.592 0.56654 0.30754 0.0
C42 C 0.56261 0.54926 0.3069 0.0
C43 C 0.548 0.53901 0.32085 0.0
C44 C 0.56143 0.54677 0.33543 0.0
C45 C 0.59084 0.56466 0.33599 0.0
O46 O 0.70732 0.61282 0.28878 0.0
O47 O 0.72436 0.63656 0.31147 0.0
O48 O 0.75825 0.54064 0.28192 0.0
O49 O 0.76801 0.57185 0.30115 0.0
C50 C 0.78101 0.55395 0.29029 0.0
O51 O 0.72214 0.55258 0.33321 0.0
O52 O 0.7015 0.5266 0.31202 0.0
O53 O 0.6484 0.60583 0.33491 0.0
O54 O 0.65888 0.5883 0.3112 0.0
H55 H 0.60306 0.57485 0.29674 0.0
H56 H 0.52473 0.52657 0.32039 0.0
H57 H 0.60099 0.57137 0.34721 0.0
O58 O 0.26289 0.95039 0.52299 0.0
Tb59 Tb 0.24376 0.97005 0.54459 0.0
Eu60 Eu 0.20338 0.94571 0.57623 0.0
C61 C 0.25271 0.92331 0.51651 0.0
O62 O 0.23144 0.90496 0.52384 0.0
C63 C 0.16729 0.96961 0.54534 0.0
O64 O 0.18087 0.95122 0.60004 0.0
C65 C 0.21084 0.88473 0.56917 0.0
C66 C 0.16596 0.97809 0.60405 0.0
O67 O 0.16255 1.00124 0.59363 0.0
C68 C 0.27766 0.96425 0.57658 0.0
C69 C 0.23069 0.8547 0.57002 0.0
C70 C 0.23743 0.83883 0.55583 0.0
C71 C 0.25419 0.80932 0.5556 0.0
C72 C 0.26464 0.79575 0.56972 0.0
C73 C 0.25782 0.81049 0.5841 0.0
C74 C 0.24047 0.84005 0.58428 0.0
O75 O 0.19331 0.95886 0.53795 0.0
O76 O 0.16715 0.97173 0.56072 0.0
O77 O 0.26954 1.01127 0.5347 0.0
O78 O 0.23106 1.02027 0.5507 0.0
C79 C 0.25314 0.03364 0.54182 0.0
O80 O 0.24985 0.97057 0.58339 0.0
O81 O 0.27768 0.95215 0.56235 0.0
O82 O 0.19516 0.89459 0.58166 0.0
O83 O 0.22138 0.90862 0.56028 0.0
H84 H 0.22901 0.84919 0.54491 0.0
H85 H 0.27681 0.77246 0.56962 0.0
H86 H 0.2346 0.85135 0.59534 0.0
O87 O 0.86107 0.5105 0.77296 0.0
Tb88 Tb 0.83829 0.49015 0.79371 0.0
Eu89 Eu 0.86153 0.4506 0.82607 0.0
C90 C 0.88668 0.4976 0.76622 0.0
O91 O 0.90088 0.47246 0.77267 0.0
C92 C 0.8387 0.41414 0.79509 0.0
O93 O 0.85282 0.42537 0.84901 0.0
C94 C 0.92343 0.45659 0.82016 0.0
C95 C 0.8233 0.42518 0.85488 0.0
O96 O 0.79962 0.4381 0.8467 0.0
C97 C 0.84308 0.52507 0.82581 0.0
C98 C 0.954 0.47611 0.82022 0.0
C99 C 0.96877 0.48204 0.80567 0.0
C100 C 0.99931 0.49709 0.80462 0.0
C101 C 1.01479 0.50735 0.81836 0.0
C102 C 1.00095 0.50171 0.83311 0.0
C103 C 0.97055 0.48555 0.83406 0.0
O104 O 0.85034 0.43984 0.78774 0.0
O105 O 0.83562 0.41439 0.81042 0.0
O106 O 0.79656 0.51144 0.782 0.0
O107 O 0.78818 0.47765 0.80036 0.0
C108 C 0.77439 0.49637 0.79005 0.0
O109 O 0.83753 0.4974 0.83292 0.0
O110 O 0.85424 0.52526 0.81138 0.0
O111 O 0.91214 0.44446 0.8333 0.0
O112 O 0.90048 0.46453 0.81014 0.0
H113 H 0.95677 0.47397 0.79507 0.0
H114 H 0.03879 0.51826 0.81769 0.0
H115 H 0.96012 0.48024 0.8454 0.0
O116 O 0.76465 0.94967 0.9782 0.0
Tb117 Tb 0.74433 0.97004 0.957 0.0
Eu118 Eu 0.70606 0.94682 0.92482 0.0
C119 C 0.75442 0.92266 0.98477 0.0
O120 O 0.73252 0.9047 0.97766 0.0
C121 C 0.66762 0.96581 0.95623 0.0
O122 O 0.6807 0.95303 0.90175 0.0
C123 C 0.72131 0.88639 0.92868 0.0
C124 C 0.67238 0.98189 0.89665 0.0
O125 O 0.6769 1.00717 0.90574 0.0
C126 C 0.77832 0.96925 0.92519 0.0
C127 C 0.73024 0.85167 0.93045 0.0
C128 C 0.73075 0.8376 0.94544 0.0
C129 C 0.74149 0.80562 0.94755 0.0
C130 C 0.75176 0.7877 0.93455 0.0
C131 C 0.75133 0.80091 0.91947 0.0
C132 C 0.74005 0.83292 0.9174 0.0
O133 O 0.69433 0.95734 0.96376 0.0
O134 O 0.66716 0.9672 0.94083 0.0
O135 O 0.76917 1.01141 0.96723 0.0
O136 O 0.73034 1.02018 0.95139 0.0
C137 C 0.75222 0.03367 0.96032 0.0
O138 O 0.75035 0.97663 0.9188 0.0
O139 O 0.77831 0.95447 0.93882 0.0
O140 O 0.70755 0.89733 0.91589 0.0
O141 O 0.72567 0.90814 0.93976 0.0
H142 H 0.72328 0.85166 0.95551 0.0
H143 H 0.75982 0.76289 0.93615 0.0
H144 H 0.74011 0.84354 0.90581 0.0
O145 O 0.35221 0.51154 0.72855 0.0
Tb146 Tb 0.3337 0.49403 0.70641 0.0
Eu147 Eu 0.36006 0.45653 0.67427 0.0
C148 C 0.38125 0.50469 0.734 0.0
O149 O 0.40165 0.48803 0.72539 0.0
C150 C 0.33578 0.41853 0.70448 0.0
O151 O 0.35402 0.43458 0.65036 0.0
C152 C 0.42122 0.46182 0.68179 0.0
C153 C 0.32696 0.41958 0.64645 0.0
O154 O 0.30393 0.41607 0.65696 0.0
C155 C 0.34232 0.53122 0.67515 0.0
C156 C 0.45231 0.48038 0.68177 0.0
C157 C 0.46767 0.48506 0.69628 0.0
C158 C 0.49838 0.49979 0.69729 0.0
C159 C 0.51352 0.51064 0.68356 0.0
C160 C 0.49908 0.50611 0.66886 0.0
C161 C 0.46843 0.49052 0.66795 0.0
O162 O 0.34701 0.44399 0.71211 0.0
O163 O 0.33304 0.41957 0.68914 0.0
O164 O 0.29097 0.51598 0.71681 0.0
O165 O 0.28423 0.48041 0.6991 0.0
C166 C 0.26954 0.49999 0.70874 0.0
O167 O 0.3374 0.50416 0.66741 0.0
O168 O 0.35196 0.53019 0.68981 0.0
O169 O 0.41118 0.44781 0.66886 0.0
O170 O 0.3974 0.47216 0.69074 0.0
H171 H 0.45593 0.47643 0.70684 0.0
H172 H 0.53769 0.52116 0.68418 0.0
H173 H 0.45742 0.48622 0.65663 0.0
O174 O 0.7926 0.11079 0.47786 0.0
Tb175 Tb 0.81154 0.08658 0.45725 0.0
Eu176 Eu 0.85057 0.10867 0.42473 0.0
C177 C 0.80715 0.13546 0.48469 0.0
O178 O 0.83338 0.14813 0.47837 0.0
C179 C 0.88801 0.08519 0.45534 0.0
O180 O 0.87252 0.10273 0.40082 0.0
C181 C 0.8438 0.16987 0.43156 0.0
C182 C 0.88744 0.07587 0.39682 0.0
O183 O 0.89106 0.05281 0.40727 0.0
C184 C 0.77616 0.09025 0.4253 0.0
C185 C 0.82395 0.19996 0.43086 0.0
C186 C 0.81673 0.21522 0.44514 0.0
C187 C 0.80028 0.24489 0.44553 0.0
C188 C 0.79044 0.25919 0.43146 0.0
C189 C 0.79781 0.24512 0.41699 0.0
C190 C 0.81497 0.21542 0.41668 0.0
O191 O 0.86267 0.09676 0.46296 0.0
O192 O 0.88729 0.0826 0.43998 0.0
O193 O 0.7872 0.04676 0.46919 0.0
O194 O 0.82212 0.03565 0.45168 0.0
C195 C 0.80177 1.02349 0.46181 0.0
O196 O 0.8036 0.08401 0.41812 0.0
O197 O 0.7768 0.1027 0.43946 0.0
O198 O 0.85862 0.15964 0.4189 0.0
O199 O 0.83382 0.14622 0.44075 0.0
H200 H 0.82465 0.20432 0.45602 0.0
H201 H 0.77854 0.28262 0.43172 0.0
H202 H 0.82138 0.20468 0.40556 0.0
O203 O 0.19541 0.5389 0.22905 0.0
Tb204 Tb 0.22034 0.55766 0.20852 0.0
Eu205 Eu 0.1971 0.59659 0.17641 0.0
C206 C 0.17072 0.55358 0.23574 0.0
O207 O 0.15851 0.57977 0.22931 0.0
C208 C 0.22196 0.63405 0.20663 0.0
O209 O 0.2011 0.61871 0.15249 0.0
C210 C 0.13622 0.58958 0.18411 0.0
C211 C 0.22971 0.62238 0.14589 0.0
O212 O 0.25589 0.61465 0.15385 0.0
C213 C 0.21616 0.52263 0.17639 0.0
C214 C 0.10526 0.57086 0.18367 0.0
C215 C 0.08971 0.56518 0.19805 0.0
C216 C 0.05891 0.55055 0.19873 0.0
C217 C 0.04398 0.54067 0.18479 0.0
C218 C 0.05874 0.54593 0.17022 0.0
C219 C 0.08942 0.56156 0.16964 0.0
O220 O 0.21063 0.60866 0.21435 0.0
O221 O 0.22416 0.63329 0.19127 0.0
O222 O 0.25998 0.53353 0.2206 0.0
O223 O 0.27153 0.56836 0.2031 0.0
C224 C 0.28349 0.54813 0.21328 0.0
O225 O 0.22162 0.55023 0.16921 0.0
O226 O 0.20445 0.52272 0.19071 0.0
O227 O 0.14581 0.60533 0.17157 0.0
O228 O 0.16034 0.57843 0.19266 0.0
H229 H 0.10137 0.57298 0.20878 0.0
H230 H 1.01979 0.53014 0.18515 0.0
H231 H 0.10067 0.56646 0.15843 0.0
O232 O 0.79362 0.60831 0.52329 0.0
Tb233 Tb 0.81285 0.5854 0.54415 0.0
Eu234 Eu 0.85231 0.60824 0.57632 0.0
C235 C 0.80599 0.63459 0.51689 0.0
O236 O 0.83031 0.64966 0.52372 0.0
C237 C 0.88922 0.58448 0.54567 0.0
O238 O 0.87367 0.60287 0.60039 0.0
C239 C 0.84536 0.6692 0.56903 0.0
C240 C 0.88877 0.57623 0.60461 0.0
O241 O 0.89316 0.55318 0.59424 0.0
C242 C 0.7779 0.59023 0.5761 0.0
C243 C 0.82555 0.69928 0.56969 0.0
C244 C 0.81858 0.71464 0.5554 0.0
C245 C 0.80178 0.74411 0.55496 0.0
C246 C 0.79154 0.75818 0.56899 0.0
C247 C 0.79863 0.74398 0.58348 0.0
C248 C 0.81602 0.71444 0.58386 0.0
O249 O 0.86373 0.59602 0.53813 0.0
O250 O 0.88873 0.5819 0.56104 0.0
O251 O 0.78793 0.54539 0.53271 0.0
O252 O 0.82378 0.53454 0.54982 0.0
C253 C 0.80289 0.52222 0.53999 0.0
O254 O 0.80539 0.58377 0.58318 0.0
O255 O 0.77843 0.60237 0.56188 0.0
O256 O 0.86077 0.65939 0.58162 0.0
O257 O 0.83487 0.64527 0.56018 0.0
H258 H 0.82682 0.7039 0.54454 0.0
H259 H 0.77936 0.78146 0.5687 0.0
H260 H 0.82209 0.70353 0.59499 0.0
O261 O 0.19516 0.04222 0.77146 0.0
Tb262 Tb 0.2195 0.06174 0.79195 0.0
Eu263 Eu 0.19918 0.10036 0.82459 0.0
C264 C 0.1697 0.05604 0.765 0.0
O265 O 0.15684 0.08175 0.77155 0.0
C266 C 0.22132 0.13771 0.79375 0.0
O267 O 0.2094 0.12438 0.84767 0.0
C268 C 0.13704 0.09581 0.81899 0.0
C269 C 0.23978 0.12787 0.85212 0.0
O270 O 0.26299 0.11878 0.84254 0.0
C271 C 0.21569 1.0256 0.82367 0.0
C272 C 0.10587 0.0772 0.81931 0.0
C273 C 0.09188 0.06881 0.80484 0.0
C274 C 0.06046 0.05558 0.80396 0.0
C275 C 0.04303 0.05031 0.8178 0.0
C276 C 0.05593 0.05869 0.83242 0.0
C277 C 0.08766 0.07197 0.8332 0.0
O278 O 0.20886 0.11256 0.7863 0.0
O279 O 0.22516 0.13669 0.80904 0.0
O280 O 0.26045 0.04037 0.77964 0.0
O281 O 0.27 0.072 0.79873 0.0
C282 C 0.28313 0.0539 0.78798 0.0
O283 O 0.22254 0.05281 0.8309 0.0
O284 O 0.20325 1.02646 0.8095 0.0
O285 O 0.1489 0.10797 0.832 0.0
O286 O 0.15958 0.08705 0.80893 0.0
H287 H 0.10506 0.07369 0.79412 0.0
H288 H 1.01835 0.04104 0.81719 0.0
H289 H 0.09737 0.07949 0.8444 0.0
O290 O 0.76417 0.45398 0.02272 0.0
Tb291 Tb 0.74402 0.47298 0.04426 0.0
Eu292 Eu 0.70577 0.44541 0.07621 0.0
C293 C 0.7559 0.42566 0.01686 0.0
O294 O 0.73559 0.40688 0.02455 0.0
C295 C 0.66854 0.46876 0.04564 0.0
O296 O 0.68322 0.45051 0.1 0.0
C297 C 0.71287 0.38442 0.06913 0.0
C298 C 0.67259 0.47873 0.10492 0.0
O299 O 0.67358 0.5037 0.09538 0.0
C300 C 0.78027 0.46569 0.07601 0.0
C301 C 0.73246 0.35419 0.06986 0.0
C302 C 0.73945 0.33892 0.05558 0.0
C303 C 0.75571 0.30918 0.05514 0.0
C304 C 0.76566 0.29478 0.06916 0.0
C305 C 0.75847 0.30886 0.08367 0.0
C306 C 0.74146 0.33866 0.08402 0.0
O307 O 0.69445 0.45782 0.03829 0.0
O308 O 0.66887 0.47145 0.06099 0.0
O309 O 0.76349 0.51697 0.03373 0.0
O310 O 0.72821 0.52139 0.05176 0.0
C311 C 0.74661 0.53728 0.04197 0.0
O312 O 0.75268 0.46949 0.0835 0.0
O313 O 0.78021 0.45655 0.06126 0.0
O314 O 0.69736 0.39431 0.08166 0.0
O315 O 0.72347 0.40828 0.06023 0.0
H316 H 0.73147 0.34987 0.04471 0.0
H317 H 0.77745 0.27131 0.06883 0.0
H318 H 0.7352 0.34945 0.09515 0.0
O319 O 0.36139 1.01272 0.2725 0.0
Tb320 Tb 0.33672 0.99373 0.29305 0.0
Eu321 Eu 0.3567 0.95434 0.32569 0.0
C322 C 0.38601 0.99817 0.26569 0.0
O323 O 0.39837 0.97193 0.272 0.0
C324 C 0.33424 0.91739 0.29472 0.0
O325 O 0.34638 0.92955 0.34858 0.0
C326 C 0.41888 0.95934 0.32023 0.0
C327 C 0.31601 0.9269 0.35319 0.0
O328 O 0.29291 0.93715 0.34383 0.0
C329 C 0.34033 0.02893 0.32501 0.0
C330 C 0.44945 0.97889 0.32052 0.0
C331 C 0.46466 0.98525 0.3061 0.0
C332 C 0.49518 1.00049 0.30536 0.0
C333 C 0.5102 1.01028 0.3193 0.0
C334 C 0.49594 1.00418 0.33389 0.0
C335 C 0.46556 0.98798 0.33452 0.0
O336 O 0.34621 0.94273 0.28717 0.0
O337 O 0.33089 0.91815 0.31004 0.0
O338 O 0.29724 1.01836 0.2811 0.0
O339 O 0.28546 0.98349 0.29854 0.0
C340 C 0.27363 1.00395 0.28843 0.0
O341 O 0.33305 1.00164 0.33207 0.0
O342 O 0.35324 0.02817 0.31093 0.0
O343 O 0.40695 0.94773 0.33336 0.0
O344 O 0.3964 0.96715 0.30996 0.0
H345 H 0.45303 0.97745 0.29536 0.0
H346 H 0.53422 1.0212 0.3189 0.0
H347 H 0.45482 0.98236 0.34576 0.0
O348 O 0.26309 0.44037 0.4786 0.0
Tb349 Tb 0.24425 0.46525 0.45813 0.0
Eu350 Eu 0.2056 0.44418 0.42533 0.0
C351 C 0.24827 0.41581 0.48541 0.0
O352 O 0.22172 0.40366 0.47917 0.0
C353 C 0.16789 0.46704 0.45594 0.0
O354 O 0.18384 0.45059 0.4014 0.0
C355 C 0.21212 0.38282 0.43194 0.0
C356 C 0.16967 0.47782 0.39733 0.0
O357 O 0.16661 0.50103 0.40773 0.0
C358 C 0.28006 0.46226 0.42626 0.0
C359 C 0.23209 0.3528 0.43136 0.0
C360 C 0.23935 0.33781 0.4457 0.0
C361 C 0.25585 0.3082 0.44624 0.0
C362 C 0.26577 0.29366 0.43225 0.0
C363 C 0.25833 0.30744 0.4177 0.0
C364 C 0.24108 0.3371 0.41725 0.0
O365 O 0.19302 0.45498 0.46356 0.0
O366 O 0.16882 0.47008 0.4406 0.0
O367 O 0.2682 0.50471 0.47049 0.0
O368 O 0.23395 0.51634 0.45275 0.0
C369 C 0.25393 0.52821 0.46312 0.0
O370 O 0.25276 0.46882 0.41902 0.0
O371 O 0.27919 0.4495 0.44036 0.0
O372 O 0.19792 0.39332 0.41916 0.0
O373 O 0.22157 0.40628 0.44134 0.0
H374 H 0.2314 0.34887 0.45654 0.0
H375 H 0.27773 0.27027 0.43265 0.0
H376 H 0.23461 0.34761 0.40608 0.0
O377 O 0.86069 1.01371 0.22908 0.0
Tb378 Tb 0.83633 0.99431 0.20856 0.0
Eu379 Eu 0.85659 0.95585 0.17584 0.0
C380 C 0.88611 0.99985 0.23555 0.0
O381 O 0.8991 0.97425 0.22894 0.0
C382 C 0.83482 0.91833 0.20671 0.0
O383 O 0.84631 0.93132 0.15291 0.0
C384 C 0.91882 0.96109 0.18115 0.0
C385 C 0.81602 0.92914 0.14814 0.0
O386 O 0.79286 0.93982 0.15736 0.0
C387 C 0.83973 0.03051 0.17677 0.0
C388 C 0.94888 0.98138 0.18056 0.0
C389 C 0.96401 0.98902 0.19486 0.0
C390 C 0.99371 1.00578 0.19526 0.0
C391 C 1.00821 1.01544 0.18119 0.0
C392 C 0.99434 1.00755 0.16672 0.0
C393 C 0.96461 0.99015 0.1664 0.0
O394 O 0.84727 0.9435 0.21415 0.0
O395 O 0.83092 0.91936 0.19143 0.0
O396 O 0.79549 1.01565 0.22097 0.0
O397 O 0.78575 0.98334 0.20217 0.0
C398 C 0.77273 1.00159 0.21289 0.0
O399 O 0.83289 1.00325 0.16958 0.0
O400 O 0.85214 0.02975 0.19096 0.0
O401 O 0.90678 0.94918 0.16813 0.0
O402 O 0.89639 0.9688 0.19147 0.0
H403 H 0.95303 0.98117 0.20575 0.0
H404 H 0.03169 0.02752 0.18145 0.0
H405 H 0.95411 0.98333 0.15526 0.0
O406 O 0.30495 0.60789 0.97779 0.0
Tb407 Tb 0.31852 0.58538 0.95589 0.0
Eu408 Eu 0.35556 0.60945 0.92319 0.0
C409 C 0.27457 0.61241 0.98195 0.0
O410 O 0.25109 0.60436 0.97228 0.0
C411 C 0.39398 0.58803 0.95369 0.0
O412 O 0.38041 0.59968 0.90031 0.0
C413 C 0.35013 0.67146 0.92851 0.0
C414 C 0.38687 0.56956 0.89646 0.0
O415 O 0.38004 0.54636 0.90649 0.0
C416 C 0.28072 0.59043 0.92465 0.0
C417 C 0.32968 0.70124 0.92827 0.0
C418 C 0.32293 0.71616 0.94269 0.0
C419 C 0.30604 0.74558 0.9434 0.0
C420 C 0.29537 0.76004 0.92952 0.0
C421 C 0.30239 0.74642 0.9149 0.0
C422 C 0.31991 0.71696 0.91427 0.0
O423 O 0.3686 0.60015 0.961 0.0
O424 O 0.39302 0.58428 0.93842 0.0
O425 O 0.29861 0.54171 0.96668 0.0
O426 O 0.33473 0.53693 0.94895 0.0
C427 C 0.3157 0.52132 0.95855 0.0
O428 O 0.30798 0.5852 0.91709 0.0
O429 O 0.2816 0.60136 0.93911 0.0
O430 O 0.36122 0.65959 0.9153 0.0
O431 O 0.34327 0.649 0.93898 0.0
H432 H 0.33153 0.70522 0.95345 0.0
H433 H 0.28313 0.78327 0.93004 0.0
H434 H 0.32604 0.70663 0.90302 0.0
O435 O 0.69587 0.04007 0.72756 0.0
Tb436 Tb 0.72122 0.05969 0.70732 0.0
Eu437 Eu 0.69852 0.09762 0.67468 0.0
C438 C 0.67245 0.05555 0.73487 0.0
O439 O 0.6618 0.08322 0.72931 0.0
C440 C 0.7228 0.13558 0.70481 0.0
O441 O 0.70397 0.11836 0.65047 0.0
C442 C 0.6375 0.09166 0.68234 0.0
C443 C 0.73065 0.13378 0.64633 0.0
O444 O 0.75363 0.13843 0.65676 0.0
C445 C 0.7168 1.02308 0.67547 0.0
C446 C 0.60611 0.07355 0.68203 0.0
C447 C 0.59198 0.06584 0.69656 0.0
C448 C 0.56053 0.05275 0.6975 0.0
C449 C 0.54326 0.04688 0.68368 0.0
C450 C 0.55633 0.05458 0.669 0.0
C451 C 0.58809 0.06778 0.66814 0.0
O452 O 0.71037 0.11066 0.71244 0.0
O453 O 0.72585 0.13434 0.68949 0.0
O454 O 0.76166 0.03941 0.72044 0.0
O455 O 0.77199 0.06946 0.70083 0.0
C456 C 0.78468 0.05228 0.71206 0.0
O457 O 0.7219 0.05037 0.66793 0.0
O458 O 0.70609 1.02355 0.68998 0.0
O459 O 0.64736 0.10722 0.66978 0.0
O460 O 0.66142 0.08019 0.69091 0.0
H461 H 0.60515 0.0711 0.70724 0.0
H462 H 0.51855 0.03767 0.68434 0.0
H463 H 0.59801 0.07472 0.6569 0.0
C464 C 0.27999 0.1364 0.87367 0.0
C465 C 0.24775 0.13793 0.86829 0.0
C466 C 0.28719 0.14182 0.8894 0.0
C467 C 0.25675 0.17453 0.92674 0.0
H468 H 0.30601 0.1039 0.94492 0.0
C469 C 0.3021 0.16499 0.99191 0.0
C470 C 0.29401 0.13527 0.99904 0.0
C471 C 0.29622 0.16983 0.97593 0.0
C472 C 0.29239 0.12388 0.93999 0.0
H473 H 0.19804 0.14836 0.87503 0.0
H474 H 0.21073 0.15796 0.90257 0.0
H475 H 0.29734 0.10557 0.91677 0.0
H476 H 0.27231 0.08785 0.99507 0.0
H477 H 0.26273 0.0962 0.96736 0.0
H478 H 0.25163 0.19247 0.95021 0.0
C479 C 0.23038 0.15252 0.89457 0.0
C480 C 0.28762 0.12498 0.92387 0.0
C481 C 0.22311 0.14683 0.87882 0.0
C482 C 0.27901 0.111 0.99 0.0
C483 C 0.2736 0.11568 0.97409 0.0
C484 C 0.26199 0.17368 0.94293 0.0
C485 C 0.26237 0.14915 0.90008 0.0
C486 C 0.26938 0.15002 0.91708 0.0
C487 C 0.28264 0.14485 0.96684 0.0
C488 C 0.27934 0.14797 0.94969 0.0
H489 H 0.29961 0.12983 0.86586 0.0
H490 H 0.31212 0.13943 0.8933 0.0
H491 H 0.24268 0.19415 0.92179 0.0
H492 H 0.31356 0.1842 0.99858 0.0
H493 H 0.30338 0.19256 0.97056 0.0
C494 C 0.65237 0.51326 0.12698 0.0
C495 C 0.66305 0.48301 0.12148 0.0
C496 C 0.64665 0.51812 0.14292 0.0
C497 C 0.6741 0.48772 0.18073 0.0
H498 H 0.6034 0.53875 0.19764 0.0
C499 C 0.66735 0.51255 0.24646 0.0
C500 C 0.65981 0.54441 0.2509 0.0
C501 C 0.66204 0.50213 0.23114 0.0
C502 C 0.62341 0.52463 0.1931 0.0
H503 H 0.6746 0.4337 0.12832 0.0
H504 H 0.6647 0.44224 0.15609 0.0
H505 H 0.60462 0.52622 0.16972 0.0
H506 H 0.63925 0.58987 0.24298 0.0
H507 H 0.63087 0.57207 0.21614 0.0
H508 H 0.69375 0.48705 0.20379 0.0
C509 C 0.66105 0.46228 0.1481 0.0
C510 C 0.62404 0.51741 0.17711 0.0
C511 C 0.66659 0.45737 0.13217 0.0
C512 C 0.64528 0.56514 0.23992 0.0
C513 C 0.64035 0.55484 0.22452 0.0
C514 C 0.67364 0.49514 0.19663 0.0
C515 C 0.65167 0.49287 0.15369 0.0
C516 C 0.64953 0.49903 0.17076 0.0
C517 C 0.6495 0.52347 0.21983 0.0
C518 C 0.64843 0.51387 0.20304 0.0
H519 H 0.64931 0.53349 0.11905 0.0
H520 H 0.63964 0.54202 0.14689 0.0
H521 H 0.69439 0.47402 0.17615 0.0
H522 H 0.67817 0.49586 0.25472 0.0
H523 H 0.66855 0.47752 0.22809 0.0
C524 C 0.3326 0.90625 0.37963 0.0
C525 C 0.30809 0.91662 0.36934 0.0
C526 C 0.32554 0.90038 0.3954 0.0
C527 C 0.27087 0.92984 0.42528 0.0
H528 H 0.30266 0.85893 0.45083 0.0
C529 C 0.27951 0.93976 0.49157 0.0
C530 C 0.26225 0.91627 0.50017 0.0
C531 C 0.28534 0.93548 0.47567 0.0
C532 C 0.29352 0.87871 0.44377 0.0
H533 H 0.2566 0.92719 0.36735 0.0
H534 H 0.2445 0.91734 0.39482 0.0
H535 H 0.31128 0.85807 0.42236 0.0
H536 H 0.23922 0.86891 0.49895 0.0
H537 H 0.25013 0.8612 0.47096 0.0
H538 H 0.25402 0.95103 0.44659 0.0
C539 C 0.26916 0.91389 0.39071 0.0
C540 C 0.29856 0.87831 0.42757 0.0
C541 C 0.27612 0.91945 0.37496 0.0
C542 C 0.25244 0.88752 0.49263 0.0
C543 C 0.25873 0.88304 0.47667 0.0
C544 C 0.26634 0.93048 0.44142 0.0
C545 C 0.29392 0.90507 0.40116 0.0
C546 C 0.28735 0.90399 0.41819 0.0
C547 C 0.27448 0.90743 0.468 0.0
C548 C 0.27785 0.90512 0.45083 0.0
H549 H 0.35745 0.90369 0.37565 0.0
H550 H 0.34513 0.89376 0.40322 0.0
H551 H 0.26229 0.95013 0.41839 0.0
H552 H 0.28758 0.96214 0.49697 0.0
H553 H 0.29785 0.95447 0.46927 0.0
C554 C 0.88716 0.59268 0.63276 0.0
C555 C 0.89772 0.571 0.62119 0.0
C556 C 0.89285 0.58625 0.64856 0.0
C557 C 0.90933 0.51762 0.67523 0.0
H558 H 0.9211 0.58631 0.70565 0.0
C559 C 0.91816 0.49075 0.74131 0.0
C560 C 0.8968 0.50911 0.75054 0.0
C561 C 0.92439 0.4996 0.7258 0.0
C562 C 0.91785 0.56688 0.69728 0.0
H563 H 0.92392 0.52628 0.6171 0.0
H564 H 0.93457 0.51543 0.64464 0.0
H565 H 0.92135 0.59931 0.67782 0.0
H566 H 0.86667 0.55216 0.751 0.0
H567 H 0.87771 0.56766 0.72405 0.0
H568 H 0.90552 0.48528 0.69473 0.0
C569 C 0.92115 0.53704 0.64155 0.0
C570 C 0.91786 0.57431 0.68133 0.0
C571 C 0.91523 0.54336 0.62574 0.0
C572 C 0.88313 0.5374 0.74419 0.0
C573 C 0.88961 0.54641 0.72876 0.0
C574 C 0.9096 0.51017 0.69117 0.0
C575 C 0.9095 0.55808 0.6532 0.0
C576 C 0.91292 0.54987 0.67009 0.0
C577 C 0.9097 0.52721 0.71927 0.0
C578 C 0.91322 0.53479 0.70238 0.0
H579 H 0.87352 0.61416 0.62968 0.0
H580 H 0.88308 0.60281 0.65716 0.0
H581 H 0.90494 0.49819 0.66699 0.0
H582 H 0.92916 0.46887 0.74586 0.0
H583 H 0.94024 0.48453 0.71881 0.0
C584 C 0.78265 0.93861 0.0094 0.0
C585 C 0.76436 0.91553 0.00105 0.0
C586 C 0.78855 0.93458 0.02531 0.0
C587 C 0.79457 0.87888 0.0578 0.0
H588 H 0.765 0.95211 0.08237 0.0
C589 C 0.83285 0.90751 0.12194 0.0
C590 C 0.80831 0.91876 0.132 0.0
C591 C 0.82608 0.90139 0.10618 0.0
C592 C 0.77311 0.93134 0.07571 0.0
H593 H 0.73969 0.86905 0.0027 0.0
H594 H 0.7507 0.86178 0.03071 0.0
H595 H 0.75736 0.95224 0.05413 0.0
H596 H 0.75707 0.93069 0.13357 0.0
H597 H 0.7455 0.92041 0.10609 0.0
H598 H 0.81124 0.85849 0.07949 0.0
C599 C 0.76005 0.88311 0.0248 0.0
C600 C 0.76895 0.93154 0.05955 0.0
C601 C 0.75371 0.88733 0.00882 0.0
C602 C 0.77659 0.92226 0.12614 0.0
C603 C 0.76994 0.91645 0.11039 0.0
C604 C 0.79926 0.87892 0.07404 0.0
C605 C 0.77671 0.90721 0.03323 0.0
C606 C 0.77985 0.90548 0.05043 0.0
C607 C 0.79476 0.9067 0.10017 0.0
C608 C 0.78863 0.90525 0.08312 0.0
H609 H 0.79142 0.96054 0.00381 0.0
H610 H 0.80176 0.95332 0.03154 0.0
H611 H 0.80321 0.85856 0.05097 0.0
H612 H 0.8575 0.90443 0.12611 0.0
H613 H 0.84571 0.89405 0.09853 0.0
C614 C 0.39936 0.52893 0.87564 0.0
C615 C 0.3976 0.56147 0.88043 0.0
C616 C 0.40509 0.52121 0.86 0.0
C617 C 0.43212 0.553 0.82169 0.0
H618 H 0.36574 0.49519 0.80535 0.0
C619 C 0.42032 0.50795 0.75663 0.0
C620 C 0.38906 0.5129 0.75041 0.0
C621 C 0.42637 0.51352 0.77254 0.0
C622 C 0.38458 0.51117 0.80978 0.0
H623 H 0.4027 0.61139 0.87275 0.0
H624 H 0.41272 0.59782 0.8454 0.0
H625 H 0.3691 0.50469 0.83339 0.0
H626 H 0.33997 0.52846 0.75591 0.0
H627 H 0.35047 0.53753 0.78349 0.0
H628 H 0.44699 0.55984 0.79782 0.0
C629 C 0.40967 0.57833 0.85377 0.0
C630 C 0.38668 0.51642 0.82582 0.0
C631 C 0.40371 0.58608 0.86942 0.0
C632 C 0.36431 0.52429 0.76029 0.0
C633 C 0.37023 0.52937 0.77611 0.0
C634 C 0.43029 0.54735 0.80556 0.0
C635 C 0.40943 0.54584 0.84883 0.0
C636 C 0.41005 0.53785 0.83194 0.0
C637 C 0.40111 0.52359 0.78244 0.0
C638 C 0.40598 0.52695 0.79948 0.0
H639 H 0.39502 0.50937 0.88384 0.0
H640 H 0.40516 0.49595 0.85654 0.0
H641 H 0.45044 0.56954 0.82612 0.0
H642 H 0.43992 0.4993 0.7493 0.0
H643 H 0.4504 0.50895 0.7772 0.0
C644 C 0.71387 0.13334 0.61817 0.0
C645 C 0.73595 0.14313 0.62979 0.0
C646 C 0.72026 0.13964 0.60241 0.0
C647 C 0.78904 0.15592 0.57575 0.0
H648 H 0.72026 0.17128 0.54569 0.0
C649 C 0.8158 0.16594 0.50975 0.0
C650 C 0.79614 0.1459 0.50037 0.0
C651 C 0.80732 0.17209 0.52531 0.0
C652 C 0.73972 0.16702 0.55395 0.0
H653 H 0.78138 0.16854 0.63401 0.0
H654 H 0.79221 0.1801 0.60655 0.0
H655 H 0.70758 0.17034 0.57356 0.0
H656 H 0.7512 0.11819 0.49971 0.0
H657 H 0.73644 0.129 0.52674 0.0
H658 H 0.82105 0.1521 0.55613 0.0
C659 C 0.77028 0.16689 0.60958 0.0
C660 C 0.73246 0.16636 0.56992 0.0
C661 C 0.76398 0.16043 0.62534 0.0
C662 C 0.76698 0.13361 0.50663 0.0
C663 C 0.75839 0.13997 0.52211 0.0
C664 C 0.79631 0.15677 0.5598 0.0
C665 C 0.74879 0.15608 0.59788 0.0
C666 C 0.75692 0.16014 0.58101 0.0
C667 C 0.77885 0.15861 0.53175 0.0
C668 C 0.77163 0.16168 0.5487 0.0
H669 H 0.69207 0.11991 0.62119 0.0
H670 H 0.70335 0.13054 0.59376 0.0
H671 H 0.80844 0.15057 0.58389 0.0
H672 H 0.83837 0.17587 0.50528 0.0
H673 H 0.82338 0.18686 0.5324 0.0
C674 C 0.1399 0.56276 0.26066 0.0
C675 C 0.15977 0.54283 0.25141 0.0
C676 C 0.13332 0.55453 0.27622 0.0
C677 C 0.13617 0.48743 0.30503 0.0
H678 H 0.15482 0.55571 0.33485 0.0
C679 C 0.16885 0.46095 0.36922 0.0
C680 C 0.16017 0.48336 0.38084 0.0
C681 C 0.16262 0.46745 0.35348 0.0
C682 C 0.14882 0.53645 0.32674 0.0
H683 H 0.18668 0.4977 0.25095 0.0
H684 H 0.17504 0.48333 0.27798 0.0
H685 H 0.15384 0.56814 0.30706 0.0
H686 H 0.13675 0.52954 0.38507 0.0
H687 H 0.12522 0.54058 0.35763 0.0
H688 H 0.13155 0.45562 0.32468 0.0
C689 C 0.16458 0.50532 0.27325 0.0
C690 C 0.14831 0.54362 0.31078 0.0
C691 C 0.17141 0.51367 0.25777 0.0
C692 C 0.14399 0.51188 0.3764 0.0
C693 C 0.13755 0.51829 0.36065 0.0
C694 C 0.13643 0.4803 0.32101 0.0
C695 C 0.14615 0.52604 0.28277 0.0
C696 C 0.14265 0.51906 0.29973 0.0
C697 C 0.14733 0.49644 0.34894 0.0
C698 C 0.14347 0.50458 0.33207 0.0
H699 H 0.13046 0.58534 0.2561 0.0
H700 H 0.11874 0.5708 0.28323 0.0
H701 H 0.13133 0.46808 0.29679 0.0
H702 H 0.18142 0.43877 0.37222 0.0
H703 H 0.17095 0.45024 0.34483 0.0
C704 C 0.7209 0.65378 0.38005 0.0
C705 C 0.74469 0.63672 0.37166 0.0
C706 C 0.72637 0.66281 0.39559 0.0
C707 C 0.79111 0.66842 0.42627 0.0
H708 H 0.71905 0.65275 0.45449 0.0
C709 C 0.77053 0.62632 0.49354 0.0
C710 C 0.79461 0.64462 0.50119 0.0
C711 C 0.76209 0.63304 0.4781 0.0
C712 C 0.73946 0.65725 0.44678 0.0
H713 H 0.79333 0.61672 0.37286 0.0
H714 H 0.8025 0.63153 0.39993 0.0
H715 H 0.71021 0.64995 0.42647 0.0
H716 H 0.8275 0.68557 0.49884 0.0
H717 H 0.81235 0.6977 0.47183 0.0
H718 H 0.82081 0.67349 0.44664 0.0
C719 C 0.77984 0.63865 0.39451 0.0
C720 C 0.7343 0.65609 0.43066 0.0
C721 C 0.77447 0.62988 0.37897 0.0
C722 C 0.80901 0.67085 0.49324 0.0
C723 C 0.80046 0.67768 0.47773 0.0
C724 C 0.79634 0.66929 0.44241 0.0
C725 C 0.75568 0.65477 0.40313 0.0
C726 C 0.76025 0.66074 0.42018 0.0
C727 C 0.77734 0.65841 0.46987 0.0
C728 C 0.77077 0.66275 0.45287 0.0
H729 H 0.69778 0.65965 0.37471 0.0
H730 H 0.70742 0.67568 0.40177 0.0
H731 H 0.81154 0.67282 0.41857 0.0
H732 H 0.75887 0.60595 0.49928 0.0
H733 H 0.74459 0.61732 0.47241 0.0
C734 C 0.13935 1.01162 0.62486 0.0
C735 C 0.15621 0.98347 0.62051 0.0
C736 C 0.13285 1.01807 0.6406 0.0
C737 C 0.13334 0.98074 0.68043 0.0
H738 H 0.14925 0.06916 0.69386 0.0
C739 C 0.17049 1.01596 0.74308 0.0
C740 C 0.15836 0.04486 0.74948 0.0
C741 C 0.16307 1.0072 0.72772 0.0
C742 C 0.14413 0.04447 0.69029 0.0
H743 H 0.17854 0.93948 0.62926 0.0
H744 H 0.16797 0.95103 0.65662 0.0
H745 H 0.14963 0.05631 0.66612 0.0
H746 H 0.1276 0.08645 0.74501 0.0
H747 H 0.1149 0.07123 0.71807 0.0
H748 H 0.12935 0.96881 0.70475 0.0
C749 C 0.15916 0.96793 0.64792 0.0
C750 C 0.14429 0.03706 0.67436 0.0
C751 C 0.16544 0.96138 0.63219 0.0
C752 C 0.13744 0.06409 0.74041 0.0
C753 C 0.13028 0.05548 0.72496 0.0
C754 C 0.13345 0.98813 0.69638 0.0
C755 C 0.14325 0.99662 0.65237 0.0
C756 C 0.13952 1.00498 0.66922 0.0
C757 C 0.14356 0.02726 0.71837 0.0
C758 C 0.13943 1.01997 0.70149 0.0
H759 H 0.13167 0.02902 0.61614 0.0
H760 H 0.12003 0.04011 0.64356 0.0
H761 H 0.12891 0.9559 0.67691 0.0
H762 H 0.18655 1.00051 0.74978 0.0
H763 H 0.17389 0.98545 0.72295 0.0
C764 C 0.7878 0.43786 0.9927 0.0
C765 C 0.76743 0.41661 0.00106 0.0
C766 C 0.79661 0.43108 0.97731 0.0
C767 C 0.76828 0.38618 0.9428 0.0
H768 H 0.85143 0.41434 0.92619 0.0
C769 C 0.84269 0.40102 0.88014 0.0
C770 C 0.81741 0.41414 0.87112 0.0
C771 C 0.83784 0.39383 0.89596 0.0
C772 C 0.82827 0.40575 0.9306 0.0
H773 H 0.7414 0.37082 0.99997 0.0
H774 H 0.75713 0.35878 0.97303 0.0
H775 H 0.84245 0.41466 0.95426 0.0
H776 H 0.76679 0.42873 0.87148 0.0
H777 H 0.75856 0.41695 0.89899 0.0
H778 H 0.75411 0.37725 0.91912 0.0
C779 C 0.76586 0.38097 0.97837 0.0
C780 C 0.82297 0.40635 0.94672 0.0
C781 C 0.75698 0.38779 0.99382 0.0
C782 C 0.78682 0.41865 0.87808 0.0
C783 C 0.78202 0.41164 0.89388 0.0
C784 C 0.77363 0.38541 0.92666 0.0
C785 C 0.78542 0.4028 0.96985 0.0
C786 C 0.7926 0.3975 0.95299 0.0
C787 C 0.80763 0.39974 0.90312 0.0
C788 C 0.80339 0.39606 0.92032 0.0
H789 H 0.79631 0.46028 0.99788 0.0
H790 H 0.81125 0.44873 0.97107 0.0
H791 H 0.74454 0.37931 0.94719 0.0
H792 H 0.86649 0.39701 0.8751 0.0
H793 H 0.85795 0.38417 0.90264 0.0
C794 C 0.41227 0.04175 0.12508 0.0
C795 C 0.39548 0.0699 0.12063 0.0
C796 C 0.41858 0.03536 0.14085 0.0
C797 C 0.41847 0.07295 0.18054 0.0
H798 H 0.40273 0.98465 0.19425 0.0
C799 C 0.38477 0.03837 0.24379 0.0
C800 C 0.3967 1.0092 0.25003 0.0
C801 C 0.39132 0.04699 0.22831 0.0
C802 C 0.4078 1.00931 0.1906 0.0
H803 H 0.37301 0.1139 0.12924 0.0
H804 H 0.38333 0.10247 0.15667 0.0
H805 H 0.40153 0.99737 0.1665 0.0
H806 H 0.42627 0.96699 0.24511 0.0
H807 H 0.43758 0.98203 0.218 0.0
H808 H 0.42343 0.08498 0.20478 0.0
C809 C 0.39218 0.08552 0.14801 0.0
C810 C 0.40715 1.01664 0.17466 0.0
C811 C 0.38605 0.092 0.13225 0.0
C812 C 0.41661 0.98956 0.24065 0.0
C813 C 0.42294 0.99808 0.2251 0.0
C814 C 0.41891 0.06564 0.1965 0.0
C815 C 0.40809 0.05687 0.15255 0.0
C816 C 0.41192 0.04866 0.16942 0.0
C817 C 0.4098 1.02656 0.21867 0.0
C818 C 0.41305 0.03382 0.20172 0.0
H819 H 0.42009 1.02433 0.11641 0.0
H820 H 0.43139 1.01334 0.14387 0.0
H821 H 0.42287 0.09776 0.17692 0.0
H822 H 0.36947 0.05413 0.25071 0.0
H823 H 0.38062 0.06896 0.2237 0.0
C824 C 0.29288 0.39262 0.62587 0.0
C825 C 0.32134 0.40947 0.63005 0.0
C826 C 0.28627 0.38556 0.6102 0.0
C827 C 0.32353 0.38372 0.57041 0.0
H828 H 0.23515 0.39984 0.5568 0.0
C829 C 0.28892 0.41656 0.50714 0.0
C830 C 0.25936 0.405 0.50103 0.0
C831 C 0.29763 0.41001 0.5226 0.0
C832 C 0.25982 0.39463 0.56042 0.0
H833 H 0.36567 0.43124 0.62109 0.0
H834 H 0.35386 0.41962 0.59381 0.0
H835 H 0.24817 0.40177 0.5845 0.0
H836 H 0.21652 0.37603 0.50613 0.0
H837 H 0.23171 0.36472 0.53321 0.0
H838 H 0.33529 0.37792 0.54618 0.0
C839 C 0.33684 0.4113 0.60261 0.0
C840 C 0.26732 0.39572 0.57634 0.0
C841 C 0.34353 0.41817 0.61828 0.0
C842 C 0.23941 0.3854 0.5105 0.0
C843 C 0.24801 0.37907 0.52603 0.0
C844 C 0.31605 0.38285 0.55447 0.0
C845 C 0.30786 0.39536 0.59833 0.0
C846 C 0.29939 0.39087 0.58153 0.0
C847 C 0.27689 0.3919 0.53234 0.0
C848 C 0.28421 0.38887 0.54928 0.0
H849 H 0.27538 0.38533 0.63467 0.0
H850 H 0.264 0.37275 0.60737 0.0
H851 H 0.34835 0.37924 0.574 0.0
H852 H 0.30494 0.43161 0.50015 0.0
H853 H 0.31991 0.42047 0.52712 0.0
C854 C 0.91772 0.99125 0.26029 0.0
C855 C 0.8972 1.01078 0.25115 0.0
C856 C 0.92455 0.99961 0.2758 0.0
C857 C 0.92116 0.06663 0.30456 0.0
H858 H 0.90401 0.99813 0.33453 0.0
C859 C 0.88813 0.09271 0.3687 0.0
C860 C 0.89718 0.0705 0.38035 0.0
C861 C 0.89456 0.08628 0.35297 0.0
C862 C 0.9096 1.01745 0.32638 0.0
H863 H 0.86938 0.05535 0.25082 0.0
H864 H 0.88147 0.06997 0.27776 0.0
H865 H 0.90487 0.98564 0.30676 0.0
H866 H 0.9215 1.02481 0.38469 0.0
H867 H 0.93338 1.01392 0.35727 0.0
H868 H 0.92546 0.09856 0.32415 0.0
C869 C 0.89223 0.04819 0.27299 0.0
C870 C 0.91005 1.01026 0.31043 0.0
C871 C 0.88514 0.03969 0.25756 0.0
C872 C 0.91396 0.04231 0.37598 0.0
C873 C 0.9206 0.03597 0.36024 0.0
C874 C 0.92097 0.0738 0.32053 0.0
C875 C 0.91134 0.02785 0.2824 0.0
C876 C 0.91511 0.03489 0.29933 0.0
C877 C 0.91044 0.05759 0.3485 0.0
C878 C 0.91444 0.04944 0.33164 0.0
H879 H 0.92747 0.96886 0.25568 0.0
H880 H 0.93963 0.98363 0.28273 0.0
H881 H 0.92555 0.08603 0.29628 0.0
H882 H 0.8751 0.11464 0.37164 0.0
H883 H 0.88593 0.1033 0.34428 0.0
C884 C 0.29268 0.62861 0.00871 0.0
C885 C 0.26724 0.62345 0.99802 0.0
C886 C 0.28607 0.63589 0.02431 0.0
C887 C 0.22202 0.62469 0.05379 0.0
H888 H 0.2791 0.67837 0.07903 0.0
C889 C 0.20392 0.63644 0.12026 0.0
C890 C 0.23215 0.63163 0.12921 0.0
C891 C 0.20607 0.64175 0.10415 0.0
C892 C 0.26297 0.66328 0.07213 0.0
H893 H 0.21486 0.62352 0.99518 0.0
H894 H 0.20328 0.63676 0.02243 0.0
H895 H 0.28617 0.67695 0.05072 0.0
H896 H 0.28483 0.6301 0.1284 0.0
H897 H 0.28855 0.63918 0.10032 0.0
H898 H 0.19924 0.61053 0.07521 0.0
C899 C 0.22838 0.63452 0.01878 0.0
C900 C 0.26702 0.66243 0.05591 0.0
C901 C 0.23501 0.6271 0.00315 0.0
C902 C 0.26261 0.63365 0.12184 0.0
C903 C 0.26476 0.63906 0.10575 0.0
C904 C 0.21788 0.62567 0.06999 0.0
C905 C 0.25384 0.63836 0.02962 0.0
C906 C 0.24705 0.64255 0.04658 0.0
C907 C 0.23648 0.64249 0.09667 0.0
C908 C 0.23872 0.64444 0.07937 0.0
H909 H 0.31783 0.62602 0.00518 0.0
H910 H 0.3063 0.63822 0.03233 0.0
H911 H 0.2065 0.60874 0.04703 0.0
H912 H 0.18007 0.63523 0.12558 0.0
H913 H 0.18387 0.64474 0.09751 0.0
C914 C 0.65359 1.017 0.87446 0.0
C915 C 0.66212 0.98622 0.88019 0.0
C916 C 0.64769 1.02168 0.85851 0.0
C917 C 0.67257 0.98847 0.82101 0.0
H918 H 0.60469 0.04253 0.80361 0.0
C919 C 0.66816 1.01202 0.75511 0.0
C920 C 0.66166 0.04394 0.75039 0.0
C921 C 0.66218 1.0022 0.77048 0.0
C922 C 0.62395 0.02757 0.80828 0.0
H923 H 0.66947 0.93588 0.87376 0.0
H924 H 0.6594 0.94415 0.84598 0.0
H925 H 0.60527 0.031 0.83165 0.0
H926 H 0.6423 0.09022 0.75786 0.0
H927 H 0.63294 0.07355 0.78478 0.0
H928 H 0.69231 0.98608 0.79802 0.0
C929 C 0.65752 0.96468 0.85381 0.0
C930 C 0.62418 1.0209 0.82434 0.0
C931 C 0.66315 0.95995 0.86974 0.0
C932 C 0.64752 0.06541 0.76114 0.0
C933 C 0.64201 0.05575 0.7766 0.0
C934 C 0.67259 0.99541 0.80506 0.0
C935 C 0.65044 0.99571 0.84797 0.0
C936 C 0.64862 1.00141 0.83086 0.0
C937 C 0.6501 1.02425 0.78158 0.0
C938 C 0.64842 1.01522 0.79845 0.0
H939 H 0.65247 0.03772 0.8822 0.0
H940 H 0.64245 0.0459 0.85434 0.0
H941 H 0.69207 0.97386 0.82574 0.0
H942 H 0.67866 0.99478 0.74703 0.0
H943 H 0.66782 0.97748 0.77373 0.0
C944 C 0.21659 0.46119 0.17517 0.0
C945 C 0.22382 0.4914 0.16829 0.0
C946 C 0.22506 0.43204 0.16769 0.0
C947 C 0.23006 0.37422 0.14491 0.0
H948 H 0.31277 0.37003 0.12328 0.0
C949 C 0.26071 0.27593 0.09865 0.0
C950 C 0.29298 0.26521 0.09709 0.0
C951 C 0.25256 0.30012 0.10944 0.0
C952 C 0.28975 0.37051 0.12941 0.0
H953 H 0.24559 0.51426 0.14796 0.0
H954 H 0.26022 0.46382 0.13502 0.0
H955 H 0.29814 0.41897 0.13757 0.0
H956 H 0.34182 0.27084 0.10603 0.0
H957 H 0.32763 0.3129 0.12512 0.0
H958 H 0.2216 0.3258 0.13663 0.0
C959 C 0.24825 0.46253 0.14628 0.0
C960 C 0.28113 0.39886 0.13746 0.0
C961 C 0.23958 0.49158 0.15368 0.0
C962 C 0.31667 0.27815 0.10716 0.0
C963 C 0.30856 0.30265 0.11791 0.0
C964 C 0.23858 0.34593 0.13675 0.0
C965 C 0.2413 0.43228 0.15318 0.0
C966 C 0.25101 0.40132 0.1452 0.0
C967 C 0.27652 0.31465 0.1189 0.0
C968 C 0.26845 0.34372 0.12875 0.0
H969 H 0.20456 0.46 0.18641 0.0
H970 H 0.21946 0.4093 0.17343 0.0
H971 H 0.20661 0.37516 0.15064 0.0
H972 H 0.24205 0.26682 0.09085 0.0
H973 H 0.22774 0.30878 0.10968 0.0
C974 C 0.53163 0.50558 0.35158 0.0
C975 C 0.5422 0.53781 0.3496 0.0
C976 C 0.50693 0.49781 0.36224 0.0
C977 C 0.43528 0.53536 0.38081 0.0
H978 H 0.42944 0.45343 0.4029 0.0
C979 C 0.34165 0.46302 0.42587 0.0
C980 C 0.31181 0.46995 0.41855 0.0
C981 C 0.37131 0.47157 0.41876 0.0
C982 C 0.4307 0.47656 0.39693 0.0
H983 H 0.536 0.58698 0.35779 0.0
H984 H 0.49308 0.57348 0.37665 0.0
H985 H 0.47976 0.46824 0.38946 0.0
H986 H 0.29015 0.4912 0.39784 0.0
H987 H 0.34149 0.50582 0.38551 0.0
H988 H 0.38623 0.54366 0.3882 0.0
C989 C 0.50376 0.55415 0.36984 0.0
C990 C 0.45955 0.48497 0.38909 0.0
C991 C 0.52874 0.56187 0.35921 0.0
C992 C 0.31252 0.48545 0.40389 0.0
C993 C 0.34209 0.49413 0.39684 0.0
C994 C 0.4064 0.52689 0.38856 0.0
C995 C 0.49182 0.52213 0.37117 0.0
C996 C 0.46219 0.51436 0.38076 0.0
C997 C 0.37197 0.48751 0.40419 0.0
C998 C 0.40349 0.49718 0.39659 0.0
H999 H 0.54127 0.48657 0.3442 0.0
H1000 H 0.49837 0.47298 0.36277 0.0
H1001 H 0.43609 0.55802 0.37441 0.0
H1002 H 0.34214 0.45122 0.43717 0.0
H1003 H 0.39374 0.46625 0.42485 0.0
C1004 C 0.30078 0.78426 0.60034 0.0
C1005 C 0.26791 0.79263 0.59845 0.0
C1006 C 0.30999 0.75964 0.61069 0.0
C1007 C 0.28237 0.70517 0.64303 0.0
H1008 H 0.34347 0.64536 0.62423 0.0
C1009 C 0.33435 0.59205 0.67592 0.0
C1010 C 0.33601 0.563 0.66731 0.0
C1011 C 0.32667 0.62155 0.66855 0.0
C1012 C 0.32632 0.6617 0.62968 0.0
H1013 H 0.21908 0.78276 0.60657 0.0
H1014 H 0.23512 0.73985 0.62489 0.0
H1015 H 0.32881 0.69482 0.61046 0.0
H1016 H 0.33106 0.54259 0.64409 0.0
H1017 H 0.31811 0.59373 0.6313 0.0
H1018 H 0.27961 0.67146 0.66216 0.0
C1019 C 0.25388 0.75254 0.61842 0.0
C1020 C 0.31816 0.69038 0.62184 0.0
C1021 C 0.24465 0.77732 0.60801 0.0
C1022 C 0.33015 0.56438 0.65112 0.0
C1023 C 0.32282 0.59384 0.64375 0.0
C1024 C 0.2908 0.6765 0.65097 0.0
C1025 C 0.28656 0.74246 0.61942 0.0
C1026 C 0.29596 0.71254 0.62834 0.0
C1027 C 0.32081 0.62287 0.65234 0.0
C1028 C 0.31269 0.65419 0.64432 0.0
H1029 H 0.3192 0.79542 0.59302 0.0
H1030 H 0.33543 0.75314 0.61137 0.0
H1031 H 0.26529 0.72163 0.64843 0.0
H1032 H 0.33854 0.59197 0.68841 0.0
H1033 H 0.32562 0.64341 0.67553 0.0
C1034 C 0.24858 0.56751 0.90213 0.0
C1035 C 0.24901 0.58249 0.91691 0.0
C1036 C 0.2192 0.5585 0.89501 0.0
C1037 C 0.13048 0.57455 0.89472 0.0
H1038 H 0.12657 0.4928 0.87243 0.0
C1039 C 0.03122 0.54357 0.84864 0.0
C1040 C 1.02046 0.51131 0.8471 0.0
C1041 C 0.05573 0.55186 0.85933 0.0
C1042 C 0.12698 0.51554 0.87874 0.0
H1043 H 0.21828 0.6 0.93565 0.0
H1044 H 0.16692 0.58454 0.92312 0.0
H1045 H 0.17593 0.50788 0.88648 0.0
H1046 H 1.02641 0.46258 0.85596 0.0
H1047 H 0.06916 0.47696 0.87478 0.0
H1048 H 0.08158 0.58232 0.88679 0.0
C1049 C 0.18949 0.5798 0.91704 0.0
C1050 C 0.15555 0.52441 0.88667 0.0
C1051 C 0.219 0.58861 0.92426 0.0
C1052 C 0.03378 0.48772 0.85706 0.0
C1053 C 0.05863 0.49594 0.86767 0.0
C1054 C 0.10196 0.56579 0.88666 0.0
C1055 C 0.18918 0.56432 0.90236 0.0
C1056 C 0.15791 0.55422 0.89463 0.0
C1057 C 0.07057 0.52801 0.86867 0.0
C1058 C 0.09987 0.53627 0.87841 0.0
H1059 H 0.27106 0.56237 0.89604 0.0
H1060 H 0.22005 0.54716 0.88361 0.0
H1061 H 0.13133 0.59773 0.90064 0.0
H1062 H 1.02177 0.56219 0.84097 0.0
H1063 H 0.06432 0.5767 0.8596 0.0
C1064 C 0.83819 0.58636 0.82668 0.0
C1065 C 0.83603 0.55605 0.83422 0.0
C1066 C 0.83017 0.61512 0.83463 0.0
C1067 C 0.82038 0.64841 0.87487 0.0
H1068 H 0.77195 0.717 0.85455 0.0
C1069 C 0.79529 0.76754 0.90741 0.0
C1070 C 0.76383 0.78054 0.90639 0.0
C1071 C 0.80548 0.74314 0.89718 0.0
C1072 C 0.78538 0.69805 0.86043 0.0
H1073 H 0.8236 0.5326 0.85614 0.0
H1074 H 0.80971 0.5822 0.86983 0.0
H1075 H 0.78669 0.6683 0.83983 0.0
H1076 H 0.71879 0.779 0.89339 0.0
H1077 H 0.73644 0.73605 0.87545 0.0
H1078 H 0.81847 0.67739 0.89553 0.0
C1079 C 0.81794 0.584 0.85784 0.0
C1080 C 0.79415 0.67021 0.85193 0.0
C1081 C 0.8258 0.55537 0.84991 0.0
C1082 C 0.74331 0.76973 0.89432 0.0
C1083 C 0.75347 0.74502 0.88408 0.0
C1084 C 0.81173 0.67614 0.88332 0.0
C1085 C 0.81997 0.61436 0.85036 0.0
C1086 C 0.81159 0.64483 0.85907 0.0
C1087 C 0.78439 0.73064 0.88569 0.0
C1088 C 0.79404 0.70144 0.87628 0.0
H1089 H 0.84583 0.58789 0.8146 0.0
H1090 H 0.83232 0.638 0.82849 0.0
H1091 H 0.83412 0.62971 0.88078 0.0
H1092 H 0.81165 0.77541 0.91659 0.0
H1093 H 0.82973 0.73345 0.89859 0.0
C1094 C 0.746 0.56648 0.59851 0.0
C1095 C 0.74637 0.58297 0.5841 0.0
C1096 C 0.71659 0.5582 0.6058 0.0
C1097 C 0.65163 0.52655 0.61405 0.0
H1098 H 0.58092 0.58823 0.61617 0.0
C1099 C 0.52964 0.49308 0.64415 0.0
C1100 C 0.51821 0.51621 0.65485 0.0
C1101 C 0.55427 0.50116 0.63341 0.0
C1102 C 0.60038 0.57065 0.61567 0.0
H1103 H 0.71564 0.60399 0.56621 0.0
H1104 H 0.66428 0.58978 0.57902 0.0
H1105 H 0.63084 0.60255 0.60221 0.0
H1106 H 0.52242 0.56628 0.66213 0.0
H1107 H 0.56469 0.58056 0.64332 0.0
H1108 H 0.62159 0.49494 0.6278 0.0
C1109 C 0.68688 0.58328 0.58468 0.0
C1110 C 0.62897 0.5788 0.60755 0.0
C1111 C 0.71638 0.59135 0.5773 0.0
C1112 C 0.53048 0.54804 0.6539 0.0
C1113 C 0.5548 0.5562 0.64311 0.0
C1114 C 0.62298 0.51831 0.62205 0.0
C1115 C 0.68656 0.56631 0.59898 0.0
C1116 C 0.65523 0.55705 0.60683 0.0
C1117 C 0.56784 0.53264 0.63303 0.0
C1118 C 0.59706 0.54039 0.62318 0.0
H1119 H 0.76851 0.55959 0.60414 0.0
H1120 H 0.71742 0.54562 0.6169 0.0
H1121 H 0.67109 0.50897 0.61359 0.0
H1122 H 0.52102 0.46826 0.64475 0.0
H1123 H 0.56339 0.48247 0.62571 0.0
C1124 C 0.73769 0.49289 0.34834 0.0
C1125 C 0.722 0.4937 0.33372 0.0
C1126 C 0.74621 0.46337 0.35534 0.0
C1127 C 0.77865 0.3993 0.36359 0.0
H1128 H 0.71963 0.32585 0.36268 0.0
C1129 C 0.81328 0.27758 0.39315 0.0
C1130 C 0.78902 0.2639 0.40268 0.0
C1131 C 0.80568 0.30241 0.38248 0.0
C1132 C 0.73647 0.34609 0.36306 0.0
H1133 H 0.70275 0.46355 0.31514 0.0
H1134 H 0.71754 0.41199 0.32738 0.0
H1135 H 0.70496 0.37601 0.34925 0.0
H1136 H 0.73756 0.26438 0.40791 0.0
H1137 H 0.72417 0.30698 0.38925 0.0
H1138 H 0.80973 0.36983 0.37775 0.0
C1139 C 0.72312 0.43433 0.33348 0.0
C1140 C 0.72814 0.37486 0.35522 0.0
C1141 C 0.7147 0.46397 0.32641 0.0
C1142 C 0.75672 0.27412 0.40057 0.0
C1143 C 0.74907 0.29868 0.38986 0.0
C1144 C 0.78704 0.37052 0.37135 0.0
C1145 C 0.73928 0.43358 0.348 0.0
C1146 C 0.74888 0.40211 0.35556 0.0
C1147 C 0.77357 0.31403 0.38102 0.0
C1148 C 0.7659 0.34357 0.3714 0.0
H1149 H 0.74372 0.51517 0.35439 0.0
H1150 H 0.75805 0.46393 0.36664 0.0
H1151 H 0.79555 0.41949 0.36396 0.0
H1152 H 0.83845 0.27062 0.39469 0.0
H1153 H 0.82516 0.31325 0.37573 0.0
C1154 C 0.81193 0.47853 0.10047 0.0
C1155 C 0.81164 0.47217 0.08431 0.0
C1156 C 0.84105 0.48564 0.10829 0.0
C1157 C 0.92574 0.51506 0.10224 0.0
H1158 H 0.93915 0.47885 0.14352 0.0
C1159 C 1.02668 0.55913 0.14593 0.0
C1160 C 0.04005 0.5359 0.15608 0.0
C1161 C 1.00179 0.55048 0.1354 0.0
C1162 C 0.9361 0.48898 0.13194 0.0
H1163 H 0.84222 0.46853 0.06376 0.0
H1164 H 0.89307 0.48093 0.07742 0.0
H1165 H 0.89013 0.4652 0.12904 0.0
H1166 H 0.03925 0.48516 0.16247 0.0
H1167 H 0.99686 0.46986 0.14393 0.0
H1168 H 0.97193 0.53888 0.10524 0.0
C1169 C 0.87062 0.48054 0.08403 0.0
C1170 C 0.90765 0.48142 0.12368 0.0
C1171 C 0.84143 0.47316 0.0762 0.0
C1172 C 0.02956 0.50354 0.15473 0.0
C1173 C 1.00488 0.4949 0.14424 0.0
C1174 C 0.95423 0.52283 0.11057 0.0
C1175 C 0.87087 0.48683 0.10021 0.0
C1176 C 0.9019 0.49441 0.10873 0.0
C1177 C 0.98969 0.51842 0.13484 0.0
C1178 C 0.95985 0.50986 0.12556 0.0
H1179 H 0.78955 0.47816 0.10714 0.0
H1180 H 0.84009 0.49074 0.12069 0.0
H1181 H 0.92211 0.52575 0.09081 0.0
H1182 H 0.03382 0.58435 0.14691 0.0
H1183 H 0.9907 0.56932 0.12841 0.0
C1184 C 0.75612 0.77162 0.59946 0.0
C1185 C 0.78878 0.76232 0.59773 0.0
C1186 C 0.74738 0.79637 0.60981 0.0
C1187 C 0.77547 0.84926 0.64257 0.0
H1188 H 0.71657 0.91115 0.62367 0.0
C1189 C 0.72424 0.96216 0.67584 0.0
C1190 C 0.7234 0.99156 0.66746 0.0
C1191 C 0.73187 0.93285 0.66831 0.0
C1192 C 0.73311 0.89423 0.62914 0.0
H1193 H 0.83766 0.77064 0.60617 0.0
H1194 H 0.8224 0.81377 0.6245 0.0
H1195 H 0.73054 0.86179 0.60969 0.0
H1196 H 0.72985 1.01281 0.64447 0.0
H1197 H 0.74272 0.96199 0.63142 0.0
H1198 H 0.77828 0.88225 0.66197 0.0
C1199 C 0.80346 0.80174 0.61787 0.0
C1200 C 0.74087 0.86561 0.62118 0.0
C1201 C 0.81223 0.77684 0.60745 0.0
C1202 C 0.73012 0.99074 0.65134 0.0
C1203 C 0.7374 0.96147 0.64381 0.0
C1204 C 0.76742 0.87787 0.65063 0.0
C1205 C 0.77106 0.81273 0.61872 0.0
C1206 C 0.76224 0.84269 0.62772 0.0
C1207 C 0.73849 0.93207 0.65217 0.0
C1208 C 0.74632 0.9009 0.64396 0.0
H1209 H 0.73754 0.76105 0.59205 0.0
H1210 H 0.72212 0.80357 0.61037 0.0
H1211 H 0.79191 0.8322 0.64801 0.0
H1212 H 0.71937 0.9618 0.68828 0.0
H1213 H 0.73221 0.9107 0.67512 0.0
C1214 C 1.00384 0.07183 0.8459 0.0
C1215 C 0.03391 0.05578 0.84622 0.0
C1216 C 0.97933 0.06415 0.85663 0.0
C1217 C 0.95172 0.99693 0.88266 0.0
H1218 H 0.88642 0.05991 0.89439 0.0
C1219 C 0.83958 0.9666 0.92255 0.0
C1220 C 0.80943 0.97854 0.91732 0.0
C1221 C 0.86874 0.97611 0.91523 0.0
C1222 C 0.90434 0.04195 0.89117 0.0
H1223 H 0.06229 1.01986 0.85849 0.0
H1224 H 1.01973 1.00695 0.87771 0.0
H1225 H 0.93495 0.07765 0.88047 0.0
H1226 H 0.78662 1.00998 0.90025 0.0
H1227 H 0.83721 0.02677 0.88773 0.0
H1228 H 0.92088 0.96131 0.89357 0.0
C1229 C 1.01486 1.0252 0.86893 0.0
C1230 C 0.93228 0.05211 0.88312 0.0
C1231 C 0.03952 0.03294 0.85809 0.0
C1232 C 0.80928 1.00021 0.90461 0.0
C1233 C 0.83838 1.01005 0.89747 0.0
C1234 C 0.92387 0.98682 0.8909 0.0
C1235 C 0.98403 0.04014 0.86812 0.0
C1236 C 0.95614 0.0297 0.87839 0.0
C1237 C 0.86855 0.99822 0.90268 0.0
C1238 C 0.89947 1.0091 0.89498 0.0
H1239 H 0.99866 0.08926 0.83676 0.0
H1240 H 0.95604 0.07597 0.85532 0.0
H1241 H 0.96914 0.97875 0.87912 0.0
H1242 H 0.84067 0.94988 0.9323 0.0
H1243 H 0.89151 0.96661 0.9196 0.0
C1244 C 0.83985 0.09204 0.17596 0.0
C1245 C 0.83247 0.06209 0.16887 0.0
C1246 C 0.8317 0.12147 0.16862 0.0
C1247 C 0.82743 0.18006 0.14622 0.0
H1248 H 0.74572 0.18504 0.12377 0.0
C1249 C 0.79943 0.27929 0.09996 0.0
C1250 C 0.76727 0.29002 0.09797 0.0
C1251 C 0.80694 0.25495 0.11081 0.0
C1252 C 0.76846 0.18436 0.13014 0.0
H1253 H 0.81081 0.04003 0.14833 0.0
H1254 H 0.79686 0.0909 0.13563 0.0
H1255 H 0.75948 0.1358 0.13803 0.0
H1256 H 0.71794 0.28437 0.1063 0.0
H1257 H 0.73099 0.24206 0.12547 0.0
H1258 H 0.83644 0.22863 0.13822 0.0
C1259 C 0.80862 0.0918 0.14695 0.0
C1260 C 0.77659 0.15582 0.13817 0.0
C1261 C 0.81691 0.06248 0.15421 0.0
C1262 C 0.74302 0.27701 0.10773 0.0
C1263 C 0.75048 0.25237 0.11853 0.0
C1264 C 0.81937 0.20857 0.13809 0.0
C1265 C 0.81569 0.12179 0.15405 0.0
C1266 C 0.80638 0.15304 0.14619 0.0
C1267 C 0.78243 0.24031 0.11991 0.0
C1268 C 0.78989 0.21106 0.12978 0.0
H1269 H 0.85171 0.09279 0.18725 0.0
H1270 H 0.83739 0.144 0.17452 0.0
H1271 H 0.85063 0.17891 0.15216 0.0
H1272 H 0.81858 0.28853 0.09246 0.0
H1273 H 0.83173 0.24628 0.11136 0.0
C1274 C 0.74411 0.067 0.40281 0.0
C1275 C 0.74455 0.08246 0.41747 0.0
C1276 C 0.71467 0.05819 0.39568 0.0
C1277 C 0.62599 0.07535 0.39544 0.0
H1278 H 0.62119 0.99375 0.37307 0.0
C1279 C 0.52569 0.04559 0.34985 0.0
C1280 C 0.51507 1.01335 0.34805 0.0
C1281 C 0.55031 0.05354 0.36052 0.0
C1282 C 0.62184 1.01645 0.37942 0.0
H1283 H 0.71386 0.10099 0.436 0.0
H1284 H 0.6625 0.08576 0.42351 0.0
H1285 H 0.67083 1.00838 0.38698 0.0
H1286 H 0.52124 0.96432 0.35646 0.0
H1287 H 0.56408 0.97813 0.37532 0.0
H1288 H 0.577 0.08345 0.38778 0.0
C1289 C 0.68504 0.08056 0.41749 0.0
C1290 C 0.65059 1.02508 0.38724 0.0
C1291 C 0.71456 0.08923 0.42469 0.0
C1292 C 0.52851 0.98944 0.35777 0.0
C1293 C 0.55343 0.99734 0.36839 0.0
C1294 C 0.59727 0.0668 0.38752 0.0
C1295 C 0.68465 0.06465 0.40292 0.0
C1296 C 0.65328 0.05484 0.39523 0.0
C1297 C 0.56534 0.02939 0.3696 0.0
C1298 C 0.59485 0.03735 0.37924 0.0
H1299 H 0.7666 0.06137 0.39684 0.0
H1300 H 0.71549 0.04652 0.38435 0.0
H1301 H 0.62708 0.09851 0.40136 0.0
H1302 H 0.51614 0.06445 0.34234 0.0
H1303 H 0.55887 0.07839 0.36095 0.0
C1304 C 0.24285 0.27522 0.39379 0.0
C1305 C 0.26711 0.28845 0.40346 0.0
C1306 C 0.25037 0.25053 0.38304 0.0
C1307 C 0.26865 0.18257 0.37153 0.0
H1308 H 0.35074 0.17744 0.34941 0.0
C1309 C 0.31744 0.06083 0.34755 0.0
C1310 C 0.33304 0.06048 0.3329 0.0
C1311 C 0.30907 0.09012 0.35479 0.0
C1312 C 0.32756 0.1785 0.35538 0.0
H1313 H 0.31847 0.28731 0.40887 0.0
H1314 H 0.33172 0.24497 0.39007 0.0
H1315 H 0.33635 0.22715 0.36327 0.0
H1316 H 0.35227 0.09122 0.31451 0.0
H1317 H 0.33777 0.1424 0.32718 0.0
H1318 H 0.25987 0.13394 0.36373 0.0
C1319 C 0.30688 0.2535 0.39065 0.0
C1320 C 0.31939 0.20701 0.36347 0.0
C1321 C 0.29932 0.27788 0.40144 0.0
C1322 C 0.34039 0.09045 0.3258 0.0
C1323 C 0.33213 0.11986 0.33311 0.0
C1324 C 0.27688 0.15404 0.36354 0.0
C1325 C 0.28238 0.23865 0.38163 0.0
C1326 C 0.28994 0.20938 0.37181 0.0
C1327 C 0.31607 0.12014 0.34767 0.0
C1328 C 0.30665 0.15137 0.35549 0.0
H1329 H 0.21775 0.28245 0.39524 0.0
H1330 H 0.23089 0.24006 0.37617 0.0
H1331 H 0.24594 0.18316 0.37792 0.0
H1332 H 0.31138 0.03836 0.35345 0.0
H1333 H 0.29729 0.0892 0.3661 0.0
C1334 C 1.02755 0.9914 0.14329 0.0
C1335 C 1.01345 1.01589 0.15243 0.0
C1336 C 0.05263 0.99879 0.13267 0.0
C1337 C 0.12109 1.01799 0.12179 0.0
H1338 H 0.12585 0.09803 0.09808 0.0
C1339 C 0.24336 0.06803 0.09812 0.0
C1340 C 0.24403 0.08198 0.0831 0.0
C1341 C 0.21383 0.05958 0.10527 0.0
C1342 C 0.1249 0.07542 0.10452 0.0
H1343 H 1.01349 0.06746 0.15704 0.0
H1344 H 0.0565 0.08049 0.13841 0.0
H1345 H 0.07553 0.08346 0.11162 0.0
H1346 H 0.21365 0.09823 0.06396 0.0
H1347 H 0.16212 0.08364 0.07647 0.0
H1348 H 0.17044 1.01 0.11479 0.0
C1349 C 0.04833 0.05556 0.13931 0.0
C1350 C 0.09605 0.06717 0.1124 0.0
C1351 C 1.02354 0.04813 0.14999 0.0
C1352 C 0.21418 0.08765 0.07554 0.0
C1353 C 0.18455 0.07934 0.08275 0.0
C1354 C 0.14996 1.02634 0.114 0.0
C1355 C 0.06406 0.03089 0.13087 0.0
C1356 C 0.09378 0.03846 0.1213 0.0
C1357 C 0.18394 0.0649 0.09769 0.0
C1358 C 0.15248 0.05537 0.10538 0.0
H1359 H 1.0207 0.96628 0.14511 0.0
H1360 H 0.0638 0.97917 0.12624 0.0
H1361 H 0.12056 0.99589 0.12863 0.0
H1362 H 0.26574 0.06328 0.10436 0.0
H1363 H 0.21445 0.04906 0.11687 0.0
C1364 C 0.31682 0.779 0.89094 0.0
C1365 C 0.29297 0.76544 0.90076 0.0
C1366 C 0.30876 0.80375 0.88031 0.0
C1367 C 0.2389 0.84698 0.86132 0.0
H1368 H 0.29762 0.92069 0.86164 0.0
C1369 C 0.21626 0.9641 0.8242 0.0
C1370 C 0.22326 0.99397 0.83144 0.0
C1371 C 0.22489 0.93461 0.83135 0.0
C1372 C 0.28084 0.9004 0.86143 0.0
H1373 H 0.24177 0.76606 0.90654 0.0
H1374 H 0.22759 0.80852 0.88792 0.0
H1375 H 0.31238 0.87129 0.87554 0.0
H1376 H 0.24467 1.01585 0.85208 0.0
H1377 H 0.25943 0.96488 0.86447 0.0
H1378 H 0.20697 0.87651 0.84753 0.0
C1379 C 0.25251 0.8002 0.88831 0.0
C1380 C 0.28954 0.87179 0.86925 0.0
C1381 C 0.26061 0.77574 0.89899 0.0
C1382 C 0.23886 0.99346 0.84608 0.0
C1383 C 0.24763 0.9641 0.85317 0.0
C1384 C 0.23027 0.87556 0.8534 0.0
C1385 C 0.27661 0.81538 0.87916 0.0
C1386 C 0.26854 0.84475 0.86951 0.0
C1387 C 0.24099 0.93419 0.8459 0.0
C1388 C 0.25089 0.90291 0.85354 0.0
H1389 H 0.34203 0.77197 0.8922 0.0
H1390 H 0.32794 0.8145 0.87333 0.0
H1391 H 0.22216 0.82665 0.86111 0.0
H1392 H 0.20439 0.96345 0.81291 0.0
H1393 H 0.21952 0.91215 0.82533 0.0
C1394 C 0.50444 0.0674 0.65533 0.0
C1395 C 0.53436 0.05102 0.65522 0.0
C1396 C 0.47936 0.05838 0.64518 0.0
C1397 C 0.4558 1.0148 0.60942 0.0
H1398 H 0.37589 0.99856 0.63218 0.0
C1399 C 0.3391 0.96186 0.57919 0.0
C1400 C 0.30872 0.97237 0.58479 0.0
C1401 C 0.36805 0.97035 0.587 0.0
C1402 C 0.39768 1.00345 0.62548 0.0
H1403 H 0.56202 1.01349 0.6437 0.0
H1404 H 0.51813 0.99816 0.62547 0.0
H1405 H 0.42382 1.01727 0.64607 0.0
H1406 H 0.28536 1.00079 0.60286 0.0
H1407 H 0.33513 1.01635 0.616 0.0
H1408 H 0.42932 1.00189 0.5887 0.0
C1409 C 0.51421 1.01797 0.63355 0.0
C1410 C 0.42536 1.01404 0.63353 0.0
C1411 C 0.53942 0.02688 0.64388 0.0
C1412 C 0.30816 0.9918 0.59828 0.0
C1413 C 0.33695 1.00059 0.60593 0.0
C1414 C 0.42781 1.00462 0.60125 0.0
C1415 C 0.48345 0.0328 0.63453 0.0
C1416 C 0.4547 1.02023 0.62563 0.0
C1417 C 0.36746 0.98986 0.60055 0.0
C1418 C 0.39811 0.99915 0.60914 0.0
H1419 H 0.49977 0.08597 0.66398 0.0
H1420 H 0.45619 0.07065 0.64609 0.0
H1421 H 0.47803 1.01934 0.60298 0.0
H1422 H 0.34051 0.94689 0.56883 0.0
H1423 H 0.39084 0.96123 0.58251 0.0
C1424 C 0.60967 0.98663 0.95792 0.0
C1425 C 0.63785 0.97511 0.96542 0.0
C1426 C 0.58275 0.99766 0.96657 0.0
C1427 C 0.55917 0.02707 0.00661 0.0
H1428 H 0.47144 1.0143 0.99128 0.0
C1429 C 0.44482 0.05986 0.04409 0.0
C1430 C 0.41722 0.07224 0.0364 0.0
C1431 C 0.47171 0.04822 0.03559 0.0
C1432 C 0.49575 1.01852 0.99571 0.0
H1433 H 0.65906 0.96591 0.98819 0.0
H1434 H 0.61228 0.98445 0.00317 0.0
H1435 H 0.51724 0.99323 0.97643 0.0
H1436 H 0.39693 0.08214 0.01351 0.0
H1437 H 0.44357 0.06237 0.99881 0.0
H1438 H 0.53762 0.05233 0.02591 0.0
C1439 C 0.61105 0.98555 0.99055 0.0
C1440 C 0.52223 1.00634 0.98712 0.0
C1441 C 0.63795 0.97454 0.98189 0.0
C1442 C 0.41758 0.07285 0.01993 0.0
C1443 C 0.4444 0.06116 0.01144 0.0
C1444 C 0.53268 0.03923 0.01521 0.0
C1445 C 0.58301 0.99761 0.98307 0.0
C1446 C 0.55449 1.0104 0.99238 0.0
C1447 C 0.47193 0.04843 0.01909 0.0
C1448 C 0.50044 0.03526 0.00991 0.0
H1449 H 0.60855 0.98777 0.94529 0.0
H1450 H 0.56202 1.00704 0.96026 0.0
H1451 H 0.58347 0.03137 0.01103 0.0
H1452 H 0.44555 0.05873 0.05672 0.0
H1453 H 0.49209 0.03836 0.04201 0.0
C1454 C 0.74509 0.69412 0.29467 0.0
C1455 C 0.73037 0.66742 0.28718 0.0
C1456 C 0.7562 0.7211 0.28606 0.0
C1457 C 0.74899 0.7622 0.24697 0.0
H1458 H 0.82852 0.8054 0.25967 0.0
C1459 C 0.81005 0.86194 0.20828 0.0
C1460 C 0.82464 0.88872 0.21576 0.0
C1461 C 0.79896 0.83497 0.21689 0.0
C1462 C 0.80605 0.79398 0.256 0.0
H1463 H 0.71584 0.64874 0.26455 0.0
H1464 H 0.73525 0.69534 0.24963 0.0
H1465 H 0.80816 0.75944 0.27473 0.0
H1466 H 0.83896 0.90754 0.2384 0.0
H1467 H 0.8196 0.86093 0.25333 0.0
H1468 H 0.7469 0.79673 0.22824 0.0
C1469 C 0.7379 0.69576 0.26221 0.0
C1470 C 0.79426 0.76744 0.26471 0.0
C1471 C 0.72683 0.66878 0.27081 0.0
C1472 C 0.82807 0.88744 0.23214 0.0
C1473 C 0.81702 0.86046 0.24075 0.0
C1474 C 0.76078 0.78873 0.23826 0.0
C1475 C 0.75298 0.72237 0.26966 0.0
C1476 C 0.7655 0.75103 0.26036 0.0
C1477 C 0.80207 0.83379 0.23331 0.0
C1478 C 0.78954 0.80514 0.2426 0.0
H1479 H 0.74833 0.69413 0.30722 0.0
H1480 H 0.76714 0.74113 0.29235 0.0
H1481 H 0.72652 0.75079 0.24329 0.0
H1482 H 0.80689 0.86187 0.19572 0.0
H1483 H 0.7881 0.81489 0.21061 0.0
C1484 C 0.94489 0.06148 0.45676 0.0
C1485 C 0.91762 0.0748 0.46434 0.0
C1486 C 0.97186 0.0503 0.46534 0.0
C1487 C 1.01138 0.05489 0.50498 0.0
H1488 H 0.05701 0.97819 0.49101 0.0
C1489 C 0.11033 0.99283 0.54354 0.0
C1490 C 0.13794 0.97984 0.53611 0.0
C1491 C 0.08358 1.00401 0.53481 0.0
C1492 C 0.04489 0.99987 0.49504 0.0
H1493 H 0.89791 0.08666 0.48712 0.0
H1494 H 0.9444 0.0671 0.50197 0.0
H1495 H 1.01127 0.99869 0.47588 0.0
H1496 H 0.15845 0.96845 0.51344 0.0
H1497 H 0.1122 0.98793 0.49832 0.0
H1498 H 0.04496 0.05603 0.52415 0.0
C1499 C 0.94532 0.06565 0.48935 0.0
C1500 C 1.01848 1.01174 0.4863 0.0
C1501 C 0.91839 0.07681 0.48078 0.0
C1502 C 0.1377 0.97808 0.51966 0.0
C1503 C 0.11094 0.98919 0.51094 0.0
C1504 C 0.03776 0.043 0.51373 0.0
C1505 C 0.97254 0.05202 0.48181 0.0
C1506 C 1.00117 0.03947 0.4911 0.0
C1507 C 0.08344 1.00258 0.51834 0.0
C1508 C 0.05502 1.01524 0.50895 0.0
H1509 H 0.94537 0.05943 0.44415 0.0
H1510 H 0.99234 0.04048 0.45899 0.0
H1511 H 0.99931 0.07659 0.50902 0.0
H1512 H 0.10943 0.99468 0.55615 0.0
H1513 H 0.06286 1.01361 0.54105 0.0
C1514 C 0.74787 0.19195 0.70621 0.0
C1515 C 0.73345 0.16514 0.71375 0.0
C1516 C 0.75926 0.21883 0.7148 0.0
C1517 C 0.78415 0.24359 0.75532 0.0
H1518 H 0.77622 0.3308 0.73895 0.0
C1519 C 0.81452 0.35755 0.79317 0.0
C1520 C 0.82855 0.38482 0.78584 0.0
C1521 C 0.80348 0.33083 0.78438 0.0
C1522 C 0.7791 0.30663 0.74368 0.0
H1523 H 0.71954 0.14624 0.73646 0.0
H1524 H 0.73884 0.19285 0.75129 0.0
H1525 H 0.75587 0.28504 0.72376 0.0
H1526 H 0.84211 0.40472 0.76329 0.0
H1527 H 0.82345 0.35827 0.74808 0.0
H1528 H 0.80739 0.26511 0.77523 0.0
C1529 C 0.74189 0.19305 0.73873 0.0
C1530 C 0.76732 0.28021 0.7349 0.0
C1531 C 0.73049 0.16626 0.73015 0.0
C1532 C 0.83147 0.38431 0.76943 0.0
C1533 C 0.82044 0.35762 0.76064 0.0
C1534 C 0.79594 0.26999 0.76409 0.0
C1535 C 0.7567 0.21977 0.73125 0.0
C1536 C 0.76955 0.24818 0.74057 0.0
C1537 C 0.80605 0.33043 0.76793 0.0
C1538 C 0.7936 0.30204 0.75846 0.0
H1539 H 0.75081 0.19204 0.69363 0.0
H1540 H 0.77075 0.2386 0.70854 0.0
H1541 H 0.78699 0.21942 0.76006 0.0
H1542 H 0.81159 0.35696 0.80574 0.0
H1543 H 0.79224 0.31075 0.79051 0.0
C1544 C 0.24569 0.19427 0.79218 0.0
C1545 C 0.23153 0.16728 0.78468 0.0
C1546 C 0.25676 0.22123 0.78355 0.0
C1547 C 0.25045 0.26153 0.74421 0.0
H1548 H 0.32895 0.3059 0.75743 0.0
C1549 C 0.31176 0.36176 0.70581 0.0
C1550 C 0.32555 0.38879 0.71342 0.0
C1551 C 0.30067 0.33467 0.71435 0.0
C1552 C 0.30677 0.29413 0.75361 0.0
H1553 H 0.21795 0.14807 0.76202 0.0
H1554 H 0.23731 0.19461 0.74707 0.0
H1555 H 0.30862 0.25994 0.77248 0.0
H1556 H 0.33845 0.40798 0.73619 0.0
H1557 H 0.31914 0.3612 0.75097 0.0
H1558 H 0.24863 0.29573 0.72533 0.0
C1559 C 0.23954 0.19527 0.75966 0.0
C1560 C 0.295 0.2676 0.76231 0.0
C1561 C 0.2285 0.16833 0.76829 0.0
C1562 C 0.32819 0.38768 0.72983 0.0
C1563 C 0.31718 0.3606 0.73836 0.0
C1564 C 0.26223 0.28806 0.7355 0.0
C1565 C 0.25407 0.22218 0.76711 0.0
C1566 C 0.26659 0.25079 0.7578 0.0
C1567 C 0.30304 0.33364 0.7308 0.0
C1568 C 0.2906 0.3049 0.74004 0.0
H1569 H 0.24851 0.19453 0.80475 0.0
H1570 H 0.26726 0.24149 0.78983 0.0
H1571 H 0.22825 0.24979 0.7404 0.0
H1572 H 0.30921 0.36158 0.69322 0.0
H1573 H 0.29043 0.31437 0.708 0.0
C1574 C 0.24555 0.69105 0.20779 0.0
C1575 C 0.23224 0.66386 0.2155 0.0
C1576 C 0.25649 0.71831 0.21623 0.0
C1577 C 0.2819 0.74454 0.25651 0.0
H1578 H 0.27168 0.83105 0.23958 0.0
C1579 C 0.31073 0.86043 0.29333 0.0
C1580 C 0.32422 0.88766 0.28572 0.0
C1581 C 0.29999 0.83322 0.28481 0.0
C1582 C 0.27519 0.80709 0.24446 0.0
H1583 H 0.21988 0.64472 0.23836 0.0
H1584 H 0.23836 0.69205 0.25295 0.0
H1585 H 0.25192 0.78443 0.22484 0.0
H1586 H 0.33708 0.90694 0.26295 0.0
H1587 H 0.31885 0.85966 0.24821 0.0
H1588 H 0.30513 0.76721 0.27614 0.0
C1589 C 0.24091 0.69224 0.24036 0.0
C1590 C 0.26376 0.78016 0.23595 0.0
C1591 C 0.22997 0.66502 0.23193 0.0
C1592 C 0.32685 0.8866 0.26931 0.0
C1593 C 0.31608 0.85942 0.26079 0.0
C1594 C 0.29331 0.77147 0.26503 0.0
C1595 C 0.25456 0.71936 0.23269 0.0
C1596 C 0.26686 0.74834 0.24181 0.0
C1597 C 0.30228 0.83225 0.26836 0.0
C1598 C 0.29017 0.80329 0.25918 0.0
H1599 H 0.24795 0.69116 0.19519 0.0
H1600 H 0.26714 0.73833 0.20981 0.0
H1601 H 0.28542 0.7206 0.2614 0.0
H1602 H 0.30805 0.86023 0.30591 0.0
H1603 H 0.28921 0.81317 0.29115 0.0
C1604 C 0.91937 0.57633 0.52015 0.0
C1605 C 0.91865 0.57398 0.53658 0.0
C1606 C 0.94612 0.56501 0.5115 0.0
C1607 C 1.0182 0.50977 0.51425 0.0
H1608 H 0.04612 0.55493 0.47683 0.0
C1609 C 0.13736 0.47497 0.48136 0.0
C1610 C 0.13833 0.47753 0.46494 0.0
C1611 C 0.11054 0.48628 0.48995 0.0
C1612 C 0.0385 0.54164 0.48712 0.0
H1613 H 0.94628 0.55784 0.55668 0.0
H1614 H 0.99291 0.53855 0.5417 0.0
H1615 H 1.00059 0.57578 0.49196 0.0
H1616 H 0.11106 0.49402 0.4448 0.0
H1617 H 0.06426 0.51325 0.45968 0.0
H1618 H 0.05607 0.47562 0.50941 0.0
C1619 C 0.97254 0.54879 0.53542 0.0
C1620 C 1.01221 0.55371 0.49587 0.0
C1621 C 0.94578 0.56017 0.54407 0.0
C1622 C 0.11136 0.49153 0.4574 0.0
C1623 C 0.0845 0.50288 0.466 0.0
C1624 C 0.04447 0.49769 0.50549 0.0
C1625 C 0.97315 0.55084 0.51896 0.0
C1626 C 1.00155 0.53802 0.50961 0.0
C1627 C 0.08365 0.50063 0.48246 0.0
C1628 C 0.05516 0.5134 0.49176 0.0
H1629 H 0.89899 0.58658 0.51387 0.0
H1630 H 0.9452 0.56676 0.49889 0.0
H1631 H 1.01058 0.49651 0.52454 0.0
H1632 H 0.15761 0.46458 0.48769 0.0
H1633 H 0.1113 0.4844 0.50256 0.0
C1634 C 0.63913 0.47682 0.01993 0.0
C1635 C 0.63935 0.47919 0.03636 0.0
C1636 C 0.61272 0.48828 0.01109 0.0
C1637 C 0.54114 0.54413 0.01324 0.0
H1638 H 0.51402 0.4992 0.97566 0.0
C1639 C 0.42359 0.58012 0.97934 0.0
C1640 C 0.4232 0.57753 0.96292 0.0
C1641 C 0.44998 0.56857 0.98816 0.0
C1642 C 0.52144 0.51242 0.986 0.0
H1643 H 0.6112 0.49545 0.05625 0.0
H1644 H 0.56514 0.515 0.04093 0.0
H1645 H 0.55876 0.47786 0.99119 0.0
H1646 H 0.45101 0.56075 0.94302 0.0
H1647 H 0.4971 0.54112 0.95831 0.0
H1648 H 0.50386 0.57872 0.00804 0.0
C1649 C 0.58564 0.50463 0.03481 0.0
C1650 C 0.54725 0.50007 0.99498 0.0
C1651 C 0.61206 0.4931 0.04366 0.0
C1652 C 0.45029 0.56328 0.95561 0.0
C1653 C 0.47673 0.5517 0.96445 0.0
C1654 C 0.51534 0.5565 0.00426 0.0
C1655 C 0.58555 0.50261 0.01834 0.0
C1656 C 0.5576 0.51568 0.00878 0.0
C1657 C 0.47699 0.55396 0.98091 0.0
C1658 C 0.50496 0.54088 0.99046 0.0
H1659 H 0.65966 0.46649 0.01381 0.0
H1660 H 0.61403 0.48655 0.99849 0.0
H1661 H 0.54855 0.55734 0.02358 0.0
H1662 H 0.40319 0.59066 0.98548 0.0
H1663 H 0.44877 0.57046 0.00076 0.0
C1664 C 0.3291 0.76972 0.96793 0.0
C1665 C 0.30205 0.76331 0.95836 0.0
C1666 C 0.32676 0.79183 0.98029 0.0
C1667 C 0.27911 0.86381 0.99013 0.0
H1668 H 0.32591 0.86157 0.02945 0.0
C1669 C 0.27076 0.97136 0.03126 0.0
C1670 C 0.30018 0.98304 0.03735 0.0
C1671 C 0.26888 0.94043 0.02476 0.0
C1672 C 0.31281 0.86256 0.01849 0.0
H1673 H 0.25076 0.77265 0.95503 0.0
H1674 H 0.24642 0.81064 0.97676 0.0
H1675 H 0.32609 0.81388 0.01234 0.0
H1676 H 0.35029 0.9711 0.04235 0.0
H1677 H 0.34741 0.91702 0.03051 0.0
H1678 H 0.26662 0.91246 0.99581 0.0
C1679 C 0.26968 0.79936 0.97449 0.0
C1680 C 0.31288 0.83526 0.00871 0.0
C1681 C 0.27208 0.7775 0.9621 0.0
C1682 C 0.32727 0.96248 0.03778 0.0
C1683 C 0.32557 0.93153 0.03101 0.0
C1684 C 0.2791 0.89093 0.99982 0.0
C1685 C 0.29728 0.80782 0.98333 0.0
C1686 C 0.29602 0.83563 0.99439 0.0
C1687 C 0.29662 0.92069 0.02388 0.0
C1688 C 0.29591 0.89077 0.01413 0.0
H1689 H 0.35257 0.75929 0.96523 0.0
H1690 H 0.34852 0.79788 0.9868 0.0
H1691 H 0.26665 0.86538 0.97901 0.0
H1692 H 0.24942 0.98668 0.03094 0.0
H1693 H 0.24595 0.93253 0.01982 0.0
C1694 C 1.02119 0.52065 0.21682 0.0
C1695 C 0.04075 0.54793 0.21373 0.0
C1696 C 0.99989 0.52036 0.22952 0.0
C1697 C 0.95415 0.57794 0.25381 0.0
H1698 H 0.92417 0.49883 0.27374 0.0
C1699 C 0.83841 0.5742 0.29224 0.0
C1700 C 0.81597 0.55104 0.28684 0.0
C1701 C 0.8708 0.57332 0.28717 0.0
C1702 C 0.93247 0.52117 0.26836 0.0
H1703 H 0.05483 0.59547 0.22228 0.0
H1704 H 1.01844 0.59453 0.24476 0.0
H1705 H 0.97384 0.49817 0.25812 0.0
H1706 H 0.80984 0.50798 0.27266 0.0
H1707 H 0.86629 0.50605 0.26408 0.0
H1708 H 0.91229 0.60068 0.26378 0.0
C1709 C 1.01898 0.57364 0.23711 0.0
C1710 C 0.96081 0.52079 0.25935 0.0
C1711 C 0.04017 0.57401 0.22431 0.0
C1712 C 0.82669 0.52613 0.27698 0.0
C1713 C 0.85905 0.52492 0.27215 0.0
C1714 C 0.926 0.57837 0.26296 0.0
C1715 C 0.99779 0.54726 0.23958 0.0
C1716 C 0.97137 0.5489 0.25148 0.0
C1717 C 0.8813 0.54889 0.2769 0.0
C1718 C 0.91426 0.54974 0.26987 0.0
H1719 H 1.02144 0.49992 0.20906 0.0
H1720 H 0.98385 0.49969 0.23092 0.0
H1721 H 0.96122 0.59999 0.24781 0.0
H1722 H 0.83063 0.59371 0.29982 0.0
H1723 H 0.88749 0.59207 0.29102 0.0
C1724 C 0.28688 0.07946 0.53244 0.0
C1725 C 0.25711 0.06843 0.53843 0.0
C1726 C 0.28974 0.11063 0.52629 0.0
C1727 C 0.2484 0.19014 0.52089 0.0
H1728 H 0.29373 0.18743 0.48119 0.0
C1729 C 0.23327 0.28461 0.47099 0.0
C1730 C 0.26007 0.29036 0.46116 0.0
C1731 C 0.23554 0.26237 0.48331 0.0
C1732 C 0.28156 0.18897 0.49239 0.0
H1733 H 0.20743 0.08171 0.54363 0.0
H1734 H 0.21202 0.13625 0.53235 0.0
H1735 H 0.29259 0.13974 0.4976 0.0
H1736 H 0.31098 0.27983 0.45737 0.0
H1737 H 0.31522 0.2416 0.47903 0.0
H1738 H 0.23653 0.23944 0.51521 0.0
C1739 C 0.23338 0.12101 0.53267 0.0
C1740 C 0.28088 0.16149 0.50184 0.0
C1741 C 0.23069 0.0898 0.53911 0.0
C1742 C 0.28983 0.27547 0.46463 0.0
C1743 C 0.29217 0.25348 0.47699 0.0
C1744 C 0.24903 0.21782 0.51135 0.0
C1745 C 0.26266 0.13128 0.52565 0.0
C1746 C 0.26429 0.1616 0.5162 0.0
C1747 C 0.2647 0.24561 0.48605 0.0
C1748 C 0.26557 0.21748 0.49695 0.0
H1749 H 0.30773 0.0635 0.53196 0.0
H1750 H 0.3129 0.11805 0.5214 0.0
H1751 H 0.2355 0.19108 0.53191 0.0
H1752 H 0.20996 0.29563 0.46852 0.0
H1753 H 0.21388 0.2568 0.49 0.0
C1754 C 0.53527 0.52885 0.71607 0.0
C1755 C 0.51626 0.5015 0.71241 0.0
C1756 C 0.5562 0.52853 0.72891 0.0
C1757 C 0.60265 0.47019 0.75242 0.0
H1758 H 0.62944 0.54812 0.7743 0.0
C1759 C 0.71775 0.47371 0.79132 0.0
C1760 C 0.7393 0.49841 0.78669 0.0
C1761 C 0.68537 0.47397 0.78617 0.0
C1762 C 0.62206 0.52609 0.76837 0.0
H1763 H 0.50287 0.45307 0.72002 0.0
H1764 H 0.53878 0.45285 0.74271 0.0
H1765 H 0.58032 0.5488 0.75829 0.0
H1766 H 0.74379 0.54349 0.77386 0.0
H1767 H 0.68744 0.54429 0.76516 0.0
H1768 H 0.64495 0.44781 0.76218 0.0
C1769 C 0.53799 0.47433 0.73543 0.0
C1770 C 0.59401 0.52649 0.75914 0.0
C1771 C 0.51709 0.47461 0.72252 0.0
C1772 C 0.72765 0.52414 0.77758 0.0
C1773 C 0.69532 0.5247 0.77268 0.0
C1774 C 0.63055 0.46974 0.76175 0.0
C1775 C 0.55855 0.50091 0.73851 0.0
C1776 C 0.58461 0.49889 0.75058 0.0
C1777 C 0.67399 0.49926 0.7766 0.0
C1778 C 0.64118 0.49801 0.76937 0.0
H1779 H 0.53484 0.55014 0.70866 0.0
H1780 H 0.57179 0.54939 0.73079 0.0
H1781 H 0.59643 0.44856 0.7459 0.0
H1782 H 0.72624 0.45354 0.79831 0.0
H1783 H 0.66943 0.45409 0.78939 0.0
C1784 C 0.78572 0.07974 0.96954 0.0
C1785 C 0.75589 0.06846 0.96375 0.0
C1786 C 0.78849 0.11097 0.9756 0.0
C1787 C 0.74689 0.19026 0.98097 0.0
H1788 H 0.79304 0.18808 0.02046 0.0
C1789 C 0.73267 0.28528 0.03059 0.0
C1790 C 0.75965 0.29113 0.04028 0.0
C1791 C 0.73472 0.26292 0.01834 0.0
C1792 C 0.78064 0.18948 0.00931 0.0
H1793 H 0.70599 0.08132 0.95878 0.0
H1794 H 0.71043 0.13599 0.96992 0.0
H1795 H 0.79167 0.14021 0.00422 0.0
H1796 H 0.81062 0.28066 0.04391 0.0
H1797 H 0.8145 0.24223 0.02234 0.0
H1798 H 0.73506 0.23961 0.98653 0.0
C1799 C 0.73189 0.12089 0.96951 0.0
C1800 C 0.77982 0.16189 0.99996 0.0
C1801 C 0.72928 0.08962 0.96317 0.0
C1802 C 0.78935 0.27621 0.03674 0.0
C1803 C 0.79148 0.25412 0.02444 0.0
C1804 C 0.74767 0.21805 0.99041 0.0
C1805 C 0.76127 0.13142 0.97634 0.0
C1806 C 0.76294 0.16182 0.98568 0.0
C1807 C 0.76385 0.24615 0.01553 0.0
C1808 C 0.76453 0.2179 0.00473 0.0
H1809 H 0.80671 0.06397 0.96992 0.0
H1810 H 0.81172 0.11861 0.98032 0.0
H1811 H 0.73376 0.19104 0.97001 0.0
H1812 H 0.70941 0.29632 0.03312 0.0
H1813 H 0.71294 0.25726 0.01176 0.0
C1814 C 0.21343 0.47598 0.70777 0.0
C1815 C 0.23433 0.50164 0.71178 0.0
C1816 C 0.18119 0.4757 0.71313 0.0
C1817 C 0.11745 0.52693 0.73157 0.0
H1818 H 0.09569 0.44888 0.75461 0.0
C1819 C 0.03537 0.52706 0.78575 0.0
C1820 C 1.01667 0.49949 0.78939 0.0
C1821 C 0.05546 0.52743 0.77259 0.0
C1822 C 0.10084 0.47064 0.74796 0.0
H1823 H 0.2377 0.54794 0.72361 0.0
H1824 H 0.18176 0.54769 0.73276 0.0
H1825 H 0.14273 0.44923 0.73739 0.0
H1826 H 1.00317 0.45126 0.78154 0.0
H1827 H 0.03767 0.45221 0.75838 0.0
H1828 H 0.07626 0.54873 0.74261 0.0
C1829 C 0.18992 0.52778 0.72552 0.0
C1830 C 0.12788 0.47081 0.73806 0.0
C1831 C 0.22207 0.52784 0.72037 0.0
C1832 C 1.0171 0.47299 0.77905 0.0
C1833 C 0.03718 0.47338 0.76586 0.0
C1834 C 0.09034 0.52674 0.74143 0.0
C1835 C 0.16934 0.50132 0.72236 0.0
C1836 C 0.13714 0.49929 0.73018 0.0
C1837 C 0.0573 0.50025 0.7627 0.0
C1838 C 0.08237 0.49893 0.75017 0.0
H1839 H 0.2224 0.45544 0.7012 0.0
H1840 H 0.16583 0.45505 0.71044 0.0
H1841 H 0.12371 0.54911 0.72547 0.0
H1842 H 0.03526 0.54803 0.79336 0.0
H1843 H 0.07079 0.54846 0.77063 0.0
C1844 C 0.82301 0.96673 0.4638 0.0
C1845 C 0.79762 0.98897 0.46579 0.0
C1846 C 0.82058 0.93548 0.4702 0.0
C1847 C 0.77663 0.89426 0.50229 0.0
H1848 H 0.81734 0.81641 0.4863 0.0
C1849 C 0.76729 0.77715 0.53695 0.0
C1850 C 0.7972 0.76224 0.54013 0.0
C1851 C 0.76469 0.79994 0.52496 0.0
C1852 C 0.80584 0.838 0.49088 0.0
H1853 H 0.74886 0.99551 0.47472 0.0
H1854 H 0.74386 0.94087 0.48515 0.0
H1855 H 0.81747 0.86601 0.47046 0.0
H1856 H 0.84717 0.75751 0.53247 0.0
H1857 H 0.84267 0.79758 0.5115 0.0
H1858 H 0.76535 0.86677 0.52271 0.0
C1859 C 0.76625 0.94763 0.47931 0.0
C1860 C 0.806 0.86642 0.48184 0.0
C1861 C 0.76895 0.97888 0.47322 0.0
C1862 C 0.82378 0.76856 0.53024 0.0
C1863 C 0.82119 0.79151 0.51823 0.0
C1864 C 0.77626 0.86599 0.5112 0.0
C1865 C 0.79251 0.92594 0.47849 0.0
C1866 C 0.79143 0.89496 0.48748 0.0
C1867 C 0.79197 0.80845 0.51592 0.0
C1868 C 0.7909 0.83753 0.50566 0.0
H1869 H 0.84542 0.97407 0.45814 0.0
H1870 H 0.84134 0.91951 0.46938 0.0
H1871 H 0.76604 0.91589 0.50729 0.0
H1872 H 0.74629 0.77233 0.54424 0.0
H1873 H 0.74164 0.81205 0.52323 0.0
C1874 C 0.53002 0.51462 0.28867 0.0
C1875 C 0.54484 0.54458 0.29197 0.0
C1876 C 0.5073 0.51193 0.27663 0.0
C1877 C 0.46927 0.55307 0.24262 0.0
H1878 H 0.3911 0.5125 0.25887 0.0
C1879 C 0.34044 0.56959 0.21542 0.0
C1880 C 0.31804 0.54415 0.21735 0.0
C1881 C 0.37171 0.56729 0.22187 0.0
C1882 C 0.41281 0.5233 0.2539 0.0
H1883 H 0.54946 0.59458 0.28445 0.0
H1884 H 0.50954 0.58991 0.26339 0.0
H1885 H 0.44028 0.51196 0.27431 0.0
H1886 H 0.31124 0.49545 0.22623 0.0
H1887 H 0.36593 0.49066 0.23672 0.0
H1888 H 0.44128 0.56474 0.22221 0.0
C1889 C 0.51564 0.56846 0.27007 0.0
C1890 C 0.44112 0.52301 0.26283 0.0
C1891 C 0.53852 0.57114 0.28213 0.0
C1892 C 0.32799 0.51557 0.22478 0.0
C1893 C 0.35927 0.51299 0.23091 0.0
C1894 C 0.44081 0.55312 0.23356 0.0
C1895 C 0.49876 0.53917 0.26765 0.0
C1896 C 0.46968 0.53795 0.25735 0.0
C1897 C 0.38113 0.53928 0.23014 0.0
C1898 C 0.41217 0.53828 0.23914 0.0
H1899 H 0.53481 0.49365 0.29594 0.0
H1900 H 0.49523 0.48884 0.27483 0.0
H1901 H 0.49092 0.56479 0.2381 0.0
H1902 H 0.3332 0.59193 0.20976 0.0
H1903 H 0.38778 0.58808 0.22108 0.0
C1904 C 0.82428 0.46556 0.53762 0.0
C1905 C 0.79865 0.48769 0.53608 0.0
C1906 C 0.82167 0.43446 0.53107 0.0
C1907 C 0.77662 0.39429 0.49914 0.0
H1908 H 0.81763 0.31579 0.51422 0.0
C1909 C 0.76631 0.27845 0.46354 0.0
C1910 C 0.79596 0.26307 0.46034 0.0
C1911 C 0.76402 0.30105 0.47562 0.0
C1912 C 0.80606 0.33757 0.50989 0.0
H1913 H 0.74934 0.49414 0.52784 0.0
H1914 H 0.74413 0.43978 0.51714 0.0
H1915 H 0.8184 0.3648 0.53044 0.0
H1916 H 0.84585 0.25749 0.468 0.0
H1917 H 0.84195 0.29726 0.48908 0.0
H1918 H 0.76474 0.36766 0.47857 0.0
C1919 C 0.76676 0.44652 0.52275 0.0
C1920 C 0.80657 0.36564 0.51915 0.0
C1921 C 0.76961 0.4776 0.529 0.0
C1922 C 0.82262 0.26887 0.47025 0.0
C1923 C 0.82038 0.29166 0.48232 0.0
C1924 C 0.77596 0.36638 0.49 0.0
C1925 C 0.79321 0.42501 0.52309 0.0
C1926 C 0.79186 0.39439 0.51385 0.0
C1927 C 0.79141 0.30896 0.48471 0.0
C1928 C 0.7907 0.33768 0.4952 0.0
H1929 H 0.84698 0.47292 0.54299 0.0
H1930 H 0.84256 0.4186 0.53152 0.0
H1931 H 0.7659 0.41614 0.49441 0.0
H1932 H 0.74524 0.27406 0.45623 0.0
H1933 H 0.74114 0.31341 0.47739 0.0
C1934 C 0.54457 0.07309 0.72409 0.0
C1935 C 0.54378 0.04839 0.71278 0.0
C1936 C 0.52366 0.07196 0.73699 0.0
C1937 C 0.46335 1.01914 0.75792 0.0
H1938 H 0.41698 0.09999 0.76354 0.0
C1939 C 0.32887 1.02617 0.77465 0.0
C1940 C 0.31816 0.05078 0.78469 0.0
C1941 C 0.36139 1.02465 0.77008 0.0
C1942 C 0.43007 0.07737 0.7624 0.0
H1943 H 0.52262 1.00179 0.70688 0.0
H1944 H 0.48576 1.00012 0.72903 0.0
H1945 H 0.46652 0.09923 0.74801 0.0
H1946 H 0.33303 0.09261 0.79824 0.0
H1947 H 0.39018 0.0904 0.78994 0.0
H1948 H 0.42557 0.99705 0.77156 0.0
C1949 C 0.50253 1.02033 0.72811 0.0
C1950 C 0.45859 0.0769 0.75351 0.0
C1951 C 0.52346 1.02141 0.71528 0.0
C1952 C 0.34076 0.07335 0.7905 0.0
C1953 C 0.37335 0.07214 0.78572 0.0
C1954 C 0.43469 1.01959 0.7667 0.0
C1955 C 0.50151 0.04613 0.73885 0.0
C1956 C 0.475 0.04757 0.75071 0.0
C1957 C 0.38387 0.048 0.77529 0.0
C1958 C 0.41719 0.04852 0.76861 0.0
H1959 H 0.55987 0.09426 0.7225 0.0
H1960 H 0.52394 0.09196 0.74518 0.0
H1961 H 0.47572 0.99626 0.75631 0.0
H1962 H 0.31193 1.00845 0.77001 0.0
H1963 H 0.3686 1.00603 0.76188 0.0
C1964 C 0.77197 0.58677 0.03075 0.0
C1965 C 0.74627 0.57253 0.0391 0.0
C1966 C 0.77034 0.6191 0.02604 0.0
C1967 C 0.71136 0.67857 0.01377 0.0
H1968 H 0.78695 0.73496 0.01203 0.0
C1969 C 0.71433 0.78953 0.97274 0.0
C1970 C 0.74215 0.79016 0.96322 0.0
C1971 C 0.71347 0.77006 0.98618 0.0
C1972 C 0.76555 0.71959 0.01246 0.0
H1973 H 0.69912 0.58099 0.04955 0.0
H1974 H 0.69588 0.63781 0.04096 0.0
H1975 H 0.78798 0.68656 0.02846 0.0
H1976 H 0.79165 0.77314 0.96089 0.0
H1977 H 0.7902 0.73919 0.98408 0.0
H1978 H 0.68964 0.71037 0.99703 0.0
C1979 C 0.71742 0.62391 0.03821 0.0
C1980 C 0.76613 0.69194 0.0219 0.0
C1981 C 0.71933 0.59154 0.04318 0.0
C1982 C 0.76977 0.77284 0.96794 0.0
C1983 C 0.769 0.75361 0.98134 0.0
C1984 C 0.71084 0.70616 0.00423 0.0
C1985 C 0.74274 0.63783 0.02937 0.0
C1986 C 0.73952 0.67048 0.02219 0.0
C1987 C 0.74054 0.75116 0.99039 0.0
C1988 C 0.73844 0.72628 0.00298 0.0
H1989 H 0.793 0.5726 0.02744 0.0
H1990 H 0.79004 0.62893 0.01907 0.0
H1991 H 0.69056 0.66238 0.01366 0.0
H1992 H 0.69269 0.80266 0.96934 0.0
H1993 H 0.6913 0.769 0.99298 0.0
C1994 C 0.22952 0.03703 0.27695 0.0
C1995 C 0.23911 1.00837 0.28442 0.0
C1996 C 0.19825 0.03999 0.27084 0.0
C1997 C 0.11612 1.00118 0.26838 0.0
H1998 H 0.11726 0.04151 0.22744 0.0
C1999 C 1.01767 0.98407 0.2201 0.0
C2000 C 1.01186 1.01047 0.21009 0.0
C2001 C 0.04073 0.98657 0.23209 0.0
C2002 C 0.11625 0.03071 0.23897 0.0
H2003 H 0.22332 0.96085 0.29211 0.0
H2004 H 0.16872 0.96541 0.28085 0.0
H2005 H 0.16647 0.04039 0.24285 0.0
H2006 H 1.02301 0.06104 0.20575 0.0
H2007 H 0.06288 0.06558 0.22675 0.0
H2008 H 0.06578 0.99038 0.26395 0.0
C2009 C 0.18509 0.98595 0.28001 0.0
C2010 C 0.14458 0.03008 0.24787 0.0
C2011 C 0.21636 0.98325 0.28642 0.0
C2012 C 1.0274 0.04017 0.21314 0.0
C2013 C 0.05029 0.04271 0.22512 0.0
C2014 C 0.08763 1.0016 0.25935 0.0
C2015 C 0.17604 1.01402 0.27169 0.0
C2016 C 0.145 1.01538 0.26271 0.0
C2017 C 0.05829 1.01555 0.23427 0.0
C2018 C 0.08744 1.01643 0.24454 0.0
H2019 H 0.24653 0.05691 0.27544 0.0
H2020 H 0.19188 0.06236 0.26498 0.0
H2021 H 0.11549 0.98979 0.27978 0.0
H2022 H 1.00617 0.96081 0.21797 0.0
H2023 H 0.04638 0.96519 0.23891 0.0
C2024 C 0.2883 0.77535 0.53785 0.0
C2025 C 0.25853 0.79062 0.54093 0.0
C2026 C 0.29066 0.75212 0.52606 0.0
C2027 C 0.24961 0.71369 0.49217 0.0
H2028 H 0.28811 0.63565 0.50921 0.0
C2029 C 0.23277 0.585 0.46508 0.0
C2030 C 0.25795 0.56262 0.46731 0.0
C2031 C 0.23501 0.61617 0.47156 0.0
C2032 C 0.27789 0.65731 0.50404 0.0
H2033 H 0.20855 0.79546 0.53328 0.0
H2034 H 0.21268 0.75468 0.51263 0.0
H2035 H 0.28887 0.68504 0.52441 0.0
H2036 H 0.30617 0.55572 0.47684 0.0
H2037 H 0.3109 0.61022 0.48741 0.0
H2038 H 0.2384 0.68551 0.47178 0.0
C2039 C 0.23421 0.7608 0.51931 0.0
C2040 C 0.27829 0.68572 0.51282 0.0
C2041 C 0.23185 0.78416 0.53112 0.0
C2042 C 0.28624 0.57246 0.47513 0.0
C2043 C 0.28878 0.60363 0.48131 0.0
C2044 C 0.24947 0.68514 0.48325 0.0
C2045 C 0.26328 0.74356 0.51712 0.0
C2046 C 0.26414 0.71424 0.50705 0.0
C2047 C 0.26271 0.6255 0.48018 0.0
C2048 C 0.2636 0.65655 0.48911 0.0
H2049 H 0.30938 0.78025 0.54507 0.0
H2050 H 0.31359 0.73974 0.52442 0.0
H2051 H 0.23849 0.73532 0.48743 0.0
H2052 H 0.21064 0.57785 0.45912 0.0
H2053 H 0.2144 0.63226 0.4705 0.0
C2054 C 0.72694 0.02888 0.22641 0.0
C2055 C 0.7378 1.00399 0.21656 0.0
C2056 C 0.69471 0.02962 0.23147 0.0
C2057 C 0.62857 0.97517 0.24109 0.0
H2058 H 0.57975 0.05473 0.24613 0.0
C2059 C 0.5142 0.97766 0.27969 0.0
C2060 C 0.51317 1.00363 0.29032 0.0
C2061 C 0.53549 0.97844 0.26693 0.0
C2062 C 0.59306 0.03228 0.24485 0.0
H2063 H 0.72345 0.96087 0.20386 0.0
H2064 H 0.66684 0.96173 0.21303 0.0
H2065 H 0.6293 0.05479 0.23042 0.0
H2066 H 0.53172 0.05188 0.29511 0.0
H2067 H 0.56942 0.05287 0.27329 0.0
H2068 H 0.59369 0.953 0.25624 0.0
C2069 C 0.68332 0.9808 0.21671 0.0
C2070 C 0.62135 0.03232 0.23579 0.0
C2071 C 0.71558 0.98037 0.21142 0.0
C2072 C 0.53231 0.03124 0.2873 0.0
C2073 C 0.55369 0.03194 0.27463 0.0
C2074 C 0.60045 0.97519 0.25028 0.0
C2075 C 0.67271 1.00521 0.22697 0.0
C2076 C 0.6399 1.00398 0.23419 0.0
C2077 C 0.55631 1.00515 0.26454 0.0
C2078 C 0.58285 1.00398 0.25267 0.0
H2079 H 0.74361 0.04739 0.23055 0.0
H2080 H 0.6874 0.0485 0.23952 0.0
H2081 H 0.64253 0.95303 0.2402 0.0
H2082 H 0.49989 0.95594 0.28168 0.0
H2083 H 0.5364 0.95762 0.25925 0.0
C2084 C 0.34312 0.47544 0.97161 0.0
C2085 C 0.31775 0.48665 0.96219 0.0
C2086 C 0.3425 0.44382 0.97748 0.0
C2087 C 0.28326 0.37727 0.9857 0.0
H2088 H 0.36131 0.3356 0.00089 0.0
C2089 C 0.27941 0.28782 0.03689 0.0
C2090 C 0.30482 0.26566 0.03931 0.0
C2091 C 0.28001 0.30916 0.02423 0.0
C2092 C 0.33914 0.34627 0.99649 0.0
H2093 H 0.27266 0.47389 0.95077 0.0
H2094 H 0.27239 0.41784 0.9601 0.0
H2095 H 0.3659 0.38199 0.98373 0.0
H2096 H 0.34956 0.24701 0.02937 0.0
H2097 H 0.34942 0.28258 0.00674 0.0
H2098 H 0.2565 0.34066 0.99784 0.0
C2099 C 0.29225 0.43354 0.96356 0.0
C2100 C 0.3418 0.37353 0.98683 0.0
C2101 C 0.29252 0.46549 0.95802 0.0
C2102 C 0.3295 0.26366 0.02796 0.0
C2103 C 0.32973 0.28459 0.01507 0.0
C2104 C 0.2806 0.34952 0.99501 0.0
C2105 C 0.31668 0.4225 0.97382 0.0
C2106 C 0.31392 0.39027 0.98181 0.0
C2107 C 0.30563 0.3085 0.01332 0.0
C2108 C 0.30846 0.33438 0.00111 0.0
H2109 H 0.36256 0.49169 0.97512 0.0
H2110 H 0.36148 0.43685 0.98555 0.0
H2111 H 0.26105 0.38925 0.98222 0.0
H2112 H 0.25948 0.28954 0.04512 0.0
H2113 H 0.26104 0.3272 0.02352 0.0
C2114 C 0.82989 1.0255 0.72627 0.0
C2115 C 0.81958 0.04939 0.71571 0.0
C2116 C 0.86227 1.0242 0.73107 0.0
C2117 C 0.93107 0.07699 0.73826 0.0
H2118 H 0.9763 0.9961 0.74569 0.0
C2119 C 0.04493 0.07453 0.77705 0.0
C2120 C 0.04392 0.05046 0.78869 0.0
C2121 C 1.02422 0.07274 0.76409 0.0
C2122 C 0.96404 1.01892 0.7437 0.0
H2123 H 0.83501 0.09017 0.70155 0.0
H2124 H 0.8919 0.08836 0.71026 0.0
H2125 H 0.92638 0.99618 0.73026 0.0
H2126 H 1.02259 1.00421 0.79512 0.0
H2127 H 0.98604 1.00144 0.77289 0.0
H2128 H 0.96738 0.09954 0.75247 0.0
C2129 C 0.87487 0.07049 0.71469 0.0
C2130 C 0.93551 1.01896 0.73482 0.0
C2131 C 0.84243 0.07146 0.70967 0.0
C2132 C 1.02359 1.02339 0.78648 0.0
C2133 C 1.00284 1.02165 0.77359 0.0
C2134 C 0.95944 0.07693 0.74727 0.0
C2135 C 0.885 0.04705 0.7256 0.0
C2136 C 0.91818 0.04783 0.73243 0.0
C2137 C 1.00204 0.04687 0.76251 0.0
C2138 C 0.9757 0.04772 0.75055 0.0
H2139 H 0.81275 1.00818 0.7311 0.0
H2140 H 0.86918 1.00614 0.73964 0.0
H2141 H 0.9181 0.09958 0.73674 0.0
H2142 H 0.06026 0.09575 0.77841 0.0
H2143 H 1.02468 0.09229 0.75564 0.0
loop_
_geom_bond_atom_site_label_1
_geom_bond_atom_site_label_2
_geom_bond_distance
_geom_bond_site_symmetry_2
_ccdc_geom_bond_type
O0 Tb1 2.360 . S
O0 C3 1.217 1_554 S
Tb1 O0 2.360 . S
Tb1 O17 2.326 . S
Tb1 O19 2.500 . S
Tb1 O20 2.473 . S
Tb1 O23 2.324 . S
Eu2 O6 2.292 . S
Eu2 C7 2.852 . S
Eu2 O18 2.324 . S
Eu2 O22 2.326 . S
Eu2 O24 2.500 . S
Eu2 O25 2.473 . S
C3 O0 1.217 1_556 S
C3 O4 1.247 . S
O4 C3 1.247 . S
C5 O17 1.242 . S
C5 O18 1.258 . S
O6 Eu2 2.292 . S
O6 C8 1.255 . S
C7 Eu2 2.852 . S
C7 C11 1.503 . S
C7 O24 1.273 . S
C7 O25 1.257 . S
C8 O6 1.255 . S
C8 O9 1.247 . S
O9 C8 1.247 . S
C10 O22 1.242 . S
C10 O23 1.258 . S
C11 C7 1.503 . S
C11 C12 1.379 . S
C11 C16 1.392 . S
C12 C11 1.379 . S
C12 C13 1.404 . S
C12 H26 0.929 . S
C13 C12 1.404 . S
C13 C14 1.389 . S
C14 C13 1.389 . S
C14 C15 1.399 . S
C14 H27 0.931 . S
C15 C14 1.399 . S
C15 C16 1.390 . S
C16 C11 1.392 . S
C16 C15 1.390 . S
C16 H28 0.929 . S
O17 Tb1 2.326 . S
O17 C5 1.242 . S
O18 Eu2 2.324 . S
O18 C5 1.258 . S
O19 Tb1 2.500 . S
O19 C21 1.273 . S
O20 Tb1 2.473 . S
O20 C21 1.257 . S
C21 O19 1.273 . S
C21 O20 1.257 . S
O22 Eu2 2.326 . S
O22 C10 1.242 . S
O23 Tb1 2.324 . S
O23 C10 1.258 . S
O24 Eu2 2.500 . S
O24 C7 1.273 . S
O25 Eu2 2.473 . S
O25 C7 1.257 . S
H26 C12 0.929 . S
H27 C14 0.931 . S
H28 C16 0.929 . S
O29 Tb30 2.292 . S
O29 C32 1.255 . S
Tb30 O29 2.292 . S
Tb30 O46 2.326 . S
Tb30 O48 2.500 . S
Tb30 O49 2.473 . S
Tb30 O52 2.324 . S
Eu31 O35 2.292 . S
Eu31 C36 2.852 . S
Eu31 O47 2.324 . S
Eu31 O51 2.326 . S
Eu31 O53 2.500 . S
Eu31 O54 2.473 . S
C32 O29 1.255 . S
C32 O33 1.247 . S
O33 C32 1.247 . S
C34 O46 1.242 . S
C34 O47 1.258 . S
O35 Eu31 2.292 . S
O35 C37 1.255 . S
C36 Eu31 2.852 . S
C36 C40 1.503 . S
C36 O53 1.273 . S
C36 O54 1.257 . S
C37 O35 1.255 . S
C37 O38 1.247 . S
O38 C37 1.247 . S
C39 O51 1.242 . S
C39 O52 1.258 . S
C40 C36 1.503 . S
C40 C41 1.379 . S
C40 C45 1.392 . S
C41 C40 1.379 . S
C41 C42 1.404 . S
C41 H55 0.929 . S
C42 C41 1.404 . S
C42 C43 1.389 . S
C43 C42 1.389 . S
C43 C44 1.399 . S
C43 H56 0.931 . S
C44 C43 1.399 . S
C44 C45 1.390 . S
C45 C40 1.392 . S
C45 C44 1.390 . S
C45 H57 0.929 . S
O46 Tb30 2.326 . S
O46 C34 1.242 . S
O47 Eu31 2.324 . S
O47 C34 1.258 . S
O48 Tb30 2.500 . S
O48 C50 1.273 . S
O49 Tb30 2.473 . S
O49 C50 1.257 . S
C50 O48 1.273 . S
C50 O49 1.257 . S
O51 Eu31 2.326 . S
O51 C39 1.242 . S
O52 Tb30 2.324 . S
O52 C39 1.258 . S
O53 Eu31 2.500 . S
O53 C36 1.273 . S
O54 Eu31 2.473 . S
O54 C36 1.257 . S
H55 C41 0.929 . S
H56 C43 0.931 . S
H57 C45 0.929 . S
O58 Tb59 2.292 . S
O58 C61 1.255 . S
Tb59 O58 2.292 . S
Tb59 O75 2.326 . S
Tb59 O77 2.500 . S
Tb59 O78 2.473 . S
Tb59 O81 2.324 . S
Eu60 O64 2.292 . S
Eu60 C65 2.852 . S
Eu60 O76 2.324 . S
Eu60 O80 2.326 . S
Eu60 O82 2.500 . S
Eu60 O83 2.473 . S
C61 O58 1.255 . S
C61 O62 1.247 . S
O62 C61 1.247 . S
C63 O75 1.242 . S
C63 O76 1.258 . S
O64 Eu60 2.292 . S
O64 C66 1.255 . S
C65 Eu60 2.852 . S
C65 C69 1.503 . S
C65 O82 1.273 . S
C65 O83 1.257 . S
C66 O64 1.255 . S
C66 O67 1.247 . S
O67 C66 1.247 . S
C68 O80 1.242 . S
C68 O81 1.258 . S
C69 C65 1.503 . S
C69 C70 1.379 . S
C69 C74 1.392 . S
C70 C69 1.379 . S
C70 C71 1.404 . S
C70 H84 0.929 . S
C71 C70 1.404 . S
C71 C72 1.389 . S
C72 C71 1.389 . S
C72 C73 1.399 . S
C72 H85 0.931 . S
C73 C72 1.399 . S
C73 C74 1.390 . S
C74 C69 1.392 . S
C74 C73 1.390 . S
C74 H86 0.929 . S
O75 Tb59 2.326 . S
O75 C63 1.242 . S
O76 Eu60 2.324 . S
O76 C63 1.258 . S
O77 Tb59 2.500 . S
O77 C79 1.273 . S
O78 Tb59 2.473 . S
O78 C79 1.257 . S
C79 O77 1.273 . S
C79 O78 1.257 . S
O80 Eu60 2.326 . S
O80 C68 1.242 . S
O81 Tb59 2.324 . S
O81 C68 1.258 . S
O82 Eu60 2.500 . S
O82 C65 1.273 . S
O83 Eu60 2.473 . S
O83 C65 1.257 . S
H84 C70 0.929 . S
H85 C72 0.931 . S
H86 C74 0.929 . S
O87 Tb88 2.292 . S
O87 C90 1.255 . S
Tb88 O87 2.292 . S
Tb88 O104 2.326 . S
Tb88 O106 2.500 . S
Tb88 O107 2.473 . S
Tb88 O110 2.324 . S
Eu89 O93 2.292 . S
Eu89 C94 2.852 . S
Eu89 O105 2.324 . S
Eu89 O109 2.326 . S
Eu89 O111 2.500 . S
Eu89 O112 2.473 . S
C90 O87 1.255 . S
C90 O91 1.247 . S
O91 C90 1.247 . S
C92 O104 1.242 . S
C92 O105 1.258 . S
O93 Eu89 2.292 . S
O93 C95 1.255 . S
C94 Eu89 2.852 . S
C94 C98 1.503 . S
C94 O111 1.273 . S
C94 O112 1.257 . S
C95 O93 1.255 . S
C95 O96 1.247 . S
O96 C95 1.247 . S
C97 O109 1.242 . S
C97 O110 1.258 . S
C98 C94 1.503 . S
C98 C99 1.379 . S
C98 C103 1.392 . S
C99 C98 1.379 . S
C99 C100 1.404 . S
C99 H113 0.929 . S
C100 C99 1.404 . S
C100 C101 1.379 1_655 S
C101 C100 1.379 1_455 S
C101 C102 1.394 1_455 S
C101 H114 0.947 . S
C102 C101 1.394 1_655 S
C102 C103 1.390 . S
C103 C98 1.392 . S
C103 C102 1.390 . S
C103 H115 0.929 . S
O104 Tb88 2.326 . S
O104 C92 1.242 . S
O105 Eu89 2.324 . S
O105 C92 1.258 . S
O106 Tb88 2.500 . S
O106 C108 1.273 . S
O107 Tb88 2.473 . S
O107 C108 1.257 . S
C108 O106 1.273 . S
C108 O107 1.257 . S
O109 Eu89 2.326 . S
O109 C97 1.242 . S
O110 Tb88 2.324 . S
O110 C97 1.258 . S
O111 Eu89 2.500 . S
O111 C94 1.273 . S
O112 Eu89 2.473 . S
O112 C94 1.257 . S
H113 C99 0.929 . S
H114 C101 0.947 . S
H115 C103 0.929 . S
O116 Tb117 2.360 . S
O116 C119 1.217 1_556 S
Tb117 O116 2.360 . S
Tb117 O133 2.326 . S
Tb117 O135 2.500 . S
Tb117 O136 2.473 . S
Tb117 O139 2.324 . S
Eu118 O122 2.292 . S
Eu118 C123 2.852 . S
Eu118 O134 2.324 . S
Eu118 O138 2.326 . S
Eu118 O140 2.500 . S
Eu118 O141 2.473 . S
C119 O116 1.217 1_554 S
C119 O120 1.247 . S
O120 C119 1.247 . S
C121 O133 1.242 . S
C121 O134 1.258 . S
O122 Eu118 2.292 . S
O122 C124 1.255 . S
C123 Eu118 2.852 . S
C123 C127 1.503 . S
C123 O140 1.273 . S
C123 O141 1.257 . S
C124 O122 1.255 . S
C124 O125 1.247 . S
O125 C124 1.247 . S
C126 O138 1.242 . S
C126 O139 1.258 . S
C127 C123 1.503 . S
C127 C128 1.379 . S
C127 C132 1.392 . S
C128 C127 1.379 . S
C128 C129 1.404 . S
C128 H142 0.929 . S
C129 C128 1.404 . S
C129 C130 1.389 . S
C130 C129 1.389 . S
C130 C131 1.399 . S
C130 H143 0.931 . S
C131 C130 1.399 . S
C131 C132 1.390 . S
C132 C127 1.392 . S
C132 C131 1.390 . S
C132 H144 0.929 . S
O133 Tb117 2.326 . S
O133 C121 1.242 . S
O134 Eu118 2.324 . S
O134 C121 1.258 . S
O135 Tb117 2.500 . S
O135 C137 1.273 . S
O136 Tb117 2.473 . S
O136 C137 1.257 . S
C137 O135 1.273 . S
C137 O136 1.257 . S
O138 Eu118 2.326 . S
O138 C126 1.242 . S
O139 Tb117 2.324 . S
O139 C126 1.258 . S
O140 Eu118 2.500 . S
O140 C123 1.273 . S
O141 Eu118 2.473 . S
O141 C123 1.257 . S
H142 C128 0.929 . S
H143 C130 0.931 . S
H144 C132 0.929 . S
O145 Tb146 2.292 . S
O145 C148 1.255 . S
Tb146 O145 2.292 . S
Tb146 O162 2.326 . S
Tb146 O164 2.500 . S
Tb146 O165 2.473 . S
Tb146 O168 2.324 . S
Eu147 O151 2.292 . S
Eu147 C152 2.852 . S
Eu147 O163 2.324 . S
Eu147 O167 2.326 . S
Eu147 O169 2.500 . S
Eu147 O170 2.473 . S
C148 O145 1.255 . S
C148 O149 1.247 . S
O149 C148 1.247 . S
C150 O162 1.242 . S
C150 O163 1.258 . S
O151 Eu147 2.292 . S
O151 C153 1.255 . S
C152 Eu147 2.852 . S
C152 C156 1.503 . S
C152 O169 1.273 . S
C152 O170 1.257 . S
C153 O151 1.255 . S
C153 O154 1.247 . S
O154 C153 1.247 . S
C155 O167 1.242 . S
C155 O168 1.258 . S
C156 C152 1.503 . S
C156 C157 1.379 . S
C156 C161 1.392 . S
C157 C156 1.379 . S
C157 C158 1.404 . S
C157 H171 0.929 . S
C158 C157 1.404 . S
C158 C159 1.389 . S
C159 C158 1.389 . S
C159 C160 1.399 . S
C159 H172 0.931 . S
C160 C159 1.399 . S
C160 C161 1.390 . S
C161 C156 1.392 . S
C161 C160 1.390 . S
C161 H173 0.929 . S
O162 Tb146 2.326 . S
O162 C150 1.242 . S
O163 Eu147 2.324 . S
O163 C150 1.258 . S
O164 Tb146 2.500 . S
O164 C166 1.273 . S
O165 Tb146 2.473 . S
O165 C166 1.257 . S
C166 O164 1.273 . S
C166 O165 1.257 . S
O167 Eu147 2.326 . S
O167 C155 1.242 . S
O168 Tb146 2.324 . S
O168 C155 1.258 . S
O169 Eu147 2.500 . S
O169 C152 1.273 . S
O170 Eu147 2.473 . S
O170 C152 1.257 . S
H171 C157 0.929 . S
H172 C159 0.931 . S
H173 C161 0.929 . S
O174 Tb175 2.292 . S
O174 C177 1.255 . S
Tb175 O174 2.292 . S
Tb175 O191 2.326 . S
Tb175 O193 2.500 . S
Tb175 O194 2.473 . S
Tb175 O197 2.324 . S
Eu176 O180 2.292 . S
Eu176 C181 2.852 . S
Eu176 O192 2.324 . S
Eu176 O196 2.326 . S
Eu176 O198 2.500 . S
Eu176 O199 2.473 . S
C177 O174 1.255 . S
C177 O178 1.247 . S
O178 C177 1.247 . S
C179 O191 1.242 . S
C179 O192 1.258 . S
O180 Eu176 2.292 . S
O180 C182 1.255 . S
C181 Eu176 2.852 . S
C181 C185 1.503 . S
C181 O198 1.273 . S
C181 O199 1.257 . S
C182 O180 1.255 . S
C182 O183 1.247 . S
O183 C182 1.247 . S
C184 O196 1.242 . S
C184 O197 1.258 . S
C185 C181 1.503 . S
C185 C186 1.379 . S
C185 C190 1.392 . S
C186 C185 1.379 . S
C186 C187 1.404 . S
C186 H200 0.929 . S
C187 C186 1.404 . S
C187 C188 1.389 . S
C188 C187 1.389 . S
C188 C189 1.399 . S
C188 H201 0.931 . S
C189 C188 1.399 . S
C189 C190 1.390 . S
C190 C185 1.392 . S
C190 C189 1.390 . S
C190 H202 0.929 . S
O191 Tb175 2.326 . S
O191 C179 1.242 . S
O192 Eu176 2.324 . S
O192 C179 1.258 . S
O193 Tb175 2.500 . S
O193 C195 1.273 . S
O194 Tb175 2.473 . S
O194 C195 1.257 . S
C195 O193 1.273 . S
C195 O194 1.257 . S
O196 Eu176 2.326 . S
O196 C184 1.242 . S
O197 Tb175 2.324 . S
O197 C184 1.258 . S
O198 Eu176 2.500 . S
O198 C181 1.273 . S
O199 Eu176 2.473 . S
O199 C181 1.257 . S
H200 C186 0.929 . S
H201 C188 0.931 . S
H202 C190 0.929 . S
O203 Tb204 2.292 . S
O203 C206 1.255 . S
Tb204 O203 2.292 . S
Tb204 O220 2.326 . S
Tb204 O222 2.500 . S
Tb204 O223 2.473 . S
Tb204 O226 2.324 . S
Eu205 O209 2.292 . S
Eu205 C210 2.852 . S
Eu205 O221 2.324 . S
Eu205 O225 2.326 . S
Eu205 O227 2.500 . S
Eu205 O228 2.473 . S
C206 O203 1.255 . S
C206 O207 1.247 . S
O207 C206 1.247 . S
C208 O220 1.242 . S
C208 O221 1.258 . S
O209 Eu205 2.292 . S
O209 C211 1.255 . S
C210 Eu205 2.852 . S
C210 C214 1.503 . S
C210 O227 1.273 . S
C210 O228 1.257 . S
C211 O209 1.255 . S
C211 O212 1.247 . S
O212 C211 1.247 . S
C213 O225 1.242 . S
C213 O226 1.258 . S
C214 C210 1.503 . S
C214 C215 1.379 . S
C214 C219 1.392 . S
C215 C214 1.379 . S
C215 C216 1.404 . S
C215 H229 0.929 . S
C216 C215 1.404 . S
C216 C217 1.379 1_455 S
C217 C216 1.379 1_655 S
C217 C218 1.394 1_655 S
C217 H230 0.947 . S
C218 C217 1.394 1_455 S
C218 C219 1.390 . S
C219 C214 1.392 . S
C219 C218 1.390 . S
C219 H231 0.929 . S
O220 Tb204 2.326 . S
O220 C208 1.242 . S
O221 Eu205 2.324 . S
O221 C208 1.258 . S
O222 Tb204 2.500 . S
O222 C224 1.273 . S
O223 Tb204 2.473 . S
O223 C224 1.257 . S
C224 O222 1.273 . S
C224 O223 1.257 . S
O225 Eu205 2.326 . S
O225 C213 1.242 . S
O226 Tb204 2.324 . S
O226 C213 1.258 . S
O227 Eu205 2.500 . S
O227 C210 1.273 . S
O228 Eu205 2.473 . S
O228 C210 1.257 . S
H229 C215 0.929 . S
H230 C217 0.947 . S
H231 C219 0.929 . S
O232 Tb233 2.292 . S
O232 C235 1.255 . S
Tb233 O232 2.292 . S
Tb233 O249 2.326 . S
Tb233 O251 2.500 . S
Tb233 O252 2.473 . S
Tb233 O255 2.324 . S
Eu234 O238 2.292 . S
Eu234 C239 2.852 . S
Eu234 O250 2.324 . S
Eu234 O254 2.326 . S
Eu234 O256 2.500 . S
Eu234 O257 2.473 . S
C235 O232 1.255 . S
C235 O236 1.247 . S
O236 C235 1.247 . S
C237 O249 1.242 . S
C237 O250 1.258 . S
O238 Eu234 2.292 . S
O238 C240 1.255 . S
C239 Eu234 2.852 . S
C239 C243 1.503 . S
C239 O256 1.273 . S
C239 O257 1.257 . S
C240 O238 1.255 . S
C240 O241 1.247 . S
O241 C240 1.247 . S
C242 O254 1.242 . S
C242 O255 1.258 . S
C243 C239 1.503 . S
C243 C244 1.379 . S
C243 C248 1.392 . S
C244 C243 1.379 . S
C244 C245 1.404 . S
C244 H258 0.929 . S
C245 C244 1.404 . S
C245 C246 1.389 . S
C246 C245 1.389 . S
C246 C247 1.399 . S
C246 H259 0.931 . S
C247 C246 1.399 . S
C247 C248 1.390 . S
C248 C243 1.392 . S
C248 C247 1.390 . S
C248 H260 0.929 . S
O249 Tb233 2.326 . S
O249 C237 1.242 . S
O250 Eu234 2.324 . S
O250 C237 1.258 . S
O251 Tb233 2.500 . S
O251 C253 1.273 . S
O252 Tb233 2.473 . S
O252 C253 1.257 . S
C253 O251 1.273 . S
C253 O252 1.257 . S
O254 Eu234 2.326 . S
O254 C242 1.242 . S
O255 Tb233 2.324 . S
O255 C242 1.258 . S
O256 Eu234 2.500 . S
O256 C239 1.273 . S
O257 Eu234 2.473 . S
O257 C239 1.257 . S
H258 C244 0.929 . S
H259 C246 0.931 . S
H260 C248 0.929 . S
O261 Tb262 2.292 . S
O261 C264 1.255 . S
Tb262 O261 2.292 . S
Tb262 O278 2.326 . S
Tb262 O280 2.500 . S
Tb262 O281 2.473 . S
Tb262 O284 2.324 1_545 S
Eu263 O267 2.292 . S
Eu263 C268 2.852 . S
Eu263 O279 2.324 . S
Eu263 O283 2.326 . S
Eu263 O285 2.500 . S
Eu263 O286 2.473 . S
C264 O261 1.255 . S
C264 O265 1.247 . S
O265 C264 1.247 . S
C266 O278 1.242 . S
C266 O279 1.258 . S
O267 Eu263 2.292 . S
O267 C269 1.255 . S
C268 Eu263 2.852 . S
C268 C272 1.503 . S
C268 O285 1.273 . S
C268 O286 1.257 . S
C269 O267 1.255 . S
C269 O270 1.247 . S
O270 C269 1.247 . S
C271 O283 1.242 . S
C271 O284 1.258 1_545 S
C272 C268 1.503 . S
C272 C273 1.379 . S
C272 C277 1.392 . S
C273 C272 1.379 . S
C273 C274 1.404 . S
C273 H287 0.929 . S
C274 C273 1.404 . S
C274 C275 1.379 1_455 S
C275 C274 1.379 1_655 S
C275 C276 1.394 1_655 S
C275 H288 0.947 . S
C276 C275 1.394 1_455 S
C276 C277 1.390 . S
C277 C272 1.392 . S
C277 C276 1.390 . S
C277 H289 0.929 . S
O278 Tb262 2.326 . S
O278 C266 1.242 . S
O279 Eu263 2.324 . S
O279 C266 1.258 . S
O280 Tb262 2.500 . S
O280 C282 1.273 . S
O281 Tb262 2.473 . S
O281 C282 1.257 . S
C282 O280 1.273 . S
C282 O281 1.257 . S
O283 Eu263 2.326 . S
O283 C271 1.242 . S
O284 Tb262 2.324 1_565 S
O284 C271 1.258 1_565 S
O285 Eu263 2.500 . S
O285 C268 1.273 . S
O286 Eu263 2.473 . S
O286 C268 1.257 . S
H287 C273 0.929 . S
H288 C275 0.947 . S
H289 C277 0.929 . S
O290 Tb291 2.360 . S
O290 C293 1.217 1_554 S
Tb291 O290 2.360 . S
Tb291 O307 2.326 . S
Tb291 O309 2.500 . S
Tb291 O310 2.473 . S
Tb291 O313 2.324 . S
Eu292 O296 2.292 . S
Eu292 C297 2.852 . S
Eu292 O308 2.324 . S
Eu292 O312 2.326 . S
Eu292 O314 2.500 . S
Eu292 O315 2.473 . S
C293 O290 1.217 1_556 S
C293 O294 1.247 . S
O294 C293 1.247 . S
C295 O307 1.242 . S
C295 O308 1.258 . S
O296 Eu292 2.292 . S
O296 C298 1.255 . S
C297 Eu292 2.852 . S
C297 C301 1.503 . S
C297 O314 1.273 . S
C297 O315 1.257 . S
C298 O296 1.255 . S
C298 O299 1.247 . S
O299 C298 1.247 . S
C300 O312 1.242 . S
C300 O313 1.258 . S
C301 C297 1.503 . S
C301 C302 1.379 . S
C301 C306 1.392 . S
C302 C301 1.379 . S
C302 C303 1.404 . S
C302 H316 0.929 . S
C303 C302 1.404 . S
C303 C304 1.389 . S
C304 C303 1.389 . S
C304 C305 1.399 . S
C304 H317 0.931 . S
C305 C304 1.399 . S
C305 C306 1.390 . S
C306 C301 1.392 . S
C306 C305 1.390 . S
C306 H318 0.929 . S
O307 Tb291 2.326 . S
O307 C295 1.242 . S
O308 Eu292 2.324 . S
O308 C295 1.258 . S
O309 Tb291 2.500 . S
O309 C311 1.273 . S
O310 Tb291 2.473 . S
O310 C311 1.257 . S
C311 O309 1.273 . S
C311 O310 1.257 . S
O312 Eu292 2.326 . S
O312 C300 1.242 . S
O313 Tb291 2.324 . S
O313 C300 1.258 . S
O314 Eu292 2.500 . S
O314 C297 1.273 . S
O315 Eu292 2.473 . S
O315 C297 1.257 . S
H316 C302 0.929 . S
H317 C304 0.931 . S
H318 C306 0.929 . S
O319 Tb320 2.292 . S
O319 C322 1.255 . S
Tb320 O319 2.292 . S
Tb320 O336 2.326 . S
Tb320 O338 2.500 . S
Tb320 O339 2.473 . S
Tb320 O342 2.324 1_565 S
Eu321 O325 2.292 . S
Eu321 C326 2.852 . S
Eu321 O337 2.324 . S
Eu321 O341 2.326 . S
Eu321 O343 2.500 . S
Eu321 O344 2.473 . S
C322 O319 1.255 . S
C322 O323 1.247 . S
O323 C322 1.247 . S
C324 O336 1.242 . S
C324 O337 1.258 . S
O325 Eu321 2.292 . S
O325 C327 1.255 . S
C326 Eu321 2.852 . S
C326 C330 1.503 . S
C326 O343 1.273 . S
C326 O344 1.257 . S
C327 O325 1.255 . S
C327 O328 1.247 . S
O328 C327 1.247 . S
C329 O341 1.242 . S
C329 O342 1.258 1_565 S
C330 C326 1.503 . S
C330 C331 1.379 . S
C330 C335 1.392 . S
C331 C330 1.379 . S
C331 C332 1.404 . S
C331 H345 0.929 . S
C332 C331 1.404 . S
C332 C333 1.389 . S
C333 C332 1.389 . S
C333 C334 1.399 . S
C333 H346 0.931 . S
C334 C333 1.399 . S
C334 C335 1.390 . S
C335 C330 1.392 . S
C335 C334 1.390 . S
C335 H347 0.929 . S
O336 Tb320 2.326 . S
O336 C324 1.242 . S
O337 Eu321 2.324 . S
O337 C324 1.258 . S
O338 Tb320 2.500 . S
O338 C340 1.273 . S
O339 Tb320 2.473 . S
O339 C340 1.257 . S
C340 O338 1.273 . S
C340 O339 1.257 . S
O341 Eu321 2.326 . S
O341 C329 1.242 . S
O342 Tb320 2.324 1_545 S
O342 C329 1.258 1_545 S
O343 Eu321 2.500 . S
O343 C326 1.273 . S
O344 Eu321 2.473 . S
O344 C326 1.257 . S
H345 C331 0.929 . S
H346 C333 0.931 . S
H347 C335 0.929 . S
O348 Tb349 2.292 . S
O348 C351 1.255 . S
Tb349 O348 2.292 . S
Tb349 O365 2.326 . S
Tb349 O367 2.500 . S
Tb349 O368 2.473 . S
Tb349 O371 2.324 . S
Eu350 O354 2.292 . S
Eu350 C355 2.852 . S
Eu350 O366 2.324 . S
Eu350 O370 2.326 . S
Eu350 O372 2.500 . S
Eu350 O373 2.473 . S
C351 O348 1.255 . S
C351 O352 1.247 . S
O352 C351 1.247 . S
C353 O365 1.242 . S
C353 O366 1.258 . S
O354 Eu350 2.292 . S
O354 C356 1.255 . S
C355 Eu350 2.852 . S
C355 C359 1.503 . S
C355 O372 1.273 . S
C355 O373 1.257 . S
C356 O354 1.255 . S
C356 O357 1.247 . S
O357 C356 1.247 . S
C358 O370 1.242 . S
C358 O371 1.258 . S
C359 C355 1.503 . S
C359 C360 1.379 . S
C359 C364 1.392 . S
C360 C359 1.379 . S
C360 C361 1.404 . S
C360 H374 0.929 . S
C361 C360 1.404 . S
C361 C362 1.389 . S
C362 C361 1.389 . S
C362 C363 1.399 . S
C362 H375 0.931 . S
C363 C362 1.399 . S
C363 C364 1.390 . S
C364 C359 1.392 . S
C364 C363 1.390 . S
C364 H376 0.929 . S
O365 Tb349 2.326 . S
O365 C353 1.242 . S
O366 Eu350 2.324 . S
O366 C353 1.258 . S
O367 Tb349 2.500 . S
O367 C369 1.273 . S
O368 Tb349 2.473 . S
O368 C369 1.257 . S
C369 O367 1.273 . S
C369 O368 1.257 . S
O370 Eu350 2.326 . S
O370 C358 1.242 . S
O371 Tb349 2.324 . S
O371 C358 1.258 . S
O372 Eu350 2.500 . S
O372 C355 1.273 . S
O373 Eu350 2.473 . S
O373 C355 1.257 . S
H374 C360 0.929 . S
H375 C362 0.931 . S
H376 C364 0.929 . S
O377 Tb378 2.292 . S
O377 C380 1.255 . S
Tb378 O377 2.292 . S
Tb378 O394 2.326 . S
Tb378 O396 2.500 . S
Tb378 O397 2.473 . S
Tb378 O400 2.324 1_565 S
Eu379 O383 2.292 . S
Eu379 C384 2.852 . S
Eu379 O395 2.324 . S
Eu379 O399 2.326 . S
Eu379 O401 2.500 . S
Eu379 O402 2.473 . S
C380 O377 1.255 . S
C380 O381 1.247 . S
O381 C380 1.247 . S
C382 O394 1.242 . S
C382 O395 1.258 . S
O383 Eu379 2.292 . S
O383 C385 1.255 . S
C384 Eu379 2.852 . S
C384 C388 1.503 . S
C384 O401 1.273 . S
C384 O402 1.257 . S
C385 O383 1.255 . S
C385 O386 1.247 . S
O386 C385 1.247 . S
C387 O399 1.242 . S
C387 O400 1.258 1_565 S
C388 C384 1.503 . S
C388 C389 1.379 . S
C388 C393 1.392 . S
C389 C388 1.379 . S
C389 C390 1.404 . S
C389 H403 0.929 . S
C390 C389 1.404 . S
C390 C391 1.379 1_655 S
C391 C390 1.379 1_455 S
C391 C392 1.394 1_455 S
C391 H404 0.947 . S
C392 C391 1.394 1_655 S
C392 C393 1.390 . S
C393 C388 1.392 . S
C393 C392 1.390 . S
C393 H405 0.929 . S
O394 Tb378 2.326 . S
O394 C382 1.242 . S
O395 Eu379 2.324 . S
O395 C382 1.258 . S
O396 Tb378 2.500 . S
O396 C398 1.273 . S
O397 Tb378 2.473 . S
O397 C398 1.257 . S
C398 O396 1.273 . S
C398 O397 1.257 . S
O399 Eu379 2.326 . S
O399 C387 1.242 . S
O400 Tb378 2.324 1_545 S
O400 C387 1.258 1_545 S
O401 Eu379 2.500 . S
O401 C384 1.273 . S
O402 Eu379 2.473 . S
O402 C384 1.257 . S
H403 C389 0.929 . S
H404 C391 0.947 . S
H405 C393 0.929 . S
O406 Tb407 2.360 . S
O406 C409 1.217 1_556 S
Tb407 O406 2.360 . S
Tb407 O423 2.326 . S
Tb407 O425 2.500 . S
Tb407 O426 2.473 . S
Tb407 O429 2.324 . S
Eu408 O412 2.292 . S
Eu408 C413 2.852 . S
Eu408 O424 2.324 . S
Eu408 O428 2.326 . S
Eu408 O430 2.500 . S
Eu408 O431 2.473 . S
C409 O406 1.217 1_554 S
C409 O410 1.247 . S
O410 C409 1.247 . S
C411 O423 1.242 . S
C411 O424 1.258 . S
O412 Eu408 2.292 . S
O412 C414 1.255 . S
C413 Eu408 2.852 . S
C413 C417 1.503 . S
C413 O430 1.273 . S
C413 O431 1.257 . S
C414 O412 1.255 . S
C414 O415 1.247 . S
O415 C414 1.247 . S
C416 O428 1.242 . S
C416 O429 1.258 . S
C417 C413 1.503 . S
C417 C418 1.379 . S
C417 C422 1.392 . S
C418 C417 1.379 . S
C418 C419 1.404 . S
C418 H432 0.929 . S
C419 C418 1.404 . S
C419 C420 1.389 . S
C420 C419 1.389 . S
C420 C421 1.399 . S
C420 H433 0.931 . S
C421 C420 1.399 . S
C421 C422 1.390 . S
C422 C417 1.392 . S
C422 C421 1.390 . S
C422 H434 0.929 . S
O423 Tb407 2.326 . S
O423 C411 1.242 . S
O424 Eu408 2.324 . S
O424 C411 1.258 . S
O425 Tb407 2.500 . S
O425 C427 1.273 . S
O426 Tb407 2.473 . S
O426 C427 1.257 . S
C427 O425 1.273 . S
C427 O426 1.257 . S
O428 Eu408 2.326 . S
O428 C416 1.242 . S
O429 Tb407 2.324 . S
O429 C416 1.258 . S
O430 Eu408 2.500 . S
O430 C413 1.273 . S
O431 Eu408 2.473 . S
O431 C413 1.257 . S
H432 C418 0.929 . S
H433 C420 0.931 . S
H434 C422 0.929 . S
O435 Tb436 2.292 . S
O435 C438 1.255 . S
Tb436 O435 2.292 . S
Tb436 O452 2.326 . S
Tb436 O454 2.500 . S
Tb436 O455 2.473 . S
Tb436 O458 2.324 1_545 S
Eu437 O441 2.292 . S
Eu437 C442 2.852 . S
Eu437 O453 2.324 . S
Eu437 O457 2.326 . S
Eu437 O459 2.500 . S
Eu437 O460 2.473 . S
C438 O435 1.255 . S
C438 O439 1.247 . S
O439 C438 1.247 . S
C440 O452 1.242 . S
C440 O453 1.258 . S
O441 Eu437 2.292 . S
O441 C443 1.255 . S
C442 Eu437 2.852 . S
C442 C446 1.503 . S
C442 O459 1.273 . S
C442 O460 1.257 . S
C443 O441 1.255 . S
C443 O444 1.247 . S
O444 C443 1.247 . S
C445 O457 1.242 . S
C445 O458 1.258 1_545 S
C446 C442 1.503 . S
C446 C447 1.379 . S
C446 C451 1.392 . S
C447 C446 1.379 . S
C447 C448 1.404 . S
C447 H461 0.929 . S
C448 C447 1.404 . S
C448 C449 1.389 . S
C449 C448 1.389 . S
C449 C450 1.399 . S
C449 H462 0.931 . S
C450 C449 1.399 . S
C450 C451 1.390 . S
C451 C446 1.392 . S
C451 C450 1.390 . S
C451 H463 0.929 . S
O452 Tb436 2.326 . S
O452 C440 1.242 . S
O453 Eu437 2.324 . S
O453 C440 1.258 . S
O454 Tb436 2.500 . S
O454 C456 1.273 . S
O455 Tb436 2.473 . S
O455 C456 1.257 . S
C456 O454 1.273 . S
C456 O455 1.257 . S
O457 Eu437 2.326 . S
O457 C445 1.242 . S
O458 Tb436 2.324 1_565 S
O458 C445 1.258 1_565 S
O459 Eu437 2.500 . S
O459 C442 1.273 . S
O460 Eu437 2.473 . S
O460 C442 1.257 . S
H461 C447 0.929 . S
H462 C449 0.931 . S
H463 C451 0.929 . S
C464 C465 1.349 . S
C464 C466 1.327 . S
C464 H489 0.950 . S
C465 C464 1.349 . S
C465 C481 1.349 . S
C466 C464 1.327 . S
C466 C485 1.429 . S
C466 H490 0.950 . S
C467 C484 1.574 . S
C467 C486 1.368 . S
C467 H491 0.949 . S
H468 C472 0.949 . S
C469 C470 1.349 . S
C469 C471 1.327 . S
C469 H492 0.950 . S
C470 C469 1.349 . S
C470 C482 1.349 . S
C471 C469 1.327 . S
C471 C487 1.429 . S
C471 H493 0.950 . S
C472 H468 0.949 . S
C472 C480 1.574 . S
C472 C488 1.368 . S
H473 C481 0.950 . S
H474 C479 0.950 . S
H475 C480 0.949 . S
H476 C482 0.950 . S
H477 C483 0.950 . S
H478 C484 0.949 . S
C479 H474 0.950 . S
C479 C481 1.327 . S
C479 C485 1.429 . S
C480 C472 1.574 . S
C480 H475 0.949 . S
C480 C486 1.368 . S
C481 C465 1.349 . S
C481 H473 0.950 . S
C481 C479 1.327 . S
C482 C470 1.349 . S
C482 H476 0.950 . S
C482 C483 1.327 . S
C483 H477 0.950 . S
C483 C482 1.327 . S
C483 C487 1.429 . S
C484 C467 1.574 . S
C484 H478 0.949 . S
C484 C488 1.368 . S
C485 C466 1.429 . S
C485 C479 1.429 . S
C485 C486 1.523 . S
C486 C467 1.368 . S
C486 C480 1.368 . S
C486 C485 1.523 . S
C487 C471 1.429 . S
C487 C483 1.429 . S
C487 C488 1.523 . S
C488 C472 1.368 . S
C488 C484 1.368 . S
C488 C487 1.523 . S
H489 C464 0.950 . S
H490 C466 0.950 . S
H491 C467 0.949 . S
H492 C469 0.950 . S
H493 C471 0.950 . S
C494 C495 1.349 . S
C494 C496 1.327 . S
C494 H519 0.950 . S
C495 C494 1.349 . S
C495 C511 1.349 . S
C496 C494 1.327 . S
C496 C515 1.429 . S
C496 H520 0.950 . S
C497 C514 1.574 . S
C497 C516 1.368 . S
C497 H521 0.949 . S
H498 C502 0.949 . S
C499 C500 1.349 . S
C499 C501 1.327 . S
C499 H522 0.950 . S
C500 C499 1.349 . S
C500 C512 1.349 . S
C501 C499 1.327 . S
C501 C517 1.429 . S
C501 H523 0.950 . S
C502 H498 0.949 . S
C502 C510 1.574 . S
C502 C518 1.368 . S
H503 C511 0.950 . S
H504 C509 0.950 . S
H505 C510 0.949 . S
H506 C512 0.950 . S
H507 C513 0.950 . S
H508 C514 0.949 . S
C509 H504 0.950 . S
C509 C511 1.327 . S
C509 C515 1.429 . S
C510 C502 1.574 . S
C510 H505 0.949 . S
C510 C516 1.368 . S
C511 C495 1.349 . S
C511 H503 0.950 . S
C511 C509 1.327 . S
C512 C500 1.349 . S
C512 H506 0.950 . S
C512 C513 1.327 . S
C513 H507 0.950 . S
C513 C512 1.327 . S
C513 C517 1.429 . S
C514 C497 1.574 . S
C514 H508 0.949 . S
C514 C518 1.368 . S
C515 C496 1.429 . S
C515 C509 1.429 . S
C515 C516 1.523 . S
C516 C497 1.368 . S
C516 C510 1.368 . S
C516 C515 1.523 . S
C517 C501 1.429 . S
C517 C513 1.429 . S
C517 C518 1.523 . S
C518 C502 1.368 . S
C518 C514 1.368 . S
C518 C517 1.523 . S
H519 C494 0.950 . S
H520 C496 0.950 . S
H521 C497 0.949 . S
H522 C499 0.950 . S
H523 C501 0.950 . S
C524 C525 1.349 . S
C524 C526 1.327 . S
C524 H549 0.950 . S
C525 C524 1.349 . S
C525 C541 1.349 . S
C526 C524 1.327 . S
C526 C545 1.429 . S
C526 H550 0.950 . S
C527 C544 1.574 . S
C527 C546 1.368 . S
C527 H551 0.949 . S
H528 C532 0.949 . S
C529 C530 1.349 . S
C529 C531 1.327 . S
C529 H552 0.950 . S
C530 C529 1.349 . S
C530 C542 1.349 . S
C531 C529 1.327 . S
C531 C547 1.429 . S
C531 H553 0.950 . S
C532 H528 0.949 . S
C532 C540 1.574 . S
C532 C548 1.368 . S
H533 C541 0.950 . S
H534 C539 0.950 . S
H535 C540 0.949 . S
H536 C542 0.950 . S
H537 C543 0.950 . S
H538 C544 0.949 . S
C539 H534 0.950 . S
C539 C541 1.327 . S
C539 C545 1.429 . S
C540 C532 1.574 . S
C540 H535 0.949 . S
C540 C546 1.368 . S
C541 C525 1.349 . S
C541 H533 0.950 . S
C541 C539 1.327 . S
C542 C530 1.349 . S
C542 H536 0.950 . S
C542 C543 1.327 . S
C543 H537 0.950 . S
C543 C542 1.327 . S
C543 C547 1.429 . S
C544 C527 1.574 . S
C544 H538 0.949 . S
C544 C548 1.368 . S
C545 C526 1.429 . S
C545 C539 1.429 . S
C545 C546 1.523 . S
C546 C527 1.368 . S
C546 C540 1.368 . S
C546 C545 1.523 . S
C547 C531 1.429 . S
C547 C543 1.429 . S
C547 C548 1.523 . S
C548 C532 1.368 . S
C548 C544 1.368 . S
C548 C547 1.523 . S
H549 C524 0.950 . S
H550 C526 0.950 . S
H551 C527 0.949 . S
H552 C529 0.950 . S
H553 C531 0.950 . S
C554 C555 1.349 . S
C554 C556 1.327 . S
C554 H579 0.950 . S
C555 C554 1.349 . S
C555 C571 1.349 . S
C556 C554 1.327 . S
C556 C575 1.429 . S
C556 H580 0.950 . S
C557 C574 1.574 . S
C557 C576 1.368 . S
C557 H581 0.949 . S
H558 C562 0.949 . S
C559 C560 1.349 . S
C559 C561 1.327 . S
C559 H582 0.950 . S
C560 C559 1.349 . S
C560 C572 1.349 . S
C561 C559 1.327 . S
C561 C577 1.429 . S
C561 H583 0.950 . S
C562 H558 0.949 . S
C562 C570 1.574 . S
C562 C578 1.368 . S
H563 C571 0.950 . S
H564 C569 0.950 . S
H565 C570 0.949 . S
H566 C572 0.950 . S
H567 C573 0.950 . S
H568 C574 0.949 . S
C569 H564 0.950 . S
C569 C571 1.327 . S
C569 C575 1.429 . S
C570 C562 1.574 . S
C570 H565 0.949 . S
C570 C576 1.368 . S
C571 C555 1.349 . S
C571 H563 0.950 . S
C571 C569 1.327 . S
C572 C560 1.349 . S
C572 H566 0.950 . S
C572 C573 1.327 . S
C573 H567 0.950 . S
C573 C572 1.327 . S
C573 C577 1.429 . S
C574 C557 1.574 . S
C574 H568 0.949 . S
C574 C578 1.368 . S
C575 C556 1.429 . S
C575 C569 1.429 . S
C575 C576 1.523 . S
C576 C557 1.368 . S
C576 C570 1.368 . S
C576 C575 1.523 . S
C577 C561 1.429 . S
C577 C573 1.429 . S
C577 C578 1.523 . S
C578 C562 1.368 . S
C578 C574 1.368 . S
C578 C577 1.523 . S
H579 C554 0.950 . S
H580 C556 0.950 . S
H581 C557 0.949 . S
H582 C559 0.950 . S
H583 C561 0.950 . S
C584 C585 1.349 . S
C584 C586 1.327 . S
C584 H609 0.950 . S
C585 C584 1.349 . S
C585 C601 1.349 . S
C586 C584 1.327 . S
C586 C605 1.429 . S
C586 H610 0.950 . S
C587 C604 1.574 . S
C587 C606 1.368 . S
C587 H611 0.949 . S
H588 C592 0.949 . S
C589 C590 1.349 . S
C589 C591 1.327 . S
C589 H612 0.950 . S
C590 C589 1.349 . S
C590 C602 1.349 . S
C591 C589 1.327 . S
C591 C607 1.429 . S
C591 H613 0.950 . S
C592 H588 0.949 . S
C592 C600 1.574 . S
C592 C608 1.368 . S
H593 C601 0.950 . S
H594 C599 0.950 . S
H595 C600 0.949 . S
H596 C602 0.950 . S
H597 C603 0.950 . S
H598 C604 0.949 . S
C599 H594 0.950 . S
C599 C601 1.327 . S
C599 C605 1.429 . S
C600 C592 1.574 . S
C600 H595 0.949 . S
C600 C606 1.368 . S
C601 C585 1.349 . S
C601 H593 0.950 . S
C601 C599 1.327 . S
C602 C590 1.349 . S
C602 H596 0.950 . S
C602 C603 1.327 . S
C603 H597 0.950 . S
C603 C602 1.327 . S
C603 C607 1.429 . S
C604 C587 1.574 . S
C604 H598 0.949 . S
C604 C608 1.368 . S
C605 C586 1.429 . S
C605 C599 1.429 . S
C605 C606 1.523 . S
C606 C587 1.368 . S
C606 C600 1.368 . S
C606 C605 1.523 . S
C607 C591 1.429 . S
C607 C603 1.429 . S
C607 C608 1.523 . S
C608 C592 1.368 . S
C608 C604 1.368 . S
C608 C607 1.523 . S
H609 C584 0.950 . S
H610 C586 0.950 . S
H611 C587 0.949 . S
H612 C589 0.950 . S
H613 C591 0.950 . S
C614 C615 1.349 . S
C614 C616 1.327 . S
C614 H639 0.950 . S
C615 C614 1.349 . S
C615 C631 1.349 . S
C616 C614 1.327 . S
C616 C635 1.429 . S
C616 H640 0.950 . S
C617 C634 1.574 . S
C617 C636 1.368 . S
C617 H641 0.949 . S
H618 C622 0.949 . S
C619 C620 1.349 . S
C619 C621 1.327 . S
C619 H642 0.950 . S
C620 C619 1.349 . S
C620 C632 1.349 . S
C621 C619 1.327 . S
C621 C637 1.429 . S
C621 H643 0.950 . S
C622 H618 0.949 . S
C622 C630 1.574 . S
C622 C638 1.368 . S
H623 C631 0.950 . S
H624 C629 0.950 . S
H625 C630 0.949 . S
H626 C632 0.950 . S
H627 C633 0.950 . S
H628 C634 0.949 . S
C629 H624 0.950 . S
C629 C631 1.327 . S
C629 C635 1.429 . S
C630 C622 1.574 . S
C630 H625 0.949 . S
C630 C636 1.368 . S
C631 C615 1.349 . S
C631 H623 0.950 . S
C631 C629 1.327 . S
C632 C620 1.349 . S
C632 H626 0.950 . S
C632 C633 1.327 . S
C633 H627 0.950 . S
C633 C632 1.327 . S
C633 C637 1.429 . S
C634 C617 1.574 . S
C634 H628 0.949 . S
C634 C638 1.368 . S
C635 C616 1.429 . S
C635 C629 1.429 . S
C635 C636 1.523 . S
C636 C617 1.368 . S
C636 C630 1.368 . S
C636 C635 1.523 . S
C637 C621 1.429 . S
C637 C633 1.429 . S
C637 C638 1.523 . S
C638 C622 1.368 . S
C638 C634 1.368 . S
C638 C637 1.523 . S
H639 C614 0.950 . S
H640 C616 0.950 . S
H641 C617 0.949 . S
H642 C619 0.950 . S
H643 C621 0.950 . S
C644 C645 1.349 . S
C644 C646 1.327 . S
C644 H669 0.950 . S
C645 C644 1.349 . S
C645 C661 1.349 . S
C646 C644 1.327 . S
C646 C665 1.429 . S
C646 H670 0.950 . S
C647 C664 1.574 . S
C647 C666 1.368 . S
C647 H671 0.949 . S
H648 C652 0.949 . S
C649 C650 1.349 . S
C649 C651 1.327 . S
C649 H672 0.950 . S
C650 C649 1.349 . S
C650 C662 1.349 . S
C651 C649 1.327 . S
C651 C667 1.429 . S
C651 H673 0.950 . S
C652 H648 0.949 . S
C652 C660 1.574 . S
C652 C668 1.368 . S
H653 C661 0.950 . S
H654 C659 0.950 . S
H655 C660 0.949 . S
H656 C662 0.950 . S
H657 C663 0.950 . S
H658 C664 0.949 . S
C659 H654 0.950 . S
C659 C661 1.327 . S
C659 C665 1.429 . S
C660 C652 1.574 . S
C660 H655 0.949 . S
C660 C666 1.368 . S
C661 C645 1.349 . S
C661 H653 0.950 . S
C661 C659 1.327 . S
C662 C650 1.349 . S
C662 H656 0.950 . S
C662 C663 1.327 . S
C663 H657 0.950 . S
C663 C662 1.327 . S
C663 C667 1.429 . S
C664 C647 1.574 . S
C664 H658 0.949 . S
C664 C668 1.368 . S
C665 C646 1.429 . S
C665 C659 1.429 . S
C665 C666 1.523 . S
C666 C647 1.368 . S
C666 C660 1.368 . S
C666 C665 1.523 . S
C667 C651 1.429 . S
C667 C663 1.429 . S
C667 C668 1.523 . S
C668 C652 1.368 . S
C668 C664 1.368 . S
C668 C667 1.523 . S
H669 C644 0.950 . S
H670 C646 0.950 . S
H671 C647 0.949 . S
H672 C649 0.950 . S
H673 C651 0.950 . S
C674 C675 1.349 . S
C674 C676 1.327 . S
C674 H699 0.950 . S
C675 C674 1.349 . S
C675 C691 1.349 . S
C676 C674 1.327 . S
C676 C695 1.429 . S
C676 H700 0.950 . S
C677 C694 1.574 . S
C677 C696 1.368 . S
C677 H701 0.949 . S
H678 C682 0.949 . S
C679 C680 1.349 . S
C679 C681 1.327 . S
C679 H702 0.950 . S
C680 C679 1.349 . S
C680 C692 1.349 . S
C681 C679 1.327 . S
C681 C697 1.429 . S
C681 H703 0.950 . S
C682 H678 0.949 . S
C682 C690 1.574 . S
C682 C698 1.368 . S
H683 C691 0.950 . S
H684 C689 0.950 . S
H685 C690 0.949 . S
H686 C692 0.950 . S
H687 C693 0.950 . S
H688 C694 0.949 . S
C689 H684 0.950 . S
C689 C691 1.327 . S
C689 C695 1.429 . S
C690 C682 1.574 . S
C690 H685 0.949 . S
C690 C696 1.368 . S
C691 C675 1.349 . S
C691 H683 0.950 . S
C691 C689 1.327 . S
C692 C680 1.349 . S
C692 H686 0.950 . S
C692 C693 1.327 . S
C693 H687 0.950 . S
C693 C692 1.327 . S
C693 C697 1.429 . S
C694 C677 1.574 . S
C694 H688 0.949 . S
C694 C698 1.368 . S
C695 C676 1.429 . S
C695 C689 1.429 . S
C695 C696 1.523 . S
C696 C677 1.368 . S
C696 C690 1.368 . S
C696 C695 1.523 . S
C697 C681 1.429 . S
C697 C693 1.429 . S
C697 C698 1.523 . S
C698 C682 1.368 . S
C698 C694 1.368 . S
C698 C697 1.523 . S
H699 C674 0.950 . S
H700 C676 0.950 . S
H701 C677 0.949 . S
H702 C679 0.950 . S
H703 C681 0.950 . S
C704 C705 1.349 . S
C704 C706 1.327 . S
C704 H729 0.950 . S
C705 C704 1.349 . S
C705 C721 1.349 . S
C706 C704 1.327 . S
C706 C725 1.429 . S
C706 H730 0.950 . S
C707 C724 1.574 . S
C707 C726 1.368 . S
C707 H731 0.949 . S
H708 C712 0.949 . S
C709 C710 1.349 . S
C709 C711 1.327 . S
C709 H732 0.950 . S
C710 C709 1.349 . S
C710 C722 1.349 . S
C711 C709 1.327 . S
C711 C727 1.429 . S
C711 H733 0.950 . S
C712 H708 0.949 . S
C712 C720 1.574 . S
C712 C728 1.368 . S
H713 C721 0.950 . S
H714 C719 0.950 . S
H715 C720 0.949 . S
H716 C722 0.950 . S
H717 C723 0.950 . S
H718 C724 0.949 . S
C719 H714 0.950 . S
C719 C721 1.327 . S
C719 C725 1.429 . S
C720 C712 1.574 . S
C720 H715 0.949 . S
C720 C726 1.368 . S
C721 C705 1.349 . S
C721 H713 0.950 . S
C721 C719 1.327 . S
C722 C710 1.349 . S
C722 H716 0.950 . S
C722 C723 1.327 . S
C723 H717 0.950 . S
C723 C722 1.327 . S
C723 C727 1.429 . S
C724 C707 1.574 . S
C724 H718 0.949 . S
C724 C728 1.368 . S
C725 C706 1.429 . S
C725 C719 1.429 . S
C725 C726 1.523 . S
C726 C707 1.368 . S
C726 C720 1.368 . S
C726 C725 1.523 . S
C727 C711 1.429 . S
C727 C723 1.429 . S
C727 C728 1.523 . S
C728 C712 1.368 . S
C728 C724 1.368 . S
C728 C727 1.523 . S
H729 C704 0.950 . S
H730 C706 0.950 . S
H731 C707 0.949 . S
H732 C709 0.950 . S
H733 C711 0.950 . S
C734 C735 1.349 . S
C734 C736 1.327 . S
C734 H759 0.950 . S
C735 C734 1.349 . S
C735 C751 1.349 . S
C736 C734 1.327 . S
C736 C755 1.429 . S
C736 H760 0.950 . S
C737 C754 1.574 . S
C737 C756 1.368 . S
C737 H761 0.949 . S
H738 C742 0.949 . S
C739 C740 1.349 . S
C739 C741 1.312 1_545 S
C739 H762 0.950 . S
C740 C739 1.349 . S
C740 C752 1.349 . S
C741 C739 1.312 1_565 S
C741 C757 1.416 1_565 S
C741 H763 0.980 . S
C742 H738 0.949 . S
C742 C750 1.574 1_545 S
C742 C758 1.368 1_545 S
H743 C751 0.950 . S
H744 C749 0.950 . S
H745 C750 0.949 1_545 S
H746 C752 0.950 . S
H747 C753 0.950 . S
H748 C754 0.949 . S
C749 H744 0.950 . S
C749 C751 1.327 . S
C749 C755 1.429 . S
C750 C742 1.574 1_565 S
C750 H745 0.949 1_565 S
C750 C756 1.368 . S
C751 C735 1.349 . S
C751 H743 0.950 . S
C751 C749 1.327 . S
C752 C740 1.349 . S
C752 H746 0.950 . S
C752 C753 1.327 . S
C753 H747 0.950 . S
C753 C752 1.327 . S
C753 C757 1.429 . S
C754 C737 1.574 . S
C754 H748 0.949 . S
C754 C758 1.368 . S
C755 C736 1.429 . S
C755 C749 1.429 . S
C755 C756 1.523 . S
C756 C737 1.368 . S
C756 C750 1.368 . S
C756 C755 1.523 . S
C757 C741 1.416 1_545 S
C757 C753 1.429 . S
C757 C758 1.523 1_545 S
C758 C742 1.368 1_565 S
C758 C754 1.368 . S
C758 C757 1.523 1_565 S
H759 C734 0.950 . S
H760 C736 0.950 . S
H761 C737 0.949 . S
H762 C739 0.950 . S
H763 C741 0.980 . S
C764 C765 1.349 . S
C764 C766 1.327 . S
C764 H789 0.950 . S
C765 C764 1.349 . S
C765 C781 1.349 . S
C766 C764 1.327 . S
C766 C785 1.429 . S
C766 H790 0.950 . S
C767 C784 1.574 . S
C767 C786 1.368 . S
C767 H791 0.949 . S
H768 C772 0.949 . S
C769 C770 1.349 . S
C769 C771 1.327 . S
C769 H792 0.950 . S
C770 C769 1.349 . S
C770 C782 1.349 . S
C771 C769 1.327 . S
C771 C787 1.429 . S
C771 H793 0.950 . S
C772 H768 0.949 . S
C772 C780 1.574 . S
C772 C788 1.368 . S
H773 C781 0.950 . S
H774 C779 0.950 . S
H775 C780 0.949 . S
H776 C782 0.950 . S
H777 C783 0.950 . S
H778 C784 0.949 . S
C779 H774 0.950 . S
C779 C781 1.327 . S
C779 C785 1.429 . S
C780 C772 1.574 . S
C780 H775 0.949 . S
C780 C786 1.368 . S
C781 C765 1.349 . S
C781 H773 0.950 . S
C781 C779 1.327 . S
C782 C770 1.349 . S
C782 H776 0.950 . S
C782 C783 1.327 . S
C783 H777 0.950 . S
C783 C782 1.327 . S
C783 C787 1.429 . S
C784 C767 1.574 . S
C784 H778 0.949 . S
C784 C788 1.368 . S
C785 C766 1.429 . S
C785 C779 1.429 . S
C785 C786 1.523 . S
C786 C767 1.368 . S
C786 C780 1.368 . S
C786 C785 1.523 . S
C787 C771 1.429 . S
C787 C783 1.429 . S
C787 C788 1.523 . S
C788 C772 1.368 . S
C788 C784 1.368 . S
C788 C787 1.523 . S
H789 C764 0.950 . S
H790 C766 0.950 . S
H791 C767 0.949 . S
H792 C769 0.950 . S
H793 C771 0.950 . S
C794 C795 1.349 . S
C794 C796 1.327 . S
C794 H819 0.950 . S
C795 C794 1.349 . S
C795 C811 1.349 . S
C796 C794 1.327 . S
C796 C815 1.429 . S
C796 H820 0.950 . S
C797 C814 1.574 . S
C797 C816 1.368 . S
C797 H821 0.949 . S
H798 C802 0.949 . S
C799 C800 1.349 . S
C799 C801 1.327 . S
C799 H822 0.950 . S
C800 C799 1.349 . S
C800 C812 1.349 . S
C801 C799 1.327 . S
C801 C817 1.429 . S
C801 H823 0.950 1_565 S
C802 H798 0.949 . S
C802 C810 1.574 1_565 S
C802 C818 1.368 1_565 S
H803 C811 0.950 . S
H804 C809 0.950 . S
H805 C810 0.949 . S
H806 C812 0.950 . S
H807 C813 0.950 . S
H808 C814 0.949 . S
C809 H804 0.950 . S
C809 C811 1.327 . S
C809 C815 1.429 . S
C810 C802 1.574 1_545 S
C810 H805 0.949 . S
C810 C816 1.368 . S
C811 C795 1.349 . S
C811 H803 0.950 . S
C811 C809 1.327 . S
C812 C800 1.349 . S
C812 H806 0.950 . S
C812 C813 1.327 . S
C813 H807 0.950 . S
C813 C812 1.327 . S
C813 C817 1.429 . S
C814 C797 1.574 . S
C814 H808 0.949 . S
C814 C818 1.368 . S
C815 C796 1.429 . S
C815 C809 1.429 . S
C815 C816 1.523 . S
C816 C797 1.368 . S
C816 C810 1.368 . S
C816 C815 1.523 . S
C817 C801 1.429 . S
C817 C813 1.429 . S
C817 C818 1.523 1_565 S
C818 C802 1.368 1_545 S
C818 C814 1.368 . S
C818 C817 1.523 1_545 S
H819 C794 0.950 . S
H820 C796 0.950 . S
H821 C797 0.949 . S
H822 C799 0.950 . S
H823 C801 0.950 1_545 S
C824 C825 1.349 . S
C824 C826 1.327 . S
C824 H849 0.950 . S
C825 C824 1.349 . S
C825 C841 1.349 . S
C826 C824 1.327 . S
C826 C845 1.429 . S
C826 H850 0.950 . S
C827 C844 1.574 . S
C827 C846 1.368 . S
C827 H851 0.949 . S
H828 C832 0.949 . S
C829 C830 1.349 . S
C829 C831 1.327 . S
C829 H852 0.950 . S
C830 C829 1.349 . S
C830 C842 1.349 . S
C831 C829 1.327 . S
C831 C847 1.429 . S
C831 H853 0.950 . S
C832 H828 0.949 . S
C832 C840 1.574 . S
C832 C848 1.368 . S
H833 C841 0.950 . S
H834 C839 0.950 . S
H835 C840 0.949 . S
H836 C842 0.950 . S
H837 C843 0.950 . S
H838 C844 0.949 . S
C839 H834 0.950 . S
C839 C841 1.327 . S
C839 C845 1.429 . S
C840 C832 1.574 . S
C840 H835 0.949 . S
C840 C846 1.368 . S
C841 C825 1.349 . S
C841 H833 0.950 . S
C841 C839 1.327 . S
C842 C830 1.349 . S
C842 H836 0.950 . S
C842 C843 1.327 . S
C843 H837 0.950 . S
C843 C842 1.327 . S
C843 C847 1.429 . S
C844 C827 1.574 . S
C844 H838 0.949 . S
C844 C848 1.368 . S
C845 C826 1.429 . S
C845 C839 1.429 . S
C845 C846 1.523 . S
C846 C827 1.368 . S
C846 C840 1.368 . S
C846 C845 1.523 . S
C847 C831 1.429 . S
C847 C843 1.429 . S
C847 C848 1.523 . S
C848 C832 1.368 . S
C848 C844 1.368 . S
C848 C847 1.523 . S
H849 C824 0.950 . S
H850 C826 0.950 . S
H851 C827 0.949 . S
H852 C829 0.950 . S
H853 C831 0.950 . S
C854 C855 1.349 . S
C854 C856 1.327 . S
C854 H879 0.950 . S
C855 C854 1.349 . S
C855 C871 1.349 . S
C856 C854 1.327 . S
C856 C875 1.429 . S
C856 H880 0.950 . S
C857 C874 1.574 . S
C857 C876 1.368 . S
C857 H881 0.949 . S
H858 C862 0.944 1_565 S
C859 C860 1.349 . S
C859 C861 1.327 . S
C859 H882 0.950 . S
C860 C859 1.349 . S
C860 C872 1.349 . S
C861 C859 1.327 . S
C861 C877 1.429 . S
C861 H883 0.950 . S
C862 H858 0.944 1_545 S
C862 C870 1.569 1_545 S
C862 C878 1.379 . S
H863 C871 0.950 1_545 S
H864 C869 0.950 . S
H865 C870 0.949 . S
H866 C872 0.950 . S
H867 C873 0.950 . S
H868 C874 0.949 . S
C869 H864 0.950 . S
C869 C871 1.327 1_545 S
C869 C875 1.429 1_545 S
C870 C862 1.569 1_565 S
C870 H865 0.949 . S
C870 C876 1.368 1_565 S
C871 C855 1.349 . S
C871 H863 0.950 1_565 S
C871 C869 1.327 1_565 S
C872 C860 1.349 . S
C872 H866 0.950 . S
C872 C873 1.327 . S
C873 H867 0.950 . S
C873 C872 1.327 . S
C873 C877 1.429 . S
C874 C857 1.574 . S
C874 H868 0.949 . S
C874 C878 1.368 . S
C875 C856 1.429 . S
C875 C869 1.429 1_565 S
C875 C876 1.523 1_565 S
C876 C857 1.368 . S
C876 C870 1.368 1_545 S
C876 C875 1.523 1_545 S
C877 C861 1.429 . S
C877 C873 1.429 . S
C877 C878 1.523 . S
C878 C862 1.379 . S
C878 C874 1.368 . S
C878 C877 1.523 . S
H879 C854 0.950 . S
H880 C856 0.950 . S
H881 C857 0.949 . S
H882 C859 0.950 . S
H883 C861 0.950 . S
C884 C885 1.349 . S
C884 C886 1.327 . S
C884 H909 0.950 . S
C885 C884 1.349 . S
C885 C901 1.349 . S
C886 C884 1.327 . S
C886 C905 1.429 . S
C886 H910 0.950 . S
C887 C904 1.574 . S
C887 C906 1.368 . S
C887 H911 0.949 . S
H888 C892 0.949 . S
C889 C890 1.349 . S
C889 C891 1.327 . S
C889 H912 0.950 . S
C890 C889 1.349 . S
C890 C902 1.349 . S
C891 C889 1.327 . S
C891 C907 1.429 . S
C891 H913 0.950 . S
C892 H888 0.949 . S
C892 C900 1.574 . S
C892 C908 1.368 . S
H893 C901 0.950 . S
H894 C899 0.950 . S
H895 C900 0.949 . S
H896 C902 0.950 . S
H897 C903 0.950 . S
H898 C904 0.949 . S
C899 H894 0.950 . S
C899 C901 1.327 . S
C899 C905 1.429 . S
C900 C892 1.574 . S
C900 H895 0.949 . S
C900 C906 1.368 . S
C901 C885 1.349 . S
C901 H893 0.950 . S
C901 C899 1.327 . S
C902 C890 1.349 . S
C902 H896 0.950 . S
C902 C903 1.327 . S
C903 H897 0.950 . S
C903 C902 1.327 . S
C903 C907 1.429 . S
C904 C887 1.574 . S
C904 H898 0.949 . S
C904 C908 1.368 . S
C905 C886 1.429 . S
C905 C899 1.429 . S
C905 C906 1.523 . S
C906 C887 1.368 . S
C906 C900 1.368 . S
C906 C905 1.523 . S
C907 C891 1.429 . S
C907 C903 1.429 . S
C907 C908 1.523 . S
C908 C892 1.368 . S
C908 C904 1.368 . S
C908 C907 1.523 . S
H909 C884 0.950 . S
H910 C886 0.950 . S
H911 C887 0.949 . S
H912 C889 0.950 . S
H913 C891 0.950 . S
C914 C915 1.349 . S
C914 C916 1.327 . S
C914 H939 0.950 . S
C915 C914 1.349 . S
C915 C931 1.349 . S
C916 C914 1.327 . S
C916 C935 1.429 . S
C916 H940 0.950 . S
C917 C934 1.574 . S
C917 C936 1.368 . S
C917 H941 0.949 . S
H918 C922 0.949 . S
C919 C920 1.349 . S
C919 C921 1.327 1_545 S
C919 H942 0.950 1_545 S
C920 C919 1.349 . S
C920 C932 1.349 . S
C921 C919 1.327 1_565 S
C921 C937 1.429 1_565 S
C921 H943 0.950 . S
C922 H918 0.949 . S
C922 C930 1.574 . S
C922 C938 1.368 1_545 S
H923 C931 0.950 . S
H924 C929 0.950 . S
H925 C930 0.949 . S
H926 C932 0.950 . S
H927 C933 0.950 . S
H928 C934 0.949 . S
C929 H924 0.950 . S
C929 C931 1.327 . S
C929 C935 1.429 . S
C930 C922 1.574 . S
C930 H925 0.949 . S
C930 C936 1.368 1_545 S
C931 C915 1.349 . S
C931 H923 0.950 . S
C931 C929 1.327 . S
C932 C920 1.349 . S
C932 H926 0.950 . S
C932 C933 1.327 . S
C933 H927 0.950 . S
C933 C932 1.327 . S
C933 C937 1.429 . S
C934 C917 1.574 . S
C934 H928 0.949 . S
C934 C938 1.368 . S
C935 C916 1.429 . S
C935 C929 1.429 . S
C935 C936 1.523 . S
C936 C917 1.368 . S
C936 C930 1.368 1_565 S
C936 C935 1.523 . S
C937 C921 1.429 1_545 S
C937 C933 1.429 . S
C937 C938 1.523 1_545 S
C938 C922 1.368 1_565 S
C938 C934 1.368 . S
C938 C937 1.523 1_565 S
H939 C914 0.950 . S
H940 C916 0.950 . S
H941 C917 0.949 . S
H942 C919 0.950 1_565 S
H943 C921 0.950 . S
C944 C945 1.349 . S
C944 C946 1.327 . S
C944 H969 0.950 . S
C945 C944 1.349 . S
C945 C961 1.349 . S
C946 C944 1.327 . S
C946 C965 1.429 . S
C946 H970 0.950 . S
C947 C964 1.574 . S
C947 C966 1.368 . S
C947 H971 0.949 . S
H948 C952 0.949 . S
C949 C950 1.349 . S
C949 C951 1.327 . S
C949 H972 0.950 . S
C950 C949 1.349 . S
C950 C962 1.349 . S
C951 C949 1.327 . S
C951 C967 1.429 . S
C951 H973 0.950 . S
C952 H948 0.949 . S
C952 C960 1.574 . S
C952 C968 1.368 . S
H953 C961 0.950 . S
H954 C959 0.950 . S
H955 C960 0.949 . S
H956 C962 0.950 . S
H957 C963 0.950 . S
H958 C964 0.949 . S
C959 H954 0.950 . S
C959 C961 1.327 . S
C959 C965 1.429 . S
C960 C952 1.574 . S
C960 H955 0.949 . S
C960 C966 1.368 . S
C961 C945 1.349 . S
C961 H953 0.950 . S
C961 C959 1.327 . S
C962 C950 1.349 . S
C962 H956 0.950 . S
C962 C963 1.327 . S
C963 H957 0.950 . S
C963 C962 1.327 . S
C963 C967 1.429 . S
C964 C947 1.574 . S
C964 H958 0.949 . S
C964 C968 1.368 . S
C965 C946 1.429 . S
C965 C959 1.429 . S
C965 C966 1.523 . S
C966 C947 1.368 . S
C966 C960 1.368 . S
C966 C965 1.523 . S
C967 C951 1.429 . S
C967 C963 1.429 . S
C967 C968 1.523 . S
C968 C952 1.368 . S
C968 C964 1.368 . S
C968 C967 1.523 . S
H969 C944 0.950 . S
H970 C946 0.950 . S
H971 C947 0.949 . S
H972 C949 0.950 . S
H973 C951 0.950 . S
C974 C975 1.349 . S
C974 C976 1.327 . S
C974 H999 0.950 . S
C975 C974 1.349 . S
C975 C991 1.349 . S
C976 C974 1.327 . S
C976 C995 1.429 . S
C976 H1000 0.950 . S
C977 C994 1.574 . S
C977 C996 1.368 . S
C977 H1001 0.949 . S
H978 C982 0.949 . S
C979 C980 1.349 . S
C979 C981 1.327 . S
C979 H1002 0.950 . S
C980 C979 1.349 . S
C980 C992 1.349 . S
C981 C979 1.327 . S
C981 C997 1.429 . S
C981 H1003 0.950 . S
C982 H978 0.949 . S
C982 C990 1.574 . S
C982 C998 1.368 . S
H983 C991 0.950 . S
H984 C989 0.950 . S
H985 C990 0.949 . S
H986 C992 0.950 . S
H987 C993 0.950 . S
H988 C994 0.949 . S
C989 H984 0.950 . S
C989 C991 1.327 . S
C989 C995 1.429 . S
C990 C982 1.574 . S
C990 H985 0.949 . S
C990 C996 1.368 . S
C991 C975 1.349 . S
C991 H983 0.950 . S
C991 C989 1.327 . S
C992 C980 1.349 . S
C992 H986 0.950 . S
C992 C993 1.327 . S
C993 H987 0.950 . S
C993 C992 1.327 . S
C993 C997 1.429 . S
C994 C977 1.574 . S
C994 H988 0.949 . S
C994 C998 1.368 . S
C995 C976 1.429 . S
C995 C989 1.429 . S
C995 C996 1.523 . S
C996 C977 1.368 . S
C996 C990 1.368 . S
C996 C995 1.523 . S
C997 C981 1.429 . S
C997 C993 1.429 . S
C997 C998 1.523 . S
C998 C982 1.368 . S
C998 C994 1.368 . S
C998 C997 1.523 . S
H999 C974 0.950 . S
H1000 C976 0.950 . S
H1001 C977 0.949 . S
H1002 C979 0.950 . S
H1003 C981 0.950 . S
C1004 C1005 1.349 . S
C1004 C1006 1.327 . S
C1004 H1029 0.950 . S
C1005 C1004 1.349 . S
C1005 C1021 1.349 . S
C1006 C1004 1.327 . S
C1006 C1025 1.429 . S
C1006 H1030 0.950 . S
C1007 C1024 1.574 . S
C1007 C1026 1.368 . S
C1007 H1031 0.949 . S
H1008 C1012 0.949 . S
C1009 C1010 1.349 . S
C1009 C1011 1.327 . S
C1009 H1032 0.950 . S
C1010 C1009 1.349 . S
C1010 C1022 1.349 . S
C1011 C1009 1.327 . S
C1011 C1027 1.429 . S
C1011 H1033 0.950 . S
C1012 H1008 0.949 . S
C1012 C1020 1.574 . S
C1012 C1028 1.368 . S
H1013 C1021 0.950 . S
H1014 C1019 0.950 . S
H1015 C1020 0.949 . S
H1016 C1022 0.950 . S
H1017 C1023 0.950 . S
H1018 C1024 0.949 . S
C1019 H1014 0.950 . S
C1019 C1021 1.327 . S
C1019 C1025 1.429 . S
C1020 C1012 1.574 . S
C1020 H1015 0.949 . S
C1020 C1026 1.368 . S
C1021 C1005 1.349 . S
C1021 H1013 0.950 . S
C1021 C1019 1.327 . S
C1022 C1010 1.349 . S
C1022 H1016 0.950 . S
C1022 C1023 1.327 . S
C1023 H1017 0.950 . S
C1023 C1022 1.327 . S
C1023 C1027 1.429 . S
C1024 C1007 1.574 . S
C1024 H1018 0.949 . S
C1024 C1028 1.368 . S
C1025 C1006 1.429 . S
C1025 C1019 1.429 . S
C1025 C1026 1.523 . S
C1026 C1007 1.368 . S
C1026 C1020 1.368 . S
C1026 C1025 1.523 . S
C1027 C1011 1.429 . S
C1027 C1023 1.429 . S
C1027 C1028 1.523 . S
C1028 C1012 1.368 . S
C1028 C1024 1.368 . S
C1028 C1027 1.523 . S
H1029 C1004 0.950 . S
H1030 C1006 0.950 . S
H1031 C1007 0.949 . S
H1032 C1009 0.950 . S
H1033 C1011 0.950 . S
C1034 C1035 1.349 . S
C1034 C1036 1.327 . S
C1034 H1059 0.950 . S
C1035 C1034 1.349 . S
C1035 C1051 1.349 . S
C1036 C1034 1.327 . S
C1036 C1055 1.429 . S
C1036 H1060 0.950 . S
C1037 C1054 1.574 . S
C1037 C1056 1.368 . S
C1037 H1061 0.949 . S
H1038 C1042 0.949 . S
C1039 C1040 1.349 . S
C1039 C1041 1.327 . S
C1039 H1062 0.950 1_455 S
C1040 C1039 1.349 . S
C1040 C1052 1.349 . S
C1041 C1039 1.327 . S
C1041 C1057 1.429 . S
C1041 H1063 0.950 . S
C1042 H1038 0.949 . S
C1042 C1050 1.574 . S
C1042 C1058 1.368 . S
H1043 C1051 0.950 . S
H1044 C1049 0.950 . S
H1045 C1050 0.949 . S
H1046 C1052 0.950 . S
H1047 C1053 0.950 . S
H1048 C1054 0.949 . S
C1049 H1044 0.950 . S
C1049 C1051 1.327 . S
C1049 C1055 1.429 . S
C1050 C1042 1.574 . S
C1050 H1045 0.949 . S
C1050 C1056 1.368 . S
C1051 C1035 1.349 . S
C1051 H1043 0.950 . S
C1051 C1049 1.327 . S
C1052 C1040 1.349 . S
C1052 H1046 0.950 . S
C1052 C1053 1.327 . S
C1053 H1047 0.950 . S
C1053 C1052 1.327 . S
C1053 C1057 1.429 . S
C1054 C1037 1.574 . S
C1054 H1048 0.949 . S
C1054 C1058 1.368 . S
C1055 C1036 1.429 . S
C1055 C1049 1.429 . S
C1055 C1056 1.523 . S
C1056 C1037 1.368 . S
C1056 C1050 1.368 . S
C1056 C1055 1.523 . S
C1057 C1041 1.429 . S
C1057 C1053 1.429 . S
C1057 C1058 1.523 . S
C1058 C1042 1.368 . S
C1058 C1054 1.368 . S
C1058 C1057 1.523 . S
H1059 C1034 0.950 . S
H1060 C1036 0.950 . S
H1061 C1037 0.949 . S
H1062 C1039 0.950 1_655 S
H1063 C1041 0.950 . S
C1064 C1065 1.349 . S
C1064 C1066 1.327 . S
C1064 H1089 0.950 . S
C1065 C1064 1.349 . S
C1065 C1081 1.349 . S
C1066 C1064 1.327 . S
C1066 C1085 1.429 . S
C1066 H1090 0.950 . S
C1067 C1084 1.574 . S
C1067 C1086 1.368 . S
C1067 H1091 0.949 . S
H1068 C1072 0.949 . S
C1069 C1070 1.349 . S
C1069 C1071 1.327 . S
C1069 H1092 0.950 . S
C1070 C1069 1.349 . S
C1070 C1082 1.349 . S
C1071 C1069 1.327 . S
C1071 C1087 1.429 . S
C1071 H1093 0.950 . S
C1072 H1068 0.949 . S
C1072 C1080 1.574 . S
C1072 C1088 1.368 . S
H1073 C1081 0.950 . S
H1074 C1079 0.950 . S
H1075 C1080 0.949 . S
H1076 C1082 0.950 . S
H1077 C1083 0.950 . S
H1078 C1084 0.949 . S
C1079 H1074 0.950 . S
C1079 C1081 1.327 . S
C1079 C1085 1.429 . S
C1080 C1072 1.574 . S
C1080 H1075 0.949 . S
C1080 C1086 1.368 . S
C1081 C1065 1.349 . S
C1081 H1073 0.950 . S
C1081 C1079 1.327 . S
C1082 C1070 1.349 . S
C1082 H1076 0.950 . S
C1082 C1083 1.327 . S
C1083 H1077 0.950 . S
C1083 C1082 1.327 . S
C1083 C1087 1.429 . S
C1084 C1067 1.574 . S
C1084 H1078 0.949 . S
C1084 C1088 1.368 . S
C1085 C1066 1.429 . S
C1085 C1079 1.429 . S
C1085 C1086 1.523 . S
C1086 C1067 1.368 . S
C1086 C1080 1.368 . S
C1086 C1085 1.523 . S
C1087 C1071 1.429 . S
C1087 C1083 1.429 . S
C1087 C1088 1.523 . S
C1088 C1072 1.368 . S
C1088 C1084 1.368 . S
C1088 C1087 1.523 . S
H1089 C1064 0.950 . S
H1090 C1066 0.950 . S
H1091 C1067 0.949 . S
H1092 C1069 0.950 . S
H1093 C1071 0.950 . S
C1094 C1095 1.349 . S
C1094 C1096 1.327 . S
C1094 H1119 0.950 . S
C1095 C1094 1.349 . S
C1095 C1111 1.349 . S
C1096 C1094 1.327 . S
C1096 C1115 1.429 . S
C1096 H1120 0.950 . S
C1097 C1114 1.574 . S
C1097 C1116 1.368 . S
C1097 H1121 0.949 . S
H1098 C1102 0.949 . S
C1099 C1100 1.349 . S
C1099 C1101 1.327 . S
C1099 H1122 0.950 . S
C1100 C1099 1.349 . S
C1100 C1112 1.349 . S
C1101 C1099 1.327 . S
C1101 C1117 1.429 . S
C1101 H1123 0.950 . S
C1102 H1098 0.949 . S
C1102 C1110 1.574 . S
C1102 C1118 1.368 . S
H1103 C1111 0.950 . S
H1104 C1109 0.950 . S
H1105 C1110 0.949 . S
H1106 C1112 0.950 . S
H1107 C1113 0.950 . S
H1108 C1114 0.949 . S
C1109 H1104 0.950 . S
C1109 C1111 1.327 . S
C1109 C1115 1.429 . S
C1110 C1102 1.574 . S
C1110 H1105 0.949 . S
C1110 C1116 1.368 . S
C1111 C1095 1.349 . S
C1111 H1103 0.950 . S
C1111 C1109 1.327 . S
C1112 C1100 1.349 . S
C1112 H1106 0.950 . S
C1112 C1113 1.327 . S
C1113 H1107 0.950 . S
C1113 C1112 1.327 . S
C1113 C1117 1.429 . S
C1114 C1097 1.574 . S
C1114 H1108 0.949 . S
C1114 C1118 1.368 . S
C1115 C1096 1.429 . S
C1115 C1109 1.429 . S
C1115 C1116 1.523 . S
C1116 C1097 1.368 . S
C1116 C1110 1.368 . S
C1116 C1115 1.523 . S
C1117 C1101 1.429 . S
C1117 C1113 1.429 . S
C1117 C1118 1.523 . S
C1118 C1102 1.368 . S
C1118 C1114 1.368 . S
C1118 C1117 1.523 . S
H1119 C1094 0.950 . S
H1120 C1096 0.950 . S
H1121 C1097 0.949 . S
H1122 C1099 0.950 . S
H1123 C1101 0.950 . S
C1124 C1125 1.349 . S
C1124 C1126 1.327 . S
C1124 H1149 0.950 . S
C1125 C1124 1.349 . S
C1125 C1141 1.349 . S
C1126 C1124 1.327 . S
C1126 C1145 1.429 . S
C1126 H1150 0.950 . S
C1127 C1144 1.574 . S
C1127 C1146 1.368 . S
C1127 H1151 0.949 . S
H1128 C1132 0.949 . S
C1129 C1130 1.349 . S
C1129 C1131 1.327 . S
C1129 H1152 0.950 . S
C1130 C1129 1.349 . S
C1130 C1142 1.349 . S
C1131 C1129 1.327 . S
C1131 C1147 1.429 . S
C1131 H1153 0.950 . S
C1132 H1128 0.949 . S
C1132 C1140 1.574 . S
C1132 C1148 1.368 . S
H1133 C1141 0.950 . S
H1134 C1139 0.950 . S
H1135 C1140 0.949 . S
H1136 C1142 0.950 . S
H1137 C1143 0.950 . S
H1138 C1144 0.949 . S
C1139 H1134 0.950 . S
C1139 C1141 1.327 . S
C1139 C1145 1.429 . S
C1140 C1132 1.574 . S
C1140 H1135 0.949 . S
C1140 C1146 1.368 . S
C1141 C1125 1.349 . S
C1141 H1133 0.950 . S
C1141 C1139 1.327 . S
C1142 C1130 1.349 . S
C1142 H1136 0.950 . S
C1142 C1143 1.327 . S
C1143 H1137 0.950 . S
C1143 C1142 1.327 . S
C1143 C1147 1.429 . S
C1144 C1127 1.574 . S
C1144 H1138 0.949 . S
C1144 C1148 1.368 . S
C1145 C1126 1.429 . S
C1145 C1139 1.429 . S
C1145 C1146 1.523 . S
C1146 C1127 1.368 . S
C1146 C1140 1.368 . S
C1146 C1145 1.523 . S
C1147 C1131 1.429 . S
C1147 C1143 1.429 . S
C1147 C1148 1.523 . S
C1148 C1132 1.368 . S
C1148 C1144 1.368 . S
C1148 C1147 1.523 . S
H1149 C1124 0.950 . S
H1150 C1126 0.950 . S
H1151 C1127 0.949 . S
H1152 C1129 0.950 . S
H1153 C1131 0.950 . S
C1154 C1155 1.349 . S
C1154 C1156 1.327 . S
C1154 H1179 0.950 . S
C1155 C1154 1.349 . S
C1155 C1171 1.349 . S
C1156 C1154 1.327 . S
C1156 C1175 1.429 . S
C1156 H1180 0.950 . S
C1157 C1174 1.574 . S
C1157 C1176 1.368 . S
C1157 H1181 0.949 . S
H1158 C1162 0.949 . S
C1159 C1160 1.349 . S
C1159 C1161 1.327 . S
C1159 H1182 0.950 . S
C1160 C1159 1.349 . S
C1160 C1172 1.349 . S
C1161 C1159 1.327 . S
C1161 C1177 1.429 . S
C1161 H1183 0.950 . S
C1162 H1158 0.949 . S
C1162 C1170 1.574 . S
C1162 C1178 1.368 . S
H1163 C1171 0.950 . S
H1164 C1169 0.950 . S
H1165 C1170 0.949 . S
H1166 C1172 0.950 . S
H1167 C1173 0.950 . S
H1168 C1174 0.949 . S
C1169 H1164 0.950 . S
C1169 C1171 1.327 . S
C1169 C1175 1.429 . S
C1170 C1162 1.574 . S
C1170 H1165 0.949 . S
C1170 C1176 1.368 . S
C1171 C1155 1.349 . S
C1171 H1163 0.950 . S
C1171 C1169 1.327 . S
C1172 C1160 1.349 . S
C1172 H1166 0.950 . S
C1172 C1173 1.327 . S
C1173 H1167 0.950 . S
C1173 C1172 1.327 . S
C1173 C1177 1.429 . S
C1174 C1157 1.574 . S
C1174 H1168 0.949 . S
C1174 C1178 1.368 . S
C1175 C1156 1.429 . S
C1175 C1169 1.429 . S
C1175 C1176 1.523 . S
C1176 C1157 1.368 . S
C1176 C1170 1.368 . S
C1176 C1175 1.523 . S
C1177 C1161 1.429 . S
C1177 C1173 1.429 . S
C1177 C1178 1.523 . S
C1178 C1162 1.368 . S
C1178 C1174 1.368 . S
C1178 C1177 1.523 . S
H1179 C1154 0.950 . S
H1180 C1156 0.950 . S
H1181 C1157 0.949 . S
H1182 C1159 0.950 . S
H1183 C1161 0.950 . S
C1184 C1185 1.349 . S
C1184 C1186 1.327 . S
C1184 H1209 0.950 . S
C1185 C1184 1.349 . S
C1185 C1201 1.349 . S
C1186 C1184 1.327 . S
C1186 C1205 1.429 . S
C1186 H1210 0.950 . S
C1187 C1204 1.574 . S
C1187 C1206 1.368 . S
C1187 H1211 0.949 . S
H1188 C1192 0.949 . S
C1189 C1190 1.349 . S
C1189 C1191 1.327 . S
C1189 H1212 0.950 . S
C1190 C1189 1.349 . S
C1190 C1202 1.349 . S
C1191 C1189 1.327 . S
C1191 C1207 1.429 . S
C1191 H1213 0.950 . S
C1192 H1188 0.949 . S
C1192 C1200 1.574 . S
C1192 C1208 1.368 . S
H1193 C1201 0.950 . S
H1194 C1199 0.950 . S
H1195 C1200 0.949 . S
H1196 C1202 0.950 . S
H1197 C1203 0.950 . S
H1198 C1204 0.949 . S
C1199 H1194 0.950 . S
C1199 C1201 1.327 . S
C1199 C1205 1.429 . S
C1200 C1192 1.574 . S
C1200 H1195 0.949 . S
C1200 C1206 1.368 . S
C1201 C1185 1.349 . S
C1201 H1193 0.950 . S
C1201 C1199 1.327 . S
C1202 C1190 1.349 . S
C1202 H1196 0.950 . S
C1202 C1203 1.327 . S
C1203 H1197 0.950 . S
C1203 C1202 1.327 . S
C1203 C1207 1.429 . S
C1204 C1187 1.574 . S
C1204 H1198 0.949 . S
C1204 C1208 1.368 . S
C1205 C1186 1.429 . S
C1205 C1199 1.429 . S
C1205 C1206 1.523 . S
C1206 C1187 1.368 . S
C1206 C1200 1.368 . S
C1206 C1205 1.523 . S
C1207 C1191 1.429 . S
C1207 C1203 1.429 . S
C1207 C1208 1.523 . S
C1208 C1192 1.368 . S
C1208 C1204 1.368 . S
C1208 C1207 1.523 . S
H1209 C1184 0.950 . S
H1210 C1186 0.950 . S
H1211 C1187 0.949 . S
H1212 C1189 0.950 . S
H1213 C1191 0.950 . S
C1214 C1215 1.349 . S
C1214 C1216 1.327 . S
C1214 H1239 0.950 . S
C1215 C1214 1.349 . S
C1215 C1231 1.349 1_545 S
C1216 C1214 1.327 . S
C1216 C1235 1.429 1_545 S
C1216 H1240 0.950 . S
C1217 C1234 1.574 . S
C1217 C1236 1.368 . S
C1217 H1241 0.949 . S
H1218 C1222 0.949 . S
C1219 C1220 1.349 . S
C1219 C1221 1.327 . S
C1219 H1242 0.950 . S
C1220 C1219 1.349 . S
C1220 C1232 1.349 . S
C1221 C1219 1.327 . S
C1221 C1237 1.429 . S
C1221 H1243 0.950 . S
C1222 H1218 0.949 . S
C1222 C1230 1.574 . S
C1222 C1238 1.368 . S
H1223 C1231 0.950 . S
H1224 C1229 0.950 . S
H1225 C1230 0.949 1_545 S
H1226 C1232 0.950 . S
H1227 C1233 0.950 . S
H1228 C1234 0.949 . S
C1229 H1224 0.950 . S
C1229 C1231 1.327 . S
C1229 C1235 1.429 . S
C1230 C1222 1.574 . S
C1230 H1225 0.949 1_565 S
C1230 C1236 1.368 . S
C1231 C1215 1.349 1_565 S
C1231 H1223 0.950 . S
C1231 C1229 1.327 . S
C1232 C1220 1.349 . S
C1232 H1226 0.950 . S
C1232 C1233 1.327 . S
C1233 H1227 0.950 . S
C1233 C1232 1.327 . S
C1233 C1237 1.429 . S
C1234 C1217 1.574 . S
C1234 H1228 0.949 . S
C1234 C1238 1.368 . S
C1235 C1216 1.429 1_565 S
C1235 C1229 1.429 . S
C1235 C1236 1.523 . S
C1236 C1217 1.368 . S
C1236 C1230 1.368 . S
C1236 C1235 1.523 . S
C1237 C1221 1.429 . S
C1237 C1233 1.429 . S
C1237 C1238 1.523 . S
C1238 C1222 1.368 . S
C1238 C1234 1.368 . S
C1238 C1237 1.523 . S
H1239 C1214 0.950 . S
H1240 C1216 0.950 . S
H1241 C1217 0.949 . S
H1242 C1219 0.950 . S
H1243 C1221 0.950 . S
C1244 C1245 1.349 . S
C1244 C1246 1.327 . S
C1244 H1269 0.950 . S
C1245 C1244 1.349 . S
C1245 C1261 1.349 . S
C1246 C1244 1.327 . S
C1246 C1265 1.429 . S
C1246 H1270 0.950 . S
C1247 C1264 1.574 . S
C1247 C1266 1.368 . S
C1247 H1271 0.949 . S
H1248 C1252 0.949 . S
C1249 C1250 1.349 . S
C1249 C1251 1.327 . S
C1249 H1272 0.950 . S
C1250 C1249 1.349 . S
C1250 C1262 1.349 . S
C1251 C1249 1.327 . S
C1251 C1267 1.429 . S
C1251 H1273 0.950 . S
C1252 H1248 0.949 . S
C1252 C1260 1.574 . S
C1252 C1268 1.368 . S
H1253 C1261 0.950 . S
H1254 C1259 0.950 . S
H1255 C1260 0.949 . S
H1256 C1262 0.950 . S
H1257 C1263 0.950 . S
H1258 C1264 0.949 . S
C1259 H1254 0.950 . S
C1259 C1261 1.327 . S
C1259 C1265 1.429 . S
C1260 C1252 1.574 . S
C1260 H1255 0.949 . S
C1260 C1266 1.368 . S
C1261 C1245 1.349 . S
C1261 H1253 0.950 . S
C1261 C1259 1.327 . S
C1262 C1250 1.349 . S
C1262 H1256 0.950 . S
C1262 C1263 1.327 . S
C1263 H1257 0.950 . S
C1263 C1262 1.327 . S
C1263 C1267 1.429 . S
C1264 C1247 1.574 . S
C1264 H1258 0.949 . S
C1264 C1268 1.368 . S
C1265 C1246 1.429 . S
C1265 C1259 1.429 . S
C1265 C1266 1.523 . S
C1266 C1247 1.368 . S
C1266 C1260 1.368 . S
C1266 C1265 1.523 . S
C1267 C1251 1.429 . S
C1267 C1263 1.429 . S
C1267 C1268 1.523 . S
C1268 C1252 1.368 . S
C1268 C1264 1.368 . S
C1268 C1267 1.523 . S
H1269 C1244 0.950 . S
H1270 C1246 0.950 . S
H1271 C1247 0.949 . S
H1272 C1249 0.950 . S
H1273 C1251 0.950 . S
C1274 C1275 1.349 . S
C1274 C1276 1.327 . S
C1274 H1299 0.950 . S
C1275 C1274 1.349 . S
C1275 C1291 1.349 . S
C1276 C1274 1.327 . S
C1276 C1295 1.429 . S
C1276 H1300 0.950 . S
C1277 C1294 1.574 . S
C1277 C1296 1.368 . S
C1277 H1301 0.949 . S
H1278 C1282 0.949 . S
C1279 C1280 1.349 1_545 S
C1279 C1281 1.327 . S
C1279 H1302 0.950 . S
C1280 C1279 1.349 1_565 S
C1280 C1292 1.349 . S
C1281 C1279 1.327 . S
C1281 C1297 1.429 . S
C1281 H1303 0.950 . S
C1282 H1278 0.949 . S
C1282 C1290 1.574 . S
C1282 C1298 1.368 . S
H1283 C1291 0.950 . S
H1284 C1289 0.950 . S
H1285 C1290 0.949 . S
H1286 C1292 0.950 . S
H1287 C1293 0.950 . S
H1288 C1294 0.949 . S
C1289 H1284 0.950 . S
C1289 C1291 1.327 . S
C1289 C1295 1.429 . S
C1290 C1282 1.574 . S
C1290 H1285 0.949 . S
C1290 C1296 1.368 . S
C1291 C1275 1.349 . S
C1291 H1283 0.950 . S
C1291 C1289 1.327 . S
C1292 C1280 1.349 . S
C1292 H1286 0.950 . S
C1292 C1293 1.327 . S
C1293 H1287 0.950 . S
C1293 C1292 1.327 . S
C1293 C1297 1.429 1_565 S
C1294 C1277 1.574 . S
C1294 H1288 0.949 . S
C1294 C1298 1.368 . S
C1295 C1276 1.429 . S
C1295 C1289 1.429 . S
C1295 C1296 1.523 . S
C1296 C1277 1.368 . S
C1296 C1290 1.368 . S
C1296 C1295 1.523 . S
C1297 C1281 1.429 . S
C1297 C1293 1.429 1_545 S
C1297 C1298 1.523 . S
C1298 C1282 1.368 . S
C1298 C1294 1.368 . S
C1298 C1297 1.523 . S
H1299 C1274 0.950 . S
H1300 C1276 0.950 . S
H1301 C1277 0.949 . S
H1302 C1279 0.950 . S
H1303 C1281 0.950 . S
C1304 C1305 1.349 . S
C1304 C1306 1.327 . S
C1304 H1329 0.950 . S
C1305 C1304 1.349 . S
C1305 C1321 1.349 . S
C1306 C1304 1.327 . S
C1306 C1325 1.429 . S
C1306 H1330 0.950 . S
C1307 C1324 1.574 . S
C1307 C1326 1.368 . S
C1307 H1331 0.949 . S
H1308 C1312 0.949 . S
C1309 C1310 1.349 . S
C1309 C1311 1.327 . S
C1309 H1332 0.950 . S
C1310 C1309 1.349 . S
C1310 C1322 1.349 . S
C1311 C1309 1.327 . S
C1311 C1327 1.429 . S
C1311 H1333 0.950 . S
C1312 H1308 0.949 . S
C1312 C1320 1.574 . S
C1312 C1328 1.368 . S
H1313 C1321 0.950 . S
H1314 C1319 0.950 . S
H1315 C1320 0.949 . S
H1316 C1322 0.950 . S
H1317 C1323 0.950 . S
H1318 C1324 0.949 . S
C1319 H1314 0.950 . S
C1319 C1321 1.327 . S
C1319 C1325 1.429 . S
C1320 C1312 1.574 . S
C1320 H1315 0.949 . S
C1320 C1326 1.368 . S
C1321 C1305 1.349 . S
C1321 H1313 0.950 . S
C1321 C1319 1.327 . S
C1322 C1310 1.349 . S
C1322 H1316 0.950 . S
C1322 C1323 1.327 . S
C1323 H1317 0.950 . S
C1323 C1322 1.327 . S
C1323 C1327 1.429 . S
C1324 C1307 1.574 . S
C1324 H1318 0.949 . S
C1324 C1328 1.368 . S
C1325 C1306 1.429 . S
C1325 C1319 1.429 . S
C1325 C1326 1.523 . S
C1326 C1307 1.368 . S
C1326 C1320 1.368 . S
C1326 C1325 1.523 . S
C1327 C1311 1.429 . S
C1327 C1323 1.429 . S
C1327 C1328 1.523 . S
C1328 C1312 1.368 . S
C1328 C1324 1.368 . S
C1328 C1327 1.523 . S
H1329 C1304 0.950 . S
H1330 C1306 0.950 . S
H1331 C1307 0.949 . S
H1332 C1309 0.950 . S
H1333 C1311 0.950 . S
C1334 C1335 1.349 . S
C1334 C1336 1.339 . S
C1334 H1359 0.950 . S
C1335 C1334 1.349 . S
C1335 C1351 1.349 1_565 S
C1336 C1334 1.339 . S
C1336 C1355 1.414 1_565 S
C1336 H1360 0.953 . S
C1337 C1354 1.574 . S
C1337 C1356 1.368 . S
C1337 H1361 0.949 . S
H1338 C1342 0.949 . S
C1339 C1340 1.349 . S
C1339 C1341 1.327 . S
C1339 H1362 0.950 . S
C1340 C1339 1.349 . S
C1340 C1352 1.349 . S
C1341 C1339 1.327 . S
C1341 C1357 1.429 . S
C1341 H1363 0.950 . S
C1342 H1338 0.949 . S
C1342 C1350 1.574 . S
C1342 C1358 1.368 . S
H1343 C1351 0.950 . S
H1344 C1349 0.950 . S
H1345 C1350 0.949 . S
H1346 C1352 0.950 . S
H1347 C1353 0.950 . S
H1348 C1354 0.949 . S
C1349 H1344 0.950 . S
C1349 C1351 1.327 . S
C1349 C1355 1.429 . S
C1350 C1342 1.574 . S
C1350 H1345 0.949 . S
C1350 C1356 1.368 . S
C1351 C1335 1.349 1_545 S
C1351 H1343 0.950 . S
C1351 C1349 1.327 . S
C1352 C1340 1.349 . S
C1352 H1346 0.950 . S
C1352 C1353 1.327 . S
C1353 H1347 0.950 . S
C1353 C1352 1.327 . S
C1353 C1357 1.429 . S
C1354 C1337 1.574 . S
C1354 H1348 0.949 . S
C1354 C1358 1.368 . S
C1355 C1336 1.414 1_545 S
C1355 C1349 1.429 . S
C1355 C1356 1.523 . S
C1356 C1337 1.368 . S
C1356 C1350 1.368 . S
C1356 C1355 1.523 . S
C1357 C1341 1.429 . S
C1357 C1353 1.429 . S
C1357 C1358 1.523 . S
C1358 C1342 1.368 . S
C1358 C1354 1.368 . S
C1358 C1357 1.523 . S
H1359 C1334 0.950 . S
H1360 C1336 0.953 . S
H1361 C1337 0.949 . S
H1362 C1339 0.950 . S
H1363 C1341 0.950 . S
C1364 C1365 1.349 . S
C1364 C1366 1.327 . S
C1364 H1389 0.950 . S
C1365 C1364 1.349 . S
C1365 C1381 1.349 . S
C1366 C1364 1.327 . S
C1366 C1385 1.429 . S
C1366 H1390 0.950 . S
C1367 C1384 1.574 . S
C1367 C1386 1.368 . S
C1367 H1391 0.949 . S
H1368 C1372 0.949 . S
C1369 C1370 1.349 . S
C1369 C1371 1.327 . S
C1369 H1392 0.950 . S
C1370 C1369 1.349 . S
C1370 C1382 1.349 . S
C1371 C1369 1.327 . S
C1371 C1387 1.429 . S
C1371 H1393 0.950 . S
C1372 H1368 0.949 . S
C1372 C1380 1.574 . S
C1372 C1388 1.368 . S
H1373 C1381 0.950 . S
H1374 C1379 0.950 . S
H1375 C1380 0.949 . S
H1376 C1382 0.950 . S
H1377 C1383 0.950 . S
H1378 C1384 0.949 . S
C1379 H1374 0.950 . S
C1379 C1381 1.327 . S
C1379 C1385 1.429 . S
C1380 C1372 1.574 . S
C1380 H1375 0.949 . S
C1380 C1386 1.368 . S
C1381 C1365 1.349 . S
C1381 H1373 0.950 . S
C1381 C1379 1.327 . S
C1382 C1370 1.349 . S
C1382 H1376 0.950 . S
C1382 C1383 1.327 . S
C1383 H1377 0.950 . S
C1383 C1382 1.327 . S
C1383 C1387 1.429 . S
C1384 C1367 1.574 . S
C1384 H1378 0.949 . S
C1384 C1388 1.368 . S
C1385 C1366 1.429 . S
C1385 C1379 1.429 . S
C1385 C1386 1.523 . S
C1386 C1367 1.368 . S
C1386 C1380 1.368 . S
C1386 C1385 1.523 . S
C1387 C1371 1.429 . S
C1387 C1383 1.429 . S
C1387 C1388 1.523 . S
C1388 C1372 1.368 . S
C1388 C1384 1.368 . S
C1388 C1387 1.523 . S
H1389 C1364 0.950 . S
H1390 C1366 0.950 . S
H1391 C1367 0.949 . S
H1392 C1369 0.950 . S
H1393 C1371 0.950 . S
C1394 C1395 1.349 1_565 S
C1394 C1396 1.327 . S
C1394 H1419 0.950 . S
C1395 C1394 1.349 1_545 S
C1395 C1411 1.349 . S
C1396 C1394 1.327 . S
C1396 C1415 1.429 . S
C1396 H1420 0.950 . S
C1397 C1414 1.574 . S
C1397 C1416 1.368 . S
C1397 H1421 0.949 . S
H1398 C1402 0.949 . S
C1399 C1400 1.349 . S
C1399 C1401 1.327 . S
C1399 H1422 0.950 . S
C1400 C1399 1.349 . S
C1400 C1412 1.349 . S
C1401 C1399 1.327 . S
C1401 C1417 1.429 . S
C1401 H1423 0.950 . S
C1402 H1398 0.949 . S
C1402 C1410 1.574 . S
C1402 C1418 1.368 . S
H1403 C1411 0.950 . S
H1404 C1409 0.953 . S
H1405 C1410 0.949 . S
H1406 C1412 0.950 . S
H1407 C1413 0.950 . S
H1408 C1414 0.949 . S
C1409 H1404 0.953 . S
C1409 C1411 1.339 . S
C1409 C1415 1.414 1_545 S
C1410 C1402 1.574 . S
C1410 H1405 0.949 . S
C1410 C1416 1.368 . S
C1411 C1395 1.349 . S
C1411 H1403 0.950 . S
C1411 C1409 1.339 . S
C1412 C1400 1.349 . S
C1412 H1406 0.950 . S
C1412 C1413 1.327 . S
C1413 H1407 0.950 . S
C1413 C1412 1.327 . S
C1413 C1417 1.429 . S
C1414 C1397 1.574 . S
C1414 H1408 0.949 . S
C1414 C1418 1.368 . S
C1415 C1396 1.429 . S
C1415 C1409 1.414 1_565 S
C1415 C1416 1.523 . S
C1416 C1397 1.368 . S
C1416 C1410 1.368 . S
C1416 C1415 1.523 . S
C1417 C1401 1.429 . S
C1417 C1413 1.429 . S
C1417 C1418 1.523 . S
C1418 C1402 1.368 . S
C1418 C1414 1.368 . S
C1418 C1417 1.523 . S
H1419 C1394 0.950 . S
H1420 C1396 0.950 . S
H1421 C1397 0.949 . S
H1422 C1399 0.950 . S
H1423 C1401 0.950 . S
C1424 C1425 1.349 . S
C1424 C1426 1.327 . S
C1424 H1449 0.950 . S
C1425 C1424 1.349 . S
C1425 C1441 1.349 . S
C1426 C1424 1.327 . S
C1426 C1445 1.429 . S
C1426 H1450 0.950 . S
C1427 C1444 1.574 . S
C1427 C1446 1.368 1_544 S
C1427 H1451 0.949 . S
H1428 C1432 0.949 . S
C1429 C1430 1.349 . S
C1429 C1431 1.327 . S
C1429 H1452 0.950 . S
C1430 C1429 1.349 . S
C1430 C1442 1.349 . S
C1431 C1429 1.327 . S
C1431 C1447 1.429 . S
C1431 H1453 0.950 . S
C1432 H1428 0.949 . S
C1432 C1440 1.574 . S
C1432 C1448 1.368 1_566 S
H1433 C1441 0.950 . S
H1434 C1439 0.950 1_554 S
H1435 C1440 0.949 . S
H1436 C1442 0.950 . S
H1437 C1443 0.950 1_556 S
H1438 C1444 0.949 . S
C1439 H1434 0.950 1_556 S
C1439 C1441 1.327 . S
C1439 C1445 1.429 . S
C1440 C1432 1.574 . S
C1440 H1435 0.949 . S
C1440 C1446 1.368 . S
C1441 C1425 1.349 . S
C1441 H1433 0.950 . S
C1441 C1439 1.327 . S
C1442 C1430 1.349 . S
C1442 H1436 0.950 . S
C1442 C1443 1.327 . S
C1443 H1437 0.950 1_554 S
C1443 C1442 1.327 . S
C1443 C1447 1.429 . S
C1444 C1427 1.574 . S
C1444 H1438 0.949 . S
C1444 C1448 1.368 . S
C1445 C1426 1.429 . S
C1445 C1439 1.429 . S
C1445 C1446 1.523 . S
C1446 C1427 1.368 1_566 S
C1446 C1440 1.368 . S
C1446 C1445 1.523 . S
C1447 C1431 1.429 . S
C1447 C1443 1.429 . S
C1447 C1448 1.523 . S
C1448 C1432 1.368 1_544 S
C1448 C1444 1.368 . S
C1448 C1447 1.523 . S
H1449 C1424 0.950 . S
H1450 C1426 0.950 . S
H1451 C1427 0.949 . S
H1452 C1429 0.950 . S
H1453 C1431 0.950 . S
C1454 C1455 1.349 . S
C1454 C1456 1.327 . S
C1454 H1479 0.950 . S
C1455 C1454 1.349 . S
C1455 C1471 1.349 . S
C1456 C1454 1.327 . S
C1456 C1475 1.429 . S
C1456 H1480 0.950 . S
C1457 C1474 1.574 . S
C1457 C1476 1.368 . S
C1457 H1481 0.949 . S
H1458 C1462 0.949 . S
C1459 C1460 1.349 . S
C1459 C1461 1.327 . S
C1459 H1482 0.950 . S
C1460 C1459 1.349 . S
C1460 C1472 1.349 . S
C1461 C1459 1.327 . S
C1461 C1477 1.429 . S
C1461 H1483 0.950 . S
C1462 H1458 0.949 . S
C1462 C1470 1.574 . S
C1462 C1478 1.368 . S
H1463 C1471 0.950 . S
H1464 C1469 0.950 . S
H1465 C1470 0.949 . S
H1466 C1472 0.950 . S
H1467 C1473 0.950 . S
H1468 C1474 0.949 . S
C1469 H1464 0.950 . S
C1469 C1471 1.327 . S
C1469 C1475 1.429 . S
C1470 C1462 1.574 . S
C1470 H1465 0.949 . S
C1470 C1476 1.368 . S
C1471 C1455 1.349 . S
C1471 H1463 0.950 . S
C1471 C1469 1.327 . S
C1472 C1460 1.349 . S
C1472 H1466 0.950 . S
C1472 C1473 1.327 . S
C1473 H1467 0.950 . S
C1473 C1472 1.327 . S
C1473 C1477 1.429 . S
C1474 C1457 1.574 . S
C1474 H1468 0.949 . S
C1474 C1478 1.368 . S
C1475 C1456 1.429 . S
C1475 C1469 1.429 . S
C1475 C1476 1.523 . S
C1476 C1457 1.368 . S
C1476 C1470 1.368 . S
C1476 C1475 1.523 . S
C1477 C1461 1.429 . S
C1477 C1473 1.429 . S
C1477 C1478 1.523 . S
C1478 C1462 1.368 . S
C1478 C1474 1.368 . S
C1478 C1477 1.523 . S
H1479 C1454 0.950 . S
H1480 C1456 0.950 . S
H1481 C1457 0.949 . S
H1482 C1459 0.950 . S
H1483 C1461 0.950 . S
C1484 C1485 1.349 . S
C1484 C1486 1.327 . S
C1484 H1509 0.950 . S
C1485 C1484 1.349 . S
C1485 C1501 1.349 . S
C1486 C1484 1.327 . S
C1486 C1505 1.429 . S
C1486 H1510 0.950 . S
C1487 C1504 1.574 1_645 S
C1487 C1506 1.368 . S
C1487 H1511 0.949 . S
H1488 C1492 0.949 . S
C1489 C1490 1.349 . S
C1489 C1491 1.327 . S
C1489 H1512 0.950 . S
C1490 C1489 1.349 . S
C1490 C1502 1.349 . S
C1491 C1489 1.327 . S
C1491 C1507 1.429 . S
C1491 H1513 0.950 . S
C1492 H1488 0.949 . S
C1492 C1500 1.574 1_465 S
C1492 C1508 1.368 . S
H1493 C1501 0.950 . S
H1494 C1499 0.950 . S
H1495 C1500 0.949 . S
H1496 C1502 0.950 . S
H1497 C1503 0.950 . S
H1498 C1504 0.949 . S
C1499 H1494 0.950 . S
C1499 C1501 1.327 . S
C1499 C1505 1.429 . S
C1500 C1492 1.574 1_645 S
C1500 H1495 0.949 . S
C1500 C1506 1.368 . S
C1501 C1485 1.349 . S
C1501 H1493 0.950 . S
C1501 C1499 1.327 . S
C1502 C1490 1.349 . S
C1502 H1496 0.950 . S
C1502 C1503 1.327 . S
C1503 H1497 0.950 . S
C1503 C1502 1.327 . S
C1503 C1507 1.429 . S
C1504 C1487 1.574 1_465 S
C1504 H1498 0.949 . S
C1504 C1508 1.368 . S
C1505 C1486 1.429 . S
C1505 C1499 1.429 . S
C1505 C1506 1.523 . S
C1506 C1487 1.368 . S
C1506 C1500 1.368 . S
C1506 C1505 1.523 . S
C1507 C1491 1.429 . S
C1507 C1503 1.429 . S
C1507 C1508 1.523 . S
C1508 C1492 1.368 . S
C1508 C1504 1.368 . S
C1508 C1507 1.523 . S
H1509 C1484 0.950 . S
H1510 C1486 0.950 . S
H1511 C1487 0.949 . S
H1512 C1489 0.950 . S
H1513 C1491 0.950 . S
C1514 C1515 1.349 . S
C1514 C1516 1.327 . S
C1514 H1539 0.950 . S
C1515 C1514 1.349 . S
C1515 C1531 1.349 . S
C1516 C1514 1.327 . S
C1516 C1535 1.429 . S
C1516 H1540 0.950 . S
C1517 C1534 1.574 . S
C1517 C1536 1.368 . S
C1517 H1541 0.949 . S
H1518 C1522 0.949 . S
C1519 C1520 1.349 . S
C1519 C1521 1.327 . S
C1519 H1542 0.950 . S
C1520 C1519 1.349 . S
C1520 C1532 1.349 . S
C1521 C1519 1.327 . S
C1521 C1537 1.429 . S
C1521 H1543 0.950 . S
C1522 H1518 0.949 . S
C1522 C1530 1.574 . S
C1522 C1538 1.368 . S
H1523 C1531 0.950 . S
H1524 C1529 0.950 . S
H1525 C1530 0.949 . S
H1526 C1532 0.950 . S
H1527 C1533 0.950 . S
H1528 C1534 0.949 . S
C1529 H1524 0.950 . S
C1529 C1531 1.327 . S
C1529 C1535 1.429 . S
C1530 C1522 1.574 . S
C1530 H1525 0.949 . S
C1530 C1536 1.368 . S
C1531 C1515 1.349 . S
C1531 H1523 0.950 . S
C1531 C1529 1.327 . S
C1532 C1520 1.349 . S
C1532 H1526 0.950 . S
C1532 C1533 1.327 . S
C1533 H1527 0.950 . S
C1533 C1532 1.327 . S
C1533 C1537 1.429 . S
C1534 C1517 1.574 . S
C1534 H1528 0.949 . S
C1534 C1538 1.368 . S
C1535 C1516 1.429 . S
C1535 C1529 1.429 . S
C1535 C1536 1.523 . S
C1536 C1517 1.368 . S
C1536 C1530 1.368 . S
C1536 C1535 1.523 . S
C1537 C1521 1.429 . S
C1537 C1533 1.429 . S
C1537 C1538 1.523 . S
C1538 C1522 1.368 . S
C1538 C1534 1.368 . S
C1538 C1537 1.523 . S
H1539 C1514 0.950 . S
H1540 C1516 0.950 . S
H1541 C1517 0.949 . S
H1542 C1519 0.950 . S
H1543 C1521 0.950 . S
C1544 C1545 1.349 . S
C1544 C1546 1.327 . S
C1544 H1569 0.950 . S
C1545 C1544 1.349 . S
C1545 C1561 1.349 . S
C1546 C1544 1.327 . S
C1546 C1565 1.429 . S
C1546 H1570 0.950 . S
C1547 C1564 1.574 . S
C1547 C1566 1.368 . S
C1547 H1571 0.949 . S
H1548 C1552 0.949 . S
C1549 C1550 1.349 . S
C1549 C1551 1.327 . S
C1549 H1572 0.950 . S
C1550 C1549 1.349 . S
C1550 C1562 1.349 . S
C1551 C1549 1.327 . S
C1551 C1567 1.429 . S
C1551 H1573 0.950 . S
C1552 H1548 0.949 . S
C1552 C1560 1.574 . S
C1552 C1568 1.368 . S
H1553 C1561 0.950 . S
H1554 C1559 0.950 . S
H1555 C1560 0.949 . S
H1556 C1562 0.950 . S
H1557 C1563 0.950 . S
H1558 C1564 0.949 . S
C1559 H1554 0.950 . S
C1559 C1561 1.327 . S
C1559 C1565 1.429 . S
C1560 C1552 1.574 . S
C1560 H1555 0.949 . S
C1560 C1566 1.368 . S
C1561 C1545 1.349 . S
C1561 H1553 0.950 . S
C1561 C1559 1.327 . S
C1562 C1550 1.349 . S
C1562 H1556 0.950 . S
C1562 C1563 1.327 . S
C1563 H1557 0.950 . S
C1563 C1562 1.327 . S
C1563 C1567 1.429 . S
C1564 C1547 1.574 . S
C1564 H1558 0.949 . S
C1564 C1568 1.368 . S
C1565 C1546 1.429 . S
C1565 C1559 1.429 . S
C1565 C1566 1.523 . S
C1566 C1547 1.368 . S
C1566 C1560 1.368 . S
C1566 C1565 1.523 . S
C1567 C1551 1.429 . S
C1567 C1563 1.429 . S
C1567 C1568 1.523 . S
C1568 C1552 1.368 . S
C1568 C1564 1.368 . S
C1568 C1567 1.523 . S
H1569 C1544 0.950 . S
H1570 C1546 0.950 . S
H1571 C1547 0.949 . S
H1572 C1549 0.950 . S
H1573 C1551 0.950 . S
C1574 C1575 1.349 . S
C1574 C1576 1.327 . S
C1574 H1599 0.950 . S
C1575 C1574 1.349 . S
C1575 C1591 1.349 . S
C1576 C1574 1.327 . S
C1576 C1595 1.429 . S
C1576 H1600 0.950 . S
C1577 C1594 1.574 . S
C1577 C1596 1.368 . S
C1577 H1601 0.949 . S
H1578 C1582 0.949 . S
C1579 C1580 1.349 . S
C1579 C1581 1.327 . S
C1579 H1602 0.950 . S
C1580 C1579 1.349 . S
C1580 C1592 1.349 . S
C1581 C1579 1.327 . S
C1581 C1597 1.429 . S
C1581 H1603 0.950 . S
C1582 H1578 0.949 . S
C1582 C1590 1.574 . S
C1582 C1598 1.368 . S
H1583 C1591 0.950 . S
H1584 C1589 0.950 . S
H1585 C1590 0.949 . S
H1586 C1592 0.950 . S
H1587 C1593 0.950 . S
H1588 C1594 0.949 . S
C1589 H1584 0.950 . S
C1589 C1591 1.327 . S
C1589 C1595 1.429 . S
C1590 C1582 1.574 . S
C1590 H1585 0.949 . S
C1590 C1596 1.368 . S
C1591 C1575 1.349 . S
C1591 H1583 0.950 . S
C1591 C1589 1.327 . S
C1592 C1580 1.349 . S
C1592 H1586 0.950 . S
C1592 C1593 1.327 . S
C1593 H1587 0.950 . S
C1593 C1592 1.327 . S
C1593 C1597 1.429 . S
C1594 C1577 1.574 . S
C1594 H1588 0.949 . S
C1594 C1598 1.368 . S
C1595 C1576 1.429 . S
C1595 C1589 1.429 . S
C1595 C1596 1.523 . S
C1596 C1577 1.368 . S
C1596 C1590 1.368 . S
C1596 C1595 1.523 . S
C1597 C1581 1.429 . S
C1597 C1593 1.429 . S
C1597 C1598 1.523 . S
C1598 C1582 1.368 . S
C1598 C1594 1.368 . S
C1598 C1597 1.523 . S
H1599 C1574 0.950 . S
H1600 C1576 0.950 . S
H1601 C1577 0.949 . S
H1602 C1579 0.950 . S
H1603 C1581 0.950 . S
C1604 C1605 1.349 . S
C1604 C1606 1.327 . S
C1604 H1629 0.950 . S
C1605 C1604 1.349 . S
C1605 C1621 1.349 . S
C1606 C1604 1.327 . S
C1606 C1625 1.429 . S
C1606 H1630 0.950 . S
C1607 C1624 1.574 1_655 S
C1607 C1626 1.368 . S
C1607 H1631 0.949 . S
H1608 C1612 0.949 . S
C1609 C1610 1.349 . S
C1609 C1611 1.327 . S
C1609 H1632 0.950 . S
C1610 C1609 1.349 . S
C1610 C1622 1.349 . S
C1611 C1609 1.327 . S
C1611 C1627 1.429 . S
C1611 H1633 0.950 . S
C1612 H1608 0.949 . S
C1612 C1620 1.574 1_455 S
C1612 C1628 1.368 . S
H1613 C1621 0.950 . S
H1614 C1619 0.950 . S
H1615 C1620 0.949 . S
H1616 C1622 0.950 . S
H1617 C1623 0.950 . S
H1618 C1624 0.949 . S
C1619 H1614 0.950 . S
C1619 C1621 1.327 . S
C1619 C1625 1.429 . S
C1620 C1612 1.574 1_655 S
C1620 H1615 0.949 . S
C1620 C1626 1.368 . S
C1621 C1605 1.349 . S
C1621 H1613 0.950 . S
C1621 C1619 1.327 . S
C1622 C1610 1.349 . S
C1622 H1616 0.950 . S
C1622 C1623 1.327 . S
C1623 H1617 0.950 . S
C1623 C1622 1.327 . S
C1623 C1627 1.429 . S
C1624 C1607 1.574 1_455 S
C1624 H1618 0.949 . S
C1624 C1628 1.368 . S
C1625 C1606 1.429 . S
C1625 C1619 1.429 . S
C1625 C1626 1.523 . S
C1626 C1607 1.368 . S
C1626 C1620 1.368 . S
C1626 C1625 1.523 . S
C1627 C1611 1.429 . S
C1627 C1623 1.429 . S
C1627 C1628 1.523 . S
C1628 C1612 1.368 . S
C1628 C1624 1.368 . S
C1628 C1627 1.523 . S
H1629 C1604 0.950 . S
H1630 C1606 0.950 . S
H1631 C1607 0.949 . S
H1632 C1609 0.950 . S
H1633 C1611 0.950 . S
C1634 C1635 1.349 . S
C1634 C1636 1.327 . S
C1634 H1659 0.951 1_554 S
C1635 C1634 1.349 . S
C1635 C1651 1.349 . S
C1636 C1634 1.327 . S
C1636 C1655 1.429 . S
C1636 H1660 0.950 1_554 S
C1637 C1654 1.574 . S
C1637 C1656 1.368 . S
C1637 H1661 0.949 . S
H1638 C1642 0.949 . S
C1639 C1640 1.349 . S
C1639 C1641 1.327 . S
C1639 H1662 0.951 1_556 S
C1640 C1639 1.349 . S
C1640 C1652 1.349 . S
C1641 C1639 1.327 . S
C1641 C1657 1.429 . S
C1641 H1663 0.950 1_556 S
C1642 H1638 0.949 . S
C1642 C1650 1.574 . S
C1642 C1658 1.368 . S
H1643 C1651 0.950 . S
H1644 C1649 0.950 . S
H1645 C1650 0.949 . S
H1646 C1652 0.950 . S
H1647 C1653 0.950 . S
H1648 C1654 0.949 . S
C1649 H1644 0.950 . S
C1649 C1651 1.327 . S
C1649 C1655 1.429 . S
C1650 C1642 1.574 . S
C1650 H1645 0.949 . S
C1650 C1656 1.368 1_556 S
C1651 C1635 1.349 . S
C1651 H1643 0.950 . S
C1651 C1649 1.327 . S
C1652 C1640 1.349 . S
C1652 H1646 0.950 . S
C1652 C1653 1.327 . S
C1653 H1647 0.950 . S
C1653 C1652 1.327 . S
C1653 C1657 1.429 . S
C1654 C1637 1.574 . S
C1654 H1648 0.949 . S
C1654 C1658 1.368 1_554 S
C1655 C1636 1.429 . S
C1655 C1649 1.429 . S
C1655 C1656 1.523 . S
C1656 C1637 1.368 . S
C1656 C1650 1.368 1_554 S
C1656 C1655 1.523 . S
C1657 C1641 1.429 . S
C1657 C1653 1.429 . S
C1657 C1658 1.523 . S
C1658 C1642 1.368 . S
C1658 C1654 1.368 1_556 S
C1658 C1657 1.523 . S
H1659 C1634 0.951 1_556 S
H1660 C1636 0.950 1_556 S
H1661 C1637 0.949 . S
H1662 C1639 0.951 1_554 S
H1663 C1641 0.950 1_554 S
C1664 C1665 1.349 . S
C1664 C1666 1.327 . S
C1664 H1689 0.950 . S
C1665 C1664 1.349 . S
C1665 C1681 1.349 . S
C1666 C1664 1.327 . S
C1666 C1685 1.429 . S
C1666 H1690 0.950 . S
C1667 C1684 1.574 . S
C1667 C1686 1.368 . S
C1667 H1691 0.949 . S
H1668 C1672 0.949 . S
C1669 C1670 1.349 . S
C1669 C1671 1.327 . S
C1669 H1692 0.950 . S
C1670 C1669 1.349 . S
C1670 C1682 1.349 . S
C1671 C1669 1.327 . S
C1671 C1687 1.429 . S
C1671 H1693 0.950 1_554 S
C1672 H1668 0.949 . S
C1672 C1680 1.574 . S
C1672 C1688 1.368 . S
H1673 C1681 0.950 . S
H1674 C1679 0.950 . S
H1675 C1680 0.949 . S
H1676 C1682 0.950 . S
H1677 C1683 0.950 . S
H1678 C1684 0.949 . S
C1679 H1674 0.950 . S
C1679 C1681 1.327 . S
C1679 C1685 1.429 . S
C1680 C1672 1.574 . S
C1680 H1675 0.949 . S
C1680 C1686 1.368 1_554 S
C1681 C1665 1.349 . S
C1681 H1673 0.950 . S
C1681 C1679 1.327 . S
C1682 C1670 1.349 . S
C1682 H1676 0.950 . S
C1682 C1683 1.327 . S
C1683 H1677 0.950 . S
C1683 C1682 1.327 . S
C1683 C1687 1.429 . S
C1684 C1667 1.574 . S
C1684 H1678 0.949 . S
C1684 C1688 1.368 1_556 S
C1685 C1666 1.429 . S
C1685 C1679 1.429 . S
C1685 C1686 1.523 . S
C1686 C1667 1.368 . S
C1686 C1680 1.368 1_556 S
C1686 C1685 1.523 . S
C1687 C1671 1.429 . S
C1687 C1683 1.429 . S
C1687 C1688 1.523 . S
C1688 C1672 1.368 . S
C1688 C1684 1.368 1_554 S
C1688 C1687 1.523 . S
H1689 C1664 0.950 . S
H1690 C1666 0.950 . S
H1691 C1667 0.949 . S
H1692 C1669 0.950 . S
H1693 C1671 0.950 1_556 S
C1694 C1695 1.351 . S
C1694 C1696 1.327 . S
C1694 H1719 0.950 1_655 S
C1695 C1694 1.351 . S
C1695 C1711 1.357 . S
C1696 C1694 1.327 . S
C1696 C1715 1.429 . S
C1696 H1720 0.950 . S
C1697 C1714 1.574 . S
C1697 C1716 1.368 . S
C1697 H1721 0.949 . S
H1698 C1702 0.949 . S
C1699 C1700 1.349 . S
C1699 C1701 1.327 . S
C1699 H1722 0.950 . S
C1700 C1699 1.349 . S
C1700 C1712 1.349 . S
C1701 C1699 1.327 . S
C1701 C1717 1.429 . S
C1701 H1723 0.950 . S
C1702 H1698 0.949 . S
C1702 C1710 1.574 . S
C1702 C1718 1.368 . S
H1703 C1711 0.950 . S
H1704 C1709 0.950 . S
H1705 C1710 0.949 . S
H1706 C1712 0.950 . S
H1707 C1713 0.950 . S
H1708 C1714 0.949 . S
C1709 H1704 0.950 . S
C1709 C1711 1.327 . S
C1709 C1715 1.429 . S
C1710 C1702 1.574 . S
C1710 H1705 0.949 . S
C1710 C1716 1.368 . S
C1711 C1695 1.357 . S
C1711 H1703 0.950 . S
C1711 C1709 1.327 . S
C1712 C1700 1.349 . S
C1712 H1706 0.950 . S
C1712 C1713 1.327 . S
C1713 H1707 0.950 . S
C1713 C1712 1.327 . S
C1713 C1717 1.429 . S
C1714 C1697 1.574 . S
C1714 H1708 0.949 . S
C1714 C1718 1.368 . S
C1715 C1696 1.429 . S
C1715 C1709 1.429 . S
C1715 C1716 1.523 . S
C1716 C1697 1.368 . S
C1716 C1710 1.368 . S
C1716 C1715 1.523 . S
C1717 C1701 1.429 . S
C1717 C1713 1.429 . S
C1717 C1718 1.523 . S
C1718 C1702 1.368 . S
C1718 C1714 1.368 . S
C1718 C1717 1.523 . S
H1719 C1694 0.950 1_455 S
H1720 C1696 0.950 . S
H1721 C1697 0.949 . S
H1722 C1699 0.950 . S
H1723 C1701 0.950 . S
C1724 C1725 1.349 . S
C1724 C1726 1.327 . S
C1724 H1749 0.950 . S
C1725 C1724 1.349 . S
C1725 C1741 1.349 . S
C1726 C1724 1.327 . S
C1726 C1745 1.429 . S
C1726 H1750 0.950 . S
C1727 C1744 1.574 . S
C1727 C1746 1.368 . S
C1727 H1751 0.949 . S
H1728 C1732 0.949 . S
C1729 C1730 1.349 . S
C1729 C1731 1.327 . S
C1729 H1752 0.950 . S
C1730 C1729 1.349 . S
C1730 C1742 1.349 . S
C1731 C1729 1.327 . S
C1731 C1747 1.429 . S
C1731 H1753 0.950 . S
C1732 H1728 0.949 . S
C1732 C1740 1.574 . S
C1732 C1748 1.368 . S
H1733 C1741 0.950 . S
H1734 C1739 0.950 . S
H1735 C1740 0.949 . S
H1736 C1742 0.950 . S
H1737 C1743 0.950 . S
H1738 C1744 0.949 . S
C1739 H1734 0.950 . S
C1739 C1741 1.327 . S
C1739 C1745 1.429 . S
C1740 C1732 1.574 . S
C1740 H1735 0.949 . S
C1740 C1746 1.368 . S
C1741 C1725 1.349 . S
C1741 H1733 0.950 . S
C1741 C1739 1.327 . S
C1742 C1730 1.349 . S
C1742 H1736 0.950 . S
C1742 C1743 1.327 . S
C1743 H1737 0.950 . S
C1743 C1742 1.327 . S
C1743 C1747 1.429 . S
C1744 C1727 1.574 . S
C1744 H1738 0.949 . S
C1744 C1748 1.368 . S
C1745 C1726 1.429 . S
C1745 C1739 1.429 . S
C1745 C1746 1.523 . S
C1746 C1727 1.368 . S
C1746 C1740 1.368 . S
C1746 C1745 1.523 . S
C1747 C1731 1.429 . S
C1747 C1743 1.429 . S
C1747 C1748 1.523 . S
C1748 C1732 1.368 . S
C1748 C1744 1.368 . S
C1748 C1747 1.523 . S
H1749 C1724 0.950 . S
H1750 C1726 0.950 . S
H1751 C1727 0.949 . S
H1752 C1729 0.950 . S
H1753 C1731 0.950 . S
C1754 C1755 1.349 . S
C1754 C1756 1.327 . S
C1754 H1779 0.950 . S
C1755 C1754 1.349 . S
C1755 C1771 1.349 . S
C1756 C1754 1.327 . S
C1756 C1775 1.429 . S
C1756 H1780 0.950 . S
C1757 C1774 1.574 . S
C1757 C1776 1.368 . S
C1757 H1781 0.949 . S
H1758 C1762 0.949 . S
C1759 C1760 1.349 . S
C1759 C1761 1.327 . S
C1759 H1782 0.950 . S
C1760 C1759 1.349 . S
C1760 C1772 1.349 . S
C1761 C1759 1.327 . S
C1761 C1777 1.429 . S
C1761 H1783 0.950 . S
C1762 H1758 0.949 . S
C1762 C1770 1.574 . S
C1762 C1778 1.368 . S
H1763 C1771 0.950 . S
H1764 C1769 0.950 . S
H1765 C1770 0.949 . S
H1766 C1772 0.950 . S
H1767 C1773 0.950 . S
H1768 C1774 0.949 . S
C1769 H1764 0.950 . S
C1769 C1771 1.327 . S
C1769 C1775 1.429 . S
C1770 C1762 1.574 . S
C1770 H1765 0.949 . S
C1770 C1776 1.368 . S
C1771 C1755 1.349 . S
C1771 H1763 0.950 . S
C1771 C1769 1.327 . S
C1772 C1760 1.349 . S
C1772 H1766 0.950 . S
C1772 C1773 1.327 . S
C1773 H1767 0.950 . S
C1773 C1772 1.327 . S
C1773 C1777 1.429 . S
C1774 C1757 1.574 . S
C1774 H1768 0.949 . S
C1774 C1778 1.368 . S
C1775 C1756 1.429 . S
C1775 C1769 1.429 . S
C1775 C1776 1.523 . S
C1776 C1757 1.368 . S
C1776 C1770 1.368 . S
C1776 C1775 1.523 . S
C1777 C1761 1.429 . S
C1777 C1773 1.429 . S
C1777 C1778 1.523 . S
C1778 C1762 1.368 . S
C1778 C1774 1.368 . S
C1778 C1777 1.523 . S
H1779 C1754 0.950 . S
H1780 C1756 0.950 . S
H1781 C1757 0.949 . S
H1782 C1759 0.950 . S
H1783 C1761 0.950 . S
C1784 C1785 1.349 . S
C1784 C1786 1.327 . S
C1784 H1809 0.950 . S
C1785 C1784 1.349 . S
C1785 C1801 1.349 . S
C1786 C1784 1.327 . S
C1786 C1805 1.429 . S
C1786 H1810 0.944 1_556 S
C1787 C1804 1.574 . S
C1787 C1806 1.368 . S
C1787 H1811 0.949 . S
H1788 C1792 0.949 . S
C1789 C1790 1.349 . S
C1789 C1791 1.327 . S
C1789 H1812 0.950 . S
C1790 C1789 1.349 . S
C1790 C1802 1.349 . S
C1791 C1789 1.327 . S
C1791 C1807 1.429 . S
C1791 H1813 0.950 . S
C1792 H1788 0.949 . S
C1792 C1800 1.574 . S
C1792 C1808 1.368 . S
H1793 C1801 0.950 . S
H1794 C1799 0.950 . S
H1795 C1800 0.949 . S
H1796 C1802 0.950 . S
H1797 C1803 0.950 . S
H1798 C1804 0.949 . S
C1799 H1794 0.950 . S
C1799 C1801 1.327 . S
C1799 C1805 1.429 . S
C1800 C1792 1.574 . S
C1800 H1795 0.949 . S
C1800 C1806 1.368 1_554 S
C1801 C1785 1.349 . S
C1801 H1793 0.950 . S
C1801 C1799 1.327 . S
C1802 C1790 1.349 . S
C1802 H1796 0.950 . S
C1802 C1803 1.327 . S
C1803 H1797 0.950 . S
C1803 C1802 1.327 . S
C1803 C1807 1.429 . S
C1804 C1787 1.574 . S
C1804 H1798 0.949 . S
C1804 C1808 1.368 1_556 S
C1805 C1786 1.429 . S
C1805 C1799 1.429 . S
C1805 C1806 1.523 . S
C1806 C1787 1.368 . S
C1806 C1800 1.368 1_556 S
C1806 C1805 1.523 . S
C1807 C1791 1.429 . S
C1807 C1803 1.429 . S
C1807 C1808 1.523 . S
C1808 C1792 1.368 . S
C1808 C1804 1.368 1_554 S
C1808 C1807 1.523 . S
H1809 C1784 0.950 . S
H1810 C1786 0.944 1_554 S
H1811 C1787 0.949 . S
H1812 C1789 0.950 . S
H1813 C1791 0.950 . S
C1814 C1815 1.349 . S
C1814 C1816 1.327 . S
C1814 H1839 0.950 . S
C1815 C1814 1.349 . S
C1815 C1831 1.349 . S
C1816 C1814 1.327 . S
C1816 C1835 1.429 . S
C1816 H1840 0.950 . S
C1817 C1834 1.574 . S
C1817 C1836 1.368 . S
C1817 H1841 0.949 . S
H1818 C1822 0.949 . S
C1819 C1820 1.351 . S
C1819 C1821 1.327 . S
C1819 H1842 0.950 1_455 S
C1820 C1819 1.351 . S
C1820 C1832 1.357 . S
C1821 C1819 1.327 . S
C1821 C1837 1.429 . S
C1821 H1843 0.950 . S
C1822 H1818 0.949 . S
C1822 C1830 1.574 . S
C1822 C1838 1.368 . S
H1823 C1831 0.950 . S
H1824 C1829 0.950 . S
H1825 C1830 0.949 . S
H1826 C1832 0.950 . S
H1827 C1833 0.950 . S
H1828 C1834 0.949 . S
C1829 H1824 0.950 . S
C1829 C1831 1.327 . S
C1829 C1835 1.429 . S
C1830 C1822 1.574 . S
C1830 H1825 0.949 . S
C1830 C1836 1.368 . S
C1831 C1815 1.349 . S
C1831 H1823 0.950 . S
C1831 C1829 1.327 . S
C1832 C1820 1.357 . S
C1832 H1826 0.950 . S
C1832 C1833 1.327 . S
C1833 H1827 0.950 . S
C1833 C1832 1.327 . S
C1833 C1837 1.429 . S
C1834 C1817 1.574 . S
C1834 H1828 0.949 . S
C1834 C1838 1.368 . S
C1835 C1816 1.429 . S
C1835 C1829 1.429 . S
C1835 C1836 1.523 . S
C1836 C1817 1.368 . S
C1836 C1830 1.368 . S
C1836 C1835 1.523 . S
C1837 C1821 1.429 . S
C1837 C1833 1.429 . S
C1837 C1838 1.523 . S
C1838 C1822 1.368 . S
C1838 C1834 1.368 . S
C1838 C1837 1.523 . S
H1839 C1814 0.950 . S
H1840 C1816 0.950 . S
H1841 C1817 0.949 . S
H1842 C1819 0.950 1_655 S
H1843 C1821 0.950 . S
C1844 C1845 1.349 . S
C1844 C1846 1.327 . S
C1844 H1869 0.950 . S
C1845 C1844 1.349 . S
C1845 C1861 1.349 . S
C1846 C1844 1.327 . S
C1846 C1865 1.429 . S
C1846 H1870 0.950 . S
C1847 C1864 1.574 . S
C1847 C1866 1.368 . S
C1847 H1871 0.949 . S
H1848 C1852 0.949 . S
C1849 C1850 1.349 . S
C1849 C1851 1.327 . S
C1849 H1872 0.950 . S
C1850 C1849 1.349 . S
C1850 C1862 1.349 . S
C1851 C1849 1.327 . S
C1851 C1867 1.429 . S
C1851 H1873 0.950 . S
C1852 H1848 0.949 . S
C1852 C1860 1.574 . S
C1852 C1868 1.368 . S
H1853 C1861 0.950 . S
H1854 C1859 0.950 . S
H1855 C1860 0.949 . S
H1856 C1862 0.950 . S
H1857 C1863 0.950 . S
H1858 C1864 0.949 . S
C1859 H1854 0.950 . S
C1859 C1861 1.327 . S
C1859 C1865 1.429 . S
C1860 C1852 1.574 . S
C1860 H1855 0.949 . S
C1860 C1866 1.368 . S
C1861 C1845 1.349 . S
C1861 H1853 0.950 . S
C1861 C1859 1.327 . S
C1862 C1850 1.349 . S
C1862 H1856 0.950 . S
C1862 C1863 1.327 . S
C1863 H1857 0.950 . S
C1863 C1862 1.327 . S
C1863 C1867 1.429 . S
C1864 C1847 1.574 . S
C1864 H1858 0.949 . S
C1864 C1868 1.368 . S
C1865 C1846 1.429 . S
C1865 C1859 1.429 . S
C1865 C1866 1.523 . S
C1866 C1847 1.368 . S
C1866 C1860 1.368 . S
C1866 C1865 1.523 . S
C1867 C1851 1.429 . S
C1867 C1863 1.429 . S
C1867 C1868 1.523 . S
C1868 C1852 1.368 . S
C1868 C1864 1.368 . S
C1868 C1867 1.523 . S
H1869 C1844 0.950 . S
H1870 C1846 0.950 . S
H1871 C1847 0.949 . S
H1872 C1849 0.950 . S
H1873 C1851 0.950 . S
C1874 C1875 1.349 . S
C1874 C1876 1.327 . S
C1874 H1899 0.950 . S
C1875 C1874 1.349 . S
C1875 C1891 1.349 . S
C1876 C1874 1.327 . S
C1876 C1895 1.429 . S
C1876 H1900 0.950 . S
C1877 C1894 1.574 . S
C1877 C1896 1.368 . S
C1877 H1901 0.949 . S
H1878 C1882 0.949 . S
C1879 C1880 1.349 . S
C1879 C1881 1.327 . S
C1879 H1902 0.950 . S
C1880 C1879 1.349 . S
C1880 C1892 1.349 . S
C1881 C1879 1.327 . S
C1881 C1897 1.429 . S
C1881 H1903 0.950 . S
C1882 H1878 0.949 . S
C1882 C1890 1.574 . S
C1882 C1898 1.368 . S
H1883 C1891 0.950 . S
H1884 C1889 0.950 . S
H1885 C1890 0.949 . S
H1886 C1892 0.950 . S
H1887 C1893 0.950 . S
H1888 C1894 0.949 . S
C1889 H1884 0.950 . S
C1889 C1891 1.327 . S
C1889 C1895 1.429 . S
C1890 C1882 1.574 . S
C1890 H1885 0.949 . S
C1890 C1896 1.368 . S
C1891 C1875 1.349 . S
C1891 H1883 0.950 . S
C1891 C1889 1.327 . S
C1892 C1880 1.349 . S
C1892 H1886 0.950 . S
C1892 C1893 1.327 . S
C1893 H1887 0.950 . S
C1893 C1892 1.327 . S
C1893 C1897 1.429 . S
C1894 C1877 1.574 . S
C1894 H1888 0.949 . S
C1894 C1898 1.368 . S
C1895 C1876 1.429 . S
C1895 C1889 1.429 . S
C1895 C1896 1.523 . S
C1896 C1877 1.368 . S
C1896 C1890 1.368 . S
C1896 C1895 1.523 . S
C1897 C1881 1.429 . S
C1897 C1893 1.429 . S
C1897 C1898 1.523 . S
C1898 C1882 1.368 . S
C1898 C1894 1.368 . S
C1898 C1897 1.523 . S
H1899 C1874 0.950 . S
H1900 C1876 0.950 . S
H1901 C1877 0.949 . S
H1902 C1879 0.950 . S
H1903 C1881 0.950 . S
C1904 C1905 1.349 . S
C1904 C1906 1.327 . S
C1904 H1929 0.950 . S
C1905 C1904 1.349 . S
C1905 C1921 1.349 . S
C1906 C1904 1.327 . S
C1906 C1925 1.429 . S
C1906 H1930 0.950 . S
C1907 C1924 1.574 . S
C1907 C1926 1.368 . S
C1907 H1931 0.949 . S
H1908 C1912 0.949 . S
C1909 C1910 1.349 . S
C1909 C1911 1.327 . S
C1909 H1932 0.950 . S
C1910 C1909 1.349 . S
C1910 C1922 1.349 . S
C1911 C1909 1.327 . S
C1911 C1927 1.429 . S
C1911 H1933 0.950 . S
C1912 H1908 0.949 . S
C1912 C1920 1.574 . S
C1912 C1928 1.368 . S
H1913 C1921 0.950 . S
H1914 C1919 0.950 . S
H1915 C1920 0.949 . S
H1916 C1922 0.950 . S
H1917 C1923 0.950 . S
H1918 C1924 0.949 . S
C1919 H1914 0.950 . S
C1919 C1921 1.327 . S
C1919 C1925 1.429 . S
C1920 C1912 1.574 . S
C1920 H1915 0.949 . S
C1920 C1926 1.368 . S
C1921 C1905 1.349 . S
C1921 H1913 0.950 . S
C1921 C1919 1.327 . S
C1922 C1910 1.349 . S
C1922 H1916 0.950 . S
C1922 C1923 1.327 . S
C1923 H1917 0.950 . S
C1923 C1922 1.327 . S
C1923 C1927 1.429 . S
C1924 C1907 1.574 . S
C1924 H1918 0.949 . S
C1924 C1928 1.368 . S
C1925 C1906 1.429 . S
C1925 C1919 1.429 . S
C1925 C1926 1.523 . S
C1926 C1907 1.368 . S
C1926 C1920 1.368 . S
C1926 C1925 1.523 . S
C1927 C1911 1.429 . S
C1927 C1923 1.429 . S
C1927 C1928 1.523 . S
C1928 C1912 1.368 . S
C1928 C1924 1.368 . S
C1928 C1927 1.523 . S
H1929 C1904 0.950 . S
H1930 C1906 0.950 . S
H1931 C1907 0.949 . S
H1932 C1909 0.950 . S
H1933 C1911 0.950 . S
C1934 C1935 1.349 . S
C1934 C1936 1.327 . S
C1934 H1959 0.950 . S
C1935 C1934 1.349 . S
C1935 C1951 1.349 . S
C1936 C1934 1.327 . S
C1936 C1955 1.429 . S
C1936 H1960 0.950 . S
C1937 C1954 1.574 . S
C1937 C1956 1.368 . S
C1937 H1961 0.949 1_545 S
H1938 C1942 0.949 . S
C1939 C1940 1.349 . S
C1939 C1941 1.327 . S
C1939 H1962 0.950 . S
C1940 C1939 1.349 . S
C1940 C1952 1.349 . S
C1941 C1939 1.327 . S
C1941 C1957 1.429 . S
C1941 H1963 0.950 1_545 S
C1942 H1938 0.949 . S
C1942 C1950 1.574 . S
C1942 C1958 1.368 . S
H1943 C1951 0.950 1_565 S
H1944 C1949 0.950 1_565 S
H1945 C1950 0.949 . S
H1946 C1952 0.950 . S
H1947 C1953 0.950 . S
H1948 C1954 0.949 1_565 S
C1949 H1944 0.950 1_545 S
C1949 C1951 1.327 . S
C1949 C1955 1.429 . S
C1950 C1942 1.574 . S
C1950 H1945 0.949 . S
C1950 C1956 1.368 . S
C1951 C1935 1.349 . S
C1951 H1943 0.950 1_545 S
C1951 C1949 1.327 . S
C1952 C1940 1.349 . S
C1952 H1946 0.950 . S
C1952 C1953 1.327 . S
C1953 H1947 0.950 . S
C1953 C1952 1.327 . S
C1953 C1957 1.429 . S
C1954 C1937 1.574 . S
C1954 H1948 0.949 1_545 S
C1954 C1958 1.368 . S
C1955 C1936 1.429 . S
C1955 C1949 1.429 . S
C1955 C1956 1.523 . S
C1956 C1937 1.368 . S
C1956 C1950 1.368 . S
C1956 C1955 1.523 . S
C1957 C1941 1.429 . S
C1957 C1953 1.429 . S
C1957 C1958 1.523 . S
C1958 C1942 1.368 . S
C1958 C1954 1.368 . S
C1958 C1957 1.523 . S
H1959 C1934 0.950 . S
H1960 C1936 0.950 . S
H1961 C1937 0.949 1_565 S
H1962 C1939 0.950 . S
H1963 C1941 0.950 1_565 S
C1964 C1965 1.349 . S
C1964 C1966 1.327 . S
C1964 H1989 0.950 . S
C1965 C1964 1.349 . S
C1965 C1981 1.349 . S
C1966 C1964 1.327 . S
C1966 C1985 1.429 . S
C1966 H1990 0.950 . S
C1967 C1984 1.574 . S
C1967 C1986 1.368 1_556 S
C1967 H1991 0.949 . S
H1968 C1972 0.949 . S
C1969 C1970 1.349 . S
C1969 C1971 1.327 . S
C1969 H1992 0.950 . S
C1970 C1969 1.349 . S
C1970 C1982 1.349 . S
C1971 C1969 1.327 . S
C1971 C1987 1.429 . S
C1971 H1993 0.950 . S
C1972 H1968 0.949 . S
C1972 C1980 1.574 . S
C1972 C1988 1.368 1_554 S
H1973 C1981 0.950 . S
H1974 C1979 0.950 1_556 S
H1975 C1980 0.949 . S
H1976 C1982 0.950 . S
H1977 C1983 0.950 . S
H1978 C1984 0.949 . S
C1979 H1974 0.950 1_554 S
C1979 C1981 1.327 . S
C1979 C1985 1.429 . S
C1980 C1972 1.574 . S
C1980 H1975 0.949 . S
C1980 C1986 1.368 . S
C1981 C1965 1.349 . S
C1981 H1973 0.950 . S
C1981 C1979 1.327 . S
C1982 C1970 1.349 . S
C1982 H1976 0.950 . S
C1982 C1983 1.327 . S
C1983 H1977 0.950 . S
C1983 C1982 1.327 . S
C1983 C1987 1.429 . S
C1984 C1967 1.574 . S
C1984 H1978 0.949 . S
C1984 C1988 1.368 . S
C1985 C1966 1.429 . S
C1985 C1979 1.429 . S
C1985 C1986 1.523 . S
C1986 C1967 1.368 1_554 S
C1986 C1980 1.368 . S
C1986 C1985 1.523 . S
C1987 C1971 1.429 . S
C1987 C1983 1.429 . S
C1987 C1988 1.523 . S
C1988 C1972 1.368 1_556 S
C1988 C1984 1.368 . S
C1988 C1987 1.523 . S
H1989 C1964 0.950 . S
H1990 C1966 0.950 . S
H1991 C1967 0.949 . S
H1992 C1969 0.950 . S
H1993 C1971 0.950 . S
C1994 C1995 1.349 . S
C1994 C1996 1.327 . S
C1994 H2019 0.950 . S
C1995 C1994 1.349 . S
C1995 C2011 1.349 . S
C1996 C1994 1.327 . S
C1996 C2015 1.429 . S
C1996 H2020 0.950 . S
C1997 C2014 1.574 . S
C1997 C2016 1.368 . S
C1997 H2021 0.949 . S
H1998 C2002 0.949 1_545 S
C1999 C2000 1.350 . S
C1999 C2001 1.327 . S
C1999 H2022 0.950 1_455 S
C2000 C1999 1.350 . S
C2000 C2012 1.358 . S
C2001 C1999 1.327 . S
C2001 C2017 1.429 . S
C2001 H2023 0.950 . S
C2002 H1998 0.949 1_565 S
C2002 C2010 1.574 . S
C2002 C2018 1.368 . S
H2003 C2011 0.950 . S
H2004 C2009 0.950 . S
H2005 C2010 0.955 . S
H2006 C2012 0.950 1_545 S
H2007 C2013 0.950 1_545 S
H2008 C2014 0.949 . S
C2009 H2004 0.950 . S
C2009 C2011 1.327 . S
C2009 C2015 1.429 . S
C2010 C2002 1.574 . S
C2010 H2005 0.955 . S
C2010 C2016 1.368 . S
C2011 C1995 1.349 . S
C2011 H2003 0.950 . S
C2011 C2009 1.327 . S
C2012 C2000 1.358 . S
C2012 H2006 0.950 1_565 S
C2012 C2013 1.327 . S
C2013 H2007 0.950 1_565 S
C2013 C2012 1.327 . S
C2013 C2017 1.429 . S
C2014 C1997 1.574 . S
C2014 H2008 0.949 . S
C2014 C2018 1.368 . S
C2015 C1996 1.429 . S
C2015 C2009 1.429 . S
C2015 C2016 1.523 . S
C2016 C1997 1.368 . S
C2016 C2010 1.368 . S
C2016 C2015 1.523 . S
C2017 C2001 1.429 . S
C2017 C2013 1.429 . S
C2017 C2018 1.523 . S
C2018 C2002 1.368 . S
C2018 C2014 1.368 . S
C2018 C2017 1.523 . S
H2019 C1994 0.950 . S
H2020 C1996 0.950 . S
H2021 C1997 0.949 . S
H2022 C1999 0.950 1_655 S
H2023 C2001 0.950 . S
C2024 C2025 1.349 . S
C2024 C2026 1.327 . S
C2024 H2049 0.950 . S
C2025 C2024 1.349 . S
C2025 C2041 1.349 . S
C2026 C2024 1.327 . S
C2026 C2045 1.429 . S
C2026 H2050 0.950 . S
C2027 C2044 1.574 . S
C2027 C2046 1.368 . S
C2027 H2051 0.949 . S
H2028 C2032 0.949 . S
C2029 C2030 1.349 . S
C2029 C2031 1.327 . S
C2029 H2052 0.950 . S
C2030 C2029 1.349 . S
C2030 C2042 1.349 . S
C2031 C2029 1.327 . S
C2031 C2047 1.429 . S
C2031 H2053 0.950 . S
C2032 H2028 0.949 . S
C2032 C2040 1.574 . S
C2032 C2048 1.368 . S
H2033 C2041 0.950 . S
H2034 C2039 0.950 . S
H2035 C2040 0.949 . S
H2036 C2042 0.950 . S
H2037 C2043 0.950 . S
H2038 C2044 0.949 . S
C2039 H2034 0.950 . S
C2039 C2041 1.327 . S
C2039 C2045 1.429 . S
C2040 C2032 1.574 . S
C2040 H2035 0.949 . S
C2040 C2046 1.368 . S
C2041 C2025 1.349 . S
C2041 H2033 0.950 . S
C2041 C2039 1.327 . S
C2042 C2030 1.349 . S
C2042 H2036 0.950 . S
C2042 C2043 1.327 . S
C2043 H2037 0.950 . S
C2043 C2042 1.327 . S
C2043 C2047 1.429 . S
C2044 C2027 1.574 . S
C2044 H2038 0.949 . S
C2044 C2048 1.368 . S
C2045 C2026 1.429 . S
C2045 C2039 1.429 . S
C2045 C2046 1.523 . S
C2046 C2027 1.368 . S
C2046 C2040 1.368 . S
C2046 C2045 1.523 . S
C2047 C2031 1.429 . S
C2047 C2043 1.429 . S
C2047 C2048 1.523 . S
C2048 C2032 1.368 . S
C2048 C2044 1.368 . S
C2048 C2047 1.523 . S
H2049 C2024 0.950 . S
H2050 C2026 0.950 . S
H2051 C2027 0.949 . S
H2052 C2029 0.950 . S
H2053 C2031 0.950 . S
C2054 C2055 1.349 . S
C2054 C2056 1.327 . S
C2054 H2079 0.950 . S
C2055 C2054 1.349 . S
C2055 C2071 1.349 . S
C2056 C2054 1.327 . S
C2056 C2075 1.429 . S
C2056 H2080 0.962 . S
C2057 C2074 1.574 . S
C2057 C2076 1.368 . S
C2057 H2081 0.949 . S
H2058 C2062 0.949 1_545 S
C2059 C2060 1.349 . S
C2059 C2061 1.327 . S
C2059 H2082 0.950 . S
C2060 C2059 1.349 . S
C2060 C2072 1.349 . S
C2061 C2059 1.327 . S
C2061 C2077 1.429 . S
C2061 H2083 0.950 . S
C2062 H2058 0.949 1_565 S
C2062 C2070 1.574 . S
C2062 C2078 1.368 . S
H2063 C2071 0.950 . S
H2064 C2069 0.950 . S
H2065 C2070 0.949 1_545 S
H2066 C2072 0.950 1_545 S
H2067 C2073 0.950 1_545 S
H2068 C2074 0.949 . S
C2069 H2064 0.950 . S
C2069 C2071 1.327 . S
C2069 C2075 1.429 . S
C2070 C2062 1.574 . S
C2070 H2065 0.949 1_565 S
C2070 C2076 1.368 . S
C2071 C2055 1.349 . S
C2071 H2063 0.950 . S
C2071 C2069 1.327 . S
C2072 C2060 1.349 . S
C2072 H2066 0.950 1_565 S
C2072 C2073 1.327 . S
C2073 H2067 0.950 1_565 S
C2073 C2072 1.327 . S
C2073 C2077 1.429 . S
C2074 C2057 1.574 . S
C2074 H2068 0.949 . S
C2074 C2078 1.368 . S
C2075 C2056 1.429 . S
C2075 C2069 1.429 . S
C2075 C2076 1.523 . S
C2076 C2057 1.368 . S
C2076 C2070 1.368 . S
C2076 C2075 1.523 . S
C2077 C2061 1.429 . S
C2077 C2073 1.429 . S
C2077 C2078 1.523 . S
C2078 C2062 1.368 . S
C2078 C2074 1.368 . S
C2078 C2077 1.523 . S
H2079 C2054 0.950 . S
H2080 C2056 0.962 . S
H2081 C2057 0.949 . S
H2082 C2059 0.950 . S
H2083 C2061 0.950 . S
C2084 C2085 1.349 . S
C2084 C2086 1.327 . S
C2084 H2109 0.950 . S
C2085 C2084 1.349 . S
C2085 C2101 1.349 . S
C2086 C2084 1.327 . S
C2086 C2105 1.429 . S
C2086 H2110 0.950 . S
C2087 C2104 1.574 1_556 S
C2087 C2106 1.368 . S
C2087 H2111 0.949 . S
H2088 C2092 0.949 . S
C2089 C2090 1.349 . S
C2089 C2091 1.327 . S
C2089 H2112 0.950 . S
C2090 C2089 1.349 . S
C2090 C2102 1.349 . S
C2091 C2089 1.327 . S
C2091 C2107 1.429 . S
C2091 H2113 0.950 . S
C2092 H2088 0.949 . S
C2092 C2100 1.603 . S
C2092 C2108 1.368 . S
H2093 C2101 0.950 . S
H2094 C2099 0.950 . S
H2095 C2100 0.939 1_556 S
H2096 C2102 0.950 . S
H2097 C2103 0.950 . S
H2098 C2104 0.949 . S
C2099 H2094 0.950 . S
C2099 C2101 1.327 . S
C2099 C2105 1.429 . S
C2100 C2092 1.603 . S
C2100 H2095 0.939 1_554 S
C2100 C2106 1.351 1_554 S
C2101 C2085 1.349 . S
C2101 H2093 0.950 . S
C2101 C2099 1.327 . S
C2102 C2090 1.349 . S
C2102 H2096 0.950 . S
C2102 C2103 1.327 . S
C2103 H2097 0.950 . S
C2103 C2102 1.327 . S
C2103 C2107 1.429 . S
C2104 C2087 1.574 1_554 S
C2104 H2098 0.949 . S
C2104 C2108 1.368 . S
C2105 C2086 1.429 . S
C2105 C2099 1.429 . S
C2105 C2106 1.523 . S
C2106 C2087 1.368 . S
C2106 C2100 1.351 1_556 S
C2106 C2105 1.523 . S
C2107 C2091 1.429 . S
C2107 C2103 1.429 . S
C2107 C2108 1.523 . S
C2108 C2092 1.368 . S
C2108 C2104 1.368 . S
C2108 C2107 1.523 . S
H2109 C2084 0.950 . S
H2110 C2086 0.950 . S
H2111 C2087 0.949 . S
H2112 C2089 0.950 . S
H2113 C2091 0.950 . S
C2114 C2115 1.349 . S
C2114 C2116 1.327 . S
C2114 H2139 0.950 . S
C2115 C2114 1.349 . S
C2115 C2131 1.349 . S
C2116 C2114 1.327 . S
C2116 C2135 1.429 . S
C2116 H2140 0.950 . S
C2117 C2134 1.574 . S
C2117 C2136 1.368 . S
C2117 H2141 0.949 . S
H2118 C2122 0.932 1_565 S
C2119 C2120 1.357 . S
C2119 C2121 1.327 . S
C2119 H2142 0.950 . S
C2120 C2119 1.357 . S
C2120 C2132 1.351 . S
C2121 C2119 1.327 . S
C2121 C2137 1.429 . S
C2121 H2143 0.950 . S
C2122 H2118 0.932 1_545 S
C2122 C2130 1.574 . S
C2122 C2138 1.368 . S
H2123 C2131 0.950 . S
H2124 C2129 0.950 . S
H2125 C2130 0.949 . S
H2126 C2132 0.950 1_465 S
H2127 C2133 0.950 1_565 S
H2128 C2134 0.949 . S
C2129 H2124 0.950 . S
C2129 C2131 1.327 . S
C2129 C2135 1.429 . S
C2130 C2122 1.574 . S
C2130 H2125 0.949 . S
C2130 C2136 1.368 . S
C2131 C2115 1.349 . S
C2131 H2123 0.950 . S
C2131 C2129 1.327 . S
C2132 C2120 1.351 . S
C2132 H2126 0.950 1_645 S
C2132 C2133 1.327 . S
C2133 H2127 0.950 1_545 S
C2133 C2132 1.327 . S
C2133 C2137 1.429 . S
C2134 C2117 1.574 . S
C2134 H2128 0.949 . S
C2134 C2138 1.368 . S
C2135 C2116 1.429 . S
C2135 C2129 1.429 . S
C2135 C2136 1.523 . S
C2136 C2117 1.368 . S
C2136 C2130 1.368 . S
C2136 C2135 1.523 . S
C2137 C2121 1.429 . S
C2137 C2133 1.429 . S
C2137 C2138 1.523 . S
C2138 C2122 1.368 . S
C2138 C2134 1.368 . S
C2138 C2137 1.523 . S
H2139 C2114 0.950 . S
H2140 C2116 0.950 . S
H2141 C2117 0.949 . S
H2142 C2119 0.950 . S
H2143 C2121 0.950 . S
C465 C269 0.965 . S
C470 C3 0.982 . S
C495 C298 0.965 . S
C500 C32 0.982 . S
C525 C327 0.965 . S
C530 C61 0.982 . S
C555 C240 0.965 . S
C560 C90 0.982 . S
C585 C119 0.982 . S
C590 C385 0.965 . S
C615 C414 0.965 . S
C620 C148 0.982 . S
C645 C443 0.965 . S
C650 C177 0.982 . S
C675 C206 0.982 . S
C680 C356 0.965 . S
C705 C37 0.965 . S
C710 C235 0.982 . S
C735 C66 0.965 . S
C740 C264 0.982 . S
C765 C293 0.982 . S
C770 C95 0.965 . S
C795 C8 0.965 . S
C800 C322 0.982 . S
C825 C153 0.965 . S
C830 C351 0.982 . S
C855 C380 0.982 . S
C860 C182 0.965 . S
C885 C409 0.982 . S
C890 C211 0.965 . S
C915 C124 0.965 . S
C920 C438 0.982 . S
C945 C213 2.304 . S
C950 C15 2.358 . S
C975 C44 2.358 . S
C980 C358 2.304 . S
C1005 C73 2.358 . S
C1010 C155 2.304 . S
C1035 C416 2.304 . S
C1040 C102 2.358 1_455 S
C1065 C97 2.304 . S
C1070 C131 2.358 . S
C1095 C242 2.304 . S
C1100 C160 2.358 . S
C1125 C39 2.304 . S
C1130 C189 2.358 . S
C1155 C300 2.304 . S
C1160 C218 2.358 1_655 S
C1185 C247 2.358 . S
C1190 C445 2.304 1_565 S
C1215 C276 2.358 1_655 S
C1220 C126 2.304 . S
C1245 C387 2.304 1_545 S
C1250 C305 2.358 . S
C1275 C184 2.304 . S
C1280 C334 2.358 . S
C1305 C363 2.358 . S
C1310 C329 2.304 1_545 S
C1335 C392 2.358 1_455 S
C1340 C10 2.304 . S
C1365 C421 2.358 . S
C1370 C271 2.304 1_565 S
C1395 C450 2.358 . S
C1400 C68 2.304 . S
C1425 C121 2.447 . S
C1430 C5 2.447 . S
C1455 C34 2.447 . S
C1460 C382 2.447 . S
C1485 C179 2.447 . S
C1490 C63 2.447 . S
C1515 C440 2.447 . S
C1520 C92 2.447 . S
C1545 C266 2.447 . S
C1550 C150 2.447 . S
C1575 C208 2.447 . S
C1580 C324 2.447 . S
C1605 C237 2.447 . S
C1610 C353 2.447 . S
C1635 C295 2.447 . S
C1640 C411 2.447 . S
C1665 C419 1.248 . S
C1670 C21 1.249 1_565 S
C1695 C216 1.241 1_655 S
C1700 C50 1.249 . S
C1725 C79 1.249 1_545 S
C1730 C361 1.248 . S
C1755 C158 1.248 . S
C1760 C108 1.249 . S
C1785 C137 1.249 1_545 S
C1790 C303 1.248 . S
C1815 C166 1.249 . S
C1820 C100 1.241 1_455 S
C1845 C195 1.249 1_565 S
C1850 C245 1.248 . S
C1875 C42 1.248 . S
C1880 C224 1.249 . S
C1905 C253 1.249 . S
C1910 C187 1.248 . S
C1935 C448 1.248 . S
C1940 C282 1.249 . S
C1965 C311 1.249 . S
C1970 C129 1.248 . S
C1995 C340 1.249 . S
C2000 C390 1.241 1_455 S
C2025 C71 1.248 . S
C2030 C369 1.249 . S
C2055 C398 1.249 . S
C2060 C332 1.248 . S
C2085 C427 1.249 . S
C2090 C13 1.248 . S
C2115 C456 1.249 . S
C2120 C274 1.241 1_655 S
