# Generated by pormake.
# Topology sml, (6)-cn, num edge types: 1
# Building blocks:
#     Node 0, Type 0, BuildingBlock: JUFBIX_clean_sbu_0, # of connection points: 6
#     Node 1, Type 0, BuildingBlock: JUFBIX_clean_sbu_0, # of connection points: 6
#     Node 2, Type 0, BuildingBlock: JUFBIX_clean_sbu_0, # of connection points: 6
#     Node 3, Type 0, BuildingBlock: JUFBIX_clean_sbu_0, # of connection points: 6
#     Node 4, Type 0, BuildingBlock: JUFBIX_clean_sbu_0, # of connection points: 6
#     Node 5, Type 0, BuildingBlock: JUFBIX_clean_sbu_0, # of connection points: 6
#     Edge 6, Type (0, 0), BuildingBlock: XIVTED_clean_linker_0, # of connection points: 2
#     Edge 7, Type (0, 0), BuildingBlock: XIVTED_clean_linker_0, # of connection points: 2
#     Edge 8, Type (0, 0), BuildingBlock: XIVTED_clean_linker_0, # of connection points: 2
#     Edge 9, Type (0, 0), BuildingBlock: XIVTED_clean_linker_0, # of connection points: 2
#     Edge 10, Type (0, 0), BuildingBlock: XIVTED_clean_linker_0, # of connection points: 2
#     Edge 11, Type (0, 0), BuildingBlock: XIVTED_clean_linker_0, # of connection points: 2
#     Edge 12, Type (0, 0), BuildingBlock: XIVTED_clean_linker_0, # of connection points: 2
#     Edge 13, Type (0, 0), BuildingBlock: XIVTED_clean_linker_0, # of connection points: 2
#     Edge 14, Type (0, 0), BuildingBlock: XIVTED_clean_linker_0, # of connection points: 2
#     Edge 15, Type (0, 0), BuildingBlock: XIVTED_clean_linker_0, # of connection points: 2
#     Edge 16, Type (0, 0), BuildingBlock: XIVTED_clean_linker_0, # of connection points: 2
#     Edge 17, Type (0, 0), BuildingBlock: XIVTED_clean_linker_0, # of connection points: 2
#     Edge 18, Type (0, 0), BuildingBlock: XIVTED_clean_linker_0, # of connection points: 2
#     Edge 19, Type (0, 0), BuildingBlock: XIVTED_clean_linker_0, # of connection points: 2
#     Edge 20, Type (0, 0), BuildingBlock: XIVTED_clean_linker_0, # of connection points: 2
#     Edge 21, Type (0, 0), BuildingBlock: XIVTED_clean_linker_0, # of connection points: 2
#     Edge 22, Type (0, 0), BuildingBlock: XIVTED_clean_linker_0, # of connection points: 2
#     Edge 23, Type (0, 0), BuildingBlock: XIVTED_clean_linker_0, # of connection points: 2
# Relax obj value: 0.291
# Max RMSD: 0.198
# Mean RMSD: 0.198
data_MOF--net-sml--node1-JUFBIX_clean_sbu_0--edge1-XIVTED_clean_linker_0
_symmetry_space_group_name_H-M    P1
_symmetry_Int_Tables_number       1
_symmetry_cell_setting            triclinic
loop_
_symmetry_equiv_pos_as_xyz
'x, y, z'
_cell_length_a     44.996966
_cell_length_b     45.031302
_cell_length_c     14.926068
_cell_angle_alpha  90.032296
_cell_angle_beta   89.96281
_cell_angle_gamma 120.07283
loop_
_atom_site_label
_atom_site_type_symbol
_atom_site_fract_x
_atom_site_fract_y
_atom_site_fract_z
_atom_type_partial_charge
Co0 Co 0.31271 0.48383 0.04946 0.0
C1 C 0.26581 0.50521 0.07612 0.0
Co2 Co 0.25901 0.44064 0.04864 0.0
C3 C 0.37432 0.547 -0.0023 0.0
C4 C 0.38322 0.5207 0.10439 0.0
N5 N 0.35824 0.51915 0.05132 0.0
N6 N 0.40841 0.56572 0.01477 0.0
C7 C 0.41393 0.54921 0.08235 0.0
H8 H 0.3614 0.55277 0.94523 0.0
H9 H 0.37948 0.50187 0.15476 0.0
C10 C 0.30737 0.42029 0.02207 0.0
N11 N 0.21371 0.40475 0.04638 0.0
C12 C 0.18714 0.39845 0.10096 0.0
C13 C 0.20089 0.37798 -0.01086 0.0
N14 N 0.15843 0.36859 0.08043 0.0
C15 C 0.16707 0.35571 0.0101 0.0
C16 C 0.28384 0.46854 0.8819 0.0
O17 O 0.32776 0.45217 0.03285 0.0
O18 O 0.27515 0.40875 0.02658 0.0
O19 O 0.25745 0.44651 0.92417 0.0
O20 O 0.31123 0.48799 0.92456 0.0
O21 O 0.24401 0.47322 0.07069 0.0
H22 H 0.21537 0.37466 0.9361 0.0
H23 H 0.1891 0.41492 0.15624 0.0
O24 O 0.29754 0.51543 0.06603 0.0
O25 O 0.31342 0.47907 0.17463 0.0
O26 O 0.26091 0.43507 0.17293 0.0
C27 C 0.28765 0.45578 0.21625 0.0
H28 H 0.43842 0.55702 0.11379 0.0
H29 H 0.15011 0.33184 -0.02386 0.0
Co30 Co 0.77541 0.21524 0.41388 0.0
C31 C 0.82245 0.28356 0.38656 0.0
Co32 Co 0.82901 0.22566 0.41465 0.0
C33 C 0.71512 0.21868 0.4654 0.0
C34 C 0.70422 0.18097 0.36401 0.0
N35 N 0.73007 0.20532 0.41324 0.0
N36 N 0.68089 0.20343 0.45126 0.0
C37 C 0.67403 0.17976 0.38711 0.0
H38 H 0.72899 0.23846 0.51488 0.0
H39 H 0.70702 0.16464 0.31566 0.0
C40 C 0.78043 0.15694 0.44208 0.0
N41 N 0.87425 0.23497 0.41584 0.0
C42 C 0.90073 0.25565 0.3615 0.0
C43 C 0.88724 0.22088 0.47194 0.0
N44 N 0.92957 0.25464 0.38107 0.0
C45 C 0.92109 0.23277 0.45053 0.0
C46 C 0.80469 0.22913 0.58142 0.0
O47 O 0.76015 0.16852 0.43108 0.0
O48 O 0.81268 0.17755 0.43724 0.0
O49 O 0.83102 0.23336 0.5391 0.0
O50 O 0.77732 0.22122 0.5388 0.0
O51 O 0.84419 0.27333 0.39216 0.0
H52 H 0.8729 0.20284 0.52464 0.0
H53 H 0.89864 0.27042 0.30717 0.0
O54 O 0.79073 0.26205 0.39674 0.0
O55 O 0.77418 0.20941 0.28876 0.0
O56 O 0.82668 0.21792 0.29034 0.0
C57 C 0.79992 0.21183 0.24708 0.0
H58 H 0.64899 0.16268 0.35882 0.0
H59 H 0.9382 0.22592 0.48373 0.0
Co60 Co 0.59859 0.85849 0.71444 0.0
C61 C 0.57819 0.79053 0.74346 0.0
Co62 Co 0.64233 0.84897 0.71305 0.0
C63 C 0.53458 0.85483 0.66394 0.0
C64 C 0.56152 0.8923 0.76579 0.0
N65 N 0.56295 0.86806 0.71593 0.0
N66 N 0.51565 0.87005 0.67883 0.0
C67 C 0.53255 0.89356 0.74329 0.0
H68 H 0.5286 0.8352 0.61397 0.0
H69 H 0.58076 0.90858 0.81407 0.0
C70 C 0.6618 0.91724 0.68375 0.0
N71 N 0.6785 0.84013 0.71104 0.0
C72 C 0.68441 0.81942 0.76472 0.0
C73 C 0.70558 0.85446 0.65475 0.0
N74 N 0.71429 0.82061 0.74454 0.0
C75 C 0.72764 0.84267 0.6754 0.0
C76 C 0.61378 0.84453 0.54665 0.0
O77 O 0.62983 0.90531 0.69472 0.0
O78 O 0.67378 0.89703 0.69023 0.0
O79 O 0.63646 0.84121 0.58866 0.0
O80 O 0.59385 0.85173 0.58959 0.0
O81 O 0.61023 0.80133 0.73564 0.0
H82 H 0.70919 0.87256 0.60235 0.0
H83 H 0.66755 0.80445 0.81895 0.0
O84 O 0.56735 0.81155 0.73416 0.0
O85 O 0.60388 0.86512 0.83933 0.0
O86 O 0.64793 0.85677 0.83747 0.0
C87 C 0.62729 0.86287 0.88087 0.0
H88 H 0.52468 0.91059 0.77214 0.0
H89 H 0.7516 0.84967 0.64183 0.0
Co90 Co 0.86767 0.59175 0.08028 0.0
C91 C 0.79931 0.57017 0.05099 0.0
Co92 Co 0.85702 0.63474 0.07904 0.0
C93 C 0.8645 0.5282 0.13291 0.0
C94 C 0.90222 0.55512 0.03154 0.0
N95 N 0.87775 0.55647 0.08057 0.0
N96 N 0.87993 0.5094 0.11901 0.0
C97 C 0.9036 0.52629 0.05487 0.0
H98 H 0.84464 0.52217 0.18224 0.0
H99 H 0.91852 0.57426 -0.0169 0.0
C100 C 0.92571 0.65533 0.10883 0.0
N101 N 0.84775 0.67063 0.07964 0.0
C102 C 0.82766 0.67686 0.02435 0.0
C103 C 0.86166 0.6975 0.13658 0.0
N104 N 0.82891 0.70678 0.04418 0.0
C105 C 0.85029 0.71977 0.11476 0.0
C106 C 0.85321 0.60731 0.24679 0.0
O107 O 0.91435 0.62346 0.09872 0.0
O108 O 0.90499 0.6667 0.10195 0.0
O109 O 0.84909 0.62923 0.2035 0.0
O110 O 0.86122 0.58774 0.20514 0.0
O111 O 0.80946 0.60213 0.05626 0.0
H112 H 0.8793 0.70088 0.19008 0.0
H113 H 0.8132 0.66029 0.96916 0.0
O114 O 0.82085 0.56007 0.06201 0.0
O115 O 0.87398 0.59632 0.95521 0.0
O116 O 0.86496 0.63992 0.95474 0.0
C117 C 0.87142 0.61931 0.91251 0.0
H118 H 0.92078 0.51848 0.02663 0.0
H119 H 0.85718 0.74368 0.14833 0.0
Co120 Co 0.22186 0.7685 0.38241 0.0
C121 C 0.29027 0.8144 0.41089 0.0
Co122 Co 0.23301 0.82228 0.3834 0.0
C123 C 0.22416 0.70777 0.33036 0.0
C124 C 0.18616 0.69716 0.43074 0.0
N125 N 0.21096 0.72292 0.38226 0.0
N126 N 0.20841 0.6735 0.34398 0.0
C127 C 0.18454 0.66682 0.40747 0.0
H128 H 0.24427 0.72156 0.28158 0.0
H129 H 0.16985 0.70016 0.47884 0.0
C130 C 0.16423 0.77497 0.35511 0.0
N131 N 0.24349 0.86783 0.38261 0.0
C132 C 0.26347 0.89356 0.43962 0.0
C133 C 0.2332 0.88253 0.32059 0.0
N134 N 0.26625 0.92377 0.41503 0.0
C135 C 0.24717 0.91681 0.34013 0.0
C136 C 0.2363 0.79822 0.21572 0.0
O137 O 0.17537 0.75431 0.36549 0.0
O138 O 0.18521 0.80712 0.36023 0.0
O139 O 0.24099 0.82447 0.25904 0.0
O140 O 0.2278 0.77054 0.25737 0.0
O141 O 0.2804 0.83642 0.40637 0.0
H142 H 0.21675 0.86917 0.26426 0.0
H143 H 0.27628 0.8903 0.49696 0.0
O144 O 0.2685 0.78284 0.39945 0.0
O145 O 0.21601 0.76706 0.50748 0.0
O146 O 0.22503 0.81971 0.50775 0.0
C147 C 0.21862 0.79268 0.55008 0.0
H148 H 0.16709 0.64182 0.43534 0.0
H149 H 0.24327 0.93513 0.30253 0.0
Co150 Co 0.49027 0.30615 0.75253 0.0
C151 C 0.51268 0.2603 0.72359 0.0
Co152 Co 0.44757 0.25232 0.75352 0.0
C153 C 0.55376 0.36705 0.80179 0.0
C154 C 0.52572 0.3774 0.70301 0.0
N155 N 0.52502 0.35176 0.75126 0.0
N156 N 0.57229 0.40129 0.78755 0.0
C157 C 0.55468 0.40781 0.72507 0.0
H158 H 0.56037 0.35338 0.85007 0.0
H159 H 0.50609 0.37428 0.6559 0.0
C160 C 0.42615 0.29952 0.78264 0.0
N161 N 0.41253 0.20672 0.75566 0.0
C162 C 0.40671 0.18095 0.69879 0.0
C163 C 0.38772 0.19199 0.81831 0.0
N164 N 0.3794 0.15069 0.724 0.0
C165 C 0.36743 0.15764 0.79922 0.0
C166 C 0.47582 0.27708 0.92013 0.0
O167 O 0.45795 0.32024 0.77103 0.0
O168 O 0.41496 0.26739 0.77737 0.0
O169 O 0.45391 0.25065 0.8779 0.0
O170 O 0.49492 0.30454 0.87741 0.0
O171 O 0.48078 0.23824 0.72982 0.0
H172 H 0.38473 0.20537 0.87472 0.0
H173 H 0.42265 0.18424 0.64106 0.0
O174 O 0.52254 0.29189 0.7341 0.0
O175 O 0.48513 0.30715 0.6275 0.0
O176 O 0.44159 0.25438 0.62929 0.0
C177 C 0.46196 0.28127 0.58593 0.0
H178 H 0.56212 0.43274 0.69707 0.0
H179 H 0.34534 0.13928 0.83734 0.0
H180 H 0.35803 0.26504 0.83832 0.0
H181 H 0.37444 0.43783 0.02482 0.0
H182 H 0.44411 0.3666 0.7913 0.0
H183 H 0.2739 0.35295 0.96104 0.0
H184 H 0.40014 0.40587 0.96517 0.0
H185 H 0.32589 0.29147 0.90133 0.0
C186 C 0.37 0.29274 0.84016 0.0
C187 C 0.40396 0.3136 0.81012 0.0
C188 C 0.37242 0.39408 0.96428 0.0
C189 C 0.36786 0.34362 0.88338 0.0
C190 C 0.35763 0.41227 -0.00113 0.0
C191 C 0.3219 0.39827 -0.003 0.0
C192 C 0.35154 0.36137 0.92752 0.0
C193 C 0.30159 0.36476 0.9634 0.0
C194 C 0.35172 0.30771 0.87629 0.0
C195 C 0.4182 0.34934 0.81429 0.0
N196 N 0.31673 0.34738 0.92936 0.0
N197 N 0.40028 0.36307 0.85099 0.0
H198 H 0.11611 0.30076 0.10785 0.0
H199 H 0.96095 0.31834 0.30649 0.0
H200 H 0.12601 0.39971 0.15591 0.0
H201 H 0.97294 0.23045 0.35267 0.0
H202 H 1.01774 0.34756 0.23366 0.0
H203 H 0.05985 0.27337 0.18036 0.0
C204 C 0.10633 0.31671 0.13348 0.0
C205 C 0.1257 0.35255 0.12573 0.0
C206 C 1.00787 0.32191 0.25999 0.0
C207 C 0.06112 0.32133 0.20858 0.0
C208 C 0.97545 0.30518 0.30084 0.0
C209 C 0.96232 0.27199 0.33593 0.0
C210 C 0.02689 0.305 0.25269 0.0
C211 C 0.98225 0.25614 0.32752 0.0
C212 C 0.0743 0.30109 0.17528 0.0
C213 C 0.11195 0.37202 0.16116 0.0
N214 N 1.01336 0.27267 0.28639 0.0
N215 N 0.08033 0.35615 0.20048 0.0
H216 H 0.7133 0.10743 0.43841 0.0
H217 H 0.73066 0.95261 0.63546 0.0
H218 H 0.8135 0.12306 0.50548 0.0
H219 H 0.64177 0.96461 0.66533 0.0
H220 H 0.76242 1.01109 0.57207 0.0
H221 H 0.68725 0.0498 0.49848 0.0
C222 C 0.72996 0.09868 0.46521 0.0
C223 C 0.76571 0.12039 0.46771 0.0
C224 C 0.73605 1.00079 0.59335 0.0
C225 C 0.73565 0.05386 0.53783 0.0
C226 C 0.71796 0.96756 0.6297 0.0
C227 C 0.68339 0.95353 0.65534 0.0
C228 C 0.71916 0.01965 0.58159 0.0
C229 C 0.66822 0.97404 0.64611 0.0
C230 C 0.71497 0.0657 0.50007 0.0
C231 C 0.78582 0.1072 0.50248 0.0
N232 N 0.68604 1.00574 0.60942 0.0
N233 N 0.77048 0.0747 0.53677 0.0
H234 H 0.68189 0.75685 0.81866 0.0
H235 H 0.85482 0.77452 0.01525 0.0
H236 H 0.78199 0.84475 0.77151 0.0
H237 H 0.76529 0.67557 0.96893 0.0
H238 H 0.82609 0.80185 0.94236 0.0
H239 H 0.70946 0.72762 0.89068 0.0
C240 C 0.70961 0.77001 0.8239 0.0
C241 C 0.72972 0.80321 0.78885 0.0
C242 C 0.81269 0.77415 0.94785 0.0
C243 C 0.76128 0.77018 0.87112 0.0
C244 C 0.82902 0.75856 -0.01014 0.0
C245 C 0.81237 0.72275 -0.00174 0.0
C246 C 0.77915 0.75388 0.91503 0.0
C247 C 0.77906 0.70324 0.96316 0.0
C248 C 0.7253 0.75327 0.86428 0.0
C249 C 0.76555 0.81904 0.79667 0.0
N250 N 0.76337 0.71908 0.92366 0.0
N251 N 0.78013 0.8025 0.83736 0.0
H252 H 0.11363 0.70859 0.36626 0.0
H253 H 0.95979 0.72411 0.15747 0.0
H254 H 0.13153 0.80831 0.28549 0.0
H255 H 0.97414 0.63671 0.12684 0.0
H256 H 1.01802 0.75662 0.2225 0.0
H257 H 0.05615 0.68262 0.30489 0.0
C258 C 0.10539 0.72517 0.33623 0.0
C259 C 0.12771 0.76071 0.32998 0.0
C260 C 1.00828 0.73042 0.20059 0.0
C261 C 0.06142 0.73076 0.25849 0.0
C262 C 0.97521 0.71191 0.16332 0.0
C263 C 0.9619 0.67751 0.13722 0.0
C264 C 0.02761 0.71407 0.21288 0.0
C265 C 0.98299 0.66299 0.14653 0.0
C266 C 0.07252 0.71022 0.30069 0.0
C267 C 0.11517 0.78078 0.29135 0.0
N268 N 1.01446 0.68117 0.18429 0.0
N269 N 0.08277 0.76548 0.25632 0.0
H270 H 0.34641 0.08787 0.80228 0.0
H271 H 0.29596 0.98658 0.33698 0.0
H272 H 0.38084 0.13805 0.54632 0.0
H273 H 0.28038 0.93635 0.59271 0.0
H274 H 0.32582 0.04221 0.41231 0.0
H275 H 0.32082 0.03221 0.72707 0.0
C276 C 0.34855 0.08719 0.73018 0.0
C277 C 0.36564 0.11773 0.6805 0.0
C278 C 0.31604 0.01905 0.45201 0.0
C279 C 0.3364 0.05394 0.59375 0.0
C280 C 0.29878 0.98725 0.40907 0.0
C281 C 0.28542 0.9567 0.45865 0.0
C282 C 0.31974 0.02048 0.54557 0.0
C283 C 0.29041 0.95921 0.55182 0.0
C284 C 0.33411 0.05537 0.68732 0.0
C285 C 0.3681 0.11521 0.58732 0.0
N286 N 0.3069 0.99051 0.59232 0.0
N287 N 0.35341 0.0839 0.54692 0.0
H288 H 0.33627 0.51091 0.77064 0.0
H289 H 0.235 0.41341 0.32718 0.0
H290 H 0.2315 0.42681 0.7697 0.0
H291 H 0.33991 0.49721 0.32885 0.0
H292 H 0.23347 0.41729 0.48991 0.0
H293 H 0.33771 0.50689 0.60802 0.0
C294 C 0.31345 0.49182 0.73612 0.0
C295 C 0.28375 0.46908 0.78359 0.0
C296 C 0.25687 0.43472 0.45467 0.0
C297 C 0.28537 0.46408 0.59801 0.0
C298 C 0.25783 0.43238 0.36187 0.0
C299 C 0.28759 0.45511 0.31458 0.0
C300 C 0.28586 0.45997 0.50019 0.0
C301 C 0.31639 0.47924 0.36275 0.0
C302 C 0.31435 0.48942 0.64336 0.0
C303 C 0.25494 0.44485 0.73562 0.0
N304 N 0.31475 0.48114 0.45304 0.0
N305 N 0.25653 0.44287 0.6453 0.0
H306 H 0.8524 0.22152 0.13637 0.0
H307 H 0.75247 0.21976 0.69247 0.0
H308 H 0.74797 0.20167 0.13414 0.0
H309 H 0.8567 0.23905 0.69394 0.0
H310 H 0.75075 0.21409 0.85502 0.0
H311 H 0.85421 0.22716 -0.02628 0.0
C312 C 0.82972 0.21798 0.10157 0.0
C313 C 0.80002 0.21123 0.14871 0.0
C314 C 0.77405 0.21972 0.81982 0.0
C315 C 0.80209 0.21811 0.96313 0.0
C316 C 0.77512 0.22315 0.7271 0.0
C317 C 0.80474 0.22977 0.67977 0.0
C318 C 0.8028 0.2229 0.86532 0.0
C319 C 0.83333 0.23391 0.7279 0.0
C320 C 0.83085 0.22141 0.0088 0.0
C321 C 0.77143 0.20697 0.10037 0.0
N322 N 0.83158 0.23023 0.81819 0.0
N323 N 0.77324 0.21065 0.0101 0.0
H324 H 0.57083 0.85369 0.4355 0.0
H325 H 0.67003 0.85321 -0.00829 0.0
H326 H 0.65608 0.83496 0.434 0.0
H327 H 0.58549 0.87302 -0.0061 0.0
H328 H 0.6659 0.84727 0.15433 0.0
H329 H 0.57508 0.8597 0.27296 0.0
C330 C 0.5902 0.85047 0.40087 0.0
C331 C 0.61321 0.84392 0.44823 0.0
C332 C 0.64837 0.85309 0.11925 0.0
C333 C 0.6185 0.85122 0.26268 0.0
C334 C 0.65086 0.8567 0.0265 0.0
C335 C 0.62799 0.8635 -0.02069 0.0
C336 C 0.62281 0.85626 0.1649 0.0
C337 C 0.60359 0.86768 0.02767 0.0
C338 C 0.59275 0.85411 0.30816 0.0
C339 C 0.63783 0.84004 0.40007 0.0
N340 N 0.60154 0.86382 0.11791 0.0
N341 N 0.63993 0.84392 0.30982 0.0
H342 H 0.88376 0.57841 0.8018 0.0
H343 H 0.84134 0.64868 0.35709 0.0
H344 H 0.8599 0.66017 0.79946 0.0
H345 H 0.86438 0.56635 0.3602 0.0
H346 H 0.84724 0.65276 0.51965 0.0
H347 H 0.87793 0.57447 0.63929 0.0
C348 C 0.87763 0.59578 0.76699 0.0
C349 C 0.87218 0.61958 0.81411 0.0
C350 C 0.85084 0.63369 0.4848 0.0
C351 C 0.86504 0.61489 0.62852 0.0
C352 C 0.84727 0.6312 0.39208 0.0
C353 C 0.85249 0.6072 0.34518 0.0
C354 C 0.85974 0.61207 0.53073 0.0
C355 C 0.86019 0.58527 0.39377 0.0
C356 C 0.87412 0.59338 0.67427 0.0
C357 C 0.86431 0.64144 0.7657 0.0
N358 N 0.86376 0.58836 0.48402 0.0
N359 N 0.8608 0.63844 0.67541 0.0
H360 H 0.20517 0.7391 0.66048 0.0
H361 H 0.24945 0.85188 0.10577 0.0
H362 H 0.23122 0.84541 0.66331 0.0
H363 H 0.22393 0.74573 0.10207 0.0
H364 H 0.24372 0.8503 0.9432 0.0
H365 H 0.21086 0.7408 0.82297 0.0
C366 C 0.21176 0.76271 0.6954 0.0
C367 C 0.21786 0.79221 0.64845 0.0
C368 C 0.23954 0.82741 -0.02207 0.0
C369 C 0.22481 0.79442 0.83402 0.0
C370 C 0.243 0.82834 0.07065 0.0
C371 C 0.23704 0.79885 0.11737 0.0
C372 C 0.23001 0.79675 0.93182 0.0
C373 C 0.2287 0.76904 0.06862 0.0
C374 C 0.21518 0.76371 0.78811 0.0
C375 C 0.22629 0.82208 0.69698 0.0
N376 N 0.22526 0.76871 -0.02163 0.0
N377 N 0.2297 0.82247 0.78728 0.0
H378 H 0.4202 0.2283 0.47499 0.0
H379 H 0.5177 0.32975 0.03146 0.0
H380 H 0.50282 0.33372 0.47302 0.0
H381 H 0.43459 0.22456 0.03256 0.0
H382 H 0.51334 0.33128 0.194 0.0
H383 H 0.42445 0.22666 0.31235 0.0
C384 C 0.43897 0.25122 0.44025 0.0
C385 C 0.46127 0.28117 0.4875 0.0
C386 C 0.49617 0.30781 0.15873 0.0
C387 C 0.46658 0.2793 0.3019 0.0
C388 C 0.49877 0.30686 0.066 0.0
C389 C 0.47639 0.27701 0.01854 0.0
C390 C 0.47097 0.27874 0.20411 0.0
C391 C 0.45235 0.24812 0.0666 0.0
C392 C 0.44152 0.2502 0.34749 0.0
C393 C 0.48516 0.31007 0.43921 0.0
N394 N 0.45016 0.24976 0.15687 0.0
N395 N 0.4873 0.30835 0.34896 0.0
H396 H 0.3051 0.57502 0.07532 0.0
H397 H 0.16435 0.60506 0.32136 0.0
H398 H 0.20284 0.49289 0.13686 0.0
H399 H 0.26752 0.68577 0.26207 0.0
H400 H 0.17654 0.56398 0.2472 0.0
H401 H 0.29 0.61623 0.13374 0.0
C402 C 0.2793 0.56563 0.10038 0.0
C403 C 0.25524 0.53036 0.10157 0.0
C404 C 0.19647 0.5907 0.25016 0.0
C405 C 0.23784 0.57763 0.16968 0.0
C406 C 0.18962 0.6142 0.29314 0.0
C407 C 0.21501 0.64904 0.29862 0.0
C408 C 0.22898 0.60202 0.21235 0.0
C409 C 0.24704 0.65933 0.25899 0.0
C410 C 0.27072 0.58924 0.13399 0.0
C411 C 0.22219 0.51982 0.13459 0.0
N412 N 0.25312 0.63594 0.21796 0.0
N413 N 0.21454 0.54335 0.16801 0.0
H414 H 0.61242 0.1596 0.47417 0.0
H415 H 0.58252 0.30034 0.72032 0.0
H416 H 0.6935 0.26248 0.53388 0.0
H417 H 0.50072 0.19741 0.66399 0.0
H418 H 0.62383 0.28553 0.66052 0.0
H419 H 0.57151 0.17187 0.54902 0.0
C420 C 0.62167 0.18483 0.50262 0.0
C421 C 0.65655 0.21012 0.49704 0.0
C422 C 0.5969 0.26606 0.66174 0.0
C423 C 0.60972 0.2242 0.58409 0.0
C424 C 0.57324 0.27447 0.69611 0.0
C425 C 0.53802 0.25011 0.69686 0.0
C426 C 0.58537 0.23305 0.62723 0.0
C427 C 0.52761 0.217 0.6648 0.0
C428 C 0.59827 0.19173 0.54601 0.0
C429 C 0.66701 0.2421 0.537 0.0
N430 N 0.55116 0.20951 0.63065 0.0
N431 N 0.6437 0.24825 0.5784 0.0
H432 H 0.47712 0.58971 0.00403 0.0
H433 H 0.59187 0.73852 0.77653 0.0
H434 H 0.39841 0.61174 0.92018 0.0
H435 H 0.5091 0.76082 0.77336 0.0
H436 H 0.55229 0.68144 0.83415 0.0
H437 H 0.52001 0.64206 0.93259 0.0
C438 C 0.46876 0.60548 -0.02979 0.0
C439 C 0.43392 0.59616 0.96882 0.0
C440 C 0.54267 0.69877 0.82216 0.0
C441 C 0.48329 0.65627 0.88265 0.0
C442 C 0.56533 0.73138 0.78797 0.0
C443 C 0.55394 0.75468 0.7708 0.0
C444 C 0.50835 0.68948 0.84038 0.0
C445 C 0.51916 0.74385 0.78616 0.0
C446 C 0.49341 0.63537 0.92773 0.0
C447 C 0.42482 0.61758 0.92251 0.0
N448 N 0.49774 0.71219 0.82042 0.0
N449 N 0.44934 0.64666 0.88188 0.0
H450 H 0.78324 0.31411 0.3878 0.0
H451 H 0.92381 0.48483 0.14075 0.0
H452 H 0.88538 0.33424 0.32525 0.0
H453 H 0.82102 0.46286 0.20257 0.0
H454 H 0.91158 0.43155 0.21472 0.0
H455 H 0.79834 0.37046 0.32963 0.0
C456 C 0.80901 0.33052 0.36255 0.0
C457 C 0.83304 0.3193 0.36104 0.0
C458 C 0.89174 0.43845 0.21237 0.0
C459 C 0.85044 0.38403 0.29323 0.0
C460 C 0.89861 0.46881 0.16949 0.0
C461 C 0.87333 0.47839 0.16467 0.0
C462 C 0.85932 0.41735 0.25078 0.0
C463 C 0.84141 0.45679 0.20505 0.0
C464 C 0.81759 0.36274 0.3291 0.0
C465 C 0.86605 0.34183 0.32779 0.0
N466 N 0.8353 0.42728 0.24595 0.0
N467 N 0.8737 0.37303 0.29454 0.0
H468 H 0.32005 0.77444 0.41069 0.0
H469 H 0.4913 0.91408 0.6577 0.0
H470 H 0.34141 0.87701 0.47188 0.0
H471 H 0.46898 0.81134 0.59503 0.0
H472 H 0.4381 0.90217 0.58374 0.0
H473 H 0.37629 0.78901 0.46912 0.0
C474 C 0.33671 0.80018 0.43568 0.0
C475 C 0.32588 0.82451 0.43673 0.0
C476 C 0.44489 0.88226 0.5859 0.0
C477 C 0.39044 0.84128 0.50478 0.0
C478 C 0.4752 0.88895 0.62879 0.0
C479 C 0.48465 0.86359 0.63334 0.0
C480 C 0.4237 0.84993 0.54726 0.0
C481 C 0.46298 0.83176 0.59275 0.0
C482 C 0.36886 0.80846 0.46927 0.0
C483 C 0.34869 0.85746 0.4697 0.0
N484 N 0.43349 0.82581 0.55186 0.0
N485 N 0.3798 0.8648 0.50306 0.0
H486 H 0.76901 0.50037 0.04987 0.0
H487 H 0.59699 0.46977 0.80971 0.0
H488 H 0.74845 0.58224 -0.00883 0.0
H489 H 0.61964 0.38923 0.86685 0.0
H490 H 0.65075 0.51099 0.88195 0.0
H491 H 0.71256 0.45905 -0.00814 0.0
C492 C 0.75249 0.50968 0.02548 0.0
C493 C 0.7636 0.54491 0.02507 0.0
C494 C 0.64389 0.48427 0.87892 0.0
C495 C 0.69876 0.49751 0.95749 0.0
C496 C 0.61326 0.46069 0.83703 0.0
C497 C 0.6037 0.42586 0.83157 0.0
C498 C 0.66528 0.47304 0.91565 0.0
C499 C 0.62566 0.41565 0.87 0.0
C500 C 0.72021 0.486 -0.00789 0.0
C501 C 0.74095 0.55534 -0.00715 0.0
N502 N 0.65541 0.43912 0.91 0.0
N503 N 0.70968 0.53175 0.95973 0.0
loop_
_geom_bond_atom_site_label_1
_geom_bond_atom_site_label_2
_geom_bond_distance
_geom_bond_site_symmetry_2
_ccdc_geom_bond_type
Co0 N5 2.057 . S
Co0 O17 2.021 . S
Co0 O20 2.062 . S
Co0 O24 2.117 1_556 S
Co0 O25 2.020 1_556 S
C1 O21 1.259 . S
C1 O24 1.258 . S
Co2 N11 2.057 . S
Co2 O18 2.117 1_554 S
Co2 O19 2.020 1_554 S
Co2 O21 2.021 . S
Co2 O26 2.062 . S
C3 N5 1.316 . S
C3 N6 1.347 . S
C3 H8 0.931 . S
C4 N5 1.375 . S
C4 C7 1.350 . S
C4 H9 0.934 . S
N5 Co0 2.057 . S
N5 C3 1.316 . S
N5 C4 1.375 . S
N6 C3 1.347 . S
N6 C7 1.373 . S
C7 C4 1.350 . S
C7 N6 1.373 . S
C7 H28 0.931 . S
H8 C3 0.931 . S
H9 C4 0.934 . S
C10 O17 1.259 . S
C10 O18 1.258 . S
N11 Co2 2.057 . S
N11 C12 1.316 . S
N11 C13 1.375 . S
C12 N11 1.316 . S
C12 N14 1.347 . S
C12 H23 0.931 . S
C13 N11 1.375 . S
C13 C15 1.350 . S
C13 H22 0.930 . S
N14 C12 1.347 . S
N14 C15 1.373 . S
C15 C13 1.350 . S
C15 N14 1.373 . S
C15 H29 0.931 . S
C16 O19 1.256 . S
C16 O20 1.255 . S
O17 Co0 2.021 . S
O17 C10 1.259 . S
O18 Co2 2.117 1_556 S
O18 C10 1.258 . S
O19 Co2 2.020 1_556 S
O19 C16 1.256 . S
O20 Co0 2.062 . S
O20 C16 1.255 . S
O21 C1 1.259 . S
O21 Co2 2.021 . S
H22 C13 0.930 . S
H23 C12 0.931 . S
O24 Co0 2.117 1_554 S
O24 C1 1.258 . S
O25 Co0 2.020 1_554 S
O25 C27 1.256 . S
O26 Co2 2.062 . S
O26 C27 1.255 . S
C27 O25 1.256 . S
C27 O26 1.255 . S
H28 C7 0.931 . S
H29 C15 0.931 . S
Co30 N35 2.057 . S
Co30 O47 2.021 . S
Co30 O50 2.062 . S
Co30 O54 2.117 . S
Co30 O55 2.020 . S
C31 O51 1.259 . S
C31 O54 1.258 . S
Co32 N41 2.057 . S
Co32 O48 2.117 . S
Co32 O49 2.020 . S
Co32 O51 2.021 . S
Co32 O56 2.062 . S
C33 N35 1.316 . S
C33 N36 1.347 . S
C33 H38 0.931 . S
C34 N35 1.375 . S
C34 C37 1.350 . S
C34 H39 0.930 . S
N35 Co30 2.057 . S
N35 C33 1.316 . S
N35 C34 1.375 . S
N36 C33 1.347 . S
N36 C37 1.373 . S
C37 C34 1.350 . S
C37 N36 1.373 . S
C37 H58 0.931 . S
H38 C33 0.931 . S
H39 C34 0.930 . S
C40 O47 1.259 . S
C40 O48 1.258 . S
N41 Co32 2.057 . S
N41 C42 1.316 . S
N41 C43 1.375 . S
C42 N41 1.316 . S
C42 N44 1.347 . S
C42 H53 0.931 . S
C43 N41 1.375 . S
C43 C45 1.350 . S
C43 H52 0.930 . S
N44 C42 1.347 . S
N44 C45 1.373 . S
C45 C43 1.350 . S
C45 N44 1.373 . S
C45 H59 0.931 . S
C46 O49 1.256 . S
C46 O50 1.255 . S
O47 Co30 2.021 . S
O47 C40 1.259 . S
O48 Co32 2.117 . S
O48 C40 1.258 . S
O49 Co32 2.020 . S
O49 C46 1.256 . S
O50 Co30 2.062 . S
O50 C46 1.255 . S
O51 C31 1.259 . S
O51 Co32 2.021 . S
H52 C43 0.930 . S
H53 C42 0.931 . S
O54 Co30 2.117 . S
O54 C31 1.258 . S
O55 Co30 2.020 . S
O55 C57 1.256 . S
O56 Co32 2.062 . S
O56 C57 1.255 . S
C57 O55 1.256 . S
C57 O56 1.255 . S
H58 C37 0.931 . S
H59 C45 0.931 . S
Co60 N65 2.057 . S
Co60 O77 2.021 . S
Co60 O80 2.062 . S
Co60 O84 2.117 . S
Co60 O85 2.020 . S
C61 O81 1.259 . S
C61 O84 1.258 . S
Co62 N71 2.057 . S
Co62 O78 2.117 . S
Co62 O79 2.020 . S
Co62 O81 2.021 . S
Co62 O86 2.062 . S
C63 N65 1.316 . S
C63 N66 1.347 . S
C63 H68 0.931 . S
C64 N65 1.375 . S
C64 C67 1.350 . S
C64 H69 0.930 . S
N65 Co60 2.057 . S
N65 C63 1.316 . S
N65 C64 1.375 . S
N66 C63 1.347 . S
N66 C67 1.373 . S
C67 C64 1.350 . S
C67 N66 1.373 . S
C67 H88 0.931 . S
H68 C63 0.931 . S
H69 C64 0.930 . S
C70 O77 1.259 . S
C70 O78 1.258 . S
N71 Co62 2.057 . S
N71 C72 1.316 . S
N71 C73 1.375 . S
C72 N71 1.316 . S
C72 N74 1.347 . S
C72 H83 0.931 . S
C73 N71 1.375 . S
C73 C75 1.350 . S
C73 H82 0.930 . S
N74 C72 1.347 . S
N74 C75 1.373 . S
C75 C73 1.350 . S
C75 N74 1.373 . S
C75 H89 0.931 . S
C76 O79 1.256 . S
C76 O80 1.255 . S
O77 Co60 2.021 . S
O77 C70 1.259 . S
O78 Co62 2.117 . S
O78 C70 1.258 . S
O79 Co62 2.020 . S
O79 C76 1.256 . S
O80 Co60 2.062 . S
O80 C76 1.255 . S
O81 C61 1.259 . S
O81 Co62 2.021 . S
H82 C73 0.930 . S
H83 C72 0.931 . S
O84 Co60 2.117 . S
O84 C61 1.258 . S
O85 Co60 2.020 . S
O85 C87 1.256 . S
O86 Co62 2.062 . S
O86 C87 1.255 . S
C87 O85 1.256 . S
C87 O86 1.255 . S
H88 C67 0.931 . S
H89 C75 0.931 . S
Co90 N95 2.057 . S
Co90 O107 2.021 . S
Co90 O110 2.062 . S
Co90 O114 2.117 . S
Co90 O115 2.020 . S
C91 O111 1.259 . S
C91 O114 1.258 . S
Co92 N101 2.057 . S
Co92 O108 2.117 . S
Co92 O109 2.020 . S
Co92 O111 2.021 . S
Co92 O116 2.062 . S
C93 N95 1.316 . S
C93 N96 1.347 . S
C93 H98 0.931 . S
C94 N95 1.375 . S
C94 C97 1.350 . S
C94 H99 0.930 . S
N95 Co90 2.057 . S
N95 C93 1.316 . S
N95 C94 1.375 . S
N96 C93 1.347 . S
N96 C97 1.373 . S
C97 C94 1.350 . S
C97 N96 1.373 . S
C97 H118 0.931 . S
H98 C93 0.931 . S
H99 C94 0.930 . S
C100 O107 1.259 . S
C100 O108 1.258 . S
N101 Co92 2.057 . S
N101 C102 1.316 . S
N101 C103 1.375 . S
C102 N101 1.316 . S
C102 N104 1.347 . S
C102 H113 0.931 . S
C103 N101 1.375 . S
C103 C105 1.350 . S
C103 H112 0.930 . S
N104 C102 1.347 . S
N104 C105 1.373 . S
C105 C103 1.350 . S
C105 N104 1.373 . S
C105 H119 0.931 . S
C106 O109 1.256 . S
C106 O110 1.255 . S
O107 Co90 2.021 . S
O107 C100 1.259 . S
O108 Co92 2.117 . S
O108 C100 1.258 . S
O109 Co92 2.020 . S
O109 C106 1.256 . S
O110 Co90 2.062 . S
O110 C106 1.255 . S
O111 C91 1.259 . S
O111 Co92 2.021 . S
H112 C103 0.930 . S
H113 C102 0.931 . S
O114 Co90 2.117 . S
O114 C91 1.258 . S
O115 Co90 2.020 . S
O115 C117 1.256 . S
O116 Co92 2.062 . S
O116 C117 1.255 . S
C117 O115 1.256 . S
C117 O116 1.255 . S
H118 C97 0.931 . S
H119 C105 0.931 . S
Co120 N125 2.057 . S
Co120 O137 2.021 . S
Co120 O140 2.062 . S
Co120 O144 2.117 . S
Co120 O145 2.020 . S
C121 O141 1.259 . S
C121 O144 1.258 . S
Co122 N131 2.057 . S
Co122 O138 2.117 . S
Co122 O139 2.020 . S
Co122 O141 2.021 . S
Co122 O146 2.062 . S
C123 N125 1.316 . S
C123 N126 1.347 . S
C123 H128 0.931 . S
C124 N125 1.375 . S
C124 C127 1.350 . S
C124 H129 0.930 . S
N125 Co120 2.057 . S
N125 C123 1.316 . S
N125 C124 1.375 . S
N126 C123 1.347 . S
N126 C127 1.373 . S
C127 C124 1.350 . S
C127 N126 1.373 . S
C127 H148 0.931 . S
H128 C123 0.931 . S
H129 C124 0.930 . S
C130 O137 1.259 . S
C130 O138 1.258 . S
N131 Co122 2.057 . S
N131 C132 1.316 . S
N131 C133 1.375 . S
C132 N131 1.316 . S
C132 N134 1.347 . S
C132 H143 0.931 . S
C133 N131 1.375 . S
C133 C135 1.350 . S
C133 H142 0.930 . S
N134 C132 1.347 . S
N134 C135 1.373 . S
C135 C133 1.350 . S
C135 N134 1.373 . S
C135 H149 0.931 . S
C136 O139 1.256 . S
C136 O140 1.255 . S
O137 Co120 2.021 . S
O137 C130 1.259 . S
O138 Co122 2.117 . S
O138 C130 1.258 . S
O139 Co122 2.020 . S
O139 C136 1.256 . S
O140 Co120 2.062 . S
O140 C136 1.255 . S
O141 C121 1.259 . S
O141 Co122 2.021 . S
H142 C133 0.930 . S
H143 C132 0.931 . S
O144 Co120 2.117 . S
O144 C121 1.258 . S
O145 Co120 2.020 . S
O145 C147 1.256 . S
O146 Co122 2.062 . S
O146 C147 1.255 . S
C147 O145 1.256 . S
C147 O146 1.255 . S
H148 C127 0.931 . S
H149 C135 0.931 . S
Co150 N155 2.057 . S
Co150 O167 2.021 . S
Co150 O170 2.062 1_556 S
Co150 O174 2.117 . S
Co150 O175 2.020 . S
C151 O171 1.259 . S
C151 O174 1.258 . S
Co152 N161 2.057 . S
Co152 O168 2.117 . S
Co152 O169 2.020 . S
Co152 O171 2.021 . S
Co152 O176 2.062 . S
C153 N155 1.316 . S
C153 N156 1.347 . S
C153 H158 0.931 . S
C154 N155 1.375 . S
C154 C157 1.350 . S
C154 H159 0.930 . S
N155 Co150 2.057 . S
N155 C153 1.316 . S
N155 C154 1.375 . S
N156 C153 1.347 . S
N156 C157 1.373 . S
C157 C154 1.350 . S
C157 N156 1.373 . S
C157 H178 0.931 . S
H158 C153 0.931 . S
H159 C154 0.930 . S
C160 O167 1.259 . S
C160 O168 1.258 . S
N161 Co152 2.057 . S
N161 C162 1.316 . S
N161 C163 1.375 . S
C162 N161 1.316 . S
C162 N164 1.347 . S
C162 H173 0.931 . S
C163 N161 1.375 . S
C163 C165 1.350 . S
C163 H172 0.930 . S
N164 C162 1.347 . S
N164 C165 1.373 . S
C165 C163 1.350 . S
C165 N164 1.373 . S
C165 H179 0.931 . S
C166 O169 1.256 1_554 S
C166 O170 1.255 . S
O167 Co150 2.021 . S
O167 C160 1.259 . S
O168 Co152 2.117 . S
O168 C160 1.258 . S
O169 Co152 2.020 . S
O169 C166 1.256 1_556 S
O170 Co150 2.062 1_554 S
O170 C166 1.255 . S
O171 C151 1.259 . S
O171 Co152 2.021 . S
H172 C163 0.930 . S
H173 C162 0.931 . S
O174 Co150 2.117 . S
O174 C151 1.258 . S
O175 Co150 2.020 . S
O175 C177 1.256 . S
O176 Co152 2.062 . S
O176 C177 1.255 . S
C177 O175 1.256 . S
C177 O176 1.255 . S
H178 C157 0.931 . S
H179 C165 0.931 . S
H180 C186 0.930 1_554 S
H181 C190 0.930 . S
H182 C195 0.929 . S
H183 C193 0.929 . S
H184 C188 0.929 . S
H185 C194 0.929 1_554 S
C186 H180 0.930 1_556 S
C186 C187 1.367 . S
C186 C194 1.378 . S
C187 C186 1.367 . S
C187 C195 1.433 . S
C188 H184 0.929 . S
C188 C190 1.378 . S
C188 C192 1.350 . S
C189 C192 1.463 . S
C189 C194 1.350 . S
C189 N197 1.427 . S
C190 H181 0.930 . S
C190 C188 1.378 . S
C190 C191 1.367 . S
C191 C190 1.367 . S
C191 C193 1.433 1_556 S
C192 C188 1.350 . S
C192 C189 1.463 . S
C192 N196 1.427 1_556 S
C193 H183 0.929 . S
C193 C191 1.433 1_554 S
C193 N196 1.384 . S
C194 H185 0.929 1_556 S
C194 C186 1.378 . S
C194 C189 1.350 . S
C195 H182 0.929 . S
C195 C187 1.433 . S
C195 N197 1.384 . S
N196 C192 1.427 1_554 S
N196 C193 1.384 . S
N197 C189 1.427 . S
N197 C195 1.384 . S
H198 C204 0.930 . S
H199 C208 0.930 . S
H200 C213 0.929 . S
H201 C211 0.929 . S
H202 C206 0.929 . S
H203 C212 0.929 . S
C204 H198 0.930 . S
C204 C205 1.367 . S
C204 C212 1.378 . S
C205 C204 1.367 . S
C205 C213 1.433 . S
C206 H202 0.929 . S
C206 C208 1.378 1_455 S
C206 C210 1.350 . S
C207 C210 1.463 . S
C207 C212 1.350 . S
C207 N215 1.427 . S
C208 H199 0.930 . S
C208 C206 1.378 1_655 S
C208 C209 1.367 . S
C209 C208 1.367 . S
C209 C211 1.433 . S
C210 C206 1.350 . S
C210 C207 1.463 . S
C210 N214 1.427 1_455 S
C211 H201 0.929 . S
C211 C209 1.433 . S
C211 N214 1.384 . S
C212 H203 0.929 . S
C212 C204 1.378 . S
C212 C207 1.350 . S
C213 H200 0.929 . S
C213 C205 1.433 . S
C213 N215 1.384 . S
N214 C210 1.427 1_655 S
N214 C211 1.384 . S
N215 C207 1.427 . S
N215 C213 1.384 . S
H216 C222 0.930 . S
H217 C226 0.930 . S
H218 C231 0.929 . S
H219 C229 0.929 . S
H220 C224 0.929 . S
H221 C230 0.929 . S
C222 H216 0.930 . S
C222 C223 1.367 . S
C222 C230 1.378 . S
C223 C222 1.367 . S
C223 C231 1.433 . S
C224 H220 0.929 . S
C224 C226 1.378 . S
C224 C228 1.350 1_565 S
C225 C228 1.463 . S
C225 C230 1.350 . S
C225 N233 1.427 . S
C226 H217 0.930 . S
C226 C224 1.378 . S
C226 C227 1.367 . S
C227 C226 1.367 . S
C227 C229 1.433 . S
C228 C224 1.350 1_545 S
C228 C225 1.463 . S
C228 N232 1.427 1_545 S
C229 H219 0.929 . S
C229 C227 1.433 . S
C229 N232 1.384 . S
C230 H221 0.929 . S
C230 C222 1.378 . S
C230 C225 1.350 . S
C231 H218 0.929 . S
C231 C223 1.433 . S
C231 N233 1.384 . S
N232 C228 1.427 1_565 S
N232 C229 1.384 . S
N233 C225 1.427 . S
N233 C231 1.384 . S
H234 C240 0.930 . S
H235 C244 0.930 . S
H236 C249 0.929 . S
H237 C247 0.929 . S
H238 C242 0.929 . S
H239 C248 0.929 . S
C240 H234 0.930 . S
C240 C241 1.367 . S
C240 C248 1.378 . S
C241 C240 1.367 . S
C241 C249 1.433 . S
C242 H238 0.929 . S
C242 C244 1.378 . S
C242 C246 1.350 . S
C243 C246 1.463 . S
C243 C248 1.350 . S
C243 N251 1.427 . S
C244 H235 0.930 . S
C244 C242 1.378 . S
C244 C245 1.367 1_556 S
C245 C244 1.367 1_554 S
C245 C247 1.433 . S
C246 C242 1.350 . S
C246 C243 1.463 . S
C246 N250 1.427 1_556 S
C247 H237 0.929 . S
C247 C245 1.433 . S
C247 N250 1.384 . S
C248 H239 0.929 . S
C248 C240 1.378 . S
C248 C243 1.350 . S
C249 H236 0.929 . S
C249 C241 1.433 . S
C249 N251 1.384 . S
N250 C246 1.427 1_554 S
N250 C247 1.384 . S
N251 C243 1.427 . S
N251 C249 1.384 . S
H252 C258 0.930 . S
H253 C262 0.930 . S
H254 C267 0.929 . S
H255 C265 0.929 . S
H256 C260 0.929 . S
H257 C266 0.929 . S
C258 H252 0.930 . S
C258 C259 1.367 . S
C258 C266 1.378 . S
C259 C258 1.367 . S
C259 C267 1.433 . S
C260 H256 0.929 . S
C260 C262 1.378 . S
C260 C264 1.350 1_655 S
C261 C264 1.463 . S
C261 C266 1.350 . S
C261 N269 1.427 . S
C262 H253 0.930 . S
C262 C260 1.378 . S
C262 C263 1.367 . S
C263 C262 1.367 . S
C263 C265 1.433 . S
C264 C260 1.350 1_455 S
C264 C261 1.463 . S
C264 N268 1.427 1_455 S
C265 H255 0.929 . S
C265 C263 1.433 . S
C265 N268 1.384 . S
C266 H257 0.929 . S
C266 C258 1.378 . S
C266 C261 1.350 . S
C267 H254 0.929 . S
C267 C259 1.433 . S
C267 N269 1.384 . S
N268 C264 1.427 1_655 S
N268 C265 1.384 . S
N269 C261 1.427 . S
N269 C267 1.384 . S
H270 C276 0.930 . S
H271 C280 0.930 . S
H272 C285 0.929 . S
H273 C283 0.929 . S
H274 C278 0.929 . S
H275 C284 0.929 . S
C276 H270 0.930 . S
C276 C277 1.367 . S
C276 C284 1.378 . S
C277 C276 1.367 . S
C277 C285 1.433 . S
C278 H274 0.929 . S
C278 C280 1.378 1_545 S
C278 C282 1.350 . S
C279 C282 1.463 . S
C279 C284 1.350 . S
C279 N287 1.427 . S
C280 H271 0.930 . S
C280 C278 1.378 1_565 S
C280 C281 1.367 . S
C281 C280 1.367 . S
C281 C283 1.433 . S
C282 C278 1.350 . S
C282 C279 1.463 . S
C282 N286 1.427 1_545 S
C283 H273 0.929 . S
C283 C281 1.433 . S
C283 N286 1.384 . S
C284 H275 0.929 . S
C284 C276 1.378 . S
C284 C279 1.350 . S
C285 H272 0.929 . S
C285 C277 1.433 . S
C285 N287 1.384 . S
N286 C282 1.427 1_565 S
N286 C283 1.384 . S
N287 C279 1.427 . S
N287 C285 1.384 . S
H288 C294 0.930 . S
H289 C298 0.930 . S
H290 C303 0.929 . S
H291 C301 0.929 . S
H292 C296 0.929 . S
H293 C302 0.929 . S
C294 H288 0.930 . S
C294 C295 1.367 . S
C294 C302 1.378 . S
C295 C294 1.367 . S
C295 C303 1.433 . S
C296 H292 0.929 . S
C296 C298 1.378 . S
C296 C300 1.350 . S
C297 C300 1.463 . S
C297 C302 1.350 . S
C297 N305 1.427 . S
C298 H289 0.930 . S
C298 C296 1.378 . S
C298 C299 1.367 . S
C299 C298 1.367 . S
C299 C301 1.433 . S
C300 C296 1.350 . S
C300 C297 1.463 . S
C300 N304 1.427 . S
C301 H291 0.929 . S
C301 C299 1.433 . S
C301 N304 1.384 . S
C302 H293 0.929 . S
C302 C294 1.378 . S
C302 C297 1.350 . S
C303 H290 0.929 . S
C303 C295 1.433 . S
C303 N305 1.384 . S
N304 C300 1.427 . S
N304 C301 1.384 . S
N305 C297 1.427 . S
N305 C303 1.384 . S
H306 C312 0.930 . S
H307 C316 0.930 . S
H308 C321 0.929 . S
H309 C319 0.929 . S
H310 C314 0.929 . S
H311 C320 0.929 . S
C312 H306 0.930 . S
C312 C313 1.367 . S
C312 C320 1.378 . S
C313 C312 1.367 . S
C313 C321 1.433 . S
C314 H310 0.929 . S
C314 C316 1.378 . S
C314 C318 1.350 . S
C315 C318 1.463 1_554 S
C315 C320 1.350 . S
C315 N323 1.427 . S
C316 H307 0.930 . S
C316 C314 1.378 . S
C316 C317 1.367 . S
C317 C316 1.367 . S
C317 C319 1.433 . S
C318 C314 1.350 . S
C318 C315 1.463 1_556 S
C318 N322 1.427 . S
C319 H309 0.929 . S
C319 C317 1.433 . S
C319 N322 1.384 . S
C320 H311 0.929 . S
C320 C312 1.378 . S
C320 C315 1.350 . S
C321 H308 0.929 . S
C321 C313 1.433 . S
C321 N323 1.384 . S
N322 C318 1.427 . S
N322 C319 1.384 . S
N323 C315 1.427 . S
N323 C321 1.384 . S
H324 C330 0.930 . S
H325 C334 0.930 . S
H326 C339 0.929 . S
H327 C337 0.929 . S
H328 C332 0.929 . S
H329 C338 0.929 . S
C330 H324 0.930 . S
C330 C331 1.367 . S
C330 C338 1.378 . S
C331 C330 1.367 . S
C331 C339 1.433 . S
C332 H328 0.929 . S
C332 C334 1.378 1_554 S
C332 C336 1.350 . S
C333 C336 1.463 . S
C333 C338 1.350 . S
C333 N341 1.427 . S
C334 H325 0.930 . S
C334 C332 1.378 1_556 S
C334 C335 1.367 . S
C335 C334 1.367 . S
C335 C337 1.433 . S
C336 C332 1.350 . S
C336 C333 1.463 . S
C336 N340 1.427 . S
C337 H327 0.929 . S
C337 C335 1.433 . S
C337 N340 1.384 1_556 S
C338 H329 0.929 . S
C338 C330 1.378 . S
C338 C333 1.350 . S
C339 H326 0.929 . S
C339 C331 1.433 . S
C339 N341 1.384 . S
N340 C336 1.427 . S
N340 C337 1.384 1_554 S
N341 C333 1.427 . S
N341 C339 1.384 . S
H342 C348 0.930 . S
H343 C352 0.930 . S
H344 C357 0.929 . S
H345 C355 0.929 . S
H346 C350 0.929 . S
H347 C356 0.929 . S
C348 H342 0.930 . S
C348 C349 1.367 . S
C348 C356 1.378 . S
C349 C348 1.367 . S
C349 C357 1.433 . S
C350 H346 0.929 . S
C350 C352 1.378 . S
C350 C354 1.350 . S
C351 C354 1.463 . S
C351 C356 1.350 . S
C351 N359 1.427 . S
C352 H343 0.930 . S
C352 C350 1.378 . S
C352 C353 1.367 . S
C353 C352 1.367 . S
C353 C355 1.433 . S
C354 C350 1.350 . S
C354 C351 1.463 . S
C354 N358 1.427 . S
C355 H345 0.929 . S
C355 C353 1.433 . S
C355 N358 1.384 . S
C356 H347 0.929 . S
C356 C348 1.378 . S
C356 C351 1.350 . S
C357 H344 0.929 . S
C357 C349 1.433 . S
C357 N359 1.384 . S
N358 C354 1.427 . S
N358 C355 1.384 . S
N359 C351 1.427 . S
N359 C357 1.384 . S
H360 C366 0.930 . S
H361 C370 0.930 . S
H362 C375 0.929 . S
H363 C373 0.929 . S
H364 C368 0.929 . S
H365 C374 0.929 . S
C366 H360 0.930 . S
C366 C367 1.367 . S
C366 C374 1.378 . S
C367 C366 1.367 . S
C367 C375 1.433 . S
C368 H364 0.929 . S
C368 C370 1.378 1_556 S
C368 C372 1.350 . S
C369 C372 1.463 . S
C369 C374 1.350 . S
C369 N377 1.427 . S
C370 H361 0.930 . S
C370 C368 1.378 1_554 S
C370 C371 1.367 . S
C371 C370 1.367 . S
C371 C373 1.433 . S
C372 C368 1.350 . S
C372 C369 1.463 . S
C372 N376 1.427 . S
C373 H363 0.929 . S
C373 C371 1.433 . S
C373 N376 1.384 1_554 S
C374 H365 0.929 . S
C374 C366 1.378 . S
C374 C369 1.350 . S
C375 H362 0.929 . S
C375 C367 1.433 . S
C375 N377 1.384 . S
N376 C372 1.427 . S
N376 C373 1.384 1_556 S
N377 C369 1.427 . S
N377 C375 1.384 . S
H378 C384 0.930 . S
H379 C388 0.930 . S
H380 C393 0.929 . S
H381 C391 0.929 . S
H382 C386 0.929 . S
H383 C392 0.929 . S
C384 H378 0.930 . S
C384 C385 1.367 . S
C384 C392 1.378 . S
C385 C384 1.367 . S
C385 C393 1.433 . S
C386 H382 0.929 . S
C386 C388 1.378 . S
C386 C390 1.350 . S
C387 C390 1.463 . S
C387 C392 1.350 . S
C387 N395 1.427 . S
C388 H379 0.930 . S
C388 C386 1.378 . S
C388 C389 1.367 . S
C389 C388 1.367 . S
C389 C391 1.433 . S
C390 C386 1.350 . S
C390 C387 1.463 . S
C390 N394 1.427 . S
C391 H381 0.929 . S
C391 C389 1.433 . S
C391 N394 1.384 . S
C392 H383 0.929 . S
C392 C384 1.378 . S
C392 C387 1.350 . S
C393 H380 0.929 . S
C393 C385 1.433 . S
C393 N395 1.384 . S
N394 C390 1.427 . S
N394 C391 1.384 . S
N395 C387 1.427 . S
N395 C393 1.384 . S
H396 C402 0.930 . S
H397 C406 0.930 . S
H398 C411 0.929 . S
H399 C409 0.929 . S
H400 C404 0.929 . S
H401 C410 0.929 1_556 S
C402 H396 0.930 . S
C402 C403 1.367 1_556 S
C402 C410 1.378 1_556 S
C403 C402 1.367 1_554 S
C403 C411 1.433 . S
C404 H400 0.929 . S
C404 C406 1.378 . S
C404 C408 1.350 . S
C405 C408 1.463 . S
C405 C410 1.350 . S
C405 N413 1.427 . S
C406 H397 0.930 . S
C406 C404 1.378 . S
C406 C407 1.367 . S
C407 C406 1.367 . S
C407 C409 1.433 . S
C408 C404 1.350 . S
C408 C405 1.463 . S
C408 N412 1.427 . S
C409 H399 0.929 . S
C409 C407 1.433 . S
C409 N412 1.384 . S
C410 H401 0.929 1_554 S
C410 C402 1.378 1_554 S
C410 C405 1.350 . S
C411 H398 0.929 . S
C411 C403 1.433 . S
C411 N413 1.384 . S
N412 C408 1.427 . S
N412 C409 1.384 . S
N413 C405 1.427 . S
N413 C411 1.384 . S
H414 C420 0.930 . S
H415 C424 0.930 . S
H416 C429 0.929 . S
H417 C427 0.929 . S
H418 C422 0.929 . S
H419 C428 0.929 . S
C420 H414 0.930 . S
C420 C421 1.367 . S
C420 C428 1.378 . S
C421 C420 1.367 . S
C421 C429 1.433 . S
C422 H418 0.929 . S
C422 C424 1.378 . S
C422 C426 1.350 . S
C423 C426 1.463 . S
C423 C428 1.350 . S
C423 N431 1.427 . S
C424 H415 0.930 . S
C424 C422 1.378 . S
C424 C425 1.367 . S
C425 C424 1.367 . S
C425 C427 1.433 . S
C426 C422 1.350 . S
C426 C423 1.463 . S
C426 N430 1.427 . S
C427 H417 0.929 . S
C427 C425 1.433 . S
C427 N430 1.384 . S
C428 H419 0.929 . S
C428 C420 1.378 . S
C428 C423 1.350 . S
C429 H416 0.929 . S
C429 C421 1.433 . S
C429 N431 1.384 . S
N430 C426 1.427 . S
N430 C427 1.384 . S
N431 C423 1.427 . S
N431 C429 1.384 . S
H432 C438 0.930 . S
H433 C442 0.930 . S
H434 C447 0.929 . S
H435 C445 0.929 . S
H436 C440 0.929 . S
H437 C446 0.929 . S
C438 H432 0.930 . S
C438 C439 1.367 . S
C438 C446 1.378 . S
C439 C438 1.367 . S
C439 C447 1.433 . S
C440 H436 0.929 . S
C440 C442 1.378 . S
C440 C444 1.350 . S
C441 C444 1.463 . S
C441 C446 1.350 . S
C441 N449 1.427 . S
C442 H433 0.930 . S
C442 C440 1.378 . S
C442 C443 1.367 . S
C443 C442 1.367 . S
C443 C445 1.433 . S
C444 C440 1.350 . S
C444 C441 1.463 . S
C444 N448 1.427 . S
C445 H435 0.929 . S
C445 C443 1.433 . S
C445 N448 1.384 . S
C446 H437 0.929 . S
C446 C438 1.378 . S
C446 C441 1.350 . S
C447 H434 0.929 . S
C447 C439 1.433 . S
C447 N449 1.384 . S
N448 C444 1.427 . S
N448 C445 1.384 . S
N449 C441 1.427 . S
N449 C447 1.384 . S
H450 C456 0.930 . S
H451 C460 0.930 . S
H452 C465 0.929 . S
H453 C463 0.929 . S
H454 C458 0.929 . S
H455 C464 0.929 . S
C456 H450 0.930 . S
C456 C457 1.367 . S
C456 C464 1.378 . S
C457 C456 1.367 . S
C457 C465 1.433 . S
C458 H454 0.929 . S
C458 C460 1.378 . S
C458 C462 1.350 . S
C459 C462 1.463 . S
C459 C464 1.350 . S
C459 N467 1.427 . S
C460 H451 0.930 . S
C460 C458 1.378 . S
C460 C461 1.367 . S
C461 C460 1.367 . S
C461 C463 1.433 . S
C462 C458 1.350 . S
C462 C459 1.463 . S
C462 N466 1.427 . S
C463 H453 0.929 . S
C463 C461 1.433 . S
C463 N466 1.384 . S
C464 H455 0.929 . S
C464 C456 1.378 . S
C464 C459 1.350 . S
C465 H452 0.929 . S
C465 C457 1.433 . S
C465 N467 1.384 . S
N466 C462 1.427 . S
N466 C463 1.384 . S
N467 C459 1.427 . S
N467 C465 1.384 . S
H468 C474 0.930 . S
H469 C478 0.930 . S
H470 C483 0.929 . S
H471 C481 0.929 . S
H472 C476 0.929 . S
H473 C482 0.929 . S
C474 H468 0.930 . S
C474 C475 1.367 . S
C474 C482 1.378 . S
C475 C474 1.367 . S
C475 C483 1.433 . S
C476 H472 0.929 . S
C476 C478 1.378 . S
C476 C480 1.350 . S
C477 C480 1.463 . S
C477 C482 1.350 . S
C477 N485 1.427 . S
C478 H469 0.930 . S
C478 C476 1.378 . S
C478 C479 1.367 . S
C479 C478 1.367 . S
C479 C481 1.433 . S
C480 C476 1.350 . S
C480 C477 1.463 . S
C480 N484 1.427 . S
C481 H471 0.929 . S
C481 C479 1.433 . S
C481 N484 1.384 . S
C482 H473 0.929 . S
C482 C474 1.378 . S
C482 C477 1.350 . S
C483 H470 0.929 . S
C483 C475 1.433 . S
C483 N485 1.384 . S
N484 C480 1.427 . S
N484 C481 1.384 . S
N485 C477 1.427 . S
N485 C483 1.384 . S
H486 C492 0.930 . S
H487 C496 0.930 . S
H488 C501 0.929 . S
H489 C499 0.929 . S
H490 C494 0.929 . S
H491 C500 0.929 . S
C492 H486 0.930 . S
C492 C493 1.367 . S
C492 C500 1.378 . S
C493 C492 1.367 . S
C493 C501 1.433 . S
C494 H490 0.929 . S
C494 C496 1.378 . S
C494 C498 1.350 1_556 S
C495 C498 1.463 . S
C495 C500 1.350 . S
C495 N503 1.427 . S
C496 H487 0.930 . S
C496 C494 1.378 . S
C496 C497 1.367 . S
C497 C496 1.367 . S
C497 C499 1.433 1_556 S
C498 C494 1.350 1_554 S
C498 C495 1.463 . S
C498 N502 1.427 . S
C499 H489 0.929 . S
C499 C497 1.433 1_554 S
C499 N502 1.384 . S
C500 H491 0.929 . S
C500 C492 1.378 . S
C500 C495 1.350 . S
C501 H488 0.929 . S
C501 C493 1.433 . S
C501 N503 1.384 . S
N502 C498 1.427 . S
N502 C499 1.384 . S
N503 C495 1.427 . S
N503 C501 1.384 . S
C187 C160 1.621 . S
C191 C10 1.615 . S
C205 N14 1.491 . S
C209 N44 1.492 . S
C223 C40 1.618 . S
C227 C70 1.619 . S
C241 N74 1.491 . S
C245 N104 1.490 . S
C259 C130 1.616 . S
C263 C100 1.620 . S
C277 N164 1.492 . S
C281 N134 1.492 . S
C295 C16 1.027 . S
C299 C27 1.027 . S
C313 C57 1.026 . S
C317 C46 1.026 . S
C331 C76 1.031 . S
C335 C87 1.031 . S
C349 C117 1.026 1_556 S
C353 C106 1.026 . S
C367 C147 1.033 . S
C371 C136 1.033 . S
C385 C177 1.025 . S
C389 C166 1.025 . S
C403 C1 1.623 . S
C407 N126 1.484 . S
C421 N36 1.490 . S
C425 C151 1.624 . S
C439 N6 1.481 . S
C443 C61 1.622 . S
C457 C31 1.624 . S
C461 N96 1.487 . S
C475 C121 1.623 . S
C479 N66 1.501 . S
C493 C91 1.624 . S
C497 N156 1.494 . S
