# Generated by pormake.
# Topology uox, (4)-cn, num edge types: 1
# Building blocks:
#     Node 0, Type 0, BuildingBlock: AZAVOO_clean_sbu_0, # of connection points: 4
#     Node 1, Type 0, BuildingBlock: AZAVOO_clean_sbu_0, # of connection points: 4
#     Node 2, Type 0, BuildingBlock: AZAVOO_clean_sbu_0, # of connection points: 4
#     Node 3, Type 0, BuildingBlock: AZAVOO_clean_sbu_0, # of connection points: 4
#     Node 4, Type 0, BuildingBlock: AZAVOO_clean_sbu_0, # of connection points: 4
#     Node 5, Type 0, BuildingBlock: AZAVOO_clean_sbu_0, # of connection points: 4
#     Node 6, Type 0, BuildingBlock: AZAVOO_clean_sbu_0, # of connection points: 4
#     Node 7, Type 0, BuildingBlock: AZAVOO_clean_sbu_0, # of connection points: 4
#     Node 8, Type 0, BuildingBlock: AZAVOO_clean_sbu_0, # of connection points: 4
#     Node 9, Type 0, BuildingBlock: AZAVOO_clean_sbu_0, # of connection points: 4
#     Node 10, Type 0, BuildingBlock: AZAVOO_clean_sbu_0, # of connection points: 4
#     Node 11, Type 0, BuildingBlock: AZAVOO_clean_sbu_0, # of connection points: 4
#     Node 12, Type 0, BuildingBlock: AZAVOO_clean_sbu_0, # of connection points: 4
#     Node 13, Type 0, BuildingBlock: AZAVOO_clean_sbu_0, # of connection points: 4
#     Node 14, Type 0, BuildingBlock: AZAVOO_clean_sbu_0, # of connection points: 4
#     Node 15, Type 0, BuildingBlock: AZAVOO_clean_sbu_0, # of connection points: 4
#     Node 16, Type 0, BuildingBlock: AZAVOO_clean_sbu_0, # of connection points: 4
#     Node 17, Type 0, BuildingBlock: AZAVOO_clean_sbu_0, # of connection points: 4
#     Node 18, Type 0, BuildingBlock: AZAVOO_clean_sbu_0, # of connection points: 4
#     Node 19, Type 0, BuildingBlock: AZAVOO_clean_sbu_0, # of connection points: 4
#     Node 20, Type 0, BuildingBlock: AZAVOO_clean_sbu_0, # of connection points: 4
#     Node 21, Type 0, BuildingBlock: AZAVOO_clean_sbu_0, # of connection points: 4
#     Node 22, Type 0, BuildingBlock: AZAVOO_clean_sbu_0, # of connection points: 4
#     Node 23, Type 0, BuildingBlock: AZAVOO_clean_sbu_0, # of connection points: 4
#     Node 24, Type 0, BuildingBlock: AZAVOO_clean_sbu_0, # of connection points: 4
#     Node 25, Type 0, BuildingBlock: AZAVOO_clean_sbu_0, # of connection points: 4
#     Node 26, Type 0, BuildingBlock: AZAVOO_clean_sbu_0, # of connection points: 4
#     Node 27, Type 0, BuildingBlock: AZAVOO_clean_sbu_0, # of connection points: 4
#     Node 28, Type 0, BuildingBlock: AZAVOO_clean_sbu_0, # of connection points: 4
#     Node 29, Type 0, BuildingBlock: AZAVOO_clean_sbu_0, # of connection points: 4
#     Node 30, Type 0, BuildingBlock: AZAVOO_clean_sbu_0, # of connection points: 4
#     Node 31, Type 0, BuildingBlock: AZAVOO_clean_sbu_0, # of connection points: 4
#     Edge 32, Type (0, 0), BuildingBlock: CIFDUS_clean_linker_0, # of connection points: 2
#     Edge 33, Type (0, 0), BuildingBlock: CIFDUS_clean_linker_0, # of connection points: 2
#     Edge 34, Type (0, 0), BuildingBlock: CIFDUS_clean_linker_0, # of connection points: 2
#     Edge 35, Type (0, 0), BuildingBlock: CIFDUS_clean_linker_0, # of connection points: 2
#     Edge 36, Type (0, 0), BuildingBlock: CIFDUS_clean_linker_0, # of connection points: 2
#     Edge 37, Type (0, 0), BuildingBlock: CIFDUS_clean_linker_0, # of connection points: 2
#     Edge 38, Type (0, 0), BuildingBlock: CIFDUS_clean_linker_0, # of connection points: 2
#     Edge 39, Type (0, 0), BuildingBlock: CIFDUS_clean_linker_0, # of connection points: 2
#     Edge 40, Type (0, 0), BuildingBlock: CIFDUS_clean_linker_0, # of connection points: 2
#     Edge 41, Type (0, 0), BuildingBlock: CIFDUS_clean_linker_0, # of connection points: 2
#     Edge 42, Type (0, 0), BuildingBlock: CIFDUS_clean_linker_0, # of connection points: 2
#     Edge 43, Type (0, 0), BuildingBlock: CIFDUS_clean_linker_0, # of connection points: 2
#     Edge 44, Type (0, 0), BuildingBlock: CIFDUS_clean_linker_0, # of connection points: 2
#     Edge 45, Type (0, 0), BuildingBlock: CIFDUS_clean_linker_0, # of connection points: 2
#     Edge 46, Type (0, 0), BuildingBlock: CIFDUS_clean_linker_0, # of connection points: 2
#     Edge 47, Type (0, 0), BuildingBlock: CIFDUS_clean_linker_0, # of connection points: 2
#     Edge 48, Type (0, 0), BuildingBlock: CIFDUS_clean_linker_0, # of connection points: 2
#     Edge 49, Type (0, 0), BuildingBlock: CIFDUS_clean_linker_0, # of connection points: 2
#     Edge 50, Type (0, 0), BuildingBlock: CIFDUS_clean_linker_0, # of connection points: 2
#     Edge 51, Type (0, 0), BuildingBlock: CIFDUS_clean_linker_0, # of connection points: 2
#     Edge 52, Type (0, 0), BuildingBlock: CIFDUS_clean_linker_0, # of connection points: 2
#     Edge 53, Type (0, 0), BuildingBlock: CIFDUS_clean_linker_0, # of connection points: 2
#     Edge 54, Type (0, 0), BuildingBlock: CIFDUS_clean_linker_0, # of connection points: 2
#     Edge 55, Type (0, 0), BuildingBlock: CIFDUS_clean_linker_0, # of connection points: 2
#     Edge 56, Type (0, 0), BuildingBlock: CIFDUS_clean_linker_0, # of connection points: 2
#     Edge 57, Type (0, 0), BuildingBlock: CIFDUS_clean_linker_0, # of connection points: 2
#     Edge 58, Type (0, 0), BuildingBlock: CIFDUS_clean_linker_0, # of connection points: 2
#     Edge 59, Type (0, 0), BuildingBlock: CIFDUS_clean_linker_0, # of connection points: 2
#     Edge 60, Type (0, 0), BuildingBlock: CIFDUS_clean_linker_0, # of connection points: 2
#     Edge 61, Type (0, 0), BuildingBlock: CIFDUS_clean_linker_0, # of connection points: 2
#     Edge 62, Type (0, 0), BuildingBlock: CIFDUS_clean_linker_0, # of connection points: 2
#     Edge 63, Type (0, 0), BuildingBlock: CIFDUS_clean_linker_0, # of connection points: 2
#     Edge 64, Type (0, 0), BuildingBlock: CIFDUS_clean_linker_0, # of connection points: 2
#     Edge 65, Type (0, 0), BuildingBlock: CIFDUS_clean_linker_0, # of connection points: 2
#     Edge 66, Type (0, 0), BuildingBlock: CIFDUS_clean_linker_0, # of connection points: 2
#     Edge 67, Type (0, 0), BuildingBlock: CIFDUS_clean_linker_0, # of connection points: 2
#     Edge 68, Type (0, 0), BuildingBlock: CIFDUS_clean_linker_0, # of connection points: 2
#     Edge 69, Type (0, 0), BuildingBlock: CIFDUS_clean_linker_0, # of connection points: 2
#     Edge 70, Type (0, 0), BuildingBlock: CIFDUS_clean_linker_0, # of connection points: 2
#     Edge 71, Type (0, 0), BuildingBlock: CIFDUS_clean_linker_0, # of connection points: 2
#     Edge 72, Type (0, 0), BuildingBlock: CIFDUS_clean_linker_0, # of connection points: 2
#     Edge 73, Type (0, 0), BuildingBlock: CIFDUS_clean_linker_0, # of connection points: 2
#     Edge 74, Type (0, 0), BuildingBlock: CIFDUS_clean_linker_0, # of connection points: 2
#     Edge 75, Type (0, 0), BuildingBlock: CIFDUS_clean_linker_0, # of connection points: 2
#     Edge 76, Type (0, 0), BuildingBlock: CIFDUS_clean_linker_0, # of connection points: 2
#     Edge 77, Type (0, 0), BuildingBlock: CIFDUS_clean_linker_0, # of connection points: 2
#     Edge 78, Type (0, 0), BuildingBlock: CIFDUS_clean_linker_0, # of connection points: 2
#     Edge 79, Type (0, 0), BuildingBlock: CIFDUS_clean_linker_0, # of connection points: 2
#     Edge 80, Type (0, 0), BuildingBlock: CIFDUS_clean_linker_0, # of connection points: 2
#     Edge 81, Type (0, 0), BuildingBlock: CIFDUS_clean_linker_0, # of connection points: 2
#     Edge 82, Type (0, 0), BuildingBlock: CIFDUS_clean_linker_0, # of connection points: 2
#     Edge 83, Type (0, 0), BuildingBlock: CIFDUS_clean_linker_0, # of connection points: 2
#     Edge 84, Type (0, 0), BuildingBlock: CIFDUS_clean_linker_0, # of connection points: 2
#     Edge 85, Type (0, 0), BuildingBlock: CIFDUS_clean_linker_0, # of connection points: 2
#     Edge 86, Type (0, 0), BuildingBlock: CIFDUS_clean_linker_0, # of connection points: 2
#     Edge 87, Type (0, 0), BuildingBlock: CIFDUS_clean_linker_0, # of connection points: 2
#     Edge 88, Type (0, 0), BuildingBlock: CIFDUS_clean_linker_0, # of connection points: 2
#     Edge 89, Type (0, 0), BuildingBlock: CIFDUS_clean_linker_0, # of connection points: 2
#     Edge 90, Type (0, 0), BuildingBlock: CIFDUS_clean_linker_0, # of connection points: 2
#     Edge 91, Type (0, 0), BuildingBlock: CIFDUS_clean_linker_0, # of connection points: 2
#     Edge 92, Type (0, 0), BuildingBlock: CIFDUS_clean_linker_0, # of connection points: 2
#     Edge 93, Type (0, 0), BuildingBlock: CIFDUS_clean_linker_0, # of connection points: 2
#     Edge 94, Type (0, 0), BuildingBlock: CIFDUS_clean_linker_0, # of connection points: 2
#     Edge 95, Type (0, 0), BuildingBlock: CIFDUS_clean_linker_0, # of connection points: 2
# Relax obj value: 0.134
# Max RMSD: 0.161
# Mean RMSD: 0.161
data_MOF--net-uox--node1-AZAVOO_clean_sbu_0--edge1-CIFDUS_clean_linker_0
_symmetry_space_group_name_H-M    P1
_symmetry_Int_Tables_number       1
_symmetry_cell_setting            triclinic
loop_
_symmetry_equiv_pos_as_xyz
'x, y, z'
_cell_length_a     37.375756
_cell_length_b     37.414239
_cell_length_c     71.506202
_cell_angle_alpha  89.964726
_cell_angle_beta   89.999073
_cell_angle_gamma 89.908823
loop_
_atom_site_label
_atom_site_type_symbol
_atom_site_fract_x
_atom_site_fract_y
_atom_site_fract_z
_atom_type_partial_charge
Mg0 Mg 0.4949 1.00201 0.15181 0.0
O1 O 0.44583 0.03943 0.1525 0.0
O2 O 0.40272 0.01081 0.16813 0.0
Mg3 Mg 0.42252 0.95496 0.17639 0.0
C4 C 0.41418 0.03815 0.15926 0.0
C5 C 0.55162 0.0425 0.12846 0.0
O6 O 0.55045 0.01117 0.1202 0.0
O7 O 0.5064 0.01285 0.18289 0.0
O8 O 0.46428 0.97844 0.19604 0.0
O9 O 0.4741 0.9768 0.12535 0.0
O10 O 0.46151 0.95745 0.15367 0.0
C11 C 0.49183 0.99841 0.1972 0.0
C12 C 0.45653 0.95495 0.13596 0.0
O13 O 0.53109 0.04816 0.14235 0.0
Mg14 Mg 0.24727 0.23397 0.40061 0.0
O15 O 0.20722 0.18715 0.40042 0.0
O16 O 0.2325 0.14253 0.41646 0.0
Mg17 Mg 0.28917 0.1586 0.42541 0.0
C18 C 0.20635 0.15551 0.40715 0.0
C19 C 0.20772 0.29094 0.37625 0.0
O20 O 0.23753 0.28659 0.36677 0.0
O21 O 0.23629 0.24586 0.43174 0.0
O22 O 0.26837 0.2019 0.44494 0.0
O23 O 0.27354 0.21225 0.37441 0.0
O24 O 0.29014 0.19833 0.40299 0.0
C25 C 0.25002 0.2306 0.44606 0.0
C26 C 0.2941 0.1938 0.38535 0.0
O27 O 0.20299 0.27257 0.39103 0.0
Mg28 Mg 0.02591 1.00061 0.64821 0.0
O29 O 0.07423 0.96215 0.64829 0.0
O30 O 0.11738 0.98876 0.66479 0.0
Mg31 Mg 0.09872 0.04457 0.67387 0.0
C32 C 0.10569 0.9623 0.65531 0.0
C33 C 0.9664 0.96283 0.62532 0.0
O34 O 0.96607 0.99514 0.6181 0.0
O35 O 0.01375 0.98814 0.67903 0.0
O36 O 0.05596 0.02119 0.69302 0.0
O37 O 0.04726 0.0277 0.62229 0.0
O38 O 0.0599 0.04442 0.65103 0.0
C39 C 0.02805 1.00163 0.69365 0.0
C40 C 0.06483 0.04859 0.63342 0.0
O41 O 0.98894 0.95573 0.63814 0.0
Mg42 Mg 0.26258 0.76993 0.89797 0.0
O43 O 0.30272 0.81584 0.89388 0.0
O44 O 0.2802 0.86434 0.90773 0.0
Mg45 Mg 0.22485 0.85078 0.91974 0.0
C46 C 0.3049 0.84877 0.89844 0.0
C47 C 0.30335 0.71326 0.87344 0.0
O48 O 0.27646 0.7209 0.86229 0.0
O49 O 0.27727 0.76409 0.92908 0.0
O50 O 0.24777 0.81125 0.94085 0.0
O51 O 0.23264 0.78686 0.87179 0.0
O52 O 0.22036 0.80628 0.90007 0.0
C53 C 0.26581 0.78253 0.9429 0.0
C54 C 0.21365 0.80731 0.88253 0.0
O55 O 0.30559 0.7293 0.88909 0.0
Mg56 Mg 0.48787 1.0022 0.35027 0.0
O57 O 0.44207 0.9607 0.35013 0.0
O58 O 0.39826 0.98479 0.33292 0.0
Mg59 Mg 0.41328 0.04149 0.32376 0.0
C60 C 0.411 0.9591 0.34266 0.0
C61 C 0.5499 0.97247 0.37347 0.0
O62 O 0.54667 0.00588 0.37889 0.0
O63 O 0.50163 0.98968 0.31961 0.0
O64 O 0.45802 0.02029 0.30518 0.0
O65 O 0.46449 0.0285 0.37588 0.0
O66 O 0.45092 0.04379 0.34704 0.0
C67 C 0.48699 1.00224 0.30483 0.0
C68 C 0.44562 0.04802 0.36463 0.0
O69 O 0.52821 0.96072 0.36122 0.0
Mg70 Mg 0.25378 0.24432 0.59878 0.0
O71 O 0.29742 0.2011 0.60151 0.0
O72 O 0.27832 0.15265 0.58631 0.0
Mg73 Mg 0.22216 0.16346 0.57464 0.0
C74 C 0.30194 0.16893 0.59599 0.0
C75 C 0.28078 0.3082 0.62198 0.0
O76 O 0.24731 0.30478 0.62731 0.0
O77 O 0.26836 0.25471 0.56794 0.0
O78 O 0.2427 0.20661 0.55491 0.0
O79 O 0.22581 0.22279 0.62439 0.0
O80 O 0.21441 0.20512 0.59567 0.0
C81 C 0.25854 0.23669 0.55363 0.0
C82 C 0.20835 0.20188 0.61324 0.0
O83 O 0.2929 0.28679 0.60969 0.0
Mg84 Mg 0.01543 0.99317 0.84667 0.0
O85 O 0.06082 0.03483 0.84805 0.0
O86 O 0.10687 0.01192 0.83212 0.0
Mg87 Mg 0.09296 0.95568 0.82175 0.0
C88 C 0.09269 0.03707 0.84167 0.0
C89 C 0.95168 0.02286 0.86893 0.0
O90 O 0.95323 0.98909 0.87393 0.0
O91 O 1.00439 0.00702 0.81584 0.0
O92 O 0.05005 0.97788 0.80233 0.0
O93 O 0.03716 0.96597 0.87246 0.0
O94 O 0.0527 0.95185 0.84373 0.0
C95 C 0.0209 0.99557 0.80137 0.0
C96 C 0.05691 0.94705 0.86134 0.0
O97 O 0.97469 0.03446 0.85731 0.0
Mg98 Mg 0.26088 0.76973 0.0963 0.0
O99 O 0.21766 0.81322 0.09989 0.0
O100 O 0.23777 0.86244 0.08572 0.0
Mg101 Mg 0.29417 0.85208 0.07426 0.0
C102 C 0.21371 0.84583 0.09495 0.0
C103 C 0.2337 0.70422 0.11776 0.0
O104 O 0.26706 0.7077 0.12327 0.0
O105 O 0.24681 0.76239 0.0652 0.0
O106 O 0.27392 0.81085 0.05336 0.0
O107 O 0.28888 0.78827 0.12254 0.0
O108 O 0.30077 0.80856 0.09435 0.0
C109 C 0.25753 0.78121 0.05135 0.0
C110 C 0.30687 0.80986 0.11198 0.0
O111 O 0.2214 0.72647 0.10593 0.0
Mg112 Mg 0.51651 0.01944 0.84379 0.0
O113 O 0.55952 0.97614 0.84789 0.0
O114 O 0.60931 0.99452 0.8336 0.0
Mg115 Mg 0.59924 0.05005 0.82096 0.0
C116 C 0.59216 0.97137 0.84319 0.0
C117 C 0.45086 0.99283 0.86594 0.0
O118 O 0.45325 0.02655 0.87091 0.0
O119 O 0.5085 1.00348 0.81298 0.0
O120 O 0.55766 0.02844 0.8006 0.0
O121 O 0.53636 0.04838 0.86946 0.0
O122 O 0.55582 0.05868 0.84092 0.0
C123 C 0.52767 0.01251 0.79893 0.0
C124 C 0.558 0.06535 0.85846 0.0
O125 O 0.4735 0.98054 0.85431 0.0
Mg126 Mg 0.76013 0.77002 0.59592 0.0
O127 O 0.79943 0.81735 0.59529 0.0
O128 O 0.77282 0.86166 0.5796 0.0
Mg129 Mg 0.71621 0.84438 0.57118 0.0
C130 C 0.79957 0.849 0.58856 0.0
C131 C 0.80071 0.71204 0.61933 0.0
O132 O 0.77018 0.71379 0.62839 0.0
O133 O 0.77041 0.75788 0.56477 0.0
O134 O 0.73775 0.80149 0.55162 0.0
O135 O 0.7348 0.79235 0.62225 0.0
O136 O 0.71674 0.80497 0.59373 0.0
C137 C 0.75648 0.77304 0.55047 0.0
C138 C 0.71367 0.81027 0.61136 0.0
O139 O 0.80542 0.73236 0.60526 0.0
Mg140 Mg 0.98668 0.99935 0.34389 0.0
O141 O 0.93766 0.03684 0.34341 0.0
O142 O 0.89425 0.00828 0.32801 0.0
Mg143 Mg 0.91382 0.95245 0.31961 0.0
C144 C 0.90589 0.0356 0.33681 0.0
C145 C 0.04351 0.03979 0.36721 0.0
O146 O 0.04201 0.00861 0.37564 0.0
O147 O 0.99761 0.01032 0.31272 0.0
O148 O 0.95518 0.97604 0.29977 0.0
O149 O 0.96619 0.9737 0.37041 0.0
O150 O 0.95335 0.95483 0.34205 0.0
C151 C 0.98272 0.99599 0.29848 0.0
C152 C 0.94864 0.95192 0.35975 0.0
O153 O 0.02312 0.04538 0.35325 0.0
Mg154 Mg 0.75204 0.23923 0.09348 0.0
O155 O 0.71307 0.19155 0.09418 0.0
O156 O 0.73966 0.14666 0.07896 0.0
Mg157 Mg 0.79605 0.16361 0.06995 0.0
C158 C 0.71305 0.15955 0.08794 0.0
C159 C 0.71221 0.29785 0.11633 0.0
O160 O 0.74289 0.29573 0.12524 0.0
O161 O 0.74111 0.24918 0.06216 0.0
O162 O 0.77423 0.20519 0.04971 0.0
O163 O 0.77844 0.21918 0.12006 0.0
O164 O 0.79565 0.20461 0.09166 0.0
C165 C 0.75521 0.23337 0.04811 0.0
C166 C 0.79949 0.20079 0.10935 0.0
O167 O 0.70692 0.27735 0.10241 0.0
Mg168 Mg 0.52449 0.00676 0.64582 0.0
O169 O 0.56689 0.05061 0.64144 0.0
O170 O 0.61616 0.03326 0.65659 0.0
Mg171 Mg 0.60691 0.97774 0.66943 0.0
C172 C 0.59921 0.05591 0.64656 0.0
C173 C 0.45838 0.03191 0.6235 0.0
O174 O 0.46198 0.99843 0.61827 0.0
O175 O 0.5156 0.02332 0.67641 0.0
O176 O 0.56424 0.99863 0.68953 0.0
O177 O 0.54465 0.97703 0.62047 0.0
O178 O 0.5644 0.96799 0.64906 0.0
C179 C 0.53404 0.01442 0.69074 0.0
C180 C 0.56643 0.96048 0.63161 0.0
O181 O 0.48062 0.04464 0.63518 0.0
Mg182 Mg 0.75672 0.76125 0.39753 0.0
O183 O 0.7126 0.80397 0.39429 0.0
O184 O 0.73122 0.85271 0.40941 0.0
Mg185 Mg 0.78767 0.8429 0.42099 0.0
C186 C 0.70775 0.83614 0.39976 0.0
C187 C 0.73163 0.69505 0.37581 0.0
O188 O 0.76556 0.69786 0.37122 0.0
O189 O 0.74194 0.75187 0.42836 0.0
O190 O 0.7676 0.80017 0.44119 0.0
O191 O 0.78461 0.78159 0.37172 0.0
O192 O 0.79573 0.80085 0.40021 0.0
C193 C 0.75175 0.7701 0.44259 0.0
C194 C 0.80195 0.80313 0.3826 0.0
O195 O 0.71842 0.71784 0.38707 0.0
Mg196 Mg 0.99248 0.00923 0.14538 0.0
O197 O 0.9491 0.9663 0.14119 0.0
O198 O 0.90013 0.98497 0.15619 0.0
Mg199 Mg 0.91076 0.04017 0.16902 0.0
C200 C 0.91662 0.96184 0.14626 0.0
C201 C 0.05842 0.98347 0.12338 0.0
O202 O 0.0555 0.01726 0.11857 0.0
O203 O 1.00095 0.99229 0.17593 0.0
O204 O 0.95271 0.01771 0.18906 0.0
O205 O 0.97277 0.03894 0.11996 0.0
O206 O 0.95332 0.04876 0.14855 0.0
C207 C 0.98255 1.00123 0.19025 0.0
C208 C 0.95119 0.05587 0.13104 0.0
O209 O 0.03565 0.97056 0.13473 0.0
Mg210 Mg 0.75968 0.24609 0.89483 0.0
O211 O 0.80044 0.20027 0.89194 0.0
O212 O 0.77792 0.15242 0.90636 0.0
Mg213 Mg 0.72199 0.16635 0.91757 0.0
C214 C 0.80282 0.16765 0.89709 0.0
C215 C 0.79672 0.30581 0.8711 0.0
O216 O 0.76638 0.30235 0.86201 0.0
O217 O 0.77355 0.25386 0.92594 0.0
O218 O 0.74424 0.20708 0.93818 0.0
O219 O 0.73115 0.22741 0.86868 0.0
O220 O 0.7178 0.20965 0.89716 0.0
C221 C 0.76196 0.236 0.93994 0.0
C222 C 0.71198 0.20744 0.87955 0.0
O223 O 0.8024 0.28619 0.88535 0.0
Mg224 Mg 0.99646 0.50569 0.64711 0.0
O225 O 0.94994 0.54634 0.6484 0.0
O226 O 0.90502 0.5196 0.66349 0.0
Mg227 Mg 0.92038 0.46167 0.67027 0.0
C228 C 0.91828 0.54673 0.65516 0.0
C229 C 0.0554 0.5459 0.62463 0.0
O230 O 0.0523 0.51612 0.61503 0.0
O231 O 0.00876 0.51186 0.67865 0.0
O232 O 0.96412 0.47872 0.69037 0.0
O233 O 0.97426 0.48314 0.62003 0.0
O234 O 0.96043 0.46326 0.64804 0.0
C235 C 0.99317 0.49614 0.6923 0.0
C236 C 0.95579 0.46147 0.63032 0.0
O237 O 0.03557 0.55041 0.63891 0.0
Mg238 Mg 0.74586 0.74563 0.8962 0.0
O239 O 0.69942 0.70653 0.89115 0.0
O240 O 0.71356 0.65459 0.90463 0.0
Mg241 Mg 0.76942 0.65954 0.9178 0.0
C242 C 0.69205 0.67412 0.89521 0.0
C243 C 0.72482 0.81411 0.87489 0.0
O244 O 0.75833 0.80916 0.86994 0.0
O245 O 0.73032 0.75338 0.927 0.0
O246 O 0.75141 0.70192 0.93881 0.0
O247 O 0.77426 0.72567 0.87045 0.0
O248 O 0.7821 0.70331 0.89862 0.0
C249 C 0.73789 0.73303 0.94082 0.0
C250 C 0.78964 0.7023 0.88114 0.0
O251 O 0.71063 0.79209 0.88623 0.0
Mg252 Mg 0.52036 0.50732 0.14711 0.0
O253 O 0.56626 0.46578 0.1467 0.0
O254 O 0.61127 0.49033 0.16276 0.0
Mg255 Mg 0.59667 0.54723 0.17185 0.0
C256 C 0.59789 0.46438 0.15351 0.0
C257 C 0.45743 0.47801 0.12489 0.0
O258 O 0.4602 0.51163 0.11976 0.0
O259 O 0.50862 0.4956 0.17815 0.0
O260 O 0.55329 0.5265 0.19139 0.0
O261 O 0.54212 0.533 0.12093 0.0
O262 O 0.55711 0.54892 0.14949 0.0
C263 C 0.52437 0.50857 0.1925 0.0
C264 C 0.56141 0.5528 0.13181 0.0
O265 O 0.47967 0.46587 0.13679 0.0
Mg266 Mg 0.75274 0.266 0.39308 0.0
O267 O 0.79469 0.31007 0.3892 0.0
O268 O 0.77551 0.3591 0.40385 0.0
Mg269 Mg 0.71991 0.34739 0.41622 0.0
C270 C 0.79895 0.34257 0.39413 0.0
C271 C 0.78741 0.20177 0.37089 0.0
O272 O 0.7556 0.20175 0.36307 0.0
O273 O 0.76868 0.25816 0.4238 0.0
O274 O 0.74231 0.30613 0.43665 0.0
O275 O 0.72288 0.28546 0.36744 0.0
O276 O 0.71224 0.30399 0.39608 0.0
C277 C 0.75911 0.27652 0.43802 0.0
C278 C 0.70516 0.30623 0.3786 0.0
O279 O 0.79427 0.22482 0.38344 0.0
Mg280 Mg 0.9852 0.51565 0.84336 0.0
O281 O 0.93983 0.47457 0.8409 0.0
O282 O 0.89483 0.50009 0.82529 0.0
Mg283 Mg 0.90981 0.55828 0.81878 0.0
C284 C 0.90852 0.47334 0.8338 0.0
C285 C 0.03845 0.47171 0.86818 0.0
O286 O 0.0317 0.49893 0.87924 0.0
O287 O 1.0003 0.51027 0.81213 0.0
O288 O 0.95554 0.54226 0.7996 0.0
O289 O 0.95988 0.53686 0.86994 0.0
O290 O 0.9484 0.55754 0.84178 0.0
C291 C 0.98524 0.52566 0.7982 0.0
C292 C 0.94182 0.55841 0.85935 0.0
O293 O 0.0235 0.47061 0.85221 0.0
Mg294 Mg 0.75326 0.74291 0.09363 0.0
O295 O 0.79726 0.70003 0.09655 0.0
O296 O 0.77776 0.65097 0.08203 0.0
Mg297 Mg 0.72111 0.66087 0.07083 0.0
C298 C 0.80166 0.66765 0.09133 0.0
C299 C 0.77946 0.80814 0.11557 0.0
O300 O 0.7461 0.80411 0.12098 0.0
O301 O 0.76646 0.75204 0.06252 0.0
O302 O 0.7403 0.70338 0.05036 0.0
O303 O 0.7263 0.72251 0.1198 0.0
O304 O 0.71409 0.70344 0.09141 0.0
C305 C 0.75598 0.73345 0.04855 0.0
C306 C 0.70854 0.70106 0.10906 0.0
O307 O 0.79211 0.78639 0.10359 0.0
Mg308 Mg 0.5137 0.50099 0.34563 0.0
O309 O 0.55899 0.54179 0.34894 0.0
O310 O 0.60732 0.52107 0.33416 0.0
Mg311 Mg 0.59368 0.46605 0.32179 0.0
C312 C 0.59159 0.54502 0.3439 0.0
C313 C 0.45554 0.53936 0.37069 0.0
O314 O 0.45977 0.50996 0.3805 0.0
O315 O 0.50512 0.5169 0.31489 0.0
O316 O 0.55239 0.48969 0.30178 0.0
O317 O 0.53369 0.4713 0.37117 0.0
O318 O 0.55082 0.45961 0.34238 0.0
C319 C 0.52307 0.50706 0.30057 0.0
C320 C 0.55383 0.4531 0.3599 0.0
O321 O 0.47375 0.54348 0.35581 0.0
Mg322 Mg 0.76305 0.27241 0.59136 0.0
O323 O 0.72174 0.3184 0.59248 0.0
O324 O 0.74536 0.36344 0.57604 0.0
Mg325 Mg 0.80179 0.34884 0.56616 0.0
C326 C 0.71996 0.35001 0.5857 0.0
C327 C 0.73449 0.21035 0.61445 0.0
O328 O 0.76813 0.21396 0.61944 0.0
O329 O 0.74959 0.26099 0.56053 0.0
O330 O 0.77997 0.30562 0.54693 0.0
O331 O 0.79 0.29353 0.6172 0.0
O332 O 0.80469 0.30938 0.58858 0.0
C333 C 0.76188 0.2768 0.54603 0.0
C334 C 0.8093 0.3132 0.60625 0.0
O335 O 0.72193 0.23169 0.60222 0.0
Mg336 Mg 0.02053 0.50317 0.34218 0.0
O337 O 0.06477 0.45983 0.34305 0.0
O338 O 0.11088 0.48236 0.32702 0.0
Mg339 Mg 0.09897 0.53982 0.31786 0.0
C340 C 0.09638 0.45708 0.33633 0.0
C341 C 0.9552 0.47708 0.36355 0.0
O342 O 0.95854 0.51095 0.36808 0.0
O343 O 0.00883 0.49202 0.31111 0.0
O344 O 0.0548 0.5215 0.29819 0.0
O345 O 0.04214 0.52821 0.36844 0.0
O346 O 0.05914 0.5433 0.34007 0.0
C347 C 0.02519 0.50478 0.29689 0.0
C348 C 0.06262 0.54727 0.35779 0.0
O349 O 0.97788 0.46355 0.3523 0.0
Mg350 Mg 0.25636 0.26348 0.10082 0.0
O351 O 0.29903 0.30739 0.1027 0.0
O352 O 0.27899 0.35552 0.08753 0.0
Mg353 Mg 0.22241 0.34352 0.07665 0.0
C354 C 0.30309 0.3395 0.09705 0.0
C355 C 0.29283 0.20131 0.12397 0.0
O356 O 0.26197 0.20249 0.13275 0.0
O357 O 0.26902 0.25261 0.06985 0.0
O358 O 0.24222 0.30021 0.05685 0.0
O359 O 0.2288 0.28581 0.12663 0.0
O360 O 0.2161 0.30162 0.09777 0.0
C361 C 0.25824 0.27018 0.05558 0.0
C362 C 0.21042 0.30564 0.11529 0.0
O363 O 0.29838 0.2228 0.1105 0.0
Mg364 Mg 0.47859 0.48764 0.84698 0.0
O365 O 0.43891 0.53512 0.84535 0.0
O366 O 0.392 0.51563 0.82888 0.0
Mg367 Mg 0.39813 0.45607 0.8223 0.0
C368 C 0.40839 0.54032 0.83773 0.0
C369 C 0.52837 0.55722 0.85645 0.0
O370 O 0.50293 0.57688 0.84901 0.0
O371 O 0.4939 0.49236 0.81576 0.0
O372 O 0.44578 0.46571 0.80332 0.0
O373 O 0.45244 0.46803 0.87355 0.0
O374 O 0.43617 0.45167 0.84529 0.0
C375 C 0.47721 0.47862 0.80189 0.0
C376 C 0.43109 0.44979 0.86298 0.0
O377 O 0.525 0.52337 0.85686 0.0
Mg378 Mg 0.26423 0.73807 0.59674 0.0
O379 O 0.22315 0.69218 0.59547 0.0
O380 O 0.24875 0.64736 0.57975 0.0
Mg381 Mg 0.30665 0.66224 0.57255 0.0
C382 C 0.2221 0.66077 0.58848 0.0
C383 C 0.22515 0.79856 0.61893 0.0
O384 O 0.256 0.79733 0.62772 0.0
O385 O 0.25709 0.7514 0.56546 0.0
O386 O 0.28936 0.70683 0.55297 0.0
O387 O 0.28745 0.71483 0.62339 0.0
O388 O 0.30638 0.70162 0.59512 0.0
C389 C 0.27214 0.73614 0.55151 0.0
C390 C 0.30864 0.6964 0.61277 0.0
O391 O 0.21978 0.77713 0.60541 0.0
Mg392 Mg 0.01927 0.50302 0.14448 0.0
O393 O 0.06283 0.54605 0.14111 0.0
O394 O 0.11082 0.52765 0.15703 0.0
Mg395 Mg 0.09937 0.4726 0.16986 0.0
C396 C 0.09494 0.55065 0.14675 0.0
C397 C 0.95612 0.52966 0.12031 0.0
O398 O 0.96005 0.49636 0.11483 0.0
O399 O 0.00815 0.51992 0.17481 0.0
O400 O 0.0558 0.49508 0.18884 0.0
O401 O 0.04129 0.47287 0.11967 0.0
O402 O 0.0581 0.4636 0.14876 0.0
C403 C 0.02573 0.51124 0.18947 0.0
C404 C 0.06172 0.45606 0.13138 0.0
O405 O 0.9771 0.54172 0.1328 0.0
Mg406 Mg 0.23337 0.26822 0.90348 0.0
O407 O 0.19299 0.31501 0.90346 0.0
O408 O 0.21879 0.35972 0.91918 0.0
Mg409 Mg 0.27592 0.34404 0.92741 0.0
C410 C 0.19237 0.34669 0.91015 0.0
C411 C 0.19764 0.20737 0.88126 0.0
O412 O 0.22949 0.20965 0.87358 0.0
O413 O 0.224 0.25647 0.93475 0.0
O414 O 0.25662 0.30067 0.94721 0.0
O415 O 0.2578 0.28949 0.87685 0.0
O416 O 0.27578 0.30416 0.90512 0.0
C417 C 0.2386 0.27191 0.94875 0.0
C418 C 0.2786 0.30843 0.88739 0.0
O419 O 0.18971 0.22884 0.89442 0.0
Mg420 Mg 0.49861 0.5034 0.65073 0.0
O421 O 0.45459 0.46067 0.64859 0.0
O422 O 0.40602 0.4813 0.66316 0.0
Mg423 Mg 0.41787 0.53773 0.67409 0.0
C424 C 0.42216 0.45701 0.65387 0.0
C425 C 0.55704 0.46531 0.62622 0.0
O426 O 0.5508 0.49365 0.61585 0.0
O427 O 0.50902 0.49173 0.68182 0.0
O428 O 0.46095 0.51859 0.69429 0.0
O429 O 0.47751 0.52993 0.62455 0.0
O430 O 0.46007 0.54376 0.65303 0.0
C431 C 0.49107 0.50282 0.69589 0.0
C432 C 0.45694 0.54864 0.63537 0.0
O433 O 0.53988 0.46155 0.64145 0.0
Mg434 Mg 0.25193 0.73569 0.40064 0.0
O435 O 0.29243 0.68924 0.40221 0.0
O436 O 0.26549 0.6441 0.41701 0.0
Mg437 Mg 0.20734 0.65953 0.42335 0.0
C438 C 0.29275 0.65753 0.40885 0.0
C439 C 0.29369 0.79392 0.37851 0.0
O440 O 0.26473 0.79031 0.36826 0.0
O441 O 0.25697 0.74798 0.43217 0.0
O442 O 0.22347 0.70336 0.44357 0.0
O443 O 0.23055 0.7135 0.37334 0.0
O444 O 0.20952 0.69964 0.40113 0.0
C445 C 0.24072 0.73246 0.44566 0.0
C446 C 0.20858 0.6949 0.3834 0.0
O447 O 0.29711 0.77465 0.39307 0.0
H448 H 0.50324 0.05152 0.27898 0.0
H449 H 0.50379 0.93804 0.28924 0.0
H450 H 0.51194 0.92673 0.25572 0.0
H451 H 0.50671 0.94939 0.22348 0.0
H452 H 0.50587 0.06288 0.21322 0.0
H453 H 0.51086 0.07429 0.24688 0.0
C454 C 0.50636 0.02438 0.27387 0.0
C455 C 0.50262 0.99555 0.28633 0.0
C456 C 0.51054 0.01826 0.25466 0.0
C457 C 0.50677 0.9605 0.2798 0.0
C458 C 0.51105 0.95411 0.26066 0.0
C459 C 0.50879 0.97658 0.22865 0.0
C460 C 0.50552 0.00535 0.2161 0.0
C461 C 0.51119 0.98276 0.24793 0.0
C462 C 0.50844 0.04046 0.22272 0.0
C463 C 0.51093 0.04691 0.24194 0.0
H464 H 0.20724 0.2536 0.52908 0.0
H465 H 0.32165 0.24803 0.53566 0.0
H466 H 0.3293 0.2518 0.50165 0.0
H467 H 0.30253 0.24474 0.47041 0.0
H468 H 0.18805 0.24925 0.46376 0.0
H469 H 0.18098 0.2586 0.49754 0.0
C470 C 0.23384 0.25458 0.52302 0.0
C471 C 0.26392 0.25052 0.53464 0.0
C472 C 0.23781 0.25601 0.50353 0.0
C473 C 0.29829 0.25151 0.52687 0.0
C474 C 0.30255 0.25324 0.50746 0.0
C475 C 0.27613 0.24886 0.47636 0.0
C476 C 0.24576 0.24595 0.46484 0.0
C477 C 0.27243 0.25373 0.49569 0.0
C478 C 0.21167 0.2515 0.47246 0.0
C479 C 0.20769 0.25652 0.49174 0.0
H480 H 0.00616 0.94724 0.77486 0.0
H481 H 0.00759 0.06047 0.78568 0.0
H482 H 1.00406 0.07263 0.75202 0.0
H483 H 0.0125 0.05043 0.71989 0.0
H484 H 0.01126 0.93718 0.70904 0.0
H485 H 1.00206 0.92528 0.74244 0.0
C486 C 1.00441 0.97454 0.76979 0.0
C487 C 0.00734 1.00302 0.78251 0.0
C488 C 1.00295 0.98113 0.75051 0.0
C489 C 0.0051 0.03829 0.77603 0.0
C490 C 1.0035 0.04516 0.75682 0.0
C491 C 0.00915 0.02322 0.72484 0.0
C492 C 0.01299 0.99461 0.71226 0.0
C493 C 1.0042 0.01676 0.74397 0.0
C494 C 0.00835 0.95947 0.71859 0.0
C495 C 1.00339 0.95274 0.73765 0.0
H496 H 0.21426 0.76817 0.9677 0.0
H497 H 0.32879 0.77056 0.96112 0.0
H498 H 0.33633 0.76468 0.99509 0.0
H499 H 0.30971 0.76915 0.02655 0.0
H500 H 0.19518 0.7668 0.03312 0.0
H501 H 0.18788 0.76164 -0.00089 0.0
C502 C 0.24083 0.76637 0.97374 0.0
C503 C 0.27101 0.77002 0.96216 0.0
C504 C 0.24476 0.76331 0.99317 0.0
C505 C 0.30535 0.76762 0.96989 0.0
C506 C 0.30956 0.76457 0.98927 0.0
C507 C 0.28324 0.76641 0.02049 0.0
C508 C 0.25294 0.76851 0.03209 0.0
C509 C 0.27943 0.76386 0.00104 0.0
C510 C 0.21873 0.76499 0.02433 0.0
C511 C 0.21463 0.76238 0.00494 0.0
H512 H 0.51391 0.06267 0.77327 0.0
H513 H 0.51569 0.94871 0.78177 0.0
H514 H 0.51235 0.93917 0.74786 0.0
H515 H 0.51986 0.96384 0.71612 0.0
H516 H 0.51849 0.07782 0.70762 0.0
H517 H 0.5101 0.08717 0.74132 0.0
C518 C 0.51233 0.03579 0.76764 0.0
C519 C 0.5151 0.00635 0.77977 0.0
C520 C 0.51097 0.03072 0.74823 0.0
C521 C 0.51325 0.97161 0.77257 0.0
C522 C 0.51173 0.96625 0.75322 0.0
C523 C 0.51665 0.99065 0.72167 0.0
C524 C 0.51996 0.0202 0.70965 0.0
C525 C 0.51219 0.99563 0.74096 0.0
C526 C 0.5158 0.05484 0.71674 0.0
C527 C 0.51131 0.0601 0.73597 0.0
H528 H 0.80263 0.75467 0.46768 0.0
H529 H 0.68835 0.75737 0.46001 0.0
H530 H 0.6796 0.75227 0.49392 0.0
H531 H 0.70507 0.75857 0.5255 0.0
H532 H 0.81937 0.75638 0.53322 0.0
H533 H 0.82787 0.7489 0.49942 0.0
C534 C 0.77585 0.75289 0.47348 0.0
C535 C 0.74609 0.7565 0.4616 0.0
C536 C 0.77122 0.75048 0.49289 0.0
C537 C 0.71149 0.75434 0.46901 0.0
C538 C 0.70657 0.75179 0.48836 0.0
C539 C 0.73177 0.75532 0.51977 0.0
C540 C 0.76164 0.75834 0.53161 0.0
C541 C 0.73628 0.75152 0.50042 0.0
C542 C 0.79612 0.75397 0.52427 0.0
C543 C 0.80091 0.75006 0.50497 0.0
H544 H 0.9956 0.94692 0.27199 0.0
H545 H 0.99849 0.06025 0.28253 0.0
H546 H 1.00452 0.07183 0.24891 0.0
H547 H 0.99778 0.04962 0.21662 0.0
H548 H 0.99494 0.93631 0.20613 0.0
H549 H 1.00068 0.92441 0.23975 0.0
C550 C 0.99861 0.97408 0.2669 0.0
C551 C 0.99622 1.0028 0.27951 0.0
C552 C 1.00167 0.98036 0.24765 0.0
C553 C 1.00038 0.03786 0.27298 0.0
C554 C 1.00347 0.04442 0.25379 0.0
C555 C 0.99958 0.02236 0.22174 0.0
C556 C 0.99578 0.99377 0.20916 0.0
C557 C 1.00252 0.01592 0.24099 0.0
C558 C 0.99805 0.95855 0.21568 0.0
C559 C 1.00101 0.95184 0.23486 0.0
H560 H 0.71076 0.25105 0.96489 0.0
H561 H 0.82518 0.24787 0.95782 0.0
H562 H 0.83326 0.25268 0.99179 0.0
H563 H 0.80711 0.24675 0.02326 0.0
H564 H 0.69267 0.24965 0.03035 0.0
H565 H 0.6849 0.25679 -0.00353 0.0
C566 C 0.73743 0.25256 0.97083 0.0
C567 C 0.76741 0.24891 0.9591 0.0
C568 C 0.74167 0.25487 0.99027 0.0
C569 C 0.80188 0.25087 0.9667 0.0
C570 C 0.8064 0.25327 0.98608 0.0
C571 C 0.78054 0.25 0.01736 0.0
C572 C 0.75041 0.24733 0.02906 0.0
C573 C 0.77645 0.25367 -0.00202 0.0
C574 C 0.71611 0.25176 0.02151 0.0
C575 C 0.71174 0.25549 0.00217 0.0
H576 H 0.00791 0.55399 0.71375 0.0
H577 H 0.00989 0.43895 0.71334 0.0
H578 H 0.01589 0.43768 0.74733 0.0
H579 H 0.007 0.46906 0.77726 0.0
H580 H 0.99931 0.5839 0.7775 0.0
H581 H 0.0099 0.58578 0.74383 0.0
C582 C 0.01118 0.52883 0.72111 0.0
C583 C 0.00842 0.49667 0.71123 0.0
C584 C 0.01293 0.5283 0.74076 0.0
C585 C 0.01199 0.46404 0.72082 0.0
C586 C 0.01512 0.46329 0.74025 0.0
C587 C 0.00907 0.49442 0.76998 0.0
C588 C 1.00223 0.52623 0.77966 0.0
C589 C 0.01362 0.49519 0.75045 0.0
C590 C 1.0044 0.55907 0.77016 0.0
C591 C 0.01023 0.56016 0.75092 0.0
H592 H 0.70214 0.74858 0.02529 0.0
H593 H 0.81714 0.74651 0.02897 0.0
H594 H 0.82151 0.75204 0.99483 0.0
H595 H 0.79207 0.74647 0.96411 0.0
H596 H 0.67705 0.74725 0.96046 0.0
H597 H 0.67283 0.75387 0.99455 0.0
C598 C 0.72811 0.75057 0.01858 0.0
C599 C 0.75933 0.74714 0.0294 0.0
C600 C 0.73022 0.75306 -0.00094 0.0
C601 C 0.7929 0.74947 0.0208 0.0
C602 C 0.79531 0.75224 0.00133 0.0
C603 C 0.76616 0.74923 0.97082 0.0
C604 C 0.73485 0.74634 0.96004 0.0
C605 C 0.76412 0.75247 0.99032 0.0
C606 C 0.70135 0.7497 0.96862 0.0
C607 C 0.69902 0.75317 0.98806 0.0
H608 H 0.50583 0.45838 0.27468 0.0
H609 H 0.51282 0.57184 0.28412 0.0
H610 H 0.50769 0.58277 0.25039 0.0
H611 H 0.51247 0.55897 0.21838 0.0
H612 H 0.50576 0.44547 0.2089 0.0
H613 H 0.49865 0.4353 0.24259 0.0
C614 C 0.50503 0.48551 0.26931 0.0
C615 C 0.50985 0.51436 0.28163 0.0
C616 C 0.5025 0.49137 0.24999 0.0
C617 C 0.50889 0.54941 0.27477 0.0
C618 C 0.5063 0.55555 0.25553 0.0
C619 C 0.50833 0.53213 0.22372 0.0
C620 C 0.50996 0.5029 0.21139 0.0
C621 C 0.50473 0.52664 0.24301 0.0
C622 C 0.50444 0.46824 0.21822 0.0
C623 C 0.50074 0.46248 0.23746 0.0
H624 H 0.8114 0.26225 0.52007 0.0
H625 H 0.6977 0.26149 0.52992 0.0
H626 H 0.68677 0.25555 0.49623 0.0
H627 H 0.70987 0.26211 0.46411 0.0
H628 H 0.82357 0.26309 0.45428 0.0
H629 H 0.8346 0.25681 0.48796 0.0
C630 C 0.7843 0.25959 0.51481 0.0
C631 C 0.7553 0.26255 0.52723 0.0
C632 C 0.7784 0.25672 0.49552 0.0
C633 C 0.72028 0.25905 0.5205 0.0
C634 C 0.71411 0.25605 0.50127 0.0
C635 C 0.73701 0.25983 0.46938 0.0
C636 C 0.76597 0.26331 0.45699 0.0
C637 C 0.74295 0.25656 0.48866 0.0
C638 C 0.80104 0.26031 0.4637 0.0
C639 C 0.80726 0.25702 0.48291 0.0
H640 H 0.01499 0.55748 0.27215 0.0
H641 H 1.00363 0.44373 0.27935 0.0
H642 H 0.99566 0.43649 0.24549 0.0
H643 H 1.00417 0.46167 0.2139 0.0
H644 H 0.01707 0.57523 0.20683 0.0
H645 H 0.01144 0.58389 0.2407 0.0
C646 C 0.00965 0.53127 0.26629 0.0
C647 C 0.01026 0.50106 0.27799 0.0
C648 C 0.00572 0.52744 0.24692 0.0
C649 C 1.00315 0.46723 0.27049 0.0
C650 C 0.99894 0.46314 0.25117 0.0
C651 C 1.00436 0.48838 0.21981 0.0
C652 C 0.01099 0.51786 0.20813 0.0
C653 C 1.0019 0.49287 0.23923 0.0
C654 C 0.01159 0.55237 0.21568 0.0
C655 C 0.00878 0.55718 0.23501 0.0
H656 H 0.20453 0.25212 0.03287 0.0
H657 H 0.31946 0.25751 0.03605 0.0
H658 H 0.32351 0.25158 0.00195 0.0
H659 H 0.29348 0.25733 0.97148 0.0
H660 H 0.17845 0.25388 0.96822 0.0
H661 H 0.17494 0.24572 0.00224 0.0
C662 C 0.23045 0.25065 0.02606 0.0
C663 C 0.26171 0.25532 0.03671 0.0
C664 C 0.23234 0.24809 0.00654 0.0
C665 C 0.29522 0.25364 0.02801 0.0
C666 C 0.29742 0.25065 0.00855 0.0
C667 C 0.26774 0.25362 0.97822 0.0
C668 C 0.2362 0.25654 0.9676 0.0
C669 C 0.26609 0.24968 -0.00232 0.0
C670 C 0.20294 0.25159 0.97624 0.0
C671 C 0.20101 0.24729 0.99565 0.0
H672 H 0.50686 0.53106 0.78052 0.0
H673 H 0.48359 0.41838 0.78185 0.0
H674 H 0.49429 0.41382 0.74829 0.0
H675 H 0.49704 0.44446 0.71793 0.0
H676 H 0.51545 0.55791 0.71623 0.0
H677 H 0.52077 0.55973 0.7503 0.0
C678 C 0.50556 0.50539 0.77351 0.0
C679 C 0.49424 0.47519 0.78345 0.0
C680 C 0.51038 0.50325 0.75402 0.0
C681 C 0.49211 0.44201 0.7743 0.0
C682 C 0.49802 0.43941 0.75512 0.0
C683 C 0.50376 0.46915 0.72505 0.0
C684 C 0.50603 0.50092 0.71481 0.0
C685 C 0.50525 0.47019 0.74468 0.0
C686 C 0.51391 0.5331 0.72402 0.0
C687 C 0.5166 0.5342 0.74348 0.0
H688 H 0.21361 0.75062 0.53057 0.0
H689 H 0.32869 0.75474 0.53044 0.0
H690 H 0.32916 0.76221 0.4965 0.0
H691 H 0.29732 0.75409 0.46664 0.0
H692 H 0.18255 0.74394 0.46693 0.0
H693 H 0.18114 0.75307 0.5007 0.0
C694 C 0.23856 0.75467 0.52311 0.0
C695 C 0.27101 0.75215 0.53278 0.0
C696 C 0.23865 0.75718 0.5035 0.0
C697 C 0.30339 0.75669 0.5231 0.0
C698 C 0.30369 0.76065 0.5037 0.0
C699 C 0.27205 0.75523 0.47408 0.0
C700 C 0.24017 0.74809 0.46451 0.0
C701 C 0.27158 0.75894 0.49366 0.0
C702 C 0.20745 0.74916 0.47419 0.0
C703 C 0.20662 0.7542 0.49349 0.0
H704 H 0.41748 0.90606 0.1553 0.0
H705 H 0.43589 0.94623 0.09952 0.0
H706 H 0.39128 0.90461 0.08727 0.0
H707 H 0.34768 0.85699 0.0925 0.0
H708 H 0.32616 0.81983 0.14854 0.0
H709 H 0.37146 0.86079 0.16074 0.0
C710 C 0.41138 0.90634 0.14052 0.0
C711 C 0.42972 0.9297 0.1284 0.0
C712 C 0.3852 0.88297 0.13367 0.0
C713 C 0.42211 0.92869 0.10918 0.0
C714 C 0.39657 0.90494 0.10218 0.0
C715 C 0.35227 0.85818 0.10742 0.0
C716 C 0.33313 0.8356 0.1196 0.0
C717 C 0.37791 0.88207 0.11432 0.0
C718 C 0.3403 0.83703 0.13886 0.0
C719 C 0.36625 0.86039 0.14583 0.0
H720 H 0.33985 0.15298 0.40576 0.0
H721 H 0.30841 0.17586 0.34891 0.0
H722 H 0.35295 0.13302 0.33752 0.0
H723 H 0.40105 0.09005 0.34388 0.0
H724 H 0.42898 0.06408 0.40088 0.0
H725 H 0.38497 0.10737 0.41215 0.0
C726 C 0.34202 0.1482 0.39089 0.0
C727 C 0.32033 0.16734 0.37823 0.0
C728 C 0.36707 0.12311 0.38451 0.0
C729 C 0.32456 0.1614 0.35897 0.0
C730 C 0.35003 0.13692 0.35247 0.0
C731 C 0.39719 0.09322 0.35876 0.0
C732 C 0.41813 0.07341 0.3715 0.0
C733 C 0.3714 0.11765 0.36513 0.0
C734 C 0.41317 0.07876 0.39076 0.0
C735 C 0.38803 0.10354 0.39721 0.0
H736 H 0.10343 0.09574 0.65406 0.0
H737 H 0.08421 0.0623 0.59717 0.0
H738 H 0.12673 0.10716 0.586 0.0
H739 H 0.16843 0.15597 0.59248 0.0
H740 H 0.19062 0.18658 0.64951 0.0
H741 H 0.14762 0.14218 0.66065 0.0
C742 C 0.10892 0.09764 0.63924 0.0
C743 C 0.09093 0.07525 0.6265 0.0
C744 C 0.13379 0.12297 0.63298 0.0
C745 C 0.09777 0.07902 0.60729 0.0
C746 C 0.12208 0.10466 0.60091 0.0
C747 C 0.1645 0.15261 0.60737 0.0
C748 C 0.18316 0.17436 0.62015 0.0
C749 C 0.14022 0.12672 0.61365 0.0
C750 C 0.17681 0.17012 0.63938 0.0
C751 C 0.15221 0.14475 0.64574 0.0
H752 H 0.09973 0.90313 0.84083 0.0
H753 H 0.07636 0.93451 0.89764 0.0
H754 H 0.12253 0.89357 0.90903 0.0
H755 H 0.16887 0.84909 0.90282 0.0
H756 H 0.19506 0.82024 0.846 0.0
H757 H 0.14812 0.86045 0.83454 0.0
C758 C 0.10503 0.90159 0.85569 0.0
C759 C 0.08485 0.92233 0.86835 0.0
C760 C 0.13199 0.87849 0.86209 0.0
C761 C 0.09155 0.91904 0.88759 0.0
C762 C 0.11796 0.89566 0.8941 0.0
C763 C 0.16492 0.85195 0.8879 0.0
C764 C 0.1859 0.83199 0.87527 0.0
C765 C 0.13836 0.87538 0.88146 0.0
C766 C 0.17948 0.83541 0.85601 0.0
C767 C 0.15264 0.85837 0.84947 0.0
H768 H 0.66601 0.16724 0.89994 0.0
H769 H 0.69673 0.19081 0.84306 0.0
H770 H 0.65139 0.14901 0.83162 0.0
H771 H 0.60297 0.10661 0.83791 0.0
H772 H 0.57428 0.08111 0.89486 0.0
H773 H 0.61935 0.12316 0.90624 0.0
C774 C 0.66333 0.16291 0.88503 0.0
C775 C 0.68513 0.18185 0.87237 0.0
C776 C 0.63758 0.13867 0.87863 0.0
C777 C 0.68045 0.17649 0.8531 0.0
C778 C 0.65455 0.15261 0.84657 0.0
C779 C 0.60685 0.10972 0.85283 0.0
C780 C 0.5855 0.09035 0.86553 0.0
C781 C 0.63301 0.13358 0.85923 0.0
C782 C 0.5904 0.09554 0.8848 0.0
C783 C 0.61616 0.11957 0.8913 0.0
H784 H 0.61442 0.92235 0.65224 0.0
H785 H 0.57739 0.93833 0.59564 0.0
H786 H 0.61916 0.89262 0.58464 0.0
H787 H 0.66479 0.8476 0.59122 0.0
H788 H 0.70466 0.83382 0.64742 0.0
H789 H 0.66255 0.8793 0.65858 0.0
C790 C 0.61578 0.91637 0.63745 0.0
C791 C 0.59295 0.93409 0.62475 0.0
C792 C 0.64009 0.89034 0.63122 0.0
C793 C 0.59473 0.92529 0.60569 0.0
C794 C 0.61855 0.8991 0.59941 0.0
C795 C 0.66492 0.8549 0.60586 0.0
C796 C 0.68832 0.83762 0.61842 0.0
C797 C 0.64123 0.88143 0.61206 0.0
C798 C 0.68708 0.84676 0.63745 0.0
C799 C 0.66306 0.8728 0.64381 0.0
H800 H 0.84087 0.85133 0.40254 0.0
H801 H 0.82183 0.8141 0.34627 0.0
H802 H 0.86634 0.85622 0.33446 0.0
H803 H 0.9111 0.90237 0.34024 0.0
H804 H 0.92744 0.94264 0.39614 0.0
H805 H 0.88344 0.89995 0.4081 0.0
C806 C 0.84589 0.85272 0.38766 0.0
C807 C 0.82767 0.82975 0.37529 0.0
C808 C 0.87116 0.87728 0.38096 0.0
C809 C 0.83527 0.83156 0.35609 0.0
C810 C 0.86078 0.85558 0.34933 0.0
C811 C 0.90466 0.90246 0.35499 0.0
C812 C 0.92223 0.92614 0.36723 0.0
C813 C 0.87888 0.87848 0.36166 0.0
C814 C 0.91424 0.92485 0.3864 0.0
C815 C 0.88904 0.90049 0.39323 0.0
H816 H 0.84851 0.16329 0.08948 0.0
H817 H 0.81064 0.18041 0.1458 0.0
H818 H 0.85464 0.13717 0.15745 0.0
H819 H 0.90371 0.09501 0.15146 0.0
H820 H 0.93866 0.07553 0.09481 0.0
H821 H 0.8953 0.11931 0.08335 0.0
C822 C 0.84925 0.1572 0.10428 0.0
C823 C 0.82585 0.17474 0.11671 0.0
C824 C 0.87404 0.13197 0.11077 0.0
C825 C 0.82819 0.16721 0.13591 0.0
C826 C 0.8533 0.14246 0.14256 0.0
C827 C 0.90156 0.0998 0.13658 0.0
C828 C 0.92423 0.08162 0.12399 0.0
C829 C 0.87628 0.12465 0.13008 0.0
C830 C 0.92149 0.08896 0.10479 0.0
C831 C 0.89672 0.11402 0.09824 0.0
H832 H 0.85001 0.36049 0.58643 0.0
H833 H 0.82717 0.3252 0.64268 0.0
H834 H 0.87104 0.36751 0.65485 0.0
H835 H 0.91635 0.41297 0.64942 0.0
H836 H 0.93611 0.45224 0.59361 0.0
H837 H 0.89268 0.40933 0.5812 0.0
C838 C 0.85401 0.36237 0.60137 0.0
C839 C 0.83493 0.33983 0.61362 0.0
C840 C 0.87877 0.38722 0.60828 0.0
C841 C 0.84129 0.34228 0.63293 0.0
C842 C 0.86641 0.36643 0.63989 0.0
C843 C 0.91072 0.41295 0.63459 0.0
C844 C 0.92913 0.43632 0.62251 0.0
C845 C 0.88528 0.38893 0.62768 0.0
C846 C 0.9222 0.43473 0.60323 0.0
C847 C 0.89737 0.41023 0.59615 0.0
H848 H 0.9042 0.60783 0.83984 0.0
H849 H 0.91563 0.56298 0.89516 0.0
H850 H 0.86862 0.6031 0.90664 0.0
H851 H 0.82565 0.65155 0.90092 0.0
H852 H 0.8126 0.69392 0.84513 0.0
H853 H 0.8588 0.65315 0.8337 0.0
C854 C 0.89604 0.60612 0.85434 0.0
C855 C 0.91317 0.58202 0.86657 0.0
C856 C 0.86875 0.62871 0.8607 0.0
C857 C 0.90284 0.58118 0.88544 0.0
C858 C 0.87594 0.60405 0.89199 0.0
C859 C 0.83236 0.65154 0.88619 0.0
C860 C 0.81545 0.67569 0.87387 0.0
C861 C 0.8588 0.62795 0.87972 0.0
C862 C 0.82505 0.67558 0.8549 0.0
C863 C 0.85154 0.65235 0.84837 0.0
H864 H 0.66712 0.65533 0.08913 0.0
H865 H 0.69228 0.68692 0.14567 0.0
H866 H 0.64871 0.64382 0.1576 0.0
H867 H 0.60286 0.59852 0.15181 0.0
H868 H 0.58007 0.56476 0.09534 0.0
H869 H 0.62375 0.60773 0.08343 0.0
C870 C 0.6637 0.65246 0.10408 0.0
C871 C 0.68332 0.67412 0.11649 0.0
C872 C 0.63898 0.62743 0.1108 0.0
C873 C 0.67769 0.6705 0.13582 0.0
C874 C 0.65276 0.64589 0.14263 0.0
C875 C 0.6078 0.59996 0.13692 0.0
C876 C 0.58844 0.57807 0.1245 0.0
C877 C 0.63322 0.62433 0.13023 0.0
C878 C 0.59466 0.58115 0.10521 0.0
C879 C 0.61963 0.60571 0.0984 0.0
H880 H 0.66239 0.34871 0.39973 0.0
H881 H 0.68703 0.32232 0.34239 0.0
H882 H 0.64186 0.36518 0.3317 0.0
H883 H 0.59533 0.40933 0.33875 0.0
H884 H 0.57268 0.43765 0.39606 0.0
H885 H 0.61747 0.39442 0.40675 0.0
C886 C 0.65841 0.35262 0.38487 0.0
C887 C 0.67846 0.33257 0.37187 0.0
C888 C 0.63272 0.37745 0.37887 0.0
C889 C 0.67213 0.33748 0.35268 0.0
C890 C 0.64631 0.36196 0.34658 0.0
C891 C 0.60046 0.40656 0.35358 0.0
C892 C 0.58091 0.42711 0.36659 0.0
C893 C 0.62649 0.38206 0.35957 0.0
C894 C 0.58739 0.42233 0.38576 0.0
C895 C 0.61301 0.39764 0.39186 0.0
H896 H 0.11133 0.58724 0.33858 0.0
H897 H 0.07311 0.56503 0.39437 0.0
H898 H 0.11452 0.60931 0.40697 0.0
H899 H 0.15955 0.65522 0.40197 0.0
H900 H 0.20161 0.67452 0.34667 0.0
H901 H 0.16 0.63027 0.33386 0.0
C902 C 0.11239 0.59146 0.35351 0.0
C903 C 0.08924 0.57251 0.36551 0.0
C904 C 0.13663 0.61654 0.36067 0.0
C905 C 0.09069 0.57906 0.38482 0.0
C906 C 0.11429 0.60444 0.39203 0.0
C907 C 0.16045 0.6493 0.38718 0.0
C908 C 0.18418 0.66784 0.37535 0.0
C909 C 0.1372 0.62339 0.38006 0.0
C910 C 0.18378 0.66054 0.3561 0.0
C911 C 0.16003 0.63523 0.34879 0.0
H912 H 0.16634 0.34555 0.09369 0.0
H913 H 0.1956 0.32688 0.15128 0.0
H914 H 0.15198 0.37201 0.16126 0.0
H915 H 0.10534 0.41584 0.15346 0.0
H916 H 0.07862 0.43619 0.09567 0.0
H917 H 0.12213 0.39112 0.08583 0.0
C918 C 0.16383 0.35168 0.10843 0.0
C919 C 0.18466 0.33314 0.12171 0.0
C920 C 0.1392 0.37784 0.11397 0.0
C921 C 0.18006 0.34084 0.14077 0.0
C922 C 0.15516 0.36664 0.14646 0.0
C923 C 0.10935 0.41095 0.13869 0.0
C924 C 0.08893 0.42973 0.1253 0.0
C925 C 0.13462 0.38527 0.13316 0.0
C926 C 0.09403 0.4223 0.10625 0.0
C927 C 0.11888 0.39651 0.10063 0.0
H928 H 0.38304 0.41009 0.84348 0.0
H929 H 0.41489 0.43736 0.89972 0.0
H930 H 0.37027 0.39589 0.91213 0.0
H931 H 0.3248 0.35024 0.90682 0.0
H932 H 0.29026 0.32573 0.85067 0.0
H933 H 0.33399 0.36817 0.83825 0.0
C934 C 0.37986 0.40773 0.85845 0.0
C935 C 0.40219 0.42713 0.87064 0.0
C936 C 0.35401 0.38419 0.86544 0.0
C937 C 0.398 0.4229 0.89002 0.0
C938 C 0.37257 0.39913 0.89712 0.0
C939 C 0.32607 0.35463 0.89189 0.0
C940 C 0.30389 0.33504 0.87972 0.0
C941 C 0.35072 0.37943 0.88493 0.0
C942 C 0.30689 0.3405 0.86036 0.0
C943 C 0.33187 0.36476 0.85326 0.0
H944 H 0.41046 0.58948 0.6554 0.0
H945 H 0.44371 0.56627 0.59886 0.0
H946 H 0.401 0.61046 0.58707 0.0
H947 H 0.35587 0.65628 0.593 0.0
H948 H 0.31908 0.6762 0.64927 0.0
H949 H 0.36208 0.63224 0.66114 0.0
C950 C 0.40799 0.59337 0.64047 0.0
C951 C 0.43007 0.57415 0.62802 0.0
C952 C 0.383 0.61827 0.63381 0.0
C953 C 0.42698 0.5805 0.60874 0.0
C954 C 0.4026 0.60578 0.602 0.0
C955 C 0.35646 0.65057 0.60782 0.0
C956 C 0.33377 0.66922 0.62019 0.0
C957 C 0.38059 0.62484 0.61444 0.0
C958 C 0.33605 0.66214 0.63943 0.0
C959 C 0.36061 0.63701 0.6462 0.0
H960 H 0.42249 0.09453 0.1353 0.0
H961 H 0.34903 0.04962 0.17555 0.0
H962 H 0.30578 0.09662 0.16865 0.0
H963 H 0.28759 0.14904 0.15035 0.0
H964 H 0.36024 0.19337 0.10957 0.0
H965 H 0.40487 0.14813 0.11757 0.0
C966 C 0.39717 0.09516 0.14269 0.0
C967 C 0.38913 0.06839 0.1559 0.0
C968 C 0.37208 0.12209 0.13849 0.0
C969 C 0.35601 0.06968 0.16525 0.0
C970 C 0.33116 0.09658 0.16131 0.0
C971 C 0.31323 0.14895 0.14325 0.0
C972 C 0.3204 0.17455 0.12932 0.0
C973 C 0.33872 0.12267 0.14781 0.0
C974 C 0.35385 0.17394 0.1203 0.0
C975 C 0.37945 0.14806 0.12487 0.0
H976 H 0.15296 0.16596 0.38146 0.0
H977 H 0.18975 0.09191 0.42368 0.0
H978 H 0.14187 0.05067 0.41556 0.0
H979 H 0.09151 0.03403 0.39557 0.0
H980 H 0.05502 0.10681 0.35275 0.0
H981 H 0.10068 0.15007 0.36209 0.0
C982 C 0.15029 0.14098 0.38903 0.0
C983 C 0.17515 0.13212 0.40314 0.0
C984 C 0.12285 0.11698 0.38411 0.0
C985 C 0.17126 0.09947 0.4127 0.0
C986 C 0.14384 0.07577 0.40806 0.0
C987 C 0.09334 0.05942 0.3883 0.0
C988 C 0.0699 0.06701 0.3734 0.0
C989 C 0.11982 0.084 0.39362 0.0
C990 C 0.07273 0.10015 0.36423 0.0
C991 C 0.09888 0.12492 0.36956 0.0
H992 H 0.09698 0.9073 0.63045 0.0
H993 H 0.17012 0.94868 0.67186 0.0
H994 H 0.21261 0.90122 0.66468 0.0
H995 H 0.23029 0.84944 0.64592 0.0
H996 H 0.15822 0.8083 0.60401 0.0
H997 H 0.11415 0.85408 0.61217 0.0
C998 C 0.12207 0.90579 0.63803 0.0
C999 C 0.13023 0.93174 0.65166 0.0
C1000 C 0.14675 0.87854 0.63368 0.0
C1001 C 0.16304 0.92931 0.66124 0.0
C1002 C 0.18746 0.90213 0.65715 0.0
C1003 C 0.2049 0.85032 0.63859 0.0
C1004 C 0.19772 0.82546 0.62431 0.0
C1005 C 0.17979 0.87686 0.64326 0.0
C1006 C 0.16458 0.82711 0.61502 0.0
C1007 C 0.13933 0.85331 0.61968 0.0
H1008 H 0.44046 0.92097 0.86093 0.0
H1009 H 0.39646 0.01338 0.88889 0.0
H1010 H 0.34856 0.97693 0.90184 0.0
H1011 H 0.31822 0.91935 0.90481 0.0
H1012 H 0.36165 0.82649 0.877 0.0
H1013 H 0.41065 0.86253 0.86461 0.0
C1014 C 0.4204 0.93312 0.86986 0.0
C1015 C 0.4221 0.96997 0.87383 0.0
C1016 C 0.39277 0.91192 0.87736 0.0
C1017 C 0.39592 0.98516 0.88553 0.0
C1018 C 0.36843 0.96432 0.89298 0.0
C1019 C 0.33845 0.90683 0.89612 0.0
C1020 C 0.33601 0.87017 0.89186 0.0
C1021 C 0.36649 0.92772 0.88894 0.0
C1022 C 0.36268 0.85461 0.88056 0.0
C1023 C 0.39074 0.87524 0.87341 0.0
H1024 H 0.29174 0.84064 0.34946 0.0
H1025 H 0.357 0.80866 0.39638 0.0
H1026 H 0.40029 0.85547 0.3888 0.0
H1027 H 0.41824 0.90741 0.3696 0.0
H1028 H 0.35142 0.93964 0.32327 0.0
H1029 H 0.31041 0.89074 0.32984 0.0
C1030 C 0.3155 0.84371 0.35801 0.0
C1031 C 0.32095 0.82119 0.37352 0.0
C1032 C 0.34008 0.87086 0.35369 0.0
C1033 C 0.352 0.82565 0.38439 0.0
C1034 C 0.3768 0.85246 0.38006 0.0
C1035 C 0.39491 0.90351 0.36083 0.0
C1036 C 0.38796 0.92738 0.34599 0.0
C1037 C 0.37095 0.87548 0.36484 0.0
C1038 C 0.35742 0.92194 0.33485 0.0
C1039 C 0.33387 0.89393 0.33859 0.0
H1040 H 0.32062 0.10061 0.58706 0.0
H1041 H 0.35711 0.19255 0.61811 0.0
H1042 H 0.40899 0.15872 0.62908 0.0
H1043 H 0.44312 0.10224 0.6307 0.0
H1044 H 0.40585 0.01069 0.59958 0.0
H1045 H 0.35532 0.04522 0.58789 0.0
C1046 C 0.33994 0.11343 0.59616 0.0
C1047 C 0.33471 0.14914 0.60176 0.0
C1048 C 0.36962 0.0938 0.60251 0.0
C1049 C 0.36028 0.16514 0.61354 0.0
C1050 C 0.38998 0.14576 0.61988 0.0
C1051 C 0.424 0.08987 0.62133 0.0
C1052 C 0.42832 0.0538 0.61613 0.0
C1053 C 0.39478 0.10995 0.61459 0.0
C1054 C 0.40328 0.03832 0.60389 0.0
C1055 C 0.37428 0.05806 0.59717 0.0
H1056 H 0.07805 0.09095 0.86652 0.0
H1057 H 0.15735 0.05513 0.82673 0.0
H1058 H 0.19577 0.10512 0.83501 0.0
H1059 H 0.20824 0.15753 0.85427 0.0
H1060 H 0.13012 0.19349 0.89456 0.0
H1061 H 0.08994 0.14505 0.88528 0.0
C1062 C 0.1036 0.09421 0.85955 0.0
C1063 C 0.11472 0.06906 0.84605 0.0
C1064 C 0.12593 0.12299 0.86451 0.0
C1065 C 0.14804 0.07381 0.83724 0.0
C1066 C 0.17013 0.10245 0.84196 0.0
C1067 C 0.18237 0.15496 0.861 0.0
C1068 C 0.17234 0.1791 0.87516 0.0
C1069 C 0.15955 0.12695 0.85571 0.0
C1070 C 0.13862 0.17527 0.88366 0.0
C1071 C 0.11562 0.14754 0.87836 0.0
H1072 H 0.19601 0.91476 0.08685 0.0
H1073 H 0.15786 0.8218 0.11655 0.0
H1074 H 0.10617 0.85573 0.12769 0.0
H1075 H 0.07264 0.91258 0.12983 0.0
H1076 H 0.11168 0.00508 0.10003 0.0
H1077 H 0.162 0.97048 0.08819 0.0
C1078 C 0.17637 0.90174 0.09569 0.0
C1079 C 0.18107 0.86571 0.10086 0.0
C1080 C 0.14681 0.92142 0.10214 0.0
C1081 C 0.1551 0.84946 0.11231 0.0
C1082 C 0.1255 0.8689 0.11874 0.0
C1083 C 0.0921 0.92513 0.12071 0.0
C1084 C 0.08833 0.96149 0.11592 0.0
C1085 C 0.12123 0.90502 0.11389 0.0
C1086 C 0.11382 0.97723 0.10402 0.0
C1087 C 0.1427 0.95745 0.09721 0.0
H1088 H 0.65407 0.83029 0.8802 0.0
H1089 H 0.74955 0.86713 0.85223 0.0
H1090 H 0.71684 0.91804 0.83959 0.0
H1091 H 0.66165 0.95283 0.83682 0.0
H1092 H 0.56581 0.91657 0.86466 0.0
H1093 H 0.59811 0.86477 0.87684 0.0
C1094 C 0.66772 0.84945 0.87134 0.0
C1095 C 0.70431 0.84484 0.86725 0.0
C1096 C 0.64868 0.87882 0.86403 0.0
C1097 C 0.72147 0.86991 0.85566 0.0
C1098 C 0.70276 0.89911 0.8484 0.0
C1099 C 0.64767 0.93358 0.84548 0.0
C1100 C 0.61128 0.93882 0.8498 0.0
C1101 C 0.66642 0.90391 0.85253 0.0
C1102 C 0.59378 0.91339 0.86107 0.0
C1103 C 0.61227 0.88372 0.86809 0.0
H1104 H 0.91413 0.97115 0.59926 0.0
H1105 H 0.95804 0.8941 0.63794 0.0
H1106 H 0.91155 0.85132 0.62924 0.0
H1107 H 0.85669 0.83685 0.6117 0.0
H1108 H 0.81259 0.91485 0.57351 0.0
H1109 H 0.861 0.95595 0.58093 0.0
C1110 C 0.91373 0.94494 0.60574 0.0
C1111 C 0.93951 0.936 0.61932 0.0
C1112 C 0.88678 0.92058 0.60079 0.0
C1113 C 0.93851 0.90181 0.6275 0.0
C1114 C 0.91189 0.8773 0.62253 0.0
C1115 C 0.85781 0.8627 0.60486 0.0
C1116 C 0.83079 0.87266 0.5921 0.0
C1117 C 0.88562 0.88654 0.60934 0.0
C1118 C 0.83279 0.90639 0.58345 0.0
C1119 C 0.8605 0.93002 0.58769 0.0
H1120 H 0.77996 0.14715 0.34606 0.0
H1121 H 0.856 0.19505 0.3839 0.0
H1122 H 0.89989 0.149 0.37608 0.0
H1123 H 0.91603 0.09383 0.35933 0.0
H1124 H 0.83928 0.04564 0.32191 0.0
H1125 H 0.79661 0.09315 0.3287 0.0
C1126 C 0.80617 0.14766 0.35256 0.0
C1127 C 0.81453 0.17452 0.36561 0.0
C1128 C 0.83125 0.12095 0.34809 0.0
C1129 C 0.84871 0.17467 0.37385 0.0
C1130 C 0.87389 0.14831 0.36939 0.0
C1131 C 0.89009 0.09382 0.35253 0.0
C1132 C 0.881 0.06599 0.34015 0.0
C1133 C 0.86536 0.12114 0.35664 0.0
C1134 C 0.84711 0.06652 0.33156 0.0
C1135 C 0.82258 0.09372 0.33543 0.0
H1136 H 0.65925 0.1699 0.11339 0.0
H1137 H 0.69782 0.09508 0.07204 0.0
H1138 H 0.65053 0.05331 0.08041 0.0
H1139 H 0.60015 0.03654 0.10037 0.0
H1140 H 0.56196 0.1101 0.14236 0.0
H1141 H 0.60705 0.15377 0.13277 0.0
C1142 C 0.65711 0.14463 0.10607 0.0
C1143 C 0.68227 0.13571 0.09213 0.0
C1144 C 0.63002 0.12033 0.11114 0.0
C1145 C 0.67907 0.10268 0.08289 0.0
C1146 C 0.65199 0.07869 0.08767 0.0
C1147 C 0.60149 0.06218 0.1074 0.0
C1148 C 0.57773 0.06988 0.12214 0.0
C1149 C 0.62766 0.087 0.10194 0.0
C1150 C 0.57994 0.10335 0.13102 0.0
C1151 C 0.60575 0.12836 0.12554 0.0
H1152 H 0.6641 0.19372 0.60751 0.0
H1153 H 0.75576 0.16125 0.64019 0.0
H1154 H 0.72178 0.11199 0.65341 0.0
H1155 H 0.66701 0.07675 0.65514 0.0
H1156 H 0.57479 0.10813 0.62265 0.0
H1157 H 0.6079 0.15909 0.61012 0.0
C1158 C 0.67657 0.17593 0.61757 0.0
C1159 C 0.71257 0.18123 0.62273 0.0
C1160 C 0.65679 0.14734 0.6252 0.0
C1161 C 0.7282 0.1579 0.63585 0.0
C1162 C 0.70877 0.12961 0.64346 0.0
C1163 C 0.65396 0.09476 0.64539 0.0
C1164 C 0.6184 0.08834 0.63984 0.0
C1165 C 0.67318 0.1239 0.63815 0.0
C1166 C 0.6021 0.11225 0.62722 0.0
C1167 C 0.62107 0.14142 0.61998 0.0
H1168 H 0.56675 0.90297 0.36472 0.0
H1169 H 0.5998 0.99167 0.39923 0.0
H1170 H 0.65029 0.95705 0.4108 0.0
H1171 H 0.68651 0.90271 0.41045 0.0
H1172 H 0.65444 0.81345 0.37612 0.0
H1173 H 0.60221 0.84706 0.36534 0.0
C1174 C 0.5849 0.91464 0.37484 0.0
C1175 C 0.57944 0.95002 0.38098 0.0
C1176 C 0.61419 0.89451 0.38149 0.0
C1177 C 0.60326 0.96462 0.39416 0.0
C1178 C 0.63226 0.94482 0.40082 0.0
C1179 C 0.66809 0.89042 0.40066 0.0
C1180 C 0.67469 0.85557 0.39407 0.0
C1181 C 0.63819 0.90991 0.39446 0.0
C1182 C 0.6502 0.8402 0.38146 0.0
C1183 C 0.6203 0.85946 0.37524 0.0
H1184 H 0.85 0.82356 0.10871 0.0
H1185 H 0.75789 0.85964 0.13995 0.0
H1186 H 0.79234 0.90921 0.15255 0.0
H1187 H 0.84789 0.94329 0.15431 0.0
H1188 H 0.94051 0.90806 0.12324 0.0
H1189 H 0.90666 0.85726 0.11116 0.0
C1190 C 0.83749 0.84225 0.11829 0.0
C1191 C 0.80129 0.83783 0.12328 0.0
C1192 C 0.85755 0.87092 0.12558 0.0
C1193 C 0.78562 0.86229 0.13579 0.0
C1194 C 0.80532 0.89074 0.14304 0.0
C1195 C 0.86085 0.92449 0.14496 0.0
C1196 C 0.89677 0.92974 0.1397 0.0
C1197 C 0.84122 0.89543 0.13797 0.0
C1198 C 0.91294 0.90485 0.12757 0.0
C1199 C 0.89355 0.87576 0.1206 0.0
H1200 H 0.94059 0.09425 0.8623 0.0
H1201 H 0.89782 1.00399 0.89255 0.0
H1202 H 0.84918 0.04091 0.90439 0.0
H1203 H 0.81754 0.0981 0.90554 0.0
H1204 H 0.85962 0.18883 0.87541 0.0
H1205 H 0.90967 0.15253 0.86433 0.0
C1206 C 0.92069 0.08269 0.87152 0.0
C1207 C 0.9229 0.04627 0.87642 0.0
C1208 C 0.89255 0.10416 0.87834 0.0
C1209 C 0.89688 0.03185 0.88847 0.0
C1210 C 0.86894 0.05297 0.89527 0.0
C1211 C 0.83769 0.11011 0.89662 0.0
C1212 C 0.83455 0.14622 0.8913 0.0
C1213 C 0.86635 0.08906 0.89021 0.0
C1214 C 0.86117 0.16114 0.87976 0.0
C1215 C 0.88984 0.14035 0.87336 0.0
H1216 H 0.79659 0.66294 0.6473 0.0
H1217 H 0.86697 0.70103 0.60381 0.0
H1218 H 0.91077 0.65494 0.61194 0.0
H1219 H 0.92767 0.60165 0.63031 0.0
H1220 H 0.85597 0.56303 0.67312 0.0
H1221 H 0.8144 0.61161 0.66641 0.0
C1222 C 0.82158 0.66137 0.63964 0.0
C1223 C 0.8283 0.68539 0.62489 0.0
C1224 C 0.84649 0.63459 0.64425 0.0
C1225 C 0.86095 0.68286 0.61518 0.0
C1226 C 0.88605 0.65647 0.61982 0.0
C1227 C 0.90317 0.6041 0.63834 0.0
C1228 C 0.89501 0.57852 0.65217 0.0
C1229 C 0.87893 0.63189 0.63419 0.0
C1230 C 0.86295 0.5821 0.66232 0.0
C1231 C 0.83907 0.60991 0.65849 0.0
H1232 H 0.67296 0.60383 0.89522 0.0
H1233 H 0.63544 0.70827 0.8785 0.0
H1234 H 0.58155 0.68157 0.8652 0.0
H1235 H 0.54545 0.62832 0.85773 0.0
H1236 H 0.58407 0.52401 0.87404 0.0
H1237 H 0.637 0.55098 0.88797 0.0
C1238 C 0.65294 0.62087 0.88879 0.0
C1239 C 0.65839 0.65808 0.88793 0.0
C1240 C 0.62217 0.60533 0.88096 0.0
C1241 C 0.63211 0.67957 0.87938 0.0
C1242 C 0.60123 0.6643 0.87173 0.0
C1243 C 0.56542 0.61147 0.86433 0.0
C1244 C 0.56065 0.57412 0.86477 0.0
C1245 C 0.59606 0.62717 0.87232 0.0
C1246 C 0.58692 0.55279 0.87342 0.0
C1247 C 0.61727 0.5682 0.88144 0.0
H1248 H 0.58768 0.41088 0.12784 0.0
H1249 H 0.66016 0.44648 0.17101 0.0
H1250 H 0.70076 0.39746 0.16383 0.0
H1251 H 0.71739 0.3463 0.14445 0.0
H1252 H 0.64631 0.31077 0.10071 0.0
H1253 H 0.60356 0.35775 0.10903 0.0
C1254 C 0.61217 0.40771 0.13581 0.0
C1255 C 0.6208 0.43257 0.14991 0.0
C1256 C 0.63585 0.37955 0.13144 0.0
C1257 C 0.65282 0.42802 0.16 0.0
C1258 C 0.67614 0.39993 0.15591 0.0
C1259 C 0.69248 0.34863 0.13676 0.0
C1260 C 0.68524 0.32506 0.12191 0.0
C1261 C 0.6682 0.37586 0.1415 0.0
C1262 C 0.6527 0.32857 0.11218 0.0
C1263 C 0.62822 0.35547 0.11692 0.0
H1264 H 0.81725 0.41175 0.40133 0.0
H1265 H 0.85381 0.31737 0.37227 0.0
H1266 H 0.90551 0.35017 0.36047 0.0
H1267 H 0.93977 0.40631 0.35769 0.0
H1268 H 0.90255 0.5003 0.38687 0.0
H1269 H 0.85196 0.46696 0.39924 0.0
C1270 C 0.83654 0.3982 0.39249 0.0
C1271 C 0.83139 0.36208 0.38771 0.0
C1272 C 0.8662 0.41724 0.38566 0.0
C1273 C 0.8569 0.34514 0.37622 0.0
C1274 C 0.88654 0.36391 0.36941 0.0
C1275 C 0.92064 0.41946 0.36678 0.0
C1276 C 0.92503 0.45585 0.37125 0.0
C1277 C 0.89135 0.40007 0.37392 0.0
C1278 C 0.89995 0.47238 0.38312 0.0
C1279 C 0.8709 0.45333 0.39024 0.0
H1280 H 0.91996 0.419 0.8586 0.0
H1281 H 0.84605 0.4555 0.81626 0.0
H1282 H 0.80594 0.40601 0.8235 0.0
H1283 H 0.7901 0.35447 0.843 0.0
H1284 H 0.86291 0.31892 0.88605 0.0
H1285 H 0.90512 0.36588 0.87734 0.0
C1286 C 0.8953 0.41592 0.85078 0.0
C1287 C 0.88609 0.44111 0.83692 0.0
C1288 C 0.87195 0.38771 0.85525 0.0
C1289 C 0.85384 0.4367 0.82705 0.0
C1290 C 0.8308 0.4084 0.8312 0.0
C1291 C 0.81528 0.35681 0.85044 0.0
C1292 C 0.82316 0.33324 0.86524 0.0
C1293 C 0.83929 0.3841 0.84548 0.0
C1294 C 0.856 0.33674 0.87467 0.0
C1295 C 0.8802 0.36361 0.86968 0.0
H1296 H 0.94086 0.59996 0.12762 0.0
H1297 H 0.90553 0.50949 0.09505 0.0
H1298 H 0.85598 0.54455 0.08266 0.0
H1299 H 0.82126 0.59991 0.08182 0.0
H1300 H 0.85583 0.69084 0.11426 0.0
H1301 H 0.90709 0.65668 0.12574 0.0
C1302 C 0.92239 0.58796 0.11777 0.0
C1303 C 0.92691 0.552 0.11239 0.0
C1304 C 0.89374 0.60835 0.11063 0.0
C1305 C 0.90276 0.537 0.09952 0.0
C1306 C 0.87433 0.55705 0.0924 0.0
C1307 C 0.84005 0.61245 0.09132 0.0
C1308 C 0.83442 0.64794 0.09719 0.0
C1309 C 0.86936 0.59262 0.09797 0.0
C1310 C 0.85934 0.6636 0.10946 0.0
C1311 C 0.88867 0.64403 0.1161 0.0
H1312 H 0.66193 0.56001 0.33745 0.0
H1313 H 0.56787 0.60125 0.36516 0.0
H1314 H 0.60255 0.65132 0.3773 0.0
H1315 H 0.66008 0.68277 0.3808 0.0
H1316 H 0.75384 0.64106 0.35304 0.0
H1317 H 0.71875 0.59201 0.34027 0.0
C1318 C 0.64887 0.58 0.34606 0.0
C1319 C 0.61227 0.57663 0.35037 0.0
C1320 C 0.66899 0.6087 0.35311 0.0
C1321 C 0.59598 0.60297 0.36157 0.0
C1322 C 0.61582 0.63167 0.36859 0.0
C1323 C 0.67283 0.66297 0.37195 0.0
C1324 C 0.70963 0.66563 0.36798 0.0
C1325 C 0.65243 0.63467 0.36458 0.0
C1326 C 0.72562 0.63976 0.35639 0.0
C1327 C 0.70556 0.61161 0.34905 0.0
H1328 H 0.67057 0.3418 0.61362 0.0
H1329 H 0.69878 0.41018 0.56726 0.0
H1330 H 0.65023 0.4509 0.57529 0.0
H1331 H 0.60155 0.46875 0.5962 0.0
H1332 H 0.57406 0.40183 0.64323 0.0
H1333 H 0.62041 0.35903 0.63419 0.0
C1334 C 0.66585 0.3654 0.60516 0.0
C1335 C 0.68843 0.37287 0.58987 0.0
C1336 C 0.63814 0.38919 0.61005 0.0
C1337 C 0.68202 0.40379 0.57916 0.0
C1338 C 0.65423 0.42717 0.58374 0.0
C1339 C 0.60553 0.44474 0.60446 0.0
C1340 C 0.58438 0.43867 0.62042 0.0
C1341 C 0.63245 0.42041 0.59929 0.0
C1342 C 0.59002 0.40734 0.63092 0.0
C1343 C 0.61653 0.38279 0.62575 0.0
H1344 H 0.0859 0.40642 0.3635 0.0
H1345 H 0.15635 0.43497 0.31804 0.0
H1346 H 0.19576 0.38528 0.32585 0.0
H1347 H 0.21223 0.33583 0.34648 0.0
H1348 H 0.14335 0.30761 0.3926 0.0
H1349 H 0.10141 0.35486 0.38359 0.0
C1350 C 0.10964 0.40151 0.35517 0.0
C1351 C 0.11812 0.42461 0.34023 0.0
C1352 C 0.13269 0.37306 0.35993 0.0
C1353 C 0.14919 0.41788 0.32968 0.0
C1354 C 0.17183 0.38942 0.33414 0.0
C1355 C 0.18797 0.3398 0.35454 0.0
C1356 C 0.18114 0.31824 0.37027 0.0
C1357 C 0.16417 0.36721 0.3494 0.0
C1358 C 0.14943 0.32385 0.38047 0.0
C1359 C 0.1254 0.3509 0.37532 0.0
H1360 H 0.32134 0.40778 0.0878 0.0
H1361 H 0.35849 0.31631 0.11916 0.0
H1362 H 0.40988 0.35052 0.1302 0.0
H1363 H 0.44324 0.40737 0.13198 0.0
H1364 H 0.40537 0.49842 0.10051 0.0
H1365 H 0.35557 0.46339 0.08858 0.0
C1366 C 0.34073 0.39515 0.09696 0.0
C1367 C 0.33577 0.35948 0.10266 0.0
C1368 C 0.37017 0.41501 0.10337 0.0
C1369 C 0.36143 0.34371 0.11452 0.0
C1370 C 0.39087 0.3633 0.1209 0.0
C1371 C 0.42416 0.41949 0.12246 0.0
C1372 C 0.42807 0.4556 0.11727 0.0
C1373 C 0.39533 0.39912 0.11559 0.0
C1374 C 0.4031 0.47077 0.10484 0.0
C1375 C 0.37451 0.45074 0.09797 0.0
H1376 H 0.30213 0.67086 0.8426 0.0
H1377 H 0.36289 0.69127 0.89277 0.0
H1378 H 0.40302 0.64163 0.88524 0.0
H1379 H 0.41836 0.5897 0.86544 0.0
H1380 H 0.35549 0.56842 0.81606 0.0
H1381 H 0.31908 0.62126 0.82215 0.0
C1382 C 0.32429 0.6647 0.85185 0.0
C1383 C 0.32926 0.68471 0.8683 0.0
C1384 C 0.34695 0.63582 0.84757 0.0
C1385 C 0.35824 0.67625 0.88007 0.0
C1386 C 0.38124 0.64782 0.87576 0.0
C1387 C 0.39706 0.59696 0.85586 0.0
C1388 C 0.38963 0.57498 0.84035 0.0
C1389 C 0.37554 0.62705 0.85969 0.0
C1390 C 0.36169 0.58467 0.82817 0.0
C1391 C 0.34077 0.61488 0.83166 0.0
H1392 H 0.10368 0.54159 0.59629 0.0
H1393 H 0.06871 0.61093 0.64093 0.0
H1394 H 0.11558 0.65382 0.63287 0.0
H1395 H 0.16846 0.67025 0.61408 0.0
H1396 H 0.20399 0.59951 0.57012 0.0
H1397 H 0.15481 0.55884 0.57692 0.0
C1398 C 0.10611 0.56615 0.60423 0.0
C1399 C 0.08272 0.57286 0.61926 0.0
C1400 C 0.13332 0.59052 0.59964 0.0
C1401 C 0.08638 0.60493 0.62934 0.0
C1402 C 0.1132 0.62951 0.62473 0.0
C1403 C 0.16522 0.64615 0.60583 0.0
C1404 C 0.19008 0.63801 0.59162 0.0
C1405 C 0.13709 0.62242 0.61003 0.0
C1406 C 0.18548 0.60646 0.5812 0.0
C1407 C 0.15733 0.58311 0.58508 0.0
H1408 H 0.16347 0.56881 0.15545 0.0
H1409 H 0.072 0.60485 0.1237 0.0
H1410 H 0.10642 0.65572 0.11209 0.0
H1411 H 0.16328 0.68926 0.11028 0.0
H1412 H 0.25426 0.65226 0.14214 0.0
H1413 H 0.21921 0.60267 0.15427 0.0
C1414 C 0.15088 0.58781 0.14606 0.0
C1415 C 0.11512 0.58277 0.14047 0.0
C1416 C 0.17085 0.6169 0.13934 0.0
C1417 C 0.09944 0.60789 0.12828 0.0
C1418 C 0.11916 0.63702 0.12158 0.0
C1419 C 0.1754 0.67037 0.11989 0.0
C1420 C 0.21147 0.67455 0.1252 0.0
C1421 C 0.15501 0.64166 0.1269 0.0
C1422 C 0.22665 0.64982 0.13774 0.0
C1423 C 0.2066 0.62135 0.14473 0.0
H1424 H 0.14504 0.34226 0.88115 0.0
H1425 H 0.17097 0.40524 0.92983 0.0
H1426 H 0.12463 0.44844 0.92157 0.0
H1427 H 0.07922 0.47027 0.89966 0.0
H1428 H 0.05472 0.40908 0.85016 0.0
H1429 H 0.09794 0.36337 0.85959 0.0
C1430 C 0.14017 0.36516 0.8901 0.0
C1431 C 0.16148 0.37045 0.90611 0.0
C1432 C 0.11398 0.39047 0.88501 0.0
C1433 C 0.15508 0.40054 0.91741 0.0
C1434 C 0.12861 0.42533 0.91267 0.0
C1435 C 0.08315 0.44687 0.89095 0.0
C1436 C 0.06379 0.44328 0.87417 0.0
C1437 C 0.10834 0.42091 0.89634 0.0
C1438 C 0.06934 0.4127 0.86309 0.0
C1439 C 0.09404 0.38649 0.8685 0.0
H1440 H 0.35229 0.32048 0.61634 0.0
H1441 H 0.26007 0.3605 0.64613 0.0
H1442 H 0.29591 0.40858 0.65929 0.0
H1443 H 0.35268 0.44063 0.66166 0.0
H1444 H 0.44534 0.4013 0.63199 0.0
H1445 H 0.41018 0.35161 0.61971 0.0
C1446 C 0.34006 0.33969 0.62573 0.0
C1447 C 0.30341 0.33687 0.63012 0.0
C1448 C 0.36091 0.36746 0.63335 0.0
C1449 C 0.28813 0.36194 0.64242 0.0
C1450 C 0.30862 0.38953 0.64999 0.0
C1451 C 0.36538 0.4211 0.65262 0.0
C1452 C 0.40168 0.42497 0.64775 0.0
C1453 C 0.34496 0.39271 0.64547 0.0
C1454 C 0.41749 0.39917 0.63602 0.0
C1455 C 0.39734 0.37073 0.62891 0.0
H1456 H 0.4084 0.53563 0.39967 0.0
H1457 H 0.44293 0.60489 0.35489 0.0
H1458 H 0.39759 0.64887 0.36371 0.0
H1459 H 0.34598 0.66631 0.3831 0.0
H1460 H 0.31027 0.5958 0.42709 0.0
H1461 H 0.3584 0.55399 0.41972 0.0
C1462 C 0.4062 0.56042 0.39188 0.0
C1463 C 0.429 0.56677 0.37656 0.0
C1464 C 0.37979 0.58546 0.3969 0.0
C1465 C 0.42566 0.59913 0.36668 0.0
C1466 C 0.39973 0.62436 0.37173 0.0
C1467 C 0.34901 0.64204 0.39125 0.0
C1468 C 0.32442 0.63427 0.40563 0.0
C1469 C 0.37637 0.61765 0.38668 0.0
C1470 C 0.32865 0.60247 0.41591 0.0
C1471 C 0.35616 0.57846 0.41168 0.0
loop_
_geom_bond_atom_site_label_1
_geom_bond_atom_site_label_2
_geom_bond_distance
_geom_bond_site_symmetry_2
_ccdc_geom_bond_type
Mg0 O1 2.028 . S
Mg0 O7 1.986 . S
Mg0 O9 2.114 1_545 S
Mg0 O10 2.251 1_545 S
Mg0 O13 2.010 . S
O1 Mg0 2.028 . S
O1 C4 1.250 . S
O2 Mg3 2.028 . S
O2 C4 1.248 . S
Mg3 O2 2.028 . S
Mg3 O8 2.032 . S
Mg3 O10 2.079 1_545 S
C4 O1 1.250 . S
C4 O2 1.248 . S
C5 O6 1.264 . S
C5 O13 1.249 . S
O6 C5 1.264 . S
O7 Mg0 1.986 . S
O7 C11 1.246 . S
O8 Mg3 2.032 . S
O8 C11 1.259 . S
O9 Mg0 2.114 1_565 S
O9 C12 1.252 . S
O10 Mg0 2.251 1_565 S
O10 Mg3 2.079 1_565 S
O10 C12 1.273 . S
C11 O7 1.246 . S
C11 O8 1.259 . S
C12 O9 1.252 . S
C12 O10 1.273 . S
O13 Mg0 2.010 . S
O13 C5 1.249 . S
Mg14 O15 2.028 . S
Mg14 O21 1.986 . S
Mg14 O23 2.114 . S
Mg14 O24 2.251 . S
Mg14 O27 2.010 . S
O15 Mg14 2.028 . S
O15 C18 1.250 . S
O16 Mg17 2.028 . S
O16 C18 1.248 . S
Mg17 O16 2.028 . S
Mg17 O22 2.032 . S
Mg17 O24 2.079 . S
C18 O15 1.250 . S
C18 O16 1.248 . S
C19 O20 1.264 . S
C19 O27 1.249 . S
O20 C19 1.264 . S
O21 Mg14 1.986 . S
O21 C25 1.246 . S
O22 Mg17 2.032 . S
O22 C25 1.259 . S
O23 Mg14 2.114 . S
O23 C26 1.252 . S
O24 Mg14 2.251 . S
O24 Mg17 2.079 . S
O24 C26 1.273 . S
C25 O21 1.246 . S
C25 O22 1.259 . S
C26 O23 1.252 . S
C26 O24 1.273 . S
O27 Mg14 2.010 . S
O27 C19 1.249 . S
Mg28 O29 2.028 . S
Mg28 O35 1.986 . S
Mg28 O37 2.114 1_565 S
Mg28 O38 2.251 1_565 S
Mg28 O41 2.010 . S
O29 Mg28 2.028 . S
O29 C32 1.250 . S
O30 Mg31 2.028 . S
O30 C32 1.248 . S
Mg31 O30 2.028 . S
Mg31 O36 2.032 . S
Mg31 O38 2.079 1_565 S
C32 O29 1.250 . S
C32 O30 1.248 . S
C33 O34 1.264 . S
C33 O41 1.249 1_655 S
O34 C33 1.264 . S
O35 Mg28 1.986 . S
O35 C39 1.246 . S
O36 Mg31 2.032 . S
O36 C39 1.259 . S
O37 Mg28 2.114 1_545 S
O37 C40 1.252 . S
O38 Mg28 2.251 1_545 S
O38 Mg31 2.079 1_545 S
O38 C40 1.273 . S
C39 O35 1.246 . S
C39 O36 1.259 . S
C40 O37 1.252 . S
C40 O38 1.273 . S
O41 Mg28 2.010 . S
O41 C33 1.249 1_455 S
Mg42 O43 2.028 . S
Mg42 O49 1.986 . S
Mg42 O51 2.114 . S
Mg42 O52 2.251 . S
Mg42 O55 2.010 . S
O43 Mg42 2.028 . S
O43 C46 1.250 . S
O44 Mg45 2.028 . S
O44 C46 1.248 . S
Mg45 O44 2.028 . S
Mg45 O50 2.032 . S
Mg45 O52 2.079 . S
C46 O43 1.250 . S
C46 O44 1.248 . S
C47 O48 1.264 . S
C47 O55 1.249 . S
O48 C47 1.264 . S
O49 Mg42 1.986 . S
O49 C53 1.246 . S
O50 Mg45 2.032 . S
O50 C53 1.259 . S
O51 Mg42 2.114 . S
O51 C54 1.252 . S
O52 Mg42 2.251 . S
O52 Mg45 2.079 . S
O52 C54 1.273 . S
C53 O49 1.246 . S
C53 O50 1.259 . S
C54 O51 1.252 . S
C54 O52 1.273 . S
O55 Mg42 2.010 . S
O55 C47 1.249 . S
Mg56 O57 2.028 . S
Mg56 O63 1.986 . S
Mg56 O65 2.114 1_565 S
Mg56 O66 2.251 1_565 S
Mg56 O69 2.010 . S
O57 Mg56 2.028 . S
O57 C60 1.250 . S
O58 Mg59 2.028 . S
O58 C60 1.248 . S
Mg59 O58 2.028 . S
Mg59 O64 2.032 . S
Mg59 O66 2.079 1_565 S
C60 O57 1.250 . S
C60 O58 1.248 . S
C61 O62 1.264 . S
C61 O69 1.249 . S
O62 C61 1.264 . S
O63 Mg56 1.986 . S
O63 C67 1.246 . S
O64 Mg59 2.032 . S
O64 C67 1.259 . S
O65 Mg56 2.114 1_545 S
O65 C68 1.252 . S
O66 Mg56 2.251 1_545 S
O66 Mg59 2.079 1_545 S
O66 C68 1.273 . S
C67 O63 1.246 . S
C67 O64 1.259 . S
C68 O65 1.252 . S
C68 O66 1.273 . S
O69 Mg56 2.010 . S
O69 C61 1.249 . S
Mg70 O71 2.028 . S
Mg70 O77 1.986 . S
Mg70 O79 2.114 . S
Mg70 O80 2.251 . S
Mg70 O83 2.010 . S
O71 Mg70 2.028 . S
O71 C74 1.250 . S
O72 Mg73 2.028 . S
O72 C74 1.248 . S
Mg73 O72 2.028 . S
Mg73 O78 2.032 . S
Mg73 O80 2.079 . S
C74 O71 1.250 . S
C74 O72 1.248 . S
C75 O76 1.264 . S
C75 O83 1.249 . S
O76 C75 1.264 . S
O77 Mg70 1.986 . S
O77 C81 1.246 . S
O78 Mg73 2.032 . S
O78 C81 1.259 . S
O79 Mg70 2.114 . S
O79 C82 1.252 . S
O80 Mg70 2.251 . S
O80 Mg73 2.079 . S
O80 C82 1.273 . S
C81 O77 1.246 . S
C81 O78 1.259 . S
C82 O79 1.252 . S
C82 O80 1.273 . S
O83 Mg70 2.010 . S
O83 C75 1.249 . S
Mg84 O85 2.028 . S
Mg84 O91 1.986 . S
Mg84 O93 2.114 1_545 S
Mg84 O94 2.251 1_545 S
Mg84 O97 2.010 . S
O85 Mg84 2.028 . S
O85 C88 1.250 . S
O86 Mg87 2.028 . S
O86 C88 1.248 . S
Mg87 O86 2.028 . S
Mg87 O92 2.032 . S
Mg87 O94 2.079 1_545 S
C88 O85 1.250 . S
C88 O86 1.248 . S
C89 O90 1.264 . S
C89 O97 1.249 1_655 S
O90 C89 1.264 . S
O91 Mg84 1.986 . S
O91 C95 1.246 . S
O92 Mg87 2.032 . S
O92 C95 1.259 . S
O93 Mg84 2.114 1_565 S
O93 C96 1.252 . S
O94 Mg84 2.251 1_565 S
O94 Mg87 2.079 1_565 S
O94 C96 1.273 . S
C95 O91 1.246 . S
C95 O92 1.259 . S
C96 O93 1.252 . S
C96 O94 1.273 . S
O97 Mg84 2.010 . S
O97 C89 1.249 1_455 S
Mg98 O99 2.028 . S
Mg98 O105 1.986 . S
Mg98 O107 2.114 . S
Mg98 O108 2.251 . S
Mg98 O111 2.010 . S
O99 Mg98 2.028 . S
O99 C102 1.250 . S
O100 Mg101 2.028 . S
O100 C102 1.248 . S
Mg101 O100 2.028 . S
Mg101 O106 2.032 . S
Mg101 O108 2.079 . S
C102 O99 1.250 . S
C102 O100 1.248 . S
C103 O104 1.264 . S
C103 O111 1.249 . S
O104 C103 1.264 . S
O105 Mg98 1.986 . S
O105 C109 1.246 . S
O106 Mg101 2.032 . S
O106 C109 1.259 . S
O107 Mg98 2.114 . S
O107 C110 1.252 . S
O108 Mg98 2.251 . S
O108 Mg101 2.079 . S
O108 C110 1.273 . S
C109 O105 1.246 . S
C109 O106 1.259 . S
C110 O107 1.252 . S
C110 O108 1.273 . S
O111 Mg98 2.010 . S
O111 C103 1.249 . S
Mg112 O113 2.028 . S
Mg112 O119 1.986 . S
Mg112 O121 2.114 1_565 S
Mg112 O122 2.251 1_565 S
Mg112 O125 2.010 . S
O113 Mg112 2.028 . S
O113 C116 1.250 . S
O114 Mg115 2.028 . S
O114 C116 1.248 . S
Mg115 O114 2.028 . S
Mg115 O120 2.032 . S
Mg115 O122 2.079 1_565 S
C116 O113 1.250 . S
C116 O114 1.248 . S
C117 O118 1.264 . S
C117 O125 1.249 . S
O118 C117 1.264 . S
O119 Mg112 1.986 . S
O119 C123 1.246 . S
O120 Mg115 2.032 . S
O120 C123 1.259 . S
O121 Mg112 2.114 1_545 S
O121 C124 1.252 . S
O122 Mg112 2.251 1_545 S
O122 Mg115 2.079 1_545 S
O122 C124 1.273 . S
C123 O119 1.246 . S
C123 O120 1.259 . S
C124 O121 1.252 . S
C124 O122 1.273 . S
O125 Mg112 2.010 . S
O125 C117 1.249 . S
Mg126 O127 2.028 . S
Mg126 O133 1.986 . S
Mg126 O135 2.114 . S
Mg126 O136 2.251 . S
Mg126 O139 2.010 . S
O127 Mg126 2.028 . S
O127 C130 1.250 . S
O128 Mg129 2.028 . S
O128 C130 1.248 . S
Mg129 O128 2.028 . S
Mg129 O134 2.032 . S
Mg129 O136 2.079 . S
C130 O127 1.250 . S
C130 O128 1.248 . S
C131 O132 1.264 . S
C131 O139 1.249 . S
O132 C131 1.264 . S
O133 Mg126 1.986 . S
O133 C137 1.246 . S
O134 Mg129 2.032 . S
O134 C137 1.259 . S
O135 Mg126 2.114 . S
O135 C138 1.252 . S
O136 Mg126 2.251 . S
O136 Mg129 2.079 . S
O136 C138 1.273 . S
C137 O133 1.246 . S
C137 O134 1.259 . S
C138 O135 1.252 . S
C138 O136 1.273 . S
O139 Mg126 2.010 . S
O139 C131 1.249 . S
Mg140 O141 2.028 . S
Mg140 O147 1.986 . S
Mg140 O149 2.114 1_545 S
Mg140 O150 2.251 1_545 S
Mg140 O153 2.010 . S
O141 Mg140 2.028 . S
O141 C144 1.250 . S
O142 Mg143 2.028 . S
O142 C144 1.248 . S
Mg143 O142 2.028 . S
Mg143 O148 2.032 . S
Mg143 O150 2.079 1_545 S
C144 O141 1.250 . S
C144 O142 1.248 . S
C145 O146 1.264 . S
C145 O153 1.249 1_455 S
O146 C145 1.264 . S
O147 Mg140 1.986 . S
O147 C151 1.246 . S
O148 Mg143 2.032 . S
O148 C151 1.259 . S
O149 Mg140 2.114 1_565 S
O149 C152 1.252 . S
O150 Mg140 2.251 1_565 S
O150 Mg143 2.079 1_565 S
O150 C152 1.273 . S
C151 O147 1.246 . S
C151 O148 1.259 . S
C152 O149 1.252 . S
C152 O150 1.273 . S
O153 Mg140 2.010 . S
O153 C145 1.249 1_655 S
Mg154 O155 2.028 . S
Mg154 O161 1.986 . S
Mg154 O163 2.114 . S
Mg154 O164 2.251 . S
Mg154 O167 2.010 . S
O155 Mg154 2.028 . S
O155 C158 1.250 . S
O156 Mg157 2.028 . S
O156 C158 1.248 . S
Mg157 O156 2.028 . S
Mg157 O162 2.032 . S
Mg157 O164 2.079 . S
C158 O155 1.250 . S
C158 O156 1.248 . S
C159 O160 1.264 . S
C159 O167 1.249 . S
O160 C159 1.264 . S
O161 Mg154 1.986 . S
O161 C165 1.246 . S
O162 Mg157 2.032 . S
O162 C165 1.259 . S
O163 Mg154 2.114 . S
O163 C166 1.252 . S
O164 Mg154 2.251 . S
O164 Mg157 2.079 . S
O164 C166 1.273 . S
C165 O161 1.246 . S
C165 O162 1.259 . S
C166 O163 1.252 . S
C166 O164 1.273 . S
O167 Mg154 2.010 . S
O167 C159 1.249 . S
Mg168 O169 2.028 . S
Mg168 O175 1.986 . S
Mg168 O177 2.114 1_545 S
Mg168 O178 2.251 1_545 S
Mg168 O181 2.010 . S
O169 Mg168 2.028 . S
O169 C172 1.250 . S
O170 Mg171 2.028 . S
O170 C172 1.248 . S
Mg171 O170 2.028 . S
Mg171 O176 2.032 . S
Mg171 O178 2.079 1_545 S
C172 O169 1.250 . S
C172 O170 1.248 . S
C173 O174 1.264 . S
C173 O181 1.249 . S
O174 C173 1.264 . S
O175 Mg168 1.986 . S
O175 C179 1.246 . S
O176 Mg171 2.032 . S
O176 C179 1.259 . S
O177 Mg168 2.114 1_565 S
O177 C180 1.252 . S
O178 Mg168 2.251 1_565 S
O178 Mg171 2.079 1_565 S
O178 C180 1.273 . S
C179 O175 1.246 . S
C179 O176 1.259 . S
C180 O177 1.252 . S
C180 O178 1.273 . S
O181 Mg168 2.010 . S
O181 C173 1.249 . S
Mg182 O183 2.028 . S
Mg182 O189 1.986 . S
Mg182 O191 2.114 . S
Mg182 O192 2.251 . S
Mg182 O195 2.010 . S
O183 Mg182 2.028 . S
O183 C186 1.250 . S
O184 Mg185 2.028 . S
O184 C186 1.248 . S
Mg185 O184 2.028 . S
Mg185 O190 2.032 . S
Mg185 O192 2.079 . S
C186 O183 1.250 . S
C186 O184 1.248 . S
C187 O188 1.264 . S
C187 O195 1.249 . S
O188 C187 1.264 . S
O189 Mg182 1.986 . S
O189 C193 1.246 . S
O190 Mg185 2.032 . S
O190 C193 1.259 . S
O191 Mg182 2.114 . S
O191 C194 1.252 . S
O192 Mg182 2.251 . S
O192 Mg185 2.079 . S
O192 C194 1.273 . S
C193 O189 1.246 . S
C193 O190 1.259 . S
C194 O191 1.252 . S
C194 O192 1.273 . S
O195 Mg182 2.010 . S
O195 C187 1.249 . S
Mg196 O197 2.028 . S
Mg196 O203 1.986 . S
Mg196 O205 2.114 1_565 S
Mg196 O206 2.251 1_565 S
Mg196 O209 2.010 . S
O197 Mg196 2.028 . S
O197 C200 1.250 . S
O198 Mg199 2.028 . S
O198 C200 1.248 . S
Mg199 O198 2.028 . S
Mg199 O204 2.032 . S
Mg199 O206 2.079 1_565 S
C200 O197 1.250 . S
C200 O198 1.248 . S
C201 O202 1.264 . S
C201 O209 1.249 1_455 S
O202 C201 1.264 . S
O203 Mg196 1.986 . S
O203 C207 1.246 . S
O204 Mg199 2.032 . S
O204 C207 1.259 . S
O205 Mg196 2.114 1_545 S
O205 C208 1.252 . S
O206 Mg196 2.251 1_545 S
O206 Mg199 2.079 1_545 S
O206 C208 1.273 . S
C207 O203 1.246 . S
C207 O204 1.259 . S
C208 O205 1.252 . S
C208 O206 1.273 . S
O209 Mg196 2.010 . S
O209 C201 1.249 1_655 S
Mg210 O211 2.028 . S
Mg210 O217 1.986 . S
Mg210 O219 2.114 . S
Mg210 O220 2.251 . S
Mg210 O223 2.010 . S
O211 Mg210 2.028 . S
O211 C214 1.250 . S
O212 Mg213 2.028 . S
O212 C214 1.248 . S
Mg213 O212 2.028 . S
Mg213 O218 2.032 . S
Mg213 O220 2.079 . S
C214 O211 1.250 . S
C214 O212 1.248 . S
C215 O216 1.264 . S
C215 O223 1.249 . S
O216 C215 1.264 . S
O217 Mg210 1.986 . S
O217 C221 1.246 . S
O218 Mg213 2.032 . S
O218 C221 1.259 . S
O219 Mg210 2.114 . S
O219 C222 1.252 . S
O220 Mg210 2.251 . S
O220 Mg213 2.079 . S
O220 C222 1.273 . S
C221 O217 1.246 . S
C221 O218 1.259 . S
C222 O219 1.252 . S
C222 O220 1.273 . S
O223 Mg210 2.010 . S
O223 C215 1.249 . S
Mg224 O225 2.028 . S
Mg224 O231 1.986 . S
Mg224 O233 2.114 . S
Mg224 O234 2.251 . S
Mg224 O237 2.010 . S
O225 Mg224 2.028 . S
O225 C228 1.250 . S
O226 Mg227 2.028 . S
O226 C228 1.248 . S
Mg227 O226 2.028 . S
Mg227 O232 2.032 . S
Mg227 O234 2.079 . S
C228 O225 1.250 . S
C228 O226 1.248 . S
C229 O230 1.264 . S
C229 O237 1.249 1_455 S
O230 C229 1.264 . S
O231 Mg224 1.986 . S
O231 C235 1.246 . S
O232 Mg227 2.032 . S
O232 C235 1.259 . S
O233 Mg224 2.114 . S
O233 C236 1.252 . S
O234 Mg224 2.251 . S
O234 Mg227 2.079 . S
O234 C236 1.273 . S
C235 O231 1.246 . S
C235 O232 1.259 . S
C236 O233 1.252 . S
C236 O234 1.273 . S
O237 Mg224 2.010 . S
O237 C229 1.249 1_655 S
Mg238 O239 2.028 . S
Mg238 O245 1.986 . S
Mg238 O247 2.114 . S
Mg238 O248 2.251 . S
Mg238 O251 2.010 . S
O239 Mg238 2.028 . S
O239 C242 1.250 . S
O240 Mg241 2.028 . S
O240 C242 1.248 . S
Mg241 O240 2.028 . S
Mg241 O246 2.032 . S
Mg241 O248 2.079 . S
C242 O239 1.250 . S
C242 O240 1.248 . S
C243 O244 1.264 . S
C243 O251 1.249 . S
O244 C243 1.264 . S
O245 Mg238 1.986 . S
O245 C249 1.246 . S
O246 Mg241 2.032 . S
O246 C249 1.259 . S
O247 Mg238 2.114 . S
O247 C250 1.252 . S
O248 Mg238 2.251 . S
O248 Mg241 2.079 . S
O248 C250 1.273 . S
C249 O245 1.246 . S
C249 O246 1.259 . S
C250 O247 1.252 . S
C250 O248 1.273 . S
O251 Mg238 2.010 . S
O251 C243 1.249 . S
Mg252 O253 2.028 . S
Mg252 O259 1.986 . S
Mg252 O261 2.114 . S
Mg252 O262 2.251 . S
Mg252 O265 2.010 . S
O253 Mg252 2.028 . S
O253 C256 1.250 . S
O254 Mg255 2.028 . S
O254 C256 1.248 . S
Mg255 O254 2.028 . S
Mg255 O260 2.032 . S
Mg255 O262 2.079 . S
C256 O253 1.250 . S
C256 O254 1.248 . S
C257 O258 1.264 . S
C257 O265 1.249 . S
O258 C257 1.264 . S
O259 Mg252 1.986 . S
O259 C263 1.246 . S
O260 Mg255 2.032 . S
O260 C263 1.259 . S
O261 Mg252 2.114 . S
O261 C264 1.252 . S
O262 Mg252 2.251 . S
O262 Mg255 2.079 . S
O262 C264 1.273 . S
C263 O259 1.246 . S
C263 O260 1.259 . S
C264 O261 1.252 . S
C264 O262 1.273 . S
O265 Mg252 2.010 . S
O265 C257 1.249 . S
Mg266 O267 2.028 . S
Mg266 O273 1.986 . S
Mg266 O275 2.114 . S
Mg266 O276 2.251 . S
Mg266 O279 2.010 . S
O267 Mg266 2.028 . S
O267 C270 1.250 . S
O268 Mg269 2.028 . S
O268 C270 1.248 . S
Mg269 O268 2.028 . S
Mg269 O274 2.032 . S
Mg269 O276 2.079 . S
C270 O267 1.250 . S
C270 O268 1.248 . S
C271 O272 1.264 . S
C271 O279 1.249 . S
O272 C271 1.264 . S
O273 Mg266 1.986 . S
O273 C277 1.246 . S
O274 Mg269 2.032 . S
O274 C277 1.259 . S
O275 Mg266 2.114 . S
O275 C278 1.252 . S
O276 Mg266 2.251 . S
O276 Mg269 2.079 . S
O276 C278 1.273 . S
C277 O273 1.246 . S
C277 O274 1.259 . S
C278 O275 1.252 . S
C278 O276 1.273 . S
O279 Mg266 2.010 . S
O279 C271 1.249 . S
Mg280 O281 2.028 . S
Mg280 O287 1.986 . S
Mg280 O289 2.114 . S
Mg280 O290 2.251 . S
Mg280 O293 2.010 . S
O281 Mg280 2.028 . S
O281 C284 1.250 . S
O282 Mg283 2.028 . S
O282 C284 1.248 . S
Mg283 O282 2.028 . S
Mg283 O288 2.032 . S
Mg283 O290 2.079 . S
C284 O281 1.250 . S
C284 O282 1.248 . S
C285 O286 1.264 . S
C285 O293 1.249 1_455 S
O286 C285 1.264 . S
O287 Mg280 1.986 . S
O287 C291 1.246 . S
O288 Mg283 2.032 . S
O288 C291 1.259 . S
O289 Mg280 2.114 . S
O289 C292 1.252 . S
O290 Mg280 2.251 . S
O290 Mg283 2.079 . S
O290 C292 1.273 . S
C291 O287 1.246 . S
C291 O288 1.259 . S
C292 O289 1.252 . S
C292 O290 1.273 . S
O293 Mg280 2.010 . S
O293 C285 1.249 1_655 S
Mg294 O295 2.028 . S
Mg294 O301 1.986 . S
Mg294 O303 2.114 . S
Mg294 O304 2.251 . S
Mg294 O307 2.010 . S
O295 Mg294 2.028 . S
O295 C298 1.250 . S
O296 Mg297 2.028 . S
O296 C298 1.248 . S
Mg297 O296 2.028 . S
Mg297 O302 2.032 . S
Mg297 O304 2.079 . S
C298 O295 1.250 . S
C298 O296 1.248 . S
C299 O300 1.264 . S
C299 O307 1.249 . S
O300 C299 1.264 . S
O301 Mg294 1.986 . S
O301 C305 1.246 . S
O302 Mg297 2.032 . S
O302 C305 1.259 . S
O303 Mg294 2.114 . S
O303 C306 1.252 . S
O304 Mg294 2.251 . S
O304 Mg297 2.079 . S
O304 C306 1.273 . S
C305 O301 1.246 . S
C305 O302 1.259 . S
C306 O303 1.252 . S
C306 O304 1.273 . S
O307 Mg294 2.010 . S
O307 C299 1.249 . S
Mg308 O309 2.028 . S
Mg308 O315 1.986 . S
Mg308 O317 2.114 . S
Mg308 O318 2.251 . S
Mg308 O321 2.010 . S
O309 Mg308 2.028 . S
O309 C312 1.250 . S
O310 Mg311 2.028 . S
O310 C312 1.248 . S
Mg311 O310 2.028 . S
Mg311 O316 2.032 . S
Mg311 O318 2.079 . S
C312 O309 1.250 . S
C312 O310 1.248 . S
C313 O314 1.264 . S
C313 O321 1.249 . S
O314 C313 1.264 . S
O315 Mg308 1.986 . S
O315 C319 1.246 . S
O316 Mg311 2.032 . S
O316 C319 1.259 . S
O317 Mg308 2.114 . S
O317 C320 1.252 . S
O318 Mg308 2.251 . S
O318 Mg311 2.079 . S
O318 C320 1.273 . S
C319 O315 1.246 . S
C319 O316 1.259 . S
C320 O317 1.252 . S
C320 O318 1.273 . S
O321 Mg308 2.010 . S
O321 C313 1.249 . S
Mg322 O323 2.028 . S
Mg322 O329 1.986 . S
Mg322 O331 2.114 . S
Mg322 O332 2.251 . S
Mg322 O335 2.010 . S
O323 Mg322 2.028 . S
O323 C326 1.250 . S
O324 Mg325 2.028 . S
O324 C326 1.248 . S
Mg325 O324 2.028 . S
Mg325 O330 2.032 . S
Mg325 O332 2.079 . S
C326 O323 1.250 . S
C326 O324 1.248 . S
C327 O328 1.264 . S
C327 O335 1.249 . S
O328 C327 1.264 . S
O329 Mg322 1.986 . S
O329 C333 1.246 . S
O330 Mg325 2.032 . S
O330 C333 1.259 . S
O331 Mg322 2.114 . S
O331 C334 1.252 . S
O332 Mg322 2.251 . S
O332 Mg325 2.079 . S
O332 C334 1.273 . S
C333 O329 1.246 . S
C333 O330 1.259 . S
C334 O331 1.252 . S
C334 O332 1.273 . S
O335 Mg322 2.010 . S
O335 C327 1.249 . S
Mg336 O337 2.028 . S
Mg336 O343 1.986 . S
Mg336 O345 2.114 . S
Mg336 O346 2.251 . S
Mg336 O349 2.010 . S
O337 Mg336 2.028 . S
O337 C340 1.250 . S
O338 Mg339 2.028 . S
O338 C340 1.248 . S
Mg339 O338 2.028 . S
Mg339 O344 2.032 . S
Mg339 O346 2.079 . S
C340 O337 1.250 . S
C340 O338 1.248 . S
C341 O342 1.264 . S
C341 O349 1.249 1_655 S
O342 C341 1.264 . S
O343 Mg336 1.986 . S
O343 C347 1.246 . S
O344 Mg339 2.032 . S
O344 C347 1.259 . S
O345 Mg336 2.114 . S
O345 C348 1.252 . S
O346 Mg336 2.251 . S
O346 Mg339 2.079 . S
O346 C348 1.273 . S
C347 O343 1.246 . S
C347 O344 1.259 . S
C348 O345 1.252 . S
C348 O346 1.273 . S
O349 Mg336 2.010 . S
O349 C341 1.249 1_455 S
Mg350 O351 2.028 . S
Mg350 O357 1.986 . S
Mg350 O359 2.114 . S
Mg350 O360 2.251 . S
Mg350 O363 2.010 . S
O351 Mg350 2.028 . S
O351 C354 1.250 . S
O352 Mg353 2.028 . S
O352 C354 1.248 . S
Mg353 O352 2.028 . S
Mg353 O358 2.032 . S
Mg353 O360 2.079 . S
C354 O351 1.250 . S
C354 O352 1.248 . S
C355 O356 1.264 . S
C355 O363 1.249 . S
O356 C355 1.264 . S
O357 Mg350 1.986 . S
O357 C361 1.246 . S
O358 Mg353 2.032 . S
O358 C361 1.259 . S
O359 Mg350 2.114 . S
O359 C362 1.252 . S
O360 Mg350 2.251 . S
O360 Mg353 2.079 . S
O360 C362 1.273 . S
C361 O357 1.246 . S
C361 O358 1.259 . S
C362 O359 1.252 . S
C362 O360 1.273 . S
O363 Mg350 2.010 . S
O363 C355 1.249 . S
Mg364 O365 2.028 . S
Mg364 O371 1.986 . S
Mg364 O373 2.114 . S
Mg364 O374 2.251 . S
Mg364 O377 2.010 . S
O365 Mg364 2.028 . S
O365 C368 1.250 . S
O366 Mg367 2.028 . S
O366 C368 1.248 . S
Mg367 O366 2.028 . S
Mg367 O372 2.032 . S
Mg367 O374 2.079 . S
C368 O365 1.250 . S
C368 O366 1.248 . S
C369 O370 1.264 . S
C369 O377 1.249 . S
O370 C369 1.264 . S
O371 Mg364 1.986 . S
O371 C375 1.246 . S
O372 Mg367 2.032 . S
O372 C375 1.259 . S
O373 Mg364 2.114 . S
O373 C376 1.252 . S
O374 Mg364 2.251 . S
O374 Mg367 2.079 . S
O374 C376 1.273 . S
C375 O371 1.246 . S
C375 O372 1.259 . S
C376 O373 1.252 . S
C376 O374 1.273 . S
O377 Mg364 2.010 . S
O377 C369 1.249 . S
Mg378 O379 2.028 . S
Mg378 O385 1.986 . S
Mg378 O387 2.114 . S
Mg378 O388 2.251 . S
Mg378 O391 2.010 . S
O379 Mg378 2.028 . S
O379 C382 1.250 . S
O380 Mg381 2.028 . S
O380 C382 1.248 . S
Mg381 O380 2.028 . S
Mg381 O386 2.032 . S
Mg381 O388 2.079 . S
C382 O379 1.250 . S
C382 O380 1.248 . S
C383 O384 1.264 . S
C383 O391 1.249 . S
O384 C383 1.264 . S
O385 Mg378 1.986 . S
O385 C389 1.246 . S
O386 Mg381 2.032 . S
O386 C389 1.259 . S
O387 Mg378 2.114 . S
O387 C390 1.252 . S
O388 Mg378 2.251 . S
O388 Mg381 2.079 . S
O388 C390 1.273 . S
C389 O385 1.246 . S
C389 O386 1.259 . S
C390 O387 1.252 . S
C390 O388 1.273 . S
O391 Mg378 2.010 . S
O391 C383 1.249 . S
Mg392 O393 2.028 . S
Mg392 O399 1.986 . S
Mg392 O401 2.114 . S
Mg392 O402 2.251 . S
Mg392 O405 2.010 . S
O393 Mg392 2.028 . S
O393 C396 1.250 . S
O394 Mg395 2.028 . S
O394 C396 1.248 . S
Mg395 O394 2.028 . S
Mg395 O400 2.032 . S
Mg395 O402 2.079 . S
C396 O393 1.250 . S
C396 O394 1.248 . S
C397 O398 1.264 . S
C397 O405 1.249 1_655 S
O398 C397 1.264 . S
O399 Mg392 1.986 . S
O399 C403 1.246 . S
O400 Mg395 2.032 . S
O400 C403 1.259 . S
O401 Mg392 2.114 . S
O401 C404 1.252 . S
O402 Mg392 2.251 . S
O402 Mg395 2.079 . S
O402 C404 1.273 . S
C403 O399 1.246 . S
C403 O400 1.259 . S
C404 O401 1.252 . S
C404 O402 1.273 . S
O405 Mg392 2.010 . S
O405 C397 1.249 1_455 S
Mg406 O407 2.028 . S
Mg406 O413 1.986 . S
Mg406 O415 2.114 . S
Mg406 O416 2.251 . S
Mg406 O419 2.010 . S
O407 Mg406 2.028 . S
O407 C410 1.250 . S
O408 Mg409 2.028 . S
O408 C410 1.248 . S
Mg409 O408 2.028 . S
Mg409 O414 2.032 . S
Mg409 O416 2.079 . S
C410 O407 1.250 . S
C410 O408 1.248 . S
C411 O412 1.264 . S
C411 O419 1.249 . S
O412 C411 1.264 . S
O413 Mg406 1.986 . S
O413 C417 1.246 . S
O414 Mg409 2.032 . S
O414 C417 1.259 . S
O415 Mg406 2.114 . S
O415 C418 1.252 . S
O416 Mg406 2.251 . S
O416 Mg409 2.079 . S
O416 C418 1.273 . S
C417 O413 1.246 . S
C417 O414 1.259 . S
C418 O415 1.252 . S
C418 O416 1.273 . S
O419 Mg406 2.010 . S
O419 C411 1.249 . S
Mg420 O421 2.028 . S
Mg420 O427 1.986 . S
Mg420 O429 2.114 . S
Mg420 O430 2.251 . S
Mg420 O433 2.010 . S
O421 Mg420 2.028 . S
O421 C424 1.250 . S
O422 Mg423 2.028 . S
O422 C424 1.248 . S
Mg423 O422 2.028 . S
Mg423 O428 2.032 . S
Mg423 O430 2.079 . S
C424 O421 1.250 . S
C424 O422 1.248 . S
C425 O426 1.264 . S
C425 O433 1.249 . S
O426 C425 1.264 . S
O427 Mg420 1.986 . S
O427 C431 1.246 . S
O428 Mg423 2.032 . S
O428 C431 1.259 . S
O429 Mg420 2.114 . S
O429 C432 1.252 . S
O430 Mg420 2.251 . S
O430 Mg423 2.079 . S
O430 C432 1.273 . S
C431 O427 1.246 . S
C431 O428 1.259 . S
C432 O429 1.252 . S
C432 O430 1.273 . S
O433 Mg420 2.010 . S
O433 C425 1.249 . S
Mg434 O435 2.028 . S
Mg434 O441 1.986 . S
Mg434 O443 2.114 . S
Mg434 O444 2.251 . S
Mg434 O447 2.010 . S
O435 Mg434 2.028 . S
O435 C438 1.250 . S
O436 Mg437 2.028 . S
O436 C438 1.248 . S
Mg437 O436 2.028 . S
Mg437 O442 2.032 . S
Mg437 O444 2.079 . S
C438 O435 1.250 . S
C438 O436 1.248 . S
C439 O440 1.264 . S
C439 O447 1.249 . S
O440 C439 1.264 . S
O441 Mg434 1.986 . S
O441 C445 1.246 . S
O442 Mg437 2.032 . S
O442 C445 1.259 . S
O443 Mg434 2.114 . S
O443 C446 1.252 . S
O444 Mg434 2.251 . S
O444 Mg437 2.079 . S
O444 C446 1.273 . S
C445 O441 1.246 . S
C445 O442 1.259 . S
C446 O443 1.252 . S
C446 O444 1.273 . S
O447 Mg434 2.010 . S
O447 C439 1.249 . S
H448 C454 0.930 . S
H449 C457 0.930 . S
H450 C458 0.930 . S
H451 C459 0.930 . S
H452 C462 0.930 . S
H453 C463 0.930 . S
C454 H448 0.930 . S
C454 C455 1.355 1_545 S
C454 C456 1.415 . S
C455 C454 1.355 1_565 S
C455 C457 1.419 . S
C456 C454 1.415 . S
C456 C461 1.425 1_545 S
C456 C463 1.409 . S
C457 H449 0.930 . S
C457 C455 1.419 . S
C457 C458 1.362 . S
C458 H450 0.930 . S
C458 C457 1.362 . S
C458 C461 1.409 . S
C459 H451 0.930 . S
C459 C460 1.355 1_565 S
C459 C461 1.415 . S
C460 C459 1.355 1_545 S
C460 C462 1.419 . S
C461 C456 1.425 1_565 S
C461 C458 1.409 . S
C461 C459 1.415 . S
C462 H452 0.930 . S
C462 C460 1.419 . S
C462 C463 1.362 . S
C463 H453 0.930 . S
C463 C456 1.409 . S
C463 C462 1.362 . S
H464 C470 0.930 . S
H465 C473 0.930 . S
H466 C474 0.930 . S
H467 C475 0.930 . S
H468 C478 0.930 . S
H469 C479 0.930 . S
C470 H464 0.930 . S
C470 C471 1.355 . S
C470 C472 1.415 . S
C471 C470 1.355 . S
C471 C473 1.419 . S
C472 C470 1.415 . S
C472 C477 1.425 . S
C472 C479 1.409 . S
C473 H465 0.930 . S
C473 C471 1.419 . S
C473 C474 1.362 . S
C474 H466 0.930 . S
C474 C473 1.362 . S
C474 C477 1.409 . S
C475 H467 0.930 . S
C475 C476 1.355 . S
C475 C477 1.415 . S
C476 C475 1.355 . S
C476 C478 1.419 . S
C477 C472 1.425 . S
C477 C474 1.409 . S
C477 C475 1.415 . S
C478 H468 0.930 . S
C478 C476 1.419 . S
C478 C479 1.362 . S
C479 H469 0.930 . S
C479 C472 1.409 . S
C479 C478 1.362 . S
H480 C486 0.930 . S
H481 C489 0.930 . S
H482 C490 0.930 . S
H483 C491 0.930 . S
H484 C494 0.930 . S
H485 C495 0.930 . S
C486 H480 0.930 . S
C486 C487 1.355 1_565 S
C486 C488 1.415 . S
C487 C486 1.355 1_545 S
C487 C489 1.419 . S
C488 C486 1.415 . S
C488 C493 1.425 1_565 S
C488 C495 1.409 . S
C489 H481 0.930 . S
C489 C487 1.419 . S
C489 C490 1.362 . S
C490 H482 0.930 . S
C490 C489 1.362 . S
C490 C493 1.409 . S
C491 H483 0.930 . S
C491 C492 1.355 1_545 S
C491 C493 1.415 . S
C492 C491 1.355 1_565 S
C492 C494 1.419 . S
C493 C488 1.425 1_545 S
C493 C490 1.409 . S
C493 C491 1.415 . S
C494 H484 0.930 . S
C494 C492 1.419 . S
C494 C495 1.362 . S
C495 H485 0.930 . S
C495 C488 1.409 . S
C495 C494 1.362 . S
H496 C502 0.930 . S
H497 C505 0.930 . S
H498 C506 0.930 . S
H499 C507 0.930 . S
H500 C510 0.930 . S
H501 C511 0.930 . S
C502 H496 0.930 . S
C502 C503 1.355 . S
C502 C504 1.415 . S
C503 C502 1.355 . S
C503 C505 1.419 . S
C504 C502 1.415 . S
C504 C509 1.425 1_556 S
C504 C511 1.409 1_556 S
C505 H497 0.930 . S
C505 C503 1.419 . S
C505 C506 1.362 . S
C506 H498 0.930 . S
C506 C505 1.362 . S
C506 C509 1.409 1_556 S
C507 H499 0.930 . S
C507 C508 1.355 . S
C507 C509 1.415 . S
C508 C507 1.355 . S
C508 C510 1.419 . S
C509 C504 1.425 1_554 S
C509 C506 1.409 1_554 S
C509 C507 1.415 . S
C510 H500 0.930 . S
C510 C508 1.419 . S
C510 C511 1.362 . S
C511 H501 0.930 . S
C511 C504 1.409 1_554 S
C511 C510 1.362 . S
H512 C518 0.930 . S
H513 C521 0.930 . S
H514 C522 0.930 . S
H515 C523 0.930 . S
H516 C526 0.930 . S
H517 C527 0.930 . S
C518 H512 0.930 . S
C518 C519 1.355 . S
C518 C520 1.415 . S
C519 C518 1.355 . S
C519 C521 1.419 . S
C520 C518 1.415 . S
C520 C525 1.425 1_565 S
C520 C527 1.409 . S
C521 H513 0.930 . S
C521 C519 1.419 . S
C521 C522 1.362 1_565 S
C522 H514 0.930 . S
C522 C521 1.362 1_545 S
C522 C525 1.409 . S
C523 H515 0.930 . S
C523 C524 1.355 . S
C523 C525 1.415 . S
C524 C523 1.355 . S
C524 C526 1.419 . S
C525 C520 1.425 1_545 S
C525 C522 1.409 . S
C525 C523 1.415 . S
C526 H516 0.930 . S
C526 C524 1.419 . S
C526 C527 1.362 1_545 S
C527 H517 0.930 . S
C527 C520 1.409 . S
C527 C526 1.362 1_565 S
H528 C534 0.930 . S
H529 C537 0.930 . S
H530 C538 0.930 . S
H531 C539 0.930 . S
H532 C542 0.930 . S
H533 C543 0.930 . S
C534 H528 0.930 . S
C534 C535 1.355 . S
C534 C536 1.415 . S
C535 C534 1.355 . S
C535 C537 1.419 . S
C536 C534 1.415 . S
C536 C541 1.425 . S
C536 C543 1.409 . S
C537 H529 0.930 . S
C537 C535 1.419 . S
C537 C538 1.362 . S
C538 H530 0.930 . S
C538 C537 1.362 . S
C538 C541 1.409 . S
C539 H531 0.930 . S
C539 C540 1.355 . S
C539 C541 1.415 . S
C540 C539 1.355 . S
C540 C542 1.419 . S
C541 C536 1.425 . S
C541 C538 1.409 . S
C541 C539 1.415 . S
C542 H532 0.930 . S
C542 C540 1.419 . S
C542 C543 1.362 . S
C543 H533 0.930 . S
C543 C536 1.409 . S
C543 C542 1.362 . S
H544 C550 0.930 . S
H545 C553 0.930 . S
H546 C554 0.930 . S
H547 C555 0.930 . S
H548 C558 0.930 . S
H549 C559 0.930 . S
C550 H544 0.930 . S
C550 C551 1.355 1_565 S
C550 C552 1.415 . S
C551 C550 1.355 1_545 S
C551 C553 1.419 . S
C552 C550 1.415 . S
C552 C557 1.425 1_565 S
C552 C559 1.409 . S
C553 H545 0.930 . S
C553 C551 1.419 . S
C553 C554 1.362 . S
C554 H546 0.930 . S
C554 C553 1.362 . S
C554 C557 1.409 . S
C555 H547 0.930 . S
C555 C556 1.355 1_545 S
C555 C557 1.415 . S
C556 C555 1.355 1_565 S
C556 C558 1.419 . S
C557 C552 1.425 1_545 S
C557 C554 1.409 . S
C557 C555 1.415 . S
C558 H548 0.930 . S
C558 C556 1.419 . S
C558 C559 1.362 . S
C559 H549 0.930 . S
C559 C552 1.409 . S
C559 C558 1.362 . S
H560 C566 0.930 . S
H561 C569 0.930 . S
H562 C570 0.934 . S
H563 C571 0.930 . S
H564 C574 0.930 . S
H565 C575 0.934 . S
C566 H560 0.930 . S
C566 C567 1.355 . S
C566 C568 1.415 . S
C567 C566 1.355 . S
C567 C569 1.419 . S
C568 C566 1.415 . S
C568 C573 1.425 1_556 S
C568 C575 1.409 1_556 S
C569 H561 0.930 . S
C569 C567 1.419 . S
C569 C570 1.362 . S
C570 H562 0.934 . S
C570 C569 1.362 . S
C570 C573 1.409 1_556 S
C571 H563 0.930 . S
C571 C572 1.355 . S
C571 C573 1.415 . S
C572 C571 1.355 . S
C572 C574 1.419 . S
C573 C568 1.425 1_554 S
C573 C570 1.409 1_554 S
C573 C571 1.415 . S
C574 H564 0.930 . S
C574 C572 1.419 . S
C574 C575 1.362 . S
C575 H565 0.934 . S
C575 C568 1.409 1_554 S
C575 C574 1.362 . S
H576 C582 0.930 . S
H577 C585 0.930 . S
H578 C586 0.930 . S
H579 C587 0.930 . S
H580 C590 0.930 . S
H581 C591 0.930 . S
C582 H576 0.930 . S
C582 C583 1.355 . S
C582 C584 1.415 . S
C583 C582 1.355 . S
C583 C585 1.419 . S
C584 C582 1.415 . S
C584 C589 1.425 . S
C584 C591 1.409 . S
C585 H577 0.930 . S
C585 C583 1.419 . S
C585 C586 1.362 . S
C586 H578 0.930 . S
C586 C585 1.362 . S
C586 C589 1.409 . S
C587 H579 0.930 . S
C587 C588 1.355 . S
C587 C589 1.415 . S
C588 C587 1.355 . S
C588 C590 1.419 . S
C589 C584 1.425 . S
C589 C586 1.409 . S
C589 C587 1.415 . S
C590 H580 0.930 . S
C590 C588 1.419 . S
C590 C591 1.362 . S
C591 H581 0.930 . S
C591 C584 1.409 . S
C591 C590 1.362 . S
H592 C598 0.930 . S
H593 C601 0.930 . S
H594 C602 0.945 . S
H595 C603 0.930 . S
H596 C606 0.930 . S
H597 C607 0.945 . S
C598 H592 0.930 . S
C598 C599 1.355 . S
C598 C600 1.415 . S
C599 C598 1.355 . S
C599 C601 1.419 . S
C600 C598 1.415 . S
C600 C605 1.425 1_554 S
C600 C607 1.409 1_554 S
C601 H593 0.930 . S
C601 C599 1.419 . S
C601 C602 1.362 . S
C602 H594 0.945 . S
C602 C601 1.362 . S
C602 C605 1.409 1_554 S
C603 H595 0.930 . S
C603 C604 1.355 . S
C603 C605 1.415 . S
C604 C603 1.355 . S
C604 C606 1.419 . S
C605 C600 1.425 1_556 S
C605 C602 1.409 1_556 S
C605 C603 1.415 . S
C606 H596 0.930 . S
C606 C604 1.419 . S
C606 C607 1.362 . S
C607 H597 0.945 . S
C607 C600 1.409 1_556 S
C607 C606 1.362 . S
H608 C614 0.930 . S
H609 C617 0.930 . S
H610 C618 0.930 . S
H611 C619 0.930 . S
H612 C622 0.930 . S
H613 C623 0.930 . S
C614 H608 0.930 . S
C614 C615 1.355 . S
C614 C616 1.415 . S
C615 C614 1.355 . S
C615 C617 1.419 . S
C616 C614 1.415 . S
C616 C621 1.425 . S
C616 C623 1.409 . S
C617 H609 0.930 . S
C617 C615 1.419 . S
C617 C618 1.362 . S
C618 H610 0.930 . S
C618 C617 1.362 . S
C618 C621 1.409 . S
C619 H611 0.930 . S
C619 C620 1.355 . S
C619 C621 1.415 . S
C620 C619 1.355 . S
C620 C622 1.419 . S
C621 C616 1.425 . S
C621 C618 1.409 . S
C621 C619 1.415 . S
C622 H612 0.930 . S
C622 C620 1.419 . S
C622 C623 1.362 . S
C623 H613 0.930 . S
C623 C616 1.409 . S
C623 C622 1.362 . S
H624 C630 0.930 . S
H625 C633 0.930 . S
H626 C634 0.930 . S
H627 C635 0.930 . S
H628 C638 0.930 . S
H629 C639 0.930 . S
C630 H624 0.930 . S
C630 C631 1.355 . S
C630 C632 1.415 . S
C631 C630 1.355 . S
C631 C633 1.419 . S
C632 C630 1.415 . S
C632 C637 1.425 . S
C632 C639 1.409 . S
C633 H625 0.930 . S
C633 C631 1.419 . S
C633 C634 1.362 . S
C634 H626 0.930 . S
C634 C633 1.362 . S
C634 C637 1.409 . S
C635 H627 0.930 . S
C635 C636 1.355 . S
C635 C637 1.415 . S
C636 C635 1.355 . S
C636 C638 1.419 . S
C637 C632 1.425 . S
C637 C634 1.409 . S
C637 C635 1.415 . S
C638 H628 0.930 . S
C638 C636 1.419 . S
C638 C639 1.362 . S
C639 H629 0.930 . S
C639 C632 1.409 . S
C639 C638 1.362 . S
H640 C646 0.930 . S
H641 C649 0.930 . S
H642 C650 0.930 . S
H643 C651 0.930 . S
H644 C654 0.930 . S
H645 C655 0.930 1_655 S
C646 H640 0.930 . S
C646 C647 1.355 . S
C646 C648 1.415 . S
C647 C646 1.355 . S
C647 C649 1.419 . S
C648 C646 1.415 . S
C648 C653 1.425 . S
C648 C655 1.409 . S
C649 H641 0.930 . S
C649 C647 1.419 . S
C649 C650 1.362 . S
C650 H642 0.930 . S
C650 C649 1.362 . S
C650 C653 1.409 . S
C651 H643 0.930 . S
C651 C652 1.355 . S
C651 C653 1.415 . S
C652 C651 1.355 . S
C652 C654 1.419 . S
C653 C648 1.425 . S
C653 C650 1.409 . S
C653 C651 1.415 . S
C654 H644 0.930 . S
C654 C652 1.419 . S
C654 C655 1.362 . S
C655 H645 0.930 1_455 S
C655 C648 1.409 . S
C655 C654 1.362 . S
H656 C662 0.930 . S
H657 C665 0.930 . S
H658 C666 0.930 1_556 S
H659 C667 0.930 . S
H660 C670 0.930 . S
H661 C671 0.930 1_554 S
C662 H656 0.930 . S
C662 C663 1.355 . S
C662 C664 1.415 . S
C663 C662 1.355 . S
C663 C665 1.419 . S
C664 C662 1.415 . S
C664 C669 1.425 1_554 S
C664 C671 1.409 1_554 S
C665 H657 0.930 . S
C665 C663 1.419 . S
C665 C666 1.362 . S
C666 H658 0.930 1_554 S
C666 C665 1.362 . S
C666 C669 1.409 1_554 S
C667 H659 0.930 . S
C667 C668 1.355 . S
C667 C669 1.415 . S
C668 C667 1.355 . S
C668 C670 1.419 . S
C669 C664 1.425 1_556 S
C669 C666 1.409 1_556 S
C669 C667 1.415 . S
C670 H660 0.930 . S
C670 C668 1.419 . S
C670 C671 1.362 . S
C671 H661 0.930 1_556 S
C671 C664 1.409 1_556 S
C671 C670 1.362 . S
H672 C678 0.930 . S
H673 C681 0.930 . S
H674 C682 0.930 . S
H675 C683 0.930 . S
H676 C686 0.930 . S
H677 C687 0.930 . S
C678 H672 0.930 . S
C678 C679 1.355 . S
C678 C680 1.415 . S
C679 C678 1.355 . S
C679 C681 1.419 . S
C680 C678 1.415 . S
C680 C685 1.425 . S
C680 C687 1.409 . S
C681 H673 0.930 . S
C681 C679 1.419 . S
C681 C682 1.362 . S
C682 H674 0.930 . S
C682 C681 1.362 . S
C682 C685 1.409 . S
C683 H675 0.930 . S
C683 C684 1.355 . S
C683 C685 1.415 . S
C684 C683 1.355 . S
C684 C686 1.419 . S
C685 C680 1.425 . S
C685 C682 1.409 . S
C685 C683 1.415 . S
C686 H676 0.930 . S
C686 C684 1.419 . S
C686 C687 1.362 . S
C687 H677 0.930 . S
C687 C680 1.409 . S
C687 C686 1.362 . S
H688 C694 0.930 . S
H689 C697 0.930 . S
H690 C698 0.930 . S
H691 C699 0.930 . S
H692 C702 0.930 . S
H693 C703 0.930 . S
C694 H688 0.930 . S
C694 C695 1.355 . S
C694 C696 1.415 . S
C695 C694 1.355 . S
C695 C697 1.419 . S
C696 C694 1.415 . S
C696 C701 1.425 . S
C696 C703 1.409 . S
C697 H689 0.930 . S
C697 C695 1.419 . S
C697 C698 1.362 . S
C698 H690 0.930 . S
C698 C697 1.362 . S
C698 C701 1.409 . S
C699 H691 0.930 . S
C699 C700 1.355 . S
C699 C701 1.415 . S
C700 C699 1.355 . S
C700 C702 1.419 . S
C701 C696 1.425 . S
C701 C698 1.409 . S
C701 C699 1.415 . S
C702 H692 0.930 . S
C702 C700 1.419 . S
C702 C703 1.362 . S
C703 H693 0.930 . S
C703 C696 1.409 . S
C703 C702 1.362 . S
H704 C710 0.930 . S
H705 C713 0.930 . S
H706 C714 0.930 . S
H707 C715 0.930 . S
H708 C718 0.930 . S
H709 C719 0.930 . S
C710 H704 0.930 . S
C710 C711 1.355 . S
C710 C712 1.415 . S
C711 C710 1.355 . S
C711 C713 1.419 . S
C712 C710 1.415 . S
C712 C717 1.425 . S
C712 C719 1.409 . S
C713 H705 0.930 . S
C713 C711 1.419 . S
C713 C714 1.362 . S
C714 H706 0.930 . S
C714 C713 1.362 . S
C714 C717 1.409 . S
C715 H707 0.930 . S
C715 C716 1.355 . S
C715 C717 1.415 . S
C716 C715 1.355 . S
C716 C718 1.419 . S
C717 C712 1.425 . S
C717 C714 1.409 . S
C717 C715 1.415 . S
C718 H708 0.930 . S
C718 C716 1.419 . S
C718 C719 1.362 . S
C719 H709 0.930 . S
C719 C712 1.409 . S
C719 C718 1.362 . S
H720 C726 0.930 . S
H721 C729 0.930 . S
H722 C730 0.930 . S
H723 C731 0.930 . S
H724 C734 0.930 . S
H725 C735 0.930 . S
C726 H720 0.930 . S
C726 C727 1.355 . S
C726 C728 1.415 . S
C727 C726 1.355 . S
C727 C729 1.419 . S
C728 C726 1.415 . S
C728 C733 1.425 . S
C728 C735 1.409 . S
C729 H721 0.930 . S
C729 C727 1.419 . S
C729 C730 1.362 . S
C730 H722 0.930 . S
C730 C729 1.362 . S
C730 C733 1.409 . S
C731 H723 0.930 . S
C731 C732 1.355 . S
C731 C733 1.415 . S
C732 C731 1.355 . S
C732 C734 1.419 . S
C733 C728 1.425 . S
C733 C730 1.409 . S
C733 C731 1.415 . S
C734 H724 0.930 . S
C734 C732 1.419 . S
C734 C735 1.362 . S
C735 H725 0.930 . S
C735 C728 1.409 . S
C735 C734 1.362 . S
H736 C742 0.930 . S
H737 C745 0.930 . S
H738 C746 0.930 . S
H739 C747 0.930 . S
H740 C750 0.930 . S
H741 C751 0.930 . S
C742 H736 0.930 . S
C742 C743 1.355 . S
C742 C744 1.415 . S
C743 C742 1.355 . S
C743 C745 1.419 . S
C744 C742 1.415 . S
C744 C749 1.425 . S
C744 C751 1.409 . S
C745 H737 0.930 . S
C745 C743 1.419 . S
C745 C746 1.362 . S
C746 H738 0.930 . S
C746 C745 1.362 . S
C746 C749 1.409 . S
C747 H739 0.930 . S
C747 C748 1.355 . S
C747 C749 1.415 . S
C748 C747 1.355 . S
C748 C750 1.419 . S
C749 C744 1.425 . S
C749 C746 1.409 . S
C749 C747 1.415 . S
C750 H740 0.930 . S
C750 C748 1.419 . S
C750 C751 1.362 . S
C751 H741 0.930 . S
C751 C744 1.409 . S
C751 C750 1.362 . S
H752 C758 0.930 . S
H753 C761 0.930 . S
H754 C762 0.930 . S
H755 C763 0.930 . S
H756 C766 0.930 . S
H757 C767 0.930 . S
C758 H752 0.930 . S
C758 C759 1.355 . S
C758 C760 1.415 . S
C759 C758 1.355 . S
C759 C761 1.419 . S
C760 C758 1.415 . S
C760 C765 1.425 . S
C760 C767 1.409 . S
C761 H753 0.930 . S
C761 C759 1.419 . S
C761 C762 1.362 . S
C762 H754 0.930 . S
C762 C761 1.362 . S
C762 C765 1.409 . S
C763 H755 0.930 . S
C763 C764 1.355 . S
C763 C765 1.415 . S
C764 C763 1.355 . S
C764 C766 1.419 . S
C765 C760 1.425 . S
C765 C762 1.409 . S
C765 C763 1.415 . S
C766 H756 0.930 . S
C766 C764 1.419 . S
C766 C767 1.362 . S
C767 H757 0.930 . S
C767 C760 1.409 . S
C767 C766 1.362 . S
H768 C774 0.930 . S
H769 C777 0.930 . S
H770 C778 0.930 . S
H771 C779 0.930 . S
H772 C782 0.930 . S
H773 C783 0.930 . S
C774 H768 0.930 . S
C774 C775 1.355 . S
C774 C776 1.415 . S
C775 C774 1.355 . S
C775 C777 1.419 . S
C776 C774 1.415 . S
C776 C781 1.425 . S
C776 C783 1.409 . S
C777 H769 0.930 . S
C777 C775 1.419 . S
C777 C778 1.362 . S
C778 H770 0.930 . S
C778 C777 1.362 . S
C778 C781 1.409 . S
C779 H771 0.930 . S
C779 C780 1.355 . S
C779 C781 1.415 . S
C780 C779 1.355 . S
C780 C782 1.419 . S
C781 C776 1.425 . S
C781 C778 1.409 . S
C781 C779 1.415 . S
C782 H772 0.930 . S
C782 C780 1.419 . S
C782 C783 1.362 . S
C783 H773 0.930 . S
C783 C776 1.409 . S
C783 C782 1.362 . S
H784 C790 0.930 . S
H785 C793 0.946 . S
H786 C794 0.930 . S
H787 C795 0.930 . S
H788 C798 0.930 . S
H789 C799 0.930 . S
C790 H784 0.930 . S
C790 C791 1.355 . S
C790 C792 1.415 . S
C791 C790 1.355 . S
C791 C793 1.419 . S
C792 C790 1.415 . S
C792 C797 1.425 . S
C792 C799 1.409 . S
C793 H785 0.946 . S
C793 C791 1.419 . S
C793 C794 1.362 . S
C794 H786 0.930 . S
C794 C793 1.362 . S
C794 C797 1.409 . S
C795 H787 0.930 . S
C795 C796 1.355 . S
C795 C797 1.415 . S
C796 C795 1.355 . S
C796 C798 1.419 . S
C797 C792 1.425 . S
C797 C794 1.409 . S
C797 C795 1.415 . S
C798 H788 0.930 . S
C798 C796 1.419 . S
C798 C799 1.362 . S
C799 H789 0.930 . S
C799 C792 1.409 . S
C799 C798 1.362 . S
H800 C806 0.930 . S
H801 C809 0.930 . S
H802 C810 0.930 . S
H803 C811 0.930 . S
H804 C814 0.930 . S
H805 C815 0.930 . S
C806 H800 0.930 . S
C806 C807 1.355 . S
C806 C808 1.415 . S
C807 C806 1.355 . S
C807 C809 1.419 . S
C808 C806 1.415 . S
C808 C813 1.425 . S
C808 C815 1.409 . S
C809 H801 0.930 . S
C809 C807 1.419 . S
C809 C810 1.362 . S
C810 H802 0.930 . S
C810 C809 1.362 . S
C810 C813 1.409 . S
C811 H803 0.930 . S
C811 C812 1.355 . S
C811 C813 1.415 . S
C812 C811 1.355 . S
C812 C814 1.419 . S
C813 C808 1.425 . S
C813 C810 1.409 . S
C813 C811 1.415 . S
C814 H804 0.930 . S
C814 C812 1.419 . S
C814 C815 1.362 . S
C815 H805 0.930 . S
C815 C808 1.409 . S
C815 C814 1.362 . S
H816 C822 0.930 . S
H817 C825 0.930 . S
H818 C826 0.930 . S
H819 C827 0.930 . S
H820 C830 0.930 . S
H821 C831 0.930 . S
C822 H816 0.930 . S
C822 C823 1.355 . S
C822 C824 1.415 . S
C823 C822 1.355 . S
C823 C825 1.419 . S
C824 C822 1.415 . S
C824 C829 1.425 . S
C824 C831 1.409 . S
C825 H817 0.930 . S
C825 C823 1.419 . S
C825 C826 1.362 . S
C826 H818 0.930 . S
C826 C825 1.362 . S
C826 C829 1.409 . S
C827 H819 0.930 . S
C827 C828 1.355 . S
C827 C829 1.415 . S
C828 C827 1.355 . S
C828 C830 1.419 . S
C829 C824 1.425 . S
C829 C826 1.409 . S
C829 C827 1.415 . S
C830 H820 0.930 . S
C830 C828 1.419 . S
C830 C831 1.362 . S
C831 H821 0.930 . S
C831 C824 1.409 . S
C831 C830 1.362 . S
H832 C838 0.930 . S
H833 C841 0.930 . S
H834 C842 0.930 . S
H835 C843 0.930 . S
H836 C846 0.930 . S
H837 C847 0.930 . S
C838 H832 0.930 . S
C838 C839 1.355 . S
C838 C840 1.415 . S
C839 C838 1.355 . S
C839 C841 1.419 . S
C840 C838 1.415 . S
C840 C845 1.425 . S
C840 C847 1.409 . S
C841 H833 0.930 . S
C841 C839 1.419 . S
C841 C842 1.362 . S
C842 H834 0.930 . S
C842 C841 1.362 . S
C842 C845 1.409 . S
C843 H835 0.930 . S
C843 C844 1.355 . S
C843 C845 1.415 . S
C844 C843 1.355 . S
C844 C846 1.419 . S
C845 C840 1.425 . S
C845 C842 1.409 . S
C845 C843 1.415 . S
C846 H836 0.930 . S
C846 C844 1.419 . S
C846 C847 1.362 . S
C847 H837 0.930 . S
C847 C840 1.409 . S
C847 C846 1.362 . S
H848 C854 0.930 . S
H849 C857 0.930 . S
H850 C858 0.930 . S
H851 C859 0.930 . S
H852 C862 0.930 . S
H853 C863 0.930 . S
C854 H848 0.930 . S
C854 C855 1.355 . S
C854 C856 1.415 . S
C855 C854 1.355 . S
C855 C857 1.419 . S
C856 C854 1.415 . S
C856 C861 1.425 . S
C856 C863 1.409 . S
C857 H849 0.930 . S
C857 C855 1.419 . S
C857 C858 1.362 . S
C858 H850 0.930 . S
C858 C857 1.362 . S
C858 C861 1.409 . S
C859 H851 0.930 . S
C859 C860 1.355 . S
C859 C861 1.415 . S
C860 C859 1.355 . S
C860 C862 1.419 . S
C861 C856 1.425 . S
C861 C858 1.409 . S
C861 C859 1.415 . S
C862 H852 0.930 . S
C862 C860 1.419 . S
C862 C863 1.362 . S
C863 H853 0.930 . S
C863 C856 1.409 . S
C863 C862 1.362 . S
H864 C870 0.930 . S
H865 C873 0.930 . S
H866 C874 0.930 . S
H867 C875 0.930 . S
H868 C878 0.930 . S
H869 C879 0.930 . S
C870 H864 0.930 . S
C870 C871 1.355 . S
C870 C872 1.415 . S
C871 C870 1.355 . S
C871 C873 1.419 . S
C872 C870 1.415 . S
C872 C877 1.425 . S
C872 C879 1.409 . S
C873 H865 0.930 . S
C873 C871 1.419 . S
C873 C874 1.362 . S
C874 H866 0.930 . S
C874 C873 1.362 . S
C874 C877 1.409 . S
C875 H867 0.930 . S
C875 C876 1.355 . S
C875 C877 1.415 . S
C876 C875 1.355 . S
C876 C878 1.419 . S
C877 C872 1.425 . S
C877 C874 1.409 . S
C877 C875 1.415 . S
C878 H868 0.930 . S
C878 C876 1.419 . S
C878 C879 1.362 . S
C879 H869 0.930 . S
C879 C872 1.409 . S
C879 C878 1.362 . S
H880 C886 0.930 . S
H881 C889 0.930 . S
H882 C890 0.930 . S
H883 C891 0.930 . S
H884 C894 0.930 . S
H885 C895 0.930 . S
C886 H880 0.930 . S
C886 C887 1.355 . S
C886 C888 1.415 . S
C887 C886 1.355 . S
C887 C889 1.419 . S
C888 C886 1.415 . S
C888 C893 1.425 . S
C888 C895 1.409 . S
C889 H881 0.930 . S
C889 C887 1.419 . S
C889 C890 1.362 . S
C890 H882 0.930 . S
C890 C889 1.362 . S
C890 C893 1.409 . S
C891 H883 0.930 . S
C891 C892 1.355 . S
C891 C893 1.415 . S
C892 C891 1.355 . S
C892 C894 1.419 . S
C893 C888 1.425 . S
C893 C890 1.409 . S
C893 C891 1.415 . S
C894 H884 0.930 . S
C894 C892 1.419 . S
C894 C895 1.362 . S
C895 H885 0.930 . S
C895 C888 1.409 . S
C895 C894 1.362 . S
H896 C902 0.930 . S
H897 C905 0.930 . S
H898 C906 0.930 . S
H899 C907 0.930 . S
H900 C910 0.930 . S
H901 C911 0.930 . S
C902 H896 0.930 . S
C902 C903 1.355 . S
C902 C904 1.415 . S
C903 C902 1.355 . S
C903 C905 1.419 . S
C904 C902 1.415 . S
C904 C909 1.425 . S
C904 C911 1.409 . S
C905 H897 0.930 . S
C905 C903 1.419 . S
C905 C906 1.362 . S
C906 H898 0.930 . S
C906 C905 1.362 . S
C906 C909 1.409 . S
C907 H899 0.930 . S
C907 C908 1.355 . S
C907 C909 1.415 . S
C908 C907 1.355 . S
C908 C910 1.419 . S
C909 C904 1.425 . S
C909 C906 1.409 . S
C909 C907 1.415 . S
C910 H900 0.930 . S
C910 C908 1.419 . S
C910 C911 1.362 . S
C911 H901 0.930 . S
C911 C904 1.409 . S
C911 C910 1.362 . S
H912 C918 0.930 . S
H913 C921 0.930 . S
H914 C922 0.930 . S
H915 C923 0.930 . S
H916 C926 0.930 . S
H917 C927 0.930 . S
C918 H912 0.930 . S
C918 C919 1.355 . S
C918 C920 1.415 . S
C919 C918 1.355 . S
C919 C921 1.419 . S
C920 C918 1.415 . S
C920 C925 1.425 . S
C920 C927 1.409 . S
C921 H913 0.930 . S
C921 C919 1.419 . S
C921 C922 1.362 . S
C922 H914 0.930 . S
C922 C921 1.362 . S
C922 C925 1.409 . S
C923 H915 0.930 . S
C923 C924 1.355 . S
C923 C925 1.415 . S
C924 C923 1.355 . S
C924 C926 1.419 . S
C925 C920 1.425 . S
C925 C922 1.409 . S
C925 C923 1.415 . S
C926 H916 0.930 . S
C926 C924 1.419 . S
C926 C927 1.362 . S
C927 H917 0.930 . S
C927 C920 1.409 . S
C927 C926 1.362 . S
H928 C934 0.930 . S
H929 C937 0.930 . S
H930 C938 0.930 . S
H931 C939 0.930 . S
H932 C942 0.930 . S
H933 C943 0.930 . S
C934 H928 0.930 . S
C934 C935 1.355 . S
C934 C936 1.415 . S
C935 C934 1.355 . S
C935 C937 1.419 . S
C936 C934 1.415 . S
C936 C941 1.425 . S
C936 C943 1.409 . S
C937 H929 0.930 . S
C937 C935 1.419 . S
C937 C938 1.362 . S
C938 H930 0.930 . S
C938 C937 1.362 . S
C938 C941 1.409 . S
C939 H931 0.930 . S
C939 C940 1.355 . S
C939 C941 1.415 . S
C940 C939 1.355 . S
C940 C942 1.419 . S
C941 C936 1.425 . S
C941 C938 1.409 . S
C941 C939 1.415 . S
C942 H932 0.930 . S
C942 C940 1.419 . S
C942 C943 1.362 . S
C943 H933 0.930 . S
C943 C936 1.409 . S
C943 C942 1.362 . S
H944 C950 0.930 . S
H945 C953 0.930 . S
H946 C954 0.930 . S
H947 C955 0.930 . S
H948 C958 0.930 . S
H949 C959 0.930 . S
C950 H944 0.930 . S
C950 C951 1.355 . S
C950 C952 1.415 . S
C951 C950 1.355 . S
C951 C953 1.419 . S
C952 C950 1.415 . S
C952 C957 1.425 . S
C952 C959 1.409 . S
C953 H945 0.930 . S
C953 C951 1.419 . S
C953 C954 1.362 . S
C954 H946 0.930 . S
C954 C953 1.362 . S
C954 C957 1.409 . S
C955 H947 0.930 . S
C955 C956 1.355 . S
C955 C957 1.415 . S
C956 C955 1.355 . S
C956 C958 1.419 . S
C957 C952 1.425 . S
C957 C954 1.409 . S
C957 C955 1.415 . S
C958 H948 0.930 . S
C958 C956 1.419 . S
C958 C959 1.362 . S
C959 H949 0.930 . S
C959 C952 1.409 . S
C959 C958 1.362 . S
H960 C966 0.930 . S
H961 C969 0.930 . S
H962 C970 0.930 . S
H963 C971 0.930 . S
H964 C974 0.930 . S
H965 C975 0.930 . S
C966 H960 0.930 . S
C966 C967 1.355 . S
C966 C968 1.415 . S
C967 C966 1.355 . S
C967 C969 1.419 . S
C968 C966 1.415 . S
C968 C973 1.425 . S
C968 C975 1.409 . S
C969 H961 0.930 . S
C969 C967 1.419 . S
C969 C970 1.362 . S
C970 H962 0.930 . S
C970 C969 1.362 . S
C970 C973 1.409 . S
C971 H963 0.930 . S
C971 C972 1.355 . S
C971 C973 1.415 . S
C972 C971 1.355 . S
C972 C974 1.419 . S
C973 C968 1.425 . S
C973 C970 1.409 . S
C973 C971 1.415 . S
C974 H964 0.930 . S
C974 C972 1.419 . S
C974 C975 1.362 . S
C975 H965 0.930 . S
C975 C968 1.409 . S
C975 C974 1.362 . S
H976 C982 0.930 . S
H977 C985 0.930 . S
H978 C986 0.930 . S
H979 C987 0.930 . S
H980 C990 0.930 . S
H981 C991 0.930 . S
C982 H976 0.930 . S
C982 C983 1.355 . S
C982 C984 1.415 . S
C983 C982 1.355 . S
C983 C985 1.419 . S
C984 C982 1.415 . S
C984 C989 1.425 . S
C984 C991 1.409 . S
C985 H977 0.930 . S
C985 C983 1.419 . S
C985 C986 1.362 . S
C986 H978 0.930 . S
C986 C985 1.362 . S
C986 C989 1.409 . S
C987 H979 0.930 . S
C987 C988 1.355 . S
C987 C989 1.415 . S
C988 C987 1.355 . S
C988 C990 1.419 . S
C989 C984 1.425 . S
C989 C986 1.409 . S
C989 C987 1.415 . S
C990 H980 0.930 . S
C990 C988 1.419 . S
C990 C991 1.362 . S
C991 H981 0.930 . S
C991 C984 1.409 . S
C991 C990 1.362 . S
H992 C998 0.930 . S
H993 C1001 0.930 . S
H994 C1002 0.930 . S
H995 C1003 0.930 . S
H996 C1006 0.930 . S
H997 C1007 0.930 . S
C998 H992 0.930 . S
C998 C999 1.355 . S
C998 C1000 1.415 . S
C999 C998 1.355 . S
C999 C1001 1.419 . S
C1000 C998 1.415 . S
C1000 C1005 1.425 . S
C1000 C1007 1.409 . S
C1001 H993 0.930 . S
C1001 C999 1.419 . S
C1001 C1002 1.362 . S
C1002 H994 0.930 . S
C1002 C1001 1.362 . S
C1002 C1005 1.409 . S
C1003 H995 0.930 . S
C1003 C1004 1.355 . S
C1003 C1005 1.415 . S
C1004 C1003 1.355 . S
C1004 C1006 1.419 . S
C1005 C1000 1.425 . S
C1005 C1002 1.409 . S
C1005 C1003 1.415 . S
C1006 H996 0.930 . S
C1006 C1004 1.419 . S
C1006 C1007 1.362 . S
C1007 H997 0.930 . S
C1007 C1000 1.409 . S
C1007 C1006 1.362 . S
H1008 C1014 0.930 . S
H1009 C1017 0.930 . S
H1010 C1018 0.930 . S
H1011 C1019 0.930 . S
H1012 C1022 0.930 . S
H1013 C1023 0.930 . S
C1014 H1008 0.930 . S
C1014 C1015 1.355 . S
C1014 C1016 1.415 . S
C1015 C1014 1.355 . S
C1015 C1017 1.419 . S
C1016 C1014 1.415 . S
C1016 C1021 1.425 . S
C1016 C1023 1.409 . S
C1017 H1009 0.930 . S
C1017 C1015 1.419 . S
C1017 C1018 1.362 . S
C1018 H1010 0.930 . S
C1018 C1017 1.362 . S
C1018 C1021 1.409 . S
C1019 H1011 0.930 . S
C1019 C1020 1.355 . S
C1019 C1021 1.415 . S
C1020 C1019 1.355 . S
C1020 C1022 1.419 . S
C1021 C1016 1.425 . S
C1021 C1018 1.409 . S
C1021 C1019 1.415 . S
C1022 H1012 0.930 . S
C1022 C1020 1.419 . S
C1022 C1023 1.362 . S
C1023 H1013 0.930 . S
C1023 C1016 1.409 . S
C1023 C1022 1.362 . S
H1024 C1030 0.930 . S
H1025 C1033 0.930 . S
H1026 C1034 0.930 . S
H1027 C1035 0.930 . S
H1028 C1038 0.930 . S
H1029 C1039 0.930 . S
C1030 H1024 0.930 . S
C1030 C1031 1.355 . S
C1030 C1032 1.415 . S
C1031 C1030 1.355 . S
C1031 C1033 1.419 . S
C1032 C1030 1.415 . S
C1032 C1037 1.425 . S
C1032 C1039 1.409 . S
C1033 H1025 0.930 . S
C1033 C1031 1.419 . S
C1033 C1034 1.362 . S
C1034 H1026 0.930 . S
C1034 C1033 1.362 . S
C1034 C1037 1.409 . S
C1035 H1027 0.930 . S
C1035 C1036 1.355 . S
C1035 C1037 1.415 . S
C1036 C1035 1.355 . S
C1036 C1038 1.419 . S
C1037 C1032 1.425 . S
C1037 C1034 1.409 . S
C1037 C1035 1.415 . S
C1038 H1028 0.930 . S
C1038 C1036 1.419 . S
C1038 C1039 1.362 . S
C1039 H1029 0.930 . S
C1039 C1032 1.409 . S
C1039 C1038 1.362 . S
H1040 C1046 0.930 . S
H1041 C1049 0.930 . S
H1042 C1050 0.930 . S
H1043 C1051 0.930 . S
H1044 C1054 0.930 . S
H1045 C1055 0.930 . S
C1046 H1040 0.930 . S
C1046 C1047 1.355 . S
C1046 C1048 1.415 . S
C1047 C1046 1.355 . S
C1047 C1049 1.419 . S
C1048 C1046 1.415 . S
C1048 C1053 1.425 . S
C1048 C1055 1.409 . S
C1049 H1041 0.930 . S
C1049 C1047 1.419 . S
C1049 C1050 1.362 . S
C1050 H1042 0.930 . S
C1050 C1049 1.362 . S
C1050 C1053 1.409 . S
C1051 H1043 0.930 . S
C1051 C1052 1.355 . S
C1051 C1053 1.415 . S
C1052 C1051 1.355 . S
C1052 C1054 1.419 . S
C1053 C1048 1.425 . S
C1053 C1050 1.409 . S
C1053 C1051 1.415 . S
C1054 H1044 0.930 . S
C1054 C1052 1.419 . S
C1054 C1055 1.362 . S
C1055 H1045 0.930 . S
C1055 C1048 1.409 . S
C1055 C1054 1.362 . S
H1056 C1062 0.930 . S
H1057 C1065 0.930 . S
H1058 C1066 0.930 . S
H1059 C1067 0.930 . S
H1060 C1070 0.930 . S
H1061 C1071 0.930 . S
C1062 H1056 0.930 . S
C1062 C1063 1.355 . S
C1062 C1064 1.415 . S
C1063 C1062 1.355 . S
C1063 C1065 1.419 . S
C1064 C1062 1.415 . S
C1064 C1069 1.425 . S
C1064 C1071 1.409 . S
C1065 H1057 0.930 . S
C1065 C1063 1.419 . S
C1065 C1066 1.362 . S
C1066 H1058 0.930 . S
C1066 C1065 1.362 . S
C1066 C1069 1.409 . S
C1067 H1059 0.930 . S
C1067 C1068 1.355 . S
C1067 C1069 1.415 . S
C1068 C1067 1.355 . S
C1068 C1070 1.419 . S
C1069 C1064 1.425 . S
C1069 C1066 1.409 . S
C1069 C1067 1.415 . S
C1070 H1060 0.930 . S
C1070 C1068 1.419 . S
C1070 C1071 1.362 . S
C1071 H1061 0.930 . S
C1071 C1064 1.409 . S
C1071 C1070 1.362 . S
H1072 C1078 0.930 . S
H1073 C1081 0.930 . S
H1074 C1082 0.930 . S
H1075 C1083 0.930 . S
H1076 C1086 0.930 . S
H1077 C1087 0.930 . S
C1078 H1072 0.930 . S
C1078 C1079 1.355 . S
C1078 C1080 1.415 . S
C1079 C1078 1.355 . S
C1079 C1081 1.419 . S
C1080 C1078 1.415 . S
C1080 C1085 1.425 . S
C1080 C1087 1.409 . S
C1081 H1073 0.930 . S
C1081 C1079 1.419 . S
C1081 C1082 1.362 . S
C1082 H1074 0.930 . S
C1082 C1081 1.362 . S
C1082 C1085 1.409 . S
C1083 H1075 0.930 . S
C1083 C1084 1.355 . S
C1083 C1085 1.415 . S
C1084 C1083 1.355 . S
C1084 C1086 1.419 . S
C1085 C1080 1.425 . S
C1085 C1082 1.409 . S
C1085 C1083 1.415 . S
C1086 H1076 0.930 . S
C1086 C1084 1.419 . S
C1086 C1087 1.362 . S
C1087 H1077 0.930 . S
C1087 C1080 1.409 . S
C1087 C1086 1.362 . S
H1088 C1094 0.930 . S
H1089 C1097 0.930 . S
H1090 C1098 0.930 . S
H1091 C1099 0.930 . S
H1092 C1102 0.930 . S
H1093 C1103 0.930 . S
C1094 H1088 0.930 . S
C1094 C1095 1.355 . S
C1094 C1096 1.415 . S
C1095 C1094 1.355 . S
C1095 C1097 1.419 . S
C1096 C1094 1.415 . S
C1096 C1101 1.425 . S
C1096 C1103 1.409 . S
C1097 H1089 0.930 . S
C1097 C1095 1.419 . S
C1097 C1098 1.362 . S
C1098 H1090 0.930 . S
C1098 C1097 1.362 . S
C1098 C1101 1.409 . S
C1099 H1091 0.930 . S
C1099 C1100 1.355 . S
C1099 C1101 1.415 . S
C1100 C1099 1.355 . S
C1100 C1102 1.419 . S
C1101 C1096 1.425 . S
C1101 C1098 1.409 . S
C1101 C1099 1.415 . S
C1102 H1092 0.930 . S
C1102 C1100 1.419 . S
C1102 C1103 1.362 . S
C1103 H1093 0.930 . S
C1103 C1096 1.409 . S
C1103 C1102 1.362 . S
H1104 C1110 0.930 . S
H1105 C1113 0.930 . S
H1106 C1114 0.930 . S
H1107 C1115 0.930 . S
H1108 C1118 0.930 . S
H1109 C1119 0.930 . S
C1110 H1104 0.930 . S
C1110 C1111 1.355 . S
C1110 C1112 1.415 . S
C1111 C1110 1.355 . S
C1111 C1113 1.419 . S
C1112 C1110 1.415 . S
C1112 C1117 1.425 . S
C1112 C1119 1.409 . S
C1113 H1105 0.930 . S
C1113 C1111 1.419 . S
C1113 C1114 1.362 . S
C1114 H1106 0.930 . S
C1114 C1113 1.362 . S
C1114 C1117 1.409 . S
C1115 H1107 0.930 . S
C1115 C1116 1.355 . S
C1115 C1117 1.415 . S
C1116 C1115 1.355 . S
C1116 C1118 1.419 . S
C1117 C1112 1.425 . S
C1117 C1114 1.409 . S
C1117 C1115 1.415 . S
C1118 H1108 0.930 . S
C1118 C1116 1.419 . S
C1118 C1119 1.362 . S
C1119 H1109 0.930 . S
C1119 C1112 1.409 . S
C1119 C1118 1.362 . S
H1120 C1126 0.930 . S
H1121 C1129 0.930 . S
H1122 C1130 0.930 . S
H1123 C1131 0.930 . S
H1124 C1134 0.930 . S
H1125 C1135 0.930 . S
C1126 H1120 0.930 . S
C1126 C1127 1.355 . S
C1126 C1128 1.415 . S
C1127 C1126 1.355 . S
C1127 C1129 1.419 . S
C1128 C1126 1.415 . S
C1128 C1133 1.425 . S
C1128 C1135 1.409 . S
C1129 H1121 0.930 . S
C1129 C1127 1.419 . S
C1129 C1130 1.362 . S
C1130 H1122 0.930 . S
C1130 C1129 1.362 . S
C1130 C1133 1.409 . S
C1131 H1123 0.930 . S
C1131 C1132 1.355 . S
C1131 C1133 1.415 . S
C1132 C1131 1.355 . S
C1132 C1134 1.419 . S
C1133 C1128 1.425 . S
C1133 C1130 1.409 . S
C1133 C1131 1.415 . S
C1134 H1124 0.930 . S
C1134 C1132 1.419 . S
C1134 C1135 1.362 . S
C1135 H1125 0.930 . S
C1135 C1128 1.409 . S
C1135 C1134 1.362 . S
H1136 C1142 0.930 . S
H1137 C1145 0.930 . S
H1138 C1146 0.930 . S
H1139 C1147 0.930 . S
H1140 C1150 0.930 . S
H1141 C1151 0.930 . S
C1142 H1136 0.930 . S
C1142 C1143 1.355 . S
C1142 C1144 1.415 . S
C1143 C1142 1.355 . S
C1143 C1145 1.419 . S
C1144 C1142 1.415 . S
C1144 C1149 1.425 . S
C1144 C1151 1.409 . S
C1145 H1137 0.930 . S
C1145 C1143 1.419 . S
C1145 C1146 1.362 . S
C1146 H1138 0.930 . S
C1146 C1145 1.362 . S
C1146 C1149 1.409 . S
C1147 H1139 0.930 . S
C1147 C1148 1.355 . S
C1147 C1149 1.415 . S
C1148 C1147 1.355 . S
C1148 C1150 1.419 . S
C1149 C1144 1.425 . S
C1149 C1146 1.409 . S
C1149 C1147 1.415 . S
C1150 H1140 0.930 . S
C1150 C1148 1.419 . S
C1150 C1151 1.362 . S
C1151 H1141 0.930 . S
C1151 C1144 1.409 . S
C1151 C1150 1.362 . S
H1152 C1158 0.930 . S
H1153 C1161 0.930 . S
H1154 C1162 0.930 . S
H1155 C1163 0.930 . S
H1156 C1166 0.930 . S
H1157 C1167 0.930 . S
C1158 H1152 0.930 . S
C1158 C1159 1.355 . S
C1158 C1160 1.415 . S
C1159 C1158 1.355 . S
C1159 C1161 1.419 . S
C1160 C1158 1.415 . S
C1160 C1165 1.425 . S
C1160 C1167 1.409 . S
C1161 H1153 0.930 . S
C1161 C1159 1.419 . S
C1161 C1162 1.362 . S
C1162 H1154 0.930 . S
C1162 C1161 1.362 . S
C1162 C1165 1.409 . S
C1163 H1155 0.930 . S
C1163 C1164 1.355 . S
C1163 C1165 1.415 . S
C1164 C1163 1.355 . S
C1164 C1166 1.419 . S
C1165 C1160 1.425 . S
C1165 C1162 1.409 . S
C1165 C1163 1.415 . S
C1166 H1156 0.930 . S
C1166 C1164 1.419 . S
C1166 C1167 1.362 . S
C1167 H1157 0.930 . S
C1167 C1160 1.409 . S
C1167 C1166 1.362 . S
H1168 C1174 0.930 . S
H1169 C1177 0.930 . S
H1170 C1178 0.930 . S
H1171 C1179 0.930 . S
H1172 C1182 0.930 . S
H1173 C1183 0.930 . S
C1174 H1168 0.930 . S
C1174 C1175 1.355 . S
C1174 C1176 1.415 . S
C1175 C1174 1.355 . S
C1175 C1177 1.419 . S
C1176 C1174 1.415 . S
C1176 C1181 1.425 . S
C1176 C1183 1.409 . S
C1177 H1169 0.930 . S
C1177 C1175 1.419 . S
C1177 C1178 1.362 . S
C1178 H1170 0.930 . S
C1178 C1177 1.362 . S
C1178 C1181 1.409 . S
C1179 H1171 0.930 . S
C1179 C1180 1.355 . S
C1179 C1181 1.415 . S
C1180 C1179 1.355 . S
C1180 C1182 1.419 . S
C1181 C1176 1.425 . S
C1181 C1178 1.409 . S
C1181 C1179 1.415 . S
C1182 H1172 0.930 . S
C1182 C1180 1.419 . S
C1182 C1183 1.362 . S
C1183 H1173 0.930 . S
C1183 C1176 1.409 . S
C1183 C1182 1.362 . S
H1184 C1190 0.930 . S
H1185 C1193 0.930 . S
H1186 C1194 0.930 . S
H1187 C1195 0.930 . S
H1188 C1198 0.930 . S
H1189 C1199 0.930 . S
C1190 H1184 0.930 . S
C1190 C1191 1.355 . S
C1190 C1192 1.415 . S
C1191 C1190 1.355 . S
C1191 C1193 1.419 . S
C1192 C1190 1.415 . S
C1192 C1197 1.425 . S
C1192 C1199 1.409 . S
C1193 H1185 0.930 . S
C1193 C1191 1.419 . S
C1193 C1194 1.362 . S
C1194 H1186 0.930 . S
C1194 C1193 1.362 . S
C1194 C1197 1.409 . S
C1195 H1187 0.930 . S
C1195 C1196 1.355 . S
C1195 C1197 1.415 . S
C1196 C1195 1.355 . S
C1196 C1198 1.419 . S
C1197 C1192 1.425 . S
C1197 C1194 1.409 . S
C1197 C1195 1.415 . S
C1198 H1188 0.930 . S
C1198 C1196 1.419 . S
C1198 C1199 1.362 . S
C1199 H1189 0.930 . S
C1199 C1192 1.409 . S
C1199 C1198 1.362 . S
H1200 C1206 0.930 . S
H1201 C1209 0.930 . S
H1202 C1210 0.930 . S
H1203 C1211 0.930 . S
H1204 C1214 0.930 . S
H1205 C1215 0.930 . S
C1206 H1200 0.930 . S
C1206 C1207 1.355 . S
C1206 C1208 1.415 . S
C1207 C1206 1.355 . S
C1207 C1209 1.419 . S
C1208 C1206 1.415 . S
C1208 C1213 1.425 . S
C1208 C1215 1.409 . S
C1209 H1201 0.930 . S
C1209 C1207 1.419 . S
C1209 C1210 1.362 . S
C1210 H1202 0.930 . S
C1210 C1209 1.362 . S
C1210 C1213 1.409 . S
C1211 H1203 0.930 . S
C1211 C1212 1.355 . S
C1211 C1213 1.415 . S
C1212 C1211 1.355 . S
C1212 C1214 1.419 . S
C1213 C1208 1.425 . S
C1213 C1210 1.409 . S
C1213 C1211 1.415 . S
C1214 H1204 0.930 . S
C1214 C1212 1.419 . S
C1214 C1215 1.362 . S
C1215 H1205 0.930 . S
C1215 C1208 1.409 . S
C1215 C1214 1.362 . S
H1216 C1222 0.930 . S
H1217 C1225 0.930 . S
H1218 C1226 0.930 . S
H1219 C1227 0.930 . S
H1220 C1230 0.930 . S
H1221 C1231 0.930 . S
C1222 H1216 0.930 . S
C1222 C1223 1.355 . S
C1222 C1224 1.415 . S
C1223 C1222 1.355 . S
C1223 C1225 1.419 . S
C1224 C1222 1.415 . S
C1224 C1229 1.425 . S
C1224 C1231 1.409 . S
C1225 H1217 0.930 . S
C1225 C1223 1.419 . S
C1225 C1226 1.362 . S
C1226 H1218 0.930 . S
C1226 C1225 1.362 . S
C1226 C1229 1.409 . S
C1227 H1219 0.930 . S
C1227 C1228 1.355 . S
C1227 C1229 1.415 . S
C1228 C1227 1.355 . S
C1228 C1230 1.419 . S
C1229 C1224 1.425 . S
C1229 C1226 1.409 . S
C1229 C1227 1.415 . S
C1230 H1220 0.930 . S
C1230 C1228 1.419 . S
C1230 C1231 1.362 . S
C1231 H1221 0.930 . S
C1231 C1224 1.409 . S
C1231 C1230 1.362 . S
H1232 C1238 0.930 . S
H1233 C1241 0.930 . S
H1234 C1242 0.930 . S
H1235 C1243 0.930 . S
H1236 C1246 0.930 . S
H1237 C1247 0.930 . S
C1238 H1232 0.930 . S
C1238 C1239 1.355 . S
C1238 C1240 1.415 . S
C1239 C1238 1.355 . S
C1239 C1241 1.419 . S
C1240 C1238 1.415 . S
C1240 C1245 1.425 . S
C1240 C1247 1.409 . S
C1241 H1233 0.930 . S
C1241 C1239 1.419 . S
C1241 C1242 1.362 . S
C1242 H1234 0.930 . S
C1242 C1241 1.362 . S
C1242 C1245 1.409 . S
C1243 H1235 0.930 . S
C1243 C1244 1.355 . S
C1243 C1245 1.415 . S
C1244 C1243 1.355 . S
C1244 C1246 1.419 . S
C1245 C1240 1.425 . S
C1245 C1242 1.409 . S
C1245 C1243 1.415 . S
C1246 H1236 0.930 . S
C1246 C1244 1.419 . S
C1246 C1247 1.362 . S
C1247 H1237 0.930 . S
C1247 C1240 1.409 . S
C1247 C1246 1.362 . S
H1248 C1254 0.930 . S
H1249 C1257 0.930 . S
H1250 C1258 0.930 . S
H1251 C1259 0.930 . S
H1252 C1262 0.930 . S
H1253 C1263 0.930 . S
C1254 H1248 0.930 . S
C1254 C1255 1.355 . S
C1254 C1256 1.415 . S
C1255 C1254 1.355 . S
C1255 C1257 1.419 . S
C1256 C1254 1.415 . S
C1256 C1261 1.425 . S
C1256 C1263 1.409 . S
C1257 H1249 0.930 . S
C1257 C1255 1.419 . S
C1257 C1258 1.362 . S
C1258 H1250 0.930 . S
C1258 C1257 1.362 . S
C1258 C1261 1.409 . S
C1259 H1251 0.930 . S
C1259 C1260 1.355 . S
C1259 C1261 1.415 . S
C1260 C1259 1.355 . S
C1260 C1262 1.419 . S
C1261 C1256 1.425 . S
C1261 C1258 1.409 . S
C1261 C1259 1.415 . S
C1262 H1252 0.930 . S
C1262 C1260 1.419 . S
C1262 C1263 1.362 . S
C1263 H1253 0.930 . S
C1263 C1256 1.409 . S
C1263 C1262 1.362 . S
H1264 C1270 0.930 . S
H1265 C1273 0.930 . S
H1266 C1274 0.930 . S
H1267 C1275 0.930 . S
H1268 C1278 0.930 . S
H1269 C1279 0.930 . S
C1270 H1264 0.930 . S
C1270 C1271 1.355 . S
C1270 C1272 1.415 . S
C1271 C1270 1.355 . S
C1271 C1273 1.419 . S
C1272 C1270 1.415 . S
C1272 C1277 1.425 . S
C1272 C1279 1.409 . S
C1273 H1265 0.930 . S
C1273 C1271 1.419 . S
C1273 C1274 1.362 . S
C1274 H1266 0.930 . S
C1274 C1273 1.362 . S
C1274 C1277 1.409 . S
C1275 H1267 0.930 . S
C1275 C1276 1.355 . S
C1275 C1277 1.415 . S
C1276 C1275 1.355 . S
C1276 C1278 1.419 . S
C1277 C1272 1.425 . S
C1277 C1274 1.409 . S
C1277 C1275 1.415 . S
C1278 H1268 0.930 . S
C1278 C1276 1.419 . S
C1278 C1279 1.362 . S
C1279 H1269 0.930 . S
C1279 C1272 1.409 . S
C1279 C1278 1.362 . S
H1280 C1286 0.930 . S
H1281 C1289 0.930 . S
H1282 C1290 0.930 . S
H1283 C1291 0.930 . S
H1284 C1294 0.930 . S
H1285 C1295 0.930 . S
C1286 H1280 0.930 . S
C1286 C1287 1.355 . S
C1286 C1288 1.415 . S
C1287 C1286 1.355 . S
C1287 C1289 1.419 . S
C1288 C1286 1.415 . S
C1288 C1293 1.425 . S
C1288 C1295 1.409 . S
C1289 H1281 0.930 . S
C1289 C1287 1.419 . S
C1289 C1290 1.362 . S
C1290 H1282 0.930 . S
C1290 C1289 1.362 . S
C1290 C1293 1.409 . S
C1291 H1283 0.930 . S
C1291 C1292 1.355 . S
C1291 C1293 1.415 . S
C1292 C1291 1.355 . S
C1292 C1294 1.419 . S
C1293 C1288 1.425 . S
C1293 C1290 1.409 . S
C1293 C1291 1.415 . S
C1294 H1284 0.930 . S
C1294 C1292 1.419 . S
C1294 C1295 1.362 . S
C1295 H1285 0.930 . S
C1295 C1288 1.409 . S
C1295 C1294 1.362 . S
H1296 C1302 0.930 . S
H1297 C1305 0.930 . S
H1298 C1306 0.930 . S
H1299 C1307 0.930 . S
H1300 C1310 0.930 . S
H1301 C1311 0.930 . S
C1302 H1296 0.930 . S
C1302 C1303 1.355 . S
C1302 C1304 1.415 . S
C1303 C1302 1.355 . S
C1303 C1305 1.419 . S
C1304 C1302 1.415 . S
C1304 C1309 1.425 . S
C1304 C1311 1.409 . S
C1305 H1297 0.930 . S
C1305 C1303 1.419 . S
C1305 C1306 1.362 . S
C1306 H1298 0.930 . S
C1306 C1305 1.362 . S
C1306 C1309 1.409 . S
C1307 H1299 0.930 . S
C1307 C1308 1.355 . S
C1307 C1309 1.415 . S
C1308 C1307 1.355 . S
C1308 C1310 1.419 . S
C1309 C1304 1.425 . S
C1309 C1306 1.409 . S
C1309 C1307 1.415 . S
C1310 H1300 0.930 . S
C1310 C1308 1.419 . S
C1310 C1311 1.362 . S
C1311 H1301 0.930 . S
C1311 C1304 1.409 . S
C1311 C1310 1.362 . S
H1312 C1318 0.930 . S
H1313 C1321 0.930 . S
H1314 C1322 0.930 . S
H1315 C1323 0.930 . S
H1316 C1326 0.930 . S
H1317 C1327 0.930 . S
C1318 H1312 0.930 . S
C1318 C1319 1.355 . S
C1318 C1320 1.415 . S
C1319 C1318 1.355 . S
C1319 C1321 1.419 . S
C1320 C1318 1.415 . S
C1320 C1325 1.425 . S
C1320 C1327 1.409 . S
C1321 H1313 0.930 . S
C1321 C1319 1.419 . S
C1321 C1322 1.362 . S
C1322 H1314 0.930 . S
C1322 C1321 1.362 . S
C1322 C1325 1.409 . S
C1323 H1315 0.930 . S
C1323 C1324 1.355 . S
C1323 C1325 1.415 . S
C1324 C1323 1.355 . S
C1324 C1326 1.419 . S
C1325 C1320 1.425 . S
C1325 C1322 1.409 . S
C1325 C1323 1.415 . S
C1326 H1316 0.930 . S
C1326 C1324 1.419 . S
C1326 C1327 1.362 . S
C1327 H1317 0.930 . S
C1327 C1320 1.409 . S
C1327 C1326 1.362 . S
H1328 C1334 0.930 . S
H1329 C1337 0.930 . S
H1330 C1338 0.930 . S
H1331 C1339 0.930 . S
H1332 C1342 0.930 . S
H1333 C1343 0.930 . S
C1334 H1328 0.930 . S
C1334 C1335 1.355 . S
C1334 C1336 1.415 . S
C1335 C1334 1.355 . S
C1335 C1337 1.419 . S
C1336 C1334 1.415 . S
C1336 C1341 1.425 . S
C1336 C1343 1.409 . S
C1337 H1329 0.930 . S
C1337 C1335 1.419 . S
C1337 C1338 1.362 . S
C1338 H1330 0.930 . S
C1338 C1337 1.362 . S
C1338 C1341 1.409 . S
C1339 H1331 0.930 . S
C1339 C1340 1.355 . S
C1339 C1341 1.415 . S
C1340 C1339 1.355 . S
C1340 C1342 1.419 . S
C1341 C1336 1.425 . S
C1341 C1338 1.409 . S
C1341 C1339 1.415 . S
C1342 H1332 0.930 . S
C1342 C1340 1.419 . S
C1342 C1343 1.362 . S
C1343 H1333 0.930 . S
C1343 C1336 1.409 . S
C1343 C1342 1.362 . S
H1344 C1350 0.930 . S
H1345 C1353 0.930 . S
H1346 C1354 0.930 . S
H1347 C1355 0.930 . S
H1348 C1358 0.930 . S
H1349 C1359 0.930 . S
C1350 H1344 0.930 . S
C1350 C1351 1.355 . S
C1350 C1352 1.415 . S
C1351 C1350 1.355 . S
C1351 C1353 1.419 . S
C1352 C1350 1.415 . S
C1352 C1357 1.425 . S
C1352 C1359 1.409 . S
C1353 H1345 0.930 . S
C1353 C1351 1.419 . S
C1353 C1354 1.362 . S
C1354 H1346 0.930 . S
C1354 C1353 1.362 . S
C1354 C1357 1.409 . S
C1355 H1347 0.930 . S
C1355 C1356 1.355 . S
C1355 C1357 1.415 . S
C1356 C1355 1.355 . S
C1356 C1358 1.419 . S
C1357 C1352 1.425 . S
C1357 C1354 1.409 . S
C1357 C1355 1.415 . S
C1358 H1348 0.930 . S
C1358 C1356 1.419 . S
C1358 C1359 1.362 . S
C1359 H1349 0.930 . S
C1359 C1352 1.409 . S
C1359 C1358 1.362 . S
H1360 C1366 0.930 . S
H1361 C1369 0.930 . S
H1362 C1370 0.930 . S
H1363 C1371 0.930 . S
H1364 C1374 0.930 . S
H1365 C1375 0.930 . S
C1366 H1360 0.930 . S
C1366 C1367 1.355 . S
C1366 C1368 1.415 . S
C1367 C1366 1.355 . S
C1367 C1369 1.419 . S
C1368 C1366 1.415 . S
C1368 C1373 1.425 . S
C1368 C1375 1.409 . S
C1369 H1361 0.930 . S
C1369 C1367 1.419 . S
C1369 C1370 1.362 . S
C1370 H1362 0.930 . S
C1370 C1369 1.362 . S
C1370 C1373 1.409 . S
C1371 H1363 0.930 . S
C1371 C1372 1.355 . S
C1371 C1373 1.415 . S
C1372 C1371 1.355 . S
C1372 C1374 1.419 . S
C1373 C1368 1.425 . S
C1373 C1370 1.409 . S
C1373 C1371 1.415 . S
C1374 H1364 0.930 . S
C1374 C1372 1.419 . S
C1374 C1375 1.362 . S
C1375 H1365 0.930 . S
C1375 C1368 1.409 . S
C1375 C1374 1.362 . S
H1376 C1382 0.930 . S
H1377 C1385 0.930 . S
H1378 C1386 0.930 . S
H1379 C1387 0.930 . S
H1380 C1390 0.930 . S
H1381 C1391 0.930 . S
C1382 H1376 0.930 . S
C1382 C1383 1.355 . S
C1382 C1384 1.415 . S
C1383 C1382 1.355 . S
C1383 C1385 1.419 . S
C1384 C1382 1.415 . S
C1384 C1389 1.425 . S
C1384 C1391 1.409 . S
C1385 H1377 0.930 . S
C1385 C1383 1.419 . S
C1385 C1386 1.362 . S
C1386 H1378 0.930 . S
C1386 C1385 1.362 . S
C1386 C1389 1.409 . S
C1387 H1379 0.930 . S
C1387 C1388 1.355 . S
C1387 C1389 1.415 . S
C1388 C1387 1.355 . S
C1388 C1390 1.419 . S
C1389 C1384 1.425 . S
C1389 C1386 1.409 . S
C1389 C1387 1.415 . S
C1390 H1380 0.930 . S
C1390 C1388 1.419 . S
C1390 C1391 1.362 . S
C1391 H1381 0.930 . S
C1391 C1384 1.409 . S
C1391 C1390 1.362 . S
H1392 C1398 0.930 . S
H1393 C1401 0.930 . S
H1394 C1402 0.930 . S
H1395 C1403 0.930 . S
H1396 C1406 0.930 . S
H1397 C1407 0.930 . S
C1398 H1392 0.930 . S
C1398 C1399 1.355 . S
C1398 C1400 1.415 . S
C1399 C1398 1.355 . S
C1399 C1401 1.419 . S
C1400 C1398 1.415 . S
C1400 C1405 1.425 . S
C1400 C1407 1.409 . S
C1401 H1393 0.930 . S
C1401 C1399 1.419 . S
C1401 C1402 1.362 . S
C1402 H1394 0.930 . S
C1402 C1401 1.362 . S
C1402 C1405 1.409 . S
C1403 H1395 0.930 . S
C1403 C1404 1.355 . S
C1403 C1405 1.415 . S
C1404 C1403 1.355 . S
C1404 C1406 1.419 . S
C1405 C1400 1.425 . S
C1405 C1402 1.409 . S
C1405 C1403 1.415 . S
C1406 H1396 0.930 . S
C1406 C1404 1.419 . S
C1406 C1407 1.362 . S
C1407 H1397 0.930 . S
C1407 C1400 1.409 . S
C1407 C1406 1.362 . S
H1408 C1414 0.930 . S
H1409 C1417 0.930 . S
H1410 C1418 0.930 . S
H1411 C1419 0.930 . S
H1412 C1422 0.930 . S
H1413 C1423 0.930 . S
C1414 H1408 0.930 . S
C1414 C1415 1.355 . S
C1414 C1416 1.415 . S
C1415 C1414 1.355 . S
C1415 C1417 1.419 . S
C1416 C1414 1.415 . S
C1416 C1421 1.425 . S
C1416 C1423 1.409 . S
C1417 H1409 0.930 . S
C1417 C1415 1.419 . S
C1417 C1418 1.362 . S
C1418 H1410 0.930 . S
C1418 C1417 1.362 . S
C1418 C1421 1.409 . S
C1419 H1411 0.930 . S
C1419 C1420 1.355 . S
C1419 C1421 1.415 . S
C1420 C1419 1.355 . S
C1420 C1422 1.419 . S
C1421 C1416 1.425 . S
C1421 C1418 1.409 . S
C1421 C1419 1.415 . S
C1422 H1412 0.930 . S
C1422 C1420 1.419 . S
C1422 C1423 1.362 . S
C1423 H1413 0.930 . S
C1423 C1416 1.409 . S
C1423 C1422 1.362 . S
H1424 C1430 0.930 . S
H1425 C1433 0.930 . S
H1426 C1434 0.930 . S
H1427 C1435 0.930 . S
H1428 C1438 0.930 . S
H1429 C1439 0.930 . S
C1430 H1424 0.930 . S
C1430 C1431 1.355 . S
C1430 C1432 1.415 . S
C1431 C1430 1.355 . S
C1431 C1433 1.419 . S
C1432 C1430 1.415 . S
C1432 C1437 1.425 . S
C1432 C1439 1.409 . S
C1433 H1425 0.930 . S
C1433 C1431 1.419 . S
C1433 C1434 1.362 . S
C1434 H1426 0.930 . S
C1434 C1433 1.362 . S
C1434 C1437 1.409 . S
C1435 H1427 0.930 . S
C1435 C1436 1.355 . S
C1435 C1437 1.415 . S
C1436 C1435 1.355 . S
C1436 C1438 1.419 . S
C1437 C1432 1.425 . S
C1437 C1434 1.409 . S
C1437 C1435 1.415 . S
C1438 H1428 0.930 . S
C1438 C1436 1.419 . S
C1438 C1439 1.362 . S
C1439 H1429 0.930 . S
C1439 C1432 1.409 . S
C1439 C1438 1.362 . S
H1440 C1446 0.930 . S
H1441 C1449 0.930 . S
H1442 C1450 0.930 . S
H1443 C1451 0.930 . S
H1444 C1454 0.930 . S
H1445 C1455 0.930 . S
C1446 H1440 0.930 . S
C1446 C1447 1.355 . S
C1446 C1448 1.415 . S
C1447 C1446 1.355 . S
C1447 C1449 1.419 . S
C1448 C1446 1.415 . S
C1448 C1453 1.425 . S
C1448 C1455 1.409 . S
C1449 H1441 0.930 . S
C1449 C1447 1.419 . S
C1449 C1450 1.362 . S
C1450 H1442 0.930 . S
C1450 C1449 1.362 . S
C1450 C1453 1.409 . S
C1451 H1443 0.930 . S
C1451 C1452 1.355 . S
C1451 C1453 1.415 . S
C1452 C1451 1.355 . S
C1452 C1454 1.419 . S
C1453 C1448 1.425 . S
C1453 C1450 1.409 . S
C1453 C1451 1.415 . S
C1454 H1444 0.930 . S
C1454 C1452 1.419 . S
C1454 C1455 1.362 . S
C1455 H1445 0.930 . S
C1455 C1448 1.409 . S
C1455 C1454 1.362 . S
H1456 C1462 0.930 . S
H1457 C1465 0.930 . S
H1458 C1466 0.930 . S
H1459 C1467 0.930 . S
H1460 C1470 0.930 . S
H1461 C1471 0.930 . S
C1462 H1456 0.930 . S
C1462 C1463 1.355 . S
C1462 C1464 1.415 . S
C1463 C1462 1.355 . S
C1463 C1465 1.419 . S
C1464 C1462 1.415 . S
C1464 C1469 1.425 . S
C1464 C1471 1.409 . S
C1465 H1457 0.930 . S
C1465 C1463 1.419 . S
C1465 C1466 1.362 . S
C1466 H1458 0.930 . S
C1466 C1465 1.362 . S
C1466 C1469 1.409 . S
C1467 H1459 0.930 . S
C1467 C1468 1.355 . S
C1467 C1469 1.415 . S
C1468 C1467 1.355 . S
C1468 C1470 1.419 . S
C1469 C1464 1.425 . S
C1469 C1466 1.409 . S
C1469 C1467 1.415 . S
C1470 H1460 0.930 . S
C1470 C1468 1.419 . S
C1470 C1471 1.362 . S
C1471 H1461 0.930 . S
C1471 C1464 1.409 . S
C1471 C1470 1.362 . S
C455 C67 1.464 . S
C460 C11 1.496 . S
C471 C81 1.452 . S
C476 C25 1.495 . S
C487 C95 1.454 . S
C492 C39 1.500 . S
C503 C53 1.491 . S
C508 C109 1.454 . S
C519 C123 1.493 . S
C524 C179 1.453 . S
C535 C193 1.476 . S
C540 C137 1.487 . S
C551 C151 1.500 . S
C556 C207 1.454 . S
C567 C221 1.473 . S
C572 C165 1.489 . S
C583 C235 1.469 . S
C588 C291 1.472 . S
C599 C305 1.458 . S
C604 C249 1.499 . S
C615 C319 1.459 . S
C620 C263 1.483 . S
C631 C333 1.458 . S
C636 C277 1.499 . S
C647 C347 1.456 . S
C652 C403 1.499 . S
C663 C361 1.487 . S
C668 C417 1.475 . S
C679 C375 1.456 . S
C684 C431 1.488 . S
C695 C389 1.467 . S
C700 C445 1.474 . S
C711 C12 0.956 . S
C716 C110 0.990 . S
C727 C26 0.995 . S
C732 C68 0.974 . S
C743 C40 0.968 . S
C748 C82 0.939 . S
C759 C96 0.992 . S
C764 C54 0.986 . S
C775 C222 0.969 . S
C780 C124 0.995 . S
C791 C180 0.949 . S
C796 C138 0.985 . S
C807 C194 0.976 . S
C812 C152 0.942 . S
C823 C166 0.939 . S
C828 C208 0.952 . S
C839 C334 0.964 . S
C844 C236 0.993 . S
C855 C292 0.995 . S
C860 C250 0.978 . S
C871 C306 0.969 . S
C876 C264 0.939 . S
C887 C278 0.950 . S
C892 C320 0.986 . S
C903 C348 0.995 . S
C908 C446 0.973 . S
C919 C362 0.938 . S
C924 C404 0.956 . S
C935 C376 0.983 . S
C940 C418 0.948 . S
C951 C432 0.990 . S
C956 C390 0.989 . S
C967 C4 1.474 . S
C972 C355 1.367 . S
C983 C18 1.442 . S
C988 C145 1.441 . S
C999 C32 1.442 . S
C1004 C383 1.440 . S
C1015 C117 1.342 . S
C1020 C46 1.495 . S
C1031 C439 1.383 . S
C1036 C60 1.464 . S
C1047 C74 1.493 . S
C1052 C173 1.375 . S
C1063 C88 1.444 . S
C1068 C411 1.444 . S
C1079 C102 1.500 . S
C1084 C201 1.342 . S
C1095 C243 1.342 . S
C1100 C116 1.499 . S
C1111 C33 1.438 . S
C1116 C130 1.442 . S
C1127 C271 1.436 . S
C1132 C144 1.442 . S
C1143 C158 1.451 . S
C1148 C5 1.410 . S
C1159 C327 1.367 . S
C1164 C172 1.496 . S
C1175 C61 1.369 . S
C1180 C186 1.495 . S
C1191 C299 1.432 . S
C1196 C200 1.460 . S
C1207 C89 1.346 . S
C1212 C214 1.490 . S
C1223 C131 1.443 . S
C1228 C228 1.449 . S
C1239 C242 1.491 . S
C1244 C369 1.345 . S
C1255 C256 1.445 . S
C1260 C159 1.426 . S
C1271 C270 1.497 . S
C1276 C341 1.341 . S
C1287 C284 1.479 . S
C1292 C215 1.360 . S
C1303 C397 1.416 . S
C1308 C298 1.472 . S
C1319 C312 1.501 . S
C1324 C187 1.348 . S
C1335 C326 1.442 . S
C1340 C425 1.436 . S
C1351 C340 1.451 . S
C1356 C19 1.411 . S
C1367 C354 1.501 . S
C1372 C257 1.346 . S
C1383 C47 1.353 . S
C1388 C368 1.484 . S
C1399 C229 1.359 . S
C1404 C382 1.479 . S
C1415 C396 1.485 . S
C1420 C103 1.352 . S
C1431 C410 1.449 . S
C1436 C285 1.413 . S
C1447 C75 1.420 . S
C1452 C424 1.470 . S
C1463 C313 1.393 . S
C1468 C438 1.459 . S
