# Generated by pormake.
# Topology smt, (6)-cn, num edge types: 1
# Building blocks:
#     Node 0, Type 0, BuildingBlock: CIFDUS_clean_sbu_1, # of connection points: 6
#     Node 1, Type 0, BuildingBlock: CIFDUS_clean_sbu_1, # of connection points: 6
#     Node 2, Type 0, BuildingBlock: CIFDUS_clean_sbu_1, # of connection points: 6
#     Node 3, Type 0, BuildingBlock: CIFDUS_clean_sbu_1, # of connection points: 6
#     Node 4, Type 0, BuildingBlock: CIFDUS_clean_sbu_1, # of connection points: 6
#     Node 5, Type 0, BuildingBlock: CIFDUS_clean_sbu_1, # of connection points: 6
#     Edge 6, Type (0, 0), BuildingBlock: XIVTED_clean_linker_0, # of connection points: 2
#     Edge 7, Type (0, 0), BuildingBlock: XIVTED_clean_linker_0, # of connection points: 2
#     Edge 8, Type (0, 0), BuildingBlock: XIVTED_clean_linker_0, # of connection points: 2
#     Edge 9, Type (0, 0), BuildingBlock: XIVTED_clean_linker_0, # of connection points: 2
#     Edge 10, Type (0, 0), BuildingBlock: XIVTED_clean_linker_0, # of connection points: 2
#     Edge 11, Type (0, 0), BuildingBlock: XIVTED_clean_linker_0, # of connection points: 2
#     Edge 12, Type (0, 0), BuildingBlock: XIVTED_clean_linker_0, # of connection points: 2
#     Edge 13, Type (0, 0), BuildingBlock: XIVTED_clean_linker_0, # of connection points: 2
#     Edge 14, Type (0, 0), BuildingBlock: XIVTED_clean_linker_0, # of connection points: 2
#     Edge 15, Type (0, 0), BuildingBlock: XIVTED_clean_linker_0, # of connection points: 2
#     Edge 16, Type (0, 0), BuildingBlock: XIVTED_clean_linker_0, # of connection points: 2
#     Edge 17, Type (0, 0), BuildingBlock: XIVTED_clean_linker_0, # of connection points: 2
#     Edge 18, Type (0, 0), BuildingBlock: XIVTED_clean_linker_0, # of connection points: 2
#     Edge 19, Type (0, 0), BuildingBlock: XIVTED_clean_linker_0, # of connection points: 2
#     Edge 20, Type (0, 0), BuildingBlock: XIVTED_clean_linker_0, # of connection points: 2
#     Edge 21, Type (0, 0), BuildingBlock: XIVTED_clean_linker_0, # of connection points: 2
#     Edge 22, Type (0, 0), BuildingBlock: XIVTED_clean_linker_0, # of connection points: 2
#     Edge 23, Type (0, 0), BuildingBlock: XIVTED_clean_linker_0, # of connection points: 2
# Relax obj value: 0.309
# Max RMSD: 0.271
# Mean RMSD: 0.271
data_MOF--net-smt--node1-CIFDUS_clean_sbu_1--edge1-XIVTED_clean_linker_0
_symmetry_space_group_name_H-M    P1
_symmetry_Int_Tables_number       1
_symmetry_cell_setting            triclinic
loop_
_symmetry_equiv_pos_as_xyz
'x, y, z'
_cell_length_a     35.971101
_cell_length_b     36.035986
_cell_length_c     23.594158
_cell_angle_alpha  89.67359
_cell_angle_beta   90.135742
_cell_angle_gamma 120.00274
loop_
_atom_site_label
_atom_site_type_symbol
_atom_site_fract_x
_atom_site_fract_y
_atom_site_fract_z
_atom_type_partial_charge
O0 O 0.46024 0.15124 0.93568 0.0
Mn1 Mn 0.45347 0.10764 -0.00093 0.0
O2 O 0.51859 0.16455 0.88422 0.0
Mn3 Mn 0.5331 0.1274 0.91943 0.0
O4 O 0.45099 0.06761 0.06641 0.0
O5 O 0.42006 0.1306 0.04264 0.0
Mn6 Mn 0.37806 0.08423 0.07573 0.0
O7 O 0.39668 0.05763 0.96317 0.0
O8 O 0.40287 0.06572 0.1279 0.0
O9 O 0.5115 0.1543 0.03541 0.0
O10 O 0.5652 0.15845 0.98058 0.0
O11 O 0.36803 0.12648 0.09699 0.0
O12 O 0.3435 0.0433 0.02377 0.0
C13 C 0.46705 0.04433 0.93263 0.0
C14 C 0.48848 0.17184 0.89721 0.0
C15 C 0.43286 0.05838 0.11541 0.0
C16 C 0.4024 0.15025 0.06762 0.0
C17 C 0.35771 0.03427 0.97983 0.0
C18 C 0.5515 0.16813 0.02474 0.0
O19 O 0.48406 0.08327 0.95049 0.0
O20 O 0.48378 0.08215 0.94966 0.0
O21 O 0.33691 0.40021 0.12555 0.0
Mn22 Mn 0.34075 0.45384 0.16595 0.0
O23 O 0.30316 0.34564 0.18774 0.0
Mn24 Mn 0.29524 0.37527 0.24595 0.0
O25 O 0.34764 0.50737 0.21134 0.0
O26 O 0.38985 0.49024 0.11194 0.0
Mn27 Mn 0.38973 0.53847 0.10041 0.0
O28 O 0.29802 0.45753 0.1096 0.0
O29 O 0.4019 0.56474 0.16902 0.0
O30 O 0.38382 0.45264 0.22623 0.0
O31 O 0.3421 0.40395 0.29196 0.0
O32 O 0.43301 0.54291 0.05578 0.0
O33 O 0.33657 0.52342 0.07033 0.0
C34 C 0.25076 0.39777 0.23498 0.0
C35 C 0.32324 0.36114 0.14122 0.0
C36 C 0.37761 0.54693 0.21118 0.0
C37 C 0.42091 0.50487 0.07522 0.0
C38 C 0.30156 0.48831 0.07811 0.0
C39 C 0.37836 0.43397 0.27488 0.0
O40 O 0.28913 0.41588 0.21403 0.0
O41 O 0.2413 0.36462 0.2663 0.0
O42 O 0.84372 0.30751 0.27036 0.0
Mn43 Mn 0.88526 0.34688 0.33291 0.0
O44 O 0.80438 0.33889 0.25762 0.0
Mn45 Mn 0.84558 0.39363 0.27865 0.0
O46 O 0.92524 0.38539 0.3988 0.0
O47 O 0.87282 0.29212 0.37338 0.0
Mn48 Mn 0.92104 0.29873 0.40215 0.0
O49 O 0.93808 0.34976 0.29109 0.0
O50 O 0.93763 0.34189 0.45456 0.0
O51 O 0.83509 0.3482 0.37981 0.0
O52 O 0.83619 0.40771 0.34852 0.0
O53 O 0.8796 0.24346 0.41984 0.0
O54 O 0.95883 0.31035 0.34237 0.0
C55 C 0.90491 0.41661 0.23766 0.0
C56 C 0.81044 0.30746 0.2514 0.0
C57 C 0.93924 0.37751 0.44503 0.0
C58 C 0.8543 0.25319 0.39278 0.0
C59 C 0.96309 0.33442 0.30017 0.0
C60 C 0.82771 0.37962 0.38671 0.0
O61 O 0.89794 0.40093 0.28897 0.0
O62 O 0.87614 0.42488 0.21815 0.0
O63 O 0.59445 0.93548 0.44836 0.0
Mn64 Mn 0.54197 0.88735 0.49294 0.0
O65 O 0.65077 0.96152 0.50752 0.0
Mn66 Mn 0.62124 0.92473 0.56696 0.0
O67 O 0.48689 0.84311 0.53725 0.0
O68 O 0.50494 0.90196 0.44297 0.0
Mn69 Mn 0.46738 0.85409 0.41046 0.0
O70 O 0.53544 0.8373 0.43978 0.0
O71 O 0.43645 0.8169 0.46869 0.0
O72 O 0.54403 0.93261 0.55025 0.0
O73 O 0.59486 0.94478 0.61431 0.0
O74 O 0.45337 0.89303 0.38477 0.0
O75 O 0.50177 0.84286 0.36527 0.0
C76 C 0.60264 0.85913 0.56965 0.0
C77 C 0.63343 0.96295 0.46113 0.0
C78 C 0.44767 0.82031 0.5206 0.0
C79 C 0.48749 0.91933 0.41265 0.0
C80 C 0.51863 0.82422 0.39073 0.0
C81 C 0.56315 0.94807 0.59749 0.0
O82 O 0.58129 0.8737 0.54125 0.0
O83 O 0.6366 0.88765 0.59589 0.0
O84 O 0.69674 0.53792 0.6079 0.0
Mn85 Mn 0.65232 0.53932 0.66573 0.0
O86 O 0.65896 0.5015 0.53386 0.0
Mn87 Mn 0.61441 0.47092 0.58202 0.0
O88 O 0.60936 0.5377 0.72829 0.0
O89 O 0.7056 0.57602 0.71337 0.0
Mn90 Mn 0.69513 0.61149 0.75226 0.0
O91 O 0.65746 0.59516 0.62955 0.0
O92 O 0.6512 0.57672 0.80007 0.0
O93 O 0.64266 0.48243 0.70509 0.0
O94 O 0.61992 0.43597 0.63356 0.0
O95 O 0.75034 0.62617 0.77019 0.0
O96 O 0.68381 0.64354 0.70002 0.0
C97 C 0.56593 0.48436 0.58131 0.0
C98 C 0.69477 0.52367 0.55756 0.0
C99 C 0.61523 0.54792 0.78116 0.0
C100 C 0.74396 0.59606 0.73512 0.0
C101 C 0.66795 0.63213 0.65036 0.0
C102 C 0.62787 0.4443 0.68573 0.0
O103 O 0.59951 0.50575 0.61414 0.0
O104 O 0.56221 0.45162 0.5537 0.0
O105 O 0.06226 0.6566 0.78716 0.0
Mn106 Mn 0.11247 0.65252 0.82654 0.0
O107 O 0.04097 0.69113 0.84613 0.0
Mn108 Mn 0.07689 0.69511 0.90536 0.0
O109 O 0.15967 0.64363 0.86683 0.0
O110 O 0.09843 0.60405 0.77167 0.0
Mn111 Mn 0.14736 0.61322 0.7428 0.0
O112 O 0.1596 0.69838 0.7724 0.0
O113 O 0.17895 0.61074 0.80192 0.0
O114 O 0.0693 0.60789 0.88634 0.0
O115 O 0.05681 0.64678 0.94984 0.0
O116 O 0.1076 0.56426 0.70907 0.0
O117 O 0.17133 0.66362 0.70284 0.0
C118 C 0.14426 0.73941 0.90352 0.0
C119 C 0.03729 0.6712 0.80014 0.0
C120 C 0.18055 0.62483 0.8517 0.0
C121 C 0.08114 0.57109 0.73826 0.0
C122 C 0.17852 0.69801 0.72653 0.0
C123 C 0.05416 0.61179 0.93409 0.0
O124 O 0.12578 0.70313 0.87686 0.0
O125 O 0.11847 0.74704 0.93284 0.0
H126 H 0.35309 0.00199 0.87037 0.0
H127 H 0.20234 0.76348 -0.01291 0.0
H128 H 0.30445 0.96457 0.04064 0.0
H129 H 0.18678 0.79428 0.81536 0.0
H130 H 0.26293 0.83587 -0.00154 0.0
H131 H 0.3105 0.92553 0.84202 0.0
C132 C 0.33337 0.97798 0.90151 0.0
C133 C 0.33133 0.98997 0.95761 0.0
C134 C 0.24727 0.82652 0.95755 0.0
C135 C 0.2851 0.90312 0.92649 0.0
C136 C 0.21317 0.78489 0.95076 0.0
C137 C 0.1899 0.77274 0.90005 0.0
C138 C 0.2579 0.85668 0.91362 0.0
C139 C 0.20442 0.80233 0.85488 0.0
C140 C 0.30944 0.93451 0.88545 0.0
C141 C 0.30612 0.95736 -0.00345 0.0
N142 N 0.23706 0.8434 0.86299 0.0
N143 N 0.28445 0.91583 0.98039 0.0
H144 H 0.3844 0.38422 0.05616 0.0
H145 H 0.42879 0.20529 0.15388 0.0
H146 H 0.29579 0.27661 0.15907 0.0
H147 H 0.40251 0.19662 0.97484 0.0
H148 H 0.41451 0.26463 0.16005 0.0
H149 H 0.41866 0.34258 0.02681 0.0
C150 C 0.37142 0.35171 0.07144 0.0
C151 C 0.33727 0.3342 0.11061 0.0
C152 C 0.41397 0.25114 0.1189 0.0
C153 C 0.37711 0.28763 0.0789 0.0
C154 C 0.4227 0.21772 0.11515 0.0
C155 C 0.41709 0.19627 0.06371 0.0
C156 C 0.39979 0.26343 0.0708 0.0
C157 C 0.40767 0.21275 0.01511 0.0
C158 C 0.39125 0.32826 0.05505 0.0
C159 C 0.32218 0.2919 0.12935 0.0
N160 N 0.39813 0.24483 0.02 0.0
N161 N 0.34272 0.27056 0.11431 0.0
H162 H 0.02403 0.41741 0.28114 0.0
H163 H 0.19089 0.35389 0.15651 0.0
H164 H 0.99411 0.28781 0.24887 0.0
H165 H 0.22888 0.45433 0.27933 0.0
H166 H 0.11813 0.34327 0.15684 0.0
H167 H 0.09822 0.4432 0.24921 0.0
C168 C 0.03266 0.39459 0.26513 0.0
C169 C 0.00292 0.35047 0.26684 0.0
C170 C 0.14278 0.36874 0.1821 0.0
C171 C 0.08713 0.37966 0.23029 0.0
C172 C 0.18444 0.37531 0.18123 0.0
C173 C 0.21604 0.40557 0.2171 0.0
C174 C 0.13266 0.39281 0.21892 0.0
C175 C 0.20561 0.43135 0.2501 0.0
C176 C 0.07498 0.40928 0.2476 0.0
C177 C 0.01598 0.32207 0.24747 0.0
N178 N 0.16456 0.42409 0.25075 0.0
N179 N 0.0571 0.33714 0.22998 0.0
H180 H 0.82516 0.19806 0.30475 0.0
H181 H 0.62217 0.02896 0.48544 0.0
H182 H 0.78514 0.22829 0.46114 0.0
H183 H 0.69406 0.99296 0.37537 0.0
H184 H 0.66749 0.10384 0.45627 0.0
H185 H 0.76231 0.12557 0.30891 0.0
C186 C 0.80188 0.19009 0.33841 0.0
C187 C 0.80973 0.21942 0.382 0.0
C188 C 0.6727 0.07951 0.4373 0.0
C189 C 0.73887 0.13626 0.38825 0.0
C190 C 0.64668 0.03678 0.45353 0.0
C191 C 0.6542 0.00488 0.43211 0.0
C192 C 0.7064 0.0905 0.39893 0.0
C193 C 0.687 0.01665 0.39218 0.0
C194 C 0.76652 0.14852 0.34132 0.0
C195 C 0.7796 0.20696 0.42595 0.0
N196 N 0.7121 0.05866 0.37695 0.0
N197 N 0.74573 0.16619 0.42831 0.0
H198 H 0.59649 0.8156 0.66445 0.0
H199 H 0.60221 0.61346 0.57416 0.0
H200 H 0.59153 0.80286 0.48276 0.0
H201 H 0.70805 0.71878 0.65978 0.0
H202 H 0.57617 0.66237 0.54435 0.0
H203 H 0.60973 0.75568 0.67251 0.0
C204 C 0.59621 0.79885 0.62628 0.0
C205 C 0.59258 0.81403 0.5729 0.0
C206 C 0.60567 0.67471 0.56838 0.0
C207 C 0.60872 0.74588 0.58194 0.0
C208 C 0.6208 0.647 0.58494 0.0
C209 C 0.6574 0.66194 0.61963 0.0
C210 C 0.62705 0.71721 0.58756 0.0
C211 C 0.67951 0.70561 0.63364 0.0
C212 C 0.60431 0.76505 0.63094 0.0
C213 C 0.59348 0.79165 0.52471 0.0
N214 N 0.66356 0.73134 0.61859 0.0
N215 N 0.6022 0.75889 0.53022 0.0
H216 H 0.9799 0.59049 0.76585 0.0
H217 H 0.8062 0.65434 0.66845 0.0
H218 H 0.00258 0.71975 0.76434 0.0
H219 H 0.77016 0.5385 0.76244 0.0
H220 H 0.88097 0.67085 0.66922 0.0
H221 H 0.90609 0.56486 0.73273 0.0
C222 C 0.96987 0.61363 0.75637 0.0
C223 C -0.00245 0.65742 0.76698 0.0
C224 C 0.85652 0.64104 0.68791 0.0
C225 C 0.91342 0.62831 0.7293 0.0
C226 C 0.81373 0.63119 0.68663 0.0
C227 C 0.78181 0.59454 0.7144 0.0
C228 C 0.86761 0.61392 0.71695 0.0
C229 C 0.79363 0.5665 0.73934 0.0
C230 C 0.92766 0.5989 0.73821 0.0
C231 C 0.98244 0.68585 0.75602 0.0
N232 N 0.83574 0.57697 0.74057 0.0
N233 N 0.94145 0.67084 0.73772 0.0
H234 H 0.39341 0.02514 0.21577 0.0
H235 H 0.55329 0.95886 0.33925 0.0
H236 H 0.50775 0.05406 0.12159 0.0
H237 H 0.4647 0.97791 0.43968 0.0
H238 H 0.54539 2e-05 0.26199 0.0
H239 H 0.42198 0.00764 0.29767 0.0
C240 C 0.42463 0.02771 0.2121 0.0
C241 C 0.44838 0.04161 0.1616 0.0
C242 C 0.52916 0.99688 0.30184 0.0
C243 C 0.48178 0.02172 0.25671 0.0
C244 C 0.53455 0.97437 0.34663 0.0
C245 C 0.50871 0.9642 0.39525 0.0
C246 C 0.49842 0.00976 0.30696 0.0
C247 C 0.48475 0.98464 0.40252 0.0
C248 C 0.44119 0.0181 0.2594 0.0
C249 C 0.48836 0.0435 0.15966 0.0
N250 N 0.47887 0.00512 0.358 0.0
N251 N 0.50386 0.03352 0.20669 0.0
H252 H 0.38935 0.38419 0.35111 0.0
H253 H 0.58799 0.55367 0.51577 0.0
H254 H 0.44751 0.51485 0.29301 0.0
H255 H 0.4803 0.44631 0.59573 0.0
H256 H 0.54256 0.54662 0.43447 0.0
H257 H 0.43321 0.40822 0.4361 0.0
C258 C 0.41173 0.41813 0.35613 0.0
C259 C 0.41376 0.44796 0.31606 0.0
C260 C 0.52841 0.52582 0.47091 0.0
C261 C 0.46333 0.47581 0.4142 0.0
C262 C 0.55396 0.5307 0.51824 0.0
C263 C 0.53786 0.50033 0.56234 0.0
C264 C 0.48692 0.49022 0.46835 0.0
C265 C 0.49392 0.47028 0.56245 0.0
C266 C 0.43625 0.43186 0.40508 0.0
C267 C 0.44428 0.4913 0.32388 0.0
N268 N 0.47035 0.46478 0.51505 0.0
N269 N 0.46781 0.50424 0.37263 0.0
H270 H 0.03586 0.5945 0.66969 0.0
H271 H 0.9818 0.37592 0.5395 0.0
H272 H 0.02666 0.48908 0.76722 0.0
H273 H 0.93353 0.45099 0.45796 0.0
H274 H -0.0002 0.42094 0.6223 0.0
H275 H 0.99226 0.54436 0.59515 0.0
C276 C 0.0222 0.56043 0.67717 0.0
C277 C 0.03567 0.54586 0.7239 0.0
C278 C 0.98468 0.42735 0.58676 0.0
C279 C 0.98783 0.48896 0.63834 0.0
C280 C 0.9748 0.40187 0.53894 0.0
C281 C 0.95532 0.40909 0.49181 0.0
C282 C 0.97552 0.46085 0.58793 0.0
C283 C 0.94813 0.44402 0.49354 0.0
C284 C -0.00178 0.53195 0.63391 0.0
C285 C 0.01734 0.50159 0.73144 0.0
N286 N 0.95828 0.46875 0.54097 0.0
N287 N 0.99584 0.4748 0.68802 0.0
H288 H 0.59868 0.03071 0.63235 0.0
H289 H 0.45173 0.96583 0.90669 0.0
H290 H 0.48933 0.90456 0.65627 0.0
H291 H 0.51599 0.0952 0.84146 0.0
H292 H 0.47273 0.94283 0.82085 0.0
H293 H 0.57515 0.05612 0.71384 0.0
C294 C 0.56918 0.00877 0.65413 0.0
C295 C 0.54527 0.96589 0.63744 0.0
C296 C 0.48254 0.97636 0.82582 0.0
C297 C 0.51955 0.99375 0.73151 0.0
C298 C 0.47088 0.98951 0.87485 0.0
C299 C 0.48335 0.03265 0.88243 0.0
C300 C 0.50689 0.00672 0.78402 0.0
C301 C 0.50745 0.06204 0.83933 0.0
C302 C 0.55598 0.02306 0.70065 0.0
C303 C 0.50794 0.93813 0.66746 0.0
N304 N 0.51865 0.04853 0.79209 0.0
N305 N 0.49647 0.9524 0.71367 0.0
H306 H 0.49278 0.50192 0.0989 0.0
H307 H 0.52708 0.51045 0.7674 0.0
H308 H 0.38815 0.45803 0.98066 0.0
H309 H 0.62484 0.53455 0.89148 0.0
H310 H 0.4728 0.48053 0.84339 0.0
H311 H 0.53811 0.4997 0.02392 0.0
C312 C 0.47862 0.48925 0.05788 0.0
C313 C 0.43668 0.47977 0.04599 0.0
C314 C 0.50609 0.49172 0.85363 0.0
C315 C 0.48899 0.47994 0.95862 0.0
C316 C 0.53698 0.50884 0.8103 0.0
C317 C 0.58052 0.52567 0.82335 0.0
C318 C 0.51905 0.49123 0.90997 0.0
C319 C 0.5917 0.52279 0.87964 0.0
C320 C 0.50477 0.48895 0.0145 0.0
C321 C 0.42031 0.4651 -0.00849 0.0
N322 N 0.56135 0.50635 0.92071 0.0
N323 N 0.44684 0.46685 0.94927 0.0
H324 H 0.07041 0.54485 0.95087 0.0
H325 H 0.96182 0.49941 0.25414 0.0
H326 H 0.99502 0.59863 0.01405 0.0
H327 H 0.93972 0.39005 0.15568 0.0
H328 H 0.00443 0.54639 0.17647 0.0
H329 H 0.04624 0.49501 0.033 0.0
C330 C 0.04822 0.54563 0.98116 0.0
C331 C 0.03474 0.576 0.97563 0.0
C332 C 0.99193 0.5122 0.17286 0.0
C333 C 0.00902 0.52103 0.06985 0.0
C334 C 0.96846 0.48542 0.21772 0.0
C335 C 0.94748 0.44084 0.21141 0.0
C336 C 0.99524 0.49428 0.1218 0.0
C337 C 0.95577 0.42434 0.16224 0.0
C338 C 0.03498 0.51767 0.02814 0.0
C339 C 0.00666 0.57616 0.01676 0.0
N340 N 0.97842 0.45107 0.11855 0.0
N341 N 0.99521 0.54959 0.06224 0.0
H342 H 0.4636 0.18659 0.79457 0.0
H343 H 0.63364 0.43891 0.80371 0.0
H344 H 0.53005 0.24862 0.94807 0.0
H345 H 0.57709 0.36185 0.6542 0.0
H346 H 0.59142 0.3737 0.86215 0.0
H347 H 0.49558 0.25646 0.74765 0.0
C348 C 0.48369 0.21523 0.81883 0.0
C349 C 0.49373 0.21223 0.87517 0.0
C350 C 0.58851 0.37161 0.81644 0.0
C351 C 0.53304 0.29197 0.82124 0.0
C352 C 0.61296 0.4086 0.78317 0.0
C353 C 0.60952 0.40618 0.72377 0.0
C354 C 0.55986 0.3326 0.78985 0.0
C355 C 0.5817 0.36595 0.69956 0.0
C356 C 0.50268 0.2551 0.79199 0.0
C357 C 0.52104 0.2501 0.90463 0.0
N358 N 0.55796 0.33132 0.73251 0.0
N359 N 0.5405 0.2885 0.87705 0.0
H360 H 0.24316 0.60598 0.83167 0.0
H361 H 0.25061 0.51308 0.12865 0.0
H362 H 0.16395 0.60966 0.96632 0.0
H363 H 0.2717 0.46674 0.97113 0.0
H364 H 0.21748 0.54814 0.07642 0.0
H365 H 0.25945 0.56036 0.88963 0.0
C366 C 0.23003 0.59809 0.8742 0.0
C367 C 0.20161 0.61118 0.8939 0.0
C368 C 0.22773 0.52882 0.05355 0.0
C369 C 0.21996 0.55829 0.96053 0.0
C370 C 0.24587 0.50818 0.08332 0.0
C371 C 0.26365 0.48704 0.05382 0.0
C372 C 0.22811 0.52844 -0.00581 0.0
C373 C 0.25807 0.48257 -0.00481 0.0
C374 C 0.23876 0.57134 0.90689 0.0
C375 C 0.18599 0.60024 0.94956 0.0
N376 N 0.24162 0.504 0.96704 0.0
N377 N 0.19525 0.57408 0.98114 0.0
H378 H 0.55317 0.14756 0.13578 0.0
H379 H 0.8076 0.30155 0.13807 0.0
H380 H 0.62611 0.24129 0.00707 0.0
H381 H 0.73791 0.23801 0.28969 0.0
H382 H 0.74061 0.26692 0.08466 0.0
H383 H 0.61911 0.17362 0.19232 0.0
C384 C 0.58272 0.17477 0.12063 0.0
C385 C 0.58447 0.19266 0.0671 0.0
C386 C 0.73994 0.2596 0.12936 0.0
C387 C 0.65967 0.22081 0.12942 0.0
C388 C 0.77835 0.27845 0.15942 0.0
C389 C 0.77804 0.27213 0.21797 0.0
C390 C 0.70104 0.2345 0.15832 0.0
C391 C 0.73922 0.2431 0.24427 0.0
C392 C 0.6204 0.18897 0.1522 0.0
C393 C 0.62361 0.2269 0.04836 0.0
N394 N 0.70191 0.22576 0.21439 0.0
N395 N 0.65976 0.23951 0.07913 0.0
H396 H 0.5522 0.76956 0.3855 0.0
H397 H 0.33398 0.58437 0.25393 0.0
H398 H 0.4343 0.7732 0.37268 0.0
H399 H 0.44794 0.57518 0.27434 0.0
H400 H 0.36663 0.6487 0.31309 0.0
H401 H 0.51189 0.69315 0.35914 0.0
C402 C 0.51802 0.75426 0.37763 0.0
C403 C 0.49685 0.77787 0.37959 0.0
C404 C 0.38382 0.63153 0.30671 0.0
C405 C 0.45066 0.69135 0.35062 0.0
C406 C 0.36479 0.59447 0.27372 0.0
C407 C 0.38773 0.57363 0.26151 0.0
C408 C 0.4262 0.64782 0.32656 0.0
C409 C 0.42853 0.58916 0.2854 0.0
C410 C 0.49495 0.71081 0.36281 0.0
C411 C 0.45226 0.75651 0.37 0.0
N412 N 0.44675 0.62561 0.31623 0.0
N413 N 0.43085 0.71476 0.35544 0.0
H414 H 0.74343 0.35302 0.38804 0.0
H415 H 0.75715 0.51772 0.61824 0.0
H416 H 0.85812 0.41726 0.4889 0.0
H417 H 0.70677 0.50722 0.44919 0.0
H418 H 0.78775 0.47308 0.58903 0.0
H419 H 0.7156 0.39424 0.43544 0.0
C420 C 0.76165 0.37398 0.42263 0.0
C421 C 0.80315 0.38192 0.43458 0.0
C422 C 0.77058 0.48133 0.55836 0.0
C423 C 0.77257 0.43047 0.487 0.0
C424 C 0.75396 0.50758 0.5745 0.0
C425 C 0.72887 0.51585 0.53623 0.0
C426 C 0.76122 0.46291 0.50423 0.0
C427 C 0.72549 0.50136 0.48026 0.0
C428 C 0.74633 0.39836 0.4485 0.0
C429 C 0.82597 0.41029 0.47869 0.0
N430 N 0.7403 0.47463 0.46645 0.0
N431 N 0.8108 0.4344 0.50273 0.0
H432 H 0.38576 0.83925 0.50588 0.0
H433 H 0.25169 0.72426 0.78373 0.0
H434 H 0.42995 0.77971 0.62713 0.0
H435 H 0.19995 0.74926 0.63299 0.0
H436 H 0.32324 0.76004 0.74014 0.0
H437 H 0.32454 0.82158 0.56509 0.0
C438 C 0.38232 0.82195 0.54507 0.0
C439 C 0.41233 0.80969 0.56077 0.0
C440 C 0.29654 0.75905 0.71748 0.0
C441 C 0.34171 0.78968 0.62969 0.0
C442 C 0.25596 0.73958 0.74269 0.0
C443 C 0.22024 0.73485 0.71217 0.0
C444 C 0.30128 0.77447 0.66183 0.0
C445 C 0.22684 0.75321 0.65827 0.0
C446 C 0.34736 0.81216 0.57908 0.0
C447 C 0.40709 0.78904 0.61313 0.0
N448 N 0.26657 0.77201 0.63468 0.0
N449 N 0.37183 0.77904 0.64569 0.0
loop_
_geom_bond_atom_site_label_1
_geom_bond_atom_site_label_2
_geom_bond_distance
_geom_bond_site_symmetry_2
_ccdc_geom_bond_type
O0 Mn1 2.163 1_556 S
O0 C14 1.244 . S
Mn1 O0 2.163 1_554 S
Mn1 O4 2.160 . S
Mn1 O5 2.221 . S
Mn1 O7 2.163 1_554 S
Mn1 O9 2.160 . S
Mn1 O19 2.221 1_554 S
O2 Mn3 2.087 . S
O2 C14 1.256 . S
Mn3 O2 2.087 . S
Mn3 O10 2.089 . S
Mn3 O19 2.290 . S
Mn3 O20 2.251 . S
O4 Mn1 2.160 . S
O4 C15 1.239 . S
O5 Mn1 2.221 . S
O5 Mn6 2.290 . S
O5 C16 1.278 . S
Mn6 O5 2.290 . S
Mn6 O8 2.089 . S
Mn6 O11 2.251 . S
Mn6 O12 2.087 . S
O7 Mn1 2.163 1_556 S
O7 C17 1.244 . S
O8 Mn6 2.089 . S
O8 C15 1.256 . S
O9 Mn1 2.160 . S
O9 C18 1.239 . S
O10 Mn3 2.089 . S
O10 C18 1.256 1_556 S
O11 Mn6 2.251 . S
O11 C16 1.241 . S
O12 Mn6 2.087 . S
O12 C17 1.256 1_554 S
C13 O19 1.278 . S
C13 O20 1.241 . S
C14 O0 1.244 . S
C14 O2 1.256 . S
C15 O4 1.239 . S
C15 O8 1.256 . S
C16 O5 1.278 . S
C16 O11 1.241 . S
C17 O7 1.244 . S
C17 O12 1.256 1_556 S
C18 O9 1.239 . S
C18 O10 1.256 1_554 S
O19 Mn1 2.221 1_556 S
O19 Mn3 2.290 . S
O19 C13 1.278 . S
O20 Mn3 2.251 . S
O20 C13 1.241 . S
O21 Mn22 2.163 . S
O21 C35 1.244 . S
Mn22 O21 2.163 . S
Mn22 O25 2.160 . S
Mn22 O26 2.221 . S
Mn22 O28 2.163 . S
Mn22 O30 2.160 . S
Mn22 O40 2.221 . S
O23 Mn24 2.087 . S
O23 C35 1.256 . S
Mn24 O23 2.087 . S
Mn24 O31 2.089 . S
Mn24 O40 2.290 . S
Mn24 O41 2.251 . S
O25 Mn22 2.160 . S
O25 C36 1.239 . S
O26 Mn22 2.221 . S
O26 Mn27 2.290 . S
O26 C37 1.278 . S
Mn27 O26 2.290 . S
Mn27 O29 2.089 . S
Mn27 O32 2.251 . S
Mn27 O33 2.087 . S
O28 Mn22 2.163 . S
O28 C38 1.244 . S
O29 Mn27 2.089 . S
O29 C36 1.256 . S
O30 Mn22 2.160 . S
O30 C39 1.239 . S
O31 Mn24 2.089 . S
O31 C39 1.256 . S
O32 Mn27 2.251 . S
O32 C37 1.241 . S
O33 Mn27 2.087 . S
O33 C38 1.256 . S
C34 O40 1.278 . S
C34 O41 1.241 . S
C35 O21 1.244 . S
C35 O23 1.256 . S
C36 O25 1.239 . S
C36 O29 1.256 . S
C37 O26 1.278 . S
C37 O32 1.241 . S
C38 O28 1.244 . S
C38 O33 1.256 . S
C39 O30 1.239 . S
C39 O31 1.256 . S
O40 Mn22 2.221 . S
O40 Mn24 2.290 . S
O40 C34 1.278 . S
O41 Mn24 2.251 . S
O41 C34 1.241 . S
O42 Mn43 2.163 . S
O42 C56 1.244 . S
Mn43 O42 2.163 . S
Mn43 O46 2.160 . S
Mn43 O47 2.221 . S
Mn43 O49 2.163 . S
Mn43 O51 2.160 . S
Mn43 O61 2.221 . S
O44 Mn45 2.087 . S
O44 C56 1.256 . S
Mn45 O44 2.087 . S
Mn45 O52 2.089 . S
Mn45 O61 2.290 . S
Mn45 O62 2.251 . S
O46 Mn43 2.160 . S
O46 C57 1.239 . S
O47 Mn43 2.221 . S
O47 Mn48 2.290 . S
O47 C58 1.278 . S
Mn48 O47 2.290 . S
Mn48 O50 2.089 . S
Mn48 O53 2.251 . S
Mn48 O54 2.087 . S
O49 Mn43 2.163 . S
O49 C59 1.244 . S
O50 Mn48 2.089 . S
O50 C57 1.256 . S
O51 Mn43 2.160 . S
O51 C60 1.239 . S
O52 Mn45 2.089 . S
O52 C60 1.256 . S
O53 Mn48 2.251 . S
O53 C58 1.241 . S
O54 Mn48 2.087 . S
O54 C59 1.256 . S
C55 O61 1.278 . S
C55 O62 1.241 . S
C56 O42 1.244 . S
C56 O44 1.256 . S
C57 O46 1.239 . S
C57 O50 1.256 . S
C58 O47 1.278 . S
C58 O53 1.241 . S
C59 O49 1.244 . S
C59 O54 1.256 . S
C60 O51 1.239 . S
C60 O52 1.256 . S
O61 Mn43 2.221 . S
O61 Mn45 2.290 . S
O61 C55 1.278 . S
O62 Mn45 2.251 . S
O62 C55 1.241 . S
O63 Mn64 2.163 . S
O63 C77 1.244 . S
Mn64 O63 2.163 . S
Mn64 O67 2.160 . S
Mn64 O68 2.221 . S
Mn64 O70 2.163 . S
Mn64 O72 2.160 . S
Mn64 O82 2.221 . S
O65 Mn66 2.087 . S
O65 C77 1.256 . S
Mn66 O65 2.087 . S
Mn66 O73 2.089 . S
Mn66 O82 2.290 . S
Mn66 O83 2.251 . S
O67 Mn64 2.160 . S
O67 C78 1.239 . S
O68 Mn64 2.221 . S
O68 Mn69 2.290 . S
O68 C79 1.278 . S
Mn69 O68 2.290 . S
Mn69 O71 2.089 . S
Mn69 O74 2.251 . S
Mn69 O75 2.087 . S
O70 Mn64 2.163 . S
O70 C80 1.244 . S
O71 Mn69 2.089 . S
O71 C78 1.256 . S
O72 Mn64 2.160 . S
O72 C81 1.239 . S
O73 Mn66 2.089 . S
O73 C81 1.256 . S
O74 Mn69 2.251 . S
O74 C79 1.241 . S
O75 Mn69 2.087 . S
O75 C80 1.256 . S
C76 O82 1.278 . S
C76 O83 1.241 . S
C77 O63 1.244 . S
C77 O65 1.256 . S
C78 O67 1.239 . S
C78 O71 1.256 . S
C79 O68 1.278 . S
C79 O74 1.241 . S
C80 O70 1.244 . S
C80 O75 1.256 . S
C81 O72 1.239 . S
C81 O73 1.256 . S
O82 Mn64 2.221 . S
O82 Mn66 2.290 . S
O82 C76 1.278 . S
O83 Mn66 2.251 . S
O83 C76 1.241 . S
O84 Mn85 2.163 . S
O84 C98 1.244 . S
Mn85 O84 2.163 . S
Mn85 O88 2.160 . S
Mn85 O89 2.221 . S
Mn85 O91 2.163 . S
Mn85 O93 2.160 . S
Mn85 O103 2.221 . S
O86 Mn87 2.087 . S
O86 C98 1.256 . S
Mn87 O86 2.087 . S
Mn87 O94 2.089 . S
Mn87 O103 2.290 . S
Mn87 O104 2.251 . S
O88 Mn85 2.160 . S
O88 C99 1.239 . S
O89 Mn85 2.221 . S
O89 Mn90 2.290 . S
O89 C100 1.278 . S
Mn90 O89 2.290 . S
Mn90 O92 2.089 . S
Mn90 O95 2.251 . S
Mn90 O96 2.087 . S
O91 Mn85 2.163 . S
O91 C101 1.244 . S
O92 Mn90 2.089 . S
O92 C99 1.256 . S
O93 Mn85 2.160 . S
O93 C102 1.239 . S
O94 Mn87 2.089 . S
O94 C102 1.256 . S
O95 Mn90 2.251 . S
O95 C100 1.241 . S
O96 Mn90 2.087 . S
O96 C101 1.256 . S
C97 O103 1.278 . S
C97 O104 1.241 . S
C98 O84 1.244 . S
C98 O86 1.256 . S
C99 O88 1.239 . S
C99 O92 1.256 . S
C100 O89 1.278 . S
C100 O95 1.241 . S
C101 O91 1.244 . S
C101 O96 1.256 . S
C102 O93 1.239 . S
C102 O94 1.256 . S
O103 Mn85 2.221 . S
O103 Mn87 2.290 . S
O103 C97 1.278 . S
O104 Mn87 2.251 . S
O104 C97 1.241 . S
O105 Mn106 2.163 . S
O105 C119 1.244 . S
Mn106 O105 2.163 . S
Mn106 O109 2.160 . S
Mn106 O110 2.221 . S
Mn106 O112 2.163 . S
Mn106 O114 2.160 . S
Mn106 O124 2.221 . S
O107 Mn108 2.087 . S
O107 C119 1.256 . S
Mn108 O107 2.087 . S
Mn108 O115 2.089 . S
Mn108 O124 2.290 . S
Mn108 O125 2.251 . S
O109 Mn106 2.160 . S
O109 C120 1.239 . S
O110 Mn106 2.221 . S
O110 Mn111 2.290 . S
O110 C121 1.278 . S
Mn111 O110 2.290 . S
Mn111 O113 2.089 . S
Mn111 O116 2.251 . S
Mn111 O117 2.087 . S
O112 Mn106 2.163 . S
O112 C122 1.244 . S
O113 Mn111 2.089 . S
O113 C120 1.256 . S
O114 Mn106 2.160 . S
O114 C123 1.239 . S
O115 Mn108 2.089 . S
O115 C123 1.256 . S
O116 Mn111 2.251 . S
O116 C121 1.241 . S
O117 Mn111 2.087 . S
O117 C122 1.256 . S
C118 O124 1.278 . S
C118 O125 1.241 . S
C119 O105 1.244 . S
C119 O107 1.256 . S
C120 O109 1.239 . S
C120 O113 1.256 . S
C121 O110 1.278 . S
C121 O116 1.241 . S
C122 O112 1.244 . S
C122 O117 1.256 . S
C123 O114 1.239 . S
C123 O115 1.256 . S
O124 Mn106 2.221 . S
O124 Mn108 2.290 . S
O124 C118 1.278 . S
O125 Mn108 2.251 . S
O125 C118 1.241 . S
H126 C132 0.930 . S
H127 C136 0.930 1_554 S
H128 C141 0.929 . S
H129 C139 0.929 . S
H130 C134 0.929 1_554 S
H131 C140 0.929 . S
C132 H126 0.930 . S
C132 C133 1.379 . S
C132 C140 1.378 . S
C133 C132 1.379 . S
C133 C141 1.444 1_556 S
C134 H130 0.929 1_556 S
C134 C136 1.378 . S
C134 C138 1.350 . S
C135 C138 1.463 . S
C135 C140 1.350 . S
C135 N143 1.427 1_556 S
C136 H127 0.930 1_556 S
C136 C134 1.378 . S
C136 C137 1.367 . S
C137 C136 1.367 . S
C137 C139 1.433 . S
C138 C134 1.350 . S
C138 C135 1.463 . S
C138 N142 1.427 . S
C139 H129 0.929 . S
C139 C137 1.433 . S
C139 N142 1.384 . S
C140 H131 0.929 . S
C140 C132 1.378 . S
C140 C135 1.350 . S
C141 H128 0.929 . S
C141 C133 1.444 1_554 S
C141 N143 1.384 . S
N142 C138 1.427 . S
N142 C139 1.384 . S
N143 C135 1.427 1_554 S
N143 C141 1.384 . S
H144 C150 0.930 . S
H145 C154 0.930 . S
H146 C159 0.929 . S
H147 C157 0.929 . S
H148 C152 0.929 . S
H149 C158 0.929 . S
C150 H144 0.930 . S
C150 C151 1.367 . S
C150 C158 1.378 . S
C151 C150 1.367 . S
C151 C159 1.433 . S
C152 H148 0.929 . S
C152 C154 1.378 . S
C152 C156 1.350 . S
C153 C156 1.463 . S
C153 C158 1.350 . S
C153 N161 1.427 . S
C154 H145 0.930 . S
C154 C152 1.378 . S
C154 C155 1.367 . S
C155 C154 1.367 . S
C155 C157 1.433 . S
C156 C152 1.350 . S
C156 C153 1.463 . S
C156 N160 1.427 . S
C157 H147 0.929 . S
C157 C155 1.433 . S
C157 N160 1.384 . S
C158 H149 0.929 . S
C158 C150 1.378 . S
C158 C153 1.350 . S
C159 H146 0.929 . S
C159 C151 1.433 . S
C159 N161 1.384 . S
N160 C156 1.427 . S
N160 C157 1.384 . S
N161 C153 1.427 . S
N161 C159 1.384 . S
H162 C168 0.930 . S
H163 C172 0.930 . S
H164 C177 0.929 1_655 S
H165 C175 0.929 . S
H166 C170 0.929 . S
H167 C176 0.929 . S
C168 H162 0.930 . S
C168 C169 1.367 . S
C168 C176 1.378 . S
C169 C168 1.367 . S
C169 C177 1.433 . S
C170 H166 0.929 . S
C170 C172 1.378 . S
C170 C174 1.350 . S
C171 C174 1.463 . S
C171 C176 1.350 . S
C171 N179 1.427 . S
C172 H163 0.930 . S
C172 C170 1.378 . S
C172 C173 1.367 . S
C173 C172 1.367 . S
C173 C175 1.433 . S
C174 C170 1.350 . S
C174 C171 1.463 . S
C174 N178 1.427 . S
C175 H165 0.929 . S
C175 C173 1.433 . S
C175 N178 1.384 . S
C176 H167 0.929 . S
C176 C168 1.378 . S
C176 C171 1.350 . S
C177 H164 0.929 1_455 S
C177 C169 1.433 . S
C177 N179 1.384 . S
N178 C174 1.427 . S
N178 C175 1.384 . S
N179 C171 1.427 . S
N179 C177 1.384 . S
H180 C186 0.930 . S
H181 C190 0.930 . S
H182 C195 0.929 . S
H183 C193 0.929 1_565 S
H184 C188 0.929 . S
H185 C194 0.929 . S
C186 H180 0.930 . S
C186 C187 1.367 . S
C186 C194 1.378 . S
C187 C186 1.367 . S
C187 C195 1.433 . S
C188 H184 0.929 . S
C188 C190 1.378 . S
C188 C192 1.350 . S
C189 C192 1.463 . S
C189 C194 1.350 . S
C189 N197 1.427 . S
C190 H181 0.930 . S
C190 C188 1.378 . S
C190 C191 1.367 . S
C191 C190 1.367 . S
C191 C193 1.433 . S
C192 C188 1.350 . S
C192 C189 1.463 . S
C192 N196 1.427 . S
C193 H183 0.929 1_545 S
C193 C191 1.433 . S
C193 N196 1.384 . S
C194 H185 0.929 . S
C194 C186 1.378 . S
C194 C189 1.350 . S
C195 H182 0.929 . S
C195 C187 1.433 . S
C195 N197 1.384 . S
N196 C192 1.427 . S
N196 C193 1.384 . S
N197 C189 1.427 . S
N197 C195 1.384 . S
H198 C204 0.930 . S
H199 C208 0.930 . S
H200 C213 0.929 . S
H201 C211 0.929 . S
H202 C206 0.929 . S
H203 C212 0.929 . S
C204 H198 0.930 . S
C204 C205 1.367 . S
C204 C212 1.378 . S
C205 C204 1.367 . S
C205 C213 1.433 . S
C206 H202 0.929 . S
C206 C208 1.378 . S
C206 C210 1.350 . S
C207 C210 1.463 . S
C207 C212 1.350 . S
C207 N215 1.427 . S
C208 H199 0.930 . S
C208 C206 1.378 . S
C208 C209 1.367 . S
C209 C208 1.367 . S
C209 C211 1.433 . S
C210 C206 1.350 . S
C210 C207 1.463 . S
C210 N214 1.427 . S
C211 H201 0.929 . S
C211 C209 1.433 . S
C211 N214 1.384 . S
C212 H203 0.929 . S
C212 C204 1.378 . S
C212 C207 1.350 . S
C213 H200 0.929 . S
C213 C205 1.433 . S
C213 N215 1.384 . S
N214 C210 1.427 . S
N214 C211 1.384 . S
N215 C207 1.427 . S
N215 C213 1.384 . S
H216 C222 0.930 . S
H217 C226 0.930 . S
H218 C231 0.929 1_455 S
H219 C229 0.929 . S
H220 C224 0.929 . S
H221 C230 0.929 . S
C222 H216 0.930 . S
C222 C223 1.367 . S
C222 C230 1.378 . S
C223 C222 1.367 . S
C223 C231 1.433 . S
C224 H220 0.929 . S
C224 C226 1.378 . S
C224 C228 1.350 . S
C225 C228 1.463 . S
C225 C230 1.350 . S
C225 N233 1.427 . S
C226 H217 0.930 . S
C226 C224 1.378 . S
C226 C227 1.367 . S
C227 C226 1.367 . S
C227 C229 1.433 . S
C228 C224 1.350 . S
C228 C225 1.463 . S
C228 N232 1.427 . S
C229 H219 0.929 . S
C229 C227 1.433 . S
C229 N232 1.384 . S
C230 H221 0.929 . S
C230 C222 1.378 . S
C230 C225 1.350 . S
C231 H218 0.929 1_655 S
C231 C223 1.433 . S
C231 N233 1.384 . S
N232 C228 1.427 . S
N232 C229 1.384 . S
N233 C225 1.427 . S
N233 C231 1.384 . S
H234 C240 0.930 . S
H235 C244 0.930 . S
H236 C249 0.929 . S
H237 C247 0.929 . S
H238 C242 0.929 . S
H239 C248 0.929 . S
C240 H234 0.930 . S
C240 C241 1.367 . S
C240 C248 1.378 . S
C241 C240 1.367 . S
C241 C249 1.433 . S
C242 H238 0.929 . S
C242 C244 1.378 . S
C242 C246 1.350 . S
C243 C246 1.463 . S
C243 C248 1.350 1_565 S
C243 N251 1.427 . S
C244 H235 0.930 . S
C244 C242 1.378 . S
C244 C245 1.367 . S
C245 C244 1.367 . S
C245 C247 1.433 . S
C246 C242 1.350 . S
C246 C243 1.463 . S
C246 N250 1.427 . S
C247 H237 0.929 . S
C247 C245 1.433 . S
C247 N250 1.384 . S
C248 H239 0.929 . S
C248 C240 1.378 . S
C248 C243 1.350 1_545 S
C249 H236 0.929 . S
C249 C241 1.433 . S
C249 N251 1.384 1_545 S
N250 C246 1.427 . S
N250 C247 1.384 . S
N251 C243 1.427 . S
N251 C249 1.384 1_565 S
H252 C258 0.930 . S
H253 C262 0.930 . S
H254 C267 0.929 . S
H255 C265 0.929 . S
H256 C260 0.929 . S
H257 C266 0.929 . S
C258 H252 0.930 . S
C258 C259 1.367 . S
C258 C266 1.378 . S
C259 C258 1.367 . S
C259 C267 1.433 . S
C260 H256 0.929 . S
C260 C262 1.378 . S
C260 C264 1.350 . S
C261 C264 1.463 . S
C261 C266 1.350 . S
C261 N269 1.427 . S
C262 H253 0.930 . S
C262 C260 1.378 . S
C262 C263 1.367 . S
C263 C262 1.367 . S
C263 C265 1.433 . S
C264 C260 1.350 . S
C264 C261 1.463 . S
C264 N268 1.427 . S
C265 H255 0.929 . S
C265 C263 1.433 . S
C265 N268 1.384 . S
C266 H257 0.929 . S
C266 C258 1.378 . S
C266 C261 1.350 . S
C267 H254 0.929 . S
C267 C259 1.433 . S
C267 N269 1.384 . S
N268 C264 1.427 . S
N268 C265 1.384 . S
N269 C261 1.427 . S
N269 C267 1.384 . S
H270 C276 0.930 . S
H271 C280 0.930 . S
H272 C285 0.929 . S
H273 C283 0.929 . S
H274 C278 0.929 . S
H275 C284 0.929 . S
C276 H270 0.930 . S
C276 C277 1.367 . S
C276 C284 1.378 . S
C277 C276 1.367 . S
C277 C285 1.433 . S
C278 H274 0.929 . S
C278 C280 1.378 1_455 S
C278 C282 1.350 . S
C279 C282 1.463 . S
C279 C284 1.350 . S
C279 N287 1.427 . S
C280 H271 0.930 . S
C280 C278 1.378 1_655 S
C280 C281 1.367 . S
C281 C280 1.367 . S
C281 C283 1.433 . S
C282 C278 1.350 . S
C282 C279 1.463 . S
C282 N286 1.427 1_455 S
C283 H273 0.929 . S
C283 C281 1.433 . S
C283 N286 1.384 . S
C284 H275 0.929 . S
C284 C276 1.378 . S
C284 C279 1.350 . S
C285 H272 0.929 . S
C285 C277 1.433 . S
C285 N287 1.384 . S
N286 C282 1.427 1_655 S
N286 C283 1.384 . S
N287 C279 1.427 . S
N287 C285 1.384 . S
H288 C294 0.930 . S
H289 C298 0.930 1_565 S
H290 C303 0.929 . S
H291 C301 0.929 . S
H292 C296 0.929 . S
H293 C302 0.929 . S
C294 H288 0.930 . S
C294 C295 1.367 1_545 S
C294 C302 1.378 . S
C295 C294 1.367 1_565 S
C295 C303 1.433 . S
C296 H292 0.929 . S
C296 C298 1.378 1_565 S
C296 C300 1.350 1_565 S
C297 C300 1.463 . S
C297 C302 1.350 . S
C297 N305 1.427 1_545 S
C298 H289 0.930 1_545 S
C298 C296 1.378 1_545 S
C298 C299 1.367 . S
C299 C298 1.367 . S
C299 C301 1.433 . S
C300 C296 1.350 1_545 S
C300 C297 1.463 . S
C300 N304 1.427 . S
C301 H291 0.929 . S
C301 C299 1.433 . S
C301 N304 1.384 . S
C302 H293 0.929 . S
C302 C294 1.378 . S
C302 C297 1.350 . S
C303 H290 0.929 . S
C303 C295 1.433 . S
C303 N305 1.384 . S
N304 C300 1.427 . S
N304 C301 1.384 . S
N305 C297 1.427 1_565 S
N305 C303 1.384 . S
H306 C312 0.930 . S
H307 C316 0.930 . S
H308 C321 0.929 . S
H309 C319 0.929 . S
H310 C314 0.929 . S
H311 C320 0.929 . S
C312 H306 0.930 . S
C312 C313 1.367 . S
C312 C320 1.378 . S
C313 C312 1.367 . S
C313 C321 1.433 . S
C314 H310 0.929 . S
C314 C316 1.378 . S
C314 C318 1.350 . S
C315 C318 1.463 . S
C315 C320 1.350 1_556 S
C315 N323 1.427 . S
C316 H307 0.930 . S
C316 C314 1.378 . S
C316 C317 1.367 . S
C317 C316 1.367 . S
C317 C319 1.433 . S
C318 C314 1.350 . S
C318 C315 1.463 . S
C318 N322 1.427 . S
C319 H309 0.929 . S
C319 C317 1.433 . S
C319 N322 1.384 . S
C320 H311 0.929 . S
C320 C312 1.378 . S
C320 C315 1.350 1_554 S
C321 H308 0.929 . S
C321 C313 1.433 . S
C321 N323 1.384 1_554 S
N322 C318 1.427 . S
N322 C319 1.384 . S
N323 C315 1.427 . S
N323 C321 1.384 1_556 S
H324 C330 0.930 1_556 S
H325 C334 0.930 . S
H326 C339 0.929 1_556 S
H327 C337 0.929 1_455 S
H328 C332 0.929 . S
H329 C338 0.929 . S
C330 H324 0.930 1_554 S
C330 C331 1.367 1_554 S
C330 C338 1.378 . S
C331 C330 1.367 1_556 S
C331 C339 1.433 1_456 S
C332 H328 0.929 . S
C332 C334 1.378 . S
C332 C336 1.350 . S
C333 C336 1.463 . S
C333 C338 1.350 1_655 S
C333 N341 1.427 . S
C334 H325 0.930 . S
C334 C332 1.378 . S
C334 C335 1.367 . S
C335 C334 1.367 . S
C335 C337 1.433 . S
C336 C332 1.350 . S
C336 C333 1.463 . S
C336 N340 1.404 1_655 S
C337 H327 0.929 1_655 S
C337 C335 1.433 . S
C337 N340 1.382 1_655 S
C338 H329 0.929 . S
C338 C330 1.378 . S
C338 C333 1.350 1_455 S
C339 H326 0.929 1_554 S
C339 C331 1.433 1_654 S
C339 N341 1.384 . S
N340 C336 1.404 1_455 S
N340 C337 1.382 1_455 S
N341 C333 1.427 . S
N341 C339 1.384 . S
H342 C348 0.930 . S
H343 C352 0.930 . S
H344 C357 0.929 . S
H345 C355 0.929 . S
H346 C350 0.929 . S
H347 C356 0.929 . S
C348 H342 0.930 . S
C348 C349 1.367 . S
C348 C356 1.378 . S
C349 C348 1.367 . S
C349 C357 1.433 . S
C350 H346 0.929 . S
C350 C352 1.378 . S
C350 C354 1.350 . S
C351 C354 1.463 . S
C351 C356 1.350 . S
C351 N359 1.427 . S
C352 H343 0.930 . S
C352 C350 1.378 . S
C352 C353 1.367 . S
C353 C352 1.367 . S
C353 C355 1.433 . S
C354 C350 1.350 . S
C354 C351 1.463 . S
C354 N358 1.427 . S
C355 H345 0.929 . S
C355 C353 1.433 . S
C355 N358 1.384 . S
C356 H347 0.929 . S
C356 C348 1.378 . S
C356 C351 1.350 . S
C357 H344 0.929 . S
C357 C349 1.433 . S
C357 N359 1.384 . S
N358 C354 1.427 . S
N358 C355 1.384 . S
N359 C351 1.427 . S
N359 C357 1.384 . S
H360 C366 0.930 . S
H361 C370 0.930 . S
H362 C375 0.929 . S
H363 C373 0.929 1_556 S
H364 C368 0.929 . S
H365 C374 0.929 . S
C366 H360 0.930 . S
C366 C367 1.367 . S
C366 C374 1.378 . S
C367 C366 1.367 . S
C367 C375 1.433 . S
C368 H364 0.929 . S
C368 C370 1.378 . S
C368 C372 1.350 . S
C369 C372 1.463 1_556 S
C369 C374 1.350 . S
C369 N377 1.427 1_556 S
C370 H361 0.930 . S
C370 C368 1.378 . S
C370 C371 1.367 . S
C371 C370 1.367 . S
C371 C373 1.433 . S
C372 C368 1.350 . S
C372 C369 1.463 1_554 S
C372 N376 1.427 1_554 S
C373 H363 0.929 1_554 S
C373 C371 1.433 . S
C373 N376 1.384 1_554 S
C374 H365 0.929 . S
C374 C366 1.378 . S
C374 C369 1.350 . S
C375 H362 0.929 . S
C375 C367 1.433 . S
C375 N377 1.384 1_556 S
N376 C372 1.427 1_556 S
N376 C373 1.384 1_556 S
N377 C369 1.427 1_554 S
N377 C375 1.384 1_554 S
H378 C384 0.930 . S
H379 C388 0.930 . S
H380 C393 0.929 . S
H381 C391 0.929 . S
H382 C386 0.929 . S
H383 C392 0.929 . S
C384 H378 0.930 . S
C384 C385 1.367 . S
C384 C392 1.378 . S
C385 C384 1.367 . S
C385 C393 1.433 . S
C386 H382 0.929 . S
C386 C388 1.378 . S
C386 C390 1.350 . S
C387 C390 1.463 . S
C387 C392 1.350 . S
C387 N395 1.427 . S
C388 H379 0.930 . S
C388 C386 1.378 . S
C388 C389 1.367 . S
C389 C388 1.367 . S
C389 C391 1.433 . S
C390 C386 1.350 . S
C390 C387 1.463 . S
C390 N394 1.427 . S
C391 H381 0.929 . S
C391 C389 1.433 . S
C391 N394 1.384 . S
C392 H383 0.929 . S
C392 C384 1.378 . S
C392 C387 1.350 . S
C393 H380 0.929 . S
C393 C385 1.433 . S
C393 N395 1.384 . S
N394 C390 1.427 . S
N394 C391 1.384 . S
N395 C387 1.427 . S
N395 C393 1.384 . S
H396 C402 0.930 . S
H397 C406 0.930 . S
H398 C411 0.929 . S
H399 C409 0.929 . S
H400 C404 0.929 . S
H401 C410 0.929 . S
C402 H396 0.930 . S
C402 C403 1.367 . S
C402 C410 1.378 . S
C403 C402 1.367 . S
C403 C411 1.433 . S
C404 H400 0.929 . S
C404 C406 1.378 . S
C404 C408 1.350 . S
C405 C408 1.463 . S
C405 C410 1.350 . S
C405 N413 1.427 . S
C406 H397 0.930 . S
C406 C404 1.378 . S
C406 C407 1.367 . S
C407 C406 1.367 . S
C407 C409 1.433 . S
C408 C404 1.350 . S
C408 C405 1.463 . S
C408 N412 1.427 . S
C409 H399 0.929 . S
C409 C407 1.433 . S
C409 N412 1.384 . S
C410 H401 0.929 . S
C410 C402 1.378 . S
C410 C405 1.350 . S
C411 H398 0.929 . S
C411 C403 1.433 . S
C411 N413 1.384 . S
N412 C408 1.427 . S
N412 C409 1.384 . S
N413 C405 1.427 . S
N413 C411 1.384 . S
H414 C420 0.930 . S
H415 C424 0.930 . S
H416 C429 0.929 . S
H417 C427 0.929 . S
H418 C422 0.929 . S
H419 C428 0.929 . S
C420 H414 0.930 . S
C420 C421 1.367 . S
C420 C428 1.378 . S
C421 C420 1.367 . S
C421 C429 1.433 . S
C422 H418 0.929 . S
C422 C424 1.378 . S
C422 C426 1.350 . S
C423 C426 1.463 . S
C423 C428 1.350 . S
C423 N431 1.427 . S
C424 H415 0.930 . S
C424 C422 1.378 . S
C424 C425 1.367 . S
C425 C424 1.367 . S
C425 C427 1.433 . S
C426 C422 1.350 . S
C426 C423 1.463 . S
C426 N430 1.427 . S
C427 H417 0.929 . S
C427 C425 1.433 . S
C427 N430 1.384 . S
C428 H419 0.929 . S
C428 C420 1.378 . S
C428 C423 1.350 . S
C429 H416 0.929 . S
C429 C421 1.433 . S
C429 N431 1.384 . S
N430 C426 1.427 . S
N430 C427 1.384 . S
N431 C423 1.427 . S
N431 C429 1.384 . S
H432 C438 0.930 . S
H433 C442 0.930 . S
H434 C447 0.929 . S
H435 C445 0.929 . S
H436 C440 0.929 . S
H437 C446 0.929 . S
C438 H432 0.930 . S
C438 C439 1.367 . S
C438 C446 1.378 . S
C439 C438 1.367 . S
C439 C447 1.433 . S
C440 H436 0.929 . S
C440 C442 1.378 . S
C440 C444 1.350 . S
C441 C444 1.463 . S
C441 C446 1.350 . S
C441 N449 1.427 . S
C442 H433 0.930 . S
C442 C440 1.378 . S
C442 C443 1.367 . S
C443 C442 1.367 . S
C443 C445 1.433 . S
C444 C440 1.350 . S
C444 C441 1.463 . S
C444 N448 1.427 . S
C445 H435 0.929 . S
C445 C443 1.433 . S
C445 N448 1.384 . S
C446 H437 0.929 . S
C446 C438 1.378 . S
C446 C441 1.350 . S
C447 H434 0.929 . S
C447 C439 1.433 . S
C447 N449 1.384 . S
N448 C444 1.427 . S
N448 C445 1.384 . S
N449 C441 1.427 . S
N449 C447 1.384 . S
C133 C17 1.632 1_565 S
C137 C118 1.558 . S
C151 C35 1.652 . S
C155 C16 1.555 . S
C169 C59 1.643 1_455 S
C173 C34 1.551 . S
C187 C58 1.555 . S
C191 C77 1.640 1_545 S
C205 C76 1.552 . S
C209 C101 1.651 . S
C223 C119 1.645 1_655 S
C227 C100 1.550 . S
C241 C15 1.208 . S
C245 C79 1.027 . S
C259 C39 1.214 . S
C263 C97 1.043 . S
C277 C121 1.036 . S
C281 C57 1.211 . S
C295 C81 1.222 . S
C299 C13 1.051 . S
C313 C37 1.045 . S
C317 C99 1.224 . S
C331 C123 1.214 . S
C335 C55 1.016 . S
C349 C14 1.110 . S
C353 C102 1.139 . S
C367 C120 1.119 . S
C371 C38 1.097 . S
C385 C18 1.126 . S
C389 C56 1.091 . S
C403 C80 1.115 . S
C407 C36 1.137 . S
C421 C60 1.132 . S
C425 C98 1.113 . S
C439 C78 1.118 . S
C443 C122 1.092 . S
