# Generated by pormake.
# Topology swf, (7)-cn, num edge types: 1
# Building blocks:
#     Node 0, Type 0, BuildingBlock: NUHQUE_clean_sbu_2, # of connection points: 7
#     Node 1, Type 0, BuildingBlock: NUHQUE_clean_sbu_2, # of connection points: 7
#     Node 2, Type 0, BuildingBlock: NUHQUE_clean_sbu_2, # of connection points: 7
#     Node 3, Type 0, BuildingBlock: NUHQUE_clean_sbu_2, # of connection points: 7
#     Node 4, Type 0, BuildingBlock: NUHQUE_clean_sbu_2, # of connection points: 7
#     Node 5, Type 0, BuildingBlock: NUHQUE_clean_sbu_2, # of connection points: 7
#     Node 6, Type 0, BuildingBlock: NUHQUE_clean_sbu_2, # of connection points: 7
#     Node 7, Type 0, BuildingBlock: NUHQUE_clean_sbu_2, # of connection points: 7
#     Node 8, Type 0, BuildingBlock: NUHQUE_clean_sbu_2, # of connection points: 7
#     Node 9, Type 0, BuildingBlock: NUHQUE_clean_sbu_2, # of connection points: 7
#     Node 10, Type 0, BuildingBlock: NUHQUE_clean_sbu_2, # of connection points: 7
#     Node 11, Type 0, BuildingBlock: NUHQUE_clean_sbu_2, # of connection points: 7
#     Edge 12, Type (0, 0), None
#     Edge 13, Type (0, 0), None
#     Edge 14, Type (0, 0), None
#     Edge 15, Type (0, 0), None
#     Edge 16, Type (0, 0), None
#     Edge 17, Type (0, 0), None
#     Edge 18, Type (0, 0), None
#     Edge 19, Type (0, 0), None
#     Edge 20, Type (0, 0), None
#     Edge 21, Type (0, 0), None
#     Edge 22, Type (0, 0), None
#     Edge 23, Type (0, 0), None
#     Edge 24, Type (0, 0), None
#     Edge 25, Type (0, 0), None
#     Edge 26, Type (0, 0), None
#     Edge 27, Type (0, 0), None
#     Edge 28, Type (0, 0), None
#     Edge 29, Type (0, 0), None
#     Edge 30, Type (0, 0), None
#     Edge 31, Type (0, 0), None
#     Edge 32, Type (0, 0), None
#     Edge 33, Type (0, 0), None
#     Edge 34, Type (0, 0), None
#     Edge 35, Type (0, 0), None
#     Edge 36, Type (0, 0), None
#     Edge 37, Type (0, 0), None
#     Edge 38, Type (0, 0), None
#     Edge 39, Type (0, 0), None
#     Edge 40, Type (0, 0), None
#     Edge 41, Type (0, 0), None
#     Edge 42, Type (0, 0), None
#     Edge 43, Type (0, 0), None
#     Edge 44, Type (0, 0), None
#     Edge 45, Type (0, 0), None
#     Edge 46, Type (0, 0), None
#     Edge 47, Type (0, 0), None
#     Edge 48, Type (0, 0), None
#     Edge 49, Type (0, 0), None
#     Edge 50, Type (0, 0), None
#     Edge 51, Type (0, 0), None
#     Edge 52, Type (0, 0), None
#     Edge 53, Type (0, 0), None
# Relax obj value: 0.345
# Max RMSD: 0.210
# Mean RMSD: 0.210
data_MOF--net-swf--node1-NUHQUE_clean_sbu_2--edge1-none
_symmetry_space_group_name_H-M    P1
_symmetry_Int_Tables_number       1
_symmetry_cell_setting            triclinic
loop_
_symmetry_equiv_pos_as_xyz
'x, y, z'
_cell_length_a     40.726406
_cell_length_b     40.724475
_cell_length_c     7.7470011
_cell_angle_alpha  89.991454
_cell_angle_beta   90.018314
_cell_angle_gamma 119.99964
loop_
_atom_site_label
_atom_site_type_symbol
_atom_site_fract_x
_atom_site_fract_y
_atom_site_fract_z
_atom_type_partial_charge
O0 O 0.50992 0.1068 1.0325 0.0
Tb1 Tb 0.48509 0.06646 1.24421 0.0
Eu2 Eu 0.42708 0.05636 0.50923 0.0
C3 C 0.54354 0.13698 1.05123 0.0
O4 O 0.5553 0.16542 0.94267 0.0
C5 C 0.40317 0.00555 1.16783 0.0
O6 O 0.38138 0.03014 0.71506 0.0
C7 C 0.42613 0.11486 0.3716 0.0
C8 C 0.34803 -0.0012 0.69699 0.0
O9 O 0.32385 0.98752 0.82575 0.0
C10 C 0.51627 0.09307 0.58931 0.0
C11 C 0.43937 0.15645 0.3705 0.0
C12 C 0.44212 0.17482 1.21153 0.0
C13 C 0.44828 0.21238 1.20192 0.0
C14 C 0.45228 0.23089 0.3671 0.0
C15 C 0.4491 0.21286 0.53347 0.0
C16 C 0.44324 0.17559 0.52706 0.0
O17 O 0.43165 0.03628 1.10031 0.0
O18 O 0.39836 0.00426 0.33507 0.0
O19 O 0.51196 0.03183 1.2674 0.0
O20 O 0.4617 0.01699 0.4095 0.0
C21 C 0.48639 0.00717 0.37234 0.0
O22 O 0.4825 0.0683 0.65179 0.0
O23 O 0.51588 0.10774 0.44105 0.0
O24 O 0.40466 0.09474 0.501 0.0
O25 O 0.44843 0.10247 0.31551 0.0
H26 H 0.4367 0.15807 1.09576 0.0
H27 H 0.45964 0.26019 0.36544 0.0
H28 H 0.43887 0.15955 0.64409 0.0
O29 O 0.39075 0.51614 1.0324 0.0
Tb30 Tb 0.40626 0.4913 1.24414 0.0
Eu31 Eu 0.35835 0.43329 0.50921 0.0
C32 C 0.3942 0.54976 1.05111 0.0
O33 O 0.37753 0.56154 0.94253 0.0
C34 C 0.38524 0.40938 1.1678 0.0
O35 O 0.33887 0.38758 0.71507 0.0
C36 C 0.2989 0.43235 0.37167 0.0
C37 C 0.33685 0.35422 0.69702 0.0
O38 O 0.32395 0.33004 0.82579 0.0
C39 C 0.41084 0.52248 0.58921 0.0
C40 C 0.27056 0.4456 0.37055 0.0
C41 C 0.25494 0.44835 1.21157 0.0
C42 C 0.22354 0.45452 1.20193 0.0
C43 C 0.20904 0.45852 0.36708 0.0
C44 C 0.22388 0.45533 0.53348 0.0
C45 C 0.25529 0.44947 0.5271 0.0
O46 O 0.38299 0.43786 1.10026 0.0
O47 O 0.38172 0.40456 0.33505 0.0
O48 O 0.46776 0.51817 1.26736 0.0
O49 O 0.43233 0.46789 0.40945 0.0
C50 C 0.46684 0.49259 0.37231 0.0
O51 O 0.40184 0.48871 0.65172 0.0
O52 O 0.39578 0.5221 0.44094 0.0
O53 O 0.29756 0.41089 0.50111 0.0
O54 O 0.33358 0.45464 0.31547 0.0
H55 H 0.26627 0.44294 1.09581 0.0
H56 H 0.18709 0.46587 0.3654 0.0
H57 H 0.26695 0.4451 0.64414 0.0
O58 O 0.86223 0.39691 1.0323 0.0
Tb59 Tb 0.90258 0.41244 1.24408 0.0
Eu60 Eu 0.91268 0.36454 0.50927 0.0
C61 C 0.83205 0.40035 1.0509 0.0
O62 O 0.80362 0.38366 0.9423 0.0
C63 C 0.96349 0.39143 1.16794 0.0
O64 O 0.93889 0.34506 0.71522 0.0
C65 C 0.85417 0.30509 0.37166 0.0
C66 C 0.97023 0.34304 0.69722 0.0
O67 O -0.0185 0.33013 0.82603 0.0
C68 C 0.87596 0.41703 0.5891 0.0
C69 C 0.81259 0.27675 0.37053 0.0
C70 C 0.79422 0.26113 1.21155 0.0
C71 C 0.75666 0.22973 1.20192 0.0
C72 C 0.73815 0.21522 0.36708 0.0
C73 C 0.75618 0.23007 0.53347 0.0
C74 C 0.79344 0.26148 0.52708 0.0
O75 O 0.93277 0.38918 1.10032 0.0
O76 O 0.96478 0.38792 0.3352 0.0
O77 O 0.93722 0.47395 1.26712 0.0
O78 O 0.95204 0.43852 0.4095 0.0
C79 C 0.96186 0.47303 0.37222 0.0
O80 O 0.90072 0.40802 0.65169 0.0
O81 O 0.8613 0.40197 0.44082 0.0
O82 O 0.87429 0.30375 0.50112 0.0
O83 O 0.86656 0.33978 0.31547 0.0
H84 H 0.81096 0.27245 1.09579 0.0
H85 H 0.70885 0.19328 0.36541 0.0
H86 H 0.80948 0.27314 0.64411 0.0
O87 O 0.45293 0.86843 1.03236 0.0
Tb88 Tb 0.47772 0.90878 1.24408 0.0
Eu89 Eu 0.53572 0.91884 0.50926 0.0
C90 C 0.41931 0.83824 1.05095 0.0
O91 O 0.40757 0.80981 0.94238 0.0
C92 C 0.55966 0.96966 1.16794 0.0
O93 O 0.58141 0.94504 0.71525 0.0
C94 C 0.53666 0.86034 0.37153 0.0
C95 C 0.61476 0.97638 0.69732 0.0
O96 O 0.63893 -0.01236 0.82615 0.0
C97 C 0.44652 0.88215 0.58912 0.0
C98 C 0.52342 0.81876 0.37042 0.0
C99 C 0.52068 0.80039 1.21146 0.0
C100 C 0.51453 0.76283 1.20188 0.0
C101 C 0.51053 0.74432 0.36706 0.0
C102 C 0.51371 0.76235 0.53343 0.0
C103 C 0.51955 0.79961 0.52698 0.0
O104 O 0.53118 0.93895 1.10034 0.0
O105 O 0.56446 0.97095 0.33519 0.0
O106 O 0.45092 0.94348 1.26694 0.0
O107 O 0.50115 0.95822 0.40963 0.0
C108 C 0.47652 0.96809 0.37197 0.0
O109 O 0.4803 0.90688 0.65172 0.0
O110 O 0.4469 0.8675 0.44082 0.0
O111 O 0.55815 0.88046 0.50092 0.0
O112 O 0.51434 0.87272 0.31552 0.0
H113 H 0.5261 0.81714 1.09568 0.0
H114 H 0.50318 0.71502 0.36541 0.0
H115 H 0.52392 0.81564 0.644 0.0
O116 O 0.57211 0.45911 1.03245 0.0
Tb117 Tb 0.55656 0.48391 1.24411 0.0
Eu118 Eu 0.60452 0.54193 0.50922 0.0
C119 C 0.56867 0.42549 1.05111 0.0
O120 O 0.58536 0.41374 0.94257 0.0
C121 C 0.57763 0.56586 1.16787 0.0
O122 O 0.62401 0.58762 0.71515 0.0
C123 C 0.66394 0.54286 0.37143 0.0
C124 C 0.626 0.62097 0.6972 0.0
O125 O 0.63891 0.64513 0.82602 0.0
C126 C 0.552 0.45272 0.5892 0.0
C127 C 0.69228 0.52962 0.37034 0.0
C128 C 0.70791 0.52688 1.21139 0.0
C129 C 0.73931 0.52072 1.20184 0.0
C130 C 0.75382 0.51672 0.36704 0.0
C131 C 0.73897 0.51989 0.53339 0.0
C132 C 0.70756 0.52574 0.52691 0.0
O133 O 0.57986 0.53737 1.10032 0.0
O134 O 0.58115 0.57066 0.33512 0.0
O135 O 0.49506 0.45712 1.26697 0.0
O136 O 0.53056 0.50735 0.40961 0.0
C137 C 0.49605 0.48272 0.37196 0.0
O138 O 0.56105 0.4865 0.65175 0.0
O139 O 0.56702 0.45309 0.4409 0.0
O140 O 0.66532 0.56435 0.50078 0.0
O141 O 0.62923 0.52053 0.3155 0.0
H142 H 0.69658 0.5323 1.0956 0.0
H143 H 0.77577 0.50937 0.36542 0.0
H144 H 0.69589 0.5301 0.64392 0.0
O145 O 0.10059 0.57831 1.03249 0.0
Tb146 Tb 0.06024 0.56277 1.24415 0.0
Eu147 Eu 0.05017 0.61072 0.50916 0.0
C148 C 0.13077 0.57488 1.05121 0.0
O149 O 0.15921 0.59157 0.94268 0.0
C150 C -0.00064 0.58382 1.16774 0.0
O151 O 0.02395 0.6302 0.71501 0.0
C152 C 0.10866 0.67016 0.37148 0.0
C153 C -0.00741 0.63218 0.69699 0.0
O154 O 0.98132 0.64508 0.82578 0.0
C155 C 0.08687 0.55822 0.58927 0.0
C156 C 0.15025 0.6985 0.3704 0.0
C157 C 0.16861 0.71413 1.21145 0.0
C158 C 0.20617 0.74553 1.20188 0.0
C159 C 0.22469 0.76003 0.36708 0.0
C160 C 0.20665 0.74518 0.53343 0.0
C161 C 0.16939 0.71377 0.52697 0.0
O162 O 0.03008 0.58605 1.10025 0.0
O163 O -0.00193 0.58735 0.33497 0.0
O164 O 0.02556 0.50126 1.26716 0.0
O165 O 0.01079 0.53675 0.40953 0.0
C166 C 0.00093 0.50225 0.37201 0.0
O167 O 0.06212 0.56724 0.65175 0.0
O168 O 0.10152 0.57325 0.44099 0.0
O169 O 0.08854 0.67152 0.50084 0.0
O170 O 0.09628 0.63546 0.31547 0.0
H171 H 0.15186 0.7028 1.09566 0.0
H172 H 0.25398 0.78197 0.36546 0.0
H173 H 0.15336 0.70211 0.64398 0.0
O174 O 0.86222 0.45909 1.20254 0.0
Tb175 Tb 0.90256 0.48391 0.99087 0.0
Eu176 Eu 0.91263 0.54192 0.7256 0.0
C177 C 0.83205 0.42546 1.18385 0.0
O178 O 0.80361 0.41369 1.29239 0.0
C179 C 0.96345 0.56585 1.06693 0.0
O180 O 0.93882 0.58761 0.51965 0.0
C181 C 0.85415 0.54285 0.86342 0.0
C182 C 0.97016 0.62096 0.53765 0.0
O183 O -0.01859 0.64513 0.40884 0.0
C184 C 0.87595 0.45272 0.64579 0.0
C185 C 0.81257 0.52962 0.86451 0.0
C186 C 0.7942 0.52688 1.02346 0.0
C187 C 0.75665 0.52073 1.03301 0.0
C188 C 0.73813 0.51672 0.86781 0.0
C189 C 0.75616 0.5199 0.70146 0.0
C190 C 0.79342 0.52574 0.70793 0.0
O191 O 0.93274 0.53738 1.13455 0.0
O192 O 0.96475 0.57064 0.89967 0.0
O193 O 0.93723 0.45708 0.96794 0.0
O194 O 0.95201 0.5073 0.82547 0.0
C195 C 0.96185 0.48263 0.86283 0.0
O196 O 0.90068 0.48648 0.58313 0.0
O197 O 0.86128 0.45309 0.79403 0.0
O198 O 0.87427 0.56435 0.73407 0.0
O199 O 0.86653 0.52053 0.91933 0.0
H200 H 0.81095 0.5323 1.13925 0.0
H201 H 0.70883 0.50936 0.86943 0.0
H202 H 0.80945 0.5301 0.59093 0.0
O203 O 0.39074 0.8684 1.20255 0.0
Tb204 Tb 0.40626 0.90875 0.99087 0.0
Eu205 Eu 0.35833 0.91885 0.72565 0.0
C206 C 0.39419 0.83822 1.18386 0.0
O207 O 0.37751 0.80978 1.29239 0.0
C208 C 0.38523 0.96965 1.06702 0.0
O209 O 0.33884 0.94504 0.51965 0.0
C210 C 0.2989 0.86036 0.86339 0.0
C211 C 0.33682 0.97638 0.53764 0.0
O212 O 0.32391 -0.01236 0.40881 0.0
C213 C 0.41084 0.88216 0.64584 0.0
C214 C 0.27055 0.81877 0.86451 0.0
C215 C 0.25492 0.80041 1.02346 0.0
C216 C 0.2235 0.76285 1.03304 0.0
C217 C 0.20899 0.74434 0.86786 0.0
C218 C 0.22385 0.76237 0.70149 0.0
C219 C 0.25527 0.79963 0.70794 0.0
O220 O 0.38299 0.93893 1.13463 0.0
O221 O 0.38172 0.97095 0.89976 0.0
O222 O 0.46776 0.9434 0.96782 0.0
O223 O 0.43232 0.95822 0.82553 0.0
C224 C 0.46683 0.96805 0.86281 0.0
O225 O 0.40181 0.9069 0.58319 0.0
O226 O 0.39579 0.86748 0.79406 0.0
O227 O 0.29754 0.88049 0.73404 0.0
O228 O 0.33361 0.87272 0.91935 0.0
H229 H 0.26625 0.81716 1.13924 0.0
H230 H 0.18704 0.71505 0.8695 0.0
H231 H 0.26694 0.81566 0.59093 0.0
O232 O 0.50994 0.39692 1.20268 0.0
Tb233 Tb 0.48512 0.41245 0.99093 0.0
Eu234 Eu 0.42711 0.36455 0.72567 0.0
C235 C 0.54356 0.40037 1.18404 0.0
O236 O 0.55533 0.38369 1.29262 0.0
C237 C 0.4032 0.39143 1.06703 0.0
O238 O 0.38142 0.34505 0.51967 0.0
C239 C 0.42616 0.3051 0.86332 0.0
C240 C 0.34806 0.34302 0.53768 0.0
O241 O 0.32388 0.33011 0.40886 0.0
C242 C 0.5163 0.41704 0.64593 0.0
C243 C 0.43939 0.27675 0.86445 0.0
C244 C 0.44213 0.26112 1.02343 0.0
C245 C 0.44828 0.22971 1.03305 0.0
C246 C 0.45228 0.2152 0.86789 0.0
C247 C 0.4491 0.23005 0.70151 0.0
C248 C 0.44326 0.26147 0.70791 0.0
O249 O 0.43167 0.38919 1.13467 0.0
O250 O 0.39838 0.38792 0.89977 0.0
O251 O 0.51198 0.47395 0.96783 0.0
O252 O 0.46172 0.43852 0.82555 0.0
C253 C 0.48641 0.47303 0.8628 0.0
O254 O 0.48254 0.40803 0.58325 0.0
O255 O 0.51592 0.40198 0.79416 0.0
O256 O 0.40468 0.30375 0.73391 0.0
O257 O 0.44848 0.33979 0.91941 0.0
H258 H 0.43672 0.27245 1.13919 0.0
H259 H 0.45963 0.19325 0.86957 0.0
H260 H 0.43889 0.27314 0.59087 0.0
O261 O 0.10061 0.51615 1.20282 0.0
Tb262 Tb 0.06026 0.49133 0.99106 0.0
Eu263 Eu 0.05019 0.43332 0.72578 0.0
C264 C 0.13078 0.54977 1.18418 0.0
O265 O 0.15922 0.56154 1.29278 0.0
C266 C -0.0006 0.40939 1.0672 0.0
O267 O 0.02398 0.38762 0.51987 0.0
C268 C 0.10871 0.43239 0.8633 0.0
C269 C -0.00735 0.35426 0.5379 0.0
O270 O 0.98138 0.33008 0.4091 0.0
C271 C 0.08685 0.52252 0.64603 0.0
C272 C 0.15029 0.44563 0.86442 0.0
C273 C 0.16866 0.44837 1.02341 0.0
C274 C 0.20622 0.45452 1.03305 0.0
C275 C 0.22472 0.45851 0.86789 0.0
C276 C 0.20669 0.45533 0.7015 0.0
C277 C 0.16943 0.44949 0.70788 0.0
O278 O 0.03011 0.43788 1.13482 0.0
O279 O -0.0019 0.40457 0.89996 0.0
O280 O 0.02556 0.51813 0.96802 0.0
O281 O 0.01081 0.46789 0.82554 0.0
C282 C 0.00094 0.49252 0.86309 0.0
O283 O 0.06212 0.48875 0.58334 0.0
O284 O 0.10153 0.52215 0.7943 0.0
O285 O 0.08858 0.41092 0.73387 0.0
O286 O 0.09632 0.45468 0.91949 0.0
H287 H 0.15192 0.44296 1.13916 0.0
H288 H 0.25402 0.46586 0.86957 0.0
H289 H 0.1534 0.44512 0.59084 0.0
O290 O 0.57209 0.10679 1.20287 0.0
Tb291 Tb 0.55655 0.06645 0.99112 0.0
Eu292 Eu 0.60449 0.05638 0.72579 0.0
C293 C 0.56864 0.13697 1.18424 0.0
O294 O 0.58532 0.1654 1.29284 0.0
C295 C 0.57762 0.00557 1.06719 0.0
O296 O 0.62396 0.03016 0.51995 0.0
C297 C 0.66394 0.11489 0.86337 0.0
C298 C 0.62598 -0.00118 0.53799 0.0
O299 O 0.63889 0.98755 0.40923 0.0
C300 C 0.55196 0.09307 0.64605 0.0
C301 C 0.69229 0.15647 0.86447 0.0
C302 C 0.70792 0.17484 1.02344 0.0
C303 C 0.73933 0.2124 1.03305 0.0
C304 C 0.75384 0.23091 0.86788 0.0
C305 C 0.73899 0.21287 0.70151 0.0
C306 C 0.70757 0.17562 0.70792 0.0
O307 O 0.57986 0.03629 1.13482 0.0
O308 O 0.58113 0.00428 0.89995 0.0
O309 O 0.49505 0.03173 0.96821 0.0
O310 O 0.53054 0.01702 0.82554 0.0
C311 C 0.49604 0.00713 0.86318 0.0
O312 O 0.561 0.06834 0.58335 0.0
O313 O 0.56701 0.10773 0.79433 0.0
O314 O 0.66528 0.09476 0.73394 0.0
O315 O 0.62926 0.1025 0.91952 0.0
H316 H 0.69658 0.1581 1.13921 0.0
H317 H 0.77579 0.2602 0.86954 0.0
H318 H 0.6959 0.15958 0.59089 0.0
O319 O 0.45295 0.5783 1.20273 0.0
Tb320 Tb 0.47773 0.56275 0.99102 0.0
Eu321 Eu 0.53574 0.6107 0.72572 0.0
C322 C 0.41933 0.57487 1.18409 0.0
O323 O 0.40758 0.59155 1.29267 0.0
C324 C 0.55967 0.58382 1.0671 0.0
O325 O 0.58143 0.63018 0.51986 0.0
C326 C 0.53668 0.67014 0.86342 0.0
C327 C 0.61478 0.63218 0.53787 0.0
O328 O 0.63895 0.64509 0.40908 0.0
C329 C 0.44653 0.55817 0.64594 0.0
C330 C 0.52344 0.69848 0.86452 0.0
C331 C 0.5207 0.7141 1.02347 0.0
C332 C 0.51454 0.7455 1.03303 0.0
C333 C 0.51053 0.76001 0.86784 0.0
C334 C 0.51371 0.74516 0.70148 0.0
C335 C 0.51956 0.71375 0.70794 0.0
O336 O 0.53121 0.58606 1.13471 0.0
O337 O 0.56448 0.58733 0.89985 0.0
O338 O 0.45094 0.50125 0.96818 0.0
O339 O 0.50115 0.53674 0.82547 0.0
C340 C 0.47653 0.50224 0.86315 0.0
O341 O 0.4803 0.56722 0.58325 0.0
O342 O 0.44691 0.57321 0.79421 0.0
O343 O 0.55816 0.67149 0.73403 0.0
O344 O 0.51438 0.63544 0.91946 0.0
H345 H 0.52611 0.70277 1.13926 0.0
H346 H 0.50317 0.78195 0.86947 0.0
H347 H 0.52393 0.70208 0.59093 0.0
loop_
_geom_bond_atom_site_label_1
_geom_bond_atom_site_label_2
_geom_bond_distance
_geom_bond_site_symmetry_2
_ccdc_geom_bond_type
O0 Tb1 2.292 . S
O0 C3 1.255 . S
Tb1 O0 2.292 . S
Tb1 O17 2.326 . S
Tb1 O19 2.500 . S
Tb1 O20 2.473 1_556 S
Tb1 O23 2.324 1_556 S
Eu2 O6 2.292 . S
Eu2 C7 2.852 . S
Eu2 O18 2.324 1_554 S
Eu2 O22 2.326 . S
Eu2 O24 2.500 . S
Eu2 O25 2.473 . S
C3 O0 1.255 . S
C3 O4 1.247 . S
O4 C3 1.247 . S
C5 O17 1.242 . S
C5 O18 1.258 . S
O6 Eu2 2.292 . S
O6 C8 1.255 . S
C7 Eu2 2.852 . S
C7 C11 1.503 . S
C7 O24 1.273 . S
C7 O25 1.257 . S
C8 O6 1.255 . S
C8 O9 1.247 1_545 S
O9 C8 1.247 1_565 S
C10 O22 1.242 . S
C10 O23 1.258 . S
C11 C7 1.503 . S
C11 C12 1.379 . S
C11 C16 1.392 . S
C12 C11 1.379 . S
C12 C13 1.404 . S
C12 H26 0.929 1_554 S
C13 C12 1.404 . S
C13 C14 1.389 . S
C14 C13 1.389 . S
C14 C15 1.399 . S
C14 H27 0.931 . S
C15 C14 1.399 . S
C15 C16 1.390 . S
C16 C11 1.392 . S
C16 C15 1.390 . S
C16 H28 0.929 . S
O17 Tb1 2.326 . S
O17 C5 1.242 . S
O18 Eu2 2.324 1_556 S
O18 C5 1.258 . S
O19 Tb1 2.500 . S
O19 C21 1.273 1_545 S
O20 Tb1 2.473 1_554 S
O20 C21 1.257 1_544 S
C21 O19 1.273 1_565 S
C21 O20 1.257 1_566 S
O22 Eu2 2.326 . S
O22 C10 1.242 . S
O23 Tb1 2.324 1_554 S
O23 C10 1.258 . S
O24 Eu2 2.500 . S
O24 C7 1.273 . S
O25 Eu2 2.473 . S
O25 C7 1.257 . S
H26 C12 0.929 1_556 S
H27 C14 0.931 . S
H28 C16 0.929 . S
O29 Tb30 2.292 . S
O29 C32 1.255 . S
Tb30 O29 2.292 . S
Tb30 O46 2.326 . S
Tb30 O48 2.500 . S
Tb30 O49 2.473 1_556 S
Tb30 O52 2.324 1_556 S
Eu31 O35 2.292 . S
Eu31 C36 2.852 . S
Eu31 O47 2.324 1_554 S
Eu31 O51 2.326 . S
Eu31 O53 2.500 . S
Eu31 O54 2.473 . S
C32 O29 1.255 . S
C32 O33 1.247 . S
O33 C32 1.247 . S
C34 O46 1.242 . S
C34 O47 1.258 . S
O35 Eu31 2.292 . S
O35 C37 1.255 . S
C36 Eu31 2.852 . S
C36 C40 1.503 . S
C36 O53 1.273 . S
C36 O54 1.257 . S
C37 O35 1.255 . S
C37 O38 1.247 . S
O38 C37 1.247 . S
C39 O51 1.242 . S
C39 O52 1.258 . S
C40 C36 1.503 . S
C40 C41 1.379 . S
C40 C45 1.392 . S
C41 C40 1.379 . S
C41 C42 1.404 . S
C41 H55 0.929 1_554 S
C42 C41 1.404 . S
C42 C43 1.389 . S
C43 C42 1.389 . S
C43 C44 1.399 . S
C43 H56 0.931 . S
C44 C43 1.399 . S
C44 C45 1.390 . S
C45 C40 1.392 . S
C45 C44 1.390 . S
C45 H57 0.929 . S
O46 Tb30 2.326 . S
O46 C34 1.242 . S
O47 Eu31 2.324 1_556 S
O47 C34 1.258 . S
O48 Tb30 2.500 . S
O48 C50 1.273 . S
O49 Tb30 2.473 1_554 S
O49 C50 1.257 1_554 S
C50 O48 1.273 . S
C50 O49 1.257 1_556 S
O51 Eu31 2.326 . S
O51 C39 1.242 . S
O52 Tb30 2.324 1_554 S
O52 C39 1.258 . S
O53 Eu31 2.500 . S
O53 C36 1.273 . S
O54 Eu31 2.473 . S
O54 C36 1.257 . S
H55 C41 0.929 1_556 S
H56 C43 0.931 . S
H57 C45 0.929 . S
O58 Tb59 2.292 . S
O58 C61 1.255 . S
Tb59 O58 2.292 . S
Tb59 O75 2.326 . S
Tb59 O77 2.500 . S
Tb59 O78 2.473 1_556 S
Tb59 O81 2.324 1_556 S
Eu60 O64 2.292 . S
Eu60 C65 2.852 . S
Eu60 O76 2.324 1_554 S
Eu60 O80 2.326 . S
Eu60 O82 2.500 . S
Eu60 O83 2.473 . S
C61 O58 1.255 . S
C61 O62 1.247 . S
O62 C61 1.247 . S
C63 O75 1.242 . S
C63 O76 1.258 . S
O64 Eu60 2.292 . S
O64 C66 1.255 . S
C65 Eu60 2.852 . S
C65 C69 1.503 . S
C65 O82 1.273 . S
C65 O83 1.257 . S
C66 O64 1.255 . S
C66 O67 1.247 1_655 S
O67 C66 1.247 1_455 S
C68 O80 1.242 . S
C68 O81 1.258 . S
C69 C65 1.503 . S
C69 C70 1.379 . S
C69 C74 1.392 . S
C70 C69 1.379 . S
C70 C71 1.404 . S
C70 H84 0.929 1_554 S
C71 C70 1.404 . S
C71 C72 1.389 . S
C72 C71 1.389 . S
C72 C73 1.399 . S
C72 H85 0.931 . S
C73 C72 1.399 . S
C73 C74 1.390 . S
C74 C69 1.392 . S
C74 C73 1.390 . S
C74 H86 0.929 . S
O75 Tb59 2.326 . S
O75 C63 1.242 . S
O76 Eu60 2.324 1_556 S
O76 C63 1.258 . S
O77 Tb59 2.500 . S
O77 C79 1.273 1_655 S
O78 Tb59 2.473 1_554 S
O78 C79 1.257 1_654 S
C79 O77 1.273 1_455 S
C79 O78 1.257 1_456 S
O80 Eu60 2.326 . S
O80 C68 1.242 . S
O81 Tb59 2.324 1_554 S
O81 C68 1.258 . S
O82 Eu60 2.500 . S
O82 C65 1.273 . S
O83 Eu60 2.473 . S
O83 C65 1.257 . S
H84 C70 0.929 1_556 S
H85 C72 0.931 . S
H86 C74 0.929 . S
O87 Tb88 2.292 . S
O87 C90 1.255 . S
Tb88 O87 2.292 . S
Tb88 O104 2.326 . S
Tb88 O106 2.500 . S
Tb88 O107 2.473 1_556 S
Tb88 O110 2.324 1_556 S
Eu89 O93 2.292 . S
Eu89 C94 2.852 . S
Eu89 O105 2.324 1_554 S
Eu89 O109 2.326 . S
Eu89 O111 2.500 . S
Eu89 O112 2.473 . S
C90 O87 1.255 . S
C90 O91 1.247 . S
O91 C90 1.247 . S
C92 O104 1.242 . S
C92 O105 1.258 . S
O93 Eu89 2.292 . S
O93 C95 1.255 . S
C94 Eu89 2.852 . S
C94 C98 1.503 . S
C94 O111 1.273 . S
C94 O112 1.257 . S
C95 O93 1.255 . S
C95 O96 1.247 1_565 S
O96 C95 1.247 1_545 S
C97 O109 1.242 . S
C97 O110 1.258 . S
C98 C94 1.503 . S
C98 C99 1.379 . S
C98 C103 1.392 . S
C99 C98 1.379 . S
C99 C100 1.404 . S
C99 H113 0.929 1_554 S
C100 C99 1.404 . S
C100 C101 1.389 . S
C101 C100 1.389 . S
C101 C102 1.399 . S
C101 H114 0.931 . S
C102 C101 1.399 . S
C102 C103 1.390 . S
C103 C98 1.392 . S
C103 C102 1.390 . S
C103 H115 0.929 . S
O104 Tb88 2.326 . S
O104 C92 1.242 . S
O105 Eu89 2.324 1_556 S
O105 C92 1.258 . S
O106 Tb88 2.500 . S
O106 C108 1.273 1_565 S
O107 Tb88 2.473 1_554 S
O107 C108 1.257 1_564 S
C108 O106 1.273 1_545 S
C108 O107 1.257 1_546 S
O109 Eu89 2.326 . S
O109 C97 1.242 . S
O110 Tb88 2.324 1_554 S
O110 C97 1.258 . S
O111 Eu89 2.500 . S
O111 C94 1.273 . S
O112 Eu89 2.473 . S
O112 C94 1.257 . S
H113 C99 0.929 1_556 S
H114 C101 0.931 . S
H115 C103 0.929 . S
O116 Tb117 2.292 . S
O116 C119 1.255 . S
Tb117 O116 2.292 . S
Tb117 O133 2.326 . S
Tb117 O135 2.500 . S
Tb117 O136 2.473 1_556 S
Tb117 O139 2.324 1_556 S
Eu118 O122 2.292 . S
Eu118 C123 2.852 . S
Eu118 O134 2.324 1_554 S
Eu118 O138 2.326 . S
Eu118 O140 2.500 . S
Eu118 O141 2.473 . S
C119 O116 1.255 . S
C119 O120 1.247 . S
O120 C119 1.247 . S
C121 O133 1.242 . S
C121 O134 1.258 . S
O122 Eu118 2.292 . S
O122 C124 1.255 . S
C123 Eu118 2.852 . S
C123 C127 1.503 . S
C123 O140 1.273 . S
C123 O141 1.257 . S
C124 O122 1.255 . S
C124 O125 1.247 . S
O125 C124 1.247 . S
C126 O138 1.242 . S
C126 O139 1.258 . S
C127 C123 1.503 . S
C127 C128 1.379 . S
C127 C132 1.392 . S
C128 C127 1.379 . S
C128 C129 1.404 . S
C128 H142 0.929 1_554 S
C129 C128 1.404 . S
C129 C130 1.389 . S
C130 C129 1.389 . S
C130 C131 1.399 . S
C130 H143 0.931 . S
C131 C130 1.399 . S
C131 C132 1.390 . S
C132 C127 1.392 . S
C132 C131 1.390 . S
C132 H144 0.929 . S
O133 Tb117 2.326 . S
O133 C121 1.242 . S
O134 Eu118 2.324 1_556 S
O134 C121 1.258 . S
O135 Tb117 2.500 . S
O135 C137 1.273 . S
O136 Tb117 2.473 1_554 S
O136 C137 1.257 1_554 S
C137 O135 1.273 . S
C137 O136 1.257 1_556 S
O138 Eu118 2.326 . S
O138 C126 1.242 . S
O139 Tb117 2.324 1_554 S
O139 C126 1.258 . S
O140 Eu118 2.500 . S
O140 C123 1.273 . S
O141 Eu118 2.473 . S
O141 C123 1.257 . S
H142 C128 0.929 1_556 S
H143 C130 0.931 . S
H144 C132 0.929 . S
O145 Tb146 2.292 . S
O145 C148 1.255 . S
Tb146 O145 2.292 . S
Tb146 O162 2.326 . S
Tb146 O164 2.500 . S
Tb146 O165 2.473 1_556 S
Tb146 O168 2.324 1_556 S
Eu147 O151 2.292 . S
Eu147 C152 2.852 . S
Eu147 O163 2.324 1_554 S
Eu147 O167 2.326 . S
Eu147 O169 2.500 . S
Eu147 O170 2.473 . S
C148 O145 1.255 . S
C148 O149 1.247 . S
O149 C148 1.247 . S
C150 O162 1.242 . S
C150 O163 1.258 . S
O151 Eu147 2.292 . S
O151 C153 1.255 . S
C152 Eu147 2.852 . S
C152 C156 1.503 . S
C152 O169 1.273 . S
C152 O170 1.257 . S
C153 O151 1.255 . S
C153 O154 1.247 1_455 S
O154 C153 1.247 1_655 S
C155 O167 1.242 . S
C155 O168 1.258 . S
C156 C152 1.503 . S
C156 C157 1.379 . S
C156 C161 1.392 . S
C157 C156 1.379 . S
C157 C158 1.404 . S
C157 H171 0.929 1_554 S
C158 C157 1.404 . S
C158 C159 1.389 . S
C159 C158 1.389 . S
C159 C160 1.399 . S
C159 H172 0.931 . S
C160 C159 1.399 . S
C160 C161 1.390 . S
C161 C156 1.392 . S
C161 C160 1.390 . S
C161 H173 0.929 . S
O162 Tb146 2.326 . S
O162 C150 1.242 . S
O163 Eu147 2.324 1_556 S
O163 C150 1.258 . S
O164 Tb146 2.500 . S
O164 C166 1.273 1_455 S
O165 Tb146 2.473 1_554 S
O165 C166 1.257 1_454 S
C166 O164 1.273 1_655 S
C166 O165 1.257 1_656 S
O167 Eu147 2.326 . S
O167 C155 1.242 . S
O168 Tb146 2.324 1_554 S
O168 C155 1.258 . S
O169 Eu147 2.500 . S
O169 C152 1.273 . S
O170 Eu147 2.473 . S
O170 C152 1.257 . S
H171 C157 0.929 1_556 S
H172 C159 0.931 . S
H173 C161 0.929 . S
O174 Tb175 2.292 . S
O174 C177 1.255 . S
Tb175 O174 2.292 . S
Tb175 O191 2.326 . S
Tb175 O193 2.500 . S
Tb175 O194 2.473 . S
Tb175 O197 2.324 . S
Eu176 O180 2.292 . S
Eu176 C181 2.852 . S
Eu176 O192 2.324 . S
Eu176 O196 2.326 . S
Eu176 O198 2.500 . S
Eu176 O199 2.473 . S
C177 O174 1.255 . S
C177 O178 1.247 . S
O178 C177 1.247 . S
C179 O191 1.242 . S
C179 O192 1.258 . S
O180 Eu176 2.292 . S
O180 C182 1.255 . S
C181 Eu176 2.852 . S
C181 C185 1.503 . S
C181 O198 1.273 . S
C181 O199 1.257 . S
C182 O180 1.255 . S
C182 O183 1.247 1_655 S
O183 C182 1.247 1_455 S
C184 O196 1.242 . S
C184 O197 1.258 . S
C185 C181 1.503 . S
C185 C186 1.379 . S
C185 C190 1.392 . S
C186 C185 1.379 . S
C186 C187 1.404 . S
C186 H200 0.929 . S
C187 C186 1.404 . S
C187 C188 1.389 . S
C188 C187 1.389 . S
C188 C189 1.399 . S
C188 H201 0.931 . S
C189 C188 1.399 . S
C189 C190 1.390 . S
C190 C185 1.392 . S
C190 C189 1.390 . S
C190 H202 0.929 . S
O191 Tb175 2.326 . S
O191 C179 1.242 . S
O192 Eu176 2.324 . S
O192 C179 1.258 . S
O193 Tb175 2.500 . S
O193 C195 1.273 1_655 S
O194 Tb175 2.473 . S
O194 C195 1.257 1_655 S
C195 O193 1.273 1_455 S
C195 O194 1.257 1_455 S
O196 Eu176 2.326 . S
O196 C184 1.242 . S
O197 Tb175 2.324 . S
O197 C184 1.258 . S
O198 Eu176 2.500 . S
O198 C181 1.273 . S
O199 Eu176 2.473 . S
O199 C181 1.257 . S
H200 C186 0.929 . S
H201 C188 0.931 . S
H202 C190 0.929 . S
O203 Tb204 2.292 . S
O203 C206 1.255 . S
Tb204 O203 2.292 . S
Tb204 O220 2.326 . S
Tb204 O222 2.500 . S
Tb204 O223 2.473 . S
Tb204 O226 2.324 . S
Eu205 O209 2.292 . S
Eu205 C210 2.852 . S
Eu205 O221 2.324 . S
Eu205 O225 2.326 . S
Eu205 O227 2.500 . S
Eu205 O228 2.473 . S
C206 O203 1.255 . S
C206 O207 1.247 . S
O207 C206 1.247 . S
C208 O220 1.242 . S
C208 O221 1.258 . S
O209 Eu205 2.292 . S
O209 C211 1.255 . S
C210 Eu205 2.852 . S
C210 C214 1.503 . S
C210 O227 1.273 . S
C210 O228 1.257 . S
C211 O209 1.255 . S
C211 O212 1.247 1_565 S
O212 C211 1.247 1_545 S
C213 O225 1.242 . S
C213 O226 1.258 . S
C214 C210 1.503 . S
C214 C215 1.379 . S
C214 C219 1.392 . S
C215 C214 1.379 . S
C215 C216 1.404 . S
C215 H229 0.929 . S
C216 C215 1.404 . S
C216 C217 1.389 . S
C217 C216 1.389 . S
C217 C218 1.399 . S
C217 H230 0.931 . S
C218 C217 1.399 . S
C218 C219 1.390 . S
C219 C214 1.392 . S
C219 C218 1.390 . S
C219 H231 0.929 . S
O220 Tb204 2.326 . S
O220 C208 1.242 . S
O221 Eu205 2.324 . S
O221 C208 1.258 . S
O222 Tb204 2.500 . S
O222 C224 1.273 1_565 S
O223 Tb204 2.473 . S
O223 C224 1.257 1_565 S
C224 O222 1.273 1_545 S
C224 O223 1.257 1_545 S
O225 Eu205 2.326 . S
O225 C213 1.242 . S
O226 Tb204 2.324 . S
O226 C213 1.258 . S
O227 Eu205 2.500 . S
O227 C210 1.273 . S
O228 Eu205 2.473 . S
O228 C210 1.257 . S
H229 C215 0.929 . S
H230 C217 0.931 . S
H231 C219 0.929 . S
O232 Tb233 2.292 . S
O232 C235 1.255 . S
Tb233 O232 2.292 . S
Tb233 O249 2.326 . S
Tb233 O251 2.500 . S
Tb233 O252 2.473 . S
Tb233 O255 2.324 . S
Eu234 O238 2.292 . S
Eu234 C239 2.852 . S
Eu234 O250 2.324 . S
Eu234 O254 2.326 . S
Eu234 O256 2.500 . S
Eu234 O257 2.473 . S
C235 O232 1.255 . S
C235 O236 1.247 . S
O236 C235 1.247 . S
C237 O249 1.242 . S
C237 O250 1.258 . S
O238 Eu234 2.292 . S
O238 C240 1.255 . S
C239 Eu234 2.852 . S
C239 C243 1.503 . S
C239 O256 1.273 . S
C239 O257 1.257 . S
C240 O238 1.255 . S
C240 O241 1.247 . S
O241 C240 1.247 . S
C242 O254 1.242 . S
C242 O255 1.258 . S
C243 C239 1.503 . S
C243 C244 1.379 . S
C243 C248 1.392 . S
C244 C243 1.379 . S
C244 C245 1.404 . S
C244 H258 0.929 . S
C245 C244 1.404 . S
C245 C246 1.389 . S
C246 C245 1.389 . S
C246 C247 1.399 . S
C246 H259 0.931 . S
C247 C246 1.399 . S
C247 C248 1.390 . S
C248 C243 1.392 . S
C248 C247 1.390 . S
C248 H260 0.929 . S
O249 Tb233 2.326 . S
O249 C237 1.242 . S
O250 Eu234 2.324 . S
O250 C237 1.258 . S
O251 Tb233 2.500 . S
O251 C253 1.273 . S
O252 Tb233 2.473 . S
O252 C253 1.257 . S
C253 O251 1.273 . S
C253 O252 1.257 . S
O254 Eu234 2.326 . S
O254 C242 1.242 . S
O255 Tb233 2.324 . S
O255 C242 1.258 . S
O256 Eu234 2.500 . S
O256 C239 1.273 . S
O257 Eu234 2.473 . S
O257 C239 1.257 . S
H258 C244 0.929 . S
H259 C246 0.931 . S
H260 C248 0.929 . S
O261 Tb262 2.292 . S
O261 C264 1.255 . S
Tb262 O261 2.292 . S
Tb262 O278 2.326 . S
Tb262 O280 2.500 . S
Tb262 O281 2.473 . S
Tb262 O284 2.324 . S
Eu263 O267 2.292 . S
Eu263 C268 2.852 . S
Eu263 O279 2.324 . S
Eu263 O283 2.326 . S
Eu263 O285 2.500 . S
Eu263 O286 2.473 . S
C264 O261 1.255 . S
C264 O265 1.247 . S
O265 C264 1.247 . S
C266 O278 1.242 . S
C266 O279 1.258 . S
O267 Eu263 2.292 . S
O267 C269 1.255 . S
C268 Eu263 2.852 . S
C268 C272 1.503 . S
C268 O285 1.273 . S
C268 O286 1.257 . S
C269 O267 1.255 . S
C269 O270 1.247 1_455 S
O270 C269 1.247 1_655 S
C271 O283 1.242 . S
C271 O284 1.258 . S
C272 C268 1.503 . S
C272 C273 1.379 . S
C272 C277 1.392 . S
C273 C272 1.379 . S
C273 C274 1.404 . S
C273 H287 0.929 . S
C274 C273 1.404 . S
C274 C275 1.389 . S
C275 C274 1.389 . S
C275 C276 1.399 . S
C275 H288 0.931 . S
C276 C275 1.399 . S
C276 C277 1.390 . S
C277 C272 1.392 . S
C277 C276 1.390 . S
C277 H289 0.929 . S
O278 Tb262 2.326 . S
O278 C266 1.242 . S
O279 Eu263 2.324 . S
O279 C266 1.258 . S
O280 Tb262 2.500 . S
O280 C282 1.273 1_455 S
O281 Tb262 2.473 . S
O281 C282 1.257 1_455 S
C282 O280 1.273 1_655 S
C282 O281 1.257 1_655 S
O283 Eu263 2.326 . S
O283 C271 1.242 . S
O284 Tb262 2.324 . S
O284 C271 1.258 . S
O285 Eu263 2.500 . S
O285 C268 1.273 . S
O286 Eu263 2.473 . S
O286 C268 1.257 . S
H287 C273 0.929 . S
H288 C275 0.931 . S
H289 C277 0.929 . S
O290 Tb291 2.292 . S
O290 C293 1.255 . S
Tb291 O290 2.292 . S
Tb291 O307 2.326 . S
Tb291 O309 2.500 . S
Tb291 O310 2.473 . S
Tb291 O313 2.324 . S
Eu292 O296 2.292 . S
Eu292 C297 2.852 . S
Eu292 O308 2.324 . S
Eu292 O312 2.326 . S
Eu292 O314 2.500 . S
Eu292 O315 2.473 . S
C293 O290 1.255 . S
C293 O294 1.247 . S
O294 C293 1.247 . S
C295 O307 1.242 . S
C295 O308 1.258 . S
O296 Eu292 2.292 . S
O296 C298 1.255 . S
C297 Eu292 2.852 . S
C297 C301 1.503 . S
C297 O314 1.273 . S
C297 O315 1.257 . S
C298 O296 1.255 . S
C298 O299 1.247 1_545 S
O299 C298 1.247 1_565 S
C300 O312 1.242 . S
C300 O313 1.258 . S
C301 C297 1.503 . S
C301 C302 1.379 . S
C301 C306 1.392 . S
C302 C301 1.379 . S
C302 C303 1.404 . S
C302 H316 0.929 . S
C303 C302 1.404 . S
C303 C304 1.389 . S
C304 C303 1.389 . S
C304 C305 1.399 . S
C304 H317 0.931 . S
C305 C304 1.399 . S
C305 C306 1.390 . S
C306 C301 1.392 . S
C306 C305 1.390 . S
C306 H318 0.929 . S
O307 Tb291 2.326 . S
O307 C295 1.242 . S
O308 Eu292 2.324 . S
O308 C295 1.258 . S
O309 Tb291 2.500 . S
O309 C311 1.273 1_545 S
O310 Tb291 2.473 . S
O310 C311 1.257 1_545 S
C311 O309 1.273 1_565 S
C311 O310 1.257 1_565 S
O312 Eu292 2.326 . S
O312 C300 1.242 . S
O313 Tb291 2.324 . S
O313 C300 1.258 . S
O314 Eu292 2.500 . S
O314 C297 1.273 . S
O315 Eu292 2.473 . S
O315 C297 1.257 . S
H316 C302 0.929 . S
H317 C304 0.931 . S
H318 C306 0.929 . S
O319 Tb320 2.292 . S
O319 C322 1.255 . S
Tb320 O319 2.292 . S
Tb320 O336 2.326 . S
Tb320 O338 2.500 . S
Tb320 O339 2.473 . S
Tb320 O342 2.324 . S
Eu321 O325 2.292 . S
Eu321 C326 2.852 . S
Eu321 O337 2.324 . S
Eu321 O341 2.326 . S
Eu321 O343 2.500 . S
Eu321 O344 2.473 . S
C322 O319 1.255 . S
C322 O323 1.247 . S
O323 C322 1.247 . S
C324 O336 1.242 . S
C324 O337 1.258 . S
O325 Eu321 2.292 . S
O325 C327 1.255 . S
C326 Eu321 2.852 . S
C326 C330 1.503 . S
C326 O343 1.273 . S
C326 O344 1.257 . S
C327 O325 1.255 . S
C327 O328 1.247 . S
O328 C327 1.247 . S
C329 O341 1.242 . S
C329 O342 1.258 . S
C330 C326 1.503 . S
C330 C331 1.379 . S
C330 C335 1.392 . S
C331 C330 1.379 . S
C331 C332 1.404 . S
C331 H345 0.929 . S
C332 C331 1.404 . S
C332 C333 1.389 . S
C333 C332 1.389 . S
C333 C334 1.399 . S
C333 H346 0.931 . S
C334 C333 1.399 . S
C334 C335 1.390 . S
C335 C330 1.392 . S
C335 C334 1.390 . S
C335 H347 0.929 . S
O336 Tb320 2.326 . S
O336 C324 1.242 . S
O337 Eu321 2.324 . S
O337 C324 1.258 . S
O338 Tb320 2.500 . S
O338 C340 1.273 . S
O339 Tb320 2.473 . S
O339 C340 1.257 . S
C340 O338 1.273 . S
C340 O339 1.257 . S
O341 Eu321 2.326 . S
O341 C329 1.242 . S
O342 Tb320 2.324 . S
O342 C329 1.258 . S
O343 Eu321 2.500 . S
O343 C326 1.273 . S
O344 Eu321 2.473 . S
O344 C326 1.257 . S
H345 C331 0.929 . S
H346 C333 0.931 . S
H347 C335 0.929 . S
C8 C211 1.743 1_545 S
C37 C240 1.743 . S
C269 C66 1.743 1_455 S
C95 C298 1.743 1_565 S
C124 C327 1.743 . S
C182 C153 1.743 1_655 S
C295 C92 2.369 1_545 S
C121 C324 2.369 . S
C150 C179 2.369 1_455 S
C5 C208 2.369 1_545 S
C237 C34 2.369 . S
C266 C63 2.369 1_455 S
C108 C21 0.913 1_545 S
C50 C137 0.913 . S
C166 C79 0.913 1_655 S
C195 C282 0.913 1_455 S
C224 C311 0.913 1_545 S
C340 C253 0.913 . S
C10 C300 4.711 . S
C39 C329 4.712 . S
C68 C184 4.711 . S
C213 C97 4.711 . S
C242 C126 4.712 . S
C155 C271 4.711 . S
C206 C90 3.376 . S
C235 C119 3.376 . S
C264 C148 3.376 . S
C293 C3 3.376 . S
C322 C32 3.376 . S
C61 C177 3.376 . S
C15 C247 3.355 . S
C276 C44 3.355 . S
C305 C73 3.355 . S
C102 C334 3.355 . S
C189 C131 3.355 . S
C160 C218 3.355 . S
C332 C100 4.781 1_556 S
C187 C129 4.781 1_556 S
C216 C158 4.781 1_556 S
C245 C13 4.781 1_556 S
C274 C42 4.781 1_556 S
C303 C71 4.781 1_556 S
