# Generated by pormake.
# Topology uol, (4)-cn, num edge types: 1
# Building blocks:
#     Node 0, Type 0, BuildingBlock: ESEHIV_clean_sbu_0, # of connection points: 4
#     Node 1, Type 0, BuildingBlock: ESEHIV_clean_sbu_0, # of connection points: 4
#     Node 2, Type 0, BuildingBlock: ESEHIV_clean_sbu_0, # of connection points: 4
#     Node 3, Type 0, BuildingBlock: ESEHIV_clean_sbu_0, # of connection points: 4
#     Node 4, Type 0, BuildingBlock: ESEHIV_clean_sbu_0, # of connection points: 4
#     Node 5, Type 0, BuildingBlock: ESEHIV_clean_sbu_0, # of connection points: 4
#     Node 6, Type 0, BuildingBlock: ESEHIV_clean_sbu_0, # of connection points: 4
#     Node 7, Type 0, BuildingBlock: ESEHIV_clean_sbu_0, # of connection points: 4
#     Node 8, Type 0, BuildingBlock: ESEHIV_clean_sbu_0, # of connection points: 4
#     Node 9, Type 0, BuildingBlock: ESEHIV_clean_sbu_0, # of connection points: 4
#     Node 10, Type 0, BuildingBlock: ESEHIV_clean_sbu_0, # of connection points: 4
#     Node 11, Type 0, BuildingBlock: ESEHIV_clean_sbu_0, # of connection points: 4
#     Edge 12, Type (0, 0), BuildingBlock: UVAHIK_clean_linker_0, # of connection points: 2
#     Edge 13, Type (0, 0), BuildingBlock: UVAHIK_clean_linker_0, # of connection points: 2
#     Edge 14, Type (0, 0), BuildingBlock: UVAHIK_clean_linker_0, # of connection points: 2
#     Edge 15, Type (0, 0), BuildingBlock: UVAHIK_clean_linker_0, # of connection points: 2
#     Edge 16, Type (0, 0), BuildingBlock: UVAHIK_clean_linker_0, # of connection points: 2
#     Edge 17, Type (0, 0), BuildingBlock: UVAHIK_clean_linker_0, # of connection points: 2
#     Edge 18, Type (0, 0), BuildingBlock: UVAHIK_clean_linker_0, # of connection points: 2
#     Edge 19, Type (0, 0), BuildingBlock: UVAHIK_clean_linker_0, # of connection points: 2
#     Edge 20, Type (0, 0), BuildingBlock: UVAHIK_clean_linker_0, # of connection points: 2
#     Edge 21, Type (0, 0), BuildingBlock: UVAHIK_clean_linker_0, # of connection points: 2
#     Edge 22, Type (0, 0), BuildingBlock: UVAHIK_clean_linker_0, # of connection points: 2
#     Edge 23, Type (0, 0), BuildingBlock: UVAHIK_clean_linker_0, # of connection points: 2
#     Edge 24, Type (0, 0), BuildingBlock: UVAHIK_clean_linker_0, # of connection points: 2
#     Edge 25, Type (0, 0), BuildingBlock: UVAHIK_clean_linker_0, # of connection points: 2
#     Edge 26, Type (0, 0), BuildingBlock: UVAHIK_clean_linker_0, # of connection points: 2
#     Edge 27, Type (0, 0), BuildingBlock: UVAHIK_clean_linker_0, # of connection points: 2
#     Edge 28, Type (0, 0), BuildingBlock: UVAHIK_clean_linker_0, # of connection points: 2
#     Edge 29, Type (0, 0), BuildingBlock: UVAHIK_clean_linker_0, # of connection points: 2
#     Edge 30, Type (0, 0), BuildingBlock: UVAHIK_clean_linker_0, # of connection points: 2
#     Edge 31, Type (0, 0), BuildingBlock: UVAHIK_clean_linker_0, # of connection points: 2
#     Edge 32, Type (0, 0), BuildingBlock: UVAHIK_clean_linker_0, # of connection points: 2
#     Edge 33, Type (0, 0), BuildingBlock: UVAHIK_clean_linker_0, # of connection points: 2
#     Edge 34, Type (0, 0), BuildingBlock: UVAHIK_clean_linker_0, # of connection points: 2
#     Edge 35, Type (0, 0), BuildingBlock: UVAHIK_clean_linker_0, # of connection points: 2
# Relax obj value: 0.147
# Max RMSD: 0.224
# Mean RMSD: 0.224
data_MOF--net-uol--node1-ESEHIV_clean_sbu_0--edge1-UVAHIK_clean_linker_0
_symmetry_space_group_name_H-M    P1
_symmetry_Int_Tables_number       1
_symmetry_cell_setting            triclinic
loop_
_symmetry_equiv_pos_as_xyz
'x, y, z'
_cell_length_a     49.770095
_cell_length_b     49.341244
_cell_length_c     74.655019
_cell_angle_alpha  90.201564
_cell_angle_beta   90.00484
_cell_angle_gamma 119.87895
loop_
_atom_site_label
_atom_site_type_symbol
_atom_site_fract_x
_atom_site_fract_y
_atom_site_fract_z
_atom_type_partial_charge
Cu0 Cu 0.14652 0.3646 0.11779 0.0
N1 N 0.1797 0.38174 0.13393 0.0
N2 N 0.21923 0.38437 0.14967 0.0
C3 C 0.20131 0.37298 0.13493 0.0
C4 C 0.20861 0.40129 0.15828 0.0
C5 C 0.18422 0.39966 0.14851 0.0
O6 O 0.15744 0.34422 0.09903 0.0
C7 C 0.09524 0.34542 0.1402 0.0
O8 O 0.10685 0.37583 0.14125 0.0
H9 H 0.20245 0.35671 0.12567 0.0
H10 H 0.1698 0.40941 0.15227 0.0
N11 N 0.13926 0.39459 0.10682 0.0
N12 N 0.13777 0.43769 0.09882 0.0
C13 C 0.15085 0.42553 0.10981 0.0
C14 C 0.11826 0.38705 0.09368 0.0
C15 C 0.11723 0.4133 0.08876 0.0
C16 C 0.15719 0.31848 0.1011 0.0
O17 O 0.14662 0.30304 0.11616 0.0
H18 H 0.16837 0.43872 0.11979 0.0
H19 H 0.10424 0.36376 0.08825 0.0
O20 O 0.10903 0.33482 0.13051 0.0
H21 H 0.21706 0.41303 0.17102 0.0
H22 H 0.10182 0.41401 0.07879 0.0
Cu23 Cu 0.79347 0.15116 0.28414 0.0
N24 N 0.81816 0.17464 0.30331 0.0
N25 N 0.85922 0.20128 0.32114 0.0
C26 C 0.84885 0.18629 0.3053 0.0
C27 C 0.83397 0.19881 0.32941 0.0
C28 C 0.80869 0.18234 0.31838 0.0
O29 O 0.82048 0.16055 0.26322 0.0
C30 C 0.79231 0.09607 0.29371 0.0
O31 O 0.82134 0.11244 0.28856 0.0
H32 H 0.86311 0.18324 0.29546 0.0
H33 H 0.78501 0.17624 0.32116 0.0
N34 N 0.76399 0.1637 0.28004 0.0
N35 N 0.72174 0.16634 0.27268 0.0
C36 C 0.73424 0.14755 0.27432 0.0
C37 C 0.76999 0.19328 0.28234 0.0
C38 C 0.74421 0.19502 0.27772 0.0
C39 C 0.83677 0.18911 0.25861 0.0
O40 O 0.83403 0.21035 0.26778 0.0
H41 H 0.7222 0.12282 0.27122 0.0
H42 H 0.7917 0.21237 0.28717 0.0
O43 O 0.77474 0.10777 0.29172 0.0
H44 H 0.83378 0.20843 0.34243 0.0
H45 H 0.74194 0.21572 0.27833 0.0
Cu46 Cu 0.69236 0.81128 0.45043 0.0
N47 N 0.67693 0.82393 0.46943 0.0
N48 N 0.67641 0.85796 0.48904 0.0
C49 C 0.6832 0.8535 0.47218 0.0
C50 C 0.66528 0.83005 0.49721 0.0
C51 C 0.66558 0.80906 0.48505 0.0
O52 O 0.70452 0.84303 0.43194 0.0
C53 C 0.72563 0.7825 0.46396 0.0
O54 O 0.70018 0.75641 0.45995 0.0
H55 H 0.69542 0.87211 0.46261 0.0
H56 H 0.6604 0.78544 0.48783 0.0
N57 N 0.66227 0.7729 0.44075 0.0
N58 N 0.62032 0.72582 0.4365 0.0
C59 C 0.63462 0.75113 0.4474 0.0
C60 C 0.66535 0.76109 0.42513 0.0
C61 C 0.63965 0.73215 0.42248 0.0
C62 C 0.72578 0.85003 0.4204 0.0
O63 O 0.74193 0.83559 0.42071 0.0
H64 H 0.62551 0.75352 0.4601 0.0
H65 H 0.68514 0.77271 0.41634 0.0
O66 O 0.72753 0.80856 0.46013 0.0
H67 H 0.65923 0.8257 0.51125 0.0
H68 H 0.63541 0.7171 0.41099 0.0
Cu69 Cu 0.92393 0.69106 0.61234 0.0
N70 N 0.88925 0.67267 0.62724 0.0
N71 N 0.84871 0.66829 0.64264 0.0
C72 C 0.8681 0.68199 0.62872 0.0
C73 C 0.858 0.64945 0.65016 0.0
C74 C 0.88308 0.65233 0.64069 0.0
O75 O 0.91389 0.70989 0.59243 0.0
C76 C 0.9865 0.73705 0.62194 0.0
O77 O 0.99354 0.73477 0.60525 0.0
H78 H 0.86838 0.70015 0.62052 0.0
H79 H 0.89695 0.64181 0.64407 0.0
N80 N 0.93293 0.66143 0.60251 0.0
N81 N 0.93541 0.61816 0.59642 0.0
C82 C 0.92486 0.6322 0.60783 0.0
C83 C 0.94888 0.66588 0.58724 0.0
C84 C 0.95049 0.63944 0.58346 0.0
C85 C 0.91394 0.73571 0.59284 0.0
O86 O 0.92361 0.75317 0.60734 0.0
H87 H 0.91157 0.62145 0.61977 0.0
H88 H 0.95828 0.68686 0.57923 0.0
O89 O 0.95845 0.72113 0.62702 0.0
H90 H 0.84821 0.63551 0.66206 0.0
H91 H 0.9613 0.63598 0.57178 0.0
Cu92 Cu 0.24504 0.87768 0.79115 0.0
N93 N 0.2204 0.84801 0.80806 0.0
N94 N 0.17861 0.81525 0.82384 0.0
C95 C 0.18932 0.83373 0.80926 0.0
C96 C 0.20402 0.81803 0.8321 0.0
C97 C 0.22977 0.83825 0.8223 0.0
O98 O 0.21701 0.87684 0.77257 0.0
C99 C 0.25392 0.9316 0.80957 0.0
O100 O 0.2244 0.92011 0.80585 0.0
H101 H 0.17498 0.83773 0.79995 0.0
H102 H 0.25369 0.84582 0.82551 0.0
N103 N 0.2723 0.86615 0.78102 0.0
N104 N 0.31483 0.86427 0.77342 0.0
C105 C 0.30287 0.87793 0.78404 0.0
C106 C 0.26469 0.84418 0.76826 0.0
C107 C 0.29082 0.84305 0.7635 0.0
C108 C 0.22493 0.88456 0.75634 0.0
O109 O 0.25429 0.89713 0.75193 0.0
H110 H 0.31615 0.89649 0.79356 0.0
H111 H 0.24169 0.83018 0.76269 0.0
O112 O 0.26776 0.9176 0.80363 0.0
H113 H 0.20403 0.80642 0.84437 0.0
H114 H 0.29199 0.82754 0.75364 0.0
Cu115 Cu 0.34039 0.21952 0.94395 0.0
N116 N 0.3003 0.19381 0.93518 0.0
N117 N 0.25829 0.14594 0.93585 0.0
C118 C 0.28924 0.16286 0.93362 0.0
C119 C 0.24922 0.16733 0.93829 0.0
C120 C 0.27517 0.19683 0.93789 0.0
O121 O 0.35891 0.19259 0.94172 0.0
C122 C 0.32883 0.25294 0.96979 0.0
O123 O 0.3308 0.26905 0.9554 0.0
H124 H 0.30405 0.1527 0.93389 0.0
H125 H 0.27598 0.21836 0.94178 0.0
N126 N 0.36358 0.2565 0.93084 0.0
N127 N 0.40366 0.30318 0.92328 0.0
C128 C 0.39255 0.27913 0.93499 0.0
C129 C 0.3558 0.26644 0.91603 0.0
C130 C 0.38045 0.29519 0.91132 0.0
C131 C 0.37494 0.19466 0.9279 0.0
O132 O 0.38711 0.22054 0.91853 0.0
H133 H 0.40532 0.27746 0.94625 0.0
H134 H 0.33376 0.25372 0.90918 0.0
O135 O 0.33411 0.23021 0.96835 0.0
H136 H 0.22609 0.16205 0.94202 0.0
H137 H 0.38098 0.30913 0.90003 0.0
Cu138 Cu 0.68107 0.86902 0.7485 0.0
N139 N 0.67226 0.84004 0.73018 0.0
N140 N 0.67717 0.80595 0.71266 0.0
C141 C 0.68586 0.82255 0.72807 0.0
C142 C 0.6572 0.81328 0.70479 0.0
C143 C 0.65417 0.83431 0.71567 0.0
O144 O 0.7046 0.86046 0.76622 0.0
C145 C 0.73072 0.91673 0.73046 0.0
O146 O 0.73957 0.8957 0.73089 0.0
H147 H 0.70299 0.82322 0.73728 0.0
H148 H 0.6405 0.84535 0.71296 0.0
N149 N 0.64392 0.86223 0.75886 0.0
N150 N 0.60137 0.86409 0.76638 0.0
C151 C 0.62615 0.87521 0.75532 0.0
C152 C 0.62949 0.84196 0.77228 0.0
C153 C 0.60349 0.84324 0.77703 0.0
C154 C 0.70615 0.86682 0.78286 0.0
O155 O 0.69361 0.88304 0.78887 0.0
H156 H 0.63144 0.89263 0.74507 0.0
H157 H 0.63747 0.82728 0.77823 0.0
O158 O 0.70552 0.91059 0.73823 0.0
H159 H 0.64593 0.80446 0.69198 0.0
H160 H 0.58707 0.82953 0.78736 0.0
Cu161 Cu 0.79502 0.64278 0.91681 0.0
N162 N 0.82015 0.63992 0.89927 0.0
N163 N 0.86241 0.65144 0.88323 0.0
C164 C 0.85095 0.65891 0.89763 0.0
C165 C 0.8378 0.62674 0.87553 0.0
C166 C 0.81177 0.61962 0.88551 0.0
O167 O 0.82084 0.65984 0.93805 0.0
C168 C 0.7642 0.66275 0.89346 0.0
O169 O 0.75603 0.63575 0.88576 0.0
H170 H 0.86454 0.67824 0.90663 0.0
H171 H 0.78835 0.60108 0.88287 0.0
N172 N 0.76286 0.60264 0.92251 0.0
N173 N 0.71704 0.55929 0.92664 0.0
C174 C 0.73195 0.5884 0.91958 0.0
C175 C 0.76746 0.58182 0.93159 0.0
C176 C 0.73939 0.55519 0.93418 0.0
C177 C 0.83766 0.6889 0.94134 0.0
O178 O 0.83652 0.70923 0.93051 0.0
H179 H 0.72055 0.59928 0.91281 0.0
H180 H 0.78983 0.5859 0.9361 0.0
O181 O 0.78028 0.67007 0.90777 0.0
H182 H 0.83858 0.61453 0.86365 0.0
H183 H 0.73573 0.53425 0.94094 0.0
Cu184 Cu 0.15004 0.8122 0.07477 0.0
N185 N 0.17039 0.83384 0.05406 0.0
N186 N 0.18578 0.8685 0.03165 0.0
C187 C 0.17298 0.86083 0.04817 0.0
C188 C 0.1916 0.84534 0.02714 0.0
C189 C 0.18203 0.82404 0.04094 0.0
O190 O 0.15904 0.84314 0.09363 0.0
C191 C 0.09234 0.80452 0.06593 0.0
O192 O 0.1072 0.83464 0.06942 0.0
H193 H 0.16508 0.87418 0.0558 0.0
H194 H 0.18249 0.80236 0.04114 0.0
N195 N 0.16536 0.78588 0.08176 0.0
N196 N 0.17104 0.74465 0.0882 0.0
C197 C 0.15254 0.75446 0.08072 0.0
C198 C 0.19283 0.79612 0.08996 0.0
C199 C 0.19637 0.77089 0.09397 0.0
C200 C 0.15652 0.83647 0.11023 0.0
O201 O 0.14564 0.80724 0.11501 0.0
H202 H 0.12994 0.73912 0.07498 0.0
H203 H 0.20904 0.82038 0.09297 0.0
O204 O 0.10617 0.78906 0.06867 0.0
H205 H 0.20098 0.84315 1.0145 0.0
H206 H 0.21623 0.77184 0.10052 0.0
Cu207 Cu 0.3517 0.15155 0.24712 0.0
N208 N 0.36806 0.18383 0.23038 0.0
N209 N 0.37024 0.22293 0.21413 0.0
C210 C 0.35823 0.20464 0.22868 0.0
C211 C 0.38849 0.21319 0.20635 0.0
C212 C 0.38703 0.18899 0.21638 0.0
O213 O 0.33644 0.16741 0.26618 0.0
C214 C 0.31031 0.08654 0.23919 0.0
O215 O 0.321 0.08098 0.25398 0.0
H216 H 0.341 0.20494 0.2374 0.0
H217 H 0.39783 0.17525 0.21319 0.0
N218 N 0.38184 0.14348 0.25682 0.0
N219 N 0.42248 0.13636 0.26105 0.0
C220 C 0.40757 0.14545 0.24945 0.0
C221 C 0.38073 0.13307 0.27358 0.0
C222 C 0.40558 0.1286 0.27622 0.0
C223 C 0.31763 0.15324 0.2789 0.0
O224 O 0.30434 0.12269 0.28009 0.0
H225 H 0.41496 0.15287 0.23585 0.0
H226 H 0.3629 0.12887 0.28324 0.0
O227 O 0.31952 0.11471 0.23472 0.0
H228 H 0.40127 0.22221 0.19402 0.0
H229 H 0.41106 0.12073 0.28848 0.0
Cu230 Cu 0.24057 0.37457 0.42118 0.0
N231 N 0.21447 0.37267 0.40272 0.0
N232 N 0.17228 0.35755 0.38584 0.0
C233 C 0.18366 0.35344 0.4014 0.0
C234 C 0.19694 0.38027 0.37712 0.0
C235 C 0.2229 0.38951 0.38755 0.0
O236 O 0.21518 0.35832 0.44281 0.0
C237 C 0.2761 0.35685 0.40019 0.0
O238 O 0.28596 0.38473 0.39335 0.0
H239 H 0.17005 0.33633 0.41147 0.0
H240 H 0.24634 0.40722 0.38429 0.0
N241 N 0.27108 0.4168 0.42423 0.0
N242 N 0.31447 0.46192 0.4301 0.0
C243 C 0.30105 0.43035 0.42951 0.0
C244 C 0.26587 0.44065 0.42114 0.0
C245 C 0.29234 0.46831 0.42483 0.0
C246 C 0.20342 0.37369 0.44975 0.0
O247 O 0.2095 0.40033 0.44249 0.0
H248 H 0.31263 0.41745 0.43297 0.0
H249 H 0.24417 0.43808 0.41643 0.0
O250 O 0.25762 0.3484 0.41347 0.0
H251 H 0.1963 0.38976 0.36418 0.0
H252 H 0.29529 0.49148 0.42342 0.0
Cu253 Cu 0.89506 0.22933 0.58996 0.0
N254 N 0.86635 0.20957 0.57161 0.0
N255 N 0.83223 0.1709 0.55411 0.0
C256 C 0.8453 0.17889 0.57052 0.0
C257 C 0.84543 0.19758 0.54454 0.0
C258 C 0.86641 0.22144 0.55541 0.0
O259 O 0.88457 0.19906 0.60913 0.0
C260 C 0.95932 0.27005 0.58075 0.0
O261 O 0.95762 0.29119 0.59066 0.0
H262 H 0.84131 0.16234 0.58109 0.0
H263 H 0.88196 0.24537 0.55148 0.0
N264 N 0.89111 0.26246 0.59937 0.0
N265 N 0.88952 0.30664 0.60347 0.0
C266 C 0.8958 0.28936 0.59185 0.0
C267 C 0.88156 0.26285 0.61617 0.0
C268 C 0.88056 0.28991 0.61874 0.0
C269 C 0.88922 0.17594 0.60869 0.0
O270 O 0.90386 0.17263 0.59496 0.0
H271 H 0.90342 0.29598 0.57818 0.0
H272 H 0.87575 0.24459 0.62592 0.0
O273 O 0.93592 0.24264 0.57967 0.0
H274 H 0.84113 0.19942 0.5305 0.0
H275 H 0.87426 0.297 0.63105 0.0
C276 C 0.1779 0.70498 0.10461 0.0
C277 C 0.16557 0.7131 0.08995 0.0
C278 C 0.17439 0.67511 0.10592 0.0
C279 C 0.16201 0.60788 0.07835 0.0
H280 H 0.14175 0.56338 0.12349 0.0
C281 C 0.135 0.47993 0.0825 0.0
C282 C 0.14331 0.46945 0.09794 0.0
C283 C 0.1384 0.50978 0.08179 0.0
C284 C 0.14793 0.57563 0.11083 0.0
H285 H 0.13948 0.69586 0.0653 0.0
H286 H 0.13344 0.64351 0.06752 0.0
H287 H 0.14493 0.61429 0.12179 0.0
H288 H 0.16262 0.48311 0.12465 0.0
H289 H 0.16954 0.53569 0.12322 0.0
H290 H 0.16569 0.56977 0.06741 0.0
C291 C 0.14592 0.66044 0.07799 0.0
C292 C 0.14958 0.6048 0.10984 0.0
C293 C 0.14911 0.69031 0.07678 0.0
C294 C 0.15601 0.49024 0.11252 0.0
C295 C 0.15961 0.52034 0.11176 0.0
C296 C 0.16067 0.57889 0.07937 0.0
C297 C 0.15871 0.65254 0.09253 0.0
C298 C 0.15648 0.62124 0.09356 0.0
C299 C 0.15061 0.53048 0.09641 0.0
C300 C 0.15339 0.56215 0.09559 0.0
H301 H 0.19039 0.72184 0.11509 0.0
H302 H 0.1847 0.66994 0.11724 0.0
H303 H 0.16797 0.62014 0.06569 0.0
H304 H 0.12568 0.46505 0.07084 0.0
H305 H 0.13078 0.51632 0.06981 0.0
C306 C 0.68658 0.17966 0.25675 0.0
C307 C 0.69092 0.1585 0.26717 0.0
C308 C 0.65687 0.17464 0.25329 0.0
C309 C 0.57238 0.11598 0.2564 0.0
H310 H 0.56498 0.19054 0.25882 0.0
C311 C 0.45606 0.11384 0.2676 0.0
C312 C 0.45089 0.13567 0.25838 0.0
C313 C 0.48449 0.11465 0.26633 0.0
C314 C 0.56664 0.16951 0.25782 0.0
H315 H 0.66753 0.11485 0.28159 0.0
H316 H 0.61529 0.10623 0.27598 0.0
H317 H 0.61577 0.19514 0.26111 0.0
H318 H 0.47135 0.1749 0.24017 0.0
H319 H 0.52119 0.17643 0.23796 0.0
H320 H 0.52286 0.09038 0.25372 0.0
C321 C 0.63488 0.12652 0.27017 0.0
C322 C 0.59586 0.17211 0.25911 0.0
C323 C 0.66477 0.13139 0.27342 0.0
C324 C 0.47456 0.15773 0.24738 0.0
C325 C 0.50318 0.15874 0.24625 0.0
C326 C 0.54305 0.11337 0.25525 0.0
C327 C 0.63058 0.14853 0.26041 0.0
C328 C 0.59922 0.14541 0.25846 0.0
C329 C 0.50863 0.13748 0.25592 0.0
C330 C 0.53982 0.14012 0.25602 0.0
H331 H 0.70636 0.2005 0.25153 0.0
H332 H 0.65459 0.19163 0.24527 0.0
H333 H 0.57399 0.09492 0.2556 0.0
H334 H 0.43817 0.09628 0.27599 0.0
H335 H 0.48791 0.09806 0.27405 0.0
C336 C 0.58478 0.66933 0.43124 0.0
C337 C 0.59066 0.69784 0.43896 0.0
C338 C 0.55555 0.64258 0.4326 0.0
C339 C 0.47353 0.61905 0.43888 0.0
H340 H 0.46258 0.53633 0.44609 0.0
C341 C 0.35159 0.51231 0.44387 0.0
C342 C 0.34582 0.48495 0.43478 0.0
C343 C 0.38183 0.53681 0.44642 0.0
C344 C 0.46522 0.55921 0.44389 0.0
H345 H 0.57042 0.72025 0.45454 0.0
H346 H 0.51933 0.67348 0.457 0.0
H347 H 0.51462 0.58204 0.44692 0.0
H348 H 0.36726 0.46123 0.42187 0.0
H349 H 0.42046 0.50439 0.42601 0.0
H350 H 0.42447 0.5965 0.4354 0.0
C351 C 0.53738 0.67194 0.44976 0.0
C352 C 0.49507 0.58544 0.44442 0.0
C353 C 0.56674 0.6987 0.44849 0.0
C354 C 0.3711 0.482 0.42901 0.0
C355 C 0.40154 0.50676 0.4314 0.0
C356 C 0.44379 0.5929 0.43827 0.0
C357 C 0.53133 0.64363 0.44165 0.0
C358 C 0.49958 0.6157 0.44188 0.0
C359 C 0.40723 0.53483 0.43976 0.0
C360 C 0.43915 0.56258 0.44077 0.0
H361 H 0.60278 0.66768 0.42403 0.0
H362 H 0.5517 0.62128 0.42609 0.0
H363 H 0.47616 0.6419 0.43651 0.0
H364 H 0.33254 0.51497 0.44873 0.0
H365 H 0.38523 0.55758 0.45339 0.0
C366 C 0.90632 0.56317 0.60707 0.0
C367 C 0.931 0.58687 0.59732 0.0
C368 C 0.90157 0.53267 0.60729 0.0
C369 C 0.94121 0.48688 0.59808 0.0
H370 H 0.85736 0.41671 0.59612 0.0
C371 C 0.91523 0.35911 0.58939 0.0
C372 C 0.8924 0.33696 0.60076 0.0
C373 C 0.91949 0.38936 0.58804 0.0
C374 C 0.88092 0.43604 0.59679 0.0
H375 H 0.97055 0.59685 0.58061 0.0
H376 H 0.96181 0.5439 0.5806 0.0
H377 H 0.86594 0.46987 0.59627 0.0
H378 H 0.85524 0.32885 0.61899 0.0
H379 H 0.86269 0.38135 0.61673 0.0
H380 H 0.95614 0.45297 0.59854 0.0
C381 C 0.94623 0.54884 0.58824 0.0
C382 C 0.88586 0.46657 0.59695 0.0
C383 C 0.95102 0.57927 0.58805 0.0
C384 C 0.8733 0.34545 0.61028 0.0
C385 C 0.87737 0.3755 0.60885 0.0
C386 C 0.93627 0.45635 0.59784 0.0
C387 C 0.92137 0.52504 0.59778 0.0
C388 C 0.91607 0.49244 0.59767 0.0
C389 C 0.90077 0.398 0.5979 0.0
C390 C 0.90606 0.43052 0.59728 0.0
H391 H 0.89029 0.56797 0.61429 0.0
H392 H 0.88242 0.5151 0.61501 0.0
H393 H 0.96479 0.50613 0.59892 0.0
H394 H 0.93042 0.35336 0.58196 0.0
H395 H 0.93752 0.40603 0.57934 0.0
C396 C 0.56488 0.87409 0.78348 0.0
C397 C 0.577 0.87179 0.76694 0.0
C398 C 0.53903 0.87809 0.78428 0.0
C399 C 0.48715 0.8963 0.75668 0.0
H400 H 0.42869 0.85116 0.79464 0.0
C401 C 0.35883 0.86705 0.75651 0.0
C402 C 0.34637 0.87046 0.77271 0.0
C403 C 0.3887 0.87109 0.75591 0.0
C404 C 0.44493 0.86424 0.78409 0.0
H405 H 0.57216 0.87271 0.73821 0.0
H406 H 0.52618 0.87864 0.73944 0.0
H407 H 0.47726 0.8508 0.79314 0.0
H408 H 0.35574 0.88132 0.80093 0.0
H409 H 0.40795 0.88806 0.79996 0.0
H410 H 0.45381 0.90855 0.7473 0.0
C411 C 0.53705 0.87812 0.75189 0.0
C412 C 0.47296 0.86416 0.78324 0.0
C413 C 0.56336 0.87466 0.75113 0.0
C414 C 0.36476 0.87868 0.78825 0.0
C415 C 0.39453 0.88231 0.78771 0.0
C416 C 0.45886 0.89603 0.75742 0.0
C417 C 0.52413 0.87926 0.76851 0.0
C418 C 0.49454 0.88018 0.76952 0.0
C419 C 0.40672 0.87827 0.77155 0.0
C420 C 0.43742 0.87995 0.77113 0.0
H421 H 0.57529 0.87243 0.79587 0.0
H422 H 0.53052 0.87985 0.79732 0.0
H423 H 0.50324 0.9093 0.74607 0.0
H424 H 0.34537 0.86107 0.74427 0.0
H425 H 0.39733 0.86763 0.74329 0.0
C426 C 0.45268 0.33979 0.93894 0.0
C427 C 0.43409 0.33097 0.92341 0.0
C428 C 0.48257 0.36576 0.9389 0.0
C429 C 0.53445 0.43955 0.91562 0.0
H430 H 0.59932 0.42888 0.9373 0.0
C431 C 0.66565 0.53394 0.91161 0.0
C432 C 0.6843 0.53678 0.92644 0.0
C433 C 0.63453 0.51 0.91091 0.0
C434 C 0.5815 0.43255 0.93143 0.0
H435 H 0.43284 0.34355 0.89569 0.0
H436 H 0.48481 0.38911 0.89579 0.0
H437 H 0.54644 0.38542 0.93682 0.0
H438 H 0.68442 0.51808 0.95261 0.0
H439 H 0.63038 0.47716 0.95168 0.0
H440 H 0.56955 0.48692 0.91045 0.0
C441 C 0.47603 0.37574 0.908 0.0
C442 C 0.55112 0.4075 0.93111 0.0
C443 C 0.44614 0.34954 0.90797 0.0
C444 C 0.67085 0.51608 0.94083 0.0
C445 C 0.63982 0.49248 0.94024 0.0
C446 C 0.56492 0.46481 0.91608 0.0
C447 C 0.49475 0.3839 0.9234 0.0
C448 C 0.52715 0.41069 0.92331 0.0
C449 C 0.62134 0.48858 0.92511 0.0
C450 C 0.58885 0.46172 0.92413 0.0
H451 H 0.44423 0.32676 0.95124 0.0
H452 H 0.49616 0.37174 0.95111 0.0
H453 H 0.51646 0.44282 0.9096 0.0
H454 H 0.67544 0.54945 0.90028 0.0
H455 H 0.62115 0.50769 0.89899 0.0
C456 C 0.36312 0.2515 0.18895 0.0
C457 C 0.3619 0.24521 0.20738 0.0
C458 C 0.35226 0.27082 0.18232 0.0
C459 C 0.32956 0.32945 0.19587 0.0
H460 H 0.27807 0.29981 0.15333 0.0
C461 C 0.24568 0.3733 0.17438 0.0
C462 C 0.24134 0.37566 0.15596 0.0
C463 C 0.2642 0.36111 0.18034 0.0
C464 C 0.29279 0.30878 0.16505 0.0
H465 H 0.34982 0.25582 0.23336 0.0
H466 H 0.33037 0.28886 0.22182 0.0
H467 H 0.30369 0.272 0.16412 0.0
H468 H 0.25478 0.369 0.12942 0.0
H469 H 0.28715 0.34801 0.13976 0.0
H470 H 0.31808 0.36593 0.19694 0.0
C471 C 0.33983 0.27901 0.21245 0.0
C472 C 0.30754 0.29279 0.17125 0.0
C473 C 0.35067 0.25971 0.21907 0.0
C474 C 0.25713 0.36693 0.14368 0.0
C475 C 0.27565 0.35482 0.14962 0.0
C476 C 0.31477 0.34546 0.18966 0.0
C477 C 0.33998 0.2844 0.19396 0.0
C478 C 0.32592 0.30274 0.18682 0.0
C479 C 0.27887 0.35107 0.16802 0.0
C480 C 0.296 0.33518 0.17424 0.0
H481 H 0.37147 0.24069 0.17953 0.0
H482 H 0.35316 0.27482 0.16803 0.0
H483 H 0.34388 0.33803 0.20777 0.0
H484 H 0.23366 0.37951 0.1842 0.0
H485 H 0.26593 0.35832 0.19461 0.0
C486 C 0.8964 0.21944 0.34641 0.0
C487 C 0.89056 0.21639 0.32787 0.0
C488 C 0.92676 0.23406 0.35293 0.0
C489 C 1.00687 0.2566 0.33982 0.0
H490 H 0.02948 0.31314 0.3804 0.0
C491 C 0.13389 0.33753 0.36121 0.0
C492 C 0.14061 0.34088 0.37965 0.0
C493 C 0.10326 0.32162 0.35516 0.0
C494 C 0.02345 0.29713 0.3692 0.0
H495 H 0.91217 0.22682 0.30168 0.0
H496 H 0.96511 0.25241 0.31304 0.0
H497 H 0.97631 0.28692 0.36928 0.0
H498 H 0.12027 0.33022 0.40618 0.0
H499 H 0.06673 0.30209 0.39561 0.0
H500 H 0.05406 0.26699 0.33966 0.0
C501 C 0.94618 0.243 0.32254 0.0
C502 C 0.99297 0.28209 0.36282 0.0
C503 C 0.91581 0.22833 0.31602 0.0
C504 C 0.11592 0.32783 0.3919 0.0
C505 C 0.08524 0.312 0.38584 0.0
C506 C 0.03734 0.27167 0.34618 0.0
C507 C 0.95202 0.24603 0.34108 0.0
C508 C 0.98434 0.26172 0.34801 0.0
C509 C 0.07857 0.30873 0.3674 0.0
C510 C 0.04601 0.29219 0.3609 0.0
H511 H 0.8775 0.21009 0.35591 0.0
H512 H 0.93043 0.23557 0.36729 0.0
H513 H 1.00088 0.24065 0.32858 0.0
H514 H 0.15232 0.34696 0.35141 0.0
H515 H 0.09891 0.31978 0.34087 0.0
C516 C 0.81787 0.13077 0.53057 0.0
C517 C 0.81253 0.13964 0.54751 0.0
C518 C 0.80048 0.09976 0.52475 0.0
C519 C 0.72765 0.02871 0.52717 0.0
H520 H 0.77305 0.98475 0.51888 0.0
C521 C 0.68322 0.911 0.4881 0.0
C522 C 0.68609 0.8878 0.49734 0.0
C523 C 0.69562 0.94112 0.4953 0.0
C524 C 0.76012 0.99676 0.5212 0.0
H525 H 0.78429 0.12349 0.57138 0.0
H526 H 0.75294 0.06917 0.56087 0.0
H527 H 0.80083 0.03949 0.52873 0.0
H528 H 0.70389 0.87774 0.52135 0.0
H529 H 0.72638 0.93074 0.53372 0.0
H530 H 0.68707 0.98618 0.519 0.0
C531 C 0.7709 0.08624 0.55228 0.0
C532 C 0.77598 0.02799 0.52673 0.0
C533 C 0.78881 0.11714 0.55829 0.0
C534 C 0.70102 0.89508 0.51408 0.0
C535 C 0.71404 0.92537 0.52108 0.0
C536 C 0.71186 0.99762 0.5212 0.0
C537 C 0.77697 0.07725 0.53559 0.0
C538 C 0.75988 0.04418 0.52979 0.0
C539 C 0.71174 0.94871 0.51166 0.0
C540 C 0.72799 0.98138 0.51825 0.0
H541 H 0.83625 0.14759 0.5221 0.0
H542 H 0.80553 0.09327 0.51183 0.0
H543 H 0.71485 0.04085 0.52943 0.0
H544 H 0.67183 0.90588 0.47517 0.0
H545 H 0.69373 0.95882 0.48776 0.0
C546 C 0.81237 0.68826 0.6381 0.0
C547 C 0.82626 0.6761 0.64951 0.0
C548 C 0.79279 0.69849 0.64497 0.0
C549 C 0.77761 0.72812 0.68681 0.0
H550 H 0.70385 0.71592 0.66208 0.0
C551 C 0.69175 0.784 0.687 0.0
C552 C 0.68917 0.78685 0.70558 0.0
C553 C 0.70574 0.76754 0.68024 0.0
C554 C 0.72453 0.71975 0.66907 0.0
H555 H 0.82958 0.66442 0.67711 0.0
H556 H 0.79511 0.68176 0.68902 0.0
H557 H 0.73304 0.69217 0.65011 0.0
H558 H 0.69772 0.77318 0.73157 0.0
H559 H 0.72177 0.74426 0.71983 0.0
H560 H 0.7696 0.75612 0.70557 0.0
C561 C 0.79969 0.68374 0.67476 0.0
C562 C 0.74123 0.7061 0.66222 0.0
C563 C 0.8192 0.67344 0.66789 0.0
C564 C 0.6999 0.77194 0.71721 0.0
C565 C 0.71374 0.7554 0.71046 0.0
C566 C 0.76101 0.7418 0.69362 0.0
C567 C 0.78666 0.69687 0.66344 0.0
C568 C 0.76804 0.71022 0.67098 0.0
C569 C 0.71734 0.75343 0.6919 0.0
C570 C 0.7343 0.73789 0.68483 0.0
H571 H 0.81697 0.69027 0.62386 0.0
H572 H 0.78328 0.70863 0.63589 0.0
H573 H 0.79848 0.73229 0.69371 0.0
H574 H 0.68402 0.79545 0.67769 0.0
H575 H 0.70842 0.76681 0.66588 0.0
C576 C 0.90125 0.66784 0.85897 0.0
C577 C 0.89417 0.66696 0.87725 0.0
C578 C 0.93206 0.68344 0.85316 0.0
C579 C 1.01143 0.74313 0.86774 0.0
H580 H 0.03672 0.70984 0.82817 0.0
C581 C 0.13986 0.79253 0.84813 0.0
C582 C 0.14688 0.79762 0.82978 0.0
C583 C 0.10907 0.77621 0.85391 0.0
C584 C 0.02994 0.71954 0.83915 0.0
H585 H 0.91395 0.68108 0.90382 0.0
H586 H 0.96762 0.70773 0.8938 0.0
H587 H 0.98307 0.6819 0.83837 0.0
H588 H 0.12703 0.78895 0.80311 0.0
H589 H 0.07323 0.76039 0.81319 0.0
H590 H 0.05849 0.78054 0.86864 0.0
C591 C 0.94942 0.69712 0.88384 0.0
C592 C 0.99915 0.70359 0.84498 0.0
C593 C 0.91862 0.68175 0.88962 0.0
C594 C 0.12238 0.78566 0.81733 0.0
C595 C 0.09159 0.76907 0.8231 0.0
C596 C 0.04225 0.75892 0.862 0.0
C597 C 0.95658 0.69833 0.86552 0.0
C598 C 0.98945 0.7152 0.85934 0.0
C599 C 0.08458 0.76433 0.84146 0.0
C600 C 0.05185 0.74734 0.84763 0.0
H601 H 0.88294 0.65704 0.8491 0.0
H602 H 0.93658 0.6843 0.83893 0.0
H603 H 1.00476 0.75315 0.8786 0.0
H604 H 0.15816 0.80168 0.85806 0.0
H605 H 0.10441 0.77272 0.86814 0.0
C606 C 0.21062 0.90404 1.00587 0.0
C607 C 0.19055 0.89474 0.0207 0.0
C608 C 0.21496 0.92909 0.99513 0.0
C609 C 0.1806 0.97916 0.98399 0.0
H610 H 0.26304 0.0351 0.96591 0.0
C611 C 0.22055 0.1029 0.95512 0.0
C612 C 0.24219 0.11343 0.94104 0.0
C613 C 0.21057 0.07363 0.96295 0.0
C614 C 0.23975 0.01946 0.9706 0.0
H615 H 0.15902 0.90489 0.03556 0.0
H616 H 0.16747 0.94907 0.01732 0.0
H617 H 0.25391 0.99021 0.98374 0.0
H618 H 0.26806 0.10027 0.92315 0.0
H619 H 0.25061 0.04927 0.93672 0.0
H620 H 0.1668 1.00921 0.97118 0.0
C621 C 0.17946 0.93657 1.01377 0.0
C622 C 0.23448 0.99362 0.98086 0.0
C623 C 0.17497 0.91137 0.02445 0.0
C624 C 0.2517 0.093 0.93412 0.0
C625 C 0.24185 0.06387 0.94197 0.0
C626 C 0.18594 1.0052 0.97381 0.0
C627 C 0.19954 0.94582 0.99896 0.0
C628 C 0.20485 0.9731 0.98774 0.0
C629 C 0.22205 0.0543 0.9569 0.0
C630 C 0.21561 0.02568 0.967 0.0
H631 H 0.22329 0.89217 1.00254 0.0
H632 H 0.23028 0.93517 0.98372 0.0
H633 H 0.15736 0.96365 0.9888 0.0
H634 H 0.21296 0.11806 0.96094 0.0
H635 H 0.19538 0.06703 0.97446 0.0
C636 C 0.18753 0.32708 0.07278 0.0
C637 C 0.17246 0.30828 0.08768 0.0
C638 C 0.20392 0.31884 0.06082 0.0
C639 C 0.2417 0.27031 0.05673 0.0
H640 H 0.24201 0.28897 1.00632 0.0
C641 C 0.30043 0.23576 0.99933 0.0
C642 C 0.3161 0.259 0.98634 0.0
C643 C 0.28351 0.24026 1.01297 0.0
C644 C 0.24235 0.28378 0.02038 0.0
H645 H 0.1625 0.26567 0.1015 0.0
H646 H 0.19056 0.25093 0.08039 0.0
H647 H 0.20976 0.29847 0.02691 0.0
H648 H 0.32826 0.30597 0.97832 0.0
H649 H 0.29924 0.31373 1.00196 0.0
H650 H 0.27428 0.25533 0.04991 0.0
C651 C 0.19015 0.27238 0.07812 0.0
C652 C 0.22388 0.28932 0.03222 0.0
C653 C 0.1738 0.28071 0.09015 0.0
C654 C 0.31613 0.28741 0.98796 0.0
C655 C 0.29933 0.29183 1.00146 0.0
C656 C 0.26009 0.26453 0.04478 0.0
C657 C 0.20559 0.29144 0.06334 0.0
C658 C 0.22369 0.28324 0.05063 0.0
C659 C 0.28197 0.26798 1.01377 0.0
C660 C 0.26106 0.27181 0.02652 0.0
H661 H 0.18726 0.34861 0.07051 0.0
H662 H 0.21592 0.33445 0.04981 0.0
H663 H 0.24235 0.26553 0.07081 0.0
H664 H 0.29984 0.21357 0.99839 0.0
H665 H 0.27042 0.22148 0.02232 0.0
C666 C 0.87287 0.23001 0.23738 0.0
C667 C 0.85956 0.19921 0.24374 0.0
C668 C 0.89559 0.24088 0.22413 0.0
C669 C 0.95616 0.22848 0.20431 0.0
H670 H 0.95697 0.28567 0.16853 0.0
C671 C 0.05567 0.29213 0.1518 0.0
C672 C 0.06642 0.32434 0.15016 0.0
C673 C 0.02864 0.27288 0.16158 0.0
C674 C 0.95715 0.26979 0.17845 0.0
H675 H 0.85966 0.15552 0.24097 0.0
H676 H 0.89979 0.1747 0.21764 0.0
H677 H 0.91242 0.25859 0.18824 0.0
H678 H 0.05699 0.36142 0.15743 0.0
H679 H 1.01026 0.32813 0.17424 0.0
H680 H 1.00138 0.24037 0.19465 0.0
C681 C 0.89246 0.19038 0.22304 0.0
C682 C 0.9316 0.25425 0.18976 0.0
C683 C 0.86937 0.17934 0.2363 0.0
C684 C 0.04945 0.33675 0.15837 0.0
C685 C 0.02245 0.31757 0.16793 0.0
C686 C 0.98183 0.24405 0.19292 0.0
C687 C 0.90586 0.22135 0.21682 0.0
C688 C 0.93113 0.23411 0.20319 0.0
C689 C 1.01164 0.28541 0.16968 0.0
C690 C 0.98297 0.26559 0.1802 0.0
H691 H 0.86597 0.24603 0.24278 0.0
H692 H 0.9057 0.26499 0.21992 0.0
H693 H 0.95663 0.21323 0.21456 0.0
H694 H 0.06824 0.28185 0.14567 0.0
H695 H 1.02087 0.24818 0.16264 0.0
C696 C 0.75467 0.05372 0.31426 0.0
C697 C 0.78197 0.06679 0.30401 0.0
C698 C 0.7473 0.02855 0.32576 0.0
C699 C 0.7851 0.99066 0.34998 0.0
H700 H 0.70066 0.92549 0.35916 0.0
C701 C 0.75637 0.88347 0.39436 0.0
C702 C 0.73178 0.874 0.40655 0.0
C703 C 0.76189 0.90601 0.38131 0.0
C704 C 0.72437 0.94367 0.35685 0.0
H705 H 0.82205 0.06251 0.29715 0.0
H706 H 0.80883 0.01833 0.31673 0.0
H707 H 0.71069 0.96562 0.33694 0.0
H708 H 0.69362 0.88087 0.41446 0.0
H709 H 0.70329 0.92011 0.39177 0.0
H710 H 0.79876 0.96869 0.36986 0.0
C711 C 0.7935 0.02799 0.31633 0.0
C712 C 0.73013 0.96673 0.34411 0.0
C713 C 0.80096 0.05322 0.30495 0.0
C714 C 0.71277 0.88755 0.4053 0.0
C715 C 0.71818 0.90994 0.3922 0.0
C716 C 0.77934 0.96754 0.36264 0.0
C717 C 0.76695 1.01573 0.32722 0.0
C718 C 0.76059 0.99061 0.34051 0.0
C719 C 0.74284 0.91952 0.38006 0.0
C720 C 0.74891 0.94379 0.3663 0.0
H721 H 0.73961 0.06369 0.31394 0.0
H722 H 0.72678 0.01995 0.33401 0.0
H723 H 0.80881 1.00898 0.34791 0.0
H724 H 0.77144 0.87351 0.39488 0.0
H725 H 0.7809 0.91261 0.37207 0.0
C726 C 0.89923 0.77225 0.57789 0.0
C727 C 0.89964 0.74393 0.57785 0.0
C728 C 0.88337 0.77857 0.56449 0.0
C729 C 0.81824 0.73762 0.53322 0.0
H730 H 0.851 0.81762 0.50943 0.0
C731 C 0.75079 0.75304 0.47556 0.0
C732 C 0.75012 0.78112 0.4746 0.0
C733 C 0.77137 0.75018 0.48709 0.0
C734 C 0.84132 0.79524 0.51608 0.0
H735 H 0.88437 0.70049 0.5633 0.0
H736 H 0.85672 0.71145 0.54012 0.0
H737 H 0.88256 0.80987 0.53174 0.0
H738 H 0.77127 0.82863 0.48467 0.0
H739 H 0.80673 0.82347 0.50518 0.0
H740 H 0.77681 0.72303 0.51814 0.0
C741 C 0.86848 0.72869 0.55057 0.0
C742 C 0.85948 0.7908 0.52884 0.0
C743 C 0.88452 0.7225 0.56383 0.0
C744 C 0.77132 0.80671 0.48502 0.0
C745 C 0.79172 0.80374 0.49677 0.0
C746 C 0.80003 0.74211 0.52065 0.0
C747 C 0.86731 0.75657 0.55087 0.0
C748 C 0.84822 0.76183 0.53745 0.0
C749 C 0.79159 0.77519 0.49823 0.0
C750 C 0.81134 0.77087 0.51176 0.0
H751 H 0.91063 0.78929 0.58847 0.0
H752 H 0.88279 0.8002 0.56514 0.0
H753 H 0.80861 0.71522 0.53987 0.0
H754 H 0.735 0.73296 0.46758 0.0
H755 H 0.7711 0.72812 0.4874 0.0
C756 C 0.16916 0.85982 0.74664 0.0
C757 C 0.20084 0.87542 0.7422 0.0
C758 C 0.14643 0.84826 0.73321 0.0
C759 C 0.13503 0.82228 0.68597 0.0
H760 H 0.05835 0.82417 0.69016 0.0
C761 C 0.04241 0.77383 0.62977 0.0
C762 C 1.01122 0.75648 0.63509 0.0
C763 C 0.06582 0.79079 0.64236 0.0
C764 C 0.0795 0.82316 0.68884 0.0
H765 H 0.2333 0.89199 0.72005 0.0
H766 H 0.19371 0.87208 0.6967 0.0
H767 H 0.09852 0.84963 0.71297 0.0
H768 H 0.98028 0.74384 0.65788 0.0
H769 H 1.02099 0.77295 0.67979 0.0
H770 H 0.11592 0.79538 0.66205 0.0
C771 C 0.18644 0.86839 0.71057 0.0
C772 C 0.10258 0.83782 0.70193 0.0
C773 C 0.20917 0.88004 0.72399 0.0
C774 C 1.00401 0.75698 0.65327 0.0
C775 C 0.02741 0.77387 0.66585 0.0
C776 C 0.11194 0.80755 0.67292 0.0
C777 C 0.15476 0.8519 0.71499 0.0
C778 C 0.1306 0.83744 0.70071 0.0
C779 C 0.05869 0.79081 0.66061 0.0
C780 C 0.08376 0.80762 0.67421 0.0
H781 H 0.16186 0.85575 0.76051 0.0
H782 H 0.12229 0.83548 0.73713 0.0
H783 H 0.15606 0.82102 0.68473 0.0
H784 H 0.04883 0.77411 0.61588 0.0
H785 H 0.08956 0.80392 0.63775 0.0
C786 C 0.35052 0.1359 0.92552 0.0
C787 C 0.37157 0.16597 0.91911 0.0
C788 C 0.34146 0.10943 0.91465 0.0
C789 C 0.33143 0.09005 0.86703 0.0
H790 H 0.31843 1.0087 0.8808 0.0
C791 C 0.25717 0.97819 0.82524 0.0
C792 C 0.27001 0.95898 0.82175 0.0
C793 C 0.27137 1.00311 0.83738 0.0
C794 C 0.32209 0.03135 0.87677 0.0
H795 H 0.40217 0.19116 0.897 0.0
H796 H 0.38655 0.14527 0.87829 0.0
H797 H 0.34138 0.05229 0.90234 0.0
H798 H 0.30781 0.95083 0.82842 0.0
H799 H 0.33236 0.99418 0.84988 0.0
H800 H 0.31167 0.06921 0.84167 0.0
C801 C 0.37643 0.14221 0.8915 0.0
C802 C 0.33503 0.0562 0.88912 0.0
C803 C 0.38553 0.16852 0.90233 0.0
C804 C 0.29743 0.9653 0.83071 0.0
C805 C 0.31135 0.98995 0.84311 0.0
C806 C 0.31809 0.06519 0.85485 0.0
C807 C 0.35337 0.11256 0.89721 0.0
C808 C 0.33998 0.08588 0.88433 0.0
C809 C 0.29848 1.00914 0.84656 0.0
C810 C 0.31326 0.03556 0.85955 0.0
H811 H 0.33956 0.13295 0.93845 0.0
H812 H 0.32373 0.08683 0.91946 0.0
H813 H 0.33458 0.11252 0.863 0.0
H814 H 0.23606 0.97395 0.81861 0.0
H815 H 0.2608 0.01738 0.83983 0.0
C816 C 0.70962 0.84888 0.81378 0.0
C817 C 0.71758 0.85171 0.79554 0.0
C818 C 0.71679 0.83096 0.82525 0.0
C819 C 0.73493 0.76649 0.82343 0.0
H820 H 0.75166 0.78446 0.87409 0.0
C821 C 0.73481 0.67503 0.87082 0.0
C822 C 0.75725 0.68532 0.88446 0.0
C823 C 0.7301 0.69638 0.86101 0.0
C824 C 0.74731 0.77919 0.85995 0.0
H825 H 0.74097 0.83947 0.7753 0.0
H826 H 0.75452 0.80931 0.79535 0.0
H827 H 0.74627 0.82139 0.85492 0.0
H828 H 0.79186 0.72613 0.8988 0.0
H829 H 0.78426 0.76359 0.88136 0.0
H830 H 0.737 0.72495 0.82822 0.0
C831 C 0.74176 0.81996 0.80074 0.0
C832 C 0.74384 0.80025 0.84896 0.0
C833 C 0.73425 0.83753 0.78924 0.0
C834 C 0.77427 0.71745 0.88843 0.0
C835 C 0.76983 0.73892 0.87844 0.0
C836 C 0.73866 0.74565 0.83435 0.0
C837 C 0.73241 0.8157 0.81881 0.0
C838 C 0.73744 0.79411 0.83054 0.0
C839 C 0.74803 0.72871 0.86437 0.0
C840 C 0.74461 0.7515 0.8528 0.0
H841 H 0.69662 0.85936 0.81906 0.0
H842 H 0.70891 0.82806 0.83899 0.0
H843 H 0.72952 0.76054 0.80942 0.0
H844 H 0.72106 0.65041 0.86755 0.0
H845 H 0.7125 0.68746 0.85066 0.0
C846 C 0.87643 0.73128 0.96145 0.0
C847 C 0.86032 0.69966 0.95633 0.0
C848 C 0.89921 0.74174 0.97482 0.0
C849 C 0.93091 0.71413 1.01154 0.0
H850 H 1.00409 0.79518 1.00465 0.0
C851 C 0.04677 0.75873 0.05101 0.0
C852 C 0.06207 0.79027 0.05642 0.0
C853 C 1.02015 0.74665 0.04022 0.0
C854 C 0.98367 0.77263 1.00688 0.0
H855 H 0.85529 0.65411 0.96145 0.0
H856 H 0.89547 0.6724 0.98434 0.0
H857 H 0.96184 0.77637 0.98313 0.0
H858 H 0.06051 0.83343 0.0553 0.0
H859 H 1.0144 0.81242 0.03655 0.0
H860 H 0.9535 0.71027 0.03511 0.0
C861 C 0.89013 0.68913 0.97836 0.0
C862 C 0.9593 0.76184 0.99456 0.0
C863 C 0.86713 0.67862 0.96513 0.0
C864 C 0.04947 0.80907 0.05134 0.0
C865 C 0.02311 0.7971 0.04048 0.0
C866 C 0.95549 0.72484 0.0238 0.0
C867 C 0.90675 0.72091 0.98328 0.0
C868 C 0.93249 0.73247 0.9967 0.0
C869 C 1.00847 0.76594 0.0345 0.0
C870 C 0.98211 0.75427 0.02163 0.0
H871 H 0.87161 0.74808 0.95505 0.0
H872 H 0.91096 0.76625 0.97847 0.0
H873 H 0.91053 0.69159 1.01382 0.0
H874 H 0.05584 0.7436 0.05467 0.0
H875 H 1.00943 0.72256 0.03578 0.0
C876 C 0.17944 0.89303 0.11916 0.0
C877 C 0.16815 0.86166 0.12402 0.0
C878 C 0.19215 0.91689 0.13208 0.0
C879 C 0.22952 0.93473 0.17659 0.0
H880 H 0.21354 1.004 0.17645 0.0
C881 C 0.27868 0.02916 0.2321 0.0
C882 C 0.29004 0.06037 0.22695 0.0
C883 C 0.26161 1.00458 0.22009 0.0
C884 C 0.21855 0.98502 0.17659 0.0
H885 H 0.16084 0.83085 0.14642 0.0
H886 H 0.18294 0.87235 0.16886 0.0
H887 H 0.18809 0.96207 0.15439 0.0
H888 H 0.29177 0.09009 0.20512 0.0
H889 H 0.2626 0.04742 0.18411 0.0
H890 H 0.26043 0.95778 0.19847 0.0
C891 C 0.18223 0.87856 0.15504 0.0
C892 C 0.20388 0.96093 0.16393 0.0
C893 C 0.16935 0.85471 0.14216 0.0
C894 C 0.28328 0.06634 0.20959 0.0
C895 C 0.26637 0.04177 0.19754 0.0
C896 C 0.24432 0.95887 0.18915 0.0
C897 C 0.19407 0.90999 0.15015 0.0
C898 C 0.2092 0.93548 0.16377 0.0
C899 C 0.2556 1.01053 0.20253 0.0
C900 C 0.2391 0.98441 0.18934 0.0
H901 H 0.1789 0.89926 0.10532 0.0
H902 H 0.20126 0.94085 0.12782 0.0
H903 H 0.23457 0.91576 0.17667 0.0
H904 H 0.28326 0.02365 0.24539 0.0
H905 H 0.25321 0.98086 0.22459 0.0
C906 C 0.29279 0.15757 0.30749 0.0
C907 C 0.31239 0.17189 0.29275 0.0
C908 C 0.28911 0.1757 0.32076 0.0
C909 C 0.32806 0.25621 0.33949 0.0
H910 H 0.24703 0.2336 0.35836 0.0
C911 C 0.30439 0.34464 0.37664 0.0
C912 C 0.28324 0.33444 0.39094 0.0
C913 C 0.30891 0.32335 0.36652 0.0
C914 C 0.26991 0.24002 0.35347 0.0
H915 H 0.34306 0.21662 0.28034 0.0
H916 H 0.33653 0.24789 0.30326 0.0
H917 H 0.25234 0.19889 0.33701 0.0
H918 H 0.25086 0.29375 0.4061 0.0
H919 H 0.25896 0.25651 0.38847 0.0
H920 H 0.34566 0.29743 0.35571 0.0
C921 C 0.32433 0.22272 0.30477 0.0
C922 C 0.27294 0.22011 0.34119 0.0
C923 C 0.32789 0.20469 0.29152 0.0
C924 C 0.26737 0.30243 0.3952 0.0
C925 C 0.27181 0.28104 0.38499 0.0
C926 C 0.32506 0.27603 0.35175 0.0
C927 C 0.30511 0.20855 0.31964 0.0
C928 C 0.30199 0.22827 0.33379 0.0
C929 C 0.29238 0.2912 0.37037 0.0
C930 C 0.29587 0.26853 0.35866 0.0
H931 H 0.28051 0.13238 0.30887 0.0
H932 H 0.27422 0.16403 0.33207 0.0
H933 H 0.3509 0.2629 0.33439 0.0
H934 H 0.31699 0.36908 0.37293 0.0
H935 H 0.32464 0.33206 0.35525 0.0
C936 C 0.17614 0.38227 0.47528 0.0
C937 C 0.18172 0.36156 0.46513 0.0
C938 C 0.15375 0.37124 0.48875 0.0
C939 C 0.10309 0.30181 0.51689 0.0
H940 H 0.05573 0.34451 0.52126 0.0
C941 C 0.98996 0.25646 0.55927 0.0
C942 C 0.98705 0.27899 0.5694 0.0
C943 C 1.01484 0.26542 0.54743 0.0
C944 C 0.06893 0.3325 0.52036 0.0
H945 H 0.16863 0.31294 0.4615 0.0
H946 H 0.12873 0.29339 0.48481 0.0
H947 H 0.09637 0.36162 0.49892 0.0
H948 H 1.00865 0.32857 0.57532 0.0
H949 H 0.05174 0.3441 0.55464 0.0
H950 H 0.07468 0.27214 0.53817 0.0
C951 C 0.14212 0.31833 0.48255 0.0
C952 C 0.0924 0.34239 0.50755 0.0
C953 C 0.16495 0.3295 0.46915 0.0
C954 C 1.01006 0.31056 0.56774 0.0
C955 C 0.0347 0.31952 0.55579 0.0
C956 C 0.07928 0.29169 0.52964 0.0
C957 C 0.13582 0.33905 0.49232 0.0
C958 C 0.11013 0.32749 0.50575 0.0
C959 C 0.03717 0.29713 0.5453 0.0
C960 C 0.06216 0.30717 0.53163 0.0
H961 H 0.18892 0.40716 0.4727 0.0
H962 H 0.15037 0.38809 0.49629 0.0
H963 H 0.11633 0.28987 0.51603 0.0
H964 H 0.97269 0.23193 0.56022 0.0
H965 H 1.01601 0.24763 0.53948 0.0
C966 C 0.74004 0.96876 0.7189 0.0
C967 C 0.74867 0.94563 0.71975 0.0
C968 C 0.75625 0.99497 0.70786 0.0
C969 C 0.80482 0.0202 0.66732 0.0
H970 H 0.8291 0.10428 0.68303 0.0
C971 C 0.88212 0.12687 0.62318 0.0
C972 C 0.87558 0.15147 0.62273 0.0
C973 C 0.86774 0.10281 0.63573 0.0
C974 C 0.82217 0.08092 0.67831 0.0
H975 H 0.78158 0.93239 0.7099 0.0
H976 H 0.80951 0.97774 0.69073 0.0
H977 H 0.80124 0.0605 0.70352 0.0
H978 H 0.84894 0.17017 0.63534 0.0
H979 H 0.82339 0.12799 0.65688 0.0
H980 H 0.82502 0.04019 0.64205 0.0
C981 C 0.79012 0.97557 0.69846 0.0
C982 C 0.80623 0.05583 0.69011 0.0
C983 C 0.77416 0.94962 0.70957 0.0
C984 C 0.85468 0.15168 0.63534 0.0
C985 C 0.8401 0.12749 0.6478 0.0
C986 C 0.82048 0.04517 0.6555 0.0
C987 C 0.7812 0.99841 0.69731 0.0
C988 C 0.79754 0.02519 0.68477 0.0
C989 C 0.84618 0.10253 0.64808 0.0
C990 C 0.82955 0.07595 0.66083 0.0
H991 H 0.72052 0.96642 0.72657 0.0
H992 H 0.74873 1.0121 0.7072 0.0
H993 H 0.79799 0.99681 0.66268 0.0
H994 H 0.89823 0.12605 0.61374 0.0
H995 H 0.87355 0.08439 0.63573 0.0
loop_
_geom_bond_atom_site_label_1
_geom_bond_atom_site_label_2
_geom_bond_distance
_geom_bond_site_symmetry_2
_ccdc_geom_bond_type
Cu0 N1 1.999 . S
Cu0 O6 1.974 . S
Cu0 N11 1.985 . S
Cu0 O20 1.959 . S
N1 Cu0 1.999 . S
N1 C3 1.263 . S
N1 C5 1.389 . S
N2 C3 1.358 . S
N2 C4 1.400 . S
C3 N1 1.263 . S
C3 N2 1.358 . S
C3 H9 0.930 . S
C4 N2 1.400 . S
C4 C5 1.351 . S
C4 H21 0.930 . S
C5 N1 1.389 . S
C5 C4 1.351 . S
C5 H10 0.930 . S
O6 Cu0 1.974 . S
O6 C16 1.282 . S
C7 O8 1.261 . S
C7 O20 1.251 . S
O8 C7 1.261 . S
H9 C3 0.930 . S
H10 C5 0.930 . S
N11 Cu0 1.985 . S
N11 C13 1.335 . S
N11 C14 1.390 . S
N12 C13 1.345 . S
N12 C15 1.336 . S
C13 N11 1.335 . S
C13 N12 1.345 . S
C13 H18 0.930 . S
C14 N11 1.390 . S
C14 C15 1.346 . S
C14 H19 0.930 . S
C15 N12 1.336 . S
C15 C14 1.346 . S
C15 H22 0.929 . S
C16 O6 1.282 . S
C16 O17 1.216 . S
O17 C16 1.216 . S
H18 C13 0.930 . S
H19 C14 0.930 . S
O20 Cu0 1.959 . S
O20 C7 1.251 . S
H21 C4 0.930 . S
H22 C15 0.929 . S
Cu23 N24 1.999 . S
Cu23 O29 1.974 . S
Cu23 N34 1.985 . S
Cu23 O43 1.959 . S
N24 Cu23 1.999 . S
N24 C26 1.263 . S
N24 C28 1.389 . S
N25 C26 1.358 . S
N25 C27 1.400 . S
C26 N24 1.263 . S
C26 N25 1.358 . S
C26 H32 0.930 . S
C27 N25 1.400 . S
C27 C28 1.351 . S
C27 H44 0.930 . S
C28 N24 1.389 . S
C28 C27 1.351 . S
C28 H33 0.930 . S
O29 Cu23 1.974 . S
O29 C39 1.282 . S
C30 O31 1.261 . S
C30 O43 1.251 . S
O31 C30 1.261 . S
H32 C26 0.930 . S
H33 C28 0.930 . S
N34 Cu23 1.985 . S
N34 C36 1.335 . S
N34 C37 1.390 . S
N35 C36 1.345 . S
N35 C38 1.336 . S
C36 N34 1.335 . S
C36 N35 1.345 . S
C36 H41 0.930 . S
C37 N34 1.390 . S
C37 C38 1.346 . S
C37 H42 0.930 . S
C38 N35 1.336 . S
C38 C37 1.346 . S
C38 H45 0.929 . S
C39 O29 1.282 . S
C39 O40 1.216 . S
O40 C39 1.216 . S
H41 C36 0.930 . S
H42 C37 0.930 . S
O43 Cu23 1.959 . S
O43 C30 1.251 . S
H44 C27 0.930 . S
H45 C38 0.929 . S
Cu46 N47 1.999 . S
Cu46 O52 1.974 . S
Cu46 N57 1.985 . S
Cu46 O66 1.959 . S
N47 Cu46 1.999 . S
N47 C49 1.263 . S
N47 C51 1.389 . S
N48 C49 1.358 . S
N48 C50 1.400 . S
C49 N47 1.263 . S
C49 N48 1.358 . S
C49 H55 0.930 . S
C50 N48 1.400 . S
C50 C51 1.351 . S
C50 H67 0.930 . S
C51 N47 1.389 . S
C51 C50 1.351 . S
C51 H56 0.930 . S
O52 Cu46 1.974 . S
O52 C62 1.282 . S
C53 O54 1.261 . S
C53 O66 1.251 . S
O54 C53 1.261 . S
H55 C49 0.930 . S
H56 C51 0.930 . S
N57 Cu46 1.985 . S
N57 C59 1.335 . S
N57 C60 1.390 . S
N58 C59 1.345 . S
N58 C61 1.336 . S
C59 N57 1.335 . S
C59 N58 1.345 . S
C59 H64 0.930 . S
C60 N57 1.390 . S
C60 C61 1.346 . S
C60 H65 0.930 . S
C61 N58 1.336 . S
C61 C60 1.346 . S
C61 H68 0.929 . S
C62 O52 1.282 . S
C62 O63 1.216 . S
O63 C62 1.216 . S
H64 C59 0.930 . S
H65 C60 0.930 . S
O66 Cu46 1.959 . S
O66 C53 1.251 . S
H67 C50 0.930 . S
H68 C61 0.929 . S
Cu69 N70 1.999 . S
Cu69 O75 1.974 . S
Cu69 N80 1.985 . S
Cu69 O89 1.959 . S
N70 Cu69 1.999 . S
N70 C72 1.263 . S
N70 C74 1.389 . S
N71 C72 1.358 . S
N71 C73 1.400 . S
C72 N70 1.263 . S
C72 N71 1.358 . S
C72 H78 0.930 . S
C73 N71 1.400 . S
C73 C74 1.351 . S
C73 H90 0.930 . S
C74 N70 1.389 . S
C74 C73 1.351 . S
C74 H79 0.930 . S
O75 Cu69 1.974 . S
O75 C85 1.282 . S
C76 O77 1.261 . S
C76 O89 1.251 . S
O77 C76 1.261 . S
H78 C72 0.930 . S
H79 C74 0.930 . S
N80 Cu69 1.985 . S
N80 C82 1.335 . S
N80 C83 1.390 . S
N81 C82 1.345 . S
N81 C84 1.336 . S
C82 N80 1.335 . S
C82 N81 1.345 . S
C82 H87 0.930 . S
C83 N80 1.390 . S
C83 C84 1.346 . S
C83 H88 0.930 . S
C84 N81 1.336 . S
C84 C83 1.346 . S
C84 H91 0.929 . S
C85 O75 1.282 . S
C85 O86 1.216 . S
O86 C85 1.216 . S
H87 C82 0.930 . S
H88 C83 0.930 . S
O89 Cu69 1.959 . S
O89 C76 1.251 . S
H90 C73 0.930 . S
H91 C84 0.929 . S
Cu92 N93 1.999 . S
Cu92 O98 1.974 . S
Cu92 N103 1.985 . S
Cu92 O112 1.959 . S
N93 Cu92 1.999 . S
N93 C95 1.263 . S
N93 C97 1.389 . S
N94 C95 1.358 . S
N94 C96 1.400 . S
C95 N93 1.263 . S
C95 N94 1.358 . S
C95 H101 0.930 . S
C96 N94 1.400 . S
C96 C97 1.351 . S
C96 H113 0.930 . S
C97 N93 1.389 . S
C97 C96 1.351 . S
C97 H102 0.930 . S
O98 Cu92 1.974 . S
O98 C108 1.282 . S
C99 O100 1.261 . S
C99 O112 1.251 . S
O100 C99 1.261 . S
H101 C95 0.930 . S
H102 C97 0.930 . S
N103 Cu92 1.985 . S
N103 C105 1.335 . S
N103 C106 1.390 . S
N104 C105 1.345 . S
N104 C107 1.336 . S
C105 N103 1.335 . S
C105 N104 1.345 . S
C105 H110 0.930 . S
C106 N103 1.390 . S
C106 C107 1.346 . S
C106 H111 0.930 . S
C107 N104 1.336 . S
C107 C106 1.346 . S
C107 H114 0.929 . S
C108 O98 1.282 . S
C108 O109 1.216 . S
O109 C108 1.216 . S
H110 C105 0.930 . S
H111 C106 0.930 . S
O112 Cu92 1.959 . S
O112 C99 1.251 . S
H113 C96 0.930 . S
H114 C107 0.929 . S
Cu115 N116 1.999 . S
Cu115 O121 1.974 . S
Cu115 N126 1.985 . S
Cu115 O135 1.959 . S
N116 Cu115 1.999 . S
N116 C118 1.263 . S
N116 C120 1.389 . S
N117 C118 1.358 . S
N117 C119 1.400 . S
C118 N116 1.263 . S
C118 N117 1.358 . S
C118 H124 0.930 . S
C119 N117 1.400 . S
C119 C120 1.351 . S
C119 H136 0.930 . S
C120 N116 1.389 . S
C120 C119 1.351 . S
C120 H125 0.930 . S
O121 Cu115 1.974 . S
O121 C131 1.282 . S
C122 O123 1.261 . S
C122 O135 1.251 . S
O123 C122 1.261 . S
H124 C118 0.930 . S
H125 C120 0.930 . S
N126 Cu115 1.985 . S
N126 C128 1.335 . S
N126 C129 1.390 . S
N127 C128 1.345 . S
N127 C130 1.336 . S
C128 N126 1.335 . S
C128 N127 1.345 . S
C128 H133 0.930 . S
C129 N126 1.390 . S
C129 C130 1.346 . S
C129 H134 0.930 . S
C130 N127 1.336 . S
C130 C129 1.346 . S
C130 H137 0.929 . S
C131 O121 1.282 . S
C131 O132 1.216 . S
O132 C131 1.216 . S
H133 C128 0.930 . S
H134 C129 0.930 . S
O135 Cu115 1.959 . S
O135 C122 1.251 . S
H136 C119 0.930 . S
H137 C130 0.929 . S
Cu138 N139 1.999 . S
Cu138 O144 1.974 . S
Cu138 N149 1.985 . S
Cu138 O158 1.959 . S
N139 Cu138 1.999 . S
N139 C141 1.263 . S
N139 C143 1.389 . S
N140 C141 1.358 . S
N140 C142 1.400 . S
C141 N139 1.263 . S
C141 N140 1.358 . S
C141 H147 0.930 . S
C142 N140 1.400 . S
C142 C143 1.351 . S
C142 H159 0.930 . S
C143 N139 1.389 . S
C143 C142 1.351 . S
C143 H148 0.930 . S
O144 Cu138 1.974 . S
O144 C154 1.282 . S
C145 O146 1.261 . S
C145 O158 1.251 . S
O146 C145 1.261 . S
H147 C141 0.930 . S
H148 C143 0.930 . S
N149 Cu138 1.985 . S
N149 C151 1.335 . S
N149 C152 1.390 . S
N150 C151 1.345 . S
N150 C153 1.336 . S
C151 N149 1.335 . S
C151 N150 1.345 . S
C151 H156 0.930 . S
C152 N149 1.390 . S
C152 C153 1.346 . S
C152 H157 0.930 . S
C153 N150 1.336 . S
C153 C152 1.346 . S
C153 H160 0.929 . S
C154 O144 1.282 . S
C154 O155 1.216 . S
O155 C154 1.216 . S
H156 C151 0.930 . S
H157 C152 0.930 . S
O158 Cu138 1.959 . S
O158 C145 1.251 . S
H159 C142 0.930 . S
H160 C153 0.929 . S
Cu161 N162 1.999 . S
Cu161 O167 1.974 . S
Cu161 N172 1.985 . S
Cu161 O181 1.959 . S
N162 Cu161 1.999 . S
N162 C164 1.263 . S
N162 C166 1.389 . S
N163 C164 1.358 . S
N163 C165 1.400 . S
C164 N162 1.263 . S
C164 N163 1.358 . S
C164 H170 0.930 . S
C165 N163 1.400 . S
C165 C166 1.351 . S
C165 H182 0.930 . S
C166 N162 1.389 . S
C166 C165 1.351 . S
C166 H171 0.930 . S
O167 Cu161 1.974 . S
O167 C177 1.282 . S
C168 O169 1.261 . S
C168 O181 1.251 . S
O169 C168 1.261 . S
H170 C164 0.930 . S
H171 C166 0.930 . S
N172 Cu161 1.985 . S
N172 C174 1.335 . S
N172 C175 1.390 . S
N173 C174 1.345 . S
N173 C176 1.336 . S
C174 N172 1.335 . S
C174 N173 1.345 . S
C174 H179 0.930 . S
C175 N172 1.390 . S
C175 C176 1.346 . S
C175 H180 0.930 . S
C176 N173 1.336 . S
C176 C175 1.346 . S
C176 H183 0.929 . S
C177 O167 1.282 . S
C177 O178 1.216 . S
O178 C177 1.216 . S
H179 C174 0.930 . S
H180 C175 0.930 . S
O181 Cu161 1.959 . S
O181 C168 1.251 . S
H182 C165 0.930 . S
H183 C176 0.929 . S
Cu184 N185 1.999 . S
Cu184 O190 1.974 . S
Cu184 N195 1.985 . S
Cu184 O204 1.959 . S
N185 Cu184 1.999 . S
N185 C187 1.263 . S
N185 C189 1.389 . S
N186 C187 1.358 . S
N186 C188 1.400 . S
C187 N185 1.263 . S
C187 N186 1.358 . S
C187 H193 0.930 . S
C188 N186 1.400 . S
C188 C189 1.351 . S
C188 H205 0.930 . S
C189 N185 1.389 . S
C189 C188 1.351 . S
C189 H194 0.930 . S
O190 Cu184 1.974 . S
O190 C200 1.282 . S
C191 O192 1.261 . S
C191 O204 1.251 . S
O192 C191 1.261 . S
H193 C187 0.930 . S
H194 C189 0.930 . S
N195 Cu184 1.985 . S
N195 C197 1.335 . S
N195 C198 1.390 . S
N196 C197 1.345 . S
N196 C199 1.336 . S
C197 N195 1.335 . S
C197 N196 1.345 . S
C197 H202 0.930 . S
C198 N195 1.390 . S
C198 C199 1.346 . S
C198 H203 0.930 . S
C199 N196 1.336 . S
C199 C198 1.346 . S
C199 H206 0.929 . S
C200 O190 1.282 . S
C200 O201 1.216 . S
O201 C200 1.216 . S
H202 C197 0.930 . S
H203 C198 0.930 . S
O204 Cu184 1.959 . S
O204 C191 1.251 . S
H205 C188 0.930 . S
H206 C199 0.929 . S
Cu207 N208 1.999 . S
Cu207 O213 1.974 . S
Cu207 N218 1.985 . S
Cu207 O227 1.959 . S
N208 Cu207 1.999 . S
N208 C210 1.263 . S
N208 C212 1.389 . S
N209 C210 1.358 . S
N209 C211 1.400 . S
C210 N208 1.263 . S
C210 N209 1.358 . S
C210 H216 0.930 . S
C211 N209 1.400 . S
C211 C212 1.351 . S
C211 H228 0.930 . S
C212 N208 1.389 . S
C212 C211 1.351 . S
C212 H217 0.930 . S
O213 Cu207 1.974 . S
O213 C223 1.282 . S
C214 O215 1.261 . S
C214 O227 1.251 . S
O215 C214 1.261 . S
H216 C210 0.930 . S
H217 C212 0.930 . S
N218 Cu207 1.985 . S
N218 C220 1.335 . S
N218 C221 1.390 . S
N219 C220 1.345 . S
N219 C222 1.336 . S
C220 N218 1.335 . S
C220 N219 1.345 . S
C220 H225 0.930 . S
C221 N218 1.390 . S
C221 C222 1.346 . S
C221 H226 0.930 . S
C222 N219 1.336 . S
C222 C221 1.346 . S
C222 H229 0.929 . S
C223 O213 1.282 . S
C223 O224 1.216 . S
O224 C223 1.216 . S
H225 C220 0.930 . S
H226 C221 0.930 . S
O227 Cu207 1.959 . S
O227 C214 1.251 . S
H228 C211 0.930 . S
H229 C222 0.929 . S
Cu230 N231 1.999 . S
Cu230 O236 1.974 . S
Cu230 N241 1.985 . S
Cu230 O250 1.959 . S
N231 Cu230 1.999 . S
N231 C233 1.263 . S
N231 C235 1.389 . S
N232 C233 1.358 . S
N232 C234 1.400 . S
C233 N231 1.263 . S
C233 N232 1.358 . S
C233 H239 0.930 . S
C234 N232 1.400 . S
C234 C235 1.351 . S
C234 H251 0.930 . S
C235 N231 1.389 . S
C235 C234 1.351 . S
C235 H240 0.930 . S
O236 Cu230 1.974 . S
O236 C246 1.282 . S
C237 O238 1.261 . S
C237 O250 1.251 . S
O238 C237 1.261 . S
H239 C233 0.930 . S
H240 C235 0.930 . S
N241 Cu230 1.985 . S
N241 C243 1.335 . S
N241 C244 1.390 . S
N242 C243 1.345 . S
N242 C245 1.336 . S
C243 N241 1.335 . S
C243 N242 1.345 . S
C243 H248 0.930 . S
C244 N241 1.390 . S
C244 C245 1.346 . S
C244 H249 0.930 . S
C245 N242 1.336 . S
C245 C244 1.346 . S
C245 H252 0.929 . S
C246 O236 1.282 . S
C246 O247 1.216 . S
O247 C246 1.216 . S
H248 C243 0.930 . S
H249 C244 0.930 . S
O250 Cu230 1.959 . S
O250 C237 1.251 . S
H251 C234 0.930 . S
H252 C245 0.929 . S
Cu253 N254 1.999 . S
Cu253 O259 1.974 . S
Cu253 N264 1.985 . S
Cu253 O273 1.959 . S
N254 Cu253 1.999 . S
N254 C256 1.263 . S
N254 C258 1.389 . S
N255 C256 1.358 . S
N255 C257 1.400 . S
C256 N254 1.263 . S
C256 N255 1.358 . S
C256 H262 0.930 . S
C257 N255 1.400 . S
C257 C258 1.351 . S
C257 H274 0.930 . S
C258 N254 1.389 . S
C258 C257 1.351 . S
C258 H263 0.930 . S
O259 Cu253 1.974 . S
O259 C269 1.282 . S
C260 O261 1.261 . S
C260 O273 1.251 . S
O261 C260 1.261 . S
H262 C256 0.930 . S
H263 C258 0.930 . S
N264 Cu253 1.985 . S
N264 C266 1.335 . S
N264 C267 1.390 . S
N265 C266 1.345 . S
N265 C268 1.336 . S
C266 N264 1.335 . S
C266 N265 1.345 . S
C266 H271 0.930 . S
C267 N264 1.390 . S
C267 C268 1.346 . S
C267 H272 0.930 . S
C268 N265 1.336 . S
C268 C267 1.346 . S
C268 H275 0.929 . S
C269 O259 1.282 . S
C269 O270 1.216 . S
O270 C269 1.216 . S
H271 C266 0.930 . S
H272 C267 0.930 . S
O273 Cu253 1.959 . S
O273 C260 1.251 . S
H274 C257 0.930 . S
H275 C268 0.929 . S
C276 C277 1.349 . S
C276 C278 1.327 . S
C276 H301 0.950 . S
C277 C276 1.349 . S
C277 C293 1.349 . S
C278 C276 1.327 . S
C278 C297 1.429 . S
C278 H302 0.950 . S
C279 C296 1.574 . S
C279 C298 1.368 . S
C279 H303 0.949 . S
H280 C284 0.949 . S
C281 C282 1.349 . S
C281 C283 1.327 . S
C281 H304 0.950 . S
C282 C281 1.349 . S
C282 C294 1.349 . S
C283 C281 1.327 . S
C283 C299 1.429 . S
C283 H305 0.950 . S
C284 H280 0.949 . S
C284 C292 1.574 . S
C284 C300 1.368 . S
H285 C293 0.950 . S
H286 C291 0.950 . S
H287 C292 0.949 . S
H288 C294 0.950 . S
H289 C295 0.950 . S
H290 C296 0.949 . S
C291 H286 0.950 . S
C291 C293 1.327 . S
C291 C297 1.429 . S
C292 C284 1.574 . S
C292 H287 0.949 . S
C292 C298 1.368 . S
C293 C277 1.349 . S
C293 H285 0.950 . S
C293 C291 1.327 . S
C294 C282 1.349 . S
C294 H288 0.950 . S
C294 C295 1.327 . S
C295 H289 0.950 . S
C295 C294 1.327 . S
C295 C299 1.429 . S
C296 C279 1.574 . S
C296 H290 0.949 . S
C296 C300 1.368 . S
C297 C278 1.429 . S
C297 C291 1.429 . S
C297 C298 1.523 . S
C298 C279 1.368 . S
C298 C292 1.368 . S
C298 C297 1.523 . S
C299 C283 1.429 . S
C299 C295 1.429 . S
C299 C300 1.523 . S
C300 C284 1.368 . S
C300 C296 1.368 . S
C300 C299 1.523 . S
H301 C276 0.950 . S
H302 C278 0.950 . S
H303 C279 0.949 . S
H304 C281 0.950 . S
H305 C283 0.950 . S
C306 C307 1.349 . S
C306 C308 1.327 . S
C306 H331 0.950 . S
C307 C306 1.349 . S
C307 C323 1.349 . S
C308 C306 1.327 . S
C308 C327 1.429 . S
C308 H332 0.950 . S
C309 C326 1.574 . S
C309 C328 1.368 . S
C309 H333 0.949 . S
H310 C314 0.949 . S
C311 C312 1.349 . S
C311 C313 1.327 . S
C311 H334 0.950 . S
C312 C311 1.349 . S
C312 C324 1.349 . S
C313 C311 1.327 . S
C313 C329 1.429 . S
C313 H335 0.950 . S
C314 H310 0.949 . S
C314 C322 1.574 . S
C314 C330 1.368 . S
H315 C323 0.950 . S
H316 C321 0.950 . S
H317 C322 0.949 . S
H318 C324 0.950 . S
H319 C325 0.950 . S
H320 C326 0.949 . S
C321 H316 0.950 . S
C321 C323 1.327 . S
C321 C327 1.429 . S
C322 C314 1.574 . S
C322 H317 0.949 . S
C322 C328 1.368 . S
C323 C307 1.349 . S
C323 H315 0.950 . S
C323 C321 1.327 . S
C324 C312 1.349 . S
C324 H318 0.950 . S
C324 C325 1.327 . S
C325 H319 0.950 . S
C325 C324 1.327 . S
C325 C329 1.429 . S
C326 C309 1.574 . S
C326 H320 0.949 . S
C326 C330 1.368 . S
C327 C308 1.429 . S
C327 C321 1.429 . S
C327 C328 1.523 . S
C328 C309 1.368 . S
C328 C322 1.368 . S
C328 C327 1.523 . S
C329 C313 1.429 . S
C329 C325 1.429 . S
C329 C330 1.523 . S
C330 C314 1.368 . S
C330 C326 1.368 . S
C330 C329 1.523 . S
H331 C306 0.950 . S
H332 C308 0.950 . S
H333 C309 0.949 . S
H334 C311 0.950 . S
H335 C313 0.950 . S
C336 C337 1.349 . S
C336 C338 1.327 . S
C336 H361 0.950 . S
C337 C336 1.349 . S
C337 C353 1.349 . S
C338 C336 1.327 . S
C338 C357 1.429 . S
C338 H362 0.950 . S
C339 C356 1.574 . S
C339 C358 1.368 . S
C339 H363 0.949 . S
H340 C344 0.949 . S
C341 C342 1.349 . S
C341 C343 1.327 . S
C341 H364 0.950 . S
C342 C341 1.349 . S
C342 C354 1.349 . S
C343 C341 1.327 . S
C343 C359 1.429 . S
C343 H365 0.950 . S
C344 H340 0.949 . S
C344 C352 1.574 . S
C344 C360 1.368 . S
H345 C353 0.950 . S
H346 C351 0.950 . S
H347 C352 0.949 . S
H348 C354 0.950 . S
H349 C355 0.950 . S
H350 C356 0.949 . S
C351 H346 0.950 . S
C351 C353 1.327 . S
C351 C357 1.429 . S
C352 C344 1.574 . S
C352 H347 0.949 . S
C352 C358 1.368 . S
C353 C337 1.349 . S
C353 H345 0.950 . S
C353 C351 1.327 . S
C354 C342 1.349 . S
C354 H348 0.950 . S
C354 C355 1.327 . S
C355 H349 0.950 . S
C355 C354 1.327 . S
C355 C359 1.429 . S
C356 C339 1.574 . S
C356 H350 0.949 . S
C356 C360 1.368 . S
C357 C338 1.429 . S
C357 C351 1.429 . S
C357 C358 1.523 . S
C358 C339 1.368 . S
C358 C352 1.368 . S
C358 C357 1.523 . S
C359 C343 1.429 . S
C359 C355 1.429 . S
C359 C360 1.523 . S
C360 C344 1.368 . S
C360 C356 1.368 . S
C360 C359 1.523 . S
H361 C336 0.950 . S
H362 C338 0.950 . S
H363 C339 0.949 . S
H364 C341 0.950 . S
H365 C343 0.950 . S
C366 C367 1.349 . S
C366 C368 1.327 . S
C366 H391 0.950 . S
C367 C366 1.349 . S
C367 C383 1.349 . S
C368 C366 1.327 . S
C368 C387 1.429 . S
C368 H392 0.950 . S
C369 C386 1.574 . S
C369 C388 1.368 . S
C369 H393 0.949 . S
H370 C374 0.949 . S
C371 C372 1.349 . S
C371 C373 1.327 . S
C371 H394 0.950 . S
C372 C371 1.349 . S
C372 C384 1.349 . S
C373 C371 1.327 . S
C373 C389 1.429 . S
C373 H395 0.950 . S
C374 H370 0.949 . S
C374 C382 1.574 . S
C374 C390 1.368 . S
H375 C383 0.950 . S
H376 C381 0.950 . S
H377 C382 0.949 . S
H378 C384 0.950 . S
H379 C385 0.950 . S
H380 C386 0.949 . S
C381 H376 0.950 . S
C381 C383 1.327 . S
C381 C387 1.429 . S
C382 C374 1.574 . S
C382 H377 0.949 . S
C382 C388 1.368 . S
C383 C367 1.349 . S
C383 H375 0.950 . S
C383 C381 1.327 . S
C384 C372 1.349 . S
C384 H378 0.950 . S
C384 C385 1.327 . S
C385 H379 0.950 . S
C385 C384 1.327 . S
C385 C389 1.429 . S
C386 C369 1.574 . S
C386 H380 0.949 . S
C386 C390 1.368 . S
C387 C368 1.429 . S
C387 C381 1.429 . S
C387 C388 1.523 . S
C388 C369 1.368 . S
C388 C382 1.368 . S
C388 C387 1.523 . S
C389 C373 1.429 . S
C389 C385 1.429 . S
C389 C390 1.523 . S
C390 C374 1.368 . S
C390 C386 1.368 . S
C390 C389 1.523 . S
H391 C366 0.950 . S
H392 C368 0.950 . S
H393 C369 0.949 . S
H394 C371 0.950 . S
H395 C373 0.950 . S
C396 C397 1.349 . S
C396 C398 1.327 . S
C396 H421 0.950 . S
C397 C396 1.349 . S
C397 C413 1.349 . S
C398 C396 1.327 . S
C398 C417 1.429 . S
C398 H422 0.950 . S
C399 C416 1.574 . S
C399 C418 1.368 . S
C399 H423 0.949 . S
H400 C404 0.949 . S
C401 C402 1.349 . S
C401 C403 1.327 . S
C401 H424 0.950 . S
C402 C401 1.349 . S
C402 C414 1.349 . S
C403 C401 1.327 . S
C403 C419 1.429 . S
C403 H425 0.950 . S
C404 H400 0.949 . S
C404 C412 1.574 . S
C404 C420 1.368 . S
H405 C413 0.950 . S
H406 C411 0.950 . S
H407 C412 0.949 . S
H408 C414 0.950 . S
H409 C415 0.950 . S
H410 C416 0.949 . S
C411 H406 0.950 . S
C411 C413 1.327 . S
C411 C417 1.429 . S
C412 C404 1.574 . S
C412 H407 0.949 . S
C412 C418 1.368 . S
C413 C397 1.349 . S
C413 H405 0.950 . S
C413 C411 1.327 . S
C414 C402 1.349 . S
C414 H408 0.950 . S
C414 C415 1.327 . S
C415 H409 0.950 . S
C415 C414 1.327 . S
C415 C419 1.429 . S
C416 C399 1.574 . S
C416 H410 0.949 . S
C416 C420 1.368 . S
C417 C398 1.429 . S
C417 C411 1.429 . S
C417 C418 1.523 . S
C418 C399 1.368 . S
C418 C412 1.368 . S
C418 C417 1.523 . S
C419 C403 1.429 . S
C419 C415 1.429 . S
C419 C420 1.523 . S
C420 C404 1.368 . S
C420 C416 1.368 . S
C420 C419 1.523 . S
H421 C396 0.950 . S
H422 C398 0.950 . S
H423 C399 0.949 . S
H424 C401 0.950 . S
H425 C403 0.950 . S
C426 C427 1.349 . S
C426 C428 1.327 . S
C426 H451 0.950 . S
C427 C426 1.349 . S
C427 C443 1.349 . S
C428 C426 1.327 . S
C428 C447 1.429 . S
C428 H452 0.950 . S
C429 C446 1.574 . S
C429 C448 1.368 . S
C429 H453 0.949 . S
H430 C434 0.949 . S
C431 C432 1.349 . S
C431 C433 1.327 . S
C431 H454 0.950 . S
C432 C431 1.349 . S
C432 C444 1.349 . S
C433 C431 1.327 . S
C433 C449 1.429 . S
C433 H455 0.950 . S
C434 H430 0.949 . S
C434 C442 1.574 . S
C434 C450 1.368 . S
H435 C443 0.950 . S
H436 C441 0.950 . S
H437 C442 0.949 . S
H438 C444 0.950 . S
H439 C445 0.950 . S
H440 C446 0.949 . S
C441 H436 0.950 . S
C441 C443 1.327 . S
C441 C447 1.429 . S
C442 C434 1.574 . S
C442 H437 0.949 . S
C442 C448 1.368 . S
C443 C427 1.349 . S
C443 H435 0.950 . S
C443 C441 1.327 . S
C444 C432 1.349 . S
C444 H438 0.950 . S
C444 C445 1.327 . S
C445 H439 0.950 . S
C445 C444 1.327 . S
C445 C449 1.429 . S
C446 C429 1.574 . S
C446 H440 0.949 . S
C446 C450 1.368 . S
C447 C428 1.429 . S
C447 C441 1.429 . S
C447 C448 1.523 . S
C448 C429 1.368 . S
C448 C442 1.368 . S
C448 C447 1.523 . S
C449 C433 1.429 . S
C449 C445 1.429 . S
C449 C450 1.523 . S
C450 C434 1.368 . S
C450 C446 1.368 . S
C450 C449 1.523 . S
H451 C426 0.950 . S
H452 C428 0.950 . S
H453 C429 0.949 . S
H454 C431 0.950 . S
H455 C433 0.950 . S
C456 C457 1.349 . S
C456 C458 1.327 . S
C456 H481 0.950 . S
C457 C456 1.349 . S
C457 C473 1.349 . S
C458 C456 1.327 . S
C458 C477 1.429 . S
C458 H482 0.950 . S
C459 C476 1.574 . S
C459 C478 1.368 . S
C459 H483 0.949 . S
H460 C464 0.949 . S
C461 C462 1.349 . S
C461 C463 1.327 . S
C461 H484 0.950 . S
C462 C461 1.349 . S
C462 C474 1.349 . S
C463 C461 1.327 . S
C463 C479 1.429 . S
C463 H485 0.950 . S
C464 H460 0.949 . S
C464 C472 1.574 . S
C464 C480 1.368 . S
H465 C473 0.950 . S
H466 C471 0.950 . S
H467 C472 0.949 . S
H468 C474 0.950 . S
H469 C475 0.950 . S
H470 C476 0.949 . S
C471 H466 0.950 . S
C471 C473 1.327 . S
C471 C477 1.429 . S
C472 C464 1.574 . S
C472 H467 0.949 . S
C472 C478 1.368 . S
C473 C457 1.349 . S
C473 H465 0.950 . S
C473 C471 1.327 . S
C474 C462 1.349 . S
C474 H468 0.950 . S
C474 C475 1.327 . S
C475 H469 0.950 . S
C475 C474 1.327 . S
C475 C479 1.429 . S
C476 C459 1.574 . S
C476 H470 0.949 . S
C476 C480 1.368 . S
C477 C458 1.429 . S
C477 C471 1.429 . S
C477 C478 1.523 . S
C478 C459 1.368 . S
C478 C472 1.368 . S
C478 C477 1.523 . S
C479 C463 1.429 . S
C479 C475 1.429 . S
C479 C480 1.523 . S
C480 C464 1.368 . S
C480 C476 1.368 . S
C480 C479 1.523 . S
H481 C456 0.950 . S
H482 C458 0.950 . S
H483 C459 0.949 . S
H484 C461 0.950 . S
H485 C463 0.950 . S
C486 C487 1.349 . S
C486 C488 1.327 . S
C486 H511 0.950 . S
C487 C486 1.349 . S
C487 C503 1.349 . S
C488 C486 1.327 . S
C488 C507 1.429 . S
C488 H512 0.950 . S
C489 C506 1.574 1_655 S
C489 C508 1.368 . S
C489 H513 0.949 . S
H490 C494 0.949 . S
C491 C492 1.349 . S
C491 C493 1.327 . S
C491 H514 0.950 . S
C492 C491 1.349 . S
C492 C504 1.349 . S
C493 C491 1.327 . S
C493 C509 1.429 . S
C493 H515 0.950 . S
C494 H490 0.949 . S
C494 C502 1.574 1_455 S
C494 C510 1.368 . S
H495 C503 0.950 . S
H496 C501 0.950 . S
H497 C502 0.949 . S
H498 C504 0.950 . S
H499 C505 0.950 . S
H500 C506 0.949 . S
C501 H496 0.950 . S
C501 C503 1.327 . S
C501 C507 1.429 . S
C502 C494 1.574 1_655 S
C502 H497 0.949 . S
C502 C508 1.368 . S
C503 C487 1.349 . S
C503 H495 0.950 . S
C503 C501 1.327 . S
C504 C492 1.349 . S
C504 H498 0.950 . S
C504 C505 1.327 . S
C505 H499 0.950 . S
C505 C504 1.327 . S
C505 C509 1.429 . S
C506 C489 1.574 1_455 S
C506 H500 0.949 . S
C506 C510 1.368 . S
C507 C488 1.429 . S
C507 C501 1.429 . S
C507 C508 1.523 . S
C508 C489 1.368 . S
C508 C502 1.368 . S
C508 C507 1.523 . S
C509 C493 1.429 . S
C509 C505 1.429 . S
C509 C510 1.523 . S
C510 C494 1.368 . S
C510 C506 1.368 . S
C510 C509 1.523 . S
H511 C486 0.950 . S
H512 C488 0.950 . S
H513 C489 0.949 . S
H514 C491 0.950 . S
H515 C493 0.950 . S
C516 C517 1.349 . S
C516 C518 1.327 . S
C516 H541 0.950 . S
C517 C516 1.349 . S
C517 C533 1.349 . S
C518 C516 1.327 . S
C518 C537 1.429 . S
C518 H542 0.950 . S
C519 C536 1.574 1_545 S
C519 C538 1.368 . S
C519 H543 0.949 . S
H520 C524 0.949 . S
C521 C522 1.349 . S
C521 C523 1.327 . S
C521 H544 0.950 . S
C522 C521 1.349 . S
C522 C534 1.349 . S
C523 C521 1.327 . S
C523 C539 1.429 . S
C523 H545 0.950 . S
C524 H520 0.949 . S
C524 C532 1.574 1_565 S
C524 C540 1.368 . S
H525 C533 0.950 . S
H526 C531 0.950 . S
H527 C532 0.949 . S
H528 C534 0.950 . S
H529 C535 0.950 . S
H530 C536 0.949 . S
C531 H526 0.950 . S
C531 C533 1.327 . S
C531 C537 1.429 . S
C532 C524 1.574 1_545 S
C532 H527 0.949 . S
C532 C538 1.368 . S
C533 C517 1.349 . S
C533 H525 0.950 . S
C533 C531 1.327 . S
C534 C522 1.349 . S
C534 H528 0.950 . S
C534 C535 1.327 . S
C535 H529 0.950 . S
C535 C534 1.327 . S
C535 C539 1.429 . S
C536 C519 1.574 1_565 S
C536 H530 0.949 . S
C536 C540 1.368 . S
C537 C518 1.429 . S
C537 C531 1.429 . S
C537 C538 1.523 . S
C538 C519 1.368 . S
C538 C532 1.368 . S
C538 C537 1.523 . S
C539 C523 1.429 . S
C539 C535 1.429 . S
C539 C540 1.523 . S
C540 C524 1.368 . S
C540 C536 1.368 . S
C540 C539 1.523 . S
H541 C516 0.950 . S
H542 C518 0.950 . S
H543 C519 0.949 . S
H544 C521 0.950 . S
H545 C523 0.950 . S
C546 C547 1.349 . S
C546 C548 1.327 . S
C546 H571 0.950 . S
C547 C546 1.349 . S
C547 C563 1.349 . S
C548 C546 1.327 . S
C548 C567 1.429 . S
C548 H572 0.950 . S
C549 C566 1.574 . S
C549 C568 1.368 . S
C549 H573 0.949 . S
H550 C554 0.949 . S
C551 C552 1.349 . S
C551 C553 1.327 . S
C551 H574 0.950 . S
C552 C551 1.349 . S
C552 C564 1.349 . S
C553 C551 1.327 . S
C553 C569 1.429 . S
C553 H575 0.950 . S
C554 H550 0.949 . S
C554 C562 1.574 . S
C554 C570 1.368 . S
H555 C563 0.950 . S
H556 C561 0.950 . S
H557 C562 0.949 . S
H558 C564 0.950 . S
H559 C565 0.950 . S
H560 C566 0.949 . S
C561 H556 0.950 . S
C561 C563 1.327 . S
C561 C567 1.429 . S
C562 C554 1.574 . S
C562 H557 0.949 . S
C562 C568 1.368 . S
C563 C547 1.349 . S
C563 H555 0.950 . S
C563 C561 1.327 . S
C564 C552 1.349 . S
C564 H558 0.950 . S
C564 C565 1.327 . S
C565 H559 0.950 . S
C565 C564 1.327 . S
C565 C569 1.429 . S
C566 C549 1.574 . S
C566 H560 0.949 . S
C566 C570 1.368 . S
C567 C548 1.429 . S
C567 C561 1.429 . S
C567 C568 1.523 . S
C568 C549 1.368 . S
C568 C562 1.368 . S
C568 C567 1.523 . S
C569 C553 1.429 . S
C569 C565 1.429 . S
C569 C570 1.523 . S
C570 C554 1.368 . S
C570 C566 1.368 . S
C570 C569 1.523 . S
H571 C546 0.950 . S
H572 C548 0.950 . S
H573 C549 0.949 . S
H574 C551 0.950 . S
H575 C553 0.950 . S
C576 C577 1.349 . S
C576 C578 1.327 . S
C576 H601 0.950 . S
C577 C576 1.349 . S
C577 C593 1.349 . S
C578 C576 1.327 . S
C578 C597 1.429 . S
C578 H602 0.950 . S
C579 C596 1.572 1_655 S
C579 C598 1.370 . S
C579 H603 0.953 . S
H580 C584 0.953 . S
C581 C582 1.349 . S
C581 C583 1.327 . S
C581 H604 0.950 . S
C582 C581 1.349 . S
C582 C594 1.349 . S
C583 C581 1.327 . S
C583 C599 1.429 . S
C583 H605 0.950 . S
C584 H580 0.953 . S
C584 C592 1.572 1_455 S
C584 C600 1.370 . S
H585 C593 0.950 . S
H586 C591 0.950 . S
H587 C592 0.949 . S
H588 C594 0.950 . S
H589 C595 0.950 . S
H590 C596 0.949 . S
C591 H586 0.950 . S
C591 C593 1.327 . S
C591 C597 1.429 . S
C592 C584 1.572 1_655 S
C592 H587 0.949 . S
C592 C598 1.368 . S
C593 C577 1.349 . S
C593 H585 0.950 . S
C593 C591 1.327 . S
C594 C582 1.349 . S
C594 H588 0.950 . S
C594 C595 1.327 . S
C595 H589 0.950 . S
C595 C594 1.327 . S
C595 C599 1.429 . S
C596 C579 1.572 1_455 S
C596 H590 0.949 . S
C596 C600 1.368 . S
C597 C578 1.429 . S
C597 C591 1.429 . S
C597 C598 1.523 . S
C598 C579 1.370 . S
C598 C592 1.368 . S
C598 C597 1.523 . S
C599 C583 1.429 . S
C599 C595 1.429 . S
C599 C600 1.523 . S
C600 C584 1.370 . S
C600 C596 1.368 . S
C600 C599 1.523 . S
H601 C576 0.950 . S
H602 C578 0.950 . S
H603 C579 0.953 . S
H604 C581 0.950 . S
H605 C583 0.950 . S
C606 C607 1.349 . S
C606 C608 1.327 . S
C606 H631 0.950 . S
C607 C606 1.349 . S
C607 C623 1.349 . S
C608 C606 1.327 . S
C608 C627 1.429 . S
C608 H632 0.950 . S
C609 C626 1.574 1_565 S
C609 C628 1.368 1_556 S
C609 H633 0.949 . S
H610 C614 0.949 . S
C611 C612 1.349 . S
C611 C613 1.327 . S
C611 H634 0.950 . S
C612 C611 1.349 . S
C612 C624 1.349 . S
C613 C611 1.327 . S
C613 C629 1.429 . S
C613 H635 0.950 . S
C614 H610 0.949 . S
C614 C622 1.574 1_545 S
C614 C630 1.368 1_554 S
H615 C623 0.950 . S
H616 C621 0.950 . S
H617 C622 0.949 . S
H618 C624 0.950 . S
H619 C625 0.950 . S
H620 C626 0.949 . S
C621 H616 0.950 . S
C621 C623 1.327 . S
C621 C627 1.429 . S
C622 C614 1.574 1_565 S
C622 H617 0.949 . S
C622 C628 1.368 . S
C623 C607 1.349 . S
C623 H615 0.950 . S
C623 C621 1.327 . S
C624 C612 1.349 . S
C624 H618 0.950 . S
C624 C625 1.327 . S
C625 H619 0.950 . S
C625 C624 1.327 . S
C625 C629 1.429 . S
C626 C609 1.574 1_545 S
C626 H620 0.949 . S
C626 C630 1.368 . S
C627 C608 1.429 . S
C627 C621 1.429 . S
C627 C628 1.523 . S
C628 C609 1.368 1_554 S
C628 C622 1.368 . S
C628 C627 1.523 . S
C629 C613 1.429 . S
C629 C625 1.429 . S
C629 C630 1.523 . S
C630 C614 1.368 1_556 S
C630 C626 1.368 . S
C630 C629 1.523 . S
H631 C606 0.950 . S
H632 C608 0.950 . S
H633 C609 0.949 . S
H634 C611 0.950 . S
H635 C613 0.950 . S
C636 C637 1.349 . S
C636 C638 1.327 . S
C636 H661 0.950 . S
C637 C636 1.349 . S
C637 C653 1.349 . S
C638 C636 1.327 . S
C638 C657 1.429 . S
C638 H662 0.950 . S
C639 C656 1.574 . S
C639 C658 1.368 . S
C639 H663 0.949 . S
H640 C644 0.949 . S
C641 C642 1.349 . S
C641 C643 1.327 . S
C641 H664 0.950 . S
C642 C641 1.349 . S
C642 C654 1.349 . S
C643 C641 1.327 . S
C643 C659 1.429 . S
C643 H665 0.950 . S
C644 H640 0.949 . S
C644 C652 1.574 . S
C644 C660 1.368 . S
H645 C653 0.950 . S
H646 C651 0.950 . S
H647 C652 0.949 . S
H648 C654 0.950 . S
H649 C655 0.950 . S
H650 C656 0.949 . S
C651 H646 0.950 . S
C651 C653 1.327 . S
C651 C657 1.429 . S
C652 C644 1.574 . S
C652 H647 0.949 . S
C652 C658 1.368 . S
C653 C637 1.349 . S
C653 H645 0.950 . S
C653 C651 1.327 . S
C654 C642 1.349 . S
C654 H648 0.950 . S
C654 C655 1.327 . S
C655 H649 0.950 . S
C655 C654 1.327 . S
C655 C659 1.429 . S
C656 C639 1.574 . S
C656 H650 0.949 . S
C656 C660 1.368 . S
C657 C638 1.429 . S
C657 C651 1.429 . S
C657 C658 1.523 . S
C658 C639 1.368 . S
C658 C652 1.368 . S
C658 C657 1.523 . S
C659 C643 1.429 . S
C659 C655 1.429 . S
C659 C660 1.523 1_556 S
C660 C644 1.368 . S
C660 C656 1.368 . S
C660 C659 1.523 1_554 S
H661 C636 0.950 . S
H662 C638 0.950 . S
H663 C639 0.949 . S
H664 C641 0.950 . S
H665 C643 0.950 . S
C666 C667 1.349 . S
C666 C668 1.327 . S
C666 H691 0.950 . S
C667 C666 1.349 . S
C667 C683 1.349 . S
C668 C666 1.327 . S
C668 C687 1.429 . S
C668 H692 0.950 . S
C669 C686 1.574 . S
C669 C688 1.368 . S
C669 H693 0.949 . S
H670 C674 0.949 . S
C671 C672 1.349 . S
C671 C673 1.327 . S
C671 H694 0.950 . S
C672 C671 1.349 . S
C672 C684 1.349 . S
C673 C671 1.327 . S
C673 C689 1.429 . S
C673 H695 0.950 . S
C674 H670 0.949 . S
C674 C682 1.574 . S
C674 C690 1.368 . S
H675 C683 0.950 . S
H676 C681 0.950 . S
H677 C682 0.949 . S
H678 C684 0.950 . S
H679 C685 0.950 1_655 S
H680 C686 0.949 . S
C681 H676 0.950 . S
C681 C683 1.327 . S
C681 C687 1.429 . S
C682 C674 1.574 . S
C682 H677 0.949 . S
C682 C688 1.368 . S
C683 C667 1.349 . S
C683 H675 0.950 . S
C683 C681 1.327 . S
C684 C672 1.349 . S
C684 H678 0.950 . S
C684 C685 1.327 . S
C685 H679 0.950 1_455 S
C685 C684 1.327 . S
C685 C689 1.429 . S
C686 C669 1.574 . S
C686 H680 0.949 . S
C686 C690 1.368 . S
C687 C668 1.429 . S
C687 C681 1.429 . S
C687 C688 1.523 . S
C688 C669 1.368 . S
C688 C682 1.368 . S
C688 C687 1.523 . S
C689 C673 1.429 . S
C689 C685 1.429 . S
C689 C690 1.523 1_455 S
C690 C674 1.368 . S
C690 C686 1.368 . S
C690 C689 1.523 1_655 S
H691 C666 0.950 . S
H692 C668 0.950 . S
H693 C669 0.949 . S
H694 C671 0.950 . S
H695 C673 0.950 . S
C696 C697 1.349 . S
C696 C698 1.327 . S
C696 H721 0.950 . S
C697 C696 1.349 . S
C697 C713 1.349 . S
C698 C696 1.327 . S
C698 C717 1.429 . S
C698 H722 0.950 . S
C699 C716 1.574 . S
C699 C718 1.368 . S
C699 H723 0.949 . S
H700 C704 0.949 . S
C701 C702 1.349 . S
C701 C703 1.327 . S
C701 H724 0.950 . S
C702 C701 1.349 . S
C702 C714 1.349 . S
C703 C701 1.327 . S
C703 C719 1.429 . S
C703 H725 0.950 . S
C704 H700 0.949 . S
C704 C712 1.574 . S
C704 C720 1.368 . S
H705 C713 0.950 . S
H706 C711 0.950 1_565 S
H707 C712 0.949 . S
H708 C714 0.950 . S
H709 C715 0.950 . S
H710 C716 0.949 . S
C711 H706 0.950 1_545 S
C711 C713 1.327 . S
C711 C717 1.429 . S
C712 C704 1.574 . S
C712 H707 0.949 . S
C712 C718 1.368 . S
C713 C697 1.349 . S
C713 H705 0.950 . S
C713 C711 1.327 . S
C714 C702 1.349 . S
C714 H708 0.950 . S
C714 C715 1.327 . S
C715 H709 0.950 . S
C715 C714 1.327 . S
C715 C719 1.429 . S
C716 C699 1.574 . S
C716 H710 0.949 . S
C716 C720 1.368 . S
C717 C698 1.429 . S
C717 C711 1.429 . S
C717 C718 1.523 1_545 S
C718 C699 1.368 . S
C718 C712 1.368 . S
C718 C717 1.523 1_565 S
C719 C703 1.429 . S
C719 C715 1.429 . S
C719 C720 1.523 . S
C720 C704 1.368 . S
C720 C716 1.368 . S
C720 C719 1.523 . S
H721 C696 0.950 . S
H722 C698 0.950 . S
H723 C699 0.949 . S
H724 C701 0.950 . S
H725 C703 0.950 . S
C726 C727 1.349 . S
C726 C728 1.327 . S
C726 H751 0.950 . S
C727 C726 1.349 . S
C727 C743 1.349 . S
C728 C726 1.327 . S
C728 C747 1.429 . S
C728 H752 0.950 . S
C729 C746 1.574 . S
C729 C748 1.368 . S
C729 H753 0.949 . S
H730 C734 0.949 . S
C731 C732 1.349 . S
C731 C733 1.327 . S
C731 H754 0.950 . S
C732 C731 1.349 . S
C732 C744 1.349 . S
C733 C731 1.327 . S
C733 C749 1.429 . S
C733 H755 0.950 . S
C734 H730 0.949 . S
C734 C742 1.574 . S
C734 C750 1.368 . S
H735 C743 0.950 . S
H736 C741 0.950 . S
H737 C742 0.949 . S
H738 C744 0.950 . S
H739 C745 0.950 . S
H740 C746 0.949 . S
C741 H736 0.950 . S
C741 C743 1.327 . S
C741 C747 1.429 . S
C742 C734 1.574 . S
C742 H737 0.949 . S
C742 C748 1.368 . S
C743 C727 1.349 . S
C743 H735 0.950 . S
C743 C741 1.327 . S
C744 C732 1.349 . S
C744 H738 0.950 . S
C744 C745 1.327 . S
C745 H739 0.950 . S
C745 C744 1.327 . S
C745 C749 1.429 . S
C746 C729 1.574 . S
C746 H740 0.949 . S
C746 C750 1.368 . S
C747 C728 1.429 . S
C747 C741 1.429 . S
C747 C748 1.523 . S
C748 C729 1.368 . S
C748 C742 1.368 . S
C748 C747 1.523 . S
C749 C733 1.429 . S
C749 C745 1.429 . S
C749 C750 1.523 . S
C750 C734 1.368 . S
C750 C746 1.368 . S
C750 C749 1.523 . S
H751 C726 0.950 . S
H752 C728 0.950 . S
H753 C729 0.949 . S
H754 C731 0.950 . S
H755 C733 0.950 . S
C756 C757 1.349 . S
C756 C758 1.327 . S
C756 H781 0.950 . S
C757 C756 1.349 . S
C757 C773 1.349 . S
C758 C756 1.327 . S
C758 C777 1.429 . S
C758 H782 0.950 . S
C759 C776 1.574 . S
C759 C778 1.368 . S
C759 H783 0.949 . S
H760 C764 0.949 1_655 S
C761 C762 1.349 . S
C761 C763 1.327 . S
C761 H784 0.950 . S
C762 C761 1.349 . S
C762 C774 1.349 . S
C763 C761 1.327 . S
C763 C779 1.429 . S
C763 H785 0.950 1_655 S
C764 H760 0.949 1_455 S
C764 C772 1.574 . S
C764 C780 1.368 . S
H765 C773 0.950 . S
H766 C771 0.950 . S
H767 C772 0.949 . S
H768 C774 0.950 . S
H769 C775 0.950 . S
H770 C776 0.949 . S
C771 H766 0.950 . S
C771 C773 1.327 . S
C771 C777 1.429 . S
C772 C764 1.574 . S
C772 H767 0.949 . S
C772 C778 1.368 . S
C773 C757 1.349 . S
C773 H765 0.950 . S
C773 C771 1.327 . S
C774 C762 1.349 . S
C774 H768 0.950 . S
C774 C775 1.327 . S
C775 H769 0.950 . S
C775 C774 1.327 . S
C775 C779 1.429 . S
C776 C759 1.574 . S
C776 H770 0.949 . S
C776 C780 1.368 . S
C777 C758 1.429 . S
C777 C771 1.429 . S
C777 C778 1.523 . S
C778 C759 1.368 . S
C778 C772 1.368 . S
C778 C777 1.523 . S
C779 C763 1.429 . S
C779 C775 1.429 . S
C779 C780 1.523 1_655 S
C780 C764 1.368 . S
C780 C776 1.368 . S
C780 C779 1.523 1_455 S
H781 C756 0.950 . S
H782 C758 0.950 . S
H783 C759 0.949 . S
H784 C761 0.950 . S
H785 C763 0.950 1_455 S
C786 C787 1.349 . S
C786 C788 1.327 . S
C786 H811 0.950 . S
C787 C786 1.349 . S
C787 C803 1.349 . S
C788 C786 1.327 . S
C788 C807 1.429 . S
C788 H812 0.950 . S
C789 C806 1.574 . S
C789 C808 1.368 . S
C789 H813 0.949 . S
H790 C794 0.949 . S
C791 C792 1.349 . S
C791 C793 1.327 . S
C791 H814 0.950 . S
C792 C791 1.349 . S
C792 C804 1.349 . S
C793 C791 1.327 . S
C793 C809 1.429 . S
C793 H815 0.950 . S
C794 H790 0.949 . S
C794 C802 1.574 . S
C794 C810 1.368 . S
H795 C803 0.950 . S
H796 C801 0.950 . S
H797 C802 0.949 . S
H798 C804 0.950 . S
H799 C805 0.950 . S
H800 C806 0.949 . S
C801 H796 0.950 . S
C801 C803 1.327 . S
C801 C807 1.429 . S
C802 C794 1.574 . S
C802 H797 0.949 . S
C802 C808 1.368 . S
C803 C787 1.349 . S
C803 H795 0.950 . S
C803 C801 1.327 . S
C804 C792 1.349 . S
C804 H798 0.950 . S
C804 C805 1.327 . S
C805 H799 0.950 . S
C805 C804 1.327 . S
C805 C809 1.429 . S
C806 C789 1.574 . S
C806 H800 0.949 . S
C806 C810 1.368 . S
C807 C788 1.429 . S
C807 C801 1.429 . S
C807 C808 1.523 . S
C808 C789 1.368 . S
C808 C802 1.368 . S
C808 C807 1.523 . S
C809 C793 1.429 . S
C809 C805 1.429 . S
C809 C810 1.523 1_565 S
C810 C794 1.368 . S
C810 C806 1.368 . S
C810 C809 1.523 1_545 S
H811 C786 0.950 . S
H812 C788 0.950 . S
H813 C789 0.949 . S
H814 C791 0.950 . S
H815 C793 0.950 . S
C816 C817 1.349 . S
C816 C818 1.327 . S
C816 H841 0.950 . S
C817 C816 1.349 . S
C817 C833 1.349 . S
C818 C816 1.327 . S
C818 C837 1.429 . S
C818 H842 0.950 . S
C819 C836 1.574 . S
C819 C838 1.368 . S
C819 H843 0.949 . S
H820 C824 0.949 . S
C821 C822 1.349 . S
C821 C823 1.327 . S
C821 H844 0.950 . S
C822 C821 1.349 . S
C822 C834 1.349 . S
C823 C821 1.327 . S
C823 C839 1.429 . S
C823 H845 0.950 . S
C824 H820 0.949 . S
C824 C832 1.574 . S
C824 C840 1.368 . S
H825 C833 0.950 . S
H826 C831 0.950 . S
H827 C832 0.949 . S
H828 C834 0.950 . S
H829 C835 0.950 . S
H830 C836 0.949 . S
C831 H826 0.950 . S
C831 C833 1.327 . S
C831 C837 1.429 . S
C832 C824 1.574 . S
C832 H827 0.949 . S
C832 C838 1.368 . S
C833 C817 1.349 . S
C833 H825 0.950 . S
C833 C831 1.327 . S
C834 C822 1.349 . S
C834 H828 0.950 . S
C834 C835 1.327 . S
C835 H829 0.950 . S
C835 C834 1.327 . S
C835 C839 1.429 . S
C836 C819 1.574 . S
C836 H830 0.949 . S
C836 C840 1.368 . S
C837 C818 1.429 . S
C837 C831 1.429 . S
C837 C838 1.523 . S
C838 C819 1.368 . S
C838 C832 1.368 . S
C838 C837 1.523 . S
C839 C823 1.429 . S
C839 C835 1.429 . S
C839 C840 1.523 . S
C840 C824 1.368 . S
C840 C836 1.368 . S
C840 C839 1.523 . S
H841 C816 0.950 . S
H842 C818 0.950 . S
H843 C819 0.949 . S
H844 C821 0.950 . S
H845 C823 0.950 . S
C846 C847 1.349 . S
C846 C848 1.327 . S
C846 H871 0.950 . S
C847 C846 1.349 . S
C847 C863 1.349 . S
C848 C846 1.327 . S
C848 C867 1.429 . S
C848 H872 0.950 . S
C849 C866 1.574 . S
C849 C868 1.368 . S
C849 H873 0.949 . S
H850 C854 0.949 . S
C851 C852 1.349 . S
C851 C853 1.327 . S
C851 H874 0.950 . S
C852 C851 1.349 . S
C852 C864 1.349 . S
C853 C851 1.327 . S
C853 C869 1.429 . S
C853 H875 0.950 1_554 S
C854 H850 0.949 . S
C854 C862 1.574 1_554 S
C854 C870 1.368 1_554 S
H855 C863 0.950 . S
H856 C861 0.950 . S
H857 C862 0.949 . S
H858 C864 0.950 . S
H859 C865 0.950 1_655 S
H860 C866 0.949 1_455 S
C861 H856 0.950 . S
C861 C863 1.327 . S
C861 C867 1.429 . S
C862 C854 1.574 1_556 S
C862 H857 0.949 . S
C862 C868 1.368 . S
C863 C847 1.349 . S
C863 H855 0.950 . S
C863 C861 1.327 . S
C864 C852 1.349 . S
C864 H858 0.950 . S
C864 C865 1.327 . S
C865 H859 0.950 1_455 S
C865 C864 1.327 . S
C865 C869 1.429 . S
C866 C849 1.574 . S
C866 H860 0.949 1_655 S
C866 C870 1.368 . S
C867 C848 1.429 . S
C867 C861 1.429 . S
C867 C868 1.523 . S
C868 C849 1.368 . S
C868 C862 1.368 . S
C868 C867 1.523 . S
C869 C853 1.429 . S
C869 C865 1.429 . S
C869 C870 1.523 1_454 S
C870 C854 1.368 1_556 S
C870 C866 1.368 . S
C870 C869 1.523 1_656 S
H871 C846 0.950 . S
H872 C848 0.950 . S
H873 C849 0.949 . S
H874 C851 0.950 . S
H875 C853 0.950 1_556 S
C876 C877 1.349 . S
C876 C878 1.327 . S
C876 H901 0.950 . S
C877 C876 1.349 . S
C877 C893 1.349 . S
C878 C876 1.327 . S
C878 C897 1.429 . S
C878 H902 0.950 . S
C879 C896 1.574 . S
C879 C898 1.368 . S
C879 H903 0.949 . S
H880 C884 0.949 1_545 S
C881 C882 1.349 . S
C881 C883 1.327 . S
C881 H904 0.950 . S
C882 C881 1.349 . S
C882 C894 1.349 . S
C883 C881 1.327 . S
C883 C899 1.429 . S
C883 H905 0.950 1_545 S
C884 H880 0.949 1_565 S
C884 C892 1.574 . S
C884 C900 1.368 . S
H885 C893 0.950 . S
H886 C891 0.950 . S
H887 C892 0.949 . S
H888 C894 0.950 . S
H889 C895 0.950 . S
H890 C896 0.949 . S
C891 H886 0.950 . S
C891 C893 1.327 . S
C891 C897 1.429 . S
C892 C884 1.574 . S
C892 H887 0.949 . S
C892 C898 1.368 . S
C893 C877 1.349 . S
C893 H885 0.950 . S
C893 C891 1.327 . S
C894 C882 1.349 . S
C894 H888 0.950 . S
C894 C895 1.327 . S
C895 H889 0.950 . S
C895 C894 1.327 . S
C895 C899 1.429 . S
C896 C879 1.574 . S
C896 H890 0.949 . S
C896 C900 1.368 . S
C897 C878 1.429 . S
C897 C891 1.429 . S
C897 C898 1.523 . S
C898 C879 1.368 . S
C898 C892 1.368 . S
C898 C897 1.523 . S
C899 C883 1.429 . S
C899 C895 1.429 . S
C899 C900 1.523 1_545 S
C900 C884 1.368 . S
C900 C896 1.368 . S
C900 C899 1.523 1_565 S
H901 C876 0.950 . S
H902 C878 0.950 . S
H903 C879 0.949 . S
H904 C881 0.950 . S
H905 C883 0.950 1_565 S
C906 C907 1.349 . S
C906 C908 1.327 . S
C906 H931 0.950 . S
C907 C906 1.349 . S
C907 C923 1.349 . S
C908 C906 1.327 . S
C908 C927 1.429 . S
C908 H932 0.950 . S
C909 C926 1.574 . S
C909 C928 1.368 . S
C909 H933 0.949 . S
H910 C914 0.949 . S
C911 C912 1.349 . S
C911 C913 1.327 . S
C911 H934 0.950 . S
C912 C911 1.349 . S
C912 C924 1.349 . S
C913 C911 1.327 . S
C913 C929 1.429 . S
C913 H935 0.950 . S
C914 H910 0.949 . S
C914 C922 1.574 . S
C914 C930 1.368 . S
H915 C923 0.950 . S
H916 C921 0.950 . S
H917 C922 0.949 . S
H918 C924 0.950 . S
H919 C925 0.950 . S
H920 C926 0.949 . S
C921 H916 0.950 . S
C921 C923 1.327 . S
C921 C927 1.429 . S
C922 C914 1.574 . S
C922 H917 0.949 . S
C922 C928 1.368 . S
C923 C907 1.349 . S
C923 H915 0.950 . S
C923 C921 1.327 . S
C924 C912 1.349 . S
C924 H918 0.950 . S
C924 C925 1.327 . S
C925 H919 0.950 . S
C925 C924 1.327 . S
C925 C929 1.429 . S
C926 C909 1.574 . S
C926 H920 0.949 . S
C926 C930 1.368 . S
C927 C908 1.429 . S
C927 C921 1.429 . S
C927 C928 1.523 . S
C928 C909 1.368 . S
C928 C922 1.368 . S
C928 C927 1.523 . S
C929 C913 1.429 . S
C929 C925 1.429 . S
C929 C930 1.523 . S
C930 C914 1.368 . S
C930 C926 1.368 . S
C930 C929 1.523 . S
H931 C906 0.950 . S
H932 C908 0.950 . S
H933 C909 0.949 . S
H934 C911 0.950 . S
H935 C913 0.950 . S
C936 C937 1.349 . S
C936 C938 1.327 . S
C936 H961 0.950 . S
C937 C936 1.349 . S
C937 C953 1.349 . S
C938 C936 1.327 . S
C938 C957 1.429 . S
C938 H962 0.950 . S
C939 C956 1.574 . S
C939 C958 1.368 . S
C939 H963 0.949 . S
H940 C944 0.949 . S
C941 C942 1.349 . S
C941 C943 1.327 . S
C941 H964 0.950 . S
C942 C941 1.349 . S
C942 C954 1.349 . S
C943 C941 1.327 . S
C943 C959 1.429 . S
C943 H965 0.950 . S
C944 H940 0.949 . S
C944 C952 1.574 . S
C944 C960 1.368 . S
H945 C953 0.950 . S
H946 C951 0.950 . S
H947 C952 0.949 . S
H948 C954 0.950 . S
H949 C955 0.950 1_455 S
H950 C956 0.949 1_655 S
C951 H946 0.950 . S
C951 C953 1.327 . S
C951 C957 1.429 . S
C952 C944 1.574 . S
C952 H947 0.949 . S
C952 C958 1.368 . S
C953 C937 1.349 . S
C953 H945 0.950 . S
C953 C951 1.327 . S
C954 C942 1.349 . S
C954 H948 0.950 . S
C954 C955 1.327 . S
C955 H949 0.950 1_655 S
C955 C954 1.327 . S
C955 C959 1.429 . S
C956 C939 1.574 . S
C956 H950 0.949 1_455 S
C956 C960 1.368 . S
C957 C938 1.429 . S
C957 C951 1.429 . S
C957 C958 1.523 . S
C958 C939 1.368 . S
C958 C952 1.368 . S
C958 C957 1.523 . S
C959 C943 1.429 . S
C959 C955 1.429 . S
C959 C960 1.523 1_655 S
C960 C944 1.368 . S
C960 C956 1.368 . S
C960 C959 1.523 1_455 S
H961 C936 0.950 . S
H962 C938 0.950 . S
H963 C939 0.949 . S
H964 C941 0.950 . S
H965 C943 0.950 . S
C966 C967 1.349 . S
C966 C968 1.327 . S
C966 H991 0.950 . S
C967 C966 1.349 . S
C967 C983 1.349 . S
C968 C966 1.327 . S
C968 C987 1.429 . S
C968 H992 0.950 . S
C969 C986 1.574 . S
C969 C988 1.368 . S
C969 H993 0.949 . S
H970 C974 0.949 . S
C971 C972 1.349 . S
C971 C973 1.327 . S
C971 H994 0.950 . S
C972 C971 1.349 . S
C972 C984 1.349 . S
C973 C971 1.327 . S
C973 C989 1.429 . S
C973 H995 0.950 . S
C974 H970 0.949 . S
C974 C982 1.574 . S
C974 C990 1.368 . S
H975 C983 0.950 . S
H976 C981 0.950 . S
H977 C982 0.949 . S
H978 C984 0.950 . S
H979 C985 0.950 . S
H980 C986 0.949 . S
C981 H976 0.950 . S
C981 C983 1.327 . S
C981 C987 1.429 . S
C982 C974 1.574 . S
C982 H977 0.949 . S
C982 C988 1.368 . S
C983 C967 1.349 . S
C983 H975 0.950 . S
C983 C981 1.327 . S
C984 C972 1.349 . S
C984 H978 0.950 . S
C984 C985 1.327 . S
C985 H979 0.950 . S
C985 C984 1.327 . S
C985 C989 1.429 . S
C986 C969 1.574 . S
C986 H980 0.949 . S
C986 C990 1.368 . S
C987 C968 1.429 . S
C987 C981 1.429 . S
C987 C988 1.523 1_565 S
C988 C969 1.368 . S
C988 C982 1.368 . S
C988 C987 1.523 1_545 S
C989 C973 1.429 . S
C989 C985 1.429 . S
C989 C990 1.523 . S
C990 C974 1.368 . S
C990 C986 1.368 . S
C990 C989 1.523 . S
H991 C966 0.950 . S
H992 C968 0.950 . S
H993 C969 0.949 . S
H994 C971 0.950 . S
H995 C973 0.950 . S
C277 N196 1.636 . S
C282 N12 1.636 . S
C307 N35 1.636 . S
C312 N219 1.636 . S
C337 N58 1.635 . S
C342 N242 1.635 . S
C367 N81 1.636 . S
C372 N265 1.636 . S
C397 N150 1.636 . S
C402 N104 1.636 . S
C427 N127 1.635 . S
C432 N173 1.635 . S
C457 N209 1.170 . S
C462 N2 1.170 . S
C487 N25 1.170 . S
C492 N232 1.170 . S
C517 N255 1.170 . S
C522 N48 1.170 . S
C547 N71 1.170 . S
C552 N140 1.170 . S
C577 N163 1.170 . S
C582 N94 1.170 . S
C607 N186 1.170 . S
C612 N117 1.170 . S
C637 C16 2.015 . S
C642 C122 1.999 . S
C667 C39 2.015 . S
C672 C7 1.999 . S
C697 C30 1.999 . S
C702 C62 2.015 . S
C727 C85 2.015 . S
C732 C53 1.999 . S
C757 C108 2.015 . S
C762 C76 1.999 . S
C787 C131 2.015 . S
C792 C99 1.999 . S
C817 C154 2.015 . S
C822 C168 1.999 . S
C847 C177 2.015 . S
C852 C191 1.999 . S
C877 C200 2.015 . S
C882 C214 1.999 . S
C907 C223 2.015 . S
C912 C237 1.999 . S
C937 C246 2.015 . S
C942 C260 1.999 . S
C967 C145 1.999 . S
C972 C269 2.015 . S
