# Generated by pormake.
# Topology unh, (4)-cn, num edge types: 1
# Building blocks:
#     Node 0, Type 0, BuildingBlock: QUQFOY_clean_sbu_1, # of connection points: 4
#     Node 1, Type 0, BuildingBlock: QUQFOY_clean_sbu_1, # of connection points: 4
#     Node 2, Type 0, BuildingBlock: QUQFOY_clean_sbu_1, # of connection points: 4
#     Node 3, Type 0, BuildingBlock: QUQFOY_clean_sbu_1, # of connection points: 4
#     Node 4, Type 0, BuildingBlock: QUQFOY_clean_sbu_1, # of connection points: 4
#     Node 5, Type 0, BuildingBlock: QUQFOY_clean_sbu_1, # of connection points: 4
#     Edge 6, Type (0, 0), BuildingBlock: UVAHIK_clean_linker_0, # of connection points: 2
#     Edge 7, Type (0, 0), BuildingBlock: UVAHIK_clean_linker_0, # of connection points: 2
#     Edge 8, Type (0, 0), BuildingBlock: UVAHIK_clean_linker_0, # of connection points: 2
#     Edge 9, Type (0, 0), BuildingBlock: UVAHIK_clean_linker_0, # of connection points: 2
#     Edge 10, Type (0, 0), BuildingBlock: UVAHIK_clean_linker_0, # of connection points: 2
#     Edge 11, Type (0, 0), BuildingBlock: UVAHIK_clean_linker_0, # of connection points: 2
#     Edge 12, Type (0, 0), BuildingBlock: UVAHIK_clean_linker_0, # of connection points: 2
#     Edge 13, Type (0, 0), BuildingBlock: UVAHIK_clean_linker_0, # of connection points: 2
#     Edge 14, Type (0, 0), BuildingBlock: UVAHIK_clean_linker_0, # of connection points: 2
#     Edge 15, Type (0, 0), BuildingBlock: UVAHIK_clean_linker_0, # of connection points: 2
#     Edge 16, Type (0, 0), BuildingBlock: UVAHIK_clean_linker_0, # of connection points: 2
#     Edge 17, Type (0, 0), BuildingBlock: UVAHIK_clean_linker_0, # of connection points: 2
# Relax obj value: 0.055
# Max RMSD: 0.146
# Mean RMSD: 0.146
data_MOF--net-unh--node1-QUQFOY_clean_sbu_1--edge1-UVAHIK_clean_linker_0
_symmetry_space_group_name_H-M    P1
_symmetry_Int_Tables_number       1
_symmetry_cell_setting            triclinic
loop_
_symmetry_equiv_pos_as_xyz
'x, y, z'
_cell_length_a     56.314683
_cell_length_b     56.31711
_cell_length_c     29.336871
_cell_angle_alpha  90.002289
_cell_angle_beta   89.983661
_cell_angle_gamma 119.9808
loop_
_atom_site_label
_atom_site_type_symbol
_atom_site_fract_x
_atom_site_fract_y
_atom_site_fract_z
_atom_type_partial_charge
O0 O 0.08699 0.56159 0.02253 0.0
Cd1 Cd 0.11405 0.58977 0.06851 0.0
Cd2 Cd 0.14316 0.56459 0.04977 0.0
O3 O 0.10836 0.53805 0.01363 0.0
O4 O 0.09262 0.59992 0.11039 0.0
O5 O 0.11288 0.57671 0.13209 0.0
C6 C 0.09759 0.58706 0.14204 0.0
C7 C 0.16289 0.54778 0.10107 0.0
C8 C 0.08804 0.54139 0.00543 0.0
C9 C 0.16831 0.6246 0.02487 0.0
O10 O 0.16954 0.60269 0.02244 0.0
O11 O 0.14798 0.62448 0.04396 0.0
O12 O 0.16559 0.5464 0.05764 0.0
O13 O 0.14817 0.55795 0.11533 0.0
O14 O 0.52438 0.08658 0.1906 0.0
Cd15 Cd 0.52338 0.11399 0.23591 0.0
Cd16 Cd 0.57781 0.14311 0.21607 0.0
O17 O 0.56923 0.10786 0.18094 0.0
O18 O 0.49298 0.09286 0.28014 0.0
O19 O 0.537 0.11446 0.29865 0.0
C20 C 0.51175 0.09889 0.31053 0.0
C21 C 0.61494 0.16359 0.26617 0.0
C22 C 0.54553 0.08745 0.17341 0.0
C23 C 0.54236 0.1678 0.19117 0.0
O24 O 0.56551 0.16904 0.18867 0.0
O25 O 0.52223 0.14759 0.21064 0.0
O26 O 0.61854 0.16586 0.22262 0.0
O27 O 0.59024 0.14888 0.28121 0.0
O28 O 0.43623 0.52383 0.35784 0.0
Cd29 Cd 0.40813 0.52295 0.40378 0.0
Cd30 Cd 0.43369 0.57747 0.38432 0.0
O31 O 0.46018 0.56873 0.34893 0.0
O32 O 0.39911 0.49263 0.4481 0.0
O33 O 0.42185 0.53671 0.46621 0.0
C34 C 0.4122 0.51149 0.47822 0.0
C35 C 0.45041 0.61453 0.4346 0.0
C36 C 0.45662 0.54496 0.34087 0.0
C37 C 0.37346 0.54238 0.35986 0.0
O38 O 0.39549 0.5654 0.35714 0.0
O39 O 0.3734 0.52216 0.37926 0.0
O40 O 0.45183 0.61821 0.39106 0.0
O41 O 0.44036 0.5898 0.4495 0.0
O42 O 0.91247 0.43763 0.52284 0.0
Cd43 Cd 0.88531 0.40932 0.56857 0.0
Cd44 Cd 0.85655 0.43496 0.55063 0.0
O45 O 0.89153 0.46165 0.51496 0.0
O46 O 0.90661 0.39891 0.6103 0.0
O47 O 0.88649 0.42221 0.63223 0.0
C48 C 0.9017 0.41177 0.64205 0.0
C49 C 0.83668 0.45131 0.60254 0.0
C50 C 0.91168 0.4581 0.50634 0.0
C51 C 0.83111 0.3751 0.52453 0.0
O52 O 0.83013 0.39715 0.52246 0.0
O53 O 0.85126 0.37488 0.54365 0.0
O54 O 0.83422 0.45323 0.55918 0.0
O55 O 0.8513 0.44094 0.6164 0.0
O56 O 0.47432 0.91217 0.69454 0.0
Cd57 Cd 0.47336 0.88362 0.73954 0.0
Cd58 Cd 0.41971 0.85661 0.71594 0.0
O59 O 0.4299 0.89235 0.6811 0.0
O60 O 0.50489 0.9037 0.78211 0.0
O61 O 0.46141 0.88466 0.8032 0.0
C62 C 0.48707 0.89913 0.81357 0.0
C63 C 0.38306 0.83723 0.76692 0.0
C64 C 0.45411 0.91234 0.67559 0.0
C65 C 0.45347 0.83012 0.69254 0.0
O66 O 0.43088 0.82989 0.68839 0.0
O67 O 0.47341 0.84952 0.7138 0.0
O68 O 0.37901 0.83508 0.72345 0.0
O69 O 0.40798 0.85134 0.78135 0.0
O70 O 0.56357 0.47518 0.86128 0.0
Cd71 Cd 0.59067 0.47406 0.90722 0.0
Cd72 Cd 0.5642 0.42043 0.88349 0.0
O73 O 0.539 0.43075 0.84785 0.0
O74 O 0.6016 0.50537 0.95012 0.0
O75 O 0.5769 0.46178 0.97043 0.0
C76 C 0.58796 0.48737 0.98115 0.0
C77 C 0.5463 0.38351 0.93397 0.0
C78 C 0.54331 0.45498 0.84207 0.0
C79 C 0.62467 0.45414 0.86165 0.0
O80 O 0.60233 0.43159 0.85702 0.0
O81 O 0.62505 0.47407 0.88268 0.0
O82 O 0.54489 0.37969 0.89046 0.0
O83 O 0.557 0.40836 0.94871 0.0
C84 C 0.04299 0.52537 0.96636 0.0
C85 C 0.06574 0.52208 0.97494 0.0
C86 C 0.0226 0.50809 0.93588 0.0
C87 C 0.01251 0.46488 0.83619 0.0
H88 H 0.9357 0.4413 0.85526 0.0
C89 C 0.93283 0.40636 0.6967 0.0
C90 C 0.91506 0.41648 0.68715 0.0
C91 C 0.94841 0.41402 0.73668 0.0
C92 C 0.95708 0.44778 0.8494 0.0
H93 H 0.08442 0.4974 0.95917 0.0
H94 H 0.04872 0.46718 0.90599 0.0
H95 H 0.96865 0.46471 0.9165 0.0
H96 H 0.89856 0.44134 0.71319 0.0
H97 H 0.92595 0.45497 0.78249 0.0
H98 H 0.00124 0.44881 0.76875 0.0
C99 C 0.04686 0.48336 0.92257 0.0
C100 C 0.97594 0.46119 0.88446 0.0
C101 C 0.06726 0.50063 0.95317 0.0
C102 C 0.9121 0.43321 0.71951 0.0
C103 C 0.92771 0.44091 0.75942 0.0
C104 C 0.99369 0.45153 0.80116 0.0
C105 C 0.02446 0.4871 0.91319 0.0
C106 C 0.00395 0.47034 0.87793 0.0
C107 C 0.94658 0.43199 0.7679 0.0
C108 C 0.96583 0.44327 0.80703 0.0
H109 H 0.04112 0.54164 0.98259 0.0
H110 H 0.0058 0.51176 0.92899 0.0
H111 H 0.03398 0.472 0.82981 0.0
H112 H 0.93543 0.39327 0.67261 0.0
H113 H 0.9624 0.4064 0.74259 0.0
C114 C 0.52367 0.92932 0.86883 0.0
C115 C 0.49573 0.91219 0.85886 0.0
C116 C 0.53174 0.9449 0.90879 0.0
C117 C 0.50683 0.95489 0.02073 0.0
H118 H 0.5606 0.03134 0.00021 0.0
C119 C 0.51622 0.04215 0.13528 0.0
C120 C 0.54236 0.0648 0.14361 0.0
C121 C 0.51293 0.02141 0.10545 0.0
C122 C 0.54595 0.00999 0.00688 0.0
H123 H 0.45439 0.89674 0.88427 0.0
H124 H 0.46843 0.92414 0.95359 0.0
H125 H 0.55069 0.99808 0.93989 0.0
H126 H 0.58568 0.08291 0.12814 0.0
H127 H 0.5799 0.04658 0.07614 0.0
H128 H 0.50154 0.96709 0.08738 0.0
C129 C 0.48416 0.9254 0.93082 0.0
C130 C 0.54027 0.99088 0.97226 0.0
C131 C 0.47609 0.90978 0.8909 0.0
C132 C 0.56523 0.06585 0.12229 0.0
C133 C 0.56192 0.04508 0.09236 0.0
C134 C 0.5125 0.97404 0.05539 0.0
C135 C 0.51204 0.94372 0.93959 0.0
C136 C 0.52027 0.96319 0.97844 0.0
C137 C 0.53569 0.02279 0.0832 0.0
C138 C 0.53175 0.0019 0.04851 0.0
H139 H 0.53932 0.93148 0.845 0.0
H140 H 0.5534 0.95846 0.91496 0.0
H141 H 0.4916 0.93364 0.0268 0.0
H142 H 0.49815 0.04064 0.15117 0.0
H143 H 0.4924 0.00472 0.0987 0.0
C144 C 0.47222 0.51551 0.30205 0.0
C145 C 0.47595 0.54171 0.3108 0.0
C146 C 0.4896 0.51217 0.27208 0.0
C147 C 0.53443 0.54538 0.17399 0.0
H148 H 0.55602 0.49067 0.19357 0.0
C149 C 0.59372 0.52366 0.03662 0.0
C150 C 0.58303 0.49578 0.0263 0.0
C151 C 0.58582 0.53151 0.07643 0.0
C152 C 0.55011 0.50599 0.18758 0.0
H153 H 0.50145 0.58506 0.29586 0.0
H154 H 0.53186 0.57918 0.24362 0.0
H155 H 0.5323 0.50045 0.25401 0.0
H156 H 0.5569 0.4543 0.05091 0.0
H157 H 0.54289 0.46796 0.11996 0.0
H158 H 0.55143 0.5504 0.1072 0.0
C159 C 0.51527 0.56121 0.25963 0.0
C160 C 0.53652 0.51158 0.22217 0.0
C161 C 0.49789 0.56457 0.2897 0.0
C162 C 0.56548 0.47597 0.05783 0.0
C163 C 0.55756 0.48381 0.09759 0.0
C164 C 0.54799 0.53979 0.13943 0.0
C165 C 0.51112 0.53493 0.2501 0.0
C166 C 0.52807 0.53097 0.21543 0.0
C167 C 0.56705 0.51165 0.10673 0.0
C168 C 0.55554 0.51967 0.14549 0.0
H169 H 0.45557 0.49744 0.31775 0.0
H170 H 0.4856 0.49161 0.26504 0.0
H171 H 0.52788 0.56016 0.16742 0.0
H172 H 0.60744 0.53945 0.0132 0.0
H173 H 0.59388 0.55314 0.0829 0.0
C174 C 0.95665 0.47394 0.46709 0.0
C175 C 0.93405 0.47744 0.47596 0.0
C176 C 0.97706 0.49118 0.43658 0.0
C177 C 0.98722 0.53455 0.33714 0.0
H178 H 0.06394 0.55744 0.35532 0.0
C179 C 0.06667 0.59259 0.19701 0.0
C180 C 0.08427 0.5823 0.18719 0.0
C181 C 0.05118 0.585 0.23709 0.0
C182 C 0.04258 0.55115 0.34971 0.0
H183 H 0.91567 0.50244 0.46072 0.0
H184 H 0.9514 0.53259 0.40746 0.0
H185 H 0.03113 0.53427 0.41687 0.0
H186 H 0.10055 0.55717 0.21285 0.0
H187 H 0.0733 0.54365 0.28235 0.0
H188 H 0.99838 0.55057 0.26964 0.0
C189 C 0.95313 0.51629 0.42384 0.0
C190 C 0.0238 0.53788 0.38494 0.0
C191 C 0.93272 0.49907 0.45449 0.0
C192 C 0.08714 0.56544 0.21938 0.0
C193 C 0.07162 0.5578 0.2594 0.0
C194 C 0.00597 0.54776 0.30193 0.0
C195 C 0.97536 0.51232 0.41414 0.0
C196 C 0.99582 0.52898 0.37873 0.0
C197 C 0.05293 0.56692 0.26817 0.0
C198 C 0.03378 0.55577 0.30748 0.0
H199 H 0.95839 0.45754 0.48309 0.0
H200 H 0.99372 0.48734 0.42944 0.0
H201 H 0.96577 0.52763 0.331 0.0
H202 H 0.06415 0.60579 0.17306 0.0
H203 H 0.03733 0.59277 0.24322 0.0
C204 C 0.47782 0.06596 0.3668 0.0
C205 C 0.50479 0.08636 0.35641 0.0
C206 C 0.47204 0.05118 0.40751 0.0
C207 C 0.50653 0.02946 0.4893 0.0
H208 H 0.439 0.00158 0.55815 0.0
C209 C 0.48537 0.95894 0.64334 0.0
C210 C 0.45909 0.93563 0.64585 0.0
C211 C 0.4907 0.9802 0.61318 0.0
C212 C 0.45789 0.0091 0.53909 0.0
H213 H 0.54649 0.1086 0.38196 0.0
H214 H 0.53632 0.08309 0.4532 0.0
H215 H 0.44883 0.03458 0.4967 0.0
H216 H 0.41757 0.91685 0.61965 0.0
H217 H 0.42704 0.95379 0.5663 0.0
H218 H 0.51537 0.00361 0.53055 0.0
C219 C 0.51975 0.0781 0.42947 0.0
C220 C 0.46353 0.02803 0.50398 0.0
C221 C 0.52554 0.09282 0.38875 0.0
C222 C 0.43804 0.9345 0.61853 0.0
C223 C 0.44343 0.95576 0.58814 0.0
C224 C 0.5009 0.01059 0.52424 0.0
C225 C 0.4931 0.05655 0.43868 0.0
C226 C 0.48783 0.03823 0.47843 0.0
C227 C 0.46995 0.97864 0.58458 0.0
C228 C 0.47641 -2e-05 0.54932 0.0
H229 H 0.46137 0.06052 0.3426 0.0
H230 H 0.45133 0.03461 0.4134 0.0
H231 H 0.52516 0.03643 0.4697 0.0
H232 H 0.50199 0.96065 0.66428 0.0
H233 H 0.51123 0.99777 0.61191 0.0
C234 C 0.52833 0.4863 0.80877 0.0
C235 C 0.52517 0.45996 0.81188 0.0
C236 C 0.5124 0.49155 0.77846 0.0
C237 C 0.45019 0.4584 0.70562 0.0
H238 H 0.48969 0.52522 0.63499 0.0
C239 C 0.4117 0.47771 0.5343 0.0
C240 C 0.41821 0.50465 0.52387 0.0
C241 C 0.42112 0.47204 0.57468 0.0
C242 C 0.47817 0.50672 0.65494 0.0
H243 H 0.50215 0.41827 0.78649 0.0
H244 H 0.47469 0.42757 0.73291 0.0
H245 H 0.51317 0.51567 0.6954 0.0
H246 H 0.43805 0.54646 0.54903 0.0
H247 H 0.45411 0.5365 0.61967 0.0
H248 H 0.41532 0.44923 0.66404 0.0
C249 C 0.48925 0.44409 0.7544 0.0
C250 C 0.49166 0.50122 0.68962 0.0
C251 C 0.50513 0.43879 0.78491 0.0
C252 C 0.4329 0.52552 0.55586 0.0
C253 C 0.44225 0.51985 0.59622 0.0
C254 C 0.43665 0.4639 0.67076 0.0
C255 C 0.49301 0.47064 0.75032 0.0
C256 C 0.47793 0.47691 0.71517 0.0
C257 C 0.43718 0.49321 0.60544 0.0
C258 C 0.45058 0.48804 0.6448 0.0
H259 H 0.54335 0.50303 0.8294 0.0
H260 H 0.51546 0.51211 0.77679 0.0
H261 H 0.43893 0.43965 0.72505 0.0
H262 H 0.4004 0.46117 0.51037 0.0
H263 H 0.41699 0.45134 0.5806 0.0
C264 C 0.19504 0.53024 0.11703 0.0
C265 C 0.17786 0.5398 0.13335 0.0
C266 C 0.21176 0.52583 0.14692 0.0
C267 C 0.24628 0.55046 0.25683 0.0
H268 H 0.26585 0.49413 0.23907 0.0
C269 C 0.32381 0.51363 0.3378 0.0
C270 C 0.34794 0.53933 0.33972 0.0
C271 C 0.30009 0.51094 0.31746 0.0
C272 C 0.26035 0.50977 0.24491 0.0
H273 H 0.16365 0.5508 0.1942 0.0
H274 H 0.1927 0.54288 0.24647 0.0
H275 H 0.22821 0.49253 0.19522 0.0
H276 H 0.36589 0.58239 0.32229 0.0
H277 H 0.32478 0.57765 0.28682 0.0
H278 H 0.27855 0.56787 0.30612 0.0
C279 C 0.19354 0.5392 0.21042 0.0
C280 C 0.23897 0.509 0.21948 0.0
C281 C 0.17679 0.5436 0.1805 0.0
C282 C 0.3477 0.56228 0.32145 0.0
C283 C 0.32403 0.55961 0.30139 0.0
C284 C 0.26765 0.55125 0.28215 0.0
C285 C 0.21168 0.53088 0.19384 0.0
C286 C 0.23206 0.52965 0.2245 0.0
C287 C 0.29999 0.53392 0.29897 0.0
C288 C 0.27533 0.53126 0.27577 0.0
H289 H 0.19633 0.52707 0.0809 0.0
H290 H 0.22567 0.5197 0.13291 0.0
H291 H 0.24169 0.56684 0.2613 0.0
H292 H 0.32329 0.49553 0.35158 0.0
H293 H 0.28182 0.4909 0.31635 0.0
C294 C 0.66463 0.19648 0.28076 0.0
C295 C 0.63815 0.17901 0.29779 0.0
C296 C 0.6859 0.21357 0.31013 0.0
C297 C 0.73045 0.24143 0.38186 0.0
H298 H 0.711 0.2804 0.46957 0.0
C299 C 0.81039 0.32569 0.50119 0.0
C300 C 0.80872 0.34975 0.50388 0.0
C301 C 0.78947 0.30213 0.48035 0.0
C302 C 0.71676 0.26968 0.44528 0.0
H303 H 0.61356 0.16467 0.3593 0.0
H304 H 0.65078 0.19434 0.41062 0.0
H305 H 0.6752 0.24344 0.42487 0.0
H306 H 0.78353 0.36774 0.48723 0.0
H307 H 0.74731 0.32688 0.45091 0.0
H308 H 0.7722 0.26853 0.40112 0.0
C309 C 0.65498 0.19514 0.37445 0.0
C310 C 0.69621 0.24826 0.42003 0.0
C311 C 0.6337 0.17804 0.34506 0.0
C312 C 0.78552 0.34959 0.48582 0.0
C313 C 0.76462 0.32608 0.46526 0.0
C314 C 0.75105 0.26285 0.40725 0.0
C315 C 0.68117 0.21356 0.3572 0.0
C316 C 0.70284 0.23421 0.38741 0.0
C317 C 0.76638 0.30211 0.46209 0.0
C318 C 0.74445 0.27758 0.43855 0.0
H319 H 0.66875 0.19771 0.24451 0.0
H320 H 0.70574 0.22769 0.29564 0.0
H321 H 0.7362 0.23082 0.35733 0.0
H322 H 0.82797 0.3251 0.51478 0.0
H323 H 0.79131 0.2839 0.47869 0.0
C324 C 0.48202 0.80897 0.67077 0.0
C325 C 0.45646 0.80775 0.67187 0.0
C326 C 0.48473 0.78808 0.64993 0.0
C327 C 0.44447 0.71592 0.61249 0.0
H328 H 0.50421 0.7354 0.52751 0.0
C329 C 0.46745 0.66425 0.44948 0.0
C330 C 0.45808 0.63767 0.46633 0.0
C331 C 0.47142 0.68545 0.47888 0.0
C332 C 0.48746 0.72965 0.55123 0.0
H333 H 0.41365 0.78341 0.6524 0.0
H334 H 0.41843 0.74722 0.61616 0.0
H335 H 0.50217 0.77132 0.57115 0.0
H336 H 0.44697 0.61281 0.52762 0.0
H337 H 0.45408 0.64988 0.57896 0.0
H338 H 0.42915 0.67444 0.59148 0.0
C339 C 0.43633 0.76416 0.6317 0.0
C340 C 0.48642 0.75018 0.57651 0.0
C341 C 0.43365 0.78504 0.65222 0.0
C342 C 0.45404 0.63303 0.5135 0.0
C343 C 0.45797 0.65423 0.5429 0.0
C344 C 0.44556 0.69542 0.5874 0.0
C345 C 0.4619 0.76547 0.63013 0.0
C346 C 0.4646 0.74357 0.60672 0.0
C347 C 0.46607 0.68051 0.52577 0.0
C348 C 0.46678 0.70208 0.55586 0.0
H349 H 0.5 0.82617 0.68559 0.0
H350 H 0.50466 0.78955 0.64949 0.0
H351 H 0.42759 0.71015 0.63592 0.0
H352 H 0.47079 0.66851 0.41332 0.0
H353 H 0.47744 0.70538 0.4645 0.0
C354 C 0.65013 0.43436 0.8218 0.0
C355 C 0.65019 0.45709 0.84171 0.0
C356 C 0.67382 0.43703 0.80176 0.0
C357 C 0.73841 0.48742 0.74831 0.0
H358 H 0.7559 0.4293 0.76081 0.0
C359 C 0.82196 0.45403 0.68208 0.0
C360 C 0.82149 0.45884 0.63517 0.0
C361 C 0.80492 0.45792 0.71214 0.0
C362 C 0.75162 0.44595 0.75745 0.0
H363 H 0.67541 0.50048 0.85657 0.0
H364 H 0.7169 0.50512 0.82138 0.0
H365 H 0.71872 0.42772 0.80558 0.0
H366 H 0.80382 0.47284 0.58335 0.0
H367 H 0.77401 0.47937 0.63563 0.0
H368 H 0.77116 0.50548 0.69973 0.0
C369 C 0.69837 0.48526 0.82118 0.0
C370 C 0.73009 0.44486 0.78273 0.0
C371 C 0.67465 0.48255 0.8415 0.0
C372 C 0.80464 0.46889 0.61929 0.0
C373 C 0.78765 0.47281 0.64934 0.0
C374 C 0.75994 0.48848 0.72289 0.0
C375 C 0.69818 0.46252 0.801 0.0
C376 C 0.72287 0.46528 0.77776 0.0
C377 C 0.78711 0.46674 0.69594 0.0
C378 C 0.76645 0.46748 0.72656 0.0
H379 H 0.63169 0.41443 0.8213 0.0
H380 H 0.67286 0.4192 0.7859 0.0
H381 H 0.73327 0.5034 0.74356 0.0
H382 H 0.83482 0.44642 0.69544 0.0
H383 H 0.80527 0.45344 0.74797 0.0
C384 C 0.36488 0.82289 0.84616 0.0
C385 C 0.36004 0.82215 0.79905 0.0
C386 C 0.34377 0.80583 0.87589 0.0
C387 C 0.26824 0.75973 0.88472 0.0
H388 H 0.2882 0.72006 0.97007 0.0
C389 C 0.18882 0.67421 0.0029 0.0
C390 C 0.19061 0.65019 0.00464 0.0
C391 C 0.20965 0.698 0.98245 0.0
C392 C 0.28229 0.73097 0.94644 0.0
H393 H 0.32891 0.804 0.74649 0.0
H394 H 0.29224 0.7741 0.79815 0.0
H395 H 0.32374 0.75736 0.92555 0.0
H396 H 0.21592 0.63252 0.98671 0.0
H397 H 0.25195 0.67378 0.95102 0.0
H398 H 0.22661 0.73244 0.90436 0.0
C399 C 0.31224 0.78799 0.81229 0.0
C400 C 0.3027 0.75259 0.92131 0.0
C401 C 0.33334 0.80504 0.78259 0.0
C402 C 0.21384 0.65062 0.98604 0.0
C403 C 0.23464 0.67437 0.96584 0.0
C404 C 0.2478 0.73809 0.90996 0.0
C405 C 0.31737 0.78768 0.85914 0.0
C406 C 0.29589 0.7669 0.88949 0.0
C407 C 0.23276 0.69831 0.96361 0.0
C408 C 0.25456 0.72309 0.94038 0.0
H409 H 0.38519 0.83598 0.85998 0.0
H410 H 0.34827 0.8064 0.91189 0.0
H411 H 0.26235 0.77053 0.86084 0.0
H412 H 0.17122 0.67458 0.01694 0.0
H413 H 0.20771 0.71619 0.98154 0.0
C414 C 0.54158 0.36493 0.0131 0.0
C415 C 0.53797 0.36032 0.96588 0.0
C416 C 0.53717 0.34364 0.0427 0.0
C417 C 0.54896 0.30235 0.08825 0.0
H418 H 0.4932 0.22634 0.06991 0.0
C419 C 0.56185 0.21329 0.15233 0.0
C420 C 0.53904 0.19003 0.17075 0.0
C421 C 0.55893 0.23411 0.13215 0.0
C422 C 0.50868 0.2475 0.0759 0.0
H423 H 0.52545 0.32945 0.91296 0.0
H424 H 0.51807 0.29248 0.96443 0.0
H425 H 0.49116 0.2623 0.02651 0.0
H426 H 0.49522 0.17057 0.18267 0.0
H427 H 0.49015 0.20711 0.14724 0.0
H428 H 0.56665 0.28761 0.13723 0.0
C429 C 0.52407 0.31243 0.97874 0.0
C430 C 0.50766 0.26807 0.05073 0.0
C431 C 0.52847 0.33369 0.94916 0.0
C432 C 0.51321 0.1882 0.16878 0.0
C433 C 0.51027 0.20905 0.14832 0.0
C434 C 0.55 0.28182 0.11329 0.0
C435 C 0.52905 0.31732 0.02572 0.0
C436 C 0.52809 0.29569 0.05601 0.0
C437 C 0.53312 0.23222 0.12976 0.0
C438 C 0.53023 0.25412 0.1067 0.0
H439 H 0.54871 0.38518 0.02712 0.0
H440 H 0.54076 0.34797 0.07881 0.0
H441 H 0.56518 0.32336 0.09289 0.0
H442 H 0.58205 0.21541 0.15318 0.0
H443 H 0.57687 0.25147 0.11752 0.0
loop_
_geom_bond_atom_site_label_1
_geom_bond_atom_site_label_2
_geom_bond_distance
_geom_bond_site_symmetry_2
_ccdc_geom_bond_type
O0 Cd1 2.223 . S
O0 C8 1.315 . S
Cd1 O0 2.223 . S
Cd1 O4 2.297 . S
Cd1 O5 2.439 . S
Cd1 O11 2.240 . S
Cd2 O3 2.240 . S
Cd2 O10 2.223 . S
Cd2 O12 2.297 . S
Cd2 O13 2.439 . S
O3 Cd2 2.240 . S
O3 C8 1.279 . S
O4 Cd1 2.297 . S
O4 C6 1.247 . S
O5 Cd1 2.439 . S
O5 C6 1.208 . S
C6 O4 1.247 . S
C6 O5 1.208 . S
C7 O12 1.247 . S
C7 O13 1.208 . S
C8 O0 1.315 . S
C8 O3 1.279 . S
C9 O10 1.315 . S
C9 O11 1.279 . S
O10 Cd2 2.223 . S
O10 C9 1.315 . S
O11 Cd1 2.240 . S
O11 C9 1.279 . S
O12 Cd2 2.297 . S
O12 C7 1.247 . S
O13 Cd2 2.439 . S
O13 C7 1.208 . S
O14 Cd15 2.223 . S
O14 C22 1.315 . S
Cd15 O14 2.223 . S
Cd15 O18 2.297 . S
Cd15 O19 2.439 . S
Cd15 O25 2.240 . S
Cd16 O17 2.240 . S
Cd16 O24 2.223 . S
Cd16 O26 2.297 . S
Cd16 O27 2.439 . S
O17 Cd16 2.240 . S
O17 C22 1.279 . S
O18 Cd15 2.297 . S
O18 C20 1.247 . S
O19 Cd15 2.439 . S
O19 C20 1.208 . S
C20 O18 1.247 . S
C20 O19 1.208 . S
C21 O26 1.247 . S
C21 O27 1.208 . S
C22 O14 1.315 . S
C22 O17 1.279 . S
C23 O24 1.315 . S
C23 O25 1.279 . S
O24 Cd16 2.223 . S
O24 C23 1.315 . S
O25 Cd15 2.240 . S
O25 C23 1.279 . S
O26 Cd16 2.297 . S
O26 C21 1.247 . S
O27 Cd16 2.439 . S
O27 C21 1.208 . S
O28 Cd29 2.223 . S
O28 C36 1.315 . S
Cd29 O28 2.223 . S
Cd29 O32 2.297 . S
Cd29 O33 2.439 . S
Cd29 O39 2.240 . S
Cd30 O31 2.240 . S
Cd30 O38 2.223 . S
Cd30 O40 2.297 . S
Cd30 O41 2.439 . S
O31 Cd30 2.240 . S
O31 C36 1.279 . S
O32 Cd29 2.297 . S
O32 C34 1.247 . S
O33 Cd29 2.439 . S
O33 C34 1.208 . S
C34 O32 1.247 . S
C34 O33 1.208 . S
C35 O40 1.247 . S
C35 O41 1.208 . S
C36 O28 1.315 . S
C36 O31 1.279 . S
C37 O38 1.315 . S
C37 O39 1.279 . S
O38 Cd30 2.223 . S
O38 C37 1.315 . S
O39 Cd29 2.240 . S
O39 C37 1.279 . S
O40 Cd30 2.297 . S
O40 C35 1.247 . S
O41 Cd30 2.439 . S
O41 C35 1.208 . S
O42 Cd43 2.223 . S
O42 C50 1.315 . S
Cd43 O42 2.223 . S
Cd43 O46 2.297 . S
Cd43 O47 2.439 . S
Cd43 O53 2.240 . S
Cd44 O45 2.240 . S
Cd44 O52 2.223 . S
Cd44 O54 2.297 . S
Cd44 O55 2.439 . S
O45 Cd44 2.240 . S
O45 C50 1.279 . S
O46 Cd43 2.297 . S
O46 C48 1.247 . S
O47 Cd43 2.439 . S
O47 C48 1.208 . S
C48 O46 1.247 . S
C48 O47 1.208 . S
C49 O54 1.247 . S
C49 O55 1.208 . S
C50 O42 1.315 . S
C50 O45 1.279 . S
C51 O52 1.315 . S
C51 O53 1.279 . S
O52 Cd44 2.223 . S
O52 C51 1.315 . S
O53 Cd43 2.240 . S
O53 C51 1.279 . S
O54 Cd44 2.297 . S
O54 C49 1.247 . S
O55 Cd44 2.439 . S
O55 C49 1.208 . S
O56 Cd57 2.223 . S
O56 C64 1.315 . S
Cd57 O56 2.223 . S
Cd57 O60 2.297 . S
Cd57 O61 2.439 . S
Cd57 O67 2.240 . S
Cd58 O59 2.240 . S
Cd58 O66 2.223 . S
Cd58 O68 2.297 . S
Cd58 O69 2.439 . S
O59 Cd58 2.240 . S
O59 C64 1.279 . S
O60 Cd57 2.297 . S
O60 C62 1.247 . S
O61 Cd57 2.439 . S
O61 C62 1.208 . S
C62 O60 1.247 . S
C62 O61 1.208 . S
C63 O68 1.247 . S
C63 O69 1.208 . S
C64 O56 1.315 . S
C64 O59 1.279 . S
C65 O66 1.315 . S
C65 O67 1.279 . S
O66 Cd58 2.223 . S
O66 C65 1.315 . S
O67 Cd57 2.240 . S
O67 C65 1.279 . S
O68 Cd58 2.297 . S
O68 C63 1.247 . S
O69 Cd58 2.439 . S
O69 C63 1.208 . S
O70 Cd71 2.223 . S
O70 C78 1.315 . S
Cd71 O70 2.223 . S
Cd71 O74 2.297 . S
Cd71 O75 2.439 . S
Cd71 O81 2.240 . S
Cd72 O73 2.240 . S
Cd72 O80 2.223 . S
Cd72 O82 2.297 . S
Cd72 O83 2.439 . S
O73 Cd72 2.240 . S
O73 C78 1.279 . S
O74 Cd71 2.297 . S
O74 C76 1.247 . S
O75 Cd71 2.439 . S
O75 C76 1.208 . S
C76 O74 1.247 . S
C76 O75 1.208 . S
C77 O82 1.247 . S
C77 O83 1.208 . S
C78 O70 1.315 . S
C78 O73 1.279 . S
C79 O80 1.315 . S
C79 O81 1.279 . S
O80 Cd72 2.223 . S
O80 C79 1.315 . S
O81 Cd71 2.240 . S
O81 C79 1.279 . S
O82 Cd72 2.297 . S
O82 C77 1.247 . S
O83 Cd72 2.439 . S
O83 C77 1.208 . S
C84 C85 1.349 . S
C84 C86 1.327 . S
C84 H109 0.950 1_556 S
C85 C84 1.349 . S
C85 C101 1.349 . S
C86 C84 1.327 . S
C86 C105 1.429 . S
C86 H110 0.950 . S
C87 C104 1.574 . S
C87 C106 1.368 . S
C87 H111 0.949 . S
H88 C92 0.949 . S
C89 C90 1.349 . S
C89 C91 1.327 . S
C89 H112 0.950 . S
C90 C89 1.349 . S
C90 C102 1.349 . S
C91 C89 1.327 . S
C91 C107 1.429 . S
C91 H113 0.940 1_655 S
C92 H88 0.949 . S
C92 C100 1.574 1_655 S
C92 C108 1.368 . S
H93 C101 0.950 . S
H94 C99 0.950 . S
H95 C100 0.949 1_655 S
H96 C102 0.950 . S
H97 C103 0.950 . S
H98 C104 0.949 . S
C99 H94 0.950 . S
C99 C101 1.327 . S
C99 C105 1.429 . S
C100 C92 1.574 1_455 S
C100 H95 0.949 1_455 S
C100 C106 1.368 . S
C101 C85 1.349 . S
C101 H93 0.950 . S
C101 C99 1.327 . S
C102 C90 1.349 . S
C102 H96 0.950 . S
C102 C103 1.327 . S
C103 H97 0.950 . S
C103 C102 1.327 . S
C103 C107 1.429 . S
C104 C87 1.574 . S
C104 H98 0.949 . S
C104 C108 1.368 1_455 S
C105 C86 1.429 . S
C105 C99 1.429 . S
C105 C106 1.523 . S
C106 C87 1.368 . S
C106 C100 1.368 . S
C106 C105 1.523 . S
C107 C91 1.429 . S
C107 C103 1.429 . S
C107 C108 1.523 . S
C108 C92 1.368 . S
C108 C104 1.368 1_655 S
C108 C107 1.523 . S
H109 C84 0.950 1_554 S
H110 C86 0.950 . S
H111 C87 0.949 . S
H112 C89 0.950 . S
H113 C91 0.940 1_455 S
C114 C115 1.349 . S
C114 C116 1.327 . S
C114 H139 0.950 . S
C115 C114 1.349 . S
C115 C131 1.349 . S
C116 C114 1.327 . S
C116 C135 1.429 . S
C116 H140 0.950 . S
C117 C134 1.574 1_556 S
C117 C136 1.368 1_545 S
C117 H141 0.949 . S
H118 C122 0.949 . S
C119 C120 1.349 . S
C119 C121 1.327 . S
C119 H142 0.950 . S
C120 C119 1.349 . S
C120 C132 1.349 . S
C121 C119 1.327 . S
C121 C137 1.429 . S
C121 H143 0.950 . S
C122 H118 0.949 . S
C122 C130 1.574 1_544 S
C122 C138 1.368 . S
H123 C131 0.950 . S
H124 C129 0.950 . S
H125 C130 0.949 . S
H126 C132 0.950 . S
H127 C133 0.950 . S
H128 C134 0.949 . S
C129 H124 0.950 . S
C129 C131 1.327 . S
C129 C135 1.429 . S
C130 C122 1.574 1_566 S
C130 H125 0.949 . S
C130 C136 1.368 . S
C131 C115 1.349 . S
C131 H123 0.950 . S
C131 C129 1.327 . S
C132 C120 1.349 . S
C132 H126 0.950 . S
C132 C133 1.327 . S
C133 H127 0.950 . S
C133 C132 1.327 . S
C133 C137 1.429 . S
C134 C117 1.574 1_554 S
C134 H128 0.949 . S
C134 C138 1.368 . S
C135 C116 1.429 . S
C135 C129 1.429 . S
C135 C136 1.523 . S
C136 C117 1.368 1_565 S
C136 C130 1.368 . S
C136 C135 1.523 . S
C137 C121 1.429 . S
C137 C133 1.429 . S
C137 C138 1.523 . S
C138 C122 1.368 . S
C138 C134 1.368 . S
C138 C137 1.523 . S
H139 C114 0.950 . S
H140 C116 0.950 . S
H141 C117 0.949 . S
H142 C119 0.950 . S
H143 C121 0.950 . S
C144 C145 1.349 . S
C144 C146 1.327 . S
C144 H169 0.950 . S
C145 C144 1.349 . S
C145 C161 1.349 . S
C146 C144 1.327 . S
C146 C165 1.429 . S
C146 H170 0.950 . S
C147 C164 1.574 . S
C147 C166 1.368 . S
C147 H171 0.949 . S
H148 C152 0.949 . S
C149 C150 1.349 . S
C149 C151 1.327 . S
C149 H172 0.950 . S
C150 C149 1.349 . S
C150 C162 1.349 . S
C151 C149 1.327 . S
C151 C167 1.429 . S
C151 H173 0.950 . S
C152 H148 0.949 . S
C152 C160 1.574 . S
C152 C168 1.368 . S
H153 C161 0.950 . S
H154 C159 0.950 . S
H155 C160 0.949 . S
H156 C162 0.950 . S
H157 C163 0.950 . S
H158 C164 0.949 . S
C159 H154 0.950 . S
C159 C161 1.327 . S
C159 C165 1.429 . S
C160 C152 1.574 . S
C160 H155 0.949 . S
C160 C166 1.368 . S
C161 C145 1.349 . S
C161 H153 0.950 . S
C161 C159 1.327 . S
C162 C150 1.349 . S
C162 H156 0.950 . S
C162 C163 1.327 . S
C163 H157 0.950 . S
C163 C162 1.327 . S
C163 C167 1.429 . S
C164 C147 1.574 . S
C164 H158 0.949 . S
C164 C168 1.368 . S
C165 C146 1.429 . S
C165 C159 1.429 . S
C165 C166 1.523 . S
C166 C147 1.368 . S
C166 C160 1.368 . S
C166 C165 1.523 . S
C167 C151 1.429 . S
C167 C163 1.429 . S
C167 C168 1.523 . S
C168 C152 1.368 . S
C168 C164 1.368 . S
C168 C167 1.523 . S
H169 C144 0.950 . S
H170 C146 0.950 . S
H171 C147 0.949 . S
H172 C149 0.950 . S
H173 C151 0.950 . S
C174 C175 1.349 . S
C174 C176 1.327 . S
C174 H199 0.950 . S
C175 C174 1.349 . S
C175 C191 1.349 . S
C176 C174 1.327 . S
C176 C195 1.429 . S
C176 H200 0.950 . S
C177 C194 1.574 1_655 S
C177 C196 1.368 . S
C177 H201 0.949 . S
H178 C182 0.949 1_455 S
C179 C180 1.349 . S
C179 C181 1.327 . S
C179 H202 0.950 . S
C180 C179 1.349 . S
C180 C192 1.349 . S
C181 C179 1.327 . S
C181 C197 1.429 . S
C181 H203 0.950 . S
C182 H178 0.949 1_655 S
C182 C190 1.574 . S
C182 C198 1.368 1_655 S
H183 C191 0.950 . S
H184 C189 0.950 . S
H185 C190 0.949 . S
H186 C192 0.950 . S
H187 C193 0.950 . S
H188 C194 0.949 . S
C189 H184 0.950 . S
C189 C191 1.327 . S
C189 C195 1.429 . S
C190 C182 1.574 . S
C190 H185 0.949 . S
C190 C196 1.368 . S
C191 C175 1.349 . S
C191 H183 0.950 . S
C191 C189 1.327 . S
C192 C180 1.349 . S
C192 H186 0.950 . S
C192 C193 1.327 . S
C193 H187 0.950 . S
C193 C192 1.327 . S
C193 C197 1.429 . S
C194 C177 1.574 1_455 S
C194 H188 0.949 . S
C194 C198 1.368 . S
C195 C176 1.429 . S
C195 C189 1.429 . S
C195 C196 1.523 . S
C196 C177 1.368 . S
C196 C190 1.368 . S
C196 C195 1.523 . S
C197 C181 1.429 . S
C197 C193 1.429 . S
C197 C198 1.523 . S
C198 C182 1.368 1_455 S
C198 C194 1.368 . S
C198 C197 1.523 . S
H199 C174 0.950 . S
H200 C176 0.950 . S
H201 C177 0.949 . S
H202 C179 0.950 . S
H203 C181 0.950 . S
C204 C205 1.349 . S
C204 C206 1.327 . S
C204 H229 0.950 . S
C205 C204 1.349 . S
C205 C221 1.349 . S
C206 C204 1.327 . S
C206 C225 1.429 . S
C206 H230 0.950 . S
C207 C224 1.574 . S
C207 C226 1.368 1_565 S
C207 H231 0.949 . S
H208 C212 0.949 . S
C209 C210 1.349 . S
C209 C211 1.327 . S
C209 H232 0.950 . S
C210 C209 1.349 . S
C210 C222 1.349 . S
C211 C209 1.327 . S
C211 C227 1.429 . S
C211 H233 0.950 . S
C212 H208 0.949 . S
C212 C220 1.574 1_565 S
C212 C228 1.368 . S
H213 C221 0.950 . S
H214 C219 0.950 . S
H215 C220 0.949 . S
H216 C222 0.950 . S
H217 C223 0.950 . S
H218 C224 0.949 . S
C219 H214 0.950 . S
C219 C221 1.327 . S
C219 C225 1.429 . S
C220 C212 1.574 1_545 S
C220 H215 0.949 . S
C220 C226 1.368 . S
C221 C205 1.349 . S
C221 H213 0.950 . S
C221 C219 1.327 . S
C222 C210 1.349 . S
C222 H216 0.950 . S
C222 C223 1.327 . S
C223 H217 0.950 . S
C223 C222 1.327 . S
C223 C227 1.429 . S
C224 C207 1.574 . S
C224 H218 0.949 . S
C224 C228 1.368 . S
C225 C206 1.429 . S
C225 C219 1.429 . S
C225 C226 1.523 . S
C226 C207 1.368 1_545 S
C226 C220 1.368 . S
C226 C225 1.523 . S
C227 C211 1.429 . S
C227 C223 1.429 . S
C227 C228 1.523 . S
C228 C212 1.368 . S
C228 C224 1.368 . S
C228 C227 1.523 . S
H229 C204 0.950 . S
H230 C206 0.950 . S
H231 C207 0.949 . S
H232 C209 0.950 . S
H233 C211 0.950 . S
C234 C235 1.349 . S
C234 C236 1.327 . S
C234 H259 0.950 . S
C235 C234 1.349 . S
C235 C251 1.349 . S
C236 C234 1.327 . S
C236 C255 1.429 . S
C236 H260 0.950 . S
C237 C254 1.574 . S
C237 C256 1.368 . S
C237 H261 0.949 . S
H238 C242 0.949 . S
C239 C240 1.349 . S
C239 C241 1.327 . S
C239 H262 0.950 . S
C240 C239 1.349 . S
C240 C252 1.349 . S
C241 C239 1.327 . S
C241 C257 1.429 . S
C241 H263 0.950 . S
C242 H238 0.949 . S
C242 C250 1.574 . S
C242 C258 1.368 . S
H243 C251 0.950 . S
H244 C249 0.950 . S
H245 C250 0.949 . S
H246 C252 0.950 . S
H247 C253 0.950 . S
H248 C254 0.949 . S
C249 H244 0.950 . S
C249 C251 1.327 . S
C249 C255 1.429 . S
C250 C242 1.574 . S
C250 H245 0.949 . S
C250 C256 1.368 . S
C251 C235 1.349 . S
C251 H243 0.950 . S
C251 C249 1.327 . S
C252 C240 1.349 . S
C252 H246 0.950 . S
C252 C253 1.327 . S
C253 H247 0.950 . S
C253 C252 1.327 . S
C253 C257 1.429 . S
C254 C237 1.574 . S
C254 H248 0.949 . S
C254 C258 1.368 . S
C255 C236 1.429 . S
C255 C249 1.429 . S
C255 C256 1.523 . S
C256 C237 1.368 . S
C256 C250 1.368 . S
C256 C255 1.523 . S
C257 C241 1.429 . S
C257 C253 1.429 . S
C257 C258 1.523 . S
C258 C242 1.368 . S
C258 C254 1.368 . S
C258 C257 1.523 . S
H259 C234 0.950 . S
H260 C236 0.950 . S
H261 C237 0.949 . S
H262 C239 0.950 . S
H263 C241 0.950 . S
C264 C265 1.349 . S
C264 C266 1.327 . S
C264 H289 0.950 . S
C265 C264 1.349 . S
C265 C281 1.349 . S
C266 C264 1.327 . S
C266 C285 1.429 . S
C266 H290 0.950 . S
C267 C284 1.574 . S
C267 C286 1.368 . S
C267 H291 0.949 . S
H268 C272 0.949 . S
C269 C270 1.349 . S
C269 C271 1.327 . S
C269 H292 0.950 . S
C270 C269 1.349 . S
C270 C282 1.349 . S
C271 C269 1.327 . S
C271 C287 1.429 . S
C271 H293 0.950 . S
C272 H268 0.949 . S
C272 C280 1.574 . S
C272 C288 1.368 . S
H273 C281 0.950 . S
H274 C279 0.950 . S
H275 C280 0.949 . S
H276 C282 0.950 . S
H277 C283 0.950 . S
H278 C284 0.949 . S
C279 H274 0.950 . S
C279 C281 1.327 . S
C279 C285 1.429 . S
C280 C272 1.574 . S
C280 H275 0.949 . S
C280 C286 1.368 . S
C281 C265 1.349 . S
C281 H273 0.950 . S
C281 C279 1.327 . S
C282 C270 1.349 . S
C282 H276 0.950 . S
C282 C283 1.327 . S
C283 H277 0.950 . S
C283 C282 1.327 . S
C283 C287 1.429 . S
C284 C267 1.574 . S
C284 H278 0.949 . S
C284 C288 1.368 . S
C285 C266 1.429 . S
C285 C279 1.429 . S
C285 C286 1.523 . S
C286 C267 1.368 . S
C286 C280 1.368 . S
C286 C285 1.523 . S
C287 C271 1.429 . S
C287 C283 1.429 . S
C287 C288 1.523 . S
C288 C272 1.368 . S
C288 C284 1.368 . S
C288 C287 1.523 . S
H289 C264 0.950 . S
H290 C266 0.950 . S
H291 C267 0.949 . S
H292 C269 0.950 . S
H293 C271 0.950 . S
C294 C295 1.349 . S
C294 C296 1.327 . S
C294 H319 0.950 . S
C295 C294 1.349 . S
C295 C311 1.349 . S
C296 C294 1.327 . S
C296 C315 1.429 . S
C296 H320 0.950 . S
C297 C314 1.574 . S
C297 C316 1.368 . S
C297 H321 0.949 . S
H298 C302 0.949 . S
C299 C300 1.349 . S
C299 C301 1.327 . S
C299 H322 0.950 . S
C300 C299 1.349 . S
C300 C312 1.349 . S
C301 C299 1.327 . S
C301 C317 1.429 . S
C301 H323 0.950 . S
C302 H298 0.949 . S
C302 C310 1.574 . S
C302 C318 1.368 . S
H303 C311 0.950 . S
H304 C309 0.950 . S
H305 C310 0.949 . S
H306 C312 0.950 . S
H307 C313 0.950 . S
H308 C314 0.949 . S
C309 H304 0.950 . S
C309 C311 1.327 . S
C309 C315 1.429 . S
C310 C302 1.574 . S
C310 H305 0.949 . S
C310 C316 1.368 . S
C311 C295 1.349 . S
C311 H303 0.950 . S
C311 C309 1.327 . S
C312 C300 1.349 . S
C312 H306 0.950 . S
C312 C313 1.327 . S
C313 H307 0.950 . S
C313 C312 1.327 . S
C313 C317 1.429 . S
C314 C297 1.574 . S
C314 H308 0.949 . S
C314 C318 1.368 . S
C315 C296 1.429 . S
C315 C309 1.429 . S
C315 C316 1.523 . S
C316 C297 1.368 . S
C316 C310 1.368 . S
C316 C315 1.523 . S
C317 C301 1.429 . S
C317 C313 1.429 . S
C317 C318 1.523 . S
C318 C302 1.368 . S
C318 C314 1.368 . S
C318 C317 1.523 . S
H319 C294 0.950 . S
H320 C296 0.950 . S
H321 C297 0.949 . S
H322 C299 0.950 . S
H323 C301 0.950 . S
C324 C325 1.349 . S
C324 C326 1.327 . S
C324 H349 0.950 . S
C325 C324 1.349 . S
C325 C341 1.349 . S
C326 C324 1.327 . S
C326 C345 1.429 . S
C326 H350 0.950 . S
C327 C344 1.574 . S
C327 C346 1.368 . S
C327 H351 0.949 . S
H328 C332 0.949 . S
C329 C330 1.349 . S
C329 C331 1.327 . S
C329 H352 0.950 . S
C330 C329 1.349 . S
C330 C342 1.349 . S
C331 C329 1.327 . S
C331 C347 1.429 . S
C331 H353 0.950 . S
C332 H328 0.949 . S
C332 C340 1.574 . S
C332 C348 1.368 . S
H333 C341 0.950 . S
H334 C339 0.950 . S
H335 C340 0.949 . S
H336 C342 0.950 . S
H337 C343 0.950 . S
H338 C344 0.949 . S
C339 H334 0.950 . S
C339 C341 1.327 . S
C339 C345 1.429 . S
C340 C332 1.574 . S
C340 H335 0.949 . S
C340 C346 1.368 . S
C341 C325 1.349 . S
C341 H333 0.950 . S
C341 C339 1.327 . S
C342 C330 1.349 . S
C342 H336 0.950 . S
C342 C343 1.327 . S
C343 H337 0.950 . S
C343 C342 1.327 . S
C343 C347 1.429 . S
C344 C327 1.574 . S
C344 H338 0.949 . S
C344 C348 1.368 . S
C345 C326 1.429 . S
C345 C339 1.429 . S
C345 C346 1.523 . S
C346 C327 1.368 . S
C346 C340 1.368 . S
C346 C345 1.523 . S
C347 C331 1.429 . S
C347 C343 1.429 . S
C347 C348 1.523 . S
C348 C332 1.368 . S
C348 C344 1.368 . S
C348 C347 1.523 . S
H349 C324 0.950 . S
H350 C326 0.950 . S
H351 C327 0.949 . S
H352 C329 0.950 . S
H353 C331 0.950 . S
C354 C355 1.349 . S
C354 C356 1.327 . S
C354 H379 0.950 . S
C355 C354 1.349 . S
C355 C371 1.349 . S
C356 C354 1.327 . S
C356 C375 1.429 . S
C356 H380 0.950 . S
C357 C374 1.574 . S
C357 C376 1.368 . S
C357 H381 0.949 . S
H358 C362 0.949 . S
C359 C360 1.349 . S
C359 C361 1.327 . S
C359 H382 0.950 . S
C360 C359 1.349 . S
C360 C372 1.349 . S
C361 C359 1.327 . S
C361 C377 1.429 . S
C361 H383 0.950 . S
C362 H358 0.949 . S
C362 C370 1.574 . S
C362 C378 1.368 . S
H363 C371 0.950 . S
H364 C369 0.950 . S
H365 C370 0.949 . S
H366 C372 0.950 . S
H367 C373 0.950 . S
H368 C374 0.949 . S
C369 H364 0.950 . S
C369 C371 1.327 . S
C369 C375 1.429 . S
C370 C362 1.574 . S
C370 H365 0.949 . S
C370 C376 1.368 . S
C371 C355 1.349 . S
C371 H363 0.950 . S
C371 C369 1.327 . S
C372 C360 1.349 . S
C372 H366 0.950 . S
C372 C373 1.327 . S
C373 H367 0.950 . S
C373 C372 1.327 . S
C373 C377 1.429 . S
C374 C357 1.574 . S
C374 H368 0.949 . S
C374 C378 1.368 . S
C375 C356 1.429 . S
C375 C369 1.429 . S
C375 C376 1.523 . S
C376 C357 1.368 . S
C376 C370 1.368 . S
C376 C375 1.523 . S
C377 C361 1.429 . S
C377 C373 1.429 . S
C377 C378 1.523 . S
C378 C362 1.368 . S
C378 C374 1.368 . S
C378 C377 1.523 . S
H379 C354 0.950 . S
H380 C356 0.950 . S
H381 C357 0.949 . S
H382 C359 0.950 . S
H383 C361 0.950 . S
C384 C385 1.349 . S
C384 C386 1.327 . S
C384 H409 0.950 . S
C385 C384 1.349 . S
C385 C401 1.349 . S
C386 C384 1.327 . S
C386 C405 1.429 . S
C386 H410 0.950 . S
C387 C404 1.574 . S
C387 C406 1.368 . S
C387 H411 0.949 . S
H388 C392 0.949 . S
C389 C390 1.349 1_556 S
C389 C391 1.327 . S
C389 H412 0.950 1_556 S
C390 C389 1.349 1_554 S
C390 C402 1.349 1_554 S
C391 C389 1.327 . S
C391 C407 1.429 . S
C391 H413 0.950 . S
C392 H388 0.949 . S
C392 C400 1.574 . S
C392 C408 1.368 . S
H393 C401 0.950 . S
H394 C399 0.950 . S
H395 C400 0.949 . S
H396 C402 0.950 1_554 S
H397 C403 0.950 . S
H398 C404 0.949 . S
C399 H394 0.950 . S
C399 C401 1.327 . S
C399 C405 1.429 . S
C400 C392 1.574 . S
C400 H395 0.949 . S
C400 C406 1.368 . S
C401 C385 1.349 . S
C401 H393 0.950 . S
C401 C399 1.327 . S
C402 C390 1.349 1_556 S
C402 H396 0.950 1_556 S
C402 C403 1.327 . S
C403 H397 0.950 . S
C403 C402 1.327 . S
C403 C407 1.429 . S
C404 C387 1.574 . S
C404 H398 0.949 . S
C404 C408 1.368 . S
C405 C386 1.429 . S
C405 C399 1.429 . S
C405 C406 1.523 . S
C406 C387 1.368 . S
C406 C400 1.368 . S
C406 C405 1.523 . S
C407 C391 1.429 . S
C407 C403 1.429 . S
C407 C408 1.523 . S
C408 C392 1.368 . S
C408 C404 1.368 . S
C408 C407 1.523 . S
H409 C384 0.950 . S
H410 C386 0.950 . S
H411 C387 0.949 . S
H412 C389 0.950 1_554 S
H413 C391 0.950 . S
C414 C415 1.349 1_554 S
C414 C416 1.327 . S
C414 H439 0.950 . S
C415 C414 1.349 1_556 S
C415 C431 1.349 . S
C416 C414 1.327 . S
C416 C435 1.429 . S
C416 H440 0.950 . S
C417 C434 1.574 . S
C417 C436 1.368 . S
C417 H441 0.949 1_554 S
H418 C422 0.949 . S
C419 C420 1.349 . S
C419 C421 1.327 . S
C419 H442 0.950 . S
C420 C419 1.349 . S
C420 C432 1.349 . S
C421 C419 1.327 . S
C421 C437 1.429 . S
C421 H443 0.950 . S
C422 H418 0.949 . S
C422 C430 1.574 . S
C422 C438 1.368 . S
H423 C431 0.950 . S
H424 C429 0.950 . S
H425 C430 0.949 . S
H426 C432 0.950 . S
H427 C433 0.950 . S
H428 C434 0.949 . S
C429 H424 0.950 . S
C429 C431 1.327 . S
C429 C435 1.429 1_556 S
C430 C422 1.574 . S
C430 H425 0.949 . S
C430 C436 1.368 . S
C431 C415 1.349 . S
C431 H423 0.950 . S
C431 C429 1.327 . S
C432 C420 1.349 . S
C432 H426 0.950 . S
C432 C433 1.327 . S
C433 H427 0.950 . S
C433 C432 1.327 . S
C433 C437 1.429 . S
C434 C417 1.574 . S
C434 H428 0.949 . S
C434 C438 1.368 . S
C435 C416 1.429 . S
C435 C429 1.429 1_554 S
C435 C436 1.523 . S
C436 C417 1.368 . S
C436 C430 1.368 . S
C436 C435 1.523 . S
C437 C421 1.429 . S
C437 C433 1.429 . S
C437 C438 1.523 . S
C438 C422 1.368 . S
C438 C434 1.368 . S
C438 C437 1.523 . S
H439 C414 0.950 . S
H440 C416 0.950 . S
H441 C417 0.949 1_556 S
H442 C419 0.950 . S
H443 C421 0.950 . S
C85 C8 1.420 1_556 S
C90 C48 1.459 . S
C115 C62 1.459 . S
C120 C22 1.420 . S
C145 C36 1.420 . S
C150 C76 1.459 1_554 S
C175 C50 1.420 . S
C180 C6 1.459 . S
C205 C20 1.459 . S
C210 C64 1.420 . S
C235 C78 1.420 . S
C240 C34 1.459 . S
C265 C7 1.317 . S
C270 C37 1.310 . S
C295 C21 1.317 . S
C300 C51 1.310 . S
C325 C65 1.310 . S
C330 C35 1.317 . S
C355 C79 1.310 . S
C360 C49 1.317 . S
C385 C63 1.317 . S
C390 C9 1.310 . S
C415 C77 1.317 . S
C420 C23 1.310 . S
