# Generated by pormake.
# Topology tfs, (6)-cn, num edge types: 1
# Building blocks:
#     Node 0, Type 0, BuildingBlock: BETDEL_clean_sbu_0, # of connection points: 6
#     Node 1, Type 0, BuildingBlock: BETDEL_clean_sbu_0, # of connection points: 6
#     Node 2, Type 0, BuildingBlock: BETDEL_clean_sbu_0, # of connection points: 6
#     Node 3, Type 0, BuildingBlock: BETDEL_clean_sbu_0, # of connection points: 6
#     Node 4, Type 0, BuildingBlock: BETDEL_clean_sbu_0, # of connection points: 6
#     Node 5, Type 0, BuildingBlock: BETDEL_clean_sbu_0, # of connection points: 6
#     Edge 6, Type (0, 0), BuildingBlock: FUNLAD_clean_linker_1, # of connection points: 2
#     Edge 7, Type (0, 0), BuildingBlock: FUNLAD_clean_linker_1, # of connection points: 2
#     Edge 8, Type (0, 0), BuildingBlock: FUNLAD_clean_linker_1, # of connection points: 2
#     Edge 9, Type (0, 0), BuildingBlock: FUNLAD_clean_linker_1, # of connection points: 2
#     Edge 10, Type (0, 0), BuildingBlock: FUNLAD_clean_linker_1, # of connection points: 2
#     Edge 11, Type (0, 0), BuildingBlock: FUNLAD_clean_linker_1, # of connection points: 2
#     Edge 12, Type (0, 0), BuildingBlock: FUNLAD_clean_linker_1, # of connection points: 2
#     Edge 13, Type (0, 0), BuildingBlock: FUNLAD_clean_linker_1, # of connection points: 2
#     Edge 14, Type (0, 0), BuildingBlock: FUNLAD_clean_linker_1, # of connection points: 2
#     Edge 15, Type (0, 0), BuildingBlock: FUNLAD_clean_linker_1, # of connection points: 2
#     Edge 16, Type (0, 0), BuildingBlock: FUNLAD_clean_linker_1, # of connection points: 2
#     Edge 17, Type (0, 0), BuildingBlock: FUNLAD_clean_linker_1, # of connection points: 2
#     Edge 18, Type (0, 0), BuildingBlock: FUNLAD_clean_linker_1, # of connection points: 2
#     Edge 19, Type (0, 0), BuildingBlock: FUNLAD_clean_linker_1, # of connection points: 2
#     Edge 20, Type (0, 0), BuildingBlock: FUNLAD_clean_linker_1, # of connection points: 2
#     Edge 21, Type (0, 0), BuildingBlock: FUNLAD_clean_linker_1, # of connection points: 2
#     Edge 22, Type (0, 0), BuildingBlock: FUNLAD_clean_linker_1, # of connection points: 2
#     Edge 23, Type (0, 0), BuildingBlock: FUNLAD_clean_linker_1, # of connection points: 2
# Relax obj value: 0.428
# Max RMSD: 0.277
# Mean RMSD: 0.254
data_MOF--net-tfs--node1-BETDEL_clean_sbu_0--edge1-FUNLAD_clean_linker_1
_symmetry_space_group_name_H-M    P1
_symmetry_Int_Tables_number       1
_symmetry_cell_setting            triclinic
loop_
_symmetry_equiv_pos_as_xyz
'x, y, z'
_cell_length_a     46.851502
_cell_length_b     46.016882
_cell_length_c     15.248097
_cell_angle_alpha  90.409837
_cell_angle_beta   91.190871
_cell_angle_gamma 121.9451
loop_
_atom_site_label
_atom_site_type_symbol
_atom_site_fract_x
_atom_site_fract_y
_atom_site_fract_z
_atom_type_partial_charge
Dy0 Dy 0.17167 0.45981 0.24653 0.0
C1 C 0.21034 0.36261 0.18174 0.0
C2 C 0.16069 0.5112 0.28547 0.0
Dy3 Dy 0.19414 0.40891 0.23273 0.0
O4 O 0.15282 0.49418 0.21173 0.0
O5 O 0.1737 0.4994 0.33978 0.0
O6 O 0.15994 0.45452 0.10195 0.0
O7 O 0.19955 0.44976 0.1496 0.0
C8 C 0.18208 0.44701 0.08229 0.0
C9 C 0.18446 0.42255 0.39699 0.0
O10 O 0.2447 0.4566 0.24459 0.0
O11 O 0.22632 0.4925 0.28664 0.0
O12 O 0.19427 0.36045 0.25219 0.0
O13 O 0.2172 0.3897 0.13897 0.0
O14 O 0.20708 0.41566 0.37672 0.0
O15 O 0.16639 0.41915 0.33032 0.0
O16 O 0.12185 0.41093 0.24523 0.0
O17 O 0.14139 0.37984 0.17681 0.0
C18 C 0.25055 0.48637 0.27449 0.0
C19 C 0.11656 0.38405 0.19865 0.0
Dy20 Dy 0.74686 0.18127 0.92869 0.0
C21 C 0.89174 0.25433 0.88177 0.0
C22 C 0.68125 0.15573 0.95985 0.0
Dy23 Dy 0.82625 0.22155 0.92728 0.0
O24 O 0.69645 0.17145 0.88931 0.0
O25 O 0.70189 0.15369 0.01393 0.0
O26 O 0.745 0.16309 0.79106 0.0
O27 O 0.78591 0.21128 0.83325 0.0
C28 C 0.77398 0.18945 0.77086 0.0
C29 C 0.80416 0.2042 0.09212 0.0
O30 O 0.81728 0.26518 0.92649 0.0
O31 O 0.76058 0.23442 0.96235 0.0
O32 O 0.87893 0.2667 0.93372 0.0
O33 O 0.86848 0.22406 0.85263 0.0
O34 O 0.83586 0.22052 0.074 0.0
O35 O 0.78779 0.19852 0.02151 0.0
O36 O 0.75505 0.13886 0.9509 0.0
O37 O 0.81033 0.16618 0.90356 0.0
C38 C 0.78935 0.26357 0.95061 0.0
C39 C 0.78158 0.13822 0.92563 0.0
Dy40 Dy 0.53321 0.74088 0.07614 0.0
C41 C 0.63023 0.88653 0.01949 0.0
C42 C 0.48482 0.67671 0.12118 0.0
Dy43 Dy 0.58616 0.82144 0.07056 0.0
O44 O 0.49148 0.68737 0.04137 0.0
O45 O 0.50458 0.70103 0.1769 0.0
O46 O 0.54465 0.73571 0.93714 0.0
O47 O 0.54909 0.78161 0.9799 0.0
C48 C 0.55405 0.76692 0.91697 0.0
C49 C 0.57788 0.79814 0.23614 0.0
O50 O 0.53672 0.8196 0.06491 0.0
O51 O 0.49964 0.76146 0.09293 0.0
O52 O 0.60665 0.87784 0.07545 0.0
O53 O 0.6295 0.85957 0.98958 0.0
O54 O 0.59802 0.83021 0.2179 0.0
O55 O 0.56498 0.78224 0.1652 0.0
O56 O 0.58099 0.74203 0.09507 0.0
O57 O 0.61756 0.79782 0.04756 0.0
C58 C 0.50616 0.79299 0.08214 0.0
C59 C 0.61087 0.76676 0.06876 0.0
Dy60 Dy 0.77967 0.53841 0.00459 0.0
C61 C 0.72864 0.62796 0.98998 0.0
C62 C 0.80085 0.49321 0.01584 0.0
Dy63 Dy 0.75032 0.58326 0.01119 0.0
O64 O 0.81293 0.51928 0.9651 0.0
O65 O 0.77731 0.49188 0.06265 0.0
O66 O 0.79554 0.55424 0.86718 0.0
O67 O 0.75174 0.55064 0.90937 0.0
C68 C 0.77176 0.55954 0.84721 0.0
C69 C 0.75583 0.56019 0.16734 0.0
O70 O 0.7017 0.53187 0.99896 0.0
O71 O 0.72495 0.49858 0.02155 0.0
O72 O 0.74644 0.62796 0.05637 0.0
O73 O 0.72322 0.60395 0.93423 0.0
O74 O 0.7318 0.56505 0.14519 0.0
O75 O 0.77713 0.57012 0.10767 0.0
O76 O 0.82594 0.58824 0.04224 0.0
O77 O 0.80594 0.6211 0.98721 0.0
C78 C 0.69855 0.50181 0.01223 0.0
C79 C 0.83134 0.61781 0.01386 0.0
Dy80 Dy 0.24213 0.82098 0.09059 0.0
C81 C 0.09665 0.76705 0.0189 0.0
C82 C 0.30474 0.83082 0.11958 0.0
Dy83 Dy 0.16254 0.79551 0.07534 0.0
O84 O 0.28225 0.80953 0.06232 0.0
O85 O 0.29298 0.84687 0.16206 0.0
O86 O 0.24763 0.83666 0.95021 0.0
O87 O 0.20084 0.79677 0.99173 0.0
C88 C 0.21612 0.81592 0.92842 0.0
C89 C 0.18691 0.80866 0.24302 0.0
O90 O 0.15944 0.74596 0.0981 0.0
O91 O 0.21581 0.76682 0.13803 0.0
O92 O 0.11128 0.78907 0.08353 0.0
O93 O 0.11839 0.76158 0.98308 0.0
O94 O 0.1556 0.7973 0.22226 0.0
O95 O 0.20186 0.81196 0.17315 0.0
O96 O 0.2435 0.87036 0.10517 0.0
O97 O 0.18984 0.8517 0.04367 0.0
C98 C 0.18368 0.74165 0.12858 0.0
C99 C 0.22053 0.87638 0.07211 0.0
Dy100 Dy 0.43799 0.20489 0.05006 0.0
C101 C 0.33215 0.23247 0.11804 0.0
C102 C 0.48844 0.19609 0.00638 0.0
Dy103 Dy 0.37856 0.21927 0.05868 0.0
O104 O 0.48699 0.20929 0.08052 0.0
O105 O 0.4627 0.18818 0.95542 0.0
O106 O 0.42697 0.18536 0.18748 0.0
O107 O 0.41734 0.22314 0.14869 0.0
C108 C 0.41415 0.20333 0.20973 0.0
C109 C 0.39019 0.20915 0.89165 0.0
O110 O 0.42536 0.2729 0.06759 0.0
O111 O 0.46627 0.26118 0.02758 0.0
O112 O 0.3522 0.24807 0.05388 0.0
O113 O 0.33745 0.20959 0.1504 0.0
O114 O 0.36674 0.21498 0.91125 0.0
O115 O 0.40428 0.20894 0.96205 0.0
O116 O 0.39349 0.15269 0.02493 0.0
O117 O 0.35146 0.16138 0.07341 0.0
C118 C 0.45667 0.28296 0.04548 0.0
C119 C 0.36227 0.14101 0.0484 0.0
H120 H 0.29222 0.22603 0.20558 0.0
C121 C 0.30739 0.24009 0.1503 0.0
H122 H 0.31839 0.2778 0.05634 0.0
H123 H 0.18454 0.27682 0.07394 0.0
H124 H 0.17415 0.2442 0.93846 0.0
H125 H 0.21171 0.22436 0.896 0.0
H126 H 0.25976 0.23684 0.98894 0.0
C127 C 0.30395 0.2645 0.11336 0.0
C128 C 0.27943 0.2732 0.1444 0.0
C129 C 0.25155 0.26578 0.08923 0.0
C130 C 0.23017 0.2776 0.11304 0.0
C131 C 0.2021 0.26924 0.05764 0.0
C132 C 0.1957 0.25032 0.98008 0.0
C133 C 0.21683 0.23912 0.95623 0.0
C134 C 0.2444 0.24659 0.01 0.0
H135 H 0.23751 0.34634 0.09936 0.0
C136 C 0.22266 0.34024 0.15788 0.0
H137 H 0.20495 0.3095 0.26976 0.0
H138 H 0.33054 0.29164 0.26621 0.0
H139 H 0.33977 0.3227 0.40313 0.0
H140 H 0.30203 0.3423 0.44551 0.0
H141 H 0.25495 0.33107 0.35081 0.0
C142 C 0.21861 0.31485 0.2093 0.0
C143 C 0.23708 0.29735 0.19124 0.0
C144 C 0.26375 0.30302 0.24902 0.0
C145 C 0.28522 0.29126 0.22517 0.0
C146 C 0.31286 0.29908 0.28179 0.0
C147 C 0.31861 0.31712 0.36054 0.0
C148 C 0.29739 0.32819 0.38435 0.0
C149 C 0.27039 0.3215 0.32932 0.0
H150 H 0.06231 0.36337 0.1832 0.0
C151 C 0.08272 0.36072 0.16076 0.0
H152 H 0.09817 0.33879 0.06472 0.0
H153 H 0.92903 0.25539 0.05628 0.0
H154 H 0.93248 0.23184 0.19493 0.0
H155 H 0.98757 0.24904 0.26341 0.0
H156 H 0.03954 0.2903 0.19371 0.0
C157 C 0.07755 0.3401 0.09148 0.0
C158 C 0.04511 0.32358 0.04121 0.0
C159 C 0.01514 0.2985 0.08097 0.0
C160 C 0.98353 0.28806 0.04044 0.0
C161 C 0.95383 0.26406 0.08353 0.0
C162 C 0.95544 0.25028 0.16321 0.0
C163 C 0.98643 0.26 0.20183 0.0
C164 C 0.01604 0.28382 0.16147 0.0
H165 H 0.93631 0.25218 0.84966 0.0
C166 C 0.928 0.26808 0.87821 0.0
H167 H 0.94082 0.31125 0.9575 0.0
H168 H 0.09822 0.3688 0.94218 0.0
H169 H 0.09487 0.38939 0.7986 0.0
H170 H 0.03979 0.36998 0.72646 0.0
H171 H 0.98768 0.3298 0.79797 0.0
C172 C 0.9495 0.2961 0.92628 0.0
C173 C 0.98216 0.30209 0.95906 0.0
C174 C 0.01212 0.32469 0.91542 0.0
C175 C 0.04378 0.33556 0.95667 0.0
C176 C 0.07348 0.3593 0.91334 0.0
C177 C 0.0719 0.37139 0.83097 0.0
C178 C 0.04088 0.36048 0.7904 0.0
C179 C 0.01122 0.3375 0.83203 0.0
H180 H 0.80043 0.10309 0.91007 0.0
C181 C 0.77833 0.10448 0.92083 0.0
H182 H 0.72573 0.07695 0.93775 0.0
H183 H 0.68219 0.93539 0.78308 0.0
H184 H 0.68575 0.96197 0.64298 0.0
H185 H 0.71562 0.0249 0.63232 0.0
H186 H 0.74211 0.06167 0.7619 0.0
C187 C 0.74801 0.07567 0.9294 0.0
C188 C 0.74215 0.04073 0.92857 0.0
C189 C 0.72784 0.01976 0.85222 0.0
C190 C 0.71078 0.98354 0.85835 0.0
C191 C 0.69551 0.96305 0.78175 0.0
C192 C 0.69741 0.97799 0.70111 0.0
C193 C 0.71421 0.01344 0.69511 0.0
C194 C 0.72918 0.03422 0.76973 0.0
H195 H 0.65215 0.94195 0.02893 0.0
C196 C 0.65543 0.92229 0.99989 0.0
H197 H 0.68643 0.91243 0.92211 0.0
H198 H 0.77256 0.07426 0.08337 0.0
H199 H 0.77281 0.04802 0.22106 0.0
H200 H 0.74457 0.9852 0.23089 0.0
H201 H 0.71553 0.94822 0.10326 0.0
C202 C 0.68279 0.93157 0.95283 0.0
C203 C 0.70805 0.96861 0.94103 0.0
C204 C 0.72626 0.98982 0.01491 0.0
C205 C 0.74308 0.02599 0.00884 0.0
C206 C 0.75953 0.04661 0.08461 0.0
C207 C 0.75994 0.03188 0.16381 0.0
C208 C 0.74401 0.9965 0.16936 0.0
C209 C 0.7273 0.97558 0.09596 0.0
H210 H 0.69327 0.64137 0.93407 0.0
C211 C 0.71277 0.64851 0.98437 0.0
H212 H 0.73913 0.6802 0.09397 0.0
H213 H 0.65322 0.7453 0.9058 0.0
H214 H 0.68518 0.75314 0.77587 0.0
H215 H 0.7252 0.73383 0.77057 0.0
H216 H 0.73303 0.70594 0.89487 0.0
C217 C 0.71998 0.67371 0.04306 0.0
C218 C 0.69941 0.68995 0.04893 0.0
C219 C 0.69639 0.7079 0.9774 0.0
C220 C 0.67456 0.72075 0.9822 0.0
C221 C 0.67036 0.73631 0.9074 0.0
C222 C 0.68843 0.7408 0.83201 0.0
C223 C 0.71089 0.72984 0.82894 0.0
C224 C 0.71494 0.7136 0.90055 0.0
H225 H 0.66345 0.78009 0.05083 0.0
C226 C 0.63784 0.75909 0.06096 0.0
H227 H 0.60541 0.70579 0.07514 0.0
H228 H 0.70013 0.65842 0.20052 0.0
H229 H 0.67205 0.65516 0.33464 0.0
H230 H 0.63753 0.68089 0.34604 0.0
H231 H 0.63063 0.70974 0.22267 0.0
C232 C 0.63099 0.72668 0.06396 0.0
C233 C 0.65714 0.71734 0.06035 0.0
C234 C 0.66188 0.70137 0.13368 0.0
C235 C 0.68262 0.68736 0.12779 0.0
C236 C 0.6855 0.67033 0.20143 0.0
C237 C 0.66936 0.66811 0.27903 0.0
C238 C 0.64986 0.68251 0.28538 0.0
C239 C 0.64601 0.69889 0.21383 0.0
H240 H 0.05081 0.7276 0.94566 0.0
C241 C 0.05988 0.74681 0.99813 0.0
H242 H 0.0466 0.767 0.10281 0.0
H243 H 0.90133 0.67458 0.86986 0.0
H244 H 0.92912 0.71503 0.75393 0.0
H245 H 0.98925 0.76029 0.76859 0.0
H246 H 0.02218 0.76493 0.89879 0.0
C247 C 0.03748 0.74888 0.04774 0.0
C248 C 1.00024 0.7231 0.03999 0.0
C249 C 0.98085 0.72141 0.96504 0.0
C250 C 0.94561 0.69612 0.95832 0.0
C251 C 0.92764 0.69396 0.88028 0.0
C252 C 0.94337 0.71693 0.81283 0.0
C253 C 0.97726 0.74235 0.82095 0.0
C254 C 0.99591 0.74465 0.8959 0.0
H255 H 0.87062 0.67336 0.00776 0.0
C256 C 0.86655 0.64793 0.01357 0.0
H257 H 0.88877 0.61855 0.02611 0.0
H258 H 0.02933 0.71881 0.19299 0.0
H259 H 1.00114 0.68018 0.31197 0.0
H260 H 0.93989 0.63868 0.30399 0.0
H261 H 0.90648 0.63537 0.17665 0.0
C262 C 0.89325 0.64415 0.01992 0.0
C263 C 0.92935 0.67328 0.02823 0.0
C264 C 0.94864 0.67579 0.10433 0.0
C265 C 0.98395 0.70038 0.10989 0.0
C266 C 1.00242 0.70123 0.18573 0.0
C267 C 0.98657 0.67909 0.25458 0.0
C268 C 0.95211 0.65568 0.25001 0.0
C269 C 0.93326 0.65395 0.17614 0.0
H270 H 0.21043 0.91668 0.03571 0.0
C271 C 0.22913 0.91232 0.0652 0.0
H272 H 0.27736 0.93544 0.12611 0.0
H273 H 0.29451 0.06837 0.91129 0.0
H274 H 0.28612 0.03526 0.77801 0.0
H275 H 0.27017 0.97495 0.78489 0.0
H276 H 0.26179 0.94715 0.92444 0.0
C277 C 0.25893 0.93946 0.09345 0.0
C278 C 0.26717 0.9756 0.08741 0.0
C279 C 0.2728 0.99173 0.00503 0.0
C280 C 0.28364 0.02708 1.00116 0.0
C281 C 0.2877 0.04207 0.91798 0.0
C282 C 0.28271 0.0233 0.841 0.0
C283 C 0.2736 0.9893 0.84487 0.0
C284 C 0.2687 0.97359 0.92563 0.0
H285 H 0.35095 0.08906 0.02253 0.0
C286 C 0.33998 0.1032 0.04692 0.0
H287 H 0.29727 0.0984 0.10539 0.0
H288 H 0.25551 0.95214 0.25499 0.0
H289 H 0.26406 0.98545 0.38788 0.0
H290 H 0.2847 0.04703 0.38127 0.0
H291 H 0.29716 0.0758 0.24203 0.0
C292 C 0.30853 0.08523 0.0768 0.0
C293 C 0.29048 0.04684 0.07961 0.0
C294 C 0.28325 0.03032 0.16157 0.0
C295 C 0.27159 0.99476 0.16542 0.0
C296 C 0.26478 0.97909 0.24833 0.0
C297 C 0.2695 0.99789 0.32512 0.0
C298 C 0.28116 0.03258 0.32141 0.0
C299 C 0.28815 0.04877 0.24091 0.0
H300 H 0.14839 0.6858 0.13696 0.0
C301 C 0.17397 0.70663 0.15279 0.0
H302 H 0.22145 0.7201 0.20664 0.0
H303 H 0.11635 0.56117 0.34602 0.0
H304 H 0.09241 0.58653 0.43525 0.0
H305 H 0.11185 0.6477 0.42314 0.0
H306 H 0.15506 0.68382 0.32105 0.0
C307 C 0.1956 0.6997 0.19203 0.0
C308 C 0.18614 0.66376 0.20705 0.0
C309 C 0.16163 0.64329 0.26912 0.0
C310 C 0.15116 0.60825 0.27814 0.0
C311 C 0.12573 0.58807 0.33801 0.0
C312 C 0.11173 0.6023 0.38945 0.0
C313 C 0.12262 0.63672 0.38249 0.0
C314 C 0.1473 0.65712 0.32324 0.0
H315 H 0.17463 0.55929 0.35619 0.0
C316 C 0.16238 0.54392 0.29714 0.0
H317 H 0.14309 0.54201 0.16983 0.0
H318 H 0.23513 0.6964 0.08568 0.0
H319 H 0.26113 0.67188 1.00233 0.0
H320 H 0.24434 0.61171 0.02138 0.0
H321 H 0.2013 0.57567 0.12346 0.0
C322 C 0.15389 0.557 0.23023 0.0
C323 C 0.16589 0.59406 0.22674 0.0
C324 C 0.19149 0.61498 0.16758 0.0
C325 C 0.20157 0.64981 0.15761 0.0
C326 C 0.22674 0.66988 0.09674 0.0
C327 C 0.24188 0.65612 0.04829 0.0
C328 C 0.23239 0.62225 0.05891 0.0
C329 C 0.20753 0.6018 0.11764 0.0
H330 H 0.51318 0.17796 0.92061 0.0
C331 C 0.51403 0.18843 0.98545 0.0
H332 H 0.53849 0.20325 0.11055 0.0
H333 H 0.57986 0.09691 0.94525 0.0
H334 H 0.52303 0.05243 0.98214 0.0
H335 H 0.48355 0.06741 0.04042 0.0
H336 H 0.5006 0.12691 0.06155 0.0
C337 C 0.53704 0.19246 0.04577 0.0
C338 C 0.56185 0.18333 0.0236 0.0
C339 C 0.5516 0.14842 0.01396 0.0
C340 C 0.57448 0.13978 0.98233 0.0
C341 C 0.56353 0.10481 0.97054 0.0
C342 C 0.53099 0.07906 0.99126 0.0
C343 C 0.50874 0.0875 0.0239 0.0
C344 C 0.51879 0.12173 0.03529 0.0
H345 H 0.64026 0.14219 0.05033 0.0
C346 C 0.64825 0.14903 0.98324 0.0
H347 H 0.6406 0.16623 0.86235 0.0
H348 H 0.58966 0.25257 0.04204 0.0
H349 H 0.64713 0.29702 0.01098 0.0
H350 H 0.68732 0.28212 0.95798 0.0
H351 H 0.67026 0.2228 0.93535 0.0
C352 C 0.63162 0.15784 0.92812 0.0
C353 C 0.60752 0.16613 0.96225 0.0
C354 C 0.61818 0.20103 0.97542 0.0
C355 C 0.59524 0.20964 0.00651 0.0
C356 C 0.60622 0.24464 0.01862 0.0
C357 C 0.63913 0.27041 1.00115 0.0
C358 C 0.66174 0.26202 0.97127 0.0
C359 C 0.65155 0.22781 0.95843 0.0
H360 H 0.44182 0.6252 0.09043 0.0
C361 C 0.45565 0.64355 0.14372 0.0
H362 H 0.45616 0.65572 0.27809 0.0
H363 H 0.29831 0.54496 0.13307 0.0
H364 H 0.30518 0.59249 0.04874 0.0
H365 H 0.35884 0.64838 0.0551 0.0
H366 H 0.4062 0.65648 0.14361 0.0
C367 C 0.44286 0.63759 0.22406 0.0
C368 C 0.40881 0.60732 0.23834 0.0
C369 C 0.38063 0.60403 0.19196 0.0
C370 C 0.34904 0.5728 0.19385 0.0
C371 C 0.32231 0.56887 0.13907 0.0
C372 C 0.32599 0.59588 0.0894 0.0
C373 C 0.35623 0.62725 0.09259 0.0
C374 C 0.38332 0.63143 0.14306 0.0
H375 H 0.28936 0.53937 0.31179 0.0
C376 C 0.28533 0.51531 0.2862 0.0
H377 H 0.3081 0.49062 0.22945 0.0
H378 H 0.4572 0.6068 0.34054 0.0
H379 H 0.44925 0.56091 0.43498 0.0
H380 H 0.39337 0.508 0.44622 0.0
H381 H 0.34514 0.50049 0.36247 0.0
C382 C 0.31138 0.51433 0.25509 0.0
C383 C 0.34492 0.5462 0.24905 0.0
C384 C 0.37264 0.55022 0.29912 0.0
C385 C 0.40475 0.58084 0.29344 0.0
C386 C 0.43223 0.58408 0.34286 0.0
C387 C 0.428 0.55797 0.39733 0.0
C388 C 0.39653 0.52817 0.40365 0.0
C389 C 0.36907 0.52418 0.35523 0.0
H390 H 0.82974 0.47191 0.96524 0.0
C391 C 0.80997 0.46712 0.00986 0.0
H392 H 0.7728 0.43121 0.09349 0.0
H393 H 0.78962 0.32996 0.81888 0.0
H394 H 0.75765 0.34337 0.71815 0.0
H395 H 0.74357 0.38626 0.75843 0.0
H396 H 0.76175 0.41631 0.89909 0.0
C397 C 0.79278 0.43672 0.04892 0.0
C398 C 0.7993 0.40907 0.02727 0.0
C399 C 0.78764 0.391 0.94564 0.0
C400 C 0.79463 0.36529 0.92375 0.0
C401 C 0.78393 0.34877 0.84024 0.0
C402 C 0.76576 0.3564 0.7815 0.0
C403 C 0.75793 0.38062 0.80406 0.0
C404 C 0.76868 0.3978 0.88496 0.0
H405 H 0.76416 0.29156 0.97503 0.0
C406 C 0.78864 0.29498 0.96424 0.0
H407 H 0.84091 0.33122 0.96041 0.0
H408 H 0.82518 0.43874 0.18847 0.0
H409 H 0.85573 0.42409 0.29131 0.0
H410 H 0.86648 0.37843 0.25525 0.0
H411 H 0.84701 0.34724 0.11596 0.0
C412 C 0.8159 0.3269 0.96655 0.0
C413 C 0.81211 0.35664 0.98488 0.0
C414 C 0.82387 0.37482 0.06629 0.0
C415 C 0.81743 0.401 0.08749 0.0
C416 C 0.82932 0.41858 0.16935 0.0
C417 C 0.84686 0.41042 0.22892 0.0
C418 C 0.85292 0.38471 0.20859 0.0
C419 C 0.84161 0.36701 0.1284 0.0
H420 H 0.35615 0.85569 0.18042 0.0
C421 C 0.33892 0.83649 0.13242 0.0
H422 H 0.33189 0.80043 0.03501 0.0
H423 H 0.47863 0.85122 0.93383 0.0
H424 H 0.45924 0.86852 0.80769 0.0
H425 H 0.40571 0.86672 0.80994 0.0
H426 H 0.37108 0.84741 0.93822 0.0
C427 C 0.34897 0.81873 0.08494 0.0
C428 C 0.38385 0.82487 0.0906 0.0
C429 C 0.4044 0.83695 0.01594 0.0
C430 C 0.43567 0.83854 0.01514 0.0
C431 C 0.45495 0.84986 0.93854 0.0
C432 C 0.4441 0.85985 0.86554 0.0
C433 C 0.41393 0.85879 0.86676 0.0
C434 C 0.39423 0.84751 0.94077 0.0
H435 H 0.45239 0.77379 0.09674 0.0
C436 C 0.47678 0.79705 0.08811 0.0
H437 H 0.50207 0.85064 0.074 0.0
H438 H 0.35106 0.79967 0.24433 0.0
H439 H 0.37205 0.7856 0.37334 0.0
H440 H 0.42793 0.79241 0.37561 0.0
H441 H 0.46289 0.81264 0.248 0.0
C442 C 0.47823 0.82706 0.0848 0.0
C443 C 0.44675 0.82822 0.08919 0.0
C444 C 0.42714 0.81799 0.16577 0.0
C445 C 0.39544 0.81561 0.16587 0.0
C446 C 0.37571 0.80317 0.24144 0.0
C447 C 0.38741 0.79484 0.31596 0.0
C448 C 0.41883 0.79855 0.31714 0.0
C449 C 0.43855 0.80997 0.24319 0.0
H450 H 0.66409 0.44628 0.02827 0.0
C451 C 0.66479 0.46999 0.01765 0.0
H452 H 0.63531 0.4919 0.9991 0.0
H453 H 0.50523 0.34974 0.87402 0.0
H454 H 0.51888 0.38256 0.74071 0.0
H455 H 0.57056 0.43987 0.7337 0.0
H456 H 0.60904 0.46474 0.85967 0.0
C457 C 0.63542 0.46879 0.01214 0.0
C458 C 0.60233 0.43545 0.01937 0.0
C459 C 0.57967 0.4215 0.94578 0.0
C460 C 0.54976 0.38831 0.94972 0.0
C461 C 0.52819 0.37474 0.87445 0.0
C462 C 0.53572 0.39332 0.79761 0.0
C463 C 0.56482 0.42561 0.79369 0.0
C464 C 0.58667 0.43961 0.86655 0.0
H465 H 0.47509 0.33852 0.05742 0.0
C466 C 0.48255 0.32031 0.04335 0.0
H467 H 0.52281 0.31388 0.01366 0.0
H468 H 0.63637 0.45685 0.17784 0.0
H469 H 0.62208 0.42428 0.31141 0.0
H470 H 0.57137 0.36618 0.31642 0.0
H471 H 0.53437 0.34043 0.18797 0.0
C472 C 0.51503 0.33192 0.02625 0.0
C473 C 0.54233 0.36905 0.0273 0.0
C474 C 0.56396 0.38378 0.10238 0.0
C475 C 0.5937 0.41707 0.09884 0.0
C476 C 0.61415 0.43131 0.17588 0.0
C477 C 0.60609 0.41298 0.25324 0.0
C478 C 0.57751 0.38028 0.25609 0.0
C479 C 0.55657 0.36575 0.18184 0.0
H480 H 0.20996 0.43811 0.9806 0.0
C481 C 0.18888 0.4412 0.99169 0.0
H482 H 0.1491 0.44421 0.93472 0.0
H483 H 0.21089 0.49035 0.56157 0.0
H484 H 0.21903 0.5433 0.6205 0.0
H485 H 0.20795 0.5483 0.77557 0.0
H486 H 0.18892 0.50041 0.87285 0.0
C487 C 0.16964 0.44023 0.9234 0.0
C488 C 0.17695 0.43696 0.83022 0.0
C489 C 0.18738 0.46494 0.7734 0.0
C490 C 0.19327 0.46189 0.68343 0.0
C491 C 0.20509 0.49082 0.62961 0.0
C492 C 0.2101 0.52151 0.66277 0.0
C493 C 0.20389 0.52434 0.75008 0.0
C494 C 0.19283 0.49656 0.80513 0.0
H495 H 0.15633 0.43102 0.4987 0.0
C496 C 0.17719 0.42753 0.48787 0.0
H497 H 0.21575 0.42273 0.54567 0.0
H498 H 0.15495 0.37752 0.91913 0.0
H499 H 0.14584 0.32422 0.85974 0.0
H500 H 0.15597 0.31885 0.70406 0.0
H501 H 0.17506 0.36674 0.60666 0.0
C502 C 0.19563 0.42737 0.55665 0.0
C503 C 0.18803 0.43054 0.64973 0.0
C504 C 0.17733 0.40246 0.70646 0.0
C505 C 0.17169 0.40561 0.79658 0.0
C506 C 0.16013 0.3768 0.85068 0.0
C507 C 0.15467 0.34595 0.81733 0.0
C508 C 0.16036 0.34293 0.72968 0.0
C509 C 0.17147 0.3707 0.67456 0.0
H510 H 0.81026 0.22017 0.6689 0.0
C511 C 0.78654 0.19658 0.68075 0.0
H512 H 0.74478 0.15151 0.62543 0.0
H513 H 0.80194 0.25201 0.27921 0.0
H514 H 0.7879 0.28878 0.35683 0.0
H515 H 0.76831 0.27665 0.50876 0.0
H516 H 0.76321 0.2281 0.58444 0.0
C517 C 0.7682 0.17538 0.61321 0.0
C518 C 0.77912 0.18259 0.52052 0.0
C519 C 0.78091 0.21057 0.4763 0.0
C520 C 0.79102 0.21687 0.38749 0.0
C521 C 0.79376 0.24564 0.34595 0.0
C522 C 0.78579 0.26699 0.38976 0.0
C523 C 0.77485 0.26021 0.47536 0.0
C524 C 0.77228 0.23233 0.51833 0.0
H525 H 0.76343 0.18298 0.18835 0.0
C526 C 0.79037 0.19508 0.18065 0.0
H527 H 0.83775 0.21371 0.24334 0.0
H528 H 0.77711 0.12605 0.58429 0.0
H529 H 0.78864 0.08785 0.50397 0.0
H530 H 0.80462 0.09798 0.3489 0.0
H531 H 0.80919 0.14644 0.27317 0.0
C532 C 0.8109 0.20229 0.25128 0.0
C533 C 0.79824 0.19459 0.34214 0.0
C534 C 0.79553 0.16612 0.38543 0.0
C535 C 0.78598 0.16011 0.47462 0.0
C536 C 0.78385 0.13163 0.51634 0.0
C537 C 0.7905 0.10954 0.47107 0.0
C538 C 0.79953 0.11526 0.38379 0.0
C539 C 0.80212 0.1432 0.34118 0.0
H540 H 0.56954 0.80663 0.81618 0.0
C541 C 0.56183 0.78017 0.82703 0.0
H542 H 0.55054 0.73321 0.7702 0.0
H543 H 0.53458 0.81207 0.425 0.0
H544 H 0.49023 0.81235 0.50366 0.0
H545 H 0.47832 0.79257 0.65604 0.0
H546 H 0.51083 0.77284 0.73099 0.0
C547 C 0.55783 0.75952 0.7586 0.0
C548 C 0.56433 0.77132 0.66601 0.0
C549 C 0.54439 0.78202 0.62246 0.0
C550 C 0.55057 0.79249 0.53357 0.0
C551 C 0.53079 0.80367 0.49218 0.0
C552 C 0.5052 0.80387 0.53647 0.0
C553 C 0.49854 0.79279 0.62231 0.0
C554 C 0.51767 0.7818 0.66493 0.0
H555 H 0.55288 0.75647 0.33194 0.0
C556 C 0.57015 0.78385 0.32496 0.0
H557 H 0.60058 0.83187 0.38957 0.0
H558 H 0.60651 0.75125 0.72798 0.0
H559 H 0.64865 0.74819 0.64595 0.0
H560 H 0.65815 0.76496 0.49103 0.0
H561 H 0.62543 0.78481 0.41688 0.0
C562 C 0.58375 0.80441 0.39652 0.0
C563 C 0.57582 0.7912 0.48735 0.0
C564 C 0.59497 0.77949 0.52974 0.0
C565 C 0.5893 0.76962 0.61909 0.0
C566 C 0.60931 0.75859 0.65996 0.0
C567 C 0.63374 0.75687 0.61379 0.0
C568 C 0.63911 0.76631 0.52654 0.0
C569 C 0.62013 0.77764 0.48476 0.0
H570 H 0.73896 0.56033 0.7421 0.0
C571 C 0.76287 0.56251 0.75611 0.0
H572 H 0.80608 0.56618 0.70446 0.0
H573 H 0.73893 0.49523 0.34126 0.0
H574 H 0.7443 0.45118 0.41144 0.0
H575 H 0.7622 0.45717 0.56724 0.0
H576 H 0.77469 0.50715 0.65379 0.0
C577 C 0.78275 0.56523 0.69037 0.0
C578 C 0.77172 0.56193 0.59691 0.0
C579 C 0.76501 0.53273 0.54692 0.0
C580 C 0.75502 0.5294 0.45691 0.0
C581 C 0.7474 0.49947 0.40928 0.0
C582 C 0.75017 0.47386 0.44891 0.0
C583 C 0.76022 0.47722 0.53663 0.0
C584 C 0.76745 0.50615 0.58547 0.0
H585 H 0.78705 0.55853 0.27544 0.0
C586 C 0.76324 0.55622 0.25904 0.0
H587 H 0.71907 0.55168 0.30647 0.0
H588 H 0.78479 0.62218 0.67261 0.0
H589 H 0.77892 0.66594 0.6027 0.0
H590 H 0.76072 0.65977 0.44712 0.0
H591 H 0.74852 0.60992 0.36047 0.0
C592 C 0.74231 0.55274 0.32271 0.0
C593 C 0.75222 0.55551 0.41695 0.0
C594 C 0.75861 0.58457 0.46712 0.0
C595 C 0.76867 0.58794 0.55709 0.0
C596 C 0.77621 0.61785 0.60469 0.0
C597 C 0.77316 0.64331 0.56519 0.0
C598 C 0.76294 0.63985 0.4776 0.0
C599 C 0.75589 0.611 0.42869 0.0
H600 H 0.22777 0.82435 0.34335 0.0
C601 C 0.20109 0.81434 0.3332 0.0
H602 H 0.15431 0.79657 0.39173 0.0
H603 H 0.20434 0.762 0.74606 0.0
H604 H 0.1812 0.70715 0.67124 0.0
H605 H 0.16322 0.6996 0.51528 0.0
H606 H 0.16864 0.74711 0.43286 0.0
C607 C 0.1811 0.80716 0.40214 0.0
C608 C 0.19387 0.81239 0.49463 0.0
C609 C 0.18965 0.7842 0.54271 0.0
C610 C 0.19924 0.78839 0.63339 0.0
C611 C 0.19634 0.76012 0.67819 0.0
C612 C 0.18333 0.72847 0.63577 0.0
C613 C 0.17323 0.72422 0.54791 0.0
C614 C 0.17639 0.75168 0.5015 0.0
H615 H 0.17613 0.79196 0.82401 0.0
C616 C 0.20276 0.8102 0.83716 0.0
H617 H 0.25014 0.84457 0.78458 0.0
H618 H 0.20587 0.87171 0.42089 0.0
H619 H 0.22914 0.92688 0.49484 0.0
H620 H 0.24449 0.93403 0.65262 0.0
H621 H 0.23678 0.88615 0.73755 0.0
C622 C 0.22362 0.82602 0.77052 0.0
C623 C 0.21214 0.82065 0.67648 0.0
C624 C 0.21674 0.84895 0.62777 0.0
C625 C 0.20767 0.84482 0.53681 0.0
C626 C 0.21234 0.87344 0.49005 0.0
C627 C 0.22566 0.90526 0.53169 0.0
C628 C 0.23435 0.90929 0.62053 0.0
C629 C 0.22991 0.88158 0.6684 0.0
H630 H 0.41853 0.19871 0.79496 0.0
C631 C 0.3988 0.20418 0.8024 0.0
H632 H 0.36374 0.21297 0.7383 0.0
H633 H 0.45313 0.25815 0.39424 0.0
H634 H 0.47953 0.31374 0.46684 0.0
H635 H 0.46585 0.31955 0.61879 0.0
H636 H 0.42592 0.26954 0.69943 0.0
C637 C 0.38304 0.20688 0.73104 0.0
C638 C 0.39189 0.20308 0.64002 0.0
C639 C 0.41435 0.23256 0.59246 0.0
C640 C 0.42139 0.22927 0.50368 0.0
C641 C 0.44557 0.25911 0.46011 0.0
C642 C 0.46123 0.29124 0.50141 0.0
C643 C 0.45358 0.29451 0.58701 0.0
C644 C 0.43055 0.2656 0.63245 0.0
H645 H 0.39431 0.22191 0.31186 0.0
C646 C 0.40514 0.20644 0.30022 0.0
H647 H 0.4226 0.17668 0.35609 0.0
H648 H 0.34845 0.14144 0.71321 0.0
H649 H 0.32218 0.08546 0.64174 0.0
H650 H 0.33319 0.07961 0.48718 0.0
H651 H 0.37017 0.12962 0.40264 0.0
C652 C 0.41206 0.1924 0.36828 0.0
C653 C 0.40492 0.19646 0.46135 0.0
C654 C 0.3829 0.16692 0.50975 0.0
C655 C 0.37645 0.17025 0.59904 0.0
C656 C 0.35424 0.14034 0.64539 0.0
C657 C 0.33896 0.10806 0.60515 0.0
C658 C 0.34514 0.10477 0.51808 0.0
C659 C 0.36663 0.13373 0.47046 0.0
loop_
_geom_bond_atom_site_label_1
_geom_bond_atom_site_label_2
_geom_bond_distance
_geom_bond_site_symmetry_2
_ccdc_geom_bond_type
Dy0 O4 2.398 . S
Dy0 O5 2.491 . S
Dy0 O6 2.403 1_554 S
Dy0 O7 2.664 . S
Dy0 O11 2.326 . S
Dy0 O15 2.310 . S
Dy0 O16 2.351 . S
C1 O12 1.185 . S
C1 O13 1.355 . S
C2 O4 1.185 . S
C2 O5 1.355 . S
Dy3 O7 2.310 . S
Dy3 O10 2.351 . S
Dy3 O12 2.398 . S
Dy3 O13 2.491 . S
Dy3 O14 2.403 . S
Dy3 O15 2.664 . S
Dy3 O17 2.326 . S
O4 Dy0 2.398 . S
O4 C2 1.185 . S
O5 Dy0 2.491 . S
O5 C2 1.355 . S
O6 Dy0 2.403 1_556 S
O6 C8 1.254 . S
O7 Dy0 2.664 . S
O7 Dy3 2.310 . S
O7 C8 1.268 1_554 S
C8 O6 1.254 . S
C8 O7 1.268 1_556 S
C9 O14 1.254 . S
C9 O15 1.268 . S
O10 Dy3 2.351 . S
O10 C18 1.249 . S
O11 Dy0 2.326 . S
O11 C18 1.267 . S
O12 C1 1.185 . S
O12 Dy3 2.398 . S
O13 C1 1.355 . S
O13 Dy3 2.491 . S
O14 Dy3 2.403 . S
O14 C9 1.254 . S
O15 Dy0 2.310 . S
O15 Dy3 2.664 . S
O15 C9 1.268 . S
O16 Dy0 2.351 . S
O16 C19 1.249 . S
O17 Dy3 2.326 . S
O17 C19 1.267 . S
C18 O10 1.249 . S
C18 O11 1.267 . S
C19 O16 1.249 . S
C19 O17 1.267 . S
Dy20 O24 2.398 . S
Dy20 O25 2.491 1_556 S
Dy20 O26 2.403 . S
Dy20 O27 2.664 . S
Dy20 O31 2.326 . S
Dy20 O35 2.310 1_556 S
Dy20 O36 2.351 . S
C21 O32 1.185 . S
C21 O33 1.355 1_554 S
C22 O24 1.185 . S
C22 O25 1.355 1_556 S
Dy23 O27 2.310 1_554 S
Dy23 O30 2.351 . S
Dy23 O32 2.398 . S
Dy23 O33 2.491 1_554 S
Dy23 O34 2.403 . S
Dy23 O35 2.664 . S
Dy23 O37 2.326 . S
O24 Dy20 2.398 . S
O24 C22 1.185 . S
O25 Dy20 2.491 1_554 S
O25 C22 1.355 1_554 S
O26 Dy20 2.403 . S
O26 C28 1.254 . S
O27 Dy20 2.664 . S
O27 Dy23 2.310 1_556 S
O27 C28 1.268 . S
C28 O26 1.254 . S
C28 O27 1.268 . S
C29 O34 1.254 . S
C29 O35 1.268 . S
O30 Dy23 2.351 . S
O30 C38 1.249 1_554 S
O31 Dy20 2.326 . S
O31 C38 1.267 . S
O32 C21 1.185 . S
O32 Dy23 2.398 . S
O33 C21 1.355 1_556 S
O33 Dy23 2.491 1_556 S
O34 Dy23 2.403 . S
O34 C29 1.254 . S
O35 Dy20 2.310 1_554 S
O35 Dy23 2.664 . S
O35 C29 1.268 . S
O36 Dy20 2.351 . S
O36 C39 1.249 1_556 S
O37 Dy23 2.326 . S
O37 C39 1.267 . S
C38 O30 1.249 1_556 S
C38 O31 1.267 . S
C39 O36 1.249 1_554 S
C39 O37 1.267 . S
Dy40 O44 2.398 . S
Dy40 O45 2.491 . S
Dy40 O46 2.403 1_554 S
Dy40 O47 2.664 . S
Dy40 O51 2.326 . S
Dy40 O55 2.310 . S
Dy40 O56 2.351 . S
C41 O52 1.185 . S
C41 O53 1.355 . S
C42 O44 1.185 . S
C42 O45 1.355 . S
Dy43 O47 2.310 . S
Dy43 O50 2.351 . S
Dy43 O52 2.398 . S
Dy43 O53 2.491 . S
Dy43 O54 2.403 . S
Dy43 O55 2.664 . S
Dy43 O57 2.326 . S
O44 Dy40 2.398 . S
O44 C42 1.185 . S
O45 Dy40 2.491 . S
O45 C42 1.355 . S
O46 Dy40 2.403 1_556 S
O46 C48 1.254 . S
O47 Dy40 2.664 . S
O47 Dy43 2.310 . S
O47 C48 1.268 1_554 S
C48 O46 1.254 . S
C48 O47 1.268 1_556 S
C49 O54 1.254 . S
C49 O55 1.268 . S
O50 Dy43 2.351 . S
O50 C58 1.249 . S
O51 Dy40 2.326 . S
O51 C58 1.267 . S
O52 C41 1.185 . S
O52 Dy43 2.398 . S
O53 C41 1.355 . S
O53 Dy43 2.491 . S
O54 Dy43 2.403 . S
O54 C49 1.254 . S
O55 Dy40 2.310 . S
O55 Dy43 2.664 . S
O55 C49 1.268 . S
O56 Dy40 2.351 . S
O56 C59 1.249 . S
O57 Dy43 2.326 . S
O57 C59 1.267 . S
C58 O50 1.249 . S
C58 O51 1.267 . S
C59 O56 1.249 . S
C59 O57 1.267 . S
Dy60 O64 2.398 . S
Dy60 O65 2.491 1_556 S
Dy60 O66 2.403 . S
Dy60 O67 2.664 . S
Dy60 O71 2.326 . S
Dy60 O75 2.310 1_556 S
Dy60 O76 2.351 1_556 S
C61 O72 1.185 . S
C61 O73 1.355 1_554 S
C62 O64 1.185 1_554 S
C62 O65 1.355 . S
Dy63 O67 2.310 1_554 S
Dy63 O70 2.351 . S
Dy63 O72 2.398 . S
Dy63 O73 2.491 1_554 S
Dy63 O74 2.403 . S
Dy63 O75 2.664 . S
Dy63 O77 2.326 . S
O64 Dy60 2.398 . S
O64 C62 1.185 1_556 S
O65 Dy60 2.491 1_554 S
O65 C62 1.355 . S
O66 Dy60 2.403 . S
O66 C68 1.254 . S
O67 Dy60 2.664 . S
O67 Dy63 2.310 1_556 S
O67 C68 1.268 . S
C68 O66 1.254 . S
C68 O67 1.268 . S
C69 O74 1.254 . S
C69 O75 1.268 . S
O70 Dy63 2.351 . S
O70 C78 1.249 1_554 S
O71 Dy60 2.326 . S
O71 C78 1.267 . S
O72 C61 1.185 . S
O72 Dy63 2.398 . S
O73 C61 1.355 1_556 S
O73 Dy63 2.491 1_556 S
O74 Dy63 2.403 . S
O74 C69 1.254 . S
O75 Dy60 2.310 1_554 S
O75 Dy63 2.664 . S
O75 C69 1.268 . S
O76 Dy60 2.351 1_554 S
O76 C79 1.249 . S
O77 Dy63 2.326 . S
O77 C79 1.267 . S
C78 O70 1.249 1_556 S
C78 O71 1.267 . S
C79 O76 1.249 . S
C79 O77 1.267 . S
Dy80 O84 2.398 . S
Dy80 O85 2.491 . S
Dy80 O86 2.403 1_554 S
Dy80 O87 2.664 . S
Dy80 O91 2.326 . S
Dy80 O95 2.310 . S
Dy80 O96 2.351 . S
C81 O92 1.185 . S
C81 O93 1.355 . S
C82 O84 1.185 . S
C82 O85 1.355 . S
Dy83 O87 2.310 . S
Dy83 O90 2.351 . S
Dy83 O92 2.398 . S
Dy83 O93 2.491 . S
Dy83 O94 2.403 . S
Dy83 O95 2.664 . S
Dy83 O97 2.326 . S
O84 Dy80 2.398 . S
O84 C82 1.185 . S
O85 Dy80 2.491 . S
O85 C82 1.355 . S
O86 Dy80 2.403 1_556 S
O86 C88 1.254 . S
O87 Dy80 2.664 . S
O87 Dy83 2.310 . S
O87 C88 1.268 1_554 S
C88 O86 1.254 . S
C88 O87 1.268 1_556 S
C89 O94 1.254 . S
C89 O95 1.268 . S
O90 Dy83 2.351 . S
O90 C98 1.249 . S
O91 Dy80 2.326 . S
O91 C98 1.267 . S
O92 C81 1.185 . S
O92 Dy83 2.398 . S
O93 C81 1.355 . S
O93 Dy83 2.491 . S
O94 Dy83 2.403 . S
O94 C89 1.254 . S
O95 Dy80 2.310 . S
O95 Dy83 2.664 . S
O95 C89 1.268 . S
O96 Dy80 2.351 . S
O96 C99 1.249 . S
O97 Dy83 2.326 . S
O97 C99 1.267 . S
C98 O90 1.249 . S
C98 O91 1.267 . S
C99 O96 1.249 . S
C99 O97 1.267 . S
Dy100 O104 2.398 . S
Dy100 O105 2.491 1_554 S
Dy100 O106 2.403 . S
Dy100 O107 2.664 . S
Dy100 O111 2.326 . S
Dy100 O115 2.310 1_554 S
Dy100 O116 2.351 . S
C101 O112 1.185 1_554 S
C101 O113 1.355 . S
C102 O104 1.185 1_556 S
C102 O105 1.355 . S
Dy103 O107 2.310 1_556 S
Dy103 O110 2.351 . S
Dy103 O112 2.398 . S
Dy103 O113 2.491 1_556 S
Dy103 O114 2.403 . S
Dy103 O115 2.664 . S
Dy103 O117 2.326 . S
O104 Dy100 2.398 . S
O104 C102 1.185 1_554 S
O105 Dy100 2.491 1_556 S
O105 C102 1.355 . S
O106 Dy100 2.403 . S
O106 C108 1.254 . S
O107 Dy100 2.664 . S
O107 Dy103 2.310 1_554 S
O107 C108 1.268 . S
C108 O106 1.254 . S
C108 O107 1.268 . S
C109 O114 1.254 . S
C109 O115 1.268 . S
O110 Dy103 2.351 . S
O110 C118 1.249 1_556 S
O111 Dy100 2.326 . S
O111 C118 1.267 . S
O112 C101 1.185 1_556 S
O112 Dy103 2.398 . S
O113 C101 1.355 . S
O113 Dy103 2.491 1_554 S
O114 Dy103 2.403 . S
O114 C109 1.254 . S
O115 Dy100 2.310 1_556 S
O115 Dy103 2.664 . S
O115 C109 1.268 . S
O116 Dy100 2.351 . S
O116 C119 1.249 . S
O117 Dy103 2.326 . S
O117 C119 1.267 1_556 S
C118 O110 1.249 1_554 S
C118 O111 1.267 . S
C119 O116 1.249 . S
C119 O117 1.267 1_554 S
H120 C121 0.951 . S
C121 H120 0.951 . S
C121 C127 1.265 . S
H122 C127 0.950 . S
H123 C131 0.949 . S
H124 C132 0.950 . S
H125 C133 0.951 . S
H126 C134 0.951 . S
C127 C121 1.265 . S
C127 H122 0.950 . S
C127 C128 1.478 . S
C128 C127 1.478 . S
C128 C129 1.397 1_554 S
C128 C145 1.394 . S
C129 C128 1.397 1_556 S
C129 C130 1.438 1_556 S
C129 C134 1.429 . S
C130 C129 1.438 1_554 S
C130 C131 1.428 1_554 S
C130 C143 1.394 . S
C131 H123 0.949 . S
C131 C130 1.428 1_556 S
C131 C132 1.345 . S
C132 H124 0.950 . S
C132 C131 1.345 . S
C132 C133 1.424 . S
C133 H125 0.951 . S
C133 C132 1.424 . S
C133 C134 1.347 . S
C134 H126 0.951 . S
C134 C129 1.429 . S
C134 C133 1.347 . S
H135 C136 0.951 . S
C136 H135 0.951 . S
C136 C142 1.265 . S
H137 C142 0.950 . S
H138 C146 0.949 . S
H139 C147 0.950 . S
H140 C148 0.951 . S
H141 C149 0.951 . S
C142 C136 1.265 . S
C142 H137 0.950 . S
C142 C143 1.478 . S
C143 C130 1.394 . S
C143 C142 1.478 . S
C143 C144 1.397 . S
C144 C143 1.397 . S
C144 C145 1.438 . S
C144 C149 1.429 . S
C145 C128 1.394 . S
C145 C144 1.438 . S
C145 C146 1.428 . S
C146 H138 0.949 . S
C146 C145 1.428 . S
C146 C147 1.345 . S
C147 H139 0.950 . S
C147 C146 1.345 . S
C147 C148 1.424 . S
C148 H140 0.951 . S
C148 C147 1.424 . S
C148 C149 1.347 . S
C149 H141 0.951 . S
C149 C144 1.429 . S
C149 C148 1.347 . S
H150 C151 0.951 . S
C151 H150 0.951 . S
C151 C157 1.265 . S
H152 C157 0.950 . S
H153 C161 0.949 . S
H154 C162 0.950 . S
H155 C163 0.951 . S
H156 C164 0.951 . S
C157 C151 1.265 . S
C157 H152 0.950 . S
C157 C158 1.478 . S
C158 C157 1.478 . S
C158 C159 1.397 . S
C158 C175 1.394 . S
C159 C158 1.397 . S
C159 C160 1.438 1_455 S
C159 C164 1.429 . S
C160 C159 1.438 1_655 S
C160 C161 1.428 . S
C160 C173 1.394 . S
C161 H153 0.949 . S
C161 C160 1.428 . S
C161 C162 1.345 . S
C162 H154 0.950 . S
C162 C161 1.345 . S
C162 C163 1.424 1_655 S
C163 H155 0.951 . S
C163 C162 1.424 1_455 S
C163 C164 1.347 . S
C164 H156 0.951 . S
C164 C159 1.429 . S
C164 C163 1.347 . S
H165 C166 0.951 . S
C166 H165 0.951 . S
C166 C172 1.265 . S
H167 C172 0.950 . S
H168 C176 0.949 . S
H169 C177 0.950 . S
H170 C178 0.941 1_655 S
H171 C179 0.951 . S
C172 C166 1.265 . S
C172 H167 0.950 . S
C172 C173 1.478 . S
C173 C160 1.394 . S
C173 C172 1.478 . S
C173 C174 1.397 1_554 S
C174 C173 1.397 1_556 S
C174 C175 1.438 1_656 S
C174 C179 1.429 . S
C175 C158 1.394 . S
C175 C174 1.438 1_454 S
C175 C176 1.428 1_554 S
C176 H168 0.949 . S
C176 C175 1.428 1_556 S
C176 C177 1.345 . S
C177 H169 0.950 . S
C177 C176 1.345 . S
C177 C178 1.438 . S
C178 H170 0.941 1_455 S
C178 C177 1.438 . S
C178 C179 1.343 1_455 S
C179 H171 0.951 . S
C179 C174 1.429 . S
C179 C178 1.343 1_655 S
H180 C181 0.951 1_556 S
C181 H180 0.951 1_554 S
C181 C187 1.265 . S
H182 C187 0.950 . S
H183 C191 0.949 . S
H184 C192 0.950 . S
H185 C193 0.951 . S
H186 C194 0.951 . S
C187 C181 1.265 . S
C187 H182 0.950 . S
C187 C188 1.478 . S
C188 C187 1.478 . S
C188 C189 1.397 1_554 S
C188 C205 1.394 . S
C189 C188 1.397 1_556 S
C189 C190 1.438 1_545 S
C189 C194 1.429 . S
C190 C189 1.438 1_565 S
C190 C191 1.428 . S
C190 C203 1.394 1_556 S
C191 H183 0.949 . S
C191 C190 1.428 . S
C191 C192 1.345 . S
C192 H184 0.950 . S
C192 C191 1.345 . S
C192 C193 1.424 1_565 S
C193 H185 0.951 . S
C193 C192 1.424 1_545 S
C193 C194 1.347 . S
C194 H186 0.951 . S
C194 C189 1.429 . S
C194 C193 1.347 . S
H195 C196 0.951 . S
C196 H195 0.951 . S
C196 C202 1.265 . S
H197 C202 0.950 . S
H198 C206 0.949 . S
H199 C207 0.950 . S
H200 C208 0.951 . S
H201 C209 0.960 . S
C202 C196 1.265 . S
C202 H197 0.950 . S
C202 C203 1.478 . S
C203 C190 1.394 1_554 S
C203 C202 1.478 . S
C203 C204 1.397 1_565 S
C204 C203 1.397 1_545 S
C204 C205 1.438 . S
C204 C209 1.424 1_545 S
C205 C188 1.394 . S
C205 C204 1.438 . S
C205 C206 1.428 . S
C206 H198 0.949 . S
C206 C205 1.428 . S
C206 C207 1.345 . S
C207 H199 0.950 . S
C207 C206 1.345 . S
C207 C208 1.424 . S
C208 H200 0.951 . S
C208 C207 1.424 . S
C208 C209 1.343 1_545 S
C209 H201 0.960 . S
C209 C204 1.424 1_565 S
C209 C208 1.343 1_565 S
H210 C211 0.951 . S
C211 H210 0.951 . S
C211 C217 1.265 . S
H212 C217 0.950 . S
H213 C221 0.949 . S
H214 C222 0.950 . S
H215 C223 0.951 . S
H216 C224 0.951 . S
C217 C211 1.265 . S
C217 H212 0.950 . S
C217 C218 1.478 . S
C218 C217 1.478 . S
C218 C219 1.397 1_554 S
C218 C235 1.394 . S
C219 C218 1.397 1_556 S
C219 C220 1.438 . S
C219 C224 1.429 . S
C220 C219 1.438 . S
C220 C221 1.428 . S
C220 C233 1.394 1_556 S
C221 H213 0.949 . S
C221 C220 1.428 . S
C221 C222 1.345 . S
C222 H214 0.950 . S
C222 C221 1.345 . S
C222 C223 1.424 . S
C223 H215 0.951 . S
C223 C222 1.424 . S
C223 C224 1.347 . S
C224 H216 0.951 . S
C224 C219 1.429 . S
C224 C223 1.347 . S
H225 C226 0.951 . S
C226 H225 0.951 . S
C226 C232 1.265 . S
H227 C232 0.950 . S
H228 C236 0.949 . S
H229 C237 0.950 . S
H230 C238 0.951 . S
H231 C239 0.951 . S
C232 C226 1.265 . S
C232 H227 0.950 . S
C232 C233 1.478 . S
C233 C220 1.394 1_554 S
C233 C232 1.478 . S
C233 C234 1.397 . S
C234 C233 1.397 . S
C234 C235 1.438 . S
C234 C239 1.429 . S
C235 C218 1.394 . S
C235 C234 1.438 . S
C235 C236 1.428 . S
C236 H228 0.949 . S
C236 C235 1.428 . S
C236 C237 1.345 . S
C237 H229 0.950 . S
C237 C236 1.345 . S
C237 C238 1.424 . S
C238 H230 0.951 . S
C238 C237 1.424 . S
C238 C239 1.347 . S
C239 H231 0.951 . S
C239 C234 1.429 . S
C239 C238 1.347 . S
H240 C241 0.951 . S
C241 H240 0.951 . S
C241 C247 1.265 . S
H242 C247 0.950 . S
H243 C251 0.949 1_556 S
H244 C252 0.950 1_556 S
H245 C253 0.951 . S
H246 C254 0.951 . S
C247 C241 1.265 . S
C247 H242 0.950 . S
C247 C248 1.478 1_455 S
C248 C247 1.478 1_655 S
C248 C249 1.397 . S
C248 C265 1.394 . S
C249 C248 1.397 . S
C249 C250 1.438 . S
C249 C254 1.429 . S
C250 C249 1.438 . S
C250 C251 1.428 . S
C250 C263 1.394 . S
C251 H243 0.949 1_554 S
C251 C250 1.428 . S
C251 C252 1.345 . S
C252 H244 0.950 1_554 S
C252 C251 1.345 . S
C252 C253 1.424 . S
C253 H245 0.951 . S
C253 C252 1.424 . S
C253 C254 1.347 . S
C254 H246 0.951 . S
C254 C249 1.429 . S
C254 C253 1.347 . S
H255 C256 0.951 . S
C256 H255 0.951 . S
C256 C262 1.265 1_554 S
H257 C262 0.950 . S
H258 C266 0.949 . S
H259 C267 0.950 1_455 S
H260 C268 0.951 . S
H261 C269 0.951 . S
C262 C256 1.265 1_556 S
C262 H257 0.950 . S
C262 C263 1.478 1_556 S
C263 C250 1.394 . S
C263 C262 1.478 1_554 S
C263 C264 1.397 . S
C264 C263 1.397 . S
C264 C265 1.438 . S
C264 C269 1.429 . S
C265 C248 1.394 . S
C265 C264 1.438 . S
C265 C266 1.428 1_655 S
C266 H258 0.949 . S
C266 C265 1.428 1_455 S
C266 C267 1.345 1_455 S
C267 H259 0.950 1_655 S
C267 C266 1.345 1_655 S
C267 C268 1.424 . S
C268 H260 0.951 . S
C268 C267 1.424 . S
C268 C269 1.347 . S
C269 H261 0.951 . S
C269 C264 1.429 . S
C269 C268 1.347 . S
H270 C271 0.951 . S
C271 H270 0.951 . S
C271 C277 1.265 . S
H272 C277 0.950 . S
H273 C281 0.949 . S
H274 C282 0.950 . S
H275 C283 0.951 . S
H276 C284 0.951 . S
C277 C271 1.265 . S
C277 H272 0.950 . S
C277 C278 1.478 . S
C278 C277 1.478 . S
C278 C279 1.404 . S
C278 C295 1.394 . S
C279 C278 1.404 . S
C279 C280 1.436 1_564 S
C279 C284 1.423 1_554 S
C280 C279 1.436 1_546 S
C280 C281 1.428 . S
C280 C293 1.394 1_556 S
C281 H273 0.949 . S
C281 C280 1.428 . S
C281 C282 1.345 . S
C282 H274 0.950 . S
C282 C281 1.345 . S
C282 C283 1.424 1_545 S
C283 H275 0.951 . S
C283 C282 1.424 1_565 S
C283 C284 1.347 . S
C284 H276 0.951 . S
C284 C279 1.423 1_556 S
C284 C283 1.347 . S
H285 C286 0.951 . S
C286 H285 0.951 . S
C286 C292 1.265 . S
H287 C292 0.950 . S
H288 C296 0.949 . S
H289 C297 0.950 . S
H290 C298 0.951 . S
H291 C299 0.951 . S
C292 C286 1.265 . S
C292 H287 0.950 . S
C292 C293 1.478 . S
C293 C280 1.394 1_554 S
C293 C292 1.478 . S
C293 C294 1.397 . S
C294 C293 1.397 . S
C294 C295 1.438 1_545 S
C294 C299 1.429 . S
C295 C278 1.394 . S
C295 C294 1.438 1_565 S
C295 C296 1.428 . S
C296 H288 0.949 . S
C296 C295 1.428 . S
C296 C297 1.345 . S
C297 H289 0.950 . S
C297 C296 1.345 . S
C297 C298 1.424 1_565 S
C298 H290 0.951 . S
C298 C297 1.424 1_545 S
C298 C299 1.347 . S
C299 H291 0.951 . S
C299 C294 1.429 . S
C299 C298 1.347 . S
H300 C301 0.951 . S
C301 H300 0.951 . S
C301 C307 1.265 . S
H302 C307 0.950 . S
H303 C311 0.949 . S
H304 C312 0.950 . S
H305 C313 0.951 . S
H306 C314 0.951 . S
C307 C301 1.265 . S
C307 H302 0.950 . S
C307 C308 1.478 . S
C308 C307 1.478 . S
C308 C309 1.397 . S
C308 C325 1.394 . S
C309 C308 1.397 . S
C309 C310 1.438 . S
C309 C314 1.429 . S
C310 C309 1.438 . S
C310 C311 1.428 . S
C310 C323 1.394 . S
C311 H303 0.949 . S
C311 C310 1.428 . S
C311 C312 1.345 . S
C312 H304 0.950 . S
C312 C311 1.345 . S
C312 C313 1.424 . S
C313 H305 0.951 . S
C313 C312 1.424 . S
C313 C314 1.347 . S
C314 H306 0.951 . S
C314 C309 1.429 . S
C314 C313 1.347 . S
H315 C316 0.951 . S
C316 H315 0.951 . S
C316 C322 1.265 . S
H317 C322 0.950 . S
H318 C326 0.949 . S
H319 C327 0.950 . S
H320 C328 0.951 . S
H321 C329 0.951 . S
C322 C316 1.265 . S
C322 H317 0.950 . S
C322 C323 1.478 . S
C323 C310 1.394 . S
C323 C322 1.478 . S
C323 C324 1.397 . S
C324 C323 1.397 . S
C324 C325 1.438 . S
C324 C329 1.429 1_554 S
C325 C308 1.394 . S
C325 C324 1.438 . S
C325 C326 1.428 1_554 S
C326 H318 0.949 . S
C326 C325 1.428 1_556 S
C326 C327 1.345 . S
C327 H319 0.950 . S
C327 C326 1.345 . S
C327 C328 1.424 . S
C328 H320 0.951 . S
C328 C327 1.424 . S
C328 C329 1.347 . S
C329 H321 0.951 . S
C329 C324 1.429 1_556 S
C329 C328 1.347 . S
H330 C331 0.951 . S
C331 H330 0.951 . S
C331 C337 1.265 1_556 S
H332 C337 0.950 . S
H333 C341 0.949 . S
H334 C342 0.950 . S
H335 C343 0.951 . S
H336 C344 0.951 . S
C337 C331 1.265 1_554 S
C337 H332 0.950 . S
C337 C338 1.478 . S
C338 C337 1.478 . S
C338 C339 1.397 1_554 S
C338 C355 1.394 . S
C339 C338 1.397 1_556 S
C339 C340 1.438 . S
C339 C344 1.429 . S
C340 C339 1.438 . S
C340 C341 1.428 . S
C340 C353 1.394 . S
C341 H333 0.949 . S
C341 C340 1.428 . S
C341 C342 1.345 . S
C342 H334 0.950 . S
C342 C341 1.345 . S
C342 C343 1.424 . S
C343 H335 0.951 . S
C343 C342 1.424 . S
C343 C344 1.347 . S
C344 H336 0.951 . S
C344 C339 1.429 . S
C344 C343 1.347 . S
H345 C346 0.951 . S
C346 H345 0.951 . S
C346 C352 1.265 1_554 S
H347 C352 0.950 . S
H348 C356 0.949 . S
H349 C357 0.950 . S
H350 C358 0.951 . S
H351 C359 0.951 . S
C352 C346 1.265 1_556 S
C352 H347 0.950 . S
C352 C353 1.478 . S
C353 C340 1.394 . S
C353 C352 1.478 . S
C353 C354 1.397 1_556 S
C354 C353 1.397 1_554 S
C354 C355 1.438 . S
C354 C359 1.429 . S
C355 C338 1.394 . S
C355 C354 1.438 . S
C355 C356 1.428 . S
C356 H348 0.949 . S
C356 C355 1.428 . S
C356 C357 1.345 . S
C357 H349 0.950 . S
C357 C356 1.345 . S
C357 C358 1.424 . S
C358 H350 0.951 . S
C358 C357 1.424 . S
C358 C359 1.347 . S
C359 H351 0.951 . S
C359 C354 1.429 . S
C359 C358 1.347 . S
H360 C361 0.951 . S
C361 H360 0.951 . S
C361 C367 1.265 . S
H362 C367 0.950 . S
H363 C371 0.949 . S
H364 C372 0.950 . S
H365 C373 0.951 . S
H366 C374 0.951 . S
C367 C361 1.265 . S
C367 H362 0.950 . S
C367 C368 1.478 . S
C368 C367 1.478 . S
C368 C369 1.397 . S
C368 C385 1.394 . S
C369 C368 1.397 . S
C369 C370 1.438 . S
C369 C374 1.429 1_554 S
C370 C369 1.438 . S
C370 C371 1.428 1_554 S
C370 C383 1.394 . S
C371 H363 0.949 . S
C371 C370 1.428 1_556 S
C371 C372 1.345 . S
C372 H364 0.950 . S
C372 C371 1.345 . S
C372 C373 1.424 . S
C373 H365 0.951 . S
C373 C372 1.424 . S
C373 C374 1.347 . S
C374 H366 0.951 . S
C374 C369 1.429 1_556 S
C374 C373 1.347 . S
H375 C376 0.951 . S
C376 H375 0.951 . S
C376 C382 1.265 . S
H377 C382 0.950 . S
H378 C386 0.949 . S
H379 C387 0.950 . S
H380 C388 0.951 . S
H381 C389 0.951 . S
C382 C376 1.265 . S
C382 H377 0.950 . S
C382 C383 1.478 . S
C383 C370 1.394 . S
C383 C382 1.478 . S
C383 C384 1.397 . S
C384 C383 1.397 . S
C384 C385 1.438 . S
C384 C389 1.429 . S
C385 C368 1.394 . S
C385 C384 1.438 . S
C385 C386 1.428 . S
C386 H378 0.949 . S
C386 C385 1.428 . S
C386 C387 1.345 . S
C387 H379 0.950 . S
C387 C386 1.345 . S
C387 C388 1.424 . S
C388 H380 0.951 . S
C388 C387 1.424 . S
C388 C389 1.347 . S
C389 H381 0.951 . S
C389 C384 1.429 . S
C389 C388 1.347 . S
H390 C391 0.951 1_556 S
C391 H390 0.951 1_554 S
C391 C397 1.265 . S
H392 C397 0.950 . S
H393 C401 0.949 . S
H394 C402 0.950 . S
H395 C403 0.951 . S
H396 C404 0.951 . S
C397 C391 1.265 . S
C397 H392 0.950 . S
C397 C398 1.478 . S
C398 C397 1.478 . S
C398 C399 1.397 1_554 S
C398 C415 1.394 . S
C399 C398 1.397 1_556 S
C399 C400 1.438 . S
C399 C404 1.429 . S
C400 C399 1.438 . S
C400 C401 1.428 . S
C400 C413 1.399 . S
C401 H393 0.949 . S
C401 C400 1.428 . S
C401 C402 1.345 . S
C402 H394 0.950 . S
C402 C401 1.345 . S
C402 C403 1.424 . S
C403 H395 0.951 . S
C403 C402 1.424 . S
C403 C404 1.347 . S
C404 H396 0.951 . S
C404 C399 1.429 . S
C404 C403 1.347 . S
H405 C406 0.951 . S
C406 H405 0.951 . S
C406 C412 1.265 1_554 S
H407 C412 0.950 . S
H408 C416 0.949 . S
H409 C417 0.950 . S
H410 C418 0.951 . S
H411 C419 0.951 . S
C412 C406 1.265 1_556 S
C412 H407 0.950 . S
C412 C413 1.479 . S
C413 C400 1.399 . S
C413 C412 1.479 . S
C413 C414 1.391 1_556 S
C414 C413 1.391 1_554 S
C414 C415 1.438 . S
C414 C419 1.429 . S
C415 C398 1.394 . S
C415 C414 1.438 . S
C415 C416 1.428 . S
C416 H408 0.949 . S
C416 C415 1.428 . S
C416 C417 1.345 . S
C417 H409 0.950 . S
C417 C416 1.345 . S
C417 C418 1.424 . S
C418 H410 0.951 . S
C418 C417 1.424 . S
C418 C419 1.347 . S
C419 H411 0.951 . S
C419 C414 1.429 . S
C419 C418 1.347 . S
H420 C421 0.951 . S
C421 H420 0.951 . S
C421 C427 1.265 . S
H422 C427 0.950 . S
H423 C431 0.949 . S
H424 C432 0.950 . S
H425 C433 0.951 . S
H426 C434 0.951 . S
C427 C421 1.265 . S
C427 H422 0.950 . S
C427 C428 1.478 . S
C428 C427 1.478 . S
C428 C429 1.397 . S
C428 C445 1.394 . S
C429 C428 1.397 . S
C429 C430 1.438 . S
C429 C434 1.429 1_554 S
C430 C429 1.438 . S
C430 C431 1.428 1_554 S
C430 C443 1.394 . S
C431 H423 0.949 . S
C431 C430 1.428 1_556 S
C431 C432 1.345 . S
C432 H424 0.950 . S
C432 C431 1.345 . S
C432 C433 1.424 . S
C433 H425 0.951 . S
C433 C432 1.424 . S
C433 C434 1.347 . S
C434 H426 0.951 . S
C434 C429 1.429 1_556 S
C434 C433 1.347 . S
H435 C436 0.951 . S
C436 H435 0.951 . S
C436 C442 1.265 . S
H437 C442 0.950 . S
H438 C446 0.949 . S
H439 C447 0.950 . S
H440 C448 0.951 . S
H441 C449 0.951 . S
C442 C436 1.265 . S
C442 H437 0.950 . S
C442 C443 1.478 . S
C443 C430 1.394 . S
C443 C442 1.478 . S
C443 C444 1.397 . S
C444 C443 1.397 . S
C444 C445 1.438 . S
C444 C449 1.429 . S
C445 C428 1.394 . S
C445 C444 1.438 . S
C445 C446 1.428 . S
C446 H438 0.949 . S
C446 C445 1.428 . S
C446 C447 1.345 . S
C447 H439 0.950 . S
C447 C446 1.345 . S
C447 C448 1.424 . S
C448 H440 0.951 . S
C448 C447 1.424 . S
C448 C449 1.347 . S
C449 H441 0.951 . S
C449 C444 1.429 . S
C449 C448 1.347 . S
H450 C451 0.951 . S
C451 H450 0.951 . S
C451 C457 1.265 1_554 S
H452 C457 0.950 . S
H453 C461 0.949 . S
H454 C462 0.950 . S
H455 C463 0.951 . S
H456 C464 0.951 . S
C457 C451 1.265 1_556 S
C457 H452 0.950 . S
C457 C458 1.478 . S
C458 C457 1.478 . S
C458 C459 1.397 . S
C458 C475 1.394 1_556 S
C459 C458 1.397 . S
C459 C460 1.438 . S
C459 C464 1.429 . S
C460 C459 1.438 . S
C460 C461 1.428 . S
C460 C473 1.394 1_556 S
C461 H453 0.949 . S
C461 C460 1.428 . S
C461 C462 1.345 . S
C462 H454 0.950 . S
C462 C461 1.345 . S
C462 C463 1.424 . S
C463 H455 0.951 . S
C463 C462 1.424 . S
C463 C464 1.347 . S
C464 H456 0.951 . S
C464 C459 1.429 . S
C464 C463 1.347 . S
H465 C466 0.951 . S
C466 H465 0.951 . S
C466 C472 1.265 1_556 S
H467 C472 0.950 . S
H468 C476 0.949 . S
H469 C477 0.950 . S
H470 C478 0.951 . S
H471 C479 0.951 . S
C472 C466 1.265 1_554 S
C472 H467 0.950 . S
C472 C473 1.478 . S
C473 C460 1.394 1_554 S
C473 C472 1.478 . S
C473 C474 1.397 . S
C474 C473 1.397 . S
C474 C475 1.438 . S
C474 C479 1.429 . S
C475 C458 1.394 1_554 S
C475 C474 1.438 . S
C475 C476 1.428 . S
C476 H468 0.949 . S
C476 C475 1.428 . S
C476 C477 1.345 . S
C477 H469 0.950 . S
C477 C476 1.345 . S
C477 C478 1.424 . S
C478 H470 0.951 . S
C478 C477 1.424 . S
C478 C479 1.347 . S
C479 H471 0.951 . S
C479 C474 1.429 . S
C479 C478 1.347 . S
H480 C481 0.951 . S
C481 H480 0.951 . S
C481 C487 1.265 . S
H482 C487 0.950 . S
H483 C491 0.949 . S
H484 C492 0.950 . S
H485 C493 0.951 . S
H486 C494 0.951 . S
C487 C481 1.265 . S
C487 H482 0.950 . S
C487 C488 1.478 . S
C488 C487 1.478 . S
C488 C489 1.397 . S
C488 C505 1.394 . S
C489 C488 1.397 . S
C489 C490 1.438 . S
C489 C494 1.429 . S
C490 C489 1.438 . S
C490 C491 1.428 . S
C490 C503 1.394 . S
C491 H483 0.949 . S
C491 C490 1.428 . S
C491 C492 1.345 . S
C492 H484 0.950 . S
C492 C491 1.345 . S
C492 C493 1.424 . S
C493 H485 0.951 . S
C493 C492 1.424 . S
C493 C494 1.347 . S
C494 H486 0.951 . S
C494 C489 1.429 . S
C494 C493 1.347 . S
H495 C496 0.951 . S
C496 H495 0.951 . S
C496 C502 1.265 . S
H497 C502 0.950 . S
H498 C506 0.949 . S
H499 C507 0.950 . S
H500 C508 0.951 . S
H501 C509 0.951 . S
C502 C496 1.265 . S
C502 H497 0.950 . S
C502 C503 1.478 . S
C503 C490 1.394 . S
C503 C502 1.478 . S
C503 C504 1.397 . S
C504 C503 1.397 . S
C504 C505 1.438 . S
C504 C509 1.429 . S
C505 C488 1.394 . S
C505 C504 1.438 . S
C505 C506 1.428 . S
C506 H498 0.949 . S
C506 C505 1.428 . S
C506 C507 1.345 . S
C507 H499 0.950 . S
C507 C506 1.345 . S
C507 C508 1.424 . S
C508 H500 0.951 . S
C508 C507 1.424 . S
C508 C509 1.347 . S
C509 H501 0.951 . S
C509 C504 1.429 . S
C509 C508 1.347 . S
H510 C511 0.951 . S
C511 H510 0.951 . S
C511 C517 1.265 . S
H512 C517 0.950 . S
H513 C521 0.949 . S
H514 C522 0.950 . S
H515 C523 0.951 . S
H516 C524 0.951 . S
C517 C511 1.265 . S
C517 H512 0.950 . S
C517 C518 1.478 . S
C518 C517 1.478 . S
C518 C519 1.397 . S
C518 C535 1.394 . S
C519 C518 1.397 . S
C519 C520 1.438 . S
C519 C524 1.429 . S
C520 C519 1.438 . S
C520 C521 1.428 . S
C520 C533 1.394 . S
C521 H513 0.949 . S
C521 C520 1.428 . S
C521 C522 1.345 . S
C522 H514 0.950 . S
C522 C521 1.345 . S
C522 C523 1.424 . S
C523 H515 0.951 . S
C523 C522 1.424 . S
C523 C524 1.347 . S
C524 H516 0.951 . S
C524 C519 1.429 . S
C524 C523 1.347 . S
H525 C526 0.951 . S
C526 H525 0.951 . S
C526 C532 1.265 . S
H527 C532 0.950 . S
H528 C536 0.949 . S
H529 C537 0.950 . S
H530 C538 0.951 . S
H531 C539 0.951 . S
C532 C526 1.265 . S
C532 H527 0.950 . S
C532 C533 1.478 . S
C533 C520 1.394 . S
C533 C532 1.478 . S
C533 C534 1.397 . S
C534 C533 1.397 . S
C534 C535 1.438 . S
C534 C539 1.429 . S
C535 C518 1.394 . S
C535 C534 1.438 . S
C535 C536 1.428 . S
C536 H528 0.949 . S
C536 C535 1.428 . S
C536 C537 1.345 . S
C537 H529 0.950 . S
C537 C536 1.345 . S
C537 C538 1.424 . S
C538 H530 0.951 . S
C538 C537 1.424 . S
C538 C539 1.347 . S
C539 H531 0.951 . S
C539 C534 1.429 . S
C539 C538 1.347 . S
H540 C541 0.951 . S
C541 H540 0.951 . S
C541 C547 1.265 . S
H542 C547 0.950 . S
H543 C551 0.949 . S
H544 C552 0.950 . S
H545 C553 0.951 . S
H546 C554 0.951 . S
C547 C541 1.265 . S
C547 H542 0.950 . S
C547 C548 1.478 . S
C548 C547 1.478 . S
C548 C549 1.397 . S
C548 C565 1.394 . S
C549 C548 1.397 . S
C549 C550 1.438 . S
C549 C554 1.429 . S
C550 C549 1.438 . S
C550 C551 1.428 . S
C550 C563 1.394 . S
C551 H543 0.949 . S
C551 C550 1.428 . S
C551 C552 1.345 . S
C552 H544 0.950 . S
C552 C551 1.345 . S
C552 C553 1.424 . S
C553 H545 0.951 . S
C553 C552 1.424 . S
C553 C554 1.347 . S
C554 H546 0.951 . S
C554 C549 1.429 . S
C554 C553 1.347 . S
H555 C556 0.951 . S
C556 H555 0.951 . S
C556 C562 1.265 . S
H557 C562 0.950 . S
H558 C566 0.949 . S
H559 C567 0.950 . S
H560 C568 0.951 . S
H561 C569 0.951 . S
C562 C556 1.265 . S
C562 H557 0.950 . S
C562 C563 1.478 . S
C563 C550 1.394 . S
C563 C562 1.478 . S
C563 C564 1.397 . S
C564 C563 1.397 . S
C564 C565 1.438 . S
C564 C569 1.429 . S
C565 C548 1.394 . S
C565 C564 1.438 . S
C565 C566 1.428 . S
C566 H558 0.949 . S
C566 C565 1.428 . S
C566 C567 1.345 . S
C567 H559 0.950 . S
C567 C566 1.345 . S
C567 C568 1.424 . S
C568 H560 0.951 . S
C568 C567 1.424 . S
C568 C569 1.347 . S
C569 H561 0.951 . S
C569 C564 1.429 . S
C569 C568 1.347 . S
H570 C571 0.951 . S
C571 H570 0.951 . S
C571 C577 1.265 . S
H572 C577 0.950 . S
H573 C581 0.949 . S
H574 C582 0.950 . S
H575 C583 0.951 . S
H576 C584 0.951 . S
C577 C571 1.265 . S
C577 H572 0.950 . S
C577 C578 1.478 . S
C578 C577 1.478 . S
C578 C579 1.397 . S
C578 C595 1.394 . S
C579 C578 1.397 . S
C579 C580 1.438 . S
C579 C584 1.429 . S
C580 C579 1.438 . S
C580 C581 1.428 . S
C580 C593 1.394 . S
C581 H573 0.949 . S
C581 C580 1.428 . S
C581 C582 1.345 . S
C582 H574 0.950 . S
C582 C581 1.345 . S
C582 C583 1.424 . S
C583 H575 0.951 . S
C583 C582 1.424 . S
C583 C584 1.347 . S
C584 H576 0.951 . S
C584 C579 1.429 . S
C584 C583 1.347 . S
H585 C586 0.951 . S
C586 H585 0.951 . S
C586 C592 1.265 . S
H587 C592 0.950 . S
H588 C596 0.949 . S
H589 C597 0.950 . S
H590 C598 0.951 . S
H591 C599 0.951 . S
C592 C586 1.265 . S
C592 H587 0.950 . S
C592 C593 1.478 . S
C593 C580 1.394 . S
C593 C592 1.478 . S
C593 C594 1.397 . S
C594 C593 1.397 . S
C594 C595 1.438 . S
C594 C599 1.429 . S
C595 C578 1.394 . S
C595 C594 1.438 . S
C595 C596 1.428 . S
C596 H588 0.949 . S
C596 C595 1.428 . S
C596 C597 1.345 . S
C597 H589 0.950 . S
C597 C596 1.345 . S
C597 C598 1.424 . S
C598 H590 0.951 . S
C598 C597 1.424 . S
C598 C599 1.347 . S
C599 H591 0.951 . S
C599 C594 1.429 . S
C599 C598 1.347 . S
H600 C601 0.951 . S
C601 H600 0.951 . S
C601 C607 1.265 . S
H602 C607 0.950 . S
H603 C611 0.949 . S
H604 C612 0.950 . S
H605 C613 0.951 . S
H606 C614 0.951 . S
C607 C601 1.265 . S
C607 H602 0.950 . S
C607 C608 1.478 . S
C608 C607 1.478 . S
C608 C609 1.397 . S
C608 C625 1.394 . S
C609 C608 1.397 . S
C609 C610 1.438 . S
C609 C614 1.429 . S
C610 C609 1.438 . S
C610 C611 1.428 . S
C610 C623 1.394 . S
C611 H603 0.949 . S
C611 C610 1.428 . S
C611 C612 1.345 . S
C612 H604 0.950 . S
C612 C611 1.345 . S
C612 C613 1.424 . S
C613 H605 0.951 . S
C613 C612 1.424 . S
C613 C614 1.347 . S
C614 H606 0.951 . S
C614 C609 1.429 . S
C614 C613 1.347 . S
H615 C616 0.951 . S
C616 H615 0.951 . S
C616 C622 1.265 . S
H617 C622 0.950 . S
H618 C626 0.949 . S
H619 C627 0.950 . S
H620 C628 0.951 . S
H621 C629 0.951 . S
C622 C616 1.265 . S
C622 H617 0.950 . S
C622 C623 1.478 . S
C623 C610 1.394 . S
C623 C622 1.478 . S
C623 C624 1.397 . S
C624 C623 1.397 . S
C624 C625 1.438 . S
C624 C629 1.429 . S
C625 C608 1.394 . S
C625 C624 1.438 . S
C625 C626 1.428 . S
C626 H618 0.949 . S
C626 C625 1.428 . S
C626 C627 1.345 . S
C627 H619 0.950 . S
C627 C626 1.345 . S
C627 C628 1.424 . S
C628 H620 0.951 . S
C628 C627 1.424 . S
C628 C629 1.347 . S
C629 H621 0.951 . S
C629 C624 1.429 . S
C629 C628 1.347 . S
H630 C631 0.951 . S
C631 H630 0.951 . S
C631 C637 1.265 . S
H632 C637 0.950 . S
H633 C641 0.949 . S
H634 C642 0.950 . S
H635 C643 0.951 . S
H636 C644 0.951 . S
C637 C631 1.265 . S
C637 H632 0.950 . S
C637 C638 1.478 . S
C638 C637 1.478 . S
C638 C639 1.397 . S
C638 C655 1.394 . S
C639 C638 1.397 . S
C639 C640 1.438 . S
C639 C644 1.429 . S
C640 C639 1.438 . S
C640 C641 1.428 . S
C640 C653 1.394 . S
C641 H633 0.949 . S
C641 C640 1.428 . S
C641 C642 1.345 . S
C642 H634 0.950 . S
C642 C641 1.345 . S
C642 C643 1.424 . S
C643 H635 0.951 . S
C643 C642 1.424 . S
C643 C644 1.347 . S
C644 H636 0.951 . S
C644 C639 1.429 . S
C644 C643 1.347 . S
H645 C646 0.951 . S
C646 H645 0.951 . S
C646 C652 1.265 . S
H647 C652 0.950 . S
H648 C656 0.949 . S
H649 C657 0.950 . S
H650 C658 0.951 . S
H651 C659 0.951 . S
C652 C646 1.265 . S
C652 H647 0.950 . S
C652 C653 1.478 . S
C653 C640 1.394 . S
C653 C652 1.478 . S
C653 C654 1.397 . S
C654 C653 1.397 . S
C654 C655 1.438 . S
C654 C659 1.429 . S
C655 C638 1.394 . S
C655 C654 1.438 . S
C655 C656 1.428 . S
C656 H648 0.949 . S
C656 C655 1.428 . S
C656 C657 1.345 . S
C657 H649 0.950 . S
C657 C656 1.345 . S
C657 C658 1.424 . S
C658 H650 0.951 . S
C658 C657 1.424 . S
C658 C659 1.347 . S
C659 H651 0.951 . S
C659 C654 1.429 . S
C659 C658 1.347 . S
C121 C101 1.393 . S
C136 C1 1.284 . S
C151 C19 1.208 . S
C166 C21 1.199 . S
C181 C39 1.046 . S
C196 C41 0.823 . S
C211 C61 1.628 . S
C226 C59 1.812 . S
C241 C81 1.579 . S
C256 C79 1.766 . S
C271 C99 1.353 . S
C286 C119 1.252 . S
C301 C98 1.701 . S
C316 C2 1.719 . S
C331 C102 1.335 . S
C346 C22 1.295 1_554 S
C361 C42 1.440 . S
C376 C18 1.478 . S
C391 C62 1.726 . S
C406 C38 1.788 1_554 S
C421 C82 2.028 . S
C436 C58 2.052 . S
C451 C78 2.237 1_554 S
C466 C118 2.219 1_556 S
C481 C8 1.403 . S
C496 C9 1.403 . S
C511 C28 1.467 . S
C526 C29 1.467 . S
C541 C48 1.417 . S
C556 C49 1.417 . S
C571 C68 1.460 . S
C586 C69 1.460 . S
C601 C89 1.454 . S
C616 C88 1.454 . S
C631 C109 1.456 . S
C646 C108 1.456 . S
