# Generated by pormake.
# Topology snk, (6)-cn, num edge types: 1
# Building blocks:
#     Node 0, Type 0, BuildingBlock: CIFDUS_clean_sbu_1, # of connection points: 6
#     Node 1, Type 0, BuildingBlock: CIFDUS_clean_sbu_1, # of connection points: 6
#     Node 2, Type 0, BuildingBlock: CIFDUS_clean_sbu_1, # of connection points: 6
#     Node 3, Type 0, BuildingBlock: CIFDUS_clean_sbu_1, # of connection points: 6
#     Node 4, Type 0, BuildingBlock: CIFDUS_clean_sbu_1, # of connection points: 6
#     Node 5, Type 0, BuildingBlock: CIFDUS_clean_sbu_1, # of connection points: 6
#     Node 6, Type 0, BuildingBlock: CIFDUS_clean_sbu_1, # of connection points: 6
#     Node 7, Type 0, BuildingBlock: CIFDUS_clean_sbu_1, # of connection points: 6
#     Edge 8, Type (0, 0), BuildingBlock: AJUNOK_clean_linker_0, # of connection points: 2
#     Edge 9, Type (0, 0), BuildingBlock: AJUNOK_clean_linker_0, # of connection points: 2
#     Edge 10, Type (0, 0), BuildingBlock: AJUNOK_clean_linker_0, # of connection points: 2
#     Edge 11, Type (0, 0), BuildingBlock: AJUNOK_clean_linker_0, # of connection points: 2
#     Edge 12, Type (0, 0), BuildingBlock: AJUNOK_clean_linker_0, # of connection points: 2
#     Edge 13, Type (0, 0), BuildingBlock: AJUNOK_clean_linker_0, # of connection points: 2
#     Edge 14, Type (0, 0), BuildingBlock: AJUNOK_clean_linker_0, # of connection points: 2
#     Edge 15, Type (0, 0), BuildingBlock: AJUNOK_clean_linker_0, # of connection points: 2
#     Edge 16, Type (0, 0), BuildingBlock: AJUNOK_clean_linker_0, # of connection points: 2
#     Edge 17, Type (0, 0), BuildingBlock: AJUNOK_clean_linker_0, # of connection points: 2
#     Edge 18, Type (0, 0), BuildingBlock: AJUNOK_clean_linker_0, # of connection points: 2
#     Edge 19, Type (0, 0), BuildingBlock: AJUNOK_clean_linker_0, # of connection points: 2
#     Edge 20, Type (0, 0), BuildingBlock: AJUNOK_clean_linker_0, # of connection points: 2
#     Edge 21, Type (0, 0), BuildingBlock: AJUNOK_clean_linker_0, # of connection points: 2
#     Edge 22, Type (0, 0), BuildingBlock: AJUNOK_clean_linker_0, # of connection points: 2
#     Edge 23, Type (0, 0), BuildingBlock: AJUNOK_clean_linker_0, # of connection points: 2
#     Edge 24, Type (0, 0), BuildingBlock: AJUNOK_clean_linker_0, # of connection points: 2
#     Edge 25, Type (0, 0), BuildingBlock: AJUNOK_clean_linker_0, # of connection points: 2
#     Edge 26, Type (0, 0), BuildingBlock: AJUNOK_clean_linker_0, # of connection points: 2
#     Edge 27, Type (0, 0), BuildingBlock: AJUNOK_clean_linker_0, # of connection points: 2
#     Edge 28, Type (0, 0), BuildingBlock: AJUNOK_clean_linker_0, # of connection points: 2
#     Edge 29, Type (0, 0), BuildingBlock: AJUNOK_clean_linker_0, # of connection points: 2
#     Edge 30, Type (0, 0), BuildingBlock: AJUNOK_clean_linker_0, # of connection points: 2
#     Edge 31, Type (0, 0), BuildingBlock: AJUNOK_clean_linker_0, # of connection points: 2
# Relax obj value: 0.032
# Max RMSD: 0.088
# Mean RMSD: 0.083
data_MOF--net-snk--node1-CIFDUS_clean_sbu_1--edge1-AJUNOK_clean_linker_0
_symmetry_space_group_name_H-M    P1
_symmetry_Int_Tables_number       1
_symmetry_cell_setting            triclinic
loop_
_symmetry_equiv_pos_as_xyz
'x, y, z'
_cell_length_a     32.154439
_cell_length_b     31.882409
_cell_length_c     11.761206
_cell_angle_alpha  89.231357
_cell_angle_beta   89.000355
_cell_angle_gamma 89.816427
loop_
_atom_site_label
_atom_site_type_symbol
_atom_site_fract_x
_atom_site_fract_y
_atom_site_fract_z
_atom_type_partial_charge
O0 O 0.96032 0.96599 0.54227 0.0
Mn1 Mn 0.00915 0.00829 0.51311 0.0
O2 O 0.91594 1.00126 0.65591 0.0
Mn3 Mn 0.94306 0.05278 0.64678 0.0
O4 O 0.05862 0.05044 0.48296 0.0
O5 O 0.05002 0.95768 0.51705 0.0
Mn6 Mn 0.0735 0.96233 0.38011 0.0
O7 O 1.00025 1.00766 0.33381 0.0
O8 O 0.10214 0.01269 0.37217 0.0
O9 O 0.01754 0.00906 0.6926 0.0
O10 O 0.97992 0.06176 0.76004 0.0
O11 O 0.09859 0.91677 0.43835 0.0
O12 O 0.03621 0.95379 0.26758 0.0
C13 C 0.94235 0.09019 0.50009 0.0
C14 C 0.92752 0.96765 0.60646 0.0
C15 C 0.09193 0.04682 0.42104 0.0
C16 C 0.07529 0.92528 0.52614 0.0
C17 C 0.0104 0.98298 0.25202 0.0
C18 C 0.00598 0.03274 0.77545 0.0
O19 O 0.96773 0.05808 0.51104 0.0
O20 O 0.91795 0.09809 0.58613 0.0
O21 O 0.30831 0.72118 0.78137 0.0
Mn22 Mn 0.2528 0.75771 0.76822 0.0
O23 O 0.28875 0.65507 0.80217 0.0
Mn24 Mn 0.23942 0.67395 0.86355 0.0
O25 O 0.19891 0.79732 0.7554 0.0
O26 O 0.29073 0.81059 0.7765 0.0
Mn27 Mn 0.27022 0.84282 0.66581 0.0
O28 O 0.25691 0.75272 0.58917 0.0
O29 O 0.22226 0.86327 0.73199 0.0
O30 O 0.24874 0.76126 0.94684 0.0
O31 O 0.24189 0.6952 0.0084 0.0
O32 O 0.3242 0.85821 0.67763 0.0
O33 O 0.26155 0.81863 0.52779 0.0
C34 C 0.18623 0.67301 0.76984 0.0
C35 C 0.31708 0.68176 0.7848 0.0
C36 C 0.19255 0.83759 0.75126 0.0
C37 C 0.32643 0.82944 0.75575 0.0
C38 C 0.2585 0.78003 0.50793 0.0
C39 C 0.24585 0.73394 0.02823 0.0
O40 O 0.21101 0.70636 0.76591 0.0
O41 O 0.19572 0.64212 0.83748 0.0
O42 O 0.54487 0.95484 0.98662 0.0
Mn43 Mn 0.50567 0.00926 1.00161 0.0
O44 O 0.60862 0.97917 0.94801 0.0
Mn45 Mn 0.58753 0.02996 0.90051 0.0
O46 O 0.4696 0.06624 0.01341 0.0
O47 O 0.45399 0.96426 0.99684 0.0
Mn48 Mn 0.4286 1.00172 0.09112 0.0
O49 O 0.51173 1.00489 0.17901 0.0
O50 O 0.40498 0.04626 0.01778 0.0
O51 O 0.50119 0.01283 0.82138 0.0
O52 O 0.56467 0.03054 0.75995 0.0
O53 O 0.39402 0.96051 0.10269 0.0
O54 O 0.44674 0.01144 0.23605 0.0
C55 C 0.58762 0.07943 0.00881 0.0
C56 C 0.58447 0.94901 0.97283 0.0
C57 C 0.43074 0.07536 0.00561 0.0
C58 C 0.41843 0.94431 0.02659 0.0
C59 C 0.48468 0.00891 0.25916 0.0
C60 C 0.52756 0.0207 0.74003 0.0
O61 O 0.55576 0.05274 0.00845 0.0
O62 O 0.6168 0.07528 0.93233 0.0
O63 O 0.29994 0.30669 0.22977 0.0
Mn64 Mn 0.25672 0.2582 0.24831 0.0
O65 O 0.27174 0.34471 0.09253 0.0
Mn66 Mn 0.21804 0.32468 0.11679 0.0
O67 O 0.21527 0.20759 0.27308 0.0
O68 O 0.30811 0.21751 0.24081 0.0
Mn69 Mn 0.30184 0.19457 0.37829 0.0
O70 O 0.25596 0.26628 0.42791 0.0
O71 O 0.25234 0.16514 0.38699 0.0
O72 O 0.25545 0.25125 0.06731 0.0
O73 O 0.2029 0.28996 0.00376 0.0
O74 O 0.34722 0.16842 0.32646 0.0
O75 O 0.31036 0.23173 0.49173 0.0
C76 C 0.18849 0.3345 0.27378 0.0
C77 C 0.30267 0.33507 0.15243 0.0
C78 C 0.21876 0.17437 0.3361 0.0
C79 C 0.34041 0.19173 0.23747 0.0
C80 C 0.28084 0.25692 0.50888 0.0
C81 C 0.23119 0.26304 0.98594 0.0
O82 O 0.20474 0.29777 0.24805 0.0
O83 O 0.18691 0.36203 0.1918 0.0
O84 O 0.81639 0.21811 0.29578 0.0
Mn85 Mn 0.7617 0.25656 0.28092 0.0
O86 O 0.79361 0.15405 0.31899 0.0
Mn87 Mn 0.74858 0.18059 0.38117 0.0
O88 O 0.70743 0.29583 0.25575 0.0
O89 O 0.80991 0.30409 0.28306 0.0
Mn90 Mn 0.7747 0.33617 0.2045 0.0
O91 O 0.76667 0.25086 0.10394 0.0
O92 O 0.73395 0.3543 0.30377 0.0
O93 O 0.75607 0.26593 0.46021 0.0
O94 O 0.75467 0.20102 0.52488 0.0
O95 O 0.81851 0.36854 0.20049 0.0
O96 O 0.76193 0.31836 0.05809 0.0
C97 C 0.69371 0.17153 0.30412 0.0
C98 C 0.82322 0.17838 0.29606 0.0
C99 C 0.70188 0.33453 0.28065 0.0
C100 C 0.83314 0.33825 0.26261 0.0
C101 C 0.76294 0.28019 0.02885 0.0
C102 C 0.75485 0.23967 0.54393 0.0
O103 O 0.71584 0.20603 0.27611 0.0
O104 O 0.70579 0.14776 0.38715 0.0
O105 O 0.80391 0.80606 0.75137 0.0
Mn106 Mn 0.75958 0.75827 0.76185 0.0
O107 O 0.77985 0.84281 0.60646 0.0
Mn108 Mn 0.72531 0.82541 0.63039 0.0
O109 O 0.7168 0.70843 0.78171 0.0
O110 O 0.80979 0.7159 0.75387 0.0
Mn111 Mn 0.80268 0.69552 0.89411 0.0
O112 O 0.75705 0.76506 0.94125 0.0
O113 O 0.75179 0.66848 0.90574 0.0
O114 O 0.75946 0.75203 0.58033 0.0
O115 O 0.7078 0.79191 0.51734 0.0
O116 O 0.84684 0.66657 0.84588 0.0
O117 O 0.81278 0.73349 0.00494 0.0
C118 C 0.69578 0.8379 0.78665 0.0
C119 C 0.80874 0.83401 0.67382 0.0
C120 C 0.71902 0.67641 0.84975 0.0
C121 C 0.84104 0.68875 0.75426 0.0
C122 C 0.78198 0.75692 0.02264 0.0
C123 C 0.73462 0.7635 0.50006 0.0
O124 O 0.70903 0.79986 0.76191 0.0
O125 O 0.69775 0.86545 0.70471 0.0
O126 O 0.46396 0.46096 0.02673 0.0
Mn127 Mn 0.50865 0.50888 0.01133 0.0
O128 O 0.41678 0.48895 0.14469 0.0
Mn129 Mn 0.43878 0.54237 0.13385 0.0
O130 O 0.55465 0.55506 0.99122 0.0
O131 O 0.55592 0.46141 0.02887 0.0
Mn132 Mn 0.56742 0.47028 0.881 0.0
O133 O 0.50201 0.51075 0.83048 0.0
O134 O 0.59234 0.52265 0.85694 0.0
O135 O 0.51417 0.50943 0.19291 0.0
O136 O 0.47032 0.55765 0.25236 0.0
O137 O 0.60168 0.42899 0.90928 0.0
O138 O 0.52978 0.45235 0.77913 0.0
C139 C 0.43096 0.58355 0.00371 0.0
C140 C 0.43116 0.45797 0.09012 0.0
C141 C 0.5845 0.5549 0.91682 0.0
C142 C 0.58607 0.4333 0.01078 0.0
C143 C 0.50871 0.48363 0.75305 0.0
C144 C 0.49917 0.53233 0.27334 0.0
O145 O 0.46208 0.55598 0.99907 0.0
O146 O 0.40484 0.58233 0.08904 0.0
O147 O 0.04542 0.45172 0.48299 0.0
Mn148 Mn 0.00872 0.50799 0.49612 0.0
O149 O 0.11052 0.4728 0.46601 0.0
Mn150 Mn 0.09051 0.52065 0.39928 0.0
O151 O 0.96985 0.56295 0.51114 0.0
O152 O 0.95675 0.46856 0.49015 0.0
Mn153 Mn 0.92485 0.49379 0.59566 0.0
O154 O 0.01382 0.50425 0.67477 0.0
O155 O 0.90416 0.54076 0.52498 0.0
O156 O 0.00403 0.51203 0.31728 0.0
O157 O 0.06971 0.51514 0.25508 0.0
O158 O 0.90657 0.44058 0.59522 0.0
O159 O 0.94797 0.50515 0.73434 0.0
C160 C 0.09272 0.57554 0.48652 0.0
C161 C 0.08474 0.44369 0.48331 0.0
C162 C 0.93012 0.57049 0.51221 0.0
C163 C 0.93683 0.43426 0.52328 0.0
C164 C 0.98633 0.50664 0.75502 0.0
C165 C 0.0312 0.51292 0.23559 0.0
O166 O 0.05927 0.55105 0.49613 0.0
O167 O 0.12234 0.56493 0.4163 0.0
C168 C 0.16448 0.07171 0.40251 0.0
C169 C 0.12195 0.08189 0.40643 0.0
C170 C 0.19467 0.10179 0.37647 0.0
C171 C 0.1841 0.14382 0.35228 0.0
H172 H 0.17472 0.03983 0.41922 0.0
H173 H 0.22689 0.09171 0.37521 0.0
S174 S 0.07684 0.18726 0.35004 0.0
N175 N 0.07028 0.13709 0.38308 0.0
N176 N 0.12758 0.19431 0.33423 0.0
C177 C 0.14158 0.1548 0.35543 0.0
C178 C 0.11044 0.12378 0.38311 0.0
C179 C 0.11128 0.92143 0.70864 0.0
C180 C 0.08472 0.9019 0.63211 0.0
C181 C 0.14337 0.89868 0.76158 0.0
C182 C 0.14971 0.85551 0.74084 0.0
H183 H 0.11141 0.95533 0.7143 0.0
H184 H 0.16617 0.91604 0.80857 0.0
S185 S 0.08036 0.78799 0.57435 0.0
N186 N 0.06073 0.83565 0.55905 0.0
N187 N 0.12043 0.79279 0.65915 0.0
C188 C 0.11883 0.83455 0.68059 0.0
C189 C 0.08632 0.85782 0.62648 0.0
C190 C 0.33455 0.86838 0.93175 0.0
C191 C 0.35354 0.84343 0.84904 0.0
C192 C 0.35678 0.89878 0.98986 0.0
C193 C 0.3997 0.90682 0.96835 0.0
H194 H 0.30104 0.86795 0.94232 0.0
H195 H 0.33864 0.91808 0.04737 0.0
S196 S 0.46548 0.84461 0.77138 0.0
N197 N 0.4186 0.82483 0.7562 0.0
N198 N 0.46119 0.8822 0.8665 0.0
C199 C 0.41997 0.87984 0.89137 0.0
C200 C 0.39681 0.8483 0.83191 0.0
C201 C 0.37226 0.12734 0.99348 0.0
C202 C 0.4141 0.11881 0.02152 0.0
C203 C 0.34895 0.15868 0.0494 0.0
C204 C 0.3666 0.18246 0.13575 0.0
H205 H 0.35601 0.10647 0.93758 0.0
H206 H 0.31569 0.16 0.03637 0.0
S207 S 0.47731 0.18041 0.21962 0.0
N208 N 0.47412 0.14313 0.12406 0.0
N209 N 0.4304 0.20151 0.22912 0.0
C210 C 0.40991 0.17886 0.15074 0.0
C211 C 0.43368 0.14707 0.09384 0.0
C212 C 0.8771 0.92665 0.72832 0.0
C213 C 0.90207 0.92931 0.62847 0.0
C214 C 0.84958 0.89316 0.74797 0.0
C215 C 0.84577 0.86115 0.66834 0.0
H216 H 0.87788 0.9513 0.79073 0.0
H217 H 0.82931 0.89373 0.82253 0.0
S218 S 0.90648 0.85037 0.39957 0.0
N219 N 0.9236 0.89443 0.45425 0.0
N220 N 0.87082 0.83217 0.49013 0.0
C221 C 0.87187 0.86206 0.57128 0.0
C222 C 0.90043 0.89587 0.55181 0.0
C223 C 0.90366 0.09318 0.32373 0.0
C224 C 0.93292 0.11253 0.3929 0.0
C225 C 0.87047 0.11631 0.27792 0.0
C226 C 0.86589 0.15971 0.29795 0.0
H227 H 0.90235 0.05925 0.32052 0.0
H228 H 0.84576 0.09917 0.23789 0.0
S229 S 0.9435 0.22688 0.43609 0.0
N230 N 0.96187 0.17873 0.45188 0.0
N231 N 0.90016 0.22248 0.36378 0.0
C232 C 0.89944 0.18041 0.34732 0.0
C233 C 0.93305 0.15668 0.39461 0.0
C234 C 0.65248 0.1087 0.25036 0.0
C235 C 0.65927 0.15246 0.2358 0.0
C236 C 0.6236 0.08658 0.18716 0.0
C237 C 0.59917 0.10638 0.10538 0.0
H238 H 0.67149 0.09005 0.30699 0.0
H239 H 0.62392 0.05267 0.1934 0.0
S240 S 0.59984 0.22072 0.03906 0.0
N241 N 0.63542 0.21543 0.13824 0.0
N242 N 0.58141 0.1732 0.01656 0.0
C243 C 0.6037 0.15039 0.09248 0.0
C244 C 0.63348 0.17347 0.15801 0.0
C245 C 0.67011 0.86833 0.96854 0.0
C246 C 0.66133 0.84625 0.86912 0.0
C247 C 0.64156 0.89774 0.0138 0.0
C248 C 0.6033 0.90641 0.96088 0.0
H249 H 0.70108 0.86681 0.00327 0.0
H250 H 0.65154 0.91722 0.08294 0.0
S251 S 0.5659 0.85596 0.70028 0.0
N252 N 0.61057 0.83244 0.72533 0.0
N253 N 0.55822 0.88891 0.80585 0.0
C254 C 0.59266 0.88148 0.86827 0.0
C255 C 0.62129 0.85092 0.82406 0.0
C256 C 0.60905 0.62794 0.8583 0.0
C257 C 0.61613 0.58875 0.91168 0.0
C258 C 0.64215 0.65648 0.83704 0.0
C259 C 0.68337 0.64654 0.86784 0.0
H260 H 0.57813 0.63603 0.83004 0.0
H261 H 0.63544 0.6863 0.79605 0.0
S262 S 0.71703 0.54764 0.01151 0.0
N263 N 0.66647 0.54212 0.99684 0.0
N264 N 0.72826 0.59384 0.95533 0.0
C265 C 0.69011 0.60732 0.92219 0.0
C266 C 0.65666 0.579 0.94439 0.0
C267 C 0.62625 0.35471 0.23373 0.0
C268 C 0.66967 0.36052 0.22117 0.0
C269 C 0.59766 0.38084 0.17409 0.0
C270 C 0.61177 0.41377 0.1017 0.0
H271 H 0.61442 0.32961 0.28796 0.0
H272 H 0.56474 0.37398 0.18036 0.0
S273 S 0.72194 0.43968 0.03268 0.0
N274 N 0.72447 0.40038 0.12412 0.0
N275 N 0.67192 0.44942 0.01978 0.0
C276 C 0.65494 0.42002 0.09147 0.0
C277 C 0.6835 0.39339 0.14857 0.0
C278 C 0.92643 0.40392 0.33055 0.0
C279 C 0.92967 0.39749 0.44829 0.0
C280 C 0.89932 0.37931 0.26646 0.0
C281 C 0.87379 0.34778 0.31758 0.0
H282 H 0.94063 0.43119 0.29018 0.0
H283 H 0.8948 0.38844 0.17844 0.0
S284 S 0.88168 0.30981 0.6151 0.0
N285 N 0.91403 0.34994 0.60673 0.0
N286 N 0.86181 0.30524 0.48723 0.0
C287 C 0.88212 0.33663 0.43056 0.0
C288 C 0.91045 0.36113 0.49545 0.0
C289 C 0.84855 0.65376 0.56739 0.0
C290 C 0.86696 0.67698 0.65377 0.0
C291 C 0.87124 0.62254 0.50885 0.0
C292 C 0.91325 0.61357 0.53394 0.0
H293 H 0.81526 0.65576 0.55527 0.0
H294 H 0.85451 0.60235 0.4522 0.0
S295 S 0.97774 0.67205 0.73619 0.0
N296 N 0.93119 0.69378 0.74797 0.0
N297 N 0.97377 0.63589 0.6378 0.0
C298 C 0.93332 0.64072 0.60848 0.0
C299 C 0.91015 0.67224 0.66836 0.0
C300 C 0.36542 0.37231 0.22462 0.0
C301 C 0.3417 0.35904 0.13267 0.0
C302 C 0.3972 0.40211 0.20847 0.0
C303 C 0.40716 0.41861 0.09959 0.0
H304 H 0.35744 0.362 0.31038 0.0
H305 H 0.41259 0.41409 0.28253 0.0
S306 S 0.35874 0.38911 0.82913 0.0
N307 N 0.33339 0.36127 0.92728 0.0
N308 N 0.39384 0.41629 0.8976 0.0
C309 C 0.38624 0.40281 0.00604 0.0
C310 C 0.3533 0.37324 0.02248 0.0
C311 C 0.40288 0.6023 0.81436 0.0
C312 C 0.42148 0.61546 0.91501 0.0
C313 C 0.37263 0.62732 0.76024 0.0
C314 C 0.36016 0.66646 0.80447 0.0
H315 H 0.40727 0.57035 0.7864 0.0
H316 H 0.35556 0.61387 0.69105 0.0
S317 S 0.40339 0.71715 0.05781 0.0
N318 N 0.42872 0.67213 0.04889 0.0
N319 N 0.37244 0.71891 0.94733 0.0
C320 C 0.38236 0.68208 0.89643 0.0
C321 C 0.41293 0.65661 0.95156 0.0
C322 C 0.15318 0.66946 0.57947 0.0
C323 C 0.14912 0.66632 0.69801 0.0
C324 C 0.12931 0.64382 0.50916 0.0
C325 C 0.10083 0.61382 0.55472 0.0
H326 H 0.17828 0.68768 0.54143 0.0
H327 H 0.13671 0.6442 0.41891 0.0
S328 S 0.06982 0.60342 0.85798 0.0
N329 N 0.10711 0.63899 0.85627 0.0
N330 N 0.0635 0.59006 0.72416 0.0
C331 C 0.09182 0.6155 0.67138 0.0
C332 C 0.11572 0.642 0.74293 0.0
C333 C 0.16906 0.36299 0.46175 0.0
C334 C 0.1569 0.34091 0.36539 0.0
C335 C 0.14208 0.39214 0.51402 0.0
C336 C 0.10201 0.40045 0.47143 0.0
H337 H 0.20128 0.36208 0.48732 0.0
H338 H 0.15459 0.41207 0.57896 0.0
S339 S 0.0524 0.34407 0.23656 0.0
N340 N 0.09961 0.32362 0.24294 0.0
N341 N 0.04926 0.37852 0.34003 0.0
C342 C 0.08743 0.37395 0.38653 0.0
C343 C 0.11484 0.34409 0.33384 0.0
C344 C 0.01035 0.04933 0.98232 0.0
C345 C 0.01113 0.01912 0.89569 0.0
C346 C 0.00688 0.03767 0.09784 0.0
C347 C 1.00368 0.99528 0.13149 0.0
H348 H 0.01208 0.0824 0.96044 0.0
H349 H 0.00821 0.06197 0.16122 0.0
S350 S 0.99943 0.90421 0.93854 0.0
N351 N 0.00512 0.9451 0.8521 0.0
N352 N 0.99889 0.92318 0.06857 0.0
C353 C 1.00332 0.96485 0.0457 0.0
C354 C 0.00711 0.9767 0.92824 0.0
C355 C 0.24604 0.72714 0.35354 0.0
C356 C 0.25633 0.76805 0.38554 0.0
C357 C 0.24221 0.71667 0.23829 0.0
C358 C 0.24852 0.74664 0.14976 0.0
H359 H 0.24061 0.70303 0.41774 0.0
H360 H 0.23418 0.68463 0.21878 0.0
S361 S 0.27732 0.85806 0.18735 0.0
N362 N 0.27409 0.8386 0.31753 0.0
N363 N 0.26613 0.81884 0.10333 0.0
C364 C 0.25905 0.78754 0.18065 0.0
C365 C 0.26322 0.7982 0.29754 0.0
C366 C 0.47532 0.01257 0.58354 0.0
C367 C 0.5167 0.01693 0.61754 0.0
C368 C 0.46546 0.00968 0.46782 0.0
C369 C 0.49656 0.01062 0.38108 0.0
H370 H 0.45031 0.01179 0.64644 0.0
H371 H 0.43298 1.00675 0.44643 0.0
S372 S 0.61014 0.01821 0.42489 0.0
N373 N 0.58945 0.01991 0.5538 0.0
N374 N 0.57052 0.0141 0.33863 0.0
C375 C 0.53806 0.01386 0.41412 0.0
C376 C 0.54818 0.01712 0.53143 0.0
C377 C 0.21475 0.26232 0.77854 0.0
C378 C 0.24435 0.258 0.86517 0.0
C379 C 0.22679 0.26504 0.6632 0.0
C380 C 0.26899 0.26388 0.6298 0.0
H381 H 0.1819 0.26385 0.80021 0.0
H382 H 0.20277 0.26663 0.59979 0.0
S383 S 0.35906 0.25748 0.82311 0.0
N384 N 0.31797 0.25566 0.90907 0.0
N385 N 0.34057 0.26101 0.69324 0.0
C386 C 0.29894 0.26087 0.71573 0.0
C387 C 0.28668 0.25767 0.83289 0.0
C388 C 0.77454 0.29857 0.8205 0.0
C389 C 0.75936 0.27038 0.90535 0.0
C390 C 0.77165 0.28976 0.70336 0.0
C391 C 0.75334 0.25243 0.66637 0.0
H392 H 0.7896 0.32736 0.84483 0.0
H393 H 0.78483 0.31173 0.6418 0.0
S394 S 0.70208 0.17199 0.85371 0.0
N395 N 0.72114 0.20616 0.943 0.0
N396 N 0.71505 0.18965 0.72537 0.0
C397 C 0.73607 0.22518 0.75074 0.0
C398 C 0.73932 0.23404 0.86929 0.0
C399 C 0.78792 0.76092 0.34399 0.0
C400 C 0.74618 0.75641 0.37956 0.0
C401 C 0.79891 0.76344 0.22808 0.0
C402 C 0.76861 0.7617 0.1431 0.0
H403 H 0.81217 0.76405 0.40612 0.0
H404 H 0.83151 0.76656 0.20467 0.0
S405 S 0.6553 0.74618 0.1922 0.0
N406 N 0.67464 0.74823 0.32122 0.0
N407 N 0.69525 0.75218 0.10336 0.0
C408 C 0.7268 0.75642 0.17771 0.0
C409 C 0.71565 0.75387 0.29579 0.0
C410 C 0.47831 0.52546 0.59281 0.0
C411 C 0.5072 0.49568 0.63038 0.0
C412 C 0.47749 0.53832 0.47845 0.0
C413 C 0.50566 0.52206 0.39592 0.0
H414 H 0.45579 0.5386 0.65191 0.0
H415 H 0.45355 0.56055 0.45453 0.0
S416 S 0.5915 0.44741 0.45311 0.0
N417 N 0.56777 0.45313 0.57762 0.0
N418 N 0.56554 0.47717 0.3628 0.0
C419 C 0.5358 0.49343 0.4331 0.0
C420 C 0.53671 0.48025 0.54993 0.0
C421 C 0.0375 0.49746 0.91402 0.0
C422 C 0.99805 0.51013 0.87703 0.0
C423 C 0.0476 0.49825 0.02991 0.0
C424 C 0.01868 0.51155 0.11409 0.0
H425 H 0.06059 0.48629 0.85338 0.0
H426 H 0.0784 0.48788 0.05373 0.0
S427 S 0.9122 0.55125 0.06163 0.0
N428 N 0.93059 0.53903 0.93439 0.0
N429 N 0.94965 0.53963 0.15099 0.0
C430 C 0.97937 0.52485 0.07821 0.0
C431 C 0.96912 0.52444 0.96026 0.0
loop_
_geom_bond_atom_site_label_1
_geom_bond_atom_site_label_2
_geom_bond_distance
_geom_bond_site_symmetry_2
_ccdc_geom_bond_type
O0 Mn1 2.163 1_665 S
O0 C14 1.244 . S
Mn1 O0 2.163 1_445 S
Mn1 O4 2.160 . S
Mn1 O5 2.221 1_545 S
Mn1 O7 2.163 1_455 S
Mn1 O9 2.160 . S
Mn1 O19 2.221 1_455 S
O2 Mn3 2.087 1_565 S
O2 C14 1.256 . S
Mn3 O2 2.087 1_545 S
Mn3 O10 2.089 . S
Mn3 O19 2.290 . S
Mn3 O20 2.251 . S
O4 Mn1 2.160 . S
O4 C15 1.239 . S
O5 Mn1 2.221 1_565 S
O5 Mn6 2.290 . S
O5 C16 1.278 . S
Mn6 O5 2.290 . S
Mn6 O8 2.089 1_565 S
Mn6 O11 2.251 . S
Mn6 O12 2.087 . S
O7 Mn1 2.163 1_655 S
O7 C17 1.244 1_645 S
O8 Mn6 2.089 1_545 S
O8 C15 1.256 . S
O9 Mn1 2.160 . S
O9 C18 1.239 1_455 S
O10 Mn3 2.089 . S
O10 C18 1.256 . S
O11 Mn6 2.251 . S
O11 C16 1.241 . S
O12 Mn6 2.087 . S
O12 C17 1.256 . S
C13 O19 1.278 . S
C13 O20 1.241 . S
C14 O0 1.244 . S
C14 O2 1.256 . S
C15 O4 1.239 . S
C15 O8 1.256 . S
C16 O5 1.278 . S
C16 O11 1.241 . S
C17 O7 1.244 1_465 S
C17 O12 1.256 . S
C18 O9 1.239 1_655 S
C18 O10 1.256 . S
O19 Mn1 2.221 1_655 S
O19 Mn3 2.290 . S
O19 C13 1.278 . S
O20 Mn3 2.251 . S
O20 C13 1.241 . S
O21 Mn22 2.163 . S
O21 C35 1.244 . S
Mn22 O21 2.163 . S
Mn22 O25 2.160 . S
Mn22 O26 2.221 . S
Mn22 O28 2.163 . S
Mn22 O30 2.160 . S
Mn22 O40 2.221 . S
O23 Mn24 2.087 . S
O23 C35 1.256 . S
Mn24 O23 2.087 . S
Mn24 O31 2.089 1_556 S
Mn24 O40 2.290 . S
Mn24 O41 2.251 . S
O25 Mn22 2.160 . S
O25 C36 1.239 . S
O26 Mn22 2.221 . S
O26 Mn27 2.290 . S
O26 C37 1.278 . S
Mn27 O26 2.290 . S
Mn27 O29 2.089 . S
Mn27 O32 2.251 . S
Mn27 O33 2.087 . S
O28 Mn22 2.163 . S
O28 C38 1.244 . S
O29 Mn27 2.089 . S
O29 C36 1.256 . S
O30 Mn22 2.160 . S
O30 C39 1.239 1_556 S
O31 Mn24 2.089 1_554 S
O31 C39 1.256 . S
O32 Mn27 2.251 . S
O32 C37 1.241 . S
O33 Mn27 2.087 . S
O33 C38 1.256 . S
C34 O40 1.278 . S
C34 O41 1.241 . S
C35 O21 1.244 . S
C35 O23 1.256 . S
C36 O25 1.239 . S
C36 O29 1.256 . S
C37 O26 1.278 . S
C37 O32 1.241 . S
C38 O28 1.244 . S
C38 O33 1.256 . S
C39 O30 1.239 1_554 S
C39 O31 1.256 . S
O40 Mn22 2.221 . S
O40 Mn24 2.290 . S
O40 C34 1.278 . S
O41 Mn24 2.251 . S
O41 C34 1.241 . S
O42 Mn43 2.163 1_565 S
O42 C56 1.244 . S
Mn43 O42 2.163 1_545 S
Mn43 O46 2.160 1_556 S
Mn43 O47 2.221 1_545 S
Mn43 O49 2.163 1_556 S
Mn43 O51 2.160 . S
Mn43 O61 2.221 . S
O44 Mn45 2.087 1_565 S
O44 C56 1.256 . S
Mn45 O44 2.087 1_545 S
Mn45 O52 2.089 . S
Mn45 O61 2.290 . S
Mn45 O62 2.251 1_556 S
O46 Mn43 2.160 1_554 S
O46 C57 1.239 . S
O47 Mn43 2.221 1_565 S
O47 Mn48 2.290 1_556 S
O47 C58 1.278 . S
Mn48 O47 2.290 1_554 S
Mn48 O50 2.089 1_565 S
Mn48 O53 2.251 . S
Mn48 O54 2.087 . S
O49 Mn43 2.163 1_554 S
O49 C59 1.244 1_545 S
O50 Mn48 2.089 1_545 S
O50 C57 1.256 . S
O51 Mn43 2.160 . S
O51 C60 1.239 . S
O52 Mn45 2.089 . S
O52 C60 1.256 . S
O53 Mn48 2.251 . S
O53 C58 1.241 1_554 S
O54 Mn48 2.087 . S
O54 C59 1.256 . S
C55 O61 1.278 1_554 S
C55 O62 1.241 . S
C56 O42 1.244 . S
C56 O44 1.256 . S
C57 O46 1.239 . S
C57 O50 1.256 . S
C58 O47 1.278 . S
C58 O53 1.241 1_556 S
C59 O49 1.244 1_565 S
C59 O54 1.256 . S
C60 O51 1.239 . S
C60 O52 1.256 . S
O61 Mn43 2.221 . S
O61 Mn45 2.290 . S
O61 C55 1.278 1_556 S
O62 Mn45 2.251 1_554 S
O62 C55 1.241 . S
O63 Mn64 2.163 . S
O63 C77 1.244 . S
Mn64 O63 2.163 . S
Mn64 O67 2.160 . S
Mn64 O68 2.221 . S
Mn64 O70 2.163 . S
Mn64 O72 2.160 . S
Mn64 O82 2.221 . S
O65 Mn66 2.087 . S
O65 C77 1.256 . S
Mn66 O65 2.087 . S
Mn66 O73 2.089 1_554 S
Mn66 O82 2.290 . S
Mn66 O83 2.251 . S
O67 Mn64 2.160 . S
O67 C78 1.239 . S
O68 Mn64 2.221 . S
O68 Mn69 2.290 . S
O68 C79 1.278 . S
Mn69 O68 2.290 . S
Mn69 O71 2.089 . S
Mn69 O74 2.251 . S
Mn69 O75 2.087 . S
O70 Mn64 2.163 . S
O70 C80 1.244 . S
O71 Mn69 2.089 . S
O71 C78 1.256 . S
O72 Mn64 2.160 . S
O72 C81 1.239 1_554 S
O73 Mn66 2.089 1_556 S
O73 C81 1.256 . S
O74 Mn69 2.251 . S
O74 C79 1.241 . S
O75 Mn69 2.087 . S
O75 C80 1.256 . S
C76 O82 1.278 . S
C76 O83 1.241 . S
C77 O63 1.244 . S
C77 O65 1.256 . S
C78 O67 1.239 . S
C78 O71 1.256 . S
C79 O68 1.278 . S
C79 O74 1.241 . S
C80 O70 1.244 . S
C80 O75 1.256 . S
C81 O72 1.239 1_556 S
C81 O73 1.256 . S
O82 Mn64 2.221 . S
O82 Mn66 2.290 . S
O82 C76 1.278 . S
O83 Mn66 2.251 . S
O83 C76 1.241 . S
O84 Mn85 2.163 . S
O84 C98 1.244 . S
Mn85 O84 2.163 . S
Mn85 O88 2.160 . S
Mn85 O89 2.221 . S
Mn85 O91 2.163 . S
Mn85 O93 2.160 . S
Mn85 O103 2.221 . S
O86 Mn87 2.087 . S
O86 C98 1.256 . S
Mn87 O86 2.087 . S
Mn87 O94 2.089 . S
Mn87 O103 2.290 . S
Mn87 O104 2.251 . S
O88 Mn85 2.160 . S
O88 C99 1.239 . S
O89 Mn85 2.221 . S
O89 Mn90 2.290 . S
O89 C100 1.278 . S
Mn90 O89 2.290 . S
Mn90 O92 2.089 . S
Mn90 O95 2.251 . S
Mn90 O96 2.087 . S
O91 Mn85 2.163 . S
O91 C101 1.244 . S
O92 Mn90 2.089 . S
O92 C99 1.256 . S
O93 Mn85 2.160 . S
O93 C102 1.239 . S
O94 Mn87 2.089 . S
O94 C102 1.256 . S
O95 Mn90 2.251 . S
O95 C100 1.241 . S
O96 Mn90 2.087 . S
O96 C101 1.256 . S
C97 O103 1.278 . S
C97 O104 1.241 . S
C98 O84 1.244 . S
C98 O86 1.256 . S
C99 O88 1.239 . S
C99 O92 1.256 . S
C100 O89 1.278 . S
C100 O95 1.241 . S
C101 O91 1.244 . S
C101 O96 1.256 . S
C102 O93 1.239 . S
C102 O94 1.256 . S
O103 Mn85 2.221 . S
O103 Mn87 2.290 . S
O103 C97 1.278 . S
O104 Mn87 2.251 . S
O104 C97 1.241 . S
O105 Mn106 2.163 . S
O105 C119 1.244 . S
Mn106 O105 2.163 . S
Mn106 O109 2.160 . S
Mn106 O110 2.221 . S
Mn106 O112 2.163 . S
Mn106 O114 2.160 . S
Mn106 O124 2.221 . S
O107 Mn108 2.087 . S
O107 C119 1.256 . S
Mn108 O107 2.087 . S
Mn108 O115 2.089 . S
Mn108 O124 2.290 . S
Mn108 O125 2.251 . S
O109 Mn106 2.160 . S
O109 C120 1.239 . S
O110 Mn106 2.221 . S
O110 Mn111 2.290 . S
O110 C121 1.278 . S
Mn111 O110 2.290 . S
Mn111 O113 2.089 . S
Mn111 O116 2.251 . S
Mn111 O117 2.087 1_556 S
O112 Mn106 2.163 . S
O112 C122 1.244 1_556 S
O113 Mn111 2.089 . S
O113 C120 1.256 . S
O114 Mn106 2.160 . S
O114 C123 1.239 . S
O115 Mn108 2.089 . S
O115 C123 1.256 . S
O116 Mn111 2.251 . S
O116 C121 1.241 . S
O117 Mn111 2.087 1_554 S
O117 C122 1.256 . S
C118 O124 1.278 . S
C118 O125 1.241 . S
C119 O105 1.244 . S
C119 O107 1.256 . S
C120 O109 1.239 . S
C120 O113 1.256 . S
C121 O110 1.278 . S
C121 O116 1.241 . S
C122 O112 1.244 1_554 S
C122 O117 1.256 . S
C123 O114 1.239 . S
C123 O115 1.256 . S
O124 Mn106 2.221 . S
O124 Mn108 2.290 . S
O124 C118 1.278 . S
O125 Mn108 2.251 . S
O125 C118 1.241 . S
O126 Mn127 2.163 . S
O126 C140 1.244 . S
Mn127 O126 2.163 . S
Mn127 O130 2.160 . S
Mn127 O131 2.221 . S
Mn127 O133 2.163 1_554 S
Mn127 O135 2.160 . S
Mn127 O145 2.221 . S
O128 Mn129 2.087 . S
O128 C140 1.256 . S
Mn129 O128 2.087 . S
Mn129 O136 2.089 . S
Mn129 O145 2.290 . S
Mn129 O146 2.251 . S
O130 Mn127 2.160 . S
O130 C141 1.239 1_554 S
O131 Mn127 2.221 . S
O131 Mn132 2.290 1_554 S
O131 C142 1.278 . S
Mn132 O131 2.290 1_556 S
Mn132 O134 2.089 . S
Mn132 O137 2.251 . S
Mn132 O138 2.087 . S
O133 Mn127 2.163 1_556 S
O133 C143 1.244 . S
O134 Mn132 2.089 . S
O134 C141 1.256 . S
O135 Mn127 2.160 . S
O135 C144 1.239 . S
O136 Mn129 2.089 . S
O136 C144 1.256 . S
O137 Mn132 2.251 . S
O137 C142 1.241 1_556 S
O138 Mn132 2.087 . S
O138 C143 1.256 . S
C139 O145 1.278 1_556 S
C139 O146 1.241 1_556 S
C140 O126 1.244 . S
C140 O128 1.256 . S
C141 O130 1.239 1_556 S
C141 O134 1.256 . S
C142 O131 1.278 . S
C142 O137 1.241 1_554 S
C143 O133 1.244 . S
C143 O138 1.256 . S
C144 O135 1.239 . S
C144 O136 1.256 . S
O145 Mn127 2.221 . S
O145 Mn129 2.290 . S
O145 C139 1.278 1_554 S
O146 Mn129 2.251 . S
O146 C139 1.241 1_554 S
O147 Mn148 2.163 . S
O147 C161 1.244 . S
Mn148 O147 2.163 . S
Mn148 O151 2.160 1_455 S
Mn148 O152 2.221 1_455 S
Mn148 O154 2.163 . S
Mn148 O156 2.160 1_455 S
Mn148 O166 2.221 . S
O149 Mn150 2.087 . S
O149 C161 1.256 . S
Mn150 O149 2.087 . S
Mn150 O157 2.089 . S
Mn150 O166 2.290 . S
Mn150 O167 2.251 . S
O151 Mn148 2.160 1_655 S
O151 C162 1.239 . S
O152 Mn148 2.221 1_655 S
O152 Mn153 2.290 . S
O152 C163 1.278 . S
Mn153 O152 2.290 . S
Mn153 O155 2.089 . S
Mn153 O158 2.251 . S
Mn153 O159 2.087 . S
O154 Mn148 2.163 . S
O154 C164 1.244 1_455 S
O155 Mn153 2.089 . S
O155 C162 1.256 . S
O156 Mn148 2.160 1_655 S
O156 C165 1.239 1_655 S
O157 Mn150 2.089 . S
O157 C165 1.256 . S
O158 Mn153 2.251 . S
O158 C163 1.241 . S
O159 Mn153 2.087 . S
O159 C164 1.256 . S
C160 O166 1.278 . S
C160 O167 1.241 . S
C161 O147 1.244 . S
C161 O149 1.256 . S
C162 O151 1.239 . S
C162 O155 1.256 . S
C163 O152 1.278 . S
C163 O158 1.241 . S
C164 O154 1.244 1_655 S
C164 O159 1.256 . S
C165 O156 1.239 1_455 S
C165 O157 1.256 . S
O166 Mn148 2.221 . S
O166 Mn150 2.290 . S
O166 C160 1.278 . S
O167 Mn150 2.251 . S
O167 C160 1.241 . S
C168 C169 1.369 . S
C168 C170 1.419 . S
C168 H172 0.930 . S
C169 C168 1.369 . S
C169 C178 1.429 . S
C170 C168 1.419 . S
C170 C171 1.363 . S
C170 H173 0.929 . S
C171 C170 1.363 . S
C171 C177 1.428 . S
H172 C168 0.930 . S
H173 C170 0.929 . S
S174 N175 1.613 . S
S174 N176 1.610 . S
N175 S174 1.613 . S
N175 C178 1.350 . S
N176 S174 1.610 . S
N176 C177 1.351 . S
C177 C171 1.428 . S
C177 N176 1.351 . S
C177 C178 1.434 . S
C178 C169 1.429 . S
C178 N175 1.350 . S
C178 C177 1.434 . S
C179 C180 1.369 . S
C179 C181 1.419 . S
C179 H183 0.930 . S
C180 C179 1.369 . S
C180 C189 1.429 . S
C181 C179 1.419 . S
C181 C182 1.363 . S
C181 H184 0.929 . S
C182 C181 1.363 . S
C182 C188 1.428 . S
H183 C179 0.930 . S
H184 C181 0.929 . S
S185 N186 1.613 . S
S185 N187 1.610 . S
N186 S185 1.613 . S
N186 C189 1.350 . S
N187 S185 1.610 . S
N187 C188 1.351 . S
C188 C182 1.428 . S
C188 N187 1.351 . S
C188 C189 1.434 . S
C189 C180 1.429 . S
C189 N186 1.350 . S
C189 C188 1.434 . S
C190 C191 1.369 . S
C190 C192 1.419 . S
C190 H194 0.930 . S
C191 C190 1.369 . S
C191 C200 1.429 . S
C192 C190 1.419 . S
C192 C193 1.363 . S
C192 H195 0.929 . S
C193 C192 1.363 . S
C193 C199 1.428 . S
H194 C190 0.930 . S
H195 C192 0.929 . S
S196 N197 1.613 . S
S196 N198 1.610 . S
N197 S196 1.613 . S
N197 C200 1.350 . S
N198 S196 1.610 . S
N198 C199 1.351 . S
C199 C193 1.428 . S
C199 N198 1.351 . S
C199 C200 1.434 . S
C200 C191 1.429 . S
C200 N197 1.350 . S
C200 C199 1.434 . S
C201 C202 1.369 . S
C201 C203 1.419 . S
C201 H205 0.930 . S
C202 C201 1.369 . S
C202 C211 1.429 . S
C203 C201 1.419 . S
C203 C204 1.363 . S
C203 H206 0.929 . S
C204 C203 1.363 . S
C204 C210 1.428 . S
H205 C201 0.930 . S
H206 C203 0.929 . S
S207 N208 1.613 . S
S207 N209 1.610 . S
N208 S207 1.613 . S
N208 C211 1.350 . S
N209 S207 1.610 . S
N209 C210 1.351 . S
C210 C204 1.428 . S
C210 N209 1.351 . S
C210 C211 1.434 . S
C211 C202 1.429 . S
C211 N208 1.350 . S
C211 C210 1.434 . S
C212 C213 1.369 . S
C212 C214 1.419 . S
C212 H216 0.930 . S
C213 C212 1.369 . S
C213 C222 1.429 . S
C214 C212 1.419 . S
C214 C215 1.363 . S
C214 H217 0.929 . S
C215 C214 1.363 . S
C215 C221 1.428 . S
H216 C212 0.930 . S
H217 C214 0.929 . S
S218 N219 1.613 . S
S218 N220 1.610 . S
N219 S218 1.613 . S
N219 C222 1.350 . S
N220 S218 1.610 . S
N220 C221 1.351 . S
C221 C215 1.428 . S
C221 N220 1.351 . S
C221 C222 1.434 . S
C222 C213 1.429 . S
C222 N219 1.350 . S
C222 C221 1.434 . S
C223 C224 1.369 . S
C223 C225 1.419 . S
C223 H227 0.930 . S
C224 C223 1.369 . S
C224 C233 1.429 . S
C225 C223 1.419 . S
C225 C226 1.363 . S
C225 H228 0.929 . S
C226 C225 1.363 . S
C226 C232 1.428 . S
H227 C223 0.930 . S
H228 C225 0.929 . S
S229 N230 1.613 . S
S229 N231 1.610 . S
N230 S229 1.613 . S
N230 C233 1.350 . S
N231 S229 1.610 . S
N231 C232 1.351 . S
C232 C226 1.428 . S
C232 N231 1.351 . S
C232 C233 1.434 . S
C233 C224 1.429 . S
C233 N230 1.350 . S
C233 C232 1.434 . S
C234 C235 1.369 . S
C234 C236 1.419 . S
C234 H238 0.930 . S
C235 C234 1.369 . S
C235 C244 1.429 . S
C236 C234 1.419 . S
C236 C237 1.363 . S
C236 H239 0.929 . S
C237 C236 1.363 . S
C237 C243 1.428 . S
H238 C234 0.930 . S
H239 C236 0.929 . S
S240 N241 1.613 . S
S240 N242 1.610 . S
N241 S240 1.613 . S
N241 C244 1.350 . S
N242 S240 1.610 . S
N242 C243 1.351 . S
C243 C237 1.428 . S
C243 N242 1.351 . S
C243 C244 1.434 . S
C244 C235 1.429 . S
C244 N241 1.350 . S
C244 C243 1.434 . S
C245 C246 1.369 . S
C245 C247 1.419 . S
C245 H249 0.930 . S
C246 C245 1.369 . S
C246 C255 1.429 . S
C247 C245 1.419 . S
C247 C248 1.363 . S
C247 H250 0.929 . S
C248 C247 1.363 . S
C248 C254 1.428 . S
H249 C245 0.930 . S
H250 C247 0.929 . S
S251 N252 1.613 . S
S251 N253 1.610 . S
N252 S251 1.613 . S
N252 C255 1.350 . S
N253 S251 1.610 . S
N253 C254 1.351 . S
C254 C248 1.428 . S
C254 N253 1.351 . S
C254 C255 1.434 . S
C255 C246 1.429 . S
C255 N252 1.350 . S
C255 C254 1.434 . S
C256 C257 1.369 . S
C256 C258 1.419 . S
C256 H260 0.930 . S
C257 C256 1.369 . S
C257 C266 1.429 . S
C258 C256 1.419 . S
C258 C259 1.363 . S
C258 H261 0.929 . S
C259 C258 1.363 . S
C259 C265 1.428 . S
H260 C256 0.930 . S
H261 C258 0.929 . S
S262 N263 1.613 . S
S262 N264 1.610 . S
N263 S262 1.613 . S
N263 C266 1.350 . S
N264 S262 1.610 . S
N264 C265 1.351 . S
C265 C259 1.428 . S
C265 N264 1.351 . S
C265 C266 1.434 . S
C266 C257 1.429 . S
C266 N263 1.350 . S
C266 C265 1.434 . S
C267 C268 1.369 . S
C267 C269 1.419 . S
C267 H271 0.930 . S
C268 C267 1.369 . S
C268 C277 1.429 . S
C269 C267 1.419 . S
C269 C270 1.363 . S
C269 H272 0.929 . S
C270 C269 1.363 . S
C270 C276 1.428 . S
H271 C267 0.930 . S
H272 C269 0.929 . S
S273 N274 1.613 1_556 S
S273 N275 1.610 . S
N274 S273 1.613 1_554 S
N274 C277 1.350 . S
N275 S273 1.610 . S
N275 C276 1.351 1_556 S
C276 C270 1.428 . S
C276 N275 1.351 1_554 S
C276 C277 1.434 . S
C277 C268 1.429 . S
C277 N274 1.350 . S
C277 C276 1.434 . S
C278 C279 1.369 . S
C278 C280 1.419 . S
C278 H282 0.930 . S
C279 C278 1.369 . S
C279 C288 1.429 . S
C280 C278 1.419 . S
C280 C281 1.363 . S
C280 H283 0.929 . S
C281 C280 1.363 . S
C281 C287 1.428 . S
H282 C278 0.930 . S
H283 C280 0.929 . S
S284 N285 1.613 . S
S284 N286 1.610 . S
N285 S284 1.613 . S
N285 C288 1.350 . S
N286 S284 1.610 . S
N286 C287 1.351 . S
C287 C281 1.428 . S
C287 N286 1.351 . S
C287 C288 1.434 . S
C288 C279 1.429 . S
C288 N285 1.350 . S
C288 C287 1.434 . S
C289 C290 1.369 . S
C289 C291 1.419 . S
C289 H293 0.930 . S
C290 C289 1.369 . S
C290 C299 1.429 . S
C291 C289 1.419 . S
C291 C292 1.363 . S
C291 H294 0.929 . S
C292 C291 1.363 . S
C292 C298 1.428 . S
H293 C289 0.930 . S
H294 C291 0.929 . S
S295 N296 1.613 . S
S295 N297 1.610 . S
N296 S295 1.613 . S
N296 C299 1.350 . S
N297 S295 1.610 . S
N297 C298 1.351 . S
C298 C292 1.428 . S
C298 N297 1.351 . S
C298 C299 1.434 . S
C299 C290 1.429 . S
C299 N296 1.350 . S
C299 C298 1.434 . S
C300 C301 1.369 . S
C300 C302 1.419 . S
C300 H304 0.930 . S
C301 C300 1.369 . S
C301 C310 1.429 . S
C302 C300 1.419 . S
C302 C303 1.363 . S
C302 H305 0.929 . S
C303 C302 1.363 . S
C303 C309 1.428 . S
H304 C300 0.930 . S
H305 C302 0.929 . S
S306 N307 1.613 . S
S306 N308 1.610 . S
N307 S306 1.613 . S
N307 C310 1.350 1_556 S
N308 S306 1.610 . S
N308 C309 1.351 1_556 S
C309 C303 1.428 . S
C309 N308 1.351 1_554 S
C309 C310 1.434 . S
C310 C301 1.429 . S
C310 N307 1.350 1_554 S
C310 C309 1.434 . S
C311 C312 1.369 . S
C311 C313 1.419 . S
C311 H315 0.930 . S
C312 C311 1.369 . S
C312 C321 1.429 . S
C313 C311 1.419 . S
C313 C314 1.363 . S
C313 H316 0.929 . S
C314 C313 1.363 . S
C314 C320 1.428 . S
H315 C311 0.930 . S
H316 C313 0.929 . S
S317 N318 1.613 . S
S317 N319 1.610 . S
N318 S317 1.613 . S
N318 C321 1.350 1_554 S
N319 S317 1.610 . S
N319 C320 1.351 1_554 S
C320 C314 1.428 . S
C320 N319 1.351 1_556 S
C320 C321 1.434 . S
C321 C312 1.429 . S
C321 N318 1.350 1_556 S
C321 C320 1.434 . S
C322 C323 1.369 . S
C322 C324 1.419 . S
C322 H326 0.930 . S
C323 C322 1.369 . S
C323 C332 1.429 . S
C324 C322 1.419 . S
C324 C325 1.363 . S
C324 H327 0.929 . S
C325 C324 1.363 . S
C325 C331 1.428 . S
H326 C322 0.930 . S
H327 C324 0.929 . S
S328 N329 1.613 . S
S328 N330 1.610 . S
N329 S328 1.613 . S
N329 C332 1.350 . S
N330 S328 1.610 . S
N330 C331 1.351 . S
C331 C325 1.428 . S
C331 N330 1.351 . S
C331 C332 1.434 . S
C332 C323 1.429 . S
C332 N329 1.350 . S
C332 C331 1.434 . S
C333 C334 1.369 . S
C333 C335 1.419 . S
C333 H337 0.930 . S
C334 C333 1.369 . S
C334 C343 1.429 . S
C335 C333 1.419 . S
C335 C336 1.363 . S
C335 H338 0.929 . S
C336 C335 1.363 . S
C336 C342 1.428 . S
H337 C333 0.930 . S
H338 C335 0.929 . S
S339 N340 1.613 . S
S339 N341 1.610 . S
N340 S339 1.613 . S
N340 C343 1.350 . S
N341 S339 1.610 . S
N341 C342 1.351 . S
C342 C336 1.428 . S
C342 N341 1.351 . S
C342 C343 1.434 . S
C343 C334 1.429 . S
C343 N340 1.350 . S
C343 C342 1.434 . S
C344 C345 1.369 . S
C344 C346 1.419 1_556 S
C344 H348 0.930 . S
C345 C344 1.369 . S
C345 C354 1.429 1_445 S
C346 C344 1.419 1_554 S
C346 C347 1.363 1_545 S
C346 H349 0.929 . S
C347 C346 1.363 1_565 S
C347 C353 1.428 1_455 S
H348 C344 0.930 . S
H349 C346 0.929 . S
S350 N351 1.613 . S
S350 N352 1.610 1_556 S
N351 S350 1.613 . S
N351 C354 1.350 . S
N352 S350 1.610 1_554 S
N352 C353 1.351 . S
C353 C347 1.428 1_655 S
C353 N352 1.351 . S
C353 C354 1.434 1_554 S
C354 C345 1.429 1_665 S
C354 N351 1.350 . S
C354 C353 1.434 1_556 S
C355 C356 1.369 . S
C355 C357 1.419 . S
C355 H359 0.930 . S
C356 C355 1.369 . S
C356 C365 1.429 . S
C357 C355 1.419 . S
C357 C358 1.363 . S
C357 H360 0.929 . S
C358 C357 1.363 . S
C358 C364 1.428 . S
H359 C355 0.930 . S
H360 C357 0.929 . S
S361 N362 1.613 . S
S361 N363 1.610 . S
N362 S361 1.613 . S
N362 C365 1.350 . S
N363 S361 1.610 . S
N363 C364 1.351 . S
C364 C358 1.428 . S
C364 N363 1.351 . S
C364 C365 1.434 . S
C365 C356 1.429 . S
C365 N362 1.350 . S
C365 C364 1.434 . S
C366 C367 1.369 . S
C366 C368 1.419 . S
C366 H370 0.930 . S
C367 C366 1.369 . S
C367 C376 1.429 . S
C368 C366 1.419 . S
C368 C369 1.363 . S
C368 H371 0.929 1_545 S
C369 C368 1.363 . S
C369 C375 1.431 . S
H370 C366 0.930 . S
H371 C368 0.929 1_565 S
S372 N373 1.613 . S
S372 N374 1.610 . S
N373 S372 1.613 . S
N373 C376 1.350 . S
N374 S372 1.610 . S
N374 C375 1.351 . S
C375 C369 1.431 . S
C375 N374 1.351 . S
C375 C376 1.434 . S
C376 C367 1.429 . S
C376 N373 1.350 . S
C376 C375 1.434 . S
C377 C378 1.369 . S
C377 C379 1.419 . S
C377 H381 0.930 . S
C378 C377 1.369 . S
C378 C387 1.429 . S
C379 C377 1.419 . S
C379 C380 1.363 . S
C379 H382 0.929 . S
C380 C379 1.363 . S
C380 C386 1.428 . S
H381 C377 0.930 . S
H382 C379 0.929 . S
S383 N384 1.613 . S
S383 N385 1.610 . S
N384 S383 1.613 . S
N384 C387 1.350 . S
N385 S383 1.610 . S
N385 C386 1.351 . S
C386 C380 1.428 . S
C386 N385 1.351 . S
C386 C387 1.434 . S
C387 C378 1.429 . S
C387 N384 1.350 . S
C387 C386 1.434 . S
C388 C389 1.369 . S
C388 C390 1.419 . S
C388 H392 0.930 . S
C389 C388 1.369 . S
C389 C398 1.429 . S
C390 C388 1.419 . S
C390 C391 1.363 . S
C390 H393 0.929 . S
C391 C390 1.363 . S
C391 C397 1.428 . S
H392 C388 0.930 . S
H393 C390 0.929 . S
S394 N395 1.613 . S
S394 N396 1.610 . S
N395 S394 1.613 . S
N395 C398 1.350 . S
N396 S394 1.610 . S
N396 C397 1.351 . S
C397 C391 1.428 . S
C397 N396 1.351 . S
C397 C398 1.434 . S
C398 C389 1.429 . S
C398 N395 1.350 . S
C398 C397 1.434 . S
C399 C400 1.369 . S
C399 C401 1.419 . S
C399 H403 0.930 . S
C400 C399 1.369 . S
C400 C409 1.429 . S
C401 C399 1.419 . S
C401 C402 1.363 . S
C401 H404 0.929 . S
C402 C401 1.363 . S
C402 C408 1.428 . S
H403 C399 0.930 . S
H404 C401 0.929 . S
S405 N406 1.613 . S
S405 N407 1.610 . S
N406 S405 1.613 . S
N406 C409 1.350 . S
N407 S405 1.610 . S
N407 C408 1.351 . S
C408 C402 1.428 . S
C408 N407 1.351 . S
C408 C409 1.434 . S
C409 C400 1.429 . S
C409 N406 1.350 . S
C409 C408 1.434 . S
C410 C411 1.369 . S
C410 C412 1.419 . S
C410 H414 0.930 . S
C411 C410 1.369 . S
C411 C420 1.429 . S
C412 C410 1.419 . S
C412 C413 1.363 . S
C412 H415 0.929 . S
C413 C412 1.363 . S
C413 C419 1.428 . S
H414 C410 0.930 . S
H415 C412 0.929 . S
S416 N417 1.613 . S
S416 N418 1.610 . S
N417 S416 1.613 . S
N417 C420 1.350 . S
N418 S416 1.610 . S
N418 C419 1.351 . S
C419 C413 1.428 . S
C419 N418 1.351 . S
C419 C420 1.434 . S
C420 C411 1.429 . S
C420 N417 1.350 . S
C420 C419 1.434 . S
C421 C422 1.369 . S
C421 C423 1.419 1_556 S
C421 H425 0.930 . S
C422 C421 1.369 . S
C422 C431 1.429 1_455 S
C423 C421 1.419 1_554 S
C423 C424 1.363 . S
C423 H426 0.929 . S
C424 C423 1.363 . S
C424 C430 1.428 1_455 S
H425 C421 0.930 . S
H426 C423 0.929 . S
S427 N428 1.613 . S
S427 N429 1.610 1_556 S
N428 S427 1.613 . S
N428 C431 1.350 . S
N429 S427 1.610 1_554 S
N429 C430 1.351 . S
C430 C424 1.428 1_655 S
C430 N429 1.351 . S
C430 C431 1.434 1_554 S
C431 C422 1.429 1_655 S
C431 N428 1.350 . S
C431 C430 1.434 1_556 S
C169 C15 1.310 . S
C171 C78 1.312 . S
C180 C16 1.358 . S
C182 C36 1.470 . S
C191 C37 1.494 . S
C193 C58 1.494 . S
C202 C57 1.468 . S
C204 C79 1.352 . S
C213 C14 1.466 . S
C215 C119 1.465 . S
C224 C13 1.316 . S
C226 C98 1.432 . S
C235 C97 1.275 . S
C237 C55 1.280 . S
C246 C118 1.309 . S
C248 C56 1.430 . S
C257 C141 1.306 . S
C259 C120 1.303 . S
C268 C99 1.462 . S
C270 C142 1.346 . S
C279 C163 1.493 . S
C281 C100 1.494 . S
C290 C121 1.353 . S
C292 C162 1.468 . S
C301 C77 1.462 . S
C303 C140 1.463 . S
C312 C139 1.304 . S
C314 C35 1.424 . S
C323 C34 1.269 . S
C325 C160 1.281 . S
C334 C76 1.304 . S
C336 C161 1.425 . S
C345 C18 1.368 1_455 S
C347 C17 1.385 . S
C356 C38 1.367 . S
C358 C39 1.366 . S
C367 C60 1.359 . S
C369 C59 1.371 1_545 S
C378 C81 1.368 . S
C380 C80 1.386 . S
C389 C101 1.375 1_556 S
C391 C102 1.360 . S
C400 C123 1.377 . S
C402 C122 1.381 . S
C411 C143 1.379 . S
C413 C144 1.376 . S
C422 C164 1.368 1_455 S
C424 C165 1.366 . S
