# Generated by pormake.
# Topology umo, (4)-cn, num edge types: 1
# Building blocks:
#     Node 0, Type 0, BuildingBlock: NAWXER_clean_sbu_0, # of connection points: 4
#     Node 1, Type 0, BuildingBlock: NAWXER_clean_sbu_0, # of connection points: 4
#     Node 2, Type 0, BuildingBlock: NAWXER_clean_sbu_0, # of connection points: 4
#     Node 3, Type 0, BuildingBlock: NAWXER_clean_sbu_0, # of connection points: 4
#     Node 4, Type 0, BuildingBlock: NAWXER_clean_sbu_0, # of connection points: 4
#     Node 5, Type 0, BuildingBlock: NAWXER_clean_sbu_0, # of connection points: 4
#     Node 6, Type 0, BuildingBlock: NAWXER_clean_sbu_0, # of connection points: 4
#     Node 7, Type 0, BuildingBlock: NAWXER_clean_sbu_0, # of connection points: 4
#     Node 8, Type 0, BuildingBlock: NAWXER_clean_sbu_0, # of connection points: 4
#     Node 9, Type 0, BuildingBlock: NAWXER_clean_sbu_0, # of connection points: 4
#     Node 10, Type 0, BuildingBlock: NAWXER_clean_sbu_0, # of connection points: 4
#     Node 11, Type 0, BuildingBlock: NAWXER_clean_sbu_0, # of connection points: 4
#     Edge 12, Type (0, 0), BuildingBlock: UVAHIK_clean_linker_0, # of connection points: 2
#     Edge 13, Type (0, 0), BuildingBlock: UVAHIK_clean_linker_0, # of connection points: 2
#     Edge 14, Type (0, 0), BuildingBlock: UVAHIK_clean_linker_0, # of connection points: 2
#     Edge 15, Type (0, 0), BuildingBlock: UVAHIK_clean_linker_0, # of connection points: 2
#     Edge 16, Type (0, 0), BuildingBlock: UVAHIK_clean_linker_0, # of connection points: 2
#     Edge 17, Type (0, 0), BuildingBlock: UVAHIK_clean_linker_0, # of connection points: 2
#     Edge 18, Type (0, 0), BuildingBlock: UVAHIK_clean_linker_0, # of connection points: 2
#     Edge 19, Type (0, 0), BuildingBlock: UVAHIK_clean_linker_0, # of connection points: 2
#     Edge 20, Type (0, 0), BuildingBlock: UVAHIK_clean_linker_0, # of connection points: 2
#     Edge 21, Type (0, 0), BuildingBlock: UVAHIK_clean_linker_0, # of connection points: 2
#     Edge 22, Type (0, 0), BuildingBlock: UVAHIK_clean_linker_0, # of connection points: 2
#     Edge 23, Type (0, 0), BuildingBlock: UVAHIK_clean_linker_0, # of connection points: 2
#     Edge 24, Type (0, 0), BuildingBlock: UVAHIK_clean_linker_0, # of connection points: 2
#     Edge 25, Type (0, 0), BuildingBlock: UVAHIK_clean_linker_0, # of connection points: 2
#     Edge 26, Type (0, 0), BuildingBlock: UVAHIK_clean_linker_0, # of connection points: 2
#     Edge 27, Type (0, 0), BuildingBlock: UVAHIK_clean_linker_0, # of connection points: 2
#     Edge 28, Type (0, 0), BuildingBlock: UVAHIK_clean_linker_0, # of connection points: 2
#     Edge 29, Type (0, 0), BuildingBlock: UVAHIK_clean_linker_0, # of connection points: 2
#     Edge 30, Type (0, 0), BuildingBlock: UVAHIK_clean_linker_0, # of connection points: 2
#     Edge 31, Type (0, 0), BuildingBlock: UVAHIK_clean_linker_0, # of connection points: 2
#     Edge 32, Type (0, 0), BuildingBlock: UVAHIK_clean_linker_0, # of connection points: 2
#     Edge 33, Type (0, 0), BuildingBlock: UVAHIK_clean_linker_0, # of connection points: 2
#     Edge 34, Type (0, 0), BuildingBlock: UVAHIK_clean_linker_0, # of connection points: 2
#     Edge 35, Type (0, 0), BuildingBlock: UVAHIK_clean_linker_0, # of connection points: 2
# Relax obj value: 0.169
# Max RMSD: 0.217
# Mean RMSD: 0.217
data_MOF--net-umo--node1-NAWXER_clean_sbu_0--edge1-UVAHIK_clean_linker_0
_symmetry_space_group_name_H-M    P1
_symmetry_Int_Tables_number       1
_symmetry_cell_setting            triclinic
loop_
_symmetry_equiv_pos_as_xyz
'x, y, z'
_cell_length_a     62.804287
_cell_length_b     62.796407
_cell_length_c     48.80374
_cell_angle_alpha  89.949563
_cell_angle_beta   90.042928
_cell_angle_gamma 120.04659
loop_
_atom_site_label
_atom_site_type_symbol
_atom_site_fract_x
_atom_site_fract_y
_atom_site_fract_z
_atom_type_partial_charge
C0 C 0.19342 0.54807 0.42542 0.0
C1 C 0.10782 0.50544 0.39385 0.0
O2 O 0.17863 0.52499 0.42696 0.0
Zn3 Zn 0.15064 0.52576 0.41019 0.0
O4 O 0.18647 0.56212 0.41453 0.0
Zn5 Zn 0.15502 0.55989 0.39526 0.0
O6 O 0.14889 0.58081 0.4192 0.0
O7 O 0.1433 0.54696 0.43955 0.0
O8 O 0.11925 0.52866 0.38915 0.0
O9 O 0.11904 0.49584 0.40569 0.0
O10 O 0.16347 0.53464 0.369 0.0
O11 O 0.1676 0.5707 0.35836 0.0
C12 C 0.1435 0.56749 0.4406 0.0
C13 C 0.16951 0.55213 0.35176 0.0
C14 C 0.58631 0.09666 0.54724 0.0
C15 C 0.60962 0.18194 0.5612 0.0
O16 O 0.60647 0.10768 0.56093 0.0
Zn17 Zn 0.62918 0.14456 0.57721 0.0
O18 O 0.57529 0.10825 0.54105 0.0
Zn19 Zn 0.59797 0.13941 0.55624 0.0
O20 O 0.63065 0.15207 0.53151 0.0
O21 O 0.66032 0.15585 0.55883 0.0
O22 O 0.5908 0.16496 0.54924 0.0
O23 O 0.62509 0.17701 0.57267 0.0
O24 O 0.6284 0.1405 0.61652 0.0
O25 O 0.59352 0.13551 0.60019 0.0
C26 C 0.65317 0.1579 0.53511 0.0
C27 C 0.6068 0.13661 0.62074 0.0
C28 C 0.48958 0.66093 0.70587 0.0
C29 C 0.46938 0.61862 0.7943 0.0
O30 O 0.47379 0.63791 0.70383 0.0
Zn31 Zn 0.456 0.60637 0.73062 0.0
O32 O 0.499 0.66982 0.7291 0.0
Zn33 Zn 0.48117 0.63951 0.74963 0.0
O34 O 0.49711 0.61805 0.73472 0.0
O35 O 0.46631 0.58463 0.71677 0.0
O36 O 0.4856 0.64071 0.78904 0.0
O37 O 0.45746 0.60412 0.77446 0.0
O38 O 0.4222 0.59644 0.72528 0.0
O39 O 0.44364 0.63254 0.74562 0.0
C40 C 0.48902 0.59737 0.72234 0.0
C41 C 0.42317 0.61536 0.73591 0.0
C42 C 0.7981 0.45894 0.93477 0.0
C43 C 0.88341 0.50417 0.90326 0.0
O44 O 0.81222 0.48211 0.93667 0.0
Zn45 Zn 0.84066 0.48247 0.9197 0.0
O46 O 0.80569 0.44556 0.92357 0.0
Zn47 Zn 0.83764 0.44893 0.90463 0.0
O48 O 0.84451 0.42858 0.92882 0.0
O49 O 0.84839 0.46169 0.94922 0.0
O50 O 0.87263 0.48101 0.89843 0.0
O51 O 0.87175 0.51305 0.91557 0.0
O52 O 0.82822 0.47341 0.87817 0.0
O53 O 0.82554 0.43794 0.86769 0.0
C54 C 0.84888 0.44152 0.95037 0.0
C55 C 0.82297 0.45609 0.86091 0.0
C56 C 0.39336 0.89101 0.05996 0.0
C57 C 0.34919 0.80725 0.09701 0.0
O58 O 0.37425 0.88173 0.07498 0.0
Zn59 Zn 0.36986 0.8489 0.07891 0.0
O60 O 0.40273 0.87777 0.05301 0.0
Zn61 Zn 0.39604 0.84132 0.05909 0.0
O62 O 0.38878 0.82711 0.0224 0.0
O63 O 0.35947 0.83305 0.0389 0.0
O64 O 0.36784 0.812 0.08219 0.0
O65 O 0.34306 0.82352 0.10093 0.0
O66 O 0.4004 0.8547 0.10363 0.0
O67 O 0.42471 0.84577 0.07973 0.0
C68 C 0.36779 0.82533 0.01966 0.0
C69 C 0.4196 0.85253 0.1022 0.0
C70 C 0.55322 0.383 0.17942 0.0
C71 C 0.57662 0.42492 0.26879 0.0
O72 O 0.57258 0.4035 0.18429 0.0
Zn73 Zn 0.56586 0.4059 0.22296 0.0
O74 O 0.53742 0.37224 0.19854 0.0
Zn75 Zn 0.53198 0.37692 0.24074 0.0
O76 O 0.50276 0.38043 0.23959 0.0
O77 O 0.53553 0.41221 0.22158 0.0
O78 O 0.55555 0.40525 0.26828 0.0
O79 O 0.58942 0.43225 0.24696 0.0
O80 O 0.56745 0.37526 0.23859 0.0
O81 O 0.53195 0.34827 0.25727 0.0
C82 C 0.51275 0.40154 0.22829 0.0
C83 C 0.55407 0.35483 0.25091 0.0
C84 C 0.48378 0.78915 0.46736 0.0
C85 C 0.46896 0.81144 0.37638 0.0
O86 O 0.46569 0.79325 0.46725 0.0
Zn87 Zn 0.44711 0.80394 0.43738 0.0
O88 O 0.49541 0.79146 0.44525 0.0
Zn89 Zn 0.47603 0.8003 0.42237 0.0
O90 O 0.48626 0.83687 0.43822 0.0
O91 O 0.45147 0.83372 0.45239 0.0
O92 O 0.48462 0.80554 0.38404 0.0
O93 O 0.45398 0.81171 0.39408 0.0
O94 O 0.41433 0.77709 0.43911 0.0
O95 O 0.44036 0.76624 0.42329 0.0
C96 C 0.47458 0.84657 0.44941 0.0
C97 C 0.41844 0.76041 0.43063 0.0
C98 C 0.65086 0.48139 0.54895 0.0
C99 C 0.68712 0.47708 0.63571 0.0
O100 O 0.63441 0.467 0.5661 0.0
Zn101 Zn 0.63376 0.45574 0.60825 0.0
O102 O 0.67313 0.49371 0.55667 0.0
Zn103 Zn 0.6683 0.48115 0.59362 0.0
O104 O 0.65617 0.442 0.58642 0.0
O105 O 0.61893 0.42138 0.60435 0.0
O106 O 0.69752 0.49166 0.61577 0.0
O107 O 0.6637 0.46296 0.63548 0.0
O108 O 0.6144 0.46565 0.62811 0.0
O109 O 0.64904 0.49754 0.61409 0.0
C110 C 0.63669 0.4214 0.59197 0.0
C111 C 0.6284 0.4887 0.62678 0.0
C112 C 0.19747 0.68267 0.80528 0.0
C113 C 0.15945 0.64571 0.71771 0.0
O114 O 0.1877 0.65915 0.80581 0.0
Zn115 Zn 0.16629 0.62891 0.77783 0.0
O116 O 0.19447 0.69284 0.78429 0.0
Zn117 Zn 0.17607 0.66355 0.76269 0.0
O118 O 0.13996 0.64453 0.78212 0.0
O119 O 0.13566 0.6091 0.79543 0.0
O120 O 0.16919 0.66802 0.72515 0.0
O121 O 0.15708 0.62945 0.73528 0.0
O122 O 0.18625 0.61421 0.77505 0.0
O123 O 0.20328 0.65169 0.75762 0.0
C124 C 0.12702 0.62343 0.79363 0.0
C125 C 0.20434 0.63225 0.76336 0.0
C126 C 0.53088 0.14416 0.97102 0.0
C127 C 0.59247 0.22786 0.94562 0.0
O128 O 0.52144 0.15423 0.95618 0.0
Zn129 Zn 0.53469 0.18922 0.93575 0.0
O130 O 0.55371 0.15611 0.97633 0.0
Zn131 Zn 0.56206 0.18581 0.95674 0.0
O132 O 0.54468 0.20219 0.9799 0.0
O133 O 0.51684 0.20328 0.95331 0.0
O134 O 0.59557 0.2122 0.95892 0.0
O135 O 0.57121 0.22152 0.93555 0.0
O136 O 0.52858 0.1807 0.89739 0.0
O137 O 0.55851 0.17586 0.91396 0.0
C138 C 0.52826 0.20834 0.97604 0.0
C139 C 0.54499 0.17482 0.89368 0.0
C140 C 0.39772 0.54106 0.14689 0.0
C141 C 0.37517 0.6027 0.12262 0.0
O142 O 0.37751 0.53153 0.13332 0.0
Zn143 Zn 0.3554 0.54457 0.11379 0.0
O144 O 0.40923 0.56404 0.1514 0.0
Zn145 Zn 0.38716 0.57246 0.1333 0.0
O146 O 0.3542 0.55581 0.15777 0.0
O147 O 0.3242 0.52699 0.13304 0.0
O148 O 0.3944 0.60609 0.13515 0.0
O149 O 0.35987 0.58123 0.11333 0.0
O150 O 0.35662 0.53793 0.07521 0.0
O151 O 0.39175 0.56842 0.09036 0.0
C152 C 0.33149 0.53928 0.15517 0.0
C153 C 0.37868 0.55461 0.07058 0.0
C154 C 0.79775 0.30911 0.31413 0.0
C155 C 0.82058 0.35073 0.22554 0.0
O156 O 0.80232 0.33144 0.3158 0.0
Zn157 Zn 0.81393 0.36248 0.28804 0.0
O158 O 0.80027 0.30098 0.29125 0.0
Zn159 Zn 0.80983 0.33038 0.27046 0.0
O160 O 0.84633 0.35523 0.2867 0.0
O161 O 0.84469 0.38708 0.303 0.0
O162 O 0.8151 0.32894 0.23168 0.0
O163 O 0.82084 0.36502 0.24448 0.0
O164 O 0.78721 0.36881 0.29098 0.0
O165 O 0.77636 0.33277 0.27248 0.0
C166 C 0.85689 0.37633 0.29856 0.0
C167 C 0.77059 0.34859 0.28103 0.0
C168 C 0.2362 0.55536 0.42215 0.0
C169 C 0.21888 0.55968 0.43537 0.0
C170 C 0.26144 0.57196 0.4254 0.0
C171 C 0.30673 0.6272 0.46518 0.0
H172 H 0.33859 0.65089 0.39475 0.0
C173 C 0.3766 0.72806 0.4457 0.0
C174 C 0.39837 0.73437 0.43133 0.0
C175 C 0.35799 0.70358 0.448 0.0
C176 C 0.33018 0.64422 0.41463 0.0
H177 H 0.21395 0.58347 0.46344 0.0
H178 H 0.2576 0.61197 0.46966 0.0
H179 H 0.29999 0.61174 0.39748 0.0
H180 H 0.41747 0.71982 0.40773 0.0
H181 H 0.38432 0.67672 0.41116 0.0
H182 H 0.33614 0.66045 0.48201 0.0
C183 C 0.25211 0.59592 0.45695 0.0
C184 C 0.3081 0.62173 0.41625 0.0
C185 C 0.22704 0.57958 0.45345 0.0
C186 C 0.40091 0.71555 0.41892 0.0
C187 C 0.382 0.69092 0.42088 0.0
C188 C 0.32864 0.64971 0.46351 0.0
C189 C 0.26962 0.59294 0.44209 0.0
C190 C 0.29562 0.61344 0.4414 0.0
C191 C 0.36048 0.68472 0.43575 0.0
C192 C 0.34008 0.65889 0.43808 0.0
H193 H 0.23025 0.54038 0.40766 0.0
H194 H 0.27448 0.56907 0.41381 0.0
H195 H 0.29786 0.62113 0.48494 0.0
H196 H 0.374 0.74202 0.4556 0.0
H197 H 0.34144 0.69941 0.45916 0.0
C198 C 0.63128 0.22508 0.57918 0.0
C199 C 0.6139 0.20731 0.56138 0.0
C200 C 0.63502 0.24898 0.57948 0.0
C201 C 0.60409 0.28377 0.56017 0.0
H202 H 0.66819 0.34037 0.57507 0.0
C203 C 0.65348 0.39666 0.56992 0.0
C204 C 0.63496 0.39767 0.58503 0.0
C205 C 0.65172 0.37398 0.56422 0.0
C206 C 0.65023 0.32481 0.5705 0.0
H207 H 0.58741 0.2008 0.52928 0.0
H208 H 0.59438 0.24253 0.52925 0.0
H209 H 0.66413 0.29989 0.56962 0.0
H210 H 0.60018 0.37569 0.60611 0.0
H211 H 0.59743 0.33657 0.59678 0.0
H212 H 0.59024 0.30864 0.56043 0.0
C213 C 0.60465 0.23793 0.54356 0.0
C214 C 0.64784 0.30154 0.56777 0.0
C215 C 0.60071 0.21401 0.5435 0.0
C216 C 0.6147 0.37562 0.59423 0.0
C217 C 0.61302 0.35309 0.5887 0.0
C218 C 0.60652 0.307 0.56266 0.0
C219 C 0.62165 0.25566 0.56176 0.0
C220 C 0.62466 0.28068 0.56299 0.0
C221 C 0.63146 0.35194 0.57361 0.0
C222 C 0.62951 0.32773 0.56838 0.0
H223 H 0.6417 0.22044 0.59323 0.0
H224 H 0.64798 0.26202 0.59407 0.0
H225 H 0.5859 0.26815 0.55679 0.0
H226 H 0.66931 0.41335 0.56253 0.0
H227 H 0.66613 0.3737 0.55234 0.0
C228 C 0.24947 0.65253 0.75359 0.0
C229 C 0.22669 0.63099 0.7573 0.0
C230 C 0.27087 0.65121 0.74991 0.0
C231 C 0.29503 0.60873 0.76158 0.0
H232 H 0.34841 0.65463 0.71499 0.0
C233 C 0.37752 0.59682 0.73323 0.0
C234 C 0.40088 0.61759 0.73716 0.0
C235 C 0.35639 0.5988 0.73492 0.0
C236 C 0.33366 0.6418 0.72817 0.0
H237 H 0.20819 0.59116 0.75879 0.0
H238 H 0.24519 0.58877 0.75131 0.0
H239 H 0.31095 0.65721 0.71842 0.0
H240 H 0.42047 0.65681 0.74542 0.0
H241 H 0.38343 0.66028 0.74794 0.0
H242 H 0.31761 0.59302 0.77078 0.0
C243 C 0.24683 0.60676 0.75223 0.0
C244 C 0.31225 0.6433 0.73025 0.0
C245 C 0.22556 0.6081 0.75632 0.0
C246 C 0.40271 0.64046 0.74241 0.0
C247 C 0.38157 0.6425 0.74369 0.0
C248 C 0.31627 0.60703 0.7592 0.0
C249 C 0.26984 0.6283 0.74949 0.0
C250 C 0.29265 0.62677 0.74699 0.0
C251 C 0.35823 0.62164 0.74017 0.0
C252 C 0.33576 0.62355 0.74251 0.0
H253 H 0.2509 0.67044 0.7544 0.0
H254 H 0.28827 0.6682 0.74819 0.0
H255 H 0.28063 0.59606 0.77519 0.0
H256 H 0.37551 0.57895 0.72917 0.0
H257 H 0.33858 0.58248 0.73194 0.0
C258 C 0.76786 0.42959 0.9672 0.0
C259 C 0.77301 0.44621 0.94563 0.0
C260 C 0.74415 0.40969 0.97076 0.0
C261 C 0.69272 0.37024 0.92597 0.0
H262 H 0.66633 0.33267 0.9928 0.0
C263 C 0.60936 0.27078 0.92788 0.0
C264 C 0.61219 0.25396 0.94435 0.0
C265 C 0.62657 0.29591 0.92896 0.0
C266 C 0.67353 0.34296 0.97397 0.0
H267 H 0.75741 0.4565 0.9122 0.0
H268 H 0.71554 0.42213 0.91893 0.0
H269 H 0.69864 0.37578 0.99547 0.0
H270 H 0.63558 0.25035 0.97452 0.0
H271 H 0.66567 0.29425 0.9763 0.0
H272 H 0.66787 0.33727 0.90451 0.0
C273 C 0.72985 0.42421 0.93291 0.0
C274 C 0.69198 0.36767 0.97549 0.0
C275 C 0.75368 0.44415 0.92935 0.0
C276 C 0.63291 0.26279 0.96148 0.0
C277 C 0.64998 0.28795 0.96275 0.0
C278 C 0.67413 0.34561 0.92449 0.0
C279 C 0.72516 0.40595 0.95262 0.0
C280 C 0.70232 0.38144 0.95147 0.0
C281 C 0.64684 0.3048 0.94673 0.0
C282 C 0.66484 0.33153 0.94843 0.0
H283 H 0.78267 0.43056 0.97956 0.0
H284 H 0.74143 0.39602 0.98602 0.0
H285 H 0.70048 0.38003 0.907 0.0
H286 H 0.59358 0.2646 0.91452 0.0
H287 H 0.62368 0.30847 0.9164 0.0
C288 C 0.3197 0.76268 0.09576 0.0
C289 C 0.33691 0.78325 0.1106 0.0
C290 C 0.31643 0.73939 0.1015 0.0
C291 C 0.33768 0.70538 0.14716 0.0
H292 H 0.34143 0.67681 0.07818 0.0
C293 C 0.38157 0.64388 0.137 0.0
C294 C 0.36896 0.62252 0.12097 0.0
C295 C 0.37394 0.66134 0.1375 0.0
C296 C 0.34009 0.68432 0.09765 0.0
H297 H 0.36279 0.79566 0.1442 0.0
H298 H 0.35733 0.75534 0.15425 0.0
H299 H 0.33133 0.70939 0.07821 0.0
H300 H 0.33875 0.60303 0.09243 0.0
H301 H 0.32574 0.63365 0.093 0.0
H302 H 0.34765 0.68087 0.16634 0.0
C303 C 0.34587 0.75671 0.13857 0.0
C304 C 0.33407 0.70292 0.09774 0.0
C305 C 0.34891 0.77989 0.13299 0.0
C306 C 0.34893 0.61931 0.10495 0.0
C307 C 0.34146 0.63685 0.10526 0.0
C308 C 0.34393 0.68688 0.14703 0.0
C309 C 0.33074 0.73646 0.12179 0.0
C310 C 0.33319 0.71404 0.12244 0.0
C311 C 0.35369 0.65792 0.12177 0.0
C312 C 0.3456 0.67646 0.12221 0.0
H313 H 0.31066 0.76498 0.07801 0.0
H314 H 0.30416 0.72409 0.0886 0.0
H315 H 0.33688 0.71326 0.16659 0.0
H316 H 0.39698 0.64686 0.14969 0.0
H317 H 0.38396 0.67759 0.1501 0.0
C318 C 0.73888 0.36128 0.28707 0.0
C319 C 0.74468 0.34303 0.2803 0.0
C320 C 0.71447 0.35604 0.28716 0.0
C321 C 0.65291 0.31244 0.25936 0.0
H322 H 0.63288 0.34626 0.31058 0.0
C323 C 0.56819 0.33373 0.28367 0.0
C324 C 0.56532 0.33963 0.25671 0.0
C325 C 0.5855 0.32643 0.28955 0.0
C326 C 0.63786 0.33617 0.29647 0.0
H327 H 0.72923 0.3048 0.26854 0.0
H328 H 0.68655 0.29554 0.26902 0.0
H329 H 0.67283 0.34934 0.31578 0.0
H330 H 0.57659 0.34083 0.21459 0.0
H331 H 0.60632 0.32801 0.22456 0.0
H332 H 0.61794 0.29935 0.24001 0.0
C333 C 0.70094 0.31405 0.27389 0.0
C334 C 0.66102 0.33831 0.29916 0.0
C335 C 0.72543 0.31935 0.27365 0.0
C336 C 0.57834 0.33612 0.23553 0.0
C337 C 0.59539 0.32871 0.2413 0.0
C338 C 0.62967 0.31017 0.25678 0.0
C339 C 0.69513 0.33234 0.28068 0.0
C340 C 0.66922 0.3272 0.28007 0.0
C341 C 0.60005 0.32485 0.26851 0.0
C342 C 0.62218 0.32273 0.2747 0.0
H343 H 0.75323 0.37975 0.2922 0.0
H344 H 0.71084 0.37077 0.29187 0.0
H345 H 0.65851 0.30359 0.24426 0.0
H346 H 0.55859 0.33667 0.30036 0.0
H347 H 0.58841 0.32329 0.3107 0.0
C348 C 0.15726 0.65649 0.66851 0.0
C349 C 0.15244 0.63861 0.68867 0.0
C350 C 0.15264 0.64991 0.64081 0.0
C351 C 0.11961 0.59616 0.59415 0.0
H352 H 0.17093 0.63699 0.54253 0.0
C353 C 0.13131 0.56028 0.49003 0.0
C354 C 0.13928 0.57614 0.46725 0.0
C355 C 0.12968 0.56883 0.51591 0.0
C356 C 0.15619 0.62559 0.55653 0.0
H357 H 0.13826 0.59965 0.6955 0.0
H358 H 0.13043 0.58826 0.64741 0.0
H359 H 0.17394 0.65029 0.58998 0.0
H360 H 0.15103 0.61332 0.45375 0.0
H361 H 0.14811 0.62828 0.49909 0.0
H362 H 0.10221 0.57115 0.56084 0.0
C363 C 0.13753 0.60734 0.65293 0.0
C364 C 0.15792 0.63322 0.58379 0.0
C365 C 0.14218 0.61392 0.68056 0.0
C366 C 0.14482 0.60061 0.47085 0.0
C367 C 0.14331 0.60923 0.49686 0.0
C368 C 0.1179 0.58852 0.56692 0.0
C369 C 0.14302 0.62529 0.63263 0.0
C370 C 0.13989 0.61837 0.60307 0.0
C371 C 0.13604 0.5935 0.51977 0.0
C372 C 0.13642 0.60291 0.5479 0.0
H373 H 0.16511 0.67568 0.67402 0.0
H374 H 0.15679 0.66415 0.62576 0.0
H375 H 0.10515 0.58449 0.60831 0.0
H376 H 0.12688 0.54132 0.48804 0.0
H377 H 0.1243 0.55627 0.53311 0.0
C378 C 0.57519 0.13458 0.65376 0.0
C379 C 0.59778 0.13557 0.64913 0.0
C380 C 0.5678 0.13622 0.68034 0.0
C381 C 0.57909 0.13069 0.7539 0.0
H382 H 0.55372 0.17512 0.7642 0.0
C383 C 0.56914 0.16394 0.86127 0.0
C384 C 0.54912 0.16761 0.86605 0.0
C385 C 0.57373 0.15821 0.83502 0.0
C386 C 0.56038 0.16232 0.76172 0.0
H387 H 0.62988 0.13819 0.66908 0.0
H388 H 0.61695 0.141 0.71545 0.0
H389 H 0.56375 0.16779 0.71829 0.0
H390 H 0.51789 0.16753 0.84697 0.0
H391 H 0.52559 0.15709 0.80135 0.0
H392 H 0.57575 0.12524 0.79736 0.0
C393 C 0.60491 0.13887 0.69849 0.0
C394 C 0.56618 0.15815 0.73533 0.0
C395 C 0.61237 0.13735 0.67187 0.0
C396 C 0.53355 0.16497 0.84401 0.0
C397 C 0.53808 0.15913 0.81777 0.0
C398 C 0.57318 0.13477 0.78032 0.0
C399 C 0.58274 0.13877 0.70301 0.0
C400 C 0.57573 0.14238 0.73108 0.0
C401 C 0.55837 0.15589 0.81284 0.0
C402 C 0.56387 0.15077 0.78462 0.0
H403 H 0.56344 0.13317 0.63677 0.0
H404 H 0.55045 0.13571 0.68312 0.0
H405 H 0.58614 0.11821 0.75132 0.0
H406 H 0.58158 0.16591 0.87772 0.0
H407 H 0.58972 0.15621 0.83201 0.0
C408 C 0.4122 0.57964 0.03694 0.0
C409 C 0.38912 0.55893 0.04249 0.0
C410 C 0.4217 0.58457 0.01033 0.0
C411 C 0.40229 0.57025 0.93767 0.0
H412 H 0.47243 0.60021 0.92467 0.0
C413 C 0.44242 0.58656 0.82845 0.0
C414 C 0.46267 0.61001 0.82302 0.0
C415 C 0.4344 0.57916 0.85531 0.0
C416 C 0.45281 0.59198 0.928 0.0
H417 H 0.35822 0.52678 0.0244 0.0
H418 H 0.37502 0.53503 0.97804 0.0
H419 H 0.45645 0.58888 0.97121 0.0
H420 H 0.49086 0.64372 0.8418 0.0
H421 H 0.47691 0.63067 0.88879 0.0
H422 H 0.39869 0.57326 0.89442 0.0
C423 C 0.38558 0.54781 0.99419 0.0
C424 C 0.44362 0.58552 0.9547 0.0
C425 C 0.37598 0.54297 0.02083 0.0
C426 C 0.47522 0.62554 0.84524 0.0
C427 C 0.46728 0.61804 0.87217 0.0
C428 C 0.41146 0.57653 0.91099 0.0
C429 C 0.40848 0.56882 0.98852 0.0
C430 C 0.41824 0.57472 0.95994 0.0
C431 C 0.4465 0.59492 0.87747 0.0
C432 C 0.43684 0.58761 0.90584 0.0
H433 H 0.4228 0.59242 0.05309 0.0
H434 H 0.43918 0.60112 0.00679 0.0
H435 H 0.38272 0.56243 0.94087 0.0
H436 H 0.43232 0.57407 0.81189 0.0
H437 H 0.41856 0.5611 0.85872 0.0
C438 C 0.83373 0.38411 0.19024 0.0
C439 C 0.82644 0.35959 0.19679 0.0
C440 C 0.83894 0.39243 0.16314 0.0
C441 C 0.82627 0.37054 0.09162 0.0
H442 H 0.88039 0.43583 0.0754 0.0
C443 C 0.84745 0.40829 0.98065 0.0
C444 C 0.85195 0.43246 0.97738 0.0
C445 C 0.84721 0.39895 0.00683 0.0
C446 C 0.86512 0.4176 0.07957 0.0
H447 H 0.8191 0.32462 0.17985 0.0
H448 H 0.82822 0.33917 0.13256 0.0
H449 H 0.87403 0.42034 0.12227 0.0
H450 H 0.86074 0.46603 0.99909 0.0
H451 H 0.8602 0.44982 0.0444 0.0
H452 H 0.81702 0.368 0.04905 0.0
C453 C 0.82973 0.35192 0.14841 0.0
C454 C 0.86145 0.40872 0.10647 0.0
C455 C 0.82462 0.34361 0.17555 0.0
C456 C 0.85722 0.44735 1.00077 0.0
C457 C 0.85704 0.43806 0.02685 0.0
C458 C 0.8299 0.37945 0.06472 0.0
C459 C 0.83692 0.37643 0.14185 0.0
C460 C 0.84177 0.38522 0.11292 0.0
C461 C 0.85158 0.4136 0.03031 0.0
C462 C 0.84915 0.40324 0.0584 0.0
H463 H 0.83531 0.39693 0.20605 0.0
H464 H 0.84409 0.41133 0.1588 0.0
H465 H 0.81078 0.35247 0.09589 0.0
H466 H 0.8433 0.39631 0.96308 0.0
H467 H 0.84327 0.38014 0.00871 0.0
C468 C 0.42864 0.86498 0.15124 0.0
C469 C 0.43333 0.8549 0.12786 0.0
C470 C 0.43758 0.86338 0.17688 0.0
C471 C 0.45683 0.82495 0.21476 0.0
H472 H 0.47134 0.87348 0.27161 0.0
C473 C 0.48093 0.81328 0.3269 0.0
C474 C 0.46806 0.81804 0.34734 0.0
C475 C 0.4799 0.81936 0.29949 0.0
C476 C 0.46727 0.85973 0.25596 0.0
H477 H 0.45233 0.83641 0.11293 0.0
H478 H 0.46849 0.83404 0.15785 0.0
H479 H 0.46601 0.88274 0.22442 0.0
H480 H 0.44422 0.83315 0.35496 0.0
H481 H 0.44267 0.84396 0.30723 0.0
H482 H 0.45808 0.80197 0.24653 0.0
C483 C 0.45744 0.8428 0.15632 0.0
C484 C 0.46418 0.865 0.22889 0.0
C485 C 0.44844 0.84441 0.13051 0.0
C486 C 0.45432 0.8292 0.33976 0.0
C487 C 0.45356 0.83555 0.31243 0.0
C488 C 0.46017 0.81979 0.24184 0.0
C489 C 0.45159 0.85173 0.17996 0.0
C490 C 0.45831 0.84746 0.208 0.0
C491 C 0.46628 0.83063 0.29196 0.0
C492 C 0.46487 0.8369 0.26284 0.0
H493 H 0.41709 0.87323 0.15 0.0
H494 H 0.43236 0.87021 0.1945 0.0
H495 H 0.45202 0.81084 0.19939 0.0
H496 H 0.49166 0.80468 0.33203 0.0
H497 H 0.48999 0.81546 0.28422 0.0
C498 C 0.61108 0.45255 0.30089 0.0
C499 C 0.58582 0.43763 0.29543 0.0
C500 C 0.61926 0.46108 0.32762 0.0
C501 C 0.59841 0.44291 0.39869 0.0
H502 H 0.65139 0.50759 0.41902 0.0
C503 C 0.61935 0.46934 0.51176 0.0
C504 C 0.64416 0.48173 0.51983 0.0
C505 C 0.61296 0.46694 0.48404 0.0
C506 C 0.63668 0.48938 0.41363 0.0
H507 H 0.54932 0.42163 0.31319 0.0
H508 H 0.56346 0.43668 0.35919 0.0
H509 H 0.63943 0.49827 0.37074 0.0
H510 H 0.68173 0.50229 0.505 0.0
H511 H 0.67056 0.49776 0.45656 0.0
H512 H 0.59573 0.43369 0.44112 0.0
C513 C 0.57704 0.44127 0.34321 0.0
C514 C 0.62985 0.48406 0.38598 0.0
C515 C 0.56894 0.43273 0.31675 0.0
C516 C 0.66242 0.49263 0.49951 0.0
C517 C 0.65602 0.49011 0.4717 0.0
C518 C 0.60523 0.44816 0.42613 0.0
C519 C 0.60228 0.45484 0.34922 0.0
C520 C 0.61043 0.46082 0.37827 0.0
C521 C 0.63121 0.47669 0.46359 0.0
C522 C 0.62428 0.47152 0.43408 0.0
H523 H 0.62452 0.4566 0.28489 0.0
H524 H 0.63884 0.47152 0.33161 0.0
H525 H 0.58379 0.42461 0.39341 0.0
H526 H 0.6048 0.46092 0.52685 0.0
H527 H 0.59365 0.45701 0.47861 0.0
C528 C 0.89589 0.41314 0.31433 0.0
C529 C 0.88301 0.3881 0.30718 0.0
C530 C 0.92043 0.42439 0.3227 0.0
C531 C 0.96632 0.41241 0.35393 0.0
H532 H 0.01292 0.47593 0.32324 0.0
C533 C 0.07037 0.46455 0.38294 0.0
C534 C 0.08186 0.49031 0.38492 0.0
C535 C 0.04625 0.45078 0.37291 0.0
C536 C 1.00013 0.45836 0.33233 0.0
H537 H 0.8858 0.35516 0.30348 0.0
H538 H 0.92876 0.37487 0.31859 0.0
H539 H 0.9707 0.45443 0.30669 0.0
H540 H 0.07668 0.52166 0.37893 0.0
H541 H 0.03476 0.49782 0.36241 0.0
H542 H 0.99556 0.41665 0.38018 0.0
C543 C 0.91976 0.38573 0.31753 0.0
C544 C 0.97594 0.44599 0.32271 0.0
C545 C 0.89524 0.37451 0.30875 0.0
C546 C 0.06853 0.50188 0.37736 0.0
C547 C 0.04447 0.48818 0.36765 0.0
C548 C 0.99052 0.42493 0.36381 0.0
C549 C 0.93263 0.41082 0.32447 0.0
C550 C 0.95869 0.42304 0.33361 0.0
C551 C 0.03308 0.46248 0.36486 0.0
C552 C 0.00767 0.44826 0.35341 0.0
H553 H 0.88704 0.42415 0.31335 0.0
H554 H 0.92979 0.4437 0.32818 0.0
H555 H 0.95335 0.39479 0.36282 0.0
H556 H 0.08018 0.4551 0.38853 0.0
H557 H 0.03816 0.43106 0.3709 0.0
C558 C 0.47571 0.88006 0.47793 0.0
C559 C 0.48769 0.8722 0.45972 0.0
C560 C 0.48756 0.9041 0.48786 0.0
C561 C 0.50945 0.95867 0.49266 0.0
H562 H 0.57912 0.99471 0.50949 0.0
C563 C 0.55798 0.06163 0.51726 0.0
C564 C 0.57629 0.07103 0.53758 0.0
C565 C 0.54842 0.03766 0.50763 0.0
C566 C 0.55958 0.98482 0.50516 0.0
H567 H 0.52173 0.88342 0.43789 0.0
H568 H 0.5423 0.92589 0.45457 0.0
H569 H 0.56019 0.9522 0.49361 0.0
H570 H 0.59908 0.06259 0.5636 0.0
H571 H 0.58171 0.02021 0.54741 0.0
H572 H 0.50845 0.99068 0.50515 0.0
C573 C 0.52383 0.91323 0.46159 0.0
C574 C 0.54879 0.96053 0.49566 0.0
C575 C 0.512 0.88894 0.45188 0.0
C576 C 0.58495 0.05586 0.54795 0.0
C577 C 0.57512 0.03164 0.53851 0.0
C578 C 0.52013 0.98274 0.50236 0.0
C579 C 0.51165 0.92116 0.47957 0.0
C580 C 0.52354 0.94713 0.48932 0.0
C581 C 0.55659 0.02219 0.51831 0.0
C582 C 0.54537 0.99625 0.5086 0.0
H583 H 0.45711 0.86755 0.48476 0.0
H584 H 0.47777 0.90924 0.50222 0.0
H585 H 0.49006 0.94918 0.48758 0.0
H586 H 0.55114 0.07291 0.50849 0.0
H587 H 0.53467 0.03134 0.49158 0.0
C588 C 0.53086 0.6011 0.72157 0.0
C589 C 0.50596 0.58863 0.71373 0.0
C590 C 0.54659 0.59254 0.71316 0.0
C591 C 0.5784 0.57694 0.68043 0.0
H592 H 0.55051 0.50619 0.67921 0.0
C593 C 0.62506 0.52696 0.62832 0.0
C594 C 0.62044 0.50464 0.64008 0.0
C595 C 0.61387 0.53967 0.63913 0.0
C596 C 0.5588 0.52601 0.67975 0.0
H597 H 0.47827 0.55781 0.69027 0.0
H598 H 0.50557 0.54326 0.67535 0.0
H599 H 0.52566 0.52329 0.69479 0.0
H600 H 0.60249 0.4792 0.6736 0.0
H601 H 0.58399 0.50168 0.69305 0.0
H602 H 0.61184 0.57946 0.66585 0.0
C603 C 0.51292 0.55928 0.68852 0.0
C604 C 0.54436 0.53583 0.68831 0.0
C605 C 0.49725 0.5677 0.69701 0.0
C606 C 0.60598 0.49616 0.66384 0.0
C607 C 0.59525 0.50898 0.67487 0.0
C608 C 0.59299 0.56705 0.67194 0.0
C609 C 0.53772 0.57139 0.69671 0.0
C610 C 0.55383 0.56138 0.68853 0.0
C611 C 0.59819 0.53035 0.66207 0.0
C612 C 0.58333 0.54143 0.67149 0.0
H613 H 0.53816 0.61733 0.73438 0.0
H614 H 0.56554 0.60219 0.72 0.0
H615 H 0.58621 0.59671 0.68019 0.0
H616 H 0.63613 0.53384 0.60995 0.0
H617 H 0.61651 0.55606 0.62873 0.0
C618 C 0.08621 0.59004 0.80976 0.0
C619 C 0.10189 0.61512 0.80402 0.0
C620 C 0.06237 0.58154 0.81917 0.0
C621 C 0.02288 0.59775 0.85662 0.0
H622 H 0.97094 0.53935 0.82156 0.0
C623 C 0.92012 0.54595 0.89322 0.0
C624 C 0.90889 0.52013 0.89324 0.0
C625 C 0.94353 0.56047 0.88161 0.0
C626 C 0.98522 0.55559 0.83169 0.0
H627 H 0.10489 0.65105 0.80409 0.0
H628 H 0.06287 0.63603 0.82126 0.0
H629 H 0.01214 0.55977 0.80209 0.0
H630 H 0.91393 0.48946 0.88217 0.0
H631 H 0.95444 0.51455 0.86253 0.0
H632 H 0.996 0.5929 0.8869 0.0
C633 C 0.06926 0.62308 0.81815 0.0
C634 C 0.00878 0.56734 0.82044 0.0
C635 C 0.09319 0.63161 0.80825 0.0
C636 C 0.92184 0.50925 0.88224 0.0
C637 C 0.94507 0.52367 0.87076 0.0
C638 C 0.9992 0.58584 0.86806 0.0
C639 C 0.05358 0.59789 0.82339 0.0
C640 C 0.02801 0.5881 0.83319 0.0
C641 C 0.95604 0.5494 0.86979 0.0
C642 C 0.98032 0.56417 0.85614 0.0
H643 H 0.09224 0.57679 0.80672 0.0
H644 H 0.05079 0.56208 0.82337 0.0
H645 H 0.03744 0.61372 0.86687 0.0
H646 H 0.91062 0.55489 0.90154 0.0
H647 H 0.95153 0.58027 0.88121 0.0
C648 C 0.49105 0.10384 0.97264 0.0
C649 C 0.51543 0.11875 0.98164 0.0
C650 C 0.47689 0.07958 0.98202 0.0
C651 C 0.4837 0.02944 0.01333 0.0
H652 H 0.41356 0.99942 0.02618 0.0
C653 C 0.42391 0.92544 0.03066 0.0
C654 C 0.40531 0.91698 0.05064 0.0
C655 C 0.43623 0.95004 0.02247 0.0
C656 C 0.43317 0.00758 0.02293 0.0
H657 H 0.54375 0.12005 0.00823 0.0
H658 H 0.519 0.07813 0.02497 0.0
H659 H 0.43724 0.04262 0.01264 0.0
H660 H 0.38475 0.92776 0.0773 0.0
H661 H 0.40667 0.97103 0.06332 0.0
H662 H 0.47989 0.99477 0.02426 0.0
C663 C 0.51094 0.08488 0.01015 0.0
C664 C 0.44671 0.03229 0.01482 0.0
C665 C 0.52512 0.10902 1.00065 0.0
C666 C 0.39898 0.93369 0.06184 0.0
C667 C 0.41148 0.95846 0.05374 0.0
C668 C 0.47023 0.00485 0.02152 0.0
C669 C 0.48672 0.0697 1.00074 0.0
C670 C 0.47216 0.04353 0.00983 0.0
C671 C 0.43049 0.967 0.03416 0.0
C672 C 0.44475 0.9935 0.02623 0.0
H673 H 0.48303 0.11074 0.95797 0.0
H674 H 0.45843 0.0684 0.97406 0.0
H675 H 0.50316 0.03728 0.00935 0.0
H676 H 0.42909 0.91305 0.02132 0.0
H677 H 0.4503 0.95574 0.00686 0.0
C678 C 0.3933 0.49965 0.15638 0.0
C679 C 0.40779 0.52548 0.15668 0.0
C680 C 0.4031 0.48503 0.16502 0.0
C681 C 0.46172 0.48622 0.17126 0.0
H682 H 0.42806 0.43224 0.22255 0.0
C683 C 0.51163 0.43989 0.2184 0.0
C684 C 0.49876 0.41431 0.22255 0.0
C685 C 0.49925 0.45231 0.21119 0.0
C686 C 0.43755 0.447 0.2079 0.0
H687 H 0.44388 0.55615 0.1665 0.0
H688 H 0.46101 0.53065 0.18112 0.0
H689 H 0.40868 0.45591 0.20809 0.0
H690 H 0.46259 0.38174 0.22301 0.0
H691 H 0.4408 0.40341 0.20958 0.0
H692 H 0.4903 0.47726 0.17037 0.0
C693 C 0.44207 0.52173 0.17425 0.0
C694 C 0.42647 0.4606 0.1997 0.0
C695 C 0.43221 0.53633 0.16599 0.0
C696 C 0.473 0.40147 0.21998 0.0
C697 C 0.46054 0.41393 0.21236 0.0
C698 C 0.47263 0.47251 0.17915 0.0
C699 C 0.42768 0.49593 0.17374 0.0
C700 C 0.43865 0.4806 0.18162 0.0
C701 C 0.4736 0.4395 0.20745 0.0
C702 C 0.46095 0.45298 0.19797 0.0
H703 H 0.37439 0.4907 0.14941 0.0
H704 H 0.39162 0.46519 0.16428 0.0
H705 H 0.47133 0.5012 0.15687 0.0
H706 H 0.53145 0.45043 0.22064 0.0
H707 H 0.50991 0.47206 0.20848 0.0
C708 C 0.17476 0.52866 0.31379 0.0
C709 C 0.18133 0.55144 0.32592 0.0
C710 C 0.18902 0.52711 0.29276 0.0
C711 C 0.25199 0.55428 0.27404 0.0
H712 H 0.23043 0.52371 0.20274 0.0
C713 C 0.3211 0.55655 0.19559 0.0
C714 C 0.31371 0.53755 0.17627 0.0
C715 C 0.30411 0.55725 0.21338 0.0
C716 C 0.23669 0.53188 0.22276 0.0
H717 H 0.20737 0.59057 0.32493 0.0
H718 H 0.23281 0.58775 0.28856 0.0
H719 H 0.20148 0.52774 0.23278 0.0
H720 H 0.28269 0.50381 0.16119 0.0
H721 H 0.25307 0.50424 0.19336 0.0
H722 H 0.28665 0.55737 0.26516 0.0
C723 C 0.21637 0.57121 0.29512 0.0
C724 C 0.22014 0.53443 0.23978 0.0
C725 C 0.20174 0.57283 0.31572 0.0
C726 C 0.28897 0.5187 0.17586 0.0
C727 C 0.27194 0.51914 0.19412 0.0
C728 C 0.26834 0.55125 0.25738 0.0
C729 C 0.21042 0.54825 0.28395 0.0
C730 C 0.22779 0.54594 0.2654 0.0
C731 C 0.27922 0.53867 0.21286 0.0
C732 C 0.26109 0.54032 0.2313 0.0
H733 H 0.15914 0.51188 0.32137 0.0
H734 H 0.18415 0.50921 0.28455 0.0
H735 H 0.25813 0.56271 0.294 0.0
H736 H 0.33993 0.57161 0.19628 0.0
H737 H 0.31051 0.57293 0.2269 0.0
C738 C 0.78305 0.3009 0.36281 0.0
C739 C 0.78811 0.29259 0.33825 0.0
C740 C 0.7719 0.28477 0.38477 0.0
C741 C 0.75674 0.24939 0.43284 0.0
H742 H 0.70197 0.18511 0.41439 0.0
C743 C 0.69635 0.17992 0.51651 0.0
C744 C 0.67086 0.16892 0.51214 0.0
C745 C 0.71295 0.19283 0.49535 0.0
C746 C 0.71723 0.20298 0.41991 0.0
H747 H 0.78633 0.26099 0.31801 0.0
H748 H 0.76716 0.23294 0.35646 0.0
H749 H 0.72726 0.21272 0.37799 0.0
H750 H 0.64285 0.16202 0.48178 0.0
H751 H 0.67163 0.18449 0.4452 0.0
H752 H 0.74594 0.24004 0.47472 0.0
C753 C 0.77143 0.25185 0.35855 0.0
C754 C 0.73192 0.21873 0.39904 0.0
C755 C 0.78255 0.26798 0.33655 0.0
C756 C 0.66235 0.17027 0.4859 0.0
C757 C 0.67889 0.18306 0.46481 0.0
C758 C 0.74201 0.23362 0.45374 0.0
C759 C 0.76557 0.25994 0.38277 0.0
C760 C 0.75158 0.24232 0.40519 0.0
C761 C 0.7044 0.19487 0.46937 0.0
C762 C 0.72177 0.21042 0.44748 0.0
H763 H 0.78705 0.31972 0.36484 0.0
H764 H 0.76739 0.29159 0.40295 0.0
H765 H 0.77193 0.2673 0.43834 0.0
H766 H 0.70351 0.17923 0.53647 0.0
H767 H 0.73249 0.20148 0.49945 0.0
C768 C 0.50977 0.7027 0.68355 0.0
C769 C 0.49547 0.67695 0.68142 0.0
C770 C 0.51341 0.71765 0.66068 0.0
C771 C 0.50815 0.7162 0.58467 0.0
H772 H 0.49849 0.77199 0.59494 0.0
C773 C 0.50923 0.77515 0.49319 0.0
C774 C 0.49015 0.78071 0.49285 0.0
C775 C 0.514 0.76557 0.51682 0.0
C776 C 0.50122 0.75647 0.59172 0.0
H777 H 0.47443 0.64675 0.65334 0.0
H778 H 0.48058 0.67268 0.6138 0.0
H779 H 0.49939 0.74891 0.6347 0.0
H780 H 0.46159 0.78121 0.51738 0.0
H781 H 0.46967 0.76427 0.55828 0.0
H782 H 0.50884 0.72301 0.54165 0.0
C783 C 0.48923 0.6814 0.63298 0.0
C784 C 0.50204 0.74341 0.61455 0.0
C785 C 0.48555 0.66651 0.65577 0.0
C786 C 0.47643 0.77714 0.51689 0.0
C787 C 0.48119 0.76758 0.54047 0.0
C788 C 0.50732 0.72923 0.56186 0.0
C789 C 0.50293 0.70716 0.63519 0.0
C790 C 0.50498 0.72279 0.61125 0.0
C791 C 0.49981 0.76136 0.54063 0.0
C792 C 0.50334 0.74923 0.56506 0.0
H793 H 0.5177 0.71133 0.703 0.0
H794 H 0.52426 0.73744 0.66301 0.0
H795 H 0.51078 0.70061 0.58143 0.0
H796 H 0.52023 0.77779 0.47507 0.0
H797 H 0.52869 0.76129 0.51635 0.0
C798 C 0.8185 0.4798 0.8225 0.0
C799 C 0.81247 0.45696 0.83409 0.0
C800 C 0.80647 0.48102 0.79897 0.0
C801 C 0.74743 0.44944 0.76607 0.0
H802 H 0.78044 0.48843 0.70185 0.0
C803 C 0.69214 0.45325 0.67368 0.0
C804 C 0.70184 0.47498 0.65816 0.0
C805 C 0.7062 0.45047 0.69405 0.0
C806 C 0.77087 0.47778 0.71978 0.0
H807 H 0.78948 0.41746 0.82988 0.0
H808 H 0.76781 0.41964 0.78901 0.0
H809 H 0.80455 0.48436 0.73861 0.0
H810 H 0.73378 0.51104 0.65214 0.0
H811 H 0.75795 0.50681 0.68868 0.0
H812 H 0.71393 0.44382 0.74837 0.0
C813 C 0.78214 0.43654 0.79802 0.0
C814 C 0.78473 0.47528 0.74069 0.0
C815 C 0.79462 0.43529 0.82124 0.0
C816 C 0.72584 0.49404 0.66372 0.0
C817 C 0.73977 0.49147 0.68454 0.0
C818 C 0.73361 0.45234 0.74547 0.0
C819 C 0.78776 0.45944 0.78691 0.0
C820 C 0.77312 0.46105 0.764 0.0
C821 C 0.73021 0.46955 0.69992 0.0
C822 C 0.74509 0.46654 0.72195 0.0
H823 H 0.8322 0.49679 0.83199 0.0
H824 H 0.81104 0.4989 0.7909 0.0
H825 H 0.73808 0.43872 0.78407 0.0
H826 H 0.67382 0.43806 0.66963 0.0
H827 H 0.69827 0.43309 0.70484 0.0
C828 C 0.32771 0.80888 0.99494 0.0
C829 C 0.3518 0.81275 0.99567 0.0
C830 C 0.31156 0.79529 0.97388 0.0
C831 C 0.30781 0.77321 0.90345 0.0
H832 H 0.24151 0.7241 0.92467 0.0
C833 C 0.22871 0.72349 0.82494 0.0
C834 C 0.2138 0.69786 0.82793 0.0
C835 C 0.2457 0.73756 0.84526 0.0
C836 C 0.25997 0.73764 0.91841 0.0
H837 H 0.37796 0.80586 0.97418 0.0
H838 H 0.34964 0.78221 0.93699 0.0
H839 H 0.27152 0.74859 0.95981 0.0
H840 H 0.20475 0.66703 0.85496 0.0
H841 H 0.23416 0.69165 0.89056 0.0
H842 H 0.29616 0.76222 0.86198 0.0
C843 C 0.34337 0.78975 0.95294 0.0
C844 C 0.27711 0.75182 0.93851 0.0
C845 C 0.35956 0.80326 0.97424 0.0
C846 C 0.21588 0.68673 0.85202 0.0
C847 C 0.23271 0.70084 0.87245 0.0
C848 C 0.29055 0.75918 0.88327 0.0
C849 C 0.31905 0.78528 0.95282 0.0
C850 C 0.3012 0.76983 0.93128 0.0
C851 C 0.24803 0.72638 0.86916 0.0
C852 C 0.26642 0.74127 0.89054 0.0
H853 H 0.32104 0.81594 0.011 0.0
H854 H 0.2931 0.79253 0.97414 0.0
H855 H 0.32618 0.78701 0.89723 0.0
H856 H 0.22766 0.73267 0.80662 0.0
H857 H 0.25701 0.75724 0.84229 0.0
C858 C 0.56901 0.37583 0.13489 0.0
C859 C 0.54944 0.36984 0.15303 0.0
C860 C 0.56589 0.36052 0.11249 0.0
C861 C 0.5183 0.30758 0.07151 0.0
H862 H 0.57045 0.29233 0.06182 0.0
C863 C 0.51524 0.23884 0.98927 0.0
C864 C 0.52569 0.22437 0.9965 0.0
C865 C 0.51705 0.25725 0.00697 0.0
C866 C 0.5556 0.29622 0.06439 0.0
H867 H 0.51087 0.34395 0.16087 0.0
H868 H 0.50559 0.31742 0.12238 0.0
H869 H 0.57624 0.32467 0.09348 0.0
H870 H 0.54482 0.21685 0.02873 0.0
H871 H 0.54732 0.24829 0.05975 0.0
H872 H 0.49731 0.27839 0.04318 0.0
C873 C 0.5233 0.33389 0.12511 0.0
C874 C 0.55911 0.31511 0.08223 0.0
C875 C 0.52641 0.34909 0.1474 0.0
C876 C 0.53673 0.22778 0.02241 0.0
C877 C 0.53842 0.24603 0.0401 0.0
C878 C 0.51477 0.28861 0.05369 0.0
C879 C 0.54313 0.339 0.10775 0.0
C880 C 0.54037 0.32082 0.08637 0.0
C881 C 0.52926 0.26151 0.0323 0.0
C882 C 0.53323 0.2824 0.05026 0.0
H883 H 0.58698 0.39167 0.13866 0.0
H884 H 0.58148 0.36521 0.09928 0.0
H885 H 0.50357 0.31166 0.07392 0.0
H886 H 0.50676 0.23681 0.96938 0.0
H887 H 0.50982 0.26883 1.00025 0.0
loop_
_geom_bond_atom_site_label_1
_geom_bond_atom_site_label_2
_geom_bond_distance
_geom_bond_site_symmetry_2
_ccdc_geom_bond_type
C0 O2 1.247 . S
C0 O4 1.258 . S
C1 O8 1.247 . S
C1 O9 1.258 . S
O2 C0 1.247 . S
O2 Zn3 2.028 . S
Zn3 O2 2.028 . S
Zn3 O7 2.035 . S
Zn3 O9 2.035 . S
Zn3 O10 2.028 . S
O4 C0 1.258 . S
O4 Zn5 2.035 . S
Zn5 O4 2.035 . S
Zn5 O6 2.028 . S
Zn5 O8 2.028 . S
Zn5 O11 2.035 . S
O6 Zn5 2.028 . S
O6 C12 1.247 . S
O7 Zn3 2.035 . S
O7 C12 1.258 . S
O8 C1 1.247 . S
O8 Zn5 2.028 . S
O9 C1 1.258 . S
O9 Zn3 2.035 . S
O10 Zn3 2.028 . S
O10 C13 1.247 . S
O11 Zn5 2.035 . S
O11 C13 1.258 . S
C12 O6 1.247 . S
C12 O7 1.258 . S
C13 O10 1.247 . S
C13 O11 1.258 . S
C14 O16 1.247 . S
C14 O18 1.258 . S
C15 O22 1.247 . S
C15 O23 1.258 . S
O16 C14 1.247 . S
O16 Zn17 2.028 . S
Zn17 O16 2.028 . S
Zn17 O21 2.035 . S
Zn17 O23 2.035 . S
Zn17 O24 2.028 . S
O18 C14 1.258 . S
O18 Zn19 2.035 . S
Zn19 O18 2.035 . S
Zn19 O20 2.028 . S
Zn19 O22 2.028 . S
Zn19 O25 2.035 . S
O20 Zn19 2.028 . S
O20 C26 1.247 . S
O21 Zn17 2.035 . S
O21 C26 1.258 . S
O22 C15 1.247 . S
O22 Zn19 2.028 . S
O23 C15 1.258 . S
O23 Zn17 2.035 . S
O24 Zn17 2.028 . S
O24 C27 1.247 . S
O25 Zn19 2.035 . S
O25 C27 1.258 . S
C26 O20 1.247 . S
C26 O21 1.258 . S
C27 O24 1.247 . S
C27 O25 1.258 . S
C28 O30 1.247 . S
C28 O32 1.258 . S
C29 O36 1.247 . S
C29 O37 1.258 . S
O30 C28 1.247 . S
O30 Zn31 2.028 . S
Zn31 O30 2.028 . S
Zn31 O35 2.035 . S
Zn31 O37 2.035 . S
Zn31 O38 2.028 . S
O32 C28 1.258 . S
O32 Zn33 2.035 . S
Zn33 O32 2.035 . S
Zn33 O34 2.028 . S
Zn33 O36 2.028 . S
Zn33 O39 2.035 . S
O34 Zn33 2.028 . S
O34 C40 1.247 . S
O35 Zn31 2.035 . S
O35 C40 1.258 . S
O36 C29 1.247 . S
O36 Zn33 2.028 . S
O37 C29 1.258 . S
O37 Zn31 2.035 . S
O38 Zn31 2.028 . S
O38 C41 1.247 . S
O39 Zn33 2.035 . S
O39 C41 1.258 . S
C40 O34 1.247 . S
C40 O35 1.258 . S
C41 O38 1.247 . S
C41 O39 1.258 . S
C42 O44 1.247 . S
C42 O46 1.258 . S
C43 O50 1.247 . S
C43 O51 1.258 . S
O44 C42 1.247 . S
O44 Zn45 2.028 . S
Zn45 O44 2.028 . S
Zn45 O49 2.035 . S
Zn45 O51 2.035 . S
Zn45 O52 2.028 . S
O46 C42 1.258 . S
O46 Zn47 2.035 . S
Zn47 O46 2.035 . S
Zn47 O48 2.028 . S
Zn47 O50 2.028 . S
Zn47 O53 2.035 . S
O48 Zn47 2.028 . S
O48 C54 1.247 . S
O49 Zn45 2.035 . S
O49 C54 1.258 . S
O50 C43 1.247 . S
O50 Zn47 2.028 . S
O51 C43 1.258 . S
O51 Zn45 2.035 . S
O52 Zn45 2.028 . S
O52 C55 1.247 . S
O53 Zn47 2.035 . S
O53 C55 1.258 . S
C54 O48 1.247 . S
C54 O49 1.258 . S
C55 O52 1.247 . S
C55 O53 1.258 . S
C56 O58 1.247 . S
C56 O60 1.258 . S
C57 O64 1.247 . S
C57 O65 1.258 . S
O58 C56 1.247 . S
O58 Zn59 2.028 . S
Zn59 O58 2.028 . S
Zn59 O63 2.035 . S
Zn59 O65 2.035 . S
Zn59 O66 2.028 . S
O60 C56 1.258 . S
O60 Zn61 2.035 . S
Zn61 O60 2.035 . S
Zn61 O62 2.028 . S
Zn61 O64 2.028 . S
Zn61 O67 2.035 . S
O62 Zn61 2.028 . S
O62 C68 1.247 . S
O63 Zn59 2.035 . S
O63 C68 1.258 . S
O64 C57 1.247 . S
O64 Zn61 2.028 . S
O65 C57 1.258 . S
O65 Zn59 2.035 . S
O66 Zn59 2.028 . S
O66 C69 1.247 . S
O67 Zn61 2.035 . S
O67 C69 1.258 . S
C68 O62 1.247 . S
C68 O63 1.258 . S
C69 O66 1.247 . S
C69 O67 1.258 . S
C70 O72 1.247 . S
C70 O74 1.258 . S
C71 O78 1.247 . S
C71 O79 1.258 . S
O72 C70 1.247 . S
O72 Zn73 2.028 . S
Zn73 O72 2.028 . S
Zn73 O77 2.035 . S
Zn73 O79 2.035 . S
Zn73 O80 2.028 . S
O74 C70 1.258 . S
O74 Zn75 2.035 . S
Zn75 O74 2.035 . S
Zn75 O76 2.028 . S
Zn75 O78 2.028 . S
Zn75 O81 2.035 . S
O76 Zn75 2.028 . S
O76 C82 1.247 . S
O77 Zn73 2.035 . S
O77 C82 1.258 . S
O78 C71 1.247 . S
O78 Zn75 2.028 . S
O79 C71 1.258 . S
O79 Zn73 2.035 . S
O80 Zn73 2.028 . S
O80 C83 1.247 . S
O81 Zn75 2.035 . S
O81 C83 1.258 . S
C82 O76 1.247 . S
C82 O77 1.258 . S
C83 O80 1.247 . S
C83 O81 1.258 . S
C84 O86 1.247 . S
C84 O88 1.258 . S
C85 O92 1.247 . S
C85 O93 1.258 . S
O86 C84 1.247 . S
O86 Zn87 2.028 . S
Zn87 O86 2.028 . S
Zn87 O91 2.035 . S
Zn87 O93 2.035 . S
Zn87 O94 2.028 . S
O88 C84 1.258 . S
O88 Zn89 2.035 . S
Zn89 O88 2.035 . S
Zn89 O90 2.028 . S
Zn89 O92 2.028 . S
Zn89 O95 2.035 . S
O90 Zn89 2.028 . S
O90 C96 1.247 . S
O91 Zn87 2.035 . S
O91 C96 1.258 . S
O92 C85 1.247 . S
O92 Zn89 2.028 . S
O93 C85 1.258 . S
O93 Zn87 2.035 . S
O94 Zn87 2.028 . S
O94 C97 1.247 . S
O95 Zn89 2.035 . S
O95 C97 1.258 . S
C96 O90 1.247 . S
C96 O91 1.258 . S
C97 O94 1.247 . S
C97 O95 1.258 . S
C98 O100 1.247 . S
C98 O102 1.258 . S
C99 O106 1.247 . S
C99 O107 1.258 . S
O100 C98 1.247 . S
O100 Zn101 2.028 . S
Zn101 O100 2.028 . S
Zn101 O105 2.035 . S
Zn101 O107 2.035 . S
Zn101 O108 2.028 . S
O102 C98 1.258 . S
O102 Zn103 2.035 . S
Zn103 O102 2.035 . S
Zn103 O104 2.028 . S
Zn103 O106 2.028 . S
Zn103 O109 2.035 . S
O104 Zn103 2.028 . S
O104 C110 1.247 . S
O105 Zn101 2.035 . S
O105 C110 1.258 . S
O106 C99 1.247 . S
O106 Zn103 2.028 . S
O107 C99 1.258 . S
O107 Zn101 2.035 . S
O108 Zn101 2.028 . S
O108 C111 1.247 . S
O109 Zn103 2.035 . S
O109 C111 1.258 . S
C110 O104 1.247 . S
C110 O105 1.258 . S
C111 O108 1.247 . S
C111 O109 1.258 . S
C112 O114 1.247 . S
C112 O116 1.258 . S
C113 O120 1.247 . S
C113 O121 1.258 . S
O114 C112 1.247 . S
O114 Zn115 2.028 . S
Zn115 O114 2.028 . S
Zn115 O119 2.035 . S
Zn115 O121 2.035 . S
Zn115 O122 2.028 . S
O116 C112 1.258 . S
O116 Zn117 2.035 . S
Zn117 O116 2.035 . S
Zn117 O118 2.028 . S
Zn117 O120 2.028 . S
Zn117 O123 2.035 . S
O118 Zn117 2.028 . S
O118 C124 1.247 . S
O119 Zn115 2.035 . S
O119 C124 1.258 . S
O120 C113 1.247 . S
O120 Zn117 2.028 . S
O121 C113 1.258 . S
O121 Zn115 2.035 . S
O122 Zn115 2.028 . S
O122 C125 1.247 . S
O123 Zn117 2.035 . S
O123 C125 1.258 . S
C124 O118 1.247 . S
C124 O119 1.258 . S
C125 O122 1.247 . S
C125 O123 1.258 . S
C126 O128 1.247 . S
C126 O130 1.258 . S
C127 O134 1.247 . S
C127 O135 1.258 . S
O128 C126 1.247 . S
O128 Zn129 2.028 . S
Zn129 O128 2.028 . S
Zn129 O133 2.035 . S
Zn129 O135 2.035 . S
Zn129 O136 2.028 . S
O130 C126 1.258 . S
O130 Zn131 2.035 . S
Zn131 O130 2.035 . S
Zn131 O132 2.028 . S
Zn131 O134 2.028 . S
Zn131 O137 2.035 . S
O132 Zn131 2.028 . S
O132 C138 1.247 . S
O133 Zn129 2.035 . S
O133 C138 1.258 . S
O134 C127 1.247 . S
O134 Zn131 2.028 . S
O135 C127 1.258 . S
O135 Zn129 2.035 . S
O136 Zn129 2.028 . S
O136 C139 1.247 . S
O137 Zn131 2.035 . S
O137 C139 1.258 . S
C138 O132 1.247 . S
C138 O133 1.258 . S
C139 O136 1.247 . S
C139 O137 1.258 . S
C140 O142 1.247 . S
C140 O144 1.258 . S
C141 O148 1.247 . S
C141 O149 1.258 . S
O142 C140 1.247 . S
O142 Zn143 2.028 . S
Zn143 O142 2.028 . S
Zn143 O147 2.035 . S
Zn143 O149 2.035 . S
Zn143 O150 2.028 . S
O144 C140 1.258 . S
O144 Zn145 2.035 . S
Zn145 O144 2.035 . S
Zn145 O146 2.028 . S
Zn145 O148 2.028 . S
Zn145 O151 2.035 . S
O146 Zn145 2.028 . S
O146 C152 1.247 . S
O147 Zn143 2.035 . S
O147 C152 1.258 . S
O148 C141 1.247 . S
O148 Zn145 2.028 . S
O149 C141 1.258 . S
O149 Zn143 2.035 . S
O150 Zn143 2.028 . S
O150 C153 1.247 . S
O151 Zn145 2.035 . S
O151 C153 1.258 . S
C152 O146 1.247 . S
C152 O147 1.258 . S
C153 O150 1.247 . S
C153 O151 1.258 . S
C154 O156 1.247 . S
C154 O158 1.258 . S
C155 O162 1.247 . S
C155 O163 1.258 . S
O156 C154 1.247 . S
O156 Zn157 2.028 . S
Zn157 O156 2.028 . S
Zn157 O161 2.035 . S
Zn157 O163 2.035 . S
Zn157 O164 2.028 . S
O158 C154 1.258 . S
O158 Zn159 2.035 . S
Zn159 O158 2.035 . S
Zn159 O160 2.028 . S
Zn159 O162 2.028 . S
Zn159 O165 2.035 . S
O160 Zn159 2.028 . S
O160 C166 1.247 . S
O161 Zn157 2.035 . S
O161 C166 1.258 . S
O162 C155 1.247 . S
O162 Zn159 2.028 . S
O163 C155 1.258 . S
O163 Zn157 2.035 . S
O164 Zn157 2.028 . S
O164 C167 1.247 . S
O165 Zn159 2.035 . S
O165 C167 1.258 . S
C166 O160 1.247 . S
C166 O161 1.258 . S
C167 O164 1.247 . S
C167 O165 1.258 . S
C168 C169 1.349 . S
C168 C170 1.327 . S
C168 H193 0.950 . S
C169 C168 1.349 . S
C169 C185 1.349 . S
C170 C168 1.327 . S
C170 C189 1.429 . S
C170 H194 0.950 . S
C171 C188 1.574 . S
C171 C190 1.368 . S
C171 H195 0.949 . S
H172 C176 0.949 . S
C173 C174 1.349 . S
C173 C175 1.327 . S
C173 H196 0.950 . S
C174 C173 1.349 . S
C174 C186 1.349 . S
C175 C173 1.327 . S
C175 C191 1.429 . S
C175 H197 0.950 . S
C176 H172 0.949 . S
C176 C184 1.574 . S
C176 C192 1.368 . S
H177 C185 0.950 . S
H178 C183 0.950 . S
H179 C184 0.949 . S
H180 C186 0.950 . S
H181 C187 0.950 . S
H182 C188 0.949 . S
C183 H178 0.950 . S
C183 C185 1.327 . S
C183 C189 1.429 . S
C184 C176 1.574 . S
C184 H179 0.949 . S
C184 C190 1.368 . S
C185 C169 1.349 . S
C185 H177 0.950 . S
C185 C183 1.327 . S
C186 C174 1.349 . S
C186 H180 0.950 . S
C186 C187 1.327 . S
C187 H181 0.950 . S
C187 C186 1.327 . S
C187 C191 1.429 . S
C188 C171 1.574 . S
C188 H182 0.949 . S
C188 C192 1.368 . S
C189 C170 1.429 . S
C189 C183 1.429 . S
C189 C190 1.523 . S
C190 C171 1.368 . S
C190 C184 1.368 . S
C190 C189 1.523 . S
C191 C175 1.429 . S
C191 C187 1.429 . S
C191 C192 1.523 . S
C192 C176 1.368 . S
C192 C188 1.368 . S
C192 C191 1.523 . S
H193 C168 0.950 . S
H194 C170 0.950 . S
H195 C171 0.949 . S
H196 C173 0.950 . S
H197 C175 0.950 . S
C198 C199 1.349 . S
C198 C200 1.327 . S
C198 H223 0.950 . S
C199 C198 1.349 . S
C199 C215 1.349 . S
C200 C198 1.327 . S
C200 C219 1.429 . S
C200 H224 0.950 . S
C201 C218 1.574 . S
C201 C220 1.368 . S
C201 H225 0.949 . S
H202 C206 0.949 . S
C203 C204 1.349 . S
C203 C205 1.327 . S
C203 H226 0.950 . S
C204 C203 1.349 . S
C204 C216 1.349 . S
C205 C203 1.327 . S
C205 C221 1.429 . S
C205 H227 0.950 . S
C206 H202 0.949 . S
C206 C214 1.574 . S
C206 C222 1.368 . S
H207 C215 0.950 . S
H208 C213 0.950 . S
H209 C214 0.949 . S
H210 C216 0.950 . S
H211 C217 0.950 . S
H212 C218 0.949 . S
C213 H208 0.950 . S
C213 C215 1.327 . S
C213 C219 1.429 . S
C214 C206 1.574 . S
C214 H209 0.949 . S
C214 C220 1.368 . S
C215 C199 1.349 . S
C215 H207 0.950 . S
C215 C213 1.327 . S
C216 C204 1.349 . S
C216 H210 0.950 . S
C216 C217 1.327 . S
C217 H211 0.950 . S
C217 C216 1.327 . S
C217 C221 1.429 . S
C218 C201 1.574 . S
C218 H212 0.949 . S
C218 C222 1.368 . S
C219 C200 1.429 . S
C219 C213 1.429 . S
C219 C220 1.523 . S
C220 C201 1.368 . S
C220 C214 1.368 . S
C220 C219 1.523 . S
C221 C205 1.429 . S
C221 C217 1.429 . S
C221 C222 1.523 . S
C222 C206 1.368 . S
C222 C218 1.368 . S
C222 C221 1.523 . S
H223 C198 0.950 . S
H224 C200 0.950 . S
H225 C201 0.949 . S
H226 C203 0.950 . S
H227 C205 0.950 . S
C228 C229 1.349 . S
C228 C230 1.327 . S
C228 H253 0.950 . S
C229 C228 1.349 . S
C229 C245 1.349 . S
C230 C228 1.327 . S
C230 C249 1.429 . S
C230 H254 0.950 . S
C231 C248 1.574 . S
C231 C250 1.368 . S
C231 H255 0.949 . S
H232 C236 0.949 . S
C233 C234 1.349 . S
C233 C235 1.327 . S
C233 H256 0.950 . S
C234 C233 1.349 . S
C234 C246 1.349 . S
C235 C233 1.327 . S
C235 C251 1.429 . S
C235 H257 0.950 . S
C236 H232 0.949 . S
C236 C244 1.574 . S
C236 C252 1.368 . S
H237 C245 0.950 . S
H238 C243 0.950 . S
H239 C244 0.949 . S
H240 C246 0.950 . S
H241 C247 0.950 . S
H242 C248 0.949 . S
C243 H238 0.950 . S
C243 C245 1.327 . S
C243 C249 1.429 . S
C244 C236 1.574 . S
C244 H239 0.949 . S
C244 C250 1.368 . S
C245 C229 1.349 . S
C245 H237 0.950 . S
C245 C243 1.327 . S
C246 C234 1.349 . S
C246 H240 0.950 . S
C246 C247 1.327 . S
C247 H241 0.950 . S
C247 C246 1.327 . S
C247 C251 1.429 . S
C248 C231 1.574 . S
C248 H242 0.949 . S
C248 C252 1.368 . S
C249 C230 1.429 . S
C249 C243 1.429 . S
C249 C250 1.523 . S
C250 C231 1.368 . S
C250 C244 1.368 . S
C250 C249 1.523 . S
C251 C235 1.429 . S
C251 C247 1.429 . S
C251 C252 1.523 . S
C252 C236 1.368 . S
C252 C248 1.368 . S
C252 C251 1.523 . S
H253 C228 0.950 . S
H254 C230 0.950 . S
H255 C231 0.949 . S
H256 C233 0.950 . S
H257 C235 0.950 . S
C258 C259 1.349 . S
C258 C260 1.327 . S
C258 H283 0.950 . S
C259 C258 1.349 . S
C259 C275 1.349 . S
C260 C258 1.327 . S
C260 C279 1.429 . S
C260 H284 0.950 . S
C261 C278 1.574 . S
C261 C280 1.368 . S
C261 H285 0.949 . S
H262 C266 0.949 . S
C263 C264 1.349 . S
C263 C265 1.327 . S
C263 H286 0.950 . S
C264 C263 1.349 . S
C264 C276 1.349 . S
C265 C263 1.327 . S
C265 C281 1.429 . S
C265 H287 0.950 . S
C266 H262 0.949 . S
C266 C274 1.574 . S
C266 C282 1.368 . S
H267 C275 0.950 . S
H268 C273 0.950 . S
H269 C274 0.949 . S
H270 C276 0.950 . S
H271 C277 0.950 . S
H272 C278 0.949 . S
C273 H268 0.950 . S
C273 C275 1.327 . S
C273 C279 1.429 . S
C274 C266 1.574 . S
C274 H269 0.949 . S
C274 C280 1.368 . S
C275 C259 1.349 . S
C275 H267 0.950 . S
C275 C273 1.327 . S
C276 C264 1.349 . S
C276 H270 0.950 . S
C276 C277 1.327 . S
C277 H271 0.950 . S
C277 C276 1.327 . S
C277 C281 1.429 . S
C278 C261 1.574 . S
C278 H272 0.949 . S
C278 C282 1.368 . S
C279 C260 1.429 . S
C279 C273 1.429 . S
C279 C280 1.523 . S
C280 C261 1.368 . S
C280 C274 1.368 . S
C280 C279 1.523 . S
C281 C265 1.429 . S
C281 C277 1.429 . S
C281 C282 1.523 . S
C282 C266 1.368 . S
C282 C278 1.368 . S
C282 C281 1.523 . S
H283 C258 0.950 . S
H284 C260 0.950 . S
H285 C261 0.949 . S
H286 C263 0.950 . S
H287 C265 0.950 . S
C288 C289 1.349 . S
C288 C290 1.327 . S
C288 H313 0.950 . S
C289 C288 1.349 . S
C289 C305 1.349 . S
C290 C288 1.327 . S
C290 C309 1.429 . S
C290 H314 0.950 . S
C291 C308 1.574 . S
C291 C310 1.368 . S
C291 H315 0.949 . S
H292 C296 0.949 . S
C293 C294 1.349 . S
C293 C295 1.327 . S
C293 H316 0.950 . S
C294 C293 1.349 . S
C294 C306 1.349 . S
C295 C293 1.327 . S
C295 C311 1.429 . S
C295 H317 0.950 . S
C296 H292 0.949 . S
C296 C304 1.574 . S
C296 C312 1.368 . S
H297 C305 0.950 . S
H298 C303 0.950 . S
H299 C304 0.949 . S
H300 C306 0.950 . S
H301 C307 0.950 . S
H302 C308 0.949 . S
C303 H298 0.950 . S
C303 C305 1.327 . S
C303 C309 1.429 . S
C304 C296 1.574 . S
C304 H299 0.949 . S
C304 C310 1.368 . S
C305 C289 1.349 . S
C305 H297 0.950 . S
C305 C303 1.327 . S
C306 C294 1.349 . S
C306 H300 0.950 . S
C306 C307 1.327 . S
C307 H301 0.950 . S
C307 C306 1.327 . S
C307 C311 1.429 . S
C308 C291 1.574 . S
C308 H302 0.949 . S
C308 C312 1.368 . S
C309 C290 1.429 . S
C309 C303 1.429 . S
C309 C310 1.523 . S
C310 C291 1.368 . S
C310 C304 1.368 . S
C310 C309 1.523 . S
C311 C295 1.429 . S
C311 C307 1.429 . S
C311 C312 1.523 . S
C312 C296 1.368 . S
C312 C308 1.368 . S
C312 C311 1.523 . S
H313 C288 0.950 . S
H314 C290 0.950 . S
H315 C291 0.949 . S
H316 C293 0.950 . S
H317 C295 0.950 . S
C318 C319 1.349 . S
C318 C320 1.327 . S
C318 H343 0.950 . S
C319 C318 1.349 . S
C319 C335 1.349 . S
C320 C318 1.327 . S
C320 C339 1.429 . S
C320 H344 0.950 . S
C321 C338 1.574 . S
C321 C340 1.368 . S
C321 H345 0.949 . S
H322 C326 0.949 . S
C323 C324 1.349 . S
C323 C325 1.327 . S
C323 H346 0.950 . S
C324 C323 1.349 . S
C324 C336 1.349 . S
C325 C323 1.327 . S
C325 C341 1.429 . S
C325 H347 0.950 . S
C326 H322 0.949 . S
C326 C334 1.574 . S
C326 C342 1.368 . S
H327 C335 0.950 . S
H328 C333 0.950 . S
H329 C334 0.949 . S
H330 C336 0.950 . S
H331 C337 0.950 . S
H332 C338 0.949 . S
C333 H328 0.950 . S
C333 C335 1.327 . S
C333 C339 1.429 . S
C334 C326 1.574 . S
C334 H329 0.949 . S
C334 C340 1.368 . S
C335 C319 1.349 . S
C335 H327 0.950 . S
C335 C333 1.327 . S
C336 C324 1.349 . S
C336 H330 0.950 . S
C336 C337 1.327 . S
C337 H331 0.950 . S
C337 C336 1.327 . S
C337 C341 1.429 . S
C338 C321 1.574 . S
C338 H332 0.949 . S
C338 C342 1.368 . S
C339 C320 1.429 . S
C339 C333 1.429 . S
C339 C340 1.523 . S
C340 C321 1.368 . S
C340 C334 1.368 . S
C340 C339 1.523 . S
C341 C325 1.429 . S
C341 C337 1.429 . S
C341 C342 1.523 . S
C342 C326 1.368 . S
C342 C338 1.368 . S
C342 C341 1.523 . S
H343 C318 0.950 . S
H344 C320 0.950 . S
H345 C321 0.949 . S
H346 C323 0.950 . S
H347 C325 0.950 . S
C348 C349 1.349 . S
C348 C350 1.327 . S
C348 H373 0.950 . S
C349 C348 1.349 . S
C349 C365 1.349 . S
C350 C348 1.327 . S
C350 C369 1.429 . S
C350 H374 0.950 . S
C351 C368 1.574 . S
C351 C370 1.368 . S
C351 H375 0.949 . S
H352 C356 0.949 . S
C353 C354 1.349 . S
C353 C355 1.327 . S
C353 H376 0.950 . S
C354 C353 1.349 . S
C354 C366 1.349 . S
C355 C353 1.327 . S
C355 C371 1.429 . S
C355 H377 0.950 . S
C356 H352 0.949 . S
C356 C364 1.574 . S
C356 C372 1.368 . S
H357 C365 0.950 . S
H358 C363 0.950 . S
H359 C364 0.949 . S
H360 C366 0.950 . S
H361 C367 0.950 . S
H362 C368 0.949 . S
C363 H358 0.950 . S
C363 C365 1.327 . S
C363 C369 1.429 . S
C364 C356 1.574 . S
C364 H359 0.949 . S
C364 C370 1.368 . S
C365 C349 1.349 . S
C365 H357 0.950 . S
C365 C363 1.327 . S
C366 C354 1.349 . S
C366 H360 0.950 . S
C366 C367 1.327 . S
C367 H361 0.950 . S
C367 C366 1.327 . S
C367 C371 1.429 . S
C368 C351 1.574 . S
C368 H362 0.949 . S
C368 C372 1.368 . S
C369 C350 1.429 . S
C369 C363 1.429 . S
C369 C370 1.523 . S
C370 C351 1.368 . S
C370 C364 1.368 . S
C370 C369 1.523 . S
C371 C355 1.429 . S
C371 C367 1.429 . S
C371 C372 1.523 . S
C372 C356 1.368 . S
C372 C368 1.368 . S
C372 C371 1.523 . S
H373 C348 0.950 . S
H374 C350 0.950 . S
H375 C351 0.949 . S
H376 C353 0.950 . S
H377 C355 0.950 . S
C378 C379 1.349 . S
C378 C380 1.327 . S
C378 H403 0.950 . S
C379 C378 1.349 . S
C379 C395 1.349 . S
C380 C378 1.327 . S
C380 C399 1.429 . S
C380 H404 0.950 . S
C381 C398 1.574 . S
C381 C400 1.368 . S
C381 H405 0.949 . S
H382 C386 0.949 . S
C383 C384 1.349 . S
C383 C385 1.327 . S
C383 H406 0.950 . S
C384 C383 1.349 . S
C384 C396 1.349 . S
C385 C383 1.327 . S
C385 C401 1.429 . S
C385 H407 0.950 . S
C386 H382 0.949 . S
C386 C394 1.574 . S
C386 C402 1.368 . S
H387 C395 0.950 . S
H388 C393 0.950 . S
H389 C394 0.949 . S
H390 C396 0.950 . S
H391 C397 0.950 . S
H392 C398 0.949 . S
C393 H388 0.950 . S
C393 C395 1.327 . S
C393 C399 1.429 . S
C394 C386 1.574 . S
C394 H389 0.949 . S
C394 C400 1.368 . S
C395 C379 1.349 . S
C395 H387 0.950 . S
C395 C393 1.327 . S
C396 C384 1.349 . S
C396 H390 0.950 . S
C396 C397 1.327 . S
C397 H391 0.950 . S
C397 C396 1.327 . S
C397 C401 1.429 . S
C398 C381 1.574 . S
C398 H392 0.949 . S
C398 C402 1.368 . S
C399 C380 1.429 . S
C399 C393 1.429 . S
C399 C400 1.523 . S
C400 C381 1.368 . S
C400 C394 1.368 . S
C400 C399 1.523 . S
C401 C385 1.429 . S
C401 C397 1.429 . S
C401 C402 1.523 . S
C402 C386 1.368 . S
C402 C398 1.368 . S
C402 C401 1.523 . S
H403 C378 0.950 . S
H404 C380 0.950 . S
H405 C381 0.949 . S
H406 C383 0.950 . S
H407 C385 0.950 . S
C408 C409 1.349 . S
C408 C410 1.327 1_554 S
C408 H433 0.950 . S
C409 C408 1.349 . S
C409 C425 1.349 . S
C410 C408 1.327 1_556 S
C410 C429 1.429 . S
C410 H434 0.950 . S
C411 C428 1.574 . S
C411 C430 1.368 . S
C411 H435 0.949 . S
H412 C416 0.949 . S
C413 C414 1.349 . S
C413 C415 1.327 . S
C413 H436 0.950 . S
C414 C413 1.349 . S
C414 C426 1.349 . S
C415 C413 1.327 . S
C415 C431 1.429 . S
C415 H437 0.950 . S
C416 H412 0.949 . S
C416 C424 1.574 . S
C416 C432 1.368 . S
H417 C425 0.950 . S
H418 C423 0.950 . S
H419 C424 0.949 . S
H420 C426 0.950 . S
H421 C427 0.950 . S
H422 C428 0.949 . S
C423 H418 0.950 . S
C423 C425 1.327 1_556 S
C423 C429 1.429 . S
C424 C416 1.574 . S
C424 H419 0.949 . S
C424 C430 1.368 . S
C425 C409 1.349 . S
C425 H417 0.950 . S
C425 C423 1.327 1_554 S
C426 C414 1.349 . S
C426 H420 0.950 . S
C426 C427 1.327 . S
C427 H421 0.950 . S
C427 C426 1.327 . S
C427 C431 1.429 . S
C428 C411 1.574 . S
C428 H422 0.949 . S
C428 C432 1.368 . S
C429 C410 1.429 . S
C429 C423 1.429 . S
C429 C430 1.523 . S
C430 C411 1.368 . S
C430 C424 1.368 . S
C430 C429 1.523 . S
C431 C415 1.429 . S
C431 C427 1.429 . S
C431 C432 1.523 . S
C432 C416 1.368 . S
C432 C428 1.368 . S
C432 C431 1.523 . S
H433 C408 0.950 . S
H434 C410 0.950 . S
H435 C411 0.949 . S
H436 C413 0.950 . S
H437 C415 0.950 . S
C438 C439 1.349 . S
C438 C440 1.327 . S
C438 H463 0.950 . S
C439 C438 1.349 . S
C439 C455 1.349 . S
C440 C438 1.327 . S
C440 C459 1.429 . S
C440 H464 0.950 . S
C441 C458 1.574 . S
C441 C460 1.368 . S
C441 H465 0.949 . S
H442 C446 0.949 . S
C443 C444 1.349 . S
C443 C445 1.327 1_556 S
C443 H466 0.950 . S
C444 C443 1.349 . S
C444 C456 1.349 . S
C445 C443 1.327 1_554 S
C445 C461 1.429 . S
C445 H467 0.950 . S
C446 H442 0.949 . S
C446 C454 1.574 . S
C446 C462 1.368 . S
H447 C455 0.950 . S
H448 C453 0.950 . S
H449 C454 0.949 . S
H450 C456 0.950 . S
H451 C457 0.950 . S
H452 C458 0.949 . S
C453 H448 0.950 . S
C453 C455 1.327 . S
C453 C459 1.429 . S
C454 C446 1.574 . S
C454 H449 0.949 . S
C454 C460 1.368 . S
C455 C439 1.349 . S
C455 H447 0.950 . S
C455 C453 1.327 . S
C456 C444 1.349 . S
C456 H450 0.950 . S
C456 C457 1.327 1_556 S
C457 H451 0.950 . S
C457 C456 1.327 1_554 S
C457 C461 1.429 . S
C458 C441 1.574 . S
C458 H452 0.949 . S
C458 C462 1.368 . S
C459 C440 1.429 . S
C459 C453 1.429 . S
C459 C460 1.523 . S
C460 C441 1.368 . S
C460 C454 1.368 . S
C460 C459 1.523 . S
C461 C445 1.429 . S
C461 C457 1.429 . S
C461 C462 1.523 . S
C462 C446 1.368 . S
C462 C458 1.368 . S
C462 C461 1.523 . S
H463 C438 0.950 . S
H464 C440 0.950 . S
H465 C441 0.949 . S
H466 C443 0.950 . S
H467 C445 0.950 . S
C468 C469 1.349 . S
C468 C470 1.327 . S
C468 H493 0.950 . S
C469 C468 1.349 . S
C469 C485 1.349 . S
C470 C468 1.327 . S
C470 C489 1.429 . S
C470 H494 0.950 . S
C471 C488 1.574 . S
C471 C490 1.368 . S
C471 H495 0.949 . S
H472 C476 0.949 . S
C473 C474 1.349 . S
C473 C475 1.327 . S
C473 H496 0.950 . S
C474 C473 1.349 . S
C474 C486 1.349 . S
C475 C473 1.327 . S
C475 C491 1.429 . S
C475 H497 0.950 . S
C476 H472 0.949 . S
C476 C484 1.574 . S
C476 C492 1.368 . S
H477 C485 0.950 . S
H478 C483 0.950 . S
H479 C484 0.949 . S
H480 C486 0.950 . S
H481 C487 0.950 . S
H482 C488 0.949 . S
C483 H478 0.950 . S
C483 C485 1.327 . S
C483 C489 1.429 . S
C484 C476 1.574 . S
C484 H479 0.949 . S
C484 C490 1.368 . S
C485 C469 1.349 . S
C485 H477 0.950 . S
C485 C483 1.327 . S
C486 C474 1.349 . S
C486 H480 0.950 . S
C486 C487 1.327 . S
C487 H481 0.950 . S
C487 C486 1.327 . S
C487 C491 1.429 . S
C488 C471 1.574 . S
C488 H482 0.949 . S
C488 C492 1.368 . S
C489 C470 1.429 . S
C489 C483 1.429 . S
C489 C490 1.523 . S
C490 C471 1.368 . S
C490 C484 1.368 . S
C490 C489 1.523 . S
C491 C475 1.429 . S
C491 C487 1.429 . S
C491 C492 1.523 . S
C492 C476 1.368 . S
C492 C488 1.368 . S
C492 C491 1.523 . S
H493 C468 0.950 . S
H494 C470 0.950 . S
H495 C471 0.949 . S
H496 C473 0.950 . S
H497 C475 0.950 . S
C498 C499 1.349 . S
C498 C500 1.327 . S
C498 H523 0.950 . S
C499 C498 1.349 . S
C499 C515 1.349 . S
C500 C498 1.327 . S
C500 C519 1.429 . S
C500 H524 0.950 . S
C501 C518 1.574 . S
C501 C520 1.368 . S
C501 H525 0.949 . S
H502 C506 0.949 . S
C503 C504 1.349 . S
C503 C505 1.327 . S
C503 H526 0.950 . S
C504 C503 1.349 . S
C504 C516 1.349 . S
C505 C503 1.327 . S
C505 C521 1.429 . S
C505 H527 0.950 . S
C506 H502 0.949 . S
C506 C514 1.574 . S
C506 C522 1.368 . S
H507 C515 0.950 . S
H508 C513 0.950 . S
H509 C514 0.949 . S
H510 C516 0.950 . S
H511 C517 0.950 . S
H512 C518 0.949 . S
C513 H508 0.950 . S
C513 C515 1.327 . S
C513 C519 1.429 . S
C514 C506 1.574 . S
C514 H509 0.949 . S
C514 C520 1.368 . S
C515 C499 1.349 . S
C515 H507 0.950 . S
C515 C513 1.327 . S
C516 C504 1.349 . S
C516 H510 0.950 . S
C516 C517 1.327 . S
C517 H511 0.950 . S
C517 C516 1.327 . S
C517 C521 1.429 . S
C518 C501 1.574 . S
C518 H512 0.949 . S
C518 C522 1.368 . S
C519 C500 1.429 . S
C519 C513 1.429 . S
C519 C520 1.523 . S
C520 C501 1.368 . S
C520 C514 1.368 . S
C520 C519 1.523 . S
C521 C505 1.429 . S
C521 C517 1.429 . S
C521 C522 1.523 . S
C522 C506 1.368 . S
C522 C518 1.368 . S
C522 C521 1.523 . S
H523 C498 0.950 . S
H524 C500 0.950 . S
H525 C501 0.949 . S
H526 C503 0.950 . S
H527 C505 0.950 . S
C528 C529 1.349 . S
C528 C530 1.327 . S
C528 H553 0.950 . S
C529 C528 1.349 . S
C529 C545 1.349 . S
C530 C528 1.327 . S
C530 C549 1.429 . S
C530 H554 0.950 . S
C531 C548 1.574 1_655 S
C531 C550 1.368 . S
C531 H555 0.949 . S
H532 C536 0.949 . S
C533 C534 1.349 . S
C533 C535 1.327 . S
C533 H556 0.950 . S
C534 C533 1.349 . S
C534 C546 1.349 . S
C535 C533 1.327 . S
C535 C551 1.429 . S
C535 H557 0.950 . S
C536 H532 0.949 . S
C536 C544 1.574 1_455 S
C536 C552 1.368 . S
H537 C545 0.950 . S
H538 C543 0.950 . S
H539 C544 0.949 . S
H540 C546 0.950 . S
H541 C547 0.950 . S
H542 C548 0.949 . S
C543 H538 0.950 . S
C543 C545 1.327 . S
C543 C549 1.429 . S
C544 C536 1.574 1_655 S
C544 H539 0.949 . S
C544 C550 1.368 . S
C545 C529 1.349 . S
C545 H537 0.950 . S
C545 C543 1.327 . S
C546 C534 1.349 . S
C546 H540 0.950 . S
C546 C547 1.327 . S
C547 H541 0.950 . S
C547 C546 1.327 . S
C547 C551 1.429 . S
C548 C531 1.574 1_455 S
C548 H542 0.949 . S
C548 C552 1.368 . S
C549 C530 1.429 . S
C549 C543 1.429 . S
C549 C550 1.523 . S
C550 C531 1.368 . S
C550 C544 1.368 . S
C550 C549 1.523 . S
C551 C535 1.429 . S
C551 C547 1.429 . S
C551 C552 1.523 . S
C552 C536 1.368 . S
C552 C548 1.368 . S
C552 C551 1.523 . S
H553 C528 0.950 . S
H554 C530 0.950 . S
H555 C531 0.949 . S
H556 C533 0.950 . S
H557 C535 0.950 . S
C558 C559 1.349 . S
C558 C560 1.327 . S
C558 H583 0.950 . S
C559 C558 1.349 . S
C559 C575 1.349 . S
C560 C558 1.327 . S
C560 C579 1.429 . S
C560 H584 0.950 . S
C561 C578 1.574 1_565 S
C561 C580 1.368 . S
C561 H585 0.949 . S
H562 C566 0.949 . S
C563 C564 1.349 . S
C563 C565 1.327 . S
C563 H586 0.950 . S
C564 C563 1.349 . S
C564 C576 1.349 . S
C565 C563 1.327 . S
C565 C581 1.429 . S
C565 H587 0.950 . S
C566 H562 0.949 . S
C566 C574 1.574 1_545 S
C566 C582 1.368 . S
H567 C575 0.950 . S
H568 C573 0.950 . S
H569 C574 0.949 . S
H570 C576 0.950 . S
H571 C577 0.950 . S
H572 C578 0.949 . S
C573 H568 0.950 . S
C573 C575 1.327 . S
C573 C579 1.429 . S
C574 C566 1.574 1_565 S
C574 H569 0.949 . S
C574 C580 1.368 . S
C575 C559 1.349 . S
C575 H567 0.950 . S
C575 C573 1.327 . S
C576 C564 1.349 . S
C576 H570 0.950 . S
C576 C577 1.327 . S
C577 H571 0.950 . S
C577 C576 1.327 . S
C577 C581 1.429 . S
C578 C561 1.574 1_545 S
C578 H572 0.949 . S
C578 C582 1.368 . S
C579 C560 1.429 . S
C579 C573 1.429 . S
C579 C580 1.523 . S
C580 C561 1.368 . S
C580 C574 1.368 . S
C580 C579 1.523 . S
C581 C565 1.429 . S
C581 C577 1.429 . S
C581 C582 1.523 . S
C582 C566 1.368 . S
C582 C578 1.368 . S
C582 C581 1.523 . S
H583 C558 0.950 . S
H584 C560 0.950 . S
H585 C561 0.949 . S
H586 C563 0.950 . S
H587 C565 0.950 . S
C588 C589 1.349 . S
C588 C590 1.327 . S
C588 H613 0.950 . S
C589 C588 1.349 . S
C589 C605 1.349 . S
C590 C588 1.327 . S
C590 C609 1.429 . S
C590 H614 0.950 . S
C591 C608 1.574 . S
C591 C610 1.368 . S
C591 H615 0.949 . S
H592 C596 0.949 . S
C593 C594 1.349 . S
C593 C595 1.327 . S
C593 H616 0.950 . S
C594 C593 1.349 . S
C594 C606 1.349 . S
C595 C593 1.327 . S
C595 C611 1.429 . S
C595 H617 0.950 . S
C596 H592 0.949 . S
C596 C604 1.574 . S
C596 C612 1.368 . S
H597 C605 0.950 . S
H598 C603 0.950 . S
H599 C604 0.949 . S
H600 C606 0.950 . S
H601 C607 0.950 . S
H602 C608 0.949 . S
C603 H598 0.950 . S
C603 C605 1.327 . S
C603 C609 1.429 . S
C604 C596 1.574 . S
C604 H599 0.949 . S
C604 C610 1.368 . S
C605 C589 1.349 . S
C605 H597 0.950 . S
C605 C603 1.327 . S
C606 C594 1.349 . S
C606 H600 0.950 . S
C606 C607 1.327 . S
C607 H601 0.950 . S
C607 C606 1.327 . S
C607 C611 1.429 . S
C608 C591 1.574 . S
C608 H602 0.949 . S
C608 C612 1.368 . S
C609 C590 1.429 . S
C609 C603 1.429 . S
C609 C610 1.523 . S
C610 C591 1.368 . S
C610 C604 1.368 . S
C610 C609 1.523 . S
C611 C595 1.429 . S
C611 C607 1.429 . S
C611 C612 1.523 . S
C612 C596 1.368 . S
C612 C608 1.368 . S
C612 C611 1.523 . S
H613 C588 0.950 . S
H614 C590 0.950 . S
H615 C591 0.949 . S
H616 C593 0.950 . S
H617 C595 0.950 . S
C618 C619 1.349 . S
C618 C620 1.327 . S
C618 H643 0.950 . S
C619 C618 1.349 . S
C619 C635 1.349 . S
C620 C618 1.327 . S
C620 C639 1.429 . S
C620 H644 0.950 . S
C621 C638 1.574 1_455 S
C621 C640 1.368 . S
C621 H645 0.949 . S
H622 C626 0.949 . S
C623 C624 1.349 . S
C623 C625 1.327 . S
C623 H646 0.950 . S
C624 C623 1.349 . S
C624 C636 1.349 . S
C625 C623 1.327 . S
C625 C641 1.429 . S
C625 H647 0.950 . S
C626 H622 0.949 . S
C626 C634 1.574 1_655 S
C626 C642 1.368 . S
H627 C635 0.950 . S
H628 C633 0.950 . S
H629 C634 0.949 . S
H630 C636 0.950 . S
H631 C637 0.950 . S
H632 C638 0.949 . S
C633 H628 0.950 . S
C633 C635 1.327 . S
C633 C639 1.429 . S
C634 C626 1.574 1_455 S
C634 H629 0.949 . S
C634 C640 1.368 . S
C635 C619 1.349 . S
C635 H627 0.950 . S
C635 C633 1.327 . S
C636 C624 1.349 . S
C636 H630 0.950 . S
C636 C637 1.327 . S
C637 H631 0.950 . S
C637 C636 1.327 . S
C637 C641 1.429 . S
C638 C621 1.574 1_655 S
C638 H632 0.949 . S
C638 C642 1.368 . S
C639 C620 1.429 . S
C639 C633 1.429 . S
C639 C640 1.523 . S
C640 C621 1.368 . S
C640 C634 1.368 . S
C640 C639 1.523 . S
C641 C625 1.429 . S
C641 C637 1.429 . S
C641 C642 1.523 . S
C642 C626 1.368 . S
C642 C638 1.368 . S
C642 C641 1.523 . S
H643 C618 0.950 . S
H644 C620 0.950 . S
H645 C621 0.949 . S
H646 C623 0.950 . S
H647 C625 0.950 . S
C648 C649 1.349 . S
C648 C650 1.327 . S
C648 H673 0.950 . S
C649 C648 1.349 . S
C649 C665 1.349 . S
C650 C648 1.327 . S
C650 C669 1.429 . S
C650 H674 0.950 1_556 S
C651 C668 1.574 1_545 S
C651 C670 1.368 . S
C651 H675 0.949 . S
H652 C656 0.949 . S
C653 C654 1.349 . S
C653 C655 1.327 . S
C653 H676 0.950 . S
C654 C653 1.349 . S
C654 C666 1.349 . S
C655 C653 1.327 . S
C655 C671 1.429 . S
C655 H677 0.950 1_554 S
C656 H652 0.949 . S
C656 C664 1.574 1_565 S
C656 C672 1.368 . S
H657 C665 0.950 . S
H658 C663 0.950 . S
H659 C664 0.949 . S
H660 C666 0.950 . S
H661 C667 0.950 . S
H662 C668 0.949 . S
C663 H658 0.950 . S
C663 C665 1.327 . S
C663 C669 1.429 . S
C664 C656 1.574 1_545 S
C664 H659 0.949 . S
C664 C670 1.368 1_554 S
C665 C649 1.349 . S
C665 H657 0.950 . S
C665 C663 1.327 . S
C666 C654 1.349 . S
C666 H660 0.950 . S
C666 C667 1.327 . S
C667 H661 0.950 . S
C667 C666 1.327 . S
C667 C671 1.429 . S
C668 C651 1.574 1_565 S
C668 H662 0.949 . S
C668 C672 1.368 1_556 S
C669 C650 1.429 . S
C669 C663 1.429 . S
C669 C670 1.523 . S
C670 C651 1.368 . S
C670 C664 1.368 1_556 S
C670 C669 1.523 . S
C671 C655 1.429 . S
C671 C667 1.429 . S
C671 C672 1.523 . S
C672 C656 1.368 . S
C672 C668 1.368 1_554 S
C672 C671 1.523 . S
H673 C648 0.950 . S
H674 C650 0.950 1_554 S
H675 C651 0.949 . S
H676 C653 0.950 . S
H677 C655 0.950 1_556 S
C678 C679 1.349 . S
C678 C680 1.327 . S
C678 H703 0.950 . S
C679 C678 1.349 . S
C679 C695 1.349 . S
C680 C678 1.327 . S
C680 C699 1.429 . S
C680 H704 0.950 . S
C681 C698 1.574 . S
C681 C700 1.368 . S
C681 H705 0.949 . S
H682 C686 0.949 . S
C683 C684 1.349 . S
C683 C685 1.327 . S
C683 H706 0.950 . S
C684 C683 1.349 . S
C684 C696 1.349 . S
C685 C683 1.327 . S
C685 C701 1.429 . S
C685 H707 0.950 . S
C686 H682 0.949 . S
C686 C694 1.574 . S
C686 C702 1.368 . S
H687 C695 0.950 . S
H688 C693 0.950 . S
H689 C694 0.949 . S
H690 C696 0.950 . S
H691 C697 0.950 . S
H692 C698 0.949 . S
C693 H688 0.950 . S
C693 C695 1.327 . S
C693 C699 1.429 . S
C694 C686 1.574 . S
C694 H689 0.949 . S
C694 C700 1.368 . S
C695 C679 1.349 . S
C695 H687 0.950 . S
C695 C693 1.327 . S
C696 C684 1.349 . S
C696 H690 0.950 . S
C696 C697 1.327 . S
C697 H691 0.950 . S
C697 C696 1.327 . S
C697 C701 1.429 . S
C698 C681 1.574 . S
C698 H692 0.949 . S
C698 C702 1.368 . S
C699 C680 1.429 . S
C699 C693 1.429 . S
C699 C700 1.523 . S
C700 C681 1.368 . S
C700 C694 1.368 . S
C700 C699 1.523 . S
C701 C685 1.429 . S
C701 C697 1.429 . S
C701 C702 1.523 . S
C702 C686 1.368 . S
C702 C698 1.368 . S
C702 C701 1.523 . S
H703 C678 0.950 . S
H704 C680 0.950 . S
H705 C681 0.949 . S
H706 C683 0.950 . S
H707 C685 0.950 . S
C708 C709 1.349 . S
C708 C710 1.327 . S
C708 H733 0.950 . S
C709 C708 1.349 . S
C709 C725 1.349 . S
C710 C708 1.327 . S
C710 C729 1.429 . S
C710 H734 0.950 . S
C711 C728 1.574 . S
C711 C730 1.368 . S
C711 H735 0.949 . S
H712 C716 0.949 . S
C713 C714 1.349 . S
C713 C715 1.327 . S
C713 H736 0.950 . S
C714 C713 1.349 . S
C714 C726 1.349 . S
C715 C713 1.327 . S
C715 C731 1.429 . S
C715 H737 0.950 . S
C716 H712 0.949 . S
C716 C724 1.574 . S
C716 C732 1.368 . S
H717 C725 0.950 . S
H718 C723 0.950 . S
H719 C724 0.949 . S
H720 C726 0.950 . S
H721 C727 0.950 . S
H722 C728 0.949 . S
C723 H718 0.950 . S
C723 C725 1.327 . S
C723 C729 1.429 . S
C724 C716 1.574 . S
C724 H719 0.949 . S
C724 C730 1.368 . S
C725 C709 1.349 . S
C725 H717 0.950 . S
C725 C723 1.327 . S
C726 C714 1.349 . S
C726 H720 0.950 . S
C726 C727 1.327 . S
C727 H721 0.950 . S
C727 C726 1.327 . S
C727 C731 1.429 . S
C728 C711 1.574 . S
C728 H722 0.949 . S
C728 C732 1.368 . S
C729 C710 1.429 . S
C729 C723 1.429 . S
C729 C730 1.523 . S
C730 C711 1.368 . S
C730 C724 1.368 . S
C730 C729 1.523 . S
C731 C715 1.429 . S
C731 C727 1.429 . S
C731 C732 1.523 . S
C732 C716 1.368 . S
C732 C728 1.368 . S
C732 C731 1.523 . S
H733 C708 0.950 . S
H734 C710 0.950 . S
H735 C711 0.949 . S
H736 C713 0.950 . S
H737 C715 0.950 . S
C738 C739 1.349 . S
C738 C740 1.327 . S
C738 H763 0.950 . S
C739 C738 1.349 . S
C739 C755 1.349 . S
C740 C738 1.327 . S
C740 C759 1.429 . S
C740 H764 0.950 . S
C741 C758 1.574 . S
C741 C760 1.368 . S
C741 H765 0.949 . S
H742 C746 0.949 . S
C743 C744 1.349 . S
C743 C745 1.327 . S
C743 H766 0.950 . S
C744 C743 1.349 . S
C744 C756 1.349 . S
C745 C743 1.327 . S
C745 C761 1.429 . S
C745 H767 0.950 . S
C746 H742 0.949 . S
C746 C754 1.574 . S
C746 C762 1.368 . S
H747 C755 0.950 . S
H748 C753 0.950 . S
H749 C754 0.949 . S
H750 C756 0.950 . S
H751 C757 0.950 . S
H752 C758 0.949 . S
C753 H748 0.950 . S
C753 C755 1.327 . S
C753 C759 1.429 . S
C754 C746 1.574 . S
C754 H749 0.949 . S
C754 C760 1.368 . S
C755 C739 1.349 . S
C755 H747 0.950 . S
C755 C753 1.327 . S
C756 C744 1.349 . S
C756 H750 0.950 . S
C756 C757 1.327 . S
C757 H751 0.950 . S
C757 C756 1.327 . S
C757 C761 1.429 . S
C758 C741 1.574 . S
C758 H752 0.949 . S
C758 C762 1.368 . S
C759 C740 1.429 . S
C759 C753 1.429 . S
C759 C760 1.523 . S
C760 C741 1.368 . S
C760 C754 1.368 . S
C760 C759 1.523 . S
C761 C745 1.429 . S
C761 C757 1.429 . S
C761 C762 1.523 . S
C762 C746 1.368 . S
C762 C758 1.368 . S
C762 C761 1.523 . S
H763 C738 0.950 . S
H764 C740 0.950 . S
H765 C741 0.949 . S
H766 C743 0.950 . S
H767 C745 0.950 . S
C768 C769 1.349 . S
C768 C770 1.327 . S
C768 H793 0.950 . S
C769 C768 1.349 . S
C769 C785 1.349 . S
C770 C768 1.327 . S
C770 C789 1.429 . S
C770 H794 0.950 . S
C771 C788 1.574 . S
C771 C790 1.368 . S
C771 H795 0.949 . S
H772 C776 0.949 . S
C773 C774 1.349 . S
C773 C775 1.327 . S
C773 H796 0.950 . S
C774 C773 1.349 . S
C774 C786 1.349 . S
C775 C773 1.327 . S
C775 C791 1.429 . S
C775 H797 0.950 . S
C776 H772 0.949 . S
C776 C784 1.574 . S
C776 C792 1.368 . S
H777 C785 0.950 . S
H778 C783 0.950 . S
H779 C784 0.949 . S
H780 C786 0.950 . S
H781 C787 0.950 . S
H782 C788 0.949 . S
C783 H778 0.950 . S
C783 C785 1.327 . S
C783 C789 1.429 . S
C784 C776 1.574 . S
C784 H779 0.949 . S
C784 C790 1.368 . S
C785 C769 1.349 . S
C785 H777 0.950 . S
C785 C783 1.327 . S
C786 C774 1.349 . S
C786 H780 0.950 . S
C786 C787 1.327 . S
C787 H781 0.950 . S
C787 C786 1.327 . S
C787 C791 1.429 . S
C788 C771 1.574 . S
C788 H782 0.949 . S
C788 C792 1.368 . S
C789 C770 1.429 . S
C789 C783 1.429 . S
C789 C790 1.523 . S
C790 C771 1.368 . S
C790 C784 1.368 . S
C790 C789 1.523 . S
C791 C775 1.429 . S
C791 C787 1.429 . S
C791 C792 1.523 . S
C792 C776 1.368 . S
C792 C788 1.368 . S
C792 C791 1.523 . S
H793 C768 0.950 . S
H794 C770 0.950 . S
H795 C771 0.949 . S
H796 C773 0.950 . S
H797 C775 0.950 . S
C798 C799 1.349 . S
C798 C800 1.327 . S
C798 H823 0.950 . S
C799 C798 1.349 . S
C799 C815 1.349 . S
C800 C798 1.327 . S
C800 C819 1.429 . S
C800 H824 0.950 . S
C801 C818 1.574 . S
C801 C820 1.368 . S
C801 H825 0.949 . S
H802 C806 0.949 . S
C803 C804 1.349 . S
C803 C805 1.327 . S
C803 H826 0.950 . S
C804 C803 1.349 . S
C804 C816 1.349 . S
C805 C803 1.327 . S
C805 C821 1.429 . S
C805 H827 0.950 . S
C806 H802 0.949 . S
C806 C814 1.574 . S
C806 C822 1.368 . S
H807 C815 0.950 . S
H808 C813 0.950 . S
H809 C814 0.949 . S
H810 C816 0.950 . S
H811 C817 0.950 . S
H812 C818 0.949 . S
C813 H808 0.950 . S
C813 C815 1.327 . S
C813 C819 1.429 . S
C814 C806 1.574 . S
C814 H809 0.949 . S
C814 C820 1.368 . S
C815 C799 1.349 . S
C815 H807 0.950 . S
C815 C813 1.327 . S
C816 C804 1.349 . S
C816 H810 0.950 . S
C816 C817 1.327 . S
C817 H811 0.950 . S
C817 C816 1.327 . S
C817 C821 1.429 . S
C818 C801 1.574 . S
C818 H812 0.949 . S
C818 C822 1.368 . S
C819 C800 1.429 . S
C819 C813 1.429 . S
C819 C820 1.523 . S
C820 C801 1.368 . S
C820 C814 1.368 . S
C820 C819 1.523 . S
C821 C805 1.429 . S
C821 C817 1.429 . S
C821 C822 1.523 . S
C822 C806 1.368 . S
C822 C818 1.368 . S
C822 C821 1.523 . S
H823 C798 0.950 . S
H824 C800 0.950 . S
H825 C801 0.949 . S
H826 C803 0.950 . S
H827 C805 0.950 . S
C828 C829 1.347 1_554 S
C828 C830 1.327 1_554 S
C828 H853 0.950 . S
C829 C828 1.347 1_556 S
C829 C845 1.358 . S
C830 C828 1.327 1_556 S
C830 C849 1.429 . S
C830 H854 0.950 . S
C831 C848 1.574 . S
C831 C850 1.368 . S
C831 H855 0.949 . S
H832 C836 0.949 . S
C833 C834 1.349 . S
C833 C835 1.327 . S
C833 H856 0.950 . S
C834 C833 1.349 . S
C834 C846 1.349 . S
C835 C833 1.327 . S
C835 C851 1.429 . S
C835 H857 0.950 . S
C836 H832 0.949 . S
C836 C844 1.574 . S
C836 C852 1.368 . S
H837 C845 0.950 . S
H838 C843 0.950 . S
H839 C844 0.949 . S
H840 C846 0.950 . S
H841 C847 0.950 . S
H842 C848 0.949 . S
C843 H838 0.950 . S
C843 C845 1.327 . S
C843 C849 1.429 . S
C844 C836 1.574 . S
C844 H839 0.949 . S
C844 C850 1.368 . S
C845 C829 1.358 . S
C845 H837 0.950 . S
C845 C843 1.327 . S
C846 C834 1.349 . S
C846 H840 0.950 . S
C846 C847 1.327 . S
C847 H841 0.950 . S
C847 C846 1.327 . S
C847 C851 1.429 . S
C848 C831 1.574 . S
C848 H842 0.949 . S
C848 C852 1.368 . S
C849 C830 1.429 . S
C849 C843 1.429 . S
C849 C850 1.523 . S
C850 C831 1.368 . S
C850 C844 1.368 . S
C850 C849 1.523 . S
C851 C835 1.429 . S
C851 C847 1.429 . S
C851 C852 1.523 . S
C852 C836 1.368 . S
C852 C848 1.368 . S
C852 C851 1.523 . S
H853 C828 0.950 . S
H854 C830 0.950 . S
H855 C831 0.949 . S
H856 C833 0.950 . S
H857 C835 0.950 . S
C858 C859 1.349 . S
C858 C860 1.327 . S
C858 H883 0.950 . S
C859 C858 1.349 . S
C859 C875 1.349 . S
C860 C858 1.327 . S
C860 C879 1.429 . S
C860 H884 0.950 . S
C861 C878 1.574 . S
C861 C880 1.368 . S
C861 H885 0.949 . S
H862 C866 0.949 . S
C863 C864 1.352 . S
C863 C865 1.327 . S
C863 H886 0.950 . S
C864 C863 1.352 . S
C864 C876 1.352 . S
C865 C863 1.327 . S
C865 C881 1.429 . S
C865 H887 0.950 . S
C866 H862 0.949 . S
C866 C874 1.574 . S
C866 C882 1.368 . S
H867 C875 0.950 . S
H868 C873 0.950 . S
H869 C874 0.949 . S
H870 C876 0.950 . S
H871 C877 0.950 . S
H872 C878 0.949 . S
C873 H868 0.950 . S
C873 C875 1.327 . S
C873 C879 1.429 . S
C874 C866 1.574 . S
C874 H869 0.949 . S
C874 C880 1.368 . S
C875 C859 1.349 . S
C875 H867 0.950 . S
C875 C873 1.327 . S
C876 C864 1.352 . S
C876 H870 0.950 . S
C876 C877 1.327 . S
C877 H871 0.950 . S
C877 C876 1.327 . S
C877 C881 1.429 . S
C878 C861 1.574 . S
C878 H872 0.949 . S
C878 C882 1.368 . S
C879 C860 1.429 . S
C879 C873 1.429 . S
C879 C880 1.523 . S
C880 C861 1.368 . S
C880 C874 1.368 . S
C880 C879 1.523 . S
C881 C865 1.429 . S
C881 C877 1.429 . S
C881 C882 1.523 . S
C882 C866 1.368 . S
C882 C878 1.368 . S
C882 C881 1.523 . S
H883 C858 0.950 . S
H884 C860 0.950 . S
H885 C861 0.949 . S
H886 C863 0.950 . S
H887 C865 0.950 . S
C169 C0 1.433 . S
C174 C97 1.431 . S
C199 C15 1.431 . S
C204 C110 1.433 . S
C229 C125 1.431 . S
C234 C41 1.431 . S
C259 C42 1.433 . S
C264 C127 1.431 . S
C289 C57 1.431 . S
C294 C141 1.431 . S
C319 C167 1.431 . S
C324 C83 1.431 . S
C349 C113 1.526 . S
C354 C12 1.526 . S
C379 C27 1.526 . S
C384 C139 1.526 . S
C409 C153 1.526 . S
C414 C29 1.526 . S
C439 C155 1.526 . S
C444 C54 1.526 . S
C469 C69 1.526 . S
C474 C85 1.526 . S
C499 C71 1.526 . S
C504 C98 1.526 . S
C529 C166 1.894 . S
C534 C1 1.891 . S
C559 C96 1.894 . S
C564 C14 1.894 . S
C589 C40 1.894 . S
C594 C111 1.891 . S
C619 C124 1.894 . S
C624 C43 1.892 . S
C649 C126 1.894 . S
C654 C56 1.894 . S
C679 C140 1.894 . S
C684 C82 1.894 . S
C709 C13 1.589 . S
C714 C152 1.590 . S
C739 C154 1.590 . S
C744 C26 1.590 . S
C769 C28 1.590 . S
C774 C84 1.590 . S
C799 C55 1.589 . S
C804 C99 1.589 . S
C829 C68 1.583 1_556 S
C834 C112 1.590 . S
C859 C70 1.590 . S
C864 C138 1.583 1_554 S
