# Generated by pormake.
# Topology unw, (4)-cn, num edge types: 1
# Building blocks:
#     Node 0, Type 0, BuildingBlock: KOZSID_clean_sbu_0, # of connection points: 4
#     Node 1, Type 0, BuildingBlock: KOZSID_clean_sbu_0, # of connection points: 4
#     Node 2, Type 0, BuildingBlock: KOZSID_clean_sbu_0, # of connection points: 4
#     Node 3, Type 0, BuildingBlock: KOZSID_clean_sbu_0, # of connection points: 4
#     Node 4, Type 0, BuildingBlock: KOZSID_clean_sbu_0, # of connection points: 4
#     Node 5, Type 0, BuildingBlock: KOZSID_clean_sbu_0, # of connection points: 4
#     Node 6, Type 0, BuildingBlock: KOZSID_clean_sbu_0, # of connection points: 4
#     Node 7, Type 0, BuildingBlock: KOZSID_clean_sbu_0, # of connection points: 4
#     Node 8, Type 0, BuildingBlock: KOZSID_clean_sbu_0, # of connection points: 4
#     Node 9, Type 0, BuildingBlock: KOZSID_clean_sbu_0, # of connection points: 4
#     Node 10, Type 0, BuildingBlock: KOZSID_clean_sbu_0, # of connection points: 4
#     Node 11, Type 0, BuildingBlock: KOZSID_clean_sbu_0, # of connection points: 4
#     Node 12, Type 0, BuildingBlock: KOZSID_clean_sbu_0, # of connection points: 4
#     Node 13, Type 0, BuildingBlock: KOZSID_clean_sbu_0, # of connection points: 4
#     Node 14, Type 0, BuildingBlock: KOZSID_clean_sbu_0, # of connection points: 4
#     Node 15, Type 0, BuildingBlock: KOZSID_clean_sbu_0, # of connection points: 4
#     Node 16, Type 0, BuildingBlock: KOZSID_clean_sbu_0, # of connection points: 4
#     Node 17, Type 0, BuildingBlock: KOZSID_clean_sbu_0, # of connection points: 4
#     Node 18, Type 0, BuildingBlock: KOZSID_clean_sbu_0, # of connection points: 4
#     Node 19, Type 0, BuildingBlock: KOZSID_clean_sbu_0, # of connection points: 4
#     Node 20, Type 0, BuildingBlock: KOZSID_clean_sbu_0, # of connection points: 4
#     Node 21, Type 0, BuildingBlock: KOZSID_clean_sbu_0, # of connection points: 4
#     Node 22, Type 0, BuildingBlock: KOZSID_clean_sbu_0, # of connection points: 4
#     Node 23, Type 0, BuildingBlock: KOZSID_clean_sbu_0, # of connection points: 4
#     Edge 24, Type (0, 0), BuildingBlock: XIVTED_clean_linker_0, # of connection points: 2
#     Edge 25, Type (0, 0), BuildingBlock: XIVTED_clean_linker_0, # of connection points: 2
#     Edge 26, Type (0, 0), BuildingBlock: XIVTED_clean_linker_0, # of connection points: 2
#     Edge 27, Type (0, 0), BuildingBlock: XIVTED_clean_linker_0, # of connection points: 2
#     Edge 28, Type (0, 0), BuildingBlock: XIVTED_clean_linker_0, # of connection points: 2
#     Edge 29, Type (0, 0), BuildingBlock: XIVTED_clean_linker_0, # of connection points: 2
#     Edge 30, Type (0, 0), BuildingBlock: XIVTED_clean_linker_0, # of connection points: 2
#     Edge 31, Type (0, 0), BuildingBlock: XIVTED_clean_linker_0, # of connection points: 2
#     Edge 32, Type (0, 0), BuildingBlock: XIVTED_clean_linker_0, # of connection points: 2
#     Edge 33, Type (0, 0), BuildingBlock: XIVTED_clean_linker_0, # of connection points: 2
#     Edge 34, Type (0, 0), BuildingBlock: XIVTED_clean_linker_0, # of connection points: 2
#     Edge 35, Type (0, 0), BuildingBlock: XIVTED_clean_linker_0, # of connection points: 2
#     Edge 36, Type (0, 0), BuildingBlock: XIVTED_clean_linker_0, # of connection points: 2
#     Edge 37, Type (0, 0), BuildingBlock: XIVTED_clean_linker_0, # of connection points: 2
#     Edge 38, Type (0, 0), BuildingBlock: XIVTED_clean_linker_0, # of connection points: 2
#     Edge 39, Type (0, 0), BuildingBlock: XIVTED_clean_linker_0, # of connection points: 2
#     Edge 40, Type (0, 0), BuildingBlock: XIVTED_clean_linker_0, # of connection points: 2
#     Edge 41, Type (0, 0), BuildingBlock: XIVTED_clean_linker_0, # of connection points: 2
#     Edge 42, Type (0, 0), BuildingBlock: XIVTED_clean_linker_0, # of connection points: 2
#     Edge 43, Type (0, 0), BuildingBlock: XIVTED_clean_linker_0, # of connection points: 2
#     Edge 44, Type (0, 0), BuildingBlock: XIVTED_clean_linker_0, # of connection points: 2
#     Edge 45, Type (0, 0), BuildingBlock: XIVTED_clean_linker_0, # of connection points: 2
#     Edge 46, Type (0, 0), BuildingBlock: XIVTED_clean_linker_0, # of connection points: 2
#     Edge 47, Type (0, 0), BuildingBlock: XIVTED_clean_linker_0, # of connection points: 2
#     Edge 48, Type (0, 0), BuildingBlock: XIVTED_clean_linker_0, # of connection points: 2
#     Edge 49, Type (0, 0), BuildingBlock: XIVTED_clean_linker_0, # of connection points: 2
#     Edge 50, Type (0, 0), BuildingBlock: XIVTED_clean_linker_0, # of connection points: 2
#     Edge 51, Type (0, 0), BuildingBlock: XIVTED_clean_linker_0, # of connection points: 2
#     Edge 52, Type (0, 0), BuildingBlock: XIVTED_clean_linker_0, # of connection points: 2
#     Edge 53, Type (0, 0), BuildingBlock: XIVTED_clean_linker_0, # of connection points: 2
#     Edge 54, Type (0, 0), BuildingBlock: XIVTED_clean_linker_0, # of connection points: 2
#     Edge 55, Type (0, 0), BuildingBlock: XIVTED_clean_linker_0, # of connection points: 2
#     Edge 56, Type (0, 0), BuildingBlock: XIVTED_clean_linker_0, # of connection points: 2
#     Edge 57, Type (0, 0), BuildingBlock: XIVTED_clean_linker_0, # of connection points: 2
#     Edge 58, Type (0, 0), BuildingBlock: XIVTED_clean_linker_0, # of connection points: 2
#     Edge 59, Type (0, 0), BuildingBlock: XIVTED_clean_linker_0, # of connection points: 2
#     Edge 60, Type (0, 0), BuildingBlock: XIVTED_clean_linker_0, # of connection points: 2
#     Edge 61, Type (0, 0), BuildingBlock: XIVTED_clean_linker_0, # of connection points: 2
#     Edge 62, Type (0, 0), BuildingBlock: XIVTED_clean_linker_0, # of connection points: 2
#     Edge 63, Type (0, 0), BuildingBlock: XIVTED_clean_linker_0, # of connection points: 2
#     Edge 64, Type (0, 0), BuildingBlock: XIVTED_clean_linker_0, # of connection points: 2
#     Edge 65, Type (0, 0), BuildingBlock: XIVTED_clean_linker_0, # of connection points: 2
#     Edge 66, Type (0, 0), BuildingBlock: XIVTED_clean_linker_0, # of connection points: 2
#     Edge 67, Type (0, 0), BuildingBlock: XIVTED_clean_linker_0, # of connection points: 2
#     Edge 68, Type (0, 0), BuildingBlock: XIVTED_clean_linker_0, # of connection points: 2
#     Edge 69, Type (0, 0), BuildingBlock: XIVTED_clean_linker_0, # of connection points: 2
#     Edge 70, Type (0, 0), BuildingBlock: XIVTED_clean_linker_0, # of connection points: 2
#     Edge 71, Type (0, 0), BuildingBlock: XIVTED_clean_linker_0, # of connection points: 2
# Relax obj value: 0.341
# Max RMSD: 0.292
# Mean RMSD: 0.270
data_MOF--net-unw--node1-KOZSID_clean_sbu_0--edge1-XIVTED_clean_linker_0
_symmetry_space_group_name_H-M    P1
_symmetry_Int_Tables_number       1
_symmetry_cell_setting            triclinic
loop_
_symmetry_equiv_pos_as_xyz
'x, y, z'
_cell_length_a     62.092457
_cell_length_b     52.314254
_cell_length_c     55.404465
_cell_angle_alpha  90.002417
_cell_angle_beta   90.526806
_cell_angle_gamma 90.005958
loop_
_atom_site_label
_atom_site_type_symbol
_atom_site_fract_x
_atom_site_fract_y
_atom_site_fract_z
_atom_type_partial_charge
C0 C 0.13131 0.44357 0.20455 0.0
C1 C 0.11563 0.4486 0.18728 0.0
C2 C 0.10188 0.42788 0.18733 0.0
C3 C 0.10993 0.41145 0.20462 0.0
N4 N 0.12771 0.42082 0.21539 0.0
Co5 Co 0.14624 0.4031 0.23919 0.0
N6 N 0.13529 0.36923 0.22926 0.0
C7 C 0.11673 0.36487 0.21717 0.0
C8 C 0.11333 0.33932 0.2129 0.0
C9 C 0.13069 0.327 0.22318 0.0
C10 C 0.14377 0.34577 0.2333 0.0
N11 N 0.16525 0.38587 0.26287 0.0
C12 C 0.17157 0.36116 0.26388 0.0
C13 C 0.18465 0.35703 0.28404 0.0
C14 C 0.18632 0.37998 0.29593 0.0
C15 C 0.17421 0.39682 0.28254 0.0
N16 N 0.15684 0.43707 0.24913 0.0
C17 C 0.16628 0.44302 0.27031 0.0
C18 C 0.17283 0.46811 0.27118 0.0
C19 C 0.16724 0.47834 0.24911 0.0
C20 C 0.15748 0.45884 0.23603 0.0
N21 N 0.12332 0.40457 0.26347 0.0
C22 C 0.08778 0.40172 0.29444 0.0
C23 C 0.10295 0.38207 0.29361 0.0
C24 C 0.12028 0.3837 0.27797 0.0
C25 C 0.09114 0.42342 0.27997 0.0
C26 C 0.10926 0.42466 0.26489 0.0
N27 N 0.16879 0.40054 0.21499 0.0
C28 C 0.20637 0.39754 0.20533 0.0
C29 C 0.20117 0.38616 0.18308 0.0
C30 C 0.17947 0.38431 0.17635 0.0
C31 C 0.16358 0.3916 0.1925 0.0
C32 C 0.18989 0.40471 0.22101 0.0
H33 H 0.14705 0.38865 0.18721 0.0
H34 H 0.1942 0.41227 0.23852 0.0
H35 H 0.13067 0.36733 0.277 0.0
H36 H 0.11152 0.44142 0.2538 0.0
C37 C 0.10511 0.38526 0.2067 0.0
C38 C 0.14896 0.46091 0.21132 0.0
C39 C 0.16316 0.34074 0.24811 0.0
C40 C 0.17354 0.42346 0.28568 0.0
H41 H 0.1145 0.46523 0.17573 0.0
H42 H 0.08855 0.42447 0.17501 0.0
H43 H 0.10024 0.33069 0.20276 0.0
H44 H 0.13334 0.30656 0.2233 0.0
H45 H 0.19181 0.33921 0.28991 0.0
H46 H 0.19568 0.38397 0.31207 0.0
H47 H 0.18201 0.47739 0.28538 0.0
H48 H 0.17048 0.49766 0.2433 0.0
H49 H 0.10084 0.36476 0.30407 0.0
H50 H 0.07974 0.43909 0.28009 0.0
H51 H 0.22297 0.39944 0.21123 0.0
H52 H 0.17473 0.37625 0.15909 0.0
C53 C 0.61758 0.09812 0.32881 0.0
C54 C 0.60509 0.09901 0.34939 0.0
C55 C 0.59499 0.12225 0.34921 0.0
C56 C 0.60198 0.13422 0.32868 0.0
N57 N 0.61537 0.11965 0.31534 0.0
Co58 Co 0.63234 0.13056 0.28645 0.0
N59 N 0.62305 0.16696 0.2902 0.0
C60 C 0.60823 0.17606 0.30576 0.0
C61 C 0.6054 0.20201 0.30419 0.0
C62 C 0.6193 0.20991 0.2867 0.0
C63 C 0.62985 0.18823 0.27855 0.0
N64 N 0.65007 0.14128 0.25821 0.0
C65 C 0.6547 0.16498 0.24998 0.0
C66 C 0.66829 0.16407 0.23021 0.0
C67 C 0.67259 0.13889 0.22602 0.0
C68 C 0.66144 0.12591 0.24338 0.0
N69 N 0.64145 0.09419 0.28267 0.0
C70 C 0.65252 0.08382 0.26422 0.0
C71 C 0.65742 0.05849 0.26767 0.0
C72 C 0.64956 0.05263 0.28995 0.0
C73 C 0.64036 0.07484 0.2988 0.0
N74 N 0.60695 0.12492 0.26436 0.0
C75 C 0.57398 0.13228 0.22959 0.0
C76 C 0.59336 0.12066 0.2233 0.0
C77 C 0.60946 0.11699 0.24091 0.0
C78 C 0.57041 0.13721 0.25394 0.0
C79 C 0.58676 0.13279 0.27092 0.0
N80 N 0.65727 0.13703 0.30792 0.0
C81 C 0.69564 0.13666 0.31545 0.0
C82 C 0.6931 0.15272 0.33545 0.0
C83 C 0.67224 0.15926 0.34229 0.0
C84 C 0.65471 0.15129 0.3284 0.0
C85 C 0.67754 0.12897 0.30203 0.0
H86 H 0.63924 0.15751 0.33415 0.0
H87 H 0.6802 0.11718 0.28652 0.0
H88 H 0.62396 0.10854 0.2348 0.0
H89 H 0.58273 0.13677 0.28906 0.0
C90 C 0.59908 0.16023 0.32334 0.0
C91 C 0.63262 0.0775 0.3234 0.0
C92 C 0.64661 0.18876 0.26024 0.0
C93 C 0.66183 0.09941 0.24671 0.0
H94 H 0.60414 0.08486 0.36357 0.0
H95 H 0.58495 0.13015 0.36323 0.0
H96 H 0.59504 0.21391 0.31506 0.0
H97 H 0.62171 0.22945 0.28092 0.0
H98 H 0.67455 0.17997 0.21993 0.0
H99 H 0.68286 0.13101 0.21221 0.0
H100 H 0.66706 0.04631 0.25624 0.0
H101 H 0.65142 0.03454 0.29923 0.0
H102 H 0.59656 0.11567 0.20469 0.0
H103 H 0.55519 0.14506 0.25984 0.0
H104 H 0.7115 0.13097 0.30953 0.0
H105 H 0.66942 0.17104 0.35803 0.0
C106 C 0.88341 0.55347 0.22388 0.0
C107 C 0.89671 0.55502 0.20403 0.0
C108 C 0.90704 0.57833 0.20564 0.0
C109 C 0.89948 0.58962 0.22638 0.0
N110 N 0.88528 0.57462 0.23778 0.0
Co111 Co 0.86808 0.58371 0.26629 0.0
N112 N 0.87191 0.62063 0.26052 0.0
C113 C 0.88737 0.6312 0.24684 0.0
C114 C 0.88611 0.65741 0.24638 0.0
C115 C 0.869 0.66353 0.26086 0.0
C116 C 0.86077 0.64064 0.26953 0.0
N117 N 0.8505 0.59207 0.29475 0.0
C118 C 0.84073 0.61426 0.30065 0.0
C119 C 0.83045 0.61194 0.32276 0.0
C120 C 0.83418 0.58753 0.33085 0.0
C121 C 0.84651 0.57628 0.31339 0.0
N122 N 0.86456 0.54675 0.2719 0.0
C123 C 0.8596 0.53545 0.29289 0.0
C124 C 0.8571 0.50947 0.29048 0.0
C125 C 0.86054 0.50435 0.26646 0.0
C126 C 0.86505 0.52759 0.25555 0.0
N127 N 0.89425 0.58452 0.28675 0.0
C128 C 0.93337 0.59427 0.31125 0.0
C129 C 0.91473 0.60811 0.31642 0.0
C130 C 0.89573 0.60331 0.30388 0.0
C131 C 0.93156 0.57386 0.29476 0.0
C132 C 0.91174 0.56916 0.28282 0.0
N133 N 0.84214 0.58434 0.24601 0.0
C134 C 0.8035 0.5825 0.24294 0.0
C135 C 0.80406 0.59695 0.22165 0.0
C136 C 0.82401 0.60305 0.21179 0.0
C137 C 0.8428 0.59683 0.22434 0.0
C138 C 0.82283 0.57587 0.25459 0.0
H139 H 0.85777 0.60366 0.21716 0.0
H140 H 0.82209 0.56536 0.27132 0.0
H141 H 0.88258 0.61602 0.30741 0.0
H142 H 0.91082 0.55392 0.26968 0.0
C143 C 0.90031 0.61588 0.23186 0.0
C144 C 0.8696 0.53162 0.22985 0.0
C145 C 0.8436 0.63855 0.28765 0.0
C146 C 0.85184 0.55023 0.31206 0.0
H147 H 0.89836 0.54106 0.18975 0.0
H148 H 0.91747 0.58677 0.19228 0.0
H149 H 0.89594 0.6705 0.23611 0.0
H150 H 0.86336 0.68266 0.26474 0.0
H151 H 0.8217 0.62653 0.33244 0.0
H152 H 0.82821 0.57891 0.34723 0.0
H153 H 0.85175 0.49609 0.30406 0.0
H154 H 0.85928 0.48575 0.25813 0.0
H155 H 0.9149 0.62343 0.32957 0.0
H156 H 0.94548 0.56236 0.29034 0.0
H157 H 0.78828 0.57732 0.25099 0.0
H158 H 0.82508 0.61434 0.19545 0.0
C159 C 0.3742 0.93533 0.29726 0.0
C160 C 0.38701 0.93722 0.31782 0.0
C161 C 0.39943 0.91538 0.31866 0.0
C162 C 0.39352 0.90128 0.2987 0.0
N163 N 0.37829 0.91315 0.28547 0.0
Co164 Co 0.36283 0.89881 0.25718 0.0
N165 N 0.36999 0.86341 0.26648 0.0
C166 C 0.38606 0.85644 0.28157 0.0
C167 C 0.38732 0.83038 0.28433 0.0
C168 C 0.3712 0.82053 0.26989 0.0
C169 C 0.36096 0.84119 0.25902 0.0
N170 N 0.34707 0.88517 0.22885 0.0
C171 C 0.33953 0.86132 0.22477 0.0
C172 C 0.32968 0.85988 0.20215 0.0
C173 C 0.33138 0.88367 0.19187 0.0
C174 C 0.34214 0.89831 0.20863 0.0
N175 N 0.35595 0.93417 0.24793 0.0
C176 C 0.35067 0.94258 0.22575 0.0
C177 C 0.34634 0.96838 0.22545 0.0
C178 C 0.34898 0.97641 0.24896 0.0
C179 C 0.35472 0.95497 0.26221 0.0
N180 N 0.38941 0.89981 0.23805 0.0
C181 C 0.42946 0.89545 0.21514 0.0
C182 C 0.41322 0.87745 0.21115 0.0
C183 C 0.39361 0.87978 0.22288 0.0
C184 C 0.42497 0.9164 0.23017 0.0
C185 C 0.40465 0.91847 0.24112 0.0
N186 N 0.3366 0.89658 0.27634 0.0
C187 C 0.29798 0.89333 0.27808 0.0
C188 C 0.29955 0.88216 0.30102 0.0
C189 C 0.31977 0.88013 0.31202 0.0
C190 C 0.33805 0.88711 0.29932 0.0
C191 C 0.31676 0.90102 0.26624 0.0
H192 H 0.35341 0.88325 0.30764 0.0
H193 H 0.31534 0.90913 0.24839 0.0
H194 H 0.38226 0.86448 0.2204 0.0
H195 H 0.40155 0.93461 0.25275 0.0
C196 C 0.39701 0.87489 0.29558 0.0
C197 C 0.35868 0.95458 0.28833 0.0
C198 C 0.34389 0.83916 0.24043 0.0
C199 C 0.3449 0.92497 0.2077 0.0
H200 H 0.38718 0.95226 0.33115 0.0
H201 H 0.4102 0.90963 0.33314 0.0
H202 H 0.39814 0.81981 0.29605 0.0
H203 H 0.36751 0.80046 0.26753 0.0
H204 H 0.32245 0.84328 0.19371 0.0
H205 H 0.32502 0.88968 0.17453 0.0
H206 H 0.34051 0.97965 0.21038 0.0
H207 H 0.34644 0.99558 0.25573 0.0
H208 H 0.41606 0.86075 0.20006 0.0
H209 H 0.43713 0.93079 0.23371 0.0
H210 H 0.2825 0.89527 0.2691 0.0
H211 H 0.3216 0.87137 0.32965 0.0
C212 C 0.11509 0.55623 0.78345 0.0
C213 C 0.10029 0.55749 0.80193 0.0
C214 C 0.08912 0.58005 0.79867 0.0
C215 C 0.09772 0.59121 0.77839 0.0
N216 N 0.11339 0.57683 0.76881 0.0
Co217 Co 0.13234 0.58621 0.74179 0.0
N218 N 0.12629 0.62298 0.7459 0.0
C219 C 0.10933 0.63286 0.75771 0.0
C220 C 0.10918 0.6591 0.75731 0.0
C221 C 0.12695 0.66599 0.7442 0.0
C222 C 0.13696 0.64348 0.73715 0.0
N223 N 0.15186 0.59489 0.71501 0.0
C224 C 0.16091 0.61756 0.70927 0.0
C225 C 0.17314 0.61521 0.68846 0.0
C226 C 0.17139 0.5903 0.68099 0.0
C227 C 0.15823 0.57878 0.69749 0.0
N228 N 0.13794 0.54938 0.73766 0.0
C229 C 0.14508 0.53782 0.71763 0.0
C230 C 0.14825 0.51205 0.72094 0.0
C231 C 0.14291 0.50735 0.74457 0.0
C232 C 0.13671 0.53061 0.75431 0.0
N233 N 0.10786 0.58466 0.71885 0.0
C234 C 0.06987 0.59262 0.69173 0.0
C235 C 0.08864 0.60636 0.68694 0.0
C236 C 0.10707 0.60248 0.70077 0.0
C237 C 0.07112 0.57291 0.70899 0.0
C238 C 0.09042 0.56904 0.72221 0.0
N239 N 0.15647 0.58922 0.76456 0.0
C240 C 0.19471 0.58928 0.77223 0.0
C241 C 0.19182 0.60535 0.79225 0.0
C242 C 0.1708 0.61084 0.79943 0.0
C243 C 0.15346 0.60277 0.78535 0.0
C244 C 0.17673 0.58124 0.75869 0.0
H245 H 0.13767 0.60895 0.79062 0.0
H246 H 0.1793 0.56994 0.74267 0.0
H247 H 0.12016 0.61536 0.69757 0.0
H248 H 0.09084 0.55441 0.73597 0.0
C249 C 0.09607 0.61715 0.77196 0.0
C250 C 0.13005 0.535 0.77929 0.0
C251 C 0.15544 0.64213 0.72066 0.0
C252 C 0.1539 0.5525 0.699 0.0
H253 H 0.09812 0.54381 0.81636 0.0
H254 H 0.07731 0.58816 0.8107 0.0
H255 H 0.09794 0.67176 0.76613 0.0
H256 H 0.13183 0.68536 0.74012 0.0
H257 H 0.18183 0.63007 0.67909 0.0
H258 H 0.17908 0.58158 0.66559 0.0
H259 H 0.1552 0.49863 0.70835 0.0
H260 H 0.14405 0.48906 0.75353 0.0
H261 H 0.0889 0.62111 0.67322 0.0
H262 H 0.05711 0.56145 0.71311 0.0
H263 H 0.2107 0.58433 0.76616 0.0
H264 H 0.16774 0.62248 0.8152 0.0
C265 C 0.38037 0.09725 0.69103 0.0
C266 C 0.39521 0.0987 0.67258 0.0
C267 C 0.40591 0.1216 0.67562 0.0
C268 C 0.39697 0.1328 0.69568 0.0
N269 N 0.38154 0.11814 0.70535 0.0
Co270 Co 0.36249 0.12727 0.73238 0.0
N271 N 0.36785 0.16409 0.72783 0.0
C272 C 0.38464 0.17431 0.71601 0.0
C273 C 0.38428 0.20056 0.71618 0.0
C274 C 0.3663 0.20708 0.7291 0.0
C275 C 0.35666 0.18436 0.7362 0.0
N276 N 0.34302 0.13579 0.75922 0.0
C277 C 0.33341 0.15825 0.76451 0.0
C278 C 0.32114 0.15593 0.78528 0.0
C279 C 0.32347 0.1312 0.7932 0.0
C280 C 0.33698 0.11977 0.77697 0.0
N281 N 0.35747 0.09046 0.73688 0.0
C282 C 0.35047 0.07883 0.75694 0.0
C283 C 0.34744 0.05299 0.75352 0.0
C284 C 0.35273 0.04842 0.72982 0.0
C285 C 0.35866 0.07178 0.7202 0.0
N286 N 0.38699 0.12634 0.75518 0.0
C287 C 0.42388 0.13154 0.78496 0.0
C288 C 0.40537 0.14628 0.78871 0.0
C289 C 0.38765 0.14398 0.77339 0.0
C290 C 0.42282 0.11277 0.76668 0.0
C291 C 0.40409 0.11017 0.75233 0.0
N292 N 0.33817 0.12925 0.70987 0.0
C293 C 0.29993 0.12724 0.70314 0.0
C294 C 0.30201 0.14223 0.68237 0.0
C295 C 0.32259 0.14876 0.67453 0.0
C296 C 0.34045 0.14227 0.68864 0.0
C297 C 0.31831 0.12048 0.7164 0.0
H298 H 0.35596 0.14921 0.68309 0.0
H299 H 0.31634 0.10952 0.73272 0.0
H300 H 0.37476 0.15734 0.77604 0.0
H301 H 0.40376 0.09576 0.73836 0.0
C302 C 0.3982 0.15884 0.70189 0.0
C303 C 0.36539 0.07607 0.6953 0.0
C304 C 0.338 0.18264 0.75236 0.0
C305 C 0.34157 0.09349 0.77559 0.0
H306 H 0.3977 0.08502 0.65823 0.0
H307 H 0.4176 0.12989 0.66354 0.0
H308 H 0.39531 0.21345 0.70732 0.0
H309 H 0.361 0.22634 0.73301 0.0
H310 H 0.3119 0.17069 0.79412 0.0
H311 H 0.31579 0.12249 0.80861 0.0
H312 H 0.34063 0.03946 0.76611 0.0
H313 H 0.35182 0.03025 0.72052 0.0
H314 H 0.40444 0.16017 0.80311 0.0
H315 H 0.43647 0.10065 0.76282 0.0
H316 H 0.28418 0.12174 0.70959 0.0
H317 H 0.32476 0.16047 0.65861 0.0
C318 C 0.87345 0.44333 0.79473 0.0
C319 C 0.88809 0.44821 0.81323 0.0
C320 C 0.90157 0.42732 0.81452 0.0
C321 C 0.89442 0.41075 0.79691 0.0
N322 N 0.87746 0.42022 0.78464 0.0
Co323 Co 0.86013 0.40195 0.76002 0.0
N324 N 0.86974 0.36821 0.7719 0.0
C325 C 0.88735 0.36386 0.78562 0.0
C326 C 0.88995 0.33841 0.79104 0.0
C327 C 0.87306 0.32613 0.77976 0.0
C328 C 0.86107 0.34481 0.76794 0.0
N329 N 0.84261 0.38429 0.7352 0.0
C330 C 0.83609 0.35966 0.73422 0.0
C331 C 0.8245 0.35513 0.71304 0.0
C332 C 0.824 0.37774 0.70046 0.0
C333 C 0.83529 0.39481 0.7145 0.0
N334 N 0.85065 0.43568 0.74839 0.0
C335 C 0.84286 0.44125 0.72634 0.0
C336 C 0.837 0.46655 0.72429 0.0
C337 C 0.84133 0.47724 0.74653 0.0
C338 C 0.84953 0.45778 0.76086 0.0
N339 N 0.88448 0.40225 0.73756 0.0
C340 C 0.91949 0.39967 0.70571 0.0
C341 C 0.91517 0.42218 0.71875 0.0
C342 C 0.89748 0.42311 0.73453 0.0
C343 C 0.90591 0.37871 0.70917 0.0
C344 C 0.88871 0.38037 0.72493 0.0
N345 N 0.83597 0.40059 0.78229 0.0
C346 C 0.79789 0.39556 0.78795 0.0
C347 C 0.80167 0.38596 0.81118 0.0
C348 C 0.82262 0.38596 0.82045 0.0
C349 C 0.83958 0.3932 0.80566 0.0
C350 C 0.81531 0.40334 0.77393 0.0
H351 H 0.85571 0.39106 0.81266 0.0
H352 H 0.8122 0.40991 0.75577 0.0
H353 H 0.89437 0.44054 0.74438 0.0
H354 H 0.87898 0.36355 0.72702 0.0
C355 C 0.89875 0.38437 0.79613 0.0
C356 C 0.85608 0.46048 0.78624 0.0
C357 C 0.84285 0.33963 0.75138 0.0
C358 C 0.83647 0.42138 0.71079 0.0
H359 H 0.88886 0.46457 0.82504 0.0
H360 H 0.9139 0.4238 0.82804 0.0
H361 H 0.90221 0.32987 0.80247 0.0
H362 H 0.87008 0.30576 0.78 0.0
H363 H 0.81752 0.33726 0.70701 0.0
H364 H 0.81589 0.38141 0.68344 0.0
H365 H 0.82914 0.47572 0.70908 0.0
H366 H 0.83833 0.49682 0.75184 0.0
H367 H 0.92525 0.43891 0.71671 0.0
H368 H 0.90878 0.36065 0.70019 0.0
H369 H 0.78177 0.39587 0.78032 0.0
H370 H 0.82605 0.37852 0.83833 0.0
C371 C 0.63097 0.93403 0.69919 0.0
C372 C 0.6179 0.93737 0.67901 0.0
C373 C 0.60505 0.91593 0.67734 0.0
C374 C 0.61097 0.90059 0.69646 0.0
N375 N 0.62659 0.91134 0.70997 0.0
Co376 Co 0.64229 0.89501 0.73708 0.0
N377 N 0.63451 0.86037 0.726 0.0
C378 C 0.61808 0.85463 0.71093 0.0
C379 C 0.61641 0.82881 0.70677 0.0
C380 C 0.63265 0.8178 0.72027 0.0
C381 C 0.64336 0.83758 0.73203 0.0
N382 N 0.65835 0.87941 0.76424 0.0
C383 C 0.66565 0.85523 0.76684 0.0
C384 C 0.67585 0.85226 0.78913 0.0
C385 C 0.67462 0.87541 0.80073 0.0
C386 C 0.66377 0.89122 0.78504 0.0
N387 N 0.64979 0.92963 0.74807 0.0
C388 C 0.6555 0.9366 0.77055 0.0
C389 C 0.66029 0.96225 0.77209 0.0
C390 C 0.65752 0.97169 0.74907 0.0
C391 C 0.65124 0.95119 0.73483 0.0
N392 N 0.61606 0.89519 0.75688 0.0
C393 C 0.5768 0.89028 0.78147 0.0
C394 C 0.5928 0.87165 0.78352 0.0
C395 C 0.61198 0.87428 0.77101 0.0
C396 C 0.58108 0.91198 0.76731 0.0
C397 C 0.60101 0.91428 0.75547 0.0
N398 N 0.66816 0.89354 0.71726 0.0
C399 C 0.7067 0.88988 0.71464 0.0
C400 C 0.70469 0.8798 0.69128 0.0
C401 C 0.68428 0.87861 0.68058 0.0
C402 C 0.66627 0.88528 0.69391 0.0
C403 C 0.68818 0.8972 0.72716 0.0
H404 H 0.65073 0.88212 0.68571 0.0
H405 H 0.68995 0.90439 0.74533 0.0
H406 H 0.62312 0.85861 0.77214 0.0
H407 H 0.60399 0.93104 0.74461 0.0
C408 C 0.60716 0.87412 0.69821 0.0
C409 C 0.64705 0.95234 0.70876 0.0
C410 C 0.66069 0.83412 0.75011 0.0
C411 C 0.66135 0.91782 0.78749 0.0
H412 H 0.61781 0.95309 0.66641 0.0
H413 H 0.594 0.91125 0.66278 0.0
H414 H 0.60525 0.81917 0.69473 0.0
H415 H 0.6361 0.79757 0.72144 0.0
H416 H 0.68299 0.83506 0.79651 0.0
H417 H 0.68133 0.88024 0.81824 0.0
H418 H 0.66656 0.97249 0.78761 0.0
H419 H 0.66035 0.99114 0.74325 0.0
H420 H 0.59011 0.85436 0.79383 0.0
H421 H 0.5691 0.92687 0.76524 0.0
H422 H 0.72232 0.89125 0.7234 0.0
H423 H 0.68207 0.87075 0.66263 0.0
C424 C 0.26953 0.10456 0.38761 0.0
C425 C 0.28665 0.10902 0.40332 0.0
C426 C 0.28503 0.13417 0.41056 0.0
C427 C 0.26708 0.14373 0.39898 0.0
N428 N 0.25737 0.12595 0.3852 0.0
Co429 Co 0.23274 0.13154 0.36303 0.0
N430 N 0.23863 0.16845 0.36087 0.0
C431 C 0.25007 0.18213 0.3771 0.0
C432 C 0.25079 0.20765 0.37134 0.0
C433 C 0.2389 0.21002 0.3504 0.0
C434 C 0.23158 0.1857 0.34444 0.0
N435 N 0.20824 0.13632 0.34046 0.0
C436 C 0.20415 0.15583 0.32507 0.0
C437 C 0.18539 0.15114 0.31192 0.0
C438 C 0.17734 0.12823 0.31995 0.0
C439 C 0.19162 0.12005 0.33736 0.0
N440 N 0.22693 0.09473 0.36567 0.0
C441 C 0.20819 0.08283 0.36107 0.0
C442 C 0.20984 0.05673 0.36381 0.0
C443 C 0.23099 0.05223 0.37027 0.0
C444 C 0.24098 0.07588 0.37105 0.0
N445 N 0.2136 0.13873 0.39047 0.0
C446 C 0.19005 0.15703 0.43028 0.0
C447 C 0.18625 0.16621 0.40689 0.0
C448 C 0.19837 0.15741 0.38766 0.0
C449 C 0.20494 0.13686 0.43296 0.0
C450 C 0.21635 0.12776 0.41274 0.0
N451 N 0.25173 0.12568 0.33564 0.0
C452 C 0.25669 0.11328 0.29422 0.0
C453 C 0.27627 0.1266 0.29365 0.0
C454 C 0.28391 0.13796 0.31488 0.0
C455 C 0.27137 0.13749 0.33552 0.0
C456 C 0.24482 0.11265 0.31561 0.0
H457 H 0.27711 0.148 0.35098 0.0
H458 H 0.22961 0.10268 0.31564 0.0
H459 H 0.19584 0.16683 0.37066 0.0
H460 H 0.22799 0.11262 0.4153 0.0
C461 C 0.2625 0.16977 0.39505 0.0
C462 C 0.26401 0.08014 0.37566 0.0
C463 C 0.21631 0.18003 0.32461 0.0
C464 C 0.19191 0.09572 0.34819 0.0
H465 H 0.29919 0.09598 0.40887 0.0
H466 H 0.29655 0.14466 0.4215 0.0
H467 H 0.25942 0.22264 0.3808 0.0
H468 H 0.23573 0.22769 0.34085 0.0
H469 H 0.17808 0.16314 0.29822 0.0
H470 H 0.16316 0.11837 0.31329 0.0
H471 H 0.19769 0.04251 0.35968 0.0
H472 H 0.23843 0.03375 0.37311 0.0
H473 H 0.17432 0.18083 0.40327 0.0
H474 H 0.20839 0.12877 0.45055 0.0
H475 H 0.25037 0.10407 0.27815 0.0
H476 H 0.29884 0.14867 0.31516 0.0
C477 C 0.9077 0.2435 0.41756 0.0
C478 C 0.92021 0.22192 0.4142 0.0
C479 C 0.92756 0.2231 0.39079 0.0
C480 C 0.91915 0.24533 0.38123 0.0
N481 N 0.90725 0.25805 0.39739 0.0
Co482 Co 0.88959 0.28873 0.39134 0.0
N483 N 0.88851 0.28213 0.35632 0.0
C484 C 0.90231 0.26719 0.34409 0.0
C485 C 0.89756 0.26634 0.31984 0.0
C486 C 0.87989 0.2819 0.31676 0.0
C487 C 0.87487 0.29159 0.33937 0.0
N488 N 0.87148 0.31925 0.38598 0.0
C489 C 0.85893 0.32541 0.3668 0.0
C490 C 0.84937 0.34916 0.3702 0.0
C491 C 0.85643 0.35803 0.39222 0.0
C492 C 0.86989 0.33935 0.40104 0.0
N493 N 0.89109 0.29526 0.42631 0.0
C494 C 0.88802 0.31782 0.43733 0.0
C495 C 0.88877 0.31562 0.46204 0.0
C496 C 0.89231 0.29011 0.46662 0.0
C497 C 0.89365 0.2781 0.44433 0.0
N498 N 0.91561 0.3095 0.38615 0.0
C499 C 0.95353 0.33469 0.37181 0.0
C500 C 0.9336 0.34033 0.36109 0.0
C501 C 0.91515 0.3274 0.36814 0.0
C502 C 0.95377 0.31727 0.39121 0.0
C503 C 0.93456 0.30506 0.39825 0.0
N504 N 0.86372 0.26806 0.39552 0.0
C505 C 0.82746 0.26288 0.40964 0.0
C506 C 0.82538 0.24 0.39656 0.0
C507 C 0.84322 0.23107 0.38383 0.0
C508 C 0.86212 0.24529 0.38355 0.0
C509 C 0.84682 0.27658 0.40895 0.0
H510 H 0.87525 0.23815 0.37297 0.0
H511 H 0.84797 0.2944 0.4187 0.0
H512 H 0.90066 0.33131 0.35807 0.0
H513 H 0.93518 0.29132 0.4128 0.0
C514 C 0.9168 0.25098 0.3565 0.0
C515 C 0.89695 0.2506 0.4401 0.0
C516 C 0.85814 0.31094 0.34404 0.0
C517 C 0.87863 0.33817 0.4245 0.0
H518 H 0.92327 0.2068 0.42712 0.0
H519 H 0.93652 0.20848 0.38138 0.0
H520 H 0.9054 0.25498 0.30616 0.0
H521 H 0.87174 0.28569 0.2998 0.0
H522 H 0.83886 0.35933 0.35782 0.0
H523 H 0.85187 0.3757 0.40096 0.0
H524 H 0.88534 0.33033 0.4752 0.0
H525 H 0.8931 0.28159 0.48434 0.0
H526 H 0.93217 0.35426 0.34672 0.0
H527 H 0.96871 0.31233 0.40028 0.0
H528 H 0.81412 0.27038 0.41992 0.0
H529 H 0.84236 0.21377 0.37314 0.0
C530 C 0.78438 0.87469 0.43348 0.0
C531 C 0.80158 0.89149 0.43252 0.0
C532 C 0.79914 0.90512 0.41135 0.0
C533 C 0.78059 0.89589 0.40065 0.0
N534 N 0.77137 0.8775 0.41397 0.0
Co535 Co 0.7458 0.85712 0.40505 0.0
N536 N 0.74945 0.86467 0.37047 0.0
C537 C 0.76068 0.88437 0.36131 0.0
C538 C 0.76004 0.88476 0.3365 0.0
C539 C 0.74753 0.86415 0.32986 0.0
C540 C 0.74123 0.85226 0.35106 0.0
N541 N 0.72024 0.83645 0.39651 0.0
C542 C 0.71466 0.82605 0.37503 0.0
C543 C 0.69538 0.81272 0.37688 0.0
C544 C 0.68872 0.81528 0.40034 0.0
C545 C 0.70423 0.82991 0.41152 0.0
N546 N 0.74223 0.84984 0.43969 0.0
C547 C 0.72402 0.84229 0.4505 0.0
C548 C 0.7271 0.83754 0.47469 0.0
C549 C 0.74856 0.84231 0.47914 0.0
C550 C 0.75738 0.84986 0.45735 0.0
N551 N 0.72739 0.88753 0.40763 0.0
C552 C 0.70337 0.93296 0.40604 0.0
C553 C 0.69937 0.91322 0.38965 0.0
C554 C 0.71156 0.89099 0.39059 0.0
C555 C 0.71934 0.92927 0.42383 0.0
C556 C 0.73096 0.90616 0.42456 0.0
N557 N 0.76398 0.82697 0.40144 0.0
C558 C 0.767 0.78119 0.40028 0.0
C559 C 0.78507 0.78316 0.3854 0.0
C560 C 0.79338 0.80743 0.3805 0.0
C561 C 0.78259 0.82903 0.3886 0.0
C562 C 0.75687 0.80341 0.40846 0.0
H563 H 0.78855 0.8474 0.38302 0.0
H564 H 0.74255 0.80155 0.4192 0.0
H565 H 0.70861 0.87701 0.37672 0.0
H566 H 0.74324 0.90363 0.4383 0.0
C567 C 0.77448 0.89894 0.37627 0.0
C568 C 0.77995 0.85705 0.45343 0.0
C569 C 0.72623 0.83054 0.35238 0.0
C570 C 0.70642 0.83389 0.43651 0.0
H571 H 0.81456 0.89341 0.44556 0.0
H572 H 0.81033 0.91883 0.40395 0.0
H573 H 0.76833 0.89781 0.32462 0.0
H574 H 0.74343 0.85861 0.31157 0.0
H575 H 0.68692 0.80243 0.36276 0.0
H576 H 0.67469 0.80664 0.40845 0.0
H577 H 0.71556 0.82977 0.48724 0.0
H578 H 0.75669 0.83992 0.49632 0.0
H579 H 0.68751 0.91538 0.37532 0.0
H580 H 0.72292 0.94414 0.43686 0.0
H581 H 0.76033 0.7627 0.40483 0.0
H582 H 0.80727 0.80983 0.36903 0.0
C583 C 0.115 0.75619 0.42451 0.0
C584 C 0.09985 0.77557 0.42524 0.0
C585 C 0.08833 0.77411 0.40385 0.0
C586 C 0.09709 0.75392 0.39132 0.0
N587 N 0.11318 0.74273 0.40375 0.0
Co588 Co 0.13217 0.71517 0.39221 0.0
N589 N 0.12552 0.72295 0.35813 0.0
C590 C 0.10827 0.73612 0.35005 0.0
C591 C 0.10813 0.7386 0.32536 0.0
C592 C 0.12628 0.72603 0.31762 0.0
C593 C 0.13649 0.71638 0.33808 0.0
N594 N 0.15141 0.6876 0.38125 0.0
C595 C 0.16036 0.68404 0.3594 0.0
C596 C 0.1724 0.66163 0.35917 0.0
C597 C 0.17076 0.65099 0.38174 0.0
C598 C 0.1578 0.66732 0.39446 0.0
N599 N 0.13859 0.70746 0.42632 0.0
C600 C 0.14607 0.68524 0.4352 0.0
C601 C 0.14993 0.68647 0.45966 0.0
C602 C 0.14464 0.711 0.46633 0.0
C603 C 0.13774 0.72336 0.4455 0.0
N604 N 0.10792 0.69091 0.39212 0.0
C605 C 0.07041 0.66148 0.38565 0.0
C606 C 0.08774 0.65912 0.36994 0.0
C607 C 0.10608 0.67404 0.3733 0.0
C608 C 0.07266 0.67802 0.40553 0.0
C609 C 0.09173 0.69226 0.40867 0.0
N610 N 0.1561 0.73943 0.39117 0.0
C611 C 0.19414 0.74821 0.39251 0.0
C612 C 0.19059 0.77202 0.38158 0.0
C613 C 0.16948 0.77971 0.37677 0.0
C614 C 0.15256 0.76309 0.3814 0.0
C615 C 0.17656 0.73236 0.39763 0.0
H616 H 0.13667 0.76904 0.37594 0.0
H617 H 0.17956 0.71394 0.40578 0.0
H618 H 0.11828 0.67276 0.35972 0.0
H619 H 0.09302 0.70515 0.42385 0.0
C620 C 0.09505 0.74953 0.36631 0.0
C621 C 0.13045 0.75 0.44387 0.0
C622 C 0.15576 0.6999 0.33808 0.0
C623 C 0.15426 0.66665 0.41947 0.0
H624 H 0.09766 0.78945 0.43949 0.0
H625 H 0.07617 0.78739 0.39752 0.0
H626 H 0.09676 0.7492 0.31435 0.0
H627 H 0.13136 0.72424 0.29907 0.0
H628 H 0.18114 0.65357 0.34417 0.0
H629 H 0.17862 0.63382 0.38826 0.0
H630 H 0.15721 0.67193 0.471 0.0
H631 H 0.14617 0.71885 0.4843 0.0
H632 H 0.08666 0.64697 0.35413 0.0
H633 H 0.05964 0.68034 0.41823 0.0
H634 H 0.21035 0.74171 0.39652 0.0
H635 H 0.16614 0.79787 0.3681 0.0
C636 C 0.21527 0.87685 0.572 0.0
C637 C 0.19769 0.89311 0.57143 0.0
C638 C 0.19856 0.90709 0.59253 0.0
C639 C 0.21662 0.89859 0.60472 0.0
N640 N 0.22704 0.88035 0.59239 0.0
Co641 Co 0.25233 0.86067 0.60357 0.0
N642 N 0.24638 0.86851 0.6377 0.0
C643 C 0.2341 0.88793 0.64566 0.0
C644 C 0.23316 0.88874 0.67042 0.0
C645 C 0.24577 0.86877 0.67834 0.0
C646 C 0.25379 0.85684 0.65791 0.0
N647 N 0.27757 0.84055 0.61431 0.0
C648 C 0.28213 0.83071 0.63632 0.0
C649 C 0.30178 0.81797 0.63607 0.0
C650 C 0.30969 0.82024 0.6131 0.0
C651 C 0.29455 0.83419 0.6006 0.0
N652 N 0.25817 0.85316 0.56938 0.0
C653 C 0.27712 0.84593 0.56008 0.0
C654 C 0.2756 0.84077 0.53579 0.0
C655 C 0.25435 0.84488 0.52966 0.0
C656 C 0.24411 0.85247 0.55062 0.0
N657 N 0.2705 0.89144 0.60227 0.0
C658 C 0.29452 0.93682 0.60531 0.0
C659 C 0.29756 0.91719 0.622 0.0
C660 C 0.28533 0.89505 0.62038 0.0
C661 C 0.27941 0.9332 0.58658 0.0
C662 C 0.26779 0.91007 0.58513 0.0
N663 N 0.23442 0.83015 0.606 0.0
C664 C 0.23251 0.78433 0.60769 0.0
C665 C 0.21385 0.78586 0.62167 0.0
C666 C 0.2046 0.80987 0.62554 0.0
C667 C 0.21514 0.83174 0.61761 0.0
C668 C 0.24238 0.80676 0.59968 0.0
H669 H 0.20845 0.84999 0.62247 0.0
H670 H 0.25723 0.80524 0.58982 0.0
H671 H 0.28753 0.88121 0.63452 0.0
H672 H 0.25626 0.9075 0.57061 0.0
C673 C 0.22104 0.90196 0.62948 0.0
C674 C 0.22119 0.85899 0.55274 0.0
C675 C 0.26963 0.83587 0.65823 0.0
C676 C 0.2939 0.83798 0.5755 0.0
H677 H 0.18545 0.89441 0.55745 0.0
H678 H 0.18662 0.92049 0.59891 0.0
H679 H 0.22382 0.90168 0.68141 0.0
H680 H 0.24882 0.86369 0.697 0.0
H681 H 0.30977 0.80846 0.651 0.0
H682 H 0.3244 0.81202 0.60621 0.0
H683 H 0.288 0.83308 0.52427 0.0
H684 H 0.2473 0.842 0.51197 0.0
H685 H 0.30874 0.91938 0.637 0.0
H686 H 0.27656 0.94807 0.57334 0.0
H687 H 0.2399 0.76603 0.60387 0.0
H688 H 0.19018 0.81195 0.63623 0.0
C689 C 0.09915 0.24804 0.57794 0.0
C690 C 0.08564 0.227 0.57735 0.0
C691 C 0.07596 0.22589 0.59965 0.0
C692 C 0.08409 0.24632 0.61253 0.0
N693 N 0.09802 0.2601 0.59946 0.0
Co694 Co 0.11559 0.28911 0.61089 0.0
N695 N 0.1129 0.27844 0.64489 0.0
C696 C 0.09772 0.26266 0.65363 0.0
C697 C 0.10008 0.2587 0.67803 0.0
C698 C 0.11764 0.27309 0.68491 0.0
C699 C 0.12501 0.28522 0.66428 0.0
N700 N 0.13321 0.31835 0.6218 0.0
C701 C 0.14361 0.32195 0.64304 0.0
C702 C 0.15349 0.34581 0.64355 0.0
C703 C 0.14892 0.35735 0.62183 0.0
C704 C 0.1365 0.34006 0.60931 0.0
N705 N 0.11819 0.29945 0.57687 0.0
C706 C 0.12297 0.32293 0.56868 0.0
C707 C 0.1252 0.32338 0.54403 0.0
C708 C 0.12176 0.29864 0.53649 0.0
C709 C 0.11744 0.28441 0.55704 0.0
N710 N 0.0896 0.31019 0.61451 0.0
C711 C 0.05174 0.33813 0.62347 0.0
C712 C 0.06914 0.33861 0.63968 0.0
C713 C 0.08771 0.32475 0.63489 0.0
C714 C 0.05391 0.32355 0.60225 0.0
C715 C 0.07303 0.30979 0.59806 0.0
N716 N 0.14146 0.26815 0.60816 0.0
C717 C 0.17959 0.26464 0.60166 0.0
C718 C 0.17944 0.23986 0.61119 0.0
C719 C 0.15986 0.22905 0.61795 0.0
C720 C 0.14114 0.24358 0.61658 0.0
C721 C 0.16028 0.27833 0.59986 0.0
H722 H 0.12654 0.23522 0.62333 0.0
H723 H 0.16069 0.29751 0.59273 0.0
H724 H 0.10035 0.32538 0.64826 0.0
H725 H 0.07432 0.2985 0.58181 0.0
C726 C 0.08412 0.24882 0.63784 0.0
C727 C 0.11258 0.25687 0.55792 0.0
C728 C 0.14235 0.30449 0.66378 0.0
C729 C 0.13076 0.34159 0.58475 0.0
H730 H 0.08345 0.21364 0.56262 0.0
H731 H 0.06563 0.21082 0.60624 0.0
H732 H 0.0907 0.24612 0.68934 0.0
H733 H 0.12414 0.27456 0.70304 0.0
H734 H 0.16269 0.35422 0.6582 0.0
H735 H 0.15454 0.37579 0.61568 0.0
H736 H 0.1304 0.33928 0.53303 0.0
H737 H 0.12293 0.29206 0.51809 0.0
H738 H 0.06826 0.34892 0.65659 0.0
H739 H 0.04097 0.32265 0.58905 0.0
H740 H 0.19455 0.27356 0.59632 0.0
H741 H 0.15924 0.21003 0.62567 0.0
C742 C 0.7383 0.10272 0.61219 0.0
C743 C 0.72093 0.10731 0.59687 0.0
C744 C 0.72267 0.13235 0.58937 0.0
C745 C 0.74091 0.14177 0.60047 0.0
N746 N 0.75069 0.12399 0.61418 0.0
Co747 Co 0.77566 0.12953 0.63588 0.0
N748 N 0.77005 0.16651 0.63787 0.0
C749 C 0.75856 0.18019 0.62169 0.0
C750 C 0.75807 0.20575 0.62729 0.0
C751 C 0.77016 0.20816 0.64809 0.0
C752 C 0.77735 0.1838 0.65414 0.0
N753 N 0.80047 0.13431 0.65802 0.0
C754 C 0.80481 0.15388 0.67328 0.0
C755 C 0.82368 0.14911 0.6862 0.0
C756 C 0.83153 0.12611 0.67814 0.0
C757 C 0.81703 0.11793 0.66095 0.0
N758 N 0.78114 0.09264 0.63345 0.0
C759 C 0.79985 0.0806 0.63787 0.0
C760 C 0.79793 0.05448 0.63558 0.0
C761 C 0.77664 0.05011 0.62963 0.0
C762 C 0.76682 0.07386 0.62869 0.0
N763 N 0.79448 0.13632 0.60806 0.0
C764 C 0.81796 0.15384 0.56786 0.0
C765 C 0.82196 0.16326 0.59112 0.0
C766 C 0.80988 0.15486 0.61053 0.0
C767 C 0.80284 0.13385 0.5655 0.0
C768 C 0.79147 0.12515 0.58591 0.0
N769 N 0.75705 0.12405 0.66363 0.0
C770 C 0.75273 0.11164 0.70512 0.0
C771 C 0.73342 0.12545 0.70624 0.0
C772 C 0.72552 0.13701 0.68521 0.0
C773 C 0.7376 0.13625 0.66423 0.0
C774 C 0.76415 0.11081 0.68345 0.0
H775 H 0.73171 0.14683 0.64888 0.0
H776 H 0.7792 0.10054 0.68304 0.0
H777 H 0.8126 0.16445 0.62742 0.0
H778 H 0.77967 0.11014 0.58361 0.0
C779 C 0.74578 0.16779 0.60408 0.0
C780 C 0.74378 0.07832 0.62425 0.0
C781 C 0.79264 0.17808 0.67393 0.0
C782 C 0.8164 0.09349 0.65034 0.0
H783 H 0.7081 0.09446 0.59179 0.0
H784 H 0.71104 0.14291 0.57864 0.0
H785 H 0.74944 0.22075 0.61786 0.0
H786 H 0.77353 0.22586 0.6575 0.0
H787 H 0.83117 0.16106 0.69982 0.0
H788 H 0.8457 0.11615 0.6847 0.0
H789 H 0.81001 0.04019 0.6397 0.0
H790 H 0.76902 0.03168 0.6272 0.0
H791 H 0.83405 0.17776 0.5945 0.0
H792 H 0.79923 0.1256 0.54802 0.0
H793 H 0.75923 0.10222 0.721 0.0
H794 H 0.71077 0.14806 0.68533 0.0
C795 C 0.89094 0.75348 0.57529 0.0
C796 C 0.90613 0.77282 0.5759 0.0
C797 C 0.91698 0.77038 0.59763 0.0
C798 C 0.90781 0.74969 0.60901 0.0
N799 N 0.89208 0.7391 0.59554 0.0
Co800 Co 0.8726 0.71121 0.60526 0.0
N801 N 0.87825 0.71746 0.63984 0.0
C802 C 0.8953 0.73016 0.64906 0.0
C803 C 0.89479 0.73147 0.67382 0.0
C804 C 0.87644 0.71859 0.6804 0.0
C805 C 0.86677 0.70992 0.65922 0.0
N806 N 0.85282 0.68338 0.61435 0.0
C807 C 0.84329 0.67879 0.63571 0.0
C808 C 0.83112 0.65649 0.63453 0.0
C809 C 0.83331 0.64696 0.6116 0.0
C810 C 0.8467 0.6638 0.60008 0.0
N811 N 0.86727 0.70499 0.57064 0.0
C812 C 0.86 0.68323 0.56062 0.0
C813 C 0.85705 0.68546 0.53609 0.0
C814 C 0.86271 0.71019 0.53057 0.0
C815 C 0.86889 0.72164 0.55213 0.0
N816 N 0.89671 0.68679 0.60537 0.0
C817 C 0.93421 0.65759 0.61258 0.0
C818 C 0.9163 0.65436 0.62734 0.0
C819 C 0.89795 0.66915 0.62359 0.0
C820 C 0.9325 0.67475 0.59312 0.0
C821 C 0.91344 0.68888 0.58959 0.0
N822 N 0.84882 0.73567 0.60624 0.0
C823 C 0.81118 0.74593 0.60184 0.0
C824 C 0.81462 0.76939 0.61349 0.0
C825 C 0.83547 0.77595 0.62066 0.0
C826 C 0.85222 0.75879 0.61715 0.0
C827 C 0.82865 0.72946 0.598 0.0
H828 H 0.86785 0.76403 0.62403 0.0
H829 H 0.82578 0.71141 0.5891 0.0
H830 H 0.88525 0.66721 0.63653 0.0
H831 H 0.91261 0.70234 0.57482 0.0
C832 C 0.90907 0.7442 0.63387 0.0
C833 C 0.87611 0.74818 0.55511 0.0
C834 C 0.8476 0.6933 0.65796 0.0
C835 C 0.85112 0.66411 0.57526 0.0
H836 H 0.90878 0.7873 0.5623 0.0
H837 H 0.92897 0.78332 0.60495 0.0
H838 H 0.90591 0.74147 0.68565 0.0
H839 H 0.8709 0.71588 0.69867 0.0
H840 H 0.822 0.64768 0.64886 0.0
H841 H 0.82562 0.63014 0.6041 0.0
H842 H 0.85012 0.67145 0.52391 0.0
H843 H 0.86188 0.71874 0.51284 0.0
H844 H 0.9169 0.64168 0.64279 0.0
H845 H 0.94594 0.6777 0.58112 0.0
H846 H 0.79515 0.74028 0.5961 0.0
H847 H 0.83867 0.79378 0.62999 0.0
C848 C 0.40235 0.2864 0.0949 0.0
C849 C 0.41466 0.30752 0.10101 0.0
C850 C 0.42303 0.30272 0.12373 0.0
C851 C 0.41536 0.27896 0.13014 0.0
N852 N 0.40291 0.26874 0.11271 0.0
Co853 Co 0.38629 0.23663 0.11456 0.0
N854 N 0.38703 0.23699 0.15016 0.0
C855 C 0.40117 0.25012 0.16398 0.0
C856 C 0.39774 0.2465 0.1882 0.0
C857 C 0.3806 0.22993 0.18953 0.0
C858 C 0.37454 0.22417 0.16595 0.0
N859 N 0.36927 0.2048 0.11587 0.0
C860 C 0.35795 0.19491 0.13437 0.0
C861 C 0.34872 0.17171 0.12779 0.0
C862 C 0.35467 0.16706 0.10437 0.0
C863 C 0.3672 0.18755 0.09796 0.0
N864 N 0.38602 0.23622 0.07902 0.0
C865 C 0.38272 0.21583 0.06473 0.0
C866 C 0.38248 0.22229 0.04065 0.0
C867 C 0.38567 0.24833 0.04001 0.0
C868 C 0.38772 0.25621 0.0638 0.0
N869 N 0.41307 0.21661 0.11523 0.0
C870 C 0.45307 0.19391 0.12529 0.0
C871 C 0.43422 0.18437 0.13549 0.0
C872 C 0.41454 0.19604 0.13044 0.0
C873 C 0.45133 0.21396 0.10854 0.0
C874 C 0.43107 0.22472 0.10338 0.0
N875 N 0.35982 0.25674 0.11475 0.0
C876 C 0.32365 0.26545 0.10098 0.0
C877 C 0.3226 0.28678 0.11631 0.0
C878 C 0.34047 0.29251 0.13084 0.0
C879 C 0.35875 0.27734 0.12984 0.0
C880 C 0.34253 0.25071 0.10037 0.0
H881 H 0.37206 0.28235 0.14145 0.0
H882 H 0.34318 0.23448 0.08838 0.0
H883 H 0.40076 0.18931 0.1402 0.0
H884 H 0.43013 0.2405 0.09084 0.0
C885 C 0.41455 0.26893 0.1537 0.0
C886 C 0.39096 0.28259 0.07188 0.0
C887 C 0.35786 0.20545 0.15895 0.0
C888 C 0.37447 0.19316 0.07459 0.0
H889 H 0.41704 0.3246 0.09034 0.0
H890 H 0.43229 0.31579 0.13486 0.0
H891 H 0.40607 0.25563 0.20312 0.0
H892 H 0.37344 0.22294 0.20599 0.0
H893 H 0.33908 0.15919 0.13888 0.0
H894 H 0.34994 0.15099 0.09322 0.0
H895 H 0.3788 0.20996 0.02548 0.0
H896 H 0.3859 0.26014 0.02399 0.0
H897 H 0.4348 0.1691 0.1487 0.0
H898 H 0.46555 0.22175 0.10008 0.0
H899 H 0.31013 0.26032 0.0895 0.0
H900 H 0.34023 0.30838 0.1434 0.0
C901 C 0.39732 0.71988 0.88783 0.0
C902 C 0.41189 0.69989 0.88693 0.0
C903 C 0.42117 0.70095 0.8644 0.0
C904 C 0.41173 0.72149 0.85285 0.0
N905 N 0.39733 0.73327 0.86694 0.0
Co906 Co 0.37794 0.76149 0.85748 0.0
N907 N 0.38081 0.75342 0.82293 0.0
C908 C 0.39698 0.73999 0.81303 0.0
C909 C 0.39481 0.73799 0.78839 0.0
C910 C 0.37627 0.75115 0.78262 0.0
C911 C 0.36807 0.76043 0.80415 0.0
N912 N 0.35819 0.78957 0.84862 0.0
C913 C 0.34693 0.79318 0.82792 0.0
C914 C 0.33465 0.81534 0.8293 0.0
C915 C 0.33881 0.82601 0.85151 0.0
C916 C 0.35326 0.80981 0.86254 0.0
N917 N 0.37539 0.76953 0.89202 0.0
C918 C 0.3693 0.7919 0.90171 0.0
C919 C 0.36793 0.7906 0.92648 0.0
C920 C 0.37332 0.76583 0.93244 0.0
C921 C 0.37765 0.75349 0.91091 0.0
N922 N 0.40262 0.78496 0.85456 0.0
C923 C 0.43977 0.81393 0.84425 0.0
C924 C 0.42079 0.81669 0.83063 0.0
C925 C 0.40275 0.80194 0.83578 0.0
C926 C 0.43919 0.79736 0.8643 0.0
C927 C 0.42039 0.78326 0.86928 0.0
N928 N 0.35349 0.73807 0.85939 0.0
C929 C 0.31632 0.7297 0.86842 0.0
C930 C 0.31727 0.70628 0.85604 0.0
C931 C 0.33706 0.69871 0.84648 0.0
C932 C 0.35486 0.71476 0.84838 0.0
C933 C 0.33463 0.74528 0.86995 0.0
H934 H 0.36958 0.70864 0.84004 0.0
H935 H 0.33341 0.76346 0.87903 0.0
H936 H 0.38914 0.80374 0.82375 0.0
H937 H 0.42049 0.77028 0.88445 0.0
C938 C 0.41143 0.726 0.82777 0.0
C939 C 0.38382 0.72664 0.90851 0.0
C940 C 0.34927 0.77743 0.80609 0.0
C941 C 0.35955 0.81053 0.88699 0.0
H942 H 0.41513 0.68584 0.90083 0.0
H943 H 0.43225 0.68723 0.8568 0.0
H944 H 0.405 0.72747 0.77615 0.0
H945 H 0.36962 0.75375 0.76466 0.0
H946 H 0.32398 0.82317 0.81563 0.0
H947 H 0.33155 0.84302 0.85902 0.0
H948 H 0.36208 0.80521 0.93859 0.0
H949 H 0.37349 0.75759 0.95036 0.0
H950 H 0.41985 0.82982 0.81556 0.0
H951 H 0.45332 0.79452 0.87556 0.0
H952 H 0.30147 0.73619 0.87648 0.0
H953 H 0.33864 0.68104 0.83647 0.0
C954 C 0.22724 0.41193 0.89859 0.0
C955 C 0.2107 0.40897 0.91493 0.0
C956 C 0.21372 0.38537 0.92558 0.0
C957 C 0.23192 0.37531 0.91515 0.0
N958 N 0.24038 0.39134 0.89885 0.0
Co959 Co 0.26481 0.38435 0.87743 0.0
N960 N 0.26121 0.34714 0.88095 0.0
C961 C 0.25096 0.33528 0.89909 0.0
C962 C 0.25137 0.30913 0.89667 0.0
C963 C 0.26267 0.30449 0.87586 0.0
C964 C 0.26852 0.32816 0.86667 0.0
N965 N 0.28919 0.37784 0.85572 0.0
C966 C 0.29397 0.35645 0.84324 0.0
C967 C 0.31255 0.35999 0.82985 0.0
C968 C 0.31961 0.38441 0.83454 0.0
C969 C 0.305 0.39446 0.85041 0.0
N970 N 0.2683 0.4216 0.87422 0.0
C971 C 0.28623 0.43398 0.8675 0.0
C972 C 0.28302 0.45992 0.8657 0.0
C973 C 0.26175 0.46383 0.87147 0.0
C974 C 0.25317 0.43997 0.87659 0.0
N975 N 0.28476 0.38382 0.90523 0.0
C976 C 0.31163 0.37793 0.94596 0.0
C977 C 0.31413 0.36254 0.92559 0.0
C978 C 0.30056 0.36559 0.90571 0.0
C979 C 0.29553 0.39682 0.94542 0.0
C980 C 0.28245 0.39972 0.92467 0.0
N981 N 0.24512 0.38379 0.84977 0.0
C982 C 0.23856 0.3902 0.80735 0.0
C983 C 0.22017 0.37471 0.80844 0.0
C984 C 0.21389 0.36515 0.83086 0.0
C985 C 0.22657 0.36982 0.85121 0.0
C986 C 0.25069 0.39478 0.82833 0.0
H987 H 0.22184 0.3611 0.86794 0.0
H988 H 0.26508 0.40624 0.82703 0.0
H989 H 0.30255 0.35243 0.89099 0.0
H990 H 0.27016 0.41434 0.92453 0.0
C991 C 0.23799 0.34935 0.91512 0.0
C992 C 0.23081 0.43461 0.88352 0.0
C993 C 0.28228 0.33212 0.84552 0.0
C994 C 0.30328 0.4203 0.85712 0.0
H995 H 0.19773 0.42224 0.9184 0.0
H996 H 0.20302 0.37599 0.93809 0.0
H997 H 0.24365 0.29512 0.90808 0.0
H998 H 0.26628 0.28588 0.86838 0.0
H999 H 0.32029 0.34635 0.81808 0.0
H1000 H 0.33326 0.39398 0.82656 0.0
H1001 H 0.29426 0.47409 0.85918 0.0
H1002 H 0.25362 0.48207 0.8713 0.0
H1003 H 0.32603 0.34739 0.92531 0.0
H1004 H 0.29307 0.40915 0.96085 0.0
H1005 H 0.24379 0.39823 0.79036 0.0
H1006 H 0.19987 0.35297 0.83252 0.0
C1007 C 0.60555 0.27895 0.90936 0.0
C1008 C 0.59249 0.29957 0.90374 0.0
C1009 C 0.58462 0.29517 0.88073 0.0
C1010 C 0.59334 0.27215 0.87368 0.0
N1011 N 0.60595 0.26196 0.89098 0.0
Co1012 Co 0.62398 0.23096 0.88835 0.0
N1013 N 0.62368 0.23264 0.8528 0.0
C1014 C 0.60929 0.24562 0.83919 0.0
C1015 C 0.61302 0.24299 0.81492 0.0
C1016 C 0.63063 0.22719 0.81331 0.0
C1017 C 0.63665 0.22086 0.83678 0.0
N1018 N 0.64245 0.20027 0.88638 0.0
C1019 C 0.6543 0.1916 0.86775 0.0
C1020 C 0.66453 0.16884 0.87388 0.0
C1021 C 0.65864 0.16317 0.89711 0.0
C1022 C 0.64516 0.18264 0.90387 0.0
N1023 N 0.62384 0.22929 0.92384 0.0
C1024 C 0.62792 0.2087 0.93762 0.0
C1025 C 0.62779 0.21446 0.96187 0.0
C1026 C 0.62356 0.24026 0.96317 0.0
C1027 C 0.62134 0.24869 0.93958 0.0
N1028 N 0.59807 0.20926 0.88637 0.0
C1029 C 0.55943 0.18423 0.87318 0.0
C1030 C 0.57951 0.17522 0.86552 0.0
C1031 C 0.59829 0.18829 0.87161 0.0
C1032 C 0.55954 0.20469 0.88979 0.0
C1033 C 0.57904 0.21645 0.89661 0.0
N1034 N 0.64963 0.25257 0.88926 0.0
C1035 C 0.68657 0.26021 0.90073 0.0
C1036 C 0.68685 0.28229 0.88643 0.0
C1037 C 0.6681 0.28952 0.87417 0.0
C1038 C 0.64985 0.27428 0.87553 0.0
C1039 C 0.66758 0.24581 0.90226 0.0
H1040 H 0.63606 0.27982 0.86488 0.0
H1041 H 0.66756 0.22891 0.91341 0.0
H1042 H 0.61279 0.18199 0.86304 0.0
H1043 H 0.57854 0.23234 0.90904 0.0
C1044 C 0.59499 0.2632 0.84982 0.0
C1045 C 0.61711 0.27507 0.93225 0.0
C1046 C 0.65374 0.20247 0.84328 0.0
C1047 C 0.63735 0.18697 0.92726 0.0
H1048 H 0.58936 0.31613 0.91488 0.0
H1049 H 0.57504 0.30815 0.86986 0.0
H1050 H 0.6045 0.25218 0.80017 0.0
H1051 H 0.6381 0.22101 0.79674 0.0
H1052 H 0.67472 0.15719 0.86258 0.0
H1053 H 0.66395 0.14708 0.90789 0.0
H1054 H 0.63195 0.20193 0.97674 0.0
H1055 H 0.62279 0.25166 0.97944 0.0
H1056 H 0.58097 0.15869 0.85395 0.0
H1057 H 0.54474 0.21254 0.89676 0.0
H1058 H 0.70091 0.25404 0.91036 0.0
H1059 H 0.66786 0.30623 0.8626 0.0
C1060 C 0.76918 0.60468 0.89589 0.0
C1061 C 0.78697 0.60944 0.91055 0.0
C1062 C 0.78489 0.63419 0.91882 0.0
C1063 C 0.76599 0.64323 0.90889 0.0
N1064 N 0.75617 0.62548 0.89519 0.0
Co1065 Co 0.73006 0.63056 0.87522 0.0
N1066 N 0.73451 0.66776 0.87389 0.0
C1067 C 0.74629 0.6815 0.88976 0.0
C1068 C 0.7459 0.70718 0.88456 0.0
C1069 C 0.73297 0.70953 0.86437 0.0
C1070 C 0.7262 0.68504 0.85825 0.0
N1071 N 0.70407 0.63494 0.85484 0.0
C1072 C 0.69862 0.65462 0.8402 0.0
C1073 C 0.67927 0.64951 0.82833 0.0
C1074 C 0.67231 0.62611 0.83645 0.0
C1075 C 0.68779 0.61807 0.8526 0.0
N1076 N 0.72569 0.59345 0.87699 0.0
C1077 C 0.7071 0.58081 0.87355 0.0
C1078 C 0.70978 0.55474 0.87533 0.0
C1079 C 0.73141 0.55107 0.87993 0.0
C1080 C 0.74065 0.57516 0.88065 0.0
N1081 N 0.71256 0.63562 0.90433 0.0
C1082 C 0.69124 0.65062 0.94679 0.0
C1083 C 0.68575 0.66108 0.92428 0.0
C1084 C 0.69676 0.65383 0.90366 0.0
C1085 C 0.70669 0.6309 0.9472 0.0
C1086 C 0.71697 0.62346 0.92571 0.0
N1087 N 0.74745 0.62671 0.84627 0.0
C1088 C 0.75085 0.61495 0.80449 0.0
C1089 C 0.77001 0.62902 0.80297 0.0
C1090 C 0.77814 0.64073 0.82379 0.0
C1091 C 0.76659 0.63954 0.84509 0.0
C1092 C 0.73995 0.6137 0.8265 0.0
H1093 H 0.77273 0.6501 0.86033 0.0
H1094 H 0.72509 0.60306 0.82732 0.0
H1095 H 0.69294 0.66399 0.88732 0.0
H1096 H 0.72909 0.60866 0.92654 0.0
C1097 C 0.76021 0.66916 0.90632 0.0
C1098 C 0.76375 0.58045 0.88347 0.0
C1099 C 0.71052 0.67897 0.83896 0.0
C1100 C 0.68958 0.59337 0.86253 0.0
H1101 H 0.80021 0.59687 0.91482 0.0
H1102 H 0.79661 0.64483 0.92935 0.0
H1103 H 0.75457 0.72231 0.89379 0.0
H1104 H 0.72884 0.72724 0.85535 0.0
H1105 H 0.67095 0.66138 0.81528 0.0
H1106 H 0.65812 0.61579 0.8305 0.0
H1107 H 0.69787 0.54008 0.87175 0.0
H1108 H 0.73962 0.5329 0.88158 0.0
H1109 H 0.67335 0.67551 0.92247 0.0
H1110 H 0.71144 0.62193 0.96403 0.0
H1111 H 0.74416 0.60548 0.78874 0.0
H1112 H 0.79275 0.65205 0.82332 0.0
C1113 C 0.61059 0.72688 0.10942 0.0
C1114 C 0.5952 0.70804 0.10602 0.0
C1115 C 0.58412 0.70618 0.12742 0.0
C1116 C 0.59333 0.72402 0.14263 0.0
N1117 N 0.60932 0.73687 0.13187 0.0
Co1118 Co 0.62853 0.76234 0.14706 0.0
N1119 N 0.62237 0.74938 0.17968 0.0
C1120 C 0.60515 0.73531 0.18589 0.0
C1121 C 0.60531 0.7292 0.21003 0.0
C1122 C 0.62367 0.74031 0.2194 0.0
C1123 C 0.63371 0.75269 0.20041 0.0
N1124 N 0.64795 0.78789 0.1618 0.0
C1125 C 0.6574 0.7878 0.18383 0.0
C1126 C 0.66967 0.80977 0.18718 0.0
C1127 C 0.66761 0.82396 0.16642 0.0
C1128 C 0.65423 0.80999 0.1516 0.0
N1129 N 0.63449 0.77524 0.11441 0.0
C1130 C 0.64198 0.79857 0.10877 0.0
C1131 C 0.64565 0.80113 0.08447 0.0
C1132 C 0.64021 0.77793 0.07443 0.0
C1133 C 0.63335 0.76249 0.09324 0.0
N1134 N 0.60431 0.78637 0.1503 0.0
C1135 C 0.56758 0.81644 0.15953 0.0
C1136 C 0.58499 0.81562 0.17579 0.0
C1137 C 0.60279 0.80032 0.1711 0.0
C1138 C 0.56963 0.80285 0.1377 0.0
C1139 C 0.58822 0.78816 0.13334 0.0
N1140 N 0.6525 0.73825 0.14479 0.0
C1141 C 0.69062 0.73046 0.14284 0.0
C1142 C 0.68749 0.70532 0.15074 0.0
C1143 C 0.66652 0.69651 0.15407 0.0
C1144 C 0.6493 0.71331 0.15128 0.0
C1145 C 0.6728 0.74651 0.13945 0.0
H1146 H 0.63349 0.70639 0.15567 0.0
H1147 H 0.67552 0.76595 0.13374 0.0
H1148 H 0.61505 0.79927 0.18491 0.0
H1149 H 0.58928 0.77759 0.11664 0.0
C1150 C 0.59162 0.72458 0.16797 0.0
C1151 C 0.62571 0.73595 0.09108 0.0
C1152 C 0.65318 0.76865 0.20263 0.0
C1153 C 0.65038 0.81452 0.12694 0.0
H1154 H 0.59255 0.69665 0.08995 0.0
H1155 H 0.57189 0.69225 0.13183 0.0
H1156 H 0.59397 0.71723 0.21952 0.0
H1157 H 0.62901 0.73941 0.23802 0.0
H1158 H 0.6789 0.81517 0.20304 0.0
H1159 H 0.67556 0.84184 0.16234 0.0
H1160 H 0.65293 0.81721 0.07535 0.0
H1161 H 0.6417 0.77304 0.05559 0.0
H1162 H 0.58487 0.82639 0.19246 0.0
H1163 H 0.55676 0.8028 0.1244 0.0
H1164 H 0.70671 0.73783 0.14001 0.0
H1165 H 0.66354 0.67723 0.16037 0.0
C1166 C 0.23584 0.60275 0.10119 0.0
C1167 C 0.21817 0.60517 0.08594 0.0
C1168 C 0.21986 0.62891 0.07525 0.0
C1169 C 0.23846 0.6396 0.08454 0.0
N1170 N 0.2484 0.62382 0.10019 0.0
Co1171 Co 0.27407 0.6317 0.12 0.0
N1172 N 0.26929 0.66878 0.1169 0.0
C1173 C 0.25751 0.68029 0.09953 0.0
C1174 C 0.25736 0.70644 0.10209 0.0
C1175 C 0.26989 0.71144 0.12218 0.0
C1176 C 0.27697 0.68798 0.13085 0.0
N1177 N 0.29973 0.63912 0.14006 0.0
C1178 C 0.30476 0.66062 0.15239 0.0
C1179 C 0.32411 0.65755 0.16486 0.0
C1180 C 0.33147 0.63342 0.15959 0.0
C1181 C 0.31622 0.62302 0.14441 0.0
N1182 N 0.27872 0.59457 0.12287 0.0
C1183 C 0.29735 0.58284 0.12846 0.0
C1184 C 0.29493 0.55679 0.13039 0.0
C1185 C 0.27345 0.5521 0.12587 0.0
C1186 C 0.26397 0.57564 0.12134 0.0
N1187 N 0.29202 0.63295 0.09091 0.0
C1188 C 0.31521 0.63993 0.04801 0.0
C1189 C 0.31893 0.65548 0.06814 0.0
C1190 C 0.30717 0.65184 0.08915 0.0
C1191 C 0.29993 0.62022 0.05002 0.0
C1192 C 0.28871 0.61683 0.07177 0.0
N1193 N 0.25625 0.63147 0.14885 0.0
C1194 C 0.25209 0.62406 0.19142 0.0
C1195 C 0.23284 0.63808 0.19123 0.0
C1196 C 0.22512 0.64767 0.16926 0.0
C1197 C 0.23707 0.6443 0.1484 0.0
C1198 C 0.26343 0.62068 0.16991 0.0
H1199 H 0.23113 0.65299 0.13205 0.0
H1200 H 0.27837 0.61014 0.17044 0.0
H1201 H 0.30994 0.66509 0.10372 0.0
H1202 H 0.27696 0.60165 0.07292 0.0
C1203 C 0.24386 0.66577 0.08431 0.0
C1204 C 0.2411 0.58009 0.11574 0.0
C1205 C 0.29224 0.68449 0.15107 0.0
C1206 C 0.31468 0.59712 0.13781 0.0
H1207 H 0.20536 0.59143 0.08319 0.0
H1208 H 0.20812 0.63794 0.06348 0.0
H1209 H 0.2485 0.72018 0.09128 0.0
H1210 H 0.27348 0.73014 0.12952 0.0
H1211 H 0.33212 0.67118 0.17654 0.0
H1212 H 0.34571 0.62421 0.1669 0.0
H1213 H 0.30693 0.54303 0.13618 0.0
H1214 H 0.26576 0.53359 0.12647 0.0
H1215 H 0.33026 0.67121 0.0674 0.0
H1216 H 0.2966 0.60766 0.03491 0.0
H1217 H 0.25847 0.61614 0.20807 0.0
H1218 H 0.21043 0.65881 0.16834 0.0
C1219 C 0.76878 0.40833 0.1144 0.0
C1220 C 0.78591 0.40316 0.09936 0.0
C1221 C 0.78217 0.37918 0.08979 0.0
C1222 C 0.76298 0.37112 0.09951 0.0
N1223 N 0.75458 0.38874 0.11434 0.0
Co1224 Co 0.72879 0.38483 0.13446 0.0
N1225 N 0.7306 0.34726 0.13319 0.0
C1226 C 0.74111 0.33359 0.11641 0.0
C1227 C 0.73911 0.3077 0.12004 0.0
C1228 C 0.72648 0.30516 0.14019 0.0
C1229 C 0.72148 0.32973 0.14781 0.0
N1230 N 0.70308 0.38144 0.15488 0.0
C1231 C 0.69645 0.36122 0.16801 0.0
C1232 C 0.67752 0.367 0.18003 0.0
C1233 C 0.6721 0.3916 0.17371 0.0
C1234 C 0.68799 0.39951 0.15834 0.0
N1235 N 0.72712 0.42242 0.13541 0.0
C1236 C 0.70958 0.43645 0.14034 0.0
C1237 C 0.71407 0.46217 0.14107 0.0
C1238 C 0.73575 0.4642 0.13651 0.0
C1239 C 0.7433 0.4395 0.13312 0.0
N1240 N 0.71027 0.38385 0.10546 0.0
C1241 C 0.68639 0.37581 0.06275 0.0
C1242 C 0.68148 0.36265 0.08394 0.0
C1243 C 0.69359 0.36674 0.10482 0.0
C1244 C 0.70316 0.39385 0.06356 0.0
C1245 C 0.7147 0.39789 0.08524 0.0
N1246 N 0.74713 0.38474 0.16326 0.0
C1247 C 0.75338 0.39504 0.20509 0.0
C1248 C 0.77164 0.37928 0.20548 0.0
C1249 C 0.77768 0.36699 0.18421 0.0
C1250 C 0.7652 0.36983 0.16344 0.0
C1251 C 0.74147 0.39778 0.18364 0.0
H1252 H 0.76991 0.35931 0.14766 0.0
H1253 H 0.72737 0.40984 0.18367 0.0
H1254 H 0.6899 0.35505 0.1202 0.0
H1255 H 0.72764 0.41171 0.08548 0.0
C1256 C 0.75555 0.34569 0.10053 0.0
C1257 C 0.76566 0.43216 0.12796 0.0
C1258 C 0.70673 0.3359 0.16761 0.0
C1259 C 0.6914 0.4247 0.15038 0.0
H1260 H 0.79972 0.41523 0.09605 0.0
H1261 H 0.79296 0.36827 0.07853 0.0
H1262 H 0.74658 0.29249 0.10987 0.0
H1263 H 0.7214 0.28733 0.14824 0.0
H1264 H 0.66846 0.35475 0.19196 0.0
H1265 H 0.65865 0.40266 0.18031 0.0
H1266 H 0.70331 0.47748 0.14619 0.0
H1267 H 0.74481 0.48182 0.13638 0.0
H1268 H 0.66897 0.34822 0.08416 0.0
H1269 H 0.70744 0.40453 0.04756 0.0
H1270 H 0.74828 0.40495 0.22122 0.0
H1271 H 0.79152 0.35439 0.18381 0.0
H1272 H 0.21177 0.59309 0.14983 0.0
H1273 H 0.17306 0.44887 0.17215 0.0
H1274 H 0.23164 0.5298 0.10564 0.0
H1275 H 0.14731 0.51342 0.21049 0.0
H1276 H 0.19302 0.47829 0.14602 0.0
H1277 H 0.1865 0.56476 0.1707 0.0
C1278 C 0.21061 0.57324 0.14438 0.0
C1279 C 0.22401 0.56362 0.1263 0.0
C1280 C 0.18288 0.48609 0.16 0.0
C1281 C 0.19531 0.53095 0.15017 0.0
C1282 C 0.17143 0.4693 0.17482 0.0
C1283 C 0.15879 0.47879 0.19363 0.0
C1284 C 0.18171 0.51262 0.16406 0.0
C1285 C 0.1572 0.50537 0.19641 0.0
C1286 C 0.19626 0.55704 0.15633 0.0
C1287 C 0.2219 0.5378 0.11986 0.0
N1288 N 0.16869 0.52135 0.18198 0.0
N1289 N 0.20801 0.52231 0.13192 0.0
H1290 H 0.55588 0.10442 0.19236 0.0
H1291 H 0.4869 0.22264 0.14161 0.0
H1292 H 0.55622 0.17947 0.22449 0.0
H1293 H 0.46694 0.14443 0.13127 0.0
H1294 H 0.51848 0.20751 0.1643 0.0
H1295 H 0.52869 0.11929 0.16285 0.0
C1296 C 0.55032 0.12403 0.19307 0.0
C1297 C 0.55807 0.14068 0.21102 0.0
C1298 C 0.50735 0.19365 0.15675 0.0
C1299 C 0.52748 0.15788 0.17722 0.0
C1300 C 0.48947 0.20226 0.14357 0.0
C1301 C 0.47426 0.18477 0.1346 0.0
C1302 C 0.5102 0.16733 0.16077 0.0
C1303 C 0.47823 0.15855 0.13802 0.0
C1304 C 0.53484 0.13248 0.17631 0.0
C1305 C 0.55041 0.16593 0.21116 0.0
N1306 N 0.49577 0.15061 0.15093 0.0
N1307 N 0.5356 0.17376 0.19453 0.0
H1308 H 0.77865 0.48169 0.11925 0.0
H1309 H 0.87262 0.48016 0.2197 0.0
H1310 H 0.79533 0.41475 0.1606 0.0
H1311 H 0.84082 0.54907 0.19622 0.0
H1312 H 0.84936 0.45533 0.19237 0.0
H1313 H 0.80621 0.506 0.14151 0.0
C1314 C 0.78805 0.47216 0.13312 0.0
C1315 C 0.78423 0.44641 0.1387 0.0
C1316 C 0.84751 0.4759 0.19312 0.0
C1317 C 0.81629 0.47383 0.16366 0.0
C1318 C 0.86068 0.49004 0.20884 0.0
C1319 C 0.85813 0.51661 0.21079 0.0
C1320 C 0.83193 0.48846 0.17889 0.0
C1321 C 0.84312 0.52859 0.19545 0.0
C1322 C 0.80388 0.48598 0.14568 0.0
C1323 C 0.79759 0.43466 0.15598 0.0
N1324 N 0.83048 0.51444 0.18028 0.0
N1325 N 0.81292 0.44847 0.16797 0.0
H1326 H 0.53803 0.84152 0.12974 0.0
H1327 H 0.46792 0.89488 0.23956 0.0
H1328 H 0.55041 0.82349 0.20473 0.0
H1329 H 0.44045 0.88324 0.16867 0.0
H1330 H 0.50233 0.8781 0.225 0.0
H1331 H 0.5054 0.86451 0.14196 0.0
C1332 C 0.53405 0.84231 0.1487 0.0
C1333 C 0.54742 0.83062 0.16615 0.0
C1334 C 0.48885 0.87956 0.21254 0.0
C1335 C 0.51032 0.85762 0.18023 0.0
C1336 C 0.46929 0.88941 0.22078 0.0
C1337 C 0.4513 0.89042 0.20532 0.0
C1338 C 0.49053 0.87091 0.18859 0.0
C1339 C 0.45393 0.88267 0.1812 0.0
C1340 C 0.51547 0.85563 0.15565 0.0
C1341 C 0.54126 0.83272 0.19051 0.0
N1342 N 0.47313 0.87316 0.17358 0.0
N1343 N 0.52335 0.846 0.19676 0.0
H1344 H 0.19952 0.41615 0.85353 0.0
H1345 H 0.15783 0.55394 0.81314 0.0
H1346 H 0.22003 0.48544 0.88883 0.0
H1347 H 0.12655 0.48415 0.7912 0.0
H1348 H 0.17988 0.52958 0.84204 0.0
H1349 H 0.17192 0.44048 0.8315 0.0
C1350 C 0.19809 0.43649 0.85674 0.0
C1351 C 0.21245 0.44893 0.87249 0.0
C1352 C 0.16805 0.51958 0.8311 0.0
C1353 C 0.181 0.47704 0.84727 0.0
C1354 C 0.15541 0.53351 0.8147 0.0
C1355 C 0.14066 0.52094 0.79951 0.0
C1356 C 0.16601 0.49281 0.8322 0.0
C1357 C 0.13813 0.49445 0.8022 0.0
C1358 C 0.18236 0.4504 0.84415 0.0
C1359 C 0.20981 0.47528 0.87616 0.0
N1360 N 0.15087 0.48121 0.81796 0.0
N1361 N 0.1946 0.48852 0.86343 0.0
H1362 H 0.51764 0.18506 0.8915 0.0
H1363 H 0.4583 0.09905 0.7959 0.0
H1364 H 0.55351 0.15885 0.82951 0.0
H1365 H 0.43647 0.17674 0.80709 0.0
H1366 H 0.49111 0.10944 0.8189 0.0
H1367 H 0.48457 0.17052 0.87147 0.0
C1368 C 0.51888 0.17621 0.87394 0.0
C1369 C 0.53893 0.17341 0.86251 0.0
C1370 C 0.47878 0.12389 0.81648 0.0
C1371 C 0.50093 0.15549 0.8402 0.0
C1372 C 0.46009 0.11814 0.80313 0.0
C1373 C 0.44402 0.1368 0.79949 0.0
C1374 C 0.48117 0.14817 0.82688 0.0
C1375 C 0.4476 0.16114 0.8099 0.0
C1376 C 0.4999 0.16767 0.86269 0.0
C1377 C 0.53895 0.16101 0.8398 0.0
N1378 N 0.4656 0.16597 0.82323 0.0
N1379 N 0.52034 0.15246 0.82953 0.0
H1380 H 0.80291 0.55899 0.89874 0.0
H1381 H 0.81271 0.46198 0.79139 0.0
H1382 H 0.75992 0.5633 0.83725 0.0
H1383 H 0.87044 0.49982 0.81635 0.0
H1384 H 0.79124 0.49209 0.81506 0.0
H1385 H 0.82674 0.53117 0.87544 0.0
C1386 C 0.79872 0.55492 0.88021 0.0
C1387 C 0.77956 0.56438 0.86982 0.0
C1388 C 0.80865 0.49349 0.81562 0.0
C1389 C 0.80609 0.53087 0.84372 0.0
C1390 C 0.82091 0.47632 0.80218 0.0
C1391 C 0.8435 0.4778 0.80238 0.0
C1392 C 0.81897 0.51212 0.82978 0.0
C1393 C 0.85322 0.49698 0.81657 0.0
C1394 C 0.8122 0.53858 0.86706 0.0
C1395 C 0.77448 0.55664 0.8461 0.0
N1396 N 0.84091 0.51327 0.82988 0.0
N1397 N 0.78747 0.54017 0.83402 0.0
H1398 H 0.53685 0.89286 0.76019 0.0
H1399 H 0.47349 0.83281 0.87249 0.0
H1400 H 0.56828 0.87522 0.82784 0.0
H1401 H 0.45265 0.82591 0.79815 0.0
H1402 H 0.50601 0.85495 0.8587 0.0
H1403 H 0.5029 0.87659 0.77655 0.0
C1404 C 0.53649 0.88615 0.77867 0.0
C1405 C 0.55543 0.88534 0.79263 0.0
C1406 C 0.49416 0.8487 0.84551 0.0
C1407 C 0.51671 0.86634 0.81141 0.0
C1408 C 0.47562 0.83587 0.85334 0.0
C1409 C 0.45993 0.82754 0.83661 0.0
C1410 C 0.49701 0.85352 0.82077 0.0
C1411 C 0.46374 0.83247 0.81198 0.0
C1412 C 0.51718 0.87657 0.78792 0.0
C1413 C 0.55406 0.87604 0.81641 0.0
N1414 N 0.48172 0.84514 0.8049 0.0
N1415 N 0.5351 0.86682 0.82502 0.0
H1416 H 0.10456 0.2547 0.50916 0.0
H1417 H 0.17711 0.13612 0.47427 0.0
H1418 H 0.14021 0.21689 0.56586 0.0
H1419 H 0.17811 0.20739 0.43482 0.0
H1420 H 0.15716 0.15788 0.50665 0.0
H1421 H 0.12359 0.22874 0.47929 0.0
C1422 C 0.11647 0.241 0.51529 0.0
C1423 C 0.12151 0.23865 0.53988 0.0
C1424 C 0.16175 0.16849 0.49073 0.0
C1425 C 0.14254 0.20805 0.50596 0.0
C1426 C 0.17324 0.15618 0.47227 0.0
C1427 C 0.17896 0.16957 0.45121 0.0
C1428 C 0.1556 0.19417 0.48785 0.0
C1429 C 0.17337 0.19567 0.44994 0.0
C1430 C 0.12717 0.22606 0.4983 0.0
C1431 C 0.13619 0.21954 0.54697 0.0
N1432 N 0.16182 0.20688 0.46771 0.0
N1433 N 0.14633 0.20499 0.53006 0.0
H1434 H 0.83023 0.20402 0.56272 0.0
H1435 H 0.86576 0.21491 0.43044 0.0
H1436 H 0.83057 0.13232 0.52392 0.0
H1437 H 0.90772 0.24135 0.4875 0.0
H1438 H 0.84666 0.18794 0.45994 0.0
H1439 H 0.8515 0.22312 0.531 0.0
C1440 C 0.83493 0.19202 0.54776 0.0
C1441 C 0.82912 0.16599 0.54675 0.0
C1442 C 0.86021 0.19947 0.46583 0.0
C1443 C 0.85275 0.18873 0.50936 0.0
C1444 C 0.87109 0.21482 0.44909 0.0
C1445 C 0.88786 0.23104 0.45675 0.0
C1446 C 0.86601 0.20079 0.49034 0.0
C1447 C 0.89427 0.23003 0.48105 0.0
C1448 C 0.84696 0.20317 0.5295 0.0
C1449 C 0.83475 0.1523 0.52578 0.0
N1450 N 0.88304 0.21568 0.49708 0.0
N1451 N 0.84623 0.16385 0.50784 0.0
H1452 H 0.78906 0.86498 0.50149 0.0
H1453 H 0.88141 0.75754 0.50672 0.0
H1454 H 0.81108 0.82391 0.43906 0.0
H1455 H 0.84895 0.78596 0.56958 0.0
H1456 H 0.86052 0.78736 0.48154 0.0
H1457 H 0.81544 0.8418 0.5265 0.0
C1458 C 0.79955 0.85111 0.49309 0.0
C1459 C 0.79764 0.84586 0.46834 0.0
C1460 C 0.85807 0.78724 0.50087 0.0
C1461 C 0.82808 0.8196 0.49665 0.0
C1462 C 0.86996 0.77021 0.5152 0.0
C1463 C 0.86652 0.76897 0.54015 0.0
C1464 C 0.84275 0.80333 0.51161 0.0
C1465 C 0.85194 0.78624 0.55038 0.0
C1466 C 0.81463 0.83795 0.50731 0.0
C1467 C 0.81198 0.8283 0.45814 0.0
N1468 N 0.84045 0.80255 0.53606 0.0
N1469 N 0.82648 0.81564 0.47235 0.0
H1470 H 0.12465 0.75661 0.49257 0.0
H1471 H 0.2147 0.86647 0.5041 0.0
H1472 H 0.1576 0.78871 0.43162 0.0
H1473 H 0.19005 0.82479 0.56489 0.0
H1474 H 0.19005 0.84275 0.47737 0.0
H1475 H 0.14443 0.78595 0.51935 0.0
C1476 C 0.13597 0.76999 0.48485 0.0
C1477 C 0.1398 0.77002 0.45995 0.0
C1478 C 0.18992 0.83885 0.49656 0.0
C1479 C 0.16238 0.80379 0.49036 0.0
C1480 C 0.20401 0.85234 0.51178 0.0
C1481 C 0.20465 0.84716 0.5366 0.0
C1482 C 0.1762 0.82017 0.50628 0.0
C1483 C 0.19011 0.82918 0.54578 0.0
C1484 C 0.14725 0.78674 0.50011 0.0
C1485 C 0.15428 0.78806 0.45076 0.0
N1486 N 0.1766 0.81619 0.53063 0.0
N1487 N 0.16517 0.80408 0.46595 0.0
H1488 H 0.69061 0.95579 0.70885 0.0
H1489 H 0.70777 0.05443 0.60349 0.0
H1490 H 0.63451 0.98973 0.67549 0.0
H1491 H 0.74385 0.05996 0.67017 0.0
H1492 H 0.68293 0.02456 0.62305 0.0
H1493 H 0.71328 0.98687 0.68788 0.0
C1494 C 0.68307 0.96944 0.69674 0.0
C1495 C 0.66059 0.96962 0.69353 0.0
C1496 C 0.69615 0.03267 0.63339 0.0
C1497 C 0.68657 0.00514 0.66923 0.0
C1498 C 0.71014 0.05017 0.62238 0.0
C1499 C 0.72758 0.06066 0.63539 0.0
C1500 C 0.70011 0.02482 0.65725 0.0
C1501 C 0.7306 0.05259 0.65942 0.0
C1502 C 0.69602 0.9872 0.68487 0.0
C1503 C 0.65174 0.98795 0.67771 0.0
N1504 N 0.7172 0.03503 0.66944 0.0
N1505 N 0.66476 0.00489 0.66602 0.0
H1506 H 0.94136 0.60789 0.62703 0.0
H1507 H 0.05635 0.64131 0.68251 0.0
H1508 H 0.9742 0.67936 0.61517 0.0
H1509 H 0.03597 0.56289 0.67408 0.0
H1510 H 0.02466 0.65524 0.66031 0.0
H1511 H 0.97437 0.59052 0.64548 0.0
C1512 C 0.95561 0.6198 0.62797 0.0
C1513 C 0.95498 0.64518 0.61956 0.0
C1514 C 0.02711 0.63495 0.6631 0.0
C1515 C 0.99264 0.62554 0.64106 0.0
C1516 C 0.04532 0.62688 0.67578 0.0
C1517 C 0.04928 0.60073 0.67974 0.0
C1518 C 0.01223 0.61691 0.65451 0.0
C1519 C 0.03371 0.5832 0.67139 0.0
C1520 C 0.97442 0.60986 0.63852 0.0
C1521 C 0.97394 0.65968 0.62118 0.0
N1522 N 0.01585 0.59161 0.65914 0.0
N1523 N 0.99185 0.64978 0.63199 0.0
H1524 H 0.32427 0.07596 0.67853 0.0
H1525 H 0.3379 0.94371 0.60934 0.0
H1526 H 0.3855 0.03905 0.66858 0.0
H1527 H 0.27784 0.98474 0.61202 0.0
H1528 H 0.35642 0.981 0.62624 0.0
H1529 H 0.30766 0.04548 0.65034 0.0
C1530 C 0.33425 0.06166 0.66998 0.0
C1531 C 0.35626 0.06005 0.67562 0.0
C1532 C 0.33927 0.98214 0.62271 0.0
C1533 C 0.3374 0.02477 0.64375 0.0
C1534 C 0.32872 0.9609 0.6129 0.0
C1535 C 0.30632 0.96119 0.60926 0.0
C1536 C 0.32729 0.00376 0.62935 0.0
C1537 C 0.29515 0.98383 0.61437 0.0
C1538 C 0.3248 0.04425 0.65393 0.0
C1539 C 0.36853 0.04107 0.66439 0.0
N1540 N 0.30568 0.00406 0.62453 0.0
N1541 N 0.35889 0.024 0.64917 0.0
H1542 H 0.00976 0.32287 0.61516 0.0
H1543 H 0.9609 0.41804 0.71177 0.0
H1544 H 0.04691 0.38425 0.64686 0.0
H1545 H 0.92129 0.37461 0.6622 0.0
H1546 H 0.99256 0.40692 0.68781 0.0
H1547 H 0.97706 0.34211 0.63144 0.0
C1548 C 0.01107 0.3406 0.62514 0.0
C1549 C 0.0313 0.35162 0.6299 0.0
C1550 C 0.97688 0.40009 0.68204 0.0
C1551 C 0.99382 0.37349 0.64917 0.0
C1552 C 0.95876 0.40658 0.69565 0.0
C1553 C 0.93837 0.39691 0.68932 0.0
C1554 C 0.97466 0.38362 0.66207 0.0
C1555 C 0.93672 0.38196 0.66824 0.0
C1556 C 0.99236 0.35151 0.6346 0.0
C1557 C 0.03182 0.37456 0.64325 0.0
N1558 N 0.9546 0.37548 0.65564 0.0
N1559 N 0.01348 0.38448 0.65268 0.0
H1560 H 0.7204 0.98124 0.40328 0.0
H1561 H 0.61155 0.03854 0.3463 0.0
H1562 H 0.6601 0.94052 0.40004 0.0
H1563 H 0.67312 0.07608 0.34234 0.0
H1564 H 0.62761 0.006 0.37286 0.0
H1565 H 0.70195 0.01971 0.3884 0.0
C1566 C 0.70318 0.98061 0.40008 0.0
C1567 C 0.69179 0.95762 0.4027 0.0
C1568 C 0.63756 0.02156 0.36654 0.0
C1569 C 0.67063 1.00134 0.38525 0.0
C1570 C 0.62835 0.04017 0.35153 0.0
C1571 C 0.64105 0.05999 0.3424 0.0
C1572 C 0.65969 0.02271 0.37225 0.0
C1573 C 0.66284 0.06108 0.34922 0.0
C1574 C 0.69267 0.00248 0.39134 0.0
C1575 C 0.66952 0.95779 0.39801 0.0
N1576 N 0.67152 0.0426 0.3636 0.0
N1577 N 0.65973 0.97917 0.38928 0.0
H1578 H 0.94714 0.64323 0.31883 0.0
H1579 H 0.06354 0.61179 0.37116 0.0
H1580 H 0.96777 0.56505 0.32841 0.0
H1581 H 0.03009 0.68252 0.38463 0.0
H1582 H 0.03026 0.59387 0.35379 0.0
H1583 H 0.97928 0.65772 0.33992 0.0
C1584 C 0.95833 0.62898 0.32555 0.0
C1585 C 0.9543 0.60273 0.32227 0.0
C1586 C 0.03014 0.61316 0.36088 0.0
C1587 C 0.99185 0.61955 0.34619 0.0
C1588 C 0.0491 0.62341 0.37081 0.0
C1589 C 0.04961 0.64874 0.37937 0.0
C1590 C 0.01166 0.62851 0.35904 0.0
C1591 C 0.03043 0.66288 0.37849 0.0
C1592 C 0.97679 0.63737 0.3376 0.0
C1593 C 0.97007 0.58543 0.33057 0.0
N1594 N 0.01238 0.6527 0.36821 0.0
N1595 N 0.98816 0.59415 0.34217 0.0
H1596 H 0.31524 0.9588 0.28862 0.0
H1597 H 0.30051 0.05649 0.39555 0.0
H1598 H 0.372 0.99041 0.32264 0.0
H1599 H 0.2633 0.06212 0.32964 0.0
H1600 H 0.32488 0.02648 0.37546 0.0
H1601 H 0.29317 0.98982 0.31042 0.0
C1602 C 0.32304 0.97193 0.30106 0.0
C1603 C 0.3455 0.97154 0.30418 0.0
C1604 C 0.31151 0.03464 0.36542 0.0
C1605 C 0.32025 0.00703 0.32934 0.0
C1606 C 0.29777 0.0522 0.37673 0.0
C1607 C 0.2801 0.06268 0.36412 0.0
C1608 C 0.30708 0.0268 0.34164 0.0
C1609 C 0.2767 0.05471 0.34013 0.0
C1610 C 0.31044 0.98967 0.31339 0.0
C1611 C 0.35473 0.98919 0.32041 0.0
N1612 N 0.28986 0.03714 0.32981 0.0
N1613 N 0.34205 0.00616 0.3325 0.0
H1614 H 0.08428 0.38587 0.34145 0.0
H1615 H 0.96213 0.34556 0.32439 0.0
H1616 H 0.04594 0.40733 0.27945 0.0
H1617 H 0.99131 0.34955 0.39538 0.0
H1618 H 0.99367 0.36604 0.30766 0.0
H1619 H 0.05148 0.37142 0.36177 0.0
C1620 C 0.06889 0.38797 0.3323 0.0
C1621 C 0.06783 0.39783 0.3087 0.0
C1622 C 0.99315 0.36267 0.32693 0.0
C1623 C 0.03035 0.38076 0.33163 0.0
C1624 C 0.97501 0.35102 0.33664 0.0
C1625 C 0.97363 0.34618 0.36159 0.0
C1626 C 0.01054 0.36919 0.34201 0.0
C1627 C 0.99151 0.3528 0.3761 0.0
C1628 C 0.05021 0.37967 0.34389 0.0
C1629 C 0.04749 0.40008 0.29768 0.0
N1630 N 0.00924 0.36389 0.36609 0.0
N1631 N 0.02963 0.39126 0.30908 0.0
H1632 H 0.67916 0.70031 0.95526 0.0
H1633 H 0.65083 0.69306 0.09286 0.0
H1634 H 0.68149 0.62657 0.99037 0.0
H1635 H 0.61591 0.74116 0.04304 0.0
H1636 H 0.66616 0.66962 0.05833 0.0
H1637 H 0.66099 0.71777 0.99004 0.0
C1638 C 0.67563 0.68753 0.97006 0.0
C1639 C 0.68141 0.66151 0.96925 0.0
C1640 C 0.65499 0.68515 0.05504 0.0
C1641 C 0.66117 0.68218 0.01007 0.0
C1642 C 0.64623 0.69845 0.07465 0.0
C1643 C 0.63252 0.71941 0.07066 0.0
C1644 C 0.65018 0.69322 0.03141 0.0
C1645 C 0.62692 0.72559 0.04682 0.0
C1646 C 0.66533 0.69771 0.99009 0.0
C1647 C 0.67732 0.64664 0.98994 0.0
N1648 N 0.63606 0.7129 0.02812 0.0
N1649 N 0.6675 0.6572 0.00956 0.0
H1650 H 0.298 0.64327 0.00222 0.0
H1651 H 0.40565 0.70293 0.94552 0.0
H1652 H 0.35799 0.65068 0.0414 0.0
H1653 H 0.34305 0.70845 0.91193 0.0
H1654 H 0.38996 0.67675 0.97781 0.0
H1655 H 0.31573 0.65977 0.966 0.0
C1656 C 0.315 0.64786 0.00308 0.0
C1657 C 0.32647 0.64577 0.02495 0.0
C1658 C 0.37969 0.68335 0.96319 0.0
C1659 C 0.34685 0.66496 0.98361 0.0
C1660 C 0.3887 0.6981 0.94472 0.0
C1661 C 0.37561 0.70756 0.92604 0.0
C1662 C 0.35744 0.6781 0.96294 0.0
C1663 C 0.35365 0.7013 0.926 0.0
C1664 C 0.32508 0.6575 0.98245 0.0
C1665 C 0.34845 0.65229 0.02502 0.0
N1666 N 0.34523 0.68706 0.94419 0.0
N1667 N 0.35785 0.66172 0.00478 0.0
H1668 H 0.35527 0.37186 0.9482 0.0
H1669 H 0.35298 0.3072 0.07892 0.0
H1670 H 0.29885 0.37086 0.99292 0.0
H1671 H 0.4077 0.30553 0.03188 0.0
H1672 H 0.3347 0.33666 0.05095 0.0
H1673 H 0.37642 0.35426 0.98167 0.0
C1674 C 0.34742 0.36833 0.96526 0.0
C1675 C 0.32521 0.37263 0.9677 0.0
C1676 C 0.35085 0.33024 0.0469 0.0
C1677 C 0.34932 0.35202 0.00615 0.0
C1678 C 0.36129 0.31356 0.06292 0.0
C1679 C 0.3818 0.30405 0.0576 0.0
C1680 C 0.36102 0.33736 0.02533 0.0
C1681 C 0.39189 0.31257 0.03658 0.0
C1682 C 0.35949 0.3582 0.98437 0.0
C1683 C 0.31592 0.36791 0.99027 0.0
N1684 N 0.38133 0.32854 0.0211 0.0
N1685 N 0.32794 0.35749 0.00852 0.0
H1686 H 0.64299 0.36976 0.05576 0.0
H1687 H 0.65706 0.29597 0.93056 0.0
H1688 H 0.70336 0.36507 0.01821 0.0
H1689 H 0.59694 0.30145 0.96822 0.0
H1690 H 0.67327 0.32611 0.9594 0.0
H1691 H 0.62488 0.35013 0.02108 0.0
C1692 C 0.65239 0.36495 0.04002 0.0
C1693 C 0.67478 0.36887 0.04 0.0
C1694 C 0.65644 0.32111 0.96119 0.0
C1695 C 0.65412 0.34599 1.00017 0.0
C1696 C 0.64719 0.30402 0.94466 0.0
C1697 C 0.62566 0.29649 0.94702 0.0
C1698 C 0.64409 0.3305 0.9804 0.0
C1699 C 0.61356 0.30705 0.96575 0.0
C1700 C 0.64203 0.35368 0.02021 0.0
C1701 C 0.68608 0.36248 0.019 0.0
N1702 N 0.62299 0.32336 0.98185 0.0
N1703 N 0.6757 0.35103 1.00009 0.0
H1704 H 0.13969 0.3065 0.27355 0.0
H1705 H 0.2358 0.20492 0.28722 0.0
H1706 H 0.20068 0.31561 0.23819 0.0
H1707 H 0.17816 0.20466 0.32988 0.0
H1708 H 0.22193 0.24232 0.26492 0.0
H1709 H 0.15178 0.26534 0.28954 0.0
C1710 C 0.15546 0.2994 0.26871 0.0
C1711 C 0.16913 0.31406 0.25428 0.0
C1712 C 0.21224 0.2339 0.279 0.0
C1713 C 0.18344 0.26749 0.27311 0.0
C1714 C 0.22013 0.21265 0.29162 0.0
C1715 C 0.20789 0.20167 0.31002 0.0
C1716 C 0.19202 0.24413 0.28498 0.0
C1717 C 0.18786 0.21242 0.31548 0.0
C1718 C 0.16248 0.27608 0.27801 0.0
C1719 C 0.18965 0.30453 0.24902 0.0
N1720 N 0.18054 0.23302 0.30299 0.0
N1721 N 0.19627 0.28184 0.25856 0.0
H1722 H 0.78529 0.26111 0.39085 0.0
H1723 H 0.73146 0.12981 0.34842 0.0
H1724 H 0.81768 0.18826 0.39585 0.0
H1725 H 0.6977 0.20186 0.35125 0.0
H1726 H 0.76265 0.15017 0.36788 0.0
H1727 H 0.7521 0.23899 0.3797 0.0
C1728 C 0.78534 0.24042 0.39011 0.0
C1729 C 0.8044 0.22657 0.39403 0.0
C1730 C 0.74832 0.16143 0.36444 0.0
C1731 C 0.76651 0.20109 0.38058 0.0
C1732 C 0.73059 0.14986 0.35319 0.0
C1733 C 0.71193 0.16413 0.34821 0.0
C1734 C 0.74746 0.18751 0.37053 0.0
C1735 C 0.71161 0.19 0.35502 0.0
C1736 C 0.7664 0.22778 0.38349 0.0
C1737 C 0.80347 0.19977 0.39247 0.0
N1738 N 0.72912 0.20085 0.36567 0.0
N1739 N 0.78494 0.18792 0.38558 0.0
H1740 H 0.80197 0.65516 0.28826 0.0
H1741 H 0.82743 0.77011 0.37989 0.0
H1742 H 0.86562 0.67341 0.31456 0.0
H1743 H 0.76301 0.74552 0.36157 0.0
H1744 H 0.84183 0.73592 0.35465 0.0
H1745 H 0.78735 0.69012 0.31282 0.0
C1746 C 0.81285 0.66697 0.29884 0.0
C1747 C 0.83499 0.66194 0.29913 0.0
C1748 C 0.82454 0.73786 0.35627 0.0
C1749 C 0.81855 0.70126 0.32761 0.0
C1750 C 0.81634 0.75733 0.37072 0.0
C1751 C 0.79402 0.76056 0.37289 0.0
C1752 C 0.81032 0.72161 0.34371 0.0
C1753 C 0.78034 0.74345 0.36066 0.0
C1754 C 0.80455 0.68668 0.31301 0.0
C1755 C 0.84849 0.67719 0.31352 0.0
N1756 N 0.78871 0.72481 0.34646 0.0
N1757 N 0.84006 0.69616 0.32721 0.0
H1758 H 0.28211 0.89158 0.34526 0.0
H1759 H 0.22136 0.7582 0.34959 0.0
H1760 H 0.27639 0.8424 0.28313 0.0
H1761 H 0.19946 0.82202 0.39201 0.0
H1762 H 0.24705 0.78657 0.32941 0.0
H1763 H 0.25581 0.86469 0.36645 0.0
C1764 C 0.27494 0.8754 0.33598 0.0
C1765 C 0.28105 0.86932 0.31236 0.0
C1766 C 0.23675 0.79428 0.3433 0.0
C1767 C 0.25194 0.83808 0.33666 0.0
C1768 C 0.22236 0.77808 0.35501 0.0
C1769 C 0.2085 0.78785 0.37256 0.0
C1770 C 0.23746 0.82031 0.34948 0.0
C1771 C 0.21003 0.81384 0.37863 0.0
C1772 C 0.26012 0.86004 0.34806 0.0
C1773 C 0.27173 0.84793 0.30118 0.0
N1774 N 0.22433 0.82921 0.36715 0.0
N1775 N 0.25783 0.83285 0.31355 0.0
H1776 H 0.13269 0.67344 0.69074 0.0
H1777 H 0.23666 0.75018 0.64712 0.0
H1778 H 0.19586 0.66265 0.72186 0.0
H1779 H 0.1718 0.77082 0.62647 0.0
H1780 H 0.2223 0.71606 0.67249 0.0
H1781 H 0.14676 0.70832 0.66602 0.0
C1782 C 0.14944 0.67893 0.69272 0.0
C1783 C 0.16311 0.66569 0.70863 0.0
C1784 C 0.21121 0.72796 0.66233 0.0
C1785 C 0.17952 0.70475 0.67984 0.0
C1786 C 0.2194 0.74721 0.64759 0.0
C1787 C 0.20539 0.76324 0.63457 0.0
C1788 C 0.18883 0.72462 0.66396 0.0
C1789 C 0.18315 0.75893 0.63628 0.0
C1790 C 0.15752 0.69861 0.67847 0.0
C1791 C 0.18482 0.67281 0.71005 0.0
N1792 N 0.17555 0.74003 0.65072 0.0
N1793 N 0.19242 0.69181 0.69571 0.0
H1794 H 0.27367 0.17405 0.70367 0.0
H1795 H 0.19327 0.19339 0.59482 0.0
H1796 H 0.2882 0.13906 0.63527 0.0
H1797 H 0.21034 0.25523 0.64269 0.0
H1798 H 0.22385 0.16846 0.611 0.0
H1799 H 0.24492 0.19875 0.68402 0.0
C1800 C 0.27047 0.17126 0.68458 0.0
C1801 C 0.28305 0.15442 0.67102 0.0
C1802 C 0.22104 0.18764 0.61761 0.0
C1803 C 0.25047 0.18257 0.64854 0.0
C1804 C 0.20375 0.20182 0.60838 0.0
C1805 C 0.1996 0.22639 0.61732 0.0
C1806 C 0.23364 0.1979 0.6364 0.0
C1807 C 0.21329 0.23647 0.63515 0.0
C1808 C 0.25432 0.18553 0.67337 0.0
C1809 C 0.27866 0.1518 0.64626 0.0
N1810 N 0.22953 0.222 0.64441 0.0
N1811 N 0.26254 0.16563 0.63576 0.0
H1812 H 0.77191 0.20301 0.7104 0.0
H1813 H 0.8676 0.3044 0.72881 0.0
H1814 H 0.83112 0.20262 0.67052 0.0
H1815 H 0.80449 0.31519 0.75873 0.0
H1816 H 0.85616 0.26295 0.7128 0.0
H1817 H 0.78485 0.24061 0.73307 0.0
C1818 C 0.78774 0.2107 0.70672 0.0
C1819 C 0.80068 0.1996 0.68899 0.0
C1820 C 0.84485 0.27415 0.72315 0.0
C1821 C 0.8155 0.24236 0.71447 0.0
C1822 C 0.85147 0.29763 0.73248 0.0
C1823 C 0.83702 0.31285 0.74537 0.0
C1824 C 0.82353 0.26592 0.72651 0.0
C1825 C 0.8161 0.3037 0.74912 0.0
C1826 C 0.7951 0.2321 0.71955 0.0
C1827 C 0.82089 0.21039 0.68444 0.0
N1828 N 0.80991 0.28081 0.73961 0.0
N1829 N 0.82769 0.23112 0.69712 0.0
H1830 H 0.8084 0.8193 0.60106 0.0
H1831 H 0.7196 0.88863 0.64571 0.0
H1832 H 0.78131 0.75816 0.64313 0.0
H1833 H 0.73002 0.84149 0.70855 0.0
H1834 H 0.74586 0.86268 0.62365 0.0
H1835 H 0.78228 0.849 0.61876 0.0
C1836 C 0.79656 0.8121 0.6136 0.0
C1837 C 0.79666 0.78628 0.62042 0.0
C1838 C 0.74274 0.85837 0.64241 0.0
C1839 C 0.76726 0.82001 0.64109 0.0
C1840 C 0.72781 0.87315 0.65496 0.0
C1841 C 0.72299 0.86738 0.67905 0.0
C1842 C 0.75252 0.8374 0.65393 0.0
C1843 C 0.73367 0.84684 0.69015 0.0
C1844 C 0.78173 0.82899 0.62369 0.0
C1845 C 0.78141 0.77786 0.63711 0.0
N1846 N 0.74773 0.83235 0.67739 0.0
N1847 N 0.7675 0.79478 0.64717 0.0
H1848 H 0.31916 0.12065 0.28471 0.0
H1849 H 0.31442 0.2063 0.1654 0.0
H1850 H 0.25963 0.14495 0.25129 0.0
H1851 H 0.3728 0.17294 0.19372 0.0
H1852 H 0.29372 0.18266 0.19572 0.0
H1853 H 0.33889 0.1374 0.25015 0.0
C1854 C 0.31024 0.12909 0.26982 0.0
C1855 C 0.28777 0.13148 0.27082 0.0
C1856 C 0.31106 0.1805 0.19534 0.0
C1857 C 0.3102 0.15124 0.23147 0.0
C1858 C 0.32281 0.1941 0.17819 0.0
C1859 C 0.34527 0.19199 0.17767 0.0
C1860 C 0.32193 0.16465 0.21195 0.0
C1861 C 0.3555 0.17553 0.19409 0.0
C1862 C 0.32148 0.13875 0.25015 0.0
C1863 C 0.27695 0.14256 0.2511 0.0
N1864 N 0.34377 0.16263 0.2107 0.0
N1865 N 0.28829 0.15237 0.23236 0.0
H1866 H 0.873 0.33786 0.30566 0.0
H1867 H 0.75581 0.36506 0.24941 0.0
H1868 H 0.81452 0.3099 0.33746 0.0
H1869 H 0.81517 0.38069 0.2124 0.0
H1870 H 0.7767 0.34978 0.28436 0.0
H1871 H 0.85176 0.35777 0.27332 0.0
C1872 C 0.85565 0.33567 0.30554 0.0
C1873 C 0.84542 0.32171 0.32369 0.0
C1874 C 0.78514 0.35679 0.26868 0.0
C1875 C 0.82097 0.34497 0.28732 0.0
C1876 C 0.77324 0.36574 0.24887 0.0
C1877 C 0.78383 0.37402 0.22802 0.0
C1878 C 0.80774 0.35629 0.26761 0.0
C1879 C 0.80641 0.37423 0.22808 0.0
C1880 C 0.84352 0.34717 0.28725 0.0
C1881 C 0.82291 0.32011 0.32338 0.0
N1882 N 0.81761 0.36537 0.2475 0.0
N1883 N 0.81137 0.33156 0.30539 0.0
H1884 H 0.69404 0.75467 0.21523 0.0
H1885 H 0.74028 0.78856 0.32774 0.0
H1886 H 0.63755 0.79227 0.2424 0.0
H1887 H 0.69164 0.84721 0.32678 0.0
H1888 H 0.72337 0.76909 0.29187 0.0
H1889 H 0.71391 0.76747 0.25179 0.0
C1890 C 0.68573 0.76495 0.22934 0.0
C1891 C 0.66411 0.77196 0.22628 0.0
C1892 C 0.71658 0.78644 0.2992 0.0
C1893 C 0.68656 0.787 0.2678 0.0
C1894 C 0.7262 0.79744 0.31966 0.0
C1895 C 0.71732 0.81949 0.32984 0.0
C1896 C 0.69796 0.79768 0.28912 0.0
C1897 C 0.69894 0.83026 0.31917 0.0
C1898 C 0.69701 0.77227 0.25018 0.0
C1899 C 0.65409 0.78602 0.2445 0.0
N1900 N 0.68978 0.81915 0.29947 0.0
N1901 N 0.66546 0.79329 0.26439 0.0
H1902 H 0.18971 0.63478 0.20008 0.0
H1903 H 0.19761 0.70851 0.32657 0.0
H1904 H 0.24999 0.65684 0.23328 0.0
H1905 H 0.13915 0.67452 0.29915 0.0
H1906 H 0.2169 0.69216 0.29126 0.0
H1907 H 0.17066 0.65074 0.23545 0.0
C1908 C 0.19892 0.6428 0.21495 0.0
C1909 C 0.22144 0.6445 0.2138 0.0
C1910 C 0.19981 0.6885 0.29282 0.0
C1911 C 0.19977 0.66311 0.25419 0.0
C1912 C 0.18882 0.69803 0.31279 0.0
C1913 C 0.16675 0.69334 0.31528 0.0
C1914 C 0.18859 0.67408 0.27536 0.0
C1915 C 0.15607 0.6791 0.29742 0.0
C1916 C 0.18806 0.65193 0.23511 0.0
C1917 C 0.23263 0.65493 0.23358 0.0
N1918 N 0.16708 0.66999 0.27817 0.0
N1919 N 0.22167 0.66405 0.2529 0.0
H1920 H 0.35713 0.81871 0.77803 0.0
H1921 H 0.26451 0.7896 0.68049 0.0
H1922 H 0.3151 0.7536 0.78411 0.0
H1923 H 0.29658 0.86222 0.68774 0.0
H1924 H 0.28369 0.77435 0.71689 0.0
H1925 H 0.33659 0.83309 0.74266 0.0
C1926 C 0.34355 0.80745 0.77172 0.0
C1927 C 0.33756 0.78515 0.78387 0.0
C1928 C 0.28632 0.79371 0.71067 0.0
C1929 C 0.31401 0.80128 0.74355 0.0
C1930 C 0.27534 0.80237 0.69006 0.0
C1931 C 0.27885 0.82722 0.68158 0.0
C1932 C 0.30111 0.80996 0.72243 0.0
C1933 C 0.29329 0.84304 0.69409 0.0
C1934 C 0.33177 0.81566 0.75167 0.0
C1935 C 0.32002 0.77099 0.77511 0.0
N1936 N 0.30397 0.83411 0.71383 0.0
N1937 N 0.30878 0.77931 0.7554 0.0
H1938 H 0.17658 0.37299 0.80086 0.0
H1939 H 0.18538 0.3017 0.67323 0.0
H1940 H 0.23702 0.35732 0.76605 0.0
H1941 H 0.1254 0.32615 0.70408 0.0
H1942 H 0.20471 0.31988 0.70811 0.0
H1943 H 0.15751 0.35471 0.76613 0.0
C1944 C 0.18581 0.36586 0.78579 0.0
C1945 C 0.2084 0.36668 0.7863 0.0
C1946 C 0.18731 0.32103 0.7074 0.0
C1947 C 0.18672 0.34547 0.74659 0.0
C1948 C 0.17633 0.31046 0.68767 0.0
C1949 C 0.15385 0.31196 0.68625 0.0
C1950 C 0.17564 0.33332 0.72569 0.0
C1951 C 0.14274 0.32407 0.70495 0.0
C1952 C 0.17494 0.35541 0.76598 0.0
C1953 C 0.21958 0.35733 0.76625 0.0
N1954 N 0.15376 0.33428 0.72392 0.0
N1955 N 0.20864 0.34694 0.74727 0.0
H1956 H 0.75154 0.14217 0.74846 0.0
H1957 H 0.63745 0.16973 0.80963 0.0
H1958 H 0.69053 0.12141 0.71623 0.0
H1959 H 0.6969 0.20355 0.83441 0.0
H1960 H 0.65726 0.1466 0.77844 0.0
H1961 H 0.73249 0.15855 0.78379 0.0
C1962 C 0.73417 0.14048 0.74911 0.0
C1963 C 0.72255 0.13051 0.72942 0.0
C1964 C 0.66602 0.15912 0.79062 0.0
C1965 C 0.70067 0.14961 0.76943 0.0
C1966 C 0.6547 0.17239 0.80825 0.0
C1967 C 0.6656 0.18898 0.824 0.0
C1968 C 0.68843 0.16222 0.78896 0.0
C1969 C 0.68798 0.19127 0.82217 0.0
C1970 C 0.72329 0.1501 0.76912 0.0
C1971 C 0.70005 0.12914 0.73099 0.0
N1972 N 0.69871 0.1781 0.80484 0.0
N1973 N 0.68983 0.13875 0.75057 0.0
H1974 H 0.86473 0.66546 0.69497 0.0
H1975 H 0.75163 0.64557 0.76081 0.0
H1976 H 0.80559 0.69998 0.67014 0.0
H1977 H 0.81276 0.62467 0.79265 0.0
H1978 H 0.77049 0.66098 0.72495 0.0
H1979 H 0.84553 0.64707 0.72926 0.0
C1980 C 0.84776 0.66959 0.69714 0.0
C1981 C 0.83676 0.6848 0.68027 0.0
C1982 C 0.77976 0.65279 0.73969 0.0
C1983 C 0.81451 0.66307 0.71872 0.0
C1984 C 0.76898 0.64371 0.75999 0.0
C1985 C 0.7807 0.63388 0.77966 0.0
C1986 C 0.80237 0.65188 0.73907 0.0
C1987 C 0.80318 0.63227 0.77788 0.0
C1988 C 0.83676 0.65889 0.71649 0.0
C1989 C 0.81462 0.68878 0.68318 0.0
N1990 N 0.81329 0.64129 0.758 0.0
N1991 N 0.80417 0.67795 0.70206 0.0
H1992 H 0.24141 0.40432 0.17169 0.0
H1993 H 0.28068 0.27065 0.11938 0.0
H1994 H 0.19924 0.33967 0.16084 0.0
H1995 H 0.31972 0.33886 0.1188 0.0
H1996 H 0.24963 0.29654 0.13098 0.0
H1997 H 0.26968 0.38157 0.14986 0.0
C1998 C 0.23806 0.38544 0.16456 0.0
C1999 C 0.21796 0.37389 0.16811 0.0
C2000 C 0.26492 0.30591 0.12799 0.0
C2001 C 0.25017 0.3477 0.1432 0.0
C2002 C 0.2826 0.29114 0.12118 0.0
C2003 C 0.30287 0.30256 0.11854 0.0
C2004 C 0.26761 0.33223 0.13232 0.0
C2005 C 0.30447 0.32921 0.12123 0.0
C2006 C 0.25414 0.3725 0.15199 0.0
C2007 C 0.21441 0.34945 0.1583 0.0
N2008 N 0.28717 0.34307 0.12832 0.0
N2009 N 0.23041 0.33709 0.14652 0.0
H2010 H 0.27651 0.72334 0.84548 0.0
H2011 H 0.23186 0.58627 0.80505 0.0
H2012 H 0.31313 0.6538 0.85474 0.0
H2013 H 0.19378 0.65528 0.80596 0.0
H2014 H 0.26187 0.61005 0.82365 0.0
H2015 H 0.24564 0.69803 0.83244 0.0
C2016 C 0.27799 0.70272 0.84521 0.0
C2017 C 0.29758 0.69078 0.85112 0.0
C2018 C 0.24684 0.61987 0.81995 0.0
C2019 C 0.26228 0.66155 0.83547 0.0
C2020 C 0.22979 0.60634 0.80922 0.0
C2021 C 0.21021 0.61871 0.80413 0.0
C2022 C 0.24434 0.64598 0.82532 0.0
C2023 C 0.20839 0.64477 0.80998 0.0
C2024 C 0.26037 0.68824 0.8375 0.0
C2025 C 0.29851 0.66392 0.84992 0.0
N2026 N 0.22521 0.65748 0.82014 0.0
N2027 N 0.2812 0.65024 0.84203 0.0
H2028 H 0.31817 0.30412 0.85419 0.0
H2029 H 0.29884 0.20563 0.74543 0.0
H2030 H 0.26361 0.30977 0.80596 0.0
H2031 H 0.3582 0.21196 0.78579 0.0
H2032 H 0.28448 0.24246 0.76789 0.0
H2033 H 0.33188 0.26834 0.8304 0.0
C2034 C 0.30911 0.29761 0.83855 0.0
C2035 C 0.2899 0.30971 0.83178 0.0
C2036 C 0.30072 0.23595 0.77164 0.0
C2037 C 0.30531 0.26898 0.8045 0.0
C2038 C 0.30888 0.21511 0.75879 0.0
C2039 C 0.32974 0.20626 0.76367 0.0
C2040 C 0.31351 0.24758 0.78963 0.0
C2041 C 0.34212 0.21862 0.78138 0.0
C2042 C 0.31691 0.27733 0.82493 0.0
C2043 C 0.27855 0.30076 0.81155 0.0
N2044 N 0.33379 0.2386 0.79379 0.0
N2045 N 0.28644 0.28084 0.79852 0.0
H2046 H 0.7235 0.26423 0.86633 0.0
H2047 H 0.78181 0.39937 0.8533 0.0
H2048 H 0.69478 0.33291 0.89448 0.0
H2049 H 0.78425 0.34051 0.79899 0.0
H2050 H 0.75557 0.37341 0.87586 0.0
H2051 H 0.75294 0.28997 0.84981 0.0
C2052 C 0.7238 0.28464 0.86965 0.0
C2053 C 0.70686 0.29657 0.88176 0.0
C2054 C 0.76185 0.36631 0.85897 0.0
C2055 C 0.74008 0.326 0.86278 0.0
C2056 C 0.77663 0.38109 0.84612 0.0
C2057 C 0.78471 0.37211 0.82417 0.0
C2058 C 0.7558 0.34219 0.85005 0.0
C2059 C 0.77798 0.34817 0.81568 0.0
C2060 C 0.74039 0.29931 0.85999 0.0
C2061 C 0.70768 0.32313 0.88523 0.0
N2062 N 0.764 0.33393 0.82872 0.0
N2063 N 0.72401 0.33705 0.87569 0.0
H2064 H 0.67206 0.70364 0.84192 0.0
H2065 H 0.70002 0.81134 0.74541 0.0
H2066 H 0.73103 0.70257 0.8016 0.0
H2067 H 0.63646 0.79905 0.77359 0.0
H2068 H 0.71208 0.77152 0.76496 0.0
H2069 H 0.65906 0.73901 0.81691 0.0
C2070 C 0.68212 0.71074 0.82751 0.0
C2071 C 0.70239 0.69997 0.82335 0.0
C2072 C 0.6954 0.77727 0.76647 0.0
C2073 C 0.68796 0.74083 0.79504 0.0
C2074 C 0.68854 0.79983 0.75522 0.0
C2075 C 0.6672 0.80804 0.75766 0.0
C2076 C 0.68086 0.76325 0.78059 0.0
C2077 C 0.65295 0.79299 0.771 0.0
C2078 C 0.67475 0.73093 0.81327 0.0
C2079 C 0.71516 0.71027 0.80504 0.0
N2080 N 0.66008 0.77143 0.78213 0.0
N2081 N 0.70776 0.73024 0.79154 0.0
H2082 H 0.69915 0.65836 0.13344 0.0
H2083 H 0.7762 0.62814 0.24485 0.0
H2084 H 0.71622 0.71511 0.18666 0.0
H2085 H 0.78842 0.59451 0.17527 0.0
H2086 H 0.7478 0.6545 0.22647 0.0
H2087 H 0.7268 0.62967 0.15063 0.0
C2088 C 0.70896 0.66483 0.14852 0.0
C2089 C 0.70576 0.68915 0.15851 0.0
C2090 C 0.75653 0.64111 0.21531 0.0
C2091 C 0.73647 0.65635 0.17869 0.0
C2092 C 0.77248 0.62586 0.22582 0.0
C2093 C 0.78446 0.60906 0.21153 0.0
C2094 C 0.75232 0.63921 0.19044 0.0
C2095 C 0.7794 0.6072 0.18684 0.0
C2096 C 0.72458 0.6485 0.15833 0.0
C2097 C 0.71853 0.69663 0.17825 0.0
N2098 N 0.76362 0.62209 0.17703 0.0
N2099 N 0.73318 0.68017 0.1879 0.0
H2100 H 0.36792 0.80521 0.21537 0.0
H2101 H 0.27091 0.70807 0.1878 0.0
H2102 H 0.30425 0.81668 0.24354 0.0
H2103 H 0.3292 0.7119 0.14643 0.0
H2104 H 0.28361 0.74459 0.21219 0.0
H2105 H 0.35527 0.76665 0.19461 0.0
C2106 C 0.35137 0.79915 0.21758 0.0
C2107 C 0.33713 0.81369 0.2314 0.0
C2108 C 0.29362 0.73739 0.1978 0.0
C2109 C 0.32233 0.77017 0.20725 0.0
C2110 C 0.28637 0.71667 0.18394 0.0
C2111 C 0.29923 0.70696 0.16544 0.0
C2112 C 0.31387 0.74823 0.19307 0.0
C2113 C 0.31903 0.71873 0.16083 0.0
C2114 C 0.34407 0.77738 0.20554 0.0
C2115 C 0.3157 0.8056 0.23327 0.0
N2116 N 0.32581 0.73863 0.17465 0.0
N2117 N 0.30888 0.78433 0.22126 0.0
H2118 H 0.6686 0.31161 0.16017 0.0
H2119 H 0.6846 0.21297 0.26934 0.0
H2120 H 0.72399 0.31279 0.20748 0.0
H2121 H 0.62624 0.21887 0.22716 0.0
H2122 H 0.69924 0.25003 0.24775 0.0
H2123 H 0.65284 0.27753 0.18467 0.0
C2124 C 0.67736 0.30458 0.17582 0.0
C2125 C 0.69744 0.31492 0.18209 0.0
C2126 C 0.68312 0.24347 0.24341 0.0
C2127 C 0.67974 0.27603 0.2101 0.0
C2128 C 0.67478 0.2225 0.25581 0.0
C2129 C 0.6542 0.21329 0.25006 0.0
C2130 C 0.67082 0.255 0.22497 0.0
C2131 C 0.6421 0.22576 0.23218 0.0
C2132 C 0.6684 0.28525 0.18982 0.0
C2133 C 0.70839 0.30522 0.20227 0.0
N2134 N 0.65065 0.24592 0.22013 0.0
N2135 N 0.6994 0.28625 0.21562 0.0
loop_
_geom_bond_atom_site_label_1
_geom_bond_atom_site_label_2
_geom_bond_distance
_geom_bond_site_symmetry_2
_ccdc_geom_bond_type
C0 C1 1.443 . S
C0 N4 1.376 . S
C0 C38 1.389 . S
C1 C0 1.443 . S
C1 C2 1.340 . S
C1 H41 0.951 . S
C2 C1 1.340 . S
C2 C3 1.439 . S
C2 H42 0.950 . S
C3 C2 1.439 . S
C3 N4 1.374 . S
C3 C37 1.395 . S
N4 C0 1.376 . S
N4 C3 1.374 . S
N4 Co5 2.008 . S
Co5 N4 2.008 . S
Co5 N6 1.995 . S
Co5 N11 2.008 . S
Co5 N16 1.995 . S
Co5 N21 2.282 . S
Co5 N27 2.282 . S
N6 Co5 1.995 . S
N6 C7 1.376 . S
N6 C10 1.383 . S
C7 N6 1.376 . S
C7 C8 1.446 . S
C7 C37 1.391 . S
C8 C7 1.446 . S
C8 C9 1.339 . S
C8 H43 0.949 . S
C9 C8 1.339 . S
C9 C10 1.439 . S
C9 H44 0.950 . S
C10 N6 1.383 . S
C10 C9 1.439 . S
C10 C39 1.392 . S
N11 Co5 2.008 . S
N11 C12 1.376 . S
N11 C15 1.374 . S
C12 N11 1.376 . S
C12 C13 1.443 . S
C12 C39 1.389 . S
C13 C12 1.443 . S
C13 C14 1.340 . S
C13 H45 0.951 . S
C14 C13 1.340 . S
C14 C15 1.439 . S
C14 H46 0.950 . S
C15 N11 1.374 . S
C15 C14 1.439 . S
C15 C40 1.395 . S
N16 Co5 1.995 . S
N16 C17 1.376 . S
N16 C20 1.383 . S
C17 N16 1.376 . S
C17 C18 1.446 . S
C17 C40 1.391 . S
C18 C17 1.446 . S
C18 C19 1.339 . S
C18 H47 0.949 . S
C19 C18 1.339 . S
C19 C20 1.439 . S
C19 H48 0.950 . S
C20 N16 1.383 . S
C20 C19 1.439 . S
C20 C38 1.392 . S
N21 Co5 2.282 . S
N21 C24 1.332 . S
N21 C26 1.332 . S
C22 C23 1.386 . S
C22 C25 1.388 . S
C23 C22 1.386 . S
C23 C24 1.382 . S
C23 H49 0.950 . S
C24 N21 1.332 . S
C24 C23 1.382 . S
C24 H35 0.952 . S
C25 C22 1.388 . S
C25 C26 1.382 . S
C25 H50 0.950 . S
C26 N21 1.332 . S
C26 C25 1.382 . S
C26 H36 0.948 . S
N27 Co5 2.282 . S
N27 C31 1.332 . S
N27 C32 1.332 . S
C28 C29 1.388 . S
C28 C32 1.382 . S
C28 H51 0.950 . S
C29 C28 1.388 . S
C29 C30 1.386 . S
C30 C29 1.386 . S
C30 C31 1.382 . S
C30 H52 0.950 . S
C31 N27 1.332 . S
C31 C30 1.382 . S
C31 H33 0.952 . S
C32 N27 1.332 . S
C32 C28 1.382 . S
C32 H34 0.948 . S
H33 C31 0.952 . S
H34 C32 0.948 . S
H35 C24 0.952 . S
H36 C26 0.948 . S
C37 C3 1.395 . S
C37 C7 1.391 . S
C38 C0 1.389 . S
C38 C20 1.392 . S
C39 C10 1.392 . S
C39 C12 1.389 . S
C40 C15 1.395 . S
C40 C17 1.391 . S
H41 C1 0.951 . S
H42 C2 0.950 . S
H43 C8 0.949 . S
H44 C9 0.950 . S
H45 C13 0.951 . S
H46 C14 0.950 . S
H47 C18 0.949 . S
H48 C19 0.950 . S
H49 C23 0.950 . S
H50 C25 0.950 . S
H51 C28 0.950 . S
H52 C30 0.950 . S
C53 C54 1.443 . S
C53 N57 1.376 . S
C53 C91 1.389 . S
C54 C53 1.443 . S
C54 C55 1.340 . S
C54 H94 0.951 . S
C55 C54 1.340 . S
C55 C56 1.439 . S
C55 H95 0.950 . S
C56 C55 1.439 . S
C56 N57 1.374 . S
C56 C90 1.395 . S
N57 C53 1.376 . S
N57 C56 1.374 . S
N57 Co58 2.008 . S
Co58 N57 2.008 . S
Co58 N59 1.995 . S
Co58 N64 2.008 . S
Co58 N69 1.995 . S
Co58 N74 2.282 . S
Co58 N80 2.282 . S
N59 Co58 1.995 . S
N59 C60 1.376 . S
N59 C63 1.383 . S
C60 N59 1.376 . S
C60 C61 1.446 . S
C60 C90 1.391 . S
C61 C60 1.446 . S
C61 C62 1.339 . S
C61 H96 0.949 . S
C62 C61 1.339 . S
C62 C63 1.439 . S
C62 H97 0.950 . S
C63 N59 1.383 . S
C63 C62 1.439 . S
C63 C92 1.392 . S
N64 Co58 2.008 . S
N64 C65 1.376 . S
N64 C68 1.374 . S
C65 N64 1.376 . S
C65 C66 1.443 . S
C65 C92 1.389 . S
C66 C65 1.443 . S
C66 C67 1.340 . S
C66 H98 0.951 . S
C67 C66 1.340 . S
C67 C68 1.439 . S
C67 H99 0.950 . S
C68 N64 1.374 . S
C68 C67 1.439 . S
C68 C93 1.395 . S
N69 Co58 1.995 . S
N69 C70 1.376 . S
N69 C73 1.383 . S
C70 N69 1.376 . S
C70 C71 1.446 . S
C70 C93 1.391 . S
C71 C70 1.446 . S
C71 C72 1.339 . S
C71 H100 0.949 . S
C72 C71 1.339 . S
C72 C73 1.439 . S
C72 H101 0.950 . S
C73 N69 1.383 . S
C73 C72 1.439 . S
C73 C91 1.392 . S
N74 Co58 2.282 . S
N74 C77 1.332 . S
N74 C79 1.332 . S
C75 C76 1.386 . S
C75 C78 1.388 . S
C76 C75 1.386 . S
C76 C77 1.382 . S
C76 H102 0.950 . S
C77 N74 1.332 . S
C77 C76 1.382 . S
C77 H88 0.952 . S
C78 C75 1.388 . S
C78 C79 1.382 . S
C78 H103 0.950 . S
C79 N74 1.332 . S
C79 C78 1.382 . S
C79 H89 0.948 . S
N80 Co58 2.282 . S
N80 C84 1.332 . S
N80 C85 1.332 . S
C81 C82 1.388 . S
C81 C85 1.382 . S
C81 H104 0.950 . S
C82 C81 1.388 . S
C82 C83 1.386 . S
C83 C82 1.386 . S
C83 C84 1.382 . S
C83 H105 0.950 . S
C84 N80 1.332 . S
C84 C83 1.382 . S
C84 H86 0.952 . S
C85 N80 1.332 . S
C85 C81 1.382 . S
C85 H87 0.948 . S
H86 C84 0.952 . S
H87 C85 0.948 . S
H88 C77 0.952 . S
H89 C79 0.948 . S
C90 C56 1.395 . S
C90 C60 1.391 . S
C91 C53 1.389 . S
C91 C73 1.392 . S
C92 C63 1.392 . S
C92 C65 1.389 . S
C93 C68 1.395 . S
C93 C70 1.391 . S
H94 C54 0.951 . S
H95 C55 0.950 . S
H96 C61 0.949 . S
H97 C62 0.950 . S
H98 C66 0.951 . S
H99 C67 0.950 . S
H100 C71 0.949 . S
H101 C72 0.950 . S
H102 C76 0.950 . S
H103 C78 0.950 . S
H104 C81 0.950 . S
H105 C83 0.950 . S
C106 C107 1.443 . S
C106 N110 1.376 . S
C106 C144 1.389 . S
C107 C106 1.443 . S
C107 C108 1.340 . S
C107 H147 0.951 . S
C108 C107 1.340 . S
C108 C109 1.439 . S
C108 H148 0.950 . S
C109 C108 1.439 . S
C109 N110 1.374 . S
C109 C143 1.395 . S
N110 C106 1.376 . S
N110 C109 1.374 . S
N110 Co111 2.008 . S
Co111 N110 2.008 . S
Co111 N112 1.995 . S
Co111 N117 2.008 . S
Co111 N122 1.995 . S
Co111 N127 2.282 . S
Co111 N133 2.282 . S
N112 Co111 1.995 . S
N112 C113 1.376 . S
N112 C116 1.383 . S
C113 N112 1.376 . S
C113 C114 1.446 . S
C113 C143 1.391 . S
C114 C113 1.446 . S
C114 C115 1.339 . S
C114 H149 0.949 . S
C115 C114 1.339 . S
C115 C116 1.439 . S
C115 H150 0.950 . S
C116 N112 1.383 . S
C116 C115 1.439 . S
C116 C145 1.392 . S
N117 Co111 2.008 . S
N117 C118 1.376 . S
N117 C121 1.374 . S
C118 N117 1.376 . S
C118 C119 1.443 . S
C118 C145 1.389 . S
C119 C118 1.443 . S
C119 C120 1.340 . S
C119 H151 0.951 . S
C120 C119 1.340 . S
C120 C121 1.439 . S
C120 H152 0.950 . S
C121 N117 1.374 . S
C121 C120 1.439 . S
C121 C146 1.395 . S
N122 Co111 1.995 . S
N122 C123 1.376 . S
N122 C126 1.383 . S
C123 N122 1.376 . S
C123 C124 1.446 . S
C123 C146 1.391 . S
C124 C123 1.446 . S
C124 C125 1.339 . S
C124 H153 0.949 . S
C125 C124 1.339 . S
C125 C126 1.439 . S
C125 H154 0.950 . S
C126 N122 1.383 . S
C126 C125 1.439 . S
C126 C144 1.392 . S
N127 Co111 2.282 . S
N127 C130 1.332 . S
N127 C132 1.332 . S
C128 C129 1.386 . S
C128 C131 1.388 . S
C129 C128 1.386 . S
C129 C130 1.382 . S
C129 H155 0.950 . S
C130 N127 1.332 . S
C130 C129 1.382 . S
C130 H141 0.952 . S
C131 C128 1.388 . S
C131 C132 1.382 . S
C131 H156 0.950 . S
C132 N127 1.332 . S
C132 C131 1.382 . S
C132 H142 0.948 . S
N133 Co111 2.282 . S
N133 C137 1.332 . S
N133 C138 1.332 . S
C134 C135 1.388 . S
C134 C138 1.382 . S
C134 H157 0.950 . S
C135 C134 1.388 . S
C135 C136 1.386 . S
C136 C135 1.386 . S
C136 C137 1.382 . S
C136 H158 0.950 . S
C137 N133 1.332 . S
C137 C136 1.382 . S
C137 H139 0.952 . S
C138 N133 1.332 . S
C138 C134 1.382 . S
C138 H140 0.948 . S
H139 C137 0.952 . S
H140 C138 0.948 . S
H141 C130 0.952 . S
H142 C132 0.948 . S
C143 C109 1.395 . S
C143 C113 1.391 . S
C144 C106 1.389 . S
C144 C126 1.392 . S
C145 C116 1.392 . S
C145 C118 1.389 . S
C146 C121 1.395 . S
C146 C123 1.391 . S
H147 C107 0.951 . S
H148 C108 0.950 . S
H149 C114 0.949 . S
H150 C115 0.950 . S
H151 C119 0.951 . S
H152 C120 0.950 . S
H153 C124 0.949 . S
H154 C125 0.950 . S
H155 C129 0.950 . S
H156 C131 0.950 . S
H157 C134 0.950 . S
H158 C136 0.950 . S
C159 C160 1.443 . S
C159 N163 1.376 . S
C159 C197 1.389 . S
C160 C159 1.443 . S
C160 C161 1.340 . S
C160 H200 0.951 . S
C161 C160 1.340 . S
C161 C162 1.439 . S
C161 H201 0.950 . S
C162 C161 1.439 . S
C162 N163 1.374 . S
C162 C196 1.395 . S
N163 C159 1.376 . S
N163 C162 1.374 . S
N163 Co164 2.008 . S
Co164 N163 2.008 . S
Co164 N165 1.995 . S
Co164 N170 2.008 . S
Co164 N175 1.995 . S
Co164 N180 2.282 . S
Co164 N186 2.282 . S
N165 Co164 1.995 . S
N165 C166 1.376 . S
N165 C169 1.383 . S
C166 N165 1.376 . S
C166 C167 1.446 . S
C166 C196 1.391 . S
C167 C166 1.446 . S
C167 C168 1.339 . S
C167 H202 0.949 . S
C168 C167 1.339 . S
C168 C169 1.439 . S
C168 H203 0.950 . S
C169 N165 1.383 . S
C169 C168 1.439 . S
C169 C198 1.392 . S
N170 Co164 2.008 . S
N170 C171 1.376 . S
N170 C174 1.374 . S
C171 N170 1.376 . S
C171 C172 1.443 . S
C171 C198 1.389 . S
C172 C171 1.443 . S
C172 C173 1.340 . S
C172 H204 0.951 . S
C173 C172 1.340 . S
C173 C174 1.439 . S
C173 H205 0.950 . S
C174 N170 1.374 . S
C174 C173 1.439 . S
C174 C199 1.395 . S
N175 Co164 1.995 . S
N175 C176 1.376 . S
N175 C179 1.383 . S
C176 N175 1.376 . S
C176 C177 1.446 . S
C176 C199 1.391 . S
C177 C176 1.446 . S
C177 C178 1.339 . S
C177 H206 0.949 . S
C178 C177 1.339 . S
C178 C179 1.439 . S
C178 H207 0.950 . S
C179 N175 1.383 . S
C179 C178 1.439 . S
C179 C197 1.392 . S
N180 Co164 2.282 . S
N180 C183 1.332 . S
N180 C185 1.332 . S
C181 C182 1.386 . S
C181 C184 1.388 . S
C182 C181 1.386 . S
C182 C183 1.382 . S
C182 H208 0.950 . S
C183 N180 1.332 . S
C183 C182 1.382 . S
C183 H194 0.952 . S
C184 C181 1.388 . S
C184 C185 1.382 . S
C184 H209 0.950 . S
C185 N180 1.332 . S
C185 C184 1.382 . S
C185 H195 0.948 . S
N186 Co164 2.282 . S
N186 C190 1.332 . S
N186 C191 1.332 . S
C187 C188 1.388 . S
C187 C191 1.382 . S
C187 H210 0.950 . S
C188 C187 1.388 . S
C188 C189 1.386 . S
C189 C188 1.386 . S
C189 C190 1.382 . S
C189 H211 0.950 . S
C190 N186 1.332 . S
C190 C189 1.382 . S
C190 H192 0.952 . S
C191 N186 1.332 . S
C191 C187 1.382 . S
C191 H193 0.948 . S
H192 C190 0.952 . S
H193 C191 0.948 . S
H194 C183 0.952 . S
H195 C185 0.948 . S
C196 C162 1.395 . S
C196 C166 1.391 . S
C197 C159 1.389 . S
C197 C179 1.392 . S
C198 C169 1.392 . S
C198 C171 1.389 . S
C199 C174 1.395 . S
C199 C176 1.391 . S
H200 C160 0.951 . S
H201 C161 0.950 . S
H202 C167 0.949 . S
H203 C168 0.950 . S
H204 C172 0.951 . S
H205 C173 0.950 . S
H206 C177 0.949 . S
H207 C178 0.950 . S
H208 C182 0.950 . S
H209 C184 0.950 . S
H210 C187 0.950 . S
H211 C189 0.950 . S
C212 C213 1.443 . S
C212 N216 1.376 . S
C212 C250 1.389 . S
C213 C212 1.443 . S
C213 C214 1.340 . S
C213 H253 0.951 . S
C214 C213 1.340 . S
C214 C215 1.439 . S
C214 H254 0.950 . S
C215 C214 1.439 . S
C215 N216 1.374 . S
C215 C249 1.395 . S
N216 C212 1.376 . S
N216 C215 1.374 . S
N216 Co217 2.008 . S
Co217 N216 2.008 . S
Co217 N218 1.995 . S
Co217 N223 2.008 . S
Co217 N228 1.995 . S
Co217 N233 2.282 . S
Co217 N239 2.282 . S
N218 Co217 1.995 . S
N218 C219 1.376 . S
N218 C222 1.383 . S
C219 N218 1.376 . S
C219 C220 1.446 . S
C219 C249 1.391 . S
C220 C219 1.446 . S
C220 C221 1.339 . S
C220 H255 0.949 . S
C221 C220 1.339 . S
C221 C222 1.439 . S
C221 H256 0.950 . S
C222 N218 1.383 . S
C222 C221 1.439 . S
C222 C251 1.392 . S
N223 Co217 2.008 . S
N223 C224 1.376 . S
N223 C227 1.374 . S
C224 N223 1.376 . S
C224 C225 1.443 . S
C224 C251 1.389 . S
C225 C224 1.443 . S
C225 C226 1.340 . S
C225 H257 0.951 . S
C226 C225 1.340 . S
C226 C227 1.439 . S
C226 H258 0.950 . S
C227 N223 1.374 . S
C227 C226 1.439 . S
C227 C252 1.395 . S
N228 Co217 1.995 . S
N228 C229 1.376 . S
N228 C232 1.383 . S
C229 N228 1.376 . S
C229 C230 1.446 . S
C229 C252 1.391 . S
C230 C229 1.446 . S
C230 C231 1.339 . S
C230 H259 0.949 . S
C231 C230 1.339 . S
C231 C232 1.439 . S
C231 H260 0.950 . S
C232 N228 1.383 . S
C232 C231 1.439 . S
C232 C250 1.392 . S
N233 Co217 2.282 . S
N233 C236 1.332 . S
N233 C238 1.332 . S
C234 C235 1.386 . S
C234 C237 1.388 . S
C235 C234 1.386 . S
C235 C236 1.382 . S
C235 H261 0.950 . S
C236 N233 1.332 . S
C236 C235 1.382 . S
C236 H247 0.952 . S
C237 C234 1.388 . S
C237 C238 1.382 . S
C237 H262 0.950 . S
C238 N233 1.332 . S
C238 C237 1.382 . S
C238 H248 0.948 . S
N239 Co217 2.282 . S
N239 C243 1.332 . S
N239 C244 1.332 . S
C240 C241 1.388 . S
C240 C244 1.382 . S
C240 H263 0.950 . S
C241 C240 1.388 . S
C241 C242 1.386 . S
C242 C241 1.386 . S
C242 C243 1.382 . S
C242 H264 0.950 . S
C243 N239 1.332 . S
C243 C242 1.382 . S
C243 H245 0.952 . S
C244 N239 1.332 . S
C244 C240 1.382 . S
C244 H246 0.948 . S
H245 C243 0.952 . S
H246 C244 0.948 . S
H247 C236 0.952 . S
H248 C238 0.948 . S
C249 C215 1.395 . S
C249 C219 1.391 . S
C250 C212 1.389 . S
C250 C232 1.392 . S
C251 C222 1.392 . S
C251 C224 1.389 . S
C252 C227 1.395 . S
C252 C229 1.391 . S
H253 C213 0.951 . S
H254 C214 0.950 . S
H255 C220 0.949 . S
H256 C221 0.950 . S
H257 C225 0.951 . S
H258 C226 0.950 . S
H259 C230 0.949 . S
H260 C231 0.950 . S
H261 C235 0.950 . S
H262 C237 0.950 . S
H263 C240 0.950 . S
H264 C242 0.950 . S
C265 C266 1.443 . S
C265 N269 1.376 . S
C265 C303 1.389 . S
C266 C265 1.443 . S
C266 C267 1.340 . S
C266 H306 0.951 . S
C267 C266 1.340 . S
C267 C268 1.439 . S
C267 H307 0.950 . S
C268 C267 1.439 . S
C268 N269 1.374 . S
C268 C302 1.395 . S
N269 C265 1.376 . S
N269 C268 1.374 . S
N269 Co270 2.008 . S
Co270 N269 2.008 . S
Co270 N271 1.995 . S
Co270 N276 2.008 . S
Co270 N281 1.995 . S
Co270 N286 2.282 . S
Co270 N292 2.282 . S
N271 Co270 1.995 . S
N271 C272 1.376 . S
N271 C275 1.383 . S
C272 N271 1.376 . S
C272 C273 1.446 . S
C272 C302 1.391 . S
C273 C272 1.446 . S
C273 C274 1.339 . S
C273 H308 0.949 . S
C274 C273 1.339 . S
C274 C275 1.439 . S
C274 H309 0.950 . S
C275 N271 1.383 . S
C275 C274 1.439 . S
C275 C304 1.392 . S
N276 Co270 2.008 . S
N276 C277 1.376 . S
N276 C280 1.374 . S
C277 N276 1.376 . S
C277 C278 1.443 . S
C277 C304 1.389 . S
C278 C277 1.443 . S
C278 C279 1.340 . S
C278 H310 0.951 . S
C279 C278 1.340 . S
C279 C280 1.439 . S
C279 H311 0.950 . S
C280 N276 1.374 . S
C280 C279 1.439 . S
C280 C305 1.395 . S
N281 Co270 1.995 . S
N281 C282 1.376 . S
N281 C285 1.383 . S
C282 N281 1.376 . S
C282 C283 1.446 . S
C282 C305 1.391 . S
C283 C282 1.446 . S
C283 C284 1.339 . S
C283 H312 0.949 . S
C284 C283 1.339 . S
C284 C285 1.439 . S
C284 H313 0.950 . S
C285 N281 1.383 . S
C285 C284 1.439 . S
C285 C303 1.392 . S
N286 Co270 2.282 . S
N286 C289 1.332 . S
N286 C291 1.332 . S
C287 C288 1.386 . S
C287 C290 1.388 . S
C288 C287 1.386 . S
C288 C289 1.382 . S
C288 H314 0.950 . S
C289 N286 1.332 . S
C289 C288 1.382 . S
C289 H300 0.952 . S
C290 C287 1.388 . S
C290 C291 1.382 . S
C290 H315 0.950 . S
C291 N286 1.332 . S
C291 C290 1.382 . S
C291 H301 0.948 . S
N292 Co270 2.282 . S
N292 C296 1.332 . S
N292 C297 1.332 . S
C293 C294 1.388 . S
C293 C297 1.382 . S
C293 H316 0.950 . S
C294 C293 1.388 . S
C294 C295 1.386 . S
C295 C294 1.386 . S
C295 C296 1.382 . S
C295 H317 0.950 . S
C296 N292 1.332 . S
C296 C295 1.382 . S
C296 H298 0.952 . S
C297 N292 1.332 . S
C297 C293 1.382 . S
C297 H299 0.948 . S
H298 C296 0.952 . S
H299 C297 0.948 . S
H300 C289 0.952 . S
H301 C291 0.948 . S
C302 C268 1.395 . S
C302 C272 1.391 . S
C303 C265 1.389 . S
C303 C285 1.392 . S
C304 C275 1.392 . S
C304 C277 1.389 . S
C305 C280 1.395 . S
C305 C282 1.391 . S
H306 C266 0.951 . S
H307 C267 0.950 . S
H308 C273 0.949 . S
H309 C274 0.950 . S
H310 C278 0.951 . S
H311 C279 0.950 . S
H312 C283 0.949 . S
H313 C284 0.950 . S
H314 C288 0.950 . S
H315 C290 0.950 . S
H316 C293 0.950 . S
H317 C295 0.950 . S
C318 C319 1.443 . S
C318 N322 1.376 . S
C318 C356 1.389 . S
C319 C318 1.443 . S
C319 C320 1.340 . S
C319 H359 0.951 . S
C320 C319 1.340 . S
C320 C321 1.439 . S
C320 H360 0.950 . S
C321 C320 1.439 . S
C321 N322 1.374 . S
C321 C355 1.395 . S
N322 C318 1.376 . S
N322 C321 1.374 . S
N322 Co323 2.008 . S
Co323 N322 2.008 . S
Co323 N324 1.995 . S
Co323 N329 2.008 . S
Co323 N334 1.995 . S
Co323 N339 2.282 . S
Co323 N345 2.282 . S
N324 Co323 1.995 . S
N324 C325 1.376 . S
N324 C328 1.383 . S
C325 N324 1.376 . S
C325 C326 1.446 . S
C325 C355 1.391 . S
C326 C325 1.446 . S
C326 C327 1.339 . S
C326 H361 0.949 . S
C327 C326 1.339 . S
C327 C328 1.439 . S
C327 H362 0.950 . S
C328 N324 1.383 . S
C328 C327 1.439 . S
C328 C357 1.392 . S
N329 Co323 2.008 . S
N329 C330 1.376 . S
N329 C333 1.374 . S
C330 N329 1.376 . S
C330 C331 1.443 . S
C330 C357 1.389 . S
C331 C330 1.443 . S
C331 C332 1.340 . S
C331 H363 0.951 . S
C332 C331 1.340 . S
C332 C333 1.439 . S
C332 H364 0.950 . S
C333 N329 1.374 . S
C333 C332 1.439 . S
C333 C358 1.395 . S
N334 Co323 1.995 . S
N334 C335 1.376 . S
N334 C338 1.383 . S
C335 N334 1.376 . S
C335 C336 1.446 . S
C335 C358 1.391 . S
C336 C335 1.446 . S
C336 C337 1.339 . S
C336 H365 0.949 . S
C337 C336 1.339 . S
C337 C338 1.439 . S
C337 H366 0.950 . S
C338 N334 1.383 . S
C338 C337 1.439 . S
C338 C356 1.392 . S
N339 Co323 2.282 . S
N339 C342 1.332 . S
N339 C344 1.332 . S
C340 C341 1.386 . S
C340 C343 1.388 . S
C341 C340 1.386 . S
C341 C342 1.382 . S
C341 H367 0.950 . S
C342 N339 1.332 . S
C342 C341 1.382 . S
C342 H353 0.952 . S
C343 C340 1.388 . S
C343 C344 1.382 . S
C343 H368 0.950 . S
C344 N339 1.332 . S
C344 C343 1.382 . S
C344 H354 0.948 . S
N345 Co323 2.282 . S
N345 C349 1.332 . S
N345 C350 1.332 . S
C346 C347 1.388 . S
C346 C350 1.382 . S
C346 H369 0.950 . S
C347 C346 1.388 . S
C347 C348 1.386 . S
C348 C347 1.386 . S
C348 C349 1.382 . S
C348 H370 0.950 . S
C349 N345 1.332 . S
C349 C348 1.382 . S
C349 H351 0.952 . S
C350 N345 1.332 . S
C350 C346 1.382 . S
C350 H352 0.948 . S
H351 C349 0.952 . S
H352 C350 0.948 . S
H353 C342 0.952 . S
H354 C344 0.948 . S
C355 C321 1.395 . S
C355 C325 1.391 . S
C356 C318 1.389 . S
C356 C338 1.392 . S
C357 C328 1.392 . S
C357 C330 1.389 . S
C358 C333 1.395 . S
C358 C335 1.391 . S
H359 C319 0.951 . S
H360 C320 0.950 . S
H361 C326 0.949 . S
H362 C327 0.950 . S
H363 C331 0.951 . S
H364 C332 0.950 . S
H365 C336 0.949 . S
H366 C337 0.950 . S
H367 C341 0.950 . S
H368 C343 0.950 . S
H369 C346 0.950 . S
H370 C348 0.950 . S
C371 C372 1.443 . S
C371 N375 1.376 . S
C371 C409 1.389 . S
C372 C371 1.443 . S
C372 C373 1.340 . S
C372 H412 0.951 . S
C373 C372 1.340 . S
C373 C374 1.439 . S
C373 H413 0.950 . S
C374 C373 1.439 . S
C374 N375 1.374 . S
C374 C408 1.395 . S
N375 C371 1.376 . S
N375 C374 1.374 . S
N375 Co376 2.008 . S
Co376 N375 2.008 . S
Co376 N377 1.995 . S
Co376 N382 2.008 . S
Co376 N387 1.995 . S
Co376 N392 2.282 . S
Co376 N398 2.282 . S
N377 Co376 1.995 . S
N377 C378 1.376 . S
N377 C381 1.383 . S
C378 N377 1.376 . S
C378 C379 1.446 . S
C378 C408 1.391 . S
C379 C378 1.446 . S
C379 C380 1.339 . S
C379 H414 0.949 . S
C380 C379 1.339 . S
C380 C381 1.439 . S
C380 H415 0.950 . S
C381 N377 1.383 . S
C381 C380 1.439 . S
C381 C410 1.392 . S
N382 Co376 2.008 . S
N382 C383 1.376 . S
N382 C386 1.374 . S
C383 N382 1.376 . S
C383 C384 1.443 . S
C383 C410 1.389 . S
C384 C383 1.443 . S
C384 C385 1.340 . S
C384 H416 0.951 . S
C385 C384 1.340 . S
C385 C386 1.439 . S
C385 H417 0.950 . S
C386 N382 1.374 . S
C386 C385 1.439 . S
C386 C411 1.395 . S
N387 Co376 1.995 . S
N387 C388 1.376 . S
N387 C391 1.383 . S
C388 N387 1.376 . S
C388 C389 1.446 . S
C388 C411 1.391 . S
C389 C388 1.446 . S
C389 C390 1.339 . S
C389 H418 0.949 . S
C390 C389 1.339 . S
C390 C391 1.439 . S
C390 H419 0.950 . S
C391 N387 1.383 . S
C391 C390 1.439 . S
C391 C409 1.392 . S
N392 Co376 2.282 . S
N392 C395 1.332 . S
N392 C397 1.332 . S
C393 C394 1.386 . S
C393 C396 1.388 . S
C394 C393 1.386 . S
C394 C395 1.382 . S
C394 H420 0.950 . S
C395 N392 1.332 . S
C395 C394 1.382 . S
C395 H406 0.952 . S
C396 C393 1.388 . S
C396 C397 1.382 . S
C396 H421 0.950 . S
C397 N392 1.332 . S
C397 C396 1.382 . S
C397 H407 0.948 . S
N398 Co376 2.282 . S
N398 C402 1.332 . S
N398 C403 1.332 . S
C399 C400 1.388 . S
C399 C403 1.382 . S
C399 H422 0.950 . S
C400 C399 1.388 . S
C400 C401 1.386 . S
C401 C400 1.386 . S
C401 C402 1.382 . S
C401 H423 0.950 . S
C402 N398 1.332 . S
C402 C401 1.382 . S
C402 H404 0.952 . S
C403 N398 1.332 . S
C403 C399 1.382 . S
C403 H405 0.948 . S
H404 C402 0.952 . S
H405 C403 0.948 . S
H406 C395 0.952 . S
H407 C397 0.948 . S
C408 C374 1.395 . S
C408 C378 1.391 . S
C409 C371 1.389 . S
C409 C391 1.392 . S
C410 C381 1.392 . S
C410 C383 1.389 . S
C411 C386 1.395 . S
C411 C388 1.391 . S
H412 C372 0.951 . S
H413 C373 0.950 . S
H414 C379 0.949 . S
H415 C380 0.950 . S
H416 C384 0.951 . S
H417 C385 0.950 . S
H418 C389 0.949 . S
H419 C390 0.950 . S
H420 C394 0.950 . S
H421 C396 0.950 . S
H422 C399 0.950 . S
H423 C401 0.950 . S
C424 C425 1.443 . S
C424 N428 1.376 . S
C424 C462 1.389 . S
C425 C424 1.443 . S
C425 C426 1.340 . S
C425 H465 0.951 . S
C426 C425 1.340 . S
C426 C427 1.439 . S
C426 H466 0.950 . S
C427 C426 1.439 . S
C427 N428 1.374 . S
C427 C461 1.395 . S
N428 C424 1.376 . S
N428 C427 1.374 . S
N428 Co429 2.008 . S
Co429 N428 2.008 . S
Co429 N430 1.995 . S
Co429 N435 2.008 . S
Co429 N440 1.995 . S
Co429 N445 2.282 . S
Co429 N451 2.282 . S
N430 Co429 1.995 . S
N430 C431 1.376 . S
N430 C434 1.383 . S
C431 N430 1.376 . S
C431 C432 1.446 . S
C431 C461 1.391 . S
C432 C431 1.446 . S
C432 C433 1.339 . S
C432 H467 0.949 . S
C433 C432 1.339 . S
C433 C434 1.439 . S
C433 H468 0.950 . S
C434 N430 1.383 . S
C434 C433 1.439 . S
C434 C463 1.392 . S
N435 Co429 2.008 . S
N435 C436 1.376 . S
N435 C439 1.374 . S
C436 N435 1.376 . S
C436 C437 1.443 . S
C436 C463 1.389 . S
C437 C436 1.443 . S
C437 C438 1.340 . S
C437 H469 0.951 . S
C438 C437 1.340 . S
C438 C439 1.439 . S
C438 H470 0.950 . S
C439 N435 1.374 . S
C439 C438 1.439 . S
C439 C464 1.395 . S
N440 Co429 1.995 . S
N440 C441 1.376 . S
N440 C444 1.383 . S
C441 N440 1.376 . S
C441 C442 1.446 . S
C441 C464 1.391 . S
C442 C441 1.446 . S
C442 C443 1.339 . S
C442 H471 0.949 . S
C443 C442 1.339 . S
C443 C444 1.439 . S
C443 H472 0.950 . S
C444 N440 1.383 . S
C444 C443 1.439 . S
C444 C462 1.392 . S
N445 Co429 2.282 . S
N445 C448 1.332 . S
N445 C450 1.332 . S
C446 C447 1.386 . S
C446 C449 1.388 . S
C447 C446 1.386 . S
C447 C448 1.382 . S
C447 H473 0.950 . S
C448 N445 1.332 . S
C448 C447 1.382 . S
C448 H459 0.952 . S
C449 C446 1.388 . S
C449 C450 1.382 . S
C449 H474 0.950 . S
C450 N445 1.332 . S
C450 C449 1.382 . S
C450 H460 0.948 . S
N451 Co429 2.282 . S
N451 C455 1.332 . S
N451 C456 1.332 . S
C452 C453 1.388 . S
C452 C456 1.382 . S
C452 H475 0.950 . S
C453 C452 1.388 . S
C453 C454 1.386 . S
C454 C453 1.386 . S
C454 C455 1.382 . S
C454 H476 0.950 . S
C455 N451 1.332 . S
C455 C454 1.382 . S
C455 H457 0.952 . S
C456 N451 1.332 . S
C456 C452 1.382 . S
C456 H458 0.948 . S
H457 C455 0.952 . S
H458 C456 0.948 . S
H459 C448 0.952 . S
H460 C450 0.948 . S
C461 C427 1.395 . S
C461 C431 1.391 . S
C462 C424 1.389 . S
C462 C444 1.392 . S
C463 C434 1.392 . S
C463 C436 1.389 . S
C464 C439 1.395 . S
C464 C441 1.391 . S
H465 C425 0.951 . S
H466 C426 0.950 . S
H467 C432 0.949 . S
H468 C433 0.950 . S
H469 C437 0.951 . S
H470 C438 0.950 . S
H471 C442 0.949 . S
H472 C443 0.950 . S
H473 C447 0.950 . S
H474 C449 0.950 . S
H475 C452 0.950 . S
H476 C454 0.950 . S
C477 C478 1.443 . S
C477 N481 1.376 . S
C477 C515 1.389 . S
C478 C477 1.443 . S
C478 C479 1.340 . S
C478 H518 0.951 . S
C479 C478 1.340 . S
C479 C480 1.439 . S
C479 H519 0.950 . S
C480 C479 1.439 . S
C480 N481 1.374 . S
C480 C514 1.395 . S
N481 C477 1.376 . S
N481 C480 1.374 . S
N481 Co482 2.008 . S
Co482 N481 2.008 . S
Co482 N483 1.995 . S
Co482 N488 2.008 . S
Co482 N493 1.995 . S
Co482 N498 2.282 . S
Co482 N504 2.282 . S
N483 Co482 1.995 . S
N483 C484 1.376 . S
N483 C487 1.383 . S
C484 N483 1.376 . S
C484 C485 1.446 . S
C484 C514 1.391 . S
C485 C484 1.446 . S
C485 C486 1.339 . S
C485 H520 0.949 . S
C486 C485 1.339 . S
C486 C487 1.439 . S
C486 H521 0.950 . S
C487 N483 1.383 . S
C487 C486 1.439 . S
C487 C516 1.392 . S
N488 Co482 2.008 . S
N488 C489 1.376 . S
N488 C492 1.374 . S
C489 N488 1.376 . S
C489 C490 1.443 . S
C489 C516 1.389 . S
C490 C489 1.443 . S
C490 C491 1.340 . S
C490 H522 0.951 . S
C491 C490 1.340 . S
C491 C492 1.439 . S
C491 H523 0.950 . S
C492 N488 1.374 . S
C492 C491 1.439 . S
C492 C517 1.395 . S
N493 Co482 1.995 . S
N493 C494 1.376 . S
N493 C497 1.383 . S
C494 N493 1.376 . S
C494 C495 1.446 . S
C494 C517 1.391 . S
C495 C494 1.446 . S
C495 C496 1.339 . S
C495 H524 0.949 . S
C496 C495 1.339 . S
C496 C497 1.439 . S
C496 H525 0.950 . S
C497 N493 1.383 . S
C497 C496 1.439 . S
C497 C515 1.392 . S
N498 Co482 2.282 . S
N498 C501 1.332 . S
N498 C503 1.332 . S
C499 C500 1.386 . S
C499 C502 1.388 . S
C500 C499 1.386 . S
C500 C501 1.382 . S
C500 H526 0.950 . S
C501 N498 1.332 . S
C501 C500 1.382 . S
C501 H512 0.952 . S
C502 C499 1.388 . S
C502 C503 1.382 . S
C502 H527 0.950 . S
C503 N498 1.332 . S
C503 C502 1.382 . S
C503 H513 0.948 . S
N504 Co482 2.282 . S
N504 C508 1.332 . S
N504 C509 1.332 . S
C505 C506 1.388 . S
C505 C509 1.382 . S
C505 H528 0.950 . S
C506 C505 1.388 . S
C506 C507 1.386 . S
C507 C506 1.386 . S
C507 C508 1.382 . S
C507 H529 0.950 . S
C508 N504 1.332 . S
C508 C507 1.382 . S
C508 H510 0.952 . S
C509 N504 1.332 . S
C509 C505 1.382 . S
C509 H511 0.948 . S
H510 C508 0.952 . S
H511 C509 0.948 . S
H512 C501 0.952 . S
H513 C503 0.948 . S
C514 C480 1.395 . S
C514 C484 1.391 . S
C515 C477 1.389 . S
C515 C497 1.392 . S
C516 C487 1.392 . S
C516 C489 1.389 . S
C517 C492 1.395 . S
C517 C494 1.391 . S
H518 C478 0.951 . S
H519 C479 0.950 . S
H520 C485 0.949 . S
H521 C486 0.950 . S
H522 C490 0.951 . S
H523 C491 0.950 . S
H524 C495 0.949 . S
H525 C496 0.950 . S
H526 C500 0.950 . S
H527 C502 0.950 . S
H528 C505 0.950 . S
H529 C507 0.950 . S
C530 C531 1.443 . S
C530 N534 1.376 . S
C530 C568 1.389 . S
C531 C530 1.443 . S
C531 C532 1.340 . S
C531 H571 0.951 . S
C532 C531 1.340 . S
C532 C533 1.439 . S
C532 H572 0.950 . S
C533 C532 1.439 . S
C533 N534 1.374 . S
C533 C567 1.395 . S
N534 C530 1.376 . S
N534 C533 1.374 . S
N534 Co535 2.008 . S
Co535 N534 2.008 . S
Co535 N536 1.995 . S
Co535 N541 2.008 . S
Co535 N546 1.995 . S
Co535 N551 2.282 . S
Co535 N557 2.282 . S
N536 Co535 1.995 . S
N536 C537 1.376 . S
N536 C540 1.383 . S
C537 N536 1.376 . S
C537 C538 1.446 . S
C537 C567 1.391 . S
C538 C537 1.446 . S
C538 C539 1.339 . S
C538 H573 0.949 . S
C539 C538 1.339 . S
C539 C540 1.439 . S
C539 H574 0.950 . S
C540 N536 1.383 . S
C540 C539 1.439 . S
C540 C569 1.392 . S
N541 Co535 2.008 . S
N541 C542 1.376 . S
N541 C545 1.374 . S
C542 N541 1.376 . S
C542 C543 1.443 . S
C542 C569 1.389 . S
C543 C542 1.443 . S
C543 C544 1.340 . S
C543 H575 0.951 . S
C544 C543 1.340 . S
C544 C545 1.439 . S
C544 H576 0.950 . S
C545 N541 1.374 . S
C545 C544 1.439 . S
C545 C570 1.395 . S
N546 Co535 1.995 . S
N546 C547 1.376 . S
N546 C550 1.383 . S
C547 N546 1.376 . S
C547 C548 1.446 . S
C547 C570 1.391 . S
C548 C547 1.446 . S
C548 C549 1.339 . S
C548 H577 0.949 . S
C549 C548 1.339 . S
C549 C550 1.439 . S
C549 H578 0.950 . S
C550 N546 1.383 . S
C550 C549 1.439 . S
C550 C568 1.392 . S
N551 Co535 2.282 . S
N551 C554 1.332 . S
N551 C556 1.332 . S
C552 C553 1.386 . S
C552 C555 1.388 . S
C553 C552 1.386 . S
C553 C554 1.382 . S
C553 H579 0.950 . S
C554 N551 1.332 . S
C554 C553 1.382 . S
C554 H565 0.952 . S
C555 C552 1.388 . S
C555 C556 1.382 . S
C555 H580 0.950 . S
C556 N551 1.332 . S
C556 C555 1.382 . S
C556 H566 0.948 . S
N557 Co535 2.282 . S
N557 C561 1.332 . S
N557 C562 1.332 . S
C558 C559 1.388 . S
C558 C562 1.382 . S
C558 H581 0.950 . S
C559 C558 1.388 . S
C559 C560 1.386 . S
C560 C559 1.386 . S
C560 C561 1.382 . S
C560 H582 0.950 . S
C561 N557 1.332 . S
C561 C560 1.382 . S
C561 H563 0.952 . S
C562 N557 1.332 . S
C562 C558 1.382 . S
C562 H564 0.948 . S
H563 C561 0.952 . S
H564 C562 0.948 . S
H565 C554 0.952 . S
H566 C556 0.948 . S
C567 C533 1.395 . S
C567 C537 1.391 . S
C568 C530 1.389 . S
C568 C550 1.392 . S
C569 C540 1.392 . S
C569 C542 1.389 . S
C570 C545 1.395 . S
C570 C547 1.391 . S
H571 C531 0.951 . S
H572 C532 0.950 . S
H573 C538 0.949 . S
H574 C539 0.950 . S
H575 C543 0.951 . S
H576 C544 0.950 . S
H577 C548 0.949 . S
H578 C549 0.950 . S
H579 C553 0.950 . S
H580 C555 0.950 . S
H581 C558 0.950 . S
H582 C560 0.950 . S
C583 C584 1.443 . S
C583 N587 1.376 . S
C583 C621 1.389 . S
C584 C583 1.443 . S
C584 C585 1.340 . S
C584 H624 0.951 . S
C585 C584 1.340 . S
C585 C586 1.439 . S
C585 H625 0.950 . S
C586 C585 1.439 . S
C586 N587 1.374 . S
C586 C620 1.395 . S
N587 C583 1.376 . S
N587 C586 1.374 . S
N587 Co588 2.008 . S
Co588 N587 2.008 . S
Co588 N589 1.995 . S
Co588 N594 2.008 . S
Co588 N599 1.995 . S
Co588 N604 2.282 . S
Co588 N610 2.282 . S
N589 Co588 1.995 . S
N589 C590 1.376 . S
N589 C593 1.383 . S
C590 N589 1.376 . S
C590 C591 1.446 . S
C590 C620 1.391 . S
C591 C590 1.446 . S
C591 C592 1.339 . S
C591 H626 0.949 . S
C592 C591 1.339 . S
C592 C593 1.439 . S
C592 H627 0.950 . S
C593 N589 1.383 . S
C593 C592 1.439 . S
C593 C622 1.392 . S
N594 Co588 2.008 . S
N594 C595 1.376 . S
N594 C598 1.374 . S
C595 N594 1.376 . S
C595 C596 1.443 . S
C595 C622 1.389 . S
C596 C595 1.443 . S
C596 C597 1.340 . S
C596 H628 0.951 . S
C597 C596 1.340 . S
C597 C598 1.439 . S
C597 H629 0.950 . S
C598 N594 1.374 . S
C598 C597 1.439 . S
C598 C623 1.395 . S
N599 Co588 1.995 . S
N599 C600 1.376 . S
N599 C603 1.383 . S
C600 N599 1.376 . S
C600 C601 1.446 . S
C600 C623 1.391 . S
C601 C600 1.446 . S
C601 C602 1.339 . S
C601 H630 0.949 . S
C602 C601 1.339 . S
C602 C603 1.439 . S
C602 H631 0.950 . S
C603 N599 1.383 . S
C603 C602 1.439 . S
C603 C621 1.392 . S
N604 Co588 2.282 . S
N604 C607 1.332 . S
N604 C609 1.332 . S
C605 C606 1.386 . S
C605 C608 1.388 . S
C606 C605 1.386 . S
C606 C607 1.382 . S
C606 H632 0.950 . S
C607 N604 1.332 . S
C607 C606 1.382 . S
C607 H618 0.952 . S
C608 C605 1.388 . S
C608 C609 1.382 . S
C608 H633 0.950 . S
C609 N604 1.332 . S
C609 C608 1.382 . S
C609 H619 0.948 . S
N610 Co588 2.282 . S
N610 C614 1.332 . S
N610 C615 1.332 . S
C611 C612 1.388 . S
C611 C615 1.382 . S
C611 H634 0.950 . S
C612 C611 1.388 . S
C612 C613 1.386 . S
C613 C612 1.386 . S
C613 C614 1.382 . S
C613 H635 0.950 . S
C614 N610 1.332 . S
C614 C613 1.382 . S
C614 H616 0.952 . S
C615 N610 1.332 . S
C615 C611 1.382 . S
C615 H617 0.948 . S
H616 C614 0.952 . S
H617 C615 0.948 . S
H618 C607 0.952 . S
H619 C609 0.948 . S
C620 C586 1.395 . S
C620 C590 1.391 . S
C621 C583 1.389 . S
C621 C603 1.392 . S
C622 C593 1.392 . S
C622 C595 1.389 . S
C623 C598 1.395 . S
C623 C600 1.391 . S
H624 C584 0.951 . S
H625 C585 0.950 . S
H626 C591 0.949 . S
H627 C592 0.950 . S
H628 C596 0.951 . S
H629 C597 0.950 . S
H630 C601 0.949 . S
H631 C602 0.950 . S
H632 C606 0.950 . S
H633 C608 0.950 . S
H634 C611 0.950 . S
H635 C613 0.950 . S
C636 C637 1.443 . S
C636 N640 1.376 . S
C636 C674 1.389 . S
C637 C636 1.443 . S
C637 C638 1.340 . S
C637 H677 0.951 . S
C638 C637 1.340 . S
C638 C639 1.439 . S
C638 H678 0.950 . S
C639 C638 1.439 . S
C639 N640 1.374 . S
C639 C673 1.395 . S
N640 C636 1.376 . S
N640 C639 1.374 . S
N640 Co641 2.008 . S
Co641 N640 2.008 . S
Co641 N642 1.995 . S
Co641 N647 2.008 . S
Co641 N652 1.995 . S
Co641 N657 2.282 . S
Co641 N663 2.282 . S
N642 Co641 1.995 . S
N642 C643 1.376 . S
N642 C646 1.383 . S
C643 N642 1.376 . S
C643 C644 1.446 . S
C643 C673 1.391 . S
C644 C643 1.446 . S
C644 C645 1.339 . S
C644 H679 0.949 . S
C645 C644 1.339 . S
C645 C646 1.439 . S
C645 H680 0.950 . S
C646 N642 1.383 . S
C646 C645 1.439 . S
C646 C675 1.392 . S
N647 Co641 2.008 . S
N647 C648 1.376 . S
N647 C651 1.374 . S
C648 N647 1.376 . S
C648 C649 1.443 . S
C648 C675 1.389 . S
C649 C648 1.443 . S
C649 C650 1.340 . S
C649 H681 0.951 . S
C650 C649 1.340 . S
C650 C651 1.439 . S
C650 H682 0.950 . S
C651 N647 1.374 . S
C651 C650 1.439 . S
C651 C676 1.395 . S
N652 Co641 1.995 . S
N652 C653 1.376 . S
N652 C656 1.383 . S
C653 N652 1.376 . S
C653 C654 1.446 . S
C653 C676 1.391 . S
C654 C653 1.446 . S
C654 C655 1.339 . S
C654 H683 0.949 . S
C655 C654 1.339 . S
C655 C656 1.439 . S
C655 H684 0.950 . S
C656 N652 1.383 . S
C656 C655 1.439 . S
C656 C674 1.392 . S
N657 Co641 2.282 . S
N657 C660 1.332 . S
N657 C662 1.332 . S
C658 C659 1.386 . S
C658 C661 1.388 . S
C659 C658 1.386 . S
C659 C660 1.382 . S
C659 H685 0.950 . S
C660 N657 1.332 . S
C660 C659 1.382 . S
C660 H671 0.952 . S
C661 C658 1.388 . S
C661 C662 1.382 . S
C661 H686 0.950 . S
C662 N657 1.332 . S
C662 C661 1.382 . S
C662 H672 0.948 . S
N663 Co641 2.282 . S
N663 C667 1.332 . S
N663 C668 1.332 . S
C664 C665 1.388 . S
C664 C668 1.382 . S
C664 H687 0.950 . S
C665 C664 1.388 . S
C665 C666 1.386 . S
C666 C665 1.386 . S
C666 C667 1.382 . S
C666 H688 0.950 . S
C667 N663 1.332 . S
C667 C666 1.382 . S
C667 H669 0.952 . S
C668 N663 1.332 . S
C668 C664 1.382 . S
C668 H670 0.948 . S
H669 C667 0.952 . S
H670 C668 0.948 . S
H671 C660 0.952 . S
H672 C662 0.948 . S
C673 C639 1.395 . S
C673 C643 1.391 . S
C674 C636 1.389 . S
C674 C656 1.392 . S
C675 C646 1.392 . S
C675 C648 1.389 . S
C676 C651 1.395 . S
C676 C653 1.391 . S
H677 C637 0.951 . S
H678 C638 0.950 . S
H679 C644 0.949 . S
H680 C645 0.950 . S
H681 C649 0.951 . S
H682 C650 0.950 . S
H683 C654 0.949 . S
H684 C655 0.950 . S
H685 C659 0.950 . S
H686 C661 0.950 . S
H687 C664 0.950 . S
H688 C666 0.950 . S
C689 C690 1.443 . S
C689 N693 1.376 . S
C689 C727 1.389 . S
C690 C689 1.443 . S
C690 C691 1.340 . S
C690 H730 0.951 . S
C691 C690 1.340 . S
C691 C692 1.439 . S
C691 H731 0.950 . S
C692 C691 1.439 . S
C692 N693 1.374 . S
C692 C726 1.395 . S
N693 C689 1.376 . S
N693 C692 1.374 . S
N693 Co694 2.008 . S
Co694 N693 2.008 . S
Co694 N695 1.995 . S
Co694 N700 2.008 . S
Co694 N705 1.995 . S
Co694 N710 2.282 . S
Co694 N716 2.282 . S
N695 Co694 1.995 . S
N695 C696 1.376 . S
N695 C699 1.383 . S
C696 N695 1.376 . S
C696 C697 1.446 . S
C696 C726 1.391 . S
C697 C696 1.446 . S
C697 C698 1.339 . S
C697 H732 0.949 . S
C698 C697 1.339 . S
C698 C699 1.439 . S
C698 H733 0.950 . S
C699 N695 1.383 . S
C699 C698 1.439 . S
C699 C728 1.392 . S
N700 Co694 2.008 . S
N700 C701 1.376 . S
N700 C704 1.374 . S
C701 N700 1.376 . S
C701 C702 1.443 . S
C701 C728 1.389 . S
C702 C701 1.443 . S
C702 C703 1.340 . S
C702 H734 0.951 . S
C703 C702 1.340 . S
C703 C704 1.439 . S
C703 H735 0.950 . S
C704 N700 1.374 . S
C704 C703 1.439 . S
C704 C729 1.395 . S
N705 Co694 1.995 . S
N705 C706 1.376 . S
N705 C709 1.383 . S
C706 N705 1.376 . S
C706 C707 1.446 . S
C706 C729 1.391 . S
C707 C706 1.446 . S
C707 C708 1.339 . S
C707 H736 0.949 . S
C708 C707 1.339 . S
C708 C709 1.439 . S
C708 H737 0.950 . S
C709 N705 1.383 . S
C709 C708 1.439 . S
C709 C727 1.392 . S
N710 Co694 2.282 . S
N710 C713 1.332 . S
N710 C715 1.332 . S
C711 C712 1.386 . S
C711 C714 1.388 . S
C712 C711 1.386 . S
C712 C713 1.382 . S
C712 H738 0.950 . S
C713 N710 1.332 . S
C713 C712 1.382 . S
C713 H724 0.952 . S
C714 C711 1.388 . S
C714 C715 1.382 . S
C714 H739 0.950 . S
C715 N710 1.332 . S
C715 C714 1.382 . S
C715 H725 0.948 . S
N716 Co694 2.282 . S
N716 C720 1.332 . S
N716 C721 1.332 . S
C717 C718 1.388 . S
C717 C721 1.382 . S
C717 H740 0.950 . S
C718 C717 1.388 . S
C718 C719 1.386 . S
C719 C718 1.386 . S
C719 C720 1.382 . S
C719 H741 0.950 . S
C720 N716 1.332 . S
C720 C719 1.382 . S
C720 H722 0.952 . S
C721 N716 1.332 . S
C721 C717 1.382 . S
C721 H723 0.948 . S
H722 C720 0.952 . S
H723 C721 0.948 . S
H724 C713 0.952 . S
H725 C715 0.948 . S
C726 C692 1.395 . S
C726 C696 1.391 . S
C727 C689 1.389 . S
C727 C709 1.392 . S
C728 C699 1.392 . S
C728 C701 1.389 . S
C729 C704 1.395 . S
C729 C706 1.391 . S
H730 C690 0.951 . S
H731 C691 0.950 . S
H732 C697 0.949 . S
H733 C698 0.950 . S
H734 C702 0.951 . S
H735 C703 0.950 . S
H736 C707 0.949 . S
H737 C708 0.950 . S
H738 C712 0.950 . S
H739 C714 0.950 . S
H740 C717 0.950 . S
H741 C719 0.950 . S
C742 C743 1.443 . S
C742 N746 1.376 . S
C742 C780 1.389 . S
C743 C742 1.443 . S
C743 C744 1.340 . S
C743 H783 0.951 . S
C744 C743 1.340 . S
C744 C745 1.439 . S
C744 H784 0.950 . S
C745 C744 1.439 . S
C745 N746 1.374 . S
C745 C779 1.395 . S
N746 C742 1.376 . S
N746 C745 1.374 . S
N746 Co747 2.008 . S
Co747 N746 2.008 . S
Co747 N748 1.995 . S
Co747 N753 2.008 . S
Co747 N758 1.995 . S
Co747 N763 2.282 . S
Co747 N769 2.282 . S
N748 Co747 1.995 . S
N748 C749 1.376 . S
N748 C752 1.383 . S
C749 N748 1.376 . S
C749 C750 1.446 . S
C749 C779 1.391 . S
C750 C749 1.446 . S
C750 C751 1.339 . S
C750 H785 0.949 . S
C751 C750 1.339 . S
C751 C752 1.439 . S
C751 H786 0.950 . S
C752 N748 1.383 . S
C752 C751 1.439 . S
C752 C781 1.392 . S
N753 Co747 2.008 . S
N753 C754 1.376 . S
N753 C757 1.374 . S
C754 N753 1.376 . S
C754 C755 1.443 . S
C754 C781 1.389 . S
C755 C754 1.443 . S
C755 C756 1.340 . S
C755 H787 0.951 . S
C756 C755 1.340 . S
C756 C757 1.439 . S
C756 H788 0.950 . S
C757 N753 1.374 . S
C757 C756 1.439 . S
C757 C782 1.395 . S
N758 Co747 1.995 . S
N758 C759 1.376 . S
N758 C762 1.383 . S
C759 N758 1.376 . S
C759 C760 1.446 . S
C759 C782 1.391 . S
C760 C759 1.446 . S
C760 C761 1.339 . S
C760 H789 0.949 . S
C761 C760 1.339 . S
C761 C762 1.439 . S
C761 H790 0.950 . S
C762 N758 1.383 . S
C762 C761 1.439 . S
C762 C780 1.392 . S
N763 Co747 2.282 . S
N763 C766 1.332 . S
N763 C768 1.332 . S
C764 C765 1.386 . S
C764 C767 1.388 . S
C765 C764 1.386 . S
C765 C766 1.382 . S
C765 H791 0.950 . S
C766 N763 1.332 . S
C766 C765 1.382 . S
C766 H777 0.952 . S
C767 C764 1.388 . S
C767 C768 1.382 . S
C767 H792 0.950 . S
C768 N763 1.332 . S
C768 C767 1.382 . S
C768 H778 0.948 . S
N769 Co747 2.282 . S
N769 C773 1.332 . S
N769 C774 1.332 . S
C770 C771 1.388 . S
C770 C774 1.382 . S
C770 H793 0.950 . S
C771 C770 1.388 . S
C771 C772 1.386 . S
C772 C771 1.386 . S
C772 C773 1.382 . S
C772 H794 0.950 . S
C773 N769 1.332 . S
C773 C772 1.382 . S
C773 H775 0.952 . S
C774 N769 1.332 . S
C774 C770 1.382 . S
C774 H776 0.948 . S
H775 C773 0.952 . S
H776 C774 0.948 . S
H777 C766 0.952 . S
H778 C768 0.948 . S
C779 C745 1.395 . S
C779 C749 1.391 . S
C780 C742 1.389 . S
C780 C762 1.392 . S
C781 C752 1.392 . S
C781 C754 1.389 . S
C782 C757 1.395 . S
C782 C759 1.391 . S
H783 C743 0.951 . S
H784 C744 0.950 . S
H785 C750 0.949 . S
H786 C751 0.950 . S
H787 C755 0.951 . S
H788 C756 0.950 . S
H789 C760 0.949 . S
H790 C761 0.950 . S
H791 C765 0.950 . S
H792 C767 0.950 . S
H793 C770 0.950 . S
H794 C772 0.950 . S
C795 C796 1.443 . S
C795 N799 1.376 . S
C795 C833 1.389 . S
C796 C795 1.443 . S
C796 C797 1.340 . S
C796 H836 0.951 . S
C797 C796 1.340 . S
C797 C798 1.439 . S
C797 H837 0.950 . S
C798 C797 1.439 . S
C798 N799 1.374 . S
C798 C832 1.395 . S
N799 C795 1.376 . S
N799 C798 1.374 . S
N799 Co800 2.008 . S
Co800 N799 2.008 . S
Co800 N801 1.995 . S
Co800 N806 2.008 . S
Co800 N811 1.995 . S
Co800 N816 2.282 . S
Co800 N822 2.282 . S
N801 Co800 1.995 . S
N801 C802 1.376 . S
N801 C805 1.383 . S
C802 N801 1.376 . S
C802 C803 1.446 . S
C802 C832 1.391 . S
C803 C802 1.446 . S
C803 C804 1.339 . S
C803 H838 0.949 . S
C804 C803 1.339 . S
C804 C805 1.439 . S
C804 H839 0.950 . S
C805 N801 1.383 . S
C805 C804 1.439 . S
C805 C834 1.392 . S
N806 Co800 2.008 . S
N806 C807 1.376 . S
N806 C810 1.374 . S
C807 N806 1.376 . S
C807 C808 1.443 . S
C807 C834 1.389 . S
C808 C807 1.443 . S
C808 C809 1.340 . S
C808 H840 0.951 . S
C809 C808 1.340 . S
C809 C810 1.439 . S
C809 H841 0.950 . S
C810 N806 1.374 . S
C810 C809 1.439 . S
C810 C835 1.395 . S
N811 Co800 1.995 . S
N811 C812 1.376 . S
N811 C815 1.383 . S
C812 N811 1.376 . S
C812 C813 1.446 . S
C812 C835 1.391 . S
C813 C812 1.446 . S
C813 C814 1.339 . S
C813 H842 0.949 . S
C814 C813 1.339 . S
C814 C815 1.439 . S
C814 H843 0.950 . S
C815 N811 1.383 . S
C815 C814 1.439 . S
C815 C833 1.392 . S
N816 Co800 2.282 . S
N816 C819 1.332 . S
N816 C821 1.332 . S
C817 C818 1.386 . S
C817 C820 1.388 . S
C818 C817 1.386 . S
C818 C819 1.382 . S
C818 H844 0.950 . S
C819 N816 1.332 . S
C819 C818 1.382 . S
C819 H830 0.952 . S
C820 C817 1.388 . S
C820 C821 1.382 . S
C820 H845 0.950 . S
C821 N816 1.332 . S
C821 C820 1.382 . S
C821 H831 0.948 . S
N822 Co800 2.282 . S
N822 C826 1.332 . S
N822 C827 1.332 . S
C823 C824 1.388 . S
C823 C827 1.382 . S
C823 H846 0.950 . S
C824 C823 1.388 . S
C824 C825 1.386 . S
C825 C824 1.386 . S
C825 C826 1.382 . S
C825 H847 0.950 . S
C826 N822 1.332 . S
C826 C825 1.382 . S
C826 H828 0.952 . S
C827 N822 1.332 . S
C827 C823 1.382 . S
C827 H829 0.948 . S
H828 C826 0.952 . S
H829 C827 0.948 . S
H830 C819 0.952 . S
H831 C821 0.948 . S
C832 C798 1.395 . S
C832 C802 1.391 . S
C833 C795 1.389 . S
C833 C815 1.392 . S
C834 C805 1.392 . S
C834 C807 1.389 . S
C835 C810 1.395 . S
C835 C812 1.391 . S
H836 C796 0.951 . S
H837 C797 0.950 . S
H838 C803 0.949 . S
H839 C804 0.950 . S
H840 C808 0.951 . S
H841 C809 0.950 . S
H842 C813 0.949 . S
H843 C814 0.950 . S
H844 C818 0.950 . S
H845 C820 0.950 . S
H846 C823 0.950 . S
H847 C825 0.950 . S
C848 C849 1.443 . S
C848 N852 1.376 . S
C848 C886 1.389 . S
C849 C848 1.443 . S
C849 C850 1.340 . S
C849 H889 0.951 . S
C850 C849 1.340 . S
C850 C851 1.439 . S
C850 H890 0.950 . S
C851 C850 1.439 . S
C851 N852 1.374 . S
C851 C885 1.395 . S
N852 C848 1.376 . S
N852 C851 1.374 . S
N852 Co853 2.008 . S
Co853 N852 2.008 . S
Co853 N854 1.995 . S
Co853 N859 2.008 . S
Co853 N864 1.995 . S
Co853 N869 2.282 . S
Co853 N875 2.282 . S
N854 Co853 1.995 . S
N854 C855 1.376 . S
N854 C858 1.383 . S
C855 N854 1.376 . S
C855 C856 1.446 . S
C855 C885 1.391 . S
C856 C855 1.446 . S
C856 C857 1.339 . S
C856 H891 0.949 . S
C857 C856 1.339 . S
C857 C858 1.439 . S
C857 H892 0.950 . S
C858 N854 1.383 . S
C858 C857 1.439 . S
C858 C887 1.392 . S
N859 Co853 2.008 . S
N859 C860 1.376 . S
N859 C863 1.374 . S
C860 N859 1.376 . S
C860 C861 1.443 . S
C860 C887 1.389 . S
C861 C860 1.443 . S
C861 C862 1.340 . S
C861 H893 0.951 . S
C862 C861 1.340 . S
C862 C863 1.439 . S
C862 H894 0.950 . S
C863 N859 1.374 . S
C863 C862 1.439 . S
C863 C888 1.395 . S
N864 Co853 1.995 . S
N864 C865 1.376 . S
N864 C868 1.383 . S
C865 N864 1.376 . S
C865 C866 1.446 . S
C865 C888 1.391 . S
C866 C865 1.446 . S
C866 C867 1.339 . S
C866 H895 0.949 . S
C867 C866 1.339 . S
C867 C868 1.439 . S
C867 H896 0.950 . S
C868 N864 1.383 . S
C868 C867 1.439 . S
C868 C886 1.392 . S
N869 Co853 2.282 . S
N869 C872 1.332 . S
N869 C874 1.332 . S
C870 C871 1.386 . S
C870 C873 1.388 . S
C871 C870 1.386 . S
C871 C872 1.382 . S
C871 H897 0.950 . S
C872 N869 1.332 . S
C872 C871 1.382 . S
C872 H883 0.952 . S
C873 C870 1.388 . S
C873 C874 1.382 . S
C873 H898 0.950 . S
C874 N869 1.332 . S
C874 C873 1.382 . S
C874 H884 0.948 . S
N875 Co853 2.282 . S
N875 C879 1.332 . S
N875 C880 1.332 . S
C876 C877 1.388 . S
C876 C880 1.382 . S
C876 H899 0.950 . S
C877 C876 1.388 . S
C877 C878 1.386 . S
C878 C877 1.386 . S
C878 C879 1.382 . S
C878 H900 0.950 . S
C879 N875 1.332 . S
C879 C878 1.382 . S
C879 H881 0.952 . S
C880 N875 1.332 . S
C880 C876 1.382 . S
C880 H882 0.948 . S
H881 C879 0.952 . S
H882 C880 0.948 . S
H883 C872 0.952 . S
H884 C874 0.948 . S
C885 C851 1.395 . S
C885 C855 1.391 . S
C886 C848 1.389 . S
C886 C868 1.392 . S
C887 C858 1.392 . S
C887 C860 1.389 . S
C888 C863 1.395 . S
C888 C865 1.391 . S
H889 C849 0.951 . S
H890 C850 0.950 . S
H891 C856 0.949 . S
H892 C857 0.950 . S
H893 C861 0.951 . S
H894 C862 0.950 . S
H895 C866 0.949 . S
H896 C867 0.950 . S
H897 C871 0.950 . S
H898 C873 0.950 . S
H899 C876 0.950 . S
H900 C878 0.950 . S
C901 C902 1.443 . S
C901 N905 1.376 . S
C901 C939 1.389 . S
C902 C901 1.443 . S
C902 C903 1.340 . S
C902 H942 0.951 . S
C903 C902 1.340 . S
C903 C904 1.439 . S
C903 H943 0.950 . S
C904 C903 1.439 . S
C904 N905 1.374 . S
C904 C938 1.395 . S
N905 C901 1.376 . S
N905 C904 1.374 . S
N905 Co906 2.008 . S
Co906 N905 2.008 . S
Co906 N907 1.995 . S
Co906 N912 2.008 . S
Co906 N917 1.995 . S
Co906 N922 2.282 . S
Co906 N928 2.282 . S
N907 Co906 1.995 . S
N907 C908 1.376 . S
N907 C911 1.383 . S
C908 N907 1.376 . S
C908 C909 1.446 . S
C908 C938 1.391 . S
C909 C908 1.446 . S
C909 C910 1.339 . S
C909 H944 0.949 . S
C910 C909 1.339 . S
C910 C911 1.439 . S
C910 H945 0.950 . S
C911 N907 1.383 . S
C911 C910 1.439 . S
C911 C940 1.392 . S
N912 Co906 2.008 . S
N912 C913 1.376 . S
N912 C916 1.374 . S
C913 N912 1.376 . S
C913 C914 1.443 . S
C913 C940 1.389 . S
C914 C913 1.443 . S
C914 C915 1.340 . S
C914 H946 0.951 . S
C915 C914 1.340 . S
C915 C916 1.439 . S
C915 H947 0.950 . S
C916 N912 1.374 . S
C916 C915 1.439 . S
C916 C941 1.395 . S
N917 Co906 1.995 . S
N917 C918 1.376 . S
N917 C921 1.383 . S
C918 N917 1.376 . S
C918 C919 1.446 . S
C918 C941 1.391 . S
C919 C918 1.446 . S
C919 C920 1.339 . S
C919 H948 0.949 . S
C920 C919 1.339 . S
C920 C921 1.439 . S
C920 H949 0.950 . S
C921 N917 1.383 . S
C921 C920 1.439 . S
C921 C939 1.392 . S
N922 Co906 2.282 . S
N922 C925 1.332 . S
N922 C927 1.332 . S
C923 C924 1.386 . S
C923 C926 1.388 . S
C924 C923 1.386 . S
C924 C925 1.382 . S
C924 H950 0.950 . S
C925 N922 1.332 . S
C925 C924 1.382 . S
C925 H936 0.952 . S
C926 C923 1.388 . S
C926 C927 1.382 . S
C926 H951 0.950 . S
C927 N922 1.332 . S
C927 C926 1.382 . S
C927 H937 0.948 . S
N928 Co906 2.282 . S
N928 C932 1.332 . S
N928 C933 1.332 . S
C929 C930 1.388 . S
C929 C933 1.382 . S
C929 H952 0.950 . S
C930 C929 1.388 . S
C930 C931 1.386 . S
C931 C930 1.386 . S
C931 C932 1.382 . S
C931 H953 0.950 . S
C932 N928 1.332 . S
C932 C931 1.382 . S
C932 H934 0.952 . S
C933 N928 1.332 . S
C933 C929 1.382 . S
C933 H935 0.948 . S
H934 C932 0.952 . S
H935 C933 0.948 . S
H936 C925 0.952 . S
H937 C927 0.948 . S
C938 C904 1.395 . S
C938 C908 1.391 . S
C939 C901 1.389 . S
C939 C921 1.392 . S
C940 C911 1.392 . S
C940 C913 1.389 . S
C941 C916 1.395 . S
C941 C918 1.391 . S
H942 C902 0.951 . S
H943 C903 0.950 . S
H944 C909 0.949 . S
H945 C910 0.950 . S
H946 C914 0.951 . S
H947 C915 0.950 . S
H948 C919 0.949 . S
H949 C920 0.950 . S
H950 C924 0.950 . S
H951 C926 0.950 . S
H952 C929 0.950 . S
H953 C931 0.950 . S
C954 C955 1.443 . S
C954 N958 1.376 . S
C954 C992 1.389 . S
C955 C954 1.443 . S
C955 C956 1.340 . S
C955 H995 0.951 . S
C956 C955 1.340 . S
C956 C957 1.439 . S
C956 H996 0.950 . S
C957 C956 1.439 . S
C957 N958 1.374 . S
C957 C991 1.395 . S
N958 C954 1.376 . S
N958 C957 1.374 . S
N958 Co959 2.008 . S
Co959 N958 2.008 . S
Co959 N960 1.995 . S
Co959 N965 2.008 . S
Co959 N970 1.995 . S
Co959 N975 2.282 . S
Co959 N981 2.282 . S
N960 Co959 1.995 . S
N960 C961 1.376 . S
N960 C964 1.383 . S
C961 N960 1.376 . S
C961 C962 1.446 . S
C961 C991 1.391 . S
C962 C961 1.446 . S
C962 C963 1.339 . S
C962 H997 0.949 . S
C963 C962 1.339 . S
C963 C964 1.439 . S
C963 H998 0.950 . S
C964 N960 1.383 . S
C964 C963 1.439 . S
C964 C993 1.392 . S
N965 Co959 2.008 . S
N965 C966 1.376 . S
N965 C969 1.374 . S
C966 N965 1.376 . S
C966 C967 1.443 . S
C966 C993 1.389 . S
C967 C966 1.443 . S
C967 C968 1.340 . S
C967 H999 0.951 . S
C968 C967 1.340 . S
C968 C969 1.439 . S
C968 H1000 0.950 . S
C969 N965 1.374 . S
C969 C968 1.439 . S
C969 C994 1.395 . S
N970 Co959 1.995 . S
N970 C971 1.376 . S
N970 C974 1.383 . S
C971 N970 1.376 . S
C971 C972 1.446 . S
C971 C994 1.391 . S
C972 C971 1.446 . S
C972 C973 1.339 . S
C972 H1001 0.949 . S
C973 C972 1.339 . S
C973 C974 1.439 . S
C973 H1002 0.950 . S
C974 N970 1.383 . S
C974 C973 1.439 . S
C974 C992 1.392 . S
N975 Co959 2.282 . S
N975 C978 1.332 . S
N975 C980 1.332 . S
C976 C977 1.386 . S
C976 C979 1.388 . S
C977 C976 1.386 . S
C977 C978 1.382 . S
C977 H1003 0.950 . S
C978 N975 1.332 . S
C978 C977 1.382 . S
C978 H989 0.952 . S
C979 C976 1.388 . S
C979 C980 1.382 . S
C979 H1004 0.950 . S
C980 N975 1.332 . S
C980 C979 1.382 . S
C980 H990 0.948 . S
N981 Co959 2.282 . S
N981 C985 1.332 . S
N981 C986 1.332 . S
C982 C983 1.388 . S
C982 C986 1.382 . S
C982 H1005 0.950 . S
C983 C982 1.388 . S
C983 C984 1.386 . S
C984 C983 1.386 . S
C984 C985 1.382 . S
C984 H1006 0.950 . S
C985 N981 1.332 . S
C985 C984 1.382 . S
C985 H987 0.952 . S
C986 N981 1.332 . S
C986 C982 1.382 . S
C986 H988 0.948 . S
H987 C985 0.952 . S
H988 C986 0.948 . S
H989 C978 0.952 . S
H990 C980 0.948 . S
C991 C957 1.395 . S
C991 C961 1.391 . S
C992 C954 1.389 . S
C992 C974 1.392 . S
C993 C964 1.392 . S
C993 C966 1.389 . S
C994 C969 1.395 . S
C994 C971 1.391 . S
H995 C955 0.951 . S
H996 C956 0.950 . S
H997 C962 0.949 . S
H998 C963 0.950 . S
H999 C967 0.951 . S
H1000 C968 0.950 . S
H1001 C972 0.949 . S
H1002 C973 0.950 . S
H1003 C977 0.950 . S
H1004 C979 0.950 . S
H1005 C982 0.950 . S
H1006 C984 0.950 . S
C1007 C1008 1.443 . S
C1007 N1011 1.376 . S
C1007 C1045 1.389 . S
C1008 C1007 1.443 . S
C1008 C1009 1.340 . S
C1008 H1048 0.951 . S
C1009 C1008 1.340 . S
C1009 C1010 1.439 . S
C1009 H1049 0.950 . S
C1010 C1009 1.439 . S
C1010 N1011 1.374 . S
C1010 C1044 1.395 . S
N1011 C1007 1.376 . S
N1011 C1010 1.374 . S
N1011 Co1012 2.008 . S
Co1012 N1011 2.008 . S
Co1012 N1013 1.995 . S
Co1012 N1018 2.008 . S
Co1012 N1023 1.995 . S
Co1012 N1028 2.282 . S
Co1012 N1034 2.282 . S
N1013 Co1012 1.995 . S
N1013 C1014 1.376 . S
N1013 C1017 1.383 . S
C1014 N1013 1.376 . S
C1014 C1015 1.446 . S
C1014 C1044 1.391 . S
C1015 C1014 1.446 . S
C1015 C1016 1.339 . S
C1015 H1050 0.949 . S
C1016 C1015 1.339 . S
C1016 C1017 1.439 . S
C1016 H1051 0.950 . S
C1017 N1013 1.383 . S
C1017 C1016 1.439 . S
C1017 C1046 1.392 . S
N1018 Co1012 2.008 . S
N1018 C1019 1.376 . S
N1018 C1022 1.374 . S
C1019 N1018 1.376 . S
C1019 C1020 1.443 . S
C1019 C1046 1.389 . S
C1020 C1019 1.443 . S
C1020 C1021 1.340 . S
C1020 H1052 0.951 . S
C1021 C1020 1.340 . S
C1021 C1022 1.439 . S
C1021 H1053 0.950 . S
C1022 N1018 1.374 . S
C1022 C1021 1.439 . S
C1022 C1047 1.395 . S
N1023 Co1012 1.995 . S
N1023 C1024 1.376 . S
N1023 C1027 1.383 . S
C1024 N1023 1.376 . S
C1024 C1025 1.446 . S
C1024 C1047 1.391 . S
C1025 C1024 1.446 . S
C1025 C1026 1.339 . S
C1025 H1054 0.949 . S
C1026 C1025 1.339 . S
C1026 C1027 1.439 . S
C1026 H1055 0.950 . S
C1027 N1023 1.383 . S
C1027 C1026 1.439 . S
C1027 C1045 1.392 . S
N1028 Co1012 2.282 . S
N1028 C1031 1.332 . S
N1028 C1033 1.332 . S
C1029 C1030 1.386 . S
C1029 C1032 1.388 . S
C1030 C1029 1.386 . S
C1030 C1031 1.382 . S
C1030 H1056 0.950 . S
C1031 N1028 1.332 . S
C1031 C1030 1.382 . S
C1031 H1042 0.952 . S
C1032 C1029 1.388 . S
C1032 C1033 1.382 . S
C1032 H1057 0.950 . S
C1033 N1028 1.332 . S
C1033 C1032 1.382 . S
C1033 H1043 0.948 . S
N1034 Co1012 2.282 . S
N1034 C1038 1.332 . S
N1034 C1039 1.332 . S
C1035 C1036 1.388 . S
C1035 C1039 1.382 . S
C1035 H1058 0.950 . S
C1036 C1035 1.388 . S
C1036 C1037 1.386 . S
C1037 C1036 1.386 . S
C1037 C1038 1.382 . S
C1037 H1059 0.950 . S
C1038 N1034 1.332 . S
C1038 C1037 1.382 . S
C1038 H1040 0.952 . S
C1039 N1034 1.332 . S
C1039 C1035 1.382 . S
C1039 H1041 0.948 . S
H1040 C1038 0.952 . S
H1041 C1039 0.948 . S
H1042 C1031 0.952 . S
H1043 C1033 0.948 . S
C1044 C1010 1.395 . S
C1044 C1014 1.391 . S
C1045 C1007 1.389 . S
C1045 C1027 1.392 . S
C1046 C1017 1.392 . S
C1046 C1019 1.389 . S
C1047 C1022 1.395 . S
C1047 C1024 1.391 . S
H1048 C1008 0.951 . S
H1049 C1009 0.950 . S
H1050 C1015 0.949 . S
H1051 C1016 0.950 . S
H1052 C1020 0.951 . S
H1053 C1021 0.950 . S
H1054 C1025 0.949 . S
H1055 C1026 0.950 . S
H1056 C1030 0.950 . S
H1057 C1032 0.950 . S
H1058 C1035 0.950 . S
H1059 C1037 0.950 . S
C1060 C1061 1.443 . S
C1060 N1064 1.376 . S
C1060 C1098 1.389 . S
C1061 C1060 1.443 . S
C1061 C1062 1.340 . S
C1061 H1101 0.951 . S
C1062 C1061 1.340 . S
C1062 C1063 1.439 . S
C1062 H1102 0.950 . S
C1063 C1062 1.439 . S
C1063 N1064 1.374 . S
C1063 C1097 1.395 . S
N1064 C1060 1.376 . S
N1064 C1063 1.374 . S
N1064 Co1065 2.008 . S
Co1065 N1064 2.008 . S
Co1065 N1066 1.995 . S
Co1065 N1071 2.008 . S
Co1065 N1076 1.995 . S
Co1065 N1081 2.282 . S
Co1065 N1087 2.282 . S
N1066 Co1065 1.995 . S
N1066 C1067 1.376 . S
N1066 C1070 1.383 . S
C1067 N1066 1.376 . S
C1067 C1068 1.446 . S
C1067 C1097 1.391 . S
C1068 C1067 1.446 . S
C1068 C1069 1.339 . S
C1068 H1103 0.949 . S
C1069 C1068 1.339 . S
C1069 C1070 1.439 . S
C1069 H1104 0.950 . S
C1070 N1066 1.383 . S
C1070 C1069 1.439 . S
C1070 C1099 1.392 . S
N1071 Co1065 2.008 . S
N1071 C1072 1.376 . S
N1071 C1075 1.374 . S
C1072 N1071 1.376 . S
C1072 C1073 1.443 . S
C1072 C1099 1.389 . S
C1073 C1072 1.443 . S
C1073 C1074 1.340 . S
C1073 H1105 0.951 . S
C1074 C1073 1.340 . S
C1074 C1075 1.439 . S
C1074 H1106 0.950 . S
C1075 N1071 1.374 . S
C1075 C1074 1.439 . S
C1075 C1100 1.395 . S
N1076 Co1065 1.995 . S
N1076 C1077 1.376 . S
N1076 C1080 1.383 . S
C1077 N1076 1.376 . S
C1077 C1078 1.446 . S
C1077 C1100 1.391 . S
C1078 C1077 1.446 . S
C1078 C1079 1.339 . S
C1078 H1107 0.949 . S
C1079 C1078 1.339 . S
C1079 C1080 1.439 . S
C1079 H1108 0.950 . S
C1080 N1076 1.383 . S
C1080 C1079 1.439 . S
C1080 C1098 1.392 . S
N1081 Co1065 2.282 . S
N1081 C1084 1.332 . S
N1081 C1086 1.332 . S
C1082 C1083 1.386 . S
C1082 C1085 1.388 . S
C1083 C1082 1.386 . S
C1083 C1084 1.382 . S
C1083 H1109 0.950 . S
C1084 N1081 1.332 . S
C1084 C1083 1.382 . S
C1084 H1095 0.952 . S
C1085 C1082 1.388 . S
C1085 C1086 1.382 . S
C1085 H1110 0.950 . S
C1086 N1081 1.332 . S
C1086 C1085 1.382 . S
C1086 H1096 0.948 . S
N1087 Co1065 2.282 . S
N1087 C1091 1.332 . S
N1087 C1092 1.332 . S
C1088 C1089 1.388 . S
C1088 C1092 1.382 . S
C1088 H1111 0.950 . S
C1089 C1088 1.388 . S
C1089 C1090 1.386 . S
C1090 C1089 1.386 . S
C1090 C1091 1.382 . S
C1090 H1112 0.950 . S
C1091 N1087 1.332 . S
C1091 C1090 1.382 . S
C1091 H1093 0.952 . S
C1092 N1087 1.332 . S
C1092 C1088 1.382 . S
C1092 H1094 0.948 . S
H1093 C1091 0.952 . S
H1094 C1092 0.948 . S
H1095 C1084 0.952 . S
H1096 C1086 0.948 . S
C1097 C1063 1.395 . S
C1097 C1067 1.391 . S
C1098 C1060 1.389 . S
C1098 C1080 1.392 . S
C1099 C1070 1.392 . S
C1099 C1072 1.389 . S
C1100 C1075 1.395 . S
C1100 C1077 1.391 . S
H1101 C1061 0.951 . S
H1102 C1062 0.950 . S
H1103 C1068 0.949 . S
H1104 C1069 0.950 . S
H1105 C1073 0.951 . S
H1106 C1074 0.950 . S
H1107 C1078 0.949 . S
H1108 C1079 0.950 . S
H1109 C1083 0.950 . S
H1110 C1085 0.950 . S
H1111 C1088 0.950 . S
H1112 C1090 0.950 . S
C1113 C1114 1.443 . S
C1113 N1117 1.376 . S
C1113 C1151 1.389 . S
C1114 C1113 1.443 . S
C1114 C1115 1.340 . S
C1114 H1154 0.951 . S
C1115 C1114 1.340 . S
C1115 C1116 1.439 . S
C1115 H1155 0.950 . S
C1116 C1115 1.439 . S
C1116 N1117 1.374 . S
C1116 C1150 1.395 . S
N1117 C1113 1.376 . S
N1117 C1116 1.374 . S
N1117 Co1118 2.008 . S
Co1118 N1117 2.008 . S
Co1118 N1119 1.995 . S
Co1118 N1124 2.008 . S
Co1118 N1129 1.995 . S
Co1118 N1134 2.282 . S
Co1118 N1140 2.282 . S
N1119 Co1118 1.995 . S
N1119 C1120 1.376 . S
N1119 C1123 1.383 . S
C1120 N1119 1.376 . S
C1120 C1121 1.446 . S
C1120 C1150 1.391 . S
C1121 C1120 1.446 . S
C1121 C1122 1.339 . S
C1121 H1156 0.949 . S
C1122 C1121 1.339 . S
C1122 C1123 1.439 . S
C1122 H1157 0.950 . S
C1123 N1119 1.383 . S
C1123 C1122 1.439 . S
C1123 C1152 1.392 . S
N1124 Co1118 2.008 . S
N1124 C1125 1.376 . S
N1124 C1128 1.374 . S
C1125 N1124 1.376 . S
C1125 C1126 1.443 . S
C1125 C1152 1.389 . S
C1126 C1125 1.443 . S
C1126 C1127 1.340 . S
C1126 H1158 0.951 . S
C1127 C1126 1.340 . S
C1127 C1128 1.439 . S
C1127 H1159 0.950 . S
C1128 N1124 1.374 . S
C1128 C1127 1.439 . S
C1128 C1153 1.395 . S
N1129 Co1118 1.995 . S
N1129 C1130 1.376 . S
N1129 C1133 1.383 . S
C1130 N1129 1.376 . S
C1130 C1131 1.446 . S
C1130 C1153 1.391 . S
C1131 C1130 1.446 . S
C1131 C1132 1.339 . S
C1131 H1160 0.949 . S
C1132 C1131 1.339 . S
C1132 C1133 1.439 . S
C1132 H1161 0.950 . S
C1133 N1129 1.383 . S
C1133 C1132 1.439 . S
C1133 C1151 1.392 . S
N1134 Co1118 2.282 . S
N1134 C1137 1.332 . S
N1134 C1139 1.332 . S
C1135 C1136 1.386 . S
C1135 C1138 1.388 . S
C1136 C1135 1.386 . S
C1136 C1137 1.382 . S
C1136 H1162 0.950 . S
C1137 N1134 1.332 . S
C1137 C1136 1.382 . S
C1137 H1148 0.952 . S
C1138 C1135 1.388 . S
C1138 C1139 1.382 . S
C1138 H1163 0.950 . S
C1139 N1134 1.332 . S
C1139 C1138 1.382 . S
C1139 H1149 0.948 . S
N1140 Co1118 2.282 . S
N1140 C1144 1.332 . S
N1140 C1145 1.332 . S
C1141 C1142 1.388 . S
C1141 C1145 1.382 . S
C1141 H1164 0.950 . S
C1142 C1141 1.388 . S
C1142 C1143 1.386 . S
C1143 C1142 1.386 . S
C1143 C1144 1.382 . S
C1143 H1165 0.950 . S
C1144 N1140 1.332 . S
C1144 C1143 1.382 . S
C1144 H1146 0.952 . S
C1145 N1140 1.332 . S
C1145 C1141 1.382 . S
C1145 H1147 0.948 . S
H1146 C1144 0.952 . S
H1147 C1145 0.948 . S
H1148 C1137 0.952 . S
H1149 C1139 0.948 . S
C1150 C1116 1.395 . S
C1150 C1120 1.391 . S
C1151 C1113 1.389 . S
C1151 C1133 1.392 . S
C1152 C1123 1.392 . S
C1152 C1125 1.389 . S
C1153 C1128 1.395 . S
C1153 C1130 1.391 . S
H1154 C1114 0.951 . S
H1155 C1115 0.950 . S
H1156 C1121 0.949 . S
H1157 C1122 0.950 . S
H1158 C1126 0.951 . S
H1159 C1127 0.950 . S
H1160 C1131 0.949 . S
H1161 C1132 0.950 . S
H1162 C1136 0.950 . S
H1163 C1138 0.950 . S
H1164 C1141 0.950 . S
H1165 C1143 0.950 . S
C1166 C1167 1.443 . S
C1166 N1170 1.376 . S
C1166 C1204 1.389 . S
C1167 C1166 1.443 . S
C1167 C1168 1.340 . S
C1167 H1207 0.951 . S
C1168 C1167 1.340 . S
C1168 C1169 1.439 . S
C1168 H1208 0.950 . S
C1169 C1168 1.439 . S
C1169 N1170 1.374 . S
C1169 C1203 1.395 . S
N1170 C1166 1.376 . S
N1170 C1169 1.374 . S
N1170 Co1171 2.008 . S
Co1171 N1170 2.008 . S
Co1171 N1172 1.995 . S
Co1171 N1177 2.008 . S
Co1171 N1182 1.995 . S
Co1171 N1187 2.282 . S
Co1171 N1193 2.282 . S
N1172 Co1171 1.995 . S
N1172 C1173 1.376 . S
N1172 C1176 1.383 . S
C1173 N1172 1.376 . S
C1173 C1174 1.446 . S
C1173 C1203 1.391 . S
C1174 C1173 1.446 . S
C1174 C1175 1.339 . S
C1174 H1209 0.949 . S
C1175 C1174 1.339 . S
C1175 C1176 1.439 . S
C1175 H1210 0.950 . S
C1176 N1172 1.383 . S
C1176 C1175 1.439 . S
C1176 C1205 1.392 . S
N1177 Co1171 2.008 . S
N1177 C1178 1.376 . S
N1177 C1181 1.374 . S
C1178 N1177 1.376 . S
C1178 C1179 1.443 . S
C1178 C1205 1.389 . S
C1179 C1178 1.443 . S
C1179 C1180 1.340 . S
C1179 H1211 0.951 . S
C1180 C1179 1.340 . S
C1180 C1181 1.439 . S
C1180 H1212 0.950 . S
C1181 N1177 1.374 . S
C1181 C1180 1.439 . S
C1181 C1206 1.395 . S
N1182 Co1171 1.995 . S
N1182 C1183 1.376 . S
N1182 C1186 1.383 . S
C1183 N1182 1.376 . S
C1183 C1184 1.446 . S
C1183 C1206 1.391 . S
C1184 C1183 1.446 . S
C1184 C1185 1.339 . S
C1184 H1213 0.949 . S
C1185 C1184 1.339 . S
C1185 C1186 1.439 . S
C1185 H1214 0.950 . S
C1186 N1182 1.383 . S
C1186 C1185 1.439 . S
C1186 C1204 1.392 . S
N1187 Co1171 2.282 . S
N1187 C1190 1.332 . S
N1187 C1192 1.332 . S
C1188 C1189 1.386 . S
C1188 C1191 1.388 . S
C1189 C1188 1.386 . S
C1189 C1190 1.382 . S
C1189 H1215 0.950 . S
C1190 N1187 1.332 . S
C1190 C1189 1.382 . S
C1190 H1201 0.952 . S
C1191 C1188 1.388 . S
C1191 C1192 1.382 . S
C1191 H1216 0.950 . S
C1192 N1187 1.332 . S
C1192 C1191 1.382 . S
C1192 H1202 0.948 . S
N1193 Co1171 2.282 . S
N1193 C1197 1.332 . S
N1193 C1198 1.332 . S
C1194 C1195 1.388 . S
C1194 C1198 1.382 . S
C1194 H1217 0.950 . S
C1195 C1194 1.388 . S
C1195 C1196 1.386 . S
C1196 C1195 1.386 . S
C1196 C1197 1.382 . S
C1196 H1218 0.950 . S
C1197 N1193 1.332 . S
C1197 C1196 1.382 . S
C1197 H1199 0.952 . S
C1198 N1193 1.332 . S
C1198 C1194 1.382 . S
C1198 H1200 0.948 . S
H1199 C1197 0.952 . S
H1200 C1198 0.948 . S
H1201 C1190 0.952 . S
H1202 C1192 0.948 . S
C1203 C1169 1.395 . S
C1203 C1173 1.391 . S
C1204 C1166 1.389 . S
C1204 C1186 1.392 . S
C1205 C1176 1.392 . S
C1205 C1178 1.389 . S
C1206 C1181 1.395 . S
C1206 C1183 1.391 . S
H1207 C1167 0.951 . S
H1208 C1168 0.950 . S
H1209 C1174 0.949 . S
H1210 C1175 0.950 . S
H1211 C1179 0.951 . S
H1212 C1180 0.950 . S
H1213 C1184 0.949 . S
H1214 C1185 0.950 . S
H1215 C1189 0.950 . S
H1216 C1191 0.950 . S
H1217 C1194 0.950 . S
H1218 C1196 0.950 . S
C1219 C1220 1.443 . S
C1219 N1223 1.376 . S
C1219 C1257 1.389 . S
C1220 C1219 1.443 . S
C1220 C1221 1.340 . S
C1220 H1260 0.951 . S
C1221 C1220 1.340 . S
C1221 C1222 1.439 . S
C1221 H1261 0.950 . S
C1222 C1221 1.439 . S
C1222 N1223 1.374 . S
C1222 C1256 1.395 . S
N1223 C1219 1.376 . S
N1223 C1222 1.374 . S
N1223 Co1224 2.008 . S
Co1224 N1223 2.008 . S
Co1224 N1225 1.995 . S
Co1224 N1230 2.008 . S
Co1224 N1235 1.995 . S
Co1224 N1240 2.282 . S
Co1224 N1246 2.282 . S
N1225 Co1224 1.995 . S
N1225 C1226 1.376 . S
N1225 C1229 1.383 . S
C1226 N1225 1.376 . S
C1226 C1227 1.446 . S
C1226 C1256 1.391 . S
C1227 C1226 1.446 . S
C1227 C1228 1.339 . S
C1227 H1262 0.949 . S
C1228 C1227 1.339 . S
C1228 C1229 1.439 . S
C1228 H1263 0.950 . S
C1229 N1225 1.383 . S
C1229 C1228 1.439 . S
C1229 C1258 1.392 . S
N1230 Co1224 2.008 . S
N1230 C1231 1.376 . S
N1230 C1234 1.374 . S
C1231 N1230 1.376 . S
C1231 C1232 1.443 . S
C1231 C1258 1.389 . S
C1232 C1231 1.443 . S
C1232 C1233 1.340 . S
C1232 H1264 0.951 . S
C1233 C1232 1.340 . S
C1233 C1234 1.439 . S
C1233 H1265 0.950 . S
C1234 N1230 1.374 . S
C1234 C1233 1.439 . S
C1234 C1259 1.395 . S
N1235 Co1224 1.995 . S
N1235 C1236 1.376 . S
N1235 C1239 1.383 . S
C1236 N1235 1.376 . S
C1236 C1237 1.446 . S
C1236 C1259 1.391 . S
C1237 C1236 1.446 . S
C1237 C1238 1.339 . S
C1237 H1266 0.949 . S
C1238 C1237 1.339 . S
C1238 C1239 1.439 . S
C1238 H1267 0.950 . S
C1239 N1235 1.383 . S
C1239 C1238 1.439 . S
C1239 C1257 1.392 . S
N1240 Co1224 2.282 . S
N1240 C1243 1.332 . S
N1240 C1245 1.332 . S
C1241 C1242 1.386 . S
C1241 C1244 1.388 . S
C1242 C1241 1.386 . S
C1242 C1243 1.382 . S
C1242 H1268 0.950 . S
C1243 N1240 1.332 . S
C1243 C1242 1.382 . S
C1243 H1254 0.952 . S
C1244 C1241 1.388 . S
C1244 C1245 1.382 . S
C1244 H1269 0.950 . S
C1245 N1240 1.332 . S
C1245 C1244 1.382 . S
C1245 H1255 0.948 . S
N1246 Co1224 2.282 . S
N1246 C1250 1.332 . S
N1246 C1251 1.332 . S
C1247 C1248 1.388 . S
C1247 C1251 1.382 . S
C1247 H1270 0.950 . S
C1248 C1247 1.388 . S
C1248 C1249 1.386 . S
C1249 C1248 1.386 . S
C1249 C1250 1.382 . S
C1249 H1271 0.950 . S
C1250 N1246 1.332 . S
C1250 C1249 1.382 . S
C1250 H1252 0.952 . S
C1251 N1246 1.332 . S
C1251 C1247 1.382 . S
C1251 H1253 0.948 . S
H1252 C1250 0.952 . S
H1253 C1251 0.948 . S
H1254 C1243 0.952 . S
H1255 C1245 0.948 . S
C1256 C1222 1.395 . S
C1256 C1226 1.391 . S
C1257 C1219 1.389 . S
C1257 C1239 1.392 . S
C1258 C1229 1.392 . S
C1258 C1231 1.389 . S
C1259 C1234 1.395 . S
C1259 C1236 1.391 . S
H1260 C1220 0.951 . S
H1261 C1221 0.950 . S
H1262 C1227 0.949 . S
H1263 C1228 0.950 . S
H1264 C1232 0.951 . S
H1265 C1233 0.950 . S
H1266 C1237 0.949 . S
H1267 C1238 0.950 . S
H1268 C1242 0.950 . S
H1269 C1244 0.950 . S
H1270 C1247 0.950 . S
H1271 C1249 0.950 . S
H1272 C1278 0.930 . S
H1273 C1282 0.930 . S
H1274 C1287 0.929 . S
H1275 C1285 0.929 . S
H1276 C1280 0.929 . S
H1277 C1286 0.929 . S
C1278 H1272 0.930 . S
C1278 C1279 1.367 . S
C1278 C1286 1.378 . S
C1279 C1278 1.367 . S
C1279 C1287 1.433 . S
C1280 H1276 0.929 . S
C1280 C1282 1.378 . S
C1280 C1284 1.350 . S
C1281 C1284 1.463 . S
C1281 C1286 1.350 . S
C1281 N1289 1.427 . S
C1282 H1273 0.930 . S
C1282 C1280 1.378 . S
C1282 C1283 1.367 . S
C1283 C1282 1.367 . S
C1283 C1285 1.433 . S
C1284 C1280 1.350 . S
C1284 C1281 1.463 . S
C1284 N1288 1.427 . S
C1285 H1275 0.929 . S
C1285 C1283 1.433 . S
C1285 N1288 1.384 . S
C1286 H1277 0.929 . S
C1286 C1278 1.378 . S
C1286 C1281 1.350 . S
C1287 H1274 0.929 . S
C1287 C1279 1.433 . S
C1287 N1289 1.384 . S
N1288 C1284 1.427 . S
N1288 C1285 1.384 . S
N1289 C1281 1.427 . S
N1289 C1287 1.384 . S
H1290 C1296 0.930 . S
H1291 C1300 0.930 . S
H1292 C1305 0.929 . S
H1293 C1303 0.929 . S
H1294 C1298 0.929 . S
H1295 C1304 0.929 . S
C1296 H1290 0.930 . S
C1296 C1297 1.367 . S
C1296 C1304 1.378 . S
C1297 C1296 1.367 . S
C1297 C1305 1.433 . S
C1298 H1294 0.929 . S
C1298 C1300 1.378 . S
C1298 C1302 1.350 . S
C1299 C1302 1.463 . S
C1299 C1304 1.350 . S
C1299 N1307 1.427 . S
C1300 H1291 0.930 . S
C1300 C1298 1.378 . S
C1300 C1301 1.367 . S
C1301 C1300 1.367 . S
C1301 C1303 1.433 . S
C1302 C1298 1.350 . S
C1302 C1299 1.463 . S
C1302 N1306 1.427 . S
C1303 H1293 0.929 . S
C1303 C1301 1.433 . S
C1303 N1306 1.384 . S
C1304 H1295 0.929 . S
C1304 C1296 1.378 . S
C1304 C1299 1.350 . S
C1305 H1292 0.929 . S
C1305 C1297 1.433 . S
C1305 N1307 1.384 . S
N1306 C1302 1.427 . S
N1306 C1303 1.384 . S
N1307 C1299 1.427 . S
N1307 C1305 1.384 . S
H1308 C1314 0.930 . S
H1309 C1318 0.930 . S
H1310 C1323 0.929 . S
H1311 C1321 0.929 . S
H1312 C1316 0.929 . S
H1313 C1322 0.929 . S
C1314 H1308 0.930 . S
C1314 C1315 1.367 . S
C1314 C1322 1.378 . S
C1315 C1314 1.367 . S
C1315 C1323 1.433 . S
C1316 H1312 0.929 . S
C1316 C1318 1.378 . S
C1316 C1320 1.350 . S
C1317 C1320 1.463 . S
C1317 C1322 1.350 . S
C1317 N1325 1.427 . S
C1318 H1309 0.930 . S
C1318 C1316 1.378 . S
C1318 C1319 1.367 . S
C1319 C1318 1.367 . S
C1319 C1321 1.433 . S
C1320 C1316 1.350 . S
C1320 C1317 1.463 . S
C1320 N1324 1.427 . S
C1321 H1311 0.929 . S
C1321 C1319 1.433 . S
C1321 N1324 1.384 . S
C1322 H1313 0.929 . S
C1322 C1314 1.378 . S
C1322 C1317 1.350 . S
C1323 H1310 0.929 . S
C1323 C1315 1.433 . S
C1323 N1325 1.384 . S
N1324 C1320 1.427 . S
N1324 C1321 1.384 . S
N1325 C1317 1.427 . S
N1325 C1323 1.384 . S
H1326 C1332 0.930 . S
H1327 C1336 0.930 . S
H1328 C1341 0.929 . S
H1329 C1339 0.929 . S
H1330 C1334 0.929 . S
H1331 C1340 0.929 . S
C1332 H1326 0.930 . S
C1332 C1333 1.367 . S
C1332 C1340 1.378 . S
C1333 C1332 1.367 . S
C1333 C1341 1.433 . S
C1334 H1330 0.929 . S
C1334 C1336 1.378 . S
C1334 C1338 1.350 . S
C1335 C1338 1.463 . S
C1335 C1340 1.350 . S
C1335 N1343 1.427 . S
C1336 H1327 0.930 . S
C1336 C1334 1.378 . S
C1336 C1337 1.367 . S
C1337 C1336 1.367 . S
C1337 C1339 1.433 . S
C1338 C1334 1.350 . S
C1338 C1335 1.463 . S
C1338 N1342 1.427 . S
C1339 H1329 0.929 . S
C1339 C1337 1.433 . S
C1339 N1342 1.384 . S
C1340 H1331 0.929 . S
C1340 C1332 1.378 . S
C1340 C1335 1.350 . S
C1341 H1328 0.929 . S
C1341 C1333 1.433 . S
C1341 N1343 1.384 . S
N1342 C1338 1.427 . S
N1342 C1339 1.384 . S
N1343 C1335 1.427 . S
N1343 C1341 1.384 . S
H1344 C1350 0.930 . S
H1345 C1354 0.930 . S
H1346 C1359 0.929 . S
H1347 C1357 0.929 . S
H1348 C1352 0.929 . S
H1349 C1358 0.929 . S
C1350 H1344 0.930 . S
C1350 C1351 1.367 . S
C1350 C1358 1.378 . S
C1351 C1350 1.367 . S
C1351 C1359 1.433 . S
C1352 H1348 0.929 . S
C1352 C1354 1.378 . S
C1352 C1356 1.350 . S
C1353 C1356 1.463 . S
C1353 C1358 1.350 . S
C1353 N1361 1.427 . S
C1354 H1345 0.930 . S
C1354 C1352 1.378 . S
C1354 C1355 1.367 . S
C1355 C1354 1.367 . S
C1355 C1357 1.433 . S
C1356 C1352 1.350 . S
C1356 C1353 1.463 . S
C1356 N1360 1.427 . S
C1357 H1347 0.929 . S
C1357 C1355 1.433 . S
C1357 N1360 1.384 . S
C1358 H1349 0.929 . S
C1358 C1350 1.378 . S
C1358 C1353 1.350 . S
C1359 H1346 0.929 . S
C1359 C1351 1.433 . S
C1359 N1361 1.384 . S
N1360 C1356 1.427 . S
N1360 C1357 1.384 . S
N1361 C1353 1.427 . S
N1361 C1359 1.384 . S
H1362 C1368 0.930 . S
H1363 C1372 0.930 . S
H1364 C1377 0.929 . S
H1365 C1375 0.929 . S
H1366 C1370 0.929 . S
H1367 C1376 0.929 . S
C1368 H1362 0.930 . S
C1368 C1369 1.367 . S
C1368 C1376 1.378 . S
C1369 C1368 1.367 . S
C1369 C1377 1.433 . S
C1370 H1366 0.929 . S
C1370 C1372 1.378 . S
C1370 C1374 1.350 . S
C1371 C1374 1.463 . S
C1371 C1376 1.350 . S
C1371 N1379 1.427 . S
C1372 H1363 0.930 . S
C1372 C1370 1.378 . S
C1372 C1373 1.367 . S
C1373 C1372 1.367 . S
C1373 C1375 1.433 . S
C1374 C1370 1.350 . S
C1374 C1371 1.463 . S
C1374 N1378 1.427 . S
C1375 H1365 0.929 . S
C1375 C1373 1.433 . S
C1375 N1378 1.384 . S
C1376 H1367 0.929 . S
C1376 C1368 1.378 . S
C1376 C1371 1.350 . S
C1377 H1364 0.929 . S
C1377 C1369 1.433 . S
C1377 N1379 1.384 . S
N1378 C1374 1.427 . S
N1378 C1375 1.384 . S
N1379 C1371 1.427 . S
N1379 C1377 1.384 . S
H1380 C1386 0.930 . S
H1381 C1390 0.930 . S
H1382 C1395 0.929 . S
H1383 C1393 0.929 . S
H1384 C1388 0.929 . S
H1385 C1394 0.929 . S
C1386 H1380 0.930 . S
C1386 C1387 1.367 . S
C1386 C1394 1.378 . S
C1387 C1386 1.367 . S
C1387 C1395 1.433 . S
C1388 H1384 0.929 . S
C1388 C1390 1.378 . S
C1388 C1392 1.350 . S
C1389 C1392 1.463 . S
C1389 C1394 1.350 . S
C1389 N1397 1.427 . S
C1390 H1381 0.930 . S
C1390 C1388 1.378 . S
C1390 C1391 1.367 . S
C1391 C1390 1.367 . S
C1391 C1393 1.433 . S
C1392 C1388 1.350 . S
C1392 C1389 1.463 . S
C1392 N1396 1.427 . S
C1393 H1383 0.929 . S
C1393 C1391 1.433 . S
C1393 N1396 1.384 . S
C1394 H1385 0.929 . S
C1394 C1386 1.378 . S
C1394 C1389 1.350 . S
C1395 H1382 0.929 . S
C1395 C1387 1.433 . S
C1395 N1397 1.384 . S
N1396 C1392 1.427 . S
N1396 C1393 1.384 . S
N1397 C1389 1.427 . S
N1397 C1395 1.384 . S
H1398 C1404 0.930 . S
H1399 C1408 0.930 . S
H1400 C1413 0.929 . S
H1401 C1411 0.929 . S
H1402 C1406 0.929 . S
H1403 C1412 0.929 . S
C1404 H1398 0.930 . S
C1404 C1405 1.367 . S
C1404 C1412 1.378 . S
C1405 C1404 1.367 . S
C1405 C1413 1.433 . S
C1406 H1402 0.929 . S
C1406 C1408 1.378 . S
C1406 C1410 1.350 . S
C1407 C1410 1.463 . S
C1407 C1412 1.350 . S
C1407 N1415 1.427 . S
C1408 H1399 0.930 . S
C1408 C1406 1.378 . S
C1408 C1409 1.367 . S
C1409 C1408 1.367 . S
C1409 C1411 1.433 . S
C1410 C1406 1.350 . S
C1410 C1407 1.463 . S
C1410 N1414 1.427 . S
C1411 H1401 0.929 . S
C1411 C1409 1.433 . S
C1411 N1414 1.384 . S
C1412 H1403 0.929 . S
C1412 C1404 1.378 . S
C1412 C1407 1.350 . S
C1413 H1400 0.929 . S
C1413 C1405 1.433 . S
C1413 N1415 1.384 . S
N1414 C1410 1.427 . S
N1414 C1411 1.384 . S
N1415 C1407 1.427 . S
N1415 C1413 1.384 . S
H1416 C1422 0.930 . S
H1417 C1426 0.930 . S
H1418 C1431 0.929 . S
H1419 C1429 0.929 . S
H1420 C1424 0.929 . S
H1421 C1430 0.929 . S
C1422 H1416 0.930 . S
C1422 C1423 1.367 . S
C1422 C1430 1.378 . S
C1423 C1422 1.367 . S
C1423 C1431 1.433 . S
C1424 H1420 0.929 . S
C1424 C1426 1.378 . S
C1424 C1428 1.350 . S
C1425 C1428 1.463 . S
C1425 C1430 1.350 . S
C1425 N1433 1.427 . S
C1426 H1417 0.930 . S
C1426 C1424 1.378 . S
C1426 C1427 1.367 . S
C1427 C1426 1.367 . S
C1427 C1429 1.433 . S
C1428 C1424 1.350 . S
C1428 C1425 1.463 . S
C1428 N1432 1.427 . S
C1429 H1419 0.929 . S
C1429 C1427 1.433 . S
C1429 N1432 1.384 . S
C1430 H1421 0.929 . S
C1430 C1422 1.378 . S
C1430 C1425 1.350 . S
C1431 H1418 0.929 . S
C1431 C1423 1.433 . S
C1431 N1433 1.384 . S
N1432 C1428 1.427 . S
N1432 C1429 1.384 . S
N1433 C1425 1.427 . S
N1433 C1431 1.384 . S
H1434 C1440 0.930 . S
H1435 C1444 0.930 . S
H1436 C1449 0.929 . S
H1437 C1447 0.929 . S
H1438 C1442 0.929 . S
H1439 C1448 0.929 . S
C1440 H1434 0.930 . S
C1440 C1441 1.367 . S
C1440 C1448 1.378 . S
C1441 C1440 1.367 . S
C1441 C1449 1.433 . S
C1442 H1438 0.929 . S
C1442 C1444 1.378 . S
C1442 C1446 1.350 . S
C1443 C1446 1.463 . S
C1443 C1448 1.350 . S
C1443 N1451 1.427 . S
C1444 H1435 0.930 . S
C1444 C1442 1.378 . S
C1444 C1445 1.367 . S
C1445 C1444 1.367 . S
C1445 C1447 1.433 . S
C1446 C1442 1.350 . S
C1446 C1443 1.463 . S
C1446 N1450 1.427 . S
C1447 H1437 0.929 . S
C1447 C1445 1.433 . S
C1447 N1450 1.384 . S
C1448 H1439 0.929 . S
C1448 C1440 1.378 . S
C1448 C1443 1.350 . S
C1449 H1436 0.929 . S
C1449 C1441 1.433 . S
C1449 N1451 1.384 . S
N1450 C1446 1.427 . S
N1450 C1447 1.384 . S
N1451 C1443 1.427 . S
N1451 C1449 1.384 . S
H1452 C1458 0.930 . S
H1453 C1462 0.930 . S
H1454 C1467 0.929 . S
H1455 C1465 0.929 . S
H1456 C1460 0.929 . S
H1457 C1466 0.929 . S
C1458 H1452 0.930 . S
C1458 C1459 1.367 . S
C1458 C1466 1.378 . S
C1459 C1458 1.367 . S
C1459 C1467 1.433 . S
C1460 H1456 0.929 . S
C1460 C1462 1.378 . S
C1460 C1464 1.350 . S
C1461 C1464 1.463 . S
C1461 C1466 1.350 . S
C1461 N1469 1.427 . S
C1462 H1453 0.930 . S
C1462 C1460 1.378 . S
C1462 C1463 1.367 . S
C1463 C1462 1.367 . S
C1463 C1465 1.433 . S
C1464 C1460 1.350 . S
C1464 C1461 1.463 . S
C1464 N1468 1.427 . S
C1465 H1455 0.929 . S
C1465 C1463 1.433 . S
C1465 N1468 1.384 . S
C1466 H1457 0.929 . S
C1466 C1458 1.378 . S
C1466 C1461 1.350 . S
C1467 H1454 0.929 . S
C1467 C1459 1.433 . S
C1467 N1469 1.384 . S
N1468 C1464 1.427 . S
N1468 C1465 1.384 . S
N1469 C1461 1.427 . S
N1469 C1467 1.384 . S
H1470 C1476 0.930 . S
H1471 C1480 0.930 . S
H1472 C1485 0.929 . S
H1473 C1483 0.929 . S
H1474 C1478 0.929 . S
H1475 C1484 0.929 . S
C1476 H1470 0.930 . S
C1476 C1477 1.367 . S
C1476 C1484 1.378 . S
C1477 C1476 1.367 . S
C1477 C1485 1.433 . S
C1478 H1474 0.929 . S
C1478 C1480 1.378 . S
C1478 C1482 1.350 . S
C1479 C1482 1.463 . S
C1479 C1484 1.350 . S
C1479 N1487 1.427 . S
C1480 H1471 0.930 . S
C1480 C1478 1.378 . S
C1480 C1481 1.367 . S
C1481 C1480 1.367 . S
C1481 C1483 1.433 . S
C1482 C1478 1.350 . S
C1482 C1479 1.463 . S
C1482 N1486 1.427 . S
C1483 H1473 0.929 . S
C1483 C1481 1.433 . S
C1483 N1486 1.384 . S
C1484 H1475 0.929 . S
C1484 C1476 1.378 . S
C1484 C1479 1.350 . S
C1485 H1472 0.929 . S
C1485 C1477 1.433 . S
C1485 N1487 1.384 . S
N1486 C1482 1.427 . S
N1486 C1483 1.384 . S
N1487 C1479 1.427 . S
N1487 C1485 1.384 . S
H1488 C1494 0.930 . S
H1489 C1498 0.930 . S
H1490 C1503 0.929 . S
H1491 C1501 0.929 . S
H1492 C1496 0.929 . S
H1493 C1502 0.929 . S
C1494 H1488 0.930 . S
C1494 C1495 1.367 . S
C1494 C1502 1.378 . S
C1495 C1494 1.367 . S
C1495 C1503 1.433 . S
C1496 H1492 0.929 . S
C1496 C1498 1.378 . S
C1496 C1500 1.350 1_545 S
C1497 C1500 1.463 . S
C1497 C1502 1.350 . S
C1497 N1505 1.427 . S
C1498 H1489 0.930 . S
C1498 C1496 1.378 . S
C1498 C1499 1.367 . S
C1499 C1498 1.367 . S
C1499 C1501 1.433 . S
C1500 C1496 1.350 1_565 S
C1500 C1497 1.463 . S
C1500 N1504 1.427 . S
C1501 H1491 0.929 . S
C1501 C1499 1.433 . S
C1501 N1504 1.384 1_545 S
C1502 H1493 0.929 . S
C1502 C1494 1.378 . S
C1502 C1497 1.350 . S
C1503 H1490 0.929 . S
C1503 C1495 1.433 . S
C1503 N1505 1.384 . S
N1504 C1500 1.427 . S
N1504 C1501 1.384 1_565 S
N1505 C1497 1.427 . S
N1505 C1503 1.384 . S
H1506 C1512 0.930 . S
H1507 C1516 0.930 . S
H1508 C1521 0.929 . S
H1509 C1519 0.929 . S
H1510 C1514 0.929 . S
H1511 C1520 0.929 . S
C1512 H1506 0.930 . S
C1512 C1513 1.367 . S
C1512 C1520 1.378 . S
C1513 C1512 1.367 . S
C1513 C1521 1.433 . S
C1514 H1510 0.929 . S
C1514 C1516 1.378 1_655 S
C1514 C1518 1.350 . S
C1515 C1518 1.463 . S
C1515 C1520 1.350 . S
C1515 N1523 1.427 . S
C1516 H1507 0.930 . S
C1516 C1514 1.378 1_455 S
C1516 C1517 1.367 . S
C1517 C1516 1.367 . S
C1517 C1519 1.433 . S
C1518 C1514 1.350 . S
C1518 C1515 1.463 . S
C1518 N1522 1.427 1_655 S
C1519 H1509 0.929 . S
C1519 C1517 1.433 . S
C1519 N1522 1.384 . S
C1520 H1511 0.929 . S
C1520 C1512 1.378 . S
C1520 C1515 1.350 . S
C1521 H1508 0.929 . S
C1521 C1513 1.433 . S
C1521 N1523 1.384 . S
N1522 C1518 1.427 1_455 S
N1522 C1519 1.384 . S
N1523 C1515 1.427 . S
N1523 C1521 1.384 . S
H1524 C1530 0.930 . S
H1525 C1534 0.930 . S
H1526 C1539 0.929 . S
H1527 C1537 0.929 . S
H1528 C1532 0.929 . S
H1529 C1538 0.929 . S
C1530 H1524 0.930 . S
C1530 C1531 1.367 . S
C1530 C1538 1.378 . S
C1531 C1530 1.367 . S
C1531 C1539 1.433 . S
C1532 H1528 0.929 . S
C1532 C1534 1.378 1_545 S
C1532 C1536 1.350 . S
C1533 C1536 1.463 . S
C1533 C1538 1.350 . S
C1533 N1541 1.427 . S
C1534 H1525 0.930 . S
C1534 C1532 1.378 1_565 S
C1534 C1535 1.367 . S
C1535 C1534 1.367 . S
C1535 C1537 1.433 1_565 S
C1536 C1532 1.350 . S
C1536 C1533 1.463 . S
C1536 N1540 1.427 . S
C1537 H1527 0.929 . S
C1537 C1535 1.433 1_545 S
C1537 N1540 1.384 . S
C1538 H1529 0.929 . S
C1538 C1530 1.378 . S
C1538 C1533 1.350 . S
C1539 H1526 0.929 . S
C1539 C1531 1.433 . S
C1539 N1541 1.384 . S
N1540 C1536 1.427 . S
N1540 C1537 1.384 . S
N1541 C1533 1.427 . S
N1541 C1539 1.384 . S
H1542 C1548 0.930 . S
H1543 C1552 0.930 . S
H1544 C1557 0.929 . S
H1545 C1555 0.929 . S
H1546 C1550 0.929 . S
H1547 C1556 0.929 . S
C1548 H1542 0.930 . S
C1548 C1549 1.367 . S
C1548 C1556 1.378 . S
C1549 C1548 1.367 . S
C1549 C1557 1.433 . S
C1550 H1546 0.929 . S
C1550 C1552 1.378 . S
C1550 C1554 1.350 1_655 S
C1551 C1554 1.463 . S
C1551 C1556 1.350 . S
C1551 N1559 1.427 . S
C1552 H1543 0.930 . S
C1552 C1550 1.378 . S
C1552 C1553 1.367 . S
C1553 C1552 1.367 . S
C1553 C1555 1.433 . S
C1554 C1550 1.350 1_455 S
C1554 C1551 1.463 . S
C1554 N1558 1.427 1_455 S
C1555 H1545 0.929 . S
C1555 C1553 1.433 . S
C1555 N1558 1.384 . S
C1556 H1547 0.929 . S
C1556 C1548 1.378 . S
C1556 C1551 1.350 . S
C1557 H1544 0.929 . S
C1557 C1549 1.433 . S
C1557 N1559 1.384 . S
N1558 C1554 1.427 1_655 S
N1558 C1555 1.384 . S
N1559 C1551 1.427 . S
N1559 C1557 1.384 . S
H1560 C1566 0.930 . S
H1561 C1570 0.930 . S
H1562 C1575 0.929 . S
H1563 C1573 0.929 . S
H1564 C1568 0.929 . S
H1565 C1574 0.929 . S
C1566 H1560 0.930 . S
C1566 C1567 1.367 1_545 S
C1566 C1574 1.378 . S
C1567 C1566 1.367 1_565 S
C1567 C1575 1.433 . S
C1568 H1564 0.929 . S
C1568 C1570 1.378 . S
C1568 C1572 1.350 . S
C1569 C1572 1.463 . S
C1569 C1574 1.350 . S
C1569 N1577 1.427 . S
C1570 H1561 0.930 . S
C1570 C1568 1.378 . S
C1570 C1571 1.367 . S
C1571 C1570 1.367 . S
C1571 C1573 1.433 . S
C1572 C1568 1.350 . S
C1572 C1569 1.463 . S
C1572 N1576 1.427 . S
C1573 H1563 0.929 . S
C1573 C1571 1.433 . S
C1573 N1576 1.384 . S
C1574 H1565 0.929 . S
C1574 C1566 1.378 . S
C1574 C1569 1.350 . S
C1575 H1562 0.929 . S
C1575 C1567 1.433 . S
C1575 N1577 1.384 1_565 S
N1576 C1572 1.427 . S
N1576 C1573 1.384 . S
N1577 C1569 1.427 . S
N1577 C1575 1.384 1_545 S
H1578 C1584 0.930 . S
H1579 C1588 0.930 . S
H1580 C1593 0.929 . S
H1581 C1591 0.929 . S
H1582 C1586 0.929 . S
H1583 C1592 0.929 . S
C1584 H1578 0.930 . S
C1584 C1585 1.367 . S
C1584 C1592 1.378 . S
C1585 C1584 1.367 . S
C1585 C1593 1.433 . S
C1586 H1582 0.929 . S
C1586 C1588 1.378 . S
C1586 C1590 1.350 . S
C1587 C1590 1.463 . S
C1587 C1592 1.350 1_455 S
C1587 N1595 1.427 . S
C1588 H1579 0.930 . S
C1588 C1586 1.378 . S
C1588 C1589 1.367 . S
C1589 C1588 1.367 . S
C1589 C1591 1.433 . S
C1590 C1586 1.350 . S
C1590 C1587 1.463 . S
C1590 N1594 1.427 . S
C1591 H1581 0.929 . S
C1591 C1589 1.433 . S
C1591 N1594 1.384 . S
C1592 H1583 0.929 . S
C1592 C1584 1.378 . S
C1592 C1587 1.350 1_655 S
C1593 H1580 0.929 . S
C1593 C1585 1.433 . S
C1593 N1595 1.384 1_655 S
N1594 C1590 1.427 . S
N1594 C1591 1.384 . S
N1595 C1587 1.427 . S
N1595 C1593 1.384 1_455 S
H1596 C1602 0.930 . S
H1597 C1606 0.930 . S
H1598 C1611 0.929 . S
H1599 C1609 0.929 . S
H1600 C1604 0.929 . S
H1601 C1610 0.929 . S
C1602 H1596 0.930 . S
C1602 C1603 1.367 . S
C1602 C1610 1.378 . S
C1603 C1602 1.367 . S
C1603 C1611 1.433 . S
C1604 H1600 0.929 . S
C1604 C1606 1.378 . S
C1604 C1608 1.350 1_545 S
C1605 C1608 1.463 . S
C1605 C1610 1.350 . S
C1605 N1613 1.427 . S
C1606 H1597 0.930 . S
C1606 C1604 1.378 . S
C1606 C1607 1.367 . S
C1607 C1606 1.367 . S
C1607 C1609 1.433 . S
C1608 C1604 1.350 1_565 S
C1608 C1605 1.463 . S
C1608 N1612 1.427 . S
C1609 H1599 0.929 . S
C1609 C1607 1.433 . S
C1609 N1612 1.384 1_545 S
C1610 H1601 0.929 . S
C1610 C1602 1.378 . S
C1610 C1605 1.350 . S
C1611 H1598 0.929 . S
C1611 C1603 1.433 . S
C1611 N1613 1.384 . S
N1612 C1608 1.427 . S
N1612 C1609 1.384 1_565 S
N1613 C1605 1.427 . S
N1613 C1611 1.384 . S
H1614 C1620 0.930 . S
H1615 C1624 0.930 . S
H1616 C1629 0.929 . S
H1617 C1627 0.929 . S
H1618 C1622 0.929 . S
H1619 C1628 0.929 . S
C1620 H1614 0.930 . S
C1620 C1621 1.367 . S
C1620 C1628 1.378 . S
C1621 C1620 1.367 . S
C1621 C1629 1.433 . S
C1622 H1618 0.929 . S
C1622 C1624 1.378 . S
C1622 C1626 1.350 . S
C1623 C1626 1.463 . S
C1623 C1628 1.350 1_655 S
C1623 N1631 1.427 . S
C1624 H1615 0.930 . S
C1624 C1622 1.378 . S
C1624 C1625 1.367 . S
C1625 C1624 1.367 . S
C1625 C1627 1.433 . S
C1626 C1622 1.350 . S
C1626 C1623 1.463 . S
C1626 N1630 1.427 . S
C1627 H1617 0.929 . S
C1627 C1625 1.433 . S
C1627 N1630 1.384 . S
C1628 H1619 0.929 . S
C1628 C1620 1.378 . S
C1628 C1623 1.350 1_455 S
C1629 H1616 0.929 . S
C1629 C1621 1.433 . S
C1629 N1631 1.384 1_455 S
N1630 C1626 1.427 . S
N1630 C1627 1.384 . S
N1631 C1623 1.427 . S
N1631 C1629 1.384 1_655 S
H1632 C1638 0.930 . S
H1633 C1642 0.930 . S
H1634 C1647 0.929 . S
H1635 C1645 0.929 . S
H1636 C1640 0.929 . S
H1637 C1646 0.929 . S
C1638 H1632 0.930 . S
C1638 C1639 1.367 . S
C1638 C1646 1.378 . S
C1639 C1638 1.367 . S
C1639 C1647 1.433 . S
C1640 H1636 0.929 . S
C1640 C1642 1.378 . S
C1640 C1644 1.350 1_554 S
C1641 C1644 1.463 . S
C1641 C1646 1.350 . S
C1641 N1649 1.427 . S
C1642 H1633 0.930 . S
C1642 C1640 1.378 . S
C1642 C1643 1.367 . S
C1643 C1642 1.367 . S
C1643 C1645 1.433 . S
C1644 C1640 1.350 1_556 S
C1644 C1641 1.463 . S
C1644 N1648 1.427 . S
C1645 H1635 0.929 . S
C1645 C1643 1.433 . S
C1645 N1648 1.384 1_554 S
C1646 H1637 0.929 . S
C1646 C1638 1.378 . S
C1646 C1641 1.350 . S
C1647 H1634 0.929 . S
C1647 C1639 1.433 . S
C1647 N1649 1.384 . S
N1648 C1644 1.427 . S
N1648 C1645 1.384 1_556 S
N1649 C1641 1.427 . S
N1649 C1647 1.384 . S
H1650 C1656 0.930 . S
H1651 C1660 0.930 . S
H1652 C1665 0.929 . S
H1653 C1663 0.929 . S
H1654 C1658 0.929 . S
H1655 C1664 0.929 . S
C1656 H1650 0.930 . S
C1656 C1657 1.367 . S
C1656 C1664 1.378 . S
C1657 C1656 1.367 . S
C1657 C1665 1.433 . S
C1658 H1654 0.929 . S
C1658 C1660 1.378 . S
C1658 C1662 1.350 1_556 S
C1659 C1662 1.463 . S
C1659 C1664 1.350 . S
C1659 N1667 1.427 . S
C1660 H1651 0.930 . S
C1660 C1658 1.378 . S
C1660 C1661 1.367 . S
C1661 C1660 1.367 . S
C1661 C1663 1.433 . S
C1662 C1658 1.350 1_554 S
C1662 C1659 1.463 . S
C1662 N1666 1.426 1_554 S
C1663 H1653 0.929 . S
C1663 C1661 1.433 . S
C1663 N1666 1.393 . S
C1664 H1655 0.929 . S
C1664 C1656 1.378 . S
C1664 C1659 1.350 . S
C1665 H1652 0.929 . S
C1665 C1657 1.433 . S
C1665 N1667 1.384 . S
N1666 C1662 1.426 1_556 S
N1666 C1663 1.393 . S
N1667 C1659 1.427 . S
N1667 C1665 1.384 . S
H1668 C1674 0.930 . S
H1669 C1678 0.930 . S
H1670 C1683 0.929 . S
H1671 C1681 0.929 . S
H1672 C1676 0.929 . S
H1673 C1682 0.929 . S
C1674 H1668 0.930 . S
C1674 C1675 1.367 . S
C1674 C1682 1.378 . S
C1675 C1674 1.367 . S
C1675 C1683 1.433 . S
C1676 H1672 0.929 . S
C1676 C1678 1.378 . S
C1676 C1680 1.350 . S
C1677 C1680 1.463 . S
C1677 C1682 1.350 . S
C1677 N1685 1.427 . S
C1678 H1669 0.930 . S
C1678 C1676 1.378 . S
C1678 C1679 1.367 1_556 S
C1679 C1678 1.367 1_554 S
C1679 C1681 1.433 . S
C1680 C1676 1.350 . S
C1680 C1677 1.463 . S
C1680 N1684 1.427 1_556 S
C1681 H1671 0.929 . S
C1681 C1679 1.433 . S
C1681 N1684 1.384 . S
C1682 H1673 0.929 . S
C1682 C1674 1.378 . S
C1682 C1677 1.350 . S
C1683 H1670 0.929 . S
C1683 C1675 1.433 . S
C1683 N1685 1.384 . S
N1684 C1680 1.427 1_554 S
N1684 C1681 1.384 . S
N1685 C1677 1.427 . S
N1685 C1683 1.384 . S
H1686 C1692 0.930 . S
H1687 C1696 0.930 . S
H1688 C1701 0.929 . S
H1689 C1699 0.929 . S
H1690 C1694 0.929 . S
H1691 C1700 0.929 . S
C1692 H1686 0.930 . S
C1692 C1693 1.367 . S
C1692 C1700 1.378 . S
C1693 C1692 1.367 . S
C1693 C1701 1.433 . S
C1694 H1690 0.929 . S
C1694 C1696 1.378 1_554 S
C1694 C1698 1.350 . S
C1695 C1698 1.463 . S
C1695 C1700 1.350 . S
C1695 N1703 1.427 . S
C1696 H1687 0.930 . S
C1696 C1694 1.378 1_556 S
C1696 C1697 1.367 . S
C1697 C1696 1.367 . S
C1697 C1699 1.433 . S
C1698 C1694 1.350 . S
C1698 C1695 1.463 . S
C1698 N1702 1.427 . S
C1699 H1689 0.929 . S
C1699 C1697 1.433 . S
C1699 N1702 1.384 1_556 S
C1700 H1691 0.929 . S
C1700 C1692 1.378 . S
C1700 C1695 1.350 . S
C1701 H1688 0.929 . S
C1701 C1693 1.433 . S
C1701 N1703 1.384 . S
N1702 C1698 1.427 . S
N1702 C1699 1.384 1_554 S
N1703 C1695 1.427 . S
N1703 C1701 1.384 . S
H1704 C1710 0.930 . S
H1705 C1714 0.930 . S
H1706 C1719 0.929 . S
H1707 C1717 0.929 . S
H1708 C1712 0.929 . S
H1709 C1718 0.929 . S
C1710 H1704 0.930 . S
C1710 C1711 1.367 . S
C1710 C1718 1.378 . S
C1711 C1710 1.367 . S
C1711 C1719 1.433 . S
C1712 H1708 0.929 . S
C1712 C1714 1.378 . S
C1712 C1716 1.350 . S
C1713 C1716 1.463 . S
C1713 C1718 1.350 . S
C1713 N1721 1.427 . S
C1714 H1705 0.930 . S
C1714 C1712 1.378 . S
C1714 C1715 1.367 . S
C1715 C1714 1.367 . S
C1715 C1717 1.433 . S
C1716 C1712 1.350 . S
C1716 C1713 1.463 . S
C1716 N1720 1.427 . S
C1717 H1707 0.929 . S
C1717 C1715 1.433 . S
C1717 N1720 1.384 . S
C1718 H1709 0.929 . S
C1718 C1710 1.378 . S
C1718 C1713 1.350 . S
C1719 H1706 0.929 . S
C1719 C1711 1.433 . S
C1719 N1721 1.384 . S
N1720 C1716 1.427 . S
N1720 C1717 1.384 . S
N1721 C1713 1.427 . S
N1721 C1719 1.384 . S
H1722 C1728 0.930 . S
H1723 C1732 0.930 . S
H1724 C1737 0.929 . S
H1725 C1735 0.929 . S
H1726 C1730 0.929 . S
H1727 C1736 0.929 . S
C1728 H1722 0.930 . S
C1728 C1729 1.367 . S
C1728 C1736 1.378 . S
C1729 C1728 1.367 . S
C1729 C1737 1.433 . S
C1730 H1726 0.929 . S
C1730 C1732 1.378 . S
C1730 C1734 1.350 . S
C1731 C1734 1.463 . S
C1731 C1736 1.350 . S
C1731 N1739 1.427 . S
C1732 H1723 0.930 . S
C1732 C1730 1.378 . S
C1732 C1733 1.367 . S
C1733 C1732 1.367 . S
C1733 C1735 1.433 . S
C1734 C1730 1.350 . S
C1734 C1731 1.463 . S
C1734 N1738 1.427 . S
C1735 H1725 0.929 . S
C1735 C1733 1.433 . S
C1735 N1738 1.384 . S
C1736 H1727 0.929 . S
C1736 C1728 1.378 . S
C1736 C1731 1.350 . S
C1737 H1724 0.929 . S
C1737 C1729 1.433 . S
C1737 N1739 1.384 . S
N1738 C1734 1.427 . S
N1738 C1735 1.384 . S
N1739 C1731 1.427 . S
N1739 C1737 1.384 . S
H1740 C1746 0.930 . S
H1741 C1750 0.930 . S
H1742 C1755 0.929 . S
H1743 C1753 0.929 . S
H1744 C1748 0.929 . S
H1745 C1754 0.929 . S
C1746 H1740 0.930 . S
C1746 C1747 1.367 . S
C1746 C1754 1.378 . S
C1747 C1746 1.367 . S
C1747 C1755 1.433 . S
C1748 H1744 0.929 . S
C1748 C1750 1.378 . S
C1748 C1752 1.350 . S
C1749 C1752 1.463 . S
C1749 C1754 1.350 . S
C1749 N1757 1.427 . S
C1750 H1741 0.930 . S
C1750 C1748 1.378 . S
C1750 C1751 1.367 . S
C1751 C1750 1.367 . S
C1751 C1753 1.433 . S
C1752 C1748 1.350 . S
C1752 C1749 1.463 . S
C1752 N1756 1.427 . S
C1753 H1743 0.929 . S
C1753 C1751 1.433 . S
C1753 N1756 1.384 . S
C1754 H1745 0.929 . S
C1754 C1746 1.378 . S
C1754 C1749 1.350 . S
C1755 H1742 0.929 . S
C1755 C1747 1.433 . S
C1755 N1757 1.384 . S
N1756 C1752 1.427 . S
N1756 C1753 1.384 . S
N1757 C1749 1.427 . S
N1757 C1755 1.384 . S
H1758 C1764 0.930 . S
H1759 C1768 0.930 . S
H1760 C1773 0.929 . S
H1761 C1771 0.929 . S
H1762 C1766 0.929 . S
H1763 C1772 0.929 . S
C1764 H1758 0.930 . S
C1764 C1765 1.367 . S
C1764 C1772 1.378 . S
C1765 C1764 1.367 . S
C1765 C1773 1.433 . S
C1766 H1762 0.929 . S
C1766 C1768 1.378 . S
C1766 C1770 1.350 . S
C1767 C1770 1.463 . S
C1767 C1772 1.350 . S
C1767 N1775 1.427 . S
C1768 H1759 0.930 . S
C1768 C1766 1.378 . S
C1768 C1769 1.367 . S
C1769 C1768 1.367 . S
C1769 C1771 1.433 . S
C1770 C1766 1.350 . S
C1770 C1767 1.463 . S
C1770 N1774 1.427 . S
C1771 H1761 0.929 . S
C1771 C1769 1.433 . S
C1771 N1774 1.384 . S
C1772 H1763 0.929 . S
C1772 C1764 1.378 . S
C1772 C1767 1.350 . S
C1773 H1760 0.929 . S
C1773 C1765 1.433 . S
C1773 N1775 1.384 . S
N1774 C1770 1.427 . S
N1774 C1771 1.384 . S
N1775 C1767 1.427 . S
N1775 C1773 1.384 . S
H1776 C1782 0.930 . S
H1777 C1786 0.930 . S
H1778 C1791 0.929 . S
H1779 C1789 0.929 . S
H1780 C1784 0.929 . S
H1781 C1790 0.929 . S
C1782 H1776 0.930 . S
C1782 C1783 1.367 . S
C1782 C1790 1.378 . S
C1783 C1782 1.367 . S
C1783 C1791 1.433 . S
C1784 H1780 0.929 . S
C1784 C1786 1.378 . S
C1784 C1788 1.350 . S
C1785 C1788 1.463 . S
C1785 C1790 1.350 . S
C1785 N1793 1.427 . S
C1786 H1777 0.930 . S
C1786 C1784 1.378 . S
C1786 C1787 1.367 . S
C1787 C1786 1.367 . S
C1787 C1789 1.433 . S
C1788 C1784 1.350 . S
C1788 C1785 1.463 . S
C1788 N1792 1.427 . S
C1789 H1779 0.929 . S
C1789 C1787 1.433 . S
C1789 N1792 1.384 . S
C1790 H1781 0.929 . S
C1790 C1782 1.378 . S
C1790 C1785 1.350 . S
C1791 H1778 0.929 . S
C1791 C1783 1.433 . S
C1791 N1793 1.384 . S
N1792 C1788 1.427 . S
N1792 C1789 1.384 . S
N1793 C1785 1.427 . S
N1793 C1791 1.384 . S
H1794 C1800 0.930 . S
H1795 C1804 0.930 . S
H1796 C1809 0.929 . S
H1797 C1807 0.929 . S
H1798 C1802 0.929 . S
H1799 C1808 0.929 . S
C1800 H1794 0.930 . S
C1800 C1801 1.367 . S
C1800 C1808 1.378 . S
C1801 C1800 1.367 . S
C1801 C1809 1.433 . S
C1802 H1798 0.929 . S
C1802 C1804 1.378 . S
C1802 C1806 1.350 . S
C1803 C1806 1.463 . S
C1803 C1808 1.350 . S
C1803 N1811 1.427 . S
C1804 H1795 0.930 . S
C1804 C1802 1.378 . S
C1804 C1805 1.367 . S
C1805 C1804 1.367 . S
C1805 C1807 1.433 . S
C1806 C1802 1.350 . S
C1806 C1803 1.463 . S
C1806 N1810 1.427 . S
C1807 H1797 0.929 . S
C1807 C1805 1.433 . S
C1807 N1810 1.384 . S
C1808 H1799 0.929 . S
C1808 C1800 1.378 . S
C1808 C1803 1.350 . S
C1809 H1796 0.929 . S
C1809 C1801 1.433 . S
C1809 N1811 1.384 . S
N1810 C1806 1.427 . S
N1810 C1807 1.384 . S
N1811 C1803 1.427 . S
N1811 C1809 1.384 . S
H1812 C1818 0.930 . S
H1813 C1822 0.930 . S
H1814 C1827 0.929 . S
H1815 C1825 0.929 . S
H1816 C1820 0.929 . S
H1817 C1826 0.929 . S
C1818 H1812 0.930 . S
C1818 C1819 1.367 . S
C1818 C1826 1.378 . S
C1819 C1818 1.367 . S
C1819 C1827 1.433 . S
C1820 H1816 0.929 . S
C1820 C1822 1.378 . S
C1820 C1824 1.350 . S
C1821 C1824 1.463 . S
C1821 C1826 1.350 . S
C1821 N1829 1.427 . S
C1822 H1813 0.930 . S
C1822 C1820 1.378 . S
C1822 C1823 1.367 . S
C1823 C1822 1.367 . S
C1823 C1825 1.433 . S
C1824 C1820 1.350 . S
C1824 C1821 1.463 . S
C1824 N1828 1.427 . S
C1825 H1815 0.929 . S
C1825 C1823 1.433 . S
C1825 N1828 1.384 . S
C1826 H1817 0.929 . S
C1826 C1818 1.378 . S
C1826 C1821 1.350 . S
C1827 H1814 0.929 . S
C1827 C1819 1.433 . S
C1827 N1829 1.384 . S
N1828 C1824 1.427 . S
N1828 C1825 1.384 . S
N1829 C1821 1.427 . S
N1829 C1827 1.384 . S
H1830 C1836 0.930 . S
H1831 C1840 0.930 . S
H1832 C1845 0.929 . S
H1833 C1843 0.929 . S
H1834 C1838 0.929 . S
H1835 C1844 0.929 . S
C1836 H1830 0.930 . S
C1836 C1837 1.367 . S
C1836 C1844 1.378 . S
C1837 C1836 1.367 . S
C1837 C1845 1.433 . S
C1838 H1834 0.929 . S
C1838 C1840 1.378 . S
C1838 C1842 1.350 . S
C1839 C1842 1.463 . S
C1839 C1844 1.350 . S
C1839 N1847 1.427 . S
C1840 H1831 0.930 . S
C1840 C1838 1.378 . S
C1840 C1841 1.367 . S
C1841 C1840 1.367 . S
C1841 C1843 1.433 . S
C1842 C1838 1.350 . S
C1842 C1839 1.463 . S
C1842 N1846 1.427 . S
C1843 H1833 0.929 . S
C1843 C1841 1.433 . S
C1843 N1846 1.384 . S
C1844 H1835 0.929 . S
C1844 C1836 1.378 . S
C1844 C1839 1.350 . S
C1845 H1832 0.929 . S
C1845 C1837 1.433 . S
C1845 N1847 1.384 . S
N1846 C1842 1.427 . S
N1846 C1843 1.384 . S
N1847 C1839 1.427 . S
N1847 C1845 1.384 . S
H1848 C1854 0.930 . S
H1849 C1858 0.930 . S
H1850 C1863 0.929 . S
H1851 C1861 0.929 . S
H1852 C1856 0.929 . S
H1853 C1862 0.929 . S
C1854 H1848 0.930 . S
C1854 C1855 1.367 . S
C1854 C1862 1.378 . S
C1855 C1854 1.367 . S
C1855 C1863 1.433 . S
C1856 H1852 0.929 . S
C1856 C1858 1.378 . S
C1856 C1860 1.350 . S
C1857 C1860 1.463 . S
C1857 C1862 1.350 . S
C1857 N1865 1.427 . S
C1858 H1849 0.930 . S
C1858 C1856 1.378 . S
C1858 C1859 1.367 . S
C1859 C1858 1.367 . S
C1859 C1861 1.433 . S
C1860 C1856 1.350 . S
C1860 C1857 1.463 . S
C1860 N1864 1.427 . S
C1861 H1851 0.929 . S
C1861 C1859 1.433 . S
C1861 N1864 1.384 . S
C1862 H1853 0.929 . S
C1862 C1854 1.378 . S
C1862 C1857 1.350 . S
C1863 H1850 0.929 . S
C1863 C1855 1.433 . S
C1863 N1865 1.384 . S
N1864 C1860 1.427 . S
N1864 C1861 1.384 . S
N1865 C1857 1.427 . S
N1865 C1863 1.384 . S
H1866 C1872 0.930 . S
H1867 C1876 0.930 . S
H1868 C1881 0.929 . S
H1869 C1879 0.929 . S
H1870 C1874 0.929 . S
H1871 C1880 0.929 . S
C1872 H1866 0.930 . S
C1872 C1873 1.367 . S
C1872 C1880 1.378 . S
C1873 C1872 1.367 . S
C1873 C1881 1.433 . S
C1874 H1870 0.929 . S
C1874 C1876 1.378 . S
C1874 C1878 1.350 . S
C1875 C1878 1.463 . S
C1875 C1880 1.350 . S
C1875 N1883 1.427 . S
C1876 H1867 0.930 . S
C1876 C1874 1.378 . S
C1876 C1877 1.367 . S
C1877 C1876 1.367 . S
C1877 C1879 1.433 . S
C1878 C1874 1.350 . S
C1878 C1875 1.463 . S
C1878 N1882 1.427 . S
C1879 H1869 0.929 . S
C1879 C1877 1.433 . S
C1879 N1882 1.384 . S
C1880 H1871 0.929 . S
C1880 C1872 1.378 . S
C1880 C1875 1.350 . S
C1881 H1868 0.929 . S
C1881 C1873 1.433 . S
C1881 N1883 1.384 . S
N1882 C1878 1.427 . S
N1882 C1879 1.384 . S
N1883 C1875 1.427 . S
N1883 C1881 1.384 . S
H1884 C1890 0.930 . S
H1885 C1894 0.930 . S
H1886 C1899 0.929 . S
H1887 C1897 0.929 . S
H1888 C1892 0.929 . S
H1889 C1898 0.929 . S
C1890 H1884 0.930 . S
C1890 C1891 1.367 . S
C1890 C1898 1.378 . S
C1891 C1890 1.367 . S
C1891 C1899 1.433 . S
C1892 H1888 0.929 . S
C1892 C1894 1.378 . S
C1892 C1896 1.350 . S
C1893 C1896 1.463 . S
C1893 C1898 1.350 . S
C1893 N1901 1.427 . S
C1894 H1885 0.930 . S
C1894 C1892 1.378 . S
C1894 C1895 1.367 . S
C1895 C1894 1.367 . S
C1895 C1897 1.433 . S
C1896 C1892 1.350 . S
C1896 C1893 1.463 . S
C1896 N1900 1.427 . S
C1897 H1887 0.929 . S
C1897 C1895 1.433 . S
C1897 N1900 1.384 . S
C1898 H1889 0.929 . S
C1898 C1890 1.378 . S
C1898 C1893 1.350 . S
C1899 H1886 0.929 . S
C1899 C1891 1.433 . S
C1899 N1901 1.384 . S
N1900 C1896 1.427 . S
N1900 C1897 1.384 . S
N1901 C1893 1.427 . S
N1901 C1899 1.384 . S
H1902 C1908 0.930 . S
H1903 C1912 0.930 . S
H1904 C1917 0.929 . S
H1905 C1915 0.929 . S
H1906 C1910 0.929 . S
H1907 C1916 0.929 . S
C1908 H1902 0.930 . S
C1908 C1909 1.367 . S
C1908 C1916 1.378 . S
C1909 C1908 1.367 . S
C1909 C1917 1.433 . S
C1910 H1906 0.929 . S
C1910 C1912 1.378 . S
C1910 C1914 1.350 . S
C1911 C1914 1.463 . S
C1911 C1916 1.350 . S
C1911 N1919 1.427 . S
C1912 H1903 0.930 . S
C1912 C1910 1.378 . S
C1912 C1913 1.367 . S
C1913 C1912 1.367 . S
C1913 C1915 1.433 . S
C1914 C1910 1.350 . S
C1914 C1911 1.463 . S
C1914 N1918 1.427 . S
C1915 H1905 0.929 . S
C1915 C1913 1.433 . S
C1915 N1918 1.384 . S
C1916 H1907 0.929 . S
C1916 C1908 1.378 . S
C1916 C1911 1.350 . S
C1917 H1904 0.929 . S
C1917 C1909 1.433 . S
C1917 N1919 1.384 . S
N1918 C1914 1.427 . S
N1918 C1915 1.384 . S
N1919 C1911 1.427 . S
N1919 C1917 1.384 . S
H1920 C1926 0.930 . S
H1921 C1930 0.930 . S
H1922 C1935 0.929 . S
H1923 C1933 0.929 . S
H1924 C1928 0.929 . S
H1925 C1934 0.929 . S
C1926 H1920 0.930 . S
C1926 C1927 1.367 . S
C1926 C1934 1.378 . S
C1927 C1926 1.367 . S
C1927 C1935 1.433 . S
C1928 H1924 0.929 . S
C1928 C1930 1.378 . S
C1928 C1932 1.350 . S
C1929 C1932 1.463 . S
C1929 C1934 1.350 . S
C1929 N1937 1.427 . S
C1930 H1921 0.930 . S
C1930 C1928 1.378 . S
C1930 C1931 1.367 . S
C1931 C1930 1.367 . S
C1931 C1933 1.433 . S
C1932 C1928 1.350 . S
C1932 C1929 1.463 . S
C1932 N1936 1.427 . S
C1933 H1923 0.929 . S
C1933 C1931 1.433 . S
C1933 N1936 1.384 . S
C1934 H1925 0.929 . S
C1934 C1926 1.378 . S
C1934 C1929 1.350 . S
C1935 H1922 0.929 . S
C1935 C1927 1.433 . S
C1935 N1937 1.384 . S
N1936 C1932 1.427 . S
N1936 C1933 1.384 . S
N1937 C1929 1.427 . S
N1937 C1935 1.384 . S
H1938 C1944 0.930 . S
H1939 C1948 0.930 . S
H1940 C1953 0.929 . S
H1941 C1951 0.929 . S
H1942 C1946 0.929 . S
H1943 C1952 0.929 . S
C1944 H1938 0.930 . S
C1944 C1945 1.367 . S
C1944 C1952 1.378 . S
C1945 C1944 1.367 . S
C1945 C1953 1.433 . S
C1946 H1942 0.929 . S
C1946 C1948 1.378 . S
C1946 C1950 1.350 . S
C1947 C1950 1.463 . S
C1947 C1952 1.350 . S
C1947 N1955 1.427 . S
C1948 H1939 0.930 . S
C1948 C1946 1.378 . S
C1948 C1949 1.367 . S
C1949 C1948 1.367 . S
C1949 C1951 1.433 . S
C1950 C1946 1.350 . S
C1950 C1947 1.463 . S
C1950 N1954 1.427 . S
C1951 H1941 0.929 . S
C1951 C1949 1.433 . S
C1951 N1954 1.384 . S
C1952 H1943 0.929 . S
C1952 C1944 1.378 . S
C1952 C1947 1.350 . S
C1953 H1940 0.929 . S
C1953 C1945 1.433 . S
C1953 N1955 1.384 . S
N1954 C1950 1.427 . S
N1954 C1951 1.384 . S
N1955 C1947 1.427 . S
N1955 C1953 1.384 . S
H1956 C1962 0.930 . S
H1957 C1966 0.930 . S
H1958 C1971 0.929 . S
H1959 C1969 0.929 . S
H1960 C1964 0.929 . S
H1961 C1970 0.929 . S
C1962 H1956 0.930 . S
C1962 C1963 1.367 . S
C1962 C1970 1.378 . S
C1963 C1962 1.367 . S
C1963 C1971 1.433 . S
C1964 H1960 0.929 . S
C1964 C1966 1.378 . S
C1964 C1968 1.350 . S
C1965 C1968 1.463 . S
C1965 C1970 1.350 . S
C1965 N1973 1.427 . S
C1966 H1957 0.930 . S
C1966 C1964 1.378 . S
C1966 C1967 1.367 . S
C1967 C1966 1.367 . S
C1967 C1969 1.433 . S
C1968 C1964 1.350 . S
C1968 C1965 1.463 . S
C1968 N1972 1.427 . S
C1969 H1959 0.929 . S
C1969 C1967 1.433 . S
C1969 N1972 1.384 . S
C1970 H1961 0.929 . S
C1970 C1962 1.378 . S
C1970 C1965 1.350 . S
C1971 H1958 0.929 . S
C1971 C1963 1.433 . S
C1971 N1973 1.384 . S
N1972 C1968 1.427 . S
N1972 C1969 1.384 . S
N1973 C1965 1.427 . S
N1973 C1971 1.384 . S
H1974 C1980 0.930 . S
H1975 C1984 0.930 . S
H1976 C1989 0.929 . S
H1977 C1987 0.929 . S
H1978 C1982 0.929 . S
H1979 C1988 0.929 . S
C1980 H1974 0.930 . S
C1980 C1981 1.367 . S
C1980 C1988 1.378 . S
C1981 C1980 1.367 . S
C1981 C1989 1.433 . S
C1982 H1978 0.929 . S
C1982 C1984 1.378 . S
C1982 C1986 1.350 . S
C1983 C1986 1.463 . S
C1983 C1988 1.350 . S
C1983 N1991 1.427 . S
C1984 H1975 0.930 . S
C1984 C1982 1.378 . S
C1984 C1985 1.367 . S
C1985 C1984 1.367 . S
C1985 C1987 1.433 . S
C1986 C1982 1.350 . S
C1986 C1983 1.463 . S
C1986 N1990 1.427 . S
C1987 H1977 0.929 . S
C1987 C1985 1.433 . S
C1987 N1990 1.384 . S
C1988 H1979 0.929 . S
C1988 C1980 1.378 . S
C1988 C1983 1.350 . S
C1989 H1976 0.929 . S
C1989 C1981 1.433 . S
C1989 N1991 1.384 . S
N1990 C1986 1.427 . S
N1990 C1987 1.384 . S
N1991 C1983 1.427 . S
N1991 C1989 1.384 . S
H1992 C1998 0.930 . S
H1993 C2002 0.930 . S
H1994 C2007 0.929 . S
H1995 C2005 0.929 . S
H1996 C2000 0.929 . S
H1997 C2006 0.929 . S
C1998 H1992 0.930 . S
C1998 C1999 1.367 . S
C1998 C2006 1.378 . S
C1999 C1998 1.367 . S
C1999 C2007 1.433 . S
C2000 H1996 0.929 . S
C2000 C2002 1.378 . S
C2000 C2004 1.350 . S
C2001 C2004 1.463 . S
C2001 C2006 1.350 . S
C2001 N2009 1.427 . S
C2002 H1993 0.930 . S
C2002 C2000 1.378 . S
C2002 C2003 1.367 . S
C2003 C2002 1.367 . S
C2003 C2005 1.433 . S
C2004 C2000 1.350 . S
C2004 C2001 1.463 . S
C2004 N2008 1.427 . S
C2005 H1995 0.929 . S
C2005 C2003 1.433 . S
C2005 N2008 1.384 . S
C2006 H1997 0.929 . S
C2006 C1998 1.378 . S
C2006 C2001 1.350 . S
C2007 H1994 0.929 . S
C2007 C1999 1.433 . S
C2007 N2009 1.384 . S
N2008 C2004 1.427 . S
N2008 C2005 1.384 . S
N2009 C2001 1.427 . S
N2009 C2007 1.384 . S
H2010 C2016 0.930 . S
H2011 C2020 0.930 . S
H2012 C2025 0.929 . S
H2013 C2023 0.929 . S
H2014 C2018 0.929 . S
H2015 C2024 0.929 . S
C2016 H2010 0.930 . S
C2016 C2017 1.367 . S
C2016 C2024 1.378 . S
C2017 C2016 1.367 . S
C2017 C2025 1.433 . S
C2018 H2014 0.929 . S
C2018 C2020 1.378 . S
C2018 C2022 1.350 . S
C2019 C2022 1.463 . S
C2019 C2024 1.350 . S
C2019 N2027 1.427 . S
C2020 H2011 0.930 . S
C2020 C2018 1.378 . S
C2020 C2021 1.367 . S
C2021 C2020 1.367 . S
C2021 C2023 1.433 . S
C2022 C2018 1.350 . S
C2022 C2019 1.463 . S
C2022 N2026 1.427 . S
C2023 H2013 0.929 . S
C2023 C2021 1.433 . S
C2023 N2026 1.384 . S
C2024 H2015 0.929 . S
C2024 C2016 1.378 . S
C2024 C2019 1.350 . S
C2025 H2012 0.929 . S
C2025 C2017 1.433 . S
C2025 N2027 1.384 . S
N2026 C2022 1.427 . S
N2026 C2023 1.384 . S
N2027 C2019 1.427 . S
N2027 C2025 1.384 . S
H2028 C2034 0.930 . S
H2029 C2038 0.930 . S
H2030 C2043 0.929 . S
H2031 C2041 0.929 . S
H2032 C2036 0.929 . S
H2033 C2042 0.929 . S
C2034 H2028 0.930 . S
C2034 C2035 1.367 . S
C2034 C2042 1.378 . S
C2035 C2034 1.367 . S
C2035 C2043 1.433 . S
C2036 H2032 0.929 . S
C2036 C2038 1.378 . S
C2036 C2040 1.350 . S
C2037 C2040 1.463 . S
C2037 C2042 1.350 . S
C2037 N2045 1.427 . S
C2038 H2029 0.930 . S
C2038 C2036 1.378 . S
C2038 C2039 1.367 . S
C2039 C2038 1.367 . S
C2039 C2041 1.433 . S
C2040 C2036 1.350 . S
C2040 C2037 1.463 . S
C2040 N2044 1.427 . S
C2041 H2031 0.929 . S
C2041 C2039 1.433 . S
C2041 N2044 1.384 . S
C2042 H2033 0.929 . S
C2042 C2034 1.378 . S
C2042 C2037 1.350 . S
C2043 H2030 0.929 . S
C2043 C2035 1.433 . S
C2043 N2045 1.384 . S
N2044 C2040 1.427 . S
N2044 C2041 1.384 . S
N2045 C2037 1.427 . S
N2045 C2043 1.384 . S
H2046 C2052 0.930 . S
H2047 C2056 0.930 . S
H2048 C2061 0.929 . S
H2049 C2059 0.929 . S
H2050 C2054 0.929 . S
H2051 C2060 0.929 . S
C2052 H2046 0.930 . S
C2052 C2053 1.367 . S
C2052 C2060 1.378 . S
C2053 C2052 1.367 . S
C2053 C2061 1.433 . S
C2054 H2050 0.929 . S
C2054 C2056 1.378 . S
C2054 C2058 1.350 . S
C2055 C2058 1.463 . S
C2055 C2060 1.350 . S
C2055 N2063 1.427 . S
C2056 H2047 0.930 . S
C2056 C2054 1.378 . S
C2056 C2057 1.367 . S
C2057 C2056 1.367 . S
C2057 C2059 1.433 . S
C2058 C2054 1.350 . S
C2058 C2055 1.463 . S
C2058 N2062 1.427 . S
C2059 H2049 0.929 . S
C2059 C2057 1.433 . S
C2059 N2062 1.384 . S
C2060 H2051 0.929 . S
C2060 C2052 1.378 . S
C2060 C2055 1.350 . S
C2061 H2048 0.929 . S
C2061 C2053 1.433 . S
C2061 N2063 1.384 . S
N2062 C2058 1.427 . S
N2062 C2059 1.384 . S
N2063 C2055 1.427 . S
N2063 C2061 1.384 . S
H2064 C2070 0.930 . S
H2065 C2074 0.930 . S
H2066 C2079 0.929 . S
H2067 C2077 0.929 . S
H2068 C2072 0.929 . S
H2069 C2078 0.929 . S
C2070 H2064 0.930 . S
C2070 C2071 1.367 . S
C2070 C2078 1.378 . S
C2071 C2070 1.367 . S
C2071 C2079 1.433 . S
C2072 H2068 0.929 . S
C2072 C2074 1.378 . S
C2072 C2076 1.350 . S
C2073 C2076 1.463 . S
C2073 C2078 1.350 . S
C2073 N2081 1.427 . S
C2074 H2065 0.930 . S
C2074 C2072 1.378 . S
C2074 C2075 1.367 . S
C2075 C2074 1.367 . S
C2075 C2077 1.433 . S
C2076 C2072 1.350 . S
C2076 C2073 1.463 . S
C2076 N2080 1.427 . S
C2077 H2067 0.929 . S
C2077 C2075 1.433 . S
C2077 N2080 1.384 . S
C2078 H2069 0.929 . S
C2078 C2070 1.378 . S
C2078 C2073 1.350 . S
C2079 H2066 0.929 . S
C2079 C2071 1.433 . S
C2079 N2081 1.384 . S
N2080 C2076 1.427 . S
N2080 C2077 1.384 . S
N2081 C2073 1.427 . S
N2081 C2079 1.384 . S
H2082 C2088 0.930 . S
H2083 C2092 0.930 . S
H2084 C2097 0.929 . S
H2085 C2095 0.929 . S
H2086 C2090 0.929 . S
H2087 C2096 0.929 . S
C2088 H2082 0.930 . S
C2088 C2089 1.367 . S
C2088 C2096 1.378 . S
C2089 C2088 1.367 . S
C2089 C2097 1.433 . S
C2090 H2086 0.929 . S
C2090 C2092 1.378 . S
C2090 C2094 1.350 . S
C2091 C2094 1.463 . S
C2091 C2096 1.350 . S
C2091 N2099 1.427 . S
C2092 H2083 0.930 . S
C2092 C2090 1.378 . S
C2092 C2093 1.367 . S
C2093 C2092 1.367 . S
C2093 C2095 1.433 . S
C2094 C2090 1.350 . S
C2094 C2091 1.463 . S
C2094 N2098 1.427 . S
C2095 H2085 0.929 . S
C2095 C2093 1.433 . S
C2095 N2098 1.384 . S
C2096 H2087 0.929 . S
C2096 C2088 1.378 . S
C2096 C2091 1.350 . S
C2097 H2084 0.929 . S
C2097 C2089 1.433 . S
C2097 N2099 1.384 . S
N2098 C2094 1.427 . S
N2098 C2095 1.384 . S
N2099 C2091 1.427 . S
N2099 C2097 1.384 . S
H2100 C2106 0.930 . S
H2101 C2110 0.930 . S
H2102 C2115 0.929 . S
H2103 C2113 0.929 . S
H2104 C2108 0.929 . S
H2105 C2114 0.929 . S
C2106 H2100 0.930 . S
C2106 C2107 1.367 . S
C2106 C2114 1.378 . S
C2107 C2106 1.367 . S
C2107 C2115 1.433 . S
C2108 H2104 0.929 . S
C2108 C2110 1.378 . S
C2108 C2112 1.350 . S
C2109 C2112 1.463 . S
C2109 C2114 1.350 . S
C2109 N2117 1.427 . S
C2110 H2101 0.930 . S
C2110 C2108 1.378 . S
C2110 C2111 1.367 . S
C2111 C2110 1.367 . S
C2111 C2113 1.433 . S
C2112 C2108 1.350 . S
C2112 C2109 1.463 . S
C2112 N2116 1.427 . S
C2113 H2103 0.929 . S
C2113 C2111 1.433 . S
C2113 N2116 1.384 . S
C2114 H2105 0.929 . S
C2114 C2106 1.378 . S
C2114 C2109 1.350 . S
C2115 H2102 0.929 . S
C2115 C2107 1.433 . S
C2115 N2117 1.384 . S
N2116 C2112 1.427 . S
N2116 C2113 1.384 . S
N2117 C2109 1.427 . S
N2117 C2115 1.384 . S
H2118 C2124 0.930 . S
H2119 C2128 0.930 . S
H2120 C2133 0.929 . S
H2121 C2131 0.929 . S
H2122 C2126 0.929 . S
H2123 C2132 0.929 . S
C2124 H2118 0.930 . S
C2124 C2125 1.367 . S
C2124 C2132 1.378 . S
C2125 C2124 1.367 . S
C2125 C2133 1.433 . S
C2126 H2122 0.929 . S
C2126 C2128 1.378 . S
C2126 C2130 1.350 . S
C2127 C2130 1.463 . S
C2127 C2132 1.350 . S
C2127 N2135 1.427 . S
C2128 H2119 0.930 . S
C2128 C2126 1.378 . S
C2128 C2129 1.367 . S
C2129 C2128 1.367 . S
C2129 C2131 1.433 . S
C2130 C2126 1.350 . S
C2130 C2127 1.463 . S
C2130 N2134 1.427 . S
C2131 H2121 0.929 . S
C2131 C2129 1.433 . S
C2131 N2134 1.384 . S
C2132 H2123 0.929 . S
C2132 C2124 1.378 . S
C2132 C2127 1.350 . S
C2133 H2120 0.929 . S
C2133 C2125 1.433 . S
C2133 N2135 1.384 . S
N2134 C2130 1.427 . S
N2134 C2131 1.384 . S
N2135 C2127 1.427 . S
N2135 C2133 1.384 . S
C1279 C1204 2.444 . S
C1283 C38 2.362 . S
C1297 C75 2.333 . S
C1301 C870 2.223 . S
C1315 C1257 2.225 . S
C1319 C144 2.127 . S
C1333 C1135 2.212 . S
C1337 C181 2.283 . S
C1351 C992 2.218 . S
C1355 C250 2.126 . S
C1369 C1029 2.230 . S
C1373 C287 2.336 . S
C1387 C1098 2.443 . S
C1391 C356 2.353 . S
C1405 C393 2.285 . S
C1409 C923 2.211 . S
C1423 C727 2.238 . S
C1427 C446 2.171 . S
C1441 C764 2.170 . S
C1445 C515 2.230 . S
C1459 C568 2.225 . S
C1463 C833 2.268 . S
C1477 C621 2.267 . S
C1481 C674 2.228 . S
C1495 C409 2.286 . S
C1499 C780 2.380 . S
C1513 C817 2.318 . S
C1517 C234 2.388 . S
C1531 C303 2.103 . S
C1535 C658 2.177 . S
C1549 C711 2.273 . S
C1553 C340 2.364 . S
C1567 C552 2.176 . S
C1571 C91 2.114 . S
C1585 C128 2.385 . S
C1589 C605 2.314 . S
C1603 C197 2.286 . S
C1607 C462 2.381 . S
C1621 C22 2.360 . S
C1625 C499 2.276 . S
C1639 C1082 2.220 . S
C1643 C1151 2.283 . S
C1657 C1188 2.217 . S
C1661 C939 2.286 . S
C1675 C976 2.149 . S
C1679 C886 2.216 . S
C1693 C1241 2.148 . S
C1697 C1045 2.211 . S
C1711 C39 1.884 . S
C1715 C463 1.950 . S
C1729 C506 1.313 . S
C1733 C82 1.346 . S
C1747 C145 1.512 . S
C1751 C559 1.556 . S
C1765 C188 1.470 . S
C1769 C612 1.421 . S
C1783 C251 1.503 . S
C1787 C665 1.542 . S
C1801 C294 1.329 . S
C1805 C718 1.312 . S
C1819 C781 1.954 . S
C1823 C357 1.897 . S
C1837 C824 1.412 . S
C1841 C400 1.458 . S
C1855 C453 1.646 . S
C1859 C887 1.643 . S
C1873 C516 1.646 . S
C1877 C1248 1.642 . S
C1891 C1152 1.952 . S
C1895 C569 1.969 . S
C1909 C1195 1.655 . S
C1913 C622 1.647 . S
C1927 C940 1.963 . S
C1931 C675 1.974 . S
C1945 C983 1.642 . S
C1949 C728 1.641 . S
C1963 C771 1.661 . S
C1967 C1046 1.653 . S
C1981 C834 1.657 . S
C1985 C1089 1.643 . S
C1999 C29 1.446 . S
C2003 C877 1.415 . S
C2017 C930 1.440 . S
C2021 C241 1.439 . S
C2035 C993 1.969 . S
C2039 C304 1.890 . S
C2053 C1036 1.410 . S
C2057 C347 1.449 . S
C2071 C1099 2.000 . S
C2075 C410 1.933 . S
C2089 C1142 1.446 . S
C2093 C135 1.427 . S
C2107 C198 1.940 . S
C2111 C1205 1.992 . S
C2125 C1258 1.975 . S
C2129 C92 1.897 . S
