# Generated by pormake.
# Topology rob, (6)-cn, num edge types: 1
# Building blocks:
#     Node 0, Type 0, BuildingBlock: HISSIN_clean_sbu_0, # of connection points: 6
#     Node 1, Type 0, BuildingBlock: HISSIN_clean_sbu_0, # of connection points: 6
#     Node 2, Type 0, BuildingBlock: HISSIN_clean_sbu_0, # of connection points: 6
#     Node 3, Type 0, BuildingBlock: HISSIN_clean_sbu_0, # of connection points: 6
#     Edge 4, Type (0, 0), BuildingBlock: ZUJKAS_clean_linker_0, # of connection points: 2
#     Edge 5, Type (0, 0), BuildingBlock: ZUJKAS_clean_linker_0, # of connection points: 2
#     Edge 6, Type (0, 0), BuildingBlock: ZUJKAS_clean_linker_0, # of connection points: 2
#     Edge 7, Type (0, 0), BuildingBlock: ZUJKAS_clean_linker_0, # of connection points: 2
#     Edge 8, Type (0, 0), BuildingBlock: ZUJKAS_clean_linker_0, # of connection points: 2
#     Edge 9, Type (0, 0), BuildingBlock: ZUJKAS_clean_linker_0, # of connection points: 2
#     Edge 10, Type (0, 0), BuildingBlock: ZUJKAS_clean_linker_0, # of connection points: 2
#     Edge 11, Type (0, 0), BuildingBlock: ZUJKAS_clean_linker_0, # of connection points: 2
#     Edge 12, Type (0, 0), BuildingBlock: ZUJKAS_clean_linker_0, # of connection points: 2
#     Edge 13, Type (0, 0), BuildingBlock: ZUJKAS_clean_linker_0, # of connection points: 2
#     Edge 14, Type (0, 0), BuildingBlock: ZUJKAS_clean_linker_0, # of connection points: 2
#     Edge 15, Type (0, 0), BuildingBlock: ZUJKAS_clean_linker_0, # of connection points: 2
# Relax obj value: 0.030
# Max RMSD: 0.124
# Mean RMSD: 0.124
data_MOF--net-rob--node1-HISSIN_clean_sbu_0--edge1-ZUJKAS_clean_linker_0
_symmetry_space_group_name_H-M    P1
_symmetry_Int_Tables_number       1
_symmetry_cell_setting            triclinic
loop_
_symmetry_equiv_pos_as_xyz
'x, y, z'
_cell_length_a     19.535266
_cell_length_b     34.329875
_cell_length_c     44.685976
_cell_angle_alpha  94.85603
_cell_angle_beta   90.064732
_cell_angle_gamma 89.865364
loop_
_atom_site_label
_atom_site_type_symbol
_atom_site_fract_x
_atom_site_fract_y
_atom_site_fract_z
_atom_type_partial_charge
Eu0 Eu 0.18991 0.2677 0.03708 0.0
Eu1 Eu 0.32255 0.22611 1.00095 0.0
C2 C 0.19097 0.17725 0.01677 0.0
C3 C 0.06534 0.29583 0.10007 0.0
C4 C 0.07378 0.26069 0.1136 0.0
C5 C 0.01794 0.32586 0.14672 0.0
C6 C 0.0541 0.25809 0.14345 0.0
C7 C 0.03716 0.32831 0.1168 0.0
C8 C 0.02636 0.29074 0.16051 0.0
C9 C 0.09008 0.29976 0.06936 0.0
O10 O 0.26514 0.25842 0.967 0.0
O11 O 0.15803 0.26209 0.98829 0.0
C12 C 0.19863 0.26335 0.96492 0.0
O13 O 0.2532 0.31556 0.01976 0.0
O14 O 0.37104 0.17584 0.97585 0.0
O15 O 0.42487 0.2308 0.98227 0.0
O16 O 0.35577 0.28448 0.02281 0.0
C17 C 0.32008 0.31675 0.02195 0.0
O18 O 0.26838 0.25674 0.07236 0.0
O19 O 0.33594 0.20879 0.04819 0.0
O20 O 0.23309 0.18487 0.99521 0.0
O21 O 0.15046 0.31548 0.06758 0.0
O22 O 0.08204 0.26955 0.04987 0.0
O23 O 0.18025 0.20291 0.0397 0.0
C24 C 0.4367 0.19485 0.93532 0.0
C25 C 0.41197 0.22456 0.9184 0.0
C26 C 0.48621 0.16233 0.88995 0.0
C27 C 0.42462 0.22334 0.88759 0.0
C28 C 0.47357 0.16363 0.92088 0.0
C29 C 0.46221 0.19233 0.873 0.0
C30 C 0.42306 0.19622 0.96781 0.0
C31 C 0.31457 0.22886 0.07284 0.0
H32 H 0.09622 0.23534 0.10118 0.0
H33 H 0.99794 0.35179 0.15923 0.0
H34 H 0.0605 0.23042 0.15309 0.0
H35 H 0.03119 0.35584 0.10686 0.0
H36 H 0.38301 0.24883 0.92905 0.0
H37 H 0.51581 0.13823 0.87943 0.0
H38 H 0.40453 0.24658 0.87514 0.0
H39 H 0.49283 0.14037 0.93353 0.0
Eu40 Eu 0.68395 0.77543 0.03671 0.0
Eu41 Eu 0.8058 0.7262 0.99855 0.0
C42 C 0.67711 0.68217 0.02292 0.0
C43 C 0.56865 0.80839 0.10163 0.0
C44 C 0.57926 0.77315 0.11478 0.0
C45 C 0.52257 0.83727 0.1489 0.0
C46 C 0.56146 0.76995 0.14476 0.0
C47 C 0.54006 0.84037 0.11883 0.0
C48 C 0.53332 0.80206 0.16224 0.0
C49 C 0.59225 0.81279 0.07085 0.0
O50 O 0.71834 0.73419 0.9667 0.0
O51 O 0.66946 0.79018 0.98888 0.0
C52 C 0.6795 0.76528 0.96529 0.0
O53 O 0.77663 0.81409 0.03603 0.0
O54 O 0.83681 0.67639 0.96804 0.0
O55 O 0.91165 0.72017 0.98309 0.0
O56 O 0.82045 0.78961 0.9911 0.0
C57 C 0.81524 0.81793 1.01252 0.0
O58 O 0.73977 0.74186 0.07013 0.0
O59 O 0.84389 0.73379 0.04659 0.0
O60 O 0.74401 0.6813 0.02035 0.0
O61 O 0.65536 0.82429 0.06872 0.0
O62 O 0.57744 0.78442 0.05062 0.0
O63 O 0.64282 0.71517 0.02323 0.0
C64 C 0.91988 0.69221 0.93321 0.0
C65 C 0.88834 0.71902 0.91554 0.0
C66 C 0.98993 0.66883 0.89054 0.0
C67 C 0.90745 0.72071 0.88552 0.0
C68 C 0.97073 0.66717 0.92057 0.0
C69 C 0.95846 0.69559 0.87262 0.0
C70 C 0.89849 0.68969 0.96452 0.0
C71 C 0.80576 0.73471 0.07093 0.0
H72 H 0.60241 0.7483 0.102 0.0
H73 H 0.50048 0.8624 0.16171 0.0
H74 H 0.57129 0.74262 0.15448 0.0
H75 H 0.53216 0.8679 0.10912 0.0
H76 H 0.84881 0.73857 0.92497 0.0
H77 H 0.02869 0.64871 0.88124 0.0
H78 H 0.88277 0.74199 0.87253 0.0
H79 H 0.99524 0.64612 0.93386 0.0
Eu80 Eu 0.18864 0.71098 0.49702 0.0
Eu81 Eu 0.31947 0.7515 0.53432 0.0
C82 C 0.18863 0.80024 0.51905 0.0
C83 C 0.06959 0.6854 0.43207 0.0
C84 C 0.09654 0.71602 0.41683 0.0
C85 C 0.01152 0.66047 0.38637 0.0
C86 C 0.08089 0.71893 0.38656 0.0
C87 C 0.02692 0.65772 0.41671 0.0
C88 C 0.03854 0.69103 0.37092 0.0
C89 C 0.08951 0.6809 0.46333 0.0
O90 O 0.26137 0.71858 0.56756 0.0
O91 O 0.15485 0.71608 0.5456 0.0
C92 C 0.19474 0.71403 0.5692 0.0
O93 O 0.25073 0.66248 0.51433 0.0
O94 O 0.36912 0.80256 0.55768 0.0
O95 O 0.41922 0.74619 0.55539 0.0
O96 O 0.3536 0.69329 0.5123 0.0
C97 C 0.31768 0.66108 0.51257 0.0
O98 O 0.27001 0.72016 0.46273 0.0
O99 O 0.33275 0.76963 0.48724 0.0
O100 O 0.22781 0.79112 0.54123 0.0
O101 O 0.14815 0.66356 0.46659 0.0
O102 O 0.08203 0.71169 0.4823 0.0
O103 O 0.18189 0.77606 0.49497 0.0
C104 C 0.431 0.78641 0.60031 0.0
C105 C 0.39804 0.76156 0.61907 0.0
C106 C 0.489 0.81823 0.64386 0.0
C107 C 0.41124 0.76456 0.64989 0.0
C108 C 0.476 0.81502 0.61291 0.0
C109 C 0.4574 0.79266 0.6626 0.0
C110 C 0.41911 0.78201 0.56766 0.0
C111 C 0.31447 0.74879 0.46246 0.0
H112 H 0.13048 0.73736 0.42824 0.0
H113 H 0.97822 0.63877 0.37502 0.0
H114 H 0.10316 0.74251 0.37521 0.0
H115 H 0.00613 0.63374 0.42808 0.0
H116 H 0.36273 0.73947 0.6098 0.0
H117 H 0.5251 0.84 0.65299 0.0
H118 H 0.38535 0.74483 0.66378 0.0
H119 H 0.50174 0.83453 0.59877 0.0
Eu120 Eu 0.69427 0.20728 0.49909 0.0
Eu121 Eu 0.81805 0.25579 0.53604 0.0
C122 C 0.68645 0.29912 0.51304 0.0
C123 C 0.5838 0.17388 0.43292 0.0
C124 C 0.62946 0.19077 0.41352 0.0
C125 C 0.50356 0.1622 0.39162 0.0
C126 C 0.61249 0.19314 0.38332 0.0
C127 C 0.5208 0.15963 0.4218 0.0
C128 C 0.54924 0.17896 0.37202 0.0
C129 C 0.60168 0.17157 0.46472 0.0
O130 O 0.76018 0.22528 0.57065 0.0
O131 O 0.65613 0.21612 0.54697 0.0
C132 C 0.69416 0.21813 0.57142 0.0
O133 O 0.75388 0.16289 0.52262 0.0
O134 O 0.85286 0.30657 0.56476 0.0
O135 O 0.92428 0.26037 0.55124 0.0
O136 O 0.85613 0.19492 0.52194 0.0
C137 C 0.82091 0.16273 0.5239 0.0
O138 O 0.78212 0.21303 0.4672 0.0
O139 O 0.83051 0.26974 0.48788 0.0
O140 O 0.72598 0.29523 0.5363 0.0
O141 O 0.66181 0.15682 0.46972 0.0
O142 O 0.58894 0.20283 0.48257 0.0
O143 O 0.68075 0.2708 0.49164 0.0
C144 C 0.9337 0.29035 0.60054 0.0
C145 C 0.91293 0.2591 0.61669 0.0
C146 C 0.98791 0.32057 0.64561 0.0
C147 C 0.92964 0.25853 0.64708 0.0
C148 C 0.97129 0.32105 0.61516 0.0
C149 C 0.96716 0.28932 0.66194 0.0
C150 C 0.91326 0.29189 0.56896 0.0
C151 C 0.81969 0.24424 0.46473 0.0
H152 H 0.6782 0.20227 0.42176 0.0
H153 H 0.45472 0.15071 0.38353 0.0
H154 H 0.6484 0.2067 0.36895 0.0
H155 H 0.48494 0.14656 0.43646 0.0
H156 H 0.88319 0.2353 0.60586 0.0
H157 H 0.01746 0.34452 0.65631 0.0
H158 H 0.91207 0.23431 0.65907 0.0
H159 H 0.9874 0.3455 0.60307 0.0
H160 H 0.73004 0.60829 0.0232 0.0
H161 H 0.667 0.54699 0.02444 0.0
H162 H 0.47628 0.61066 0.02835 0.0
H163 H 0.53859 0.67213 0.0269 0.0
H164 H 0.57185 0.5244 0.06856 0.0
H165 H 0.45331 0.52862 0.95571 0.0
H166 H 0.5256 0.55867 0.96778 0.0
H167 H 0.44101 0.5718 0.9808 0.0
C168 C 0.67468 0.60933 0.02434 0.0
C169 C 0.63934 0.64513 0.02473 0.0
C170 C 0.63881 0.57427 0.02508 0.0
C171 C 0.56707 0.57434 0.02604 0.0
C172 C 0.53165 0.61 0.02706 0.0
H173 H 0.26309 0.38975 0.02275 0.0
H174 H 0.32268 0.45253 0.02526 0.0
C175 C 0.56742 0.6451 0.02637 0.0
C176 C 0.52933 0.53705 0.02599 0.0
H177 H 0.41749 0.47801 0.98481 0.0
C178 C 0.53817 0.51415 0.05026 0.0
C179 C 0.4854 0.52394 1.00207 0.0
C180 C 0.47598 0.5468 0.97495 0.0
C181 C 0.50348 0.47856 0.05144 0.0
C182 C 0.45993 0.4653 0.0274 0.0
C183 C 0.45085 0.48833 1.00321 0.0
C184 C 0.4241 0.42729 0.02663 0.0
C185 C 0.51282 0.45583 0.07862 0.0
C186 C 0.46149 0.39232 0.02624 0.0
C187 C 0.42767 0.35642 0.02486 0.0
C188 C 0.35578 0.35482 0.02359 0.0
C189 C 0.31848 0.38993 0.02376 0.0
C190 C 0.3524 0.42583 0.02519 0.0
H191 H 0.53222 0.47466 0.09824 0.0
H192 H 0.46395 0.44228 0.08496 0.0
H193 H 0.55073 0.43212 0.07335 0.0
H194 H 0.51692 0.39276 0.02666 0.0
H195 H 0.458 0.32993 0.02457 0.0
H196 H 0.45556 0.6473 0.51105 0.0
H197 H 0.51398 0.58414 0.5085 0.0
H198 H 0.31915 0.52519 0.50697 0.0
H199 H 0.26006 0.58829 0.50996 0.0
H200 H 0.41006 0.49775 0.54755 0.0
H201 H 0.53273 0.50375 0.43621 0.0
H202 H 0.55051 0.54574 0.46174 0.0
H203 H 0.4642 0.53631 0.44913 0.0
C204 C 0.42502 0.62093 0.51002 0.0
C205 C 0.35311 0.62284 0.51064 0.0
C206 C 0.45854 0.58485 0.50835 0.0
C207 C 0.42085 0.55002 0.50702 0.0
C208 C 0.34912 0.55178 0.50778 0.0
H209 H 0.59637 0.31701 0.46919 0.0
H210 H 0.52888 0.37693 0.46732 0.0
C211 C 0.31549 0.58786 0.5095 0.0
C212 C 0.4564 0.51182 0.50612 0.0
H213 H 0.57305 0.45422 0.46635 0.0
C214 C 0.44532 0.48807 0.52969 0.0
C215 C 0.5016 0.49906 0.48257 0.0
C216 C 0.51256 0.52234 0.45582 0.0
C217 C 0.47983 0.45237 0.53083 0.0
C218 C 0.52751 0.44051 0.50804 0.0
C219 C 0.53703 0.46365 0.48397 0.0
C220 C 0.56876 0.40445 0.50906 0.0
C221 C 0.46468 0.42756 0.55633 0.0
C222 C 0.61432 0.40046 0.53288 0.0
C223 C 0.65285 0.36633 0.53406 0.0
C224 C 0.64685 0.33563 0.5113 0.0
C225 C 0.60205 0.34004 0.48714 0.0
C226 C 0.56347 0.37423 0.486 0.0
H227 H 0.41442 0.43518 0.5669 0.0
H228 H 0.46467 0.39599 0.54848 0.0
H229 H 0.50479 0.43255 0.57382 0.0
H230 H 0.62022 0.42382 0.55056 0.0
H231 H 0.68719 0.36404 0.55288 0.0
H232 H 0.19857 0.11746 0.97227 0.0
H233 H 0.13424 0.05617 0.96852 0.0
H234 H 0.03536 0.09043 0.05292 0.0
H235 H 0.09868 0.15192 0.05678 0.0
H236 H 0.13179 -0.00281 1.00856 0.0
H237 H 0.87448 0.06259 0.99599 0.0
H238 H 0.95255 0.08935 0.99105 0.0
H239 H 0.92108 0.08322 0.02815 0.0
C240 C 0.16305 0.11203 0.99003 0.0
C241 C 0.15348 0.13971 1.01475 0.0
C242 C 0.12639 0.07699 0.98783 0.0
C243 C 0.07928 0.06912 1.01018 0.0
C244 C 0.07044 0.09635 0.03512 0.0
H245 H 0.81674 0.88216 0.05296 0.0
H246 H 0.8823 0.94219 0.05033 0.0
C247 C 0.10702 0.13138 0.03735 0.0
C248 C 0.04023 0.0321 1.00781 0.0
H249 H 0.8779 -0.00456 1.00564 0.0
C250 C 0.07631 -0.00331 1.00763 0.0
C251 C 0.9679 0.03167 1.0065 0.0
C252 C 0.92663 0.0687 1.00514 0.0
C253 C 0.04179 0.96084 1.0073 0.0
C254 C 0.96941 0.9605 1.00667 0.0
C255 C 0.93341 -0.00414 1.00622 0.0
C256 C 0.92985 0.92394 1.00773 0.0
C257 C 0.08291 0.92376 1.00869 0.0
C258 C 0.93432 0.89398 0.98442 0.0
C259 C 0.89693 0.85949 0.98585 0.0
C260 C 0.85419 0.85454 1.01056 0.0
C261 C 0.84926 0.88492 0.03364 0.0
C262 C 0.88662 0.9193 0.03218 0.0
H263 H 0.13676 0.92985 0.01558 0.0
H264 H 0.05953 0.9046 0.02468 0.0
H265 H 0.08351 0.90751 0.98615 0.0
H266 H 0.9665 0.89733 0.96509 0.0
H267 H 0.9016 0.83675 0.96762 0.0
H268 H 0.76999 0.09543 0.54361 0.0
H269 H 0.83079 0.03372 0.54771 0.0
H270 H 0.01382 0.08388 0.51315 0.0
H271 H 0.95426 0.146 0.51023 0.0
H272 H 0.88454 0.98533 0.50625 0.0
H273 H 0.09168 0.03647 0.584 0.0
H274 H 0.01854 0.06653 0.57695 0.0
H275 H 0.09046 0.06387 0.55161 0.0
C276 C 0.82338 0.09336 0.53715 0.0
C277 C 0.85751 0.12557 0.52675 0.0
C278 C 0.85807 0.05811 0.53952 0.0
C279 C 0.9273 0.05435 0.5313 0.0
C280 C 0.96113 0.0864 0.52056 0.0
H281 H 0.13358 0.83851 0.4737 0.0
H282 H 0.06874 0.89966 0.47801 0.0
C283 C 0.92684 0.12183 0.51867 0.0
C284 C 0.96312 0.01634 0.53237 0.0
H285 H 0.11037 0.97461 0.55572 0.0
C286 C 0.93356 0.98292 0.51737 0.0
C287 C 0.02641 0.01294 0.5474 0.0
C288 C 0.05817 0.04681 0.56617 0.0
C289 C 0.96654 0.94649 0.51614 0.0
C290 C 0.03216 0.94372 0.52928 0.0
C291 C 0.06064 0.97685 0.54517 0.0
C292 C 0.07244 0.9069 0.52663 0.0
C293 C 0.9301 0.91136 0.50111 0.0
C294 C 0.09882 0.89151 0.5524 0.0
C295 C 0.13748 0.8571 0.54992 0.0
C296 C 0.14987 0.83729 0.52163 0.0
C297 C 0.12407 0.85291 0.49583 0.0
C298 C 0.08649 0.88768 0.49829 0.0
H299 H 0.87366 0.91548 0.50168 0.0
H300 H 0.94573 0.90727 0.47718 0.0
H301 H 0.94275 0.88434 0.51199 0.0
H302 H 0.08903 0.90595 0.57449 0.0
H303 H 0.15663 0.84568 0.5702 0.0
H304 H 0.42647 0.2015 0.34955 0.0
H305 H 0.39597 0.20743 0.29697 0.0
H306 H 0.59911 0.17052 0.26958 0.0
H307 H 0.63006 0.16415 0.32218 0.0
H308 H 0.47501 0.25641 0.25525 0.0
H309 H 0.45777 0.09777 0.21758 0.0
H310 H 0.44806 0.11575 0.25654 0.0
H311 H 0.53103 0.1148 0.23942 0.0
C312 C 0.46447 0.19421 0.33234 0.0
C313 C 0.53059 0.18217 0.34004 0.0
C314 C 0.44706 0.19782 0.30235 0.0
C315 C 0.49513 0.18909 0.27946 0.0
C316 C 0.56116 0.17705 0.28695 0.0
H317 H 0.43211 0.1884 0.0845 0.0
H318 H 0.48167 0.17886 0.13389 0.0
C319 C 0.57883 0.1737 0.317 0.0
C320 C 0.47624 0.19368 0.24786 0.0
H321 H 0.4333 0.14232 0.18173 0.0
C322 C 0.46618 0.23152 0.2391 0.0
C323 C 0.46574 0.16113 0.22682 0.0
C324 C 0.47581 0.11995 0.23538 0.0
C325 C 0.44484 0.23773 0.20988 0.0
C326 C 0.43119 0.20513 0.18914 0.0
C327 C 0.44336 0.16726 0.19767 0.0
C328 C 0.40091 0.20983 0.15914 0.0
C329 C 0.43759 0.27922 0.2015 0.0
C330 C 0.33826 0.22944 0.15695 0.0
C331 C 0.31026 0.23518 0.12893 0.0
C332 C 0.3437 0.22087 0.10236 0.0
C333 C 0.40522 0.1999 0.10453 0.0
C334 C 0.43362 0.19446 0.13272 0.0
H335 H 0.47069 0.29954 0.21573 0.0
H336 H 0.45096 0.28159 0.17758 0.0
H337 H 0.38378 0.28892 0.20507 0.0
H338 H 0.31093 0.24045 0.177 0.0
H339 H 0.26217 0.25085 0.12814 0.0
H340 H 0.55925 0.85505 0.21024 0.0
H341 H 0.53242 0.84909 0.26321 0.0
H342 H 0.44108 0.73638 0.23964 0.0
H343 H 0.46826 0.74199 0.1868 0.0
H344 H 0.40978 0.84149 0.29088 0.0
H345 H 0.57053 0.71169 0.30609 0.0
H346 H 0.5783 0.73951 0.27376 0.0
H347 H 0.512 0.70339 0.27528 0.0
C348 C 0.53326 0.82905 0.21636 0.0
C349 C 0.51619 0.79888 0.19435 0.0
C350 C 0.51826 0.82562 0.24664 0.0
C351 C 0.48601 0.79195 0.25549 0.0
C352 C 0.4678 0.76213 0.23348 0.0
H353 H 0.29228 0.70909 0.40783 0.0
H354 H 0.33931 0.72266 0.35935 0.0
C355 C 0.48314 0.76542 0.20326 0.0
C356 C 0.46926 0.7884 0.28756 0.0
H357 H 0.48538 0.72756 0.34384 0.0
C358 C 0.4271 0.81689 0.30262 0.0
C359 C 0.49236 0.75644 0.30295 0.0
C360 C 0.54139 0.72625 0.28879 0.0
C361 C 0.40471 0.81324 0.33213 0.0
C362 C 0.42544 0.78041 0.34696 0.0
C363 C 0.46936 0.75261 0.3323 0.0
C364 C 0.3981 0.77282 0.37681 0.0
C365 C 0.3568 0.8436 0.34685 0.0
C366 C 0.41604 0.79646 0.40281 0.0
C367 C 0.38934 0.78871 0.4308 0.0
C368 C 0.34425 0.7572 0.43317 0.0
C369 C 0.32685 0.73359 0.40697 0.0
C370 C 0.35371 0.74125 0.37916 0.0
H371 H 0.33829 0.8644 0.33088 0.0
H372 H 0.31191 0.82931 0.35648 0.0
H373 H 0.38383 0.86048 0.36556 0.0
H374 H 0.45083 0.82076 0.40144 0.0
H375 H 0.40384 0.80745 0.45049 0.0
H376 H 0.61737 0.83208 0.94866 0.0
H377 H 0.56906 0.84304 0.89925 0.0
H378 H 0.62066 0.7248 0.86688 0.0
H379 H 0.66931 0.71362 0.91572 0.0
H380 H 0.64879 0.82847 0.8403 0.0
H381 H 0.40987 0.74202 0.84664 0.0
H382 H 0.45485 0.76252 0.87966 0.0
H383 H 0.48684 0.71925 0.8589 0.0
C384 C 0.6179 0.80834 0.93109 0.0
C385 C 0.64714 0.77197 0.93616 0.0
C386 C 0.59044 0.81468 0.90291 0.0
C387 C 0.59086 0.78459 0.87962 0.0
C388 C 0.61925 0.74823 0.88472 0.0
H389 H 0.48517 0.73146 0.69583 0.0
H390 H 0.5142 0.73361 0.74912 0.0
C391 C 0.64726 0.74198 0.91265 0.0
C392 C 0.56443 0.79115 0.84942 0.0
H393 H 0.44184 0.76019 0.79848 0.0
C394 C 0.60298 0.81411 0.83118 0.0
C395 C 0.505 0.77209 0.83772 0.0
C396 C 0.46124 0.74777 0.85674 0.0
C397 C 0.58538 0.81704 0.80095 0.0
C398 C 0.52664 0.79722 0.78897 0.0
C399 C 0.48686 0.77534 0.80764 0.0
C400 C 0.50791 0.79663 0.75671 0.0
C401 C 0.63182 0.83966 0.78177 0.0
C402 C 0.49399 0.83133 0.74327 0.0
C403 C 0.47778 0.83019 0.71267 0.0
C404 C 0.47411 0.79426 0.69512 0.0
C405 C 0.48691 0.75956 0.7088 0.0
C406 C 0.50367 0.76076 0.73925 0.0
H407 H 0.68286 0.84492 0.79232 0.0
H408 H 0.63911 0.82394 0.75924 0.0
H409 H 0.60831 0.86851 0.77872 0.0
H410 H 0.49533 0.85928 0.75644 0.0
H411 H 0.46722 0.85734 0.70283 0.0
H412 H 0.7556 0.22528 0.62648 0.0
H413 H 0.70526 0.21536 0.675 0.0
H414 H 0.51183 0.18644 0.63224 0.0
H415 H 0.56169 0.19698 0.58321 0.0
H416 H 0.49786 0.2375 0.68276 0.0
H417 H 0.65988 0.11217 0.70825 0.0
H418 H 0.71004 0.15317 0.69901 0.0
H419 H 0.65451 0.12902 0.67113 0.0
C420 C 0.70242 0.21657 0.62719 0.0
C421 C 0.66284 0.21166 0.60081 0.0
C422 C 0.67382 0.21067 0.65504 0.0
C423 C 0.60522 0.19932 0.6572 0.0
C424 C 0.56511 0.19484 0.63103 0.0
H425 H 0.4568 0.13005 0.83032 0.0
H426 H 0.48326 0.12964 0.77669 0.0
C427 C 0.59369 0.20086 0.60304 0.0
C428 C 0.57539 0.1936 0.68704 0.0
H429 H 0.60241 0.14628 0.75021 0.0
C430 C 0.52008 0.21718 0.69738 0.0
C431 C 0.60353 0.16658 0.70592 0.0
C432 C 0.65978 0.1385 0.6954 0.0
C433 C 0.49445 0.21586 0.72664 0.0
C434 C 0.52592 0.19086 0.74624 0.0
C435 C 0.57891 0.16586 0.73536 0.0
C436 C 0.50689 0.19135 0.77844 0.0
C437 C 0.43406 0.24137 0.73628 0.0
C438 C 0.51221 0.22603 0.79731 0.0
C439 C 0.49721 0.22634 0.82789 0.0
C440 C 0.47729 0.19184 0.84035 0.0
C441 C 0.4725 0.15704 0.82146 0.0
C442 C 0.48724 0.1568 0.79079 0.0
H443 H 0.40276 0.24845 0.71667 0.0
H444 H 0.40075 0.22705 0.7522 0.0
H445 H 0.4529 0.26932 0.74761 0.0
H446 H 0.52928 0.25279 0.78851 0.0
H447 H 0.50269 0.25347 0.84191 0.0
H448 H 0.93768 0.71192 0.08267 0.0
H449 H 0.98684 0.69985 0.13163 0.0
H450 H 0.79389 0.73028 0.1743 0.0
H451 H 0.74423 0.74162 0.12586 0.0
H452 H 0.00212 0.74921 0.18305 0.0
H453 H 0.83462 0.62543 0.2057 0.0
H454 H 0.84102 0.64345 0.16902 0.0
H455 H 0.78631 0.66761 0.19725 0.0
C456 C 0.90567 0.71581 0.10247 0.0
C457 C 0.83682 0.72737 0.10024 0.0
C458 C 0.93384 0.70894 0.13042 0.0
C459 C 0.89361 0.71339 0.15653 0.0
C460 C 0.82538 0.72562 0.15437 0.0
H461 H 0.00361 0.75604 0.34284 0.0
H462 H 0.97552 0.75993 0.28983 0.0
C463 C 0.79718 0.73229 0.12658 0.0
C464 C 0.92275 0.70634 0.1863 0.0
H465 H 0.89352 0.65694 0.24818 0.0
C466 C 0.97896 0.7287 0.19718 0.0
C467 C 0.89331 0.67908 0.20453 0.0
C468 C 0.83595 0.65223 0.19341 0.0
C469 C 0.00457 0.72575 0.22632 0.0
C470 C 0.97212 0.70037 0.24526 0.0
C471 C 0.91784 0.67681 0.23386 0.0
C472 C 0.99228 0.69836 0.27717 0.0
C473 C 0.06624 0.74977 0.23644 0.0
C474 C 0.00937 0.66232 0.28793 0.0
C475 C 0.02462 0.65996 0.31831 0.0
C476 C 0.02308 0.69361 0.33856 0.0
C477 C 0.00623 0.7297 0.32772 0.0
C478 C 0.99049 0.73199 0.29738 0.0
H479 H 0.09751 0.75735 0.21701 0.0
H480 H 0.04884 0.77752 0.24865 0.0
H481 H 0.09918 0.73403 0.25172 0.0
H482 H 0.01078 0.63595 0.2728 0.0
H483 H 0.03812 0.6318 0.32591 0.0
H484 H 0.87333 0.31179 0.44564 0.0
H485 H 0.90955 0.32311 0.39454 0.0
H486 H 0.86705 0.20258 0.36545 0.0
H487 H 0.8292 0.19134 0.41591 0.0
H488 H 0.00879 0.29162 0.35766 0.0
H489 H 0.75534 0.25814 0.30641 0.0
H490 H 0.76779 0.2647 0.34652 0.0
H491 H 0.78754 0.21857 0.3261 0.0
C492 C 0.87205 0.28769 0.42837 0.0
C493 C 0.84775 0.25078 0.43479 0.0
C494 C 0.89262 0.2942 0.39918 0.0
C495 C 0.88935 0.26394 0.37599 0.0
C496 C 0.868 0.22669 0.38272 0.0
H497 H 0.09215 0.25092 0.20302 0.0
H498 H 0.05901 0.24604 0.25519 0.0
C499 C 0.84685 0.22026 0.4117 0.0
C500 C 0.90812 0.27104 0.34471 0.0
H501 H 0.84934 0.26097 0.27248 0.0
C502 C 0.97378 0.28523 0.33905 0.0
C503 C 0.86197 0.26336 0.32047 0.0
C504 C 0.78902 0.25076 0.32518 0.0
C505 C 0.99526 0.29085 0.30972 0.0
C506 C 0.9504 0.2811 0.28531 0.0
C507 C 0.88408 0.26797 0.2911 0.0
C508 C 0.97094 0.2842 0.25357 0.0
C509 C 0.06545 0.30768 0.30529 0.0
C510 C 0.93118 0.30614 0.23487 0.0
C511 C 0.94897 0.30818 0.20474 0.0
C512 C 0.00709 0.28835 0.1926 0.0
C513 C 0.04667 0.26626 0.21141 0.0
C514 C 0.02845 0.26396 0.24147 0.0
H515 H 0.08385 0.32472 0.32598 0.0
H516 H 0.10228 0.28345 0.29988 0.0
H517 H 0.06567 0.32698 0.28657 0.0
H518 H 0.88617 0.3217 0.2436 0.0
H519 H 0.91653 0.3249 0.19088 0.0
H520 H 0.01248 0.22748 0.69145 0.0
H521 H 0.04197 0.22686 0.74458 0.0
H522 H 0.99061 0.34926 0.75897 0.0
H523 H 0.96131 0.35015 0.70574 0.0
H524 H 0.11161 0.33333 0.78442 0.0
H525 H 0.91757 0.22764 0.81697 0.0
H526 H 0.96837 0.20847 0.78567 0.0
H527 H 0.9136 0.25001 0.78187 0.0
C528 C 0.00661 0.25416 0.70599 0.0
C529 C 0.98437 0.28884 0.69436 0.0
C530 C 0.02327 0.25373 0.7364 0.0
C531 C 0.01729 0.28784 0.75592 0.0
C532 C 0.9953 0.32254 0.74437 0.0
H533 H 0.06593 0.28208 0.9511 0.0
H534 H 0.01866 0.29155 0.90135 0.0
C535 C 0.97892 0.32305 0.71392 0.0
C536 C 0.03731 0.2877 0.788 0.0
H537 H 0.01082 0.24055 0.85131 0.0
C538 C 0.08905 0.31332 0.79912 0.0
C539 C 0.00706 0.26211 0.8074 0.0
C540 C 0.94807 0.2358 0.79748 0.0
C541 C 0.11322 0.31297 0.8287 0.0
C542 C 0.08599 0.28566 0.8475 0.0
C543 C 0.03231 0.26115 0.83679 0.0
C544 C 0.11454 0.28093 0.87781 0.0
C545 C 0.16767 0.34197 0.8395 0.0
C546 C 0.18383 0.27135 0.88106 0.0
C547 C 0.21099 0.26619 0.90936 0.0
C548 C 0.16929 0.26997 0.9351 0.0
C549 C 0.09958 0.27911 0.93179 0.0
C550 C 0.07246 0.2845 0.90338 0.0
H551 H 0.16669 0.3682 0.82654 0.0
H552 H 0.16127 0.35153 0.8637 0.0
H553 H 0.21878 0.32808 0.83628 0.0
H554 H 0.21692 0.26734 0.8616 0.0
H555 H 0.26462 0.25867 0.91089 0.0
H556 H 0.26211 0.69898 0.62055 0.0
H557 H 0.21434 0.69501 0.67053 0.0
H558 H 0.01152 0.71268 0.63592 0.0
H559 H 0.059 0.71655 0.58549 0.0
H560 H 0.14097 0.75402 0.70322 0.0
H561 H 0.98683 0.61807 0.68529 0.0
H562 H 0.05222 0.63069 0.65929 0.0
H563 H 0.97023 0.6545 0.65958 0.0
C564 C 0.20725 0.70176 0.62338 0.0
C565 C 0.16444 0.70822 0.59893 0.0
C566 C 0.18003 0.69944 0.65204 0.0
C567 C 0.10936 0.70326 0.65694 0.0
C568 C 0.06612 0.70898 0.63255 0.0
H569 H 0.87556 0.70463 0.82402 0.0
H570 H 0.90978 0.70839 0.77164 0.0
C571 C 0.09338 0.71129 0.60375 0.0
C572 C 0.08208 0.70323 0.68794 0.0
H573 H 0.97911 0.65316 0.73304 0.0
C574 C 0.10554 0.73198 0.70974 0.0
C575 C 0.03548 0.67463 0.69634 0.0
C576 C 0.00996 0.64249 0.67402 0.0
C577 C 0.08399 0.73282 0.73974 0.0
C578 C 0.03872 0.70366 0.74832 0.0
C579 C 0.01401 0.67539 0.72641 0.0
C580 C 0.01798 0.70144 0.78009 0.0
C581 C 0.10943 0.76518 0.76191 0.0
C582 C 0.06736 0.69581 0.80217 0.0
C583 C 0.04808 0.69393 0.83213 0.0
C584 C 0.97886 0.69736 0.84064 0.0
C585 C 0.92939 0.70249 0.81836 0.0
C586 C 0.94877 0.70437 0.78836 0.0
H587 H 0.1271 0.79082 0.75044 0.0
H588 H 0.06886 0.77493 0.77827 0.0
H589 H 0.15346 0.75429 0.77454 0.0
H590 H 0.12094 0.69277 0.7962 0.0
H591 H 0.08758 0.69026 0.84868 0.0
loop_
_geom_bond_atom_site_label_1
_geom_bond_atom_site_label_2
_geom_bond_distance
_geom_bond_site_symmetry_2
_ccdc_geom_bond_type
Eu0 C9 2.828 . S
Eu0 O11 2.392 1_554 S
Eu0 O13 2.418 . S
Eu0 O18 2.373 . S
Eu0 O21 2.488 . S
Eu0 O22 2.471 . S
Eu0 O23 2.349 . S
Eu1 O10 2.373 . S
Eu1 O14 2.488 . S
Eu1 O15 2.471 . S
Eu1 O16 2.349 . S
Eu1 O19 2.392 1_556 S
Eu1 O20 2.418 . S
Eu1 C30 2.828 . S
C2 O20 1.244 . S
C2 O23 1.265 1_556 S
C3 C4 1.379 . S
C3 C7 1.373 . S
C3 C9 1.505 . S
C4 C3 1.379 . S
C4 C6 1.369 . S
C4 H32 0.930 . S
C5 C7 1.383 . S
C5 C8 1.382 . S
C5 H33 0.930 . S
C6 C4 1.369 . S
C6 C8 1.392 . S
C6 H34 0.930 . S
C7 C3 1.373 . S
C7 C5 1.383 . S
C7 H35 0.931 . S
C8 C5 1.382 . S
C8 C6 1.392 . S
C9 Eu0 2.828 . S
C9 C3 1.505 . S
C9 O21 1.249 . S
C9 O22 1.244 . S
O10 Eu1 2.373 . S
O10 C12 1.258 . S
O11 Eu0 2.392 1_556 S
O11 C12 1.242 . S
C12 O10 1.258 . S
C12 O11 1.242 . S
O13 Eu0 2.418 . S
O13 C17 1.244 . S
O14 Eu1 2.488 . S
O14 C30 1.249 . S
O15 Eu1 2.471 . S
O15 C30 1.244 . S
O16 Eu1 2.349 . S
O16 C17 1.265 1_556 S
C17 O13 1.244 . S
C17 O16 1.265 1_554 S
O18 Eu0 2.373 . S
O18 C31 1.258 . S
O19 Eu1 2.392 1_554 S
O19 C31 1.242 . S
O20 Eu1 2.418 . S
O20 C2 1.244 . S
O21 Eu0 2.488 . S
O21 C9 1.249 . S
O22 Eu0 2.471 . S
O22 C9 1.244 . S
O23 Eu0 2.349 . S
O23 C2 1.265 1_554 S
C24 C25 1.379 . S
C24 C28 1.373 . S
C24 C30 1.505 . S
C25 C24 1.379 . S
C25 C27 1.369 . S
C25 H36 0.930 . S
C26 C28 1.383 . S
C26 C29 1.382 . S
C26 H37 0.930 . S
C27 C25 1.369 . S
C27 C29 1.392 . S
C27 H38 0.930 . S
C28 C24 1.373 . S
C28 C26 1.383 . S
C28 H39 0.931 . S
C29 C26 1.382 . S
C29 C27 1.392 . S
C30 Eu1 2.828 . S
C30 O14 1.249 . S
C30 O15 1.244 . S
C30 C24 1.505 . S
C31 O18 1.258 . S
C31 O19 1.242 . S
H32 C4 0.930 . S
H33 C5 0.930 . S
H34 C6 0.930 . S
H35 C7 0.931 . S
H36 C25 0.930 . S
H37 C26 0.930 . S
H38 C27 0.930 . S
H39 C28 0.931 . S
Eu40 C49 2.828 . S
Eu40 O51 2.392 1_554 S
Eu40 O53 2.418 . S
Eu40 O58 2.373 . S
Eu40 O61 2.488 . S
Eu40 O62 2.471 . S
Eu40 O63 2.349 . S
Eu41 O50 2.373 . S
Eu41 O54 2.488 . S
Eu41 O55 2.471 . S
Eu41 O56 2.349 . S
Eu41 O59 2.392 1_556 S
Eu41 O60 2.418 . S
Eu41 C70 2.828 . S
C42 O60 1.244 . S
C42 O63 1.265 1_556 S
C43 C44 1.379 . S
C43 C47 1.373 . S
C43 C49 1.505 . S
C44 C43 1.379 . S
C44 C46 1.369 . S
C44 H72 0.930 . S
C45 C47 1.383 . S
C45 C48 1.382 . S
C45 H73 0.930 . S
C46 C44 1.369 . S
C46 C48 1.392 . S
C46 H74 0.930 . S
C47 C43 1.373 . S
C47 C45 1.383 . S
C47 H75 0.931 . S
C48 C45 1.382 . S
C48 C46 1.392 . S
C49 Eu40 2.828 . S
C49 C43 1.505 . S
C49 O61 1.249 . S
C49 O62 1.244 . S
O50 Eu41 2.373 . S
O50 C52 1.258 . S
O51 Eu40 2.392 1_556 S
O51 C52 1.242 . S
C52 O50 1.258 . S
C52 O51 1.242 . S
O53 Eu40 2.418 . S
O53 C57 1.244 . S
O54 Eu41 2.488 . S
O54 C70 1.249 . S
O55 Eu41 2.471 . S
O55 C70 1.244 . S
O56 Eu41 2.349 . S
O56 C57 1.265 1_556 S
C57 O53 1.244 . S
C57 O56 1.265 1_554 S
O58 Eu40 2.373 . S
O58 C71 1.258 . S
O59 Eu41 2.392 1_554 S
O59 C71 1.242 . S
O60 Eu41 2.418 . S
O60 C42 1.244 . S
O61 Eu40 2.488 . S
O61 C49 1.249 . S
O62 Eu40 2.471 . S
O62 C49 1.244 . S
O63 Eu40 2.349 . S
O63 C42 1.265 1_554 S
C64 C65 1.379 . S
C64 C68 1.373 . S
C64 C70 1.505 . S
C65 C64 1.379 . S
C65 C67 1.369 . S
C65 H76 0.930 . S
C66 C68 1.383 . S
C66 C69 1.382 . S
C66 H77 0.930 . S
C67 C65 1.369 . S
C67 C69 1.392 . S
C67 H78 0.930 . S
C68 C64 1.373 . S
C68 C66 1.383 . S
C68 H79 0.931 . S
C69 C66 1.382 . S
C69 C67 1.392 . S
C70 Eu41 2.828 . S
C70 O54 1.249 . S
C70 O55 1.244 . S
C70 C64 1.505 . S
C71 O58 1.258 . S
C71 O59 1.242 . S
H72 C44 0.930 . S
H73 C45 0.930 . S
H74 C46 0.930 . S
H75 C47 0.931 . S
H76 C65 0.930 . S
H77 C66 0.930 . S
H78 C67 0.930 . S
H79 C68 0.931 . S
Eu80 C89 2.828 . S
Eu80 O91 2.392 . S
Eu80 O93 2.418 . S
Eu80 O98 2.373 . S
Eu80 O101 2.488 . S
Eu80 O102 2.471 . S
Eu80 O103 2.349 . S
Eu81 O90 2.373 . S
Eu81 O94 2.488 . S
Eu81 O95 2.471 . S
Eu81 O96 2.349 . S
Eu81 O99 2.392 . S
Eu81 O100 2.418 . S
Eu81 C110 2.828 . S
C82 O100 1.244 . S
C82 O103 1.265 . S
C83 C84 1.379 . S
C83 C87 1.373 . S
C83 C89 1.505 . S
C84 C83 1.379 . S
C84 C86 1.369 . S
C84 H112 0.930 . S
C85 C87 1.383 . S
C85 C88 1.382 . S
C85 H113 0.930 . S
C86 C84 1.369 . S
C86 C88 1.392 . S
C86 H114 0.930 . S
C87 C83 1.373 . S
C87 C85 1.383 . S
C87 H115 0.931 . S
C88 C85 1.382 . S
C88 C86 1.392 . S
C89 Eu80 2.828 . S
C89 C83 1.505 . S
C89 O101 1.249 . S
C89 O102 1.244 . S
O90 Eu81 2.373 . S
O90 C92 1.258 . S
O91 Eu80 2.392 . S
O91 C92 1.242 . S
C92 O90 1.258 . S
C92 O91 1.242 . S
O93 Eu80 2.418 . S
O93 C97 1.244 . S
O94 Eu81 2.488 . S
O94 C110 1.249 . S
O95 Eu81 2.471 . S
O95 C110 1.244 . S
O96 Eu81 2.349 . S
O96 C97 1.265 . S
C97 O93 1.244 . S
C97 O96 1.265 . S
O98 Eu80 2.373 . S
O98 C111 1.258 . S
O99 Eu81 2.392 . S
O99 C111 1.242 . S
O100 Eu81 2.418 . S
O100 C82 1.244 . S
O101 Eu80 2.488 . S
O101 C89 1.249 . S
O102 Eu80 2.471 . S
O102 C89 1.244 . S
O103 Eu80 2.349 . S
O103 C82 1.265 . S
C104 C105 1.379 . S
C104 C108 1.373 . S
C104 C110 1.505 . S
C105 C104 1.379 . S
C105 C107 1.369 . S
C105 H116 0.930 . S
C106 C108 1.383 . S
C106 C109 1.382 . S
C106 H117 0.930 . S
C107 C105 1.369 . S
C107 C109 1.392 . S
C107 H118 0.930 . S
C108 C104 1.373 . S
C108 C106 1.383 . S
C108 H119 0.931 . S
C109 C106 1.382 . S
C109 C107 1.392 . S
C110 Eu81 2.828 . S
C110 O94 1.249 . S
C110 O95 1.244 . S
C110 C104 1.505 . S
C111 O98 1.258 . S
C111 O99 1.242 . S
H112 C84 0.930 . S
H113 C85 0.930 . S
H114 C86 0.930 . S
H115 C87 0.931 . S
H116 C105 0.930 . S
H117 C106 0.930 . S
H118 C107 0.930 . S
H119 C108 0.931 . S
Eu120 C129 2.828 . S
Eu120 O131 2.392 . S
Eu120 O133 2.418 . S
Eu120 O138 2.373 . S
Eu120 O141 2.488 . S
Eu120 O142 2.471 . S
Eu120 O143 2.349 . S
Eu121 O130 2.373 . S
Eu121 O134 2.488 . S
Eu121 O135 2.471 . S
Eu121 O136 2.349 . S
Eu121 O139 2.392 . S
Eu121 O140 2.418 . S
Eu121 C150 2.828 . S
C122 O140 1.244 . S
C122 O143 1.265 . S
C123 C124 1.379 . S
C123 C127 1.373 . S
C123 C129 1.505 . S
C124 C123 1.379 . S
C124 C126 1.369 . S
C124 H152 0.930 . S
C125 C127 1.383 . S
C125 C128 1.382 . S
C125 H153 0.930 . S
C126 C124 1.369 . S
C126 C128 1.392 . S
C126 H154 0.930 . S
C127 C123 1.373 . S
C127 C125 1.383 . S
C127 H155 0.931 . S
C128 C125 1.382 . S
C128 C126 1.392 . S
C129 Eu120 2.828 . S
C129 C123 1.505 . S
C129 O141 1.249 . S
C129 O142 1.244 . S
O130 Eu121 2.373 . S
O130 C132 1.258 . S
O131 Eu120 2.392 . S
O131 C132 1.242 . S
C132 O130 1.258 . S
C132 O131 1.242 . S
O133 Eu120 2.418 . S
O133 C137 1.244 . S
O134 Eu121 2.488 . S
O134 C150 1.249 . S
O135 Eu121 2.471 . S
O135 C150 1.244 . S
O136 Eu121 2.349 . S
O136 C137 1.265 . S
C137 O133 1.244 . S
C137 O136 1.265 . S
O138 Eu120 2.373 . S
O138 C151 1.258 . S
O139 Eu121 2.392 . S
O139 C151 1.242 . S
O140 Eu121 2.418 . S
O140 C122 1.244 . S
O141 Eu120 2.488 . S
O141 C129 1.249 . S
O142 Eu120 2.471 . S
O142 C129 1.244 . S
O143 Eu120 2.349 . S
O143 C122 1.265 . S
C144 C145 1.379 . S
C144 C148 1.373 . S
C144 C150 1.505 . S
C145 C144 1.379 . S
C145 C147 1.369 . S
C145 H156 0.930 . S
C146 C148 1.383 . S
C146 C149 1.382 . S
C146 H157 0.930 . S
C147 C145 1.369 . S
C147 C149 1.392 . S
C147 H158 0.930 . S
C148 C144 1.373 . S
C148 C146 1.383 . S
C148 H159 0.931 . S
C149 C146 1.382 . S
C149 C147 1.392 . S
C150 Eu121 2.828 . S
C150 O134 1.249 . S
C150 O135 1.244 . S
C150 C144 1.505 . S
C151 O138 1.258 . S
C151 O139 1.242 . S
H152 C124 0.930 . S
H153 C125 0.930 . S
H154 C126 0.930 . S
H155 C127 0.931 . S
H156 C145 0.930 . S
H157 C146 0.930 . S
H158 C147 0.930 . S
H159 C148 0.931 . S
H160 C168 0.929 . S
H161 C170 0.930 . S
H162 C172 0.930 . S
H163 C175 0.929 . S
H164 C178 0.930 . S
H165 C180 0.960 . S
H166 C180 0.960 . S
H167 C180 0.960 . S
C168 H160 0.929 . S
C168 C169 1.377 . S
C168 C170 1.384 . S
C169 C168 1.377 . S
C169 C175 1.390 1_554 S
C170 H161 0.930 . S
C170 C168 1.384 . S
C170 C171 1.372 . S
C171 C170 1.372 . S
C171 C172 1.400 1_554 S
C171 C176 1.490 . S
C172 H162 0.930 . S
C172 C171 1.400 1_556 S
C172 C175 1.386 . S
H173 C189 0.930 . S
H174 C190 0.931 . S
C175 H163 0.929 . S
C175 C169 1.390 1_556 S
C175 C172 1.386 . S
C176 C171 1.490 . S
C176 C178 1.395 . S
C176 C179 1.403 1_554 S
H177 C183 0.930 . S
C178 H164 0.930 . S
C178 C176 1.395 . S
C178 C181 1.403 . S
C179 C176 1.403 1_556 S
C179 C180 1.524 . S
C179 C183 1.400 . S
C180 H165 0.960 . S
C180 H166 0.960 . S
C180 H167 0.960 . S
C180 C179 1.524 . S
C181 C178 1.403 . S
C181 C182 1.392 . S
C181 C185 1.495 . S
C182 C181 1.392 . S
C182 C183 1.385 1_554 S
C182 C184 1.478 . S
C183 H177 0.930 . S
C183 C179 1.400 . S
C183 C182 1.385 1_556 S
C184 C182 1.478 . S
C184 C186 1.381 . S
C184 C190 1.383 . S
C185 C181 1.495 . S
C185 H191 0.959 . S
C185 H192 0.961 . S
C185 H193 0.960 . S
C186 C184 1.381 . S
C186 C187 1.394 . S
C186 H194 0.930 . S
C187 C186 1.394 . S
C187 C188 1.383 . S
C187 H195 0.929 . S
C188 C187 1.383 . S
C188 C189 1.377 . S
C189 H173 0.930 . S
C189 C188 1.377 . S
C189 C190 1.379 . S
C190 H174 0.931 . S
C190 C184 1.383 . S
C190 C189 1.379 . S
H191 C185 0.959 . S
H192 C185 0.961 . S
H193 C185 0.960 . S
H194 C186 0.930 . S
H195 C187 0.929 . S
H196 C204 0.929 . S
H197 C206 0.930 . S
H198 C208 0.930 . S
H199 C211 0.929 . S
H200 C214 0.930 . S
H201 C216 0.960 . S
H202 C216 0.960 . S
H203 C216 0.960 . S
C204 H196 0.929 . S
C204 C205 1.377 . S
C204 C206 1.384 . S
C205 C204 1.377 . S
C205 C211 1.390 . S
C206 H197 0.930 . S
C206 C204 1.384 . S
C206 C207 1.372 . S
C207 C206 1.372 . S
C207 C208 1.400 . S
C207 C212 1.490 . S
C208 H198 0.930 . S
C208 C207 1.400 . S
C208 C211 1.386 . S
H209 C225 0.930 . S
H210 C226 0.931 . S
C211 H199 0.929 . S
C211 C205 1.390 . S
C211 C208 1.386 . S
C212 C207 1.490 . S
C212 C214 1.395 . S
C212 C215 1.403 . S
H213 C219 0.930 . S
C214 H200 0.930 . S
C214 C212 1.395 . S
C214 C217 1.403 . S
C215 C212 1.403 . S
C215 C216 1.524 . S
C215 C219 1.400 . S
C216 H201 0.960 . S
C216 H202 0.960 . S
C216 H203 0.960 . S
C216 C215 1.524 . S
C217 C214 1.403 . S
C217 C218 1.392 . S
C217 C221 1.495 . S
C218 C217 1.392 . S
C218 C219 1.385 . S
C218 C220 1.478 . S
C219 H213 0.930 . S
C219 C215 1.400 . S
C219 C218 1.385 . S
C220 C218 1.478 . S
C220 C222 1.381 . S
C220 C226 1.383 . S
C221 C217 1.495 . S
C221 H227 0.959 . S
C221 H228 0.961 . S
C221 H229 0.960 . S
C222 C220 1.381 . S
C222 C223 1.394 . S
C222 H230 0.930 . S
C223 C222 1.394 . S
C223 C224 1.383 . S
C223 H231 0.929 . S
C224 C223 1.383 . S
C224 C225 1.377 . S
C225 H209 0.930 . S
C225 C224 1.377 . S
C225 C226 1.379 . S
C226 H210 0.931 . S
C226 C220 1.383 . S
C226 C225 1.379 . S
H227 C221 0.959 . S
H228 C221 0.961 . S
H229 C221 0.960 . S
H230 C222 0.930 . S
H231 C223 0.929 . S
H232 C240 0.929 . S
H233 C242 0.930 . S
H234 C244 0.930 . S
H235 C247 0.929 . S
H236 C250 0.930 . S
H237 C252 0.960 . S
H238 C252 0.963 . S
H239 C252 0.960 . S
C240 H232 0.929 . S
C240 C241 1.377 1_556 S
C240 C242 1.384 . S
C241 C240 1.377 1_554 S
C241 C247 1.390 . S
C242 H233 0.930 . S
C242 C240 1.384 . S
C242 C243 1.366 1_556 S
C243 C242 1.366 1_554 S
C243 C244 1.406 . S
C243 C248 1.490 1_554 S
C244 H234 0.930 . S
C244 C243 1.406 . S
C244 C247 1.386 . S
H245 C261 0.930 . S
H246 C262 0.931 . S
C247 H235 0.929 . S
C247 C241 1.390 . S
C247 C244 1.386 . S
C248 C243 1.490 1_556 S
C248 C250 1.394 1_545 S
C248 C251 1.403 1_456 S
H249 C255 0.930 . S
C250 H236 0.930 . S
C250 C248 1.394 1_565 S
C250 C253 1.403 . S
C251 C248 1.403 1_654 S
C251 C252 1.524 . S
C251 C255 1.400 1_545 S
C252 H237 0.960 . S
C252 H238 0.963 . S
C252 H239 0.960 . S
C252 C251 1.524 . S
C253 C250 1.403 . S
C253 C254 1.400 1_455 S
C253 C257 1.495 . S
C254 C253 1.400 1_655 S
C254 C255 1.380 1_556 S
C254 C256 1.476 1_556 S
C255 H249 0.930 . S
C255 C251 1.400 1_565 S
C255 C254 1.380 1_554 S
C256 C254 1.476 1_554 S
C256 C258 1.383 1_554 S
C256 C262 1.381 . S
C257 C253 1.495 . S
C257 H263 0.959 . S
C257 H264 0.961 . S
C257 H265 0.960 . S
C258 C256 1.383 1_556 S
C258 C259 1.394 . S
C258 H266 0.930 . S
C259 C258 1.394 . S
C259 C260 1.383 1_556 S
C259 H267 0.929 . S
C260 C259 1.383 1_554 S
C260 C261 1.377 . S
C261 H245 0.930 . S
C261 C260 1.377 . S
C261 C262 1.379 . S
C262 H246 0.931 . S
C262 C256 1.381 . S
C262 C261 1.379 . S
H263 C257 0.959 . S
H264 C257 0.961 . S
H265 C257 0.960 . S
H266 C258 0.930 . S
H267 C259 0.929 . S
H268 C276 0.929 . S
H269 C278 0.930 . S
H270 C280 0.930 . S
H271 C283 0.929 . S
H272 C286 0.930 . S
H273 C288 0.960 . S
H274 C288 0.960 . S
H275 C288 0.960 . S
C276 H268 0.929 . S
C276 C277 1.377 . S
C276 C278 1.384 . S
C277 C276 1.377 . S
C277 C283 1.390 . S
C278 H269 0.930 . S
C278 C276 1.384 . S
C278 C279 1.372 . S
C279 C278 1.372 . S
C279 C280 1.400 . S
C279 C284 1.490 . S
C280 H270 0.930 . S
C280 C279 1.400 . S
C280 C283 1.386 . S
H281 C297 0.930 . S
H282 C298 0.931 . S
C283 H271 0.929 . S
C283 C277 1.390 . S
C283 C280 1.386 . S
C284 C279 1.490 . S
C284 C286 1.395 1_545 S
C284 C287 1.403 1_655 S
H285 C291 0.930 . S
C286 H272 0.930 . S
C286 C284 1.395 1_565 S
C286 C289 1.403 . S
C287 C284 1.403 1_455 S
C287 C288 1.524 . S
C287 C291 1.400 1_545 S
C288 H273 0.960 . S
C288 H274 0.960 . S
C288 H275 0.960 . S
C288 C287 1.524 . S
C289 C286 1.403 . S
C289 C290 1.392 1_655 S
C289 C293 1.495 . S
C290 C289 1.392 1_455 S
C290 C291 1.385 . S
C290 C292 1.478 . S
C291 H285 0.930 . S
C291 C287 1.400 1_565 S
C291 C290 1.385 . S
C292 C290 1.478 . S
C292 C294 1.381 . S
C292 C298 1.383 . S
C293 C289 1.495 . S
C293 H299 0.959 . S
C293 H300 0.961 . S
C293 H301 0.960 . S
C294 C292 1.381 . S
C294 C295 1.394 . S
C294 H302 0.930 . S
C295 C294 1.394 . S
C295 C296 1.383 . S
C295 H303 0.929 . S
C296 C295 1.383 . S
C296 C297 1.377 . S
C297 H281 0.930 . S
C297 C296 1.377 . S
C297 C298 1.379 . S
C298 H282 0.931 . S
C298 C292 1.383 . S
C298 C297 1.379 . S
H299 C293 0.959 . S
H300 C293 0.961 . S
H301 C293 0.960 . S
H302 C294 0.930 . S
H303 C295 0.929 . S
H304 C312 0.929 . S
H305 C314 0.930 . S
H306 C316 0.930 . S
H307 C319 0.929 . S
H308 C322 0.930 . S
H309 C324 0.960 . S
H310 C324 0.960 . S
H311 C324 0.960 . S
C312 H304 0.929 . S
C312 C313 1.377 . S
C312 C314 1.384 . S
C313 C312 1.377 . S
C313 C319 1.390 . S
C314 H305 0.930 . S
C314 C312 1.384 . S
C314 C315 1.372 . S
C315 C314 1.372 . S
C315 C316 1.400 . S
C315 C320 1.490 . S
C316 H306 0.930 . S
C316 C315 1.400 . S
C316 C319 1.386 . S
H317 C333 0.930 . S
H318 C334 0.931 . S
C319 H307 0.929 . S
C319 C313 1.390 . S
C319 C316 1.386 . S
C320 C315 1.490 . S
C320 C322 1.395 . S
C320 C323 1.403 . S
H321 C327 0.930 . S
C322 H308 0.930 . S
C322 C320 1.395 . S
C322 C325 1.403 . S
C323 C320 1.403 . S
C323 C324 1.524 . S
C323 C327 1.400 . S
C324 H309 0.960 . S
C324 H310 0.960 . S
C324 H311 0.960 . S
C324 C323 1.524 . S
C325 C322 1.403 . S
C325 C326 1.392 . S
C325 C329 1.495 . S
C326 C325 1.392 . S
C326 C327 1.385 . S
C326 C328 1.478 . S
C327 H321 0.930 . S
C327 C323 1.400 . S
C327 C326 1.385 . S
C328 C326 1.478 . S
C328 C330 1.381 . S
C328 C334 1.383 . S
C329 C325 1.495 . S
C329 H335 0.959 . S
C329 H336 0.961 . S
C329 H337 0.960 . S
C330 C328 1.381 . S
C330 C331 1.394 . S
C330 H338 0.930 . S
C331 C330 1.394 . S
C331 C332 1.383 . S
C331 H339 0.929 . S
C332 C331 1.383 . S
C332 C333 1.377 . S
C333 H317 0.930 . S
C333 C332 1.377 . S
C333 C334 1.379 . S
C334 H318 0.931 . S
C334 C328 1.383 . S
C334 C333 1.379 . S
H335 C329 0.959 . S
H336 C329 0.961 . S
H337 C329 0.960 . S
H338 C330 0.930 . S
H339 C331 0.929 . S
H340 C348 0.929 . S
H341 C350 0.930 . S
H342 C352 0.930 . S
H343 C355 0.929 . S
H344 C358 0.930 . S
H345 C360 0.960 . S
H346 C360 0.960 . S
H347 C360 0.960 . S
C348 H340 0.929 . S
C348 C349 1.377 . S
C348 C350 1.384 . S
C349 C348 1.377 . S
C349 C355 1.390 . S
C350 H341 0.930 . S
C350 C348 1.384 . S
C350 C351 1.372 . S
C351 C350 1.372 . S
C351 C352 1.400 . S
C351 C356 1.490 . S
C352 H342 0.930 . S
C352 C351 1.400 . S
C352 C355 1.386 . S
H353 C369 0.930 . S
H354 C370 0.931 . S
C355 H343 0.929 . S
C355 C349 1.390 . S
C355 C352 1.386 . S
C356 C351 1.490 . S
C356 C358 1.395 . S
C356 C359 1.403 . S
H357 C363 0.930 . S
C358 H344 0.930 . S
C358 C356 1.395 . S
C358 C361 1.403 . S
C359 C356 1.403 . S
C359 C360 1.524 . S
C359 C363 1.400 . S
C360 H345 0.960 . S
C360 H346 0.960 . S
C360 H347 0.960 . S
C360 C359 1.524 . S
C361 C358 1.403 . S
C361 C362 1.392 . S
C361 C365 1.495 . S
C362 C361 1.392 . S
C362 C363 1.385 . S
C362 C364 1.478 . S
C363 H357 0.930 . S
C363 C359 1.400 . S
C363 C362 1.385 . S
C364 C362 1.478 . S
C364 C366 1.381 . S
C364 C370 1.383 . S
C365 C361 1.495 . S
C365 H371 0.959 . S
C365 H372 0.961 . S
C365 H373 0.960 . S
C366 C364 1.381 . S
C366 C367 1.394 . S
C366 H374 0.930 . S
C367 C366 1.394 . S
C367 C368 1.383 . S
C367 H375 0.929 . S
C368 C367 1.383 . S
C368 C369 1.377 . S
C369 H353 0.930 . S
C369 C368 1.377 . S
C369 C370 1.379 . S
C370 H354 0.931 . S
C370 C364 1.383 . S
C370 C369 1.379 . S
H371 C365 0.959 . S
H372 C365 0.961 . S
H373 C365 0.960 . S
H374 C366 0.930 . S
H375 C367 0.929 . S
H376 C384 0.929 . S
H377 C386 0.930 . S
H378 C388 0.930 . S
H379 C391 0.929 . S
H380 C394 0.930 . S
H381 C396 0.960 . S
H382 C396 0.960 . S
H383 C396 0.960 . S
C384 H376 0.929 . S
C384 C385 1.377 . S
C384 C386 1.384 . S
C385 C384 1.377 . S
C385 C391 1.390 . S
C386 H377 0.930 . S
C386 C384 1.384 . S
C386 C387 1.372 . S
C387 C386 1.372 . S
C387 C388 1.400 . S
C387 C392 1.490 . S
C388 H378 0.930 . S
C388 C387 1.400 . S
C388 C391 1.386 . S
H389 C405 0.930 . S
H390 C406 0.931 . S
C391 H379 0.929 . S
C391 C385 1.390 . S
C391 C388 1.386 . S
C392 C387 1.490 . S
C392 C394 1.395 . S
C392 C395 1.403 . S
H393 C399 0.930 . S
C394 H380 0.930 . S
C394 C392 1.395 . S
C394 C397 1.403 . S
C395 C392 1.403 . S
C395 C396 1.524 . S
C395 C399 1.400 . S
C396 H381 0.960 . S
C396 H382 0.960 . S
C396 H383 0.960 . S
C396 C395 1.524 . S
C397 C394 1.403 . S
C397 C398 1.392 . S
C397 C401 1.495 . S
C398 C397 1.392 . S
C398 C399 1.385 . S
C398 C400 1.478 . S
C399 H393 0.930 . S
C399 C395 1.400 . S
C399 C398 1.385 . S
C400 C398 1.478 . S
C400 C402 1.381 . S
C400 C406 1.383 . S
C401 C397 1.495 . S
C401 H407 0.959 . S
C401 H408 0.961 . S
C401 H409 0.960 . S
C402 C400 1.381 . S
C402 C403 1.394 . S
C402 H410 0.930 . S
C403 C402 1.394 . S
C403 C404 1.383 . S
C403 H411 0.929 . S
C404 C403 1.383 . S
C404 C405 1.377 . S
C405 H389 0.930 . S
C405 C404 1.377 . S
C405 C406 1.379 . S
C406 H390 0.931 . S
C406 C400 1.383 . S
C406 C405 1.379 . S
H407 C401 0.959 . S
H408 C401 0.961 . S
H409 C401 0.960 . S
H410 C402 0.930 . S
H411 C403 0.929 . S
H412 C420 0.929 . S
H413 C422 0.930 . S
H414 C424 0.930 . S
H415 C427 0.929 . S
H416 C430 0.930 . S
H417 C432 0.960 . S
H418 C432 0.960 . S
H419 C432 0.960 . S
C420 H412 0.929 . S
C420 C421 1.377 . S
C420 C422 1.384 . S
C421 C420 1.377 . S
C421 C427 1.390 . S
C422 H413 0.930 . S
C422 C420 1.384 . S
C422 C423 1.372 . S
C423 C422 1.372 . S
C423 C424 1.400 . S
C423 C428 1.490 . S
C424 H414 0.930 . S
C424 C423 1.400 . S
C424 C427 1.386 . S
H425 C441 0.930 . S
H426 C442 0.931 . S
C427 H415 0.929 . S
C427 C421 1.390 . S
C427 C424 1.386 . S
C428 C423 1.490 . S
C428 C430 1.395 . S
C428 C431 1.403 . S
H429 C435 0.930 . S
C430 H416 0.930 . S
C430 C428 1.395 . S
C430 C433 1.403 . S
C431 C428 1.403 . S
C431 C432 1.524 . S
C431 C435 1.400 . S
C432 H417 0.960 . S
C432 H418 0.960 . S
C432 H419 0.960 . S
C432 C431 1.524 . S
C433 C430 1.403 . S
C433 C434 1.392 . S
C433 C437 1.495 . S
C434 C433 1.392 . S
C434 C435 1.385 . S
C434 C436 1.478 . S
C435 H429 0.930 . S
C435 C431 1.400 . S
C435 C434 1.385 . S
C436 C434 1.478 . S
C436 C438 1.381 . S
C436 C442 1.383 . S
C437 C433 1.495 . S
C437 H443 0.959 . S
C437 H444 0.961 . S
C437 H445 0.960 . S
C438 C436 1.381 . S
C438 C439 1.394 . S
C438 H446 0.930 . S
C439 C438 1.394 . S
C439 C440 1.383 . S
C439 H447 0.929 . S
C440 C439 1.383 . S
C440 C441 1.377 . S
C441 H425 0.930 . S
C441 C440 1.377 . S
C441 C442 1.379 . S
C442 H426 0.931 . S
C442 C436 1.383 . S
C442 C441 1.379 . S
H443 C437 0.959 . S
H444 C437 0.961 . S
H445 C437 0.960 . S
H446 C438 0.930 . S
H447 C439 0.929 . S
H448 C456 0.929 . S
H449 C458 0.930 . S
H450 C460 0.930 . S
H451 C463 0.929 . S
H452 C466 0.930 1_455 S
H453 C468 0.960 . S
H454 C468 0.960 . S
H455 C468 0.960 . S
C456 H448 0.929 . S
C456 C457 1.377 . S
C456 C458 1.384 . S
C457 C456 1.377 . S
C457 C463 1.390 . S
C458 H449 0.930 . S
C458 C456 1.384 . S
C458 C459 1.372 . S
C459 C458 1.372 . S
C459 C460 1.400 . S
C459 C464 1.490 . S
C460 H450 0.930 . S
C460 C459 1.400 . S
C460 C463 1.386 . S
H461 C477 0.930 . S
H462 C478 0.931 . S
C463 H451 0.929 . S
C463 C457 1.390 . S
C463 C460 1.386 . S
C464 C459 1.490 . S
C464 C466 1.395 . S
C464 C467 1.403 . S
H465 C471 0.930 . S
C466 H452 0.930 1_655 S
C466 C464 1.395 . S
C466 C469 1.403 1_655 S
C467 C464 1.403 . S
C467 C468 1.524 . S
C467 C471 1.400 . S
C468 H453 0.960 . S
C468 H454 0.960 . S
C468 H455 0.960 . S
C468 C467 1.524 . S
C469 C466 1.403 1_455 S
C469 C470 1.392 1_455 S
C469 C473 1.495 . S
C470 C469 1.392 1_655 S
C470 C471 1.385 . S
C470 C472 1.478 . S
C471 H465 0.930 . S
C471 C467 1.400 . S
C471 C470 1.385 . S
C472 C470 1.478 . S
C472 C474 1.381 1_655 S
C472 C478 1.383 . S
C473 C469 1.495 . S
C473 H479 0.959 . S
C473 H480 0.961 . S
C473 H481 0.960 . S
C474 C472 1.381 1_455 S
C474 C475 1.394 . S
C474 H482 0.930 . S
C475 C474 1.394 . S
C475 C476 1.383 . S
C475 H483 0.929 . S
C476 C475 1.383 . S
C476 C477 1.377 . S
C477 H461 0.930 . S
C477 C476 1.377 . S
C477 C478 1.379 1_455 S
C478 H462 0.931 . S
C478 C472 1.383 . S
C478 C477 1.379 1_655 S
H479 C473 0.959 . S
H480 C473 0.961 . S
H481 C473 0.960 . S
H482 C474 0.930 . S
H483 C475 0.929 . S
H484 C492 0.929 . S
H485 C494 0.930 . S
H486 C496 0.930 . S
H487 C499 0.929 . S
H488 C502 0.930 . S
H489 C504 0.960 . S
H490 C504 0.960 . S
H491 C504 0.960 . S
C492 H484 0.929 . S
C492 C493 1.377 . S
C492 C494 1.384 . S
C493 C492 1.377 . S
C493 C499 1.390 . S
C494 H485 0.930 . S
C494 C492 1.384 . S
C494 C495 1.372 . S
C495 C494 1.372 . S
C495 C496 1.400 . S
C495 C500 1.490 . S
C496 H486 0.930 . S
C496 C495 1.400 . S
C496 C499 1.386 . S
H497 C513 0.930 . S
H498 C514 0.931 . S
C499 H487 0.929 . S
C499 C493 1.390 . S
C499 C496 1.386 . S
C500 C495 1.490 . S
C500 C502 1.395 . S
C500 C503 1.403 . S
H501 C507 0.930 . S
C502 H488 0.930 . S
C502 C500 1.395 . S
C502 C505 1.403 . S
C503 C500 1.403 . S
C503 C504 1.524 . S
C503 C507 1.400 . S
C504 H489 0.960 . S
C504 H490 0.960 . S
C504 H491 0.960 . S
C504 C503 1.524 . S
C505 C502 1.403 . S
C505 C506 1.392 . S
C505 C509 1.495 1_655 S
C506 C505 1.392 . S
C506 C507 1.385 . S
C506 C508 1.478 . S
C507 H501 0.930 . S
C507 C503 1.400 . S
C507 C506 1.385 . S
C508 C506 1.478 . S
C508 C510 1.381 . S
C508 C514 1.383 1_655 S
C509 C505 1.495 1_455 S
C509 H515 0.959 . S
C509 H516 0.961 . S
C509 H517 0.960 . S
C510 C508 1.381 . S
C510 C511 1.394 . S
C510 H518 0.930 . S
C511 C510 1.394 . S
C511 C512 1.383 1_655 S
C511 H519 0.929 . S
C512 C511 1.383 1_455 S
C512 C513 1.377 . S
C513 H497 0.930 . S
C513 C512 1.377 . S
C513 C514 1.379 . S
C514 H498 0.931 . S
C514 C508 1.383 1_455 S
C514 C513 1.379 . S
H515 C509 0.959 . S
H516 C509 0.961 . S
H517 C509 0.960 . S
H518 C510 0.930 . S
H519 C511 0.929 . S
H520 C528 0.929 . S
H521 C530 0.930 . S
H522 C532 0.930 . S
H523 C535 0.929 . S
H524 C538 0.930 . S
H525 C540 0.960 . S
H526 C540 0.960 . S
H527 C540 0.960 . S
C528 H520 0.929 . S
C528 C529 1.377 . S
C528 C530 1.384 1_655 S
C529 C528 1.377 . S
C529 C535 1.390 . S
C530 H521 0.930 . S
C530 C528 1.384 1_455 S
C530 C531 1.372 . S
C531 C530 1.372 . S
C531 C532 1.400 . S
C531 C536 1.490 . S
C532 H522 0.930 . S
C532 C531 1.400 . S
C532 C535 1.385 1_455 S
H533 C549 0.930 . S
H534 C550 0.931 . S
C535 H523 0.929 . S
C535 C529 1.390 . S
C535 C532 1.385 1_655 S
C536 C531 1.490 . S
C536 C538 1.395 . S
C536 C539 1.403 . S
H537 C543 0.930 . S
C538 H524 0.930 . S
C538 C536 1.395 . S
C538 C541 1.403 . S
C539 C536 1.403 . S
C539 C540 1.524 1_455 S
C539 C543 1.400 . S
C540 H525 0.960 . S
C540 H526 0.960 . S
C540 H527 0.960 . S
C540 C539 1.524 1_655 S
C541 C538 1.403 . S
C541 C542 1.392 . S
C541 C545 1.495 . S
C542 C541 1.392 . S
C542 C543 1.385 . S
C542 C544 1.478 . S
C543 H537 0.930 . S
C543 C539 1.400 . S
C543 C542 1.385 . S
C544 C542 1.478 . S
C544 C546 1.381 . S
C544 C550 1.383 . S
C545 C541 1.495 . S
C545 H551 0.959 . S
C545 H552 0.961 . S
C545 H553 0.960 . S
C546 C544 1.381 . S
C546 C547 1.394 . S
C546 H554 0.930 . S
C547 C546 1.394 . S
C547 C548 1.383 . S
C547 H555 0.929 . S
C548 C547 1.383 . S
C548 C549 1.377 . S
C549 H533 0.930 . S
C549 C548 1.377 . S
C549 C550 1.379 . S
C550 H534 0.931 . S
C550 C544 1.383 . S
C550 C549 1.379 . S
H551 C545 0.959 . S
H552 C545 0.961 . S
H553 C545 0.960 . S
H554 C546 0.930 . S
H555 C547 0.929 . S
H556 C564 0.929 . S
H557 C566 0.930 . S
H558 C568 0.930 . S
H559 C571 0.929 . S
H560 C574 0.930 . S
H561 C576 0.960 . S
H562 C576 0.960 1_455 S
H563 C576 0.960 . S
C564 H556 0.929 . S
C564 C565 1.377 . S
C564 C566 1.384 . S
C565 C564 1.377 . S
C565 C571 1.390 . S
C566 H557 0.930 . S
C566 C564 1.384 . S
C566 C567 1.372 . S
C567 C566 1.372 . S
C567 C568 1.400 . S
C567 C572 1.490 . S
C568 H558 0.930 . S
C568 C567 1.400 . S
C568 C571 1.386 . S
H569 C585 0.930 . S
H570 C586 0.931 . S
C571 H559 0.929 . S
C571 C565 1.390 . S
C571 C568 1.386 . S
C572 C567 1.490 . S
C572 C574 1.395 . S
C572 C575 1.403 . S
H573 C579 0.930 1_655 S
C574 H560 0.930 . S
C574 C572 1.395 . S
C574 C577 1.403 . S
C575 C572 1.403 . S
C575 C576 1.524 1_455 S
C575 C579 1.400 . S
C576 H561 0.960 . S
C576 H562 0.960 1_655 S
C576 H563 0.960 . S
C576 C575 1.524 1_655 S
C577 C574 1.403 . S
C577 C578 1.392 . S
C577 C581 1.495 . S
C578 C577 1.392 . S
C578 C579 1.385 . S
C578 C580 1.478 . S
C579 H573 0.930 1_455 S
C579 C575 1.400 . S
C579 C578 1.385 . S
C580 C578 1.478 . S
C580 C582 1.381 . S
C580 C586 1.383 1_455 S
C581 C577 1.495 . S
C581 H587 0.959 . S
C581 H588 0.961 . S
C581 H589 0.960 . S
C582 C580 1.381 . S
C582 C583 1.394 . S
C582 H590 0.930 . S
C583 C582 1.394 . S
C583 C584 1.383 1_455 S
C583 H591 0.929 . S
C584 C583 1.383 1_655 S
C584 C585 1.377 . S
C585 H569 0.930 . S
C585 C584 1.377 . S
C585 C586 1.379 . S
C586 H570 0.931 . S
C586 C580 1.383 1_655 S
C586 C585 1.379 . S
H587 C581 0.959 . S
H588 C581 0.961 . S
H589 C581 0.960 . S
H590 C582 0.930 . S
H591 C583 0.929 . S
C169 C42 1.499 1_554 S
C188 C17 1.491 . S
C205 C97 1.506 . S
C224 C122 1.504 . S
C241 C2 1.502 1_554 S
C260 C57 1.513 . S
C277 C137 1.506 . S
C296 C82 1.512 . S
C313 C128 1.221 . S
C332 C31 1.210 . S
C349 C48 1.220 . S
C368 C111 1.221 . S
C385 C52 1.220 . S
C404 C109 1.220 . S
C421 C132 1.218 . S
C440 C29 1.215 . S
C457 C71 1.219 . S
C476 C88 1.219 . S
C493 C151 1.218 . S
C512 C8 1.221 . S
C529 C149 1.220 . S
C548 C12 1.210 . S
C565 C92 1.219 . S
C584 C69 1.215 . S
