# Generated by pormake.
# Topology etf, (3)-cn, num edge types: 1
# Building blocks:
#     Node 0, Type 0, BuildingBlock: OLANEW_clean_sbu_2, # of connection points: 3
#     Node 1, Type 0, BuildingBlock: OLANEW_clean_sbu_2, # of connection points: 3
#     Node 2, Type 0, BuildingBlock: OLANEW_clean_sbu_2, # of connection points: 3
#     Node 3, Type 0, BuildingBlock: OLANEW_clean_sbu_2, # of connection points: 3
#     Node 4, Type 0, BuildingBlock: OLANEW_clean_sbu_2, # of connection points: 3
#     Node 5, Type 0, BuildingBlock: OLANEW_clean_sbu_2, # of connection points: 3
#     Node 6, Type 0, BuildingBlock: OLANEW_clean_sbu_2, # of connection points: 3
#     Node 7, Type 0, BuildingBlock: OLANEW_clean_sbu_2, # of connection points: 3
#     Node 8, Type 0, BuildingBlock: OLANEW_clean_sbu_2, # of connection points: 3
#     Node 9, Type 0, BuildingBlock: OLANEW_clean_sbu_2, # of connection points: 3
#     Node 10, Type 0, BuildingBlock: OLANEW_clean_sbu_2, # of connection points: 3
#     Node 11, Type 0, BuildingBlock: OLANEW_clean_sbu_2, # of connection points: 3
#     Node 12, Type 0, BuildingBlock: OLANEW_clean_sbu_2, # of connection points: 3
#     Node 13, Type 0, BuildingBlock: OLANEW_clean_sbu_2, # of connection points: 3
#     Node 14, Type 0, BuildingBlock: OLANEW_clean_sbu_2, # of connection points: 3
#     Node 15, Type 0, BuildingBlock: OLANEW_clean_sbu_2, # of connection points: 3
#     Node 16, Type 0, BuildingBlock: OLANEW_clean_sbu_2, # of connection points: 3
#     Node 17, Type 0, BuildingBlock: OLANEW_clean_sbu_2, # of connection points: 3
#     Node 18, Type 0, BuildingBlock: OLANEW_clean_sbu_2, # of connection points: 3
#     Node 19, Type 0, BuildingBlock: OLANEW_clean_sbu_2, # of connection points: 3
#     Node 20, Type 0, BuildingBlock: OLANEW_clean_sbu_2, # of connection points: 3
#     Node 21, Type 0, BuildingBlock: OLANEW_clean_sbu_2, # of connection points: 3
#     Node 22, Type 0, BuildingBlock: OLANEW_clean_sbu_2, # of connection points: 3
#     Node 23, Type 0, BuildingBlock: OLANEW_clean_sbu_2, # of connection points: 3
#     Node 24, Type 0, BuildingBlock: OLANEW_clean_sbu_2, # of connection points: 3
#     Node 25, Type 0, BuildingBlock: OLANEW_clean_sbu_2, # of connection points: 3
#     Node 26, Type 0, BuildingBlock: OLANEW_clean_sbu_2, # of connection points: 3
#     Node 27, Type 0, BuildingBlock: OLANEW_clean_sbu_2, # of connection points: 3
#     Node 28, Type 0, BuildingBlock: OLANEW_clean_sbu_2, # of connection points: 3
#     Node 29, Type 0, BuildingBlock: OLANEW_clean_sbu_2, # of connection points: 3
#     Node 30, Type 0, BuildingBlock: OLANEW_clean_sbu_2, # of connection points: 3
#     Node 31, Type 0, BuildingBlock: OLANEW_clean_sbu_2, # of connection points: 3
#     Node 32, Type 0, BuildingBlock: OLANEW_clean_sbu_2, # of connection points: 3
#     Node 33, Type 0, BuildingBlock: OLANEW_clean_sbu_2, # of connection points: 3
#     Node 34, Type 0, BuildingBlock: OLANEW_clean_sbu_2, # of connection points: 3
#     Node 35, Type 0, BuildingBlock: OLANEW_clean_sbu_2, # of connection points: 3
#     Edge 36, Type (0, 0), BuildingBlock: OJICUG_clean_linker_0, # of connection points: 2
#     Edge 37, Type (0, 0), BuildingBlock: OJICUG_clean_linker_0, # of connection points: 2
#     Edge 38, Type (0, 0), BuildingBlock: OJICUG_clean_linker_0, # of connection points: 2
#     Edge 39, Type (0, 0), BuildingBlock: OJICUG_clean_linker_0, # of connection points: 2
#     Edge 40, Type (0, 0), BuildingBlock: OJICUG_clean_linker_0, # of connection points: 2
#     Edge 41, Type (0, 0), BuildingBlock: OJICUG_clean_linker_0, # of connection points: 2
#     Edge 42, Type (0, 0), BuildingBlock: OJICUG_clean_linker_0, # of connection points: 2
#     Edge 43, Type (0, 0), BuildingBlock: OJICUG_clean_linker_0, # of connection points: 2
#     Edge 44, Type (0, 0), BuildingBlock: OJICUG_clean_linker_0, # of connection points: 2
#     Edge 45, Type (0, 0), BuildingBlock: OJICUG_clean_linker_0, # of connection points: 2
#     Edge 46, Type (0, 0), BuildingBlock: OJICUG_clean_linker_0, # of connection points: 2
#     Edge 47, Type (0, 0), BuildingBlock: OJICUG_clean_linker_0, # of connection points: 2
#     Edge 48, Type (0, 0), BuildingBlock: OJICUG_clean_linker_0, # of connection points: 2
#     Edge 49, Type (0, 0), BuildingBlock: OJICUG_clean_linker_0, # of connection points: 2
#     Edge 50, Type (0, 0), BuildingBlock: OJICUG_clean_linker_0, # of connection points: 2
#     Edge 51, Type (0, 0), BuildingBlock: OJICUG_clean_linker_0, # of connection points: 2
#     Edge 52, Type (0, 0), BuildingBlock: OJICUG_clean_linker_0, # of connection points: 2
#     Edge 53, Type (0, 0), BuildingBlock: OJICUG_clean_linker_0, # of connection points: 2
#     Edge 54, Type (0, 0), BuildingBlock: OJICUG_clean_linker_0, # of connection points: 2
#     Edge 55, Type (0, 0), BuildingBlock: OJICUG_clean_linker_0, # of connection points: 2
#     Edge 56, Type (0, 0), BuildingBlock: OJICUG_clean_linker_0, # of connection points: 2
#     Edge 57, Type (0, 0), BuildingBlock: OJICUG_clean_linker_0, # of connection points: 2
#     Edge 58, Type (0, 0), BuildingBlock: OJICUG_clean_linker_0, # of connection points: 2
#     Edge 59, Type (0, 0), BuildingBlock: OJICUG_clean_linker_0, # of connection points: 2
#     Edge 60, Type (0, 0), BuildingBlock: OJICUG_clean_linker_0, # of connection points: 2
#     Edge 61, Type (0, 0), BuildingBlock: OJICUG_clean_linker_0, # of connection points: 2
#     Edge 62, Type (0, 0), BuildingBlock: OJICUG_clean_linker_0, # of connection points: 2
#     Edge 63, Type (0, 0), BuildingBlock: OJICUG_clean_linker_0, # of connection points: 2
#     Edge 64, Type (0, 0), BuildingBlock: OJICUG_clean_linker_0, # of connection points: 2
#     Edge 65, Type (0, 0), BuildingBlock: OJICUG_clean_linker_0, # of connection points: 2
#     Edge 66, Type (0, 0), BuildingBlock: OJICUG_clean_linker_0, # of connection points: 2
#     Edge 67, Type (0, 0), BuildingBlock: OJICUG_clean_linker_0, # of connection points: 2
#     Edge 68, Type (0, 0), BuildingBlock: OJICUG_clean_linker_0, # of connection points: 2
#     Edge 69, Type (0, 0), BuildingBlock: OJICUG_clean_linker_0, # of connection points: 2
#     Edge 70, Type (0, 0), BuildingBlock: OJICUG_clean_linker_0, # of connection points: 2
#     Edge 71, Type (0, 0), BuildingBlock: OJICUG_clean_linker_0, # of connection points: 2
#     Edge 72, Type (0, 0), BuildingBlock: OJICUG_clean_linker_0, # of connection points: 2
#     Edge 73, Type (0, 0), BuildingBlock: OJICUG_clean_linker_0, # of connection points: 2
#     Edge 74, Type (0, 0), BuildingBlock: OJICUG_clean_linker_0, # of connection points: 2
#     Edge 75, Type (0, 0), BuildingBlock: OJICUG_clean_linker_0, # of connection points: 2
#     Edge 76, Type (0, 0), BuildingBlock: OJICUG_clean_linker_0, # of connection points: 2
#     Edge 77, Type (0, 0), BuildingBlock: OJICUG_clean_linker_0, # of connection points: 2
#     Edge 78, Type (0, 0), BuildingBlock: OJICUG_clean_linker_0, # of connection points: 2
#     Edge 79, Type (0, 0), BuildingBlock: OJICUG_clean_linker_0, # of connection points: 2
#     Edge 80, Type (0, 0), BuildingBlock: OJICUG_clean_linker_0, # of connection points: 2
#     Edge 81, Type (0, 0), BuildingBlock: OJICUG_clean_linker_0, # of connection points: 2
#     Edge 82, Type (0, 0), BuildingBlock: OJICUG_clean_linker_0, # of connection points: 2
#     Edge 83, Type (0, 0), BuildingBlock: OJICUG_clean_linker_0, # of connection points: 2
#     Edge 84, Type (0, 0), BuildingBlock: OJICUG_clean_linker_0, # of connection points: 2
#     Edge 85, Type (0, 0), BuildingBlock: OJICUG_clean_linker_0, # of connection points: 2
#     Edge 86, Type (0, 0), BuildingBlock: OJICUG_clean_linker_0, # of connection points: 2
#     Edge 87, Type (0, 0), BuildingBlock: OJICUG_clean_linker_0, # of connection points: 2
#     Edge 88, Type (0, 0), BuildingBlock: OJICUG_clean_linker_0, # of connection points: 2
#     Edge 89, Type (0, 0), BuildingBlock: OJICUG_clean_linker_0, # of connection points: 2
# Relax obj value: 0.001
# Max RMSD: 0.036
# Mean RMSD: 0.036
data_MOF--net-etf--node1-OLANEW_clean_sbu_2--edge1-OJICUG_clean_linker_0
_symmetry_space_group_name_H-M    P1
_symmetry_Int_Tables_number       1
_symmetry_cell_setting            triclinic
loop_
_symmetry_equiv_pos_as_xyz
'x, y, z'
_cell_length_a     79.49004
_cell_length_b     79.526948
_cell_length_c     33.435518
_cell_angle_alpha  90.147838
_cell_angle_beta   90.020538
_cell_angle_gamma 119.98446
loop_
_atom_site_label
_atom_site_type_symbol
_atom_site_fract_x
_atom_site_fract_y
_atom_site_fract_z
_atom_type_partial_charge
O0 O 0.11685 0.30986 0.18709 0.0
Cd1 Cd 0.10498 0.28615 0.24107 0.0
O2 O 0.09456 0.29257 0.14207 0.0
Cd3 Cd 0.07626 0.26853 0.18152 0.0
O4 O 0.04657 0.24935 0.2017 0.0
C5 C 0.03335 0.24547 0.17588 0.0
O6 O 0.03849 0.25231 0.13946 0.0
C7 C 0.10997 0.30803 0.15202 0.0
C8 C 0.13489 0.29897 0.2972 0.0
O9 O 0.1329 0.28674 0.26994 0.0
O10 O 0.12235 0.3046 0.2987 0.0
O11 O 0.69315 0.79675 0.20803 0.0
Cd12 Cd 0.7104 0.79983 0.27073 0.0
O13 O 0.71855 0.80538 0.16938 0.0
Cd14 Cd 0.73745 0.80626 0.21757 0.0
O15 O 0.75436 0.79428 0.24372 0.0
C16 C 0.76278 0.78869 0.21911 0.0
O17 O 0.76156 0.79138 0.1807 0.0
C18 C 0.70072 0.80026 0.17337 0.0
C19 C 0.70937 0.8268 0.32276 0.0
O20 O 0.72409 0.83156 0.30014 0.0
O21 O 0.69516 0.80933 0.32076 0.0
O22 O 0.1977 0.92134 0.05103 0.0
Cd23 Cd 0.19422 0.93567 0.11324 0.0
O24 O 0.22549 0.92419 0.07061 0.0
Cd25 Cd 0.23083 0.94602 0.11607 0.0
O26 O 0.24126 0.97029 0.15799 0.0
C27 C 0.23586 0.98284 0.15535 0.0
O28 O 0.22342 0.98087 0.1273 0.0
C29 C 0.21131 0.91752 0.04621 0.0
C30 C 0.18744 0.90933 0.17492 0.0
O31 O 0.20451 0.92352 0.16808 0.0
O32 O 0.17342 0.90795 0.15355 0.0
O33 O 0.33494 0.11115 0.35334 0.0
Cd34 Cd 0.3231 0.09686 0.28722 0.0
O35 O 0.30763 0.09198 0.38468 0.0
Cd36 Cd 0.29366 0.07498 0.33105 0.0
O37 O 0.28133 0.05147 0.28714 0.0
C38 C 0.26807 0.04898 0.2626 0.0
O39 O 0.26153 0.06124 0.26272 0.0
C40 C 0.32507 0.10594 0.38545 0.0
C41 C 0.31191 0.11899 0.24193 0.0
O42 O 0.3297 0.1232 0.2435 0.0
O43 O 0.29935 0.10426 0.26173 0.0
O44 O 0.89595 0.18128 0.30527 0.0
Cd45 Cd 0.90726 0.17332 0.24367 0.0
O46 O 0.89753 0.20727 0.27852 0.0
Cd47 Cd 0.9132 0.20581 0.22649 0.0
O48 O 0.94074 0.21188 0.20009 0.0
C49 C 0.95323 0.21202 0.22407 0.0
O50 O 0.94847 0.20772 0.26183 0.0
C51 C 0.89323 0.19572 0.30792 0.0
C52 C 0.87717 0.15019 0.191 0.0
O53 O 0.88441 0.14268 0.21433 0.0
O54 O 0.88404 0.16858 0.19271 0.0
O55 O 0.82012 0.69734 0.34148 0.0
Cd56 Cd 0.83586 0.7218 0.28961 0.0
O57 O 0.79338 0.68189 0.30575 0.0
Cd58 Cd 0.80094 0.70672 0.26715 0.0
O59 O 0.79711 0.73042 0.2453 0.0
C60 C 0.79233 0.73912 0.27091 0.0
O61 O 0.7909 0.73403 0.30866 0.0
C62 C 0.80341 0.68257 0.336 0.0
C63 C 0.85173 0.70677 0.23568 0.0
O64 O 0.86195 0.71793 0.26437 0.0
O65 O 0.83424 0.70329 0.23171 0.0
O66 O 0.89916 0.67491 0.80294 0.0
Cd67 Cd 0.90424 0.68649 0.73414 0.0
O68 O 0.9187 0.70345 0.82993 0.0
Cd69 Cd 0.93085 0.71738 0.77278 0.0
O70 O 0.95433 0.732 0.72954 0.0
C71 C 0.97148 0.73965 0.74352 0.0
O72 O 0.97381 0.73862 0.78218 0.0
C73 C 0.90649 0.68548 0.83381 0.0
C74 C 0.86986 0.66488 0.69106 0.0
O75 O 0.88279 0.65976 0.69223 0.0
O76 O 0.87333 0.68038 0.70977 0.0
O77 O 0.35797 0.23711 0.8699 0.0
Cd78 Cd 0.36979 0.24852 0.80214 0.0
O79 O 0.3319 0.23705 0.84896 0.0
Cd80 Cd 0.30376 0.23562 0.85395 0.0
O81 O 0.27833 0.23872 0.84361 0.0
C82 C 0.27625 0.25155 0.86208 0.0
O83 O 0.28921 0.26243 0.88902 0.0
C84 C 0.34099 0.23416 0.87694 0.0
C85 C 0.37817 0.22417 0.75665 0.0
O86 O 0.39166 0.23884 0.77525 0.0
O87 O 0.3607 0.22082 0.76016 0.0
O88 O 0.76197 0.1455 0.81588 0.0
Cd89 Cd 0.75573 0.15655 0.7524 0.0
O90 O 0.75681 0.11956 0.78287 0.0
Cd91 Cd 0.75102 0.08979 0.77593 0.0
O92 O 0.74008 0.05899 0.76479 0.0
C93 C 0.73743 0.04749 0.7935 0.0
O94 O 0.74186 0.0545 0.83004 0.0
C95 C 0.76084 0.12898 0.81562 0.0
C96 C 0.78876 0.17458 0.70458 0.0
O97 O 0.78384 0.18462 0.72662 0.0
O98 O 0.77808 0.15605 0.7052 0.0
O99 O 0.62483 0.86835 0.70839 0.0
Cd100 Cd 0.61161 0.86595 0.77554 0.0
O101 O 0.64736 0.89691 0.72912 0.0
Cd102 Cd 0.67188 0.92651 0.72422 0.0
O103 O 0.69138 0.95773 0.73101 0.0
C104 C 0.69728 0.96459 0.76587 0.0
O105 O 0.69202 0.95258 0.79628 0.0
C106 C 0.64031 0.88425 0.70139 0.0
C107 C 0.61109 0.83678 0.82242 0.0
O108 O 0.59576 0.83404 0.80403 0.0
O109 O 0.62668 0.85319 0.81824 0.0
O110 O 0.10653 0.7727 0.57852 0.0
Cd111 Cd 0.09264 0.7694 0.64532 0.0
O112 O 0.09765 0.7935 0.55877 0.0
Cd113 Cd 0.07942 0.78879 0.61106 0.0
O114 O 0.05532 0.77905 0.65304 0.0
C115 C 0.03834 0.77277 0.63895 0.0
O116 O 0.03608 0.7727 0.60001 0.0
C117 C 0.10657 0.78423 0.55215 0.0
C118 C 0.12234 0.7868 0.70204 0.0
O119 O 0.11418 0.76856 0.69467 0.0
O120 O 0.11629 0.79673 0.68301 0.0
O121 O 0.22878 0.34267 0.73546 0.0
Cd122 Cd 0.22493 0.33399 0.80616 0.0
O123 O 0.20927 0.31276 0.71495 0.0
Cd124 Cd 0.20921 0.30069 0.77351 0.0
O125 O 0.22252 0.28861 0.81252 0.0
C126 C 0.22174 0.27299 0.80097 0.0
O127 O 0.21184 0.26442 0.76842 0.0
C128 C 0.21979 0.33074 0.70725 0.0
C129 C 0.21317 0.35644 0.84915 0.0
O130 O 0.2312 0.36163 0.84616 0.0
O131 O 0.20074 0.34061 0.83201 0.0
O132 O 0.77786 0.62409 0.48776 0.0
Cd133 Cd 0.7676 0.60374 0.54718 0.0
O134 O 0.75317 0.6066 0.44752 0.0
Cd135 Cd 0.73509 0.58468 0.49129 0.0
O136 O 0.70576 0.56713 0.51504 0.0
C137 C 0.69208 0.55935 0.48952 0.0
O138 O 0.69651 0.56129 0.4513 0.0
C139 C 0.76969 0.6215 0.45386 0.0
C140 C 0.79902 0.62102 0.59987 0.0
O141 O 0.79702 0.60761 0.57567 0.0
O142 O 0.78575 0.62568 0.60025 0.0
O143 O 0.38288 0.14635 0.53712 0.0
Cd144 Cd 0.40259 0.15425 0.59809 0.0
O145 O 0.3579 0.12158 0.56569 0.0
Cd146 Cd 0.37559 0.12192 0.61572 0.0
O147 O 0.396 0.11298 0.63589 0.0
C148 C 0.40701 0.11236 0.60904 0.0
O149 O 0.40603 0.11804 0.57267 0.0
C150 C 0.36528 0.13269 0.53568 0.0
C151 C 0.39503 0.17683 0.65115 0.0
O152 O 0.38407 0.15835 0.64989 0.0
O153 O 0.40959 0.18468 0.62736 0.0
O154 O 0.88642 0.2157 0.4927 0.0
Cd155 Cd 0.891 0.22965 0.55964 0.0
O156 O 0.88243 0.23819 0.46329 0.0
Cd157 Cd 0.88638 0.25496 0.51791 0.0
O158 O 0.89554 0.27882 0.56072 0.0
C159 C 0.90347 0.27898 0.59385 0.0
O160 O 0.90568 0.26417 0.60315 0.0
C161 C 0.88337 0.22271 0.4612 0.0
C162 C 0.85744 0.21167 0.60586 0.0
O163 O 0.8686 0.20442 0.60265 0.0
O164 O 0.86209 0.22742 0.58702 0.0
O165 O 0.94535 0.41166 0.79136 0.0
Cd166 Cd 0.92601 0.39754 0.73069 0.0
O167 O 0.97027 0.41041 0.76598 0.0
Cd168 Cd 0.95276 0.3886 0.72121 0.0
O169 O 0.93752 0.36291 0.6832 0.0
C170 C 0.9368 0.34736 0.69482 0.0
O171 O 0.945 0.34743 0.72901 0.0
C172 C 0.96312 0.41623 0.79303 0.0
C173 C 0.94243 0.42527 0.67008 0.0
O174 O 0.94709 0.41213 0.67448 0.0
O175 O 0.9295 0.42494 0.69347 0.0
O176 O 0.53495 0.51877 0.58362 0.0
Cd177 Cd 0.54015 0.49895 0.53473 0.0
O178 O 0.5625 0.54483 0.5677 0.0
Cd179 Cd 0.57423 0.53041 0.53091 0.0
O180 O 0.60035 0.53046 0.51058 0.0
C181 C 0.61317 0.53374 0.53696 0.0
O182 O 0.60943 0.5356 0.57447 0.0
C183 C 0.5467 0.53689 0.58729 0.0
C184 C 0.50817 0.48004 0.48374 0.0
O185 O 0.50986 0.47142 0.51452 0.0
O186 O 0.52165 0.49751 0.47698 0.0
O187 O 0.4793 0.03103 0.69199 0.0
Cd188 Cd 0.49545 0.05847 0.6464 0.0
O189 O 0.455 0.01601 0.64977 0.0
Cd190 Cd 0.46161 0.04262 0.61851 0.0
O191 O 0.45428 0.06519 0.60706 0.0
C192 C 0.44724 0.06987 0.63635 0.0
O193 O 0.44586 0.06172 0.67126 0.0
C194 C 0.46383 0.01578 0.6813 0.0
C195 C 0.51318 0.04738 0.58833 0.0
O196 O 0.52276 0.0574 0.61882 0.0
O197 O 0.49548 0.04327 0.5846 0.0
O198 O 0.5473 0.99818 0.14568 0.0
Cd199 Cd 0.55178 0.00436 0.07393 0.0
O200 O 0.566 0.02892 0.16182 0.0
Cd201 Cd 0.57689 0.03765 0.10109 0.0
O202 O 0.60051 0.04674 0.0581 0.0
C203 C 0.61603 0.06264 0.06511 0.0
O204 O 0.61646 0.07323 0.09576 0.0
C205 C 0.55462 0.01144 0.17218 0.0
C206 C 0.51695 0.98273 0.03238 0.0
O207 O 0.52869 0.97625 0.03727 0.0
O208 O 0.52171 0.99942 0.04713 0.0
O209 O 0.99737 0.5569 0.25231 0.0
Cd210 Cd 0.98842 0.55852 0.18294 0.0
O211 O 0.96699 0.53918 0.27173 0.0
Cd212 Cd 0.95513 0.54314 0.216 0.0
O213 O 0.9418 0.55327 0.17228 0.0
C214 C 0.93111 0.55972 0.18548 0.0
O215 O 0.92835 0.55964 0.22425 0.0
C216 C 0.98506 0.54728 0.27939 0.0
C217 C 0.0036 0.54188 0.13098 0.0
O218 O 0.01271 0.56021 0.1377 0.0
O219 O 0.9873 0.53147 0.14858 0.0
O220 O 0.49236 0.47555 0.08102 0.0
Cd221 Cd 0.51298 0.48222 0.02234 0.0
O222 O 0.47865 0.44472 0.06533 0.0
Cd223 Cd 0.45683 0.41393 0.07025 0.0
O224 O 0.43494 0.38314 0.06983 0.0
C225 C 0.42089 0.3764 0.09442 0.0
O226 O 0.41978 0.38821 0.12046 0.0
C227 C 0.4799 0.45799 0.08858 0.0
C228 C 0.51335 0.51066 0.97316 0.0
O229 O 0.5 0.49283 0.96997 0.0
O230 O 0.5265 0.51509 -0.00014 0.0
O231 O 0.292 0.19607 0.03999 0.0
Cd232 Cd 0.27845 0.18915 0.10749 0.0
O233 O 0.31461 0.22387 0.06414 0.0
Cd234 Cd 0.33927 0.2535 0.06117 0.0
O235 O 0.36233 0.28388 0.06279 0.0
C236 C 0.36155 0.29522 0.08864 0.0
O237 O 0.34688 0.2883 0.1137 0.0
C238 C 0.30734 0.2123 0.03459 0.0
C239 C 0.28928 0.16605 0.15039 0.0
O240 O 0.27293 0.1585 0.13205 0.0
O241 O 0.30048 0.18449 0.14836 0.0
O242 O 0.78406 0.09303 0.96685 0.0
Cd243 Cd 0.78439 0.07833 0.0309 0.0
O244 O 0.75807 0.09208 0.99108 0.0
Cd245 Cd 0.73172 0.0943 0.99051 0.0
O246 O 0.70409 0.09241 0.00541 0.0
C247 C 0.68821 0.07869 0.99168 0.0
O248 O 0.6887 0.06609 0.96687 0.0
C249 C 0.77016 0.09645 0.96263 0.0
C250 C 0.81524 0.10242 0.0811 0.0
O251 O 0.81597 0.0895 0.05938 0.0
O252 O 0.80007 0.10413 0.0787 0.0
O253 O 0.89975 0.66086 0.02114 0.0
Cd254 Cd 0.89548 0.64855 0.0893 0.0
O255 O 0.88251 0.63199 0.99363 0.0
Cd256 Cd 0.88176 0.617 0.04871 0.0
O257 O 0.89013 0.60197 0.0919 0.0
C258 C 0.89978 0.59436 0.07852 0.0
O259 O 0.90373 0.59568 0.04011 0.0
C260 C 0.89194 0.65037 0.99037 0.0
C261 C 0.88149 0.66771 0.13692 0.0
O262 O 0.89974 0.67383 0.13456 0.0
O263 O 0.86987 0.65237 0.11725 0.0
O264 O 0.43254 0.95062 0.82075 0.0
Cd265 Cd 0.41908 0.92783 0.87612 0.0
O266 O 0.41109 0.93411 0.77374 0.0
Cd267 Cd 0.39055 0.91104 0.81272 0.0
O268 O 0.35997 0.8956 0.82984 0.0
C269 C 0.34795 0.89254 0.80179 0.0
O270 O 0.35458 0.89771 0.76524 0.0
C271 C 0.42674 0.94904 0.78481 0.0
C272 C 0.4481 0.94213 0.9344 0.0
O273 O 0.4466 0.92933 0.90904 0.0
O274 O 0.43537 0.9475 0.93325 0.0
O275 O 0.02951 0.47268 0.92117 0.0
Cd276 Cd 0.0513 0.48951 0.9775 0.0
O277 O 0.00868 0.44897 0.95958 0.0
Cd278 Cd 0.03133 0.45607 0.00403 0.0
O279 O 0.0564 0.45294 0.01852 0.0
C280 C 0.06688 0.45356 0.98918 0.0
O281 O 0.06268 0.45716 0.95332 0.0
C282 C 0.01305 0.45747 0.92589 0.0
C283 C 0.03591 0.50683 0.02719 0.0
O284 O 0.0313 0.48905 0.03172 0.0
O285 O 0.04789 0.51652 -0.00073 0.0
O286 O 0.52311 0.57484 0.73417 0.0
Cd287 Cd 0.52001 0.59034 0.79462 0.0
O288 O 0.5476 0.6012 0.70868 0.0
Cd289 Cd 0.54926 0.62072 0.75642 0.0
O290 O 0.56192 0.64617 0.79546 0.0
C291 C 0.56225 0.64458 0.8332 0.0
O292 O 0.55405 0.62718 0.84912 0.0
C293 C 0.53561 0.58308 0.70667 0.0
C294 C 0.517 0.56667 0.85876 0.0
O295 O 0.50192 0.56387 0.8393 0.0
O296 O 0.53347 0.58108 0.8487 0.0
O297 O 0.63293 0.76811 0.03699 0.0
Cd298 Cd 0.61057 0.75215 0.98097 0.0
O299 O 0.65771 0.77033 0.00318 0.0
Cd300 Cd 0.63961 0.75259 0.95375 0.0
O301 O 0.61978 0.72876 0.91494 0.0
C302 C 0.60858 0.71245 0.93109 0.0
O303 O 0.60922 0.71083 0.97009 0.0
C304 C 0.65098 0.77384 0.03465 0.0
C305 C 0.61024 0.77904 0.92802 0.0
O306 O 0.59698 0.77084 0.95459 0.0
O307 O 0.62358 0.7745 0.9264 0.0
O308 O 0.21655 0.85926 0.91563 0.0
Cd309 Cd 0.22073 0.84181 0.85943 0.0
O310 O 0.21919 0.88302 0.87763 0.0
Cd311 Cd 0.23278 0.87476 0.83096 0.0
O312 O 0.25866 0.87436 0.81065 0.0
C313 C 0.26929 0.87323 0.83772 0.0
O314 O 0.2636 0.87142 0.87514 0.0
C315 C 0.2156 0.87467 0.91145 0.0
C316 C 0.18783 0.82376 0.81031 0.0
O317 O 0.19034 0.8144 0.83862 0.0
O318 O 0.20079 0.84159 0.80533 0.0
O319 O 0.15803 0.3894 0.05397 0.0
Cd320 Cd 0.17276 0.41453 0.00308 0.0
O321 O 0.13224 0.37368 0.01572 0.0
Cd322 Cd 0.13721 0.39968 0.98391 0.0
O323 O 0.12575 0.41928 0.97496 0.0
C324 C 0.1189 0.4231 0.00583 0.0
O325 O 0.12029 0.41615 0.04051 0.0
C326 C 0.14214 0.37404 0.04592 0.0
C327 C 0.18733 0.39937 0.94637 0.0
O328 O 0.19817 0.41047 0.97453 0.0
O329 O 0.16989 0.39619 0.944 0.0
O330 O 0.22945 0.34394 0.51462 0.0
Cd331 Cd 0.23699 0.35202 0.4441 0.0
O332 O 0.25082 0.37321 0.53575 0.0
Cd333 Cd 0.26391 0.38335 0.47698 0.0
O334 O 0.28561 0.39458 0.42937 0.0
C335 C 0.30333 0.40269 0.43998 0.0
O336 O 0.30749 0.40405 0.47832 0.0
C337 C 0.23728 0.35603 0.54312 0.0
C338 C 0.2032 0.33392 0.39803 0.0
O339 O 0.21363 0.32596 0.40314 0.0
O340 O 0.20884 0.35047 0.41449 0.0
O341 O 0.69244 0.90297 0.53965 0.0
Cd342 Cd 0.70558 0.91255 0.47202 0.0
O343 O 0.66671 0.90233 0.51476 0.0
Cd344 Cd 0.63865 0.90123 0.51573 0.0
O345 O 0.61361 0.90431 0.50056 0.0
C346 C 0.61229 0.91862 0.51368 0.0
O347 O 0.62578 0.93108 0.538 0.0
C348 C 0.67543 0.9003 0.54464 0.0
C349 C 0.70664 0.88353 0.42688 0.0
O350 O 0.72174 0.89625 0.44573 0.0
O351 O 0.69098 0.88432 0.42995 0.0
O352 O 0.15756 0.81259 0.38922 0.0
Cd353 Cd 0.1744 0.81693 0.32581 0.0
O354 O 0.14688 0.78144 0.3833 0.0
Cd355 Cd 0.12907 0.75066 0.39831 0.0
O356 O 0.11184 0.71921 0.40562 0.0
C357 C 0.0941 0.71116 0.41587 0.0
O358 O 0.08628 0.72206 0.42263 0.0
C359 C 0.14763 0.7955 0.40304 0.0
C360 C 0.17748 0.84801 0.28155 0.0
O361 O 0.16246 0.83107 0.27856 0.0
O362 O 0.19097 0.85029 0.30577 0.0
O363 O 0.00171 0.52503 0.45627 0.0
Cd364 Cd 0.01278 0.5238 0.52372 0.0
O365 O 0.02379 0.55585 0.45633 0.0
Cd366 Cd 0.03907 0.58575 0.43439 0.0
O367 O 0.05577 0.61701 0.42364 0.0
C368 C 0.04848 0.62761 0.43212 0.0
O369 O 0.03072 0.61942 0.44638 0.0
C370 C 0.0102 0.54125 0.43832 0.0
C371 C 0.98745 0.49031 0.56563 0.0
O372 O 0.98561 0.50542 0.56689 0.0
O373 O 0.0011 0.49097 0.54409 0.0
O374 O 0.42906 0.42798 0.25219 0.0
Cd375 Cd 0.41384 0.42332 0.31782 0.0
O376 O 0.42434 0.45224 0.23716 0.0
Cd377 Cd 0.40524 0.44693 0.28829 0.0
O378 O 0.38263 0.43804 0.33372 0.0
C379 C 0.36499 0.43026 0.32272 0.0
O380 O 0.36091 0.42797 0.28431 0.0
C381 C 0.43158 0.44158 0.22859 0.0
C382 C 0.44302 0.44143 0.37527 0.0
O383 O 0.43535 0.42322 0.3681 0.0
O384 O 0.4366 0.45096 0.35592 0.0
O385 O 0.5598 0.00343 0.36423 0.0
Cd386 Cd 0.56181 0.99653 0.4346 0.0
O387 O 0.5397 0.97283 0.34896 0.0
Cd388 Cd 0.54371 0.96269 0.40685 0.0
O389 O 0.55847 0.95309 0.44818 0.0
C390 C 0.55755 0.93696 0.44099 0.0
O391 O 0.54686 0.92638 0.41082 0.0
C392 C 0.54906 0.9906 0.33876 0.0
C393 C 0.54639 0.0141 0.48287 0.0
O394 O 0.5647 0.02244 0.47627 0.0
O395 O 0.53546 0.99743 0.46687 0.0
C396 C 0.13628 0.34161 0.13394 0.0
C397 C 0.11918 0.3244 0.12356 0.0
H398 H 0.15702 0.37078 0.11752 0.0
C399 C 0.11032 0.32338 0.08657 0.0
H400 H 0.1435 0.34286 0.16218 0.0
C401 C 0.118 0.3394 0.06112 0.0
C402 C 0.13479 0.35678 0.07197 0.0
H403 H 0.09715 0.31036 0.07758 0.0
H404 H 0.11059 0.33821 0.03317 0.0
C405 C 0.14403 0.35762 0.10835 0.0
C406 C 0.6684 0.78963 0.14098 0.0
C407 C 0.6884 0.79634 0.13738 0.0
H408 H 0.64086 0.7774 0.11127 0.0
C409 C 0.69619 0.79749 0.09908 0.0
H410 H 0.66193 0.78865 0.17001 0.0
C411 C 0.68412 0.79095 0.06551 0.0
C412 C 0.66397 0.78321 0.06937 0.0
H413 H 0.71154 0.80268 0.09512 0.0
H414 H 0.69053 0.79137 0.03668 0.0
C415 C 0.65631 0.78318 0.10729 0.0
C416 C 0.21865 0.89309 0.01677 0.0
C417 C 0.21084 0.90539 0.01234 0.0
H418 H 0.22567 0.87323 0.98843 0.0
C419 C 0.20327 0.90646 0.97509 0.0
H420 H 0.22445 0.89192 0.0453 0.0
C421 C 0.20438 0.8961 0.94227 0.0
C422 C 0.21249 0.88404 0.94658 0.0
H423 H 0.19719 0.91587 0.97097 0.0
H424 H 0.19911 0.89769 0.91344 0.0
C425 C 0.21921 0.8823 0.98433 0.0
C426 C 0.32471 0.10702 0.46032 0.0
C427 C 0.33441 0.11492 0.4241 0.0
H428 H 0.3268 0.10656 0.52403 0.0
C429 C 0.35368 0.13039 0.42534 0.0
H430 H 0.30982 0.09518 0.46051 0.0
C431 C 0.3634 0.13701 0.46187 0.0
C432 C 0.35409 0.1282 0.4979 0.0
H433 H 0.36153 0.13692 0.39801 0.0
H434 H 0.3785 0.14838 0.46166 0.0
C435 C 0.33446 0.11355 0.4968 0.0
C436 C 0.88451 0.1972 0.41883 0.0
C437 C 0.88272 0.21388 0.42171 0.0
H438 H 0.88898 0.17818 0.38053 0.0
C439 C 0.88197 0.22301 0.38635 0.0
H440 H 0.88498 0.18971 0.44545 0.0
C441 C 0.88429 0.21641 0.34914 0.0
C442 C 0.88733 0.20048 0.34641 0.0
H443 H 0.88044 0.2358 0.38742 0.0
H444 H 0.88449 0.22431 0.32263 0.0
C445 C 0.88676 0.19054 0.38156 0.0
C446 C 0.80543 0.66773 0.40058 0.0
C447 C 0.79536 0.66644 0.3651 0.0
H448 H 0.80529 0.65455 0.45634 0.0
C449 C 0.77725 0.64975 0.35814 0.0
H450 H 0.81945 0.68036 0.40681 0.0
C451 C 0.76916 0.63491 0.38645 0.0
C452 C 0.77897 0.63645 0.42245 0.0
H453 H 0.76915 0.64823 0.33101 0.0
H454 H 0.75501 0.62243 0.38043 0.0
C455 C 0.79731 0.65292 0.42898 0.0
C456 C 0.90968 0.6882 0.90844 0.0
C457 C 0.90157 0.67668 0.87412 0.0
H458 H 0.91294 0.68898 0.97202 0.0
C459 C 0.8894 0.65654 0.87861 0.0
H460 H 0.91906 0.70378 0.90607 0.0
C461 C 0.88593 0.64804 0.91644 0.0
C462 C 0.8945 0.6595 0.95064 0.0
H463 H 0.88287 0.64724 0.85281 0.0
H464 H 0.87679 0.63244 0.91876 0.0
C465 C 0.90617 0.67971 0.94628 0.0
C466 C 0.34436 0.23446 0.95132 0.0
C467 C 0.33242 0.22826 0.91722 0.0
H468 H 0.34581 0.23407 0.01524 0.0
C469 C 0.31228 0.2163 0.92198 0.0
H470 H 0.35996 0.24348 0.94848 0.0
C471 C 0.30418 0.21104 0.96017 0.0
C472 C 0.31605 0.21775 0.99433 0.0
H473 H 0.30279 0.2107 0.89623 0.0
H474 H 0.28858 0.20185 0.96297 0.0
C475 C 0.33624 0.22931 0.98954 0.0
C476 C 0.77143 0.1085 0.85281 0.0
C477 C 0.76336 0.12069 0.85313 0.0
H478 H 0.77996 0.0913 0.88737 0.0
C479 C 0.75803 0.12527 0.88986 0.0
H480 H 0.77634 0.10529 0.82516 0.0
C481 C 0.76022 0.11738 0.92546 0.0
C482 C 0.76791 0.10487 0.92506 0.0
H483 H 0.75202 0.13485 0.89106 0.0
H484 H 0.75626 0.12142 0.95334 0.0
C485 C 0.77375 0.10071 0.88847 0.0
C486 C 0.64628 0.88398 0.58912 0.0
C487 C 0.66645 0.89584 0.58473 0.0
H488 H 0.62221 0.87093 0.62963 0.0
C489 C 0.67806 0.90339 0.61909 0.0
H490 H 0.63705 0.87744 0.56328 0.0
C491 C 0.66958 0.89966 0.65705 0.0
C492 C 0.64937 0.88813 0.66138 0.0
H493 H 0.69368 0.91241 0.61658 0.0
H494 H 0.6789 0.90552 0.683 0.0
C495 C 0.63782 0.88007 0.62711 0.0
C496 C 0.12454 0.77486 0.50348 0.0
C497 C 0.11697 0.78692 0.51386 0.0
H498 H 0.14045 0.7683 0.46056 0.0
C499 C 0.11951 0.8017 0.48734 0.0
H500 H 0.12293 0.7634 0.52332 0.0
C501 C 0.12947 0.80442 0.45137 0.0
C502 C 0.13686 0.79225 0.44085 0.0
H503 H 0.11394 0.8113 0.49446 0.0
H504 H 0.13127 0.81597 0.43161 0.0
C505 C 0.13437 0.77749 0.46728 0.0
C506 C 0.23568 0.35714 0.65629 0.0
C507 C 0.22271 0.33756 0.66531 0.0
H508 H 0.25041 0.37833 0.61075 0.0
C509 C 0.21354 0.32437 0.63371 0.0
H510 H 0.24295 0.3677 0.67988 0.0
C511 C 0.21782 0.33048 0.59399 0.0
C512 C 0.23138 0.3499 0.585 0.0
H513 H 0.20341 0.3092 0.63959 0.0
H514 H 0.21085 0.31985 0.57037 0.0
C515 C 0.23999 0.36323 0.6166 0.0
C516 C 0.99551 0.44039 0.82068 0.0
C517 C 0.9755 0.42803 0.82654 0.0
H518 H 0.02298 0.45987 0.84748 0.0
C519 C 0.96766 0.42649 0.86488 0.0
H520 H 0.00188 0.44192 0.79133 0.0
C521 C 0.97981 0.43645 0.89721 0.0
C522 C 0.99988 0.44853 0.89145 0.0
H523 H 0.95228 0.41703 0.87016 0.0
H524 H 0.97354 0.4345 0.92679 0.0
C525 C 0.00754 0.45075 0.85274 0.0
C526 C 0.52709 0.54002 0.64272 0.0
C527 C 0.54261 0.54876 0.61557 0.0
H528 H 0.51264 0.54401 0.6928 0.0
C529 C 0.55489 0.56901 0.61689 0.0
H530 H 0.51734 0.52447 0.64242 0.0
C531 C 0.55216 0.5802 0.64557 0.0
C532 C 0.53714 0.57141 0.67377 0.0
H533 H 0.5669 0.57624 0.59623 0.0
H534 H 0.5622 0.5957 0.64624 0.0
C535 C 0.52441 0.55123 0.6716 0.0
C536 C 0.46354 0.99828 0.74379 0.0
C537 C 0.45549 0.99809 0.70627 0.0
H538 H 0.46086 0.9829 0.79798 0.0
C539 C 0.43878 0.98107 0.69355 0.0
H540 H 0.47646 0.01113 0.75441 0.0
C541 C 0.42987 0.96486 0.71844 0.0
C542 C 0.43744 0.96533 0.75668 0.0
H543 H 0.43227 0.98038 0.66468 0.0
H544 H 0.41672 0.95218 0.70811 0.0
C545 C 0.45459 0.98208 0.76877 0.0
C546 C 0.53834 0.9819 0.26748 0.0
C547 C 0.54856 0.99617 0.29673 0.0
H548 H 0.5321 0.97551 0.20523 0.0
C549 C 0.55937 0.0157 0.28494 0.0
H550 H 0.52979 0.96672 0.27554 0.0
C551 C 0.56067 0.02075 0.24461 0.0
C552 C 0.55122 0.00637 0.21515 0.0
H553 H 0.56732 0.02708 0.30672 0.0
H554 H 0.56961 0.03587 0.23647 0.0
C555 C 0.53966 0.98694 0.22712 0.0
C556 C 0.01125 0.55713 0.33115 0.0
C557 C 0.99164 0.54569 0.31993 0.0
H558 H 0.03255 0.56452 0.37725 0.0
C559 C 0.97829 0.53278 0.34799 0.0
H560 H 0.02192 0.56715 0.3102 0.0
C561 C 0.98439 0.53135 0.38638 0.0
C562 C 0.00391 0.543 0.39775 0.0
H563 H 0.9631 0.52369 0.3403 0.0
H564 H 0.97378 0.52126 0.40735 0.0
C565 C 0.01731 0.55582 0.36973 0.0
C566 C 0.44949 0.43236 0.17949 0.0
C567 C 0.44336 0.44535 0.1919 0.0
H568 H 0.46613 0.42633 0.13747 0.0
C569 C 0.44907 0.46231 0.16953 0.0
H570 H 0.44544 0.41922 0.19615 0.0
C571 C 0.46087 0.46632 0.13586 0.0
C572 C 0.46695 0.45332 0.12348 0.0
H573 H 0.44469 0.47267 0.17835 0.0
H574 H 0.4652 0.47958 0.11942 0.0
C575 C 0.46116 0.43631 0.14558 0.0
C576 C 0.00699 0.22882 0.22685 0.0
C577 C 0.0126 0.23511 0.18736 0.0
H578 H 0.98383 0.21646 0.26934 0.0
C579 C 0.99826 0.23243 0.15934 0.0
H580 H 0.01766 0.2306 0.24913 0.0
C581 C 0.97886 0.22436 0.17092 0.0
C582 C 0.97337 0.21876 0.21077 0.0
H583 H 0.00206 0.23703 0.1286 0.0
H584 H 0.96826 0.22296 0.14883 0.0
C585 C 0.98758 0.22071 0.23843 0.0
C586 C 0.78708 0.75811 0.21751 0.0
C587 C 0.78659 0.75336 0.2581 0.0
H588 H 0.78009 0.77311 0.17343 0.0
C589 C 0.77951 0.76151 0.28615 0.0
H590 H 0.79253 0.75216 0.19516 0.0
C591 C 0.77234 0.77351 0.27369 0.0
C592 C 0.77213 0.77764 0.23292 0.0
H593 H 0.779 0.75822 0.31768 0.0
H594 H 0.76651 0.77913 0.29593 0.0
C595 C 0.77994 0.77013 0.20507 0.0
C596 C 0.26601 0.01841 0.23685 0.0
C597 C 0.25982 0.03214 0.23495 0.0
H598 H 0.26328 0.99211 0.2135 0.0
C599 C 0.24557 0.02947 0.20672 0.0
H600 H 0.27694 0.01999 0.25828 0.0
C601 C 0.23773 0.01344 0.18092 0.0
C602 C 0.24393 0.99971 0.1829 0.0
H603 H 0.24047 0.03978 0.20448 0.0
H604 H 0.22681 0.01182 0.15944 0.0
C605 C 0.25815 0.00238 0.21119 0.0
C606 C 0.00246 0.75745 0.65002 0.0
C607 C 0.02129 0.76501 0.66581 0.0
H608 H 0.97196 0.74355 0.66209 0.0
C609 C 0.0236 0.76468 0.70741 0.0
H610 H 1.00017 0.75751 0.6181 0.0
C611 C 0.00743 0.75669 0.73261 0.0
C612 C 0.98858 0.74884 0.71678 0.0
H613 H 0.03789 0.77041 0.72057 0.0
H614 H 0.00973 0.7565 0.76449 0.0
C615 C 0.98628 0.74945 0.67523 0.0
C616 C 0.25971 0.27133 0.86676 0.0
C617 C 0.26067 0.25559 0.85009 0.0
H618 H 0.24655 0.28914 0.86457 0.0
C619 C 0.24741 0.24453 0.81983 0.0
H620 H 0.26964 0.28009 0.89028 0.0
C621 C 0.23417 0.24969 0.80516 0.0
C622 C 0.23389 0.26604 0.82037 0.0
H623 H 0.24765 0.23221 0.80653 0.0
H624 H 0.2246 0.24122 0.78093 0.0
C625 C 0.24646 0.27652 0.85205 0.0
C626 C 0.71332 0.99877 0.74043 0.0
C627 C 0.70874 0.98583 0.77253 0.0
H628 H 0.726 0.02836 0.72182 0.0
C629 C 0.71454 0.99339 0.81135 0.0
H630 H 0.70911 0.99344 0.71014 0.0
C631 C 0.72423 0.01343 0.81806 0.0
C632 C 0.72833 0.02635 0.7861 0.0
H633 H 0.7113 0.98383 0.83674 0.0
H634 H 0.72819 0.01875 0.84842 0.0
C635 C 0.723 0.01881 0.74714 0.0
C636 C 0.65662 0.54375 0.47339 0.0
C637 C 0.67153 0.55043 0.50215 0.0
H638 H 0.62647 0.53311 0.46177 0.0
C639 C 0.66671 0.54982 0.54275 0.0
H640 H 0.65981 0.54391 0.44185 0.0
C641 C 0.64757 0.54359 0.55417 0.0
C642 C 0.63284 0.53786 0.52523 0.0
H643 H 0.67782 0.55476 0.56569 0.0
H644 H 0.64447 0.5439 0.58562 0.0
C645 C 0.63749 0.53755 0.4848 0.0
C646 C 0.41933 0.09618 0.65542 0.0
C647 C 0.4191 0.1034 0.61724 0.0
H648 H 0.42854 0.08007 0.69147 0.0
C649 C 0.42955 0.10085 0.58617 0.0
H650 H 0.41152 0.09798 0.68004 0.0
C651 C 0.43928 0.09053 0.59268 0.0
C652 C 0.43881 0.08259 0.63043 0.0
H653 H 0.42976 0.10631 0.55643 0.0
H654 H 0.44671 0.08834 0.56782 0.0
C655 C 0.42911 0.08591 0.66195 0.0
C656 C 0.91853 0.32934 0.63329 0.0
C657 C 0.9275 0.32961 0.66971 0.0
H658 H 0.90381 0.31313 0.58089 0.0
C659 C 0.92788 0.31286 0.6816 0.0
H660 H 0.91794 0.34198 0.62331 0.0
C661 C 0.9198 0.29632 0.65727 0.0
C662 C 0.91112 0.29615 0.62053 0.0
H663 H 0.93463 0.31255 0.70952 0.0
H664 H 0.92056 0.28375 0.66711 0.0
C665 C 0.9104 0.31278 0.609 0.0
C666 C 0.63433 0.05551 0.01294 0.0
C667 C 0.63404 0.06794 0.04258 0.0
H668 H 0.65165 0.04921 0.97341 0.0
C669 C 0.65149 0.0848 0.0527 0.0
H670 H 0.62112 0.04244 0.00432 0.0
C671 C 0.66899 0.08867 0.03504 0.0
C672 C 0.66943 0.07576 0.00682 0.0
H673 H 0.65178 0.09475 0.07524 0.0
H674 H 0.68224 0.1015 0.04444 0.0
C675 C 0.65184 0.05939 0.99523 0.0
C676 C 0.91111 0.57552 0.17286 0.0
C677 C 0.92246 0.56789 0.15791 0.0
H678 H 0.89501 0.58982 0.15961 0.0
C679 C 0.92581 0.56856 0.11653 0.0
H680 H 0.90822 0.57521 0.20458 0.0
C681 C 0.91823 0.57693 0.09075 0.0
C682 C 0.90713 0.58483 0.10577 0.0
H683 H 0.93446 0.56278 0.10403 0.0
H684 H 0.92125 0.57737 0.05907 0.0
C685 C 0.90353 0.5839 0.14708 0.0
C686 C 0.39255 0.32341 0.06359 0.0
C687 C 0.37684 0.31594 0.09035 0.0
H688 H 0.41877 0.34829 0.04389 0.0
C689 C 0.37583 0.3285 0.11869 0.0
H690 H 0.39379 0.31414 0.0414 0.0
C691 C 0.39017 0.3481 0.12013 0.0
C692 C 0.40583 0.35558 0.09326 0.0
H693 H 0.36393 0.32322 0.13977 0.0
H694 H 0.38891 0.35738 0.14226 0.0
C695 C 0.40689 0.343 0.06503 0.0
C696 C 0.31444 0.88381 0.77969 0.0
C697 C 0.3272 0.88541 0.81054 0.0
H698 H 0.28612 0.87861 0.76398 0.0
C699 C 0.32023 0.8814 0.84998 0.0
H700 H 0.3193 0.8867 0.74893 0.0
C701 C 0.30117 0.87672 0.85859 0.0
C702 C 0.28868 0.876 0.82795 0.0
H703 H 0.32965 0.88241 0.87441 0.0
H704 H 0.29642 0.87425 0.88945 0.0
C705 C 0.2954 0.87917 0.7883 0.0
C706 C 0.08562 0.44277 0.03203 0.0
C707 C 0.08199 0.44803 0.99428 0.0
H708 H 0.10025 0.43095 0.06532 0.0
C709 C 0.09198 0.44664 0.96087 0.0
H710 H 0.07825 0.44377 0.05841 0.0
C711 C 0.10458 0.43924 0.9648 0.0
C712 C 0.1075 0.43312 0.00225 0.0
H713 H 0.08961 0.45066 0.93136 0.0
H714 H 0.11156 0.43778 0.93826 0.0
C715 C 0.09825 0.43542 0.03597 0.0
C716 C 0.58354 0.6806 0.84102 0.0
C717 C 0.57305 0.66211 0.85851 0.0
H718 H 0.60297 0.71097 0.85013 0.0
C719 C 0.57367 0.66047 0.90025 0.0
H720 H 0.58336 0.68239 0.80895 0.0
C721 C 0.58489 0.67689 0.92388 0.0
C722 C 0.59579 0.69529 0.90627 0.0
H723 H 0.56572 0.64646 0.9147 0.0
H724 H 0.58528 0.67507 0.95589 0.0
C725 C 0.59482 0.697 0.86463 0.0
C726 C 0.3297 0.41486 0.34047 0.0
C727 C 0.34922 0.42356 0.35268 0.0
H728 H 0.2999 0.40147 0.35836 0.0
C729 C 0.3535 0.4256 0.39379 0.0
H730 H 0.3259 0.41308 0.30903 0.0
C731 C 0.3386 0.41894 0.42205 0.0
C732 C 0.31907 0.4101 0.40986 0.0
H733 H 0.36838 0.43225 0.40424 0.0
H734 H 0.34242 0.42065 0.45348 0.0
C735 C 0.31479 0.40821 0.36875 0.0
C736 C 0.58319 0.90955 0.47051 0.0
C737 C 0.59689 0.92225 0.49849 0.0
H738 H 0.55994 0.90414 0.4307 0.0
C739 C 0.59644 0.93906 0.50988 0.0
H740 H 0.58304 0.89642 0.46124 0.0
C741 C 0.58316 0.94349 0.49234 0.0
C742 C 0.57005 0.93122 0.46304 0.0
H743 H 0.60673 0.9491 0.5315 0.0
H744 H 0.58359 0.95685 0.50089 0.0
C745 C 0.56992 0.91398 0.45299 0.0
C746 C 0.07946 0.65788 0.4145 0.0
C747 C 0.06004 0.64896 0.42728 0.0
H748 H 0.10544 0.68445 0.40102 0.0
C749 C 0.05188 0.66067 0.43604 0.0
H750 H 0.08621 0.64929 0.40754 0.0
C751 C 0.06292 0.68085 0.43228 0.0
C752 C 0.08238 0.68978 0.41975 0.0
H753 H 0.03697 0.65427 0.44594 0.0
H754 H 0.0562 0.68945 0.43934 0.0
C755 C 0.09051 0.67805 0.41083 0.0
C756 C 0.1809 0.30803 0.35006 0.0
C757 C 0.18528 0.32441 0.37356 0.0
H758 H 0.16154 0.28714 0.30745 0.0
C759 C 0.1725 0.3318 0.37303 0.0
H760 H 0.19044 0.30198 0.34986 0.0
C761 C 0.15584 0.32318 0.34908 0.0
C762 C 0.15171 0.30711 0.32482 0.0
H763 H 0.1754 0.34434 0.39096 0.0
H764 H 0.14644 0.3294 0.34897 0.0
C765 C 0.16434 0.29953 0.32577 0.0
C766 C 0.69021 0.85182 0.39007 0.0
C767 C 0.70739 0.8687 0.40137 0.0
H768 H 0.67741 0.8252 0.3568 0.0
C769 C 0.72526 0.87155 0.38714 0.0
H770 H 0.67623 0.84922 0.40063 0.0
C771 C 0.72591 0.85797 0.36145 0.0
C772 C 0.70873 0.84109 0.35016 0.0
H773 H 0.73874 0.88446 0.39521 0.0
H774 H 0.73987 0.86066 0.35059 0.0
C775 C 0.69089 0.83806 0.36505 0.0
C776 C 0.19717 0.88194 0.25563 0.0
C777 C 0.1795 0.86429 0.25668 0.0
H778 H 0.21353 0.91004 0.22905 0.0
C779 C 0.16404 0.86208 0.23252 0.0
H780 H 0.20935 0.88413 0.27394 0.0
C781 C 0.16639 0.87699 0.20699 0.0
C782 C 0.18429 0.89437 0.20487 0.0
H783 H 0.1502 0.84868 0.23279 0.0
H784 H 0.15433 0.87467 0.18809 0.0
C785 C 0.19957 0.8968 0.22988 0.0
C786 C 0.32005 0.14971 0.20613 0.0
C787 C 0.30609 0.13091 0.21819 0.0
H788 H 0.32563 0.17564 0.17565 0.0
C789 C 0.28656 0.12368 0.20752 0.0
H790 H 0.33521 0.15569 0.214 0.0
C791 C 0.28112 0.135 0.18503 0.0
C792 C 0.29505 0.1539 0.17342 0.0
H793 H 0.2755 0.10921 0.21629 0.0
H794 H 0.26596 0.12904 0.17718 0.0
C795 C 0.31456 0.16115 0.18428 0.0
C796 C 0.84391 0.10857 0.12285 0.0
C797 C 0.83127 0.11478 0.10869 0.0
H798 H 0.86813 0.11477 0.16067 0.0
C799 C 0.83387 0.13275 0.1217 0.0
H800 H 0.84218 0.09475 0.11348 0.0
C801 C 0.84894 0.14436 0.14809 0.0
C802 C 0.86139 0.13801 0.16273 0.0
H803 H 0.82437 0.13791 0.1112 0.0
H804 H 0.85067 0.15819 0.15747 0.0
C805 C 0.85868 0.11998 0.15 0.0
C806 C 0.87928 0.70271 0.21106 0.0
C807 C 0.85959 0.69745 0.20907 0.0
H808 H 0.90167 0.6975 0.18971 0.0
C809 C 0.84725 0.68259 0.18265 0.0
H810 H 0.88916 0.71411 0.23112 0.0
C811 C 0.85437 0.67294 0.15924 0.0
C812 C 0.87402 0.67807 0.16148 0.0
H813 H 0.83199 0.67814 0.1805 0.0
H814 H 0.84445 0.66143 0.13944 0.0
C815 C 0.88645 0.69318 0.18736 0.0
C816 C 0.83107 0.62623 0.62459 0.0
C817 C 0.81663 0.63152 0.62504 0.0
H818 H 0.85918 0.6326 0.64505 0.0
C819 C 0.81965 0.64759 0.64816 0.0
H820 H 0.8292 0.61394 0.60705 0.0
C821 C 0.83689 0.65835 0.66974 0.0
C822 C 0.85145 0.65325 0.6688 0.0
H823 H 0.80885 0.65208 0.64909 0.0
H824 H 0.83884 0.67077 0.68693 0.0
C825 C 0.84828 0.63696 0.6463 0.0
C826 C 0.40551 0.20756 0.68965 0.0
C827 C 0.39087 0.18876 0.679 0.0
H828 H 0.41304 0.23336 0.72325 0.0
C829 C 0.37215 0.18151 0.69489 0.0
H830 H 0.4201 0.21349 0.67799 0.0
C831 C 0.36803 0.193 0.72024 0.0
C832 C 0.38266 0.2118 0.73089 0.0
H833 H 0.36057 0.16708 0.68713 0.0
H834 H 0.3534 0.18713 0.73156 0.0
C835 C 0.40149 0.21889 0.7157 0.0
C836 C 0.83103 0.21268 0.64464 0.0
C837 C 0.83978 0.20218 0.63081 0.0
H838 H 0.80817 0.21224 0.6794 0.0
C839 C 0.8316 0.18254 0.64131 0.0
H840 H 0.83708 0.22786 0.63714 0.0
C841 C 0.81489 0.17352 0.66494 0.0
C842 C 0.80628 0.18408 0.67919 0.0
H843 H 0.838 0.17407 0.63099 0.0
H844 H 0.80887 0.15834 0.67244 0.0
C845 C 0.81455 0.20377 0.66895 0.0
C846 C 0.59308 0.79363 0.89176 0.0
C847 C 0.61032 0.79351 0.9003 0.0
H848 H 0.57976 0.80723 0.85964 0.0
C849 C 0.62773 0.80746 0.88241 0.0
H850 H 0.57945 0.78299 0.90503 0.0
C851 C 0.62798 0.82154 0.85711 0.0
C852 C 0.61074 0.82164 0.84846 0.0
H853 H 0.64125 0.80773 0.88856 0.0
H854 H 0.64165 0.83229 0.84416 0.0
C855 C 0.59325 0.80743 0.86567 0.0
C856 C 0.14303 0.78502 0.75669 0.0
C857 C 0.13863 0.79622 0.73088 0.0
H858 H 0.1619 0.78494 0.80239 0.0
C859 C 0.15024 0.81655 0.73216 0.0
H860 H 0.13432 0.76933 0.7565 0.0
C861 C 0.16615 0.82547 0.75809 0.0
C862 C 0.17065 0.81427 0.7837 0.0
H863 H 0.14725 0.82559 0.71261 0.0
H864 H 0.17495 0.84115 0.75799 0.0
C865 C 0.1588 0.79396 0.78304 0.0
C866 C 0.22008 0.38368 0.89643 0.0
C867 C 0.20685 0.36821 0.87223 0.0
H868 H 0.22431 0.4057 0.93882 0.0
C869 C 0.1874 0.36382 0.87091 0.0
H870 H 0.23518 0.38745 0.89804 0.0
C871 C 0.18122 0.37441 0.89394 0.0
C872 C 0.19432 0.3895 0.91909 0.0
H873 H 0.17687 0.35207 0.85238 0.0
H874 H 0.16605 0.37042 0.8928 0.0
C875 C 0.21386 0.39415 0.91978 0.0
C876 C 0.95999 0.47241 0.61376 0.0
C877 C 0.97474 0.47291 0.58972 0.0
H878 H 0.93808 0.45689 0.65779 0.0
C879 C 0.97782 0.45699 0.59032 0.0
H880 H 0.95719 0.48442 0.61387 0.0
C881 C 0.96688 0.44123 0.6155 0.0
C882 C 0.95259 0.44102 0.64056 0.0
H883 H 0.98902 0.45688 0.57206 0.0
H884 H 0.96997 0.42941 0.61597 0.0
C885 C 0.94901 0.45662 0.63889 0.0
C886 C 0.46345 0.44052 0.43143 0.0
C887 C 0.45924 0.4513 0.40406 0.0
H888 H 0.4821 0.44118 0.47845 0.0
C889 C 0.47104 0.47161 0.4036 0.0
H890 H 0.45459 0.42485 0.43254 0.0
C891 C 0.48696 0.48092 0.42942 0.0
C892 C 0.49121 0.47015 0.45672 0.0
H893 H 0.46821 0.48031 0.38275 0.0
H894 H 0.4959 0.49658 0.42806 0.0
C895 C 0.47918 0.44987 0.45775 0.0
C896 C 0.54204 0.04692 0.55946 0.0
C897 C 0.52191 0.03983 0.55953 0.0
H898 H 0.5656 0.04448 0.53481 0.0
C899 C 0.51002 0.02467 0.53324 0.0
H900 H 0.55157 0.05861 0.57936 0.0
C901 C 0.51801 0.01639 0.50821 0.0
C902 C 0.53809 0.0233 0.5085 0.0
H903 H 0.49445 0.01883 0.5327 0.0
H904 H 0.50842 0.00452 0.48875 0.0
C905 C 0.55007 0.03884 0.53394 0.0
C906 C 0.49493 0.95472 0.98826 0.0
C907 C 0.49866 0.9715 0.00957 0.0
H908 H 0.476 0.93222 0.94785 0.0
C909 C 0.485 0.97778 0.00795 0.0
H910 H 0.50515 0.94947 0.98897 0.0
C911 C 0.46821 0.9678 0.98468 0.0
C912 C 0.4648 0.95141 0.96227 0.0
H913 H 0.48738 0.99059 0.02422 0.0
H914 H 0.45818 0.97327 0.98342 0.0
C915 C 0.47821 0.94482 0.96472 0.0
C916 C 0.01176 0.50427 0.07842 0.0
C917 C 0.02759 0.51585 0.05345 0.0
H918 H 0.99165 0.50338 0.12213 0.0
C919 C 0.03538 0.53608 0.05391 0.0
H920 H 0.00537 0.48863 0.07867 0.0
C921 C 0.02763 0.54455 0.07914 0.0
C922 C 0.01176 0.53296 0.10404 0.0
H923 H 0.0476 0.5454 0.03505 0.0
H924 H 0.03403 0.56019 0.079 0.0
C925 C 0.00385 0.51271 0.10324 0.0
C926 C 0.53065 0.54388 0.94286 0.0
C927 C 0.51385 0.52554 0.94596 0.0
H928 H 0.54487 0.57128 0.91273 0.0
C929 C 0.49774 0.5213 0.92177 0.0
H930 H 0.54331 0.54759 0.96112 0.0
C931 C 0.49855 0.53494 0.89443 0.0
C932 C 0.51558 0.55302 0.89032 0.0
H933 H 0.48454 0.50733 0.92362 0.0
H934 H 0.486 0.53108 0.87572 0.0
C935 C 0.53156 0.55744 0.91512 0.0
loop_
_geom_bond_atom_site_label_1
_geom_bond_atom_site_label_2
_geom_bond_distance
_geom_bond_site_symmetry_2
_ccdc_geom_bond_type
O0 Cd1 2.300 . S
O0 C7 1.275 . S
Cd1 O0 2.300 . S
Cd1 O9 2.381 . S
Cd1 O10 2.378 . S
O2 Cd3 2.385 . S
O2 C7 1.255 . S
Cd3 O2 2.385 . S
Cd3 O4 2.317 . S
O4 Cd3 2.317 . S
O4 C5 1.232 . S
C5 O4 1.232 . S
C5 O6 1.218 . S
O6 C5 1.218 . S
C7 O0 1.275 . S
C7 O2 1.255 . S
C8 O9 1.258 . S
C8 O10 1.256 . S
O9 Cd1 2.381 . S
O9 C8 1.258 . S
O10 Cd1 2.378 . S
O10 C8 1.256 . S
O11 Cd12 2.300 . S
O11 C18 1.275 . S
Cd12 O11 2.300 . S
Cd12 O20 2.381 . S
Cd12 O21 2.378 . S
O13 Cd14 2.385 . S
O13 C18 1.255 . S
Cd14 O13 2.385 . S
Cd14 O15 2.317 . S
O15 Cd14 2.317 . S
O15 C16 1.232 . S
C16 O15 1.232 . S
C16 O17 1.218 . S
O17 C16 1.218 . S
C18 O11 1.275 . S
C18 O13 1.255 . S
C19 O20 1.258 . S
C19 O21 1.256 . S
O20 Cd12 2.381 . S
O20 C19 1.258 . S
O21 Cd12 2.378 . S
O21 C19 1.256 . S
O22 Cd23 2.300 . S
O22 C29 1.275 . S
Cd23 O22 2.300 . S
Cd23 O31 2.381 . S
Cd23 O32 2.378 . S
O24 Cd25 2.385 . S
O24 C29 1.255 . S
Cd25 O24 2.385 . S
Cd25 O26 2.317 . S
O26 Cd25 2.317 . S
O26 C27 1.232 . S
C27 O26 1.232 . S
C27 O28 1.218 . S
O28 C27 1.218 . S
C29 O22 1.275 . S
C29 O24 1.255 . S
C30 O31 1.258 . S
C30 O32 1.256 . S
O31 Cd23 2.381 . S
O31 C30 1.258 . S
O32 Cd23 2.378 . S
O32 C30 1.256 . S
O33 Cd34 2.300 . S
O33 C40 1.275 . S
Cd34 O33 2.300 . S
Cd34 O42 2.381 . S
Cd34 O43 2.378 . S
O35 Cd36 2.385 . S
O35 C40 1.255 . S
Cd36 O35 2.385 . S
Cd36 O37 2.317 . S
O37 Cd36 2.317 . S
O37 C38 1.232 . S
C38 O37 1.232 . S
C38 O39 1.218 . S
O39 C38 1.218 . S
C40 O33 1.275 . S
C40 O35 1.255 . S
C41 O42 1.258 . S
C41 O43 1.256 . S
O42 Cd34 2.381 . S
O42 C41 1.258 . S
O43 Cd34 2.378 . S
O43 C41 1.256 . S
O44 Cd45 2.300 . S
O44 C51 1.275 . S
Cd45 O44 2.300 . S
Cd45 O53 2.381 . S
Cd45 O54 2.378 . S
O46 Cd47 2.385 . S
O46 C51 1.255 . S
Cd47 O46 2.385 . S
Cd47 O48 2.317 . S
O48 Cd47 2.317 . S
O48 C49 1.232 . S
C49 O48 1.232 . S
C49 O50 1.218 . S
O50 C49 1.218 . S
C51 O44 1.275 . S
C51 O46 1.255 . S
C52 O53 1.258 . S
C52 O54 1.256 . S
O53 Cd45 2.381 . S
O53 C52 1.258 . S
O54 Cd45 2.378 . S
O54 C52 1.256 . S
O55 Cd56 2.300 . S
O55 C62 1.275 . S
Cd56 O55 2.300 . S
Cd56 O64 2.381 . S
Cd56 O65 2.378 . S
O57 Cd58 2.385 . S
O57 C62 1.255 . S
Cd58 O57 2.385 . S
Cd58 O59 2.317 . S
O59 Cd58 2.317 . S
O59 C60 1.232 . S
C60 O59 1.232 . S
C60 O61 1.218 . S
O61 C60 1.218 . S
C62 O55 1.275 . S
C62 O57 1.255 . S
C63 O64 1.258 . S
C63 O65 1.256 . S
O64 Cd56 2.381 . S
O64 C63 1.258 . S
O65 Cd56 2.378 . S
O65 C63 1.256 . S
O66 Cd67 2.300 . S
O66 C73 1.275 . S
Cd67 O66 2.300 . S
Cd67 O75 2.381 . S
Cd67 O76 2.378 . S
O68 Cd69 2.385 . S
O68 C73 1.255 . S
Cd69 O68 2.385 . S
Cd69 O70 2.317 . S
O70 Cd69 2.317 . S
O70 C71 1.232 . S
C71 O70 1.232 . S
C71 O72 1.218 . S
O72 C71 1.218 . S
C73 O66 1.275 . S
C73 O68 1.255 . S
C74 O75 1.258 . S
C74 O76 1.256 . S
O75 Cd67 2.381 . S
O75 C74 1.258 . S
O76 Cd67 2.378 . S
O76 C74 1.256 . S
O77 Cd78 2.300 . S
O77 C84 1.275 . S
Cd78 O77 2.300 . S
Cd78 O86 2.381 . S
Cd78 O87 2.378 . S
O79 Cd80 2.385 . S
O79 C84 1.255 . S
Cd80 O79 2.385 . S
Cd80 O81 2.317 . S
O81 Cd80 2.317 . S
O81 C82 1.232 . S
C82 O81 1.232 . S
C82 O83 1.218 . S
O83 C82 1.218 . S
C84 O77 1.275 . S
C84 O79 1.255 . S
C85 O86 1.258 . S
C85 O87 1.256 . S
O86 Cd78 2.381 . S
O86 C85 1.258 . S
O87 Cd78 2.378 . S
O87 C85 1.256 . S
O88 Cd89 2.300 . S
O88 C95 1.275 . S
Cd89 O88 2.300 . S
Cd89 O97 2.381 . S
Cd89 O98 2.378 . S
O90 Cd91 2.385 . S
O90 C95 1.255 . S
Cd91 O90 2.385 . S
Cd91 O92 2.317 . S
O92 Cd91 2.317 . S
O92 C93 1.232 . S
C93 O92 1.232 . S
C93 O94 1.218 . S
O94 C93 1.218 . S
C95 O88 1.275 . S
C95 O90 1.255 . S
C96 O97 1.258 . S
C96 O98 1.256 . S
O97 Cd89 2.381 . S
O97 C96 1.258 . S
O98 Cd89 2.378 . S
O98 C96 1.256 . S
O99 Cd100 2.300 . S
O99 C106 1.275 . S
Cd100 O99 2.300 . S
Cd100 O108 2.381 . S
Cd100 O109 2.378 . S
O101 Cd102 2.385 . S
O101 C106 1.255 . S
Cd102 O101 2.385 . S
Cd102 O103 2.317 . S
O103 Cd102 2.317 . S
O103 C104 1.232 . S
C104 O103 1.232 . S
C104 O105 1.218 . S
O105 C104 1.218 . S
C106 O99 1.275 . S
C106 O101 1.255 . S
C107 O108 1.258 . S
C107 O109 1.256 . S
O108 Cd100 2.381 . S
O108 C107 1.258 . S
O109 Cd100 2.378 . S
O109 C107 1.256 . S
O110 Cd111 2.300 . S
O110 C117 1.275 . S
Cd111 O110 2.300 . S
Cd111 O119 2.381 . S
Cd111 O120 2.378 . S
O112 Cd113 2.385 . S
O112 C117 1.255 . S
Cd113 O112 2.385 . S
Cd113 O114 2.317 . S
O114 Cd113 2.317 . S
O114 C115 1.232 . S
C115 O114 1.232 . S
C115 O116 1.218 . S
O116 C115 1.218 . S
C117 O110 1.275 . S
C117 O112 1.255 . S
C118 O119 1.258 . S
C118 O120 1.256 . S
O119 Cd111 2.381 . S
O119 C118 1.258 . S
O120 Cd111 2.378 . S
O120 C118 1.256 . S
O121 Cd122 2.300 . S
O121 C128 1.275 . S
Cd122 O121 2.300 . S
Cd122 O130 2.381 . S
Cd122 O131 2.378 . S
O123 Cd124 2.385 . S
O123 C128 1.255 . S
Cd124 O123 2.385 . S
Cd124 O125 2.317 . S
O125 Cd124 2.317 . S
O125 C126 1.232 . S
C126 O125 1.232 . S
C126 O127 1.218 . S
O127 C126 1.218 . S
C128 O121 1.275 . S
C128 O123 1.255 . S
C129 O130 1.258 . S
C129 O131 1.256 . S
O130 Cd122 2.381 . S
O130 C129 1.258 . S
O131 Cd122 2.378 . S
O131 C129 1.256 . S
O132 Cd133 2.300 . S
O132 C139 1.275 . S
Cd133 O132 2.300 . S
Cd133 O141 2.381 . S
Cd133 O142 2.378 . S
O134 Cd135 2.385 . S
O134 C139 1.255 . S
Cd135 O134 2.385 . S
Cd135 O136 2.317 . S
O136 Cd135 2.317 . S
O136 C137 1.232 . S
C137 O136 1.232 . S
C137 O138 1.218 . S
O138 C137 1.218 . S
C139 O132 1.275 . S
C139 O134 1.255 . S
C140 O141 1.258 . S
C140 O142 1.256 . S
O141 Cd133 2.381 . S
O141 C140 1.258 . S
O142 Cd133 2.378 . S
O142 C140 1.256 . S
O143 Cd144 2.300 . S
O143 C150 1.275 . S
Cd144 O143 2.300 . S
Cd144 O152 2.381 . S
Cd144 O153 2.378 . S
O145 Cd146 2.385 . S
O145 C150 1.255 . S
Cd146 O145 2.385 . S
Cd146 O147 2.317 . S
O147 Cd146 2.317 . S
O147 C148 1.232 . S
C148 O147 1.232 . S
C148 O149 1.218 . S
O149 C148 1.218 . S
C150 O143 1.275 . S
C150 O145 1.255 . S
C151 O152 1.258 . S
C151 O153 1.256 . S
O152 Cd144 2.381 . S
O152 C151 1.258 . S
O153 Cd144 2.378 . S
O153 C151 1.256 . S
O154 Cd155 2.300 . S
O154 C161 1.275 . S
Cd155 O154 2.300 . S
Cd155 O163 2.381 . S
Cd155 O164 2.378 . S
O156 Cd157 2.385 . S
O156 C161 1.255 . S
Cd157 O156 2.385 . S
Cd157 O158 2.317 . S
O158 Cd157 2.317 . S
O158 C159 1.232 . S
C159 O158 1.232 . S
C159 O160 1.218 . S
O160 C159 1.218 . S
C161 O154 1.275 . S
C161 O156 1.255 . S
C162 O163 1.258 . S
C162 O164 1.256 . S
O163 Cd155 2.381 . S
O163 C162 1.258 . S
O164 Cd155 2.378 . S
O164 C162 1.256 . S
O165 Cd166 2.300 . S
O165 C172 1.275 . S
Cd166 O165 2.300 . S
Cd166 O174 2.340 1_455 S
Cd166 O175 2.378 . S
O167 Cd168 2.385 . S
O167 C172 1.255 . S
Cd168 O167 2.385 . S
Cd168 O169 2.317 1_455 S
O169 Cd168 2.317 1_655 S
O169 C170 1.232 . S
C170 O169 1.232 . S
C170 O171 1.218 . S
O171 C170 1.218 . S
C172 O165 1.275 . S
C172 O167 1.255 . S
C173 O174 1.243 1_455 S
C173 O175 1.256 . S
O174 Cd166 2.340 1_655 S
O174 C173 1.243 1_655 S
O175 Cd166 2.378 . S
O175 C173 1.256 . S
O176 Cd177 2.300 . S
O176 C183 1.275 . S
Cd177 O176 2.300 . S
Cd177 O185 2.381 . S
Cd177 O186 2.378 . S
O178 Cd179 2.385 . S
O178 C183 1.255 . S
Cd179 O178 2.385 . S
Cd179 O180 2.317 . S
O180 Cd179 2.317 . S
O180 C181 1.232 . S
C181 O180 1.232 . S
C181 O182 1.218 . S
O182 C181 1.218 . S
C183 O176 1.275 . S
C183 O178 1.255 . S
C184 O185 1.258 . S
C184 O186 1.256 . S
O185 Cd177 2.381 . S
O185 C184 1.258 . S
O186 Cd177 2.378 . S
O186 C184 1.256 . S
O187 Cd188 2.300 . S
O187 C194 1.275 . S
Cd188 O187 2.300 . S
Cd188 O196 2.395 1_565 S
Cd188 O197 2.378 . S
O189 Cd190 2.385 . S
O189 C194 1.255 . S
Cd190 O189 2.385 . S
Cd190 O191 2.317 1_565 S
O191 Cd190 2.317 1_545 S
O191 C192 1.232 . S
C192 O191 1.232 . S
C192 O193 1.218 . S
O193 C192 1.218 . S
C194 O187 1.275 . S
C194 O189 1.255 . S
C195 O196 1.243 1_565 S
C195 O197 1.256 . S
O196 Cd188 2.395 1_545 S
O196 C195 1.243 1_545 S
O197 Cd188 2.378 . S
O197 C195 1.256 . S
O198 Cd199 2.300 1_565 S
O198 C205 1.275 1_565 S
Cd199 O198 2.300 1_545 S
Cd199 O207 2.381 1_545 S
Cd199 O208 2.378 . S
O200 Cd201 2.385 . S
O200 C205 1.255 . S
Cd201 O200 2.385 . S
Cd201 O202 2.317 . S
O202 Cd201 2.317 . S
O202 C203 1.232 . S
C203 O202 1.232 . S
C203 O204 1.218 . S
O204 C203 1.218 . S
C205 O198 1.275 1_545 S
C205 O200 1.255 . S
C206 O207 1.303 . S
C206 O208 1.216 1_565 S
O207 Cd199 2.381 1_565 S
O207 C206 1.303 . S
O208 Cd199 2.378 . S
O208 C206 1.216 1_545 S
O209 Cd210 2.300 1_455 S
O209 C216 1.275 1_455 S
Cd210 O209 2.300 1_655 S
Cd210 O218 2.381 1_655 S
Cd210 O219 2.378 . S
O211 Cd212 2.385 . S
O211 C216 1.255 . S
Cd212 O211 2.385 . S
Cd212 O213 2.317 . S
O213 Cd212 2.317 . S
O213 C214 1.232 . S
C214 O213 1.232 . S
C214 O215 1.218 . S
O215 C214 1.218 . S
C216 O209 1.275 1_655 S
C216 O211 1.255 . S
C217 O218 1.281 . S
C217 O219 1.194 1_455 S
O218 Cd210 2.381 1_455 S
O218 C217 1.281 . S
O219 Cd210 2.378 . S
O219 C217 1.194 1_655 S
O220 Cd221 2.300 . S
O220 C227 1.275 . S
Cd221 O220 2.300 . S
Cd221 O229 2.381 . S
Cd221 O230 2.378 . S
O222 Cd223 2.385 . S
O222 C227 1.255 . S
Cd223 O222 2.385 . S
Cd223 O224 2.317 . S
O224 Cd223 2.317 . S
O224 C225 1.232 . S
C225 O224 1.232 . S
C225 O226 1.218 . S
O226 C225 1.218 . S
C227 O220 1.275 . S
C227 O222 1.255 . S
C228 O229 1.258 . S
C228 O230 1.256 . S
O229 Cd221 2.381 . S
O229 C228 1.258 . S
O230 Cd221 2.378 . S
O230 C228 1.256 . S
O231 Cd232 2.300 . S
O231 C238 1.275 . S
Cd232 O231 2.300 . S
Cd232 O240 2.381 . S
Cd232 O241 2.378 . S
O233 Cd234 2.385 . S
O233 C238 1.255 . S
Cd234 O233 2.385 . S
Cd234 O235 2.317 . S
O235 Cd234 2.317 . S
O235 C236 1.232 . S
C236 O235 1.232 . S
C236 O237 1.218 . S
O237 C236 1.218 . S
C238 O231 1.275 . S
C238 O233 1.255 . S
C239 O240 1.258 . S
C239 O241 1.256 . S
O240 Cd232 2.381 . S
O240 C239 1.258 . S
O241 Cd232 2.378 . S
O241 C239 1.256 . S
O242 Cd243 2.300 . S
O242 C249 1.275 . S
Cd243 O242 2.300 . S
Cd243 O251 2.381 . S
Cd243 O252 2.378 . S
O244 Cd245 2.385 . S
O244 C249 1.255 . S
Cd245 O244 2.385 . S
Cd245 O246 2.317 . S
O246 Cd245 2.317 . S
O246 C247 1.232 . S
C247 O246 1.232 . S
C247 O248 1.218 . S
O248 C247 1.218 . S
C249 O242 1.275 . S
C249 O244 1.255 . S
C250 O251 1.258 . S
C250 O252 1.256 . S
O251 Cd243 2.381 . S
O251 C250 1.258 . S
O252 Cd243 2.378 . S
O252 C250 1.256 . S
O253 Cd254 2.300 . S
O253 C260 1.275 . S
Cd254 O253 2.300 . S
Cd254 O262 2.381 . S
Cd254 O263 2.378 . S
O255 Cd256 2.385 . S
O255 C260 1.255 . S
Cd256 O255 2.385 . S
Cd256 O257 2.317 . S
O257 Cd256 2.317 . S
O257 C258 1.232 . S
C258 O257 1.232 . S
C258 O259 1.218 . S
O259 C258 1.218 . S
C260 O253 1.275 . S
C260 O255 1.255 . S
C261 O262 1.258 . S
C261 O263 1.256 . S
O262 Cd254 2.381 . S
O262 C261 1.258 . S
O263 Cd254 2.378 . S
O263 C261 1.256 . S
O264 Cd265 2.300 . S
O264 C271 1.275 . S
Cd265 O264 2.300 . S
Cd265 O273 2.340 1_545 S
Cd265 O274 2.378 . S
O266 Cd267 2.385 . S
O266 C271 1.255 . S
Cd267 O266 2.385 . S
Cd267 O268 2.317 1_545 S
O268 Cd267 2.317 1_565 S
O268 C269 1.232 . S
C269 O268 1.232 . S
C269 O270 1.218 . S
O270 C269 1.218 . S
C271 O264 1.275 . S
C271 O266 1.255 . S
C272 O273 1.243 1_545 S
C272 O274 1.256 . S
O273 Cd265 2.340 1_565 S
O273 C272 1.243 1_565 S
O274 Cd265 2.378 . S
O274 C272 1.256 . S
O275 Cd276 2.300 . S
O275 C282 1.275 . S
Cd276 O275 2.300 . S
Cd276 O284 2.394 1_655 S
Cd276 O285 2.378 . S
O277 Cd278 2.385 . S
O277 C282 1.255 . S
Cd278 O277 2.385 . S
Cd278 O279 2.317 1_655 S
O279 Cd278 2.317 1_455 S
O279 C280 1.232 . S
C280 O279 1.232 . S
C280 O281 1.218 . S
O281 C280 1.218 . S
C282 O275 1.275 . S
C282 O277 1.255 . S
C283 O284 1.243 1_655 S
C283 O285 1.256 . S
O284 Cd276 2.394 1_455 S
O284 C283 1.243 1_455 S
O285 Cd276 2.378 . S
O285 C283 1.256 . S
O286 Cd287 2.300 . S
O286 C293 1.275 . S
Cd287 O286 2.300 . S
Cd287 O295 2.381 . S
Cd287 O296 2.378 . S
O288 Cd289 2.385 . S
O288 C293 1.255 . S
Cd289 O288 2.385 . S
Cd289 O290 2.317 . S
O290 Cd289 2.317 . S
O290 C291 1.232 . S
C291 O290 1.232 . S
C291 O292 1.218 . S
O292 C291 1.218 . S
C293 O286 1.275 . S
C293 O288 1.255 . S
C294 O295 1.258 . S
C294 O296 1.256 . S
O295 Cd287 2.381 . S
O295 C294 1.258 . S
O296 Cd287 2.378 . S
O296 C294 1.256 . S
O297 Cd298 2.300 . S
O297 C304 1.275 . S
Cd298 O297 2.300 . S
Cd298 O306 2.381 . S
Cd298 O307 2.378 . S
O299 Cd300 2.385 . S
O299 C304 1.255 . S
Cd300 O299 2.385 . S
Cd300 O301 2.317 . S
O301 Cd300 2.317 . S
O301 C302 1.232 . S
C302 O301 1.232 . S
C302 O303 1.218 . S
O303 C302 1.218 . S
C304 O297 1.275 . S
C304 O299 1.255 . S
C305 O306 1.258 . S
C305 O307 1.256 . S
O306 Cd298 2.381 . S
O306 C305 1.258 . S
O307 Cd298 2.378 . S
O307 C305 1.256 . S
O308 Cd309 2.300 . S
O308 C315 1.275 . S
Cd309 O308 2.300 . S
Cd309 O317 2.381 . S
Cd309 O318 2.378 . S
O310 Cd311 2.385 . S
O310 C315 1.255 . S
Cd311 O310 2.385 . S
Cd311 O312 2.317 . S
O312 Cd311 2.317 . S
O312 C313 1.232 . S
C313 O312 1.232 . S
C313 O314 1.218 . S
O314 C313 1.218 . S
C315 O308 1.275 . S
C315 O310 1.255 . S
C316 O317 1.258 . S
C316 O318 1.256 . S
O317 Cd309 2.381 . S
O317 C316 1.258 . S
O318 Cd309 2.378 . S
O318 C316 1.256 . S
O319 Cd320 2.300 . S
O319 C326 1.275 . S
Cd320 O319 2.300 . S
Cd320 O328 2.381 . S
Cd320 O329 2.378 . S
O321 Cd322 2.385 . S
O321 C326 1.255 . S
Cd322 O321 2.385 . S
Cd322 O323 2.317 . S
O323 Cd322 2.317 . S
O323 C324 1.232 . S
C324 O323 1.232 . S
C324 O325 1.218 . S
O325 C324 1.218 . S
C326 O319 1.275 . S
C326 O321 1.255 . S
C327 O328 1.258 . S
C327 O329 1.256 . S
O328 Cd320 2.381 . S
O328 C327 1.258 . S
O329 Cd320 2.378 . S
O329 C327 1.256 . S
O330 Cd331 2.300 . S
O330 C337 1.275 . S
Cd331 O330 2.300 . S
Cd331 O339 2.381 . S
Cd331 O340 2.378 . S
O332 Cd333 2.385 . S
O332 C337 1.255 . S
Cd333 O332 2.385 . S
Cd333 O334 2.317 . S
O334 Cd333 2.317 . S
O334 C335 1.232 . S
C335 O334 1.232 . S
C335 O336 1.218 . S
O336 C335 1.218 . S
C337 O330 1.275 . S
C337 O332 1.255 . S
C338 O339 1.258 . S
C338 O340 1.256 . S
O339 Cd331 2.381 . S
O339 C338 1.258 . S
O340 Cd331 2.378 . S
O340 C338 1.256 . S
O341 Cd342 2.300 . S
O341 C348 1.275 . S
Cd342 O341 2.300 . S
Cd342 O350 2.381 . S
Cd342 O351 2.378 . S
O343 Cd344 2.385 . S
O343 C348 1.255 . S
Cd344 O343 2.385 . S
Cd344 O345 2.317 . S
O345 Cd344 2.317 . S
O345 C346 1.232 . S
C346 O345 1.232 . S
C346 O347 1.218 . S
O347 C346 1.218 . S
C348 O341 1.275 . S
C348 O343 1.255 . S
C349 O350 1.258 . S
C349 O351 1.256 . S
O350 Cd342 2.381 . S
O350 C349 1.258 . S
O351 Cd342 2.378 . S
O351 C349 1.256 . S
O352 Cd353 2.300 . S
O352 C359 1.275 . S
Cd353 O352 2.300 . S
Cd353 O361 2.381 . S
Cd353 O362 2.378 . S
O354 Cd355 2.385 . S
O354 C359 1.255 . S
Cd355 O354 2.385 . S
Cd355 O356 2.317 . S
O356 Cd355 2.317 . S
O356 C357 1.232 . S
C357 O356 1.232 . S
C357 O358 1.218 . S
O358 C357 1.218 . S
C359 O352 1.275 . S
C359 O354 1.255 . S
C360 O361 1.258 . S
C360 O362 1.256 . S
O361 Cd353 2.381 . S
O361 C360 1.258 . S
O362 Cd353 2.378 . S
O362 C360 1.256 . S
O363 Cd364 2.300 1_655 S
O363 C370 1.275 1_655 S
Cd364 O363 2.300 1_455 S
Cd364 O372 2.381 1_455 S
Cd364 O373 2.378 . S
O365 Cd366 2.385 . S
O365 C370 1.255 . S
Cd366 O365 2.385 . S
Cd366 O367 2.317 . S
O367 Cd366 2.317 . S
O367 C368 1.232 . S
C368 O367 1.232 . S
C368 O369 1.218 . S
O369 C368 1.218 . S
C370 O363 1.275 1_455 S
C370 O365 1.255 . S
C371 O372 1.304 . S
C371 O373 1.216 1_655 S
O372 Cd364 2.381 1_655 S
O372 C371 1.304 . S
O373 Cd364 2.378 . S
O373 C371 1.216 1_455 S
O374 Cd375 2.300 . S
O374 C381 1.275 . S
Cd375 O374 2.300 . S
Cd375 O383 2.381 . S
Cd375 O384 2.378 . S
O376 Cd377 2.385 . S
O376 C381 1.255 . S
Cd377 O376 2.385 . S
Cd377 O378 2.317 . S
O378 Cd377 2.317 . S
O378 C379 1.232 . S
C379 O378 1.232 . S
C379 O380 1.218 . S
O380 C379 1.218 . S
C381 O374 1.275 . S
C381 O376 1.255 . S
C382 O383 1.258 . S
C382 O384 1.256 . S
O383 Cd375 2.381 . S
O383 C382 1.258 . S
O384 Cd375 2.378 . S
O384 C382 1.256 . S
O385 Cd386 2.300 1_545 S
O385 C392 1.275 1_545 S
Cd386 O385 2.300 1_565 S
Cd386 O394 2.381 1_565 S
Cd386 O395 2.378 . S
O387 Cd388 2.385 . S
O387 C392 1.255 . S
Cd388 O387 2.385 . S
Cd388 O389 2.317 . S
O389 Cd388 2.317 . S
O389 C390 1.232 . S
C390 O389 1.232 . S
C390 O391 1.218 . S
O391 C390 1.218 . S
C392 O385 1.275 1_565 S
C392 O387 1.255 . S
C393 O394 1.281 . S
C393 O395 1.195 1_545 S
O394 Cd386 2.381 1_545 S
O394 C393 1.281 . S
O395 Cd386 2.378 . S
O395 C393 1.195 1_565 S
C396 C397 1.387 . S
C396 H400 0.950 . S
C396 C405 1.390 . S
C397 C396 1.387 . S
C397 C399 1.387 . S
H398 C405 0.950 . S
C399 C397 1.387 . S
C399 C401 1.390 . S
C399 H403 0.950 . S
H400 C396 0.950 . S
C401 C399 1.390 . S
C401 C402 1.387 . S
C401 H404 0.950 . S
C402 C401 1.387 . S
C402 C405 1.387 . S
H403 C399 0.950 . S
H404 C401 0.950 . S
C405 C396 1.390 . S
C405 H398 0.950 . S
C405 C402 1.387 . S
C406 C407 1.387 . S
C406 H410 0.950 . S
C406 C415 1.390 . S
C407 C406 1.387 . S
C407 C409 1.387 . S
H408 C415 0.950 . S
C409 C407 1.387 . S
C409 C411 1.390 . S
C409 H413 0.950 . S
H410 C406 0.950 . S
C411 C409 1.390 . S
C411 C412 1.387 . S
C411 H414 0.950 . S
C412 C411 1.387 . S
C412 C415 1.387 . S
H413 C409 0.950 . S
H414 C411 0.950 . S
C415 C406 1.390 . S
C415 H408 0.950 . S
C415 C412 1.387 . S
C416 C417 1.387 . S
C416 H420 0.950 . S
C416 C425 1.390 . S
C417 C416 1.387 . S
C417 C419 1.387 . S
H418 C425 0.950 . S
C419 C417 1.387 . S
C419 C421 1.390 . S
C419 H423 0.950 . S
H420 C416 0.950 . S
C421 C419 1.390 . S
C421 C422 1.387 . S
C421 H424 0.950 . S
C422 C421 1.387 . S
C422 C425 1.387 . S
H423 C419 0.950 . S
H424 C421 0.950 . S
C425 C416 1.390 . S
C425 H418 0.950 . S
C425 C422 1.387 . S
C426 C427 1.387 . S
C426 H430 0.950 . S
C426 C435 1.390 . S
C427 C426 1.387 . S
C427 C429 1.387 . S
H428 C435 0.950 . S
C429 C427 1.387 . S
C429 C431 1.390 . S
C429 H433 0.950 . S
H430 C426 0.950 . S
C431 C429 1.390 . S
C431 C432 1.387 . S
C431 H434 0.950 . S
C432 C431 1.387 . S
C432 C435 1.387 . S
H433 C429 0.950 . S
H434 C431 0.950 . S
C435 C426 1.390 . S
C435 H428 0.950 . S
C435 C432 1.387 . S
C436 C437 1.387 . S
C436 H440 0.950 . S
C436 C445 1.390 . S
C437 C436 1.387 . S
C437 C439 1.387 . S
H438 C445 0.950 . S
C439 C437 1.387 . S
C439 C441 1.390 . S
C439 H443 0.950 . S
H440 C436 0.950 . S
C441 C439 1.390 . S
C441 C442 1.387 . S
C441 H444 0.950 . S
C442 C441 1.387 . S
C442 C445 1.387 . S
H443 C439 0.950 . S
H444 C441 0.950 . S
C445 C436 1.390 . S
C445 H438 0.950 . S
C445 C442 1.387 . S
C446 C447 1.387 . S
C446 H450 0.950 . S
C446 C455 1.390 . S
C447 C446 1.387 . S
C447 C449 1.387 . S
H448 C455 0.950 . S
C449 C447 1.387 . S
C449 C451 1.390 . S
C449 H453 0.950 . S
H450 C446 0.950 . S
C451 C449 1.390 . S
C451 C452 1.387 . S
C451 H454 0.950 . S
C452 C451 1.387 . S
C452 C455 1.387 . S
H453 C449 0.950 . S
H454 C451 0.950 . S
C455 C446 1.390 . S
C455 H448 0.950 . S
C455 C452 1.387 . S
C456 C457 1.387 . S
C456 H460 0.950 . S
C456 C465 1.390 . S
C457 C456 1.387 . S
C457 C459 1.387 . S
H458 C465 0.950 . S
C459 C457 1.387 . S
C459 C461 1.390 . S
C459 H463 0.950 . S
H460 C456 0.950 . S
C461 C459 1.390 . S
C461 C462 1.387 . S
C461 H464 0.950 . S
C462 C461 1.387 . S
C462 C465 1.387 . S
H463 C459 0.950 . S
H464 C461 0.950 . S
C465 C456 1.390 . S
C465 H458 0.950 . S
C465 C462 1.387 . S
C466 C467 1.387 . S
C466 H470 0.950 . S
C466 C475 1.390 . S
C467 C466 1.387 . S
C467 C469 1.387 . S
H468 C475 0.950 . S
C469 C467 1.387 . S
C469 C471 1.390 . S
C469 H473 0.950 . S
H470 C466 0.950 . S
C471 C469 1.390 . S
C471 C472 1.387 . S
C471 H474 0.950 . S
C472 C471 1.387 . S
C472 C475 1.387 . S
H473 C469 0.950 . S
H474 C471 0.950 . S
C475 C466 1.390 . S
C475 H468 0.950 . S
C475 C472 1.387 . S
C476 C477 1.387 . S
C476 H480 0.950 . S
C476 C485 1.390 . S
C477 C476 1.387 . S
C477 C479 1.387 . S
H478 C485 0.950 . S
C479 C477 1.387 . S
C479 C481 1.390 . S
C479 H483 0.950 . S
H480 C476 0.950 . S
C481 C479 1.390 . S
C481 C482 1.387 . S
C481 H484 0.950 . S
C482 C481 1.387 . S
C482 C485 1.387 . S
H483 C479 0.950 . S
H484 C481 0.950 . S
C485 C476 1.390 . S
C485 H478 0.950 . S
C485 C482 1.387 . S
C486 C487 1.387 . S
C486 H490 0.950 . S
C486 C495 1.390 . S
C487 C486 1.387 . S
C487 C489 1.387 . S
H488 C495 0.950 . S
C489 C487 1.387 . S
C489 C491 1.390 . S
C489 H493 0.950 . S
H490 C486 0.950 . S
C491 C489 1.390 . S
C491 C492 1.387 . S
C491 H494 0.950 . S
C492 C491 1.387 . S
C492 C495 1.387 . S
H493 C489 0.950 . S
H494 C491 0.950 . S
C495 C486 1.390 . S
C495 H488 0.950 . S
C495 C492 1.387 . S
C496 C497 1.387 . S
C496 H500 0.950 . S
C496 C505 1.390 . S
C497 C496 1.387 . S
C497 C499 1.387 . S
H498 C505 0.950 . S
C499 C497 1.387 . S
C499 C501 1.390 . S
C499 H503 0.950 . S
H500 C496 0.950 . S
C501 C499 1.390 . S
C501 C502 1.387 . S
C501 H504 0.950 . S
C502 C501 1.387 . S
C502 C505 1.387 . S
H503 C499 0.950 . S
H504 C501 0.950 . S
C505 C496 1.390 . S
C505 H498 0.950 . S
C505 C502 1.387 . S
C506 C507 1.387 . S
C506 H510 0.950 . S
C506 C515 1.390 . S
C507 C506 1.387 . S
C507 C509 1.387 . S
H508 C515 0.950 . S
C509 C507 1.387 . S
C509 C511 1.390 . S
C509 H513 0.950 . S
H510 C506 0.950 . S
C511 C509 1.390 . S
C511 C512 1.387 . S
C511 H514 0.950 . S
C512 C511 1.387 . S
C512 C515 1.387 . S
H513 C509 0.950 . S
H514 C511 0.950 . S
C515 C506 1.390 . S
C515 H508 0.950 . S
C515 C512 1.387 . S
C516 C517 1.387 . S
C516 H520 0.950 . S
C516 C525 1.390 . S
C517 C516 1.387 . S
C517 C519 1.387 1_455 S
H518 C525 0.950 . S
C519 C517 1.387 1_655 S
C519 C521 1.390 . S
C519 H523 0.950 . S
H520 C516 0.950 . S
C521 C519 1.390 . S
C521 C522 1.387 . S
C521 H524 0.950 . S
C522 C521 1.387 . S
C522 C525 1.387 1_655 S
H523 C519 0.950 . S
H524 C521 0.950 . S
C525 C516 1.390 . S
C525 H518 0.950 . S
C525 C522 1.387 1_455 S
C526 C527 1.387 . S
C526 H530 0.950 . S
C526 C535 1.390 . S
C527 C526 1.387 . S
C527 C529 1.387 . S
H528 C535 0.950 . S
C529 C527 1.387 . S
C529 C531 1.390 . S
C529 H533 0.950 . S
H530 C526 0.950 . S
C531 C529 1.390 . S
C531 C532 1.387 . S
C531 H534 0.950 . S
C532 C531 1.387 . S
C532 C535 1.387 . S
H533 C529 0.950 . S
H534 C531 0.950 . S
C535 C526 1.390 . S
C535 H528 0.950 . S
C535 C532 1.387 . S
C536 C537 1.387 1_545 S
C536 H540 0.950 . S
C536 C545 1.390 . S
C537 C536 1.387 1_565 S
C537 C539 1.387 . S
H538 C545 0.950 . S
C539 C537 1.387 . S
C539 C541 1.390 . S
C539 H543 0.950 . S
H540 C536 0.950 . S
C541 C539 1.390 . S
C541 C542 1.387 1_565 S
C541 H544 0.950 . S
C542 C541 1.387 1_545 S
C542 C545 1.387 . S
H543 C539 0.950 . S
H544 C541 0.950 . S
C545 C536 1.390 . S
C545 H538 0.950 . S
C545 C542 1.387 . S
C546 C547 1.380 . S
C546 H550 0.943 . S
C546 C555 1.389 1_545 S
C547 C546 1.380 . S
C547 C549 1.387 . S
H548 C555 0.950 . S
C549 C547 1.387 . S
C549 C551 1.389 1_545 S
C549 H553 0.950 . S
H550 C546 0.943 . S
C551 C549 1.389 1_565 S
C551 C552 1.380 . S
C551 H554 0.943 . S
C552 C551 1.380 . S
C552 C555 1.387 . S
H553 C549 0.950 . S
H554 C551 0.943 . S
C555 C546 1.389 1_565 S
C555 H548 0.950 . S
C555 C552 1.387 . S
C556 C557 1.387 . S
C556 H560 0.950 . S
C556 C565 1.390 . S
C557 C556 1.387 . S
C557 C559 1.387 1_455 S
H558 C565 0.950 . S
C559 C557 1.387 1_655 S
C559 C561 1.390 . S
C559 H563 0.950 . S
H560 C556 0.950 . S
C561 C559 1.390 . S
C561 C562 1.387 . S
C561 H564 0.950 . S
C562 C561 1.387 . S
C562 C565 1.387 1_655 S
H563 C559 0.950 . S
H564 C561 0.950 . S
C565 C556 1.390 . S
C565 H558 0.950 . S
C565 C562 1.387 1_455 S
C566 C567 1.387 . S
C566 H570 0.950 . S
C566 C575 1.390 . S
C567 C566 1.387 . S
C567 C569 1.387 . S
H568 C575 0.950 . S
C569 C567 1.387 . S
C569 C571 1.390 . S
C569 H573 0.950 . S
H570 C566 0.950 . S
C571 C569 1.390 . S
C571 C572 1.387 . S
C571 H574 0.950 . S
C572 C571 1.387 . S
C572 C575 1.387 . S
H573 C569 0.950 . S
H574 C571 0.950 . S
C575 C566 1.390 . S
C575 H568 0.950 . S
C575 C572 1.387 . S
C576 C577 1.387 . S
C576 H580 0.950 . S
C576 C585 1.390 1_455 S
C577 C576 1.387 . S
C577 C579 1.387 . S
H578 C585 0.950 . S
C579 C577 1.387 . S
C579 C581 1.390 1_455 S
C579 H583 0.950 . S
H580 C576 0.950 . S
C581 C579 1.390 1_655 S
C581 C582 1.387 . S
C581 H584 0.950 . S
C582 C581 1.387 . S
C582 C585 1.387 . S
H583 C579 0.950 . S
H584 C581 0.950 . S
C585 C576 1.390 1_655 S
C585 H578 0.950 . S
C585 C582 1.387 . S
C586 C587 1.387 . S
C586 H590 0.950 . S
C586 C595 1.390 . S
C587 C586 1.387 . S
C587 C589 1.387 . S
H588 C595 0.950 . S
C589 C587 1.387 . S
C589 C591 1.390 . S
C589 H593 0.950 . S
H590 C586 0.950 . S
C591 C589 1.390 . S
C591 C592 1.387 . S
C591 H594 0.950 . S
C592 C591 1.387 . S
C592 C595 1.387 . S
H593 C589 0.950 . S
H594 C591 0.950 . S
C595 C586 1.390 . S
C595 H588 0.950 . S
C595 C592 1.387 . S
C596 C597 1.387 . S
C596 H600 0.950 . S
C596 C605 1.390 1_545 S
C597 C596 1.387 . S
C597 C599 1.387 . S
H598 C605 0.950 . S
C599 C597 1.387 . S
C599 C601 1.390 1_545 S
C599 H603 0.950 . S
H600 C596 0.950 . S
C601 C599 1.390 1_565 S
C601 C602 1.387 . S
C601 H604 0.950 . S
C602 C601 1.387 . S
C602 C605 1.387 . S
H603 C599 0.950 . S
H604 C601 0.950 . S
C605 C596 1.390 1_565 S
C605 H598 0.950 . S
C605 C602 1.387 . S
C606 C607 1.387 . S
C606 H610 0.950 . S
C606 C615 1.390 1_455 S
C607 C606 1.387 . S
C607 C609 1.387 . S
H608 C615 0.950 . S
C609 C607 1.387 . S
C609 C611 1.390 1_455 S
C609 H613 0.950 . S
H610 C606 0.950 . S
C611 C609 1.390 1_655 S
C611 C612 1.387 . S
C611 H614 0.950 . S
C612 C611 1.387 . S
C612 C615 1.387 . S
H613 C609 0.950 . S
H614 C611 0.950 . S
C615 C606 1.390 1_655 S
C615 H608 0.950 . S
C615 C612 1.387 . S
C616 C617 1.387 . S
C616 H620 0.950 . S
C616 C625 1.390 . S
C617 C616 1.387 . S
C617 C619 1.387 . S
H618 C625 0.950 . S
C619 C617 1.387 . S
C619 C621 1.390 . S
C619 H623 0.950 . S
H620 C616 0.950 . S
C621 C619 1.390 . S
C621 C622 1.387 . S
C621 H624 0.950 . S
C622 C621 1.387 . S
C622 C625 1.387 . S
H623 C619 0.950 . S
H624 C621 0.950 . S
C625 C616 1.390 . S
C625 H618 0.950 . S
C625 C622 1.387 . S
C626 C627 1.387 . S
C626 H630 0.950 . S
C626 C635 1.390 1_565 S
C627 C626 1.387 . S
C627 C629 1.387 . S
H628 C635 0.950 . S
C629 C627 1.387 . S
C629 C631 1.390 1_565 S
C629 H633 0.950 . S
H630 C626 0.950 . S
C631 C629 1.390 1_545 S
C631 C632 1.387 . S
C631 H634 0.950 . S
C632 C631 1.387 . S
C632 C635 1.387 . S
H633 C629 0.950 . S
H634 C631 0.950 . S
C635 C626 1.390 1_545 S
C635 H628 0.950 . S
C635 C632 1.387 . S
C636 C637 1.387 . S
C636 H640 0.950 . S
C636 C645 1.390 . S
C637 C636 1.387 . S
C637 C639 1.387 . S
H638 C645 0.950 . S
C639 C637 1.387 . S
C639 C641 1.390 . S
C639 H643 0.950 . S
H640 C636 0.950 . S
C641 C639 1.390 . S
C641 C642 1.387 . S
C641 H644 0.950 . S
C642 C641 1.387 . S
C642 C645 1.387 . S
H643 C639 0.950 . S
H644 C641 0.950 . S
C645 C636 1.390 . S
C645 H638 0.950 . S
C645 C642 1.387 . S
C646 C647 1.387 . S
C646 H650 0.950 . S
C646 C655 1.390 . S
C647 C646 1.387 . S
C647 C649 1.387 . S
H648 C655 0.950 . S
C649 C647 1.387 . S
C649 C651 1.390 . S
C649 H653 0.950 . S
H650 C646 0.950 . S
C651 C649 1.390 . S
C651 C652 1.387 . S
C651 H654 0.950 . S
C652 C651 1.387 . S
C652 C655 1.387 . S
H653 C649 0.950 . S
H654 C651 0.950 . S
C655 C646 1.390 . S
C655 H648 0.950 . S
C655 C652 1.387 . S
C656 C657 1.387 . S
C656 H660 0.950 . S
C656 C665 1.390 . S
C657 C656 1.387 . S
C657 C659 1.387 . S
H658 C665 0.950 . S
C659 C657 1.387 . S
C659 C661 1.390 . S
C659 H663 0.950 . S
H660 C656 0.950 . S
C661 C659 1.390 . S
C661 C662 1.387 . S
C661 H664 0.950 . S
C662 C661 1.387 . S
C662 C665 1.387 . S
H663 C659 0.950 . S
H664 C661 0.950 . S
C665 C656 1.390 . S
C665 H658 0.950 . S
C665 C662 1.387 . S
C666 C667 1.387 . S
C666 H670 0.950 . S
C666 C675 1.390 . S
C667 C666 1.387 . S
C667 C669 1.387 . S
H668 C675 0.950 . S
C669 C667 1.387 . S
C669 C671 1.390 . S
C669 H673 0.950 . S
H670 C666 0.950 . S
C671 C669 1.390 . S
C671 C672 1.387 . S
C671 H674 0.950 . S
C672 C671 1.387 . S
C672 C675 1.387 . S
H673 C669 0.950 . S
H674 C671 0.950 . S
C675 C666 1.390 . S
C675 H668 0.950 . S
C675 C672 1.387 . S
C676 C677 1.387 . S
C676 H680 0.950 . S
C676 C685 1.390 . S
C677 C676 1.387 . S
C677 C679 1.387 . S
H678 C685 0.950 . S
C679 C677 1.387 . S
C679 C681 1.390 . S
C679 H683 0.950 . S
H680 C676 0.950 . S
C681 C679 1.390 . S
C681 C682 1.387 . S
C681 H684 0.950 . S
C682 C681 1.387 . S
C682 C685 1.387 . S
H683 C679 0.950 . S
H684 C681 0.950 . S
C685 C676 1.390 . S
C685 H678 0.950 . S
C685 C682 1.387 . S
C686 C687 1.387 . S
C686 H690 0.950 . S
C686 C695 1.390 . S
C687 C686 1.387 . S
C687 C689 1.387 . S
H688 C695 0.950 . S
C689 C687 1.387 . S
C689 C691 1.390 . S
C689 H693 0.950 . S
H690 C686 0.950 . S
C691 C689 1.390 . S
C691 C692 1.387 . S
C691 H694 0.950 . S
C692 C691 1.387 . S
C692 C695 1.387 . S
H693 C689 0.950 . S
H694 C691 0.950 . S
C695 C686 1.390 . S
C695 H688 0.950 . S
C695 C692 1.387 . S
C696 C697 1.387 . S
C696 H700 0.950 . S
C696 C705 1.390 . S
C697 C696 1.387 . S
C697 C699 1.387 . S
H698 C705 0.950 . S
C699 C697 1.387 . S
C699 C701 1.390 . S
C699 H703 0.950 . S
H700 C696 0.950 . S
C701 C699 1.390 . S
C701 C702 1.387 . S
C701 H704 0.950 . S
C702 C701 1.387 . S
C702 C705 1.387 . S
H703 C699 0.950 . S
H704 C701 0.950 . S
C705 C696 1.390 . S
C705 H698 0.950 . S
C705 C702 1.387 . S
C706 C707 1.387 . S
C706 H710 0.950 . S
C706 C715 1.390 . S
C707 C706 1.387 . S
C707 C709 1.387 . S
H708 C715 0.950 . S
C709 C707 1.387 . S
C709 C711 1.390 . S
C709 H713 0.950 . S
H710 C706 0.950 . S
C711 C709 1.390 . S
C711 C712 1.387 . S
C711 H714 0.950 . S
C712 C711 1.387 . S
C712 C715 1.387 . S
H713 C709 0.950 . S
H714 C711 0.950 . S
C715 C706 1.390 . S
C715 H708 0.950 . S
C715 C712 1.387 . S
C716 C717 1.387 . S
C716 H720 0.950 . S
C716 C725 1.390 . S
C717 C716 1.387 . S
C717 C719 1.387 . S
H718 C725 0.950 . S
C719 C717 1.387 . S
C719 C721 1.390 . S
C719 H723 0.950 . S
H720 C716 0.950 . S
C721 C719 1.390 . S
C721 C722 1.387 . S
C721 H724 0.950 . S
C722 C721 1.387 . S
C722 C725 1.387 . S
H723 C719 0.950 . S
H724 C721 0.950 . S
C725 C716 1.390 . S
C725 H718 0.950 . S
C725 C722 1.387 . S
C726 C727 1.387 . S
C726 H730 0.950 . S
C726 C735 1.390 . S
C727 C726 1.387 . S
C727 C729 1.387 . S
H728 C735 0.950 . S
C729 C727 1.387 . S
C729 C731 1.390 . S
C729 H733 0.950 . S
H730 C726 0.950 . S
C731 C729 1.390 . S
C731 C732 1.387 . S
C731 H734 0.950 . S
C732 C731 1.387 . S
C732 C735 1.387 . S
H733 C729 0.950 . S
H734 C731 0.950 . S
C735 C726 1.390 . S
C735 H728 0.950 . S
C735 C732 1.387 . S
C736 C737 1.387 . S
C736 H740 0.950 . S
C736 C745 1.390 . S
C737 C736 1.387 . S
C737 C739 1.387 . S
H738 C745 0.950 . S
C739 C737 1.387 . S
C739 C741 1.390 . S
C739 H743 0.950 . S
H740 C736 0.950 . S
C741 C739 1.390 . S
C741 C742 1.387 . S
C741 H744 0.950 . S
C742 C741 1.387 . S
C742 C745 1.387 . S
H743 C739 0.950 . S
H744 C741 0.950 . S
C745 C736 1.390 . S
C745 H738 0.950 . S
C745 C742 1.387 . S
C746 C747 1.387 . S
C746 H750 0.950 . S
C746 C755 1.390 . S
C747 C746 1.387 . S
C747 C749 1.387 . S
H748 C755 0.950 . S
C749 C747 1.387 . S
C749 C751 1.390 . S
C749 H753 0.950 . S
H750 C746 0.950 . S
C751 C749 1.390 . S
C751 C752 1.387 . S
C751 H754 0.950 . S
C752 C751 1.387 . S
C752 C755 1.387 . S
H753 C749 0.950 . S
H754 C751 0.950 . S
C755 C746 1.390 . S
C755 H748 0.950 . S
C755 C752 1.387 . S
C756 C757 1.387 . S
C756 H760 0.950 . S
C756 C765 1.390 . S
C757 C756 1.387 . S
C757 C759 1.387 . S
H758 C765 0.950 . S
C759 C757 1.387 . S
C759 C761 1.390 . S
C759 H763 0.950 . S
H760 C756 0.950 . S
C761 C759 1.390 . S
C761 C762 1.387 . S
C761 H764 0.950 . S
C762 C761 1.387 . S
C762 C765 1.387 . S
H763 C759 0.950 . S
H764 C761 0.950 . S
C765 C756 1.390 . S
C765 H758 0.950 . S
C765 C762 1.387 . S
C766 C767 1.387 . S
C766 H770 0.950 . S
C766 C775 1.390 . S
C767 C766 1.387 . S
C767 C769 1.387 . S
H768 C775 0.950 . S
C769 C767 1.387 . S
C769 C771 1.390 . S
C769 H773 0.950 . S
H770 C766 0.950 . S
C771 C769 1.390 . S
C771 C772 1.387 . S
C771 H774 0.950 . S
C772 C771 1.387 . S
C772 C775 1.387 . S
H773 C769 0.950 . S
H774 C771 0.950 . S
C775 C766 1.390 . S
C775 H768 0.950 . S
C775 C772 1.387 . S
C776 C777 1.387 . S
C776 H780 0.950 . S
C776 C785 1.390 . S
C777 C776 1.387 . S
C777 C779 1.387 . S
H778 C785 0.950 . S
C779 C777 1.387 . S
C779 C781 1.390 . S
C779 H783 0.950 . S
H780 C776 0.950 . S
C781 C779 1.390 . S
C781 C782 1.387 . S
C781 H784 0.950 . S
C782 C781 1.387 . S
C782 C785 1.387 . S
H783 C779 0.950 . S
H784 C781 0.950 . S
C785 C776 1.390 . S
C785 H778 0.950 . S
C785 C782 1.387 . S
C786 C787 1.387 . S
C786 H790 0.950 . S
C786 C795 1.390 . S
C787 C786 1.387 . S
C787 C789 1.387 . S
H788 C795 0.950 . S
C789 C787 1.387 . S
C789 C791 1.390 . S
C789 H793 0.950 . S
H790 C786 0.950 . S
C791 C789 1.390 . S
C791 C792 1.387 . S
C791 H794 0.950 . S
C792 C791 1.387 . S
C792 C795 1.387 . S
H793 C789 0.950 . S
H794 C791 0.950 . S
C795 C786 1.390 . S
C795 H788 0.950 . S
C795 C792 1.387 . S
C796 C797 1.387 . S
C796 H800 0.950 . S
C796 C805 1.390 . S
C797 C796 1.387 . S
C797 C799 1.387 . S
H798 C805 0.950 . S
C799 C797 1.387 . S
C799 C801 1.390 . S
C799 H803 0.950 . S
H800 C796 0.950 . S
C801 C799 1.390 . S
C801 C802 1.387 . S
C801 H804 0.950 . S
C802 C801 1.387 . S
C802 C805 1.387 . S
H803 C799 0.950 . S
H804 C801 0.950 . S
C805 C796 1.390 . S
C805 H798 0.950 . S
C805 C802 1.387 . S
C806 C807 1.387 . S
C806 H810 0.950 . S
C806 C815 1.390 . S
C807 C806 1.387 . S
C807 C809 1.387 . S
H808 C815 0.950 . S
C809 C807 1.387 . S
C809 C811 1.390 . S
C809 H813 0.950 . S
H810 C806 0.950 . S
C811 C809 1.390 . S
C811 C812 1.387 . S
C811 H814 0.950 . S
C812 C811 1.387 . S
C812 C815 1.387 . S
H813 C809 0.950 . S
H814 C811 0.950 . S
C815 C806 1.390 . S
C815 H808 0.950 . S
C815 C812 1.387 . S
C816 C817 1.387 . S
C816 H820 0.950 . S
C816 C825 1.390 . S
C817 C816 1.387 . S
C817 C819 1.387 . S
H818 C825 0.950 . S
C819 C817 1.387 . S
C819 C821 1.390 . S
C819 H823 0.950 . S
H820 C816 0.950 . S
C821 C819 1.390 . S
C821 C822 1.387 . S
C821 H824 0.950 . S
C822 C821 1.387 . S
C822 C825 1.387 . S
H823 C819 0.950 . S
H824 C821 0.950 . S
C825 C816 1.390 . S
C825 H818 0.950 . S
C825 C822 1.387 . S
C826 C827 1.387 . S
C826 H830 0.950 . S
C826 C835 1.390 . S
C827 C826 1.387 . S
C827 C829 1.387 . S
H828 C835 0.950 . S
C829 C827 1.387 . S
C829 C831 1.390 . S
C829 H833 0.950 . S
H830 C826 0.950 . S
C831 C829 1.390 . S
C831 C832 1.387 . S
C831 H834 0.950 . S
C832 C831 1.387 . S
C832 C835 1.387 . S
H833 C829 0.950 . S
H834 C831 0.950 . S
C835 C826 1.390 . S
C835 H828 0.950 . S
C835 C832 1.387 . S
C836 C837 1.387 . S
C836 H840 0.950 . S
C836 C845 1.390 . S
C837 C836 1.387 . S
C837 C839 1.387 . S
H838 C845 0.950 . S
C839 C837 1.387 . S
C839 C841 1.390 . S
C839 H843 0.950 . S
H840 C836 0.950 . S
C841 C839 1.390 . S
C841 C842 1.387 . S
C841 H844 0.950 . S
C842 C841 1.387 . S
C842 C845 1.387 . S
H843 C839 0.950 . S
H844 C841 0.950 . S
C845 C836 1.390 . S
C845 H838 0.950 . S
C845 C842 1.387 . S
C846 C847 1.387 . S
C846 H850 0.950 . S
C846 C855 1.390 . S
C847 C846 1.387 . S
C847 C849 1.387 . S
H848 C855 0.950 . S
C849 C847 1.387 . S
C849 C851 1.390 . S
C849 H853 0.950 . S
H850 C846 0.950 . S
C851 C849 1.390 . S
C851 C852 1.387 . S
C851 H854 0.950 . S
C852 C851 1.387 . S
C852 C855 1.387 . S
H853 C849 0.950 . S
H854 C851 0.950 . S
C855 C846 1.390 . S
C855 H848 0.950 . S
C855 C852 1.387 . S
C856 C857 1.387 . S
C856 H860 0.950 . S
C856 C865 1.390 . S
C857 C856 1.387 . S
C857 C859 1.387 . S
H858 C865 0.950 . S
C859 C857 1.387 . S
C859 C861 1.390 . S
C859 H863 0.950 . S
H860 C856 0.950 . S
C861 C859 1.390 . S
C861 C862 1.387 . S
C861 H864 0.950 . S
C862 C861 1.387 . S
C862 C865 1.387 . S
H863 C859 0.950 . S
H864 C861 0.950 . S
C865 C856 1.390 . S
C865 H858 0.950 . S
C865 C862 1.387 . S
C866 C867 1.387 . S
C866 H870 0.950 . S
C866 C875 1.390 . S
C867 C866 1.387 . S
C867 C869 1.387 . S
H868 C875 0.950 . S
C869 C867 1.387 . S
C869 C871 1.390 . S
C869 H873 0.950 . S
H870 C866 0.950 . S
C871 C869 1.390 . S
C871 C872 1.387 . S
C871 H874 0.950 . S
C872 C871 1.387 . S
C872 C875 1.387 . S
H873 C869 0.950 . S
H874 C871 0.950 . S
C875 C866 1.390 . S
C875 H868 0.950 . S
C875 C872 1.387 . S
C876 C877 1.387 . S
C876 H880 0.950 . S
C876 C885 1.390 . S
C877 C876 1.387 . S
C877 C879 1.387 1_655 S
H878 C885 0.950 . S
C879 C877 1.387 1_455 S
C879 C881 1.390 . S
C879 H883 0.950 . S
H880 C876 0.950 . S
C881 C879 1.390 . S
C881 C882 1.387 . S
C881 H884 0.950 . S
C882 C881 1.387 . S
C882 C885 1.387 1_455 S
H883 C879 0.950 . S
H884 C881 0.950 . S
C885 C876 1.390 . S
C885 H878 0.950 . S
C885 C882 1.387 1_655 S
C886 C887 1.387 . S
C886 H890 0.950 . S
C886 C895 1.390 . S
C887 C886 1.387 . S
C887 C889 1.387 . S
H888 C895 0.950 . S
C889 C887 1.387 . S
C889 C891 1.390 . S
C889 H893 0.950 . S
H890 C886 0.950 . S
C891 C889 1.390 . S
C891 C892 1.387 . S
C891 H894 0.950 . S
C892 C891 1.387 . S
C892 C895 1.387 . S
H893 C889 0.950 . S
H894 C891 0.950 . S
C895 C886 1.390 . S
C895 H888 0.950 . S
C895 C892 1.387 . S
C896 C897 1.387 1_545 S
C896 H900 0.950 . S
C896 C905 1.390 . S
C897 C896 1.387 1_565 S
C897 C899 1.387 . S
H898 C905 0.950 . S
C899 C897 1.387 . S
C899 C901 1.390 . S
C899 H903 0.950 . S
H900 C896 0.950 . S
C901 C899 1.390 . S
C901 C902 1.387 1_565 S
C901 H904 0.950 . S
C902 C901 1.387 1_545 S
C902 C905 1.387 . S
H903 C899 0.950 . S
H904 C901 0.950 . S
C905 C896 1.390 . S
C905 H898 0.950 . S
C905 C902 1.387 . S
C906 C907 1.387 1_556 S
C906 H910 0.950 . S
C906 C915 1.390 . S
C907 C906 1.387 1_554 S
C907 C909 1.387 1_565 S
H908 C915 0.950 . S
C909 C907 1.387 1_545 S
C909 C911 1.390 . S
C909 H913 0.950 . S
H910 C906 0.950 . S
C911 C909 1.390 . S
C911 C912 1.387 1_554 S
C911 H914 0.950 . S
C912 C911 1.387 1_556 S
C912 C915 1.387 1_545 S
H913 C909 0.950 . S
H914 C911 0.950 . S
C915 C906 1.390 . S
C915 H908 0.950 . S
C915 C912 1.387 1_565 S
C916 C917 1.387 . S
C916 H920 0.950 . S
C916 C925 1.390 . S
C917 C916 1.387 . S
C917 C919 1.387 1_656 S
H918 C925 0.950 . S
C919 C917 1.387 1_454 S
C919 C921 1.390 . S
C919 H923 0.950 . S
H920 C916 0.950 . S
C921 C919 1.390 . S
C921 C922 1.387 . S
C921 H924 0.950 . S
C922 C921 1.387 . S
C922 C925 1.387 1_454 S
H923 C919 0.950 . S
H924 C921 0.950 . S
C925 C916 1.390 . S
C925 H918 0.950 . S
C925 C922 1.387 1_656 S
C926 C927 1.387 1_556 S
C926 H930 0.950 . S
C926 C935 1.390 . S
C927 C926 1.387 1_554 S
C927 C929 1.387 . S
H928 C935 0.950 . S
C929 C927 1.387 . S
C929 C931 1.390 . S
C929 H933 0.950 . S
H930 C926 0.950 . S
C931 C929 1.390 . S
C931 C932 1.387 1_554 S
C931 H934 0.950 . S
C932 C931 1.387 1_556 S
C932 C935 1.387 . S
H933 C929 0.950 . S
H934 C931 0.950 . S
C935 C926 1.390 . S
C935 H928 0.950 . S
C935 C932 1.387 . S
C397 C7 1.609 . S
C402 C326 1.609 1_554 S
C407 C18 1.609 . S
C412 C304 1.608 1_554 S
C417 C29 1.610 . S
C422 C315 1.608 1_554 S
C427 C40 1.609 . S
C432 C150 1.610 . S
C437 C161 1.609 . S
C442 C51 1.608 . S
C447 C62 1.608 . S
C452 C139 1.608 . S
C457 C73 1.522 . S
C462 C260 1.522 1_556 S
C467 C84 1.522 . S
C472 C238 1.524 1_556 S
C477 C95 1.525 . S
C482 C249 1.523 1_556 S
C487 C348 1.524 . S
C492 C106 1.522 . S
C497 C117 1.524 . S
C502 C359 1.525 . S
C507 C128 1.524 . S
C512 C337 1.524 . S
C517 C172 1.609 . S
C522 C282 1.608 . S
C527 C183 1.608 . S
C532 C293 1.609 . S
C537 C194 1.608 . S
C542 C271 1.609 . S
C547 C392 1.522 1_545 S
C552 C205 1.522 1_565 S
C557 C216 1.524 1_455 S
C562 C370 1.525 1_655 S
C567 C381 1.521 . S
C572 C227 1.523 . S
C577 C5 1.404 . S
C582 C49 1.399 . S
C587 C60 1.403 . S
C592 C16 1.398 . S
C597 C38 1.401 . S
C602 C27 1.401 . S
C607 C115 1.297 . S
C612 C71 1.302 . S
C617 C82 1.297 . S
C622 C126 1.302 . S
C627 C104 1.301 . S
C632 C93 1.301 . S
C637 C137 1.398 . S
C642 C181 1.403 . S
C647 C148 1.403 . S
C652 C192 1.398 . S
C657 C170 1.401 . S
C662 C159 1.401 . S
C667 C203 1.302 . S
C672 C247 1.297 . S
C677 C214 1.296 . S
C682 C258 1.302 . S
C687 C236 1.301 . S
C692 C225 1.301 . S
C697 C269 1.398 . S
C702 C313 1.404 . S
C707 C280 1.404 . S
C712 C324 1.398 . S
C717 C291 1.401 . S
C722 C302 1.401 . S
C727 C379 1.296 . S
C732 C335 1.302 . S
C737 C346 1.302 . S
C742 C390 1.297 . S
C747 C368 1.301 . S
C752 C357 1.301 . S
C757 C338 1.560 . S
C762 C8 1.620 . S
C767 C349 1.561 . S
C772 C19 1.620 . S
C777 C360 1.559 . S
C782 C30 1.620 . S
C787 C41 1.620 . S
C792 C239 1.558 . S
C797 C250 1.560 . S
C802 C52 1.620 . S
C807 C63 1.620 . S
C812 C261 1.561 . S
C817 C140 1.620 . S
C822 C74 1.561 . S
C827 C151 1.620 . S
C832 C85 1.561 . S
C837 C162 1.620 . S
C842 C96 1.562 . S
C847 C305 1.620 . S
C852 C107 1.559 . S
C857 C118 1.559 . S
C862 C316 1.620 . S
C867 C129 1.560 . S
C872 C327 1.620 . S
C877 C371 1.541 . S
C882 C173 1.621 . S
C887 C382 1.559 . S
C892 C184 1.620 . S
C897 C195 1.620 . S
C902 C393 1.592 . S
C907 C206 1.540 . S
C912 C272 1.620 . S
C917 C283 1.620 . S
C922 C217 1.590 . S
C927 C228 1.559 . S
C932 C294 1.620 . S
