# Generated by pormake.
# Topology uky, (4)-cn, num edge types: 1
# Building blocks:
#     Node 0, Type 0, BuildingBlock: QUQFOY_clean_sbu_1, # of connection points: 4
#     Node 1, Type 0, BuildingBlock: QUQFOY_clean_sbu_1, # of connection points: 4
#     Node 2, Type 0, BuildingBlock: QUQFOY_clean_sbu_1, # of connection points: 4
#     Node 3, Type 0, BuildingBlock: QUQFOY_clean_sbu_1, # of connection points: 4
#     Node 4, Type 0, BuildingBlock: QUQFOY_clean_sbu_1, # of connection points: 4
#     Node 5, Type 0, BuildingBlock: QUQFOY_clean_sbu_1, # of connection points: 4
#     Node 6, Type 0, BuildingBlock: QUQFOY_clean_sbu_1, # of connection points: 4
#     Node 7, Type 0, BuildingBlock: QUQFOY_clean_sbu_1, # of connection points: 4
#     Node 8, Type 0, BuildingBlock: QUQFOY_clean_sbu_1, # of connection points: 4
#     Node 9, Type 0, BuildingBlock: QUQFOY_clean_sbu_1, # of connection points: 4
#     Node 10, Type 0, BuildingBlock: QUQFOY_clean_sbu_1, # of connection points: 4
#     Node 11, Type 0, BuildingBlock: QUQFOY_clean_sbu_1, # of connection points: 4
#     Node 12, Type 0, BuildingBlock: QUQFOY_clean_sbu_1, # of connection points: 4
#     Node 13, Type 0, BuildingBlock: QUQFOY_clean_sbu_1, # of connection points: 4
#     Node 14, Type 0, BuildingBlock: QUQFOY_clean_sbu_1, # of connection points: 4
#     Node 15, Type 0, BuildingBlock: QUQFOY_clean_sbu_1, # of connection points: 4
#     Node 16, Type 0, BuildingBlock: QUQFOY_clean_sbu_1, # of connection points: 4
#     Node 17, Type 0, BuildingBlock: QUQFOY_clean_sbu_1, # of connection points: 4
#     Node 18, Type 0, BuildingBlock: QUQFOY_clean_sbu_1, # of connection points: 4
#     Node 19, Type 0, BuildingBlock: QUQFOY_clean_sbu_1, # of connection points: 4
#     Node 20, Type 0, BuildingBlock: QUQFOY_clean_sbu_1, # of connection points: 4
#     Node 21, Type 0, BuildingBlock: QUQFOY_clean_sbu_1, # of connection points: 4
#     Node 22, Type 0, BuildingBlock: QUQFOY_clean_sbu_1, # of connection points: 4
#     Node 23, Type 0, BuildingBlock: QUQFOY_clean_sbu_1, # of connection points: 4
#     Node 24, Type 0, BuildingBlock: QUQFOY_clean_sbu_1, # of connection points: 4
#     Node 25, Type 0, BuildingBlock: QUQFOY_clean_sbu_1, # of connection points: 4
#     Node 26, Type 0, BuildingBlock: QUQFOY_clean_sbu_1, # of connection points: 4
#     Node 27, Type 0, BuildingBlock: QUQFOY_clean_sbu_1, # of connection points: 4
#     Node 28, Type 0, BuildingBlock: QUQFOY_clean_sbu_1, # of connection points: 4
#     Node 29, Type 0, BuildingBlock: QUQFOY_clean_sbu_1, # of connection points: 4
#     Node 30, Type 0, BuildingBlock: QUQFOY_clean_sbu_1, # of connection points: 4
#     Node 31, Type 0, BuildingBlock: QUQFOY_clean_sbu_1, # of connection points: 4
#     Node 32, Type 0, BuildingBlock: QUQFOY_clean_sbu_1, # of connection points: 4
#     Node 33, Type 0, BuildingBlock: QUQFOY_clean_sbu_1, # of connection points: 4
#     Node 34, Type 0, BuildingBlock: QUQFOY_clean_sbu_1, # of connection points: 4
#     Node 35, Type 0, BuildingBlock: QUQFOY_clean_sbu_1, # of connection points: 4
#     Node 36, Type 0, BuildingBlock: QUQFOY_clean_sbu_1, # of connection points: 4
#     Node 37, Type 0, BuildingBlock: QUQFOY_clean_sbu_1, # of connection points: 4
#     Node 38, Type 0, BuildingBlock: QUQFOY_clean_sbu_1, # of connection points: 4
#     Node 39, Type 0, BuildingBlock: QUQFOY_clean_sbu_1, # of connection points: 4
#     Node 40, Type 0, BuildingBlock: QUQFOY_clean_sbu_1, # of connection points: 4
#     Node 41, Type 0, BuildingBlock: QUQFOY_clean_sbu_1, # of connection points: 4
#     Node 42, Type 0, BuildingBlock: QUQFOY_clean_sbu_1, # of connection points: 4
#     Node 43, Type 0, BuildingBlock: QUQFOY_clean_sbu_1, # of connection points: 4
#     Node 44, Type 0, BuildingBlock: QUQFOY_clean_sbu_1, # of connection points: 4
#     Node 45, Type 0, BuildingBlock: QUQFOY_clean_sbu_1, # of connection points: 4
#     Node 46, Type 0, BuildingBlock: QUQFOY_clean_sbu_1, # of connection points: 4
#     Node 47, Type 0, BuildingBlock: QUQFOY_clean_sbu_1, # of connection points: 4
#     Edge 48, Type (0, 0), None
#     Edge 49, Type (0, 0), None
#     Edge 50, Type (0, 0), None
#     Edge 51, Type (0, 0), None
#     Edge 52, Type (0, 0), None
#     Edge 53, Type (0, 0), None
#     Edge 54, Type (0, 0), None
#     Edge 55, Type (0, 0), None
#     Edge 56, Type (0, 0), None
#     Edge 57, Type (0, 0), None
#     Edge 58, Type (0, 0), None
#     Edge 59, Type (0, 0), None
#     Edge 60, Type (0, 0), None
#     Edge 61, Type (0, 0), None
#     Edge 62, Type (0, 0), None
#     Edge 63, Type (0, 0), None
#     Edge 64, Type (0, 0), None
#     Edge 65, Type (0, 0), None
#     Edge 66, Type (0, 0), None
#     Edge 67, Type (0, 0), None
#     Edge 68, Type (0, 0), None
#     Edge 69, Type (0, 0), None
#     Edge 70, Type (0, 0), None
#     Edge 71, Type (0, 0), None
#     Edge 72, Type (0, 0), None
#     Edge 73, Type (0, 0), None
#     Edge 74, Type (0, 0), None
#     Edge 75, Type (0, 0), None
#     Edge 76, Type (0, 0), None
#     Edge 77, Type (0, 0), None
#     Edge 78, Type (0, 0), None
#     Edge 79, Type (0, 0), None
#     Edge 80, Type (0, 0), None
#     Edge 81, Type (0, 0), None
#     Edge 82, Type (0, 0), None
#     Edge 83, Type (0, 0), None
#     Edge 84, Type (0, 0), None
#     Edge 85, Type (0, 0), None
#     Edge 86, Type (0, 0), None
#     Edge 87, Type (0, 0), None
#     Edge 88, Type (0, 0), None
#     Edge 89, Type (0, 0), None
#     Edge 90, Type (0, 0), None
#     Edge 91, Type (0, 0), None
#     Edge 92, Type (0, 0), None
#     Edge 93, Type (0, 0), None
#     Edge 94, Type (0, 0), None
#     Edge 95, Type (0, 0), None
#     Edge 96, Type (0, 0), None
#     Edge 97, Type (0, 0), None
#     Edge 98, Type (0, 0), None
#     Edge 99, Type (0, 0), None
#     Edge 100, Type (0, 0), None
#     Edge 101, Type (0, 0), None
#     Edge 102, Type (0, 0), None
#     Edge 103, Type (0, 0), None
#     Edge 104, Type (0, 0), None
#     Edge 105, Type (0, 0), None
#     Edge 106, Type (0, 0), None
#     Edge 107, Type (0, 0), None
#     Edge 108, Type (0, 0), None
#     Edge 109, Type (0, 0), None
#     Edge 110, Type (0, 0), None
#     Edge 111, Type (0, 0), None
#     Edge 112, Type (0, 0), None
#     Edge 113, Type (0, 0), None
#     Edge 114, Type (0, 0), None
#     Edge 115, Type (0, 0), None
#     Edge 116, Type (0, 0), None
#     Edge 117, Type (0, 0), None
#     Edge 118, Type (0, 0), None
#     Edge 119, Type (0, 0), None
#     Edge 120, Type (0, 0), None
#     Edge 121, Type (0, 0), None
#     Edge 122, Type (0, 0), None
#     Edge 123, Type (0, 0), None
#     Edge 124, Type (0, 0), None
#     Edge 125, Type (0, 0), None
#     Edge 126, Type (0, 0), None
#     Edge 127, Type (0, 0), None
#     Edge 128, Type (0, 0), None
#     Edge 129, Type (0, 0), None
#     Edge 130, Type (0, 0), None
#     Edge 131, Type (0, 0), None
#     Edge 132, Type (0, 0), None
#     Edge 133, Type (0, 0), None
#     Edge 134, Type (0, 0), None
#     Edge 135, Type (0, 0), None
#     Edge 136, Type (0, 0), None
#     Edge 137, Type (0, 0), None
#     Edge 138, Type (0, 0), None
#     Edge 139, Type (0, 0), None
#     Edge 140, Type (0, 0), None
#     Edge 141, Type (0, 0), None
#     Edge 142, Type (0, 0), None
#     Edge 143, Type (0, 0), None
# Relax obj value: 0.300
# Max RMSD: 0.273
# Mean RMSD: 0.258
data_MOF--net-uky--node1-QUQFOY_clean_sbu_1--edge1-none
_symmetry_space_group_name_H-M    P1
_symmetry_Int_Tables_number       1
_symmetry_cell_setting            triclinic
loop_
_symmetry_equiv_pos_as_xyz
'x, y, z'
_cell_length_a     29.49899
_cell_length_b     29.499336
_cell_length_c     29.498955
_cell_angle_alpha  89.942178
_cell_angle_beta   89.942584
_cell_angle_gamma 89.9402
loop_
_atom_site_label
_atom_site_type_symbol
_atom_site_fract_x
_atom_site_fract_y
_atom_site_fract_z
_atom_type_partial_charge
O0 O 0.26041 0.18377 0.46511 0.0
Cd1 Cd 0.2377 0.17313 0.39919 0.0
Cd2 Cd 0.24482 0.26036 0.39928 0.0
O3 O 0.24304 0.25656 0.46874 0.0
O4 O 0.19159 0.12261 0.4007 0.0
O5 O 0.1744 0.19475 0.38823 0.0
C6 C 0.16113 0.15357 0.39468 0.0
C7 C 0.21404 0.31724 0.35285 0.0
C8 C 0.25653 0.22028 0.48779 0.0
C9 C 0.31471 0.2088 0.34888 0.0
O10 O 0.30688 0.24227 0.37451 0.0
O11 O 0.28611 0.17649 0.34661 0.0
O12 O 0.24462 0.32563 0.38281 0.0
O13 O 0.19667 0.27718 0.35224 0.0
O14 O 0.09043 1.01015 0.7151 0.0
Cd15 Cd 0.10122 0.98755 0.64915 0.0
Cd16 Cd 0.0139 0.99442 0.64933 0.0
O17 O 0.0177 0.99261 0.71878 0.0
O18 O 0.15186 0.94148 0.65057 0.0
O19 O 0.07979 0.92427 0.63811 0.0
C20 C 0.121 0.91101 0.64454 0.0
C21 C 0.9571 0.96361 0.60298 0.0
C22 C 0.05391 1.00616 0.73781 0.0
C23 C 0.06528 0.06452 0.59898 0.0
O24 O 0.03177 0.05653 0.62457 0.0
O25 O 0.09775 0.03603 0.59667 0.0
O26 O 0.94862 0.99416 0.63299 0.0
O27 O 0.99721 0.94628 0.60228 0.0
O28 O 0.26413 0.84 0.9651 0.0
Cd29 Cd 0.28676 0.85075 0.8991 0.0
Cd30 Cd 0.27977 0.76343 0.89927 0.0
O31 O 0.28152 0.7672 0.96874 0.0
O32 O 0.33265 0.90146 0.90048 0.0
O33 O 0.35014 0.82942 0.88793 0.0
C34 C 0.36323 0.87065 0.89436 0.0
C35 C 0.31053 0.70651 0.8529 0.0
C36 C 0.26804 0.80346 0.9878 0.0
C37 C 0.20981 0.81505 0.84895 0.0
O38 O 0.2177 0.78151 0.87454 0.0
O39 O 0.23834 0.84743 0.84665 0.0
O40 O 0.27994 0.69815 0.88294 0.0
O41 O 0.32793 0.74656 0.85219 0.0
O42 O 0.4342 0.01356 0.21517 0.0
Cd43 Cd 0.42349 0.03634 0.14921 0.0
Cd44 Cd 0.51074 0.02908 0.14926 0.0
O45 O 0.50701 0.03073 0.21872 0.0
O46 O 0.37287 0.08245 0.15069 0.0
O47 O 0.44495 0.09966 0.13818 0.0
C48 C 0.40374 0.11292 0.14462 0.0
C49 C 0.56747 0.05999 0.10277 0.0
C50 C 0.47073 0.01732 0.23782 0.0
C51 C 0.45923 0.95942 0.09879 0.0
O52 O 0.49271 0.96711 0.12442 0.0
O53 O 0.42688 0.98806 0.09661 0.0
O54 O 0.57598 0.02932 0.13269 0.0
O55 O 0.52738 0.07738 0.10226 0.0
O56 O 0.26043 0.83998 0.0589 0.0
Cd57 Cd 0.23763 0.85067 0.12486 0.0
Cd58 Cd 0.24493 0.76343 0.12481 0.0
O59 O 0.24327 0.76717 0.05535 0.0
O60 O 0.19149 0.90126 0.12337 0.0
O61 O 0.17432 0.82916 0.13587 0.0
C62 C 0.16104 0.87036 0.12944 0.0
C63 C 0.21408 0.70665 0.17128 0.0
C64 C 0.25667 0.80345 0.03625 0.0
C65 C 0.31457 0.81498 0.17527 0.0
O66 O 0.3069 0.78149 0.14963 0.0
O67 O 0.28591 0.84731 0.17746 0.0
O68 O 0.24476 0.69818 0.14136 0.0
O69 O 0.19667 0.74673 0.17182 0.0
O70 O 0.43417 1.00993 0.30897 0.0
Cd71 Cd 0.42339 0.98734 0.37498 0.0
Cd72 Cd 0.51072 0.99426 0.37481 0.0
O73 O 0.50696 0.99248 0.30534 0.0
O74 O 0.37265 0.94149 0.37359 0.0
O75 O 0.44467 0.92395 0.38618 0.0
C76 C 0.40343 0.91088 0.37973 0.0
C77 C 0.56761 0.96347 0.4212 0.0
C78 C 0.4707 1.00598 0.28627 0.0
C79 C 0.45915 0.06428 0.42509 0.0
O80 O 0.49269 0.05635 0.39951 0.0
O81 O 0.42675 0.03578 0.4274 0.0
O82 O 0.576 0.99404 0.39115 0.0
O83 O 0.52754 0.94611 0.42192 0.0
O84 O 0.26393 0.18372 0.55892 0.0
Cd85 Cd 0.28657 0.17293 0.62486 0.0
Cd86 Cd 0.27961 0.26024 0.62469 0.0
O87 O 0.2814 0.25646 0.55523 0.0
O88 O 0.33265 0.1223 0.62342 0.0
O89 O 0.34986 0.19438 0.63588 0.0
C90 C 0.36312 0.15317 0.62944 0.0
C91 C 0.3104 0.31703 0.67106 0.0
C92 C 0.26788 0.22024 0.53621 0.0
C93 C 0.20959 0.2088 0.67506 0.0
O94 O 0.21752 0.24231 0.64947 0.0
O95 O 0.23811 0.17636 0.67737 0.0
O96 O 0.27983 0.32551 0.64107 0.0
O97 O 0.32775 0.27693 0.67173 0.0
O98 O 0.09036 0.0136 0.80892 0.0
Cd99 Cd 0.10098 0.03629 0.87485 0.0
Cd100 Cd 0.01374 0.02922 0.87472 0.0
O101 O 0.01757 0.031 0.80527 0.0
O102 O 0.15151 0.08239 0.87338 0.0
O103 O 0.07937 0.09959 0.8858 0.0
C104 C 0.12056 0.11286 0.87938 0.0
C105 C 0.95686 0.06004 0.92112 0.0
C106 C 0.05386 0.0175 0.78623 0.0
C107 C 0.06524 0.95931 0.92515 0.0
O108 O 0.03177 0.96714 0.89951 0.0
O109 O 0.09757 0.98789 0.92743 0.0
O110 O 0.94846 0.02946 0.89116 0.0
O111 O 0.99693 0.07738 0.92175 0.0
O112 O 0.46514 0.26037 0.18374 0.0
Cd113 Cd 0.39921 0.23766 0.1731 0.0
Cd114 Cd 0.39931 0.24477 0.26034 0.0
O115 O 0.46876 0.24298 0.25653 0.0
O116 O 0.40072 0.19156 0.12258 0.0
O117 O 0.38826 0.17436 0.19472 0.0
C118 C 0.39472 0.1611 0.15354 0.0
C119 C 0.35288 0.21402 0.31721 0.0
C120 C 0.48782 0.25647 0.22025 0.0
C121 C 0.34892 0.31467 0.20878 0.0
O122 O 0.37455 0.30684 0.24225 0.0
O123 O 0.34664 0.28607 0.17647 0.0
O124 O 0.38286 0.24459 0.32561 0.0
O125 O 0.35227 0.19664 0.27716 0.0
O126 O 0.01358 0.21518 0.43414 0.0
Cd127 Cd 0.03638 0.14922 0.42344 0.0
Cd128 Cd 0.02907 0.14926 0.51069 0.0
O129 O 0.03072 0.21873 0.50696 0.0
O130 O 0.08249 0.15072 0.37282 0.0
O131 O 0.0997 0.1382 0.44492 0.0
C132 C 0.11296 0.14465 0.40371 0.0
C133 C 0.05996 0.10277 0.56742 0.0
C134 C 0.01733 0.23783 0.47068 0.0
C135 C 0.95945 0.09879 0.45913 0.0
O136 O 0.96711 0.12443 0.49262 0.0
O137 O 0.98811 0.09661 0.4268 0.0
O138 O 0.02928 0.13268 0.57592 0.0
O139 O 0.07737 0.10226 0.52734 0.0
O140 O 0.05938 0.76373 0.6841 0.0
Cd141 Cd 0.12536 0.78631 0.67333 0.0
Cd142 Cd 0.12519 0.77918 0.76062 0.0
O143 O 0.05574 0.78113 0.75686 0.0
O144 O 0.12396 0.83237 0.62269 0.0
O145 O 0.13641 0.8496 0.69477 0.0
C146 C 0.13 0.86284 0.65356 0.0
C147 C 0.17163 0.80987 0.81737 0.0
C148 C 0.03668 0.76769 0.72063 0.0
C149 C 0.17555 0.70925 0.7091 0.0
O150 O 0.14989 0.71709 0.7426 0.0
O151 O 0.17787 0.73786 0.67674 0.0
O152 O 0.14163 0.77932 0.82587 0.0
O153 O 0.17227 0.82727 0.77729 0.0
O154 O 0.51066 0.80929 0.93343 0.0
Cd155 Cd 0.48795 0.87527 0.92279 0.0
Cd156 Cd 0.49512 0.87505 1.01005 0.0
O157 O 0.49316 0.80561 1.0062 0.0
O158 O 0.44185 0.87383 0.87229 0.0
O159 O 0.42464 0.88621 0.94442 0.0
C160 C 0.41138 0.87976 0.90325 0.0
C161 C 0.46445 0.92136 0.06704 0.0
C162 C 0.50664 0.78655 0.96993 0.0
C163 C 0.56493 0.92544 0.95842 0.0
O164 O 0.55718 0.89972 0.99188 0.0
O165 O 0.53629 0.92781 0.92614 0.0
O166 O 0.49505 0.89131 0.07534 0.0
O167 O 0.44701 0.92214 0.02701 0.0
O168 O 0.46477 0.76353 0.34056 0.0
Cd169 Cd 0.39879 0.78619 0.35123 0.0
Cd170 Cd 0.39899 0.7791 0.26397 0.0
O171 O 0.46844 0.78109 0.26781 0.0
O172 O 0.40024 0.83226 0.40177 0.0
O173 O 0.38781 0.84951 0.32965 0.0
C174 C 0.39429 0.86275 0.37083 0.0
C175 C 0.35265 0.80977 0.20701 0.0
C176 C 0.4875 0.76759 0.30406 0.0
C177 C 0.34866 0.70921 0.31557 0.0
O178 O 0.37436 0.71701 0.2821 0.0
O179 O 0.34628 0.73782 0.34787 0.0
O180 O 0.38271 0.7792 0.19868 0.0
O181 O 0.35186 0.82719 0.24705 0.0
O182 O 0.51045 0.21474 0.5899 0.0
Cd183 Cd 0.48783 0.14878 0.60065 0.0
Cd184 Cd 0.49505 0.14893 0.51338 0.0
O185 O 0.49312 0.21838 0.51712 0.0
O186 O 0.44176 0.1502 0.65129 0.0
O187 O 0.42454 0.13775 0.57921 0.0
C188 C 0.41129 0.14418 0.62042 0.0
C189 C 0.46435 0.10248 0.45665 0.0
C190 C 0.50653 0.23744 0.55336 0.0
C191 C 0.5649 0.09854 0.56495 0.0
O192 O 0.55712 0.12421 0.53145 0.0
O193 O 0.53626 0.09624 0.59729 0.0
O194 O 0.49492 0.13245 0.44814 0.0
O195 O 0.44694 0.10187 0.49673 0.0
O196 O 0.05894 0.2604 0.83996 0.0
Cd197 Cd 0.1249 0.23761 0.85066 0.0
Cd198 Cd 0.12486 0.24491 0.76341 0.0
O199 O 0.05539 0.24324 0.76715 0.0
O200 O 0.12342 0.19149 0.90126 0.0
O201 O 0.13593 0.1743 0.82916 0.0
C202 C 0.12948 0.16103 0.87037 0.0
C203 C 0.17135 0.21408 0.70665 0.0
C204 C 0.03629 0.25663 0.80342 0.0
C205 C 0.1753 0.31456 0.81497 0.0
O206 O 0.14966 0.30689 0.78149 0.0
O207 O 0.1775 0.2859 0.8473 0.0
O208 O 0.14141 0.24475 0.69817 0.0
O209 O 0.17189 0.19666 0.74672 0.0
O210 O 0.01358 0.80893 0.09033 0.0
Cd211 Cd 0.03629 0.87486 0.10094 0.0
Cd212 Cd 0.02918 0.87474 0.0137 0.0
O213 O 0.03096 0.80528 0.01753 0.0
O214 O 0.0824 0.87338 0.15147 0.0
O215 O 0.0996 0.88579 0.07932 0.0
C216 C 0.11286 0.87936 0.12051 0.0
C217 C 0.05998 0.92114 0.95683 0.0
C218 C 0.01747 0.78624 0.05382 0.0
C219 C 0.9593 0.92517 0.06523 0.0
O220 O 0.96712 0.89952 0.03176 0.0
O221 O 0.9879 0.92745 0.09754 0.0
O222 O 0.0294 0.89118 0.94842 0.0
O223 O 0.07735 0.92175 0.99689 0.0
O224 O 0.18379 0.46512 0.26036 0.0
Cd225 Cd 0.17315 0.3992 0.23765 0.0
Cd226 Cd 0.26039 0.39929 0.24477 0.0
O227 O 0.25659 0.46874 0.24298 0.0
O228 O 0.12264 0.40071 0.19154 0.0
O229 O 0.19477 0.38824 0.17435 0.0
C230 C 0.15359 0.3947 0.16108 0.0
C231 C 0.31725 0.35285 0.21401 0.0
C232 C 0.2203 0.4878 0.25647 0.0
C233 C 0.20882 0.3489 0.31466 0.0
O234 O 0.2423 0.37453 0.30684 0.0
O235 O 0.17651 0.34662 0.28606 0.0
O236 O 0.32566 0.38282 0.24458 0.0
O237 O 0.2772 0.35224 0.19663 0.0
O238 O 0.68411 0.05934 0.76371 0.0
Cd239 Cd 0.67335 0.12532 0.78629 0.0
Cd240 Cd 0.76064 0.12514 0.77915 0.0
O241 O 0.75688 0.0557 0.78109 0.0
O242 O 0.62272 0.12393 0.83236 0.0
O243 O 0.69479 0.13638 0.84957 0.0
C244 C 0.65359 0.12998 0.86283 0.0
C245 C 0.81741 0.17156 0.80985 0.0
C246 C 0.72064 0.03664 0.76766 0.0
C247 C 0.70912 0.17551 0.70923 0.0
O248 O 0.74261 0.14985 0.71706 0.0
O249 O 0.67675 0.17782 0.73784 0.0
O250 O 0.82589 0.14157 0.77928 0.0
O251 O 0.77732 0.17221 0.82724 0.0
O252 O 0.21522 0.43421 0.01355 0.0
Cd253 Cd 0.14926 0.42349 0.03633 0.0
Cd254 Cd 0.14929 0.51074 0.02904 0.0
O255 O 0.21875 0.50703 0.0307 0.0
O256 O 0.15076 0.37286 0.08242 0.0
O257 O 0.13822 0.44495 0.09966 0.0
C258 C 0.14468 0.40373 0.1129 0.0
C259 C 0.10278 0.56746 0.05993 0.0
C260 C 0.23786 0.47075 0.01731 0.0
C261 C 0.09884 0.45919 0.95939 0.0
O262 O 0.12446 0.49268 0.96706 0.0
O263 O 0.09666 0.42685 0.98805 0.0
O264 O 0.13269 0.57597 0.02926 0.0
O265 O 0.10227 0.52737 0.07733 0.0
O266 O 0.84001 0.96508 0.26407 0.0
Cd267 Cd 0.85077 0.89908 0.28669 0.0
Cd268 Cd 0.76344 0.89927 0.27972 0.0
O269 O 0.76722 0.96873 0.28148 0.0
O270 O 0.90148 0.90045 0.33256 0.0
O271 O 0.82945 0.88791 0.35007 0.0
C272 C 0.87069 0.89433 0.36316 0.0
C273 C 0.70653 0.8529 0.31049 0.0
C274 C 0.80348 0.98779 0.268 0.0
C275 C 0.81503 0.84895 0.20974 0.0
O276 O 0.7815 0.87454 0.21764 0.0
O277 O 0.84742 0.84664 0.23826 0.0
O278 O 0.69816 0.88294 0.2799 0.0
O279 O 0.74658 0.85218 0.32788 0.0
O280 O 0.80896 0.0904 0.01359 0.0
Cd281 Cd 0.87489 0.101 0.03629 0.0
Cd282 Cd 0.87476 0.01376 0.02919 0.0
O283 O 0.80531 0.01761 0.03098 0.0
O284 O 0.87343 0.15151 0.08242 0.0
O285 O 0.88584 0.07936 0.09959 0.0
C286 C 0.87942 0.12055 0.11287 0.0
C287 C 0.92115 0.95686 0.05998 0.0
C288 C 0.78627 0.05389 0.01749 0.0
C289 C 0.92519 0.06528 0.9593 0.0
O290 O 0.89954 0.03181 0.96713 0.0
O291 O 0.92747 0.0976 0.98789 0.0
O292 O 0.89118 0.94848 0.0294 0.0
O293 O 0.92178 0.99692 0.07735 0.0
O294 O 0.34061 0.5586 0.76031 0.0
Cd295 Cd 0.35129 0.62459 0.73766 0.0
Cd296 Cd 0.26405 0.62458 0.74503 0.0
O297 O 0.26781 0.55514 0.74308 0.0
O298 O 0.4017 0.62312 0.69133 0.0
O299 O 0.32954 0.63569 0.67445 0.0
C300 C 0.37068 0.6292 0.661 0.0
C301 C 0.2072 0.67107 0.71435 0.0
C302 C 0.30408 0.53597 0.75641 0.0
C303 C 0.31571 0.67484 0.81475 0.0
O304 O 0.28221 0.64924 0.80706 0.0
O305 O 0.34801 0.6771 0.78607 0.0
O306 O 0.19879 0.64109 0.74498 0.0
O307 O 0.24726 0.67169 0.6969 0.0
O308 O 0.21476 0.58989 0.51038 0.0
Cd309 Cd 0.14879 0.60065 0.48776 0.0
Cd310 Cd 0.14894 0.51338 0.49497 0.0
O311 O 0.2184 0.51711 0.49305 0.0
O312 O 0.15022 0.65128 0.44169 0.0
O313 O 0.13775 0.57921 0.42447 0.0
C314 C 0.14418 0.62042 0.41122 0.0
C315 C 0.10249 0.45664 0.46427 0.0
C316 C 0.23746 0.55335 0.50647 0.0
C317 C 0.09855 0.56495 0.56482 0.0
O318 O 0.12422 0.53145 0.55704 0.0
O319 O 0.09625 0.59729 0.53619 0.0
O320 O 0.13246 0.44814 0.49484 0.0
O321 O 0.10189 0.49672 0.44686 0.0
O322 O 0.30902 0.4342 1.00992 0.0
Cd323 Cd 0.37502 0.42341 0.98733 0.0
Cd324 Cd 0.37485 0.51074 0.99427 0.0
O325 O 0.30538 0.50699 0.99248 0.0
O326 O 0.37363 0.37267 0.94149 0.0
O327 O 0.38622 0.44468 0.92394 0.0
C328 C 0.37977 0.40344 0.91088 0.0
C329 C 0.42127 0.5676 0.96348 0.0
C330 C 0.28631 0.47073 1.00597 0.0
C331 C 0.42514 0.45916 0.06428 0.0
O332 O 0.39956 0.4927 0.05636 0.0
O333 O 0.42744 0.42676 0.03577 0.0
O334 O 0.39122 0.57601 0.99405 0.0
O335 O 0.42197 0.52754 0.94612 0.0
O336 O 0.76035 0.68413 0.96551 0.0
Cd337 Cd 0.73792 0.6735 0.89948 0.0
Cd338 Cd 0.7451 0.76079 0.89963 0.0
O339 O 0.74313 0.75697 0.96907 0.0
O340 O 0.69189 0.62291 0.90076 0.0
O341 O 0.67464 0.69502 0.88821 0.0
C342 C 0.66141 0.65381 0.89458 0.0
C343 C 0.71439 0.81769 0.85319 0.0
C344 C 0.75646 0.72065 0.98818 0.0
C345 C 0.81506 0.70918 0.84934 0.0
O346 O 0.8072 0.74268 0.87494 0.0
O347 O 0.78648 0.67686 0.84706 0.0
O348 O 0.74495 0.82607 0.88318 0.0
O349 O 0.69701 0.77764 0.85256 0.0
O350 O 0.58995 0.5104 0.21476 0.0
Cd351 Cd 0.60072 0.48778 0.14879 0.0
Cd352 Cd 0.51344 0.49502 0.14893 0.0
O353 O 0.51717 0.4931 0.21838 0.0
O354 O 0.65133 0.44169 0.15022 0.0
O355 O 0.57926 0.4245 0.13775 0.0
C356 C 0.62046 0.41123 0.14417 0.0
C357 C 0.4567 0.46436 0.10248 0.0
C358 C 0.55341 0.50649 0.23745 0.0
C359 C 0.56504 0.56485 0.09855 0.0
O360 O 0.53154 0.55709 0.12422 0.0
O361 O 0.59737 0.53621 0.09625 0.0
O362 O 0.44821 0.49493 0.13245 0.0
O363 O 0.49678 0.44692 0.10188 0.0
O364 O 0.76354 0.34056 0.46477 0.0
Cd365 Cd 0.78619 0.35122 0.39878 0.0
Cd366 Cd 0.77911 0.26396 0.39899 0.0
O367 O 0.78108 0.2678 0.46843 0.0
O368 O 0.83226 0.40176 0.40022 0.0
O369 O 0.84951 0.32964 0.38779 0.0
C370 C 0.86275 0.37082 0.39425 0.0
C371 C 0.8098 0.20699 0.35265 0.0
C372 C 0.76759 0.30405 0.4875 0.0
C373 C 0.70921 0.31556 0.34865 0.0
O374 O 0.71702 0.28208 0.37435 0.0
O375 O 0.73782 0.34787 0.34627 0.0
O376 O 0.77921 0.19867 0.38272 0.0
O377 O 0.8272 0.24703 0.35187 0.0
O378 O 0.9334 0.51383 0.71542 0.0
Cd379 Cd 0.92274 0.53649 0.64943 0.0
Cd380 Cd 1.00998 0.5291 0.64945 0.0
O381 O 1.0062 0.53107 0.71889 0.0
O382 O 0.87235 0.58285 0.65088 0.0
O383 O 0.94453 0.59968 0.63834 0.0
C384 C 0.9034 0.61316 0.64482 0.0
C385 C 0.06686 0.55973 0.60298 0.0
C386 C 0.96993 0.51773 0.73805 0.0
C387 C 0.95831 0.45938 0.5992 0.0
O388 O 0.9918 0.46708 0.62481 0.0
O389 O 0.92602 0.48808 0.59692 0.0
O390 O 0.07524 0.5291 0.63298 0.0
O391 O 0.02682 0.57721 0.60233 0.0
O392 O 0.76032 0.34059 0.55861 0.0
Cd393 Cd 0.73768 0.35127 0.6246 0.0
Cd394 Cd 0.74504 0.26402 0.62458 0.0
O395 O 0.74308 0.2678 0.55513 0.0
O396 O 0.69136 0.40168 0.62314 0.0
O397 O 0.67447 0.32952 0.6357 0.0
C398 C 0.66103 0.37066 0.62922 0.0
C399 C 0.71436 0.20717 0.67106 0.0
C400 C 0.75642 0.30406 0.53597 0.0
C401 C 0.81478 0.31566 0.67484 0.0
O402 O 0.80707 0.28217 0.64922 0.0
O403 O 0.78609 0.34796 0.67711 0.0
O404 O 0.74499 0.19876 0.64107 0.0
O405 O 0.69691 0.24723 0.67169 0.0
O406 O 0.93344 0.51057 0.80926 0.0
Cd407 Cd 0.92281 0.48787 0.87524 0.0
Cd408 Cd 1.01007 0.49504 0.87503 0.0
O409 O 1.00622 0.49308 0.80558 0.0
O410 O 0.87231 0.44176 0.87381 0.0
O411 O 0.94444 0.42457 0.88621 0.0
C412 C 0.90327 0.4113 0.87976 0.0
C413 C 0.06707 0.4644 0.92134 0.0
C414 C 0.96995 0.50655 0.78653 0.0
C415 C 0.95842 0.56487 0.9254 0.0
O416 O 0.99189 0.5571 0.89969 0.0
O417 O 0.92614 0.53623 0.92777 0.0
O418 O 0.07536 0.49499 0.89128 0.0
O419 O 0.02705 0.44694 0.92213 0.0
O420 O 0.76371 0.68408 0.05933 0.0
Cd421 Cd 0.78629 0.67333 0.12531 0.0
Cd422 Cd 0.77914 0.76061 0.12514 0.0
O423 O 0.7811 0.75685 0.05569 0.0
O424 O 0.83236 0.62269 0.12391 0.0
O425 O 0.84957 0.69476 0.13636 0.0
C426 C 0.86283 0.65355 0.12995 0.0
C427 C 0.80984 0.81736 0.17156 0.0
C428 C 0.76767 0.72061 0.03662 0.0
C429 C 0.70923 0.70909 0.1755 0.0
O430 O 0.71705 0.74259 0.14984 0.0
O431 O 0.73784 0.67673 0.17782 0.0
O432 O 0.77928 0.82586 0.14157 0.0
O433 O 0.82724 0.77728 0.1722 0.0
O434 O 0.5899 0.51384 0.30856 0.0
Cd435 Cd 0.60054 0.5363 0.37458 0.0
Cd436 Cd 0.51326 0.52907 0.37445 0.0
O437 O 0.51706 0.53105 0.30501 0.0
O438 O 0.65112 0.58233 0.37327 0.0
O439 O 0.57902 0.59958 0.38584 0.0
C440 C 0.62022 0.61281 0.37946 0.0
C441 C 0.45637 0.55974 0.42092 0.0
C442 C 0.55337 0.51772 0.2859 0.0
C443 C 0.56492 0.45913 0.42472 0.0
O444 O 0.53142 0.46698 0.39913 0.0
O445 O 0.59722 0.48774 0.42701 0.0
O446 O 0.44799 0.52918 0.39093 0.0
O447 O 0.49641 0.57714 0.42153 0.0
O448 O 0.96557 0.76033 0.68415 0.0
Cd449 Cd 0.89954 0.73788 0.67352 0.0
Cd450 Cd 0.8997 0.74509 0.76081 0.0
O451 O 0.96914 0.74314 0.75699 0.0
O452 O 0.90083 0.69185 0.62292 0.0
O453 O 0.88829 0.67459 0.69504 0.0
C454 C 0.89466 0.66137 0.65382 0.0
C455 C 0.85326 0.71439 0.81769 0.0
C456 C 0.98824 0.75646 0.72067 0.0
C457 C 0.84939 0.81503 0.70918 0.0
O458 O 0.87499 0.80718 0.74268 0.0
O459 O 0.84711 0.78643 0.67687 0.0
O460 O 0.88323 0.74495 0.82608 0.0
O461 O 0.85264 0.69699 0.77764 0.0
O462 O 0.51391 0.71545 0.93338 0.0
Cd463 Cd 0.53655 0.64945 0.92271 0.0
Cd464 Cd 0.5292 0.64947 1.00996 0.0
O465 O 0.53117 0.71891 1.00618 0.0
O466 O 0.58288 0.6509 0.8723 0.0
O467 O 0.59975 0.63834 0.94448 0.0
C468 C 0.6132 0.64482 0.90334 0.0
C469 C 0.55983 0.60301 0.06686 0.0
C470 C 0.51783 0.73808 0.96991 0.0
C471 C 0.45944 0.59924 0.9583 0.0
O472 O 0.46717 0.62484 0.99181 0.0
O473 O 0.48812 0.59696 0.92599 0.0
O474 O 0.52921 0.63302 0.07523 0.0
O475 O 0.5773 0.60235 0.02681 0.0
O476 O 0.55895 0.26387 0.18369 0.0
Cd477 Cd 0.62489 0.28651 0.17292 0.0
Cd478 Cd 0.62471 0.27955 0.26023 0.0
O479 O 0.55525 0.28135 0.25644 0.0
O480 O 0.62346 0.3326 0.12229 0.0
O481 O 0.6359 0.34979 0.19437 0.0
C482 C 0.62946 0.36305 0.15317 0.0
C483 C 0.67107 0.31033 0.31702 0.0
C484 C 0.53623 0.26782 0.22021 0.0
C485 C 0.67509 0.20952 0.20879 0.0
O486 O 0.64948 0.21746 0.2423 0.0
O487 O 0.6774 0.23805 0.17635 0.0
O488 O 0.64108 0.27977 0.3255 0.0
O489 O 0.67174 0.32769 0.27692 0.0
O490 O 1.00994 0.30897 0.43412 0.0
Cd491 Cd 0.98734 0.37498 0.42333 0.0
Cd492 Cd 0.99427 0.37482 0.51067 0.0
O493 O 0.99248 0.30535 0.5069 0.0
O494 O 0.94149 0.37358 0.37259 0.0
O495 O 0.92396 0.38618 0.44462 0.0
C496 C 0.91089 0.37972 0.40338 0.0
C497 C 0.9635 0.42122 0.56754 0.0
C498 C 1.00598 0.28628 0.47065 0.0
C499 C 0.06429 0.42509 0.45908 0.0
O500 O 0.05636 0.39952 0.49262 0.0
O501 O 0.03579 0.42739 0.42667 0.0
O502 O 0.99406 0.39117 0.57594 0.0
O503 O 0.94611 0.42194 0.52748 0.0
O504 O 0.96514 0.26407 0.83998 0.0
Cd505 Cd 0.89914 0.28669 0.85074 0.0
Cd506 Cd 0.89931 0.2797 0.7634 0.0
O507 O 0.96878 0.28146 0.76718 0.0
O508 O 0.90052 0.33257 0.90145 0.0
O509 O 0.88796 0.35007 0.82941 0.0
C510 C 0.8944 0.36316 0.87064 0.0
C511 C 0.85292 0.31046 0.70651 0.0
C512 C 0.98784 0.26799 0.80344 0.0
C513 C 0.849 0.20974 0.81503 0.0
O514 O 0.87458 0.21763 0.78148 0.0
O515 O 0.8467 0.23827 0.84741 0.0
O516 O 0.88297 0.27988 0.69813 0.0
O517 O 0.85222 0.32786 0.74656 0.0
O518 O 1.01012 0.71511 0.09039 0.0
Cd519 Cd 0.98753 0.64916 0.10118 0.0
Cd520 Cd 0.99441 0.64934 0.01385 0.0
O521 O 0.99258 0.7188 0.01766 0.0
O522 O 0.94147 0.65057 0.15182 0.0
O523 O 0.92425 0.63811 0.07974 0.0
C524 C 0.911 0.64454 0.12095 0.0
C525 C 0.96363 0.603 0.95705 0.0
C526 C 1.00613 0.73783 0.05387 0.0
C527 C 0.06451 0.59901 0.06524 0.0
O528 O 0.05652 0.62459 0.03173 0.0
O529 O 0.03603 0.59669 0.09771 0.0
O530 O 0.99417 0.63301 0.94857 0.0
O531 O 0.94628 0.60229 0.99715 0.0
O532 O 0.55861 0.76031 0.3406 0.0
Cd533 Cd 0.6246 0.73766 0.35127 0.0
Cd534 Cd 0.62459 0.74503 0.26402 0.0
O535 O 0.55514 0.74308 0.2678 0.0
O536 O 0.62314 0.69135 0.4017 0.0
O537 O 0.6357 0.67446 0.32953 0.0
C538 C 0.62921 0.66102 0.37068 0.0
C539 C 0.67106 0.71435 0.20717 0.0
C540 C 0.53598 0.75642 0.30407 0.0
C541 C 0.67485 0.81475 0.31568 0.0
O542 O 0.64925 0.80705 0.28217 0.0
O543 O 0.67711 0.78607 0.34798 0.0
O544 O 0.64107 0.74498 0.19876 0.0
O545 O 0.67169 0.69689 0.24722 0.0
O546 O 0.51387 0.30854 0.58986 0.0
Cd547 Cd 0.53631 0.37457 0.60052 0.0
Cd548 Cd 0.52909 0.37445 0.51324 0.0
O549 O 0.53108 0.305 0.51702 0.0
O550 O 0.58234 0.37325 0.65111 0.0
O551 O 0.5996 0.38584 0.57901 0.0
C552 C 0.61282 0.37944 0.62022 0.0
C553 C 0.55975 0.42093 0.45637 0.0
C554 C 0.51775 0.28589 0.55333 0.0
C555 C 0.45914 0.4247 0.5649 0.0
O556 O 0.46699 0.39911 0.53139 0.0
O557 O 0.48775 0.42699 0.5972 0.0
O558 O 0.5292 0.39094 0.44797 0.0
O559 O 0.57716 0.42154 0.49641 0.0
O560 O 0.68416 0.96552 0.76031 0.0
Cd561 Cd 0.67354 0.8995 0.73786 0.0
Cd562 Cd 0.76083 0.89965 0.74507 0.0
O563 O 0.75701 0.96909 0.74311 0.0
O564 O 0.62296 0.90078 0.69181 0.0
O565 O 0.69507 0.88824 0.67458 0.0
C566 C 0.65387 0.89461 0.66134 0.0
C567 C 0.81773 0.85321 0.71438 0.0
C568 C 0.72069 0.98819 0.75644 0.0
C569 C 0.7092 0.84935 0.815 0.0
O570 O 0.7427 0.87494 0.80716 0.0
O571 O 0.67689 0.84707 0.78641 0.0
O572 O 0.82611 0.88319 0.74495 0.0
O573 O 0.77768 0.85259 0.69698 0.0
O574 O 0.18373 0.55892 0.26387 0.0
Cd575 Cd 0.17294 0.62486 0.2865 0.0
Cd576 Cd 0.26026 0.6247 0.27955 0.0
O577 O 0.25648 0.55524 0.28134 0.0
O578 O 0.1223 0.62341 0.33258 0.0
O579 O 0.19438 0.63588 0.34979 0.0
C580 C 0.15318 0.62943 0.36304 0.0
C581 C 0.31703 0.67106 0.31034 0.0
C582 C 0.22026 0.53621 0.26782 0.0
C583 C 0.2088 0.67506 0.20952 0.0
O584 O 0.24233 0.64947 0.21746 0.0
O585 O 0.17636 0.67736 0.23804 0.0
O586 O 0.32553 0.64108 0.27978 0.0
O587 O 0.27693 0.67173 0.3277 0.0
O588 O 0.71549 0.93337 0.51382 0.0
Cd589 Cd 0.64949 0.92271 0.53647 0.0
Cd590 Cd 0.64951 1.00996 0.52909 0.0
O591 O 0.71896 1.00617 0.53105 0.0
O592 O 0.65094 0.87232 0.58282 0.0
O593 O 0.6384 0.9445 0.59966 0.0
C594 C 0.64488 0.90336 0.61313 0.0
C595 C 0.60305 0.06685 0.55972 0.0
C596 C 0.73812 0.9699 0.51771 0.0
C597 C 0.59926 0.95829 0.45936 0.0
O598 O 0.62487 0.99179 0.46707 0.0
O599 O 0.59699 0.926 0.48805 0.0
O600 O 0.63305 0.07523 0.5291 0.0
O601 O 0.6024 0.0268 0.5772 0.0
O602 O 0.34058 0.46477 0.76353 0.0
Cd603 Cd 0.35126 0.39879 0.78619 0.0
Cd604 Cd 0.26399 0.39898 0.7791 0.0
O605 O 0.26782 0.46843 0.78108 0.0
O606 O 0.4018 0.40026 0.83226 0.0
O607 O 0.32969 0.3878 0.84952 0.0
C608 C 0.37086 0.3943 0.86274 0.0
C609 C 0.20704 0.35264 0.80976 0.0
C610 C 0.30407 0.4875 0.76758 0.0
C611 C 0.31561 0.34866 0.70921 0.0
O612 O 0.28213 0.37435 0.71701 0.0
O613 O 0.34792 0.34628 0.73782 0.0
O614 O 0.1987 0.3827 0.77919 0.0
O615 O 0.24707 0.35186 0.82719 0.0
O616 O 0.30855 0.58985 0.51383 0.0
Cd617 Cd 0.37458 0.6005 0.53629 0.0
Cd618 Cd 0.37446 0.51322 0.52905 0.0
O619 O 0.30502 0.517 0.53102 0.0
O620 O 0.37325 0.6511 0.58231 0.0
O621 O 0.38585 0.579 0.59957 0.0
C622 C 0.37945 0.6202 0.61279 0.0
C623 C 0.42094 0.45634 0.55972 0.0
C624 C 0.2859 0.55332 0.5177 0.0
C625 C 0.42472 0.5649 0.45912 0.0
O626 O 0.39915 0.53138 0.46696 0.0
O627 O 0.427 0.5972 0.48773 0.0
O628 O 0.39095 0.44795 0.52916 0.0
O629 O 0.42154 0.49638 0.57714 0.0
O630 O 0.84 0.05889 0.26041 0.0
Cd631 Cd 0.8507 0.12485 0.23763 0.0
Cd632 Cd 0.76344 0.12481 0.24492 0.0
O633 O 0.76719 0.05535 0.24325 0.0
O634 O 0.9013 0.12338 0.19151 0.0
O635 O 0.8292 0.13589 0.17432 0.0
C636 C 0.87041 0.12945 0.16105 0.0
C637 C 0.70668 0.17129 0.21408 0.0
C638 C 0.80347 0.03624 0.25665 0.0
C639 C 0.815 0.17525 0.31458 0.0
O640 O 0.78151 0.14962 0.3069 0.0
O641 O 0.84734 0.17744 0.28593 0.0
O642 O 0.6982 0.14136 0.24475 0.0
O643 O 0.74676 0.17183 0.19666 0.0
O644 O 0.71514 0.09047 1.01014 0.0
Cd645 Cd 0.64918 0.10125 0.98754 0.0
Cd646 Cd 0.64937 0.01392 0.99441 0.0
O647 O 0.71883 0.01774 0.9926 0.0
O648 O 0.65059 0.15188 0.94146 0.0
O649 O 0.63815 0.07979 0.92427 0.0
C650 C 0.64458 0.12099 0.911 0.0
C651 C 0.60305 0.9571 0.96363 0.0
C652 C 0.73785 0.05395 1.00615 0.0
C653 C 0.59903 0.06531 0.06451 0.0
O654 O 0.62461 0.0318 0.05653 0.0
O655 O 0.59671 0.09778 0.03603 0.0
O656 O 0.63306 0.94863 0.99418 0.0
O657 O 0.60233 0.99721 0.94629 0.0
O658 O 0.80933 0.93341 0.51056 0.0
Cd659 Cd 0.87531 0.92276 0.48787 0.0
Cd660 Cd 0.87509 1.01003 0.495 0.0
O661 O 0.80565 1.00617 0.49304 0.0
O662 O 0.87386 0.87225 0.44177 0.0
O663 O 0.88627 0.94438 0.42456 0.0
C664 C 0.87981 0.90321 0.4113 0.0
C665 C 0.9214 0.06703 0.46434 0.0
C666 C 0.78659 0.96991 0.50652 0.0
C667 C 0.92546 0.9584 0.56484 0.0
O668 O 0.89975 0.99187 0.55707 0.0
O669 O 0.92783 0.9261 0.53622 0.0
O670 O 0.89134 0.07532 0.49493 0.0
O671 O 0.92219 0.027 0.4469 0.0
loop_
_geom_bond_atom_site_label_1
_geom_bond_atom_site_label_2
_geom_bond_distance
_geom_bond_site_symmetry_2
_ccdc_geom_bond_type
O0 Cd1 2.223 . S
O0 C8 1.315 . S
Cd1 O0 2.223 . S
Cd1 O4 2.297 . S
Cd1 O5 2.439 . S
Cd1 O11 2.240 . S
Cd2 O3 2.240 . S
Cd2 O10 2.223 . S
Cd2 O12 2.297 . S
Cd2 O13 2.439 . S
O3 Cd2 2.240 . S
O3 C8 1.279 . S
O4 Cd1 2.297 . S
O4 C6 1.247 . S
O5 Cd1 2.439 . S
O5 C6 1.208 . S
C6 O4 1.247 . S
C6 O5 1.208 . S
C7 O12 1.247 . S
C7 O13 1.208 . S
C8 O0 1.315 . S
C8 O3 1.279 . S
C9 O10 1.315 . S
C9 O11 1.279 . S
O10 Cd2 2.223 . S
O10 C9 1.315 . S
O11 Cd1 2.240 . S
O11 C9 1.279 . S
O12 Cd2 2.297 . S
O12 C7 1.247 . S
O13 Cd2 2.439 . S
O13 C7 1.208 . S
O14 Cd15 2.223 1_545 S
O14 C22 1.315 . S
Cd15 O14 2.223 1_565 S
Cd15 O18 2.297 . S
Cd15 O19 2.439 . S
Cd15 O25 2.240 1_565 S
Cd16 O17 2.237 1_545 S
Cd16 O24 2.233 . S
Cd16 O26 2.298 . S
Cd16 O27 2.430 1_545 S
O17 Cd16 2.237 1_565 S
O17 C22 1.279 1_665 S
O18 Cd15 2.297 . S
O18 C20 1.247 . S
O19 Cd15 2.439 . S
O19 C20 1.208 . S
C20 O18 1.247 . S
C20 O19 1.208 . S
C21 O26 1.247 1_565 S
C21 O27 1.208 . S
C22 O14 1.315 . S
C22 O17 1.279 1_445 S
C23 O24 1.315 1_455 S
C23 O25 1.279 . S
O24 Cd16 2.233 . S
O24 C23 1.315 1_655 S
O25 Cd15 2.240 1_545 S
O25 C23 1.279 . S
O26 Cd16 2.298 . S
O26 C21 1.247 1_545 S
O27 Cd16 2.430 1_565 S
O27 C21 1.208 . S
O28 Cd29 2.223 . S
O28 C36 1.315 . S
Cd29 O28 2.223 . S
Cd29 O32 2.297 . S
Cd29 O33 2.439 . S
Cd29 O39 2.240 . S
Cd30 O31 2.240 . S
Cd30 O38 2.223 . S
Cd30 O40 2.297 . S
Cd30 O41 2.439 . S
O31 Cd30 2.240 . S
O31 C36 1.279 . S
O32 Cd29 2.297 . S
O32 C34 1.247 . S
O33 Cd29 2.439 . S
O33 C34 1.208 . S
C34 O32 1.247 . S
C34 O33 1.208 . S
C35 O40 1.247 . S
C35 O41 1.208 . S
C36 O28 1.315 . S
C36 O31 1.279 . S
C37 O38 1.315 . S
C37 O39 1.279 . S
O38 Cd30 2.223 . S
O38 C37 1.315 . S
O39 Cd29 2.240 . S
O39 C37 1.279 . S
O40 Cd30 2.297 . S
O40 C35 1.247 . S
O41 Cd30 2.439 . S
O41 C35 1.208 . S
O42 Cd43 2.223 1_565 S
O42 C50 1.315 . S
Cd43 O42 2.223 1_545 S
Cd43 O46 2.297 . S
Cd43 O47 2.439 . S
Cd43 O53 2.240 1_545 S
Cd44 O45 2.240 1_565 S
Cd44 O52 2.223 . S
Cd44 O54 2.297 . S
Cd44 O55 2.439 1_565 S
O45 Cd44 2.240 1_545 S
O45 C50 1.279 1_545 S
O46 Cd43 2.297 . S
O46 C48 1.247 . S
O47 Cd43 2.439 . S
O47 C48 1.208 . S
C48 O46 1.247 . S
C48 O47 1.208 . S
C49 O54 1.247 1_545 S
C49 O55 1.208 . S
C50 O42 1.315 . S
C50 O45 1.279 1_565 S
C51 O52 1.315 . S
C51 O53 1.279 . S
O52 Cd44 2.223 . S
O52 C51 1.315 . S
O53 Cd43 2.240 1_565 S
O53 C51 1.279 . S
O54 Cd44 2.297 . S
O54 C49 1.247 1_565 S
O55 Cd44 2.439 1_545 S
O55 C49 1.208 . S
O56 Cd57 2.223 . S
O56 C64 1.315 . S
Cd57 O56 2.223 . S
Cd57 O60 2.297 . S
Cd57 O61 2.439 . S
Cd57 O67 2.240 . S
Cd58 O59 2.240 . S
Cd58 O66 2.223 . S
Cd58 O68 2.297 . S
Cd58 O69 2.439 . S
O59 Cd58 2.240 . S
O59 C64 1.279 . S
O60 Cd57 2.297 . S
O60 C62 1.247 . S
O61 Cd57 2.439 . S
O61 C62 1.208 . S
C62 O60 1.247 . S
C62 O61 1.208 . S
C63 O68 1.247 . S
C63 O69 1.208 . S
C64 O56 1.315 . S
C64 O59 1.279 . S
C65 O66 1.315 . S
C65 O67 1.279 . S
O66 Cd58 2.223 . S
O66 C65 1.315 . S
O67 Cd57 2.240 . S
O67 C65 1.279 . S
O68 Cd58 2.297 . S
O68 C63 1.247 . S
O69 Cd58 2.439 . S
O69 C63 1.208 . S
O70 Cd71 2.223 1_545 S
O70 C78 1.315 . S
Cd71 O70 2.223 1_565 S
Cd71 O74 2.297 . S
Cd71 O75 2.439 . S
Cd71 O81 2.240 1_565 S
Cd72 O73 2.246 . S
Cd72 O80 2.205 1_565 S
Cd72 O82 2.297 1_565 S
Cd72 O83 2.455 . S
O73 Cd72 2.246 . S
O73 C78 1.279 1_565 S
O74 Cd71 2.297 . S
O74 C76 1.247 . S
O75 Cd71 2.439 . S
O75 C76 1.208 . S
C76 O74 1.247 . S
C76 O75 1.208 . S
C77 O82 1.243 1_565 S
C77 O83 1.208 . S
C78 O70 1.315 . S
C78 O73 1.279 1_545 S
C79 O80 1.315 . S
C79 O81 1.279 . S
O80 Cd72 2.205 1_545 S
O80 C79 1.315 . S
O81 Cd71 2.240 1_545 S
O81 C79 1.279 . S
O82 Cd72 2.297 1_545 S
O82 C77 1.243 1_545 S
O83 Cd72 2.455 . S
O83 C77 1.208 . S
O84 Cd85 2.223 . S
O84 C92 1.315 . S
Cd85 O84 2.223 . S
Cd85 O88 2.297 . S
Cd85 O89 2.439 . S
Cd85 O95 2.240 . S
Cd86 O87 2.240 . S
Cd86 O94 2.223 . S
Cd86 O96 2.297 . S
Cd86 O97 2.439 . S
O87 Cd86 2.240 . S
O87 C92 1.279 . S
O88 Cd85 2.297 . S
O88 C90 1.247 . S
O89 Cd85 2.439 . S
O89 C90 1.208 . S
C90 O88 1.247 . S
C90 O89 1.208 . S
C91 O96 1.247 . S
C91 O97 1.208 . S
C92 O84 1.315 . S
C92 O87 1.279 . S
C93 O94 1.315 . S
C93 O95 1.279 . S
O94 Cd86 2.223 . S
O94 C93 1.315 . S
O95 Cd85 2.240 . S
O95 C93 1.279 . S
O96 Cd86 2.297 . S
O96 C91 1.247 . S
O97 Cd86 2.439 . S
O97 C91 1.208 . S
O98 Cd99 2.223 1_565 S
O98 C106 1.315 . S
Cd99 O98 2.223 1_545 S
Cd99 O102 2.297 . S
Cd99 O103 2.439 . S
Cd99 O109 2.240 1_545 S
Cd100 O101 2.240 1_565 S
Cd100 O108 2.223 . S
Cd100 O110 2.297 . S
Cd100 O111 2.439 1_565 S
O101 Cd100 2.240 1_545 S
O101 C106 1.279 1_645 S
O102 Cd99 2.297 . S
O102 C104 1.247 . S
O103 Cd99 2.439 . S
O103 C104 1.208 . S
C104 O102 1.247 . S
C104 O103 1.208 . S
C105 O110 1.247 1_545 S
C105 O111 1.208 . S
C106 O98 1.315 . S
C106 O101 1.279 1_465 S
C107 O108 1.315 1_455 S
C107 O109 1.279 . S
O108 Cd100 2.223 . S
O108 C107 1.315 1_655 S
O109 Cd99 2.240 1_565 S
O109 C107 1.279 . S
O110 Cd100 2.297 . S
O110 C105 1.247 1_565 S
O111 Cd100 2.439 1_545 S
O111 C105 1.208 . S
O112 Cd113 2.223 . S
O112 C120 1.315 . S
Cd113 O112 2.223 . S
Cd113 O116 2.297 . S
Cd113 O117 2.439 . S
Cd113 O123 2.240 . S
Cd114 O115 2.240 . S
Cd114 O122 2.223 . S
Cd114 O124 2.297 . S
Cd114 O125 2.439 . S
O115 Cd114 2.240 . S
O115 C120 1.279 . S
O116 Cd113 2.297 . S
O116 C118 1.247 . S
O117 Cd113 2.439 . S
O117 C118 1.208 . S
C118 O116 1.247 . S
C118 O117 1.208 . S
C119 O124 1.247 . S
C119 O125 1.208 . S
C120 O112 1.315 . S
C120 O115 1.279 . S
C121 O122 1.315 . S
C121 O123 1.279 . S
O122 Cd114 2.223 . S
O122 C121 1.315 . S
O123 Cd113 2.240 . S
O123 C121 1.279 . S
O124 Cd114 2.297 . S
O124 C119 1.247 . S
O125 Cd114 2.439 . S
O125 C119 1.208 . S
O126 Cd127 2.223 1_655 S
O126 C134 1.315 . S
Cd127 O126 2.223 1_455 S
Cd127 O130 2.297 . S
Cd127 O131 2.439 . S
Cd127 O137 2.240 1_455 S
Cd128 O129 2.240 1_655 S
Cd128 O136 2.223 . S
Cd128 O138 2.297 . S
Cd128 O139 2.439 1_655 S
O129 Cd128 2.240 1_455 S
O129 C134 1.279 1_455 S
O130 Cd127 2.297 . S
O130 C132 1.247 . S
O131 Cd127 2.439 . S
O131 C132 1.208 . S
C132 O130 1.247 . S
C132 O131 1.208 . S
C133 O138 1.247 1_455 S
C133 O139 1.208 . S
C134 O126 1.315 . S
C134 O129 1.279 1_655 S
C135 O136 1.315 . S
C135 O137 1.279 . S
O136 Cd128 2.223 . S
O136 C135 1.315 . S
O137 Cd127 2.240 1_655 S
O137 C135 1.279 . S
O138 Cd128 2.297 . S
O138 C133 1.247 1_655 S
O139 Cd128 2.439 1_455 S
O139 C133 1.208 . S
O140 Cd141 2.223 . S
O140 C148 1.315 . S
Cd141 O140 2.223 . S
Cd141 O144 2.297 . S
Cd141 O145 2.439 . S
Cd141 O151 2.240 . S
Cd142 O143 2.240 . S
Cd142 O150 2.223 . S
Cd142 O152 2.297 . S
Cd142 O153 2.439 . S
O143 Cd142 2.240 . S
O143 C148 1.279 . S
O144 Cd141 2.297 . S
O144 C146 1.247 . S
O145 Cd141 2.439 . S
O145 C146 1.208 . S
C146 O144 1.247 . S
C146 O145 1.208 . S
C147 O152 1.247 . S
C147 O153 1.208 . S
C148 O140 1.315 . S
C148 O143 1.279 . S
C149 O150 1.315 . S
C149 O151 1.279 . S
O150 Cd142 2.223 . S
O150 C149 1.315 . S
O151 Cd141 2.240 . S
O151 C149 1.279 . S
O152 Cd142 2.297 . S
O152 C147 1.247 . S
O153 Cd142 2.439 . S
O153 C147 1.208 . S
O154 Cd155 2.223 . S
O154 C162 1.315 . S
Cd155 O154 2.223 . S
Cd155 O158 2.297 . S
Cd155 O159 2.439 . S
Cd155 O165 2.240 . S
Cd156 O157 2.240 . S
Cd156 O164 2.223 . S
Cd156 O166 2.297 . S
Cd156 O167 2.439 . S
O157 Cd156 2.240 . S
O157 C162 1.279 1_554 S
O158 Cd155 2.297 . S
O158 C160 1.247 . S
O159 Cd155 2.439 . S
O159 C160 1.208 . S
C160 O158 1.247 . S
C160 O159 1.208 . S
C161 O166 1.247 . S
C161 O167 1.208 . S
C162 O154 1.315 . S
C162 O157 1.279 1_556 S
C163 O164 1.315 1_556 S
C163 O165 1.279 . S
O164 Cd156 2.223 . S
O164 C163 1.315 1_554 S
O165 Cd155 2.240 . S
O165 C163 1.279 . S
O166 Cd156 2.297 . S
O166 C161 1.247 . S
O167 Cd156 2.439 . S
O167 C161 1.208 . S
O168 Cd169 2.223 . S
O168 C176 1.315 . S
Cd169 O168 2.223 . S
Cd169 O172 2.297 . S
Cd169 O173 2.439 . S
Cd169 O179 2.240 . S
Cd170 O171 2.240 . S
Cd170 O178 2.223 . S
Cd170 O180 2.297 . S
Cd170 O181 2.439 . S
O171 Cd170 2.240 . S
O171 C176 1.279 . S
O172 Cd169 2.297 . S
O172 C174 1.247 . S
O173 Cd169 2.439 . S
O173 C174 1.208 . S
C174 O172 1.247 . S
C174 O173 1.208 . S
C175 O180 1.247 . S
C175 O181 1.208 . S
C176 O168 1.315 . S
C176 O171 1.279 . S
C177 O178 1.315 . S
C177 O179 1.279 . S
O178 Cd170 2.223 . S
O178 C177 1.315 . S
O179 Cd169 2.240 . S
O179 C177 1.279 . S
O180 Cd170 2.297 . S
O180 C175 1.247 . S
O181 Cd170 2.439 . S
O181 C175 1.208 . S
O182 Cd183 2.223 . S
O182 C190 1.315 . S
Cd183 O182 2.223 . S
Cd183 O186 2.297 . S
Cd183 O187 2.439 . S
Cd183 O193 2.240 . S
Cd184 O185 2.240 . S
Cd184 O192 2.223 . S
Cd184 O194 2.297 . S
Cd184 O195 2.439 . S
O185 Cd184 2.240 . S
O185 C190 1.279 . S
O186 Cd183 2.297 . S
O186 C188 1.247 . S
O187 Cd183 2.439 . S
O187 C188 1.208 . S
C188 O186 1.247 . S
C188 O187 1.208 . S
C189 O194 1.247 . S
C189 O195 1.208 . S
C190 O182 1.315 . S
C190 O185 1.279 . S
C191 O192 1.315 . S
C191 O193 1.279 . S
O192 Cd184 2.223 . S
O192 C191 1.315 . S
O193 Cd183 2.240 . S
O193 C191 1.279 . S
O194 Cd184 2.297 . S
O194 C189 1.247 . S
O195 Cd184 2.439 . S
O195 C189 1.208 . S
O196 Cd197 2.223 . S
O196 C204 1.315 . S
Cd197 O196 2.223 . S
Cd197 O200 2.297 . S
Cd197 O201 2.439 . S
Cd197 O207 2.240 . S
Cd198 O199 2.240 . S
Cd198 O206 2.223 . S
Cd198 O208 2.297 . S
Cd198 O209 2.439 . S
O199 Cd198 2.240 . S
O199 C204 1.279 . S
O200 Cd197 2.297 . S
O200 C202 1.247 . S
O201 Cd197 2.439 . S
O201 C202 1.208 . S
C202 O200 1.247 . S
C202 O201 1.208 . S
C203 O208 1.247 . S
C203 O209 1.208 . S
C204 O196 1.315 . S
C204 O199 1.279 . S
C205 O206 1.315 . S
C205 O207 1.279 . S
O206 Cd198 2.223 . S
O206 C205 1.315 . S
O207 Cd197 2.240 . S
O207 C205 1.279 . S
O208 Cd198 2.297 . S
O208 C203 1.247 . S
O209 Cd198 2.439 . S
O209 C203 1.208 . S
O210 Cd211 2.223 1_655 S
O210 C218 1.315 . S
Cd211 O210 2.223 1_455 S
Cd211 O214 2.297 . S
Cd211 O215 2.439 . S
Cd211 O221 2.240 1_455 S
Cd212 O213 2.240 1_655 S
Cd212 O220 2.223 . S
Cd212 O222 2.297 . S
Cd212 O223 2.439 1_655 S
O213 Cd212 2.240 1_455 S
O213 C218 1.279 1_456 S
O214 Cd211 2.297 . S
O214 C216 1.247 . S
O215 Cd211 2.439 . S
O215 C216 1.208 . S
C216 O214 1.247 . S
C216 O215 1.208 . S
C217 O222 1.247 1_455 S
C217 O223 1.208 . S
C218 O210 1.315 . S
C218 O213 1.279 1_654 S
C219 O220 1.315 1_554 S
C219 O221 1.279 . S
O220 Cd212 2.223 . S
O220 C219 1.315 1_556 S
O221 Cd211 2.240 1_655 S
O221 C219 1.279 . S
O222 Cd212 2.297 . S
O222 C217 1.247 1_655 S
O223 Cd212 2.439 1_455 S
O223 C217 1.208 . S
O224 Cd225 2.223 . S
O224 C232 1.315 . S
Cd225 O224 2.223 . S
Cd225 O228 2.297 . S
Cd225 O229 2.439 . S
Cd225 O235 2.240 . S
Cd226 O227 2.240 . S
Cd226 O234 2.223 . S
Cd226 O236 2.297 . S
Cd226 O237 2.439 . S
O227 Cd226 2.240 . S
O227 C232 1.279 . S
O228 Cd225 2.297 . S
O228 C230 1.247 . S
O229 Cd225 2.439 . S
O229 C230 1.208 . S
C230 O228 1.247 . S
C230 O229 1.208 . S
C231 O236 1.247 . S
C231 O237 1.208 . S
C232 O224 1.315 . S
C232 O227 1.279 . S
C233 O234 1.315 . S
C233 O235 1.279 . S
O234 Cd226 2.223 . S
O234 C233 1.315 . S
O235 Cd225 2.240 . S
O235 C233 1.279 . S
O236 Cd226 2.297 . S
O236 C231 1.247 . S
O237 Cd226 2.439 . S
O237 C231 1.208 . S
O238 Cd239 2.223 . S
O238 C246 1.315 . S
Cd239 O238 2.223 . S
Cd239 O242 2.297 . S
Cd239 O243 2.439 . S
Cd239 O249 2.240 . S
Cd240 O241 2.240 . S
Cd240 O248 2.223 . S
Cd240 O250 2.297 . S
Cd240 O251 2.439 . S
O241 Cd240 2.240 . S
O241 C246 1.279 . S
O242 Cd239 2.297 . S
O242 C244 1.247 . S
O243 Cd239 2.439 . S
O243 C244 1.208 . S
C244 O242 1.247 . S
C244 O243 1.208 . S
C245 O250 1.247 . S
C245 O251 1.208 . S
C246 O238 1.315 . S
C246 O241 1.279 . S
C247 O248 1.315 . S
C247 O249 1.279 . S
O248 Cd240 2.223 . S
O248 C247 1.315 . S
O249 Cd239 2.240 . S
O249 C247 1.279 . S
O250 Cd240 2.297 . S
O250 C245 1.247 . S
O251 Cd240 2.439 . S
O251 C245 1.208 . S
O252 Cd253 2.223 1_556 S
O252 C260 1.315 . S
Cd253 O252 2.223 1_554 S
Cd253 O256 2.297 . S
Cd253 O257 2.439 . S
Cd253 O263 2.240 1_554 S
Cd254 O255 2.240 1_556 S
Cd254 O262 2.223 . S
Cd254 O264 2.297 . S
Cd254 O265 2.439 1_556 S
O255 Cd254 2.240 1_554 S
O255 C260 1.279 1_554 S
O256 Cd253 2.297 . S
O256 C258 1.247 . S
O257 Cd253 2.439 . S
O257 C258 1.208 . S
C258 O256 1.247 . S
C258 O257 1.208 . S
C259 O264 1.247 1_554 S
C259 O265 1.208 . S
C260 O252 1.315 . S
C260 O255 1.279 1_556 S
C261 O262 1.315 . S
C261 O263 1.279 . S
O262 Cd254 2.223 . S
O262 C261 1.315 . S
O263 Cd253 2.240 1_556 S
O263 C261 1.279 . S
O264 Cd254 2.297 . S
O264 C259 1.247 1_556 S
O265 Cd254 2.439 1_554 S
O265 C259 1.208 . S
O266 Cd267 2.223 . S
O266 C274 1.315 . S
Cd267 O266 2.223 . S
Cd267 O270 2.297 . S
Cd267 O271 2.439 . S
Cd267 O277 2.240 . S
Cd268 O269 2.240 . S
Cd268 O276 2.223 . S
Cd268 O278 2.297 . S
Cd268 O279 2.439 . S
O269 Cd268 2.240 . S
O269 C274 1.279 . S
O270 Cd267 2.297 . S
O270 C272 1.247 . S
O271 Cd267 2.439 . S
O271 C272 1.208 . S
C272 O270 1.247 . S
C272 O271 1.208 . S
C273 O278 1.247 . S
C273 O279 1.208 . S
C274 O266 1.315 . S
C274 O269 1.279 . S
C275 O276 1.315 . S
C275 O277 1.279 . S
O276 Cd268 2.223 . S
O276 C275 1.315 . S
O277 Cd267 2.240 . S
O277 C275 1.279 . S
O278 Cd268 2.297 . S
O278 C273 1.247 . S
O279 Cd268 2.439 . S
O279 C273 1.208 . S
O280 Cd281 2.223 1_556 S
O280 C288 1.315 . S
Cd281 O280 2.223 1_554 S
Cd281 O284 2.297 . S
Cd281 O285 2.439 . S
Cd281 O291 2.240 1_554 S
Cd282 O283 2.240 1_556 S
Cd282 O290 2.223 . S
Cd282 O292 2.297 . S
Cd282 O293 2.439 1_556 S
O283 Cd282 2.240 1_554 S
O283 C288 1.279 1_564 S
O284 Cd281 2.297 . S
O284 C286 1.247 . S
O285 Cd281 2.439 . S
O285 C286 1.208 . S
C286 O284 1.247 . S
C286 O285 1.208 . S
C287 O292 1.247 1_554 S
C287 O293 1.208 . S
C288 O280 1.315 . S
C288 O283 1.279 1_546 S
C289 O290 1.315 1_545 S
C289 O291 1.279 . S
O290 Cd282 2.223 . S
O290 C289 1.315 1_565 S
O291 Cd281 2.240 1_556 S
O291 C289 1.279 . S
O292 Cd282 2.297 . S
O292 C287 1.247 1_556 S
O293 Cd282 2.439 1_554 S
O293 C287 1.208 . S
O294 Cd295 2.223 . S
O294 C302 1.315 . S
Cd295 O294 2.223 . S
Cd295 O298 2.297 . S
Cd295 O299 2.439 . S
Cd295 O305 2.240 . S
Cd296 O297 2.240 . S
Cd296 O304 2.223 . S
Cd296 O306 2.297 . S
Cd296 O307 2.439 . S
O297 Cd296 2.240 . S
O297 C302 1.279 . S
O298 Cd295 2.297 . S
O298 C300 1.247 . S
O299 Cd295 2.439 . S
O299 C300 1.208 . S
C300 O298 1.247 . S
C300 O299 1.208 . S
C301 O306 1.247 . S
C301 O307 1.208 . S
C302 O294 1.315 . S
C302 O297 1.279 . S
C303 O304 1.315 . S
C303 O305 1.279 . S
O304 Cd296 2.223 . S
O304 C303 1.315 . S
O305 Cd295 2.240 . S
O305 C303 1.279 . S
O306 Cd296 2.297 . S
O306 C301 1.247 . S
O307 Cd296 2.439 . S
O307 C301 1.208 . S
O308 Cd309 2.223 . S
O308 C316 1.315 . S
Cd309 O308 2.223 . S
Cd309 O312 2.297 . S
Cd309 O313 2.439 . S
Cd309 O319 2.240 . S
Cd310 O311 2.240 . S
Cd310 O318 2.223 . S
Cd310 O320 2.297 . S
Cd310 O321 2.439 . S
O311 Cd310 2.240 . S
O311 C316 1.279 . S
O312 Cd309 2.297 . S
O312 C314 1.247 . S
O313 Cd309 2.439 . S
O313 C314 1.208 . S
C314 O312 1.247 . S
C314 O313 1.208 . S
C315 O320 1.247 . S
C315 O321 1.208 . S
C316 O308 1.315 . S
C316 O311 1.279 . S
C317 O318 1.315 . S
C317 O319 1.279 . S
O318 Cd310 2.223 . S
O318 C317 1.315 . S
O319 Cd309 2.240 . S
O319 C317 1.279 . S
O320 Cd310 2.297 . S
O320 C315 1.247 . S
O321 Cd310 2.439 . S
O321 C315 1.208 . S
O322 Cd323 2.223 1_554 S
O322 C330 1.315 . S
Cd323 O322 2.223 1_556 S
Cd323 O326 2.297 . S
Cd323 O327 2.439 . S
Cd323 O333 2.240 1_556 S
Cd324 O325 2.246 . S
Cd324 O332 2.205 1_556 S
Cd324 O334 2.297 1_556 S
Cd324 O335 2.455 . S
O325 Cd324 2.246 . S
O325 C330 1.279 1_556 S
O326 Cd323 2.297 . S
O326 C328 1.247 . S
O327 Cd323 2.439 . S
O327 C328 1.208 . S
C328 O326 1.247 . S
C328 O327 1.208 . S
C329 O334 1.243 1_556 S
C329 O335 1.208 . S
C330 O322 1.315 . S
C330 O325 1.279 1_554 S
C331 O332 1.315 . S
C331 O333 1.279 . S
O332 Cd324 2.205 1_554 S
O332 C331 1.315 . S
O333 Cd323 2.240 1_554 S
O333 C331 1.279 . S
O334 Cd324 2.297 1_554 S
O334 C329 1.243 1_554 S
O335 Cd324 2.455 . S
O335 C329 1.208 . S
O336 Cd337 2.223 . S
O336 C344 1.315 . S
Cd337 O336 2.223 . S
Cd337 O340 2.297 . S
Cd337 O341 2.439 . S
Cd337 O347 2.240 . S
Cd338 O339 2.240 . S
Cd338 O346 2.223 . S
Cd338 O348 2.297 . S
Cd338 O349 2.439 . S
O339 Cd338 2.240 . S
O339 C344 1.279 . S
O340 Cd337 2.297 . S
O340 C342 1.247 . S
O341 Cd337 2.439 . S
O341 C342 1.208 . S
C342 O340 1.247 . S
C342 O341 1.208 . S
C343 O348 1.247 . S
C343 O349 1.208 . S
C344 O336 1.315 . S
C344 O339 1.279 . S
C345 O346 1.315 . S
C345 O347 1.279 . S
O346 Cd338 2.223 . S
O346 C345 1.315 . S
O347 Cd337 2.240 . S
O347 C345 1.279 . S
O348 Cd338 2.297 . S
O348 C343 1.247 . S
O349 Cd338 2.439 . S
O349 C343 1.208 . S
O350 Cd351 2.223 . S
O350 C358 1.315 . S
Cd351 O350 2.223 . S
Cd351 O354 2.297 . S
Cd351 O355 2.439 . S
Cd351 O361 2.240 . S
Cd352 O353 2.240 . S
Cd352 O360 2.223 . S
Cd352 O362 2.297 . S
Cd352 O363 2.439 . S
O353 Cd352 2.240 . S
O353 C358 1.279 . S
O354 Cd351 2.297 . S
O354 C356 1.247 . S
O355 Cd351 2.439 . S
O355 C356 1.208 . S
C356 O354 1.247 . S
C356 O355 1.208 . S
C357 O362 1.247 . S
C357 O363 1.208 . S
C358 O350 1.315 . S
C358 O353 1.279 . S
C359 O360 1.315 . S
C359 O361 1.279 . S
O360 Cd352 2.223 . S
O360 C359 1.315 . S
O361 Cd351 2.240 . S
O361 C359 1.279 . S
O362 Cd352 2.297 . S
O362 C357 1.247 . S
O363 Cd352 2.439 . S
O363 C357 1.208 . S
O364 Cd365 2.223 . S
O364 C372 1.315 . S
Cd365 O364 2.223 . S
Cd365 O368 2.297 . S
Cd365 O369 2.439 . S
Cd365 O375 2.240 . S
Cd366 O367 2.240 . S
Cd366 O374 2.223 . S
Cd366 O376 2.297 . S
Cd366 O377 2.439 . S
O367 Cd366 2.240 . S
O367 C372 1.279 . S
O368 Cd365 2.297 . S
O368 C370 1.247 . S
O369 Cd365 2.439 . S
O369 C370 1.208 . S
C370 O368 1.247 . S
C370 O369 1.208 . S
C371 O376 1.247 . S
C371 O377 1.208 . S
C372 O364 1.315 . S
C372 O367 1.279 . S
C373 O374 1.315 . S
C373 O375 1.279 . S
O374 Cd366 2.223 . S
O374 C373 1.315 . S
O375 Cd365 2.240 . S
O375 C373 1.279 . S
O376 Cd366 2.297 . S
O376 C371 1.247 . S
O377 Cd366 2.439 . S
O377 C371 1.208 . S
O378 Cd379 2.223 . S
O378 C386 1.315 . S
Cd379 O378 2.223 . S
Cd379 O382 2.297 . S
Cd379 O383 2.439 . S
Cd379 O389 2.240 . S
Cd380 O381 2.240 . S
Cd380 O388 2.223 . S
Cd380 O390 2.297 . S
Cd380 O391 2.439 . S
O381 Cd380 2.240 . S
O381 C386 1.279 1_455 S
O382 Cd379 2.297 . S
O382 C384 1.247 . S
O383 Cd379 2.439 . S
O383 C384 1.208 . S
C384 O382 1.247 . S
C384 O383 1.208 . S
C385 O390 1.247 . S
C385 O391 1.208 . S
C386 O378 1.315 . S
C386 O381 1.279 1_655 S
C387 O388 1.315 1_655 S
C387 O389 1.279 . S
O388 Cd380 2.223 . S
O388 C387 1.315 1_455 S
O389 Cd379 2.240 . S
O389 C387 1.279 . S
O390 Cd380 2.297 . S
O390 C385 1.247 . S
O391 Cd380 2.439 . S
O391 C385 1.208 . S
O392 Cd393 2.223 . S
O392 C400 1.315 . S
Cd393 O392 2.223 . S
Cd393 O396 2.297 . S
Cd393 O397 2.439 . S
Cd393 O403 2.240 . S
Cd394 O395 2.240 . S
Cd394 O402 2.223 . S
Cd394 O404 2.297 . S
Cd394 O405 2.439 . S
O395 Cd394 2.240 . S
O395 C400 1.279 . S
O396 Cd393 2.297 . S
O396 C398 1.247 . S
O397 Cd393 2.439 . S
O397 C398 1.208 . S
C398 O396 1.247 . S
C398 O397 1.208 . S
C399 O404 1.247 . S
C399 O405 1.208 . S
C400 O392 1.315 . S
C400 O395 1.279 . S
C401 O402 1.315 . S
C401 O403 1.279 . S
O402 Cd394 2.223 . S
O402 C401 1.315 . S
O403 Cd393 2.240 . S
O403 C401 1.279 . S
O404 Cd394 2.297 . S
O404 C399 1.247 . S
O405 Cd394 2.439 . S
O405 C399 1.208 . S
O406 Cd407 2.223 . S
O406 C414 1.315 . S
Cd407 O406 2.223 . S
Cd407 O410 2.297 . S
Cd407 O411 2.439 . S
Cd407 O417 2.240 . S
Cd408 O409 2.240 . S
Cd408 O416 2.223 . S
Cd408 O418 2.297 . S
Cd408 O419 2.439 . S
O409 Cd408 2.240 . S
O409 C414 1.279 1_455 S
O410 Cd407 2.297 . S
O410 C412 1.247 . S
O411 Cd407 2.439 . S
O411 C412 1.208 . S
C412 O410 1.247 . S
C412 O411 1.208 . S
C413 O418 1.247 . S
C413 O419 1.208 . S
C414 O406 1.315 . S
C414 O409 1.279 1_655 S
C415 O416 1.315 1_655 S
C415 O417 1.279 . S
O416 Cd408 2.223 . S
O416 C415 1.315 1_455 S
O417 Cd407 2.240 . S
O417 C415 1.279 . S
O418 Cd408 2.297 . S
O418 C413 1.247 . S
O419 Cd408 2.439 . S
O419 C413 1.208 . S
O420 Cd421 2.223 . S
O420 C428 1.315 . S
Cd421 O420 2.223 . S
Cd421 O424 2.297 . S
Cd421 O425 2.439 . S
Cd421 O431 2.240 . S
Cd422 O423 2.240 . S
Cd422 O430 2.223 . S
Cd422 O432 2.297 . S
Cd422 O433 2.439 . S
O423 Cd422 2.240 . S
O423 C428 1.279 . S
O424 Cd421 2.297 . S
O424 C426 1.247 . S
O425 Cd421 2.439 . S
O425 C426 1.208 . S
C426 O424 1.247 . S
C426 O425 1.208 . S
C427 O432 1.247 . S
C427 O433 1.208 . S
C428 O420 1.315 . S
C428 O423 1.279 . S
C429 O430 1.315 . S
C429 O431 1.279 . S
O430 Cd422 2.223 . S
O430 C429 1.315 . S
O431 Cd421 2.240 . S
O431 C429 1.279 . S
O432 Cd422 2.297 . S
O432 C427 1.247 . S
O433 Cd422 2.439 . S
O433 C427 1.208 . S
O434 Cd435 2.223 . S
O434 C442 1.315 . S
Cd435 O434 2.223 . S
Cd435 O438 2.297 . S
Cd435 O439 2.439 . S
Cd435 O445 2.240 . S
Cd436 O437 2.240 . S
Cd436 O444 2.223 . S
Cd436 O446 2.297 . S
Cd436 O447 2.439 . S
O437 Cd436 2.240 . S
O437 C442 1.279 . S
O438 Cd435 2.297 . S
O438 C440 1.247 . S
O439 Cd435 2.439 . S
O439 C440 1.208 . S
C440 O438 1.247 . S
C440 O439 1.208 . S
C441 O446 1.247 . S
C441 O447 1.208 . S
C442 O434 1.315 . S
C442 O437 1.279 . S
C443 O444 1.315 . S
C443 O445 1.279 . S
O444 Cd436 2.223 . S
O444 C443 1.315 . S
O445 Cd435 2.240 . S
O445 C443 1.279 . S
O446 Cd436 2.297 . S
O446 C441 1.247 . S
O447 Cd436 2.439 . S
O447 C441 1.208 . S
O448 Cd449 2.223 . S
O448 C456 1.315 . S
Cd449 O448 2.223 . S
Cd449 O452 2.297 . S
Cd449 O453 2.439 . S
Cd449 O459 2.240 . S
Cd450 O451 2.240 . S
Cd450 O458 2.223 . S
Cd450 O460 2.297 . S
Cd450 O461 2.439 . S
O451 Cd450 2.240 . S
O451 C456 1.279 . S
O452 Cd449 2.297 . S
O452 C454 1.247 . S
O453 Cd449 2.439 . S
O453 C454 1.208 . S
C454 O452 1.247 . S
C454 O453 1.208 . S
C455 O460 1.247 . S
C455 O461 1.208 . S
C456 O448 1.315 . S
C456 O451 1.279 . S
C457 O458 1.315 . S
C457 O459 1.279 . S
O458 Cd450 2.223 . S
O458 C457 1.315 . S
O459 Cd449 2.240 . S
O459 C457 1.279 . S
O460 Cd450 2.297 . S
O460 C455 1.247 . S
O461 Cd450 2.439 . S
O461 C455 1.208 . S
O462 Cd463 2.223 . S
O462 C470 1.315 . S
Cd463 O462 2.223 . S
Cd463 O466 2.297 . S
Cd463 O467 2.439 . S
Cd463 O473 2.240 . S
Cd464 O465 2.240 . S
Cd464 O472 2.223 . S
Cd464 O474 2.297 . S
Cd464 O475 2.439 . S
O465 Cd464 2.240 . S
O465 C470 1.279 1_554 S
O466 Cd463 2.297 . S
O466 C468 1.247 . S
O467 Cd463 2.439 . S
O467 C468 1.208 . S
C468 O466 1.247 . S
C468 O467 1.208 . S
C469 O474 1.247 . S
C469 O475 1.208 . S
C470 O462 1.315 . S
C470 O465 1.279 1_556 S
C471 O472 1.315 1_556 S
C471 O473 1.279 . S
O472 Cd464 2.223 . S
O472 C471 1.315 1_554 S
O473 Cd463 2.240 . S
O473 C471 1.279 . S
O474 Cd464 2.297 . S
O474 C469 1.247 . S
O475 Cd464 2.439 . S
O475 C469 1.208 . S
O476 Cd477 2.223 . S
O476 C484 1.315 . S
Cd477 O476 2.223 . S
Cd477 O480 2.297 . S
Cd477 O481 2.439 . S
Cd477 O487 2.240 . S
Cd478 O479 2.240 . S
Cd478 O486 2.223 . S
Cd478 O488 2.297 . S
Cd478 O489 2.439 . S
O479 Cd478 2.240 . S
O479 C484 1.279 . S
O480 Cd477 2.297 . S
O480 C482 1.247 . S
O481 Cd477 2.439 . S
O481 C482 1.208 . S
C482 O480 1.247 . S
C482 O481 1.208 . S
C483 O488 1.247 . S
C483 O489 1.208 . S
C484 O476 1.315 . S
C484 O479 1.279 . S
C485 O486 1.315 . S
C485 O487 1.279 . S
O486 Cd478 2.223 . S
O486 C485 1.315 . S
O487 Cd477 2.240 . S
O487 C485 1.279 . S
O488 Cd478 2.297 . S
O488 C483 1.247 . S
O489 Cd478 2.439 . S
O489 C483 1.208 . S
O490 Cd491 2.223 1_455 S
O490 C498 1.315 . S
Cd491 O490 2.223 1_655 S
Cd491 O494 2.297 . S
Cd491 O495 2.439 . S
Cd491 O501 2.240 1_655 S
Cd492 O493 2.246 . S
Cd492 O500 2.205 1_655 S
Cd492 O502 2.297 1_655 S
Cd492 O503 2.455 . S
O493 Cd492 2.246 . S
O493 C498 1.279 1_655 S
O494 Cd491 2.297 . S
O494 C496 1.247 . S
O495 Cd491 2.439 . S
O495 C496 1.208 . S
C496 O494 1.247 . S
C496 O495 1.208 . S
C497 O502 1.243 1_655 S
C497 O503 1.208 . S
C498 O490 1.315 . S
C498 O493 1.279 1_455 S
C499 O500 1.315 . S
C499 O501 1.279 . S
O500 Cd492 2.205 1_455 S
O500 C499 1.315 . S
O501 Cd491 2.240 1_455 S
O501 C499 1.279 . S
O502 Cd492 2.297 1_455 S
O502 C497 1.243 1_455 S
O503 Cd492 2.455 . S
O503 C497 1.208 . S
O504 Cd505 2.223 . S
O504 C512 1.315 . S
Cd505 O504 2.223 . S
Cd505 O508 2.297 . S
Cd505 O509 2.439 . S
Cd505 O515 2.240 . S
Cd506 O507 2.240 . S
Cd506 O514 2.223 . S
Cd506 O516 2.297 . S
Cd506 O517 2.439 . S
O507 Cd506 2.240 . S
O507 C512 1.279 . S
O508 Cd505 2.297 . S
O508 C510 1.247 . S
O509 Cd505 2.439 . S
O509 C510 1.208 . S
C510 O508 1.247 . S
C510 O509 1.208 . S
C511 O516 1.247 . S
C511 O517 1.208 . S
C512 O504 1.315 . S
C512 O507 1.279 . S
C513 O514 1.315 . S
C513 O515 1.279 . S
O514 Cd506 2.223 . S
O514 C513 1.315 . S
O515 Cd505 2.240 . S
O515 C513 1.279 . S
O516 Cd506 2.297 . S
O516 C511 1.247 . S
O517 Cd506 2.439 . S
O517 C511 1.208 . S
O518 Cd519 2.223 1_455 S
O518 C526 1.315 . S
Cd519 O518 2.223 1_655 S
Cd519 O522 2.297 . S
Cd519 O523 2.439 . S
Cd519 O529 2.240 1_655 S
Cd520 O521 2.237 1_455 S
Cd520 O528 2.233 . S
Cd520 O530 2.298 . S
Cd520 O531 2.430 1_455 S
O521 Cd520 2.237 1_655 S
O521 C526 1.279 1_656 S
O522 Cd519 2.297 . S
O522 C524 1.247 . S
O523 Cd519 2.439 . S
O523 C524 1.208 . S
C524 O522 1.247 . S
C524 O523 1.208 . S
C525 O530 1.247 1_655 S
C525 O531 1.208 . S
C526 O518 1.315 . S
C526 O521 1.279 1_454 S
C527 O528 1.315 1_554 S
C527 O529 1.279 . S
O528 Cd520 2.233 . S
O528 C527 1.315 1_556 S
O529 Cd519 2.240 1_455 S
O529 C527 1.279 . S
O530 Cd520 2.298 . S
O530 C525 1.247 1_455 S
O531 Cd520 2.430 1_655 S
O531 C525 1.208 . S
O532 Cd533 2.223 . S
O532 C540 1.315 . S
Cd533 O532 2.223 . S
Cd533 O536 2.297 . S
Cd533 O537 2.439 . S
Cd533 O543 2.240 . S
Cd534 O535 2.240 . S
Cd534 O542 2.223 . S
Cd534 O544 2.297 . S
Cd534 O545 2.439 . S
O535 Cd534 2.240 . S
O535 C540 1.279 . S
O536 Cd533 2.297 . S
O536 C538 1.247 . S
O537 Cd533 2.439 . S
O537 C538 1.208 . S
C538 O536 1.247 . S
C538 O537 1.208 . S
C539 O544 1.247 . S
C539 O545 1.208 . S
C540 O532 1.315 . S
C540 O535 1.279 . S
C541 O542 1.315 . S
C541 O543 1.279 . S
O542 Cd534 2.223 . S
O542 C541 1.315 . S
O543 Cd533 2.240 . S
O543 C541 1.279 . S
O544 Cd534 2.297 . S
O544 C539 1.247 . S
O545 Cd534 2.439 . S
O545 C539 1.208 . S
O546 Cd547 2.223 . S
O546 C554 1.315 . S
Cd547 O546 2.223 . S
Cd547 O550 2.297 . S
Cd547 O551 2.439 . S
Cd547 O557 2.240 . S
Cd548 O549 2.240 . S
Cd548 O556 2.223 . S
Cd548 O558 2.297 . S
Cd548 O559 2.439 . S
O549 Cd548 2.240 . S
O549 C554 1.279 . S
O550 Cd547 2.297 . S
O550 C552 1.247 . S
O551 Cd547 2.439 . S
O551 C552 1.208 . S
C552 O550 1.247 . S
C552 O551 1.208 . S
C553 O558 1.247 . S
C553 O559 1.208 . S
C554 O546 1.315 . S
C554 O549 1.279 . S
C555 O556 1.315 . S
C555 O557 1.279 . S
O556 Cd548 2.223 . S
O556 C555 1.315 . S
O557 Cd547 2.240 . S
O557 C555 1.279 . S
O558 Cd548 2.297 . S
O558 C553 1.247 . S
O559 Cd548 2.439 . S
O559 C553 1.208 . S
O560 Cd561 2.223 . S
O560 C568 1.315 . S
Cd561 O560 2.223 . S
Cd561 O564 2.297 . S
Cd561 O565 2.439 . S
Cd561 O571 2.240 . S
Cd562 O563 2.240 . S
Cd562 O570 2.223 . S
Cd562 O572 2.297 . S
Cd562 O573 2.439 . S
O563 Cd562 2.240 . S
O563 C568 1.279 . S
O564 Cd561 2.297 . S
O564 C566 1.247 . S
O565 Cd561 2.439 . S
O565 C566 1.208 . S
C566 O564 1.247 . S
C566 O565 1.208 . S
C567 O572 1.247 . S
C567 O573 1.208 . S
C568 O560 1.315 . S
C568 O563 1.279 . S
C569 O570 1.315 . S
C569 O571 1.279 . S
O570 Cd562 2.223 . S
O570 C569 1.315 . S
O571 Cd561 2.240 . S
O571 C569 1.279 . S
O572 Cd562 2.297 . S
O572 C567 1.247 . S
O573 Cd562 2.439 . S
O573 C567 1.208 . S
O574 Cd575 2.223 . S
O574 C582 1.315 . S
Cd575 O574 2.223 . S
Cd575 O578 2.297 . S
Cd575 O579 2.439 . S
Cd575 O585 2.240 . S
Cd576 O577 2.240 . S
Cd576 O584 2.223 . S
Cd576 O586 2.297 . S
Cd576 O587 2.439 . S
O577 Cd576 2.240 . S
O577 C582 1.279 . S
O578 Cd575 2.297 . S
O578 C580 1.247 . S
O579 Cd575 2.439 . S
O579 C580 1.208 . S
C580 O578 1.247 . S
C580 O579 1.208 . S
C581 O586 1.247 . S
C581 O587 1.208 . S
C582 O574 1.315 . S
C582 O577 1.279 . S
C583 O584 1.315 . S
C583 O585 1.279 . S
O584 Cd576 2.223 . S
O584 C583 1.315 . S
O585 Cd575 2.240 . S
O585 C583 1.279 . S
O586 Cd576 2.297 . S
O586 C581 1.247 . S
O587 Cd576 2.439 . S
O587 C581 1.208 . S
O588 Cd589 2.223 . S
O588 C596 1.315 . S
Cd589 O588 2.223 . S
Cd589 O592 2.297 . S
Cd589 O593 2.439 . S
Cd589 O599 2.240 . S
Cd590 O591 2.240 . S
Cd590 O598 2.223 . S
Cd590 O600 2.297 . S
Cd590 O601 2.439 . S
O591 Cd590 2.240 . S
O591 C596 1.279 1_545 S
O592 Cd589 2.297 . S
O592 C594 1.247 . S
O593 Cd589 2.439 . S
O593 C594 1.208 . S
C594 O592 1.247 . S
C594 O593 1.208 . S
C595 O600 1.247 . S
C595 O601 1.208 . S
C596 O588 1.315 . S
C596 O591 1.279 1_565 S
C597 O598 1.315 1_565 S
C597 O599 1.279 . S
O598 Cd590 2.223 . S
O598 C597 1.315 1_545 S
O599 Cd589 2.240 . S
O599 C597 1.279 . S
O600 Cd590 2.297 . S
O600 C595 1.247 . S
O601 Cd590 2.439 . S
O601 C595 1.208 . S
O602 Cd603 2.223 . S
O602 C610 1.315 . S
Cd603 O602 2.223 . S
Cd603 O606 2.297 . S
Cd603 O607 2.439 . S
Cd603 O613 2.240 . S
Cd604 O605 2.240 . S
Cd604 O612 2.223 . S
Cd604 O614 2.297 . S
Cd604 O615 2.439 . S
O605 Cd604 2.240 . S
O605 C610 1.279 . S
O606 Cd603 2.297 . S
O606 C608 1.247 . S
O607 Cd603 2.439 . S
O607 C608 1.208 . S
C608 O606 1.247 . S
C608 O607 1.208 . S
C609 O614 1.247 . S
C609 O615 1.208 . S
C610 O602 1.315 . S
C610 O605 1.279 . S
C611 O612 1.315 . S
C611 O613 1.279 . S
O612 Cd604 2.223 . S
O612 C611 1.315 . S
O613 Cd603 2.240 . S
O613 C611 1.279 . S
O614 Cd604 2.297 . S
O614 C609 1.247 . S
O615 Cd604 2.439 . S
O615 C609 1.208 . S
O616 Cd617 2.223 . S
O616 C624 1.315 . S
Cd617 O616 2.223 . S
Cd617 O620 2.297 . S
Cd617 O621 2.439 . S
Cd617 O627 2.240 . S
Cd618 O619 2.240 . S
Cd618 O626 2.223 . S
Cd618 O628 2.297 . S
Cd618 O629 2.439 . S
O619 Cd618 2.240 . S
O619 C624 1.279 . S
O620 Cd617 2.297 . S
O620 C622 1.247 . S
O621 Cd617 2.439 . S
O621 C622 1.208 . S
C622 O620 1.247 . S
C622 O621 1.208 . S
C623 O628 1.247 . S
C623 O629 1.208 . S
C624 O616 1.315 . S
C624 O619 1.279 . S
C625 O626 1.315 . S
C625 O627 1.279 . S
O626 Cd618 2.223 . S
O626 C625 1.315 . S
O627 Cd617 2.240 . S
O627 C625 1.279 . S
O628 Cd618 2.297 . S
O628 C623 1.247 . S
O629 Cd618 2.439 . S
O629 C623 1.208 . S
O630 Cd631 2.223 . S
O630 C638 1.315 . S
Cd631 O630 2.223 . S
Cd631 O634 2.297 . S
Cd631 O635 2.439 . S
Cd631 O641 2.240 . S
Cd632 O633 2.240 . S
Cd632 O640 2.223 . S
Cd632 O642 2.297 . S
Cd632 O643 2.439 . S
O633 Cd632 2.240 . S
O633 C638 1.279 . S
O634 Cd631 2.297 . S
O634 C636 1.247 . S
O635 Cd631 2.439 . S
O635 C636 1.208 . S
C636 O634 1.247 . S
C636 O635 1.208 . S
C637 O642 1.247 . S
C637 O643 1.208 . S
C638 O630 1.315 . S
C638 O633 1.279 . S
C639 O640 1.315 . S
C639 O641 1.279 . S
O640 Cd632 2.223 . S
O640 C639 1.315 . S
O641 Cd631 2.240 . S
O641 C639 1.279 . S
O642 Cd632 2.297 . S
O642 C637 1.247 . S
O643 Cd632 2.439 . S
O643 C637 1.208 . S
O644 Cd645 2.223 1_554 S
O644 C652 1.315 . S
Cd645 O644 2.223 1_556 S
Cd645 O648 2.297 . S
Cd645 O649 2.439 . S
Cd645 O655 2.240 1_556 S
Cd646 O647 2.237 1_554 S
Cd646 O654 2.233 . S
Cd646 O656 2.298 . S
Cd646 O657 2.430 1_554 S
O647 Cd646 2.237 1_556 S
O647 C652 1.279 1_566 S
O648 Cd645 2.297 . S
O648 C650 1.247 . S
O649 Cd645 2.439 . S
O649 C650 1.208 . S
C650 O648 1.247 . S
C650 O649 1.208 . S
C651 O656 1.247 1_556 S
C651 O657 1.208 . S
C652 O644 1.315 . S
C652 O647 1.279 1_544 S
C653 O654 1.315 1_545 S
C653 O655 1.279 . S
O654 Cd646 2.233 . S
O654 C653 1.315 1_565 S
O655 Cd645 2.240 1_554 S
O655 C653 1.279 . S
O656 Cd646 2.298 . S
O656 C651 1.247 1_554 S
O657 Cd646 2.430 1_556 S
O657 C651 1.208 . S
O658 Cd659 2.223 . S
O658 C666 1.315 . S
Cd659 O658 2.223 . S
Cd659 O662 2.297 . S
Cd659 O663 2.439 . S
Cd659 O669 2.240 . S
Cd660 O661 2.240 . S
Cd660 O668 2.223 . S
Cd660 O670 2.297 . S
Cd660 O671 2.439 . S
O661 Cd660 2.240 . S
O661 C666 1.279 1_545 S
O662 Cd659 2.297 . S
O662 C664 1.247 . S
O663 Cd659 2.439 . S
O663 C664 1.208 . S
C664 O662 1.247 . S
C664 O663 1.208 . S
C665 O670 1.247 . S
C665 O671 1.208 . S
C666 O658 1.315 . S
C666 O661 1.279 1_565 S
C667 O668 1.315 1_565 S
C667 O669 1.279 . S
O668 Cd660 2.223 . S
O668 C667 1.315 1_545 S
O669 Cd659 2.240 . S
O669 C667 1.279 . S
O670 Cd660 2.297 . S
O670 C665 1.247 . S
O671 Cd660 2.439 . S
O671 C665 1.208 . S
C92 C8 1.269 . S
C22 C106 1.410 1_545 S
C36 C64 1.305 1_556 S
C78 C50 1.341 1_545 S
C484 C120 1.269 . S
C498 C134 1.341 1_455 S
C148 C456 1.296 1_455 S
C162 C470 1.429 . S
C540 C176 1.281 . S
C554 C190 1.353 . S
C512 C204 1.305 1_655 S
C526 C218 1.410 1_455 S
C232 C582 1.269 . S
C246 C568 1.296 1_545 S
C260 C330 1.341 1_556 S
C638 C274 1.305 1_545 S
C652 C288 1.410 1_554 S
C610 C302 1.281 . S
C624 C316 1.353 . S
C428 C344 1.296 1_554 S
C442 C358 1.353 . S
C372 C400 1.281 . S
C386 C414 1.429 . S
C666 C596 1.429 . S
C233 C7 1.262 . S
C21 C667 1.258 . S
C35 C303 1.276 . S
C653 C49 1.190 . S
C63 C583 1.250 . S
C597 C77 1.203 . S
C91 C611 1.281 . S
C289 C105 1.236 . S
C119 C9 1.262 . S
C23 C133 1.190 . S
C147 C37 1.282 . S
C161 C51 1.337 . S
C175 C65 1.289 . S
C79 C189 1.329 . S
C203 C93 1.250 . S
C217 C107 1.236 . S
C231 C121 1.262 . S
C245 C513 1.282 . S
C527 C259 1.190 . S
C541 C273 1.276 . S
C287 C219 1.236 . S
C301 C149 1.296 . S
C499 C315 1.329 . S
C471 C329 1.203 . S
C343 C569 1.304 . S
C357 C331 1.329 . S
C371 C639 1.289 . S
C385 C317 1.356 . S
C399 C247 1.296 . S
C261 C413 1.337 . S
C275 C427 1.282 . S
C625 C441 1.343 . S
C345 C455 1.304 . S
C359 C469 1.356 . S
C483 C373 1.281 . S
C387 C497 1.203 . S
C511 C401 1.276 . S
C415 C525 1.258 . S
C539 C429 1.296 . S
C443 C553 1.343 . S
C567 C457 1.304 . S
C581 C177 1.281 . S
C191 C595 1.356 . S
C609 C205 1.289 . S
C623 C555 1.343 . S
C485 C637 1.250 . S
C651 C163 1.258 . S
C135 C665 1.337 . S
C132 C6 0.810 . S
C20 C146 0.746 . S
C160 C34 0.868 . S
C118 C48 0.810 . S
C62 C216 0.784 . S
C76 C174 0.838 . S
C188 C90 0.853 . S
C202 C104 0.784 . S
C230 C258 0.810 . S
C244 C650 0.746 . S
C272 C664 0.868 . S
C636 C286 0.784 . S
C622 C300 0.857 . S
C580 C314 0.853 . S
C328 C608 0.838 . S
C468 C342 0.813 . S
C482 C356 0.853 . S
C370 C496 0.838 . S
C454 C384 0.813 . S
C552 C398 0.857 . S
C510 C412 0.868 . S
C426 C524 0.746 . S
C538 C440 0.857 . S
C594 C566 0.813 . S
