# Generated by pormake.
# Topology wme, (6)-cn, num edge types: 1
# Building blocks:
#     Node 0, Type 0, BuildingBlock: JUFBIX_clean_sbu_0, # of connection points: 6
#     Node 1, Type 0, BuildingBlock: JUFBIX_clean_sbu_0, # of connection points: 6
#     Node 2, Type 0, BuildingBlock: JUFBIX_clean_sbu_0, # of connection points: 6
#     Node 3, Type 0, BuildingBlock: JUFBIX_clean_sbu_0, # of connection points: 6
#     Node 4, Type 0, BuildingBlock: JUFBIX_clean_sbu_0, # of connection points: 6
#     Node 5, Type 0, BuildingBlock: JUFBIX_clean_sbu_0, # of connection points: 6
#     Node 6, Type 0, BuildingBlock: JUFBIX_clean_sbu_0, # of connection points: 6
#     Node 7, Type 0, BuildingBlock: JUFBIX_clean_sbu_0, # of connection points: 6
#     Node 8, Type 0, BuildingBlock: JUFBIX_clean_sbu_0, # of connection points: 6
#     Node 9, Type 0, BuildingBlock: JUFBIX_clean_sbu_0, # of connection points: 6
#     Node 10, Type 0, BuildingBlock: JUFBIX_clean_sbu_0, # of connection points: 6
#     Node 11, Type 0, BuildingBlock: JUFBIX_clean_sbu_0, # of connection points: 6
#     Edge 12, Type (0, 0), BuildingBlock: EZIPEK_clean_linker_0, # of connection points: 2
#     Edge 13, Type (0, 0), BuildingBlock: EZIPEK_clean_linker_0, # of connection points: 2
#     Edge 14, Type (0, 0), BuildingBlock: EZIPEK_clean_linker_0, # of connection points: 2
#     Edge 15, Type (0, 0), BuildingBlock: EZIPEK_clean_linker_0, # of connection points: 2
#     Edge 16, Type (0, 0), BuildingBlock: EZIPEK_clean_linker_0, # of connection points: 2
#     Edge 17, Type (0, 0), BuildingBlock: EZIPEK_clean_linker_0, # of connection points: 2
#     Edge 18, Type (0, 0), BuildingBlock: EZIPEK_clean_linker_0, # of connection points: 2
#     Edge 19, Type (0, 0), BuildingBlock: EZIPEK_clean_linker_0, # of connection points: 2
#     Edge 20, Type (0, 0), BuildingBlock: EZIPEK_clean_linker_0, # of connection points: 2
#     Edge 21, Type (0, 0), BuildingBlock: EZIPEK_clean_linker_0, # of connection points: 2
#     Edge 22, Type (0, 0), BuildingBlock: EZIPEK_clean_linker_0, # of connection points: 2
#     Edge 23, Type (0, 0), BuildingBlock: EZIPEK_clean_linker_0, # of connection points: 2
#     Edge 24, Type (0, 0), BuildingBlock: EZIPEK_clean_linker_0, # of connection points: 2
#     Edge 25, Type (0, 0), BuildingBlock: EZIPEK_clean_linker_0, # of connection points: 2
#     Edge 26, Type (0, 0), BuildingBlock: EZIPEK_clean_linker_0, # of connection points: 2
#     Edge 27, Type (0, 0), BuildingBlock: EZIPEK_clean_linker_0, # of connection points: 2
#     Edge 28, Type (0, 0), BuildingBlock: EZIPEK_clean_linker_0, # of connection points: 2
#     Edge 29, Type (0, 0), BuildingBlock: EZIPEK_clean_linker_0, # of connection points: 2
#     Edge 30, Type (0, 0), BuildingBlock: EZIPEK_clean_linker_0, # of connection points: 2
#     Edge 31, Type (0, 0), BuildingBlock: EZIPEK_clean_linker_0, # of connection points: 2
#     Edge 32, Type (0, 0), BuildingBlock: EZIPEK_clean_linker_0, # of connection points: 2
#     Edge 33, Type (0, 0), BuildingBlock: EZIPEK_clean_linker_0, # of connection points: 2
#     Edge 34, Type (0, 0), BuildingBlock: EZIPEK_clean_linker_0, # of connection points: 2
#     Edge 35, Type (0, 0), BuildingBlock: EZIPEK_clean_linker_0, # of connection points: 2
#     Edge 36, Type (0, 0), BuildingBlock: EZIPEK_clean_linker_0, # of connection points: 2
#     Edge 37, Type (0, 0), BuildingBlock: EZIPEK_clean_linker_0, # of connection points: 2
#     Edge 38, Type (0, 0), BuildingBlock: EZIPEK_clean_linker_0, # of connection points: 2
#     Edge 39, Type (0, 0), BuildingBlock: EZIPEK_clean_linker_0, # of connection points: 2
#     Edge 40, Type (0, 0), BuildingBlock: EZIPEK_clean_linker_0, # of connection points: 2
#     Edge 41, Type (0, 0), BuildingBlock: EZIPEK_clean_linker_0, # of connection points: 2
#     Edge 42, Type (0, 0), BuildingBlock: EZIPEK_clean_linker_0, # of connection points: 2
#     Edge 43, Type (0, 0), BuildingBlock: EZIPEK_clean_linker_0, # of connection points: 2
#     Edge 44, Type (0, 0), BuildingBlock: EZIPEK_clean_linker_0, # of connection points: 2
#     Edge 45, Type (0, 0), BuildingBlock: EZIPEK_clean_linker_0, # of connection points: 2
#     Edge 46, Type (0, 0), BuildingBlock: EZIPEK_clean_linker_0, # of connection points: 2
#     Edge 47, Type (0, 0), BuildingBlock: EZIPEK_clean_linker_0, # of connection points: 2
# Relax obj value: 0.325
# Max RMSD: 0.238
# Mean RMSD: 0.238
data_MOF--net-wme--node1-JUFBIX_clean_sbu_0--edge1-EZIPEK_clean_linker_0
_symmetry_space_group_name_H-M    P1
_symmetry_Int_Tables_number       1
_symmetry_cell_setting            triclinic
loop_
_symmetry_equiv_pos_as_xyz
'x, y, z'
_cell_length_a     25.309052
_cell_length_b     25.397274
_cell_length_c     39.864301
_cell_angle_alpha  90.328733
_cell_angle_beta   89.627438
_cell_angle_gamma 120.28606
loop_
_atom_site_label
_atom_site_type_symbol
_atom_site_fract_x
_atom_site_fract_y
_atom_site_fract_z
_atom_type_partial_charge
Co0 Co 0.21252 0.3812 0.12882 0.0
C1 C 0.23983 0.32131 0.07852 0.0
Co2 Co 0.23917 0.31744 0.14873 0.0
C3 C 0.15418 0.45444 0.12556 0.0
C4 C 0.23092 0.48543 0.09228 0.0
N5 N 0.19584 0.44032 0.11389 0.0
N6 N 0.16339 0.50767 0.11291 0.0
C7 C 0.21134 0.52694 0.09178 0.0
H8 H 0.11981 0.42809 0.14421 0.0
H9 H 0.27025 0.48952 0.07904 0.0
C10 C 0.21247 0.37311 0.1998 0.0
N11 N 0.25546 0.2584 0.16324 0.0
C12 C 0.22775 0.20104 0.15112 0.0
C13 C 0.29367 0.26 0.1872 0.0
N14 N 0.24668 0.16668 0.16647 0.0
C15 C 0.28827 0.20317 0.18928 0.0
C16 C 0.3388 0.43213 0.13967 0.0
O17 O 0.20055 0.39824 0.17559 0.0
O18 O 0.23227 0.33726 0.19324 0.0
O19 O 0.32564 0.37859 0.14834 0.0
O20 O 0.2962 0.44161 0.13124 0.0
O21 O 0.2464 0.2964 0.1043 0.0
H22 H 0.32284 0.29954 0.20237 0.0
H23 H 0.19404 0.18445 0.13136 0.0
O24 O 0.22466 0.36193 0.08255 0.0
O25 O 0.12883 0.32155 0.1263 0.0
O26 O 0.15204 0.25787 0.14928 0.0
C27 C 0.1115 0.26932 0.13856 0.0
H28 H 0.23173 0.56907 0.07768 0.0
H29 H 0.31206 0.18939 0.20641 0.0
Co30 Co 0.86252 0.16577 0.63688 0.0
C31 C 0.8475 0.22026 0.69621 0.0
Co32 Co 0.89775 0.26487 0.63625 0.0
C33 C 0.8458 0.043 0.64379 0.0
C34 C 0.76631 0.04897 0.65516 0.0
N35 N 0.82497 0.0825 0.64434 0.0
N36 N 0.80197 0.98662 0.65351 0.0
C37 C 0.752 0.99015 0.66048 0.0
H38 H 0.8915 0.0548 0.63594 0.0
H39 H 0.73538 0.06603 0.65914 0.0
C40 C 0.91966 0.21213 0.57816 0.0
N41 N 0.92915 0.3479 0.62936 0.0
C42 C 0.89755 0.37685 0.63546 0.0
C43 C 0.96865 0.38035 0.60457 0.0
N44 N 0.91169 0.42237 0.61344 0.0
C45 C 0.95666 0.42457 0.59409 0.0
C46 C 0.98183 0.23266 0.65678 0.0
O47 O 0.88862 0.16011 0.59213 0.0
O48 O 0.92348 0.2586 0.59242 0.0
O49 O 0.97373 0.27778 0.65256 0.0
O50 O 0.93739 0.17879 0.65239 0.0
O51 O 0.87291 0.27035 0.6804 0.0
H52 H 0.99863 0.36792 0.59179 0.0
H53 H 0.8595 0.36001 0.65283 0.0
O54 O 0.83967 0.1725 0.68143 0.0
O55 O 0.78709 0.15319 0.6209 0.0
O56 O 0.82107 0.25079 0.62005 0.0
C57 C 0.77735 0.19672 0.61653 0.0
H58 H 0.70807 0.95244 0.6682 0.0
H59 H 0.97631 0.45304 0.57217 0.0
Co60 Co 0.6612 0.84281 0.1174 0.0
C61 C 0.71629 0.92872 0.0657 0.0
Co62 Co 0.7114 0.93842 0.13452 0.0
C63 C 0.56345 0.71502 0.11708 0.0
C64 C 0.63971 0.73148 0.08617 0.0
N65 N 0.6171 0.76045 0.10459 0.0
N66 N 0.55272 0.65899 0.10786 0.0
C67 C 0.60095 0.6695 0.08855 0.0
H68 H 0.53449 0.72265 0.13413 0.0
H69 H 0.6835 0.75382 0.07342 0.0
C70 C 0.66101 0.8598 0.18706 0.0
N71 N 0.76032 0.01936 0.14806 0.0
C72 C 0.81784 0.05519 0.13626 0.0
C73 C 0.75685 0.04895 0.17545 0.0
N74 N 0.85133 0.10431 0.1558 0.0
C75 C 0.81309 0.10089 0.1805 0.0
C76 C 0.59011 0.89782 0.12023 0.0
O77 O 0.64521 0.81893 0.16436 0.0
O78 O 0.68649 0.9148 0.17821 0.0
O79 O 0.64013 0.94635 0.12789 0.0
O80 O 0.59007 0.84828 0.11554 0.0
O81 O 0.73567 0.96307 0.09102 0.0
H82 H 0.71805 0.03123 0.19236 0.0
H83 H 0.83701 0.04248 0.11553 0.0
O84 O 0.68045 0.87121 0.07002 0.0
O85 O 0.73106 0.83635 0.12009 0.0
O86 O 0.78141 0.92756 0.14147 0.0
C87 C 0.77904 0.87779 0.13375 0.0
H88 H 0.6082 0.63458 0.07751 0.0
H89 H 0.82597 0.13168 0.20172 0.0
Co90 Co 0.84936 0.6943 0.62237 0.0
C91 C 0.82208 0.65043 0.68846 0.0
Co92 Co 0.75107 0.63494 0.63309 0.0
C93 C 0.97386 0.79853 0.62125 0.0
C94 C 0.97004 0.71284 0.61597 0.0
N95 N 0.93415 0.73842 0.61633 0.0
N96 N 0.03177 0.81008 0.62426 0.0
C97 C 0.02969 0.75667 0.62054 0.0
H98 H 0.96063 0.83259 0.62484 0.0
H99 H 0.95434 0.66474 0.61566 0.0
C100 C 0.77657 0.68495 0.56834 0.0
N101 N 0.66757 0.58567 0.64044 0.0
C102 C 0.63902 0.52639 0.64945 0.0
C103 C 0.62277 0.59463 0.62949 0.0
N104 N 0.57759 0.49658 0.64438 0.0
C105 C 0.56827 0.54039 0.63112 0.0
C106 C 0.79898 0.76025 0.6443 0.0
O107 O 0.83262 0.70981 0.57728 0.0
O108 O 0.73506 0.64712 0.58791 0.0
O109 O 0.74962 0.70834 0.64552 0.0
O110 O 0.84896 0.76322 0.63675 0.0
O111 O 0.7668 0.62474 0.6788 0.0
H112 H 0.63009 0.63593 0.61754 0.0
H113 H 0.6645 0.50443 0.65601 0.0
O114 O 0.86455 0.67983 0.66728 0.0
O115 O 0.84943 0.6259 0.60747 0.0
O116 O 0.75502 0.56289 0.61973 0.0
C117 C 0.80555 0.57192 0.60793 0.0
H118 H 0.06837 0.74971 0.62272 0.0
H119 H 0.52713 0.5339 0.61944 0.0
Co120 Co 0.17681 0.81816 0.12778 0.0
C121 C 0.08411 0.78467 0.07983 0.0
Co122 Co 0.08556 0.78609 0.14999 0.0
C123 C 0.30176 0.8411 0.12186 0.0
C124 C 0.27751 0.8825 0.08281 0.0
N125 N 0.25441 0.8457 0.10979 0.0
N126 N 0.35324 0.87398 0.10353 0.0
C127 C 0.33817 0.89987 0.0789 0.0
H128 H 0.29909 0.81546 0.14405 0.0
H129 H 0.25235 0.89743 0.06758 0.0
C130 C 0.17381 0.81717 0.19855 0.0
N131 N 1.00885 0.7648 0.16633 0.0
C132 C 0.97922 0.79197 0.15391 0.0
C133 C 0.9725 0.72894 0.19134 0.0
N134 N 0.92661 0.77551 0.1699 0.0
C135 C 0.92128 0.73545 0.19359 0.0
C136 C 0.10908 0.69256 0.13679 0.0
O137 O 0.20916 0.83022 0.1731 0.0
O138 O 0.1167 0.79456 0.19404 0.0
O139 O 0.06728 0.70226 0.14807 0.0
O140 O 0.16034 0.73724 0.12769 0.0
O141 O 0.05363 0.77742 0.10632 0.0
H142 H 0.98321 0.70136 0.20735 0.0
H143 H 0.99656 0.82486 0.13369 0.0
O144 O 0.14134 0.80406 0.08257 0.0
O145 O 0.19418 0.89979 0.1282 0.0
O146 O 0.10558 0.86945 0.15174 0.0
C147 C 0.15657 0.91257 0.1416 0.0
H148 H 0.36915 0.92971 0.05973 0.0
H149 H 0.88411 0.71384 0.21151 0.0
Co150 Co 0.31102 0.14879 0.63569 0.0
C151 C 0.36742 0.15726 0.69931 0.0
Co152 Co 0.37717 0.1172 0.63796 0.0
C153 C 0.20542 0.17117 0.63696 0.0
C154 C 0.29145 0.24336 0.6546 0.0
N155 N 0.26486 0.18714 0.64031 0.0
N156 N 0.19547 0.21562 0.64873 0.0
C157 C 0.24933 0.2607 0.65971 0.0
H158 H 0.17011 0.12758 0.62739 0.0
H159 H 0.33862 0.26976 0.66246 0.0
C160 C 0.31622 0.10031 0.57479 0.0
N161 N 0.42994 0.08664 0.63483 0.0
C162 C 0.49115 0.12099 0.6374 0.0
C163 C 0.41985 0.03177 0.62405 0.0
N164 N 0.51982 0.09124 0.62747 0.0
C165 C 0.47531 0.0344 0.61963 0.0
C166 C 0.25509 0.02881 0.65009 0.0
O167 O 0.2891 0.12553 0.58907 0.0
O168 O 0.35765 0.09792 0.59156 0.0
O169 O 0.30953 0.03816 0.64851 0.0
O170 O 0.24564 0.07323 0.64779 0.0
O171 O 0.39527 0.13395 0.68448 0.0
H172 H 0.37559 0.99324 0.61812 0.0
H173 H 0.51504 0.16779 0.64568 0.0
O174 O 0.33172 0.16821 0.68241 0.0
O175 O 0.376 0.22464 0.62248 0.0
O176 O 0.44449 0.19867 0.62732 0.0
C177 C 0.43157 0.23981 0.62132 0.0
H178 H 0.25707 0.30274 0.67122 0.0
H179 H 0.48255 0.99866 0.60986 0.0
Co180 Co 0.7114 0.82229 0.38893 0.0
C181 C 0.65753 0.79375 0.32666 0.0
Co182 Co 0.64015 0.72623 0.38407 0.0
C183 C 0.78682 0.95477 0.37954 0.0
C184 C 0.83572 0.91243 0.39808 0.0
N185 N 0.77912 0.90053 0.38981 0.0
N186 N 0.84624 0.99933 0.38069 0.0
C187 C 0.87677 0.97278 0.39254 0.0
H188 H 0.7498 0.96163 0.37183 0.0
H189 H 0.84659 0.87912 0.40745 0.0
C190 C 0.69862 0.75284 0.44599 0.0
N191 N 0.57224 0.64842 0.38215 0.0
C192 C 0.52282 0.62803 0.40242 0.0
C193 C 0.55593 0.60457 0.35859 0.0
N194 N 0.47612 0.57413 0.3922 0.0
C195 C 0.49646 0.55866 0.3647 0.0
C196 C 0.74987 0.74043 0.36422 0.0
O197 O 0.72979 0.80619 0.43357 0.0
O198 O 0.65335 0.71219 0.42955 0.0
O199 O 0.69504 0.69755 0.36931 0.0
O200 O 0.76306 0.79469 0.3706 0.0
O201 O 0.6285 0.73973 0.33808 0.0
H202 H 0.58399 0.60752 0.3373 0.0
H203 H 0.51963 0.65374 0.4233 0.0
O204 O 0.69344 0.83667 0.34592 0.0
O205 O 0.6593 0.85046 0.40559 0.0
O206 O 0.58641 0.75705 0.39836 0.0
C207 C 0.60219 0.81203 0.40531 0.0
H208 H 0.92524 0.99624 0.39806 0.0
H209 H 0.46917 0.51898 0.34919 0.0
Co210 Co 0.89882 0.72514 0.89386 0.0
C211 C 0.88194 0.67009 0.83056 0.0
Co212 Co 0.92142 0.65112 0.89125 0.0
C213 C 0.84046 0.79815 0.87924 0.0
C214 C 0.92167 0.84514 0.90884 0.0
N215 N 0.88466 0.79093 0.8939 0.0
N216 N 0.84912 0.85466 0.8847 0.0
C217 C 0.89998 0.88409 0.9033 0.0
H218 H 0.80313 0.7631 0.86475 0.0
H219 H 0.96249 0.85624 0.92265 0.0
C220 C 0.94503 0.71091 0.95401 0.0
N221 N 0.93705 0.58666 0.89233 0.0
C222 C 0.8998 0.52621 0.8867 0.0
C223 C 0.98797 0.59116 0.90524 0.0
N224 N 0.92634 0.49248 0.89436 0.0
C225 C 0.98116 0.5344 0.90728 0.0
C226 C 0.021 0.76268 0.87737 0.0
O227 O 0.9221 0.7401 0.94044 0.0
O228 O 0.9445 0.6674 0.93772 0.0
O229 O 1.00474 0.70668 0.87958 0.0
O230 O 0.9816 0.77908 0.88179 0.0
O231 O 0.90055 0.63749 0.84468 0.0
H232 H 0.02581 0.63243 0.91528 0.0
H233 H 0.85245 0.50765 0.87997 0.0
O234 O 0.87757 0.71024 0.84771 0.0
O235 O 0.81566 0.66983 0.90544 0.0
O236 O 0.83698 0.59604 0.90238 0.0
C237 C 0.79786 0.61315 0.9061 0.0
H238 H 0.92002 0.93067 0.91213 0.0
H239 H 0.01288 0.52547 0.92049 0.0
Co240 Co 0.16526 0.87079 0.40369 0.0
C241 C 0.21492 0.8611 0.34058 0.0
Co242 Co 0.2635 0.89505 0.40316 0.0
C243 C 0.03749 0.81207 0.37952 0.0
C244 C 0.05325 0.86836 0.42269 0.0
N245 N 0.08213 0.84976 0.40116 0.0
N246 N 0.98278 0.8068 0.38706 0.0
C247 C 0.99268 0.84222 0.41411 0.0
H248 H 0.04465 0.78909 0.3586 0.0
H249 H 0.07419 0.89857 0.44373 0.0
C250 C 0.22145 0.91843 0.46484 0.0
N251 N 0.34606 0.91347 0.40807 0.0
C252 C 0.37465 0.88318 0.39721 0.0
C253 C 0.38501 0.95344 0.43089 0.0
N254 N 0.42869 0.90143 0.41325 0.0
C255 C 0.43435 0.94531 0.4346 0.0
C256 C 0.24539 0.99232 0.39116 0.0
O257 O 0.16906 0.89383 0.45092 0.0
O258 O 0.26339 0.91399 0.44972 0.0
O259 O 0.28785 0.97916 0.3939 0.0
O260 O 0.18978 0.9505 0.39294 0.0
O261 O 0.26431 0.87973 0.35682 0.0
H262 H 0.37649 0.98424 0.44567 0.0
H263 H 0.35459 0.84614 0.37923 0.0
O264 O 0.16662 0.8526 0.35597 0.0
O265 O 0.13978 0.78947 0.41475 0.0
O266 O 0.23448 0.80894 0.41143 0.0
C267 C 0.17728 0.77023 0.41416 0.0
H268 H 0.95833 0.84872 0.4267 0.0
H269 H 0.47094 0.9688 0.45257 0.0
Co270 Co 0.30835 0.17402 0.90628 0.0
C271 C 0.36432 0.20441 0.84224 0.0
Co272 Co 0.38485 0.26799 0.90143 0.0
C273 C 0.24251 0.04496 0.89393 0.0
C274 C 0.19276 0.07292 0.92607 0.0
N275 N 0.24606 0.09423 0.90918 0.0
N276 N 0.18892 0.99415 0.90051 0.0
C277 C 0.15748 0.01115 0.92078 0.0
H278 H 0.27788 0.04633 0.87792 0.0
H279 H 0.17994 0.10072 0.94075 0.0
C280 C 0.3273 0.24204 0.96473 0.0
N281 N 0.44829 0.34927 0.90026 0.0
C282 C 0.50962 0.37274 0.89816 0.0
C283 C 0.44166 0.39789 0.90684 0.0
N284 N 0.54079 0.43366 0.90337 0.0
C285 C 0.4983 0.4497 0.90859 0.0
C286 C 0.2688 0.24979 0.88631 0.0
O287 O 0.29404 0.18897 0.95228 0.0
O288 O 0.37032 0.28101 0.94654 0.0
O289 O 0.32526 0.291 0.88751 0.0
O290 O 0.25291 0.19534 0.89284 0.0
O291 O 0.39903 0.25595 0.85588 0.0
H292 H 0.39848 0.39569 0.91154 0.0
H293 H 0.53118 0.34574 0.89389 0.0
O294 O 0.3225 0.1619 0.8599 0.0
O295 O 0.36309 0.15019 0.91994 0.0
O296 O 0.44152 0.24145 0.91525 0.0
C297 C 0.42015 0.18525 0.92217 0.0
H298 H 0.11191 0.98108 0.9305 0.0
H299 H 0.5078 0.49549 0.91398 0.0
Co300 Co 0.1503 0.31253 0.40668 0.0
C301 C 0.16415 0.36671 0.34268 0.0
Co302 Co 0.10757 0.36938 0.40072 0.0
C303 C 0.18089 0.21298 0.40928 0.0
C304 C 0.25674 0.30302 0.40216 0.0
N305 N 0.19553 0.27216 0.40802 0.0
N306 N 0.23089 0.20714 0.4048 0.0
C307 C 0.27833 0.26357 0.40049 0.0
H308 H 0.13461 0.17499 0.41169 0.0
H309 H 0.28429 0.35133 0.39724 0.0
C310 C 0.08513 0.3095 0.46353 0.0
N311 N 0.07231 0.41893 0.39898 0.0
C312 C 0.10444 0.4793 0.39195 0.0
C313 C 0.02068 0.41078 0.41394 0.0
N314 N 0.07685 0.50925 0.40368 0.0
C315 C 0.02352 0.46633 0.41702 0.0
C316 C 0.03118 0.24436 0.3849 0.0
O317 O 0.11743 0.28787 0.4515 0.0
O318 O 0.08199 0.35054 0.44688 0.0
O319 O 0.03235 0.2954 0.38728 0.0
O320 O 0.07986 0.24263 0.39017 0.0
O321 O 0.13091 0.38632 0.35493 0.0
H322 H 0.98559 0.36856 0.42457 0.0
H323 H 0.1495 0.50186 0.38071 0.0
O324 O 0.18007 0.33663 0.36136 0.0
O325 O 0.2195 0.38144 0.42395 0.0
O326 O 0.18365 0.44083 0.41373 0.0
C327 C 0.22762 0.43455 0.42351 0.0
H328 H 0.3248 0.27491 0.39481 0.0
H329 H 0.99099 0.47511 0.42995 0.0
Co330 Co 0.84929 0.149 0.89352 0.0
C331 C 0.79502 0.16506 0.83501 0.0
Co332 Co 0.74979 0.11522 0.89479 0.0
C333 C 0.98093 0.17866 0.89193 0.0
C334 C 0.96308 0.24774 0.87475 0.0
N335 N 0.93476 0.19029 0.8873 0.0
N336 N 0.03575 0.22699 0.88284 0.0
C337 C 0.02447 0.27018 0.87216 0.0
H338 H 0.97471 0.13616 0.90161 0.0
H339 H 0.94046 0.27247 0.86772 0.0
C340 C 0.80044 0.09144 0.9521 0.0
N341 N 0.66614 0.08374 0.90093 0.0
C342 C 0.63601 0.11447 0.8961 0.0
C343 C 0.62741 0.03476 0.9194 0.0
N344 N 0.58123 0.08783 0.91179 0.0
C345 C 0.57532 0.03733 0.92623 0.0
C346 C 0.78383 0.02995 0.8732 0.0
O347 O 0.85265 0.12044 0.93766 0.0
O348 O 0.7546 0.09067 0.93875 0.0
O349 O 0.7382 0.03754 0.87891 0.0
O350 O 0.83807 0.07515 0.87611 0.0
O351 O 0.74467 0.13813 0.85077 0.0
H352 H 0.63848 1.00236 0.92987 0.0
H353 H 0.65579 0.15812 0.88363 0.0
O354 O 0.84352 0.17415 0.84934 0.0
O355 O 0.85984 0.22241 0.91131 0.0
O356 O 0.76365 0.19358 0.9102 0.0
C357 C 0.81829 0.23555 0.91533 0.0
H358 H 0.05848 0.31467 0.86293 0.0
H359 H 0.53771 1.00668 0.94229 0.0
C360 C 0.16644 0.99726 0.17971 0.0
C361 C 0.17449 0.97735 0.1475 0.0
C362 C 0.23488 0.08378 0.12925 0.0
C363 C 0.22346 0.10293 0.16045 0.0
N364 N 0.16601 0.07832 0.21188 0.0
N365 N 0.20242 1.00138 0.0892 0.0
C366 C 0.18545 0.05973 0.18464 0.0
C367 C 0.20478 0.02061 0.12152 0.0
N368 N 0.14397 0.95787 0.20621 0.0
N369 N 0.27564 0.12616 0.10733 0.0
H370 H 0.17773 0.95554 0.08235 0.0
H371 H 0.21894 0.03088 0.06879 0.0
H372 H 0.29879 0.1728 0.11259 0.0
H373 H 0.29049 0.11485 0.08547 0.0
H374 H 0.14399 0.97211 0.23077 0.0
H375 H 0.13125 0.9121 0.20482 0.0
H376 H 0.13273 0.04815 0.22854 0.0
H377 H 0.17878 0.12381 0.21598 0.0
C378 C 0.09866 0.18793 0.67742 0.0
C379 C 0.14019 0.21793 0.65078 0.0
C380 C 0.09151 0.27815 0.63926 0.0
C381 C 0.04341 0.24049 0.66173 0.0
N382 N 1.00399 0.16495 0.70546 0.0
N383 N 0.17641 0.28907 0.6053 0.0
C384 C 0.04818 0.19717 0.68197 0.0
C385 C 0.13641 0.26228 0.63137 0.0
N386 N 0.1093 0.15283 0.69908 0.0
N387 N 0.09543 0.32964 0.62615 0.0
H388 H 0.2086 0.27669 0.59855 0.0
H389 H 0.17475 0.31957 0.58864 0.0
H390 H 0.06797 0.34698 0.63396 0.0
H391 H 0.13133 0.36045 0.61105 0.0
H392 H 0.08462 0.13443 0.7211 0.0
H393 H 0.14565 0.1449 0.69599 0.0
H394 H 0.99978 0.12733 0.71815 0.0
H395 H 0.97046 0.17575 0.71182 0.0
C396 C 0.95704 0.12204 0.15048 0.0
C397 C 0.91675 0.14544 0.15344 0.0
C398 C 1.0055 0.24847 0.15424 0.0
C399 C 0.04455 0.22574 0.14426 0.0
N400 N 0.05232 0.13815 0.12726 0.0
N401 N 0.90312 0.23262 0.15156 0.0
C402 C 0.01897 0.16164 0.14086 0.0
C403 C 0.9411 0.20921 0.15335 0.0
N404 N 0.93698 0.06261 0.15825 0.0
N405 N 0.02935 0.30604 0.16694 0.0
H406 H 0.85576 0.20519 0.14954 0.0
H407 H 0.91936 0.27908 0.14851 0.0
H408 H 0.07563 0.33371 0.17234 0.0
H409 H 1.00215 0.32258 0.17668 0.0
H410 H 0.96592 0.04456 0.15909 0.0
H411 H 0.89338 0.03376 0.16793 0.0
H412 H 0.03352 0.09195 0.12173 0.0
H413 H 0.09641 0.16531 0.11799 0.0
C414 C 0.81558 0.85742 0.6187 0.0
C415 C 0.79873 0.81819 0.64713 0.0
C416 C 0.79403 0.89626 0.68117 0.0
C417 C 0.80343 0.93108 0.65178 0.0
N418 N 0.80576 0.93655 0.59155 0.0
N419 N 0.76682 0.79797 0.70509 0.0
C420 C 0.8094 0.90942 0.62027 0.0
C421 C 0.78594 0.83671 0.67831 0.0
N422 N 0.83851 0.84629 0.59016 0.0
N423 N 0.79491 0.92122 0.71174 0.0
H424 H 0.76266 0.75497 0.70417 0.0
H425 H 0.75135 0.80676 0.72751 0.0
H426 H 0.8021 0.9653 0.71428 0.0
H427 H 0.79391 0.90073 0.73446 0.0
H428 H 0.85803 0.87784 0.57077 0.0
H429 H 0.84259 0.80814 0.58659 0.0
H430 H 0.80295 0.91812 0.56775 0.0
H431 H 0.79854 0.97351 0.59158 0.0
C432 C 0.88818 0.84515 0.18392 0.0
C433 C 0.8881 0.80047 0.16254 0.0
C434 C 0.83778 0.82661 0.11899 0.0
C435 C 0.82793 0.86347 0.14216 0.0
N436 N 0.84365 0.90692 0.19809 0.0
N437 N 0.85723 0.74325 0.11118 0.0
C438 C 0.85357 0.87306 0.17497 0.0
C439 C 0.86111 0.78967 0.13047 0.0
N440 N 0.92359 0.86282 0.21209 0.0
N441 N 0.82654 0.82861 0.08569 0.0
H442 H 0.87329 0.7149 0.11936 0.0
H443 H 0.83312 0.72937 0.08871 0.0
H444 H 0.81304 0.85831 0.07641 0.0
H445 H 0.83738 0.80655 0.06712 0.0
H446 H 0.93158 0.90022 0.22673 0.0
H447 H 0.94918 0.84308 0.21937 0.0
H448 H 0.8536 0.90781 0.22345 0.0
H449 H 0.82403 0.93297 0.19237 0.0
C450 C 0.0971 0.89177 0.6642 0.0
C451 C 0.0862 0.8665 0.63147 0.0
C452 C 0.19217 0.93555 0.61592 0.0
C453 C 0.20165 0.9668 0.64698 0.0
N454 N 0.1625 0.97721 0.70037 0.0
N455 N 0.11836 0.87098 0.5744 0.0
C456 C 0.15375 0.94566 0.67109 0.0
C457 C 0.1324 0.89048 0.60687 0.0
N458 N 0.05436 0.86294 0.68882 0.0
N459 N 0.23991 0.94763 0.5951 0.0
H460 H 0.07418 0.8384 0.56702 0.0
H461 H 0.14871 0.89149 0.55446 0.0
H462 H 0.28486 0.98042 0.59998 0.0
H463 H 0.23551 0.92006 0.57463 0.0
H464 H 0.06192 0.87564 0.71399 0.0
H465 H 0.01264 0.82332 0.68438 0.0
H466 H 0.12738 0.9682 0.71726 0.0
H467 H 0.20488 0.01428 0.70707 0.0
C468 C 0.9108 0.8005 0.3435 0.0
C469 C 0.92479 0.77288 0.37009 0.0
C470 C 0.81617 0.69403 0.37404 0.0
C471 C 0.80183 0.731 0.35438 0.0
N472 N 0.83233 0.79469 0.3061 0.0
N473 N 0.893 0.68873 0.40782 0.0
C474 C 0.84856 0.77634 0.33427 0.0
C475 C 0.87816 0.71715 0.3839 0.0
N476 N 0.95643 0.85209 0.32897 0.0
N477 N 0.77132 0.63621 0.38143 0.0
H478 H 0.93835 0.70444 0.4146 0.0
H479 H 0.86054 0.65139 0.42147 0.0
H480 H 0.72673 0.61881 0.37269 0.0
H481 H 0.77959 0.60456 0.39318 0.0
H482 H 0.9486 0.87824 0.31188 0.0
H483 H 1.00234 0.86984 0.33516 0.0
H484 H 0.86356 0.82521 0.28877 0.0
H485 H 0.78652 0.7733 0.29875 0.0
C486 C 0.10065 0.854 0.84874 0.0
C487 C 0.08597 0.81099 0.87447 0.0
C488 C 0.166 0.88944 0.90958 0.0
C489 C 0.16709 0.93374 0.8879 0.0
N490 N 0.14224 0.96062 0.83498 0.0
N491 N 0.1148 0.78261 0.92562 0.0
C492 C 0.13784 0.91681 0.85636 0.0
C493 C 0.12342 0.82683 0.90333 0.0
N494 N 0.07776 0.83389 0.81746 0.0
N495 N 0.20415 0.90821 0.9366 0.0
H496 H 0.08548 0.73659 0.92059 0.0
H497 H 0.13614 0.79097 0.94883 0.0
H498 H 0.23487 0.95432 0.94121 0.0
H499 H 0.20832 0.87893 0.95307 0.0
H500 H 0.08884 0.86229 0.79669 0.0
H501 H 0.05239 0.78724 0.81216 0.0
H502 H 0.11679 0.951 0.81306 0.0
H503 H 0.16987 1.00705 0.84005 0.0
C504 C 0.21914 0.12186 0.36959 0.0
C505 C 0.23504 0.15312 0.40064 0.0
C506 C 0.2811 0.0932 0.41884 0.0
C507 C 0.25683 0.05558 0.38996 0.0
N508 N 0.2004 0.03235 0.33812 0.0
N509 N 0.27636 0.16694 0.456 0.0
C510 C 0.22567 0.06988 0.36524 0.0
C511 C 0.26508 0.13849 0.42552 0.0
N512 N 0.1995 0.14313 0.34395 0.0
N513 N 0.31872 0.08532 0.44008 0.0
H514 H 0.26422 0.19972 0.46145 0.0
H515 H 0.29269 0.1547 0.47667 0.0
H516 H 0.33182 0.05301 0.43611 0.0
H517 H 0.34161 0.11439 0.46006 0.0
H518 H 0.19353 0.12658 0.31948 0.0
H519 H 0.19359 0.18072 0.34657 0.0
H520 H 0.17054 0.03558 0.32154 0.0
H521 H 0.20691 0.9957 0.33316 0.0
C522 C 0.18 0.23379 0.85277 0.0
C523 C 0.21854 0.26215 0.88078 0.0
C524 C 0.13447 0.26363 0.91083 0.0
C525 C 0.09573 0.23408 0.88316 0.0
N526 N 0.08209 0.20019 0.8259 0.0
N527 N 0.23757 0.31443 0.93369 0.0
C528 C 0.11884 0.22208 0.85347 0.0
C529 C 0.19739 0.28092 0.90886 0.0
N530 N 0.20158 0.21574 0.82621 0.0
N531 N 0.11015 0.27379 0.93914 0.0
H532 H 0.28393 0.32826 0.93237 0.0
H533 H 0.22668 0.3326 0.95425 0.0
H534 H 0.06419 0.26158 0.94087 0.0
H535 H 0.13383 0.29079 0.9615 0.0
H536 H 0.17443 0.18841 0.80663 0.0
H537 H 0.24724 0.22692 0.8244 0.0
H538 H 0.09733 0.19611 0.80225 0.0
H539 H 0.03627 0.18871 0.82637 0.0
C540 C 0.94618 0.15938 0.35069 0.0
C541 C 0.97216 0.18513 0.38235 0.0
C542 C 0.8884 0.09565 0.40973 0.0
C543 C 0.87239 0.06437 0.37908 0.0
N544 N 0.88407 0.06509 0.3194 0.0
N545 N 0.97553 0.16501 0.44145 0.0
C546 C 0.89994 0.09622 0.34903 0.0
C547 C 0.94467 0.15054 0.41193 0.0
N548 N 0.9667 0.19437 0.32251 0.0
N549 N 0.85312 0.06928 0.43744 0.0
H550 H 0.02134 0.1975 0.44275 0.0
H551 H 0.95877 0.1385 0.46303 0.0
H552 H 0.81246 0.02735 0.43615 0.0
H553 H 0.86122 0.09208 0.46036 0.0
H554 H 0.94703 0.17908 0.29899 0.0
H555 H 1.00027 0.24043 0.3234 0.0
H556 H 0.90662 0.08362 0.29682 0.0
H557 H 0.84938 0.01943 0.31809 0.0
C558 C 0.83269 0.91952 0.84547 0.0
C559 C 0.81325 0.88106 0.87391 0.0
C560 C 0.74751 0.92169 0.89135 0.0
C561 C 0.77666 0.96852 0.86695 0.0
N562 N 0.83101 1.00156 0.81476 0.0
N563 N 0.74994 0.84091 0.92269 0.0
C564 C 0.81378 0.96347 0.84179 0.0
C565 C 0.76854 0.87965 0.89594 0.0
N566 N 0.87215 0.91587 0.82335 0.0
N567 N 0.70048 0.91776 0.91025 0.0
H568 H 0.76353 0.80868 0.92574 0.0
H569 H 0.72367 0.84224 0.94251 0.0
H570 H 0.682 0.9456 0.9064 0.0
H571 H 0.67516 0.8829 0.92723 0.0
H572 H 0.89198 0.94448 0.80287 0.0
H573 H 0.88511 0.88302 0.82573 0.0
H574 H 0.85719 1.00078 0.79477 0.0
H575 H 0.81545 0.03228 0.81154 0.0
C576 C 0.10353 0.59796 0.15889 0.0
C577 C 0.09913 0.63028 0.13135 0.0
C578 C 0.11055 0.56046 0.09341 0.0
C579 C 0.13164 0.5403 0.12043 0.0
N580 N 0.15328 0.54489 0.17981 0.0
N581 N 0.09919 0.64244 0.07129 0.0
C582 C 0.12831 0.55918 0.15366 0.0
C583 C 0.10177 0.61088 0.09821 0.0
N584 N 0.08507 0.60507 0.18991 0.0
N585 N 0.09965 0.53157 0.06313 0.0
H586 H 0.09223 0.67927 0.07382 0.0
H587 H 0.10785 0.63447 0.04675 0.0
H588 H 0.1045 0.49346 0.05953 0.0
H589 H 0.07974 0.54118 0.04305 0.0
H590 H 0.08355 0.57944 0.21061 0.0
H591 H 0.06469 0.63155 0.19371 0.0
H592 H 0.15702 0.56279 0.20384 0.0
H593 H 0.17566 0.52022 0.17699 0.0
C594 C 0.68661 0.19059 0.64461 0.0
C595 C 0.71319 0.18247 0.61504 0.0
C596 C 0.61081 0.12084 0.59117 0.0
C597 C 0.58498 0.11907 0.62318 0.0
N598 N 0.59967 0.14303 0.68205 0.0
N599 N 0.70072 0.1373 0.56025 0.0
C600 C 0.62336 0.15162 0.65036 0.0
C601 C 0.67525 0.14671 0.58827 0.0
N602 N 0.72134 0.23475 0.66744 0.0
N603 N 0.5745 0.10092 0.56341 0.0
H604 H 0.74797 0.15879 0.55662 0.0
H605 H 0.67496 0.10608 0.54158 0.0
H606 H 0.52771 0.08518 0.56429 0.0
H607 H 0.59183 0.1061 0.53912 0.0
H608 H 0.70253 0.2452 0.68797 0.0
H609 H 0.76775 0.26519 0.66414 0.0
H610 H 0.62671 0.1615 0.70332 0.0
H611 H 0.55386 0.11188 0.68736 0.0
C612 C 0.47057 0.55454 0.09242 0.0
C613 C 0.50221 0.59956 0.11743 0.0
C614 C 0.43169 0.52844 0.16002 0.0
C615 C 0.40267 0.48303 0.13496 0.0
N616 N 0.40835 0.44685 0.08011 0.0
N617 N 0.5232 0.6221 0.17638 0.0
C618 C 0.42701 0.49416 0.10212 0.0
C619 C 0.48581 0.58448 0.15175 0.0
N620 N 0.47869 0.57025 0.05931 0.0
N621 N 0.40705 0.51836 0.1915 0.0
H622 H 0.565 0.66115 0.17125 0.0
H623 H 0.51601 0.61115 0.20178 0.0
H624 H 0.36979 0.47643 0.1986 0.0
H625 H 0.42178 0.55224 0.20983 0.0
H626 H 0.45268 0.54003 0.04029 0.0
H627 H 0.506 0.61509 0.0512 0.0
H628 H 0.42942 0.45156 0.0569 0.0
H629 H 0.37696 0.40198 0.08685 0.0
C630 C 0.7855 0.46177 0.61002 0.0
C631 C 0.81989 0.52309 0.59884 0.0
C632 C 0.91202 0.51624 0.59669 0.0
C633 C 0.87931 0.45503 0.60765 0.0
N634 N 0.77935 0.3635 0.60908 0.0
N635 N 0.90375 0.58897 0.56217 0.0
C636 C 0.81411 0.42555 0.60999 0.0
C637 C 0.87893 0.54333 0.5853 0.0
N638 N 0.72591 0.43726 0.61958 0.0
N639 N 0.97416 0.55025 0.59909 0.0
H640 H 0.87858 0.60717 0.5519 0.0
H641 H 0.94615 0.60305 0.5509 0.0
H642 H 0.99996 0.53491 0.61151 0.0
H643 H 0.99849 0.59635 0.59268 0.0
H644 H 0.70229 0.39595 0.63233 0.0
H645 H 0.70016 0.45769 0.61432 0.0
H646 H 0.73168 0.34005 0.60865 0.0
H647 H 0.79805 0.33611 0.60371 0.0
C648 C 0.50717 0.91842 0.14083 0.0
C649 C 0.53153 0.89728 0.11528 0.0
C650 C 0.4345 0.85444 0.0846 0.0
C651 C 0.41253 0.88024 0.1084 0.0
N652 N 0.43086 0.94573 0.15592 0.0
N653 N 0.52226 0.85616 0.05924 0.0
C654 C 0.44979 0.91493 0.1356 0.0
C655 C 0.49627 0.86847 0.08609 0.0
N656 N 0.53683 0.9386 0.17078 0.0
N657 N 0.39536 0.81467 0.06116 0.0
H658 H 0.56765 0.86651 0.05873 0.0
H659 H 0.50064 0.84122 0.03613 0.0
H660 H 0.34949 0.80278 0.05989 0.0
H661 H 0.40663 0.78909 0.04526 0.0
H662 H 0.51786 0.94832 0.19148 0.0
H663 H 0.57805 0.94058 0.17607 0.0
H664 H 0.45858 0.97692 0.17411 0.0
H665 H 0.38909 0.94387 0.15261 0.0
C666 C 0.47992 0.4041 0.6264 0.0
C667 C 0.53668 0.43017 0.64328 0.0
C668 C 0.53212 0.33114 0.63964 0.0
C669 C 0.47772 0.30694 0.6205 0.0
N670 N 0.41379 0.32944 0.58591 0.0
N671 N 0.59281 0.40485 0.68213 0.0
C672 C 0.4565 0.34663 0.61061 0.0
C673 C 0.5566 0.38998 0.65447 0.0
N674 N 0.44333 0.42876 0.63024 0.0
N675 N 0.56264 0.29992 0.642 0.0
H676 H 0.60292 0.44311 0.69668 0.0
H677 H 0.60472 0.37518 0.69316 0.0
H678 H 0.55191 0.26273 0.62653 0.0
H679 H 0.60393 0.31667 0.6547 0.0
H680 H 0.39923 0.40858 0.62041 0.0
H681 H 0.45309 0.46267 0.64809 0.0
H682 H 0.39968 0.35863 0.57654 0.0
H683 H 0.39848 0.289 0.57237 0.0
C684 C 0.53495 0.91767 0.41333 0.0
C685 C 0.4707 0.87772 0.41084 0.0
C686 C 0.49154 0.79439 0.40056 0.0
C687 C 0.55496 0.83239 0.40941 0.0
N688 N 0.62667 0.9276 0.43712 0.0
N689 N 0.38929 0.7726 0.41432 0.0
C690 C 0.57373 0.8933 0.41973 0.0
C691 C 0.44922 0.81436 0.40827 0.0
N692 N 0.55981 0.97877 0.40849 0.0
N693 N 0.47078 0.74146 0.38288 0.0
H694 H 0.35815 0.78477 0.42331 0.0
H695 H 0.37311 0.72582 0.41479 0.0
H696 H 0.49866 0.72733 0.37171 0.0
H697 H 0.42563 0.71642 0.37463 0.0
H698 H 0.60701 0.00872 0.40813 0.0
H699 H 0.53392 0.99778 0.4005 0.0
H700 H 0.63961 0.97113 0.44608 0.0
H701 H 0.65195 0.90952 0.44723 0.0
C702 C 0.70499 0.52361 0.93251 0.0
C703 C 0.7312 0.56666 0.906 0.0
C704 C 0.63337 0.5136 0.87564 0.0
C705 C 0.60605 0.47473 0.90337 0.0
N706 N 0.61218 0.4447 0.95946 0.0
N707 N 0.71828 0.606 0.85331 0.0
C708 C 0.641 0.47997 0.93211 0.0
C709 C 0.69473 0.56268 0.87787 0.0
N710 N 0.7412 0.52456 0.95806 0.0
N711 N 0.60059 0.50201 0.8467 0.0
H712 H 0.7635 0.64107 0.85263 0.0
H713 H 0.69199 0.60976 0.83453 0.0
H714 H 0.55553 0.46619 0.84459 0.0
H715 H 0.61926 0.52392 0.82405 0.0
H716 H 0.72675 0.49056 0.97612 0.0
H717 H 0.78716 0.55803 0.96025 0.0
H718 H 0.63303 0.45014 0.98264 0.0
H719 H 0.56566 0.41206 0.95951 0.0
C720 C 0.10657 0.66743 0.3871 0.0
C721 C 0.15275 0.70267 0.41148 0.0
C722 C 0.1466 0.608 0.43157 0.0
C723 C 0.10324 0.57448 0.40621 0.0
N724 N 0.04938 0.57186 0.35669 0.0
N725 N 0.22003 0.7065 0.45532 0.0
C726 C 0.08514 0.60415 0.38329 0.0
C727 C 0.17412 0.67294 0.43307 0.0
N728 N 0.08279 0.69399 0.36726 0.0
N729 N 0.15932 0.57701 0.45505 0.0
H730 H 0.23731 0.75285 0.45956 0.0
H731 H 0.24304 0.68914 0.46868 0.0
H732 H 0.13984 0.52973 0.45442 0.0
H733 H 0.1857 0.59705 0.47629 0.0
H734 H 0.04219 0.66939 0.35392 0.0
H735 H 0.10278 0.74066 0.36415 0.0
H736 H 0.04053 0.59172 0.33634 0.0
H737 H 0.03253 0.52523 0.35357 0.0
C738 C 0.47942 0.07746 0.90746 0.0
C739 C 0.5413 0.11248 0.91681 0.0
C740 C 0.52318 0.1942 0.93642 0.0
C741 C 0.46042 0.15795 0.92733 0.0
N742 N 0.37782 0.05222 0.92326 0.0
N743 N 0.61648 0.19445 0.95071 0.0
C744 C 0.43779 0.09559 0.91849 0.0
C745 C 0.56194 0.16843 0.93421 0.0
N746 N 0.46014 0.02672 0.88798 0.0
N747 N 0.54531 0.25192 0.94852 0.0
H748 H 0.64357 0.17429 0.9515 0.0
H749 H 0.63185 0.23237 0.96632 0.0
H750 H 0.51698 0.26844 0.95632 0.0
H751 H 0.59192 0.28316 0.95084 0.0
H752 H 0.41599 1.00257 0.8782 0.0
H753 H 0.49 0.01286 0.87891 0.0
H754 H 0.36089 1.00615 0.91811 0.0
H755 H 0.34818 0.05964 0.9381 0.0
C756 C 0.31308 0.53592 0.40424 0.0
C757 C 0.29183 0.48655 0.42677 0.0
C758 C 0.39722 0.50714 0.43305 0.0
C759 C 0.41434 0.5458 0.40472 0.0
N760 N 0.38908 0.59677 0.36249 0.0
N761 N 0.31525 0.43689 0.47037 0.0
C762 C 0.3725 0.56054 0.39021 0.0
C763 C 0.33494 0.47646 0.44397 0.0
N764 N 0.27793 0.5613 0.39781 0.0
N765 N 0.44054 0.49928 0.44877 0.0
H766 H 0.27098 0.41851 0.48006 0.0
H767 H 0.34201 0.42319 0.48307 0.0
H768 H 0.48583 0.52039 0.44042 0.0
H769 H 0.43272 0.47339 0.47028 0.0
H770 H 0.29255 0.59989 0.38296 0.0
H771 H 0.23845 0.54934 0.4117 0.0
H772 H 0.35818 0.60355 0.34869 0.0
H773 H 0.43283 0.6167 0.35203 0.0
C774 C 0.83681 0.38536 0.88688 0.0
C775 C 0.89868 0.42589 0.89599 0.0
C776 C 0.8998 0.34268 0.9259 0.0
C777 C 0.83775 0.3021 0.91777 0.0
N778 N 0.74238 0.29267 0.89988 0.0
N779 N 0.99237 0.42429 0.90289 0.0
C780 C 0.80461 0.32572 0.90109 0.0
C781 C 0.93169 0.39989 0.90991 0.0
N782 N 0.81205 0.3996 0.86066 0.0
N783 N 0.92883 0.32622 0.94865 0.0
H784 H 0.01443 0.45877 0.8851 0.0
H785 H 0.01725 0.40384 0.91035 0.0
H786 H 0.90554 0.28561 0.96219 0.0
H787 H 0.97353 0.35606 0.9565 0.0
H788 H 0.76872 0.36977 0.85109 0.0
H789 H 0.83904 0.43625 0.84488 0.0
H790 H 0.71595 0.30977 0.8901 0.0
H791 H 0.71734 0.25245 0.91326 0.0
C792 C 0.21343 0.42818 0.28996 0.0
C793 C 0.1763 0.37078 0.30586 0.0
C794 C 0.15167 0.32054 0.25087 0.0
C795 C 0.19468 0.37605 0.23527 0.0
N796 N 0.26879 0.48295 0.23965 0.0
N797 N 0.11602 0.26076 0.30137 0.0
C798 C 0.2258 0.43025 0.25468 0.0
C799 C 0.14738 0.3166 0.2863 0.0
N800 N 0.23728 0.48045 0.30865 0.0
N801 N 0.11255 0.27181 0.23161 0.0
H802 H 0.10771 0.25467 0.327 0.0
H803 H 0.10166 0.21988 0.28858 0.0
H804 H 0.11275 0.2738 0.20562 0.0
H805 H 0.07545 0.23229 0.24123 0.0
H806 H 0.25945 0.524 0.29837 0.0
H807 H 0.23219 0.48027 0.33465 0.0
H808 H 0.29828 0.52257 0.25273 0.0
H809 H 0.27699 0.48612 0.21386 0.0
C810 C 0.86466 0.25645 0.75682 0.0
C811 C 0.82659 0.21509 0.73157 0.0
C812 C 0.76159 0.14281 0.77477 0.0
C813 C 0.79856 0.18478 0.79987 0.0
N814 N 0.87081 0.28896 0.81462 0.0
N815 N 0.72709 0.12997 0.71749 0.0
C816 C 0.8452 0.24424 0.79078 0.0
C817 C 0.77097 0.16208 0.74093 0.0
N818 N 0.92121 0.30451 0.7492 0.0
N819 N 0.72078 0.08337 0.7825 0.0
H820 H 0.7319 0.14348 0.69253 0.0
H821 H 0.68361 0.09418 0.72361 0.0
H822 H 0.71355 0.06584 0.80671 0.0
H823 H 0.69819 0.0499 0.76425 0.0
H824 H 0.95263 0.33139 0.76753 0.0
H825 H 0.93947 0.31451 0.72509 0.0
H826 H 0.90152 0.33446 0.80888 0.0
H827 H 0.85592 0.28161 0.83954 0.0
C828 C 0.60244 0.79407 0.23704 0.0
C829 C 0.65611 0.84499 0.22356 0.0
C830 C 0.71024 0.85371 0.27559 0.0
C831 C 0.6556 0.80759 0.29065 0.0
N832 N 0.5456 0.74323 0.28743 0.0
N833 N 0.75287 0.93753 0.23797 0.0
C834 C 0.60039 0.7798 0.27184 0.0
C835 C 0.7072 0.8795 0.24512 0.0
N836 N 0.55253 0.76083 0.21717 0.0
N837 N 0.76624 0.87244 0.28959 0.0
H838 H 0.75659 0.96215 0.21668 0.0
H839 H 0.78564 0.96487 0.25567 0.0
H840 H 0.77274 0.85369 0.31115 0.0
H841 H 0.80732 0.90201 0.2775 0.0
H842 H 0.5158 0.71872 0.22429 0.0
H843 H 0.54848 0.77444 0.19317 0.0
H844 H 0.50352 0.72667 0.27563 0.0
H845 H 0.54142 0.73441 0.31307 0.0
C846 C 0.81612 0.60048 0.74432 0.0
C847 C 0.83719 0.65408 0.72482 0.0
C848 C 0.89299 0.71656 0.77359 0.0
C849 C 0.86726 0.66361 0.79403 0.0
N850 N 0.79432 0.55608 0.80001 0.0
N851 N 0.88361 0.76391 0.72357 0.0
C852 C 0.82617 0.60565 0.77972 0.0
C853 C 0.87239 0.7123 0.74017 0.0
N854 N 0.78811 0.5447 0.72896 0.0
N855 N 0.93869 0.77109 0.78562 0.0
H856 H 0.86815 0.76352 0.69947 0.0
H857 H 0.90249 0.80657 0.73503 0.0
H858 H 0.95535 0.77723 0.80996 0.0
H859 H 0.96428 0.80902 0.77043 0.0
H860 H 0.77749 0.50446 0.74128 0.0
H861 H 0.7804 0.53924 0.70316 0.0
H862 H 0.75906 0.5143 0.7914 0.0
H863 H 0.79881 0.5581 0.82603 0.0
C864 C 0.23005 0.89063 0.24589 0.0
C865 C 0.19792 0.82971 0.23359 0.0
C866 C 0.19134 0.79111 0.29089 0.0
C867 C 0.21431 0.85092 0.30361 0.0
N868 N 0.27207 0.95913 0.29394 0.0
N869 N 0.15367 0.72232 0.24308 0.0
C870 C 0.23891 0.90131 0.28124 0.0
C871 C 0.18061 0.78009 0.25581 0.0
N872 N 0.24999 0.93796 0.22378 0.0
N873 N 0.18375 0.74584 0.3122 0.0
H874 H 0.15202 0.71415 0.21736 0.0
H875 H 0.13241 0.683 0.2576 0.0
H876 H 0.19607 0.75418 0.33742 0.0
H877 H 0.17108 0.70176 0.30466 0.0
H878 H 0.26857 0.98344 0.23061 0.0
H879 H 0.24662 0.93176 0.19787 0.0
H880 H 0.29447 0.99846 0.27955 0.0
H881 H 0.28062 0.96807 0.31948 0.0
C882 C 0.37748 0.23825 0.78143 0.0
C883 C 0.37098 0.19442 0.80574 0.0
C884 C 0.36306 0.12528 0.76001 0.0
C885 C 0.37472 0.17119 0.73603 0.0
N886 N 0.41054 0.27725 0.72521 0.0
N887 N 0.37486 0.10325 0.81764 0.0
C888 C 0.38749 0.22955 0.74719 0.0
C889 C 0.36899 0.14 0.79487 0.0
N890 N 0.37039 0.28638 0.79037 0.0
N891 N 0.34319 0.06678 0.74984 0.0
H892 H 0.38237 0.11388 0.84312 0.0
H893 H 0.37925 0.06602 0.8107 0.0
H894 H 0.33662 0.0533 0.72475 0.0
H895 H 0.32768 0.03046 0.76653 0.0
H896 H 0.36847 0.3157 0.77287 0.0
H897 H 0.35958 0.29338 0.81461 0.0
H898 H 0.42598 0.32208 0.73268 0.0
H899 H 0.42072 0.2731 0.70027 0.0
C900 C 0.33386 0.32567 1.00365 0.0
C901 C 0.30919 0.26221 0.99666 0.0
C902 C 0.2297 0.23903 0.03953 0.0
C903 C 0.25298 0.30226 0.04516 0.0
N904 N 0.31494 0.40455 0.02442 0.0
N905 N 0.24795 0.16008 0.01803 0.0
C906 C 0.30088 0.34514 0.0245 0.0
C907 C 0.26053 0.21908 0.01721 0.0
N908 N 0.392 0.36723 0.99368 0.0
N909 N 0.17616 0.19801 0.0548 0.0
H910 H 0.2753 0.14596 1.00588 0.0
H911 H 0.21651 0.12737 0.03444 0.0
H912 H 0.15138 0.2121 0.0696 0.0
H913 H 0.153 0.15139 0.0498 0.0
H914 H 0.41312 0.41357 0.99925 0.0
H915 H 0.42307 0.35457 0.98527 0.0
H916 H 0.34519 0.43641 1.00722 0.0
H917 H 0.29161 0.42048 0.03896 0.0
C918 C 0.9797 0.26835 0.49053 0.0
C919 C 0.04075 0.27869 0.49252 0.0
C920 C 1.01074 0.22164 0.54609 0.0
C921 C 0.95497 0.22267 0.54636 0.0
N922 N 0.88939 0.25317 0.51989 0.0
N923 N 0.11442 0.26543 0.52383 0.0
C924 C 0.94075 0.24821 0.51899 0.0
C925 C 0.05605 0.25462 0.52065 0.0
N926 N 0.95582 0.2714 0.46056 0.0
N927 N 0.02094 0.19057 0.57067 0.0
H928 H 0.15 0.29426 0.50787 0.0
H929 H 0.12921 0.2496 0.54351 0.0
H930 H 0.98947 0.16743 0.58978 0.0
H931 H 0.05778 0.18317 0.57073 0.0
H932 H 0.91001 0.25844 0.45728 0.0
H933 H 0.97856 0.27724 0.43809 0.0
H934 H 0.88156 0.27933 0.50275 0.0
H935 H 0.85637 0.23405 0.53879 0.0
C936 C 0.77261 0.95867 1.00975 0.0
C937 C 0.73074 0.961 0.0327 0.0
C938 C 0.75091 0.05782 1.00779 0.0
C939 C 0.78812 0.05312 0.98274 0.0
N940 N 0.83022 0.99509 0.95768 0.0
N941 N 0.66908 1.00521 0.04783 0.0
C942 C 0.7982 1.00256 0.98315 0.0
C943 C 0.71656 0.00827 0.02977 0.0
N944 N 0.78872 0.91529 1.01381 0.0
N945 N 0.74961 0.11078 1.01111 0.0
H946 H 0.64195 0.96873 0.06352 0.0
H947 H 0.65255 0.03496 0.04442 0.0
H948 H 0.77606 0.14885 0.99607 0.0
H949 H 0.72789 0.11926 0.03094 0.0
H950 H 0.82447 0.91511 1.00086 0.0
H951 H 0.76722 0.88035 0.03134 0.0
H952 H 0.83422 0.95651 0.95482 0.0
H953 H 0.85066 0.02616 0.93823 0.0
C954 C 0.7669 0.68405 0.50538 0.0
C955 C 0.75826 0.70395 0.53701 0.0
C956 C 0.71553 0.76082 0.50885 0.0
C957 C 0.7187 0.73598 0.47753 0.0
N958 N 0.73435 0.66163 0.44787 0.0
N959 N 0.71029 0.74988 0.56912 0.0
C960 C 0.74069 0.69414 0.47634 0.0
C961 C 0.72856 0.73911 0.53884 0.0
N962 N 0.79989 0.65505 0.50289 0.0
N963 N 0.69944 0.8047 0.51016 0.0
H964 H 0.71835 0.73493 0.59162 0.0
H965 H 0.68268 0.76922 0.57171 0.0
H966 H 0.68607 0.81917 0.48909 0.0
H967 H 0.70355 0.82976 0.53177 0.0
H968 H 0.81379 0.64584 0.48002 0.0
H969 H 0.81744 0.64439 0.52369 0.0
H970 H 0.74109 0.62443 0.44729 0.0
H971 H 0.71639 0.66759 0.42588 0.0
C972 C 0.96244 0.68862 1.01343 0.0
C973 C 0.97857 0.73108 0.98689 0.0
C974 C 0.06805 0.8069 0.01972 0.0
C975 C 0.05029 0.76539 0.04694 0.0
N976 N 0.97634 0.66755 0.07076 0.0
N977 N 0.04393 0.83327 0.96594 0.0
C978 C 0.99627 0.70658 0.04404 0.0
C979 C 0.03038 0.79099 0.9905 0.0
N980 N 0.91488 0.63029 1.00924 0.0
N981 N 0.12163 0.86151 0.02144 0.0
H982 H 0.0239 0.82243 0.94241 0.0
H983 H 0.07386 0.87981 0.96905 0.0
H984 H 0.14871 0.87686 0.04278 0.0
H985 H 0.14169 0.89058 1.00112 0.0
H986 H 0.90642 0.59423 0.02493 0.0
H987 H 0.88495 0.61687 0.989 0.0
H988 H 0.93272 0.6294 0.07248 0.0
H989 H 1.00216 0.67379 0.09214 0.0
C990 C 0.29234 0.97609 0.51308 0.0
C991 C 0.23977 0.96329 0.49416 0.0
C992 C 0.23774 0.04719 0.52595 0.0
C993 C 0.29403 0.06283 0.54227 0.0
N994 N 0.38654 0.05768 0.53533 0.0
N995 N 0.17769 1.0059 0.47568 0.0
C996 C 0.32499 0.03219 0.53084 0.0
C997 C 0.21596 1.00359 0.49885 0.0
N998 N 0.31119 0.93442 0.51483 0.0
N999 N 0.20577 0.07533 0.53457 0.0
H1000 H 0.16726 0.98277 0.453 0.0
H1001 H 0.16378 0.03814 0.47644 0.0
H1002 H 0.22435 0.11615 0.54778 0.0
H1003 H 0.16023 0.05795 0.52768 0.0
H1004 H 0.34734 0.94092 0.53011 0.0
H1005 H 0.28596 0.89069 0.50465 0.0
H1006 H 0.41102 0.03794 0.52577 0.0
H1007 H 0.41395 0.10239 0.5438 0.0
loop_
_geom_bond_atom_site_label_1
_geom_bond_atom_site_label_2
_geom_bond_distance
_geom_bond_site_symmetry_2
_ccdc_geom_bond_type
Co0 N5 2.057 . S
Co0 O17 2.021 . S
Co0 O20 2.062 . S
Co0 O24 2.117 . S
Co0 O25 2.020 . S
C1 O21 1.259 . S
C1 O24 1.258 . S
Co2 N11 2.057 . S
Co2 O18 2.117 . S
Co2 O19 2.020 . S
Co2 O21 2.021 . S
Co2 O26 2.062 . S
C3 N5 1.316 . S
C3 N6 1.347 . S
C3 H8 0.931 . S
C4 N5 1.375 . S
C4 C7 1.350 . S
C4 H9 0.930 . S
N5 Co0 2.057 . S
N5 C3 1.316 . S
N5 C4 1.375 . S
N6 C3 1.347 . S
N6 C7 1.373 . S
C7 C4 1.350 . S
C7 N6 1.373 . S
C7 H28 0.931 . S
H8 C3 0.931 . S
H9 C4 0.930 . S
C10 O17 1.259 . S
C10 O18 1.258 . S
N11 Co2 2.057 . S
N11 C12 1.316 . S
N11 C13 1.375 . S
C12 N11 1.316 . S
C12 N14 1.347 . S
C12 H23 0.931 . S
C13 N11 1.375 . S
C13 C15 1.350 . S
C13 H22 0.930 . S
N14 C12 1.347 . S
N14 C15 1.373 . S
C15 C13 1.350 . S
C15 N14 1.373 . S
C15 H29 0.931 . S
C16 O19 1.256 . S
C16 O20 1.255 . S
O17 Co0 2.021 . S
O17 C10 1.259 . S
O18 Co2 2.117 . S
O18 C10 1.258 . S
O19 Co2 2.020 . S
O19 C16 1.256 . S
O20 Co0 2.062 . S
O20 C16 1.255 . S
O21 C1 1.259 . S
O21 Co2 2.021 . S
H22 C13 0.930 . S
H23 C12 0.931 . S
O24 Co0 2.117 . S
O24 C1 1.258 . S
O25 Co0 2.020 . S
O25 C27 1.256 . S
O26 Co2 2.062 . S
O26 C27 1.255 . S
C27 O25 1.256 . S
C27 O26 1.255 . S
H28 C7 0.931 . S
H29 C15 0.931 . S
Co30 N35 2.057 . S
Co30 O47 2.021 . S
Co30 O50 2.062 . S
Co30 O54 2.117 . S
Co30 O55 2.020 . S
C31 O51 1.259 . S
C31 O54 1.258 . S
Co32 N41 2.057 . S
Co32 O48 2.117 . S
Co32 O49 2.020 . S
Co32 O51 2.021 . S
Co32 O56 2.062 . S
C33 N35 1.316 . S
C33 N36 1.347 1_545 S
C33 H38 0.931 . S
C34 N35 1.375 . S
C34 C37 1.350 1_545 S
C34 H39 0.930 . S
N35 Co30 2.057 . S
N35 C33 1.316 . S
N35 C34 1.375 . S
N36 C33 1.347 1_565 S
N36 C37 1.373 . S
C37 C34 1.350 1_565 S
C37 N36 1.373 . S
C37 H58 0.931 . S
H38 C33 0.931 . S
H39 C34 0.930 . S
C40 O47 1.259 . S
C40 O48 1.258 . S
N41 Co32 2.057 . S
N41 C42 1.316 . S
N41 C43 1.375 . S
C42 N41 1.316 . S
C42 N44 1.347 . S
C42 H53 0.931 . S
C43 N41 1.375 . S
C43 C45 1.350 . S
C43 H52 0.930 . S
N44 C42 1.347 . S
N44 C45 1.373 . S
C45 C43 1.350 . S
C45 N44 1.373 . S
C45 H59 0.931 . S
C46 O49 1.256 . S
C46 O50 1.255 . S
O47 Co30 2.021 . S
O47 C40 1.259 . S
O48 Co32 2.117 . S
O48 C40 1.258 . S
O49 Co32 2.020 . S
O49 C46 1.256 . S
O50 Co30 2.062 . S
O50 C46 1.255 . S
O51 C31 1.259 . S
O51 Co32 2.021 . S
H52 C43 0.930 . S
H53 C42 0.931 . S
O54 Co30 2.117 . S
O54 C31 1.258 . S
O55 Co30 2.020 . S
O55 C57 1.256 . S
O56 Co32 2.062 . S
O56 C57 1.255 . S
C57 O55 1.256 . S
C57 O56 1.255 . S
H58 C37 0.931 . S
H59 C45 0.931 . S
Co60 N65 2.057 . S
Co60 O77 2.021 . S
Co60 O80 2.062 . S
Co60 O84 2.117 . S
Co60 O85 2.020 . S
C61 O81 1.259 . S
C61 O84 1.258 . S
Co62 N71 2.057 1_565 S
Co62 O78 2.117 . S
Co62 O79 2.020 . S
Co62 O81 2.021 . S
Co62 O86 2.062 . S
C63 N65 1.316 . S
C63 N66 1.347 . S
C63 H68 0.931 . S
C64 N65 1.375 . S
C64 C67 1.350 . S
C64 H69 0.930 . S
N65 Co60 2.057 . S
N65 C63 1.316 . S
N65 C64 1.375 . S
N66 C63 1.347 . S
N66 C67 1.373 . S
C67 C64 1.350 . S
C67 N66 1.373 . S
C67 H88 0.931 . S
H68 C63 0.931 . S
H69 C64 0.930 . S
C70 O77 1.259 . S
C70 O78 1.258 . S
N71 Co62 2.057 1_545 S
N71 C72 1.316 . S
N71 C73 1.375 . S
C72 N71 1.316 . S
C72 N74 1.347 . S
C72 H83 0.931 . S
C73 N71 1.375 . S
C73 C75 1.350 . S
C73 H82 0.930 1_545 S
N74 C72 1.347 . S
N74 C75 1.373 . S
C75 C73 1.350 . S
C75 N74 1.373 . S
C75 H89 0.931 . S
C76 O79 1.256 . S
C76 O80 1.255 . S
O77 Co60 2.021 . S
O77 C70 1.259 . S
O78 Co62 2.117 . S
O78 C70 1.258 . S
O79 Co62 2.020 . S
O79 C76 1.256 . S
O80 Co60 2.062 . S
O80 C76 1.255 . S
O81 C61 1.259 . S
O81 Co62 2.021 . S
H82 C73 0.930 1_565 S
H83 C72 0.931 . S
O84 Co60 2.117 . S
O84 C61 1.258 . S
O85 Co60 2.020 . S
O85 C87 1.256 . S
O86 Co62 2.062 . S
O86 C87 1.255 . S
C87 O85 1.256 . S
C87 O86 1.255 . S
H88 C67 0.931 . S
H89 C75 0.931 . S
Co90 N95 2.057 . S
Co90 O107 2.021 . S
Co90 O110 2.062 . S
Co90 O114 2.117 . S
Co90 O115 2.020 . S
C91 O111 1.259 . S
C91 O114 1.258 . S
Co92 N101 2.057 . S
Co92 O108 2.117 . S
Co92 O109 2.020 . S
Co92 O111 2.021 . S
Co92 O116 2.062 . S
C93 N95 1.316 . S
C93 N96 1.347 1_655 S
C93 H98 0.931 . S
C94 N95 1.375 . S
C94 C97 1.350 1_655 S
C94 H99 0.930 . S
N95 Co90 2.057 . S
N95 C93 1.316 . S
N95 C94 1.375 . S
N96 C93 1.347 1_455 S
N96 C97 1.373 . S
C97 C94 1.350 1_455 S
C97 N96 1.373 . S
C97 H118 0.931 . S
H98 C93 0.931 . S
H99 C94 0.930 . S
C100 O107 1.259 . S
C100 O108 1.258 . S
N101 Co92 2.057 . S
N101 C102 1.316 . S
N101 C103 1.375 . S
C102 N101 1.316 . S
C102 N104 1.347 . S
C102 H113 0.931 . S
C103 N101 1.375 . S
C103 C105 1.350 . S
C103 H112 0.930 . S
N104 C102 1.347 . S
N104 C105 1.373 . S
C105 C103 1.350 . S
C105 N104 1.373 . S
C105 H119 0.931 . S
C106 O109 1.256 . S
C106 O110 1.255 . S
O107 Co90 2.021 . S
O107 C100 1.259 . S
O108 Co92 2.117 . S
O108 C100 1.258 . S
O109 Co92 2.020 . S
O109 C106 1.256 . S
O110 Co90 2.062 . S
O110 C106 1.255 . S
O111 C91 1.259 . S
O111 Co92 2.021 . S
H112 C103 0.930 . S
H113 C102 0.931 . S
O114 Co90 2.117 . S
O114 C91 1.258 . S
O115 Co90 2.020 . S
O115 C117 1.256 . S
O116 Co92 2.062 . S
O116 C117 1.255 . S
C117 O115 1.256 . S
C117 O116 1.255 . S
H118 C97 0.931 . S
H119 C105 0.931 . S
Co120 N125 2.057 . S
Co120 O137 2.021 . S
Co120 O140 2.062 . S
Co120 O144 2.117 . S
Co120 O145 2.020 . S
C121 O141 1.259 . S
C121 O144 1.258 . S
Co122 N131 2.057 1_455 S
Co122 O138 2.117 . S
Co122 O139 2.020 . S
Co122 O141 2.021 . S
Co122 O146 2.062 . S
C123 N125 1.316 . S
C123 N126 1.347 . S
C123 H128 0.931 . S
C124 N125 1.375 . S
C124 C127 1.350 . S
C124 H129 0.930 . S
N125 Co120 2.057 . S
N125 C123 1.316 . S
N125 C124 1.375 . S
N126 C123 1.347 . S
N126 C127 1.373 . S
C127 C124 1.350 . S
C127 N126 1.373 . S
C127 H148 0.931 . S
H128 C123 0.931 . S
H129 C124 0.930 . S
C130 O137 1.259 . S
C130 O138 1.258 . S
N131 Co122 2.057 1_655 S
N131 C132 1.316 . S
N131 C133 1.375 . S
C132 N131 1.316 . S
C132 N134 1.347 . S
C132 H143 0.931 . S
C133 N131 1.375 . S
C133 C135 1.350 . S
C133 H142 0.930 1_655 S
N134 C132 1.347 . S
N134 C135 1.373 . S
C135 C133 1.350 . S
C135 N134 1.373 . S
C135 H149 0.931 . S
C136 O139 1.256 . S
C136 O140 1.255 . S
O137 Co120 2.021 . S
O137 C130 1.259 . S
O138 Co122 2.117 . S
O138 C130 1.258 . S
O139 Co122 2.020 . S
O139 C136 1.256 . S
O140 Co120 2.062 . S
O140 C136 1.255 . S
O141 C121 1.259 . S
O141 Co122 2.021 . S
H142 C133 0.930 1_455 S
H143 C132 0.931 . S
O144 Co120 2.117 . S
O144 C121 1.258 . S
O145 Co120 2.020 . S
O145 C147 1.256 . S
O146 Co122 2.062 . S
O146 C147 1.255 . S
C147 O145 1.256 . S
C147 O146 1.255 . S
H148 C127 0.931 . S
H149 C135 0.931 . S
Co150 N155 2.057 . S
Co150 O167 2.021 . S
Co150 O170 2.062 . S
Co150 O174 2.117 . S
Co150 O175 2.020 . S
C151 O171 1.259 . S
C151 O174 1.258 . S
Co152 N161 2.057 . S
Co152 O168 2.117 . S
Co152 O169 2.020 . S
Co152 O171 2.021 . S
Co152 O176 2.062 . S
C153 N155 1.316 . S
C153 N156 1.347 . S
C153 H158 0.931 . S
C154 N155 1.375 . S
C154 C157 1.350 . S
C154 H159 0.930 . S
N155 Co150 2.057 . S
N155 C153 1.316 . S
N155 C154 1.375 . S
N156 C153 1.347 . S
N156 C157 1.373 . S
C157 C154 1.350 . S
C157 N156 1.373 . S
C157 H178 0.931 . S
H158 C153 0.931 . S
H159 C154 0.930 . S
C160 O167 1.259 . S
C160 O168 1.258 . S
N161 Co152 2.057 . S
N161 C162 1.316 . S
N161 C163 1.375 . S
C162 N161 1.316 . S
C162 N164 1.347 . S
C162 H173 0.931 . S
C163 N161 1.375 . S
C163 C165 1.350 . S
C163 H172 0.930 . S
N164 C162 1.347 . S
N164 C165 1.373 . S
C165 C163 1.350 . S
C165 N164 1.373 . S
C165 H179 0.931 . S
C166 O169 1.256 . S
C166 O170 1.255 . S
O167 Co150 2.021 . S
O167 C160 1.259 . S
O168 Co152 2.117 . S
O168 C160 1.258 . S
O169 Co152 2.020 . S
O169 C166 1.256 . S
O170 Co150 2.062 . S
O170 C166 1.255 . S
O171 C151 1.259 . S
O171 Co152 2.021 . S
H172 C163 0.930 . S
H173 C162 0.931 . S
O174 Co150 2.117 . S
O174 C151 1.258 . S
O175 Co150 2.020 . S
O175 C177 1.256 . S
O176 Co152 2.062 . S
O176 C177 1.255 . S
C177 O175 1.256 . S
C177 O176 1.255 . S
H178 C157 0.931 . S
H179 C165 0.931 . S
Co180 N185 2.057 . S
Co180 O197 2.021 . S
Co180 O200 2.062 . S
Co180 O204 2.117 . S
Co180 O205 2.020 . S
C181 O201 1.259 . S
C181 O204 1.258 . S
Co182 N191 2.057 . S
Co182 O198 2.117 . S
Co182 O199 2.020 . S
Co182 O201 2.021 . S
Co182 O206 2.062 . S
C183 N185 1.316 . S
C183 N186 1.347 1_565 S
C183 H188 0.931 . S
C184 N185 1.375 . S
C184 C187 1.350 1_565 S
C184 H189 0.930 . S
N185 Co180 2.057 . S
N185 C183 1.316 . S
N185 C184 1.375 . S
N186 C183 1.347 1_545 S
N186 C187 1.373 . S
C187 C184 1.350 1_545 S
C187 N186 1.373 . S
C187 H208 0.931 . S
H188 C183 0.931 . S
H189 C184 0.930 . S
C190 O197 1.259 . S
C190 O198 1.258 . S
N191 Co182 2.057 . S
N191 C192 1.316 . S
N191 C193 1.375 . S
C192 N191 1.316 . S
C192 N194 1.347 . S
C192 H203 0.931 . S
C193 N191 1.375 . S
C193 C195 1.350 . S
C193 H202 0.930 . S
N194 C192 1.347 . S
N194 C195 1.373 . S
C195 C193 1.350 . S
C195 N194 1.373 . S
C195 H209 0.931 . S
C196 O199 1.256 . S
C196 O200 1.255 . S
O197 Co180 2.021 . S
O197 C190 1.259 . S
O198 Co182 2.117 . S
O198 C190 1.258 . S
O199 Co182 2.020 . S
O199 C196 1.256 . S
O200 Co180 2.062 . S
O200 C196 1.255 . S
O201 C181 1.259 . S
O201 Co182 2.021 . S
H202 C193 0.930 . S
H203 C192 0.931 . S
O204 Co180 2.117 . S
O204 C181 1.258 . S
O205 Co180 2.020 . S
O205 C207 1.256 . S
O206 Co182 2.062 . S
O206 C207 1.255 . S
C207 O205 1.256 . S
C207 O206 1.255 . S
H208 C187 0.931 . S
H209 C195 0.931 . S
Co210 N215 2.057 . S
Co210 O227 2.021 . S
Co210 O230 2.062 . S
Co210 O234 2.117 . S
Co210 O235 2.020 . S
C211 O231 1.259 . S
C211 O234 1.258 . S
Co212 N221 2.057 . S
Co212 O228 2.117 . S
Co212 O229 2.020 . S
Co212 O231 2.021 . S
Co212 O236 2.062 . S
C213 N215 1.316 . S
C213 N216 1.347 . S
C213 H218 0.931 . S
C214 N215 1.375 . S
C214 C217 1.350 . S
C214 H219 0.930 . S
N215 Co210 2.057 . S
N215 C213 1.316 . S
N215 C214 1.375 . S
N216 C213 1.347 . S
N216 C217 1.373 . S
C217 C214 1.350 . S
C217 N216 1.373 . S
C217 H238 0.931 . S
H218 C213 0.931 . S
H219 C214 0.930 . S
C220 O227 1.259 . S
C220 O228 1.258 . S
N221 Co212 2.057 . S
N221 C222 1.316 . S
N221 C223 1.375 . S
C222 N221 1.316 . S
C222 N224 1.347 . S
C222 H233 0.931 . S
C223 N221 1.375 . S
C223 C225 1.350 . S
C223 H232 0.930 . S
N224 C222 1.347 . S
N224 C225 1.373 . S
C225 C223 1.350 . S
C225 N224 1.373 . S
C225 H239 0.931 . S
C226 O229 1.256 . S
C226 O230 1.255 . S
O227 Co210 2.021 . S
O227 C220 1.259 . S
O228 Co212 2.117 . S
O228 C220 1.258 . S
O229 Co212 2.020 . S
O229 C226 1.256 . S
O230 Co210 2.062 . S
O230 C226 1.255 . S
O231 C211 1.259 . S
O231 Co212 2.021 . S
H232 C223 0.930 . S
H233 C222 0.931 . S
O234 Co210 2.117 . S
O234 C211 1.258 . S
O235 Co210 2.020 . S
O235 C237 1.256 . S
O236 Co212 2.062 . S
O236 C237 1.255 . S
C237 O235 1.256 . S
C237 O236 1.255 . S
H238 C217 0.931 . S
H239 C225 0.931 . S
Co240 N245 2.057 . S
Co240 O257 2.021 . S
Co240 O260 2.062 . S
Co240 O264 2.117 . S
Co240 O265 2.020 . S
C241 O261 1.259 . S
C241 O264 1.258 . S
Co242 N251 2.057 . S
Co242 O258 2.117 . S
Co242 O259 2.020 . S
Co242 O261 2.021 . S
Co242 O266 2.062 . S
C243 N245 1.316 . S
C243 N246 1.347 1_455 S
C243 H248 0.931 . S
C244 N245 1.375 . S
C244 C247 1.350 1_455 S
C244 H249 0.930 . S
N245 Co240 2.057 . S
N245 C243 1.316 . S
N245 C244 1.375 . S
N246 C243 1.347 1_655 S
N246 C247 1.373 . S
C247 C244 1.350 1_655 S
C247 N246 1.373 . S
C247 H268 0.931 . S
H248 C243 0.931 . S
H249 C244 0.930 . S
C250 O257 1.259 . S
C250 O258 1.258 . S
N251 Co242 2.057 . S
N251 C252 1.316 . S
N251 C253 1.375 . S
C252 N251 1.316 . S
C252 N254 1.347 . S
C252 H263 0.931 . S
C253 N251 1.375 . S
C253 C255 1.350 . S
C253 H262 0.930 . S
N254 C252 1.347 . S
N254 C255 1.373 . S
C255 C253 1.350 . S
C255 N254 1.373 . S
C255 H269 0.931 . S
C256 O259 1.256 . S
C256 O260 1.255 . S
O257 Co240 2.021 . S
O257 C250 1.259 . S
O258 Co242 2.117 . S
O258 C250 1.258 . S
O259 Co242 2.020 . S
O259 C256 1.256 . S
O260 Co240 2.062 . S
O260 C256 1.255 . S
O261 C241 1.259 . S
O261 Co242 2.021 . S
H262 C253 0.930 . S
H263 C252 0.931 . S
O264 Co240 2.117 . S
O264 C241 1.258 . S
O265 Co240 2.020 . S
O265 C267 1.256 . S
O266 Co242 2.062 . S
O266 C267 1.255 . S
C267 O265 1.256 . S
C267 O266 1.255 . S
H268 C247 0.931 . S
H269 C255 0.931 . S
Co270 N275 2.057 . S
Co270 O287 2.021 . S
Co270 O290 2.062 . S
Co270 O294 2.117 . S
Co270 O295 2.020 . S
C271 O291 1.259 . S
C271 O294 1.258 . S
Co272 N281 2.057 . S
Co272 O288 2.117 . S
Co272 O289 2.020 . S
Co272 O291 2.021 . S
Co272 O296 2.062 . S
C273 N275 1.316 . S
C273 N276 1.347 1_545 S
C273 H278 0.931 . S
C274 N275 1.375 . S
C274 C277 1.350 1_545 S
C274 H279 0.930 . S
N275 Co270 2.057 . S
N275 C273 1.316 . S
N275 C274 1.375 . S
N276 C273 1.347 1_565 S
N276 C277 1.373 . S
C277 C274 1.350 1_565 S
C277 N276 1.373 . S
C277 H298 0.931 . S
H278 C273 0.931 . S
H279 C274 0.930 . S
C280 O287 1.259 . S
C280 O288 1.258 . S
N281 Co272 2.057 . S
N281 C282 1.316 . S
N281 C283 1.375 . S
C282 N281 1.316 . S
C282 N284 1.347 . S
C282 H293 0.931 . S
C283 N281 1.375 . S
C283 C285 1.350 . S
C283 H292 0.930 . S
N284 C282 1.347 . S
N284 C285 1.373 . S
C285 C283 1.350 . S
C285 N284 1.373 . S
C285 H299 0.931 . S
C286 O289 1.256 . S
C286 O290 1.255 . S
O287 Co270 2.021 . S
O287 C280 1.259 . S
O288 Co272 2.117 . S
O288 C280 1.258 . S
O289 Co272 2.020 . S
O289 C286 1.256 . S
O290 Co270 2.062 . S
O290 C286 1.255 . S
O291 C271 1.259 . S
O291 Co272 2.021 . S
H292 C283 0.930 . S
H293 C282 0.931 . S
O294 Co270 2.117 . S
O294 C271 1.258 . S
O295 Co270 2.020 . S
O295 C297 1.256 . S
O296 Co272 2.062 . S
O296 C297 1.255 . S
C297 O295 1.256 . S
C297 O296 1.255 . S
H298 C277 0.931 . S
H299 C285 0.931 . S
Co300 N305 2.057 . S
Co300 O317 2.021 . S
Co300 O320 2.062 . S
Co300 O324 2.117 . S
Co300 O325 2.020 . S
C301 O321 1.259 . S
C301 O324 1.258 . S
Co302 N311 2.057 . S
Co302 O318 2.117 . S
Co302 O319 2.020 . S
Co302 O321 2.021 . S
Co302 O326 2.062 . S
C303 N305 1.316 . S
C303 N306 1.347 . S
C303 H308 0.931 . S
C304 N305 1.375 . S
C304 C307 1.350 . S
C304 H309 0.930 . S
N305 Co300 2.057 . S
N305 C303 1.316 . S
N305 C304 1.375 . S
N306 C303 1.347 . S
N306 C307 1.373 . S
C307 C304 1.350 . S
C307 N306 1.373 . S
C307 H328 0.931 . S
H308 C303 0.931 . S
H309 C304 0.930 . S
C310 O317 1.259 . S
C310 O318 1.258 . S
N311 Co302 2.057 . S
N311 C312 1.316 . S
N311 C313 1.375 . S
C312 N311 1.316 . S
C312 N314 1.347 . S
C312 H323 0.931 . S
C313 N311 1.375 . S
C313 C315 1.350 . S
C313 H322 0.930 . S
N314 C312 1.347 . S
N314 C315 1.373 . S
C315 C313 1.350 . S
C315 N314 1.373 . S
C315 H329 0.931 . S
C316 O319 1.256 . S
C316 O320 1.255 . S
O317 Co300 2.021 . S
O317 C310 1.259 . S
O318 Co302 2.117 . S
O318 C310 1.258 . S
O319 Co302 2.020 . S
O319 C316 1.256 . S
O320 Co300 2.062 . S
O320 C316 1.255 . S
O321 C301 1.259 . S
O321 Co302 2.021 . S
H322 C313 0.930 . S
H323 C312 0.931 . S
O324 Co300 2.117 . S
O324 C301 1.258 . S
O325 Co300 2.020 . S
O325 C327 1.256 . S
O326 Co302 2.062 . S
O326 C327 1.255 . S
C327 O325 1.256 . S
C327 O326 1.255 . S
H328 C307 0.931 . S
H329 C315 0.931 . S
Co330 N335 2.057 . S
Co330 O347 2.021 . S
Co330 O350 2.062 . S
Co330 O354 2.117 . S
Co330 O355 2.020 . S
C331 O351 1.259 . S
C331 O354 1.258 . S
Co332 N341 2.057 . S
Co332 O348 2.117 . S
Co332 O349 2.020 . S
Co332 O351 2.021 . S
Co332 O356 2.062 . S
C333 N335 1.316 . S
C333 N336 1.347 1_655 S
C333 H338 0.931 . S
C334 N335 1.375 . S
C334 C337 1.350 1_655 S
C334 H339 0.930 . S
N335 Co330 2.057 . S
N335 C333 1.316 . S
N335 C334 1.375 . S
N336 C333 1.347 1_455 S
N336 C337 1.373 . S
C337 C334 1.350 1_455 S
C337 N336 1.373 . S
C337 H358 0.931 . S
H338 C333 0.931 . S
H339 C334 0.930 . S
C340 O347 1.259 . S
C340 O348 1.258 . S
N341 Co332 2.057 . S
N341 C342 1.316 . S
N341 C343 1.375 . S
C342 N341 1.316 . S
C342 N344 1.347 . S
C342 H353 0.931 . S
C343 N341 1.375 . S
C343 C345 1.350 . S
C343 H352 0.930 . S
N344 C342 1.347 . S
N344 C345 1.373 . S
C345 C343 1.350 . S
C345 N344 1.373 . S
C345 H359 0.931 . S
C346 O349 1.256 . S
C346 O350 1.255 . S
O347 Co330 2.021 . S
O347 C340 1.259 . S
O348 Co332 2.117 . S
O348 C340 1.258 . S
O349 Co332 2.020 . S
O349 C346 1.256 . S
O350 Co330 2.062 . S
O350 C346 1.255 . S
O351 C331 1.259 . S
O351 Co332 2.021 . S
H352 C343 0.930 . S
H353 C342 0.931 . S
O354 Co330 2.117 . S
O354 C331 1.258 . S
O355 Co330 2.020 . S
O355 C357 1.256 . S
O356 Co332 2.062 . S
O356 C357 1.255 . S
C357 O355 1.256 . S
C357 O356 1.255 . S
H358 C337 0.931 . S
H359 C345 0.931 . S
C360 C361 1.363 . S
C360 C366 1.379 1_565 S
C360 N368 1.356 . S
C361 C360 1.363 . S
C361 C367 1.363 1_565 S
C362 C363 1.363 . S
C362 C367 1.379 . S
C362 N369 1.356 . S
C363 C362 1.363 . S
C363 C366 1.363 . S
N364 C366 1.356 . S
N364 H376 0.984 . S
N364 H377 0.985 . S
N365 C367 1.356 1_565 S
N365 H370 0.984 . S
N365 H371 0.985 1_565 S
C366 C360 1.379 1_545 S
C366 C363 1.363 . S
C366 N364 1.356 . S
C367 C361 1.363 1_545 S
C367 C362 1.379 . S
C367 N365 1.356 1_545 S
N368 C360 1.356 . S
N368 H374 0.984 . S
N368 H375 0.984 . S
N369 C362 1.356 . S
N369 H372 0.984 . S
N369 H373 0.985 . S
H370 N365 0.984 . S
H371 N365 0.985 1_545 S
H372 N369 0.984 . S
H373 N369 0.985 . S
H374 N368 0.984 . S
H375 N368 0.984 . S
H376 N364 0.984 . S
H377 N364 0.985 . S
C378 C379 1.363 . S
C378 C384 1.379 1_455 S
C378 N386 1.356 . S
C379 C378 1.363 . S
C379 C385 1.363 . S
C380 C381 1.363 . S
C380 C385 1.379 . S
C380 N387 1.356 . S
C381 C380 1.363 . S
C381 C384 1.363 1_455 S
N382 C384 1.356 . S
N382 H394 0.984 . S
N382 H395 0.985 . S
N383 C385 1.356 . S
N383 H388 0.984 . S
N383 H389 0.985 . S
C384 C378 1.379 1_655 S
C384 C381 1.363 1_655 S
C384 N382 1.356 . S
C385 C379 1.363 . S
C385 C380 1.379 . S
C385 N383 1.356 . S
N386 C378 1.356 . S
N386 H392 0.984 . S
N386 H393 0.984 . S
N387 C380 1.356 . S
N387 H390 0.984 . S
N387 H391 0.985 . S
H388 N383 0.984 . S
H389 N383 0.985 . S
H390 N387 0.984 . S
H391 N387 0.985 . S
H392 N386 0.984 . S
H393 N386 0.984 . S
H394 N382 0.984 . S
H395 N382 0.985 . S
C396 C397 1.363 . S
C396 C402 1.392 . S
C396 N404 1.356 . S
C397 C396 1.363 . S
C397 C403 1.363 . S
C398 C399 1.363 1_655 S
C398 C403 1.379 . S
C398 N405 1.356 1_655 S
C399 C398 1.363 1_455 S
C399 C402 1.364 1_455 S
N400 C402 1.341 1_455 S
N400 H412 0.984 . S
N400 H413 0.985 . S
N401 C403 1.356 . S
N401 H406 0.984 . S
N401 H407 0.985 . S
C402 C396 1.392 . S
C402 C399 1.364 1_655 S
C402 N400 1.341 1_655 S
C403 C397 1.363 . S
C403 C398 1.379 . S
C403 N401 1.356 . S
N404 C396 1.356 . S
N404 H410 0.984 . S
N404 H411 0.984 . S
N405 C398 1.356 1_455 S
N405 H408 0.984 . S
N405 H409 0.985 . S
H406 N401 0.984 . S
H407 N401 0.985 . S
H408 N405 0.984 . S
H409 N405 0.985 . S
H410 N404 0.984 . S
H411 N404 0.984 . S
H412 N400 0.984 . S
H413 N400 0.985 . S
C414 C415 1.363 . S
C414 C420 1.379 . S
C414 N422 1.356 . S
C415 C414 1.363 . S
C415 C421 1.363 . S
C416 C417 1.363 . S
C416 C421 1.379 . S
C416 N423 1.356 . S
C417 C416 1.363 . S
C417 C420 1.363 . S
N418 C420 1.356 . S
N418 H430 0.984 . S
N418 H431 0.985 . S
N419 C421 1.356 . S
N419 H424 0.984 . S
N419 H425 0.985 . S
C420 C414 1.379 . S
C420 C417 1.363 . S
C420 N418 1.356 . S
C421 C415 1.363 . S
C421 C416 1.379 . S
C421 N419 1.356 . S
N422 C414 1.356 . S
N422 H428 0.984 . S
N422 H429 0.984 . S
N423 C416 1.356 . S
N423 H426 0.984 . S
N423 H427 0.985 . S
H424 N419 0.984 . S
H425 N419 0.985 . S
H426 N423 0.984 . S
H427 N423 0.985 . S
H428 N422 0.984 . S
H429 N422 0.984 . S
H430 N418 0.984 . S
H431 N418 0.985 . S
C432 C433 1.363 . S
C432 C438 1.379 . S
C432 N440 1.356 . S
C433 C432 1.363 . S
C433 C439 1.363 . S
C434 C435 1.363 . S
C434 C439 1.379 . S
C434 N441 1.356 . S
C435 C434 1.363 . S
C435 C438 1.363 . S
N436 C438 1.356 . S
N436 H448 0.984 . S
N436 H449 0.985 . S
N437 C439 1.356 . S
N437 H442 0.984 . S
N437 H443 0.985 . S
C438 C432 1.379 . S
C438 C435 1.363 . S
C438 N436 1.356 . S
C439 C433 1.363 . S
C439 C434 1.379 . S
C439 N437 1.356 . S
N440 C432 1.356 . S
N440 H446 0.984 . S
N440 H447 0.984 . S
N441 C434 1.356 . S
N441 H444 0.984 . S
N441 H445 0.985 . S
H442 N437 0.984 . S
H443 N437 0.985 . S
H444 N441 0.984 . S
H445 N441 0.985 . S
H446 N440 0.984 . S
H447 N440 0.984 . S
H448 N436 0.984 . S
H449 N436 0.985 . S
C450 C451 1.363 . S
C450 C456 1.379 . S
C450 N458 1.356 . S
C451 C450 1.363 . S
C451 C457 1.363 . S
C452 C453 1.363 . S
C452 C457 1.379 . S
C452 N459 1.356 . S
C453 C452 1.363 . S
C453 C456 1.363 . S
N454 C456 1.356 . S
N454 H466 0.985 . S
N454 H467 0.985 1_565 S
N455 C457 1.356 . S
N455 H460 0.984 . S
N455 H461 0.985 . S
C456 C450 1.379 . S
C456 C453 1.363 . S
C456 N454 1.356 . S
C457 C451 1.363 . S
C457 C452 1.379 . S
C457 N455 1.356 . S
N458 C450 1.356 . S
N458 H464 0.984 . S
N458 H465 0.984 . S
N459 C452 1.356 . S
N459 H462 0.984 1_565 S
N459 H463 0.985 . S
H460 N455 0.984 . S
H461 N455 0.985 . S
H462 N459 0.984 1_545 S
H463 N459 0.985 . S
H464 N458 0.984 . S
H465 N458 0.984 . S
H466 N454 0.985 . S
H467 N454 0.985 1_545 S
C468 C469 1.363 . S
C468 C474 1.379 . S
C468 N476 1.356 . S
C469 C468 1.363 . S
C469 C475 1.363 . S
C470 C471 1.363 . S
C470 C475 1.379 . S
C470 N477 1.356 . S
C471 C470 1.363 . S
C471 C474 1.363 . S
N472 C474 1.356 . S
N472 H484 0.984 . S
N472 H485 0.985 . S
N473 C475 1.356 . S
N473 H478 0.984 . S
N473 H479 0.985 . S
C474 C468 1.379 . S
C474 C471 1.363 . S
C474 N472 1.356 . S
C475 C469 1.363 . S
C475 C470 1.379 . S
C475 N473 1.356 . S
N476 C468 1.356 . S
N476 H482 0.984 . S
N476 H483 0.984 . S
N477 C470 1.356 . S
N477 H480 0.984 . S
N477 H481 0.985 . S
H478 N473 0.984 . S
H479 N473 0.985 . S
H480 N477 0.984 . S
H481 N477 0.985 . S
H482 N476 0.984 . S
H483 N476 0.984 . S
H484 N472 0.984 . S
H485 N472 0.985 . S
C486 C487 1.363 . S
C486 C492 1.379 . S
C486 N494 1.356 . S
C487 C486 1.363 . S
C487 C493 1.363 . S
C488 C489 1.363 . S
C488 C493 1.379 . S
C488 N495 1.356 . S
C489 C488 1.363 . S
C489 C492 1.363 . S
N490 C492 1.356 . S
N490 H502 0.984 . S
N490 H503 0.985 . S
N491 C493 1.356 1_655 S
N491 H496 0.984 . S
N491 H497 0.985 . S
C492 C486 1.379 . S
C492 C489 1.363 . S
C492 N490 1.356 . S
C493 C487 1.363 . S
C493 C488 1.379 . S
C493 N491 1.356 1_455 S
N494 C486 1.356 . S
N494 H500 0.984 . S
N494 H501 0.984 . S
N495 C488 1.356 . S
N495 H498 0.984 . S
N495 H499 0.985 . S
H496 N491 0.984 . S
H497 N491 0.985 . S
H498 N495 0.984 . S
H499 N495 0.985 . S
H500 N494 0.984 . S
H501 N494 0.984 . S
H502 N490 0.984 . S
H503 N490 0.985 . S
C504 C505 1.363 . S
C504 C510 1.379 . S
C504 N512 1.356 . S
C505 C504 1.363 . S
C505 C511 1.363 . S
C506 C507 1.363 . S
C506 C511 1.379 . S
C506 N513 1.356 . S
C507 C506 1.363 . S
C507 C510 1.363 . S
N508 C510 1.356 1_565 S
N508 H520 0.984 . S
N508 H521 0.985 . S
N509 C511 1.356 . S
N509 H514 0.984 . S
N509 H515 0.985 . S
C510 C504 1.379 . S
C510 C507 1.363 . S
C510 N508 1.356 1_545 S
C511 C505 1.363 . S
C511 C506 1.379 . S
C511 N509 1.356 . S
N512 C504 1.356 . S
N512 H518 0.984 . S
N512 H519 0.984 . S
N513 C506 1.356 . S
N513 H516 0.984 . S
N513 H517 0.985 . S
H514 N509 0.984 . S
H515 N509 0.985 . S
H516 N513 0.984 . S
H517 N513 0.985 . S
H518 N512 0.984 . S
H519 N512 0.984 . S
H520 N508 0.984 . S
H521 N508 0.985 . S
C522 C523 1.363 . S
C522 C528 1.379 . S
C522 N530 1.356 . S
C523 C522 1.363 . S
C523 C529 1.363 . S
C524 C525 1.363 . S
C524 C529 1.379 . S
C524 N531 1.356 . S
C525 C524 1.363 . S
C525 C528 1.363 . S
N526 C528 1.356 . S
N526 H538 0.984 . S
N526 H539 0.985 . S
N527 C529 1.356 . S
N527 H532 0.984 . S
N527 H533 0.985 . S
C528 C522 1.379 . S
C528 C525 1.363 . S
C528 N526 1.356 . S
C529 C523 1.363 . S
C529 C524 1.379 . S
C529 N527 1.356 . S
N530 C522 1.356 . S
N530 H536 0.984 . S
N530 H537 0.984 . S
N531 C524 1.356 . S
N531 H534 0.984 . S
N531 H535 0.985 . S
H532 N527 0.984 . S
H533 N527 0.985 . S
H534 N531 0.984 . S
H535 N531 0.985 . S
H536 N530 0.984 . S
H537 N530 0.984 . S
H538 N526 0.984 . S
H539 N526 0.985 . S
C540 C541 1.363 . S
C540 C546 1.379 . S
C540 N548 1.356 . S
C541 C540 1.363 . S
C541 C547 1.363 . S
C542 C543 1.363 . S
C542 C547 1.379 . S
C542 N549 1.356 . S
C543 C542 1.363 . S
C543 C546 1.363 . S
N544 C546 1.356 . S
N544 H556 0.984 . S
N544 H557 0.985 . S
N545 C547 1.356 1_455 S
N545 H550 0.984 . S
N545 H551 0.985 . S
C546 C540 1.379 . S
C546 C543 1.363 . S
C546 N544 1.356 . S
C547 C541 1.363 . S
C547 C542 1.379 . S
C547 N545 1.356 1_655 S
N548 C540 1.356 . S
N548 H554 0.984 . S
N548 H555 0.984 . S
N549 C542 1.356 . S
N549 H552 0.984 . S
N549 H553 0.985 . S
H550 N545 0.984 . S
H551 N545 0.985 . S
H552 N549 0.984 . S
H553 N549 0.985 . S
H554 N548 0.984 . S
H555 N548 0.984 . S
H556 N544 0.984 . S
H557 N544 0.985 . S
C558 C559 1.363 . S
C558 C564 1.379 . S
C558 N566 1.356 . S
C559 C558 1.363 . S
C559 C565 1.363 . S
C560 C561 1.363 . S
C560 C565 1.379 . S
C560 N567 1.356 1_565 S
C561 C560 1.363 . S
C561 C564 1.363 . S
N562 C564 1.356 . S
N562 H574 0.984 . S
N562 H575 0.985 . S
N563 C565 1.356 . S
N563 H568 0.984 . S
N563 H569 0.985 . S
C564 C558 1.379 . S
C564 C561 1.363 . S
C564 N562 1.356 . S
C565 C559 1.363 . S
C565 C560 1.379 . S
C565 N563 1.356 . S
N566 C558 1.356 . S
N566 H572 0.984 . S
N566 H573 0.984 . S
N567 C560 1.356 1_545 S
N567 H570 0.984 . S
N567 H571 0.985 . S
H568 N563 0.984 . S
H569 N563 0.985 . S
H570 N567 0.984 . S
H571 N567 0.985 . S
H572 N566 0.984 . S
H573 N566 0.984 . S
H574 N562 0.984 . S
H575 N562 0.985 . S
C576 C577 1.363 . S
C576 C582 1.379 . S
C576 N584 1.356 . S
C577 C576 1.363 . S
C577 C583 1.363 . S
C578 C579 1.363 . S
C578 C583 1.379 . S
C578 N585 1.356 . S
C579 C578 1.363 . S
C579 C582 1.363 . S
N580 C582 1.356 . S
N580 H592 0.984 . S
N580 H593 0.985 . S
N581 C583 1.356 . S
N581 H586 0.984 . S
N581 H587 0.985 . S
C582 C576 1.379 . S
C582 C579 1.363 . S
C582 N580 1.356 . S
C583 C577 1.363 . S
C583 C578 1.379 . S
C583 N581 1.356 . S
N584 C576 1.356 . S
N584 H590 0.984 . S
N584 H591 0.984 . S
N585 C578 1.356 . S
N585 H588 0.984 . S
N585 H589 0.985 . S
H586 N581 0.984 . S
H587 N581 0.985 . S
H588 N585 0.984 . S
H589 N585 0.985 . S
H590 N584 0.984 . S
H591 N584 0.984 . S
H592 N580 0.984 . S
H593 N580 0.985 . S
C594 C595 1.363 . S
C594 C600 1.379 . S
C594 N602 1.356 . S
C595 C594 1.363 . S
C595 C601 1.363 . S
C596 C597 1.363 . S
C596 C601 1.379 . S
C596 N603 1.356 . S
C597 C596 1.363 . S
C597 C600 1.363 . S
N598 C600 1.356 . S
N598 H610 0.984 . S
N598 H611 0.985 . S
N599 C601 1.356 . S
N599 H604 0.984 . S
N599 H605 0.985 . S
C600 C594 1.379 . S
C600 C597 1.363 . S
C600 N598 1.356 . S
C601 C595 1.363 . S
C601 C596 1.379 . S
C601 N599 1.356 . S
N602 C594 1.356 . S
N602 H608 0.984 . S
N602 H609 0.984 . S
N603 C596 1.356 . S
N603 H606 0.984 . S
N603 H607 0.985 . S
H604 N599 0.984 . S
H605 N599 0.985 . S
H606 N603 0.984 . S
H607 N603 0.985 . S
H608 N602 0.984 . S
H609 N602 0.984 . S
H610 N598 0.984 . S
H611 N598 0.985 . S
C612 C613 1.363 . S
C612 C618 1.379 . S
C612 N620 1.356 . S
C613 C612 1.363 . S
C613 C619 1.363 . S
C614 C615 1.363 . S
C614 C619 1.379 . S
C614 N621 1.356 . S
C615 C614 1.363 . S
C615 C618 1.363 . S
N616 C618 1.356 . S
N616 H628 0.984 . S
N616 H629 0.985 . S
N617 C619 1.356 . S
N617 H622 0.984 . S
N617 H623 0.985 . S
C618 C612 1.379 . S
C618 C615 1.363 . S
C618 N616 1.356 . S
C619 C613 1.363 . S
C619 C614 1.379 . S
C619 N617 1.356 . S
N620 C612 1.356 . S
N620 H626 0.984 . S
N620 H627 0.984 . S
N621 C614 1.356 . S
N621 H624 0.984 . S
N621 H625 0.985 . S
H622 N617 0.984 . S
H623 N617 0.985 . S
H624 N621 0.984 . S
H625 N621 0.985 . S
H626 N620 0.984 . S
H627 N620 0.984 . S
H628 N616 0.984 . S
H629 N616 0.985 . S
C630 C631 1.363 . S
C630 C636 1.379 . S
C630 N638 1.356 . S
C631 C630 1.363 . S
C631 C637 1.363 . S
C632 C633 1.363 . S
C632 C637 1.379 . S
C632 N639 1.356 . S
C633 C632 1.363 . S
C633 C636 1.363 . S
N634 C636 1.356 . S
N634 H646 0.984 . S
N634 H647 0.985 . S
N635 C637 1.356 . S
N635 H640 0.984 . S
N635 H641 0.985 . S
C636 C630 1.379 . S
C636 C633 1.363 . S
C636 N634 1.356 . S
C637 C631 1.363 . S
C637 C632 1.379 . S
C637 N635 1.356 . S
N638 C630 1.356 . S
N638 H644 0.984 . S
N638 H645 0.984 . S
N639 C632 1.356 . S
N639 H642 0.984 . S
N639 H643 0.985 1_655 S
H640 N635 0.984 . S
H641 N635 0.985 . S
H642 N639 0.984 . S
H643 N639 0.985 1_455 S
H644 N638 0.984 . S
H645 N638 0.984 . S
H646 N634 0.984 . S
H647 N634 0.985 . S
C648 C649 1.363 . S
C648 C654 1.379 . S
C648 N656 1.356 . S
C649 C648 1.363 . S
C649 C655 1.363 . S
C650 C651 1.363 . S
C650 C655 1.379 . S
C650 N657 1.356 . S
C651 C650 1.363 . S
C651 C654 1.363 . S
N652 C654 1.356 . S
N652 H664 0.984 . S
N652 H665 0.985 . S
N653 C655 1.356 . S
N653 H658 0.984 . S
N653 H659 0.985 . S
C654 C648 1.379 . S
C654 C651 1.363 . S
C654 N652 1.356 . S
C655 C649 1.363 . S
C655 C650 1.379 . S
C655 N653 1.356 . S
N656 C648 1.356 . S
N656 H662 0.984 . S
N656 H663 0.984 . S
N657 C650 1.356 . S
N657 H660 0.984 . S
N657 H661 0.985 . S
H658 N653 0.984 . S
H659 N653 0.985 . S
H660 N657 0.984 . S
H661 N657 0.985 . S
H662 N656 0.984 . S
H663 N656 0.984 . S
H664 N652 0.984 . S
H665 N652 0.985 . S
C666 C667 1.363 . S
C666 C672 1.379 . S
C666 N674 1.356 . S
C667 C666 1.363 . S
C667 C673 1.363 . S
C668 C669 1.363 . S
C668 C673 1.379 . S
C668 N675 1.356 . S
C669 C668 1.363 . S
C669 C672 1.363 . S
N670 C672 1.356 . S
N670 H682 0.984 . S
N670 H683 0.985 . S
N671 C673 1.356 . S
N671 H676 0.984 . S
N671 H677 0.985 . S
C672 C666 1.379 . S
C672 C669 1.363 . S
C672 N670 1.356 . S
C673 C667 1.363 . S
C673 C668 1.379 . S
C673 N671 1.356 . S
N674 C666 1.356 . S
N674 H680 0.984 . S
N674 H681 0.984 . S
N675 C668 1.356 . S
N675 H678 0.984 . S
N675 H679 0.985 . S
H676 N671 0.984 . S
H677 N671 0.985 . S
H678 N675 0.984 . S
H679 N675 0.985 . S
H680 N674 0.984 . S
H681 N674 0.984 . S
H682 N670 0.984 . S
H683 N670 0.985 . S
C684 C685 1.363 . S
C684 C690 1.379 . S
C684 N692 1.356 . S
C685 C684 1.363 . S
C685 C691 1.363 . S
C686 C687 1.363 . S
C686 C691 1.379 . S
C686 N693 1.356 . S
C687 C686 1.363 . S
C687 C690 1.363 . S
N688 C690 1.356 . S
N688 H700 0.984 . S
N688 H701 0.985 . S
N689 C691 1.356 . S
N689 H694 0.984 . S
N689 H695 0.985 . S
C690 C684 1.379 . S
C690 C687 1.363 . S
C690 N688 1.356 . S
C691 C685 1.363 . S
C691 C686 1.379 . S
C691 N689 1.356 . S
N692 C684 1.356 . S
N692 H698 0.984 1_565 S
N692 H699 0.984 . S
N693 C686 1.356 . S
N693 H696 0.984 . S
N693 H697 0.985 . S
H694 N689 0.984 . S
H695 N689 0.985 . S
H696 N693 0.984 . S
H697 N693 0.985 . S
H698 N692 0.984 1_545 S
H699 N692 0.984 . S
H700 N688 0.984 . S
H701 N688 0.985 . S
C702 C703 1.363 . S
C702 C708 1.379 . S
C702 N710 1.356 . S
C703 C702 1.363 . S
C703 C709 1.363 . S
C704 C705 1.363 . S
C704 C709 1.379 . S
C704 N711 1.356 . S
C705 C704 1.363 . S
C705 C708 1.363 . S
N706 C708 1.356 . S
N706 H718 0.984 . S
N706 H719 0.985 . S
N707 C709 1.356 . S
N707 H712 0.984 . S
N707 H713 0.985 . S
C708 C702 1.379 . S
C708 C705 1.363 . S
C708 N706 1.356 . S
C709 C703 1.363 . S
C709 C704 1.379 . S
C709 N707 1.356 . S
N710 C702 1.356 . S
N710 H716 0.984 . S
N710 H717 0.984 . S
N711 C704 1.356 . S
N711 H714 0.984 . S
N711 H715 0.985 . S
H712 N707 0.984 . S
H713 N707 0.985 . S
H714 N711 0.984 . S
H715 N711 0.985 . S
H716 N710 0.984 . S
H717 N710 0.984 . S
H718 N706 0.984 . S
H719 N706 0.985 . S
C720 C721 1.363 . S
C720 C726 1.379 . S
C720 N728 1.356 . S
C721 C720 1.363 . S
C721 C727 1.363 . S
C722 C723 1.363 . S
C722 C727 1.379 . S
C722 N729 1.356 . S
C723 C722 1.363 . S
C723 C726 1.363 . S
N724 C726 1.356 . S
N724 H736 0.984 1_455 S
N724 H737 0.985 . S
N725 C727 1.356 . S
N725 H730 0.984 . S
N725 H731 0.985 . S
C726 C720 1.379 . S
C726 C723 1.363 . S
C726 N724 1.356 . S
C727 C721 1.363 . S
C727 C722 1.379 . S
C727 N725 1.356 . S
N728 C720 1.356 . S
N728 H734 0.984 . S
N728 H735 0.984 . S
N729 C722 1.356 . S
N729 H732 0.984 . S
N729 H733 0.985 . S
H730 N725 0.984 . S
H731 N725 0.985 . S
H732 N729 0.984 . S
H733 N729 0.985 . S
H734 N728 0.984 . S
H735 N728 0.984 . S
H736 N724 0.984 1_655 S
H737 N724 0.985 . S
C738 C739 1.363 . S
C738 C744 1.379 . S
C738 N746 1.356 . S
C739 C738 1.363 . S
C739 C745 1.363 . S
C740 C741 1.363 . S
C740 C745 1.379 . S
C740 N747 1.356 . S
C741 C740 1.363 . S
C741 C744 1.363 . S
N742 C744 1.356 . S
N742 H754 0.984 . S
N742 H755 0.985 . S
N743 C745 1.356 . S
N743 H748 0.984 . S
N743 H749 0.985 . S
C744 C738 1.379 . S
C744 C741 1.363 . S
C744 N742 1.356 . S
C745 C739 1.363 . S
C745 C740 1.379 . S
C745 N743 1.356 . S
N746 C738 1.356 . S
N746 H752 0.984 1_545 S
N746 H753 0.984 . S
N747 C740 1.356 . S
N747 H750 0.984 . S
N747 H751 0.985 . S
H748 N743 0.984 . S
H749 N743 0.985 . S
H750 N747 0.984 . S
H751 N747 0.985 . S
H752 N746 0.984 1_565 S
H753 N746 0.984 . S
H754 N742 0.984 . S
H755 N742 0.985 . S
C756 C757 1.363 . S
C756 C762 1.379 . S
C756 N764 1.356 . S
C757 C756 1.363 . S
C757 C763 1.363 . S
C758 C759 1.363 . S
C758 C763 1.379 . S
C758 N765 1.356 . S
C759 C758 1.363 . S
C759 C762 1.363 . S
N760 C762 1.356 . S
N760 H772 0.984 . S
N760 H773 0.985 . S
N761 C763 1.356 . S
N761 H766 0.984 . S
N761 H767 0.985 . S
C762 C756 1.379 . S
C762 C759 1.363 . S
C762 N760 1.356 . S
C763 C757 1.363 . S
C763 C758 1.379 . S
C763 N761 1.356 . S
N764 C756 1.356 . S
N764 H770 0.984 . S
N764 H771 0.984 . S
N765 C758 1.356 . S
N765 H768 0.984 . S
N765 H769 0.985 . S
H766 N761 0.984 . S
H767 N761 0.985 . S
H768 N765 0.984 . S
H769 N765 0.985 . S
H770 N764 0.984 . S
H771 N764 0.984 . S
H772 N760 0.984 . S
H773 N760 0.985 . S
C774 C775 1.363 . S
C774 C780 1.379 . S
C774 N782 1.356 . S
C775 C774 1.363 . S
C775 C781 1.363 . S
C776 C777 1.363 . S
C776 C781 1.379 . S
C776 N783 1.356 . S
C777 C776 1.363 . S
C777 C780 1.363 . S
N778 C780 1.356 . S
N778 H790 0.984 . S
N778 H791 0.985 . S
N779 C781 1.356 . S
N779 H784 0.984 . S
N779 H785 0.985 . S
C780 C774 1.379 . S
C780 C777 1.363 . S
C780 N778 1.356 . S
C781 C775 1.363 . S
C781 C776 1.379 . S
C781 N779 1.356 . S
N782 C774 1.356 . S
N782 H788 0.984 . S
N782 H789 0.984 . S
N783 C776 1.356 . S
N783 H786 0.984 . S
N783 H787 0.985 . S
H784 N779 0.984 . S
H785 N779 0.985 . S
H786 N783 0.984 . S
H787 N783 0.985 . S
H788 N782 0.984 . S
H789 N782 0.984 . S
H790 N778 0.984 . S
H791 N778 0.985 . S
C792 C793 1.363 . S
C792 C798 1.379 . S
C792 N800 1.356 . S
C793 C792 1.363 . S
C793 C799 1.363 . S
C794 C795 1.363 . S
C794 C799 1.379 . S
C794 N801 1.356 . S
C795 C794 1.363 . S
C795 C798 1.363 . S
N796 C798 1.356 . S
N796 H808 0.984 . S
N796 H809 0.985 . S
N797 C799 1.356 . S
N797 H802 0.984 . S
N797 H803 0.985 . S
C798 C792 1.379 . S
C798 C795 1.363 . S
C798 N796 1.356 . S
C799 C793 1.363 . S
C799 C794 1.379 . S
C799 N797 1.356 . S
N800 C792 1.356 . S
N800 H806 0.984 . S
N800 H807 0.984 . S
N801 C794 1.356 . S
N801 H804 0.984 . S
N801 H805 0.985 . S
H802 N797 0.984 . S
H803 N797 0.985 . S
H804 N801 0.984 . S
H805 N801 0.985 . S
H806 N800 0.984 . S
H807 N800 0.984 . S
H808 N796 0.984 . S
H809 N796 0.985 . S
C810 C811 1.363 . S
C810 C816 1.379 . S
C810 N818 1.356 . S
C811 C810 1.363 . S
C811 C817 1.363 . S
C812 C813 1.363 . S
C812 C817 1.379 . S
C812 N819 1.356 . S
C813 C812 1.363 . S
C813 C816 1.363 . S
N814 C816 1.356 . S
N814 H826 0.984 . S
N814 H827 0.985 . S
N815 C817 1.356 . S
N815 H820 0.984 . S
N815 H821 0.985 . S
C816 C810 1.379 . S
C816 C813 1.363 . S
C816 N814 1.356 . S
C817 C811 1.363 . S
C817 C812 1.379 . S
C817 N815 1.356 . S
N818 C810 1.356 . S
N818 H824 0.984 . S
N818 H825 0.984 . S
N819 C812 1.356 . S
N819 H822 0.984 . S
N819 H823 0.985 . S
H820 N815 0.984 . S
H821 N815 0.985 . S
H822 N819 0.984 . S
H823 N819 0.985 . S
H824 N818 0.984 . S
H825 N818 0.984 . S
H826 N814 0.984 . S
H827 N814 0.985 . S
C828 C829 1.363 . S
C828 C834 1.379 . S
C828 N836 1.356 . S
C829 C828 1.363 . S
C829 C835 1.363 . S
C830 C831 1.363 . S
C830 C835 1.379 . S
C830 N837 1.356 . S
C831 C830 1.363 . S
C831 C834 1.363 . S
N832 C834 1.356 . S
N832 H844 0.984 . S
N832 H845 0.985 . S
N833 C835 1.356 . S
N833 H838 0.984 . S
N833 H839 0.985 . S
C834 C828 1.379 . S
C834 C831 1.363 . S
C834 N832 1.356 . S
C835 C829 1.363 . S
C835 C830 1.379 . S
C835 N833 1.356 . S
N836 C828 1.356 . S
N836 H842 0.984 . S
N836 H843 0.984 . S
N837 C830 1.356 . S
N837 H840 0.984 . S
N837 H841 0.985 . S
H838 N833 0.984 . S
H839 N833 0.985 . S
H840 N837 0.984 . S
H841 N837 0.985 . S
H842 N836 0.984 . S
H843 N836 0.984 . S
H844 N832 0.984 . S
H845 N832 0.985 . S
C846 C847 1.363 . S
C846 C852 1.379 . S
C846 N854 1.356 . S
C847 C846 1.363 . S
C847 C853 1.363 . S
C848 C849 1.363 . S
C848 C853 1.379 . S
C848 N855 1.356 . S
C849 C848 1.363 . S
C849 C852 1.363 . S
N850 C852 1.356 . S
N850 H862 0.984 . S
N850 H863 0.985 . S
N851 C853 1.356 . S
N851 H856 0.984 . S
N851 H857 0.985 . S
C852 C846 1.379 . S
C852 C849 1.363 . S
C852 N850 1.356 . S
C853 C847 1.363 . S
C853 C848 1.379 . S
C853 N851 1.356 . S
N854 C846 1.356 . S
N854 H860 0.984 . S
N854 H861 0.984 . S
N855 C848 1.356 . S
N855 H858 0.984 . S
N855 H859 0.985 . S
H856 N851 0.984 . S
H857 N851 0.985 . S
H858 N855 0.984 . S
H859 N855 0.985 . S
H860 N854 0.984 . S
H861 N854 0.984 . S
H862 N850 0.984 . S
H863 N850 0.985 . S
C864 C865 1.363 . S
C864 C870 1.379 . S
C864 N872 1.356 . S
C865 C864 1.363 . S
C865 C871 1.363 . S
C866 C867 1.363 . S
C866 C871 1.379 . S
C866 N873 1.356 . S
C867 C866 1.363 . S
C867 C870 1.363 . S
N868 C870 1.356 . S
N868 H880 0.984 . S
N868 H881 0.985 . S
N869 C871 1.356 . S
N869 H874 0.984 . S
N869 H875 0.985 . S
C870 C864 1.379 . S
C870 C867 1.363 . S
C870 N868 1.356 . S
C871 C865 1.363 . S
C871 C866 1.379 . S
C871 N869 1.356 . S
N872 C864 1.356 . S
N872 H878 0.984 . S
N872 H879 0.984 . S
N873 C866 1.356 . S
N873 H876 0.984 . S
N873 H877 0.985 . S
H874 N869 0.984 . S
H875 N869 0.985 . S
H876 N873 0.984 . S
H877 N873 0.985 . S
H878 N872 0.984 . S
H879 N872 0.984 . S
H880 N868 0.984 . S
H881 N868 0.985 . S
C882 C883 1.363 . S
C882 C888 1.379 . S
C882 N890 1.356 . S
C883 C882 1.363 . S
C883 C889 1.363 . S
C884 C885 1.363 . S
C884 C889 1.379 . S
C884 N891 1.356 . S
C885 C884 1.363 . S
C885 C888 1.363 . S
N886 C888 1.356 . S
N886 H898 0.984 . S
N886 H899 0.985 . S
N887 C889 1.356 . S
N887 H892 0.984 . S
N887 H893 0.985 . S
C888 C882 1.379 . S
C888 C885 1.363 . S
C888 N886 1.356 . S
C889 C883 1.363 . S
C889 C884 1.379 . S
C889 N887 1.356 . S
N890 C882 1.356 . S
N890 H896 0.984 . S
N890 H897 0.984 . S
N891 C884 1.356 . S
N891 H894 0.984 . S
N891 H895 0.985 . S
H892 N887 0.984 . S
H893 N887 0.985 . S
H894 N891 0.984 . S
H895 N891 0.985 . S
H896 N890 0.984 . S
H897 N890 0.984 . S
H898 N886 0.984 . S
H899 N886 0.985 . S
C900 C901 1.363 . S
C900 C906 1.379 1_556 S
C900 N908 1.356 . S
C901 C900 1.363 . S
C901 C907 1.363 . S
C902 C903 1.363 . S
C902 C907 1.379 1_554 S
C902 N909 1.356 . S
C903 C902 1.363 . S
C903 C906 1.363 . S
N904 C906 1.356 . S
N904 H916 0.984 . S
N904 H917 0.985 . S
N905 C907 1.356 . S
N905 H910 0.984 . S
N905 H911 0.985 . S
C906 C900 1.379 1_554 S
C906 C903 1.363 . S
C906 N904 1.356 . S
C907 C901 1.363 . S
C907 C902 1.379 1_556 S
C907 N905 1.356 . S
N908 C900 1.356 . S
N908 H914 0.984 . S
N908 H915 0.984 . S
N909 C902 1.356 . S
N909 H912 0.984 . S
N909 H913 0.985 . S
H910 N905 0.984 . S
H911 N905 0.985 . S
H912 N909 0.984 . S
H913 N909 0.985 . S
H914 N908 0.984 . S
H915 N908 0.984 . S
H916 N904 0.984 . S
H917 N904 0.985 . S
C918 C919 1.366 . S
C918 C924 1.376 1_455 S
C918 N926 1.358 . S
C919 C918 1.366 . S
C919 C925 1.363 . S
C920 C921 1.364 . S
C920 C925 1.377 1_655 S
C920 N927 1.357 . S
C921 C920 1.364 . S
C921 C924 1.363 . S
N922 C924 1.356 . S
N922 H934 0.984 . S
N922 H935 0.985 . S
N923 C925 1.356 . S
N923 H928 0.984 . S
N923 H929 0.985 . S
C924 C918 1.376 1_655 S
C924 C921 1.363 . S
C924 N922 1.356 . S
C925 C919 1.363 . S
C925 C920 1.377 1_455 S
C925 N923 1.356 . S
N926 C918 1.358 . S
N926 H932 0.984 1_455 S
N926 H933 0.984 . S
N927 C920 1.357 . S
N927 H930 0.984 . S
N927 H931 0.985 1_655 S
H928 N923 0.984 . S
H929 N923 0.985 . S
H930 N927 0.984 . S
H931 N927 0.985 1_455 S
H932 N926 0.984 1_655 S
H933 N926 0.984 . S
H934 N922 0.984 . S
H935 N922 0.985 . S
C936 C937 1.363 1_556 S
C936 C942 1.379 1_565 S
C936 N944 1.356 . S
C937 C936 1.363 1_554 S
C937 C943 1.363 . S
C938 C939 1.363 1_554 S
C938 C943 1.379 1_545 S
C938 N945 1.356 . S
C939 C938 1.363 1_556 S
C939 C942 1.363 . S
N940 C942 1.356 . S
N940 H952 0.984 . S
N940 H953 0.985 . S
N941 C943 1.356 . S
N941 H946 0.984 . S
N941 H947 0.985 . S
C942 C936 1.379 1_545 S
C942 C939 1.363 . S
C942 N940 1.356 . S
C943 C937 1.363 . S
C943 C938 1.379 1_565 S
C943 N941 1.356 . S
N944 C936 1.356 . S
N944 H950 0.984 . S
N944 H951 0.984 1_556 S
N945 C938 1.356 . S
N945 H948 0.984 1_554 S
N945 H949 0.985 . S
H946 N941 0.984 . S
H947 N941 0.985 . S
H948 N945 0.984 1_556 S
H949 N945 0.985 . S
H950 N944 0.984 . S
H951 N944 0.984 1_554 S
H952 N940 0.984 . S
H953 N940 0.985 . S
C954 C955 1.363 . S
C954 C960 1.379 . S
C954 N962 1.356 . S
C955 C954 1.363 . S
C955 C961 1.363 . S
C956 C957 1.363 . S
C956 C961 1.379 . S
C956 N963 1.356 . S
C957 C956 1.363 . S
C957 C960 1.363 . S
N958 C960 1.356 . S
N958 H970 0.984 . S
N958 H971 0.985 . S
N959 C961 1.356 . S
N959 H964 0.984 . S
N959 H965 0.985 . S
C960 C954 1.379 . S
C960 C957 1.363 . S
C960 N958 1.356 . S
C961 C955 1.363 . S
C961 C956 1.379 . S
C961 N959 1.356 . S
N962 C954 1.356 . S
N962 H968 0.984 . S
N962 H969 0.984 . S
N963 C956 1.356 . S
N963 H966 0.984 . S
N963 H967 0.985 . S
H964 N959 0.984 . S
H965 N959 0.985 . S
H966 N963 0.984 . S
H967 N963 0.985 . S
H968 N962 0.984 . S
H969 N962 0.984 . S
H970 N958 0.984 . S
H971 N958 0.985 . S
C972 C973 1.345 1_554 S
C972 C978 1.396 1_655 S
C972 N980 1.352 1_554 S
C973 C972 1.345 1_556 S
C973 C979 1.363 . S
C974 C975 1.344 1_556 S
C974 C979 1.396 1_455 S
C974 N981 1.351 1_556 S
C975 C974 1.344 1_554 S
C975 C978 1.363 . S
N976 C978 1.356 . S
N976 H988 0.984 . S
N976 H989 0.985 . S
N977 C979 1.356 . S
N977 H982 0.984 . S
N977 H983 0.985 . S
C978 C972 1.396 1_455 S
C978 C975 1.363 . S
C978 N976 1.356 . S
C979 C973 1.363 . S
C979 C974 1.396 1_655 S
C979 N977 1.356 . S
N980 C972 1.352 1_556 S
N980 H986 0.984 1_556 S
N980 H987 0.984 . S
N981 C974 1.351 1_554 S
N981 H984 0.984 . S
N981 H985 0.985 1_554 S
H982 N977 0.984 . S
H983 N977 0.985 . S
H984 N981 0.984 . S
H985 N981 0.985 1_556 S
H986 N980 0.984 1_554 S
H987 N980 0.984 . S
H988 N976 0.984 . S
H989 N976 0.985 . S
C990 C991 1.363 . S
C990 C996 1.379 1_565 S
C990 N998 1.356 . S
C991 C990 1.363 . S
C991 C997 1.363 . S
C992 C993 1.363 . S
C992 C997 1.379 1_545 S
C992 N999 1.356 . S
C993 C992 1.363 . S
C993 C996 1.363 . S
N994 C996 1.356 . S
N994 H1006 0.984 . S
N994 H1007 0.985 . S
N995 C997 1.356 . S
N995 H1000 0.984 . S
N995 H1001 0.985 . S
C996 C990 1.379 1_545 S
C996 C993 1.363 . S
C996 N994 1.356 . S
C997 C991 1.363 . S
C997 C992 1.379 1_565 S
C997 N995 1.356 . S
N998 C990 1.356 . S
N998 H1004 0.984 . S
N998 H1005 0.984 . S
N999 C992 1.356 . S
N999 H1002 0.984 . S
N999 H1003 0.985 . S
H1000 N995 0.984 . S
H1001 N995 0.985 . S
H1002 N999 0.984 . S
H1003 N999 0.985 . S
H1004 N998 0.984 . S
H1005 N998 0.984 . S
H1006 N994 0.984 . S
H1007 N994 0.985 . S
C361 C147 1.219 . S
C363 N14 1.224 . S
C379 N156 0.991 . S
C381 C46 1.020 1_455 S
C397 N74 1.224 . S
C399 C27 1.219 . S
C415 C106 1.020 . S
C417 N36 0.991 . S
C433 N134 1.224 . S
C435 C87 1.219 . S
C451 N96 0.991 . S
C453 C166 1.020 1_565 S
C469 N246 0.991 . S
C471 C196 1.020 . S
C487 C226 1.020 1_455 S
C489 N276 0.991 . S
C505 N306 0.991 . S
C507 C256 1.020 1_545 S
C523 C286 1.020 . S
C525 N336 0.991 . S
C541 C316 1.020 1_655 S
C543 N186 0.991 . S
C559 N216 0.991 . S
C561 C346 1.020 1_565 S
C577 C136 1.297 . S
C579 N6 1.334 . S
C595 C57 1.419 . S
C597 N164 1.368 . S
C613 N66 1.334 . S
C615 C16 1.297 . S
C631 C117 1.419 . S
C633 N44 1.368 . S
C649 C76 1.297 . S
C651 N126 1.334 . S
C667 N104 1.368 . S
C669 C177 1.419 . S
C685 N254 1.367 . S
C687 C207 1.418 . S
C703 C237 1.420 . S
C705 N284 1.369 . S
C721 C267 1.418 . S
C723 N314 1.367 . S
C739 N344 1.369 . S
C741 C297 1.420 . S
C757 C327 1.418 . S
C759 N194 1.367 . S
C775 N224 1.369 . S
C777 C357 1.420 . S
C793 C301 1.600 . S
C795 C10 1.617 . S
C811 C31 1.600 . S
C813 C331 1.600 . S
C829 C70 1.617 . S
C831 C181 1.600 . S
C847 C91 1.600 . S
C849 C211 1.600 . S
C865 C130 1.617 . S
C867 C241 1.600 . S
C883 C271 1.600 . S
C885 C151 1.600 . S
C901 C280 1.984 . S
C903 C1 1.891 . S
C919 C310 1.983 . S
C921 C40 1.983 . S
C937 C61 1.891 . S
C939 C340 1.984 . S
C955 C100 1.983 . S
C957 C190 1.983 . S
C973 C220 1.984 . S
C975 C121 1.891 . S
C991 C250 1.983 . S
C993 C160 1.983 . S
