# Generated by pormake.
# Topology uno, (4)-cn, num edge types: 1
# Building blocks:
#     Node 0, Type 0, BuildingBlock: NAWXER_clean_sbu_0, # of connection points: 4
#     Node 1, Type 0, BuildingBlock: NAWXER_clean_sbu_0, # of connection points: 4
#     Node 2, Type 0, BuildingBlock: NAWXER_clean_sbu_0, # of connection points: 4
#     Node 3, Type 0, BuildingBlock: NAWXER_clean_sbu_0, # of connection points: 4
#     Node 4, Type 0, BuildingBlock: NAWXER_clean_sbu_0, # of connection points: 4
#     Node 5, Type 0, BuildingBlock: NAWXER_clean_sbu_0, # of connection points: 4
#     Node 6, Type 0, BuildingBlock: NAWXER_clean_sbu_0, # of connection points: 4
#     Node 7, Type 0, BuildingBlock: NAWXER_clean_sbu_0, # of connection points: 4
#     Node 8, Type 0, BuildingBlock: NAWXER_clean_sbu_0, # of connection points: 4
#     Node 9, Type 0, BuildingBlock: NAWXER_clean_sbu_0, # of connection points: 4
#     Node 10, Type 0, BuildingBlock: NAWXER_clean_sbu_0, # of connection points: 4
#     Node 11, Type 0, BuildingBlock: NAWXER_clean_sbu_0, # of connection points: 4
#     Node 12, Type 0, BuildingBlock: NAWXER_clean_sbu_0, # of connection points: 4
#     Node 13, Type 0, BuildingBlock: NAWXER_clean_sbu_0, # of connection points: 4
#     Node 14, Type 0, BuildingBlock: NAWXER_clean_sbu_0, # of connection points: 4
#     Node 15, Type 0, BuildingBlock: NAWXER_clean_sbu_0, # of connection points: 4
#     Node 16, Type 0, BuildingBlock: NAWXER_clean_sbu_0, # of connection points: 4
#     Node 17, Type 0, BuildingBlock: NAWXER_clean_sbu_0, # of connection points: 4
#     Node 18, Type 0, BuildingBlock: NAWXER_clean_sbu_0, # of connection points: 4
#     Node 19, Type 0, BuildingBlock: NAWXER_clean_sbu_0, # of connection points: 4
#     Node 20, Type 0, BuildingBlock: NAWXER_clean_sbu_0, # of connection points: 4
#     Node 21, Type 0, BuildingBlock: NAWXER_clean_sbu_0, # of connection points: 4
#     Node 22, Type 0, BuildingBlock: NAWXER_clean_sbu_0, # of connection points: 4
#     Node 23, Type 0, BuildingBlock: NAWXER_clean_sbu_0, # of connection points: 4
#     Edge 24, Type (0, 0), BuildingBlock: OJICUG_clean_linker_0, # of connection points: 2
#     Edge 25, Type (0, 0), BuildingBlock: OJICUG_clean_linker_0, # of connection points: 2
#     Edge 26, Type (0, 0), BuildingBlock: OJICUG_clean_linker_0, # of connection points: 2
#     Edge 27, Type (0, 0), BuildingBlock: OJICUG_clean_linker_0, # of connection points: 2
#     Edge 28, Type (0, 0), BuildingBlock: OJICUG_clean_linker_0, # of connection points: 2
#     Edge 29, Type (0, 0), BuildingBlock: OJICUG_clean_linker_0, # of connection points: 2
#     Edge 30, Type (0, 0), BuildingBlock: OJICUG_clean_linker_0, # of connection points: 2
#     Edge 31, Type (0, 0), BuildingBlock: OJICUG_clean_linker_0, # of connection points: 2
#     Edge 32, Type (0, 0), BuildingBlock: OJICUG_clean_linker_0, # of connection points: 2
#     Edge 33, Type (0, 0), BuildingBlock: OJICUG_clean_linker_0, # of connection points: 2
#     Edge 34, Type (0, 0), BuildingBlock: OJICUG_clean_linker_0, # of connection points: 2
#     Edge 35, Type (0, 0), BuildingBlock: OJICUG_clean_linker_0, # of connection points: 2
#     Edge 36, Type (0, 0), BuildingBlock: OJICUG_clean_linker_0, # of connection points: 2
#     Edge 37, Type (0, 0), BuildingBlock: OJICUG_clean_linker_0, # of connection points: 2
#     Edge 38, Type (0, 0), BuildingBlock: OJICUG_clean_linker_0, # of connection points: 2
#     Edge 39, Type (0, 0), BuildingBlock: OJICUG_clean_linker_0, # of connection points: 2
#     Edge 40, Type (0, 0), BuildingBlock: OJICUG_clean_linker_0, # of connection points: 2
#     Edge 41, Type (0, 0), BuildingBlock: OJICUG_clean_linker_0, # of connection points: 2
#     Edge 42, Type (0, 0), BuildingBlock: OJICUG_clean_linker_0, # of connection points: 2
#     Edge 43, Type (0, 0), BuildingBlock: OJICUG_clean_linker_0, # of connection points: 2
#     Edge 44, Type (0, 0), BuildingBlock: OJICUG_clean_linker_0, # of connection points: 2
#     Edge 45, Type (0, 0), BuildingBlock: OJICUG_clean_linker_0, # of connection points: 2
#     Edge 46, Type (0, 0), BuildingBlock: OJICUG_clean_linker_0, # of connection points: 2
#     Edge 47, Type (0, 0), BuildingBlock: OJICUG_clean_linker_0, # of connection points: 2
#     Edge 48, Type (0, 0), BuildingBlock: OJICUG_clean_linker_0, # of connection points: 2
#     Edge 49, Type (0, 0), BuildingBlock: OJICUG_clean_linker_0, # of connection points: 2
#     Edge 50, Type (0, 0), BuildingBlock: OJICUG_clean_linker_0, # of connection points: 2
#     Edge 51, Type (0, 0), BuildingBlock: OJICUG_clean_linker_0, # of connection points: 2
#     Edge 52, Type (0, 0), BuildingBlock: OJICUG_clean_linker_0, # of connection points: 2
#     Edge 53, Type (0, 0), BuildingBlock: OJICUG_clean_linker_0, # of connection points: 2
#     Edge 54, Type (0, 0), BuildingBlock: OJICUG_clean_linker_0, # of connection points: 2
#     Edge 55, Type (0, 0), BuildingBlock: OJICUG_clean_linker_0, # of connection points: 2
#     Edge 56, Type (0, 0), BuildingBlock: OJICUG_clean_linker_0, # of connection points: 2
#     Edge 57, Type (0, 0), BuildingBlock: OJICUG_clean_linker_0, # of connection points: 2
#     Edge 58, Type (0, 0), BuildingBlock: OJICUG_clean_linker_0, # of connection points: 2
#     Edge 59, Type (0, 0), BuildingBlock: OJICUG_clean_linker_0, # of connection points: 2
#     Edge 60, Type (0, 0), BuildingBlock: OJICUG_clean_linker_0, # of connection points: 2
#     Edge 61, Type (0, 0), BuildingBlock: OJICUG_clean_linker_0, # of connection points: 2
#     Edge 62, Type (0, 0), BuildingBlock: OJICUG_clean_linker_0, # of connection points: 2
#     Edge 63, Type (0, 0), BuildingBlock: OJICUG_clean_linker_0, # of connection points: 2
#     Edge 64, Type (0, 0), BuildingBlock: OJICUG_clean_linker_0, # of connection points: 2
#     Edge 65, Type (0, 0), BuildingBlock: OJICUG_clean_linker_0, # of connection points: 2
#     Edge 66, Type (0, 0), BuildingBlock: OJICUG_clean_linker_0, # of connection points: 2
#     Edge 67, Type (0, 0), BuildingBlock: OJICUG_clean_linker_0, # of connection points: 2
#     Edge 68, Type (0, 0), BuildingBlock: OJICUG_clean_linker_0, # of connection points: 2
#     Edge 69, Type (0, 0), BuildingBlock: OJICUG_clean_linker_0, # of connection points: 2
#     Edge 70, Type (0, 0), BuildingBlock: OJICUG_clean_linker_0, # of connection points: 2
#     Edge 71, Type (0, 0), BuildingBlock: OJICUG_clean_linker_0, # of connection points: 2
# Relax obj value: 0.465
# Max RMSD: 0.255
# Mean RMSD: 0.237
data_MOF--net-uno--node1-NAWXER_clean_sbu_0--edge1-OJICUG_clean_linker_0
_symmetry_space_group_name_H-M    P1
_symmetry_Int_Tables_number       1
_symmetry_cell_setting            triclinic
loop_
_symmetry_equiv_pos_as_xyz
'x, y, z'
_cell_length_a     36.611682
_cell_length_b     36.622549
_cell_length_c     36.611244
_cell_angle_alpha  89.762622
_cell_angle_beta   89.760844
_cell_angle_gamma 89.745844
loop_
_atom_site_label
_atom_site_type_symbol
_atom_site_fract_x
_atom_site_fract_y
_atom_site_fract_z
_atom_type_partial_charge
C0 C 0.02545 0.26466 0.27463 0.0
C1 C 0.12983 0.3153 0.21304 0.0
O2 O 0.02987 0.27177 0.241 0.0
Zn3 Zn 0.0746 0.29744 0.2449 0.0
O4 O 0.04692 0.27934 0.29811 0.0
Zn5 Zn 0.09649 0.3131 0.29473 0.0
O6 O 0.08631 0.36214 0.31251 0.0
O7 O 0.06047 0.35201 0.25937 0.0
O8 O 0.1322 0.32094 0.24756 0.0
O9 O 0.10028 0.30309 0.20002 0.0
O10 O 0.10897 0.25733 0.27314 0.0
O11 O 0.12872 0.2832 0.32391 0.0
C12 C 0.06726 0.37346 0.28597 0.0
C13 C 0.12752 0.25568 0.30283 0.0
C14 C 0.99008 0.77207 0.52719 0.0
C15 C 0.94186 0.87493 0.46068 0.0
O16 O 0.9842 0.77529 0.49323 0.0
Zn17 Zn 0.95836 0.82042 0.49465 0.0
O18 O 0.97455 0.79454 0.5494 0.0
Zn19 Zn 0.94098 0.84421 0.54337 0.0
O20 O 0.8912 0.83519 0.55993 0.0
O21 O 0.90319 0.80743 0.50804 0.0
O22 O 0.93493 0.87829 0.49492 0.0
O23 O 0.95449 0.84492 0.44879 0.0
O24 O 0.99744 0.85534 0.52273 0.0
O25 O 0.97002 0.87729 0.57208 0.0
C26 C 0.88076 0.81541 0.53373 0.0
C27 C 0.99819 0.87501 0.55169 0.0
C28 C 0.4858 0.74524 0.77335 0.0
C29 C 0.38097 0.69465 0.71361 0.0
O30 O 0.48121 0.73813 0.73984 0.0
Zn31 Zn 0.43641 0.71249 0.74452 0.0
O32 O 0.46445 0.73056 0.79723 0.0
Zn33 Zn 0.41489 0.69687 0.79481 0.0
O34 O 0.42508 0.64791 0.81297 0.0
O35 O 0.45026 0.65773 0.75915 0.0
O36 O 0.37884 0.68898 0.74821 0.0
O37 O 0.41041 0.70695 0.70006 0.0
O38 O 0.40223 0.75262 0.77288 0.0
O39 O 0.38297 0.72679 0.82422 0.0
C40 C 0.44364 0.63638 0.78612 0.0
C41 C 0.38394 0.75429 0.80288 0.0
C42 C 0.62946 0.19289 0.03145 0.0
C43 C 0.51176 0.13369 0.04968 0.0
O44 O 0.61857 0.17334 0.0579 0.0
Zn45 Zn 0.56908 0.16435 0.04108 0.0
O46 O 0.60744 0.2008 0.00551 0.0
Zn47 Zn 0.55237 0.18796 0.99208 0.0
O48 O 0.52666 0.23312 0.98995 0.0
O49 O 0.53548 0.21407 0.0464 0.0
O50 O 0.51283 0.15317 0.02042 0.0
O51 O 0.53973 0.13151 0.07012 0.0
O52 O 0.57575 0.13008 0.99301 0.0
O53 O 0.5568 0.16344 0.94651 0.0
C54 C 0.52027 0.23644 0.02383 0.0
C55 C 0.56928 0.13344 0.9587 0.0
C56 C 0.95879 0.0056 0.37525 0.0
C57 C 0.97622 0.12352 0.31581 0.0
O58 O 0.93796 0.03347 0.37692 0.0
Zn59 Zn 0.96717 0.06311 0.34454 0.0
O60 O 0.98843 0.0069 0.35635 0.0
Zn61 Zn 0.01679 0.04677 0.3219 0.0
O62 O 0.06186 0.05154 0.34706 0.0
O63 O 0.01458 0.07016 0.37958 0.0
O64 O 0.00265 0.10173 0.30849 0.0
O65 O 0.94964 0.11242 0.335 0.0
O66 O 0.96327 0.02975 0.29485 0.0
O67 O 0.02019 0.02131 0.2769 0.0
C68 C 0.04905 0.064 0.37675 0.0
C69 C 0.98647 0.01478 0.27296 0.0
C70 C 0.23938 0.73596 0.52911 0.0
C71 C 0.18812 0.79627 0.63391 0.0
O72 O 0.23177 0.76947 0.53344 0.0
Zn73 Zn 0.2061 0.7651 0.57844 0.0
O74 O 0.22493 0.71219 0.55073 0.0
Zn75 Zn 0.19104 0.71488 0.60053 0.0
O76 O 0.14208 0.69679 0.59064 0.0
O77 O 0.15157 0.75044 0.56513 0.0
O78 O 0.18283 0.76168 0.63634 0.0
O79 O 0.2001 0.80966 0.60422 0.0
O80 O 0.24652 0.73704 0.61239 0.0
O81 O 0.22137 0.68585 0.63263 0.0
C82 C 0.1304 0.72355 0.572 0.0
C83 C 0.24861 0.7073 0.63101 0.0
C84 C 0.53534 0.88613 0.8139 0.0
C85 C 0.55349 0.0034 0.8734 0.0
O86 O 0.56187 0.89678 0.83313 0.0
Zn87 Zn 0.54482 0.94621 0.84274 0.0
O88 O 0.50918 0.90826 0.80664 0.0
Zn89 Zn 0.49542 0.9632 0.82023 0.0
O90 O 0.49257 0.98914 0.77526 0.0
O91 O 0.54931 0.97991 0.79302 0.0
O92 O 0.52398 0.00248 0.85455 0.0
O93 O 0.57411 0.97537 0.87507 0.0
O94 O 0.49723 0.93937 0.87796 0.0
O95 O 0.4502 0.95867 0.84572 0.0
C96 C 0.52639 0.99532 0.77119 0.0
C97 C 0.46284 0.94591 0.87537 0.0
C98 C 0.37954 0.28462 0.06875 0.0
C99 C 0.26168 0.30142 0.12895 0.0
O100 O 0.36824 0.31106 0.08794 0.0
Zn101 Zn 0.3191 0.29339 0.098 0.0
O102 O 0.35803 0.25814 0.06174 0.0
Zn103 Zn 0.30338 0.2438 0.07565 0.0
O104 O 0.27759 0.24039 0.03089 0.0
O105 O 0.28521 0.29731 0.04847 0.0
O106 O 0.26332 0.2719 0.11014 0.0
O107 O 0.28926 0.3224 0.13048 0.0
O108 O 0.32667 0.24593 0.13343 0.0
O109 O 0.30883 0.19872 0.10105 0.0
C110 C 0.27043 0.27405 0.02683 0.0
C111 C 0.32093 0.21146 0.13077 0.0
C112 C 0.30547 0.12591 0.26156 0.0
C113 C 0.28653 0.06415 0.37843 0.0
O114 O 0.32557 0.12773 0.28978 0.0
Zn115 Zn 0.29646 0.09433 0.31855 0.0
O116 O 0.27638 0.10641 0.26217 0.0
Zn117 Zn 0.24785 0.07097 0.30107 0.0
O118 O 0.20205 0.09547 0.30534 0.0
O119 O 0.24806 0.12852 0.32499 0.0
O120 O 0.26096 0.05669 0.35597 0.0
O121 O 0.31273 0.08423 0.3682 0.0
O122 O 0.30251 0.04525 0.28437 0.0
O123 O 0.24631 0.02634 0.27484 0.0
C124 C 0.21385 0.12528 0.31815 0.0
C125 C 0.28028 0.02315 0.26871 0.0
C126 C 0.1291 0.95956 0.56565 0.0
C127 C 0.23527 0.02101 0.5188 0.0
O128 O 0.15878 0.94646 0.55322 0.0
Zn129 Zn 0.18469 0.99103 0.55013 0.0
O130 O 0.12676 0.99397 0.5723 0.0
Zn131 Zn 0.16307 0.04119 0.56559 0.0
O132 O 0.13148 0.07088 0.53547 0.0
O133 O 0.15159 0.01998 0.50963 0.0
O134 O 0.21306 0.04449 0.5327 0.0
O135 O 0.23105 0.98748 0.52626 0.0
O136 O 0.19357 0.00296 0.60641 0.0
O137 O 0.17264 0.05872 0.61482 0.0
C138 C 0.13319 0.04989 0.50788 0.0
C139 C 0.18757 0.03014 0.62748 0.0
C140 C 0.20344 0.88012 0.76483 0.0
C141 C 0.2228 0.9419 0.88088 0.0
O142 O 0.18408 0.87732 0.79367 0.0
Zn143 Zn 0.21257 0.91158 0.82154 0.0
O144 O 0.23185 0.9006 0.76457 0.0
Zn145 Zn 0.26004 0.93681 0.80237 0.0
O146 O 0.3067 0.91352 0.80535 0.0
O147 O 0.26208 0.87925 0.82678 0.0
O148 O 0.24761 0.95028 0.85761 0.0
O149 O 0.19703 0.92102 0.87155 0.0
O150 O 0.20411 0.96028 0.78738 0.0
O151 O 0.25912 0.9818 0.77587 0.0
C152 C 0.29601 0.88344 0.81887 0.0
C153 C 0.22489 0.98336 0.77083 0.0
C154 C 0.38111 0.04888 0.06587 0.0
C155 C 0.2762 0.98598 0.0193 0.0
O156 O 0.35109 0.06166 0.05413 0.0
Zn157 Zn 0.32593 0.01654 0.05012 0.0
O158 O 0.38412 0.01443 0.072 0.0
Zn159 Zn 0.34906 0.96685 0.0656 0.0
O160 O 0.38101 0.93804 0.035 0.0
O161 O 0.35961 0.98861 0.00933 0.0
O162 O 0.29864 0.96284 0.03348 0.0
O163 O 0.28016 0.01968 0.0259 0.0
O164 O 0.31457 0.0025 0.10562 0.0
O165 O 0.34061 0.94902 0.11506 0.0
C166 C 0.37868 0.95914 0.00738 0.0
C167 C 0.32225 0.97583 0.12699 0.0
C168 C 0.77079 0.23475 0.98225 0.0
C169 C 0.82126 0.29833 0.87884 0.0
O170 O 0.77761 0.26845 0.97846 0.0
Zn171 Zn 0.80373 0.26544 0.93367 0.0
O172 O 0.78598 0.21169 0.96041 0.0
Zn173 Zn 0.82022 0.21612 0.91088 0.0
O174 O 0.86947 0.19849 0.92073 0.0
O175 O 0.85841 0.25108 0.94752 0.0
O176 O 0.82745 0.2639 0.87585 0.0
O177 O 0.80884 0.31075 0.9087 0.0
O178 O 0.76426 0.23747 0.89896 0.0
O179 O 0.79103 0.18725 0.87819 0.0
C180 C 0.88028 0.22473 0.94024 0.0
C181 C 0.76317 0.2081 0.87991 0.0
C182 C 0.0518 0.50595 0.13536 0.0
C183 C 0.03401 0.62347 0.19488 0.0
O184 O 0.07262 0.53366 0.1337 0.0
Zn185 Zn 0.04323 0.56328 0.16597 0.0
O186 O 0.02213 0.50733 0.15418 0.0
Zn187 Zn 0.99356 0.54709 0.1885 0.0
O188 O 0.94858 0.55239 0.16306 0.0
O189 O 0.99598 0.57077 0.1307 0.0
O190 O 0.00763 0.60178 0.20216 0.0
O191 O 0.06057 0.61242 0.17557 0.0
O192 O 0.04706 0.52951 0.21572 0.0
O193 O 0.99009 0.52118 0.23344 0.0
C194 C 0.96152 0.56482 0.13336 0.0
C195 C 0.02383 0.51447 0.23752 0.0
C196 C 0.73979 0.77489 0.48377 0.0
C197 C 0.68932 0.7147 0.3791 0.0
O198 O 0.73259 0.74137 0.47939 0.0
Zn199 Zn 0.70693 0.74576 0.43455 0.0
O200 O 0.72512 0.79866 0.46229 0.0
Zn201 Zn 0.69138 0.79601 0.41269 0.0
O202 O 0.64222 0.814 0.42287 0.0
O203 O 0.65219 0.76032 0.44823 0.0
O204 O 0.68366 0.74928 0.37684 0.0
O205 O 0.70145 0.70123 0.40865 0.0
O206 O 0.7471 0.77395 0.4004 0.0
O207 O 0.72146 0.82514 0.38044 0.0
C208 C 0.63076 0.78718 0.44151 0.0
C209 C 0.74892 0.80374 0.38184 0.0
C210 C 0.88098 0.81622 0.29789 0.0
C211 C 0.98548 0.76486 0.23665 0.0
O212 O 0.91045 0.80358 0.31102 0.0
Zn213 Zn 0.93631 0.79798 0.26623 0.0
O214 O 0.87872 0.8221 0.26335 0.0
Zn215 Zn 0.91461 0.81417 0.2163 0.0
O216 O 0.88258 0.78479 0.18704 0.0
O217 O 0.902 0.75839 0.23796 0.0
O218 O 0.96412 0.77996 0.2131 0.0
O219 O 0.98102 0.77179 0.27026 0.0
O220 O 0.9504 0.85258 0.2517 0.0
O221 O 0.92483 0.86315 0.19838 0.0
C222 C 0.88363 0.75711 0.20816 0.0
C223 C 0.94369 0.87421 0.22499 0.0
C224 C 0.63213 0.19387 0.79586 0.0
C225 C 0.52781 0.24479 0.73463 0.0
O226 O 0.60236 0.20601 0.80895 0.0
Zn227 Zn 0.57696 0.21178 0.76413 0.0
O228 O 0.6348 0.1883 0.76133 0.0
Zn229 Zn 0.59932 0.19624 0.71423 0.0
O230 O 0.63156 0.22615 0.68506 0.0
O231 O 0.61122 0.25192 0.73591 0.0
O232 O 0.54954 0.23019 0.71104 0.0
O233 O 0.53203 0.23748 0.76822 0.0
O234 O 0.56332 0.15728 0.74957 0.0
O235 O 0.58954 0.14725 0.69634 0.0
C236 C 0.62999 0.25361 0.70621 0.0
C237 C 0.5704 0.1359 0.7229 0.0
C238 C 0.45928 0.50462 0.63638 0.0
C239 C 0.47749 0.38638 0.69505 0.0
O240 O 0.4387 0.47677 0.63464 0.0
Zn241 Zn 0.46796 0.44705 0.66689 0.0
O242 O 0.48881 0.50326 0.65521 0.0
Zn243 Zn 0.51731 0.46323 0.68947 0.0
O244 O 0.56258 0.45873 0.66419 0.0
O245 O 0.51567 0.44018 0.63172 0.0
O246 O 0.50373 0.40809 0.70239 0.0
O247 O 0.4508 0.3977 0.67623 0.0
O248 O 0.46345 0.48033 0.71664 0.0
O249 O 0.52017 0.48842 0.73464 0.0
C250 C 0.55006 0.44638 0.63448 0.0
C251 C 0.4864 0.49515 0.73856 0.0
C252 C 0.02023 0.2726 0.98537 0.0
C253 C 0.06812 0.37558 0.05027 0.0
O254 O 0.0263 0.27599 0.01924 0.0
Zn255 Zn 0.05172 0.32107 0.01701 0.0
O256 O 0.03545 0.29491 0.96274 0.0
Zn257 Zn 0.06863 0.34457 0.96794 0.0
O258 O 0.11834 0.33544 0.9511 0.0
O259 O 0.10695 0.30802 0.00349 0.0
O260 O 0.07479 0.37887 0.01595 0.0
O261 O 0.05571 0.34565 0.06254 0.0
O262 O 0.01214 0.3559 0.98871 0.0
O263 O 0.03919 0.37744 0.93892 0.0
C264 C 0.12913 0.31584 0.97753 0.0
C265 C 0.0111 0.37535 0.95944 0.0
C266 C 0.3811 0.69581 0.47892 0.0
C267 C 0.49896 0.63608 0.4605 0.0
O268 O 0.39196 0.6763 0.45253 0.0
Zn269 Zn 0.4416 0.66704 0.46911 0.0
O270 O 0.4032 0.70352 0.50473 0.0
Zn271 Zn 0.45837 0.69036 0.51799 0.0
O272 O 0.48392 0.7354 0.51984 0.0
O273 O 0.47503 0.71661 0.46349 0.0
O274 O 0.49791 0.6555 0.48965 0.0
O275 O 0.47097 0.6341 0.44011 0.0
O276 O 0.43533 0.63257 0.51731 0.0
O277 O 0.45428 0.66559 0.56367 0.0
C278 C 0.49021 0.73883 0.48593 0.0
C279 C 0.44195 0.63568 0.55158 0.0
C280 C 0.63036 0.55122 0.44529 0.0
C281 C 0.73662 0.48937 0.49155 0.0
O282 O 0.65999 0.56419 0.45743 0.0
Zn283 Zn 0.68604 0.51949 0.46047 0.0
O284 O 0.62815 0.51682 0.43871 0.0
Zn285 Zn 0.66461 0.46945 0.44518 0.0
O286 O 0.63313 0.4399 0.47546 0.0
O287 O 0.65294 0.49071 0.50121 0.0
O288 O 0.71457 0.46597 0.47778 0.0
O289 O 0.73227 0.52292 0.48408 0.0
O290 O 0.69532 0.50734 0.40422 0.0
O291 O 0.67421 0.45184 0.39592 0.0
C292 C 0.63467 0.46087 0.50305 0.0
C293 C 0.68933 0.48022 0.3832 0.0
C294 C 0.80548 0.38468 0.74867 0.0
C295 C 0.78698 0.44658 0.63197 0.0
O296 O 0.82605 0.38333 0.72058 0.0
Zn297 Zn 0.79662 0.41647 0.69186 0.0
O298 O 0.77596 0.40378 0.74799 0.0
Zn299 Zn 0.74728 0.43906 0.70902 0.0
O300 O 0.70207 0.41412 0.70435 0.0
O301 O 0.74903 0.38162 0.68495 0.0
O302 O 0.76086 0.45362 0.65422 0.0
O303 O 0.81351 0.42692 0.64241 0.0
O304 O 0.80107 0.46549 0.72633 0.0
O305 O 0.74427 0.4835 0.73542 0.0
C306 C 0.71464 0.38448 0.69155 0.0
C307 C 0.77803 0.48715 0.7419 0.0
C308 C 0.88025 0.46096 0.94386 0.0
C309 C 0.77571 0.52525 0.99167 0.0
O310 O 0.85026 0.44854 0.956 0.0
Zn311 Zn 0.82509 0.49396 0.96031 0.0
O312 O 0.88325 0.49534 0.93752 0.0
Zn313 Zn 0.84832 0.54322 0.94394 0.0
O314 O 0.88044 0.57203 0.97387 0.0
O315 O 0.85898 0.52199 1.00032 0.0
O316 O 0.79801 0.54804 0.97677 0.0
O317 O 0.77967 0.49143 0.98549 0.0
O318 O 0.81253 0.50806 0.90518 0.0
O319 O 0.83966 0.56053 0.89438 0.0
C320 C 0.87811 0.55128 0.00175 0.0
C321 C 0.82037 0.53424 0.88329 0.0
C322 C 0.70432 0.6313 0.24754 0.0
C323 C 0.7232 0.57044 0.13063 0.0
O324 O 0.68467 0.63432 0.21906 0.0
Zn325 Zn 0.71321 0.60032 0.19037 0.0
O326 O 0.7329 0.61081 0.24714 0.0
Zn327 Zn 0.76105 0.57493 0.20853 0.0
O328 O 0.80748 0.59816 0.20495 0.0
O329 O 0.76243 0.6327 0.18462 0.0
O330 O 0.74825 0.56187 0.15342 0.0
O331 O 0.69735 0.5913 0.1405 0.0
O332 O 0.70547 0.55125 0.22415 0.0
O333 O 0.76078 0.52974 0.2346 0.0
C334 C 0.79644 0.62839 0.19193 0.0
C335 C 0.72661 0.52802 0.24012 0.0
C336 C 0.22794 0.32822 0.1823 0.0
C337 C 0.22756 0.31022 0.14852 0.0
H338 H 0.19699 0.34393 0.22962 0.0
C339 C 0.1942 0.29813 0.13437 0.0
H340 H 0.25338 0.33785 0.19371 0.0
C341 C 0.16201 0.30221 0.15439 0.0
C342 C 0.16259 0.3178 0.1894 0.0
H343 H 0.19311 0.28464 0.1081 0.0
H344 H 0.13701 0.29136 0.14313 0.0
C345 C 0.1957 0.33168 0.20279 0.0
C346 C 0.92528 0.94044 0.44841 0.0
C347 C 0.94043 0.90722 0.43632 0.0
H348 H 0.9188 0.99787 0.43817 0.0
C349 C 0.9583 0.90623 0.40229 0.0
H350 H 0.91127 0.94204 0.47448 0.0
C351 C 0.96318 0.93815 0.38202 0.0
C352 C 0.94969 0.97164 0.39496 0.0
H353 H 0.97024 0.88113 0.39209 0.0
H354 H 0.97831 0.93675 0.35656 0.0
C355 C 0.92958 0.97237 0.4277 0.0
C356 C 0.28283 0.68076 0.68416 0.0
C357 C 0.2829 0.69879 0.65024 0.0
H358 H 0.31414 0.66535 0.73124 0.0
C359 C 0.31607 0.71131 0.63563 0.0
H360 H 0.25755 0.67083 0.69592 0.0
C361 C 0.34836 0.70759 0.65531 0.0
C362 C 0.34809 0.69193 0.69043 0.0
H363 H 0.31691 0.72486 0.60926 0.0
H364 H 0.3732 0.71874 0.64368 0.0
C365 C 0.31518 0.67767 0.70431 0.0
C366 C 0.5544 0.10259 0.90006 0.0
C367 C 0.57118 0.10124 0.9345 0.0
H368 H 0.53551 0.07251 0.85398 0.0
C369 C 0.58569 0.06782 0.94699 0.0
H370 H 0.54303 0.12785 0.88951 0.0
C371 C 0.58172 0.03604 0.92625 0.0
C372 C 0.56261 0.03715 0.8931 0.0
H373 H 0.59886 0.06595 0.97337 0.0
H374 H 0.5919 0.01037 0.93703 0.0
C375 C 0.54987 0.07083 0.87976 0.0
C376 C 0.2013 0.19056 0.33516 0.0
C377 C 0.18936 0.15747 0.31999 0.0
H378 H 0.19066 0.24785 0.34207 0.0
C379 C 0.15525 0.1565 0.30256 0.0
H380 H 0.22742 0.19215 0.34882 0.0
C381 C 0.13473 0.18835 0.29813 0.0
C382 C 0.14748 0.22174 0.31164 0.0
H383 H 0.14514 0.1315 0.29064 0.0
H384 H 0.10921 0.18698 0.28331 0.0
C385 C 0.18031 0.22242 0.33131 0.0
C386 C 0.06565 0.88072 0.54859 0.0
C387 C 0.03196 0.89486 0.56041 0.0
H388 H 0.12281 0.88957 0.54198 0.0
C389 C 0.03095 0.92888 0.57796 0.0
H390 H 0.06726 0.8543 0.53543 0.0
C391 C 0.06291 0.94951 0.58135 0.0
C392 C 0.09637 0.93606 0.56779 0.0
H393 H 0.00526 0.94031 0.58735 0.0
H394 H 0.06116 0.97644 0.59335 0.0
C395 C 0.09753 0.90091 0.55254 0.0
C396 C 0.35457 0.85307 0.80124 0.0
C397 C 0.32126 0.85185 0.8204 0.0
H398 H 0.40029 0.82297 0.78052 0.0
C399 C 0.31058 0.81887 0.83706 0.0
H400 H 0.36367 0.878 0.78812 0.0
C401 C 0.33189 0.78731 0.833 0.0
C402 C 0.36384 0.78813 0.81167 0.0
H403 H 0.2851 0.81711 0.8521 0.0
H404 H 0.32243 0.76194 0.84498 0.0
C405 C 0.37545 0.82147 0.79665 0.0
C406 C 0.41243 0.10745 0.05101 0.0
C407 C 0.41358 0.0727 0.06744 0.0
H408 H 0.44275 0.15372 0.03238 0.0
C409 C 0.44696 0.05971 0.08143 0.0
H410 H 0.38721 0.11838 0.04003 0.0
C411 C 0.47887 0.08035 0.0774 0.0
C412 C 0.47793 0.1139 0.05873 0.0
H413 H 0.44869 0.03309 0.09431 0.0
H414 H 0.5045 0.06924 0.08723 0.0
C415 C 0.4443 0.12764 0.04641 0.0
C416 C 0.05978 0.08105 0.44224 0.0
C417 C 0.07286 0.06639 0.40919 0.0
H418 H 0.06909 0.08783 0.49971 0.0
C419 C 0.10765 0.05004 0.40843 0.0
H420 H 0.03312 0.09393 0.44366 0.0
C421 C 0.12774 0.04601 0.44044 0.0
C422 C 0.11385 0.05887 0.47379 0.0
H423 H 0.11866 0.03858 0.38345 0.0
H424 H 0.1538 0.03189 0.43926 0.0
C425 C 0.08032 0.07762 0.47428 0.0
C426 C 0.19903 0.85545 0.66533 0.0
C427 C 0.18556 0.8196 0.66673 0.0
H428 H 0.21533 0.90247 0.69545 0.0
C429 C 0.17399 0.80524 0.70056 0.0
H430 H 0.20798 0.86751 0.63977 0.0
C431 C 0.17786 0.82564 0.73261 0.0
C432 C 0.19392 0.86036 0.73126 0.0
H433 H 0.16339 0.77774 0.70251 0.0
H434 H 0.17017 0.81352 0.75854 0.0
C435 C 0.20346 0.87546 0.69727 0.0
C436 C 0.38446 0.9644 0.93989 0.0
C437 C 0.3981 0.95075 0.97304 0.0
H438 H 0.3937 0.97258 0.88287 0.0
C439 C 0.43136 0.9315 0.97311 0.0
H440 H 0.35862 0.97893 0.939 0.0
C441 C 0.45184 0.92823 0.94087 0.0
C442 C 0.439 0.94356 0.90802 0.0
H443 H 0.4424 0.92065 0.99834 0.0
H444 H 0.47827 0.91487 0.94197 0.0
C445 C 0.40451 0.96055 0.90768 0.0
C446 C 0.33213 0.18004 0.22893 0.0
C447 C 0.31479 0.14595 0.22782 0.0
H448 H 0.3477 0.22791 0.19878 0.0
C449 C 0.30381 0.13188 0.19403 0.0
H450 H 0.34091 0.1914 0.2547 0.0
C451 C 0.30826 0.15227 0.16213 0.0
C452 C 0.32316 0.18755 0.16338 0.0
H453 H 0.29087 0.10538 0.19237 0.0
H454 H 0.29825 0.14103 0.13676 0.0
C455 C 0.336 0.20087 0.19695 0.0
C456 C 0.80295 0.37811 0.81614 0.0
C457 C 0.81476 0.3645 0.7823 0.0
H458 H 0.79684 0.3684 0.87329 0.0
C459 C 0.83299 0.33071 0.78101 0.0
H460 H 0.7893 0.40436 0.81794 0.0
C461 C 0.83694 0.30969 0.81283 0.0
C462 C 0.82332 0.32253 0.84644 0.0
H463 H 0.84242 0.31972 0.7552 0.0
H464 H 0.84936 0.28287 0.81086 0.0
C465 C 0.8075 0.35754 0.8479 0.0
C466 C 0.90316 0.55121 0.1014 0.0
C467 C 0.93794 0.5673 0.10072 0.0
H468 H 0.85721 0.5334 0.07045 0.0
C469 C 0.95125 0.58172 0.06757 0.0
H470 H 0.89197 0.53992 0.12642 0.0
C471 C 0.93095 0.57835 0.03542 0.0
C472 C 0.8974 0.55992 0.03588 0.0
H473 H 0.97791 0.59437 0.0662 0.0
H474 H 0.94234 0.58843 0.00997 0.0
C475 C 0.88329 0.54726 0.06928 0.0
C476 C 0.67461 0.70581 0.3127 0.0
C477 C 0.68687 0.69146 0.34624 0.0
H478 H 0.67009 0.69765 0.2548 0.0
C479 C 0.701 0.65574 0.34723 0.0
H480 H 0.66348 0.73322 0.31107 0.0
C481 C 0.70532 0.63585 0.31514 0.0
C482 C 0.69501 0.65092 0.2814 0.0
H483 H 0.71052 0.6437 0.37256 0.0
H484 H 0.71768 0.60893 0.31662 0.0
C485 C 0.67837 0.68552 0.28052 0.0
C486 C 0.85494 0.65842 0.20892 0.0
C487 C 0.82145 0.65996 0.19037 0.0
H488 H 0.90063 0.68814 0.22927 0.0
C489 C 0.81037 0.69318 0.17437 0.0
H490 H 0.86435 0.63329 0.22153 0.0
C491 C 0.8315 0.72465 0.17851 0.0
C492 C 0.86364 0.72347 0.19926 0.0
H493 H 0.78473 0.69519 0.15982 0.0
H494 H 0.82176 0.7502 0.16705 0.0
C495 C 0.87563 0.68991 0.2136 0.0
C496 C 0.636 0.32099 0.71046 0.0
C497 C 0.64963 0.2876 0.69744 0.0
H498 H 0.6453 0.37794 0.71774 0.0
C499 C 0.683 0.287 0.67839 0.0
H500 H 0.61006 0.32228 0.72479 0.0
C501 C 0.7036 0.31897 0.67472 0.0
C502 C 0.69075 0.35208 0.68945 0.0
H503 H 0.69402 0.26156 0.66802 0.0
H504 H 0.73012 0.31747 0.66158 0.0
C505 C 0.65614 0.35293 0.70619 0.0
C506 C 0.42593 0.57007 0.56342 0.0
C507 C 0.44055 0.60326 0.57575 0.0
H508 H 0.41999 0.51257 0.57333 0.0
C509 C 0.45795 0.60412 0.60988 0.0
H510 H 0.41229 0.56857 0.53727 0.0
C511 C 0.46293 0.57211 0.63 0.0
C512 C 0.45001 0.53865 0.61682 0.0
H513 H 0.46946 0.6292 0.62029 0.0
H514 H 0.47771 0.57341 0.65555 0.0
C515 C 0.43033 0.53804 0.58399 0.0
C516 C 0.7302 0.18138 0.82645 0.0
C517 C 0.72931 0.19927 0.86029 0.0
H518 H 0.69981 0.16564 0.77911 0.0
C519 C 0.69568 0.21114 0.87452 0.0
H520 H 0.75585 0.17192 0.81499 0.0
C521 C 0.66371 0.20695 0.85451 0.0
C522 C 0.66475 0.19146 0.81946 0.0
H523 H 0.69421 0.22454 0.90083 0.0
H524 H 0.63847 0.21763 0.86584 0.0
C525 C 0.69816 0.17781 0.80599 0.0
C526 C 0.04782 0.43857 0.12899 0.0
C527 C 0.06091 0.47207 0.11569 0.0
H528 H 0.04086 0.38163 0.11927 0.0
C529 C 0.08044 0.47288 0.08261 0.0
H530 H 0.03313 0.43712 0.15471 0.0
C531 C 0.08453 0.44102 0.06193 0.0
C532 C 0.06974 0.40781 0.07441 0.0
H533 H 0.09089 0.4984 0.07186 0.0
H534 H 0.09807 0.44269 0.03562 0.0
C535 C 0.05249 0.40673 0.10875 0.0
C536 C 0.78287 0.8304 0.32845 0.0
C537 C 0.78311 0.81229 0.36232 0.0
H538 H 0.81396 0.84583 0.28108 0.0
C539 C 0.8164 0.79968 0.37657 0.0
H540 H 0.75749 0.84041 0.31697 0.0
C541 C 0.84862 0.80335 0.35655 0.0
C542 C 0.84818 0.81907 0.32147 0.0
H543 H 0.81738 0.78606 0.40289 0.0
H544 H 0.87355 0.79211 0.3679 0.0
C545 C 0.81515 0.83346 0.30798 0.0
C546 C 0.56136 0.42941 0.56896 0.0
C547 C 0.57405 0.44417 0.60196 0.0
H548 H 0.57106 0.42263 0.51149 0.0
C549 C 0.60858 0.46078 0.60259 0.0
H550 H 0.53492 0.41634 0.56766 0.0
C551 C 0.62876 0.46493 0.57051 0.0
C552 C 0.61524 0.45192 0.53722 0.0
H553 H 0.61928 0.47233 0.62753 0.0
H554 H 0.6546 0.47921 0.57159 0.0
C555 C 0.582 0.43296 0.53686 0.0
C556 C 0.94359 0.38183 0.96318 0.0
C557 C 0.97719 0.39526 0.95049 0.0
H558 H 0.88647 0.39153 0.97002 0.0
C559 C 0.97805 0.42869 0.93159 0.0
H560 H 0.9421 0.35586 0.9774 0.0
C561 C 0.94609 0.44951 0.92771 0.0
C562 C 0.91274 0.43684 0.94209 0.0
H563 H 0.00364 0.43958 0.92147 0.0
H564 H 0.94776 0.47605 0.91465 0.0
C565 C 0.91167 0.40221 0.95873 0.0
C566 C 0.59844 0.60986 0.45903 0.0
C567 C 0.59753 0.57485 0.44347 0.0
H568 H 0.56784 0.65641 0.4767 0.0
C569 C 0.56419 0.56162 0.42998 0.0
H570 H 0.62362 0.62103 0.46957 0.0
C571 C 0.53211 0.58232 0.4337 0.0
C572 C 0.53288 0.61618 0.45154 0.0
H573 H 0.56264 0.53479 0.41776 0.0
H574 H 0.50652 0.57106 0.42432 0.0
C575 C 0.56644 0.63011 0.46332 0.0
C576 C 0.98474 0.18887 0.33198 0.0
C577 C 0.97928 0.16215 0.30517 0.0
H578 H 0.0037 0.24302 0.34338 0.0
C579 C 0.98292 0.17161 0.26829 0.0
H580 H 0.98243 0.18188 0.36068 0.0
C581 C 0.99393 0.20675 0.25831 0.0
C582 C 0.00292 0.23268 0.28514 0.0
H583 H 0.97906 0.15128 0.24725 0.0
H584 H 0.9984 0.21243 0.22958 0.0
C585 C 0.99687 0.22381 0.32208 0.0
C586 C 0.0652 0.73506 0.58762 0.0
C587 C 0.0918 0.72619 0.56135 0.0
H588 H 0.01137 0.75633 0.59748 0.0
C589 C 0.08233 0.72628 0.52436 0.0
H590 H 0.07221 0.73553 0.61635 0.0
C591 C 0.04737 0.73723 0.51356 0.0
C592 C 0.02161 0.74958 0.53952 0.0
H593 H 0.10259 0.7198 0.50369 0.0
H594 H 0.04172 0.73897 0.48458 0.0
C595 C 0.03041 0.74692 0.57681 0.0
C596 C 0.52755 0.82043 0.82985 0.0
C597 C 0.53205 0.84764 0.80309 0.0
H598 H 0.50925 0.76595 0.84147 0.0
C599 C 0.52735 0.83876 0.76628 0.0
H600 H 0.53068 0.82694 0.85851 0.0
C601 C 0.51631 0.80371 0.75641 0.0
C602 C 0.5083 0.77726 0.78334 0.0
H603 H 0.53048 0.85946 0.74527 0.0
H604 H 0.51102 0.79848 0.72783 0.0
C605 C 0.51533 0.78557 0.8201 0.0
C606 C 0.44508 0.27468 0.08377 0.0
C607 C 0.41807 0.28188 0.05755 0.0
H608 H 0.49937 0.25471 0.09368 0.0
C609 C 0.42717 0.28025 0.02044 0.0
H610 H 0.43838 0.27543 0.11261 0.0
C611 C 0.46222 0.2695 0.00957 0.0
C612 C 0.48844 0.25878 0.03566 0.0
H613 H 0.40662 0.28547 0.99983 0.0
H614 H 0.46761 0.26657 0.98061 0.0
C615 C 0.47995 0.26288 0.07292 0.0
C616 C 0.32955 1.00077 0.22622 0.0
C617 C 0.29258 0.0012 0.23687 0.0
H618 H 0.36793 0.99158 0.18263 0.0
C619 C 0.2664 0.98712 0.21259 0.0
H620 H 0.35038 0.01155 0.24406 0.0
C621 C 0.27641 0.97655 0.17727 0.0
C622 C 0.31289 0.9787 0.16596 0.0
H623 H 0.23765 0.98705 0.2197 0.0
H624 H 0.2554 0.96853 0.15818 0.0
C625 C 0.33962 0.98943 0.19106 0.0
C626 C 0.2659 0.06822 0.4792 0.0
C627 C 0.25826 0.03138 0.48695 0.0
H628 H 0.28219 0.10736 0.43844 0.0
C629 C 0.26603 0.00499 0.46006 0.0
H630 H 0.25998 0.08918 0.49918 0.0
C631 C 0.27748 0.01553 0.42513 0.0
C632 C 0.28284 0.05247 0.4168 0.0
H633 H 0.26021 0.9764 0.46487 0.0
H634 H 0.28042 0.99498 0.4041 0.0
C635 C 0.27857 0.07861 0.44448 0.0
C636 C 0.17733 0.99425 0.72321 0.0
C637 C 0.21087 0.00415 0.73889 0.0
H638 H 0.14415 0.99461 0.67506 0.0
C639 C 0.23415 0.0277 0.71914 0.0
H640 H 0.15886 0.97594 0.73735 0.0
C641 C 0.22553 0.03842 0.68338 0.0
C642 C 0.19354 0.02578 0.66693 0.0
H643 H 0.26024 0.03575 0.73031 0.0
H644 H 0.24486 0.05465 0.66788 0.0
C645 C 0.16896 0.00469 0.68743 0.0
C646 C 0.23279 0.92738 0.94667 0.0
C647 C 0.22703 0.95351 0.91906 0.0
H648 H 0.25308 0.91713 1.00073 0.0
C649 C 0.2315 0.99055 0.92706 0.0
H650 H 0.22987 0.89856 0.94084 0.0
C651 C 0.24356 0.00128 0.96152 0.0
C652 C 0.25283 0.97502 0.98822 0.0
H653 H 0.2274 0.01109 0.90607 0.0
H654 H 0.24861 0.03003 0.96601 0.0
C655 C 0.24604 0.938 0.98089 0.0
C656 C 0.19458 0.33178 0.98645 0.0
C657 C 0.16775 0.30509 0.98091 0.0
H658 H 0.24881 0.34295 0.00542 0.0
C659 C 0.1771 0.26818 0.98459 0.0
H660 H 0.18769 0.3605 0.98412 0.0
C661 C 0.21222 0.25806 0.99558 0.0
C662 C 0.23829 0.28477 0.00454 0.0
H663 H 0.15671 0.24722 0.98066 0.0
H664 H 0.21782 0.22932 1.00001 0.0
C665 C 0.22951 0.32174 0.99859 0.0
C666 C 0.71245 0.25049 0.01414 0.0
C667 C 0.73862 0.22381 0.0045 0.0
H668 H 0.65686 0.26139 0.02956 0.0
C669 C 0.7299 0.18679 0.00976 0.0
H670 H 0.71799 0.27928 0.01028 0.0
C671 C 0.69495 0.17672 0.02185 0.0
C672 C 0.66804 0.20347 0.02806 0.0
H673 H 0.74928 0.16559 0.00241 0.0
H674 H 0.68813 0.14801 0.02362 0.0
C675 C 0.67731 0.24038 0.0251 0.0
C676 C 0.08243 0.43914 0.27749 0.0
C677 C 0.05605 0.41197 0.28324 0.0
H678 H 0.09294 0.49365 0.25851 0.0
C679 C 0.01901 0.42096 0.2801 0.0
H680 H 0.11124 0.43254 0.2794 0.0
C681 C 0.00846 0.45607 0.26929 0.0
C682 C 0.03486 0.48247 0.25999 0.0
H683 H 0.99829 0.40028 0.28419 0.0
H684 H 0.97964 0.46138 0.26518 0.0
C685 C 0.07195 0.47408 0.26558 0.0
C686 C 0.83335 0.76786 0.52548 0.0
C687 C 0.84224 0.80466 0.53021 0.0
H688 H 0.79307 0.72943 0.50907 0.0
C689 C 0.81504 0.83143 0.52555 0.0
H690 H 0.85402 0.74684 0.52873 0.0
C691 C 0.7802 0.82169 0.51319 0.0
C692 C 0.77187 0.78493 0.50622 0.0
H693 H 0.82155 0.86008 0.52867 0.0
H694 H 0.7606 0.84306 0.50703 0.0
C695 C 0.79831 0.75802 0.51432 0.0
C696 C 0.28053 0.68921 0.49976 0.0
C697 C 0.27168 0.72597 0.50658 0.0
H698 H 0.32247 0.65094 0.48436 0.0
C699 C 0.29781 0.75296 0.49827 0.0
H700 H 0.26117 0.66779 0.50608 0.0
C701 C 0.33304 0.74321 0.48707 0.0
C702 C 0.34244 0.70644 0.48251 0.0
H703 H 0.29216 0.78155 0.5034 0.0
H704 H 0.35346 0.76431 0.48367 0.0
C705 C 0.31556 0.67957 0.48737 0.0
C706 C 0.00204 0.95658 0.24116 0.0
C707 C 0.97552 0.98297 0.25061 0.0
H708 H 0.01251 0.90087 0.22628 0.0
C709 C 0.93845 0.97467 0.24533 0.0
H710 H 0.03086 0.96183 0.24504 0.0
C711 C 0.92814 0.93983 0.23357 0.0
C712 C 0.95468 0.91266 0.22768 0.0
H713 H 0.91737 0.99423 0.25252 0.0
H714 H 0.89936 0.93328 0.23189 0.0
C715 C 0.99167 0.92155 0.2305 0.0
C716 C 0.57504 0.03535 0.74376 0.0
C717 C 0.53784 0.02712 0.74869 0.0
H718 H 0.61449 0.07668 0.73056 0.0
C719 C 0.51158 0.05357 0.73871 0.0
H720 H 0.59593 0.01574 0.75134 0.0
C721 C 0.52225 0.08859 0.72792 0.0
C722 C 0.55932 0.09743 0.72551 0.0
H723 H 0.48268 0.04838 0.74227 0.0
H724 H 0.50155 0.10932 0.72332 0.0
C725 C 0.58567 0.07019 0.73191 0.0
C726 C 0.49974 0.28632 0.68748 0.0
C727 C 0.5051 0.27688 0.72435 0.0
H728 H 0.4856 0.32881 0.64936 0.0
C729 C 0.49517 0.30233 0.75147 0.0
H730 H 0.50729 0.26749 0.66596 0.0
C731 C 0.4839 0.33758 0.74191 0.0
C732 C 0.48093 0.34762 0.70513 0.0
H733 H 0.49907 0.2962 0.78015 0.0
H734 H 0.47927 0.35754 0.76322 0.0
C735 C 0.48737 0.32137 0.67797 0.0
C736 C 0.92726 0.22934 0.98871 0.0
C737 C 0.91866 0.22739 0.95157 0.0
H738 H 0.96711 0.24318 0.0286 0.0
C739 C 0.946 0.23416 0.92542 0.0
H740 H 0.90645 0.22444 0.00927 0.0
C741 C 0.98067 0.2459 0.93632 0.0
C742 C 0.98865 0.25031 0.97359 0.0
H743 H 0.93969 0.23315 0.89655 0.0
H744 H 1.00035 0.25375 0.91559 0.0
C745 C 0.96213 0.24 0.99965 0.0
C746 C 0.0144 0.72429 0.18927 0.0
C747 C 0.0078 0.7326 0.22619 0.0
H748 H 0.02912 0.68281 0.15049 0.0
C749 C 0.01599 0.70599 0.2529 0.0
H750 H 0.00818 0.74404 0.16806 0.0
C751 C 0.02677 0.67082 0.24275 0.0
C752 C 0.03101 0.66197 0.20584 0.0
H753 H 0.01105 0.71124 0.2816 0.0
H754 H 0.03004 0.65004 0.26365 0.0
C755 C 0.02634 0.6893 0.17922 0.0
C756 C 0.54752 0.77271 0.50003 0.0
C757 C 0.52185 0.7612 0.47391 0.0
H758 H 0.6027 0.78941 0.51004 0.0
C759 C 0.5308 0.76459 0.43665 0.0
H760 H 0.54177 0.77037 0.52899 0.0
C761 C 0.56562 0.77642 0.42594 0.0
C762 C 0.59212 0.78446 0.45229 0.0
H763 H 0.51182 0.75582 0.41587 0.0
H764 H 0.57272 0.77656 0.39718 0.0
C765 C 0.58253 0.78357 0.48931 0.0
C766 C 0.6702 0.50432 0.32294 0.0
C767 C 0.69555 0.48445 0.34374 0.0
H768 H 0.65952 0.53255 0.27287 0.0
C769 C 0.72847 0.47324 0.32764 0.0
H770 H 0.64466 0.51331 0.33507 0.0
C771 C 0.73711 0.48418 0.29193 0.0
C772 C 0.713 0.50669 0.27192 0.0
H773 H 0.7484 0.45799 0.34339 0.0
H774 H 0.7638 0.47723 0.28104 0.0
C775 C 0.67868 0.5151 0.28723 0.0
C776 C 0.76699 0.44212 0.53132 0.0
C777 C 0.75949 0.47899 0.52335 0.0
H778 H 0.7829 0.40306 0.5723 0.0
C779 C 0.76719 0.50546 0.55004 0.0
H780 H 0.76113 0.42108 0.5115 0.0
C781 C 0.7784 0.49503 0.58501 0.0
C782 C 0.78359 0.45809 0.59356 0.0
H783 H 0.76147 0.5341 0.54507 0.0
H784 H 0.78126 0.51567 0.60591 0.0
C785 C 0.77941 0.43181 0.56607 0.0
C786 C 0.77283 0.52928 0.8354 0.0
C787 C 0.80978 0.53142 0.84469 0.0
H788 H 0.73376 0.5156 0.7947 0.0
C789 C 0.83647 0.52495 0.81779 0.0
H790 H 0.75186 0.53395 0.85586 0.0
C791 C 0.82627 0.51343 0.7828 0.0
C792 C 0.78918 0.50894 0.77408 0.0
H793 H 0.8652 0.52611 0.82463 0.0
H794 H 0.8474 0.50587 0.76343 0.0
C795 C 0.7626 0.51885 0.80025 0.0
C796 C 0.73357 0.58494 0.06484 0.0
C797 C 0.72711 0.55888 0.09235 0.0
H798 H 0.75416 0.59475 0.01068 0.0
C799 C 0.73065 0.52175 0.08415 0.0
H800 H 0.73137 0.61381 0.07082 0.0
C801 C 0.74251 0.51077 0.04957 0.0
C802 C 0.7525 0.53683 0.02293 0.0
H803 H 0.72601 0.50126 0.10509 0.0
H804 H 0.74684 0.48188 0.04492 0.0
C805 C 0.74658 0.57402 0.03046 0.0
C806 C 0.49133 0.58815 0.78149 0.0
C807 C 0.45435 0.59774 0.78352 0.0
H808 H 0.53052 0.54716 0.76768 0.0
C809 C 0.42773 0.5711 0.77698 0.0
H810 H 0.51223 0.60842 0.78622 0.0
C811 C 0.43803 0.53608 0.76541 0.0
C812 C 0.47516 0.52708 0.76087 0.0
H813 H 0.39898 0.57819 0.77807 0.0
H814 H 0.41697 0.51694 0.75772 0.0
C815 C 0.50166 0.55294 0.77096 0.0
loop_
_geom_bond_atom_site_label_1
_geom_bond_atom_site_label_2
_geom_bond_distance
_geom_bond_site_symmetry_2
_ccdc_geom_bond_type
C0 O2 1.247 . S
C0 O4 1.258 . S
C1 O8 1.247 . S
C1 O9 1.258 . S
O2 C0 1.247 . S
O2 Zn3 2.028 . S
Zn3 O2 2.028 . S
Zn3 O7 2.035 . S
Zn3 O9 2.035 . S
Zn3 O10 2.028 . S
O4 C0 1.258 . S
O4 Zn5 2.035 . S
Zn5 O4 2.035 . S
Zn5 O6 2.028 . S
Zn5 O8 2.028 . S
Zn5 O11 2.035 . S
O6 Zn5 2.028 . S
O6 C12 1.247 . S
O7 Zn3 2.035 . S
O7 C12 1.258 . S
O8 C1 1.247 . S
O8 Zn5 2.028 . S
O9 C1 1.258 . S
O9 Zn3 2.035 . S
O10 Zn3 2.028 . S
O10 C13 1.247 . S
O11 Zn5 2.035 . S
O11 C13 1.258 . S
C12 O6 1.247 . S
C12 O7 1.258 . S
C13 O10 1.247 . S
C13 O11 1.258 . S
C14 O16 1.247 . S
C14 O18 1.258 . S
C15 O22 1.247 . S
C15 O23 1.258 . S
O16 C14 1.247 . S
O16 Zn17 2.028 . S
Zn17 O16 2.028 . S
Zn17 O21 2.035 1_455 S
Zn17 O23 2.035 1_455 S
Zn17 O24 2.028 . S
O18 C14 1.258 . S
O18 Zn19 2.035 1_455 S
Zn19 O18 2.035 1_655 S
Zn19 O20 2.028 . S
Zn19 O22 2.028 . S
Zn19 O25 2.035 1_655 S
O20 Zn19 2.028 . S
O20 C26 1.247 . S
O21 Zn17 2.035 1_655 S
O21 C26 1.258 . S
O22 C15 1.247 . S
O22 Zn19 2.028 . S
O23 C15 1.258 . S
O23 Zn17 2.035 1_655 S
O24 Zn17 2.028 . S
O24 C27 1.247 . S
O25 Zn19 2.035 1_455 S
O25 C27 1.258 . S
C26 O20 1.247 . S
C26 O21 1.258 . S
C27 O24 1.247 . S
C27 O25 1.258 . S
C28 O30 1.247 . S
C28 O32 1.258 . S
C29 O36 1.247 . S
C29 O37 1.258 . S
O30 C28 1.247 . S
O30 Zn31 2.028 . S
Zn31 O30 2.028 . S
Zn31 O35 2.035 . S
Zn31 O37 2.035 . S
Zn31 O38 2.028 . S
O32 C28 1.258 . S
O32 Zn33 2.035 . S
Zn33 O32 2.035 . S
Zn33 O34 2.028 . S
Zn33 O36 2.028 . S
Zn33 O39 2.035 . S
O34 Zn33 2.028 . S
O34 C40 1.247 . S
O35 Zn31 2.035 . S
O35 C40 1.258 . S
O36 C29 1.247 . S
O36 Zn33 2.028 . S
O37 C29 1.258 . S
O37 Zn31 2.035 . S
O38 Zn31 2.028 . S
O38 C41 1.247 . S
O39 Zn33 2.035 . S
O39 C41 1.258 . S
C40 O34 1.247 . S
C40 O35 1.258 . S
C41 O38 1.247 . S
C41 O39 1.258 . S
C42 O44 1.247 1_556 S
C42 O46 1.258 . S
C43 O50 1.247 1_554 S
C43 O51 1.258 . S
O44 C42 1.247 1_554 S
O44 Zn45 2.028 . S
Zn45 O44 2.028 . S
Zn45 O49 2.035 . S
Zn45 O51 2.035 . S
Zn45 O52 2.028 1_554 S
O46 C42 1.258 . S
O46 Zn47 2.035 . S
Zn47 O46 2.035 . S
Zn47 O48 2.028 1_556 S
Zn47 O50 2.028 . S
Zn47 O53 2.035 . S
O48 Zn47 2.028 1_554 S
O48 C54 1.247 . S
O49 Zn45 2.035 . S
O49 C54 1.258 . S
O50 C43 1.247 1_556 S
O50 Zn47 2.028 . S
O51 C43 1.258 . S
O51 Zn45 2.035 . S
O52 Zn45 2.028 1_556 S
O52 C55 1.247 . S
O53 Zn47 2.035 . S
O53 C55 1.258 . S
C54 O48 1.247 . S
C54 O49 1.258 . S
C55 O52 1.247 . S
C55 O53 1.258 . S
C56 O58 1.247 . S
C56 O60 1.258 1_655 S
C57 O64 1.247 . S
C57 O65 1.258 1_455 S
O58 C56 1.247 . S
O58 Zn59 2.028 1_565 S
Zn59 O58 2.028 1_545 S
Zn59 O63 2.035 1_655 S
Zn59 O65 2.035 . S
Zn59 O66 2.028 1_545 S
O60 C56 1.258 1_455 S
O60 Zn61 2.035 . S
Zn61 O60 2.035 . S
Zn61 O62 2.028 1_565 S
Zn61 O64 2.028 1_565 S
Zn61 O67 2.035 1_455 S
O62 Zn61 2.028 1_545 S
O62 C68 1.247 . S
O63 Zn59 2.035 1_455 S
O63 C68 1.258 . S
O64 C57 1.247 . S
O64 Zn61 2.028 1_545 S
O65 C57 1.258 1_655 S
O65 Zn59 2.035 . S
O66 Zn59 2.028 1_565 S
O66 C69 1.247 . S
O67 Zn61 2.035 1_655 S
O67 C69 1.258 . S
C68 O62 1.247 . S
C68 O63 1.258 . S
C69 O66 1.247 . S
C69 O67 1.258 . S
C70 O72 1.247 . S
C70 O74 1.258 . S
C71 O78 1.247 . S
C71 O79 1.258 . S
O72 C70 1.247 . S
O72 Zn73 2.028 . S
Zn73 O72 2.028 . S
Zn73 O77 2.035 . S
Zn73 O79 2.035 . S
Zn73 O80 2.028 . S
O74 C70 1.258 . S
O74 Zn75 2.035 . S
Zn75 O74 2.035 . S
Zn75 O76 2.028 . S
Zn75 O78 2.028 . S
Zn75 O81 2.035 . S
O76 Zn75 2.028 . S
O76 C82 1.247 . S
O77 Zn73 2.035 . S
O77 C82 1.258 . S
O78 C71 1.247 . S
O78 Zn75 2.028 . S
O79 C71 1.258 . S
O79 Zn73 2.035 . S
O80 Zn73 2.028 . S
O80 C83 1.247 . S
O81 Zn75 2.035 . S
O81 C83 1.258 . S
C82 O76 1.247 . S
C82 O77 1.258 . S
C83 O80 1.247 . S
C83 O81 1.258 . S
C84 O86 1.247 . S
C84 O88 1.258 . S
C85 O92 1.247 . S
C85 O93 1.258 . S
O86 C84 1.247 . S
O86 Zn87 2.028 . S
Zn87 O86 2.028 . S
Zn87 O91 2.035 1_565 S
Zn87 O93 2.035 1_565 S
Zn87 O94 2.028 . S
O88 C84 1.258 . S
O88 Zn89 2.035 1_565 S
Zn89 O88 2.035 1_545 S
Zn89 O90 2.028 . S
Zn89 O92 2.028 . S
Zn89 O95 2.035 1_545 S
O90 Zn89 2.028 . S
O90 C96 1.247 . S
O91 Zn87 2.035 1_545 S
O91 C96 1.258 . S
O92 C85 1.247 . S
O92 Zn89 2.028 . S
O93 C85 1.258 . S
O93 Zn87 2.035 1_545 S
O94 Zn87 2.028 . S
O94 C97 1.247 . S
O95 Zn89 2.035 1_565 S
O95 C97 1.258 . S
C96 O90 1.247 . S
C96 O91 1.258 . S
C97 O94 1.247 . S
C97 O95 1.258 . S
C98 O100 1.247 . S
C98 O102 1.258 . S
C99 O106 1.247 . S
C99 O107 1.258 . S
O100 C98 1.247 . S
O100 Zn101 2.028 . S
Zn101 O100 2.028 . S
Zn101 O105 2.035 . S
Zn101 O107 2.035 . S
Zn101 O108 2.028 . S
O102 C98 1.258 . S
O102 Zn103 2.035 . S
Zn103 O102 2.035 . S
Zn103 O104 2.028 . S
Zn103 O106 2.028 . S
Zn103 O109 2.035 . S
O104 Zn103 2.028 . S
O104 C110 1.247 . S
O105 Zn101 2.035 . S
O105 C110 1.258 . S
O106 C99 1.247 . S
O106 Zn103 2.028 . S
O107 C99 1.258 . S
O107 Zn101 2.035 . S
O108 Zn101 2.028 . S
O108 C111 1.247 . S
O109 Zn103 2.035 . S
O109 C111 1.258 . S
C110 O104 1.247 . S
C110 O105 1.258 . S
C111 O108 1.247 . S
C111 O109 1.258 . S
C112 O114 1.247 . S
C112 O116 1.258 . S
C113 O120 1.247 . S
C113 O121 1.258 . S
O114 C112 1.247 . S
O114 Zn115 2.028 . S
Zn115 O114 2.028 . S
Zn115 O119 2.035 . S
Zn115 O121 2.035 . S
Zn115 O122 2.028 . S
O116 C112 1.258 . S
O116 Zn117 2.035 . S
Zn117 O116 2.035 . S
Zn117 O118 2.028 . S
Zn117 O120 2.028 . S
Zn117 O123 2.035 . S
O118 Zn117 2.028 . S
O118 C124 1.247 . S
O119 Zn115 2.035 . S
O119 C124 1.258 . S
O120 C113 1.247 . S
O120 Zn117 2.028 . S
O121 C113 1.258 . S
O121 Zn115 2.035 . S
O122 Zn115 2.028 . S
O122 C125 1.247 . S
O123 Zn117 2.035 . S
O123 C125 1.258 . S
C124 O118 1.247 . S
C124 O119 1.258 . S
C125 O122 1.247 . S
C125 O123 1.258 . S
C126 O128 1.247 . S
C126 O130 1.258 . S
C127 O134 1.247 . S
C127 O135 1.258 . S
O128 C126 1.247 . S
O128 Zn129 2.028 . S
Zn129 O128 2.028 . S
Zn129 O133 2.035 . S
Zn129 O135 2.035 1_565 S
Zn129 O136 2.028 . S
O130 C126 1.258 . S
O130 Zn131 2.035 1_565 S
Zn131 O130 2.035 1_545 S
Zn131 O132 2.028 . S
Zn131 O134 2.028 . S
Zn131 O137 2.035 . S
O132 Zn131 2.028 . S
O132 C138 1.247 . S
O133 Zn129 2.035 . S
O133 C138 1.258 1_565 S
O134 C127 1.247 . S
O134 Zn131 2.028 . S
O135 C127 1.258 . S
O135 Zn129 2.035 1_545 S
O136 Zn129 2.028 . S
O136 C139 1.247 . S
O137 Zn131 2.035 . S
O137 C139 1.258 1_545 S
C138 O132 1.247 . S
C138 O133 1.258 1_545 S
C139 O136 1.247 . S
C139 O137 1.258 1_565 S
C140 O142 1.247 . S
C140 O144 1.258 . S
C141 O148 1.247 . S
C141 O149 1.258 . S
O142 C140 1.247 . S
O142 Zn143 2.028 . S
Zn143 O142 2.028 . S
Zn143 O147 2.035 . S
Zn143 O149 2.035 . S
Zn143 O150 2.028 . S
O144 C140 1.258 . S
O144 Zn145 2.035 . S
Zn145 O144 2.035 . S
Zn145 O146 2.028 . S
Zn145 O148 2.028 . S
Zn145 O151 2.035 . S
O146 Zn145 2.028 . S
O146 C152 1.247 . S
O147 Zn143 2.035 . S
O147 C152 1.258 . S
O148 C141 1.247 . S
O148 Zn145 2.028 . S
O149 C141 1.258 . S
O149 Zn143 2.035 . S
O150 Zn143 2.028 . S
O150 C153 1.247 . S
O151 Zn145 2.035 . S
O151 C153 1.258 . S
C152 O146 1.247 . S
C152 O147 1.258 . S
C153 O150 1.247 . S
C153 O151 1.258 . S
C154 O156 1.247 . S
C154 O158 1.258 . S
C155 O162 1.247 . S
C155 O163 1.258 . S
O156 C154 1.247 . S
O156 Zn157 2.028 1_554 S
Zn157 O156 2.028 1_556 S
Zn157 O161 2.035 . S
Zn157 O163 2.035 1_545 S
Zn157 O164 2.028 1_556 S
O158 C154 1.258 . S
O158 Zn159 2.035 1_545 S
Zn159 O158 2.035 1_565 S
Zn159 O160 2.028 1_554 S
Zn159 O162 2.028 1_554 S
Zn159 O165 2.035 . S
O160 Zn159 2.028 1_556 S
O160 C166 1.247 . S
O161 Zn157 2.035 . S
O161 C166 1.258 1_545 S
O162 C155 1.247 . S
O162 Zn159 2.028 1_556 S
O163 C155 1.258 . S
O163 Zn157 2.035 1_565 S
O164 Zn157 2.028 1_554 S
O164 C167 1.247 . S
O165 Zn159 2.035 . S
O165 C167 1.258 1_565 S
C166 O160 1.247 . S
C166 O161 1.258 1_565 S
C167 O164 1.247 . S
C167 O165 1.258 1_545 S
C168 O170 1.247 . S
C168 O172 1.258 . S
C169 O176 1.247 . S
C169 O177 1.258 . S
O170 C168 1.247 . S
O170 Zn171 2.028 . S
Zn171 O170 2.028 . S
Zn171 O175 2.035 . S
Zn171 O177 2.035 . S
Zn171 O178 2.028 . S
O172 C168 1.258 . S
O172 Zn173 2.035 . S
Zn173 O172 2.035 . S
Zn173 O174 2.028 . S
Zn173 O176 2.028 . S
Zn173 O179 2.035 . S
O174 Zn173 2.028 . S
O174 C180 1.247 . S
O175 Zn171 2.035 . S
O175 C180 1.258 . S
O176 C169 1.247 . S
O176 Zn173 2.028 . S
O177 C169 1.258 . S
O177 Zn171 2.035 . S
O178 Zn171 2.028 . S
O178 C181 1.247 . S
O179 Zn173 2.035 . S
O179 C181 1.258 . S
C180 O174 1.247 . S
C180 O175 1.258 . S
C181 O178 1.247 . S
C181 O179 1.258 . S
C182 O184 1.247 . S
C182 O186 1.258 1_455 S
C183 O190 1.247 . S
C183 O191 1.258 1_655 S
O184 C182 1.247 . S
O184 Zn185 2.028 . S
Zn185 O184 2.028 . S
Zn185 O189 2.035 1_455 S
Zn185 O191 2.035 . S
Zn185 O192 2.028 . S
O186 C182 1.258 1_655 S
O186 Zn187 2.035 . S
Zn187 O186 2.035 . S
Zn187 O188 2.028 . S
Zn187 O190 2.028 . S
Zn187 O193 2.035 1_655 S
O188 Zn187 2.028 . S
O188 C194 1.247 . S
O189 Zn185 2.035 1_655 S
O189 C194 1.258 . S
O190 C183 1.247 . S
O190 Zn187 2.028 . S
O191 C183 1.258 1_455 S
O191 Zn185 2.035 . S
O192 Zn185 2.028 . S
O192 C195 1.247 . S
O193 Zn187 2.035 1_455 S
O193 C195 1.258 . S
C194 O188 1.247 . S
C194 O189 1.258 . S
C195 O192 1.247 . S
C195 O193 1.258 . S
C196 O198 1.247 . S
C196 O200 1.258 . S
C197 O204 1.247 . S
C197 O205 1.258 . S
O198 C196 1.247 . S
O198 Zn199 2.028 . S
Zn199 O198 2.028 . S
Zn199 O203 2.035 . S
Zn199 O205 2.035 . S
Zn199 O206 2.028 . S
O200 C196 1.258 . S
O200 Zn201 2.035 . S
Zn201 O200 2.035 . S
Zn201 O202 2.028 . S
Zn201 O204 2.028 . S
Zn201 O207 2.035 . S
O202 Zn201 2.028 . S
O202 C208 1.247 . S
O203 Zn199 2.035 . S
O203 C208 1.258 . S
O204 C197 1.247 . S
O204 Zn201 2.028 . S
O205 C197 1.258 . S
O205 Zn199 2.035 . S
O206 Zn199 2.028 . S
O206 C209 1.247 . S
O207 Zn201 2.035 . S
O207 C209 1.258 . S
C208 O202 1.247 . S
C208 O203 1.258 . S
C209 O206 1.247 . S
C209 O207 1.258 . S
C210 O212 1.247 . S
C210 O214 1.258 . S
C211 O218 1.247 . S
C211 O219 1.258 . S
O212 C210 1.247 . S
O212 Zn213 2.028 . S
Zn213 O212 2.028 . S
Zn213 O217 2.035 . S
Zn213 O219 2.035 . S
Zn213 O220 2.028 . S
O214 C210 1.258 . S
O214 Zn215 2.035 . S
Zn215 O214 2.035 . S
Zn215 O216 2.028 . S
Zn215 O218 2.028 . S
Zn215 O221 2.035 . S
O216 Zn215 2.028 . S
O216 C222 1.247 . S
O217 Zn213 2.035 . S
O217 C222 1.258 . S
O218 C211 1.247 . S
O218 Zn215 2.028 . S
O219 C211 1.258 . S
O219 Zn213 2.035 . S
O220 Zn213 2.028 . S
O220 C223 1.247 . S
O221 Zn215 2.035 . S
O221 C223 1.258 . S
C222 O216 1.247 . S
C222 O217 1.258 . S
C223 O220 1.247 . S
C223 O221 1.258 . S
C224 O226 1.247 . S
C224 O228 1.258 . S
C225 O232 1.247 . S
C225 O233 1.258 . S
O226 C224 1.247 . S
O226 Zn227 2.028 . S
Zn227 O226 2.028 . S
Zn227 O231 2.035 . S
Zn227 O233 2.035 . S
Zn227 O234 2.028 . S
O228 C224 1.258 . S
O228 Zn229 2.035 . S
Zn229 O228 2.035 . S
Zn229 O230 2.028 . S
Zn229 O232 2.028 . S
Zn229 O235 2.035 . S
O230 Zn229 2.028 . S
O230 C236 1.247 . S
O231 Zn227 2.035 . S
O231 C236 1.258 . S
O232 C225 1.247 . S
O232 Zn229 2.028 . S
O233 C225 1.258 . S
O233 Zn227 2.035 . S
O234 Zn227 2.028 . S
O234 C237 1.247 . S
O235 Zn229 2.035 . S
O235 C237 1.258 . S
C236 O230 1.247 . S
C236 O231 1.258 . S
C237 O234 1.247 . S
C237 O235 1.258 . S
C238 O240 1.247 . S
C238 O242 1.258 . S
C239 O246 1.247 . S
C239 O247 1.258 . S
O240 C238 1.247 . S
O240 Zn241 2.028 . S
Zn241 O240 2.028 . S
Zn241 O245 2.035 . S
Zn241 O247 2.035 . S
Zn241 O248 2.028 . S
O242 C238 1.258 . S
O242 Zn243 2.035 . S
Zn243 O242 2.035 . S
Zn243 O244 2.028 . S
Zn243 O246 2.028 . S
Zn243 O249 2.035 . S
O244 Zn243 2.028 . S
O244 C250 1.247 . S
O245 Zn241 2.035 . S
O245 C250 1.258 . S
O246 C239 1.247 . S
O246 Zn243 2.028 . S
O247 C239 1.258 . S
O247 Zn241 2.035 . S
O248 Zn241 2.028 . S
O248 C251 1.247 . S
O249 Zn243 2.035 . S
O249 C251 1.258 . S
C250 O244 1.247 . S
C250 O245 1.258 . S
C251 O248 1.247 . S
C251 O249 1.258 . S
C252 O254 1.247 . S
C252 O256 1.258 . S
C253 O260 1.247 . S
C253 O261 1.258 . S
O254 C252 1.247 . S
O254 Zn255 2.028 1_556 S
Zn255 O254 2.028 1_554 S
Zn255 O259 2.035 1_655 S
Zn255 O261 2.035 1_655 S
Zn255 O262 2.028 . S
O256 C252 1.258 . S
O256 Zn257 2.035 1_655 S
Zn257 O256 2.035 1_455 S
Zn257 O258 2.028 . S
Zn257 O260 2.028 1_556 S
Zn257 O263 2.035 1_455 S
O258 Zn257 2.028 . S
O258 C264 1.247 1_556 S
O259 Zn255 2.035 1_455 S
O259 C264 1.258 . S
O260 C253 1.247 . S
O260 Zn257 2.028 1_554 S
O261 C253 1.258 . S
O261 Zn255 2.035 1_455 S
O262 Zn255 2.028 . S
O262 C265 1.247 1_554 S
O263 Zn257 2.035 1_655 S
O263 C265 1.258 . S
C264 O258 1.247 1_554 S
C264 O259 1.258 . S
C265 O262 1.247 1_556 S
C265 O263 1.258 . S
C266 O268 1.247 . S
C266 O270 1.258 . S
C267 O274 1.247 . S
C267 O275 1.258 . S
O268 C266 1.247 . S
O268 Zn269 2.028 . S
Zn269 O268 2.028 . S
Zn269 O273 2.035 . S
Zn269 O275 2.035 . S
Zn269 O276 2.028 . S
O270 C266 1.258 . S
O270 Zn271 2.035 . S
Zn271 O270 2.035 . S
Zn271 O272 2.028 . S
Zn271 O274 2.028 . S
Zn271 O277 2.035 . S
O272 Zn271 2.028 . S
O272 C278 1.247 . S
O273 Zn269 2.035 . S
O273 C278 1.258 . S
O274 C267 1.247 . S
O274 Zn271 2.028 . S
O275 C267 1.258 . S
O275 Zn269 2.035 . S
O276 Zn269 2.028 . S
O276 C279 1.247 . S
O277 Zn271 2.035 . S
O277 C279 1.258 . S
C278 O272 1.247 . S
C278 O273 1.258 . S
C279 O276 1.247 . S
C279 O277 1.258 . S
C280 O282 1.247 . S
C280 O284 1.258 . S
C281 O288 1.247 . S
C281 O289 1.258 . S
O282 C280 1.247 . S
O282 Zn283 2.028 . S
Zn283 O282 2.028 . S
Zn283 O287 2.035 . S
Zn283 O289 2.035 . S
Zn283 O290 2.028 . S
O284 C280 1.258 . S
O284 Zn285 2.035 . S
Zn285 O284 2.035 . S
Zn285 O286 2.028 . S
Zn285 O288 2.028 . S
Zn285 O291 2.035 . S
O286 Zn285 2.028 . S
O286 C292 1.247 . S
O287 Zn283 2.035 . S
O287 C292 1.258 . S
O288 C281 1.247 . S
O288 Zn285 2.028 . S
O289 C281 1.258 . S
O289 Zn283 2.035 . S
O290 Zn283 2.028 . S
O290 C293 1.247 . S
O291 Zn285 2.035 . S
O291 C293 1.258 . S
C292 O286 1.247 . S
C292 O287 1.258 . S
C293 O290 1.247 . S
C293 O291 1.258 . S
C294 O296 1.247 . S
C294 O298 1.258 . S
C295 O302 1.247 . S
C295 O303 1.258 . S
O296 C294 1.247 . S
O296 Zn297 2.028 . S
Zn297 O296 2.028 . S
Zn297 O301 2.035 . S
Zn297 O303 2.035 . S
Zn297 O304 2.028 . S
O298 C294 1.258 . S
O298 Zn299 2.035 . S
Zn299 O298 2.035 . S
Zn299 O300 2.028 . S
Zn299 O302 2.028 . S
Zn299 O305 2.035 . S
O300 Zn299 2.028 . S
O300 C306 1.247 . S
O301 Zn297 2.035 . S
O301 C306 1.258 . S
O302 C295 1.247 . S
O302 Zn299 2.028 . S
O303 C295 1.258 . S
O303 Zn297 2.035 . S
O304 Zn297 2.028 . S
O304 C307 1.247 . S
O305 Zn299 2.035 . S
O305 C307 1.258 . S
C306 O300 1.247 . S
C306 O301 1.258 . S
C307 O304 1.247 . S
C307 O305 1.258 . S
C308 O310 1.247 . S
C308 O312 1.258 . S
C309 O316 1.247 . S
C309 O317 1.258 . S
O310 C308 1.247 . S
O310 Zn311 2.028 1_556 S
Zn311 O310 2.028 1_554 S
Zn311 O315 2.035 . S
Zn311 O317 2.035 . S
Zn311 O318 2.028 1_554 S
O312 C308 1.258 . S
O312 Zn313 2.035 . S
Zn313 O312 2.035 . S
Zn313 O314 2.028 1_556 S
Zn313 O316 2.028 1_556 S
Zn313 O319 2.035 . S
O314 Zn313 2.028 1_554 S
O314 C320 1.247 . S
O315 Zn311 2.035 . S
O315 C320 1.258 . S
O316 C309 1.247 . S
O316 Zn313 2.028 1_554 S
O317 C309 1.258 . S
O317 Zn311 2.035 . S
O318 Zn311 2.028 1_556 S
O318 C321 1.247 . S
O319 Zn313 2.035 . S
O319 C321 1.258 . S
C320 O314 1.247 . S
C320 O315 1.258 . S
C321 O318 1.247 . S
C321 O319 1.258 . S
C322 O324 1.247 . S
C322 O326 1.258 . S
C323 O330 1.247 . S
C323 O331 1.258 . S
O324 C322 1.247 . S
O324 Zn325 2.028 . S
Zn325 O324 2.028 . S
Zn325 O329 2.035 . S
Zn325 O331 2.035 . S
Zn325 O332 2.028 . S
O326 C322 1.258 . S
O326 Zn327 2.035 . S
Zn327 O326 2.035 . S
Zn327 O328 2.028 . S
Zn327 O330 2.028 . S
Zn327 O333 2.035 . S
O328 Zn327 2.028 . S
O328 C334 1.247 . S
O329 Zn325 2.035 . S
O329 C334 1.258 . S
O330 C323 1.247 . S
O330 Zn327 2.028 . S
O331 C323 1.258 . S
O331 Zn325 2.035 . S
O332 Zn325 2.028 . S
O332 C335 1.247 . S
O333 Zn327 2.035 . S
O333 C335 1.258 . S
C334 O328 1.247 . S
C334 O329 1.258 . S
C335 O332 1.247 . S
C335 O333 1.258 . S
C336 C337 1.387 . S
C336 H340 0.950 . S
C336 C345 1.390 . S
C337 C336 1.387 . S
C337 C339 1.387 . S
H338 C345 0.950 . S
C339 C337 1.387 . S
C339 C341 1.390 . S
C339 H343 0.950 . S
H340 C336 0.950 . S
C341 C339 1.390 . S
C341 C342 1.387 . S
C341 H344 0.950 . S
C342 C341 1.387 . S
C342 C345 1.387 . S
H343 C339 0.950 . S
H344 C341 0.950 . S
C345 C336 1.390 . S
C345 H338 0.950 . S
C345 C342 1.387 . S
C346 C347 1.387 . S
C346 H350 0.950 . S
C346 C355 1.390 . S
C347 C346 1.387 . S
C347 C349 1.387 . S
H348 C355 0.950 . S
C349 C347 1.387 . S
C349 C351 1.390 1_655 S
C349 H353 0.950 1_655 S
H350 C346 0.950 . S
C351 C349 1.390 1_455 S
C351 C352 1.387 1_455 S
C351 H354 0.950 . S
C352 C351 1.387 1_655 S
C352 C355 1.387 . S
H353 C349 0.950 1_455 S
H354 C351 0.950 . S
C355 C346 1.390 . S
C355 H348 0.950 . S
C355 C352 1.387 . S
C356 C357 1.387 . S
C356 H360 0.950 . S
C356 C365 1.390 . S
C357 C356 1.387 . S
C357 C359 1.387 . S
H358 C365 0.950 . S
C359 C357 1.387 . S
C359 C361 1.390 . S
C359 H363 0.950 . S
H360 C356 0.950 . S
C361 C359 1.390 . S
C361 C362 1.387 . S
C361 H364 0.950 . S
C362 C361 1.387 . S
C362 C365 1.387 . S
H363 C359 0.950 . S
H364 C361 0.950 . S
C365 C356 1.390 . S
C365 H358 0.950 . S
C365 C362 1.387 . S
C366 C367 1.387 . S
C366 H370 0.950 . S
C366 C375 1.390 . S
C367 C366 1.387 . S
C367 C369 1.387 . S
H368 C375 0.950 . S
C369 C367 1.387 . S
C369 C371 1.390 . S
C369 H373 0.950 . S
H370 C366 0.950 . S
C371 C369 1.390 . S
C371 C372 1.387 . S
C371 H374 0.950 . S
C372 C371 1.387 . S
C372 C375 1.387 . S
H373 C369 0.950 . S
H374 C371 0.950 . S
C375 C366 1.390 . S
C375 H368 0.950 . S
C375 C372 1.387 . S
C376 C377 1.387 . S
C376 H380 0.950 . S
C376 C385 1.390 . S
C377 C376 1.387 . S
C377 C379 1.387 . S
H378 C385 0.950 . S
C379 C377 1.387 . S
C379 C381 1.390 . S
C379 H383 0.950 . S
H380 C376 0.950 . S
C381 C379 1.390 . S
C381 C382 1.387 . S
C381 H384 0.950 . S
C382 C381 1.387 . S
C382 C385 1.387 . S
H383 C379 0.950 . S
H384 C381 0.950 . S
C385 C376 1.390 . S
C385 H378 0.950 . S
C385 C382 1.387 . S
C386 C387 1.387 . S
C386 H390 0.950 . S
C386 C395 1.390 . S
C387 C386 1.387 . S
C387 C389 1.387 . S
H388 C395 0.950 . S
C389 C387 1.387 . S
C389 C391 1.390 . S
C389 H393 0.950 . S
H390 C386 0.950 . S
C391 C389 1.390 . S
C391 C392 1.387 . S
C391 H394 0.950 . S
C392 C391 1.387 . S
C392 C395 1.387 . S
H393 C389 0.950 . S
H394 C391 0.950 . S
C395 C386 1.390 . S
C395 H388 0.950 . S
C395 C392 1.387 . S
C396 C397 1.387 . S
C396 H400 0.950 . S
C396 C405 1.390 . S
C397 C396 1.387 . S
C397 C399 1.387 . S
H398 C405 0.950 . S
C399 C397 1.387 . S
C399 C401 1.390 . S
C399 H403 0.950 . S
H400 C396 0.950 . S
C401 C399 1.390 . S
C401 C402 1.387 . S
C401 H404 0.950 . S
C402 C401 1.387 . S
C402 C405 1.387 . S
H403 C399 0.950 . S
H404 C401 0.950 . S
C405 C396 1.390 . S
C405 H398 0.950 . S
C405 C402 1.387 . S
C406 C407 1.387 1_556 S
C406 H410 0.950 . S
C406 C415 1.390 . S
C407 C406 1.387 1_554 S
C407 C409 1.387 . S
H408 C415 0.950 . S
C409 C407 1.387 . S
C409 C411 1.390 . S
C409 H413 0.950 . S
H410 C406 0.950 . S
C411 C409 1.390 . S
C411 C412 1.387 . S
C411 H414 0.950 . S
C412 C411 1.387 . S
C412 C415 1.387 1_554 S
H413 C409 0.950 . S
H414 C411 0.950 . S
C415 C406 1.390 . S
C415 H408 0.950 . S
C415 C412 1.387 1_556 S
C416 C417 1.387 . S
C416 H420 0.950 . S
C416 C425 1.390 . S
C417 C416 1.387 . S
C417 C419 1.387 1_545 S
H418 C425 0.950 . S
C419 C417 1.387 1_565 S
C419 C421 1.390 . S
C419 H423 0.950 . S
H420 C416 0.950 . S
C421 C419 1.390 . S
C421 C422 1.387 1_565 S
C421 H424 0.950 . S
C422 C421 1.387 1_545 S
C422 C425 1.387 . S
H423 C419 0.950 . S
H424 C421 0.950 . S
C425 C416 1.390 . S
C425 H418 0.950 . S
C425 C422 1.387 . S
C426 C427 1.387 . S
C426 H430 0.950 . S
C426 C435 1.390 . S
C427 C426 1.387 . S
C427 C429 1.387 . S
H428 C435 0.950 . S
C429 C427 1.387 . S
C429 C431 1.390 . S
C429 H433 0.950 . S
H430 C426 0.950 . S
C431 C429 1.390 . S
C431 C432 1.387 . S
C431 H434 0.950 . S
C432 C431 1.387 . S
C432 C435 1.387 . S
H433 C429 0.950 . S
H434 C431 0.950 . S
C435 C426 1.390 . S
C435 H428 0.950 . S
C435 C432 1.387 . S
C436 C437 1.387 1_545 S
C436 H440 0.950 . S
C436 C445 1.390 . S
C437 C436 1.387 1_565 S
C437 C439 1.387 . S
H438 C445 0.950 . S
C439 C437 1.387 . S
C439 C441 1.390 . S
C439 H443 0.950 . S
H440 C436 0.950 . S
C441 C439 1.390 . S
C441 C442 1.387 . S
C441 H444 0.950 . S
C442 C441 1.387 . S
C442 C445 1.387 1_565 S
H443 C439 0.950 . S
H444 C441 0.950 . S
C445 C436 1.390 . S
C445 H438 0.950 . S
C445 C442 1.387 1_545 S
C446 C447 1.387 . S
C446 H450 0.950 . S
C446 C455 1.390 . S
C447 C446 1.387 . S
C447 C449 1.387 . S
H448 C455 0.950 . S
C449 C447 1.387 . S
C449 C451 1.390 . S
C449 H453 0.950 . S
H450 C446 0.950 . S
C451 C449 1.390 . S
C451 C452 1.387 . S
C451 H454 0.950 . S
C452 C451 1.387 . S
C452 C455 1.387 . S
H453 C449 0.950 . S
H454 C451 0.950 . S
C455 C446 1.390 . S
C455 H448 0.950 . S
C455 C452 1.387 . S
C456 C457 1.387 . S
C456 H460 0.950 . S
C456 C465 1.390 . S
C457 C456 1.387 . S
C457 C459 1.387 . S
H458 C465 0.950 . S
C459 C457 1.387 . S
C459 C461 1.390 . S
C459 H463 0.950 . S
H460 C456 0.950 . S
C461 C459 1.390 . S
C461 C462 1.387 . S
C461 H464 0.950 . S
C462 C461 1.387 . S
C462 C465 1.387 . S
H463 C459 0.950 . S
H464 C461 0.950 . S
C465 C456 1.390 . S
C465 H458 0.950 . S
C465 C462 1.387 . S
C466 C467 1.387 . S
C466 H470 0.950 . S
C466 C475 1.390 . S
C467 C466 1.387 . S
C467 C469 1.387 . S
H468 C475 0.950 . S
C469 C467 1.387 . S
C469 C471 1.390 . S
C469 H473 0.950 . S
H470 C466 0.950 . S
C471 C469 1.390 . S
C471 C472 1.387 . S
C471 H474 0.950 . S
C472 C471 1.387 . S
C472 C475 1.387 . S
H473 C469 0.950 . S
H474 C471 0.950 . S
C475 C466 1.390 . S
C475 H468 0.950 . S
C475 C472 1.387 . S
C476 C477 1.387 . S
C476 H480 0.950 . S
C476 C485 1.390 . S
C477 C476 1.387 . S
C477 C479 1.387 . S
H478 C485 0.950 . S
C479 C477 1.387 . S
C479 C481 1.390 . S
C479 H483 0.950 . S
H480 C476 0.950 . S
C481 C479 1.390 . S
C481 C482 1.387 . S
C481 H484 0.950 . S
C482 C481 1.387 . S
C482 C485 1.387 . S
H483 C479 0.950 . S
H484 C481 0.950 . S
C485 C476 1.390 . S
C485 H478 0.950 . S
C485 C482 1.387 . S
C486 C487 1.387 . S
C486 H490 0.950 . S
C486 C495 1.390 . S
C487 C486 1.387 . S
C487 C489 1.387 . S
H488 C495 0.950 . S
C489 C487 1.387 . S
C489 C491 1.390 . S
C489 H493 0.950 . S
H490 C486 0.950 . S
C491 C489 1.390 . S
C491 C492 1.387 . S
C491 H494 0.950 . S
C492 C491 1.387 . S
C492 C495 1.387 . S
H493 C489 0.950 . S
H494 C491 0.950 . S
C495 C486 1.390 . S
C495 H488 0.950 . S
C495 C492 1.387 . S
C496 C497 1.387 . S
C496 H500 0.950 . S
C496 C505 1.390 . S
C497 C496 1.387 . S
C497 C499 1.387 . S
H498 C505 0.950 . S
C499 C497 1.387 . S
C499 C501 1.390 . S
C499 H503 0.950 . S
H500 C496 0.950 . S
C501 C499 1.390 . S
C501 C502 1.387 . S
C501 H504 0.950 . S
C502 C501 1.387 . S
C502 C505 1.387 . S
H503 C499 0.950 . S
H504 C501 0.950 . S
C505 C496 1.390 . S
C505 H498 0.950 . S
C505 C502 1.387 . S
C506 C507 1.387 . S
C506 H510 0.950 . S
C506 C515 1.390 . S
C507 C506 1.387 . S
C507 C509 1.387 . S
H508 C515 0.950 . S
C509 C507 1.387 . S
C509 C511 1.390 . S
C509 H513 0.950 . S
H510 C506 0.950 . S
C511 C509 1.390 . S
C511 C512 1.387 . S
C511 H514 0.950 . S
C512 C511 1.387 . S
C512 C515 1.387 . S
H513 C509 0.950 . S
H514 C511 0.950 . S
C515 C506 1.390 . S
C515 H508 0.950 . S
C515 C512 1.387 . S
C516 C517 1.387 . S
C516 H520 0.950 . S
C516 C525 1.390 . S
C517 C516 1.387 . S
C517 C519 1.387 . S
H518 C525 0.950 . S
C519 C517 1.387 . S
C519 C521 1.390 . S
C519 H523 0.950 . S
H520 C516 0.950 . S
C521 C519 1.390 . S
C521 C522 1.387 . S
C521 H524 0.950 . S
C522 C521 1.387 . S
C522 C525 1.387 . S
H523 C519 0.950 . S
H524 C521 0.950 . S
C525 C516 1.390 . S
C525 H518 0.950 . S
C525 C522 1.387 . S
C526 C527 1.387 1_655 S
C526 H530 0.950 . S
C526 C535 1.390 . S
C527 C526 1.387 1_455 S
C527 C529 1.387 . S
H528 C535 0.950 . S
C529 C527 1.387 . S
C529 C531 1.390 . S
C529 H533 0.950 . S
H530 C526 0.950 . S
C531 C529 1.390 . S
C531 C532 1.387 . S
C531 H534 0.950 . S
C532 C531 1.387 . S
C532 C535 1.387 1_455 S
H533 C529 0.950 . S
H534 C531 0.950 . S
C535 C526 1.390 . S
C535 H528 0.950 . S
C535 C532 1.387 1_655 S
C536 C537 1.387 . S
C536 H540 0.950 . S
C536 C545 1.390 . S
C537 C536 1.387 . S
C537 C539 1.387 . S
H538 C545 0.950 . S
C539 C537 1.387 . S
C539 C541 1.390 . S
C539 H543 0.950 . S
H540 C536 0.950 . S
C541 C539 1.390 . S
C541 C542 1.387 . S
C541 H544 0.950 . S
C542 C541 1.387 . S
C542 C545 1.387 . S
H543 C539 0.950 . S
H544 C541 0.950 . S
C545 C536 1.390 . S
C545 H538 0.950 . S
C545 C542 1.387 . S
C546 C547 1.387 . S
C546 H550 0.950 . S
C546 C555 1.390 . S
C547 C546 1.387 . S
C547 C549 1.387 . S
H548 C555 0.950 . S
C549 C547 1.387 . S
C549 C551 1.390 . S
C549 H553 0.950 . S
H550 C546 0.950 . S
C551 C549 1.390 . S
C551 C552 1.387 . S
C551 H554 0.950 . S
C552 C551 1.387 . S
C552 C555 1.387 . S
H553 C549 0.950 . S
H554 C551 0.950 . S
C555 C546 1.390 . S
C555 H548 0.950 . S
C555 C552 1.387 . S
C556 C557 1.387 1_554 S
C556 H560 0.950 . S
C556 C565 1.389 1_554 S
C557 C556 1.387 1_556 S
C557 C559 1.387 . S
H558 C565 0.945 1_554 S
C559 C557 1.387 . S
C559 C561 1.390 . S
C559 H563 0.950 . S
H560 C556 0.950 . S
C561 C559 1.390 . S
C561 C562 1.387 . S
C561 H564 0.950 . S
C562 C561 1.387 . S
C562 C565 1.394 . S
H563 C559 0.950 . S
H564 C561 0.950 . S
C565 C556 1.389 1_556 S
C565 H558 0.945 1_556 S
C565 C562 1.394 . S
C566 C567 1.387 . S
C566 H570 0.950 . S
C566 C575 1.390 . S
C567 C566 1.387 . S
C567 C569 1.387 . S
H568 C575 0.950 . S
C569 C567 1.387 . S
C569 C571 1.390 . S
C569 H573 0.950 . S
H570 C566 0.950 . S
C571 C569 1.390 . S
C571 C572 1.387 . S
C571 H574 0.950 . S
C572 C571 1.387 . S
C572 C575 1.387 . S
H573 C569 0.950 . S
H574 C571 0.950 . S
C575 C566 1.390 . S
C575 H568 0.950 . S
C575 C572 1.387 . S
C576 C577 1.387 . S
C576 H580 0.950 . S
C576 C585 1.390 . S
C577 C576 1.387 . S
C577 C579 1.387 . S
H578 C585 0.950 . S
C579 C577 1.387 . S
C579 C581 1.390 . S
C579 H583 0.950 1_455 S
H580 C576 0.950 . S
C581 C579 1.390 . S
C581 C582 1.387 . S
C581 H584 0.950 . S
C582 C581 1.387 . S
C582 C585 1.387 . S
H583 C579 0.950 1_655 S
H584 C581 0.950 . S
C585 C576 1.390 . S
C585 H578 0.950 . S
C585 C582 1.387 . S
C586 C587 1.387 . S
C586 H590 0.950 . S
C586 C595 1.390 . S
C587 C586 1.387 . S
C587 C589 1.387 . S
H588 C595 0.950 . S
C589 C587 1.387 . S
C589 C591 1.390 . S
C589 H593 0.950 . S
H590 C586 0.950 . S
C591 C589 1.390 . S
C591 C592 1.387 . S
C591 H594 0.950 . S
C592 C591 1.387 . S
C592 C595 1.387 . S
H593 C589 0.950 . S
H594 C591 0.950 . S
C595 C586 1.390 . S
C595 H588 0.950 . S
C595 C592 1.387 . S
C596 C597 1.387 . S
C596 H600 0.950 . S
C596 C605 1.390 . S
C597 C596 1.387 . S
C597 C599 1.387 . S
H598 C605 0.950 . S
C599 C597 1.387 . S
C599 C601 1.390 . S
C599 H603 0.950 . S
H600 C596 0.950 . S
C601 C599 1.390 . S
C601 C602 1.387 . S
C601 H604 0.950 . S
C602 C601 1.387 . S
C602 C605 1.387 . S
H603 C599 0.950 . S
H604 C601 0.950 . S
C605 C596 1.390 . S
C605 H598 0.950 . S
C605 C602 1.387 . S
C606 C607 1.387 . S
C606 H610 0.950 . S
C606 C615 1.390 . S
C607 C606 1.387 . S
C607 C609 1.387 . S
H608 C615 0.950 . S
C609 C607 1.387 . S
C609 C611 1.390 . S
C609 H613 0.950 . S
H610 C606 0.950 . S
C611 C609 1.390 . S
C611 C612 1.387 . S
C611 H614 0.950 . S
C612 C611 1.387 . S
C612 C615 1.387 . S
H613 C609 0.950 . S
H614 C611 0.950 . S
C615 C606 1.390 . S
C615 H608 0.950 . S
C615 C612 1.387 . S
C616 C617 1.387 . S
C616 H620 0.950 . S
C616 C625 1.390 . S
C617 C616 1.387 . S
C617 C619 1.387 . S
H618 C625 0.950 . S
C619 C617 1.387 . S
C619 C621 1.390 . S
C619 H623 0.950 1_545 S
H620 C616 0.950 . S
C621 C619 1.390 . S
C621 C622 1.387 . S
C621 H624 0.950 1_545 S
C622 C621 1.387 . S
C622 C625 1.387 . S
H623 C619 0.950 1_565 S
H624 C621 0.950 1_565 S
C625 C616 1.390 . S
C625 H618 0.950 . S
C625 C622 1.387 . S
C626 C627 1.387 . S
C626 H630 0.950 . S
C626 C635 1.390 . S
C627 C626 1.387 . S
C627 C629 1.387 . S
H628 C635 0.950 . S
C629 C627 1.387 . S
C629 C631 1.390 . S
C629 H633 0.950 . S
H630 C626 0.950 . S
C631 C629 1.390 . S
C631 C632 1.387 . S
C631 H634 0.950 . S
C632 C631 1.387 . S
C632 C635 1.387 . S
H633 C629 0.950 . S
H634 C631 0.950 . S
C635 C626 1.390 . S
C635 H628 0.950 . S
C635 C632 1.387 . S
C636 C637 1.387 . S
C636 H640 0.950 . S
C636 C645 1.390 . S
C637 C636 1.387 . S
C637 C639 1.387 . S
H638 C645 0.950 . S
C639 C637 1.387 . S
C639 C641 1.390 . S
C639 H643 0.950 . S
H640 C636 0.950 . S
C641 C639 1.390 . S
C641 C642 1.387 . S
C641 H644 0.950 1_565 S
C642 C641 1.387 . S
C642 C645 1.387 . S
H643 C639 0.950 . S
H644 C641 0.950 1_545 S
C645 C636 1.390 . S
C645 H638 0.950 . S
C645 C642 1.387 . S
C646 C647 1.387 . S
C646 H650 0.950 . S
C646 C655 1.390 . S
C647 C646 1.387 . S
C647 C649 1.387 . S
H648 C655 0.950 . S
C649 C647 1.387 . S
C649 C651 1.390 . S
C649 H653 0.950 . S
H650 C646 0.950 . S
C651 C649 1.390 . S
C651 C652 1.387 . S
C651 H654 0.950 . S
C652 C651 1.387 . S
C652 C655 1.387 . S
H653 C649 0.950 . S
H654 C651 0.950 . S
C655 C646 1.390 . S
C655 H648 0.950 . S
C655 C652 1.387 . S
C656 C657 1.387 . S
C656 H660 0.950 1_554 S
C656 C665 1.390 . S
C657 C656 1.387 . S
C657 C659 1.387 . S
H658 C665 0.955 . S
C659 C657 1.387 . S
C659 C661 1.390 . S
C659 H663 0.950 . S
H660 C656 0.950 1_556 S
C661 C659 1.390 . S
C661 C662 1.387 . S
C661 H664 0.950 . S
C662 C661 1.387 . S
C662 C665 1.387 . S
H663 C659 0.950 . S
H664 C661 0.950 . S
C665 C656 1.390 . S
C665 H658 0.955 . S
C665 C662 1.387 . S
C666 C667 1.387 . S
C666 H670 0.950 . S
C666 C675 1.390 . S
C667 C666 1.387 . S
C667 C669 1.387 . S
H668 C675 0.950 . S
C669 C667 1.387 . S
C669 C671 1.390 . S
C669 H673 0.950 . S
H670 C666 0.950 . S
C671 C669 1.390 . S
C671 C672 1.387 . S
C671 H674 0.943 1_556 S
C672 C671 1.387 . S
C672 C675 1.387 . S
H673 C669 0.950 . S
H674 C671 0.943 1_554 S
C675 C666 1.390 . S
C675 H668 0.950 . S
C675 C672 1.387 . S
C676 C677 1.387 . S
C676 H680 0.950 . S
C676 C685 1.390 . S
C677 C676 1.387 . S
C677 C679 1.387 . S
H678 C685 0.950 . S
C679 C677 1.387 . S
C679 C681 1.390 . S
C679 H683 0.950 . S
H680 C676 0.950 . S
C681 C679 1.390 . S
C681 C682 1.387 . S
C681 H684 0.950 . S
C682 C681 1.387 . S
C682 C685 1.387 . S
H683 C679 0.950 . S
H684 C681 0.950 . S
C685 C676 1.390 . S
C685 H678 0.950 . S
C685 C682 1.387 . S
C686 C687 1.387 . S
C686 H690 0.950 . S
C686 C695 1.390 . S
C687 C686 1.387 . S
C687 C689 1.387 . S
H688 C695 0.950 . S
C689 C687 1.387 . S
C689 C691 1.390 . S
C689 H693 0.950 . S
H690 C686 0.950 . S
C691 C689 1.390 . S
C691 C692 1.387 . S
C691 H694 0.950 . S
C692 C691 1.387 . S
C692 C695 1.387 . S
H693 C689 0.950 . S
H694 C691 0.950 . S
C695 C686 1.390 . S
C695 H688 0.950 . S
C695 C692 1.387 . S
C696 C697 1.387 . S
C696 H700 0.950 . S
C696 C705 1.390 . S
C697 C696 1.387 . S
C697 C699 1.387 . S
H698 C705 0.950 . S
C699 C697 1.387 . S
C699 C701 1.390 . S
C699 H703 0.950 . S
H700 C696 0.950 . S
C701 C699 1.390 . S
C701 C702 1.387 . S
C701 H704 0.950 . S
C702 C701 1.387 . S
C702 C705 1.387 . S
H703 C699 0.950 . S
H704 C701 0.950 . S
C705 C696 1.390 . S
C705 H698 0.950 . S
C705 C702 1.387 . S
C706 C707 1.387 . S
C706 H710 0.950 . S
C706 C715 1.390 . S
C707 C706 1.387 . S
C707 C709 1.387 . S
H708 C715 0.950 . S
C709 C707 1.387 . S
C709 C711 1.390 . S
C709 H713 0.950 . S
H710 C706 0.950 . S
C711 C709 1.390 . S
C711 C712 1.387 . S
C711 H714 0.950 . S
C712 C711 1.387 . S
C712 C715 1.387 . S
H713 C709 0.950 . S
H714 C711 0.950 . S
C715 C706 1.390 . S
C715 H708 0.950 . S
C715 C712 1.387 . S
C716 C717 1.387 . S
C716 H720 0.950 . S
C716 C725 1.390 . S
C717 C716 1.387 . S
C717 C719 1.387 . S
H718 C725 0.950 . S
C719 C717 1.387 . S
C719 C721 1.390 . S
C719 H723 0.950 . S
H720 C716 0.950 . S
C721 C719 1.390 . S
C721 C722 1.387 . S
C721 H724 0.950 . S
C722 C721 1.387 . S
C722 C725 1.387 . S
H723 C719 0.950 . S
H724 C721 0.950 . S
C725 C716 1.390 . S
C725 H718 0.950 . S
C725 C722 1.387 . S
C726 C727 1.387 . S
C726 H730 0.950 . S
C726 C735 1.390 . S
C727 C726 1.387 . S
C727 C729 1.387 . S
H728 C735 0.950 . S
C729 C727 1.387 . S
C729 C731 1.390 . S
C729 H733 0.950 . S
H730 C726 0.950 . S
C731 C729 1.390 . S
C731 C732 1.387 . S
C731 H734 0.950 . S
C732 C731 1.387 . S
C732 C735 1.387 . S
H733 C729 0.950 . S
H734 C731 0.950 . S
C735 C726 1.390 . S
C735 H728 0.950 . S
C735 C732 1.387 . S
C736 C737 1.387 . S
C736 H740 0.950 . S
C736 C745 1.390 . S
C737 C736 1.387 . S
C737 C739 1.387 . S
H738 C745 0.950 . S
C739 C737 1.387 . S
C739 C741 1.390 . S
C739 H743 0.950 . S
H740 C736 0.950 . S
C741 C739 1.390 . S
C741 C742 1.387 . S
C741 H744 0.950 . S
C742 C741 1.387 . S
C742 C745 1.387 . S
H743 C739 0.950 . S
H744 C741 0.950 . S
C745 C736 1.390 . S
C745 H738 0.950 . S
C745 C742 1.387 . S
C746 C747 1.387 . S
C746 H750 0.950 . S
C746 C755 1.390 . S
C747 C746 1.387 . S
C747 C749 1.387 . S
H748 C755 0.950 . S
C749 C747 1.387 . S
C749 C751 1.390 . S
C749 H753 0.950 . S
H750 C746 0.950 . S
C751 C749 1.390 . S
C751 C752 1.387 . S
C751 H754 0.950 . S
C752 C751 1.387 . S
C752 C755 1.387 . S
H753 C749 0.950 . S
H754 C751 0.950 . S
C755 C746 1.390 . S
C755 H748 0.950 . S
C755 C752 1.387 . S
C756 C757 1.387 . S
C756 H760 0.950 . S
C756 C765 1.390 . S
C757 C756 1.387 . S
C757 C759 1.387 . S
H758 C765 0.950 . S
C759 C757 1.387 . S
C759 C761 1.390 . S
C759 H763 0.950 . S
H760 C756 0.950 . S
C761 C759 1.390 . S
C761 C762 1.387 . S
C761 H764 0.950 . S
C762 C761 1.387 . S
C762 C765 1.387 . S
H763 C759 0.950 . S
H764 C761 0.950 . S
C765 C756 1.390 . S
C765 H758 0.950 . S
C765 C762 1.387 . S
C766 C767 1.387 . S
C766 H770 0.950 . S
C766 C775 1.390 . S
C767 C766 1.387 . S
C767 C769 1.387 . S
H768 C775 0.950 . S
C769 C767 1.387 . S
C769 C771 1.390 . S
C769 H773 0.950 . S
H770 C766 0.950 . S
C771 C769 1.390 . S
C771 C772 1.387 . S
C771 H774 0.950 . S
C772 C771 1.387 . S
C772 C775 1.387 . S
H773 C769 0.950 . S
H774 C771 0.950 . S
C775 C766 1.390 . S
C775 H768 0.950 . S
C775 C772 1.387 . S
C776 C777 1.387 . S
C776 H780 0.950 . S
C776 C785 1.390 . S
C777 C776 1.387 . S
C777 C779 1.387 . S
H778 C785 0.950 . S
C779 C777 1.387 . S
C779 C781 1.390 . S
C779 H783 0.950 . S
H780 C776 0.950 . S
C781 C779 1.390 . S
C781 C782 1.387 . S
C781 H784 0.950 . S
C782 C781 1.387 . S
C782 C785 1.387 . S
H783 C779 0.950 . S
H784 C781 0.950 . S
C785 C776 1.390 . S
C785 H778 0.950 . S
C785 C782 1.387 . S
C786 C787 1.387 . S
C786 H790 0.950 . S
C786 C795 1.390 . S
C787 C786 1.387 . S
C787 C789 1.387 . S
H788 C795 0.950 . S
C789 C787 1.387 . S
C789 C791 1.390 . S
C789 H793 0.950 . S
H790 C786 0.950 . S
C791 C789 1.390 . S
C791 C792 1.387 . S
C791 H794 0.950 . S
C792 C791 1.387 . S
C792 C795 1.387 . S
H793 C789 0.950 . S
H794 C791 0.950 . S
C795 C786 1.390 . S
C795 H788 0.950 . S
C795 C792 1.387 . S
C796 C797 1.387 . S
C796 H800 0.950 . S
C796 C805 1.390 . S
C797 C796 1.387 . S
C797 C799 1.387 . S
H798 C805 0.950 . S
C799 C797 1.387 . S
C799 C801 1.390 . S
C799 H803 0.950 . S
H800 C796 0.950 . S
C801 C799 1.390 . S
C801 C802 1.387 . S
C801 H804 0.950 . S
C802 C801 1.387 . S
C802 C805 1.387 . S
H803 C799 0.950 . S
H804 C801 0.950 . S
C805 C796 1.390 . S
C805 H798 0.950 . S
C805 C802 1.387 . S
C806 C807 1.387 . S
C806 H810 0.950 . S
C806 C815 1.390 . S
C807 C806 1.387 . S
C807 C809 1.387 . S
H808 C815 0.950 . S
C809 C807 1.387 . S
C809 C811 1.390 . S
C809 H813 0.950 . S
H810 C806 0.950 . S
C811 C809 1.390 . S
C811 C812 1.387 . S
C811 H814 0.950 . S
C812 C811 1.387 . S
C812 C815 1.387 . S
H813 C809 0.950 . S
H814 C811 0.950 . S
C815 C806 1.390 . S
C815 H808 0.950 . S
C815 C812 1.387 . S
C337 C99 1.504 . S
C342 C1 1.438 . S
C347 C15 1.097 . S
C352 C56 1.083 . S
C357 C83 1.412 . S
C362 C29 1.366 . S
C367 C55 1.288 . S
C372 C85 1.278 . S
C377 C124 1.434 . S
C382 C13 1.504 . S
C387 C27 1.285 . S
C392 C126 1.283 . S
C397 C152 1.483 . S
C402 C41 1.562 . S
C407 C154 1.083 . S
C412 C43 1.069 . S
C417 C68 1.081 . S
C422 C138 1.063 . S
C427 C71 1.331 . S
C432 C140 1.412 . S
C437 C166 1.091 . S
C442 C97 1.095 . S
C447 C112 1.503 . S
C452 C111 1.438 . S
C457 C294 1.565 . S
C462 C169 1.486 . S
C467 C194 1.288 . S
C472 C320 1.278 . S
C477 C197 1.367 . S
C482 C322 1.412 . S
C487 C334 1.330 . S
C492 C222 1.414 . S
C497 C236 1.415 . S
C502 C306 1.365 . S
C507 C279 1.216 . S
C512 C238 1.245 . S
C517 C181 1.414 . S
C522 C224 1.332 . S
C527 C182 1.071 . S
C532 C253 1.081 . S
C537 C209 1.565 . S
C542 C210 1.484 . S
C547 C250 1.213 . S
C552 C292 1.246 . S
C557 C265 1.092 . S
C562 C308 1.092 . S
C567 C280 1.208 . S
C572 C267 1.243 . S
C577 C57 2.438 . S
C582 C0 2.329 . S
C587 C82 1.590 . S
C592 C14 1.519 . S
C597 C84 2.564 . S
C602 C28 2.479 . S
C607 C98 2.126 . S
C612 C54 2.056 . S
C617 C125 2.333 . S
C622 C167 2.440 . S
C627 C127 2.059 . S
C632 C113 2.127 . S
C637 C153 2.138 . S
C642 C139 2.239 . S
C647 C141 1.478 . S
C652 C155 1.427 . S
C657 C264 2.437 . S
C662 C110 2.332 . S
C667 C168 2.132 . S
C672 C42 2.237 . S
C677 C12 2.125 . S
C682 C195 2.059 . S
C687 C26 2.562 . S
C692 C196 2.478 . S
C697 C70 2.102 . S
C702 C266 2.183 . S
C707 C69 1.431 . S
C712 C223 1.477 . S
C717 C96 1.521 . S
C722 C237 1.587 . S
C727 C225 2.108 . S
C732 C239 2.183 . S
C737 C180 1.478 . S
C742 C252 1.426 . S
C747 C211 2.140 . S
C752 C183 2.242 . S
C757 C278 2.311 . S
C762 C208 2.375 . S
C767 C293 2.181 . S
C772 C335 2.107 . S
C777 C281 2.316 . S
C782 C295 2.376 . S
C787 C321 2.564 . S
C792 C307 2.482 . S
C797 C323 1.590 . S
C802 C309 1.522 . S
C807 C40 2.374 . S
C812 C251 2.316 . S
