# Generated by pormake.
# Topology vmr, (7)-cn, num edge types: 1
# Building blocks:
#     Node 0, Type 0, BuildingBlock: HICVOG_clean_sbu_0, # of connection points: 7
#     Node 1, Type 0, BuildingBlock: HICVOG_clean_sbu_0, # of connection points: 7
#     Node 2, Type 0, BuildingBlock: HICVOG_clean_sbu_0, # of connection points: 7
#     Node 3, Type 0, BuildingBlock: HICVOG_clean_sbu_0, # of connection points: 7
#     Edge 4, Type (0, 0), BuildingBlock: MIFKUJ_clean_linker_0, # of connection points: 2
#     Edge 5, Type (0, 0), BuildingBlock: MIFKUJ_clean_linker_0, # of connection points: 2
#     Edge 6, Type (0, 0), BuildingBlock: MIFKUJ_clean_linker_0, # of connection points: 2
#     Edge 7, Type (0, 0), BuildingBlock: MIFKUJ_clean_linker_0, # of connection points: 2
#     Edge 8, Type (0, 0), BuildingBlock: MIFKUJ_clean_linker_0, # of connection points: 2
#     Edge 9, Type (0, 0), BuildingBlock: MIFKUJ_clean_linker_0, # of connection points: 2
#     Edge 10, Type (0, 0), BuildingBlock: MIFKUJ_clean_linker_0, # of connection points: 2
#     Edge 11, Type (0, 0), BuildingBlock: MIFKUJ_clean_linker_0, # of connection points: 2
#     Edge 12, Type (0, 0), BuildingBlock: MIFKUJ_clean_linker_0, # of connection points: 2
#     Edge 13, Type (0, 0), BuildingBlock: MIFKUJ_clean_linker_0, # of connection points: 2
#     Edge 14, Type (0, 0), BuildingBlock: MIFKUJ_clean_linker_0, # of connection points: 2
#     Edge 15, Type (0, 0), BuildingBlock: MIFKUJ_clean_linker_0, # of connection points: 2
#     Edge 16, Type (0, 0), BuildingBlock: MIFKUJ_clean_linker_0, # of connection points: 2
#     Edge 17, Type (0, 0), BuildingBlock: MIFKUJ_clean_linker_0, # of connection points: 2
# Relax obj value: 0.075
# Max RMSD: 0.171
# Mean RMSD: 0.171
data_MOF--net-vmr--node1-HICVOG_clean_sbu_0--edge1-MIFKUJ_clean_linker_0
_symmetry_space_group_name_H-M    P1
_symmetry_Int_Tables_number       1
_symmetry_cell_setting            triclinic
loop_
_symmetry_equiv_pos_as_xyz
'x, y, z'
_cell_length_a     32.264051
_cell_length_b     27.88954
_cell_length_c     44.718258
_cell_angle_alpha  89.906452
_cell_angle_beta   121.57262
_cell_angle_gamma 89.92793
loop_
_atom_site_label
_atom_site_type_symbol
_atom_site_fract_x
_atom_site_fract_y
_atom_site_fract_z
_atom_type_partial_charge
Zn0 Zn 0.23422 0.34785 0.17212 0.0
C1 C 0.11927 0.33438 0.183 0.0
N2 N 0.09519 0.3558 0.15138 0.0
C3 C 0.12858 0.35694 0.1421 0.0
N4 N 0.17151 0.33809 0.16713 0.0
N5 N 0.16506 0.32249 0.19237 0.0
C6 C 0.21782 0.23456 0.28813 0.0
O7 O 0.24687 0.20582 0.28414 0.0
O8 O 0.22561 0.3456 0.12407 0.0
Zn9 Zn 0.19389 0.26469 0.21947 0.0
N10 N 0.25905 0.41036 0.19384 0.0
C11 C 0.25151 0.47611 0.22451 0.0
C12 C 0.23553 0.43197 0.20806 0.0
C13 C 0.29878 0.43116 0.19588 0.0
N14 N 0.29091 0.49678 0.2266 0.0
C15 C 0.31555 0.47589 0.2129 0.0
O16 O 0.26202 0.24941 0.23061 0.0
C17 C 0.29302 0.26272 0.22284 0.0
O18 O 0.28466 0.29764 0.202 0.0
H19 H 0.20447 0.41513 0.20668 0.0
H20 H 0.3174 0.41245 0.18511 0.0
C21 C 0.13382 0.17963 0.20234 0.0
C22 C 0.10177 0.1445 0.17928 0.0
C23 C 0.10964 0.17756 0.13352 0.0
C24 C 0.14145 0.21217 0.15648 0.0
N25 N 0.15264 0.21282 0.19029 0.0
N26 N 0.09042 0.14481 0.14535 0.0
H27 H 0.14266 0.18135 0.2292 0.0
C28 C 0.22689 0.30459 0.11218 0.0
O29 O 0.23304 0.26633 0.13127 0.0
O30 O 0.1919 0.26458 0.26398 0.0
H31 H 0.15669 0.23879 0.14735 0.0
H32 H 0.23296 0.49375 0.23578 0.0
H33 H 0.10007 0.17687 0.10645 0.0
Zn34 Zn 0.82415 0.76707 0.28019 0.0
C35 C 0.88849 0.86726 0.35379 0.0
N36 N 0.92139 0.86611 0.34409 0.0
C37 C 0.89944 0.83873 0.31514 0.0
N38 N 0.85514 0.82394 0.30758 0.0
N39 N 0.84787 0.84273 0.33162 0.0
C40 C 0.81497 0.82487 0.39784 0.0
O41 O 0.82849 0.78573 0.38887 0.0
O42 O 0.82198 0.76905 0.23429 0.0
Zn43 Zn 0.78577 0.85113 0.32758 0.0
N44 N 0.86598 0.7146 0.30825 0.0
C45 C 0.90779 0.67759 0.36446 0.0
C46 C 0.8775 0.71355 0.3421 0.0
C47 C 0.88349 0.68088 0.29561 0.0
N48 N 0.92538 0.64404 0.35201 0.0
C49 C 0.91439 0.6442 0.31813 0.0
O50 O 0.73837 0.79657 0.30369 0.0
C51 C 0.72904 0.76193 0.28255 0.0
O52 O 0.75732 0.75098 0.2717 0.0
H53 H 0.86318 0.74063 0.35157 0.0
H54 H 0.87287 0.68278 0.26843 0.0
C55 C 0.72042 0.93316 0.30207 0.0
C56 C 0.7002 0.9753 0.28197 0.0
C57 C 0.75352 0.96728 0.26051 0.0
C58 C 0.77305 0.92568 0.2802 0.0
N59 N 0.75636 0.90941 0.30066 0.0
N60 N 0.71782 0.99095 0.26186 0.0
H61 H 0.70846 0.91955 0.31897 0.0
C62 C 0.79826 0.73782 0.21072 0.0
O63 O 0.77379 0.70495 0.21618 0.0
O64 O 0.79595 0.85891 0.37574 0.0
H65 H 0.80136 0.90654 0.27914 0.0
H66 H 0.91733 0.6763 0.39152 0.0
H67 H 0.76647 0.98064 0.24413 0.0
Zn68 Zn 0.81722 0.76848 0.77759 0.0
C69 C 0.88985 0.67037 0.85202 0.0
N70 N 0.92165 0.67505 0.84145 0.0
C71 C 0.89666 0.70138 0.81203 0.0
N72 N 0.85184 0.71266 0.80523 0.0
N73 N 0.84699 0.69214 0.82995 0.0
C74 C 0.82405 0.70776 0.8999 0.0
O75 O 0.84251 0.74305 0.89107 0.0
O76 O 0.81335 0.76895 0.7311 0.0
Zn77 Zn 0.78624 0.68183 0.82812 0.0
N78 N 0.85561 0.82315 0.80443 0.0
C79 C 0.88193 0.87105 0.85513 0.0
C80 C 0.85609 0.83201 0.83444 0.0
C81 C 0.88017 0.85177 0.79416 0.0
N82 N 0.90573 0.9001 0.84469 0.0
C83 C 0.90563 0.89209 0.81459 0.0
O84 O 0.73587 0.73448 0.80402 0.0
C85 C 0.72379 0.76856 0.78193 0.0
O86 O 0.75044 0.78076 0.76998 0.0
H87 H 0.83632 0.80884 0.84207 0.0
H88 H 0.87991 0.84285 0.77058 0.0
C89 C 0.72205 0.59875 0.80432 0.0
C90 C 0.70134 0.55699 0.784 0.0
C91 C 0.75273 0.56611 0.76098 0.0
C92 C 0.77278 0.60727 0.78091 0.0
N93 N 0.75733 0.6228 0.80227 0.0
N94 N 0.71778 0.54212 0.76301 0.0
H95 H 0.71074 0.61201 0.82167 0.0
C96 C 0.79324 0.80413 0.71023 0.0
O97 O 0.7736 0.83849 0.71889 0.0
O98 O 0.7992 0.67578 0.87727 0.0
H99 H 0.80035 0.62681 0.7792 0.0
H100 H 0.88273 0.87854 0.87916 0.0
H101 H 0.76454 0.55344 0.74378 0.0
Zn102 Zn 0.19147 0.27243 0.71794 0.0
C103 C 0.12675 0.17215 0.64572 0.0
N104 N 0.09428 0.17382 0.65583 0.0
C105 C 0.11736 0.20014 0.68527 0.0
N106 N 0.16186 0.21386 0.69266 0.0
N107 N 0.16828 0.19529 0.66816 0.0
C108 C 0.19733 0.20665 0.60075 0.0
O109 O 0.17605 0.24231 0.60676 0.0
O110 O 0.19309 0.27462 0.76349 0.0
Zn111 Zn 0.23087 0.18416 0.67302 0.0
N112 N 0.1488 0.32373 0.68865 0.0
C113 C 0.1039 0.35814 0.63166 0.0
C114 C 0.13555 0.32323 0.65442 0.0
C115 C 0.13181 0.35801 0.70129 0.0
N116 N 0.08665 0.39213 0.64407 0.0
C117 C 0.09935 0.39354 0.67833 0.0
O118 O 0.28013 0.23712 0.69835 0.0
C119 C 0.28844 0.27354 0.71789 0.0
O120 O 0.25837 0.2873 0.72647 0.0
H121 H 0.14941 0.2957 0.64496 0.0
H122 H 0.14397 0.35723 0.72881 0.0
C123 C 0.2967 0.10235 0.70136 0.0
C124 C 0.31411 0.05867 0.72014 0.0
C125 C 0.25131 0.06232 0.73307 0.0
C126 C 0.23453 0.10515 0.71461 0.0
N127 N 0.25725 0.12436 0.699 0.0
N128 N 0.29033 0.04033 0.73534 0.0
H129 H 0.314 0.11927 0.68898 0.0
C130 C 0.22156 0.24995 0.79053 0.0
O131 O 0.2522 0.21995 0.78947 0.0
O132 O 0.22247 0.17672 0.62519 0.0
H133 H 0.20346 0.12279 0.71273 0.0
H134 H 0.09293 0.35821 0.60429 0.0
H135 H 0.23357 0.04663 0.74561 0.0
H136 H 0.37372 0.28666 0.22076 0.0
H137 H 0.44401 0.23626 0.236 0.0
H138 H 0.38475 0.1231 0.26836 0.0
H139 H 0.31483 0.17392 0.25412 0.0
H140 H 0.48124 0.12542 0.31085 0.0
H141 H 0.37043 0.12202 0.18706 0.0
H142 H 0.31664 0.15687 0.12825 0.0
H143 H 0.43908 0.22581 0.13334 0.0
H144 H 0.49354 0.19199 0.19247 0.0
H145 H 0.62894 0.94432 0.29482 0.0
H146 H 0.56121 0.99118 0.2894 0.0
H147 H 0.61222 0.11614 0.26136 0.0
H148 H 0.68006 0.07004 0.26696 0.0
H149 H 0.51609 0.10201 0.21613 0.0
H150 H 0.62557 0.10647 0.34272 0.0
H151 H 0.67705 0.06928 0.40102 0.0
H152 H 0.55375 0.99233 0.38842 0.0
H153 H 0.50147 0.02906 0.32995 0.0
C154 C 0.37582 0.25127 0.23151 0.0
C155 C 0.33828 0.23421 0.23584 0.0
C156 C 0.41601 0.22237 0.2401 0.0
C157 C 0.4192 0.17538 0.25257 0.0
C158 C 0.38303 0.15908 0.2586 0.0
C159 C 0.34299 0.18822 0.25038 0.0
C160 C 0.45888 0.1427 0.25745 0.0
C161 C 0.48847 0.11984 0.28999 0.0
C162 C 0.46846 0.13525 0.23027 0.0
C163 C 0.43602 0.15476 0.19434 0.0
C164 C 0.38586 0.1448 0.17572 0.0
C165 C 0.35524 0.16438 0.14233 0.0
C166 C 0.3744 0.19364 0.1271 0.0
C167 C 0.42427 0.20319 0.14519 0.0
C168 C 0.45505 0.18379 0.17863 0.0
C169 C 0.62654 0.98198 0.28826 0.0
C170 C 0.66049 1.00333 0.28157 0.0
C171 C 0.58749 1.00873 0.28498 0.0
C172 C 0.58165 0.05729 0.27506 0.0
C173 C 0.61578 0.07872 0.26889 0.0
C174 C 0.65466 0.05217 0.27215 0.0
C175 C 0.53924 0.08577 0.2698 0.0
C176 C 0.50883 0.10755 0.23698 0.0
C177 C 0.52859 0.09161 0.29653 0.0
C178 C 0.55974 0.07017 0.33187 0.0
C179 C 0.6095 0.08144 0.35232 0.0
C180 C 0.6388 0.06049 0.3854 0.0
C181 C 0.61875 0.0283 0.39835 0.0
C182 C 0.56924 0.01723 0.37833 0.0
C183 C 0.53973 0.03821 0.34527 0.0
H184 H 0.64155 1.01206 0.42394 0.0
H185 H 0.35061 0.20882 0.10127 0.0
H186 H 0.35885 0.46874 0.17293 0.0
H187 H 0.42814 0.51477 0.18021 0.0
H188 H 0.43985 0.58723 0.26939 0.0
H189 H 0.37149 0.54152 0.26272 0.0
H190 H 0.4424 0.6501 0.22479 0.0
H191 H 0.52001 0.49904 0.27905 0.0
H192 H 0.5315 0.41147 0.28012 0.0
H193 H 0.55764 0.42326 0.19561 0.0
H194 H 0.54566 0.51089 0.19374 0.0
H195 H 0.67077 0.76176 0.31014 0.0
H196 H 0.60043 0.71133 0.29372 0.0
H197 H 0.61621 0.64458 0.21325 0.0
H198 H 0.68796 0.69402 0.2304 0.0
H199 H 0.59613 0.57856 0.24549 0.0
H200 H 0.52496 0.72962 0.19366 0.0
H201 H 0.5135 0.81725 0.19188 0.0
H202 H 0.47359 0.80594 0.26938 0.0
H203 H 0.48543 0.71829 0.27197 0.0
C204 C 0.37658 0.49377 0.19449 0.0
C205 C 0.35934 0.501 0.21733 0.0
C206 C 0.41618 0.52032 0.1985 0.0
C207 C 0.43934 0.55452 0.2254 0.0
C208 C 0.42249 0.56134 0.24831 0.0
C209 C 0.38322 0.53499 0.24439 0.0
C210 C 0.48046 0.58429 0.22968 0.0
C211 C 0.47615 0.63442 0.22957 0.0
C212 C 0.52394 0.56401 0.23473 0.0
C213 C 0.53138 0.51142 0.23598 0.0
C214 C 0.52782 0.4829 0.26051 0.0
C215 C 0.53449 0.43327 0.2613 0.0
C216 C 0.54514 0.41179 0.23787 0.0
C217 C 0.54929 0.43993 0.21369 0.0
C218 C 0.5426 0.48958 0.21277 0.0
C219 C 0.65922 0.73661 0.28878 0.0
C220 C 0.68497 0.73229 0.27145 0.0
C221 C 0.61873 0.7078 0.2793 0.0
C222 C 0.60223 0.6746 0.25175 0.0
C223 C 0.628 0.66997 0.2345 0.0
C224 C 0.66896 0.69844 0.24426 0.0
C225 C 0.55853 0.64446 0.24148 0.0
C226 C 0.56224 0.59433 0.24034 0.0
C227 C 0.51425 0.66472 0.23501 0.0
C228 C 0.50641 0.71739 0.23317 0.0
C229 C 0.51398 0.74584 0.21046 0.0
C230 C 0.5074 0.79552 0.20929 0.0
C231 C 0.49292 0.81716 0.23055 0.0
C232 C 0.48483 0.78914 0.25293 0.0
C233 C 0.4914 0.73944 0.25422 0.0
H234 H 0.4879 0.85563 0.22964 0.0
H235 H 0.55028 0.37336 0.23852 0.0
H236 H 0.36648 0.07163 0.68645 0.0
H237 H 0.43606 0.02549 0.69523 0.0
H238 H 0.4286 0.93622 0.77106 0.0
H239 H 0.36073 0.98302 0.7639 0.0
H240 H 0.51878 0.95609 0.79457 0.0
H241 H 0.38473 0.90089 0.68401 0.0
H242 H 0.31555 0.9104 0.62322 0.0
H243 H 0.41116 0.96806 0.59248 0.0
H244 H 0.48081 0.95961 0.65324 0.0
H245 H 0.65925 0.75648 0.80378 0.0
H246 H 0.58963 0.80695 0.79035 0.0
H247 H 0.61731 0.89594 0.72376 0.0
H248 H 0.68681 0.84534 0.7367 0.0
H249 H 0.51967 0.88028 0.69462 0.0
H250 H 0.65463 0.93078 0.80631 0.0
H251 H 0.72248 0.91873 0.86726 0.0
H252 H 0.62276 0.86683 0.89601 0.0
H253 H 0.5544 0.87776 0.83507 0.0
C254 C 0.37963 0.04277 0.70539 0.0
C255 C 0.35729 0.03174 0.72455 0.0
C256 C 0.41945 0.01588 0.71008 0.0
C257 C 0.43748 0.97689 0.73357 0.0
C258 C 0.4156 0.96608 0.7528 0.0
C259 C 0.37628 0.993 0.74841 0.0
C260 C 0.47903 0.94703 0.73842 0.0
C261 C 0.51862 0.93918 0.77268 0.0
C262 C 0.4796 0.92561 0.7099 0.0
C263 C 0.43789 0.93009 0.67326 0.0
C264 C 0.39094 0.91589 0.66434 0.0
C265 C 0.35165 0.92106 0.62988 0.0
C266 C 0.35894 0.93993 0.60403 0.0
C267 C 0.40556 0.95353 0.61255 0.0
C268 C 0.44496 0.94854 0.64699 0.0
C269 C 0.65041 0.78651 0.78603 0.0
C270 C 0.67905 0.79692 0.77156 0.0
C271 C 0.6106 0.81549 0.77847 0.0
C272 C 0.59862 0.85574 0.75645 0.0
C273 C 0.62592 0.86521 0.7409 0.0
C274 C 0.66578 0.83623 0.74844 0.0
C275 C 0.55879 0.88883 0.75077 0.0
C276 C 0.51975 0.89739 0.71642 0.0
C277 C 0.55842 0.9106 0.77922 0.0
C278 C 0.59944 0.90472 0.81603 0.0
C279 C 0.64721 0.91651 0.82557 0.0
C280 C 0.68576 0.90988 0.86013 0.0
C281 C 0.67696 0.8919 0.88547 0.0
C282 C 0.62954 0.88069 0.87634 0.0
C283 C 0.59087 0.8871 0.8418 0.0
H284 H 0.70685 0.88671 0.9122 0.0
H285 H 0.32848 0.94392 0.57737 0.0
H286 H 0.68044 0.46274 0.76781 0.0
H287 H 0.61162 0.41724 0.76084 0.0
H288 H 0.56285 0.54057 0.79212 0.0
H289 H 0.63159 0.58703 0.79886 0.0
H290 H 0.55347 0.45398 0.8208 0.0
H291 H 0.50915 0.51673 0.70815 0.0
H292 H 0.51923 0.53331 0.65814 0.0
H293 H 0.52238 0.38224 0.64105 0.0
H294 H 0.51311 0.36473 0.69134 0.0
H295 H 0.31331 0.36035 0.75178 0.0
H296 H 0.38426 0.40966 0.76711 0.0
H297 H 0.43642 0.30113 0.72604 0.0
H298 H 0.36506 0.25212 0.70988 0.0
H299 H 0.44208 0.38539 0.70276 0.0
H300 H 0.48905 0.32214 0.8164 0.0
H301 H 0.4791 0.30511 0.86642 0.0
H302 H 0.4707 0.45597 0.88164 0.0
H303 H 0.47997 0.47389 0.83139 0.0
C304 C 0.65538 0.4804 0.77346 0.0
C305 C 0.66188 0.52882 0.78384 0.0
C306 C 0.61596 0.45417 0.76944 0.0
C307 C 0.58167 0.47562 0.77548 0.0
C308 C 0.58889 0.52328 0.78731 0.0
C309 C 0.62849 0.54976 0.79132 0.0
C310 C 0.53735 0.44858 0.76774 0.0
C311 C 0.52866 0.43954 0.79488 0.0
C312 C 0.50542 0.42903 0.73406 0.0
C313 C 0.5109 0.43943 0.70374 0.0
C314 C 0.51241 0.48704 0.69392 0.0
C315 C 0.51792 0.4966 0.66549 0.0
C316 C 0.52157 0.45885 0.64649 0.0
C317 C 0.51962 0.41144 0.65583 0.0
C318 C 0.51421 0.40168 0.68428 0.0
C319 C 0.34006 0.3467 0.74627 0.0
C320 C 0.33329 0.30215 0.72952 0.0
C321 C 0.38081 0.37495 0.75521 0.0
C322 C 0.4161 0.35906 0.74805 0.0
C323 C 0.40976 0.3143 0.73182 0.0
C324 C 0.3689 0.2862 0.72266 0.0
C325 C 0.45851 0.38977 0.75598 0.0
C326 C 0.46676 0.39976 0.72873 0.0
C327 C 0.48996 0.41003 0.78955 0.0
C328 C 0.48471 0.39933 0.81991 0.0
C329 C 0.48472 0.35167 0.83025 0.0
C330 C 0.47926 0.34186 0.85867 0.0
C331 C 0.47412 0.37943 0.87713 0.0
C332 C 0.4746 0.4269 0.86728 0.0
C333 C 0.48001 0.43691 0.83886 0.0
H334 H 0.46987 0.37176 0.89912 0.0
H335 H 0.5258 0.46633 0.62447 0.0
H336 H 0.14408 0.09478 0.2417 0.0
H337 H 0.10705 0.03128 0.2582 0.0
H338 H 0.9723 0.04809 0.1591 0.0
H339 H 0.00926 0.11075 0.14205 0.0
H340 H 0.97333 0.04687 0.22986 0.0
H341 H 0.02025 0.96115 0.1572 0.0
H342 H 0.07897 0.93583 0.1408 0.0
H343 H 0.1698 0.87255 0.24268 0.0
H344 H 0.11194 0.89823 0.25987 0.0
H345 H 0.84535 0.8635 0.24642 0.0
H346 H 0.87802 0.90288 0.21429 0.0
H347 H 0.02358 0.86543 0.29679 0.0
H348 H 0.99085 0.8254 0.32874 0.0
H349 H 0.01579 0.87517 0.23152 0.0
H350 H 0.9798 0.96245 0.30753 0.0
H351 H 0.92765 0.98705 0.32997 0.0
H352 H 0.82496 0.04891 0.22979 0.0
H353 H 0.87626 0.02388 0.20657 0.0
C354 C 0.10646 0.08522 0.22355 0.0
C355 C 0.07945 0.10787 0.1906 0.0
C356 C 0.08552 0.04876 0.23291 0.0
C357 C 0.03711 0.03494 0.20973 0.0
C358 C 0.00978 0.05819 0.17723 0.0
C359 C 0.03095 0.09387 0.16755 0.0
C360 C 0.01479 0.9964 0.21947 0.0
C361 C 0.98191 1.00928 0.22961 0.0
C362 C 0.02734 0.94759 0.22027 0.0
C363 C 0.0621 0.93217 0.20996 0.0
C364 C 0.05302 0.94235 0.17624 0.0
C365 C 0.08608 0.9278 0.16677 0.0
C366 C 0.12818 0.90274 0.19072 0.0
C367 C 0.13723 0.89205 0.22417 0.0
C368 C 0.10431 0.90657 0.23379 0.0
C369 C 0.884 0.86082 0.25657 0.0
C370 C 0.91561 0.84109 0.28992 0.0
C371 C 0.90274 0.88401 0.23842 0.0
C372 C 0.95329 0.88805 0.25359 0.0
C373 C 0.98449 0.86287 0.28466 0.0
C374 C 0.96575 0.83978 0.30283 0.0
C375 C 0.97352 0.92553 0.24121 0.0
C376 C 1.0065 0.91267 0.23112 0.0
C377 C 0.96195 0.97461 0.24119 0.0
C378 C 0.93156 0.99084 0.25521 0.0
C379 C 0.94595 0.98104 0.29023 0.0
C380 C 0.91656 0.99506 0.30309 0.0
C381 C 0.87296 0.01944 0.2813 0.0
C382 C 0.85874 0.02998 0.24662 0.0
C383 C 0.88795 0.01588 0.23359 0.0
H384 H 0.85024 0.03025 0.2913 0.0
H385 H 0.15372 0.89149 0.18333 0.0
H386 H 0.17466 0.36144 0.25128 0.0
H387 H 0.14433 0.40238 0.28442 0.0
H388 H 0.99698 0.37016 0.2026 0.0
H389 H 0.02724 0.32884 0.16958 0.0
H390 H 0.08921 0.4826 0.25561 0.0
H391 H 0.92409 0.3737 0.23778 0.0
H392 H 0.9017 0.28873 0.23565 0.0
H393 H 0.05264 0.25006 0.29906 0.0
H394 H 0.07592 0.33483 0.30254 0.0
H395 H 0.92023 0.63927 0.25782 0.0
H396 H 0.95674 0.57618 0.24181 0.0
H397 H 0.99647 0.49948 0.337 0.0
H398 H 0.95773 0.56096 0.3526 0.0
H399 H 0.967 0.43797 0.28613 0.0
H400 H 0.07859 0.57051 0.32779 0.0
H401 H 0.10449 0.65417 0.32964 0.0
H402 H 0.06893 0.64334 0.22296 0.0
H403 H 0.04186 0.55997 0.22021 0.0
C404 C 0.13599 0.36074 0.2413 0.0
C405 C 0.10324 0.34156 0.20803 0.0
C406 C 0.11866 0.38482 0.26001 0.0
C407 C 0.06841 0.38969 0.24583 0.0
C408 C 0.0359 0.36655 0.21418 0.0
C409 C 0.0532 0.34274 0.19539 0.0
C410 C 0.0497 0.42451 0.26103 0.0
C411 C 0.06281 0.4728 0.26261 0.0
C412 C 0.01549 0.41159 0.27028 0.0
C413 C 1.00173 0.36073 0.27013 0.0
C414 C 0.9525 0.34717 0.25164 0.0
C415 C 0.93964 0.299 0.25019 0.0
C416 C 0.97571 0.26401 0.26715 0.0
C417 C 0.02471 0.27717 0.28595 0.0
C418 C 0.03775 0.3253 0.28769 0.0
C419 C 0.93567 0.60884 0.27527 0.0
C420 C 0.93543 0.60572 0.30667 0.0
C421 C 0.95727 0.57281 0.26614 0.0
C422 C 0.98009 0.5333 0.28844 0.0
C423 C 0.9792 0.52957 0.31935 0.0
C424 C 0.9572 0.5652 0.32833 0.0
C425 C 1.00579 0.49636 0.28003 0.0
C426 C 0.99383 0.44774 0.27957 0.0
C427 C 0.04158 0.50885 0.27212 0.0
C428 C 0.05784 0.55907 0.27373 0.0
C429 C 0.07594 0.58609 0.30464 0.0
C430 C 0.09083 0.63347 0.30584 0.0
C431 C 0.08826 0.65409 0.27641 0.0
C432 C 0.07086 0.62735 0.24573 0.0
C433 C 0.05569 0.58004 0.24432 0.0
H434 H 0.09985 0.69076 0.27742 0.0
H435 H 0.96563 0.22671 0.26563 0.0
H436 H 0.97816 0.95378 0.8574 0.0
H437 H 0.01724 1.01475 0.84143 0.0
H438 H 0.93148 0.97102 0.73318 0.0
H439 H 0.89139 0.91042 0.74855 0.0
H440 H 0.0264 0.98705 0.75362 0.0
H441 H 0.90017 0.06972 0.76012 0.0
H442 H 0.85537 0.09488 0.78833 0.0
H443 H 0.98414 0.16231 0.87116 0.0
H444 H 0.02986 0.13704 0.84364 0.0
H445 H 0.02896 0.21854 0.67622 0.0
H446 H 0.99635 0.17668 0.7077 0.0
H447 H 0.13975 0.12308 0.78238 0.0
H448 H 0.17211 0.16435 0.7508 0.0
H449 H 0.01591 0.15826 0.77957 0.0
H450 H 0.1252 1.00133 0.77427 0.0
H451 H 0.16842 0.97933 0.74417 0.0
H452 H 0.06679 0.06239 0.6542 0.0
H453 H 0.02251 0.08404 0.6835 0.0
C454 C 0.96748 0.95686 0.83013 0.0
C455 C 0.93154 0.92662 0.80443 0.0
C456 C 0.98995 0.99191 0.82108 0.0
C457 C 0.97694 0.99783 0.78607 0.0
C458 C 0.94214 0.96703 0.7604 0.0
C459 C 0.91942 0.93199 0.76939 0.0
C460 C 0.99905 0.03671 0.77617 0.0
C461 C 0.02414 0.02438 0.75942 0.0
C462 C 0.99603 0.08561 0.78354 0.0
C463 C 0.96852 0.10111 0.79999 0.0
C464 C 0.91901 0.08963 0.78448 0.0
C465 C 0.89343 0.10397 0.80031 0.0
C466 C 0.91691 0.13009 0.83155 0.0
C467 C 0.966 0.14205 0.84697 0.0
C468 C 0.99174 0.12777 0.83125 0.0
C469 C 0.05391 0.20027 0.7006 0.0
C470 C 0.10319 0.19541 0.71149 0.0
C471 C 0.03525 0.17618 0.71848 0.0
C472 C 0.06556 0.14631 0.74705 0.0
C473 C 0.1158 0.14604 0.7604 0.0
C474 C 0.13446 0.17033 0.74264 0.0
C475 C 0.04367 0.10831 0.75765 0.0
C476 C 0.01852 0.1208 0.77425 0.0
C477 C 0.04613 0.05956 0.74986 0.0
C478 C 0.0709 0.04465 0.73124 0.0
C479 C 0.1119 1.01455 0.74796 0.0
C480 C 0.13659 1.00219 0.73105 0.0
C481 C 0.12047 0.0196 0.69735 0.0
C482 C 0.07936 0.04906 0.68035 0.0
C483 C 0.05443 0.06135 0.69709 0.0
H484 H 0.1398 1.01019 0.6844 0.0
H485 H 0.89705 0.14115 0.84377 0.0
H486 H 0.04896 0.4729 0.64101 0.0
H487 H 0.01213 0.53554 0.65718 0.0
H488 H 0.06501 0.46726 0.7574 0.0
H489 H 0.09995 0.40294 0.74107 0.0
H490 H 0.97634 0.49542 0.73272 0.0
H491 H 0.11965 0.57317 0.74869 0.0
H492 H 0.17716 0.59958 0.73138 0.0
H493 H 0.06302 0.67883 0.64487 0.0
H494 H 1.00469 0.6521 0.66136 0.0
H495 H 0.98584 0.71944 0.82263 0.0
H496 H 0.01777 0.68082 0.78975 0.0
H497 H 0.87265 0.63739 0.71066 0.0
H498 H 0.84077 0.67545 0.7437 0.0
H499 H 1.00688 0.6677 0.72338 0.0
H500 H 0.88066 0.51073 0.70846 0.0
H501 H 0.82927 0.48605 0.73162 0.0
H502 H 0.91978 0.56583 0.82592 0.0
H503 H 0.97336 0.58858 0.80434 0.0
C504 C 0.05301 0.4708 0.66659 0.0
C505 C 0.07841 0.43242 0.68969 0.0
C506 C 0.03208 0.50718 0.6759 0.0
C507 C 0.03646 0.50681 0.7088 0.0
C508 C 0.06136 0.4686 0.73191 0.0
C509 C 0.08196 0.43181 0.72251 0.0
C510 C 0.0142 0.54568 0.71876 0.0
C511 C 0.983 0.53302 0.73056 0.0
C512 C 0.02301 0.59491 0.7163 0.0
C513 C 0.05789 0.61071 0.70623 0.0
C514 C 0.10682 0.59605 0.72588 0.0
C515 C 0.13954 0.61103 0.71621 0.0
C516 C 0.12376 0.64087 0.68704 0.0
C517 C 0.07522 0.65577 0.66747 0.0
C518 C 0.04234 0.64079 0.677 0.0
C519 C 0.96046 0.70416 0.79717 0.0
C520 C 0.91089 0.7005 0.78567 0.0
C521 C 0.97876 0.68193 0.77842 0.0
C522 C 0.94771 0.65522 0.74825 0.0
C523 C 0.89726 0.65748 0.73408 0.0
C524 C 0.87895 0.67983 0.7528 0.0
C525 C 0.96871 0.61727 0.7368 0.0
C526 C 0.9998 0.63005 0.72501 0.0
C527 C 0.96078 0.56803 0.74012 0.0
C528 C 0.93055 0.55209 0.75443 0.0
C529 C 0.88994 0.52254 0.73431 0.0
C530 C 0.86058 0.50868 0.74727 0.0
C531 C 0.87136 0.5243 0.78026 0.0
C532 C 0.91163 0.55361 0.80044 0.0
C533 C 0.94168 0.56674 0.78795 0.0
H534 H 0.8486 0.51361 0.79024 0.0
H535 H 0.14915 0.65246 0.67961 0.0
H536 H 0.95462 0.69265 0.91897 0.0
H537 H 0.99496 0.63645 0.96817 0.0
H538 H 0.89622 0.52488 0.90325 0.0
H539 H 0.85612 0.58146 0.85378 0.0
H540 H 0.97432 0.58022 0.00661 0.0
H541 H 0.95848 0.42214 0.91891 0.0
H542 H 0.9505 0.40609 0.86183 0.0
H543 H 0.02082 0.53969 0.86844 0.0
H544 H 0.0288 0.55665 0.92536 0.0
H545 H 0.06368 0.32944 0.07636 0.0
H546 H 0.02372 0.382 0.02492 0.0
H547 H 0.12613 0.49414 0.08422 0.0
H548 H 0.16604 0.44136 0.13576 0.0
H549 H 0.04504 0.43719 0.98351 0.0
H550 H 0.05795 0.59805 0.06878 0.0
H551 H 0.07194 0.61387 0.12767 0.0
H552 H 0.01331 0.47581 0.12785 0.0
H553 H 0.99808 0.45959 0.06872 0.0
C554 C 0.94041 0.65659 0.91572 0.0
C555 C 0.90187 0.64142 0.88298 0.0
C556 C 0.96365 0.6244 0.94373 0.0
C557 C 0.9493 0.57617 0.93927 0.0
C558 C 0.90841 0.56176 0.90716 0.0
C559 C 0.88494 0.5942 0.8791 0.0
C560 C 0.97963 0.54078 0.96735 0.0
C561 C 0.99005 0.54917 0.00158 0.0
C562 C 0.99991 0.49992 0.96087 0.0
C563 C 0.99381 0.4908 0.92616 0.0
C564 C 0.97206 0.44812 0.90808 0.0
C565 C 0.96751 0.43889 0.87576 0.0
C566 C 0.98514 0.47185 0.86152 0.0
C567 C 1.00712 0.51423 0.87948 0.0
C568 C 0.01137 0.52382 0.91164 0.0
C569 C 0.07898 0.36457 0.07783 0.0
C570 C 0.11821 0.38127 0.10976 0.0
C571 C 0.05595 0.39467 0.04854 0.0
C572 C 0.0713 0.44229 0.05096 0.0
C573 C 0.11336 0.45765 0.08194 0.0
C574 C 0.13663 0.4273 0.11125 0.0
C575 C 0.03994 0.47687 0.02269 0.0
C576 C 0.02921 0.46821 0.98848 0.0
C577 C 0.0196 0.51761 0.02925 0.0
C578 C 0.02745 0.52742 0.06448 0.0
C579 C 0.04783 0.57118 0.08133 0.0
C580 C 0.05597 0.58022 0.11474 0.0
C581 C 0.04368 0.5458 0.13154 0.0
C582 C 0.02296 0.50238 0.11486 0.0
C583 C 0.01457 0.49326 0.0814 0.0
H584 H 0.05011 0.55283 0.15744 0.0
H585 H 0.98172 0.46458 0.83655 0.0
H586 H 0.93002 0.83857 0.42099 0.0
H587 H 0.96966 0.89126 0.47238 0.0
H588 H 0.91022 1.01478 0.4044 0.0
H589 H 0.87009 0.96187 0.3532 0.0
H590 H 0.04012 0.95312 0.48163 0.0
H591 H 0.90553 0.10858 0.44928 0.0
H592 H 0.81729 0.12239 0.42145 0.0
H593 H 0.79958 0.98012 0.44967 0.0
H594 H 0.8877 0.96517 0.47747 0.0
H595 H 0.08085 0.20143 0.57851 0.0
H596 H 0.0416 0.14939 0.52685 0.0
H597 H 0.10624 0.02558 0.59377 0.0
H598 H 0.14658 0.07801 0.64518 0.0
H599 H 0.97394 0.08741 0.5168 0.0
H600 H 0.11068 0.93215 0.54705 0.0
H601 H 0.19917 0.92073 0.57429 0.0
H602 H 0.21334 0.06599 0.54908 0.0
H603 H 0.12498 0.07826 0.52145 0.0
C604 C 0.92362 0.87688 0.41735 0.0
C605 C 0.89637 0.8964 0.38349 0.0
C606 C 0.94675 0.90695 0.44657 0.0
C607 C 0.94313 0.95696 0.44225 0.0
C608 C 0.91307 0.97632 0.40846 0.0
C609 C 0.88988 0.94618 0.37925 0.0
C610 C 0.97497 0.98872 0.47228 0.0
C611 C 0.02564 0.98202 0.48975 0.0
C612 C 0.95621 0.02746 0.48197 0.0
C613 C 0.90316 0.03571 0.46521 0.0
C614 C 0.8828 0.08022 0.44953 0.0
C615 C 0.83281 0.08816 0.43367 0.0
C616 C 0.80286 0.05198 0.4336 0.0
C617 C 0.82283 1.00782 0.44944 0.0
C618 C 0.87276 0.99954 0.46515 0.0
C619 C 0.0885 0.16329 0.58182 0.0
C620 C 0.1176 0.14357 0.61546 0.0
C621 C 0.06558 0.13355 0.55245 0.0
C622 C 0.07079 0.08355 0.55639 0.0
C623 C 0.10223 0.06405 0.58994 0.0
C624 C 0.12553 0.09394 0.6193 0.0
C625 C 0.03915 0.0518 0.52627 0.0
C626 C 0.98851 0.05851 0.50875 0.0
C627 C 0.05801 1.01335 0.51636 0.0
C628 C 0.11118 1.00619 0.53245 0.0
C629 C 0.13264 0.9616 0.5472 0.0
C630 C 0.1828 0.95503 0.56277 0.0
C631 C 0.21186 0.99269 0.56355 0.0
C632 C 0.19081 0.03697 0.54864 0.0
C633 C 0.1407 0.04378 0.53309 0.0
H634 H 0.25068 0.98754 0.57564 0.0
H635 H 0.76421 0.05822 0.42138 0.0
H636 H 0.1777 0.32107 0.80605 0.0
H637 H 0.17574 0.33051 0.85965 0.0
H638 H 0.25794 0.19964 0.90103 0.0
H639 H 0.26057 0.1901 0.84754 0.0
H640 H 0.17461 0.20893 0.90848 0.0
H641 H 0.31644 0.29825 0.93077 0.0
H642 H 0.35951 0.35897 0.91696 0.0
H643 H 0.26679 0.46922 0.91737 0.0
H644 H 0.22269 0.40901 0.9307 0.0
H645 H 0.24953 0.22635 0.08709 0.0
H646 H 0.24461 0.218 0.03107 0.0
H647 H 0.18962 0.36266 0.00314 0.0
H648 H 0.19573 0.3717 0.05982 0.0
H649 H 0.25533 0.34815 0.98674 0.0
H650 H 0.1147 0.26362 0.96579 0.0
H651 H 0.06615 0.20532 0.97616 0.0
H652 H 0.14872 0.08941 0.96959 0.0
H653 H 0.19827 0.14707 0.95966 0.0
C654 C 0.19533 0.29422 0.82651 0.0
C655 C 0.21962 0.25498 0.82269 0.0
C656 C 0.19422 0.29974 0.85712 0.0
C657 C 0.21696 0.26594 0.88432 0.0
C658 C 0.24026 0.22614 0.8803 0.0
C659 C 0.24194 0.22089 0.84984 0.0
C660 C 0.21701 0.27258 0.91718 0.0
C661 C 0.19276 0.23896 0.92591 0.0
C662 C 0.23919 0.31278 0.93908 0.0
C663 C 0.26596 0.34906 0.93138 0.0
C664 C 0.30498 0.33538 0.92763 0.0
C665 C 0.32963 0.36972 0.91995 0.0
C666 C 0.31581 0.4179 0.9162 0.0
C667 C 0.27741 0.43188 0.92024 0.0
C668 C 0.25261 0.39767 0.92789 0.0
C669 C 0.23612 0.25635 0.06897 0.0
C670 C 0.22289 0.29966 0.07783 0.0
C671 C 0.23311 0.25143 0.03683 0.0
C672 C 0.21598 0.28941 0.01256 0.0
C673 C 0.20285 0.33281 0.02139 0.0
C674 C 0.20632 0.33793 0.05376 0.0
C675 C 0.21326 0.28413 0.9785 0.0
C676 C 0.23698 0.31808 0.96942 0.0
C677 C 0.18991 0.24456 0.95599 0.0
C678 C 0.16053 0.20974 0.96232 0.0
C679 C 0.12283 0.22573 0.96688 0.0
C680 C 0.09505 0.19279 0.97261 0.0
C681 C 0.10442 0.1437 0.97361 0.0
C682 C 0.14155 0.12745 0.96884 0.0
C683 C 0.16946 0.16024 0.96314 0.0
H684 H 0.08285 0.11825 0.97802 0.0
H685 H 0.33493 0.44443 0.91024 0.0
H686 H 0.83033 0.73938 0.68428 0.0
H687 H 0.8367 0.74806 0.63246 0.0
H688 H 0.76826 0.88718 0.61186 0.0
H689 H 0.76102 0.87844 0.66333 0.0
H690 H 0.73261 0.83834 0.55264 0.0
H691 H 0.88996 0.8771 0.64814 0.0
H692 H 0.96501 0.86583 0.70585 0.0
H693 H 0.99857 0.73878 0.66855 0.0
H694 H 0.92307 0.74855 0.61075 0.0
H695 H 0.78907 0.89978 0.42411 0.0
H696 H 0.79021 0.9023 0.47925 0.0
H697 H 0.85047 0.7594 0.50434 0.0
H698 H 0.85046 0.75705 0.44972 0.0
H699 H 0.89187 0.81676 0.56221 0.0
H700 H 0.72814 0.77882 0.46661 0.0
H701 H 0.65335 0.79471 0.40947 0.0
H702 H 0.6338 0.92817 0.44835 0.0
H703 H 0.70891 0.91337 0.50559 0.0
C704 C 0.81647 0.77176 0.66867 0.0
C705 C 0.79529 0.80828 0.67802 0.0
C706 C 0.82035 0.77678 0.63913 0.0
C707 C 0.80359 0.8186 0.61854 0.0
C708 C 0.78154 0.85466 0.62739 0.0
C709 C 0.77749 0.84961 0.65687 0.0
C710 C 0.80913 0.82467 0.58779 0.0
C711 C 0.76757 0.83431 0.55485 0.0
C712 C 0.85471 0.8192 0.59061 0.0
C713 C 0.90054 0.81332 0.62517 0.0
C714 C 0.91311 0.84649 0.6523 0.0
C715 C 0.95573 0.84035 0.68504 0.0
C716 C 0.9864 0.80142 0.6909 0.0
C717 C 0.9746 0.76869 0.66398 0.0
C718 C 0.93191 0.77454 0.63121 0.0
C719 C 0.8031 0.86914 0.44158 0.0
C720 C 0.81921 0.82805 0.43238 0.0
C721 C 0.80358 0.87057 0.47301 0.0
C722 C 0.81967 0.83072 0.49564 0.0
C723 C 0.83774 0.79049 0.48723 0.0
C724 C 0.83749 0.78913 0.4559 0.0
C725 C 0.81524 0.82967 0.52706 0.0
C726 C 0.85702 0.82101 0.56012 0.0
C727 C 0.76998 0.83675 0.52445 0.0
C728 C 0.72435 0.84518 0.49026 0.0
C729 C 0.70802 0.81166 0.46291 0.0
C730 C 0.66558 0.82048 0.4305 0.0
C731 C 0.63893 0.86251 0.42524 0.0
C732 C 0.65455 0.8957 0.45243 0.0
C733 C 0.69702 0.88709 0.48487 0.0
H734 H 0.60612 0.86931 0.40013 0.0
H735 H 0.01939 0.7967 0.71626 0.0
H736 H 0.78602 0.64305 0.92518 0.0
H737 H 0.78606 0.64803 0.97977 0.0
H738 H 0.87114 0.77757 0.00744 0.0
H739 H 0.87173 0.77263 0.95306 0.0
H740 H 0.90048 0.7202 0.06479 0.0
H741 H 0.75197 0.78542 0.97104 0.0
H742 H 0.67683 0.7862 0.91261 0.0
H743 H 0.62275 0.66536 0.9415 0.0
H744 H 0.69819 0.66307 0.99989 0.0
H745 H 0.84496 0.80061 0.191 0.0
H746 H 0.85188 0.79622 0.13921 0.0
H747 H 0.76568 0.66716 0.10653 0.0
H748 H 0.75782 0.67179 0.1579 0.0
H749 H 0.73819 0.72723 0.052 0.0
H750 H 0.89085 0.66295 0.14682 0.0
H751 H 0.96523 0.66734 0.20564 0.0
H752 H 0.01024 0.79342 0.17491 0.0
H753 H 0.93582 0.79002 0.11598 0.0
C754 C 0.80521 0.67232 0.94304 0.0
C755 C 0.82835 0.70778 0.93454 0.0
C756 C 0.80511 0.67517 0.9742 0.0
C757 C 0.82793 0.71361 0.99739 0.0
C758 C 0.85316 0.74771 0.98986 0.0
C759 C 0.85328 0.7449 0.95868 0.0
C760 C 0.82295 0.71971 0.02835 0.0
C761 C 0.86502 0.72218 0.06198 0.0
C762 C 0.77667 0.72219 0.02471 0.0
C763 C 0.73098 0.72376 0.98974 0.0
C764 C 0.72425 0.75875 0.96486 0.0
C765 C 0.68156 0.75952 0.93175 0.0
C766 C 0.64503 0.72586 0.92334 0.0
C767 C 0.65111 0.69138 0.94804 0.0
C768 C 0.69384 0.6903 0.98115 0.0
C769 C 0.8273 0.7714 0.17274 0.0
C770 C 0.80097 0.73645 0.17867 0.0
C771 C 0.8315 0.76881 0.14321 0.0
C772 C 0.80989 0.73095 0.11924 0.0
C773 C 0.78276 0.69661 0.12472 0.0
C774 C 0.77837 0.69928 0.15415 0.0
C775 C 0.81565 0.72683 0.0885 0.0
C776 C 0.77366 0.725 0.05483 0.0
C777 C 0.86197 0.72548 0.09213 0.0
C778 C 0.90762 0.72641 0.12708 0.0
C779 C 0.91658 0.69164 0.15263 0.0
C780 C 0.95874 0.69395 0.18599 0.0
C781 C 0.99239 0.73069 0.19401 0.0
C782 C 0.98413 0.76498 0.16863 0.0
C783 C 0.94202 0.76282 0.13523 0.0
H784 H 0.02488 0.73261 0.21989 0.0
H785 H 0.61199 0.72655 0.89769 0.0
H786 H 0.25237 0.15091 0.58425 0.0
H787 H 0.25152 0.15055 0.52918 0.0
H788 H 0.13374 0.25295 0.48477 0.0
H789 H 0.13445 0.25371 0.53979 0.0
H790 H 0.1241 0.17802 0.43754 0.0
H791 H 0.24187 0.29449 0.51627 0.0
H792 H 0.31308 0.32063 0.57241 0.0
H793 H 0.40259 0.21724 0.56102 0.0
H794 H 0.33169 0.19 0.50503 0.0
H795 H 0.14972 0.27553 0.29944 0.0
H796 H 0.14215 0.26534 0.35087 0.0
H797 H 0.26796 0.17265 0.3985 0.0
H798 H 0.27581 0.18251 0.34742 0.0
H799 H 0.27272 0.23976 0.44397 0.0
H800 H 0.15913 0.12766 0.36324 0.0
H801 H 0.08897 0.09597 0.30886 0.0
H802 H 0.99216 0.18271 0.32477 0.0
H803 H 0.06187 0.21659 0.37843 0.0
C804 C 0.22594 0.17298 0.56265 0.0
C805 C 0.1939 0.20284 0.56651 0.0
C806 C 0.22554 0.17275 0.53123 0.0
C807 C 0.1929 0.20211 0.50307 0.0
C808 C 0.15926 0.23011 0.50623 0.0
C809 C 0.15994 0.23072 0.53775 0.0
C810 C 0.19608 0.20614 0.47125 0.0
C811 C 0.15623 0.19211 0.43869 0.0
C812 C 0.23865 0.22323 0.47317 0.0
C813 C 0.28138 0.23988 0.50665 0.0
C814 C 0.27666 0.27707 0.52588 0.0
C815 C 0.31697 0.29213 0.55765 0.0
C816 C 0.36231 0.27052 0.57032 0.0
C817 C 0.36744 0.2339 0.5512 0.0
C818 C 0.32721 0.21866 0.51944 0.0
C819 C 0.17583 0.25305 0.3209 0.0
C820 C 0.21345 0.22985 0.31937 0.0
C821 C 0.17122 0.247 0.35013 0.0
C822 C 0.20423 0.21787 0.37835 0.0
C823 C 0.24204 0.19519 0.37699 0.0
C824 C 0.24643 0.20085 0.34774 0.0
C825 C 0.20047 0.21203 0.40985 0.0
C826 C 0.24036 0.22575 0.44252 0.0
C827 C 0.158 0.1942 0.40792 0.0
C828 C 0.11601 0.17534 0.37472 0.0
C829 C 0.12303 0.14082 0.35482 0.0
C830 C 0.08327 0.12236 0.3241 0.0
C831 C 0.03615 0.13748 0.31327 0.0
C832 C 0.0287 0.17116 0.3331 0.0
C833 C 0.06837 0.1902 0.36358 0.0
H834 H 1.00539 0.12295 0.28959 0.0
H835 H 0.39348 0.28224 0.59492 0.0
loop_
_geom_bond_atom_site_label_1
_geom_bond_atom_site_label_2
_geom_bond_distance
_geom_bond_site_symmetry_2
_ccdc_geom_bond_type
Zn0 N4 2.020 . S
Zn0 O8 2.019 . S
Zn0 N10 2.119 . S
Zn0 O18 1.975 . S
C1 N2 1.334 . S
C1 N5 1.336 . S
N2 C1 1.334 . S
N2 C3 1.334 . S
C3 N2 1.334 . S
C3 N4 1.336 . S
N4 Zn0 2.020 . S
N4 C3 1.336 . S
N4 N5 1.354 . S
N5 C1 1.336 . S
N5 N4 1.354 . S
N5 Zn9 2.020 . S
C6 O7 1.244 . S
C6 O30 1.257 . S
O7 C6 1.244 . S
O8 Zn0 2.019 . S
O8 C28 1.257 . S
Zn9 N5 2.020 . S
Zn9 O16 1.975 . S
Zn9 N25 2.119 . S
Zn9 O30 2.019 . S
N10 Zn0 2.119 . S
N10 C12 1.334 . S
N10 C13 1.328 . S
C11 C12 1.391 . S
C11 N14 1.329 . S
C11 H32 0.930 . S
C12 N10 1.334 . S
C12 C11 1.391 . S
C12 H19 0.930 . S
C13 N10 1.328 . S
C13 C15 1.392 . S
C13 H20 0.930 . S
N14 C11 1.329 . S
N14 C15 1.331 . S
C15 C13 1.392 . S
C15 N14 1.331 . S
O16 Zn9 1.975 . S
O16 C17 1.252 . S
C17 O16 1.252 . S
C17 O18 1.252 . S
O18 Zn0 1.975 . S
O18 C17 1.252 . S
H19 C12 0.930 . S
H20 C13 0.930 . S
C21 C22 1.392 . S
C21 N25 1.328 . S
C21 H27 0.930 . S
C22 C21 1.392 . S
C22 N26 1.331 . S
C23 C24 1.391 . S
C23 N26 1.329 . S
C23 H33 0.930 . S
C24 C23 1.391 . S
C24 N25 1.334 . S
C24 H31 0.930 . S
N25 Zn9 2.119 . S
N25 C21 1.328 . S
N25 C24 1.334 . S
N26 C22 1.331 . S
N26 C23 1.329 . S
H27 C21 0.930 . S
C28 O8 1.257 . S
C28 O29 1.244 . S
O29 C28 1.244 . S
O30 C6 1.257 . S
O30 Zn9 2.019 . S
H31 C24 0.930 . S
H32 C11 0.930 . S
H33 C23 0.930 . S
Zn34 N38 2.020 . S
Zn34 O42 2.019 . S
Zn34 N44 2.119 . S
Zn34 O52 1.975 . S
C35 N36 1.334 . S
C35 N39 1.336 . S
N36 C35 1.334 . S
N36 C37 1.334 . S
C37 N36 1.334 . S
C37 N38 1.336 . S
N38 Zn34 2.020 . S
N38 C37 1.336 . S
N38 N39 1.354 . S
N39 C35 1.336 . S
N39 N38 1.354 . S
N39 Zn43 2.020 . S
C40 O41 1.244 . S
C40 O64 1.257 . S
O41 C40 1.244 . S
O42 Zn34 2.019 . S
O42 C62 1.257 . S
Zn43 N39 2.020 . S
Zn43 O50 1.975 . S
Zn43 N59 2.119 . S
Zn43 O64 2.019 . S
N44 Zn34 2.119 . S
N44 C46 1.334 . S
N44 C47 1.328 . S
C45 C46 1.391 . S
C45 N48 1.329 . S
C45 H66 0.930 . S
C46 N44 1.334 . S
C46 C45 1.391 . S
C46 H53 0.930 . S
C47 N44 1.328 . S
C47 C49 1.392 . S
C47 H54 0.930 . S
N48 C45 1.329 . S
N48 C49 1.331 . S
C49 C47 1.392 . S
C49 N48 1.331 . S
O50 Zn43 1.975 . S
O50 C51 1.252 . S
C51 O50 1.252 . S
C51 O52 1.252 . S
O52 Zn34 1.975 . S
O52 C51 1.252 . S
H53 C46 0.930 . S
H54 C47 0.930 . S
C55 C56 1.392 . S
C55 N59 1.328 . S
C55 H61 0.930 . S
C56 C55 1.392 . S
C56 N60 1.331 . S
C57 C58 1.391 . S
C57 N60 1.329 . S
C57 H67 0.930 . S
C58 C57 1.391 . S
C58 N59 1.334 . S
C58 H65 0.930 . S
N59 Zn43 2.119 . S
N59 C55 1.328 . S
N59 C58 1.334 . S
N60 C56 1.331 . S
N60 C57 1.329 . S
H61 C55 0.930 . S
C62 O42 1.257 . S
C62 O63 1.244 . S
O63 C62 1.244 . S
O64 C40 1.257 . S
O64 Zn43 2.019 . S
H65 C58 0.930 . S
H66 C45 0.930 . S
H67 C57 0.930 . S
Zn68 N72 2.020 . S
Zn68 O76 2.019 . S
Zn68 N78 2.119 . S
Zn68 O86 1.975 . S
C69 N70 1.334 . S
C69 N73 1.336 . S
N70 C69 1.334 . S
N70 C71 1.334 . S
C71 N70 1.334 . S
C71 N72 1.336 . S
N72 Zn68 2.020 . S
N72 C71 1.336 . S
N72 N73 1.354 . S
N73 C69 1.336 . S
N73 N72 1.354 . S
N73 Zn77 2.020 . S
C74 O75 1.244 . S
C74 O98 1.257 . S
O75 C74 1.244 . S
O76 Zn68 2.019 . S
O76 C96 1.257 . S
Zn77 N73 2.020 . S
Zn77 O84 1.975 . S
Zn77 N93 2.119 . S
Zn77 O98 2.019 . S
N78 Zn68 2.119 . S
N78 C80 1.334 . S
N78 C81 1.328 . S
C79 C80 1.391 . S
C79 N82 1.329 . S
C79 H100 0.930 . S
C80 N78 1.334 . S
C80 C79 1.391 . S
C80 H87 0.930 . S
C81 N78 1.328 . S
C81 C83 1.392 . S
C81 H88 0.930 . S
N82 C79 1.329 . S
N82 C83 1.331 . S
C83 C81 1.392 . S
C83 N82 1.331 . S
O84 Zn77 1.975 . S
O84 C85 1.252 . S
C85 O84 1.252 . S
C85 O86 1.252 . S
O86 Zn68 1.975 . S
O86 C85 1.252 . S
H87 C80 0.930 . S
H88 C81 0.930 . S
C89 C90 1.392 . S
C89 N93 1.328 . S
C89 H95 0.930 . S
C90 C89 1.392 . S
C90 N94 1.331 . S
C91 C92 1.391 . S
C91 N94 1.329 . S
C91 H101 0.930 . S
C92 C91 1.391 . S
C92 N93 1.334 . S
C92 H99 0.930 . S
N93 Zn77 2.119 . S
N93 C89 1.328 . S
N93 C92 1.334 . S
N94 C90 1.331 . S
N94 C91 1.329 . S
H95 C89 0.930 . S
C96 O76 1.257 . S
C96 O97 1.244 . S
O97 C96 1.244 . S
O98 C74 1.257 . S
O98 Zn77 2.019 . S
H99 C92 0.930 . S
H100 C79 0.930 . S
H101 C91 0.930 . S
Zn102 N106 2.020 . S
Zn102 O110 2.019 . S
Zn102 N112 2.119 . S
Zn102 O120 1.975 . S
C103 N104 1.334 . S
C103 N107 1.336 . S
N104 C103 1.334 . S
N104 C105 1.334 . S
C105 N104 1.334 . S
C105 N106 1.336 . S
N106 Zn102 2.020 . S
N106 C105 1.336 . S
N106 N107 1.354 . S
N107 C103 1.336 . S
N107 N106 1.354 . S
N107 Zn111 2.020 . S
C108 O109 1.244 . S
C108 O132 1.257 . S
O109 C108 1.244 . S
O110 Zn102 2.019 . S
O110 C130 1.257 . S
Zn111 N107 2.020 . S
Zn111 O118 1.975 . S
Zn111 N127 2.119 . S
Zn111 O132 2.019 . S
N112 Zn102 2.119 . S
N112 C114 1.334 . S
N112 C115 1.328 . S
C113 C114 1.391 . S
C113 N116 1.329 . S
C113 H134 0.930 . S
C114 N112 1.334 . S
C114 C113 1.391 . S
C114 H121 0.930 . S
C115 N112 1.328 . S
C115 C117 1.392 . S
C115 H122 0.930 . S
N116 C113 1.329 . S
N116 C117 1.331 . S
C117 C115 1.392 . S
C117 N116 1.331 . S
O118 Zn111 1.975 . S
O118 C119 1.252 . S
C119 O118 1.252 . S
C119 O120 1.252 . S
O120 Zn102 1.975 . S
O120 C119 1.252 . S
H121 C114 0.930 . S
H122 C115 0.930 . S
C123 C124 1.392 . S
C123 N127 1.328 . S
C123 H129 0.930 . S
C124 C123 1.392 . S
C124 N128 1.331 . S
C125 C126 1.391 . S
C125 N128 1.329 . S
C125 H135 0.930 . S
C126 C125 1.391 . S
C126 N127 1.334 . S
C126 H133 0.930 . S
N127 Zn111 2.119 . S
N127 C123 1.328 . S
N127 C126 1.334 . S
N128 C124 1.331 . S
N128 C125 1.329 . S
H129 C123 0.930 . S
C130 O110 1.257 . S
C130 O131 1.244 . S
O131 C130 1.244 . S
O132 C108 1.257 . S
O132 Zn111 2.019 . S
H133 C126 0.930 . S
H134 C113 0.930 . S
H135 C125 0.930 . S
H136 C154 0.951 . S
H137 C156 0.951 . S
H138 C158 0.950 . S
H139 C159 0.950 . S
H140 C161 0.950 . S
H141 C164 0.950 . S
H142 C165 0.950 . S
H143 C167 0.950 . S
H144 C168 0.950 . S
H145 C169 0.951 . S
H146 C171 0.951 . S
H147 C173 0.950 1_545 S
H148 C174 0.950 . S
H149 C176 0.950 . S
H150 C179 0.950 . S
H151 C180 0.950 1_545 S
H152 C182 0.950 . S
H153 C183 0.950 . S
C154 H136 0.951 . S
C154 C155 1.366 . S
C154 C156 1.388 . S
C155 C154 1.366 . S
C155 C159 1.385 . S
C156 H137 0.951 . S
C156 C154 1.388 . S
C156 C157 1.366 . S
C157 C156 1.366 . S
C157 C158 1.414 . S
C157 C160 1.499 . S
C158 H138 0.950 . S
C158 C157 1.414 . S
C158 C159 1.374 . S
C159 H139 0.950 . S
C159 C155 1.385 . S
C159 C158 1.374 . S
C160 C157 1.499 . S
C160 C161 1.373 . S
C160 C162 1.389 . S
C161 H140 0.950 . S
C161 C160 1.373 . S
C161 C177 1.377 . S
C162 C160 1.389 . S
C162 C163 1.524 . S
C162 C176 1.377 . S
C163 C162 1.524 . S
C163 C164 1.397 . S
C163 C168 1.363 . S
C164 H141 0.950 . S
C164 C163 1.397 . S
C164 C165 1.334 . S
C165 H142 0.950 . S
C165 C164 1.334 . S
C165 C166 1.287 . S
C166 C165 1.287 . S
C166 C167 1.524 . S
C166 H185 0.913 . S
C167 H143 0.950 . S
C167 C166 1.524 . S
C167 C168 1.415 . S
C168 H144 0.950 . S
C168 C163 1.363 . S
C168 C167 1.415 . S
C169 H145 0.951 . S
C169 C170 1.366 . S
C169 C171 1.388 . S
C170 C169 1.366 . S
C170 C174 1.385 . S
C171 H146 0.951 . S
C171 C169 1.388 . S
C171 C172 1.366 . S
C172 C171 1.366 . S
C172 C173 1.414 . S
C172 C175 1.499 1_565 S
C173 H147 0.950 1_565 S
C173 C172 1.414 . S
C173 C174 1.374 . S
C174 H148 0.950 . S
C174 C170 1.385 . S
C174 C173 1.374 . S
C175 C172 1.499 1_545 S
C175 C176 1.373 . S
C175 C177 1.389 . S
C176 H149 0.950 . S
C176 C162 1.377 . S
C176 C175 1.373 . S
C177 C161 1.377 . S
C177 C175 1.389 . S
C177 C178 1.524 . S
C178 C177 1.524 . S
C178 C179 1.397 . S
C178 C183 1.363 1_545 S
C179 H150 0.950 . S
C179 C178 1.397 . S
C179 C180 1.334 1_545 S
C180 H151 0.950 1_565 S
C180 C179 1.334 1_565 S
C180 C181 1.287 . S
C181 C180 1.287 . S
C181 C182 1.524 . S
C181 H184 0.999 . S
C182 H152 0.950 . S
C182 C181 1.524 . S
C182 C183 1.415 . S
C183 H153 0.950 . S
C183 C178 1.363 1_565 S
C183 C182 1.415 . S
H184 C181 0.999 . S
H185 C166 0.913 . S
H186 C204 0.951 . S
H187 C206 0.951 . S
H188 C208 0.950 . S
H189 C209 0.950 . S
H190 C211 0.950 . S
H191 C214 0.950 . S
H192 C215 0.950 . S
H193 C217 0.950 . S
H194 C218 0.950 . S
H195 C219 0.951 . S
H196 C221 0.951 . S
H197 C223 0.950 . S
H198 C224 0.950 . S
H199 C226 0.950 . S
H200 C229 0.950 . S
H201 C230 0.950 . S
H202 C232 0.950 . S
H203 C233 0.950 . S
C204 H186 0.951 . S
C204 C205 1.366 . S
C204 C206 1.388 . S
C205 C204 1.366 . S
C205 C209 1.385 . S
C206 H187 0.951 . S
C206 C204 1.388 . S
C206 C207 1.366 . S
C207 C206 1.366 . S
C207 C208 1.414 . S
C207 C210 1.499 . S
C208 H188 0.950 . S
C208 C207 1.414 . S
C208 C209 1.374 . S
C209 H189 0.950 . S
C209 C205 1.385 . S
C209 C208 1.374 . S
C210 C207 1.499 . S
C210 C211 1.373 . S
C210 C212 1.389 . S
C211 H190 0.950 . S
C211 C210 1.373 . S
C211 C227 1.377 . S
C212 C210 1.389 . S
C212 C213 1.524 . S
C212 C226 1.377 . S
C213 C212 1.524 . S
C213 C214 1.397 . S
C213 C218 1.363 . S
C214 H191 0.950 . S
C214 C213 1.397 . S
C214 C215 1.334 . S
C215 H192 0.950 . S
C215 C214 1.334 . S
C215 C216 1.287 . S
C216 C215 1.287 . S
C216 C217 1.524 . S
C216 H235 0.913 . S
C217 H193 0.950 . S
C217 C216 1.524 . S
C217 C218 1.415 . S
C218 H194 0.950 . S
C218 C213 1.363 . S
C218 C217 1.415 . S
C219 H195 0.951 . S
C219 C220 1.366 . S
C219 C221 1.388 . S
C220 C219 1.366 . S
C220 C224 1.385 . S
C221 H196 0.951 . S
C221 C219 1.388 . S
C221 C222 1.366 . S
C222 C221 1.366 . S
C222 C223 1.414 . S
C222 C225 1.499 . S
C223 H197 0.950 . S
C223 C222 1.414 . S
C223 C224 1.374 . S
C224 H198 0.950 . S
C224 C220 1.385 . S
C224 C223 1.374 . S
C225 C222 1.499 . S
C225 C226 1.373 . S
C225 C227 1.389 . S
C226 H199 0.950 . S
C226 C212 1.377 . S
C226 C225 1.373 . S
C227 C211 1.377 . S
C227 C225 1.389 . S
C227 C228 1.524 . S
C228 C227 1.524 . S
C228 C229 1.397 . S
C228 C233 1.363 . S
C229 H200 0.950 . S
C229 C228 1.397 . S
C229 C230 1.334 . S
C230 H201 0.950 . S
C230 C229 1.334 . S
C230 C231 1.287 . S
C231 C230 1.287 . S
C231 C232 1.524 . S
C231 H234 0.999 . S
C232 H202 0.950 . S
C232 C231 1.524 . S
C232 C233 1.415 . S
C233 H203 0.950 . S
C233 C228 1.363 . S
C233 C232 1.415 . S
H234 C231 0.999 . S
H235 C216 0.913 . S
H236 C254 0.951 . S
H237 C256 0.951 . S
H238 C258 0.950 . S
H239 C259 0.950 . S
H240 C261 0.950 1_545 S
H241 C264 0.950 . S
H242 C265 0.950 . S
H243 C267 0.950 . S
H244 C268 0.950 . S
H245 C269 0.951 . S
H246 C271 0.951 . S
H247 C273 0.950 . S
H248 C274 0.950 . S
H249 C276 0.950 . S
H250 C279 0.950 . S
H251 C280 0.950 . S
H252 C282 0.950 . S
H253 C283 0.950 . S
C254 H236 0.951 . S
C254 C255 1.366 . S
C254 C256 1.388 . S
C255 C254 1.366 . S
C255 C259 1.385 . S
C256 H237 0.951 . S
C256 C254 1.388 . S
C256 C257 1.366 . S
C257 C256 1.366 . S
C257 C258 1.414 . S
C257 C260 1.499 1_545 S
C258 H238 0.950 . S
C258 C257 1.414 . S
C258 C259 1.374 . S
C259 H239 0.950 . S
C259 C255 1.385 . S
C259 C258 1.374 . S
C260 C257 1.499 1_565 S
C260 C261 1.373 . S
C260 C262 1.389 . S
C261 H240 0.950 1_565 S
C261 C260 1.373 . S
C261 C277 1.377 . S
C262 C260 1.389 . S
C262 C263 1.524 . S
C262 C276 1.377 . S
C263 C262 1.524 . S
C263 C264 1.397 . S
C263 C268 1.363 . S
C264 H241 0.950 . S
C264 C263 1.397 . S
C264 C265 1.334 . S
C265 H242 0.950 . S
C265 C264 1.334 . S
C265 C266 1.287 . S
C266 C265 1.287 . S
C266 C267 1.524 . S
C266 H285 0.913 . S
C267 H243 0.950 . S
C267 C266 1.524 . S
C267 C268 1.415 . S
C268 H244 0.950 . S
C268 C263 1.363 . S
C268 C267 1.415 . S
C269 H245 0.951 . S
C269 C270 1.366 . S
C269 C271 1.388 . S
C270 C269 1.366 . S
C270 C274 1.385 . S
C271 H246 0.951 . S
C271 C269 1.388 . S
C271 C272 1.366 . S
C272 C271 1.366 . S
C272 C273 1.414 . S
C272 C275 1.499 . S
C273 H247 0.950 . S
C273 C272 1.414 . S
C273 C274 1.374 . S
C274 H248 0.950 . S
C274 C270 1.385 . S
C274 C273 1.374 . S
C275 C272 1.499 . S
C275 C276 1.373 . S
C275 C277 1.389 . S
C276 H249 0.950 . S
C276 C262 1.377 . S
C276 C275 1.373 . S
C277 C261 1.377 . S
C277 C275 1.389 . S
C277 C278 1.524 . S
C278 C277 1.524 . S
C278 C279 1.397 . S
C278 C283 1.363 1_565 S
C279 H250 0.950 . S
C279 C278 1.397 . S
C279 C280 1.334 1_565 S
C280 H251 0.950 . S
C280 C279 1.334 1_545 S
C280 C281 1.287 . S
C281 C280 1.287 . S
C281 C282 1.524 . S
C281 H284 0.999 . S
C282 H252 0.950 . S
C282 C281 1.524 . S
C282 C283 1.415 . S
C283 H253 0.950 . S
C283 C278 1.363 1_545 S
C283 C282 1.415 . S
H284 C281 0.999 . S
H285 C266 0.913 . S
H286 C304 0.951 . S
H287 C306 0.951 . S
H288 C308 0.950 . S
H289 C309 0.950 . S
H290 C311 0.950 . S
H291 C314 0.950 . S
H292 C315 0.950 . S
H293 C317 0.950 . S
H294 C318 0.950 . S
H295 C319 0.951 . S
H296 C321 0.951 . S
H297 C323 0.950 . S
H298 C324 0.950 . S
H299 C326 0.950 . S
H300 C329 0.950 . S
H301 C330 0.950 . S
H302 C332 0.950 . S
H303 C333 0.950 . S
C304 H286 0.951 . S
C304 C305 1.366 . S
C304 C306 1.388 . S
C305 C304 1.366 . S
C305 C309 1.385 . S
C306 H287 0.951 . S
C306 C304 1.388 . S
C306 C307 1.366 . S
C307 C306 1.366 . S
C307 C308 1.414 . S
C307 C310 1.499 . S
C308 H288 0.950 . S
C308 C307 1.414 . S
C308 C309 1.374 . S
C309 H289 0.950 . S
C309 C305 1.385 . S
C309 C308 1.374 . S
C310 C307 1.499 . S
C310 C311 1.373 . S
C310 C312 1.389 . S
C311 H290 0.950 . S
C311 C310 1.373 . S
C311 C327 1.377 . S
C312 C310 1.389 . S
C312 C313 1.524 . S
C312 C326 1.377 . S
C313 C312 1.524 . S
C313 C314 1.397 . S
C313 C318 1.363 . S
C314 H291 0.950 . S
C314 C313 1.397 . S
C314 C315 1.334 . S
C315 H292 0.950 . S
C315 C314 1.334 . S
C315 C316 1.287 . S
C316 C315 1.287 . S
C316 C317 1.524 . S
C316 H335 0.913 . S
C317 H293 0.950 . S
C317 C316 1.524 . S
C317 C318 1.415 . S
C318 H294 0.950 . S
C318 C313 1.363 . S
C318 C317 1.415 . S
C319 H295 0.951 . S
C319 C320 1.366 . S
C319 C321 1.388 . S
C320 C319 1.366 . S
C320 C324 1.385 . S
C321 H296 0.951 . S
C321 C319 1.388 . S
C321 C322 1.366 . S
C322 C321 1.366 . S
C322 C323 1.414 . S
C322 C325 1.499 . S
C323 H297 0.950 . S
C323 C322 1.414 . S
C323 C324 1.374 . S
C324 H298 0.950 . S
C324 C320 1.385 . S
C324 C323 1.374 . S
C325 C322 1.499 . S
C325 C326 1.373 . S
C325 C327 1.389 . S
C326 H299 0.950 . S
C326 C312 1.377 . S
C326 C325 1.373 . S
C327 C311 1.377 . S
C327 C325 1.389 . S
C327 C328 1.524 . S
C328 C327 1.524 . S
C328 C329 1.397 . S
C328 C333 1.363 . S
C329 H300 0.950 . S
C329 C328 1.397 . S
C329 C330 1.334 . S
C330 H301 0.950 . S
C330 C329 1.334 . S
C330 C331 1.287 . S
C331 C330 1.287 . S
C331 C332 1.524 . S
C331 H334 0.999 . S
C332 H302 0.950 . S
C332 C331 1.524 . S
C332 C333 1.415 . S
C333 H303 0.950 . S
C333 C328 1.363 . S
C333 C332 1.415 . S
H334 C331 0.999 . S
H335 C316 0.913 . S
H336 C354 0.951 . S
H337 C356 0.953 . S
H338 C358 0.950 1_655 S
H339 C359 0.950 . S
H340 C361 0.950 . S
H341 C364 0.950 . S
H342 C365 0.950 1_655 S
H343 C367 0.950 . S
H344 C368 0.950 . S
H345 C369 0.951 . S
H346 C371 0.951 . S
H347 C373 0.950 . S
H348 C374 0.950 . S
H349 C376 0.950 . S
H350 C379 0.950 . S
H351 C380 0.950 1_565 S
H352 C382 0.950 . S
H353 C383 0.950 . S
C354 H336 0.951 . S
C354 C355 1.366 . S
C354 C356 1.388 . S
C355 C354 1.366 . S
C355 C359 1.385 . S
C356 H337 0.953 . S
C356 C354 1.388 . S
C356 C357 1.366 . S
C357 C356 1.366 . S
C357 C358 1.414 . S
C357 C360 1.499 . S
C358 H338 0.950 1_455 S
C358 C357 1.414 . S
C358 C359 1.374 . S
C359 H339 0.950 . S
C359 C355 1.385 . S
C359 C358 1.374 . S
C360 C357 1.499 . S
C360 C361 1.373 1_455 S
C360 C362 1.389 1_545 S
C361 H340 0.950 . S
C361 C360 1.373 1_655 S
C361 C377 1.377 1_545 S
C362 C360 1.389 1_565 S
C362 C363 1.542 . S
C362 C376 1.359 1_455 S
C363 C362 1.542 . S
C363 C364 1.397 1_455 S
C363 C368 1.363 . S
C364 H341 0.950 . S
C364 C363 1.397 1_655 S
C364 C365 1.334 1_655 S
C365 H342 0.950 1_455 S
C365 C364 1.334 1_455 S
C365 C366 1.287 . S
C366 C365 1.287 . S
C366 C367 1.524 . S
C366 H385 0.913 . S
C367 H343 0.950 . S
C367 C366 1.524 . S
C367 C368 1.415 . S
C368 H344 0.950 . S
C368 C363 1.363 . S
C368 C367 1.415 . S
C369 H345 0.951 . S
C369 C370 1.366 . S
C369 C371 1.388 . S
C370 C369 1.366 . S
C370 C374 1.385 . S
C371 H346 0.951 . S
C371 C369 1.388 . S
C371 C372 1.366 . S
C372 C371 1.366 . S
C372 C373 1.414 . S
C372 C375 1.499 . S
C373 H347 0.950 . S
C373 C372 1.414 . S
C373 C374 1.374 . S
C374 H348 0.950 . S
C374 C370 1.385 . S
C374 C373 1.374 . S
C375 C372 1.499 . S
C375 C376 1.373 . S
C375 C377 1.389 . S
C376 H349 0.950 . S
C376 C362 1.359 1_655 S
C376 C375 1.373 . S
C377 C361 1.377 1_565 S
C377 C375 1.389 . S
C377 C378 1.524 1_565 S
C378 C377 1.524 1_545 S
C378 C379 1.397 1_545 S
C378 C383 1.363 . S
C379 H350 0.950 . S
C379 C378 1.397 1_565 S
C379 C380 1.334 1_565 S
C380 H351 0.950 1_545 S
C380 C379 1.334 1_545 S
C380 C381 1.287 . S
C381 C380 1.287 . S
C381 C382 1.524 . S
C381 H384 0.999 . S
C382 H352 0.950 . S
C382 C381 1.524 . S
C382 C383 1.415 . S
C383 H353 0.950 . S
C383 C378 1.363 . S
C383 C382 1.415 . S
H384 C381 0.999 . S
H385 C366 0.913 . S
H386 C404 0.951 . S
H387 C406 0.951 . S
H388 C408 0.950 . S
H389 C409 0.950 . S
H390 C411 0.950 . S
H391 C414 0.950 . S
H392 C415 0.950 . S
H393 C417 0.950 . S
H394 C418 0.950 1_455 S
H395 C419 0.951 . S
H396 C421 0.951 . S
H397 C423 0.950 . S
H398 C424 0.950 . S
H399 C426 0.950 . S
H400 C429 0.950 . S
H401 C430 0.950 . S
H402 C432 0.950 . S
H403 C433 0.950 . S
C404 H386 0.951 . S
C404 C405 1.366 . S
C404 C406 1.388 . S
C405 C404 1.366 . S
C405 C409 1.385 . S
C406 H387 0.951 . S
C406 C404 1.388 . S
C406 C407 1.366 . S
C407 C406 1.366 . S
C407 C408 1.414 . S
C407 C410 1.499 . S
C408 H388 0.950 . S
C408 C407 1.414 . S
C408 C409 1.374 . S
C409 H389 0.950 . S
C409 C405 1.385 . S
C409 C408 1.374 . S
C410 C407 1.499 . S
C410 C411 1.373 . S
C410 C412 1.389 . S
C411 H390 0.950 . S
C411 C410 1.373 . S
C411 C427 1.377 . S
C412 C410 1.389 . S
C412 C413 1.524 1_455 S
C412 C426 1.377 1_455 S
C413 C412 1.524 1_655 S
C413 C414 1.397 . S
C413 C418 1.363 . S
C414 H391 0.950 . S
C414 C413 1.397 . S
C414 C415 1.334 . S
C415 H392 0.950 . S
C415 C414 1.334 . S
C415 C416 1.287 . S
C416 C415 1.287 . S
C416 C417 1.524 . S
C416 H435 0.913 . S
C417 H393 0.950 . S
C417 C416 1.524 . S
C417 C418 1.415 . S
C418 H394 0.950 1_655 S
C418 C413 1.363 . S
C418 C417 1.415 . S
C419 H395 0.951 . S
C419 C420 1.366 . S
C419 C421 1.388 . S
C420 C419 1.366 . S
C420 C424 1.385 . S
C421 H396 0.951 . S
C421 C419 1.388 . S
C421 C422 1.366 . S
C422 C421 1.366 . S
C422 C423 1.414 . S
C422 C425 1.499 . S
C423 H397 0.950 . S
C423 C422 1.414 . S
C423 C424 1.374 . S
C424 H398 0.950 . S
C424 C420 1.385 . S
C424 C423 1.374 . S
C425 C422 1.499 . S
C425 C426 1.373 . S
C425 C427 1.389 1_655 S
C426 H399 0.950 . S
C426 C412 1.377 1_655 S
C426 C425 1.373 . S
C427 C411 1.377 . S
C427 C425 1.389 1_455 S
C427 C428 1.524 . S
C428 C427 1.524 . S
C428 C429 1.397 . S
C428 C433 1.363 . S
C429 H400 0.950 . S
C429 C428 1.397 . S
C429 C430 1.334 . S
C430 H401 0.950 . S
C430 C429 1.334 . S
C430 C431 1.287 . S
C431 C430 1.287 . S
C431 C432 1.524 . S
C431 H434 0.999 . S
C432 H402 0.950 . S
C432 C431 1.524 . S
C432 C433 1.415 . S
C433 H403 0.950 . S
C433 C428 1.363 . S
C433 C432 1.415 . S
H434 C431 0.999 . S
H435 C416 0.913 . S
H436 C454 0.951 . S
H437 C456 0.951 . S
H438 C458 0.950 . S
H439 C459 0.950 . S
H440 C461 0.950 . S
H441 C464 0.950 . S
H442 C465 0.950 . S
H443 C467 0.950 . S
H444 C468 0.950 . S
H445 C469 0.951 . S
H446 C471 0.951 . S
H447 C473 0.950 . S
H448 C474 0.950 . S
H449 C476 0.950 . S
H450 C479 0.950 . S
H451 C480 0.950 . S
H452 C482 0.950 . S
H453 C483 0.950 . S
C454 H436 0.951 . S
C454 C455 1.366 . S
C454 C456 1.388 . S
C455 C454 1.366 . S
C455 C459 1.385 . S
C456 H437 0.951 . S
C456 C454 1.388 . S
C456 C457 1.366 . S
C457 C456 1.366 . S
C457 C458 1.414 . S
C457 C460 1.499 . S
C458 H438 0.950 . S
C458 C457 1.414 . S
C458 C459 1.374 . S
C459 H439 0.950 . S
C459 C455 1.385 . S
C459 C458 1.374 . S
C460 C457 1.499 . S
C460 C461 1.373 1_655 S
C460 C462 1.389 1_565 S
C461 H440 0.950 . S
C461 C460 1.373 1_455 S
C461 C477 1.377 1_565 S
C462 C460 1.389 1_545 S
C462 C463 1.524 . S
C462 C476 1.377 1_655 S
C463 C462 1.524 . S
C463 C464 1.397 . S
C463 C468 1.363 . S
C464 H441 0.950 . S
C464 C463 1.397 . S
C464 C465 1.334 . S
C465 H442 0.950 . S
C465 C464 1.334 . S
C465 C466 1.287 . S
C466 C465 1.287 . S
C466 C467 1.524 . S
C466 H485 0.913 . S
C467 H443 0.950 . S
C467 C466 1.524 . S
C467 C468 1.415 . S
C468 H444 0.950 . S
C468 C463 1.363 . S
C468 C467 1.415 . S
C469 H445 0.951 . S
C469 C470 1.366 . S
C469 C471 1.388 . S
C470 C469 1.366 . S
C470 C474 1.385 . S
C471 H446 0.951 . S
C471 C469 1.388 . S
C471 C472 1.366 . S
C472 C471 1.366 . S
C472 C473 1.414 . S
C472 C475 1.499 . S
C473 H447 0.950 . S
C473 C472 1.414 . S
C473 C474 1.374 . S
C474 H448 0.950 . S
C474 C470 1.385 . S
C474 C473 1.374 . S
C475 C472 1.499 . S
C475 C476 1.373 . S
C475 C477 1.389 . S
C476 H449 0.950 . S
C476 C462 1.377 1_455 S
C476 C475 1.373 . S
C477 C461 1.377 1_545 S
C477 C475 1.389 . S
C477 C478 1.524 1_545 S
C478 C477 1.524 1_565 S
C478 C479 1.397 1_565 S
C478 C483 1.363 . S
C479 H450 0.950 . S
C479 C478 1.397 1_545 S
C479 C480 1.334 1_545 S
C480 H451 0.950 . S
C480 C479 1.334 1_565 S
C480 C481 1.287 . S
C481 C480 1.287 . S
C481 C482 1.524 . S
C481 H484 0.999 . S
C482 H452 0.950 . S
C482 C481 1.524 . S
C482 C483 1.415 . S
C483 H453 0.950 . S
C483 C478 1.363 . S
C483 C482 1.415 . S
H484 C481 0.999 . S
H485 C466 0.913 . S
H486 C504 0.951 . S
H487 C506 0.951 1_655 S
H488 C508 0.950 . S
H489 C509 0.950 . S
H490 C511 0.950 . S
H491 C514 0.950 . S
H492 C515 0.950 . S
H493 C517 0.950 . S
H494 C518 0.950 . S
H495 C519 0.951 . S
H496 C521 0.951 . S
H497 C523 0.950 . S
H498 C524 0.950 . S
H499 C526 0.950 . S
H500 C529 0.950 . S
H501 C530 0.950 . S
H502 C532 0.950 1_455 S
H503 C533 0.923 1_455 S
C504 H486 0.951 . S
C504 C505 1.366 . S
C504 C506 1.388 . S
C505 C504 1.366 . S
C505 C509 1.385 . S
C506 H487 0.951 1_455 S
C506 C504 1.388 . S
C506 C507 1.366 . S
C507 C506 1.366 . S
C507 C508 1.414 . S
C507 C510 1.499 . S
C508 H488 0.950 . S
C508 C507 1.414 . S
C508 C509 1.374 . S
C509 H489 0.950 . S
C509 C505 1.385 . S
C509 C508 1.374 . S
C510 C507 1.499 . S
C510 C511 1.373 . S
C510 C512 1.389 1_455 S
C511 H490 0.950 . S
C511 C510 1.373 . S
C511 C527 1.377 1_455 S
C512 C510 1.389 1_655 S
C512 C513 1.524 1_655 S
C512 C526 1.377 . S
C513 C512 1.524 1_455 S
C513 C514 1.397 . S
C513 C518 1.363 1_455 S
C514 H491 0.950 . S
C514 C513 1.397 . S
C514 C515 1.334 . S
C515 H492 0.950 . S
C515 C514 1.334 . S
C515 C516 1.287 . S
C516 C515 1.287 . S
C516 C517 1.524 1_455 S
C516 H535 0.913 . S
C517 H493 0.950 . S
C517 C516 1.524 1_655 S
C517 C518 1.415 . S
C518 H494 0.950 . S
C518 C513 1.363 1_655 S
C518 C517 1.415 . S
C519 H495 0.951 . S
C519 C520 1.366 . S
C519 C521 1.388 . S
C520 C519 1.366 . S
C520 C524 1.385 . S
C521 H496 0.951 . S
C521 C519 1.388 . S
C521 C522 1.366 . S
C522 C521 1.366 . S
C522 C523 1.414 . S
C522 C525 1.499 . S
C523 H497 0.950 . S
C523 C522 1.414 . S
C523 C524 1.374 . S
C524 H498 0.950 . S
C524 C520 1.385 . S
C524 C523 1.374 . S
C525 C522 1.499 . S
C525 C526 1.373 . S
C525 C527 1.389 . S
C526 H499 0.950 . S
C526 C512 1.377 . S
C526 C525 1.373 . S
C527 C511 1.377 1_655 S
C527 C525 1.389 . S
C527 C528 1.524 . S
C528 C527 1.524 . S
C528 C529 1.397 . S
C528 C533 1.372 . S
C529 H500 0.950 . S
C529 C528 1.397 . S
C529 C530 1.334 . S
C530 H501 0.950 . S
C530 C529 1.334 . S
C530 C531 1.287 . S
C531 C530 1.287 . S
C531 C532 1.524 . S
C531 H534 0.999 . S
C532 H502 0.950 1_655 S
C532 C531 1.524 . S
C532 C533 1.433 . S
C533 H503 0.923 1_655 S
C533 C528 1.372 . S
C533 C532 1.433 . S
H534 C531 0.999 . S
H535 C516 0.913 . S
H536 C554 0.951 . S
H537 C556 0.951 . S
H538 C558 0.950 . S
H539 C559 0.950 . S
H540 C561 0.950 . S
H541 C564 0.950 . S
H542 C565 0.950 . S
H543 C567 0.950 . S
H544 C568 0.950 . S
H545 C569 0.951 . S
H546 C571 0.951 . S
H547 C573 0.950 . S
H548 C574 0.950 . S
H549 C576 0.950 . S
H550 C579 0.950 . S
H551 C580 0.950 . S
H552 C582 0.950 . S
H553 C583 0.950 . S
C554 H536 0.951 . S
C554 C555 1.366 . S
C554 C556 1.388 . S
C555 C554 1.366 . S
C555 C559 1.385 . S
C556 H537 0.951 . S
C556 C554 1.388 . S
C556 C557 1.366 . S
C557 C556 1.366 . S
C557 C558 1.414 . S
C557 C560 1.499 . S
C558 H538 0.950 . S
C558 C557 1.414 . S
C558 C559 1.374 . S
C559 H539 0.950 . S
C559 C555 1.385 . S
C559 C558 1.374 . S
C560 C557 1.499 . S
C560 C561 1.373 1_556 S
C560 C562 1.389 . S
C561 H540 0.950 . S
C561 C560 1.373 1_554 S
C561 C577 1.377 1_655 S
C562 C560 1.389 . S
C562 C563 1.524 . S
C562 C576 1.377 1_655 S
C563 C562 1.524 . S
C563 C564 1.397 . S
C563 C568 1.363 1_655 S
C564 H541 0.950 . S
C564 C563 1.397 . S
C564 C565 1.334 . S
C565 H542 0.950 . S
C565 C564 1.334 . S
C565 C566 1.287 . S
C566 C565 1.287 . S
C566 C567 1.524 1_655 S
C566 H585 0.913 . S
C567 H543 0.950 . S
C567 C566 1.524 1_455 S
C567 C568 1.415 . S
C568 H544 0.950 . S
C568 C563 1.363 1_455 S
C568 C567 1.415 . S
C569 H545 0.951 . S
C569 C570 1.366 . S
C569 C571 1.388 . S
C570 C569 1.366 . S
C570 C574 1.385 . S
C571 H546 0.951 . S
C571 C569 1.388 . S
C571 C572 1.366 . S
C572 C571 1.366 . S
C572 C573 1.414 . S
C572 C575 1.499 . S
C573 H547 0.950 . S
C573 C572 1.414 . S
C573 C574 1.374 . S
C574 H548 0.950 . S
C574 C570 1.385 . S
C574 C573 1.374 . S
C575 C572 1.499 . S
C575 C576 1.373 1_554 S
C575 C577 1.389 . S
C576 H549 0.950 . S
C576 C562 1.377 1_455 S
C576 C575 1.373 1_556 S
C577 C561 1.377 1_455 S
C577 C575 1.389 . S
C577 C578 1.524 . S
C578 C577 1.524 . S
C578 C579 1.397 . S
C578 C583 1.363 1_455 S
C579 H550 0.950 . S
C579 C578 1.397 . S
C579 C580 1.334 . S
C580 H551 0.950 . S
C580 C579 1.334 . S
C580 C581 1.287 . S
C581 C580 1.287 . S
C581 C582 1.524 1_455 S
C581 H584 0.999 . S
C582 H552 0.950 . S
C582 C581 1.524 1_655 S
C582 C583 1.415 . S
C583 H553 0.950 . S
C583 C578 1.363 1_655 S
C583 C582 1.415 . S
H584 C581 0.999 . S
H585 C566 0.913 . S
H586 C604 0.951 . S
H587 C606 0.951 . S
H588 C608 0.950 . S
H589 C609 0.950 . S
H590 C611 0.950 . S
H591 C614 0.950 . S
H592 C615 0.950 . S
H593 C617 0.950 . S
H594 C618 0.950 1_565 S
H595 C619 0.951 . S
H596 C621 0.951 . S
H597 C623 0.950 . S
H598 C624 0.950 . S
H599 C626 0.950 . S
H600 C629 0.950 . S
H601 C630 0.950 . S
H602 C632 0.950 . S
H603 C633 0.950 1_545 S
C604 H586 0.951 . S
C604 C605 1.366 . S
C604 C606 1.388 . S
C605 C604 1.366 . S
C605 C609 1.385 . S
C606 H587 0.951 . S
C606 C604 1.388 . S
C606 C607 1.366 . S
C607 C606 1.366 . S
C607 C608 1.414 . S
C607 C610 1.499 . S
C608 H588 0.950 . S
C608 C607 1.414 . S
C608 C609 1.374 . S
C609 H589 0.950 . S
C609 C605 1.385 . S
C609 C608 1.374 . S
C610 C607 1.499 . S
C610 C611 1.373 1_655 S
C610 C612 1.389 1_565 S
C611 H590 0.950 . S
C611 C610 1.373 1_455 S
C611 C627 1.377 . S
C612 C610 1.389 1_545 S
C612 C613 1.524 . S
C612 C626 1.377 . S
C613 C612 1.524 . S
C613 C614 1.397 . S
C613 C618 1.363 . S
C614 H591 0.950 . S
C614 C613 1.397 . S
C614 C615 1.334 . S
C615 H592 0.950 . S
C615 C614 1.334 . S
C615 C616 1.287 . S
C616 C615 1.287 . S
C616 C617 1.524 . S
C616 H635 0.913 . S
C617 H593 0.950 . S
C617 C616 1.524 . S
C617 C618 1.415 . S
C618 H594 0.950 1_545 S
C618 C613 1.363 . S
C618 C617 1.415 . S
C619 H595 0.951 . S
C619 C620 1.366 . S
C619 C621 1.388 . S
C620 C619 1.366 . S
C620 C624 1.385 . S
C621 H596 0.951 . S
C621 C619 1.388 . S
C621 C622 1.366 . S
C622 C621 1.366 . S
C622 C623 1.414 . S
C622 C625 1.499 . S
C623 H597 0.950 . S
C623 C622 1.414 . S
C623 C624 1.374 . S
C624 H598 0.950 . S
C624 C620 1.385 . S
C624 C623 1.374 . S
C625 C622 1.499 . S
C625 C626 1.373 1_455 S
C625 C627 1.389 1_545 S
C626 H599 0.950 . S
C626 C612 1.377 . S
C626 C625 1.373 1_655 S
C627 C611 1.377 . S
C627 C625 1.389 1_565 S
C627 C628 1.524 . S
C628 C627 1.524 . S
C628 C629 1.397 . S
C628 C633 1.363 . S
C629 H600 0.950 . S
C629 C628 1.397 . S
C629 C630 1.334 . S
C630 H601 0.950 . S
C630 C629 1.334 . S
C630 C631 1.287 . S
C631 C630 1.287 . S
C631 C632 1.524 . S
C631 H634 0.999 . S
C632 H602 0.950 . S
C632 C631 1.524 . S
C632 C633 1.415 . S
C633 H603 0.950 1_565 S
C633 C628 1.363 . S
C633 C632 1.415 . S
H634 C631 0.999 . S
H635 C616 0.913 . S
H636 C654 0.951 . S
H637 C656 0.951 . S
H638 C658 0.950 . S
H639 C659 0.950 . S
H640 C661 0.950 . S
H641 C664 0.950 . S
H642 C665 0.950 . S
H643 C667 0.950 . S
H644 C668 0.950 . S
H645 C669 0.951 . S
H646 C671 0.951 . S
H647 C673 0.950 . S
H648 C674 0.950 . S
H649 C676 0.950 . S
H650 C679 0.950 . S
H651 C680 0.950 . S
H652 C682 0.950 . S
H653 C683 0.950 . S
C654 H636 0.951 . S
C654 C655 1.366 . S
C654 C656 1.388 . S
C655 C654 1.366 . S
C655 C659 1.385 . S
C656 H637 0.951 . S
C656 C654 1.388 . S
C656 C657 1.366 . S
C657 C656 1.366 . S
C657 C658 1.414 . S
C657 C660 1.499 . S
C658 H638 0.950 . S
C658 C657 1.414 . S
C658 C659 1.374 . S
C659 H639 0.950 . S
C659 C655 1.385 . S
C659 C658 1.374 . S
C660 C657 1.499 . S
C660 C661 1.373 . S
C660 C662 1.389 . S
C661 H640 0.950 . S
C661 C660 1.373 . S
C661 C677 1.377 . S
C662 C660 1.389 . S
C662 C663 1.524 . S
C662 C676 1.377 . S
C663 C662 1.524 . S
C663 C664 1.397 . S
C663 C668 1.363 . S
C664 H641 0.950 . S
C664 C663 1.397 . S
C664 C665 1.334 . S
C665 H642 0.950 . S
C665 C664 1.334 . S
C665 C666 1.287 . S
C666 C665 1.287 . S
C666 C667 1.524 . S
C666 H685 0.913 . S
C667 H643 0.950 . S
C667 C666 1.524 . S
C667 C668 1.415 . S
C668 H644 0.950 . S
C668 C663 1.363 . S
C668 C667 1.415 . S
C669 H645 0.951 . S
C669 C670 1.366 . S
C669 C671 1.388 . S
C670 C669 1.366 . S
C670 C674 1.385 . S
C671 H646 0.951 . S
C671 C669 1.388 . S
C671 C672 1.366 . S
C672 C671 1.366 . S
C672 C673 1.414 . S
C672 C675 1.499 1_554 S
C673 H647 0.950 . S
C673 C672 1.414 . S
C673 C674 1.374 . S
C674 H648 0.950 . S
C674 C670 1.385 . S
C674 C673 1.374 . S
C675 C672 1.499 1_556 S
C675 C676 1.373 . S
C675 C677 1.389 . S
C676 H649 0.950 . S
C676 C662 1.377 . S
C676 C675 1.373 . S
C677 C661 1.377 . S
C677 C675 1.389 . S
C677 C678 1.524 . S
C678 C677 1.524 . S
C678 C679 1.397 . S
C678 C683 1.363 . S
C679 H650 0.950 . S
C679 C678 1.397 . S
C679 C680 1.334 . S
C680 H651 0.950 . S
C680 C679 1.334 . S
C680 C681 1.287 . S
C681 C680 1.287 . S
C681 C682 1.524 . S
C681 H684 0.999 . S
C682 H652 0.950 . S
C682 C681 1.524 . S
C682 C683 1.415 . S
C683 H653 0.950 . S
C683 C678 1.363 . S
C683 C682 1.415 . S
H684 C681 0.999 . S
H685 C666 0.913 . S
H686 C704 0.951 . S
H687 C706 0.951 . S
H688 C708 0.950 . S
H689 C709 0.950 . S
H690 C711 0.950 . S
H691 C714 0.950 . S
H692 C715 0.950 . S
H693 C717 0.950 . S
H694 C718 0.950 . S
H695 C719 0.951 . S
H696 C721 0.951 . S
H697 C723 0.950 . S
H698 C724 0.950 . S
H699 C726 0.950 . S
H700 C729 0.950 . S
H701 C730 0.950 . S
H702 C732 0.950 . S
H703 C733 0.950 . S
C704 H686 0.951 . S
C704 C705 1.366 . S
C704 C706 1.388 . S
C705 C704 1.366 . S
C705 C709 1.385 . S
C706 H687 0.951 . S
C706 C704 1.388 . S
C706 C707 1.366 . S
C707 C706 1.366 . S
C707 C708 1.414 . S
C707 C710 1.499 . S
C708 H688 0.950 . S
C708 C707 1.414 . S
C708 C709 1.374 . S
C709 H689 0.950 . S
C709 C705 1.385 . S
C709 C708 1.374 . S
C710 C707 1.499 . S
C710 C711 1.373 . S
C710 C712 1.389 . S
C711 H690 0.950 . S
C711 C710 1.373 . S
C711 C727 1.377 . S
C712 C710 1.389 . S
C712 C713 1.524 . S
C712 C726 1.377 . S
C713 C712 1.524 . S
C713 C714 1.397 . S
C713 C718 1.363 . S
C714 H691 0.950 . S
C714 C713 1.397 . S
C714 C715 1.334 . S
C715 H692 0.950 . S
C715 C714 1.334 . S
C715 C716 1.287 . S
C716 C715 1.287 . S
C716 C717 1.524 . S
C716 H735 0.913 . S
C717 H693 0.950 . S
C717 C716 1.524 . S
C717 C718 1.415 . S
C718 H694 0.950 . S
C718 C713 1.363 . S
C718 C717 1.415 . S
C719 H695 0.951 . S
C719 C720 1.366 . S
C719 C721 1.388 . S
C720 C719 1.366 . S
C720 C724 1.385 . S
C721 H696 0.951 . S
C721 C719 1.388 . S
C721 C722 1.366 . S
C722 C721 1.366 . S
C722 C723 1.414 . S
C722 C725 1.499 . S
C723 H697 0.950 . S
C723 C722 1.414 . S
C723 C724 1.374 . S
C724 H698 0.950 . S
C724 C720 1.385 . S
C724 C723 1.374 . S
C725 C722 1.499 . S
C725 C726 1.373 . S
C725 C727 1.389 . S
C726 H699 0.950 . S
C726 C712 1.377 . S
C726 C725 1.373 . S
C727 C711 1.377 . S
C727 C725 1.389 . S
C727 C728 1.524 . S
C728 C727 1.524 . S
C728 C729 1.397 . S
C728 C733 1.363 . S
C729 H700 0.950 . S
C729 C728 1.397 . S
C729 C730 1.334 . S
C730 H701 0.950 . S
C730 C729 1.334 . S
C730 C731 1.287 . S
C731 C730 1.287 . S
C731 C732 1.524 . S
C731 H734 0.999 . S
C732 H702 0.950 . S
C732 C731 1.524 . S
C732 C733 1.415 . S
C733 H703 0.950 . S
C733 C728 1.363 . S
C733 C732 1.415 . S
H734 C731 0.999 . S
H735 C716 0.913 . S
H736 C754 0.951 . S
H737 C756 0.951 . S
H738 C758 0.950 . S
H739 C759 0.950 . S
H740 C761 0.950 . S
H741 C764 0.950 . S
H742 C765 0.950 . S
H743 C767 0.950 . S
H744 C768 0.950 . S
H745 C769 0.951 . S
H746 C771 0.951 . S
H747 C773 0.950 . S
H748 C774 0.950 . S
H749 C776 0.950 . S
H750 C779 0.950 . S
H751 C780 0.950 . S
H752 C782 0.950 . S
H753 C783 0.950 . S
C754 H736 0.951 . S
C754 C755 1.366 . S
C754 C756 1.388 . S
C755 C754 1.366 . S
C755 C759 1.385 . S
C756 H737 0.951 . S
C756 C754 1.388 . S
C756 C757 1.366 . S
C757 C756 1.366 . S
C757 C758 1.414 . S
C757 C760 1.499 1_556 S
C758 H738 0.950 . S
C758 C757 1.414 . S
C758 C759 1.374 . S
C759 H739 0.950 . S
C759 C755 1.385 . S
C759 C758 1.374 . S
C760 C757 1.499 1_554 S
C760 C761 1.373 . S
C760 C762 1.389 . S
C761 H740 0.950 . S
C761 C760 1.373 . S
C761 C777 1.377 . S
C762 C760 1.389 . S
C762 C763 1.524 1_554 S
C762 C776 1.377 . S
C763 C762 1.524 1_556 S
C763 C764 1.397 . S
C763 C768 1.363 . S
C764 H741 0.950 . S
C764 C763 1.397 . S
C764 C765 1.334 . S
C765 H742 0.950 . S
C765 C764 1.334 . S
C765 C766 1.287 . S
C766 C765 1.287 . S
C766 C767 1.524 . S
C766 H785 0.913 . S
C767 H743 0.950 . S
C767 C766 1.524 . S
C767 C768 1.415 . S
C768 H744 0.950 . S
C768 C763 1.363 . S
C768 C767 1.415 . S
C769 H745 0.951 . S
C769 C770 1.366 . S
C769 C771 1.388 . S
C770 C769 1.366 . S
C770 C774 1.385 . S
C771 H746 0.951 . S
C771 C769 1.388 . S
C771 C772 1.366 . S
C772 C771 1.366 . S
C772 C773 1.414 . S
C772 C775 1.499 . S
C773 H747 0.950 . S
C773 C772 1.414 . S
C773 C774 1.374 . S
C774 H748 0.950 . S
C774 C770 1.385 . S
C774 C773 1.374 . S
C775 C772 1.499 . S
C775 C776 1.373 . S
C775 C777 1.389 . S
C776 H749 0.950 . S
C776 C762 1.377 . S
C776 C775 1.373 . S
C777 C761 1.377 . S
C777 C775 1.389 . S
C777 C778 1.524 . S
C778 C777 1.524 . S
C778 C779 1.397 . S
C778 C783 1.363 . S
C779 H750 0.950 . S
C779 C778 1.397 . S
C779 C780 1.334 . S
C780 H751 0.950 . S
C780 C779 1.334 . S
C780 C781 1.287 . S
C781 C780 1.287 . S
C781 C782 1.524 . S
C781 H784 0.999 . S
C782 H752 0.950 . S
C782 C781 1.524 . S
C782 C783 1.415 . S
C783 H753 0.950 . S
C783 C778 1.363 . S
C783 C782 1.415 . S
H784 C781 0.999 . S
H785 C766 0.913 . S
H786 C804 0.951 . S
H787 C806 0.951 . S
H788 C808 0.950 . S
H789 C809 0.950 . S
H790 C811 0.950 . S
H791 C814 0.950 . S
H792 C815 0.950 . S
H793 C817 0.950 . S
H794 C818 0.950 . S
H795 C819 0.951 . S
H796 C821 0.951 . S
H797 C823 0.950 . S
H798 C824 0.950 . S
H799 C826 0.950 . S
H800 C829 0.950 . S
H801 C830 0.950 . S
H802 C832 0.950 . S
H803 C833 0.950 . S
C804 H786 0.951 . S
C804 C805 1.366 . S
C804 C806 1.388 . S
C805 C804 1.366 . S
C805 C809 1.385 . S
C806 H787 0.951 . S
C806 C804 1.388 . S
C806 C807 1.366 . S
C807 C806 1.366 . S
C807 C808 1.414 . S
C807 C810 1.499 . S
C808 H788 0.950 . S
C808 C807 1.414 . S
C808 C809 1.374 . S
C809 H789 0.950 . S
C809 C805 1.385 . S
C809 C808 1.374 . S
C810 C807 1.499 . S
C810 C811 1.373 . S
C810 C812 1.389 . S
C811 H790 0.950 . S
C811 C810 1.373 . S
C811 C827 1.377 . S
C812 C810 1.389 . S
C812 C813 1.524 . S
C812 C826 1.377 . S
C813 C812 1.524 . S
C813 C814 1.397 . S
C813 C818 1.363 . S
C814 H791 0.950 . S
C814 C813 1.397 . S
C814 C815 1.334 . S
C815 H792 0.950 . S
C815 C814 1.334 . S
C815 C816 1.287 . S
C816 C815 1.287 . S
C816 C817 1.524 . S
C816 H835 0.913 . S
C817 H793 0.950 . S
C817 C816 1.524 . S
C817 C818 1.415 . S
C818 H794 0.950 . S
C818 C813 1.363 . S
C818 C817 1.415 . S
C819 H795 0.951 . S
C819 C820 1.366 . S
C819 C821 1.388 . S
C820 C819 1.366 . S
C820 C824 1.385 . S
C821 H796 0.951 . S
C821 C819 1.388 . S
C821 C822 1.366 . S
C822 C821 1.366 . S
C822 C823 1.414 . S
C822 C825 1.499 . S
C823 H797 0.950 . S
C823 C822 1.414 . S
C823 C824 1.374 . S
C824 H798 0.950 . S
C824 C820 1.385 . S
C824 C823 1.374 . S
C825 C822 1.499 . S
C825 C826 1.373 . S
C825 C827 1.389 . S
C826 H799 0.950 . S
C826 C812 1.377 . S
C826 C825 1.373 . S
C827 C811 1.377 . S
C827 C825 1.389 . S
C827 C828 1.524 . S
C828 C827 1.524 . S
C828 C829 1.397 . S
C828 C833 1.363 . S
C829 H800 0.950 . S
C829 C828 1.397 . S
C829 C830 1.334 . S
C830 H801 0.950 . S
C830 C829 1.334 . S
C830 C831 1.287 . S
C831 C830 1.287 . S
C831 C832 1.524 . S
C831 H834 0.999 . S
C832 H802 0.950 . S
C832 C831 1.524 . S
C832 C833 1.415 . S
C833 H803 0.950 . S
C833 C828 1.363 . S
C833 C832 1.415 . S
H834 C831 0.999 . S
H835 C816 0.913 . S
C155 C17 1.606 . S
C170 C56 1.507 . S
C205 C15 1.507 . S
C220 C51 1.606 . S
C255 C124 1.508 . S
C270 C85 1.606 . S
C305 C90 1.508 . S
C320 C119 1.606 . S
C355 C22 1.488 . S
C370 C37 1.381 . S
C405 C1 1.380 . S
C420 C49 1.488 . S
C455 C83 1.488 . S
C470 C105 1.381 . S
C505 C117 1.488 . S
C520 C71 1.381 . S
C555 C69 1.910 . S
C570 C3 1.910 . S
C605 C35 1.909 . S
C620 C103 1.909 . S
C655 C130 1.236 . S
C670 C28 1.243 . S
C705 C96 1.237 . S
C720 C40 1.243 . S
C755 C74 1.243 . S
C770 C62 1.236 . S
C805 C108 1.243 . S
C820 C6 1.236 . S
