# Generated by pormake.
# Topology yfx, (5)-cn, num edge types: 1
# Building blocks:
#     Node 0, Type 0, BuildingBlock: XOMCOT_clean_sbu_1, # of connection points: 5
#     Node 1, Type 0, BuildingBlock: XOMCOT_clean_sbu_1, # of connection points: 5
#     Node 2, Type 0, BuildingBlock: XOMCOT_clean_sbu_1, # of connection points: 5
#     Node 3, Type 0, BuildingBlock: XOMCOT_clean_sbu_1, # of connection points: 5
#     Node 4, Type 0, BuildingBlock: XOMCOT_clean_sbu_1, # of connection points: 5
#     Node 5, Type 0, BuildingBlock: XOMCOT_clean_sbu_1, # of connection points: 5
#     Node 6, Type 0, BuildingBlock: XOMCOT_clean_sbu_1, # of connection points: 5
#     Node 7, Type 0, BuildingBlock: XOMCOT_clean_sbu_1, # of connection points: 5
#     Edge 8, Type (0, 0), BuildingBlock: UVAHIK_clean_linker_0, # of connection points: 2
#     Edge 9, Type (0, 0), BuildingBlock: UVAHIK_clean_linker_0, # of connection points: 2
#     Edge 10, Type (0, 0), BuildingBlock: UVAHIK_clean_linker_0, # of connection points: 2
#     Edge 11, Type (0, 0), BuildingBlock: UVAHIK_clean_linker_0, # of connection points: 2
#     Edge 12, Type (0, 0), BuildingBlock: UVAHIK_clean_linker_0, # of connection points: 2
#     Edge 13, Type (0, 0), BuildingBlock: UVAHIK_clean_linker_0, # of connection points: 2
#     Edge 14, Type (0, 0), BuildingBlock: UVAHIK_clean_linker_0, # of connection points: 2
#     Edge 15, Type (0, 0), BuildingBlock: UVAHIK_clean_linker_0, # of connection points: 2
#     Edge 16, Type (0, 0), BuildingBlock: UVAHIK_clean_linker_0, # of connection points: 2
#     Edge 17, Type (0, 0), BuildingBlock: UVAHIK_clean_linker_0, # of connection points: 2
#     Edge 18, Type (0, 0), BuildingBlock: UVAHIK_clean_linker_0, # of connection points: 2
#     Edge 19, Type (0, 0), BuildingBlock: UVAHIK_clean_linker_0, # of connection points: 2
#     Edge 20, Type (0, 0), BuildingBlock: UVAHIK_clean_linker_0, # of connection points: 2
#     Edge 21, Type (0, 0), BuildingBlock: UVAHIK_clean_linker_0, # of connection points: 2
#     Edge 22, Type (0, 0), BuildingBlock: UVAHIK_clean_linker_0, # of connection points: 2
#     Edge 23, Type (0, 0), BuildingBlock: UVAHIK_clean_linker_0, # of connection points: 2
#     Edge 24, Type (0, 0), BuildingBlock: UVAHIK_clean_linker_0, # of connection points: 2
#     Edge 25, Type (0, 0), BuildingBlock: UVAHIK_clean_linker_0, # of connection points: 2
#     Edge 26, Type (0, 0), BuildingBlock: UVAHIK_clean_linker_0, # of connection points: 2
#     Edge 27, Type (0, 0), BuildingBlock: UVAHIK_clean_linker_0, # of connection points: 2
# Relax obj value: 0.122
# Max RMSD: 0.118
# Mean RMSD: 0.118
data_MOF--net-yfx--node1-XOMCOT_clean_sbu_1--edge1-UVAHIK_clean_linker_0
_symmetry_space_group_name_H-M    P1
_symmetry_Int_Tables_number       1
_symmetry_cell_setting            triclinic
loop_
_symmetry_equiv_pos_as_xyz
'x, y, z'
_cell_length_a     45.188693
_cell_length_b     45.218733
_cell_length_c     35.909209
_cell_angle_alpha  90.025396
_cell_angle_beta   90.02602
_cell_angle_gamma 90.060663
loop_
_atom_site_label
_atom_site_type_symbol
_atom_site_fract_x
_atom_site_fract_y
_atom_site_fract_z
_atom_type_partial_charge
C0 C 0.26815 0.38551 0.96721 0.0
C1 C 0.29766 0.3786 0.97073 0.0
N2 N 0.30171 0.36507 1.00379 0.0
N3 N 0.25363 0.37643 0.99789 0.0
C4 C 0.27468 0.36427 0.0198 0.0
H5 H 0.2577 0.39564 0.94331 0.0
Co6 Co 0.21284 0.37888 1.00433 0.0
C7 C 0.20483 0.33097 0.06216 0.0
O8 O 0.18672 0.31521 0.04159 0.0
N9 N 0.17091 0.38202 0.01059 0.0
C10 C 0.12228 0.37309 0.00983 0.0
C11 C 0.14994 0.36107 1.00502 0.0
C12 C 0.15502 0.40666 0.01859 0.0
N13 N 0.12549 0.40188 0.0182 0.0
O14 O 0.21904 0.41359 0.0336 0.0
H15 H 0.15406 0.33869 0.99598 0.0
H16 H 0.16465 0.42802 0.02417 0.0
O17 O 0.21558 0.35511 0.04964 0.0
C18 C 0.22086 0.43642 0.01297 0.0
O19 O 0.21531 0.43358 0.9772 0.0
N20 N 0.20856 0.34641 0.97209 0.0
C21 C 0.21422 0.3101 0.90955 0.0
C22 C 0.22666 0.30173 0.94379 0.0
C23 C 0.22397 0.32048 0.97471 0.0
C24 C 0.19543 0.35422 0.93938 0.0
C25 C 0.19761 0.33623 0.90799 0.0
H26 H 0.23622 0.31525 0.99968 0.0
H27 H 0.18476 0.37553 0.93695 0.0
H28 H 0.27027 0.35448 0.04668 0.0
H29 H 0.31453 0.38207 0.94979 0.0
H30 H 0.10141 0.3618 1.00558 0.0
H31 H 0.24022 0.28207 0.94594 0.0
H32 H 0.18765 0.34353 0.88214 0.0
C33 C 0.62448 0.26842 0.96783 0.0
C34 C 0.631 0.29796 0.97211 0.0
N35 N 0.64429 0.30173 1.00542 0.0
N36 N 0.63358 0.2536 0.99824 0.0
C37 C 0.64534 0.27448 0.02078 0.0
H38 H 0.61469 0.25819 0.94353 0.0
Co39 Co 0.63192 0.21271 1.00334 0.0
C40 C 0.67824 0.20421 0.06339 0.0
O41 O 0.69429 0.18602 0.04338 0.0
N42 N 0.6296 0.17058 1.00802 0.0
C43 C 0.64009 0.12241 1.00562 0.0
C44 C 0.65125 0.15049 1.0021 0.0
C45 C 0.60533 0.15368 0.01479 0.0
N46 N 0.61102 0.12429 0.01338 0.0
O47 O 0.59631 0.21745 0.03135 0.0
H48 H 0.67367 0.15552 0.99392 0.0
H49 H 0.58352 0.16259 0.01928 0.0
O50 O 0.65452 0.21521 0.0499 0.0
C51 C 0.57375 0.21911 0.01017 0.0
O52 O 0.57723 0.21404 0.97439 0.0
N53 N 0.66538 0.20995 0.97242 0.0
C54 C 0.70509 0.21592 0.91302 0.0
C55 C 0.71171 0.22775 0.9483 0.0
C56 C 0.69133 0.22496 0.97749 0.0
C57 C 0.65882 0.19792 0.93861 0.0
C58 C 0.6784 0.20035 0.90876 0.0
H59 H 0.69565 0.23645 1.0033 0.0
H60 H 0.63742 0.18774 0.93423 0.0
H61 H 0.65511 0.26978 0.0476 0.0
H62 H 0.62747 0.31504 0.95149 0.0
H63 H 0.65257 0.10223 1.00195 0.0
H64 H 0.73192 0.24007 0.95301 0.0
H65 H 0.67169 0.19163 0.88197 0.0
C66 C 0.74638 0.61888 0.96206 0.0
C67 C 0.71657 0.62478 0.96139 0.0
N68 N 0.70961 0.64033 0.99222 0.0
N69 N 0.75825 0.63053 0.99316 0.0
C70 C 0.73527 0.64324 0.0112 0.0
H71 H 0.75884 0.60759 0.94064 0.0
Co72 Co 0.79863 0.63021 1.00327 0.0
C73 C 0.80037 0.6789 0.0614 0.0
O74 O 0.81779 0.69618 0.04193 0.0
N75 N 0.84017 0.62911 0.01293 0.0
C76 C 0.88812 0.6407 0.01602 0.0
C77 C 0.86002 0.65145 0.01087 0.0
C78 C 0.85721 0.60489 0.01905 0.0
N79 N 0.88644 0.61125 0.02095 0.0
O80 O 0.79258 0.59533 0.0324 0.0
H81 H 0.85498 0.67399 1.00348 0.0
H82 H 0.84866 0.58266 0.0202 0.0
O83 O 0.79219 0.6539 0.04832 0.0
C84 C 0.79242 0.57199 0.01251 0.0
O85 O 0.79971 0.57419 0.97718 0.0
N86 N 0.80305 0.66286 0.97124 0.0
C87 C 0.79891 0.69905 0.90841 0.0
C88 C 0.78408 0.70652 0.94141 0.0
C89 C 0.78604 0.68784 0.97241 0.0
C90 C 0.81854 0.656 0.93985 0.0
C91 C 0.81706 0.67392 0.90831 0.0
H92 H 0.77209 0.69233 0.99614 0.0
H93 H 0.83059 0.63538 0.9384 0.0
H94 H 0.73752 0.65573 0.03673 0.0
H95 H 0.70135 0.61851 0.93948 0.0
H96 H 0.90826 0.65362 0.01499 0.0
H97 H 0.7693 0.72535 0.94236 0.0
H98 H 0.82885 0.66732 0.88341 0.0
C99 C 0.38324 0.74204 0.9673 0.0
C100 C 0.37644 0.71255 0.97129 0.0
N101 N 0.36388 0.70862 1.00497 0.0
N102 N 0.37506 0.75665 0.99831 0.0
C103 C 0.36348 0.7357 0.02085 0.0
H104 H 0.3927 0.75239 0.94291 0.0
Co105 Co 0.37793 0.79739 1.00439 0.0
C106 C 0.33417 0.80706 0.06676 0.0
O107 O 0.31921 0.82703 0.04814 0.0
N108 N 0.38145 0.83939 0.01006 0.0
C109 C 0.37293 0.88804 1.00809 0.0
C110 C 0.36078 0.86042 1.00347 0.0
C111 C 0.40611 0.85524 0.01845 0.0
N112 N 0.40156 0.88477 0.01732 0.0
O113 O 0.41439 0.79126 0.03027 0.0
H114 H 0.33838 0.85632 0.99434 0.0
H115 H 0.42731 0.84557 0.02487 0.0
O116 O 0.35665 0.79467 0.05189 0.0
C117 C 0.43548 0.78973 1.00679 0.0
O118 O 0.42974 0.79624 0.97185 0.0
N119 N 0.34375 0.80139 0.97509 0.0
C120 C 0.30352 0.79493 0.91624 0.0
C121 C 0.29673 0.7844 0.95213 0.0
C122 C 0.31737 0.78738 0.98106 0.0
C123 C 0.35032 0.81249 0.94081 0.0
C124 C 0.33054 0.80976 0.9112 0.0
H125 H 0.31298 0.77657 1.00728 0.0
H126 H 0.37199 0.82187 0.93581 0.0
H127 H 0.35445 0.74018 0.04813 0.0
H128 H 0.37937 0.69561 0.95033 0.0
H129 H 0.36188 0.90891 1.00323 0.0
H130 H 0.27623 0.77276 0.95753 0.0
H131 H 0.33739 0.81751 0.88402 0.0
C132 C 0.76702 0.88334 0.46441 0.0
C133 C 0.79665 0.87683 0.46782 0.0
N134 N 0.80128 0.86519 0.5019 0.0
N135 N 0.75303 0.87581 0.49614 0.0
C136 C 0.77451 0.86512 0.51858 0.0
H137 H 0.75613 0.89205 0.43994 0.0
Co138 Co 0.71239 0.87817 0.50378 0.0
C139 C 0.70683 0.82971 0.56176 0.0
O140 O 0.68939 0.81295 0.54154 0.0
N141 N 0.67071 0.88122 0.51137 0.0
C142 C 0.6222 0.87191 0.51343 0.0
C143 C 0.64984 0.85984 0.50861 0.0
C144 C 0.65482 0.90616 0.51761 0.0
N145 N 0.62535 0.90114 0.51894 0.0
O146 O 0.71908 0.91298 0.53281 0.0
H147 H 0.65394 0.8371 0.5012 0.0
H148 H 0.66442 0.92786 0.52057 0.0
O149 O 0.71614 0.85439 0.54905 0.0
C150 C 0.72114 0.93566 0.51194 0.0
O151 O 0.71556 0.93262 0.4762 0.0
N152 N 0.70747 0.84556 0.47175 0.0
C153 C 0.71139 0.80894 0.40922 0.0
C154 C 0.72557 0.80121 0.44262 0.0
C155 C 0.7237 0.82009 0.47349 0.0
C156 C 0.6927 0.85275 0.43992 0.0
C157 C 0.694 0.8346 0.40859 0.0
H158 H 0.73718 0.81538 0.49762 0.0
H159 H 0.68135 0.87375 0.438 0.0
H160 H 0.7706 0.8569 0.5464 0.0
H161 H 0.81319 0.87922 0.44625 0.0
H162 H 0.60134 0.86027 0.51105 0.0
H163 H 0.73977 0.78196 0.44402 0.0
H164 H 0.68269 0.84142 0.38342 0.0
C165 C 0.12692 0.7672 0.46425 0.0
C166 C 0.13369 0.79678 0.46744 0.0
N167 N 0.14501 0.80156 0.50168 0.0
N168 N 0.13394 0.7534 0.49628 0.0
C169 C 0.14461 0.77493 0.51865 0.0
H170 H 0.11841 0.75621 0.43972 0.0
Co171 Co 0.13143 0.71285 0.504 0.0
C172 C 0.14913 0.70637 0.58165 0.0
O173 O 0.12546 0.68988 0.58623 0.0
N174 N 0.12868 0.67171 0.51108 0.0
C175 C 0.14001 0.62464 0.52204 0.0
C176 C 0.15099 0.65298 0.51927 0.0
C177 C 0.10446 0.6542 0.50871 0.0
N178 N 0.11065 0.62546 0.51548 0.0
O179 O 0.09592 0.71924 0.53175 0.0
H180 H 0.17379 0.65957 0.52326 0.0
H181 H 0.08268 0.66222 0.50168 0.0
O182 O 0.15522 0.71657 0.54935 0.0
C183 C 0.07327 0.72096 0.5108 0.0
O184 O 0.07651 0.71607 0.47494 0.0
N185 N 0.1646 0.70782 0.4737 0.0
C186 C 0.20298 0.71475 0.41361 0.0
C187 C 0.21133 0.72419 0.44941 0.0
C188 C 0.19159 0.72071 0.47928 0.0
C189 C 0.15719 0.69651 0.43982 0.0
C190 C 0.17607 0.69966 0.40942 0.0
H191 H 0.19694 0.73058 0.50587 0.0
H192 H 0.13538 0.68717 0.43567 0.0
H193 H 0.15238 0.77118 0.54669 0.0
H194 H 0.13173 0.81316 0.44562 0.0
H195 H 0.15262 0.60508 0.52901 0.0
H196 H 0.23181 0.73621 0.45365 0.0
H197 H 0.16888 0.69194 0.38232 0.0
C198 C 0.24266 0.1228 0.46723 0.0
C199 C 0.21304 0.12914 0.4711 0.0
N200 N 0.20891 0.14215 0.50449 0.0
N201 N 0.25717 0.13177 0.498 0.0
C202 C 0.236 0.14319 0.52034 0.0
H203 H 0.25319 0.11329 0.44299 0.0
Co204 Co 0.29804 0.13052 0.50405 0.0
C205 C 0.30453 0.1785 0.56256 0.0
O206 O 0.32199 0.19517 0.5423 0.0
N207 N 0.34001 0.12866 0.50983 0.0
C208 C 0.38817 0.13959 0.50883 0.0
C209 C 0.36003 0.15059 0.50504 0.0
C210 C 0.35696 0.10443 0.51625 0.0
N211 N 0.3863 0.1104 0.5157 0.0
O212 O 0.29306 0.09553 0.53312 0.0
H213 H 0.35494 0.17303 0.49716 0.0
H214 H 0.34816 0.08244 0.51971 0.0
O215 O 0.29478 0.15403 0.54965 0.0
C216 C 0.29151 0.0727 0.51243 0.0
O217 O 0.29686 0.07566 0.47664 0.0
N218 N 0.30113 0.16326 0.47208 0.0
C219 C 0.29394 0.19991 0.41018 0.0
C220 C 0.28166 0.2077 0.44471 0.0
C221 C 0.28509 0.18876 0.47528 0.0
C222 C 0.31416 0.15607 0.43908 0.0
C223 C 0.31113 0.17419 0.40794 0.0
H224 H 0.27288 0.19344 0.50044 0.0
H225 H 0.32537 0.13506 0.43623 0.0
H226 H 0.24037 0.15274 0.54738 0.0
H227 H 0.19615 0.12573 0.45014 0.0
H228 H 0.40839 0.15218 0.50586 0.0
H229 H 0.26763 0.22699 0.44731 0.0
H230 H 0.32085 0.16732 0.38176 0.0
C231 C 0.88595 0.24132 0.4672 0.0
C232 C 0.87919 0.2118 0.47098 0.0
N233 N 0.86619 0.20776 0.50438 0.0
N234 N 0.87727 0.25586 0.49804 0.0
C235 C 0.86551 0.23482 0.52031 0.0
H236 H 0.89569 0.25175 0.44303 0.0
Co237 Co 0.87978 0.29663 0.50424 0.0
C238 C 0.83306 0.30477 0.5639 0.0
O239 O 0.81712 0.32344 0.54443 0.0
N240 N 0.883 0.33856 0.51009 0.0
C241 C 0.87413 0.3871 0.50816 0.0
C242 C 0.862 0.35938 0.5044 0.0
C243 C 0.90778 0.35459 0.51725 0.0
N244 N 0.90306 0.38411 0.51609 0.0
O245 O 0.91497 0.29063 0.53269 0.0
H246 H 0.83947 0.35507 0.49597 0.0
H247 H 0.92917 0.34501 0.52269 0.0
O248 O 0.85673 0.29389 0.55017 0.0
C249 C 0.93758 0.28868 0.51166 0.0
O250 O 0.93438 0.29417 0.47594 0.0
N251 N 0.84675 0.30064 0.47284 0.0
C252 C 0.80946 0.29375 0.41139 0.0
C253 C 0.80141 0.28234 0.4463 0.0
C254 C 0.82066 0.28561 0.47667 0.0
C255 C 0.85419 0.31294 0.43948 0.0
C256 C 0.83577 0.31003 0.40856 0.0
H257 H 0.8157 0.27395 0.50216 0.0
H258 H 0.87559 0.32335 0.4362 0.0
H259 H 0.85613 0.23924 0.54742 0.0
H260 H 0.88244 0.1949 0.45002 0.0
H261 H 0.86275 0.40782 0.50351 0.0
H262 H 0.78163 0.26902 0.44939 0.0
H263 H 0.84285 0.31909 0.38209 0.0
C264 C 0.51913 0.22197 1.00304 0.0
C265 C 0.5445 0.22856 0.02405 0.0
C266 C 0.49192 0.23456 0.01204 0.0
C267 C 0.43393 0.25666 0.04327 0.0
H268 H 0.43691 0.34192 0.05423 0.0
C269 C 0.32754 0.32681 0.04097 0.0
C270 C 0.3286 0.35147 0.01712 0.0
C271 C 0.3535 0.31204 0.05113 0.0
C272 C 0.43569 0.31811 0.05135 0.0
H273 H 0.5611 0.25244 0.07204 0.0
H274 H 0.51323 0.27481 0.08777 0.0
H275 H 0.48271 0.31337 0.05594 0.0
H276 H 0.35798 0.3808 0.98693 0.0
H277 H 0.40313 0.35477 1.00397 0.0
H278 H 0.38717 0.26146 0.03663 0.0
C279 C 0.51454 0.25984 0.06428 0.0
C280 C 0.46191 0.30171 0.05279 0.0
C281 C 0.54184 0.24688 0.05548 0.0
C282 C 0.35633 0.36167 1.0049 0.0
C283 C 0.38227 0.34694 0.0151 0.0
C284 C 0.40775 0.27303 0.04191 0.0
C285 C 0.48943 0.25429 0.04211 0.0
C286 C 0.46139 0.27089 0.0476 0.0
C287 C 0.38113 0.32161 0.03776 0.0
C288 C 0.4084 0.30404 0.04481 0.0
H289 H 0.5205 0.20785 0.97872 0.0
H290 H 0.47315 0.23004 0.99413 0.0
H291 H 0.43279 0.23291 0.03957 0.0
H292 H 0.3066 0.31818 0.05074 0.0
H293 H 0.35187 0.29277 0.06892 0.0
C294 C 0.68178 0.32747 0.04411 0.0
C295 C 0.65761 0.32857 0.01942 0.0
C296 C 0.69641 0.35338 0.05484 0.0
C297 C 0.69092 0.43569 0.05392 0.0
H298 H 0.77641 0.43197 0.04624 0.0
C299 C 0.78954 0.51725 1.00775 0.0
C300 C 0.78226 0.54321 0.02712 0.0
C301 C 0.77643 0.49037 0.01715 0.0
C302 C 0.75257 0.43336 0.04877 0.0
H303 H 0.62893 0.35805 0.98843 0.0
H304 H 0.65482 0.40305 1.00626 0.0
H305 H 0.74751 0.38661 0.04291 0.0
H306 H 0.75663 0.56121 0.07278 0.0
H307 H 0.73344 0.5139 0.0893 0.0
H308 H 0.69598 0.48269 0.0575 0.0
C309 C 0.66235 0.38221 0.01768 0.0
C310 C 0.73598 0.4073 0.04721 0.0
C311 C 0.64771 0.35632 1.007 0.0
C312 C 0.76271 0.54149 0.05746 0.0
C313 C 0.74929 0.51449 0.0667 0.0
C314 C 0.70754 0.46178 0.05545 0.0
C315 C 0.68725 0.38102 0.04115 0.0
C316 C 0.70489 0.40822 0.04861 0.0
C317 C 0.75553 0.48877 0.04604 0.0
C318 C 0.73849 0.46098 0.05166 0.0
H319 H 0.6902 0.30654 0.05412 0.0
H320 H 0.7153 0.35169 0.07329 0.0
H321 H 0.66704 0.43713 0.05571 0.0
H322 H 0.80462 0.51787 0.98431 0.0
H323 H 0.78151 0.47113 1.00035 0.0
C324 C 0.66139 0.66049 0.97217 0.0
C325 C 0.68142 0.65368 1.00085 0.0
C326 C 0.63435 0.67391 0.98007 0.0
C327 C 0.59555 0.71947 0.04954 0.0
H328 H 0.52729 0.69696 0.99039 0.0
C329 C 0.47012 0.76314 0.05052 0.0
C330 C 0.465 0.77795 0.01665 0.0
C331 C 0.49681 0.74794 0.05637 0.0
C332 C 0.5461 0.70318 1.00743 0.0
H333 H 0.68849 0.65565 0.06054 0.0
H334 H 0.64099 0.67922 0.07439 0.0
H335 H 0.57287 0.66838 0.98555 0.0
H336 H 0.48458 0.79009 0.96357 0.0
H337 H 0.53057 0.7634 0.97375 0.0
H338 H 0.56839 0.75477 0.07068 0.0
C339 C 0.64648 0.67427 0.04571 0.0
C340 C 0.57226 0.68705 1.00445 0.0
C341 C 0.67368 0.66077 0.03776 0.0
C342 C 0.48765 0.77872 0.98984 0.0
C343 C 0.51402 0.76351 0.99559 0.0
C344 C 0.56915 0.73556 0.05268 0.0
C345 C 0.62646 0.68088 0.0169 0.0
C346 C 0.59762 0.69555 0.0245 0.0
C347 C 0.51851 0.74742 0.0284 0.0
C348 C 0.54455 0.72791 0.03087 0.0
H349 H 0.66681 0.65608 0.94337 0.0
H350 H 0.61984 0.67937 0.95707 0.0
H351 H 0.61472 0.72667 0.06523 0.0
H352 H 0.45306 0.76211 0.07165 0.0
H353 H 0.49993 0.7355 0.08184 0.0
C354 C 0.24901 0.46772 0.05864 0.0
C355 C 0.23028 0.46545 0.02754 0.0
C356 C 0.26179 0.495 0.06805 0.0
C357 C 0.30302 0.54821 0.05685 0.0
H358 H 0.26193 0.62266 0.04313 0.0
C359 C 0.36095 0.65404 1.00669 0.0
C360 C 0.3509 0.68172 0.01916 0.0
C361 C 0.34673 0.62805 0.01775 0.0
C362 C 0.27375 0.60217 0.04777 0.0
H363 H 0.20859 0.49003 0.98351 0.0
H364 H 0.23049 0.53731 0.99994 0.0
H365 H 0.23373 0.57682 0.0465 0.0
H366 H 0.31847 0.7036 0.05419 0.0
H367 H 0.29394 0.65822 0.07389 0.0
H368 H 0.34312 0.57352 0.05714 0.0
C369 C 0.23547 0.51828 0.01715 0.0
C370 C 0.25757 0.57586 0.04938 0.0
C371 C 0.22307 0.49111 1.00753 0.0
C372 C 0.32696 0.68269 0.04419 0.0
C373 C 0.31269 0.65668 0.05523 0.0
C374 C 0.31922 0.57455 0.05519 0.0
C375 C 0.25562 0.52044 0.04683 0.0
C376 C 0.27209 0.54851 0.05268 0.0
C377 C 0.32206 0.62908 0.04159 0.0
C378 C 0.30483 0.60174 0.04943 0.0
H379 H 0.25501 0.44822 0.07443 0.0
H380 H 0.27711 0.49605 0.09122 0.0
H381 H 0.31489 0.5275 0.05921 0.0
H382 H 0.37956 0.65247 0.98784 0.0
H383 H 0.35436 0.60723 1.00637 0.0
C384 C 0.01861 0.72359 0.50468 0.0
C385 C 0.04422 0.73063 0.52496 0.0
C386 C 0.99149 0.73628 0.5139 0.0
C387 C 0.93398 0.75894 0.54595 0.0
H388 H 0.93705 0.84452 0.55183 0.0
C389 C 0.82763 0.82891 0.54148 0.0
C390 C 0.82835 0.85235 0.51573 0.0
C391 C 0.85373 0.81467 0.55223 0.0
C392 C 0.93583 0.82063 0.55042 0.0
H393 H 0.06143 0.7554 0.57188 0.0
H394 H 0.01373 0.77807 0.58788 0.0
H395 H 0.9829 0.81603 0.55428 0.0
H396 H 0.85727 0.88016 0.4827 0.0
H397 H 0.90269 0.85504 0.50086 0.0
H398 H 0.88713 0.76352 0.54004 0.0
C399 C 0.01476 0.76262 0.56486 0.0
C400 C 0.96205 0.80429 0.55228 0.0
C401 C 0.04196 0.74952 0.5559 0.0
C402 C 0.8559 0.86196 0.50218 0.0
C403 C 0.88199 0.84778 0.51299 0.0
C404 C 0.90777 0.77525 0.54422 0.0
C405 C 0.98939 0.75659 0.5434 0.0
C406 C 0.96147 0.77333 0.54883 0.0
C407 C 0.88115 0.82359 0.53758 0.0
C408 C 0.90847 0.80633 0.54526 0.0
H409 H 0.01971 0.70901 0.48077 0.0
H410 H 0.97249 0.7314 0.49655 0.0
H411 H 0.93282 0.73509 0.54356 0.0
H412 H 0.80684 0.82074 0.55231 0.0
H413 H 0.85236 0.79629 0.57148 0.0
C414 C 0.26215 0.04164 0.55701 0.0
C415 C 0.28173 0.04372 0.52675 0.0
C416 C 0.24872 0.01453 0.56567 0.0
C417 C 0.20694 0.96207 0.55197 0.0
H418 H 0.24724 0.88689 0.54118 0.0
C419 C 0.14888 0.85612 0.50134 0.0
C420 C 0.15801 0.82862 0.51543 0.0
C421 C 0.16323 0.88215 0.51214 0.0
C422 C 0.23562 0.90761 0.54493 0.0
H423 H 0.30424 0.01899 0.48354 0.0
H424 H 0.28128 0.97192 0.49879 0.0
H425 H 0.27605 0.93235 0.54538 0.0
H426 H 0.18894 0.80711 0.5529 0.0
H427 H 0.21368 0.85252 0.57204 0.0
H428 H 0.16647 0.93737 0.55048 0.0
C429 C 0.27611 0.99099 0.51586 0.0
C430 C 0.25215 0.93369 0.54704 0.0
C431 C 0.28914 0.01802 0.50695 0.0
C432 C 0.18114 0.82788 0.54166 0.0
C433 C 0.19555 0.85391 0.55239 0.0
C434 C 0.19038 0.93597 0.54974 0.0
C435 C 0.25508 0.98907 0.54457 0.0
C436 C 0.23798 0.96127 0.54946 0.0
C437 C 0.18711 0.88129 0.53725 0.0
C438 C 0.20452 0.90852 0.54512 0.0
H439 H 0.25594 0.06119 0.57258 0.0
H440 H 0.23273 0.01365 0.5881 0.0
H441 H 0.19534 0.98298 0.55357 0.0
H442 H 0.13092 0.85751 0.48148 0.0
H443 H 0.15634 0.90282 0.49964 0.0
C444 C 0.15427 0.14538 0.50554 0.0
C445 C 0.18197 0.15541 0.51814 0.0
C446 C 0.1283 0.15994 0.51599 0.0
C447 C 0.10294 0.2335 0.54447 0.0
H448 H 0.02772 0.19327 0.55652 0.0
C449 C 0.96892 0.26009 0.55678 0.0
C450 C 0.96663 0.27881 0.52569 0.0
C451 C 0.99607 0.24687 0.56569 0.0
C452 C 0.0486 0.20488 0.55395 0.0
H453 H 0.20384 0.1882 0.55278 0.0
H454 H 0.15855 0.21322 0.57144 0.0
H455 H 0.07342 0.16455 0.55465 0.0
H456 H 0.9911 0.29995 0.48114 0.0
H457 H 0.03819 0.27729 0.49675 0.0
H458 H 0.07809 0.27375 0.54285 0.0
C459 C 0.15696 0.19425 0.55312 0.0
C460 C 0.07475 0.1884 0.55241 0.0
C461 C 0.18294 0.17967 0.54269 0.0
C462 C 0.9922 0.28551 0.50517 0.0
C463 C 0.01926 0.27266 0.5143 0.0
C464 C 0.07682 0.24995 0.54595 0.0
C465 C 0.12938 0.18491 0.53932 0.0
C466 C 0.10214 0.20245 0.54655 0.0
C467 C 0.02138 0.25256 0.544 0.0
C468 C 0.04928 0.23577 0.54954 0.0
H469 H 0.15268 0.12655 0.48704 0.0
H470 H 0.10748 0.1523 0.50453 0.0
H471 H 0.12359 0.24507 0.53972 0.0
H472 H 0.94948 0.25447 0.57295 0.0
H473 H 0.9971 0.23161 0.58889 0.0
C474 C 0.86309 0.15316 0.50567 0.0
C475 C 0.85299 0.18082 0.51817 0.0
C476 C 0.84867 0.12715 0.51632 0.0
C477 C 0.77533 0.1013 0.54532 0.0
H478 H 0.81616 0.02649 0.55716 0.0
C479 C 0.74977 0.96702 0.55714 0.0
C480 C 0.73093 0.9647 0.52614 0.0
C481 C 0.76284 0.99425 0.56618 0.0
C482 C 0.80438 0.04725 0.55466 0.0
H483 H 0.82025 0.20261 0.55283 0.0
H484 H 0.79541 0.15722 0.57182 0.0
H485 H 0.84456 0.07242 0.5552 0.0
H486 H 0.7094 0.98917 0.4819 0.0
H487 H 0.73178 0.03636 0.49771 0.0
H488 H 0.73523 0.07609 0.54387 0.0
C489 C 0.81434 0.1557 0.55343 0.0
C490 C 0.82068 0.07353 0.55306 0.0
C491 C 0.82879 0.18173 0.5428 0.0
C492 C 0.72395 0.99028 0.50585 0.0
C493 C 0.73663 0.01741 0.51511 0.0
C494 C 0.75906 0.07504 0.54686 0.0
C495 C 0.82377 0.12813 0.53976 0.0
C496 C 0.80641 0.10078 0.54723 0.0
C497 C 0.75685 0.0196 0.54472 0.0
C498 C 0.77346 0.04764 0.55035 0.0
H499 H 0.88189 0.15161 0.48712 0.0
H500 H 0.85638 0.10636 0.50493 0.0
H501 H 0.7636 0.12183 0.54061 0.0
H502 H 0.75561 0.94757 0.57313 0.0
H503 H 0.7782 0.99532 0.5893 0.0
C504 C 0.27557 0.20026 0.34459 0.0
C505 C 0.28581 0.21613 0.37571 0.0
C506 C 0.2666 0.21501 0.3124 0.0
C507 C 0.27569 0.28226 0.25817 0.0
H508 H 0.20026 0.25991 0.21494 0.0
C509 C 0.22947 0.33803 0.12437 0.0
C510 C 0.21395 0.31985 0.09927 0.0
C511 C 0.23785 0.32734 0.15945 0.0
C512 C 0.22158 0.26619 0.22625 0.0
H513 H 0.29492 0.2599 0.3974 0.0
H514 H 0.2797 0.28588 0.34032 0.0
H515 H 0.21603 0.23775 0.27341 0.0
H516 H 0.19569 0.27596 0.09107 0.0
H517 H 0.21099 0.2571 0.15132 0.0
H518 H 0.28183 0.30988 0.21035 0.0
C519 C 0.27857 0.26196 0.34118 0.0
C520 C 0.23049 0.2536 0.25993 0.0
C521 C 0.28714 0.24716 0.37379 0.0
C522 C 0.20731 0.29069 0.10985 0.0
C523 C 0.21594 0.27992 0.14465 0.0
C524 C 0.26695 0.29462 0.2241 0.0
C525 C 0.26792 0.24598 0.31034 0.0
C526 C 0.25777 0.26121 0.27602 0.0
C527 C 0.23113 0.29813 0.17011 0.0
C528 C 0.23992 0.28643 0.20742 0.0
H529 H 0.2739 0.17637 0.34539 0.0
H530 H 0.2587 0.20213 0.28896 0.0
H531 H 0.29693 0.28838 0.26989 0.0
H532 H 0.2349 0.36063 0.11709 0.0
H533 H 0.24921 0.34214 0.17837 0.0
C534 C 0.67074 0.22967 0.12511 0.0
C535 C 0.68887 0.21337 0.10078 0.0
C536 C 0.6811 0.23809 0.16039 0.0
C537 C 0.74073 0.22065 0.22909 0.0
H538 H 0.72098 0.29728 0.27074 0.0
C539 C 0.80832 0.27423 0.34632 0.0
C540 C 0.79287 0.28551 0.37717 0.0
C541 C 0.79323 0.26523 0.31436 0.0
C542 C 0.72639 0.27569 0.25959 0.0
H543 H 0.73236 0.1938 0.0942 0.0
H544 H 0.75061 0.20911 0.15469 0.0
H545 H 0.69934 0.28207 0.21122 0.0
H546 H 0.74943 0.29641 0.39857 0.0
H547 H 0.72285 0.28115 0.34186 0.0
H548 H 0.76864 0.21483 0.27673 0.0
C549 C 0.72806 0.21466 0.14731 0.0
C550 C 0.71396 0.26689 0.22553 0.0
C551 C 0.71763 0.20602 0.11234 0.0
C552 C 0.76187 0.28782 0.37518 0.0
C553 C 0.74673 0.27923 0.34277 0.0
C554 C 0.7534 0.22961 0.26274 0.0
C555 C 0.70992 0.23061 0.17202 0.0
C556 C 0.72135 0.23941 0.20951 0.0
C557 C 0.7623 0.26755 0.31221 0.0
C558 C 0.74671 0.25736 0.2781 0.0
H559 H 0.64845 0.23569 0.11706 0.0
H560 H 0.66636 0.2501 0.1787 0.0
H561 H 0.74635 0.19901 0.21833 0.0
H562 H 0.83216 0.27178 0.34717 0.0
H563 H 0.80582 0.25653 0.29115 0.0
C564 C 0.77529 0.66983 0.12299 0.0
C565 C 0.78878 0.68941 0.09769 0.0
C566 C 0.76457 0.68014 0.15726 0.0
C567 C 0.73722 0.74711 0.20296 0.0
H568 H 0.76184 0.71116 0.29595 0.0
C569 C 0.72408 0.80841 0.34147 0.0
C570 C 0.71739 0.79259 0.37407 0.0
C571 C 0.73048 0.79366 0.30833 0.0
C572 C 0.75427 0.72117 0.27028 0.0
H573 H 0.80126 0.73518 0.08844 0.0
H574 H 0.78211 0.75309 0.14768 0.0
H575 H 0.77681 0.68892 0.23674 0.0
H576 H 0.71239 0.74873 0.39746 0.0
H577 H 0.72301 0.72272 0.33908 0.0
H578 H 0.71449 0.77916 0.23592 0.0
C579 C 0.77996 0.72979 0.14113 0.0
C580 C 0.76294 0.70845 0.23638 0.0
C581 C 0.79108 0.71947 0.10727 0.0
C582 C 0.71746 0.76151 0.37277 0.0
C583 C 0.72365 0.74665 0.33934 0.0
C584 C 0.72826 0.75958 0.2367 0.0
C585 C 0.76663 0.71028 0.16651 0.0
C586 C 0.75505 0.72172 0.20242 0.0
C587 C 0.73019 0.76258 0.30663 0.0
C588 C 0.73727 0.74726 0.27087 0.0
H589 H 0.77321 0.64654 0.11643 0.0
H590 H 0.75429 0.66465 0.1763 0.0
H591 H 0.7304 0.75752 0.17718 0.0
H592 H 0.72501 0.83235 0.34172 0.0
H593 H 0.73626 0.80675 0.28416 0.0
C594 C 0.34087 0.77905 0.12688 0.0
C595 C 0.32369 0.79766 0.10415 0.0
C596 C 0.33068 0.7704 0.16214 0.0
C597 C 0.27438 0.79043 0.23422 0.0
H598 H 0.28871 0.71111 0.27105 0.0
C599 C 0.20494 0.73787 0.35055 0.0
C600 C 0.21989 0.7239 0.38002 0.0
C601 C 0.22022 0.74721 0.31889 0.0
C602 C 0.28486 0.73344 0.26128 0.0
H603 H 0.282 0.82121 0.10047 0.0
H604 H 0.26396 0.80556 0.16092 0.0
H605 H 0.31012 0.72653 0.21155 0.0
H606 H 0.26263 0.70872 0.3994 0.0
H607 H 0.2895 0.72455 0.34312 0.0
H608 H 0.24814 0.79685 0.28322 0.0
C609 C 0.28572 0.79829 0.15229 0.0
C610 C 0.29716 0.74235 0.22721 0.0
C611 C 0.29601 0.80714 0.11734 0.0
C612 C 0.25059 0.7194 0.37706 0.0
C613 C 0.26588 0.72832 0.34489 0.0
C614 C 0.26181 0.78139 0.2679 0.0
C615 C 0.30295 0.77996 0.1754 0.0
C616 C 0.29169 0.77086 0.21289 0.0
C617 C 0.25082 0.74253 0.31562 0.0
C618 C 0.26654 0.75268 0.28156 0.0
H619 H 0.36233 0.77135 0.11759 0.0
H620 H 0.34475 0.75653 0.17917 0.0
H621 H 0.27029 0.8128 0.22483 0.0
H622 H 0.18136 0.74198 0.35221 0.0
H623 H 0.20798 0.75789 0.29671 0.0
C624 C 0.73155 0.83789 0.62371 0.0
C625 C 0.71769 0.81874 0.59818 0.0
C626 C 0.74217 0.82716 0.6578 0.0
C627 C 0.76928 0.75977 0.70218 0.0
H628 H 0.74615 0.79551 0.7959 0.0
C629 C 0.7863 0.69895 0.84062 0.0
C630 C 0.79275 0.71506 0.87308 0.0
C631 C 0.7792 0.71342 0.8075 0.0
C632 C 0.75333 0.78555 0.77003 0.0
H633 H 0.70433 0.77329 0.58838 0.0
H634 H 0.72335 0.75459 0.64739 0.0
H635 H 0.73016 0.8178 0.73723 0.0
H636 H 0.7969 0.75909 0.89622 0.0
H637 H 0.78529 0.78463 0.83788 0.0
H638 H 0.79282 0.72783 0.73438 0.0
C639 C 0.72583 0.7779 0.64112 0.0
C640 C 0.74403 0.79829 0.73643 0.0
C641 C 0.71478 0.78867 0.60743 0.0
C642 C 0.792 0.74611 0.87162 0.0
C643 C 0.78519 0.76069 0.83822 0.0
C644 C 0.77892 0.7473 0.73563 0.0
C645 C 0.73965 0.79699 0.66665 0.0
C646 C 0.75143 0.78515 0.70223 0.0
C647 C 0.77863 0.7445 0.80568 0.0
C648 C 0.77055 0.75959 0.77009 0.0
H649 H 0.73413 0.86117 0.61741 0.0
H650 H 0.75284 0.84231 0.67695 0.0
H651 H 0.77571 0.74947 0.67617 0.0
H652 H 0.78595 0.67499 0.84103 0.0
H653 H 0.77349 0.70008 0.7835 0.0
C654 C 0.18672 0.73879 0.61369 0.0
C655 C 0.16715 0.71461 0.61464 0.0
C656 C 0.20126 0.74815 0.64613 0.0
C657 C 0.19669 0.74108 0.74984 0.0
H658 H 0.27514 0.77572 0.74678 0.0
C659 C 0.26946 0.76072 0.88075 0.0
C660 C 0.28429 0.78807 0.8834 0.0
C661 C 0.25401 0.75297 0.84837 0.0
C662 C 0.25311 0.76631 0.748 0.0
H663 H 0.14888 0.68028 0.64997 0.0
H664 H 0.17509 0.6956 0.70578 0.0
H665 H 0.25199 0.7588 0.68918 0.0
H666 H 0.29305 0.8292 0.85416 0.0
H667 H 0.26683 0.81519 0.79741 0.0
H668 H 0.19838 0.74782 0.80892 0.0
C669 C 0.17835 0.70827 0.68054 0.0
C670 C 0.23974 0.75667 0.71494 0.0
C671 C 0.16349 0.69925 0.64833 0.0
C672 C 0.28249 0.80772 0.85303 0.0
C673 C 0.26741 0.79976 0.82046 0.0
C674 C 0.21024 0.75032 0.78291 0.0
C675 C 0.19698 0.73324 0.68019 0.0
C676 C 0.21134 0.74382 0.71535 0.0
C677 C 0.2533 0.77216 0.81762 0.0
C678 C 0.2386 0.76302 0.78237 0.0
H679 H 0.19013 0.75108 0.58818 0.0
H680 H 0.21519 0.7676 0.64462 0.0
H681 H 0.17454 0.73204 0.75141 0.0
H682 H 0.2707 0.74469 0.90307 0.0
H683 H 0.24353 0.73145 0.84689 0.0
C684 C 0.29828 0.21917 0.60917 0.0
C685 C 0.29411 0.18939 0.59923 0.0
C686 C 0.28765 0.22995 0.64306 0.0
C687 C 0.26763 0.20912 0.73782 0.0
H688 H 0.22309 0.28234 0.73647 0.0
C689 C 0.22007 0.26282 0.87274 0.0
C690 C 0.22129 0.29385 0.87465 0.0
C691 C 0.22698 0.24808 0.83945 0.0
C692 C 0.23578 0.26206 0.73752 0.0
H693 H 0.27587 0.14743 0.61749 0.0
H694 H 0.2578 0.1663 0.67734 0.0
H695 H 0.23945 0.26044 0.6781 0.0
H696 H 0.23202 0.3336 0.84371 0.0
H697 H 0.24453 0.30818 0.78643 0.0
H698 H 0.26492 0.21127 0.79735 0.0
C699 C 0.26917 0.18123 0.65859 0.0
C700 C 0.24502 0.24946 0.70398 0.0
C701 C 0.27943 0.1705 0.62432 0.0
C702 C 0.23008 0.30973 0.8429 0.0
C703 C 0.2372 0.29508 0.80992 0.0
C704 C 0.25869 0.22195 0.77154 0.0
C705 C 0.27293 0.21115 0.6681 0.0
C706 C 0.26141 0.22312 0.70377 0.0
C707 C 0.23552 0.26408 0.80753 0.0
C708 C 0.24307 0.24889 0.77184 0.0
H709 H 0.30942 0.23436 0.59053 0.0
H710 H 0.29112 0.25305 0.64984 0.0
H711 H 0.28035 0.18883 0.73844 0.0
H712 H 0.21339 0.25002 0.8968 0.0
H713 H 0.22524 0.22421 0.83862 0.0
C714 C 0.738 0.24974 0.87543 0.0
C715 C 0.72419 0.22203 0.87991 0.0
C716 C 0.75294 0.25674 0.84242 0.0
C717 C 0.75161 0.23929 0.74329 0.0
H718 H 0.82698 0.28031 0.73938 0.0
C719 C 0.79311 0.30025 0.612 0.0
C720 C 0.8224 0.29467 0.60085 0.0
C721 C 0.78268 0.29008 0.64635 0.0
C722 C 0.806 0.26872 0.74007 0.0
H723 H 0.71701 0.17936 0.85363 0.0
H724 H 0.74238 0.19194 0.79582 0.0
H725 H 0.80706 0.26421 0.79958 0.0
H726 H 0.86381 0.27427 0.61734 0.0
H727 H 0.84566 0.25704 0.67781 0.0
H728 H 0.75018 0.24432 0.68397 0.0
C729 C 0.74138 0.20828 0.81785 0.0
C730 C 0.79453 0.25968 0.77449 0.0
C731 C 0.72676 0.20114 0.85098 0.0
C732 C 0.84113 0.27895 0.62509 0.0
C733 C 0.8308 0.26917 0.65975 0.0
C734 C 0.76283 0.24873 0.70901 0.0
C735 C 0.75418 0.23634 0.81294 0.0
C736 C 0.76717 0.24492 0.77646 0.0
C737 C 0.8014 0.27446 0.67062 0.0
C738 C 0.79007 0.26365 0.70702 0.0
H739 H 0.73617 0.26663 0.89668 0.0
H740 H 0.76238 0.27863 0.83934 0.0
H741 H 0.73034 0.22822 0.74394 0.0
H742 H 0.77805 0.31219 0.594 0.0
H743 H 0.75999 0.2947 0.65412 0.0
C744 C 0.90658 0.56194 0.03808 0.0
C745 C 0.91082 0.59058 0.02366 0.0
C746 C 0.92997 0.54166 0.0393 0.0
C747 C 1.00332 0.52674 0.9966 0.0
H748 H 0.01272 0.47271 0.07957 0.0
C749 C 0.10689 0.45322 0.01235 0.0
C750 C 0.10216 0.42348 0.0222 0.0
C751 C 0.0838 0.47375 0.01417 0.0
C752 C 0.01026 0.4875 0.05606 0.0
H753 H 0.94354 0.62009 0.99944 0.0
H754 H 0.98417 0.58528 1.00266 0.0
H755 H 0.97197 0.50815 0.07972 0.0
H756 H 0.06958 0.39233 0.04281 0.0
H757 H 0.02922 0.42812 0.04577 0.0
H758 H 0.04164 0.50621 0.97304 0.0
C759 C 0.96262 0.57825 0.01243 0.0
C760 C 0.98685 0.50779 0.0561 0.0
C761 C 0.93926 0.59846 0.01107 0.0
C762 C 0.07391 0.41497 0.03468 0.0
C763 C 0.05084 0.43555 0.03671 0.0
C764 C 0.02676 0.50658 0.99667 0.0
C765 C 0.95827 0.54948 0.02623 0.0
C766 C 0.98309 0.52772 0.02637 0.0
C767 C 0.05542 0.46512 0.02606 0.0
C768 C 0.03055 0.48673 0.02639 0.0
H769 H 0.88518 0.55509 0.04847 0.0
H770 H 0.9257 0.51964 0.04987 0.0
H771 H 1.00082 0.54127 0.97286 0.0
H772 H 0.12824 0.46053 1.00227 0.0
H773 H 0.08817 0.49643 1.00616 0.0
C774 C 0.562 0.10416 0.03251 0.0
C775 C 0.59013 0.10003 0.01646 0.0
C776 C 0.54163 0.08079 0.03439 0.0
C777 C 0.52537 0.00744 0.99182 0.0
H778 H 0.47352 0.99788 0.07697 0.0
C779 C 0.45293 0.90334 0.0111 0.0
C780 C 0.42325 0.90807 0.02121 0.0
C781 C 0.47344 0.92654 0.01232 0.0
C782 C 0.48773 1.00038 0.05289 0.0
H783 H 0.61851 0.06743 0.98996 0.0
H784 H 0.58375 0.02696 0.99449 0.0
H785 H 0.50882 0.03883 0.0756 0.0
H786 H 0.39218 0.94066 0.04184 0.0
H787 H 0.42798 0.98116 0.04396 0.0
H788 H 0.50448 0.96886 0.9693 0.0
C789 C 0.57711 0.04841 1.00495 0.0
C790 C 0.50791 0.02392 0.05202 0.0
C791 C 0.59735 0.07172 1.00285 0.0
C792 C 0.4148 0.93636 0.03354 0.0
C793 C 0.43537 0.9595 0.03506 0.0
C794 C 0.50538 0.98383 0.99283 0.0
C795 C 0.54886 0.05262 0.02043 0.0
C796 C 0.52707 0.02775 0.02147 0.0
C797 C 0.46485 0.95497 0.02396 0.0
C798 C 0.48633 0.97998 0.02336 0.0
H799 H 0.55558 0.12539 0.04373 0.0
H800 H 0.52001 0.085 0.04625 0.0
H801 H 0.53923 0.00996 0.96744 0.0
H802 H 0.46015 0.88194 1.00116 0.0
H803 H 0.49606 0.92223 1.00396 0.0
C804 C 0.43854 0.09656 0.50372 0.0
C805 C 0.41054 0.0896 0.51849 0.0
C806 C 0.46181 0.07629 0.50546 0.0
C807 C 0.48726 0.00831 0.55377 0.0
H808 H 0.53933 1.00203 0.46833 0.0
C809 C 0.57414 0.91479 0.53646 0.0
C810 C 0.60195 0.92274 0.52196 0.0
C811 C 0.55099 0.9353 0.5377 0.0
C812 C 0.52521 1.00373 0.4926 0.0
H813 H 0.38556 0.05566 0.54746 0.0
H814 H 0.42591 0.02001 0.54956 0.0
H815 H 0.49844 0.03699 0.46709 0.0
H816 H 0.62713 0.95871 0.49758 0.0
H817 H 0.58691 0.9945 0.50009 0.0
H818 H 0.51399 0.97467 0.57901 0.0
C819 C 0.42992 0.0414 0.53699 0.0
C820 C 0.50174 0.02382 0.49192 0.0
C821 C 0.40661 0.06178 0.53537 0.0
C822 C 0.60615 0.95186 0.50925 0.0
C823 C 0.58296 0.97231 0.5103 0.0
C824 C 0.51071 0.98808 0.55437 0.0
C825 C 0.45778 0.04834 0.52183 0.0
C826 C 0.48251 0.02651 0.52256 0.0
C827 C 0.55502 0.96421 0.52424 0.0
C828 C 0.53004 0.98565 0.52383 0.0
H829 H 0.44254 0.11752 0.49014 0.0
H830 H 0.48305 0.08263 0.494 0.0
H831 H 0.47317 0.01002 0.57806 0.0
H832 H 0.57025 0.89265 0.5468 0.0
H833 H 0.5297 0.92828 0.5484 0.0
C834 C 0.09988 0.57192 0.50899 0.0
C835 C 0.09014 0.6009 0.5162 0.0
C836 C 0.08007 0.54811 0.50997 0.0
C837 C 0.0071 0.52544 0.54731 0.0
H838 H 0.01161 0.46447 0.47159 0.0
C839 C 0.91607 0.43642 0.52893 0.0
C840 C 0.92474 0.40757 0.51914 0.0
C841 C 0.93669 0.45951 0.52998 0.0
C842 C 0.01027 0.48106 0.49328 0.0
H843 H 0.05178 0.62734 0.53056 0.0
H844 H 0.01721 0.58594 0.53176 0.0
H845 H 0.0465 0.50559 0.47034 0.0
H846 H 0.96233 0.38058 0.50309 0.0
H847 H 0.99831 0.4206 0.50578 0.0
H848 H 0.97088 0.50092 0.57026 0.0
C849 C 0.04026 0.5816 0.52559 0.0
C850 C 0.03028 0.5047 0.49252 0.0
C851 C 0.06004 0.60542 0.52446 0.0
C852 C 0.95477 0.40236 0.51109 0.0
C853 C 0.97541 0.42547 0.51215 0.0
C854 C 0.98712 0.50176 0.54812 0.0
C855 C 0.05001 0.55263 0.51835 0.0
C856 C 0.0289 0.52725 0.51944 0.0
C857 C 0.96661 0.45441 0.5213 0.0
C858 C 0.98836 0.47929 0.52104 0.0
H859 H 0.1228 0.56761 0.50222 0.0
H860 H 0.08841 0.52608 0.50458 0.0
H861 H 0.00569 0.54216 0.56883 0.0
H862 H 0.89325 0.44125 0.53572 0.0
H863 H 0.92901 0.48153 0.53682 0.0
loop_
_geom_bond_atom_site_label_1
_geom_bond_atom_site_label_2
_geom_bond_distance
_geom_bond_site_symmetry_2
_ccdc_geom_bond_type
C0 C1 1.351 . S
C0 N3 1.368 1_556 S
C0 H5 0.931 . S
C1 C0 1.351 . S
C1 N2 1.373 1_556 S
C1 H29 0.930 . S
N2 C1 1.373 1_554 S
N2 C4 1.340 . S
N3 C0 1.368 1_554 S
N3 C4 1.321 . S
N3 Co6 2.135 . S
C4 N2 1.340 . S
C4 N3 1.321 . S
C4 H28 0.930 . S
H5 C0 0.931 . S
Co6 N3 2.135 . S
Co6 N9 2.121 . S
Co6 O14 2.055 . S
Co6 O17 2.039 . S
Co6 N20 2.140 1_554 S
C7 O8 1.227 . S
C7 O17 1.265 . S
O8 C7 1.227 . S
N9 Co6 2.121 . S
N9 C11 1.375 . S
N9 C12 1.313 . S
C10 C11 1.338 . S
C10 N13 1.377 . S
C10 H30 0.930 . S
C11 N9 1.375 . S
C11 C10 1.338 . S
C11 H15 0.931 . S
C12 N9 1.313 . S
C12 N13 1.344 . S
C12 H16 0.930 . S
N13 C10 1.377 . S
N13 C12 1.344 . S
O14 Co6 2.055 . S
O14 C18 1.247 1_554 S
H15 C11 0.931 . S
H16 C12 0.930 . S
O17 Co6 2.039 . S
O17 C7 1.265 . S
C18 O14 1.247 1_556 S
C18 O19 1.232 . S
O19 C18 1.232 . S
N20 Co6 2.140 1_556 S
N20 C23 1.346 . S
N20 C24 1.345 . S
C21 C22 1.387 . S
C21 C25 1.391 . S
C22 C21 1.387 . S
C22 C23 1.369 . S
C22 H31 0.929 . S
C23 N20 1.346 . S
C23 C22 1.369 . S
C23 H26 0.928 . S
C24 N20 1.345 . S
C24 C25 1.371 . S
C24 H27 0.931 . S
C25 C21 1.391 . S
C25 C24 1.371 . S
C25 H32 0.930 . S
H26 C23 0.928 . S
H27 C24 0.931 . S
H28 C4 0.930 . S
H29 C1 0.930 . S
H30 C10 0.930 . S
H31 C22 0.929 . S
H32 C25 0.930 . S
C33 C34 1.351 . S
C33 N36 1.368 1_556 S
C33 H38 0.931 . S
C34 C33 1.351 . S
C34 N35 1.373 1_556 S
C34 H62 0.930 . S
N35 C34 1.373 1_554 S
N35 C37 1.340 . S
N36 C33 1.368 1_554 S
N36 C37 1.321 . S
N36 Co39 2.135 . S
C37 N35 1.340 . S
C37 N36 1.321 . S
C37 H61 0.930 . S
H38 C33 0.931 . S
Co39 N36 2.135 . S
Co39 N42 2.121 . S
Co39 O47 2.055 . S
Co39 O50 2.039 . S
Co39 N53 2.140 1_554 S
C40 O41 1.227 . S
C40 O50 1.265 . S
O41 C40 1.227 . S
N42 Co39 2.121 . S
N42 C44 1.375 . S
N42 C45 1.313 . S
C43 C44 1.338 . S
C43 N46 1.377 . S
C43 H63 0.930 . S
C44 N42 1.375 . S
C44 C43 1.338 . S
C44 H48 0.931 . S
C45 N42 1.313 . S
C45 N46 1.344 . S
C45 H49 0.930 . S
N46 C43 1.377 . S
N46 C45 1.344 . S
O47 Co39 2.055 . S
O47 C51 1.247 1_554 S
H48 C44 0.931 . S
H49 C45 0.930 . S
O50 Co39 2.039 . S
O50 C40 1.265 . S
C51 O47 1.247 1_556 S
C51 O52 1.232 . S
O52 C51 1.232 . S
N53 Co39 2.140 1_556 S
N53 C56 1.346 . S
N53 C57 1.345 . S
C54 C55 1.387 . S
C54 C58 1.391 . S
C55 C54 1.387 . S
C55 C56 1.369 . S
C55 H64 0.929 . S
C56 N53 1.346 . S
C56 C55 1.369 . S
C56 H59 0.928 . S
C57 N53 1.345 . S
C57 C58 1.371 . S
C57 H60 0.931 . S
C58 C54 1.391 . S
C58 C57 1.371 . S
C58 H65 0.930 . S
H59 C56 0.928 . S
H60 C57 0.931 . S
H61 C37 0.930 . S
H62 C34 0.930 . S
H63 C43 0.930 . S
H64 C55 0.929 . S
H65 C58 0.930 . S
C66 C67 1.351 . S
C66 N69 1.368 1_556 S
C66 H71 0.931 . S
C67 C66 1.351 . S
C67 N68 1.373 1_556 S
C67 H95 0.930 . S
N68 C67 1.373 1_554 S
N68 C70 1.340 . S
N69 C66 1.368 1_554 S
N69 C70 1.321 . S
N69 Co72 2.135 . S
C70 N68 1.340 . S
C70 N69 1.321 . S
C70 H94 0.930 . S
H71 C66 0.931 . S
Co72 N69 2.135 . S
Co72 N75 2.121 . S
Co72 O80 2.055 . S
Co72 O83 2.039 . S
Co72 N86 2.140 1_554 S
C73 O74 1.227 . S
C73 O83 1.265 . S
O74 C73 1.227 . S
N75 Co72 2.121 . S
N75 C77 1.375 . S
N75 C78 1.313 . S
C76 C77 1.338 . S
C76 N79 1.377 . S
C76 H96 0.930 . S
C77 N75 1.375 . S
C77 C76 1.338 . S
C77 H81 0.931 . S
C78 N75 1.313 . S
C78 N79 1.344 . S
C78 H82 0.930 . S
N79 C76 1.377 . S
N79 C78 1.344 . S
O80 Co72 2.055 . S
O80 C84 1.247 1_554 S
H81 C77 0.931 . S
H82 C78 0.930 . S
O83 Co72 2.039 . S
O83 C73 1.265 . S
C84 O80 1.247 1_556 S
C84 O85 1.232 . S
O85 C84 1.232 . S
N86 Co72 2.140 1_556 S
N86 C89 1.346 . S
N86 C90 1.345 . S
C87 C88 1.387 . S
C87 C91 1.391 . S
C88 C87 1.387 . S
C88 C89 1.369 . S
C88 H97 0.929 . S
C89 N86 1.346 . S
C89 C88 1.369 . S
C89 H92 0.928 . S
C90 N86 1.345 . S
C90 C91 1.371 . S
C90 H93 0.931 . S
C91 C87 1.391 . S
C91 C90 1.371 . S
C91 H98 0.930 . S
H92 C89 0.928 . S
H93 C90 0.931 . S
H94 C70 0.930 . S
H95 C67 0.930 . S
H96 C76 0.930 . S
H97 C88 0.929 . S
H98 C91 0.930 . S
C99 C100 1.351 . S
C99 N102 1.368 1_556 S
C99 H104 0.931 . S
C100 C99 1.351 . S
C100 N101 1.373 1_556 S
C100 H128 0.930 . S
N101 C100 1.373 1_554 S
N101 C103 1.340 . S
N102 C99 1.368 1_554 S
N102 C103 1.321 . S
N102 Co105 2.135 . S
C103 N101 1.340 . S
C103 N102 1.321 . S
C103 H127 0.930 . S
H104 C99 0.931 . S
Co105 N102 2.135 . S
Co105 N108 2.121 . S
Co105 O113 2.055 . S
Co105 O116 2.039 . S
Co105 N119 2.140 1_554 S
C106 O107 1.227 . S
C106 O116 1.265 . S
O107 C106 1.227 . S
N108 Co105 2.121 . S
N108 C110 1.375 . S
N108 C111 1.313 . S
C109 C110 1.338 . S
C109 N112 1.377 . S
C109 H129 0.930 . S
C110 N108 1.375 . S
C110 C109 1.338 . S
C110 H114 0.931 . S
C111 N108 1.313 . S
C111 N112 1.344 . S
C111 H115 0.930 . S
N112 C109 1.377 . S
N112 C111 1.344 . S
O113 Co105 2.055 . S
O113 C117 1.247 1_554 S
H114 C110 0.931 . S
H115 C111 0.930 . S
O116 Co105 2.039 . S
O116 C106 1.265 . S
C117 O113 1.247 1_556 S
C117 O118 1.232 . S
O118 C117 1.232 . S
N119 Co105 2.140 1_556 S
N119 C122 1.346 . S
N119 C123 1.345 . S
C120 C121 1.387 . S
C120 C124 1.391 . S
C121 C120 1.387 . S
C121 C122 1.369 . S
C121 H130 0.929 . S
C122 N119 1.346 . S
C122 C121 1.369 . S
C122 H125 0.928 . S
C123 N119 1.345 . S
C123 C124 1.371 . S
C123 H126 0.931 . S
C124 C120 1.391 . S
C124 C123 1.371 . S
C124 H131 0.930 . S
H125 C122 0.928 . S
H126 C123 0.931 . S
H127 C103 0.930 . S
H128 C100 0.930 . S
H129 C109 0.930 . S
H130 C121 0.929 . S
H131 C124 0.930 . S
C132 C133 1.351 . S
C132 N135 1.368 . S
C132 H137 0.931 . S
C133 C132 1.351 . S
C133 N134 1.373 . S
C133 H161 0.930 . S
N134 C133 1.373 . S
N134 C136 1.340 . S
N135 C132 1.368 . S
N135 C136 1.321 . S
N135 Co138 2.135 . S
C136 N134 1.340 . S
C136 N135 1.321 . S
C136 H160 0.930 . S
H137 C132 0.931 . S
Co138 N135 2.135 . S
Co138 N141 2.121 . S
Co138 O146 2.055 . S
Co138 O149 2.039 . S
Co138 N152 2.140 . S
C139 O140 1.227 . S
C139 O149 1.265 . S
O140 C139 1.227 . S
N141 Co138 2.121 . S
N141 C143 1.375 . S
N141 C144 1.313 . S
C142 C143 1.338 . S
C142 N145 1.377 . S
C142 H162 0.930 . S
C143 N141 1.375 . S
C143 C142 1.338 . S
C143 H147 0.931 . S
C144 N141 1.313 . S
C144 N145 1.344 . S
C144 H148 0.930 . S
N145 C142 1.377 . S
N145 C144 1.344 . S
O146 Co138 2.055 . S
O146 C150 1.253 . S
H147 C143 0.931 . S
H148 C144 0.930 . S
O149 Co138 2.039 . S
O149 C139 1.265 . S
C150 O146 1.253 . S
C150 O151 1.227 . S
O151 C150 1.227 . S
N152 Co138 2.140 . S
N152 C155 1.346 . S
N152 C156 1.345 . S
C153 C154 1.387 . S
C153 C157 1.391 . S
C154 C153 1.387 . S
C154 C155 1.369 . S
C154 H163 0.929 . S
C155 N152 1.346 . S
C155 C154 1.369 . S
C155 H158 0.928 . S
C156 N152 1.345 . S
C156 C157 1.371 . S
C156 H159 0.931 . S
C157 C153 1.391 . S
C157 C156 1.371 . S
C157 H164 0.930 . S
H158 C155 0.928 . S
H159 C156 0.931 . S
H160 C136 0.930 . S
H161 C133 0.930 . S
H162 C142 0.930 . S
H163 C154 0.929 . S
H164 C157 0.930 . S
C165 C166 1.351 . S
C165 N168 1.368 . S
C165 H170 0.931 . S
C166 C165 1.351 . S
C166 N167 1.373 . S
C166 H194 0.930 . S
N167 C166 1.373 . S
N167 C169 1.340 . S
N168 C165 1.368 . S
N168 C169 1.321 . S
N168 Co171 2.135 . S
C169 N167 1.340 . S
C169 N168 1.321 . S
C169 H193 0.930 . S
H170 C165 0.931 . S
Co171 N168 2.135 . S
Co171 N174 2.121 . S
Co171 O179 2.055 . S
Co171 O182 2.039 . S
Co171 N185 2.140 . S
C172 O173 1.227 . S
C172 O182 1.265 . S
O173 C172 1.227 . S
N174 Co171 2.121 . S
N174 C176 1.375 . S
N174 C177 1.313 . S
C175 C176 1.338 . S
C175 N178 1.377 . S
C175 H195 0.930 . S
C176 N174 1.375 . S
C176 C175 1.338 . S
C176 H180 0.931 . S
C177 N174 1.313 . S
C177 N178 1.344 . S
C177 H181 0.930 . S
N178 C175 1.377 . S
N178 C177 1.344 . S
O179 Co171 2.055 . S
O179 C183 1.253 . S
H180 C176 0.931 . S
H181 C177 0.930 . S
O182 Co171 2.039 . S
O182 C172 1.265 . S
C183 O179 1.253 . S
C183 O184 1.227 . S
O184 C183 1.227 . S
N185 Co171 2.140 . S
N185 C188 1.346 . S
N185 C189 1.345 . S
C186 C187 1.387 . S
C186 C190 1.391 . S
C187 C186 1.387 . S
C187 C188 1.369 . S
C187 H196 0.929 . S
C188 N185 1.346 . S
C188 C187 1.369 . S
C188 H191 0.928 . S
C189 N185 1.345 . S
C189 C190 1.371 . S
C189 H192 0.931 . S
C190 C186 1.391 . S
C190 C189 1.371 . S
C190 H197 0.930 . S
H191 C188 0.928 . S
H192 C189 0.931 . S
H193 C169 0.930 . S
H194 C166 0.930 . S
H195 C175 0.930 . S
H196 C187 0.929 . S
H197 C190 0.930 . S
C198 C199 1.351 . S
C198 N201 1.368 . S
C198 H203 0.931 . S
C199 C198 1.351 . S
C199 N200 1.373 . S
C199 H227 0.930 . S
N200 C199 1.373 . S
N200 C202 1.340 . S
N201 C198 1.368 . S
N201 C202 1.321 . S
N201 Co204 2.135 . S
C202 N200 1.340 . S
C202 N201 1.321 . S
C202 H226 0.930 . S
H203 C198 0.931 . S
Co204 N201 2.135 . S
Co204 N207 2.121 . S
Co204 O212 2.055 . S
Co204 O215 2.039 . S
Co204 N218 2.140 . S
C205 O206 1.227 . S
C205 O215 1.265 . S
O206 C205 1.227 . S
N207 Co204 2.121 . S
N207 C209 1.375 . S
N207 C210 1.313 . S
C208 C209 1.338 . S
C208 N211 1.377 . S
C208 H228 0.930 . S
C209 N207 1.375 . S
C209 C208 1.338 . S
C209 H213 0.931 . S
C210 N207 1.313 . S
C210 N211 1.344 . S
C210 H214 0.930 . S
N211 C208 1.377 . S
N211 C210 1.344 . S
O212 Co204 2.055 . S
O212 C216 1.253 . S
H213 C209 0.931 . S
H214 C210 0.930 . S
O215 Co204 2.039 . S
O215 C205 1.265 . S
C216 O212 1.253 . S
C216 O217 1.227 . S
O217 C216 1.227 . S
N218 Co204 2.140 . S
N218 C221 1.346 . S
N218 C222 1.345 . S
C219 C220 1.387 . S
C219 C223 1.391 . S
C220 C219 1.387 . S
C220 C221 1.369 . S
C220 H229 0.929 . S
C221 N218 1.346 . S
C221 C220 1.369 . S
C221 H224 0.928 . S
C222 N218 1.345 . S
C222 C223 1.371 . S
C222 H225 0.931 . S
C223 C219 1.391 . S
C223 C222 1.371 . S
C223 H230 0.930 . S
H224 C221 0.928 . S
H225 C222 0.931 . S
H226 C202 0.930 . S
H227 C199 0.930 . S
H228 C208 0.930 . S
H229 C220 0.929 . S
H230 C223 0.930 . S
C231 C232 1.351 . S
C231 N234 1.368 . S
C231 H236 0.931 . S
C232 C231 1.351 . S
C232 N233 1.373 . S
C232 H260 0.930 . S
N233 C232 1.373 . S
N233 C235 1.340 . S
N234 C231 1.368 . S
N234 C235 1.321 . S
N234 Co237 2.135 . S
C235 N233 1.340 . S
C235 N234 1.321 . S
C235 H259 0.930 . S
H236 C231 0.931 . S
Co237 N234 2.135 . S
Co237 N240 2.121 . S
Co237 O245 2.055 . S
Co237 O248 2.039 . S
Co237 N251 2.140 . S
C238 O239 1.227 . S
C238 O248 1.265 . S
O239 C238 1.227 . S
N240 Co237 2.121 . S
N240 C242 1.375 . S
N240 C243 1.313 . S
C241 C242 1.338 . S
C241 N244 1.377 . S
C241 H261 0.930 . S
C242 N240 1.375 . S
C242 C241 1.338 . S
C242 H246 0.931 . S
C243 N240 1.313 . S
C243 N244 1.344 . S
C243 H247 0.930 . S
N244 C241 1.377 . S
N244 C243 1.344 . S
O245 Co237 2.055 . S
O245 C249 1.253 . S
H246 C242 0.931 . S
H247 C243 0.930 . S
O248 Co237 2.039 . S
O248 C238 1.265 . S
C249 O245 1.253 . S
C249 O250 1.227 . S
O250 C249 1.227 . S
N251 Co237 2.140 . S
N251 C254 1.346 . S
N251 C255 1.345 . S
C252 C253 1.387 . S
C252 C256 1.391 . S
C253 C252 1.387 . S
C253 C254 1.369 . S
C253 H262 0.929 . S
C254 N251 1.346 . S
C254 C253 1.369 . S
C254 H257 0.928 . S
C255 N251 1.345 . S
C255 C256 1.371 . S
C255 H258 0.931 . S
C256 C252 1.391 . S
C256 C255 1.371 . S
C256 H263 0.930 . S
H257 C254 0.928 . S
H258 C255 0.931 . S
H259 C235 0.930 . S
H260 C232 0.930 . S
H261 C241 0.930 . S
H262 C253 0.929 . S
H263 C256 0.930 . S
C264 C265 1.364 . S
C264 C266 1.327 . S
C264 H289 0.950 . S
C265 C264 1.364 . S
C265 C281 1.333 1_556 S
C266 C264 1.327 . S
C266 C285 1.429 1_556 S
C266 H290 0.950 . S
C267 C284 1.574 . S
C267 C286 1.368 . S
C267 H291 0.949 . S
H268 C272 0.949 . S
C269 C270 1.349 . S
C269 C271 1.327 . S
C269 H292 0.950 . S
C270 C269 1.349 . S
C270 C282 1.349 1_554 S
C271 C269 1.327 . S
C271 C287 1.429 . S
C271 H293 0.950 . S
C272 H268 0.949 . S
C272 C280 1.574 . S
C272 C288 1.368 1_556 S
H273 C281 0.950 . S
H274 C279 0.950 . S
H275 C280 0.949 . S
H276 C282 0.950 . S
H277 C283 0.950 . S
H278 C284 0.949 . S
C279 H274 0.950 . S
C279 C281 1.327 . S
C279 C285 1.429 . S
C280 C272 1.574 . S
C280 H275 0.949 . S
C280 C286 1.368 1_556 S
C281 C265 1.333 1_554 S
C281 H273 0.950 . S
C281 C279 1.327 . S
C282 C270 1.349 1_556 S
C282 H276 0.950 . S
C282 C283 1.327 . S
C283 H277 0.950 . S
C283 C282 1.327 . S
C283 C287 1.429 1_556 S
C284 C267 1.574 . S
C284 H278 0.949 . S
C284 C288 1.368 . S
C285 C266 1.429 1_554 S
C285 C279 1.429 . S
C285 C286 1.523 . S
C286 C267 1.368 . S
C286 C280 1.368 1_554 S
C286 C285 1.523 . S
C287 C271 1.429 . S
C287 C283 1.429 1_554 S
C287 C288 1.523 . S
C288 C272 1.368 1_554 S
C288 C284 1.368 . S
C288 C287 1.523 . S
H289 C264 0.950 . S
H290 C266 0.950 . S
H291 C267 0.949 . S
H292 C269 0.950 . S
H293 C271 0.950 . S
C294 C295 1.349 . S
C294 C296 1.327 . S
C294 H319 0.950 . S
C295 C294 1.349 . S
C295 C311 1.349 1_554 S
C296 C294 1.327 . S
C296 C315 1.429 . S
C296 H320 0.950 . S
C297 C314 1.574 . S
C297 C316 1.368 1_556 S
C297 H321 0.949 . S
H298 C302 0.949 . S
C299 C300 1.364 . S
C299 C301 1.327 . S
C299 H322 0.950 . S
C300 C299 1.364 . S
C300 C312 1.332 1_556 S
C301 C299 1.327 . S
C301 C317 1.429 1_556 S
C301 H323 0.950 . S
C302 H298 0.949 . S
C302 C310 1.574 . S
C302 C318 1.368 . S
H303 C311 0.950 . S
H304 C309 0.950 . S
H305 C310 0.949 . S
H306 C312 0.950 . S
H307 C313 0.950 . S
H308 C314 0.949 . S
C309 H304 0.950 . S
C309 C311 1.327 . S
C309 C315 1.429 1_556 S
C310 C302 1.574 . S
C310 H305 0.949 . S
C310 C316 1.368 . S
C311 C295 1.349 1_556 S
C311 H303 0.950 . S
C311 C309 1.327 . S
C312 C300 1.332 1_554 S
C312 H306 0.950 . S
C312 C313 1.327 . S
C313 H307 0.950 . S
C313 C312 1.327 . S
C313 C317 1.429 . S
C314 C297 1.574 . S
C314 H308 0.949 . S
C314 C318 1.368 1_556 S
C315 C296 1.429 . S
C315 C309 1.429 1_554 S
C315 C316 1.523 . S
C316 C297 1.368 1_554 S
C316 C310 1.368 . S
C316 C315 1.523 . S
C317 C301 1.429 1_554 S
C317 C313 1.429 . S
C317 C318 1.523 . S
C318 C302 1.368 . S
C318 C314 1.368 1_554 S
C318 C317 1.523 . S
H319 C294 0.950 . S
H320 C296 0.950 . S
H321 C297 0.949 . S
H322 C299 0.950 . S
H323 C301 0.950 . S
C324 C325 1.349 1_556 S
C324 C326 1.327 . S
C324 H349 0.950 . S
C325 C324 1.349 1_554 S
C325 C341 1.349 . S
C326 C324 1.327 . S
C326 C345 1.429 1_556 S
C326 H350 0.950 . S
C327 C344 1.574 . S
C327 C346 1.368 . S
C327 H351 0.949 . S
H328 C332 0.949 . S
C329 C330 1.330 1_554 S
C329 C331 1.327 . S
C329 H352 0.950 . S
C330 C329 1.330 1_556 S
C330 C342 1.366 . S
C331 C329 1.327 . S
C331 C347 1.429 . S
C331 H353 0.950 . S
C332 H328 0.949 . S
C332 C340 1.574 . S
C332 C348 1.368 1_556 S
H333 C341 0.950 . S
H334 C339 0.950 . S
H335 C340 0.949 . S
H336 C342 0.950 . S
H337 C343 0.950 . S
H338 C344 0.949 . S
C339 H334 0.950 . S
C339 C341 1.327 . S
C339 C345 1.429 . S
C340 C332 1.574 . S
C340 H335 0.949 . S
C340 C346 1.368 1_556 S
C341 C325 1.349 . S
C341 H333 0.950 . S
C341 C339 1.327 . S
C342 C330 1.366 . S
C342 H336 0.950 . S
C342 C343 1.327 . S
C343 H337 0.950 . S
C343 C342 1.327 . S
C343 C347 1.429 1_556 S
C344 C327 1.574 . S
C344 H338 0.949 . S
C344 C348 1.368 . S
C345 C326 1.429 1_554 S
C345 C339 1.429 . S
C345 C346 1.523 . S
C346 C327 1.368 . S
C346 C340 1.368 1_554 S
C346 C345 1.523 . S
C347 C331 1.429 . S
C347 C343 1.429 1_554 S
C347 C348 1.523 . S
C348 C332 1.368 1_554 S
C348 C344 1.368 . S
C348 C347 1.523 . S
H349 C324 0.950 . S
H350 C326 0.950 . S
H351 C327 0.949 . S
H352 C329 0.950 . S
H353 C331 0.950 . S
C354 C355 1.333 1_554 S
C354 C356 1.327 . S
C354 H379 0.950 . S
C355 C354 1.333 1_556 S
C355 C371 1.363 . S
C356 C354 1.327 . S
C356 C375 1.429 . S
C356 H380 0.950 . S
C357 C374 1.574 . S
C357 C376 1.368 1_556 S
C357 H381 0.949 . S
H358 C362 0.949 . S
C359 C360 1.349 1_556 S
C359 C361 1.327 . S
C359 H382 0.950 . S
C360 C359 1.349 1_554 S
C360 C372 1.349 . S
C361 C359 1.327 . S
C361 C377 1.429 1_556 S
C361 H383 0.950 . S
C362 H358 0.949 . S
C362 C370 1.574 . S
C362 C378 1.368 . S
H363 C371 0.950 . S
H364 C369 0.950 . S
H365 C370 0.949 . S
H366 C372 0.950 . S
H367 C373 0.950 . S
H368 C374 0.949 . S
C369 H364 0.950 . S
C369 C371 1.327 . S
C369 C375 1.429 1_556 S
C370 C362 1.574 . S
C370 H365 0.949 . S
C370 C376 1.368 . S
C371 C355 1.363 . S
C371 H363 0.950 . S
C371 C369 1.327 . S
C372 C360 1.349 . S
C372 H366 0.950 . S
C372 C373 1.327 . S
C373 H367 0.950 . S
C373 C372 1.327 . S
C373 C377 1.429 . S
C374 C357 1.574 . S
C374 H368 0.949 . S
C374 C378 1.368 1_556 S
C375 C356 1.429 . S
C375 C369 1.429 1_554 S
C375 C376 1.523 . S
C376 C357 1.368 1_554 S
C376 C370 1.368 . S
C376 C375 1.523 . S
C377 C361 1.429 1_554 S
C377 C373 1.429 . S
C377 C378 1.523 . S
C378 C362 1.368 . S
C378 C374 1.368 1_554 S
C378 C377 1.523 . S
H379 C354 0.950 . S
H380 C356 0.950 . S
H381 C357 0.949 . S
H382 C359 0.950 . S
H383 C361 0.950 . S
C384 C385 1.349 . S
C384 C386 1.327 . S
C384 H409 0.950 . S
C385 C384 1.349 . S
C385 C401 1.349 . S
C386 C384 1.327 . S
C386 C405 1.429 . S
C386 H410 0.975 . S
C387 C404 1.574 . S
C387 C406 1.368 . S
C387 H411 0.949 . S
H388 C392 0.949 . S
C389 C390 1.349 . S
C389 C391 1.327 . S
C389 H412 0.950 . S
C390 C389 1.349 . S
C390 C402 1.349 . S
C391 C389 1.327 . S
C391 C407 1.429 . S
C391 H413 0.950 . S
C392 H388 0.949 . S
C392 C400 1.574 . S
C392 C408 1.368 . S
H393 C401 0.950 . S
H394 C399 0.950 . S
H395 C400 0.949 . S
H396 C402 0.950 . S
H397 C403 0.950 . S
H398 C404 0.949 . S
C399 H394 0.950 . S
C399 C401 1.327 . S
C399 C405 1.429 . S
C400 C392 1.574 . S
C400 H395 0.949 . S
C400 C406 1.368 . S
C401 C385 1.349 . S
C401 H393 0.950 . S
C401 C399 1.327 . S
C402 C390 1.349 . S
C402 H396 0.950 . S
C402 C403 1.327 . S
C403 H397 0.950 . S
C403 C402 1.327 . S
C403 C407 1.429 . S
C404 C387 1.574 . S
C404 H398 0.949 . S
C404 C408 1.368 . S
C405 C386 1.429 . S
C405 C399 1.429 . S
C405 C406 1.523 1_455 S
C406 C387 1.368 . S
C406 C400 1.368 . S
C406 C405 1.523 1_655 S
C407 C391 1.429 . S
C407 C403 1.429 . S
C407 C408 1.523 . S
C408 C392 1.368 . S
C408 C404 1.368 . S
C408 C407 1.523 . S
H409 C384 0.950 . S
H410 C386 0.975 . S
H411 C387 0.949 . S
H412 C389 0.950 . S
H413 C391 0.950 . S
C414 C415 1.349 . S
C414 C416 1.327 . S
C414 H439 0.950 . S
C415 C414 1.349 . S
C415 C431 1.349 . S
C416 C414 1.327 . S
C416 C435 1.429 . S
C416 H440 0.950 . S
C417 C434 1.574 . S
C417 C436 1.368 . S
C417 H441 0.949 . S
H418 C422 0.949 . S
C419 C420 1.349 . S
C419 C421 1.327 . S
C419 H442 0.950 . S
C420 C419 1.349 . S
C420 C432 1.349 . S
C421 C419 1.327 . S
C421 C437 1.429 . S
C421 H443 0.950 . S
C422 H418 0.949 . S
C422 C430 1.574 . S
C422 C438 1.368 . S
H423 C431 0.950 . S
H424 C429 0.950 1_565 S
H425 C430 0.949 . S
H426 C432 0.950 . S
H427 C433 0.950 . S
H428 C434 0.949 . S
C429 H424 0.950 1_545 S
C429 C431 1.327 . S
C429 C435 1.429 . S
C430 C422 1.574 . S
C430 H425 0.949 . S
C430 C436 1.368 . S
C431 C415 1.349 . S
C431 H423 0.950 . S
C431 C429 1.327 . S
C432 C420 1.349 . S
C432 H426 0.950 . S
C432 C433 1.327 . S
C433 H427 0.950 . S
C433 C432 1.327 . S
C433 C437 1.429 . S
C434 C417 1.574 . S
C434 H428 0.949 . S
C434 C438 1.368 . S
C435 C416 1.429 . S
C435 C429 1.429 . S
C435 C436 1.523 1_545 S
C436 C417 1.368 . S
C436 C430 1.368 . S
C436 C435 1.523 1_565 S
C437 C421 1.429 . S
C437 C433 1.429 . S
C437 C438 1.523 . S
C438 C422 1.368 . S
C438 C434 1.368 . S
C438 C437 1.523 . S
H439 C414 0.950 . S
H440 C416 0.950 . S
H441 C417 0.949 . S
H442 C419 0.950 . S
H443 C421 0.950 . S
C444 C445 1.349 . S
C444 C446 1.327 . S
C444 H469 0.950 . S
C445 C444 1.349 . S
C445 C461 1.349 . S
C446 C444 1.327 . S
C446 C465 1.429 . S
C446 H470 0.950 . S
C447 C464 1.574 . S
C447 C466 1.368 . S
C447 H471 0.949 . S
H448 C452 0.949 . S
C449 C450 1.349 . S
C449 C451 1.327 . S
C449 H472 0.950 . S
C450 C449 1.349 . S
C450 C462 1.349 . S
C451 C449 1.327 . S
C451 C467 1.429 . S
C451 H473 0.950 . S
C452 H448 0.949 . S
C452 C460 1.574 . S
C452 C468 1.368 . S
H453 C461 0.950 . S
H454 C459 0.950 . S
H455 C460 0.949 . S
H456 C462 0.950 . S
H457 C463 0.950 . S
H458 C464 0.949 . S
C459 H454 0.950 . S
C459 C461 1.327 . S
C459 C465 1.429 . S
C460 C452 1.574 . S
C460 H455 0.949 . S
C460 C466 1.368 . S
C461 C445 1.349 . S
C461 H453 0.950 . S
C461 C459 1.327 . S
C462 C450 1.349 . S
C462 H456 0.950 . S
C462 C463 1.327 . S
C463 H457 0.950 . S
C463 C462 1.327 . S
C463 C467 1.429 . S
C464 C447 1.574 . S
C464 H458 0.949 . S
C464 C468 1.368 . S
C465 C446 1.429 . S
C465 C459 1.429 . S
C465 C466 1.523 . S
C466 C447 1.368 . S
C466 C460 1.368 . S
C466 C465 1.523 . S
C467 C451 1.429 . S
C467 C463 1.429 . S
C467 C468 1.523 1_655 S
C468 C452 1.368 . S
C468 C464 1.368 . S
C468 C467 1.523 1_455 S
H469 C444 0.950 . S
H470 C446 0.950 . S
H471 C447 0.949 . S
H472 C449 0.950 . S
H473 C451 0.950 . S
C474 C475 1.349 . S
C474 C476 1.327 . S
C474 H499 0.950 . S
C475 C474 1.349 . S
C475 C491 1.349 . S
C476 C474 1.327 . S
C476 C495 1.429 . S
C476 H500 0.950 . S
C477 C494 1.574 . S
C477 C496 1.368 . S
C477 H501 0.949 . S
H478 C482 0.949 . S
C479 C480 1.349 . S
C479 C481 1.327 . S
C479 H502 0.950 . S
C480 C479 1.349 . S
C480 C492 1.349 . S
C481 C479 1.327 . S
C481 C497 1.429 . S
C481 H503 0.950 . S
C482 H478 0.949 . S
C482 C490 1.574 . S
C482 C498 1.368 . S
H483 C491 0.950 . S
H484 C489 0.950 . S
H485 C490 0.949 . S
H486 C492 0.950 . S
H487 C493 0.950 . S
H488 C494 0.949 . S
C489 H484 0.950 . S
C489 C491 1.327 . S
C489 C495 1.429 . S
C490 C482 1.574 . S
C490 H485 0.949 . S
C490 C496 1.368 . S
C491 C475 1.349 . S
C491 H483 0.950 . S
C491 C489 1.327 . S
C492 C480 1.349 . S
C492 H486 0.950 . S
C492 C493 1.327 . S
C493 H487 0.950 . S
C493 C492 1.327 . S
C493 C497 1.429 . S
C494 C477 1.574 . S
C494 H488 0.949 . S
C494 C498 1.368 . S
C495 C476 1.429 . S
C495 C489 1.429 . S
C495 C496 1.523 . S
C496 C477 1.368 . S
C496 C490 1.368 . S
C496 C495 1.523 . S
C497 C481 1.429 . S
C497 C493 1.429 . S
C497 C498 1.523 1_565 S
C498 C482 1.368 . S
C498 C494 1.368 . S
C498 C497 1.523 1_545 S
H499 C474 0.950 . S
H500 C476 0.950 . S
H501 C477 0.949 . S
H502 C479 0.950 . S
H503 C481 0.950 . S
C504 C505 1.349 . S
C504 C506 1.327 . S
C504 H529 0.950 . S
C505 C504 1.349 . S
C505 C521 1.349 . S
C506 C504 1.327 . S
C506 C525 1.429 . S
C506 H530 0.950 . S
C507 C524 1.574 . S
C507 C526 1.368 . S
C507 H531 0.949 . S
H508 C512 0.949 . S
C509 C510 1.349 . S
C509 C511 1.327 . S
C509 H532 0.950 . S
C510 C509 1.349 . S
C510 C522 1.349 . S
C511 C509 1.327 . S
C511 C527 1.429 . S
C511 H533 0.950 . S
C512 H508 0.949 . S
C512 C520 1.574 . S
C512 C528 1.368 . S
H513 C521 0.950 . S
H514 C519 0.950 . S
H515 C520 0.949 . S
H516 C522 0.950 . S
H517 C523 0.950 . S
H518 C524 0.949 . S
C519 H514 0.950 . S
C519 C521 1.327 . S
C519 C525 1.429 . S
C520 C512 1.574 . S
C520 H515 0.949 . S
C520 C526 1.368 . S
C521 C505 1.349 . S
C521 H513 0.950 . S
C521 C519 1.327 . S
C522 C510 1.349 . S
C522 H516 0.950 . S
C522 C523 1.327 . S
C523 H517 0.950 . S
C523 C522 1.327 . S
C523 C527 1.429 . S
C524 C507 1.574 . S
C524 H518 0.949 . S
C524 C528 1.368 . S
C525 C506 1.429 . S
C525 C519 1.429 . S
C525 C526 1.523 . S
C526 C507 1.368 . S
C526 C520 1.368 . S
C526 C525 1.523 . S
C527 C511 1.429 . S
C527 C523 1.429 . S
C527 C528 1.523 . S
C528 C512 1.368 . S
C528 C524 1.368 . S
C528 C527 1.523 . S
H529 C504 0.950 . S
H530 C506 0.950 . S
H531 C507 0.949 . S
H532 C509 0.950 . S
H533 C511 0.950 . S
C534 C535 1.349 . S
C534 C536 1.327 . S
C534 H559 0.950 . S
C535 C534 1.349 . S
C535 C551 1.349 . S
C536 C534 1.327 . S
C536 C555 1.429 . S
C536 H560 0.950 . S
C537 C554 1.574 . S
C537 C556 1.368 . S
C537 H561 0.949 . S
H538 C542 0.949 . S
C539 C540 1.349 . S
C539 C541 1.327 . S
C539 H562 0.950 . S
C540 C539 1.349 . S
C540 C552 1.349 . S
C541 C539 1.327 . S
C541 C557 1.429 . S
C541 H563 0.950 . S
C542 H538 0.949 . S
C542 C550 1.574 . S
C542 C558 1.368 . S
H543 C551 0.950 . S
H544 C549 0.950 . S
H545 C550 0.949 . S
H546 C552 0.950 . S
H547 C553 0.950 . S
H548 C554 0.949 . S
C549 H544 0.950 . S
C549 C551 1.327 . S
C549 C555 1.429 . S
C550 C542 1.574 . S
C550 H545 0.949 . S
C550 C556 1.368 . S
C551 C535 1.349 . S
C551 H543 0.950 . S
C551 C549 1.327 . S
C552 C540 1.349 . S
C552 H546 0.950 . S
C552 C553 1.327 . S
C553 H547 0.950 . S
C553 C552 1.327 . S
C553 C557 1.429 . S
C554 C537 1.574 . S
C554 H548 0.949 . S
C554 C558 1.368 . S
C555 C536 1.429 . S
C555 C549 1.429 . S
C555 C556 1.523 . S
C556 C537 1.368 . S
C556 C550 1.368 . S
C556 C555 1.523 . S
C557 C541 1.429 . S
C557 C553 1.429 . S
C557 C558 1.523 . S
C558 C542 1.368 . S
C558 C554 1.368 . S
C558 C557 1.523 . S
H559 C534 0.950 . S
H560 C536 0.950 . S
H561 C537 0.949 . S
H562 C539 0.950 . S
H563 C541 0.950 . S
C564 C565 1.349 . S
C564 C566 1.327 . S
C564 H589 0.950 . S
C565 C564 1.349 . S
C565 C581 1.349 . S
C566 C564 1.327 . S
C566 C585 1.429 . S
C566 H590 0.950 . S
C567 C584 1.574 . S
C567 C586 1.368 . S
C567 H591 0.949 . S
H568 C572 0.949 . S
C569 C570 1.349 . S
C569 C571 1.327 . S
C569 H592 0.950 . S
C570 C569 1.349 . S
C570 C582 1.349 . S
C571 C569 1.327 . S
C571 C587 1.429 . S
C571 H593 0.950 . S
C572 H568 0.949 . S
C572 C580 1.574 . S
C572 C588 1.368 . S
H573 C581 0.950 . S
H574 C579 0.950 . S
H575 C580 0.949 . S
H576 C582 0.950 . S
H577 C583 0.950 . S
H578 C584 0.949 . S
C579 H574 0.950 . S
C579 C581 1.327 . S
C579 C585 1.429 . S
C580 C572 1.574 . S
C580 H575 0.949 . S
C580 C586 1.368 . S
C581 C565 1.349 . S
C581 H573 0.950 . S
C581 C579 1.327 . S
C582 C570 1.349 . S
C582 H576 0.950 . S
C582 C583 1.327 . S
C583 H577 0.950 . S
C583 C582 1.327 . S
C583 C587 1.429 . S
C584 C567 1.574 . S
C584 H578 0.949 . S
C584 C588 1.368 . S
C585 C566 1.429 . S
C585 C579 1.429 . S
C585 C586 1.523 . S
C586 C567 1.368 . S
C586 C580 1.368 . S
C586 C585 1.523 . S
C587 C571 1.429 . S
C587 C583 1.429 . S
C587 C588 1.523 . S
C588 C572 1.368 . S
C588 C584 1.368 . S
C588 C587 1.523 . S
H589 C564 0.950 . S
H590 C566 0.950 . S
H591 C567 0.949 . S
H592 C569 0.950 . S
H593 C571 0.950 . S
C594 C595 1.349 . S
C594 C596 1.327 . S
C594 H619 0.950 . S
C595 C594 1.349 . S
C595 C611 1.349 . S
C596 C594 1.327 . S
C596 C615 1.429 . S
C596 H620 0.950 . S
C597 C614 1.574 . S
C597 C616 1.368 . S
C597 H621 0.949 . S
H598 C602 0.949 . S
C599 C600 1.349 . S
C599 C601 1.327 . S
C599 H622 0.950 . S
C600 C599 1.349 . S
C600 C612 1.349 . S
C601 C599 1.327 . S
C601 C617 1.429 . S
C601 H623 0.950 . S
C602 H598 0.949 . S
C602 C610 1.574 . S
C602 C618 1.368 . S
H603 C611 0.950 . S
H604 C609 0.950 . S
H605 C610 0.949 . S
H606 C612 0.950 . S
H607 C613 0.950 . S
H608 C614 0.949 . S
C609 H604 0.950 . S
C609 C611 1.327 . S
C609 C615 1.429 . S
C610 C602 1.574 . S
C610 H605 0.949 . S
C610 C616 1.368 . S
C611 C595 1.349 . S
C611 H603 0.950 . S
C611 C609 1.327 . S
C612 C600 1.349 . S
C612 H606 0.950 . S
C612 C613 1.327 . S
C613 H607 0.950 . S
C613 C612 1.327 . S
C613 C617 1.429 . S
C614 C597 1.574 . S
C614 H608 0.949 . S
C614 C618 1.368 . S
C615 C596 1.429 . S
C615 C609 1.429 . S
C615 C616 1.523 . S
C616 C597 1.368 . S
C616 C610 1.368 . S
C616 C615 1.523 . S
C617 C601 1.429 . S
C617 C613 1.429 . S
C617 C618 1.523 . S
C618 C602 1.368 . S
C618 C614 1.368 . S
C618 C617 1.523 . S
H619 C594 0.950 . S
H620 C596 0.950 . S
H621 C597 0.949 . S
H622 C599 0.950 . S
H623 C601 0.950 . S
C624 C625 1.349 . S
C624 C626 1.327 . S
C624 H649 0.950 . S
C625 C624 1.349 . S
C625 C641 1.349 . S
C626 C624 1.327 . S
C626 C645 1.429 . S
C626 H650 0.950 . S
C627 C644 1.574 . S
C627 C646 1.368 . S
C627 H651 0.949 . S
H628 C632 0.949 . S
C629 C630 1.349 . S
C629 C631 1.327 . S
C629 H652 0.950 . S
C630 C629 1.349 . S
C630 C642 1.349 . S
C631 C629 1.327 . S
C631 C647 1.429 . S
C631 H653 0.950 . S
C632 H628 0.949 . S
C632 C640 1.574 . S
C632 C648 1.368 . S
H633 C641 0.950 . S
H634 C639 0.950 . S
H635 C640 0.949 . S
H636 C642 0.950 . S
H637 C643 0.950 . S
H638 C644 0.949 . S
C639 H634 0.950 . S
C639 C641 1.327 . S
C639 C645 1.429 . S
C640 C632 1.574 . S
C640 H635 0.949 . S
C640 C646 1.368 . S
C641 C625 1.349 . S
C641 H633 0.950 . S
C641 C639 1.327 . S
C642 C630 1.349 . S
C642 H636 0.950 . S
C642 C643 1.327 . S
C643 H637 0.950 . S
C643 C642 1.327 . S
C643 C647 1.429 . S
C644 C627 1.574 . S
C644 H638 0.949 . S
C644 C648 1.368 . S
C645 C626 1.429 . S
C645 C639 1.429 . S
C645 C646 1.523 . S
C646 C627 1.368 . S
C646 C640 1.368 . S
C646 C645 1.523 . S
C647 C631 1.429 . S
C647 C643 1.429 . S
C647 C648 1.523 . S
C648 C632 1.368 . S
C648 C644 1.368 . S
C648 C647 1.523 . S
H649 C624 0.950 . S
H650 C626 0.950 . S
H651 C627 0.949 . S
H652 C629 0.950 . S
H653 C631 0.950 . S
C654 C655 1.349 . S
C654 C656 1.327 . S
C654 H679 0.950 . S
C655 C654 1.349 . S
C655 C671 1.349 . S
C656 C654 1.327 . S
C656 C675 1.429 . S
C656 H680 0.950 . S
C657 C674 1.574 . S
C657 C676 1.368 . S
C657 H681 0.949 . S
H658 C662 0.949 . S
C659 C660 1.349 . S
C659 C661 1.327 . S
C659 H682 0.950 . S
C660 C659 1.349 . S
C660 C672 1.349 . S
C661 C659 1.327 . S
C661 C677 1.429 . S
C661 H683 0.950 . S
C662 H658 0.949 . S
C662 C670 1.574 . S
C662 C678 1.368 . S
H663 C671 0.950 . S
H664 C669 0.950 . S
H665 C670 0.949 . S
H666 C672 0.950 . S
H667 C673 0.950 . S
H668 C674 0.949 . S
C669 H664 0.950 . S
C669 C671 1.327 . S
C669 C675 1.429 . S
C670 C662 1.574 . S
C670 H665 0.949 . S
C670 C676 1.368 . S
C671 C655 1.349 . S
C671 H663 0.950 . S
C671 C669 1.327 . S
C672 C660 1.349 . S
C672 H666 0.950 . S
C672 C673 1.327 . S
C673 H667 0.950 . S
C673 C672 1.327 . S
C673 C677 1.429 . S
C674 C657 1.574 . S
C674 H668 0.949 . S
C674 C678 1.368 . S
C675 C656 1.429 . S
C675 C669 1.429 . S
C675 C676 1.523 . S
C676 C657 1.368 . S
C676 C670 1.368 . S
C676 C675 1.523 . S
C677 C661 1.429 . S
C677 C673 1.429 . S
C677 C678 1.523 . S
C678 C662 1.368 . S
C678 C674 1.368 . S
C678 C677 1.523 . S
H679 C654 0.950 . S
H680 C656 0.950 . S
H681 C657 0.949 . S
H682 C659 0.950 . S
H683 C661 0.950 . S
C684 C685 1.349 . S
C684 C686 1.327 . S
C684 H709 0.950 . S
C685 C684 1.349 . S
C685 C701 1.349 . S
C686 C684 1.327 . S
C686 C705 1.429 . S
C686 H710 0.950 . S
C687 C704 1.574 . S
C687 C706 1.368 . S
C687 H711 0.949 . S
H688 C692 0.949 . S
C689 C690 1.349 . S
C689 C691 1.327 . S
C689 H712 0.950 . S
C690 C689 1.349 . S
C690 C702 1.349 . S
C691 C689 1.327 . S
C691 C707 1.429 . S
C691 H713 0.950 . S
C692 H688 0.949 . S
C692 C700 1.574 . S
C692 C708 1.368 . S
H693 C701 0.950 . S
H694 C699 0.950 . S
H695 C700 0.949 . S
H696 C702 0.950 . S
H697 C703 0.950 . S
H698 C704 0.949 . S
C699 H694 0.950 . S
C699 C701 1.327 . S
C699 C705 1.429 . S
C700 C692 1.574 . S
C700 H695 0.949 . S
C700 C706 1.368 . S
C701 C685 1.349 . S
C701 H693 0.950 . S
C701 C699 1.327 . S
C702 C690 1.349 . S
C702 H696 0.950 . S
C702 C703 1.327 . S
C703 H697 0.950 . S
C703 C702 1.327 . S
C703 C707 1.429 . S
C704 C687 1.574 . S
C704 H698 0.949 . S
C704 C708 1.368 . S
C705 C686 1.429 . S
C705 C699 1.429 . S
C705 C706 1.523 . S
C706 C687 1.368 . S
C706 C700 1.368 . S
C706 C705 1.523 . S
C707 C691 1.429 . S
C707 C703 1.429 . S
C707 C708 1.523 . S
C708 C692 1.368 . S
C708 C704 1.368 . S
C708 C707 1.523 . S
H709 C684 0.950 . S
H710 C686 0.950 . S
H711 C687 0.949 . S
H712 C689 0.950 . S
H713 C691 0.950 . S
C714 C715 1.349 . S
C714 C716 1.327 . S
C714 H739 0.950 . S
C715 C714 1.349 . S
C715 C731 1.349 . S
C716 C714 1.327 . S
C716 C735 1.429 . S
C716 H740 0.950 . S
C717 C734 1.574 . S
C717 C736 1.368 . S
C717 H741 0.949 . S
H718 C722 0.949 . S
C719 C720 1.349 . S
C719 C721 1.327 . S
C719 H742 0.950 . S
C720 C719 1.349 . S
C720 C732 1.349 . S
C721 C719 1.327 . S
C721 C737 1.429 . S
C721 H743 0.950 . S
C722 H718 0.949 . S
C722 C730 1.574 . S
C722 C738 1.368 . S
H723 C731 0.950 . S
H724 C729 0.950 . S
H725 C730 0.949 . S
H726 C732 0.950 . S
H727 C733 0.950 . S
H728 C734 0.949 . S
C729 H724 0.950 . S
C729 C731 1.327 . S
C729 C735 1.429 . S
C730 C722 1.574 . S
C730 H725 0.949 . S
C730 C736 1.368 . S
C731 C715 1.349 . S
C731 H723 0.950 . S
C731 C729 1.327 . S
C732 C720 1.349 . S
C732 H726 0.950 . S
C732 C733 1.327 . S
C733 H727 0.950 . S
C733 C732 1.327 . S
C733 C737 1.429 . S
C734 C717 1.574 . S
C734 H728 0.949 . S
C734 C738 1.368 . S
C735 C716 1.429 . S
C735 C729 1.429 . S
C735 C736 1.523 . S
C736 C717 1.368 . S
C736 C730 1.368 . S
C736 C735 1.523 . S
C737 C721 1.429 . S
C737 C733 1.429 . S
C737 C738 1.523 . S
C738 C722 1.368 . S
C738 C734 1.368 . S
C738 C737 1.523 . S
H739 C714 0.950 . S
H740 C716 0.950 . S
H741 C717 0.949 . S
H742 C719 0.950 . S
H743 C721 0.950 . S
C744 C745 1.349 . S
C744 C746 1.327 . S
C744 H769 0.950 . S
C745 C744 1.349 . S
C745 C761 1.349 1_554 S
C746 C744 1.327 . S
C746 C765 1.429 . S
C746 H770 0.950 . S
C747 C764 1.574 1_655 S
C747 C766 1.368 1_556 S
C747 H771 0.949 . S
H748 C752 0.949 . S
C749 C750 1.349 1_556 S
C749 C751 1.327 . S
C749 H772 0.950 . S
C750 C749 1.349 1_554 S
C750 C762 1.349 . S
C751 C749 1.327 . S
C751 C767 1.429 1_556 S
C751 H773 0.950 . S
C752 H748 0.949 . S
C752 C760 1.574 1_455 S
C752 C768 1.368 . S
H753 C761 0.950 . S
H754 C759 0.950 . S
H755 C760 0.949 . S
H756 C762 0.950 . S
H757 C763 0.950 . S
H758 C764 0.949 . S
C759 H754 0.950 . S
C759 C761 1.327 . S
C759 C765 1.429 1_556 S
C760 C752 1.574 1_655 S
C760 H755 0.949 . S
C760 C766 1.368 . S
C761 C745 1.349 1_556 S
C761 H753 0.950 . S
C761 C759 1.327 . S
C762 C750 1.349 . S
C762 H756 0.950 . S
C762 C763 1.327 . S
C763 H757 0.950 . S
C763 C762 1.327 . S
C763 C767 1.429 . S
C764 C747 1.574 1_455 S
C764 H758 0.949 . S
C764 C768 1.368 1_556 S
C765 C746 1.429 . S
C765 C759 1.429 1_554 S
C765 C766 1.523 . S
C766 C747 1.368 1_554 S
C766 C760 1.368 . S
C766 C765 1.523 . S
C767 C751 1.429 1_554 S
C767 C763 1.429 . S
C767 C768 1.523 . S
C768 C752 1.368 . S
C768 C764 1.368 1_554 S
C768 C767 1.523 . S
H769 C744 0.950 . S
H770 C746 0.950 . S
H771 C747 0.949 . S
H772 C749 0.950 . S
H773 C751 0.950 . S
C774 C775 1.349 . S
C774 C776 1.327 . S
C774 H799 0.950 . S
C775 C774 1.349 . S
C775 C791 1.349 1_554 S
C776 C774 1.327 . S
C776 C795 1.429 . S
C776 H800 0.950 . S
C777 C794 1.574 1_545 S
C777 C796 1.368 1_556 S
C777 H801 0.949 . S
H778 C782 0.949 . S
C779 C780 1.349 1_556 S
C779 C781 1.327 . S
C779 H802 0.950 . S
C780 C779 1.349 1_554 S
C780 C792 1.349 . S
C781 C779 1.327 . S
C781 C797 1.429 1_556 S
C781 H803 0.950 . S
C782 H778 0.949 . S
C782 C790 1.574 1_565 S
C782 C798 1.368 . S
H783 C791 0.950 . S
H784 C789 0.950 . S
H785 C790 0.949 . S
H786 C792 0.950 . S
H787 C793 0.950 . S
H788 C794 0.949 . S
C789 H784 0.950 . S
C789 C791 1.327 . S
C789 C795 1.429 1_556 S
C790 C782 1.574 1_545 S
C790 H785 0.949 . S
C790 C796 1.368 . S
C791 C775 1.349 1_556 S
C791 H783 0.950 . S
C791 C789 1.327 . S
C792 C780 1.349 . S
C792 H786 0.950 . S
C792 C793 1.327 . S
C793 H787 0.950 . S
C793 C792 1.327 . S
C793 C797 1.429 . S
C794 C777 1.574 1_565 S
C794 H788 0.949 . S
C794 C798 1.368 1_556 S
C795 C776 1.429 . S
C795 C789 1.429 1_554 S
C795 C796 1.523 . S
C796 C777 1.368 1_554 S
C796 C790 1.368 . S
C796 C795 1.523 . S
C797 C781 1.429 1_554 S
C797 C793 1.429 . S
C797 C798 1.523 . S
C798 C782 1.368 . S
C798 C794 1.368 1_554 S
C798 C797 1.523 . S
H799 C774 0.950 . S
H800 C776 0.950 . S
H801 C777 0.949 . S
H802 C779 0.950 . S
H803 C781 0.950 . S
C804 C805 1.349 . S
C804 C806 1.327 . S
C804 H829 0.950 . S
C805 C804 1.349 . S
C805 C821 1.349 . S
C806 C804 1.327 . S
C806 C825 1.429 . S
C806 H830 0.950 . S
C807 C824 1.574 . S
C807 C826 1.368 1_565 S
C807 H831 0.949 . S
H808 C812 0.949 . S
C809 C810 1.349 . S
C809 C811 1.327 . S
C809 H832 0.950 . S
C810 C809 1.349 . S
C810 C822 1.349 . S
C811 C809 1.327 . S
C811 C827 1.429 . S
C811 H833 0.950 . S
C812 H808 0.949 . S
C812 C820 1.574 . S
C812 C828 1.368 1_545 S
H813 C821 0.950 . S
H814 C819 0.950 . S
H815 C820 0.949 . S
H816 C822 0.950 . S
H817 C823 0.950 . S
H818 C824 0.949 . S
C819 H814 0.950 . S
C819 C821 1.327 . S
C819 C825 1.429 . S
C820 C812 1.574 . S
C820 H815 0.949 . S
C820 C826 1.368 . S
C821 C805 1.349 . S
C821 H813 0.950 . S
C821 C819 1.327 . S
C822 C810 1.349 . S
C822 H816 0.950 . S
C822 C823 1.327 . S
C823 H817 0.950 . S
C823 C822 1.327 . S
C823 C827 1.429 . S
C824 C807 1.574 . S
C824 H818 0.949 . S
C824 C828 1.368 . S
C825 C806 1.429 . S
C825 C819 1.429 . S
C825 C826 1.523 . S
C826 C807 1.368 1_545 S
C826 C820 1.368 . S
C826 C825 1.523 . S
C827 C811 1.429 . S
C827 C823 1.429 . S
C827 C828 1.523 . S
C828 C812 1.368 1_565 S
C828 C824 1.368 . S
C828 C827 1.523 . S
H829 C804 0.950 . S
H830 C806 0.950 . S
H831 C807 0.949 . S
H832 C809 0.950 . S
H833 C811 0.950 . S
C834 C835 1.349 . S
C834 C836 1.327 . S
C834 H859 0.950 . S
C835 C834 1.349 . S
C835 C851 1.349 . S
C836 C834 1.327 . S
C836 C855 1.429 . S
C836 H860 0.950 . S
C837 C854 1.574 . S
C837 C856 1.368 1_655 S
C837 H861 0.949 . S
H838 C842 0.949 . S
C839 C840 1.349 . S
C839 C841 1.327 . S
C839 H862 0.950 . S
C840 C839 1.349 . S
C840 C852 1.349 . S
C841 C839 1.327 . S
C841 C857 1.429 . S
C841 H863 0.950 . S
C842 H838 0.949 . S
C842 C850 1.574 . S
C842 C858 1.368 1_455 S
H843 C851 0.950 . S
H844 C849 0.950 . S
H845 C850 0.949 . S
H846 C852 0.950 . S
H847 C853 0.950 . S
H848 C854 0.949 . S
C849 H844 0.950 . S
C849 C851 1.327 . S
C849 C855 1.429 . S
C850 C842 1.574 . S
C850 H845 0.949 . S
C850 C856 1.368 . S
C851 C835 1.349 . S
C851 H843 0.950 . S
C851 C849 1.327 . S
C852 C840 1.349 . S
C852 H846 0.950 . S
C852 C853 1.327 . S
C853 H847 0.950 . S
C853 C852 1.327 . S
C853 C857 1.429 . S
C854 C837 1.574 . S
C854 H848 0.949 . S
C854 C858 1.368 . S
C855 C836 1.429 . S
C855 C849 1.429 . S
C855 C856 1.523 . S
C856 C837 1.368 1_455 S
C856 C850 1.368 . S
C856 C855 1.523 . S
C857 C841 1.429 . S
C857 C853 1.429 . S
C857 C858 1.523 . S
C858 C842 1.368 1_655 S
C858 C854 1.368 . S
C858 C857 1.523 . S
H859 C834 0.950 . S
H860 C836 0.950 . S
H861 C837 0.949 . S
H862 C839 0.950 . S
H863 C841 0.950 . S
C265 C51 0.516 . S
C270 N2 0.554 . S
C295 N35 0.554 . S
C300 C84 0.516 . S
C325 N68 0.554 . S
C330 C117 0.516 . S
C355 C18 0.516 . S
C360 N101 0.554 . S
C385 C183 0.516 . S
C390 N134 0.554 . S
C415 C216 0.516 . S
C420 N167 0.554 . S
C445 N200 0.554 . S
C450 C249 0.516 . S
C475 N233 0.554 . S
C480 C150 0.516 . S
C505 C219 1.472 . S
C510 C7 1.458 . S
C535 C40 1.461 . S
C540 C252 1.469 . S
C565 C73 1.461 . S
C570 C153 1.469 . S
C595 C106 1.461 . S
C600 C186 1.469 . S
C625 C139 1.461 . S
C630 C87 1.475 . S
C655 C172 1.461 . S
C660 C120 1.475 . S
C685 C205 1.461 . S
C690 C21 1.475 . S
C715 C54 1.472 . S
C720 C238 1.465 . S
C745 N79 2.403 . S
C750 N13 2.403 . S
C775 N46 2.403 . S
C780 N112 2.403 . S
C805 N211 2.403 . S
C810 N145 2.403 . S
C835 N178 2.403 . S
C840 N244 2.403 . S
