# Generated by pormake.
# Topology uov, (4)-cn, num edge types: 1
# Building blocks:
#     Node 0, Type 0, BuildingBlock: AZAVOO_clean_sbu_0, # of connection points: 4
#     Node 1, Type 0, BuildingBlock: AZAVOO_clean_sbu_0, # of connection points: 4
#     Node 2, Type 0, BuildingBlock: AZAVOO_clean_sbu_0, # of connection points: 4
#     Node 3, Type 0, BuildingBlock: AZAVOO_clean_sbu_0, # of connection points: 4
#     Node 4, Type 0, BuildingBlock: AZAVOO_clean_sbu_0, # of connection points: 4
#     Node 5, Type 0, BuildingBlock: AZAVOO_clean_sbu_0, # of connection points: 4
#     Node 6, Type 0, BuildingBlock: AZAVOO_clean_sbu_0, # of connection points: 4
#     Node 7, Type 0, BuildingBlock: AZAVOO_clean_sbu_0, # of connection points: 4
#     Edge 8, Type (0, 0), BuildingBlock: ZUJKAS_clean_linker_0, # of connection points: 2
#     Edge 9, Type (0, 0), BuildingBlock: ZUJKAS_clean_linker_0, # of connection points: 2
#     Edge 10, Type (0, 0), BuildingBlock: ZUJKAS_clean_linker_0, # of connection points: 2
#     Edge 11, Type (0, 0), BuildingBlock: ZUJKAS_clean_linker_0, # of connection points: 2
#     Edge 12, Type (0, 0), BuildingBlock: ZUJKAS_clean_linker_0, # of connection points: 2
#     Edge 13, Type (0, 0), BuildingBlock: ZUJKAS_clean_linker_0, # of connection points: 2
#     Edge 14, Type (0, 0), BuildingBlock: ZUJKAS_clean_linker_0, # of connection points: 2
#     Edge 15, Type (0, 0), BuildingBlock: ZUJKAS_clean_linker_0, # of connection points: 2
#     Edge 16, Type (0, 0), BuildingBlock: ZUJKAS_clean_linker_0, # of connection points: 2
#     Edge 17, Type (0, 0), BuildingBlock: ZUJKAS_clean_linker_0, # of connection points: 2
#     Edge 18, Type (0, 0), BuildingBlock: ZUJKAS_clean_linker_0, # of connection points: 2
#     Edge 19, Type (0, 0), BuildingBlock: ZUJKAS_clean_linker_0, # of connection points: 2
#     Edge 20, Type (0, 0), BuildingBlock: ZUJKAS_clean_linker_0, # of connection points: 2
#     Edge 21, Type (0, 0), BuildingBlock: ZUJKAS_clean_linker_0, # of connection points: 2
#     Edge 22, Type (0, 0), BuildingBlock: ZUJKAS_clean_linker_0, # of connection points: 2
#     Edge 23, Type (0, 0), BuildingBlock: ZUJKAS_clean_linker_0, # of connection points: 2
# Relax obj value: 0.245
# Max RMSD: 0.250
# Mean RMSD: 0.233
data_MOF--net-uov--node1-AZAVOO_clean_sbu_0--edge1-ZUJKAS_clean_linker_0
_symmetry_space_group_name_H-M    P1
_symmetry_Int_Tables_number       1
_symmetry_cell_setting            triclinic
loop_
_symmetry_equiv_pos_as_xyz
'x, y, z'
_cell_length_a     38.797987
_cell_length_b     37.722051
_cell_length_c     54.910014
_cell_angle_alpha  89.93523
_cell_angle_beta   89.950602
_cell_angle_gamma 93.032585
loop_
_atom_site_label
_atom_site_type_symbol
_atom_site_fract_x
_atom_site_fract_y
_atom_site_fract_z
_atom_type_partial_charge
Mg0 Mg 0.95205 0.23127 0.62066 0.0
O1 O 0.98301 0.2323 0.58501 0.0
O2 O 0.94862 0.24873 0.55482 0.0
Mg3 Mg 0.89666 0.26091 0.57153 0.0
C4 C 0.97767 0.2389 0.56253 0.0
C5 C 0.99753 0.20037 0.65888 0.0
O6 O 0.96659 0.18551 0.66269 0.0
O7 O 0.95862 0.29148 0.62261 0.0
O8 O 0.92404 0.30735 0.59241 0.0
O9 O 0.93413 0.17606 0.61243 0.0
O10 O 0.90632 0.2229 0.60076 0.0
C11 C 0.94509 0.31527 0.60971 0.0
C12 C 0.90979 0.18911 0.59968 0.0
O13 O 0.0013 0.22363 0.64219 0.0
Mg14 Mg 0.25265 0.08433 0.36424 0.0
O15 O 0.2419 0.05092 0.39891 0.0
O16 O 0.25718 0.08416 0.43123 0.0
Mg17 Mg 0.28023 0.13713 0.41721 0.0
C18 C 0.24469 0.05524 0.42194 0.0
C19 C 0.21945 0.01311 0.34411 0.0
O20 O 0.19758 0.01914 0.36171 0.0
O21 O 0.3093 0.07495 0.36801 0.0
O22 O 0.32507 0.10716 0.40061 0.0
O23 O 0.20064 0.10479 0.36737 0.0
O24 O 0.24715 0.13021 0.38471 0.0
C25 C 0.33205 0.08601 0.38333 0.0
C26 C 0.21397 0.12808 0.38244 0.0
O27 O 0.24501 0.035 0.34061 0.0
Mg28 Mg 0.05139 0.76679 0.61709 0.0
O29 O 0.0173 0.76792 0.583 0.0
O30 O 0.04789 0.75045 0.55108 0.0
Mg31 Mg 0.101 0.7367 0.56496 0.0
C32 C 0.02011 0.7613 0.56029 0.0
C33 C 0.98824 0.80253 0.63851 0.0
O34 O -0.00075 0.82594 0.62216 0.0
O35 O 0.04351 0.70667 0.6184 0.0
O36 O 0.07499 0.69022 0.58668 0.0
O37 O 0.07081 0.82185 0.60923 0.0
O38 O 0.09535 0.77452 0.59506 0.0
C39 C 0.05534 0.68266 0.60487 0.0
C40 C 0.09337 0.80856 0.59501 0.0
O41 O 0.00395 0.77395 0.64085 0.0
Mg42 Mg 0.73764 0.92114 0.36959 0.0
O43 O 0.74976 0.95466 0.40388 0.0
O44 O 0.73033 0.92323 0.43617 0.0
Mg45 Mg 0.70695 0.87016 0.42267 0.0
C46 C 0.74497 0.95114 0.42682 0.0
C47 C 0.76209 0.96592 0.32529 0.0
O48 O 0.7699 0.93388 0.31861 0.0
O49 O 0.68144 0.93296 0.37295 0.0
O50 O 0.66336 0.90075 0.40506 0.0
O51 O 0.78855 0.89861 0.37284 0.0
O52 O 0.74134 0.8753 0.39059 0.0
C53 C 0.65776 0.92234 0.38773 0.0
C54 C 0.77452 0.87607 0.38819 0.0
O55 O 0.74767 0.96994 0.3458 0.0
Mg56 Mg 0.96253 0.23152 0.12422 0.0
O57 O 0.93177 0.21845 0.0891 0.0
O58 O 0.96336 0.23921 0.0576 0.0
Mg59 Mg 0.01456 0.26315 0.07205 0.0
C60 C 0.93608 0.22357 0.06626 0.0
C61 C 0.91467 0.2275 0.1693 0.0
O62 O 0.94049 0.24806 0.1775 0.0
O63 O 0.95194 0.29067 0.12211 0.0
O64 O 0.98662 0.30711 0.09104 0.0
O65 O 0.98808 0.1799 0.12092 0.0
O66 O 0.0086 0.23063 0.10516 0.0
C67 C 0.96544 0.31443 0.10789 0.0
C68 C 0.0113 0.19704 0.10791 0.0
O69 O 0.91491 0.21782 0.14715 0.0
Mg70 Mg 0.26126 0.08567 0.88715 0.0
O71 O 0.23351 0.03236 0.89914 0.0
O72 O 0.17876 0.04476 0.90679 0.0
Mg73 Mg 0.17056 0.10265 0.89858 0.0
C74 C 0.20289 0.02305 0.90623 0.0
C75 C 0.33636 0.0685 0.88501 0.0
O76 O 0.3349 0.09353 0.90153 0.0
O77 O 0.237 0.08317 0.84911 0.0
O78 O 0.18238 0.09389 0.8583 0.0
O79 O 0.27124 0.09566 0.92651 0.0
O80 O 0.22539 0.11319 0.90685 0.0
C81 C 0.20578 0.08738 0.84283 0.0
C82 C 0.2411 0.10875 0.92719 0.0
O83 O 0.30867 0.05763 0.87441 0.0
Mg84 Mg 0.02877 0.76461 0.1291 0.0
O85 O 0.05984 0.77891 0.09418 0.0
O86 O 0.02756 0.76082 0.06246 0.0
Mg87 Mg 0.97694 0.73486 0.07654 0.0
C88 C 0.05513 0.77571 0.07122 0.0
C89 C 0.07306 0.77069 0.17502 0.0
O90 O 0.04419 0.75495 0.18298 0.0
O91 O 0.03953 0.70578 0.12599 0.0
O92 O 0.00542 0.69018 0.09451 0.0
O93 O 0.00305 0.81633 0.12651 0.0
O94 O 0.98276 0.766 0.11015 0.0
C95 C 0.02649 0.68246 0.11133 0.0
C96 C 0.97994 0.79948 0.11329 0.0
O97 O 0.07617 0.77708 0.15238 0.0
Mg98 Mg 0.74007 0.9081 0.88694 0.0
O99 O 0.76984 0.96068 0.89805 0.0
O100 O 0.82261 0.94527 0.90878 0.0
Mg101 Mg 0.82828 0.88645 0.90244 0.0
C102 C 0.80014 0.96854 0.90636 0.0
C103 C 0.66647 0.92316 0.87968 0.0
O104 O 0.66732 0.89463 0.89338 0.0
O105 O 0.76701 0.90712 0.8498 0.0
O106 O 0.82004 0.89399 0.86154 0.0
O107 O 0.72683 0.90095 0.92618 0.0
O108 O 0.77266 0.87954 0.90862 0.0
C109 C 0.79835 0.90098 0.84496 0.0
C110 C 0.75587 0.88587 0.92824 0.0
O111 O 0.69487 0.93764 0.8722 0.0
H112 H 0.06729 0.62532 0.57632 0.0
H113 H 0.04845 0.56349 0.58326 0.0
H114 H 0.00261 0.59189 0.65162 0.0
H115 H 0.02062 0.65424 0.64455 0.0
H116 H 0.06293 0.51731 0.61937 0.0
H117 H 0.92246 0.53964 0.61752 0.0
H118 H 0.95463 0.57323 0.60826 0.0
H119 H 0.94664 0.56483 0.64005 0.0
C120 C 0.05325 0.61854 0.59288 0.0
C121 C 0.04523 0.64487 0.60979 0.0
C122 C 0.04254 0.58311 0.59683 0.0
C123 C 0.02368 0.57314 0.61777 0.0
C124 C 0.01646 0.59911 0.63507 0.0
H125 H 0.98454 0.34445 0.64693 0.0
H126 H 0.00303 0.40701 0.65247 0.0
C127 C 0.02694 0.63471 0.63104 0.0
C128 C 0.01135 0.53555 0.62104 0.0
H129 H 0.93836 0.48106 0.62424 0.0
C130 C 0.03571 0.50933 0.62063 0.0
C131 C 0.97579 0.52529 0.62248 0.0
C132 C 0.94829 0.55213 0.6219 0.0
C133 C 0.02549 0.47308 0.62092 0.0
C134 C 0.98992 0.46281 0.62227 0.0
C135 C 0.96561 0.48904 0.62339 0.0
C136 C 0.9772 0.42517 0.62021 0.0
C137 C 0.05277 0.44619 0.61859 0.0
C138 C 0.95552 0.41482 0.60077 0.0
C139 C 0.94456 0.37929 0.59772 0.0
C140 C 0.95513 0.35322 0.61404 0.0
C141 C 0.97617 0.36377 0.6339 0.0
C142 C 0.98692 0.39949 0.63703 0.0
H143 H 0.07785 0.45855 0.61228 0.0
H144 H 0.05697 0.43386 0.63662 0.0
H145 H 0.04451 0.42482 0.60563 0.0
H146 H 0.94764 0.4342 0.58759 0.0
H147 H 0.92836 0.37223 0.58224 0.0
H148 H 0.63444 0.96471 0.35144 0.0
H149 H 0.57916 0.99263 0.34943 0.0
H150 H 0.5481 0.94248 0.41716 0.0
H151 H 0.60308 0.91385 0.41918 0.0
H152 H 0.49654 0.93934 0.38259 0.0
H153 H 0.55408 0.07658 0.39148 0.0
H154 H 0.57126 0.0521 0.36664 0.0
H155 H 0.57817 0.03788 0.39744 0.0
C156 C 0.61583 0.95945 0.36589 0.0
C157 C 0.62333 0.93722 0.38558 0.0
C158 C 0.58434 0.97563 0.36477 0.0
C159 C 0.55991 0.97021 0.38341 0.0
C160 C 0.56678 0.94719 0.40268 0.0
H161 H 0.38495 0.09516 0.41612 0.0
H162 H 0.44037 0.06725 0.41553 0.0
C163 C 0.59821 0.93083 0.40378 0.0
C164 C 0.52717 0.98861 0.38289 0.0
H165 H 0.49421 0.07075 0.38246 0.0
C166 C 0.49598 0.96806 0.38259 0.0
C167 C 0.52661 0.02608 0.38326 0.0
C168 C 0.55929 0.0495 0.38496 0.0
C169 C 0.46413 0.984 0.38235 0.0
C170 C 0.46359 0.02147 0.3819 0.0
C171 C 0.49478 0.04202 0.38251 0.0
C172 C 0.43084 0.03982 0.38142 0.0
C173 C 0.43138 0.96056 0.3831 0.0
C174 C 0.40759 0.03441 0.36208 0.0
C175 C 0.37585 0.05019 0.36238 0.0
C176 C 0.36692 0.07198 0.38194 0.0
C177 C 0.39094 0.0785 0.4008 0.0
C178 C 0.42262 0.06255 0.40052 0.0
H179 H 0.43619 0.93345 0.38978 0.0
H180 H 0.41175 0.97212 0.39502 0.0
H181 H 0.42054 0.95807 0.36445 0.0
H182 H 0.41384 0.01764 0.34687 0.0
H183 H 0.35813 0.04485 0.34743 0.0
H184 H 0.96584 0.36791 0.07495 0.0
H185 H 0.97736 0.43092 0.08342 0.0
H186 H 0.97015 0.41008 0.16052 0.0
H187 H 0.95817 0.3466 0.15213 0.0
H188 H 0.94174 0.47843 0.14161 0.0
H189 H 0.0761 0.45549 0.11356 0.0
H190 H 0.044 0.43935 0.09216 0.0
H191 H 0.04549 0.41981 0.12199 0.0
C192 C 0.96559 0.37687 0.09369 0.0
C193 C 0.96146 0.35238 0.11289 0.0
C194 C 0.97238 0.4128 0.09849 0.0
C195 C 0.97547 0.42482 0.12257 0.0
C196 C 0.96814 0.4011 0.14181 0.0
H197 H 0.03647 0.64921 0.15489 0.0
H198 H 0.02902 0.58505 0.1626 0.0
C199 C 0.96103 0.36496 0.137 0.0
C200 C 0.98964 0.46132 0.12718 0.0
H201 H 0.06037 0.51604 0.11473 0.0
C202 C 0.96789 0.48666 0.1363 0.0
C203 C 0.02391 0.4717 0.12043 0.0
C204 C 0.04889 0.44512 0.1117 0.0
C205 C 0.97884 0.52274 0.13717 0.0
C206 C 0.01236 0.53337 0.12885 0.0
C207 C 0.03472 0.50771 0.1211 0.0
C208 C 0.02257 0.57114 0.12462 0.0
C209 C 0.95387 0.54959 0.14546 0.0
C210 C 0.02307 0.58407 0.10068 0.0
C211 C 0.02722 0.62042 0.09625 0.0
C212 C 0.0313 0.64445 0.11569 0.0
C213 C 0.03363 0.63124 0.13957 0.0
C214 C 0.02905 0.59472 0.14402 0.0
H215 H 0.928 0.53716 0.14984 0.0
H216 H 0.96418 0.56341 0.16195 0.0
H217 H 0.95094 0.56994 0.13108 0.0
H218 H 0.01829 0.56617 0.08549 0.0
H219 H 0.02541 0.62987 0.07768 0.0
H220 H 0.35408 0.03107 0.84442 0.0
H221 H 0.41057 0.00797 0.83512 0.0
H222 H 0.44987 0.04823 0.90379 0.0
H223 H 0.39434 0.07251 0.91262 0.0
H224 H 0.49506 0.06235 0.86858 0.0
H225 H 0.44928 0.9204 0.86303 0.0
H226 H 0.42945 0.94916 0.84175 0.0
H227 H 0.42211 0.95434 0.87387 0.0
C228 C 0.37482 0.03485 0.85751 0.0
C229 C 0.36979 0.05347 0.87928 0.0
C230 C 0.40702 0.02153 0.85223 0.0
C231 C 0.43436 0.02593 0.86891 0.0
C232 C 0.42923 0.04458 0.8906 0.0
H233 H 0.60555 0.90821 0.90264 0.0
H234 H 0.55047 0.93426 0.89554 0.0
C235 C 0.3974 0.05835 0.89567 0.0
C236 C 0.46848 0.01118 0.86429 0.0
H237 H 0.5086 0.93344 0.85759 0.0
C238 C 0.49807 0.03418 0.86598 0.0
C239 C 0.4723 0.97442 0.86091 0.0
C240 C 0.44167 0.94804 0.85998 0.0
C241 C 0.53134 0.02128 0.86575 0.0
C242 C 0.53515 0.98443 0.86284 0.0
C243 C 0.5056 0.96169 0.85977 0.0
C244 C 0.56893 0.96827 0.86599 0.0
C245 C 0.56183 0.04701 0.87017 0.0
C246 C 0.59777 0.9785 0.85161 0.0
C247 C 0.62973 0.96403 0.85598 0.0
C248 C 0.63304 0.93856 0.87442 0.0
C249 C 0.60388 0.92772 0.88826 0.0
C250 C 0.57228 0.94254 0.88417 0.0
H251 H 0.55382 0.0728 0.87743 0.0
H252 H 0.58021 0.03581 0.88323 0.0
H253 H 0.57561 0.05232 0.85273 0.0
H254 H 0.59562 0.9977 0.83709 0.0
H255 H 0.65171 0.97259 0.84487 0.0
H256 H 0.23266 0.18023 0.41543 0.0
H257 H 0.19611 0.20485 0.44696 0.0
H258 H 0.10812 0.14321 0.41906 0.0
H259 H 0.14431 0.11816 0.38778 0.0
H260 H 0.13094 0.24157 0.44341 0.0
H261 H 0.11868 0.11221 0.49191 0.0
H262 H 0.15179 0.12238 0.46945 0.0
H263 H 0.10849 0.11004 0.46 0.0
C264 C 0.20552 0.17204 0.41594 0.0
C265 C 0.19152 0.14677 0.39937 0.0
C266 C 0.18468 0.18624 0.43388 0.0
C267 C 0.14965 0.17529 0.43552 0.0
C268 C 0.13526 0.15152 0.41827 0.0
H269 H 0.97577 0.24858 0.51313 0.0
H270 H 0.02055 0.23653 0.48352 0.0
C271 C 0.15599 0.13738 0.40034 0.0
C272 C 0.12824 0.18735 0.45584 0.0
H273 H 0.08147 0.1566 0.5048 0.0
C274 C 0.1203 0.22315 0.45698 0.0
C275 C 0.11497 0.16328 0.47369 0.0
C276 C 0.1241 0.12488 0.47393 0.0
C277 C 0.09821 0.23526 0.47509 0.0
C278 C 0.08353 0.21077 0.4922 0.0
C279 C 0.09258 0.17527 0.49155 0.0
C280 C 0.05762 0.22088 0.51037 0.0
C281 C 0.09077 0.27409 0.47573 0.0
C282 C 0.06344 0.21561 0.53529 0.0
C283 C 0.03777 0.22218 0.55232 0.0
C284 C 0.00567 0.23392 0.54469 0.0
C285 C 0.00019 0.23968 0.51969 0.0
C286 C 0.02587 0.23308 0.50271 0.0
H287 H 0.1113 0.29067 0.46639 0.0
H288 H 0.06605 0.27798 0.46619 0.0
H289 H 0.08832 0.2836 0.49475 0.0
H290 H 0.08771 0.20595 0.54153 0.0
H291 H 0.04291 0.21747 0.57139 0.0
H292 H 0.2162 0.98937 0.40983 0.0
H293 H 0.19378 0.9428 0.43758 0.0
H294 H 0.22241 0.00879 0.49914 0.0
H295 H 0.24517 0.05526 0.47173 0.0
H296 H 0.23976 0.93732 0.50428 0.0
H297 H 0.10312 0.94937 0.47618 0.0
H298 H 0.133 0.94136 0.45202 0.0
H299 H 0.13674 0.98242 0.46856 0.0
C300 C 0.21784 0.99397 0.42927 0.0
C301 C 0.23229 0.02622 0.43851 0.0
C302 C 0.20491 0.96735 0.44508 0.0
C303 C 0.20609 0.97258 0.47037 0.0
C304 C 0.22123 0.00429 0.47966 0.0
H305 H 0.08704 0.87916 0.587 0.0
H306 H 0.11635 0.91662 0.55632 0.0
C307 C 0.23415 0.03088 0.46392 0.0
C308 C 0.1908 0.94555 0.48734 0.0
H309 H 0.11396 0.90609 0.50575 0.0
C310 C 0.2123 0.93023 0.50453 0.0
C311 C 0.15492 0.93674 0.48772 0.0
C312 C 0.13045 0.95347 0.4703 0.0
C313 C 0.19878 0.9066 0.52232 0.0
C314 C 0.1629 0.89783 0.5227 0.0
C315 C 0.1415 0.91277 0.50529 0.0
C316 C 0.14659 0.87492 0.54185 0.0
C317 C 0.22275 0.89219 0.54109 0.0
C318 C 0.15406 0.83904 0.54398 0.0
C319 C 0.13739 0.81749 0.56162 0.0
C320 C 0.11281 0.83145 0.57728 0.0
C321 C 0.10581 0.86753 0.57526 0.0
C322 C 0.12246 0.88898 0.55767 0.0
H323 H 0.24823 0.90708 0.54129 0.0
H324 H 0.21121 0.89326 0.55958 0.0
H325 H 0.22708 0.86401 0.53688 0.0
H326 H 0.17232 0.82758 0.53173 0.0
H327 H 0.14352 0.78989 0.5628 0.0
H328 H 0.84465 0.87947 0.39001 0.0
H329 H 0.88139 0.85346 0.42043 0.0
H330 H 0.79183 0.80322 0.45518 0.0
H331 H 0.75463 0.82874 0.42442 0.0
H332 H 0.87481 0.86779 0.47114 0.0
H333 H 0.86193 0.72336 0.45003 0.0
H334 H 0.8514 0.75697 0.42819 0.0
H335 H 0.82259 0.74624 0.453 0.0
C336 C 0.83266 0.86247 0.40387 0.0
C337 C 0.7966 0.85655 0.40495 0.0
C338 C 0.85375 0.84769 0.42127 0.0
C339 C 0.83931 0.82648 0.44001 0.0
C340 C 0.80346 0.81931 0.4407 0.0
H341 H 0.95751 0.78703 0.57232 0.0
H342 H 0.91045 0.80043 0.54473 0.0
C343 C 0.78224 0.83413 0.42322 0.0
C344 C 0.86189 0.8142 0.45963 0.0
H345 H 0.8967 0.74068 0.48369 0.0
C346 C 0.87943 0.83999 0.47404 0.0
C347 C 0.86787 0.77794 0.46319 0.0
C348 C 0.85021 0.7494 0.44774 0.0
C349 C 0.90339 0.83056 0.49167 0.0
C350 C 0.90957 0.79431 0.49518 0.0
C351 C 0.89163 0.76842 0.48103 0.0
C352 C 0.93637 0.78316 0.51228 0.0
C353 C 0.92287 0.85955 0.50574 0.0
C354 C 0.96601 0.76806 0.50321 0.0
C355 C 0.99292 0.76032 0.51887 0.0
C356 C 0.99062 0.76743 0.54396 0.0
C357 C 0.96028 0.78144 0.5531 0.0
C358 C 0.93337 0.78918 0.53737 0.0
H359 H 0.91997 0.88616 0.49752 0.0
H360 H 0.91282 0.86008 0.52465 0.0
H361 H 0.95078 0.85449 0.50662 0.0
H362 H 0.96875 0.76321 0.48387 0.0
H363 H 0.01578 0.74936 0.5112 0.0
H364 H 0.79906 -0.00063 0.41949 0.0
H365 H 0.82376 0.04242 0.44886 0.0
H366 H 0.74349 0.01154 0.50028 0.0
H367 H 0.71977 0.96735 0.47151 0.0
H368 H 0.80214 0.09895 0.47154 0.0
H369 H 0.8269 0.9959 0.54038 0.0
H370 H 0.81315 0.98495 0.50985 0.0
H371 H 0.78212 0.9966 0.53252 0.0
C372 C 0.78663 0.00192 0.43703 0.0
C373 C 0.75783 0.97967 0.44338 0.0
C374 C 0.80073 0.02652 0.45379 0.0
C375 C 0.78602 0.02956 0.47703 0.0
C376 C 0.75601 0.00882 0.4828 0.0
H377 H 0.8485 0.20231 0.57761 0.0
H378 H 0.81659 0.16466 0.54802 0.0
C379 C 0.74235 0.98374 0.46629 0.0
C380 C 0.80263 0.05367 0.49543 0.0
H381 H 0.83553 0.0557 0.55305 0.0
C382 C 0.80955 0.08952 0.48935 0.0
C383 C 0.81278 0.0412 0.51854 0.0
C384 C 0.8087 0.0025 0.52564 0.0
C385 C 0.82636 0.11323 0.50572 0.0
C386 C 0.83541 0.10099 0.52913 0.0
C387 C 0.82829 0.06519 0.53521 0.0
C388 C 0.85408 0.12409 0.54721 0.0
C389 C 0.8353 0.15074 0.49738 0.0
C390 C 0.88505 0.11325 0.55731 0.0
C391 C 0.90271 0.13416 0.57464 0.0
C392 C 0.89002 0.16662 0.58206 0.0
C393 C 0.85899 0.17753 0.57205 0.0
C394 C 0.84092 0.1562 0.55499 0.0
H395 H 0.83571 0.1528 0.47719 0.0
H396 H 0.8155 0.16842 0.50424 0.0
H397 H 0.86086 0.16051 0.50445 0.0
H398 H 0.89573 0.0886 0.55165 0.0
H399 H 0.92668 0.12513 0.58191 0.0
H400 H 0.7577 0.02448 0.91205 0.0
H401 H 0.77144 0.08051 0.93354 0.0
H402 H 0.8752 0.04866 0.94568 0.0
H403 H 0.86231 0.99395 0.92376 0.0
H404 H 0.78851 0.08952 0.97979 0.0
H405 H 0.89552 0.14846 0.92516 0.0
H406 H 0.86789 0.1121 0.91396 0.0
H407 H 0.90492 0.1038 0.9326 0.0
C408 C 0.78369 0.0299 0.91874 0.0
C409 C 0.80888 0.00463 0.91608 0.0
C410 C 0.79146 0.06186 0.93113 0.0
C411 C 0.82455 0.06916 0.94091 0.0
C412 C 0.84981 0.04431 0.93771 0.0
H413 H 0.89621 0.16239 0.07156 0.0
H414 H 0.86262 0.13087 0.04008 0.0
C415 C 0.84222 0.0127 0.92528 0.0
C416 C 0.83243 0.10084 0.95644 0.0
H417 H 0.89738 0.16258 0.96864 0.0
C418 C 0.81189 0.10613 0.97707 0.0
C419 C 0.86232 0.12332 0.95266 0.0
C420 C 0.88361 0.12184 0.92971 0.0
C421 C 0.82197 0.13125 0.99494 0.0
C422 C 0.85409 0.15065 0.99256 0.0
C423 C 0.87311 0.14734 0.97094 0.0
C424 C 0.87004 0.17217 0.01278 0.0
C425 C 0.79815 0.1363 0.01623 0.0
C426 C 0.88592 0.20587 0.0081 0.0
C427 C 0.90618 0.22338 0.0259 0.0
C428 C 0.91043 0.2079 0.04891 0.0
C429 C 0.89297 0.17521 0.05411 0.0
C430 C 0.87346 0.15727 0.0361 0.0
H431 H 0.77073 0.13207 0.01062 0.0
H432 H 0.80312 0.1163 0.03047 0.0
H433 H 0.80189 0.16325 0.02423 0.0
H434 H 0.88379 0.21805 0.99033 0.0
H435 H 0.91932 0.24861 0.02142 0.0
H436 H 0.2569 0.08084 0.97162 0.0
H437 H 0.22191 0.08167 0.00887 0.0
H438 H 0.14878 0.14542 0.97222 0.0
H439 H 0.18331 0.14468 0.93514 0.0
H440 H 0.20098 0.13838 0.03669 0.0
H441 H 0.08801 0.06212 -0.00097 0.0
H442 H 0.13008 0.0629 0.98484 0.0
H443 H 0.10149 0.09813 0.97926 0.0
C444 C 0.2335 0.09528 0.97161 0.0
C445 C 0.22258 0.11239 0.95041 0.0
C446 C 0.21349 0.0955 0.99281 0.0
C447 C 0.18232 0.1127 0.993 0.0
C448 C 0.17221 0.13101 0.97217 0.0
H449 H 0.06669 0.22792 0.0845 0.0
H450 H 0.11073 0.19919 0.06152 0.0
C451 C 0.19207 0.13077 0.95105 0.0
C452 C 0.16052 0.11299 0.01504 0.0
H453 H 0.07629 0.10217 0.03238 0.0
C454 C 0.1739 0.12968 0.03604 0.0
C455 C 0.12551 0.10056 0.01448 0.0
C456 C 0.11054 0.07955 0.99327 0.0
C457 C 0.15225 0.13755 0.05554 0.0
C458 C 0.11636 0.1292 0.05358 0.0
C459 C 0.10371 0.10919 0.03369 0.0
C460 C 0.09116 0.14565 0.06969 0.0
C461 C 0.16782 0.15606 0.07757 0.0
C462 C 0.06486 0.12513 0.08146 0.0
C463 C 0.03903 0.14166 0.09437 0.0
C464 C 0.03902 0.1789 0.09539 0.0
C465 C 0.06572 0.1992 0.0839 0.0
C466 C 0.09133 0.18277 0.07106 0.0
H467 H 0.19451 0.1478 0.08081 0.0
H468 H 0.16936 0.18514 0.07434 0.0
H469 H 0.15215 0.15039 0.09419 0.0
H470 H 0.06404 0.09643 0.08033 0.0
H471 H 0.01876 0.12535 0.10308 0.0
H472 H 0.05417 0.77344 0.02143 0.0
H473 H 0.09124 0.80754 0.99322 0.0
H474 H 0.15151 0.85024 0.05336 0.0
H475 H 0.11399 0.81655 0.08195 0.0
H476 H 0.12942 0.90162 0.02433 0.0
H477 H 0.18764 0.80088 0.9666 0.0
H478 H 0.14166 0.79362 0.96837 0.0
H479 H 0.16736 0.78996 0.99547 0.0
C480 C 0.07567 0.78951 0.02874 0.0
C481 C 0.08087 0.79237 0.05406 0.0
C482 C 0.09712 0.80879 0.01248 0.0
C483 C 0.12451 0.83112 0.02108 0.0
C484 C 0.13068 0.83297 0.04628 0.0
H485 H 0.24887 0.97896 0.92698 0.0
H486 H 0.23452 0.92886 0.95447 0.0
C487 C 0.10918 0.81367 0.06261 0.0
C488 C 0.14356 0.85574 0.00402 0.0
H489 H 0.18478 0.85968 0.94889 0.0
C490 C 0.14214 0.89236 0.00812 0.0
C491 C 0.16039 0.84379 0.98288 0.0
C492 C 0.16469 0.80489 0.97819 0.0
C493 C 0.15527 0.91723 0.99103 0.0
C494 C 0.16988 0.9052 0.96915 0.0
C495 C 0.17314 0.86874 0.96558 0.0
C496 C 0.17939 0.93045 0.94931 0.0
C497 C 0.15242 0.95629 0.99612 0.0
C498 C 0.15321 0.94667 0.93655 0.0
C499 C 0.16123 0.97508 0.92091 0.0
C500 C 0.19567 0.98783 0.91767 0.0
C501 C 0.22212 0.96966 0.92898 0.0
C502 C 0.21399 0.94116 0.94477 0.0
H503 H 0.14744 0.96143 0.0157 0.0
H504 H 0.17638 0.9716 0.99055 0.0
H505 H 0.13071 0.9663 0.9854 0.0
H506 H 0.12636 0.93854 0.93971 0.0
H507 H 0.14026 0.98828 0.91237 0.0
H508 H 0.80796 0.84351 0.93921 0.0
H509 H 0.84052 0.84186 0.97712 0.0
H510 H 0.77501 0.91836 0.0089 0.0
H511 H 0.7418 0.91977 0.9709 0.0
H512 H 0.87635 0.90111 0.99815 0.0
H513 H 0.77728 0.83937 0.06088 0.0
H514 H 0.7726 0.83725 0.02821 0.0
H515 H 0.76624 0.87802 0.04395 0.0
C516 C 0.80021 0.85968 0.95434 0.0
C517 C 0.77242 0.88179 0.95213 0.0
C518 C 0.81887 0.85879 0.97595 0.0
C519 C 0.81017 0.88003 0.99575 0.0
C520 C 0.78185 0.9015 0.99389 0.0
H521 H 0.97283 0.87133 0.10836 0.0
H522 H 0.92887 0.90038 0.08433 0.0
C523 C 0.76292 0.90221 0.97223 0.0
C524 C 0.83189 0.87995 0.01782 0.0
H525 H 0.83383 0.84714 0.07563 0.0
C526 C 0.86706 0.88998 0.01532 0.0
C527 C 0.81941 0.86569 0.04013 0.0
C528 C 0.78188 0.85424 0.04361 0.0
C529 C 0.89069 0.88341 0.03385 0.0
C530 C 0.87854 0.86709 0.05565 0.0
C531 C 0.84295 0.85974 0.05889 0.0
C532 C 0.90253 0.85115 0.0729 0.0
C533 C 0.92868 0.89127 0.02914 0.0
C534 C 0.90138 0.81411 0.07514 0.0
C535 C 0.92604 0.79765 0.08886 0.0
C536 C 0.95257 0.81785 0.10056 0.0
C537 C 0.95288 0.8551 0.09929 0.0
C538 C 0.92791 0.87169 0.08554 0.0
H539 H 0.93394 0.89968 0.01004 0.0
H540 H 0.93841 0.91296 0.04135 0.0
H541 H 0.94347 0.86751 0.03305 0.0
H542 H 0.882 0.79777 0.06556 0.0
H543 H 0.92459 0.76894 0.08989 0.0
H544 H 0.99603 0.15362 0.69663 0.0
H545 H 0.04458 0.13206 0.71932 0.0
H546 H 0.11527 0.19729 0.6756 0.0
H547 H 0.06643 0.21958 0.65281 0.0
H548 H 0.10157 0.09595 0.70149 0.0
H549 H 0.14194 0.22431 0.74605 0.0
H550 H 0.1005 0.21743 0.73141 0.0
H551 H 0.13891 0.2237 0.71336 0.0
C552 C 0.02184 0.16359 0.69183 0.0
C553 C 0.02733 0.18848 0.67297 0.0
C554 C 0.0496 0.15109 0.70477 0.0
C555 C 0.0835 0.16316 0.69921 0.0
C556 C 0.08926 0.18795 0.68036 0.0
H557 H 0.24482 0.11329 0.80455 0.0
H558 H 0.22334 0.12794 0.76382 0.0
C559 C 0.06135 0.20063 0.66737 0.0
C560 C 0.11225 0.14968 0.7137 0.0
H561 H 0.16785 0.17335 0.75969 0.0
C562 C 0.11662 0.11296 0.71388 0.0
C563 C 0.13212 0.17196 0.72963 0.0
C564 C 0.1282 0.21154 0.73034 0.0
C565 C 0.13861 0.09766 0.73071 0.0
C566 C 0.15635 0.11961 0.74792 0.0
C567 C 0.15418 0.15659 0.74644 0.0
C568 C 0.17188 0.10476 0.77008 0.0
C569 C 0.14149 0.05796 0.73065 0.0
C570 C 0.1503 0.08623 0.78679 0.0
C571 C 0.16232 0.07825 0.80996 0.0
C572 C 0.19624 0.08845 0.81685 0.0
C573 C 0.21867 0.10479 0.79958 0.0
C574 C 0.20641 0.1133 0.7764 0.0
H575 H 0.13679 0.04677 0.71217 0.0
H576 H 0.16732 0.05057 0.73702 0.0
H577 H 0.12169 0.04563 0.74307 0.0
H578 H 0.12341 0.07999 0.7825 0.0
H579 H 0.14449 0.06569 0.82294 0.0
H580 H 0.13493 0.80609 0.16493 0.0
H581 H 0.17242 0.83937 0.19359 0.0
H582 H 0.10596 0.80453 0.25294 0.0
H583 H 0.06901 0.77057 0.22462 0.0
H584 H 0.15081 0.89391 0.21897 0.0
H585 H 0.19877 0.79613 0.28392 0.0
H586 H 0.1799 0.78324 0.25499 0.0
H587 H 0.15278 0.79121 0.28086 0.0
C588 C 0.1288 0.80478 0.18417 0.0
C589 C 0.09883 0.7859 0.19248 0.0
C590 C 0.15026 0.8238 0.20052 0.0
C591 C 0.14221 0.8242 0.22546 0.0
C592 C 0.11323 0.80397 0.2339 0.0
H593 H 0.16807 0.96089 0.34709 0.0
H594 H 0.15482 0.91322 0.31788 0.0
C595 C 0.09191 0.78477 0.21761 0.0
C596 C 0.16097 0.84946 0.24207 0.0
H597 H 0.19764 0.85674 0.2985 0.0
C598 C 0.16175 0.8857 0.23612 0.0
C599 C 0.17511 0.83875 0.26449 0.0
C600 C 0.17692 0.80015 0.27131 0.0
C601 C 0.17458 0.91163 0.25249 0.0
C602 C 0.18728 0.90099 0.27533 0.0
C603 C 0.18772 0.86474 0.28098 0.0
C604 C 0.19785 0.92741 0.2941 0.0
C605 C 0.17289 0.95032 0.24575 0.0
C606 C 0.22689 0.95057 0.29062 0.0
C607 C 0.23452 0.9779 0.30724 0.0
C608 C 0.21317 0.98248 0.3276 0.0
C609 C 0.18488 0.95827 0.33151 0.0
C610 C 0.17735 0.93093 0.31491 0.0
H611 H 0.15728 0.95413 0.22909 0.0
H612 H 0.16167 0.96541 0.26091 0.0
H613 H 0.19939 0.96178 0.24234 0.0
H614 H 0.24318 0.948 0.27475 0.0
H615 H 0.25665 0.99594 0.30379 0.0
H616 H 0.95076 0.757 0.66847 0.0
H617 H 0.90772 0.77227 0.69878 0.0
H618 H 0.92077 0.88248 0.67787 0.0
H619 H 0.96247 0.86719 0.64693 0.0
H620 H 0.91921 0.81045 0.73679 0.0
H621 H 0.81878 0.87516 0.68445 0.0
H622 H 0.8514 0.85015 0.66988 0.0
H623 H 0.86037 0.896 0.67807 0.0
C624 C 0.94392 0.78437 0.67003 0.0
C625 C 0.96005 0.8109 0.65535 0.0
C626 C 0.91927 0.79308 0.68733 0.0
C627 C 0.91052 0.82849 0.69043 0.0
C628 C 0.92614 0.85485 0.67539 0.0
H629 H 0.86177 0.91974 0.82707 0.0
H630 H 0.88536 0.90343 0.78765 0.0
C631 C 0.95032 0.84609 0.65783 0.0
C632 C 0.88846 0.83848 0.71121 0.0
H633 H 0.82233 0.89012 0.72743 0.0
C634 C 0.89768 0.82739 0.73461 0.0
C635 C 0.85999 0.86021 0.7085 0.0
C636 C 0.84685 0.8707 0.68381 0.0
C637 C 0.88034 0.83859 0.75536 0.0
C638 C 0.85376 0.86262 0.75279 0.0
C639 C 0.84327 0.87238 0.72939 0.0
C640 C 0.83755 0.87833 0.77442 0.0
C641 C 0.89083 0.8246 0.77989 0.0
C642 C 0.80219 0.87207 0.77925 0.0
C643 C 0.7884 0.88215 0.80166 0.0
C644 C 0.80997 0.89828 0.81948 0.0
C645 C 0.84469 0.90696 0.81375 0.0
C646 C 0.85823 0.89745 0.79132 0.0
H647 H 0.90328 0.79886 0.77816 0.0
H648 H 0.9098 0.84384 0.7884 0.0
H649 H 0.86827 0.82087 0.79226 0.0
H650 H 0.78573 0.85764 0.76632 0.0
H651 H 0.76158 0.87507 0.80568 0.0
H652 H 0.79748 0.9665 0.28232 0.0
H653 H 0.81667 0.01808 0.25795 0.0
H654 H 0.768 0.08715 0.30848 0.0
H655 H 0.74859 0.03561 0.33312 0.0
H656 H 0.75783 0.10083 0.25494 0.0
H657 H 0.89426 0.09142 0.28388 0.0
H658 H 0.87347 0.05065 0.27316 0.0
H659 H 0.85849 0.07067 0.30061 0.0
C660 C 0.79063 0.9926 0.28822 0.0
C661 C 0.77175 0.99697 0.30978 0.0
C662 C 0.80166 0.02202 0.27429 0.0
C663 C 0.79399 0.05631 0.2816 0.0
C664 C 0.77419 0.06081 0.30263 0.0
H665 H 0.91056 0.23735 0.21853 0.0
H666 H 0.87612 0.20132 0.24756 0.0
C667 C 0.76324 0.03137 0.31668 0.0
C668 C 0.80797 0.08739 0.26769 0.0
H669 H 0.88393 0.12993 0.25079 0.0
C670 C 0.78535 0.10754 0.25418 0.0
C671 C 0.84378 0.09629 0.2671 0.0
C672 C 0.86898 0.07638 0.28211 0.0
C673 C 0.7979 0.13555 0.23917 0.0
C674 C 0.83392 0.14322 0.23759 0.0
C675 C 0.85631 0.12397 0.25195 0.0
C676 C 0.84949 0.16931 0.22006 0.0
C677 C 0.77259 0.15649 0.22503 0.0
C678 C 0.84526 0.16387 0.19494 0.0
C679 C 0.86489 0.18442 0.17828 0.0
C680 C 0.88937 0.21056 0.18648 0.0
C681 C 0.89205 0.21734 0.2116 0.0
C682 C 0.87239 0.19679 0.22824 0.0
H683 H 0.74667 0.15497 0.23371 0.0
H684 H 0.78168 0.18481 0.22343 0.0
H685 H 0.76983 0.14531 0.20641 0.0
H686 H 0.82824 0.14239 0.18822 0.0
H687 H 0.86216 0.17851 0.15906 0.0
loop_
_geom_bond_atom_site_label_1
_geom_bond_atom_site_label_2
_geom_bond_distance
_geom_bond_site_symmetry_2
_ccdc_geom_bond_type
Mg0 O1 2.028 . S
Mg0 O7 1.986 . S
Mg0 O9 2.114 1_455 S
Mg0 O10 2.251 1_455 S
Mg0 O13 2.010 . S
O1 Mg0 2.028 . S
O1 C4 1.250 . S
O2 Mg3 2.028 . S
O2 C4 1.248 . S
Mg3 O2 2.028 . S
Mg3 O8 2.032 . S
Mg3 O10 2.079 1_455 S
C4 O1 1.250 . S
C4 O2 1.248 . S
C5 O6 1.264 . S
C5 O13 1.249 . S
O6 C5 1.264 . S
O7 Mg0 1.986 . S
O7 C11 1.246 . S
O8 Mg3 2.032 . S
O8 C11 1.259 . S
O9 Mg0 2.114 1_655 S
O9 C12 1.252 . S
O10 Mg0 2.251 1_655 S
O10 Mg3 2.079 1_655 S
O10 C12 1.273 . S
C11 O7 1.246 . S
C11 O8 1.259 . S
C12 O9 1.252 . S
C12 O10 1.273 . S
O13 Mg0 2.010 . S
O13 C5 1.249 . S
Mg14 O15 2.028 . S
Mg14 O21 1.986 . S
Mg14 O23 2.114 1_565 S
Mg14 O24 2.251 1_565 S
Mg14 O27 2.010 . S
O15 Mg14 2.028 . S
O15 C18 1.250 . S
O16 Mg17 2.028 1_565 S
O16 C18 1.248 . S
Mg17 O16 2.028 1_545 S
Mg17 O22 2.032 1_545 S
Mg17 O24 2.079 . S
C18 O15 1.250 . S
C18 O16 1.248 . S
C19 O20 1.264 . S
C19 O27 1.249 . S
O20 C19 1.264 . S
O21 Mg14 1.986 . S
O21 C25 1.246 . S
O22 Mg17 2.032 1_565 S
O22 C25 1.259 . S
O23 Mg14 2.114 1_545 S
O23 C26 1.252 . S
O24 Mg14 2.251 1_545 S
O24 Mg17 2.079 . S
O24 C26 1.273 . S
C25 O21 1.246 . S
C25 O22 1.259 . S
C26 O23 1.252 . S
C26 O24 1.273 . S
O27 Mg14 2.010 . S
O27 C19 1.249 . S
Mg28 O29 2.028 . S
Mg28 O35 1.986 . S
Mg28 O37 2.114 1_655 S
Mg28 O38 2.251 1_655 S
Mg28 O41 2.010 . S
O29 Mg28 2.028 . S
O29 C32 1.250 . S
O30 Mg31 2.028 . S
O30 C32 1.248 . S
Mg31 O30 2.028 . S
Mg31 O36 2.032 . S
Mg31 O38 2.079 1_655 S
C32 O29 1.250 . S
C32 O30 1.248 . S
C33 O34 1.264 . S
C33 O41 1.249 . S
O34 C33 1.264 . S
O35 Mg28 1.986 . S
O35 C39 1.246 . S
O36 Mg31 2.032 . S
O36 C39 1.259 . S
O37 Mg28 2.114 1_455 S
O37 C40 1.252 . S
O38 Mg28 2.251 1_455 S
O38 Mg31 2.079 1_455 S
O38 C40 1.273 . S
C39 O35 1.246 . S
C39 O36 1.259 . S
C40 O37 1.252 . S
C40 O38 1.273 . S
O41 Mg28 2.010 . S
O41 C33 1.249 . S
Mg42 O43 2.028 . S
Mg42 O49 1.986 . S
Mg42 O51 2.114 1_545 S
Mg42 O52 2.251 1_545 S
Mg42 O55 2.010 . S
O43 Mg42 2.028 . S
O43 C46 1.250 . S
O44 Mg45 2.028 1_545 S
O44 C46 1.248 . S
Mg45 O44 2.028 1_565 S
Mg45 O50 2.032 1_565 S
Mg45 O52 2.079 . S
C46 O43 1.250 . S
C46 O44 1.248 . S
C47 O48 1.264 . S
C47 O55 1.249 . S
O48 C47 1.264 . S
O49 Mg42 1.986 . S
O49 C53 1.246 . S
O50 Mg45 2.032 1_545 S
O50 C53 1.259 . S
O51 Mg42 2.114 1_565 S
O51 C54 1.252 . S
O52 Mg42 2.251 1_565 S
O52 Mg45 2.079 . S
O52 C54 1.273 . S
C53 O49 1.246 . S
C53 O50 1.259 . S
C54 O51 1.252 . S
C54 O52 1.273 . S
O55 Mg42 2.010 . S
O55 C47 1.249 . S
Mg56 O57 2.028 . S
Mg56 O63 1.986 . S
Mg56 O65 2.114 1_655 S
Mg56 O66 2.251 1_655 S
Mg56 O69 2.010 . S
O57 Mg56 2.028 . S
O57 C60 1.250 . S
O58 Mg59 2.028 . S
O58 C60 1.248 . S
Mg59 O58 2.028 . S
Mg59 O64 2.032 . S
Mg59 O66 2.079 1_655 S
C60 O57 1.250 . S
C60 O58 1.248 . S
C61 O62 1.264 . S
C61 O69 1.249 . S
O62 C61 1.264 . S
O63 Mg56 1.986 . S
O63 C67 1.246 . S
O64 Mg59 2.032 . S
O64 C67 1.259 . S
O65 Mg56 2.114 1_455 S
O65 C68 1.252 . S
O66 Mg56 2.251 1_455 S
O66 Mg59 2.079 1_455 S
O66 C68 1.273 . S
C67 O63 1.246 . S
C67 O64 1.259 . S
C68 O65 1.252 . S
C68 O66 1.273 . S
O69 Mg56 2.010 . S
O69 C61 1.249 . S
Mg70 O71 2.028 . S
Mg70 O77 1.986 . S
Mg70 O79 2.114 . S
Mg70 O80 2.251 . S
Mg70 O83 2.010 . S
O71 Mg70 2.028 . S
O71 C74 1.250 1_545 S
O72 Mg73 2.015 1_565 S
O72 C74 1.254 . S
Mg73 O72 2.015 1_545 S
Mg73 O78 2.032 . S
Mg73 O80 2.079 . S
C74 O71 1.250 1_565 S
C74 O72 1.254 . S
C75 O76 1.264 . S
C75 O83 1.249 . S
O76 C75 1.264 . S
O77 Mg70 1.986 . S
O77 C81 1.246 . S
O78 Mg73 2.032 . S
O78 C81 1.259 . S
O79 Mg70 2.114 . S
O79 C82 1.252 . S
O80 Mg70 2.251 . S
O80 Mg73 2.079 . S
O80 C82 1.273 . S
C81 O77 1.246 . S
C81 O78 1.259 . S
C82 O79 1.252 . S
C82 O80 1.273 . S
O83 Mg70 2.010 . S
O83 C75 1.249 . S
Mg84 O85 2.028 . S
Mg84 O91 1.986 . S
Mg84 O93 2.114 1_455 S
Mg84 O94 2.251 1_455 S
Mg84 O97 2.010 . S
O85 Mg84 2.028 . S
O85 C88 1.250 . S
O86 Mg87 2.028 . S
O86 C88 1.248 . S
Mg87 O86 2.028 . S
Mg87 O92 2.032 . S
Mg87 O94 2.079 1_455 S
C88 O85 1.250 . S
C88 O86 1.248 . S
C89 O90 1.264 . S
C89 O97 1.249 . S
O90 C89 1.264 . S
O91 Mg84 1.986 . S
O91 C95 1.246 . S
O92 Mg87 2.032 . S
O92 C95 1.259 . S
O93 Mg84 2.114 1_655 S
O93 C96 1.252 . S
O94 Mg84 2.251 1_655 S
O94 Mg87 2.079 1_655 S
O94 C96 1.273 . S
C95 O91 1.246 . S
C95 O92 1.259 . S
C96 O93 1.252 . S
C96 O94 1.273 . S
O97 Mg84 2.010 . S
O97 C89 1.249 . S
Mg98 O99 2.028 . S
Mg98 O105 1.986 . S
Mg98 O107 2.114 . S
Mg98 O108 2.251 . S
Mg98 O111 2.010 . S
O99 Mg98 2.028 . S
O99 C102 1.250 1_565 S
O100 Mg101 2.015 1_545 S
O100 C102 1.254 . S
Mg101 O100 2.015 1_565 S
Mg101 O106 2.032 . S
Mg101 O108 2.079 . S
C102 O99 1.250 1_545 S
C102 O100 1.254 . S
C103 O104 1.264 . S
C103 O111 1.249 . S
O104 C103 1.264 . S
O105 Mg98 1.986 . S
O105 C109 1.246 . S
O106 Mg101 2.032 . S
O106 C109 1.259 . S
O107 Mg98 2.114 . S
O107 C110 1.252 . S
O108 Mg98 2.251 . S
O108 Mg101 2.079 . S
O108 C110 1.273 . S
C109 O105 1.246 . S
C109 O106 1.259 . S
C110 O107 1.252 . S
C110 O108 1.273 . S
O111 Mg98 2.010 . S
O111 C103 1.249 . S
H112 C120 0.929 . S
H113 C122 0.930 1_455 S
H114 C124 0.930 . S
H115 C127 0.929 . S
H116 C130 0.930 . S
H117 C132 0.960 . S
H118 C132 0.960 . S
H119 C132 0.960 . S
C120 H112 0.929 . S
C120 C121 1.377 . S
C120 C122 1.384 . S
C121 C120 1.377 . S
C121 C127 1.390 . S
C122 H113 0.930 1_655 S
C122 C120 1.384 . S
C122 C123 1.372 . S
C123 C122 1.372 . S
C123 C124 1.400 . S
C123 C128 1.490 . S
C124 H114 0.930 . S
C124 C123 1.400 . S
C124 C127 1.386 . S
H125 C141 0.930 . S
H126 C142 0.931 . S
C127 H115 0.929 . S
C127 C121 1.390 . S
C127 C124 1.386 . S
C128 C123 1.490 . S
C128 C130 1.395 1_655 S
C128 C131 1.403 . S
H129 C135 0.930 . S
C130 H116 0.930 . S
C130 C128 1.395 1_455 S
C130 C133 1.403 . S
C131 C128 1.403 . S
C131 C132 1.524 . S
C131 C135 1.400 . S
C132 H117 0.960 . S
C132 H118 0.960 . S
C132 H119 0.960 . S
C132 C131 1.524 . S
C133 C130 1.403 . S
C133 C134 1.392 . S
C133 C137 1.495 . S
C134 C133 1.392 . S
C134 C135 1.385 1_455 S
C134 C136 1.478 . S
C135 H129 0.930 . S
C135 C131 1.400 . S
C135 C134 1.385 1_655 S
C136 C134 1.478 . S
C136 C138 1.381 . S
C136 C142 1.383 . S
C137 C133 1.495 . S
C137 H143 0.959 . S
C137 H144 0.961 . S
C137 H145 0.960 . S
C138 C136 1.381 . S
C138 C139 1.394 . S
C138 H146 0.930 . S
C139 C138 1.394 . S
C139 C140 1.383 . S
C139 H147 0.929 . S
C140 C139 1.383 . S
C140 C141 1.377 . S
C141 H125 0.930 . S
C141 C140 1.377 . S
C141 C142 1.379 . S
C142 H126 0.931 . S
C142 C136 1.383 . S
C142 C141 1.379 . S
H143 C137 0.959 . S
H144 C137 0.961 . S
H145 C137 0.960 . S
H146 C138 0.930 . S
H147 C139 0.929 . S
H148 C156 0.937 . S
H149 C158 0.930 . S
H150 C160 0.930 . S
H151 C163 0.929 . S
H152 C166 0.930 . S
H153 C168 0.960 . S
H154 C168 0.960 . S
H155 C168 0.960 . S
C156 H148 0.937 . S
C156 C157 1.369 1_565 S
C156 C158 1.385 . S
C157 C156 1.369 1_545 S
C157 C163 1.390 . S
C158 H149 0.930 . S
C158 C156 1.385 . S
C158 C159 1.372 1_565 S
C159 C158 1.372 1_545 S
C159 C160 1.400 . S
C159 C164 1.490 . S
C160 H150 0.930 . S
C160 C159 1.400 . S
C160 C163 1.386 . S
H161 C177 0.930 1_545 S
H162 C178 0.931 1_545 S
C163 H151 0.929 . S
C163 C157 1.390 . S
C163 C160 1.386 . S
C164 C159 1.490 . S
C164 C166 1.395 1_545 S
C164 C167 1.403 . S
H165 C171 0.930 . S
C166 H152 0.930 . S
C166 C164 1.395 1_565 S
C166 C169 1.403 . S
C167 C164 1.403 . S
C167 C168 1.524 . S
C167 C171 1.400 . S
C168 H153 0.960 . S
C168 H154 0.960 . S
C168 H155 0.960 . S
C168 C167 1.524 . S
C169 C166 1.403 . S
C169 C170 1.392 . S
C169 C173 1.495 . S
C170 C169 1.392 . S
C170 C171 1.385 1_565 S
C170 C172 1.478 . S
C171 H165 0.930 . S
C171 C167 1.400 . S
C171 C170 1.385 1_545 S
C172 C170 1.478 . S
C172 C174 1.381 . S
C172 C178 1.383 . S
C173 C169 1.495 . S
C173 H179 0.959 . S
C173 H180 0.961 . S
C173 H181 0.960 . S
C174 C172 1.381 . S
C174 C175 1.394 . S
C174 H182 0.930 . S
C175 C174 1.394 . S
C175 C176 1.383 . S
C175 H183 0.929 . S
C176 C175 1.383 . S
C176 C177 1.377 . S
C177 H161 0.930 1_565 S
C177 C176 1.377 . S
C177 C178 1.379 . S
C178 H162 0.931 1_565 S
C178 C172 1.383 . S
C178 C177 1.379 . S
H179 C173 0.959 . S
H180 C173 0.961 . S
H181 C173 0.960 . S
H182 C174 0.930 . S
H183 C175 0.929 . S
H184 C192 0.929 . S
H185 C194 0.930 . S
H186 C196 0.930 . S
H187 C199 0.929 1_455 S
H188 C202 0.930 . S
H189 C204 0.960 . S
H190 C204 0.960 . S
H191 C204 0.960 . S
C192 H184 0.929 . S
C192 C193 1.377 . S
C192 C194 1.384 . S
C193 C192 1.377 . S
C193 C199 1.390 . S
C194 H185 0.930 . S
C194 C192 1.384 . S
C194 C195 1.372 . S
C195 C194 1.372 . S
C195 C196 1.400 1_655 S
C195 C200 1.490 . S
C196 H186 0.930 . S
C196 C195 1.400 1_455 S
C196 C199 1.386 1_455 S
H197 C213 0.930 . S
H198 C214 0.931 . S
C199 H187 0.929 1_655 S
C199 C193 1.390 . S
C199 C196 1.386 1_655 S
C200 C195 1.490 . S
C200 C202 1.395 . S
C200 C203 1.403 1_655 S
H201 C207 0.930 . S
C202 H188 0.930 . S
C202 C200 1.395 . S
C202 C205 1.403 . S
C203 C200 1.403 1_455 S
C203 C204 1.524 . S
C203 C207 1.400 . S
C204 H189 0.960 . S
C204 H190 0.960 . S
C204 H191 0.960 . S
C204 C203 1.524 . S
C205 C202 1.403 . S
C205 C206 1.392 1_655 S
C205 C209 1.495 . S
C206 C205 1.392 1_455 S
C206 C207 1.385 . S
C206 C208 1.478 . S
C207 H201 0.930 . S
C207 C203 1.400 . S
C207 C206 1.385 . S
C208 C206 1.478 . S
C208 C210 1.381 1_455 S
C208 C214 1.383 . S
C209 C205 1.495 . S
C209 H215 0.959 . S
C209 H216 0.961 . S
C209 H217 0.960 . S
C210 C208 1.381 1_655 S
C210 C211 1.394 1_655 S
C210 H218 0.930 . S
C211 C210 1.394 1_455 S
C211 C212 1.383 . S
C211 H219 0.929 1_455 S
C212 C211 1.383 . S
C212 C213 1.377 . S
C213 H197 0.930 . S
C213 C212 1.377 . S
C213 C214 1.379 . S
C214 H198 0.931 . S
C214 C208 1.383 . S
C214 C213 1.379 . S
H215 C209 0.959 . S
H216 C209 0.961 . S
H217 C209 0.960 . S
H218 C210 0.930 . S
H219 C211 0.929 1_655 S
H220 C228 0.929 . S
H221 C230 0.930 . S
H222 C232 0.930 1_565 S
H223 C235 0.929 . S
H224 C238 0.930 . S
H225 C240 0.960 . S
H226 C240 0.960 . S
H227 C240 0.960 . S
C228 H220 0.929 . S
C228 C229 1.377 . S
C228 C230 1.384 . S
C229 C228 1.377 . S
C229 C235 1.390 . S
C230 H221 0.930 . S
C230 C228 1.384 . S
C230 C231 1.372 . S
C231 C230 1.372 . S
C231 C232 1.400 . S
C231 C236 1.490 . S
C232 H222 0.930 1_545 S
C232 C231 1.400 . S
C232 C235 1.386 . S
H233 C249 0.930 . S
H234 C250 0.931 . S
C235 H223 0.929 . S
C235 C229 1.390 . S
C235 C232 1.386 . S
C236 C231 1.490 . S
C236 C238 1.395 . S
C236 C239 1.403 1_545 S
H237 C243 0.930 . S
C238 H224 0.930 . S
C238 C236 1.395 . S
C238 C241 1.403 . S
C239 C236 1.403 1_565 S
C239 C240 1.524 . S
C239 C243 1.400 . S
C240 H225 0.960 . S
C240 H226 0.960 . S
C240 H227 0.960 . S
C240 C239 1.524 . S
C241 C238 1.403 . S
C241 C242 1.391 1_545 S
C241 C245 1.495 . S
C242 C241 1.391 1_565 S
C242 C243 1.386 . S
C242 C244 1.478 . S
C243 H237 0.930 . S
C243 C239 1.400 . S
C243 C242 1.386 . S
C244 C242 1.478 . S
C244 C246 1.381 . S
C244 C250 1.383 . S
C245 C241 1.495 . S
C245 H251 0.959 . S
C245 H252 0.961 . S
C245 H253 0.960 . S
C246 C244 1.381 . S
C246 C247 1.393 . S
C246 H254 0.932 1_565 S
C247 C246 1.393 . S
C247 C248 1.383 . S
C247 H255 0.929 . S
C248 C247 1.383 . S
C248 C249 1.377 . S
C249 H233 0.930 . S
C249 C248 1.377 . S
C249 C250 1.379 . S
C250 H234 0.931 . S
C250 C244 1.383 . S
C250 C249 1.379 . S
H251 C245 0.959 . S
H252 C245 0.961 . S
H253 C245 0.960 . S
H254 C246 0.932 1_545 S
H255 C247 0.929 . S
H256 C264 0.929 . S
H257 C266 0.930 . S
H258 C268 0.930 . S
H259 C271 0.929 . S
H260 C274 0.930 . S
H261 C276 0.960 . S
H262 C276 0.960 . S
H263 C276 0.960 . S
C264 H256 0.929 . S
C264 C265 1.377 . S
C264 C266 1.384 . S
C265 C264 1.377 . S
C265 C271 1.390 . S
C266 H257 0.930 . S
C266 C264 1.384 . S
C266 C267 1.372 . S
C267 C266 1.372 . S
C267 C268 1.400 . S
C267 C272 1.490 . S
C268 H258 0.930 . S
C268 C267 1.400 . S
C268 C271 1.386 . S
H269 C285 0.930 . S
H270 C286 0.931 . S
C271 H259 0.929 . S
C271 C265 1.390 . S
C271 C268 1.386 . S
C272 C267 1.490 . S
C272 C274 1.395 . S
C272 C275 1.403 . S
H273 C279 0.930 . S
C274 H260 0.930 . S
C274 C272 1.395 . S
C274 C277 1.403 . S
C275 C272 1.403 . S
C275 C276 1.524 . S
C275 C279 1.400 . S
C276 H261 0.960 . S
C276 H262 0.960 . S
C276 H263 0.960 . S
C276 C275 1.524 . S
C277 C274 1.403 . S
C277 C278 1.392 . S
C277 C281 1.495 . S
C278 C277 1.392 . S
C278 C279 1.385 . S
C278 C280 1.478 . S
C279 H273 0.930 . S
C279 C275 1.400 . S
C279 C278 1.385 . S
C280 C278 1.478 . S
C280 C282 1.381 . S
C280 C286 1.383 . S
C281 C277 1.495 . S
C281 H287 0.959 . S
C281 H288 0.961 . S
C281 H289 0.960 . S
C282 C280 1.381 . S
C282 C283 1.394 . S
C282 H290 0.930 . S
C283 C282 1.394 . S
C283 C284 1.383 . S
C283 H291 0.929 . S
C284 C283 1.383 . S
C284 C285 1.377 . S
C285 H269 0.930 . S
C285 C284 1.377 . S
C285 C286 1.379 . S
C286 H270 0.931 . S
C286 C280 1.383 . S
C286 C285 1.379 . S
H287 C281 0.959 . S
H288 C281 0.961 . S
H289 C281 0.960 . S
H290 C282 0.930 . S
H291 C283 0.929 . S
H292 C300 0.929 . S
H293 C302 0.930 . S
H294 C304 0.930 . S
H295 C307 0.929 . S
H296 C310 0.930 . S
H297 C312 0.960 . S
H298 C312 0.960 . S
H299 C312 0.960 . S
C300 H292 0.929 . S
C300 C301 1.377 . S
C300 C302 1.384 . S
C301 C300 1.377 . S
C301 C307 1.390 . S
C302 H293 0.930 . S
C302 C300 1.384 . S
C302 C303 1.372 . S
C303 C302 1.372 . S
C303 C304 1.400 . S
C303 C308 1.490 . S
C304 H294 0.930 . S
C304 C303 1.400 . S
C304 C307 1.386 . S
H305 C321 0.930 . S
H306 C322 0.931 . S
C307 H295 0.929 . S
C307 C301 1.390 . S
C307 C304 1.386 . S
C308 C303 1.490 . S
C308 C310 1.395 . S
C308 C311 1.403 . S
H309 C315 0.930 . S
C310 H296 0.930 . S
C310 C308 1.395 . S
C310 C313 1.403 . S
C311 C308 1.403 . S
C311 C312 1.524 . S
C311 C315 1.400 . S
C312 H297 0.960 . S
C312 H298 0.960 . S
C312 H299 0.960 . S
C312 C311 1.524 . S
C313 C310 1.403 . S
C313 C314 1.392 . S
C313 C317 1.495 . S
C314 C313 1.392 . S
C314 C315 1.385 . S
C314 C316 1.478 . S
C315 H309 0.930 . S
C315 C311 1.400 . S
C315 C314 1.385 . S
C316 C314 1.478 . S
C316 C318 1.381 . S
C316 C322 1.383 . S
C317 C313 1.495 . S
C317 H323 0.959 . S
C317 H324 0.961 . S
C317 H325 0.960 . S
C318 C316 1.381 . S
C318 C319 1.394 . S
C318 H326 0.930 . S
C319 C318 1.394 . S
C319 C320 1.383 . S
C319 H327 0.929 . S
C320 C319 1.383 . S
C320 C321 1.377 . S
C321 H305 0.930 . S
C321 C320 1.377 . S
C321 C322 1.379 . S
C322 H306 0.931 . S
C322 C316 1.383 . S
C322 C321 1.379 . S
H323 C317 0.959 . S
H324 C317 0.961 . S
H325 C317 0.960 . S
H326 C318 0.930 . S
H327 C319 0.929 . S
H328 C336 0.929 . S
H329 C338 0.930 . S
H330 C340 0.930 . S
H331 C343 0.929 . S
H332 C346 0.930 . S
H333 C348 0.960 . S
H334 C348 0.960 . S
H335 C348 0.960 . S
C336 H328 0.929 . S
C336 C337 1.377 . S
C336 C338 1.384 . S
C337 C336 1.377 . S
C337 C343 1.390 . S
C338 H329 0.930 . S
C338 C336 1.384 . S
C338 C339 1.372 . S
C339 C338 1.372 . S
C339 C340 1.400 . S
C339 C344 1.490 . S
C340 H330 0.930 . S
C340 C339 1.400 . S
C340 C343 1.386 . S
H341 C357 0.930 . S
H342 C358 0.931 . S
C343 H331 0.929 . S
C343 C337 1.390 . S
C343 C340 1.386 . S
C344 C339 1.490 . S
C344 C346 1.395 . S
C344 C347 1.403 . S
H345 C351 0.930 . S
C346 H332 0.930 . S
C346 C344 1.395 . S
C346 C349 1.403 . S
C347 C344 1.403 . S
C347 C348 1.524 . S
C347 C351 1.400 . S
C348 H333 0.960 . S
C348 H334 0.960 . S
C348 H335 0.960 . S
C348 C347 1.524 . S
C349 C346 1.403 . S
C349 C350 1.392 . S
C349 C353 1.495 . S
C350 C349 1.392 . S
C350 C351 1.385 . S
C350 C352 1.478 . S
C351 H345 0.930 . S
C351 C347 1.400 . S
C351 C350 1.385 . S
C352 C350 1.478 . S
C352 C354 1.381 . S
C352 C358 1.383 . S
C353 C349 1.495 . S
C353 H359 0.959 . S
C353 H360 0.961 . S
C353 H361 0.960 . S
C354 C352 1.381 . S
C354 C355 1.394 . S
C354 H362 0.930 . S
C355 C354 1.394 . S
C355 C356 1.383 . S
C355 H363 0.929 . S
C356 C355 1.383 . S
C356 C357 1.377 . S
C357 H341 0.930 . S
C357 C356 1.377 . S
C357 C358 1.379 . S
C358 H342 0.931 . S
C358 C352 1.383 . S
C358 C357 1.379 . S
H359 C353 0.959 . S
H360 C353 0.961 . S
H361 C353 0.960 . S
H362 C354 0.930 . S
H363 C355 0.929 . S
H364 C372 0.929 . S
H365 C374 0.930 . S
H366 C376 0.930 . S
H367 C379 0.929 . S
H368 C382 0.930 . S
H369 C384 0.960 . S
H370 C384 0.960 . S
H371 C384 0.960 . S
C372 H364 0.929 . S
C372 C373 1.377 . S
C372 C374 1.384 . S
C373 C372 1.377 . S
C373 C379 1.390 . S
C374 H365 0.930 . S
C374 C372 1.384 . S
C374 C375 1.372 . S
C375 C374 1.372 . S
C375 C376 1.400 . S
C375 C380 1.490 . S
C376 H366 0.930 . S
C376 C375 1.400 . S
C376 C379 1.386 . S
H377 C393 0.930 . S
H378 C394 0.931 . S
C379 H367 0.929 . S
C379 C373 1.390 . S
C379 C376 1.386 . S
C380 C375 1.490 . S
C380 C382 1.395 . S
C380 C383 1.403 . S
H381 C387 0.930 . S
C382 H368 0.930 . S
C382 C380 1.395 . S
C382 C385 1.403 . S
C383 C380 1.403 . S
C383 C384 1.524 . S
C383 C387 1.400 . S
C384 H369 0.960 . S
C384 H370 0.960 . S
C384 H371 0.960 . S
C384 C383 1.524 . S
C385 C382 1.403 . S
C385 C386 1.392 . S
C385 C389 1.495 . S
C386 C385 1.392 . S
C386 C387 1.385 . S
C386 C388 1.478 . S
C387 H381 0.930 . S
C387 C383 1.400 . S
C387 C386 1.385 . S
C388 C386 1.478 . S
C388 C390 1.381 . S
C388 C394 1.383 . S
C389 C385 1.495 . S
C389 H395 0.959 . S
C389 H396 0.961 . S
C389 H397 0.960 . S
C390 C388 1.381 . S
C390 C391 1.394 . S
C390 H398 0.930 . S
C391 C390 1.394 . S
C391 C392 1.383 . S
C391 H399 0.929 . S
C392 C391 1.383 . S
C392 C393 1.377 . S
C393 H377 0.930 . S
C393 C392 1.377 . S
C393 C394 1.379 . S
C394 H378 0.931 . S
C394 C388 1.383 . S
C394 C393 1.379 . S
H395 C389 0.959 . S
H396 C389 0.961 . S
H397 C389 0.960 . S
H398 C390 0.930 . S
H399 C391 0.929 . S
H400 C408 0.929 . S
H401 C410 0.930 . S
H402 C412 0.930 . S
H403 C415 0.929 . S
H404 C418 0.930 . S
H405 C420 0.960 . S
H406 C420 0.960 . S
H407 C420 0.960 . S
C408 H400 0.929 . S
C408 C409 1.377 . S
C408 C410 1.384 . S
C409 C408 1.377 . S
C409 C415 1.390 . S
C410 H401 0.930 . S
C410 C408 1.384 . S
C410 C411 1.372 . S
C411 C410 1.372 . S
C411 C412 1.400 . S
C411 C416 1.490 . S
C412 H402 0.930 . S
C412 C411 1.400 . S
C412 C415 1.386 . S
H413 C429 0.930 . S
H414 C430 0.931 . S
C415 H403 0.929 . S
C415 C409 1.390 . S
C415 C412 1.386 . S
C416 C411 1.490 . S
C416 C418 1.395 . S
C416 C419 1.403 . S
H417 C423 0.930 . S
C418 H404 0.930 . S
C418 C416 1.395 . S
C418 C421 1.403 1_556 S
C419 C416 1.403 . S
C419 C420 1.524 . S
C419 C423 1.400 . S
C420 H405 0.960 . S
C420 H406 0.960 . S
C420 H407 0.960 . S
C420 C419 1.524 . S
C421 C418 1.403 1_554 S
C421 C422 1.392 . S
C421 C425 1.495 . S
C422 C421 1.392 . S
C422 C423 1.385 1_554 S
C422 C424 1.478 . S
C423 H417 0.930 . S
C423 C419 1.400 . S
C423 C422 1.385 1_556 S
C424 C422 1.478 . S
C424 C426 1.381 . S
C424 C430 1.383 . S
C425 C421 1.495 . S
C425 H431 0.959 . S
C425 H432 0.961 . S
C425 H433 0.960 . S
C426 C424 1.381 . S
C426 C427 1.394 . S
C426 H434 0.930 . S
C427 C426 1.394 . S
C427 C428 1.383 . S
C427 H435 0.929 . S
C428 C427 1.383 . S
C428 C429 1.377 . S
C429 H413 0.930 . S
C429 C428 1.377 . S
C429 C430 1.379 . S
C430 H414 0.931 . S
C430 C424 1.383 . S
C430 C429 1.379 . S
H431 C425 0.959 . S
H432 C425 0.961 . S
H433 C425 0.960 . S
H434 C426 0.930 . S
H435 C427 0.929 . S
H436 C444 0.929 . S
H437 C446 0.930 . S
H438 C448 0.930 . S
H439 C451 0.929 . S
H440 C454 0.930 . S
H441 C456 0.960 . S
H442 C456 0.960 . S
H443 C456 0.960 . S
C444 H436 0.929 . S
C444 C445 1.377 . S
C444 C446 1.384 . S
C445 C444 1.377 . S
C445 C451 1.390 . S
C446 H437 0.930 . S
C446 C444 1.384 . S
C446 C447 1.372 . S
C447 C446 1.372 . S
C447 C448 1.400 . S
C447 C452 1.490 . S
C448 H438 0.930 . S
C448 C447 1.400 . S
C448 C451 1.386 . S
H449 C465 0.930 . S
H450 C466 0.931 . S
C451 H439 0.929 . S
C451 C445 1.390 . S
C451 C448 1.386 . S
C452 C447 1.490 . S
C452 C454 1.395 1_556 S
C452 C455 1.403 . S
H453 C459 0.930 . S
C454 H440 0.930 . S
C454 C452 1.395 1_554 S
C454 C457 1.403 . S
C455 C452 1.403 . S
C455 C456 1.524 . S
C455 C459 1.400 1_556 S
C456 H441 0.960 . S
C456 H442 0.960 . S
C456 H443 0.960 . S
C456 C455 1.524 . S
C457 C454 1.403 . S
C457 C458 1.392 . S
C457 C461 1.495 . S
C458 C457 1.392 . S
C458 C459 1.385 . S
C458 C460 1.478 . S
C459 H453 0.930 . S
C459 C455 1.400 1_554 S
C459 C458 1.385 . S
C460 C458 1.478 . S
C460 C462 1.381 . S
C460 C466 1.383 . S
C461 C457 1.495 . S
C461 H467 0.959 . S
C461 H468 0.961 . S
C461 H469 0.960 . S
C462 C460 1.381 . S
C462 C463 1.394 . S
C462 H470 0.930 . S
C463 C462 1.394 . S
C463 C464 1.383 . S
C463 H471 0.929 . S
C464 C463 1.383 . S
C464 C465 1.377 . S
C465 H449 0.930 . S
C465 C464 1.377 . S
C465 C466 1.379 . S
C466 H450 0.931 . S
C466 C460 1.383 . S
C466 C465 1.379 . S
H467 C461 0.959 . S
H468 C461 0.961 . S
H469 C461 0.960 . S
H470 C462 0.930 . S
H471 C463 0.929 . S
H472 C480 0.929 . S
H473 C482 0.930 . S
H474 C484 0.930 . S
H475 C487 0.929 . S
H476 C490 0.930 . S
H477 C492 0.960 . S
H478 C492 0.960 . S
H479 C492 0.960 . S
C480 H472 0.929 . S
C480 C481 1.377 . S
C480 C482 1.384 . S
C481 C480 1.377 . S
C481 C487 1.390 . S
C482 H473 0.930 . S
C482 C480 1.384 . S
C482 C483 1.372 . S
C483 C482 1.372 . S
C483 C484 1.400 . S
C483 C488 1.490 . S
C484 H474 0.930 . S
C484 C483 1.400 . S
C484 C487 1.386 . S
H485 C501 0.930 . S
H486 C502 0.931 . S
C487 H475 0.929 . S
C487 C481 1.390 . S
C487 C484 1.386 . S
C488 C483 1.490 . S
C488 C490 1.395 1_554 S
C488 C491 1.403 1_554 S
H489 C495 0.930 . S
C490 H476 0.930 . S
C490 C488 1.395 1_556 S
C490 C493 1.403 . S
C491 C488 1.403 1_556 S
C491 C492 1.524 1_556 S
C491 C495 1.399 . S
C492 H477 0.960 . S
C492 H478 0.960 . S
C492 H479 0.960 . S
C492 C491 1.524 1_554 S
C493 C490 1.403 . S
C493 C494 1.392 . S
C493 C497 1.495 . S
C494 C493 1.392 . S
C494 C495 1.385 . S
C494 C496 1.478 . S
C495 H489 0.930 . S
C495 C491 1.399 . S
C495 C494 1.385 . S
C496 C494 1.478 . S
C496 C498 1.381 . S
C496 C502 1.383 . S
C497 C493 1.495 . S
C497 H503 0.959 . S
C497 H504 0.961 . S
C497 H505 0.960 . S
C498 C496 1.381 . S
C498 C499 1.394 . S
C498 H506 0.930 . S
C499 C498 1.394 . S
C499 C500 1.383 . S
C499 H507 0.929 . S
C500 C499 1.383 . S
C500 C501 1.377 . S
C501 H485 0.930 . S
C501 C500 1.377 . S
C501 C502 1.379 . S
C502 H486 0.931 . S
C502 C496 1.383 . S
C502 C501 1.379 . S
H503 C497 0.959 . S
H504 C497 0.961 . S
H505 C497 0.960 . S
H506 C498 0.930 . S
H507 C499 0.929 . S
H508 C516 0.929 . S
H509 C518 0.930 . S
H510 C520 0.930 . S
H511 C523 0.929 . S
H512 C526 0.930 . S
H513 C528 0.960 . S
H514 C528 0.960 . S
H515 C528 0.960 . S
C516 H508 0.929 . S
C516 C517 1.377 . S
C516 C518 1.384 . S
C517 C516 1.377 . S
C517 C523 1.390 . S
C518 H509 0.930 . S
C518 C516 1.384 . S
C518 C519 1.372 . S
C519 C518 1.372 . S
C519 C520 1.400 . S
C519 C524 1.490 . S
C520 H510 0.930 . S
C520 C519 1.400 . S
C520 C523 1.386 . S
H521 C537 0.930 . S
H522 C538 0.931 . S
C523 H511 0.929 . S
C523 C517 1.390 . S
C523 C520 1.386 . S
C524 C519 1.490 . S
C524 C526 1.395 . S
C524 C527 1.403 1_556 S
H525 C531 0.930 . S
C526 H512 0.930 . S
C526 C524 1.395 . S
C526 C529 1.411 . S
C527 C524 1.403 1_554 S
C527 C528 1.524 . S
C527 C531 1.400 . S
C528 H513 0.960 . S
C528 H514 0.960 . S
C528 H515 0.960 . S
C528 C527 1.524 . S
C529 C526 1.411 . S
C529 C530 1.383 1_556 S
C529 C533 1.498 . S
C530 C529 1.383 1_554 S
C530 C531 1.385 . S
C530 C532 1.478 . S
C531 H525 0.930 . S
C531 C527 1.400 . S
C531 C530 1.385 . S
C532 C530 1.478 . S
C532 C534 1.381 . S
C532 C538 1.383 . S
C533 C529 1.498 . S
C533 H539 0.959 . S
C533 H540 0.961 1_556 S
C533 H541 0.960 . S
C534 C532 1.381 . S
C534 C535 1.394 . S
C534 H542 0.930 . S
C535 C534 1.394 . S
C535 C536 1.383 . S
C535 H543 0.929 . S
C536 C535 1.383 . S
C536 C537 1.377 . S
C537 H521 0.930 . S
C537 C536 1.377 . S
C537 C538 1.379 . S
C538 H522 0.931 . S
C538 C532 1.383 . S
C538 C537 1.379 . S
H539 C533 0.959 . S
H540 C533 0.961 1_554 S
H541 C533 0.960 . S
H542 C534 0.930 . S
H543 C535 0.929 . S
H544 C552 0.929 . S
H545 C554 0.930 . S
H546 C556 0.930 . S
H547 C559 0.929 . S
H548 C562 0.930 . S
H549 C564 0.960 . S
H550 C564 0.960 . S
H551 C564 0.960 . S
C552 H544 0.929 . S
C552 C553 1.377 . S
C552 C554 1.384 . S
C553 C552 1.377 . S
C553 C559 1.390 . S
C554 H545 0.930 . S
C554 C552 1.384 . S
C554 C555 1.372 . S
C555 C554 1.372 . S
C555 C556 1.400 . S
C555 C560 1.490 . S
C556 H546 0.930 . S
C556 C555 1.400 . S
C556 C559 1.386 . S
H557 C573 0.930 . S
H558 C574 0.931 . S
C559 H547 0.929 . S
C559 C553 1.390 . S
C559 C556 1.386 . S
C560 C555 1.490 . S
C560 C562 1.395 . S
C560 C563 1.403 . S
H561 C567 0.930 . S
C562 H548 0.930 . S
C562 C560 1.395 . S
C562 C565 1.403 . S
C563 C560 1.403 . S
C563 C564 1.524 . S
C563 C567 1.400 . S
C564 H549 0.960 . S
C564 H550 0.960 . S
C564 H551 0.960 . S
C564 C563 1.524 . S
C565 C562 1.403 . S
C565 C566 1.392 . S
C565 C569 1.495 . S
C566 C565 1.392 . S
C566 C567 1.385 . S
C566 C568 1.478 . S
C567 H561 0.930 . S
C567 C563 1.400 . S
C567 C566 1.385 . S
C568 C566 1.478 . S
C568 C570 1.381 . S
C568 C574 1.383 . S
C569 C565 1.495 . S
C569 H575 0.959 . S
C569 H576 0.961 . S
C569 H577 0.960 . S
C570 C568 1.381 . S
C570 C571 1.394 . S
C570 H578 0.930 . S
C571 C570 1.394 . S
C571 C572 1.383 . S
C571 H579 0.929 . S
C572 C571 1.383 . S
C572 C573 1.377 . S
C573 H557 0.930 . S
C573 C572 1.377 . S
C573 C574 1.379 . S
C574 H558 0.931 . S
C574 C568 1.383 . S
C574 C573 1.379 . S
H575 C569 0.959 . S
H576 C569 0.961 . S
H577 C569 0.960 . S
H578 C570 0.930 . S
H579 C571 0.929 . S
H580 C588 0.929 . S
H581 C590 0.930 . S
H582 C592 0.930 . S
H583 C595 0.929 . S
H584 C598 0.930 . S
H585 C600 0.960 . S
H586 C600 0.960 . S
H587 C600 0.960 . S
C588 H580 0.929 . S
C588 C589 1.377 . S
C588 C590 1.384 . S
C589 C588 1.377 . S
C589 C595 1.390 . S
C590 H581 0.930 . S
C590 C588 1.384 . S
C590 C591 1.372 . S
C591 C590 1.372 . S
C591 C592 1.400 . S
C591 C596 1.490 . S
C592 H582 0.930 . S
C592 C591 1.400 . S
C592 C595 1.386 . S
H593 C609 0.930 . S
H594 C610 0.931 . S
C595 H583 0.929 . S
C595 C589 1.390 . S
C595 C592 1.386 . S
C596 C591 1.490 . S
C596 C598 1.395 . S
C596 C599 1.403 . S
H597 C603 0.930 . S
C598 H584 0.930 . S
C598 C596 1.395 . S
C598 C601 1.403 . S
C599 C596 1.403 . S
C599 C600 1.524 . S
C599 C603 1.400 . S
C600 H585 0.960 . S
C600 H586 0.960 . S
C600 H587 0.960 . S
C600 C599 1.524 . S
C601 C598 1.403 . S
C601 C602 1.392 . S
C601 C605 1.495 . S
C602 C601 1.392 . S
C602 C603 1.385 . S
C602 C604 1.478 . S
C603 H597 0.930 . S
C603 C599 1.400 . S
C603 C602 1.385 . S
C604 C602 1.478 . S
C604 C606 1.381 . S
C604 C610 1.383 . S
C605 C601 1.495 . S
C605 H611 0.959 . S
C605 H612 0.961 . S
C605 H613 0.960 . S
C606 C604 1.381 . S
C606 C607 1.394 . S
C606 H614 0.930 . S
C607 C606 1.394 . S
C607 C608 1.383 . S
C607 H615 0.929 . S
C608 C607 1.383 . S
C608 C609 1.377 . S
C609 H593 0.930 . S
C609 C608 1.377 . S
C609 C610 1.379 . S
C610 H594 0.931 . S
C610 C604 1.383 . S
C610 C609 1.379 . S
H611 C605 0.959 . S
H612 C605 0.961 . S
H613 C605 0.960 . S
H614 C606 0.930 . S
H615 C607 0.929 . S
H616 C624 0.929 . S
H617 C626 0.930 . S
H618 C628 0.930 . S
H619 C631 0.929 . S
H620 C634 0.930 . S
H621 C636 0.960 . S
H622 C636 0.960 . S
H623 C636 0.960 . S
C624 H616 0.929 . S
C624 C625 1.377 . S
C624 C626 1.384 . S
C625 C624 1.377 . S
C625 C631 1.390 . S
C626 H617 0.930 . S
C626 C624 1.384 . S
C626 C627 1.372 . S
C627 C626 1.372 . S
C627 C628 1.400 . S
C627 C632 1.490 . S
C628 H618 0.930 . S
C628 C627 1.400 . S
C628 C631 1.386 . S
H629 C645 0.930 . S
H630 C646 0.931 . S
C631 H619 0.929 . S
C631 C625 1.390 . S
C631 C628 1.386 . S
C632 C627 1.490 . S
C632 C634 1.395 . S
C632 C635 1.403 . S
H633 C639 0.930 . S
C634 H620 0.930 . S
C634 C632 1.395 . S
C634 C637 1.403 . S
C635 C632 1.403 . S
C635 C636 1.524 . S
C635 C639 1.400 . S
C636 H621 0.960 . S
C636 H622 0.960 . S
C636 H623 0.960 . S
C636 C635 1.524 . S
C637 C634 1.403 . S
C637 C638 1.392 . S
C637 C641 1.495 . S
C638 C637 1.392 . S
C638 C639 1.385 . S
C638 C640 1.478 . S
C639 H633 0.930 . S
C639 C635 1.400 . S
C639 C638 1.385 . S
C640 C638 1.478 . S
C640 C642 1.381 . S
C640 C646 1.383 . S
C641 C637 1.495 . S
C641 H647 0.959 . S
C641 H648 0.961 . S
C641 H649 0.960 . S
C642 C640 1.381 . S
C642 C643 1.394 . S
C642 H650 0.930 . S
C643 C642 1.394 . S
C643 C644 1.383 . S
C643 H651 0.929 . S
C644 C643 1.383 . S
C644 C645 1.377 . S
C645 H629 0.930 . S
C645 C644 1.377 . S
C645 C646 1.379 . S
C646 H630 0.931 . S
C646 C640 1.383 . S
C646 C645 1.379 . S
H647 C641 0.959 . S
H648 C641 0.961 . S
H649 C641 0.960 . S
H650 C642 0.930 . S
H651 C643 0.929 . S
H652 C660 0.929 . S
H653 C662 0.930 . S
H654 C664 0.930 . S
H655 C667 0.929 . S
H656 C670 0.930 . S
H657 C672 0.960 . S
H658 C672 0.960 . S
H659 C672 0.960 . S
C660 H652 0.929 . S
C660 C661 1.377 . S
C660 C662 1.384 . S
C661 C660 1.377 . S
C661 C667 1.390 . S
C662 H653 0.930 . S
C662 C660 1.384 . S
C662 C663 1.372 . S
C663 C662 1.372 . S
C663 C664 1.400 . S
C663 C668 1.490 . S
C664 H654 0.930 . S
C664 C663 1.400 . S
C664 C667 1.386 . S
H665 C681 0.930 . S
H666 C682 0.931 . S
C667 H655 0.929 . S
C667 C661 1.390 . S
C667 C664 1.386 . S
C668 C663 1.490 . S
C668 C670 1.395 . S
C668 C671 1.403 . S
H669 C675 0.930 . S
C670 H656 0.930 . S
C670 C668 1.395 . S
C670 C673 1.403 . S
C671 C668 1.403 . S
C671 C672 1.524 . S
C671 C675 1.400 . S
C672 H657 0.960 . S
C672 H658 0.960 . S
C672 H659 0.960 . S
C672 C671 1.524 . S
C673 C670 1.403 . S
C673 C674 1.392 . S
C673 C677 1.495 . S
C674 C673 1.392 . S
C674 C675 1.385 . S
C674 C676 1.478 . S
C675 H669 0.930 . S
C675 C671 1.400 . S
C675 C674 1.385 . S
C676 C674 1.478 . S
C676 C678 1.381 . S
C676 C682 1.383 . S
C677 C673 1.495 . S
C677 H683 0.959 . S
C677 H684 0.961 . S
C677 H685 0.960 . S
C678 C676 1.381 . S
C678 C679 1.394 . S
C678 H686 0.930 . S
C679 C678 1.394 . S
C679 C680 1.383 . S
C679 H687 0.929 . S
C680 C679 1.383 . S
C680 C681 1.377 . S
C681 H665 0.930 . S
C681 C680 1.377 . S
C681 C682 1.379 . S
C682 H666 0.931 . S
C682 C676 1.383 . S
C682 C681 1.379 . S
H683 C677 0.959 . S
H684 C677 0.961 . S
H685 C677 0.960 . S
H686 C678 0.930 . S
H687 C679 0.929 . S
C121 C39 1.143 . S
C140 C11 1.157 . S
C157 C53 1.135 . S
C176 C25 1.137 . S
C193 C67 1.142 . S
C212 C95 1.138 . S
C229 C75 0.981 . S
C248 C103 1.043 . S
C265 C26 0.569 . S
C284 C4 0.608 . S
C301 C18 0.702 . S
C320 C40 0.719 . S
C337 C54 0.587 . S
C356 C32 0.529 . S
C373 C46 0.687 . S
C392 C12 0.679 . S
C409 C102 0.734 . S
C428 C60 0.774 . S
C445 C82 0.506 . S
C464 C68 0.557 . S
C481 C88 0.717 . S
C500 C74 0.661 . S
C517 C110 0.525 . S
C536 C96 0.470 . S
C553 C5 1.598 . S
C572 C81 1.711 . S
C589 C89 1.569 . S
C608 C19 1.536 . S
C625 C33 1.607 . S
C644 C109 1.675 . S
C661 C47 1.570 . S
C680 C61 1.591 . S
