# Generated by pormake.
# Topology umy, (4)-cn, num edge types: 1
# Building blocks:
#     Node 0, Type 0, BuildingBlock: KUFVIS_clean_sbu_0, # of connection points: 4
#     Node 1, Type 0, BuildingBlock: KUFVIS_clean_sbu_0, # of connection points: 4
#     Node 2, Type 0, BuildingBlock: KUFVIS_clean_sbu_0, # of connection points: 4
#     Node 3, Type 0, BuildingBlock: KUFVIS_clean_sbu_0, # of connection points: 4
#     Node 4, Type 0, BuildingBlock: KUFVIS_clean_sbu_0, # of connection points: 4
#     Node 5, Type 0, BuildingBlock: KUFVIS_clean_sbu_0, # of connection points: 4
#     Node 6, Type 0, BuildingBlock: KUFVIS_clean_sbu_0, # of connection points: 4
#     Node 7, Type 0, BuildingBlock: KUFVIS_clean_sbu_0, # of connection points: 4
#     Node 8, Type 0, BuildingBlock: KUFVIS_clean_sbu_0, # of connection points: 4
#     Node 9, Type 0, BuildingBlock: KUFVIS_clean_sbu_0, # of connection points: 4
#     Node 10, Type 0, BuildingBlock: KUFVIS_clean_sbu_0, # of connection points: 4
#     Node 11, Type 0, BuildingBlock: KUFVIS_clean_sbu_0, # of connection points: 4
#     Edge 12, Type (0, 0), BuildingBlock: XIVTED_clean_linker_0, # of connection points: 2
#     Edge 13, Type (0, 0), BuildingBlock: XIVTED_clean_linker_0, # of connection points: 2
#     Edge 14, Type (0, 0), BuildingBlock: XIVTED_clean_linker_0, # of connection points: 2
#     Edge 15, Type (0, 0), BuildingBlock: XIVTED_clean_linker_0, # of connection points: 2
#     Edge 16, Type (0, 0), BuildingBlock: XIVTED_clean_linker_0, # of connection points: 2
#     Edge 17, Type (0, 0), BuildingBlock: XIVTED_clean_linker_0, # of connection points: 2
#     Edge 18, Type (0, 0), BuildingBlock: XIVTED_clean_linker_0, # of connection points: 2
#     Edge 19, Type (0, 0), BuildingBlock: XIVTED_clean_linker_0, # of connection points: 2
#     Edge 20, Type (0, 0), BuildingBlock: XIVTED_clean_linker_0, # of connection points: 2
#     Edge 21, Type (0, 0), BuildingBlock: XIVTED_clean_linker_0, # of connection points: 2
#     Edge 22, Type (0, 0), BuildingBlock: XIVTED_clean_linker_0, # of connection points: 2
#     Edge 23, Type (0, 0), BuildingBlock: XIVTED_clean_linker_0, # of connection points: 2
#     Edge 24, Type (0, 0), BuildingBlock: XIVTED_clean_linker_0, # of connection points: 2
#     Edge 25, Type (0, 0), BuildingBlock: XIVTED_clean_linker_0, # of connection points: 2
#     Edge 26, Type (0, 0), BuildingBlock: XIVTED_clean_linker_0, # of connection points: 2
#     Edge 27, Type (0, 0), BuildingBlock: XIVTED_clean_linker_0, # of connection points: 2
#     Edge 28, Type (0, 0), BuildingBlock: XIVTED_clean_linker_0, # of connection points: 2
#     Edge 29, Type (0, 0), BuildingBlock: XIVTED_clean_linker_0, # of connection points: 2
#     Edge 30, Type (0, 0), BuildingBlock: XIVTED_clean_linker_0, # of connection points: 2
#     Edge 31, Type (0, 0), BuildingBlock: XIVTED_clean_linker_0, # of connection points: 2
#     Edge 32, Type (0, 0), BuildingBlock: XIVTED_clean_linker_0, # of connection points: 2
#     Edge 33, Type (0, 0), BuildingBlock: XIVTED_clean_linker_0, # of connection points: 2
#     Edge 34, Type (0, 0), BuildingBlock: XIVTED_clean_linker_0, # of connection points: 2
#     Edge 35, Type (0, 0), BuildingBlock: XIVTED_clean_linker_0, # of connection points: 2
# Relax obj value: 0.092
# Max RMSD: 0.078
# Mean RMSD: 0.078
data_MOF--net-umy--node1-KUFVIS_clean_sbu_0--edge1-XIVTED_clean_linker_0
_symmetry_space_group_name_H-M    P1
_symmetry_Int_Tables_number       1
_symmetry_cell_setting            triclinic
loop_
_symmetry_equiv_pos_as_xyz
'x, y, z'
_cell_length_a     38.486288
_cell_length_b     38.515904
_cell_length_c     51.289158
_cell_angle_alpha  90.09497
_cell_angle_beta   89.996449
_cell_angle_gamma 119.98303
loop_
_atom_site_label
_atom_site_type_symbol
_atom_site_fract_x
_atom_site_fract_y
_atom_site_fract_z
_atom_type_partial_charge
Mn0 Mn 0.06331 0.3468 0.13598 0.0
Mn1 Mn 0.14752 0.4373 0.13818 0.0
C2 C 0.11224 0.36006 0.1671 0.0
C3 C 0.99687 0.30515 0.14936 0.0
C4 C 0.13253 0.37382 0.09734 0.0
O5 O 0.04863 0.38232 0.11428 0.0
O6 O 0.10379 0.44263 0.12177 0.0
C7 C 0.12289 0.48093 0.17443 0.0
N8 N 0.14807 0.46692 0.16821 0.0
C9 C 0.18983 0.49966 0.20541 0.0
C10 C 0.16449 0.51466 0.21216 0.0
C11 C 0.13071 0.50499 0.1967 0.0
C12 C 0.18027 0.47546 0.18319 0.0
H13 H 0.09722 0.47402 0.1624 0.0
C14 C 0.06834 0.42059 0.11273 0.0
O15 O 0.01071 0.29707 0.1285 0.0
O16 O 0.02108 0.33771 0.16178 0.0
N17 N 0.19188 0.43604 0.15404 0.0
C18 C 0.21287 0.41849 0.14521 0.0
C19 C 0.24662 0.42383 0.15913 0.0
C20 C 0.25881 0.44764 0.18173 0.0
C21 C 0.23706 0.46582 0.19021 0.0
C22 C 0.20345 0.45911 0.1757 0.0
H23 H 0.2039 0.4004 0.12776 0.0
O24 O 0.08618 0.3234 0.16098 0.0
O25 O 0.10857 0.38764 0.1551 0.0
O26 O 0.09938 0.34583 0.10647 0.0
O27 O 0.15081 0.40914 0.10696 0.0
C28 C 0.24766 0.49067 0.21235 0.0
C29 C 0.22433 0.50797 0.21975 0.0
H30 H 0.17061 0.53347 0.22922 0.0
H31 H 0.11094 0.51636 0.20181 0.0
H32 H 0.26328 0.40976 0.1524 0.0
H33 H 0.28493 0.45181 0.19238 0.0
H34 H 0.27392 0.49687 0.22361 0.0
H35 H 0.23332 0.52797 0.23632 0.0
Mn36 Mn 0.7327 0.07801 0.30746 0.0
Mn37 Mn 0.73947 0.16802 0.31345 0.0
C38 C 0.77992 0.12633 0.33544 0.0
C39 C 0.70652 0.01216 0.32224 0.0
C40 C 0.76721 0.14218 0.26544 0.0
O41 O 0.67873 0.06875 0.29297 0.0
O42 O 0.68312 0.1275 0.30487 0.0
C43 C 0.68978 0.15566 0.36036 0.0
N44 N 0.72567 0.17598 0.34785 0.0
C45 C 0.75596 0.21942 0.38481 0.0
C46 C 0.71907 0.19951 0.39785 0.0
C47 C 0.68591 0.16732 0.38565 0.0
C48 C 0.75791 0.2067 0.35957 0.0
H49 H 0.66439 0.13069 0.35113 0.0
C50 C 0.66347 0.0915 0.296 0.0
O51 O 0.72046 0.02214 0.2987 0.0
O52 O 0.70537 0.03951 0.3363 0.0
N53 N 0.79299 0.20886 0.32213 0.0
C54 C 0.827 0.22366 0.30746 0.0
C55 C 0.86321 0.25499 0.3173 0.0
C56 C 0.86413 0.2709 0.34208 0.0
C57 C 0.8288 0.25529 0.35679 0.0
C58 C 0.79351 0.22419 0.34591 0.0
H59 H 0.82669 0.21176 0.28838 0.0
O60 O 0.78505 0.09754 0.32677 0.0
O61 O 0.74821 0.12599 0.32689 0.0
O62 O 0.76263 0.10936 0.27464 0.0
O63 O 0.75588 0.16379 0.27759 0.0
C64 C 0.8274 0.26889 0.38201 0.0
C65 C 0.79105 0.251 0.39596 0.0
H66 H 0.71586 0.20849 0.41727 0.0
H67 H 0.65746 0.15153 0.39572 0.0
H68 H 0.89035 0.2668 0.30581 0.0
H69 H 0.89217 0.29489 0.3497 0.0
H70 H 0.85421 0.2928 0.391 0.0
H71 H 0.79072 0.26165 0.41532 0.0
Mn72 Mn 0.67191 0.73083 0.468 0.0
Mn73 Mn 0.58248 0.72677 0.46447 0.0
C74 C 0.65715 0.76916 0.49589 0.0
C75 C 0.7131 0.70838 0.48581 0.0
C76 C 0.64933 0.77136 0.42527 0.0
O77 O 0.63709 0.67869 0.44778 0.0
O78 O 0.57731 0.6766 0.44998 0.0
C79 C 0.53485 0.66044 0.50119 0.0
N80 N 0.55026 0.69945 0.49407 0.0
C81 C 0.51761 0.71169 0.52999 0.0
C82 C 0.50125 0.67159 0.53766 0.0
C83 C 0.51008 0.64591 0.52326 0.0
C84 C 0.54226 0.72451 0.50793 0.0
H85 H 0.54132 0.64056 0.49008 0.0
C86 C 0.59923 0.66145 0.44385 0.0
O87 O 0.72148 0.72667 0.46348 0.0
O88 O 0.67993 0.70123 0.49689 0.0
N89 N 0.5841 0.77363 0.47852 0.0
C90 C 0.60386 0.81194 0.46933 0.0
C91 C 0.59958 0.84176 0.48222 0.0
C92 C 0.57477 0.83184 0.50426 0.0
C93 C 0.55461 0.79218 0.51325 0.0
C94 C 0.5602 0.76378 0.49971 0.0
H95 H 0.62286 0.81978 0.45235 0.0
O96 O 0.69414 0.77936 0.49107 0.0
O97 O 0.63023 0.73722 0.48405 0.0
O98 O 0.67543 0.7652 0.43639 0.0
O99 O 0.61335 0.75653 0.43342 0.0
C100 C 0.52919 0.77974 0.53513 0.0
C101 C 0.51049 0.73944 0.54339 0.0
H102 H 0.48205 0.66028 0.55464 0.0
H103 H 0.49767 0.61495 0.52908 0.0
H104 H 0.61529 0.87231 0.47516 0.0
H105 H 0.57149 0.85491 0.51415 0.0
H106 H 0.52384 0.80101 0.54563 0.0
H107 H 0.49061 0.72999 0.56004 0.0
Mn108 Mn 0.95649 0.66947 0.63687 0.0
Mn109 Mn 0.86835 0.5822 0.63574 0.0
C110 C 0.90734 0.65672 0.66774 0.0
C111 C 0.02292 0.70889 0.65087 0.0
C112 C 0.88859 0.64988 0.5979 0.0
O113 O 0.96952 0.63315 0.61437 0.0
O114 O 0.90978 0.57584 0.61713 0.0
C115 C 0.89044 0.53259 0.66806 0.0
N116 N 0.8666 0.54881 0.66375 0.0
C117 C 0.82656 0.51595 0.70146 0.0
C118 C 0.85051 0.49869 0.70626 0.0
C119 C 0.88272 0.5072 0.68954 0.0
C120 C 0.83579 0.54113 0.67984 0.0
H121 H 0.9151 0.5389 0.65517 0.0
C122 C 0.94632 0.59581 0.60958 0.0
O123 O 0.00986 0.71804 0.63015 0.0
O124 O 0.99796 0.67608 0.6628 0.0
N125 N 0.82585 0.58451 0.65346 0.0
C126 C 0.8064 0.60454 0.64658 0.0
C127 C 0.77419 0.60027 0.66181 0.0
C128 C 0.76205 0.57515 0.68375 0.0
C129 C 0.78222 0.55447 0.69021 0.0
C130 C 0.81414 0.55994 0.67435 0.0
H131 H 0.81551 0.62377 0.62968 0.0
O132 O 0.93481 0.69323 0.66252 0.0
O133 O 0.90942 0.62887 0.65474 0.0
O134 O 0.92273 0.67466 0.60758 0.0
O135 O 0.86659 0.61437 0.60645 0.0
C136 C 0.77192 0.52868 0.71178 0.0
C137 C 0.79396 0.50926 0.71732 0.0
H138 H 0.84459 0.47903 0.72279 0.0
H139 H 0.90144 0.4941 0.69315 0.0
H140 H 0.75874 0.61629 0.65665 0.0
H141 H 0.73724 0.57199 0.6955 0.0
H142 H 0.74706 0.52366 0.72414 0.0
H143 H 0.78568 0.48914 0.73376 0.0
Mn144 Mn 0.29043 0.93622 0.80719 0.0
Mn145 Mn 0.29027 0.84891 0.80918 0.0
C146 C 0.24393 0.88363 0.83275 0.0
C147 C 0.31283 1.00013 0.82476 0.0
C148 C 0.25791 0.87446 0.7634 0.0
O149 O 0.34552 0.95076 0.79213 0.0
O150 O 0.34491 0.89276 0.80018 0.0
C151 C 0.34395 0.86214 0.85409 0.0
N152 N 0.3078 0.84019 0.84209 0.0
C153 C 0.28655 0.78747 0.87378 0.0
C154 C 0.32373 0.80928 0.88637 0.0
C155 C 0.35234 0.84705 0.87668 0.0
C156 C 0.27945 0.80465 0.85189 0.0
H157 H 0.36618 0.89078 0.84638 0.0
C158 C 0.3626 0.92952 0.79294 0.0
O159 O 0.29926 0.99166 0.80103 0.0
O160 O 0.31549 0.97253 0.83744 0.0
N161 N 0.23908 0.80427 0.81807 0.0
C162 C 0.20371 0.78852 0.8048 0.0
C163 C 0.17084 0.75228 0.81319 0.0
C164 C 0.17497 0.73212 0.8347 0.0
C165 C 0.21173 0.74887 0.84795 0.0
C166 C 0.24299 0.78572 0.83923 0.0
H167 H 0.20058 0.80335 0.78789 0.0
O168 O 0.23736 0.9121 0.82553 0.0
O169 O 0.2775 0.88707 0.82496 0.0
O170 O 0.26202 0.90672 0.77337 0.0
O171 O 0.27043 0.8532 0.77459 0.0
C172 C 0.21881 0.73012 0.86918 0.0
C173 C 0.25633 0.74922 0.88193 0.0
H174 H 0.33054 0.79743 0.90354 0.0
H175 H 0.38101 0.86419 0.88637 0.0
H176 H 0.14259 0.73958 0.80283 0.0
H177 H 0.14978 0.70379 0.84083 0.0
H178 H 0.1956 0.70096 0.87575 0.0
H179 H 0.26129 0.73465 0.89841 0.0
Mn180 Mn 0.34574 0.27904 0.97442 0.0
Mn181 Mn 0.43515 0.2827 0.97362 0.0
C182 C 0.35902 0.24165 0.00401 0.0
C183 C 0.30486 0.30392 0.98934 0.0
C184 C 0.36962 0.23716 0.93354 0.0
O185 O 0.38155 0.32972 0.95311 0.0
O186 O 0.44149 0.33308 0.9588 0.0
C187 C 0.48147 0.34886 0.01087 0.0
N188 N 0.46617 0.30984 0.00372 0.0
C189 C 0.49773 0.29749 0.04021 0.0
C190 C 0.514 0.33761 0.0479 0.0
C191 C 0.50563 0.36334 0.03324 0.0
C192 C 0.47365 0.28471 0.01786 0.0
H193 H 0.4754 0.3688 0.99954 0.0
C194 C 0.41979 0.34758 0.95091 0.0
O195 O 0.29641 0.28289 0.96807 0.0
O196 O 0.33766 0.31171 0.0013 0.0
N197 N 0.43258 0.23565 0.98804 0.0
C198 C 0.41327 0.1974 0.97864 0.0
C199 C 0.41709 0.16752 0.99178 0.0
C200 C 0.44107 0.17734 0.01424 0.0
C201 C 0.46096 0.21697 0.02337 0.0
C202 C 0.45585 0.24543 0.00958 0.0
H203 H 0.39496 0.18964 0.96132 0.0
O204 O 0.32234 0.23209 0.99873 0.0
O205 O 0.38666 0.27295 0.99205 0.0
O206 O 0.34272 0.24248 0.94427 0.0
O207 O 0.4056 0.25313 0.94197 0.0
C208 C 0.48574 0.22935 0.0456 0.0
C209 C 0.50442 0.26969 0.05387 0.0
H210 H 0.53276 0.3489 0.0651 0.0
H211 H 0.51797 0.39432 0.03908 0.0
H212 H 0.40166 0.13702 0.98457 0.0
H213 H 0.44397 0.15423 0.02432 0.0
H214 H 0.49067 0.20806 0.05638 0.0
H215 H 0.52395 0.27912 0.07072 0.0
Mn216 Mn 0.66953 0.9388 0.69714 0.0
Mn217 Mn 0.57714 0.85768 0.69193 0.0
C218 C 0.6565 0.88946 0.6664 0.0
C219 C 0.71625 1.00372 0.68391 0.0
C220 C 0.63565 0.86843 0.73536 0.0
O221 O 0.63431 0.95638 0.71653 0.0
O222 O 0.57338 0.90227 0.70862 0.0
C223 C 0.54062 0.88844 0.65435 0.0
N224 N 0.55147 0.86092 0.6609 0.0
C225 C 0.52276 0.82368 0.62144 0.0
C226 C 0.51095 0.85142 0.61437 0.0
C227 C 0.52014 0.88407 0.63084 0.0
C228 C 0.54326 0.82969 0.64503 0.0
H229 H 0.5475 0.91346 0.66699 0.0
C230 C 0.59598 0.93764 0.71768 0.0
O231 O 0.72014 0.98982 0.70612 0.0
O232 O 0.68442 0.98102 0.67038 0.0
N233 N 0.57683 0.81274 0.67568 0.0
C234 C 0.59136 0.78931 0.68492 0.0
C235 C 0.58596 0.75615 0.67026 0.0
C236 C 0.56533 0.74718 0.6464 0.0
C237 C 0.55026 0.77146 0.63744 0.0
C238 C 0.55663 0.80415 0.65286 0.0
H239 H 0.60717 0.79595 0.70326 0.0
O240 O 0.69292 0.9134 0.67419 0.0
O241 O 0.62907 0.89507 0.67689 0.0
O242 O 0.66488 0.90184 0.72759 0.0
O243 O 0.60155 0.85083 0.72397 0.0
C244 C 0.5291 0.76445 0.61385 0.0
C245 C 0.51506 0.79036 0.60598 0.0
H246 H 0.49505 0.84807 0.59627 0.0
H247 H 0.51132 0.90574 0.62547 0.0
H248 H 0.59766 0.73755 0.67733 0.0
H249 H 0.56128 0.72162 0.6351 0.0
H250 H 0.52341 0.73913 0.60171 0.0
H251 H 0.49819 0.78442 0.58809 0.0
Mn252 Mn 0.7241 0.6543 0.86088 0.0
Mn253 Mn 0.72091 0.56535 0.85847 0.0
C254 C 0.76478 0.64443 0.83179 0.0
C255 C 0.69935 0.69535 0.84621 0.0
C256 C 0.76243 0.62662 0.90187 0.0
O257 O 0.67171 0.61642 0.87995 0.0
O258 O 0.66897 0.55737 0.87185 0.0
C259 C 0.65841 0.52291 0.81829 0.0
N260 N 0.69667 0.53733 0.82689 0.0
C261 C 0.71186 0.50748 0.79068 0.0
C262 C 0.67251 0.492 0.78153 0.0
C263 C 0.64576 0.50006 0.79529 0.0
C264 C 0.72289 0.53049 0.81349 0.0
H265 H 0.6377 0.52865 0.82896 0.0
C266 C 0.65367 0.5781 0.88033 0.0
O267 O 0.7186 0.70254 0.86818 0.0
O268 O 0.69355 0.66392 0.83336 0.0
N269 N 0.76929 0.56922 0.84533 0.0
C270 C 0.80663 0.58755 0.85619 0.0
C271 C 0.83751 0.58421 0.84401 0.0
C272 C 0.82954 0.56154 0.82105 0.0
C273 C 0.79079 0.5426 0.81042 0.0
C274 C 0.76136 0.54744 0.82322 0.0
H275 H 0.81292 0.60472 0.87395 0.0
O276 O 0.77342 0.68037 0.83845 0.0
O277 O 0.73244 0.61557 0.84205 0.0
O278 O 0.75771 0.65458 0.89226 0.0
O279 O 0.74756 0.59191 0.89145 0.0
C280 C 0.7801 0.51874 0.78778 0.0
C281 C 0.7405 0.50078 0.77813 0.0
H282 H 0.66259 0.47409 0.76391 0.0
H283 H 0.61538 0.48838 0.78832 0.0
H284 H 0.86732 0.59888 0.85238 0.0
H285 H 0.85337 0.55884 0.81178 0.0
H286 H 0.80207 0.51382 0.77782 0.0
H287 H 0.73218 0.48168 0.76109 0.0
Mn288 Mn 0.06174 0.72707 0.03185 0.0
Mn289 Mn 0.15082 0.73233 0.02523 0.0
C290 C 0.10812 0.77094 0.00161 0.0
C291 C 0.99466 0.69699 0.01842 0.0
C292 C 0.12764 0.76422 0.0724 0.0
O293 O 0.05397 0.67533 0.04912 0.0
O294 O 0.11009 0.67655 0.03444 0.0
C295 C 0.13619 0.68133 0.97871 0.0
N296 N 0.15779 0.71729 0.99098 0.0
C297 C 0.19966 0.74626 0.95332 0.0
C298 C 0.1783 0.7093 0.94046 0.0
C299 C 0.14634 0.67674 0.95317 0.0
C300 C 0.1884 0.74894 0.97883 0.0
H301 H 0.11116 0.65653 0.98825 0.0
C302 C 0.07523 0.65867 0.04507 0.0
O303 O 1.00601 0.71556 0.04067 0.0
O304 O 0.02168 0.69473 0.00473 0.0
N305 N 0.19188 0.78539 0.01589 0.0
C306 C 0.20753 0.81986 0.03018 0.0
C307 C 0.23898 0.8555 0.0199 0.0
C308 C 0.25415 0.85543 0.99504 0.0
C309 C 0.23771 0.81966 0.98073 0.0
C310 C 0.20666 0.78491 0.9921 0.0
H311 H 0.19631 0.82038 0.04931 0.0
O312 O 0.07939 0.77658 0.0097 0.0
O313 O 0.10855 0.74059 0.01183 0.0
O314 O 0.09547 0.76122 0.06299 0.0
O315 O 0.14726 0.74992 0.06092 0.0
C316 C 0.2501 0.81743 0.9553 0.0
C317 C 0.23081 0.78089 0.94156 0.0
H318 H 0.18577 0.70568 0.92074 0.0
H319 H 0.1294 0.64828 0.94322 0.0
H320 H 0.25144 0.88299 0.03109 0.0
H321 H 0.27813 0.88308 0.98703 0.0
H322 H 0.27371 0.84386 0.94586 0.0
H323 H 0.23954 0.78022 0.92173 0.0
Mn324 Mn 0.34322 0.05986 0.2007 0.0
Mn325 Mn 0.43224 0.14621 0.19991 0.0
C326 C 0.35623 0.10799 0.16923 0.0
C327 C 0.30201 0.99327 0.18749 0.0
C328 C 0.36626 0.12927 0.23883 0.0
O329 O 0.37919 0.04685 0.2235 0.0
O330 O 0.43839 0.10429 0.2181 0.0
C331 C 0.47863 0.12182 0.16601 0.0
N332 N 0.46362 0.14656 0.17096 0.0
C333 C 0.49448 0.18514 0.13237 0.0
C334 C 0.5105 0.16025 0.12692 0.0
C335 C 0.50238 0.12835 0.14377 0.0
C336 C 0.47095 0.17712 0.15477 0.0
H337 H 0.47255 0.09735 0.17896 0.0
C338 C 0.41717 0.06852 0.22674 0.0
O339 O 0.29383 0.00736 0.20815 0.0
O340 O 0.33505 0.01713 0.17537 0.0
N341 N 0.43015 0.18902 0.18249 0.0
C342 C 0.41142 0.20948 0.19007 0.0
C343 C 0.41549 0.24158 0.17485 0.0
C344 C 0.43906 0.25254 0.15218 0.0
C345 C 0.45846 0.23137 0.14499 0.0
C346 C 0.45334 0.19968 0.16092 0.0
H347 H 0.39335 0.20129 0.2075 0.0
O348 O 0.31961 0.08128 0.17491 0.0
O349 O 0.38406 0.10557 0.182 0.0
O350 O 0.34 0.09557 0.22934 0.0
O351 O 0.402 0.14947 0.2301 0.0
C352 C 0.48258 0.24042 0.12261 0.0
C353 C 0.50075 0.21745 0.11637 0.0
H354 H 0.52885 0.16521 0.10978 0.0
H355 H 0.51449 0.1089 0.13965 0.0
H356 H 0.40048 0.25781 0.18057 0.0
H357 H 0.44201 0.27722 0.14042 0.0
H358 H 0.48723 0.265 0.11014 0.0
H359 H 0.51954 0.2248 0.09925 0.0
Mn360 Mn 0.28913 0.35694 0.36025 0.0
Mn361 Mn 0.29653 0.44794 0.36018 0.0
C362 C 0.2494 0.37023 0.33266 0.0
C363 C 0.30858 0.31274 0.34332 0.0
C364 C 0.25306 0.386 0.40247 0.0
O365 O 0.34336 0.39244 0.37792 0.0
O366 O 0.34653 0.45253 0.37459 0.0
C367 C 0.36169 0.48996 0.32164 0.0
N368 N 0.32327 0.47684 0.32943 0.0
C369 C 0.31146 0.50872 0.29292 0.0
C370 C 0.35095 0.52275 0.28455 0.0
C371 C 0.37609 0.51311 0.29889 0.0
C372 C 0.29867 0.48548 0.31558 0.0
H373 H 0.38122 0.48297 0.33276 0.0
C374 C 0.36138 0.43047 0.38094 0.0
O375 O 0.29227 0.30701 0.36626 0.0
O376 O 0.31526 0.34481 0.33102 0.0
N377 N 0.25006 0.44728 0.34635 0.0
C378 C 0.21222 0.42984 0.35635 0.0
C379 C 0.18286 0.43508 0.34366 0.0
C380 C 0.19283 0.45859 0.32103 0.0
C381 C 0.23203 0.47642 0.31123 0.0
C382 C 0.25992 0.46982 0.32454 0.0
H383 H 0.20439 0.41189 0.37381 0.0
O384 O 0.23852 0.33363 0.33915 0.0
O385 O 0.28287 0.39772 0.3427 0.0
O386 O 0.25839 0.35828 0.39298 0.0
O387 O 0.26757 0.42057 0.3921 0.0
C388 C 0.24454 0.50062 0.28882 0.0
C389 C 0.28429 0.51695 0.27973 0.0
H390 H 0.36223 0.54079 0.26709 0.0
H391 H 0.40658 0.52374 0.29253 0.0
H392 H 0.15267 0.42117 0.35135 0.0
H393 H 0.17016 0.46271 0.31132 0.0
H394 H 0.22372 0.50691 0.27864 0.0
H395 H 0.29375 0.53591 0.26264 0.0
Mn396 Mn 0.95438 0.28754 0.53528 0.0
Mn397 Mn 0.86278 0.2787 0.53892 0.0
C398 C 0.90364 0.24557 0.50681 0.0
C399 C 0.01951 0.31734 0.51848 0.0
C400 C 0.89256 0.24008 0.57756 0.0
O401 O 0.96537 0.33786 0.55599 0.0
O402 O 0.90327 0.33039 0.55437 0.0
C403 C 0.87271 0.34415 0.504 0.0
N404 N 0.85348 0.30449 0.5102 0.0
C405 C 0.80385 0.28907 0.47688 0.0
C406 C 0.82307 0.32976 0.47012 0.0
C407 C 0.85787 0.35736 0.48359 0.0
C408 C 0.82056 0.27756 0.49695 0.0
H409 H 0.89887 0.36557 0.51475 0.0
C410 C 0.94051 0.35011 0.56056 0.0
O411 O 0.01015 0.29745 0.54019 0.0
O412 O 0.99165 0.32156 0.50723 0.0
N413 N 0.82129 0.22977 0.52422 0.0
C414 C 0.80716 0.19144 0.53257 0.0
C415 C 0.7738 0.15988 0.52011 0.0
C416 C 0.75482 0.16815 0.49963 0.0
C417 C 0.7697 0.20789 0.4916 0.0
C418 C 0.80364 0.23797 0.50429 0.0
H419 H 0.82123 0.18497 0.54858 0.0
O420 O 0.93349 0.23985 0.5116 0.0
O421 O 0.90429 0.2755 0.51888 0.0
O422 O 0.92603 0.2505 0.5665 0.0
O423 O 0.86784 0.25039 0.56931 0.0
C424 C 0.75175 0.2189 0.47182 0.0
C425 C 0.76845 0.25954 0.46477 0.0
H426 H 0.81138 0.34014 0.45463 0.0
H427 H 0.87286 0.38882 0.4785 0.0
H428 H 0.76247 0.12932 0.52648 0.0
H429 H 0.72876 0.1438 0.49029 0.0
H430 H 0.72487 0.19635 0.46214 0.0
H431 H 0.75395 0.26776 0.44987 0.0
H432 H 0.08234 0.60265 0.01737 0.0
H433 H 0.03347 0.45758 0.13734 0.0
H434 H 0.03297 0.61814 0.08897 0.0
H435 H 0.06541 0.4353 0.06123 0.0
H436 H 0.02244 0.5099 0.11874 0.0
H437 H 0.06634 0.53609 0.03131 0.0
C438 C 0.06765 0.5918 0.03598 0.0
C439 C 0.05944 0.61619 0.05218 0.0
C440 C 0.03072 0.49285 0.10592 0.0
C441 C 0.04156 0.53975 0.06864 0.0
C442 C 0.03673 0.46283 0.11651 0.0
C443 C 0.04994 0.44205 0.10066 0.0
C444 C 0.03884 0.50259 0.0794 0.0
C445 C 0.05467 0.45038 0.07396 0.0
C446 C 0.05839 0.55361 0.04393 0.0
C447 C 0.0399 0.6003 0.07594 0.0
N448 N 0.04969 0.48043 0.06422 0.0
N449 N 0.03231 0.56329 0.08372 0.0
H450 H 0.61286 0.11217 0.31903 0.0
H451 H 0.45059 0.02643 0.20699 0.0
H452 H 0.6165 0.03672 0.2581 0.0
H453 H 0.43827 0.07973 0.27765 0.0
H454 H 0.5061 0.02165 0.22696 0.0
H455 H 0.54524 0.09379 0.30603 0.0
C456 C 0.59928 0.09137 0.30299 0.0
C457 C 0.62066 0.07628 0.2895 0.0
C458 C 0.49044 0.03318 0.23842 0.0
C459 C 0.54266 0.05539 0.27406 0.0
C460 C 0.4585 0.03547 0.22714 0.0
C461 C 0.43951 0.0528 0.24096 0.0
C462 C 0.50388 0.04916 0.26347 0.0
C463 C 0.45172 0.0655 0.26659 0.0
C464 C 0.56041 0.08073 0.29559 0.0
C465 C 0.60114 0.04913 0.269 0.0
N466 N 0.48344 0.06393 0.27689 0.0
N467 N 0.56344 0.04009 0.26158 0.0
H468 H 0.58798 0.63805 0.39292 0.0
H469 H 0.43006 0.45442 0.35371 0.0
H470 H 0.55868 0.59289 0.47131 0.0
H471 H 0.38562 0.45736 0.43023 0.0
H472 H 0.49789 0.50489 0.36774 0.0
H473 H 0.5356 0.57293 0.37649 0.0
C474 C 0.57159 0.61376 0.40654 0.0
C475 C 0.57773 0.62043 0.43341 0.0
C476 C 0.47346 0.49416 0.38158 0.0
C477 C 0.51722 0.54627 0.41504 0.0
C478 C 0.43497 0.46492 0.37371 0.0
C479 C 0.40262 0.45169 0.39099 0.0
C480 C 0.47928 0.51037 0.40685 0.0
C481 C 0.41005 0.46664 0.4165 0.0
C482 C 0.54159 0.57655 0.39722 0.0
C483 C 0.55487 0.58863 0.45042 0.0
N484 N 0.44761 0.49539 0.42364 0.0
N485 N 0.52507 0.55317 0.441 0.0
H486 H 0.01497 0.59289 0.62018 0.0
H487 H 0.89937 0.3706 0.59381 0.0
H488 H 0.91 0.54186 0.57107 0.0
H489 H 0.01175 0.42103 0.55235 0.0
H490 H 0.91258 0.43818 0.60346 0.0
H491 H 0.02483 0.53587 0.609 0.0
C492 C 0.99519 0.57078 0.60614 0.0
C493 C 0.96158 0.57192 0.5965 0.0
C494 C 0.93476 0.43437 0.59278 0.0
C495 C 0.97211 0.50705 0.58437 0.0
C496 C 0.92739 0.39594 0.58733 0.0
C497 C 0.95435 0.39021 0.57207 0.0
C498 C 0.96936 0.46752 0.58301 0.0
C499 C 0.9903 0.42425 0.56426 0.0
C500 C 1.00066 0.53825 0.59998 0.0
C501 C 0.9362 0.54202 0.57893 0.0
N502 N 0.99658 0.4618 0.56944 0.0
N503 N 0.94142 0.51036 0.57393 0.0
H504 H 0.59142 0.94869 0.76962 0.0
H505 H 0.40095 0.97797 0.7509 0.0
H506 H 0.55124 0.96579 0.69489 0.0
H507 H 0.42023 0.91976 0.81649 0.0
H508 H 0.4676 0.99497 0.73408 0.0
H509 H 0.54116 0.96069 0.79086 0.0
C510 C 0.57295 0.95642 0.75779 0.0
C511 C 0.57527 0.95631 0.73057 0.0
C512 C 0.45745 0.97923 0.75245 0.0
C513 C 0.51735 0.96906 0.75446 0.0
C514 C 0.41962 0.96974 0.76208 0.0
C515 C 0.40498 0.94708 0.78495 0.0
C516 C 0.48082 0.96649 0.76608 0.0
C517 C 0.43017 0.93686 0.79864 0.0
C518 C 0.54404 0.96285 0.76984 0.0
C519 C 0.55016 0.96557 0.71597 0.0
N520 N 0.46667 0.94639 0.78893 0.0
N521 N 0.52188 0.97115 0.72807 0.0
H522 H 0.46091 0.41689 0.97785 0.0
H523 H 0.5869 0.53191 0.85185 0.0
H524 H 0.43097 0.36993 0.89977 0.0
H525 H 0.6266 0.57075 0.93049 0.0
H526 H 0.52142 0.48126 0.86845 0.0
H527 H 0.51253 0.48139 0.96031 0.0
C528 C 0.46451 0.42067 0.95692 0.0
C529 C 0.44171 0.38835 0.94015 0.0
C530 C 0.5441 0.50126 0.88212 0.0
C531 C 0.50122 0.46153 0.91995 0.0
C532 C 0.58146 0.5302 0.87263 0.0
C533 C 0.6121 0.5552 0.88989 0.0
C534 C 0.53747 0.49697 0.90913 0.0
C535 C 0.60356 0.55208 0.9166 0.0
C536 C 0.4941 0.45736 0.94692 0.0
C537 C 0.44769 0.39441 0.91325 0.0
N538 N 0.56715 0.52302 0.92547 0.0
N539 N 0.47725 0.43018 0.90397 0.0
H540 H 0.20504 0.4255 0.07541 0.0
H541 H 0.22316 0.26827 0.98333 0.0
H542 H 0.10957 0.3021 0.07144 0.0
H543 H 0.32377 0.3669 0.02183 0.0
H544 H 0.17772 0.28562 0.00647 0.0
H545 H 0.24473 0.40975 0.04605 0.0
C546 C 0.19201 0.3951 0.06816 0.0
C547 C 0.1538 0.36497 0.07634 0.0
C548 C 0.20978 0.30356 0.00959 0.0
C549 C 0.19973 0.34691 0.0423 0.0
C550 C 0.23571 0.29392 0.9963 0.0
C551 C 0.27728 0.31622 1.00071 0.0
C552 C 0.22574 0.33627 0.02686 0.0
C553 C 0.29194 0.34886 0.01792 0.0
C554 C 0.21496 0.38618 0.05141 0.0
C555 C 0.13888 0.32627 0.06588 0.0
N556 N 0.26625 0.35797 0.03026 0.0
N557 N 0.16197 0.31827 0.04947 0.0
H558 H 0.77977 0.20912 0.23903 0.0
H559 H 0.95262 0.22298 0.14552 0.0
H560 H 0.81137 0.11616 0.23727 0.0
H561 H 0.94993 0.32493 0.178 0.0
H562 H 0.89003 0.17829 0.16906 0.0
H563 H 0.83026 0.24563 0.20589 0.0
C564 C 0.79676 0.19588 0.23139 0.0
C565 C 0.79157 0.15962 0.24142 0.0
C566 C 0.90296 0.21045 0.17066 0.0
C567 C 0.84982 0.20178 0.20321 0.0
C568 C 0.93841 0.23592 0.15714 0.0
C569 C 0.95645 0.27768 0.15993 0.0
C570 C 0.88515 0.22703 0.18652 0.0
C571 C 0.93712 0.29292 0.17543 0.0
C572 C 0.82577 0.21697 0.21249 0.0
C573 C 0.81443 0.14407 0.23034 0.0
N574 N 0.90259 0.26766 0.1881 0.0
N575 N 0.84291 0.16546 0.21201 0.0
H576 H 0.7217 0.83979 0.42051 0.0
H577 H 0.67509 0.9374 0.29932 0.0
H578 H 0.60565 0.7738 0.38372 0.0
H579 H 0.71975 1.0001 0.37225 0.0
H580 H 0.6634 0.87496 0.32084 0.0
H581 H 0.73725 0.89717 0.39235 0.0
C582 C 0.70002 0.83687 0.40594 0.0
C583 C 0.66231 0.80199 0.40446 0.0
C584 C 0.67584 0.90258 0.33193 0.0
C585 C 0.68005 0.86733 0.37223 0.0
C586 C 0.68243 0.93799 0.31976 0.0
C587 C 0.6979 0.97372 0.33416 0.0
C588 C 0.68638 0.9036 0.35827 0.0
C589 C 0.70721 0.97307 0.36055 0.0
C590 C 0.70878 0.86971 0.39009 0.0
C591 C 0.63504 0.80021 0.3855 0.0
N592 N 0.70172 0.93873 0.37167 0.0
N593 N 0.64439 0.83251 0.37011 0.0
H594 H 0.76515 0.68563 0.46566 0.0
H595 H 0.88754 0.72004 0.59621 0.0
H596 H 0.72728 0.71425 0.53773 0.0
H597 H 0.84816 0.60964 0.55403 0.0
H598 H 0.84747 0.73641 0.56662 0.0
H599 H 0.81346 0.67398 0.49053 0.0
C600 C 0.76711 0.68953 0.48663 0.0
C601 C 0.74198 0.70042 0.49977 0.0
C602 C 0.8484 0.70904 0.5636 0.0
C603 C 0.79775 0.68894 0.52781 0.0
C604 C 0.87142 0.69987 0.58026 0.0
C605 C 0.87113 0.66352 0.57744 0.0
C606 C 0.82592 0.6822 0.54362 0.0
C607 C 0.84909 0.63798 0.55677 0.0
C608 C 0.79454 0.68295 0.5007 0.0
C609 C 0.74574 0.70534 0.52693 0.0
N610 N 0.82735 0.64782 0.54054 0.0
N611 N 0.77339 0.69999 0.54003 0.0
H612 H 0.06831 0.79051 0.64585 0.0
H613 H 0.24469 0.80763 0.73646 0.0
H614 H 0.06848 0.68923 0.68142 0.0
H615 H 0.21139 0.8994 0.73696 0.0
H616 H 0.19182 0.76981 0.70489 0.0
H617 H 0.13142 0.83556 0.66872 0.0
C618 C 0.08201 0.77774 0.65807 0.0
C619 C 0.06318 0.7361 0.66182 0.0
C620 C 0.19648 0.79851 0.71163 0.0
C621 C 0.1352 0.78721 0.68761 0.0
C622 C 0.22686 0.82038 0.72961 0.0
C623 C 0.2323 0.85668 0.73987 0.0
C624 C 0.17144 0.81304 0.7034 0.0
C625 C 0.20824 0.87152 0.72981 0.0
C626 C 0.11778 0.80344 0.6712 0.0
C627 C 0.08193 0.72113 0.67808 0.0
N628 N 0.17855 0.84944 0.71229 0.0
N629 N 0.11692 0.74664 0.6903 0.0
H630 H 0.2981 0.00713 0.8754 0.0
H631 H 0.41469 0.23729 0.89204 0.0
H632 H 0.34343 0.07681 0.80509 0.0
H633 H 0.2987 0.16722 0.92806 0.0
H634 H 0.39855 0.18103 0.86221 0.0
H635 H 0.30825 0.0671 0.89849 0.0
C636 C 0.31047 0.03519 0.86486 0.0
C637 C 0.32012 0.03712 0.83833 0.0
C638 C 0.37645 0.17845 0.87632 0.0
C639 C 0.33222 0.10586 0.86479 0.0
C640 C 0.38557 0.21039 0.89332 0.0
C641 C 0.35788 0.20694 0.91246 0.0
C642 C 0.34004 0.14245 0.87917 0.0
C643 C 0.32072 0.17131 0.91343 0.0
C644 C 0.31589 0.06923 0.878 0.0
C645 C 0.33563 0.07417 0.82556 0.0
N646 N 0.31324 0.14013 0.89743 0.0
N647 N 0.34187 0.10742 0.83904 0.0
H648 H 0.7326 0.77653 0.85391 0.0
H649 H 0.58243 0.79404 0.75426 0.0
H650 H 0.63781 0.67635 0.81258 0.0
H651 H 0.70346 0.89169 0.76566 0.0
H652 H 0.59549 0.75388 0.78496 0.0
H653 H 0.71543 0.8218 0.83048 0.0
C654 C 0.70776 0.76403 0.84029 0.0
C655 C 0.68661 0.72268 0.8351 0.0
C656 C 0.61908 0.78423 0.78094 0.0
C657 C 0.66678 0.77396 0.80856 0.0
C658 C 0.61167 0.8074 0.76343 0.0
C659 C 0.64206 0.84638 0.75697 0.0
C660 C 0.65704 0.8 0.79245 0.0
C661 C 0.6792 0.86176 0.76982 0.0
C662 C 0.69822 0.78985 0.82683 0.0
C663 C 0.65499 0.70804 0.81708 0.0
N664 N 0.68575 0.83844 0.78686 0.0
N665 N 0.64601 0.7336 0.80452 0.0
H666 H 0.80526 0.69714 0.93006 0.0
H667 H 0.95264 0.63097 0.98836 0.0
H668 H 0.78259 0.57554 0.92558 0.0
H669 H 0.94546 0.72947 0.02255 0.0
H670 H 0.89083 0.61158 0.96429 0.0
H671 H 0.85688 0.7116 0.96327 0.0
C672 C 0.8106 0.67334 0.93625 0.0
C673 C 0.78964 0.63514 0.92466 0.0
C674 C 0.90231 0.63708 0.97735 0.0
C675 C 0.849 0.65173 0.96235 0.0
C676 C 0.93758 0.64811 0.99111 0.0
C677 C 0.95397 0.68168 0.00755 0.0
C678 C 0.88375 0.66046 0.97939 0.0
C679 C 0.93344 0.70309 0.01026 0.0
C680 C 0.84006 0.68164 0.95523 0.0
C681 C 0.798 0.60555 0.93362 0.0
N682 N 0.8997 0.69255 0.99593 0.0
N683 N 0.82728 0.61464 0.95154 0.0
H684 H 0.22005 0.9515 0.19209 0.0
H685 H 0.19387 0.7741 0.09857 0.0
H686 H 0.31863 0.94543 0.15691 0.0
H687 H 0.10667 0.81352 0.09947 0.0
H688 H 0.23353 0.82525 0.1307 0.0
H689 H 0.17285 0.89023 0.16826 0.0
C690 C 0.23174 0.93682 0.1798 0.0
C691 C 0.27331 0.95351 0.17643 0.0
C692 C 0.20546 0.82236 0.12412 0.0
C693 C 0.21969 0.88361 0.14946 0.0
C694 C 0.18254 0.79299 0.1058 0.0
C695 C 0.14694 0.78968 0.09583 0.0
C696 C 0.19271 0.84859 0.13299 0.0
C697 C 0.13395 0.81501 0.10639 0.0
C698 C 0.20482 0.90213 0.1661 0.0
C699 C 0.28685 0.93361 0.16001 0.0
N700 N 0.15703 0.84368 0.12426 0.0
N701 N 0.26016 0.89972 0.1472 0.0
H702 H 0.40958 0.17417 0.28076 0.0
H703 H 0.2981 0.29319 0.29218 0.0
H704 H 0.29607 0.13027 0.24157 0.0
H705 H 0.33395 0.26328 0.36451 0.0
H706 H 0.30813 0.24268 0.26979 0.0
H707 H 0.39272 0.21506 0.30938 0.0
C708 C 0.38084 0.17261 0.27852 0.0
C709 C 0.35401 0.14864 0.25892 0.0
C710 C 0.31368 0.24714 0.29057 0.0
C711 C 0.33543 0.19614 0.29078 0.0
C712 C 0.30831 0.27609 0.30331 0.0
C713 C 0.31533 0.28241 0.3302 0.0
C714 C 0.32741 0.22516 0.3046 0.0
C715 C 0.32818 0.25918 0.34375 0.0
C716 C 0.3713 0.19583 0.29483 0.0
C717 C 0.31734 0.14796 0.25664 0.0
N718 N 0.3345 0.2319 0.3307 0.0
N719 N 0.3095 0.17208 0.27199 0.0
H720 H 0.20943 0.31534 0.4303 0.0
H721 H 0.05741 0.37888 0.48404 0.0
H722 H 0.23175 0.43679 0.4253 0.0
H723 H 0.06995 0.28666 0.52306 0.0
H724 H 0.11867 0.39724 0.45944 0.0
H725 H 0.15605 0.30058 0.46223 0.0
C726 C 0.20366 0.33903 0.43613 0.0
C727 C 0.22507 0.37728 0.42478 0.0
C728 C 0.1083 0.37327 0.4736 0.0
C729 C 0.16364 0.3603 0.4608 0.0
C730 C 0.07333 0.36278 0.4876 0.0
C731 C 0.05876 0.33138 0.50568 0.0
C732 C 0.12833 0.35152 0.47715 0.0
C733 C 0.08046 0.31133 0.50946 0.0
C734 C 0.17317 0.33055 0.45432 0.0
C735 C 0.21605 0.40673 0.43319 0.0
N736 N 0.1139 0.32133 0.49501 0.0
N737 N 0.18575 0.39745 0.45027 0.0
H738 H 0.90068 0.17391 0.58179 0.0
H739 H 0.76019 0.07871 0.70622 0.0
H740 H 0.85045 0.23785 0.62102 0.0
H741 H 0.74595 0.01258 0.63534 0.0
H742 H 0.8116 0.14028 0.68419 0.0
H743 H 0.8633 0.11721 0.61156 0.0
C744 C 0.88291 0.17655 0.59723 0.0
C745 C 0.87854 0.2105 0.59898 0.0
C746 C 0.7974 0.11206 0.67372 0.0
C747 C 0.8361 0.14614 0.63296 0.0
C748 C 0.76827 0.07715 0.6862 0.0
C749 C 0.74872 0.04088 0.67239 0.0
C750 C 0.80779 0.10996 0.64771 0.0
C751 C 0.76009 0.04017 0.64651 0.0
C752 C 0.86138 0.14414 0.614 0.0
C753 C 0.85448 0.21209 0.61904 0.0
N754 N 0.78903 0.07411 0.63504 0.0
N755 N 0.83399 0.18025 0.63524 0.0
H756 H 0.28881 0.4098 0.28906 0.0
H757 H 0.16752 0.33729 0.17672 0.0
H758 H 0.17059 0.3453 0.32276 0.0
H759 H 0.11133 0.39916 0.21089 0.0
H760 H 0.20544 0.34755 0.21747 0.0
H761 H 0.25881 0.41341 0.24752 0.0
C762 C 0.25662 0.39729 0.28784 0.0
C763 C 0.23199 0.37766 0.30929 0.0
C764 C 0.18513 0.35925 0.2158 0.0
C765 C 0.19793 0.38136 0.26221 0.0
C766 C 0.16358 0.35335 0.19275 0.0
C767 C 0.13728 0.36835 0.19045 0.0
C768 C 0.17878 0.37863 0.23691 0.0
C769 C 0.13219 0.38808 0.21188 0.0
C770 C 0.23968 0.39911 0.26421 0.0
C771 C 0.19043 0.36093 0.30662 0.0
N772 N 0.1524 0.3922 0.23449 0.0
N773 N 0.17457 0.3633 0.28343 0.0
H774 H 0.85828 0.16613 0.49488 0.0
H775 H 0.85886 0.18021 0.3466 0.0
H776 H 0.89588 0.28426 0.46508 0.0
H777 H 0.7413 0.11474 0.38112 0.0
H778 H 0.8862 0.21112 0.38959 0.0
H779 H 0.82576 0.13749 0.45264 0.0
C780 C 0.85913 0.18585 0.47955 0.0
C781 C 0.87899 0.22739 0.48342 0.0
C782 C 0.85443 0.19 0.38753 0.0
C783 C 0.8443 0.19536 0.43521 0.0
C784 C 0.83899 0.17242 0.36322 0.0
C785 C 0.79784 0.14567 0.36047 0.0
C786 C 0.82868 0.17919 0.40913 0.0
C787 C 0.77316 0.13585 0.38255 0.0
C788 C 0.84086 0.16962 0.4556 0.0
C789 C 0.88012 0.25197 0.46287 0.0
N790 N 0.789 0.15231 0.40611 0.0
N791 N 0.86356 0.23563 0.43938 0.0
H792 H 0.67508 0.83127 0.65562 0.0
H793 H 0.61317 0.72553 0.53704 0.0
H794 H 0.62463 0.89858 0.62168 0.0
H795 H 0.6821 0.84692 0.50912 0.0
H796 H 0.60675 0.75123 0.57963 0.0
H797 H 0.66723 0.79757 0.61334 0.0
C798 C 0.66199 0.83853 0.63931 0.0
C799 C 0.64951 0.86677 0.64206 0.0
C800 C 0.62269 0.77205 0.56398 0.0
C801 C 0.642 0.83 0.59397 0.0
C802 C 0.62608 0.75755 0.53974 0.0
C803 C 0.64779 0.7843 0.51963 0.0
C804 C 0.64101 0.8135 0.56794 0.0
C805 C 0.6649 0.8255 0.52419 0.0
C806 C 0.65743 0.81936 0.61538 0.0
C807 C 0.63367 0.87615 0.62029 0.0
N808 N 0.66099 0.83898 0.54794 0.0
N809 N 0.63087 0.85818 0.59694 0.0
H810 H 0.90444 0.6115 0.70914 0.0
H811 H 0.84446 0.6707 0.82561 0.0
H812 H 0.85702 0.68473 0.68074 0.0
H813 H 0.73054 0.60743 0.78614 0.0
H814 H 0.87783 0.66721 0.78543 0.0
H815 H 0.86838 0.60263 0.75056 0.0
C816 C 0.88585 0.62507 0.71151 0.0
C817 C 0.88292 0.64826 0.69149 0.0
C818 C 0.84547 0.65362 0.78583 0.0
C819 C 0.84221 0.63836 0.73833 0.0
C820 C 0.82656 0.65561 0.80858 0.0
C821 C 0.78479 0.63854 0.80916 0.0
C822 C 0.82251 0.63607 0.76336 0.0
C823 C 0.76279 0.62013 0.78648 0.0
C824 C 0.86562 0.62017 0.73505 0.0
C825 C 0.85948 0.66624 0.69567 0.0
N826 N 0.782 0.61996 0.76426 0.0
N827 N 0.83959 0.66058 0.71861 0.0
H828 H 0.16323 0.83346 0.83784 0.0
H829 H 0.09199 0.72756 0.9576 0.0
H830 H 0.27531 0.88082 0.87926 0.0
H831 H 0.16417 0.84766 0.98729 0.0
H832 H 0.12268 0.75063 0.91446 0.0
H833 H 0.12724 0.80282 0.87874 0.0
C834 C 0.18013 0.83665 0.85545 0.0
C835 C 0.2221 0.85884 0.85529 0.0
C836 C 0.13154 0.77187 0.93041 0.0
C837 C 0.18161 0.82624 0.90183 0.0
C838 C 0.11433 0.75883 0.95492 0.0
C839 C 0.12616 0.78581 0.97588 0.0
C840 C 0.16122 0.81199 0.92707 0.0
C841 C 0.15467 0.82606 0.97154 0.0
C842 C 0.15973 0.81949 0.87865 0.0
C843 C 0.24288 0.86313 0.87862 0.0
N844 N 0.17195 0.8379 0.9476 0.0
N845 N 0.22237 0.84762 0.90115 0.0
H846 H 0.39819 0.10796 0.1267 0.0
H847 H 0.40153 0.28143 0.04691 0.0
H848 H 0.33046 0.16029 0.15736 0.0
H849 H 0.33317 0.16296 0.01397 0.0
H850 H 0.40724 0.25156 0.08801 0.0
H851 H 0.40556 0.14309 0.0851 0.0
C852 C 0.38563 0.1275 0.12478 0.0
C853 C 0.36441 0.1321 0.14546 0.0
C854 C 0.3917 0.23237 0.07154 0.0
C855 C 0.37274 0.1718 0.09854 0.0
C856 C 0.38862 0.24922 0.04819 0.0
C857 C 0.36742 0.22445 0.02708 0.0
C858 C 0.37382 0.19067 0.0735 0.0
C859 C 0.35014 0.18289 0.02981 0.0
C860 C 0.38967 0.14718 0.10116 0.0
C861 C 0.34754 0.15662 0.14191 0.0
N862 N 0.35389 0.16716 0.05265 0.0
N863 N 0.35238 0.17598 0.11889 0.0
loop_
_geom_bond_atom_site_label_1
_geom_bond_atom_site_label_2
_geom_bond_distance
_geom_bond_site_symmetry_2
_ccdc_geom_bond_type
Mn0 O5 2.095 . S
Mn0 O15 2.162 . S
Mn0 O16 2.297 . S
Mn0 O24 2.385 . S
Mn0 O25 2.209 . S
Mn0 O26 2.094 . S
Mn1 O6 2.121 . S
Mn1 N8 2.257 . S
Mn1 N17 2.282 . S
Mn1 O25 2.215 . S
Mn1 O27 2.117 . S
C2 O24 1.234 . S
C2 O25 1.283 . S
C3 O15 1.281 . S
C3 O16 1.236 . S
C4 O26 1.240 . S
C4 O27 1.264 . S
O5 Mn0 2.095 . S
O5 C14 1.250 . S
O6 Mn1 2.121 . S
O6 C14 1.258 . S
C7 N8 1.326 . S
C7 C11 1.460 . S
C7 H13 0.929 . S
N8 Mn1 2.257 . S
N8 C7 1.326 . S
N8 C12 1.362 . S
C9 C10 1.258 . S
C9 C12 1.431 . S
C9 C29 1.449 . S
C10 C9 1.258 . S
C10 C11 1.477 . S
C10 H30 0.931 . S
C11 C7 1.460 . S
C11 C10 1.477 . S
C11 H31 0.930 . S
C12 N8 1.362 . S
C12 C9 1.431 . S
C12 C22 1.476 . S
H13 C7 0.929 . S
C14 O5 1.250 . S
C14 O6 1.258 . S
O15 Mn0 2.162 . S
O15 C3 1.281 . S
O16 Mn0 2.297 . S
O16 C3 1.236 . S
N17 Mn1 2.282 . S
N17 C18 1.328 . S
N17 C22 1.318 . S
C18 N17 1.328 . S
C18 C19 1.457 . S
C18 H23 0.929 . S
C19 C18 1.457 . S
C19 C20 1.291 . S
C19 H32 0.931 . S
C20 C19 1.291 . S
C20 C21 1.373 . S
C20 H33 0.929 . S
C21 C20 1.373 . S
C21 C22 1.396 . S
C21 C28 1.403 . S
C22 C12 1.476 . S
C22 N17 1.318 . S
C22 C21 1.396 . S
H23 C18 0.929 . S
O24 Mn0 2.385 . S
O24 C2 1.234 . S
O25 Mn0 2.209 . S
O25 Mn1 2.215 . S
O25 C2 1.283 . S
O26 Mn0 2.094 . S
O26 C4 1.240 . S
O27 Mn1 2.117 . S
O27 C4 1.264 . S
C28 C21 1.403 . S
C28 C29 1.399 . S
C28 H34 0.929 . S
C29 C9 1.449 . S
C29 C28 1.399 . S
C29 H35 0.930 . S
H30 C10 0.931 . S
H31 C11 0.930 . S
H32 C19 0.931 . S
H33 C20 0.929 . S
H34 C28 0.929 . S
H35 C29 0.930 . S
Mn36 O41 2.095 . S
Mn36 O51 2.162 . S
Mn36 O52 2.297 . S
Mn36 O60 2.385 . S
Mn36 O61 2.209 . S
Mn36 O62 2.094 . S
Mn37 O42 2.121 . S
Mn37 N44 2.257 . S
Mn37 N53 2.282 . S
Mn37 O61 2.215 . S
Mn37 O63 2.117 . S
C38 O60 1.234 . S
C38 O61 1.283 . S
C39 O51 1.281 . S
C39 O52 1.236 . S
C40 O62 1.240 . S
C40 O63 1.264 . S
O41 Mn36 2.095 . S
O41 C50 1.250 . S
O42 Mn37 2.121 . S
O42 C50 1.258 . S
C43 N44 1.326 . S
C43 C47 1.460 . S
C43 H49 0.929 . S
N44 Mn37 2.257 . S
N44 C43 1.326 . S
N44 C48 1.362 . S
C45 C46 1.258 . S
C45 C48 1.431 . S
C45 C65 1.449 . S
C46 C45 1.258 . S
C46 C47 1.477 . S
C46 H66 0.931 . S
C47 C43 1.460 . S
C47 C46 1.477 . S
C47 H67 0.930 . S
C48 N44 1.362 . S
C48 C45 1.431 . S
C48 C58 1.476 . S
H49 C43 0.929 . S
C50 O41 1.250 . S
C50 O42 1.258 . S
O51 Mn36 2.162 . S
O51 C39 1.281 . S
O52 Mn36 2.297 . S
O52 C39 1.236 . S
N53 Mn37 2.282 . S
N53 C54 1.328 . S
N53 C58 1.318 . S
C54 N53 1.328 . S
C54 C55 1.457 . S
C54 H59 0.929 . S
C55 C54 1.457 . S
C55 C56 1.291 . S
C55 H68 0.931 . S
C56 C55 1.291 . S
C56 C57 1.373 . S
C56 H69 0.929 . S
C57 C56 1.373 . S
C57 C58 1.396 . S
C57 C64 1.403 . S
C58 C48 1.476 . S
C58 N53 1.318 . S
C58 C57 1.396 . S
H59 C54 0.929 . S
O60 Mn36 2.385 . S
O60 C38 1.234 . S
O61 Mn36 2.209 . S
O61 Mn37 2.215 . S
O61 C38 1.283 . S
O62 Mn36 2.094 . S
O62 C40 1.240 . S
O63 Mn37 2.117 . S
O63 C40 1.264 . S
C64 C57 1.403 . S
C64 C65 1.399 . S
C64 H70 0.929 . S
C65 C45 1.449 . S
C65 C64 1.399 . S
C65 H71 0.930 . S
H66 C46 0.931 . S
H67 C47 0.930 . S
H68 C55 0.931 . S
H69 C56 0.929 . S
H70 C64 0.929 . S
H71 C65 0.930 . S
Mn72 O77 2.095 . S
Mn72 O87 2.162 . S
Mn72 O88 2.297 . S
Mn72 O96 2.385 . S
Mn72 O97 2.209 . S
Mn72 O98 2.094 . S
Mn73 O78 2.121 . S
Mn73 N80 2.257 . S
Mn73 N89 2.282 . S
Mn73 O97 2.215 . S
Mn73 O99 2.117 . S
C74 O96 1.234 . S
C74 O97 1.283 . S
C75 O87 1.281 . S
C75 O88 1.236 . S
C76 O98 1.240 . S
C76 O99 1.264 . S
O77 Mn72 2.095 . S
O77 C86 1.250 . S
O78 Mn73 2.121 . S
O78 C86 1.258 . S
C79 N80 1.326 . S
C79 C83 1.460 . S
C79 H85 0.929 . S
N80 Mn73 2.257 . S
N80 C79 1.326 . S
N80 C84 1.362 . S
C81 C82 1.258 . S
C81 C84 1.431 . S
C81 C101 1.449 . S
C82 C81 1.258 . S
C82 C83 1.477 . S
C82 H102 0.931 . S
C83 C79 1.460 . S
C83 C82 1.477 . S
C83 H103 0.930 . S
C84 N80 1.362 . S
C84 C81 1.431 . S
C84 C94 1.476 . S
H85 C79 0.929 . S
C86 O77 1.250 . S
C86 O78 1.258 . S
O87 Mn72 2.162 . S
O87 C75 1.281 . S
O88 Mn72 2.297 . S
O88 C75 1.236 . S
N89 Mn73 2.282 . S
N89 C90 1.328 . S
N89 C94 1.318 . S
C90 N89 1.328 . S
C90 C91 1.457 . S
C90 H95 0.929 . S
C91 C90 1.457 . S
C91 C92 1.291 . S
C91 H104 0.931 . S
C92 C91 1.291 . S
C92 C93 1.373 . S
C92 H105 0.929 . S
C93 C92 1.373 . S
C93 C94 1.396 . S
C93 C100 1.403 . S
C94 C84 1.476 . S
C94 N89 1.318 . S
C94 C93 1.396 . S
H95 C90 0.929 . S
O96 Mn72 2.385 . S
O96 C74 1.234 . S
O97 Mn72 2.209 . S
O97 Mn73 2.215 . S
O97 C74 1.283 . S
O98 Mn72 2.094 . S
O98 C76 1.240 . S
O99 Mn73 2.117 . S
O99 C76 1.264 . S
C100 C93 1.403 . S
C100 C101 1.399 . S
C100 H106 0.929 . S
C101 C81 1.449 . S
C101 C100 1.399 . S
C101 H107 0.930 . S
H102 C82 0.931 . S
H103 C83 0.930 . S
H104 C91 0.931 . S
H105 C92 0.929 . S
H106 C100 0.929 . S
H107 C101 0.930 . S
Mn108 O113 2.095 . S
Mn108 O123 2.162 . S
Mn108 O124 2.297 . S
Mn108 O132 2.385 . S
Mn108 O133 2.209 . S
Mn108 O134 2.094 . S
Mn109 O114 2.121 . S
Mn109 N116 2.257 . S
Mn109 N125 2.282 . S
Mn109 O133 2.215 . S
Mn109 O135 2.117 . S
C110 O132 1.234 . S
C110 O133 1.283 . S
C111 O123 1.281 . S
C111 O124 1.236 . S
C112 O134 1.240 . S
C112 O135 1.264 . S
O113 Mn108 2.095 . S
O113 C122 1.250 . S
O114 Mn109 2.121 . S
O114 C122 1.258 . S
C115 N116 1.326 . S
C115 C119 1.460 . S
C115 H121 0.929 . S
N116 Mn109 2.257 . S
N116 C115 1.326 . S
N116 C120 1.362 . S
C117 C118 1.258 . S
C117 C120 1.431 . S
C117 C137 1.449 . S
C118 C117 1.258 . S
C118 C119 1.477 . S
C118 H138 0.931 . S
C119 C115 1.460 . S
C119 C118 1.477 . S
C119 H139 0.930 . S
C120 N116 1.362 . S
C120 C117 1.431 . S
C120 C130 1.476 . S
H121 C115 0.929 . S
C122 O113 1.250 . S
C122 O114 1.258 . S
O123 Mn108 2.162 . S
O123 C111 1.281 . S
O124 Mn108 2.297 . S
O124 C111 1.236 . S
N125 Mn109 2.282 . S
N125 C126 1.328 . S
N125 C130 1.318 . S
C126 N125 1.328 . S
C126 C127 1.457 . S
C126 H131 0.929 . S
C127 C126 1.457 . S
C127 C128 1.291 . S
C127 H140 0.931 . S
C128 C127 1.291 . S
C128 C129 1.373 . S
C128 H141 0.929 . S
C129 C128 1.373 . S
C129 C130 1.396 . S
C129 C136 1.403 . S
C130 C120 1.476 . S
C130 N125 1.318 . S
C130 C129 1.396 . S
H131 C126 0.929 . S
O132 Mn108 2.385 . S
O132 C110 1.234 . S
O133 Mn108 2.209 . S
O133 Mn109 2.215 . S
O133 C110 1.283 . S
O134 Mn108 2.094 . S
O134 C112 1.240 . S
O135 Mn109 2.117 . S
O135 C112 1.264 . S
C136 C129 1.403 . S
C136 C137 1.399 . S
C136 H142 0.929 . S
C137 C117 1.449 . S
C137 C136 1.399 . S
C137 H143 0.930 . S
H138 C118 0.931 . S
H139 C119 0.930 . S
H140 C127 0.931 . S
H141 C128 0.929 . S
H142 C136 0.929 . S
H143 C137 0.930 . S
Mn144 O149 2.095 . S
Mn144 O159 2.162 . S
Mn144 O160 2.297 . S
Mn144 O168 2.385 . S
Mn144 O169 2.209 . S
Mn144 O170 2.094 . S
Mn145 O150 2.121 . S
Mn145 N152 2.257 . S
Mn145 N161 2.282 . S
Mn145 O169 2.215 . S
Mn145 O171 2.117 . S
C146 O168 1.234 . S
C146 O169 1.283 . S
C147 O159 1.281 . S
C147 O160 1.236 . S
C148 O170 1.240 . S
C148 O171 1.264 . S
O149 Mn144 2.095 . S
O149 C158 1.250 . S
O150 Mn145 2.121 . S
O150 C158 1.258 . S
C151 N152 1.326 . S
C151 C155 1.460 . S
C151 H157 0.929 . S
N152 Mn145 2.257 . S
N152 C151 1.326 . S
N152 C156 1.362 . S
C153 C154 1.258 . S
C153 C156 1.431 . S
C153 C173 1.449 . S
C154 C153 1.258 . S
C154 C155 1.477 . S
C154 H174 0.931 . S
C155 C151 1.460 . S
C155 C154 1.477 . S
C155 H175 0.930 . S
C156 N152 1.362 . S
C156 C153 1.431 . S
C156 C166 1.476 . S
H157 C151 0.929 . S
C158 O149 1.250 . S
C158 O150 1.258 . S
O159 Mn144 2.162 . S
O159 C147 1.281 . S
O160 Mn144 2.297 . S
O160 C147 1.236 . S
N161 Mn145 2.282 . S
N161 C162 1.328 . S
N161 C166 1.318 . S
C162 N161 1.328 . S
C162 C163 1.457 . S
C162 H167 0.929 . S
C163 C162 1.457 . S
C163 C164 1.291 . S
C163 H176 0.931 . S
C164 C163 1.291 . S
C164 C165 1.373 . S
C164 H177 0.929 . S
C165 C164 1.373 . S
C165 C166 1.396 . S
C165 C172 1.403 . S
C166 C156 1.476 . S
C166 N161 1.318 . S
C166 C165 1.396 . S
H167 C162 0.929 . S
O168 Mn144 2.385 . S
O168 C146 1.234 . S
O169 Mn144 2.209 . S
O169 Mn145 2.215 . S
O169 C146 1.283 . S
O170 Mn144 2.094 . S
O170 C148 1.240 . S
O171 Mn145 2.117 . S
O171 C148 1.264 . S
C172 C165 1.403 . S
C172 C173 1.399 . S
C172 H178 0.929 . S
C173 C153 1.449 . S
C173 C172 1.399 . S
C173 H179 0.930 . S
H174 C154 0.931 . S
H175 C155 0.930 . S
H176 C163 0.931 . S
H177 C164 0.929 . S
H178 C172 0.929 . S
H179 C173 0.930 . S
Mn180 O185 2.095 . S
Mn180 O195 2.162 . S
Mn180 O196 2.297 . S
Mn180 O204 2.356 1_556 S
Mn180 O205 2.209 . S
Mn180 O206 2.094 . S
Mn181 O186 2.121 . S
Mn181 N188 2.257 . S
Mn181 N197 2.282 . S
Mn181 O205 2.215 . S
Mn181 O207 2.117 . S
C182 O204 1.243 . S
C182 O205 1.283 1_554 S
C183 O195 1.281 . S
C183 O196 1.236 . S
C184 O206 1.240 . S
C184 O207 1.264 . S
O185 Mn180 2.095 . S
O185 C194 1.250 . S
O186 Mn181 2.121 . S
O186 C194 1.258 . S
C187 N188 1.326 . S
C187 C191 1.460 1_556 S
C187 H193 0.929 . S
N188 Mn181 2.257 . S
N188 C187 1.326 . S
N188 C192 1.362 1_556 S
C189 C190 1.258 . S
C189 C192 1.431 . S
C189 C209 1.449 . S
C190 C189 1.258 . S
C190 C191 1.477 . S
C190 H210 0.931 . S
C191 C187 1.460 1_554 S
C191 C190 1.477 . S
C191 H211 0.930 . S
C192 N188 1.362 1_554 S
C192 C189 1.431 . S
C192 C202 1.481 . S
H193 C187 0.929 . S
C194 O185 1.250 . S
C194 O186 1.258 . S
O195 Mn180 2.162 . S
O195 C183 1.281 . S
O196 Mn180 2.297 . S
O196 C183 1.236 . S
N197 Mn181 2.282 . S
N197 C198 1.328 . S
N197 C202 1.293 1_556 S
C198 N197 1.328 . S
C198 C199 1.457 . S
C198 H203 0.929 . S
C199 C198 1.457 . S
C199 C200 1.291 1_556 S
C199 H212 0.931 . S
C200 C199 1.291 1_554 S
C200 C201 1.373 . S
C200 H213 0.929 . S
C201 C200 1.373 . S
C201 C202 1.415 . S
C201 C208 1.403 . S
C202 C192 1.481 . S
C202 N197 1.293 1_554 S
C202 C201 1.415 . S
H203 C198 0.929 . S
O204 Mn180 2.356 1_554 S
O204 C182 1.243 . S
O205 Mn180 2.209 . S
O205 Mn181 2.215 . S
O205 C182 1.283 1_556 S
O206 Mn180 2.094 . S
O206 C184 1.240 . S
O207 Mn181 2.117 . S
O207 C184 1.264 . S
C208 C201 1.403 . S
C208 C209 1.399 . S
C208 H214 0.929 . S
C209 C189 1.449 . S
C209 C208 1.399 . S
C209 H215 0.930 . S
H210 C190 0.931 . S
H211 C191 0.930 . S
H212 C199 0.931 . S
H213 C200 0.929 . S
H214 C208 0.929 . S
H215 C209 0.930 . S
Mn216 O221 2.095 . S
Mn216 O231 2.162 . S
Mn216 O232 2.297 . S
Mn216 O240 2.385 . S
Mn216 O241 2.209 . S
Mn216 O242 2.094 . S
Mn217 O222 2.121 . S
Mn217 N224 2.257 . S
Mn217 N233 2.282 . S
Mn217 O241 2.215 . S
Mn217 O243 2.117 . S
C218 O240 1.234 . S
C218 O241 1.283 . S
C219 O231 1.281 . S
C219 O232 1.236 . S
C220 O242 1.240 . S
C220 O243 1.264 . S
O221 Mn216 2.095 . S
O221 C230 1.250 . S
O222 Mn217 2.121 . S
O222 C230 1.258 . S
C223 N224 1.326 . S
C223 C227 1.460 . S
C223 H229 0.929 . S
N224 Mn217 2.257 . S
N224 C223 1.326 . S
N224 C228 1.362 . S
C225 C226 1.258 . S
C225 C228 1.431 . S
C225 C245 1.449 . S
C226 C225 1.258 . S
C226 C227 1.477 . S
C226 H246 0.931 . S
C227 C223 1.460 . S
C227 C226 1.477 . S
C227 H247 0.930 . S
C228 N224 1.362 . S
C228 C225 1.431 . S
C228 C238 1.476 . S
H229 C223 0.929 . S
C230 O221 1.250 . S
C230 O222 1.258 . S
O231 Mn216 2.162 . S
O231 C219 1.281 . S
O232 Mn216 2.297 . S
O232 C219 1.236 . S
N233 Mn217 2.282 . S
N233 C234 1.328 . S
N233 C238 1.318 . S
C234 N233 1.328 . S
C234 C235 1.457 . S
C234 H239 0.929 . S
C235 C234 1.457 . S
C235 C236 1.291 . S
C235 H248 0.931 . S
C236 C235 1.291 . S
C236 C237 1.373 . S
C236 H249 0.929 . S
C237 C236 1.373 . S
C237 C238 1.396 . S
C237 C244 1.403 . S
C238 C228 1.476 . S
C238 N233 1.318 . S
C238 C237 1.396 . S
H239 C234 0.929 . S
O240 Mn216 2.385 . S
O240 C218 1.234 . S
O241 Mn216 2.209 . S
O241 Mn217 2.215 . S
O241 C218 1.283 . S
O242 Mn216 2.094 . S
O242 C220 1.240 . S
O243 Mn217 2.117 . S
O243 C220 1.264 . S
C244 C237 1.403 . S
C244 C245 1.399 . S
C244 H250 0.929 . S
C245 C225 1.449 . S
C245 C244 1.399 . S
C245 H251 0.930 . S
H246 C226 0.931 . S
H247 C227 0.930 . S
H248 C235 0.931 . S
H249 C236 0.929 . S
H250 C244 0.929 . S
H251 C245 0.930 . S
Mn252 O257 2.095 . S
Mn252 O267 2.162 . S
Mn252 O268 2.297 . S
Mn252 O276 2.385 . S
Mn252 O277 2.209 . S
Mn252 O278 2.094 . S
Mn253 O258 2.121 . S
Mn253 N260 2.257 . S
Mn253 N269 2.282 . S
Mn253 O277 2.215 . S
Mn253 O279 2.117 . S
C254 O276 1.234 . S
C254 O277 1.283 . S
C255 O267 1.281 . S
C255 O268 1.236 . S
C256 O278 1.240 . S
C256 O279 1.264 . S
O257 Mn252 2.095 . S
O257 C266 1.250 . S
O258 Mn253 2.121 . S
O258 C266 1.258 . S
C259 N260 1.326 . S
C259 C263 1.460 . S
C259 H265 0.929 . S
N260 Mn253 2.257 . S
N260 C259 1.326 . S
N260 C264 1.362 . S
C261 C262 1.258 . S
C261 C264 1.431 . S
C261 C281 1.449 . S
C262 C261 1.258 . S
C262 C263 1.477 . S
C262 H282 0.931 . S
C263 C259 1.460 . S
C263 C262 1.477 . S
C263 H283 0.930 . S
C264 N260 1.362 . S
C264 C261 1.431 . S
C264 C274 1.476 . S
H265 C259 0.929 . S
C266 O257 1.250 . S
C266 O258 1.258 . S
O267 Mn252 2.162 . S
O267 C255 1.281 . S
O268 Mn252 2.297 . S
O268 C255 1.236 . S
N269 Mn253 2.282 . S
N269 C270 1.328 . S
N269 C274 1.318 . S
C270 N269 1.328 . S
C270 C271 1.457 . S
C270 H275 0.929 . S
C271 C270 1.457 . S
C271 C272 1.291 . S
C271 H284 0.931 . S
C272 C271 1.291 . S
C272 C273 1.373 . S
C272 H285 0.929 . S
C273 C272 1.373 . S
C273 C274 1.396 . S
C273 C280 1.403 . S
C274 C264 1.476 . S
C274 N269 1.318 . S
C274 C273 1.396 . S
H275 C270 0.929 . S
O276 Mn252 2.385 . S
O276 C254 1.234 . S
O277 Mn252 2.209 . S
O277 Mn253 2.215 . S
O277 C254 1.283 . S
O278 Mn252 2.094 . S
O278 C256 1.240 . S
O279 Mn253 2.117 . S
O279 C256 1.264 . S
C280 C273 1.403 . S
C280 C281 1.399 . S
C280 H286 0.929 . S
C281 C261 1.449 . S
C281 C280 1.399 . S
C281 H287 0.930 . S
H282 C262 0.931 . S
H283 C263 0.930 . S
H284 C271 0.931 . S
H285 C272 0.929 . S
H286 C280 0.929 . S
H287 C281 0.930 . S
Mn288 O293 2.095 . S
Mn288 O303 2.162 . S
Mn288 O304 2.297 . S
Mn288 O312 2.356 1_554 S
Mn288 O313 2.209 . S
Mn288 O314 2.094 . S
Mn289 O294 2.121 . S
Mn289 N296 2.257 . S
Mn289 N305 2.282 . S
Mn289 O313 2.215 . S
Mn289 O315 2.117 . S
C290 O312 1.243 . S
C290 O313 1.283 1_556 S
C291 O303 1.281 . S
C291 O304 1.236 . S
C292 O314 1.240 . S
C292 O315 1.264 . S
O293 Mn288 2.095 . S
O293 C302 1.250 . S
O294 Mn289 2.121 . S
O294 C302 1.258 . S
C295 N296 1.326 . S
C295 C299 1.460 1_554 S
C295 H301 0.929 . S
N296 Mn289 2.257 . S
N296 C295 1.326 . S
N296 C300 1.362 1_554 S
C297 C298 1.258 . S
C297 C300 1.431 . S
C297 C317 1.449 . S
C298 C297 1.258 . S
C298 C299 1.477 . S
C298 H318 0.931 . S
C299 C295 1.460 1_556 S
C299 C298 1.477 . S
C299 H319 0.930 . S
C300 N296 1.362 1_556 S
C300 C297 1.431 . S
C300 C310 1.481 . S
H301 C295 0.929 . S
C302 O293 1.250 . S
C302 O294 1.258 . S
O303 Mn288 2.162 . S
O303 C291 1.281 . S
O304 Mn288 2.297 . S
O304 C291 1.236 . S
N305 Mn289 2.282 . S
N305 C306 1.328 . S
N305 C310 1.294 1_554 S
C306 N305 1.328 . S
C306 C307 1.457 . S
C306 H311 0.929 . S
C307 C306 1.457 . S
C307 C308 1.291 1_554 S
C307 H320 0.931 . S
C308 C307 1.291 1_556 S
C308 C309 1.373 . S
C308 H321 0.929 . S
C309 C308 1.373 . S
C309 C310 1.414 . S
C309 C316 1.403 . S
C310 C300 1.481 . S
C310 N305 1.294 1_556 S
C310 C309 1.414 . S
H311 C306 0.929 . S
O312 Mn288 2.356 1_556 S
O312 C290 1.243 . S
O313 Mn288 2.209 . S
O313 Mn289 2.215 . S
O313 C290 1.283 1_554 S
O314 Mn288 2.094 . S
O314 C292 1.240 . S
O315 Mn289 2.117 . S
O315 C292 1.264 . S
C316 C309 1.403 . S
C316 C317 1.399 . S
C316 H322 0.929 . S
C317 C297 1.449 . S
C317 C316 1.399 . S
C317 H323 0.930 . S
H318 C298 0.931 . S
H319 C299 0.930 . S
H320 C307 0.931 . S
H321 C308 0.929 . S
H322 C316 0.929 . S
H323 C317 0.930 . S
Mn324 O329 2.095 . S
Mn324 O339 2.162 . S
Mn324 O340 2.297 . S
Mn324 O348 2.385 . S
Mn324 O349 2.209 . S
Mn324 O350 2.094 . S
Mn325 O330 2.121 . S
Mn325 N332 2.257 . S
Mn325 N341 2.282 . S
Mn325 O349 2.215 . S
Mn325 O351 2.117 . S
C326 O348 1.234 . S
C326 O349 1.283 . S
C327 O339 1.281 . S
C327 O340 1.236 . S
C328 O350 1.240 . S
C328 O351 1.264 . S
O329 Mn324 2.095 . S
O329 C338 1.250 . S
O330 Mn325 2.121 . S
O330 C338 1.258 . S
C331 N332 1.326 . S
C331 C335 1.460 . S
C331 H337 0.929 . S
N332 Mn325 2.257 . S
N332 C331 1.326 . S
N332 C336 1.362 . S
C333 C334 1.258 . S
C333 C336 1.431 . S
C333 C353 1.449 . S
C334 C333 1.258 . S
C334 C335 1.477 . S
C334 H354 0.931 . S
C335 C331 1.460 . S
C335 C334 1.477 . S
C335 H355 0.930 . S
C336 N332 1.362 . S
C336 C333 1.431 . S
C336 C346 1.476 . S
H337 C331 0.929 . S
C338 O329 1.250 . S
C338 O330 1.258 . S
O339 Mn324 2.162 . S
O339 C327 1.281 . S
O340 Mn324 2.297 . S
O340 C327 1.236 . S
N341 Mn325 2.282 . S
N341 C342 1.328 . S
N341 C346 1.318 . S
C342 N341 1.328 . S
C342 C343 1.457 . S
C342 H347 0.929 . S
C343 C342 1.457 . S
C343 C344 1.291 . S
C343 H356 0.931 . S
C344 C343 1.291 . S
C344 C345 1.373 . S
C344 H357 0.929 . S
C345 C344 1.373 . S
C345 C346 1.396 . S
C345 C352 1.403 . S
C346 C336 1.476 . S
C346 N341 1.318 . S
C346 C345 1.396 . S
H347 C342 0.929 . S
O348 Mn324 2.385 . S
O348 C326 1.234 . S
O349 Mn324 2.209 . S
O349 Mn325 2.215 . S
O349 C326 1.283 . S
O350 Mn324 2.094 . S
O350 C328 1.240 . S
O351 Mn325 2.117 . S
O351 C328 1.264 . S
C352 C345 1.403 . S
C352 C353 1.399 . S
C352 H358 0.929 . S
C353 C333 1.449 . S
C353 C352 1.399 . S
C353 H359 0.930 . S
H354 C334 0.931 . S
H355 C335 0.930 . S
H356 C343 0.931 . S
H357 C344 0.929 . S
H358 C352 0.929 . S
H359 C353 0.930 . S
Mn360 O365 2.095 . S
Mn360 O375 2.162 . S
Mn360 O376 2.297 . S
Mn360 O384 2.385 . S
Mn360 O385 2.209 . S
Mn360 O386 2.094 . S
Mn361 O366 2.121 . S
Mn361 N368 2.257 . S
Mn361 N377 2.282 . S
Mn361 O385 2.215 . S
Mn361 O387 2.117 . S
C362 O384 1.234 . S
C362 O385 1.283 . S
C363 O375 1.281 . S
C363 O376 1.236 . S
C364 O386 1.240 . S
C364 O387 1.264 . S
O365 Mn360 2.095 . S
O365 C374 1.250 . S
O366 Mn361 2.121 . S
O366 C374 1.258 . S
C367 N368 1.326 . S
C367 C371 1.460 . S
C367 H373 0.929 . S
N368 Mn361 2.257 . S
N368 C367 1.326 . S
N368 C372 1.362 . S
C369 C370 1.258 . S
C369 C372 1.431 . S
C369 C389 1.449 . S
C370 C369 1.258 . S
C370 C371 1.477 . S
C370 H390 0.931 . S
C371 C367 1.460 . S
C371 C370 1.477 . S
C371 H391 0.930 . S
C372 N368 1.362 . S
C372 C369 1.431 . S
C372 C382 1.476 . S
H373 C367 0.929 . S
C374 O365 1.250 . S
C374 O366 1.258 . S
O375 Mn360 2.162 . S
O375 C363 1.281 . S
O376 Mn360 2.297 . S
O376 C363 1.236 . S
N377 Mn361 2.282 . S
N377 C378 1.328 . S
N377 C382 1.318 . S
C378 N377 1.328 . S
C378 C379 1.457 . S
C378 H383 0.929 . S
C379 C378 1.457 . S
C379 C380 1.291 . S
C379 H392 0.931 . S
C380 C379 1.291 . S
C380 C381 1.373 . S
C380 H393 0.929 . S
C381 C380 1.373 . S
C381 C382 1.396 . S
C381 C388 1.403 . S
C382 C372 1.476 . S
C382 N377 1.318 . S
C382 C381 1.396 . S
H383 C378 0.929 . S
O384 Mn360 2.385 . S
O384 C362 1.234 . S
O385 Mn360 2.209 . S
O385 Mn361 2.215 . S
O385 C362 1.283 . S
O386 Mn360 2.094 . S
O386 C364 1.240 . S
O387 Mn361 2.117 . S
O387 C364 1.264 . S
C388 C381 1.403 . S
C388 C389 1.399 . S
C388 H394 0.929 . S
C389 C369 1.449 . S
C389 C388 1.399 . S
C389 H395 0.930 . S
H390 C370 0.931 . S
H391 C371 0.930 . S
H392 C379 0.931 . S
H393 C380 0.929 . S
H394 C388 0.929 . S
H395 C389 0.930 . S
Mn396 O401 2.095 . S
Mn396 O411 2.162 . S
Mn396 O412 2.297 . S
Mn396 O420 2.385 . S
Mn396 O421 2.209 . S
Mn396 O422 2.094 . S
Mn397 O402 2.121 . S
Mn397 N404 2.257 . S
Mn397 N413 2.282 . S
Mn397 O421 2.215 . S
Mn397 O423 2.117 . S
C398 O420 1.234 . S
C398 O421 1.283 . S
C399 O411 1.281 . S
C399 O412 1.236 . S
C400 O422 1.240 . S
C400 O423 1.264 . S
O401 Mn396 2.095 . S
O401 C410 1.250 . S
O402 Mn397 2.121 . S
O402 C410 1.258 . S
C403 N404 1.326 . S
C403 C407 1.460 . S
C403 H409 0.929 . S
N404 Mn397 2.257 . S
N404 C403 1.326 . S
N404 C408 1.362 . S
C405 C406 1.258 . S
C405 C408 1.431 . S
C405 C425 1.449 . S
C406 C405 1.258 . S
C406 C407 1.477 . S
C406 H426 0.931 . S
C407 C403 1.460 . S
C407 C406 1.477 . S
C407 H427 0.930 . S
C408 N404 1.362 . S
C408 C405 1.431 . S
C408 C418 1.476 . S
H409 C403 0.929 . S
C410 O401 1.250 . S
C410 O402 1.258 . S
O411 Mn396 2.162 . S
O411 C399 1.281 . S
O412 Mn396 2.297 . S
O412 C399 1.236 . S
N413 Mn397 2.282 . S
N413 C414 1.328 . S
N413 C418 1.318 . S
C414 N413 1.328 . S
C414 C415 1.457 . S
C414 H419 0.929 . S
C415 C414 1.457 . S
C415 C416 1.291 . S
C415 H428 0.931 . S
C416 C415 1.291 . S
C416 C417 1.373 . S
C416 H429 0.929 . S
C417 C416 1.373 . S
C417 C418 1.396 . S
C417 C424 1.403 . S
C418 C408 1.476 . S
C418 N413 1.318 . S
C418 C417 1.396 . S
H419 C414 0.929 . S
O420 Mn396 2.385 . S
O420 C398 1.234 . S
O421 Mn396 2.209 . S
O421 Mn397 2.215 . S
O421 C398 1.283 . S
O422 Mn396 2.094 . S
O422 C400 1.240 . S
O423 Mn397 2.117 . S
O423 C400 1.264 . S
C424 C417 1.403 . S
C424 C425 1.399 . S
C424 H430 0.929 . S
C425 C405 1.449 . S
C425 C424 1.399 . S
C425 H431 0.930 . S
H426 C406 0.931 . S
H427 C407 0.930 . S
H428 C415 0.931 . S
H429 C416 0.929 . S
H430 C424 0.929 . S
H431 C425 0.930 . S
H432 C438 0.930 . S
H433 C442 0.930 . S
H434 C447 0.929 . S
H435 C445 0.929 . S
H436 C440 0.929 . S
H437 C446 0.929 . S
C438 H432 0.930 . S
C438 C439 1.367 . S
C438 C446 1.378 . S
C439 C438 1.367 . S
C439 C447 1.433 . S
C440 H436 0.929 . S
C440 C442 1.378 . S
C440 C444 1.350 . S
C441 C444 1.463 . S
C441 C446 1.350 . S
C441 N449 1.427 . S
C442 H433 0.930 . S
C442 C440 1.378 . S
C442 C443 1.367 . S
C443 C442 1.367 . S
C443 C445 1.433 . S
C444 C440 1.350 . S
C444 C441 1.463 . S
C444 N448 1.427 . S
C445 H435 0.929 . S
C445 C443 1.433 . S
C445 N448 1.384 . S
C446 H437 0.929 . S
C446 C438 1.378 . S
C446 C441 1.350 . S
C447 H434 0.929 . S
C447 C439 1.433 . S
C447 N449 1.384 . S
N448 C444 1.427 . S
N448 C445 1.384 . S
N449 C441 1.427 . S
N449 C447 1.384 . S
H450 C456 0.930 . S
H451 C460 0.930 . S
H452 C465 0.929 . S
H453 C463 0.929 . S
H454 C458 0.929 . S
H455 C464 0.929 . S
C456 H450 0.930 . S
C456 C457 1.367 . S
C456 C464 1.378 . S
C457 C456 1.367 . S
C457 C465 1.433 . S
C458 H454 0.929 . S
C458 C460 1.378 . S
C458 C462 1.350 . S
C459 C462 1.463 . S
C459 C464 1.350 . S
C459 N467 1.427 . S
C460 H451 0.930 . S
C460 C458 1.378 . S
C460 C461 1.367 . S
C461 C460 1.367 . S
C461 C463 1.433 . S
C462 C458 1.350 . S
C462 C459 1.463 . S
C462 N466 1.427 . S
C463 H453 0.929 . S
C463 C461 1.433 . S
C463 N466 1.384 . S
C464 H455 0.929 . S
C464 C456 1.378 . S
C464 C459 1.350 . S
C465 H452 0.929 . S
C465 C457 1.433 . S
C465 N467 1.384 . S
N466 C462 1.427 . S
N466 C463 1.384 . S
N467 C459 1.427 . S
N467 C465 1.384 . S
H468 C474 0.930 . S
H469 C478 0.930 . S
H470 C483 0.929 . S
H471 C481 0.929 . S
H472 C476 0.929 . S
H473 C482 0.929 . S
C474 H468 0.930 . S
C474 C475 1.367 . S
C474 C482 1.378 . S
C475 C474 1.367 . S
C475 C483 1.433 . S
C476 H472 0.929 . S
C476 C478 1.378 . S
C476 C480 1.350 . S
C477 C480 1.463 . S
C477 C482 1.350 . S
C477 N485 1.427 . S
C478 H469 0.930 . S
C478 C476 1.378 . S
C478 C479 1.367 . S
C479 C478 1.367 . S
C479 C481 1.433 . S
C480 C476 1.350 . S
C480 C477 1.463 . S
C480 N484 1.427 . S
C481 H471 0.929 . S
C481 C479 1.433 . S
C481 N484 1.384 . S
C482 H473 0.929 . S
C482 C474 1.378 . S
C482 C477 1.350 . S
C483 H470 0.929 . S
C483 C475 1.433 . S
C483 N485 1.384 . S
N484 C480 1.427 . S
N484 C481 1.384 . S
N485 C477 1.427 . S
N485 C483 1.384 . S
H486 C492 0.930 . S
H487 C496 0.930 . S
H488 C501 0.929 . S
H489 C499 0.929 . S
H490 C494 0.929 . S
H491 C500 0.929 . S
C492 H486 0.930 . S
C492 C493 1.367 . S
C492 C500 1.378 . S
C493 C492 1.367 . S
C493 C501 1.433 . S
C494 H490 0.929 . S
C494 C496 1.378 . S
C494 C498 1.350 . S
C495 C498 1.463 . S
C495 C500 1.350 . S
C495 N503 1.427 . S
C496 H487 0.930 . S
C496 C494 1.378 . S
C496 C497 1.367 . S
C497 C496 1.367 . S
C497 C499 1.433 . S
C498 C494 1.350 . S
C498 C495 1.463 . S
C498 N502 1.427 . S
C499 H489 0.929 . S
C499 C497 1.433 . S
C499 N502 1.384 . S
C500 H491 0.929 . S
C500 C492 1.378 . S
C500 C495 1.350 . S
C501 H488 0.929 . S
C501 C493 1.433 . S
C501 N503 1.384 . S
N502 C498 1.427 . S
N502 C499 1.384 . S
N503 C495 1.427 . S
N503 C501 1.384 . S
H504 C510 0.930 . S
H505 C514 0.930 . S
H506 C519 0.929 . S
H507 C517 0.929 . S
H508 C512 0.929 . S
H509 C518 0.929 . S
C510 H504 0.930 . S
C510 C511 1.367 . S
C510 C518 1.378 . S
C511 C510 1.367 . S
C511 C519 1.433 . S
C512 H508 0.929 . S
C512 C514 1.378 . S
C512 C516 1.350 . S
C513 C516 1.463 . S
C513 C518 1.350 . S
C513 N521 1.427 . S
C514 H505 0.930 . S
C514 C512 1.378 . S
C514 C515 1.367 . S
C515 C514 1.367 . S
C515 C517 1.433 . S
C516 C512 1.350 . S
C516 C513 1.463 . S
C516 N520 1.427 . S
C517 H507 0.929 . S
C517 C515 1.433 . S
C517 N520 1.384 . S
C518 H509 0.929 . S
C518 C510 1.378 . S
C518 C513 1.350 . S
C519 H506 0.929 . S
C519 C511 1.433 . S
C519 N521 1.384 . S
N520 C516 1.427 . S
N520 C517 1.384 . S
N521 C513 1.427 . S
N521 C519 1.384 . S
H522 C528 0.930 . S
H523 C532 0.930 . S
H524 C537 0.929 . S
H525 C535 0.929 . S
H526 C530 0.929 . S
H527 C536 0.929 . S
C528 H522 0.930 . S
C528 C529 1.367 . S
C528 C536 1.378 . S
C529 C528 1.367 . S
C529 C537 1.433 . S
C530 H526 0.929 . S
C530 C532 1.378 . S
C530 C534 1.350 . S
C531 C534 1.463 . S
C531 C536 1.350 . S
C531 N539 1.427 . S
C532 H523 0.930 . S
C532 C530 1.378 . S
C532 C533 1.367 . S
C533 C532 1.367 . S
C533 C535 1.433 . S
C534 C530 1.350 . S
C534 C531 1.463 . S
C534 N538 1.427 . S
C535 H525 0.929 . S
C535 C533 1.433 . S
C535 N538 1.384 . S
C536 H527 0.929 . S
C536 C528 1.378 . S
C536 C531 1.350 . S
C537 H524 0.929 . S
C537 C529 1.433 . S
C537 N539 1.384 . S
N538 C534 1.427 . S
N538 C535 1.384 . S
N539 C531 1.427 . S
N539 C537 1.384 . S
H540 C546 0.930 . S
H541 C550 0.930 . S
H542 C555 0.929 . S
H543 C553 0.929 . S
H544 C548 0.929 . S
H545 C554 0.929 . S
C546 H540 0.930 . S
C546 C547 1.367 . S
C546 C554 1.378 . S
C547 C546 1.367 . S
C547 C555 1.433 . S
C548 H544 0.929 . S
C548 C550 1.378 1_554 S
C548 C552 1.350 . S
C549 C552 1.463 . S
C549 C554 1.350 . S
C549 N557 1.427 . S
C550 H541 0.930 . S
C550 C548 1.378 1_556 S
C550 C551 1.366 1_556 S
C551 C550 1.366 1_554 S
C551 C553 1.444 . S
C552 C548 1.350 . S
C552 C549 1.463 . S
C552 N556 1.427 . S
C553 H543 0.929 . S
C553 C551 1.444 . S
C553 N556 1.384 . S
C554 H545 0.929 . S
C554 C546 1.378 . S
C554 C549 1.350 . S
C555 H542 0.929 . S
C555 C547 1.433 . S
C555 N557 1.384 . S
N556 C552 1.427 . S
N556 C553 1.384 . S
N557 C549 1.427 . S
N557 C555 1.384 . S
H558 C564 0.930 . S
H559 C568 0.930 . S
H560 C573 0.929 . S
H561 C571 0.929 . S
H562 C566 0.929 . S
H563 C572 0.929 . S
C564 H558 0.930 . S
C564 C565 1.367 . S
C564 C572 1.378 . S
C565 C564 1.367 . S
C565 C573 1.433 . S
C566 H562 0.929 . S
C566 C568 1.378 . S
C566 C570 1.350 . S
C567 C570 1.463 . S
C567 C572 1.350 . S
C567 N575 1.427 . S
C568 H559 0.930 . S
C568 C566 1.378 . S
C568 C569 1.367 . S
C569 C568 1.367 . S
C569 C571 1.433 . S
C570 C566 1.350 . S
C570 C567 1.463 . S
C570 N574 1.427 . S
C571 H561 0.929 . S
C571 C569 1.433 . S
C571 N574 1.384 . S
C572 H563 0.929 . S
C572 C564 1.378 . S
C572 C567 1.350 . S
C573 H560 0.929 . S
C573 C565 1.433 . S
C573 N575 1.384 . S
N574 C570 1.427 . S
N574 C571 1.384 . S
N575 C567 1.427 . S
N575 C573 1.384 . S
H576 C582 0.930 . S
H577 C586 0.930 . S
H578 C591 0.929 . S
H579 C589 0.929 1_545 S
H580 C584 0.929 . S
H581 C590 0.929 . S
C582 H576 0.930 . S
C582 C583 1.367 . S
C582 C590 1.378 . S
C583 C582 1.367 . S
C583 C591 1.433 . S
C584 H580 0.929 . S
C584 C586 1.378 . S
C584 C588 1.350 . S
C585 C588 1.463 . S
C585 C590 1.350 . S
C585 N593 1.427 . S
C586 H577 0.930 . S
C586 C584 1.378 . S
C586 C587 1.367 . S
C587 C586 1.367 . S
C587 C589 1.433 . S
C588 C584 1.350 . S
C588 C585 1.463 . S
C588 N592 1.427 . S
C589 H579 0.929 1_565 S
C589 C587 1.433 . S
C589 N592 1.384 . S
C590 H581 0.929 . S
C590 C582 1.378 . S
C590 C585 1.350 . S
C591 H578 0.929 . S
C591 C583 1.433 . S
C591 N593 1.384 . S
N592 C588 1.427 . S
N592 C589 1.384 . S
N593 C585 1.427 . S
N593 C591 1.384 . S
H594 C600 0.930 . S
H595 C604 0.930 . S
H596 C609 0.929 . S
H597 C607 0.929 . S
H598 C602 0.929 . S
H599 C608 0.929 . S
C600 H594 0.930 . S
C600 C601 1.367 . S
C600 C608 1.378 . S
C601 C600 1.367 . S
C601 C609 1.433 . S
C602 H598 0.929 . S
C602 C604 1.378 . S
C602 C606 1.350 . S
C603 C606 1.463 . S
C603 C608 1.350 . S
C603 N611 1.427 . S
C604 H595 0.930 . S
C604 C602 1.378 . S
C604 C605 1.367 . S
C605 C604 1.367 . S
C605 C607 1.433 . S
C606 C602 1.350 . S
C606 C603 1.463 . S
C606 N610 1.427 . S
C607 H597 0.929 . S
C607 C605 1.433 . S
C607 N610 1.384 . S
C608 H599 0.929 . S
C608 C600 1.378 . S
C608 C603 1.350 . S
C609 H596 0.929 . S
C609 C601 1.433 . S
C609 N611 1.384 . S
N610 C606 1.427 . S
N610 C607 1.384 . S
N611 C603 1.427 . S
N611 C609 1.384 . S
H612 C618 0.930 . S
H613 C622 0.930 . S
H614 C627 0.929 . S
H615 C625 0.929 . S
H616 C620 0.929 . S
H617 C626 0.929 . S
C618 H612 0.930 . S
C618 C619 1.367 . S
C618 C626 1.378 . S
C619 C618 1.367 . S
C619 C627 1.433 . S
C620 H616 0.929 . S
C620 C622 1.378 . S
C620 C624 1.350 . S
C621 C624 1.463 . S
C621 C626 1.350 . S
C621 N629 1.427 . S
C622 H613 0.930 . S
C622 C620 1.378 . S
C622 C623 1.367 . S
C623 C622 1.367 . S
C623 C625 1.433 . S
C624 C620 1.350 . S
C624 C621 1.463 . S
C624 N628 1.427 . S
C625 H615 0.929 . S
C625 C623 1.433 . S
C625 N628 1.384 . S
C626 H617 0.929 . S
C626 C618 1.378 . S
C626 C621 1.350 . S
C627 H614 0.929 . S
C627 C619 1.433 . S
C627 N629 1.384 . S
N628 C624 1.427 . S
N628 C625 1.384 . S
N629 C621 1.427 . S
N629 C627 1.384 . S
H630 C636 0.930 . S
H631 C640 0.930 . S
H632 C645 0.929 . S
H633 C643 0.929 . S
H634 C638 0.929 . S
H635 C644 0.929 . S
C636 H630 0.930 . S
C636 C637 1.367 . S
C636 C644 1.378 . S
C637 C636 1.367 . S
C637 C645 1.433 . S
C638 H634 0.929 . S
C638 C640 1.378 . S
C638 C642 1.350 . S
C639 C642 1.463 . S
C639 C644 1.350 . S
C639 N647 1.427 . S
C640 H631 0.930 . S
C640 C638 1.378 . S
C640 C641 1.367 . S
C641 C640 1.367 . S
C641 C643 1.433 . S
C642 C638 1.350 . S
C642 C639 1.463 . S
C642 N646 1.427 . S
C643 H633 0.929 . S
C643 C641 1.433 . S
C643 N646 1.384 . S
C644 H635 0.929 . S
C644 C636 1.378 . S
C644 C639 1.350 . S
C645 H632 0.929 . S
C645 C637 1.433 . S
C645 N647 1.384 . S
N646 C642 1.427 . S
N646 C643 1.384 . S
N647 C639 1.427 . S
N647 C645 1.384 . S
H648 C654 0.930 . S
H649 C658 0.930 . S
H650 C663 0.929 . S
H651 C661 0.929 . S
H652 C656 0.929 . S
H653 C662 0.929 . S
C654 H648 0.930 . S
C654 C655 1.367 . S
C654 C662 1.378 . S
C655 C654 1.367 . S
C655 C663 1.433 . S
C656 H652 0.929 . S
C656 C658 1.378 . S
C656 C660 1.350 . S
C657 C660 1.463 . S
C657 C662 1.350 . S
C657 N665 1.427 . S
C658 H649 0.930 . S
C658 C656 1.378 . S
C658 C659 1.367 . S
C659 C658 1.367 . S
C659 C661 1.433 . S
C660 C656 1.350 . S
C660 C657 1.463 . S
C660 N664 1.427 . S
C661 H651 0.929 . S
C661 C659 1.433 . S
C661 N664 1.384 . S
C662 H653 0.929 . S
C662 C654 1.378 . S
C662 C657 1.350 . S
C663 H650 0.929 . S
C663 C655 1.433 . S
C663 N665 1.384 . S
N664 C660 1.427 . S
N664 C661 1.384 . S
N665 C657 1.427 . S
N665 C663 1.384 . S
H666 C672 0.930 . S
H667 C676 0.930 . S
H668 C681 0.929 . S
H669 C679 0.908 1_554 S
H670 C674 0.929 . S
H671 C680 0.929 . S
C672 H666 0.930 . S
C672 C673 1.367 . S
C672 C680 1.378 . S
C673 C672 1.367 . S
C673 C681 1.433 . S
C674 H670 0.929 . S
C674 C676 1.378 . S
C674 C678 1.350 . S
C675 C678 1.463 . S
C675 C680 1.350 . S
C675 N683 1.427 . S
C676 H667 0.930 . S
C676 C674 1.378 . S
C676 C677 1.387 . S
C677 C676 1.387 . S
C677 C679 1.433 . S
C678 C674 1.350 . S
C678 C675 1.463 . S
C678 N682 1.427 . S
C679 H669 0.908 1_556 S
C679 C677 1.433 . S
C679 N682 1.407 . S
C680 H671 0.929 . S
C680 C672 1.378 . S
C680 C675 1.350 . S
C681 H668 0.929 . S
C681 C673 1.433 . S
C681 N683 1.384 . S
N682 C678 1.427 . S
N682 C679 1.407 . S
N683 C675 1.427 . S
N683 C681 1.384 . S
H684 C690 0.930 . S
H685 C694 0.930 . S
H686 C699 0.929 . S
H687 C697 0.929 . S
H688 C692 0.929 . S
H689 C698 0.929 . S
C690 H684 0.930 . S
C690 C691 1.367 . S
C690 C698 1.378 . S
C691 C690 1.367 . S
C691 C699 1.433 . S
C692 H688 0.929 . S
C692 C694 1.378 . S
C692 C696 1.350 . S
C693 C696 1.463 . S
C693 C698 1.350 . S
C693 N701 1.427 . S
C694 H685 0.930 . S
C694 C692 1.378 . S
C694 C695 1.367 . S
C695 C694 1.367 . S
C695 C697 1.433 . S
C696 C692 1.350 . S
C696 C693 1.463 . S
C696 N700 1.427 . S
C697 H687 0.929 . S
C697 C695 1.433 . S
C697 N700 1.384 . S
C698 H689 0.929 . S
C698 C690 1.378 . S
C698 C693 1.350 . S
C699 H686 0.929 . S
C699 C691 1.433 . S
C699 N701 1.384 . S
N700 C696 1.427 . S
N700 C697 1.384 . S
N701 C693 1.427 . S
N701 C699 1.384 . S
H702 C708 0.930 . S
H703 C712 0.930 . S
H704 C717 0.929 . S
H705 C715 0.929 . S
H706 C710 0.929 . S
H707 C716 0.929 . S
C708 H702 0.930 . S
C708 C709 1.367 . S
C708 C716 1.378 . S
C709 C708 1.367 . S
C709 C717 1.433 . S
C710 H706 0.929 . S
C710 C712 1.378 . S
C710 C714 1.350 . S
C711 C714 1.463 . S
C711 C716 1.350 . S
C711 N719 1.427 . S
C712 H703 0.930 . S
C712 C710 1.378 . S
C712 C713 1.367 . S
C713 C712 1.367 . S
C713 C715 1.433 . S
C714 C710 1.350 . S
C714 C711 1.463 . S
C714 N718 1.427 . S
C715 H705 0.929 . S
C715 C713 1.433 . S
C715 N718 1.384 . S
C716 H707 0.929 . S
C716 C708 1.378 . S
C716 C711 1.350 . S
C717 H704 0.929 . S
C717 C709 1.433 . S
C717 N719 1.384 . S
N718 C714 1.427 . S
N718 C715 1.384 . S
N719 C711 1.427 . S
N719 C717 1.384 . S
H720 C726 0.930 . S
H721 C730 0.930 . S
H722 C735 0.929 . S
H723 C733 0.929 . S
H724 C728 0.929 . S
H725 C734 0.929 . S
C726 H720 0.930 . S
C726 C727 1.367 . S
C726 C734 1.378 . S
C727 C726 1.367 . S
C727 C735 1.433 . S
C728 H724 0.929 . S
C728 C730 1.378 . S
C728 C732 1.350 . S
C729 C732 1.463 . S
C729 C734 1.350 . S
C729 N737 1.427 . S
C730 H721 0.930 . S
C730 C728 1.378 . S
C730 C731 1.367 . S
C731 C730 1.367 . S
C731 C733 1.433 . S
C732 C728 1.350 . S
C732 C729 1.463 . S
C732 N736 1.427 . S
C733 H723 0.929 . S
C733 C731 1.433 . S
C733 N736 1.384 . S
C734 H725 0.929 . S
C734 C726 1.378 . S
C734 C729 1.350 . S
C735 H722 0.929 . S
C735 C727 1.433 . S
C735 N737 1.384 . S
N736 C732 1.427 . S
N736 C733 1.384 . S
N737 C729 1.427 . S
N737 C735 1.384 . S
H738 C744 0.930 . S
H739 C748 0.930 . S
H740 C753 0.929 . S
H741 C751 0.929 . S
H742 C746 0.929 . S
H743 C752 0.929 . S
C744 H738 0.930 . S
C744 C745 1.367 . S
C744 C752 1.378 . S
C745 C744 1.367 . S
C745 C753 1.433 . S
C746 H742 0.929 . S
C746 C748 1.378 . S
C746 C750 1.350 . S
C747 C750 1.463 . S
C747 C752 1.350 . S
C747 N755 1.427 . S
C748 H739 0.930 . S
C748 C746 1.378 . S
C748 C749 1.367 . S
C749 C748 1.367 . S
C749 C751 1.433 . S
C750 C746 1.350 . S
C750 C747 1.463 . S
C750 N754 1.427 . S
C751 H741 0.929 . S
C751 C749 1.433 . S
C751 N754 1.384 . S
C752 H743 0.929 . S
C752 C744 1.378 . S
C752 C747 1.350 . S
C753 H740 0.929 . S
C753 C745 1.433 . S
C753 N755 1.384 . S
N754 C750 1.427 . S
N754 C751 1.384 . S
N755 C747 1.427 . S
N755 C753 1.384 . S
H756 C762 0.930 . S
H757 C766 0.930 . S
H758 C771 0.929 . S
H759 C769 0.929 . S
H760 C764 0.929 . S
H761 C770 0.929 . S
C762 H756 0.930 . S
C762 C763 1.367 . S
C762 C770 1.378 . S
C763 C762 1.367 . S
C763 C771 1.433 . S
C764 H760 0.929 . S
C764 C766 1.378 . S
C764 C768 1.350 . S
C765 C768 1.463 . S
C765 C770 1.350 . S
C765 N773 1.427 . S
C766 H757 0.930 . S
C766 C764 1.378 . S
C766 C767 1.367 . S
C767 C766 1.367 . S
C767 C769 1.433 . S
C768 C764 1.350 . S
C768 C765 1.463 . S
C768 N772 1.427 . S
C769 H759 0.929 . S
C769 C767 1.433 . S
C769 N772 1.384 . S
C770 H761 0.929 . S
C770 C762 1.378 . S
C770 C765 1.350 . S
C771 H758 0.929 . S
C771 C763 1.433 . S
C771 N773 1.384 . S
N772 C768 1.427 . S
N772 C769 1.384 . S
N773 C765 1.427 . S
N773 C771 1.384 . S
H774 C780 0.930 . S
H775 C784 0.930 . S
H776 C789 0.929 . S
H777 C787 0.929 . S
H778 C782 0.929 . S
H779 C788 0.929 . S
C780 H774 0.930 . S
C780 C781 1.367 . S
C780 C788 1.378 . S
C781 C780 1.367 . S
C781 C789 1.433 . S
C782 H778 0.929 . S
C782 C784 1.378 . S
C782 C786 1.350 . S
C783 C786 1.463 . S
C783 C788 1.350 . S
C783 N791 1.427 . S
C784 H775 0.930 . S
C784 C782 1.378 . S
C784 C785 1.367 . S
C785 C784 1.367 . S
C785 C787 1.433 . S
C786 C782 1.350 . S
C786 C783 1.463 . S
C786 N790 1.427 . S
C787 H777 0.929 . S
C787 C785 1.433 . S
C787 N790 1.384 . S
C788 H779 0.929 . S
C788 C780 1.378 . S
C788 C783 1.350 . S
C789 H776 0.929 . S
C789 C781 1.433 . S
C789 N791 1.384 . S
N790 C786 1.427 . S
N790 C787 1.384 . S
N791 C783 1.427 . S
N791 C789 1.384 . S
H792 C798 0.930 . S
H793 C802 0.930 . S
H794 C807 0.929 . S
H795 C805 0.929 . S
H796 C800 0.929 . S
H797 C806 0.929 . S
C798 H792 0.930 . S
C798 C799 1.367 . S
C798 C806 1.378 . S
C799 C798 1.367 . S
C799 C807 1.433 . S
C800 H796 0.929 . S
C800 C802 1.378 . S
C800 C804 1.350 . S
C801 C804 1.463 . S
C801 C806 1.350 . S
C801 N809 1.427 . S
C802 H793 0.930 . S
C802 C800 1.378 . S
C802 C803 1.367 . S
C803 C802 1.367 . S
C803 C805 1.433 . S
C804 C800 1.350 . S
C804 C801 1.463 . S
C804 N808 1.427 . S
C805 H795 0.929 . S
C805 C803 1.433 . S
C805 N808 1.384 . S
C806 H797 0.929 . S
C806 C798 1.378 . S
C806 C801 1.350 . S
C807 H794 0.929 . S
C807 C799 1.433 . S
C807 N809 1.384 . S
N808 C804 1.427 . S
N808 C805 1.384 . S
N809 C801 1.427 . S
N809 C807 1.384 . S
H810 C816 0.930 . S
H811 C820 0.930 . S
H812 C825 0.929 . S
H813 C823 0.929 . S
H814 C818 0.929 . S
H815 C824 0.929 . S
C816 H810 0.930 . S
C816 C817 1.367 . S
C816 C824 1.378 . S
C817 C816 1.367 . S
C817 C825 1.433 . S
C818 H814 0.929 . S
C818 C820 1.378 . S
C818 C822 1.350 . S
C819 C822 1.463 . S
C819 C824 1.350 . S
C819 N827 1.427 . S
C820 H811 0.930 . S
C820 C818 1.378 . S
C820 C821 1.367 . S
C821 C820 1.367 . S
C821 C823 1.433 . S
C822 C818 1.350 . S
C822 C819 1.463 . S
C822 N826 1.427 . S
C823 H813 0.929 . S
C823 C821 1.433 . S
C823 N826 1.384 . S
C824 H815 0.929 . S
C824 C816 1.378 . S
C824 C819 1.350 . S
C825 H812 0.929 . S
C825 C817 1.433 . S
C825 N827 1.384 . S
N826 C822 1.427 . S
N826 C823 1.384 . S
N827 C819 1.427 . S
N827 C825 1.384 . S
H828 C834 0.930 . S
H829 C838 0.930 . S
H830 C843 0.929 . S
H831 C841 0.929 . S
H832 C836 0.929 . S
H833 C842 0.929 . S
C834 H828 0.930 . S
C834 C835 1.367 . S
C834 C842 1.378 . S
C835 C834 1.367 . S
C835 C843 1.433 . S
C836 H832 0.929 . S
C836 C838 1.378 . S
C836 C840 1.350 . S
C837 C840 1.463 . S
C837 C842 1.350 . S
C837 N845 1.427 . S
C838 H829 0.930 . S
C838 C836 1.378 . S
C838 C839 1.367 . S
C839 C838 1.367 . S
C839 C841 1.433 . S
C840 C836 1.350 . S
C840 C837 1.463 . S
C840 N844 1.427 . S
C841 H831 0.929 . S
C841 C839 1.433 . S
C841 N844 1.384 . S
C842 H833 0.929 . S
C842 C834 1.378 . S
C842 C837 1.350 . S
C843 H830 0.929 . S
C843 C835 1.433 . S
C843 N845 1.384 . S
N844 C840 1.427 . S
N844 C841 1.384 . S
N845 C837 1.427 . S
N845 C843 1.384 . S
H846 C852 0.930 . S
H847 C856 0.930 . S
H848 C861 0.929 . S
H849 C859 0.929 . S
H850 C854 0.929 . S
H851 C860 0.929 . S
C852 H846 0.930 . S
C852 C853 1.367 . S
C852 C860 1.378 . S
C853 C852 1.367 . S
C853 C861 1.433 . S
C854 H850 0.929 . S
C854 C856 1.378 . S
C854 C858 1.350 . S
C855 C858 1.463 . S
C855 C860 1.350 . S
C855 N863 1.427 . S
C856 H847 0.930 . S
C856 C854 1.378 . S
C856 C857 1.367 . S
C857 C856 1.367 . S
C857 C859 1.433 . S
C858 C854 1.350 . S
C858 C855 1.463 . S
C858 N862 1.427 . S
C859 H849 0.929 . S
C859 C857 1.433 . S
C859 N862 1.384 . S
C860 H851 0.929 . S
C860 C852 1.378 . S
C860 C855 1.350 . S
C861 H848 0.929 . S
C861 C853 1.433 . S
C861 N863 1.384 . S
N862 C858 1.427 . S
N862 C859 1.384 . S
N863 C855 1.427 . S
N863 C861 1.384 . S
C439 C302 1.223 . S
C443 C14 1.234 . S
C457 C50 1.225 . S
C461 C338 1.232 . S
C475 C86 1.220 . S
C479 C374 1.237 . S
C493 C122 1.236 . S
C497 C410 1.221 . S
C511 C230 1.219 . S
C515 C158 1.237 . S
C529 C194 1.226 . S
C533 C266 1.230 . S
C547 C4 1.510 . S
C551 C183 1.520 1_554 S
C565 C40 1.514 . S
C569 C3 1.527 1_655 S
C583 C76 1.514 . S
C587 C39 1.533 1_565 S
C601 C75 1.532 . S
C605 C112 1.510 . S
C619 C111 1.527 1_455 S
C623 C148 1.512 . S
C637 C147 1.529 1_545 S
C641 C184 1.519 . S
C655 C255 1.529 . S
C659 C220 1.510 . S
C673 C256 1.519 . S
C677 C291 1.513 1_656 S
C691 C327 1.531 1_565 S
C695 C292 1.510 . S
C709 C328 1.519 . S
C713 C363 1.528 . S
C727 C364 1.519 . S
C731 C399 1.531 1_455 S
C745 C400 1.510 . S
C749 C219 1.532 1_545 S
C763 C362 1.249 . S
C767 C2 1.239 . S
C781 C398 1.244 . S
C785 C38 1.241 . S
C799 C218 1.239 . S
C803 C74 1.248 . S
C817 C110 1.249 . S
C821 C254 1.238 . S
C835 C146 1.239 . S
C839 C290 1.248 . S
C853 C326 1.241 . S
C857 C182 1.247 . S
