# Generated by pormake.
# Topology lcy-e, (6)-cn, num edge types: 1
# Building blocks:
#     Node 0, Type 0, BuildingBlock: KUMBOL_clean_sbu_1, # of connection points: 6
#     Node 1, Type 0, BuildingBlock: KUMBOL_clean_sbu_1, # of connection points: 6
#     Node 2, Type 0, BuildingBlock: KUMBOL_clean_sbu_1, # of connection points: 6
#     Node 3, Type 0, BuildingBlock: KUMBOL_clean_sbu_1, # of connection points: 6
#     Node 4, Type 0, BuildingBlock: KUMBOL_clean_sbu_1, # of connection points: 6
#     Node 5, Type 0, BuildingBlock: KUMBOL_clean_sbu_1, # of connection points: 6
#     Node 6, Type 0, BuildingBlock: KUMBOL_clean_sbu_1, # of connection points: 6
#     Node 7, Type 0, BuildingBlock: KUMBOL_clean_sbu_1, # of connection points: 6
#     Node 8, Type 0, BuildingBlock: KUMBOL_clean_sbu_1, # of connection points: 6
#     Node 9, Type 0, BuildingBlock: KUMBOL_clean_sbu_1, # of connection points: 6
#     Node 10, Type 0, BuildingBlock: KUMBOL_clean_sbu_1, # of connection points: 6
#     Node 11, Type 0, BuildingBlock: KUMBOL_clean_sbu_1, # of connection points: 6
#     Edge 12, Type (0, 0), BuildingBlock: UVAHIK_clean_linker_0, # of connection points: 2
#     Edge 13, Type (0, 0), BuildingBlock: UVAHIK_clean_linker_0, # of connection points: 2
#     Edge 14, Type (0, 0), BuildingBlock: UVAHIK_clean_linker_0, # of connection points: 2
#     Edge 15, Type (0, 0), BuildingBlock: UVAHIK_clean_linker_0, # of connection points: 2
#     Edge 16, Type (0, 0), BuildingBlock: UVAHIK_clean_linker_0, # of connection points: 2
#     Edge 17, Type (0, 0), BuildingBlock: UVAHIK_clean_linker_0, # of connection points: 2
#     Edge 18, Type (0, 0), BuildingBlock: UVAHIK_clean_linker_0, # of connection points: 2
#     Edge 19, Type (0, 0), BuildingBlock: UVAHIK_clean_linker_0, # of connection points: 2
#     Edge 20, Type (0, 0), BuildingBlock: UVAHIK_clean_linker_0, # of connection points: 2
#     Edge 21, Type (0, 0), BuildingBlock: UVAHIK_clean_linker_0, # of connection points: 2
#     Edge 22, Type (0, 0), BuildingBlock: UVAHIK_clean_linker_0, # of connection points: 2
#     Edge 23, Type (0, 0), BuildingBlock: UVAHIK_clean_linker_0, # of connection points: 2
#     Edge 24, Type (0, 0), BuildingBlock: UVAHIK_clean_linker_0, # of connection points: 2
#     Edge 25, Type (0, 0), BuildingBlock: UVAHIK_clean_linker_0, # of connection points: 2
#     Edge 26, Type (0, 0), BuildingBlock: UVAHIK_clean_linker_0, # of connection points: 2
#     Edge 27, Type (0, 0), BuildingBlock: UVAHIK_clean_linker_0, # of connection points: 2
#     Edge 28, Type (0, 0), BuildingBlock: UVAHIK_clean_linker_0, # of connection points: 2
#     Edge 29, Type (0, 0), BuildingBlock: UVAHIK_clean_linker_0, # of connection points: 2
#     Edge 30, Type (0, 0), BuildingBlock: UVAHIK_clean_linker_0, # of connection points: 2
#     Edge 31, Type (0, 0), BuildingBlock: UVAHIK_clean_linker_0, # of connection points: 2
#     Edge 32, Type (0, 0), BuildingBlock: UVAHIK_clean_linker_0, # of connection points: 2
#     Edge 33, Type (0, 0), BuildingBlock: UVAHIK_clean_linker_0, # of connection points: 2
#     Edge 34, Type (0, 0), BuildingBlock: UVAHIK_clean_linker_0, # of connection points: 2
#     Edge 35, Type (0, 0), BuildingBlock: UVAHIK_clean_linker_0, # of connection points: 2
#     Edge 36, Type (0, 0), BuildingBlock: UVAHIK_clean_linker_0, # of connection points: 2
#     Edge 37, Type (0, 0), BuildingBlock: UVAHIK_clean_linker_0, # of connection points: 2
#     Edge 38, Type (0, 0), BuildingBlock: UVAHIK_clean_linker_0, # of connection points: 2
#     Edge 39, Type (0, 0), BuildingBlock: UVAHIK_clean_linker_0, # of connection points: 2
#     Edge 40, Type (0, 0), BuildingBlock: UVAHIK_clean_linker_0, # of connection points: 2
#     Edge 41, Type (0, 0), BuildingBlock: UVAHIK_clean_linker_0, # of connection points: 2
#     Edge 42, Type (0, 0), BuildingBlock: UVAHIK_clean_linker_0, # of connection points: 2
#     Edge 43, Type (0, 0), BuildingBlock: UVAHIK_clean_linker_0, # of connection points: 2
#     Edge 44, Type (0, 0), BuildingBlock: UVAHIK_clean_linker_0, # of connection points: 2
#     Edge 45, Type (0, 0), BuildingBlock: UVAHIK_clean_linker_0, # of connection points: 2
#     Edge 46, Type (0, 0), BuildingBlock: UVAHIK_clean_linker_0, # of connection points: 2
#     Edge 47, Type (0, 0), BuildingBlock: UVAHIK_clean_linker_0, # of connection points: 2
# Relax obj value: 0.094
# Max RMSD: 0.235
# Mean RMSD: 0.234
data_MOF--net-lcy-e--node1-KUMBOL_clean_sbu_1--edge1-UVAHIK_clean_linker_0
_symmetry_space_group_name_H-M    P1
_symmetry_Int_Tables_number       1
_symmetry_cell_setting            triclinic
loop_
_symmetry_equiv_pos_as_xyz
'x, y, z'
_cell_length_a     54.766083
_cell_length_b     54.524569
_cell_length_c     54.809694
_cell_angle_alpha  89.946211
_cell_angle_beta   89.957202
_cell_angle_gamma 89.822722
loop_
_atom_site_label
_atom_site_type_symbol
_atom_site_fract_x
_atom_site_fract_y
_atom_site_fract_z
_atom_type_partial_charge
C0 C 0.06155 0.27203 0.4505 0.0
C1 C 0.05895 0.3121 0.46968 0.0
C2 C 0.07245 0.29104 0.46325 0.0
C3 C 0.03405 0.31343 0.46374 0.0
C4 C 0.03673 0.2736 0.4439 0.0
C5 C 0.02296 0.29421 0.45092 0.0
N6 N 0.07555 0.25267 0.4434 0.0
C7 C 0.06624 0.235 0.42853 0.0
C8 C 0.0267 0.25473 0.42984 0.0
C9 C 0.04158 0.23546 0.42194 0.0
Gd10 Gd 0.13975 0.20764 0.51084 0.0
Gd11 Gd 0.11655 0.25339 0.4558 0.0
N12 N 0.09655 0.28912 0.46881 0.0
C13 C 0.07104 0.3314 0.48136 0.0
C14 C 0.10864 0.30821 0.47928 0.0
C15 C 0.09608 0.32956 0.48589 0.0
H16 H 0.12793 0.30701 0.48249 0.0
H17 H 0.10571 0.34454 0.4945 0.0
H18 H 0.11657 0.16244 0.4749 0.0
H19 H 0.07791 0.22064 0.42151 0.0
H20 H 0.13218 0.12816 0.45045 0.0
H21 H 0.06133 0.34793 0.48654 0.0
H22 H 0.02331 0.32942 0.46862 0.0
H23 H 0.1878 0.2316 0.53909 0.0
H24 H 0.00768 0.25522 0.42444 0.0
H25 H 0.03417 0.22114 0.4105 0.0
H26 H 0.21814 0.1271 0.46695 0.0
H27 H 0.00383 0.29571 0.44608 0.0
H28 H 0.25041 0.18791 0.52104 0.0
H29 H 0.23205 0.2231 0.54297 0.0
N30 N 0.18152 0.20147 0.51542 0.0
C31 C 0.19106 0.18191 0.50333 0.0
C32 C 0.19577 0.21623 0.52949 0.0
C33 C 0.23101 0.1915 0.51937 0.0
C34 C 0.22074 0.21143 0.53174 0.0
C35 C 0.21619 0.17653 0.50485 0.0
H36 H 0.24505 0.15225 0.49258 0.0
N37 N 0.15158 0.17382 0.48705 0.0
C38 C 0.17575 0.16784 0.48863 0.0
C39 C 0.16956 0.13379 0.46117 0.0
C40 C 0.1854 0.14784 0.47544 0.0
C41 C 0.1359 0.15933 0.47428 0.0
C42 C 0.14468 0.13941 0.46081 0.0
O43 O 0.09553 0.25764 0.49192 0.0
O44 O 0.11482 0.23678 0.52398 0.0
O45 O 0.12449 0.17644 0.53102 0.0
O46 O 0.14777 0.20336 0.54927 0.0
O47 O 0.1494 0.26512 0.47787 0.0
O48 O 0.14894 0.24788 0.517 0.0
O49 O 0.16551 0.21946 0.48109 0.0
O50 O 0.13979 0.21982 0.44864 0.0
O51 O 0.14027 0.2789 0.43623 0.0
O52 O 0.11356 0.25773 0.41659 0.0
O53 O 0.10191 0.20208 0.4951 0.0
O54 O 0.10806 0.21313 0.45546 0.0
C55 C 0.09792 0.25134 0.51514 0.0
C56 C 0.15458 0.26565 0.50141 0.0
C57 C 0.13198 0.17059 0.57484 0.0
C58 C 0.11506 0.1376 0.59996 0.0
C59 C 0.13754 0.17089 0.61883 0.0
C60 C 0.14129 0.18157 0.59606 0.0
C61 C 0.12441 0.14916 0.62082 0.0
C62 C 0.119 0.14828 0.57683 0.0
C63 C 0.13456 0.18366 0.5513 0.0
C64 C 0.21044 0.14238 0.477 0.0
C65 C 0.22577 0.15666 0.49165 0.0
H66 H 0.17627 0.11827 0.45078 0.0
C67 C 0.16191 0.21818 0.45755 0.0
C68 C 0.09431 0.20346 0.47246 0.0
C69 C 0.12261 0.2969 0.40088 0.0
C70 C 0.13148 0.32775 0.36955 0.0
C71 C 0.09176 0.32685 0.38949 0.0
C72 C 0.0991 0.30684 0.40348 0.0
C73 C 0.10775 0.33723 0.37266 0.0
C74 C 0.13881 0.30734 0.38373 0.0
C75 C 0.12975 0.27508 0.41525 0.0
H76 H 0.14468 0.1796 0.63505 0.0
H77 H 0.15118 0.19872 0.59516 0.0
H78 H 0.1217 0.14121 0.63874 0.0
H79 H 0.11155 0.13961 0.56069 0.0
H80 H 0.07349 0.3342 0.39152 0.0
H81 H 0.0862 0.29889 0.41602 0.0
H82 H 0.10132 0.35247 0.3617 0.0
H83 H 0.15695 0.29966 0.3815 0.0
C84 C 0.97333 0.81661 0.71469 0.0
C85 C 0.9371 0.81964 0.74007 0.0
C86 C 0.95727 0.8307 0.72854 0.0
C87 C 0.93346 0.79425 0.73774 0.0
C88 C 0.96927 0.79128 0.71165 0.0
C89 C 0.94946 0.78013 0.72351 0.0
N90 N 0.9925 0.8278 0.70364 0.0
C91 C 0.00692 0.81532 0.68759 0.0
C92 C 0.98499 0.778 0.69638 0.0
C93 C 0.00368 0.79017 0.68401 0.0
Gd94 Gd 0.05077 0.89239 0.75736 0.0
Gd95 Gd 0.99695 0.86961 0.7118 0.0
N96 N 0.96128 0.85524 0.73053 0.0
C97 C 0.92104 0.83447 0.75343 0.0
C98 C 0.9451 0.86992 0.74258 0.0
C99 C 0.92493 0.85976 0.75447 0.0
H100 H 0.9474 0.88948 0.74277 0.0
H101 H 0.91229 0.87146 0.76426 0.0
H102 H 0.09805 0.87344 0.72448 0.0
H103 H 0.02059 0.82484 0.6771 0.0
H104 H 0.13184 0.89173 0.70041 0.0
H105 H 0.90535 0.82666 0.76261 0.0
H106 H 0.91813 0.78542 0.74658 0.0
H107 H 0.02491 0.93986 0.78892 0.0
H108 H 0.98245 0.75851 0.69351 0.0
H109 H 0.01542 0.78027 0.67152 0.0
H110 H 0.1191 0.97861 0.7082 0.0
H111 H 0.94616 0.76065 0.72153 0.0
H112 H 0.05506 0.00628 0.76102 0.0
H113 H 0.02605 0.98479 0.78813 0.0
N114 N 0.05106 0.93549 0.76028 0.0
C115 C 0.06831 0.94691 0.74648 0.0
C116 C 0.03679 0.94877 0.77597 0.0
C117 C 0.05422 0.98643 0.76076 0.0
C118 C 0.03775 0.97438 0.77602 0.0
C119 C 0.07018 0.97271 0.74619 0.0
H120 H 0.08977 0.00378 0.73126 0.0
N121 N 0.08251 0.90796 0.73359 0.0
C122 C 0.08485 0.93276 0.73328 0.0
C123 C 0.12049 0.92895 0.70752 0.0
C124 C 0.10363 0.94396 0.71972 0.0
C125 C 0.09958 0.89316 0.72291 0.0
C126 C 0.11863 0.90344 0.70938 0.0
O127 O 1.00223 0.84769 0.74727 0.0
O128 O 0.01869 0.87481 0.77548 0.0
O129 O 0.07697 0.86794 0.77518 0.0
O130 O 0.07118 0.9045 0.78899 0.0
O131 O 0.98875 0.90432 0.7328 0.0
O132 O 0.01197 0.90448 0.76854 0.0
O133 O 0.05086 0.89919 0.71655 0.0
O134 O 0.01117 0.90808 0.71091 0.0
O135 O 0.96532 0.87764 0.68894 0.0
O136 O 1.0013 0.87317 0.67268 0.0
O137 O 0.05261 0.85351 0.7434 0.0
O138 O 0.03579 0.85666 0.70501 0.0
C139 C 0.00588 0.85518 0.76993 0.0
C140 C 0.99244 0.91095 0.75563 0.0
C141 C 0.08664 0.87509 0.8169 0.0
C142 C 0.11427 0.85858 0.8483 0.0
C143 C 0.07315 0.87254 0.8589 0.0
C144 C 0.06851 0.87855 0.83462 0.0
C145 C 0.09581 0.86296 0.86576 0.0
C146 C 0.10934 0.8648 0.82371 0.0
C147 C 0.08293 0.88392 0.79171 0.0
C148 C 0.10501 0.96965 0.7188 0.0
C149 C 0.08826 0.98398 0.7319 0.0
H150 H 0.13519 0.93687 0.69692 0.0
C151 C 0.03399 0.91269 0.70633 0.0
C152 C 0.04971 0.8453 0.72106 0.0
C153 C 0.96704 0.86941 0.64618 0.0
C154 C 0.94171 0.8779 0.61047 0.0
C155 C 0.96394 0.83943 0.61366 0.0
C156 C 0.97335 0.84657 0.63623 0.0
C157 C 0.94824 0.85498 0.60083 0.0
C158 C 0.95112 0.88508 0.63322 0.0
C159 C 0.97825 0.87819 0.66896 0.0
H160 H 0.05925 0.87574 0.87259 0.0
H161 H 0.05097 0.88642 0.82978 0.0
H162 H 0.09889 0.85948 0.88495 0.0
H163 H 0.12309 0.86188 0.80979 0.0
H164 H 0.96901 0.82185 0.60599 0.0
H165 H 0.9858 0.83442 0.64565 0.0
H166 H 0.94125 0.8492 0.58326 0.0
H167 H 0.94637 0.90291 0.64061 0.0
C168 C 0.31596 0.79855 0.02982 0.0
C169 C 0.31701 0.77668 0.06849 0.0
C170 C 0.32873 0.78475 0.04702 0.0
C171 C 0.29231 0.78243 0.07233 0.0
C172 C 0.29135 0.80496 0.03403 0.0
C173 C 0.27954 0.79659 0.0552 0.0
N174 N 0.3278 0.80643 0.00946 0.0
C175 C 0.3167 0.82223 0.9936 0.0
C176 C 0.27947 0.82009 0.01712 0.0
C177 C 0.2923 0.82901 0.99699 0.0
Gd178 Gd 0.39021 0.74508 0.95452 0.0
Gd179 Gd 0.36884 0.7947 0.00648 0.0
N180 N 0.35267 0.77946 0.0429 0.0
C181 C 0.33057 0.76329 0.08561 0.0
C182 C 0.36615 0.76713 0.05983 0.0
C183 C 0.3553 0.75864 0.08132 0.0
H184 H 0.3853 0.76419 0.05704 0.0
H185 H 0.36605 0.74866 0.09462 0.0
H186 H 0.37443 0.776 0.90499 0.0
H187 H 0.32672 0.8302 0.97861 0.0
H188 H 0.39466 0.79506 0.86918 0.0
H189 H 0.32222 0.75673 0.1023 0.0
H190 H 0.28299 0.77632 0.08867 0.0
H191 H 0.43511 0.71321 0.9844 0.0
H192 H 0.2606 0.82551 0.01977 0.0
H193 H 0.28351 0.84135 0.98422 0.0
H194 H 0.48018 0.78182 0.88368 0.0
H195 H 0.2606 0.80124 0.05865 0.0
H196 H 0.50325 0.73372 0.95301 0.0
H197 H 0.47971 0.71088 0.98401 0.0
N198 N 0.43295 0.74013 0.95609 0.0
C199 C 0.44546 0.75153 0.93784 0.0
C200 C 0.44492 0.72473 0.97179 0.0
C201 C 0.48356 0.7356 0.95363 0.0
C202 C 0.47035 0.72277 0.97122 0.0
C203 C 0.47112 0.74967 0.93624 0.0
H204 H 0.50322 0.76002 0.91554 0.0
N205 N 0.40785 0.76577 0.9218 0.0
C206 C 0.43253 0.76406 0.91985 0.0
C207 C 0.43098 0.78615 0.88161 0.0
C208 C 0.44481 0.77468 0.89987 0.0
C209 C 0.39413 0.77596 0.90362 0.0
C210 C 0.40551 0.78659 0.88339 0.0
O211 O 0.34603 0.75947 0.00533 0.0
O212 O 0.36802 0.72881 0.98475 0.0
O213 O 0.36836 0.72881 0.92567 0.0
O214 O 0.40081 0.71025 0.93837 0.0
O215 O 0.40218 0.77169 0.01439 0.0
O216 O 0.39945 0.73446 0.99399 0.0
O217 O 0.39934 0.78562 0.95249 0.0
O218 O 0.40718 0.79294 0.99215 0.0
O219 O 0.37999 0.81706 0.0374 0.0
O220 O 0.37339 0.83405 1.00222 0.0
O221 O 0.35221 0.76085 0.95129 0.0
O222 O 0.35689 0.79975 0.96711 0.0
C223 C 0.34962 0.73647 0.9983 0.0
C224 C 0.40626 0.74792 0.01291 0.0
C225 C 0.37031 0.686 0.91951 0.0
C226 C 0.35253 0.65648 0.89126 0.0
C227 C 0.35357 0.64781 0.93474 0.0
C228 C 0.36509 0.67023 0.93904 0.0
C229 C 0.34721 0.64098 0.911 0.0
C230 C 0.36415 0.67899 0.8956 0.0
C231 C 0.38241 0.7097 0.9234 0.0
C232 C 0.47039 0.77349 0.89872 0.0
C233 C 0.48351 0.76114 0.91692 0.0
H234 H 0.43976 0.7945 0.86596 0.0
C235 C 0.41221 0.79674 0.96925 0.0
C236 C 0.34461 0.7835 0.9543 0.0
C237 C 0.3699 0.8594 0.03751 0.0
C238 C 0.37616 0.8941 0.06521 0.0
C239 C 0.33719 0.88862 0.0446 0.0
C240 C 0.34597 0.86751 0.03326 0.0
C241 C 0.3521 0.90184 0.06038 0.0
C242 C 0.38505 0.87282 0.05348 0.0
C243 C 0.37957 0.83745 0.02501 0.0
H244 H 0.34958 0.63567 0.94985 0.0
H245 H 0.36993 0.67524 0.95753 0.0
H246 H 0.33837 0.6235 0.90798 0.0
H247 H 0.36825 0.69107 0.88041 0.0
H248 H 0.31875 0.89485 0.04102 0.0
H249 H 0.3341 0.85776 0.02102 0.0
H250 H 0.34484 0.91838 0.06861 0.0
H251 H 0.40356 0.86661 0.05689 0.0
C252 C 0.52978 0.18875 0.21145 0.0
C253 C 0.56738 0.18626 0.23475 0.0
C254 C 0.54667 0.17494 0.22453 0.0
C255 C 0.57061 0.21167 0.23203 0.0
C256 C 0.53338 0.21411 0.20799 0.0
C257 C 0.55369 0.22554 0.21865 0.0
N258 N 0.5102 0.17725 0.20154 0.0
C259 C 0.49484 0.18944 0.18618 0.0
C260 C 0.51671 0.22711 0.19352 0.0
C261 C 0.49755 0.21462 0.18226 0.0
Gd262 Gd 0.45568 0.11377 0.25938 0.0
Gd263 Gd 0.50665 0.13536 0.21004 0.0
N264 N 0.543 0.15038 0.2269 0.0
C265 C 0.58442 0.17162 0.24707 0.0
C266 C 0.56014 0.1359 0.23779 0.0
C267 C 0.58093 0.14628 0.2483 0.0
H268 H 0.55809 0.11633 0.23805 0.0
H269 H 0.59432 0.13472 0.25723 0.0
H270 H 0.40695 0.13309 0.2294 0.0
H271 H 0.48094 0.17964 0.17637 0.0
H272 H 0.36898 0.11553 0.21224 0.0
H273 H 0.60057 0.17961 0.2552 0.0
H274 H 0.58635 0.2207 0.23987 0.0
H275 H 0.48509 0.06633 0.28828 0.0
H276 H 0.51886 0.2466 0.19036 0.0
H277 H 0.48508 0.2243 0.1703 0.0
H278 H 0.3768 0.02906 0.22715 0.0
H279 H 0.55667 0.24505 0.21634 0.0
H280 H 0.44689 1.00069 0.27103 0.0
H281 H 0.48134 0.02178 0.29101 0.0
N282 N 0.45494 0.0708 0.26387 0.0
C283 C 0.43516 0.05966 0.2537 0.0
C284 C 0.47087 0.05757 0.27793 0.0
C285 C 0.44892 0.02034 0.26891 0.0
C286 C 0.46845 0.03216 0.28013 0.0
C287 C 0.43166 0.03412 0.25599 0.0
H288 H 0.40781 0.00364 0.24757 0.0
N289 N 0.42153 0.09842 0.2395 0.0
C290 C 0.41767 0.07393 0.24185 0.0
C291 C 0.37875 0.07832 0.22148 0.0
C292 C 0.39629 0.06315 0.23246 0.0
C293 C 0.40415 0.11348 0.22974 0.0
C294 C 0.38263 0.10362 0.22027 0.0
O295 O 0.50194 0.15899 0.24439 0.0
O296 O 0.48791 0.13338 0.27537 0.0
O297 O 0.42974 0.13828 0.2775 0.0
O298 O 0.43812 0.1027 0.29298 0.0
O299 O 0.51557 0.10145 0.23195 0.0
O300 O 0.49497 0.103 0.26912 0.0
O301 O 0.45281 0.10319 0.21939 0.0
O302 O 0.49272 0.09675 0.21138 0.0
O303 O 0.53749 0.12558 0.18691 0.0
O304 O 0.50189 0.13243 0.17082 0.0
O305 O 0.45242 0.1514 0.24261 0.0
O306 O 0.46708 0.14598 0.20361 0.0
C307 C 0.49962 0.15293 0.26763 0.0
C308 C 0.51369 0.09613 0.25534 0.0
C309 C 0.41932 0.13174 0.31934 0.0
C310 C 0.38903 0.14893 0.34748 0.0
C311 C 0.42828 0.13407 0.36254 0.0
C312 C 0.43532 0.12776 0.3389 0.0
C313 C 0.40534 0.14443 0.36685 0.0
C314 C 0.39625 0.14242 0.32366 0.0
C315 C 0.42507 0.12259 0.29477 0.0
C316 C 0.39304 0.0377 0.2344 0.0
C317 C 0.41073 0.02323 0.24599 0.0
H318 H 0.36205 0.07073 0.21414 0.0
C319 C 0.46991 0.09124 0.20762 0.0
C320 C 0.45292 0.15742 0.2194 0.0
C321 C 0.53661 0.13518 0.14462 0.0
C322 C 0.56276 0.12699 0.10938 0.0
C323 C 0.54331 0.1668 0.11421 0.0
C324 C 0.53247 0.15903 0.13594 0.0
C325 C 0.55839 0.15092 0.10101 0.0
C326 C 0.55179 0.11913 0.13123 0.0
C327 C 0.52462 0.12618 0.16694 0.0
H328 H 0.44051 0.13057 0.37766 0.0
H329 H 0.45301 0.1193 0.33599 0.0
H330 H 0.40021 0.14849 0.38551 0.0
H331 H 0.38387 0.14537 0.3085 0.0
H332 H 0.53996 0.18519 0.10752 0.0
H333 H 0.52076 0.17157 0.14581 0.0
H334 H 0.5666 0.15726 0.08416 0.0
H335 H 0.55499 0.10061 0.13773 0.0
C336 C 0.56241 0.22647 0.54553 0.0
C337 C 0.56176 0.18966 0.52059 0.0
C338 C 0.57454 0.20953 0.53087 0.0
C339 C 0.53669 0.18703 0.52525 0.0
C340 C 0.53736 0.22355 0.55069 0.0
C341 C 0.52454 0.20389 0.54029 0.0
N342 N 0.57524 0.24535 0.55536 0.0
C343 C 0.56468 0.26068 0.57197 0.0
C344 C 0.52604 0.2402 0.56653 0.0
C345 C 0.53984 0.25868 0.57743 0.0
Gd346 Gd 0.63866 0.29827 0.49605 0.0
Gd347 Gd 0.61662 0.24692 0.54494 0.0
N348 N 0.59883 0.21256 0.52659 0.0
C349 C 0.57461 0.17293 0.50604 0.0
C350 C 0.61156 0.19591 0.51306 0.0
C351 C 0.59964 0.176 0.50238 0.0
H352 H 0.63088 0.19779 0.51061 0.0
H353 H 0.60981 0.16297 0.49145 0.0
H354 H 0.61822 0.34636 0.52683 0.0
H355 H 0.57547 0.27419 0.58141 0.0
H356 H 0.63471 0.38479 0.54431 0.0
H357 H 0.56543 0.15743 0.49779 0.0
H358 H 0.52657 0.17188 0.5175 0.0
H359 H 0.68621 0.27085 0.46613 0.0
H360 H 0.50683 0.23857 0.57095 0.0
H361 H 0.53144 0.27117 0.5903 0.0
H362 H 0.72074 0.38004 0.528 0.0
H363 H 0.50527 0.20141 0.54399 0.0
H364 H 0.75054 0.31134 0.48251 0.0
H365 H 0.73036 0.27626 0.46249 0.0
N366 N 0.68125 0.30068 0.49094 0.0
C367 C 0.69184 0.32078 0.50117 0.0
C368 C 0.69468 0.28531 0.47645 0.0
C369 C 0.73111 0.30856 0.485 0.0
C370 C 0.71981 0.28868 0.47375 0.0
C371 C 0.71706 0.32522 0.49845 0.0
H372 H 0.74672 0.3501 0.50666 0.0
N373 N 0.65304 0.33295 0.5161 0.0
C374 C 0.67724 0.33768 0.51347 0.0
C375 C 0.67191 0.37633 0.53444 0.0
C376 C 0.68741 0.35939 0.52297 0.0
C377 C 0.63763 0.3498 0.52627 0.0
C378 C 0.64688 0.37159 0.53593 0.0
O379 O 0.59422 0.25133 0.50975 0.0
O380 O 0.62093 0.26503 0.47975 0.0
O381 O 0.61357 0.3236 0.47801 0.0
O382 O 0.64895 0.31593 0.46214 0.0
O383 O 0.65062 0.23745 0.52372 0.0
O384 O 0.65114 0.25909 0.48703 0.0
O385 O 0.64926 0.30127 0.53601 0.0
O386 O 0.65506 0.26127 0.54553 0.0
O387 O 0.62785 0.2145 0.5649 0.0
O388 O 0.61786 0.24738 0.58475 0.0
O389 O 0.60091 0.30064 0.51242 0.0
O390 O 0.60686 0.28681 0.55157 0.0
C391 C 0.60127 0.25314 0.48676 0.0
C392 C 0.6575 0.24011 0.50082 0.0
C393 C 0.61886 0.33285 0.43592 0.0
C394 C 0.60191 0.36186 0.40632 0.0
C395 C 0.61155 0.3199 0.39431 0.0
C396 C 0.61952 0.31461 0.41793 0.0
C397 C 0.60282 0.3433 0.3885 0.0
C398 C 0.61006 0.35642 0.43007 0.0
C399 C 0.62878 0.32846 0.46043 0.0
C400 C 0.71257 0.36355 0.52067 0.0
C401 C 0.72737 0.34646 0.50856 0.0
H402 H 0.67902 0.39325 0.54191 0.0
C403 C 0.66114 0.28424 0.54801 0.0
C404 C 0.59478 0.30023 0.5356 0.0
C405 C 0.61514 0.20896 0.60557 0.0
C406 C 0.62191 0.18039 0.6394 0.0
C407 C 0.58086 0.18798 0.6241 0.0
C408 C 0.59003 0.2043 0.60676 0.0
C409 C 0.59665 0.17599 0.6402 0.0
C410 C 0.63106 0.19716 0.6221 0.0
C411 C 0.62536 0.22465 0.58624 0.0
H412 H 0.61234 0.30588 0.38037 0.0
H413 H 0.62649 0.29646 0.42207 0.0
H414 H 0.59715 0.34701 0.36993 0.0
H415 H 0.60965 0.37051 0.44402 0.0
H416 H 0.56144 0.18445 0.62493 0.0
H417 H 0.57755 0.21301 0.59417 0.0
H418 H 0.58908 0.16337 0.65346 0.0
H419 H 0.65054 0.2005 0.62106 0.0
C420 C 0.95845 0.43909 0.72727 0.0
C421 C 0.98142 0.43979 0.68934 0.0
C422 C 0.97164 0.42682 0.70933 0.0
C423 C 0.97812 0.4653 0.68786 0.0
C424 C 0.95432 0.46456 0.72532 0.0
C425 C 0.96456 0.47764 0.70576 0.0
N426 N 0.94889 0.426 0.74608 0.0
C427 C 0.93308 0.43677 0.76212 0.0
C428 C 0.93955 0.47603 0.74279 0.0
C429 C 0.92856 0.46199 0.76103 0.0
Gd430 Gd 0.00672 0.36126 0.79943 0.0
Gd431 Gd 0.95922 0.3842 0.74689 0.0
N432 N 0.97461 0.40213 0.71127 0.0
C433 C 0.99394 0.42667 0.67127 0.0
C434 C 0.98568 0.3891 0.69314 0.0
C435 C 0.99581 0.40117 0.67304 0.0
H436 H 0.98645 0.36938 0.69393 0.0
H437 H 0.0049 0.39078 0.65886 0.0
H438 H 0.9747 0.38081 0.84686 0.0
H439 H 0.92362 0.42595 0.77563 0.0
H440 H 0.9542 0.36314 0.88319 0.0
H441 H 1.00174 0.43596 0.65564 0.0
H442 H 0.98562 0.4756 0.67271 0.0
H443 H 0.03703 0.31346 0.77217 0.0
H444 H 0.93592 0.49556 0.74193 0.0
H445 H 0.91641 0.47052 0.77412 0.0
H446 H 0.96597 0.27626 0.87441 0.0
H447 H 0.96175 0.49725 0.70409 0.0
H448 H 0.01432 0.24768 0.80743 0.0
H449 H 0.03792 0.26873 0.77524 0.0
N450 N 0.0104 0.31819 0.80038 0.0
C451 C 0.99837 0.30705 0.81911 0.0
C452 C 0.0253 0.30477 0.78539 0.0
C453 C 0.01313 0.26745 0.8057 0.0
C454 C 0.0264 0.27925 0.78744 0.0
C455 C 0.99938 0.28136 0.82218 0.0
H456 H 0.98773 0.2507 0.84448 0.0
N457 N 0.98465 0.34607 0.83244 0.0
C458 C 0.98581 0.32141 0.83597 0.0
C459 C 0.96269 0.32579 0.87332 0.0
C460 C 0.97437 0.31056 0.85633 0.0
C461 C 0.97426 0.36115 0.84941 0.0
C462 C 0.96282 0.35121 0.86995 0.0
O463 O 0.99499 0.40606 0.74993 0.0
O464 O 0.02412 0.3803 0.76771 0.0
O465 O 0.0235 0.38464 0.82688 0.0
O466 O 0.04021 0.35 0.81737 0.0
O467 O 0.98294 0.35235 0.73502 0.0
O468 O 0.01723 0.34932 0.76062 0.0
O469 O 0.96638 0.35225 0.80074 0.0
O470 O 0.96099 0.34558 0.76068 0.0
O471 O 0.93639 0.37528 0.71558 0.0
O472 O 0.9203 0.37844 0.75154 0.0
O473 O 0.99252 0.40004 0.80087 0.0
O474 O 0.95353 0.39506 0.78652 0.0
C475 C 0.01786 0.39915 0.75397 0.0
C476 C 0.00523 0.3446 0.74008 0.0
C477 C 0.0658 0.38021 0.83501 0.0
C478 C 0.09521 0.39838 0.86339 0.0
C479 C 0.10715 0.38825 0.82166 0.0
C480 C 0.08367 0.37978 0.81671 0.0
C481 C 0.11296 0.39727 0.84477 0.0
C482 C 0.07153 0.3897 0.85821 0.0
C483 C 0.04151 0.36957 0.83088 0.0
C484 C 0.9749 0.28497 0.85905 0.0
C485 C 0.98724 0.27041 0.84195 0.0
H486 H 0.95372 0.31813 0.88921 0.0
C487 C 0.95539 0.34048 0.78317 0.0
C488 C 0.9697 0.4072 0.79945 0.0
C489 C 0.89381 0.38357 0.7175 0.0
C490 C 0.85804 0.37756 0.69131 0.0
C491 C 0.86328 0.41564 0.71392 0.0
C492 C 0.8852 0.40701 0.72358 0.0
C493 C 0.84979 0.4011 0.69797 0.0
C494 C 0.88011 0.36878 0.7014 0.0
C495 C 0.91647 0.37391 0.72847 0.0
H496 H 0.12102 0.38752 0.8076 0.0
H497 H 0.07959 0.37256 0.79877 0.0
H498 H 0.13157 0.40299 0.84811 0.0
H499 H 0.0575 0.39022 0.87216 0.0
H500 H 0.85663 0.43367 0.7189 0.0
H501 H 0.89524 0.41855 0.73599 0.0
H502 H 0.83268 0.40823 0.691 0.0
H503 H 0.88672 0.35065 0.69661 0.0
C504 C 0.94005 0.77481 0.04298 0.0
C505 C 0.93691 0.81585 0.02591 0.0
C506 C 0.92597 0.79367 0.03326 0.0
C507 C 0.96227 0.81873 0.02822 0.0
C508 C 0.96541 0.77803 0.04616 0.0
C509 C 0.97647 0.7999 0.03837 0.0
N510 N 0.92879 0.75395 0.05065 0.0
C511 C 0.94142 0.737 0.064 0.0
C512 C 0.97877 0.75956 0.05789 0.0
C513 C 0.96663 0.73913 0.0672 0.0
Gd514 Gd 0.86264 0.70449 0.99261 0.0
Gd515 Gd 0.88613 0.75292 0.04531 0.0
N516 N 0.90145 0.79039 0.03124 0.0
C517 C 0.92197 0.8346 0.01674 0.0
C518 C 0.88667 0.80903 0.02357 0.0
C519 C 0.89671 0.83123 0.01574 0.0
H520 H 0.86714 0.80688 0.02373 0.0
H521 H 0.88495 0.8458 0.00921 0.0
H522 H 0.88547 0.65951 0.02957 0.0
H523 H 0.93191 0.72241 0.07317 0.0
H524 H 0.86951 0.62554 0.05411 0.0
H525 H 0.92969 0.85188 0.0108 0.0
H526 H 0.97102 0.83562 0.0226 0.0
H527 H 0.81461 0.72974 0.96513 0.0
H528 H 0.99826 0.76138 0.06075 0.0
H529 H 0.97656 0.72534 0.07743 0.0
H530 H 0.78344 0.62629 0.0384 0.0
H531 H 0.99593 0.80263 0.04058 0.0
H532 H 0.75142 0.68789 0.98473 0.0
H533 H 0.77009 0.72243 0.96217 0.0
N534 N 0.82063 0.69978 0.98918 0.0
C535 C 0.81094 0.68045 1.00148 0.0
C536 C 0.80648 0.71471 0.97508 0.0
C537 C 0.77091 0.69099 0.98606 0.0
C538 C 0.78136 0.71056 0.97333 0.0
C539 C 0.78569 0.67569 1.0004 0.0
H540 H 0.75659 0.65212 0.01318 0.0
N541 N 0.85056 0.67133 0.01717 0.0
C542 C 0.82625 0.66595 0.01595 0.0
C543 C 0.83218 0.6318 0.04346 0.0
C544 C 0.81642 0.64619 0.02932 0.0
C545 C 0.8661 0.65668 0.0301 0.0
C546 C 0.85712 0.63696 0.04369 0.0
O547 O 0.90018 0.76028 0.00664 0.0
O548 O 0.89764 0.72417 0.98423 0.0
O549 O 0.87216 0.67082 0.97317 0.0
O550 O 0.85653 0.70214 0.95343 0.0
O551 O 0.85206 0.76265 0.02375 0.0
O552 O 0.85512 0.74485 0.9849 0.0
O553 O 0.83706 0.71802 0.02222 0.0
O554 O 0.86281 0.71993 0.05478 0.0
O555 O 0.86363 0.77662 0.07027 0.0
O556 O 0.89763 0.75918 0.08168 0.0
O557 O 0.89976 0.69773 0.00873 0.0
O558 O 0.89605 0.7127 0.04762 0.0
C559 C 0.90585 0.74655 0.9876 0.0
C560 C 0.84864 0.76295 0.9998 0.0
C561 C 0.86715 0.66594 0.92909 0.0
C562 C 0.88428 0.63263 0.90416 0.0
C563 C 0.85919 0.66438 0.88552 0.0
C564 C 0.85619 0.67574 0.90808 0.0
C565 C 0.87325 0.64316 0.88351 0.0
C566 C 0.88098 0.64396 0.92714 0.0
C567 C 0.86552 0.67996 0.95224 0.0
C568 C 0.79126 0.64137 0.02818 0.0
C569 C 0.77596 0.65606 0.01378 0.0
H570 H 0.82532 0.61647 0.054 0.0
C571 C 0.84086 0.71688 0.04577 0.0
C572 C 0.90829 0.70068 0.03084 0.0
C573 C 0.87856 0.78263 0.11318 0.0
C574 C 0.86528 0.81145 0.14482 0.0
C575 C 0.89634 0.78099 0.15392 0.0
C576 C 0.89477 0.7721 0.13025 0.0
C577 C 0.8818 0.80054 0.16115 0.0
C578 C 0.86343 0.80236 0.12068 0.0
C579 C 0.87962 0.77337 0.08766 0.0
H580 H 0.85077 0.67223 0.86944 0.0
H581 H 0.84553 0.69249 0.90898 0.0
H582 H 0.8754 0.63477 0.86571 0.0
H583 H 0.88975 0.6362 0.9431 0.0
H584 H 0.90904 0.77279 0.1667 0.0
H585 H 0.90666 0.75698 0.1253 0.0
H586 H 0.88344 0.80724 0.1797 0.0
H587 H 0.85099 0.81092 0.10786 0.0
C588 C 0.53656 0.56066 0.22421 0.0
C589 C 0.51584 0.56568 0.18535 0.0
C590 C 0.5258 0.57582 0.20682 0.0
C591 C 0.51659 0.54019 0.18177 0.0
C592 C 0.53781 0.5351 0.22039 0.0
C593 C 0.52755 0.52496 0.19923 0.0
N594 N 0.54634 0.57094 0.24455 0.0
C595 C 0.55965 0.55708 0.26047 0.0
C596 C 0.54984 0.52055 0.23771 0.0
C597 C 0.56109 0.53165 0.25768 0.0
Gd598 Gd 0.49664 0.64021 0.29946 0.0
Gd599 Gd 0.54337 0.61372 0.24712 0.0
N600 N 0.52501 0.60043 0.2109 0.0
C601 C 0.50527 0.58149 0.16818 0.0
C602 C 0.51573 0.61594 0.19375 0.0
C603 C 0.50537 0.60674 0.17234 0.0
H604 H 0.51699 0.63538 0.19611 0.0
H605 H 0.49781 0.61918 0.15889 0.0
H606 H 0.52807 0.62228 0.34785 0.0
H607 H 0.56981 0.56558 0.27498 0.0
H608 H 0.54858 0.64119 0.38351 0.0
H609 H 0.49733 0.57441 0.15152 0.0
H610 H 0.50891 0.53209 0.16547 0.0
H611 H 0.46561 0.6864 0.27126 0.0
H612 H 0.5512 0.50086 0.23543 0.0
H613 H 0.57127 0.52069 0.27066 0.0
H614 H 0.53698 0.72774 0.37148 0.0
H615 H 0.52827 0.50536 0.19605 0.0
H616 H 0.48736 0.75368 0.30434 0.0
H617 H 0.46371 0.7313 0.27314 0.0
N618 N 0.49257 0.68315 0.29923 0.0
C619 C 0.50472 0.695 0.31736 0.0
C620 C 0.47723 0.69581 0.28407 0.0
C621 C 0.48895 0.73391 0.30312 0.0
C622 C 0.47562 0.72135 0.28542 0.0
C623 C 0.50328 0.72072 0.31972 0.0
H624 H 0.51464 0.75216 0.34101 0.0
N625 N 0.51861 0.65652 0.33194 0.0
C626 C 0.51758 0.68127 0.33451 0.0
C627 C 0.54047 0.6782 0.37208 0.0
C628 C 0.52891 0.69284 0.35449 0.0
C629 C 0.52871 0.64202 0.34959 0.0
C630 C 0.54014 0.65266 0.36975 0.0
O631 O 0.5066 0.59371 0.25199 0.0
O632 O 0.47923 0.62261 0.26713 0.0
O633 O 0.47834 0.6159 0.3254 0.0
O634 O 0.46398 0.65214 0.3185 0.0
O635 O 0.52484 0.64993 0.23873 0.0
O636 O 0.48792 0.65125 0.25996 0.0
O637 O 0.53742 0.64713 0.30067 0.0
O638 O 0.54794 0.65251 0.26086 0.0
O639 O 0.56698 0.6207 0.21572 0.0
O640 O 0.58239 0.60737 0.24947 0.0
O641 O 0.5109 0.60159 0.30237 0.0
O642 O 0.5499 0.60418 0.28689 0.0
C643 C 0.48413 0.60117 0.25732 0.0
C644 C 0.50193 0.65714 0.24106 0.0
C645 C 0.43644 0.623 0.33525 0.0
C646 C 0.40598 0.60641 0.36384 0.0
C647 C 0.39405 0.62007 0.32306 0.0
C648 C 0.41808 0.62653 0.3178 0.0
C649 C 0.38797 0.61039 0.34586 0.0
C650 C 0.43039 0.61275 0.35814 0.0
C651 C 0.4615 0.63187 0.33079 0.0
C652 C 0.52813 0.71849 0.35641 0.0
C653 C 0.51545 0.7324 0.33902 0.0
H654 H 0.54935 0.6864 0.38772 0.0
C655 C 0.54923 0.65926 0.28375 0.0
C656 C 0.53361 0.59396 0.30133 0.0
C657 C 0.60698 0.63404 0.22574 0.0
C658 C 0.64003 0.65379 0.20269 0.0
C659 C 0.6315 0.6659 0.24457 0.0
C660 C 0.61248 0.64905 0.24582 0.0
C661 C 0.64512 0.66831 0.22323 0.0
C662 C 0.62097 0.63637 0.2041 0.0
C663 C 0.58696 0.61586 0.22767 0.0
H664 H 0.37993 0.62307 0.30957 0.0
H665 H 0.42224 0.63469 0.30026 0.0
H666 H 0.36893 0.60661 0.34947 0.0
H667 H 0.44471 0.61001 0.3715 0.0
H668 H 0.63573 0.67716 0.26026 0.0
H669 H 0.60215 0.64768 0.26262 0.0
H670 H 0.65991 0.68146 0.22282 0.0
H671 H 0.61692 0.62492 0.18847 0.0
C672 C 0.20462 0.52357 0.18915 0.0
C673 C 0.22549 0.56281 0.18945 0.0
C674 C 0.21747 0.54176 0.17696 0.0
C675 C 0.22078 0.5651 0.21453 0.0
C676 C 0.19934 0.52608 0.21419 0.0
C677 C 0.20777 0.54678 0.22687 0.0
N678 N 0.19642 0.50395 0.17627 0.0
C679 C 0.18155 0.48704 0.18695 0.0
C680 C 0.1853 0.50797 0.2256 0.0
C681 C 0.17616 0.48849 0.21185 0.0
Gd682 Gd 0.26091 0.45569 0.11233 0.0
Gd683 Gd 0.20737 0.50265 0.13488 0.0
N684 N 0.22206 0.53879 0.15275 0.0
C685 C 0.23779 0.581 0.17627 0.0
C686 C 0.23292 0.55696 0.13959 0.0
C687 C 0.24129 0.57816 0.15118 0.0
H688 H 0.23486 0.55533 0.12013 0.0
H689 H 0.25021 0.5924 0.1407 0.0
H690 H 0.22379 0.41156 0.13571 0.0
H691 H 0.17354 0.47259 0.17619 0.0
H692 H 0.1991 0.37743 0.12044 0.0
H693 H 0.24423 0.59747 0.18519 0.0
H694 H 0.22689 0.5811 0.2245 0.0
H695 H 0.29025 0.47839 0.0643 0.0
H696 H 0.1809 0.50919 0.24483 0.0
H697 H 0.16471 0.47477 0.22034 0.0
H698 H 0.21703 0.37468 0.03484 0.0
H699 H 0.20398 0.54897 0.24616 0.0
H700 H 0.27245 0.4342 1.00224 0.0
H701 H 0.29458 0.4693 0.02026 0.0
N702 N 0.26617 0.44863 0.07081 0.0
C703 C 0.2539 0.4292 0.06142 0.0
C704 C 0.28058 0.46303 0.05648 0.0
C705 C 0.27058 0.43804 0.02154 0.0
C706 C 0.28308 0.45791 0.03163 0.0
C707 C 0.25567 0.42348 0.03642 0.0
H708 H 0.24343 0.39903 0.00784 0.0
N709 N 0.23682 0.42207 0.10072 0.0
C710 C 0.23872 0.41564 0.07674 0.0
C711 C 0.21058 0.38222 0.08316 0.0
C712 C 0.22535 0.39574 0.06729 0.0
C713 C 0.22351 0.4081 0.11647 0.0
C714 C 0.20988 0.38827 0.10789 0.0
O715 O 0.24347 0.50534 0.15645 0.0
O716 O 0.27445 0.4873 0.13354 0.0
O717 O 0.2805 0.42519 0.13013 0.0
O718 O 0.29915 0.44996 0.10475 0.0
O719 O 0.22891 0.51338 0.10102 0.0
O720 O 0.26782 0.49557 0.10233 0.0
O721 O 0.23135 0.46707 0.08625 0.0
O722 O 0.19904 0.46906 0.11214 0.0
O723 O 0.1873 0.52807 0.11144 0.0
O724 O 0.16833 0.50766 0.13928 0.0
O725 O 0.2452 0.45139 0.15031 0.0
O726 O 0.20544 0.46265 0.14462 0.0
C727 C 0.26677 0.5011 0.15155 0.0
C728 C 0.25254 0.51343 0.09617 0.0
C729 C 0.32454 0.41886 0.12338 0.0
C730 C 0.3489 0.38383 0.13697 0.0
C731 C 0.36886 0.42088 0.12278 0.0
C732 C 0.3462 0.43171 0.11847 0.0
C733 C 0.37024 0.39706 0.13188 0.0
C734 C 0.32594 0.39483 0.1329 0.0
C735 C 0.3009 0.43139 0.11956 0.0
C736 C 0.22721 0.38989 0.04239 0.0
C737 C 0.2423 0.40371 0.02702 0.0
H738 H 0.20005 0.36678 0.07661 0.0
C739 C 0.2078 0.46674 0.09001 0.0
C740 C 0.2225 0.45229 0.15788 0.0
C741 C 0.15266 0.54677 0.12969 0.0
C742 C 0.12101 0.57734 0.12101 0.0
C743 C 0.14307 0.57825 0.15951 0.0
C744 C 0.15658 0.55778 0.15247 0.0
C745 C 0.12543 0.588 0.14394 0.0
C746 C 0.13469 0.55651 0.11399 0.0
C747 C 0.16663 0.52467 0.12272 0.0
H748 H 0.38542 0.43098 0.11901 0.0
H749 H 0.34565 0.45033 0.11156 0.0
H750 H 0.38803 0.38885 0.13492 0.0
H751 H 0.30941 0.38468 0.13684 0.0
H752 H 0.14613 0.58648 0.1772 0.0
H753 H 0.16982 0.55037 0.165 0.0
H754 H 0.1149 0.60368 0.15008 0.0
H755 H 0.13146 0.548 0.09643 0.0
C756 C 0.7122 0.97142 0.81506 0.0
C757 C 0.73267 0.93219 0.82005 0.0
C758 C 0.72355 0.95422 0.83004 0.0
C759 C 0.73045 0.92785 0.79489 0.0
C760 C 0.70929 0.96677 0.78992 0.0
C761 C 0.71875 0.94505 0.77989 0.0
N762 N 0.70331 0.99234 0.8252 0.0
C763 C 0.68925 0.00807 0.81185 0.0
C764 C 0.69642 0.98382 0.77573 0.0
C765 C 0.68604 0.00439 0.78684 0.0
Gd766 Gd 0.7561 0.0489 0.89037 0.0
Gd767 Gd 0.70926 0.99658 0.86719 0.0
N768 N 0.72548 0.95892 0.85436 0.0
C769 C 0.74373 0.91516 0.83567 0.0
C770 C 0.73523 0.9419 0.86979 0.0
C771 C 0.74486 0.91997 0.86067 0.0
H772 H 0.73512 0.94481 0.88919 0.0
H773 H 0.75286 0.90665 0.87297 0.0
H774 H 0.72331 0.09638 0.87133 0.0
H775 H 0.67992 0.02316 0.82051 0.0
H776 H 0.70258 0.13264 0.88928 0.0
H777 H 0.75109 0.89808 0.82869 0.0
H778 H 0.73747 0.91108 0.78689 0.0
H779 H 0.78592 0.02066 0.93731 0.0
H780 H 0.69373 0.98088 0.75637 0.0
H781 H 0.67523 0.01719 0.77625 0.0
H782 H 0.71544 0.12366 0.97549 0.0
H783 H 0.7168 0.94123 0.76059 0.0
H784 H 0.76367 0.05583 0.00322 0.0
H785 H 0.78716 0.02352 0.98193 0.0
N786 N 0.75972 0.04946 0.93309 0.0
C787 C 0.74777 0.06826 0.94435 0.0
C788 C 0.7745 0.0341 0.9462 0.0
C789 C 0.76258 0.05436 0.98354 0.0
C790 C 0.77573 0.03599 0.9716 0.0
C791 C 0.74892 0.07119 0.96989 0.0
H792 H 0.7376 0.09355 1.00057 0.0
N793 N 0.73367 0.08177 0.90572 0.0
C794 C 0.73497 0.08521 0.93024 0.0
C795 C 0.7115 0.12262 0.92629 0.0
C796 C 0.72349 0.10556 0.94124 0.0
C797 C 0.72297 0.0988 0.8909 0.0
C798 C 0.71142 0.11933 0.90099 0.0
O799 O 0.74457 1.00061 0.84478 0.0
O800 O 0.77319 0.01669 0.87163 0.0
O801 O 0.77387 0.07604 0.8672 0.0
O802 O 0.78925 0.06674 0.90235 0.0
O803 O 0.72987 0.98756 0.90191 0.0
O804 O 0.76635 0.00954 0.90077 0.0
O805 O 0.7156 0.04934 0.8991 0.0
O806 O 0.70741 0.00931 0.90621 0.0
O807 O 0.68339 0.96632 0.87357 0.0
O808 O 0.67063 0.00391 0.86629 0.0
O809 O 0.74231 0.05214 0.85184 0.0
O810 O 0.70376 0.03637 0.85607 0.0
C811 C 0.76734 0.00571 0.85109 0.0
C812 C 0.75309 0.99042 0.90759 0.0
C813 C 0.81619 0.08344 0.87285 0.0
C814 C 0.84643 0.11131 0.85504 0.0
C815 C 0.85814 0.07012 0.86826 0.0
C816 C 0.83425 0.06541 0.87565 0.0
C817 C 0.86429 0.0929 0.85837 0.0
C818 C 0.82222 0.10613 0.86222 0.0
C819 C 0.79144 0.07991 0.88267 0.0
C820 C 0.72434 0.10826 0.96669 0.0
C821 C 0.73691 0.09106 0.98097 0.0
H822 H 0.7025 0.13851 0.93407 0.0
C823 C 0.70525 0.03234 0.91241 0.0
C824 C 0.71983 0.04965 0.84411 0.0
C825 C 0.63898 0.97357 0.8718 0.0
C826 C 0.60631 0.946 0.88476 0.0
C827 C 0.59703 0.98152 0.85965 0.0
C828 C 0.6216 0.98794 0.85943 0.0
C829 C 0.58941 0.96071 0.87219 0.0
C830 C 0.63125 0.95242 0.8846 0.0
C831 C 0.66485 0.98114 0.87079 0.0
H832 H 0.8721 0.05624 0.87071 0.0
H833 H 0.83 0.04788 0.88391 0.0
H834 H 0.88326 0.09613 0.85391 0.0
H835 H 0.80797 0.11974 0.85986 0.0
H836 H 0.58382 0.9927 0.85 0.0
H837 H 0.62703 0.00414 0.84935 0.0
H838 H 0.57019 0.95604 0.87211 0.0
H839 H 0.64441 0.94111 0.89422 0.0
C840 C 0.79474 0.03296 0.31769 0.0
C841 C 0.77362 0.07193 0.32218 0.0
C842 C 0.78268 0.04993 0.33228 0.0
C843 C 0.77656 0.07646 0.29712 0.0
C844 C 0.79856 0.0379 0.29272 0.0
C845 C 0.78904 0.05952 0.28245 0.0
N846 N 0.80376 0.01221 0.32816 0.0
C847 C 0.8191 0.99724 0.3154 0.0
C848 C 0.81251 0.02134 0.27901 0.0
C849 C 0.82321 1.00116 0.29053 0.0
Gd850 Gd 0.74756 0.95252 0.39109 0.0
Gd851 Gd 0.79558 0.00727 0.36988 0.0
N852 N 0.77998 0.04497 0.35645 0.0
C853 C 0.76206 0.0888 0.33764 0.0
C854 C 0.76966 0.06171 0.37173 0.0
C855 C 0.76026 0.08374 0.36258 0.0
H856 H 0.76922 0.0583 0.391 0.0
H857 H 0.75185 0.09689 0.37478 0.0
H858 H 0.78033 0.90429 0.3738 0.0
H859 H 0.82906 0.98297 0.32462 0.0
H860 H 0.80099 0.86871 0.39319 0.0
H861 H 0.75481 0.1059 0.33059 0.0
H862 H 0.7696 0.0932 0.289 0.0
H863 H 0.7178 0.98269 0.43734 0.0
H864 H 0.81594 0.02451 0.25979 0.0
H865 H 0.83509 0.98893 0.28042 0.0
H866 H 0.78881 0.88146 0.47899 0.0
H867 H 0.79165 0.06353 0.26325 0.0
H868 H 0.74042 0.95003 0.50422 0.0
H869 H 0.7169 0.98155 0.48187 0.0
N870 N 0.74449 0.95417 0.43389 0.0
C871 C 0.75638 0.93567 0.44578 0.0
C872 C 0.7296 0.96983 0.44654 0.0
C873 C 0.74165 0.95094 0.48451 0.0
C874 C 0.72845 0.96884 0.47198 0.0
C875 C 0.75538 0.93372 0.47144 0.0
H876 H 0.76696 0.91265 0.50294 0.0
N877 N 0.76992 0.92019 0.4076 0.0
C878 C 0.76888 0.91794 0.43227 0.0
C879 C 0.79222 0.88029 0.42978 0.0
C880 C 0.7804 0.89804 0.44406 0.0
C881 C 0.78062 0.90258 0.39346 0.0
C882 C 0.79218 0.88249 0.40436 0.0
O883 O 0.75898 0.0092 0.35019 0.0
O884 O 0.73156 0.97944 0.36464 0.0
O885 O 0.73243 0.9211 0.37193 0.0
O886 O 0.71249 0.93727 0.40178 0.0
O887 O 0.7726 0.01094 0.40392 0.0
O888 O 0.73542 0.99165 0.39982 0.0
O889 O 0.78834 0.95196 0.39909 0.0
O890 O 0.79492 0.99182 0.40782 0.0
O891 O 0.81741 0.03754 0.38343 0.0
O892 O 0.83518 0.00412 0.37148 0.0
O893 O 0.7625 0.95104 0.35298 0.0
O894 O 0.80103 0.96811 0.35595 0.0
C895 C 0.73756 0.99806 0.35047 0.0
C896 C 0.74867 0.01094 0.40584 0.0
C897 C 0.68963 0.91679 0.3712 0.0
C898 C 0.66074 0.88884 0.35158 0.0
C899 C 0.65386 0.93299 0.35063 0.0
C900 C 0.67522 0.9368 0.36395 0.0
C901 C 0.64668 0.90924 0.34441 0.0
C902 C 0.68224 0.8928 0.36514 0.0
C903 C 0.71252 0.92058 0.3848 0.0
C904 C 0.77985 0.89648 0.4696 0.0
C905 C 0.76747 0.91431 0.48325 0.0
H906 H 0.80126 0.86473 0.43818 0.0
C907 C 0.79891 0.96872 0.41249 0.0
C908 C 0.78472 0.95438 0.34459 0.0
C909 C 0.85813 0.0412 0.36981 0.0
C910 C 0.89201 0.06978 0.37607 0.0
C911 C 0.88084 0.05671 0.33511 0.0
C912 C 0.86209 0.0423 0.34458 0.0
C913 C 0.89565 0.07039 0.35067 0.0
C914 C 0.87324 0.05489 0.38558 0.0
C915 C 0.83812 0.0263 0.38 0.0
H916 H 0.64281 0.94852 0.34509 0.0
H917 H 0.68049 0.95535 0.36859 0.0
H918 H 0.62993 0.90679 0.33421 0.0
H919 H 0.69342 0.8773 0.37063 0.0
H920 H 0.88389 0.05732 0.31561 0.0
H921 H 0.85074 0.03207 0.33216 0.0
H922 H 0.91018 0.08128 0.34282 0.0
H923 H 0.87013 0.05425 0.40511 0.0
C924 C 0.2244 0.54284 0.56525 0.0
C925 C 0.18801 0.51757 0.56683 0.0
C926 C 0.20811 0.52857 0.57853 0.0
C927 C 0.18464 0.52096 0.54165 0.0
C928 C 0.22064 0.54688 0.54012 0.0
C929 C 0.20087 0.53562 0.52835 0.0
N930 N 0.24346 0.55341 0.57706 0.0
C931 C 0.25802 0.56991 0.56542 0.0
C932 C 0.23659 0.56256 0.52767 0.0
C933 C 0.25514 0.57442 0.54048 0.0
Gd934 Gd 0.29925 0.49643 0.64195 0.0
Gd935 Gd 0.24709 0.54418 0.61855 0.0
N936 N 0.21188 0.52554 0.60289 0.0
C937 C 0.17178 0.50365 0.58084 0.0
C938 C 0.19561 0.51279 0.61675 0.0
C939 C 0.17549 0.50143 0.60595 0.0
H940 H 0.19779 0.51162 0.63613 0.0
H941 H 0.16276 0.49114 0.61704 0.0
H942 H 0.34793 0.52697 0.62355 0.0
H943 H 0.27135 0.58021 0.57553 0.0
H944 H 0.38452 0.54645 0.64176 0.0
H945 H 0.15613 0.49488 0.57254 0.0
H946 H 0.16935 0.51257 0.53235 0.0
H947 H 0.27231 0.46442 0.68818 0.0
H948 H 0.23428 0.56619 0.50837 0.0
H949 H 0.26699 0.5873 0.53126 0.0
H950 H 0.37424 0.5342 0.72798 0.0
H951 H 0.19779 0.53839 0.50902 0.0
H952 H 0.30686 0.48531 0.75464 0.0
H953 H 0.27503 0.46208 0.73272 0.0
N954 N 0.30022 0.49152 0.68465 0.0
C955 C 0.31877 0.50328 0.69623 0.0
C956 C 0.28531 0.47599 0.69738 0.0
C957 C 0.30522 0.48716 0.73503 0.0
C958 C 0.28718 0.47408 0.72273 0.0
C959 C 0.32171 0.50147 0.72174 0.0
H960 H 0.34389 0.51214 0.75267 0.0
N961 N 0.33265 0.51739 0.65786 0.0
C962 C 0.33582 0.516 0.68238 0.0
C963 C 0.37381 0.53816 0.67873 0.0
C964 C 0.3563 0.52681 0.69355 0.0
C965 C 0.35018 0.5273 0.64315 0.0
C966 C 0.37085 0.53817 0.65339 0.0
O967 O 0.25156 0.50816 0.59701 0.0
O968 O 0.26598 0.48006 0.62527 0.0
O969 O 0.32509 0.47893 0.61722 0.0
O970 O 0.31716 0.46223 0.65203 0.0
O971 O 0.23786 0.52404 0.65336 0.0
O972 O 0.26001 0.48746 0.65441 0.0
O973 O 0.30169 0.53717 0.64949 0.0
O974 O 0.26195 0.54517 0.65672 0.0
O975 O 0.21517 0.56658 0.62711 0.0
O976 O 0.25052 0.58369 0.62149 0.0
O977 O 0.30146 0.51129 0.6035 0.0
O978 O 0.28629 0.55059 0.60652 0.0
C979 C 0.25493 0.48537 0.60467 0.0
C980 C 0.24097 0.50124 0.6608 0.0
C981 C 0.33408 0.43657 0.62124 0.0
C982 C 0.36276 0.40656 0.60418 0.0
C983 C 0.31955 0.39675 0.60826 0.0
C984 C 0.31493 0.41989 0.61819 0.0
C985 C 0.34323 0.39011 0.60127 0.0
C986 C 0.35796 0.42984 0.6143 0.0
C987 C 0.32989 0.46093 0.63203 0.0
C988 C 0.35879 0.52573 0.71902 0.0
C989 C 0.34146 0.51321 0.73308 0.0
H990 H 0.38983 0.54662 0.68662 0.0
C991 C 0.28488 0.54894 0.66174 0.0
C992 C 0.30052 0.53418 0.59595 0.0
C993 C 0.21536 0.60949 0.61849 0.0
C994 C 0.18927 0.64485 0.62734 0.0
C995 C 0.20946 0.64126 0.58802 0.0
C996 C 0.22003 0.61906 0.5952 0.0
C997 C 0.19417 0.65409 0.60396 0.0
C998 C 0.19991 0.62249 0.63458 0.0
C999 C 0.22755 0.58696 0.62709 0.0
H1000 H 0.30473 0.38385 0.60606 0.0
H1001 H 0.29652 0.42471 0.62361 0.0
H1002 H 0.34631 0.37193 0.59391 0.0
H1003 H 0.37273 0.44283 0.61659 0.0
H1004 H 0.21326 0.64864 0.57008 0.0
H1005 H 0.23203 0.6096 0.58268 0.0
H1006 H 0.18626 0.67136 0.59812 0.0
H1007 H 0.1964 0.61538 0.65273 0.0
C1008 C 0.17586 0.30559 0.49357 0.0
C1009 C 0.16859 0.28725 0.51021 0.0
C1010 C 0.18658 0.32727 0.5017 0.0
C1011 C 0.22335 0.35451 0.54842 0.0
H1012 H 0.18831 0.4154 0.53667 0.0
C1013 C 0.24599 0.44075 0.60202 0.0
C1014 C 0.24498 0.46408 0.59102 0.0
C1015 C 0.23795 0.41999 0.58982 0.0
C1016 C 0.1986 0.39868 0.53967 0.0
H1017 H 0.16867 0.27683 0.54842 0.0
H1018 H 0.18864 0.31447 0.56249 0.0
H1019 H 0.17257 0.37682 0.52013 0.0
H1020 H 0.23403 0.48374 0.55843 0.0
H1021 H 0.21962 0.44702 0.53681 0.0
H1022 H 0.2497 0.37604 0.56739 0.0
C1023 C 0.18518 0.3121 0.54318 0.0
C1024 C 0.18948 0.3766 0.53038 0.0
C1025 C 0.1738 0.29057 0.53511 0.0
C1026 C 0.23509 0.46609 0.56744 0.0
C1027 C 0.22686 0.44504 0.55509 0.0
C1028 C 0.23272 0.37656 0.5573 0.0
C1029 C 0.19111 0.33083 0.52657 0.0
C1030 C 0.20151 0.3543 0.53516 0.0
C1031 C 0.22853 0.42167 0.5661 0.0
C1032 C 0.22012 0.39888 0.55366 0.0
H1033 H 0.17261 0.30363 0.47418 0.0
H1034 H 0.1913 0.34133 0.48854 0.0
H1035 H 0.23316 0.33758 0.55193 0.0
H1036 H 0.253 0.43828 0.62033 0.0
H1037 H 0.23885 0.40257 0.59928 0.0
C1038 C 0.78821 0.97559 0.82272 0.0
C1039 C 0.7883 0.99762 0.83595 0.0
C1040 C 0.80982 0.96674 0.81198 0.0
C1041 C 0.87254 0.98605 0.79377 0.0
H1042 H 0.88932 0.91759 0.80333 0.0
C1043 C 0.95954 0.94224 0.75287 0.0
C1044 C 0.97234 0.92499 0.76702 0.0
C1045 C 0.93718 0.95169 0.7608 0.0
C1046 C 0.88497 0.93681 0.80071 0.0
H1047 H 0.81065 0.02838 0.84693 0.0
H1048 H 0.84797 0.01314 0.82867 0.0
H1049 H 0.84915 0.93264 0.81599 0.0
H1050 H 0.97199 0.90438 0.80073 0.0
H1051 H 0.93289 0.92114 0.81493 0.0
H1052 H 0.90846 0.99045 0.77911 0.0
C1053 C 0.83145 0.00252 0.8264 0.0
C1054 C 0.86179 0.94535 0.80761 0.0
C1055 C 0.81003 0.0112 0.8371 0.0
C1056 C 0.96278 0.91804 0.78974 0.0
C1057 C 0.94017 0.9273 0.79761 0.0
C1058 C 0.89562 0.97754 0.78688 0.0
C1059 C 0.83181 0.97997 0.81406 0.0
C1060 C 0.85541 0.97017 0.80451 0.0
C1061 C 0.92691 0.94394 0.78301 0.0
C1062 C 0.90225 0.95287 0.79047 0.0
H1063 H 0.77186 0.96472 0.82153 0.0
H1064 H 0.8094 0.94941 0.80234 0.0
H1065 H 0.86818 0.00522 0.79084 0.0
H1066 H 0.96635 0.94765 0.7351 0.0
H1067 H 0.92744 0.96428 0.74898 0.0
C1068 C 0.32742 0.69755 0.99122 0.0
C1069 C 0.33335 0.71678 0.00714 0.0
C1070 C 0.31621 0.67629 0.99987 0.0
C1071 C 0.28557 0.64853 0.05448 0.0
H1072 H 0.30791 0.58784 0.02485 0.0
C1073 C 0.28298 0.54722 0.09301 0.0
C1074 C 0.26239 0.5352 0.08361 0.0
C1075 C 0.29054 0.56963 0.08313 0.0
C1076 C 0.3015 0.60469 0.03318 0.0
H1077 H 0.33127 0.72926 0.04443 0.0
H1078 H 0.31206 0.69202 0.05995 0.0
H1079 H 0.32232 0.627 0.0089 0.0
H1080 H 0.23382 0.53674 0.05637 0.0
H1081 H 0.24784 0.57556 0.03827 0.0
H1082 H 0.26549 0.62565 0.07936 0.0
C1083 C 0.31567 0.69341 0.04058 0.0
C1084 C 0.30952 0.6272 0.02395 0.0
C1085 C 0.32666 0.71488 0.03176 0.0
C1086 C 0.24984 0.54564 0.06379 0.0
C1087 C 0.25773 0.56779 0.05356 0.0
C1088 C 0.27776 0.62594 0.06384 0.0
C1089 C 0.3109 0.6735 0.02485 0.0
C1090 C 0.30169 0.64952 0.03445 0.0
C1091 C 0.27791 0.58009 0.06341 0.0
C1092 C 0.28571 0.60391 0.05325 0.0
H1093 H 0.3321 0.69869 0.97205 0.0
H1094 H 0.31219 0.66185 0.98696 0.0
H1095 H 0.27884 0.66519 0.06289 0.0
H1096 H 0.29258 0.5398 0.10865 0.0
H1097 H 0.30609 0.57895 0.09101 0.0
C1098 C 0.5494 0.06831 0.25051 0.0
C1099 C 0.53424 0.08213 0.26602 0.0
C1100 C 0.57147 0.05879 0.25886 0.0
C1101 C 0.61729 0.06684 0.30806 0.0
H1102 H 0.64327 0.00663 0.28072 0.0
C1103 C 0.71493 0.03323 0.33108 0.0
C1104 C 0.71736 0.008 0.33556 0.0
C1105 C 0.69349 0.0426 0.32063 0.0
C1106 C 0.63628 0.02338 0.28874 0.0
H1107 H 0.52963 0.09556 0.30289 0.0
H1108 H 0.56784 0.07771 0.31804 0.0
H1109 H 0.6028 0.02031 0.26917 0.0
H1110 H 0.69998 0.97263 0.3312 0.0
H1111 H 0.66253 0.98875 0.31405 0.0
H1112 H 0.6504 0.06912 0.32863 0.0
C1113 C 0.563 0.07503 0.29908 0.0
C1114 C 0.61308 0.03144 0.28185 0.0
C1115 C 0.5409 0.08489 0.29057 0.0
C1116 C 0.6985 0.99222 0.32828 0.0
C1117 C 0.67708 1.0015 0.31813 0.0
C1118 C 0.64041 0.05856 0.31525 0.0
C1119 C 0.57883 0.0623 0.28316 0.0
C1120 C 0.60323 0.0533 0.29137 0.0
C1121 C 0.67403 0.02687 0.31458 0.0
C1122 C 0.65018 0.03665 0.30575 0.0
H1123 H 0.54477 0.06582 0.23145 0.0
H1124 H 0.58317 0.0495 0.24587 0.0
H1125 H 0.61057 0.08398 0.31546 0.0
H1126 H 0.729 0.04583 0.33674 0.0
H1127 H 0.69197 0.0622 0.31778 0.0
C1128 C 0.68041 0.2009 0.50585 0.0
C1129 C 0.67123 0.21915 0.49017 0.0
C1130 C 0.68896 0.17868 0.49671 0.0
C1131 C 0.68789 0.13957 0.44057 0.0
H1132 H 0.733 0.1013 0.47954 0.0
C1133 C 0.71336 0.03954 0.4138 0.0
C1134 C 0.73733 0.03189 0.41881 0.0
C1135 C 0.70454 0.06183 0.42322 0.0
C1136 C 0.72072 0.11171 0.46802 0.0
H1137 H 0.66573 0.22897 0.45227 0.0
H1138 H 0.6825 0.1907 0.43601 0.0
H1139 H 0.72295 0.14231 0.49187 0.0
H1140 H 0.77035 0.04082 0.43869 0.0
H1141 H 0.75587 0.07964 0.45368 0.0
H1142 H 0.68743 0.10945 0.41558 0.0
C1143 C 0.68184 0.1931 0.4556 0.0
C1144 C 0.71443 0.13533 0.47549 0.0
C1145 C 0.67262 0.2153 0.46487 0.0
C1146 C 0.75179 0.04622 0.43437 0.0
C1147 C 0.74329 0.06859 0.44322 0.0
C1148 C 0.69484 0.11611 0.43262 0.0
C1149 C 0.68959 0.17418 0.47145 0.0
C1150 C 0.69763 0.14959 0.46214 0.0
C1151 C 0.71962 0.07701 0.43762 0.0
C1152 C 0.71133 0.10174 0.44629 0.0
H1153 H 0.67977 0.20315 0.52548 0.0
H1154 H 0.69411 0.16473 0.50978 0.0
H1155 H 0.67461 0.14963 0.42987 0.0
H1156 H 0.70182 0.02884 0.40185 0.0
H1157 H 0.68602 0.06726 0.41889 0.0
C1158 C 0.05999 0.39834 0.73717 0.0
C1159 C 0.03843 0.41174 0.74161 0.0
C1160 C 0.08047 0.40954 0.72718 0.0
C1161 C 0.11379 0.46578 0.72534 0.0
H1162 H 0.14785 0.43593 0.6708 0.0
C1163 C 0.20329 0.5062 0.68601 0.0
C1164 C 0.22026 0.49048 0.67464 0.0
C1165 C 0.18092 0.49737 0.69445 0.0
C1166 C 0.13889 0.4443 0.68632 0.0
H1167 H 0.02152 0.4476 0.73884 0.0
H1168 H 0.05825 0.46772 0.72201 0.0
H1169 H 0.10799 0.42048 0.68304 0.0
H1170 H 0.22766 0.45274 0.66481 0.0
H1171 H 0.18914 0.43691 0.68087 0.0
H1172 H 0.14505 0.48879 0.72958 0.0
C1173 C 0.05879 0.44827 0.72602 0.0
C1174 C 0.11584 0.43564 0.69308 0.0
C1175 C 0.03782 0.43679 0.73552 0.0
C1176 C 0.21505 0.46532 0.67354 0.0
C1177 C 0.19269 0.45637 0.68233 0.0
C1178 C 0.13707 0.47423 0.71884 0.0
C1179 C 0.0803 0.43464 0.72181 0.0
C1180 C 0.10314 0.44614 0.71277 0.0
C1181 C 0.17497 0.4724 0.69225 0.0
C1182 C 0.1501 0.46345 0.69935 0.0
H1183 H 0.06119 0.379 0.74157 0.0
H1184 H 0.0968 0.39862 0.72434 0.0
H1185 H 0.10457 0.47392 0.74086 0.0
H1186 H 0.20671 0.52572 0.6872 0.0
H1187 H 0.16789 0.51045 0.70166 0.0
C1188 C 0.75295 0.95764 0.93922 0.0
C1189 C 0.76507 0.9698 0.92017 0.0
C1190 C 0.76224 0.93566 0.9486 0.0
C1191 C 0.796 0.88175 0.93033 0.0
H1192 H 0.80774 0.87095 0.99923 0.0
C1193 C 0.84252 0.79323 0.96598 0.0
C1194 C 0.83642 0.78476 0.98937 0.0
C1195 C 0.83311 0.81551 0.95736 0.0
C1196 C 0.80414 0.87339 0.97997 0.0
H1197 H 0.79621 0.96873 0.89585 0.0
H1198 H 0.81224 0.92984 0.91191 0.0
H1199 H 0.79314 0.91082 0.98525 0.0
H1200 H 0.81485 0.79229 0.02168 0.0
H1201 H 0.79757 0.83043 0.00635 0.0
H1202 H 0.806 0.84422 0.92493 0.0
C1203 C 0.79583 0.93758 0.91985 0.0
C1204 C 0.79597 0.89636 0.97199 0.0
C1205 C 0.78686 0.95991 0.9109 0.0
C1206 C 0.81999 0.79847 0.0036 0.0
C1207 C 0.8103 0.82052 0.99488 0.0
C1208 C 0.80372 0.85862 0.93833 0.0
C1209 C 0.78344 0.92515 0.9386 0.0
C1210 C 0.79206 0.90081 0.94709 0.0
C1211 C 0.81709 0.82966 0.97182 0.0
C1212 C 0.80809 0.85412 0.96327 0.0
H1213 H 0.73594 0.96483 0.94641 0.0
H1214 H 0.75232 0.92635 0.96297 0.0
H1215 H 0.79271 0.88465 0.91105 0.0
H1216 H 0.85541 0.78317 0.95477 0.0
H1217 H 0.83911 0.82198 0.93968 0.0
C1218 C 0.46201 0.5729 0.22851 0.0
C1219 C 0.46257 0.5865 0.25017 0.0
C1220 C 0.44 0.56303 0.22004 0.0
C1221 C 0.37622 0.54753 0.23726 0.0
H1222 H 0.36369 0.56065 0.16892 0.0
C1223 C 0.28348 0.52474 0.18805 0.0
C1224 C 0.28671 0.51354 0.16516 0.0
C1225 C 0.30365 0.53492 0.2004 0.0
C1226 C 0.3669 0.55669 0.18803 0.0
H1227 H 0.44103 0.59864 0.28101 0.0
H1228 H 0.40266 0.5816 0.26635 0.0
H1229 H 0.40236 0.57285 0.18671 0.0
H1230 H 0.31393 0.50468 0.13738 0.0
H1231 H 0.34797 0.52134 0.15872 0.0
H1232 H 0.34072 0.53084 0.23826 0.0
C1233 C 0.41909 0.57864 0.25572 0.0
C1234 C 0.38917 0.56358 0.19818 0.0
C1235 C 0.44103 0.58859 0.26402 0.0
C1236 C 0.31035 0.51301 0.15496 0.0
C1237 C 0.33013 0.5229 0.16715 0.0
C1238 C 0.35388 0.54036 0.22698 0.0
C1239 C 0.41816 0.56639 0.23325 0.0
C1240 C 0.39429 0.55879 0.2228 0.0
C1241 C 0.3272 0.53413 0.18991 0.0
C1242 C 0.34918 0.54448 0.2021 0.0
H1243 H 0.47814 0.57093 0.2175 0.0
H1244 H 0.43996 0.55332 0.20281 0.0
H1245 H 0.37961 0.5437 0.25635 0.0
H1246 H 0.26565 0.52523 0.19656 0.0
H1247 H 0.30083 0.54346 0.21801 0.0
C1248 C 0.53384 0.1595 0.2964 0.0
C1249 C 0.51163 0.16766 0.2866 0.0
C1250 C 0.5429 0.16966 0.31799 0.0
C1251 C 0.53465 0.221 0.36265 0.0
H1252 H 0.56611 0.17479 0.40643 0.0
C1253 C 0.56346 0.24642 0.46189 0.0
C1254 C 0.5877 0.24022 0.46747 0.0
C1255 C 0.55241 0.23718 0.44069 0.0
C1256 C 0.55742 0.18795 0.3944 0.0
H1257 H 0.48127 0.19257 0.29149 0.0
H1258 H 0.49684 0.21032 0.32943 0.0
H1259 H 0.55136 0.16085 0.36698 0.0
H1260 H 0.6191 0.21894 0.45617 0.0
H1261 H 0.59976 0.20223 0.41975 0.0
H1262 H 0.54061 0.24802 0.39049 0.0
C1263 C 0.50775 0.19659 0.32019 0.0
C1264 C 0.54911 0.18002 0.37162 0.0
C1265 C 0.49882 0.18653 0.2984 0.0
C1266 C 0.60033 0.22386 0.45225 0.0
C1267 C 0.58922 0.21429 0.43143 0.0
C1268 C 0.54281 0.2289 0.3856 0.0
C1269 C 0.52962 0.18783 0.33065 0.0
C1270 C 0.53794 0.19648 0.3552 0.0
C1271 C 0.56531 0.22123 0.42505 0.0
C1272 C 0.55459 0.21252 0.40161 0.0
H1273 H 0.54364 0.14445 0.28799 0.0
H1274 H 0.56002 0.16273 0.32509 0.0
H1275 H 0.52631 0.23429 0.35053 0.0
H1276 H 0.55351 0.25928 0.47325 0.0
H1277 H 0.53391 0.24274 0.43634 0.0
C1278 C 0.0723 0.24414 0.5515 0.0
C1279 C 0.08097 0.26073 0.53389 0.0
C1280 C 0.06189 0.25249 0.57319 0.0
C1281 C 0.03919 0.30844 0.60565 0.0
H1282 H 0.05802 0.27112 0.66302 0.0
C1283 C 0.03099 0.34728 0.70306 0.0
C1284 C 0.01818 0.33268 0.71977 0.0
C1285 C 0.03841 0.33772 0.68061 0.0
C1286 C 0.05248 0.28161 0.64715 0.0
H1287 H 0.08464 0.29904 0.52482 0.0
H1288 H 0.0664 0.31396 0.5627 0.0
H1289 H 0.06966 0.2565 0.62265 0.0
H1290 H 0.00355 0.29655 0.72666 0.0
H1291 H 0.01766 0.27924 0.68765 0.0
H1292 H 0.02284 0.33402 0.63053 0.0
C1293 C 0.0673 0.29437 0.55966 0.0
C1294 C 0.05897 0.27319 0.62392 0.0
C1295 C 0.07762 0.2859 0.53775 0.0
C1296 C 0.01387 0.30797 0.7142 0.0
C1297 C 0.02177 0.29819 0.69188 0.0
C1298 C 0.03303 0.31704 0.62893 0.0
C1299 C 0.06013 0.27774 0.57807 0.0
C1300 C 0.05243 0.28648 0.60279 0.0
C1301 C 0.03348 0.3132 0.67457 0.0
C1302 C 0.03969 0.30375 0.64991 0.0
H1303 H 0.07479 0.22456 0.54903 0.0
H1304 H 0.05599 0.23905 0.58649 0.0
H1305 H 0.03345 0.31899 0.58992 0.0
H1306 H 0.03381 0.36656 0.70664 0.0
H1307 H 0.0475 0.34967 0.6677 0.0
C1308 C 0.99287 0.85456 0.81342 0.0
C1309 C 0.99431 0.84235 0.79083 0.0
C1310 C 0.98293 0.84317 0.8338 0.0
C1311 C 0.97411 0.78467 0.86298 0.0
H1312 H 0.92695 0.82006 0.90249 0.0
C1313 C 0.92809 0.74185 0.94789 0.0
C1314 C 0.92046 0.75711 0.96719 0.0
C1315 C 0.93833 0.75169 0.92672 0.0
C1316 C 0.94044 0.81007 0.89198 0.0
H1317 H 0.98639 0.80828 0.77213 0.0
H1318 H 0.9693 0.78786 0.80848 0.0
H1319 H 0.94029 0.8372 0.8637 0.0
H1320 H 0.91916 0.79477 0.97963 0.0
H1321 H 0.93814 0.81194 0.94319 0.0
H1322 H 0.97501 0.75792 0.89156 0.0
C1323 C 0.97578 0.80654 0.80997 0.0
C1324 C 0.94783 0.81977 0.86957 0.0
C1325 C 0.98542 0.81823 0.7892 0.0
C1326 C 0.92482 0.78243 0.96529 0.0
C1327 C 0.93538 0.79231 0.94413 0.0
C1328 C 0.96694 0.77505 0.88559 0.0
C1329 C 0.97442 0.81903 0.83244 0.0
C1330 C 0.96482 0.80725 0.85489 0.0
C1331 C 0.9416 0.77712 0.92423 0.0
C1332 C 0.95005 0.78767 0.90048 0.0
H1333 H 0.99962 0.87307 0.81559 0.0
H1334 H 0.98242 0.85313 0.85089 0.0
H1335 H 0.98754 0.77485 0.85221 0.0
H1336 H 0.92528 0.72221 0.94863 0.0
H1337 H 0.94263 0.73933 0.91187 0.0
C1338 C 0.46636 0.66848 0.21418 0.0
C1339 C 0.49124 0.67051 0.22001 0.0
C1340 C 0.45754 0.67713 0.1917 0.0
C1341 C 0.47608 0.71488 0.13714 0.0
H1342 H 0.42266 0.68041 0.10629 0.0
C1343 C 0.43261 0.75225 0.04966 0.0
C1344 C 0.42005 0.73677 0.03349 0.0
C1345 C 0.44207 0.74332 0.07149 0.0
C1346 C 0.43791 0.69001 0.11435 0.0
H1347 H 0.52608 0.68446 0.20746 0.0
H1348 H 0.51129 0.69832 0.16836 0.0
H1349 H 0.43675 0.66747 0.14631 0.0
H1350 H 0.4093 0.6992 0.02682 0.0
H1351 H 0.42751 0.68302 0.06439 0.0
H1352 H 0.47867 0.73615 0.1047 0.0
C1353 C 0.49816 0.6907 0.18099 0.0
C1354 C 0.44569 0.6829 0.13771 0.0
C1355 C 0.50679 0.68257 0.20353 0.0
C1356 C 0.4188 0.71162 0.03892 0.0
C1357 C 0.42891 0.70247 0.06071 0.0
C1358 C 0.46883 0.72148 0.11362 0.0
C1359 C 0.47347 0.68781 0.17446 0.0
C1360 C 0.46478 0.6954 0.1496 0.0
C1361 C 0.44022 0.71834 0.07763 0.0
C1362 C 0.44931 0.70951 0.10194 0.0
H1363 H 0.45392 0.65922 0.22647 0.0
H1364 H 0.4383 0.67506 0.18776 0.0
H1365 H 0.49053 0.7254 0.14554 0.0
H1366 H 0.4341 0.77173 0.0461 0.0
H1367 H 0.45 0.75647 0.08393 0.0
C1368 C 0.16048 0.32477 0.3338 0.0
C1369 C 0.14775 0.33915 0.35092 0.0
C1370 C 0.17246 0.33585 0.31401 0.0
C1371 C 0.19423 0.39619 0.28998 0.0
H1372 H 0.18229 0.36674 0.22677 0.0
C1373 C 0.23232 0.43717 0.19986 0.0
C1374 C 0.21597 0.43834 0.18015 0.0
C1375 C 0.22622 0.42426 0.22111 0.0
C1376 C 0.18573 0.37523 0.24428 0.0
H1377 H 0.13919 0.37645 0.36164 0.0
H1378 H 0.15964 0.39563 0.32725 0.0
H1379 H 0.16904 0.34559 0.2637 0.0
H1380 H 0.18073 0.42641 0.1669 0.0
H1381 H 0.17003 0.4038 0.20396 0.0
H1382 H 0.21025 0.42619 0.27047 0.0
C1383 C 0.1605 0.37586 0.32895 0.0
C1384 C 0.17843 0.36294 0.26551 0.0
C1385 C 0.14855 0.36483 0.3486 0.0
C1386 C 0.19357 0.42599 0.18192 0.0
C1387 C 0.18756 0.41288 0.20306 0.0
C1388 C 0.20162 0.40842 0.26876 0.0
C1389 C 0.17211 0.36153 0.31103 0.0
C1390 C 0.18223 0.37342 0.28864 0.0
C1391 C 0.20378 0.41191 0.22296 0.0
C1392 C 0.19714 0.39827 0.24562 0.0
H1393 H 0.16019 0.30495 0.33504 0.0
H1394 H 0.18154 0.32427 0.30075 0.0
H1395 H 0.19769 0.40472 0.30747 0.0
H1396 H 0.24972 0.44652 0.19897 0.0
H1397 H 0.23921 0.42374 0.23599 0.0
C1398 C 0.93476 0.91055 0.57919 0.0
C1399 C 0.9252 0.89397 0.59626 0.0
C1400 C 0.91935 0.92219 0.56233 0.0
C1401 C 0.86097 0.91075 0.53119 0.0
H1402 H 0.87091 0.97569 0.50416 0.0
C1403 C 0.82376 0.93881 0.4369 0.0
C1404 C 0.8126 0.96189 0.43479 0.0
C1405 C 0.83598 0.93216 0.45831 0.0
C1406 C 0.86777 0.95759 0.51166 0.0
H1407 H 0.89223 0.87731 0.61011 0.0
H1408 H 0.86512 0.89795 0.58107 0.0
H1409 H 0.89435 0.96268 0.53992 0.0
H1410 H 0.80634 0.99659 0.45313 0.0
H1411 H 0.82828 0.98523 0.49031 0.0
H1412 H 0.83457 0.90556 0.50288 0.0
C1413 C 0.8845 0.90178 0.58034 0.0
C1414 C 0.88133 0.95006 0.53204 0.0
C1415 C 0.89992 0.89014 0.59712 0.0
C1416 C 0.81468 0.97858 0.45423 0.0
C1417 C 0.82723 0.97209 0.47553 0.0
C1418 C 0.84756 0.9182 0.5108 0.0
C1419 C 0.8941 0.91731 0.56219 0.0
C1420 C 0.87831 0.92641 0.5419 0.0
C1421 C 0.83785 0.94872 0.4779 0.0
C1422 C 0.85104 0.94155 0.50056 0.0
H1423 H 0.95428 0.91353 0.57808 0.0
H1424 H 0.92743 0.93386 0.54854 0.0
H1425 H 0.85832 0.89232 0.53805 0.0
H1426 H 0.82306 0.92586 0.42196 0.0
H1427 H 0.84431 0.91415 0.45939 0.0
C1428 C 0.31564 0.57158 0.68693 0.0
C1429 C 0.29158 0.56347 0.68355 0.0
C1430 C 0.32249 0.58326 0.70856 0.0
C1431 C 0.29979 0.61971 0.75961 0.0
H1432 H 0.35403 0.59192 0.79582 0.0
C1433 C 0.32148 0.64791 0.85905 0.0
C1434 C 0.34603 0.64892 0.8662 0.0
C1435 C 0.31513 0.63922 0.8359 0.0
C1436 C 0.33913 0.60023 0.78578 0.0
H1437 H 0.25524 0.56319 0.69937 0.0
H1438 H 0.26698 0.5847 0.73668 0.0
H1439 H 0.34235 0.57409 0.75673 0.0
H1440 H 0.38328 0.64207 0.85498 0.0
H1441 H 0.37236 0.62687 0.81441 0.0
H1442 H 0.29667 0.64607 0.78837 0.0
C1443 C 0.28073 0.5812 0.7229 0.0
C1444 C 0.3324 0.58992 0.76343 0.0
C1445 C 0.27404 0.5689 0.70153 0.0
C1446 C 0.36422 0.6415 0.84974 0.0
C1447 C 0.3579 0.63261 0.82664 0.0
C1448 C 0.30669 0.63023 0.78184 0.0
C1449 C 0.30513 0.588 0.72684 0.0
C1450 C 0.31259 0.59947 0.75019 0.0
C1451 C 0.33324 0.63113 0.81947 0.0
C1452 C 0.32637 0.62054 0.79532 0.0
H1453 H 0.32928 0.56868 0.67295 0.0
H1454 H 0.34135 0.58868 0.71096 0.0
H1455 H 0.28458 0.62756 0.74963 0.0
H1456 H 0.30719 0.65357 0.87153 0.0
H1457 H 0.29597 0.63817 0.83118 0.0
C1458 C 0.60423 0.11376 0.09583 0.0
C1459 C 0.57885 0.11065 0.09495 0.0
C1460 C 0.61939 0.1016 0.07918 0.0
C1461 C 0.62122 0.05308 0.03094 0.0
H1462 H 0.67075 0.09528 1.00288 0.0
C1463 C 0.68787 0.02208 0.95358 0.0
C1464 C 0.69113 0.03904 0.93452 0.0
C1465 C 0.67519 0.02877 0.97481 0.0
C1466 C 0.65699 0.08326 0.01049 0.0
H1467 H 0.54931 0.09189 0.07676 0.0
H1468 H 0.57569 0.0708 0.04731 0.0
H1469 H 0.64696 0.10956 0.03758 0.0
H1470 H 0.68236 0.07572 0.92215 0.0
H1471 H 0.66112 0.08773 0.95937 0.0
H1472 H 0.63093 0.02709 0.00313 0.0
C1473 C 0.58405 0.08225 0.06109 0.0
C1474 C 0.64352 0.09131 0.03064 0.0
C1475 C 0.5689 0.09433 0.07789 0.0
C1476 C 0.68092 0.06255 0.93685 0.0
C1477 C 0.66864 0.06937 0.95816 0.0
C1478 C 0.63483 0.04496 0.01079 0.0
C1479 C 0.60946 0.08631 0.06104 0.0
C1480 C 0.62518 0.07651 0.04095 0.0
C1481 C 0.66569 0.05262 0.97746 0.0
C1482 C 0.65255 0.06017 1.00006 0.0
H1483 H 0.61224 0.12633 0.10884 0.0
H1484 H 0.63888 0.1048 0.08005 0.0
H1485 H 0.60744 0.04108 0.03853 0.0
H1486 H 0.69543 0.00375 0.95226 0.0
H1487 H 0.67325 0.01544 0.98934 0.0
C1488 C 0.63652 0.14167 0.65941 0.0
C1489 C 0.63829 0.16725 0.65673 0.0
C1490 C 0.64944 0.12943 0.67778 0.0
C1491 C 0.67254 0.14002 0.73917 0.0
H1492 H 0.70295 0.0761 0.73174 0.0
C1493 C 0.68908 0.07406 0.82029 0.0
C1494 C 0.71238 0.06341 0.82203 0.0
C1495 C 0.68232 0.08727 0.79942 0.0
C1496 C 0.69464 0.09401 0.73407 0.0
H1497 H 0.65585 0.19993 0.67053 0.0
H1498 H 0.67823 0.17855 0.70306 0.0
H1499 H 0.68873 0.09848 0.69559 0.0
H1500 H 0.74674 0.05779 0.80321 0.0
H1501 H 0.73471 0.08042 0.76643 0.0
H1502 H 0.67782 0.13528 0.77766 0.0
C1503 C 0.6668 0.16799 0.69086 0.0
C1504 C 0.68642 0.10677 0.7134 0.0
C1505 C 0.65414 0.18021 0.67217 0.0
C1506 C 0.7287 0.06598 0.80239 0.0
C1507 C 0.72178 0.07877 0.78131 0.0
C1508 C 0.6804 0.12711 0.75983 0.0
C1509 C 0.6642 0.14252 0.69418 0.0
C1510 C 0.67507 0.12985 0.71574 0.0
C1511 C 0.69858 0.08976 0.77968 0.0
C1512 C 0.69131 0.10386 0.75755 0.0
H1513 H 0.62457 0.1312 0.64764 0.0
H1514 H 0.64693 0.10984 0.67988 0.0
H1515 H 0.66368 0.15763 0.74164 0.0
H1516 H 0.67617 0.07237 0.83518 0.0
H1517 H 0.66425 0.09534 0.79859 0.0
C1518 C 0.20044 0.4692 0.04544 0.0
C1519 C 0.19191 0.46242 0.06864 0.0
C1520 C 0.18726 0.46339 0.02453 0.0
C1521 C 0.12711 0.4415 1.00127 0.0
H1522 H 0.16694 0.42443 0.94521 0.0
C1523 C 0.09218 0.39761 0.90962 0.0
C1524 C 0.10185 0.40798 0.88811 0.0
C1525 C 0.10042 0.40524 0.93265 0.0
C1526 C 0.15554 0.42931 0.96064 0.0
H1527 H 0.16252 0.44467 0.0882 0.0
H1528 H 0.13951 0.43375 0.05132 0.0
H1529 H 0.18648 0.43489 0.98346 0.0
H1530 H 0.12637 0.43604 0.8744 0.0
H1531 H 0.14123 0.44851 0.91425 0.0
H1532 H 0.0961 0.43495 0.97808 0.0
C1533 C 0.15628 0.44403 0.04939 0.0
C1534 C 0.16674 0.43547 0.98262 0.0
C1535 C 0.16942 0.45025 0.07053 0.0
C1536 C 0.11905 0.42698 0.89038 0.0
C1537 C 0.12747 0.43431 0.91327 0.0
C1538 C 0.11584 0.43492 0.97919 0.0
C1539 C 0.16532 0.45013 0.02605 0.0
C1540 C 0.15278 0.44216 0.00316 0.0
C1541 C 0.11868 0.42317 0.93463 0.0
C1542 C 0.13001 0.42918 0.95855 0.0
H1543 H 0.21758 0.47887 0.04338 0.0
H1544 H 0.19451 0.46917 0.00707 0.0
H1545 H 0.11573 0.44661 0.01661 0.0
H1546 H 0.079 0.38288 0.90874 0.0
H1547 H 0.09335 0.39631 0.94884 0.0
C1548 C 0.81571 0.93621 0.31537 0.0
C1549 C 0.79129 0.94108 0.32178 0.0
C1550 C 0.82134 0.92461 0.29323 0.0
C1551 C 0.80029 0.88002 0.25023 0.0
H1552 H 0.83858 0.91334 0.20089 0.0
C1553 C 0.82685 0.82879 0.16235 0.0
C1554 C 0.85087 0.83243 0.15425 0.0
C1555 C 0.81629 0.84494 0.17931 0.0
C1556 C 0.82814 0.90353 0.2145 0.0
H1557 H 0.75362 0.93608 0.31043 0.0
H1558 H 0.76356 0.91461 0.27263 0.0
H1559 H 0.82852 0.93437 0.2389 0.0
H1560 H 0.88211 0.85645 0.15619 0.0
H1561 H 0.86423 0.88425 0.18571 0.0
H1562 H 0.80096 0.84868 0.22695 0.0
C1563 C 0.77828 0.92065 0.28436 0.0
C1564 C 0.82231 0.91572 0.23625 0.0
C1565 C 0.77266 0.93288 0.30607 0.0
C1566 C 0.86337 0.85351 0.16183 0.0
C1567 C 0.85302 0.86945 0.17894 0.0
C1568 C 0.80659 0.86759 0.22877 0.0
C1569 C 0.80265 0.91671 0.27756 0.0
C1570 C 0.80849 0.904 0.25436 0.0
C1571 C 0.82972 0.86483 0.18883 0.0
C1572 C 0.82083 0.87904 0.21058 0.0
H1573 H 0.83046 0.94125 0.32747 0.0
H1574 H 0.8403 0.92137 0.28853 0.0
H1575 H 0.78961 0.8706 0.26398 0.0
H1576 H 0.81699 0.81243 0.1571 0.0
H1577 H 0.79806 0.84104 0.18584 0.0
C1578 C 0.32389 0.5227 0.55816 0.0
C1579 C 0.31479 0.54101 0.5738 0.0
C1580 C 0.33622 0.52884 0.53662 0.0
C1581 C 0.36479 0.58199 0.50306 0.0
H1582 H 0.35786 0.53807 0.44805 0.0
C1583 C 0.41096 0.60376 0.40995 0.0
C1584 C 0.39884 0.59651 0.38847 0.0
C1585 C 0.40291 0.59576 0.43297 0.0
C1586 C 0.3598 0.55086 0.463 0.0
H1587 H 0.31322 0.58025 0.57971 0.0
H1588 H 0.33293 0.59109 0.54146 0.0
H1589 H 0.33891 0.52778 0.48645 0.0
H1590 H 0.36928 0.57381 0.37491 0.0
H1591 H 0.35433 0.56163 0.41441 0.0
H1592 H 0.38419 0.60593 0.47904 0.0
C1593 C 0.331 0.57185 0.54586 0.0
C1594 C 0.34924 0.54463 0.48543 0.0
C1595 C 0.31916 0.56565 0.56771 0.0
C1596 C 0.37884 0.58049 0.39083 0.0
C1597 C 0.37048 0.57298 0.41376 0.0
C1598 C 0.3749 0.5885 0.48043 0.0
C1599 C 0.33958 0.55355 0.52979 0.0
C1600 C 0.35147 0.56009 0.5059 0.0
C1601 C 0.38223 0.58056 0.43532 0.0
C1602 C 0.37247 0.57312 0.45992 0.0
H1603 H 0.32123 0.50347 0.56236 0.0
H1604 H 0.34311 0.51406 0.52537 0.0
H1605 H 0.36748 0.59428 0.5183 0.0
H1606 H 0.42634 0.61615 0.40917 0.0
H1607 H 0.41292 0.60168 0.44891 0.0
C1608 C 0.2067 0.2195 0.45071 0.0
C1609 C 0.18342 0.21367 0.44179 0.0
C1610 C 0.22758 0.21376 0.43737 0.0
C1611 C 0.25103 0.19462 0.37644 0.0
H1612 H 0.30606 0.17366 0.41587 0.0
C1613 C 0.3432 0.15072 0.34121 0.0
C1614 C 0.36444 0.15965 0.35265 0.0
C1615 C 0.31998 0.15869 0.34879 0.0
C1616 C 0.29093 0.17964 0.40458 0.0
H1617 H 0.1637 0.19776 0.41148 0.0
H1618 H 0.20054 0.18703 0.38816 0.0
H1619 H 0.26768 0.18376 0.43547 0.0
H1620 H 0.37782 0.18574 0.37929 0.0
H1621 H 0.3376 0.19912 0.39271 0.0
H1622 H 0.27469 0.18959 0.34541 0.0
C1623 C 0.20254 0.19645 0.40542 0.0
C1624 C 0.26888 0.18557 0.41583 0.0
C1625 C 0.18144 0.20253 0.41876 0.0
C1626 C 0.36191 0.17789 0.37059 0.0
C1627 C 0.33885 0.18567 0.37822 0.0
C1628 C 0.27321 0.1883 0.36508 0.0
C1629 C 0.22593 0.20158 0.41483 0.0
C1630 C 0.24874 0.19369 0.40205 0.0
C1631 C 0.31763 0.17562 0.36799 0.0
C1632 C 0.29351 0.18122 0.37916 0.0
H1633 H 0.20888 0.2284 0.46824 0.0
H1634 H 0.24513 0.21876 0.44495 0.0
H1635 H 0.23595 0.20081 0.36524 0.0
H1636 H 0.34443 0.13666 0.32731 0.0
H1637 H 0.3039 0.15067 0.34056 0.0
C1638 C 0.08099 0.11399 0.61874 0.0
C1639 C 0.1014 0.1144 0.60325 0.0
C1640 C 0.07127 0.09174 0.62677 0.0
C1641 C 0.07403 0.02357 0.61885 0.0
H1642 H 0.05633 0.02431 0.6874 0.0
C1643 C 0.06117 0.93547 0.67747 0.0
C1644 C 0.04062 0.9351 0.69278 0.0
C1645 C 0.06759 0.95694 0.66501 0.0
C1646 C 0.06097 0.02383 0.66818 0.0
H1647 H 0.12688 0.092 0.58289 0.0
H1648 H 0.11025 0.05292 0.59722 0.0
H1649 H 0.0682 0.06224 0.66741 0.0
H1650 H 0.0106 0.95666 0.70712 0.0
H1651 H 0.0219 0.99423 0.68558 0.0
H1652 H 0.06736 0.98479 0.6201 0.0
C1653 C 0.10143 0.06975 0.60294 0.0
C1654 C 0.06766 0.04564 0.65661 0.0
C1655 C 0.11098 0.09212 0.59466 0.0
C1656 C 0.02648 0.95646 0.69531 0.0
C1657 C 0.03306 0.97798 0.68315 0.0
C1658 C 0.06751 1.00165 0.63054 0.0
C1659 C 0.08201 0.0693 0.61985 0.0
C1660 C 0.0742 0.04589 0.63174 0.0
C1661 C 0.05369 0.97848 0.66785 0.0
C1662 C 0.06083 1.00158 0.65532 0.0
H1663 H 0.07325 0.13097 0.62555 0.0
H1664 H 0.05586 0.09219 0.63915 0.0
H1665 H 0.07873 0.02301 0.59967 0.0
H1666 H 0.07229 0.91916 0.67521 0.0
H1667 H 0.08372 0.95683 0.65357 0.0
C1668 C 0.16052 0.85487 0.84437 0.0
C1669 C 0.13858 0.84834 0.85622 0.0
C1670 C 0.18322 0.84677 0.85329 0.0
C1671 C 0.21231 0.82782 0.91079 0.0
H1672 H 0.26456 0.8021 0.8704 0.0
C1673 C 0.29916 0.78454 0.95261 0.0
C1674 C 0.32166 0.79083 0.94215 0.0
C1675 C 0.27723 0.79144 0.94137 0.0
C1676 C 0.25025 0.80952 0.88189 0.0
H1677 H 0.12389 0.82634 0.8859 0.0
H1678 H 0.16317 0.81341 0.90183 0.0
H1679 H 0.22564 0.81404 0.85165 0.0
H1680 H 0.33915 0.80811 0.91126 0.0
H1681 H 0.30075 0.81964 0.89105 0.0
H1682 H 0.23675 0.82358 0.94098 0.0
C1683 C 0.16279 0.82503 0.88579 0.0
C1684 C 0.22795 0.81633 0.87114 0.0
C1685 C 0.14017 0.83268 0.87666 0.0
C1686 C 0.32195 0.80339 0.9198 0.0
C1687 C 0.29998 0.80983 0.90822 0.0
C1688 C 0.23455 0.82113 0.9215 0.0
C1689 C 0.18463 0.83227 0.87449 0.0
C1690 C 0.20864 0.8254 0.88551 0.0
C1691 C 0.27731 0.80418 0.919 0.0
C1692 C 0.2538 0.81174 0.90726 0.0
H1693 H 0.16035 0.86696 0.82871 0.0
H1694 H 0.19973 0.85266 0.84414 0.0
H1695 H 0.19799 0.83517 0.92234 0.0
H1696 H 0.29855 0.77461 0.96974 0.0
H1697 H 0.26019 0.78652 0.95009 0.0
C1698 C 0.48235 0.05427 0.18319 0.0
C1699 C 0.46378 0.06978 0.19215 0.0
C1700 C 0.47655 0.0333 0.16965 0.0
C1701 C 0.43236 0.98609 0.16417 0.0
H1702 H 0.44695 0.97976 0.09523 0.0
C1703 C 0.38096 0.918 0.10385 0.0
C1704 C 0.39144 0.90873 0.08235 0.0
C1705 C 0.39347 0.9348 0.11835 0.0
C1706 C 0.4432 0.98083 0.11459 0.0
H1707 H 0.42481 0.0765 0.19179 0.0
H1708 H 0.41457 0.03878 0.1701 0.0
H1709 H 0.46184 0.01534 0.11789 0.0
H1710 H 0.42415 0.90864 0.06009 0.0
H1711 H 0.44653 0.93752 0.08593 0.0
H1712 H 0.41423 0.95161 0.16142 0.0
C1713 C 0.43357 0.04293 0.17366 0.0
C1714 C 0.4516 1.00135 0.12747 0.0
C1715 C 0.43941 0.0643 0.18644 0.0
C1716 C 0.41553 0.91548 0.07653 0.0
C1717 C 0.42822 0.9323 0.09121 0.0
C1718 C 0.42443 0.96536 0.1515 0.0
C1719 C 0.45209 0.02722 0.16526 0.0
C1720 C 0.44564 0.00442 0.15218 0.0
C1721 C 0.41709 0.94267 0.11203 0.0
C1722 C 0.42899 0.96278 0.1263 0.0
H1723 H 0.50138 0.05813 0.18687 0.0
H1724 H 0.49112 0.02152 0.16314 0.0
H1725 H 0.42785 0.98797 0.18334 0.0
H1726 H 0.3626 0.91287 0.10911 0.0
H1727 H 0.38399 0.94241 0.13394 0.0
C1728 C 0.83307 0.37428 0.65324 0.0
C1729 C 0.84324 0.3628 0.67383 0.0
C1730 C 0.81637 0.36205 0.63843 0.0
C1731 C 0.77233 0.31027 0.6399 0.0
H1732 H 0.76353 0.3295 0.57229 0.0
C1733 C 0.69855 0.272 0.57177 0.0
C1734 C 0.68289 0.29055 0.56295 0.0
C1735 C 0.71957 0.27795 0.58507 0.0
C1736 C 0.76585 0.32392 0.59113 0.0
H1737 H 0.84486 0.32874 0.69416 0.0
H1738 H 0.81605 0.30691 0.66778 0.0
H1739 H 0.79952 0.34325 0.59451 0.0
H1740 H 0.67613 0.32967 0.56323 0.0
H1741 H 0.71388 0.34017 0.58446 0.0
H1742 H 0.73867 0.29043 0.63595 0.0
C1743 C 0.82057 0.32573 0.66345 0.0
C1744 C 0.78638 0.33191 0.604 0.0
C1745 C 0.83733 0.33813 0.67843 0.0
C1746 C 0.68842 0.31507 0.56844 0.0
C1747 C 0.70982 0.32106 0.58097 0.0
C1748 C 0.75202 0.30182 0.6268 0.0
C1749 C 0.80942 0.33774 0.6435 0.0
C1750 C 0.78956 0.32593 0.62884 0.0
C1751 C 0.72561 0.30255 0.58936 0.0
C1752 C 0.7483 0.30916 0.60252 0.0
H1753 H 0.8375 0.39315 0.64895 0.0
H1754 H 0.80813 0.37221 0.62359 0.0
H1755 H 0.77387 0.30537 0.65898 0.0
H1756 H 0.69473 0.25286 0.56822 0.0
H1757 H 0.7314 0.26336 0.59152 0.0
C1758 C 0.94161 0.43088 0.82701 0.0
C1759 C 0.96253 0.43001 0.81223 0.0
C1760 C 0.93529 0.45254 0.83936 0.0
C1761 C 0.94149 0.51927 0.83593 0.0
H1762 H 0.92561 0.51919 0.90489 0.0
C1763 C 0.91851 0.61 0.88396 0.0
C1764 C 0.89908 0.60995 0.9007 0.0
C1765 C 0.92898 0.588 0.87592 0.0
C1766 C 0.92971 0.51958 0.88557 0.0
H1767 H 0.99298 0.45098 0.79826 0.0
H1768 H 0.98148 0.48907 0.81908 0.0
H1769 H 0.93722 0.48086 0.88473 0.0
H1770 H 0.87628 0.58687 0.92323 0.0
H1771 H 0.89413 0.54827 0.90894 0.0
H1772 H 0.93318 0.55753 0.8362 0.0
C1773 C 0.9702 0.47297 0.82153 0.0
C1774 C 0.93642 0.49757 0.87404 0.0
C1775 C 0.97685 0.45118 0.80972 0.0
C1776 C 0.89138 0.58744 0.91046 0.0
C1777 C 0.90165 0.5653 0.90217 0.0
C1778 C 0.93447 0.54116 0.84732 0.0
C1779 C 0.94944 0.47388 0.83664 0.0
C1780 C 0.94239 0.49718 0.84908 0.0
C1781 C 0.92001 0.56521 0.88406 0.0
C1782 C 0.92847 0.54175 0.87235 0.0
H1783 H 0.93034 0.41474 0.82925 0.0
H1784 H 0.9191 0.45272 0.85072 0.0
H1785 H 0.94568 0.51953 0.81661 0.0
H1786 H 0.92486 0.62712 0.8762 0.0
H1787 H 0.9436 0.58891 0.86265 0.0
C1788 C 0.79822 0.72384 0.06031 0.0
C1789 C 0.82002 0.71037 0.06164 0.0
C1790 C 0.77767 0.71674 0.07381 0.0
C1791 C 0.75776 0.67235 0.12335 0.0
H1792 H 0.69341 0.6938 0.1029 0.0
C1793 C 0.66982 0.63806 0.17124 0.0
C1794 C 0.65531 0.65725 0.18044 0.0
C1795 C 0.68819 0.64286 0.15397 0.0
C1796 C 0.71127 0.68757 0.10875 0.0
H1797 H 0.83735 0.67845 0.07732 0.0
H1798 H 0.80128 0.66467 0.09922 0.0
H1799 H 0.72892 0.70512 0.07878 0.0
H1800 H 0.64752 0.69609 0.17754 0.0
H1801 H 0.67899 0.70432 0.14697 0.0
H1802 H 0.7396 0.65402 0.15283 0.0
C1803 C 0.80003 0.68168 0.08915 0.0
C1804 C 0.73187 0.69433 0.09508 0.0
C1805 C 0.82086 0.68944 0.07643 0.0
C1806 C 0.65839 0.68094 0.17073 0.0
C1807 C 0.67641 0.68565 0.15321 0.0
C1808 C 0.73711 0.66505 0.13657 0.0
C1809 C 0.77798 0.69526 0.08826 0.0
C1810 C 0.75564 0.68717 0.1023 0.0
C1811 C 0.69209 0.66685 0.14524 0.0
C1812 C 0.71365 0.6728 0.12964 0.0
H1813 H 0.79713 0.74005 0.04889 0.0
H1814 H 0.76165 0.72832 0.07286 0.0
H1815 H 0.77541 0.66676 0.13023 0.0
H1816 H 0.66797 0.61967 0.1785 0.0
H1817 H 0.69986 0.62796 0.14797 0.0
C1818 C 0.60565 0.40798 0.40703 0.0
C1819 C 0.59294 0.38683 0.39975 0.0
C1820 C 0.5984 0.43122 0.3987 0.0
C1821 C 0.56267 0.45949 0.3481 0.0
H1822 H 0.5709 0.51946 0.38513 0.0
C1823 C 0.52338 0.55215 0.31633 0.0
C1824 C 0.5401 0.57158 0.31505 0.0
C1825 C 0.52965 0.5303 0.32809 0.0
C1826 C 0.56865 0.50282 0.37459 0.0
H1827 H 0.56162 0.37371 0.37956 0.0
H1828 H 0.54861 0.414 0.36562 0.0
H1829 H 0.58108 0.47995 0.40391 0.0
H1830 H 0.57612 0.58384 0.32559 0.0
H1831 H 0.5869 0.54562 0.34699 0.0
H1832 H 0.54973 0.48235 0.31904 0.0
C1833 C 0.56475 0.41274 0.37694 0.0
C1834 C 0.57454 0.48018 0.38528 0.0
C1835 C 0.57213 0.38958 0.38503 0.0
C1836 C 0.56298 0.56905 0.32633 0.0
C1837 C 0.56907 0.54731 0.33861 0.0
C1838 C 0.55648 0.48201 0.33761 0.0
C1839 C 0.57815 0.43385 0.38306 0.0
C1840 C 0.57161 0.45816 0.37216 0.0
C1841 C 0.55256 0.52761 0.33929 0.0
C1842 C 0.5594 0.50389 0.35071 0.0
H1843 H 0.6218 0.40649 0.41833 0.0
H1844 H 0.60928 0.44695 0.40376 0.0
H1845 H 0.56078 0.44314 0.33709 0.0
H1846 H 0.50568 0.5536 0.30761 0.0
H1847 H 0.51656 0.51544 0.32841 0.0
C1848 C 0.3586 0.3401 0.12896 0.0
C1849 C 0.35143 0.35827 0.14556 0.0
C1850 C 0.36616 0.31707 0.13723 0.0
C1851 C 0.36893 0.27573 0.19146 0.0
H1852 H 0.42582 0.25013 0.1577 0.0
C1853 C 0.42938 0.19593 0.22834 0.0
C1854 C 0.43796 0.17866 0.21128 0.0
C1855 C 0.41662 0.21684 0.22068 0.0
C1856 C 0.40975 0.25683 0.16715 0.0
H1857 H 0.34587 0.36673 0.18369 0.0
H1858 H 0.35927 0.32637 0.1984 0.0
H1859 H 0.40715 0.28816 0.14391 0.0
H1860 H 0.43837 0.16902 0.17293 0.0
H1861 H 0.41661 0.20577 0.15948 0.0
H1862 H 0.37209 0.24444 0.21508 0.0
C1863 C 0.35868 0.32969 0.17893 0.0
C1864 C 0.39895 0.27865 0.1592 0.0
C1865 C 0.35095 0.35277 0.17057 0.0
C1866 C 0.4326 0.18228 0.18648 0.0
C1867 C 0.4201 0.20332 0.17878 0.0
C1868 C 0.37986 0.25388 0.19952 0.0
C1869 C 0.36708 0.31178 0.16237 0.0
C1870 C 0.37829 0.28835 0.1711 0.0
C1871 C 0.41223 0.22101 0.19575 0.0
C1872 C 0.40033 0.24412 0.18735 0.0
H1873 H 0.35934 0.3441 0.10961 0.0
H1874 H 0.37197 0.30361 0.1239 0.0
H1875 H 0.35297 0.28254 0.20099 0.0
H1876 H 0.43307 0.19366 0.24763 0.0
H1877 H 0.41091 0.23014 0.23421 0.0
C1878 C 0.93167 0.30345 0.77021 0.0
C1879 C 0.93909 0.31954 0.78874 0.0
C1880 C 0.91783 0.28265 0.77575 0.0
C1881 C 0.88498 0.25094 0.82782 0.0
H1882 H 0.89342 0.19484 0.78544 0.0
C1883 C 0.84108 0.15748 0.85204 0.0
C1884 C 0.85336 0.1359 0.84489 0.0
C1885 C 0.84853 0.18048 0.84341 0.0
C1886 C 0.89112 0.21007 0.79786 0.0
H1887 H 0.93546 0.3278 0.82713 0.0
H1888 H 0.91431 0.29036 0.83745 0.0
H1889 H 0.91264 0.23295 0.77502 0.0
H1890 H 0.88267 0.1221 0.8219 0.0
H1891 H 0.89693 0.16167 0.80897 0.0
H1892 H 0.86549 0.22729 0.85188 0.0
C1893 C 0.91836 0.29373 0.81844 0.0
C1894 C 0.90177 0.23243 0.79148 0.0
C1895 C 0.93127 0.31504 0.81267 0.0
C1896 C 0.87303 0.13812 0.82852 0.0
C1897 C 0.88093 0.16109 0.82051 0.0
C1898 C 0.87506 0.22831 0.83465 0.0
C1899 C 0.91163 0.27693 0.8001 0.0
C1900 C 0.89906 0.2533 0.8064 0.0
C1901 C 0.8689 0.18274 0.82785 0.0
C1902 C 0.87816 0.20738 0.8199 0.0
H1903 H 0.93681 0.30671 0.7514 0.0
H1904 H 0.91225 0.27104 0.76079 0.0
H1905 H 0.88166 0.26647 0.83963 0.0
H1906 H 0.826 0.15685 0.86479 0.0
H1907 H 0.83828 0.19645 0.84917 0.0
C1908 C 0.08365 0.57316 0.0945 0.0
C1909 C 0.10166 0.58802 0.10514 0.0
C1910 C 0.06347 0.5838 0.08277 0.0
C1911 C 0.03965 0.64275 0.05742 0.0
H1912 H 0.97649 0.616 0.07488 0.0
C1913 C 0.94922 0.6835 0.02054 0.0
C1914 C 0.93012 0.68615 0.03745 0.0
C1915 C 0.97029 0.67034 0.02666 0.0
C1916 C 0.99398 0.62375 0.0699 0.0
H1917 H 0.11349 0.62554 0.11035 0.0
H1918 H 0.07842 0.64402 0.09024 0.0
H1919 H 0.01361 0.59512 0.08815 0.0
H1920 H 0.91758 0.67654 0.07365 0.0
H1921 H 0.9545 0.65365 0.08455 0.0
H1922 H 0.02002 0.67186 0.03993 0.0
C1923 C 0.07973 0.6242 0.09083 0.0
C1924 C 0.01529 0.61158 0.07722 0.0
C1925 C 0.09977 0.61361 0.10258 0.0
C1926 C 0.93218 0.67492 0.0604 0.0
C1927 C 0.95322 0.66167 0.06651 0.0
C1928 C 0.01835 0.6549 0.05008 0.0
C1929 C 0.06101 0.60949 0.08128 0.0
C1930 C 0.03841 0.6211 0.07137 0.0
C1931 C 0.9726 0.65931 0.04976 0.0
C1932 C 0.99524 0.64572 0.05651 0.0
H1933 H 0.08457 0.55339 0.09622 0.0
H1934 H 0.04954 0.57192 0.0753 0.0
H1935 H 0.05714 0.65049 0.05239 0.0
H1936 H 0.94802 0.69196 1.00268 0.0
H1937 H 0.98471 0.66865 0.01323 0.0
C1938 C 0.64517 0.8587 0.32073 0.0
C1939 C 0.65274 0.86366 0.34472 0.0
C1940 C 0.63609 0.83561 0.3144 0.0
C1941 C 0.60666 0.78089 0.34097 0.0
H1942 H 0.62252 0.75134 0.27858 0.0
C1943 C 0.57301 0.68398 0.3141 0.0
C1944 C 0.56368 0.68123 0.29042 0.0
C1945 C 0.58506 0.70549 0.32096 0.0
C1946 C 0.61771 0.75944 0.29598 0.0
H1947 H 0.657 0.84809 0.38084 0.0
H1948 H 0.64103 0.80763 0.36982 0.0
H1949 H 0.64168 0.7899 0.29034 0.0
H1950 H 0.56106 0.69829 0.2548 0.0
H1951 H 0.58257 0.73567 0.26652 0.0
H1952 H 0.58248 0.75054 0.34648 0.0
C1953 C 0.64206 0.8217 0.3559 0.0
C1954 C 0.62873 0.78156 0.30275 0.0
C1955 C 0.65143 0.84479 0.36217 0.0
C1956 C 0.56786 0.69993 0.27328 0.0
C1957 C 0.58021 0.72135 0.28001 0.0
C1958 C 0.59561 0.75877 0.33419 0.0
C1959 C 0.63412 0.81687 0.33194 0.0
C1960 C 0.62325 0.79268 0.32527 0.0
C1961 C 0.58865 0.72457 0.30406 0.0
C1962 C 0.60089 0.74782 0.31154 0.0
H1963 H 0.64612 0.8728 0.30682 0.0
H1964 H 0.62998 0.83267 0.29584 0.0
H1965 H 0.6017 0.78909 0.35828 0.0
H1966 H 0.5709 0.66949 0.32743 0.0
H1967 H 0.59173 0.70709 0.33948 0.0
C1968 C 0.55299 0.31634 0.5265 0.0
C1969 C 0.5723 0.31347 0.54312 0.0
C1970 C 0.5314 0.32824 0.53339 0.0
C1971 C 0.49627 0.34881 0.58833 0.0
H1972 H 0.45882 0.38443 0.53976 0.0
C1973 C 0.40813 0.40375 0.61205 0.0
C1974 C 0.38798 0.39918 0.5968 0.0
C1975 C 0.4315 0.39527 0.60572 0.0
C1976 C 0.46903 0.37449 0.55353 0.0
H1977 H 0.5844 0.32141 0.57982 0.0
H1978 H 0.54705 0.34294 0.59177 0.0
H1979 H 0.49796 0.36635 0.52862 0.0
H1980 H 0.3769 0.38302 0.56245 0.0
H1981 H 0.41758 0.3684 0.55137 0.0
H1982 H 0.46731 0.35747 0.6133 0.0
C1983 C 0.54819 0.33537 0.57356 0.0
C1984 C 0.49148 0.36394 0.54712 0.0
C1985 C 0.56971 0.32315 0.56671 0.0
C1986 C 0.39194 0.38661 0.57474 0.0
C1987 C 0.41531 0.37842 0.56829 0.0
C1988 C 0.47395 0.35968 0.59481 0.0
C1989 C 0.52862 0.33803 0.55702 0.0
C1990 C 0.50531 0.35057 0.56431 0.0
C1991 C 0.43534 0.38236 0.58382 0.0
C1992 C 0.45989 0.37234 0.5774 0.0
H1993 H 0.55433 0.30888 0.50823 0.0
H1994 H 0.51673 0.3293 0.52022 0.0
H1995 H 0.50603 0.33843 0.60207 0.0
H1996 H 0.40571 0.41328 0.62922 0.0
H1997 H 0.4466 0.39879 0.61797 0.0
C1998 C 0.18327 0.67639 0.65987 0.0
C1999 C 0.17324 0.65912 0.64383 0.0
C2000 C 0.16819 0.69335 0.67186 0.0
C2001 C 0.10818 0.72358 0.66318 0.0
H2002 H 0.12325 0.75363 0.7254 0.0
C2003 C 0.06926 0.81818 0.68955 0.0
C2004 C 0.06281 0.82254 0.71395 0.0
C2005 C 0.08126 0.79649 0.68291 0.0
C2006 C 0.11855 0.7453 0.70811 0.0
H2007 H 0.13976 0.64501 0.62856 0.0
H2008 H 0.11321 0.67399 0.65002 0.0
H2009 H 0.14599 0.71747 0.71218 0.0
H2010 H 0.06409 0.80763 0.75061 0.0
H2011 H 0.08488 0.76971 0.73904 0.0
H2012 H 0.08057 0.7511 0.6592 0.0
C2013 C 0.13272 0.67496 0.65304 0.0
C2014 C 0.13182 0.72467 0.70039 0.0
C2015 C 0.14784 0.65815 0.64095 0.0
C2016 C 0.06891 0.80485 0.73164 0.0
C2017 C 0.08088 0.78311 0.725 0.0
C2018 C 0.09489 0.74408 0.67093 0.0
C2019 C 0.14274 0.69337 0.668 0.0
C2020 C 0.1271 0.71376 0.67761 0.0
C2021 C 0.08719 0.77859 0.70051 0.0
C2022 C 0.10019 0.75556 0.69326 0.0
H2023 H 0.20289 0.67759 0.66213 0.0
H2024 H 0.17667 0.7073 0.68303 0.0
H2025 H 0.10411 0.71599 0.64541 0.0
H2026 H 0.0652 0.83164 0.67558 0.0
H2027 H 0.08625 0.79397 0.66396 0.0
C2028 C 0.43697 0.81984 0.93849 0.0
C2029 C 0.43386 0.81154 0.96247 0.0
C2030 C 0.45827 0.832 0.93153 0.0
C2031 C 0.52149 0.84845 0.95394 0.0
H2032 H 0.51868 0.89141 0.89765 0.0
C2033 C 0.59071 0.92522 0.9223 0.0
C2034 C 0.59681 0.92404 0.89741 0.0
C2035 C 0.57428 0.90829 0.93239 0.0
C2036 C 0.51976 0.87935 0.91334 0.0
H2037 H 0.44982 0.81143 0.99865 0.0
H2038 H 0.48585 0.8347 0.98723 0.0
H2039 H 0.48203 0.87077 0.91105 0.0
H2040 H 0.59198 0.90358 0.864 0.0
H2041 H 0.56337 0.87404 0.88158 0.0
H2042 H 0.55928 0.8589 0.95676 0.0
C2043 C 0.47279 0.83027 0.97313 0.0
C2044 C 0.49872 0.8672 0.92099 0.0
C2045 C 0.45183 0.81721 0.97984 0.0
C2046 C 0.58782 0.9046 0.8833 0.0
C2047 C 0.57133 0.88787 0.89329 0.0
C2048 C 0.54246 0.86127 0.94663 0.0
C2049 C 0.47658 0.8376 0.94873 0.0
C2050 C 0.49919 0.85121 0.94121 0.0
C2051 C 0.5636 0.89021 0.91761 0.0
C2052 C 0.5418 0.87654 0.92604 0.0
H2053 H 0.42302 0.81669 0.92493 0.0
H2054 H 0.46029 0.83667 0.91246 0.0
H2055 H 0.523 0.83614 0.96935 0.0
H2056 H 0.597 0.94038 0.93336 0.0
H2057 H 0.56842 0.91057 0.95114 0.0
C2058 C 0.92011 0.07408 0.41229 0.0
C2059 C 0.90819 0.08465 0.39213 0.0
C2060 C 0.93804 0.08724 0.42503 0.0
C2061 C 0.96375 0.14958 0.435 0.0
H2062 H 0.02529 0.11509 0.44289 0.0
C2063 C 0.05071 0.19213 0.47978 0.0
C2064 C 0.07203 0.18981 0.46571 0.0
C2065 C 0.02941 0.17956 0.47321 0.0
C2066 C 0.00819 0.12493 0.44087 0.0
H2067 H 0.90443 0.11784 0.37068 0.0
H2068 H 0.93544 0.14075 0.39288 0.0
H2069 H 0.98937 0.09288 0.42855 0.0
H2070 H 0.08808 0.17235 0.43406 0.0
H2071 H 0.05111 0.14973 0.42299 0.0
H2072 H 0.98284 0.18174 0.44702 0.0
C2073 C 0.93115 0.12231 0.39882 0.0
C2074 C 0.98755 0.11217 0.43289 0.0
C2075 C 0.91349 0.1091 0.38597 0.0
C2076 C 0.07183 0.17447 0.44516 0.0
C2077 C 0.05075 0.16148 0.43892 0.0
C2078 C 0.98435 0.16228 0.44334 0.0
C2079 C 0.94413 0.11135 0.41809 0.0
C2080 C 0.96518 0.12441 0.4294 0.0
C2081 C 0.02928 0.16392 0.45282 0.0
C2082 C 0.0069 0.15017 0.44589 0.0
H2083 H 0.91643 0.05528 0.41748 0.0
H2084 H 0.94753 0.07836 0.43997 0.0
H2085 H 0.94677 0.15953 0.43262 0.0
H2086 H 0.05042 0.20397 0.49565 0.0
H2087 H 0.01314 0.18177 0.48426 0.0
loop_
_geom_bond_atom_site_label_1
_geom_bond_atom_site_label_2
_geom_bond_distance
_geom_bond_site_symmetry_2
_ccdc_geom_bond_type
C0 C2 1.422 . S
C0 C4 1.415 . S
C0 N6 1.369 . S
C1 C2 1.421 . S
C1 C3 1.417 . S
C1 C13 1.422 . S
C2 C0 1.422 . S
C2 C1 1.421 . S
C2 N12 1.359 . S
C3 C1 1.417 . S
C3 C5 1.329 . S
C3 H22 0.930 . S
C4 C0 1.415 . S
C4 C5 1.437 . S
C4 C8 1.413 . S
C5 C3 1.329 . S
C5 C4 1.437 . S
C5 H27 0.929 1_455 S
N6 C0 1.369 . S
N6 C7 1.338 . S
N6 Gd11 2.622 . S
C7 N6 1.338 . S
C7 C9 1.378 . S
C7 H19 0.929 . S
C8 C4 1.413 . S
C8 C9 1.348 . S
C8 H24 0.931 1_455 S
C9 C7 1.378 . S
C9 C8 1.348 . S
C9 H25 0.930 . S
Gd10 N30 2.622 . S
Gd10 N37 2.570 . S
Gd10 O44 2.353 . S
Gd10 O45 2.468 . S
Gd10 O46 2.427 . S
Gd10 O48 2.388 . S
Gd10 O49 2.386 . S
Gd10 O53 2.307 . S
Gd10 C63 2.805 . S
Gd11 N6 2.622 . S
Gd11 N12 2.570 . S
Gd11 O43 2.386 . S
Gd11 O47 2.307 . S
Gd11 O50 2.353 . S
Gd11 O51 2.468 . S
Gd11 O52 2.427 . S
Gd11 O54 2.388 . S
Gd11 C75 2.805 . S
N12 C2 1.359 . S
N12 Gd11 2.570 . S
N12 C14 1.343 . S
C13 C1 1.422 . S
C13 C15 1.321 . S
C13 H21 0.931 . S
C14 N12 1.343 . S
C14 C15 1.390 . S
C14 H16 0.931 . S
C15 C13 1.321 . S
C15 C14 1.390 . S
C15 H17 0.930 . S
H16 C14 0.931 . S
H17 C15 0.930 . S
H18 C41 0.931 . S
H19 C7 0.929 . S
H20 C42 0.930 . S
H21 C13 0.931 . S
H22 C3 0.930 . S
H23 C32 0.929 . S
H24 C8 0.931 1_655 S
H25 C9 0.930 . S
H26 C64 0.930 . S
H27 C5 0.929 1_655 S
H28 C33 0.931 . S
H29 C34 0.930 . S
N30 Gd10 2.622 . S
N30 C31 1.369 . S
N30 C32 1.338 . S
C31 N30 1.369 . S
C31 C35 1.415 . S
C31 C38 1.422 . S
C32 H23 0.929 . S
C32 N30 1.338 . S
C32 C34 1.378 . S
C33 H28 0.931 . S
C33 C34 1.348 . S
C33 C35 1.413 . S
C34 H29 0.930 . S
C34 C32 1.378 . S
C34 C33 1.348 . S
C35 C31 1.415 . S
C35 C33 1.413 . S
C35 C65 1.437 . S
H36 C65 0.929 . S
N37 Gd10 2.570 . S
N37 C38 1.359 . S
N37 C41 1.343 . S
C38 C31 1.422 . S
C38 N37 1.359 . S
C38 C40 1.421 . S
C39 C40 1.422 . S
C39 C42 1.321 . S
C39 H66 0.931 . S
C40 C38 1.421 . S
C40 C39 1.422 . S
C40 C64 1.417 . S
C41 H18 0.931 . S
C41 N37 1.343 . S
C41 C42 1.390 . S
C42 H20 0.930 . S
C42 C39 1.321 . S
C42 C41 1.390 . S
O43 Gd11 2.386 . S
O43 C55 1.265 . S
O44 Gd10 2.353 . S
O44 C55 1.242 . S
O45 Gd10 2.468 . S
O45 C63 1.263 . S
O46 Gd10 2.427 . S
O46 C63 1.252 . S
O47 Gd11 2.307 . S
O47 C56 1.261 . S
O48 Gd10 2.388 . S
O48 C56 1.252 . S
O49 Gd10 2.386 . S
O49 C67 1.265 . S
O50 Gd11 2.353 . S
O50 C67 1.242 . S
O51 Gd11 2.468 . S
O51 C75 1.263 . S
O52 Gd11 2.427 . S
O52 C75 1.252 . S
O53 Gd10 2.307 . S
O53 C68 1.261 . S
O54 Gd11 2.388 . S
O54 C68 1.252 . S
C55 O43 1.265 . S
C55 O44 1.242 . S
C56 O47 1.261 . S
C56 O48 1.252 . S
C57 C60 1.394 . S
C57 C62 1.370 . S
C57 C63 1.500 . S
C58 C61 1.383 . S
C58 C62 1.395 . S
C59 C60 1.396 . S
C59 C61 1.365 . S
C59 H76 0.929 . S
C60 C57 1.394 . S
C60 C59 1.396 . S
C60 H77 0.930 . S
C61 C58 1.383 . S
C61 C59 1.365 . S
C61 H78 0.931 . S
C62 C57 1.370 . S
C62 C58 1.395 . S
C62 H79 0.930 . S
C63 Gd10 2.805 . S
C63 O45 1.263 . S
C63 O46 1.252 . S
C63 C57 1.500 . S
C64 H26 0.930 . S
C64 C40 1.417 . S
C64 C65 1.329 . S
C65 C35 1.437 . S
C65 H36 0.929 . S
C65 C64 1.329 . S
H66 C39 0.931 . S
C67 O49 1.265 . S
C67 O50 1.242 . S
C68 O53 1.261 . S
C68 O54 1.252 . S
C69 C72 1.394 . S
C69 C74 1.370 . S
C69 C75 1.500 . S
C70 C73 1.383 . S
C70 C74 1.395 . S
C71 C72 1.396 . S
C71 C73 1.365 . S
C71 H80 0.929 . S
C72 C69 1.394 . S
C72 C71 1.396 . S
C72 H81 0.930 . S
C73 C70 1.383 . S
C73 C71 1.365 . S
C73 H82 0.931 . S
C74 C69 1.370 . S
C74 C70 1.395 . S
C74 H83 0.930 . S
C75 Gd11 2.805 . S
C75 O51 1.263 . S
C75 O52 1.252 . S
C75 C69 1.500 . S
H76 C59 0.929 . S
H77 C60 0.930 . S
H78 C61 0.931 . S
H79 C62 0.930 . S
H80 C71 0.929 . S
H81 C72 0.930 . S
H82 C73 0.931 . S
H83 C74 0.930 . S
C84 C86 1.422 . S
C84 C88 1.415 . S
C84 N90 1.369 . S
C85 C86 1.421 . S
C85 C87 1.417 . S
C85 C97 1.422 . S
C86 C84 1.422 . S
C86 C85 1.421 . S
C86 N96 1.359 . S
C87 C85 1.417 . S
C87 C89 1.329 . S
C87 H106 0.930 . S
C88 C84 1.415 . S
C88 C89 1.437 . S
C88 C92 1.413 . S
C89 C87 1.329 . S
C89 C88 1.437 . S
C89 H111 0.929 . S
N90 C84 1.369 . S
N90 C91 1.338 1_655 S
N90 Gd95 2.622 . S
C91 N90 1.338 1_455 S
C91 C93 1.382 . S
C91 H103 0.929 . S
C92 C88 1.413 . S
C92 C93 1.325 1_655 S
C92 H108 0.931 . S
C93 C91 1.382 . S
C93 C92 1.325 1_455 S
C93 H109 0.950 . S
Gd94 N114 2.622 . S
Gd94 N121 2.570 . S
Gd94 O128 2.353 . S
Gd94 O129 2.468 . S
Gd94 O130 2.427 . S
Gd94 O132 2.388 . S
Gd94 O133 2.386 . S
Gd94 O137 2.307 . S
Gd94 C147 2.805 . S
Gd95 N90 2.622 . S
Gd95 N96 2.570 . S
Gd95 O127 2.386 1_655 S
Gd95 O131 2.307 . S
Gd95 O134 2.353 1_655 S
Gd95 O135 2.468 . S
Gd95 O136 2.427 . S
Gd95 O138 2.388 1_655 S
Gd95 C159 2.805 . S
N96 C86 1.359 . S
N96 Gd95 2.570 . S
N96 C98 1.343 . S
C97 C85 1.422 . S
C97 C99 1.321 . S
C97 H105 0.931 . S
C98 N96 1.343 . S
C98 C99 1.390 . S
C98 H100 0.931 . S
C99 C97 1.321 . S
C99 C98 1.390 . S
C99 H101 0.930 . S
H100 C98 0.931 . S
H101 C99 0.930 . S
H102 C125 0.931 . S
H103 C91 0.929 . S
H104 C126 0.930 . S
H105 C97 0.931 . S
H106 C87 0.930 . S
H107 C116 0.929 . S
H108 C92 0.931 . S
H109 C93 0.950 . S
H110 C148 0.930 . S
H111 C89 0.929 . S
H112 C117 0.931 1_545 S
H113 C118 0.930 . S
N114 Gd94 2.622 . S
N114 C115 1.369 . S
N114 C116 1.338 . S
C115 N114 1.369 . S
C115 C119 1.415 . S
C115 C122 1.422 . S
C116 H107 0.929 . S
C116 N114 1.338 . S
C116 C118 1.378 . S
C117 H112 0.931 1_565 S
C117 C118 1.348 . S
C117 C119 1.413 . S
C118 H113 0.930 . S
C118 C116 1.378 . S
C118 C117 1.348 . S
C119 C115 1.415 . S
C119 C117 1.413 . S
C119 C149 1.437 . S
H120 C149 0.929 1_545 S
N121 Gd94 2.570 . S
N121 C122 1.359 . S
N121 C125 1.343 . S
C122 C115 1.422 . S
C122 N121 1.359 . S
C122 C124 1.421 . S
C123 C124 1.422 . S
C123 C126 1.321 . S
C123 H150 0.931 . S
C124 C122 1.421 . S
C124 C123 1.422 . S
C124 C148 1.417 . S
C125 H102 0.931 . S
C125 N121 1.343 . S
C125 C126 1.390 . S
C126 H104 0.930 . S
C126 C123 1.321 . S
C126 C125 1.390 . S
O127 Gd95 2.386 1_455 S
O127 C139 1.264 . S
O128 Gd94 2.353 . S
O128 C139 1.242 . S
O129 Gd94 2.468 . S
O129 C147 1.263 . S
O130 Gd94 2.427 . S
O130 C147 1.252 . S
O131 Gd95 2.307 . S
O131 C140 1.261 . S
O132 Gd94 2.388 . S
O132 C140 1.252 1_455 S
O133 Gd94 2.386 . S
O133 C151 1.265 . S
O134 Gd95 2.353 1_455 S
O134 C151 1.242 . S
O135 Gd95 2.468 . S
O135 C159 1.263 . S
O136 Gd95 2.427 . S
O136 C159 1.252 . S
O137 Gd94 2.307 . S
O137 C152 1.261 . S
O138 Gd95 2.388 1_455 S
O138 C152 1.252 . S
C139 O127 1.264 . S
C139 O128 1.242 . S
C140 O131 1.261 . S
C140 O132 1.252 1_655 S
C141 C144 1.394 . S
C141 C146 1.370 . S
C141 C147 1.500 . S
C142 C145 1.383 . S
C142 C146 1.395 . S
C143 C144 1.396 . S
C143 C145 1.365 . S
C143 H160 0.929 . S
C144 C141 1.394 . S
C144 C143 1.396 . S
C144 H161 0.930 . S
C145 C142 1.383 . S
C145 C143 1.365 . S
C145 H162 0.931 . S
C146 C141 1.370 . S
C146 C142 1.395 . S
C146 H163 0.930 . S
C147 Gd94 2.805 . S
C147 O129 1.263 . S
C147 O130 1.252 . S
C147 C141 1.500 . S
C148 H110 0.930 . S
C148 C124 1.417 . S
C148 C149 1.329 . S
C149 C119 1.437 . S
C149 H120 0.929 1_565 S
C149 C148 1.329 . S
H150 C123 0.931 . S
C151 O133 1.265 . S
C151 O134 1.242 . S
C152 O137 1.261 . S
C152 O138 1.252 . S
C153 C156 1.394 . S
C153 C158 1.370 . S
C153 C159 1.500 . S
C154 C157 1.383 . S
C154 C158 1.395 . S
C155 C156 1.396 . S
C155 C157 1.365 . S
C155 H164 0.929 . S
C156 C153 1.394 . S
C156 C155 1.396 . S
C156 H165 0.930 . S
C157 C154 1.383 . S
C157 C155 1.365 . S
C157 H166 0.931 . S
C158 C153 1.370 . S
C158 C154 1.395 . S
C158 H167 0.930 . S
C159 Gd95 2.805 . S
C159 O135 1.263 . S
C159 O136 1.252 . S
C159 C153 1.500 . S
H160 C143 0.929 . S
H161 C144 0.930 . S
H162 C145 0.931 . S
H163 C146 0.930 . S
H164 C155 0.929 . S
H165 C156 0.930 . S
H166 C157 0.931 . S
H167 C158 0.930 . S
C168 C170 1.422 . S
C168 C172 1.415 . S
C168 N174 1.369 . S
C169 C170 1.421 . S
C169 C171 1.417 . S
C169 C181 1.422 . S
C170 C168 1.422 . S
C170 C169 1.421 . S
C170 N180 1.359 . S
C171 C169 1.417 . S
C171 C173 1.329 . S
C171 H190 0.930 . S
C172 C168 1.415 . S
C172 C173 1.437 . S
C172 C176 1.413 . S
C173 C171 1.329 . S
C173 C172 1.437 . S
C173 H195 0.929 . S
N174 C168 1.369 . S
N174 C175 1.338 1_554 S
N174 Gd179 2.622 . S
C175 N174 1.338 1_556 S
C175 C177 1.378 . S
C175 H187 0.929 . S
C176 C172 1.413 . S
C176 C177 1.348 1_554 S
C176 H192 0.931 . S
C177 C175 1.378 . S
C177 C176 1.348 1_556 S
C177 H193 0.930 . S
Gd178 N198 2.622 . S
Gd178 N205 2.570 . S
Gd178 O212 2.353 . S
Gd178 O213 2.468 . S
Gd178 O214 2.427 . S
Gd178 O216 2.388 . S
Gd178 O217 2.386 . S
Gd178 O221 2.307 . S
Gd178 C231 2.805 . S
Gd179 N174 2.622 . S
Gd179 N180 2.570 . S
Gd179 O211 2.383 1_554 S
Gd179 O215 2.307 . S
Gd179 O218 2.353 1_554 S
Gd179 O219 2.468 . S
Gd179 O220 2.427 . S
Gd179 O222 2.388 1_554 S
Gd179 C243 2.805 . S
N180 C170 1.359 . S
N180 Gd179 2.570 . S
N180 C182 1.343 . S
C181 C169 1.422 . S
C181 C183 1.321 . S
C181 H189 0.931 . S
C182 N180 1.343 . S
C182 C183 1.390 . S
C182 H184 0.931 . S
C183 C181 1.321 . S
C183 C182 1.390 . S
C183 H185 0.930 . S
H184 C182 0.931 . S
H185 C183 0.930 . S
H186 C209 0.931 . S
H187 C175 0.929 . S
H188 C210 0.930 . S
H189 C181 0.931 . S
H190 C171 0.930 . S
H191 C200 0.929 . S
H192 C176 0.931 . S
H193 C177 0.930 . S
H194 C232 0.930 . S
H195 C173 0.929 . S
H196 C201 0.931 . S
H197 C202 0.930 . S
N198 Gd178 2.622 . S
N198 C199 1.369 . S
N198 C200 1.338 . S
C199 N198 1.369 . S
C199 C203 1.415 . S
C199 C206 1.422 . S
C200 H191 0.929 . S
C200 N198 1.338 . S
C200 C202 1.378 . S
C201 H196 0.931 . S
C201 C202 1.348 . S
C201 C203 1.413 . S
C202 H197 0.930 . S
C202 C200 1.378 . S
C202 C201 1.348 . S
C203 C199 1.415 . S
C203 C201 1.413 . S
C203 C233 1.437 . S
H204 C233 0.929 . S
N205 Gd178 2.570 . S
N205 C206 1.359 . S
N205 C209 1.343 . S
C206 C199 1.422 . S
C206 N205 1.359 . S
C206 C208 1.421 . S
C207 C208 1.422 . S
C207 C210 1.321 . S
C207 H234 0.931 . S
C208 C206 1.421 . S
C208 C207 1.422 . S
C208 C232 1.417 . S
C209 H186 0.931 . S
C209 N205 1.343 . S
C209 C210 1.390 . S
C210 H188 0.930 . S
C210 C207 1.321 . S
C210 C209 1.390 . S
O211 Gd179 2.383 1_556 S
O211 C223 1.273 . S
O212 Gd178 2.353 . S
O212 C223 1.242 . S
O213 Gd178 2.468 . S
O213 C231 1.263 . S
O214 Gd178 2.427 . S
O214 C231 1.252 . S
O215 Gd179 2.307 . S
O215 C224 1.261 . S
O216 Gd178 2.388 . S
O216 C224 1.252 1_556 S
O217 Gd178 2.386 . S
O217 C235 1.265 . S
O218 Gd179 2.353 1_556 S
O218 C235 1.242 . S
O219 Gd179 2.468 . S
O219 C243 1.263 . S
O220 Gd179 2.427 . S
O220 C243 1.252 . S
O221 Gd178 2.307 . S
O221 C236 1.261 . S
O222 Gd179 2.388 1_556 S
O222 C236 1.252 . S
C223 O211 1.273 . S
C223 O212 1.242 . S
C224 O215 1.261 . S
C224 O216 1.252 1_554 S
C225 C228 1.394 . S
C225 C230 1.370 . S
C225 C231 1.500 . S
C226 C229 1.383 . S
C226 C230 1.395 . S
C227 C228 1.396 . S
C227 C229 1.365 . S
C227 H244 0.929 . S
C228 C225 1.394 . S
C228 C227 1.396 . S
C228 H245 0.930 . S
C229 C226 1.383 . S
C229 C227 1.365 . S
C229 H246 0.931 . S
C230 C225 1.370 . S
C230 C226 1.395 . S
C230 H247 0.930 . S
C231 Gd178 2.805 . S
C231 O213 1.263 . S
C231 O214 1.252 . S
C231 C225 1.500 . S
C232 H194 0.930 . S
C232 C208 1.417 . S
C232 C233 1.329 . S
C233 C203 1.437 . S
C233 H204 0.929 . S
C233 C232 1.329 . S
H234 C207 0.931 . S
C235 O217 1.265 . S
C235 O218 1.242 . S
C236 O221 1.261 . S
C236 O222 1.252 . S
C237 C240 1.394 . S
C237 C242 1.370 . S
C237 C243 1.500 . S
C238 C241 1.383 . S
C238 C242 1.395 . S
C239 C240 1.396 . S
C239 C241 1.365 . S
C239 H248 0.929 . S
C240 C237 1.394 . S
C240 C239 1.396 . S
C240 H249 0.930 . S
C241 C238 1.383 . S
C241 C239 1.365 . S
C241 H250 0.931 . S
C242 C237 1.370 . S
C242 C238 1.395 . S
C242 H251 0.930 . S
C243 Gd179 2.805 . S
C243 O219 1.263 . S
C243 O220 1.252 . S
C243 C237 1.500 . S
H244 C227 0.929 . S
H245 C228 0.930 . S
H246 C229 0.931 . S
H247 C230 0.930 . S
H248 C239 0.929 . S
H249 C240 0.930 . S
H250 C241 0.931 . S
H251 C242 0.930 . S
C252 C254 1.422 . S
C252 C256 1.415 . S
C252 N258 1.369 . S
C253 C254 1.421 . S
C253 C255 1.417 . S
C253 C265 1.422 . S
C254 C252 1.422 . S
C254 C253 1.421 . S
C254 N264 1.359 . S
C255 C253 1.417 . S
C255 C257 1.329 . S
C255 H274 0.930 . S
C256 C252 1.415 . S
C256 C257 1.437 . S
C256 C260 1.413 . S
C257 C255 1.329 . S
C257 C256 1.437 . S
C257 H279 0.929 . S
N258 C252 1.369 . S
N258 C259 1.338 . S
N258 Gd263 2.622 . S
C259 N258 1.338 . S
C259 C261 1.378 . S
C259 H271 0.929 . S
C260 C256 1.413 . S
C260 C261 1.348 . S
C260 H276 0.931 . S
C261 C259 1.378 . S
C261 C260 1.348 . S
C261 H277 0.930 . S
Gd262 N282 2.622 . S
Gd262 N289 2.570 . S
Gd262 O296 2.353 . S
Gd262 O297 2.468 . S
Gd262 O298 2.427 . S
Gd262 O300 2.388 . S
Gd262 O301 2.386 . S
Gd262 O305 2.307 . S
Gd262 C315 2.805 . S
Gd263 N258 2.622 . S
Gd263 N264 2.570 . S
Gd263 O295 2.386 . S
Gd263 O299 2.307 . S
Gd263 O302 2.353 . S
Gd263 O303 2.468 . S
Gd263 O304 2.427 . S
Gd263 O306 2.388 . S
Gd263 C327 2.805 . S
N264 C254 1.359 . S
N264 Gd263 2.570 . S
N264 C266 1.343 . S
C265 C253 1.422 . S
C265 C267 1.321 . S
C265 H273 0.931 . S
C266 N264 1.343 . S
C266 C267 1.390 . S
C266 H268 0.931 . S
C267 C265 1.321 . S
C267 C266 1.390 . S
C267 H269 0.930 . S
H268 C266 0.931 . S
H269 C267 0.930 . S
H270 C293 0.931 . S
H271 C259 0.929 . S
H272 C294 0.930 . S
H273 C265 0.931 . S
H274 C255 0.930 . S
H275 C284 0.929 . S
H276 C260 0.931 . S
H277 C261 0.930 . S
H278 C316 0.930 . S
H279 C257 0.929 . S
H280 C285 0.931 1_565 S
H281 C286 0.930 . S
N282 Gd262 2.622 . S
N282 C283 1.369 . S
N282 C284 1.338 . S
C283 N282 1.369 . S
C283 C287 1.415 . S
C283 C290 1.422 . S
C284 H275 0.929 . S
C284 N282 1.338 . S
C284 C286 1.378 . S
C285 H280 0.931 1_545 S
C285 C286 1.348 . S
C285 C287 1.413 . S
C286 H281 0.930 . S
C286 C284 1.378 . S
C286 C285 1.348 . S
C287 C283 1.415 . S
C287 C285 1.413 . S
C287 C317 1.437 . S
H288 C317 0.888 1_565 S
N289 Gd262 2.570 . S
N289 C290 1.359 . S
N289 C293 1.343 . S
C290 C283 1.422 . S
C290 N289 1.359 . S
C290 C292 1.421 . S
C291 C292 1.422 . S
C291 C294 1.321 . S
C291 H318 0.931 . S
C292 C290 1.421 . S
C292 C291 1.422 . S
C292 C316 1.417 . S
C293 H270 0.931 . S
C293 N289 1.343 . S
C293 C294 1.390 . S
C294 H272 0.930 . S
C294 C291 1.321 . S
C294 C293 1.390 . S
O295 Gd263 2.386 . S
O295 C307 1.265 . S
O296 Gd262 2.353 . S
O296 C307 1.242 . S
O297 Gd262 2.468 . S
O297 C315 1.263 . S
O298 Gd262 2.427 . S
O298 C315 1.252 . S
O299 Gd263 2.307 . S
O299 C308 1.261 . S
O300 Gd262 2.388 . S
O300 C308 1.252 . S
O301 Gd262 2.386 . S
O301 C319 1.265 . S
O302 Gd263 2.353 . S
O302 C319 1.242 . S
O303 Gd263 2.468 . S
O303 C327 1.263 . S
O304 Gd263 2.427 . S
O304 C327 1.252 . S
O305 Gd262 2.307 . S
O305 C320 1.261 . S
O306 Gd263 2.388 . S
O306 C320 1.252 . S
C307 O295 1.265 . S
C307 O296 1.242 . S
C308 O299 1.261 . S
C308 O300 1.252 . S
C309 C312 1.394 . S
C309 C314 1.370 . S
C309 C315 1.500 . S
C310 C313 1.383 . S
C310 C314 1.395 . S
C311 C312 1.396 . S
C311 C313 1.365 . S
C311 H328 0.929 . S
C312 C309 1.394 . S
C312 C311 1.396 . S
C312 H329 0.930 . S
C313 C310 1.383 . S
C313 C311 1.365 . S
C313 H330 0.931 . S
C314 C309 1.370 . S
C314 C310 1.395 . S
C314 H331 0.930 . S
C315 Gd262 2.805 . S
C315 O297 1.263 . S
C315 O298 1.252 . S
C315 C309 1.500 . S
C316 H278 0.930 . S
C316 C292 1.417 . S
C316 C317 1.329 . S
C317 C287 1.437 . S
C317 H288 0.888 1_545 S
C317 C316 1.329 . S
H318 C291 0.931 . S
C319 O301 1.265 . S
C319 O302 1.242 . S
C320 O305 1.261 . S
C320 O306 1.252 . S
C321 C324 1.394 . S
C321 C326 1.370 . S
C321 C327 1.500 . S
C322 C325 1.383 . S
C322 C326 1.395 . S
C323 C324 1.396 . S
C323 C325 1.365 . S
C323 H332 0.929 . S
C324 C321 1.394 . S
C324 C323 1.396 . S
C324 H333 0.930 . S
C325 C322 1.383 . S
C325 C323 1.365 . S
C325 H334 0.931 . S
C326 C321 1.370 . S
C326 C322 1.395 . S
C326 H335 0.930 . S
C327 Gd263 2.805 . S
C327 O303 1.263 . S
C327 O304 1.252 . S
C327 C321 1.500 . S
H328 C311 0.929 . S
H329 C312 0.930 . S
H330 C313 0.931 . S
H331 C314 0.930 . S
H332 C323 0.929 . S
H333 C324 0.930 . S
H334 C325 0.931 . S
H335 C326 0.930 . S
C336 C338 1.422 . S
C336 C340 1.415 . S
C336 N342 1.369 . S
C337 C338 1.421 . S
C337 C339 1.417 . S
C337 C349 1.422 . S
C338 C336 1.422 . S
C338 C337 1.421 . S
C338 N348 1.359 . S
C339 C337 1.417 . S
C339 C341 1.329 . S
C339 H358 0.930 . S
C340 C336 1.415 . S
C340 C341 1.437 . S
C340 C344 1.413 . S
C341 C339 1.329 . S
C341 C340 1.437 . S
C341 H363 0.929 . S
N342 C336 1.369 . S
N342 C343 1.338 . S
N342 Gd347 2.622 . S
C343 N342 1.338 . S
C343 C345 1.378 . S
C343 H355 0.929 . S
C344 C340 1.413 . S
C344 C345 1.348 . S
C344 H360 0.931 . S
C345 C343 1.378 . S
C345 C344 1.348 . S
C345 H361 0.930 . S
Gd346 N366 2.622 . S
Gd346 N373 2.570 . S
Gd346 O380 2.353 . S
Gd346 O381 2.468 . S
Gd346 O382 2.427 . S
Gd346 O384 2.388 . S
Gd346 O385 2.386 . S
Gd346 O389 2.307 . S
Gd346 C399 2.805 . S
Gd347 N342 2.622 . S
Gd347 N348 2.570 . S
Gd347 O379 2.386 . S
Gd347 O383 2.307 . S
Gd347 O386 2.353 . S
Gd347 O387 2.468 . S
Gd347 O388 2.427 . S
Gd347 O390 2.388 . S
Gd347 C411 2.805 . S
N348 C338 1.359 . S
N348 Gd347 2.570 . S
N348 C350 1.343 . S
C349 C337 1.422 . S
C349 C351 1.321 . S
C349 H357 0.931 . S
C350 N348 1.343 . S
C350 C351 1.390 . S
C350 H352 0.931 . S
C351 C349 1.321 . S
C351 C350 1.390 . S
C351 H353 0.930 . S
H352 C350 0.931 . S
H353 C351 0.930 . S
H354 C377 0.931 . S
H355 C343 0.929 . S
H356 C378 0.930 . S
H357 C349 0.931 . S
H358 C339 0.930 . S
H359 C368 0.929 . S
H360 C344 0.931 . S
H361 C345 0.930 . S
H362 C400 0.930 . S
H363 C341 0.929 . S
H364 C369 0.931 . S
H365 C370 0.930 . S
N366 Gd346 2.622 . S
N366 C367 1.369 . S
N366 C368 1.338 . S
C367 N366 1.369 . S
C367 C371 1.415 . S
C367 C374 1.422 . S
C368 H359 0.929 . S
C368 N366 1.338 . S
C368 C370 1.378 . S
C369 H364 0.931 . S
C369 C370 1.348 . S
C369 C371 1.413 . S
C370 H365 0.930 . S
C370 C368 1.378 . S
C370 C369 1.348 . S
C371 C367 1.415 . S
C371 C369 1.413 . S
C371 C401 1.437 . S
H372 C401 0.929 . S
N373 Gd346 2.570 . S
N373 C374 1.359 . S
N373 C377 1.343 . S
C374 C367 1.422 . S
C374 N373 1.359 . S
C374 C376 1.421 . S
C375 C376 1.422 . S
C375 C378 1.321 . S
C375 H402 0.931 . S
C376 C374 1.421 . S
C376 C375 1.422 . S
C376 C400 1.417 . S
C377 H354 0.931 . S
C377 N373 1.343 . S
C377 C378 1.390 . S
C378 H356 0.930 . S
C378 C375 1.321 . S
C378 C377 1.390 . S
O379 Gd347 2.386 . S
O379 C391 1.265 . S
O380 Gd346 2.353 . S
O380 C391 1.242 . S
O381 Gd346 2.468 . S
O381 C399 1.263 . S
O382 Gd346 2.427 . S
O382 C399 1.252 . S
O383 Gd347 2.307 . S
O383 C392 1.261 . S
O384 Gd346 2.388 . S
O384 C392 1.252 . S
O385 Gd346 2.386 . S
O385 C403 1.265 . S
O386 Gd347 2.353 . S
O386 C403 1.242 . S
O387 Gd347 2.468 . S
O387 C411 1.263 . S
O388 Gd347 2.427 . S
O388 C411 1.252 . S
O389 Gd346 2.307 . S
O389 C404 1.261 . S
O390 Gd347 2.388 . S
O390 C404 1.252 . S
C391 O379 1.265 . S
C391 O380 1.242 . S
C392 O383 1.261 . S
C392 O384 1.252 . S
C393 C396 1.394 . S
C393 C398 1.370 . S
C393 C399 1.500 . S
C394 C397 1.383 . S
C394 C398 1.395 . S
C395 C396 1.396 . S
C395 C397 1.365 . S
C395 H412 0.929 . S
C396 C393 1.394 . S
C396 C395 1.396 . S
C396 H413 0.930 . S
C397 C394 1.383 . S
C397 C395 1.365 . S
C397 H414 0.931 . S
C398 C393 1.370 . S
C398 C394 1.395 . S
C398 H415 0.930 . S
C399 Gd346 2.805 . S
C399 O381 1.263 . S
C399 O382 1.252 . S
C399 C393 1.500 . S
C400 H362 0.930 . S
C400 C376 1.417 . S
C400 C401 1.329 . S
C401 C371 1.437 . S
C401 H372 0.929 . S
C401 C400 1.329 . S
H402 C375 0.931 . S
C403 O385 1.265 . S
C403 O386 1.242 . S
C404 O389 1.261 . S
C404 O390 1.252 . S
C405 C408 1.394 . S
C405 C410 1.370 . S
C405 C411 1.500 . S
C406 C409 1.383 . S
C406 C410 1.395 . S
C407 C408 1.396 . S
C407 C409 1.365 . S
C407 H416 0.929 . S
C408 C405 1.394 . S
C408 C407 1.396 . S
C408 H417 0.930 . S
C409 C406 1.383 . S
C409 C407 1.365 . S
C409 H418 0.931 . S
C410 C405 1.370 . S
C410 C406 1.395 . S
C410 H419 0.930 . S
C411 Gd347 2.805 . S
C411 O387 1.263 . S
C411 O388 1.252 . S
C411 C405 1.500 . S
H412 C395 0.929 . S
H413 C396 0.930 . S
H414 C397 0.931 . S
H415 C398 0.930 . S
H416 C407 0.929 . S
H417 C408 0.930 . S
H418 C409 0.931 . S
H419 C410 0.930 . S
C420 C422 1.422 . S
C420 C424 1.415 . S
C420 N426 1.369 . S
C421 C422 1.421 . S
C421 C423 1.417 . S
C421 C433 1.422 . S
C422 C420 1.422 . S
C422 C421 1.421 . S
C422 N432 1.359 . S
C423 C421 1.417 . S
C423 C425 1.329 . S
C423 H442 0.930 . S
C424 C420 1.415 . S
C424 C425 1.437 . S
C424 C428 1.413 . S
C425 C423 1.329 . S
C425 C424 1.437 . S
C425 H447 0.929 . S
N426 C420 1.369 . S
N426 C427 1.338 . S
N426 Gd431 2.622 . S
C427 N426 1.338 . S
C427 C429 1.378 . S
C427 H439 0.929 . S
C428 C424 1.413 . S
C428 C429 1.348 . S
C428 H444 0.931 . S
C429 C427 1.378 . S
C429 C428 1.348 . S
C429 H445 0.930 . S
Gd430 N450 2.622 . S
Gd430 N457 2.570 1_455 S
Gd430 O464 2.353 . S
Gd430 O465 2.468 . S
Gd430 O466 2.427 . S
Gd430 O468 2.388 . S
Gd430 O469 2.386 1_455 S
Gd430 O473 2.307 1_455 S
Gd430 C483 2.805 . S
Gd431 N426 2.622 . S
Gd431 N432 2.570 . S
Gd431 O463 2.386 . S
Gd431 O467 2.307 . S
Gd431 O470 2.353 . S
Gd431 O471 2.468 . S
Gd431 O472 2.427 . S
Gd431 O474 2.388 . S
Gd431 C495 2.805 . S
N432 C422 1.359 . S
N432 Gd431 2.570 . S
N432 C434 1.343 . S
C433 C421 1.422 . S
C433 C435 1.321 . S
C433 H441 0.931 . S
C434 N432 1.343 . S
C434 C435 1.390 . S
C434 H436 0.931 . S
C435 C433 1.321 . S
C435 C434 1.390 . S
C435 H437 0.930 . S
H436 C434 0.931 . S
H437 C435 0.930 . S
H438 C461 0.931 . S
H439 C427 0.929 . S
H440 C462 0.930 . S
H441 C433 0.931 . S
H442 C423 0.930 . S
H443 C452 0.929 . S
H444 C428 0.931 . S
H445 C429 0.930 . S
H446 C484 0.930 . S
H447 C425 0.929 . S
H448 C453 0.931 . S
H449 C454 0.930 . S
N450 Gd430 2.622 . S
N450 C451 1.369 . S
N450 C452 1.338 . S
C451 N450 1.369 . S
C451 C455 1.415 . S
C451 C458 1.422 1_455 S
C452 H443 0.929 . S
C452 N450 1.338 . S
C452 C454 1.378 . S
C453 H448 0.931 . S
C453 C454 1.348 . S
C453 C455 1.413 . S
C454 H449 0.930 . S
C454 C452 1.378 . S
C454 C453 1.348 . S
C455 C451 1.415 . S
C455 C453 1.413 . S
C455 C485 1.437 1_455 S
H456 C485 0.929 . S
N457 Gd430 2.570 1_655 S
N457 C458 1.359 . S
N457 C461 1.343 . S
C458 C451 1.422 1_655 S
C458 N457 1.359 . S
C458 C460 1.421 . S
C459 C460 1.422 . S
C459 C462 1.321 . S
C459 H486 0.931 . S
C460 C458 1.421 . S
C460 C459 1.422 . S
C460 C484 1.417 . S
C461 H438 0.931 . S
C461 N457 1.343 . S
C461 C462 1.390 . S
C462 H440 0.930 . S
C462 C459 1.321 . S
C462 C461 1.390 . S
O463 Gd431 2.386 . S
O463 C475 1.265 1_655 S
O464 Gd430 2.353 . S
O464 C475 1.242 . S
O465 Gd430 2.468 . S
O465 C483 1.263 . S
O466 Gd430 2.427 . S
O466 C483 1.252 . S
O467 Gd431 2.307 . S
O467 C476 1.261 . S
O468 Gd430 2.388 . S
O468 C476 1.252 1_455 S
O469 Gd430 2.386 1_655 S
O469 C487 1.265 . S
O470 Gd431 2.353 . S
O470 C487 1.242 . S
O471 Gd431 2.468 . S
O471 C495 1.263 . S
O472 Gd431 2.427 . S
O472 C495 1.252 . S
O473 Gd430 2.307 1_655 S
O473 C488 1.261 . S
O474 Gd431 2.388 . S
O474 C488 1.252 . S
C475 O463 1.265 1_455 S
C475 O464 1.242 . S
C476 O467 1.261 . S
C476 O468 1.252 1_655 S
C477 C480 1.394 . S
C477 C482 1.370 . S
C477 C483 1.500 . S
C478 C481 1.383 . S
C478 C482 1.395 . S
C479 C480 1.396 . S
C479 C481 1.365 . S
C479 H496 0.929 . S
C480 C477 1.394 . S
C480 C479 1.396 . S
C480 H497 0.930 . S
C481 C478 1.383 . S
C481 C479 1.365 . S
C481 H498 0.931 . S
C482 C477 1.370 . S
C482 C478 1.395 . S
C482 H499 0.930 . S
C483 Gd430 2.805 . S
C483 O465 1.263 . S
C483 O466 1.252 . S
C483 C477 1.500 . S
C484 H446 0.930 . S
C484 C460 1.417 . S
C484 C485 1.329 . S
C485 C455 1.437 1_655 S
C485 H456 0.929 . S
C485 C484 1.329 . S
H486 C459 0.931 . S
C487 O469 1.265 . S
C487 O470 1.242 . S
C488 O473 1.261 . S
C488 O474 1.252 . S
C489 C492 1.394 . S
C489 C494 1.370 . S
C489 C495 1.500 . S
C490 C493 1.383 . S
C490 C494 1.395 . S
C491 C492 1.396 . S
C491 C493 1.365 . S
C491 H500 0.929 . S
C492 C489 1.394 . S
C492 C491 1.396 . S
C492 H501 0.930 . S
C493 C490 1.383 . S
C493 C491 1.365 . S
C493 H502 0.931 . S
C494 C489 1.370 . S
C494 C490 1.395 . S
C494 H503 0.930 . S
C495 Gd431 2.805 . S
C495 O471 1.263 . S
C495 O472 1.252 . S
C495 C489 1.500 . S
H496 C479 0.929 . S
H497 C480 0.930 . S
H498 C481 0.931 . S
H499 C482 0.930 . S
H500 C491 0.929 . S
H501 C492 0.930 . S
H502 C493 0.931 . S
H503 C494 0.930 . S
C504 C506 1.422 . S
C504 C508 1.415 . S
C504 N510 1.369 . S
C505 C506 1.421 . S
C505 C507 1.417 . S
C505 C517 1.422 . S
C506 C504 1.422 . S
C506 C505 1.421 . S
C506 N516 1.359 . S
C507 C505 1.417 . S
C507 C509 1.329 . S
C507 H526 0.930 . S
C508 C504 1.415 . S
C508 C509 1.437 . S
C508 C512 1.413 . S
C509 C507 1.329 . S
C509 C508 1.437 . S
C509 H531 0.929 . S
N510 C504 1.369 . S
N510 C511 1.338 . S
N510 Gd515 2.622 . S
C511 N510 1.338 . S
C511 C513 1.378 . S
C511 H523 0.929 . S
C512 C508 1.413 . S
C512 C513 1.348 . S
C512 H528 0.931 1_655 S
C513 C511 1.378 . S
C513 C512 1.348 . S
C513 H529 0.930 . S
Gd514 N534 2.622 . S
Gd514 N541 2.570 1_556 S
Gd514 O548 2.353 . S
Gd514 O549 2.468 . S
Gd514 O550 2.427 . S
Gd514 O552 2.388 . S
Gd514 O553 2.386 1_556 S
Gd514 O557 2.307 1_556 S
Gd514 C567 2.805 . S
Gd515 N510 2.622 . S
Gd515 N516 2.570 . S
Gd515 O547 2.386 . S
Gd515 O551 2.307 . S
Gd515 O554 2.353 . S
Gd515 O555 2.468 . S
Gd515 O556 2.427 . S
Gd515 O558 2.388 . S
Gd515 C579 2.805 . S
N516 C506 1.359 . S
N516 Gd515 2.570 . S
N516 C518 1.343 . S
C517 C505 1.422 . S
C517 C519 1.321 . S
C517 H525 0.931 . S
C518 N516 1.343 . S
C518 C519 1.390 . S
C518 H520 0.931 . S
C519 C517 1.321 . S
C519 C518 1.390 . S
C519 H521 0.940 . S
H520 C518 0.931 . S
H521 C519 0.940 . S
H522 C545 0.931 . S
H523 C511 0.929 . S
H524 C546 0.930 . S
H525 C517 0.931 . S
H526 C507 0.930 . S
H527 C536 0.929 . S
H528 C512 0.931 1_455 S
H529 C513 0.930 . S
H530 C568 0.930 . S
H531 C509 0.929 . S
H532 C537 0.931 . S
H533 C538 0.930 . S
N534 Gd514 2.622 . S
N534 C535 1.369 . S
N534 C536 1.338 . S
C535 N534 1.369 . S
C535 C539 1.415 . S
C535 C542 1.422 1_556 S
C536 H527 0.929 . S
C536 N534 1.338 . S
C536 C538 1.378 . S
C537 H532 0.931 . S
C537 C538 1.348 . S
C537 C539 1.413 . S
C538 H533 0.930 . S
C538 C536 1.378 . S
C538 C537 1.348 . S
C539 C535 1.415 . S
C539 C537 1.413 . S
C539 C569 1.449 . S
H540 C569 0.932 . S
N541 Gd514 2.570 1_554 S
N541 C542 1.359 . S
N541 C545 1.343 . S
C542 C535 1.422 1_554 S
C542 N541 1.359 . S
C542 C544 1.421 . S
C543 C544 1.422 . S
C543 C546 1.321 . S
C543 H570 0.931 . S
C544 C542 1.421 . S
C544 C543 1.422 . S
C544 C568 1.417 . S
C545 H522 0.931 . S
C545 N541 1.343 . S
C545 C546 1.390 . S
C546 H524 0.930 . S
C546 C543 1.321 . S
C546 C545 1.390 . S
O547 Gd515 2.386 . S
O547 C559 1.265 1_554 S
O548 Gd514 2.353 . S
O548 C559 1.242 . S
O549 Gd514 2.468 . S
O549 C567 1.263 . S
O550 Gd514 2.427 . S
O550 C567 1.252 . S
O551 Gd515 2.307 . S
O551 C560 1.270 . S
O552 Gd514 2.388 . S
O552 C560 1.243 1_556 S
O553 Gd514 2.386 1_554 S
O553 C571 1.265 . S
O554 Gd515 2.353 . S
O554 C571 1.242 . S
O555 Gd515 2.468 . S
O555 C579 1.263 . S
O556 Gd515 2.427 . S
O556 C579 1.252 . S
O557 Gd514 2.307 1_554 S
O557 C572 1.261 . S
O558 Gd515 2.388 . S
O558 C572 1.252 . S
C559 O547 1.265 1_556 S
C559 O548 1.242 . S
C560 O551 1.270 . S
C560 O552 1.243 1_554 S
C561 C564 1.394 . S
C561 C566 1.370 . S
C561 C567 1.500 . S
C562 C565 1.383 . S
C562 C566 1.395 . S
C563 C564 1.396 . S
C563 C565 1.365 . S
C563 H580 0.929 . S
C564 C561 1.394 . S
C564 C563 1.396 . S
C564 H581 0.930 . S
C565 C562 1.383 . S
C565 C563 1.365 . S
C565 H582 0.931 . S
C566 C561 1.370 . S
C566 C562 1.395 . S
C566 H583 0.930 . S
C567 Gd514 2.805 . S
C567 O549 1.263 . S
C567 O550 1.252 . S
C567 C561 1.500 . S
C568 H530 0.930 . S
C568 C544 1.417 . S
C568 C569 1.316 1_554 S
C569 C539 1.449 . S
C569 H540 0.932 . S
C569 C568 1.316 1_556 S
H570 C543 0.931 . S
C571 O553 1.265 . S
C571 O554 1.242 . S
C572 O557 1.261 . S
C572 O558 1.252 . S
C573 C576 1.394 . S
C573 C578 1.370 . S
C573 C579 1.500 . S
C574 C577 1.383 . S
C574 C578 1.395 . S
C575 C576 1.396 . S
C575 C577 1.365 . S
C575 H584 0.929 . S
C576 C573 1.394 . S
C576 C575 1.396 . S
C576 H585 0.930 . S
C577 C574 1.383 . S
C577 C575 1.365 . S
C577 H586 0.931 . S
C578 C573 1.370 . S
C578 C574 1.395 . S
C578 H587 0.930 . S
C579 Gd515 2.805 . S
C579 O555 1.263 . S
C579 O556 1.252 . S
C579 C573 1.500 . S
H580 C563 0.929 . S
H581 C564 0.930 . S
H582 C565 0.931 . S
H583 C566 0.930 . S
H584 C575 0.929 . S
H585 C576 0.930 . S
H586 C577 0.931 . S
H587 C578 0.930 . S
C588 C590 1.422 . S
C588 C592 1.415 . S
C588 N594 1.369 . S
C589 C590 1.421 . S
C589 C591 1.417 . S
C589 C601 1.422 . S
C590 C588 1.422 . S
C590 C589 1.421 . S
C590 N600 1.359 . S
C591 C589 1.417 . S
C591 C593 1.329 . S
C591 H610 0.930 . S
C592 C588 1.415 . S
C592 C593 1.437 . S
C592 C596 1.413 . S
C593 C591 1.329 . S
C593 C592 1.437 . S
C593 H615 0.929 . S
N594 C588 1.369 . S
N594 C595 1.338 . S
N594 Gd599 2.622 . S
C595 N594 1.338 . S
C595 C597 1.378 . S
C595 H607 0.929 . S
C596 C592 1.413 . S
C596 C597 1.348 . S
C596 H612 0.931 . S
C597 C595 1.378 . S
C597 C596 1.348 . S
C597 H613 0.930 . S
Gd598 N618 2.622 . S
Gd598 N625 2.570 . S
Gd598 O632 2.353 . S
Gd598 O633 2.468 . S
Gd598 O634 2.427 . S
Gd598 O636 2.388 . S
Gd598 O637 2.386 . S
Gd598 O641 2.307 . S
Gd598 C651 2.805 . S
Gd599 N594 2.622 . S
Gd599 N600 2.570 . S
Gd599 O631 2.386 . S
Gd599 O635 2.307 . S
Gd599 O638 2.353 . S
Gd599 O639 2.468 . S
Gd599 O640 2.427 . S
Gd599 O642 2.388 . S
Gd599 C663 2.805 . S
N600 C590 1.359 . S
N600 Gd599 2.570 . S
N600 C602 1.343 . S
C601 C589 1.422 . S
C601 C603 1.321 . S
C601 H609 0.931 . S
C602 N600 1.343 . S
C602 C603 1.390 . S
C602 H604 0.931 . S
C603 C601 1.321 . S
C603 C602 1.390 . S
C603 H605 0.930 . S
H604 C602 0.931 . S
H605 C603 0.930 . S
H606 C629 0.931 . S
H607 C595 0.929 . S
H608 C630 0.930 . S
H609 C601 0.931 . S
H610 C591 0.930 . S
H611 C620 0.929 . S
H612 C596 0.931 . S
H613 C597 0.930 . S
H614 C652 0.930 . S
H615 C593 0.929 . S
H616 C621 0.931 . S
H617 C622 0.930 . S
N618 Gd598 2.622 . S
N618 C619 1.369 . S
N618 C620 1.338 . S
C619 N618 1.369 . S
C619 C623 1.415 . S
C619 C626 1.422 . S
C620 H611 0.929 . S
C620 N618 1.338 . S
C620 C622 1.378 . S
C621 H616 0.931 . S
C621 C622 1.348 . S
C621 C623 1.413 . S
C622 H617 0.930 . S
C622 C620 1.378 . S
C622 C621 1.348 . S
C623 C619 1.415 . S
C623 C621 1.413 . S
C623 C653 1.437 . S
H624 C653 0.929 . S
N625 Gd598 2.570 . S
N625 C626 1.359 . S
N625 C629 1.343 . S
C626 C619 1.422 . S
C626 N625 1.359 . S
C626 C628 1.421 . S
C627 C628 1.422 . S
C627 C630 1.321 . S
C627 H654 0.931 . S
C628 C626 1.421 . S
C628 C627 1.422 . S
C628 C652 1.417 . S
C629 H606 0.931 . S
C629 N625 1.343 . S
C629 C630 1.390 . S
C630 H608 0.930 . S
C630 C627 1.321 . S
C630 C629 1.390 . S
O631 Gd599 2.386 . S
O631 C643 1.265 . S
O632 Gd598 2.353 . S
O632 C643 1.242 . S
O633 Gd598 2.468 . S
O633 C651 1.263 . S
O634 Gd598 2.427 . S
O634 C651 1.252 . S
O635 Gd599 2.307 . S
O635 C644 1.261 . S
O636 Gd598 2.388 . S
O636 C644 1.252 . S
O637 Gd598 2.386 . S
O637 C655 1.265 . S
O638 Gd599 2.353 . S
O638 C655 1.242 . S
O639 Gd599 2.468 . S
O639 C663 1.263 . S
O640 Gd599 2.427 . S
O640 C663 1.252 . S
O641 Gd598 2.307 . S
O641 C656 1.261 . S
O642 Gd599 2.388 . S
O642 C656 1.252 . S
C643 O631 1.265 . S
C643 O632 1.242 . S
C644 O635 1.261 . S
C644 O636 1.252 . S
C645 C648 1.394 . S
C645 C650 1.370 . S
C645 C651 1.500 . S
C646 C649 1.383 . S
C646 C650 1.395 . S
C647 C648 1.396 . S
C647 C649 1.365 . S
C647 H664 0.929 . S
C648 C645 1.394 . S
C648 C647 1.396 . S
C648 H665 0.930 . S
C649 C646 1.383 . S
C649 C647 1.365 . S
C649 H666 0.931 . S
C650 C645 1.370 . S
C650 C646 1.395 . S
C650 H667 0.930 . S
C651 Gd598 2.805 . S
C651 O633 1.263 . S
C651 O634 1.252 . S
C651 C645 1.500 . S
C652 H614 0.930 . S
C652 C628 1.417 . S
C652 C653 1.329 . S
C653 C623 1.437 . S
C653 H624 0.929 . S
C653 C652 1.329 . S
H654 C627 0.931 . S
C655 O637 1.265 . S
C655 O638 1.242 . S
C656 O641 1.261 . S
C656 O642 1.252 . S
C657 C660 1.394 . S
C657 C662 1.370 . S
C657 C663 1.500 . S
C658 C661 1.383 . S
C658 C662 1.395 . S
C659 C660 1.396 . S
C659 C661 1.365 . S
C659 H668 0.929 . S
C660 C657 1.394 . S
C660 C659 1.396 . S
C660 H669 0.930 . S
C661 C658 1.383 . S
C661 C659 1.365 . S
C661 H670 0.931 . S
C662 C657 1.370 . S
C662 C658 1.395 . S
C662 H671 0.930 . S
C663 Gd599 2.805 . S
C663 O639 1.263 . S
C663 O640 1.252 . S
C663 C657 1.500 . S
H664 C647 0.929 . S
H665 C648 0.930 . S
H666 C649 0.931 . S
H667 C650 0.930 . S
H668 C659 0.929 . S
H669 C660 0.930 . S
H670 C661 0.931 . S
H671 C662 0.930 . S
C672 C674 1.422 . S
C672 C676 1.415 . S
C672 N678 1.369 . S
C673 C674 1.421 . S
C673 C675 1.417 . S
C673 C685 1.422 . S
C674 C672 1.422 . S
C674 C673 1.421 . S
C674 N684 1.359 . S
C675 C673 1.417 . S
C675 C677 1.329 . S
C675 H694 0.930 . S
C676 C672 1.415 . S
C676 C677 1.437 . S
C676 C680 1.413 . S
C677 C675 1.329 . S
C677 C676 1.437 . S
C677 H699 0.929 . S
N678 C672 1.369 . S
N678 C679 1.338 . S
N678 Gd683 2.622 . S
C679 N678 1.338 . S
C679 C681 1.378 . S
C679 H691 0.929 . S
C680 C676 1.413 . S
C680 C681 1.348 . S
C680 H696 0.931 . S
C681 C679 1.378 . S
C681 C680 1.348 . S
C681 H697 0.930 . S
Gd682 N702 2.622 . S
Gd682 N709 2.570 . S
Gd682 O716 2.353 . S
Gd682 O717 2.468 . S
Gd682 O718 2.427 . S
Gd682 O720 2.388 . S
Gd682 O721 2.386 . S
Gd682 O725 2.307 . S
Gd682 C735 2.805 . S
Gd683 N678 2.622 . S
Gd683 N684 2.570 . S
Gd683 O715 2.386 . S
Gd683 O719 2.307 . S
Gd683 O722 2.353 . S
Gd683 O723 2.468 . S
Gd683 O724 2.427 . S
Gd683 O726 2.388 . S
Gd683 C747 2.805 . S
N684 C674 1.359 . S
N684 Gd683 2.570 . S
N684 C686 1.343 . S
C685 C673 1.422 . S
C685 C687 1.321 . S
C685 H693 0.931 . S
C686 N684 1.343 . S
C686 C687 1.390 . S
C686 H688 0.931 . S
C687 C685 1.321 . S
C687 C686 1.390 . S
C687 H689 0.930 . S
H688 C686 0.931 . S
H689 C687 0.930 . S
H690 C713 0.931 . S
H691 C679 0.929 . S
H692 C714 0.930 . S
H693 C685 0.931 . S
H694 C675 0.930 . S
H695 C704 0.929 . S
H696 C680 0.931 . S
H697 C681 0.930 . S
H698 C736 0.930 . S
H699 C677 0.929 . S
H700 C705 0.931 1_556 S
H701 C706 0.930 . S
N702 Gd682 2.622 . S
N702 C703 1.369 . S
N702 C704 1.338 . S
C703 N702 1.369 . S
C703 C707 1.415 . S
C703 C710 1.422 . S
C704 H695 0.929 . S
C704 N702 1.338 . S
C704 C706 1.378 . S
C705 H700 0.931 1_554 S
C705 C706 1.348 . S
C705 C707 1.413 . S
C706 H701 0.930 . S
C706 C704 1.378 . S
C706 C705 1.348 . S
C707 C703 1.415 . S
C707 C705 1.413 . S
C707 C737 1.437 . S
H708 C737 0.929 1_556 S
N709 Gd682 2.570 . S
N709 C710 1.359 . S
N709 C713 1.343 . S
C710 C703 1.422 . S
C710 N709 1.359 . S
C710 C712 1.421 . S
C711 C712 1.422 . S
C711 C714 1.321 . S
C711 H738 0.931 . S
C712 C710 1.421 . S
C712 C711 1.422 . S
C712 C736 1.417 . S
C713 H690 0.931 . S
C713 N709 1.343 . S
C713 C714 1.390 . S
C714 H692 0.930 . S
C714 C711 1.321 . S
C714 C713 1.390 . S
O715 Gd683 2.386 . S
O715 C727 1.265 . S
O716 Gd682 2.353 . S
O716 C727 1.242 . S
O717 Gd682 2.468 . S
O717 C735 1.263 . S
O718 Gd682 2.427 . S
O718 C735 1.252 . S
O719 Gd683 2.307 . S
O719 C728 1.261 . S
O720 Gd682 2.388 . S
O720 C728 1.252 . S
O721 Gd682 2.386 . S
O721 C739 1.265 . S
O722 Gd683 2.353 . S
O722 C739 1.242 . S
O723 Gd683 2.468 . S
O723 C747 1.263 . S
O724 Gd683 2.427 . S
O724 C747 1.252 . S
O725 Gd682 2.307 . S
O725 C740 1.261 . S
O726 Gd683 2.388 . S
O726 C740 1.252 . S
C727 O715 1.265 . S
C727 O716 1.242 . S
C728 O719 1.261 . S
C728 O720 1.252 . S
C729 C732 1.394 . S
C729 C734 1.370 . S
C729 C735 1.500 . S
C730 C733 1.383 . S
C730 C734 1.395 . S
C731 C732 1.396 . S
C731 C733 1.365 . S
C731 H748 0.929 . S
C732 C729 1.394 . S
C732 C731 1.396 . S
C732 H749 0.930 . S
C733 C730 1.383 . S
C733 C731 1.365 . S
C733 H750 0.931 . S
C734 C729 1.370 . S
C734 C730 1.395 . S
C734 H751 0.930 . S
C735 Gd682 2.805 . S
C735 O717 1.263 . S
C735 O718 1.252 . S
C735 C729 1.500 . S
C736 H698 0.930 . S
C736 C712 1.417 . S
C736 C737 1.329 . S
C737 C707 1.437 . S
C737 H708 0.929 1_554 S
C737 C736 1.329 . S
H738 C711 0.931 . S
C739 O721 1.265 . S
C739 O722 1.242 . S
C740 O725 1.261 . S
C740 O726 1.252 . S
C741 C744 1.394 . S
C741 C746 1.370 . S
C741 C747 1.500 . S
C742 C745 1.383 . S
C742 C746 1.395 . S
C743 C744 1.396 . S
C743 C745 1.365 . S
C743 H752 0.929 . S
C744 C741 1.394 . S
C744 C743 1.396 . S
C744 H753 0.930 . S
C745 C742 1.383 . S
C745 C743 1.365 . S
C745 H754 0.931 . S
C746 C741 1.370 . S
C746 C742 1.395 . S
C746 H755 0.930 . S
C747 Gd683 2.805 . S
C747 O723 1.263 . S
C747 O724 1.252 . S
C747 C741 1.500 . S
H748 C731 0.929 . S
H749 C732 0.930 . S
H750 C733 0.931 . S
H751 C734 0.930 . S
H752 C743 0.929 . S
H753 C744 0.930 . S
H754 C745 0.931 . S
H755 C746 0.930 . S
C756 C758 1.422 . S
C756 C760 1.415 . S
C756 N762 1.369 . S
C757 C758 1.421 . S
C757 C759 1.417 . S
C757 C769 1.422 . S
C758 C756 1.422 . S
C758 C757 1.421 . S
C758 N768 1.359 . S
C759 C757 1.417 . S
C759 C761 1.329 . S
C759 H778 0.930 . S
C760 C756 1.415 . S
C760 C761 1.437 . S
C760 C764 1.413 . S
C761 C759 1.329 . S
C761 C760 1.437 . S
C761 H783 0.929 . S
N762 C756 1.369 . S
N762 C763 1.338 1_565 S
N762 Gd767 2.622 . S
C763 N762 1.338 1_545 S
C763 C765 1.374 1_545 S
C763 H775 0.929 . S
C764 C760 1.413 . S
C764 C765 1.376 . S
C764 H780 0.931 . S
C765 C763 1.374 1_565 S
C765 C764 1.376 . S
C765 H781 0.906 1_565 S
Gd766 N786 2.622 . S
Gd766 N793 2.570 . S
Gd766 O800 2.353 . S
Gd766 O801 2.468 . S
Gd766 O802 2.427 . S
Gd766 O804 2.388 . S
Gd766 O805 2.386 . S
Gd766 O809 2.307 . S
Gd766 C819 2.805 . S
Gd767 N762 2.622 . S
Gd767 N768 2.570 . S
Gd767 O799 2.393 . S
Gd767 O803 2.307 . S
Gd767 O806 2.353 1_565 S
Gd767 O807 2.468 . S
Gd767 O808 2.427 . S
Gd767 O810 2.388 1_565 S
Gd767 C831 2.805 . S
N768 C758 1.359 . S
N768 Gd767 2.570 . S
N768 C770 1.343 . S
C769 C757 1.422 . S
C769 C771 1.321 . S
C769 H777 0.931 . S
C770 N768 1.343 . S
C770 C771 1.390 . S
C770 H772 0.931 . S
C771 C769 1.321 . S
C771 C770 1.390 . S
C771 H773 0.930 . S
H772 C770 0.931 . S
H773 C771 0.930 . S
H774 C797 0.931 . S
H775 C763 0.929 . S
H776 C798 0.930 . S
H777 C769 0.931 . S
H778 C759 0.930 . S
H779 C788 0.929 . S
H780 C764 0.931 . S
H781 C765 0.906 1_545 S
H782 C820 0.930 . S
H783 C761 0.929 . S
H784 C789 0.931 1_554 S
H785 C790 0.930 . S
N786 Gd766 2.622 . S
N786 C787 1.369 . S
N786 C788 1.338 . S
C787 N786 1.369 . S
C787 C791 1.415 . S
C787 C794 1.422 . S
C788 H779 0.929 . S
C788 N786 1.338 . S
C788 C790 1.378 . S
C789 H784 0.931 1_556 S
C789 C790 1.348 . S
C789 C791 1.413 . S
C790 H785 0.930 . S
C790 C788 1.378 . S
C790 C789 1.348 . S
C791 C787 1.415 . S
C791 C789 1.413 . S
C791 C821 1.437 . S
H792 C821 0.929 . S
N793 Gd766 2.570 . S
N793 C794 1.359 . S
N793 C797 1.343 . S
C794 C787 1.422 . S
C794 N793 1.359 . S
C794 C796 1.421 . S
C795 C796 1.422 . S
C795 C798 1.321 . S
C795 H822 0.931 . S
C796 C794 1.421 . S
C796 C795 1.422 . S
C796 C820 1.417 . S
C797 H774 0.931 . S
C797 N793 1.343 . S
C797 C798 1.390 . S
C798 H776 0.930 . S
C798 C795 1.321 . S
C798 C797 1.390 . S
O799 Gd767 2.393 . S
O799 C811 1.252 1_565 S
O800 Gd766 2.353 . S
O800 C811 1.242 . S
O801 Gd766 2.468 . S
O801 C819 1.263 . S
O802 Gd766 2.427 . S
O802 C819 1.252 . S
O803 Gd767 2.307 . S
O803 C812 1.261 . S
O804 Gd766 2.388 . S
O804 C812 1.252 1_545 S
O805 Gd766 2.386 . S
O805 C823 1.265 . S
O806 Gd767 2.353 1_545 S
O806 C823 1.242 . S
O807 Gd767 2.468 . S
O807 C831 1.263 . S
O808 Gd767 2.427 . S
O808 C831 1.252 . S
O809 Gd766 2.307 . S
O809 C824 1.261 . S
O810 Gd767 2.388 1_545 S
O810 C824 1.252 . S
C811 O799 1.252 1_545 S
C811 O800 1.242 . S
C812 O803 1.261 . S
C812 O804 1.252 1_565 S
C813 C816 1.394 . S
C813 C818 1.370 . S
C813 C819 1.500 . S
C814 C817 1.383 . S
C814 C818 1.395 . S
C815 C816 1.396 . S
C815 C817 1.365 . S
C815 H832 0.929 . S
C816 C813 1.394 . S
C816 C815 1.396 . S
C816 H833 0.930 . S
C817 C814 1.383 . S
C817 C815 1.365 . S
C817 H834 0.931 . S
C818 C813 1.370 . S
C818 C814 1.395 . S
C818 H835 0.930 . S
C819 Gd766 2.805 . S
C819 O801 1.263 . S
C819 O802 1.252 . S
C819 C813 1.500 . S
C820 H782 0.930 . S
C820 C796 1.417 . S
C820 C821 1.329 . S
C821 C791 1.437 . S
C821 H792 0.929 . S
C821 C820 1.329 . S
H822 C795 0.931 . S
C823 O805 1.265 . S
C823 O806 1.242 . S
C824 O809 1.261 . S
C824 O810 1.252 . S
C825 C828 1.394 . S
C825 C830 1.370 . S
C825 C831 1.500 . S
C826 C829 1.383 . S
C826 C830 1.395 . S
C827 C828 1.396 . S
C827 C829 1.365 . S
C827 H836 0.929 . S
C828 C825 1.394 . S
C828 C827 1.396 . S
C828 H837 0.930 . S
C829 C826 1.383 . S
C829 C827 1.365 . S
C829 H838 0.931 . S
C830 C825 1.370 . S
C830 C826 1.395 . S
C830 H839 0.930 . S
C831 Gd767 2.805 . S
C831 O807 1.263 . S
C831 O808 1.252 . S
C831 C825 1.500 . S
H832 C815 0.929 . S
H833 C816 0.930 . S
H834 C817 0.931 . S
H835 C818 0.930 . S
H836 C827 0.929 . S
H837 C828 0.930 . S
H838 C829 0.931 . S
H839 C830 0.930 . S
C840 C842 1.422 . S
C840 C844 1.415 . S
C840 N846 1.369 . S
C841 C842 1.421 . S
C841 C843 1.417 . S
C841 C853 1.422 . S
C842 C840 1.422 . S
C842 C841 1.421 . S
C842 N852 1.359 . S
C843 C841 1.417 . S
C843 C845 1.329 . S
C843 H862 0.930 . S
C844 C840 1.415 . S
C844 C845 1.437 . S
C844 C848 1.413 . S
C845 C843 1.329 . S
C845 C844 1.437 . S
C845 H867 0.929 . S
N846 C840 1.369 . S
N846 C847 1.338 1_545 S
N846 Gd851 2.622 . S
C847 N846 1.338 1_565 S
C847 C849 1.378 . S
C847 H859 0.929 . S
C848 C844 1.413 . S
C848 C849 1.350 1_545 S
C848 H864 0.931 . S
C849 C847 1.378 . S
C849 C848 1.350 1_565 S
C849 H865 0.928 . S
Gd850 N870 2.622 . S
Gd850 N877 2.570 . S
Gd850 O884 2.353 . S
Gd850 O885 2.468 . S
Gd850 O886 2.427 . S
Gd850 O888 2.388 . S
Gd850 O889 2.386 . S
Gd850 O893 2.307 . S
Gd850 C903 2.805 . S
Gd851 N846 2.622 . S
Gd851 N852 2.570 . S
Gd851 O883 2.387 . S
Gd851 O887 2.307 . S
Gd851 O890 2.353 1_545 S
Gd851 O891 2.468 . S
Gd851 O892 2.427 . S
Gd851 O894 2.388 1_545 S
Gd851 C915 2.805 . S
N852 C842 1.359 . S
N852 Gd851 2.570 . S
N852 C854 1.343 . S
C853 C841 1.422 . S
C853 C855 1.321 . S
C853 H861 0.931 . S
C854 N852 1.343 . S
C854 C855 1.390 . S
C854 H856 0.931 . S
C855 C853 1.321 . S
C855 C854 1.390 . S
C855 H857 0.930 . S
H856 C854 0.931 . S
H857 C855 0.930 . S
H858 C881 0.931 . S
H859 C847 0.929 . S
H860 C882 0.930 . S
H861 C853 0.931 . S
H862 C843 0.930 . S
H863 C872 0.929 . S
H864 C848 0.931 . S
H865 C849 0.928 . S
H866 C904 0.930 . S
H867 C845 0.929 . S
H868 C873 0.931 . S
H869 C874 0.930 . S
N870 Gd850 2.622 . S
N870 C871 1.369 . S
N870 C872 1.338 . S
C871 N870 1.369 . S
C871 C875 1.415 . S
C871 C878 1.422 . S
C872 H863 0.929 . S
C872 N870 1.338 . S
C872 C874 1.378 . S
C873 H868 0.931 . S
C873 C874 1.348 . S
C873 C875 1.413 . S
C874 H869 0.930 . S
C874 C872 1.378 . S
C874 C873 1.348 . S
C875 C871 1.415 . S
C875 C873 1.413 . S
C875 C905 1.437 . S
H876 C905 0.929 . S
N877 Gd850 2.570 . S
N877 C878 1.359 . S
N877 C881 1.343 . S
C878 C871 1.422 . S
C878 N877 1.359 . S
C878 C880 1.421 . S
C879 C880 1.422 . S
C879 C882 1.321 . S
C879 H906 0.931 . S
C880 C878 1.421 . S
C880 C879 1.422 . S
C880 C904 1.417 . S
C881 H858 0.931 . S
C881 N877 1.343 . S
C881 C882 1.390 . S
C882 H860 0.930 . S
C882 C879 1.321 . S
C882 C881 1.390 . S
O883 Gd851 2.387 . S
O883 C895 1.263 1_545 S
O884 Gd850 2.353 . S
O884 C895 1.242 . S
O885 Gd850 2.468 . S
O885 C903 1.263 . S
O886 Gd850 2.427 . S
O886 C903 1.252 . S
O887 Gd851 2.307 . S
O887 C896 1.261 . S
O888 Gd850 2.388 . S
O888 C896 1.252 1_565 S
O889 Gd850 2.386 . S
O889 C907 1.265 . S
O890 Gd851 2.353 1_565 S
O890 C907 1.242 . S
O891 Gd851 2.468 . S
O891 C915 1.263 . S
O892 Gd851 2.427 . S
O892 C915 1.252 . S
O893 Gd850 2.307 . S
O893 C908 1.261 . S
O894 Gd851 2.388 1_565 S
O894 C908 1.252 . S
C895 O883 1.263 1_565 S
C895 O884 1.242 . S
C896 O887 1.261 . S
C896 O888 1.252 1_545 S
C897 C900 1.394 . S
C897 C902 1.370 . S
C897 C903 1.500 . S
C898 C901 1.383 . S
C898 C902 1.395 . S
C899 C900 1.396 . S
C899 C901 1.365 . S
C899 H916 0.929 . S
C900 C897 1.394 . S
C900 C899 1.396 . S
C900 H917 0.930 . S
C901 C898 1.383 . S
C901 C899 1.365 . S
C901 H918 0.931 . S
C902 C897 1.370 . S
C902 C898 1.395 . S
C902 H919 0.930 . S
C903 Gd850 2.805 . S
C903 O885 1.263 . S
C903 O886 1.252 . S
C903 C897 1.500 . S
C904 H866 0.930 . S
C904 C880 1.417 . S
C904 C905 1.329 . S
C905 C875 1.437 . S
C905 H876 0.929 . S
C905 C904 1.329 . S
H906 C879 0.931 . S
C907 O889 1.265 . S
C907 O890 1.242 . S
C908 O893 1.261 . S
C908 O894 1.252 . S
C909 C912 1.394 . S
C909 C914 1.370 . S
C909 C915 1.500 . S
C910 C913 1.383 . S
C910 C914 1.395 . S
C911 C912 1.396 . S
C911 C913 1.365 . S
C911 H920 0.929 . S
C912 C909 1.394 . S
C912 C911 1.396 . S
C912 H921 0.930 . S
C913 C910 1.383 . S
C913 C911 1.365 . S
C913 H922 0.931 . S
C914 C909 1.370 . S
C914 C910 1.395 . S
C914 H923 0.930 . S
C915 Gd851 2.805 . S
C915 O891 1.263 . S
C915 O892 1.252 . S
C915 C909 1.500 . S
H916 C899 0.929 . S
H917 C900 0.930 . S
H918 C901 0.931 . S
H919 C902 0.930 . S
H920 C911 0.929 . S
H921 C912 0.930 . S
H922 C913 0.931 . S
H923 C914 0.930 . S
C924 C926 1.422 . S
C924 C928 1.415 . S
C924 N930 1.369 . S
C925 C926 1.421 . S
C925 C927 1.417 . S
C925 C937 1.422 . S
C926 C924 1.422 . S
C926 C925 1.421 . S
C926 N936 1.359 . S
C927 C925 1.417 . S
C927 C929 1.329 . S
C927 H946 0.930 . S
C928 C924 1.415 . S
C928 C929 1.437 . S
C928 C932 1.413 . S
C929 C927 1.329 . S
C929 C928 1.437 . S
C929 H951 0.929 . S
N930 C924 1.369 . S
N930 C931 1.338 . S
N930 Gd935 2.622 . S
C931 N930 1.338 . S
C931 C933 1.378 . S
C931 H943 0.929 . S
C932 C928 1.413 . S
C932 C933 1.348 . S
C932 H948 0.931 . S
C933 C931 1.378 . S
C933 C932 1.348 . S
C933 H949 0.930 . S
Gd934 N954 2.622 . S
Gd934 N961 2.570 . S
Gd934 O968 2.353 . S
Gd934 O969 2.468 . S
Gd934 O970 2.427 . S
Gd934 O972 2.388 . S
Gd934 O973 2.386 . S
Gd934 O977 2.307 . S
Gd934 C987 2.805 . S
Gd935 N930 2.622 . S
Gd935 N936 2.570 . S
Gd935 O967 2.386 . S
Gd935 O971 2.307 . S
Gd935 O974 2.353 . S
Gd935 O975 2.468 . S
Gd935 O976 2.427 . S
Gd935 O978 2.388 . S
Gd935 C999 2.805 . S
N936 C926 1.359 . S
N936 Gd935 2.570 . S
N936 C938 1.343 . S
C937 C925 1.422 . S
C937 C939 1.321 . S
C937 H945 0.931 . S
C938 N936 1.343 . S
C938 C939 1.390 . S
C938 H940 0.931 . S
C939 C937 1.321 . S
C939 C938 1.390 . S
C939 H941 0.930 . S
H940 C938 0.931 . S
H941 C939 0.930 . S
H942 C965 0.931 . S
H943 C931 0.929 . S
H944 C966 0.930 . S
H945 C937 0.931 . S
H946 C927 0.930 . S
H947 C956 0.929 . S
H948 C932 0.931 . S
H949 C933 0.930 . S
H950 C988 0.930 . S
H951 C929 0.929 . S
H952 C957 0.931 . S
H953 C958 0.930 . S
N954 Gd934 2.622 . S
N954 C955 1.369 . S
N954 C956 1.338 . S
C955 N954 1.369 . S
C955 C959 1.415 . S
C955 C962 1.422 . S
C956 H947 0.929 . S
C956 N954 1.338 . S
C956 C958 1.378 . S
C957 H952 0.931 . S
C957 C958 1.348 . S
C957 C959 1.413 . S
C958 H953 0.930 . S
C958 C956 1.378 . S
C958 C957 1.348 . S
C959 C955 1.415 . S
C959 C957 1.413 . S
C959 C989 1.437 . S
H960 C989 0.929 . S
N961 Gd934 2.570 . S
N961 C962 1.359 . S
N961 C965 1.343 . S
C962 C955 1.422 . S
C962 N961 1.359 . S
C962 C964 1.421 . S
C963 C964 1.422 . S
C963 C966 1.321 . S
C963 H990 0.931 . S
C964 C962 1.421 . S
C964 C963 1.422 . S
C964 C988 1.417 . S
C965 H942 0.931 . S
C965 N961 1.343 . S
C965 C966 1.390 . S
C966 H944 0.930 . S
C966 C963 1.321 . S
C966 C965 1.390 . S
O967 Gd935 2.386 . S
O967 C979 1.265 . S
O968 Gd934 2.353 . S
O968 C979 1.242 . S
O969 Gd934 2.468 . S
O969 C987 1.263 . S
O970 Gd934 2.427 . S
O970 C987 1.252 . S
O971 Gd935 2.307 . S
O971 C980 1.261 . S
O972 Gd934 2.388 . S
O972 C980 1.252 . S
O973 Gd934 2.386 . S
O973 C991 1.265 . S
O974 Gd935 2.353 . S
O974 C991 1.242 . S
O975 Gd935 2.468 . S
O975 C999 1.263 . S
O976 Gd935 2.427 . S
O976 C999 1.252 . S
O977 Gd934 2.307 . S
O977 C992 1.261 . S
O978 Gd935 2.388 . S
O978 C992 1.252 . S
C979 O967 1.265 . S
C979 O968 1.242 . S
C980 O971 1.261 . S
C980 O972 1.252 . S
C981 C984 1.394 . S
C981 C986 1.370 . S
C981 C987 1.500 . S
C982 C985 1.383 . S
C982 C986 1.395 . S
C983 C984 1.396 . S
C983 C985 1.365 . S
C983 H1000 0.929 . S
C984 C981 1.394 . S
C984 C983 1.396 . S
C984 H1001 0.930 . S
C985 C982 1.383 . S
C985 C983 1.365 . S
C985 H1002 0.931 . S
C986 C981 1.370 . S
C986 C982 1.395 . S
C986 H1003 0.930 . S
C987 Gd934 2.805 . S
C987 O969 1.263 . S
C987 O970 1.252 . S
C987 C981 1.500 . S
C988 H950 0.930 . S
C988 C964 1.417 . S
C988 C989 1.329 . S
C989 C959 1.437 . S
C989 H960 0.929 . S
C989 C988 1.329 . S
H990 C963 0.931 . S
C991 O973 1.265 . S
C991 O974 1.242 . S
C992 O977 1.261 . S
C992 O978 1.252 . S
C993 C996 1.394 . S
C993 C998 1.370 . S
C993 C999 1.500 . S
C994 C997 1.383 . S
C994 C998 1.395 . S
C995 C996 1.396 . S
C995 C997 1.365 . S
C995 H1004 0.929 . S
C996 C993 1.394 . S
C996 C995 1.396 . S
C996 H1005 0.930 . S
C997 C994 1.383 . S
C997 C995 1.365 . S
C997 H1006 0.931 . S
C998 C993 1.370 . S
C998 C994 1.395 . S
C998 H1007 0.930 . S
C999 Gd935 2.805 . S
C999 O975 1.263 . S
C999 O976 1.252 . S
C999 C993 1.500 . S
H1000 C983 0.929 . S
H1001 C984 0.930 . S
H1002 C985 0.931 . S
H1003 C986 0.930 . S
H1004 C995 0.929 . S
H1005 C996 0.930 . S
H1006 C997 0.931 . S
H1007 C998 0.930 . S
C1008 C1009 1.349 . S
C1008 C1010 1.327 . S
C1008 H1033 0.950 . S
C1009 C1008 1.349 . S
C1009 C1025 1.349 . S
C1010 C1008 1.327 . S
C1010 C1029 1.429 . S
C1010 H1034 0.950 . S
C1011 C1028 1.574 . S
C1011 C1030 1.368 . S
C1011 H1035 0.949 . S
H1012 C1016 0.949 . S
C1013 C1014 1.349 . S
C1013 C1015 1.327 . S
C1013 H1036 0.950 . S
C1014 C1013 1.349 . S
C1014 C1026 1.349 . S
C1015 C1013 1.327 . S
C1015 C1031 1.429 . S
C1015 H1037 0.950 . S
C1016 H1012 0.949 . S
C1016 C1024 1.574 . S
C1016 C1032 1.368 . S
H1017 C1025 0.950 . S
H1018 C1023 0.950 . S
H1019 C1024 0.949 . S
H1020 C1026 0.950 . S
H1021 C1027 0.950 . S
H1022 C1028 0.949 . S
C1023 H1018 0.950 . S
C1023 C1025 1.327 . S
C1023 C1029 1.429 . S
C1024 C1016 1.574 . S
C1024 H1019 0.949 . S
C1024 C1030 1.368 . S
C1025 C1009 1.349 . S
C1025 H1017 0.950 . S
C1025 C1023 1.327 . S
C1026 C1014 1.349 . S
C1026 H1020 0.950 . S
C1026 C1027 1.327 . S
C1027 H1021 0.950 . S
C1027 C1026 1.327 . S
C1027 C1031 1.429 . S
C1028 C1011 1.574 . S
C1028 H1022 0.949 . S
C1028 C1032 1.368 . S
C1029 C1010 1.429 . S
C1029 C1023 1.429 . S
C1029 C1030 1.523 . S
C1030 C1011 1.368 . S
C1030 C1024 1.368 . S
C1030 C1029 1.523 . S
C1031 C1015 1.429 . S
C1031 C1027 1.429 . S
C1031 C1032 1.523 . S
C1032 C1016 1.368 . S
C1032 C1028 1.368 . S
C1032 C1031 1.523 . S
H1033 C1008 0.950 . S
H1034 C1010 0.950 . S
H1035 C1011 0.949 . S
H1036 C1013 0.950 . S
H1037 C1015 0.950 . S
C1038 C1039 1.349 . S
C1038 C1040 1.327 . S
C1038 H1063 0.950 . S
C1039 C1038 1.349 . S
C1039 C1055 1.349 1_565 S
C1040 C1038 1.327 . S
C1040 C1059 1.429 . S
C1040 H1064 0.950 . S
C1041 C1058 1.574 . S
C1041 C1060 1.368 . S
C1041 H1065 0.949 1_565 S
H1042 C1046 0.949 . S
C1043 C1044 1.349 . S
C1043 C1045 1.327 . S
C1043 H1066 0.950 . S
C1044 C1043 1.349 . S
C1044 C1056 1.349 . S
C1045 C1043 1.327 . S
C1045 C1061 1.429 . S
C1045 H1067 0.950 . S
C1046 H1042 0.949 . S
C1046 C1054 1.574 . S
C1046 C1062 1.368 . S
H1047 C1055 0.950 . S
H1048 C1053 0.950 . S
H1049 C1054 0.949 . S
H1050 C1056 0.950 . S
H1051 C1057 0.950 . S
H1052 C1058 0.949 . S
C1053 H1048 0.950 . S
C1053 C1055 1.327 . S
C1053 C1059 1.429 1_545 S
C1054 C1046 1.574 . S
C1054 H1049 0.949 . S
C1054 C1060 1.368 . S
C1055 C1039 1.349 1_545 S
C1055 H1047 0.950 . S
C1055 C1053 1.327 . S
C1056 C1044 1.349 . S
C1056 H1050 0.950 . S
C1056 C1057 1.327 . S
C1057 H1051 0.950 . S
C1057 C1056 1.327 . S
C1057 C1061 1.429 . S
C1058 C1041 1.574 . S
C1058 H1052 0.949 . S
C1058 C1062 1.368 . S
C1059 C1040 1.429 . S
C1059 C1053 1.429 1_565 S
C1059 C1060 1.523 . S
C1060 C1041 1.368 . S
C1060 C1054 1.368 . S
C1060 C1059 1.523 . S
C1061 C1045 1.429 . S
C1061 C1057 1.429 . S
C1061 C1062 1.523 . S
C1062 C1046 1.368 . S
C1062 C1058 1.368 . S
C1062 C1061 1.523 . S
H1063 C1038 0.950 . S
H1064 C1040 0.950 . S
H1065 C1041 0.949 1_545 S
H1066 C1043 0.950 . S
H1067 C1045 0.950 . S
C1068 C1069 1.349 1_556 S
C1068 C1070 1.327 . S
C1068 H1093 0.950 . S
C1069 C1068 1.349 1_554 S
C1069 C1085 1.349 . S
C1070 C1068 1.327 . S
C1070 C1089 1.429 1_556 S
C1070 H1094 0.950 . S
C1071 C1088 1.574 . S
C1071 C1090 1.368 . S
C1071 H1095 0.949 . S
H1072 C1076 0.949 . S
C1073 C1074 1.349 . S
C1073 C1075 1.327 . S
C1073 H1096 0.950 . S
C1074 C1073 1.349 . S
C1074 C1086 1.349 . S
C1075 C1073 1.327 . S
C1075 C1091 1.429 . S
C1075 H1097 0.950 . S
C1076 H1072 0.949 . S
C1076 C1084 1.574 . S
C1076 C1092 1.368 . S
H1077 C1085 0.950 . S
H1078 C1083 0.950 . S
H1079 C1084 0.947 1_556 S
H1080 C1086 0.950 . S
H1081 C1087 0.950 . S
H1082 C1088 0.949 . S
C1083 H1078 0.950 . S
C1083 C1085 1.327 . S
C1083 C1089 1.429 . S
C1084 C1076 1.574 . S
C1084 H1079 0.947 1_554 S
C1084 C1090 1.368 . S
C1085 C1069 1.349 . S
C1085 H1077 0.950 . S
C1085 C1083 1.327 . S
C1086 C1074 1.349 . S
C1086 H1080 0.950 . S
C1086 C1087 1.327 . S
C1087 H1081 0.950 . S
C1087 C1086 1.327 . S
C1087 C1091 1.429 . S
C1088 C1071 1.574 . S
C1088 H1082 0.949 . S
C1088 C1092 1.368 . S
C1089 C1070 1.429 1_554 S
C1089 C1083 1.429 . S
C1089 C1090 1.523 . S
C1090 C1071 1.368 . S
C1090 C1084 1.368 . S
C1090 C1089 1.523 . S
C1091 C1075 1.429 . S
C1091 C1087 1.429 . S
C1091 C1092 1.523 . S
C1092 C1076 1.368 . S
C1092 C1088 1.368 . S
C1092 C1091 1.523 . S
H1093 C1068 0.950 . S
H1094 C1070 0.950 . S
H1095 C1071 0.949 . S
H1096 C1073 0.950 . S
H1097 C1075 0.950 . S
C1098 C1099 1.349 . S
C1098 C1100 1.327 . S
C1098 H1123 0.950 . S
C1099 C1098 1.349 . S
C1099 C1115 1.349 . S
C1100 C1098 1.327 . S
C1100 C1119 1.429 . S
C1100 H1124 0.950 . S
C1101 C1118 1.574 . S
C1101 C1120 1.368 . S
C1101 H1125 0.949 . S
H1102 C1106 0.949 . S
C1103 C1104 1.349 . S
C1103 C1105 1.327 . S
C1103 H1126 0.950 . S
C1104 C1103 1.349 . S
C1104 C1116 1.349 1_545 S
C1105 C1103 1.327 . S
C1105 C1121 1.429 . S
C1105 H1127 0.950 . S
C1106 H1102 0.949 . S
C1106 C1114 1.574 . S
C1106 C1122 1.368 . S
H1107 C1115 0.950 . S
H1108 C1113 0.950 . S
H1109 C1114 0.949 . S
H1110 C1116 0.950 . S
H1111 C1117 0.950 1_565 S
H1112 C1118 0.949 . S
C1113 H1108 0.950 . S
C1113 C1115 1.327 . S
C1113 C1119 1.429 . S
C1114 C1106 1.574 . S
C1114 H1109 0.949 . S
C1114 C1120 1.368 . S
C1115 C1099 1.349 . S
C1115 H1107 0.950 . S
C1115 C1113 1.327 . S
C1116 C1104 1.349 1_565 S
C1116 H1110 0.950 . S
C1116 C1117 1.327 1_565 S
C1117 H1111 0.950 1_545 S
C1117 C1116 1.327 1_545 S
C1117 C1121 1.429 . S
C1118 C1101 1.574 . S
C1118 H1112 0.949 . S
C1118 C1122 1.368 . S
C1119 C1100 1.429 . S
C1119 C1113 1.429 . S
C1119 C1120 1.523 . S
C1120 C1101 1.368 . S
C1120 C1114 1.368 . S
C1120 C1119 1.523 . S
C1121 C1105 1.429 . S
C1121 C1117 1.429 . S
C1121 C1122 1.523 . S
C1122 C1106 1.368 . S
C1122 C1118 1.368 . S
C1122 C1121 1.523 . S
H1123 C1098 0.950 . S
H1124 C1100 0.950 . S
H1125 C1101 0.949 . S
H1126 C1103 0.950 . S
H1127 C1105 0.950 . S
C1128 C1129 1.349 . S
C1128 C1130 1.327 . S
C1128 H1153 0.950 . S
C1129 C1128 1.349 . S
C1129 C1145 1.349 . S
C1130 C1128 1.327 . S
C1130 C1149 1.429 . S
C1130 H1154 0.950 . S
C1131 C1148 1.574 . S
C1131 C1150 1.368 . S
C1131 H1155 0.949 . S
H1132 C1136 0.949 . S
C1133 C1134 1.349 . S
C1133 C1135 1.327 . S
C1133 H1156 0.950 . S
C1134 C1133 1.349 . S
C1134 C1146 1.349 . S
C1135 C1133 1.327 . S
C1135 C1151 1.429 . S
C1135 H1157 0.950 . S
C1136 H1132 0.949 . S
C1136 C1144 1.574 . S
C1136 C1152 1.368 . S
H1137 C1145 0.950 . S
H1138 C1143 0.950 . S
H1139 C1144 0.949 . S
H1140 C1146 0.950 . S
H1141 C1147 0.950 . S
H1142 C1148 0.949 . S
C1143 H1138 0.950 . S
C1143 C1145 1.327 . S
C1143 C1149 1.429 . S
C1144 C1136 1.574 . S
C1144 H1139 0.949 . S
C1144 C1150 1.368 . S
C1145 C1129 1.349 . S
C1145 H1137 0.950 . S
C1145 C1143 1.327 . S
C1146 C1134 1.349 . S
C1146 H1140 0.950 . S
C1146 C1147 1.327 . S
C1147 H1141 0.950 . S
C1147 C1146 1.327 . S
C1147 C1151 1.429 . S
C1148 C1131 1.574 . S
C1148 H1142 0.949 . S
C1148 C1152 1.368 . S
C1149 C1130 1.429 . S
C1149 C1143 1.429 . S
C1149 C1150 1.523 . S
C1150 C1131 1.368 . S
C1150 C1144 1.368 . S
C1150 C1149 1.523 . S
C1151 C1135 1.429 . S
C1151 C1147 1.429 . S
C1151 C1152 1.523 . S
C1152 C1136 1.368 . S
C1152 C1148 1.368 . S
C1152 C1151 1.523 . S
H1153 C1128 0.950 . S
H1154 C1130 0.950 . S
H1155 C1131 0.949 . S
H1156 C1133 0.950 . S
H1157 C1135 0.950 . S
C1158 C1159 1.349 . S
C1158 C1160 1.327 . S
C1158 H1183 0.950 . S
C1159 C1158 1.349 . S
C1159 C1175 1.349 . S
C1160 C1158 1.327 . S
C1160 C1179 1.429 . S
C1160 H1184 0.950 . S
C1161 C1178 1.574 . S
C1161 C1180 1.368 . S
C1161 H1185 0.949 . S
H1162 C1166 0.949 . S
C1163 C1164 1.349 . S
C1163 C1165 1.327 . S
C1163 H1186 0.950 . S
C1164 C1163 1.349 . S
C1164 C1176 1.349 . S
C1165 C1163 1.327 . S
C1165 C1181 1.429 . S
C1165 H1187 0.950 . S
C1166 H1162 0.949 . S
C1166 C1174 1.574 . S
C1166 C1182 1.368 . S
H1167 C1175 0.950 . S
H1168 C1173 0.950 . S
H1169 C1174 0.949 . S
H1170 C1176 0.950 . S
H1171 C1177 0.950 . S
H1172 C1178 0.949 . S
C1173 H1168 0.950 . S
C1173 C1175 1.327 . S
C1173 C1179 1.429 . S
C1174 C1166 1.574 . S
C1174 H1169 0.949 . S
C1174 C1180 1.368 . S
C1175 C1159 1.349 . S
C1175 H1167 0.950 . S
C1175 C1173 1.327 . S
C1176 C1164 1.349 . S
C1176 H1170 0.950 . S
C1176 C1177 1.327 . S
C1177 H1171 0.950 . S
C1177 C1176 1.327 . S
C1177 C1181 1.429 . S
C1178 C1161 1.574 . S
C1178 H1172 0.949 . S
C1178 C1182 1.368 . S
C1179 C1160 1.429 . S
C1179 C1173 1.429 . S
C1179 C1180 1.523 . S
C1180 C1161 1.368 . S
C1180 C1174 1.368 . S
C1180 C1179 1.523 . S
C1181 C1165 1.429 . S
C1181 C1177 1.429 . S
C1181 C1182 1.523 . S
C1182 C1166 1.368 . S
C1182 C1178 1.368 . S
C1182 C1181 1.523 . S
H1183 C1158 0.950 . S
H1184 C1160 0.950 . S
H1185 C1161 0.949 . S
H1186 C1163 0.950 . S
H1187 C1165 0.950 . S
C1188 C1189 1.349 . S
C1188 C1190 1.327 . S
C1188 H1213 0.950 . S
C1189 C1188 1.349 . S
C1189 C1205 1.349 . S
C1190 C1188 1.327 . S
C1190 C1209 1.429 . S
C1190 H1214 0.950 . S
C1191 C1208 1.574 . S
C1191 C1210 1.368 . S
C1191 H1215 0.949 . S
H1192 C1196 0.945 . S
C1193 C1194 1.349 . S
C1193 C1195 1.327 . S
C1193 H1216 0.950 . S
C1194 C1193 1.349 . S
C1194 C1206 1.349 1_556 S
C1195 C1193 1.327 . S
C1195 C1211 1.429 . S
C1195 H1217 0.950 . S
C1196 H1192 0.945 . S
C1196 C1204 1.574 . S
C1196 C1212 1.368 . S
H1197 C1205 0.950 . S
H1198 C1203 0.950 . S
H1199 C1204 0.949 . S
H1200 C1206 0.950 . S
H1201 C1207 0.950 . S
H1202 C1208 0.949 . S
C1203 H1198 0.950 . S
C1203 C1205 1.327 . S
C1203 C1209 1.429 . S
C1204 C1196 1.574 . S
C1204 H1199 0.949 . S
C1204 C1210 1.368 . S
C1205 C1189 1.349 . S
C1205 H1197 0.950 . S
C1205 C1203 1.327 . S
C1206 C1194 1.349 1_554 S
C1206 H1200 0.950 . S
C1206 C1207 1.327 . S
C1207 H1201 0.950 . S
C1207 C1206 1.327 . S
C1207 C1211 1.429 1_554 S
C1208 C1191 1.574 . S
C1208 H1202 0.949 . S
C1208 C1212 1.368 . S
C1209 C1190 1.429 . S
C1209 C1203 1.429 . S
C1209 C1210 1.523 . S
C1210 C1191 1.368 . S
C1210 C1204 1.368 . S
C1210 C1209 1.523 . S
C1211 C1195 1.429 . S
C1211 C1207 1.429 1_556 S
C1211 C1212 1.523 . S
C1212 C1196 1.368 . S
C1212 C1208 1.368 . S
C1212 C1211 1.523 . S
H1213 C1188 0.950 . S
H1214 C1190 0.950 . S
H1215 C1191 0.949 . S
H1216 C1193 0.950 . S
H1217 C1195 0.950 . S
C1218 C1219 1.349 . S
C1218 C1220 1.327 . S
C1218 H1243 0.950 . S
C1219 C1218 1.349 . S
C1219 C1235 1.349 . S
C1220 C1218 1.327 . S
C1220 C1239 1.429 . S
C1220 H1244 0.950 . S
C1221 C1238 1.574 . S
C1221 C1240 1.368 . S
C1221 H1245 0.949 . S
H1222 C1226 0.949 . S
C1223 C1224 1.349 . S
C1223 C1225 1.327 . S
C1223 H1246 0.950 . S
C1224 C1223 1.349 . S
C1224 C1236 1.349 . S
C1225 C1223 1.327 . S
C1225 C1241 1.429 . S
C1225 H1247 0.950 . S
C1226 H1222 0.949 . S
C1226 C1234 1.574 . S
C1226 C1242 1.368 . S
H1227 C1235 0.950 . S
H1228 C1233 0.950 . S
H1229 C1234 0.949 . S
H1230 C1236 0.950 . S
H1231 C1237 0.950 . S
H1232 C1238 0.949 . S
C1233 H1228 0.950 . S
C1233 C1235 1.327 . S
C1233 C1239 1.429 . S
C1234 C1226 1.574 . S
C1234 H1229 0.949 . S
C1234 C1240 1.368 . S
C1235 C1219 1.349 . S
C1235 H1227 0.950 . S
C1235 C1233 1.327 . S
C1236 C1224 1.349 . S
C1236 H1230 0.950 . S
C1236 C1237 1.327 . S
C1237 H1231 0.950 . S
C1237 C1236 1.327 . S
C1237 C1241 1.429 . S
C1238 C1221 1.574 . S
C1238 H1232 0.949 . S
C1238 C1242 1.368 . S
C1239 C1220 1.429 . S
C1239 C1233 1.429 . S
C1239 C1240 1.523 . S
C1240 C1221 1.368 . S
C1240 C1234 1.368 . S
C1240 C1239 1.523 . S
C1241 C1225 1.429 . S
C1241 C1237 1.429 . S
C1241 C1242 1.523 . S
C1242 C1226 1.368 . S
C1242 C1238 1.368 . S
C1242 C1241 1.523 . S
H1243 C1218 0.950 . S
H1244 C1220 0.950 . S
H1245 C1221 0.949 . S
H1246 C1223 0.950 . S
H1247 C1225 0.950 . S
C1248 C1249 1.349 . S
C1248 C1250 1.327 . S
C1248 H1273 0.950 . S
C1249 C1248 1.349 . S
C1249 C1265 1.349 . S
C1250 C1248 1.327 . S
C1250 C1269 1.429 . S
C1250 H1274 0.950 . S
C1251 C1268 1.574 . S
C1251 C1270 1.368 . S
C1251 H1275 0.949 . S
H1252 C1256 0.949 . S
C1253 C1254 1.349 . S
C1253 C1255 1.327 . S
C1253 H1276 0.950 . S
C1254 C1253 1.349 . S
C1254 C1266 1.349 . S
C1255 C1253 1.327 . S
C1255 C1271 1.429 . S
C1255 H1277 0.950 . S
C1256 H1252 0.949 . S
C1256 C1264 1.574 . S
C1256 C1272 1.368 . S
H1257 C1265 0.950 . S
H1258 C1263 0.950 . S
H1259 C1264 0.949 . S
H1260 C1266 0.950 . S
H1261 C1267 0.950 . S
H1262 C1268 0.949 . S
C1263 H1258 0.950 . S
C1263 C1265 1.327 . S
C1263 C1269 1.429 . S
C1264 C1256 1.574 . S
C1264 H1259 0.949 . S
C1264 C1270 1.368 . S
C1265 C1249 1.349 . S
C1265 H1257 0.950 . S
C1265 C1263 1.327 . S
C1266 C1254 1.349 . S
C1266 H1260 0.950 . S
C1266 C1267 1.327 . S
C1267 H1261 0.950 . S
C1267 C1266 1.327 . S
C1267 C1271 1.429 . S
C1268 C1251 1.574 . S
C1268 H1262 0.949 . S
C1268 C1272 1.368 . S
C1269 C1250 1.429 . S
C1269 C1263 1.429 . S
C1269 C1270 1.523 . S
C1270 C1251 1.368 . S
C1270 C1264 1.368 . S
C1270 C1269 1.523 . S
C1271 C1255 1.429 . S
C1271 C1267 1.429 . S
C1271 C1272 1.523 . S
C1272 C1256 1.368 . S
C1272 C1268 1.368 . S
C1272 C1271 1.523 . S
H1273 C1248 0.950 . S
H1274 C1250 0.950 . S
H1275 C1251 0.949 . S
H1276 C1253 0.950 . S
H1277 C1255 0.950 . S
C1278 C1279 1.349 . S
C1278 C1280 1.327 . S
C1278 H1303 0.950 . S
C1279 C1278 1.349 . S
C1279 C1295 1.349 . S
C1280 C1278 1.327 . S
C1280 C1299 1.429 . S
C1280 H1304 0.950 . S
C1281 C1298 1.574 . S
C1281 C1300 1.368 . S
C1281 H1305 0.949 . S
H1282 C1286 0.949 . S
C1283 C1284 1.349 . S
C1283 C1285 1.327 . S
C1283 H1306 0.945 1_455 S
C1284 C1283 1.349 . S
C1284 C1296 1.349 . S
C1285 C1283 1.327 . S
C1285 C1301 1.429 . S
C1285 H1307 0.950 . S
C1286 H1282 0.949 . S
C1286 C1294 1.574 . S
C1286 C1302 1.368 . S
H1287 C1295 0.950 . S
H1288 C1293 0.950 . S
H1289 C1294 0.949 . S
H1290 C1296 0.950 . S
H1291 C1297 0.950 . S
H1292 C1298 0.949 . S
C1293 H1288 0.950 . S
C1293 C1295 1.327 . S
C1293 C1299 1.429 . S
C1294 C1286 1.574 . S
C1294 H1289 0.949 . S
C1294 C1300 1.368 . S
C1295 C1279 1.349 . S
C1295 H1287 0.950 . S
C1295 C1293 1.327 . S
C1296 C1284 1.349 . S
C1296 H1290 0.950 . S
C1296 C1297 1.327 . S
C1297 H1291 0.950 . S
C1297 C1296 1.327 . S
C1297 C1301 1.429 . S
C1298 C1281 1.574 . S
C1298 H1292 0.949 . S
C1298 C1302 1.368 . S
C1299 C1280 1.429 . S
C1299 C1293 1.429 . S
C1299 C1300 1.523 . S
C1300 C1281 1.368 . S
C1300 C1294 1.368 . S
C1300 C1299 1.523 . S
C1301 C1285 1.429 . S
C1301 C1297 1.429 . S
C1301 C1302 1.523 . S
C1302 C1286 1.368 . S
C1302 C1298 1.368 . S
C1302 C1301 1.523 . S
H1303 C1278 0.950 . S
H1304 C1280 0.950 . S
H1305 C1281 0.949 . S
H1306 C1283 0.945 1_655 S
H1307 C1285 0.950 . S
C1308 C1309 1.349 . S
C1308 C1310 1.327 . S
C1308 H1333 0.950 . S
C1309 C1308 1.349 . S
C1309 C1325 1.350 . S
C1310 C1308 1.327 . S
C1310 C1329 1.429 . S
C1310 H1334 0.950 . S
C1311 C1328 1.574 . S
C1311 C1330 1.368 . S
C1311 H1335 0.949 . S
H1312 C1316 0.949 . S
C1313 C1314 1.349 . S
C1313 C1315 1.327 . S
C1313 H1336 0.950 . S
C1314 C1313 1.349 . S
C1314 C1326 1.349 . S
C1315 C1313 1.327 . S
C1315 C1331 1.429 . S
C1315 H1337 0.950 . S
C1316 H1312 0.949 . S
C1316 C1324 1.574 . S
C1316 C1332 1.368 . S
H1317 C1325 0.946 1_455 S
H1318 C1323 0.950 . S
H1319 C1324 0.949 . S
H1320 C1326 0.950 . S
H1321 C1327 0.950 . S
H1322 C1328 0.949 . S
C1323 H1318 0.950 . S
C1323 C1325 1.330 . S
C1323 C1329 1.429 . S
C1324 C1316 1.574 . S
C1324 H1319 0.949 . S
C1324 C1330 1.368 . S
C1325 C1309 1.350 . S
C1325 H1317 0.946 1_655 S
C1325 C1323 1.330 . S
C1326 C1314 1.349 . S
C1326 H1320 0.950 . S
C1326 C1327 1.327 . S
C1327 H1321 0.950 . S
C1327 C1326 1.327 . S
C1327 C1331 1.429 . S
C1328 C1311 1.574 . S
C1328 H1322 0.949 . S
C1328 C1332 1.368 . S
C1329 C1310 1.429 . S
C1329 C1323 1.429 . S
C1329 C1330 1.523 . S
C1330 C1311 1.368 . S
C1330 C1324 1.368 . S
C1330 C1329 1.523 . S
C1331 C1315 1.429 . S
C1331 C1327 1.429 . S
C1331 C1332 1.523 . S
C1332 C1316 1.368 . S
C1332 C1328 1.368 . S
C1332 C1331 1.523 . S
H1333 C1308 0.950 . S
H1334 C1310 0.950 . S
H1335 C1311 0.949 . S
H1336 C1313 0.950 . S
H1337 C1315 0.950 . S
C1338 C1339 1.349 . S
C1338 C1340 1.327 . S
C1338 H1363 0.950 . S
C1339 C1338 1.349 . S
C1339 C1355 1.349 . S
C1340 C1338 1.327 . S
C1340 C1359 1.429 . S
C1340 H1364 0.950 . S
C1341 C1358 1.574 . S
C1341 C1360 1.368 . S
C1341 H1365 0.949 . S
H1342 C1346 0.949 . S
C1343 C1344 1.349 . S
C1343 C1345 1.327 . S
C1343 H1366 0.950 . S
C1344 C1343 1.349 . S
C1344 C1356 1.349 . S
C1345 C1343 1.327 . S
C1345 C1361 1.429 . S
C1345 H1367 0.950 . S
C1346 H1342 0.949 . S
C1346 C1354 1.574 . S
C1346 C1362 1.368 . S
H1347 C1355 0.950 . S
H1348 C1353 0.950 . S
H1349 C1354 0.949 . S
H1350 C1356 0.950 . S
H1351 C1357 0.950 . S
H1352 C1358 0.949 . S
C1353 H1348 0.950 . S
C1353 C1355 1.327 . S
C1353 C1359 1.429 . S
C1354 C1346 1.574 . S
C1354 H1349 0.949 . S
C1354 C1360 1.368 . S
C1355 C1339 1.349 . S
C1355 H1347 0.950 . S
C1355 C1353 1.327 . S
C1356 C1344 1.349 . S
C1356 H1350 0.950 . S
C1356 C1357 1.327 . S
C1357 H1351 0.950 . S
C1357 C1356 1.327 . S
C1357 C1361 1.429 . S
C1358 C1341 1.574 . S
C1358 H1352 0.949 . S
C1358 C1362 1.368 . S
C1359 C1340 1.429 . S
C1359 C1353 1.429 . S
C1359 C1360 1.523 . S
C1360 C1341 1.368 . S
C1360 C1354 1.368 . S
C1360 C1359 1.523 . S
C1361 C1345 1.429 . S
C1361 C1357 1.429 . S
C1361 C1362 1.523 . S
C1362 C1346 1.368 . S
C1362 C1358 1.368 . S
C1362 C1361 1.523 . S
H1363 C1338 0.950 . S
H1364 C1340 0.950 . S
H1365 C1341 0.949 . S
H1366 C1343 0.950 . S
H1367 C1345 0.950 . S
C1368 C1369 1.349 . S
C1368 C1370 1.327 . S
C1368 H1393 0.950 . S
C1369 C1368 1.349 . S
C1369 C1385 1.349 . S
C1370 C1368 1.327 . S
C1370 C1389 1.429 . S
C1370 H1394 0.950 . S
C1371 C1388 1.574 . S
C1371 C1390 1.368 . S
C1371 H1395 0.949 . S
H1372 C1376 0.949 . S
C1373 C1374 1.349 . S
C1373 C1375 1.327 . S
C1373 H1396 0.950 . S
C1374 C1373 1.349 . S
C1374 C1386 1.349 . S
C1375 C1373 1.327 . S
C1375 C1391 1.429 . S
C1375 H1397 0.950 . S
C1376 H1372 0.949 . S
C1376 C1384 1.574 . S
C1376 C1392 1.368 . S
H1377 C1385 0.950 . S
H1378 C1383 0.950 . S
H1379 C1384 0.949 . S
H1380 C1386 0.950 . S
H1381 C1387 0.950 . S
H1382 C1388 0.949 . S
C1383 H1378 0.950 . S
C1383 C1385 1.327 . S
C1383 C1389 1.429 . S
C1384 C1376 1.574 . S
C1384 H1379 0.949 . S
C1384 C1390 1.368 . S
C1385 C1369 1.349 . S
C1385 H1377 0.950 . S
C1385 C1383 1.327 . S
C1386 C1374 1.349 . S
C1386 H1380 0.950 . S
C1386 C1387 1.327 . S
C1387 H1381 0.950 . S
C1387 C1386 1.327 . S
C1387 C1391 1.429 . S
C1388 C1371 1.574 . S
C1388 H1382 0.949 . S
C1388 C1392 1.368 . S
C1389 C1370 1.429 . S
C1389 C1383 1.429 . S
C1389 C1390 1.523 . S
C1390 C1371 1.368 . S
C1390 C1384 1.368 . S
C1390 C1389 1.523 . S
C1391 C1375 1.429 . S
C1391 C1387 1.429 . S
C1391 C1392 1.523 . S
C1392 C1376 1.368 . S
C1392 C1388 1.368 . S
C1392 C1391 1.523 . S
H1393 C1368 0.950 . S
H1394 C1370 0.950 . S
H1395 C1371 0.949 . S
H1396 C1373 0.950 . S
H1397 C1375 0.950 . S
C1398 C1399 1.349 . S
C1398 C1400 1.327 . S
C1398 H1423 0.950 . S
C1399 C1398 1.349 . S
C1399 C1415 1.349 . S
C1400 C1398 1.327 . S
C1400 C1419 1.429 . S
C1400 H1424 0.950 . S
C1401 C1418 1.574 . S
C1401 C1420 1.368 . S
C1401 H1425 0.949 . S
H1402 C1406 0.949 . S
C1403 C1404 1.349 . S
C1403 C1405 1.327 . S
C1403 H1426 0.950 . S
C1404 C1403 1.349 . S
C1404 C1416 1.349 . S
C1405 C1403 1.327 . S
C1405 C1421 1.429 . S
C1405 H1427 0.950 . S
C1406 H1402 0.949 . S
C1406 C1414 1.574 . S
C1406 C1422 1.368 . S
H1407 C1415 0.950 . S
H1408 C1413 0.950 . S
H1409 C1414 0.949 . S
H1410 C1416 0.950 . S
H1411 C1417 0.950 . S
H1412 C1418 0.949 . S
C1413 H1408 0.950 . S
C1413 C1415 1.327 . S
C1413 C1419 1.429 . S
C1414 C1406 1.574 . S
C1414 H1409 0.949 . S
C1414 C1420 1.368 . S
C1415 C1399 1.349 . S
C1415 H1407 0.950 . S
C1415 C1413 1.327 . S
C1416 C1404 1.349 . S
C1416 H1410 0.950 . S
C1416 C1417 1.327 . S
C1417 H1411 0.950 . S
C1417 C1416 1.327 . S
C1417 C1421 1.429 . S
C1418 C1401 1.574 . S
C1418 H1412 0.949 . S
C1418 C1422 1.368 . S
C1419 C1400 1.429 . S
C1419 C1413 1.429 . S
C1419 C1420 1.523 . S
C1420 C1401 1.368 . S
C1420 C1414 1.368 . S
C1420 C1419 1.523 . S
C1421 C1405 1.429 . S
C1421 C1417 1.429 . S
C1421 C1422 1.523 . S
C1422 C1406 1.368 . S
C1422 C1418 1.368 . S
C1422 C1421 1.523 . S
H1423 C1398 0.950 . S
H1424 C1400 0.950 . S
H1425 C1401 0.949 . S
H1426 C1403 0.950 . S
H1427 C1405 0.950 . S
C1428 C1429 1.349 . S
C1428 C1430 1.327 . S
C1428 H1453 0.950 . S
C1429 C1428 1.349 . S
C1429 C1445 1.349 . S
C1430 C1428 1.327 . S
C1430 C1449 1.429 . S
C1430 H1454 0.950 . S
C1431 C1448 1.574 . S
C1431 C1450 1.368 . S
C1431 H1455 0.949 . S
H1432 C1436 0.949 . S
C1433 C1434 1.349 . S
C1433 C1435 1.327 . S
C1433 H1456 0.950 . S
C1434 C1433 1.349 . S
C1434 C1446 1.349 . S
C1435 C1433 1.327 . S
C1435 C1451 1.429 . S
C1435 H1457 0.950 . S
C1436 H1432 0.949 . S
C1436 C1444 1.574 . S
C1436 C1452 1.368 . S
H1437 C1445 0.950 . S
H1438 C1443 0.950 . S
H1439 C1444 0.949 . S
H1440 C1446 0.950 . S
H1441 C1447 0.950 . S
H1442 C1448 0.949 . S
C1443 H1438 0.950 . S
C1443 C1445 1.327 . S
C1443 C1449 1.429 . S
C1444 C1436 1.574 . S
C1444 H1439 0.949 . S
C1444 C1450 1.368 . S
C1445 C1429 1.349 . S
C1445 H1437 0.950 . S
C1445 C1443 1.327 . S
C1446 C1434 1.349 . S
C1446 H1440 0.950 . S
C1446 C1447 1.327 . S
C1447 H1441 0.950 . S
C1447 C1446 1.327 . S
C1447 C1451 1.429 . S
C1448 C1431 1.574 . S
C1448 H1442 0.949 . S
C1448 C1452 1.368 . S
C1449 C1430 1.429 . S
C1449 C1443 1.429 . S
C1449 C1450 1.523 . S
C1450 C1431 1.368 . S
C1450 C1444 1.368 . S
C1450 C1449 1.523 . S
C1451 C1435 1.429 . S
C1451 C1447 1.429 . S
C1451 C1452 1.523 . S
C1452 C1436 1.368 . S
C1452 C1448 1.368 . S
C1452 C1451 1.523 . S
H1453 C1428 0.950 . S
H1454 C1430 0.950 . S
H1455 C1431 0.949 . S
H1456 C1433 0.950 . S
H1457 C1435 0.950 . S
C1458 C1459 1.349 . S
C1458 C1460 1.327 . S
C1458 H1483 0.950 . S
C1459 C1458 1.349 . S
C1459 C1475 1.349 . S
C1460 C1458 1.327 . S
C1460 C1479 1.429 . S
C1460 H1484 0.950 . S
C1461 C1478 1.574 . S
C1461 C1480 1.368 . S
C1461 H1485 0.949 . S
H1462 C1466 0.962 . S
C1463 C1464 1.349 . S
C1463 C1465 1.327 . S
C1463 H1486 0.950 . S
C1464 C1463 1.349 . S
C1464 C1476 1.349 . S
C1465 C1463 1.327 . S
C1465 C1481 1.429 . S
C1465 H1487 0.950 . S
C1466 H1462 0.962 . S
C1466 C1474 1.574 . S
C1466 C1482 1.368 1_554 S
H1467 C1475 0.950 . S
H1468 C1473 0.950 . S
H1469 C1474 0.949 . S
H1470 C1476 0.950 . S
H1471 C1477 0.950 . S
H1472 C1478 0.949 1_556 S
C1473 H1468 0.950 . S
C1473 C1475 1.327 . S
C1473 C1479 1.429 . S
C1474 C1466 1.574 . S
C1474 H1469 0.949 . S
C1474 C1480 1.368 . S
C1475 C1459 1.349 . S
C1475 H1467 0.950 . S
C1475 C1473 1.327 . S
C1476 C1464 1.349 . S
C1476 H1470 0.950 . S
C1476 C1477 1.327 . S
C1477 H1471 0.950 . S
C1477 C1476 1.327 . S
C1477 C1481 1.429 . S
C1478 C1461 1.574 . S
C1478 H1472 0.949 1_554 S
C1478 C1482 1.368 1_554 S
C1479 C1460 1.429 . S
C1479 C1473 1.429 . S
C1479 C1480 1.523 . S
C1480 C1461 1.368 . S
C1480 C1474 1.368 . S
C1480 C1479 1.523 . S
C1481 C1465 1.429 . S
C1481 C1477 1.429 . S
C1481 C1482 1.523 . S
C1482 C1466 1.368 1_556 S
C1482 C1478 1.368 1_556 S
C1482 C1481 1.523 . S
H1483 C1458 0.950 . S
H1484 C1460 0.950 . S
H1485 C1461 0.949 . S
H1486 C1463 0.950 . S
H1487 C1465 0.950 . S
C1488 C1489 1.349 . S
C1488 C1490 1.327 . S
C1488 H1513 0.950 . S
C1489 C1488 1.349 . S
C1489 C1505 1.349 . S
C1490 C1488 1.327 . S
C1490 C1509 1.429 . S
C1490 H1514 0.950 . S
C1491 C1508 1.574 . S
C1491 C1510 1.368 . S
C1491 H1515 0.949 . S
H1492 C1496 0.949 . S
C1493 C1494 1.349 . S
C1493 C1495 1.327 . S
C1493 H1516 0.950 . S
C1494 C1493 1.349 . S
C1494 C1506 1.349 . S
C1495 C1493 1.327 . S
C1495 C1511 1.429 . S
C1495 H1517 0.950 . S
C1496 H1492 0.949 . S
C1496 C1504 1.574 . S
C1496 C1512 1.368 . S
H1497 C1505 0.950 . S
H1498 C1503 0.950 . S
H1499 C1504 0.949 . S
H1500 C1506 0.950 . S
H1501 C1507 0.950 . S
H1502 C1508 0.949 . S
C1503 H1498 0.950 . S
C1503 C1505 1.327 . S
C1503 C1509 1.429 . S
C1504 C1496 1.574 . S
C1504 H1499 0.949 . S
C1504 C1510 1.368 . S
C1505 C1489 1.349 . S
C1505 H1497 0.950 . S
C1505 C1503 1.327 . S
C1506 C1494 1.349 . S
C1506 H1500 0.950 . S
C1506 C1507 1.327 . S
C1507 H1501 0.950 . S
C1507 C1506 1.327 . S
C1507 C1511 1.429 . S
C1508 C1491 1.574 . S
C1508 H1502 0.949 . S
C1508 C1512 1.368 . S
C1509 C1490 1.429 . S
C1509 C1503 1.429 . S
C1509 C1510 1.523 . S
C1510 C1491 1.368 . S
C1510 C1504 1.368 . S
C1510 C1509 1.523 . S
C1511 C1495 1.429 . S
C1511 C1507 1.429 . S
C1511 C1512 1.523 . S
C1512 C1496 1.368 . S
C1512 C1508 1.368 . S
C1512 C1511 1.523 . S
H1513 C1488 0.950 . S
H1514 C1490 0.950 . S
H1515 C1491 0.949 . S
H1516 C1493 0.950 . S
H1517 C1495 0.950 . S
C1518 C1519 1.349 . S
C1518 C1520 1.327 . S
C1518 H1543 0.950 . S
C1519 C1518 1.349 . S
C1519 C1535 1.349 . S
C1520 C1518 1.327 . S
C1520 C1539 1.429 . S
C1520 H1544 0.950 . S
C1521 C1538 1.574 1_554 S
C1521 C1540 1.365 1_554 S
C1521 H1545 0.949 . S
H1522 C1526 0.949 . S
C1523 C1524 1.349 . S
C1523 C1525 1.327 . S
C1523 H1546 0.950 . S
C1524 C1523 1.349 . S
C1524 C1536 1.349 . S
C1525 C1523 1.327 . S
C1525 C1541 1.429 . S
C1525 H1547 0.950 . S
C1526 H1522 0.949 . S
C1526 C1534 1.574 . S
C1526 C1542 1.368 . S
H1527 C1535 0.950 . S
H1528 C1533 0.950 . S
H1529 C1534 0.949 . S
H1530 C1536 0.950 . S
H1531 C1537 0.950 . S
H1532 C1538 0.949 . S
C1533 H1528 0.950 . S
C1533 C1535 1.327 . S
C1533 C1539 1.429 . S
C1534 C1526 1.574 . S
C1534 H1529 0.949 . S
C1534 C1540 1.406 . S
C1535 C1519 1.349 . S
C1535 H1527 0.950 . S
C1535 C1533 1.327 . S
C1536 C1524 1.349 . S
C1536 H1530 0.950 . S
C1536 C1537 1.327 . S
C1537 H1531 0.950 . S
C1537 C1536 1.327 . S
C1537 C1541 1.429 . S
C1538 C1521 1.574 1_556 S
C1538 H1532 0.949 . S
C1538 C1542 1.368 . S
C1539 C1520 1.429 . S
C1539 C1533 1.429 . S
C1539 C1540 1.480 1_554 S
C1540 C1521 1.365 1_556 S
C1540 C1534 1.406 . S
C1540 C1539 1.480 1_556 S
C1541 C1525 1.429 . S
C1541 C1537 1.429 . S
C1541 C1542 1.523 . S
C1542 C1526 1.368 . S
C1542 C1538 1.368 . S
C1542 C1541 1.523 . S
H1543 C1518 0.950 . S
H1544 C1520 0.950 . S
H1545 C1521 0.949 . S
H1546 C1523 0.950 . S
H1547 C1525 0.950 . S
C1548 C1549 1.349 . S
C1548 C1550 1.327 . S
C1548 H1573 0.950 . S
C1549 C1548 1.349 . S
C1549 C1565 1.349 . S
C1550 C1548 1.327 . S
C1550 C1569 1.429 . S
C1550 H1574 0.950 . S
C1551 C1568 1.574 . S
C1551 C1570 1.368 . S
C1551 H1575 0.949 . S
H1552 C1556 0.949 . S
C1553 C1554 1.349 . S
C1553 C1555 1.327 . S
C1553 H1576 0.950 . S
C1554 C1553 1.349 . S
C1554 C1566 1.349 . S
C1555 C1553 1.327 . S
C1555 C1571 1.429 . S
C1555 H1577 0.950 . S
C1556 H1552 0.949 . S
C1556 C1564 1.574 . S
C1556 C1572 1.368 . S
H1557 C1565 0.950 . S
H1558 C1563 0.950 . S
H1559 C1564 0.949 . S
H1560 C1566 0.950 . S
H1561 C1567 0.950 . S
H1562 C1568 0.949 . S
C1563 H1558 0.950 . S
C1563 C1565 1.327 . S
C1563 C1569 1.429 . S
C1564 C1556 1.574 . S
C1564 H1559 0.949 . S
C1564 C1570 1.368 . S
C1565 C1549 1.349 . S
C1565 H1557 0.950 . S
C1565 C1563 1.327 . S
C1566 C1554 1.349 . S
C1566 H1560 0.950 . S
C1566 C1567 1.327 . S
C1567 H1561 0.950 . S
C1567 C1566 1.327 . S
C1567 C1571 1.429 . S
C1568 C1551 1.574 . S
C1568 H1562 0.949 . S
C1568 C1572 1.368 . S
C1569 C1550 1.429 . S
C1569 C1563 1.429 . S
C1569 C1570 1.523 . S
C1570 C1551 1.368 . S
C1570 C1564 1.368 . S
C1570 C1569 1.523 . S
C1571 C1555 1.429 . S
C1571 C1567 1.429 . S
C1571 C1572 1.523 . S
C1572 C1556 1.368 . S
C1572 C1568 1.368 . S
C1572 C1571 1.523 . S
H1573 C1548 0.950 . S
H1574 C1550 0.950 . S
H1575 C1551 0.949 . S
H1576 C1553 0.950 . S
H1577 C1555 0.950 . S
C1578 C1579 1.349 . S
C1578 C1580 1.327 . S
C1578 H1603 0.950 . S
C1579 C1578 1.349 . S
C1579 C1595 1.349 . S
C1580 C1578 1.327 . S
C1580 C1599 1.429 . S
C1580 H1604 0.950 . S
C1581 C1598 1.574 . S
C1581 C1600 1.368 . S
C1581 H1605 0.949 . S
H1582 C1586 0.949 . S
C1583 C1584 1.349 . S
C1583 C1585 1.327 . S
C1583 H1606 0.950 . S
C1584 C1583 1.349 . S
C1584 C1596 1.349 . S
C1585 C1583 1.327 . S
C1585 C1601 1.429 . S
C1585 H1607 0.950 . S
C1586 H1582 0.949 . S
C1586 C1594 1.574 . S
C1586 C1602 1.368 . S
H1587 C1595 0.950 . S
H1588 C1593 0.950 . S
H1589 C1594 0.949 . S
H1590 C1596 0.950 . S
H1591 C1597 0.950 . S
H1592 C1598 0.949 . S
C1593 H1588 0.950 . S
C1593 C1595 1.327 . S
C1593 C1599 1.429 . S
C1594 C1586 1.574 . S
C1594 H1589 0.949 . S
C1594 C1600 1.368 . S
C1595 C1579 1.349 . S
C1595 H1587 0.950 . S
C1595 C1593 1.327 . S
C1596 C1584 1.349 . S
C1596 H1590 0.950 . S
C1596 C1597 1.327 . S
C1597 H1591 0.950 . S
C1597 C1596 1.327 . S
C1597 C1601 1.429 . S
C1598 C1581 1.574 . S
C1598 H1592 0.949 . S
C1598 C1602 1.368 . S
C1599 C1580 1.429 . S
C1599 C1593 1.429 . S
C1599 C1600 1.523 . S
C1600 C1581 1.368 . S
C1600 C1594 1.368 . S
C1600 C1599 1.523 . S
C1601 C1585 1.429 . S
C1601 C1597 1.429 . S
C1601 C1602 1.523 . S
C1602 C1586 1.368 . S
C1602 C1598 1.368 . S
C1602 C1601 1.523 . S
H1603 C1578 0.950 . S
H1604 C1580 0.950 . S
H1605 C1581 0.949 . S
H1606 C1583 0.950 . S
H1607 C1585 0.950 . S
C1608 C1609 1.349 . S
C1608 C1610 1.327 . S
C1608 H1633 0.950 . S
C1609 C1608 1.349 . S
C1609 C1625 1.349 . S
C1610 C1608 1.327 . S
C1610 C1629 1.429 . S
C1610 H1634 0.950 . S
C1611 C1628 1.574 . S
C1611 C1630 1.368 . S
C1611 H1635 0.949 . S
H1612 C1616 0.949 . S
C1613 C1614 1.349 . S
C1613 C1615 1.327 . S
C1613 H1636 0.950 . S
C1614 C1613 1.349 . S
C1614 C1626 1.349 . S
C1615 C1613 1.327 . S
C1615 C1631 1.429 . S
C1615 H1637 0.950 . S
C1616 H1612 0.949 . S
C1616 C1624 1.574 . S
C1616 C1632 1.368 . S
H1617 C1625 0.950 . S
H1618 C1623 0.950 . S
H1619 C1624 0.949 . S
H1620 C1626 0.950 . S
H1621 C1627 0.950 . S
H1622 C1628 0.949 . S
C1623 H1618 0.950 . S
C1623 C1625 1.327 . S
C1623 C1629 1.429 . S
C1624 C1616 1.574 . S
C1624 H1619 0.949 . S
C1624 C1630 1.368 . S
C1625 C1609 1.349 . S
C1625 H1617 0.950 . S
C1625 C1623 1.327 . S
C1626 C1614 1.349 . S
C1626 H1620 0.950 . S
C1626 C1627 1.327 . S
C1627 H1621 0.950 . S
C1627 C1626 1.327 . S
C1627 C1631 1.429 . S
C1628 C1611 1.574 . S
C1628 H1622 0.949 . S
C1628 C1632 1.368 . S
C1629 C1610 1.429 . S
C1629 C1623 1.429 . S
C1629 C1630 1.523 . S
C1630 C1611 1.368 . S
C1630 C1624 1.368 . S
C1630 C1629 1.523 . S
C1631 C1615 1.429 . S
C1631 C1627 1.429 . S
C1631 C1632 1.523 . S
C1632 C1616 1.368 . S
C1632 C1628 1.368 . S
C1632 C1631 1.523 . S
H1633 C1608 0.950 . S
H1634 C1610 0.950 . S
H1635 C1611 0.949 . S
H1636 C1613 0.950 . S
H1637 C1615 0.950 . S
C1638 C1639 1.349 . S
C1638 C1640 1.327 . S
C1638 H1663 0.950 . S
C1639 C1638 1.349 . S
C1639 C1655 1.349 . S
C1640 C1638 1.327 . S
C1640 C1659 1.429 . S
C1640 H1664 0.950 . S
C1641 C1658 1.574 1_545 S
C1641 C1660 1.368 . S
C1641 H1665 0.949 . S
H1642 C1646 0.949 . S
C1643 C1644 1.349 . S
C1643 C1645 1.327 . S
C1643 H1666 0.950 . S
C1644 C1643 1.349 . S
C1644 C1656 1.349 . S
C1645 C1643 1.327 . S
C1645 C1661 1.429 . S
C1645 H1667 0.950 . S
C1646 H1642 0.949 . S
C1646 C1654 1.574 . S
C1646 C1662 1.342 1_545 S
H1647 C1655 0.950 . S
H1648 C1653 0.950 . S
H1649 C1654 0.949 . S
H1650 C1656 0.950 . S
H1651 C1657 0.950 . S
H1652 C1658 0.949 . S
C1653 H1648 0.950 . S
C1653 C1655 1.327 . S
C1653 C1659 1.429 . S
C1654 C1646 1.574 . S
C1654 H1649 0.949 . S
C1654 C1660 1.368 . S
C1655 C1639 1.349 . S
C1655 H1647 0.950 . S
C1655 C1653 1.327 . S
C1656 C1644 1.349 . S
C1656 H1650 0.950 . S
C1656 C1657 1.327 . S
C1657 H1651 0.950 . S
C1657 C1656 1.327 . S
C1657 C1661 1.429 . S
C1658 C1641 1.574 1_565 S
C1658 H1652 0.949 . S
C1658 C1662 1.372 . S
C1659 C1640 1.429 . S
C1659 C1653 1.429 . S
C1659 C1660 1.523 . S
C1660 C1641 1.368 . S
C1660 C1654 1.368 . S
C1660 C1659 1.523 . S
C1661 C1645 1.429 . S
C1661 C1657 1.429 . S
C1661 C1662 1.553 . S
C1662 C1646 1.342 1_565 S
C1662 C1658 1.372 . S
C1662 C1661 1.553 . S
H1663 C1638 0.950 . S
H1664 C1640 0.950 . S
H1665 C1641 0.949 . S
H1666 C1643 0.950 . S
H1667 C1645 0.950 . S
C1668 C1669 1.349 . S
C1668 C1670 1.327 . S
C1668 H1693 0.950 . S
C1669 C1668 1.349 . S
C1669 C1685 1.349 . S
C1670 C1668 1.327 . S
C1670 C1689 1.429 . S
C1670 H1694 0.950 . S
C1671 C1688 1.574 . S
C1671 C1690 1.368 . S
C1671 H1695 0.949 . S
H1672 C1676 0.949 . S
C1673 C1674 1.349 . S
C1673 C1675 1.327 . S
C1673 H1696 0.950 . S
C1674 C1673 1.349 . S
C1674 C1686 1.349 . S
C1675 C1673 1.327 . S
C1675 C1691 1.429 . S
C1675 H1697 0.950 . S
C1676 H1672 0.949 . S
C1676 C1684 1.574 . S
C1676 C1692 1.368 . S
H1677 C1685 0.950 . S
H1678 C1683 0.950 . S
H1679 C1684 0.949 . S
H1680 C1686 0.950 . S
H1681 C1687 0.950 . S
H1682 C1688 0.949 . S
C1683 H1678 0.950 . S
C1683 C1685 1.327 . S
C1683 C1689 1.429 . S
C1684 C1676 1.574 . S
C1684 H1679 0.949 . S
C1684 C1690 1.368 . S
C1685 C1669 1.349 . S
C1685 H1677 0.950 . S
C1685 C1683 1.327 . S
C1686 C1674 1.349 . S
C1686 H1680 0.950 . S
C1686 C1687 1.327 . S
C1687 H1681 0.950 . S
C1687 C1686 1.327 . S
C1687 C1691 1.429 . S
C1688 C1671 1.574 . S
C1688 H1682 0.949 . S
C1688 C1692 1.368 . S
C1689 C1670 1.429 . S
C1689 C1683 1.429 . S
C1689 C1690 1.523 . S
C1690 C1671 1.368 . S
C1690 C1684 1.368 . S
C1690 C1689 1.523 . S
C1691 C1675 1.429 . S
C1691 C1687 1.429 . S
C1691 C1692 1.523 . S
C1692 C1676 1.368 . S
C1692 C1688 1.368 . S
C1692 C1691 1.523 . S
H1693 C1668 0.950 . S
H1694 C1670 0.950 . S
H1695 C1671 0.949 . S
H1696 C1673 0.950 . S
H1697 C1675 0.950 . S
C1698 C1699 1.349 . S
C1698 C1700 1.327 . S
C1698 H1723 0.950 . S
C1699 C1698 1.349 . S
C1699 C1715 1.349 . S
C1700 C1698 1.327 . S
C1700 C1719 1.429 . S
C1700 H1724 0.950 . S
C1701 C1718 1.574 . S
C1701 C1720 1.368 1_565 S
C1701 H1725 0.949 . S
H1702 C1706 0.949 . S
C1703 C1704 1.349 . S
C1703 C1705 1.327 . S
C1703 H1726 0.950 . S
C1704 C1703 1.349 . S
C1704 C1716 1.349 . S
C1705 C1703 1.327 . S
C1705 C1721 1.429 . S
C1705 H1727 0.950 . S
C1706 H1702 0.949 . S
C1706 C1714 1.574 . S
C1706 C1722 1.368 . S
H1707 C1715 0.950 . S
H1708 C1713 0.950 . S
H1709 C1714 0.949 1_545 S
H1710 C1716 0.950 . S
H1711 C1717 0.950 . S
H1712 C1718 0.949 . S
C1713 H1708 0.950 . S
C1713 C1715 1.327 . S
C1713 C1719 1.429 . S
C1714 C1706 1.574 . S
C1714 H1709 0.949 1_565 S
C1714 C1720 1.368 1_565 S
C1715 C1699 1.349 . S
C1715 H1707 0.950 . S
C1715 C1713 1.327 . S
C1716 C1704 1.349 . S
C1716 H1710 0.950 . S
C1716 C1717 1.327 . S
C1717 H1711 0.950 . S
C1717 C1716 1.327 . S
C1717 C1721 1.429 . S
C1718 C1701 1.574 . S
C1718 H1712 0.949 . S
C1718 C1722 1.368 . S
C1719 C1700 1.429 . S
C1719 C1713 1.429 . S
C1719 C1720 1.523 . S
C1720 C1701 1.368 1_545 S
C1720 C1714 1.368 1_545 S
C1720 C1719 1.523 . S
C1721 C1705 1.429 . S
C1721 C1717 1.429 . S
C1721 C1722 1.523 . S
C1722 C1706 1.368 . S
C1722 C1718 1.368 . S
C1722 C1721 1.523 . S
H1723 C1698 0.950 . S
H1724 C1700 0.950 . S
H1725 C1701 0.949 . S
H1726 C1703 0.950 . S
H1727 C1705 0.950 . S
C1728 C1729 1.349 . S
C1728 C1730 1.327 . S
C1728 H1753 0.950 . S
C1729 C1728 1.349 . S
C1729 C1745 1.349 . S
C1730 C1728 1.327 . S
C1730 C1749 1.429 . S
C1730 H1754 0.950 . S
C1731 C1748 1.574 . S
C1731 C1750 1.368 . S
C1731 H1755 0.949 . S
H1732 C1736 0.949 . S
C1733 C1734 1.349 . S
C1733 C1735 1.327 . S
C1733 H1756 0.950 . S
C1734 C1733 1.349 . S
C1734 C1746 1.349 . S
C1735 C1733 1.327 . S
C1735 C1751 1.429 . S
C1735 H1757 0.950 . S
C1736 H1732 0.949 . S
C1736 C1744 1.574 . S
C1736 C1752 1.368 . S
H1737 C1745 0.950 . S
H1738 C1743 0.950 . S
H1739 C1744 0.949 . S
H1740 C1746 0.950 . S
H1741 C1747 0.950 . S
H1742 C1748 0.949 . S
C1743 H1738 0.950 . S
C1743 C1745 1.327 . S
C1743 C1749 1.429 . S
C1744 C1736 1.574 . S
C1744 H1739 0.949 . S
C1744 C1750 1.368 . S
C1745 C1729 1.349 . S
C1745 H1737 0.950 . S
C1745 C1743 1.327 . S
C1746 C1734 1.349 . S
C1746 H1740 0.950 . S
C1746 C1747 1.327 . S
C1747 H1741 0.950 . S
C1747 C1746 1.327 . S
C1747 C1751 1.429 . S
C1748 C1731 1.574 . S
C1748 H1742 0.949 . S
C1748 C1752 1.368 . S
C1749 C1730 1.429 . S
C1749 C1743 1.429 . S
C1749 C1750 1.523 . S
C1750 C1731 1.368 . S
C1750 C1744 1.368 . S
C1750 C1749 1.523 . S
C1751 C1735 1.429 . S
C1751 C1747 1.429 . S
C1751 C1752 1.523 . S
C1752 C1736 1.368 . S
C1752 C1748 1.368 . S
C1752 C1751 1.523 . S
H1753 C1728 0.950 . S
H1754 C1730 0.950 . S
H1755 C1731 0.949 . S
H1756 C1733 0.950 . S
H1757 C1735 0.950 . S
C1758 C1759 1.349 . S
C1758 C1760 1.327 . S
C1758 H1783 0.950 . S
C1759 C1758 1.349 . S
C1759 C1775 1.349 . S
C1760 C1758 1.327 . S
C1760 C1779 1.429 . S
C1760 H1784 0.950 . S
C1761 C1778 1.574 . S
C1761 C1780 1.368 . S
C1761 H1785 0.949 . S
H1762 C1766 0.949 . S
C1763 C1764 1.349 . S
C1763 C1765 1.327 . S
C1763 H1786 0.950 . S
C1764 C1763 1.349 . S
C1764 C1776 1.349 . S
C1765 C1763 1.327 . S
C1765 C1781 1.429 . S
C1765 H1787 0.950 . S
C1766 H1762 0.949 . S
C1766 C1774 1.574 . S
C1766 C1782 1.368 . S
H1767 C1775 0.950 . S
H1768 C1773 0.950 . S
H1769 C1774 0.949 . S
H1770 C1776 0.950 . S
H1771 C1777 0.950 . S
H1772 C1778 0.949 . S
C1773 H1768 0.950 . S
C1773 C1775 1.327 . S
C1773 C1779 1.429 . S
C1774 C1766 1.574 . S
C1774 H1769 0.949 . S
C1774 C1780 1.368 . S
C1775 C1759 1.349 . S
C1775 H1767 0.950 . S
C1775 C1773 1.327 . S
C1776 C1764 1.349 . S
C1776 H1770 0.950 . S
C1776 C1777 1.327 . S
C1777 H1771 0.950 . S
C1777 C1776 1.327 . S
C1777 C1781 1.429 . S
C1778 C1761 1.574 . S
C1778 H1772 0.949 . S
C1778 C1782 1.368 . S
C1779 C1760 1.429 . S
C1779 C1773 1.429 . S
C1779 C1780 1.523 . S
C1780 C1761 1.368 . S
C1780 C1774 1.368 . S
C1780 C1779 1.523 . S
C1781 C1765 1.429 . S
C1781 C1777 1.429 . S
C1781 C1782 1.523 . S
C1782 C1766 1.368 . S
C1782 C1778 1.368 . S
C1782 C1781 1.523 . S
H1783 C1758 0.950 . S
H1784 C1760 0.950 . S
H1785 C1761 0.949 . S
H1786 C1763 0.950 . S
H1787 C1765 0.950 . S
C1788 C1789 1.349 . S
C1788 C1790 1.327 . S
C1788 H1813 0.950 . S
C1789 C1788 1.349 . S
C1789 C1805 1.349 . S
C1790 C1788 1.327 . S
C1790 C1809 1.429 . S
C1790 H1814 0.950 . S
C1791 C1808 1.574 . S
C1791 C1810 1.368 . S
C1791 H1815 0.949 . S
H1792 C1796 0.949 . S
C1793 C1794 1.349 . S
C1793 C1795 1.327 . S
C1793 H1816 0.950 . S
C1794 C1793 1.349 . S
C1794 C1806 1.349 . S
C1795 C1793 1.327 . S
C1795 C1811 1.429 . S
C1795 H1817 0.950 . S
C1796 H1792 0.949 . S
C1796 C1804 1.574 . S
C1796 C1812 1.368 . S
H1797 C1805 0.950 . S
H1798 C1803 0.950 . S
H1799 C1804 0.949 . S
H1800 C1806 0.950 . S
H1801 C1807 0.950 . S
H1802 C1808 0.949 . S
C1803 H1798 0.950 . S
C1803 C1805 1.327 . S
C1803 C1809 1.429 . S
C1804 C1796 1.574 . S
C1804 H1799 0.949 . S
C1804 C1810 1.368 . S
C1805 C1789 1.349 . S
C1805 H1797 0.950 . S
C1805 C1803 1.327 . S
C1806 C1794 1.349 . S
C1806 H1800 0.950 . S
C1806 C1807 1.327 . S
C1807 H1801 0.950 . S
C1807 C1806 1.327 . S
C1807 C1811 1.429 . S
C1808 C1791 1.574 . S
C1808 H1802 0.949 . S
C1808 C1812 1.368 . S
C1809 C1790 1.429 . S
C1809 C1803 1.429 . S
C1809 C1810 1.523 . S
C1810 C1791 1.368 . S
C1810 C1804 1.368 . S
C1810 C1809 1.523 . S
C1811 C1795 1.429 . S
C1811 C1807 1.429 . S
C1811 C1812 1.523 . S
C1812 C1796 1.368 . S
C1812 C1808 1.368 . S
C1812 C1811 1.523 . S
H1813 C1788 0.950 . S
H1814 C1790 0.950 . S
H1815 C1791 0.949 . S
H1816 C1793 0.950 . S
H1817 C1795 0.950 . S
C1818 C1819 1.349 . S
C1818 C1820 1.327 . S
C1818 H1843 0.950 . S
C1819 C1818 1.349 . S
C1819 C1835 1.349 . S
C1820 C1818 1.327 . S
C1820 C1839 1.429 . S
C1820 H1844 0.950 . S
C1821 C1838 1.574 . S
C1821 C1840 1.368 . S
C1821 H1845 0.949 . S
H1822 C1826 0.949 . S
C1823 C1824 1.349 . S
C1823 C1825 1.327 . S
C1823 H1846 0.950 . S
C1824 C1823 1.349 . S
C1824 C1836 1.349 . S
C1825 C1823 1.327 . S
C1825 C1841 1.429 . S
C1825 H1847 0.950 . S
C1826 H1822 0.949 . S
C1826 C1834 1.574 . S
C1826 C1842 1.368 . S
H1827 C1835 0.950 . S
H1828 C1833 0.950 . S
H1829 C1834 0.949 . S
H1830 C1836 0.950 . S
H1831 C1837 0.950 . S
H1832 C1838 0.949 . S
C1833 H1828 0.950 . S
C1833 C1835 1.327 . S
C1833 C1839 1.429 . S
C1834 C1826 1.574 . S
C1834 H1829 0.949 . S
C1834 C1840 1.368 . S
C1835 C1819 1.349 . S
C1835 H1827 0.950 . S
C1835 C1833 1.327 . S
C1836 C1824 1.349 . S
C1836 H1830 0.950 . S
C1836 C1837 1.327 . S
C1837 H1831 0.950 . S
C1837 C1836 1.327 . S
C1837 C1841 1.429 . S
C1838 C1821 1.574 . S
C1838 H1832 0.949 . S
C1838 C1842 1.368 . S
C1839 C1820 1.429 . S
C1839 C1833 1.429 . S
C1839 C1840 1.523 . S
C1840 C1821 1.368 . S
C1840 C1834 1.368 . S
C1840 C1839 1.523 . S
C1841 C1825 1.429 . S
C1841 C1837 1.429 . S
C1841 C1842 1.523 . S
C1842 C1826 1.368 . S
C1842 C1838 1.368 . S
C1842 C1841 1.523 . S
H1843 C1818 0.950 . S
H1844 C1820 0.950 . S
H1845 C1821 0.949 . S
H1846 C1823 0.950 . S
H1847 C1825 0.950 . S
C1848 C1849 1.349 . S
C1848 C1850 1.327 . S
C1848 H1873 0.950 . S
C1849 C1848 1.349 . S
C1849 C1865 1.349 . S
C1850 C1848 1.327 . S
C1850 C1869 1.429 . S
C1850 H1874 0.950 . S
C1851 C1868 1.574 . S
C1851 C1870 1.368 . S
C1851 H1875 0.949 . S
H1852 C1856 0.949 . S
C1853 C1854 1.349 . S
C1853 C1855 1.327 . S
C1853 H1876 0.950 . S
C1854 C1853 1.349 . S
C1854 C1866 1.349 . S
C1855 C1853 1.327 . S
C1855 C1871 1.429 . S
C1855 H1877 0.950 . S
C1856 H1852 0.949 . S
C1856 C1864 1.574 . S
C1856 C1872 1.368 . S
H1857 C1865 0.950 . S
H1858 C1863 0.950 . S
H1859 C1864 0.949 . S
H1860 C1866 0.950 . S
H1861 C1867 0.950 . S
H1862 C1868 0.949 . S
C1863 H1858 0.950 . S
C1863 C1865 1.327 . S
C1863 C1869 1.429 . S
C1864 C1856 1.574 . S
C1864 H1859 0.949 . S
C1864 C1870 1.368 . S
C1865 C1849 1.349 . S
C1865 H1857 0.950 . S
C1865 C1863 1.327 . S
C1866 C1854 1.349 . S
C1866 H1860 0.950 . S
C1866 C1867 1.327 . S
C1867 H1861 0.950 . S
C1867 C1866 1.327 . S
C1867 C1871 1.429 . S
C1868 C1851 1.574 . S
C1868 H1862 0.949 . S
C1868 C1872 1.368 . S
C1869 C1850 1.429 . S
C1869 C1863 1.429 . S
C1869 C1870 1.523 . S
C1870 C1851 1.368 . S
C1870 C1864 1.368 . S
C1870 C1869 1.523 . S
C1871 C1855 1.429 . S
C1871 C1867 1.429 . S
C1871 C1872 1.523 . S
C1872 C1856 1.368 . S
C1872 C1868 1.368 . S
C1872 C1871 1.523 . S
H1873 C1848 0.950 . S
H1874 C1850 0.950 . S
H1875 C1851 0.949 . S
H1876 C1853 0.950 . S
H1877 C1855 0.950 . S
C1878 C1879 1.349 . S
C1878 C1880 1.327 . S
C1878 H1903 0.950 . S
C1879 C1878 1.349 . S
C1879 C1895 1.349 . S
C1880 C1878 1.327 . S
C1880 C1899 1.429 . S
C1880 H1904 0.950 . S
C1881 C1898 1.574 . S
C1881 C1900 1.368 . S
C1881 H1905 0.949 . S
H1882 C1886 0.949 . S
C1883 C1884 1.349 . S
C1883 C1885 1.327 . S
C1883 H1906 0.950 . S
C1884 C1883 1.349 . S
C1884 C1896 1.349 . S
C1885 C1883 1.327 . S
C1885 C1901 1.429 . S
C1885 H1907 0.950 . S
C1886 H1882 0.949 . S
C1886 C1894 1.574 . S
C1886 C1902 1.368 . S
H1887 C1895 0.950 . S
H1888 C1893 0.950 . S
H1889 C1894 0.949 . S
H1890 C1896 0.950 . S
H1891 C1897 0.950 . S
H1892 C1898 0.949 . S
C1893 H1888 0.950 . S
C1893 C1895 1.327 . S
C1893 C1899 1.429 . S
C1894 C1886 1.574 . S
C1894 H1889 0.949 . S
C1894 C1900 1.368 . S
C1895 C1879 1.349 . S
C1895 H1887 0.950 . S
C1895 C1893 1.327 . S
C1896 C1884 1.349 . S
C1896 H1890 0.950 . S
C1896 C1897 1.327 . S
C1897 H1891 0.950 . S
C1897 C1896 1.327 . S
C1897 C1901 1.429 . S
C1898 C1881 1.574 . S
C1898 H1892 0.949 . S
C1898 C1902 1.368 . S
C1899 C1880 1.429 . S
C1899 C1893 1.429 . S
C1899 C1900 1.523 . S
C1900 C1881 1.368 . S
C1900 C1894 1.368 . S
C1900 C1899 1.523 . S
C1901 C1885 1.429 . S
C1901 C1897 1.429 . S
C1901 C1902 1.523 . S
C1902 C1886 1.368 . S
C1902 C1898 1.368 . S
C1902 C1901 1.523 . S
H1903 C1878 0.950 . S
H1904 C1880 0.950 . S
H1905 C1881 0.949 . S
H1906 C1883 0.950 . S
H1907 C1885 0.950 . S
C1908 C1909 1.349 . S
C1908 C1910 1.327 . S
C1908 H1933 0.950 . S
C1909 C1908 1.349 . S
C1909 C1925 1.349 . S
C1910 C1908 1.327 . S
C1910 C1929 1.429 . S
C1910 H1934 0.950 . S
C1911 C1928 1.574 . S
C1911 C1930 1.368 . S
C1911 H1935 0.949 . S
H1912 C1916 0.949 . S
C1913 C1914 1.349 . S
C1913 C1915 1.327 . S
C1913 H1936 0.950 . S
C1914 C1913 1.349 . S
C1914 C1926 1.349 . S
C1915 C1913 1.327 . S
C1915 C1931 1.429 . S
C1915 H1937 0.950 . S
C1916 H1912 0.949 . S
C1916 C1924 1.574 1_655 S
C1916 C1932 1.368 . S
H1917 C1925 0.950 . S
H1918 C1923 0.950 . S
H1919 C1924 0.949 . S
H1920 C1926 0.950 . S
H1921 C1927 0.950 . S
H1922 C1928 0.949 . S
C1923 H1918 0.950 . S
C1923 C1925 1.327 . S
C1923 C1929 1.429 . S
C1924 C1916 1.574 1_455 S
C1924 H1919 0.949 . S
C1924 C1930 1.368 . S
C1925 C1909 1.349 . S
C1925 H1917 0.950 . S
C1925 C1923 1.327 . S
C1926 C1914 1.349 . S
C1926 H1920 0.950 . S
C1926 C1927 1.327 . S
C1927 H1921 0.950 . S
C1927 C1926 1.327 . S
C1927 C1931 1.429 . S
C1928 C1911 1.574 . S
C1928 H1922 0.949 . S
C1928 C1932 1.368 1_455 S
C1929 C1910 1.429 . S
C1929 C1923 1.429 . S
C1929 C1930 1.523 . S
C1930 C1911 1.368 . S
C1930 C1924 1.368 . S
C1930 C1929 1.523 . S
C1931 C1915 1.429 . S
C1931 C1927 1.429 . S
C1931 C1932 1.523 . S
C1932 C1916 1.368 . S
C1932 C1928 1.368 1_655 S
C1932 C1931 1.523 . S
H1933 C1908 0.950 . S
H1934 C1910 0.950 . S
H1935 C1911 0.949 . S
H1936 C1913 0.950 . S
H1937 C1915 0.950 . S
C1938 C1939 1.349 . S
C1938 C1940 1.327 . S
C1938 H1963 0.950 . S
C1939 C1938 1.349 . S
C1939 C1955 1.349 . S
C1940 C1938 1.327 . S
C1940 C1959 1.429 . S
C1940 H1964 0.950 . S
C1941 C1958 1.574 . S
C1941 C1960 1.368 . S
C1941 H1965 0.949 . S
H1942 C1946 0.949 . S
C1943 C1944 1.349 . S
C1943 C1945 1.327 . S
C1943 H1966 0.950 . S
C1944 C1943 1.349 . S
C1944 C1956 1.349 . S
C1945 C1943 1.327 . S
C1945 C1961 1.429 . S
C1945 H1967 0.950 . S
C1946 H1942 0.949 . S
C1946 C1954 1.574 . S
C1946 C1962 1.368 . S
H1947 C1955 0.950 . S
H1948 C1953 0.950 . S
H1949 C1954 0.949 . S
H1950 C1956 0.950 . S
H1951 C1957 0.950 . S
H1952 C1958 0.949 . S
C1953 H1948 0.950 . S
C1953 C1955 1.327 . S
C1953 C1959 1.429 . S
C1954 C1946 1.574 . S
C1954 H1949 0.949 . S
C1954 C1960 1.368 . S
C1955 C1939 1.349 . S
C1955 H1947 0.950 . S
C1955 C1953 1.327 . S
C1956 C1944 1.349 . S
C1956 H1950 0.950 . S
C1956 C1957 1.327 . S
C1957 H1951 0.950 . S
C1957 C1956 1.327 . S
C1957 C1961 1.429 . S
C1958 C1941 1.574 . S
C1958 H1952 0.949 . S
C1958 C1962 1.368 . S
C1959 C1940 1.429 . S
C1959 C1953 1.429 . S
C1959 C1960 1.523 . S
C1960 C1941 1.368 . S
C1960 C1954 1.368 . S
C1960 C1959 1.523 . S
C1961 C1945 1.429 . S
C1961 C1957 1.429 . S
C1961 C1962 1.523 . S
C1962 C1946 1.368 . S
C1962 C1958 1.368 . S
C1962 C1961 1.523 . S
H1963 C1938 0.950 . S
H1964 C1940 0.950 . S
H1965 C1941 0.949 . S
H1966 C1943 0.950 . S
H1967 C1945 0.950 . S
C1968 C1969 1.349 . S
C1968 C1970 1.327 . S
C1968 H1993 0.950 . S
C1969 C1968 1.349 . S
C1969 C1985 1.349 . S
C1970 C1968 1.327 . S
C1970 C1989 1.429 . S
C1970 H1994 0.950 . S
C1971 C1988 1.574 . S
C1971 C1990 1.368 . S
C1971 H1995 0.949 . S
H1972 C1976 0.949 . S
C1973 C1974 1.349 . S
C1973 C1975 1.327 . S
C1973 H1996 0.950 . S
C1974 C1973 1.349 . S
C1974 C1986 1.349 . S
C1975 C1973 1.327 . S
C1975 C1991 1.429 . S
C1975 H1997 0.950 . S
C1976 H1972 0.949 . S
C1976 C1984 1.574 . S
C1976 C1992 1.368 . S
H1977 C1985 0.950 . S
H1978 C1983 0.950 . S
H1979 C1984 0.949 . S
H1980 C1986 0.950 . S
H1981 C1987 0.950 . S
H1982 C1988 0.949 . S
C1983 H1978 0.950 . S
C1983 C1985 1.327 . S
C1983 C1989 1.429 . S
C1984 C1976 1.574 . S
C1984 H1979 0.949 . S
C1984 C1990 1.368 . S
C1985 C1969 1.349 . S
C1985 H1977 0.950 . S
C1985 C1983 1.327 . S
C1986 C1974 1.349 . S
C1986 H1980 0.950 . S
C1986 C1987 1.327 . S
C1987 H1981 0.950 . S
C1987 C1986 1.327 . S
C1987 C1991 1.429 . S
C1988 C1971 1.574 . S
C1988 H1982 0.949 . S
C1988 C1992 1.368 . S
C1989 C1970 1.429 . S
C1989 C1983 1.429 . S
C1989 C1990 1.523 . S
C1990 C1971 1.368 . S
C1990 C1984 1.368 . S
C1990 C1989 1.523 . S
C1991 C1975 1.429 . S
C1991 C1987 1.429 . S
C1991 C1992 1.523 . S
C1992 C1976 1.368 . S
C1992 C1988 1.368 . S
C1992 C1991 1.523 . S
H1993 C1968 0.950 . S
H1994 C1970 0.950 . S
H1995 C1971 0.949 . S
H1996 C1973 0.950 . S
H1997 C1975 0.950 . S
C1998 C1999 1.349 . S
C1998 C2000 1.327 . S
C1998 H2023 0.950 . S
C1999 C1998 1.349 . S
C1999 C2015 1.349 . S
C2000 C1998 1.327 . S
C2000 C2019 1.429 . S
C2000 H2024 0.950 . S
C2001 C2018 1.574 . S
C2001 C2020 1.368 . S
C2001 H2025 0.949 . S
H2002 C2006 0.949 . S
C2003 C2004 1.349 . S
C2003 C2005 1.327 . S
C2003 H2026 0.950 . S
C2004 C2003 1.349 . S
C2004 C2016 1.349 . S
C2005 C2003 1.327 . S
C2005 C2021 1.429 . S
C2005 H2027 0.950 . S
C2006 H2002 0.949 . S
C2006 C2014 1.574 . S
C2006 C2022 1.368 . S
H2007 C2015 0.950 . S
H2008 C2013 0.950 . S
H2009 C2014 0.949 . S
H2010 C2016 0.950 . S
H2011 C2017 0.950 . S
H2012 C2018 0.949 . S
C2013 H2008 0.950 . S
C2013 C2015 1.327 . S
C2013 C2019 1.429 . S
C2014 C2006 1.574 . S
C2014 H2009 0.949 . S
C2014 C2020 1.368 . S
C2015 C1999 1.349 . S
C2015 H2007 0.950 . S
C2015 C2013 1.327 . S
C2016 C2004 1.349 . S
C2016 H2010 0.950 . S
C2016 C2017 1.327 . S
C2017 H2011 0.950 . S
C2017 C2016 1.327 . S
C2017 C2021 1.429 . S
C2018 C2001 1.574 . S
C2018 H2012 0.949 . S
C2018 C2022 1.368 . S
C2019 C2000 1.429 . S
C2019 C2013 1.429 . S
C2019 C2020 1.523 . S
C2020 C2001 1.368 . S
C2020 C2014 1.368 . S
C2020 C2019 1.523 . S
C2021 C2005 1.429 . S
C2021 C2017 1.429 . S
C2021 C2022 1.523 . S
C2022 C2006 1.368 . S
C2022 C2018 1.368 . S
C2022 C2021 1.523 . S
H2023 C1998 0.950 . S
H2024 C2000 0.950 . S
H2025 C2001 0.949 . S
H2026 C2003 0.950 . S
H2027 C2005 0.950 . S
C2028 C2029 1.349 . S
C2028 C2030 1.327 . S
C2028 H2053 0.950 . S
C2029 C2028 1.349 . S
C2029 C2045 1.349 . S
C2030 C2028 1.327 . S
C2030 C2049 1.429 . S
C2030 H2054 0.950 . S
C2031 C2048 1.574 . S
C2031 C2050 1.368 . S
C2031 H2055 0.949 . S
H2032 C2036 0.949 . S
C2033 C2034 1.349 . S
C2033 C2035 1.327 . S
C2033 H2056 0.950 . S
C2034 C2033 1.349 . S
C2034 C2046 1.349 . S
C2035 C2033 1.327 . S
C2035 C2051 1.429 . S
C2035 H2057 0.950 . S
C2036 H2032 0.949 . S
C2036 C2044 1.574 . S
C2036 C2052 1.368 . S
H2037 C2045 0.950 . S
H2038 C2043 0.950 . S
H2039 C2044 0.949 . S
H2040 C2046 0.950 . S
H2041 C2047 0.950 . S
H2042 C2048 0.949 . S
C2043 H2038 0.950 . S
C2043 C2045 1.327 . S
C2043 C2049 1.429 . S
C2044 C2036 1.574 . S
C2044 H2039 0.949 . S
C2044 C2050 1.368 . S
C2045 C2029 1.349 . S
C2045 H2037 0.950 . S
C2045 C2043 1.327 . S
C2046 C2034 1.349 . S
C2046 H2040 0.950 . S
C2046 C2047 1.327 . S
C2047 H2041 0.950 . S
C2047 C2046 1.327 . S
C2047 C2051 1.429 . S
C2048 C2031 1.574 . S
C2048 H2042 0.949 . S
C2048 C2052 1.368 . S
C2049 C2030 1.429 . S
C2049 C2043 1.429 . S
C2049 C2050 1.523 . S
C2050 C2031 1.368 . S
C2050 C2044 1.368 . S
C2050 C2049 1.523 . S
C2051 C2035 1.429 . S
C2051 C2047 1.429 . S
C2051 C2052 1.523 . S
C2052 C2036 1.368 . S
C2052 C2048 1.368 . S
C2052 C2051 1.523 . S
H2053 C2028 0.950 . S
H2054 C2030 0.950 . S
H2055 C2031 0.949 . S
H2056 C2033 0.950 . S
H2057 C2035 0.950 . S
C2058 C2059 1.349 . S
C2058 C2060 1.327 . S
C2058 H2083 0.950 . S
C2059 C2058 1.349 . S
C2059 C2075 1.349 . S
C2060 C2058 1.327 . S
C2060 C2079 1.429 . S
C2060 H2084 0.950 . S
C2061 C2078 1.574 . S
C2061 C2080 1.368 . S
C2061 H2085 0.949 . S
H2062 C2066 0.949 . S
C2063 C2064 1.349 . S
C2063 C2065 1.327 . S
C2063 H2086 0.950 . S
C2064 C2063 1.349 . S
C2064 C2076 1.349 . S
C2065 C2063 1.327 . S
C2065 C2081 1.429 . S
C2065 H2087 0.950 . S
C2066 H2062 0.949 . S
C2066 C2074 1.574 1_455 S
C2066 C2082 1.370 . S
H2067 C2075 0.950 . S
H2068 C2073 0.950 . S
H2069 C2074 0.949 . S
H2070 C2076 0.950 . S
H2071 C2077 0.950 . S
H2072 C2078 0.949 . S
C2073 H2068 0.950 . S
C2073 C2075 1.327 . S
C2073 C2079 1.429 . S
C2074 C2066 1.574 1_655 S
C2074 H2069 0.949 . S
C2074 C2080 1.368 . S
C2075 C2059 1.349 . S
C2075 H2067 0.950 . S
C2075 C2073 1.327 . S
C2076 C2064 1.349 . S
C2076 H2070 0.950 . S
C2076 C2077 1.327 . S
C2077 H2071 0.950 . S
C2077 C2076 1.327 . S
C2077 C2081 1.429 . S
C2078 C2061 1.574 . S
C2078 H2072 0.949 . S
C2078 C2082 1.346 1_655 S
C2079 C2060 1.429 . S
C2079 C2073 1.429 . S
C2079 C2080 1.523 . S
C2080 C2061 1.368 . S
C2080 C2074 1.368 . S
C2080 C2079 1.523 . S
C2081 C2065 1.429 . S
C2081 C2077 1.429 . S
C2081 C2082 1.550 . S
C2082 C2066 1.370 . S
C2082 C2078 1.346 1_455 S
C2082 C2081 1.550 . S
H2083 C2058 0.950 . S
H2084 C2060 0.950 . S
H2085 C2061 0.949 . S
H2086 C2063 0.950 . S
H2087 C2065 0.950 . S
C1009 C56 1.570 . S
C1014 C979 1.615 . S
C1039 C811 1.653 1_565 S
C1044 C140 1.608 . S
C1069 C223 1.621 1_554 S
C1074 C728 1.577 . S
C1099 C308 1.616 . S
C1104 C895 1.661 1_545 S
C1129 C392 1.611 . S
C1134 C896 1.611 . S
C1159 C475 1.634 . S
C1164 C980 1.591 . S
C1189 C812 1.618 . S
C1194 C560 1.615 1_556 S
C1219 C643 1.619 . S
C1224 C727 1.619 . S
C1249 C307 1.617 . S
C1254 C391 1.617 . S
C1279 C55 1.650 . S
C1284 C476 1.605 1_455 S
C1309 C139 1.631 1_655 S
C1314 C559 1.631 . S
C1339 C644 1.625 . S
C1344 C224 1.627 . S
C1369 C70 1.392 . S
C1374 C740 1.605 . S
C1399 C154 1.421 . S
C1404 C907 1.626 . S
C1429 C991 1.613 . S
C1434 C226 1.563 . S
C1459 C322 1.373 . S
C1464 C823 1.569 . S
C1489 C406 1.381 . S
C1494 C824 1.592 . S
C1519 C739 1.600 . S
C1524 C478 1.551 . S
C1549 C908 1.593 . S
C1554 C574 1.381 . S
C1579 C992 1.662 . S
C1584 C646 1.601 . S
C1609 C67 1.598 . S
C1614 C310 1.548 . S
C1639 C58 1.489 . S
C1644 C151 1.541 . S
C1669 C142 1.540 . S
C1674 C236 1.601 . S
C1699 C319 1.558 . S
C1704 C238 1.362 . S
C1729 C490 1.426 . S
C1734 C403 1.629 . S
C1759 C488 1.629 . S
C1764 C562 1.562 . S
C1789 C571 1.626 . S
C1794 C658 1.422 . S
C1819 C394 1.555 . S
C1824 C656 1.622 . S
C1849 C730 1.491 . S
C1854 C320 1.553 . S
C1879 C487 1.575 . S
C1884 C814 1.523 . S
C1909 C742 1.367 . S
C1914 C572 1.578 . S
C1939 C898 1.559 . S
C1944 C655 1.615 . S
C1969 C404 1.599 . S
C1974 C982 1.537 . S
C1999 C994 1.389 . S
C2004 C152 1.601 . S
C2029 C235 1.607 . S
C2034 C826 1.404 . S
C2059 C910 1.406 . S
C2064 C68 1.619 . S
