# Generated by pormake.
# Topology etf, (3)-cn, num edge types: 1
# Building blocks:
#     Node 0, Type 0, BuildingBlock: OLANEW_clean_sbu_2, # of connection points: 3
#     Node 1, Type 0, BuildingBlock: OLANEW_clean_sbu_2, # of connection points: 3
#     Node 2, Type 0, BuildingBlock: OLANEW_clean_sbu_2, # of connection points: 3
#     Node 3, Type 0, BuildingBlock: OLANEW_clean_sbu_2, # of connection points: 3
#     Node 4, Type 0, BuildingBlock: OLANEW_clean_sbu_2, # of connection points: 3
#     Node 5, Type 0, BuildingBlock: OLANEW_clean_sbu_2, # of connection points: 3
#     Node 6, Type 0, BuildingBlock: OLANEW_clean_sbu_2, # of connection points: 3
#     Node 7, Type 0, BuildingBlock: OLANEW_clean_sbu_2, # of connection points: 3
#     Node 8, Type 0, BuildingBlock: OLANEW_clean_sbu_2, # of connection points: 3
#     Node 9, Type 0, BuildingBlock: OLANEW_clean_sbu_2, # of connection points: 3
#     Node 10, Type 0, BuildingBlock: OLANEW_clean_sbu_2, # of connection points: 3
#     Node 11, Type 0, BuildingBlock: OLANEW_clean_sbu_2, # of connection points: 3
#     Node 12, Type 0, BuildingBlock: OLANEW_clean_sbu_2, # of connection points: 3
#     Node 13, Type 0, BuildingBlock: OLANEW_clean_sbu_2, # of connection points: 3
#     Node 14, Type 0, BuildingBlock: OLANEW_clean_sbu_2, # of connection points: 3
#     Node 15, Type 0, BuildingBlock: OLANEW_clean_sbu_2, # of connection points: 3
#     Node 16, Type 0, BuildingBlock: OLANEW_clean_sbu_2, # of connection points: 3
#     Node 17, Type 0, BuildingBlock: OLANEW_clean_sbu_2, # of connection points: 3
#     Node 18, Type 0, BuildingBlock: OLANEW_clean_sbu_2, # of connection points: 3
#     Node 19, Type 0, BuildingBlock: OLANEW_clean_sbu_2, # of connection points: 3
#     Node 20, Type 0, BuildingBlock: OLANEW_clean_sbu_2, # of connection points: 3
#     Node 21, Type 0, BuildingBlock: OLANEW_clean_sbu_2, # of connection points: 3
#     Node 22, Type 0, BuildingBlock: OLANEW_clean_sbu_2, # of connection points: 3
#     Node 23, Type 0, BuildingBlock: OLANEW_clean_sbu_2, # of connection points: 3
#     Node 24, Type 0, BuildingBlock: OLANEW_clean_sbu_2, # of connection points: 3
#     Node 25, Type 0, BuildingBlock: OLANEW_clean_sbu_2, # of connection points: 3
#     Node 26, Type 0, BuildingBlock: OLANEW_clean_sbu_2, # of connection points: 3
#     Node 27, Type 0, BuildingBlock: OLANEW_clean_sbu_2, # of connection points: 3
#     Node 28, Type 0, BuildingBlock: OLANEW_clean_sbu_2, # of connection points: 3
#     Node 29, Type 0, BuildingBlock: OLANEW_clean_sbu_2, # of connection points: 3
#     Node 30, Type 0, BuildingBlock: OLANEW_clean_sbu_2, # of connection points: 3
#     Node 31, Type 0, BuildingBlock: OLANEW_clean_sbu_2, # of connection points: 3
#     Node 32, Type 0, BuildingBlock: OLANEW_clean_sbu_2, # of connection points: 3
#     Node 33, Type 0, BuildingBlock: OLANEW_clean_sbu_2, # of connection points: 3
#     Node 34, Type 0, BuildingBlock: OLANEW_clean_sbu_2, # of connection points: 3
#     Node 35, Type 0, BuildingBlock: OLANEW_clean_sbu_2, # of connection points: 3
#     Edge 36, Type (0, 0), BuildingBlock: XUDNAN_clean_linker_2, # of connection points: 2
#     Edge 37, Type (0, 0), BuildingBlock: XUDNAN_clean_linker_2, # of connection points: 2
#     Edge 38, Type (0, 0), BuildingBlock: XUDNAN_clean_linker_2, # of connection points: 2
#     Edge 39, Type (0, 0), BuildingBlock: XUDNAN_clean_linker_2, # of connection points: 2
#     Edge 40, Type (0, 0), BuildingBlock: XUDNAN_clean_linker_2, # of connection points: 2
#     Edge 41, Type (0, 0), BuildingBlock: XUDNAN_clean_linker_2, # of connection points: 2
#     Edge 42, Type (0, 0), BuildingBlock: XUDNAN_clean_linker_2, # of connection points: 2
#     Edge 43, Type (0, 0), BuildingBlock: XUDNAN_clean_linker_2, # of connection points: 2
#     Edge 44, Type (0, 0), BuildingBlock: XUDNAN_clean_linker_2, # of connection points: 2
#     Edge 45, Type (0, 0), BuildingBlock: XUDNAN_clean_linker_2, # of connection points: 2
#     Edge 46, Type (0, 0), BuildingBlock: XUDNAN_clean_linker_2, # of connection points: 2
#     Edge 47, Type (0, 0), BuildingBlock: XUDNAN_clean_linker_2, # of connection points: 2
#     Edge 48, Type (0, 0), BuildingBlock: XUDNAN_clean_linker_2, # of connection points: 2
#     Edge 49, Type (0, 0), BuildingBlock: XUDNAN_clean_linker_2, # of connection points: 2
#     Edge 50, Type (0, 0), BuildingBlock: XUDNAN_clean_linker_2, # of connection points: 2
#     Edge 51, Type (0, 0), BuildingBlock: XUDNAN_clean_linker_2, # of connection points: 2
#     Edge 52, Type (0, 0), BuildingBlock: XUDNAN_clean_linker_2, # of connection points: 2
#     Edge 53, Type (0, 0), BuildingBlock: XUDNAN_clean_linker_2, # of connection points: 2
#     Edge 54, Type (0, 0), BuildingBlock: XUDNAN_clean_linker_2, # of connection points: 2
#     Edge 55, Type (0, 0), BuildingBlock: XUDNAN_clean_linker_2, # of connection points: 2
#     Edge 56, Type (0, 0), BuildingBlock: XUDNAN_clean_linker_2, # of connection points: 2
#     Edge 57, Type (0, 0), BuildingBlock: XUDNAN_clean_linker_2, # of connection points: 2
#     Edge 58, Type (0, 0), BuildingBlock: XUDNAN_clean_linker_2, # of connection points: 2
#     Edge 59, Type (0, 0), BuildingBlock: XUDNAN_clean_linker_2, # of connection points: 2
#     Edge 60, Type (0, 0), BuildingBlock: XUDNAN_clean_linker_2, # of connection points: 2
#     Edge 61, Type (0, 0), BuildingBlock: XUDNAN_clean_linker_2, # of connection points: 2
#     Edge 62, Type (0, 0), BuildingBlock: XUDNAN_clean_linker_2, # of connection points: 2
#     Edge 63, Type (0, 0), BuildingBlock: XUDNAN_clean_linker_2, # of connection points: 2
#     Edge 64, Type (0, 0), BuildingBlock: XUDNAN_clean_linker_2, # of connection points: 2
#     Edge 65, Type (0, 0), BuildingBlock: XUDNAN_clean_linker_2, # of connection points: 2
#     Edge 66, Type (0, 0), BuildingBlock: XUDNAN_clean_linker_2, # of connection points: 2
#     Edge 67, Type (0, 0), BuildingBlock: XUDNAN_clean_linker_2, # of connection points: 2
#     Edge 68, Type (0, 0), BuildingBlock: XUDNAN_clean_linker_2, # of connection points: 2
#     Edge 69, Type (0, 0), BuildingBlock: XUDNAN_clean_linker_2, # of connection points: 2
#     Edge 70, Type (0, 0), BuildingBlock: XUDNAN_clean_linker_2, # of connection points: 2
#     Edge 71, Type (0, 0), BuildingBlock: XUDNAN_clean_linker_2, # of connection points: 2
#     Edge 72, Type (0, 0), BuildingBlock: XUDNAN_clean_linker_2, # of connection points: 2
#     Edge 73, Type (0, 0), BuildingBlock: XUDNAN_clean_linker_2, # of connection points: 2
#     Edge 74, Type (0, 0), BuildingBlock: XUDNAN_clean_linker_2, # of connection points: 2
#     Edge 75, Type (0, 0), BuildingBlock: XUDNAN_clean_linker_2, # of connection points: 2
#     Edge 76, Type (0, 0), BuildingBlock: XUDNAN_clean_linker_2, # of connection points: 2
#     Edge 77, Type (0, 0), BuildingBlock: XUDNAN_clean_linker_2, # of connection points: 2
#     Edge 78, Type (0, 0), BuildingBlock: XUDNAN_clean_linker_2, # of connection points: 2
#     Edge 79, Type (0, 0), BuildingBlock: XUDNAN_clean_linker_2, # of connection points: 2
#     Edge 80, Type (0, 0), BuildingBlock: XUDNAN_clean_linker_2, # of connection points: 2
#     Edge 81, Type (0, 0), BuildingBlock: XUDNAN_clean_linker_2, # of connection points: 2
#     Edge 82, Type (0, 0), BuildingBlock: XUDNAN_clean_linker_2, # of connection points: 2
#     Edge 83, Type (0, 0), BuildingBlock: XUDNAN_clean_linker_2, # of connection points: 2
#     Edge 84, Type (0, 0), BuildingBlock: XUDNAN_clean_linker_2, # of connection points: 2
#     Edge 85, Type (0, 0), BuildingBlock: XUDNAN_clean_linker_2, # of connection points: 2
#     Edge 86, Type (0, 0), BuildingBlock: XUDNAN_clean_linker_2, # of connection points: 2
#     Edge 87, Type (0, 0), BuildingBlock: XUDNAN_clean_linker_2, # of connection points: 2
#     Edge 88, Type (0, 0), BuildingBlock: XUDNAN_clean_linker_2, # of connection points: 2
#     Edge 89, Type (0, 0), BuildingBlock: XUDNAN_clean_linker_2, # of connection points: 2
# Relax obj value: 0.001
# Max RMSD: 0.049
# Mean RMSD: 0.049
data_MOF--net-etf--node1-OLANEW_clean_sbu_2--edge1-XUDNAN_clean_linker_2
_symmetry_space_group_name_H-M    P1
_symmetry_Int_Tables_number       1
_symmetry_cell_setting            triclinic
loop_
_symmetry_equiv_pos_as_xyz
'x, y, z'
_cell_length_a     105.0155
_cell_length_b     104.97824
_cell_length_c     46.01317
_cell_angle_alpha  89.925056
_cell_angle_beta   90.020472
_cell_angle_gamma 120.00721
loop_
_atom_site_label
_atom_site_type_symbol
_atom_site_fract_x
_atom_site_fract_y
_atom_site_fract_z
_atom_type_partial_charge
O0 O 0.08086 0.28384 0.15514 0.0
Cd1 Cd 0.06862 0.27726 0.20259 0.0
O2 O 0.08183 0.30525 0.15309 0.0
Cd3 Cd 0.06521 0.29888 0.1869 0.0
O4 O 0.04246 0.28904 0.20163 0.0
C5 C 0.03289 0.28512 0.18158 0.0
O6 O 0.03733 0.2873 0.1544 0.0
C7 C 0.08531 0.29618 0.1427 0.0
C8 C 0.08852 0.29357 0.24652 0.0
O9 O 0.08737 0.2815 0.23741 0.0
O10 O 0.08013 0.29781 0.23518 0.0
O11 O 0.64801 0.7633 0.17672 0.0
Cd12 Cd 0.65253 0.75468 0.22283 0.0
O13 O 0.66582 0.76235 0.15347 0.0
Cd14 Cd 0.67169 0.75324 0.19027 0.0
O15 O 0.67907 0.74184 0.21941 0.0
C16 C 0.68742 0.73748 0.20891 0.0
O17 O 0.69124 0.74012 0.18142 0.0
C18 C 0.65547 0.76532 0.15369 0.0
C19 C 0.66742 0.77855 0.26001 0.0
O20 O 0.65335 0.77157 0.25851 0.0
O21 O 0.67447 0.77405 0.24433 0.0
O22 O 0.19365 0.88144 0.21458 0.0
Cd23 Cd 0.18474 0.88607 0.26016 0.0
O24 O 0.19978 0.90305 0.19567 0.0
Cd25 Cd 0.19447 0.91242 0.23281 0.0
O26 O 0.19661 0.93155 0.25599 0.0
C27 C 0.20548 0.94397 0.24479 0.0
O28 O 0.21251 0.94433 0.22089 0.0
C29 C 0.19875 0.89049 0.19354 0.0
C30 C 0.16522 0.85956 0.28738 0.0
O31 O 0.17905 0.86597 0.29257 0.0
O32 O 0.16062 0.86575 0.26952 0.0
O33 O 0.2962 0.09839 0.33272 0.0
Cd34 Cd 0.28787 0.0918 0.28248 0.0
O35 O 0.27366 0.08876 0.34973 0.0
Cd36 Cd 0.26318 0.07665 0.31012 0.0
O37 O 0.25025 0.05429 0.29318 0.0
C38 C 0.24024 0.04513 0.31002 0.0
O39 O 0.23798 0.04986 0.33483 0.0
C40 C 0.28748 0.09603 0.35386 0.0
C41 C 0.29027 0.11586 0.25169 0.0
O42 O 0.27852 0.10716 0.26568 0.0
O43 O 0.3009 0.11315 0.25218 0.0
O44 O 0.89148 0.20112 0.33127 0.0
Cd45 Cd 0.8962 0.19959 0.27974 0.0
O46 O 0.89149 0.22192 0.32514 0.0
Cd47 Cd 0.90225 0.22603 0.28294 0.0
O48 O 0.92081 0.23431 0.253 0.0
C49 C 0.93344 0.2397 0.26465 0.0
O50 O 0.93437 0.23978 0.29314 0.0
C51 C 0.88934 0.21118 0.34129 0.0
C52 C 0.87014 0.18998 0.24859 0.0
O53 O 0.87381 0.18079 0.25819 0.0
O54 O 0.87891 0.20369 0.25328 0.0
O55 O 0.78485 0.7046 0.3431 0.0
Cd56 Cd 0.7775 0.70909 0.29542 0.0
O57 O 0.77259 0.68051 0.33848 0.0
Cd58 Cd 0.76082 0.68211 0.30097 0.0
O59 O 0.74601 0.68882 0.28222 0.0
C60 C 0.73739 0.68984 0.30021 0.0
O61 O 0.73774 0.68639 0.32755 0.0
C62 C 0.78144 0.69192 0.35277 0.0
C63 C 0.7965 0.70899 0.25325 0.0
O64 O 0.79893 0.72102 0.26525 0.0
O65 O 0.78492 0.69707 0.26078 0.0
O66 O 0.89752 0.65353 0.83798 0.0
Cd67 Cd 0.90472 0.65904 0.78691 0.0
O68 O 0.90559 0.67679 0.84835 0.0
Cd69 Cd 0.91634 0.6851 0.80647 0.0
O70 O 0.9344 0.69714 0.77597 0.0
C71 C 0.94523 0.69495 0.77783 0.0
O72 O 0.94456 0.68519 0.79662 0.0
C73 C 0.89915 0.66336 0.85614 0.0
C74 C 0.88251 0.65956 0.75448 0.0
O75 O 0.8833 0.64779 0.75642 0.0
O76 O 0.89228 0.67107 0.76765 0.0
O77 O 0.33133 0.21033 0.80626 0.0
Cd78 Cd 0.33342 0.21115 0.7533 0.0
O79 O 0.31416 0.21601 0.79952 0.0
Cd80 Cd 0.29841 0.22311 0.81088 0.0
O81 O 0.28419 0.23274 0.80739 0.0
C82 C 0.28935 0.24496 0.79409 0.0
O83 O 0.3029 0.25125 0.78421 0.0
C84 C 0.32181 0.21311 0.81685 0.0
C85 C 0.34661 0.19601 0.73031 0.0
O86 O 0.3543 0.20967 0.73688 0.0
O87 O 0.33274 0.18946 0.73516 0.0
O88 O 0.79972 0.12817 0.82865 0.0
Cd89 Cd 0.80266 0.12057 0.78019 0.0
O90 O 0.79429 0.10747 0.85092 0.0
Cd91 Cd 0.794 0.09485 0.81306 0.0
O92 O 0.78578 0.07285 0.79502 0.0
C93 C 0.78351 0.0629 0.81346 0.0
O94 O 0.78675 0.06663 0.84086 0.0
C95 C 0.79656 0.12055 0.85177 0.0
C96 C 0.80909 0.14345 0.74127 0.0
O97 O 0.79578 0.13347 0.7464 0.0
O98 O 0.81939 0.14245 0.75411 0.0
O99 O 0.68211 0.91292 0.67132 0.0
Cd100 Cd 0.68657 0.91873 0.72304 0.0
O101 O 0.70572 0.9237 0.66111 0.0
Cd102 Cd 0.71306 0.93405 0.70355 0.0
O103 O 0.72468 0.9522 0.73401 0.0
C104 C 0.72996 0.96508 0.72353 0.0
O105 O 0.72798 0.96656 0.6958 0.0
C106 C 0.69238 0.91612 0.65309 0.0
C107 C 0.6786 0.8931 0.75463 0.0
O108 O 0.66941 0.89758 0.75036 0.0
O109 O 0.69161 0.90086 0.74429 0.0
O110 O 0.12441 0.79849 0.71702 0.0
Cd111 Cd 0.12617 0.8054 0.76821 0.0
O112 O 0.10121 0.79198 0.72174 0.0
Cd113 Cd 0.07813 0.78129 0.70838 0.0
O114 O 0.05416 0.76874 0.70552 0.0
C115 C 0.04761 0.75615 0.71753 0.0
O116 O 0.05552 0.7512 0.73016 0.0
C117 C 0.11168 0.79321 0.7059 0.0
C118 C 0.15444 0.82499 0.78808 0.0
O119 O 0.14919 0.81105 0.78967 0.0
O120 O 0.14643 0.82965 0.77648 0.0
O121 O 0.24074 0.33944 0.66039 0.0
Cd122 Cd 0.23932 0.32934 0.70907 0.0
O123 O 0.22299 0.31859 0.64278 0.0
Cd124 Cd 0.22291 0.30619 0.68103 0.0
O125 O 0.22847 0.29374 0.71157 0.0
C126 C 0.24189 0.2971 0.7128 0.0
O127 O 0.25152 0.30798 0.69658 0.0
C128 C 0.23219 0.33222 0.63957 0.0
C129 C 0.21727 0.33001 0.74186 0.0
O130 O 0.23056 0.3407 0.74278 0.0
O131 O 0.21446 0.31899 0.72567 0.0
O132 O 0.78116 0.64709 0.55121 0.0
Cd133 Cd 0.77396 0.63339 0.59712 0.0
O134 O 0.7832 0.66714 0.57085 0.0
Cd135 Cd 0.77071 0.65488 0.6088 0.0
O136 O 0.7504 0.63897 0.63029 0.0
C137 C 0.73888 0.63398 0.61475 0.0
O138 O 0.7401 0.63867 0.58784 0.0
C139 C 0.78481 0.66059 0.54915 0.0
C140 C 0.79811 0.64265 0.63415 0.0
O141 O 0.79421 0.63165 0.61715 0.0
O142 O 0.79056 0.64917 0.63375 0.0
O143 O 0.35063 0.10969 0.53439 0.0
Cd144 Cd 0.3664 0.11044 0.57429 0.0
O145 O 0.33044 0.09627 0.55971 0.0
Cd146 Cd 0.34214 0.08999 0.59051 0.0
O147 O 0.35545 0.08029 0.60343 0.0
C148 C 0.36098 0.07671 0.58262 0.0
O149 O 0.35839 0.07914 0.55582 0.0
C150 C 0.33676 0.10381 0.53713 0.0
C151 C 0.36853 0.13124 0.61463 0.0
O152 O 0.37834 0.13468 0.59491 0.0
O153 O 0.35796 0.1179 0.61573 0.0
O154 O 0.87022 0.24612 0.53695 0.0
Cd155 Cd 0.86753 0.25618 0.58283 0.0
O156 O 0.88564 0.24045 0.55749 0.0
Cd157 Cd 0.89238 0.25851 0.58828 0.0
O158 O 0.90749 0.28213 0.59324 0.0
C159 C 0.90364 0.2915 0.58673 0.0
O160 O 0.88996 0.28685 0.57906 0.0
C161 C 0.87735 0.23927 0.53629 0.0
C162 C 0.85076 0.23236 0.61955 0.0
O163 O 0.84467 0.23762 0.60306 0.0
O164 O 0.86482 0.23865 0.61933 0.0
O165 O 0.98124 0.44633 0.6105 0.0
Cd166 Cd 0.96661 0.43732 0.566 0.0
O167 O 0.00066 0.4485 0.58779 0.0
Cd168 Cd 0.98659 0.43086 0.55797 0.0
O169 O 0.97574 0.40692 0.55417 0.0
C170 C 0.96208 0.39861 0.55896 0.0
O171 O 0.95388 0.40456 0.56412 0.0
C172 C 0.99501 0.45111 0.60979 0.0
C173 C 0.97735 0.45964 0.52402 0.0
O174 O 0.96707 0.45783 0.54148 0.0
O175 O 0.98239 0.4508 0.52616 0.0
O176 O 0.5819 0.53222 0.6903 0.0
Cd177 Cd 0.59605 0.53196 0.64834 0.0
O178 O 0.5852 0.55398 0.67854 0.0
Cd179 Cd 0.60307 0.55866 0.64854 0.0
O180 O 0.62653 0.56875 0.63949 0.0
C181 C 0.63448 0.56897 0.66055 0.0
O182 O 0.62806 0.5627 0.68519 0.0
C183 C 0.57909 0.54255 0.69447 0.0
C184 C 0.57703 0.5213 0.60088 0.0
O185 O 0.57923 0.51262 0.61704 0.0
O186 O 0.58416 0.53508 0.60669 0.0
O187 O 0.49649 0.03783 0.60217 0.0
Cd188 Cd 0.50982 0.05102 0.55853 0.0
O189 O 0.47695 0.03697 0.58293 0.0
Cd190 Cd 0.45451 0.03286 0.58798 0.0
O191 O 0.43571 0.03565 0.59796 0.0
C192 C 0.42988 0.03929 0.5778 0.0
O193 O 0.43493 0.04064 0.55118 0.0
C194 C 0.48296 0.03395 0.60372 0.0
C195 C 0.52732 0.04054 0.53511 0.0
O196 O 0.53255 0.05107 0.55362 0.0
O197 O 0.51376 0.03487 0.52793 0.0
O198 O 0.54473 0.99547 0.08947 0.0
Cd199 Cd 0.54382 0.99553 0.03637 0.0
O200 O 0.56628 0.01532 0.08495 0.0
Cd201 Cd 0.58789 0.03234 0.10033 0.0
O202 O 0.61039 0.04879 0.11181 0.0
C203 C 0.61569 0.04919 0.13685 0.0
O204 O 0.60735 0.03956 0.15659 0.0
C205 C 0.55629 0.0057 0.10119 0.0
C206 C 0.52091 0.99845 0.01298 0.0
O207 O 0.51943 0.98571 0.01735 0.0
O208 O 0.53312 0.00977 0.0202 0.0
O209 O 0.97552 0.5117 0.08335 0.0
Cd210 Cd 0.97107 0.50398 0.0325 0.0
O211 O 0.96046 0.52009 0.07562 0.0
Cd212 Cd 0.94956 0.53253 0.08694 0.0
O213 O 0.94023 0.54671 0.09469 0.0
C214 C 0.93935 0.5507 0.12032 0.0
O215 O 0.94399 0.54603 0.14218 0.0
C216 C 0.96874 0.51804 0.09285 0.0
C217 C 0.98789 0.49216 0.01162 0.0
O218 O 0.99256 0.506 0.00991 0.0
O219 O 0.97539 0.48396 0.02372 0.0
O220 O 0.42765 0.4457 0.18226 0.0
Cd221 Cd 0.42129 0.4475 0.13186 0.0
O222 O 0.42611 0.42499 0.16876 0.0
Cd223 Cd 0.42562 0.40408 0.1751 0.0
O224 O 0.42287 0.38203 0.17422 0.0
C225 C 0.41005 0.37113 0.17023 0.0
O226 O 0.39897 0.37353 0.16753 0.0
C227 C 0.42867 0.43444 0.18851 0.0
C228 C 0.44499 0.46911 0.10038 0.0
O229 O 0.43527 0.47169 0.11125 0.0
O230 O 0.44354 0.45638 0.1045 0.0
O231 O 0.32303 0.22308 0.04842 0.0
Cd232 Cd 0.32952 0.22937 0.09957 0.0
O233 O 0.34606 0.23386 0.03387 0.0
Cd234 Cd 0.35471 0.24463 0.0756 0.0
O235 O 0.36446 0.26389 0.10395 0.0
C236 C 0.37787 0.27001 0.1116 0.0
O237 O 0.38577 0.26406 0.10377 0.0
C238 C 0.33241 0.22618 0.02823 0.0
C239 C 0.31714 0.20432 0.1348 0.0
O240 O 0.31022 0.21122 0.12932 0.0
O241 O 0.32995 0.20928 0.12367 0.0
O242 O 0.76178 0.12336 0.05877 0.0
Cd243 Cd 0.75245 0.12041 0.10835 0.0
O244 O 0.76128 0.14382 0.05139 0.0
Cd245 Cd 0.74646 0.13902 0.08821 0.0
O246 O 0.72433 0.12638 0.10627 0.0
C247 C 0.72128 0.12062 0.13145 0.0
O248 O 0.73202 0.12277 0.14908 0.0
C249 C 0.76491 0.13452 0.04301 0.0
C250 C 0.77616 0.13857 0.14392 0.0
O251 O 0.77263 0.12515 0.13951 0.0
O252 O 0.76821 0.14326 0.13219 0.0
O253 O 0.87936 0.67051 0.07366 0.0
Cd254 Cd 0.88046 0.67554 0.12567 0.0
O255 O 0.88412 0.65319 0.08579 0.0
Cd256 Cd 0.89045 0.63641 0.08022 0.0
O257 O 0.89825 0.62087 0.08743 0.0
C258 C 0.90049 0.61861 0.11359 0.0
O259 O 0.89795 0.62556 0.13451 0.0
C260 C 0.88172 0.66024 0.06607 0.0
C261 C 0.863 0.68714 0.1436 0.0
O262 O 0.87625 0.69557 0.13501 0.0
O263 O 0.85794 0.67321 0.14319 0.0
O264 O 0.42689 0.98977 0.80425 0.0
Cd265 Cd 0.41757 0.98489 0.85426 0.0
O266 O 0.43709 0.01387 0.80732 0.0
Cd267 Cd 0.42513 0.01178 0.84735 0.0
O268 O 0.40678 0.00373 0.8778 0.0
C269 C 0.39425 0.99429 0.86798 0.0
O270 O 0.39315 0.99025 0.84064 0.0
C271 C 0.43477 0.00249 0.79322 0.0
C272 C 0.44005 0.99148 0.89429 0.0
O273 O 0.43265 0.97857 0.88331 0.0
O274 O 0.43677 0.0012 0.88651 0.0
O275 O 0.05791 0.46972 0.80126 0.0
Cd276 Cd 0.06681 0.46582 0.84776 0.0
O277 O 0.03765 0.44815 0.80295 0.0
Cd278 Cd 0.04709 0.43949 0.83408 0.0
O279 O 0.05853 0.42754 0.84489 0.0
C280 C 0.06616 0.42652 0.82454 0.0
O281 O 0.06689 0.43289 0.79952 0.0
C282 C 0.04525 0.46072 0.79121 0.0
C283 C 0.04966 0.46736 0.89255 0.0
O284 O 0.06091 0.47899 0.88285 0.0
O285 O 0.0467 0.45498 0.88154 0.0
O286 O 0.53123 0.5585 0.88426 0.0
Cd287 Cd 0.52748 0.56959 0.92772 0.0
O288 O 0.53746 0.57765 0.85593 0.0
Cd289 Cd 0.53576 0.59193 0.88815 0.0
O290 O 0.54162 0.61404 0.90229 0.0
C291 C 0.5514 0.62444 0.88705 0.0
O292 O 0.55711 0.62115 0.8649 0.0
C293 C 0.53522 0.56468 0.85956 0.0
C294 C 0.51314 0.54806 0.97025 0.0
O295 O 0.50594 0.55206 0.95373 0.0
O296 O 0.52711 0.55438 0.96695 0.0
O297 O 0.62061 0.77841 0.94568 0.0
Cd298 Cd 0.61335 0.77426 0.89456 0.0
O299 O 0.63748 0.77213 0.93908 0.0
Cd300 Cd 0.62757 0.76083 0.89855 0.0
O301 O 0.61149 0.73799 0.88881 0.0
C302 C 0.60126 0.73179 0.9075 0.0
O303 O 0.60075 0.73971 0.92909 0.0
C304 C 0.63133 0.77724 0.95539 0.0
C305 C 0.63102 0.79956 0.8621 0.0
O306 O 0.61874 0.79718 0.87273 0.0
O307 O 0.63487 0.7899 0.86659 0.0
O308 O 0.24954 0.88031 0.00028 0.0
Cd309 Cd 0.26273 0.88444 0.95432 0.0
O310 O 0.25165 0.90224 0.99955 0.0
Cd311 Cd 0.26776 0.91068 0.9645 0.0
O312 O 0.28942 0.92554 0.94634 0.0
C313 C 0.29856 0.9352 0.96371 0.0
O314 O 0.29436 0.93551 0.99047 0.0
C315 C 0.24653 0.88962 0.01119 0.0
C316 C 0.24263 0.87615 0.90871 0.0
O317 O 0.24549 0.86685 0.92075 0.0
O318 O 0.24952 0.88946 0.91782 0.0
O319 O 0.13274 0.34755 0.9485 0.0
Cd320 Cd 0.13951 0.3612 0.90247 0.0
O321 O 0.1148 0.32752 0.92859 0.0
Cd322 Cd 0.1143 0.33998 0.89115 0.0
O323 O 0.1099 0.35547 0.86774 0.0
C324 C 0.10307 0.36063 0.88182 0.0
O325 O 0.09922 0.35638 0.90884 0.0
C326 C 0.12295 0.33403 0.95033 0.0
C327 C 0.15328 0.35094 0.86468 0.0
O328 O 0.16087 0.36165 0.88205 0.0
O329 O 0.13928 0.34518 0.86509 0.0
O330 O 0.20944 0.35834 0.43638 0.0
Cd331 Cd 0.20536 0.36347 0.38642 0.0
O332 O 0.23238 0.36868 0.42247 0.0
Cd333 Cd 0.25573 0.37548 0.42554 0.0
O334 O 0.27834 0.38091 0.41657 0.0
C335 C 0.28058 0.37517 0.39425 0.0
O336 O 0.26929 0.36621 0.37811 0.0
C337 C 0.2228 0.36265 0.44241 0.0
C338 C 0.17635 0.34851 0.36682 0.0
O339 O 0.18469 0.34291 0.36411 0.0
O340 O 0.18162 0.361 0.37953 0.0
O341 O 0.70277 0.89802 0.43619 0.0
Cd342 Cd 0.70863 0.89885 0.38468 0.0
O343 O 0.68407 0.90056 0.4235 0.0
Cd344 Cd 0.66607 0.90501 0.43068 0.0
O345 O 0.64931 0.9115 0.43091 0.0
C346 C 0.64602 0.91607 0.45368 0.0
O347 O 0.65271 0.9167 0.47822 0.0
C348 C 0.69173 0.8992 0.44339 0.0
C349 C 0.70335 0.87181 0.36343 0.0
O350 O 0.71604 0.88125 0.37324 0.0
O351 O 0.69315 0.87513 0.3639 0.0
O352 O 0.10089 0.75376 0.48802 0.0
Cd353 Cd 0.10327 0.74493 0.44036 0.0
O354 O 0.11284 0.74476 0.51173 0.0
Cd355 Cd 0.11268 0.73181 0.47443 0.0
O356 O 0.10809 0.71423 0.44349 0.0
C357 C 0.0971 0.70156 0.44845 0.0
O358 O 0.08904 0.69965 0.47164 0.0
C359 C 0.10648 0.75236 0.51149 0.0
C360 C 0.11302 0.768 0.40043 0.0
O361 O 0.09926 0.75907 0.40433 0.0
O362 O 0.12217 0.76585 0.41501 0.0
O363 O 0.99448 0.5571 0.31177 0.0
Cd364 Cd 0.00605 0.56656 0.35901 0.0
O365 O 0.01563 0.56545 0.28905 0.0
Cd366 Cd 0.02853 0.57937 0.3253 0.0
O367 O 0.04245 0.59961 0.34951 0.0
C368 C 0.05411 0.6094 0.33719 0.0
O369 O 0.05747 0.60667 0.31131 0.0
C370 C 0.00165 0.55804 0.28881 0.0
C371 C 0.00369 0.54354 0.39349 0.0
O372 O 0.99396 0.54749 0.39474 0.0
O373 O 0.0146 0.55059 0.37622 0.0
O374 O 0.46137 0.43762 0.40807 0.0
Cd375 Cd 0.46301 0.44062 0.4608 0.0
O376 O 0.43903 0.43384 0.41305 0.0
Cd377 Cd 0.41669 0.4274 0.39922 0.0
O378 O 0.39319 0.41896 0.39329 0.0
C379 C 0.38604 0.40937 0.37397 0.0
O380 O 0.39304 0.40481 0.3571 0.0
C381 C 0.44925 0.43489 0.39662 0.0
C382 C 0.49042 0.46241 0.48058 0.0
O383 O 0.48722 0.44893 0.47939 0.0
O384 O 0.48074 0.4656 0.472 0.0
O385 O 0.57819 0.99362 0.32278 0.0
Cd386 Cd 0.58151 0.9852 0.37025 0.0
O387 O 0.56366 0.97121 0.30653 0.0
Cd388 Cd 0.56791 0.96108 0.34396 0.0
O389 O 0.57842 0.95155 0.37008 0.0
C390 C 0.58065 0.95346 0.39729 0.0
O391 O 0.57606 0.96128 0.4114 0.0
C392 C 0.56995 0.98506 0.30289 0.0
C393 C 0.57377 0.99829 0.41418 0.0
O394 O 0.58717 0.00389 0.4059 0.0
O395 O 0.56408 0.98639 0.40198 0.0
H396 H 0.10164 0.32311 0.11675 0.0
H397 H 0.08699 0.27676 0.10553 0.0
H398 H 0.09772 0.28188 0.05624 0.0
H399 H 0.09357 0.32975 0.04799 0.0
H400 H 0.10945 0.34782 0.04395 0.0
H401 H 0.10236 0.34085 0.07959 0.0
H402 H 0.12787 0.3451 0.09549 0.0
H403 H 0.13509 0.35218 0.05985 0.0
H404 H 0.13662 0.33709 0.07462 0.0
H405 H 0.10617 0.29137 0.00573 0.0
H406 H 0.11378 0.30497 0.95912 0.0
H407 H 0.12466 0.34538 0.00426 0.0
C408 C 0.10098 0.31409 0.10417 0.0
C409 C 0.09347 0.29954 0.11494 0.0
C410 C 0.09278 0.28801 0.09779 0.0
C411 C 0.09883 0.29081 0.06975 0.0
C412 C 0.10581 0.30524 0.05947 0.0
C413 C 0.10717 0.31673 0.07636 0.0
C414 C 0.11448 0.33109 0.05966 0.0
C415 C 0.10436 0.33776 0.05768 0.0
C416 C 0.1294 0.34201 0.07322 0.0
C417 C 0.11643 0.32577 0.03034 0.0
C418 C 0.11139 0.31082 0.03067 0.0
C419 C 0.11053 0.30314 0.00536 0.0
C420 C 0.11482 0.31092 0.97902 0.0
C421 C 0.12006 0.32623 0.97832 0.0
C422 C 0.12113 0.33375 0.00439 0.0
H423 H 0.66645 0.76689 0.09906 0.0
H424 H 0.63604 0.77543 0.14753 0.0
H425 H 0.62886 0.78269 0.10203 0.0
H426 H 0.67736 0.79655 0.04447 0.0
H427 H 0.678 0.78525 0.01568 0.0
H428 H 0.68216 0.78266 0.05248 0.0
H429 H 0.6621 0.7551 0.04996 0.0
H430 H 0.65792 0.7576 0.01324 0.0
H431 H 0.64356 0.75018 0.04025 0.0
H432 H 0.62327 0.78666 0.05074 0.0
H433 H 0.61888 0.78585 0.99788 0.0
H434 H 0.65286 0.77452 0.9833 0.0
C435 C 0.6585 0.77057 0.10025 0.0
C436 C 0.65186 0.77065 0.12689 0.0
C437 C 0.6413 0.7753 0.12738 0.0
C438 C 0.63721 0.77952 0.10167 0.0
C439 C 0.64382 0.77909 0.0757 0.0
C440 C 0.65425 0.77474 0.07484 0.0
C441 C 0.65873 0.77395 0.04395 0.0
C442 C 0.67503 0.78528 0.03885 0.0
C443 C 0.65537 0.75828 0.03642 0.0
C444 C 0.64883 0.77805 0.02748 0.0
C445 C 0.64049 0.78123 0.04616 0.0
C446 C 0.62988 0.78439 0.0359 0.0
C447 C 0.62747 0.78391 0.00582 0.0
C448 C 0.63554 0.78015 0.9864 0.0
C449 C 0.6466 0.77757 0.99748 0.0
H450 H 0.2108 0.90777 0.1455 0.0
H451 H 0.19866 0.86481 0.18098 0.0
H452 H 0.20844 0.85925 0.13687 0.0
H453 H 0.20234 0.89646 0.07002 0.0
H454 H 0.21775 0.91321 0.05653 0.0
H455 H 0.20901 0.91335 0.09012 0.0
H456 H 0.23409 0.92444 0.11671 0.0
H457 H 0.2429 0.92432 0.08326 0.0
H458 H 0.24453 0.91508 0.11488 0.0
H459 H 0.22072 0.85899 0.08951 0.0
H460 H 0.23452 0.86411 0.04337 0.0
H461 H 0.23843 0.90726 0.03986 0.0
C462 C 0.21004 0.89711 0.14398 0.0
C463 C 0.20393 0.88671 0.16672 0.0
C464 C 0.20326 0.87295 0.16382 0.0
C465 C 0.20877 0.86968 0.13884 0.0
C466 C 0.21485 0.88027 0.11696 0.0
C467 C 0.21547 0.89369 0.11932 0.0
C468 C 0.22301 0.90343 0.09337 0.0
C469 C 0.21239 0.9068 0.07652 0.0
C470 C 0.23696 0.91765 0.10262 0.0
C471 C 0.22676 0.89349 0.07616 0.0
C472 C 0.2219 0.88014 0.08996 0.0
C473 C 0.22448 0.86937 0.07843 0.0
C474 C 0.23234 0.87238 0.05222 0.0
C475 C 0.23755 0.88608 0.03795 0.0
C476 C 0.23456 0.89666 0.0501 0.0
H477 H 0.3159 0.10699 0.37263 0.0
H478 H 0.27195 0.09422 0.40294 0.0
H479 H 0.28067 0.09769 0.45359 0.0
H480 H 0.32341 0.0881 0.42425 0.0
H481 H 0.34255 0.10159 0.42905 0.0
H482 H 0.33361 0.10054 0.39509 0.0
H483 H 0.34113 0.12804 0.39928 0.0
H484 H 0.35024 0.12922 0.43323 0.0
H485 H 0.33633 0.13447 0.43149 0.0
H486 H 0.29305 0.09886 0.50056 0.0
H487 H 0.30861 0.09878 0.54069 0.0
H488 H 0.34468 0.11125 0.48022 0.0
C489 C 0.3082 0.10535 0.38986 0.0
C490 C 0.29324 0.10037 0.38377 0.0
C491 C 0.28347 0.09807 0.40702 0.0
C492 C 0.28833 0.10005 0.4359 0.0
C493 C 0.30302 0.10446 0.4412 0.0
C494 C 0.31287 0.10727 0.41884 0.0
C495 C 0.32774 0.11066 0.43047 0.0
C496 C 0.33207 0.09956 0.41904 0.0
C497 C 0.33956 0.12654 0.42318 0.0
C498 C 0.32453 0.10874 0.46275 0.0
C499 C 0.31025 0.10532 0.4685 0.0
C500 C 0.30435 0.10183 0.49643 0.0
C501 C 0.31324 0.10174 0.51905 0.0
C502 C 0.32788 0.10512 0.51361 0.0
C503 C 0.33362 0.10889 0.48514 0.0
H504 H 0.87102 0.24339 0.48079 0.0
H505 H 0.88337 0.21679 0.53283 0.0
H506 H 0.88489 0.20444 0.4883 0.0
H507 H 0.85001 0.21567 0.42397 0.0
H508 H 0.857 0.22931 0.3955 0.0
H509 H 0.85461 0.23432 0.4317 0.0
H510 H 0.88197 0.25494 0.43254 0.0
H511 H 0.88445 0.24997 0.39647 0.0
H512 H 0.89609 0.25033 0.42565 0.0
H513 H 0.88696 0.19645 0.43788 0.0
H514 H 0.89111 0.19465 0.38556 0.0
H515 H 0.87869 0.22751 0.36673 0.0
C516 C 0.87365 0.23468 0.48288 0.0
C517 C 0.87689 0.23089 0.51022 0.0
C518 C 0.88075 0.21978 0.51204 0.0
C519 C 0.88157 0.21267 0.48692 0.0
C520 C 0.87859 0.21688 0.46018 0.0
C521 C 0.87476 0.22768 0.45801 0.0
C522 C 0.87369 0.23134 0.42661 0.0
C523 C 0.85789 0.22742 0.419 0.0
C524 C 0.88471 0.2476 0.41994 0.0
C525 C 0.87789 0.2212 0.41145 0.0
C526 C 0.88037 0.21272 0.43113 0.0
C527 C 0.88492 0.20293 0.42224 0.0
C528 C 0.88724 0.20198 0.39249 0.0
C529 C 0.88525 0.21096 0.37209 0.0
C530 C 0.88029 0.22049 0.38178 0.0
H531 H 0.77616 0.66649 0.38007 0.0
H532 H 0.79857 0.7139 0.39099 0.0
H533 H 0.80489 0.71113 0.44133 0.0
H534 H 0.75964 0.65751 0.44693 0.0
H535 H 0.76152 0.64155 0.4529 0.0
H536 H 0.76079 0.64734 0.41647 0.0
H537 H 0.78565 0.64889 0.40466 0.0
H538 H 0.78645 0.64304 0.44115 0.0
H539 H 0.80145 0.65996 0.42718 0.0
H540 H 0.80532 0.70306 0.49227 0.0
H541 H 0.8006 0.69026 0.53951 0.0
H542 H 0.77876 0.6482 0.49514 0.0
C543 C 0.78272 0.67633 0.39277 0.0
C544 C 0.78687 0.69041 0.38154 0.0
C545 C 0.7953 0.70299 0.39904 0.0
C546 C 0.79898 0.70154 0.42767 0.0
C547 C 0.79434 0.68746 0.43834 0.0
C548 C 0.78655 0.67508 0.42132 0.0
C549 C 0.7818 0.66115 0.43867 0.0
C550 C 0.76494 0.65132 0.43875 0.0
C551 C 0.78929 0.65277 0.42723 0.0
C552 C 0.78758 0.66761 0.46841 0.0
C553 C 0.79491 0.68281 0.46771 0.0
C554 C 0.79992 0.69118 0.493 0.0
C555 C 0.79714 0.68382 0.51973 0.0
C556 C 0.78949 0.66826 0.52091 0.0
C557 C 0.78498 0.66011 0.49483 0.0
H558 H 0.90003 0.68166 0.89941 0.0
H559 H 0.8873 0.63617 0.88205 0.0
H560 H 0.8806 0.63009 0.93377 0.0
H561 H 0.91644 0.6843 0.96767 0.0
H562 H 0.9101 0.6958 0.98364 0.0
H563 H 0.91308 0.69634 0.94504 0.0
H564 H 0.88625 0.69022 0.93576 0.0
H565 H 0.8832 0.68972 0.97437 0.0
H566 H 0.87129 0.67407 0.95224 0.0
H567 H 0.87644 0.62934 0.98817 0.0
H568 H 0.87453 0.63387 0.04029 0.0
H569 H 0.8901 0.67984 0.0214 0.0
C570 C 0.8957 0.67038 0.90634 0.0
C571 C 0.89419 0.65939 0.88663 0.0
C572 C 0.88852 0.64477 0.89671 0.0
C573 C 0.88469 0.64121 0.92605 0.0
C574 C 0.88652 0.65238 0.94496 0.0
C575 C 0.8918 0.66664 0.93543 0.0
C576 C 0.89309 0.6767 0.96015 0.0
C577 C 0.90913 0.68901 0.96437 0.0
C578 C 0.88285 0.68305 0.95534 0.0
C579 C 0.88789 0.66593 0.9852 0.0
C580 C 0.88414 0.65194 0.97606 0.0
C581 C 0.87937 0.64025 0.99555 0.0
C582 C 0.87849 0.64296 0.02516 0.0
C583 C 0.88241 0.65725 0.03492 0.0
C584 C 0.887 0.66879 0.01455 0.0
H585 H 0.34321 0.22118 0.8579 0.0
H586 H 0.2966 0.20535 0.84752 0.0
H587 H 0.29397 0.20592 0.90084 0.0
H588 H 0.3405 0.20118 0.92393 0.0
H589 H 0.35707 0.21601 0.93938 0.0
H590 H 0.35514 0.21388 0.90051 0.0
H591 H 0.36024 0.24063 0.89548 0.0
H592 H 0.36225 0.24286 0.93429 0.0
H593 H 0.34913 0.24623 0.91559 0.0
H594 H 0.29655 0.20834 0.95541 0.0
H595 H 0.30435 0.21389 0.00669 0.0
H596 H 0.3494 0.22857 0.98099 0.0
C597 C 0.33244 0.21777 0.8669 0.0
C598 C 0.32013 0.21339 0.84865 0.0
C599 C 0.30623 0.20908 0.86111 0.0
C600 C 0.30461 0.20921 0.89137 0.0
C601 C 0.317 0.2137 0.90877 0.0
C602 C 0.33066 0.21798 0.89697 0.0
C603 C 0.34234 0.22287 0.92031 0.0
C604 C 0.34916 0.21289 0.92107 0.0
C605 C 0.35418 0.23911 0.91617 0.0
C606 C 0.33313 0.22076 0.94711 0.0
C607 C 0.31852 0.21531 0.94005 0.0
C608 C 0.30796 0.2126 0.9612 0.0
C609 C 0.3125 0.21575 0.99028 0.0
C610 C 0.32749 0.22168 0.9979 0.0
C611 C 0.33786 0.22405 0.97594 0.0
H612 H 0.78959 0.10696 0.9049 0.0
H613 H 0.79896 0.14749 0.86145 0.0
H614 H 0.79369 0.15641 0.90704 0.0
H615 H 0.75951 0.10259 0.94491 0.0
H616 H 0.76359 0.09537 0.97693 0.0
H617 H 0.76956 0.09287 0.94185 0.0
H618 H 0.79646 0.10523 0.96031 0.0
H619 H 0.79055 0.10772 0.99556 0.0
H620 H 0.80475 0.12331 0.97624 0.0
H621 H 0.78525 0.15989 0.95624 0.0
H622 H 0.77472 0.15782 0.0052 0.0
H623 H 0.77114 0.11505 0.01602 0.0
C624 C 0.79079 0.11782 0.905 0.0
C625 C 0.79472 0.12653 0.87957 0.0
C626 C 0.79602 0.14063 0.88067 0.0
C627 C 0.79306 0.1458 0.90648 0.0
C628 C 0.78894 0.13679 0.931 0.0
C629 C 0.78791 0.12314 0.9305 0.0
C630 C 0.78249 0.11524 0.95926 0.0
C631 C 0.76792 0.10066 0.95549 0.0
C632 C 0.79427 0.11273 0.97369 0.0
C633 C 0.78028 0.12641 0.97582 0.0
C634 C 0.78415 0.13882 0.95927 0.0
C635 C 0.78235 0.1503 0.96952 0.0
C636 C 0.77633 0.14901 0.99733 0.0
C637 C 0.77215 0.1363 0.01451 0.0
C638 C 0.77435 0.12498 0.0036 0.0
H639 H 0.71138 0.91025 0.48785 0.0
H640 H 0.66471 0.88895 0.46906 0.0
H641 H 0.65961 0.89061 0.52096 0.0
H642 H 0.70797 0.89261 0.5572 0.0
H643 H 0.72301 0.90878 0.57334 0.0
H644 H 0.72286 0.90574 0.53479 0.0
H645 H 0.72542 0.93125 0.52488 0.0
H646 H 0.7256 0.93436 0.56338 0.0
H647 H 0.71227 0.93553 0.54053 0.0
H648 H 0.65977 0.89483 0.5752 0.0
H649 H 0.66521 0.9017 0.62698 0.0
H650 H 0.7118 0.92003 0.60964 0.0
C651 C 0.70008 0.90588 0.49469 0.0
C652 C 0.68846 0.89976 0.4744 0.0
C653 C 0.67382 0.89414 0.48412 0.0
C654 C 0.6708 0.89487 0.5136 0.0
C655 C 0.68256 0.90116 0.53301 0.0
C656 C 0.6969 0.90655 0.52393 0.0
C657 C 0.70759 0.91301 0.54895 0.0
C658 C 0.71584 0.90453 0.55386 0.0
C659 C 0.71835 0.92952 0.54414 0.0
C660 C 0.69705 0.91049 0.57357 0.0
C661 C 0.68265 0.90357 0.56403 0.0
C662 C 0.67101 0.90022 0.58292 0.0
C663 C 0.67421 0.90416 0.61229 0.0
C664 C 0.68893 0.91141 0.6224 0.0
C665 C 0.70043 0.9145 0.60267 0.0
H666 H 0.1245 0.78007 0.67602 0.0
H667 H 0.09329 0.79545 0.66692 0.0
H668 H 0.08864 0.78678 0.61603 0.0
H669 H 0.1398 0.7897 0.60374 0.0
H670 H 0.14161 0.7736 0.59974 0.0
H671 H 0.14261 0.7812 0.6353 0.0
H672 H 0.12152 0.75596 0.65305 0.0
H673 H 0.12045 0.74829 0.61755 0.0
H674 H 0.1043 0.74722 0.63365 0.0
H675 H 0.08763 0.77671 0.56608 0.0
H676 H 0.08961 0.76512 0.52098 0.0
H677 H 0.12109 0.75577 0.56299 0.0
C678 C 0.11672 0.78164 0.66323 0.0
C679 C 0.10908 0.78822 0.67541 0.0
C680 C 0.09897 0.79008 0.65815 0.0
C681 C 0.09637 0.78533 0.62918 0.0
C682 C 0.10395 0.77872 0.61788 0.0
C683 C 0.11389 0.77682 0.63438 0.0
C684 C 0.12035 0.7691 0.61719 0.0
C685 C 0.13708 0.779 0.61379 0.0
C686 C 0.11642 0.75426 0.6312 0.0
C687 C 0.11251 0.76697 0.58845 0.0
C688 C 0.10318 0.77269 0.58925 0.0
C689 C 0.09487 0.77217 0.56521 0.0
C690 C 0.09609 0.76558 0.53967 0.0
C691 C 0.10547 0.75949 0.53845 0.0
C692 C 0.11376 0.76024 0.56325 0.0
H693 H 0.21233 0.32204 0.59463 0.0
H694 H 0.25443 0.35888 0.62074 0.0
H695 H 0.2567 0.3706 0.57298 0.0
H696 H 0.22148 0.32055 0.52042 0.0
H697 H 0.2037 0.3162 0.50656 0.0
H698 H 0.20534 0.31071 0.54283 0.0
H699 H 0.19259 0.32446 0.56352 0.0
H700 H 0.19085 0.32994 0.5273 0.0
H701 H 0.19995 0.34366 0.55508 0.0
H702 H 0.25477 0.3779 0.52176 0.0
H703 H 0.24798 0.38104 0.47192 0.0
H704 H 0.20682 0.33986 0.4798 0.0
C705 C 0.22202 0.33258 0.59034 0.0
C706 C 0.23324 0.33952 0.6114 0.0
C707 C 0.24568 0.35337 0.60499 0.0
C708 C 0.24709 0.3601 0.57789 0.0
C709 C 0.2359 0.3529 0.55756 0.0
C710 C 0.22353 0.33953 0.56356 0.0
C711 C 0.21297 0.33423 0.5381 0.0
C712 C 0.21075 0.31956 0.52628 0.0
C713 C 0.19822 0.33301 0.54651 0.0
C714 C 0.22138 0.34666 0.51675 0.0
C715 C 0.23463 0.35727 0.52832 0.0
C716 C 0.24443 0.36966 0.51247 0.0
C717 C 0.24056 0.37128 0.48409 0.0
C718 C 0.22699 0.3606 0.47194 0.0
C719 C 0.21727 0.34819 0.4886 0.0
H720 H 0.9871 0.44349 0.66607 0.0
H721 H 0.0237 0.47306 0.61151 0.0
H722 H 0.03995 0.48168 0.65464 0.0
H723 H 0.99841 0.46614 0.73429 0.0
H724 H 0.99255 0.45006 0.75668 0.0
H725 H 0.98318 0.44871 0.723 0.0
H726 H 0.98802 0.42799 0.70595 0.0
H727 H 0.99746 0.42933 0.73937 0.0
H728 H 0.00662 0.43136 0.70512 0.0
H729 H 0.05269 0.48501 0.70249 0.0
H730 H 0.06141 0.48133 0.74993 0.0
H731 H 0.01681 0.448 0.77216 0.0
C732 C 0.9984 0.4522 0.66347 0.0
C733 C 0.00413 0.4579 0.63572 0.0
C734 C 0.01911 0.46877 0.63276 0.0
C735 C 0.02838 0.47374 0.65712 0.0
C736 C 0.0225 0.46758 0.68415 0.0
C737 C 0.00785 0.45698 0.68742 0.0
C738 C 0.00475 0.45051 0.71776 0.0
C739 C 0.99409 0.45407 0.73389 0.0
C740 C 0.99888 0.43381 0.71698 0.0
C741 C 0.02001 0.45875 0.73075 0.0
C742 C 0.03002 0.46884 0.71132 0.0
C743 C 0.04493 0.47726 0.718 0.0
C744 C 0.04977 0.4751 0.745 0.0
C745 C 0.03979 0.46436 0.76467 0.0
C746 C 0.02469 0.45631 0.75757 0.0
H747 H 0.57153 0.56307 0.70971 0.0
H748 H 0.56512 0.52034 0.73452 0.0
H749 H 0.55091 0.52018 0.77747 0.0
H750 H 0.57784 0.57784 0.77905 0.0
H751 H 0.56843 0.58806 0.77361 0.0
H752 H 0.57649 0.58397 0.74315 0.0
H753 H 0.55131 0.57143 0.71676 0.0
H754 H 0.54316 0.57553 0.74718 0.0
H755 H 0.53542 0.55684 0.73469 0.0
H756 H 0.53955 0.52591 0.82029 0.0
H757 H 0.53199 0.53701 0.85912 0.0
H758 H 0.54586 0.57585 0.80556 0.0
C759 C 0.56692 0.55353 0.72383 0.0
C760 C 0.56942 0.5417 0.71869 0.0
C761 C 0.56331 0.52951 0.73794 0.0
C762 C 0.5552 0.52931 0.76236 0.0
C763 C 0.5532 0.54131 0.76708 0.0
C764 C 0.55882 0.55315 0.74821 0.0
C765 C 0.55602 0.56512 0.75907 0.0
C766 C 0.57056 0.57959 0.76402 0.0
C767 C 0.54587 0.56736 0.73818 0.0
C768 C 0.54834 0.55838 0.78746 0.0
C769 C 0.54666 0.54458 0.79161 0.0
C770 C 0.54062 0.53662 0.8171 0.0
C771 C 0.53638 0.54302 0.83905 0.0
C772 C 0.53827 0.55728 0.83539 0.0
C773 C 0.54411 0.56488 0.80899 0.0
H774 H 0.4888 0.04332 0.65993 0.0
H775 H 0.45753 0.00781 0.60533 0.0
H776 H 0.44254 0.99502 0.64867 0.0
H777 H 0.4862 0.02175 0.72398 0.0
H778 H 0.48704 0.03531 0.74908 0.0
H779 H 0.49599 0.04096 0.71424 0.0
H780 H 0.48135 0.05425 0.70297 0.0
H781 H 0.47238 0.04866 0.73776 0.0
H782 H 0.46155 0.04411 0.70501 0.0
H783 H 0.43123 0.98609 0.69788 0.0
H784 H 0.42259 0.98293 0.74875 0.0
H785 H 0.45992 0.02548 0.77058 0.0
C786 C 0.47889 0.03276 0.65732 0.0
C787 C 0.47433 0.02634 0.62962 0.0
C788 C 0.46116 0.01274 0.62659 0.0
C789 C 0.45264 0.00542 0.65101 0.0
C790 C 0.45737 0.01203 0.67813 0.0
C791 C 0.47006 0.0255 0.68138 0.0
C792 C 0.472 0.03078 0.71255 0.0
C793 C 0.48615 0.03229 0.72573 0.0
C794 C 0.4718 0.04531 0.71468 0.0
C795 C 0.45844 0.01819 0.7263 0.0
C796 C 0.45031 0.00736 0.70618 0.0
C797 C 0.43745 0.99452 0.71382 0.0
C798 C 0.43267 0.9928 0.74274 0.0
C799 C 0.44056 0.004 0.76344 0.0
C800 C 0.45363 0.01681 0.75509 0.0
H801 H 0.55471 0.96983 0.25448 0.0
H802 H 0.58129 0.01411 0.28834 0.0
H803 H 0.57942 0.02425 0.24111 0.0
H804 H 0.57045 0.97715 0.1846 0.0
H805 H 0.55351 0.96513 0.16595 0.0
H806 H 0.556 0.96136 0.20303 0.0
H807 H 0.53223 0.96143 0.21789 0.0
H808 H 0.52965 0.96519 0.18079 0.0
H809 H 0.5304 0.97722 0.20948 0.0
H810 H 0.5757 0.02957 0.18941 0.0
H811 H 0.57047 0.0296 0.13704 0.0
H812 H 0.54672 0.9819 0.13695 0.0
C813 C 0.55999 0.98166 0.25214 0.0
C814 C 0.56812 0.99117 0.27518 0.0
C815 C 0.57497 0.00659 0.27105 0.0
C816 C 0.57395 0.01246 0.24432 0.0
C817 C 0.566 0.00277 0.22198 0.0
C818 C 0.5591 0.9877 0.22564 0.0
C819 C 0.55177 0.97969 0.19783 0.0
C820 C 0.55833 0.97028 0.18724 0.0
C821 C 0.53502 0.97033 0.20174 0.0
C822 C 0.55584 0.99261 0.17779 0.0
C823 C 0.56397 0.00583 0.19217 0.0
C824 C 0.56935 0.01928 0.17793 0.0
C825 C 0.56649 0.01919 0.14813 0.0
C826 C 0.55846 0.00576 0.13289 0.0
C827 C 0.55285 0.99233 0.14811 0.0
H828 H 0.99392 0.52979 0.12513 0.0
H829 H 0.9479 0.51741 0.12925 0.0
H830 H 0.95116 0.52592 0.18021 0.0
H831 H 0.99695 0.51926 0.19831 0.0
H832 H 0.01523 0.5346 0.20375 0.0
H833 H 0.00919 0.52732 0.16778 0.0
H834 H 0.01542 0.55316 0.14944 0.0
H835 H 0.02151 0.56053 0.18533 0.0
H836 H 0.00748 0.56278 0.16749 0.0
H837 H 0.95942 0.53545 0.23096 0.0
H838 H 0.97234 0.54654 0.27697 0.0
H839 H 0.01316 0.55334 0.23915 0.0
C840 C 0.98454 0.52886 0.13683 0.0
C841 C 0.9707 0.52314 0.12324 0.0
C842 C 0.95867 0.5221 0.13911 0.0
C843 C 0.96039 0.52676 0.16812 0.0
C844 C 0.97422 0.53248 0.18085 0.0
C845 C 0.98611 0.53363 0.16568 0.0
C846 C 0.99989 0.54053 0.18415 0.0
C847 C 0.00565 0.52978 0.18877 0.0
C848 C 0.01177 0.55512 0.1708 0.0
C849 C 0.99389 0.54307 0.2121 0.0
C850 C 0.97904 0.53824 0.20984 0.0
C851 C 0.97106 0.53931 0.23297 0.0
C852 C 0.97849 0.54559 0.25904 0.0
C853 C 0.99377 0.55085 0.26165 0.0
C854 C 0.0015 0.5495 0.23782 0.0
H855 H 0.43327 0.44264 0.36106 0.0
H856 H 0.46107 0.42299 0.36052 0.0
H857 H 0.45815 0.41993 0.30719 0.0
H858 H 0.40783 0.41965 0.30419 0.0
H859 H 0.40621 0.43463 0.28912 0.0
H860 H 0.4099 0.43443 0.32731 0.0
H861 H 0.43312 0.46022 0.32216 0.0
H862 H 0.42956 0.46037 0.28392 0.0
H863 H 0.44704 0.46296 0.29597 0.0
H864 H 0.45256 0.41945 0.25399 0.0
H865 H 0.44549 0.42244 0.20434 0.0
H866 H 0.42143 0.44255 0.23957 0.0
C867 C 0.43842 0.43734 0.34983 0.0
C868 C 0.44712 0.43273 0.36493 0.0
C869 C 0.45427 0.42649 0.3493 0.0
C870 C 0.45264 0.42467 0.31908 0.0
C871 C 0.44392 0.42928 0.30484 0.0
C872 C 0.43698 0.43554 0.31967 0.0
C873 C 0.42881 0.44021 0.29904 0.0
C874 C 0.4122 0.43172 0.3053 0.0
C875 C 0.43501 0.45693 0.30036 0.0
C876 C 0.43231 0.43565 0.27027 0.0
C877 C 0.44093 0.42925 0.27413 0.0
C878 C 0.44568 0.4243 0.25073 0.0
C879 C 0.44149 0.4259 0.22264 0.0
C880 C 0.43267 0.43243 0.21822 0.0
C881 C 0.42812 0.43744 0.24237 0.0
H882 H 0.0198 0.27856 0.23547 0.0
H883 H 0.01007 0.27578 0.14318 0.0
H884 H 0.98358 0.2639 0.15429 0.0
H885 H 0.98887 0.2437 0.25523 0.0
H886 H 0.9858 0.25018 0.28931 0.0
H887 H 0.00403 0.25861 0.27413 0.0
H888 H 0.00581 0.28413 0.27618 0.0
H889 H 0.98759 0.27577 0.29141 0.0
H890 H 0.99185 0.28665 0.25874 0.0
H891 H 0.9581 0.25216 0.1754 0.0
H892 H 0.93548 0.24155 0.20516 0.0
H893 H 0.96192 0.25202 0.2835 0.0
C894 C 0.01211 0.27548 0.21758 0.0
C895 C 0.01703 0.27811 0.18845 0.0
C896 C 0.00659 0.27388 0.16569 0.0
C897 C 0.99151 0.26712 0.17176 0.0
C898 C 0.98703 0.26466 0.20069 0.0
C899 C 0.99702 0.26872 0.22324 0.0
C900 C 0.98932 0.26479 0.25242 0.0
C901 C 0.99218 0.25366 0.26872 0.0
C902 C 0.99392 0.27866 0.27076 0.0
C903 C 0.97346 0.25787 0.24274 0.0
C904 C 0.97236 0.2579 0.21283 0.0
C905 C 0.95881 0.25208 0.19885 0.0
C906 C 0.94603 0.24607 0.21593 0.0
C907 C 0.94692 0.24595 0.24665 0.0
C908 C 0.96085 0.25194 0.26008 0.0
H909 H 0.73537 0.69996 0.24625 0.0
H910 H 0.7176 0.69289 0.33376 0.0
H911 H 0.70233 0.70365 0.31957 0.0
H912 H 0.73795 0.73457 0.23496 0.0
H913 H 0.73272 0.73136 0.1972 0.0
H914 H 0.74169 0.72238 0.21374 0.0
H915 H 0.72009 0.69698 0.19823 0.0
H916 H 0.71108 0.70589 0.18152 0.0
H917 H 0.70158 0.69185 0.20864 0.0
H918 H 0.68982 0.71618 0.29655 0.0
H919 H 0.6806 0.72917 0.2659 0.0
H920 H 0.70648 0.72797 0.19347 0.0
C921 C 0.72816 0.70053 0.26237 0.0
C922 C 0.72768 0.69557 0.29112 0.0
C923 C 0.71816 0.69661 0.31159 0.0
C924 C 0.70943 0.7027 0.30375 0.0
C925 C 0.71031 0.70766 0.27534 0.0
C926 C 0.71938 0.70658 0.25492 0.0
C927 C 0.71855 0.71307 0.22606 0.0
C928 C 0.73362 0.72612 0.2175 0.0
C929 C 0.71246 0.70124 0.20221 0.0
C930 C 0.70773 0.71811 0.23356 0.0
C931 C 0.70307 0.71485 0.26206 0.0
C932 C 0.69331 0.71872 0.27413 0.0
C933 C 0.68816 0.72612 0.25657 0.0
C934 C 0.69279 0.72957 0.22728 0.0
C935 C 0.70268 0.72545 0.21573 0.0
H936 H 0.24452 0.03103 0.26392 0.0
H937 H 0.21776 0.02318 0.34106 0.0
H938 H 0.20535 0.99647 0.33195 0.0
H939 H 0.21614 0.00154 0.21987 0.0
H940 H 0.22893 0.99704 0.20326 0.0
H941 H 0.23508 0.0156 0.21494 0.0
H942 H 0.25526 0.01508 0.24649 0.0
H943 H 0.24912 0.9965 0.23505 0.0
H944 H 0.25009 0.00074 0.27322 0.0
H945 H 0.19672 0.97051 0.3159 0.0
H946 H 0.19219 0.94725 0.29333 0.0
H947 H 0.22458 0.97211 0.22681 0.0
C948 C 0.23591 0.02372 0.27869 0.0
C949 C 0.23209 0.02922 0.30317 0.0
C950 C 0.22087 0.01924 0.32212 0.0
C951 C 0.21375 0.00404 0.31714 0.0
C952 C 0.21793 0.99897 0.29308 0.0
C953 C 0.2287 0.00851 0.27408 0.0
C954 C 0.23148 0.00019 0.25038 0.0
C955 C 0.22767 0.00381 0.22033 0.0
C956 C 0.24743 0.00331 0.25137 0.0
C957 C 0.22071 0.98451 0.25923 0.0
C958 C 0.21297 0.98403 0.28385 0.0
C959 C 0.20265 0.97074 0.29648 0.0
C960 C 0.20017 0.95759 0.28355 0.0
C961 C 0.20799 0.95784 0.25828 0.0
C962 C 0.21836 0.97152 0.24604 0.0
H963 H 0.03059 0.73014 0.74606 0.0
H964 H 0.02788 0.76303 0.69333 0.0
H965 H 0.00088 0.74963 0.69938 0.0
H966 H 0.99603 0.69823 0.72106 0.0
H967 H 0.99178 0.68994 0.75666 0.0
H968 H 0.01067 0.70131 0.74563 0.0
H969 H 0.01559 0.71775 0.791 0.0
H970 H 0.99675 0.70647 0.80212 0.0
H971 H 0.00434 0.72599 0.79732 0.0
H972 H 0.97437 0.7337 0.71466 0.0
H973 H 0.95067 0.71673 0.73828 0.0
H974 H 0.97098 0.69444 0.78088 0.0
C975 C 0.02432 0.73442 0.73534 0.0
C976 C 0.03135 0.74762 0.71914 0.0
C977 C 0.02273 0.75291 0.70578 0.0
C978 C 0.00738 0.74536 0.70904 0.0
C979 C 0.00083 0.7325 0.72558 0.0
C980 C 0.00903 0.72705 0.73841 0.0
C981 C 0.99949 0.71355 0.75659 0.0
C982 C 0.9995 0.69995 0.74424 0.0
C983 C 0.00433 0.7161 0.78865 0.0
C984 C 0.98468 0.71246 0.75261 0.0
C985 C 0.98562 0.72338 0.73441 0.0
C986 C 0.97347 0.725 0.72868 0.0
C987 C 0.96006 0.71532 0.74222 0.0
C988 C 0.95895 0.70423 0.76139 0.0
C989 C 0.97141 0.7027 0.76618 0.0
H990 H 0.29699 0.27027 0.76394 0.0
H991 H 0.26056 0.23448 0.80996 0.0
H992 H 0.2447 0.2448 0.79683 0.0
H993 H 0.28818 0.29888 0.78257 0.0
H994 H 0.2937 0.30754 0.74741 0.0
H995 H 0.30238 0.29791 0.7624 0.0
H996 H 0.29546 0.28169 0.71619 0.0
H997 H 0.28674 0.29122 0.70111 0.0
H998 H 0.2765 0.27149 0.70489 0.0
H999 H 0.23242 0.25826 0.77576 0.0
H1000 H 0.2248 0.27371 0.74866 0.0
H1001 H 0.26944 0.30055 0.71676 0.0
C1002 C 0.28574 0.26468 0.77163 0.0
C1003 C 0.28003 0.25157 0.78804 0.0
C1004 C 0.26519 0.24456 0.79743 0.0
C1005 C 0.25611 0.25035 0.79011 0.0
C1006 C 0.26204 0.26319 0.77353 0.0
C1007 C 0.27654 0.27029 0.76453 0.0
C1008 C 0.28011 0.28353 0.74583 0.0
C1009 C 0.29178 0.29781 0.76044 0.0
C1010 C 0.28498 0.28187 0.71519 0.0
C1011 C 0.26528 0.28262 0.7452 0.0
C1012 C 0.25501 0.27089 0.76146 0.0
C1013 C 0.24041 0.26756 0.76318 0.0
C1014 C 0.23618 0.27638 0.74768 0.0
C1015 C 0.24652 0.28836 0.73062 0.0
C1016 C 0.26127 0.29154 0.72973 0.0
H1017 H 0.7418 0.99396 0.70756 0.0
H1018 H 0.73694 0.966 0.78127 0.0
H1019 H 0.75085 0.98807 0.81188 0.0
H1020 H 0.77866 0.02296 0.72393 0.0
H1021 H 0.77531 0.03742 0.71223 0.0
H1022 H 0.76525 0.01944 0.696 0.0
H1023 H 0.74065 0.01806 0.70975 0.0
H1024 H 0.75063 0.03604 0.72595 0.0
H1025 H 0.73727 0.02068 0.74708 0.0
H1026 H 0.76493 0.01316 0.83455 0.0
H1027 H 0.77771 0.0394 0.84805 0.0
H1028 H 0.77331 0.05094 0.75941 0.0
C1029 C 0.74368 0.99245 0.73011 0.0
C1030 C 0.73829 0.97824 0.74201 0.0
C1031 C 0.74097 0.97677 0.77167 0.0
C1032 C 0.74888 0.98924 0.78921 0.0
C1033 C 0.75403 0.00308 0.77675 0.0
C1034 C 0.75153 0.00475 0.7479 0.0
C1035 C 0.758 0.02082 0.73995 0.0
C1036 C 0.77002 0.02543 0.71665 0.0
C1037 C 0.74592 0.02409 0.73011 0.0
C1038 C 0.76447 0.02795 0.76891 0.0
C1039 C 0.76211 0.01752 0.78982 0.0
C1040 C 0.76688 0.02142 0.81835 0.0
C1041 C 0.77413 0.03637 0.82579 0.0
C1042 C 0.77654 0.04725 0.80479 0.0
C1043 C 0.77171 0.04292 0.77594 0.0
H1044 H 0.71216 0.62287 0.58785 0.0
H1045 H 0.73257 0.62082 0.66848 0.0
H1046 H 0.70809 0.60311 0.68822 0.0
H1047 H 0.68081 0.62173 0.61999 0.0
H1048 H 0.66835 0.61061 0.59166 0.0
H1049 H 0.68751 0.62262 0.58355 0.0
H1050 H 0.68923 0.60052 0.56318 0.0
H1051 H 0.67006 0.58842 0.57129 0.0
H1052 H 0.68372 0.58453 0.5857 0.0
H1053 H 0.68134 0.58611 0.69951 0.0
H1054 H 0.65427 0.57151 0.70207 0.0
H1055 H 0.65143 0.58484 0.61402 0.0
C1056 C 0.71153 0.61865 0.60961 0.0
C1057 C 0.7243 0.62321 0.62661 0.0
C1058 C 0.72294 0.61748 0.65505 0.0
C1059 C 0.70909 0.60739 0.66642 0.0
C1060 C 0.69673 0.60316 0.64908 0.0
C1061 C 0.69782 0.60862 0.6213 0.0
C1062 C 0.68282 0.60265 0.60743 0.0
C1063 C 0.67969 0.61515 0.60025 0.0
C1064 C 0.68138 0.59349 0.5803 0.0
C1065 C 0.67309 0.59305 0.63185 0.0
C1066 C 0.68133 0.59344 0.65562 0.0
C1067 C 0.67477 0.58568 0.681 0.0
C1068 C 0.65938 0.57741 0.68222 0.0
C1069 C 0.65071 0.57701 0.65824 0.0
C1070 C 0.65773 0.58486 0.63267 0.0
H1071 H 0.37569 0.06969 0.54254 0.0
H1072 H 0.36731 0.06866 0.63515 0.0
H1073 H 0.38309 0.05774 0.64395 0.0
H1074 H 0.37616 0.03542 0.53911 0.0
H1075 H 0.39075 0.04233 0.51261 0.0
H1076 H 0.3783 0.04943 0.51364 0.0
H1077 H 0.40035 0.07593 0.51907 0.0
H1078 H 0.41287 0.06891 0.51799 0.0
H1079 H 0.4133 0.08002 0.54824 0.0
H1080 H 0.4004 0.04753 0.64252 0.0
H1081 H 0.41841 0.03963 0.63122 0.0
H1082 H 0.4154 0.04764 0.53955 0.0
C1083 C 0.37707 0.06709 0.56469 0.0
C1084 C 0.37024 0.07 0.58817 0.0
C1085 C 0.37243 0.06652 0.61682 0.0
C1086 C 0.38134 0.06028 0.62202 0.0
C1087 C 0.38794 0.05759 0.59834 0.0
C1088 C 0.38592 0.06091 0.57025 0.0
C1089 C 0.39462 0.05744 0.54866 0.0
C1090 C 0.38434 0.04544 0.52725 0.0
C1091 C 0.40596 0.07141 0.53255 0.0
C1092 C 0.40202 0.0518 0.56899 0.0
C1093 C 0.39795 0.05186 0.59754 0.0
C1094 C 0.40362 0.04739 0.62023 0.0
C1095 C 0.41384 0.04291 0.61358 0.0
C1096 C 0.41833 0.04301 0.58449 0.0
C1097 C 0.41218 0.04739 0.56199 0.0
H1098 H 0.93295 0.37717 0.56232 0.0
H1099 H 0.97716 0.38365 0.56242 0.0
H1100 H 0.96701 0.3571 0.57082 0.0
H1101 H 0.91814 0.34982 0.61802 0.0
H1102 H 0.90045 0.33912 0.60088 0.0
H1103 H 0.9111 0.35865 0.59458 0.0
H1104 H 0.90994 0.3542 0.53901 0.0
H1105 H 0.89916 0.33466 0.54513 0.0
H1106 H 0.91599 0.34217 0.52451 0.0
H1107 H 0.95221 0.33008 0.58138 0.0
H1108 H 0.93358 0.30396 0.58861 0.0
H1109 H 0.89891 0.31482 0.57986 0.0
C1110 C 0.94049 0.373 0.56395 0.0
C1111 C 0.95585 0.38252 0.56178 0.0
C1112 C 0.96535 0.37659 0.56391 0.0
C1113 C 0.9597 0.36153 0.56883 0.0
C1114 C 0.94452 0.3525 0.57129 0.0
C1115 C 0.93503 0.35795 0.56855 0.0
C1116 C 0.91916 0.34581 0.57153 0.0
C1117 C 0.91178 0.34851 0.59782 0.0
C1118 C 0.91056 0.34411 0.54337 0.0
C1119 C 0.92123 0.33269 0.57655 0.0
C1120 C 0.93595 0.33682 0.57658 0.0
C1121 C 0.94063 0.32669 0.58123 0.0
C1122 C 0.92996 0.31189 0.58545 0.0
C1123 C 0.91478 0.30732 0.58474 0.0
C1124 C 0.91042 0.31794 0.58045 0.0
H1125 H 0.63573 0.0704 0.10046 0.0
H1126 H 0.63097 0.05235 0.18733 0.0
H1127 H 0.6573 0.06971 0.19672 0.0
H1128 H 0.67062 0.07476 0.08584 0.0
H1129 H 0.67719 0.0917 0.06588 0.0
H1130 H 0.65783 0.07853 0.06687 0.0
H1131 H 0.65257 0.09855 0.08672 0.0
H1132 H 0.67194 0.1118 0.08579 0.0
H1133 H 0.66178 0.10849 0.11918 0.0
H1134 H 0.68463 0.08823 0.1954 0.0
H1135 H 0.7105 0.10625 0.18343 0.0
H1136 H 0.6969 0.11205 0.09764 0.0
C1137 C 0.64016 0.07017 0.1216 0.0
C1138 C 0.63127 0.06001 0.14317 0.0
C1139 C 0.63755 0.06005 0.17047 0.0
C1140 C 0.65249 0.06988 0.17602 0.0
C1141 C 0.66097 0.07965 0.15412 0.0
C1142 C 0.65499 0.07988 0.1275 0.0
C1143 C 0.6665 0.09104 0.10721 0.0
C1144 C 0.66813 0.08356 0.07985 0.0
C1145 C 0.66299 0.10319 0.09927 0.0
C1146 C 0.67996 0.09691 0.12639 0.0
C1147 C 0.67657 0.09028 0.15342 0.0
C1148 C 0.68738 0.09358 0.17438 0.0
C1149 C 0.70205 0.10383 0.16738 0.0
C1150 C 0.70574 0.11061 0.13965 0.0
C1151 C 0.69447 0.10717 0.11912 0.0
H1152 H 0.92981 0.56316 0.07954 0.0
H1153 H 0.93549 0.56083 0.17253 0.0
H1154 H 0.92587 0.5777 0.18093 0.0
H1155 H 0.94078 0.60137 0.07717 0.0
H1156 H 0.92751 0.5991 0.04982 0.0
H1157 H 0.93456 0.58661 0.05117 0.0
H1158 H 0.90799 0.56453 0.05484 0.0
H1159 H 0.90085 0.57695 0.05348 0.0
H1160 H 0.89604 0.5642 0.08331 0.0
H1161 H 0.91591 0.59503 0.17915 0.0
H1162 H 0.90636 0.61165 0.16739 0.0
H1163 H 0.90726 0.6027 0.07551 0.0
C1164 C 0.929 0.56614 0.1017 0.0
C1165 C 0.93339 0.56065 0.1254 0.0
C1166 C 0.93218 0.56488 0.15403 0.0
C1167 C 0.92673 0.57446 0.15903 0.0
C1168 C 0.92254 0.5797 0.13517 0.0
C1169 C 0.9236 0.57569 0.10708 0.0
C1170 C 0.9185 0.58301 0.08523 0.0
C1171 C 0.93109 0.59312 0.06464 0.0
C1172 C 0.90504 0.57148 0.06822 0.0
C1173 C 0.91444 0.59179 0.10543 0.0
C1174 C 0.91683 0.58971 0.13414 0.0
C1175 C 0.91397 0.59673 0.15675 0.0
C1176 C 0.90855 0.60615 0.14983 0.0
C1177 C 0.90605 0.60848 0.12053 0.0
C1178 C 0.90903 0.60115 0.09812 0.0
H1179 H 0.36547 0.28696 0.124 0.0
H1180 H 0.40624 0.28609 0.13139 0.0
H1181 H 0.41854 0.31135 0.15109 0.0
H1182 H 0.38113 0.323 0.09905 0.0
H1183 H 0.36883 0.32729 0.11846 0.0
H1184 H 0.36282 0.3086 0.10823 0.0
H1185 H 0.3565 0.30035 0.16194 0.0
H1186 H 0.36242 0.31904 0.17234 0.0
H1187 H 0.3704 0.30922 0.18952 0.0
H1188 H 0.4269 0.3375 0.16582 0.0
H1189 H 0.43058 0.36233 0.17475 0.0
H1190 H 0.38431 0.34595 0.15742 0.0
C1191 C 0.37691 0.29194 0.1303 0.0
C1192 C 0.38488 0.28451 0.12624 0.0
C1193 C 0.39989 0.29154 0.13439 0.0
C1194 C 0.40697 0.30588 0.14564 0.0
C1195 C 0.39887 0.31302 0.14873 0.0
C1196 C 0.38414 0.30624 0.14145 0.0
C1197 C 0.37814 0.31659 0.14506 0.0
C1198 C 0.3724 0.31901 0.11597 0.0
C1199 C 0.36616 0.31096 0.16862 0.0
C1200 C 0.39187 0.33037 0.15482 0.0
C1201 C 0.40369 0.32806 0.15708 0.0
C1202 C 0.41769 0.33939 0.16445 0.0
C1203 C 0.41968 0.35346 0.16942 0.0
C1204 C 0.40773 0.35609 0.16687 0.0
C1205 C 0.39365 0.3443 0.15978 0.0
H1206 H 0.36646 0.97241 0.85413 0.0
H1207 H 0.39243 0.00086 0.92498 0.0
H1208 H 0.37059 0.98917 0.95691 0.0
H1209 H 0.3327 0.97215 0.87087 0.0
H1210 H 0.32117 0.9531 0.86104 0.0
H1211 H 0.33874 0.96401 0.84361 0.0
H1212 H 0.34635 0.945 0.85907 0.0
H1213 H 0.32882 0.93405 0.87656 0.0
H1214 H 0.34556 0.94018 0.89691 0.0
H1215 H 0.34604 0.97408 0.98126 0.0
H1216 H 0.32062 0.95656 0.99649 0.0
H1217 H 0.31082 0.93787 0.90968 0.0
C1218 C 0.36757 0.97626 0.87631 0.0
C1219 C 0.38115 0.98758 0.88705 0.0
C1220 C 0.38213 0.99222 0.91627 0.0
C1221 C 0.36979 0.98566 0.93456 0.0
C1222 C 0.35658 0.97448 0.92328 0.0
C1223 C 0.3554 0.96982 0.89484 0.0
C1224 C 0.34003 0.9574 0.88822 0.0
C1225 C 0.33273 0.96195 0.86453 0.0
C1226 C 0.34021 0.94333 0.87969 0.0
C1227 C 0.33276 0.95574 0.91745 0.0
C1228 C 0.34248 0.96573 0.93734 0.0
C1229 C 0.33832 0.96622 0.96586 0.0
C1230 C 0.32385 0.95622 0.97429 0.0
C1231 C 0.31372 0.94583 0.95429 0.0
C1232 C 0.31829 0.94567 0.92549 0.0
H1233 H 0.06602 0.4109 0.87272 0.0
H1234 H 0.08301 0.42227 0.78473 0.0
H1235 H 0.09468 0.40702 0.79003 0.0
H1236 H 0.09779 0.4109 0.90374 0.0
H1237 H 0.08691 0.39549 0.92733 0.0
H1238 H 0.08023 0.40764 0.91687 0.0
H1239 H 0.05632 0.38542 0.89714 0.0
H1240 H 0.06294 0.37321 0.90746 0.0
H1241 H 0.05753 0.37353 0.8704 0.0
H1242 H 0.10391 0.38994 0.80435 0.0
H1243 H 0.11032 0.37254 0.82706 0.0
H1244 H 0.08739 0.37246 0.90565 0.0
C1245 C 0.07227 0.41027 0.85462 0.0
C1246 C 0.0736 0.4178 0.82831 0.0
C1247 C 0.08183 0.41662 0.80512 0.0
C1248 C 0.08851 0.40798 0.8079 0.0
C1249 C 0.08689 0.40062 0.83403 0.0
C1250 C 0.07902 0.4017 0.85702 0.0
C1251 C 0.07877 0.39249 0.8826 0.0
C1252 C 0.08638 0.40222 0.9092 0.0
C1253 C 0.06295 0.38045 0.88981 0.0
C1254 C 0.08764 0.38599 0.87032 0.0
C1255 C 0.09224 0.39082 0.84229 0.0
C1256 C 0.10042 0.38613 0.82634 0.0
C1257 C 0.10399 0.37623 0.83941 0.0
C1258 C 0.09939 0.37114 0.86814 0.0
C1259 C 0.09113 0.37616 0.8837 0.0
H1260 H 0.57292 0.64894 0.85962 0.0
H1261 H 0.54114 0.63517 0.92992 0.0
H1262 H 0.54962 0.66123 0.94116 0.0
H1263 H 0.60181 0.6797 0.89606 0.0
H1264 H 0.60826 0.69102 0.86393 0.0
H1265 H 0.59925 0.67131 0.86078 0.0
H1266 H 0.58032 0.67167 0.82513 0.0
H1267 H 0.58924 0.69139 0.82826 0.0
H1268 H 0.56989 0.68024 0.83607 0.0
H1269 H 0.56205 0.68877 0.94551 0.0
H1270 H 0.57794 0.71575 0.94367 0.0
H1271 H 0.60157 0.71143 0.87043 0.0
C1272 C 0.56767 0.65137 0.8773 0.0
C1273 C 0.55633 0.64 0.89386 0.0
C1274 C 0.54983 0.64369 0.91691 0.0
C1275 C 0.55455 0.65845 0.92342 0.0
C1276 C 0.56575 0.66937 0.90664 0.0
C1277 C 0.57224 0.66601 0.88409 0.0
C1278 C 0.58437 0.67979 0.86994 0.0
C1279 C 0.5993 0.68049 0.87287 0.0
C1280 C 0.58073 0.68083 0.83795 0.0
C1281 C 0.58378 0.69146 0.88822 0.0
C1282 C 0.57292 0.68522 0.90916 0.0
C1283 C 0.57054 0.69378 0.92911 0.0
C1284 C 0.57963 0.7091 0.92787 0.0
C1285 C 0.59098 0.71572 0.90686 0.0
C1286 C 0.59292 0.70673 0.88659 0.0
H1287 H 0.36788 0.4143 0.40926 0.0
H1288 H 0.36773 0.38991 0.33296 0.0
H1289 H 0.34074 0.37869 0.32957 0.0
H1290 H 0.33476 0.38567 0.44055 0.0
H1291 H 0.32874 0.39791 0.45403 0.0
H1292 H 0.34808 0.40437 0.44992 0.0
H1293 H 0.35083 0.42569 0.41713 0.0
H1294 H 0.33151 0.41933 0.4212 0.0
H1295 H 0.33934 0.42158 0.38542 0.0
H1296 H 0.31375 0.36985 0.33499 0.0
H1297 H 0.28869 0.36406 0.34865 0.0
H1298 H 0.30653 0.39409 0.4217 0.0
C1299 C 0.36221 0.40667 0.39171 0.0
C1300 C 0.36993 0.403 0.37134 0.0
C1301 C 0.36205 0.3929 0.34883 0.0
C1302 C 0.34673 0.38647 0.34671 0.0
C1303 C 0.33945 0.39025 0.36728 0.0
C1304 C 0.34693 0.40012 0.38933 0.0
C1305 C 0.33649 0.40214 0.40895 0.0
C1306 C 0.33706 0.39722 0.44021 0.0
C1307 C 0.33974 0.41814 0.40811 0.0
C1308 C 0.32196 0.39182 0.39453 0.0
C1309 C 0.32391 0.38509 0.37051 0.0
C1310 C 0.31209 0.37506 0.35373 0.0
C1311 C 0.29789 0.37185 0.3617 0.0
C1312 C 0.29563 0.37861 0.38626 0.0
C1313 C 0.30787 0.38872 0.40283 0.0
H1314 H 0.63069 0.9165 0.40591 0.0
H1315 H 0.63714 0.92756 0.49765 0.0
H1316 H 0.62006 0.93729 0.49402 0.0
H1317 H 0.63003 0.94814 0.38248 0.0
H1318 H 0.61615 0.93868 0.35513 0.0
H1319 H 0.62811 0.93179 0.36552 0.0
H1320 H 0.60547 0.90645 0.37783 0.0
H1321 H 0.59342 0.91326 0.36742 0.0
H1322 H 0.59188 0.90548 0.40307 0.0
H1323 H 0.60317 0.947 0.47944 0.0
H1324 H 0.58792 0.95575 0.45521 0.0
H1325 H 0.59273 0.93808 0.37332 0.0
C1326 C 0.62843 0.92083 0.42536 0.0
C1327 C 0.63525 0.92125 0.45209 0.0
C1328 C 0.63202 0.92709 0.47694 0.0
C1329 C 0.62233 0.93263 0.4751 0.0
C1330 C 0.61592 0.93218 0.4483 0.0
C1331 C 0.61881 0.92637 0.42391 0.0
C1332 C 0.61094 0.9276 0.39745 0.0
C1333 C 0.62197 0.93712 0.37376 0.0
C1334 C 0.59976 0.91229 0.38576 0.0
C1335 C 0.60333 0.9352 0.41061 0.0
C1336 C 0.60624 0.9377 0.43998 0.0
C1337 C 0.60072 0.945 0.45649 0.0
C1338 C 0.59208 0.94994 0.44254 0.0
C1339 C 0.58909 0.94758 0.41238 0.0
C1340 C 0.59473 0.94 0.39642 0.0
H1341 H 0.04906 0.61961 0.38843 0.0
H1342 H 0.07988 0.6323 0.3166 0.0
H1343 H 0.09458 0.65707 0.33781 0.0
H1344 H 0.04952 0.65356 0.39412 0.0
H1345 H 0.04837 0.6532 0.43322 0.0
H1346 H 0.04064 0.63622 0.41319 0.0
H1347 H 0.05643 0.62824 0.44299 0.0
H1348 H 0.06417 0.64518 0.46321 0.0
H1349 H 0.0761 0.64017 0.44446 0.0
H1350 H 0.10544 0.68079 0.36586 0.0
H1351 H 0.11183 0.70157 0.39918 0.0
H1352 H 0.07391 0.67335 0.45257 0.0
C1353 C 0.05897 0.62754 0.37728 0.0
C1354 C 0.06331 0.62399 0.35085 0.0
C1355 C 0.07632 0.63474 0.33688 0.0
C1356 C 0.08476 0.64885 0.34876 0.0
C1357 C 0.08007 0.65204 0.37465 0.0
C1358 C 0.06752 0.64168 0.38881 0.0
C1359 C 0.0647 0.64802 0.41598 0.0
C1360 C 0.04993 0.64773 0.41399 0.0
C1361 C 0.0654 0.63992 0.44327 0.0
C1362 C 0.07756 0.66361 0.41474 0.0
C1363 C 0.08632 0.6657 0.39078 0.0
C1364 C 0.0987 0.67927 0.38478 0.0
C1365 C 0.10223 0.69101 0.40381 0.0
C1366 C 0.09339 0.68911 0.42851 0.0
C1367 C 0.08092 0.67518 0.43394 0.0
H1368 H 0.16241 0.3223 0.33737 0.0
H1369 H 0.15656 0.35827 0.36713 0.0
H1370 H 0.13252 0.34716 0.3423 0.0
H1371 H 0.14791 0.31948 0.26775 0.0
H1372 H 0.13894 0.2997 0.26579 0.0
H1373 H 0.155 0.3097 0.28816 0.0
H1374 H 0.14053 0.29422 0.33294 0.0
H1375 H 0.12442 0.28411 0.31065 0.0
H1376 H 0.1235 0.2933 0.34299 0.0
H1377 H 0.11023 0.33335 0.31059 0.0
H1378 H 0.09098 0.31744 0.27556 0.0
H1379 H 0.1112 0.29028 0.26722 0.0
C1380 C 0.15598 0.32772 0.3391 0.0
C1381 C 0.16136 0.34115 0.35426 0.0
C1382 C 0.15264 0.34796 0.35574 0.0
C1383 C 0.13897 0.34172 0.34171 0.0
C1384 C 0.13411 0.32863 0.3265 0.0
C1385 C 0.14229 0.32164 0.32531 0.0
C1386 C 0.13492 0.30804 0.30637 0.0
C1387 C 0.14478 0.30932 0.28049 0.0
C1388 C 0.13058 0.29409 0.32432 0.0
C1389 C 0.12149 0.30867 0.29651 0.0
C1390 C 0.12118 0.32058 0.30848 0.0
C1391 C 0.11025 0.32388 0.30138 0.0
C1392 C 0.09939 0.3148 0.2814 0.0
C1393 C 0.09953 0.30257 0.26879 0.0
C1394 C 0.11067 0.29943 0.27676 0.0
H1395 H 0.67708 0.84872 0.3452 0.0
H1396 H 0.72349 0.86295 0.35359 0.0
H1397 H 0.71912 0.83987 0.33053 0.0
H1398 H 0.66343 0.80967 0.35935 0.0
H1399 H 0.64872 0.80377 0.33332 0.0
H1400 H 0.65539 0.82102 0.35204 0.0
H1401 H 0.66038 0.83456 0.30259 0.0
H1402 H 0.65375 0.81738 0.28374 0.0
H1403 H 0.6719 0.83252 0.27615 0.0
H1404 H 0.70998 0.81609 0.30317 0.0
H1405 H 0.69659 0.79307 0.27494 0.0
H1406 H 0.65611 0.79419 0.28588 0.0
C1407 C 0.68631 0.84694 0.34247 0.0
C1408 C 0.70063 0.85765 0.35117 0.0
C1409 C 0.71241 0.85489 0.34715 0.0
C1410 C 0.71004 0.84181 0.33409 0.0
C1411 C 0.69581 0.83156 0.32545 0.0
C1412 C 0.68413 0.83392 0.32968 0.0
C1413 C 0.66999 0.82137 0.31766 0.0
C1414 C 0.65872 0.81349 0.34205 0.0
C1415 C 0.66364 0.82679 0.29361 0.0
C1416 C 0.6756 0.81172 0.30546 0.0
C1417 C 0.69051 0.81775 0.31023 0.0
C1418 C 0.69826 0.81117 0.29962 0.0
C1419 C 0.69058 0.79812 0.28357 0.0
C1420 C 0.6753 0.79179 0.2784 0.0
C1421 C 0.66774 0.79864 0.2898 0.0
H1422 H 0.14142 0.78994 0.39044 0.0
H1423 H 0.09623 0.77479 0.36516 0.0
H1424 H 0.10469 0.79639 0.333 0.0
H1425 H 0.15296 0.82816 0.3928 0.0
H1426 H 0.17105 0.83407 0.37847 0.0
H1427 H 0.16151 0.81715 0.39872 0.0
H1428 H 0.16436 0.80295 0.35553 0.0
H1429 H 0.17396 0.81984 0.33518 0.0
H1430 H 0.15784 0.80431 0.32005 0.0
H1431 H 0.11802 0.81992 0.3044 0.0
H1432 H 0.13529 0.8436 0.28114 0.0
H1433 H 0.17174 0.84343 0.32538 0.0
C1434 C 0.1333 0.7911 0.378 0.0
C1435 C 0.11815 0.78065 0.38028 0.0
C1436 C 0.10789 0.78263 0.36375 0.0
C1437 C 0.11258 0.79487 0.34542 0.0
C1438 C 0.12758 0.80502 0.34386 0.0
C1439 C 0.13778 0.80325 0.35965 0.0
C1440 C 0.15323 0.81589 0.35446 0.0
C1441 C 0.16009 0.82431 0.3828 0.0
C1442 C 0.16292 0.81042 0.34046 0.0
C1443 C 0.1501 0.82508 0.33338 0.0
C1444 C 0.13525 0.8186 0.3275 0.0
C1445 C 0.12969 0.82509 0.30879 0.0
C1446 C 0.13959 0.83854 0.29571 0.0
C1447 C 0.15487 0.84539 0.30143 0.0
C1448 C 0.16013 0.8385 0.32055 0.0
H1449 H 0.31369 0.13611 0.21933 0.0
H1450 H 0.26974 0.12459 0.24751 0.0
H1451 H 0.27186 0.14597 0.22076 0.0
H1452 H 0.32952 0.17533 0.22454 0.0
H1453 H 0.34086 0.17915 0.19268 0.0
H1454 H 0.33588 0.16292 0.21398 0.0
H1455 H 0.32492 0.1467 0.16816 0.0
H1456 H 0.32986 0.16289 0.14671 0.0
H1457 H 0.31107 0.14804 0.14737 0.0
H1458 H 0.27876 0.16864 0.19107 0.0
H1459 H 0.28992 0.1909 0.16028 0.0
H1460 H 0.32932 0.18757 0.15134 0.0
C1461 C 0.3045 0.13807 0.21989 0.0
C1462 C 0.29154 0.12866 0.23554 0.0
C1463 C 0.27978 0.13163 0.23568 0.0
C1464 C 0.28087 0.14375 0.22056 0.0
C1465 C 0.29379 0.1528 0.20539 0.0
C1466 C 0.3054 0.1501 0.20491 0.0
C1467 C 0.31806 0.16152 0.18688 0.0
C1468 C 0.33189 0.17024 0.20565 0.0
C1469 C 0.32115 0.15435 0.16073 0.0
C1470 C 0.31176 0.17105 0.1773 0.0
C1471 C 0.29776 0.16584 0.18822 0.0
C1472 C 0.28972 0.17282 0.18238 0.0
C1473 C 0.29616 0.18546 0.16487 0.0
C1474 C 0.31049 0.19099 0.15337 0.0
C1475 C 0.31835 0.18363 0.15976 0.0
H1476 H 0.79532 0.13187 0.17122 0.0
H1477 H 0.78716 0.16789 0.15454 0.0
H1478 H 0.81016 0.1849 0.1801 0.0
H1479 H 0.81105 0.14376 0.24334 0.0
H1480 H 0.8244 0.13794 0.2383 0.0
H1481 H 0.80701 0.12853 0.21964 0.0
H1482 H 0.82066 0.13345 0.17038 0.0
H1483 H 0.83809 0.14296 0.18885 0.0
H1484 H 0.83393 0.15207 0.16027 0.0
H1485 H 0.83459 0.19819 0.20547 0.0
H1486 H 0.85823 0.20664 0.23071 0.0
H1487 H 0.85028 0.16188 0.23128 0.0
C1488 C 0.79828 0.1433 0.17317 0.0
C1489 C 0.78942 0.14855 0.1609 0.0
C1490 C 0.79375 0.16361 0.16383 0.0
C1491 C 0.8068 0.17337 0.17827 0.0
C1492 C 0.81538 0.16787 0.18976 0.0
C1493 C 0.81125 0.15318 0.18756 0.0
C1494 C 0.82254 0.15013 0.20143 0.0
C1495 C 0.81585 0.13946 0.22721 0.0
C1496 C 0.8292 0.14431 0.17888 0.0
C1497 C 0.83373 0.16543 0.21155 0.0
C1498 C 0.82939 0.17551 0.20458 0.0
C1499 C 0.83806 0.19039 0.21119 0.0
C1500 C 0.85149 0.19509 0.22546 0.0
C1501 C 0.85609 0.18492 0.23302 0.0
C1502 C 0.84705 0.16991 0.2259 0.0
H1503 H 0.79647 0.68487 0.23061 0.0
H1504 H 0.82068 0.73261 0.22931 0.0
H1505 H 0.8394 0.73218 0.19747 0.0
H1506 H 0.82712 0.6803 0.23596 0.0
H1507 H 0.8198 0.66419 0.2132 0.0
H1508 H 0.80752 0.66823 0.23315 0.0
H1509 H 0.7942 0.66769 0.18534 0.0
H1510 H 0.80644 0.6636 0.16521 0.0
H1511 H 0.80469 0.67929 0.15539 0.0
H1512 H 0.85643 0.72655 0.16903 0.0
H1513 H 0.8706 0.71617 0.14658 0.0
H1514 H 0.83529 0.67211 0.16689 0.0
C1515 C 0.80556 0.69524 0.2232 0.0
C1516 C 0.80708 0.70878 0.23233 0.0
C1517 C 0.81927 0.72211 0.22252 0.0
C1518 C 0.82993 0.72198 0.20437 0.0
C1519 C 0.82823 0.70843 0.19619 0.0
C1520 C 0.81632 0.69531 0.20522 0.0
C1521 C 0.81755 0.68226 0.19496 0.0
C1522 C 0.81803 0.67322 0.22086 0.0
C1523 C 0.80497 0.67265 0.17397 0.0
C1524 C 0.83217 0.69011 0.17931 0.0
C1525 C 0.83809 0.70519 0.17999 0.0
C1526 C 0.85183 0.71476 0.16809 0.0
C1527 C 0.85981 0.70875 0.15542 0.0
C1528 C 0.85404 0.69333 0.1549 0.0
C1529 C 0.83995 0.68394 0.16671 0.0
H1530 H 0.81348 0.62857 0.64735 0.0
H1531 H 0.81182 0.66835 0.66483 0.0
H1532 H 0.83344 0.67713 0.69694 0.0
H1533 H 0.82345 0.6241 0.71988 0.0
H1534 H 0.83536 0.61736 0.70809 0.0
H1535 H 0.81995 0.61434 0.68595 0.0
H1536 H 0.83746 0.62687 0.64232 0.0
H1537 H 0.85292 0.62995 0.66433 0.0
H1538 H 0.8529 0.64521 0.64641 0.0
H1539 H 0.8554 0.68177 0.72656 0.0
H1540 H 0.87558 0.68144 0.75346 0.0
H1541 H 0.86248 0.6383 0.71795 0.0
C1542 C 0.81769 0.63915 0.65786 0.0
C1543 C 0.811 0.6478 0.65352 0.0
C1544 C 0.81676 0.66152 0.66787 0.0
C1545 C 0.82905 0.66663 0.6861 0.0
C1546 C 0.83539 0.65783 0.68991 0.0
C1547 C 0.82987 0.64435 0.67636 0.0
C1548 C 0.83854 0.63691 0.68465 0.0
C1549 C 0.82874 0.62231 0.70059 0.0
C1550 C 0.84589 0.63461 0.65783 0.0
C1551 C 0.84982 0.64834 0.70492 0.0
C1552 C 0.84786 0.66036 0.70751 0.0
C1553 C 0.85703 0.6724 0.72478 0.0
C1554 C 0.86847 0.67212 0.73993 0.0
C1555 C 0.87059 0.65983 0.73787 0.0
C1556 C 0.86111 0.64782 0.72007 0.0
H1557 H 0.34628 0.12898 0.6491 0.0
H1558 H 0.39155 0.15904 0.62445 0.0
H1559 H 0.39153 0.17839 0.65497 0.0
H1560 H 0.33454 0.15477 0.64526 0.0
H1561 H 0.32209 0.14753 0.67566 0.0
H1562 H 0.32621 0.13558 0.65472 0.0
H1563 H 0.33462 0.12807 0.70148 0.0
H1564 H 0.33047 0.13998 0.72262 0.0
H1565 H 0.34859 0.14212 0.7241 0.0
H1566 H 0.38601 0.19491 0.68561 0.0
H1567 H 0.3752 0.20757 0.71254 0.0
H1568 H 0.33333 0.1668 0.71587 0.0
C1569 C 0.35629 0.13954 0.65057 0.0
C1570 C 0.36896 0.14248 0.6346 0.0
C1571 C 0.38174 0.15653 0.63661 0.0
C1572 C 0.38184 0.16758 0.65395 0.0
C1573 C 0.36908 0.16438 0.66906 0.0
C1574 C 0.35653 0.1507 0.66752 0.0
C1575 C 0.34393 0.1504 0.68406 0.0
C1576 C 0.33093 0.14687 0.66371 0.0
C1577 C 0.33913 0.1395 0.70958 0.0
C1578 C 0.35124 0.16613 0.69469 0.0
C1579 C 0.3658 0.17397 0.68615 0.0
C1580 C 0.37466 0.18885 0.69261 0.0
C1581 C 0.36841 0.19595 0.70791 0.0
C1582 C 0.35343 0.18818 0.71633 0.0
C1583 C 0.34484 0.17304 0.70987 0.0
H1584 H 0.8605 0.2181 0.65541 0.0
H1585 H 0.82073 0.21641 0.62373 0.0
H1586 H 0.80574 0.1935 0.65146 0.0
H1587 H 0.84725 0.17955 0.65209 0.0
H1588 H 0.85645 0.17909 0.68481 0.0
H1589 H 0.86409 0.1956 0.66322 0.0
H1590 H 0.86395 0.21041 0.70813 0.0
H1591 H 0.8564 0.19396 0.72991 0.0
H1592 H 0.84706 0.2044 0.72786 0.0
H1593 H 0.79508 0.17039 0.68154 0.0
H1594 H 0.78951 0.14918 0.71311 0.0
H1595 H 0.83626 0.16604 0.72522 0.0
C1596 C 0.84864 0.21298 0.65446 0.0
C1597 C 0.84179 0.21907 0.63742 0.0
C1598 C 0.82623 0.21198 0.63668 0.0
C1599 C 0.81762 0.19894 0.65231 0.0
C1600 C 0.82472 0.19316 0.66863 0.0
C1601 C 0.83988 0.19998 0.66993 0.0
C1602 C 0.84478 0.19142 0.68888 0.0
C1603 C 0.85366 0.1861 0.67118 0.0
C1604 C 0.85356 0.20059 0.71526 0.0
C1605 C 0.83002 0.17868 0.69794 0.0
C1606 C 0.81858 0.17988 0.68601 0.0
C1607 C 0.80394 0.16935 0.69108 0.0
C1608 C 0.80089 0.15733 0.709 0.0
C1609 C 0.81244 0.15594 0.72166 0.0
C1610 C 0.82718 0.16678 0.7159 0.0
H1611 H 0.62469 0.82077 0.8445 0.0
H1612 H 0.65891 0.80906 0.84203 0.0
H1613 H 0.67496 0.83189 0.81486 0.0
H1614 H 0.63091 0.83611 0.77251 0.0
H1615 H 0.6272 0.85053 0.7825 0.0
H1616 H 0.61851 0.83335 0.80204 0.0
H1617 H 0.62892 0.84737 0.85044 0.0
H1618 H 0.63767 0.86459 0.83104 0.0
H1619 H 0.64844 0.85966 0.85403 0.0
H1620 H 0.68736 0.85615 0.78835 0.0
H1621 H 0.6949 0.87961 0.76299 0.0
H1622 H 0.65238 0.8752 0.78214 0.0
C1623 C 0.63556 0.82299 0.83827 0.0
C1624 C 0.64056 0.81313 0.84544 0.0
C1625 C 0.65484 0.81644 0.83676 0.0
C1626 C 0.66405 0.8294 0.82137 0.0
C1627 C 0.65879 0.83889 0.81473 0.0
C1628 C 0.64486 0.83582 0.82278 0.0
C1629 C 0.64179 0.84775 0.81262 0.0
C1630 C 0.62883 0.84156 0.79114 0.0
C1631 C 0.63905 0.85529 0.83859 0.0
C1632 C 0.65617 0.85803 0.79762 0.0
C1633 C 0.66586 0.85275 0.79917 0.0
C1634 C 0.67986 0.86038 0.78696 0.0
C1635 C 0.68405 0.87371 0.77264 0.0
C1636 C 0.67423 0.87925 0.77054 0.0
C1637 C 0.66014 0.87127 0.78332 0.0
H1638 H 0.17273 0.81833 0.81881 0.0
H1639 H 0.16889 0.85511 0.7863 0.0
H1640 H 0.19221 0.87239 0.81061 0.0
H1641 H 0.18573 0.83285 0.88788 0.0
H1642 H 0.19818 0.82579 0.89103 0.0
H1643 H 0.18203 0.8164 0.86865 0.0
H1644 H 0.19824 0.8184 0.82447 0.0
H1645 H 0.21446 0.82777 0.84676 0.0
H1646 H 0.21307 0.83618 0.81363 0.0
H1647 H 0.21484 0.88554 0.84175 0.0
H1648 H 0.2351 0.89356 0.87717 0.0
H1649 H 0.22411 0.84816 0.88917 0.0
C1650 C 0.17691 0.83002 0.81635 0.0
C1651 C 0.16901 0.83537 0.80055 0.0
C1652 C 0.17478 0.85075 0.79821 0.0
C1653 C 0.18803 0.86066 0.8119 0.0
C1654 C 0.19541 0.85501 0.82773 0.0
C1655 C 0.1901 0.84005 0.8299 0.0
C1656 C 0.19967 0.83678 0.84958 0.0
C1657 C 0.19087 0.8274 0.87584 0.0
C1658 C 0.20678 0.82934 0.83259 0.0
C1659 C 0.21101 0.85221 0.85869 0.0
C1660 C 0.20844 0.86259 0.84566 0.0
C1661 C 0.21706 0.87753 0.85182 0.0
C1662 C 0.22853 0.88198 0.87201 0.0
C1663 C 0.23124 0.8715 0.88586 0.0
C1664 C 0.22243 0.85646 0.87875 0.0
H1665 H 0.22005 0.35076 0.78166 0.0
H1666 H 0.18776 0.31025 0.73995 0.0
H1667 H 0.16795 0.31116 0.76703 0.0
H1668 H 0.20243 0.34276 0.85208 0.0
H1669 H 0.20714 0.36153 0.85876 0.0
H1670 H 0.21881 0.35767 0.83618 0.0
H1671 H 0.21643 0.37293 0.79441 0.0
H1672 H 0.20474 0.37682 0.81684 0.0
H1673 H 0.19841 0.36843 0.7817 0.0
H1674 H 0.1516 0.31677 0.7976 0.0
H1675 H 0.13986 0.32629 0.8308 0.0
H1676 H 0.1828 0.36287 0.85346 0.0
C1677 C 0.20882 0.34206 0.77825 0.0
C1678 C 0.20546 0.33043 0.75864 0.0
C1679 C 0.19061 0.31925 0.75487 0.0
C1680 C 0.17927 0.31968 0.77013 0.0
C1681 C 0.18296 0.33131 0.78919 0.0
C1682 C 0.19737 0.34226 0.79342 0.0
C1683 C 0.19834 0.35352 0.81524 0.0
C1684 C 0.20721 0.35388 0.84216 0.0
C1685 C 0.20486 0.36883 0.8012 0.0
C1686 C 0.18222 0.34723 0.82249 0.0
C1687 C 0.17354 0.33444 0.80716 0.0
C1688 C 0.15828 0.32675 0.80982 0.0
C1689 C 0.15172 0.33226 0.8287 0.0
C1690 C 0.16041 0.34531 0.84479 0.0
C1691 C 0.17587 0.35284 0.84159 0.0
H1692 H 0.98292 0.52772 0.4351 0.0
H1693 H 0.02118 0.53108 0.39161 0.0
H1694 H 0.0185 0.50992 0.42005 0.0
H1695 H 0.99059 0.51816 0.50575 0.0
H1696 H 0.97153 0.5056 0.51401 0.0
H1697 H 0.97645 0.521 0.49018 0.0
H1698 H 0.95944 0.50327 0.45023 0.0
H1699 H 0.9545 0.4878 0.47391 0.0
H1700 H 0.96199 0.48833 0.4384 0.0
H1701 H 0.01141 0.48812 0.45255 0.0
H1702 H 0.00092 0.46774 0.48804 0.0
H1703 H 0.96753 0.47884 0.51099 0.0
C1704 C 0.99076 0.52403 0.43157 0.0
C1705 C 0.00226 0.53106 0.41108 0.0
C1706 C 0.01229 0.52589 0.40719 0.0
C1707 C 0.01085 0.51386 0.42322 0.0
C1708 C 0.99936 0.50715 0.44313 0.0
C1709 C 0.98953 0.51208 0.44748 0.0
C1710 C 0.97821 0.50298 0.47037 0.0
C1711 C 0.97926 0.5125 0.49663 0.0
C1712 C 0.96261 0.49513 0.45744 0.0
C1713 C 0.9832 0.49213 0.47815 0.0
C1714 C 0.99538 0.4947 0.46212 0.0
C1715 C 0.0019 0.48603 0.46528 0.0
C1716 C 0.99584 0.47446 0.48547 0.0
C1717 C 0.98342 0.47169 0.50234 0.0
C1718 C 0.97705 0.48068 0.4985 0.0
H1719 H 0.51028 0.45838 0.51199 0.0
H1720 H 0.50239 0.49228 0.47729 0.0
H1721 H 0.52521 0.51134 0.50063 0.0
H1722 H 0.52231 0.47437 0.58025 0.0
H1723 H 0.53603 0.46898 0.58449 0.0
H1724 H 0.52014 0.45817 0.56217 0.0
H1725 H 0.53703 0.4611 0.51858 0.0
H1726 H 0.55301 0.47191 0.54083 0.0
H1727 H 0.5508 0.47926 0.50699 0.0
H1728 H 0.54785 0.52653 0.53063 0.0
H1729 H 0.56804 0.53664 0.5665 0.0
H1730 H 0.56072 0.49271 0.58253 0.0
C1731 C 0.51351 0.46983 0.50879 0.0
C1732 C 0.50463 0.47386 0.49265 0.0
C1733 C 0.50906 0.48895 0.4895 0.0
C1734 C 0.52203 0.49985 0.50258 0.0
C1735 C 0.53041 0.49548 0.51875 0.0
C1736 C 0.52633 0.48082 0.52191 0.0
C1737 C 0.53661 0.47896 0.54228 0.0
C1738 C 0.52827 0.46957 0.56887 0.0
C1739 C 0.54485 0.47242 0.5262 0.0
C1740 C 0.54691 0.49483 0.55064 0.0
C1741 C 0.54329 0.5042 0.5365 0.0
C1742 C 0.55087 0.51931 0.54162 0.0
C1743 C 0.56233 0.52495 0.56204 0.0
C1744 C 0.56598 0.51547 0.5773 0.0
C1745 C 0.55826 0.50025 0.57112 0.0
H1746 H 0.51896 0.01722 0.49811 0.0
H1747 H 0.55704 0.05231 0.54164 0.0
H1748 H 0.57299 0.04454 0.51725 0.0
H1749 H 0.53106 0.99007 0.50113 0.0
H1750 H 0.52363 0.98267 0.46582 0.0
H1751 H 0.51514 0.99053 0.48789 0.0
H1752 H 0.51808 0.00829 0.44591 0.0
H1753 H 0.52659 0.00052 0.42375 0.0
H1754 H 0.53604 0.02004 0.43055 0.0
H1755 H 0.58497 0.034 0.48556 0.0
H1756 H 0.59199 0.02097 0.45001 0.0
H1757 H 0.546 0.9924 0.42827 0.0
C1758 C 0.53063 0.02319 0.50275 0.0
C1759 C 0.53675 0.03538 0.52178 0.0
C1760 C 0.55209 0.04291 0.5272 0.0
C1761 C 0.56124 0.03858 0.51345 0.0
C1762 C 0.55487 0.02662 0.49457 0.0
C1763 C 0.5399 0.01896 0.48938 0.0
C1764 C 0.53586 0.00674 0.46756 0.0
C1765 C 0.52583 0.99161 0.48144 0.0
C1766 C 0.52873 0.00905 0.44034 0.0
C1767 C 0.55092 0.0089 0.46087 0.0
C1768 C 0.56174 0.0204 0.47671 0.0
C1769 C 0.57658 0.02487 0.47326 0.0
C1770 C 0.58046 0.01743 0.45298 0.0
C1771 C 0.56954 0.00562 0.43651 0.0
C1772 C 0.55459 0.00126 0.44079 0.0
H1773 H 0.49599 0.97703 0.98641 0.0
H1774 H 0.51935 0.02359 0.00729 0.0
H1775 H 0.50042 0.02659 0.98134 0.0
H1776 H 0.48618 0.98091 0.91501 0.0
H1777 H 0.46836 0.96449 0.91592 0.0
H1778 H 0.48304 0.96573 0.93814 0.0
H1779 H 0.4668 0.9601 0.98408 0.0
H1780 H 0.45202 0.95879 0.96196 0.0
H1781 H 0.45874 0.97134 0.99223 0.0
H1782 H 0.47962 0.02475 0.95123 0.0
H1783 H 0.45864 0.01831 0.91847 0.0
H1784 H 0.44914 0.97303 0.91646 0.0
C1785 C 0.49702 0.98782 0.98591 0.0
C1786 C 0.50911 1.00007 0.99901 0.0
C1787 C 0.51016 0.01404 0.99747 0.0
C1788 C 0.49945 0.01585 0.98283 0.0
C1789 C 0.48778 0.00358 0.96982 0.0
C1790 C 0.48649 0.98984 0.97123 0.0
C1791 C 0.47329 0.9786 0.95418 0.0
C1792 C 0.478 0.97205 0.92934 0.0
C1793 C 0.46205 0.96649 0.97432 0.0
C1794 C 0.46747 0.98823 0.94263 0.0
C1795 C 0.47591 0.00257 0.95211 0.0
C1796 C 0.47288 0.01354 0.94379 0.0
C1797 C 0.46094 0.00977 0.92516 0.0
C1798 C 0.45224 0.99517 0.91489 0.0
C1799 C 0.45555 0.98428 0.92396 0.0
H1800 H 0.05026 0.49213 0.91326 0.0
H1801 H 0.02691 0.44456 0.92159 0.0
H1802 H 0.00961 0.44591 0.9561 0.0
H1803 H 0.04557 0.50038 0.98888 0.0
H1804 H 0.04299 0.5155 0.97843 0.0
H1805 H 0.05436 0.51088 0.95662 0.0
H1806 H 0.03857 0.50831 0.91133 0.0
H1807 H 0.02715 0.51287 0.93297 0.0
H1808 H 0.01897 0.49596 0.91258 0.0
H1809 H 0.99388 0.45229 0.98702 0.0
H1810 H 0.98066 0.46321 0.01144 0.0
H1811 H 0.01415 0.50658 0.98239 0.0
C1812 C 0.04167 0.48201 0.92274 0.0
C1813 C 0.03998 0.46824 0.91486 0.0
C1814 C 0.02844 0.45524 0.92738 0.0
C1815 C 0.01859 0.45589 0.94705 0.0
C1816 C 0.02043 0.46963 0.954 0.0
C1817 C 0.03169 0.48246 0.94227 0.0
C1818 C 0.03071 0.49573 0.95187 0.0
C1819 C 0.04421 0.50624 0.97003 0.0
C1820 C 0.02873 0.50368 0.92562 0.0
C1821 C 0.01695 0.48833 0.97038 0.0
C1822 C 0.01127 0.47329 0.97158 0.0
C1823 C 0.9983 0.46407 0.98646 0.0
C1824 C 0.99086 0.47038 0.00023 0.0
C1825 C 0.99638 0.48575 0.99889 0.0
C1826 C 0.00969 0.49481 0.98401 0.0
H1827 H 0.4463 0.4924 0.07085 0.0
H1828 H 0.47158 0.4711 0.09079 0.0
H1829 H 0.49227 0.48973 0.06144 0.0
H1830 H 0.45771 0.50025 0.99686 0.0
H1831 H 0.45818 0.51764 0.99624 0.0
H1832 H 0.44581 0.5033 0.0205 0.0
H1833 H 0.457 0.52102 0.06426 0.0
H1834 H 0.46942 0.53543 0.04012 0.0
H1835 H 0.47656 0.53009 0.07052 0.0
H1836 H 0.5102 0.51074 0.03011 0.0
H1837 H 0.52335 0.53138 0.99572 0.0
H1838 H 0.48571 0.53795 0.9936 0.0
C1839 C 0.45625 0.49176 0.06929 0.0
C1840 C 0.45743 0.48041 0.08328 0.0
C1841 C 0.4705 0.47974 0.08027 0.0
C1842 C 0.48231 0.4903 0.06375 0.0
C1843 C 0.48078 0.50132 0.0501 0.0
C1844 C 0.46804 0.50204 0.05244 0.0
C1845 C 0.46889 0.51447 0.03422 0.0
C1846 C 0.45694 0.50856 0.01055 0.0
C1847 C 0.46791 0.52593 0.05343 0.0
C1848 C 0.48408 0.5206 0.0212 0.0
C1849 C 0.49084 0.513 0.03097 0.0
C1850 C 0.505 0.51675 0.02224 0.0
C1851 C 0.51239 0.52851 0.00277 0.0
C1852 C 0.50552 0.53621 0.99192 0.0
C1853 C 0.4912 0.5322 0.00139 0.0
loop_
_geom_bond_atom_site_label_1
_geom_bond_atom_site_label_2
_geom_bond_distance
_geom_bond_site_symmetry_2
_ccdc_geom_bond_type
O0 Cd1 2.300 . S
O0 C7 1.275 . S
Cd1 O0 2.300 . S
Cd1 O9 2.381 . S
Cd1 O10 2.378 . S
O2 Cd3 2.385 . S
O2 C7 1.255 . S
Cd3 O2 2.385 . S
Cd3 O4 2.317 . S
O4 Cd3 2.317 . S
O4 C5 1.232 . S
C5 O4 1.232 . S
C5 O6 1.218 . S
O6 C5 1.218 . S
C7 O0 1.275 . S
C7 O2 1.255 . S
C8 O9 1.258 . S
C8 O10 1.256 . S
O9 Cd1 2.381 . S
O9 C8 1.258 . S
O10 Cd1 2.378 . S
O10 C8 1.256 . S
O11 Cd12 2.300 . S
O11 C18 1.275 . S
Cd12 O11 2.300 . S
Cd12 O20 2.381 . S
Cd12 O21 2.378 . S
O13 Cd14 2.385 . S
O13 C18 1.255 . S
Cd14 O13 2.385 . S
Cd14 O15 2.317 . S
O15 Cd14 2.317 . S
O15 C16 1.232 . S
C16 O15 1.232 . S
C16 O17 1.218 . S
O17 C16 1.218 . S
C18 O11 1.275 . S
C18 O13 1.255 . S
C19 O20 1.258 . S
C19 O21 1.256 . S
O20 Cd12 2.381 . S
O20 C19 1.258 . S
O21 Cd12 2.378 . S
O21 C19 1.256 . S
O22 Cd23 2.300 . S
O22 C29 1.275 . S
Cd23 O22 2.300 . S
Cd23 O31 2.381 . S
Cd23 O32 2.378 . S
O24 Cd25 2.385 . S
O24 C29 1.255 . S
Cd25 O24 2.385 . S
Cd25 O26 2.317 . S
O26 Cd25 2.317 . S
O26 C27 1.232 . S
C27 O26 1.232 . S
C27 O28 1.218 . S
O28 C27 1.218 . S
C29 O22 1.275 . S
C29 O24 1.255 . S
C30 O31 1.258 . S
C30 O32 1.256 . S
O31 Cd23 2.381 . S
O31 C30 1.258 . S
O32 Cd23 2.378 . S
O32 C30 1.256 . S
O33 Cd34 2.300 . S
O33 C40 1.275 . S
Cd34 O33 2.300 . S
Cd34 O42 2.381 . S
Cd34 O43 2.378 . S
O35 Cd36 2.385 . S
O35 C40 1.255 . S
Cd36 O35 2.385 . S
Cd36 O37 2.317 . S
O37 Cd36 2.317 . S
O37 C38 1.232 . S
C38 O37 1.232 . S
C38 O39 1.218 . S
O39 C38 1.218 . S
C40 O33 1.275 . S
C40 O35 1.255 . S
C41 O42 1.258 . S
C41 O43 1.256 . S
O42 Cd34 2.381 . S
O42 C41 1.258 . S
O43 Cd34 2.378 . S
O43 C41 1.256 . S
O44 Cd45 2.300 . S
O44 C51 1.275 . S
Cd45 O44 2.300 . S
Cd45 O53 2.381 . S
Cd45 O54 2.378 . S
O46 Cd47 2.385 . S
O46 C51 1.255 . S
Cd47 O46 2.385 . S
Cd47 O48 2.317 . S
O48 Cd47 2.317 . S
O48 C49 1.232 . S
C49 O48 1.232 . S
C49 O50 1.218 . S
O50 C49 1.218 . S
C51 O44 1.275 . S
C51 O46 1.255 . S
C52 O53 1.258 . S
C52 O54 1.256 . S
O53 Cd45 2.381 . S
O53 C52 1.258 . S
O54 Cd45 2.378 . S
O54 C52 1.256 . S
O55 Cd56 2.300 . S
O55 C62 1.275 . S
Cd56 O55 2.300 . S
Cd56 O64 2.381 . S
Cd56 O65 2.378 . S
O57 Cd58 2.385 . S
O57 C62 1.255 . S
Cd58 O57 2.385 . S
Cd58 O59 2.317 . S
O59 Cd58 2.317 . S
O59 C60 1.232 . S
C60 O59 1.232 . S
C60 O61 1.218 . S
O61 C60 1.218 . S
C62 O55 1.275 . S
C62 O57 1.255 . S
C63 O64 1.258 . S
C63 O65 1.256 . S
O64 Cd56 2.381 . S
O64 C63 1.258 . S
O65 Cd56 2.378 . S
O65 C63 1.256 . S
O66 Cd67 2.300 . S
O66 C73 1.275 . S
Cd67 O66 2.300 . S
Cd67 O75 2.381 . S
Cd67 O76 2.378 . S
O68 Cd69 2.385 . S
O68 C73 1.255 . S
Cd69 O68 2.385 . S
Cd69 O70 2.317 . S
O70 Cd69 2.317 . S
O70 C71 1.232 . S
C71 O70 1.232 . S
C71 O72 1.218 . S
O72 C71 1.218 . S
C73 O66 1.275 . S
C73 O68 1.255 . S
C74 O75 1.258 . S
C74 O76 1.256 . S
O75 Cd67 2.381 . S
O75 C74 1.258 . S
O76 Cd67 2.378 . S
O76 C74 1.256 . S
O77 Cd78 2.300 . S
O77 C84 1.275 . S
Cd78 O77 2.300 . S
Cd78 O86 2.381 . S
Cd78 O87 2.378 . S
O79 Cd80 2.385 . S
O79 C84 1.255 . S
Cd80 O79 2.385 . S
Cd80 O81 2.317 . S
O81 Cd80 2.317 . S
O81 C82 1.232 . S
C82 O81 1.232 . S
C82 O83 1.218 . S
O83 C82 1.218 . S
C84 O77 1.275 . S
C84 O79 1.255 . S
C85 O86 1.258 . S
C85 O87 1.256 . S
O86 Cd78 2.381 . S
O86 C85 1.258 . S
O87 Cd78 2.378 . S
O87 C85 1.256 . S
O88 Cd89 2.300 . S
O88 C95 1.275 . S
Cd89 O88 2.300 . S
Cd89 O97 2.381 . S
Cd89 O98 2.378 . S
O90 Cd91 2.385 . S
O90 C95 1.255 . S
Cd91 O90 2.385 . S
Cd91 O92 2.317 . S
O92 Cd91 2.317 . S
O92 C93 1.232 . S
C93 O92 1.232 . S
C93 O94 1.218 . S
O94 C93 1.218 . S
C95 O88 1.275 . S
C95 O90 1.255 . S
C96 O97 1.258 . S
C96 O98 1.256 . S
O97 Cd89 2.381 . S
O97 C96 1.258 . S
O98 Cd89 2.378 . S
O98 C96 1.256 . S
O99 Cd100 2.300 . S
O99 C106 1.275 . S
Cd100 O99 2.300 . S
Cd100 O108 2.381 . S
Cd100 O109 2.378 . S
O101 Cd102 2.385 . S
O101 C106 1.255 . S
Cd102 O101 2.385 . S
Cd102 O103 2.317 . S
O103 Cd102 2.317 . S
O103 C104 1.232 . S
C104 O103 1.232 . S
C104 O105 1.218 . S
O105 C104 1.218 . S
C106 O99 1.275 . S
C106 O101 1.255 . S
C107 O108 1.258 . S
C107 O109 1.256 . S
O108 Cd100 2.381 . S
O108 C107 1.258 . S
O109 Cd100 2.378 . S
O109 C107 1.256 . S
O110 Cd111 2.300 . S
O110 C117 1.275 . S
Cd111 O110 2.300 . S
Cd111 O119 2.381 . S
Cd111 O120 2.378 . S
O112 Cd113 2.385 . S
O112 C117 1.255 . S
Cd113 O112 2.385 . S
Cd113 O114 2.317 . S
O114 Cd113 2.317 . S
O114 C115 1.232 . S
C115 O114 1.232 . S
C115 O116 1.218 . S
O116 C115 1.218 . S
C117 O110 1.275 . S
C117 O112 1.255 . S
C118 O119 1.258 . S
C118 O120 1.256 . S
O119 Cd111 2.381 . S
O119 C118 1.258 . S
O120 Cd111 2.378 . S
O120 C118 1.256 . S
O121 Cd122 2.300 . S
O121 C128 1.275 . S
Cd122 O121 2.300 . S
Cd122 O130 2.381 . S
Cd122 O131 2.378 . S
O123 Cd124 2.385 . S
O123 C128 1.255 . S
Cd124 O123 2.385 . S
Cd124 O125 2.317 . S
O125 Cd124 2.317 . S
O125 C126 1.232 . S
C126 O125 1.232 . S
C126 O127 1.218 . S
O127 C126 1.218 . S
C128 O121 1.275 . S
C128 O123 1.255 . S
C129 O130 1.258 . S
C129 O131 1.256 . S
O130 Cd122 2.381 . S
O130 C129 1.258 . S
O131 Cd122 2.378 . S
O131 C129 1.256 . S
O132 Cd133 2.300 . S
O132 C139 1.275 . S
Cd133 O132 2.300 . S
Cd133 O141 2.381 . S
Cd133 O142 2.378 . S
O134 Cd135 2.385 . S
O134 C139 1.255 . S
Cd135 O134 2.385 . S
Cd135 O136 2.317 . S
O136 Cd135 2.317 . S
O136 C137 1.232 . S
C137 O136 1.232 . S
C137 O138 1.218 . S
O138 C137 1.218 . S
C139 O132 1.275 . S
C139 O134 1.255 . S
C140 O141 1.258 . S
C140 O142 1.256 . S
O141 Cd133 2.381 . S
O141 C140 1.258 . S
O142 Cd133 2.378 . S
O142 C140 1.256 . S
O143 Cd144 2.300 . S
O143 C150 1.275 . S
Cd144 O143 2.300 . S
Cd144 O152 2.381 . S
Cd144 O153 2.378 . S
O145 Cd146 2.385 . S
O145 C150 1.255 . S
Cd146 O145 2.385 . S
Cd146 O147 2.317 . S
O147 Cd146 2.317 . S
O147 C148 1.232 . S
C148 O147 1.232 . S
C148 O149 1.218 . S
O149 C148 1.218 . S
C150 O143 1.275 . S
C150 O145 1.255 . S
C151 O152 1.258 . S
C151 O153 1.256 . S
O152 Cd144 2.381 . S
O152 C151 1.258 . S
O153 Cd144 2.378 . S
O153 C151 1.256 . S
O154 Cd155 2.300 . S
O154 C161 1.275 . S
Cd155 O154 2.300 . S
Cd155 O163 2.381 . S
Cd155 O164 2.378 . S
O156 Cd157 2.385 . S
O156 C161 1.255 . S
Cd157 O156 2.385 . S
Cd157 O158 2.317 . S
O158 Cd157 2.317 . S
O158 C159 1.232 . S
C159 O158 1.232 . S
C159 O160 1.218 . S
O160 C159 1.218 . S
C161 O154 1.275 . S
C161 O156 1.255 . S
C162 O163 1.258 . S
C162 O164 1.256 . S
O163 Cd155 2.381 . S
O163 C162 1.258 . S
O164 Cd155 2.378 . S
O164 C162 1.256 . S
O165 Cd166 2.300 1_655 S
O165 C172 1.274 . S
Cd166 O165 2.300 1_455 S
Cd166 O174 2.381 1_455 S
Cd166 O175 2.378 . S
O167 Cd168 2.385 . S
O167 C172 1.257 1_455 S
Cd168 O167 2.385 . S
Cd168 O169 2.317 1_455 S
O169 Cd168 2.317 1_655 S
O169 C170 1.232 . S
C170 O169 1.232 . S
C170 O171 1.218 . S
O171 C170 1.218 . S
C172 O165 1.274 . S
C172 O167 1.257 1_655 S
C173 O174 1.239 1_455 S
C173 O175 1.309 . S
O174 Cd166 2.381 1_655 S
O174 C173 1.239 1_655 S
O175 Cd166 2.378 . S
O175 C173 1.309 . S
O176 Cd177 2.300 . S
O176 C183 1.275 . S
Cd177 O176 2.300 . S
Cd177 O185 2.381 . S
Cd177 O186 2.378 . S
O178 Cd179 2.385 . S
O178 C183 1.255 . S
Cd179 O178 2.385 . S
Cd179 O180 2.317 . S
O180 Cd179 2.317 . S
O180 C181 1.232 . S
C181 O180 1.232 . S
C181 O182 1.218 . S
O182 C181 1.218 . S
C183 O176 1.275 . S
C183 O178 1.255 . S
C184 O185 1.258 . S
C184 O186 1.256 . S
O185 Cd177 2.381 . S
O185 C184 1.258 . S
O186 Cd177 2.378 . S
O186 C184 1.256 . S
O187 Cd188 2.300 1_545 S
O187 C194 1.278 . S
Cd188 O187 2.300 1_565 S
Cd188 O196 2.381 1_565 S
Cd188 O197 2.378 . S
O189 Cd190 2.385 . S
O189 C194 1.255 1_565 S
Cd190 O189 2.385 . S
Cd190 O191 2.317 1_565 S
O191 Cd190 2.317 1_545 S
O191 C192 1.232 . S
C192 O191 1.232 . S
C192 O193 1.218 . S
O193 C192 1.218 . S
C194 O187 1.278 . S
C194 O189 1.255 1_545 S
C195 O196 1.238 1_565 S
C195 O197 1.248 . S
O196 Cd188 2.381 1_545 S
O196 C195 1.238 1_545 S
O197 Cd188 2.378 . S
O197 C195 1.248 . S
O198 Cd199 2.300 1_565 S
O198 C205 1.275 1_565 S
Cd199 O198 2.300 1_545 S
Cd199 O207 2.381 1_545 S
Cd199 O208 2.378 . S
O200 Cd201 2.385 . S
O200 C205 1.255 . S
Cd201 O200 2.385 . S
Cd201 O202 2.317 . S
O202 Cd201 2.317 . S
O202 C203 1.232 . S
C203 O202 1.232 . S
C203 O204 1.218 . S
O204 C203 1.218 . S
C205 O198 1.275 1_545 S
C205 O200 1.255 . S
C206 O207 1.258 1_545 S
C206 O208 1.256 . S
O207 Cd199 2.381 1_565 S
O207 C206 1.258 1_565 S
O208 Cd199 2.378 . S
O208 C206 1.256 . S
O209 Cd210 2.300 1_455 S
O209 C216 1.275 1_455 S
Cd210 O209 2.300 1_655 S
Cd210 O218 2.381 1_655 S
Cd210 O219 2.378 . S
O211 Cd212 2.385 . S
O211 C216 1.255 . S
Cd212 O211 2.385 . S
Cd212 O213 2.317 . S
O213 Cd212 2.317 . S
O213 C214 1.232 . S
C214 O213 1.232 . S
C214 O215 1.218 . S
O215 C214 1.218 . S
C216 O209 1.275 1_655 S
C216 O211 1.255 . S
C217 O218 1.258 1_655 S
C217 O219 1.256 . S
O218 Cd210 2.381 1_455 S
O218 C217 1.258 1_455 S
O219 Cd210 2.378 . S
O219 C217 1.256 . S
O220 Cd221 2.300 . S
O220 C227 1.275 . S
Cd221 O220 2.300 . S
Cd221 O229 2.381 . S
Cd221 O230 2.378 . S
O222 Cd223 2.385 . S
O222 C227 1.255 . S
Cd223 O222 2.385 . S
Cd223 O224 2.317 . S
O224 Cd223 2.317 . S
O224 C225 1.232 . S
C225 O224 1.232 . S
C225 O226 1.218 . S
O226 C225 1.218 . S
C227 O220 1.275 . S
C227 O222 1.255 . S
C228 O229 1.258 . S
C228 O230 1.256 . S
O229 Cd221 2.381 . S
O229 C228 1.258 . S
O230 Cd221 2.378 . S
O230 C228 1.256 . S
O231 Cd232 2.300 . S
O231 C238 1.275 . S
Cd232 O231 2.300 . S
Cd232 O240 2.381 . S
Cd232 O241 2.378 . S
O233 Cd234 2.385 . S
O233 C238 1.255 . S
Cd234 O233 2.385 . S
Cd234 O235 2.317 . S
O235 Cd234 2.317 . S
O235 C236 1.232 . S
C236 O235 1.232 . S
C236 O237 1.218 . S
O237 C236 1.218 . S
C238 O231 1.275 . S
C238 O233 1.255 . S
C239 O240 1.258 . S
C239 O241 1.256 . S
O240 Cd232 2.381 . S
O240 C239 1.258 . S
O241 Cd232 2.378 . S
O241 C239 1.256 . S
O242 Cd243 2.300 . S
O242 C249 1.275 . S
Cd243 O242 2.300 . S
Cd243 O251 2.381 . S
Cd243 O252 2.378 . S
O244 Cd245 2.385 . S
O244 C249 1.255 . S
Cd245 O244 2.385 . S
Cd245 O246 2.317 . S
O246 Cd245 2.317 . S
O246 C247 1.232 . S
C247 O246 1.232 . S
C247 O248 1.218 . S
O248 C247 1.218 . S
C249 O242 1.275 . S
C249 O244 1.255 . S
C250 O251 1.258 . S
C250 O252 1.256 . S
O251 Cd243 2.381 . S
O251 C250 1.258 . S
O252 Cd243 2.378 . S
O252 C250 1.256 . S
O253 Cd254 2.300 . S
O253 C260 1.275 . S
Cd254 O253 2.300 . S
Cd254 O262 2.381 . S
Cd254 O263 2.378 . S
O255 Cd256 2.385 . S
O255 C260 1.255 . S
Cd256 O255 2.385 . S
Cd256 O257 2.317 . S
O257 Cd256 2.317 . S
O257 C258 1.232 . S
C258 O257 1.232 . S
C258 O259 1.218 . S
O259 C258 1.218 . S
C260 O253 1.275 . S
C260 O255 1.255 . S
C261 O262 1.258 . S
C261 O263 1.256 . S
O262 Cd254 2.381 . S
O262 C261 1.258 . S
O263 Cd254 2.378 . S
O263 C261 1.256 . S
O264 Cd265 2.300 1_565 S
O264 C271 1.278 . S
Cd265 O264 2.300 1_545 S
Cd265 O273 2.381 1_545 S
Cd265 O274 2.378 . S
O266 Cd267 2.385 . S
O266 C271 1.253 1_545 S
Cd267 O266 2.385 . S
Cd267 O268 2.317 1_545 S
O268 Cd267 2.317 1_565 S
O268 C269 1.232 . S
C269 O268 1.232 . S
C269 O270 1.218 . S
O270 C269 1.218 . S
C271 O264 1.278 . S
C271 O266 1.253 1_565 S
C272 O273 1.240 1_545 S
C272 O274 1.305 . S
O273 Cd265 2.381 1_565 S
O273 C272 1.240 1_565 S
O274 Cd265 2.378 . S
O274 C272 1.305 . S
O275 Cd276 2.300 1_455 S
O275 C282 1.276 . S
Cd276 O275 2.300 1_655 S
Cd276 O284 2.381 1_655 S
Cd276 O285 2.378 . S
O277 Cd278 2.385 . S
O277 C282 1.255 1_655 S
Cd278 O277 2.385 . S
Cd278 O279 2.317 1_655 S
O279 Cd278 2.317 1_455 S
O279 C280 1.232 . S
C280 O279 1.232 . S
C280 O281 1.218 . S
O281 C280 1.218 . S
C282 O275 1.276 . S
C282 O277 1.255 1_455 S
C283 O284 1.240 1_655 S
C283 O285 1.248 . S
O284 Cd276 2.381 1_455 S
O284 C283 1.240 1_455 S
O285 Cd276 2.378 . S
O285 C283 1.248 . S
O286 Cd287 2.300 . S
O286 C293 1.275 . S
Cd287 O286 2.300 . S
Cd287 O295 2.381 . S
Cd287 O296 2.378 . S
O288 Cd289 2.385 . S
O288 C293 1.255 . S
Cd289 O288 2.385 . S
Cd289 O290 2.317 . S
O290 Cd289 2.317 . S
O290 C291 1.232 . S
C291 O290 1.232 . S
C291 O292 1.218 . S
O292 C291 1.218 . S
C293 O286 1.275 . S
C293 O288 1.255 . S
C294 O295 1.258 . S
C294 O296 1.256 . S
O295 Cd287 2.381 . S
O295 C294 1.258 . S
O296 Cd287 2.378 . S
O296 C294 1.256 . S
O297 Cd298 2.300 . S
O297 C304 1.275 . S
Cd298 O297 2.300 . S
Cd298 O306 2.381 . S
Cd298 O307 2.378 . S
O299 Cd300 2.385 . S
O299 C304 1.255 . S
Cd300 O299 2.385 . S
Cd300 O301 2.317 . S
O301 Cd300 2.317 . S
O301 C302 1.232 . S
C302 O301 1.232 . S
C302 O303 1.218 . S
O303 C302 1.218 . S
C304 O297 1.275 . S
C304 O299 1.255 . S
C305 O306 1.258 . S
C305 O307 1.256 . S
O306 Cd298 2.381 . S
O306 C305 1.258 . S
O307 Cd298 2.378 . S
O307 C305 1.256 . S
O308 Cd309 2.300 . S
O308 C315 1.275 . S
Cd309 O308 2.300 . S
Cd309 O317 2.381 . S
Cd309 O318 2.378 . S
O310 Cd311 2.385 . S
O310 C315 1.255 . S
Cd311 O310 2.385 . S
Cd311 O312 2.317 . S
O312 Cd311 2.317 . S
O312 C313 1.232 . S
C313 O312 1.232 . S
C313 O314 1.218 . S
O314 C313 1.218 . S
C315 O308 1.275 . S
C315 O310 1.255 . S
C316 O317 1.258 . S
C316 O318 1.256 . S
O317 Cd309 2.381 . S
O317 C316 1.258 . S
O318 Cd309 2.378 . S
O318 C316 1.256 . S
O319 Cd320 2.300 . S
O319 C326 1.275 . S
Cd320 O319 2.300 . S
Cd320 O328 2.381 . S
Cd320 O329 2.378 . S
O321 Cd322 2.385 . S
O321 C326 1.255 . S
Cd322 O321 2.385 . S
Cd322 O323 2.317 . S
O323 Cd322 2.317 . S
O323 C324 1.232 . S
C324 O323 1.232 . S
C324 O325 1.218 . S
O325 C324 1.218 . S
C326 O319 1.275 . S
C326 O321 1.255 . S
C327 O328 1.258 . S
C327 O329 1.256 . S
O328 Cd320 2.381 . S
O328 C327 1.258 . S
O329 Cd320 2.378 . S
O329 C327 1.256 . S
O330 Cd331 2.300 . S
O330 C337 1.275 . S
Cd331 O330 2.300 . S
Cd331 O339 2.381 . S
Cd331 O340 2.378 . S
O332 Cd333 2.385 . S
O332 C337 1.255 . S
Cd333 O332 2.385 . S
Cd333 O334 2.317 . S
O334 Cd333 2.317 . S
O334 C335 1.232 . S
C335 O334 1.232 . S
C335 O336 1.218 . S
O336 C335 1.218 . S
C337 O330 1.275 . S
C337 O332 1.255 . S
C338 O339 1.258 . S
C338 O340 1.256 . S
O339 Cd331 2.381 . S
O339 C338 1.258 . S
O340 Cd331 2.378 . S
O340 C338 1.256 . S
O341 Cd342 2.300 . S
O341 C348 1.275 . S
Cd342 O341 2.300 . S
Cd342 O350 2.381 . S
Cd342 O351 2.378 . S
O343 Cd344 2.385 . S
O343 C348 1.255 . S
Cd344 O343 2.385 . S
Cd344 O345 2.317 . S
O345 Cd344 2.317 . S
O345 C346 1.232 . S
C346 O345 1.232 . S
C346 O347 1.218 . S
O347 C346 1.218 . S
C348 O341 1.275 . S
C348 O343 1.255 . S
C349 O350 1.258 . S
C349 O351 1.256 . S
O350 Cd342 2.381 . S
O350 C349 1.258 . S
O351 Cd342 2.378 . S
O351 C349 1.256 . S
O352 Cd353 2.300 . S
O352 C359 1.275 . S
Cd353 O352 2.300 . S
Cd353 O361 2.381 . S
Cd353 O362 2.378 . S
O354 Cd355 2.385 . S
O354 C359 1.255 . S
Cd355 O354 2.385 . S
Cd355 O356 2.317 . S
O356 Cd355 2.317 . S
O356 C357 1.232 . S
C357 O356 1.232 . S
C357 O358 1.218 . S
O358 C357 1.218 . S
C359 O352 1.275 . S
C359 O354 1.255 . S
C360 O361 1.258 . S
C360 O362 1.256 . S
O361 Cd353 2.381 . S
O361 C360 1.258 . S
O362 Cd353 2.378 . S
O362 C360 1.256 . S
O363 Cd364 2.300 1_655 S
O363 C370 1.275 1_655 S
Cd364 O363 2.300 1_455 S
Cd364 O372 2.381 1_455 S
Cd364 O373 2.378 . S
O365 Cd366 2.385 . S
O365 C370 1.255 . S
Cd366 O365 2.385 . S
Cd366 O367 2.317 . S
O367 Cd366 2.317 . S
O367 C368 1.232 . S
C368 O367 1.232 . S
C368 O369 1.218 . S
O369 C368 1.218 . S
C370 O363 1.275 1_455 S
C370 O365 1.255 . S
C371 O372 1.258 1_455 S
C371 O373 1.256 . S
O372 Cd364 2.381 1_655 S
O372 C371 1.258 1_655 S
O373 Cd364 2.378 . S
O373 C371 1.256 . S
O374 Cd375 2.300 . S
O374 C381 1.275 . S
Cd375 O374 2.300 . S
Cd375 O383 2.381 . S
Cd375 O384 2.378 . S
O376 Cd377 2.385 . S
O376 C381 1.255 . S
Cd377 O376 2.385 . S
Cd377 O378 2.317 . S
O378 Cd377 2.317 . S
O378 C379 1.232 . S
C379 O378 1.232 . S
C379 O380 1.218 . S
O380 C379 1.218 . S
C381 O374 1.275 . S
C381 O376 1.255 . S
C382 O383 1.258 . S
C382 O384 1.256 . S
O383 Cd375 2.381 . S
O383 C382 1.258 . S
O384 Cd375 2.378 . S
O384 C382 1.256 . S
O385 Cd386 2.300 1_545 S
O385 C392 1.275 1_545 S
Cd386 O385 2.300 1_565 S
Cd386 O394 2.381 1_565 S
Cd386 O395 2.378 . S
O387 Cd388 2.385 . S
O387 C392 1.255 . S
Cd388 O387 2.385 . S
Cd388 O389 2.317 . S
O389 Cd388 2.317 . S
O389 C390 1.232 . S
C390 O389 1.232 . S
C390 O391 1.218 . S
O391 C390 1.218 . S
C392 O385 1.275 1_565 S
C392 O387 1.255 . S
C393 O394 1.258 1_565 S
C393 O395 1.256 . S
O394 Cd386 2.381 1_545 S
O394 C393 1.258 1_545 S
O395 Cd386 2.378 . S
O395 C393 1.256 . S
H396 C408 0.930 . S
H397 C410 0.930 . S
H398 C411 0.930 . S
H399 C415 0.959 . S
H400 C415 0.959 . S
H401 C415 0.961 . S
H402 C416 0.960 . S
H403 C416 0.961 . S
H404 C416 0.959 . S
H405 C419 0.929 . S
H406 C420 0.931 . S
H407 C422 0.930 . S
C408 H396 0.930 . S
C408 C409 1.399 . S
C408 C413 1.399 . S
C409 C408 1.399 . S
C409 C410 1.376 . S
C410 H397 0.930 . S
C410 C409 1.376 . S
C410 C411 1.388 . S
C411 H398 0.930 . S
C411 C410 1.388 . S
C411 C412 1.390 . S
C412 C411 1.390 . S
C412 C413 1.394 . S
C412 C418 1.465 . S
C413 C408 1.399 . S
C413 C412 1.394 . S
C413 C414 1.516 . S
C414 C413 1.516 . S
C414 C415 1.502 . S
C414 C416 1.561 . S
C414 C417 1.526 . S
C415 H399 0.959 . S
C415 H400 0.959 . S
C415 H401 0.961 . S
C415 C414 1.502 . S
C416 H402 0.960 . S
C416 H403 0.961 . S
C416 H404 0.959 . S
C416 C414 1.561 . S
C417 C414 1.526 . S
C417 C418 1.396 . S
C417 C422 1.390 . S
C418 C412 1.465 . S
C418 C417 1.396 . S
C418 C419 1.399 . S
C419 H405 0.929 . S
C419 C418 1.399 . S
C419 C420 1.385 . S
C420 H406 0.931 . S
C420 C419 1.385 . S
C420 C421 1.389 . S
C421 C420 1.389 . S
C421 C422 1.387 . S
C422 H407 0.930 . S
C422 C417 1.390 . S
C422 C421 1.387 . S
H423 C435 0.930 . S
H424 C437 0.930 . S
H425 C438 0.930 . S
H426 C442 0.959 . S
H427 C442 0.959 . S
H428 C442 0.961 . S
H429 C443 0.960 . S
H430 C443 0.961 . S
H431 C443 0.959 . S
H432 C446 0.929 . S
H433 C447 0.931 . S
H434 C449 0.930 . S
C435 H423 0.930 . S
C435 C436 1.399 . S
C435 C440 1.399 . S
C436 C435 1.399 . S
C436 C437 1.376 . S
C437 H424 0.930 . S
C437 C436 1.376 . S
C437 C438 1.388 . S
C438 H425 0.930 . S
C438 C437 1.388 . S
C438 C439 1.390 . S
C439 C438 1.390 . S
C439 C440 1.394 . S
C439 C445 1.465 . S
C440 C435 1.399 . S
C440 C439 1.394 . S
C440 C441 1.516 . S
C441 C440 1.516 . S
C441 C442 1.502 . S
C441 C443 1.561 . S
C441 C444 1.526 . S
C442 H426 0.959 . S
C442 H427 0.959 . S
C442 H428 0.961 . S
C442 C441 1.502 . S
C443 H429 0.960 . S
C443 H430 0.961 . S
C443 H431 0.959 . S
C443 C441 1.561 . S
C444 C441 1.526 . S
C444 C445 1.396 . S
C444 C449 1.390 . S
C445 C439 1.465 . S
C445 C444 1.396 . S
C445 C446 1.399 . S
C446 H432 0.929 . S
C446 C445 1.399 . S
C446 C447 1.385 . S
C447 H433 0.931 . S
C447 C446 1.385 . S
C447 C448 1.389 . S
C448 C447 1.389 . S
C448 C449 1.387 . S
C449 H434 0.930 . S
C449 C444 1.390 . S
C449 C448 1.387 . S
H450 C462 0.930 . S
H451 C464 0.930 . S
H452 C465 0.930 . S
H453 C469 0.959 . S
H454 C469 0.959 . S
H455 C469 0.961 . S
H456 C470 0.960 . S
H457 C470 0.961 . S
H458 C470 0.959 . S
H459 C473 0.929 . S
H460 C474 0.931 . S
H461 C476 0.930 . S
C462 H450 0.930 . S
C462 C463 1.399 . S
C462 C467 1.399 . S
C463 C462 1.399 . S
C463 C464 1.376 . S
C464 H451 0.930 . S
C464 C463 1.376 . S
C464 C465 1.388 . S
C465 H452 0.930 . S
C465 C464 1.388 . S
C465 C466 1.390 . S
C466 C465 1.390 . S
C466 C467 1.394 . S
C466 C472 1.465 . S
C467 C462 1.399 . S
C467 C466 1.394 . S
C467 C468 1.516 . S
C468 C467 1.516 . S
C468 C469 1.502 . S
C468 C470 1.561 . S
C468 C471 1.526 . S
C469 H453 0.959 . S
C469 H454 0.959 . S
C469 H455 0.961 . S
C469 C468 1.502 . S
C470 H456 0.960 . S
C470 H457 0.961 . S
C470 H458 0.959 . S
C470 C468 1.561 . S
C471 C468 1.526 . S
C471 C472 1.396 . S
C471 C476 1.390 . S
C472 C466 1.465 . S
C472 C471 1.396 . S
C472 C473 1.399 . S
C473 H459 0.929 . S
C473 C472 1.399 . S
C473 C474 1.385 . S
C474 H460 0.931 . S
C474 C473 1.385 . S
C474 C475 1.389 . S
C475 C474 1.389 . S
C475 C476 1.387 . S
C476 H461 0.930 . S
C476 C471 1.390 . S
C476 C475 1.387 . S
H477 C489 0.930 . S
H478 C491 0.930 . S
H479 C492 0.930 . S
H480 C496 0.959 . S
H481 C496 0.959 . S
H482 C496 0.961 . S
H483 C497 0.960 . S
H484 C497 0.961 . S
H485 C497 0.959 . S
H486 C500 0.929 . S
H487 C501 0.931 . S
H488 C503 0.930 . S
C489 H477 0.930 . S
C489 C490 1.399 . S
C489 C494 1.399 . S
C490 C489 1.399 . S
C490 C491 1.376 . S
C491 H478 0.930 . S
C491 C490 1.376 . S
C491 C492 1.388 . S
C492 H479 0.930 . S
C492 C491 1.388 . S
C492 C493 1.390 . S
C493 C492 1.390 . S
C493 C494 1.394 . S
C493 C499 1.465 . S
C494 C489 1.399 . S
C494 C493 1.394 . S
C494 C495 1.516 . S
C495 C494 1.516 . S
C495 C496 1.502 . S
C495 C497 1.561 . S
C495 C498 1.526 . S
C496 H480 0.959 . S
C496 H481 0.959 . S
C496 H482 0.961 . S
C496 C495 1.502 . S
C497 H483 0.960 . S
C497 H484 0.961 . S
C497 H485 0.959 . S
C497 C495 1.561 . S
C498 C495 1.526 . S
C498 C499 1.396 . S
C498 C503 1.390 . S
C499 C493 1.465 . S
C499 C498 1.396 . S
C499 C500 1.399 . S
C500 H486 0.929 . S
C500 C499 1.399 . S
C500 C501 1.385 . S
C501 H487 0.931 . S
C501 C500 1.385 . S
C501 C502 1.389 . S
C502 C501 1.389 . S
C502 C503 1.387 . S
C503 H488 0.930 . S
C503 C498 1.390 . S
C503 C502 1.387 . S
H504 C516 0.930 . S
H505 C518 0.930 . S
H506 C519 0.930 . S
H507 C523 0.959 . S
H508 C523 0.959 . S
H509 C523 0.961 . S
H510 C524 0.960 . S
H511 C524 0.961 . S
H512 C524 0.959 . S
H513 C527 0.929 . S
H514 C528 0.931 . S
H515 C530 0.930 . S
C516 H504 0.930 . S
C516 C517 1.399 . S
C516 C521 1.399 . S
C517 C516 1.399 . S
C517 C518 1.376 . S
C518 H505 0.930 . S
C518 C517 1.376 . S
C518 C519 1.388 . S
C519 H506 0.930 . S
C519 C518 1.388 . S
C519 C520 1.390 . S
C520 C519 1.390 . S
C520 C521 1.394 . S
C520 C526 1.465 . S
C521 C516 1.399 . S
C521 C520 1.394 . S
C521 C522 1.516 . S
C522 C521 1.516 . S
C522 C523 1.502 . S
C522 C524 1.561 . S
C522 C525 1.526 . S
C523 H507 0.959 . S
C523 H508 0.959 . S
C523 H509 0.961 . S
C523 C522 1.502 . S
C524 H510 0.960 . S
C524 H511 0.961 . S
C524 H512 0.959 . S
C524 C522 1.561 . S
C525 C522 1.526 . S
C525 C526 1.396 . S
C525 C530 1.390 . S
C526 C520 1.465 . S
C526 C525 1.396 . S
C526 C527 1.399 . S
C527 H513 0.929 . S
C527 C526 1.399 . S
C527 C528 1.385 . S
C528 H514 0.931 . S
C528 C527 1.385 . S
C528 C529 1.389 . S
C529 C528 1.389 . S
C529 C530 1.387 . S
C530 H515 0.930 . S
C530 C525 1.390 . S
C530 C529 1.387 . S
H531 C543 0.930 . S
H532 C545 0.930 . S
H533 C546 0.930 . S
H534 C550 0.959 . S
H535 C550 0.959 . S
H536 C550 0.961 . S
H537 C551 0.960 . S
H538 C551 0.961 . S
H539 C551 0.959 . S
H540 C554 0.929 . S
H541 C555 0.931 . S
H542 C557 0.930 . S
C543 H531 0.930 . S
C543 C544 1.399 . S
C543 C548 1.399 . S
C544 C543 1.399 . S
C544 C545 1.376 . S
C545 H532 0.930 . S
C545 C544 1.376 . S
C545 C546 1.388 . S
C546 H533 0.930 . S
C546 C545 1.388 . S
C546 C547 1.390 . S
C547 C546 1.390 . S
C547 C548 1.394 . S
C547 C553 1.465 . S
C548 C543 1.399 . S
C548 C547 1.394 . S
C548 C549 1.516 . S
C549 C548 1.516 . S
C549 C550 1.502 . S
C549 C551 1.561 . S
C549 C552 1.526 . S
C550 H534 0.959 . S
C550 H535 0.959 . S
C550 H536 0.961 . S
C550 C549 1.502 . S
C551 H537 0.960 . S
C551 H538 0.961 . S
C551 H539 0.959 . S
C551 C549 1.561 . S
C552 C549 1.526 . S
C552 C553 1.396 . S
C552 C557 1.390 . S
C553 C547 1.465 . S
C553 C552 1.396 . S
C553 C554 1.399 . S
C554 H540 0.929 . S
C554 C553 1.399 . S
C554 C555 1.385 . S
C555 H541 0.931 . S
C555 C554 1.385 . S
C555 C556 1.389 . S
C556 C555 1.389 . S
C556 C557 1.387 . S
C557 H542 0.930 . S
C557 C552 1.390 . S
C557 C556 1.387 . S
H558 C570 0.930 . S
H559 C572 0.930 . S
H560 C573 0.930 . S
H561 C577 0.959 . S
H562 C577 0.959 . S
H563 C577 0.961 . S
H564 C578 0.960 . S
H565 C578 0.961 . S
H566 C578 0.959 . S
H567 C581 0.929 . S
H568 C582 0.931 . S
H569 C584 0.930 . S
C570 H558 0.930 . S
C570 C571 1.399 . S
C570 C575 1.399 . S
C571 C570 1.399 . S
C571 C572 1.376 . S
C572 H559 0.930 . S
C572 C571 1.376 . S
C572 C573 1.388 . S
C573 H560 0.930 . S
C573 C572 1.388 . S
C573 C574 1.390 . S
C574 C573 1.390 . S
C574 C575 1.394 . S
C574 C580 1.465 . S
C575 C570 1.399 . S
C575 C574 1.394 . S
C575 C576 1.516 . S
C576 C575 1.516 . S
C576 C577 1.502 . S
C576 C578 1.561 . S
C576 C579 1.526 . S
C577 H561 0.959 . S
C577 H562 0.959 . S
C577 H563 0.961 . S
C577 C576 1.502 . S
C578 H564 0.960 . S
C578 H565 0.961 . S
C578 H566 0.959 . S
C578 C576 1.561 . S
C579 C576 1.526 . S
C579 C580 1.396 . S
C579 C584 1.390 . S
C580 C574 1.465 . S
C580 C579 1.396 . S
C580 C581 1.399 . S
C581 H567 0.929 . S
C581 C580 1.399 . S
C581 C582 1.385 . S
C582 H568 0.931 . S
C582 C581 1.385 . S
C582 C583 1.389 . S
C583 C582 1.389 . S
C583 C584 1.387 . S
C584 H569 0.930 . S
C584 C579 1.390 . S
C584 C583 1.387 . S
H585 C597 0.930 . S
H586 C599 0.930 . S
H587 C600 0.930 . S
H588 C604 0.959 . S
H589 C604 0.959 . S
H590 C604 0.961 . S
H591 C605 0.960 . S
H592 C605 0.961 . S
H593 C605 0.959 . S
H594 C608 0.929 . S
H595 C609 0.931 . S
H596 C611 0.930 . S
C597 H585 0.930 . S
C597 C598 1.399 . S
C597 C602 1.399 . S
C598 C597 1.399 . S
C598 C599 1.376 . S
C599 H586 0.930 . S
C599 C598 1.376 . S
C599 C600 1.388 . S
C600 H587 0.930 . S
C600 C599 1.388 . S
C600 C601 1.390 . S
C601 C600 1.390 . S
C601 C602 1.394 . S
C601 C607 1.465 . S
C602 C597 1.399 . S
C602 C601 1.394 . S
C602 C603 1.516 . S
C603 C602 1.516 . S
C603 C604 1.502 . S
C603 C605 1.561 . S
C603 C606 1.526 . S
C604 H588 0.959 . S
C604 H589 0.959 . S
C604 H590 0.961 . S
C604 C603 1.502 . S
C605 H591 0.960 . S
C605 H592 0.961 . S
C605 H593 0.959 . S
C605 C603 1.561 . S
C606 C603 1.526 . S
C606 C607 1.396 . S
C606 C611 1.390 . S
C607 C601 1.465 . S
C607 C606 1.396 . S
C607 C608 1.399 . S
C608 H594 0.929 . S
C608 C607 1.399 . S
C608 C609 1.385 . S
C609 H595 0.931 . S
C609 C608 1.385 . S
C609 C610 1.389 . S
C610 C609 1.389 . S
C610 C611 1.387 . S
C611 H596 0.930 . S
C611 C606 1.390 . S
C611 C610 1.387 . S
H612 C624 0.930 . S
H613 C626 0.930 . S
H614 C627 0.930 . S
H615 C631 0.959 . S
H616 C631 0.959 . S
H617 C631 0.961 . S
H618 C632 0.960 . S
H619 C632 0.961 . S
H620 C632 0.959 . S
H621 C635 0.929 . S
H622 C636 0.931 . S
H623 C638 0.930 . S
C624 H612 0.930 . S
C624 C625 1.399 . S
C624 C629 1.399 . S
C625 C624 1.399 . S
C625 C626 1.376 . S
C626 H613 0.930 . S
C626 C625 1.376 . S
C626 C627 1.388 . S
C627 H614 0.930 . S
C627 C626 1.388 . S
C627 C628 1.390 . S
C628 C627 1.390 . S
C628 C629 1.394 . S
C628 C634 1.465 . S
C629 C624 1.399 . S
C629 C628 1.394 . S
C629 C630 1.516 . S
C630 C629 1.516 . S
C630 C631 1.502 . S
C630 C632 1.561 . S
C630 C633 1.526 . S
C631 H615 0.959 . S
C631 H616 0.959 . S
C631 H617 0.961 . S
C631 C630 1.502 . S
C632 H618 0.960 . S
C632 H619 0.961 . S
C632 H620 0.959 . S
C632 C630 1.561 . S
C633 C630 1.526 . S
C633 C634 1.396 . S
C633 C638 1.390 . S
C634 C628 1.465 . S
C634 C633 1.396 . S
C634 C635 1.399 . S
C635 H621 0.929 . S
C635 C634 1.399 . S
C635 C636 1.385 . S
C636 H622 0.931 . S
C636 C635 1.385 . S
C636 C637 1.389 . S
C637 C636 1.389 . S
C637 C638 1.387 . S
C638 H623 0.930 . S
C638 C633 1.390 . S
C638 C637 1.387 . S
H639 C651 0.930 . S
H640 C653 0.930 . S
H641 C654 0.930 . S
H642 C658 0.959 . S
H643 C658 0.959 . S
H644 C658 0.961 . S
H645 C659 0.960 . S
H646 C659 0.961 . S
H647 C659 0.959 . S
H648 C662 0.929 . S
H649 C663 0.931 . S
H650 C665 0.930 . S
C651 H639 0.930 . S
C651 C652 1.399 . S
C651 C656 1.399 . S
C652 C651 1.399 . S
C652 C653 1.376 . S
C653 H640 0.930 . S
C653 C652 1.376 . S
C653 C654 1.388 . S
C654 H641 0.930 . S
C654 C653 1.388 . S
C654 C655 1.390 . S
C655 C654 1.390 . S
C655 C656 1.394 . S
C655 C661 1.465 . S
C656 C651 1.399 . S
C656 C655 1.394 . S
C656 C657 1.516 . S
C657 C656 1.516 . S
C657 C658 1.502 . S
C657 C659 1.561 . S
C657 C660 1.526 . S
C658 H642 0.959 . S
C658 H643 0.959 . S
C658 H644 0.961 . S
C658 C657 1.502 . S
C659 H645 0.960 . S
C659 H646 0.961 . S
C659 H647 0.959 . S
C659 C657 1.561 . S
C660 C657 1.526 . S
C660 C661 1.396 . S
C660 C665 1.390 . S
C661 C655 1.465 . S
C661 C660 1.396 . S
C661 C662 1.399 . S
C662 H648 0.929 . S
C662 C661 1.399 . S
C662 C663 1.385 . S
C663 H649 0.931 . S
C663 C662 1.385 . S
C663 C664 1.389 . S
C664 C663 1.389 . S
C664 C665 1.387 . S
C665 H650 0.930 . S
C665 C660 1.390 . S
C665 C664 1.387 . S
H666 C678 0.930 . S
H667 C680 0.930 . S
H668 C681 0.930 . S
H669 C685 0.959 . S
H670 C685 0.959 . S
H671 C685 0.961 . S
H672 C686 0.960 . S
H673 C686 0.961 . S
H674 C686 0.959 . S
H675 C689 0.929 . S
H676 C690 0.931 . S
H677 C692 0.930 . S
C678 H666 0.930 . S
C678 C679 1.399 . S
C678 C683 1.399 . S
C679 C678 1.399 . S
C679 C680 1.376 . S
C680 H667 0.930 . S
C680 C679 1.376 . S
C680 C681 1.388 . S
C681 H668 0.930 . S
C681 C680 1.388 . S
C681 C682 1.390 . S
C682 C681 1.390 . S
C682 C683 1.394 . S
C682 C688 1.465 . S
C683 C678 1.399 . S
C683 C682 1.394 . S
C683 C684 1.516 . S
C684 C683 1.516 . S
C684 C685 1.502 . S
C684 C686 1.561 . S
C684 C687 1.526 . S
C685 H669 0.959 . S
C685 H670 0.959 . S
C685 H671 0.961 . S
C685 C684 1.502 . S
C686 H672 0.960 . S
C686 H673 0.961 . S
C686 H674 0.959 . S
C686 C684 1.561 . S
C687 C684 1.526 . S
C687 C688 1.396 . S
C687 C692 1.390 . S
C688 C682 1.465 . S
C688 C687 1.396 . S
C688 C689 1.399 . S
C689 H675 0.929 . S
C689 C688 1.399 . S
C689 C690 1.385 . S
C690 H676 0.931 . S
C690 C689 1.385 . S
C690 C691 1.389 . S
C691 C690 1.389 . S
C691 C692 1.387 . S
C692 H677 0.930 . S
C692 C687 1.390 . S
C692 C691 1.387 . S
H693 C705 0.930 . S
H694 C707 0.930 . S
H695 C708 0.930 . S
H696 C712 0.959 . S
H697 C712 0.959 . S
H698 C712 0.961 . S
H699 C713 0.960 . S
H700 C713 0.961 . S
H701 C713 0.959 . S
H702 C716 0.929 . S
H703 C717 0.931 . S
H704 C719 0.930 . S
C705 H693 0.930 . S
C705 C706 1.399 . S
C705 C710 1.399 . S
C706 C705 1.399 . S
C706 C707 1.376 . S
C707 H694 0.930 . S
C707 C706 1.376 . S
C707 C708 1.388 . S
C708 H695 0.930 . S
C708 C707 1.388 . S
C708 C709 1.390 . S
C709 C708 1.390 . S
C709 C710 1.394 . S
C709 C715 1.465 . S
C710 C705 1.399 . S
C710 C709 1.394 . S
C710 C711 1.516 . S
C711 C710 1.516 . S
C711 C712 1.502 . S
C711 C713 1.561 . S
C711 C714 1.526 . S
C712 H696 0.959 . S
C712 H697 0.959 . S
C712 H698 0.961 . S
C712 C711 1.502 . S
C713 H699 0.960 . S
C713 H700 0.961 . S
C713 H701 0.959 . S
C713 C711 1.561 . S
C714 C711 1.526 . S
C714 C715 1.396 . S
C714 C719 1.390 . S
C715 C709 1.465 . S
C715 C714 1.396 . S
C715 C716 1.399 . S
C716 H702 0.929 . S
C716 C715 1.399 . S
C716 C717 1.385 . S
C717 H703 0.931 . S
C717 C716 1.385 . S
C717 C718 1.389 . S
C718 C717 1.389 . S
C718 C719 1.387 . S
C719 H704 0.930 . S
C719 C714 1.390 . S
C719 C718 1.387 . S
H720 C732 0.930 . S
H721 C734 0.930 . S
H722 C735 0.930 . S
H723 C739 0.959 . S
H724 C739 0.959 . S
H725 C739 0.961 . S
H726 C740 0.960 . S
H727 C740 0.961 . S
H728 C740 0.959 . S
H729 C743 0.929 . S
H730 C744 0.931 . S
H731 C746 0.930 . S
C732 H720 0.930 . S
C732 C733 1.394 1_655 S
C732 C737 1.399 . S
C733 C732 1.394 1_455 S
C733 C734 1.384 . S
C734 H721 0.930 . S
C734 C733 1.384 . S
C734 C735 1.388 . S
C735 H722 0.930 . S
C735 C734 1.388 . S
C735 C736 1.390 . S
C736 C735 1.390 . S
C736 C737 1.394 1_455 S
C736 C742 1.465 . S
C737 C732 1.399 . S
C737 C736 1.394 1_655 S
C737 C738 1.516 . S
C738 C737 1.516 . S
C738 C739 1.502 . S
C738 C740 1.561 . S
C738 C741 1.526 . S
C739 H723 0.959 . S
C739 H724 0.959 . S
C739 H725 0.961 . S
C739 C738 1.502 . S
C740 H726 0.960 . S
C740 H727 0.961 . S
C740 H728 0.959 . S
C740 C738 1.561 . S
C741 C738 1.526 . S
C741 C742 1.396 1_655 S
C741 C746 1.390 . S
C742 C736 1.465 . S
C742 C741 1.396 1_455 S
C742 C743 1.399 . S
C743 H729 0.929 . S
C743 C742 1.399 . S
C743 C744 1.385 . S
C744 H730 0.931 . S
C744 C743 1.385 . S
C744 C745 1.389 . S
C745 C744 1.389 . S
C745 C746 1.387 1_455 S
C746 H731 0.930 . S
C746 C741 1.390 . S
C746 C745 1.387 1_655 S
H747 C759 0.930 . S
H748 C761 0.930 . S
H749 C762 0.930 . S
H750 C766 0.959 . S
H751 C766 0.959 . S
H752 C766 0.961 . S
H753 C767 0.960 . S
H754 C767 0.961 . S
H755 C767 0.959 . S
H756 C770 0.929 . S
H757 C771 0.931 . S
H758 C773 0.930 . S
C759 H747 0.930 . S
C759 C760 1.399 . S
C759 C764 1.399 . S
C760 C759 1.399 . S
C760 C761 1.376 . S
C761 H748 0.930 . S
C761 C760 1.376 . S
C761 C762 1.388 . S
C762 H749 0.930 . S
C762 C761 1.388 . S
C762 C763 1.390 . S
C763 C762 1.390 . S
C763 C764 1.394 . S
C763 C769 1.465 . S
C764 C759 1.399 . S
C764 C763 1.394 . S
C764 C765 1.516 . S
C765 C764 1.516 . S
C765 C766 1.502 . S
C765 C767 1.561 . S
C765 C768 1.526 . S
C766 H750 0.959 . S
C766 H751 0.959 . S
C766 H752 0.961 . S
C766 C765 1.502 . S
C767 H753 0.960 . S
C767 H754 0.961 . S
C767 H755 0.959 . S
C767 C765 1.561 . S
C768 C765 1.526 . S
C768 C769 1.396 . S
C768 C773 1.390 . S
C769 C763 1.465 . S
C769 C768 1.396 . S
C769 C770 1.399 . S
C770 H756 0.929 . S
C770 C769 1.399 . S
C770 C771 1.385 . S
C771 H757 0.931 . S
C771 C770 1.385 . S
C771 C772 1.389 . S
C772 C771 1.389 . S
C772 C773 1.387 . S
C773 H758 0.930 . S
C773 C768 1.390 . S
C773 C772 1.387 . S
H774 C786 0.930 . S
H775 C788 0.930 . S
H776 C789 0.930 . S
H777 C793 0.959 . S
H778 C793 0.959 . S
H779 C793 0.961 . S
H780 C794 0.960 . S
H781 C794 0.961 . S
H782 C794 0.959 . S
H783 C797 0.929 . S
H784 C798 0.931 . S
H785 C800 0.930 . S
C786 H774 0.930 . S
C786 C787 1.405 . S
C786 C791 1.399 . S
C787 C786 1.405 . S
C787 C788 1.369 1_545 S
C788 H775 0.930 . S
C788 C787 1.369 1_565 S
C788 C789 1.388 . S
C789 H776 0.930 . S
C789 C788 1.388 . S
C789 C790 1.390 . S
C790 C789 1.390 . S
C790 C791 1.394 1_565 S
C790 C796 1.465 . S
C791 C786 1.399 . S
C791 C790 1.394 1_545 S
C791 C792 1.516 . S
C792 C791 1.516 . S
C792 C793 1.502 . S
C792 C794 1.561 . S
C792 C795 1.526 . S
C793 H777 0.959 . S
C793 H778 0.959 . S
C793 H779 0.961 . S
C793 C792 1.502 . S
C794 H780 0.960 . S
C794 H781 0.961 . S
C794 H782 0.959 . S
C794 C792 1.561 . S
C795 C792 1.526 . S
C795 C796 1.396 1_545 S
C795 C800 1.390 . S
C796 C790 1.465 . S
C796 C795 1.396 1_565 S
C796 C797 1.399 . S
C797 H783 0.929 . S
C797 C796 1.399 . S
C797 C798 1.385 . S
C798 H784 0.931 . S
C798 C797 1.385 . S
C798 C799 1.389 . S
C799 C798 1.389 . S
C799 C800 1.387 1_565 S
C800 H785 0.930 . S
C800 C795 1.390 . S
C800 C799 1.387 1_545 S
H801 C813 0.930 . S
H802 C815 0.930 . S
H803 C816 0.930 . S
H804 C820 0.959 . S
H805 C820 0.959 . S
H806 C820 0.961 . S
H807 C821 0.960 . S
H808 C821 0.961 . S
H809 C821 0.959 . S
H810 C824 0.929 . S
H811 C825 0.931 . S
H812 C827 0.930 . S
C813 H801 0.930 . S
C813 C814 1.425 . S
C813 C818 1.399 . S
C814 C813 1.425 . S
C814 C815 1.343 1_565 S
C815 H802 0.930 . S
C815 C814 1.343 1_545 S
C815 C816 1.388 . S
C816 H803 0.930 . S
C816 C815 1.388 . S
C816 C817 1.390 . S
C817 C816 1.390 . S
C817 C818 1.394 1_545 S
C817 C823 1.465 . S
C818 C813 1.399 . S
C818 C817 1.394 1_565 S
C818 C819 1.516 . S
C819 C818 1.516 . S
C819 C820 1.502 . S
C819 C821 1.561 . S
C819 C822 1.526 . S
C820 H804 0.959 . S
C820 H805 0.959 . S
C820 H806 0.961 . S
C820 C819 1.502 . S
C821 H807 0.960 . S
C821 H808 0.961 . S
C821 H809 0.959 . S
C821 C819 1.561 . S
C822 C819 1.526 . S
C822 C823 1.396 1_565 S
C822 C827 1.390 . S
C823 C817 1.465 . S
C823 C822 1.396 1_545 S
C823 C824 1.399 . S
C824 H810 0.929 . S
C824 C823 1.399 . S
C824 C825 1.385 . S
C825 H811 0.931 . S
C825 C824 1.385 . S
C825 C826 1.389 . S
C826 C825 1.389 . S
C826 C827 1.387 1_545 S
C827 H812 0.930 . S
C827 C822 1.390 . S
C827 C826 1.387 1_565 S
H828 C840 0.930 . S
H829 C842 0.930 . S
H830 C843 0.930 . S
H831 C847 0.959 . S
H832 C847 0.959 . S
H833 C847 0.961 . S
H834 C848 0.960 . S
H835 C848 0.961 . S
H836 C848 0.959 . S
H837 C851 0.929 . S
H838 C852 0.931 . S
H839 C854 0.930 . S
C840 H828 0.930 . S
C840 C841 1.399 1_455 S
C840 C845 1.399 . S
C841 C840 1.399 1_655 S
C841 C842 1.376 . S
C842 H829 0.930 . S
C842 C841 1.376 . S
C842 C843 1.388 . S
C843 H830 0.930 . S
C843 C842 1.388 . S
C843 C844 1.390 . S
C844 C843 1.390 . S
C844 C845 1.394 1_655 S
C844 C850 1.465 . S
C845 C840 1.399 . S
C845 C844 1.394 1_455 S
C845 C846 1.516 . S
C846 C845 1.516 . S
C846 C847 1.502 . S
C846 C848 1.561 . S
C846 C849 1.526 . S
C847 H831 0.959 . S
C847 H832 0.959 . S
C847 H833 0.961 . S
C847 C846 1.502 . S
C848 H834 0.960 . S
C848 H835 0.961 . S
C848 H836 0.959 . S
C848 C846 1.561 . S
C849 C846 1.526 . S
C849 C850 1.396 1_455 S
C849 C854 1.390 . S
C850 C844 1.465 . S
C850 C849 1.396 1_655 S
C850 C851 1.399 . S
C851 H837 0.929 . S
C851 C850 1.399 . S
C851 C852 1.385 . S
C852 H838 0.931 . S
C852 C851 1.385 . S
C852 C853 1.395 . S
C853 C852 1.395 . S
C853 C854 1.382 1_655 S
C854 H839 0.930 . S
C854 C849 1.390 . S
C854 C853 1.382 1_455 S
H855 C867 0.930 . S
H856 C869 0.930 . S
H857 C870 0.930 . S
H858 C874 0.959 . S
H859 C874 0.959 . S
H860 C874 0.961 . S
H861 C875 0.960 . S
H862 C875 0.961 . S
H863 C875 0.959 . S
H864 C878 0.929 . S
H865 C879 0.931 . S
H866 C881 0.930 . S
C867 H855 0.930 . S
C867 C868 1.399 . S
C867 C872 1.399 . S
C868 C867 1.399 . S
C868 C869 1.376 . S
C869 H856 0.930 . S
C869 C868 1.376 . S
C869 C870 1.388 . S
C870 H857 0.930 . S
C870 C869 1.388 . S
C870 C871 1.390 . S
C871 C870 1.390 . S
C871 C872 1.394 . S
C871 C877 1.465 . S
C872 C867 1.399 . S
C872 C871 1.394 . S
C872 C873 1.516 . S
C873 C872 1.516 . S
C873 C874 1.502 . S
C873 C875 1.561 . S
C873 C876 1.526 . S
C874 H858 0.959 . S
C874 H859 0.959 . S
C874 H860 0.961 . S
C874 C873 1.502 . S
C875 H861 0.960 . S
C875 H862 0.961 . S
C875 H863 0.959 . S
C875 C873 1.561 . S
C876 C873 1.526 . S
C876 C877 1.396 . S
C876 C881 1.390 . S
C877 C871 1.465 . S
C877 C876 1.396 . S
C877 C878 1.399 . S
C878 H864 0.929 . S
C878 C877 1.399 . S
C878 C879 1.385 . S
C879 H865 0.931 . S
C879 C878 1.385 . S
C879 C880 1.389 . S
C880 C879 1.389 . S
C880 C881 1.387 . S
C881 H866 0.930 . S
C881 C876 1.390 . S
C881 C880 1.387 . S
H882 C894 0.930 . S
H883 C896 0.930 . S
H884 C897 0.930 . S
H885 C901 0.992 1_655 S
H886 C901 0.908 1_655 S
H887 C901 1.035 . S
H888 C902 0.960 . S
H889 C902 0.961 1_655 S
H890 C902 0.970 . S
H891 C905 0.929 . S
H892 C906 0.931 . S
H893 C908 0.930 . S
C894 H882 0.930 . S
C894 C895 1.399 . S
C894 C899 1.399 . S
C895 C894 1.399 . S
C895 C896 1.376 . S
C896 H883 0.930 . S
C896 C895 1.376 . S
C896 C897 1.388 . S
C897 H884 0.930 . S
C897 C896 1.388 . S
C897 C898 1.390 . S
C898 C897 1.390 . S
C898 C899 1.394 . S
C898 C904 1.465 1_455 S
C899 C894 1.399 . S
C899 C898 1.394 . S
C899 C900 1.562 . S
C900 C899 1.562 . S
C900 C901 1.497 . S
C900 C902 1.538 . S
C900 C903 1.467 1_455 S
C901 H885 0.992 1_455 S
C901 H886 0.908 1_455 S
C901 H887 1.035 . S
C901 C900 1.497 . S
C902 H888 0.960 . S
C902 H889 0.961 1_455 S
C902 H890 0.970 . S
C902 C900 1.538 . S
C903 C900 1.467 1_655 S
C903 C904 1.396 . S
C903 C908 1.390 . S
C904 C898 1.465 1_655 S
C904 C903 1.396 . S
C904 C905 1.399 . S
C905 H891 0.929 . S
C905 C904 1.399 . S
C905 C906 1.385 . S
C906 H892 0.931 . S
C906 C905 1.385 . S
C906 C907 1.389 . S
C907 C906 1.389 . S
C907 C908 1.387 . S
C908 H893 0.930 . S
C908 C903 1.390 . S
C908 C907 1.387 . S
H909 C921 0.930 . S
H910 C923 0.930 . S
H911 C924 0.930 . S
H912 C928 0.959 . S
H913 C928 0.959 . S
H914 C928 0.961 . S
H915 C929 0.960 . S
H916 C929 0.961 . S
H917 C929 0.959 . S
H918 C932 0.929 . S
H919 C933 0.931 . S
H920 C935 0.930 . S
C921 H909 0.930 . S
C921 C922 1.399 . S
C921 C926 1.399 . S
C922 C921 1.399 . S
C922 C923 1.376 . S
C923 H910 0.930 . S
C923 C922 1.376 . S
C923 C924 1.388 . S
C924 H911 0.930 . S
C924 C923 1.388 . S
C924 C925 1.390 . S
C925 C924 1.390 . S
C925 C926 1.394 . S
C925 C931 1.465 . S
C926 C921 1.399 . S
C926 C925 1.394 . S
C926 C927 1.516 . S
C927 C926 1.516 . S
C927 C928 1.502 . S
C927 C929 1.561 . S
C927 C930 1.526 . S
C928 H912 0.959 . S
C928 H913 0.959 . S
C928 H914 0.961 . S
C928 C927 1.502 . S
C929 H915 0.960 . S
C929 H916 0.961 . S
C929 H917 0.959 . S
C929 C927 1.561 . S
C930 C927 1.526 . S
C930 C931 1.396 . S
C930 C935 1.390 . S
C931 C925 1.465 . S
C931 C930 1.396 . S
C931 C932 1.399 . S
C932 H918 0.929 . S
C932 C931 1.399 . S
C932 C933 1.385 . S
C933 H919 0.931 . S
C933 C932 1.385 . S
C933 C934 1.389 . S
C934 C933 1.389 . S
C934 C935 1.387 . S
C935 H920 0.930 . S
C935 C930 1.390 . S
C935 C934 1.387 . S
H936 C948 0.930 . S
H937 C950 0.930 . S
H938 C951 0.930 . S
H939 C955 0.991 1_565 S
H940 C955 0.914 1_565 S
H941 C955 1.028 . S
H942 C956 0.960 . S
H943 C956 0.961 1_565 S
H944 C956 0.969 . S
H945 C959 0.929 . S
H946 C960 0.931 . S
H947 C962 0.930 . S
C948 H936 0.930 . S
C948 C949 1.399 . S
C948 C953 1.399 . S
C949 C948 1.399 . S
C949 C950 1.376 . S
C950 H937 0.930 . S
C950 C949 1.376 . S
C950 C951 1.388 . S
C951 H938 0.930 . S
C951 C950 1.388 . S
C951 C952 1.390 . S
C952 C951 1.390 . S
C952 C953 1.394 . S
C952 C958 1.465 1_545 S
C953 C948 1.399 . S
C953 C952 1.394 . S
C953 C954 1.557 . S
C954 C953 1.557 . S
C954 C955 1.498 . S
C954 C956 1.540 . S
C954 C957 1.471 1_545 S
C955 H939 0.991 1_545 S
C955 H940 0.914 1_545 S
C955 H941 1.028 . S
C955 C954 1.498 . S
C956 H942 0.960 . S
C956 H943 0.961 1_545 S
C956 H944 0.969 . S
C956 C954 1.540 . S
C957 C954 1.471 1_565 S
C957 C958 1.396 . S
C957 C962 1.390 . S
C958 C952 1.465 1_565 S
C958 C957 1.396 . S
C958 C959 1.399 . S
C959 H945 0.929 . S
C959 C958 1.399 . S
C959 C960 1.385 . S
C960 H946 0.931 . S
C960 C959 1.385 . S
C960 C961 1.389 . S
C961 C960 1.389 . S
C961 C962 1.387 . S
C962 H947 0.930 . S
C962 C957 1.390 . S
C962 C961 1.387 . S
H963 C975 0.930 . S
H964 C977 0.930 . S
H965 C978 0.930 . S
H966 C982 0.963 1_655 S
H967 C982 0.959 1_655 S
H968 C982 0.961 . S
H969 C983 0.960 . S
H970 C983 0.961 1_655 S
H971 C983 0.966 . S
H972 C986 0.929 . S
H973 C987 0.931 . S
H974 C989 0.930 . S
C975 H963 0.930 . S
C975 C976 1.399 . S
C975 C980 1.399 . S
C976 C975 1.399 . S
C976 C977 1.376 . S
C977 H964 0.930 . S
C977 C976 1.376 . S
C977 C978 1.388 . S
C978 H965 0.930 . S
C978 C977 1.388 . S
C978 C979 1.390 . S
C979 C978 1.390 . S
C979 C980 1.394 . S
C979 C985 1.465 1_455 S
C980 C975 1.399 . S
C980 C979 1.394 . S
C980 C981 1.564 . S
C981 C980 1.564 . S
C981 C982 1.538 . S
C981 C983 1.535 . S
C981 C984 1.467 1_455 S
C982 H966 0.963 1_455 S
C982 H967 0.959 1_455 S
C982 H968 0.961 . S
C982 C981 1.538 . S
C983 H969 0.960 . S
C983 H970 0.961 1_455 S
C983 H971 0.966 . S
C983 C981 1.535 . S
C984 C981 1.467 1_655 S
C984 C985 1.396 . S
C984 C989 1.390 . S
C985 C979 1.465 1_655 S
C985 C984 1.396 . S
C985 C986 1.399 . S
C986 H972 0.929 . S
C986 C985 1.399 . S
C986 C987 1.385 . S
C987 H973 0.931 . S
C987 C986 1.385 . S
C987 C988 1.389 . S
C988 C987 1.389 . S
C988 C989 1.387 . S
C989 H974 0.930 . S
C989 C984 1.390 . S
C989 C988 1.387 . S
H990 C1002 0.930 . S
H991 C1004 0.930 . S
H992 C1005 0.930 . S
H993 C1009 0.959 . S
H994 C1009 0.959 . S
H995 C1009 0.961 . S
H996 C1010 0.960 . S
H997 C1010 0.961 . S
H998 C1010 0.959 . S
H999 C1013 0.929 . S
H1000 C1014 0.931 . S
H1001 C1016 0.930 . S
C1002 H990 0.930 . S
C1002 C1003 1.399 . S
C1002 C1007 1.399 . S
C1003 C1002 1.399 . S
C1003 C1004 1.376 . S
C1004 H991 0.930 . S
C1004 C1003 1.376 . S
C1004 C1005 1.388 . S
C1005 H992 0.930 . S
C1005 C1004 1.388 . S
C1005 C1006 1.390 . S
C1006 C1005 1.390 . S
C1006 C1007 1.394 . S
C1006 C1012 1.465 . S
C1007 C1002 1.399 . S
C1007 C1006 1.394 . S
C1007 C1008 1.516 . S
C1008 C1007 1.516 . S
C1008 C1009 1.502 . S
C1008 C1010 1.561 . S
C1008 C1011 1.526 . S
C1009 H993 0.959 . S
C1009 H994 0.959 . S
C1009 H995 0.961 . S
C1009 C1008 1.502 . S
C1010 H996 0.960 . S
C1010 H997 0.961 . S
C1010 H998 0.959 . S
C1010 C1008 1.561 . S
C1011 C1008 1.526 . S
C1011 C1012 1.396 . S
C1011 C1016 1.390 . S
C1012 C1006 1.465 . S
C1012 C1011 1.396 . S
C1012 C1013 1.399 . S
C1013 H999 0.929 . S
C1013 C1012 1.399 . S
C1013 C1014 1.385 . S
C1014 H1000 0.931 . S
C1014 C1013 1.385 . S
C1014 C1015 1.389 . S
C1015 C1014 1.389 . S
C1015 C1016 1.387 . S
C1016 H1001 0.930 . S
C1016 C1011 1.390 . S
C1016 C1015 1.387 . S
H1017 C1029 0.930 . S
H1018 C1031 0.930 . S
H1019 C1032 0.930 . S
H1020 C1036 0.959 . S
H1021 C1036 0.959 . S
H1022 C1036 0.961 1_565 S
H1023 C1037 0.960 1_565 S
H1024 C1037 0.961 . S
H1025 C1037 0.959 . S
H1026 C1040 0.929 . S
H1027 C1041 0.931 . S
H1028 C1043 0.930 . S
C1029 H1017 0.930 . S
C1029 C1030 1.399 . S
C1029 C1034 1.399 . S
C1030 C1029 1.399 . S
C1030 C1031 1.376 . S
C1031 H1018 0.930 . S
C1031 C1030 1.376 . S
C1031 C1032 1.388 . S
C1032 H1019 0.930 . S
C1032 C1031 1.388 . S
C1032 C1033 1.390 . S
C1033 C1032 1.390 . S
C1033 C1034 1.394 . S
C1033 C1039 1.465 1_565 S
C1034 C1029 1.399 . S
C1034 C1033 1.394 . S
C1034 C1035 1.467 1_565 S
C1035 C1034 1.467 1_545 S
C1035 C1036 1.469 . S
C1035 C1037 1.595 . S
C1035 C1038 1.587 . S
C1036 H1020 0.959 . S
C1036 H1021 0.959 . S
C1036 H1022 0.961 1_545 S
C1036 C1035 1.469 . S
C1037 H1023 0.960 1_545 S
C1037 H1024 0.961 . S
C1037 H1025 0.959 . S
C1037 C1035 1.595 . S
C1038 C1035 1.587 . S
C1038 C1039 1.396 . S
C1038 C1043 1.390 . S
C1039 C1033 1.465 1_545 S
C1039 C1038 1.396 . S
C1039 C1040 1.399 . S
C1040 H1026 0.929 . S
C1040 C1039 1.399 . S
C1040 C1041 1.385 . S
C1041 H1027 0.931 . S
C1041 C1040 1.385 . S
C1041 C1042 1.389 . S
C1042 C1041 1.389 . S
C1042 C1043 1.387 . S
C1043 H1028 0.930 . S
C1043 C1038 1.390 . S
C1043 C1042 1.387 . S
H1044 C1056 0.930 . S
H1045 C1058 0.930 . S
H1046 C1059 0.930 . S
H1047 C1063 0.959 . S
H1048 C1063 0.959 . S
H1049 C1063 0.961 . S
H1050 C1064 0.960 . S
H1051 C1064 0.961 . S
H1052 C1064 0.959 . S
H1053 C1067 0.929 . S
H1054 C1068 0.931 . S
H1055 C1070 0.930 . S
C1056 H1044 0.930 . S
C1056 C1057 1.399 . S
C1056 C1061 1.399 . S
C1057 C1056 1.399 . S
C1057 C1058 1.376 . S
C1058 H1045 0.930 . S
C1058 C1057 1.376 . S
C1058 C1059 1.388 . S
C1059 H1046 0.930 . S
C1059 C1058 1.388 . S
C1059 C1060 1.390 . S
C1060 C1059 1.390 . S
C1060 C1061 1.394 . S
C1060 C1066 1.465 . S
C1061 C1056 1.399 . S
C1061 C1060 1.394 . S
C1061 C1062 1.516 . S
C1062 C1061 1.516 . S
C1062 C1063 1.502 . S
C1062 C1064 1.561 . S
C1062 C1065 1.526 . S
C1063 H1047 0.959 . S
C1063 H1048 0.959 . S
C1063 H1049 0.961 . S
C1063 C1062 1.502 . S
C1064 H1050 0.960 . S
C1064 H1051 0.961 . S
C1064 H1052 0.959 . S
C1064 C1062 1.561 . S
C1065 C1062 1.526 . S
C1065 C1066 1.396 . S
C1065 C1070 1.390 . S
C1066 C1060 1.465 . S
C1066 C1065 1.396 . S
C1066 C1067 1.399 . S
C1067 H1053 0.929 . S
C1067 C1066 1.399 . S
C1067 C1068 1.385 . S
C1068 H1054 0.931 . S
C1068 C1067 1.385 . S
C1068 C1069 1.389 . S
C1069 C1068 1.389 . S
C1069 C1070 1.387 . S
C1070 H1055 0.930 . S
C1070 C1065 1.390 . S
C1070 C1069 1.387 . S
H1071 C1083 0.930 . S
H1072 C1085 0.930 . S
H1073 C1086 0.930 . S
H1074 C1090 0.959 . S
H1075 C1090 0.959 . S
H1076 C1090 0.961 . S
H1077 C1091 0.960 . S
H1078 C1091 0.961 . S
H1079 C1091 0.959 . S
H1080 C1094 0.929 . S
H1081 C1095 0.931 . S
H1082 C1097 0.930 . S
C1083 H1071 0.930 . S
C1083 C1084 1.399 . S
C1083 C1088 1.399 . S
C1084 C1083 1.399 . S
C1084 C1085 1.376 . S
C1085 H1072 0.930 . S
C1085 C1084 1.376 . S
C1085 C1086 1.388 . S
C1086 H1073 0.930 . S
C1086 C1085 1.388 . S
C1086 C1087 1.390 . S
C1087 C1086 1.390 . S
C1087 C1088 1.394 . S
C1087 C1093 1.465 . S
C1088 C1083 1.399 . S
C1088 C1087 1.394 . S
C1088 C1089 1.516 . S
C1089 C1088 1.516 . S
C1089 C1090 1.502 . S
C1089 C1091 1.561 . S
C1089 C1092 1.526 . S
C1090 H1074 0.959 . S
C1090 H1075 0.959 . S
C1090 H1076 0.961 . S
C1090 C1089 1.502 . S
C1091 H1077 0.960 . S
C1091 H1078 0.961 . S
C1091 H1079 0.959 . S
C1091 C1089 1.561 . S
C1092 C1089 1.526 . S
C1092 C1093 1.396 . S
C1092 C1097 1.390 . S
C1093 C1087 1.465 . S
C1093 C1092 1.396 . S
C1093 C1094 1.399 . S
C1094 H1080 0.929 . S
C1094 C1093 1.399 . S
C1094 C1095 1.385 . S
C1095 H1081 0.931 . S
C1095 C1094 1.385 . S
C1095 C1096 1.389 . S
C1096 C1095 1.389 . S
C1096 C1097 1.387 . S
C1097 H1082 0.930 . S
C1097 C1092 1.390 . S
C1097 C1096 1.387 . S
H1098 C1110 0.930 . S
H1099 C1112 0.930 . S
H1100 C1113 0.930 . S
H1101 C1117 0.959 . S
H1102 C1117 0.959 . S
H1103 C1117 0.961 . S
H1104 C1118 0.960 . S
H1105 C1118 0.961 . S
H1106 C1118 0.959 . S
H1107 C1121 0.929 . S
H1108 C1122 0.931 . S
H1109 C1124 0.930 . S
C1110 H1098 0.930 . S
C1110 C1111 1.399 . S
C1110 C1115 1.399 . S
C1111 C1110 1.399 . S
C1111 C1112 1.376 . S
C1112 H1099 0.930 . S
C1112 C1111 1.376 . S
C1112 C1113 1.388 . S
C1113 H1100 0.930 . S
C1113 C1112 1.388 . S
C1113 C1114 1.390 . S
C1114 C1113 1.390 . S
C1114 C1115 1.394 . S
C1114 C1120 1.465 . S
C1115 C1110 1.399 . S
C1115 C1114 1.394 . S
C1115 C1116 1.516 . S
C1116 C1115 1.516 . S
C1116 C1117 1.502 . S
C1116 C1118 1.561 . S
C1116 C1119 1.526 . S
C1117 H1101 0.959 . S
C1117 H1102 0.959 . S
C1117 H1103 0.961 . S
C1117 C1116 1.502 . S
C1118 H1104 0.960 . S
C1118 H1105 0.961 . S
C1118 H1106 0.959 . S
C1118 C1116 1.561 . S
C1119 C1116 1.526 . S
C1119 C1120 1.396 . S
C1119 C1124 1.390 . S
C1120 C1114 1.465 . S
C1120 C1119 1.396 . S
C1120 C1121 1.399 . S
C1121 H1107 0.929 . S
C1121 C1120 1.399 . S
C1121 C1122 1.385 . S
C1122 H1108 0.931 . S
C1122 C1121 1.385 . S
C1122 C1123 1.389 . S
C1123 C1122 1.389 . S
C1123 C1124 1.387 . S
C1124 H1109 0.930 . S
C1124 C1119 1.390 . S
C1124 C1123 1.387 . S
H1125 C1137 0.930 . S
H1126 C1139 0.930 . S
H1127 C1140 0.930 . S
H1128 C1144 0.959 . S
H1129 C1144 0.959 . S
H1130 C1144 0.961 . S
H1131 C1145 0.960 . S
H1132 C1145 0.961 . S
H1133 C1145 0.959 . S
H1134 C1148 0.929 . S
H1135 C1149 0.931 . S
H1136 C1151 0.930 . S
C1137 H1125 0.930 . S
C1137 C1138 1.399 . S
C1137 C1142 1.399 . S
C1138 C1137 1.399 . S
C1138 C1139 1.376 . S
C1139 H1126 0.930 . S
C1139 C1138 1.376 . S
C1139 C1140 1.388 . S
C1140 H1127 0.930 . S
C1140 C1139 1.388 . S
C1140 C1141 1.390 . S
C1141 C1140 1.390 . S
C1141 C1142 1.394 . S
C1141 C1147 1.465 . S
C1142 C1137 1.399 . S
C1142 C1141 1.394 . S
C1142 C1143 1.516 . S
C1143 C1142 1.516 . S
C1143 C1144 1.502 . S
C1143 C1145 1.561 . S
C1143 C1146 1.526 . S
C1144 H1128 0.959 . S
C1144 H1129 0.959 . S
C1144 H1130 0.961 . S
C1144 C1143 1.502 . S
C1145 H1131 0.960 . S
C1145 H1132 0.961 . S
C1145 H1133 0.959 . S
C1145 C1143 1.561 . S
C1146 C1143 1.526 . S
C1146 C1147 1.396 . S
C1146 C1151 1.390 . S
C1147 C1141 1.465 . S
C1147 C1146 1.396 . S
C1147 C1148 1.399 . S
C1148 H1134 0.929 . S
C1148 C1147 1.399 . S
C1148 C1149 1.385 . S
C1149 H1135 0.931 . S
C1149 C1148 1.385 . S
C1149 C1150 1.389 . S
C1150 C1149 1.389 . S
C1150 C1151 1.387 . S
C1151 H1136 0.930 . S
C1151 C1146 1.390 . S
C1151 C1150 1.387 . S
H1152 C1164 0.930 . S
H1153 C1166 0.930 . S
H1154 C1167 0.930 . S
H1155 C1171 0.959 . S
H1156 C1171 0.959 . S
H1157 C1171 0.961 . S
H1158 C1172 0.960 . S
H1159 C1172 0.961 . S
H1160 C1172 0.959 . S
H1161 C1175 0.929 . S
H1162 C1176 0.931 . S
H1163 C1178 0.930 . S
C1164 H1152 0.930 . S
C1164 C1165 1.399 . S
C1164 C1169 1.399 . S
C1165 C1164 1.399 . S
C1165 C1166 1.376 . S
C1166 H1153 0.930 . S
C1166 C1165 1.376 . S
C1166 C1167 1.388 . S
C1167 H1154 0.930 . S
C1167 C1166 1.388 . S
C1167 C1168 1.390 . S
C1168 C1167 1.390 . S
C1168 C1169 1.394 . S
C1168 C1174 1.465 . S
C1169 C1164 1.399 . S
C1169 C1168 1.394 . S
C1169 C1170 1.516 . S
C1170 C1169 1.516 . S
C1170 C1171 1.502 . S
C1170 C1172 1.561 . S
C1170 C1173 1.526 . S
C1171 H1155 0.959 . S
C1171 H1156 0.959 . S
C1171 H1157 0.961 . S
C1171 C1170 1.502 . S
C1172 H1158 0.960 . S
C1172 H1159 0.961 . S
C1172 H1160 0.959 . S
C1172 C1170 1.561 . S
C1173 C1170 1.526 . S
C1173 C1174 1.396 . S
C1173 C1178 1.390 . S
C1174 C1168 1.465 . S
C1174 C1173 1.396 . S
C1174 C1175 1.399 . S
C1175 H1161 0.929 . S
C1175 C1174 1.399 . S
C1175 C1176 1.385 . S
C1176 H1162 0.931 . S
C1176 C1175 1.385 . S
C1176 C1177 1.389 . S
C1177 C1176 1.389 . S
C1177 C1178 1.387 . S
C1178 H1163 0.930 . S
C1178 C1173 1.390 . S
C1178 C1177 1.387 . S
H1179 C1191 0.930 . S
H1180 C1193 0.930 . S
H1181 C1194 0.930 . S
H1182 C1198 0.959 . S
H1183 C1198 0.959 . S
H1184 C1198 0.961 . S
H1185 C1199 0.960 . S
H1186 C1199 0.961 . S
H1187 C1199 0.959 . S
H1188 C1202 0.929 . S
H1189 C1203 0.931 . S
H1190 C1205 0.930 . S
C1191 H1179 0.930 . S
C1191 C1192 1.399 . S
C1191 C1196 1.399 . S
C1192 C1191 1.399 . S
C1192 C1193 1.376 . S
C1193 H1180 0.930 . S
C1193 C1192 1.376 . S
C1193 C1194 1.388 . S
C1194 H1181 0.930 . S
C1194 C1193 1.388 . S
C1194 C1195 1.390 . S
C1195 C1194 1.390 . S
C1195 C1196 1.394 . S
C1195 C1201 1.465 . S
C1196 C1191 1.399 . S
C1196 C1195 1.394 . S
C1196 C1197 1.516 . S
C1197 C1196 1.516 . S
C1197 C1198 1.502 . S
C1197 C1199 1.561 . S
C1197 C1200 1.526 . S
C1198 H1182 0.959 . S
C1198 H1183 0.959 . S
C1198 H1184 0.961 . S
C1198 C1197 1.502 . S
C1199 H1185 0.960 . S
C1199 H1186 0.961 . S
C1199 H1187 0.959 . S
C1199 C1197 1.561 . S
C1200 C1197 1.526 . S
C1200 C1201 1.396 . S
C1200 C1205 1.390 . S
C1201 C1195 1.465 . S
C1201 C1200 1.396 . S
C1201 C1202 1.399 . S
C1202 H1188 0.929 . S
C1202 C1201 1.399 . S
C1202 C1203 1.385 . S
C1203 H1189 0.931 . S
C1203 C1202 1.385 . S
C1203 C1204 1.389 . S
C1204 C1203 1.389 . S
C1204 C1205 1.387 . S
C1205 H1190 0.930 . S
C1205 C1200 1.390 . S
C1205 C1204 1.387 . S
H1206 C1218 0.930 . S
H1207 C1220 0.930 . S
H1208 C1221 0.930 . S
H1209 C1225 0.959 . S
H1210 C1225 0.959 . S
H1211 C1225 0.961 . S
H1212 C1226 0.960 . S
H1213 C1226 0.961 . S
H1214 C1226 0.959 . S
H1215 C1229 0.929 . S
H1216 C1230 0.931 . S
H1217 C1232 0.930 . S
C1218 H1206 0.930 . S
C1218 C1219 1.399 . S
C1218 C1223 1.399 . S
C1219 C1218 1.399 . S
C1219 C1220 1.376 . S
C1220 H1207 0.930 . S
C1220 C1219 1.376 . S
C1220 C1221 1.388 . S
C1221 H1208 0.930 . S
C1221 C1220 1.388 . S
C1221 C1222 1.390 . S
C1222 C1221 1.390 . S
C1222 C1223 1.394 . S
C1222 C1228 1.465 . S
C1223 C1218 1.399 . S
C1223 C1222 1.394 . S
C1223 C1224 1.516 . S
C1224 C1223 1.516 . S
C1224 C1225 1.502 . S
C1224 C1226 1.561 . S
C1224 C1227 1.526 . S
C1225 H1209 0.959 . S
C1225 H1210 0.959 . S
C1225 H1211 0.961 . S
C1225 C1224 1.502 . S
C1226 H1212 0.960 . S
C1226 H1213 0.961 . S
C1226 H1214 0.959 . S
C1226 C1224 1.561 . S
C1227 C1224 1.526 . S
C1227 C1228 1.396 . S
C1227 C1232 1.390 . S
C1228 C1222 1.465 . S
C1228 C1227 1.396 . S
C1228 C1229 1.399 . S
C1229 H1215 0.929 . S
C1229 C1228 1.399 . S
C1229 C1230 1.385 . S
C1230 H1216 0.931 . S
C1230 C1229 1.385 . S
C1230 C1231 1.389 . S
C1231 C1230 1.389 . S
C1231 C1232 1.387 . S
C1232 H1217 0.930 . S
C1232 C1227 1.390 . S
C1232 C1231 1.387 . S
H1233 C1245 0.930 . S
H1234 C1247 0.930 . S
H1235 C1248 0.930 . S
H1236 C1252 0.959 . S
H1237 C1252 0.959 . S
H1238 C1252 0.961 . S
H1239 C1253 0.960 . S
H1240 C1253 0.961 . S
H1241 C1253 0.959 . S
H1242 C1256 0.929 . S
H1243 C1257 0.931 . S
H1244 C1259 0.930 . S
C1245 H1233 0.930 . S
C1245 C1246 1.399 . S
C1245 C1250 1.399 . S
C1246 C1245 1.399 . S
C1246 C1247 1.376 . S
C1247 H1234 0.930 . S
C1247 C1246 1.376 . S
C1247 C1248 1.388 . S
C1248 H1235 0.930 . S
C1248 C1247 1.388 . S
C1248 C1249 1.390 . S
C1249 C1248 1.390 . S
C1249 C1250 1.394 . S
C1249 C1255 1.465 . S
C1250 C1245 1.399 . S
C1250 C1249 1.394 . S
C1250 C1251 1.516 . S
C1251 C1250 1.516 . S
C1251 C1252 1.502 . S
C1251 C1253 1.561 . S
C1251 C1254 1.526 . S
C1252 H1236 0.959 . S
C1252 H1237 0.959 . S
C1252 H1238 0.961 . S
C1252 C1251 1.502 . S
C1253 H1239 0.960 . S
C1253 H1240 0.961 . S
C1253 H1241 0.959 . S
C1253 C1251 1.561 . S
C1254 C1251 1.526 . S
C1254 C1255 1.396 . S
C1254 C1259 1.390 . S
C1255 C1249 1.465 . S
C1255 C1254 1.396 . S
C1255 C1256 1.399 . S
C1256 H1242 0.929 . S
C1256 C1255 1.399 . S
C1256 C1257 1.385 . S
C1257 H1243 0.931 . S
C1257 C1256 1.385 . S
C1257 C1258 1.389 . S
C1258 C1257 1.389 . S
C1258 C1259 1.387 . S
C1259 H1244 0.930 . S
C1259 C1254 1.390 . S
C1259 C1258 1.387 . S
H1260 C1272 0.930 . S
H1261 C1274 0.930 . S
H1262 C1275 0.930 . S
H1263 C1279 0.959 . S
H1264 C1279 0.959 . S
H1265 C1279 0.961 . S
H1266 C1280 0.960 . S
H1267 C1280 0.961 . S
H1268 C1280 0.959 . S
H1269 C1283 0.929 . S
H1270 C1284 0.931 . S
H1271 C1286 0.930 . S
C1272 H1260 0.930 . S
C1272 C1273 1.399 . S
C1272 C1277 1.399 . S
C1273 C1272 1.399 . S
C1273 C1274 1.376 . S
C1274 H1261 0.930 . S
C1274 C1273 1.376 . S
C1274 C1275 1.388 . S
C1275 H1262 0.930 . S
C1275 C1274 1.388 . S
C1275 C1276 1.390 . S
C1276 C1275 1.390 . S
C1276 C1277 1.394 . S
C1276 C1282 1.465 . S
C1277 C1272 1.399 . S
C1277 C1276 1.394 . S
C1277 C1278 1.516 . S
C1278 C1277 1.516 . S
C1278 C1279 1.502 . S
C1278 C1280 1.561 . S
C1278 C1281 1.526 . S
C1279 H1263 0.959 . S
C1279 H1264 0.959 . S
C1279 H1265 0.961 . S
C1279 C1278 1.502 . S
C1280 H1266 0.960 . S
C1280 H1267 0.961 . S
C1280 H1268 0.959 . S
C1280 C1278 1.561 . S
C1281 C1278 1.526 . S
C1281 C1282 1.396 . S
C1281 C1286 1.390 . S
C1282 C1276 1.465 . S
C1282 C1281 1.396 . S
C1282 C1283 1.399 . S
C1283 H1269 0.929 . S
C1283 C1282 1.399 . S
C1283 C1284 1.385 . S
C1284 H1270 0.931 . S
C1284 C1283 1.385 . S
C1284 C1285 1.389 . S
C1285 C1284 1.389 . S
C1285 C1286 1.387 . S
C1286 H1271 0.930 . S
C1286 C1281 1.390 . S
C1286 C1285 1.387 . S
H1287 C1299 0.930 . S
H1288 C1301 0.930 . S
H1289 C1302 0.930 . S
H1290 C1306 0.959 . S
H1291 C1306 0.959 . S
H1292 C1306 0.961 . S
H1293 C1307 0.960 . S
H1294 C1307 0.961 . S
H1295 C1307 0.959 . S
H1296 C1310 0.929 . S
H1297 C1311 0.931 . S
H1298 C1313 0.930 . S
C1299 H1287 0.930 . S
C1299 C1300 1.399 . S
C1299 C1304 1.399 . S
C1300 C1299 1.399 . S
C1300 C1301 1.376 . S
C1301 H1288 0.930 . S
C1301 C1300 1.376 . S
C1301 C1302 1.388 . S
C1302 H1289 0.930 . S
C1302 C1301 1.388 . S
C1302 C1303 1.390 . S
C1303 C1302 1.390 . S
C1303 C1304 1.394 . S
C1303 C1309 1.465 . S
C1304 C1299 1.399 . S
C1304 C1303 1.394 . S
C1304 C1305 1.516 . S
C1305 C1304 1.516 . S
C1305 C1306 1.502 . S
C1305 C1307 1.561 . S
C1305 C1308 1.526 . S
C1306 H1290 0.959 . S
C1306 H1291 0.959 . S
C1306 H1292 0.961 . S
C1306 C1305 1.502 . S
C1307 H1293 0.960 . S
C1307 H1294 0.961 . S
C1307 H1295 0.959 . S
C1307 C1305 1.561 . S
C1308 C1305 1.526 . S
C1308 C1309 1.396 . S
C1308 C1313 1.390 . S
C1309 C1303 1.465 . S
C1309 C1308 1.396 . S
C1309 C1310 1.399 . S
C1310 H1296 0.929 . S
C1310 C1309 1.399 . S
C1310 C1311 1.385 . S
C1311 H1297 0.931 . S
C1311 C1310 1.385 . S
C1311 C1312 1.389 . S
C1312 C1311 1.389 . S
C1312 C1313 1.387 . S
C1313 H1298 0.930 . S
C1313 C1308 1.390 . S
C1313 C1312 1.387 . S
H1314 C1326 0.930 . S
H1315 C1328 0.930 . S
H1316 C1329 0.930 . S
H1317 C1333 0.959 . S
H1318 C1333 0.959 . S
H1319 C1333 0.961 . S
H1320 C1334 0.960 . S
H1321 C1334 0.961 . S
H1322 C1334 0.959 . S
H1323 C1337 0.929 . S
H1324 C1338 0.931 . S
H1325 C1340 0.930 . S
C1326 H1314 0.930 . S
C1326 C1327 1.399 . S
C1326 C1331 1.399 . S
C1327 C1326 1.399 . S
C1327 C1328 1.376 . S
C1328 H1315 0.930 . S
C1328 C1327 1.376 . S
C1328 C1329 1.388 . S
C1329 H1316 0.930 . S
C1329 C1328 1.388 . S
C1329 C1330 1.390 . S
C1330 C1329 1.390 . S
C1330 C1331 1.394 . S
C1330 C1336 1.465 . S
C1331 C1326 1.399 . S
C1331 C1330 1.394 . S
C1331 C1332 1.516 . S
C1332 C1331 1.516 . S
C1332 C1333 1.502 . S
C1332 C1334 1.561 . S
C1332 C1335 1.526 . S
C1333 H1317 0.959 . S
C1333 H1318 0.959 . S
C1333 H1319 0.961 . S
C1333 C1332 1.502 . S
C1334 H1320 0.960 . S
C1334 H1321 0.961 . S
C1334 H1322 0.959 . S
C1334 C1332 1.561 . S
C1335 C1332 1.526 . S
C1335 C1336 1.396 . S
C1335 C1340 1.390 . S
C1336 C1330 1.465 . S
C1336 C1335 1.396 . S
C1336 C1337 1.399 . S
C1337 H1323 0.929 . S
C1337 C1336 1.399 . S
C1337 C1338 1.385 . S
C1338 H1324 0.931 . S
C1338 C1337 1.385 . S
C1338 C1339 1.389 . S
C1339 C1338 1.389 . S
C1339 C1340 1.387 . S
C1340 H1325 0.930 . S
C1340 C1335 1.390 . S
C1340 C1339 1.387 . S
H1341 C1353 0.930 . S
H1342 C1355 0.930 . S
H1343 C1356 0.930 . S
H1344 C1360 0.959 . S
H1345 C1360 0.959 . S
H1346 C1360 0.961 . S
H1347 C1361 0.960 . S
H1348 C1361 0.961 . S
H1349 C1361 0.959 . S
H1350 C1364 0.929 . S
H1351 C1365 0.931 . S
H1352 C1367 0.930 . S
C1353 H1341 0.930 . S
C1353 C1354 1.399 . S
C1353 C1358 1.399 . S
C1354 C1353 1.399 . S
C1354 C1355 1.376 . S
C1355 H1342 0.930 . S
C1355 C1354 1.376 . S
C1355 C1356 1.388 . S
C1356 H1343 0.930 . S
C1356 C1355 1.388 . S
C1356 C1357 1.390 . S
C1357 C1356 1.390 . S
C1357 C1358 1.394 . S
C1357 C1363 1.465 . S
C1358 C1353 1.399 . S
C1358 C1357 1.394 . S
C1358 C1359 1.516 . S
C1359 C1358 1.516 . S
C1359 C1360 1.502 . S
C1359 C1361 1.561 . S
C1359 C1362 1.526 . S
C1360 H1344 0.959 . S
C1360 H1345 0.959 . S
C1360 H1346 0.961 . S
C1360 C1359 1.502 . S
C1361 H1347 0.960 . S
C1361 H1348 0.961 . S
C1361 H1349 0.959 . S
C1361 C1359 1.561 . S
C1362 C1359 1.526 . S
C1362 C1363 1.396 . S
C1362 C1367 1.390 . S
C1363 C1357 1.465 . S
C1363 C1362 1.396 . S
C1363 C1364 1.399 . S
C1364 H1350 0.929 . S
C1364 C1363 1.399 . S
C1364 C1365 1.385 . S
C1365 H1351 0.931 . S
C1365 C1364 1.385 . S
C1365 C1366 1.389 . S
C1366 C1365 1.389 . S
C1366 C1367 1.387 . S
C1367 H1352 0.930 . S
C1367 C1362 1.390 . S
C1367 C1366 1.387 . S
H1368 C1380 0.930 . S
H1369 C1382 0.930 . S
H1370 C1383 0.930 . S
H1371 C1387 0.959 . S
H1372 C1387 0.959 . S
H1373 C1387 0.961 . S
H1374 C1388 0.960 . S
H1375 C1388 0.961 . S
H1376 C1388 0.959 . S
H1377 C1391 0.929 . S
H1378 C1392 0.931 . S
H1379 C1394 0.930 . S
C1380 H1368 0.930 . S
C1380 C1381 1.399 . S
C1380 C1385 1.399 . S
C1381 C1380 1.399 . S
C1381 C1382 1.376 . S
C1382 H1369 0.930 . S
C1382 C1381 1.376 . S
C1382 C1383 1.388 . S
C1383 H1370 0.930 . S
C1383 C1382 1.388 . S
C1383 C1384 1.390 . S
C1384 C1383 1.390 . S
C1384 C1385 1.394 . S
C1384 C1390 1.465 . S
C1385 C1380 1.399 . S
C1385 C1384 1.394 . S
C1385 C1386 1.516 . S
C1386 C1385 1.516 . S
C1386 C1387 1.502 . S
C1386 C1388 1.561 . S
C1386 C1389 1.526 . S
C1387 H1371 0.959 . S
C1387 H1372 0.959 . S
C1387 H1373 0.961 . S
C1387 C1386 1.502 . S
C1388 H1374 0.960 . S
C1388 H1375 0.961 . S
C1388 H1376 0.959 . S
C1388 C1386 1.561 . S
C1389 C1386 1.526 . S
C1389 C1390 1.396 . S
C1389 C1394 1.390 . S
C1390 C1384 1.465 . S
C1390 C1389 1.396 . S
C1390 C1391 1.399 . S
C1391 H1377 0.929 . S
C1391 C1390 1.399 . S
C1391 C1392 1.385 . S
C1392 H1378 0.931 . S
C1392 C1391 1.385 . S
C1392 C1393 1.389 . S
C1393 C1392 1.389 . S
C1393 C1394 1.387 . S
C1394 H1379 0.930 . S
C1394 C1389 1.390 . S
C1394 C1393 1.387 . S
H1395 C1407 0.930 . S
H1396 C1409 0.930 . S
H1397 C1410 0.930 . S
H1398 C1414 0.959 . S
H1399 C1414 0.959 . S
H1400 C1414 0.961 . S
H1401 C1415 0.960 . S
H1402 C1415 0.961 . S
H1403 C1415 0.959 . S
H1404 C1418 0.929 . S
H1405 C1419 0.931 . S
H1406 C1421 0.930 . S
C1407 H1395 0.930 . S
C1407 C1408 1.399 . S
C1407 C1412 1.399 . S
C1408 C1407 1.399 . S
C1408 C1409 1.376 . S
C1409 H1396 0.930 . S
C1409 C1408 1.376 . S
C1409 C1410 1.388 . S
C1410 H1397 0.930 . S
C1410 C1409 1.388 . S
C1410 C1411 1.390 . S
C1411 C1410 1.390 . S
C1411 C1412 1.394 . S
C1411 C1417 1.465 . S
C1412 C1407 1.399 . S
C1412 C1411 1.394 . S
C1412 C1413 1.516 . S
C1413 C1412 1.516 . S
C1413 C1414 1.502 . S
C1413 C1415 1.561 . S
C1413 C1416 1.526 . S
C1414 H1398 0.959 . S
C1414 H1399 0.959 . S
C1414 H1400 0.961 . S
C1414 C1413 1.502 . S
C1415 H1401 0.960 . S
C1415 H1402 0.961 . S
C1415 H1403 0.959 . S
C1415 C1413 1.561 . S
C1416 C1413 1.526 . S
C1416 C1417 1.396 . S
C1416 C1421 1.390 . S
C1417 C1411 1.465 . S
C1417 C1416 1.396 . S
C1417 C1418 1.399 . S
C1418 H1404 0.929 . S
C1418 C1417 1.399 . S
C1418 C1419 1.385 . S
C1419 H1405 0.931 . S
C1419 C1418 1.385 . S
C1419 C1420 1.389 . S
C1420 C1419 1.389 . S
C1420 C1421 1.387 . S
C1421 H1406 0.930 . S
C1421 C1416 1.390 . S
C1421 C1420 1.387 . S
H1422 C1434 0.930 . S
H1423 C1436 0.930 . S
H1424 C1437 0.930 . S
H1425 C1441 0.959 . S
H1426 C1441 0.959 . S
H1427 C1441 0.961 . S
H1428 C1442 0.960 . S
H1429 C1442 0.961 . S
H1430 C1442 0.959 . S
H1431 C1445 0.929 . S
H1432 C1446 0.931 . S
H1433 C1448 0.930 . S
C1434 H1422 0.930 . S
C1434 C1435 1.399 . S
C1434 C1439 1.399 . S
C1435 C1434 1.399 . S
C1435 C1436 1.376 . S
C1436 H1423 0.930 . S
C1436 C1435 1.376 . S
C1436 C1437 1.388 . S
C1437 H1424 0.930 . S
C1437 C1436 1.388 . S
C1437 C1438 1.390 . S
C1438 C1437 1.390 . S
C1438 C1439 1.394 . S
C1438 C1444 1.465 . S
C1439 C1434 1.399 . S
C1439 C1438 1.394 . S
C1439 C1440 1.516 . S
C1440 C1439 1.516 . S
C1440 C1441 1.502 . S
C1440 C1442 1.561 . S
C1440 C1443 1.526 . S
C1441 H1425 0.959 . S
C1441 H1426 0.959 . S
C1441 H1427 0.961 . S
C1441 C1440 1.502 . S
C1442 H1428 0.960 . S
C1442 H1429 0.961 . S
C1442 H1430 0.959 . S
C1442 C1440 1.561 . S
C1443 C1440 1.526 . S
C1443 C1444 1.396 . S
C1443 C1448 1.390 . S
C1444 C1438 1.465 . S
C1444 C1443 1.396 . S
C1444 C1445 1.399 . S
C1445 H1431 0.929 . S
C1445 C1444 1.399 . S
C1445 C1446 1.385 . S
C1446 H1432 0.931 . S
C1446 C1445 1.385 . S
C1446 C1447 1.389 . S
C1447 C1446 1.389 . S
C1447 C1448 1.387 . S
C1448 H1433 0.930 . S
C1448 C1443 1.390 . S
C1448 C1447 1.387 . S
H1449 C1461 0.930 . S
H1450 C1463 0.930 . S
H1451 C1464 0.930 . S
H1452 C1468 0.959 . S
H1453 C1468 0.959 . S
H1454 C1468 0.961 . S
H1455 C1469 0.960 . S
H1456 C1469 0.961 . S
H1457 C1469 0.959 . S
H1458 C1472 0.929 . S
H1459 C1473 0.931 . S
H1460 C1475 0.930 . S
C1461 H1449 0.930 . S
C1461 C1462 1.399 . S
C1461 C1466 1.399 . S
C1462 C1461 1.399 . S
C1462 C1463 1.376 . S
C1463 H1450 0.930 . S
C1463 C1462 1.376 . S
C1463 C1464 1.388 . S
C1464 H1451 0.930 . S
C1464 C1463 1.388 . S
C1464 C1465 1.390 . S
C1465 C1464 1.390 . S
C1465 C1466 1.394 . S
C1465 C1471 1.465 . S
C1466 C1461 1.399 . S
C1466 C1465 1.394 . S
C1466 C1467 1.516 . S
C1467 C1466 1.516 . S
C1467 C1468 1.502 . S
C1467 C1469 1.561 . S
C1467 C1470 1.526 . S
C1468 H1452 0.959 . S
C1468 H1453 0.959 . S
C1468 H1454 0.961 . S
C1468 C1467 1.502 . S
C1469 H1455 0.960 . S
C1469 H1456 0.961 . S
C1469 H1457 0.959 . S
C1469 C1467 1.561 . S
C1470 C1467 1.526 . S
C1470 C1471 1.396 . S
C1470 C1475 1.390 . S
C1471 C1465 1.465 . S
C1471 C1470 1.396 . S
C1471 C1472 1.399 . S
C1472 H1458 0.929 . S
C1472 C1471 1.399 . S
C1472 C1473 1.385 . S
C1473 H1459 0.931 . S
C1473 C1472 1.385 . S
C1473 C1474 1.389 . S
C1474 C1473 1.389 . S
C1474 C1475 1.387 . S
C1475 H1460 0.930 . S
C1475 C1470 1.390 . S
C1475 C1474 1.387 . S
H1476 C1488 0.930 . S
H1477 C1490 0.930 . S
H1478 C1491 0.930 . S
H1479 C1495 0.959 . S
H1480 C1495 0.959 . S
H1481 C1495 0.961 . S
H1482 C1496 0.960 . S
H1483 C1496 0.961 . S
H1484 C1496 0.959 . S
H1485 C1499 0.929 . S
H1486 C1500 0.931 . S
H1487 C1502 0.930 . S
C1488 H1476 0.930 . S
C1488 C1489 1.399 . S
C1488 C1493 1.399 . S
C1489 C1488 1.399 . S
C1489 C1490 1.376 . S
C1490 H1477 0.930 . S
C1490 C1489 1.376 . S
C1490 C1491 1.388 . S
C1491 H1478 0.930 . S
C1491 C1490 1.388 . S
C1491 C1492 1.390 . S
C1492 C1491 1.390 . S
C1492 C1493 1.394 . S
C1492 C1498 1.465 . S
C1493 C1488 1.399 . S
C1493 C1492 1.394 . S
C1493 C1494 1.516 . S
C1494 C1493 1.516 . S
C1494 C1495 1.502 . S
C1494 C1496 1.561 . S
C1494 C1497 1.526 . S
C1495 H1479 0.959 . S
C1495 H1480 0.959 . S
C1495 H1481 0.961 . S
C1495 C1494 1.502 . S
C1496 H1482 0.960 . S
C1496 H1483 0.961 . S
C1496 H1484 0.959 . S
C1496 C1494 1.561 . S
C1497 C1494 1.526 . S
C1497 C1498 1.396 . S
C1497 C1502 1.390 . S
C1498 C1492 1.465 . S
C1498 C1497 1.396 . S
C1498 C1499 1.399 . S
C1499 H1485 0.929 . S
C1499 C1498 1.399 . S
C1499 C1500 1.385 . S
C1500 H1486 0.931 . S
C1500 C1499 1.385 . S
C1500 C1501 1.389 . S
C1501 C1500 1.389 . S
C1501 C1502 1.387 . S
C1502 H1487 0.930 . S
C1502 C1497 1.390 . S
C1502 C1501 1.387 . S
H1503 C1515 0.930 . S
H1504 C1517 0.930 . S
H1505 C1518 0.930 . S
H1506 C1522 0.959 . S
H1507 C1522 0.959 . S
H1508 C1522 0.961 . S
H1509 C1523 0.960 . S
H1510 C1523 0.961 . S
H1511 C1523 0.959 . S
H1512 C1526 0.929 . S
H1513 C1527 0.931 . S
H1514 C1529 0.930 . S
C1515 H1503 0.930 . S
C1515 C1516 1.399 . S
C1515 C1520 1.399 . S
C1516 C1515 1.399 . S
C1516 C1517 1.376 . S
C1517 H1504 0.930 . S
C1517 C1516 1.376 . S
C1517 C1518 1.388 . S
C1518 H1505 0.930 . S
C1518 C1517 1.388 . S
C1518 C1519 1.390 . S
C1519 C1518 1.390 . S
C1519 C1520 1.394 . S
C1519 C1525 1.465 . S
C1520 C1515 1.399 . S
C1520 C1519 1.394 . S
C1520 C1521 1.516 . S
C1521 C1520 1.516 . S
C1521 C1522 1.502 . S
C1521 C1523 1.561 . S
C1521 C1524 1.526 . S
C1522 H1506 0.959 . S
C1522 H1507 0.959 . S
C1522 H1508 0.961 . S
C1522 C1521 1.502 . S
C1523 H1509 0.960 . S
C1523 H1510 0.961 . S
C1523 H1511 0.959 . S
C1523 C1521 1.561 . S
C1524 C1521 1.526 . S
C1524 C1525 1.396 . S
C1524 C1529 1.390 . S
C1525 C1519 1.465 . S
C1525 C1524 1.396 . S
C1525 C1526 1.399 . S
C1526 H1512 0.929 . S
C1526 C1525 1.399 . S
C1526 C1527 1.385 . S
C1527 H1513 0.931 . S
C1527 C1526 1.385 . S
C1527 C1528 1.389 . S
C1528 C1527 1.389 . S
C1528 C1529 1.387 . S
C1529 H1514 0.930 . S
C1529 C1524 1.390 . S
C1529 C1528 1.387 . S
H1530 C1542 0.930 . S
H1531 C1544 0.930 . S
H1532 C1545 0.930 . S
H1533 C1549 0.959 . S
H1534 C1549 0.959 . S
H1535 C1549 0.961 . S
H1536 C1550 0.960 . S
H1537 C1550 0.961 . S
H1538 C1550 0.959 . S
H1539 C1553 0.929 . S
H1540 C1554 0.931 . S
H1541 C1556 0.930 . S
C1542 H1530 0.930 . S
C1542 C1543 1.399 . S
C1542 C1547 1.399 . S
C1543 C1542 1.399 . S
C1543 C1544 1.376 . S
C1544 H1531 0.930 . S
C1544 C1543 1.376 . S
C1544 C1545 1.388 . S
C1545 H1532 0.930 . S
C1545 C1544 1.388 . S
C1545 C1546 1.390 . S
C1546 C1545 1.390 . S
C1546 C1547 1.394 . S
C1546 C1552 1.465 . S
C1547 C1542 1.399 . S
C1547 C1546 1.394 . S
C1547 C1548 1.516 . S
C1548 C1547 1.516 . S
C1548 C1549 1.502 . S
C1548 C1550 1.561 . S
C1548 C1551 1.526 . S
C1549 H1533 0.959 . S
C1549 H1534 0.959 . S
C1549 H1535 0.961 . S
C1549 C1548 1.502 . S
C1550 H1536 0.960 . S
C1550 H1537 0.961 . S
C1550 H1538 0.959 . S
C1550 C1548 1.561 . S
C1551 C1548 1.526 . S
C1551 C1552 1.396 . S
C1551 C1556 1.390 . S
C1552 C1546 1.465 . S
C1552 C1551 1.396 . S
C1552 C1553 1.399 . S
C1553 H1539 0.929 . S
C1553 C1552 1.399 . S
C1553 C1554 1.385 . S
C1554 H1540 0.931 . S
C1554 C1553 1.385 . S
C1554 C1555 1.389 . S
C1555 C1554 1.389 . S
C1555 C1556 1.387 . S
C1556 H1541 0.930 . S
C1556 C1551 1.390 . S
C1556 C1555 1.387 . S
H1557 C1569 0.930 . S
H1558 C1571 0.930 . S
H1559 C1572 0.930 . S
H1560 C1576 0.959 . S
H1561 C1576 0.959 . S
H1562 C1576 0.961 . S
H1563 C1577 0.960 . S
H1564 C1577 0.961 . S
H1565 C1577 0.959 . S
H1566 C1580 0.929 . S
H1567 C1581 0.931 . S
H1568 C1583 0.930 . S
C1569 H1557 0.930 . S
C1569 C1570 1.399 . S
C1569 C1574 1.399 . S
C1570 C1569 1.399 . S
C1570 C1571 1.376 . S
C1571 H1558 0.930 . S
C1571 C1570 1.376 . S
C1571 C1572 1.388 . S
C1572 H1559 0.930 . S
C1572 C1571 1.388 . S
C1572 C1573 1.390 . S
C1573 C1572 1.390 . S
C1573 C1574 1.394 . S
C1573 C1579 1.465 . S
C1574 C1569 1.399 . S
C1574 C1573 1.394 . S
C1574 C1575 1.516 . S
C1575 C1574 1.516 . S
C1575 C1576 1.502 . S
C1575 C1577 1.561 . S
C1575 C1578 1.526 . S
C1576 H1560 0.959 . S
C1576 H1561 0.959 . S
C1576 H1562 0.961 . S
C1576 C1575 1.502 . S
C1577 H1563 0.960 . S
C1577 H1564 0.961 . S
C1577 H1565 0.959 . S
C1577 C1575 1.561 . S
C1578 C1575 1.526 . S
C1578 C1579 1.396 . S
C1578 C1583 1.390 . S
C1579 C1573 1.465 . S
C1579 C1578 1.396 . S
C1579 C1580 1.399 . S
C1580 H1566 0.929 . S
C1580 C1579 1.399 . S
C1580 C1581 1.385 . S
C1581 H1567 0.931 . S
C1581 C1580 1.385 . S
C1581 C1582 1.389 . S
C1582 C1581 1.389 . S
C1582 C1583 1.387 . S
C1583 H1568 0.930 . S
C1583 C1578 1.390 . S
C1583 C1582 1.387 . S
H1584 C1596 0.930 . S
H1585 C1598 0.930 . S
H1586 C1599 0.930 . S
H1587 C1603 0.959 . S
H1588 C1603 0.959 . S
H1589 C1603 0.961 . S
H1590 C1604 0.960 . S
H1591 C1604 0.961 . S
H1592 C1604 0.959 . S
H1593 C1607 0.929 . S
H1594 C1608 0.931 . S
H1595 C1610 0.930 . S
C1596 H1584 0.930 . S
C1596 C1597 1.399 . S
C1596 C1601 1.399 . S
C1597 C1596 1.399 . S
C1597 C1598 1.376 . S
C1598 H1585 0.930 . S
C1598 C1597 1.376 . S
C1598 C1599 1.388 . S
C1599 H1586 0.930 . S
C1599 C1598 1.388 . S
C1599 C1600 1.390 . S
C1600 C1599 1.390 . S
C1600 C1601 1.394 . S
C1600 C1606 1.465 . S
C1601 C1596 1.399 . S
C1601 C1600 1.394 . S
C1601 C1602 1.516 . S
C1602 C1601 1.516 . S
C1602 C1603 1.502 . S
C1602 C1604 1.561 . S
C1602 C1605 1.526 . S
C1603 H1587 0.959 . S
C1603 H1588 0.959 . S
C1603 H1589 0.961 . S
C1603 C1602 1.502 . S
C1604 H1590 0.960 . S
C1604 H1591 0.961 . S
C1604 H1592 0.959 . S
C1604 C1602 1.561 . S
C1605 C1602 1.526 . S
C1605 C1606 1.396 . S
C1605 C1610 1.390 . S
C1606 C1600 1.465 . S
C1606 C1605 1.396 . S
C1606 C1607 1.399 . S
C1607 H1593 0.929 . S
C1607 C1606 1.399 . S
C1607 C1608 1.385 . S
C1608 H1594 0.931 . S
C1608 C1607 1.385 . S
C1608 C1609 1.389 . S
C1609 C1608 1.389 . S
C1609 C1610 1.387 . S
C1610 H1595 0.930 . S
C1610 C1605 1.390 . S
C1610 C1609 1.387 . S
H1611 C1623 0.930 . S
H1612 C1625 0.930 . S
H1613 C1626 0.930 . S
H1614 C1630 0.959 . S
H1615 C1630 0.959 . S
H1616 C1630 0.961 . S
H1617 C1631 0.960 . S
H1618 C1631 0.961 . S
H1619 C1631 0.959 . S
H1620 C1634 0.929 . S
H1621 C1635 0.931 . S
H1622 C1637 0.930 . S
C1623 H1611 0.930 . S
C1623 C1624 1.399 . S
C1623 C1628 1.399 . S
C1624 C1623 1.399 . S
C1624 C1625 1.376 . S
C1625 H1612 0.930 . S
C1625 C1624 1.376 . S
C1625 C1626 1.388 . S
C1626 H1613 0.930 . S
C1626 C1625 1.388 . S
C1626 C1627 1.390 . S
C1627 C1626 1.390 . S
C1627 C1628 1.394 . S
C1627 C1633 1.465 . S
C1628 C1623 1.399 . S
C1628 C1627 1.394 . S
C1628 C1629 1.516 . S
C1629 C1628 1.516 . S
C1629 C1630 1.502 . S
C1629 C1631 1.561 . S
C1629 C1632 1.526 . S
C1630 H1614 0.959 . S
C1630 H1615 0.959 . S
C1630 H1616 0.961 . S
C1630 C1629 1.502 . S
C1631 H1617 0.960 . S
C1631 H1618 0.961 . S
C1631 H1619 0.959 . S
C1631 C1629 1.561 . S
C1632 C1629 1.526 . S
C1632 C1633 1.396 . S
C1632 C1637 1.390 . S
C1633 C1627 1.465 . S
C1633 C1632 1.396 . S
C1633 C1634 1.399 . S
C1634 H1620 0.929 . S
C1634 C1633 1.399 . S
C1634 C1635 1.385 . S
C1635 H1621 0.931 . S
C1635 C1634 1.385 . S
C1635 C1636 1.389 . S
C1636 C1635 1.389 . S
C1636 C1637 1.387 . S
C1637 H1622 0.930 . S
C1637 C1632 1.390 . S
C1637 C1636 1.387 . S
H1638 C1650 0.930 . S
H1639 C1652 0.930 . S
H1640 C1653 0.930 . S
H1641 C1657 0.959 . S
H1642 C1657 0.959 . S
H1643 C1657 0.961 . S
H1644 C1658 0.960 . S
H1645 C1658 0.961 . S
H1646 C1658 0.959 . S
H1647 C1661 0.929 . S
H1648 C1662 0.931 . S
H1649 C1664 0.930 . S
C1650 H1638 0.930 . S
C1650 C1651 1.399 . S
C1650 C1655 1.399 . S
C1651 C1650 1.399 . S
C1651 C1652 1.376 . S
C1652 H1639 0.930 . S
C1652 C1651 1.376 . S
C1652 C1653 1.388 . S
C1653 H1640 0.930 . S
C1653 C1652 1.388 . S
C1653 C1654 1.390 . S
C1654 C1653 1.390 . S
C1654 C1655 1.394 . S
C1654 C1660 1.465 . S
C1655 C1650 1.399 . S
C1655 C1654 1.394 . S
C1655 C1656 1.516 . S
C1656 C1655 1.516 . S
C1656 C1657 1.502 . S
C1656 C1658 1.561 . S
C1656 C1659 1.526 . S
C1657 H1641 0.959 . S
C1657 H1642 0.959 . S
C1657 H1643 0.961 . S
C1657 C1656 1.502 . S
C1658 H1644 0.960 . S
C1658 H1645 0.961 . S
C1658 H1646 0.959 . S
C1658 C1656 1.561 . S
C1659 C1656 1.526 . S
C1659 C1660 1.396 . S
C1659 C1664 1.390 . S
C1660 C1654 1.465 . S
C1660 C1659 1.396 . S
C1660 C1661 1.399 . S
C1661 H1647 0.929 . S
C1661 C1660 1.399 . S
C1661 C1662 1.385 . S
C1662 H1648 0.931 . S
C1662 C1661 1.385 . S
C1662 C1663 1.389 . S
C1663 C1662 1.389 . S
C1663 C1664 1.387 . S
C1664 H1649 0.930 . S
C1664 C1659 1.390 . S
C1664 C1663 1.387 . S
H1665 C1677 0.930 . S
H1666 C1679 0.930 . S
H1667 C1680 0.930 . S
H1668 C1684 0.959 . S
H1669 C1684 0.959 . S
H1670 C1684 0.961 . S
H1671 C1685 0.960 . S
H1672 C1685 0.961 . S
H1673 C1685 0.959 . S
H1674 C1688 0.929 . S
H1675 C1689 0.931 . S
H1676 C1691 0.930 . S
C1677 H1665 0.930 . S
C1677 C1678 1.399 . S
C1677 C1682 1.399 . S
C1678 C1677 1.399 . S
C1678 C1679 1.376 . S
C1679 H1666 0.930 . S
C1679 C1678 1.376 . S
C1679 C1680 1.388 . S
C1680 H1667 0.930 . S
C1680 C1679 1.388 . S
C1680 C1681 1.390 . S
C1681 C1680 1.390 . S
C1681 C1682 1.394 . S
C1681 C1687 1.465 . S
C1682 C1677 1.399 . S
C1682 C1681 1.394 . S
C1682 C1683 1.516 . S
C1683 C1682 1.516 . S
C1683 C1684 1.502 . S
C1683 C1685 1.561 . S
C1683 C1686 1.526 . S
C1684 H1668 0.959 . S
C1684 H1669 0.959 . S
C1684 H1670 0.961 . S
C1684 C1683 1.502 . S
C1685 H1671 0.960 . S
C1685 H1672 0.961 . S
C1685 H1673 0.959 . S
C1685 C1683 1.561 . S
C1686 C1683 1.526 . S
C1686 C1687 1.396 . S
C1686 C1691 1.390 . S
C1687 C1681 1.465 . S
C1687 C1686 1.396 . S
C1687 C1688 1.399 . S
C1688 H1674 0.929 . S
C1688 C1687 1.399 . S
C1688 C1689 1.385 . S
C1689 H1675 0.931 . S
C1689 C1688 1.385 . S
C1689 C1690 1.389 . S
C1690 C1689 1.389 . S
C1690 C1691 1.387 . S
C1691 H1676 0.930 . S
C1691 C1686 1.390 . S
C1691 C1690 1.387 . S
H1692 C1704 0.930 . S
H1693 C1706 0.930 . S
H1694 C1707 0.930 . S
H1695 C1711 0.959 . S
H1696 C1711 0.959 1_655 S
H1697 C1711 0.961 . S
H1698 C1712 0.960 . S
H1699 C1712 0.961 . S
H1700 C1712 0.959 . S
H1701 C1715 0.929 . S
H1702 C1716 0.931 . S
H1703 C1718 0.930 . S
C1704 H1692 0.930 . S
C1704 C1705 1.403 . S
C1704 C1709 1.399 . S
C1705 C1704 1.403 . S
C1705 C1706 1.345 1_655 S
C1706 H1693 0.930 . S
C1706 C1705 1.345 1_455 S
C1706 C1707 1.388 . S
C1707 H1694 0.930 . S
C1707 C1706 1.388 . S
C1707 C1708 1.391 . S
C1708 C1707 1.391 . S
C1708 C1709 1.383 1_455 S
C1708 C1714 1.443 . S
C1709 C1704 1.399 . S
C1709 C1708 1.383 1_655 S
C1709 C1710 1.516 . S
C1710 C1709 1.516 . S
C1710 C1711 1.502 1_655 S
C1710 C1712 1.561 . S
C1710 C1713 1.526 . S
C1711 H1695 0.959 . S
C1711 H1696 0.959 1_455 S
C1711 H1697 0.961 . S
C1711 C1710 1.502 1_455 S
C1712 H1698 0.960 . S
C1712 H1699 0.961 . S
C1712 H1700 0.959 . S
C1712 C1710 1.561 . S
C1713 C1710 1.526 . S
C1713 C1714 1.379 1_655 S
C1713 C1718 1.390 . S
C1714 C1708 1.443 . S
C1714 C1713 1.379 1_455 S
C1714 C1715 1.444 . S
C1715 H1701 0.929 . S
C1715 C1714 1.444 . S
C1715 C1716 1.385 . S
C1716 H1702 0.931 . S
C1716 C1715 1.385 . S
C1716 C1717 1.405 . S
C1717 C1716 1.405 . S
C1717 C1718 1.350 1_455 S
C1718 H1703 0.930 . S
C1718 C1713 1.390 . S
C1718 C1717 1.350 1_655 S
H1719 C1731 0.930 . S
H1720 C1733 0.930 . S
H1721 C1734 0.930 . S
H1722 C1738 0.959 . S
H1723 C1738 0.959 . S
H1724 C1738 0.961 . S
H1725 C1739 0.960 . S
H1726 C1739 0.961 . S
H1727 C1739 0.959 . S
H1728 C1742 0.929 . S
H1729 C1743 0.931 . S
H1730 C1745 0.930 . S
C1731 H1719 0.930 . S
C1731 C1732 1.399 . S
C1731 C1736 1.399 . S
C1732 C1731 1.399 . S
C1732 C1733 1.376 . S
C1733 H1720 0.930 . S
C1733 C1732 1.376 . S
C1733 C1734 1.388 . S
C1734 H1721 0.930 . S
C1734 C1733 1.388 . S
C1734 C1735 1.390 . S
C1735 C1734 1.390 . S
C1735 C1736 1.394 . S
C1735 C1741 1.465 . S
C1736 C1731 1.399 . S
C1736 C1735 1.394 . S
C1736 C1737 1.516 . S
C1737 C1736 1.516 . S
C1737 C1738 1.502 . S
C1737 C1739 1.561 . S
C1737 C1740 1.526 . S
C1738 H1722 0.959 . S
C1738 H1723 0.959 . S
C1738 H1724 0.961 . S
C1738 C1737 1.502 . S
C1739 H1725 0.960 . S
C1739 H1726 0.961 . S
C1739 H1727 0.959 . S
C1739 C1737 1.561 . S
C1740 C1737 1.526 . S
C1740 C1741 1.396 . S
C1740 C1745 1.390 . S
C1741 C1735 1.465 . S
C1741 C1740 1.396 . S
C1741 C1742 1.399 . S
C1742 H1728 0.929 . S
C1742 C1741 1.399 . S
C1742 C1743 1.385 . S
C1743 H1729 0.931 . S
C1743 C1742 1.385 . S
C1743 C1744 1.389 . S
C1744 C1743 1.389 . S
C1744 C1745 1.387 . S
C1745 H1730 0.930 . S
C1745 C1740 1.390 . S
C1745 C1744 1.387 . S
H1746 C1758 0.930 . S
H1747 C1760 0.930 . S
H1748 C1761 0.930 . S
H1749 C1765 0.959 . S
H1750 C1765 0.959 . S
H1751 C1765 0.961 . S
H1752 C1766 0.960 . S
H1753 C1766 0.961 . S
H1754 C1766 0.959 . S
H1755 C1769 0.929 . S
H1756 C1770 0.931 . S
H1757 C1772 0.930 . S
C1758 H1746 0.930 . S
C1758 C1759 1.360 1_565 S
C1758 C1763 1.399 . S
C1759 C1758 1.360 1_545 S
C1759 C1760 1.405 . S
C1760 H1747 0.930 . S
C1760 C1759 1.405 . S
C1760 C1761 1.388 . S
C1761 H1748 0.930 . S
C1761 C1760 1.388 . S
C1761 C1762 1.390 . S
C1762 C1761 1.390 . S
C1762 C1763 1.394 1_545 S
C1762 C1768 1.465 . S
C1763 C1758 1.399 . S
C1763 C1762 1.394 1_565 S
C1763 C1764 1.516 . S
C1764 C1763 1.516 . S
C1764 C1765 1.502 . S
C1764 C1766 1.561 . S
C1764 C1767 1.526 . S
C1765 H1749 0.959 . S
C1765 H1750 0.959 . S
C1765 H1751 0.961 . S
C1765 C1764 1.502 . S
C1766 H1752 0.960 . S
C1766 H1753 0.961 . S
C1766 H1754 0.959 . S
C1766 C1764 1.561 . S
C1767 C1764 1.526 . S
C1767 C1768 1.396 1_565 S
C1767 C1772 1.390 . S
C1768 C1762 1.465 . S
C1768 C1767 1.396 1_545 S
C1768 C1769 1.399 . S
C1769 H1755 0.929 . S
C1769 C1768 1.399 . S
C1769 C1770 1.385 . S
C1770 H1756 0.931 . S
C1770 C1769 1.385 . S
C1770 C1771 1.389 . S
C1771 C1770 1.389 . S
C1771 C1772 1.387 1_545 S
C1772 H1757 0.930 . S
C1772 C1767 1.390 . S
C1772 C1771 1.387 1_565 S
H1773 C1785 0.930 . S
H1774 C1787 0.930 . S
H1775 C1788 0.930 . S
H1776 C1792 0.959 . S
H1777 C1792 0.959 . S
H1778 C1792 0.961 . S
H1779 C1793 0.960 . S
H1780 C1793 0.948 1_556 S
H1781 C1793 0.959 . S
H1782 C1796 0.929 1_554 S
H1783 C1797 0.931 . S
H1784 C1799 0.930 . S
C1785 H1773 0.930 . S
C1785 C1786 1.379 1_565 S
C1785 C1790 1.399 . S
C1786 C1785 1.379 1_545 S
C1786 C1787 1.431 . S
C1787 H1774 0.930 . S
C1787 C1786 1.431 . S
C1787 C1788 1.388 . S
C1788 H1775 0.930 . S
C1788 C1787 1.388 . S
C1788 C1789 1.390 . S
C1789 C1788 1.390 . S
C1789 C1790 1.394 1_545 S
C1789 C1795 1.464 . S
C1790 C1785 1.399 . S
C1790 C1789 1.394 1_565 S
C1790 C1791 1.516 1_554 S
C1791 C1790 1.516 1_556 S
C1791 C1792 1.502 . S
C1791 C1793 1.561 1_556 S
C1791 C1794 1.526 . S
C1792 H1776 0.959 . S
C1792 H1777 0.959 . S
C1792 H1778 0.961 . S
C1792 C1791 1.502 . S
C1793 H1779 0.960 . S
C1793 H1780 0.948 1_554 S
C1793 H1781 0.959 . S
C1793 C1791 1.561 1_554 S
C1794 C1791 1.526 . S
C1794 C1795 1.398 1_566 S
C1794 C1799 1.390 . S
C1795 C1789 1.464 . S
C1795 C1794 1.398 1_544 S
C1795 C1796 1.399 1_554 S
C1796 H1782 0.929 1_556 S
C1796 C1795 1.399 1_556 S
C1796 C1797 1.385 . S
C1797 H1783 0.931 . S
C1797 C1796 1.385 . S
C1797 C1798 1.389 . S
C1798 C1797 1.389 . S
C1798 C1799 1.387 1_545 S
C1799 H1784 0.930 . S
C1799 C1794 1.390 . S
C1799 C1798 1.387 1_565 S
H1800 C1812 0.930 . S
H1801 C1814 0.930 . S
H1802 C1815 0.930 . S
H1803 C1819 0.959 . S
H1804 C1819 0.959 . S
H1805 C1819 0.961 . S
H1806 C1820 0.960 . S
H1807 C1820 0.961 . S
H1808 C1820 0.959 1_655 S
H1809 C1823 0.929 . S
H1810 C1824 0.931 . S
H1811 C1826 0.935 . S
C1812 H1800 0.930 . S
C1812 C1813 1.399 1_455 S
C1812 C1817 1.399 . S
C1813 C1812 1.399 1_655 S
C1813 C1814 1.376 . S
C1814 H1801 0.930 . S
C1814 C1813 1.376 . S
C1814 C1815 1.388 1_556 S
C1815 H1802 0.930 . S
C1815 C1814 1.388 1_554 S
C1815 C1816 1.390 . S
C1816 C1815 1.390 . S
C1816 C1817 1.394 1_654 S
C1816 C1822 1.465 . S
C1817 C1812 1.399 . S
C1817 C1816 1.394 1_456 S
C1817 C1818 1.516 . S
C1818 C1817 1.516 . S
C1818 C1819 1.502 . S
C1818 C1820 1.561 . S
C1818 C1821 1.500 1_556 S
C1819 H1803 0.959 . S
C1819 H1804 0.959 . S
C1819 H1805 0.961 . S
C1819 C1818 1.502 . S
C1820 H1806 0.960 . S
C1820 H1807 0.961 . S
C1820 H1808 0.959 1_455 S
C1820 C1818 1.561 . S
C1821 C1818 1.500 1_554 S
C1821 C1822 1.413 1_455 S
C1821 C1826 1.400 . S
C1822 C1816 1.465 . S
C1822 C1821 1.413 1_655 S
C1822 C1823 1.399 . S
C1823 H1809 0.929 . S
C1823 C1822 1.399 . S
C1823 C1824 1.385 . S
C1824 H1810 0.931 . S
C1824 C1823 1.385 . S
C1824 C1825 1.403 . S
C1825 C1824 1.403 . S
C1825 C1826 1.355 1_655 S
C1826 H1811 0.935 . S
C1826 C1821 1.400 . S
C1826 C1825 1.355 1_455 S
H1827 C1839 0.930 . S
H1828 C1841 0.930 1_556 S
H1829 C1842 0.930 . S
H1830 C1846 0.959 . S
H1831 C1846 0.959 . S
H1832 C1846 0.961 . S
H1833 C1847 0.960 . S
H1834 C1847 0.961 . S
H1835 C1847 0.959 . S
H1836 C1850 0.929 . S
H1837 C1851 0.931 . S
H1838 C1853 0.930 1_554 S
C1839 H1827 0.930 . S
C1839 C1840 1.399 . S
C1839 C1844 1.399 . S
C1840 C1839 1.399 . S
C1840 C1841 1.376 . S
C1841 H1828 0.930 1_554 S
C1841 C1840 1.376 . S
C1841 C1842 1.388 1_554 S
C1842 H1829 0.930 . S
C1842 C1841 1.388 1_556 S
C1842 C1843 1.390 . S
C1843 C1842 1.390 . S
C1843 C1844 1.394 1_556 S
C1843 C1849 1.465 . S
C1844 C1839 1.399 . S
C1844 C1843 1.394 1_554 S
C1844 C1845 1.516 . S
C1845 C1844 1.516 . S
C1845 C1846 1.502 . S
C1845 C1847 1.561 . S
C1845 C1848 1.541 . S
C1846 H1830 0.959 . S
C1846 H1831 0.959 . S
C1846 H1832 0.961 . S
C1846 C1845 1.502 . S
C1847 H1833 0.960 . S
C1847 H1834 0.961 . S
C1847 H1835 0.959 . S
C1847 C1845 1.561 . S
C1848 C1845 1.541 . S
C1848 C1849 1.385 1_554 S
C1848 C1853 1.385 1_554 S
C1849 C1843 1.465 . S
C1849 C1848 1.385 1_556 S
C1849 C1850 1.399 . S
C1850 H1836 0.929 . S
C1850 C1849 1.399 . S
C1850 C1851 1.385 . S
C1851 H1837 0.931 . S
C1851 C1850 1.385 . S
C1851 C1852 1.389 . S
C1852 C1851 1.389 . S
C1852 C1853 1.387 . S
C1853 H1838 0.930 1_556 S
C1853 C1848 1.385 1_556 S
C1853 C1852 1.387 . S
C409 C7 1.567 . S
C421 C326 1.542 1_554 S
C436 C18 1.542 . S
C448 C304 1.545 1_554 S
C463 C29 1.546 . S
C475 C315 1.574 1_554 S
C490 C40 1.580 . S
C502 C150 1.555 . S
C517 C161 1.549 . S
C529 C51 1.576 . S
C544 C62 1.560 . S
C556 C139 1.539 . S
C571 C73 1.499 . S
C583 C260 1.468 1_556 S
C598 C84 1.473 . S
C610 C238 1.511 1_556 S
C625 C95 1.466 . S
C637 C249 1.473 1_556 S
C652 C348 1.471 . S
C664 C106 1.508 . S
C679 C117 1.470 . S
C691 C359 1.508 . S
C706 C128 1.499 . S
C718 C337 1.468 . S
C733 C172 1.544 1_455 S
C745 C282 1.572 . S
C760 C183 1.542 . S
C772 C293 1.546 . S
C787 C194 1.560 . S
C799 C271 1.583 . S
C814 C392 1.503 . S
C826 C205 1.467 . S
C841 C216 1.500 . S
C853 C370 1.535 1_655 S
C868 C381 1.539 . S
C880 C227 1.500 . S
C895 C5 1.339 . S
C907 C49 1.372 . S
C922 C60 1.330 . S
C934 C16 1.357 . S
C949 C38 1.338 . S
C961 C27 1.370 . S
C976 C115 1.225 . S
C988 C71 1.320 . S
C1003 C82 1.227 . S
C1015 C126 1.324 . S
C1030 C104 1.376 . S
C1042 C93 1.291 . S
C1057 C137 1.431 . S
C1069 C181 1.397 . S
C1084 C148 1.324 . S
C1096 C192 1.336 . S
C1111 C170 1.328 . S
C1123 C159 1.327 . S
C1138 C203 1.374 . S
C1150 C247 1.285 . S
C1165 C214 1.264 . S
C1177 C258 1.365 . S
C1192 C236 1.224 . S
C1204 C225 1.313 . S
C1219 C269 1.452 . S
C1231 C313 1.438 . S
C1246 C280 1.338 . S
C1258 C324 1.370 . S
C1273 C291 1.438 . S
C1285 C302 1.407 . S
C1300 C379 1.297 . S
C1312 C335 1.376 . S
C1327 C346 1.376 . S
C1339 C390 1.290 . S
C1354 C368 1.222 . S
C1366 C357 1.307 . S
C1381 C338 1.516 . S
C1393 C8 1.585 . S
C1408 C349 1.563 . S
C1420 C19 1.589 . S
C1435 C360 1.561 . S
C1447 C30 1.589 . S
C1462 C41 1.590 . S
C1474 C239 1.536 . S
C1489 C250 1.539 . S
C1501 C52 1.578 . S
C1516 C63 1.589 . S
C1528 C261 1.560 . S
C1543 C140 1.579 . S
C1555 C74 1.528 . S
C1570 C151 1.583 . S
C1582 C85 1.576 . S
C1597 C162 1.584 . S
C1609 C96 1.576 . S
C1624 C305 1.581 . S
C1636 C107 1.520 . S
C1651 C118 1.553 . S
C1663 C316 1.578 . S
C1678 C129 1.518 . S
C1690 C327 1.586 . S
C1705 C371 1.552 1_655 S
C1717 C173 1.583 . S
C1732 C382 1.544 . S
C1744 C184 1.578 . S
C1759 C195 1.635 1_545 S
C1771 C393 1.557 1_545 S
C1786 C206 1.498 . S
C1798 C272 1.562 . S
C1813 C283 1.621 . S
C1825 C217 1.550 . S
C1840 C228 1.551 . S
C1852 C294 1.579 . S
