# Generated by pormake.
# Topology wjq, (5)-cn, num edge types: 1
# Building blocks:
#     Node 0, Type 0, BuildingBlock: BEQFEK_clean_sbu_0, # of connection points: 5
#     Node 1, Type 0, BuildingBlock: BEQFEK_clean_sbu_0, # of connection points: 5
#     Node 2, Type 0, BuildingBlock: BEQFEK_clean_sbu_0, # of connection points: 5
#     Node 3, Type 0, BuildingBlock: BEQFEK_clean_sbu_0, # of connection points: 5
#     Node 4, Type 0, BuildingBlock: BEQFEK_clean_sbu_0, # of connection points: 5
#     Node 5, Type 0, BuildingBlock: BEQFEK_clean_sbu_0, # of connection points: 5
#     Node 6, Type 0, BuildingBlock: BEQFEK_clean_sbu_0, # of connection points: 5
#     Node 7, Type 0, BuildingBlock: BEQFEK_clean_sbu_0, # of connection points: 5
#     Node 8, Type 0, BuildingBlock: BEQFEK_clean_sbu_0, # of connection points: 5
#     Node 9, Type 0, BuildingBlock: BEQFEK_clean_sbu_0, # of connection points: 5
#     Node 10, Type 0, BuildingBlock: BEQFEK_clean_sbu_0, # of connection points: 5
#     Node 11, Type 0, BuildingBlock: BEQFEK_clean_sbu_0, # of connection points: 5
#     Edge 12, Type (0, 0), BuildingBlock: EZIPEK_clean_linker_0, # of connection points: 2
#     Edge 13, Type (0, 0), BuildingBlock: EZIPEK_clean_linker_0, # of connection points: 2
#     Edge 14, Type (0, 0), BuildingBlock: EZIPEK_clean_linker_0, # of connection points: 2
#     Edge 15, Type (0, 0), BuildingBlock: EZIPEK_clean_linker_0, # of connection points: 2
#     Edge 16, Type (0, 0), BuildingBlock: EZIPEK_clean_linker_0, # of connection points: 2
#     Edge 17, Type (0, 0), BuildingBlock: EZIPEK_clean_linker_0, # of connection points: 2
#     Edge 18, Type (0, 0), BuildingBlock: EZIPEK_clean_linker_0, # of connection points: 2
#     Edge 19, Type (0, 0), BuildingBlock: EZIPEK_clean_linker_0, # of connection points: 2
#     Edge 20, Type (0, 0), BuildingBlock: EZIPEK_clean_linker_0, # of connection points: 2
#     Edge 21, Type (0, 0), BuildingBlock: EZIPEK_clean_linker_0, # of connection points: 2
#     Edge 22, Type (0, 0), BuildingBlock: EZIPEK_clean_linker_0, # of connection points: 2
#     Edge 23, Type (0, 0), BuildingBlock: EZIPEK_clean_linker_0, # of connection points: 2
#     Edge 24, Type (0, 0), BuildingBlock: EZIPEK_clean_linker_0, # of connection points: 2
#     Edge 25, Type (0, 0), BuildingBlock: EZIPEK_clean_linker_0, # of connection points: 2
#     Edge 26, Type (0, 0), BuildingBlock: EZIPEK_clean_linker_0, # of connection points: 2
#     Edge 27, Type (0, 0), BuildingBlock: EZIPEK_clean_linker_0, # of connection points: 2
#     Edge 28, Type (0, 0), BuildingBlock: EZIPEK_clean_linker_0, # of connection points: 2
#     Edge 29, Type (0, 0), BuildingBlock: EZIPEK_clean_linker_0, # of connection points: 2
#     Edge 30, Type (0, 0), BuildingBlock: EZIPEK_clean_linker_0, # of connection points: 2
#     Edge 31, Type (0, 0), BuildingBlock: EZIPEK_clean_linker_0, # of connection points: 2
#     Edge 32, Type (0, 0), BuildingBlock: EZIPEK_clean_linker_0, # of connection points: 2
#     Edge 33, Type (0, 0), BuildingBlock: EZIPEK_clean_linker_0, # of connection points: 2
#     Edge 34, Type (0, 0), BuildingBlock: EZIPEK_clean_linker_0, # of connection points: 2
#     Edge 35, Type (0, 0), BuildingBlock: EZIPEK_clean_linker_0, # of connection points: 2
#     Edge 36, Type (0, 0), BuildingBlock: EZIPEK_clean_linker_0, # of connection points: 2
#     Edge 37, Type (0, 0), BuildingBlock: EZIPEK_clean_linker_0, # of connection points: 2
#     Edge 38, Type (0, 0), BuildingBlock: EZIPEK_clean_linker_0, # of connection points: 2
#     Edge 39, Type (0, 0), BuildingBlock: EZIPEK_clean_linker_0, # of connection points: 2
#     Edge 40, Type (0, 0), BuildingBlock: EZIPEK_clean_linker_0, # of connection points: 2
#     Edge 41, Type (0, 0), BuildingBlock: EZIPEK_clean_linker_0, # of connection points: 2
# Relax obj value: 0.395
# Max RMSD: 0.186
# Mean RMSD: 0.186
data_MOF--net-wjq--node1-BEQFEK_clean_sbu_0--edge1-EZIPEK_clean_linker_0
_symmetry_space_group_name_H-M    P1
_symmetry_Int_Tables_number       1
_symmetry_cell_setting            triclinic
loop_
_symmetry_equiv_pos_as_xyz
'x, y, z'
_cell_length_a     27.140179
_cell_length_b     27.234549
_cell_length_c     54.699157
_cell_angle_alpha  90.204641
_cell_angle_beta   89.62415
_cell_angle_gamma 120.16732
loop_
_atom_site_label
_atom_site_type_symbol
_atom_site_fract_x
_atom_site_fract_y
_atom_site_fract_z
_atom_type_partial_charge
Co0 Co 0.2045 0.13095 0.1007 0.0
Co1 Co 0.31575 0.22284 0.07691 0.0
C2 C 0.19581 0.20474 0.06433 0.0
O3 O 0.17186 0.16882 0.08147 0.0
O4 O 0.24956 0.22767 0.0606 0.0
C5 C 0.10919 0.07475 0.13231 0.0
O6 O 0.10787 0.12214 0.13038 0.0
C7 C 0.39475 0.34489 0.07275 0.0
C8 C 0.47079 0.35052 0.05514 0.0
C9 C 0.44903 0.38332 0.06435 0.0
N10 N 0.38466 0.29186 0.06872 0.0
N11 N 0.43042 0.2955 0.05823 0.0
C12 C 0.3526 0.35841 0.08398 0.0
H13 H 0.31413 0.31915 0.09037 0.0
H14 H 0.37221 0.3879 0.0996 0.0
H15 H 0.34031 0.38021 0.07026 0.0
C16 C 0.271 0.17306 0.14619 0.0
N17 N 0.26366 0.17866 0.12217 0.0
N18 N 0.31293 0.21479 0.11224 0.0
C19 C 0.3537 0.23143 0.12966 0.0
C20 C 0.32824 0.20551 0.15185 0.0
C21 C 0.22534 0.13261 0.16324 0.0
H22 H 0.18981 0.14154 0.16347 0.0
H23 H 0.24104 0.13676 0.1822 0.0
H24 H 0.20972 0.08854 0.15705 0.0
O25 O 0.23022 0.09197 0.0777 0.0
O26 O 0.31449 0.15424 0.06209 0.0
H27 H 0.44146 0.26502 0.14032 0.0
H28 H 0.42796 0.30904 0.11998 0.0
C29 C 0.41616 0.2648 0.12441 0.0
H30 H 0.4262 0.24679 0.10817 0.0
H31 H 0.43408 0.26053 0.05315 0.0
O32 O 0.14512 0.06929 0.11955 0.0
C33 C 0.2727 0.10339 0.06396 0.0
Co34 Co 0.07506 0.20136 0.43405 0.0
Co35 Co 0.10239 0.31593 0.41147 0.0
C36 C 0.99657 0.20495 0.39697 0.0
O37 O 1.00904 0.17839 0.41242 0.0
O38 O 0.0273 0.25878 0.39528 0.0
C39 C 1.00797 0.11804 0.46802 0.0
O40 O 0.98339 0.14887 0.4701 0.0
C41 C 0.06927 0.40076 0.40676 0.0
C42 C 0.14287 0.47436 0.3895 0.0
C43 C 0.08787 0.45498 0.39808 0.0
N44 N 0.11083 0.38821 0.40345 0.0
N45 N 0.15498 0.4325 0.3932 0.0
C46 C 1.01178 0.36028 0.41716 0.0
H47 H 0.98159 0.339 0.4019 0.0
H48 H 0.01368 0.32744 0.4284 0.0
H49 H 0.99544 0.3831 0.42837 0.0
C50 C 0.11557 0.27024 0.47878 0.0
N51 N 0.09681 0.26308 0.45554 0.0
N52 N 0.10725 0.31213 0.44667 0.0
C53 C 0.13188 0.35194 0.46452 0.0
C54 C 0.13747 0.32628 0.48558 0.0
C55 C 0.11979 0.22635 0.49348 0.0
H56 H 0.12511 0.19652 0.48151 0.0
H57 H 0.08048 0.20337 0.50461 0.0
H58 H 0.15637 0.24594 0.50619 0.0
O59 O 0.13959 0.21773 0.41223 0.0
O60 O 0.16333 0.30225 0.39623 0.0
H61 H 0.18498 0.42856 0.44482 0.0
H62 H 0.17814 0.43881 0.47721 0.0
C63 C 0.15544 0.41406 0.46072 0.0
H64 H 0.1199 0.42155 0.45651 0.0
H65 H 0.19301 0.43393 0.38847 0.0
O66 O 0.05022 0.13357 0.45361 0.0
C67 C 0.17048 0.25918 0.39797 0.0
Co68 Co 0.88057 0.07256 0.76156 0.0
Co69 Co 0.78655 0.09354 0.74064 0.0
C70 C 0.7935 0.99011 0.72586 0.0
O71 O 0.83529 1.00558 0.74022 0.0
O72 O 0.7681 0.01866 0.72461 0.0
C73 C 0.89775 0.01153 0.7981 0.0
O74 O 0.84355 0.9934 0.80222 0.0
C75 C 0.66762 0.06319 0.73704 0.0
C76 C 0.67044 0.13939 0.72174 0.0
C77 C 0.63323 0.08457 0.72978 0.0
N78 N 0.72252 0.10313 0.73347 0.0
N79 N 0.72396 0.14872 0.72433 0.0
C80 C 0.64865 1.00502 0.7467 0.0
H81 H 0.63695 0.97512 0.73109 0.0
H82 H 0.68355 1.00473 0.75704 0.0
H83 H 0.61051 0.99012 0.7586 0.0
C84 C 0.85747 0.12013 0.80547 0.0
N85 N 0.84191 0.09591 0.7832 0.0
N86 N 0.79733 0.09839 0.77573 0.0
C87 C 0.78067 0.12064 0.79411 0.0
C88 C 0.81801 0.13433 0.81372 0.0
C89 C 0.91586 0.14356 0.81597 0.0
H90 H 0.94057 0.1269 0.8067 0.0
H91 H 0.91286 0.1356 0.83593 0.0
H92 H 0.93981 0.1903 0.81343 0.0
O93 O 0.92671 0.13636 0.73985 0.0
O94 O 0.86138 0.15539 0.725 0.0
H95 H 0.74357 0.16407 0.77645 0.0
H96 H 0.7301 0.15465 0.80906 0.0
C97 C 0.73441 0.13475 0.79204 0.0
H98 H 0.6938 0.09509 0.78839 0.0
H99 H 0.76146 0.18621 0.71984 0.0
O100 O 0.92433 0.04778 0.7813 0.0
C101 C 0.91302 0.16551 0.72619 0.0
Co102 Co 0.82459 0.87952 0.09737 0.0
Co103 Co 0.71169 0.78375 0.07587 0.0
C104 C 0.82345 0.78928 0.06493 0.0
O105 O 0.84842 0.83271 0.07853 0.0
O106 O 0.76942 0.76329 0.06281 0.0
C107 C 0.90147 0.89999 0.13482 0.0
O108 O 0.86651 0.84584 0.13914 0.0
C109 C 0.62375 0.66503 0.07205 0.0
C110 C 0.55111 0.66669 0.05505 0.0
C111 C 0.56859 0.63022 0.06389 0.0
N112 N 0.63854 0.7195 0.0682 0.0
N113 N 0.59483 0.72028 0.05808 0.0
C114 C 0.66271 0.6469 0.08272 0.0
H115 H 0.68544 0.63911 0.06762 0.0
H116 H 0.69476 0.68083 0.09465 0.0
H117 H 0.63839 0.60695 0.09327 0.0
C118 C 0.75147 0.85829 0.14054 0.0
N119 N 0.7609 0.84293 0.11832 0.0
N120 N 0.71424 0.79785 0.11075 0.0
C121 C 0.67474 0.78092 0.129 0.0
C122 C 0.69768 0.81872 0.1486 0.0
C123 C 0.78768 0.91511 0.15211 0.0
H124 H 0.827 0.94214 0.14163 0.0
H125 H 0.79703 0.90888 0.17112 0.0
H126 H 0.7633 0.93775 0.1532 0.0
O127 O 0.80972 0.92318 0.07335 0.0
O128 O 0.72699 0.85635 0.05759 0.0
H129 H 0.59412 0.7392 0.11105 0.0
H130 H 0.59009 0.72859 0.14387 0.0
C131 C 0.61503 0.73266 0.12706 0.0
H132 H 0.61604 0.69289 0.12411 0.0
H133 H 0.5949 0.75733 0.05312 0.0
O134 O 0.89133 0.92493 0.1176 0.0
C135 C 0.76872 0.9079 0.05835 0.0
Co136 Co 0.95571 0.81117 0.43259 0.0
Co137 Co 0.92863 0.69983 0.407 0.0
C138 C 0.03914 0.81519 0.3973 0.0
O139 O 0.02725 0.84104 0.41363 0.0
O140 O 1.0063 0.7619 0.3939 0.0
C141 C 0.99188 0.92077 0.45071 0.0
O142 O 0.03697 0.93674 0.43679 0.0
C143 C 0.96831 0.61984 0.40301 0.0
C144 C 0.89764 0.54371 0.38591 0.0
C145 C 0.95237 0.56561 0.39502 0.0
N146 N 0.92547 0.62993 0.39878 0.0
N147 N 0.88311 0.58416 0.38861 0.0
C148 C 0.02415 0.66242 0.41394 0.0
H149 H 0.01815 0.69091 0.42663 0.0
H150 H 0.04419 0.64137 0.4237 0.0
H151 H 0.05343 0.68868 0.39904 0.0
C152 C 0.92321 0.7428 0.47654 0.0
N153 N 0.93729 0.74947 0.45267 0.0
N154 N 0.91809 0.69977 0.44226 0.0
C155 C 0.88933 0.65923 0.45946 0.0
C156 C 0.89148 0.68545 0.48185 0.0
C157 C 0.934 0.79044 0.49344 0.0
H158 H 0.90023 0.80161 0.49102 0.0
H159 H 0.97607 0.82823 0.48935 0.0
H160 H 0.93334 0.77784 0.5127 0.0
O161 O 0.89546 0.79284 0.40894 0.0
O162 O 0.87133 0.71337 0.38865 0.0
H163 H 0.8283 0.59016 0.43775 0.0
H164 H 0.82861 0.57288 0.46983 0.0
C165 C 0.85544 0.59718 0.45397 0.0
H166 H 0.88505 0.58162 0.44933 0.0
H167 H 0.8444 0.58053 0.38352 0.0
O168 O 0.95389 0.86917 0.45213 0.0
C169 C 0.86616 0.75696 0.39256 0.0
Co170 Co 0.12704 0.93727 0.77151 0.0
Co171 Co 0.22363 0.92698 0.74638 0.0
C172 C 0.20516 0.02967 0.73945 0.0
O173 O 0.17055 0.01475 0.75741 0.0
O174 O 0.228 1.00004 0.73354 0.0
C175 C 0.06582 0.96551 0.80592 0.0
O176 O 0.11576 0.01073 0.80996 0.0
C177 C 0.34701 0.97206 0.74158 0.0
C178 C 0.35198 0.9048 0.72102 0.0
C179 C 0.38528 0.95782 0.73154 0.0
N180 N 0.2936 0.92967 0.73717 0.0
N181 N 0.29692 0.88946 0.72493 0.0
C182 C 0.36104 0.02576 0.75466 0.0
H183 H 0.32172 0.02426 0.76151 0.0
H184 H 0.38966 0.03237 0.77025 0.0
H185 H 0.38419 0.06224 0.74202 0.0
C186 C 0.16105 0.89776 0.81484 0.0
N187 N 0.16925 0.91655 0.79156 0.0
N188 N 0.211 0.91211 0.78155 0.0
C189 C 0.2311 0.89057 0.79865 0.0
C190 C 0.20006 0.88108 0.82036 0.0
C191 C 0.11328 0.89071 0.83107 0.0
H192 H 0.07279 0.86975 0.82082 0.0
H193 H 0.12212 0.93298 0.83749 0.0
H194 H 0.10814 0.86448 0.84733 0.0
O195 O 0.09306 0.88364 0.7442 0.0
O196 O 0.15718 0.86616 0.72718 0.0
H197 H 0.26857 0.85311 0.77636 0.0
H198 H 0.27893 0.85024 0.80902 0.0
C199 C 0.27662 0.87622 0.79396 0.0
H200 H 0.31803 0.91627 0.79244 0.0
H201 H 0.26165 0.85169 0.71913 0.0
O202 O 0.06216 0.93092 0.78953 0.0
C203 C 0.10637 0.85755 0.72857 0.0
Co204 Co 0.87639 0.82195 0.62355 0.0
Co205 Co 0.79032 0.71103 0.64999 0.0
C206 C 0.79272 0.82099 0.66054 0.0
O207 O 0.83379 0.84621 0.64553 0.0
O208 O 0.76793 0.76721 0.6629 0.0
C209 C 0.89912 0.90491 0.58723 0.0
O210 O 0.8444 0.87434 0.58257 0.0
C211 C 0.67339 0.62064 0.65612 0.0
C212 C 0.6786 0.55382 0.67659 0.0
C213 C 0.64025 0.56736 0.66636 0.0
N214 N 0.72866 0.63821 0.6601 0.0
N215 N 0.73159 0.59794 0.67231 0.0
C216 C 0.65279 0.65544 0.6434 0.0
H217 H 0.63975 0.67649 0.65733 0.0
H218 H 0.68717 0.68855 0.63188 0.0
H219 H 0.61512 0.62813 0.63197 0.0
C220 C 0.84576 0.7471 0.58103 0.0
N221 N 0.83535 0.75731 0.60406 0.0
N222 N 0.79868 0.7092 0.61458 0.0
C223 C 0.78312 0.66689 0.59785 0.0
C224 C 0.81248 0.68996 0.57595 0.0
C225 C 0.89342 0.78904 0.56529 0.0
H226 H 0.87651 0.80936 0.55304 0.0
H227 H 0.91091 0.76788 0.55375 0.0
H228 H 0.92864 0.82118 0.57652 0.0
O229 O 0.92647 0.80849 0.64423 0.0
O230 O 0.86651 0.7344 0.66711 0.0
H231 H 0.74473 0.57838 0.58792 0.0
H232 H 0.70127 0.59733 0.60633 0.0
C233 C 0.74507 0.60532 0.60327 0.0
H234 H 0.75921 0.59401 0.62025 0.0
H235 H 0.76968 0.6007 0.67787 0.0
O236 O 0.92147 0.88873 0.60328 0.0
C237 C 0.91715 0.77488 0.66206 0.0
Co238 Co 0.08706 0.87701 0.97124 0.0
Co239 Co 0.10772 0.78423 0.99216 0.0
C240 C 1.00118 0.79382 1.00476 0.0
O241 O 0.01566 0.83471 0.98997 0.0
O242 O 0.03189 0.77067 1.00703 0.0
C243 C 0.0437 0.9416 0.94984 0.0
O244 O 0.99476 0.90374 0.95951 0.0
C245 C 0.0654 0.66302 0.99646 0.0
C246 C 0.14192 0.65768 1.00503 0.0
C247 C 0.08392 0.62476 1.00063 0.0
N248 N 0.1101 0.71609 0.99833 0.0
N249 N 0.15579 0.71266 1.00353 0.0
C250 C 1.00629 0.64953 0.99027 0.0
H251 H 1.00798 0.68002 0.9764 0.0
H252 H 0.98015 0.60541 0.98343 0.0
H253 H 0.98559 0.65421 1.00697 0.0
C254 C 0.11491 0.84323 0.92476 0.0
N255 N 0.10185 0.83393 0.94874 0.0
N256 N 0.11561 0.79735 0.95711 0.0
C257 C 0.13961 0.78333 0.93849 0.0
C258 C 0.13974 0.81201 0.91729 0.0
C259 C 0.10952 0.88606 0.90971 0.0
H260 H 0.06671 0.88088 0.91249 0.0
H261 H 0.11563 0.88129 0.88999 0.0
H262 H 0.14223 0.92943 0.91551 0.0
O263 O 0.14977 0.91563 0.99448 0.0
O264 O 0.17119 0.85302 1.0095 0.0
H265 H 0.18737 0.74555 0.92418 0.0
H266 H 0.13657 0.70615 0.94821 0.0
C267 C 0.1682 0.74911 0.94161 0.0
H268 H 0.20176 0.76924 0.95573 0.0
H269 H 0.19655 0.74774 1.00564 0.0
O270 O 0.08744 0.93739 0.9529 0.0
C271 C 0.17962 0.90365 1.00836 0.0
Co272 Co 0.20703 0.07206 0.29978 0.0
Co273 Co 0.32112 0.09128 0.3205 0.0
C274 C 0.20987 0.98627 0.33349 0.0
O275 O 0.18393 1.00301 0.31966 0.0
O276 O 0.26399 0.01475 0.33497 0.0
C277 C 0.12801 0.01394 0.26289 0.0
O278 O 0.16129 0.9927 0.25869 0.0
C279 C 0.40785 0.05931 0.32386 0.0
C280 C 0.48117 0.13296 0.34104 0.0
C281 C 0.46272 0.07874 0.33209 0.0
N282 N 0.39411 0.09976 0.32776 0.0
N283 N 0.43824 0.14389 0.33797 0.0
C284 C 0.36809 1.00222 0.31322 0.0
H285 H 0.33506 1.00399 0.30202 0.0
H286 H 0.39172 0.9869 0.3019 0.0
H287 H 0.34673 0.97149 0.32834 0.0
C288 C 0.27852 0.12233 0.25611 0.0
N289 N 0.26966 0.09758 0.27826 0.0
N290 N 0.31657 0.09945 0.28553 0.0
C291 C 0.35555 0.12175 0.2671 0.0
C292 C 0.33207 0.13626 0.24769 0.0
C293 C 0.24396 0.14618 0.24583 0.0
H294 H 0.20246 0.12964 0.25508 0.0
H295 H 0.23885 0.1385 0.22588 0.0
H296 H 0.26754 0.19291 0.24844 0.0
O297 O 0.2237 0.13301 0.32286 0.0
O298 O 0.3076 0.15087 0.3379 0.0
H299 H 0.43657 0.16298 0.28473 0.0
H300 H 0.44013 0.15496 0.25196 0.0
C301 C 0.41572 0.13455 0.26891 0.0
H302 H 0.41571 0.09439 0.27211 0.0
H303 H 0.43887 0.18119 0.34308 0.0
O304 O 0.13955 0.04998 0.27994 0.0
C305 C 0.26583 0.16055 0.33716 0.0
Co306 Co 0.13733 0.20283 0.63227 0.0
Co307 Co 0.23043 0.31422 0.65563 0.0
C308 C 0.21048 0.19422 0.6689 0.0
O309 O 0.17407 0.16984 0.652 0.0
O310 O 0.23422 0.24797 0.6721 0.0
C311 C 0.07873 0.10767 0.60099 0.0
O312 O 0.12422 0.10298 0.60389 0.0
C313 C 0.35317 0.3909 0.6604 0.0
C314 C 0.36014 0.47024 0.67437 0.0
C315 C 0.39239 0.44609 0.66722 0.0
N316 N 0.30027 0.38265 0.66336 0.0
N317 N 0.30472 0.43033 0.67172 0.0
C318 C 0.36558 0.34608 0.65172 0.0
H319 H 0.32827 0.31196 0.64196 0.0
H320 H 0.4036 0.36454 0.6396 0.0
H321 H 0.3749 0.32739 0.66779 0.0
C322 C 0.1803 0.26865 0.58657 0.0
N323 N 0.18587 0.26164 0.61064 0.0
N324 N 0.22178 0.31097 0.62037 0.0
C325 C 0.23816 0.3514 0.60278 0.0
C326 C 0.21224 0.32566 0.5807 0.0
C327 C 0.14057 0.22276 0.5696 0.0
H328 H 0.14899 0.18704 0.57024 0.0
H329 H 0.14625 0.23783 0.55044 0.0
H330 H 0.09604 0.20798 0.57515 0.0
O331 O 0.09963 0.22938 0.65541 0.0
O332 O 0.16215 0.31322 0.67093 0.0
H333 H 0.27381 0.43873 0.59134 0.0
H334 H 0.31491 0.42545 0.61353 0.0
C335 C 0.27128 0.41372 0.60777 0.0
H336 H 0.25103 0.42403 0.6231 0.0
H337 H 0.27002 0.43577 0.67545 0.0
O338 O 0.0746 0.14462 0.61342 0.0
C339 C 0.11121 0.27139 0.66928 0.0
Co340 Co 0.95566 0.13615 0.95668 0.0
Co341 Co 0.93093 0.22183 0.98273 0.0
C342 C 0.03659 0.21116 0.99394 0.0
O343 O 0.02635 0.17848 0.97574 0.0
O344 O 1.00358 0.23068 0.99886 0.0
C345 C 0.01417 0.10991 0.92234 0.0
O346 O 0.04519 0.16557 0.92168 0.0
C347 C 0.97018 0.34154 0.99079 0.0
C348 C 0.8934 0.34313 1.00302 0.0
C349 C 0.95077 0.37795 0.99756 0.0
N350 N 0.92669 0.2877 0.9922 0.0
N351 N 0.88079 0.28887 0.99959 0.0
C352 C 0.02923 0.35775 0.98283 0.0
H353 H 0.05555 0.36479 0.99932 0.0
H354 H 0.02874 0.32337 0.97169 0.0
H355 H 0.04904 0.39791 0.97224 0.0
C356 C 0.91781 0.17105 0.91327 0.0
N357 N 0.93583 0.17926 0.93666 0.0
N358 N 0.92409 0.2155 0.94729 0.0
C359 C 0.89757 0.23126 0.9307 0.0
C360 C 0.89336 0.20393 0.90849 0.0
C361 C 0.91557 0.12591 0.8968 0.0
H362 H 0.95909 0.13929 0.89008 0.0
H363 H 0.88856 0.11838 0.88055 0.0
H364 H 0.89846 0.08551 0.90703 0.0
O365 O 0.89321 0.09019 0.98038 0.0
O366 O 0.86782 0.14893 0.99722 0.0
H367 H 0.84884 0.27094 0.9206 0.0
H368 H 0.90013 0.30546 0.94482 0.0
C369 C 0.86865 0.26402 0.93694 0.0
H370 H 0.83541 0.24056 0.95104 0.0
H371 H 0.84076 0.25284 1.00189 0.0
O372 O 0.97046 0.08676 0.93613 0.0
C373 C 0.86209 0.09942 0.99517 0.0
Co374 Co 0.82874 0.95568 0.2928 0.0
Co375 Co 0.71674 0.92858 0.31897 0.0
C376 C 0.83346 0.03732 0.32928 0.0
O377 O 0.85965 0.02594 0.31281 0.0
O378 O 0.77975 1.00494 0.3324 0.0
C379 C 0.92534 0.99467 0.26037 0.0
O380 O 0.93004 0.04494 0.26234 0.0
C381 C 0.63571 0.96754 0.32428 0.0
C382 C 0.55932 0.89499 0.34057 0.0
C383 C 0.5808 0.95017 0.33224 0.0
N384 N 0.64649 0.92498 0.32776 0.0
N385 N 0.60058 0.88156 0.33746 0.0
C386 C 0.67816 0.02425 0.31401 0.0
H387 H 0.70487 0.0519 0.32913 0.0
H388 H 0.70652 0.01954 0.30067 0.0
H389 H 0.65682 0.04514 0.30517 0.0
C390 C 0.75795 0.92593 0.24883 0.0
N391 N 0.76613 0.93902 0.27282 0.0
N392 N 0.71659 0.91975 0.28374 0.0
C393 C 0.67505 0.89158 0.26694 0.0
C394 C 0.70013 0.89449 0.24417 0.0
C395 C 0.80436 0.93843 0.23076 0.0
H396 H 0.83901 0.98302 0.23284 0.0
H397 H 0.78838 0.93237 0.21177 0.0
H398 H 0.82124 0.9095 0.23394 0.0
O399 O 0.80866 0.89342 0.31593 0.0
O400 O 0.72866 0.86942 0.33622 0.0
H401 H 0.58803 0.83072 0.25741 0.0
H402 H 0.59732 0.8862 0.27838 0.0
C403 C 0.61311 0.85717 0.27314 0.0
H404 H 0.60718 0.82974 0.28914 0.0
H405 H 0.59731 0.84276 0.34188 0.0
O406 O 0.88742 0.95426 0.27289 0.0
C407 C 0.77173 0.86334 0.332 0.0
C408 C 0.52373 0.53655 0.04151 0.0
C409 C 0.53541 0.56692 0.06387 0.0
C410 C 0.49426 0.47722 0.08659 0.0
C411 C 0.47795 0.44656 0.06424 0.0
N412 N 0.46706 0.44687 1.02052 0.0
N413 N 0.52024 0.56556 0.10739 0.0
C414 C 0.48979 0.47619 0.0417 0.0
C415 C 0.51718 0.53703 0.08634 0.0
N416 N 0.54682 0.56508 1.02015 0.0
N417 N 0.49021 0.44968 0.10798 0.0
H418 H 0.53548 0.60914 0.10775 0.0
H419 H 0.50248 0.54528 0.12392 0.0
H420 H 0.47473 0.40613 0.10885 0.0
H421 H 0.50705 0.47072 0.12443 0.0
H422 H 0.54505 0.54478 1.00373 0.0
H423 H 0.5721 0.60917 1.01921 0.0
H424 H 0.4692 0.46655 1.00393 0.0
H425 H 0.44135 0.40278 1.01993 0.0
C426 C 0.04016 0.50249 0.41911 0.0
C427 C 0.05482 0.48507 0.39709 0.0
C428 C 1.00674 0.52532 0.37355 0.0
C429 C 0.98681 0.53693 0.39566 0.0
N430 N 0.97552 0.52646 0.43945 0.0
N431 N 0.04391 0.47114 0.35344 0.0
C432 C 1.00094 0.52259 0.41846 0.0
C433 C 0.03592 0.49411 0.3743 0.0
N434 N 0.06516 0.50158 0.44057 0.0
N435 N 0.99966 0.54582 0.35188 0.0
H436 H 0.06479 0.4478 0.35319 0.0
H437 H 0.02551 0.47096 0.33676 0.0
H438 H 0.97897 0.56923 0.35056 0.0
H439 H 0.01873 0.54405 0.33557 0.0
H440 H 0.06052 0.51908 0.45678 0.0
H441 H 0.09505 0.48833 0.44162 0.0
H442 H 0.97964 0.51099 0.45625 0.0
H443 H 0.94609 0.54039 0.43969 0.0
C444 C 0.54 0.04098 0.75277 0.0
C445 C 0.56968 0.05492 0.73011 0.0
C446 C 0.47823 0.01265 0.70854 0.0
C447 C 0.4488 0.99219 0.73112 0.0
N448 N 0.45286 0.97724 0.77433 0.0
N449 N 0.56688 0.04655 0.68615 0.0
C450 C 0.48001 1.00376 0.75317 0.0
C451 C 0.53876 0.03883 0.70788 0.0
N452 N 0.56886 0.0647 0.7739 0.0
N453 N 0.44858 0.00878 0.68783 0.0
H454 H 0.61107 0.06532 0.68487 0.0
H455 H 0.54609 0.02996 0.66965 0.0
H456 H 0.4044 0.99081 0.68763 0.0
H457 H 0.46819 0.02819 0.67139 0.0
H458 H 0.54866 0.06015 0.79069 0.0
H459 H 0.61243 0.0939 0.77411 0.0
H460 H 0.47442 0.97973 0.7904 0.0
H461 H 0.40928 0.94827 0.77518 0.0
C462 C 0.54661 0.52552 0.68924 0.0
C463 C 0.57675 0.53273 0.66699 0.0
C464 C 0.48627 0.48607 0.64469 0.0
C465 C 0.45587 0.47454 0.66714 0.0
N466 N 0.45699 0.47324 0.71122 0.0
N467 N 0.5747 0.50793 0.62453 0.0
C468 C 0.48604 0.49135 0.68957 0.0
C469 C 0.54635 0.50936 0.645 0.0
N470 N 0.57553 0.55308 0.70988 0.0
N471 N 0.45823 0.47709 0.62302 0.0
H472 H 0.61842 0.52301 0.62437 0.0
H473 H 0.55415 0.48661 0.6086 0.0
H474 H 0.4144 0.4608 0.62199 0.0
H475 H 0.4791 0.4905 0.60623 0.0
H476 H 0.55539 0.5546 0.72591 0.0
H477 H 0.61978 0.57853 0.71043 0.0
H478 H 0.47703 0.47913 0.72803 0.0
H479 H 0.41277 0.4476 0.71221 0.0
C480 C 0.99926 0.47278 0.97618 0.0
C481 C 0.9839 0.44129 0.99836 0.0
C482 C 0.03529 0.53 1.02198 0.0
C483 C 0.04969 0.56148 0.99983 0.0
N484 N 0.04421 0.56471 0.95595 0.0
N485 N 0.98304 0.43839 0.04238 0.0
C486 C 0.03134 0.5333 0.97694 0.0
C487 C 1.00076 0.46956 1.02127 0.0
N488 N 0.9836 0.44449 0.95434 0.0
N489 N 0.05534 0.55811 0.04367 0.0
H490 H 0.9606 0.39412 0.04261 0.0
H491 H 0.98808 0.45572 0.05977 0.0
H492 H 0.07767 0.60226 0.04509 0.0
H493 H 0.05226 0.53836 0.0603 0.0
H494 H 0.99827 0.46337 0.93734 0.0
H495 H 0.95699 0.40071 0.9531 0.0
H496 H 0.02731 0.54826 0.93887 0.0
H497 H 0.07065 0.60864 0.9556 0.0
C498 C 0.53614 0.99862 0.30979 0.0
C499 C 0.55083 0.98343 0.33226 0.0
C500 C 0.50421 0.02746 0.35468 0.0
C501 C 0.49452 0.04732 0.33227 0.0
N502 N 0.5116 0.06164 0.28888 0.0
N503 N 0.55822 0.99243 0.37616 0.0
C504 C 0.51351 0.03574 0.30991 0.0
C505 C 0.53746 1.00036 0.35475 0.0
N506 N 0.542 0.97608 0.28835 0.0
N507 N 0.47996 0.03259 0.37579 0.0
H508 H 0.58319 0.97331 0.37699 0.0
H509 H 0.55511 0.00941 0.39281 0.0
H510 H 0.45521 0.05198 0.37652 0.0
H511 H 0.48021 0.0133 0.39216 0.0
H512 H 0.52638 0.98081 0.27172 0.0
H513 H 0.55793 0.94836 0.28751 0.0
H514 H 0.5301 0.05938 0.27249 0.0
H515 H 0.49634 0.08994 0.2884 0.0
C516 C 0.25767 1.00424 1.01123 0.0
C517 C 0.2235 0.95162 1.02331 0.0
C518 C 0.25014 1.00239 0.06247 0.0
C519 C 0.27026 0.05482 0.04997 0.0
N520 N 0.29273 0.10526 1.01141 0.0
N521 N 0.18774 0.90036 0.06128 0.0
C522 C 0.27549 0.05606 1.02406 0.0
C523 C 0.22106 0.95032 0.04925 0.0
N524 N 0.27168 1.00427 0.9872 0.0
N525 N 0.25837 1.00267 0.08708 0.0
H526 H 0.16679 0.86115 0.05252 0.0
H527 H 0.17844 0.89823 0.07989 0.0
H528 H 0.28056 0.0404 0.097 0.0
H529 H 0.24877 0.9663 0.097 0.0
H530 H 0.30026 0.04095 0.97776 0.0
H531 H 0.25918 0.96661 0.9776 0.0
H532 H 0.28995 0.10658 0.99246 0.0
H533 H 0.30636 0.14439 1.0197 0.0
C534 C 0.2143 0.25879 0.35659 0.0
C535 C 0.2132 0.25362 0.38251 0.0
C536 C 0.26412 0.20033 0.37916 0.0
C537 C 0.26312 0.20364 0.35327 0.0
N538 N 0.25818 0.2545 0.31844 0.0
N539 N 0.25628 0.23922 0.41804 0.0
C540 C 0.24567 0.23967 0.34246 0.0
C541 C 0.24499 0.23126 0.3936 0.0
N542 N 0.18194 0.27717 0.34512 0.0
N543 N 0.279 0.16468 0.3901 0.0
H544 H 0.24371 0.26278 0.42883 0.0
H545 H 0.28311 0.22799 0.42686 0.0
H546 H 0.29382 0.14158 0.38051 0.0
H547 H 0.27324 0.15535 0.40872 0.0
H548 H 0.17592 0.27454 0.32626 0.0
H549 H 0.1576 0.29121 0.35424 0.0
H550 H 0.25083 0.28443 0.30996 0.0
H551 H 0.28163 0.24133 0.30786 0.0
C552 C 0.06465 0.26997 0.71004 0.0
C553 C 0.06277 0.26739 0.68407 0.0
C554 C 0.95807 0.21206 0.68554 0.0
C555 C 0.96013 0.21143 0.71148 0.0
N556 N 1.01228 0.25783 0.74785 0.0
N557 N 1.00847 0.25652 0.64787 0.0
C558 C 0.01257 0.24698 0.72346 0.0
C559 C 1.00948 0.24576 0.67217 0.0
N560 N 0.11513 0.29001 0.72206 0.0
N561 N 0.90854 0.17734 0.67349 0.0
H562 H 0.04582 0.28166 0.63791 0.0
H563 H 0.97113 0.2458 0.63846 0.0
H564 H 0.86972 0.15215 0.6823 0.0
H565 H 0.90669 0.17088 0.65465 0.0
H566 H 0.11763 0.28538 0.74083 0.0
H567 H 0.15456 0.30876 0.71331 0.0
H568 H 0.04848 0.2871 0.75731 0.0
H569 H 0.97444 0.24188 0.7579 0.0
C570 C 0.78967 1.00709 0.05161 0.0
C571 C 0.77262 0.95289 0.04147 0.0
C572 C 0.79069 0.99586 1.00061 0.0
C573 C 0.82163 0.05096 1.01114 0.0
N574 N 0.85415 0.10795 0.04812 0.0
N575 N 0.7589 0.89598 1.00531 0.0
C576 C 0.82109 0.05662 0.03703 0.0
C577 C 0.7724 0.94694 1.01563 0.0
N578 N 0.77668 0.01111 0.07543 0.0
N579 N 0.77904 0.99042 0.97618 0.0
H580 H 0.74514 0.85889 1.01533 0.0
H581 H 0.76514 0.89143 0.98681 0.0
H582 H 0.79058 0.02551 0.96494 0.0
H583 H 0.75269 0.95145 0.9678 0.0
H584 H 0.78377 0.049 0.08331 0.0
H585 H 0.75304 0.97525 0.08634 0.0
H586 H 0.85997 0.11232 0.06699 0.0
H587 H 0.8799 0.14558 0.03877 0.0
C588 C 0.75628 0.77337 0.35409 0.0
C589 C 0.78944 0.83268 0.34927 0.0
C590 C 0.87273 0.8341 0.36654 0.0
C591 C 0.83889 0.77718 0.37463 0.0
N592 N 0.74611 0.69358 0.37825 0.0
N593 N 0.87415 0.92163 0.35904 0.0
C594 C 0.77979 0.74675 0.36897 0.0
C595 C 0.84604 0.86361 0.35807 0.0
N596 N 0.70346 0.74246 0.34404 0.0
N597 N 0.93088 0.85999 0.36649 0.0
H598 H 0.85499 0.94521 0.35432 0.0
H599 H 0.91384 0.94553 0.36731 0.0
H600 H 0.95246 0.83883 0.37135 0.0
H601 H 0.95703 0.90005 0.3589 0.0
H602 H 0.67947 0.69832 0.34492 0.0
H603 H 0.68532 0.76104 0.33348 0.0
H604 H 0.70187 0.6714 0.37679 0.0
H605 H 0.7625 0.6732 0.38873 0.0
C606 C 0.02651 0.77247 0.70648 0.0
C607 C 0.06587 0.83164 0.70795 0.0
C608 C 1.00313 0.85077 0.68339 0.0
C609 C 0.96612 0.7917 0.67916 0.0
N610 N 0.94905 0.6961 0.68364 0.0
N611 N 0.10004 0.92436 0.69061 0.0
C612 C 0.97956 0.75217 0.68982 0.0
C613 C 0.05713 0.86959 0.6937 0.0
N614 N 0.03329 0.73611 0.72126 0.0
N615 N 0.98526 0.88893 0.67948 0.0
H616 H 0.14064 0.93935 0.69784 0.0
H617 H 0.09665 0.95252 0.6788 0.0
H618 H 0.94333 0.87674 0.67502 0.0
H619 H 1.00989 0.93178 0.68407 0.0
H620 H 1.0029 0.6932 0.72293 0.0
H621 H 0.06841 0.75006 0.73275 0.0
H622 H 0.96012 0.66643 0.68926 0.0
H623 H 0.91562 0.68023 0.67118 0.0
C624 C 0.02122 0.02883 0.15902 0.0
C625 C 0.06462 0.02508 0.14609 0.0
C626 C 1.00191 0.92405 0.13944 0.0
C627 C 0.95625 0.93105 0.14736 0.0
N628 N 0.92507 0.97673 0.1757 0.0
N629 N 0.10405 0.96369 0.13978 0.0
C630 C 0.96692 0.97935 0.16097 0.0
C631 C 0.05779 0.97065 0.14164 0.0
N632 N 0.03162 0.0792 0.16883 0.0
N633 N 0.99176 0.87489 0.12836 0.0
H634 H 0.14511 0.99664 0.14355 0.0
H635 H 0.10078 0.92409 0.13779 0.0
H636 H 0.95108 0.83926 0.12744 0.0
H637 H 0.02339 0.87046 0.11947 0.0
H638 H 0.99962 0.0865 0.17519 0.0
H639 H 0.07291 0.11347 0.1708 0.0
H640 H 0.92974 0.00984 0.18683 0.0
H641 H 0.88773 0.93812 0.17859 0.0
C642 C 0.93512 0.01954 0.4628 0.0
C643 C 0.98026 0.05967 0.47714 0.0
C644 C 0.01746 0.99566 0.4821 0.0
C645 C 0.98181 0.96302 0.4626 0.0
N646 N 0.90387 0.94052 0.43487 0.0
N647 N 0.04912 0.07919 0.50795 0.0
C648 C 0.93835 0.97268 0.45358 0.0
C649 C 0.0157 0.04453 0.48971 0.0
N650 N 0.89137 0.02847 0.45711 0.0
N651 N 0.05348 0.98055 0.4926 0.0
H652 H 0.04322 0.11188 0.51451 0.0
H653 H 0.08023 0.07482 0.51698 0.0
H654 H 0.05387 0.94367 0.4877 0.0
H655 H 0.08218 1.00342 0.50638 0.0
H656 H 0.85502 0.99926 0.44775 0.0
H657 H 0.88936 0.06309 0.46416 0.0
H658 H 0.87593 0.94983 0.42582 0.0
H659 H 0.9055 0.9063 0.42717 0.0
C660 C 0.91769 0.93225 0.80193 0.0
C661 C 0.92639 0.98509 0.81048 0.0
C662 C 0.01473 1.00478 0.83033 0.0
C663 C 0.01265 0.96018 0.81632 0.0
N664 N 0.94982 0.86384 0.80353 0.0
N665 N 0.97058 0.06149 0.83928 0.0
C666 C 0.95964 0.91762 0.80706 0.0
C667 C 0.97073 0.01785 0.82715 0.0
N668 N 0.87207 0.89846 0.7875 0.0
N669 N 0.0574 0.03255 0.84688 0.0
H670 H 0.93431 0.06535 0.83947 0.0
H671 H 1.00407 0.09133 0.84985 0.0
H672 H 0.08582 0.01849 0.85092 0.0
H673 H 0.06192 0.06571 0.85792 0.0
H674 H 0.86765 0.86295 0.77827 0.0
H675 H 0.83967 0.90739 0.78401 0.0
H676 H 0.91057 0.83004 0.79817 0.0
H677 H 0.97929 0.85214 0.80895 0.0
C678 C 0.92747 1.00672 0.58693 0.0
C679 C 0.93434 0.96231 0.5773 0.0
C680 C 0.03567 0.0272 0.57059 0.0
C681 C 0.03049 0.0673 0.58531 0.0
N682 N 0.97028 0.10817 0.59205 0.0
N683 N 0.98623 0.93517 0.55035 0.0
C684 C 0.97589 0.06163 0.58839 0.0
C685 C 0.98585 0.97457 0.56564 0.0
N686 N 0.87624 0.99578 0.59636 0.0
N687 N 0.08767 0.03962 0.56158 0.0
H688 H 0.94835 0.89891 0.54547 0.0
H689 H 0.02202 0.9401 0.54111 0.0
H690 H 0.12246 0.08091 0.56179 0.0
H691 H 0.0959 0.01023 0.5531 0.0
H692 H 0.87121 0.02518 0.60672 0.0
H693 H 0.83916 0.95653 0.59449 0.0
H694 H 0.9309 0.10606 0.59299 0.0
H695 H 1.00464 0.14941 0.59057 0.0
C696 C 0.0918 0.04434 0.93735 0.0
C697 C 0.0474 0.98701 0.93419 0.0
C698 C 0.99717 0.01768 0.90721 0.0
C699 C 0.03702 0.07419 0.91361 0.0
N700 N 0.13592 0.13975 0.92082 0.0
N701 N 0.97265 0.91902 0.90795 0.0
C702 C 0.0897 0.08679 0.92348 0.0
C703 C 1.005 0.97347 0.91619 0.0
N704 N 0.13253 0.05928 0.9549 0.0
N705 N 0.94982 1.00678 0.89441 0.0
H706 H 0.97866 0.88608 0.91393 0.0
H707 H 0.944 0.90778 0.89356 0.0
H708 H 0.94508 0.03975 0.88745 0.0
H709 H 0.91543 0.96617 0.89143 0.0
H710 H 0.16191 0.10146 0.95904 0.0
H711 H 0.13405 0.03063 0.96697 0.0
H712 H 0.17649 0.1503 0.92679 0.0
H713 H 0.13435 0.17036 0.90996 0.0
C714 C 0.06891 0.03318 0.23512 0.0
C715 C 0.0747 0.9936 0.24949 0.0
C716 C 0.97204 0.93681 0.25275 0.0
C717 C 0.96951 0.98661 0.24772 0.0
N718 N 1.01108 0.07522 0.22564 0.0
N719 N 0.03142 0.90166 0.26871 0.0
C720 C 0.01642 0.0325 0.23575 0.0
C721 C 0.02602 0.94254 0.25671 0.0
N722 N 0.11344 0.07008 0.22086 0.0
N723 N 0.92356 0.88499 0.25357 0.0
H724 H 0.07079 0.90436 0.27114 0.0
H725 H 0.9971 0.86656 0.27694 0.0
H726 H 0.88413 0.87964 0.24858 0.0
H727 H 0.92388 0.8472 0.25596 0.0
H728 H 0.11215 0.09946 0.20916 0.0
H729 H 0.14935 0.06578 0.21896 0.0
H730 H 0.04571 0.11339 0.21973 0.0
H731 H 0.97139 0.07162 0.22289 0.0
C732 C 0.12624 0.26427 1.02058 0.0
C733 C 0.07789 0.21283 1.01269 0.0
C734 C 0.11335 0.15891 0.03523 0.0
C735 C 0.15786 0.20966 0.04565 0.0
N736 N 0.20279 0.31113 0.05028 0.0
N737 N 0.0182 0.11158 1.0188 0.0
C738 C 0.16338 0.26266 0.03884 0.0
C739 C 0.06941 0.16034 1.02188 0.0
N740 N 0.13767 0.31433 1.0101 0.0
N741 N 0.11414 0.10923 0.03702 0.0
H742 H 0.98342 0.11071 1.01038 0.0
H743 H 1.00818 0.07333 1.02719 0.0
H744 H 0.14715 0.10645 0.04532 0.0
H745 H 0.08565 0.07242 1.02767 0.0
H746 H 0.17498 0.35271 1.01323 0.0
H747 H 0.11163 0.31643 0.99671 0.0
H748 H 0.2054 0.3503 0.04794 0.0
H749 H 0.23008 0.31116 0.06361 0.0
C750 C 0.95665 0.17695 0.35352 0.0
C751 C 0.94867 0.17029 0.37938 0.0
C752 C 0.86193 0.07755 0.37263 0.0
C753 C 0.868 0.08563 0.34676 0.0
N754 N 0.91233 0.15165 0.31355 0.0
N755 N 0.88355 0.12209 0.41263 0.0
C756 C 0.91245 0.13825 0.33757 0.0
C757 C 0.89778 0.12324 0.38855 0.0
N758 N 1.00769 0.21722 0.34389 0.0
N759 N 0.8254 0.02531 0.38231 0.0
H760 H 0.90805 0.15542 0.4246 0.0
H761 H 0.84453 0.09136 0.41991 0.0
H762 H 0.80017 0.98934 0.37188 0.0
H763 H 0.82462 0.01622 0.40085 0.0
H764 H 0.01749 0.2191 0.32534 0.0
H765 H 0.04235 0.24539 0.35437 0.0
H766 H 0.94066 0.19151 0.30631 0.0
H767 H 0.87992 0.12516 0.30158 0.0
C768 C 0.77436 0.90237 0.66749 0.0
C769 C 0.77927 0.8568 0.67737 0.0
C770 C 0.77284 0.88995 0.71873 0.0
C771 C 0.77905 0.94096 0.70891 0.0
N772 N 0.79345 0.99861 0.67302 0.0
N773 N 0.79255 0.81334 0.71346 0.0
C774 C 0.78103 0.94769 0.68301 0.0
C775 C 0.78013 0.8516 0.7033 0.0
N776 N 0.76307 0.90228 0.64318 0.0
N777 N 0.75992 0.87806 0.74295 0.0
H778 H 0.80097 0.78596 0.70332 0.0
H779 H 0.80022 0.81267 0.73207 0.0
H780 H 0.7535 0.90481 0.75459 0.0
H781 H 0.74965 0.83918 0.75075 0.0
H782 H 0.75391 0.93152 0.63529 0.0
H783 H 0.75687 0.86932 0.63148 0.0
H784 H 0.80225 1.00781 0.6545 0.0
H785 H 0.80009 0.03358 0.68334 0.0
C786 C 0.85674 0.77252 1.02356 0.0
C787 C 0.8601 0.77405 0.04958 0.0
C788 C 0.95351 0.77955 0.04659 0.0
C789 C 0.94953 0.77681 1.02061 0.0
N790 N 0.88941 0.75291 0.98528 0.0
N791 N 0.90346 0.7615 0.08544 0.0
C792 C 0.89831 0.76718 1.00947 0.0
C793 C 0.90577 0.77155 0.06089 0.0
N794 N 0.81689 0.78064 1.01201 0.0
N795 N 1.00394 0.79401 0.05774 0.0
H796 H 0.86871 0.75461 0.09625 0.0
H797 H 0.93281 0.75406 0.09444 0.0
H798 H 0.04048 0.80146 0.04829 0.0
H799 H 1.01096 0.80338 0.07631 0.0
H800 H 0.81732 0.7869 0.99321 0.0
H801 H 0.78626 0.78613 1.02113 0.0
H802 H 0.85076 0.7402 0.9766 0.0
H803 H 0.91862 0.74784 0.97464 0.0
C804 C 0.18039 0.93951 0.3756 0.0
C805 C 0.17453 0.93571 0.34967 0.0
C806 C 0.082 0.8475 0.35448 0.0
C807 C 0.08878 0.85016 0.38041 0.0
N808 N 0.15306 0.88943 0.41439 0.0
N809 N 0.12817 0.87669 0.31477 0.0
C810 C 0.14098 0.89309 0.39049 0.0
C811 C 0.12815 0.8864 0.33929 0.0
N812 N 0.22059 0.98875 0.38637 0.0
N813 N 0.03049 0.81116 0.34416 0.0
H814 H 0.16174 0.90381 0.30328 0.0
H815 H 0.09823 0.83897 0.30643 0.0
H816 H 0.99454 0.78273 0.35403 0.0
H817 H 0.02185 0.81291 0.32575 0.0
H818 H 0.22193 0.99571 0.40516 0.0
H819 H 0.2494 0.02472 0.37666 0.0
H820 H 0.19256 0.91658 0.4222 0.0
H821 H 0.12576 0.85536 0.42555 0.0
C822 C 0.15841 0.07449 0.71525 0.0
C823 C 0.20926 0.07515 0.72236 0.0
C824 C 0.26338 0.15535 0.69372 0.0
C825 C 0.21304 0.15708 0.68854 0.0
N826 N 0.11686 0.12922 0.70071 0.0
N827 N 0.31198 0.12388 0.72136 0.0
C828 C 0.16203 0.12014 0.70135 0.0
C829 C 0.2624 0.11783 0.7124 0.0
N830 N 0.10597 0.02852 0.72017 0.0
N831 N 0.31161 0.18832 0.68039 0.0
H832 H 0.31276 0.09866 0.73546 0.0
H833 H 0.35213 0.15713 0.71649 0.0
H834 H 0.31355 0.21638 0.66697 0.0
H835 H 0.34808 0.18491 0.68141 0.0
H836 H 0.06835 0.02411 0.71314 0.0
H837 H 0.09983 0.99147 0.72842 0.0
H838 H 0.08083 0.10705 0.71175 0.0
H839 H 0.11802 0.1631 0.69135 0.0
C840 C 0.35361 0.14714 0.1788 0.0
C841 C 0.35419 0.19892 0.1749 0.0
C842 C 0.36981 0.21951 0.21891 0.0
C843 C 0.35612 0.16268 0.22322 0.0
N844 N 0.33934 0.07304 0.20751 0.0
N845 N 0.36787 0.28732 0.19057 0.0
C846 C 0.35082 0.12717 0.20317 0.0
C847 C 0.36521 0.23665 0.19474 0.0
N848 N 0.35429 0.11667 0.15905 0.0
N849 N 0.38598 0.25634 0.23815 0.0
H850 H 0.36692 0.30146 0.17296 0.0
H851 H 0.3692 0.31433 0.20439 0.0
H852 H 0.38943 0.24404 0.25583 0.0
H853 H 0.4003 0.29949 0.23638 0.0
H854 H 0.35804 0.08057 0.1603 0.0
H855 H 0.35621 0.13073 0.14115 0.0
H856 H 0.32781 0.04228 0.19398 0.0
H857 H 0.33943 0.05823 0.22506 0.0
C858 C 0.13221 0.34807 0.52997 0.0
C859 C 0.16609 0.35097 0.50957 0.0
C860 C 0.24133 0.3598 0.53728 0.0
C861 C 0.20494 0.3509 0.55755 0.0
N862 N 0.1241 0.3533 0.57418 0.0
N863 N 0.25794 0.37521 0.49337 0.0
C864 C 0.15331 0.35125 0.55414 0.0
C865 C 0.2228 0.36284 0.51318 0.0
N866 N 0.07854 0.33887 0.52612 0.0
N867 N 0.29203 0.36186 0.54108 0.0
H868 H 0.24471 0.3772 0.47571 0.0
H869 H 0.30094 0.38778 0.49448 0.0
H870 H 0.30714 0.36209 0.55861 0.0
H871 H 0.31829 0.36188 0.52714 0.0
H872 H 0.04852 0.3294 0.53992 0.0
H873 H 0.06342 0.33915 0.50865 0.0
H874 H 0.08812 0.35751 0.5733 0.0
H875 H 0.13901 0.3556 0.59193 0.0
C876 C 0.80693 0.14924 0.88224 0.0
C877 C 0.86035 0.1992 0.88584 0.0
C878 C 0.86622 0.2186 0.84177 0.0
C879 C 0.82107 0.16237 0.83779 0.0
N880 N 0.74384 0.0755 0.85393 0.0
N881 N 0.93848 0.28527 0.86974 0.0
C882 C 0.78898 0.12866 0.85799 0.0
C883 C 0.88855 0.23582 0.86583 0.0
N884 N 0.77481 0.12074 0.90217 0.0
N885 N 0.88826 0.25465 0.82231 0.0
H886 H 0.9541 0.29958 0.88729 0.0
H887 H 0.96504 0.31102 0.85578 0.0
H888 H 0.87205 0.24217 0.80469 0.0
H889 H 0.91877 0.29748 0.82387 0.0
H890 H 0.73368 0.08604 0.90111 0.0
H891 H 0.7879 0.13531 0.91995 0.0
H892 H 0.72257 0.0458 0.86768 0.0
H893 H 0.72872 0.0604 0.83641 0.0
C894 C 0.67961 0.81096 0.21759 0.0
C895 C 0.67525 0.86025 0.22132 0.0
C896 C 0.65708 0.86179 0.17737 0.0
C897 C 0.67357 0.82061 0.17315 0.0
N898 N 0.69634 0.75224 0.18894 0.0
N899 N 0.65495 0.93026 0.20553 0.0
C900 C 0.68213 0.79304 0.19326 0.0
C901 C 0.66114 0.88415 0.20145 0.0
N902 N 0.68252 0.78223 0.23743 0.0
N903 N 0.63896 0.88019 0.15809 0.0
H904 H 0.65541 0.94557 0.2231 0.0
H905 H 0.65105 0.9542 0.19171 0.0
H906 H 0.63596 0.86403 0.14047 0.0
H907 H 0.62276 0.90749 0.15975 0.0
H908 H 0.68155 0.74361 0.23635 0.0
H909 H 0.68088 0.79485 0.25531 0.0
H910 H 0.71029 0.73518 0.20237 0.0
H911 H 0.6959 0.73664 0.17144 0.0
C912 C 0.8059 0.66337 0.50777 0.0
C913 C 0.85711 0.66182 0.50488 0.0
C914 C 0.85956 0.64948 0.54937 0.0
C915 C 0.81562 0.66281 0.55248 0.0
N916 N 0.74244 0.67658 0.53523 0.0
N917 N 0.92997 0.64744 0.52208 0.0
C918 C 0.78652 0.66656 0.53177 0.0
C919 C 0.88231 0.65165 0.52545 0.0
N920 N 0.77674 0.663 0.48745 0.0
N921 N 0.88051 0.63675 0.56949 0.0
H922 H 0.94557 0.64652 0.50469 0.0
H923 H 0.95471 0.64613 0.53622 0.0
H924 H 0.86451 0.63554 0.58702 0.0
H925 H 0.91024 0.62334 0.5688 0.0
H926 H 0.73711 0.66025 0.48792 0.0
H927 H 0.79039 0.66085 0.46981 0.0
H928 H 0.72315 0.68663 0.52128 0.0
H929 H 0.72593 0.67612 0.55258 0.0
C930 C 0.1599 0.79813 0.84916 0.0
C931 C 0.20214 0.85524 0.84424 0.0
C932 C 0.21997 0.87195 0.88834 0.0
C933 C 0.16961 0.81949 0.8932 0.0
N934 N 0.09411 0.7297 0.87885 0.0
N935 N 0.27662 0.94554 0.85855 0.0
C936 C 0.14114 0.78103 0.87378 0.0
C937 C 0.23445 0.89141 0.8637 0.0
N938 N 0.13679 0.76115 0.83008 0.0
N939 N 0.25297 0.90336 0.90748 0.0
H940 H 0.28948 0.95961 0.84067 0.0
H941 H 0.29762 0.9768 0.87173 0.0
H942 H 0.24289 0.88948 0.92555 0.0
H943 H 0.29231 0.94024 0.90546 0.0
H944 H 0.10832 0.7179 0.83212 0.0
H945 H 0.15021 0.77344 0.81207 0.0
H946 H 0.06716 0.70187 0.86559 0.0
H947 H 0.08106 0.71567 0.89673 0.0
loop_
_geom_bond_atom_site_label_1
_geom_bond_atom_site_label_2
_geom_bond_distance
_geom_bond_site_symmetry_2
_ccdc_geom_bond_type
Co0 O3 1.970 . S
Co0 N17 1.989 . S
Co0 O25 1.967 . S
Co0 O32 1.920 . S
Co1 O4 1.966 . S
Co1 N10 2.022 . S
Co1 N18 1.993 . S
Co1 O26 1.941 . S
C2 O3 1.258 . S
C2 O4 1.263 . S
O3 Co0 1.970 . S
O3 C2 1.258 . S
O4 Co1 1.966 . S
O4 C2 1.263 . S
C5 O6 1.235 . S
C5 O32 1.289 . S
O6 C5 1.235 . S
C7 C9 1.400 . S
C7 N10 1.351 . S
C7 C12 1.501 . S
C8 C9 1.387 . S
C8 N11 1.341 . S
C9 C7 1.400 . S
C9 C8 1.387 . S
N10 Co1 2.022 . S
N10 C7 1.351 . S
N10 N11 1.365 . S
N11 C8 1.341 . S
N11 N10 1.365 . S
N11 H31 0.862 . S
C12 C7 1.501 . S
C12 H13 0.961 . S
C12 H14 0.961 . S
C12 H15 0.960 . S
H13 C12 0.961 . S
H14 C12 0.961 . S
H15 C12 0.960 . S
C16 N17 1.342 . S
C16 C20 1.401 . S
C16 C21 1.499 . S
N17 Co0 1.989 . S
N17 C16 1.342 . S
N17 N18 1.388 . S
N18 Co1 1.993 . S
N18 N17 1.388 . S
N18 C19 1.346 . S
C19 N18 1.346 . S
C19 C20 1.396 . S
C19 C29 1.510 . S
C20 C16 1.401 . S
C20 C19 1.396 . S
C21 C16 1.499 . S
C21 H22 0.959 . S
C21 H23 0.960 . S
C21 H24 0.961 . S
H22 C21 0.959 . S
H23 C21 0.960 . S
H24 C21 0.961 . S
O25 Co0 1.967 . S
O25 C33 1.258 . S
O26 Co1 1.941 . S
O26 C33 1.266 . S
H27 C29 0.959 . S
H28 C29 0.961 . S
C29 C19 1.510 . S
C29 H27 0.959 . S
C29 H28 0.961 . S
C29 H30 0.960 . S
H30 C29 0.960 . S
H31 N11 0.862 . S
O32 Co0 1.920 . S
O32 C5 1.289 . S
C33 O25 1.258 . S
C33 O26 1.266 . S
Co34 O37 1.970 . S
Co34 N51 1.989 . S
Co34 O59 1.967 . S
Co34 O66 1.920 . S
Co35 O38 1.966 . S
Co35 N44 2.022 . S
Co35 N52 1.993 . S
Co35 O60 1.941 . S
C36 O37 1.258 1_655 S
C36 O38 1.263 1_655 S
O37 Co34 1.970 . S
O37 C36 1.258 1_455 S
O38 Co35 1.966 . S
O38 C36 1.263 1_455 S
C39 O40 1.235 1_455 S
C39 O66 1.289 . S
O40 C39 1.235 1_655 S
C41 C43 1.400 . S
C41 N44 1.351 . S
C41 C46 1.501 . S
C42 C43 1.387 . S
C42 N45 1.341 . S
C43 C41 1.400 . S
C43 C42 1.387 . S
N44 Co35 2.022 . S
N44 C41 1.351 . S
N44 N45 1.365 . S
N45 C42 1.341 . S
N45 N44 1.365 . S
N45 H65 0.862 . S
C46 C41 1.501 . S
C46 H47 0.961 . S
C46 H48 0.961 1_455 S
C46 H49 0.960 1_455 S
H47 C46 0.961 . S
H48 C46 0.961 1_655 S
H49 C46 0.960 1_655 S
C50 N51 1.342 . S
C50 C54 1.401 . S
C50 C55 1.499 . S
N51 Co34 1.989 . S
N51 C50 1.342 . S
N51 N52 1.388 . S
N52 Co35 1.993 . S
N52 N51 1.388 . S
N52 C53 1.346 . S
C53 N52 1.346 . S
C53 C54 1.396 . S
C53 C63 1.510 . S
C54 C50 1.401 . S
C54 C53 1.396 . S
C55 C50 1.499 . S
C55 H56 0.959 . S
C55 H57 0.960 . S
C55 H58 0.961 . S
H56 C55 0.959 . S
H57 C55 0.960 . S
H58 C55 0.961 . S
O59 Co34 1.967 . S
O59 C67 1.258 . S
O60 Co35 1.941 . S
O60 C67 1.266 . S
H61 C63 0.959 . S
H62 C63 0.961 . S
C63 C53 1.510 . S
C63 H61 0.959 . S
C63 H62 0.961 . S
C63 H64 0.960 . S
H64 C63 0.960 . S
H65 N45 0.862 . S
O66 Co34 1.920 . S
O66 C39 1.289 . S
C67 O59 1.258 . S
C67 O60 1.266 . S
Co68 O71 1.970 . S
Co68 N85 1.989 . S
Co68 O93 1.967 . S
Co68 O100 1.920 . S
Co69 O72 1.966 . S
Co69 N78 2.022 . S
Co69 N86 1.993 . S
Co69 O94 1.941 . S
C70 O71 1.258 1_565 S
C70 O72 1.263 1_565 S
O71 Co68 1.970 . S
O71 C70 1.258 1_545 S
O72 Co69 1.966 . S
O72 C70 1.263 1_545 S
C73 O74 1.235 1_545 S
C73 O100 1.289 . S
O74 C73 1.235 1_565 S
C75 C77 1.400 . S
C75 N78 1.351 . S
C75 C80 1.501 . S
C76 C77 1.387 . S
C76 N79 1.341 . S
C77 C75 1.400 . S
C77 C76 1.387 . S
N78 Co69 2.022 . S
N78 C75 1.351 . S
N78 N79 1.365 . S
N79 C76 1.341 . S
N79 N78 1.365 . S
N79 H99 0.862 . S
C80 C75 1.501 . S
C80 H81 0.961 . S
C80 H82 0.961 1_545 S
C80 H83 0.960 1_545 S
H81 C80 0.961 . S
H82 C80 0.961 1_565 S
H83 C80 0.960 1_565 S
C84 N85 1.342 . S
C84 C88 1.401 . S
C84 C89 1.499 . S
N85 Co68 1.989 . S
N85 C84 1.342 . S
N85 N86 1.388 . S
N86 Co69 1.993 . S
N86 N85 1.388 . S
N86 C87 1.346 . S
C87 N86 1.346 . S
C87 C88 1.396 . S
C87 C97 1.510 . S
C88 C84 1.401 . S
C88 C87 1.396 . S
C89 C84 1.499 . S
C89 H90 0.959 . S
C89 H91 0.960 . S
C89 H92 0.961 . S
H90 C89 0.959 . S
H91 C89 0.960 . S
H92 C89 0.961 . S
O93 Co68 1.967 . S
O93 C101 1.258 . S
O94 Co69 1.941 . S
O94 C101 1.266 . S
H95 C97 0.959 . S
H96 C97 0.961 . S
C97 C87 1.510 . S
C97 H95 0.959 . S
C97 H96 0.961 . S
C97 H98 0.960 . S
H98 C97 0.960 . S
H99 N79 0.862 . S
O100 Co68 1.920 . S
O100 C73 1.289 . S
C101 O93 1.258 . S
C101 O94 1.266 . S
Co102 O105 1.970 . S
Co102 N119 1.989 . S
Co102 O127 1.967 . S
Co102 O134 1.920 . S
Co103 O106 1.966 . S
Co103 N112 2.022 . S
Co103 N120 1.993 . S
Co103 O128 1.941 . S
C104 O105 1.258 . S
C104 O106 1.263 . S
O105 Co102 1.970 . S
O105 C104 1.258 . S
O106 Co103 1.966 . S
O106 C104 1.263 . S
C107 O108 1.235 . S
C107 O134 1.289 . S
O108 C107 1.235 . S
C109 C111 1.400 . S
C109 N112 1.351 . S
C109 C114 1.501 . S
C110 C111 1.387 . S
C110 N113 1.341 . S
C111 C109 1.400 . S
C111 C110 1.387 . S
N112 Co103 2.022 . S
N112 C109 1.351 . S
N112 N113 1.365 . S
N113 C110 1.341 . S
N113 N112 1.365 . S
N113 H133 0.862 . S
C114 C109 1.501 . S
C114 H115 0.961 . S
C114 H116 0.961 . S
C114 H117 0.960 . S
H115 C114 0.961 . S
H116 C114 0.961 . S
H117 C114 0.960 . S
C118 N119 1.342 . S
C118 C122 1.401 . S
C118 C123 1.499 . S
N119 Co102 1.989 . S
N119 C118 1.342 . S
N119 N120 1.388 . S
N120 Co103 1.993 . S
N120 N119 1.388 . S
N120 C121 1.346 . S
C121 N120 1.346 . S
C121 C122 1.396 . S
C121 C131 1.510 . S
C122 C118 1.401 . S
C122 C121 1.396 . S
C123 C118 1.499 . S
C123 H124 0.959 . S
C123 H125 0.960 . S
C123 H126 0.961 . S
H124 C123 0.959 . S
H125 C123 0.960 . S
H126 C123 0.961 . S
O127 Co102 1.967 . S
O127 C135 1.258 . S
O128 Co103 1.941 . S
O128 C135 1.266 . S
H129 C131 0.959 . S
H130 C131 0.961 . S
C131 C121 1.510 . S
C131 H129 0.959 . S
C131 H130 0.961 . S
C131 H132 0.960 . S
H132 C131 0.960 . S
H133 N113 0.862 . S
O134 Co102 1.920 . S
O134 C107 1.289 . S
C135 O127 1.258 . S
C135 O128 1.266 . S
Co136 O139 1.970 . S
Co136 N153 1.989 . S
Co136 O161 1.967 . S
Co136 O168 1.920 . S
Co137 O140 1.966 . S
Co137 N146 2.022 . S
Co137 N154 1.993 . S
Co137 O162 1.941 . S
C138 O139 1.258 1_455 S
C138 O140 1.263 1_455 S
O139 Co136 1.970 . S
O139 C138 1.258 1_655 S
O140 Co137 1.966 . S
O140 C138 1.263 1_655 S
C141 O142 1.235 1_655 S
C141 O168 1.289 . S
O142 C141 1.235 1_455 S
C143 C145 1.400 . S
C143 N146 1.351 . S
C143 C148 1.501 . S
C144 C145 1.387 . S
C144 N147 1.341 . S
C145 C143 1.400 . S
C145 C144 1.387 . S
N146 Co137 2.022 . S
N146 C143 1.351 . S
N146 N147 1.365 . S
N147 C144 1.341 . S
N147 N146 1.365 . S
N147 H167 0.862 . S
C148 C143 1.501 . S
C148 H149 0.961 . S
C148 H150 0.961 1_655 S
C148 H151 0.960 1_655 S
H149 C148 0.961 . S
H150 C148 0.961 1_455 S
H151 C148 0.960 1_455 S
C152 N153 1.342 . S
C152 C156 1.401 . S
C152 C157 1.499 . S
N153 Co136 1.989 . S
N153 C152 1.342 . S
N153 N154 1.388 . S
N154 Co137 1.993 . S
N154 N153 1.388 . S
N154 C155 1.346 . S
C155 N154 1.346 . S
C155 C156 1.396 . S
C155 C165 1.510 . S
C156 C152 1.401 . S
C156 C155 1.396 . S
C157 C152 1.499 . S
C157 H158 0.959 . S
C157 H159 0.960 . S
C157 H160 0.961 . S
H158 C157 0.959 . S
H159 C157 0.960 . S
H160 C157 0.961 . S
O161 Co136 1.967 . S
O161 C169 1.258 . S
O162 Co137 1.941 . S
O162 C169 1.266 . S
H163 C165 0.959 . S
H164 C165 0.961 . S
C165 C155 1.510 . S
C165 H163 0.959 . S
C165 H164 0.961 . S
C165 H166 0.960 . S
H166 C165 0.960 . S
H167 N147 0.862 . S
O168 Co136 1.920 . S
O168 C141 1.289 . S
C169 O161 1.258 . S
C169 O162 1.266 . S
Co170 O173 1.970 . S
Co170 N187 1.989 . S
Co170 O195 1.967 . S
Co170 O202 1.920 . S
Co171 O174 1.966 . S
Co171 N180 2.022 . S
Co171 N188 1.993 . S
Co171 O196 1.941 . S
C172 O173 1.258 1_545 S
C172 O174 1.263 1_545 S
O173 Co170 1.970 . S
O173 C172 1.258 1_565 S
O174 Co171 1.966 . S
O174 C172 1.263 1_565 S
C175 O176 1.235 1_565 S
C175 O202 1.289 . S
O176 C175 1.235 1_545 S
C177 C179 1.400 . S
C177 N180 1.351 . S
C177 C182 1.501 . S
C178 C179 1.387 . S
C178 N181 1.341 . S
C179 C177 1.400 . S
C179 C178 1.387 . S
N180 Co171 2.022 . S
N180 C177 1.351 . S
N180 N181 1.365 . S
N181 C178 1.341 . S
N181 N180 1.365 . S
N181 H201 0.862 . S
C182 C177 1.501 . S
C182 H183 0.961 . S
C182 H184 0.961 1_565 S
C182 H185 0.960 1_565 S
H183 C182 0.961 . S
H184 C182 0.961 1_545 S
H185 C182 0.960 1_545 S
C186 N187 1.342 . S
C186 C190 1.401 . S
C186 C191 1.499 . S
N187 Co170 1.989 . S
N187 C186 1.342 . S
N187 N188 1.388 . S
N188 Co171 1.993 . S
N188 N187 1.388 . S
N188 C189 1.346 . S
C189 N188 1.346 . S
C189 C190 1.396 . S
C189 C199 1.510 . S
C190 C186 1.401 . S
C190 C189 1.396 . S
C191 C186 1.499 . S
C191 H192 0.959 . S
C191 H193 0.960 . S
C191 H194 0.961 . S
H192 C191 0.959 . S
H193 C191 0.960 . S
H194 C191 0.961 . S
O195 Co170 1.967 . S
O195 C203 1.258 . S
O196 Co171 1.941 . S
O196 C203 1.266 . S
H197 C199 0.959 . S
H198 C199 0.961 . S
C199 C189 1.510 . S
C199 H197 0.959 . S
C199 H198 0.961 . S
C199 H200 0.960 . S
H200 C199 0.960 . S
H201 N181 0.862 . S
O202 Co170 1.920 . S
O202 C175 1.289 . S
C203 O195 1.258 . S
C203 O196 1.266 . S
Co204 O207 1.970 . S
Co204 N221 1.989 . S
Co204 O229 1.967 . S
Co204 O236 1.920 . S
Co205 O208 1.966 . S
Co205 N214 2.022 . S
Co205 N222 1.993 . S
Co205 O230 1.941 . S
C206 O207 1.258 . S
C206 O208 1.263 . S
O207 Co204 1.970 . S
O207 C206 1.258 . S
O208 Co205 1.966 . S
O208 C206 1.263 . S
C209 O210 1.235 . S
C209 O236 1.289 . S
O210 C209 1.235 . S
C211 C213 1.400 . S
C211 N214 1.351 . S
C211 C216 1.501 . S
C212 C213 1.387 . S
C212 N215 1.341 . S
C213 C211 1.400 . S
C213 C212 1.387 . S
N214 Co205 2.022 . S
N214 C211 1.351 . S
N214 N215 1.365 . S
N215 C212 1.341 . S
N215 N214 1.365 . S
N215 H235 0.862 . S
C216 C211 1.501 . S
C216 H217 0.961 . S
C216 H218 0.961 . S
C216 H219 0.960 . S
H217 C216 0.961 . S
H218 C216 0.961 . S
H219 C216 0.960 . S
C220 N221 1.342 . S
C220 C224 1.401 . S
C220 C225 1.499 . S
N221 Co204 1.989 . S
N221 C220 1.342 . S
N221 N222 1.388 . S
N222 Co205 1.993 . S
N222 N221 1.388 . S
N222 C223 1.346 . S
C223 N222 1.346 . S
C223 C224 1.396 . S
C223 C233 1.510 . S
C224 C220 1.401 . S
C224 C223 1.396 . S
C225 C220 1.499 . S
C225 H226 0.959 . S
C225 H227 0.960 . S
C225 H228 0.961 . S
H226 C225 0.959 . S
H227 C225 0.960 . S
H228 C225 0.961 . S
O229 Co204 1.967 . S
O229 C237 1.258 . S
O230 Co205 1.941 . S
O230 C237 1.266 . S
H231 C233 0.959 . S
H232 C233 0.961 . S
C233 C223 1.510 . S
C233 H231 0.959 . S
C233 H232 0.961 . S
C233 H234 0.960 . S
H234 C233 0.960 . S
H235 N215 0.862 . S
O236 Co204 1.920 . S
O236 C209 1.289 . S
C237 O229 1.258 . S
C237 O230 1.266 . S
Co238 O241 1.970 . S
Co238 N255 1.989 . S
Co238 O263 1.967 . S
Co238 O270 1.920 . S
Co239 O242 1.966 . S
Co239 N248 2.022 . S
Co239 N256 1.993 . S
Co239 O264 1.941 . S
C240 O241 1.258 1_655 S
C240 O242 1.263 1_655 S
O241 Co238 1.970 . S
O241 C240 1.258 1_455 S
O242 Co239 1.966 . S
O242 C240 1.263 1_455 S
C243 O244 1.235 1_455 S
C243 O270 1.289 . S
O244 C243 1.235 1_655 S
C245 C247 1.400 . S
C245 N248 1.351 . S
C245 C250 1.501 . S
C246 C247 1.387 . S
C246 N249 1.341 . S
C247 C245 1.400 . S
C247 C246 1.387 . S
N248 Co239 2.022 . S
N248 C245 1.351 . S
N248 N249 1.365 . S
N249 C246 1.341 . S
N249 N248 1.365 . S
N249 H269 0.862 . S
C250 C245 1.501 . S
C250 H251 0.961 . S
C250 H252 0.961 1_455 S
C250 H253 0.960 1_455 S
H251 C250 0.961 . S
H252 C250 0.961 1_655 S
H253 C250 0.960 1_655 S
C254 N255 1.342 . S
C254 C258 1.401 . S
C254 C259 1.499 . S
N255 Co238 1.989 . S
N255 C254 1.342 . S
N255 N256 1.388 . S
N256 Co239 1.993 . S
N256 N255 1.388 . S
N256 C257 1.346 . S
C257 N256 1.346 . S
C257 C258 1.396 . S
C257 C267 1.510 . S
C258 C254 1.401 . S
C258 C257 1.396 . S
C259 C254 1.499 . S
C259 H260 0.959 . S
C259 H261 0.960 . S
C259 H262 0.961 . S
H260 C259 0.959 . S
H261 C259 0.960 . S
H262 C259 0.961 . S
O263 Co238 1.967 . S
O263 C271 1.258 . S
O264 Co239 1.941 . S
O264 C271 1.266 . S
H265 C267 0.959 . S
H266 C267 0.961 . S
C267 C257 1.510 . S
C267 H265 0.959 . S
C267 H266 0.961 . S
C267 H268 0.960 . S
H268 C267 0.960 . S
H269 N249 0.862 . S
O270 Co238 1.920 . S
O270 C243 1.289 . S
C271 O263 1.258 . S
C271 O264 1.266 . S
Co272 O275 1.970 . S
Co272 N289 1.989 . S
Co272 O297 1.967 . S
Co272 O304 1.920 . S
Co273 O276 1.966 . S
Co273 N282 2.022 . S
Co273 N290 1.993 . S
Co273 O298 1.941 . S
C274 O275 1.258 1_565 S
C274 O276 1.263 1_565 S
O275 Co272 1.970 . S
O275 C274 1.258 1_545 S
O276 Co273 1.966 . S
O276 C274 1.263 1_545 S
C277 O278 1.235 1_545 S
C277 O304 1.289 . S
O278 C277 1.235 1_565 S
C279 C281 1.400 . S
C279 N282 1.351 . S
C279 C284 1.501 . S
C280 C281 1.387 . S
C280 N283 1.341 . S
C281 C279 1.400 . S
C281 C280 1.387 . S
N282 Co273 2.022 . S
N282 C279 1.351 . S
N282 N283 1.365 . S
N283 C280 1.341 . S
N283 N282 1.365 . S
N283 H303 0.862 . S
C284 C279 1.501 . S
C284 H285 0.961 . S
C284 H286 0.961 1_545 S
C284 H287 0.960 1_545 S
H285 C284 0.961 . S
H286 C284 0.961 1_565 S
H287 C284 0.960 1_565 S
C288 N289 1.342 . S
C288 C292 1.401 . S
C288 C293 1.499 . S
N289 Co272 1.989 . S
N289 C288 1.342 . S
N289 N290 1.388 . S
N290 Co273 1.993 . S
N290 N289 1.388 . S
N290 C291 1.346 . S
C291 N290 1.346 . S
C291 C292 1.396 . S
C291 C301 1.510 . S
C292 C288 1.401 . S
C292 C291 1.396 . S
C293 C288 1.499 . S
C293 H294 0.959 . S
C293 H295 0.960 . S
C293 H296 0.961 . S
H294 C293 0.959 . S
H295 C293 0.960 . S
H296 C293 0.961 . S
O297 Co272 1.967 . S
O297 C305 1.258 . S
O298 Co273 1.941 . S
O298 C305 1.266 . S
H299 C301 0.959 . S
H300 C301 0.961 . S
C301 C291 1.510 . S
C301 H299 0.959 . S
C301 H300 0.961 . S
C301 H302 0.960 . S
H302 C301 0.960 . S
H303 N283 0.862 . S
O304 Co272 1.920 . S
O304 C277 1.289 . S
C305 O297 1.258 . S
C305 O298 1.266 . S
Co306 O309 1.970 . S
Co306 N323 1.989 . S
Co306 O331 1.967 . S
Co306 O338 1.920 . S
Co307 O310 1.966 . S
Co307 N316 2.022 . S
Co307 N324 1.993 . S
Co307 O332 1.941 . S
C308 O309 1.258 . S
C308 O310 1.263 . S
O309 Co306 1.970 . S
O309 C308 1.258 . S
O310 Co307 1.966 . S
O310 C308 1.263 . S
C311 O312 1.235 . S
C311 O338 1.289 . S
O312 C311 1.235 . S
C313 C315 1.400 . S
C313 N316 1.351 . S
C313 C318 1.501 . S
C314 C315 1.387 . S
C314 N317 1.341 . S
C315 C313 1.400 . S
C315 C314 1.387 . S
N316 Co307 2.022 . S
N316 C313 1.351 . S
N316 N317 1.365 . S
N317 C314 1.341 . S
N317 N316 1.365 . S
N317 H337 0.862 . S
C318 C313 1.501 . S
C318 H319 0.961 . S
C318 H320 0.961 . S
C318 H321 0.960 . S
H319 C318 0.961 . S
H320 C318 0.961 . S
H321 C318 0.960 . S
C322 N323 1.342 . S
C322 C326 1.401 . S
C322 C327 1.499 . S
N323 Co306 1.989 . S
N323 C322 1.342 . S
N323 N324 1.388 . S
N324 Co307 1.993 . S
N324 N323 1.388 . S
N324 C325 1.346 . S
C325 N324 1.346 . S
C325 C326 1.396 . S
C325 C335 1.510 . S
C326 C322 1.401 . S
C326 C325 1.396 . S
C327 C322 1.499 . S
C327 H328 0.959 . S
C327 H329 0.960 . S
C327 H330 0.961 . S
H328 C327 0.959 . S
H329 C327 0.960 . S
H330 C327 0.961 . S
O331 Co306 1.967 . S
O331 C339 1.258 . S
O332 Co307 1.941 . S
O332 C339 1.266 . S
H333 C335 0.959 . S
H334 C335 0.961 . S
C335 C325 1.510 . S
C335 H333 0.959 . S
C335 H334 0.961 . S
C335 H336 0.960 . S
H336 C335 0.960 . S
H337 N317 0.862 . S
O338 Co306 1.920 . S
O338 C311 1.289 . S
C339 O331 1.258 . S
C339 O332 1.266 . S
Co340 O343 1.970 . S
Co340 N357 1.989 . S
Co340 O365 1.967 . S
Co340 O372 1.920 . S
Co341 O344 1.966 . S
Co341 N350 2.022 . S
Co341 N358 1.993 . S
Co341 O366 1.941 . S
C342 O343 1.258 1_455 S
C342 O344 1.263 1_455 S
O343 Co340 1.970 . S
O343 C342 1.258 1_655 S
O344 Co341 1.966 . S
O344 C342 1.263 1_655 S
C345 O346 1.235 1_655 S
C345 O372 1.289 . S
O346 C345 1.235 1_455 S
C347 C349 1.400 . S
C347 N350 1.351 . S
C347 C352 1.501 . S
C348 C349 1.387 . S
C348 N351 1.341 . S
C349 C347 1.400 . S
C349 C348 1.387 . S
N350 Co341 2.022 . S
N350 C347 1.351 . S
N350 N351 1.365 . S
N351 C348 1.341 . S
N351 N350 1.365 . S
N351 H371 0.862 . S
C352 C347 1.501 . S
C352 H353 0.961 . S
C352 H354 0.961 1_655 S
C352 H355 0.960 1_655 S
H353 C352 0.961 . S
H354 C352 0.961 1_455 S
H355 C352 0.960 1_455 S
C356 N357 1.342 . S
C356 C360 1.401 . S
C356 C361 1.499 . S
N357 Co340 1.989 . S
N357 C356 1.342 . S
N357 N358 1.388 . S
N358 Co341 1.993 . S
N358 N357 1.388 . S
N358 C359 1.346 . S
C359 N358 1.346 . S
C359 C360 1.396 . S
C359 C369 1.510 . S
C360 C356 1.401 . S
C360 C359 1.396 . S
C361 C356 1.499 . S
C361 H362 0.959 . S
C361 H363 0.960 . S
C361 H364 0.961 . S
H362 C361 0.959 . S
H363 C361 0.960 . S
H364 C361 0.961 . S
O365 Co340 1.967 . S
O365 C373 1.258 . S
O366 Co341 1.941 . S
O366 C373 1.266 . S
H367 C369 0.959 . S
H368 C369 0.961 . S
C369 C359 1.510 . S
C369 H367 0.959 . S
C369 H368 0.961 . S
C369 H370 0.960 . S
H370 C369 0.960 . S
H371 N351 0.862 . S
O372 Co340 1.920 . S
O372 C345 1.289 . S
C373 O365 1.258 . S
C373 O366 1.266 . S
Co374 O377 1.970 . S
Co374 N391 1.989 . S
Co374 O399 1.967 . S
Co374 O406 1.920 . S
Co375 O378 1.966 . S
Co375 N384 2.022 . S
Co375 N392 1.993 . S
Co375 O400 1.941 . S
C376 O377 1.258 1_545 S
C376 O378 1.263 1_545 S
O377 Co374 1.970 . S
O377 C376 1.258 1_565 S
O378 Co375 1.966 . S
O378 C376 1.263 1_565 S
C379 O380 1.235 1_565 S
C379 O406 1.289 . S
O380 C379 1.235 1_545 S
C381 C383 1.400 . S
C381 N384 1.351 . S
C381 C386 1.501 . S
C382 C383 1.387 . S
C382 N385 1.341 . S
C383 C381 1.400 . S
C383 C382 1.387 . S
N384 Co375 2.022 . S
N384 C381 1.351 . S
N384 N385 1.365 . S
N385 C382 1.341 . S
N385 N384 1.365 . S
N385 H405 0.862 . S
C386 C381 1.501 . S
C386 H387 0.961 . S
C386 H388 0.961 1_565 S
C386 H389 0.960 1_565 S
H387 C386 0.961 . S
H388 C386 0.961 1_545 S
H389 C386 0.960 1_545 S
C390 N391 1.342 . S
C390 C394 1.401 . S
C390 C395 1.499 . S
N391 Co374 1.989 . S
N391 C390 1.342 . S
N391 N392 1.388 . S
N392 Co375 1.993 . S
N392 N391 1.388 . S
N392 C393 1.346 . S
C393 N392 1.346 . S
C393 C394 1.396 . S
C393 C403 1.510 . S
C394 C390 1.401 . S
C394 C393 1.396 . S
C395 C390 1.499 . S
C395 H396 0.959 . S
C395 H397 0.960 . S
C395 H398 0.961 . S
H396 C395 0.959 . S
H397 C395 0.960 . S
H398 C395 0.961 . S
O399 Co374 1.967 . S
O399 C407 1.258 . S
O400 Co375 1.941 . S
O400 C407 1.266 . S
H401 C403 0.959 . S
H402 C403 0.961 . S
C403 C393 1.510 . S
C403 H401 0.959 . S
C403 H402 0.961 . S
C403 H404 0.960 . S
H404 C403 0.960 . S
H405 N385 0.862 . S
O406 Co374 1.920 . S
O406 C379 1.289 . S
C407 O399 1.258 . S
C407 O400 1.266 . S
C408 C409 1.363 . S
C408 C414 1.379 . S
C408 N416 1.356 . S
C409 C408 1.363 . S
C409 C415 1.363 . S
C410 C411 1.363 . S
C410 C415 1.379 . S
C410 N417 1.356 . S
C411 C410 1.363 . S
C411 C414 1.363 . S
N412 C414 1.356 . S
N412 H424 0.984 . S
N412 H425 0.985 . S
N413 C415 1.356 . S
N413 H418 0.984 . S
N413 H419 0.985 . S
C414 C408 1.379 . S
C414 C411 1.363 . S
C414 N412 1.356 . S
C415 C409 1.363 . S
C415 C410 1.379 . S
C415 N413 1.356 . S
N416 C408 1.356 . S
N416 H422 0.984 . S
N416 H423 0.984 . S
N417 C410 1.356 . S
N417 H420 0.984 . S
N417 H421 0.985 . S
H418 N413 0.984 . S
H419 N413 0.985 . S
H420 N417 0.984 . S
H421 N417 0.985 . S
H422 N416 0.984 . S
H423 N416 0.984 . S
H424 N412 0.984 . S
H425 N412 0.985 . S
C426 C427 1.363 1_655 S
C426 C432 1.379 . S
C426 N434 1.356 1_655 S
C427 C426 1.363 1_455 S
C427 C433 1.363 . S
C428 C429 1.363 1_455 S
C428 C433 1.379 . S
C428 N435 1.356 1_455 S
C429 C428 1.363 1_655 S
C429 C432 1.363 . S
N430 C432 1.356 . S
N430 H442 0.984 . S
N430 H443 0.985 . S
N431 C433 1.356 . S
N431 H436 0.984 . S
N431 H437 0.985 . S
C432 C426 1.379 . S
C432 C429 1.363 . S
C432 N430 1.356 . S
C433 C427 1.363 . S
C433 C428 1.379 . S
C433 N431 1.356 . S
N434 C426 1.356 1_455 S
N434 H440 0.984 1_455 S
N434 H441 0.984 . S
N435 C428 1.356 1_655 S
N435 H438 0.984 . S
N435 H439 0.985 1_655 S
H436 N431 0.984 . S
H437 N431 0.985 . S
H438 N435 0.984 . S
H439 N435 0.985 1_455 S
H440 N434 0.984 1_655 S
H441 N434 0.984 . S
H442 N430 0.984 . S
H443 N430 0.985 . S
C444 C445 1.363 1_565 S
C444 C450 1.379 . S
C444 N452 1.356 1_565 S
C445 C444 1.363 1_545 S
C445 C451 1.363 . S
C446 C447 1.363 1_545 S
C446 C451 1.379 . S
C446 N453 1.356 1_545 S
C447 C446 1.363 1_565 S
C447 C450 1.363 . S
N448 C450 1.356 . S
N448 H460 0.984 . S
N448 H461 0.985 . S
N449 C451 1.356 . S
N449 H454 0.984 . S
N449 H455 0.985 . S
C450 C444 1.379 . S
C450 C447 1.363 . S
C450 N448 1.356 . S
C451 C445 1.363 . S
C451 C446 1.379 . S
C451 N449 1.356 . S
N452 C444 1.356 1_545 S
N452 H458 0.984 1_545 S
N452 H459 0.984 . S
N453 C446 1.356 1_565 S
N453 H456 0.984 . S
N453 H457 0.985 1_565 S
H454 N449 0.984 . S
H455 N449 0.985 . S
H456 N453 0.984 . S
H457 N453 0.985 1_545 S
H458 N452 0.984 1_565 S
H459 N452 0.984 . S
H460 N448 0.984 . S
H461 N448 0.985 . S
C462 C463 1.363 . S
C462 C468 1.379 . S
C462 N470 1.356 . S
C463 C462 1.363 . S
C463 C469 1.363 . S
C464 C465 1.363 . S
C464 C469 1.379 . S
C464 N471 1.356 . S
C465 C464 1.363 . S
C465 C468 1.363 . S
N466 C468 1.356 . S
N466 H478 0.984 . S
N466 H479 0.985 . S
N467 C469 1.356 . S
N467 H472 0.984 . S
N467 H473 0.985 . S
C468 C462 1.379 . S
C468 C465 1.363 . S
C468 N466 1.356 . S
C469 C463 1.363 . S
C469 C464 1.379 . S
C469 N467 1.356 . S
N470 C462 1.356 . S
N470 H476 0.984 . S
N470 H477 0.984 . S
N471 C464 1.356 . S
N471 H474 0.984 . S
N471 H475 0.985 . S
H472 N467 0.984 . S
H473 N467 0.985 . S
H474 N471 0.984 . S
H475 N471 0.985 . S
H476 N470 0.984 . S
H477 N470 0.984 . S
H478 N466 0.984 . S
H479 N466 0.985 . S
C480 C481 1.363 1_455 S
C480 C486 1.379 . S
C480 N488 1.356 1_455 S
C481 C480 1.363 1_655 S
C481 C487 1.363 . S
C482 C483 1.363 1_655 S
C482 C487 1.379 . S
C482 N489 1.356 1_655 S
C483 C482 1.363 1_455 S
C483 C486 1.363 . S
N484 C486 1.356 . S
N484 H496 0.984 . S
N484 H497 0.985 . S
N485 C487 1.356 . S
N485 H490 0.984 . S
N485 H491 0.985 . S
C486 C480 1.379 . S
C486 C483 1.363 . S
C486 N484 1.356 . S
C487 C481 1.363 . S
C487 C482 1.379 . S
C487 N485 1.356 . S
N488 C480 1.356 1_655 S
N488 H494 0.984 1_655 S
N488 H495 0.984 . S
N489 C482 1.356 1_455 S
N489 H492 0.984 . S
N489 H493 0.985 1_455 S
H490 N485 0.984 . S
H491 N485 0.985 . S
H492 N489 0.984 . S
H493 N489 0.985 1_655 S
H494 N488 0.984 1_455 S
H495 N488 0.984 . S
H496 N484 0.984 . S
H497 N484 0.985 . S
C498 C499 1.363 1_545 S
C498 C504 1.379 . S
C498 N506 1.356 1_545 S
C499 C498 1.363 1_565 S
C499 C505 1.363 . S
C500 C501 1.363 1_565 S
C500 C505 1.379 . S
C500 N507 1.356 1_565 S
C501 C500 1.363 1_545 S
C501 C504 1.363 . S
N502 C504 1.356 . S
N502 H514 0.984 . S
N502 H515 0.985 . S
N503 C505 1.356 . S
N503 H508 0.984 . S
N503 H509 0.985 . S
C504 C498 1.379 . S
C504 C501 1.363 . S
C504 N502 1.356 . S
C505 C499 1.363 . S
C505 C500 1.379 . S
C505 N503 1.356 . S
N506 C498 1.356 1_565 S
N506 H512 0.984 1_565 S
N506 H513 0.984 . S
N507 C500 1.356 1_545 S
N507 H510 0.984 . S
N507 H511 0.985 1_545 S
H508 N503 0.984 . S
H509 N503 0.985 . S
H510 N507 0.984 . S
H511 N507 0.985 1_565 S
H512 N506 0.984 1_545 S
H513 N506 0.984 . S
H514 N502 0.984 . S
H515 N502 0.985 . S
C516 C517 1.363 . S
C516 C522 1.379 1_565 S
C516 N524 1.356 . S
C517 C516 1.363 . S
C517 C523 1.363 1_556 S
C518 C519 1.363 . S
C518 C523 1.379 1_545 S
C518 N525 1.356 . S
C519 C518 1.363 . S
C519 C522 1.363 1_554 S
N520 C522 1.356 . S
N520 H532 0.984 . S
N520 H533 0.985 . S
N521 C523 1.356 . S
N521 H526 0.984 . S
N521 H527 0.985 . S
C522 C516 1.379 1_545 S
C522 C519 1.363 1_556 S
C522 N520 1.356 . S
C523 C517 1.363 1_554 S
C523 C518 1.379 1_565 S
C523 N521 1.356 . S
N524 C516 1.356 . S
N524 H530 0.984 . S
N524 H531 0.984 . S
N525 C518 1.356 . S
N525 H528 0.984 . S
N525 H529 0.985 . S
H526 N521 0.984 . S
H527 N521 0.985 . S
H528 N525 0.984 . S
H529 N525 0.985 . S
H530 N524 0.984 . S
H531 N524 0.984 . S
H532 N520 0.984 . S
H533 N520 0.985 . S
C534 C535 1.363 . S
C534 C540 1.379 . S
C534 N542 1.356 . S
C535 C534 1.363 . S
C535 C541 1.363 . S
C536 C537 1.363 . S
C536 C541 1.379 . S
C536 N543 1.356 . S
C537 C536 1.363 . S
C537 C540 1.363 . S
N538 C540 1.356 . S
N538 H550 0.984 . S
N538 H551 0.985 . S
N539 C541 1.356 . S
N539 H544 0.984 . S
N539 H545 0.985 . S
C540 C534 1.379 . S
C540 C537 1.363 . S
C540 N538 1.356 . S
C541 C535 1.363 . S
C541 C536 1.379 . S
C541 N539 1.356 . S
N542 C534 1.356 . S
N542 H548 0.984 . S
N542 H549 0.984 . S
N543 C536 1.356 . S
N543 H546 0.984 . S
N543 H547 0.985 . S
H544 N539 0.984 . S
H545 N539 0.985 . S
H546 N543 0.984 . S
H547 N543 0.985 . S
H548 N542 0.984 . S
H549 N542 0.984 . S
H550 N538 0.984 . S
H551 N538 0.985 . S
C552 C553 1.363 . S
C552 C558 1.379 1_455 S
C552 N560 1.356 . S
C553 C552 1.363 . S
C553 C559 1.363 . S
C554 C555 1.363 . S
C554 C559 1.379 1_655 S
C554 N561 1.356 . S
C555 C554 1.363 . S
C555 C558 1.363 . S
N556 C558 1.356 . S
N556 H568 0.984 . S
N556 H569 0.985 . S
N557 C559 1.356 . S
N557 H562 0.984 . S
N557 H563 0.985 . S
C558 C552 1.379 1_655 S
C558 C555 1.363 . S
C558 N556 1.356 . S
C559 C553 1.363 . S
C559 C554 1.379 1_455 S
C559 N557 1.356 . S
N560 C552 1.356 . S
N560 H566 0.984 . S
N560 H567 0.984 . S
N561 C554 1.356 . S
N561 H564 0.984 . S
N561 H565 0.985 . S
H562 N557 0.984 . S
H563 N557 0.985 . S
H564 N561 0.984 . S
H565 N561 0.985 . S
H566 N560 0.984 . S
H567 N560 0.984 . S
H568 N556 0.984 . S
H569 N556 0.985 . S
C570 C571 1.363 . S
C570 C576 1.379 1_565 S
C570 N578 1.356 . S
C571 C570 1.363 . S
C571 C577 1.363 1_554 S
C572 C573 1.363 . S
C572 C577 1.379 1_545 S
C572 N579 1.356 . S
C573 C572 1.363 . S
C573 C576 1.363 1_556 S
N574 C576 1.356 . S
N574 H586 0.984 . S
N574 H587 0.985 . S
N575 C577 1.356 . S
N575 H580 0.984 . S
N575 H581 0.985 . S
C576 C570 1.379 1_545 S
C576 C573 1.363 1_554 S
C576 N574 1.356 . S
C577 C571 1.363 1_556 S
C577 C572 1.379 1_565 S
C577 N575 1.356 . S
N578 C570 1.356 . S
N578 H584 0.984 . S
N578 H585 0.984 . S
N579 C572 1.356 . S
N579 H582 0.984 . S
N579 H583 0.985 . S
H580 N575 0.984 . S
H581 N575 0.985 . S
H582 N579 0.984 . S
H583 N579 0.985 . S
H584 N578 0.984 . S
H585 N578 0.984 . S
H586 N574 0.984 . S
H587 N574 0.985 . S
C588 C589 1.363 . S
C588 C594 1.379 . S
C588 N596 1.356 . S
C589 C588 1.363 . S
C589 C595 1.363 . S
C590 C591 1.363 . S
C590 C595 1.379 . S
C590 N597 1.356 . S
C591 C590 1.363 . S
C591 C594 1.363 . S
N592 C594 1.356 . S
N592 H604 0.984 . S
N592 H605 0.985 . S
N593 C595 1.356 . S
N593 H598 0.984 . S
N593 H599 0.985 . S
C594 C588 1.379 . S
C594 C591 1.363 . S
C594 N592 1.356 . S
C595 C589 1.363 . S
C595 C590 1.379 . S
C595 N593 1.356 . S
N596 C588 1.356 . S
N596 H602 0.984 . S
N596 H603 0.984 . S
N597 C590 1.356 . S
N597 H600 0.984 . S
N597 H601 0.985 . S
H598 N593 0.984 . S
H599 N593 0.985 . S
H600 N597 0.984 . S
H601 N597 0.985 . S
H602 N596 0.984 . S
H603 N596 0.984 . S
H604 N592 0.984 . S
H605 N592 0.985 . S
C606 C607 1.363 . S
C606 C612 1.379 1_455 S
C606 N614 1.356 . S
C607 C606 1.363 . S
C607 C613 1.363 . S
C608 C609 1.363 . S
C608 C613 1.379 1_655 S
C608 N615 1.356 . S
C609 C608 1.363 . S
C609 C612 1.363 . S
N610 C612 1.356 . S
N610 H622 0.984 . S
N610 H623 0.985 . S
N611 C613 1.356 . S
N611 H616 0.984 . S
N611 H617 0.985 . S
C612 C606 1.379 1_655 S
C612 C609 1.363 . S
C612 N610 1.356 . S
C613 C607 1.363 . S
C613 C608 1.379 1_455 S
C613 N611 1.356 . S
N614 C606 1.356 . S
N614 H620 0.984 . S
N614 H621 0.984 . S
N615 C608 1.356 . S
N615 H618 0.984 . S
N615 H619 0.985 . S
H616 N611 0.984 . S
H617 N611 0.985 . S
H618 N615 0.984 . S
H619 N615 0.985 . S
H620 N614 0.984 . S
H621 N614 0.984 . S
H622 N610 0.984 . S
H623 N610 0.985 . S
C624 C625 1.363 1_565 S
C624 C630 1.379 1_455 S
C624 N632 1.356 . S
C625 C624 1.363 1_545 S
C625 C631 1.363 . S
C626 C627 1.363 1_545 S
C626 C631 1.379 1_655 S
C626 N633 1.356 . S
C627 C626 1.363 1_565 S
C627 C630 1.363 . S
N628 C630 1.356 . S
N628 H640 0.984 . S
N628 H641 0.985 . S
N629 C631 1.356 . S
N629 H634 0.984 . S
N629 H635 0.985 . S
C630 C624 1.379 1_655 S
C630 C627 1.363 . S
C630 N628 1.356 . S
C631 C625 1.363 . S
C631 C626 1.379 1_455 S
C631 N629 1.356 . S
N632 C624 1.356 . S
N632 H638 0.984 . S
N632 H639 0.984 . S
N633 C626 1.356 . S
N633 H636 0.984 . S
N633 H637 0.985 . S
H634 N629 0.984 . S
H635 N629 0.985 . S
H636 N633 0.984 . S
H637 N633 0.985 . S
H638 N632 0.984 . S
H639 N632 0.984 . S
H640 N628 0.984 . S
H641 N628 0.985 . S
C642 C643 1.363 . S
C642 C648 1.379 1_445 S
C642 N650 1.356 . S
C643 C642 1.363 . S
C643 C649 1.363 . S
C644 C645 1.363 . S
C644 C649 1.379 1_665 S
C644 N651 1.356 . S
C645 C644 1.363 . S
C645 C648 1.363 . S
N646 C648 1.356 . S
N646 H658 0.984 . S
N646 H659 0.985 . S
N647 C649 1.356 . S
N647 H652 0.984 . S
N647 H653 0.985 . S
C648 C642 1.379 1_665 S
C648 C645 1.363 . S
C648 N646 1.356 . S
C649 C643 1.363 . S
C649 C644 1.379 1_445 S
C649 N647 1.356 . S
N650 C642 1.356 . S
N650 H656 0.984 1_455 S
N650 H657 0.984 . S
N651 C644 1.356 . S
N651 H654 0.984 . S
N651 H655 0.985 1_655 S
H652 N647 0.984 . S
H653 N647 0.985 . S
H654 N651 0.984 . S
H655 N651 0.985 1_455 S
H656 N650 0.984 1_655 S
H657 N650 0.984 . S
H658 N646 0.984 . S
H659 N646 0.985 . S
C660 C661 1.363 . S
C660 C666 1.379 1_545 S
C660 N668 1.356 . S
C661 C660 1.363 . S
C661 C667 1.363 1_655 S
C662 C663 1.363 . S
C662 C667 1.379 1_565 S
C662 N669 1.356 . S
C663 C662 1.363 . S
C663 C666 1.363 1_455 S
N664 C666 1.356 . S
N664 H676 0.984 . S
N664 H677 0.985 . S
N665 C667 1.356 . S
N665 H670 0.984 . S
N665 H671 0.985 . S
C666 C660 1.379 1_565 S
C666 C663 1.363 1_655 S
C666 N664 1.356 . S
C667 C661 1.363 1_455 S
C667 C662 1.379 1_545 S
C667 N665 1.356 . S
N668 C660 1.356 . S
N668 H674 0.984 1_545 S
N668 H675 0.984 . S
N669 C662 1.356 . S
N669 H672 0.984 . S
N669 H673 0.985 1_565 S
H670 N665 0.984 . S
H671 N665 0.985 . S
H672 N669 0.984 . S
H673 N669 0.985 1_545 S
H674 N668 0.984 1_565 S
H675 N668 0.984 . S
H676 N664 0.984 . S
H677 N664 0.985 . S
C678 C679 1.363 . S
C678 C684 1.379 1_565 S
C678 N686 1.356 . S
C679 C678 1.363 . S
C679 C685 1.363 1_655 S
C680 C681 1.363 . S
C680 C685 1.379 1_545 S
C680 N687 1.356 . S
C681 C680 1.363 . S
C681 C684 1.363 1_455 S
N682 C684 1.356 . S
N682 H694 0.984 . S
N682 H695 0.985 . S
N683 C685 1.356 . S
N683 H688 0.984 . S
N683 H689 0.985 . S
C684 C678 1.379 1_545 S
C684 C681 1.363 1_655 S
C684 N682 1.356 . S
C685 C679 1.363 1_455 S
C685 C680 1.379 1_565 S
C685 N683 1.356 . S
N686 C678 1.356 . S
N686 H692 0.984 . S
N686 H693 0.984 . S
N687 C680 1.356 . S
N687 H690 0.984 . S
N687 H691 0.985 . S
H688 N683 0.984 . S
H689 N683 0.985 . S
H690 N687 0.984 . S
H691 N687 0.985 . S
H692 N686 0.984 . S
H693 N686 0.984 . S
H694 N682 0.984 . S
H695 N682 0.985 . S
C696 C697 1.363 . S
C696 C702 1.379 1_455 S
C696 N704 1.356 . S
C697 C696 1.363 . S
C697 C703 1.363 1_565 S
C698 C699 1.363 . S
C698 C703 1.379 1_655 S
C698 N705 1.356 . S
C699 C698 1.363 . S
C699 C702 1.363 1_545 S
N700 C702 1.356 . S
N700 H712 0.984 . S
N700 H713 0.985 . S
N701 C703 1.356 . S
N701 H706 0.984 . S
N701 H707 0.985 . S
C702 C696 1.379 1_655 S
C702 C699 1.363 1_565 S
C702 N700 1.356 . S
C703 C697 1.363 1_545 S
C703 C698 1.379 1_455 S
C703 N701 1.356 . S
N704 C696 1.356 . S
N704 H710 0.984 1_455 S
N704 H711 0.984 . S
N705 C698 1.356 . S
N705 H708 0.984 . S
N705 H709 0.985 1_655 S
H706 N701 0.984 . S
H707 N701 0.985 . S
H708 N705 0.984 . S
H709 N705 0.985 1_455 S
H710 N704 0.984 1_655 S
H711 N704 0.984 . S
H712 N700 0.984 . S
H713 N700 0.985 . S
C714 C715 1.363 . S
C714 C720 1.379 1_445 S
C714 N722 1.356 . S
C715 C714 1.363 . S
C715 C721 1.363 . S
C716 C717 1.363 . S
C716 C721 1.379 1_665 S
C716 N723 1.356 . S
C717 C716 1.363 . S
C717 C720 1.363 . S
N718 C720 1.356 . S
N718 H730 0.984 1_565 S
N718 H731 0.985 . S
N719 C721 1.356 . S
N719 H724 0.984 . S
N719 H725 0.985 1_545 S
C720 C714 1.379 1_665 S
C720 C717 1.363 . S
C720 N718 1.356 . S
C721 C715 1.363 . S
C721 C716 1.379 1_445 S
C721 N719 1.356 . S
N722 C714 1.356 . S
N722 H728 0.984 . S
N722 H729 0.984 . S
N723 C716 1.356 . S
N723 H726 0.984 . S
N723 H727 0.985 . S
H724 N719 0.984 . S
H725 N719 0.985 1_565 S
H726 N723 0.984 . S
H727 N723 0.985 . S
H728 N722 0.984 . S
H729 N722 0.984 . S
H730 N718 0.984 1_545 S
H731 N718 0.985 . S
C732 C733 1.363 . S
C732 C738 1.379 . S
C732 N740 1.356 . S
C733 C732 1.363 . S
C733 C739 1.363 1_556 S
C734 C735 1.363 . S
C734 C739 1.379 . S
C734 N741 1.356 . S
C735 C734 1.363 . S
C735 C738 1.363 1_554 S
N736 C738 1.356 . S
N736 H748 0.984 . S
N736 H749 0.985 1_556 S
N737 C739 1.356 1_655 S
N737 H742 0.984 1_554 S
N737 H743 0.985 . S
C738 C732 1.379 . S
C738 C735 1.363 1_556 S
C738 N736 1.356 . S
C739 C733 1.363 1_554 S
C739 C734 1.379 . S
C739 N737 1.356 1_455 S
N740 C732 1.356 . S
N740 H746 0.984 . S
N740 H747 0.984 . S
N741 C734 1.356 . S
N741 H744 0.984 . S
N741 H745 0.985 . S
H742 N737 0.984 1_556 S
H743 N737 0.985 . S
H744 N741 0.984 . S
H745 N741 0.985 . S
H746 N740 0.984 . S
H747 N740 0.984 . S
H748 N736 0.984 . S
H749 N736 0.985 1_554 S
C750 C751 1.363 . S
C750 C756 1.379 . S
C750 N758 1.356 . S
C751 C750 1.363 . S
C751 C757 1.363 . S
C752 C753 1.363 . S
C752 C757 1.379 . S
C752 N759 1.356 1_545 S
C753 C752 1.363 . S
C753 C756 1.363 . S
N754 C756 1.356 . S
N754 H766 0.984 . S
N754 H767 0.985 . S
N755 C757 1.356 . S
N755 H760 0.984 . S
N755 H761 0.985 . S
C756 C750 1.379 . S
C756 C753 1.363 . S
C756 N754 1.356 . S
C757 C751 1.363 . S
C757 C752 1.379 . S
C757 N755 1.356 . S
N758 C750 1.356 . S
N758 H764 0.984 . S
N758 H765 0.984 . S
N759 C752 1.356 1_565 S
N759 H762 0.984 . S
N759 H763 0.985 . S
H760 N755 0.984 . S
H761 N755 0.985 . S
H762 N759 0.984 . S
H763 N759 0.985 . S
H764 N758 0.984 . S
H765 N758 0.984 . S
H766 N754 0.984 . S
H767 N754 0.985 . S
C768 C769 1.363 . S
C768 C774 1.379 . S
C768 N776 1.356 . S
C769 C768 1.363 . S
C769 C775 1.363 . S
C770 C771 1.363 . S
C770 C775 1.379 . S
C770 N777 1.356 . S
C771 C770 1.363 . S
C771 C774 1.363 . S
N772 C774 1.356 . S
N772 H784 0.984 1_565 S
N772 H785 0.985 1_565 S
N773 C775 1.356 . S
N773 H778 0.984 . S
N773 H779 0.985 . S
C774 C768 1.379 . S
C774 C771 1.363 . S
C774 N772 1.356 . S
C775 C769 1.363 . S
C775 C770 1.379 . S
C775 N773 1.356 . S
N776 C768 1.356 . S
N776 H782 0.984 . S
N776 H783 0.984 . S
N777 C770 1.356 . S
N777 H780 0.984 . S
N777 H781 0.985 . S
H778 N773 0.984 . S
H779 N773 0.985 . S
H780 N777 0.984 . S
H781 N777 0.985 . S
H782 N776 0.984 . S
H783 N776 0.984 . S
H784 N772 0.984 1_545 S
H785 N772 0.985 1_545 S
C786 C787 1.363 1_556 S
C786 C792 1.379 . S
C786 N794 1.356 . S
C787 C786 1.363 1_554 S
C787 C793 1.363 . S
C788 C789 1.363 1_554 S
C788 C793 1.379 . S
C788 N795 1.356 . S
C789 C788 1.363 1_556 S
C789 C792 1.363 . S
N790 C792 1.356 . S
N790 H802 0.984 . S
N790 H803 0.985 . S
N791 C793 1.356 . S
N791 H796 0.984 . S
N791 H797 0.985 . S
C792 C786 1.379 . S
C792 C789 1.363 . S
C792 N790 1.356 . S
C793 C787 1.363 . S
C793 C788 1.379 . S
C793 N791 1.356 . S
N794 C786 1.356 . S
N794 H800 0.984 . S
N794 H801 0.984 1_556 S
N795 C788 1.356 . S
N795 H798 0.984 1_554 S
N795 H799 0.985 . S
H796 N791 0.984 . S
H797 N791 0.985 . S
H798 N795 0.984 1_556 S
H799 N795 0.985 . S
H800 N794 0.984 . S
H801 N794 0.984 1_554 S
H802 N790 0.984 . S
H803 N790 0.985 . S
C804 C805 1.363 . S
C804 C810 1.379 . S
C804 N812 1.356 . S
C805 C804 1.363 . S
C805 C811 1.363 . S
C806 C807 1.363 . S
C806 C811 1.379 . S
C806 N813 1.356 . S
C807 C806 1.363 . S
C807 C810 1.363 . S
N808 C810 1.356 . S
N808 H820 0.984 . S
N808 H821 0.985 . S
N809 C811 1.356 . S
N809 H814 0.984 . S
N809 H815 0.985 . S
C810 C804 1.379 . S
C810 C807 1.363 . S
C810 N808 1.356 . S
C811 C805 1.363 . S
C811 C806 1.379 . S
C811 N809 1.356 . S
N812 C804 1.356 . S
N812 H818 0.984 . S
N812 H819 0.984 1_565 S
N813 C806 1.356 . S
N813 H816 0.984 1_455 S
N813 H817 0.985 . S
H814 N809 0.984 . S
H815 N809 0.985 . S
H816 N813 0.984 1_655 S
H817 N813 0.985 . S
H818 N812 0.984 . S
H819 N812 0.984 1_545 S
H820 N808 0.984 . S
H821 N808 0.985 . S
C822 C823 1.363 . S
C822 C828 1.379 . S
C822 N830 1.356 . S
C823 C822 1.363 . S
C823 C829 1.363 . S
C824 C825 1.363 . S
C824 C829 1.379 . S
C824 N831 1.356 . S
C825 C824 1.363 . S
C825 C828 1.363 . S
N826 C828 1.356 . S
N826 H838 0.984 . S
N826 H839 0.985 . S
N827 C829 1.356 . S
N827 H832 0.984 . S
N827 H833 0.985 . S
C828 C822 1.379 . S
C828 C825 1.363 . S
C828 N826 1.356 . S
C829 C823 1.363 . S
C829 C824 1.379 . S
C829 N827 1.356 . S
N830 C822 1.356 . S
N830 H836 0.984 1_545 S
N830 H837 0.984 1_545 S
N831 C824 1.356 . S
N831 H834 0.984 . S
N831 H835 0.985 . S
H832 N827 0.984 . S
H833 N827 0.985 . S
H834 N831 0.984 . S
H835 N831 0.985 . S
H836 N830 0.984 1_565 S
H837 N830 0.984 1_565 S
H838 N826 0.984 . S
H839 N826 0.985 . S
C840 C841 1.363 . S
C840 C846 1.379 . S
C840 N848 1.356 . S
C841 C840 1.363 . S
C841 C847 1.363 . S
C842 C843 1.363 . S
C842 C847 1.379 . S
C842 N849 1.356 . S
C843 C842 1.363 . S
C843 C846 1.363 . S
N844 C846 1.356 . S
N844 H856 0.984 . S
N844 H857 0.985 . S
N845 C847 1.356 . S
N845 H850 0.984 . S
N845 H851 0.985 . S
C846 C840 1.379 . S
C846 C843 1.363 . S
C846 N844 1.356 . S
C847 C841 1.363 . S
C847 C842 1.379 . S
C847 N845 1.356 . S
N848 C840 1.356 . S
N848 H854 0.984 . S
N848 H855 0.984 . S
N849 C842 1.356 . S
N849 H852 0.984 . S
N849 H853 0.985 . S
H850 N845 0.984 . S
H851 N845 0.985 . S
H852 N849 0.984 . S
H853 N849 0.985 . S
H854 N848 0.984 . S
H855 N848 0.984 . S
H856 N844 0.984 . S
H857 N844 0.985 . S
C858 C859 1.363 . S
C858 C864 1.379 . S
C858 N866 1.356 . S
C859 C858 1.363 . S
C859 C865 1.363 . S
C860 C861 1.363 . S
C860 C865 1.379 . S
C860 N867 1.356 . S
C861 C860 1.363 . S
C861 C864 1.363 . S
N862 C864 1.356 . S
N862 H874 0.984 . S
N862 H875 0.985 . S
N863 C865 1.356 . S
N863 H868 0.984 . S
N863 H869 0.985 . S
C864 C858 1.379 . S
C864 C861 1.363 . S
C864 N862 1.356 . S
C865 C859 1.363 . S
C865 C860 1.379 . S
C865 N863 1.356 . S
N866 C858 1.356 . S
N866 H872 0.984 . S
N866 H873 0.984 . S
N867 C860 1.356 . S
N867 H870 0.984 . S
N867 H871 0.985 . S
H868 N863 0.984 . S
H869 N863 0.985 . S
H870 N867 0.984 . S
H871 N867 0.985 . S
H872 N866 0.984 . S
H873 N866 0.984 . S
H874 N862 0.984 . S
H875 N862 0.985 . S
C876 C877 1.363 . S
C876 C882 1.379 . S
C876 N884 1.356 . S
C877 C876 1.363 . S
C877 C883 1.363 . S
C878 C879 1.363 . S
C878 C883 1.379 . S
C878 N885 1.356 . S
C879 C878 1.363 . S
C879 C882 1.363 . S
N880 C882 1.356 . S
N880 H892 0.984 . S
N880 H893 0.985 . S
N881 C883 1.356 . S
N881 H886 0.984 . S
N881 H887 0.985 . S
C882 C876 1.379 . S
C882 C879 1.363 . S
C882 N880 1.356 . S
C883 C877 1.363 . S
C883 C878 1.379 . S
C883 N881 1.356 . S
N884 C876 1.356 . S
N884 H890 0.984 . S
N884 H891 0.984 . S
N885 C878 1.356 . S
N885 H888 0.984 . S
N885 H889 0.985 . S
H886 N881 0.984 . S
H887 N881 0.985 . S
H888 N885 0.984 . S
H889 N885 0.985 . S
H890 N884 0.984 . S
H891 N884 0.984 . S
H892 N880 0.984 . S
H893 N880 0.985 . S
C894 C895 1.363 . S
C894 C900 1.379 . S
C894 N902 1.356 . S
C895 C894 1.363 . S
C895 C901 1.363 . S
C896 C897 1.363 . S
C896 C901 1.379 . S
C896 N903 1.356 . S
C897 C896 1.363 . S
C897 C900 1.363 . S
N898 C900 1.356 . S
N898 H910 0.984 . S
N898 H911 0.985 . S
N899 C901 1.356 . S
N899 H904 0.984 . S
N899 H905 0.985 . S
C900 C894 1.379 . S
C900 C897 1.363 . S
C900 N898 1.356 . S
C901 C895 1.363 . S
C901 C896 1.379 . S
C901 N899 1.356 . S
N902 C894 1.356 . S
N902 H908 0.984 . S
N902 H909 0.984 . S
N903 C896 1.356 . S
N903 H906 0.984 . S
N903 H907 0.985 . S
H904 N899 0.984 . S
H905 N899 0.985 . S
H906 N903 0.984 . S
H907 N903 0.985 . S
H908 N902 0.984 . S
H909 N902 0.984 . S
H910 N898 0.984 . S
H911 N898 0.985 . S
C912 C913 1.363 . S
C912 C918 1.379 . S
C912 N920 1.356 . S
C913 C912 1.363 . S
C913 C919 1.363 . S
C914 C915 1.363 . S
C914 C919 1.379 . S
C914 N921 1.356 . S
C915 C914 1.363 . S
C915 C918 1.363 . S
N916 C918 1.356 . S
N916 H928 0.984 . S
N916 H929 0.985 . S
N917 C919 1.356 . S
N917 H922 0.984 . S
N917 H923 0.985 . S
C918 C912 1.379 . S
C918 C915 1.363 . S
C918 N916 1.356 . S
C919 C913 1.363 . S
C919 C914 1.379 . S
C919 N917 1.356 . S
N920 C912 1.356 . S
N920 H926 0.984 . S
N920 H927 0.984 . S
N921 C914 1.356 . S
N921 H924 0.984 . S
N921 H925 0.985 . S
H922 N917 0.984 . S
H923 N917 0.985 . S
H924 N921 0.984 . S
H925 N921 0.985 . S
H926 N920 0.984 . S
H927 N920 0.984 . S
H928 N916 0.984 . S
H929 N916 0.985 . S
C930 C931 1.363 . S
C930 C936 1.379 . S
C930 N938 1.356 . S
C931 C930 1.363 . S
C931 C937 1.363 . S
C932 C933 1.363 . S
C932 C937 1.379 . S
C932 N939 1.356 . S
C933 C932 1.363 . S
C933 C936 1.363 . S
N934 C936 1.356 . S
N934 H946 0.984 . S
N934 H947 0.985 . S
N935 C937 1.356 . S
N935 H940 0.984 . S
N935 H941 0.985 . S
C936 C930 1.379 . S
C936 C933 1.363 . S
C936 N934 1.356 . S
C937 C931 1.363 . S
C937 C932 1.379 . S
C937 N935 1.356 . S
N938 C930 1.356 . S
N938 H944 0.984 . S
N938 H945 0.984 . S
N939 C932 1.356 . S
N939 H942 0.984 . S
N939 H943 0.985 . S
H940 N935 0.984 . S
H941 N935 0.985 . S
H942 N939 0.984 . S
H943 N939 0.985 . S
H944 N938 0.984 . S
H945 N938 0.984 . S
H946 N934 0.984 . S
H947 N934 0.985 . S
C409 C111 1.856 . S
C411 C9 1.856 . S
C427 C43 1.855 . S
C429 C145 1.855 . S
C445 C77 1.856 . S
C447 C179 1.856 . S
C463 C213 1.856 . S
C465 C315 1.856 . S
C481 C349 1.856 . S
C483 C247 1.856 . S
C499 C383 1.856 . S
C501 C281 1.856 . S
C517 C271 1.423 . S
C519 C33 1.423 . S
C535 C67 1.423 . S
C537 C305 1.423 . S
C553 C339 1.423 . S
C555 C101 1.423 . S
C571 C135 1.423 . S
C573 C373 1.423 . S
C589 C407 1.423 . S
C591 C169 1.423 . S
C607 C203 1.423 . S
C609 C237 1.423 . S
C625 C5 0.641 . S
C627 C107 0.641 . S
C643 C39 0.641 . S
C645 C141 0.641 . S
C661 C73 0.641 . S
C663 C175 0.641 . S
C679 C209 0.641 . S
C681 C311 0.641 . S
C697 C243 0.641 . S
C699 C345 0.641 . S
C715 C277 0.641 . S
C717 C379 0.641 . S
C733 C342 1.768 . S
C735 C2 1.768 . S
C751 C36 1.767 . S
C753 C376 1.767 . S
C769 C206 1.767 . S
C771 C70 1.767 . S
C787 C104 1.768 . S
C789 C240 1.767 . S
C805 C274 1.767 . S
C807 C138 1.767 . S
C823 C172 1.767 . S
C825 C308 1.767 . S
C841 C20 1.726 . S
C843 C292 1.726 . S
C859 C54 1.726 . S
C861 C326 1.726 . S
C877 C360 1.726 . S
C879 C88 1.726 . S
C895 C394 1.726 . S
C897 C122 1.726 . S
C913 C156 1.726 . S
C915 C224 1.726 . S
C931 C190 1.726 . S
C933 C258 1.726 . S
