# Generated by pormake.
# Topology sml, (6)-cn, num edge types: 1
# Building blocks:
#     Node 0, Type 0, BuildingBlock: BETFEN_clean_sbu_0, # of connection points: 6
#     Node 1, Type 0, BuildingBlock: BETFEN_clean_sbu_0, # of connection points: 6
#     Node 2, Type 0, BuildingBlock: BETFEN_clean_sbu_0, # of connection points: 6
#     Node 3, Type 0, BuildingBlock: BETFEN_clean_sbu_0, # of connection points: 6
#     Node 4, Type 0, BuildingBlock: BETFEN_clean_sbu_0, # of connection points: 6
#     Node 5, Type 0, BuildingBlock: BETFEN_clean_sbu_0, # of connection points: 6
#     Edge 6, Type (0, 0), BuildingBlock: ZUJKAS_clean_linker_0, # of connection points: 2
#     Edge 7, Type (0, 0), BuildingBlock: ZUJKAS_clean_linker_0, # of connection points: 2
#     Edge 8, Type (0, 0), BuildingBlock: ZUJKAS_clean_linker_0, # of connection points: 2
#     Edge 9, Type (0, 0), BuildingBlock: ZUJKAS_clean_linker_0, # of connection points: 2
#     Edge 10, Type (0, 0), BuildingBlock: ZUJKAS_clean_linker_0, # of connection points: 2
#     Edge 11, Type (0, 0), BuildingBlock: ZUJKAS_clean_linker_0, # of connection points: 2
#     Edge 12, Type (0, 0), BuildingBlock: ZUJKAS_clean_linker_0, # of connection points: 2
#     Edge 13, Type (0, 0), BuildingBlock: ZUJKAS_clean_linker_0, # of connection points: 2
#     Edge 14, Type (0, 0), BuildingBlock: ZUJKAS_clean_linker_0, # of connection points: 2
#     Edge 15, Type (0, 0), BuildingBlock: ZUJKAS_clean_linker_0, # of connection points: 2
#     Edge 16, Type (0, 0), BuildingBlock: ZUJKAS_clean_linker_0, # of connection points: 2
#     Edge 17, Type (0, 0), BuildingBlock: ZUJKAS_clean_linker_0, # of connection points: 2
#     Edge 18, Type (0, 0), BuildingBlock: ZUJKAS_clean_linker_0, # of connection points: 2
#     Edge 19, Type (0, 0), BuildingBlock: ZUJKAS_clean_linker_0, # of connection points: 2
#     Edge 20, Type (0, 0), BuildingBlock: ZUJKAS_clean_linker_0, # of connection points: 2
#     Edge 21, Type (0, 0), BuildingBlock: ZUJKAS_clean_linker_0, # of connection points: 2
#     Edge 22, Type (0, 0), BuildingBlock: ZUJKAS_clean_linker_0, # of connection points: 2
#     Edge 23, Type (0, 0), BuildingBlock: ZUJKAS_clean_linker_0, # of connection points: 2
# Relax obj value: 0.156
# Max RMSD: 0.198
# Mean RMSD: 0.198
data_MOF--net-sml--node1-BETFEN_clean_sbu_0--edge1-ZUJKAS_clean_linker_0
_symmetry_space_group_name_H-M    P1
_symmetry_Int_Tables_number       1
_symmetry_cell_setting            triclinic
loop_
_symmetry_equiv_pos_as_xyz
'x, y, z'
_cell_length_a     43.346587
_cell_length_b     43.413555
_cell_length_c     29.803617
_cell_angle_alpha  90.001415
_cell_angle_beta   89.888522
_cell_angle_gamma 119.94855
loop_
_atom_site_label
_atom_site_type_symbol
_atom_site_fract_x
_atom_site_fract_y
_atom_site_fract_z
_atom_type_partial_charge
Pr0 Pr 0.19484 0.42355 0.07572 0.0
Pr1 Pr 0.14597 0.40722 0.9914 0.0
C2 C 0.21788 0.44412 0.15948 0.0
C3 C 0.20563 0.42684 0.20404 0.0
C4 C 0.22163 0.40921 0.22489 0.0
C5 C 0.21285 0.39706 0.26925 0.0
C6 C 0.18793 0.40231 0.29311 0.0
C7 C 0.16977 0.41702 0.27112 0.0
C8 C 0.17851 0.4292 0.2271 0.0
C9 C 0.18953 0.36284 0.03666 0.0
C10 C 0.10647 0.36782 0.08457 0.0
C11 C 0.11864 0.39841 0.90793 0.0
C12 C 0.1303 0.40653 0.86046 0.0
C13 C 0.12004 0.42709 0.83468 0.0
C14 C 0.12802 0.43253 0.78877 0.0
C15 C 0.14603 0.41712 0.76779 0.0
C16 C 0.15773 0.39798 0.79388 0.0
C17 C 0.15016 0.3929 0.83983 0.0
C18 C 0.15377 0.46251 0.04646 0.0
C19 C 0.23538 0.45962 0.98195 0.0
O20 O 0.19662 0.45276 0.13879 0.0
O21 O 0.23318 0.43188 0.13241 0.0
O22 O 0.17424 0.37908 0.02131 0.0
O23 O 0.20703 0.3775 0.07299 0.0
O24 O 0.10213 0.36616 0.04053 0.0
O25 O 0.13721 0.38912 0.10367 0.0
O26 O 0.12248 0.37392 0.92876 0.0
O27 O 0.12521 0.42543 0.93349 0.0
O28 O 0.17825 0.45683 0.03408 0.0
O29 O 0.12317 0.43886 0.03029 0.0
O30 O 0.2391 0.46168 0.02608 0.0
O31 O 0.20433 0.43876 0.96247 0.0
H32 H 0.24213 0.40636 0.20777 0.0
H33 H 0.22725 0.38587 0.28584 0.0
H34 H 0.15055 0.4214 0.28914 0.0
H35 H 0.16514 0.44205 0.21202 0.0
H36 H 0.10488 0.43806 0.84982 0.0
H37 H 0.11864 0.44729 0.76927 0.0
H38 H 0.17194 0.38612 0.77836 0.0
H39 H 0.15896 0.37745 0.85882 0.0
Pr40 Pr 0.81068 0.22507 0.49268 0.0
Pr41 Pr 0.85797 0.26397 0.57831 0.0
C42 C 0.77733 0.20151 0.41372 0.0
C43 C 0.79094 0.20523 0.36729 0.0
C44 C 0.77647 0.17581 0.33836 0.0
C45 C 0.78793 0.17954 0.29365 0.0
C46 C 0.81399 0.21288 0.2771 0.0
C47 C 0.83021 0.24168 0.30706 0.0
C48 C 0.81887 0.2379 0.35168 0.0
C49 C 0.82874 0.18321 0.54598 0.0
C50 C 0.8978 0.27 0.48222 0.0
C51 C 0.88725 0.27921 0.66077 0.0
C52 C 0.87461 0.2751 0.70781 0.0
C53 C 0.88859 0.30496 0.73613 0.0
C54 C 0.87864 0.30142 0.78143 0.0
C55 C 0.85466 0.26783 0.79933 0.0
C56 C 0.83898 0.23839 0.77022 0.0
C57 C 0.84879 0.24197 0.72494 0.0
C58 C 0.85023 0.31338 0.52543 0.0
C59 C 0.76906 0.22771 0.58501 0.0
O60 O 0.78137 0.23038 0.43313 0.0
O61 O 0.78385 0.18162 0.44051 0.0
O62 O 0.81913 0.20449 0.56065 0.0
O63 O 0.83323 0.1869 0.50283 0.0
O64 O 0.90092 0.26696 0.52611 0.0
O65 O 0.86716 0.26208 0.46366 0.0
O66 O 0.88122 0.25063 0.63851 0.0
O67 O 0.88302 0.30182 0.63646 0.0
O68 O 0.83786 0.28087 0.51826 0.0
O69 O 0.86901 0.32223 0.56181 0.0
O70 O 0.76522 0.21814 0.54218 0.0
O71 O 0.80037 0.24381 0.6052 0.0
H72 H 0.75561 0.15013 0.35003 0.0
H73 H 0.77509 0.15678 0.27153 0.0
H74 H 0.85103 0.26746 0.29562 0.0
H75 H 0.83143 0.26079 0.37366 0.0
H76 H 0.90799 0.33094 0.72346 0.0
H77 H 0.89107 0.32463 0.80287 0.0
H78 H 0.81976 0.21232 0.78281 0.0
H79 H 0.83673 0.21866 0.70366 0.0
Pr80 Pr 0.57931 0.77749 0.74615 0.0
Pr81 Pr 0.59537 0.73971 0.65557 0.0
C82 C 0.56242 0.78636 0.82954 0.0
C83 C 0.57783 0.78607 0.87371 0.0
C84 C 0.59633 0.81775 0.89824 0.0
C85 C 0.60869 0.81748 0.94139 0.0
C86 C 0.60269 0.78548 0.96087 0.0
C87 C 0.58675 0.75427 0.93502 0.0
C88 C 0.57435 0.75453 0.89183 0.0
C89 C 0.64002 0.82656 0.69893 0.0
C90 C 0.62782 0.73592 0.75487 0.0
C91 C 0.61587 0.73196 0.57315 0.0
C92 C 0.60318 0.72987 0.52633 0.0
C93 C 0.58665 0.69725 0.50327 0.0
C94 C 0.57728 0.69571 0.458 0.0
C95 C 0.58418 0.72676 0.4349 0.0
C96 C 0.59925 0.75905 0.4585 0.0
C97 C 0.60872 0.76063 0.50359 0.0
C98 C 0.53372 0.69232 0.70331 0.0
C99 C 0.54009 0.77443 0.65021 0.0
O100 O 0.54513 0.75603 0.80822 0.0
O101 O 0.58224 0.81324 0.80316 0.0
O102 O 0.62058 0.79388 0.69028 0.0
O103 O 0.62828 0.8345 0.73457 0.0
O104 O 0.63016 0.73184 0.7109 0.0
O105 O 0.61018 0.75048 0.77262 0.0
O106 O 0.62925 0.76277 0.59356 0.0
O107 O 0.5966 0.70489 0.59963 0.0
O108 O 0.55514 0.72459 0.71084 0.0
O109 O 0.54389 0.68281 0.66735 0.0
O110 O 0.54147 0.78109 0.69384 0.0
O111 O 0.55828 0.76128 0.62975 0.0
H112 H 0.60023 0.84259 0.88463 0.0
H113 H 0.62152 0.84202 0.96036 0.0
H114 H 0.58179 0.72921 0.94917 0.0
H115 H 0.56099 0.72976 0.8734 0.0
H116 H 0.58175 0.67302 0.5199 0.0
H117 H 0.56535 0.67037 0.44078 0.0
H118 H 0.6053 0.78352 0.44155 0.0
H119 H 0.62127 0.78622 0.52019 0.0
Pr120 Pr 0.77654 0.57685 0.15397 0.0
Pr121 Pr 0.73861 0.59231 0.2445 0.0
C122 C 0.78915 0.56294 0.07081 0.0
C123 C 0.78915 0.57911 0.02719 0.0
C124 C 0.82041 0.59594 1.00122 0.0
C125 C 0.81955 0.60744 0.9576 0.0
C126 C 0.78735 0.60197 0.93958 0.0
C127 C 0.75713 0.58877 0.96721 0.0
C128 C 0.758 0.57751 0.01074 0.0
C129 C 0.82635 0.63612 0.20219 0.0
C130 C 0.73898 0.62906 0.14664 0.0
C131 C 0.72693 0.60994 0.32674 0.0
C132 C 0.72707 0.5987 0.37374 0.0
C133 C 0.6949 0.57966 0.3978 0.0
C134 C 0.69514 0.57236 0.44359 0.0
C135 C 0.72758 0.58436 0.46603 0.0
C136 C 0.75947 0.6012 0.44136 0.0
C137 C 0.75925 0.60827 0.39574 0.0
C138 C 0.69049 0.53201 0.19514 0.0
C139 C 0.77521 0.53898 0.2498 0.0
O140 O 0.75836 0.54388 0.09081 0.0
O141 O 0.81485 0.58298 0.09836 0.0
O142 O 0.79359 0.61715 0.21128 0.0
O143 O 0.83397 0.62414 0.16664 0.0
O144 O 0.73308 0.62919 0.19049 0.0
O145 O 0.75206 0.61039 0.12787 0.0
O146 O 0.75763 0.6276 0.30587 0.0
O147 O 0.70126 0.58723 0.30091 0.0
O148 O 0.72297 0.55297 0.18799 0.0
O149 O 0.68124 0.54189 0.23142 0.0
O150 O 0.77738 0.53694 0.20557 0.0
O151 O 0.76526 0.55979 0.2704 0.0
H152 H 0.84504 0.59856 0.0138 0.0
H153 H 0.84322 0.61781 0.93685 0.0
H154 H 0.73213 0.58482 0.95397 0.0
H155 H 0.73379 0.56597 0.03053 0.0
H156 H 0.66964 0.57158 0.3816 0.0
H157 H 0.67021 0.55923 0.46192 0.0
H158 H 0.78479 0.61021 0.4579 0.0
H159 H 0.78447 0.62236 0.37821 0.0
Pr160 Pr 0.23131 0.80675 0.40888 0.0
Pr161 Pr 0.26241 0.85462 0.32433 0.0
C162 C 0.22778 0.78143 0.49195 0.0
C163 C 0.22463 0.79379 0.53738 0.0
C164 C 0.19127 0.78277 0.55743 0.0
C165 C 0.18907 0.79333 0.60128 0.0
C166 C 0.22018 0.81506 0.62601 0.0
C167 C 0.25336 0.82725 0.60498 0.0
C168 C 0.25554 0.81677 0.56142 0.0
C169 C 0.17488 0.81163 0.37172 0.0
C170 C 0.26753 0.89488 0.41827 0.0
C171 C 0.27962 0.88242 0.24072 0.0
C172 C 0.27681 0.87065 0.19333 0.0
C173 C 0.30792 0.88017 0.16845 0.0
C174 C 0.306 0.87094 0.12306 0.0
C175 C 0.27287 0.85208 0.10134 0.0
C176 C 0.24174 0.84185 0.12666 0.0
C177 C 0.24367 0.85096 0.17206 0.0
C178 C 0.31076 0.84687 0.37776 0.0
C179 C 0.22597 0.76545 0.3158 0.0
O180 O 0.25787 0.80116 0.47076 0.0
O181 O 0.19999 0.76887 0.46552 0.0
O182 O 0.206 0.82693 0.35483 0.0
O183 O 0.17382 0.7961 0.40913 0.0
O184 O 0.26576 0.89837 0.37438 0.0
O185 O 0.25982 0.8644 0.43673 0.0
O186 O 0.25053 0.87655 0.26162 0.0
O187 O 0.30137 0.87785 0.26642 0.0
O188 O 0.28049 0.82233 0.36598 0.0
O189 O 0.31723 0.87749 0.36214 0.0
O190 O 0.22251 0.76159 0.35974 0.0
O191 O 0.23829 0.79652 0.29548 0.0
H192 H 0.16687 0.76546 0.53963 0.0
H193 H 0.16303 0.7839 0.6161 0.0
H194 H 0.27798 0.84356 0.62286 0.0
H195 H 0.2817 0.82605 0.54706 0.0
H196 H 0.33385 0.89524 0.18399 0.0
H197 H 0.33052 0.87887 0.10492 0.0
H198 H 0.21576 0.8278 0.11108 0.0
H199 H 0.21916 0.8431 0.19018 0.0
Pr200 Pr 0.42475 0.19729 0.82118 0.0
Pr201 Pr 0.40751 0.14334 0.91174 0.0
C202 C 0.44559 0.22374 0.73871 0.0
C203 C 0.43042 0.21083 0.69352 0.0
C204 C 0.40867 0.22217 0.67273 0.0
C205 C 0.39613 0.21125 0.62904 0.0
C206 C 0.40524 0.18892 0.60523 0.0
C207 C 0.42549 0.17627 0.62704 0.0
C208 C 0.43787 0.18705 0.67053 0.0
C209 C 0.36539 0.18923 0.8681 0.0
C210 C 0.37023 0.10774 0.81326 0.0
C211 C 0.38913 0.115 0.99453 0.0
C212 C 0.40084 0.12699 0.04138 0.0
C213 C 0.42125 0.1153 0.0649 0.0
C214 C 0.43071 0.12499 0.10982 0.0
C215 C 0.41987 0.14651 0.13233 0.0
C216 C 0.40037 0.159 0.10832 0.0
C217 C 0.391 0.1494 0.06351 0.0
C218 C 0.46876 0.15725 0.86275 0.0
C219 C 0.46313 0.23265 0.91802 0.0
O220 O 0.45824 0.20581 0.75962 0.0
O221 O 0.42843 0.23423 0.76521 0.0
O222 O 0.38361 0.1747 0.87829 0.0
O223 O 0.37799 0.2083 0.83203 0.0
O224 O 0.37127 0.10142 0.85686 0.0
O225 O 0.38795 0.13964 0.79462 0.0
O226 O 0.37223 0.12864 0.97328 0.0
O227 O 0.41119 0.11073 0.96873 0.0
O228 O 0.44742 0.1682 0.85689 0.0
O229 O 0.45862 0.13669 0.8978 0.0
O230 O 0.46449 0.23717 0.87383 0.0
O231 O 0.44197 0.20188 0.93831 0.0
H232 H 0.40194 0.24005 0.68984 0.0
H233 H 0.38002 0.22095 0.61354 0.0
H234 H 0.43347 0.15941 0.60981 0.0
H235 H 0.45419 0.17742 0.68558 0.0
H236 H 0.42944 0.09816 0.04879 0.0
H237 H 0.44612 0.11524 0.12708 0.0
H238 H 0.39105 0.17514 0.12462 0.0
H239 H 0.37536 0.15901 0.04658 0.0
H240 H 0.35904 0.19923 0.9587 0.0
H241 H 0.31999 0.22026 0.98984 0.0
H242 H 0.27013 0.20556 0.86037 0.0
H243 H 0.30704 0.18306 0.83068 0.0
H244 H 0.3213 0.27893 0.9653 0.0
H245 H 0.18416 0.1709 0.9332 0.0
H246 H 0.22169 0.16383 0.9296 0.0
H247 H 0.20978 0.18201 0.88261 0.0
C248 C 0.33823 0.19856 0.93791 0.0
C249 C 0.33557 0.18893 0.89249 0.0
C250 C 0.31635 0.21118 0.95538 0.0
C251 C 0.29161 0.21425 0.92765 0.0
C252 C 0.28785 0.20251 0.88312 0.0
H253 H 0.19834 0.35442 0.9465 0.0
H254 H 0.22246 0.31781 0.91566 0.0
C255 C 0.30915 0.18961 0.86605 0.0
C256 C 0.2727 0.23335 0.94272 0.0
H257 H 0.19178 0.22949 0.94119 0.0
C258 C 0.29291 0.26783 0.96045 0.0
C259 C 0.23561 0.2193 0.93605 0.0
C260 C 0.21159 0.18184 0.91974 0.0
C261 C 0.27722 0.28854 0.97107 0.0
C262 C 0.24042 0.27463 0.96355 0.0
C263 C 0.22015 0.24033 0.94598 0.0
C264 C 0.22192 0.29359 0.97939 0.0
C265 C 0.2999 0.32518 0.9906 0.0
C266 C 0.21232 0.29083 0.02466 0.0
C267 C 0.19843 0.3112 0.04196 0.0
C268 C 0.19366 0.33473 0.01439 0.0
C269 C 0.20107 0.33593 0.96826 0.0
C270 C 0.21525 0.31544 0.95082 0.0
H271 H 0.3287 0.33371 0.99003 0.0
H272 H 0.29571 0.34484 0.97171 0.0
H273 H 0.29177 0.32535 0.0259 0.0
H274 H 0.21707 0.274 0.04711 0.0
H275 H 0.19326 0.31002 0.07769 0.0
H276 H 0.09899 0.31441 0.13791 0.0
H277 H 0.06297 0.29323 0.20636 0.0
H278 H 0.0155 0.35743 0.17521 0.0
H279 H 0.05103 0.3779 0.10607 0.0
H280 H 0.06874 0.33529 0.27586 0.0
H281 H 0.92895 0.26697 0.21643 0.0
H282 H 0.96589 0.27672 0.17966 0.0
H283 H 0.95537 0.31077 0.19353 0.0
C284 C 0.07953 0.32257 0.14462 0.0
C285 C 0.07683 0.34676 0.11589 0.0
C286 C 0.05934 0.31089 0.18411 0.0
C287 C 0.03617 0.3234 0.19606 0.0
C288 C 0.03238 0.34656 0.16638 0.0
H289 H 0.9198 0.32575 0.42681 0.0
H290 H 0.95705 0.33857 0.36005 0.0
C291 C 0.05247 0.35806 0.12658 0.0
C292 C 0.01865 0.31476 0.24121 0.0
H293 H 0.93821 0.28191 0.29414 0.0
C294 C 0.04013 0.32319 0.2798 0.0
C295 C 0.98132 0.29897 0.24661 0.0
C296 C 0.95648 0.28749 0.20689 0.0
C297 C 0.02544 0.3173 0.32334 0.0
C298 C 0.98829 0.30247 0.32857 0.0
C299 C 0.96675 0.29339 0.2901 0.0
C300 C 0.97112 0.29818 0.37332 0.0
C301 C 0.04978 0.32807 0.36348 0.0
C302 C 0.96769 0.27204 0.40416 0.0
C303 C 0.94653 0.2649 0.44296 0.0
C304 C 0.92856 0.28379 0.45121 0.0
C305 C 0.93382 0.3112 0.42163 0.0
C306 C 0.95485 0.31833 0.38323 0.0
H307 H 0.07836 0.34301 0.35375 0.0
H308 H 0.04414 0.34478 0.3865 0.0
H309 H 0.04479 0.30394 0.38228 0.0
H310 H 0.97964 0.25584 0.39695 0.0
H311 H 0.94211 0.24297 0.46452 0.0
H312 H 0.84665 0.15878 0.62148 0.0
H313 H 0.8191 0.09628 0.64689 0.0
H314 H 0.74479 0.06394 0.53698 0.0
H315 H 0.77245 0.12543 0.51132 0.0
H316 H 0.74652 0.04524 0.67004 0.0
H317 H 0.79057 0.00202 0.51985 0.0
H318 H 0.81008 0.04813 0.53584 0.0
H319 H 0.7681 0.0262 0.50693 0.0
C320 C 0.8245 0.13815 0.60292 0.0
C321 C 0.81215 0.14664 0.56394 0.0
C322 C 0.80875 0.10259 0.61738 0.0
C323 C 0.78046 0.07529 0.59307 0.0
C324 C 0.76723 0.08428 0.55545 0.0
H325 H 0.63125 0.84952 0.61742 0.0
H326 H 0.6683 0.91073 0.58968 0.0
C327 C 0.78303 0.11945 0.54089 0.0
C328 C 0.76453 0.03722 0.60611 0.0
H329 H 0.74603 0.95607 0.56522 0.0
C330 C 0.74682 0.02581 0.64744 0.0
C331 C 0.76471 0.01179 0.57643 0.0
C332 C 0.78465 0.02261 0.53245 0.0
C333 C 0.72842 0.98954 0.65923 0.0
C334 C 0.72812 0.9641 0.62914 0.0
C335 C 0.74617 0.97556 0.58811 0.0
C336 C 0.70919 0.92549 0.64007 0.0
C337 C 0.70844 0.97851 0.7032 0.0
C338 C 0.72103 0.9129 0.6756 0.0
C339 C 0.70022 0.87797 0.69092 0.0
C340 C 0.6674 0.85484 0.67073 0.0
C341 C 0.65703 0.86642 0.63259 0.0
C342 C 0.67787 0.90156 0.61728 0.0
H343 H 0.7062 0.0005 0.71898 0.0
H344 H 0.68127 0.95551 0.69815 0.0
H345 H 0.72263 0.97016 0.72685 0.0
H346 H 0.74533 0.93074 0.69326 0.0
H347 H 0.70832 0.86997 0.72107 0.0
H348 H 0.59239 0.6995 0.82732 0.0
H349 H 0.61525 0.68527 0.89323 0.0
H350 H 0.71637 0.72237 0.82692 0.0
H351 H 0.69362 0.73879 0.7603 0.0
H352 H 0.63889 0.64117 0.90861 0.0
H353 H 0.74742 0.7793 0.94237 0.0
H354 H 0.71289 0.76946 0.90175 0.0
H355 H 0.74874 0.76145 0.88849 0.0
C356 C 0.61949 0.70442 0.82635 0.0
C357 C 0.6413 0.72056 0.78869 0.0
C358 C 0.63253 0.6962 0.86425 0.0
C359 C 0.66775 0.70331 0.86568 0.0
C360 C 0.68931 0.71746 0.82708 0.0
H361 H 0.77964 0.66648 0.07696 0.0
H362 H 0.76135 0.68641 0.01122 0.0
C363 C 0.67618 0.7262 0.78872 0.0
C364 C 0.68082 0.6959 0.90834 0.0
H365 H 0.74001 0.73523 0.99421 0.0
C366 C 0.66107 0.66177 0.92727 0.0
C367 C 0.70948 0.72284 0.93304 0.0
C368 C 0.73077 0.76042 0.91572 0.0
C369 C 0.66915 0.65377 0.96982 0.0
C370 C 0.69774 0.6807 0.99454 0.0
C371 C 0.71779 0.71474 0.9755 0.0
C372 C 0.7097 0.67303 0.03781 0.0
C373 C 0.6475 0.61629 0.98745 0.0
C374 C 0.68737 0.66031 0.07586 0.0
C375 C 0.6979 0.64878 0.11403 0.0
C376 C 0.73091 0.64999 0.11442 0.0
C377 C 0.75405 0.66527 0.07765 0.0
C378 C 0.74359 0.6766 0.03989 0.0
H379 H 0.63036 0.59741 0.9611 0.0
H380 H 0.6652 0.60692 1.00113 0.0
H381 H 0.62998 0.61571 0.01501 0.0
H382 H 0.66132 0.65801 0.07536 0.0
H383 H 0.67941 0.63679 0.14167 0.0
H384 H 0.16239 0.82713 0.28455 0.0
H385 H 0.10317 0.80695 0.25046 0.0
H386 H 0.05291 0.75694 0.37549 0.0
H387 H 0.11028 0.77794 0.40954 0.0
H388 H 0.04462 0.73617 0.24107 0.0
H389 H 0.00469 0.81342 0.34963 0.0
H390 H 0.05054 0.82444 0.34352 0.0
H391 H 0.02141 0.79028 0.38223 0.0
C392 C 0.13862 0.81266 0.30483 0.0
C393 C 0.14117 0.80463 0.34998 0.0
C394 C 0.10485 0.80085 0.28529 0.0
C395 C 0.07351 0.78103 0.31079 0.0
C396 C 0.07648 0.7731 0.35548 0.0
H397 H 0.84917 0.6331 0.28664 0.0
H398 H 0.91074 0.67176 0.3127 0.0
C399 C 0.10962 0.78513 0.37489 0.0
C400 C 0.03708 0.767 0.29198 0.0
H401 H 0.95663 0.75936 0.31837 0.0
C402 C 0.02557 0.74185 0.25721 0.0
C403 C 0.01201 0.77419 0.31317 0.0
C404 C 0.02291 0.80234 0.34889 0.0
C405 C 0.98939 0.72249 0.24485 0.0
C406 C 0.96423 0.72842 0.26792 0.0
C407 C 0.9759 0.75445 0.30133 0.0
C408 C 0.92574 0.70837 0.25683 0.0
C409 C 0.97792 0.69495 0.20824 0.0
C410 C 0.91339 0.71747 0.21854 0.0
C411 C 0.87829 0.69598 0.20434 0.0
C412 C 0.85484 0.66506 0.22816 0.0
C413 C 0.86632 0.65746 0.26856 0.0
C414 C 0.90165 0.6791 0.28289 0.0
H415 H 1.00022 0.69149 0.19596 0.0
H416 H 0.95623 0.66896 0.22067 0.0
H417 H 0.9672 0.70298 0.17954 0.0
H418 H 0.93148 0.74004 0.1982 0.0
H419 H 0.87036 0.70183 0.17244 0.0
H420 H 0.31996 0.10307 0.7562 0.0
H421 H 0.2979 0.06595 0.68912 0.0
H422 H 0.35527 0.01252 0.72696 0.0
H423 H 0.37675 0.04937 0.79495 0.0
H424 H 0.3378 0.06672 0.6213 0.0
H425 H 0.26071 0.93026 0.68736 0.0
H426 H 0.27736 0.9685 0.72336 0.0
H427 H 0.30574 0.95102 0.7073 0.0
C428 C 0.32669 0.08241 0.75109 0.0
C429 C 0.34937 0.07853 0.78131 0.0
C430 C 0.31444 0.06148 0.71241 0.0
C431 C 0.32477 0.03628 0.7027 0.0
C432 C 0.34628 0.03125 0.73393 0.0
H433 H 0.32335 0.91632 0.47326 0.0
H434 H 0.33604 0.95263 0.54077 0.0
C435 C 0.35834 0.0521 0.77304 0.0
C436 C 0.31528 0.01752 0.65841 0.0
H437 H 0.27848 0.93548 0.60928 0.0
C438 C 0.32432 0.03798 0.61879 0.0
C439 C 0.29756 0.98 0.65476 0.0
C440 C 0.28449 0.95622 0.69552 0.0
C441 C 0.31695 0.02204 0.57602 0.0
C442 C 0.30076 0.98473 0.57252 0.0
C443 C 0.2912 0.96419 0.61196 0.0
C444 C 0.29544 0.9666 0.52837 0.0
C445 C 0.32775 0.04517 0.5347 0.0
C446 C 0.26913 0.96332 0.49793 0.0
C447 C 0.26213 0.94285 0.45866 0.0
C448 C 0.28126 0.92528 0.4496 0.0
C449 C 0.30867 0.93015 0.47902 0.0
C450 C 0.31567 0.95053 0.5179 0.0
H451 H 0.33787 0.07346 0.54303 0.0
H452 H 0.34866 0.04266 0.51623 0.0
H453 H 0.30469 0.03648 0.5119 0.0
H454 H 0.25291 0.97519 0.50557 0.0
H455 H 0.2402 0.93869 0.43729 0.0
H456 H 0.18037 0.47463 0.71116 0.0
H457 H 0.18735 0.47314 0.62909 0.0
H458 H 0.12522 0.35864 0.63187 0.0
H459 H 0.11864 0.36006 0.7132 0.0
H460 H 0.21874 0.43566 0.58444 0.0
H461 H 0.07968 0.3869 0.52948 0.0
H462 H 0.09658 0.40857 0.58281 0.0
H463 H 0.08384 0.36262 0.57566 0.0
C464 C 0.16805 0.44927 0.69397 0.0
C465 C 0.14924 0.41739 0.71829 0.0
C466 C 0.172 0.44842 0.64729 0.0
C467 C 0.15647 0.41574 0.62441 0.0
C468 C 0.13701 0.38411 0.64873 0.0
H469 H 0.15331 0.34399 0.34889 0.0
H470 H 0.14775 0.34543 0.43135 0.0
C471 C 0.13352 0.38492 0.69517 0.0
C472 C 0.16236 0.41397 0.57569 0.0
H473 H 0.11859 0.3834 0.47613 0.0
C474 C 0.19693 0.42454 0.56064 0.0
C475 C 0.13378 0.39915 0.54485 0.0
C476 C 0.0964 0.38892 0.55879 0.0
C477 C 0.20358 0.41993 0.51571 0.0
C478 C 0.17493 0.40479 0.48495 0.0
C479 C 0.1404 0.39442 0.49995 0.0
C480 C 0.1807 0.4027 0.43629 0.0
C481 C 0.24109 0.43065 0.50166 0.0
C482 C 0.20103 0.43421 0.41211 0.0
C483 C 0.20418 0.43335 0.36574 0.0
C484 C 0.18692 0.40101 0.34249 0.0
C485 C 0.16708 0.36916 0.36641 0.0
C486 C 0.16385 0.37004 0.41324 0.0
H487 H 0.25791 0.4328 0.5309 0.0
H488 H 0.24121 0.41126 0.47745 0.0
H489 H 0.25341 0.45703 0.48502 0.0
H490 H 0.21349 0.45971 0.42895 0.0
H491 H 0.21933 0.45818 0.34768 0.0
H492 H 0.82404 0.17091 0.21573 0.0
H493 H 0.83211 0.18009 0.13403 0.0
H494 H 0.82702 0.27637 0.14655 0.0
H495 H 0.81897 0.26749 0.22734 0.0
H496 H 0.78374 0.18832 0.07209 0.0
H497 H 0.91952 0.3069 0.07371 0.0
H498 H 0.90223 0.27527 0.11934 0.0
H499 H 0.88858 0.30786 0.11314 0.0
C500 C 0.82487 0.19412 0.20098 0.0
C501 C 0.82131 0.21874 0.22811 0.0
C502 C 0.82949 0.19932 0.15441 0.0
C503 C 0.83067 0.22921 0.13441 0.0
C504 C 0.82703 0.2536 0.16142 0.0
H505 H 0.84246 0.30839 0.86074 0.0
H506 H 0.83555 0.29964 0.94264 0.0
C507 C 0.82255 0.24853 0.20768 0.0
C508 C 0.83448 0.2348 0.08517 0.0
H509 H 0.88799 0.29346 1.0048 0.0
C510 C 0.80664 0.21111 0.05729 0.0
C511 C 0.86426 0.26474 0.06608 0.0
C512 C 0.89555 0.29007 0.09443 0.0
C513 C 0.80757 0.21696 0.0108 0.0
C514 C 0.83723 0.24704 0.99176 0.0
C515 C 0.8651 0.27068 0.01961 0.0
C516 C 0.84092 0.25269 0.94254 0.0
C517 C 0.7766 0.19134 0.98227 0.0
C518 C 0.84652 0.22946 0.9157 0.0
C519 C 0.85036 0.23429 0.86935 0.0
C520 C 0.84889 0.26262 0.84866 0.0
C521 C 0.84365 0.28627 0.87568 0.0
C522 C 0.83969 0.28131 0.92235 0.0
H523 H 0.75307 0.17315 1.00287 0.0
H524 H 0.76882 0.20607 0.95865 0.0
H525 H 0.78457 0.17498 0.96204 0.0
H526 H 0.8483 0.20767 0.93074 0.0
H527 H 0.85532 0.21619 0.84975 0.0
H528 H 0.60316 0.694 0.37136 0.0
H529 H 0.60521 0.70243 0.29005 0.0
H530 H 0.55644 0.76744 0.30522 0.0
H531 H 0.55475 0.75953 0.3868 0.0
H532 H 0.55577 0.69086 0.22301 0.0
H533 H 0.65122 0.83506 0.24501 0.0
H534 H 0.6395 0.80344 0.29018 0.0
H535 H 0.60972 0.81909 0.27418 0.0
C536 C 0.59217 0.70947 0.35735 0.0
C537 C 0.57929 0.72655 0.38553 0.0
C538 C 0.59351 0.71439 0.31088 0.0
C539 C 0.58192 0.73637 0.29177 0.0
C540 C 0.56651 0.75123 0.31946 0.0
H541 H 0.58141 0.81347 0.02697 0.0
H542 H 0.57938 0.80226 0.10734 0.0
C543 C 0.56543 0.74658 0.36598 0.0
C544 C 0.58803 0.74544 0.24338 0.0
H545 H 0.63178 0.81526 0.17108 0.0
C546 C 0.57251 0.71801 0.2116 0.0
C547 C 0.61007 0.78091 0.22865 0.0
C548 C 0.62888 0.81133 0.26122 0.0
C549 C 0.57775 0.72522 0.16539 0.0
C550 C 0.59962 0.7607 0.15076 0.0
C551 C 0.61525 0.78808 0.18251 0.0
C552 C 0.60467 0.77022 0.10256 0.0
C553 C 0.55896 0.69501 0.13254 0.0
C554 C 0.62086 0.75703 0.07341 0.0
C555 C 0.62201 0.76335 0.0272 0.0
C556 C 0.60744 0.78341 0.00976 0.0
C557 C 0.59326 0.79831 0.03946 0.0
C558 C 0.59185 0.79173 0.08539 0.0
H559 H 0.53789 0.67051 0.14899 0.0
H560 H 0.54671 0.70257 0.10512 0.0
H561 H 0.57856 0.68878 0.11724 0.0
H562 H 0.63175 0.74111 0.08626 0.0
H563 H 0.63342 0.75188 1.00504 0.0
H564 H 0.74394 0.54556 0.89 0.0
H565 H 0.73459 0.54239 0.80916 0.0
H566 H 0.81129 0.65421 0.79738 0.0
H567 H 0.82134 0.6573 0.87925 0.0
H568 H 0.70981 0.58167 0.76174 0.0
H569 H 0.84118 0.60571 0.69939 0.0
H570 H 0.82622 0.59176 0.75626 0.0
H571 H 0.84203 0.63697 0.73971 0.0
C572 C 0.75871 0.56951 0.87017 0.0
C573 C 0.78283 0.60178 0.89061 0.0
C574 C 0.75349 0.56762 0.82408 0.0
C575 C 0.77221 0.59798 0.79742 0.0
C576 C 0.79688 0.63038 0.8175 0.0
H577 H 0.7655 0.64064 0.51971 0.0
H578 H 0.77255 0.64144 0.60092 0.0
C579 C 0.80242 0.63222 0.86402 0.0
C580 C 0.76412 0.59537 0.74901 0.0
H581 H 0.79901 0.59966 0.64507 0.0
C582 C 0.72926 0.58557 0.73613 0.0
C583 C 0.78951 0.60005 0.716 0.0
C584 C 0.8268 0.60894 0.72828 0.0
C585 C 0.71923 0.58098 0.69083 0.0
C586 C 0.74475 0.58617 0.65778 0.0
C587 C 0.77953 0.59564 0.67069 0.0
C588 C 0.73709 0.58497 0.60934 0.0
C589 C 0.6818 0.57153 0.67853 0.0
C590 C 0.71417 0.55289 0.58735 0.0
C591 C 0.71 0.55238 0.5406 0.0
C592 C 0.72914 0.58389 0.51561 0.0
C593 C 0.75105 0.61591 0.53814 0.0
C594 C 0.75498 0.61644 0.58446 0.0
H595 H 0.66648 0.57242 0.70796 0.0
H596 H 0.6823 0.59004 0.65244 0.0
H597 H 0.66761 0.54427 0.66437 0.0
H598 H 0.70035 0.52827 0.6061 0.0
H599 H 0.69286 0.52739 0.5239 0.0
H600 H 0.17395 0.7699 0.68991 0.0
H601 H 0.17979 0.77694 0.77125 0.0
H602 H 0.27066 0.88189 0.7544 0.0
H603 H 0.26392 0.8758 0.67324 0.0
H604 H 0.23723 0.78388 0.8151 0.0
H605 H 0.22126 0.89954 0.8563 0.0
H606 H 0.20714 0.87652 0.80333 0.0
H607 H 0.2532 0.90905 0.81249 0.0
C608 C 0.19437 0.79503 0.70338 0.0
C609 C 0.2188 0.8221 0.6748 0.0
C610 C 0.19788 0.79887 0.75002 0.0
C611 C 0.22574 0.82988 0.76909 0.0
C612 C 0.24867 0.85786 0.74071 0.0
H613 H 0.31681 0.89578 0.03463 0.0
H614 H 0.3082 0.88778 0.9536 0.0
C615 C 0.24501 0.85415 0.69413 0.0
C616 C 0.23332 0.83141 0.81795 0.0
H617 H 0.24845 0.88166 0.91221 0.0
C618 C 0.23931 0.80507 0.83646 0.0
C619 C 0.23645 0.85926 0.84572 0.0
C620 C 0.22884 0.8875 0.82857 0.0
C621 C 0.24897 0.80615 0.88167 0.0
C622 C 0.25227 0.8341 0.90935 0.0
C623 C 0.24621 0.86038 0.89088 0.0
C624 C 0.26063 0.83615 0.958 0.0
C625 C 0.25644 0.77789 0.89905 0.0
C626 C 0.23736 0.80932 0.98749 0.0
C627 C 0.24239 0.81364 0.03393 0.0
C628 C 0.27059 0.84509 0.05199 0.0
C629 C 0.2949 0.87112 0.02217 0.0
C630 C 0.2899 0.86672 0.97572 0.0
H631 H 0.26209 0.76429 0.87132 0.0
H632 H 0.2794 0.78942 0.92245 0.0
H633 H 0.23276 0.75753 0.91755 0.0
H634 H 0.21434 0.78568 0.97473 0.0
H635 H 0.22353 0.79272 0.05574 0.0
H636 H 0.40705 0.23465 0.54045 0.0
H637 H 0.40659 0.22689 0.45924 0.0
H638 H 0.38761 0.12034 0.47827 0.0
H639 H 0.38729 0.12764 0.55943 0.0
H640 H 0.45761 0.21368 0.41871 0.0
H641 H 0.32059 0.10833 0.37472 0.0
H642 H 0.33069 0.13388 0.42587 0.0
H643 H 0.33965 0.09779 0.4216 0.0
C644 C 0.40147 0.2091 0.52745 0.0
C645 C 0.39738 0.18176 0.55655 0.0
C646 C 0.40153 0.20483 0.48096 0.0
C647 C 0.39711 0.17308 0.46274 0.0
C648 C 0.39066 0.14494 0.49154 0.0
H649 H 0.41561 0.10068 0.19864 0.0
H650 H 0.41569 0.10914 0.27972 0.0
C651 C 0.39068 0.14921 0.53797 0.0
C652 C 0.4034 0.17077 0.41432 0.0
H653 H 0.36534 0.12297 0.31939 0.0
C654 C 0.43737 0.19407 0.39681 0.0
C655 C 0.37708 0.14487 0.38612 0.0
C656 C 0.33984 0.11995 0.40282 0.0
C657 C 0.4459 0.19181 0.35191 0.0
C658 C 0.41956 0.16591 0.32365 0.0
C659 C 0.38559 0.14265 0.34121 0.0
C660 C 0.42591 0.16317 0.27525 0.0
C661 C 0.48325 0.2165 0.33542 0.0
C662 C 0.43282 0.19115 0.24587 0.0
C663 C 0.43307 0.18651 0.19946 0.0
C664 C 0.42605 0.15365 0.18144 0.0
C665 C 0.42127 0.12639 0.21117 0.0
C666 C 0.42107 0.13108 0.25759 0.0
H667 H 0.50234 0.22844 0.36363 0.0
H668 H 0.49248 0.20226 0.31305 0.0
H669 H 0.4836 0.23846 0.31595 0.0
H670 H 0.43626 0.21602 0.25869 0.0
H671 H 0.43748 0.20829 0.17762 0.0
H672 H 0.10412 0.47802 0.079 0.0
H673 H 0.11488 0.53075 0.12193 0.0
H674 H 0.22798 0.57053 0.11569 0.0
H675 H 0.21745 0.51807 0.07281 0.0
H676 H 0.15152 0.5533 0.20583 0.0
H677 H 0.21776 0.65589 0.07329 0.0
H678 H 0.19027 0.60916 0.06073 0.0
H679 H 0.23499 0.62618 0.08051 0.0
C680 C 0.13126 0.49811 0.08666 0.0
C681 C 0.15995 0.49402 0.07256 0.0
C682 C 0.13736 0.52818 0.11109 0.0
C683 C 0.17225 0.55479 0.12135 0.0
C684 C 0.20091 0.55067 0.10737 0.0
H685 H 0.27221 0.75107 0.27256 0.0
H686 H 0.25796 0.69928 0.22527 0.0
C687 C 0.19482 0.52056 0.08318 0.0
C688 C 0.17867 0.58599 0.14866 0.0
H689 H 0.21948 0.67663 0.14737 0.0
C690 C 0.16611 0.58027 0.193 0.0
C691 C 0.19786 0.6211 0.1318 0.0
C692 C 0.21081 0.62863 0.08387 0.0
C693 C 0.17306 0.60879 0.22145 0.0
C694 C 0.19244 0.64398 0.20474 0.0
C695 C 0.20468 0.64967 0.16016 0.0
C696 C 0.20086 0.67526 0.23325 0.0
C697 C 0.16063 0.60101 0.26959 0.0
C698 C 0.17353 0.67909 0.25316 0.0
C699 C 0.18171 0.70823 0.2808 0.0
C700 C 0.21727 0.73429 0.28802 0.0
C701 C 0.2446 0.73102 0.26741 0.0
C702 C 0.23646 0.70161 0.24038 0.0
H703 H 0.15432 0.57389 0.27993 0.0
H704 H 0.18114 0.62061 0.29264 0.0
H705 H 0.13607 0.60272 0.27348 0.0
H706 H 0.14587 0.65966 0.24713 0.0
H707 H 0.16031 0.71073 0.29592 0.0
H708 H 0.76814 0.2598 0.663 0.0
H709 H 0.71728 0.24625 0.71103 0.0
H710 H 0.64766 0.16406 0.61937 0.0
H711 H 0.69874 0.17757 0.57062 0.0
H712 H 0.65502 0.24879 0.68577 0.0
H713 H 0.62377 0.115 0.74578 0.0
H714 H 0.66686 0.1471 0.72361 0.0
H715 H 0.63025 0.1223 0.68622 0.0
C716 C 0.74205 0.23875 0.65293 0.0
C717 C 0.7375 0.21979 0.61282 0.0
C718 C 0.713 0.23106 0.68053 0.0
C719 C 0.67877 0.20391 0.66908 0.0
C720 C 0.67398 0.18484 0.6291 0.0
H721 H 0.46787 0.12953 0.78083 0.0
H722 H 0.51954 0.14117 0.73412 0.0
C723 C 0.70309 0.19281 0.60107 0.0
C724 C 0.64802 0.19683 0.69812 0.0
H725 H 0.5829 0.13402 0.76516 0.0
C726 C 0.63927 0.22372 0.70318 0.0
C727 C 0.62786 0.16429 0.72128 0.0
C728 C 0.63768 0.13552 0.71945 0.0
C729 C 0.61029 0.21859 0.72982 0.0
C730 C 0.58963 0.18578 0.75215 0.0
C731 C 0.5986 0.15901 0.74757 0.0
C732 C 0.55856 0.17885 0.78036 0.0
C733 C 0.60153 0.24804 0.73341 0.0
C734 C 0.56347 0.19606 0.82182 0.0
C735 C 0.53411 0.1891 0.84861 0.0
C736 C 0.49948 0.16519 0.83404 0.0
C737 C 0.49446 0.14821 0.79246 0.0
C738 C 0.52385 0.15475 0.76596 0.0
H739 H 0.61677 0.26971 0.70886 0.0
H740 H 0.57262 0.23744 0.72792 0.0
H741 H 0.60803 0.25952 0.76767 0.0
H742 H 0.59004 0.21461 0.83361 0.0
H743 H 0.53841 0.20243 0.88065 0.0
H744 H 0.23833 0.45918 0.89027 0.0
H745 H 0.28861 0.49688 0.84168 0.0
H746 H 0.35264 0.54932 0.95779 0.0
H747 H 0.30254 0.51135 1.00694 0.0
H748 H 0.32531 0.57018 0.83365 0.0
H749 H 0.41597 0.5215 0.88702 0.0
H750 H 0.36874 0.49749 0.89843 0.0
H751 H 0.39812 0.53475 0.93274 0.0
C752 C 0.26315 0.47853 0.90567 0.0
C753 C 0.26642 0.482 0.95268 0.0
C754 C 0.29187 0.50013 0.87771 0.0
C755 C 0.32456 0.52555 0.89606 0.0
C756 C 0.3279 0.52931 0.94291 0.0
H757 H 0.52634 0.69232 0.79425 0.0
H758 H 0.47435 0.65166 0.83951 0.0
C759 C 0.29917 0.50766 0.97098 0.0
C760 C 0.35485 0.54875 0.86614 0.0
H761 H 0.44145 0.57396 0.84236 0.0
C762 C 0.35064 0.57087 0.83534 0.0
C763 C 0.38773 0.54929 0.868 0.0
C764 C 0.39295 0.52426 0.89797 0.0
C765 C 0.37884 0.59439 0.80747 0.0
C766 C 0.41206 0.59575 0.81043 0.0
C767 C 0.41607 0.57317 0.84059 0.0
C768 C 0.44312 0.62073 0.78282 0.0
C769 C 0.37323 0.61827 0.77582 0.0
C770 C 0.44297 0.61657 0.7361 0.0
C771 C 0.47249 0.64003 0.71033 0.0
C772 C 0.50247 0.66824 0.73078 0.0
C773 C 0.50287 0.67197 0.77756 0.0
C774 C 0.47344 0.64838 0.80341 0.0
H775 H 0.34805 0.61824 0.78293 0.0
H776 H 0.39579 0.64598 0.778 0.0
H777 H 0.37211 0.60897 0.74086 0.0
H778 H 0.42016 0.59498 0.71964 0.0
H779 H 0.47181 0.63624 0.67433 0.0
H780 H 0.88068 0.38504 0.53474 0.0
H781 H 0.86861 0.42559 0.49084 0.0
H782 H 0.79308 0.33748 0.41053 0.0
H783 H 0.80487 0.29687 0.4546 0.0
H784 H 0.8769 0.43983 0.39946 0.0
H785 H 0.73595 0.38458 0.45039 0.0
H786 H 0.7664 0.37505 0.48033 0.0
H787 H 0.74559 0.35148 0.42955 0.0
C788 C 0.86148 0.37435 0.50772 0.0
C789 C 0.84366 0.3378 0.49799 0.0
C790 C 0.85461 0.39752 0.48272 0.0
C791 C 0.82954 0.38447 0.4479 0.0
C792 C 0.81202 0.34801 0.43783 0.0
H793 H 0.76069 0.47092 0.23586 0.0
H794 H 0.7751 0.43476 0.28571 0.0
C795 C 0.81899 0.32487 0.46271 0.0
C796 C 0.82234 0.40905 0.42124 0.0
H797 H 0.75563 0.42397 0.38754 0.0
C798 C 0.85046 0.43656 0.39711 0.0
C799 C 0.78791 0.40501 0.41873 0.0
C800 C 0.75729 0.37768 0.44648 0.0
C801 C 0.84472 0.45925 0.36913 0.0
C802 C 0.81002 0.45419 0.36525 0.0
C803 C 0.7821 0.42734 0.39021 0.0
C804 C 0.80209 0.47632 0.33498 0.0
C805 C 0.87551 0.488 0.34309 0.0
C806 C 0.81238 0.51145 0.34652 0.0
C807 C 0.80369 0.53184 0.31859 0.0
C808 C 0.78509 0.51756 0.27837 0.0
C809 C 0.77532 0.48258 0.2665 0.0
C810 C 0.78341 0.46194 0.29492 0.0
H811 H 0.89981 0.48562 0.34546 0.0
H812 H 0.86824 0.48704 0.3072 0.0
H813 H 0.88179 0.51438 0.35641 0.0
H814 H 0.82674 0.52291 0.37738 0.0
H815 H 0.8117 0.55887 0.32828 0.0
H816 H 0.37173 0.89669 0.41878 0.0
H817 H 0.41357 0.88635 0.46286 0.0
H818 H 0.34865 0.77356 0.44041 0.0
H819 H 0.30671 0.78365 0.39672 0.0
H820 H 0.39524 0.8408 0.54198 0.0
H821 H 0.45163 0.7978 0.40392 0.0
H822 H 0.43001 0.8236 0.39416 0.0
H823 H 0.40387 0.77684 0.40553 0.0
C824 C 0.36655 0.86974 0.42309 0.0
C825 C 0.3361 0.84098 0.40426 0.0
C826 C 0.39041 0.86388 0.44821 0.0
C827 C 0.38446 0.82925 0.45424 0.0
C828 C 0.35404 0.80052 0.43548 0.0
H829 H 0.48697 0.72994 0.5945 0.0
H830 H 0.4496 0.74436 0.54704 0.0
C831 C 0.33001 0.80632 0.41081 0.0
C832 C 0.40905 0.82286 0.48198 0.0
H833 H 0.46643 0.79049 0.47811 0.0
C834 C 0.41106 0.83007 0.52806 0.0
C835 C 0.4294 0.80865 0.46362 0.0
C836 C 0.42898 0.80147 0.41404 0.0
C837 C 0.43216 0.82254 0.55665 0.0
C838 C 0.45254 0.80825 0.53839 0.0
C839 C 0.45079 0.8014 0.49211 0.0
C840 C 0.47536 0.7997 0.56688 0.0
C841 C 0.43139 0.8288 0.60636 0.0
C842 C 0.50242 0.82603 0.59347 0.0
C843 C 0.52298 0.81755 0.62142 0.0
C844 C 0.51755 0.78291 0.62209 0.0
C845 C 0.49137 0.75681 0.59452 0.0
C846 C 0.4702 0.76506 0.56738 0.0
H847 H 0.40755 0.83055 0.61606 0.0
H848 H 0.43156 0.80722 0.62617 0.0
H849 H 0.45528 0.85432 0.61554 0.0
H850 H 0.50775 0.85318 0.5925 0.0
H851 H 0.54365 0.83821 0.64175 0.0
H852 H 0.69619 0.52168 0.10611 0.0
H853 H 0.6565 0.46995 0.06049 0.0
H854 H 0.58736 0.42321 0.17482 0.0
H855 H 0.628 0.47444 0.22083 0.0
H856 H 0.63555 0.39644 0.07917 0.0
H857 H 0.5205 0.4197 0.07223 0.0
H858 H 0.56491 0.45435 0.08661 0.0
H859 H 0.53827 0.42083 0.12708 0.0
C860 C 0.67327 0.49985 0.12173 0.0
C861 C 0.66604 0.50135 0.16726 0.0
C862 C 0.6502 0.47064 0.09555 0.0
C863 C 0.61901 0.44275 0.11429 0.0
C864 C 0.61118 0.44456 0.15961 0.0
H865 H 0.45602 0.23974 1.00793 0.0
H866 H 0.49405 0.29024 0.05598 0.0
C867 C 0.63447 0.47372 0.18586 0.0
C868 C 0.59535 0.41138 0.08659 0.0
H869 H 0.5125 0.3665 0.03976 0.0
C870 C 0.60869 0.38993 0.07042 0.0
C871 C 0.56027 0.40292 0.0755 0.0
C872 C 0.54506 0.42572 0.09089 0.0
C873 C 0.5878 0.36012 0.04351 0.0
C874 C 0.5529 0.3519 0.03205 0.0
C875 C 0.53936 0.37306 0.04858 0.0
C876 C 0.5301 0.32142 1.00272 0.0
C877 C 0.60286 0.33723 0.028 0.0
C878 C 0.53769 0.32246 0.95677 0.0
C879 C 0.51584 0.29375 0.92901 0.0
C880 C 0.48618 0.26344 0.94689 0.0
C881 C 0.47874 0.26258 0.99305 0.0
C882 C 0.50037 0.29143 0.02061 0.0
H883 H 0.62818 0.34407 0.04528 0.0
H884 H 0.58337 0.30871 0.03407 0.0
H885 H 0.60808 0.34085 0.99137 0.0
H886 H 0.56045 0.34556 0.94237 0.0
H887 H 0.52239 0.29519 0.8937 0.0
loop_
_geom_bond_atom_site_label_1
_geom_bond_atom_site_label_2
_geom_bond_distance
_geom_bond_site_symmetry_2
_ccdc_geom_bond_type
Pr0 C2 2.880 . S
Pr0 O20 2.562 . S
Pr0 O21 2.490 . S
Pr0 O22 2.695 1_554 S
Pr0 O23 2.512 . S
Pr0 O25 2.437 . S
Pr0 O28 2.436 . S
Pr0 O30 2.438 . S
Pr1 C11 2.880 . S
Pr1 O22 2.436 . S
Pr1 O24 2.438 1_556 S
Pr1 O26 2.562 . S
Pr1 O27 2.490 . S
Pr1 O28 2.695 1_556 S
Pr1 O29 2.512 . S
Pr1 O31 2.437 . S
C2 Pr0 2.880 . S
C2 C3 1.491 . S
C2 O20 1.254 . S
C2 O21 1.225 . S
C3 C2 1.491 . S
C3 C4 1.392 . S
C3 C8 1.356 . S
C4 C3 1.392 . S
C4 C5 1.368 . S
C4 H32 0.929 . S
C5 C4 1.368 . S
C5 C6 1.386 . S
C5 H33 0.929 . S
C6 C5 1.386 . S
C6 C7 1.373 . S
C7 C6 1.373 . S
C7 C8 1.409 . S
C7 H34 0.931 . S
C8 C3 1.356 . S
C8 C7 1.409 . S
C8 H35 0.930 . S
C9 O22 1.270 1_554 S
C9 O23 1.248 . S
C10 O24 1.267 . S
C10 O25 1.278 . S
C11 Pr1 2.880 . S
C11 C12 1.491 . S
C11 O26 1.254 . S
C11 O27 1.225 . S
C12 C11 1.491 . S
C12 C13 1.392 . S
C12 C17 1.356 . S
C13 C12 1.392 . S
C13 C14 1.368 . S
C13 H36 0.929 . S
C14 C13 1.368 . S
C14 C15 1.386 . S
C14 H37 0.929 . S
C15 C14 1.386 . S
C15 C16 1.373 . S
C16 C15 1.373 . S
C16 C17 1.409 . S
C16 H38 0.931 . S
C17 C12 1.356 . S
C17 C16 1.409 . S
C17 H39 0.930 . S
C18 O28 1.270 . S
C18 O29 1.248 1_554 S
C19 O30 1.267 1_556 S
C19 O31 1.278 . S
O20 Pr0 2.562 . S
O20 C2 1.254 . S
O21 Pr0 2.490 . S
O21 C2 1.225 . S
O22 Pr0 2.695 1_556 S
O22 Pr1 2.436 . S
O22 C9 1.270 1_556 S
O23 Pr0 2.512 . S
O23 C9 1.248 . S
O24 Pr1 2.438 1_554 S
O24 C10 1.267 . S
O25 Pr0 2.437 . S
O25 C10 1.278 . S
O26 Pr1 2.562 . S
O26 C11 1.254 . S
O27 Pr1 2.490 . S
O27 C11 1.225 . S
O28 Pr0 2.436 . S
O28 Pr1 2.695 1_554 S
O28 C18 1.270 . S
O29 Pr1 2.512 . S
O29 C18 1.248 1_556 S
O30 Pr0 2.438 . S
O30 C19 1.267 1_554 S
O31 Pr1 2.437 . S
O31 C19 1.278 . S
H32 C4 0.929 . S
H33 C5 0.929 . S
H34 C7 0.931 . S
H35 C8 0.930 . S
H36 C13 0.929 . S
H37 C14 0.929 . S
H38 C16 0.931 . S
H39 C17 0.930 . S
Pr40 C42 2.880 . S
Pr40 O60 2.562 . S
Pr40 O61 2.490 . S
Pr40 O62 2.695 . S
Pr40 O63 2.512 . S
Pr40 O65 2.437 . S
Pr40 O68 2.436 . S
Pr40 O70 2.438 . S
Pr41 C51 2.880 . S
Pr41 O62 2.436 . S
Pr41 O64 2.438 . S
Pr41 O66 2.562 . S
Pr41 O67 2.490 . S
Pr41 O68 2.695 . S
Pr41 O69 2.512 . S
Pr41 O71 2.437 . S
C42 Pr40 2.880 . S
C42 C43 1.491 . S
C42 O60 1.254 . S
C42 O61 1.225 . S
C43 C42 1.491 . S
C43 C44 1.392 . S
C43 C48 1.356 . S
C44 C43 1.392 . S
C44 C45 1.368 . S
C44 H72 0.929 . S
C45 C44 1.368 . S
C45 C46 1.386 . S
C45 H73 0.929 . S
C46 C45 1.386 . S
C46 C47 1.373 . S
C47 C46 1.373 . S
C47 C48 1.409 . S
C47 H74 0.931 . S
C48 C43 1.356 . S
C48 C47 1.409 . S
C48 H75 0.930 . S
C49 O62 1.270 . S
C49 O63 1.248 . S
C50 O64 1.267 . S
C50 O65 1.278 . S
C51 Pr41 2.880 . S
C51 C52 1.491 . S
C51 O66 1.254 . S
C51 O67 1.225 . S
C52 C51 1.491 . S
C52 C53 1.392 . S
C52 C57 1.356 . S
C53 C52 1.392 . S
C53 C54 1.368 . S
C53 H76 0.929 . S
C54 C53 1.368 . S
C54 C55 1.386 . S
C54 H77 0.929 . S
C55 C54 1.386 . S
C55 C56 1.373 . S
C56 C55 1.373 . S
C56 C57 1.409 . S
C56 H78 0.931 . S
C57 C52 1.356 . S
C57 C56 1.409 . S
C57 H79 0.930 . S
C58 O68 1.270 . S
C58 O69 1.248 . S
C59 O70 1.267 . S
C59 O71 1.278 . S
O60 Pr40 2.562 . S
O60 C42 1.254 . S
O61 Pr40 2.490 . S
O61 C42 1.225 . S
O62 Pr40 2.695 . S
O62 Pr41 2.436 . S
O62 C49 1.270 . S
O63 Pr40 2.512 . S
O63 C49 1.248 . S
O64 Pr41 2.438 . S
O64 C50 1.267 . S
O65 Pr40 2.437 . S
O65 C50 1.278 . S
O66 Pr41 2.562 . S
O66 C51 1.254 . S
O67 Pr41 2.490 . S
O67 C51 1.225 . S
O68 Pr40 2.436 . S
O68 Pr41 2.695 . S
O68 C58 1.270 . S
O69 Pr41 2.512 . S
O69 C58 1.248 . S
O70 Pr40 2.438 . S
O70 C59 1.267 . S
O71 Pr41 2.437 . S
O71 C59 1.278 . S
H72 C44 0.929 . S
H73 C45 0.929 . S
H74 C47 0.931 . S
H75 C48 0.930 . S
H76 C53 0.929 . S
H77 C54 0.929 . S
H78 C56 0.931 . S
H79 C57 0.930 . S
Pr80 C82 2.880 . S
Pr80 O100 2.562 . S
Pr80 O101 2.490 . S
Pr80 O102 2.695 . S
Pr80 O103 2.512 . S
Pr80 O105 2.437 . S
Pr80 O108 2.436 . S
Pr80 O110 2.438 . S
Pr81 C91 2.880 . S
Pr81 O102 2.436 . S
Pr81 O104 2.438 . S
Pr81 O106 2.562 . S
Pr81 O107 2.490 . S
Pr81 O108 2.695 . S
Pr81 O109 2.512 . S
Pr81 O111 2.437 . S
C82 Pr80 2.880 . S
C82 C83 1.491 . S
C82 O100 1.254 . S
C82 O101 1.225 . S
C83 C82 1.491 . S
C83 C84 1.392 . S
C83 C88 1.356 . S
C84 C83 1.392 . S
C84 C85 1.368 . S
C84 H112 0.929 . S
C85 C84 1.368 . S
C85 C86 1.386 . S
C85 H113 0.929 . S
C86 C85 1.386 . S
C86 C87 1.373 . S
C87 C86 1.373 . S
C87 C88 1.409 . S
C87 H114 0.931 . S
C88 C83 1.356 . S
C88 C87 1.409 . S
C88 H115 0.930 . S
C89 O102 1.270 . S
C89 O103 1.248 . S
C90 O104 1.267 . S
C90 O105 1.278 . S
C91 Pr81 2.880 . S
C91 C92 1.491 . S
C91 O106 1.254 . S
C91 O107 1.225 . S
C92 C91 1.491 . S
C92 C93 1.392 . S
C92 C97 1.356 . S
C93 C92 1.392 . S
C93 C94 1.368 . S
C93 H116 0.929 . S
C94 C93 1.368 . S
C94 C95 1.386 . S
C94 H117 0.929 . S
C95 C94 1.386 . S
C95 C96 1.373 . S
C96 C95 1.373 . S
C96 C97 1.409 . S
C96 H118 0.931 . S
C97 C92 1.356 . S
C97 C96 1.409 . S
C97 H119 0.930 . S
C98 O108 1.270 . S
C98 O109 1.248 . S
C99 O110 1.267 . S
C99 O111 1.278 . S
O100 Pr80 2.562 . S
O100 C82 1.254 . S
O101 Pr80 2.490 . S
O101 C82 1.225 . S
O102 Pr80 2.695 . S
O102 Pr81 2.436 . S
O102 C89 1.270 . S
O103 Pr80 2.512 . S
O103 C89 1.248 . S
O104 Pr81 2.438 . S
O104 C90 1.267 . S
O105 Pr80 2.437 . S
O105 C90 1.278 . S
O106 Pr81 2.562 . S
O106 C91 1.254 . S
O107 Pr81 2.490 . S
O107 C91 1.225 . S
O108 Pr80 2.436 . S
O108 Pr81 2.695 . S
O108 C98 1.270 . S
O109 Pr81 2.512 . S
O109 C98 1.248 . S
O110 Pr80 2.438 . S
O110 C99 1.267 . S
O111 Pr81 2.437 . S
O111 C99 1.278 . S
H112 C84 0.929 . S
H113 C85 0.929 . S
H114 C87 0.931 . S
H115 C88 0.930 . S
H116 C93 0.929 . S
H117 C94 0.929 . S
H118 C96 0.931 . S
H119 C97 0.930 . S
Pr120 C122 2.880 . S
Pr120 O140 2.562 . S
Pr120 O141 2.490 . S
Pr120 O142 2.695 . S
Pr120 O143 2.512 . S
Pr120 O145 2.437 . S
Pr120 O148 2.436 . S
Pr120 O150 2.438 . S
Pr121 C131 2.880 . S
Pr121 O142 2.436 . S
Pr121 O144 2.438 . S
Pr121 O146 2.562 . S
Pr121 O147 2.490 . S
Pr121 O148 2.695 . S
Pr121 O149 2.512 . S
Pr121 O151 2.437 . S
C122 Pr120 2.880 . S
C122 C123 1.491 . S
C122 O140 1.254 . S
C122 O141 1.225 . S
C123 C122 1.491 . S
C123 C124 1.392 1_554 S
C123 C128 1.356 1_554 S
C124 C123 1.392 1_556 S
C124 C125 1.368 . S
C124 H152 0.929 1_556 S
C125 C124 1.368 . S
C125 C126 1.386 . S
C125 H153 0.929 . S
C126 C125 1.386 . S
C126 C127 1.373 . S
C127 C126 1.373 . S
C127 C128 1.409 . S
C127 H154 0.931 . S
C128 C123 1.356 1_556 S
C128 C127 1.409 . S
C128 H155 0.930 . S
C129 O142 1.270 . S
C129 O143 1.248 . S
C130 O144 1.267 . S
C130 O145 1.278 . S
C131 Pr121 2.880 . S
C131 C132 1.491 . S
C131 O146 1.254 . S
C131 O147 1.225 . S
C132 C131 1.491 . S
C132 C133 1.392 . S
C132 C137 1.356 . S
C133 C132 1.392 . S
C133 C134 1.368 . S
C133 H156 0.929 . S
C134 C133 1.368 . S
C134 C135 1.386 . S
C134 H157 0.929 . S
C135 C134 1.386 . S
C135 C136 1.373 . S
C136 C135 1.373 . S
C136 C137 1.409 . S
C136 H158 0.931 . S
C137 C132 1.356 . S
C137 C136 1.409 . S
C137 H159 0.930 . S
C138 O148 1.270 . S
C138 O149 1.248 . S
C139 O150 1.267 . S
C139 O151 1.278 . S
O140 Pr120 2.562 . S
O140 C122 1.254 . S
O141 Pr120 2.490 . S
O141 C122 1.225 . S
O142 Pr120 2.695 . S
O142 Pr121 2.436 . S
O142 C129 1.270 . S
O143 Pr120 2.512 . S
O143 C129 1.248 . S
O144 Pr121 2.438 . S
O144 C130 1.267 . S
O145 Pr120 2.437 . S
O145 C130 1.278 . S
O146 Pr121 2.562 . S
O146 C131 1.254 . S
O147 Pr121 2.490 . S
O147 C131 1.225 . S
O148 Pr120 2.436 . S
O148 Pr121 2.695 . S
O148 C138 1.270 . S
O149 Pr121 2.512 . S
O149 C138 1.248 . S
O150 Pr120 2.438 . S
O150 C139 1.267 . S
O151 Pr121 2.437 . S
O151 C139 1.278 . S
H152 C124 0.929 1_554 S
H153 C125 0.929 . S
H154 C127 0.931 . S
H155 C128 0.930 . S
H156 C133 0.929 . S
H157 C134 0.929 . S
H158 C136 0.931 . S
H159 C137 0.930 . S
Pr160 C162 2.880 . S
Pr160 O180 2.562 . S
Pr160 O181 2.490 . S
Pr160 O182 2.695 . S
Pr160 O183 2.512 . S
Pr160 O185 2.437 . S
Pr160 O188 2.436 . S
Pr160 O190 2.438 . S
Pr161 C171 2.880 . S
Pr161 O182 2.436 . S
Pr161 O184 2.438 . S
Pr161 O186 2.562 . S
Pr161 O187 2.490 . S
Pr161 O188 2.695 . S
Pr161 O189 2.512 . S
Pr161 O191 2.437 . S
C162 Pr160 2.880 . S
C162 C163 1.491 . S
C162 O180 1.254 . S
C162 O181 1.225 . S
C163 C162 1.491 . S
C163 C164 1.392 . S
C163 C168 1.356 . S
C164 C163 1.392 . S
C164 C165 1.368 . S
C164 H192 0.929 . S
C165 C164 1.368 . S
C165 C166 1.386 . S
C165 H193 0.929 . S
C166 C165 1.386 . S
C166 C167 1.373 . S
C167 C166 1.373 . S
C167 C168 1.409 . S
C167 H194 0.931 . S
C168 C163 1.356 . S
C168 C167 1.409 . S
C168 H195 0.930 . S
C169 O182 1.270 . S
C169 O183 1.248 . S
C170 O184 1.267 . S
C170 O185 1.278 . S
C171 Pr161 2.880 . S
C171 C172 1.491 . S
C171 O186 1.254 . S
C171 O187 1.225 . S
C172 C171 1.491 . S
C172 C173 1.392 . S
C172 C177 1.356 . S
C173 C172 1.392 . S
C173 C174 1.368 . S
C173 H196 0.929 . S
C174 C173 1.368 . S
C174 C175 1.386 . S
C174 H197 0.929 . S
C175 C174 1.386 . S
C175 C176 1.373 . S
C176 C175 1.373 . S
C176 C177 1.409 . S
C176 H198 0.931 . S
C177 C172 1.356 . S
C177 C176 1.409 . S
C177 H199 0.930 . S
C178 O188 1.270 . S
C178 O189 1.248 . S
C179 O190 1.267 . S
C179 O191 1.278 . S
O180 Pr160 2.562 . S
O180 C162 1.254 . S
O181 Pr160 2.490 . S
O181 C162 1.225 . S
O182 Pr160 2.695 . S
O182 Pr161 2.436 . S
O182 C169 1.270 . S
O183 Pr160 2.512 . S
O183 C169 1.248 . S
O184 Pr161 2.438 . S
O184 C170 1.267 . S
O185 Pr160 2.437 . S
O185 C170 1.278 . S
O186 Pr161 2.562 . S
O186 C171 1.254 . S
O187 Pr161 2.490 . S
O187 C171 1.225 . S
O188 Pr160 2.436 . S
O188 Pr161 2.695 . S
O188 C178 1.270 . S
O189 Pr161 2.512 . S
O189 C178 1.248 . S
O190 Pr160 2.438 . S
O190 C179 1.267 . S
O191 Pr161 2.437 . S
O191 C179 1.278 . S
H192 C164 0.929 . S
H193 C165 0.929 . S
H194 C167 0.931 . S
H195 C168 0.930 . S
H196 C173 0.929 . S
H197 C174 0.929 . S
H198 C176 0.931 . S
H199 C177 0.930 . S
Pr200 C202 2.880 . S
Pr200 O220 2.562 . S
Pr200 O221 2.490 . S
Pr200 O222 2.695 . S
Pr200 O223 2.512 . S
Pr200 O225 2.437 . S
Pr200 O228 2.436 . S
Pr200 O230 2.438 . S
Pr201 C211 2.880 1_556 S
Pr201 O222 2.436 . S
Pr201 O224 2.438 . S
Pr201 O226 2.562 . S
Pr201 O227 2.490 . S
Pr201 O228 2.695 . S
Pr201 O229 2.512 . S
Pr201 O231 2.437 . S
C202 Pr200 2.880 . S
C202 C203 1.491 . S
C202 O220 1.254 . S
C202 O221 1.225 . S
C203 C202 1.491 . S
C203 C204 1.392 . S
C203 C208 1.356 . S
C204 C203 1.392 . S
C204 C205 1.368 . S
C204 H232 0.929 . S
C205 C204 1.368 . S
C205 C206 1.386 . S
C205 H233 0.929 . S
C206 C205 1.386 . S
C206 C207 1.373 . S
C207 C206 1.373 . S
C207 C208 1.409 . S
C207 H234 0.931 . S
C208 C203 1.356 . S
C208 C207 1.409 . S
C208 H235 0.930 . S
C209 O222 1.270 . S
C209 O223 1.248 . S
C210 O224 1.267 . S
C210 O225 1.278 . S
C211 Pr201 2.880 1_554 S
C211 C212 1.491 . S
C211 O226 1.254 1_554 S
C211 O227 1.225 1_554 S
C212 C211 1.491 . S
C212 C213 1.392 . S
C212 C217 1.356 . S
C213 C212 1.392 . S
C213 C214 1.368 . S
C213 H236 0.929 . S
C214 C213 1.368 . S
C214 C215 1.386 . S
C214 H237 0.929 . S
C215 C214 1.386 . S
C215 C216 1.373 . S
C216 C215 1.373 . S
C216 C217 1.409 . S
C216 H238 0.931 . S
C217 C212 1.356 . S
C217 C216 1.409 . S
C217 H239 0.930 . S
C218 O228 1.270 . S
C218 O229 1.248 . S
C219 O230 1.267 . S
C219 O231 1.278 . S
O220 Pr200 2.562 . S
O220 C202 1.254 . S
O221 Pr200 2.490 . S
O221 C202 1.225 . S
O222 Pr200 2.695 . S
O222 Pr201 2.436 . S
O222 C209 1.270 . S
O223 Pr200 2.512 . S
O223 C209 1.248 . S
O224 Pr201 2.438 . S
O224 C210 1.267 . S
O225 Pr200 2.437 . S
O225 C210 1.278 . S
O226 Pr201 2.562 . S
O226 C211 1.254 1_556 S
O227 Pr201 2.490 . S
O227 C211 1.225 1_556 S
O228 Pr200 2.436 . S
O228 Pr201 2.695 . S
O228 C218 1.270 . S
O229 Pr201 2.512 . S
O229 C218 1.248 . S
O230 Pr200 2.438 . S
O230 C219 1.267 . S
O231 Pr201 2.437 . S
O231 C219 1.278 . S
H232 C204 0.929 . S
H233 C205 0.929 . S
H234 C207 0.931 . S
H235 C208 0.930 . S
H236 C213 0.929 . S
H237 C214 0.929 . S
H238 C216 0.931 . S
H239 C217 0.930 . S
H240 C248 0.929 . S
H241 C250 0.930 . S
H242 C252 0.930 . S
H243 C255 0.929 . S
H244 C258 0.930 . S
H245 C260 0.960 . S
H246 C260 0.960 . S
H247 C260 0.960 . S
C248 H240 0.929 . S
C248 C249 1.377 . S
C248 C250 1.384 . S
C249 C248 1.377 . S
C249 C255 1.390 . S
C250 H241 0.930 . S
C250 C248 1.384 . S
C250 C251 1.372 . S
C251 C250 1.372 . S
C251 C252 1.400 . S
C251 C256 1.490 . S
C252 H242 0.930 . S
C252 C251 1.400 . S
C252 C255 1.386 . S
H253 C269 0.930 . S
H254 C270 0.931 . S
C255 H243 0.929 . S
C255 C249 1.390 . S
C255 C252 1.386 . S
C256 C251 1.490 . S
C256 C258 1.395 . S
C256 C259 1.403 . S
H257 C263 0.930 . S
C258 H244 0.930 . S
C258 C256 1.395 . S
C258 C261 1.403 . S
C259 C256 1.403 . S
C259 C260 1.524 . S
C259 C263 1.400 . S
C260 H245 0.960 . S
C260 H246 0.960 . S
C260 H247 0.960 . S
C260 C259 1.524 . S
C261 C258 1.403 . S
C261 C262 1.392 . S
C261 C265 1.495 . S
C262 C261 1.392 . S
C262 C263 1.385 . S
C262 C264 1.478 . S
C263 H257 0.930 . S
C263 C259 1.400 . S
C263 C262 1.385 . S
C264 C262 1.478 . S
C264 C266 1.381 1_556 S
C264 C270 1.383 . S
C265 C261 1.495 . S
C265 H271 0.959 . S
C265 H272 0.961 . S
C265 H273 0.960 1_556 S
C266 C264 1.381 1_554 S
C266 C267 1.394 . S
C266 H274 0.930 . S
C267 C266 1.394 . S
C267 C268 1.383 1_554 S
C267 H275 0.929 . S
C268 C267 1.383 1_556 S
C268 C269 1.377 . S
C269 H253 0.930 . S
C269 C268 1.377 . S
C269 C270 1.379 . S
C270 H254 0.931 . S
C270 C264 1.383 . S
C270 C269 1.379 . S
H271 C265 0.959 . S
H272 C265 0.961 . S
H273 C265 0.960 1_554 S
H274 C266 0.930 . S
H275 C267 0.929 . S
H276 C284 0.929 . S
H277 C286 0.930 . S
H278 C288 0.930 . S
H279 C291 0.929 . S
H280 C294 0.930 . S
H281 C296 0.960 . S
H282 C296 0.960 . S
H283 C296 0.960 . S
C284 H276 0.929 . S
C284 C285 1.377 . S
C284 C286 1.384 . S
C285 C284 1.377 . S
C285 C291 1.390 . S
C286 H277 0.930 . S
C286 C284 1.384 . S
C286 C287 1.372 . S
C287 C286 1.372 . S
C287 C288 1.400 . S
C287 C292 1.490 . S
C288 H278 0.930 . S
C288 C287 1.400 . S
C288 C291 1.386 . S
H289 C305 0.930 . S
H290 C306 0.931 . S
C291 H279 0.929 . S
C291 C285 1.390 . S
C291 C288 1.386 . S
C292 C287 1.490 . S
C292 C294 1.395 . S
C292 C295 1.403 1_455 S
H293 C299 0.930 . S
C294 H280 0.930 . S
C294 C292 1.395 . S
C294 C297 1.403 . S
C295 C292 1.403 1_655 S
C295 C296 1.524 . S
C295 C299 1.400 . S
C296 H281 0.960 . S
C296 H282 0.960 . S
C296 H283 0.960 . S
C296 C295 1.524 . S
C297 C294 1.403 . S
C297 C298 1.392 1_455 S
C297 C301 1.495 . S
C298 C297 1.392 1_655 S
C298 C299 1.385 . S
C298 C300 1.478 . S
C299 H293 0.930 . S
C299 C295 1.400 . S
C299 C298 1.385 . S
C300 C298 1.478 . S
C300 C302 1.381 . S
C300 C306 1.383 . S
C301 C297 1.495 . S
C301 H307 0.959 . S
C301 H308 0.961 . S
C301 H309 0.960 . S
C302 C300 1.381 . S
C302 C303 1.394 . S
C302 H310 0.930 . S
C303 C302 1.394 . S
C303 C304 1.383 . S
C303 H311 0.929 . S
C304 C303 1.383 . S
C304 C305 1.377 . S
C305 H289 0.930 . S
C305 C304 1.377 . S
C305 C306 1.379 . S
C306 H290 0.931 . S
C306 C300 1.383 . S
C306 C305 1.379 . S
H307 C301 0.959 . S
H308 C301 0.961 . S
H309 C301 0.960 . S
H310 C302 0.930 . S
H311 C303 0.929 . S
H312 C320 0.929 . S
H313 C322 0.930 . S
H314 C324 0.930 . S
H315 C327 0.929 . S
H316 C330 0.930 . S
H317 C332 0.960 1_565 S
H318 C332 0.960 . S
H319 C332 0.960 . S
C320 H312 0.929 . S
C320 C321 1.377 . S
C320 C322 1.384 . S
C321 C320 1.377 . S
C321 C327 1.390 . S
C322 H313 0.930 . S
C322 C320 1.384 . S
C322 C323 1.372 . S
C323 C322 1.372 . S
C323 C324 1.400 . S
C323 C328 1.490 . S
C324 H314 0.930 . S
C324 C323 1.400 . S
C324 C327 1.386 . S
H325 C341 0.930 . S
H326 C342 0.931 . S
C327 H315 0.929 . S
C327 C321 1.390 . S
C327 C324 1.386 . S
C328 C323 1.490 . S
C328 C330 1.395 . S
C328 C331 1.403 . S
H329 C335 0.930 . S
C330 H316 0.930 . S
C330 C328 1.395 . S
C330 C333 1.403 1_545 S
C331 C328 1.403 . S
C331 C332 1.524 . S
C331 C335 1.400 1_545 S
C332 H317 0.960 1_545 S
C332 H318 0.960 . S
C332 H319 0.960 . S
C332 C331 1.524 . S
C333 C330 1.403 1_565 S
C333 C334 1.392 . S
C333 C337 1.495 . S
C334 C333 1.392 . S
C334 C335 1.385 . S
C334 C336 1.478 . S
C335 H329 0.930 . S
C335 C331 1.400 1_565 S
C335 C334 1.385 . S
C336 C334 1.478 . S
C336 C338 1.381 . S
C336 C342 1.383 . S
C337 C333 1.495 . S
C337 H343 0.959 1_565 S
C337 H344 0.961 . S
C337 H345 0.960 . S
C338 C336 1.381 . S
C338 C339 1.394 . S
C338 H346 0.930 . S
C339 C338 1.394 . S
C339 C340 1.383 . S
C339 H347 0.929 . S
C340 C339 1.383 . S
C340 C341 1.377 . S
C341 H325 0.930 . S
C341 C340 1.377 . S
C341 C342 1.379 . S
C342 H326 0.931 . S
C342 C336 1.383 . S
C342 C341 1.379 . S
H343 C337 0.959 1_545 S
H344 C337 0.961 . S
H345 C337 0.960 . S
H346 C338 0.930 . S
H347 C339 0.929 . S
H348 C356 0.929 . S
H349 C358 0.930 . S
H350 C360 0.930 . S
H351 C363 0.929 . S
H352 C366 0.930 . S
H353 C368 0.960 . S
H354 C368 0.960 . S
H355 C368 0.960 . S
C356 H348 0.929 . S
C356 C357 1.377 . S
C356 C358 1.384 . S
C357 C356 1.377 . S
C357 C363 1.390 . S
C358 H349 0.930 . S
C358 C356 1.384 . S
C358 C359 1.372 . S
C359 C358 1.372 . S
C359 C360 1.400 . S
C359 C364 1.490 . S
C360 H350 0.930 . S
C360 C359 1.400 . S
C360 C363 1.386 . S
H361 C377 0.930 . S
H362 C378 0.931 1_556 S
C363 H351 0.929 . S
C363 C357 1.390 . S
C363 C360 1.386 . S
C364 C359 1.490 . S
C364 C366 1.395 . S
C364 C367 1.403 . S
H365 C371 0.930 . S
C366 H352 0.930 . S
C366 C364 1.395 . S
C366 C369 1.403 . S
C367 C364 1.403 . S
C367 C368 1.524 . S
C367 C371 1.400 . S
C368 H353 0.960 . S
C368 H354 0.960 . S
C368 H355 0.960 . S
C368 C367 1.524 . S
C369 C366 1.403 . S
C369 C370 1.392 . S
C369 C373 1.495 . S
C370 C369 1.392 . S
C370 C371 1.385 . S
C370 C372 1.478 1_556 S
C371 H365 0.930 . S
C371 C367 1.400 . S
C371 C370 1.385 . S
C372 C370 1.478 1_554 S
C372 C374 1.381 . S
C372 C378 1.383 . S
C373 C369 1.495 . S
C373 H379 0.959 . S
C373 H380 0.961 . S
C373 H381 0.958 . S
C374 C372 1.381 . S
C374 C375 1.394 . S
C374 H382 0.930 . S
C375 C374 1.394 . S
C375 C376 1.383 . S
C375 H383 0.929 . S
C376 C375 1.383 . S
C376 C377 1.377 . S
C377 H361 0.930 . S
C377 C376 1.377 . S
C377 C378 1.379 . S
C378 H362 0.931 1_554 S
C378 C372 1.383 . S
C378 C377 1.379 . S
H379 C373 0.959 . S
H380 C373 0.961 . S
H381 C373 0.958 . S
H382 C374 0.930 . S
H383 C375 0.929 . S
H384 C392 0.929 . S
H385 C394 0.930 . S
H386 C396 0.930 . S
H387 C399 0.929 . S
H388 C402 0.930 . S
H389 C404 0.960 1_655 S
H390 C404 0.960 . S
H391 C404 0.960 . S
C392 H384 0.929 . S
C392 C393 1.377 . S
C392 C394 1.384 . S
C393 C392 1.377 . S
C393 C399 1.390 . S
C394 H385 0.930 . S
C394 C392 1.384 . S
C394 C395 1.372 . S
C395 C394 1.372 . S
C395 C396 1.400 . S
C395 C400 1.490 . S
C396 H386 0.930 . S
C396 C395 1.400 . S
C396 C399 1.386 . S
H397 C413 0.930 . S
H398 C414 0.931 . S
C399 H387 0.929 . S
C399 C393 1.390 . S
C399 C396 1.386 . S
C400 C395 1.490 . S
C400 C402 1.395 . S
C400 C403 1.403 . S
H401 C407 0.930 . S
C402 H388 0.930 . S
C402 C400 1.395 . S
C402 C405 1.403 1_455 S
C403 C400 1.403 . S
C403 C404 1.524 . S
C403 C407 1.400 1_455 S
C404 H389 0.960 1_455 S
C404 H390 0.960 . S
C404 H391 0.960 . S
C404 C403 1.524 . S
C405 C402 1.403 1_655 S
C405 C406 1.392 . S
C405 C409 1.495 . S
C406 C405 1.392 . S
C406 C407 1.385 . S
C406 C408 1.478 . S
C407 H401 0.930 . S
C407 C403 1.400 1_655 S
C407 C406 1.385 . S
C408 C406 1.478 . S
C408 C410 1.381 . S
C408 C414 1.383 . S
C409 C405 1.495 . S
C409 H415 0.959 1_655 S
C409 H416 0.961 . S
C409 H417 0.960 . S
C410 C408 1.381 . S
C410 C411 1.394 . S
C410 H418 0.930 . S
C411 C410 1.394 . S
C411 C412 1.383 . S
C411 H419 0.929 . S
C412 C411 1.383 . S
C412 C413 1.377 . S
C413 H397 0.930 . S
C413 C412 1.377 . S
C413 C414 1.379 . S
C414 H398 0.931 . S
C414 C408 1.383 . S
C414 C413 1.379 . S
H415 C409 0.959 1_455 S
H416 C409 0.961 . S
H417 C409 0.960 . S
H418 C410 0.930 . S
H419 C411 0.929 . S
H420 C428 0.929 . S
H421 C430 0.930 . S
H422 C432 0.930 . S
H423 C435 0.929 . S
H424 C438 0.930 . S
H425 C440 0.960 . S
H426 C440 0.960 . S
H427 C440 0.960 . S
C428 H420 0.929 . S
C428 C429 1.377 . S
C428 C430 1.384 . S
C429 C428 1.377 . S
C429 C435 1.390 . S
C430 H421 0.930 . S
C430 C428 1.384 . S
C430 C431 1.372 . S
C431 C430 1.372 . S
C431 C432 1.400 . S
C431 C436 1.490 . S
C432 H422 0.930 . S
C432 C431 1.400 . S
C432 C435 1.386 . S
H433 C449 0.930 . S
H434 C450 0.931 . S
C435 H423 0.929 . S
C435 C429 1.390 . S
C435 C432 1.386 . S
C436 C431 1.490 . S
C436 C438 1.395 . S
C436 C439 1.403 1_545 S
H437 C443 0.930 . S
C438 H424 0.930 . S
C438 C436 1.395 . S
C438 C441 1.403 . S
C439 C436 1.403 1_565 S
C439 C440 1.524 . S
C439 C443 1.400 . S
C440 H425 0.960 . S
C440 H426 0.960 . S
C440 H427 0.960 . S
C440 C439 1.524 . S
C441 C438 1.403 . S
C441 C442 1.392 1_545 S
C441 C445 1.495 . S
C442 C441 1.392 1_565 S
C442 C443 1.385 . S
C442 C444 1.478 . S
C443 H437 0.930 . S
C443 C439 1.400 . S
C443 C442 1.385 . S
C444 C442 1.478 . S
C444 C446 1.381 . S
C444 C450 1.383 . S
C445 C441 1.495 . S
C445 H451 0.959 . S
C445 H452 0.961 . S
C445 H453 0.960 . S
C446 C444 1.381 . S
C446 C447 1.394 . S
C446 H454 0.930 . S
C447 C446 1.394 . S
C447 C448 1.383 . S
C447 H455 0.929 . S
C448 C447 1.383 . S
C448 C449 1.377 . S
C449 H433 0.930 . S
C449 C448 1.377 . S
C449 C450 1.379 . S
C450 H434 0.931 . S
C450 C444 1.383 . S
C450 C449 1.379 . S
H451 C445 0.959 . S
H452 C445 0.961 . S
H453 C445 0.960 . S
H454 C446 0.930 . S
H455 C447 0.929 . S
H456 C464 0.929 . S
H457 C466 0.930 . S
H458 C468 0.930 . S
H459 C471 0.929 . S
H460 C474 0.930 . S
H461 C476 0.960 . S
H462 C476 0.960 . S
H463 C476 0.960 . S
C464 H456 0.929 . S
C464 C465 1.377 . S
C464 C466 1.384 . S
C465 C464 1.377 . S
C465 C471 1.390 . S
C466 H457 0.930 . S
C466 C464 1.384 . S
C466 C467 1.372 . S
C467 C466 1.372 . S
C467 C468 1.400 . S
C467 C472 1.490 . S
C468 H458 0.930 . S
C468 C467 1.400 . S
C468 C471 1.386 . S
H469 C485 0.930 . S
H470 C486 0.931 . S
C471 H459 0.929 . S
C471 C465 1.390 . S
C471 C468 1.386 . S
C472 C467 1.490 . S
C472 C474 1.395 . S
C472 C475 1.403 . S
H473 C479 0.930 . S
C474 H460 0.930 . S
C474 C472 1.395 . S
C474 C477 1.403 . S
C475 C472 1.403 . S
C475 C476 1.524 . S
C475 C479 1.400 . S
C476 H461 0.960 . S
C476 H462 0.960 . S
C476 H463 0.960 . S
C476 C475 1.524 . S
C477 C474 1.403 . S
C477 C478 1.392 . S
C477 C481 1.495 . S
C478 C477 1.392 . S
C478 C479 1.385 . S
C478 C480 1.478 . S
C479 H473 0.930 . S
C479 C475 1.400 . S
C479 C478 1.385 . S
C480 C478 1.478 . S
C480 C482 1.381 . S
C480 C486 1.383 . S
C481 C477 1.495 . S
C481 H487 0.959 . S
C481 H488 0.961 . S
C481 H489 0.960 . S
C482 C480 1.381 . S
C482 C483 1.394 . S
C482 H490 0.930 . S
C483 C482 1.394 . S
C483 C484 1.383 . S
C483 H491 0.929 . S
C484 C483 1.383 . S
C484 C485 1.377 . S
C485 H469 0.930 . S
C485 C484 1.377 . S
C485 C486 1.379 . S
C486 H470 0.931 . S
C486 C480 1.383 . S
C486 C485 1.379 . S
H487 C481 0.959 . S
H488 C481 0.961 . S
H489 C481 0.960 . S
H490 C482 0.930 . S
H491 C483 0.929 . S
H492 C500 0.929 . S
H493 C502 0.930 . S
H494 C504 0.930 . S
H495 C507 0.929 . S
H496 C510 0.930 . S
H497 C512 0.960 . S
H498 C512 0.960 . S
H499 C512 0.960 . S
C500 H492 0.929 . S
C500 C501 1.377 . S
C500 C502 1.384 . S
C501 C500 1.377 . S
C501 C507 1.390 . S
C502 H493 0.930 . S
C502 C500 1.384 . S
C502 C503 1.372 . S
C503 C502 1.372 . S
C503 C504 1.400 . S
C503 C508 1.490 . S
C504 H494 0.930 . S
C504 C503 1.400 . S
C504 C507 1.386 . S
H505 C521 0.930 . S
H506 C522 0.931 . S
C507 H495 0.929 . S
C507 C501 1.390 . S
C507 C504 1.386 . S
C508 C503 1.490 . S
C508 C510 1.395 . S
C508 C511 1.403 . S
H509 C515 0.930 . S
C510 H496 0.930 . S
C510 C508 1.395 . S
C510 C513 1.403 . S
C511 C508 1.403 . S
C511 C512 1.524 . S
C511 C515 1.400 . S
C512 H497 0.960 . S
C512 H498 0.960 . S
C512 H499 0.960 . S
C512 C511 1.524 . S
C513 C510 1.403 . S
C513 C514 1.392 1_554 S
C513 C517 1.495 1_554 S
C514 C513 1.392 1_556 S
C514 C515 1.385 1_556 S
C514 C516 1.478 . S
C515 H509 0.930 . S
C515 C511 1.400 . S
C515 C514 1.385 1_554 S
C516 C514 1.478 . S
C516 C518 1.381 . S
C516 C522 1.383 . S
C517 C513 1.495 1_556 S
C517 H523 0.959 . S
C517 H524 0.961 . S
C517 H525 0.960 . S
C518 C516 1.381 . S
C518 C519 1.394 . S
C518 H526 0.930 . S
C519 C518 1.394 . S
C519 C520 1.383 . S
C519 H527 0.929 . S
C520 C519 1.383 . S
C520 C521 1.377 . S
C521 H505 0.930 . S
C521 C520 1.377 . S
C521 C522 1.379 . S
C522 H506 0.931 . S
C522 C516 1.383 . S
C522 C521 1.379 . S
H523 C517 0.959 . S
H524 C517 0.961 . S
H525 C517 0.960 . S
H526 C518 0.930 . S
H527 C519 0.929 . S
H528 C536 0.929 . S
H529 C538 0.930 . S
H530 C540 0.930 . S
H531 C543 0.929 . S
H532 C546 0.930 . S
H533 C548 0.960 . S
H534 C548 0.960 . S
H535 C548 0.960 . S
C536 H528 0.929 . S
C536 C537 1.377 . S
C536 C538 1.384 . S
C537 C536 1.377 . S
C537 C543 1.390 . S
C538 H529 0.930 . S
C538 C536 1.384 . S
C538 C539 1.372 . S
C539 C538 1.372 . S
C539 C540 1.400 . S
C539 C544 1.490 . S
C540 H530 0.930 . S
C540 C539 1.400 . S
C540 C543 1.386 . S
H541 C557 0.930 . S
H542 C558 0.931 . S
C543 H531 0.929 . S
C543 C537 1.390 . S
C543 C540 1.386 . S
C544 C539 1.490 . S
C544 C546 1.395 . S
C544 C547 1.403 . S
H545 C551 0.930 . S
C546 H532 0.930 . S
C546 C544 1.395 . S
C546 C549 1.403 . S
C547 C544 1.403 . S
C547 C548 1.524 . S
C547 C551 1.400 . S
C548 H533 0.960 . S
C548 H534 0.960 . S
C548 H535 0.960 . S
C548 C547 1.524 . S
C549 C546 1.403 . S
C549 C550 1.392 . S
C549 C553 1.495 . S
C550 C549 1.392 . S
C550 C551 1.385 . S
C550 C552 1.478 . S
C551 H545 0.930 . S
C551 C547 1.400 . S
C551 C550 1.385 . S
C552 C550 1.478 . S
C552 C554 1.381 . S
C552 C558 1.383 . S
C553 C549 1.495 . S
C553 H559 0.959 . S
C553 H560 0.961 . S
C553 H561 0.960 . S
C554 C552 1.381 . S
C554 C555 1.394 . S
C554 H562 0.930 . S
C555 C554 1.394 . S
C555 C556 1.383 . S
C555 H563 0.929 . S
C556 C555 1.383 . S
C556 C557 1.377 . S
C557 H541 0.930 . S
C557 C556 1.377 . S
C557 C558 1.379 . S
C558 H542 0.931 . S
C558 C552 1.383 . S
C558 C557 1.379 . S
H559 C553 0.959 . S
H560 C553 0.961 . S
H561 C553 0.960 . S
H562 C554 0.930 . S
H563 C555 0.929 . S
H564 C572 0.929 . S
H565 C574 0.930 . S
H566 C576 0.930 . S
H567 C579 0.929 . S
H568 C582 0.930 . S
H569 C584 0.960 . S
H570 C584 0.960 . S
H571 C584 0.960 . S
C572 H564 0.929 . S
C572 C573 1.377 . S
C572 C574 1.384 . S
C573 C572 1.377 . S
C573 C579 1.390 . S
C574 H565 0.930 . S
C574 C572 1.384 . S
C574 C575 1.372 . S
C575 C574 1.372 . S
C575 C576 1.400 . S
C575 C580 1.490 . S
C576 H566 0.930 . S
C576 C575 1.400 . S
C576 C579 1.386 . S
H577 C593 0.930 . S
H578 C594 0.931 . S
C579 H567 0.929 . S
C579 C573 1.390 . S
C579 C576 1.386 . S
C580 C575 1.490 . S
C580 C582 1.395 . S
C580 C583 1.403 . S
H581 C587 0.930 . S
C582 H568 0.930 . S
C582 C580 1.395 . S
C582 C585 1.403 . S
C583 C580 1.403 . S
C583 C584 1.524 . S
C583 C587 1.400 . S
C584 H569 0.960 . S
C584 H570 0.960 . S
C584 H571 0.960 . S
C584 C583 1.524 . S
C585 C582 1.403 . S
C585 C586 1.392 . S
C585 C589 1.495 . S
C586 C585 1.392 . S
C586 C587 1.385 . S
C586 C588 1.478 . S
C587 H581 0.930 . S
C587 C583 1.400 . S
C587 C586 1.385 . S
C588 C586 1.478 . S
C588 C590 1.381 . S
C588 C594 1.383 . S
C589 C585 1.495 . S
C589 H595 0.959 . S
C589 H596 0.961 . S
C589 H597 0.960 . S
C590 C588 1.381 . S
C590 C591 1.394 . S
C590 H598 0.930 . S
C591 C590 1.394 . S
C591 C592 1.383 . S
C591 H599 0.929 . S
C592 C591 1.383 . S
C592 C593 1.377 . S
C593 H577 0.930 . S
C593 C592 1.377 . S
C593 C594 1.379 . S
C594 H578 0.931 . S
C594 C588 1.383 . S
C594 C593 1.379 . S
H595 C589 0.959 . S
H596 C589 0.961 . S
H597 C589 0.960 . S
H598 C590 0.930 . S
H599 C591 0.929 . S
H600 C608 0.929 . S
H601 C610 0.930 . S
H602 C612 0.930 . S
H603 C615 0.929 . S
H604 C618 0.930 . S
H605 C620 0.960 . S
H606 C620 0.960 . S
H607 C620 0.960 . S
C608 H600 0.929 . S
C608 C609 1.377 . S
C608 C610 1.384 . S
C609 C608 1.377 . S
C609 C615 1.390 . S
C610 H601 0.930 . S
C610 C608 1.384 . S
C610 C611 1.372 . S
C611 C610 1.372 . S
C611 C612 1.400 . S
C611 C616 1.490 . S
C612 H602 0.930 . S
C612 C611 1.400 . S
C612 C615 1.386 . S
H613 C629 0.930 . S
H614 C630 0.931 . S
C615 H603 0.929 . S
C615 C609 1.390 . S
C615 C612 1.386 . S
C616 C611 1.490 . S
C616 C618 1.395 . S
C616 C619 1.403 . S
H617 C623 0.930 . S
C618 H604 0.930 . S
C618 C616 1.395 . S
C618 C621 1.403 . S
C619 C616 1.403 . S
C619 C620 1.524 . S
C619 C623 1.400 . S
C620 H605 0.960 . S
C620 H606 0.960 . S
C620 H607 0.960 . S
C620 C619 1.524 . S
C621 C618 1.403 . S
C621 C622 1.392 . S
C621 C625 1.495 . S
C622 C621 1.392 . S
C622 C623 1.385 . S
C622 C624 1.478 . S
C623 H617 0.930 . S
C623 C619 1.400 . S
C623 C622 1.385 . S
C624 C622 1.478 . S
C624 C626 1.381 . S
C624 C630 1.383 . S
C625 C621 1.495 . S
C625 H631 0.959 . S
C625 H632 0.961 . S
C625 H633 0.960 . S
C626 C624 1.381 . S
C626 C627 1.394 1_556 S
C626 H634 0.930 . S
C627 C626 1.394 1_554 S
C627 C628 1.383 . S
C627 H635 0.929 . S
C628 C627 1.383 . S
C628 C629 1.377 . S
C629 H613 0.930 . S
C629 C628 1.377 . S
C629 C630 1.379 1_554 S
C630 H614 0.931 . S
C630 C624 1.383 . S
C630 C629 1.379 1_556 S
H631 C625 0.959 . S
H632 C625 0.961 . S
H633 C625 0.960 . S
H634 C626 0.930 . S
H635 C627 0.929 . S
H636 C644 0.929 . S
H637 C646 0.930 . S
H638 C648 0.930 . S
H639 C651 0.929 . S
H640 C654 0.930 . S
H641 C656 0.960 . S
H642 C656 0.960 . S
H643 C656 0.960 . S
C644 H636 0.929 . S
C644 C645 1.377 . S
C644 C646 1.384 . S
C645 C644 1.377 . S
C645 C651 1.390 . S
C646 H637 0.930 . S
C646 C644 1.384 . S
C646 C647 1.372 . S
C647 C646 1.372 . S
C647 C648 1.400 . S
C647 C652 1.490 . S
C648 H638 0.930 . S
C648 C647 1.400 . S
C648 C651 1.386 . S
H649 C665 0.930 . S
H650 C666 0.931 . S
C651 H639 0.929 . S
C651 C645 1.390 . S
C651 C648 1.386 . S
C652 C647 1.490 . S
C652 C654 1.395 . S
C652 C655 1.403 . S
H653 C659 0.930 . S
C654 H640 0.930 . S
C654 C652 1.395 . S
C654 C657 1.403 . S
C655 C652 1.403 . S
C655 C656 1.524 . S
C655 C659 1.400 . S
C656 H641 0.960 . S
C656 H642 0.960 . S
C656 H643 0.960 . S
C656 C655 1.524 . S
C657 C654 1.403 . S
C657 C658 1.392 . S
C657 C661 1.495 . S
C658 C657 1.392 . S
C658 C659 1.385 . S
C658 C660 1.478 . S
C659 H653 0.930 . S
C659 C655 1.400 . S
C659 C658 1.385 . S
C660 C658 1.478 . S
C660 C662 1.381 . S
C660 C666 1.383 . S
C661 C657 1.495 . S
C661 H667 0.959 . S
C661 H668 0.961 . S
C661 H669 0.960 . S
C662 C660 1.381 . S
C662 C663 1.394 . S
C662 H670 0.930 . S
C663 C662 1.394 . S
C663 C664 1.383 . S
C663 H671 0.929 . S
C664 C663 1.383 . S
C664 C665 1.377 . S
C665 H649 0.930 . S
C665 C664 1.377 . S
C665 C666 1.379 . S
C666 H650 0.931 . S
C666 C660 1.383 . S
C666 C665 1.379 . S
H667 C661 0.959 . S
H668 C661 0.961 . S
H669 C661 0.960 . S
H670 C662 0.930 . S
H671 C663 0.929 . S
H672 C680 0.929 . S
H673 C682 0.930 . S
H674 C684 0.930 . S
H675 C687 0.929 . S
H676 C690 0.930 . S
H677 C692 0.960 . S
H678 C692 0.960 . S
H679 C692 0.960 . S
C680 H672 0.929 . S
C680 C681 1.377 . S
C680 C682 1.384 . S
C681 C680 1.377 . S
C681 C687 1.390 . S
C682 H673 0.930 . S
C682 C680 1.384 . S
C682 C683 1.372 . S
C683 C682 1.372 . S
C683 C684 1.400 . S
C683 C688 1.490 . S
C684 H674 0.930 . S
C684 C683 1.400 . S
C684 C687 1.386 . S
H685 C701 0.930 . S
H686 C702 0.931 . S
C687 H675 0.929 . S
C687 C681 1.390 . S
C687 C684 1.386 . S
C688 C683 1.490 . S
C688 C690 1.395 . S
C688 C691 1.403 . S
H689 C695 0.930 . S
C690 H676 0.930 . S
C690 C688 1.395 . S
C690 C693 1.403 . S
C691 C688 1.403 . S
C691 C692 1.524 . S
C691 C695 1.400 . S
C692 H677 0.960 . S
C692 H678 0.960 . S
C692 H679 0.960 . S
C692 C691 1.524 . S
C693 C690 1.403 . S
C693 C694 1.392 . S
C693 C697 1.495 . S
C694 C693 1.392 . S
C694 C695 1.385 . S
C694 C696 1.478 . S
C695 H689 0.930 . S
C695 C691 1.400 . S
C695 C694 1.385 . S
C696 C694 1.478 . S
C696 C698 1.381 . S
C696 C702 1.383 . S
C697 C693 1.495 . S
C697 H703 0.959 . S
C697 H704 0.961 . S
C697 H705 0.960 . S
C698 C696 1.381 . S
C698 C699 1.394 . S
C698 H706 0.930 . S
C699 C698 1.394 . S
C699 C700 1.383 . S
C699 H707 0.929 . S
C700 C699 1.383 . S
C700 C701 1.377 . S
C701 H685 0.930 . S
C701 C700 1.377 . S
C701 C702 1.379 . S
C702 H686 0.931 . S
C702 C696 1.383 . S
C702 C701 1.379 . S
H703 C697 0.959 . S
H704 C697 0.961 . S
H705 C697 0.960 . S
H706 C698 0.930 . S
H707 C699 0.929 . S
H708 C716 0.929 . S
H709 C718 0.930 . S
H710 C720 0.930 . S
H711 C723 0.929 . S
H712 C726 0.930 . S
H713 C728 0.960 . S
H714 C728 0.960 . S
H715 C728 0.960 . S
C716 H708 0.929 . S
C716 C717 1.377 . S
C716 C718 1.384 . S
C717 C716 1.377 . S
C717 C723 1.390 . S
C718 H709 0.930 . S
C718 C716 1.384 . S
C718 C719 1.372 . S
C719 C718 1.372 . S
C719 C720 1.400 . S
C719 C724 1.490 . S
C720 H710 0.930 . S
C720 C719 1.400 . S
C720 C723 1.386 . S
H721 C737 0.930 . S
H722 C738 0.931 . S
C723 H711 0.929 . S
C723 C717 1.390 . S
C723 C720 1.386 . S
C724 C719 1.490 . S
C724 C726 1.395 . S
C724 C727 1.403 . S
H725 C731 0.930 . S
C726 H712 0.930 . S
C726 C724 1.395 . S
C726 C729 1.403 . S
C727 C724 1.403 . S
C727 C728 1.524 . S
C727 C731 1.400 . S
C728 H713 0.960 . S
C728 H714 0.960 . S
C728 H715 0.960 . S
C728 C727 1.524 . S
C729 C726 1.403 . S
C729 C730 1.392 . S
C729 C733 1.495 . S
C730 C729 1.392 . S
C730 C731 1.385 . S
C730 C732 1.478 . S
C731 H725 0.930 . S
C731 C727 1.400 . S
C731 C730 1.385 . S
C732 C730 1.478 . S
C732 C734 1.381 . S
C732 C738 1.383 . S
C733 C729 1.495 . S
C733 H739 0.959 . S
C733 H740 0.961 . S
C733 H741 0.960 . S
C734 C732 1.381 . S
C734 C735 1.394 . S
C734 H742 0.930 . S
C735 C734 1.394 . S
C735 C736 1.383 . S
C735 H743 0.929 . S
C736 C735 1.383 . S
C736 C737 1.377 . S
C737 H721 0.930 . S
C737 C736 1.377 . S
C737 C738 1.379 . S
C738 H722 0.931 . S
C738 C732 1.383 . S
C738 C737 1.379 . S
H739 C733 0.959 . S
H740 C733 0.961 . S
H741 C733 0.960 . S
H742 C734 0.930 . S
H743 C735 0.929 . S
H744 C752 0.929 . S
H745 C754 0.930 . S
H746 C756 0.930 . S
H747 C759 0.929 . S
H748 C762 0.930 . S
H749 C764 0.960 . S
H750 C764 0.960 . S
H751 C764 0.960 . S
C752 H744 0.929 . S
C752 C753 1.377 . S
C752 C754 1.384 . S
C753 C752 1.377 . S
C753 C759 1.390 . S
C754 H745 0.930 . S
C754 C752 1.384 . S
C754 C755 1.372 . S
C755 C754 1.372 . S
C755 C756 1.400 . S
C755 C760 1.490 . S
C756 H746 0.930 . S
C756 C755 1.400 . S
C756 C759 1.386 . S
H757 C773 0.930 . S
H758 C774 0.931 . S
C759 H747 0.929 . S
C759 C753 1.390 . S
C759 C756 1.386 . S
C760 C755 1.490 . S
C760 C762 1.395 . S
C760 C763 1.403 . S
H761 C767 0.930 . S
C762 H748 0.930 . S
C762 C760 1.395 . S
C762 C765 1.403 . S
C763 C760 1.403 . S
C763 C764 1.524 . S
C763 C767 1.400 . S
C764 H749 0.960 . S
C764 H750 0.960 . S
C764 H751 0.960 . S
C764 C763 1.524 . S
C765 C762 1.403 . S
C765 C766 1.392 . S
C765 C769 1.495 . S
C766 C765 1.392 . S
C766 C767 1.385 . S
C766 C768 1.478 . S
C767 H761 0.930 . S
C767 C763 1.400 . S
C767 C766 1.385 . S
C768 C766 1.478 . S
C768 C770 1.381 . S
C768 C774 1.383 . S
C769 C765 1.495 . S
C769 H775 0.959 . S
C769 H776 0.961 . S
C769 H777 0.960 . S
C770 C768 1.381 . S
C770 C771 1.394 . S
C770 H778 0.930 . S
C771 C770 1.394 . S
C771 C772 1.383 . S
C771 H779 0.929 . S
C772 C771 1.383 . S
C772 C773 1.377 . S
C773 H757 0.930 . S
C773 C772 1.377 . S
C773 C774 1.379 . S
C774 H758 0.931 . S
C774 C768 1.383 . S
C774 C773 1.379 . S
H775 C769 0.959 . S
H776 C769 0.961 . S
H777 C769 0.960 . S
H778 C770 0.930 . S
H779 C771 0.929 . S
H780 C788 0.929 . S
H781 C790 0.930 . S
H782 C792 0.930 . S
H783 C795 0.929 . S
H784 C798 0.930 . S
H785 C800 0.960 . S
H786 C800 0.960 . S
H787 C800 0.960 . S
C788 H780 0.929 . S
C788 C789 1.377 . S
C788 C790 1.384 . S
C789 C788 1.377 . S
C789 C795 1.390 . S
C790 H781 0.930 . S
C790 C788 1.384 . S
C790 C791 1.372 . S
C791 C790 1.372 . S
C791 C792 1.400 . S
C791 C796 1.490 . S
C792 H782 0.930 . S
C792 C791 1.400 . S
C792 C795 1.386 . S
H793 C809 0.930 . S
H794 C810 0.931 . S
C795 H783 0.929 . S
C795 C789 1.390 . S
C795 C792 1.386 . S
C796 C791 1.490 . S
C796 C798 1.395 . S
C796 C799 1.403 . S
H797 C803 0.930 . S
C798 H784 0.930 . S
C798 C796 1.395 . S
C798 C801 1.403 . S
C799 C796 1.403 . S
C799 C800 1.524 . S
C799 C803 1.400 . S
C800 H785 0.960 . S
C800 H786 0.960 . S
C800 H787 0.960 . S
C800 C799 1.524 . S
C801 C798 1.403 . S
C801 C802 1.392 . S
C801 C805 1.495 . S
C802 C801 1.392 . S
C802 C803 1.385 . S
C802 C804 1.478 . S
C803 H797 0.930 . S
C803 C799 1.400 . S
C803 C802 1.385 . S
C804 C802 1.478 . S
C804 C806 1.381 . S
C804 C810 1.383 . S
C805 C801 1.495 . S
C805 H811 0.959 . S
C805 H812 0.961 . S
C805 H813 0.960 . S
C806 C804 1.381 . S
C806 C807 1.394 . S
C806 H814 0.930 . S
C807 C806 1.394 . S
C807 C808 1.383 . S
C807 H815 0.929 . S
C808 C807 1.383 . S
C808 C809 1.377 . S
C809 H793 0.930 . S
C809 C808 1.377 . S
C809 C810 1.379 . S
C810 H794 0.931 . S
C810 C804 1.383 . S
C810 C809 1.379 . S
H811 C805 0.959 . S
H812 C805 0.961 . S
H813 C805 0.960 . S
H814 C806 0.930 . S
H815 C807 0.929 . S
H816 C824 0.929 . S
H817 C826 0.930 . S
H818 C828 0.930 . S
H819 C831 0.929 . S
H820 C834 0.930 . S
H821 C836 0.960 . S
H822 C836 0.960 . S
H823 C836 0.960 . S
C824 H816 0.929 . S
C824 C825 1.377 . S
C824 C826 1.384 . S
C825 C824 1.377 . S
C825 C831 1.390 . S
C826 H817 0.930 . S
C826 C824 1.384 . S
C826 C827 1.372 . S
C827 C826 1.372 . S
C827 C828 1.400 . S
C827 C832 1.490 . S
C828 H818 0.930 . S
C828 C827 1.400 . S
C828 C831 1.386 . S
H829 C845 0.930 . S
H830 C846 0.931 . S
C831 H819 0.929 . S
C831 C825 1.390 . S
C831 C828 1.386 . S
C832 C827 1.490 . S
C832 C834 1.395 . S
C832 C835 1.403 . S
H833 C839 0.930 . S
C834 H820 0.930 . S
C834 C832 1.395 . S
C834 C837 1.403 . S
C835 C832 1.403 . S
C835 C836 1.524 . S
C835 C839 1.400 . S
C836 H821 0.960 . S
C836 H822 0.960 . S
C836 H823 0.960 . S
C836 C835 1.524 . S
C837 C834 1.403 . S
C837 C838 1.392 . S
C837 C841 1.495 . S
C838 C837 1.392 . S
C838 C839 1.385 . S
C838 C840 1.478 . S
C839 H833 0.930 . S
C839 C835 1.400 . S
C839 C838 1.385 . S
C840 C838 1.478 . S
C840 C842 1.381 . S
C840 C846 1.383 . S
C841 C837 1.495 . S
C841 H847 0.959 . S
C841 H848 0.961 . S
C841 H849 0.960 . S
C842 C840 1.381 . S
C842 C843 1.394 . S
C842 H850 0.930 . S
C843 C842 1.394 . S
C843 C844 1.383 . S
C843 H851 0.929 . S
C844 C843 1.383 . S
C844 C845 1.377 . S
C845 H829 0.930 . S
C845 C844 1.377 . S
C845 C846 1.379 . S
C846 H830 0.931 . S
C846 C840 1.383 . S
C846 C845 1.379 . S
H847 C841 0.959 . S
H848 C841 0.961 . S
H849 C841 0.960 . S
H850 C842 0.930 . S
H851 C843 0.929 . S
H852 C860 0.929 . S
H853 C862 0.930 . S
H854 C864 0.930 . S
H855 C867 0.929 . S
H856 C870 0.930 . S
H857 C872 0.960 . S
H858 C872 0.960 . S
H859 C872 0.960 . S
C860 H852 0.929 . S
C860 C861 1.377 . S
C860 C862 1.384 . S
C861 C860 1.377 . S
C861 C867 1.390 . S
C862 H853 0.930 . S
C862 C860 1.384 . S
C862 C863 1.372 . S
C863 C862 1.372 . S
C863 C864 1.400 . S
C863 C868 1.490 . S
C864 H854 0.930 . S
C864 C863 1.400 . S
C864 C867 1.386 . S
H865 C881 0.919 1_554 S
H866 C882 0.931 . S
C867 H855 0.929 . S
C867 C861 1.390 . S
C867 C864 1.386 . S
C868 C863 1.490 . S
C868 C870 1.395 . S
C868 C871 1.403 . S
H869 C875 0.930 . S
C870 H856 0.930 . S
C870 C868 1.395 . S
C870 C873 1.403 . S
C871 C868 1.403 . S
C871 C872 1.524 . S
C871 C875 1.400 . S
C872 H857 0.960 . S
C872 H858 0.960 . S
C872 H859 0.960 . S
C872 C871 1.524 . S
C873 C870 1.403 . S
C873 C874 1.392 . S
C873 C877 1.495 . S
C874 C873 1.392 . S
C874 C875 1.385 . S
C874 C876 1.478 . S
C875 H869 0.930 . S
C875 C871 1.400 . S
C875 C874 1.385 . S
C876 C874 1.478 . S
C876 C878 1.381 1_554 S
C876 C882 1.383 . S
C877 C873 1.495 . S
C877 H883 0.959 . S
C877 H884 0.961 . S
C877 H885 0.960 1_554 S
C878 C876 1.381 1_556 S
C878 C879 1.394 . S
C878 H886 0.930 . S
C879 C878 1.394 . S
C879 C880 1.383 . S
C879 H887 0.929 . S
C880 C879 1.383 . S
C880 C881 1.400 . S
C881 H865 0.919 1_556 S
C881 C880 1.400 . S
C881 C882 1.367 1_556 S
C882 H866 0.931 . S
C882 C876 1.383 . S
C882 C881 1.367 1_554 S
H883 C877 0.959 . S
H884 C877 0.961 . S
H885 C877 0.960 1_556 S
H886 C878 0.930 . S
H887 C879 0.929 . S
C249 C209 1.388 . S
C268 C9 1.341 1_556 S
C285 C10 1.667 . S
C304 C50 1.672 . S
C321 C49 1.387 . S
C340 C89 1.342 . S
C357 C90 1.665 . S
C376 C130 1.660 . S
C393 C169 1.388 . S
C412 C129 1.340 . S
C429 C210 1.667 . S
C448 C170 1.672 . S
C465 C15 1.055 . S
C484 C6 1.061 . S
C501 C46 1.051 . S
C520 C55 1.031 . S
C537 C95 1.047 . S
C556 C86 1.022 1_554 S
C573 C126 1.049 . S
C592 C135 1.069 . S
C609 C166 1.055 . S
C628 C175 1.057 . S
C645 C206 1.055 . S
C664 C215 1.060 . S
C681 C18 1.799 . S
C700 C179 1.767 . S
C717 C59 1.781 . S
C736 C218 1.797 . S
C753 C19 1.782 . S
C772 C98 1.794 . S
C789 C58 1.799 . S
C808 C139 1.778 . S
C825 C178 1.799 . S
C844 C99 1.765 . S
C861 C138 1.800 . S
C880 C219 1.767 . S
