# Generated by pormake.
# Topology uks, (4)-cn, num edge types: 1
# Building blocks:
#     Node 0, Type 0, BuildingBlock: ESEHIV_clean_sbu_0, # of connection points: 4
#     Node 1, Type 0, BuildingBlock: ESEHIV_clean_sbu_0, # of connection points: 4
#     Node 2, Type 0, BuildingBlock: ESEHIV_clean_sbu_0, # of connection points: 4
#     Node 3, Type 0, BuildingBlock: ESEHIV_clean_sbu_0, # of connection points: 4
#     Node 4, Type 0, BuildingBlock: ESEHIV_clean_sbu_0, # of connection points: 4
#     Node 5, Type 0, BuildingBlock: ESEHIV_clean_sbu_0, # of connection points: 4
#     Node 6, Type 0, BuildingBlock: ESEHIV_clean_sbu_0, # of connection points: 4
#     Node 7, Type 0, BuildingBlock: ESEHIV_clean_sbu_0, # of connection points: 4
#     Node 8, Type 0, BuildingBlock: ESEHIV_clean_sbu_0, # of connection points: 4
#     Node 9, Type 0, BuildingBlock: ESEHIV_clean_sbu_0, # of connection points: 4
#     Node 10, Type 0, BuildingBlock: ESEHIV_clean_sbu_0, # of connection points: 4
#     Node 11, Type 0, BuildingBlock: ESEHIV_clean_sbu_0, # of connection points: 4
#     Node 12, Type 0, BuildingBlock: ESEHIV_clean_sbu_0, # of connection points: 4
#     Node 13, Type 0, BuildingBlock: ESEHIV_clean_sbu_0, # of connection points: 4
#     Node 14, Type 0, BuildingBlock: ESEHIV_clean_sbu_0, # of connection points: 4
#     Node 15, Type 0, BuildingBlock: ESEHIV_clean_sbu_0, # of connection points: 4
#     Node 16, Type 0, BuildingBlock: ESEHIV_clean_sbu_0, # of connection points: 4
#     Node 17, Type 0, BuildingBlock: ESEHIV_clean_sbu_0, # of connection points: 4
#     Node 18, Type 0, BuildingBlock: ESEHIV_clean_sbu_0, # of connection points: 4
#     Node 19, Type 0, BuildingBlock: ESEHIV_clean_sbu_0, # of connection points: 4
#     Node 20, Type 0, BuildingBlock: ESEHIV_clean_sbu_0, # of connection points: 4
#     Node 21, Type 0, BuildingBlock: ESEHIV_clean_sbu_0, # of connection points: 4
#     Node 22, Type 0, BuildingBlock: ESEHIV_clean_sbu_0, # of connection points: 4
#     Node 23, Type 0, BuildingBlock: ESEHIV_clean_sbu_0, # of connection points: 4
#     Edge 24, Type (0, 0), BuildingBlock: XIVTED_clean_linker_0, # of connection points: 2
#     Edge 25, Type (0, 0), BuildingBlock: XIVTED_clean_linker_0, # of connection points: 2
#     Edge 26, Type (0, 0), BuildingBlock: XIVTED_clean_linker_0, # of connection points: 2
#     Edge 27, Type (0, 0), BuildingBlock: XIVTED_clean_linker_0, # of connection points: 2
#     Edge 28, Type (0, 0), BuildingBlock: XIVTED_clean_linker_0, # of connection points: 2
#     Edge 29, Type (0, 0), BuildingBlock: XIVTED_clean_linker_0, # of connection points: 2
#     Edge 30, Type (0, 0), BuildingBlock: XIVTED_clean_linker_0, # of connection points: 2
#     Edge 31, Type (0, 0), BuildingBlock: XIVTED_clean_linker_0, # of connection points: 2
#     Edge 32, Type (0, 0), BuildingBlock: XIVTED_clean_linker_0, # of connection points: 2
#     Edge 33, Type (0, 0), BuildingBlock: XIVTED_clean_linker_0, # of connection points: 2
#     Edge 34, Type (0, 0), BuildingBlock: XIVTED_clean_linker_0, # of connection points: 2
#     Edge 35, Type (0, 0), BuildingBlock: XIVTED_clean_linker_0, # of connection points: 2
#     Edge 36, Type (0, 0), BuildingBlock: XIVTED_clean_linker_0, # of connection points: 2
#     Edge 37, Type (0, 0), BuildingBlock: XIVTED_clean_linker_0, # of connection points: 2
#     Edge 38, Type (0, 0), BuildingBlock: XIVTED_clean_linker_0, # of connection points: 2
#     Edge 39, Type (0, 0), BuildingBlock: XIVTED_clean_linker_0, # of connection points: 2
#     Edge 40, Type (0, 0), BuildingBlock: XIVTED_clean_linker_0, # of connection points: 2
#     Edge 41, Type (0, 0), BuildingBlock: XIVTED_clean_linker_0, # of connection points: 2
#     Edge 42, Type (0, 0), BuildingBlock: XIVTED_clean_linker_0, # of connection points: 2
#     Edge 43, Type (0, 0), BuildingBlock: XIVTED_clean_linker_0, # of connection points: 2
#     Edge 44, Type (0, 0), BuildingBlock: XIVTED_clean_linker_0, # of connection points: 2
#     Edge 45, Type (0, 0), BuildingBlock: XIVTED_clean_linker_0, # of connection points: 2
#     Edge 46, Type (0, 0), BuildingBlock: XIVTED_clean_linker_0, # of connection points: 2
#     Edge 47, Type (0, 0), BuildingBlock: XIVTED_clean_linker_0, # of connection points: 2
#     Edge 48, Type (0, 0), BuildingBlock: XIVTED_clean_linker_0, # of connection points: 2
#     Edge 49, Type (0, 0), BuildingBlock: XIVTED_clean_linker_0, # of connection points: 2
#     Edge 50, Type (0, 0), BuildingBlock: XIVTED_clean_linker_0, # of connection points: 2
#     Edge 51, Type (0, 0), BuildingBlock: XIVTED_clean_linker_0, # of connection points: 2
#     Edge 52, Type (0, 0), BuildingBlock: XIVTED_clean_linker_0, # of connection points: 2
#     Edge 53, Type (0, 0), BuildingBlock: XIVTED_clean_linker_0, # of connection points: 2
#     Edge 54, Type (0, 0), BuildingBlock: XIVTED_clean_linker_0, # of connection points: 2
#     Edge 55, Type (0, 0), BuildingBlock: XIVTED_clean_linker_0, # of connection points: 2
#     Edge 56, Type (0, 0), BuildingBlock: XIVTED_clean_linker_0, # of connection points: 2
#     Edge 57, Type (0, 0), BuildingBlock: XIVTED_clean_linker_0, # of connection points: 2
#     Edge 58, Type (0, 0), BuildingBlock: XIVTED_clean_linker_0, # of connection points: 2
#     Edge 59, Type (0, 0), BuildingBlock: XIVTED_clean_linker_0, # of connection points: 2
#     Edge 60, Type (0, 0), BuildingBlock: XIVTED_clean_linker_0, # of connection points: 2
#     Edge 61, Type (0, 0), BuildingBlock: XIVTED_clean_linker_0, # of connection points: 2
#     Edge 62, Type (0, 0), BuildingBlock: XIVTED_clean_linker_0, # of connection points: 2
#     Edge 63, Type (0, 0), BuildingBlock: XIVTED_clean_linker_0, # of connection points: 2
#     Edge 64, Type (0, 0), BuildingBlock: XIVTED_clean_linker_0, # of connection points: 2
#     Edge 65, Type (0, 0), BuildingBlock: XIVTED_clean_linker_0, # of connection points: 2
#     Edge 66, Type (0, 0), BuildingBlock: XIVTED_clean_linker_0, # of connection points: 2
#     Edge 67, Type (0, 0), BuildingBlock: XIVTED_clean_linker_0, # of connection points: 2
#     Edge 68, Type (0, 0), BuildingBlock: XIVTED_clean_linker_0, # of connection points: 2
#     Edge 69, Type (0, 0), BuildingBlock: XIVTED_clean_linker_0, # of connection points: 2
#     Edge 70, Type (0, 0), BuildingBlock: XIVTED_clean_linker_0, # of connection points: 2
#     Edge 71, Type (0, 0), BuildingBlock: XIVTED_clean_linker_0, # of connection points: 2
# Relax obj value: 0.050
# Max RMSD: 0.127
# Mean RMSD: 0.107
data_MOF--net-uks--node1-ESEHIV_clean_sbu_0--edge1-XIVTED_clean_linker_0
_symmetry_space_group_name_H-M    P1
_symmetry_Int_Tables_number       1
_symmetry_cell_setting            triclinic
loop_
_symmetry_equiv_pos_as_xyz
'x, y, z'
_cell_length_a     52.676283
_cell_length_b     61.570407
_cell_length_c     61.378891
_cell_angle_alpha  89.954428
_cell_angle_beta   90.041272
_cell_angle_gamma 85.888436
loop_
_atom_site_label
_atom_site_type_symbol
_atom_site_fract_x
_atom_site_fract_y
_atom_site_fract_z
_atom_type_partial_charge
Cu0 Cu 0.13159 0.38072 0.68516 0.0
N1 N 0.13763 0.3509 0.67921 0.0
N2 N 0.13879 0.3147 0.68416 0.0
C3 C 0.1304 0.33453 0.6919 0.0
C4 C 0.15178 0.31894 0.66583 0.0
C5 C 0.15107 0.3412 0.66286 0.0
O6 O 0.0948 0.38649 0.68961 0.0
C7 C 0.17679 0.38369 0.70677 0.0
O8 O 0.18454 0.37567 0.68789 0.0
H9 H 0.11934 0.33726 0.7066 0.0
H10 H 0.16028 0.3497 0.65 0.0
N11 N 0.14191 0.39861 0.66238 0.0
N12 N 0.15584 0.42793 0.64585 0.0
C13 C 0.15156 0.41816 0.66507 0.0
C14 C 0.14036 0.39587 0.64065 0.0
C15 C 0.14874 0.41402 0.63043 0.0
C16 C 0.08101 0.38373 0.67288 0.0
O17 O 0.09213 0.3771 0.65471 0.0
H18 H 0.15487 0.42531 0.68084 0.0
H19 H 0.13346 0.38177 0.63272 0.0
O20 O 0.1529 0.38719 0.70999 0.0
H21 H 0.1618 0.30691 0.65555 0.0
H22 H 0.14976 0.41671 0.61303 0.0
Cu23 Cu 0.62664 0.63944 0.23289 0.0
N24 N 0.60971 0.65922 0.25198 0.0
N25 N 0.59501 0.69238 0.26321 0.0
C26 C 0.60916 0.6808 0.24837 0.0
C27 C 0.58634 0.67736 0.27688 0.0
C28 C 0.59531 0.65686 0.26982 0.0
O29 O 0.60782 0.64387 0.20578 0.0
C30 C 0.67206 0.64623 0.25177 0.0
O31 O 0.6578 0.64189 0.26856 0.0
H32 H 0.61911 0.68782 0.23496 0.0
H33 H 0.59123 0.64143 0.27694 0.0
N34 N 0.62699 0.60987 0.24033 0.0
N35 N 0.63561 0.57395 0.23597 0.0
C36 C 0.6336 0.59368 0.22623 0.0
C37 C 0.62471 0.60012 0.25978 0.0
C38 C 0.62996 0.57794 0.25714 0.0
C39 C 0.58549 0.63712 0.20639 0.0
O40 O 0.57885 0.62623 0.22365 0.0
H41 H 0.63803 0.59655 0.20931 0.0
H42 H 0.62049 0.60854 0.27494 0.0
O43 O 0.66208 0.64647 0.23281 0.0
H44 H 0.57392 0.68087 0.29067 0.0
H45 H 0.62997 0.5658 0.26989 0.0
Cu46 Cu 0.37626 0.14928 0.7247 0.0
N47 N 0.35774 0.17614 0.72213 0.0
N48 N 0.34294 0.20852 0.73527 0.0
C49 C 0.36237 0.193 0.73511 0.0
C50 C 0.32533 0.20113 0.72166 0.0
C51 C 0.33449 0.18108 0.71362 0.0
O52 O 0.41245 0.15493 0.72427 0.0
C53 C 0.34098 0.1297 0.7501 0.0
O54 O 0.33152 0.12663 0.73066 0.0
H55 H 0.37869 0.19283 0.74586 0.0
H56 H 0.32413 0.17017 0.70374 0.0
N57 N 0.37117 0.1298 0.70184 0.0
N58 N 0.37056 0.0981 0.68401 0.0
C59 C 0.37426 0.10791 0.70331 0.0
C60 C 0.36551 0.13404 0.68081 0.0
C61 C 0.36516 0.1145 0.66975 0.0
C62 C 0.41913 0.16679 0.70846 0.0
O63 O 0.40157 0.17435 0.69466 0.0
H64 H 0.37948 0.09937 0.71826 0.0
H65 H 0.36211 0.15018 0.67397 0.0
O66 O 0.36237 0.13811 0.75175 0.0
H67 H 0.30667 0.20908 0.71858 0.0
H68 H 0.36102 0.11251 0.65262 0.0
Cu69 Cu 0.88533 0.90992 0.24194 0.0
N70 N 0.90099 0.88947 0.26117 0.0
N71 N 0.91553 0.85614 0.27215 0.0
C72 C 0.90618 0.86853 0.25542 0.0
C73 C 0.91627 0.86999 0.28919 0.0
C74 C 0.90728 0.89054 0.28237 0.0
O75 O 0.90414 0.90496 0.21489 0.0
C76 C 0.83849 0.90649 0.25979 0.0
O77 O 0.85189 0.91236 0.27657 0.0
H78 H 0.90202 0.86238 0.2394 0.0
H79 H 0.90469 0.90495 0.29239 0.0
N80 N 0.88726 0.9392 0.24979 0.0
N81 N 0.88346 0.97545 0.246 0.0
C82 C 0.87652 0.95619 0.23836 0.0
C83 C 0.9013 0.94801 0.26535 0.0
C84 C 0.89905 0.97036 0.26301 0.0
C85 C 0.927 0.9105 0.21578 0.0
O86 O 0.93442 0.92032 0.23342 0.0
H87 H 0.86506 0.95437 0.22392 0.0
H88 H 0.91337 0.93888 0.27686 0.0
O89 O 0.84947 0.90435 0.24132 0.0
H90 H 0.92245 0.8656 0.30552 0.0
H91 H 0.90878 0.98193 0.27264 0.0
Cu92 Cu 0.1241 0.1266 0.80224 0.0
N93 N 0.12294 0.14052 0.775 0.0
N94 N 0.12362 0.16702 0.74987 0.0
C95 C 0.12236 0.16218 0.77136 0.0
C96 C 0.12479 0.1475 0.73969 0.0
C97 C 0.12444 0.13127 0.75518 0.0
O98 O 0.09808 0.14178 0.82042 0.0
C99 C 0.1723 0.14283 0.81349 0.0
O100 O 0.16083 0.16232 0.81098 0.0
H101 H 0.12181 0.17406 0.78434 0.0
H102 H 0.12571 0.11391 0.7522 0.0
N103 N 0.11645 0.09739 0.79966 0.0
N104 N 0.11676 0.06157 0.80658 0.0
C105 C 0.12709 0.08053 0.81131 0.0
C106 C 0.09875 0.08889 0.78709 0.0
C107 C 0.09895 0.06682 0.79124 0.0
C108 C 0.08803 0.13356 0.83712 0.0
O109 O 0.0977 0.11483 0.84477 0.0
H110 H 0.14208 0.08225 0.82311 0.0
H111 H 0.08627 0.09817 0.77595 0.0
O112 O 0.15923 0.12624 0.81248 0.0
H113 H 0.12601 0.14496 0.72228 0.0
H114 H 0.08645 0.05566 0.78394 0.0
Cu115 Cu 0.90647 0.64024 0.29563 0.0
N116 N 0.92047 0.6605 0.27732 0.0
N117 N 0.93034 0.69386 0.2674 0.0
C118 C 0.91853 0.68184 0.28214 0.0
C119 C 0.94006 0.67938 0.25252 0.0
C120 C 0.93407 0.65872 0.25877 0.0
O121 O 0.92427 0.64356 0.32307 0.0
C122 C 0.85983 0.64858 0.27684 0.0
O123 O 0.87475 0.64581 0.25979 0.0
H124 H 0.90833 0.68839 0.29624 0.0
H125 H 0.9394 0.64357 0.25051 0.0
N126 N 0.91097 0.61099 0.28726 0.0
N127 N 0.90762 0.57513 0.29104 0.0
C128 C 0.90852 0.59444 0.30128 0.0
C129 C 0.91173 0.60187 0.26732 0.0
C130 C 0.90967 0.57971 0.26961 0.0
C131 C 0.94782 0.63711 0.32228 0.0
O132 O 0.95656 0.62739 0.30448 0.0
H133 H 0.90568 0.59682 0.31861 0.0
H134 H 0.91228 0.6108 0.25217 0.0
O135 O 0.86984 0.64733 0.29579 0.0
H136 H 0.95106 0.68334 0.23836 0.0
H137 H 0.90892 0.56802 0.2565 0.0
Cu138 Cu 0.34804 0.39257 0.84758 0.0
N139 N 0.3356 0.36531 0.85227 0.0
N140 N 0.32837 0.33161 0.8414 0.0
C141 C 0.34356 0.34825 0.83976 0.0
C142 C 0.31006 0.33845 0.85574 0.0
C143 C 0.31458 0.35931 0.86245 0.0
O144 O 0.38532 0.38741 0.84761 0.0
C145 C 0.30748 0.40502 0.82174 0.0
O146 O 0.29725 0.40486 0.84125 0.0
H147 H 0.35892 0.3489 0.82813 0.0
H148 H 0.3024 0.36988 0.87267 0.0
N149 N 0.33822 0.41396 0.86842 0.0
N150 N 0.32584 0.44692 0.88182 0.0
C151 C 0.33199 0.4351 0.8638 0.0
C152 C 0.3361 0.41232 0.8902 0.0
C153 C 0.32856 0.43265 0.89852 0.0
C154 C 0.39448 0.37663 0.86398 0.0
O155 O 0.37873 0.37108 0.87926 0.0
H156 H 0.33211 0.4417 0.84745 0.0
H157 H 0.33968 0.39741 0.89937 0.0
O158 O 0.33157 0.40119 0.82003 0.0
H159 H 0.29393 0.32949 0.86026 0.0
H160 H 0.3249 0.43653 0.91548 0.0
Cu161 Cu 0.60327 0.90713 0.299 0.0
N162 N 0.59085 0.88769 0.27884 0.0
N163 N 0.58215 0.85488 0.26628 0.0
C164 C 0.59044 0.86631 0.28329 0.0
C165 C 0.5771 0.8698 0.25039 0.0
C166 C 0.58241 0.89007 0.25822 0.0
O167 O 0.58306 0.9031 0.32507 0.0
C168 C 0.65098 0.90058 0.28275 0.0
O169 O 0.63721 0.9056 0.26537 0.0
H170 H 0.59704 0.85922 0.29859 0.0
H171 H 0.58083 0.90527 0.24934 0.0
N172 N 0.60014 0.93675 0.2915 0.0
N173 N 0.60671 0.97216 0.29478 0.0
C174 C 0.61338 0.95171 0.30164 0.0
C175 C 0.58455 0.94807 0.27753 0.0
C176 C 0.58849 0.96996 0.27959 0.0
C177 C 0.55952 0.90907 0.32265 0.0
O178 O 0.5522 0.91846 0.30425 0.0
H179 H 0.62699 0.94765 0.3145 0.0
H180 H 0.57079 0.94105 0.26707 0.0
O181 O 0.63974 0.89975 0.30111 0.0
H182 H 0.57023 0.86634 0.23423 0.0
H183 H 0.57852 0.98321 0.27078 0.0
Cu184 Cu 0.70905 0.14376 0.40111 0.0
N185 N 0.70108 0.17293 0.39422 0.0
N186 N 0.70906 0.20708 0.38589 0.0
C187 C 0.71896 0.18727 0.39205 0.0
C188 C 0.68382 0.20513 0.38374 0.0
C189 C 0.67891 0.18394 0.38895 0.0
O190 O 0.70973 0.14134 0.43311 0.0
C191 C 0.75281 0.12205 0.37706 0.0
O192 O 0.74357 0.10291 0.37915 0.0
H193 H 0.73906 0.18305 0.39448 0.0
H194 H 0.66061 0.17703 0.38864 0.0
N195 N 0.6833 0.12706 0.39023 0.0
N196 N 0.66053 0.10346 0.37215 0.0
C197 C 0.6834 0.11201 0.37418 0.0
C198 C 0.65956 0.12807 0.39841 0.0
C199 C 0.64551 0.11365 0.38734 0.0
C200 C 0.71985 0.15515 0.44527 0.0
O201 O 0.73298 0.17005 0.43617 0.0
H202 H 0.69966 0.10752 0.36402 0.0
H203 H 0.65304 0.13847 0.41177 0.0
O204 O 0.74189 0.13859 0.38646 0.0
H205 H 0.66996 0.21807 0.37891 0.0
H206 H 0.62596 0.11043 0.39068 0.0
Cu207 Cu 0.88208 0.2228 0.90704 0.0
N208 N 0.88863 0.24493 0.88722 0.0
N209 N 0.89103 0.26217 0.85512 0.0
C210 C 0.8795 0.24696 0.86671 0.0
C211 C 0.90777 0.27024 0.86914 0.0
C212 C 0.90631 0.25954 0.88883 0.0
O213 O 0.90818 0.1992 0.90142 0.0
C214 C 0.83232 0.21021 0.9176 0.0
O215 O 0.8428 0.20375 0.93613 0.0
H216 H 0.8654 0.23678 0.86024 0.0
H217 H 0.91824 0.26147 0.90295 0.0
N218 N 0.88522 0.23273 0.93584 0.0
N219 N 0.88609 0.23294 0.97239 0.0
C220 C 0.88976 0.2208 0.95412 0.0
C221 C 0.87891 0.25311 0.9428 0.0
C222 C 0.87942 0.2533 0.96525 0.0
C223 C 0.91284 0.193 0.88193 0.0
O224 O 0.89684 0.19959 0.86647 0.0
H225 H 0.89385 0.20331 0.95406 0.0
H226 H 0.87309 0.26667 0.93227 0.0
O227 O 0.84652 0.2165 0.90236 0.0
H228 H 0.92118 0.28216 0.86518 0.0
H229 H 0.87449 0.26724 0.97553 0.0
Cu230 Cu 0.81622 0.39458 0.38751 0.0
N231 N 0.82161 0.36834 0.37273 0.0
N232 N 0.81175 0.33474 0.36417 0.0
C233 C 0.8143 0.34927 0.3803 0.0
C234 C 0.81812 0.34495 0.34571 0.0
C235 C 0.82423 0.36572 0.35106 0.0
O236 O 0.81618 0.38739 0.41857 0.0
C237 C 0.76454 0.39533 0.37724 0.0
O238 O 0.76563 0.37845 0.39039 0.0
H239 H 0.80791 0.34704 0.39687 0.0
H240 H 0.82771 0.37866 0.33976 0.0
N241 N 0.84234 0.4126 0.38101 0.0
N242 N 0.86426 0.4396 0.36795 0.0
C243 C 0.84167 0.43041 0.36811 0.0
C244 C 0.86612 0.41036 0.38908 0.0
C245 C 0.87964 0.42698 0.38113 0.0
C246 C 0.82233 0.39993 0.4339 0.0
O247 O 0.82693 0.42012 0.42933 0.0
H248 H 0.82483 0.43674 0.35943 0.0
H249 H 0.87303 0.39759 0.40015 0.0
O250 O 0.78381 0.40666 0.37599 0.0
H251 H 0.81664 0.33846 0.32941 0.0
H252 H 0.89934 0.42947 0.3847 0.0
Cu253 Cu 0.62643 0.31762 0.90554 0.0
N254 N 0.64319 0.32262 0.87947 0.0
N255 N 0.65694 0.31258 0.84625 0.0
C256 C 0.63829 0.31165 0.86119 0.0
C257 C 0.6743 0.32481 0.8555 0.0
C258 C 0.66578 0.33095 0.87607 0.0
O259 O 0.58981 0.31907 0.89904 0.0
C260 C 0.66478 0.28942 0.92262 0.0
O261 O 0.67359 0.30816 0.92775 0.0
H262 H 0.62254 0.30135 0.85981 0.0
H263 H 0.67626 0.33927 0.88828 0.0
N264 N 0.63154 0.33846 0.92716 0.0
N265 N 0.63368 0.35376 0.96016 0.0
C266 C 0.63085 0.33523 0.9489 0.0
C267 C 0.63481 0.35978 0.92457 0.0
C268 C 0.63609 0.36927 0.9449 0.0
C269 C 0.58115 0.33564 0.88804 0.0
O270 O 0.59711 0.34989 0.88186 0.0
H271 H 0.62783 0.31966 0.95629 0.0
H272 H 0.63588 0.3679 0.909 0.0
O273 O 0.64266 0.28928 0.91411 0.0
H274 H 0.69246 0.32809 0.84844 0.0
H275 H 0.63873 0.38623 0.94818 0.0
Cu276 Cu 0.67686 0.3835 0.17663 0.0
N277 N 0.66448 0.3803 0.20483 0.0
N278 N 0.66548 0.38311 0.24119 0.0
C279 C 0.67592 0.38876 0.22214 0.0
C280 C 0.64656 0.37046 0.2356 0.0
C281 C 0.64593 0.36881 0.21309 0.0
O282 O 0.68785 0.41321 0.17722 0.0
C283 C 0.69662 0.34102 0.17248 0.0
O284 O 0.67218 0.33829 0.17405 0.0
H285 H 0.6925 0.39808 0.22072 0.0
H286 H 0.63339 0.35943 0.20351 0.0
N287 N 0.65242 0.3805 0.15478 0.0
N288 N 0.63646 0.37613 0.12137 0.0
C289 C 0.65754 0.37462 0.13399 0.0
C290 C 0.62719 0.38573 0.15543 0.0
C291 C 0.6173 0.38314 0.13481 0.0
C292 C 0.67679 0.4289 0.16647 0.0
O293 O 0.66155 0.42457 0.15037 0.0
H294 H 0.67656 0.37027 0.12804 0.0
H295 H 0.6169 0.39172 0.1697 0.0
O296 O 0.70382 0.36038 0.17278 0.0
H297 H 0.63432 0.3627 0.24692 0.0
H298 H 0.59762 0.38643 0.13002 0.0
Cu299 Cu 0.6449 0.20706 0.65489 0.0
N300 N 0.65843 0.2034 0.68295 0.0
N301 N 0.66616 0.21421 0.71694 0.0
C302 C 0.65118 0.21708 0.69921 0.0
C303 C 0.6836 0.19791 0.71165 0.0
C304 C 0.67874 0.19121 0.69061 0.0
O305 O 0.60809 0.2051 0.65834 0.0
C306 C 0.6798 0.23652 0.648 0.0
O307 O 0.69392 0.2184 0.65156 0.0
H308 H 0.63618 0.22992 0.69743 0.0
H309 H 0.69003 0.17923 0.68121 0.0
N310 N 0.6582 0.18608 0.63482 0.0
N311 N 0.67176 0.17064 0.60338 0.0
C312 C 0.66369 0.18936 0.61362 0.0
C313 C 0.66308 0.16459 0.63814 0.0
C314 C 0.67137 0.15504 0.61883 0.0
C315 C 0.60137 0.18882 0.66931 0.0
O316 O 0.61915 0.17433 0.67611 0.0
H317 H 0.66125 0.20512 0.60576 0.0
H318 H 0.6606 0.15638 0.65349 0.0
O319 O 0.65573 0.23564 0.64668 0.0
H320 H 0.69915 0.19172 0.72196 0.0
H321 H 0.67685 0.13793 0.61642 0.0
Cu322 Cu 0.84229 0.1671 0.18145 0.0
N323 N 0.85246 0.16962 0.21055 0.0
N324 N 0.85006 0.16403 0.24657 0.0
C325 C 0.84147 0.1588 0.22668 0.0
C326 C 0.86726 0.17886 0.24279 0.0
C327 C 0.86879 0.18222 0.22051 0.0
O328 O 0.8369 0.13601 0.17914 0.0
C329 C 0.81882 0.20779 0.17887 0.0
O330 O 0.84268 0.21142 0.18273 0.0
H331 H 0.82659 0.14789 0.22382 0.0
H332 H 0.88047 0.19341 0.21227 0.0
N333 N 0.86632 0.17448 0.16042 0.0
N334 N 0.88113 0.1845 0.12793 0.0
C335 C 0.86045 0.17987 0.13961 0.0
C336 C 0.89164 0.17593 0.16205 0.0
C337 C 0.90085 0.18195 0.14199 0.0
C338 C 0.85761 0.12409 0.18133 0.0
O339 O 0.87902 0.13375 0.18211 0.0
H340 H 0.8413 0.18025 0.13315 0.0
H341 H 0.90262 0.17288 0.17677 0.0
O342 O 0.81294 0.18806 0.17754 0.0
H343 H 0.87779 0.18688 0.25521 0.0
H344 H 0.92043 0.18466 0.13818 0.0
Cu345 Cu 0.86205 0.33679 0.64759 0.0
N346 N 0.87006 0.31167 0.66417 0.0
N347 N 0.8759 0.2922 0.69495 0.0
C348 C 0.87597 0.31207 0.68554 0.0
C349 C 0.86974 0.27875 0.67867 0.0
C350 C 0.86593 0.29081 0.65981 0.0
O351 O 0.88517 0.35743 0.65947 0.0
C352 C 0.80774 0.34318 0.63946 0.0
O353 O 0.81336 0.3458 0.61889 0.0
H354 H 0.87843 0.32702 0.6943 0.0
H355 H 0.8591 0.28499 0.64442 0.0
N356 N 0.86827 0.33203 0.6175 0.0
N357 N 0.86704 0.33651 0.58113 0.0
C358 C 0.86194 0.34571 0.60079 0.0
C359 C 0.87851 0.31375 0.60799 0.0
C360 C 0.87766 0.3164 0.58566 0.0
C361 C 0.89696 0.37097 0.64832 0.0
O362 O 0.89012 0.37484 0.62806 0.0
H363 H 0.85271 0.36183 0.60302 0.0
H364 H 0.8858 0.29933 0.61662 0.0
O365 O 0.82551 0.34242 0.65367 0.0
H366 H 0.8672 0.26155 0.68034 0.0
H367 H 0.88419 0.30434 0.57373 0.0
Cu368 Cu 0.39869 0.74353 0.13084 0.0
N369 N 0.41154 0.76313 0.15061 0.0
N370 N 0.42158 0.77519 0.18375 0.0
C371 C 0.41422 0.75827 0.17191 0.0
C372 C 0.42365 0.79144 0.16916 0.0
C373 C 0.41745 0.78395 0.14872 0.0
O374 O 0.42 0.71672 0.13536 0.0
C375 C 0.35048 0.76127 0.13616 0.0
O376 O 0.3628 0.77788 0.12955 0.0
H377 H 0.40965 0.74279 0.17867 0.0
H378 H 0.41646 0.79328 0.13378 0.0
N379 N 0.40026 0.75117 0.10127 0.0
N380 N 0.39382 0.7484 0.0653 0.0
C381 C 0.38827 0.74089 0.0853 0.0
C382 C 0.41383 0.76584 0.09106 0.0
C383 C 0.40994 0.76413 0.06888 0.0
C384 C 0.44303 0.7179 0.12933 0.0
O385 O 0.44922 0.73569 0.11943 0.0
H386 H 0.37643 0.72755 0.08834 0.0
H387 H 0.42627 0.77655 0.09907 0.0
O388 O 0.36277 0.74274 0.13799 0.0
H389 H 0.42883 0.80769 0.17298 0.0
H390 H 0.41853 0.77361 0.05638 0.0
Cu391 Cu 0.38261 0.81237 0.39738 0.0
N392 N 0.40017 0.79271 0.37855 0.0
N393 N 0.41478 0.78106 0.34602 0.0
C394 C 0.4007 0.79659 0.357 0.0
C395 C 0.42343 0.76663 0.3614 0.0
C396 C 0.41451 0.77395 0.38153 0.0
O397 O 0.39912 0.83922 0.39242 0.0
C398 C 0.33843 0.79324 0.38971 0.0
O399 O 0.35461 0.7764 0.39341 0.0
H400 H 0.39063 0.81063 0.34954 0.0
H401 H 0.41839 0.76626 0.39713 0.0
N402 N 0.3844 0.80619 0.42725 0.0
N403 N 0.37692 0.81257 0.4627 0.0
C404 C 0.37778 0.82123 0.44252 0.0
C405 C 0.38786 0.78719 0.43806 0.0
C406 C 0.38332 0.79109 0.45997 0.0
C407 C 0.42192 0.83847 0.3996 0.0
O408 O 0.43029 0.82141 0.4111 0.0
H409 H 0.37237 0.83807 0.4386 0.0
H410 H 0.39227 0.77152 0.43051 0.0
O411 O 0.34665 0.81224 0.38994 0.0
H412 H 0.43567 0.75207 0.35839 0.0
H413 H 0.38421 0.77897 0.47277 0.0
Cu414 Cu 0.19073 0.87439 0.87825 0.0
N415 N 0.22185 0.87722 0.86424 0.0
N416 N 0.2491 0.88122 0.83677 0.0
C417 C 0.22446 0.88049 0.84267 0.0
C418 C 0.26246 0.87828 0.85549 0.0
C419 C 0.24562 0.87576 0.87236 0.0
O420 O 0.16747 0.89781 0.86639 0.0
C421 C 0.1975 0.83073 0.88454 0.0
O422 O 0.2165 0.83823 0.89538 0.0
H423 H 0.20848 0.88234 0.83157 0.0
H424 H 0.25044 0.87269 0.88926 0.0
N425 N 0.19262 0.87778 0.90867 0.0
N426 N 0.18519 0.87083 0.94387 0.0
C427 C 0.1781 0.86765 0.92302 0.0
C428 C 0.20941 0.88793 0.92085 0.0
C429 C 0.20482 0.88375 0.94254 0.0
C430 C 0.17418 0.9168 0.87099 0.0
O431 O 0.19449 0.91837 0.88314 0.0
H432 H 0.16304 0.85764 0.9181 0.0
H433 H 0.22447 0.89713 0.91444 0.0
O434 O 0.1824 0.84414 0.87405 0.0
H435 H 0.28298 0.87744 0.85687 0.0
H436 H 0.21581 0.88909 0.95617 0.0
Cu437 Cu 0.11207 0.73971 0.40831 0.0
N438 N 0.09408 0.75978 0.39014 0.0
N439 N 0.08013 0.77241 0.35771 0.0
C440 C 0.09066 0.75522 0.36895 0.0
C441 C 0.07667 0.78855 0.37257 0.0
C442 C 0.08527 0.78069 0.39261 0.0
O443 O 0.09689 0.71252 0.40205 0.0
C444 C 0.15607 0.75977 0.40339 0.0
O445 O 0.14051 0.77536 0.41143 0.0
H446 H 0.09727 0.73982 0.36172 0.0
H447 H 0.08611 0.78989 0.40755 0.0
N448 N 0.10982 0.74476 0.43841 0.0
N449 N 0.11792 0.73859 0.47383 0.0
C450 C 0.12224 0.73175 0.45317 0.0
C451 C 0.09708 0.76051 0.45007 0.0
C452 C 0.10211 0.75677 0.47194 0.0
C453 C 0.07404 0.71203 0.4088 0.0
O454 O 0.06452 0.72823 0.42088 0.0
H455 H 0.13457 0.71766 0.44866 0.0
H456 H 0.08493 0.77368 0.44325 0.0
O457 O 0.14773 0.74104 0.40047 0.0
H458 H 0.06912 0.80501 0.36914 0.0
H459 H 0.09443 0.76654 0.48537 0.0
Cu460 Cu 0.29617 0.65116 0.88322 0.0
N461 N 0.30505 0.6525 0.85374 0.0
N462 N 0.29974 0.65304 0.81757 0.0
C463 C 0.28965 0.64815 0.837 0.0
C464 C 0.32233 0.66098 0.82221 0.0
C465 C 0.32554 0.66067 0.84455 0.0
O466 O 0.2936 0.62049 0.891 0.0
C467 C 0.25227 0.6771 0.90122 0.0
O468 O 0.25763 0.6688 0.92055 0.0
H469 H 0.2708 0.64261 0.83903 0.0
H470 H 0.34129 0.66671 0.85343 0.0
N471 N 0.32202 0.66186 0.90047 0.0
N472 N 0.34322 0.67826 0.92678 0.0
C473 C 0.32021 0.67557 0.9177 0.0
C474 C 0.34694 0.65564 0.89877 0.0
C475 C 0.36004 0.66577 0.91481 0.0
C476 C 0.27879 0.60771 0.88197 0.0
O477 O 0.26139 0.61574 0.86829 0.0
H478 H 0.30247 0.68332 0.92355 0.0
H479 H 0.35496 0.64407 0.88695 0.0
O480 O 0.26524 0.67039 0.8848 0.0
H481 H 0.33547 0.66675 0.81034 0.0
H482 H 0.38029 0.66346 0.91789 0.0
Cu483 Cu 0.11349 0.80323 0.14337 0.0
N484 N 0.09905 0.78423 0.16279 0.0
N485 N 0.08591 0.77359 0.19554 0.0
C486 C 0.0988 0.78811 0.18435 0.0
C487 C 0.0778 0.75983 0.1803 0.0
C488 C 0.08579 0.76655 0.16003 0.0
O489 O 0.09305 0.83049 0.1473 0.0
C490 C 0.16118 0.78454 0.15122 0.0
O491 O 0.14808 0.76742 0.1482 0.0
H492 H 0.1079 0.80155 0.1916 0.0
H493 H 0.08169 0.75937 0.14447 0.0
N494 N 0.11275 0.79608 0.11378 0.0
N495 N 0.12098 0.80096 0.07835 0.0
C496 C 0.11867 0.81028 0.09823 0.0
C497 C 0.1111 0.77696 0.10349 0.0
C498 C 0.116 0.77995 0.08158 0.0
C499 C 0.0703 0.82997 0.1403 0.0
O500 O 0.0641 0.81258 0.1297 0.0
H501 H 0.12206 0.82703 0.10176 0.0
H502 H 0.10793 0.76171 0.11144 0.0
O503 O 0.14943 0.80339 0.15063 0.0
H504 H 0.06631 0.74629 0.18345 0.0
H505 H 0.11714 0.76735 0.06927 0.0
Cu506 Cu 0.23852 0.63399 0.62276 0.0
N507 N 0.2702 0.64555 0.61908 0.0
N508 N 0.29888 0.67077 0.62032 0.0
C509 C 0.27397 0.66697 0.6187 0.0
C510 C 0.31126 0.65083 0.62172 0.0
C511 C 0.29356 0.63538 0.62115 0.0
O512 O 0.21426 0.6485 0.6025 0.0
C513 C 0.2411 0.62577 0.66729 0.0
O514 O 0.25431 0.60826 0.66032 0.0
H515 H 0.25854 0.67952 0.61886 0.0
H516 H 0.29741 0.61807 0.62357 0.0
N517 N 0.24009 0.60396 0.61666 0.0
N518 N 0.2318 0.56882 0.61763 0.0
C519 C 0.22399 0.58931 0.62367 0.0
C520 C 0.25825 0.59231 0.60536 0.0
C521 C 0.25335 0.57063 0.60615 0.0
C522 C 0.20395 0.66778 0.60426 0.0
O523 O 0.20828 0.67922 0.62176 0.0
H524 H 0.20745 0.59349 0.63369 0.0
H525 H 0.27411 0.59904 0.59726 0.0
O526 O 0.23073 0.63908 0.65346 0.0
H527 H 0.33156 0.64757 0.62388 0.0
H528 H 0.2647 0.5572 0.59883 0.0
Cu529 Cu 0.34301 0.88298 0.64703 0.0
N530 N 0.35845 0.85491 0.65002 0.0
N531 N 0.35958 0.81851 0.64769 0.0
C532 C 0.34721 0.83767 0.6421 0.0
C533 C 0.37981 0.82409 0.65953 0.0
C534 C 0.37902 0.8466 0.66099 0.0
O535 O 0.32762 0.88165 0.61808 0.0
C536 C 0.33064 0.88858 0.69 0.0
O537 O 0.35563 0.88779 0.69043 0.0
H538 H 0.32982 0.83939 0.63272 0.0
H539 H 0.39197 0.85611 0.66997 0.0
N540 N 0.36574 0.90508 0.64827 0.0
N541 N 0.37906 0.93856 0.65247 0.0
C542 C 0.35954 0.92568 0.6548 0.0
C543 C 0.39012 0.90482 0.64168 0.0
C544 C 0.39836 0.92551 0.64415 0.0
C545 C 0.33583 0.89177 0.60169 0.0
O546 O 0.34974 0.90833 0.60496 0.0
H547 H 0.34075 0.93126 0.66049 0.0
H548 H 0.4009 0.89074 0.63504 0.0
O549 O 0.31958 0.88701 0.67161 0.0
H550 H 0.3937 0.8128 0.66728 0.0
H551 H 0.41704 0.93055 0.64009 0.0
H552 H 0.13973 0.17647 0.70883 0.0
H553 H 0.12547 0.30566 0.72613 0.0
H554 H 0.11077 0.20688 0.76806 0.0
H555 H 0.14459 0.27488 0.66452 0.0
H556 H 0.12079 0.26983 0.74201 0.0
H557 H 0.14243 0.21235 0.69275 0.0
C558 C 0.13373 0.19057 0.7185 0.0
C559 C 0.12495 0.18835 0.73998 0.0
C560 C 0.12597 0.27093 0.725 0.0
C561 C 0.12842 0.22992 0.7215 0.0
C562 C 0.12854 0.29149 0.71582 0.0
C563 C 0.13551 0.29355 0.69382 0.0
C564 C 0.13046 0.25215 0.7122 0.0
C565 C 0.13956 0.2743 0.68156 0.0
C566 C 0.13543 0.21118 0.70926 0.0
C567 C 0.11793 0.20756 0.7516 0.0
N568 N 0.13703 0.25451 0.6909 0.0
N569 N 0.11986 0.22745 0.74225 0.0
H570 H 0.69645 0.64895 0.29071 0.0
H571 H 0.8346 0.65439 0.23828 0.0
H572 H 0.70989 0.65111 0.22139 0.0
H573 H 0.8214 0.64929 0.30744 0.0
H574 H 0.78886 0.65624 0.23203 0.0
H575 H 0.74162 0.65204 0.29716 0.0
C576 C 0.70888 0.65017 0.27678 0.0
C577 C 0.69931 0.64961 0.25542 0.0
C578 C 0.7959 0.65484 0.24859 0.0
C579 C 0.75136 0.65313 0.26281 0.0
C580 C 0.82208 0.65378 0.25223 0.0
C581 C 0.83193 0.65152 0.27346 0.0
C582 C 0.77927 0.65359 0.26629 0.0
C583 C 0.81468 0.65098 0.29082 0.0
C584 C 0.73475 0.65194 0.28053 0.0
C585 C 0.71641 0.65141 0.23811 0.0
N586 N 0.78918 0.65187 0.28683 0.0
N587 N 0.74164 0.65297 0.24219 0.0
H588 H 0.28911 0.30885 0.82686 0.0
H589 H 0.3809 0.23102 0.75165 0.0
H590 H 0.37072 0.3108 0.82427 0.0
H591 H 0.29934 0.22818 0.75246 0.0
H592 H 0.37709 0.26019 0.77853 0.0
H593 H 0.29201 0.27871 0.80062 0.0
C594 C 0.30765 0.30278 0.82101 0.0
C595 C 0.32971 0.31247 0.82772 0.0
C596 C 0.35996 0.25327 0.77283 0.0
C597 C 0.33314 0.27821 0.79744 0.0
C598 C 0.36216 0.23655 0.75747 0.0
C599 C 0.34045 0.22702 0.7498 0.0
C600 C 0.33584 0.26063 0.78075 0.0
C601 C 0.31659 0.23515 0.75773 0.0
C602 C 0.30928 0.2857 0.80587 0.0
C603 C 0.35319 0.30406 0.81935 0.0
N604 N 0.31493 0.2514 0.77284 0.0
N605 N 0.35427 0.28753 0.80466 0.0
H606 H 0.68775 0.89958 0.31488 0.0
H607 H 0.8028 0.89754 0.22881 0.0
H608 H 0.67806 0.89521 0.24522 0.0
H609 H 0.81203 0.90704 0.29796 0.0
H610 H 0.75746 0.89312 0.23486 0.0
H611 H 0.734 0.89851 0.30946 0.0
C612 C 0.69534 0.89815 0.2985 0.0
C613 C 0.67901 0.89768 0.28049 0.0
C614 C 0.76946 0.89609 0.24871 0.0
C615 C 0.73176 0.89658 0.27412 0.0
C616 C 0.79534 0.89861 0.24524 0.0
C617 C 0.81122 0.90284 0.26285 0.0
C618 C 0.75942 0.89777 0.26995 0.0
C619 C 0.80051 0.90397 0.28384 0.0
C620 C 0.72172 0.89764 0.29539 0.0
C621 C 0.68989 0.89585 0.2596 0.0
N622 N 0.77532 0.90154 0.28678 0.0
N623 N 0.7155 0.89548 0.257 0.0
H624 H 0.84785 0.18571 0.28527 0.0
H625 H 0.77194 0.0941 0.34508 0.0
H626 H 0.831 0.12509 0.25523 0.0
H627 H 0.77876 0.15859 0.37092 0.0
H628 H 0.79947 0.10291 0.31464 0.0
H629 H 0.82846 0.17382 0.31913 0.0
C630 C 0.84038 0.16979 0.28585 0.0
C631 C 0.84084 0.1565 0.26725 0.0
C632 C 0.79517 0.11505 0.32711 0.0
C633 C 0.81843 0.14278 0.306 0.0
C634 C 0.77957 0.10996 0.34461 0.0
C635 C 0.77281 0.12565 0.36057 0.0
C636 C 0.80421 0.13595 0.32557 0.0
C637 C 0.78326 0.146 0.35895 0.0
C638 C 0.82916 0.16305 0.30517 0.0
C639 C 0.83066 0.13607 0.269 0.0
N640 N 0.79824 0.15059 0.34173 0.0
N641 N 0.8198 0.1299 0.28793 0.0
H642 H 0.85931 0.25724 0.71688 0.0
H643 H 0.90408 0.29855 0.83367 0.0
H644 H 0.89884 0.3156 0.72612 0.0
H645 H 0.8719 0.23683 0.82337 0.0
H646 H 0.90106 0.30563 0.79457 0.0
H647 H 0.86291 0.24991 0.75585 0.0
C648 C 0.86893 0.26847 0.72696 0.0
C649 C 0.87873 0.28715 0.71795 0.0
C650 C 0.89463 0.29054 0.80088 0.0
C651 C 0.88257 0.27892 0.76301 0.0
C652 C 0.89642 0.28643 0.82327 0.0
C653 C 0.88828 0.26701 0.83207 0.0
C654 C 0.88457 0.27517 0.787 0.0
C655 C 0.87815 0.25214 0.8176 0.0
C656 C 0.87083 0.26431 0.74934 0.0
C657 C 0.89065 0.30117 0.73219 0.0
N658 N 0.87663 0.25652 0.79586 0.0
N659 N 0.89217 0.2968 0.75393 0.0
H660 H 0.72414 0.37019 0.3718 0.0
H661 H 0.69056 0.41819 0.25326 0.0
H662 H 0.7592 0.42489 0.34359 0.0
H663 H 0.66173 0.35933 0.27842 0.0
H664 H 0.71067 0.42408 0.28838 0.0
H665 H 0.69592 0.36953 0.34026 0.0
C666 C 0.72563 0.38234 0.35918 0.0
C667 C 0.7443 0.39752 0.36033 0.0
C668 C 0.69979 0.40995 0.28631 0.0
C669 C 0.71207 0.39666 0.32394 0.0
C670 C 0.68838 0.40651 0.26619 0.0
C671 C 0.67474 0.38801 0.26269 0.0
C672 C 0.69766 0.3948 0.3032 0.0
C673 C 0.67203 0.37378 0.28031 0.0
C674 C 0.70955 0.38186 0.34108 0.0
C675 C 0.74522 0.41283 0.34341 0.0
N676 N 0.6836 0.37736 0.29971 0.0
N677 N 0.72954 0.41186 0.32585 0.0
H678 H 0.6241 0.2348 0.73474 0.0
H679 H 0.70048 0.29518 0.82712 0.0
H680 H 0.70536 0.2246 0.74312 0.0
H681 H 0.61876 0.30038 0.82054 0.0
H682 H 0.70333 0.27078 0.7955 0.0
H683 H 0.62231 0.25972 0.76562 0.0
C684 C 0.6416 0.23781 0.7431 0.0
C685 C 0.66492 0.22764 0.73625 0.0
C686 C 0.68479 0.27733 0.80095 0.0
C687 C 0.66306 0.25628 0.77182 0.0
C688 C 0.68317 0.29143 0.81887 0.0
C689 C 0.65931 0.29981 0.82654 0.0
C690 C 0.66241 0.27167 0.79054 0.0
C691 C 0.6375 0.29411 0.81537 0.0
C692 C 0.64057 0.25202 0.7608 0.0
C693 C 0.68695 0.23192 0.74795 0.0
N694 N 0.63958 0.28042 0.79802 0.0
N695 N 0.68551 0.24601 0.7651 0.0
H696 H 0.32186 0.79985 0.13734 0.0
H697 H 0.19004 0.74638 0.15669 0.0
H698 H 0.31625 0.7308 0.14624 0.0
H699 H 0.19642 0.81548 0.14925 0.0
H700 H 0.23627 0.74059 0.15544 0.0
H701 H 0.27639 0.80591 0.14388 0.0
C702 C 0.31108 0.7859 0.14072 0.0
C703 C 0.32294 0.76472 0.14108 0.0
C704 C 0.22763 0.75704 0.15424 0.0
C705 C 0.27051 0.77166 0.14862 0.0
C706 C 0.20117 0.7604 0.15497 0.0
C707 C 0.18927 0.78148 0.15291 0.0
C708 C 0.24243 0.77486 0.15132 0.0
C709 C 0.20475 0.79897 0.15086 0.0
C710 C 0.28503 0.78943 0.14451 0.0
C711 C 0.30791 0.74738 0.14573 0.0
N712 N 0.23052 0.79525 0.14994 0.0
N713 N 0.28243 0.75123 0.14919 0.0
H714 H 0.297 0.82323 0.39178 0.0
H715 H 0.19611 0.73132 0.39048 0.0
H716 H 0.31749 0.75468 0.38289 0.0
H717 H 0.17653 0.79915 0.40452 0.0
H718 H 0.24016 0.74006 0.38385 0.0
H719 H 0.252 0.81533 0.39235 0.0
C720 C 0.29204 0.80659 0.38967 0.0
C721 C 0.31104 0.7896 0.38749 0.0
C722 C 0.22616 0.75303 0.38828 0.0
C723 C 0.25971 0.78038 0.38828 0.0
C724 C 0.20102 0.74803 0.39206 0.0
C725 C 0.18263 0.76446 0.39824 0.0
C726 C 0.23291 0.77463 0.39065 0.0
C727 C 0.19008 0.78588 0.39998 0.0
C728 C 0.26637 0.80205 0.39011 0.0
C729 C 0.3035 0.7683 0.38485 0.0
N730 N 0.21459 0.79031 0.39629 0.0
N731 N 0.2785 0.7643 0.38546 0.0
H732 H 0.19166 0.80106 0.85166 0.0
H733 H 0.22898 0.70239 0.9334 0.0
H734 H 0.19707 0.80708 0.9214 0.0
H735 H 0.23607 0.6976 0.86348 0.0
H736 H 0.20706 0.73851 0.92905 0.0
H737 H 0.19758 0.76117 0.85552 0.0
C738 C 0.19322 0.79393 0.86779 0.0
C739 C 0.19395 0.80724 0.88624 0.0
C740 C 0.21308 0.72942 0.91463 0.0
C741 C 0.20113 0.76195 0.89081 0.0
C742 C 0.22553 0.70872 0.91711 0.0
C743 C 0.23479 0.69702 0.89882 0.0
C744 C 0.20986 0.73857 0.8937 0.0
C745 C 0.2296 0.70613 0.8781 0.0
C746 C 0.19686 0.77122 0.87 0.0
C747 C 0.19651 0.79729 0.90677 0.0
N748 N 0.21781 0.72643 0.87612 0.0
N749 N 0.20024 0.77531 0.90849 0.0
H750 H 0.34464 0.67942 0.63832 0.0
H751 H 0.31282 0.80785 0.63364 0.0
H752 H 0.27737 0.71043 0.60813 0.0
H753 H 0.38735 0.77928 0.6513 0.0
H754 H 0.29954 0.772 0.62564 0.0
H755 H 0.36061 0.71526 0.64416 0.0
C756 C 0.33326 0.69364 0.63271 0.0
C757 C 0.30941 0.69172 0.62282 0.0
C758 C 0.31886 0.77352 0.63116 0.0
C759 C 0.32758 0.73296 0.62983 0.0
C760 C 0.32664 0.79418 0.63568 0.0
C761 C 0.35151 0.79696 0.64305 0.0
C762 C 0.33584 0.75517 0.63416 0.0
C763 C 0.368 0.77812 0.6458 0.0
C764 C 0.3424 0.71416 0.63618 0.0
C765 C 0.29557 0.71095 0.61618 0.0
N766 N 0.35986 0.75805 0.64141 0.0
N767 N 0.30478 0.73067 0.61991 0.0
H768 H 0.91646 0.82836 0.30682 0.0
H769 H 0.93608 0.7211 0.23296 0.0
H770 H 0.92745 0.83014 0.23717 0.0
H771 H 0.92792 0.72027 0.30289 0.0
H772 H 0.93544 0.76094 0.23417 0.0
H773 H 0.92311 0.78876 0.30577 0.0
C774 C 0.92051 0.82052 0.29132 0.0
C775 C 0.92113 0.83277 0.27203 0.0
C776 C 0.93388 0.752 0.24925 0.0
C777 C 0.92848 0.78713 0.27067 0.0
C778 C 0.93437 0.72923 0.24857 0.0
C779 C 0.93172 0.71724 0.26781 0.0
C780 C 0.93077 0.76289 0.26932 0.0
C781 C 0.92942 0.72876 0.28757 0.0
C782 C 0.92417 0.79781 0.29071 0.0
C783 C 0.92626 0.82147 0.25241 0.0
N784 N 0.92888 0.75086 0.28779 0.0
N785 N 0.92959 0.79934 0.25223 0.0
H786 H 0.16907 0.40253 0.7472 0.0
H787 H 0.31728 0.39209 0.7793 0.0
H788 H 0.22846 0.37699 0.70391 0.0
H789 H 0.25786 0.42033 0.82102 0.0
H790 H 0.28558 0.38882 0.75033 0.0
H791 H 0.20169 0.41083 0.77381 0.0
C792 C 0.18892 0.39867 0.74328 0.0
C793 C 0.19597 0.38894 0.72333 0.0
C794 C 0.27956 0.39596 0.76576 0.0
C795 C 0.23349 0.39846 0.75366 0.0
C796 C 0.29771 0.39798 0.78222 0.0
C797 C 0.29019 0.40634 0.80265 0.0
C798 C 0.25377 0.40232 0.76982 0.0
C799 C 0.2645 0.41357 0.80559 0.0
C800 C 0.20758 0.40347 0.75845 0.0
C801 C 0.22206 0.38441 0.71911 0.0
N802 N 0.24724 0.41122 0.78948 0.0
N803 N 0.23981 0.38912 0.73414 0.0
H804 H 0.58511 0.82909 0.23016 0.0
H805 H 0.58362 0.71796 0.29859 0.0
H806 H 0.57625 0.82695 0.29999 0.0
H807 H 0.59526 0.72057 0.2291 0.0
H808 H 0.5778 0.75781 0.29923 0.0
H809 H 0.58569 0.78936 0.22919 0.0
C810 C 0.58304 0.82034 0.24527 0.0
C811 C 0.58085 0.8315 0.26521 0.0
C812 C 0.58157 0.74964 0.28383 0.0
C813 C 0.58176 0.7858 0.26425 0.0
C814 C 0.58477 0.72686 0.28345 0.0
C815 C 0.59022 0.71581 0.26381 0.0
C816 C 0.58372 0.76152 0.2644 0.0
C817 C 0.59164 0.7283 0.24471 0.0
C818 C 0.58353 0.79759 0.24473 0.0
C819 C 0.57847 0.81912 0.28428 0.0
N820 N 0.58849 0.7504 0.2455 0.0
N821 N 0.57908 0.797 0.28334 0.0
H822 H 0.31354 0.09574 0.76079 0.0
H823 H 0.20688 0.17426 0.8142 0.0
H824 H 0.327 0.16118 0.78 0.0
H825 H 0.20237 0.10464 0.81053 0.0
H826 H 0.25236 0.16932 0.80589 0.0
H827 H 0.27516 0.09755 0.78324 0.0
C828 C 0.30885 0.11022 0.77043 0.0
C829 C 0.32356 0.12823 0.76878 0.0
C830 C 0.24153 0.15509 0.80732 0.0
C831 C 0.27889 0.13092 0.79366 0.0
C832 C 0.2155 0.1579 0.81206 0.0
C833 C 0.20059 0.13987 0.81277 0.0
C834 C 0.25273 0.13413 0.80296 0.0
C835 C 0.21296 0.11907 0.80996 0.0
C836 C 0.2868 0.11135 0.7831 0.0
C837 C 0.31638 0.1468 0.78117 0.0
N838 N 0.23813 0.11682 0.80482 0.0
N839 N 0.29422 0.14786 0.79272 0.0
H840 H 0.34868 0.9011 0.72907 0.0
H841 H 0.22656 0.87256 0.79794 0.0
H842 H 0.28075 0.87994 0.69881 0.0
H843 H 0.2946 0.89628 0.82569 0.0
H844 H 0.24456 0.87655 0.76152 0.0
H845 H 0.32772 0.90098 0.76428 0.0
C846 C 0.32923 0.8965 0.7298 0.0
C847 C 0.31654 0.89036 0.71091 0.0
C848 C 0.25548 0.88095 0.7756 0.0
C849 C 0.29227 0.89003 0.75157 0.0
C850 C 0.24517 0.87877 0.79645 0.0
C851 C 0.2591 0.88399 0.81507 0.0
C852 C 0.27991 0.88842 0.77329 0.0
C853 C 0.28328 0.8917 0.81197 0.0
C854 C 0.31724 0.89644 0.75 0.0
C855 C 0.29125 0.88478 0.71294 0.0
N856 N 0.29287 0.89362 0.79156 0.0
N857 N 0.27999 0.88457 0.73297 0.0
H858 H 0.08009 0.80829 0.33166 0.0
H859 H 0.07683 0.73887 0.22123 0.0
H860 H 0.07225 0.73904 0.33012 0.0
H861 H 0.08472 0.8081 0.22324 0.0
H862 H 0.07187 0.73893 0.26092 0.0
H863 H 0.07832 0.80898 0.29185 0.0
C864 C 0.07768 0.79327 0.32301 0.0
C865 C 0.0766 0.77354 0.33435 0.0
C866 C 0.07461 0.75412 0.25265 0.0
C867 C 0.0749 0.77414 0.2886 0.0
C868 C 0.07733 0.7541 0.22995 0.0
C869 C 0.08154 0.77344 0.21881 0.0
C870 C 0.07601 0.77365 0.26434 0.0
C871 C 0.08213 0.79269 0.23108 0.0
C872 C 0.07685 0.79363 0.30023 0.0
C873 C 0.07369 0.75456 0.32212 0.0
N874 N 0.07952 0.79228 0.25311 0.0
N875 N 0.0731 0.75531 0.29997 0.0
H876 H 0.30386 0.67896 0.7821 0.0
H877 H 0.24184 0.59796 0.70162 0.0
H878 H 0.26928 0.6218 0.80493 0.0
H879 H 0.24535 0.66588 0.68571 0.0
H880 H 0.25291 0.60591 0.73935 0.0
H881 H 0.28465 0.67404 0.74613 0.0
C882 C 0.29225 0.66538 0.77952 0.0
C883 C 0.28824 0.6507 0.79646 0.0
C884 C 0.25084 0.61916 0.72772 0.0
C885 C 0.26626 0.64497 0.7555 0.0
C886 C 0.24445 0.61464 0.70623 0.0
C887 C 0.24257 0.63131 0.69062 0.0
C888 C 0.25611 0.64042 0.73353 0.0
C889 C 0.24635 0.65262 0.69735 0.0
C890 C 0.2811 0.6627 0.75909 0.0
C891 C 0.27274 0.63354 0.79235 0.0
N892 N 0.25341 0.65653 0.71826 0.0
N893 N 0.26256 0.63101 0.77223 0.0
H894 H 0.41451 0.81543 0.31823 0.0
H895 H 0.43193 0.74115 0.21149 0.0
H896 H 0.42522 0.74534 0.32042 0.0
H897 H 0.41714 0.81099 0.20998 0.0
H898 H 0.43276 0.74245 0.25125 0.0
H899 H 0.41869 0.81415 0.27872 0.0
C900 C 0.41767 0.79972 0.31042 0.0
C901 C 0.41914 0.78042 0.32276 0.0
C902 C 0.42944 0.7575 0.24222 0.0
C903 C 0.42424 0.77886 0.27722 0.0
C904 C 0.42884 0.75679 0.21946 0.0
C905 C 0.42417 0.77598 0.20721 0.0
C906 C 0.42536 0.77757 0.25297 0.0
C907 C 0.42091 0.79578 0.21859 0.0
C908 C 0.4202 0.79902 0.28779 0.0
C909 C 0.42398 0.76062 0.31164 0.0
N910 N 0.4214 0.79603 0.24077 0.0
N911 N 0.42617 0.76034 0.28951 0.0
H912 H 0.67499 0.26037 0.88943 0.0
H913 H 0.80287 0.22256 0.88191 0.0
H914 H 0.69747 0.27586 0.95478 0.0
H915 H 0.79768 0.20902 0.9507 0.0
H916 H 0.75799 0.23613 0.8821 0.0
H917 H 0.71339 0.23533 0.88617 0.0
C918 C 0.68756 0.25791 0.90333 0.0
C919 C 0.68306 0.27006 0.92246 0.0
C920 C 0.76645 0.2296 0.89701 0.0
C921 C 0.72723 0.24211 0.91867 0.0
C922 C 0.79217 0.22195 0.89693 0.0
C923 C 0.80421 0.21471 0.91633 0.0
C924 C 0.75275 0.2303 0.91669 0.0
C925 C 0.78933 0.21444 0.93534 0.0
C926 C 0.7097 0.24396 0.90133 0.0
C927 C 0.70024 0.26671 0.9398 0.0
N928 N 0.76462 0.22255 0.93512 0.0
N929 N 0.72156 0.25311 0.93748 0.0
H930 H 0.79301 0.32453 0.67769 0.0
H931 H 0.67278 0.27353 0.62246 0.0
H932 H 0.76551 0.34237 0.61339 0.0
H933 H 0.71488 0.24642 0.67753 0.0
H934 H 0.69906 0.30519 0.62341 0.0
H935 H 0.75629 0.30297 0.68264 0.0
C936 C 0.77895 0.32439 0.66481 0.0
C937 C 0.78267 0.33498 0.64493 0.0
C938 C 0.70219 0.29244 0.63548 0.0
C939 C 0.7407 0.30997 0.65037 0.0
C940 C 0.68717 0.27448 0.63496 0.0
C941 C 0.692 0.2573 0.64973 0.0
C942 C 0.72174 0.29321 0.65109 0.0
C943 C 0.71087 0.25921 0.66562 0.0
C944 C 0.75805 0.31191 0.66758 0.0
C945 C 0.76366 0.33419 0.62887 0.0
N946 N 0.72509 0.27671 0.66581 0.0
N947 N 0.74372 0.3216 0.63179 0.0
H948 H 0.74904 0.33938 0.17213 0.0
H949 H 0.76644 0.20846 0.17405 0.0
H950 H 0.68608 0.29823 0.17066 0.0
H951 H 0.82837 0.2506 0.17772 0.0
H952 H 0.73654 0.2409 0.17099 0.0
H953 H 0.77848 0.30673 0.17228 0.0
C954 C 0.7414 0.32351 0.17173 0.0
C955 C 0.71503 0.3216 0.17147 0.0
C956 C 0.75671 0.24297 0.17241 0.0
C957 C 0.74862 0.28407 0.17172 0.0
C958 C 0.77375 0.22446 0.17414 0.0
C959 C 0.79995 0.22675 0.17626 0.0
C960 C 0.76597 0.26388 0.17275 0.0
C961 C 0.80835 0.24793 0.17625 0.0
C962 C 0.75821 0.30484 0.17185 0.0
C963 C 0.70625 0.30055 0.17096 0.0
N964 N 0.79148 0.26558 0.17458 0.0
N965 N 0.72296 0.28265 0.17116 0.0
H966 H 0.81579 0.30578 0.39713 0.0
H967 H 0.69943 0.23962 0.35638 0.0
H968 H 0.77757 0.31928 0.33599 0.0
H969 H 0.751 0.21754 0.40766 0.0
H970 H 0.7255 0.27058 0.34994 0.0
H971 H 0.7904 0.27444 0.40233 0.0
C972 C 0.80218 0.30196 0.38473 0.0
C973 C 0.79887 0.315 0.36609 0.0
C974 C 0.73108 0.2589 0.36256 0.0
C975 C 0.76941 0.27944 0.37199 0.0
C976 C 0.71611 0.24139 0.36635 0.0
C977 C 0.72316 0.22597 0.38249 0.0
C978 C 0.75301 0.26109 0.37523 0.0
C979 C 0.74509 0.22888 0.39485 0.0
C980 C 0.78768 0.28412 0.38767 0.0
C981 C 0.78097 0.30943 0.35045 0.0
N982 N 0.75916 0.24608 0.39101 0.0
N983 N 0.76673 0.29215 0.35383 0.0
H984 H 0.25601 0.53131 0.63175 0.0
H985 H 0.1396 0.45881 0.61661 0.0
H986 H 0.18186 0.56102 0.61568 0.0
H987 H 0.19482 0.44466 0.66738 0.0
H988 H 0.15737 0.49427 0.61077 0.0
H989 H 0.23667 0.49704 0.63985 0.0
C990 C 0.23564 0.53054 0.62993 0.0
C991 C 0.22045 0.54892 0.62307 0.0
C992 C 0.16549 0.48341 0.62323 0.0
C993 C 0.19833 0.50983 0.63186 0.0
C994 C 0.1555 0.4632 0.62646 0.0
C995 C 0.16581 0.44888 0.64249 0.0
C996 C 0.1864 0.48904 0.63569 0.0
C997 C 0.18629 0.45534 0.65497 0.0
C998 C 0.22464 0.51109 0.63464 0.0
C999 C 0.19413 0.54719 0.62106 0.0
N1000 N 0.19615 0.47483 0.65112 0.0
N1001 N 0.1839 0.52788 0.62515 0.0
H1002 H 0.4927 0.71579 0.11666 0.0
H1003 H 0.53705 0.62441 0.20375 0.0
H1004 H 0.44062 0.683 0.15734 0.0
H1005 H 0.58824 0.66653 0.17269 0.0
H1006 H 0.50224 0.64051 0.18152 0.0
H1007 H 0.52798 0.69273 0.13165 0.0
C1008 C 0.48859 0.70354 0.12857 0.0
C1009 C 0.46361 0.70153 0.13595 0.0
C1010 C 0.52112 0.64607 0.17938 0.0
C1011 C 0.50418 0.67505 0.15327 0.0
C1012 C 0.5411 0.63685 0.19203 0.0
C1013 C 0.56562 0.64431 0.1903 0.0
C1014 C 0.52561 0.6629 0.16479 0.0
C1015 C 0.56965 0.66034 0.17467 0.0
C1016 C 0.50883 0.6904 0.13715 0.0
C1017 C 0.45955 0.6852 0.15125 0.0
N1018 N 0.54978 0.66925 0.16266 0.0
N1019 N 0.47967 0.67272 0.15957 0.0
H1020 H 0.40446 0.96897 0.63102 0.0
H1021 H 0.35822 0.06599 0.71147 0.0
H1022 H 0.35294 0.96078 0.68444 0.0
H1023 H 0.38611 0.07736 0.64675 0.0
H1024 H 0.36083 0.02681 0.70399 0.0
H1025 H 0.40274 1.00817 0.63868 0.0
C1026 C 0.39294 0.9754 0.64445 0.0
C1027 C 0.37878 0.96158 0.65709 0.0
C1028 C 0.36636 0.03787 0.69141 0.0
C1029 C 0.37676 1.00639 0.66599 0.0
C1030 C 0.36503 0.06022 0.69572 0.0
C1031 C 0.37197 0.07498 0.67971 0.0
C1032 C 0.37508 0.03011 0.67103 0.0
C1033 C 0.38036 0.06658 0.65947 0.0
C1034 C 0.39182 0.99778 0.64872 0.0
C1035 C 0.36393 0.97085 0.67416 0.0
N1036 N 0.38184 0.04472 0.65576 0.0
N1037 N 0.36342 0.99262 0.67817 0.0
H1038 H 0.07343 0.86537 0.16738 0.0
H1039 H 0.92294 0.88157 0.18186 0.0
H1040 H 0.02035 0.83198 0.12825 0.0
H1041 H 0.97567 0.92234 0.21285 0.0
H1042 H 0.95796 0.86544 0.15951 0.0
H1043 H 0.03777 0.8887 0.18185 0.0
C1044 C 0.05437 0.86316 0.16158 0.0
C1045 C 0.04988 0.84652 0.14678 0.0
C1046 C 0.96177 0.87815 0.171 0.0
C1047 C 0.00893 0.87293 0.16346 0.0
C1048 C 0.94174 0.8874 0.18369 0.0
C1049 C 0.94642 0.90312 0.19944 0.0
C1050 C 0.98663 0.88457 0.17421 0.0
C1051 C 0.97121 0.91005 0.20112 0.0
C1052 C 0.03397 0.87645 0.16988 0.0
C1053 C 0.02473 0.84443 0.13982 0.0
N1054 N 0.99039 0.90055 0.18891 0.0
N1055 N 1.00521 0.85726 0.14842 0.0
H1056 H 0.14313 0.92285 0.83456 0.0
H1057 H 0.13802 0.0531 0.84635 0.0
H1058 H 0.17596 0.95741 0.8875 0.0
H1059 H 0.10912 0.02146 0.78972 0.0
H1060 H 0.14896 1.01761 0.86252 0.0
H1061 H 0.12684 0.95811 0.81896 0.0
C1062 C 0.14658 0.93777 0.84305 0.0
C1063 C 0.16106 0.93717 0.86229 0.0
C1064 C 0.1402 1.01834 0.84654 0.0
C1065 C 0.14274 0.97741 0.84456 0.0
C1066 C 0.13409 0.03872 0.83719 0.0
C1067 C 0.12282 0.04045 0.81647 0.0
C1068 C 0.13511 0.9993 0.83519 0.0
C1069 C 0.11766 0.02102 0.80575 0.0
C1070 C 0.13744 0.95788 0.83409 0.0
C1071 C 0.16511 0.95702 0.87253 0.0
N1072 N 0.12395 1.00127 0.81517 0.0
N1073 N 0.15613 0.97619 0.86354 0.0
H1074 H 0.9986 0.62514 0.32434 0.0
H1075 H 0.02495 0.70738 0.42094 0.0
H1076 H 0.93922 0.66334 0.35835 0.0
H1077 H 0.0832 0.6806 0.37719 0.0
H1078 H 0.99419 0.68553 0.40314 0.0
H1079 H 0.03008 0.6395 0.34849 0.0
C1080 C 0.99209 0.63635 0.33708 0.0
C1081 C 0.96617 0.64325 0.33913 0.0
C1082 C 0.01374 0.68424 0.39758 0.0
C1083 C 1.00235 0.65982 0.36687 0.0
C1084 C 0.03141 0.69667 0.40777 0.0
C1085 C 0.05671 0.69604 0.40039 0.0
C1086 C 0.02135 0.67098 0.37986 0.0
C1087 C 0.06391 0.68169 0.38337 0.0
C1088 C 0.01015 0.64458 0.35083 0.0
C1089 C 0.95897 0.65766 0.35609 0.0
N1090 N 0.04625 0.66988 0.37355 0.0
N1091 N 0.977 0.66562 0.36919 0.0
H1092 H 0.31055 0.58486 0.91095 0.0
H1093 H 0.29905 0.47073 0.85123 0.0
H1094 H 0.25822 0.57564 0.8582 0.0
H1095 H 0.33368 0.47554 0.91454 0.0
H1096 H 0.286 0.50962 0.85262 0.0
H1097 H 0.32088 0.54538 0.91205 0.0
C1098 C 0.30105 0.57456 0.89974 0.0
C1099 C 0.28347 0.58368 0.88445 0.0
C1100 C 0.29637 0.50219 0.86627 0.0
C1101 C 0.29555 0.53844 0.8854 0.0
C1102 C 0.304 0.47999 0.86541 0.0
C1103 C 0.3176 0.46983 0.88276 0.0
C1104 C 0.30262 0.51454 0.88449 0.0
C1105 C 0.32311 0.48265 0.90087 0.0
C1106 C 0.30698 0.552 0.90037 0.0
C1107 C 0.27182 0.56944 0.87031 0.0
N1108 N 0.3158 0.50435 0.9012 0.0
N1109 N 0.27824 0.54763 0.87099 0.0
H1110 H 0.41558 0.87114 0.36888 0.0
H1111 H 0.56505 0.883 0.35922 0.0
H1112 H 0.47082 0.84076 0.41339 0.0
H1113 H 0.50879 0.92119 0.32157 0.0
H1114 H 0.5307 0.86954 0.38131 0.0
H1115 H 0.44908 0.89203 0.35331 0.0
C1116 C 0.43461 0.86914 0.37563 0.0
C1117 C 0.44042 0.854 0.3923 0.0
C1118 C 0.52592 0.88109 0.36837 0.0
C1119 C 0.47895 0.87756 0.37437 0.0
C1120 C 0.54556 0.88881 0.3558 0.0
C1121 C 0.53982 0.90305 0.33836 0.0
C1122 C 0.5004 0.88755 0.36334 0.0
C1123 C 0.51416 0.91002 0.33468 0.0
C1124 C 0.45378 0.881 0.36669 0.0
C1125 C 0.46548 0.85206 0.40038 0.0
N1126 N 0.49544 0.90203 0.34686 0.0
N1127 N 0.48383 0.86346 0.39118 0.0
H1128 H 0.66812 0.13452 0.57831 0.0
H1129 H 0.73335 0.18606 0.47426 0.0
H1130 H 0.69192 0.20006 0.57645 0.0
H1131 H 0.6939 0.1271 0.47084 0.0
H1132 H 0.72206 0.18952 0.5127 0.0
H1133 H 0.68082 0.12982 0.54012 0.0
C1134 C 0.67613 0.1479 0.56994 0.0
C1135 C 0.67895 0.16774 0.58072 0.0
C1136 C 0.71591 0.17578 0.5036 0.0
C1137 C 0.69357 0.16242 0.53682 0.0
C1138 C 0.72248 0.1737 0.48159 0.0
C1139 C 0.71458 0.15623 0.46914 0.0
C1140 C 0.70145 0.16022 0.51349 0.0
C1141 C 0.70043 0.14083 0.47972 0.0
C1142 C 0.68325 0.14523 0.54806 0.0
C1143 C 0.68914 0.18458 0.56883 0.0
N1144 N 0.69434 0.14317 0.50124 0.0
N1145 N 0.69617 0.1815 0.54763 0.0
H1146 H 0.84435 0.20832 0.10564 0.0
H1147 H 0.91608 0.19993 0.99064 0.0
H1148 H 0.91937 0.17628 0.09861 0.0
H1149 H 0.85557 0.2486 1.00522 0.0
H1150 H 0.91527 0.18762 0.02879 0.0
H1151 H 0.84569 0.21976 0.06749 0.0
C1152 C 0.86105 0.20357 0.09603 0.0
C1153 C 0.88177 0.1913 0.10538 0.0
C1154 C 0.90224 0.20104 0.02361 0.0
C1155 C 0.88345 0.20436 0.06153 0.0
C1156 C 0.90262 0.20798 1.00184 0.0
C1157 C 0.886 0.22542 0.99473 0.0
C1158 C 0.88479 0.21134 0.0383 0.0
C1159 C 0.86899 0.23533 1.01 0.0
C1160 C 0.86188 0.21023 0.07427 0.0
C1161 C 0.90308 0.18588 0.09214 0.0
N1162 N 0.86873 0.22809 0.03094 0.0
N1163 N 0.90331 0.19232 0.07088 0.0
H1164 H 0.85798 0.31443 0.54381 0.0
H1165 H 0.83355 0.42219 0.47108 0.0
H1166 H 0.86075 0.37936 0.56966 0.0
H1167 H 0.82197 0.35751 0.44781 0.0
H1168 H 0.84402 0.40696 0.50711 0.0
H1169 H 0.84603 0.32996 0.50834 0.0
C1170 C 0.85629 0.33196 0.54205 0.0
C1171 C 0.86049 0.34556 0.55988 0.0
C1172 C 0.83908 0.39611 0.49415 0.0
C1173 C 0.84644 0.36356 0.5191 0.0
C1174 C 0.83305 0.4048 0.47355 0.0
C1175 C 0.82686 0.39115 0.45629 0.0
C1176 C 0.83914 0.37353 0.49759 0.0
C1177 C 0.82656 0.36873 0.46056 0.0
C1178 C 0.84923 0.34084 0.52176 0.0
C1179 C 0.8575 0.3682 0.55652 0.0
N1180 N 0.83274 0.36064 0.48069 0.0
N1181 N 0.85075 0.37646 0.53657 0.0
H1182 H 0.65191 0.32449 0.99045 0.0
H1183 H 0.60513 0.39778 0.09224 0.0
H1184 H 0.61579 0.38916 0.98332 0.0
H1185 H 0.66492 0.34644 0.09739 0.0
H1186 H 0.60404 0.3921 0.05272 0.0
H1187 H 0.65224 0.32952 0.03012 0.0
C1188 C 0.64392 0.33969 0.99725 0.0
C1189 C 0.63384 0.35645 0.98355 0.0
C1190 C 0.61738 0.38206 0.0625 0.0
C1191 C 0.63402 0.36228 0.02891 0.0
C1192 C 0.61788 0.38519 0.08507 0.0
C1193 C 0.63515 0.37256 0.09814 0.0
C1194 C 0.63398 0.36593 0.0529 0.0
C1195 C 0.65147 0.35665 0.0879 0.0
C1196 C 0.64426 0.34261 1.01986 0.0
C1197 C 0.62397 0.37592 0.99324 0.0
N1198 N 0.65039 0.3537 0.06593 0.0
N1199 N 0.62416 0.37825 1.01531 0.0
H1200 H 0.88186 0.54244 0.27363 0.0
H1201 H 0.89846 0.46799 0.38055 0.0
H1202 H 0.92142 0.56106 0.33145 0.0
H1203 H 0.84496 0.45579 0.32956 0.0
H1204 H 0.90998 0.50043 0.3611 0.0
H1205 H 0.87131 0.50884 0.29201 0.0
C1206 C 0.88855 0.53937 0.2901 0.0
C1207 C 0.90251 0.55464 0.30104 0.0
C1208 C 0.8957 0.49069 0.35413 0.0
C1209 C 0.89038 0.51629 0.32221 0.0
C1210 C 0.88921 0.47206 0.36518 0.0
C1211 C 0.87074 0.45906 0.35667 0.0
C1212 C 0.88384 0.49641 0.33423 0.0
C1213 C 0.85912 0.46542 0.33682 0.0
C1214 C 0.88234 0.52028 0.30065 0.0
C1215 C 0.91039 0.54989 0.32249 0.0
N1216 N 0.86594 0.48358 0.32622 0.0
N1217 N 0.90427 0.53118 0.33232 0.0
H1218 H 0.41645 0.34793 0.89341 0.0
H1219 H 0.55978 0.3651 0.85896 0.0
H1220 H 0.43544 0.38883 0.83955 0.0
H1221 H 0.53971 0.31605 0.90483 0.0
H1222 H 0.51471 0.37411 0.85174 0.0
H1223 H 0.46134 0.33652 0.89795 0.0
C1224 C 0.43006 0.35457 0.88248 0.0
C1225 C 0.42202 0.36952 0.8661 0.0
C1226 C 0.52009 0.36129 0.86329 0.0
C1227 C 0.47392 0.35636 0.87134 0.0
C1228 C 0.5459 0.35611 0.86749 0.0
C1229 C 0.55366 0.33981 0.88265 0.0
C1230 C 0.50167 0.35027 0.87446 0.0
C1231 C 0.53468 0.3287 0.89302 0.0
C1232 C 0.45578 0.34792 0.88508 0.0
C1233 C 0.44069 0.37732 0.85241 0.0
N1234 N 0.5096 0.33426 0.88887 0.0
N1235 N 0.46576 0.37076 0.85543 0.0
H1236 H 0.61402 0.09777 0.35501 0.0
H1237 H 0.65345 0.97782 0.31165 0.0
H1238 H 0.6911 0.06916 0.35722 0.0
H1239 H 0.58095 1.01198 0.29762 0.0
H1240 H 0.66767 1.0109 0.32842 0.0
H1241 H 0.6016 0.06654 0.33398 0.0
C1242 C 0.62836 0.08494 0.351 0.0
C1243 C 0.65362 0.08605 0.35802 0.0
C1244 C 0.64871 1.01123 0.32154 0.0
C1245 C 0.63949 0.05006 0.33394 0.0
C1246 C 0.64052 0.99229 0.31206 0.0
C1247 C 0.61589 0.99204 0.30331 0.0
C1248 C 0.63207 0.03008 0.32254 0.0
C1249 C 0.60012 1.01142 0.30402 0.0
C1250 C 0.62128 0.06713 0.33889 0.0
C1251 C 0.67147 0.06905 0.35205 0.0
N1252 N 0.60838 0.02955 0.31364 0.0
N1253 N 0.66402 0.05167 0.34057 0.0
H1254 H 0.06426 0.12477 0.87575 0.0
H1255 H 0.93303 0.18765 0.8412 0.0
H1256 H 0.05508 0.16411 0.81768 0.0
H1257 H 0.95062 0.17441 0.90882 0.0
H1258 H 0.97599 0.17379 0.83137 0.0
H1259 H 0.02148 0.1385 0.88754 0.0
C1260 C 0.05338 0.13642 0.86557 0.0
C1261 C 0.06337 0.14331 0.84569 0.0
C1262 C 0.97045 0.17383 0.84836 0.0
C1263 C 0.01423 0.15863 0.85886 0.0
C1264 C 0.94579 0.18158 0.85401 0.0
C1265 C 0.93808 0.18224 0.87593 0.0
C1266 C 0.98764 0.16633 0.86463 0.0
C1267 C 0.9557 0.17422 0.89174 0.0
C1268 C 0.02898 0.14421 0.87231 0.0
C1269 C 0.04832 0.15839 0.83316 0.0
N1270 N 0.97965 0.16654 0.88578 0.0
N1271 N 0.02448 0.16533 0.83983 0.0
H1272 H 0.81825 0.09883 0.19361 0.0
H1273 H 0.91562 1.00759 0.24306 0.0
H1274 H 0.89928 0.09571 0.18219 0.0
H1275 H 0.83978 0.99148 0.22619 0.0
H1276 H 0.90752 0.04285 0.22524 0.0
H1277 H 0.82315 0.0615 0.20861 0.0
C1278 C 0.83692 0.09023 0.19387 0.0
C1279 C 0.85841 0.10053 0.18679 0.0
C1280 C 0.89259 0.03163 0.22541 0.0
C1281 C 0.86415 0.05836 0.20435 0.0
C1282 C 0.89715 1.01158 0.23577 0.0
C1283 C 0.87834 0.9966 0.23614 0.0
C1284 C 0.86888 0.03704 0.21557 0.0
C1285 C 0.85482 1.00256 0.22612 0.0
C1286 C 0.8397 0.06902 0.20252 0.0
C1287 C 0.88217 0.08863 0.18767 0.0
N1288 N 0.85064 0.02242 0.21635 0.0
N1289 N 0.88442 0.06841 0.19654 0.0
H1290 H 0.0516 0.40058 0.64014 0.0
H1291 H 0.92264 0.35999 0.68647 0.0
H1292 H 0.04658 0.37524 0.70534 0.0
H1293 H 0.92771 0.39886 0.6283 0.0
H1294 H 0.96654 0.36744 0.69559 0.0
H1295 H 1.00544 0.40215 0.63719 0.0
C1296 C 0.04067 0.3956 0.65399 0.0
C1297 C 0.05293 0.38771 0.67298 0.0
C1298 C 0.95787 0.37463 0.68103 0.0
C1299 C 0.99974 0.38898 0.66957 0.0
C1300 C 0.93275 0.37044 0.67582 0.0
C1301 C 0.92146 0.37859 0.6564 0.0
C1302 C 0.97187 0.38694 0.66666 0.0
C1303 C 0.93558 0.39201 0.6433 0.0
C1304 C 0.01424 0.3965 0.65231 0.0
C1305 C 0.03782 0.38153 0.69045 0.0
N1306 N 0.96004 0.3955 0.64851 0.0
N1307 N 0.01197 0.38193 0.6882 0.0
H1308 H 0.65867 0.46654 0.14635 0.0
H1309 H 0.65839 0.53778 0.25548 0.0
H1310 H 0.69218 0.44266 0.20673 0.0
H1311 H 0.63124 0.56273 0.19336 0.0
H1312 H 0.67186 0.50317 0.23794 0.0
H1313 H 0.65056 0.5024 0.16294 0.0
C1314 C 0.6647 0.46891 0.163 0.0
C1315 C 0.67609 0.45148 0.17514 0.0
C1316 C 0.66305 0.51625 0.22813 0.0
C1317 C 0.66636 0.49257 0.19446 0.0
C1318 C 0.65514 0.536 0.23819 0.0
C1319 C 0.64357 0.5533 0.22594 0.0
C1320 C 0.65925 0.51365 0.20564 0.0
C1321 C 0.64027 0.55003 0.20347 0.0
C1322 C 0.65995 0.48941 0.17252 0.0
C1323 C 0.68345 0.4556 0.19669 0.0
N1324 N 0.64795 0.53064 0.19412 0.0
N1325 N 0.67821 0.47563 0.20572 0.0
H1326 H 0.43655 0.19688 0.68065 0.0
H1327 H 0.58349 0.15806 0.69617 0.0
H1328 H 0.46316 0.14748 0.72683 0.0
H1329 H 0.55775 0.21367 0.65711 0.0
H1330 H 0.5397 0.15368 0.70703 0.0
H1331 H 0.48053 0.20309 0.67174 0.0
C1332 C 0.45166 0.18736 0.68904 0.0
C1333 C 0.44605 0.17152 0.7045 0.0
C1334 C 0.54355 0.16687 0.69612 0.0
C1335 C 0.49679 0.17855 0.69413 0.0
C1336 C 0.56863 0.16939 0.6898 0.0
C1337 C 0.57444 0.18627 0.67558 0.0
C1338 C 0.52386 0.18123 0.68812 0.0
C1339 C 0.55424 0.20041 0.66804 0.0
C1340 C 0.47683 0.19097 0.6839 0.0
C1341 C 0.46653 0.15985 0.71484 0.0
N1342 N 0.52986 0.19753 0.67433 0.0
N1343 N 0.49097 0.16349 0.70936 0.0
H1344 H 0.35643 0.79558 0.49926 0.0
H1345 H 0.34944 0.90945 0.56288 0.0
H1346 H 0.37912 0.85565 0.47159 0.0
H1347 H 0.32345 0.85051 0.5905 0.0
H1348 H 0.35746 0.8904 0.52845 0.0
H1349 H 0.34264 0.81542 0.53224 0.0
C1350 C 0.35864 0.81289 0.5001 0.0
C1351 C 0.36902 0.8239 0.48251 0.0
C1352 C 0.34973 0.88166 0.54194 0.0
C1353 C 0.35291 0.84683 0.52024 0.0
C1354 C 0.345 0.89259 0.56162 0.0
C1355 C 0.33584 0.8816 0.57972 0.0
C1356 C 0.34552 0.85944 0.54028 0.0
C1357 C 0.33047 0.85971 0.57702 0.0
C1358 C 0.35054 0.82427 0.5189 0.0
C1359 C 0.371 0.84646 0.48453 0.0
N1360 N 0.33566 0.84929 0.55778 0.0
N1361 N 0.36312 0.8571 0.503 0.0
H1362 H 0.11417 0.7877 0.03645 0.0
H1363 H 0.18768 0.88558 0.98553 0.0
H1364 H 0.14772 0.83711 0.07462 0.0
H1365 H 0.1599 0.83376 0.94687 0.0
H1366 H 0.17171 0.86855 1.0182 0.0
H1367 H 0.12939 0.80475 1.00331 0.0
C1368 C 0.12473 0.80207 0.03794 0.0
C1369 C 0.12948 0.81094 0.05852 0.0
C1370 C 0.16906 0.86091 1.00256 0.0
C1371 C 0.14684 0.83068 0.02052 0.0
C1372 C 0.1783 0.87061 0.98386 0.0
C1373 C 0.1752 0.86118 0.96329 0.0
C1374 C 0.15657 0.84156 1.00082 0.0
C1375 C 0.16248 0.84186 0.96224 0.0
C1376 C 0.13334 0.81186 1.01897 0.0
C1377 C 0.1431 0.82978 0.05927 0.0
N1378 N 0.15369 0.8327 0.98071 0.0
N1379 N 0.15125 0.83895 0.04063 0.0
H1380 H 0.19102 0.64854 0.56595 0.0
H1381 H 0.12505 0.75779 0.51322 0.0
H1382 H 0.18254 0.70974 0.60036 0.0
H1383 H 0.13457 0.69614 0.47975 0.0
H1384 H 0.14406 0.74042 0.54587 0.0
H1385 H 0.16852 0.66558 0.53491 0.0
C1386 C 0.18432 0.66555 0.56706 0.0
C1387 C 0.18881 0.67771 0.58585 0.0
C1388 C 0.14193 0.7307 0.53138 0.0
C1389 C 0.163 0.69746 0.5501 0.0
C1390 C 0.13095 0.7406 0.51273 0.0
C1391 C 0.12831 0.72851 0.49354 0.0
C1392 C 0.15031 0.7085 0.53092 0.0
C1393 C 0.13659 0.70628 0.49393 0.0
C1394 C 0.17146 0.6753 0.54926 0.0
C1395 C 0.17957 0.69971 0.58624 0.0
N1396 N 0.1472 0.69707 0.51223 0.0
N1397 N 0.16722 0.70889 0.56862 0.0
H1398 H 0.41871 0.7489 0.02648 0.0
H1399 H 0.31243 0.68751 0.96172 0.0
H1400 H 0.35009 0.72904 0.05655 0.0
H1401 H 0.38703 0.69702 0.93608 0.0
H1402 H 0.32371 0.7063 0.99519 0.0
H1403 H 0.40524 0.73358 0.99196 0.0
C1404 C 0.4007 0.7415 0.02581 0.0
C1405 C 0.38559 0.74021 0.04455 0.0
C1406 C 0.33757 0.70433 0.9822 0.0
C1407 C 0.37006 0.72245 1.00496 0.0
C1408 C 0.33107 0.69374 0.96301 0.0
C1409 C 0.34886 0.69054 0.94606 0.0
C1410 C 0.36196 0.71199 0.98443 0.0
C1411 C 0.37285 0.6988 0.94881 0.0
C1412 C 0.39308 0.73262 1.0061 0.0
C1413 C 0.36254 0.73016 0.04265 0.0
N1414 N 0.37868 0.70909 0.96757 0.0
N1415 N 0.3555 0.72168 0.02326 0.0
loop_
_geom_bond_atom_site_label_1
_geom_bond_atom_site_label_2
_geom_bond_distance
_geom_bond_site_symmetry_2
_ccdc_geom_bond_type
Cu0 N1 1.999 . S
Cu0 O6 1.974 . S
Cu0 N11 1.985 . S
Cu0 O20 1.959 . S
N1 Cu0 1.999 . S
N1 C3 1.263 . S
N1 C5 1.389 . S
N2 C3 1.358 . S
N2 C4 1.400 . S
C3 N1 1.263 . S
C3 N2 1.358 . S
C3 H9 0.930 . S
C4 N2 1.400 . S
C4 C5 1.351 . S
C4 H21 0.930 . S
C5 N1 1.389 . S
C5 C4 1.351 . S
C5 H10 0.930 . S
O6 Cu0 1.974 . S
O6 C16 1.282 . S
C7 O8 1.261 . S
C7 O20 1.251 . S
O8 C7 1.261 . S
H9 C3 0.930 . S
H10 C5 0.930 . S
N11 Cu0 1.985 . S
N11 C13 1.335 . S
N11 C14 1.390 . S
N12 C13 1.345 . S
N12 C15 1.336 . S
C13 N11 1.335 . S
C13 N12 1.345 . S
C13 H18 0.930 . S
C14 N11 1.390 . S
C14 C15 1.346 . S
C14 H19 0.930 . S
C15 N12 1.336 . S
C15 C14 1.346 . S
C15 H22 0.929 . S
C16 O6 1.282 . S
C16 O17 1.216 . S
O17 C16 1.216 . S
H18 C13 0.930 . S
H19 C14 0.930 . S
O20 Cu0 1.959 . S
O20 C7 1.251 . S
H21 C4 0.930 . S
H22 C15 0.929 . S
Cu23 N24 1.999 . S
Cu23 O29 1.974 . S
Cu23 N34 1.985 . S
Cu23 O43 1.959 . S
N24 Cu23 1.999 . S
N24 C26 1.263 . S
N24 C28 1.389 . S
N25 C26 1.358 . S
N25 C27 1.400 . S
C26 N24 1.263 . S
C26 N25 1.358 . S
C26 H32 0.930 . S
C27 N25 1.400 . S
C27 C28 1.351 . S
C27 H44 0.930 . S
C28 N24 1.389 . S
C28 C27 1.351 . S
C28 H33 0.930 . S
O29 Cu23 1.974 . S
O29 C39 1.282 . S
C30 O31 1.261 . S
C30 O43 1.251 . S
O31 C30 1.261 . S
H32 C26 0.930 . S
H33 C28 0.930 . S
N34 Cu23 1.985 . S
N34 C36 1.335 . S
N34 C37 1.390 . S
N35 C36 1.345 . S
N35 C38 1.336 . S
C36 N34 1.335 . S
C36 N35 1.345 . S
C36 H41 0.930 . S
C37 N34 1.390 . S
C37 C38 1.346 . S
C37 H42 0.930 . S
C38 N35 1.336 . S
C38 C37 1.346 . S
C38 H45 0.929 . S
C39 O29 1.282 . S
C39 O40 1.216 . S
O40 C39 1.216 . S
H41 C36 0.930 . S
H42 C37 0.930 . S
O43 Cu23 1.959 . S
O43 C30 1.251 . S
H44 C27 0.930 . S
H45 C38 0.929 . S
Cu46 N47 1.999 . S
Cu46 O52 1.974 . S
Cu46 N57 1.985 . S
Cu46 O66 1.959 . S
N47 Cu46 1.999 . S
N47 C49 1.263 . S
N47 C51 1.389 . S
N48 C49 1.358 . S
N48 C50 1.400 . S
C49 N47 1.263 . S
C49 N48 1.358 . S
C49 H55 0.930 . S
C50 N48 1.400 . S
C50 C51 1.351 . S
C50 H67 0.930 . S
C51 N47 1.389 . S
C51 C50 1.351 . S
C51 H56 0.930 . S
O52 Cu46 1.974 . S
O52 C62 1.282 . S
C53 O54 1.261 . S
C53 O66 1.251 . S
O54 C53 1.261 . S
H55 C49 0.930 . S
H56 C51 0.930 . S
N57 Cu46 1.985 . S
N57 C59 1.335 . S
N57 C60 1.390 . S
N58 C59 1.345 . S
N58 C61 1.336 . S
C59 N57 1.335 . S
C59 N58 1.345 . S
C59 H64 0.930 . S
C60 N57 1.390 . S
C60 C61 1.346 . S
C60 H65 0.930 . S
C61 N58 1.336 . S
C61 C60 1.346 . S
C61 H68 0.929 . S
C62 O52 1.282 . S
C62 O63 1.216 . S
O63 C62 1.216 . S
H64 C59 0.930 . S
H65 C60 0.930 . S
O66 Cu46 1.959 . S
O66 C53 1.251 . S
H67 C50 0.930 . S
H68 C61 0.929 . S
Cu69 N70 1.999 . S
Cu69 O75 1.974 . S
Cu69 N80 1.985 . S
Cu69 O89 1.959 . S
N70 Cu69 1.999 . S
N70 C72 1.263 . S
N70 C74 1.389 . S
N71 C72 1.358 . S
N71 C73 1.400 . S
C72 N70 1.263 . S
C72 N71 1.358 . S
C72 H78 0.930 . S
C73 N71 1.400 . S
C73 C74 1.351 . S
C73 H90 0.930 . S
C74 N70 1.389 . S
C74 C73 1.351 . S
C74 H79 0.930 . S
O75 Cu69 1.974 . S
O75 C85 1.282 . S
C76 O77 1.261 . S
C76 O89 1.251 . S
O77 C76 1.261 . S
H78 C72 0.930 . S
H79 C74 0.930 . S
N80 Cu69 1.985 . S
N80 C82 1.335 . S
N80 C83 1.390 . S
N81 C82 1.345 . S
N81 C84 1.336 . S
C82 N80 1.335 . S
C82 N81 1.345 . S
C82 H87 0.930 . S
C83 N80 1.390 . S
C83 C84 1.346 . S
C83 H88 0.930 . S
C84 N81 1.336 . S
C84 C83 1.346 . S
C84 H91 0.929 . S
C85 O75 1.282 . S
C85 O86 1.216 . S
O86 C85 1.216 . S
H87 C82 0.930 . S
H88 C83 0.930 . S
O89 Cu69 1.959 . S
O89 C76 1.251 . S
H90 C73 0.930 . S
H91 C84 0.929 . S
Cu92 N93 1.999 . S
Cu92 O98 1.974 . S
Cu92 N103 1.985 . S
Cu92 O112 1.959 . S
N93 Cu92 1.999 . S
N93 C95 1.263 . S
N93 C97 1.389 . S
N94 C95 1.358 . S
N94 C96 1.400 . S
C95 N93 1.263 . S
C95 N94 1.358 . S
C95 H101 0.930 . S
C96 N94 1.400 . S
C96 C97 1.351 . S
C96 H113 0.930 . S
C97 N93 1.389 . S
C97 C96 1.351 . S
C97 H102 0.930 . S
O98 Cu92 1.974 . S
O98 C108 1.282 . S
C99 O100 1.261 . S
C99 O112 1.251 . S
O100 C99 1.261 . S
H101 C95 0.930 . S
H102 C97 0.930 . S
N103 Cu92 1.985 . S
N103 C105 1.335 . S
N103 C106 1.390 . S
N104 C105 1.345 . S
N104 C107 1.336 . S
C105 N103 1.335 . S
C105 N104 1.345 . S
C105 H110 0.930 . S
C106 N103 1.390 . S
C106 C107 1.346 . S
C106 H111 0.930 . S
C107 N104 1.336 . S
C107 C106 1.346 . S
C107 H114 0.929 . S
C108 O98 1.282 . S
C108 O109 1.216 . S
O109 C108 1.216 . S
H110 C105 0.930 . S
H111 C106 0.930 . S
O112 Cu92 1.959 . S
O112 C99 1.251 . S
H113 C96 0.930 . S
H114 C107 0.929 . S
Cu115 N116 1.999 . S
Cu115 O121 1.974 . S
Cu115 N126 1.985 . S
Cu115 O135 1.959 . S
N116 Cu115 1.999 . S
N116 C118 1.263 . S
N116 C120 1.389 . S
N117 C118 1.358 . S
N117 C119 1.400 . S
C118 N116 1.263 . S
C118 N117 1.358 . S
C118 H124 0.930 . S
C119 N117 1.400 . S
C119 C120 1.351 . S
C119 H136 0.930 . S
C120 N116 1.389 . S
C120 C119 1.351 . S
C120 H125 0.930 . S
O121 Cu115 1.974 . S
O121 C131 1.282 . S
C122 O123 1.261 . S
C122 O135 1.251 . S
O123 C122 1.261 . S
H124 C118 0.930 . S
H125 C120 0.930 . S
N126 Cu115 1.985 . S
N126 C128 1.335 . S
N126 C129 1.390 . S
N127 C128 1.345 . S
N127 C130 1.336 . S
C128 N126 1.335 . S
C128 N127 1.345 . S
C128 H133 0.930 . S
C129 N126 1.390 . S
C129 C130 1.346 . S
C129 H134 0.930 . S
C130 N127 1.336 . S
C130 C129 1.346 . S
C130 H137 0.929 . S
C131 O121 1.282 . S
C131 O132 1.216 . S
O132 C131 1.216 . S
H133 C128 0.930 . S
H134 C129 0.930 . S
O135 Cu115 1.959 . S
O135 C122 1.251 . S
H136 C119 0.930 . S
H137 C130 0.929 . S
Cu138 N139 1.999 . S
Cu138 O144 1.974 . S
Cu138 N149 1.985 . S
Cu138 O158 1.959 . S
N139 Cu138 1.999 . S
N139 C141 1.263 . S
N139 C143 1.389 . S
N140 C141 1.358 . S
N140 C142 1.400 . S
C141 N139 1.263 . S
C141 N140 1.358 . S
C141 H147 0.930 . S
C142 N140 1.400 . S
C142 C143 1.351 . S
C142 H159 0.930 . S
C143 N139 1.389 . S
C143 C142 1.351 . S
C143 H148 0.930 . S
O144 Cu138 1.974 . S
O144 C154 1.282 . S
C145 O146 1.261 . S
C145 O158 1.251 . S
O146 C145 1.261 . S
H147 C141 0.930 . S
H148 C143 0.930 . S
N149 Cu138 1.985 . S
N149 C151 1.335 . S
N149 C152 1.390 . S
N150 C151 1.345 . S
N150 C153 1.336 . S
C151 N149 1.335 . S
C151 N150 1.345 . S
C151 H156 0.930 . S
C152 N149 1.390 . S
C152 C153 1.346 . S
C152 H157 0.930 . S
C153 N150 1.336 . S
C153 C152 1.346 . S
C153 H160 0.929 . S
C154 O144 1.282 . S
C154 O155 1.216 . S
O155 C154 1.216 . S
H156 C151 0.930 . S
H157 C152 0.930 . S
O158 Cu138 1.959 . S
O158 C145 1.251 . S
H159 C142 0.930 . S
H160 C153 0.929 . S
Cu161 N162 1.999 . S
Cu161 O167 1.974 . S
Cu161 N172 1.985 . S
Cu161 O181 1.959 . S
N162 Cu161 1.999 . S
N162 C164 1.263 . S
N162 C166 1.389 . S
N163 C164 1.358 . S
N163 C165 1.400 . S
C164 N162 1.263 . S
C164 N163 1.358 . S
C164 H170 0.930 . S
C165 N163 1.400 . S
C165 C166 1.351 . S
C165 H182 0.930 . S
C166 N162 1.389 . S
C166 C165 1.351 . S
C166 H171 0.930 . S
O167 Cu161 1.974 . S
O167 C177 1.282 . S
C168 O169 1.261 . S
C168 O181 1.251 . S
O169 C168 1.261 . S
H170 C164 0.930 . S
H171 C166 0.930 . S
N172 Cu161 1.985 . S
N172 C174 1.335 . S
N172 C175 1.390 . S
N173 C174 1.345 . S
N173 C176 1.336 . S
C174 N172 1.335 . S
C174 N173 1.345 . S
C174 H179 0.930 . S
C175 N172 1.390 . S
C175 C176 1.346 . S
C175 H180 0.930 . S
C176 N173 1.336 . S
C176 C175 1.346 . S
C176 H183 0.929 . S
C177 O167 1.282 . S
C177 O178 1.216 . S
O178 C177 1.216 . S
H179 C174 0.930 . S
H180 C175 0.930 . S
O181 Cu161 1.959 . S
O181 C168 1.251 . S
H182 C165 0.930 . S
H183 C176 0.929 . S
Cu184 N185 1.999 . S
Cu184 O190 1.974 . S
Cu184 N195 1.985 . S
Cu184 O204 1.959 . S
N185 Cu184 1.999 . S
N185 C187 1.263 . S
N185 C189 1.389 . S
N186 C187 1.358 . S
N186 C188 1.400 . S
C187 N185 1.263 . S
C187 N186 1.358 . S
C187 H193 0.930 . S
C188 N186 1.400 . S
C188 C189 1.351 . S
C188 H205 0.930 . S
C189 N185 1.389 . S
C189 C188 1.351 . S
C189 H194 0.930 . S
O190 Cu184 1.974 . S
O190 C200 1.282 . S
C191 O192 1.261 . S
C191 O204 1.251 . S
O192 C191 1.261 . S
H193 C187 0.930 . S
H194 C189 0.930 . S
N195 Cu184 1.985 . S
N195 C197 1.335 . S
N195 C198 1.390 . S
N196 C197 1.345 . S
N196 C199 1.336 . S
C197 N195 1.335 . S
C197 N196 1.345 . S
C197 H202 0.930 . S
C198 N195 1.390 . S
C198 C199 1.346 . S
C198 H203 0.930 . S
C199 N196 1.336 . S
C199 C198 1.346 . S
C199 H206 0.929 . S
C200 O190 1.282 . S
C200 O201 1.216 . S
O201 C200 1.216 . S
H202 C197 0.930 . S
H203 C198 0.930 . S
O204 Cu184 1.959 . S
O204 C191 1.251 . S
H205 C188 0.930 . S
H206 C199 0.929 . S
Cu207 N208 1.999 . S
Cu207 O213 1.974 . S
Cu207 N218 1.985 . S
Cu207 O227 1.959 . S
N208 Cu207 1.999 . S
N208 C210 1.263 . S
N208 C212 1.389 . S
N209 C210 1.358 . S
N209 C211 1.400 . S
C210 N208 1.263 . S
C210 N209 1.358 . S
C210 H216 0.930 . S
C211 N209 1.400 . S
C211 C212 1.351 . S
C211 H228 0.930 . S
C212 N208 1.389 . S
C212 C211 1.351 . S
C212 H217 0.930 . S
O213 Cu207 1.974 . S
O213 C223 1.282 . S
C214 O215 1.261 . S
C214 O227 1.251 . S
O215 C214 1.261 . S
H216 C210 0.930 . S
H217 C212 0.930 . S
N218 Cu207 1.985 . S
N218 C220 1.335 . S
N218 C221 1.390 . S
N219 C220 1.345 . S
N219 C222 1.336 . S
C220 N218 1.335 . S
C220 N219 1.345 . S
C220 H225 0.930 . S
C221 N218 1.390 . S
C221 C222 1.346 . S
C221 H226 0.930 . S
C222 N219 1.336 . S
C222 C221 1.346 . S
C222 H229 0.929 . S
C223 O213 1.282 . S
C223 O224 1.216 . S
O224 C223 1.216 . S
H225 C220 0.930 . S
H226 C221 0.930 . S
O227 Cu207 1.959 . S
O227 C214 1.251 . S
H228 C211 0.930 . S
H229 C222 0.929 . S
Cu230 N231 1.999 . S
Cu230 O236 1.974 . S
Cu230 N241 1.985 . S
Cu230 O250 1.959 . S
N231 Cu230 1.999 . S
N231 C233 1.263 . S
N231 C235 1.389 . S
N232 C233 1.358 . S
N232 C234 1.400 . S
C233 N231 1.263 . S
C233 N232 1.358 . S
C233 H239 0.930 . S
C234 N232 1.400 . S
C234 C235 1.351 . S
C234 H251 0.930 . S
C235 N231 1.389 . S
C235 C234 1.351 . S
C235 H240 0.930 . S
O236 Cu230 1.974 . S
O236 C246 1.282 . S
C237 O238 1.261 . S
C237 O250 1.251 . S
O238 C237 1.261 . S
H239 C233 0.930 . S
H240 C235 0.930 . S
N241 Cu230 1.985 . S
N241 C243 1.335 . S
N241 C244 1.390 . S
N242 C243 1.345 . S
N242 C245 1.336 . S
C243 N241 1.335 . S
C243 N242 1.345 . S
C243 H248 0.930 . S
C244 N241 1.390 . S
C244 C245 1.346 . S
C244 H249 0.930 . S
C245 N242 1.336 . S
C245 C244 1.346 . S
C245 H252 0.929 . S
C246 O236 1.282 . S
C246 O247 1.216 . S
O247 C246 1.216 . S
H248 C243 0.930 . S
H249 C244 0.930 . S
O250 Cu230 1.959 . S
O250 C237 1.251 . S
H251 C234 0.930 . S
H252 C245 0.929 . S
Cu253 N254 1.999 . S
Cu253 O259 1.974 . S
Cu253 N264 1.985 . S
Cu253 O273 1.959 . S
N254 Cu253 1.999 . S
N254 C256 1.263 . S
N254 C258 1.389 . S
N255 C256 1.358 . S
N255 C257 1.400 . S
C256 N254 1.263 . S
C256 N255 1.358 . S
C256 H262 0.930 . S
C257 N255 1.400 . S
C257 C258 1.351 . S
C257 H274 0.930 . S
C258 N254 1.389 . S
C258 C257 1.351 . S
C258 H263 0.930 . S
O259 Cu253 1.974 . S
O259 C269 1.282 . S
C260 O261 1.261 . S
C260 O273 1.251 . S
O261 C260 1.261 . S
H262 C256 0.930 . S
H263 C258 0.930 . S
N264 Cu253 1.985 . S
N264 C266 1.335 . S
N264 C267 1.390 . S
N265 C266 1.345 . S
N265 C268 1.336 . S
C266 N264 1.335 . S
C266 N265 1.345 . S
C266 H271 0.930 . S
C267 N264 1.390 . S
C267 C268 1.346 . S
C267 H272 0.930 . S
C268 N265 1.336 . S
C268 C267 1.346 . S
C268 H275 0.929 . S
C269 O259 1.282 . S
C269 O270 1.216 . S
O270 C269 1.216 . S
H271 C266 0.930 . S
H272 C267 0.930 . S
O273 Cu253 1.959 . S
O273 C260 1.251 . S
H274 C257 0.930 . S
H275 C268 0.929 . S
Cu276 N277 1.999 . S
Cu276 O282 1.974 . S
Cu276 N287 1.985 . S
Cu276 O296 1.959 . S
N277 Cu276 1.999 . S
N277 C279 1.263 . S
N277 C281 1.389 . S
N278 C279 1.358 . S
N278 C280 1.400 . S
C279 N277 1.263 . S
C279 N278 1.358 . S
C279 H285 0.930 . S
C280 N278 1.400 . S
C280 C281 1.351 . S
C280 H297 0.930 . S
C281 N277 1.389 . S
C281 C280 1.351 . S
C281 H286 0.930 . S
O282 Cu276 1.974 . S
O282 C292 1.282 . S
C283 O284 1.261 . S
C283 O296 1.251 . S
O284 C283 1.261 . S
H285 C279 0.930 . S
H286 C281 0.930 . S
N287 Cu276 1.985 . S
N287 C289 1.335 . S
N287 C290 1.390 . S
N288 C289 1.345 . S
N288 C291 1.336 . S
C289 N287 1.335 . S
C289 N288 1.345 . S
C289 H294 0.930 . S
C290 N287 1.390 . S
C290 C291 1.346 . S
C290 H295 0.930 . S
C291 N288 1.336 . S
C291 C290 1.346 . S
C291 H298 0.929 . S
C292 O282 1.282 . S
C292 O293 1.216 . S
O293 C292 1.216 . S
H294 C289 0.930 . S
H295 C290 0.930 . S
O296 Cu276 1.959 . S
O296 C283 1.251 . S
H297 C280 0.930 . S
H298 C291 0.929 . S
Cu299 N300 1.999 . S
Cu299 O305 1.974 . S
Cu299 N310 1.985 . S
Cu299 O319 1.959 . S
N300 Cu299 1.999 . S
N300 C302 1.263 . S
N300 C304 1.389 . S
N301 C302 1.358 . S
N301 C303 1.400 . S
C302 N300 1.263 . S
C302 N301 1.358 . S
C302 H308 0.930 . S
C303 N301 1.400 . S
C303 C304 1.351 . S
C303 H320 0.930 . S
C304 N300 1.389 . S
C304 C303 1.351 . S
C304 H309 0.930 . S
O305 Cu299 1.974 . S
O305 C315 1.282 . S
C306 O307 1.261 . S
C306 O319 1.251 . S
O307 C306 1.261 . S
H308 C302 0.930 . S
H309 C304 0.930 . S
N310 Cu299 1.985 . S
N310 C312 1.335 . S
N310 C313 1.390 . S
N311 C312 1.345 . S
N311 C314 1.336 . S
C312 N310 1.335 . S
C312 N311 1.345 . S
C312 H317 0.930 . S
C313 N310 1.390 . S
C313 C314 1.346 . S
C313 H318 0.930 . S
C314 N311 1.336 . S
C314 C313 1.346 . S
C314 H321 0.929 . S
C315 O305 1.282 . S
C315 O316 1.216 . S
O316 C315 1.216 . S
H317 C312 0.930 . S
H318 C313 0.930 . S
O319 Cu299 1.959 . S
O319 C306 1.251 . S
H320 C303 0.930 . S
H321 C314 0.929 . S
Cu322 N323 1.999 . S
Cu322 O328 1.974 . S
Cu322 N333 1.985 . S
Cu322 O342 1.959 . S
N323 Cu322 1.999 . S
N323 C325 1.263 . S
N323 C327 1.389 . S
N324 C325 1.358 . S
N324 C326 1.400 . S
C325 N323 1.263 . S
C325 N324 1.358 . S
C325 H331 0.930 . S
C326 N324 1.400 . S
C326 C327 1.351 . S
C326 H343 0.930 . S
C327 N323 1.389 . S
C327 C326 1.351 . S
C327 H332 0.930 . S
O328 Cu322 1.974 . S
O328 C338 1.282 . S
C329 O330 1.261 . S
C329 O342 1.251 . S
O330 C329 1.261 . S
H331 C325 0.930 . S
H332 C327 0.930 . S
N333 Cu322 1.985 . S
N333 C335 1.335 . S
N333 C336 1.390 . S
N334 C335 1.345 . S
N334 C337 1.336 . S
C335 N333 1.335 . S
C335 N334 1.345 . S
C335 H340 0.930 . S
C336 N333 1.390 . S
C336 C337 1.346 . S
C336 H341 0.930 . S
C337 N334 1.336 . S
C337 C336 1.346 . S
C337 H344 0.929 . S
C338 O328 1.282 . S
C338 O339 1.216 . S
O339 C338 1.216 . S
H340 C335 0.930 . S
H341 C336 0.930 . S
O342 Cu322 1.959 . S
O342 C329 1.251 . S
H343 C326 0.930 . S
H344 C337 0.929 . S
Cu345 N346 1.999 . S
Cu345 O351 1.974 . S
Cu345 N356 1.985 . S
Cu345 O365 1.959 . S
N346 Cu345 1.999 . S
N346 C348 1.263 . S
N346 C350 1.389 . S
N347 C348 1.358 . S
N347 C349 1.400 . S
C348 N346 1.263 . S
C348 N347 1.358 . S
C348 H354 0.930 . S
C349 N347 1.400 . S
C349 C350 1.351 . S
C349 H366 0.930 . S
C350 N346 1.389 . S
C350 C349 1.351 . S
C350 H355 0.930 . S
O351 Cu345 1.974 . S
O351 C361 1.282 . S
C352 O353 1.261 . S
C352 O365 1.251 . S
O353 C352 1.261 . S
H354 C348 0.930 . S
H355 C350 0.930 . S
N356 Cu345 1.985 . S
N356 C358 1.335 . S
N356 C359 1.390 . S
N357 C358 1.345 . S
N357 C360 1.336 . S
C358 N356 1.335 . S
C358 N357 1.345 . S
C358 H363 0.930 . S
C359 N356 1.390 . S
C359 C360 1.346 . S
C359 H364 0.930 . S
C360 N357 1.336 . S
C360 C359 1.346 . S
C360 H367 0.929 . S
C361 O351 1.282 . S
C361 O362 1.216 . S
O362 C361 1.216 . S
H363 C358 0.930 . S
H364 C359 0.930 . S
O365 Cu345 1.959 . S
O365 C352 1.251 . S
H366 C349 0.930 . S
H367 C360 0.929 . S
Cu368 N369 1.999 . S
Cu368 O374 1.974 . S
Cu368 N379 1.985 . S
Cu368 O388 1.959 . S
N369 Cu368 1.999 . S
N369 C371 1.263 . S
N369 C373 1.389 . S
N370 C371 1.358 . S
N370 C372 1.400 . S
C371 N369 1.263 . S
C371 N370 1.358 . S
C371 H377 0.930 . S
C372 N370 1.400 . S
C372 C373 1.351 . S
C372 H389 0.930 . S
C373 N369 1.389 . S
C373 C372 1.351 . S
C373 H378 0.930 . S
O374 Cu368 1.974 . S
O374 C384 1.282 . S
C375 O376 1.261 . S
C375 O388 1.251 . S
O376 C375 1.261 . S
H377 C371 0.930 . S
H378 C373 0.930 . S
N379 Cu368 1.985 . S
N379 C381 1.335 . S
N379 C382 1.390 . S
N380 C381 1.345 . S
N380 C383 1.336 . S
C381 N379 1.335 . S
C381 N380 1.345 . S
C381 H386 0.930 . S
C382 N379 1.390 . S
C382 C383 1.346 . S
C382 H387 0.930 . S
C383 N380 1.336 . S
C383 C382 1.346 . S
C383 H390 0.929 . S
C384 O374 1.282 . S
C384 O385 1.216 . S
O385 C384 1.216 . S
H386 C381 0.930 . S
H387 C382 0.930 . S
O388 Cu368 1.959 . S
O388 C375 1.251 . S
H389 C372 0.930 . S
H390 C383 0.929 . S
Cu391 N392 1.999 . S
Cu391 O397 1.974 . S
Cu391 N402 1.985 . S
Cu391 O411 1.959 . S
N392 Cu391 1.999 . S
N392 C394 1.263 . S
N392 C396 1.389 . S
N393 C394 1.358 . S
N393 C395 1.400 . S
C394 N392 1.263 . S
C394 N393 1.358 . S
C394 H400 0.930 . S
C395 N393 1.400 . S
C395 C396 1.351 . S
C395 H412 0.930 . S
C396 N392 1.389 . S
C396 C395 1.351 . S
C396 H401 0.930 . S
O397 Cu391 1.974 . S
O397 C407 1.282 . S
C398 O399 1.261 . S
C398 O411 1.251 . S
O399 C398 1.261 . S
H400 C394 0.930 . S
H401 C396 0.930 . S
N402 Cu391 1.985 . S
N402 C404 1.335 . S
N402 C405 1.390 . S
N403 C404 1.345 . S
N403 C406 1.336 . S
C404 N402 1.335 . S
C404 N403 1.345 . S
C404 H409 0.930 . S
C405 N402 1.390 . S
C405 C406 1.346 . S
C405 H410 0.930 . S
C406 N403 1.336 . S
C406 C405 1.346 . S
C406 H413 0.929 . S
C407 O397 1.282 . S
C407 O408 1.216 . S
O408 C407 1.216 . S
H409 C404 0.930 . S
H410 C405 0.930 . S
O411 Cu391 1.959 . S
O411 C398 1.251 . S
H412 C395 0.930 . S
H413 C406 0.929 . S
Cu414 N415 1.999 . S
Cu414 O420 1.974 . S
Cu414 N425 1.985 . S
Cu414 O434 1.959 . S
N415 Cu414 1.999 . S
N415 C417 1.263 . S
N415 C419 1.389 . S
N416 C417 1.358 . S
N416 C418 1.400 . S
C417 N415 1.263 . S
C417 N416 1.358 . S
C417 H423 0.930 . S
C418 N416 1.400 . S
C418 C419 1.351 . S
C418 H435 0.930 . S
C419 N415 1.389 . S
C419 C418 1.351 . S
C419 H424 0.930 . S
O420 Cu414 1.974 . S
O420 C430 1.282 . S
C421 O422 1.261 . S
C421 O434 1.251 . S
O422 C421 1.261 . S
H423 C417 0.930 . S
H424 C419 0.930 . S
N425 Cu414 1.985 . S
N425 C427 1.335 . S
N425 C428 1.390 . S
N426 C427 1.345 . S
N426 C429 1.336 . S
C427 N425 1.335 . S
C427 N426 1.345 . S
C427 H432 0.930 . S
C428 N425 1.390 . S
C428 C429 1.346 . S
C428 H433 0.930 . S
C429 N426 1.336 . S
C429 C428 1.346 . S
C429 H436 0.929 . S
C430 O420 1.282 . S
C430 O431 1.216 . S
O431 C430 1.216 . S
H432 C427 0.930 . S
H433 C428 0.930 . S
O434 Cu414 1.959 . S
O434 C421 1.251 . S
H435 C418 0.930 . S
H436 C429 0.929 . S
Cu437 N438 1.999 . S
Cu437 O443 1.974 . S
Cu437 N448 1.985 . S
Cu437 O457 1.959 . S
N438 Cu437 1.999 . S
N438 C440 1.263 . S
N438 C442 1.389 . S
N439 C440 1.358 . S
N439 C441 1.400 . S
C440 N438 1.263 . S
C440 N439 1.358 . S
C440 H446 0.930 . S
C441 N439 1.400 . S
C441 C442 1.351 . S
C441 H458 0.930 . S
C442 N438 1.389 . S
C442 C441 1.351 . S
C442 H447 0.930 . S
O443 Cu437 1.974 . S
O443 C453 1.282 . S
C444 O445 1.261 . S
C444 O457 1.251 . S
O445 C444 1.261 . S
H446 C440 0.930 . S
H447 C442 0.930 . S
N448 Cu437 1.985 . S
N448 C450 1.335 . S
N448 C451 1.390 . S
N449 C450 1.345 . S
N449 C452 1.336 . S
C450 N448 1.335 . S
C450 N449 1.345 . S
C450 H455 0.930 . S
C451 N448 1.390 . S
C451 C452 1.346 . S
C451 H456 0.930 . S
C452 N449 1.336 . S
C452 C451 1.346 . S
C452 H459 0.929 . S
C453 O443 1.282 . S
C453 O454 1.216 . S
O454 C453 1.216 . S
H455 C450 0.930 . S
H456 C451 0.930 . S
O457 Cu437 1.959 . S
O457 C444 1.251 . S
H458 C441 0.930 . S
H459 C452 0.929 . S
Cu460 N461 1.999 . S
Cu460 O466 1.974 . S
Cu460 N471 1.985 . S
Cu460 O480 1.959 . S
N461 Cu460 1.999 . S
N461 C463 1.263 . S
N461 C465 1.389 . S
N462 C463 1.358 . S
N462 C464 1.400 . S
C463 N461 1.263 . S
C463 N462 1.358 . S
C463 H469 0.930 . S
C464 N462 1.400 . S
C464 C465 1.351 . S
C464 H481 0.930 . S
C465 N461 1.389 . S
C465 C464 1.351 . S
C465 H470 0.930 . S
O466 Cu460 1.974 . S
O466 C476 1.282 . S
C467 O468 1.261 . S
C467 O480 1.251 . S
O468 C467 1.261 . S
H469 C463 0.930 . S
H470 C465 0.930 . S
N471 Cu460 1.985 . S
N471 C473 1.335 . S
N471 C474 1.390 . S
N472 C473 1.345 . S
N472 C475 1.336 . S
C473 N471 1.335 . S
C473 N472 1.345 . S
C473 H478 0.930 . S
C474 N471 1.390 . S
C474 C475 1.346 . S
C474 H479 0.930 . S
C475 N472 1.336 . S
C475 C474 1.346 . S
C475 H482 0.929 . S
C476 O466 1.282 . S
C476 O477 1.216 . S
O477 C476 1.216 . S
H478 C473 0.930 . S
H479 C474 0.930 . S
O480 Cu460 1.959 . S
O480 C467 1.251 . S
H481 C464 0.930 . S
H482 C475 0.929 . S
Cu483 N484 1.999 . S
Cu483 O489 1.974 . S
Cu483 N494 1.985 . S
Cu483 O503 1.959 . S
N484 Cu483 1.999 . S
N484 C486 1.263 . S
N484 C488 1.389 . S
N485 C486 1.358 . S
N485 C487 1.400 . S
C486 N484 1.263 . S
C486 N485 1.358 . S
C486 H492 0.930 . S
C487 N485 1.400 . S
C487 C488 1.351 . S
C487 H504 0.930 . S
C488 N484 1.389 . S
C488 C487 1.351 . S
C488 H493 0.930 . S
O489 Cu483 1.974 . S
O489 C499 1.282 . S
C490 O491 1.261 . S
C490 O503 1.251 . S
O491 C490 1.261 . S
H492 C486 0.930 . S
H493 C488 0.930 . S
N494 Cu483 1.985 . S
N494 C496 1.335 . S
N494 C497 1.390 . S
N495 C496 1.345 . S
N495 C498 1.336 . S
C496 N494 1.335 . S
C496 N495 1.345 . S
C496 H501 0.930 . S
C497 N494 1.390 . S
C497 C498 1.346 . S
C497 H502 0.930 . S
C498 N495 1.336 . S
C498 C497 1.346 . S
C498 H505 0.929 . S
C499 O489 1.282 . S
C499 O500 1.216 . S
O500 C499 1.216 . S
H501 C496 0.930 . S
H502 C497 0.930 . S
O503 Cu483 1.959 . S
O503 C490 1.251 . S
H504 C487 0.930 . S
H505 C498 0.929 . S
Cu506 N507 1.999 . S
Cu506 O512 1.974 . S
Cu506 N517 1.985 . S
Cu506 O526 1.959 . S
N507 Cu506 1.999 . S
N507 C509 1.263 . S
N507 C511 1.389 . S
N508 C509 1.358 . S
N508 C510 1.400 . S
C509 N507 1.263 . S
C509 N508 1.358 . S
C509 H515 0.930 . S
C510 N508 1.400 . S
C510 C511 1.351 . S
C510 H527 0.930 . S
C511 N507 1.389 . S
C511 C510 1.351 . S
C511 H516 0.930 . S
O512 Cu506 1.974 . S
O512 C522 1.282 . S
C513 O514 1.261 . S
C513 O526 1.251 . S
O514 C513 1.261 . S
H515 C509 0.930 . S
H516 C511 0.930 . S
N517 Cu506 1.985 . S
N517 C519 1.335 . S
N517 C520 1.390 . S
N518 C519 1.345 . S
N518 C521 1.336 . S
C519 N517 1.335 . S
C519 N518 1.345 . S
C519 H524 0.930 . S
C520 N517 1.390 . S
C520 C521 1.346 . S
C520 H525 0.930 . S
C521 N518 1.336 . S
C521 C520 1.346 . S
C521 H528 0.929 . S
C522 O512 1.282 . S
C522 O523 1.216 . S
O523 C522 1.216 . S
H524 C519 0.930 . S
H525 C520 0.930 . S
O526 Cu506 1.959 . S
O526 C513 1.251 . S
H527 C510 0.930 . S
H528 C521 0.929 . S
Cu529 N530 1.999 . S
Cu529 O535 1.974 . S
Cu529 N540 1.985 . S
Cu529 O549 1.959 . S
N530 Cu529 1.999 . S
N530 C532 1.263 . S
N530 C534 1.389 . S
N531 C532 1.358 . S
N531 C533 1.400 . S
C532 N530 1.263 . S
C532 N531 1.358 . S
C532 H538 0.930 . S
C533 N531 1.400 . S
C533 C534 1.351 . S
C533 H550 0.930 . S
C534 N530 1.389 . S
C534 C533 1.351 . S
C534 H539 0.930 . S
O535 Cu529 1.974 . S
O535 C545 1.282 . S
C536 O537 1.261 . S
C536 O549 1.251 . S
O537 C536 1.261 . S
H538 C532 0.930 . S
H539 C534 0.930 . S
N540 Cu529 1.985 . S
N540 C542 1.335 . S
N540 C543 1.390 . S
N541 C542 1.345 . S
N541 C544 1.336 . S
C542 N540 1.335 . S
C542 N541 1.345 . S
C542 H547 0.930 . S
C543 N540 1.390 . S
C543 C544 1.346 . S
C543 H548 0.930 . S
C544 N541 1.336 . S
C544 C543 1.346 . S
C544 H551 0.929 . S
C545 O535 1.282 . S
C545 O546 1.216 . S
O546 C545 1.216 . S
H547 C542 0.930 . S
H548 C543 0.930 . S
O549 Cu529 1.959 . S
O549 C536 1.251 . S
H550 C533 0.930 . S
H551 C544 0.929 . S
H552 C558 0.930 . S
H553 C562 0.930 . S
H554 C567 0.929 . S
H555 C565 0.929 . S
H556 C560 0.929 . S
H557 C566 0.929 . S
C558 H552 0.930 . S
C558 C559 1.367 . S
C558 C566 1.378 . S
C559 C558 1.367 . S
C559 C567 1.433 . S
C560 H556 0.929 . S
C560 C562 1.378 . S
C560 C564 1.350 . S
C561 C564 1.463 . S
C561 C566 1.350 . S
C561 N569 1.427 . S
C562 H553 0.930 . S
C562 C560 1.378 . S
C562 C563 1.367 . S
C563 C562 1.367 . S
C563 C565 1.433 . S
C564 C560 1.350 . S
C564 C561 1.463 . S
C564 N568 1.427 . S
C565 H555 0.929 . S
C565 C563 1.433 . S
C565 N568 1.384 . S
C566 H557 0.929 . S
C566 C558 1.378 . S
C566 C561 1.350 . S
C567 H554 0.929 . S
C567 C559 1.433 . S
C567 N569 1.384 . S
N568 C564 1.427 . S
N568 C565 1.384 . S
N569 C561 1.427 . S
N569 C567 1.384 . S
H570 C576 0.930 . S
H571 C580 0.930 . S
H572 C585 0.929 . S
H573 C583 0.929 . S
H574 C578 0.929 . S
H575 C584 0.929 . S
C576 H570 0.930 . S
C576 C577 1.367 . S
C576 C584 1.378 . S
C577 C576 1.367 . S
C577 C585 1.433 . S
C578 H574 0.929 . S
C578 C580 1.378 . S
C578 C582 1.350 . S
C579 C582 1.463 . S
C579 C584 1.350 . S
C579 N587 1.427 . S
C580 H571 0.930 . S
C580 C578 1.378 . S
C580 C581 1.367 . S
C581 C580 1.367 . S
C581 C583 1.433 . S
C582 C578 1.350 . S
C582 C579 1.463 . S
C582 N586 1.427 . S
C583 H573 0.929 . S
C583 C581 1.433 . S
C583 N586 1.384 . S
C584 H575 0.929 . S
C584 C576 1.378 . S
C584 C579 1.350 . S
C585 H572 0.929 . S
C585 C577 1.433 . S
C585 N587 1.384 . S
N586 C582 1.427 . S
N586 C583 1.384 . S
N587 C579 1.427 . S
N587 C585 1.384 . S
H588 C594 0.930 . S
H589 C598 0.930 . S
H590 C603 0.929 . S
H591 C601 0.929 . S
H592 C596 0.929 . S
H593 C602 0.929 . S
C594 H588 0.930 . S
C594 C595 1.367 . S
C594 C602 1.378 . S
C595 C594 1.367 . S
C595 C603 1.433 . S
C596 H592 0.929 . S
C596 C598 1.378 . S
C596 C600 1.350 . S
C597 C600 1.463 . S
C597 C602 1.350 . S
C597 N605 1.427 . S
C598 H589 0.930 . S
C598 C596 1.378 . S
C598 C599 1.367 . S
C599 C598 1.367 . S
C599 C601 1.433 . S
C600 C596 1.350 . S
C600 C597 1.463 . S
C600 N604 1.427 . S
C601 H591 0.929 . S
C601 C599 1.433 . S
C601 N604 1.384 . S
C602 H593 0.929 . S
C602 C594 1.378 . S
C602 C597 1.350 . S
C603 H590 0.929 . S
C603 C595 1.433 . S
C603 N605 1.384 . S
N604 C600 1.427 . S
N604 C601 1.384 . S
N605 C597 1.427 . S
N605 C603 1.384 . S
H606 C612 0.930 . S
H607 C616 0.930 . S
H608 C621 0.929 . S
H609 C619 0.929 . S
H610 C614 0.929 . S
H611 C620 0.929 . S
C612 H606 0.930 . S
C612 C613 1.367 . S
C612 C620 1.378 . S
C613 C612 1.367 . S
C613 C621 1.433 . S
C614 H610 0.929 . S
C614 C616 1.378 . S
C614 C618 1.350 . S
C615 C618 1.463 . S
C615 C620 1.350 . S
C615 N623 1.427 . S
C616 H607 0.930 . S
C616 C614 1.378 . S
C616 C617 1.367 . S
C617 C616 1.367 . S
C617 C619 1.433 . S
C618 C614 1.350 . S
C618 C615 1.463 . S
C618 N622 1.427 . S
C619 H609 0.929 . S
C619 C617 1.433 . S
C619 N622 1.384 . S
C620 H611 0.929 . S
C620 C612 1.378 . S
C620 C615 1.350 . S
C621 H608 0.929 . S
C621 C613 1.433 . S
C621 N623 1.384 . S
N622 C618 1.427 . S
N622 C619 1.384 . S
N623 C615 1.427 . S
N623 C621 1.384 . S
H624 C630 0.930 . S
H625 C634 0.930 . S
H626 C639 0.929 . S
H627 C637 0.929 . S
H628 C632 0.929 . S
H629 C638 0.929 . S
C630 H624 0.930 . S
C630 C631 1.367 . S
C630 C638 1.378 . S
C631 C630 1.367 . S
C631 C639 1.433 . S
C632 H628 0.929 . S
C632 C634 1.378 . S
C632 C636 1.350 . S
C633 C636 1.463 . S
C633 C638 1.350 . S
C633 N641 1.427 . S
C634 H625 0.930 . S
C634 C632 1.378 . S
C634 C635 1.367 . S
C635 C634 1.367 . S
C635 C637 1.433 . S
C636 C632 1.350 . S
C636 C633 1.463 . S
C636 N640 1.427 . S
C637 H627 0.929 . S
C637 C635 1.433 . S
C637 N640 1.384 . S
C638 H629 0.929 . S
C638 C630 1.378 . S
C638 C633 1.350 . S
C639 H626 0.929 . S
C639 C631 1.433 . S
C639 N641 1.384 . S
N640 C636 1.427 . S
N640 C637 1.384 . S
N641 C633 1.427 . S
N641 C639 1.384 . S
H642 C648 0.930 . S
H643 C652 0.930 . S
H644 C657 0.929 . S
H645 C655 0.929 . S
H646 C650 0.929 . S
H647 C656 0.929 . S
C648 H642 0.930 . S
C648 C649 1.367 . S
C648 C656 1.378 . S
C649 C648 1.367 . S
C649 C657 1.433 . S
C650 H646 0.929 . S
C650 C652 1.378 . S
C650 C654 1.350 . S
C651 C654 1.463 . S
C651 C656 1.350 . S
C651 N659 1.427 . S
C652 H643 0.930 . S
C652 C650 1.378 . S
C652 C653 1.367 . S
C653 C652 1.367 . S
C653 C655 1.433 . S
C654 C650 1.350 . S
C654 C651 1.463 . S
C654 N658 1.427 . S
C655 H645 0.929 . S
C655 C653 1.433 . S
C655 N658 1.384 . S
C656 H647 0.929 . S
C656 C648 1.378 . S
C656 C651 1.350 . S
C657 H644 0.929 . S
C657 C649 1.433 . S
C657 N659 1.384 . S
N658 C654 1.427 . S
N658 C655 1.384 . S
N659 C651 1.427 . S
N659 C657 1.384 . S
H660 C666 0.930 . S
H661 C670 0.930 . S
H662 C675 0.929 . S
H663 C673 0.929 . S
H664 C668 0.929 . S
H665 C674 0.929 . S
C666 H660 0.930 . S
C666 C667 1.367 . S
C666 C674 1.378 . S
C667 C666 1.367 . S
C667 C675 1.433 . S
C668 H664 0.929 . S
C668 C670 1.378 . S
C668 C672 1.350 . S
C669 C672 1.463 . S
C669 C674 1.350 . S
C669 N677 1.427 . S
C670 H661 0.930 . S
C670 C668 1.378 . S
C670 C671 1.367 . S
C671 C670 1.367 . S
C671 C673 1.433 . S
C672 C668 1.350 . S
C672 C669 1.463 . S
C672 N676 1.427 . S
C673 H663 0.929 . S
C673 C671 1.433 . S
C673 N676 1.384 . S
C674 H665 0.929 . S
C674 C666 1.378 . S
C674 C669 1.350 . S
C675 H662 0.929 . S
C675 C667 1.433 . S
C675 N677 1.384 . S
N676 C672 1.427 . S
N676 C673 1.384 . S
N677 C669 1.427 . S
N677 C675 1.384 . S
H678 C684 0.930 . S
H679 C688 0.930 . S
H680 C693 0.929 . S
H681 C691 0.929 . S
H682 C686 0.929 . S
H683 C692 0.929 . S
C684 H678 0.930 . S
C684 C685 1.367 . S
C684 C692 1.378 . S
C685 C684 1.367 . S
C685 C693 1.433 . S
C686 H682 0.929 . S
C686 C688 1.378 . S
C686 C690 1.350 . S
C687 C690 1.463 . S
C687 C692 1.350 . S
C687 N695 1.427 . S
C688 H679 0.930 . S
C688 C686 1.378 . S
C688 C689 1.367 . S
C689 C688 1.367 . S
C689 C691 1.433 . S
C690 C686 1.350 . S
C690 C687 1.463 . S
C690 N694 1.427 . S
C691 H681 0.929 . S
C691 C689 1.433 . S
C691 N694 1.384 . S
C692 H683 0.929 . S
C692 C684 1.378 . S
C692 C687 1.350 . S
C693 H680 0.929 . S
C693 C685 1.433 . S
C693 N695 1.384 . S
N694 C690 1.427 . S
N694 C691 1.384 . S
N695 C687 1.427 . S
N695 C693 1.384 . S
H696 C702 0.930 . S
H697 C706 0.930 . S
H698 C711 0.929 . S
H699 C709 0.929 . S
H700 C704 0.929 . S
H701 C710 0.929 . S
C702 H696 0.930 . S
C702 C703 1.367 . S
C702 C710 1.378 . S
C703 C702 1.367 . S
C703 C711 1.433 . S
C704 H700 0.929 . S
C704 C706 1.378 . S
C704 C708 1.350 . S
C705 C708 1.463 . S
C705 C710 1.350 . S
C705 N713 1.427 . S
C706 H697 0.930 . S
C706 C704 1.378 . S
C706 C707 1.367 . S
C707 C706 1.367 . S
C707 C709 1.433 . S
C708 C704 1.350 . S
C708 C705 1.463 . S
C708 N712 1.427 . S
C709 H699 0.929 . S
C709 C707 1.433 . S
C709 N712 1.384 . S
C710 H701 0.929 . S
C710 C702 1.378 . S
C710 C705 1.350 . S
C711 H698 0.929 . S
C711 C703 1.433 . S
C711 N713 1.384 . S
N712 C708 1.427 . S
N712 C709 1.384 . S
N713 C705 1.427 . S
N713 C711 1.384 . S
H714 C720 0.930 . S
H715 C724 0.930 . S
H716 C729 0.929 . S
H717 C727 0.929 . S
H718 C722 0.929 . S
H719 C728 0.929 . S
C720 H714 0.930 . S
C720 C721 1.367 . S
C720 C728 1.378 . S
C721 C720 1.367 . S
C721 C729 1.433 . S
C722 H718 0.929 . S
C722 C724 1.378 . S
C722 C726 1.350 . S
C723 C726 1.463 . S
C723 C728 1.350 . S
C723 N731 1.427 . S
C724 H715 0.930 . S
C724 C722 1.378 . S
C724 C725 1.367 . S
C725 C724 1.367 . S
C725 C727 1.433 . S
C726 C722 1.350 . S
C726 C723 1.463 . S
C726 N730 1.427 . S
C727 H717 0.929 . S
C727 C725 1.433 . S
C727 N730 1.384 . S
C728 H719 0.929 . S
C728 C720 1.378 . S
C728 C723 1.350 . S
C729 H716 0.929 . S
C729 C721 1.433 . S
C729 N731 1.384 . S
N730 C726 1.427 . S
N730 C727 1.384 . S
N731 C723 1.427 . S
N731 C729 1.384 . S
H732 C738 0.930 . S
H733 C742 0.930 . S
H734 C747 0.929 . S
H735 C745 0.929 . S
H736 C740 0.929 . S
H737 C746 0.929 . S
C738 H732 0.930 . S
C738 C739 1.367 . S
C738 C746 1.378 . S
C739 C738 1.367 . S
C739 C747 1.433 . S
C740 H736 0.929 . S
C740 C742 1.378 . S
C740 C744 1.350 . S
C741 C744 1.463 . S
C741 C746 1.350 . S
C741 N749 1.427 . S
C742 H733 0.930 . S
C742 C740 1.378 . S
C742 C743 1.367 . S
C743 C742 1.367 . S
C743 C745 1.433 . S
C744 C740 1.350 . S
C744 C741 1.463 . S
C744 N748 1.427 . S
C745 H735 0.929 . S
C745 C743 1.433 . S
C745 N748 1.384 . S
C746 H737 0.929 . S
C746 C738 1.378 . S
C746 C741 1.350 . S
C747 H734 0.929 . S
C747 C739 1.433 . S
C747 N749 1.384 . S
N748 C744 1.427 . S
N748 C745 1.384 . S
N749 C741 1.427 . S
N749 C747 1.384 . S
H750 C756 0.930 . S
H751 C760 0.930 . S
H752 C765 0.929 . S
H753 C763 0.929 . S
H754 C758 0.929 . S
H755 C764 0.929 . S
C756 H750 0.930 . S
C756 C757 1.367 . S
C756 C764 1.378 . S
C757 C756 1.367 . S
C757 C765 1.433 . S
C758 H754 0.929 . S
C758 C760 1.378 . S
C758 C762 1.350 . S
C759 C762 1.463 . S
C759 C764 1.350 . S
C759 N767 1.427 . S
C760 H751 0.930 . S
C760 C758 1.378 . S
C760 C761 1.367 . S
C761 C760 1.367 . S
C761 C763 1.433 . S
C762 C758 1.350 . S
C762 C759 1.463 . S
C762 N766 1.427 . S
C763 H753 0.929 . S
C763 C761 1.433 . S
C763 N766 1.384 . S
C764 H755 0.929 . S
C764 C756 1.378 . S
C764 C759 1.350 . S
C765 H752 0.929 . S
C765 C757 1.433 . S
C765 N767 1.384 . S
N766 C762 1.427 . S
N766 C763 1.384 . S
N767 C759 1.427 . S
N767 C765 1.384 . S
H768 C774 0.930 . S
H769 C778 0.930 . S
H770 C783 0.929 . S
H771 C781 0.929 . S
H772 C776 0.929 . S
H773 C782 0.929 . S
C774 H768 0.930 . S
C774 C775 1.367 . S
C774 C782 1.378 . S
C775 C774 1.367 . S
C775 C783 1.433 . S
C776 H772 0.929 . S
C776 C778 1.378 . S
C776 C780 1.350 . S
C777 C780 1.463 . S
C777 C782 1.350 . S
C777 N785 1.427 . S
C778 H769 0.930 . S
C778 C776 1.378 . S
C778 C779 1.367 . S
C779 C778 1.367 . S
C779 C781 1.433 . S
C780 C776 1.350 . S
C780 C777 1.463 . S
C780 N784 1.427 . S
C781 H771 0.929 . S
C781 C779 1.433 . S
C781 N784 1.384 . S
C782 H773 0.929 . S
C782 C774 1.378 . S
C782 C777 1.350 . S
C783 H770 0.929 . S
C783 C775 1.433 . S
C783 N785 1.384 . S
N784 C780 1.427 . S
N784 C781 1.384 . S
N785 C777 1.427 . S
N785 C783 1.384 . S
H786 C792 0.930 . S
H787 C796 0.930 . S
H788 C801 0.929 . S
H789 C799 0.929 . S
H790 C794 0.929 . S
H791 C800 0.929 . S
C792 H786 0.930 . S
C792 C793 1.367 . S
C792 C800 1.378 . S
C793 C792 1.367 . S
C793 C801 1.433 . S
C794 H790 0.929 . S
C794 C796 1.378 . S
C794 C798 1.350 . S
C795 C798 1.463 . S
C795 C800 1.350 . S
C795 N803 1.427 . S
C796 H787 0.930 . S
C796 C794 1.378 . S
C796 C797 1.367 . S
C797 C796 1.367 . S
C797 C799 1.433 . S
C798 C794 1.350 . S
C798 C795 1.463 . S
C798 N802 1.427 . S
C799 H789 0.929 . S
C799 C797 1.433 . S
C799 N802 1.384 . S
C800 H791 0.929 . S
C800 C792 1.378 . S
C800 C795 1.350 . S
C801 H788 0.929 . S
C801 C793 1.433 . S
C801 N803 1.384 . S
N802 C798 1.427 . S
N802 C799 1.384 . S
N803 C795 1.427 . S
N803 C801 1.384 . S
H804 C810 0.930 . S
H805 C814 0.930 . S
H806 C819 0.929 . S
H807 C817 0.929 . S
H808 C812 0.929 . S
H809 C818 0.929 . S
C810 H804 0.930 . S
C810 C811 1.367 . S
C810 C818 1.378 . S
C811 C810 1.367 . S
C811 C819 1.433 . S
C812 H808 0.929 . S
C812 C814 1.378 . S
C812 C816 1.350 . S
C813 C816 1.463 . S
C813 C818 1.350 . S
C813 N821 1.427 . S
C814 H805 0.930 . S
C814 C812 1.378 . S
C814 C815 1.367 . S
C815 C814 1.367 . S
C815 C817 1.433 . S
C816 C812 1.350 . S
C816 C813 1.463 . S
C816 N820 1.427 . S
C817 H807 0.929 . S
C817 C815 1.433 . S
C817 N820 1.384 . S
C818 H809 0.929 . S
C818 C810 1.378 . S
C818 C813 1.350 . S
C819 H806 0.929 . S
C819 C811 1.433 . S
C819 N821 1.384 . S
N820 C816 1.427 . S
N820 C817 1.384 . S
N821 C813 1.427 . S
N821 C819 1.384 . S
H822 C828 0.930 . S
H823 C832 0.930 . S
H824 C837 0.929 . S
H825 C835 0.929 . S
H826 C830 0.929 . S
H827 C836 0.929 . S
C828 H822 0.930 . S
C828 C829 1.367 . S
C828 C836 1.378 . S
C829 C828 1.367 . S
C829 C837 1.433 . S
C830 H826 0.929 . S
C830 C832 1.378 . S
C830 C834 1.350 . S
C831 C834 1.463 . S
C831 C836 1.350 . S
C831 N839 1.427 . S
C832 H823 0.930 . S
C832 C830 1.378 . S
C832 C833 1.367 . S
C833 C832 1.367 . S
C833 C835 1.433 . S
C834 C830 1.350 . S
C834 C831 1.463 . S
C834 N838 1.427 . S
C835 H825 0.929 . S
C835 C833 1.433 . S
C835 N838 1.384 . S
C836 H827 0.929 . S
C836 C828 1.378 . S
C836 C831 1.350 . S
C837 H824 0.929 . S
C837 C829 1.433 . S
C837 N839 1.384 . S
N838 C834 1.427 . S
N838 C835 1.384 . S
N839 C831 1.427 . S
N839 C837 1.384 . S
H840 C846 0.930 . S
H841 C850 0.930 . S
H842 C855 0.929 . S
H843 C853 0.929 . S
H844 C848 0.929 . S
H845 C854 0.929 . S
C846 H840 0.930 . S
C846 C847 1.367 . S
C846 C854 1.378 . S
C847 C846 1.367 . S
C847 C855 1.433 . S
C848 H844 0.929 . S
C848 C850 1.378 . S
C848 C852 1.350 . S
C849 C852 1.463 . S
C849 C854 1.350 . S
C849 N857 1.427 . S
C850 H841 0.930 . S
C850 C848 1.378 . S
C850 C851 1.367 . S
C851 C850 1.367 . S
C851 C853 1.433 . S
C852 C848 1.350 . S
C852 C849 1.463 . S
C852 N856 1.427 . S
C853 H843 0.929 . S
C853 C851 1.433 . S
C853 N856 1.384 . S
C854 H845 0.929 . S
C854 C846 1.378 . S
C854 C849 1.350 . S
C855 H842 0.929 . S
C855 C847 1.433 . S
C855 N857 1.384 . S
N856 C852 1.427 . S
N856 C853 1.384 . S
N857 C849 1.427 . S
N857 C855 1.384 . S
H858 C864 0.930 . S
H859 C868 0.930 . S
H860 C873 0.929 . S
H861 C871 0.929 . S
H862 C866 0.929 . S
H863 C872 0.929 . S
C864 H858 0.930 . S
C864 C865 1.367 . S
C864 C872 1.378 . S
C865 C864 1.367 . S
C865 C873 1.433 . S
C866 H862 0.929 . S
C866 C868 1.378 . S
C866 C870 1.350 . S
C867 C870 1.463 . S
C867 C872 1.350 . S
C867 N875 1.427 . S
C868 H859 0.930 . S
C868 C866 1.378 . S
C868 C869 1.367 . S
C869 C868 1.367 . S
C869 C871 1.433 . S
C870 C866 1.350 . S
C870 C867 1.463 . S
C870 N874 1.427 . S
C871 H861 0.929 . S
C871 C869 1.433 . S
C871 N874 1.384 . S
C872 H863 0.929 . S
C872 C864 1.378 . S
C872 C867 1.350 . S
C873 H860 0.929 . S
C873 C865 1.433 . S
C873 N875 1.384 . S
N874 C870 1.427 . S
N874 C871 1.384 . S
N875 C867 1.427 . S
N875 C873 1.384 . S
H876 C882 0.930 . S
H877 C886 0.930 . S
H878 C891 0.929 . S
H879 C889 0.929 . S
H880 C884 0.929 . S
H881 C890 0.929 . S
C882 H876 0.930 . S
C882 C883 1.367 . S
C882 C890 1.378 . S
C883 C882 1.367 . S
C883 C891 1.433 . S
C884 H880 0.929 . S
C884 C886 1.378 . S
C884 C888 1.350 . S
C885 C888 1.463 . S
C885 C890 1.350 . S
C885 N893 1.427 . S
C886 H877 0.930 . S
C886 C884 1.378 . S
C886 C887 1.367 . S
C887 C886 1.367 . S
C887 C889 1.433 . S
C888 C884 1.350 . S
C888 C885 1.463 . S
C888 N892 1.427 . S
C889 H879 0.929 . S
C889 C887 1.433 . S
C889 N892 1.384 . S
C890 H881 0.929 . S
C890 C882 1.378 . S
C890 C885 1.350 . S
C891 H878 0.929 . S
C891 C883 1.433 . S
C891 N893 1.384 . S
N892 C888 1.427 . S
N892 C889 1.384 . S
N893 C885 1.427 . S
N893 C891 1.384 . S
H894 C900 0.930 . S
H895 C904 0.930 . S
H896 C909 0.929 . S
H897 C907 0.929 . S
H898 C902 0.929 . S
H899 C908 0.929 . S
C900 H894 0.930 . S
C900 C901 1.367 . S
C900 C908 1.378 . S
C901 C900 1.367 . S
C901 C909 1.433 . S
C902 H898 0.929 . S
C902 C904 1.378 . S
C902 C906 1.350 . S
C903 C906 1.463 . S
C903 C908 1.350 . S
C903 N911 1.427 . S
C904 H895 0.930 . S
C904 C902 1.378 . S
C904 C905 1.367 . S
C905 C904 1.367 . S
C905 C907 1.433 . S
C906 C902 1.350 . S
C906 C903 1.463 . S
C906 N910 1.427 . S
C907 H897 0.929 . S
C907 C905 1.433 . S
C907 N910 1.384 . S
C908 H899 0.929 . S
C908 C900 1.378 . S
C908 C903 1.350 . S
C909 H896 0.929 . S
C909 C901 1.433 . S
C909 N911 1.384 . S
N910 C906 1.427 . S
N910 C907 1.384 . S
N911 C903 1.427 . S
N911 C909 1.384 . S
H912 C918 0.930 . S
H913 C922 0.930 . S
H914 C927 0.929 . S
H915 C925 0.929 . S
H916 C920 0.929 . S
H917 C926 0.929 . S
C918 H912 0.930 . S
C918 C919 1.367 . S
C918 C926 1.378 . S
C919 C918 1.367 . S
C919 C927 1.433 . S
C920 H916 0.929 . S
C920 C922 1.378 . S
C920 C924 1.350 . S
C921 C924 1.463 . S
C921 C926 1.350 . S
C921 N929 1.427 . S
C922 H913 0.930 . S
C922 C920 1.378 . S
C922 C923 1.367 . S
C923 C922 1.367 . S
C923 C925 1.433 . S
C924 C920 1.350 . S
C924 C921 1.463 . S
C924 N928 1.427 . S
C925 H915 0.929 . S
C925 C923 1.433 . S
C925 N928 1.384 . S
C926 H917 0.929 . S
C926 C918 1.378 . S
C926 C921 1.350 . S
C927 H914 0.929 . S
C927 C919 1.433 . S
C927 N929 1.384 . S
N928 C924 1.427 . S
N928 C925 1.384 . S
N929 C921 1.427 . S
N929 C927 1.384 . S
H930 C936 0.930 . S
H931 C940 0.930 . S
H932 C945 0.929 . S
H933 C943 0.929 . S
H934 C938 0.929 . S
H935 C944 0.929 . S
C936 H930 0.930 . S
C936 C937 1.367 . S
C936 C944 1.378 . S
C937 C936 1.367 . S
C937 C945 1.433 . S
C938 H934 0.929 . S
C938 C940 1.378 . S
C938 C942 1.350 . S
C939 C942 1.463 . S
C939 C944 1.350 . S
C939 N947 1.427 . S
C940 H931 0.930 . S
C940 C938 1.378 . S
C940 C941 1.367 . S
C941 C940 1.367 . S
C941 C943 1.433 . S
C942 C938 1.350 . S
C942 C939 1.463 . S
C942 N946 1.427 . S
C943 H933 0.929 . S
C943 C941 1.433 . S
C943 N946 1.384 . S
C944 H935 0.929 . S
C944 C936 1.378 . S
C944 C939 1.350 . S
C945 H932 0.929 . S
C945 C937 1.433 . S
C945 N947 1.384 . S
N946 C942 1.427 . S
N946 C943 1.384 . S
N947 C939 1.427 . S
N947 C945 1.384 . S
H948 C954 0.930 . S
H949 C958 0.930 . S
H950 C963 0.929 . S
H951 C961 0.929 . S
H952 C956 0.929 . S
H953 C962 0.929 . S
C954 H948 0.930 . S
C954 C955 1.367 . S
C954 C962 1.378 . S
C955 C954 1.367 . S
C955 C963 1.433 . S
C956 H952 0.929 . S
C956 C958 1.378 . S
C956 C960 1.350 . S
C957 C960 1.463 . S
C957 C962 1.350 . S
C957 N965 1.427 . S
C958 H949 0.930 . S
C958 C956 1.378 . S
C958 C959 1.367 . S
C959 C958 1.367 . S
C959 C961 1.433 . S
C960 C956 1.350 . S
C960 C957 1.463 . S
C960 N964 1.427 . S
C961 H951 0.929 . S
C961 C959 1.433 . S
C961 N964 1.384 . S
C962 H953 0.929 . S
C962 C954 1.378 . S
C962 C957 1.350 . S
C963 H950 0.929 . S
C963 C955 1.433 . S
C963 N965 1.384 . S
N964 C960 1.427 . S
N964 C961 1.384 . S
N965 C957 1.427 . S
N965 C963 1.384 . S
H966 C972 0.930 . S
H967 C976 0.930 . S
H968 C981 0.929 . S
H969 C979 0.929 . S
H970 C974 0.929 . S
H971 C980 0.929 . S
C972 H966 0.930 . S
C972 C973 1.367 . S
C972 C980 1.378 . S
C973 C972 1.367 . S
C973 C981 1.433 . S
C974 H970 0.929 . S
C974 C976 1.378 . S
C974 C978 1.350 . S
C975 C978 1.463 . S
C975 C980 1.350 . S
C975 N983 1.427 . S
C976 H967 0.930 . S
C976 C974 1.378 . S
C976 C977 1.367 . S
C977 C976 1.367 . S
C977 C979 1.433 . S
C978 C974 1.350 . S
C978 C975 1.463 . S
C978 N982 1.427 . S
C979 H969 0.929 . S
C979 C977 1.433 . S
C979 N982 1.384 . S
C980 H971 0.929 . S
C980 C972 1.378 . S
C980 C975 1.350 . S
C981 H968 0.929 . S
C981 C973 1.433 . S
C981 N983 1.384 . S
N982 C978 1.427 . S
N982 C979 1.384 . S
N983 C975 1.427 . S
N983 C981 1.384 . S
H984 C990 0.930 . S
H985 C994 0.930 . S
H986 C999 0.929 . S
H987 C997 0.929 . S
H988 C992 0.929 . S
H989 C998 0.929 . S
C990 H984 0.930 . S
C990 C991 1.367 . S
C990 C998 1.378 . S
C991 C990 1.367 . S
C991 C999 1.433 . S
C992 H988 0.929 . S
C992 C994 1.378 . S
C992 C996 1.350 . S
C993 C996 1.463 . S
C993 C998 1.350 . S
C993 N1001 1.427 . S
C994 H985 0.930 . S
C994 C992 1.378 . S
C994 C995 1.367 . S
C995 C994 1.367 . S
C995 C997 1.433 . S
C996 C992 1.350 . S
C996 C993 1.463 . S
C996 N1000 1.427 . S
C997 H987 0.929 . S
C997 C995 1.433 . S
C997 N1000 1.384 . S
C998 H989 0.929 . S
C998 C990 1.378 . S
C998 C993 1.350 . S
C999 H986 0.929 . S
C999 C991 1.433 . S
C999 N1001 1.384 . S
N1000 C996 1.427 . S
N1000 C997 1.384 . S
N1001 C993 1.427 . S
N1001 C999 1.384 . S
H1002 C1008 0.930 . S
H1003 C1012 0.930 . S
H1004 C1017 0.929 . S
H1005 C1015 0.929 . S
H1006 C1010 0.929 . S
H1007 C1016 0.929 . S
C1008 H1002 0.930 . S
C1008 C1009 1.367 . S
C1008 C1016 1.378 . S
C1009 C1008 1.367 . S
C1009 C1017 1.433 . S
C1010 H1006 0.929 . S
C1010 C1012 1.378 . S
C1010 C1014 1.350 . S
C1011 C1014 1.463 . S
C1011 C1016 1.350 . S
C1011 N1019 1.427 . S
C1012 H1003 0.930 . S
C1012 C1010 1.378 . S
C1012 C1013 1.367 . S
C1013 C1012 1.367 . S
C1013 C1015 1.433 . S
C1014 C1010 1.350 . S
C1014 C1011 1.463 . S
C1014 N1018 1.427 . S
C1015 H1005 0.929 . S
C1015 C1013 1.433 . S
C1015 N1018 1.384 . S
C1016 H1007 0.929 . S
C1016 C1008 1.378 . S
C1016 C1011 1.350 . S
C1017 H1004 0.929 . S
C1017 C1009 1.433 . S
C1017 N1019 1.384 . S
N1018 C1014 1.427 . S
N1018 C1015 1.384 . S
N1019 C1011 1.427 . S
N1019 C1017 1.384 . S
H1020 C1026 0.930 . S
H1021 C1030 0.930 . S
H1022 C1035 0.929 . S
H1023 C1033 0.929 . S
H1024 C1028 0.929 . S
H1025 C1034 0.929 . S
C1026 H1020 0.930 . S
C1026 C1027 1.367 . S
C1026 C1034 1.378 . S
C1027 C1026 1.367 . S
C1027 C1035 1.433 . S
C1028 H1024 0.929 . S
C1028 C1030 1.378 . S
C1028 C1032 1.350 . S
C1029 C1032 1.463 1_565 S
C1029 C1034 1.350 . S
C1029 N1037 1.427 . S
C1030 H1021 0.930 . S
C1030 C1028 1.378 . S
C1030 C1031 1.367 . S
C1031 C1030 1.367 . S
C1031 C1033 1.433 . S
C1032 C1028 1.350 . S
C1032 C1029 1.463 1_545 S
C1032 N1036 1.427 . S
C1033 H1023 0.929 . S
C1033 C1031 1.433 . S
C1033 N1036 1.384 . S
C1034 H1025 0.929 . S
C1034 C1026 1.378 . S
C1034 C1029 1.350 . S
C1035 H1022 0.929 . S
C1035 C1027 1.433 . S
C1035 N1037 1.384 . S
N1036 C1032 1.427 . S
N1036 C1033 1.384 . S
N1037 C1029 1.427 . S
N1037 C1035 1.384 . S
H1038 C1044 0.930 . S
H1039 C1048 0.930 . S
H1040 C1053 0.929 . S
H1041 C1051 0.929 . S
H1042 C1046 0.929 . S
H1043 C1052 0.929 . S
C1044 H1038 0.930 . S
C1044 C1045 1.367 . S
C1044 C1052 1.378 . S
C1045 C1044 1.367 . S
C1045 C1053 1.433 . S
C1046 H1042 0.929 . S
C1046 C1048 1.378 . S
C1046 C1050 1.350 . S
C1047 C1050 1.463 1_455 S
C1047 C1052 1.350 . S
C1047 N1055 1.427 1_455 S
C1048 H1039 0.930 . S
C1048 C1046 1.378 . S
C1048 C1049 1.367 . S
C1049 C1048 1.367 . S
C1049 C1051 1.433 . S
C1050 C1046 1.350 . S
C1050 C1047 1.463 1_655 S
C1050 N1054 1.427 . S
C1051 H1041 0.929 . S
C1051 C1049 1.433 . S
C1051 N1054 1.384 . S
C1052 H1043 0.929 . S
C1052 C1044 1.378 . S
C1052 C1047 1.350 . S
C1053 H1040 0.929 . S
C1053 C1045 1.433 . S
C1053 N1055 1.384 1_455 S
N1054 C1050 1.427 . S
N1054 C1051 1.384 . S
N1055 C1047 1.427 1_655 S
N1055 C1053 1.384 1_655 S
H1056 C1062 0.930 . S
H1057 C1066 0.930 . S
H1058 C1071 0.929 . S
H1059 C1069 0.929 . S
H1060 C1064 0.929 . S
H1061 C1070 0.929 . S
C1062 H1056 0.930 . S
C1062 C1063 1.367 . S
C1062 C1070 1.378 . S
C1063 C1062 1.367 . S
C1063 C1071 1.433 . S
C1064 H1060 0.929 . S
C1064 C1066 1.378 . S
C1064 C1068 1.350 1_545 S
C1065 C1068 1.463 . S
C1065 C1070 1.350 . S
C1065 N1073 1.427 . S
C1066 H1057 0.930 . S
C1066 C1064 1.378 . S
C1066 C1067 1.367 . S
C1067 C1066 1.367 . S
C1067 C1069 1.433 . S
C1068 C1064 1.350 1_565 S
C1068 C1065 1.463 . S
C1068 N1072 1.427 . S
C1069 H1059 0.929 . S
C1069 C1067 1.433 . S
C1069 N1072 1.384 1_545 S
C1070 H1061 0.929 . S
C1070 C1062 1.378 . S
C1070 C1065 1.350 . S
C1071 H1058 0.929 . S
C1071 C1063 1.433 . S
C1071 N1073 1.384 . S
N1072 C1068 1.427 . S
N1072 C1069 1.384 1_565 S
N1073 C1065 1.427 . S
N1073 C1071 1.384 . S
H1074 C1080 0.930 . S
H1075 C1084 0.930 . S
H1076 C1089 0.929 . S
H1077 C1087 0.929 . S
H1078 C1082 0.929 . S
H1079 C1088 0.940 . S
C1080 H1074 0.930 . S
C1080 C1081 1.367 . S
C1080 C1088 1.378 . S
C1081 C1080 1.367 . S
C1081 C1089 1.433 . S
C1082 H1078 0.929 . S
C1082 C1084 1.378 . S
C1082 C1086 1.350 . S
C1083 C1086 1.463 1_655 S
C1083 C1088 1.350 . S
C1083 N1091 1.427 . S
C1084 H1075 0.930 . S
C1084 C1082 1.378 . S
C1084 C1085 1.367 . S
C1085 C1084 1.367 . S
C1085 C1087 1.433 . S
C1086 C1082 1.350 . S
C1086 C1083 1.463 1_455 S
C1086 N1090 1.427 . S
C1087 H1077 0.929 . S
C1087 C1085 1.433 . S
C1087 N1090 1.384 . S
C1088 H1079 0.940 . S
C1088 C1080 1.378 . S
C1088 C1083 1.350 . S
C1089 H1076 0.929 . S
C1089 C1081 1.433 . S
C1089 N1091 1.384 . S
N1090 C1086 1.427 . S
N1090 C1087 1.384 . S
N1091 C1083 1.427 . S
N1091 C1089 1.384 . S
H1092 C1098 0.930 . S
H1093 C1102 0.930 . S
H1094 C1107 0.929 . S
H1095 C1105 0.929 . S
H1096 C1100 0.929 . S
H1097 C1106 0.929 . S
C1098 H1092 0.930 . S
C1098 C1099 1.367 . S
C1098 C1106 1.378 . S
C1099 C1098 1.367 . S
C1099 C1107 1.433 . S
C1100 H1096 0.929 . S
C1100 C1102 1.378 . S
C1100 C1104 1.350 . S
C1101 C1104 1.463 . S
C1101 C1106 1.350 . S
C1101 N1109 1.427 . S
C1102 H1093 0.930 . S
C1102 C1100 1.378 . S
C1102 C1103 1.367 . S
C1103 C1102 1.367 . S
C1103 C1105 1.433 . S
C1104 C1100 1.350 . S
C1104 C1101 1.463 . S
C1104 N1108 1.427 . S
C1105 H1095 0.929 . S
C1105 C1103 1.433 . S
C1105 N1108 1.384 . S
C1106 H1097 0.929 . S
C1106 C1098 1.378 . S
C1106 C1101 1.350 . S
C1107 H1094 0.929 . S
C1107 C1099 1.433 . S
C1107 N1109 1.384 . S
N1108 C1104 1.427 . S
N1108 C1105 1.384 . S
N1109 C1101 1.427 . S
N1109 C1107 1.384 . S
H1110 C1116 0.930 . S
H1111 C1120 0.930 . S
H1112 C1125 0.929 . S
H1113 C1123 0.929 . S
H1114 C1118 0.929 . S
H1115 C1124 0.929 . S
C1116 H1110 0.930 . S
C1116 C1117 1.367 . S
C1116 C1124 1.378 . S
C1117 C1116 1.367 . S
C1117 C1125 1.433 . S
C1118 H1114 0.929 . S
C1118 C1120 1.378 . S
C1118 C1122 1.350 . S
C1119 C1122 1.463 . S
C1119 C1124 1.350 . S
C1119 N1127 1.427 . S
C1120 H1111 0.930 . S
C1120 C1118 1.378 . S
C1120 C1121 1.367 . S
C1121 C1120 1.367 . S
C1121 C1123 1.433 . S
C1122 C1118 1.350 . S
C1122 C1119 1.463 . S
C1122 N1126 1.427 . S
C1123 H1113 0.929 . S
C1123 C1121 1.433 . S
C1123 N1126 1.384 . S
C1124 H1115 0.929 . S
C1124 C1116 1.378 . S
C1124 C1119 1.350 . S
C1125 H1112 0.929 . S
C1125 C1117 1.433 . S
C1125 N1127 1.384 . S
N1126 C1122 1.427 . S
N1126 C1123 1.384 . S
N1127 C1119 1.427 . S
N1127 C1125 1.384 . S
H1128 C1134 0.930 . S
H1129 C1138 0.930 . S
H1130 C1143 0.929 . S
H1131 C1141 0.929 . S
H1132 C1136 0.929 . S
H1133 C1142 0.929 . S
C1134 H1128 0.930 . S
C1134 C1135 1.367 . S
C1134 C1142 1.378 . S
C1135 C1134 1.367 . S
C1135 C1143 1.433 . S
C1136 H1132 0.929 . S
C1136 C1138 1.378 . S
C1136 C1140 1.350 . S
C1137 C1140 1.463 . S
C1137 C1142 1.350 . S
C1137 N1145 1.427 . S
C1138 H1129 0.930 . S
C1138 C1136 1.378 . S
C1138 C1139 1.367 . S
C1139 C1138 1.367 . S
C1139 C1141 1.433 . S
C1140 C1136 1.350 . S
C1140 C1137 1.463 . S
C1140 N1144 1.427 . S
C1141 H1131 0.929 . S
C1141 C1139 1.433 . S
C1141 N1144 1.384 . S
C1142 H1133 0.929 . S
C1142 C1134 1.378 . S
C1142 C1137 1.350 . S
C1143 H1130 0.929 . S
C1143 C1135 1.433 . S
C1143 N1145 1.384 . S
N1144 C1140 1.427 . S
N1144 C1141 1.384 . S
N1145 C1137 1.427 . S
N1145 C1143 1.384 . S
H1146 C1152 0.930 . S
H1147 C1156 0.930 . S
H1148 C1161 0.929 . S
H1149 C1159 0.929 . S
H1150 C1154 0.929 . S
H1151 C1160 0.929 . S
C1152 H1146 0.930 . S
C1152 C1153 1.367 . S
C1152 C1160 1.378 . S
C1153 C1152 1.367 . S
C1153 C1161 1.433 . S
C1154 H1150 0.929 . S
C1154 C1156 1.378 . S
C1154 C1158 1.347 1_556 S
C1155 C1158 1.466 . S
C1155 C1160 1.350 . S
C1155 N1163 1.427 . S
C1156 H1147 0.930 . S
C1156 C1154 1.378 . S
C1156 C1157 1.367 . S
C1157 C1156 1.367 . S
C1157 C1159 1.433 . S
C1158 C1154 1.347 1_554 S
C1158 C1155 1.466 . S
C1158 N1162 1.427 1_554 S
C1159 H1149 0.929 . S
C1159 C1157 1.433 . S
C1159 N1162 1.384 . S
C1160 H1151 0.929 . S
C1160 C1152 1.378 . S
C1160 C1155 1.350 . S
C1161 H1148 0.929 . S
C1161 C1153 1.433 . S
C1161 N1163 1.384 . S
N1162 C1158 1.427 1_556 S
N1162 C1159 1.384 . S
N1163 C1155 1.427 . S
N1163 C1161 1.384 . S
H1164 C1170 0.930 . S
H1165 C1174 0.930 . S
H1166 C1179 0.929 . S
H1167 C1177 0.929 . S
H1168 C1172 0.929 . S
H1169 C1178 0.929 . S
C1170 H1164 0.930 . S
C1170 C1171 1.367 . S
C1170 C1178 1.378 . S
C1171 C1170 1.367 . S
C1171 C1179 1.433 . S
C1172 H1168 0.929 . S
C1172 C1174 1.378 . S
C1172 C1176 1.350 . S
C1173 C1176 1.463 . S
C1173 C1178 1.350 . S
C1173 N1181 1.427 . S
C1174 H1165 0.930 . S
C1174 C1172 1.378 . S
C1174 C1175 1.367 . S
C1175 C1174 1.367 . S
C1175 C1177 1.433 . S
C1176 C1172 1.350 . S
C1176 C1173 1.463 . S
C1176 N1180 1.427 . S
C1177 H1167 0.929 . S
C1177 C1175 1.433 . S
C1177 N1180 1.384 . S
C1178 H1169 0.929 . S
C1178 C1170 1.378 . S
C1178 C1173 1.350 . S
C1179 H1166 0.929 . S
C1179 C1171 1.433 . S
C1179 N1181 1.384 . S
N1180 C1176 1.427 . S
N1180 C1177 1.384 . S
N1181 C1173 1.427 . S
N1181 C1179 1.384 . S
H1182 C1188 0.930 . S
H1183 C1192 0.930 . S
H1184 C1197 0.929 . S
H1185 C1195 0.929 . S
H1186 C1190 0.929 . S
H1187 C1196 0.929 . S
C1188 H1182 0.930 . S
C1188 C1189 1.367 . S
C1188 C1196 1.378 . S
C1189 C1188 1.367 . S
C1189 C1197 1.433 . S
C1190 H1186 0.929 . S
C1190 C1192 1.378 . S
C1190 C1194 1.350 . S
C1191 C1194 1.476 . S
C1191 C1196 1.344 1_554 S
C1191 N1199 1.421 1_554 S
C1192 H1183 0.930 . S
C1192 C1190 1.378 . S
C1192 C1193 1.367 . S
C1193 C1192 1.367 . S
C1193 C1195 1.433 . S
C1194 C1190 1.350 . S
C1194 C1191 1.476 . S
C1194 N1198 1.427 . S
C1195 H1185 0.929 . S
C1195 C1193 1.433 . S
C1195 N1198 1.384 . S
C1196 H1187 0.929 . S
C1196 C1188 1.378 . S
C1196 C1191 1.344 1_556 S
C1197 H1184 0.929 . S
C1197 C1189 1.433 . S
C1197 N1199 1.384 . S
N1198 C1194 1.427 . S
N1198 C1195 1.384 . S
N1199 C1191 1.421 1_556 S
N1199 C1197 1.384 . S
H1200 C1206 0.930 . S
H1201 C1210 0.930 . S
H1202 C1215 0.929 . S
H1203 C1213 0.929 . S
H1204 C1208 0.929 . S
H1205 C1214 0.929 . S
C1206 H1200 0.930 . S
C1206 C1207 1.367 . S
C1206 C1214 1.378 . S
C1207 C1206 1.367 . S
C1207 C1215 1.433 . S
C1208 H1204 0.929 . S
C1208 C1210 1.378 . S
C1208 C1212 1.350 . S
C1209 C1212 1.463 . S
C1209 C1214 1.350 . S
C1209 N1217 1.427 . S
C1210 H1201 0.930 . S
C1210 C1208 1.378 . S
C1210 C1211 1.367 . S
C1211 C1210 1.367 . S
C1211 C1213 1.433 . S
C1212 C1208 1.350 . S
C1212 C1209 1.463 . S
C1212 N1216 1.427 . S
C1213 H1203 0.929 . S
C1213 C1211 1.433 . S
C1213 N1216 1.384 . S
C1214 H1205 0.929 . S
C1214 C1206 1.378 . S
C1214 C1209 1.350 . S
C1215 H1202 0.929 . S
C1215 C1207 1.433 . S
C1215 N1217 1.384 . S
N1216 C1212 1.427 . S
N1216 C1213 1.384 . S
N1217 C1209 1.427 . S
N1217 C1215 1.384 . S
H1218 C1224 0.930 . S
H1219 C1228 0.930 . S
H1220 C1233 0.929 . S
H1221 C1231 0.929 . S
H1222 C1226 0.929 . S
H1223 C1232 0.929 . S
C1224 H1218 0.930 . S
C1224 C1225 1.367 . S
C1224 C1232 1.378 . S
C1225 C1224 1.367 . S
C1225 C1233 1.433 . S
C1226 H1222 0.929 . S
C1226 C1228 1.378 . S
C1226 C1230 1.350 . S
C1227 C1230 1.463 . S
C1227 C1232 1.350 . S
C1227 N1235 1.427 . S
C1228 H1219 0.930 . S
C1228 C1226 1.378 . S
C1228 C1229 1.367 . S
C1229 C1228 1.367 . S
C1229 C1231 1.433 . S
C1230 C1226 1.350 . S
C1230 C1227 1.463 . S
C1230 N1234 1.427 . S
C1231 H1221 0.929 . S
C1231 C1229 1.433 . S
C1231 N1234 1.384 . S
C1232 H1223 0.929 . S
C1232 C1224 1.378 . S
C1232 C1227 1.350 . S
C1233 H1220 0.929 . S
C1233 C1225 1.433 . S
C1233 N1235 1.384 . S
N1234 C1230 1.427 . S
N1234 C1231 1.384 . S
N1235 C1227 1.427 . S
N1235 C1233 1.384 . S
H1236 C1242 0.930 . S
H1237 C1246 0.930 . S
H1238 C1251 0.929 . S
H1239 C1249 0.929 . S
H1240 C1244 0.929 . S
H1241 C1250 0.929 . S
C1242 H1236 0.930 . S
C1242 C1243 1.367 . S
C1242 C1250 1.378 . S
C1243 C1242 1.367 . S
C1243 C1251 1.433 . S
C1244 H1240 0.929 . S
C1244 C1246 1.378 . S
C1244 C1248 1.350 . S
C1245 C1248 1.463 1_545 S
C1245 C1250 1.350 . S
C1245 N1253 1.427 . S
C1246 H1237 0.930 . S
C1246 C1244 1.378 . S
C1246 C1247 1.367 . S
C1247 C1246 1.367 . S
C1247 C1249 1.433 . S
C1248 C1244 1.350 . S
C1248 C1245 1.463 1_565 S
C1248 N1252 1.427 . S
C1249 H1239 0.929 . S
C1249 C1247 1.433 . S
C1249 N1252 1.384 . S
C1250 H1241 0.929 . S
C1250 C1242 1.378 . S
C1250 C1245 1.350 . S
C1251 H1238 0.929 . S
C1251 C1243 1.433 . S
C1251 N1253 1.384 . S
N1252 C1248 1.427 . S
N1252 C1249 1.384 . S
N1253 C1245 1.427 . S
N1253 C1251 1.384 . S
H1254 C1260 0.930 . S
H1255 C1264 0.930 . S
H1256 C1269 0.929 . S
H1257 C1267 0.929 . S
H1258 C1262 0.929 . S
H1259 C1268 0.929 . S
C1260 H1254 0.930 . S
C1260 C1261 1.367 . S
C1260 C1268 1.378 . S
C1261 C1260 1.367 . S
C1261 C1269 1.433 . S
C1262 H1258 0.929 . S
C1262 C1264 1.378 . S
C1262 C1266 1.350 . S
C1263 C1266 1.463 1_455 S
C1263 C1268 1.350 . S
C1263 N1271 1.427 . S
C1264 H1255 0.930 . S
C1264 C1262 1.378 . S
C1264 C1265 1.367 . S
C1265 C1264 1.367 . S
C1265 C1267 1.433 . S
C1266 C1262 1.350 . S
C1266 C1263 1.463 1_655 S
C1266 N1270 1.427 . S
C1267 H1257 0.929 . S
C1267 C1265 1.433 . S
C1267 N1270 1.384 . S
C1268 H1259 0.929 . S
C1268 C1260 1.378 . S
C1268 C1263 1.350 . S
C1269 H1256 0.929 . S
C1269 C1261 1.433 . S
C1269 N1271 1.384 . S
N1270 C1266 1.427 . S
N1270 C1267 1.384 . S
N1271 C1263 1.427 . S
N1271 C1269 1.384 . S
H1272 C1278 0.930 . S
H1273 C1282 0.930 . S
H1274 C1287 0.929 . S
H1275 C1285 0.929 . S
H1276 C1280 0.929 1_545 S
H1277 C1286 0.929 . S
C1278 H1272 0.930 . S
C1278 C1279 1.367 . S
C1278 C1286 1.378 . S
C1279 C1278 1.367 . S
C1279 C1287 1.433 . S
C1280 H1276 0.929 1_565 S
C1280 C1282 1.378 . S
C1280 C1284 1.350 1_565 S
C1281 C1284 1.463 . S
C1281 C1286 1.350 . S
C1281 N1289 1.427 . S
C1282 H1273 0.930 . S
C1282 C1280 1.378 . S
C1282 C1283 1.367 . S
C1283 C1282 1.367 . S
C1283 C1285 1.433 . S
C1284 C1280 1.350 1_545 S
C1284 C1281 1.463 . S
C1284 N1288 1.427 1_545 S
C1285 H1275 0.929 . S
C1285 C1283 1.433 . S
C1285 N1288 1.384 . S
C1286 H1277 0.929 . S
C1286 C1278 1.378 . S
C1286 C1281 1.350 . S
C1287 H1274 0.929 . S
C1287 C1279 1.433 . S
C1287 N1289 1.384 . S
N1288 C1284 1.427 1_565 S
N1288 C1285 1.384 . S
N1289 C1281 1.427 . S
N1289 C1287 1.384 . S
H1290 C1296 0.930 . S
H1291 C1300 0.930 . S
H1292 C1305 0.929 . S
H1293 C1303 0.929 . S
H1294 C1298 0.929 . S
H1295 C1304 0.929 . S
C1296 H1290 0.930 . S
C1296 C1297 1.367 . S
C1296 C1304 1.378 . S
C1297 C1296 1.367 . S
C1297 C1305 1.433 . S
C1298 H1294 0.929 . S
C1298 C1300 1.378 . S
C1298 C1302 1.350 . S
C1299 C1302 1.463 1_455 S
C1299 C1304 1.350 . S
C1299 N1307 1.427 . S
C1300 H1291 0.930 . S
C1300 C1298 1.378 . S
C1300 C1301 1.367 . S
C1301 C1300 1.367 . S
C1301 C1303 1.433 . S
C1302 C1298 1.350 . S
C1302 C1299 1.463 1_655 S
C1302 N1306 1.427 . S
C1303 H1293 0.929 . S
C1303 C1301 1.433 . S
C1303 N1306 1.384 . S
C1304 H1295 0.929 . S
C1304 C1296 1.378 . S
C1304 C1299 1.350 . S
C1305 H1292 0.929 . S
C1305 C1297 1.433 . S
C1305 N1307 1.384 . S
N1306 C1302 1.427 . S
N1306 C1303 1.384 . S
N1307 C1299 1.427 . S
N1307 C1305 1.384 . S
H1308 C1314 0.930 . S
H1309 C1318 0.930 . S
H1310 C1323 0.929 . S
H1311 C1321 0.929 . S
H1312 C1316 0.929 . S
H1313 C1322 0.929 . S
C1314 H1308 0.930 . S
C1314 C1315 1.367 . S
C1314 C1322 1.378 . S
C1315 C1314 1.367 . S
C1315 C1323 1.433 . S
C1316 H1312 0.929 . S
C1316 C1318 1.378 . S
C1316 C1320 1.350 . S
C1317 C1320 1.463 . S
C1317 C1322 1.350 . S
C1317 N1325 1.427 . S
C1318 H1309 0.930 . S
C1318 C1316 1.378 . S
C1318 C1319 1.367 . S
C1319 C1318 1.367 . S
C1319 C1321 1.433 . S
C1320 C1316 1.350 . S
C1320 C1317 1.463 . S
C1320 N1324 1.427 . S
C1321 H1311 0.929 . S
C1321 C1319 1.433 . S
C1321 N1324 1.384 . S
C1322 H1313 0.929 . S
C1322 C1314 1.378 . S
C1322 C1317 1.350 . S
C1323 H1310 0.929 . S
C1323 C1315 1.433 . S
C1323 N1325 1.384 . S
N1324 C1320 1.427 . S
N1324 C1321 1.384 . S
N1325 C1317 1.427 . S
N1325 C1323 1.384 . S
H1326 C1332 0.930 . S
H1327 C1336 0.930 . S
H1328 C1341 0.929 . S
H1329 C1339 0.929 . S
H1330 C1334 0.929 . S
H1331 C1340 0.929 . S
C1332 H1326 0.930 . S
C1332 C1333 1.367 . S
C1332 C1340 1.378 . S
C1333 C1332 1.367 . S
C1333 C1341 1.433 . S
C1334 H1330 0.929 . S
C1334 C1336 1.378 . S
C1334 C1338 1.350 . S
C1335 C1338 1.463 . S
C1335 C1340 1.350 . S
C1335 N1343 1.427 . S
C1336 H1327 0.930 . S
C1336 C1334 1.378 . S
C1336 C1337 1.367 . S
C1337 C1336 1.367 . S
C1337 C1339 1.433 . S
C1338 C1334 1.350 . S
C1338 C1335 1.463 . S
C1338 N1342 1.427 . S
C1339 H1329 0.929 . S
C1339 C1337 1.433 . S
C1339 N1342 1.384 . S
C1340 H1331 0.929 . S
C1340 C1332 1.378 . S
C1340 C1335 1.350 . S
C1341 H1328 0.929 . S
C1341 C1333 1.433 . S
C1341 N1343 1.384 . S
N1342 C1338 1.427 . S
N1342 C1339 1.384 . S
N1343 C1335 1.427 . S
N1343 C1341 1.384 . S
H1344 C1350 0.930 . S
H1345 C1354 0.930 . S
H1346 C1359 0.929 . S
H1347 C1357 0.929 . S
H1348 C1352 0.929 . S
H1349 C1358 0.929 . S
C1350 H1344 0.930 . S
C1350 C1351 1.367 . S
C1350 C1358 1.378 . S
C1351 C1350 1.367 . S
C1351 C1359 1.433 . S
C1352 H1348 0.929 . S
C1352 C1354 1.378 . S
C1352 C1356 1.350 . S
C1353 C1356 1.463 . S
C1353 C1358 1.350 . S
C1353 N1361 1.427 . S
C1354 H1345 0.930 . S
C1354 C1352 1.378 . S
C1354 C1355 1.367 . S
C1355 C1354 1.367 . S
C1355 C1357 1.433 . S
C1356 C1352 1.350 . S
C1356 C1353 1.463 . S
C1356 N1360 1.427 . S
C1357 H1347 0.929 . S
C1357 C1355 1.433 . S
C1357 N1360 1.384 . S
C1358 H1349 0.929 . S
C1358 C1350 1.378 . S
C1358 C1353 1.350 . S
C1359 H1346 0.929 . S
C1359 C1351 1.433 . S
C1359 N1361 1.384 . S
N1360 C1356 1.427 . S
N1360 C1357 1.384 . S
N1361 C1353 1.427 . S
N1361 C1359 1.384 . S
H1362 C1368 0.930 . S
H1363 C1372 0.930 . S
H1364 C1377 0.929 . S
H1365 C1375 0.929 . S
H1366 C1370 0.929 . S
H1367 C1376 0.929 1_556 S
C1368 H1362 0.930 . S
C1368 C1369 1.367 . S
C1368 C1376 1.378 . S
C1369 C1368 1.367 . S
C1369 C1377 1.433 . S
C1370 H1366 0.929 . S
C1370 C1372 1.378 . S
C1370 C1374 1.350 . S
C1371 C1374 1.441 1_554 S
C1371 C1376 1.354 . S
C1371 N1379 1.445 . S
C1372 H1363 0.930 . S
C1372 C1370 1.378 . S
C1372 C1373 1.367 . S
C1373 C1372 1.367 . S
C1373 C1375 1.433 . S
C1374 C1370 1.350 . S
C1374 C1371 1.441 1_556 S
C1374 N1378 1.427 . S
C1375 H1365 0.929 . S
C1375 C1373 1.433 . S
C1375 N1378 1.384 . S
C1376 H1367 0.929 1_554 S
C1376 C1368 1.378 . S
C1376 C1371 1.354 . S
C1377 H1364 0.929 . S
C1377 C1369 1.433 . S
C1377 N1379 1.384 . S
N1378 C1374 1.427 . S
N1378 C1375 1.384 . S
N1379 C1371 1.445 . S
N1379 C1377 1.384 . S
H1380 C1386 0.930 . S
H1381 C1390 0.930 . S
H1382 C1395 0.929 . S
H1383 C1393 0.929 . S
H1384 C1388 0.929 . S
H1385 C1394 0.929 . S
C1386 H1380 0.930 . S
C1386 C1387 1.367 . S
C1386 C1394 1.378 . S
C1387 C1386 1.367 . S
C1387 C1395 1.433 . S
C1388 H1384 0.929 . S
C1388 C1390 1.378 . S
C1388 C1392 1.350 . S
C1389 C1392 1.463 . S
C1389 C1394 1.350 . S
C1389 N1397 1.427 . S
C1390 H1381 0.930 . S
C1390 C1388 1.378 . S
C1390 C1391 1.367 . S
C1391 C1390 1.367 . S
C1391 C1393 1.433 . S
C1392 C1388 1.350 . S
C1392 C1389 1.463 . S
C1392 N1396 1.427 . S
C1393 H1383 0.929 . S
C1393 C1391 1.433 . S
C1393 N1396 1.384 . S
C1394 H1385 0.929 . S
C1394 C1386 1.378 . S
C1394 C1389 1.350 . S
C1395 H1382 0.929 . S
C1395 C1387 1.433 . S
C1395 N1397 1.384 . S
N1396 C1392 1.427 . S
N1396 C1393 1.384 . S
N1397 C1389 1.427 . S
N1397 C1395 1.384 . S
H1398 C1404 0.930 . S
H1399 C1408 0.930 . S
H1400 C1413 0.929 . S
H1401 C1411 0.929 . S
H1402 C1406 0.929 . S
H1403 C1412 0.929 . S
C1404 H1398 0.930 . S
C1404 C1405 1.367 . S
C1404 C1412 1.378 . S
C1405 C1404 1.367 . S
C1405 C1413 1.433 . S
C1406 H1402 0.929 . S
C1406 C1408 1.378 . S
C1406 C1410 1.350 . S
C1407 C1410 1.431 1_554 S
C1407 C1412 1.364 . S
C1407 N1415 1.444 . S
C1408 H1399 0.930 . S
C1408 C1406 1.378 . S
C1408 C1409 1.367 . S
C1409 C1408 1.367 . S
C1409 C1411 1.433 . S
C1410 C1406 1.350 . S
C1410 C1407 1.431 1_556 S
C1410 N1414 1.427 . S
C1411 H1401 0.929 . S
C1411 C1409 1.433 . S
C1411 N1414 1.384 . S
C1412 H1403 0.929 . S
C1412 C1404 1.378 . S
C1412 C1407 1.364 . S
C1413 H1400 0.929 . S
C1413 C1405 1.433 . S
C1413 N1415 1.384 . S
N1414 C1410 1.427 . S
N1414 C1411 1.384 . S
N1415 C1407 1.444 . S
N1415 C1413 1.384 . S
C559 N94 1.614 . S
C563 N2 1.606 . S
C577 C30 1.778 . S
C581 C122 1.777 . S
C595 N140 1.613 . S
C599 N48 1.614 . S
C613 C168 1.773 . S
C617 C76 1.774 . S
C631 N324 1.651 . S
C635 C191 1.660 . S
C649 N347 1.603 . S
C653 N209 1.598 . S
C667 C237 1.654 . S
C671 N278 1.658 . S
C685 N301 1.607 . S
C689 N255 1.597 . S
C703 C375 1.630 . S
C707 C490 1.623 . S
C721 C398 1.924 . S
C725 C444 1.929 . S
C739 C421 1.890 . S
C743 C467 1.894 . S
C757 N508 1.453 . S
C761 N531 1.463 . S
C775 N71 1.466 . S
C779 N117 1.431 . S
C793 C7 1.637 . S
C797 C145 1.637 . S
C811 N163 1.429 . S
C815 N25 1.468 . S
C829 C53 1.638 . S
C833 C99 1.636 . S
C847 C536 1.500 . S
C851 N416 1.443 . S
C865 N439 1.431 . S
C869 N485 1.441 . S
C883 N462 1.437 . S
C887 C513 1.505 . S
C901 N393 1.435 . S
C905 N370 1.429 . S
C919 C260 1.500 . S
C923 C214 1.497 . S
C937 C352 1.770 . S
C941 C306 1.777 . S
C955 C283 1.756 . S
C959 C329 1.760 . S
C973 N232 1.239 . S
C977 N186 1.220 . S
C991 N518 1.737 . S
C995 N12 1.721 . S
C1009 C384 1.642 . S
C1013 C39 1.639 . S
C1027 N541 1.727 . S
C1031 N58 1.722 . S
C1045 C499 1.637 . S
C1049 C85 1.636 . S
C1063 C430 1.673 . S
C1067 N104 1.636 . S
C1081 C131 1.789 . S
C1085 C453 1.786 . S
C1099 C476 1.672 . S
C1103 N150 1.638 . S
C1117 C407 1.785 . S
C1121 C177 1.788 . S
C1135 N311 1.661 . S
C1139 C200 1.715 . S
C1153 N334 1.659 . S
C1157 N219 1.663 . S
C1171 N357 1.668 . S
C1175 C246 1.718 . S
C1189 N265 1.672 . S
C1193 N288 1.651 . S
C1207 N127 1.542 . S
C1211 N242 1.550 . S
C1225 C154 1.428 . S
C1229 C269 1.429 . S
C1243 N196 1.545 . S
C1247 N173 1.546 . S
C1261 C108 1.427 . S
C1265 C223 1.428 . S
C1279 C338 1.515 . S
C1283 N81 1.519 . S
C1297 C16 1.525 . S
C1301 C361 1.526 . S
C1315 C292 1.515 . S
C1319 N35 1.522 . S
C1333 C62 1.523 . S
C1337 C315 1.525 . S
C1351 N403 1.502 . S
C1355 C545 1.484 . S
C1369 N495 1.528 . S
C1373 N426 1.526 . S
C1387 C522 1.483 . S
C1391 N449 1.503 . S
C1405 N380 1.528 . S
C1409 N472 1.527 . S
