# Generated by pormake.
# Topology bsn, (6)-cn, num edge types: 1
# Building blocks:
#     Node 0, Type 0, BuildingBlock: PAMTOO_clean_sbu_0, # of connection points: 6
#     Node 1, Type 0, BuildingBlock: PAMTOO_clean_sbu_0, # of connection points: 6
#     Node 2, Type 0, BuildingBlock: PAMTOO_clean_sbu_0, # of connection points: 6
#     Node 3, Type 0, BuildingBlock: PAMTOO_clean_sbu_0, # of connection points: 6
#     Edge 4, Type (0, 0), BuildingBlock: KIFKEQ_clean_linker_1, # of connection points: 2
#     Edge 5, Type (0, 0), BuildingBlock: KIFKEQ_clean_linker_1, # of connection points: 2
#     Edge 6, Type (0, 0), BuildingBlock: KIFKEQ_clean_linker_1, # of connection points: 2
#     Edge 7, Type (0, 0), BuildingBlock: KIFKEQ_clean_linker_1, # of connection points: 2
#     Edge 8, Type (0, 0), BuildingBlock: KIFKEQ_clean_linker_1, # of connection points: 2
#     Edge 9, Type (0, 0), BuildingBlock: KIFKEQ_clean_linker_1, # of connection points: 2
#     Edge 10, Type (0, 0), BuildingBlock: KIFKEQ_clean_linker_1, # of connection points: 2
#     Edge 11, Type (0, 0), BuildingBlock: KIFKEQ_clean_linker_1, # of connection points: 2
#     Edge 12, Type (0, 0), BuildingBlock: KIFKEQ_clean_linker_1, # of connection points: 2
#     Edge 13, Type (0, 0), BuildingBlock: KIFKEQ_clean_linker_1, # of connection points: 2
#     Edge 14, Type (0, 0), BuildingBlock: KIFKEQ_clean_linker_1, # of connection points: 2
#     Edge 15, Type (0, 0), BuildingBlock: KIFKEQ_clean_linker_1, # of connection points: 2
# Relax obj value: 0.036
# Max RMSD: 0.148
# Mean RMSD: 0.148
data_MOF--net-bsn--node1-PAMTOO_clean_sbu_0--edge1-KIFKEQ_clean_linker_1
_symmetry_space_group_name_H-M    P1
_symmetry_Int_Tables_number       1
_symmetry_cell_setting            triclinic
loop_
_symmetry_equiv_pos_as_xyz
'x, y, z'
_cell_length_a     51.649114
_cell_length_b     29.841286
_cell_length_c     14.857741
_cell_angle_alpha  83.802083
_cell_angle_beta   96.536088
_cell_angle_gamma 117.54613
loop_
_atom_site_label
_atom_site_type_symbol
_atom_site_fract_x
_atom_site_fract_y
_atom_site_fract_z
_atom_type_partial_charge
Dy0 Dy 0.12965 0.29818 0.33945 0.0
Dy1 Dy 0.05565 0.23849 0.33734 0.0
C2 C 0.08973 0.25992 0.16769 0.0
O3 O 0.11641 0.35341 0.38426 0.0
O4 O 0.06999 0.32133 0.31294 0.0
O5 O 0.16597 0.3356 0.25492 0.0
O6 O 0.17433 0.33011 0.40061 0.0
O7 O 0.07311 0.25668 0.4789 0.0
O8 O 0.11887 0.26113 0.47627 0.0
O9 O 0.06885 0.17734 0.37261 0.0
O10 O 0.11695 0.21578 0.33146 0.0
O11 O 1.01438 0.19876 0.39987 0.0
O12 O 1.0152 0.21403 0.25365 0.0
C13 C 0.09218 0.35696 0.35725 0.0
O14 O 0.1076 0.30211 0.20453 0.0
O15 O 0.06991 0.22364 0.21494 0.0
C16 C 0.20838 0.32667 0.30928 0.0
C17 C 0.2536 0.30298 0.2765 0.0
C18 C 0.22546 0.27828 0.23217 0.0
C19 C 0.20311 0.28983 0.24859 0.0
C20 C 0.2362 0.35077 0.35478 0.0
C21 C 0.25854 0.33901 0.33884 0.0
C22 C 0.18566 0.34212 0.32216 0.0
C23 C 0.09639 0.25404 0.51944 0.0
C24 C 0.09301 0.17572 0.35725 0.0
C25 C 0.97383 0.20638 0.31881 0.0
C26 C 0.92558 0.22753 0.2992 0.0
C27 C 0.9499 0.25423 0.3593 0.0
C28 C 0.97401 0.24394 0.36864 0.0
C29 C 0.94935 0.1791 0.26059 0.0
C30 C 0.9255 0.18957 0.25071 0.0
C31 C 0.99898 0.19557 0.32256 0.0
H32 H 0.22081 0.25083 0.18291 0.0
H33 H 0.18184 0.27054 0.21246 0.0
H34 H 0.24077 0.37921 0.40202 0.0
H35 H 0.27969 0.35817 0.37559 0.0
H36 H 0.95058 0.28388 0.39709 0.0
H37 H 0.99283 0.26567 0.41356 0.0
H38 H 0.94883 0.14995 0.22166 0.0
H39 H 0.90693 0.16794 0.20486 0.0
Dy40 Dy 0.11049 0.76709 0.59042 0.0
Dy41 Dy 0.03615 0.71212 0.58476 0.0
C42 C 0.07036 0.73115 0.41175 0.0
O43 O 0.09776 0.82691 0.61005 0.0
O44 O 0.05147 0.7934 0.53864 0.0
O45 O 0.15037 0.78813 0.52697 0.0
O46 O 0.15219 0.81423 0.65971 0.0
O47 O 0.05682 0.73725 0.72067 0.0
O48 O 0.09649 0.72305 0.71995 0.0
O49 O 0.04675 0.64657 0.58811 0.0
O50 O 0.09725 0.68594 0.57555 0.0
O51 O 0.99662 0.66662 0.65396 0.0
O52 O 0.99429 0.70132 0.51902 0.0
C53 C 0.07566 0.8322 0.56673 0.0
O54 O 0.09187 0.77055 0.44928 0.0
O55 O 0.04788 0.6989 0.456 0.0
C56 C 0.19205 0.80143 0.62749 0.0
C57 C 0.24178 0.78576 0.67786 0.0
C58 C 0.21539 0.74619 0.64443 0.0
C59 C 0.19069 0.75389 0.61973 0.0
C60 C 0.2181 0.84057 0.66257 0.0
C61 C 0.24272 0.83284 0.6877 0.0
C62 C 0.16709 0.81179 0.59668 0.0
C63 C 0.07588 0.72337 0.76259 0.0
C64 C 0.07167 0.64541 0.57924 0.0
C65 C 0.95823 0.6906 0.61627 0.0
C66 C 0.91551 0.71718 0.66229 0.0
C67 C 0.94013 0.72465 0.72237 0.0
C68 C 0.96135 0.71168 0.69947 0.0
C69 C 0.93363 0.68286 0.55671 0.0
C70 C 0.91257 0.69604 0.57924 0.0
C71 C 0.97998 0.67604 0.58958 0.0
H72 H 0.21385 0.70929 0.63713 0.0
H73 H 0.17071 0.72296 0.59349 0.0
H74 H 0.21957 0.87752 0.66903 0.0
H75 H 0.26275 0.86425 0.71226 0.0
H76 H 0.94323 0.74127 0.78648 0.0
H77 H 0.98018 0.71829 0.74663 0.0
H78 H 0.93066 0.66644 0.4924 0.0
H79 H 0.89374 0.68907 0.53188 0.0
Dy80 Dy 0.62959 0.80234 0.83349 0.0
Dy81 Dy 0.55578 0.74748 0.83197 0.0
C82 C 0.58911 0.76431 0.66333 0.0
O83 O 0.618 0.86087 0.87286 0.0
O84 O 0.57202 0.83027 0.79933 0.0
O85 O 0.66526 0.83162 0.74618 0.0
O86 O 0.67455 0.83645 0.89163 0.0
O87 O 0.57417 0.76884 -0.02814 0.0
O88 O 0.61866 0.76809 -0.02826 0.0
O89 O 0.56717 0.68487 0.8761 0.0
O90 O 0.61458 0.71871 0.83124 0.0
O91 O 0.51465 0.71429 0.89552 0.0
O92 O 0.51519 0.72194 0.7487 0.0
C93 C 0.59441 0.86591 0.84288 0.0
O94 O 0.60741 0.80658 0.69915 0.0
O95 O 0.56918 0.72891 0.71156 0.0
C96 C 0.70889 0.82836 0.80592 0.0
C97 C 0.75528 0.80473 0.78712 0.0
C98 C 0.74584 0.82988 0.71551 0.0
C99 C 0.72311 0.84168 0.72499 0.0
C100 C 0.71794 0.80273 0.87762 0.0
C101 C 0.74088 0.791 0.86824 0.0
C102 C 0.68537 0.84297 0.81322 0.0
C103 C 0.59664 0.76401 0.01389 0.0
C104 C 0.59055 0.68049 0.86147 0.0
C105 C 0.47505 0.72308 0.80835 0.0
C106 C 0.42694 0.74507 0.78662 0.0
C107 C 0.44768 0.76196 0.86132 0.0
C108 C 0.47162 0.7512 0.872 0.0
C109 C 0.45436 0.70628 0.73409 0.0
C110 C 0.43065 0.71721 0.72317 0.0
C111 C 0.4992 0.70905 0.81786 0.0
H112 H 0.75587 0.8402 0.65137 0.0
H113 H 0.71662 0.86147 0.6686 0.0
H114 H 0.70749 0.79202 0.94103 0.0
H115 H 0.74765 0.77199 0.92516 0.0
H116 H 0.44551 0.78379 0.91105 0.0
H117 H 0.48728 0.76467 0.92997 0.0
H118 H 0.45641 0.68417 0.68457 0.0
H119 H 0.41487 0.70287 0.66576 0.0
Dy120 Dy 0.61338 0.26804 0.0794 0.0
Dy121 Dy 0.54038 0.22143 0.08662 0.0
C122 C 0.57003 0.26122 0.90054 0.0
O123 O 0.60414 0.33278 0.03508 0.0
O124 O 0.55977 0.30568 0.09689 0.0
O125 O 0.65026 0.27308 0.01539 0.0
O126 O 0.65737 0.31377 0.13553 0.0
O127 O 0.56202 0.20691 0.21553 0.0
O128 O 0.60341 0.28081 0.21204 0.0
O129 O 0.54928 0.16148 0.03851 0.0
O130 O 0.59466 0.18498 0.1129 0.0
O131 O 0.50664 0.20272 0.17711 0.0
O132 O 0.49458 0.18414 0.03644 0.0
C133 C 0.58322 0.3414 0.0593 0.0
O134 O 0.59342 0.25768 0.93791 0.0
O135 O 0.54824 0.25512 0.9463 0.0
C136 C 0.69397 0.29013 0.10798 0.0
C137 C 0.74478 0.27835 0.16326 0.0
C138 C 0.73644 0.28298 0.07064 0.0
C139 C 0.71141 0.28897 0.04344 0.0
C140 C 0.70166 0.28403 0.20073 0.0
C141 C 0.72683 0.27808 0.2281 0.0
C142 C 0.6694 0.30156 0.07611 0.0
C143 C 0.58226 0.24561 0.25702 0.0
C144 C 0.57141 0.15197 0.0679 0.0
C145 C 0.46206 0.20061 0.11378 0.0
C146 C 0.41666 0.22554 0.13675 0.0
C147 C 0.4461 0.26299 0.13957 0.0
C148 C 0.4686 0.25061 0.12835 0.0
C149 C 0.43273 0.1637 0.10746 0.0
C150 C 0.41027 0.17598 0.1187 0.0
C151 C 0.48533 0.18493 0.11418 0.0
H152 H 0.74939 0.2823 0.01885 0.0
H153 H 0.70597 0.29371 -0.02842 0.0
H154 H 0.68863 0.2849 0.25208 0.0
H155 H 0.7327 0.27482 0.29996 0.0
H156 H 0.45187 0.30144 0.15388 0.0
H157 H 0.49113 0.27971 0.1339 0.0
H158 H 0.42721 0.1249 0.09638 0.0
H159 H 0.38786 0.1464 0.11437 0.0
H160 H 0.13464 0.45042 0.40434 0.0
H161 H 0.04089 0.35857 0.37733 0.0
H162 H 0.12794 0.5175 0.46176 0.0
H163 H 0.03407 0.42393 0.43981 0.0
H164 H 0.03107 0.57234 0.47309 0.0
H165 H 0.03562 0.50286 0.41635 0.0
H166 H 0.11571 0.54101 0.58733 0.0
H167 H 0.11186 0.61226 0.63893 0.0
C168 C 0.1126 0.44459 0.41083 0.0
C169 C 0.08834 0.39941 0.38568 0.0
C170 C 0.10869 0.48279 0.44492 0.0
C171 C 0.08041 0.47623 0.45678 0.0
C172 C 0.05616 0.431 0.43061 0.0
C173 C 0.06008 0.39332 0.39478 0.0
C174 C 0.04925 0.565 0.49984 0.0
C175 C 0.07103 0.59737 0.56065 0.0
C176 C 0.05198 0.5252 0.46719 0.0
C177 C 0.0763 0.51639 0.49603 0.0
C178 C 0.09715 0.54732 0.56114 0.0
C179 C 0.09474 0.58771 0.59204 0.0
H180 H 0.80552 0.86415 0.7009 0.0
H181 H 0.76154 0.71949 0.8492 0.0
H182 H 0.84451 0.84397 0.67477 0.0
H183 H 0.80097 0.69964 0.82393 0.0
H184 H 0.89136 0.70212 0.8255 0.0
H185 H 0.85373 0.72435 0.86096 0.0
H186 H 0.85065 0.78582 0.58548 0.0
H187 H 0.88855 0.76473 0.55078 0.0
C188 C 0.80403 0.82787 0.72764 0.0
C189 C 0.78005 0.79326 0.77634 0.0
C190 C 0.82649 0.81635 0.71273 0.0
C191 C 0.82582 0.76999 0.74652 0.0
C192 C 0.80233 0.73589 0.79752 0.0
C193 C 0.77971 0.74733 0.8121 0.0
C194 C 0.88284 0.72082 0.7728 0.0
C195 C 0.893 0.73154 0.6852 0.0
C196 C 0.86105 0.7331 0.79288 0.0
C197 C 0.84912 0.75691 0.72613 0.0
C198 C 0.85951 0.76801 0.63888 0.0
C199 C 0.88108 0.75543 0.61868 0.0
H200 H 0.54895 0.38084 0.11109 0.0
H201 H 0.62218 0.41705 0.95275 0.0
H202 H 0.55157 0.46375 0.06432 0.0
H203 H 0.62405 0.49842 0.90375 0.0
H204 H 0.63726 0.66015 0.89816 0.0
H205 H 0.63619 0.5793 0.95232 0.0
H206 H 0.54154 0.50787 0.93209 0.0
H207 H 0.54267 0.5889 0.88116 0.0
C208 C 0.56559 0.40643 0.06652 0.0
C209 C 0.58537 0.39235 0.03596 0.0
C210 C 0.56697 0.45377 0.03911 0.0
C211 C 0.58798 0.48771 -0.02006 0.0
C212 C 0.60792 0.47369 0.95047 0.0
C213 C 0.60673 0.42675 -0.02158 0.0
C214 C 0.61625 0.62705 0.9045 0.0
C215 C 0.59007 0.63086 0.88543 0.0
C216 C 0.61561 0.58069 0.93559 0.0
C217 C 0.58876 0.5371 0.94721 0.0
C218 C 0.5626 0.54085 0.92598 0.0
C219 C 0.56325 0.58724 0.89588 0.0
H220 H 0.89558 0.24051 0.42687 0.0
H221 H 0.89904 0.24163 0.13763 0.0
H222 H 0.85262 0.25627 0.40016 0.0
H223 H 0.85619 0.25654 0.11105 0.0
H224 H 0.79751 0.3322 0.08953 0.0
H225 H 0.84216 0.32362 0.12759 0.0
H226 H 0.79995 0.20944 0.33942 0.0
H227 H 0.75493 0.21764 0.3007 0.0
C228 C 0.88729 0.24452 0.35774 0.0
C229 C 0.90055 0.23965 0.28433 0.0
C230 C 0.86261 0.25308 0.34248 0.0
C231 C 0.85104 0.25764 0.25352 0.0
C232 C 0.86472 0.25372 0.18034 0.0
C233 C 0.88912 0.24474 0.19556 0.0
C234 C 0.79763 0.30503 0.14393 0.0
C235 C 0.77248 0.27506 0.19117 0.0
C236 C 0.82328 0.30025 0.16591 0.0
C237 C 0.8245 0.26555 0.23597 0.0
C238 C 0.79973 0.23681 0.28554 0.0
C239 C 0.77396 0.24147 0.2633 0.0
H240 H 0.40933 0.31016 0.08024 0.0
H241 H 0.37002 0.16795 0.2388 0.0
H242 H 0.37025 0.32897 0.11329 0.0
H243 H 0.33125 0.18683 0.27262 0.0
H244 H 0.25008 0.2113 0.24338 0.0
H245 H 0.28896 0.19355 0.20641 0.0
H246 H 0.35123 0.35085 0.23183 0.0
H247 H 0.31201 0.36918 0.26386 0.0
C248 C 0.39247 0.28304 0.12263 0.0
C249 C 0.39279 0.23737 0.15628 0.0
C250 C 0.37005 0.29386 0.14182 0.0
C251 C 0.34741 0.2594 0.19554 0.0
C252 C 0.34789 0.21389 0.22954 0.0
C253 C 0.37021 0.20302 0.2101 0.0
C254 C 0.27197 0.24232 0.2401 0.0
C255 C 0.27773 0.29176 0.25664 0.0
C256 C 0.29443 0.23197 0.21999 0.0
C257 C 0.3234 0.27068 0.21623 0.0
C258 C 0.32919 0.32011 0.233 0.0
C259 C 0.30669 0.3305 0.25277 0.0
H260 H 0.39121 0.73849 0.91604 0.0
H261 H 0.40418 0.77459 0.63009 0.0
H262 H 0.34645 0.74844 0.89306 0.0
H263 H 0.35962 0.78452 0.60717 0.0
H264 H 0.2621 0.73798 0.57924 0.0
H265 H 0.30706 0.72956 0.6092 0.0
H266 H 0.32791 0.81117 0.8517 0.0
H267 H 0.28237 0.81831 0.82306 0.0
C268 C 0.38474 0.74925 0.84858 0.0
C269 C 0.40111 0.75529 0.77476 0.0
C270 C 0.35908 0.75487 0.83536 0.0
C271 C 0.34926 0.76665 0.74806 0.0
C272 C 0.36617 0.77425 0.67491 0.0
C273 C 0.39176 0.76867 0.68809 0.0
C274 C 0.27604 0.75352 0.63964 0.0
C275 C 0.26862 0.77881 0.69874 0.0
C276 C 0.30202 0.74926 0.65622 0.0
C277 C 0.32123 0.77009 0.73245 0.0
C278 C 0.31355 0.79453 0.7926 0.0
C279 C 0.28759 0.79899 0.77577 0.0
H280 H 0.54427 0.87568 0.8351 0.0
H281 H 0.63712 0.95469 0.90937 0.0
H282 H 0.53753 0.94228 0.89258 0.0
H283 H 0.63061 0.02291 0.96338 0.0
H284 H 0.60648 0.10947 0.14134 0.0
H285 H 0.61177 0.0409 0.08431 0.0
H286 H 0.54497 0.02601 0.86908 0.0
H287 H 0.53884 0.093 0.9288 0.0
C288 C 0.56341 0.90788 0.8619 0.0
C289 C 0.59129 0.90986 0.86751 0.0
C290 C 0.55952 0.94627 0.89487 0.0
C291 C 0.58346 0.98805 0.93331 0.0
C292 C 0.61153 0.9908 0.93617 0.0
C293 C 0.61536 0.95198 0.90424 0.0
C294 C 0.59264 0.09102 0.08259 0.0
C295 C 0.57216 0.10654 0.03981 0.0
C296 C 0.59592 0.05208 0.04911 0.0
C297 C 0.57909 0.02815 -0.02879 0.0
C298 C 0.55811 0.043 0.92978 0.0
C299 C 0.55455 0.08149 0.96406 0.0
H300 H 0.12627 0.91667 0.53274 0.0
H301 H 0.03326 0.86331 0.5399 0.0
H302 H 0.132 0.99966 0.47342 0.0
H303 H 0.03902 0.94723 0.48662 0.0
H304 H 0.05 0.08431 0.31077 0.0
H305 H 0.04699 1.00161 0.35907 0.0
H306 H 0.13252 0.07442 0.50249 0.0
H307 H 0.13607 0.157 0.44788 0.0
C308 C 0.10713 0.92316 0.52353 0.0
C309 C 0.07931 0.8837 0.54082 0.0
C310 C 0.1104 0.97084 0.48965 0.0
C311 C 0.08597 0.98042 0.4742 0.0
C312 C 0.05826 0.94111 0.49485 0.0
C313 C 0.05493 0.89309 0.52656 0.0
C314 C 0.06834 0.08232 0.35108 0.0
C315 C 0.09329 0.12664 0.3755 0.0
C316 C 0.0665 0.03499 0.38004 0.0
C317 C 0.08923 0.03097 0.43656 0.0
C318 C 0.11467 0.07572 0.45837 0.0
C319 C 0.11679 0.12313 0.42719 0.0
H320 H 0.05981 0.17277 0.0812 0.0
H321 H 0.13038 0.32526 0.0537 0.0
H322 H 0.06536 0.15844 0.92804 0.0
H323 H 0.13551 0.31087 0.90011 0.0
H324 H 0.14433 0.26872 0.63379 0.0
H325 H 0.14608 0.25785 0.79926 0.0
H326 H 0.05234 0.20273 0.78882 0.0
H327 H 0.05043 0.21309 0.62453 0.0
C328 C 0.07662 0.20307 0.0427 0.0
C329 C 0.09418 0.25062 0.07785 0.0
C330 C 0.07993 0.19459 0.95579 0.0
C331 C 0.10076 0.23359 0.90323 0.0
C332 C 0.11954 0.28006 0.9403 0.0
C333 C 0.11626 0.28856 0.02733 0.0
C334 C 0.12408 0.25345 0.66702 0.0
C335 C 0.09732 0.24287 0.61721 0.0
C336 C 0.12512 0.24709 0.76115 0.0
C337 C 0.09939 0.2296 0.8057 0.0
C338 C 0.07242 0.21574 0.75549 0.0
C339 C 0.0714 0.22246 0.66174 0.0
H340 H 1.02972 0.69614 0.86229 0.0
H341 H 0.11935 0.71979 0.88021 0.0
H342 H 1.02949 0.6842 0.02642 0.0
H343 H 0.11897 0.70761 0.04543 0.0
H344 H 0.11335 0.78805 0.29835 0.0
H345 H 0.11577 0.77065 0.14422 0.0
H346 H 0.03543 0.63134 0.1667 0.0
H347 H 0.03268 0.64854 0.32069 0.0
C348 C 0.0492 0.69803 0.90142 0.0
C349 C 0.07479 0.71012 0.85959 0.0
C350 C 0.04891 0.69042 -0.00505 0.0
C351 C 0.07427 0.69521 0.04746 0.0
C352 C 0.09927 0.70395 0.00543 0.0
C353 C 0.09947 0.71108 0.91152 0.0
C354 C 0.09632 0.75356 0.27069 0.0
C355 C 0.07244 0.72035 0.32024 0.0
C356 C 0.098 0.74321 0.18334 0.0
C357 C 0.0758 0.69963 0.14481 0.0
C358 C 0.0527 0.66517 0.19576 0.0
C359 C 0.05102 0.67543 0.28312 0.0
H360 H 0.55049 0.73019 0.1171 0.0
H361 H 0.64273 0.7699 0.12989 0.0
H362 H 0.55118 0.71674 0.28093 0.0
H363 H 0.6432 0.75588 0.29488 0.0
H364 H 0.63202 0.82581 0.55337 0.0
H365 H 0.63635 0.81173 0.39902 0.0
H366 H 0.56016 0.66567 0.41762 0.0
H367 H 0.55547 0.67977 0.57212 0.0
C368 C 0.57082 0.73552 0.15492 0.0
C369 C 0.59673 0.7523 0.11156 0.0
C370 C 0.57107 0.72692 0.24836 0.0
C371 C 0.59725 0.73525 0.2995 0.0
C372 C 0.62283 0.74932 0.25601 0.0
C373 C 0.62254 0.7576 0.16218 0.0
C374 C 0.61638 0.79049 0.52488 0.0
C375 C 0.59295 0.75445 0.57323 0.0
C376 C 0.61918 0.78208 0.43736 0.0
C377 C 0.59854 0.73766 0.39744 0.0
C378 C 0.57621 0.70022 0.44771 0.0
C379 C 0.57342 0.70857 0.53534 0.0
H380 H 0.60946 0.33439 0.3396 0.0
H381 H 0.54378 0.1784 0.37486 0.0
H382 H 0.60142 0.35036 0.48851 0.0
H383 H 0.53642 0.19411 0.52498 0.0
H384 H 0.52136 0.23444 0.78304 0.0
H385 H 0.5206 0.2409 0.61703 0.0
H386 H 0.61527 0.31928 0.63508 0.0
H387 H 0.61597 0.31364 0.79883 0.0
C388 C 0.5934 0.30349 0.37937 0.0
C389 C 0.5777 0.25483 0.34705 0.0
C390 C 0.58861 0.31282 0.46392 0.0
C391 C 0.56833 0.27349 0.51777 0.0
C392 C 0.55182 0.22531 0.48398 0.0
C393 C 0.55641 0.21609 0.39896 0.0
C394 C 0.54186 0.25415 0.75087 0.0
C395 C 0.56873 0.27238 0.80273 0.0
C396 C 0.54143 0.25775 0.65646 0.0
C397 C 0.56786 0.28006 0.61384 0.0
C398 C 0.59456 0.30221 0.6661 0.0
C399 C 0.59498 0.29833 0.75986 0.0
loop_
_geom_bond_atom_site_label_1
_geom_bond_atom_site_label_2
_geom_bond_distance
_geom_bond_site_symmetry_2
_ccdc_geom_bond_type
Dy0 O3 2.307 . S
Dy0 O5 2.395 . S
Dy0 O6 2.379 . S
Dy0 O8 2.339 . S
Dy0 O10 2.298 . S
Dy0 O14 2.275 . S
Dy0 C22 2.738 . S
Dy1 O4 2.298 . S
Dy1 O7 2.275 . S
Dy1 O9 2.307 . S
Dy1 O11 2.395 1_455 S
Dy1 O12 2.379 1_455 S
Dy1 O15 2.339 . S
Dy1 C31 2.738 1_455 S
C2 O14 1.254 . S
C2 O15 1.257 . S
O3 Dy0 2.307 . S
O3 C13 1.266 . S
O4 Dy1 2.298 . S
O4 C13 1.236 . S
O5 Dy0 2.395 . S
O5 C22 1.255 . S
O6 Dy0 2.379 . S
O6 C22 1.249 . S
O7 Dy1 2.275 . S
O7 C23 1.254 . S
O8 Dy0 2.339 . S
O8 C23 1.257 . S
O9 Dy1 2.307 . S
O9 C24 1.266 . S
O10 Dy0 2.298 . S
O10 C24 1.236 . S
O11 Dy1 2.395 1_655 S
O11 C31 1.255 . S
O12 Dy1 2.379 1_655 S
O12 C31 1.249 . S
C13 O3 1.266 . S
C13 O4 1.236 . S
O14 Dy0 2.275 . S
O14 C2 1.254 . S
O15 Dy1 2.339 . S
O15 C2 1.257 . S
C16 C19 1.344 . S
C16 C20 1.328 . S
C16 C22 1.516 . S
C17 C18 1.304 . S
C17 C21 1.323 . S
C18 C17 1.304 . S
C18 C19 1.371 . S
C18 H32 0.930 . S
C19 C16 1.344 . S
C19 C18 1.371 . S
C19 H33 0.931 . S
C20 C16 1.328 . S
C20 C21 1.433 . S
C20 H34 0.931 . S
C21 C17 1.323 . S
C21 C20 1.433 . S
C21 H35 0.933 . S
C22 Dy0 2.738 . S
C22 O5 1.255 . S
C22 O6 1.249 . S
C22 C16 1.516 . S
C23 O7 1.254 . S
C23 O8 1.257 . S
C24 O9 1.266 . S
C24 O10 1.236 . S
C25 C28 1.344 . S
C25 C29 1.328 . S
C25 C31 1.516 . S
C26 C27 1.304 . S
C26 C30 1.323 . S
C27 C26 1.304 . S
C27 C28 1.371 . S
C27 H36 0.930 . S
C28 C25 1.344 . S
C28 C27 1.371 . S
C28 H37 0.931 . S
C29 C25 1.328 . S
C29 C30 1.433 . S
C29 H38 0.931 . S
C30 C26 1.323 . S
C30 C29 1.433 . S
C30 H39 0.933 . S
C31 Dy1 2.738 1_655 S
C31 O11 1.255 . S
C31 O12 1.249 . S
C31 C25 1.516 . S
H32 C18 0.930 . S
H33 C19 0.931 . S
H34 C20 0.931 . S
H35 C21 0.933 . S
H36 C27 0.930 . S
H37 C28 0.931 . S
H38 C29 0.931 . S
H39 C30 0.933 . S
Dy40 O43 2.307 . S
Dy40 O45 2.395 . S
Dy40 O46 2.379 . S
Dy40 O48 2.339 . S
Dy40 O50 2.298 . S
Dy40 O54 2.275 . S
Dy40 C62 2.738 . S
Dy41 O44 2.298 . S
Dy41 O47 2.275 . S
Dy41 O49 2.307 . S
Dy41 O51 2.395 1_455 S
Dy41 O52 2.379 1_455 S
Dy41 O55 2.339 . S
Dy41 C71 2.738 1_455 S
C42 O54 1.254 . S
C42 O55 1.257 . S
O43 Dy40 2.307 . S
O43 C53 1.266 . S
O44 Dy41 2.298 . S
O44 C53 1.236 . S
O45 Dy40 2.395 . S
O45 C62 1.255 . S
O46 Dy40 2.379 . S
O46 C62 1.249 . S
O47 Dy41 2.275 . S
O47 C63 1.254 . S
O48 Dy40 2.339 . S
O48 C63 1.257 . S
O49 Dy41 2.307 . S
O49 C64 1.266 . S
O50 Dy40 2.298 . S
O50 C64 1.236 . S
O51 Dy41 2.395 1_655 S
O51 C71 1.255 . S
O52 Dy41 2.379 1_655 S
O52 C71 1.249 . S
C53 O43 1.266 . S
C53 O44 1.236 . S
O54 Dy40 2.275 . S
O54 C42 1.254 . S
O55 Dy41 2.339 . S
O55 C42 1.257 . S
C56 C59 1.344 . S
C56 C60 1.328 . S
C56 C62 1.516 . S
C57 C58 1.304 . S
C57 C61 1.323 . S
C58 C57 1.304 . S
C58 C59 1.371 . S
C58 H72 0.930 . S
C59 C56 1.344 . S
C59 C58 1.371 . S
C59 H73 0.931 . S
C60 C56 1.328 . S
C60 C61 1.433 . S
C60 H74 0.931 . S
C61 C57 1.323 . S
C61 C60 1.433 . S
C61 H75 0.933 . S
C62 Dy40 2.738 . S
C62 O45 1.255 . S
C62 O46 1.249 . S
C62 C56 1.516 . S
C63 O47 1.254 . S
C63 O48 1.257 . S
C64 O49 1.266 . S
C64 O50 1.236 . S
C65 C68 1.344 . S
C65 C69 1.328 . S
C65 C71 1.516 . S
C66 C67 1.304 . S
C66 C70 1.323 . S
C67 C66 1.304 . S
C67 C68 1.371 . S
C67 H76 0.930 . S
C68 C65 1.344 . S
C68 C67 1.371 . S
C68 H77 0.931 . S
C69 C65 1.328 . S
C69 C70 1.433 . S
C69 H78 0.931 . S
C70 C66 1.323 . S
C70 C69 1.433 . S
C70 H79 0.933 . S
C71 Dy41 2.738 1_655 S
C71 O51 1.255 . S
C71 O52 1.249 . S
C71 C65 1.516 . S
H72 C58 0.930 . S
H73 C59 0.931 . S
H74 C60 0.931 . S
H75 C61 0.933 . S
H76 C67 0.930 . S
H77 C68 0.931 . S
H78 C69 0.931 . S
H79 C70 0.933 . S
Dy80 O83 2.307 . S
Dy80 O85 2.395 . S
Dy80 O86 2.379 . S
Dy80 O88 2.339 1_556 S
Dy80 O90 2.298 . S
Dy80 O94 2.275 . S
Dy80 C102 2.738 . S
Dy81 O84 2.298 . S
Dy81 O87 2.275 . S
Dy81 O89 2.307 . S
Dy81 O91 2.395 . S
Dy81 O92 2.379 . S
Dy81 O95 2.339 . S
Dy81 C111 2.738 . S
C82 O94 1.254 . S
C82 O95 1.257 . S
O83 Dy80 2.307 . S
O83 C93 1.266 . S
O84 Dy81 2.298 . S
O84 C93 1.236 . S
O85 Dy80 2.395 . S
O85 C102 1.255 . S
O86 Dy80 2.379 . S
O86 C102 1.249 . S
O87 Dy81 2.275 . S
O87 C103 1.254 1_556 S
O88 Dy80 2.339 1_554 S
O88 C103 1.257 . S
O89 Dy81 2.307 . S
O89 C104 1.266 . S
O90 Dy80 2.298 . S
O90 C104 1.236 . S
O91 Dy81 2.395 . S
O91 C111 1.255 . S
O92 Dy81 2.379 . S
O92 C111 1.249 . S
C93 O83 1.266 . S
C93 O84 1.236 . S
O94 Dy80 2.275 . S
O94 C82 1.254 . S
O95 Dy81 2.339 . S
O95 C82 1.257 . S
C96 C99 1.344 . S
C96 C100 1.328 . S
C96 C102 1.516 . S
C97 C98 1.304 . S
C97 C101 1.323 . S
C98 C97 1.304 . S
C98 C99 1.371 . S
C98 H112 0.930 . S
C99 C96 1.344 . S
C99 C98 1.371 . S
C99 H113 0.931 . S
C100 C96 1.328 . S
C100 C101 1.433 . S
C100 H114 0.931 1_556 S
C101 C97 1.323 . S
C101 C100 1.433 . S
C101 H115 0.933 1_556 S
C102 Dy80 2.738 . S
C102 O85 1.255 . S
C102 O86 1.249 . S
C102 C96 1.516 . S
C103 O87 1.254 1_554 S
C103 O88 1.257 . S
C104 O89 1.266 . S
C104 O90 1.236 . S
C105 C108 1.344 . S
C105 C109 1.328 . S
C105 C111 1.516 . S
C106 C107 1.304 . S
C106 C110 1.323 . S
C107 C106 1.304 . S
C107 C108 1.371 . S
C107 H116 0.930 1_556 S
C108 C105 1.344 . S
C108 C107 1.371 . S
C108 H117 0.931 . S
C109 C105 1.328 . S
C109 C110 1.433 . S
C109 H118 0.931 . S
C110 C106 1.323 . S
C110 C109 1.433 . S
C110 H119 0.933 . S
C111 Dy81 2.738 . S
C111 O91 1.255 . S
C111 O92 1.249 . S
C111 C105 1.516 . S
H112 C98 0.930 . S
H113 C99 0.931 . S
H114 C100 0.931 1_554 S
H115 C101 0.933 1_554 S
H116 C107 0.930 1_554 S
H117 C108 0.931 . S
H118 C109 0.931 . S
H119 C110 0.933 . S
Dy120 O123 2.307 . S
Dy120 O125 2.395 . S
Dy120 O126 2.379 . S
Dy120 O128 2.339 . S
Dy120 O130 2.298 . S
Dy120 O134 2.275 . S
Dy120 C142 2.738 . S
Dy121 O124 2.298 . S
Dy121 O127 2.275 . S
Dy121 O129 2.307 . S
Dy121 O131 2.395 . S
Dy121 O132 2.379 . S
Dy121 O135 2.339 1_554 S
Dy121 C151 2.738 . S
C122 O134 1.254 1_556 S
C122 O135 1.257 . S
O123 Dy120 2.307 . S
O123 C133 1.266 . S
O124 Dy121 2.298 . S
O124 C133 1.236 . S
O125 Dy120 2.395 . S
O125 C142 1.255 . S
O126 Dy120 2.379 . S
O126 C142 1.249 . S
O127 Dy121 2.275 . S
O127 C143 1.254 . S
O128 Dy120 2.339 . S
O128 C143 1.257 . S
O129 Dy121 2.307 . S
O129 C144 1.266 . S
O130 Dy120 2.298 . S
O130 C144 1.236 . S
O131 Dy121 2.395 . S
O131 C151 1.255 . S
O132 Dy121 2.379 . S
O132 C151 1.249 . S
C133 O123 1.266 . S
C133 O124 1.236 . S
O134 Dy120 2.275 . S
O134 C122 1.254 1_554 S
O135 Dy121 2.339 1_556 S
O135 C122 1.257 . S
C136 C139 1.344 . S
C136 C140 1.328 . S
C136 C142 1.516 . S
C137 C138 1.304 . S
C137 C141 1.323 . S
C138 C137 1.304 . S
C138 C139 1.371 . S
C138 H152 0.930 1_554 S
C139 C136 1.344 . S
C139 C138 1.371 . S
C139 H153 0.931 . S
C140 C136 1.328 . S
C140 C141 1.433 . S
C140 H154 0.931 . S
C141 C137 1.323 . S
C141 C140 1.433 . S
C141 H155 0.933 . S
C142 Dy120 2.738 . S
C142 O125 1.255 . S
C142 O126 1.249 . S
C142 C136 1.516 . S
C143 O127 1.254 . S
C143 O128 1.257 . S
C144 O129 1.266 . S
C144 O130 1.236 . S
C145 C148 1.344 . S
C145 C149 1.328 . S
C145 C151 1.516 . S
C146 C147 1.304 . S
C146 C150 1.323 . S
C147 C146 1.304 . S
C147 C148 1.371 . S
C147 H156 0.930 . S
C148 C145 1.344 . S
C148 C147 1.371 . S
C148 H157 0.931 . S
C149 C145 1.328 . S
C149 C150 1.433 . S
C149 H158 0.931 1_554 S
C150 C146 1.323 . S
C150 C149 1.433 . S
C150 H159 0.933 . S
C151 Dy121 2.738 . S
C151 O131 1.255 . S
C151 O132 1.249 . S
C151 C145 1.516 . S
H152 C138 0.930 1_556 S
H153 C139 0.931 . S
H154 C140 0.931 . S
H155 C141 0.933 . S
H156 C147 0.930 . S
H157 C148 0.931 . S
H158 C149 0.931 1_556 S
H159 C150 0.933 . S
H160 C168 0.950 . S
H161 C173 0.950 . S
H162 C170 0.950 . S
H163 C172 0.950 . S
H164 C174 0.950 . S
H165 C176 0.950 . S
H166 C178 0.950 . S
H167 C179 0.950 . S
C168 H160 0.950 . S
C168 C169 1.386 . S
C168 C170 1.391 . S
C169 C168 1.386 . S
C169 C173 1.393 . S
C170 H162 0.950 . S
C170 C168 1.391 . S
C170 C171 1.400 . S
C171 C170 1.400 . S
C171 C172 1.398 . S
C171 C177 1.491 . S
C172 H163 0.950 . S
C172 C171 1.398 . S
C172 C173 1.391 . S
C173 H161 0.950 . S
C173 C169 1.393 . S
C173 C172 1.391 . S
C174 H164 0.950 . S
C174 C175 1.386 . S
C174 C176 1.391 . S
C175 C174 1.386 . S
C175 C179 1.393 . S
C176 H165 0.950 . S
C176 C174 1.391 . S
C176 C177 1.400 . S
C177 C171 1.491 . S
C177 C176 1.400 . S
C177 C178 1.398 . S
C178 H166 0.950 . S
C178 C177 1.398 . S
C178 C179 1.391 . S
C179 H167 0.950 . S
C179 C175 1.393 . S
C179 C178 1.391 . S
H180 C188 0.950 . S
H181 C193 0.950 . S
H182 C190 0.950 . S
H183 C192 0.950 . S
H184 C194 0.950 . S
H185 C196 0.950 . S
H186 C198 0.950 . S
H187 C199 0.950 . S
C188 H180 0.950 . S
C188 C189 1.386 . S
C188 C190 1.391 . S
C189 C188 1.386 . S
C189 C193 1.393 . S
C190 H182 0.950 . S
C190 C188 1.391 . S
C190 C191 1.400 . S
C191 C190 1.400 . S
C191 C192 1.398 . S
C191 C197 1.491 . S
C192 H183 0.950 . S
C192 C191 1.398 . S
C192 C193 1.391 . S
C193 H181 0.950 . S
C193 C189 1.393 . S
C193 C192 1.391 . S
C194 H184 0.950 . S
C194 C195 1.386 . S
C194 C196 1.391 . S
C195 C194 1.386 . S
C195 C199 1.393 . S
C196 H185 0.950 . S
C196 C194 1.391 . S
C196 C197 1.400 . S
C197 C191 1.491 . S
C197 C196 1.400 . S
C197 C198 1.398 . S
C198 H186 0.950 . S
C198 C197 1.398 . S
C198 C199 1.391 . S
C199 H187 0.950 . S
C199 C195 1.393 . S
C199 C198 1.391 . S
H200 C208 0.950 1_556 S
H201 C213 0.950 . S
H202 C210 0.950 . S
H203 C212 0.950 . S
H204 C214 0.950 1_554 S
H205 C216 0.950 . S
H206 C218 0.950 . S
H207 C219 0.950 . S
C208 H200 0.950 1_554 S
C208 C209 1.386 . S
C208 C210 1.391 1_554 S
C209 C208 1.386 . S
C209 C213 1.393 . S
C210 H202 0.950 . S
C210 C208 1.391 1_556 S
C210 C211 1.400 1_556 S
C211 C210 1.400 1_554 S
C211 C212 1.398 . S
C211 C217 1.491 1_554 S
C212 H203 0.950 . S
C212 C211 1.398 . S
C212 C213 1.391 . S
C213 H201 0.950 . S
C213 C209 1.393 . S
C213 C212 1.391 . S
C214 H204 0.950 1_556 S
C214 C215 1.386 . S
C214 C216 1.391 1_556 S
C215 C214 1.386 . S
C215 C219 1.393 . S
C216 H205 0.950 . S
C216 C214 1.391 1_554 S
C216 C217 1.400 1_554 S
C217 C211 1.491 1_556 S
C217 C216 1.400 1_556 S
C217 C218 1.398 . S
C218 H206 0.950 . S
C218 C217 1.398 . S
C218 C219 1.391 . S
C219 H207 0.950 . S
C219 C215 1.393 . S
C219 C218 1.391 . S
H220 C228 0.950 . S
H221 C233 0.950 . S
H222 C230 0.950 . S
H223 C232 0.950 . S
H224 C234 0.950 . S
H225 C236 0.950 . S
H226 C238 0.950 . S
H227 C239 0.950 . S
C228 H220 0.950 . S
C228 C229 1.386 . S
C228 C230 1.391 . S
C229 C228 1.386 . S
C229 C233 1.393 . S
C230 H222 0.950 . S
C230 C228 1.391 . S
C230 C231 1.400 . S
C231 C230 1.400 . S
C231 C232 1.398 . S
C231 C237 1.491 . S
C232 H223 0.950 . S
C232 C231 1.398 . S
C232 C233 1.391 . S
C233 H221 0.950 . S
C233 C229 1.393 . S
C233 C232 1.391 . S
C234 H224 0.950 . S
C234 C235 1.386 . S
C234 C236 1.391 . S
C235 C234 1.386 . S
C235 C239 1.393 . S
C236 H225 0.950 . S
C236 C234 1.391 . S
C236 C237 1.400 . S
C237 C231 1.491 . S
C237 C236 1.400 . S
C237 C238 1.398 . S
C238 H226 0.950 . S
C238 C237 1.398 . S
C238 C239 1.391 . S
C239 H227 0.950 . S
C239 C235 1.393 . S
C239 C238 1.391 . S
H240 C248 0.950 . S
H241 C253 0.950 . S
H242 C250 0.950 . S
H243 C252 0.950 . S
H244 C254 0.950 . S
H245 C256 0.950 . S
H246 C258 0.950 . S
H247 C259 0.950 . S
C248 H240 0.950 . S
C248 C249 1.386 . S
C248 C250 1.391 . S
C249 C248 1.386 . S
C249 C253 1.393 . S
C250 H242 0.950 . S
C250 C248 1.391 . S
C250 C251 1.400 . S
C251 C250 1.400 . S
C251 C252 1.398 . S
C251 C257 1.491 . S
C252 H243 0.950 . S
C252 C251 1.398 . S
C252 C253 1.391 . S
C253 H241 0.950 . S
C253 C249 1.393 . S
C253 C252 1.391 . S
C254 H244 0.950 . S
C254 C255 1.386 . S
C254 C256 1.391 . S
C255 C254 1.386 . S
C255 C259 1.393 . S
C256 H245 0.950 . S
C256 C254 1.391 . S
C256 C257 1.400 . S
C257 C251 1.491 . S
C257 C256 1.400 . S
C257 C258 1.398 . S
C258 H246 0.950 . S
C258 C257 1.398 . S
C258 C259 1.391 . S
C259 H247 0.950 . S
C259 C255 1.393 . S
C259 C258 1.391 . S
H260 C268 0.950 . S
H261 C273 0.950 . S
H262 C270 0.950 . S
H263 C272 0.950 . S
H264 C274 0.950 . S
H265 C276 0.950 . S
H266 C278 0.950 . S
H267 C279 0.950 . S
C268 H260 0.950 . S
C268 C269 1.386 . S
C268 C270 1.391 . S
C269 C268 1.386 . S
C269 C273 1.393 . S
C270 H262 0.950 . S
C270 C268 1.391 . S
C270 C271 1.400 . S
C271 C270 1.400 . S
C271 C272 1.398 . S
C271 C277 1.491 . S
C272 H263 0.950 . S
C272 C271 1.398 . S
C272 C273 1.391 . S
C273 H261 0.950 . S
C273 C269 1.393 . S
C273 C272 1.391 . S
C274 H264 0.950 . S
C274 C275 1.386 . S
C274 C276 1.391 . S
C275 C274 1.386 . S
C275 C279 1.393 . S
C276 H265 0.950 . S
C276 C274 1.391 . S
C276 C277 1.400 . S
C277 C271 1.491 . S
C277 C276 1.400 . S
C277 C278 1.398 . S
C278 H266 0.950 . S
C278 C277 1.398 . S
C278 C279 1.391 . S
C279 H267 0.950 . S
C279 C275 1.393 . S
C279 C278 1.391 . S
H280 C288 0.950 . S
H281 C293 0.950 . S
H282 C290 0.950 . S
H283 C292 0.950 . S
H284 C294 0.950 . S
H285 C296 0.950 . S
H286 C298 0.950 . S
H287 C299 0.950 . S
C288 H280 0.950 . S
C288 C289 1.386 . S
C288 C290 1.391 . S
C289 C288 1.386 . S
C289 C293 1.393 1_556 S
C290 H282 0.950 . S
C290 C288 1.391 . S
C290 C291 1.400 . S
C291 C290 1.400 . S
C291 C292 1.398 1_556 S
C291 C297 1.491 1_566 S
C292 H283 0.950 . S
C292 C291 1.398 1_554 S
C292 C293 1.391 . S
C293 H281 0.950 . S
C293 C289 1.393 1_554 S
C293 C292 1.391 . S
C294 H284 0.950 . S
C294 C295 1.386 . S
C294 C296 1.391 . S
C295 C294 1.386 . S
C295 C299 1.393 1_554 S
C296 H285 0.950 . S
C296 C294 1.391 . S
C296 C297 1.400 . S
C297 C291 1.491 1_544 S
C297 C296 1.400 . S
C297 C298 1.398 1_554 S
C298 H286 0.950 . S
C298 C297 1.398 1_556 S
C298 C299 1.391 . S
C299 H287 0.950 . S
C299 C295 1.393 1_556 S
C299 C298 1.391 . S
H300 C308 0.950 . S
H301 C313 0.950 . S
H302 C310 0.950 . S
H303 C312 0.950 . S
H304 C314 0.950 . S
H305 C316 0.950 . S
H306 C318 0.950 . S
H307 C319 0.950 . S
C308 H300 0.950 . S
C308 C309 1.386 . S
C308 C310 1.391 . S
C309 C308 1.386 . S
C309 C313 1.393 . S
C310 H302 0.950 . S
C310 C308 1.391 . S
C310 C311 1.400 . S
C311 C310 1.400 . S
C311 C312 1.398 . S
C311 C317 1.491 1_565 S
C312 H303 0.950 . S
C312 C311 1.398 . S
C312 C313 1.391 . S
C313 H301 0.950 . S
C313 C309 1.393 . S
C313 C312 1.391 . S
C314 H304 0.950 . S
C314 C315 1.386 . S
C314 C316 1.391 . S
C315 C314 1.386 . S
C315 C319 1.393 . S
C316 H305 0.950 . S
C316 C314 1.391 . S
C316 C317 1.400 . S
C317 C311 1.491 1_545 S
C317 C316 1.400 . S
C317 C318 1.398 . S
C318 H306 0.950 . S
C318 C317 1.398 . S
C318 C319 1.391 . S
C319 H307 0.950 . S
C319 C315 1.393 . S
C319 C318 1.391 . S
H320 C328 0.950 . S
H321 C333 0.950 . S
H322 C330 0.950 . S
H323 C332 0.950 . S
H324 C334 0.950 . S
H325 C336 0.950 . S
H326 C338 0.950 . S
H327 C339 0.950 . S
C328 H320 0.950 . S
C328 C329 1.386 . S
C328 C330 1.391 1_554 S
C329 C328 1.386 . S
C329 C333 1.393 . S
C330 H322 0.950 . S
C330 C328 1.391 1_556 S
C330 C331 1.400 . S
C331 C330 1.400 . S
C331 C332 1.398 . S
C331 C337 1.491 . S
C332 H323 0.950 . S
C332 C331 1.398 . S
C332 C333 1.391 1_556 S
C333 H321 0.950 . S
C333 C329 1.393 . S
C333 C332 1.391 1_554 S
C334 H324 0.950 . S
C334 C335 1.386 . S
C334 C336 1.391 . S
C335 C334 1.386 . S
C335 C339 1.393 . S
C336 H325 0.950 . S
C336 C334 1.391 . S
C336 C337 1.400 . S
C337 C331 1.491 . S
C337 C336 1.400 . S
C337 C338 1.398 . S
C338 H326 0.950 . S
C338 C337 1.398 . S
C338 C339 1.391 . S
C339 H327 0.950 . S
C339 C335 1.393 . S
C339 C338 1.391 . S
H340 C348 0.950 . S
H341 C353 0.950 . S
H342 C350 0.950 . S
H343 C352 0.950 . S
H344 C354 0.950 . S
H345 C356 0.950 . S
H346 C358 0.950 . S
H347 C359 0.950 . S
C348 H340 0.950 . S
C348 C349 1.386 . S
C348 C350 1.391 1_556 S
C349 C348 1.386 . S
C349 C353 1.393 . S
C350 H342 0.950 . S
C350 C348 1.391 1_554 S
C350 C351 1.400 . S
C351 C350 1.400 . S
C351 C352 1.398 . S
C351 C357 1.491 . S
C352 H343 0.950 . S
C352 C351 1.398 . S
C352 C353 1.391 1_554 S
C353 H341 0.950 . S
C353 C349 1.393 . S
C353 C352 1.391 1_556 S
C354 H344 0.950 . S
C354 C355 1.386 . S
C354 C356 1.391 . S
C355 C354 1.386 . S
C355 C359 1.393 . S
C356 H345 0.950 . S
C356 C354 1.391 . S
C356 C357 1.400 . S
C357 C351 1.491 . S
C357 C356 1.400 . S
C357 C358 1.398 . S
C358 H346 0.950 . S
C358 C357 1.398 . S
C358 C359 1.391 . S
C359 H347 0.950 . S
C359 C355 1.393 . S
C359 C358 1.391 . S
H360 C368 0.950 . S
H361 C373 0.950 . S
H362 C370 0.950 . S
H363 C372 0.950 . S
H364 C374 0.950 . S
H365 C376 0.950 . S
H366 C378 0.950 . S
H367 C379 0.950 . S
C368 H360 0.950 . S
C368 C369 1.386 . S
C368 C370 1.391 . S
C369 C368 1.386 . S
C369 C373 1.393 . S
C370 H362 0.950 . S
C370 C368 1.391 . S
C370 C371 1.400 . S
C371 C370 1.400 . S
C371 C372 1.398 . S
C371 C377 1.491 . S
C372 H363 0.950 . S
C372 C371 1.398 . S
C372 C373 1.391 . S
C373 H361 0.950 . S
C373 C369 1.393 . S
C373 C372 1.391 . S
C374 H364 0.950 . S
C374 C375 1.386 . S
C374 C376 1.391 . S
C375 C374 1.386 . S
C375 C379 1.393 . S
C376 H365 0.950 . S
C376 C374 1.391 . S
C376 C377 1.400 . S
C377 C371 1.491 . S
C377 C376 1.400 . S
C377 C378 1.398 . S
C378 H366 0.950 . S
C378 C377 1.398 . S
C378 C379 1.391 . S
C379 H367 0.950 . S
C379 C375 1.393 . S
C379 C378 1.391 . S
H380 C388 0.950 . S
H381 C393 0.950 . S
H382 C390 0.950 . S
H383 C392 0.950 . S
H384 C394 0.950 . S
H385 C396 0.950 . S
H386 C398 0.950 . S
H387 C399 0.950 . S
C388 H380 0.950 . S
C388 C389 1.386 . S
C388 C390 1.391 . S
C389 C388 1.386 . S
C389 C393 1.393 . S
C390 H382 0.950 . S
C390 C388 1.391 . S
C390 C391 1.400 . S
C391 C390 1.400 . S
C391 C392 1.398 . S
C391 C397 1.491 . S
C392 H383 0.950 . S
C392 C391 1.398 . S
C392 C393 1.391 . S
C393 H381 0.950 . S
C393 C389 1.393 . S
C393 C392 1.391 . S
C394 H384 0.950 . S
C394 C395 1.386 . S
C394 C396 1.391 . S
C395 C394 1.386 . S
C395 C399 1.393 . S
C396 H385 0.950 . S
C396 C394 1.391 . S
C396 C397 1.400 . S
C397 C391 1.491 . S
C397 C396 1.400 . S
C397 C398 1.398 . S
C398 H386 0.950 . S
C398 C397 1.398 . S
C398 C399 1.391 . S
C399 H387 0.950 . S
C399 C395 1.393 . S
C399 C398 1.391 . S
C169 C13 1.899 . S
C175 C64 1.899 . S
C189 C97 1.915 . S
C195 C66 1.915 . S
C209 C133 1.597 . S
C215 C104 1.597 . S
C229 C26 1.632 . S
C235 C137 1.632 . S
C249 C146 1.914 . S
C255 C17 1.914 . S
C269 C106 1.627 . S
C275 C57 1.627 . S
C289 C93 1.893 . S
C295 C144 1.893 . S
C309 C53 1.584 . S
C315 C24 1.584 . S
C329 C2 0.896 . S
C335 C23 0.896 . S
C349 C63 0.881 . S
C355 C42 0.881 . S
C369 C103 0.899 . S
C375 C82 0.899 . S
C389 C143 0.887 . S
C395 C122 0.887 . S
