# Generated by pormake.
# Topology wme, (6)-cn, num edge types: 1
# Building blocks:
#     Node 0, Type 0, BuildingBlock: KUMBUR_clean_sbu_0, # of connection points: 6
#     Node 1, Type 0, BuildingBlock: KUMBUR_clean_sbu_0, # of connection points: 6
#     Node 2, Type 0, BuildingBlock: KUMBUR_clean_sbu_0, # of connection points: 6
#     Node 3, Type 0, BuildingBlock: KUMBUR_clean_sbu_0, # of connection points: 6
#     Node 4, Type 0, BuildingBlock: KUMBUR_clean_sbu_0, # of connection points: 6
#     Node 5, Type 0, BuildingBlock: KUMBUR_clean_sbu_0, # of connection points: 6
#     Node 6, Type 0, BuildingBlock: KUMBUR_clean_sbu_0, # of connection points: 6
#     Node 7, Type 0, BuildingBlock: KUMBUR_clean_sbu_0, # of connection points: 6
#     Node 8, Type 0, BuildingBlock: KUMBUR_clean_sbu_0, # of connection points: 6
#     Node 9, Type 0, BuildingBlock: KUMBUR_clean_sbu_0, # of connection points: 6
#     Node 10, Type 0, BuildingBlock: KUMBUR_clean_sbu_0, # of connection points: 6
#     Node 11, Type 0, BuildingBlock: KUMBUR_clean_sbu_0, # of connection points: 6
#     Edge 12, Type (0, 0), BuildingBlock: AJUNOK_clean_linker_0, # of connection points: 2
#     Edge 13, Type (0, 0), BuildingBlock: AJUNOK_clean_linker_0, # of connection points: 2
#     Edge 14, Type (0, 0), BuildingBlock: AJUNOK_clean_linker_0, # of connection points: 2
#     Edge 15, Type (0, 0), BuildingBlock: AJUNOK_clean_linker_0, # of connection points: 2
#     Edge 16, Type (0, 0), BuildingBlock: AJUNOK_clean_linker_0, # of connection points: 2
#     Edge 17, Type (0, 0), BuildingBlock: AJUNOK_clean_linker_0, # of connection points: 2
#     Edge 18, Type (0, 0), BuildingBlock: AJUNOK_clean_linker_0, # of connection points: 2
#     Edge 19, Type (0, 0), BuildingBlock: AJUNOK_clean_linker_0, # of connection points: 2
#     Edge 20, Type (0, 0), BuildingBlock: AJUNOK_clean_linker_0, # of connection points: 2
#     Edge 21, Type (0, 0), BuildingBlock: AJUNOK_clean_linker_0, # of connection points: 2
#     Edge 22, Type (0, 0), BuildingBlock: AJUNOK_clean_linker_0, # of connection points: 2
#     Edge 23, Type (0, 0), BuildingBlock: AJUNOK_clean_linker_0, # of connection points: 2
#     Edge 24, Type (0, 0), BuildingBlock: AJUNOK_clean_linker_0, # of connection points: 2
#     Edge 25, Type (0, 0), BuildingBlock: AJUNOK_clean_linker_0, # of connection points: 2
#     Edge 26, Type (0, 0), BuildingBlock: AJUNOK_clean_linker_0, # of connection points: 2
#     Edge 27, Type (0, 0), BuildingBlock: AJUNOK_clean_linker_0, # of connection points: 2
#     Edge 28, Type (0, 0), BuildingBlock: AJUNOK_clean_linker_0, # of connection points: 2
#     Edge 29, Type (0, 0), BuildingBlock: AJUNOK_clean_linker_0, # of connection points: 2
#     Edge 30, Type (0, 0), BuildingBlock: AJUNOK_clean_linker_0, # of connection points: 2
#     Edge 31, Type (0, 0), BuildingBlock: AJUNOK_clean_linker_0, # of connection points: 2
#     Edge 32, Type (0, 0), BuildingBlock: AJUNOK_clean_linker_0, # of connection points: 2
#     Edge 33, Type (0, 0), BuildingBlock: AJUNOK_clean_linker_0, # of connection points: 2
#     Edge 34, Type (0, 0), BuildingBlock: AJUNOK_clean_linker_0, # of connection points: 2
#     Edge 35, Type (0, 0), BuildingBlock: AJUNOK_clean_linker_0, # of connection points: 2
#     Edge 36, Type (0, 0), BuildingBlock: AJUNOK_clean_linker_0, # of connection points: 2
#     Edge 37, Type (0, 0), BuildingBlock: AJUNOK_clean_linker_0, # of connection points: 2
#     Edge 38, Type (0, 0), BuildingBlock: AJUNOK_clean_linker_0, # of connection points: 2
#     Edge 39, Type (0, 0), BuildingBlock: AJUNOK_clean_linker_0, # of connection points: 2
#     Edge 40, Type (0, 0), BuildingBlock: AJUNOK_clean_linker_0, # of connection points: 2
#     Edge 41, Type (0, 0), BuildingBlock: AJUNOK_clean_linker_0, # of connection points: 2
#     Edge 42, Type (0, 0), BuildingBlock: AJUNOK_clean_linker_0, # of connection points: 2
#     Edge 43, Type (0, 0), BuildingBlock: AJUNOK_clean_linker_0, # of connection points: 2
#     Edge 44, Type (0, 0), BuildingBlock: AJUNOK_clean_linker_0, # of connection points: 2
#     Edge 45, Type (0, 0), BuildingBlock: AJUNOK_clean_linker_0, # of connection points: 2
#     Edge 46, Type (0, 0), BuildingBlock: AJUNOK_clean_linker_0, # of connection points: 2
#     Edge 47, Type (0, 0), BuildingBlock: AJUNOK_clean_linker_0, # of connection points: 2
# Relax obj value: 0.091
# Max RMSD: 0.218
# Mean RMSD: 0.218
data_MOF--net-wme--node1-KUMBUR_clean_sbu_0--edge1-AJUNOK_clean_linker_0
_symmetry_space_group_name_H-M    P1
_symmetry_Int_Tables_number       1
_symmetry_cell_setting            triclinic
loop_
_symmetry_equiv_pos_as_xyz
'x, y, z'
_cell_length_a     30.2698
_cell_length_b     30.319664
_cell_length_c     39.971293
_cell_angle_alpha  90.050512
_cell_angle_beta   89.920392
_cell_angle_gamma 119.81065
loop_
_atom_site_label
_atom_site_type_symbol
_atom_site_fract_x
_atom_site_fract_y
_atom_site_fract_z
_atom_type_partial_charge
Tb0 Tb 0.22475 0.39363 0.09963 0.0
C1 C 0.31086 0.29791 0.19345 0.0
C2 C 0.40061 0.35937 0.19501 0.0
C3 C 0.36074 0.30246 0.2422 0.0
C4 C 0.3531 0.33701 0.1787 0.0
C5 C 0.31429 0.27863 0.22478 0.0
C6 C 0.40387 0.34306 0.22738 0.0
C7 C 0.22821 0.21006 0.21669 0.0
N8 N 0.26699 0.27626 0.17565 0.0
C9 C 0.22654 0.23149 0.186 0.0
C10 C 0.2718 0.23448 0.23661 0.0
Tb11 Tb 0.26836 0.30903 0.12392 0.0
N12 N 0.34839 0.34957 0.14693 0.0
C13 C 0.39086 0.38095 0.12884 0.0
C14 C 0.44361 0.39538 0.17757 0.0
C15 C 0.43882 0.40553 0.14409 0.0
H16 H 0.19281 0.21253 0.17062 0.0
H17 H 0.47209 0.43166 0.12986 0.0
H18 H 0.43992 0.36003 0.24051 0.0
H19 H 0.19586 0.17476 0.22496 0.0
H20 H 0.38774 0.38733 0.1026 0.0
H21 H 1.02433 0.3251 0.11398 0.0
H22 H 0.48087 0.4137 0.18918 0.0
H23 H 0.30513 0.44811 0.03596 0.0
H24 H 0.10992 0.34512 0.13267 0.0
H25 H 0.29961 0.46859 0.97678 0.0
H26 H 0.36413 0.28868 0.26653 0.0
H27 H 1.01154 0.34337 0.05568 0.0
H28 H 0.0494 0.37949 -0.00031 0.0
H29 H 0.273 0.21787 0.26034 0.0
H30 H 0.12323 0.41567 0.96192 0.0
N31 N 0.14245 0.36378 0.08408 0.0
C32 C 0.1033 0.34772 0.10644 0.0
C33 C 0.04835 0.34904 0.0633 0.0
C34 C 0.08938 0.36852 0.04093 0.0
C35 C 0.05531 0.33838 0.09617 0.0
C36 C 0.13649 0.37499 0.052 0.0
H37 H 0.21606 0.44711 0.95269 0.0
N38 N 0.22505 0.4088 0.0436 0.0
C39 C 0.26537 0.4483 0.99165 0.0
C40 C 0.17887 0.39764 0.03104 0.0
C41 C 0.26844 0.43615 0.02497 0.0
C42 C 0.21812 0.43604 0.97816 0.0
C43 C 0.17442 0.41195 0.99817 0.0
O44 O 0.26505 0.473 0.09288 0.0
O45 O 0.29366 0.38761 0.1067 0.0
O46 O 0.25023 0.3348 0.17081 0.0
O47 O 0.1997 0.36906 0.15235 0.0
O48 O 0.28874 0.44309 0.13131 0.0
O49 O 0.19175 0.43684 0.11733 0.0
O50 O 0.23383 0.23254 0.10806 0.0
O51 O 0.20228 0.31927 0.11723 0.0
O52 O 0.23141 0.34896 0.05563 0.0
O53 O 0.29867 0.34325 0.07603 0.0
O54 O 0.19018 0.2492 0.10993 0.0
O55 O 0.31432 0.28146 0.10334 0.0
C56 C 0.31944 0.42701 0.12474 0.0
C57 C 0.21418 0.51303 0.08616 0.0
C58 C 0.17749 0.57003 0.08257 0.0
C59 C 0.18864 0.5368 0.1014 0.0
C60 C 0.19216 0.57845 0.04868 0.0
C61 C 0.22898 0.52418 0.05252 0.0
C62 C 0.21743 0.55577 0.03394 0.0
C63 C 0.22101 0.3553 0.17665 0.0
C64 C 0.22851 0.47942 0.10532 0.0
C65 C 0.12724 0.40435 0.98692 0.0
C66 C 0.08519 0.38375 0.00847 0.0
C67 C 0.16813 0.27578 0.10784 0.0
C68 C 0.28404 0.19378 0.1155 0.0
C69 C 0.25149 0.14224 0.10637 0.0
C70 C 0.25584 0.10294 0.12229 0.0
C71 C 0.29334 0.11602 0.14698 0.0
C72 C 0.32167 0.20533 0.13985 0.0
C73 C 0.32621 0.16668 0.15538 0.0
C74 C 0.26778 0.33656 0.05129 0.0
C75 C 0.27678 0.23487 0.10108 0.0
H76 H 0.17789 0.52974 0.12753 0.0
H77 H 0.18539 0.60411 0.03353 0.0
H78 H 0.25071 0.50951 0.04042 0.0
H79 H 0.22918 0.56361 0.00801 0.0
H80 H 0.22185 0.13268 0.08795 0.0
H81 H 0.29684 0.08685 0.16022 0.0
H82 H 0.34714 0.24423 0.14737 0.0
H83 H 0.35485 0.17597 0.17448 0.0
Tb84 Tb 0.87233 0.20132 0.60523 0.0
C85 C 0.05306 0.27511 0.70538 0.0
C86 C 0.09379 0.36588 0.71425 0.0
C87 C 0.1127 0.31371 0.75125 0.0
C88 C 0.06129 0.32214 0.69567 0.0
C89 C 0.07951 0.27024 0.73273 0.0
C90 C 0.11907 0.36133 0.7424 0.0
C91 C 1.03674 0.17985 0.72199 0.0
N92 N 1.02026 0.23427 0.68702 0.0
C93 C 1.01086 0.18673 0.69532 0.0
C94 C 0.07221 0.22196 0.74024 0.0
Tb95 Tb 0.9983 0.25207 0.63643 0.0
N96 N 0.03904 0.32505 0.66699 0.0
C97 C 0.04864 0.37102 0.65496 0.0
C98 C 0.10127 0.41288 0.70316 0.0
C99 C 0.07865 0.41546 0.67328 0.0
H100 H 0.98507 0.15422 0.68065 0.0
H101 H 0.08589 0.45185 0.66372 0.0
H102 H 0.14462 0.39452 0.75692 0.0
H103 H 1.03005 0.14223 0.72802 0.0
H104 H 1.03563 0.37374 0.63042 0.0
H105 H 0.76404 0.99594 0.61358 0.0
H106 H 0.12572 0.44749 0.71679 0.0
H107 H 0.87586 0.26898 0.53808 0.0
H108 H 0.80041 0.08349 0.63514 0.0
H109 H 0.87826 0.26059 0.47644 0.0
H110 H 0.13346 0.31089 0.77242 0.0
H111 H 0.78488 0.98113 0.55626 0.0
H112 H 0.82432 1.0187 0.49963 0.0
H113 H 0.09284 0.21663 0.76051 0.0
H114 H 0.85133 0.09108 0.46094 0.0
N115 N 0.83656 0.11796 0.58909 0.0
C116 C 0.80704 0.07758 0.60937 0.0
C117 C 0.79843 1.01961 0.56491 0.0
C118 C 0.82475 0.06112 0.54347 0.0
C119 C 0.78689 0.02782 0.59739 0.0
C120 C 0.84062 0.10998 0.5561 0.0
H121 H 0.86832 0.18105 0.4518 0.0
N122 N 0.8658 0.19562 0.54777 0.0
C123 C 0.8722 0.22938 0.49253 0.0
C124 C 0.85479 0.15005 0.53445 0.0
C125 C 0.87078 0.2341 0.52734 0.0
C126 C 0.8665 0.18439 0.47869 0.0
C127 C 0.85663 0.14358 0.49973 0.0
O128 O 0.81643 0.22034 0.59047 0.0
O129 O 0.94282 0.27194 0.61562 0.0
O130 O 0.95356 0.24764 0.6802 0.0
O131 O 0.87243 0.18809 0.66074 0.0
O132 O 0.87724 0.27136 0.62332 0.0
O133 O 0.79947 0.16311 0.62752 0.0
O134 O 0.04215 0.22107 0.61754 0.0
O135 O 0.92364 0.18277 0.63009 0.0
O136 O 0.93428 0.22006 0.56532 0.0
O137 O 1.00004 0.28855 0.59007 0.0
O138 O 0.9862 0.17743 0.62061 0.0
O139 O 0.07371 0.30196 0.62045 0.0
C140 C 0.92523 0.29969 0.62656 0.0
C141 C 0.7291 0.15338 0.59511 0.0
C142 C 0.63651 0.12384 0.59187 0.0
C143 C 0.6858 0.15705 0.6054 0.0
C144 C 0.63157 0.08603 0.56928 0.0
C145 C 0.7221 0.11642 0.57137 0.0
C146 C 0.67386 0.08276 0.55896 0.0
C147 C 0.90407 0.21764 0.68511 0.0
C148 C 0.78103 0.18625 0.60976 0.0
C149 C 0.84823 0.09658 0.48745 0.0
C150 C 0.8329 0.05541 0.50948 0.0
C151 C 0.93776 0.15214 0.62028 0.0
C152 C 0.12947 0.26814 0.63102 0.0
C153 C 0.14328 0.23026 0.62505 0.0
C154 C 0.18639 0.23275 0.64091 0.0
C155 C 0.21569 0.27442 0.66208 0.0
C156 C 0.15973 0.30867 0.65254 0.0
C157 C 0.20232 0.3116 0.66791 0.0
C158 C 0.98147 0.26001 0.56348 0.0
C159 C 0.08332 0.26493 0.61528 0.0
H160 H 0.69058 0.18596 0.62329 0.0
H161 H 0.59465 0.05896 0.55918 0.0
H162 H 0.75388 0.1131 0.5625 0.0
H163 H 0.66922 0.05392 0.54107 0.0
H164 H 0.12033 0.19886 0.60842 0.0
H165 H 0.25002 0.27911 0.67373 0.0
H166 H 0.1507 0.33839 0.65755 0.0
H167 H 0.22542 0.34327 0.68426 0.0
Tb168 Tb 0.66764 0.84815 0.10075 0.0
C169 C 0.71254 0.03119 0.19602 0.0
C170 C 0.64846 0.05127 0.17816 0.0
C171 C 0.68336 0.07398 0.23419 0.0
C172 C 0.67983 0.02989 0.17191 0.0
C173 C 0.71635 0.05515 0.22701 0.0
C174 C 0.64912 0.0717 0.20982 0.0
C175 C 0.78791 0.04427 0.24012 0.0
N176 N 0.74335 1.01219 0.18813 0.0
C177 C 0.7818 1.01957 0.20943 0.0
C178 C 0.75446 0.06121 0.24928 0.0
Tb179 Tb 0.73304 0.97496 0.13644 0.0
N180 N 0.68189 1.01144 0.14143 0.0
C181 C 0.65672 1.01809 0.11516 0.0
C182 C 0.61923 0.05366 0.15198 0.0
C183 C 0.62422 0.03793 0.12016 0.0
H184 H 0.80863 1.00744 0.2028 0.0
H185 H 0.6031 0.04112 0.09937 0.0
H186 H 0.62491 0.08775 0.2152 0.0
H187 H 0.81887 0.05112 0.25656 0.0
H188 H 0.65952 1.0066 0.09022 0.0
H189 H 0.73485 0.73339 0.16107 0.0
H190 H 0.59443 0.06948 0.15575 0.0
H191 H 0.64427 0.85963 0.02156 0.0
H192 H 0.70643 0.79594 0.15899 0.0
H193 H 0.65043 0.82507 0.96697 0.0
H194 H 0.68512 0.09173 0.25807 0.0
H195 H 0.74864 0.69846 0.10876 0.0
H196 H 0.74108 0.69161 0.04644 0.0
H197 H 0.75929 0.08014 0.27311 0.0
H198 H 0.71641 0.71529 0.99394 0.0
N199 N 0.70633 0.79983 0.1057 0.0
C200 C 0.71301 0.78226 0.13577 0.0
C201 C 0.73707 0.72699 0.1076 0.0
C202 C 0.72829 0.74334 0.07692 0.0
C203 C 0.72921 0.74647 0.13715 0.0
C204 C 0.71358 0.78087 0.07673 0.0
H205 H 0.68528 0.7669 0.96376 0.0
N206 N 0.68296 0.82806 0.04828 0.0
C207 C 0.66561 0.81702 0.98917 0.0
C208 C 0.70224 0.79611 0.04694 0.0
C209 C 0.6628 0.83703 0.02007 0.0
C210 C 0.68565 0.78448 0.98743 0.0
C211 C 0.70316 0.77266 0.01659 0.0
O212 O 0.59335 0.79948 0.08203 0.0
O213 O 0.65832 0.90827 0.12327 0.0
O214 O 0.69487 0.9285 0.17975 0.0
O215 O 0.66745 0.84691 0.15739 0.0
O216 O 0.6166 0.87305 0.08132 0.0
O217 O 0.61951 0.77758 0.1249 0.0
O218 O 0.81378 1.01538 0.13317 0.0
O219 O 0.73881 0.91021 0.11748 0.0
O220 O 0.72024 0.90718 0.06295 0.0
O221 O 0.7145 0.97445 0.08436 0.0
O222 O 0.78296 0.94878 0.15744 0.0
O223 O 0.77058 0.04491 0.11032 0.0
C224 C 0.62249 0.90484 0.10455 0.0
C225 C 0.56279 0.70991 0.0884 0.0
C226 C 0.50784 0.61536 0.08918 0.0
C227 C 0.52359 0.66444 0.10369 0.0
C228 C 0.53526 0.61371 0.06113 0.0
C229 C 0.58248 0.70504 0.05782 0.0
C230 C 0.57083 0.65788 0.04516 0.0
C231 C 0.67511 0.87864 0.18314 0.0
C232 C 0.58304 0.76256 0.10298 0.0
C233 C 0.71726 0.73501 0.01674 0.0
C234 C 0.73071 0.72106 0.04673 0.0
C235 C 0.77219 0.91169 0.13738 0.0
C236 C 0.85579 0.10515 0.12729 0.0
C237 C 0.90832 0.12465 0.11967 0.0
C238 C 0.94575 0.17475 0.12939 0.0
C239 C 0.92898 0.2045 0.14638 0.0
C240 C 0.84133 0.13602 0.14482 0.0
C241 C 0.87762 0.18527 0.15409 0.0
C242 C 0.72657 0.95403 0.05976 0.0
C243 C 0.81625 0.05307 0.11656 0.0
H244 H 0.5047 0.66778 0.12572 0.0
H245 H 0.52799 0.57792 0.05041 0.0
H246 H 0.60646 0.7378 0.04318 0.0
H247 H 0.58881 0.65553 0.0223 0.0
H248 H 0.91984 0.10056 0.10679 0.0
H249 H 0.95576 0.24317 0.15374 0.0
H250 H 0.80178 0.12216 0.15124 0.0
H251 H 0.86585 0.20885 0.16737 0.0
Tb252 Tb 0.869 0.65264 0.58695 0.0
C253 C 0.72626 0.69033 0.68086 0.0
C254 C 0.64292 0.6361 0.65738 0.0
C255 C 0.65131 0.65714 0.7165 0.0
C256 C 0.69632 0.66535 0.65385 0.0
C257 C 0.70407 0.68838 0.71222 0.0
C258 C 0.62075 0.63067 0.6891 0.0
C259 C 0.78664 0.75308 0.73138 0.0
N260 N 0.77689 0.72026 0.67557 0.0
C261 C 0.80689 0.75324 0.69986 0.0
C262 C 0.73515 0.71997 0.73774 0.0
Tb263 Tb 0.80722 0.71956 0.62319 0.0
N264 N 0.71928 0.67331 0.6236 0.0
C265 C 0.68992 0.65644 0.59532 0.0
C266 C 0.61334 0.61522 0.62875 0.0
C267 C 0.63691 0.62632 0.5975 0.0
H268 H 0.84625 0.78024 0.69481 0.0
H269 H 0.61432 0.61172 0.57501 0.0
H270 H 0.5799 0.60794 0.6924 0.0
H271 H 0.81032 0.77915 0.75052 0.0
H272 H 0.70661 0.66443 0.57076 0.0
H273 H 0.05972 0.70883 0.62631 0.0
H274 H 0.57226 0.59225 0.63036 0.0
H275 H 0.81751 0.6215 0.51085 0.0
H276 H 0.96804 0.675 0.63277 0.0
H277 H 0.84593 0.62762 0.45277 0.0
H278 H 0.63362 0.65458 0.74055 0.0
H279 H 0.09878 0.73168 0.57022 0.0
H280 H 0.08458 0.72353 0.50872 0.0
H281 H 0.71916 0.72088 0.76178 0.0
H282 H 1.02562 0.69839 0.46143 0.0
N283 N 0.95609 0.6897 0.58248 0.0
C284 C 0.98499 0.68951 0.60868 0.0
C285 C 0.05895 0.72034 0.57335 0.0
C286 C 1.02794 0.7134 0.54576 0.0
C287 C 1.03706 0.70734 0.60497 0.0
C288 C 0.97633 0.69936 0.55117 0.0
H289 H 0.93763 0.66662 0.43992 0.0
N290 N 0.89261 0.6628 0.53125 0.0
C291 C 0.87372 0.64389 0.47266 0.0
C292 C 0.94317 0.68511 0.52444 0.0
C293 C 0.85781 0.6406 0.50582 0.0
C294 C 0.92546 0.66632 0.46548 0.0
C295 C 0.96071 0.68531 0.49161 0.0
O296 O 0.84615 0.57744 0.57126 0.0
O297 O 0.79917 0.64667 0.60662 0.0
O298 O 0.80975 0.67388 0.66402 0.0
O299 O 0.8755 0.66062 0.6439 0.0
O300 O 0.7937 0.6001 0.56804 0.0
O301 O 0.88724 0.60578 0.61657 0.0
O302 O 0.84602 0.79925 0.62794 0.0
O303 O 0.8769 0.72045 0.60809 0.0
O304 O 0.8667 0.70883 0.55004 0.0
O305 O 0.79492 0.70838 0.57011 0.0
O306 O 0.88549 0.77632 0.63925 0.0
O307 O 0.7794 0.76148 0.59715 0.0
C308 C 0.76738 0.61098 0.5879 0.0
C309 C 0.90602 0.55036 0.58491 0.0
C310 C 0.94481 0.49536 0.59028 0.0
C311 C 0.90753 0.50866 0.60033 0.0
C312 C 0.98284 0.52768 0.56765 0.0
C313 C 0.94019 0.57567 0.55881 0.0
C314 C 0.97956 0.56632 0.55133 0.0
C315 C 0.84516 0.66104 0.66872 0.0
C316 C 0.87 0.56865 0.59516 0.0
C317 C 1.01195 0.69992 0.48623 0.0
C318 C 0.04553 0.71412 0.5132 0.0
C319 C 0.9108 0.75999 0.62259 0.0
C320 C 0.79949 0.84152 0.62165 0.0
C321 C 0.8347 0.89428 0.62017 0.0
C322 C 0.82176 0.93027 0.63231 0.0
C323 C 0.77292 0.9118 0.64639 0.0
C324 C 0.75145 0.82462 0.63595 0.0
C325 C 0.73837 0.85968 0.64822 0.0
C326 C 0.82909 0.71994 0.54666 0.0
C327 C 0.81451 0.805 0.60909 0.0
H328 H 0.87922 0.48604 0.61894 0.0
H329 H 1.01409 0.52148 0.56117 0.0
H330 H 0.93624 0.60258 0.54388 0.0
H331 H 1.00705 0.58843 0.53217 0.0
H332 H 0.87237 0.90692 0.61013 0.0
H333 H 0.7609 0.93764 0.65584 0.0
H334 H 0.72417 0.78438 0.63781 0.0
H335 H 0.70115 0.84642 0.65918 0.0
Tb336 Tb 0.2047 0.83233 0.10177 0.0
C337 C 1.02879 0.73296 0.19814 0.0
C338 C 1.00629 0.64474 0.19403 0.0
C339 C 0.99186 0.67719 0.24609 0.0
C340 C 1.0272 0.6937 0.17992 0.0
C341 C 1.00895 0.72472 0.23088 0.0
C342 C 0.99074 0.63722 0.22769 0.0
C343 C 1.01625 0.80767 0.22867 0.0
N344 N 0.04536 0.77811 0.18239 0.0
C345 C 1.03644 0.81422 0.19633 0.0
C346 C 1.00392 0.76337 0.24644 0.0
Tb347 Tb 0.07572 0.78449 0.12889 0.0
N348 N 0.04027 0.70217 0.14714 0.0
C349 C 1.02707 0.66195 0.12621 0.0
C350 C 0.99847 0.60433 0.17328 0.0
C351 C 1.00764 0.61277 0.139 0.0
H352 H 0.04633 0.84877 0.18287 0.0
H353 H 0.99901 0.58135 0.12234 0.0
H354 H 0.97525 0.60006 0.23914 0.0
H355 H 1.01048 0.83691 0.23992 0.0
H356 H 1.03158 0.66758 0.09954 0.0
H357 H 0.29775 1.00857 0.17149 0.0
H358 H 0.98255 0.5661 0.18308 0.0
H359 H 0.20946 0.80679 0.02131 0.0
H360 H 0.23354 0.92024 0.1629 0.0
H361 H 0.25554 0.85352 0.97072 0.0
H362 H 0.97725 0.67027 0.27145 0.0
H363 H 0.3524 0.06003 0.12461 0.0
H364 H 0.37658 0.06531 0.06422 0.0
H365 H 0.98828 0.75837 0.27144 0.0
H366 H 0.3638 1.02371 0.00943 0.0
N367 N 0.25099 0.91854 0.11118 0.0
C368 C 0.25672 0.94086 0.14189 0.0
C369 C 0.32395 1.02061 0.12051 0.0
C370 C 0.31741 0.9983 0.08899 0.0
C371 C 0.29321 0.99178 0.14698 0.0
C372 C 0.28013 0.94666 0.08505 0.0
H373 H 0.31674 0.94574 0.97389 0.0
N374 N 0.23867 0.87304 0.052 0.0
C375 C 0.26047 0.87377 0.99397 0.0
C376 C 0.27282 0.92344 0.05422 0.0
C377 C 0.23373 0.8476 0.0226 0.0
C378 C 0.29502 0.92577 0.99587 0.0
C379 C 0.30254 0.95098 0.02644 0.0
O380 O 0.27579 0.84036 0.08622 0.0
O381 O 0.13666 0.7644 0.11869 0.0
O382 O 0.1199 0.81067 0.1746 0.0
O383 O 0.2027 0.83301 0.15739 0.0
O384 O 0.17755 0.75863 0.07908 0.0
O385 O 0.24562 0.81023 0.13389 0.0
O386 O 1.03217 0.82063 0.12253 0.0
O387 O 0.15041 0.8523 0.11945 0.0
O388 O 0.14985 0.8188 0.05867 0.0
O389 O 0.07286 0.75547 0.07983 0.0
O390 O 0.08922 0.85765 0.10811 0.0
O391 O 1.00119 0.74193 0.10936 0.0
C392 C 0.14005 0.73251 0.09905 0.0
C393 C 0.3359 0.86269 0.13074 0.0
C394 C 0.42903 0.89803 0.13742 0.0
C395 C 0.38207 0.86418 0.12128 0.0
C396 C 0.42894 0.93171 0.1616 0.0
C397 C 0.33779 0.89517 0.15647 0.0
C398 C 0.38382 0.92989 0.17118 0.0
C399 C 0.16802 0.82473 0.18081 0.0
C400 C 0.28552 0.82716 0.11484 0.0
C401 C 0.34011 1.00213 0.03035 0.0
C402 C 0.34746 0.02578 0.06155 0.0
C403 C 0.1377 0.8823 0.10634 0.0
C404 C 0.94326 0.76942 0.12842 0.0
C405 C 0.92422 0.80343 0.12367 0.0
C406 C 0.87942 0.79537 0.14024 0.0
C407 C 0.85354 0.7522 0.16076 0.0
C408 C 0.91645 0.72702 0.14928 0.0
C409 C 0.87181 0.71844 0.16511 0.0
C410 C 0.10089 0.78255 0.05478 0.0
C411 C 0.99192 0.77956 0.11259 0.0
H412 H 0.38122 0.83849 0.10212 0.0
H413 H 0.46404 0.95965 0.17336 0.0
H414 H 0.30348 0.8936 0.16555 0.0
H415 H 0.38445 0.95536 0.19043 0.0
H416 H 0.94496 0.8367 0.108 0.0
H417 H 0.81913 0.74474 0.17381 0.0
H418 H 0.9302 0.70065 0.15362 0.0
H419 H 0.85148 0.68566 0.1812 0.0
Tb420 Tb 0.41069 0.20032 0.60032 0.0
C421 C 0.39578 0.03199 0.68293 0.0
C422 C 0.44363 1.00313 0.64973 0.0
C423 C 0.44371 0.9972 0.71024 0.0
C424 C 0.41139 1.02442 0.65187 0.0
C425 C 0.41007 1.01633 0.7123 0.0
C426 C 0.46072 0.99094 0.67903 0.0
C427 C 0.3521 0.03362 0.74341 0.0
N428 N 0.36373 0.05117 0.6843 0.0
C429 C 0.33977 0.04964 0.71383 0.0
C430 C 0.38831 1.01807 0.74277 0.0
Tb431 Tb 0.34418 0.07324 0.63375 0.0
N432 N 0.39332 0.03562 0.62386 0.0
C433 C 0.405 1.02419 0.59295 0.0
C434 C 0.45695 0.99353 0.61821 0.0
C435 C 0.43702 1.00352 0.58978 0.0
H436 H 0.31187 0.06195 0.71454 0.0
H437 H 0.4467 0.99575 0.56522 0.0
H438 H 0.48583 0.97508 0.67777 0.0
H439 H 0.33381 0.03326 0.76673 0.0
H440 H 0.39169 0.03178 0.57001 0.0
H441 H 0.30899 0.30041 0.62733 0.0
H442 H 0.48181 0.97756 0.61558 0.0
H443 H 0.47461 0.2128 0.52941 0.0
H444 H 0.35813 0.25842 0.64106 0.0
H445 H 0.46565 0.2264 0.46932 0.0
H446 H 0.45563 0.98574 0.73258 0.0
H447 H 0.27834 0.29741 0.56958 0.0
H448 H 0.2766 0.27113 0.5095 0.0
H449 H 0.39793 1.00588 0.76577 0.0
H450 H 0.32011 0.2499 0.46542 0.0
N451 N 0.35838 0.23371 0.59108 0.0
C452 C 0.34603 0.25731 0.61557 0.0
C453 C 0.30086 0.27962 0.57529 0.0
C454 C 0.31515 0.2571 0.55016 0.0
C455 C 0.3179 0.2812 0.60795 0.0
C456 C 0.34623 0.23637 0.55878 0.0
H457 H 0.39388 0.23724 0.45017 0.0
N458 N 0.40809 0.21522 0.54397 0.0
C459 C 0.43856 0.22581 0.48727 0.0
C460 C 0.37187 0.22637 0.5342 0.0
C461 C 0.44375 0.21851 0.52131 0.0
C462 C 0.39784 0.2316 0.47653 0.0
C463 C 0.36491 0.2337 0.50024 0.0
O464 O 0.48406 0.25906 0.58529 0.0
O465 O 0.41399 0.13024 0.60886 0.0
O466 O 0.38456 0.12761 0.67482 0.0
O467 O 0.3909 0.2014 0.65358 0.0
O468 O 0.47769 0.19728 0.61669 0.0
O469 O 0.44604 0.26949 0.62694 0.0
O470 O 0.27267 0.04013 0.65718 0.0
O471 O 0.34259 0.14393 0.62478 0.0
O472 O 0.37714 0.14317 0.55762 0.0
O473 O 0.33802 0.06144 0.58103 0.0
O474 O 0.27979 0.07852 0.61273 0.0
O475 O 0.29304 0.99427 0.62599 0.0
C476 C 0.4598 0.1495 0.61906 0.0
C477 C 0.50086 0.34401 0.5964 0.0
C478 C 0.56172 0.43629 0.5939 0.0
C479 C 0.54974 0.38633 0.60343 0.0
C480 C 0.52396 0.44312 0.57836 0.0
C481 C 0.46516 0.35282 0.57984 0.0
C482 C 0.47628 0.40178 0.57134 0.0
C483 C 0.39471 0.17506 0.67886 0.0
C484 C 0.48579 0.29128 0.60757 0.0
C485 C 0.32764 0.24624 0.49142 0.0
C486 C 0.30284 0.2582 0.51647 0.0
C487 C 0.29822 0.12656 0.61303 0.0
C488 C 0.21556 0.95027 0.65957 0.0
C489 C 0.16833 0.91934 0.64306 0.0
C490 C 0.1254 0.88117 0.66074 0.0
C491 C 0.13189 0.8753 0.69516 0.0
C492 C 0.22031 0.94112 0.69328 0.0
C493 C 0.1788 0.90405 0.71089 0.0
C494 C 0.35028 0.09218 0.55532 0.0
C495 C 0.25676 0.99606 0.64278 0.0
H496 H 0.57844 0.38034 0.61537 0.0
H497 H 0.53199 0.48068 0.57068 0.0
H498 H 0.42835 0.32198 0.57347 0.0
H499 H 0.44792 0.40762 0.55878 0.0
H500 H 0.16546 0.92572 0.61674 0.0
H501 H 0.10041 0.84889 0.71057 0.0
H502 H 0.25565 0.96344 0.70641 0.0
H503 H 0.18262 0.89838 0.73724 0.0
Tb504 Tb 0.67655 0.82829 0.40246 0.0
C505 C 0.69446 0.69136 0.3001 0.0
C506 C 0.65215 0.60789 0.32553 0.0
C507 C 0.64969 0.61591 0.26526 0.0
C508 C 0.67962 0.66141 0.32857 0.0
C509 C 0.68143 0.66871 0.2681 0.0
C510 C 0.63501 0.58551 0.29397 0.0
C511 C 0.73783 0.75085 0.244 0.0
N512 N 0.72598 0.74221 0.30372 0.0
C513 C 0.74944 0.77178 0.27619 0.0
C514 C 0.70286 0.69935 0.2399 0.0
Tb515 Tb 0.73936 0.77174 0.35795 0.0
N516 N 0.6985 0.68426 0.35856 0.0
C517 C 0.69932 0.65547 0.38468 0.0
C518 C 0.64673 0.57842 0.35372 0.0
C519 C 0.67243 0.60237 0.38297 0.0
H520 H 0.77447 0.8121 0.27872 0.0
H521 H 0.67209 0.57998 0.40416 0.0
H522 H 0.61309 0.54455 0.29131 0.0
H523 H 0.75481 0.77458 0.22227 0.0
H524 H 0.7216 0.67246 0.40674 0.0
H525 H 0.74301 1.01933 0.35958 0.0
H526 H 0.62633 0.53728 0.3524 0.0
H527 H 0.6547 0.77809 0.47858 0.0
H528 H 0.71813 0.92965 0.35353 0.0
H529 H 0.65874 0.80697 0.53663 0.0
H530 H 0.63855 0.59798 0.24091 0.0
H531 H 0.75027 0.056 0.41591 0.0
H532 H 0.73463 0.04086 0.47735 0.0
H533 H 0.69384 0.68333 0.21495 0.0
H534 H 0.71147 0.98309 0.5253 0.0
N535 N 0.71538 0.9152 0.40575 0.0
C536 C 0.72237 0.94488 0.37827 0.0
C537 C 0.7411 1.01676 0.41336 0.0
C538 C 0.7315 0.98584 0.44143 0.0
C539 C 0.73666 0.99614 0.38159 0.0
C540 C 0.72045 0.93514 0.43683 0.0
H541 H 0.68879 0.89758 0.5483 0.0
N542 N 0.68964 0.85269 0.45769 0.0
C543 C 0.67269 0.83436 0.51642 0.0
C544 C 0.70808 0.90282 0.4639 0.0
C545 C 0.67087 0.81823 0.48343 0.0
C546 C 0.69005 0.88556 0.52295 0.0
C547 C 0.70621 0.92015 0.49642 0.0
O548 O 0.60296 0.80572 0.42215 0.0
O549 O 0.66673 0.75992 0.37747 0.0
O550 O 0.68958 0.77944 0.32163 0.0
O551 O 0.67437 0.83958 0.34728 0.0
O552 O 0.62813 0.75052 0.42047 0.0
O553 O 0.62799 0.84972 0.37769 0.0
O554 O 0.81193 0.8059 0.38124 0.0
O555 O 0.74713 0.84112 0.37967 0.0
O556 O 0.73415 0.82226 0.43577 0.0
O557 O 0.7307 0.75165 0.41092 0.0
O558 O 0.78297 0.8468 0.33505 0.0
O559 O 0.79361 0.75148 0.34241 0.0
C560 C 0.63476 0.72573 0.39682 0.0
C561 C 0.57167 0.86416 0.41227 0.0
C562 C 0.51543 0.90265 0.40945 0.0
C563 C 0.52945 0.86639 0.39767 0.0
C564 C 0.54822 0.93938 0.43259 0.0
C565 C 0.59601 0.89604 0.43945 0.0
C566 C 0.58655 0.93482 0.44835 0.0
C567 C 0.67387 0.81303 0.32051 0.0
C568 C 0.5918 0.83019 0.3999 0.0
C569 C 0.71561 0.96999 0.50091 0.0
C570 C 0.72837 1.00278 0.47352 0.0
C571 C 0.77652 0.87288 0.358 0.0
C572 C 0.87995 0.81699 0.34619 0.0
C573 C 0.92544 0.82473 0.36152 0.0
C574 C 0.97293 0.85458 0.34545 0.0
C575 C 0.9744 0.87701 0.31445 0.0
C576 C 0.88303 0.84029 0.31527 0.0
C577 C 0.92983 0.87015 0.29963 0.0
C578 C 0.74293 0.78297 0.43655 0.0
C579 C 0.82945 0.78387 0.36186 0.0
H580 H 0.5072 0.83956 0.37828 0.0
H581 H 0.54277 0.97073 0.43991 0.0
H582 H 0.62236 0.89085 0.45411 0.0
H583 H 0.60848 0.96098 0.46814 0.0
H584 H 0.92382 0.80687 0.38531 0.0
H585 H 1.01032 0.90004 0.30166 0.0
H586 H 0.84927 0.83514 0.3029 0.0
H587 H 0.93152 0.88773 0.27575 0.0
Tb588 Tb 0.86446 0.66531 0.89219 0.0
C589 C 1.02707 0.6673 0.83911 0.0
C590 C 0.07526 0.66045 0.88476 0.0
C591 C 0.05531 0.605 0.83651 0.0
C592 C 0.04779 0.68196 0.87031 0.0
C593 C 1.0324 0.63019 0.82108 0.0
C594 C 0.07682 0.62019 0.86841 0.0
C595 C 0.99997 0.65192 0.77263 0.0
N596 N 1.00568 0.69292 0.82532 0.0
C597 C 0.99617 0.68866 0.79168 0.0
C598 C 1.01669 0.62135 0.7877 0.0
Tb599 Tb 0.98949 0.74384 0.86048 0.0
N600 N 0.04553 0.72119 0.88477 0.0
C601 C 0.07822 0.74652 0.91072 0.0
C602 C 0.10251 0.68189 0.91414 0.0
C603 C 0.10538 0.72624 0.92654 0.0
H604 H 0.98621 0.71376 0.77906 0.0
H605 H 0.129 0.74525 0.94803 0.0
H606 H 0.09662 0.60229 0.87947 0.0
H607 H 0.99066 0.64776 0.74626 0.0
H608 H 0.08319 0.78226 0.91988 0.0
H609 H 0.75093 0.71199 0.81166 0.0
H610 H 0.12398 0.6665 0.92616 0.0
H611 H 0.85986 0.66186 0.97733 0.0
H612 H 0.80362 0.67515 0.82578 0.0
H613 H 0.85111 0.71193 0.02246 0.0
H614 H 0.05871 0.57552 0.82342 0.0
H615 H 0.73245 0.76011 0.85385 0.0
H616 H 0.7486 0.79886 0.91122 0.0
H617 H 1.02004 0.59319 0.77291 0.0
H618 H 0.78499 0.80671 0.96743 0.0
N619 N 0.82052 0.70538 0.8754 0.0
C620 C 0.79926 0.69841 0.84427 0.0
C621 C 0.7579 0.74585 0.85994 0.0
C622 C 0.77921 0.75277 0.89175 0.0
C623 C 0.76811 0.71864 0.83611 0.0
C624 C 0.80962 0.7307 0.899 0.0
H625 H 0.82456 0.77501 0.00946 0.0
N626 N 0.84763 0.70253 0.93786 0.0
C627 C 0.84492 0.71869 0.99675 0.0
C628 C 0.82621 0.73151 0.93106 0.0
C629 C 0.85098 0.69121 0.97079 0.0
C630 C 0.82955 0.75389 0.98937 0.0
C631 C 0.81621 0.75769 0.95652 0.0
O632 O 0.80823 0.60414 0.92064 0.0
O633 O 0.92951 0.66378 0.86961 0.0
O634 O 0.93588 0.72653 0.82005 0.0
O635 O 0.86561 0.65133 0.83673 0.0
O636 O 0.89801 0.6222 0.91221 0.0
O637 O 0.79968 0.60477 0.86835 0.0
O638 O 1.00914 0.79318 0.81912 0.0
O639 O 0.9163 0.7393 0.87139 0.0
O640 O 0.92101 0.69053 0.93485 0.0
O641 O 0.99665 0.75582 0.91334 0.0
O642 O 0.98011 0.80134 0.88832 0.0
O643 O 0.06257 0.81105 0.85961 0.0
C644 C 0.93115 0.63102 0.88912 0.0
C645 C 0.72297 0.56995 0.90087 0.0
C646 C 0.62919 0.51248 0.89845 0.0
C647 C 0.67983 0.5222 0.8921 0.0
C648 C 0.62305 0.55204 0.91172 0.0
C649 C 0.71406 0.60655 0.91599 0.0
C650 C 0.66497 0.59825 0.92064 0.0
C651 C 0.89364 0.68426 0.81279 0.0
C652 C 0.77728 0.58215 0.89588 0.0
C653 C 0.79083 0.78444 0.94863 0.0
C654 C 0.77045 0.78024 0.91661 0.0
C655 C 0.93162 0.78193 0.88579 0.0
C656 C 0.08757 0.87515 0.8151 0.0
C657 C 0.12396 0.91902 0.83289 0.0
C658 C 0.1492 0.96744 0.81702 0.0
C659 C 0.13556 0.9707 0.78375 0.0
C660 C 0.07819 0.88017 0.78136 0.0
C661 C 0.10158 0.92754 0.766 0.0
C662 C 0.96867 0.72875 0.93834 0.0
C663 C 0.05175 0.82691 0.8324 0.0
H664 H 0.68557 0.49258 0.88144 0.0
H665 H 0.58538 0.54691 0.91579 0.0
H666 H 0.74514 0.6416 0.92488 0.0
H667 H 0.65937 0.62767 0.93181 0.0
H668 H 0.1313 0.91579 0.85903 0.0
H669 H 0.15063 1.00703 0.77125 0.0
H670 H 0.05066 0.84766 0.76716 0.0
H671 H 0.09228 0.93106 0.74036 0.0
Tb672 Tb 0.22217 0.8459 0.40066 0.0
C673 C 0.32202 1.01351 0.29224 0.0
C674 C 0.4098 0.0339 0.28903 0.0
C675 C 0.36912 0.04696 0.24051 0.0
C676 C 0.36386 1.01537 0.30694 0.0
C677 C 0.32434 0.03077 0.25924 0.0
C678 C 0.4118 0.04831 0.25536 0.0
C679 C 0.24061 1.02025 0.26761 0.0
N680 N 0.2796 0.9971 0.31124 0.0
C681 C 0.24006 1.00262 0.30008 0.0
C682 C 0.28243 0.03326 0.24679 0.0
Tb683 Tb 0.28271 0.97285 0.36494 0.0
N684 N 0.3604 1.0025 0.3397 0.0
C685 C 0.403 1.01158 0.35689 0.0
C686 C 0.45266 0.03928 0.30593 0.0
C687 C 0.44942 0.02886 0.34019 0.0
H688 H 0.20782 0.99313 0.31612 0.0
H689 H 0.48278 0.03478 0.35385 0.0
H690 H 0.4466 0.06222 0.24101 0.0
H691 H 0.20888 1.02398 0.25873 0.0
H692 H 0.40138 1.00586 0.38358 0.0
H693 H 1.01648 0.76116 0.39586 0.0
H694 H 0.48877 0.05332 0.29313 0.0
H695 H 0.28923 0.84583 0.46695 0.0
H696 H 0.1002 0.77747 0.37499 0.0
H697 H 0.28406 0.8514 0.52864 0.0
H698 H 0.37164 0.0599 0.21495 0.0
H699 H 1.00947 0.7916 0.4521 0.0
H700 H 0.05044 0.82424 0.50888 0.0
H701 H 0.28276 0.04701 0.22175 0.0
H702 H 0.12255 0.84377 0.54648 0.0
N703 N 0.14013 0.81761 0.4187 0.0
C704 C 0.09744 0.78979 0.39988 0.0
C705 C 0.04607 0.79809 0.44325 0.0
C706 C 0.08854 0.8187 0.46436 0.0
C707 C 0.04986 0.78063 0.41156 0.0
C708 C 0.13491 0.82598 0.45139 0.0
H709 H 0.20913 0.85078 0.55436 0.0
N710 N 0.21807 0.84182 0.45831 0.0
C711 C 0.25322 0.84769 0.51301 0.0
C712 C 0.17472 0.83637 0.47238 0.0
C713 C 0.25604 0.84432 0.47817 0.0
C714 C 0.21082 0.84728 0.52747 0.0
C715 C 0.17054 0.84105 0.50706 0.0
O716 O 0.23797 0.78752 0.41464 0.0
O717 O 0.29538 0.91291 0.38725 0.0
O718 O 0.2636 0.92151 0.32226 0.0
O719 O 0.20306 0.84366 0.3461 0.0
O720 O 0.28951 0.84448 0.38284 0.0
O721 O 0.17817 0.77246 0.37995 0.0
O722 O 0.2535 1.01963 0.38219 0.0
O723 O 0.21137 0.90204 0.37555 0.0
O724 O 0.24636 0.91024 0.43881 0.0
O725 O 0.31599 0.9718 0.41209 0.0
O726 O 0.20815 0.96633 0.37528 0.0
O727 O 0.33362 0.04938 0.37833 0.0
C728 C 0.32024 0.89144 0.37723 0.0
C729 C 0.16877 0.70087 0.41124 0.0
C730 C 0.13717 0.60736 0.41322 0.0
C731 C 0.17028 0.6569 0.39959 0.0
C732 C 0.10295 0.60379 0.43843 0.0
C733 C 0.13435 0.69471 0.43669 0.0
C734 C 0.10184 0.64673 0.45004 0.0
C735 C 0.22959 0.87248 0.31984 0.0
C736 C 0.20152 0.75276 0.39629 0.0
C737 C 0.1263 0.8391 0.51993 0.0
C738 C 0.08542 0.82848 0.49846 0.0
C739 C 0.18133 0.91875 0.38117 0.0
C740 C 0.30202 0.10775 0.36877 0.0
C741 C 0.26829 0.12635 0.37759 0.0
C742 C 0.2743 0.17247 0.36357 0.0
C743 C 0.31514 0.1992 0.34118 0.0
C744 C 0.34108 0.13562 0.34567 0.0
C745 C 0.34755 0.18081 0.33222 0.0
C746 C 0.2876 0.9565 0.43895 0.0
C747 C 0.29759 0.0603 0.38398 0.0
H748 H 0.19749 0.66157 0.38037 0.0
H749 H 0.07617 0.56734 0.44917 0.0
H750 H 0.13225 0.72707 0.44615 0.0
H751 H 0.07516 0.64265 0.4695 0.0
H752 H 0.23734 0.1046 0.39481 0.0
H753 H 0.32253 0.23505 0.33049 0.0
H754 H 0.36716 0.12274 0.33807 0.0
H755 H 0.37826 0.20204 0.31472 0.0
Tb756 Tb 0.39879 0.21458 0.89814 0.0
C757 C 0.31351 0.30847 0.79613 0.0
C758 C 0.37156 0.3989 0.79263 0.0
C759 C 0.30961 0.35586 0.74839 0.0
C760 C 0.35256 0.3522 0.80952 0.0
C761 C 0.29037 0.30977 0.76594 0.0
C762 C 0.35053 0.40034 0.76158 0.0
C763 C 0.22975 0.22071 0.77393 0.0
N764 N 0.29687 0.2648 0.81365 0.0
C765 C 0.25553 0.22099 0.80299 0.0
C766 C 0.24745 0.26521 0.75516 0.0
Tb767 Tb 0.33028 0.27148 0.86569 0.0
N768 N 0.36978 0.34921 0.8402 0.0
C769 C 0.4041 0.39233 0.8564 0.0
C770 C 0.40962 0.44282 0.80811 0.0
C771 C 0.42562 0.43955 0.84034 0.0
H772 H 0.24097 0.18662 0.8175 0.0
H773 H 0.45343 0.47353 0.85319 0.0
H774 H 0.36457 0.43582 0.7481 0.0
H775 H 0.19591 0.18627 0.76623 0.0
H776 H 0.41341 0.39058 0.88218 0.0
H777 H 0.27822 1.01003 0.89266 0.0
H778 H 0.42545 0.47953 0.79598 0.0
H779 H 0.46295 0.28929 0.96153 0.0
H780 H 0.33609 0.09556 0.86955 0.0
H781 H 0.45962 0.28474 0.02359 0.0
H782 H 0.29271 0.35767 0.72495 0.0
H783 H 0.2589 0.9995 0.95334 0.0
H784 H 0.27499 0.03934 0.0106 0.0
H785 H 0.22702 0.26502 0.73295 0.0
H786 H 0.32644 0.11388 0.04667 0.0
N787 N 0.34732 0.13295 0.91634 0.0
C788 C 0.32748 0.09125 0.896 0.0
C789 C 0.28423 0.03698 0.9433 0.0
C790 C 0.3082 0.07935 0.96437 0.0
C791 C 0.29507 0.04277 0.90905 0.0
C792 C 0.34113 0.12706 0.95002 0.0
H793 H 0.39657 0.20524 0.05175 0.0
N794 N 0.40198 0.21378 0.9553 0.0
C795 C 0.43392 0.25197 0.00885 0.0
C796 C 0.37012 0.16859 0.9703 0.0
C797 C 0.43582 0.25455 0.97387 0.0
C798 C 0.39833 0.20696 0.02467 0.0
C799 C 0.36627 0.16431 0.00534 0.0
O800 O 0.47546 0.23667 0.90796 0.0
O801 O 0.40331 0.28755 0.88805 0.0
O802 O 0.37058 0.26523 0.82204 0.0
O803 O 0.39037 0.20455 0.84234 0.0
O804 O 0.46639 0.28227 0.8805 0.0
O805 O 0.4269 0.16533 0.88396 0.0
O806 O 0.25368 0.2403 0.88119 0.0
O807 O 0.33254 0.1999 0.86987 0.0
O808 O 0.35271 0.23148 0.93688 0.0
O809 O 0.36345 0.30382 0.91341 0.0
O810 O 0.26542 0.19553 0.87727 0.0
O811 O 0.30572 0.32036 0.88533 0.0
C812 C 0.44892 0.31252 0.877 0.0
C813 C 0.49798 0.17229 0.91576 0.0
C814 C 0.56247 0.14451 0.92242 0.0
C815 C 0.53529 0.16158 0.90175 0.0
C816 C 0.55262 0.14099 0.95712 0.0
C817 C 0.48825 0.16518 0.95016 0.0
C818 C 0.51546 0.15009 0.97056 0.0
C819 C 0.38922 0.23413 0.81757 0.0
C820 C 0.4725 0.19527 0.89576 0.0
C821 C 0.33078 0.11772 0.01975 0.0
C822 C 0.30155 0.07538 -0.00075 0.0
C823 C 0.28652 0.16811 0.87638 0.0
C824 C 0.21776 0.29373 0.87488 0.0
C825 C 0.16531 0.25862 0.88071 0.0
C826 C 0.12692 0.26848 0.86876 0.0
C827 C 0.1424 0.31487 0.85209 0.0
C828 C 0.2311 0.3386 0.85713 0.0
C829 C 0.19369 0.34905 0.84606 0.0
C830 C 0.34892 0.27345 0.93923 0.0
C831 C 0.25834 0.28423 0.88804 0.0
H832 H 0.54333 0.16695 0.87519 0.0
H833 H 0.57455 0.13217 0.97446 0.0
H834 H 0.46079 0.1731 0.9617 0.0
H835 H 0.50848 0.14653 0.99726 0.0
H836 H 0.15454 0.22366 0.89412 0.0
H837 H 0.11475 0.32513 0.84366 0.0
H838 H 0.27058 0.36609 0.85205 0.0
H839 H 0.20452 0.38412 0.83282 0.0
Tb840 Tb 0.2103 0.38965 0.3951 0.0
C841 C 1.03015 0.31414 0.3064 0.0
C842 C 1.00137 0.37404 0.31761 0.0
C843 C 0.98844 0.33542 0.26254 0.0
C844 C 1.02562 0.34692 0.32798 0.0
C845 C 1.00959 0.3061 0.2739 0.0
C846 C 0.98457 0.36961 0.28436 0.0
C847 C 1.02462 0.23531 0.26879 0.0
N848 N 0.05087 0.28671 0.31847 0.0
C849 C 0.04503 0.24524 0.30116 0.0
C850 C 1.00828 0.26687 0.25468 0.0
Tb851 Tb 0.08259 0.30444 0.37193 0.0
N852 N 0.04042 0.3482 0.36011 0.0
C853 C 1.02767 0.37239 0.38391 0.0
C854 C 0.99243 0.40258 0.34138 0.0
C855 C 1.0047 0.40087 0.37482 0.0
H856 H 0.05727 0.22053 0.31214 0.0
H857 H 0.99638 0.42138 0.39367 0.0
H858 H 0.96641 0.39061 0.27577 0.0
H859 H 1.02129 0.20322 0.25481 0.0
H860 H 1.03636 0.37122 0.40992 0.0
H861 H 0.33857 0.31711 0.37517 0.0
H862 H 0.97413 0.42418 0.33446 0.0
H863 H 0.1897 0.44468 0.46056 0.0
H864 H 0.2749 0.34118 0.35859 0.0
H865 H 0.21786 0.46286 0.5196 0.0
H866 H 0.97312 0.33044 0.23746 0.0
H867 H 0.36893 0.32937 0.43361 0.0
H868 H 0.36797 0.36152 0.49132 0.0
H869 H 0.9924 0.25906 0.22966 0.0
H870 H 0.33375 0.39904 0.53092 0.0
N871 N 0.26336 0.35912 0.40808 0.0
C872 C 0.28509 0.34305 0.38462 0.0
C873 C 0.33906 0.33751 0.42683 0.0
C874 C 0.31899 0.357 0.45038 0.0
C875 C 0.3221 0.3306 0.3938 0.0
C876 C 0.28051 0.36742 0.44019 0.0
H877 H 0.27732 0.43634 0.54184 0.0
N878 N 0.22851 0.40378 0.45086 0.0
C879 C 0.23036 0.44211 0.50384 0.0
C880 C 0.26259 0.39046 0.46226 0.0
C881 C 0.21409 0.43145 0.4706 0.0
C882 C 0.26391 0.42704 0.51629 0.0
C883 C 0.2814 0.402 0.49525 0.0
O884 O 0.24789 0.46891 0.40158 0.0
O885 O 0.13417 0.38219 0.39144 0.0
O886 O 0.12561 0.33307 0.3248 0.0
O887 O 0.21047 0.36723 0.34194 0.0
O888 O 0.19238 0.43969 0.36659 0.0
O889 O 0.28575 0.43378 0.37658 0.0
O890 O 0.0428 0.22425 0.37494 0.0
O891 O 0.15987 0.3155 0.37636 0.0
O892 O 0.16263 0.34402 0.43979 0.0
O893 O 0.08457 0.33013 0.42233 0.0
O894 O 0.10301 0.24668 0.38797 0.0
O895 O 1.00951 0.26709 0.3941 0.0
C896 C 0.14611 0.42271 0.37492 0.0
C897 C 0.33872 0.51179 0.40612 0.0
C898 C 0.43126 0.57184 0.40681 0.0
C899 C 0.38677 0.536 0.38952 0.0
C900 C 0.42682 0.5831 0.44035 0.0
C901 C 0.33644 0.52486 0.43958 0.0
C902 C 0.38 0.55974 0.45652 0.0
C903 C 0.17502 0.35419 0.31815 0.0
C904 C 0.29054 0.47618 0.38826 0.0
C905 C 0.31859 0.39022 0.50573 0.0
C906 C 0.33792 0.3686 0.4832 0.0
C907 C 0.15157 0.27302 0.38742 0.0
C908 C 0.95303 0.18379 0.37257 0.0
C909 C 0.93453 0.13083 0.37629 0.0
C910 C 0.88883 0.09486 0.36045 0.0
C911 C 0.86152 0.11268 0.34178 0.0
C912 C 0.92483 0.20001 0.35353 0.0
C913 C 0.87931 0.16464 0.33845 0.0
C914 C 0.11323 0.32722 0.44561 0.0
C915 C 1.00224 0.22172 0.38779 0.0
H916 H 0.38947 0.52714 0.3636 0.0
H917 H 0.46001 0.61049 0.45417 0.0
H918 H 0.30078 0.50919 0.45273 0.0
H919 H 0.37732 0.56921 0.48228 0.0
H920 H 0.95625 0.11781 0.3906 0.0
H921 H 0.82631 0.08616 0.32943 0.0
H922 H 0.93807 0.24011 0.3501 0.0
H923 H 0.8579 0.17758 0.32379 0.0
Tb924 Tb 0.85146 0.20831 0.90776 0.0
C925 C 0.77999 0.04268 0.79859 0.0
C926 C 0.68892 1.00424 0.79181 0.0
C927 C 0.74135 1.00544 0.74517 0.0
C928 C 0.7331 0.03028 0.81147 0.0
C929 C 0.78501 0.03079 0.7653 0.0
C930 C 0.69329 0.99201 0.75846 0.0
C931 C 0.87564 0.06959 0.7747 0.0
N932 N 0.82112 0.06834 0.81867 0.0
C933 C 0.86838 0.08003 0.80768 0.0
C934 C 0.8338 0.04533 0.75334 0.0
Tb935 Tb 0.80619 0.08477 0.87205 0.0
N936 N 0.73098 0.04349 0.84358 0.0
C937 C 0.68524 0.02876 0.85837 0.0
C938 C 0.64189 0.99103 0.80644 0.0
C939 C 0.64002 1.00293 0.84004 0.0
H940 H 0.90049 0.09693 0.82434 0.0
H941 H 0.6038 0.99158 0.85196 0.0
H942 H 0.65984 0.97215 0.74282 0.0
H943 H 0.9134 0.07998 0.76584 0.0
H944 H 0.6838 0.03521 0.88459 0.0
H945 H 0.04713 0.33361 0.87266 0.0
H946 H 0.60689 0.97086 0.79228 0.0
H947 H 0.80195 0.20233 0.98523 0.0
H948 H 0.95395 0.28693 0.86423 0.0
H949 H 0.83056 0.20558 0.04336 0.0
H950 H 0.74434 0.99598 0.71943 0.0
H951 H 0.08338 0.32591 0.9265 0.0
H952 H 0.0674 0.28874 0.98514 0.0
H953 H 0.8396 0.0378 0.72786 0.0
H954 H 1.00723 0.25419 0.03243 0.0
N955 N 0.93782 0.25389 0.91266 0.0
C956 C 0.96939 0.28374 0.88775 0.0
C957 C 0.04247 0.30626 0.92306 0.0
C958 C 1.00948 0.27796 0.94907 0.0
C959 C 1.02219 0.3105 0.89259 0.0
C960 C 0.95671 0.25416 0.94341 0.0
H961 H 0.9191 0.22584 0.05487 0.0
N962 N 0.87318 0.2186 0.96368 0.0
C963 C 0.85685 0.21344 0.02286 0.0
C964 C 0.9231 0.23519 0.96987 0.0
C965 C 0.84086 0.21194 0.98979 0.0
C966 C 0.9068 0.22472 0.02927 0.0
C967 C 0.94106 0.2374 0.00263 0.0
O968 O 0.88299 0.28773 0.91677 0.0
O969 O 0.78452 0.14208 0.88798 0.0
O970 O 0.81036 0.13258 0.83046 0.0
O971 O 0.86854 0.21227 0.85205 0.0
O972 O 0.77518 0.18006 0.92754 0.0
O973 O 0.81582 0.24786 0.88825 0.0
O974 O 0.84128 0.04158 0.88215 0.0
O975 O 0.87257 0.15939 0.88271 0.0
O976 O 0.83918 0.1474 0.94611 0.0
O977 O 0.77527 0.07473 0.92147 0.0
O978 O 0.88346 0.09996 0.88481 0.0
O979 O 0.76018 1.00949 0.88944 0.0
C980 C 0.75063 0.14263 0.90727 0.0
C981 C 0.86956 0.33604 0.87449 0.0
C982 C 0.9008 0.42697 0.85985 0.0
C983 C 0.88334 0.38684 0.88412 0.0
C984 C 0.90553 0.41487 0.82651 0.0
C985 C 0.87243 0.32629 0.84054 0.0
C986 C 0.89096 0.36528 0.81701 0.0
C987 C 0.84261 0.18154 0.82624 0.0
C988 C 0.84991 0.29241 0.89893 0.0
C989 C 0.99291 0.25408 0.00764 0.0
C990 C 1.02716 0.27402 0.98076 0.0
C991 C 0.90596 0.14763 0.89027 0.0
C992 C 0.79221 0.95395 0.87344 0.0
C993 C 0.82783 0.93743 0.87986 0.0
C994 C 0.82482 0.89524 0.86267 0.0
C995 C 0.78462 0.86949 0.83967 0.0
C996 C 0.75286 0.92719 0.85043 0.0
C997 C 0.74911 0.88515 0.83381 0.0
C998 C 0.80393 0.0979 0.9473 0.0
C999 C 0.79859 1.00083 0.88935 0.0
H1000 H 0.87891 0.39445 0.91 0.0
H1001 H 0.92007 0.44391 0.80731 0.0
H1002 H 0.85961 0.28806 0.83201 0.0
H1003 H 0.8935 0.35686 0.79099 0.0
H1004 H 0.85855 0.95831 0.89744 0.0
H1005 H 0.78019 0.83678 0.82601 0.0
H1006 H 0.72528 0.93903 0.84496 0.0
H1007 H 0.71869 0.86474 0.816 0.0
C1008 C 0.19201 0.9707 0.08191 0.0
C1009 C 0.1652 0.93897 0.10912 0.0
C1010 C 0.21948 1.02428 0.0854 0.0
C1011 C 0.21973 0.04782 0.11587 0.0
H1012 H 0.19324 0.95399 0.05822 0.0
H1013 H 0.24201 0.04722 0.06463 0.0
S1014 S 0.14256 0.98296 0.19053 0.0
N1015 N 0.13196 0.93605 0.1648 0.0
N1016 N 0.18284 0.03586 0.17112 0.0
C1017 C 0.18883 1.01667 0.14184 0.0
C1018 C 0.16141 0.96256 0.13843 0.0
C1019 C 0.23634 0.15526 0.59494 0.0
C1020 C 0.26362 0.14708 0.62043 0.0
C1021 C 0.20736 0.17922 0.60184 0.0
C1022 C 0.20398 0.19482 0.6346 0.0
H1023 H 0.23998 0.14602 0.56927 0.0
H1024 H 0.19096 0.18902 0.58106 0.0
S1025 S 0.24985 0.16062 0.71111 0.0
N1026 N 0.27323 0.14254 0.68014 0.0
N1027 N 0.21764 0.18519 0.69348 0.0
C1028 C 0.22471 0.17925 0.66061 0.0
C1029 C 0.25476 0.15594 0.65346 0.0
C1030 C 1.03739 0.22664 0.14852 0.0
C1031 C 1.00238 0.19727 0.12322 0.0
C1032 C 0.09041 0.25243 0.14314 0.0
C1033 C 0.11154 0.25141 0.11203 0.0
H1034 H 1.02375 0.22994 0.17294 0.0
H1035 H 0.11503 0.27456 0.16334 0.0
S1036 S 1.03869 0.17527 0.03855 0.0
N1037 N 0.99418 0.16538 0.06635 0.0
N1038 N 0.09373 0.21395 0.0566 0.0
C1039 C 0.07756 0.22033 0.08699 0.0
C1040 C 1.02324 0.19356 0.09242 0.0
C1041 C 0.85868 1.01868 0.65652 0.0
C1042 C 0.85773 0.98685 0.63035 0.0
C1043 C 0.88491 0.07205 0.65355 0.0
C1044 C 0.91109 0.09591 0.62401 0.0
H1045 H 0.8375 1.00183 0.67914 0.0
H1046 H 0.88336 0.09467 0.67404 0.0
S1047 S 0.92814 0.0322 0.54996 0.0
N1048 N 0.89068 0.9849 0.57503 0.0
N1049 N 0.94093 0.08486 0.57004 0.0
C1050 C 0.91456 0.06527 0.59889 0.0
C1051 C 0.8876 1.01088 0.6018 0.0
C1052 C 0.84438 0.84366 0.10765 0.0
C1053 C 0.85964 0.83198 0.13822 0.0
C1054 C 0.81722 0.87065 0.1069 0.0
C1055 C 0.803 0.88534 0.13674 0.0
H1056 H 0.85146 0.82996 0.08435 0.0
H1057 H 0.80574 0.87842 0.08299 0.0
S1058 S 0.8458 0.87597 0.22216 0.0
N1059 N 0.86737 0.8465 0.19814 0.0
N1060 N 0.81524 0.89476 0.19696 0.0
C1061 C 0.82228 0.8779 0.16698 0.0
C1062 C 0.8504 0.85148 0.16768 0.0
C1063 C 0.98984 0.76945 0.64979 0.0
C1064 C 0.96766 0.78438 0.62473 0.0
C1065 C 0.04134 0.79865 0.65857 0.0
C1066 C 0.07331 0.84751 0.64508 0.0
H1067 H 0.96717 0.73447 0.66325 0.0
H1068 H 0.0554 0.78288 0.67724 0.0
S1069 S 1.03326 0.90692 0.57902 0.0
N1070 N 0.98186 0.85131 0.58577 0.0
N1071 N 0.07749 0.90935 0.60436 0.0
C1072 C 0.0518 0.86333 0.61955 0.0
C1073 C 0.99938 0.83169 0.60942 0.0
C1074 C 0.10095 0.86085 0.34981 0.0
C1075 C 0.12512 0.89331 0.37704 0.0
C1076 C 0.05058 0.84598 0.34102 0.0
C1077 C 1.02182 0.86236 0.3595 0.0
H1078 H 0.12072 0.84591 0.33553 0.0
H1079 H 1.03439 0.82247 0.31904 0.0
S1080 S 0.06549 0.94432 0.43485 0.0
N1081 N 0.1154 0.93944 0.42349 0.0
N1082 N 1.01999 0.91023 0.40766 0.0
C1083 C 0.04437 0.89262 0.38789 0.0
C1084 C 0.09619 0.90858 0.3964 0.0
C1085 C 0.18061 0.02867 0.86683 0.0
C1086 C 0.18832 1.01561 0.83426 0.0
C1087 C 0.21341 0.0774 0.88063 0.0
C1088 C 0.25575 0.11494 0.86274 0.0
H1089 H 0.14781 1.00197 0.88123 0.0
H1090 H 0.20511 0.08609 0.90535 0.0
S1091 S 0.29174 0.10079 0.7764 0.0
N1092 N 0.24306 0.04447 0.78522 0.0
N1093 N 0.30067 0.13566 0.80997 0.0
C1094 C 0.26362 0.10202 0.8304 0.0
C1095 C 0.23128 0.05253 0.81664 0.0
C1096 C 0.20027 0.24425 0.35044 0.0
C1097 C 0.18323 0.24782 0.38249 0.0
C1098 C 0.22739 0.21826 0.34468 0.0
C1099 C 0.23934 0.19423 0.37073 0.0
H1100 H 0.19349 0.26268 0.32966 0.0
H1101 H 0.23946 0.21745 0.3193 0.0
S1102 S 0.19866 0.18813 0.45923 0.0
N1103 N 0.17624 0.2214 0.44037 0.0
N1104 N 0.22842 0.17392 0.43012 0.0
C1105 C 0.22064 0.19587 0.40288 0.0
C1106 C 0.19239 0.22213 0.40857 0.0
C1107 C 0.05 0.20816 0.90432 0.0
C1108 C 0.0707 0.23203 0.87336 0.0
C1109 C 0.99664 0.18094 0.90977 0.0
C1110 C 0.96217 0.17817 0.88497 0.0
H1111 H 0.07504 0.21234 0.92488 0.0
H1112 H 0.98235 0.1636 0.93398 0.0
S1113 S 0.99546 0.22019 0.79735 0.0
N1114 N 0.05093 0.23994 0.81563 0.0
N1115 N 0.95225 0.19266 0.8268 0.0
C1116 C 0.9822 0.19795 0.85339 0.0
C1117 C 1.03593 0.22405 0.84746 0.0
C1118 C 0.85359 1.01032 0.39115 0.0
C1119 C 0.86934 0.03869 0.36119 0.0
C1120 C 0.82546 0.95641 0.39062 0.0
C1121 C 0.80999 0.92942 0.36009 0.0
H1122 H 0.86095 0.02981 0.41496 0.0
H1123 H 0.81369 0.93598 0.4141 0.0
S1124 S 0.85549 0.98527 0.27586 0.0
N1125 N 0.87821 0.03491 0.30111 0.0
N1126 N 0.82292 0.9351 0.29989 0.0
C1127 C 0.83019 0.95741 0.33044 0.0
C1128 C 0.85995 1.01161 0.33104 0.0
C1129 C 0.90344 0.84367 0.90594 0.0
C1130 C 0.91087 0.81699 0.87959 0.0
C1131 C 0.87864 0.87228 0.90049 0.0
C1132 C 0.86208 0.87656 0.86824 0.0
H1133 H 0.91383 0.8397 0.93122 0.0
H1134 H 0.86945 0.8881 0.92192 0.0
S1135 S 0.8974 0.83702 0.78981 0.0
N1136 N 0.91504 0.81119 0.81945 0.0
N1137 N 0.87237 0.86744 0.809 0.0
C1138 C 0.87784 0.85767 0.8414 0.0
C1139 C 0.90128 0.82737 0.84706 0.0
C1140 C 0.10656 0.64343 0.08128 0.0
C1141 C 0.1305 0.68024 0.10647 0.0
C1142 C 0.11643 0.60312 0.07704 0.0
C1143 C 0.15306 0.59904 0.09659 0.0
H1144 H 0.0836 0.6485 0.06257 0.0
H1145 H 0.09921 0.57804 0.05583 0.0
S1146 S 0.2213 0.68133 0.1691 0.0
N1147 N 0.18662 0.70532 0.15458 0.0
N1148 N 0.2084 0.63195 0.14508 0.0
C1149 C 0.17361 0.63255 0.12396 0.0
C1150 C 0.16187 0.67271 0.12907 0.0
C1151 C 0.57387 0.12994 0.63229 0.0
C1152 C 0.58978 0.12827 0.59933 0.0
C1153 C 0.52885 0.13212 0.63874 0.0
C1154 C 0.49709 0.13155 0.61263 0.0
H1155 H 0.59648 0.12988 0.65324 0.0
H1156 H 0.51956 0.13581 0.6644 0.0
S1157 S 0.52373 0.13209 0.52211 0.0
N1158 N 0.57113 0.12943 0.54038 0.0
N1159 N 0.48714 0.13248 0.55263 0.0
C1160 C 0.51277 0.13003 0.57976 0.0
C1161 C 0.5586 0.12843 0.57313 0.0
C1162 C 0.4334 0.52718 0.07624 0.0
C1163 C 0.46187 0.56544 0.10036 0.0
C1164 C 0.39086 0.4801 0.08477 0.0
C1165 C 0.37265 0.46903 0.1177 0.0
H1166 H 0.44282 0.53384 0.04993 0.0
H1167 H 0.37075 0.45307 0.06505 0.0
S1168 S 0.43295 0.55208 0.1914 0.0
N1169 N 0.46962 0.58532 0.15979 0.0
N1170 N 0.3873 0.49869 0.17514 0.0
C1171 C 0.40073 0.50583 0.14232 0.0
C1172 C 0.44537 0.55344 0.13386 0.0
C1173 C 0.93559 0.42943 0.63386 0.0
C1174 C 0.94382 0.44688 0.60052 0.0
C1175 C 0.93512 0.384 0.64285 0.0
C1176 C 0.94382 0.35449 0.61913 0.0
H1177 H 0.9287 0.45055 0.65304 0.0
H1178 H 0.92557 0.37056 0.66838 0.0
S1179 S 0.96432 0.3815 0.52818 0.0
N1180 N 0.95808 0.42867 0.54338 0.0
N1181 N 0.95955 0.34604 0.56072 0.0
C1182 C 0.95307 0.37218 0.58598 0.0
C1183 C 0.95241 0.41745 0.57662 0.0
C1184 C 0.54255 0.90563 0.08916 0.0
C1185 C 0.57638 0.90832 0.11451 0.0
C1186 C 0.49495 0.90135 0.09654 0.0
C1187 C 0.47868 0.89956 0.12974 0.0
H1188 H 0.55275 0.90614 0.06311 0.0
H1189 H 0.47095 0.89997 0.07603 0.0
S1190 S 0.55145 0.90301 0.20565 0.0
N1191 N 0.58905 0.90755 0.17432 0.0
N1192 N 0.50023 0.8994 0.18841 0.0
C1193 C 0.51219 0.90224 0.15541 0.0
C1194 C 0.56071 0.90666 0.1478 0.0
C1195 C 0.68511 0.54848 0.56349 0.0
C1196 C 0.71276 0.57209 0.5927 0.0
C1197 C 0.63719 0.50469 0.56459 0.0
C1198 C 0.61447 0.48119 0.59502 0.0
H1199 H 0.70154 0.56301 0.53915 0.0
H1200 H 0.61793 0.48849 0.54116 0.0
S1201 S 0.67041 0.52648 0.67923 0.0
N1202 N 0.714 0.56784 0.65337 0.0
N1203 N 0.62286 0.48527 0.6556 0.0
C1204 C 0.64123 0.50414 0.62474 0.0
C1205 C 0.69056 0.54952 0.62357 0.0
C1206 C 0.40217 0.89553 0.35922 0.0
C1207 C 0.37511 0.9071 0.38334 0.0
C1208 C 0.4472 0.89414 0.36729 0.0
C1209 C 0.46664 0.90284 0.4002 0.0
H1210 H 0.38728 0.88561 0.33403 0.0
H1211 H 0.46648 0.88557 0.34768 0.0
S1212 S 0.40685 0.92945 0.47356 0.0
N1213 N 0.37071 0.92574 0.44167 0.0
N1214 N 0.45154 0.91966 0.45763 0.0
C1215 C 0.43907 0.91361 0.4246 0.0
C1216 C 0.39454 0.9166 0.41604 0.0
C1217 C 0.57147 0.43679 0.86158 0.0
C1218 C 0.58173 0.46175 0.89271 0.0
C1219 C 0.52556 0.39075 0.85579 0.0
C1220 C 0.48744 0.36772 0.88061 0.0
H1221 H 0.59917 0.45284 0.84157 0.0
H1222 H 0.52065 0.37183 0.83194 0.0
S1223 S 0.49636 0.41599 0.96706 0.0
N1224 N 0.54994 0.45857 0.94914 0.0
N1225 N 0.46466 0.37302 0.93802 0.0
C1226 C 0.49718 0.39245 0.91173 0.0
C1227 C 0.54383 0.43907 0.91775 0.0
C1228 C 0.12858 0.52046 0.42606 0.0
C1229 C 0.13694 0.55879 0.40233 0.0
C1230 C 0.1269 0.4744 0.41699 0.0
C1231 C 0.13386 0.46402 0.38367 0.0
H1232 H 0.12449 0.52646 0.45232 0.0
H1233 H 0.12183 0.44753 0.43647 0.0
S1234 S 0.15265 0.54789 0.31099 0.0
N1235 N 0.14827 0.57978 0.34314 0.0
N1236 N 0.14703 0.49489 0.32656 0.0
C1237 C 0.14083 0.50102 0.35958 0.0
C1238 C 0.14208 0.54774 0.36871 0.0
C1239 C 0.6867 0.16307 0.88207 0.0
C1240 C 0.69656 0.12866 0.90002 0.0
C1241 C 0.64143 0.16551 0.887 0.0
C1242 C 0.60348 0.13317 0.9099 0.0
H1243 H 0.71634 0.19174 0.86648 0.0
H1244 H 0.63817 0.1956 0.87476 0.0
S1245 S 0.60684 0.03057 0.95907 0.0
N1246 N 0.66266 0.05976 0.94015 0.0
N1247 N 0.57575 0.05913 0.94591 0.0
C1248 C 0.6107 0.09493 0.92506 0.0
C1249 C 0.65757 0.0942 0.92123 0.0
C1250 C 0.4989 0.64029 0.37033 0.0
C1251 C 0.4837 0.5985 0.392 0.0
C1252 C 0.55073 0.67855 0.36748 0.0
C1253 C 0.58899 0.67697 0.38679 0.0
H1254 H 0.47026 0.64618 0.35821 0.0
H1255 H 0.55991 0.71242 0.35321 0.0
S1256 S 0.56874 0.57273 0.44452 0.0
N1257 N 0.51169 0.55443 0.42919 0.0
N1258 N 0.60701 0.62796 0.42671 0.0
C1259 C 0.57425 0.63326 0.40632 0.0
C1260 C 0.52224 0.59358 0.40806 0.0
C1261 C 0.90893 0.5578 0.84954 0.0
C1262 C 0.93364 0.58467 0.87869 0.0
C1263 C 0.89854 0.50744 0.84407 0.0
C1264 C 0.91239 0.48103 0.86737 0.0
H1265 H 0.89512 0.5748 0.83154 0.0
H1266 H 0.87782 0.48848 0.82162 0.0
S1267 S 0.98105 0.53618 0.94699 0.0
N1268 N 0.97284 0.58175 0.93089 0.0
N1269 N 0.95548 0.48852 0.92008 0.0
C1270 C 0.93854 0.50833 0.89619 0.0
C1271 C 0.94861 0.5595 0.90189 0.0
C1272 C 0.21661 0.40093 0.26489 0.0
C1273 C 0.18908 0.35489 0.28253 0.0
C1274 C 0.22521 0.40121 0.2301 0.0
C1275 C 0.20629 0.35546 0.212 0.0
H1276 H 0.23097 0.43679 0.27794 0.0
H1277 H 0.24748 0.43727 0.21742 0.0
S1278 S 0.13203 0.22528 0.24666 0.0
N1279 N 0.14435 0.26296 0.27925 0.0
N1280 N 0.15818 0.26348 0.2144 0.0
C1281 C 0.17861 0.30959 0.22947 0.0
C1282 C 0.17052 0.30931 0.26461 0.0
C1283 C 0.83963 0.17092 0.73078 0.0
C1284 C 0.88557 0.21309 0.7205 0.0
C1285 C 0.82464 0.16384 0.76459 0.0
C1286 C 0.85533 0.19765 0.79014 0.0
H1287 H 0.81563 0.1422 0.7128 0.0
H1288 H 0.78896 0.13033 0.77075 0.0
S1289 S 0.97389 0.32044 0.77522 0.0
N1290 N 0.95717 0.2944 0.73778 0.0
N1291 N 0.93035 0.27949 0.80117 0.0
C1292 C 0.89924 0.24223 0.77971 0.0
C1293 C 0.91415 0.25005 0.74508 0.0
C1294 C 0.65816 0.80999 0.22561 0.0
C1295 C 0.66438 0.85814 0.21826 0.0
C1296 C 0.65655 0.79394 0.25887 0.0
C1297 C 0.66228 0.82558 0.28639 0.0
H1298 H 0.65613 0.78491 0.20569 0.0
H1299 H 0.65214 0.75675 0.26299 0.0
S1300 S 0.66078 0.94695 0.28116 0.0
N1301 N 0.66296 0.93157 0.24183 0.0
N1302 N 0.66034 0.90129 0.30375 0.0
C1303 C 0.6618 0.87076 0.27946 0.0
C1304 C 0.66315 0.88717 0.24561 0.0
C1305 C 0.83566 0.62214 0.72699 0.0
C1306 C 0.86024 0.66359 0.70464 0.0
C1307 C 0.84529 0.62827 0.76208 0.0
C1308 C 0.87967 0.67617 0.77605 0.0
H1309 H 0.80824 0.58504 0.7174 0.0
H1310 H 0.82602 0.59539 0.77821 0.0
S1311 S 0.94978 0.79732 0.72791 0.0
N1312 N 0.91514 0.75424 0.69993 0.0
N1313 N 0.93728 0.76568 0.7633 0.0
C1314 C 0.90351 0.71752 0.75349 0.0
C1315 C 0.8927 0.71127 0.71859 0.0
C1316 C 0.21694 0.82117 0.2311 0.0
C1317 C 0.18451 0.83646 0.2162 0.0
C1318 C 0.22988 0.83051 0.26537 0.0
C1319 C 0.21076 0.8554 0.28551 0.0
H1320 H 0.23193 0.80158 0.21632 0.0
H1321 H 0.2556 0.81914 0.27598 0.0
S1322 S 0.12885 0.90701 0.25779 0.0
N1323 N 0.1371 0.88072 0.22402 0.0
N1324 N 0.1613 0.89804 0.28731 0.0
C1325 C 0.17966 0.87172 0.27051 0.0
C1326 C 0.1665 0.86225 0.23614 0.0
C1327 C 0.38091 0.24233 0.75535 0.0
C1328 C 0.39798 0.22412 0.78205 0.0
C1329 C 0.38226 0.22828 0.72201 0.0
C1330 C 0.40037 0.19501 0.71372 0.0
H1331 H 0.36456 0.26632 0.7601 0.0
H1332 H 0.36685 0.24194 0.7028 0.0
S1333 S 0.46009 0.14563 0.77275 0.0
N1334 N 0.44085 0.17709 0.79686 0.0
N1335 N 0.44367 0.15107 0.73423 0.0
C1336 C 0.42117 0.17961 0.73968 0.0
C1337 C 0.41994 0.19405 0.77374 0.0
C1338 C 0.34047 0.33886 0.97323 0.0
C1339 C 0.32634 0.28725 0.96828 0.0
C1340 C 0.31815 0.3543 0.9983 0.0
C1341 C 0.279 0.31889 0.019 0.0
H1342 H 0.37004 0.36811 0.95791 0.0
H1343 H 0.33319 0.39459 0.00229 0.0
S1344 S 0.22522 0.17888 0.0156 0.0
N1345 N 0.26934 0.20058 0.98609 0.0
N1346 N 0.22608 0.22927 0.0322 0.0
C1347 C 0.26343 0.26704 0.01382 0.0
C1348 C 0.28719 0.25131 0.98877 0.0
C1349 C 0.08961 0.34214 0.50293 0.0
C1350 C 0.0876 0.30784 0.47855 0.0
C1351 C 0.05485 0.32598 0.52979 0.0
C1352 C 1.01513 0.27497 0.53311 0.0
H1353 H 0.1166 0.38227 0.50045 0.0
H1354 H 0.05853 0.35434 0.54779 0.0
S1355 S 0.99376 0.16957 0.47625 0.0
N1356 N 0.04326 0.21998 0.45985 0.0
N1357 N 0.97776 0.18991 0.51002 0.0
C1358 C 1.01298 0.24013 0.50909 0.0
C1359 C 0.04903 0.25651 0.48195 0.0
C1360 C 0.73027 1.02363 0.02367 0.0
C1361 C 0.74619 0.98736 0.02903 0.0
C1362 C 0.75219 0.06184 -0.0009 0.0
C1363 C 0.79157 0.06635 0.97836 0.0
H1364 H 0.70006 1.02264 0.03867 0.0
H1365 H 0.73694 0.08716 0.99561 0.0
S1366 S 0.84709 0.98112 0.98013 0.0
N1367 N 0.80413 0.95879 0.01041 0.0
N1368 N 0.84462 0.02988 0.96368 0.0
C1369 C 0.80764 0.03013 0.98277 0.0
C1370 C 0.78524 0.99096 0.00809 0.0
C1371 C 0.83737 0.78721 0.50428 0.0
C1372 C 0.81511 0.73562 0.51427 0.0
C1373 C 0.81358 0.80377 0.48031 0.0
C1374 C 0.76541 0.76982 0.46632 0.0
H1375 H 0.87264 0.81526 0.5158 0.0
H1376 H 0.83315 0.84321 0.47259 0.0
S1377 S 0.68849 0.63261 0.4872 0.0
N1378 N 0.74127 0.6521 0.50882 0.0
N1379 N 0.6955 0.68311 0.46699 0.0
C1380 C 0.74266 0.7189 0.4771 0.0
C1381 C 0.76752 0.70197 0.50013 0.0
C1382 C 1.00109 0.70506 0.98925 0.0
C1383 C 0.99698 0.7421 0.97068 0.0
C1384 C 1.03783 0.71898 0.01478 0.0
C1385 C 0.07268 0.77049 0.0225 0.0
H1386 H 0.97701 0.66517 0.9833 0.0
H1387 H 1.03856 0.68897 0.02903 0.0
S1388 S 0.0765 0.88205 0.9821 0.0
N1389 N 1.0302 0.83278 0.96249 0.0
N1390 N 0.09893 0.85827 0.01016 0.0
C1391 C 0.06885 0.80776 0.00419 0.0
C1392 C 1.03108 0.79372 0.97854 0.0
C1393 C 0.27023 0.98425 0.49498 0.0
C1394 C 0.30329 0.99259 0.46804 0.0
C1395 C 0.28474 1.01905 0.52175 0.0
C1396 C 0.33279 0.06416 0.52282 0.0
H1397 H 0.23294 0.95059 0.49553 0.0
H1398 H 0.25842 1.00976 0.54246 0.0
S1399 S 0.43314 0.10493 0.45807 0.0
N1400 N 0.38646 0.05066 0.4439 0.0
N1401 N 0.41279 0.11483 0.49407 0.0
C1402 C 0.36553 0.07358 0.49566 0.0
C1403 C 0.35107 0.03816 0.46844 0.0
loop_
_geom_bond_atom_site_label_1
_geom_bond_atom_site_label_2
_geom_bond_distance
_geom_bond_site_symmetry_2
_ccdc_geom_bond_type
Tb0 N31 2.660 . S
Tb0 N38 2.600 . S
Tb0 O44 2.546 . S
Tb0 O45 2.610 . S
Tb0 O47 2.320 . S
Tb0 O48 2.552 . S
Tb0 O49 2.413 . S
Tb0 O51 2.362 . S
Tb0 O52 2.421 . S
Tb0 C64 2.833 . S
C1 C4 1.432 . S
C1 C5 1.414 . S
C1 N8 1.359 . S
C2 C4 1.417 . S
C2 C6 1.432 . S
C2 C14 1.410 . S
C3 C5 1.444 . S
C3 C6 1.317 . S
C3 H26 0.929 . S
C4 C1 1.432 . S
C4 C2 1.417 . S
C4 N12 1.360 . S
C5 C1 1.414 . S
C5 C3 1.444 . S
C5 C10 1.385 . S
C6 C2 1.432 . S
C6 C3 1.317 . S
C6 H18 0.930 . S
C7 C9 1.392 . S
C7 C10 1.370 . S
C7 H19 0.931 . S
N8 C1 1.359 . S
N8 C9 1.327 . S
N8 Tb11 2.600 . S
C9 C7 1.392 . S
C9 N8 1.327 . S
C9 H16 0.930 . S
C10 C5 1.385 . S
C10 C7 1.370 . S
C10 H29 0.930 . S
Tb11 N8 2.600 . S
Tb11 N12 2.660 . S
Tb11 O45 2.362 . S
Tb11 O46 2.421 . S
Tb11 O50 2.546 . S
Tb11 O51 2.610 . S
Tb11 O53 2.320 . S
Tb11 O54 2.552 . S
Tb11 O55 2.413 . S
Tb11 C75 2.833 . S
N12 C4 1.360 . S
N12 Tb11 2.660 . S
N12 C13 1.305 . S
C13 N12 1.305 . S
C13 C15 1.407 . S
C13 H20 0.930 . S
C14 C2 1.410 . S
C14 C15 1.345 . S
C14 H22 0.930 . S
C15 C13 1.407 . S
C15 C14 1.345 . S
C15 H17 0.930 . S
H16 C9 0.930 . S
H17 C15 0.930 . S
H18 C6 0.930 . S
H19 C7 0.931 . S
H20 C13 0.930 . S
H21 C35 0.930 . S
H22 C14 0.930 . S
H23 C41 0.931 . S
H24 C32 0.930 . S
H25 C39 0.931 . S
H26 C3 0.929 . S
H27 C33 0.930 . S
H28 C66 0.930 . S
H29 C10 0.930 . S
H30 C65 0.929 . S
N31 Tb0 2.660 . S
N31 C32 1.305 . S
N31 C36 1.360 . S
C32 H24 0.930 . S
C32 N31 1.305 . S
C32 C35 1.407 1_455 S
C33 H27 0.930 . S
C33 C34 1.410 . S
C33 C35 1.345 . S
C34 C33 1.410 . S
C34 C36 1.417 1_655 S
C34 C66 1.432 . S
C35 H21 0.930 . S
C35 C32 1.407 1_655 S
C35 C33 1.345 . S
C36 N31 1.360 . S
C36 C34 1.417 1_455 S
C36 C40 1.432 . S
H37 C42 0.930 . S
N38 Tb0 2.600 . S
N38 C40 1.359 . S
N38 C41 1.327 . S
C39 H25 0.931 . S
C39 C41 1.392 1_556 S
C39 C42 1.370 . S
C40 C36 1.432 . S
C40 N38 1.359 . S
C40 C43 1.414 . S
C41 H23 0.931 . S
C41 N38 1.327 . S
C41 C39 1.392 1_554 S
C42 H37 0.930 . S
C42 C39 1.370 . S
C42 C43 1.385 1_556 S
C43 C40 1.414 . S
C43 C42 1.385 1_554 S
C43 C65 1.444 1_455 S
O44 Tb0 2.546 . S
O44 C64 1.251 . S
O45 Tb0 2.610 . S
O45 Tb11 2.362 . S
O45 C56 1.283 . S
O46 Tb11 2.421 . S
O46 C63 1.262 . S
O47 Tb0 2.320 . S
O47 C63 1.260 . S
O48 Tb0 2.552 . S
O48 C56 1.243 . S
O49 Tb0 2.413 . S
O49 C64 1.256 . S
O50 Tb11 2.546 . S
O50 C75 1.251 . S
O51 Tb0 2.362 . S
O51 Tb11 2.610 . S
O51 C67 1.283 . S
O52 Tb0 2.421 . S
O52 C74 1.262 . S
O53 Tb11 2.320 . S
O53 C74 1.260 . S
O54 Tb11 2.552 . S
O54 C67 1.243 . S
O55 Tb11 2.413 . S
O55 C75 1.256 . S
C56 O45 1.283 . S
C56 O48 1.243 . S
C57 C59 1.382 . S
C57 C61 1.393 . S
C57 C64 1.500 . S
C58 C59 1.400 . S
C58 C60 1.384 . S
C59 C57 1.382 . S
C59 C58 1.400 . S
C59 H76 0.930 . S
C60 C58 1.384 . S
C60 C62 1.392 . S
C60 H77 0.931 . S
C61 C57 1.393 . S
C61 C62 1.401 . S
C61 H78 0.930 . S
C62 C60 1.392 . S
C62 C61 1.401 . S
C62 H79 0.930 . S
C63 O46 1.262 . S
C63 O47 1.260 . S
C64 Tb0 2.833 . S
C64 O44 1.251 . S
C64 O49 1.256 . S
C64 C57 1.500 . S
C65 H30 0.929 . S
C65 C43 1.444 1_655 S
C65 C66 1.317 . S
C66 H28 0.930 . S
C66 C34 1.432 . S
C66 C65 1.317 . S
C67 O51 1.283 . S
C67 O54 1.243 . S
C68 C69 1.382 . S
C68 C72 1.393 . S
C68 C75 1.500 . S
C69 C68 1.382 . S
C69 C70 1.400 . S
C69 H80 0.930 . S
C70 C69 1.400 . S
C70 C71 1.384 . S
C71 C70 1.384 . S
C71 C73 1.392 . S
C71 H81 0.931 . S
C72 C68 1.393 . S
C72 C73 1.401 . S
C72 H82 0.930 . S
C73 C71 1.392 . S
C73 C72 1.401 . S
C73 H83 0.930 . S
C74 O52 1.262 . S
C74 O53 1.260 . S
C75 Tb11 2.833 . S
C75 O50 1.251 . S
C75 O55 1.256 . S
C75 C68 1.500 . S
H76 C59 0.930 . S
H77 C60 0.931 . S
H78 C61 0.930 . S
H79 C62 0.930 . S
H80 C69 0.930 . S
H81 C71 0.931 . S
H82 C72 0.930 . S
H83 C73 0.930 . S
Tb84 N115 2.660 . S
Tb84 N122 2.600 . S
Tb84 O128 2.546 . S
Tb84 O129 2.610 . S
Tb84 O131 2.320 . S
Tb84 O132 2.552 . S
Tb84 O133 2.413 . S
Tb84 O135 2.362 . S
Tb84 O136 2.421 . S
Tb84 C148 2.833 . S
C85 C88 1.432 . S
C85 C89 1.415 . S
C85 N92 1.359 . S
C86 C88 1.417 1_455 S
C86 C90 1.432 . S
C86 C98 1.410 . S
C87 C89 1.444 1_455 S
C87 C90 1.317 . S
C87 H110 0.929 . S
C88 C85 1.432 . S
C88 C86 1.417 1_655 S
C88 N96 1.360 . S
C89 C85 1.415 . S
C89 C87 1.444 1_655 S
C89 C94 1.384 . S
C90 C86 1.432 . S
C90 C87 1.317 . S
C90 H102 0.930 . S
C91 C93 1.392 . S
C91 C94 1.370 . S
C91 H103 0.931 . S
N92 C85 1.359 . S
N92 C93 1.327 . S
N92 Tb95 2.600 . S
C93 C91 1.392 . S
C93 N92 1.327 . S
C93 H100 0.930 . S
C94 C89 1.384 . S
C94 C91 1.370 . S
C94 H113 0.930 1_655 S
Tb95 N92 2.600 . S
Tb95 N96 2.660 . S
Tb95 O129 2.362 . S
Tb95 O130 2.421 . S
Tb95 O134 2.546 . S
Tb95 O135 2.610 . S
Tb95 O137 2.320 . S
Tb95 O138 2.552 . S
Tb95 O139 2.413 . S
Tb95 C159 2.833 1_655 S
N96 C88 1.360 . S
N96 Tb95 2.660 . S
N96 C97 1.305 . S
C97 N96 1.305 . S
C97 C99 1.407 . S
C97 H104 0.930 . S
C98 C86 1.410 . S
C98 C99 1.345 1_455 S
C98 H106 0.930 . S
C99 C97 1.407 . S
C99 C98 1.345 1_655 S
C99 H101 0.930 . S
H100 C93 0.930 . S
H101 C99 0.930 . S
H102 C90 0.930 . S
H103 C91 0.931 . S
H104 C97 0.930 . S
H105 C119 0.930 . S
H106 C98 0.930 . S
H107 C125 0.930 . S
H108 C116 0.930 . S
H109 C123 0.931 . S
H110 C87 0.929 . S
H111 C117 0.930 . S
H112 C150 0.930 . S
H113 C94 0.930 1_455 S
H114 C149 0.929 . S
N115 Tb84 2.660 . S
N115 C116 1.305 . S
N115 C120 1.360 . S
C116 H108 0.930 . S
C116 N115 1.305 . S
C116 C119 1.407 1_545 S
C117 H111 0.930 . S
C117 C118 1.410 . S
C117 C119 1.345 . S
C118 C117 1.410 . S
C118 C120 1.417 1_565 S
C118 C150 1.432 . S
C119 H105 0.930 . S
C119 C116 1.407 1_565 S
C119 C117 1.345 . S
C120 N115 1.360 . S
C120 C118 1.417 1_545 S
C120 C124 1.432 . S
H121 C126 0.930 . S
N122 Tb84 2.600 . S
N122 C124 1.359 . S
N122 C125 1.327 . S
C123 H109 0.931 . S
C123 C125 1.392 . S
C123 C126 1.370 . S
C124 C120 1.432 . S
C124 N122 1.359 . S
C124 C127 1.414 . S
C125 H107 0.930 . S
C125 N122 1.327 . S
C125 C123 1.392 . S
C126 H121 0.930 . S
C126 C123 1.370 . S
C126 C127 1.385 . S
C127 C124 1.414 . S
C127 C126 1.385 . S
C127 C149 1.444 1_545 S
O128 Tb84 2.546 . S
O128 C148 1.251 . S
O129 Tb84 2.610 . S
O129 Tb95 2.362 . S
O129 C140 1.283 . S
O130 Tb95 2.421 . S
O130 C147 1.262 . S
O131 Tb84 2.320 . S
O131 C147 1.260 . S
O132 Tb84 2.552 . S
O132 C140 1.243 . S
O133 Tb84 2.413 . S
O133 C148 1.256 . S
O134 Tb95 2.546 . S
O134 C159 1.251 1_655 S
O135 Tb84 2.362 . S
O135 Tb95 2.610 . S
O135 C151 1.283 . S
O136 Tb84 2.421 . S
O136 C158 1.262 . S
O137 Tb95 2.320 . S
O137 C158 1.260 . S
O138 Tb95 2.552 . S
O138 C151 1.243 . S
O139 Tb95 2.413 . S
O139 C159 1.256 1_655 S
C140 O129 1.283 . S
C140 O132 1.243 . S
C141 C143 1.382 . S
C141 C145 1.393 . S
C141 C148 1.500 . S
C142 C143 1.400 . S
C142 C144 1.384 . S
C143 C141 1.382 . S
C143 C142 1.400 . S
C143 H160 0.930 . S
C144 C142 1.384 . S
C144 C146 1.392 . S
C144 H161 0.931 . S
C145 C141 1.393 . S
C145 C146 1.401 . S
C145 H162 0.930 . S
C146 C144 1.392 . S
C146 C145 1.401 . S
C146 H163 0.930 . S
C147 O130 1.262 . S
C147 O131 1.260 . S
C148 Tb84 2.833 . S
C148 O128 1.251 . S
C148 O133 1.256 . S
C148 C141 1.500 . S
C149 H114 0.929 . S
C149 C127 1.444 1_565 S
C149 C150 1.317 . S
C150 H112 0.930 . S
C150 C118 1.432 . S
C150 C149 1.317 . S
C151 O135 1.283 . S
C151 O138 1.243 . S
C152 C153 1.382 . S
C152 C156 1.393 . S
C152 C159 1.500 . S
C153 C152 1.382 . S
C153 C154 1.400 . S
C153 H164 0.930 . S
C154 C153 1.400 . S
C154 C155 1.384 . S
C155 C154 1.384 . S
C155 C157 1.392 . S
C155 H165 0.931 . S
C156 C152 1.393 . S
C156 C157 1.401 . S
C156 H166 0.930 . S
C157 C155 1.392 . S
C157 C156 1.401 . S
C157 H167 0.930 . S
C158 O136 1.262 . S
C158 O137 1.260 . S
C159 Tb95 2.833 1_455 S
C159 O134 1.251 1_455 S
C159 O139 1.256 1_455 S
C159 C152 1.500 . S
H160 C143 0.930 . S
H161 C144 0.931 . S
H162 C145 0.930 . S
H163 C146 0.930 . S
H164 C153 0.930 . S
H165 C155 0.931 . S
H166 C156 0.930 . S
H167 C157 0.930 . S
Tb168 N199 2.660 . S
Tb168 N206 2.600 . S
Tb168 O212 2.546 . S
Tb168 O213 2.610 . S
Tb168 O215 2.320 . S
Tb168 O216 2.552 . S
Tb168 O217 2.413 . S
Tb168 O219 2.362 . S
Tb168 O220 2.421 . S
Tb168 C232 2.833 . S
C169 C172 1.432 . S
C169 C173 1.419 . S
C169 N176 1.359 . S
C170 C172 1.417 1_545 S
C170 C174 1.432 . S
C170 C182 1.410 . S
C171 C173 1.437 1_545 S
C171 C174 1.317 . S
C171 H194 0.929 . S
C172 C169 1.432 . S
C172 C170 1.417 1_565 S
C172 N180 1.360 . S
C173 C169 1.419 . S
C173 C171 1.437 1_565 S
C173 C178 1.387 . S
C174 C170 1.432 . S
C174 C171 1.317 . S
C174 H186 0.930 . S
C175 C177 1.392 . S
C175 C178 1.370 . S
C175 H187 0.931 . S
N176 C169 1.359 . S
N176 C177 1.327 . S
N176 Tb179 2.600 . S
C177 C175 1.392 . S
C177 N176 1.327 . S
C177 H184 0.930 . S
C178 C173 1.387 . S
C178 C175 1.370 . S
C178 H197 0.930 1_565 S
Tb179 N176 2.600 . S
Tb179 N180 2.660 . S
Tb179 O213 2.362 . S
Tb179 O214 2.421 . S
Tb179 O218 2.546 . S
Tb179 O219 2.610 . S
Tb179 O221 2.320 . S
Tb179 O222 2.552 . S
Tb179 O223 2.413 . S
Tb179 C243 2.833 1_565 S
N180 C172 1.360 . S
N180 Tb179 2.660 . S
N180 C181 1.305 . S
C181 N180 1.305 . S
C181 C183 1.407 . S
C181 H188 0.930 . S
C182 C170 1.410 . S
C182 C183 1.345 1_545 S
C182 H190 0.930 . S
C183 C181 1.407 . S
C183 C182 1.345 1_565 S
C183 H185 0.930 . S
H184 C177 0.930 . S
H185 C183 0.930 . S
H186 C174 0.930 . S
H187 C175 0.931 . S
H188 C181 0.930 . S
H189 C203 0.930 . S
H190 C182 0.930 . S
H191 C209 0.931 . S
H192 C200 0.930 . S
H193 C207 0.931 . S
H194 C171 0.929 . S
H195 C201 0.930 . S
H196 C234 0.930 . S
H197 C178 0.930 1_545 S
H198 C233 0.929 . S
N199 Tb168 2.660 . S
N199 C200 1.305 . S
N199 C204 1.360 . S
C200 H192 0.930 . S
C200 N199 1.305 . S
C200 C203 1.407 . S
C201 H195 0.930 . S
C201 C202 1.410 . S
C201 C203 1.345 . S
C202 C201 1.410 . S
C202 C204 1.417 . S
C202 C234 1.432 . S
C203 H189 0.930 . S
C203 C200 1.407 . S
C203 C201 1.345 . S
C204 N199 1.360 . S
C204 C202 1.417 . S
C204 C208 1.432 . S
H205 C210 0.930 . S
N206 Tb168 2.600 . S
N206 C208 1.359 . S
N206 C209 1.327 . S
C207 H193 0.931 . S
C207 C209 1.392 1_556 S
C207 C210 1.370 . S
C208 C204 1.432 . S
C208 N206 1.359 . S
C208 C211 1.414 . S
C209 H191 0.931 . S
C209 N206 1.327 . S
C209 C207 1.392 1_554 S
C210 H205 0.930 . S
C210 C207 1.370 . S
C210 C211 1.385 1_556 S
C211 C208 1.414 . S
C211 C210 1.385 1_554 S
C211 C233 1.444 . S
O212 Tb168 2.546 . S
O212 C232 1.251 . S
O213 Tb168 2.610 . S
O213 Tb179 2.362 . S
O213 C224 1.283 . S
O214 Tb179 2.421 . S
O214 C231 1.262 . S
O215 Tb168 2.320 . S
O215 C231 1.260 . S
O216 Tb168 2.552 . S
O216 C224 1.243 . S
O217 Tb168 2.413 . S
O217 C232 1.256 . S
O218 Tb179 2.546 . S
O218 C243 1.251 1_565 S
O219 Tb168 2.362 . S
O219 Tb179 2.610 . S
O219 C235 1.283 . S
O220 Tb168 2.421 . S
O220 C242 1.262 . S
O221 Tb179 2.320 . S
O221 C242 1.260 . S
O222 Tb179 2.552 . S
O222 C235 1.243 . S
O223 Tb179 2.413 . S
O223 C243 1.256 1_565 S
C224 O213 1.283 . S
C224 O216 1.243 . S
C225 C227 1.382 . S
C225 C229 1.393 . S
C225 C232 1.500 . S
C226 C227 1.400 . S
C226 C228 1.384 . S
C227 C225 1.382 . S
C227 C226 1.400 . S
C227 H244 0.930 . S
C228 C226 1.384 . S
C228 C230 1.392 . S
C228 H245 0.931 . S
C229 C225 1.393 . S
C229 C230 1.401 . S
C229 H246 0.930 . S
C230 C228 1.392 . S
C230 C229 1.401 . S
C230 H247 0.930 . S
C231 O214 1.262 . S
C231 O215 1.260 . S
C232 Tb168 2.833 . S
C232 O212 1.251 . S
C232 O217 1.256 . S
C232 C225 1.500 . S
C233 H198 0.929 . S
C233 C211 1.444 . S
C233 C234 1.317 . S
C234 H196 0.930 . S
C234 C202 1.432 . S
C234 C233 1.317 . S
C235 O219 1.283 . S
C235 O222 1.243 . S
C236 C237 1.382 . S
C236 C240 1.393 . S
C236 C243 1.500 . S
C237 C236 1.382 . S
C237 C238 1.400 . S
C237 H248 0.930 . S
C238 C237 1.400 . S
C238 C239 1.384 . S
C239 C238 1.384 . S
C239 C241 1.392 . S
C239 H249 0.931 . S
C240 C236 1.393 . S
C240 C241 1.401 . S
C240 H250 0.930 . S
C241 C239 1.392 . S
C241 C240 1.401 . S
C241 H251 0.930 . S
C242 O220 1.262 . S
C242 O221 1.260 . S
C243 Tb179 2.833 1_545 S
C243 O218 1.251 1_545 S
C243 O223 1.256 1_545 S
C243 C236 1.500 . S
H244 C227 0.930 . S
H245 C228 0.931 . S
H246 C229 0.930 . S
H247 C230 0.930 . S
H248 C237 0.930 . S
H249 C239 0.931 . S
H250 C240 0.930 . S
H251 C241 0.930 . S
Tb252 N283 2.660 . S
Tb252 N290 2.600 . S
Tb252 O296 2.546 . S
Tb252 O297 2.610 . S
Tb252 O299 2.320 . S
Tb252 O300 2.552 . S
Tb252 O301 2.413 . S
Tb252 O303 2.362 . S
Tb252 O304 2.421 . S
Tb252 C316 2.833 . S
C253 C256 1.432 . S
C253 C257 1.414 . S
C253 N260 1.359 . S
C254 C256 1.417 . S
C254 C258 1.432 . S
C254 C266 1.410 . S
C255 C257 1.444 . S
C255 C258 1.317 . S
C255 H278 0.929 . S
C256 C253 1.432 . S
C256 C254 1.417 . S
C256 N264 1.360 . S
C257 C253 1.414 . S
C257 C255 1.444 . S
C257 C262 1.385 . S
C258 C254 1.432 . S
C258 C255 1.317 . S
C258 H270 0.930 . S
C259 C261 1.392 . S
C259 C262 1.370 . S
C259 H271 0.931 . S
N260 C253 1.359 . S
N260 C261 1.327 . S
N260 Tb263 2.600 . S
C261 C259 1.392 . S
C261 N260 1.327 . S
C261 H268 0.930 . S
C262 C257 1.385 . S
C262 C259 1.370 . S
C262 H281 0.930 . S
Tb263 N260 2.600 . S
Tb263 N264 2.660 . S
Tb263 O297 2.362 . S
Tb263 O298 2.421 . S
Tb263 O302 2.546 . S
Tb263 O303 2.610 . S
Tb263 O305 2.320 . S
Tb263 O306 2.552 . S
Tb263 O307 2.413 . S
Tb263 C327 2.833 . S
N264 C256 1.360 . S
N264 Tb263 2.660 . S
N264 C265 1.305 . S
C265 N264 1.305 . S
C265 C267 1.407 . S
C265 H272 0.930 . S
C266 C254 1.410 . S
C266 C267 1.345 . S
C266 H274 0.930 . S
C267 C265 1.407 . S
C267 C266 1.345 . S
C267 H269 0.930 . S
H268 C261 0.930 . S
H269 C267 0.930 . S
H270 C258 0.930 . S
H271 C259 0.931 . S
H272 C265 0.930 . S
H273 C287 0.930 . S
H274 C266 0.930 . S
H275 C293 0.930 . S
H276 C284 0.930 . S
H277 C291 0.931 . S
H278 C255 0.929 . S
H279 C285 0.930 . S
H280 C318 0.930 . S
H281 C262 0.930 . S
H282 C317 0.929 . S
N283 Tb252 2.660 . S
N283 C284 1.305 . S
N283 C288 1.360 . S
C284 H276 0.930 . S
C284 N283 1.305 . S
C284 C287 1.407 1_655 S
C285 H279 0.930 . S
C285 C286 1.410 . S
C285 C287 1.345 . S
C286 C285 1.410 . S
C286 C288 1.417 1_455 S
C286 C318 1.432 . S
C287 H273 0.930 . S
C287 C284 1.407 1_455 S
C287 C285 1.345 . S
C288 N283 1.360 . S
C288 C286 1.417 1_655 S
C288 C292 1.432 . S
H289 C294 0.930 . S
N290 Tb252 2.600 . S
N290 C292 1.359 . S
N290 C293 1.327 . S
C291 H277 0.931 . S
C291 C293 1.392 . S
C291 C294 1.370 . S
C292 C288 1.432 . S
C292 N290 1.359 . S
C292 C295 1.414 . S
C293 H275 0.930 . S
C293 N290 1.327 . S
C293 C291 1.392 . S
C294 H289 0.930 . S
C294 C291 1.370 . S
C294 C295 1.385 . S
C295 C292 1.414 . S
C295 C294 1.385 . S
C295 C317 1.444 1_655 S
O296 Tb252 2.546 . S
O296 C316 1.251 . S
O297 Tb252 2.610 . S
O297 Tb263 2.362 . S
O297 C308 1.283 . S
O298 Tb263 2.421 . S
O298 C315 1.262 . S
O299 Tb252 2.320 . S
O299 C315 1.260 . S
O300 Tb252 2.552 . S
O300 C308 1.243 . S
O301 Tb252 2.413 . S
O301 C316 1.256 . S
O302 Tb263 2.546 . S
O302 C327 1.251 . S
O303 Tb252 2.362 . S
O303 Tb263 2.610 . S
O303 C319 1.283 . S
O304 Tb252 2.421 . S
O304 C326 1.262 . S
O305 Tb263 2.320 . S
O305 C326 1.260 . S
O306 Tb263 2.552 . S
O306 C319 1.243 . S
O307 Tb263 2.413 . S
O307 C327 1.256 . S
C308 O297 1.283 . S
C308 O300 1.243 . S
C309 C311 1.382 . S
C309 C313 1.393 . S
C309 C316 1.500 . S
C310 C311 1.400 . S
C310 C312 1.384 . S
C311 C309 1.382 . S
C311 C310 1.400 . S
C311 H328 0.930 . S
C312 C310 1.384 . S
C312 C314 1.392 . S
C312 H329 0.931 . S
C313 C309 1.393 . S
C313 C314 1.401 . S
C313 H330 0.930 . S
C314 C312 1.392 . S
C314 C313 1.401 . S
C314 H331 0.930 . S
C315 O298 1.262 . S
C315 O299 1.260 . S
C316 Tb252 2.833 . S
C316 O296 1.251 . S
C316 O301 1.256 . S
C316 C309 1.500 . S
C317 H282 0.929 . S
C317 C295 1.444 1_455 S
C317 C318 1.317 . S
C318 H280 0.930 . S
C318 C286 1.432 . S
C318 C317 1.317 . S
C319 O303 1.283 . S
C319 O306 1.243 . S
C320 C321 1.382 . S
C320 C324 1.393 . S
C320 C327 1.500 . S
C321 C320 1.382 . S
C321 C322 1.400 . S
C321 H332 0.930 . S
C322 C321 1.400 . S
C322 C323 1.384 . S
C323 C322 1.384 . S
C323 C325 1.392 . S
C323 H333 0.931 . S
C324 C320 1.393 . S
C324 C325 1.401 . S
C324 H334 0.930 . S
C325 C323 1.392 . S
C325 C324 1.401 . S
C325 H335 0.930 . S
C326 O304 1.262 . S
C326 O305 1.260 . S
C327 Tb263 2.833 . S
C327 O302 1.251 . S
C327 O307 1.256 . S
C327 C320 1.500 . S
H328 C311 0.930 . S
H329 C312 0.931 . S
H330 C313 0.930 . S
H331 C314 0.930 . S
H332 C321 0.930 . S
H333 C323 0.931 . S
H334 C324 0.930 . S
H335 C325 0.930 . S
Tb336 N367 2.660 . S
Tb336 N374 2.600 . S
Tb336 O380 2.546 . S
Tb336 O381 2.610 . S
Tb336 O383 2.320 . S
Tb336 O384 2.552 . S
Tb336 O385 2.413 . S
Tb336 O387 2.362 . S
Tb336 O388 2.421 . S
Tb336 C400 2.833 . S
C337 C340 1.432 . S
C337 C341 1.415 . S
C337 N344 1.359 . S
C338 C340 1.417 1_655 S
C338 C342 1.432 . S
C338 C350 1.410 . S
C339 C341 1.444 1_655 S
C339 C342 1.317 . S
C339 H362 0.929 . S
C340 C337 1.432 . S
C340 C338 1.417 1_455 S
C340 N348 1.360 . S
C341 C337 1.415 . S
C341 C339 1.444 1_455 S
C341 C346 1.384 . S
C342 C338 1.432 . S
C342 C339 1.317 . S
C342 H354 0.930 . S
C343 C345 1.392 . S
C343 C346 1.370 . S
C343 H355 0.931 . S
N344 C337 1.359 . S
N344 C345 1.327 . S
N344 Tb347 2.600 . S
C345 C343 1.392 . S
C345 N344 1.327 . S
C345 H352 0.930 . S
C346 C341 1.384 . S
C346 C343 1.370 . S
C346 H365 0.930 1_455 S
Tb347 N344 2.600 . S
Tb347 N348 2.660 . S
Tb347 O381 2.362 . S
Tb347 O382 2.421 . S
Tb347 O386 2.546 . S
Tb347 O387 2.610 . S
Tb347 O389 2.320 . S
Tb347 O390 2.552 . S
Tb347 O391 2.413 . S
Tb347 C411 2.833 1_455 S
N348 C340 1.360 . S
N348 Tb347 2.660 . S
N348 C349 1.305 . S
C349 N348 1.305 . S
C349 C351 1.407 . S
C349 H356 0.930 . S
C350 C338 1.410 . S
C350 C351 1.345 1_655 S
C350 H358 0.930 . S
C351 C349 1.407 . S
C351 C350 1.345 1_455 S
C351 H353 0.930 . S
H352 C345 0.930 . S
H353 C351 0.930 . S
H354 C342 0.930 . S
H355 C343 0.931 . S
H356 C349 0.930 . S
H357 C371 0.930 . S
H358 C350 0.930 . S
H359 C377 0.931 . S
H360 C368 0.930 . S
H361 C375 0.931 . S
H362 C339 0.929 . S
H363 C369 0.930 . S
H364 C402 0.930 . S
H365 C346 0.930 1_655 S
H366 C401 0.929 . S
N367 Tb336 2.660 . S
N367 C368 1.305 . S
N367 C372 1.360 . S
C368 H360 0.930 . S
C368 N367 1.305 . S
C368 C371 1.407 1_565 S
C369 H363 0.930 . S
C369 C370 1.410 . S
C369 C371 1.345 . S
C370 C369 1.410 . S
C370 C372 1.417 1_545 S
C370 C402 1.432 . S
C371 H357 0.930 . S
C371 C368 1.407 1_545 S
C371 C369 1.345 . S
C372 N367 1.360 . S
C372 C370 1.417 1_565 S
C372 C376 1.432 . S
H373 C378 0.930 . S
N374 Tb336 2.600 . S
N374 C376 1.359 . S
N374 C377 1.327 . S
C375 H361 0.931 . S
C375 C377 1.392 1_556 S
C375 C378 1.370 . S
C376 C372 1.432 . S
C376 N374 1.359 . S
C376 C379 1.414 . S
C377 H359 0.931 . S
C377 N374 1.327 . S
C377 C375 1.392 1_554 S
C378 H373 0.930 . S
C378 C375 1.370 . S
C378 C379 1.385 1_556 S
C379 C376 1.414 . S
C379 C378 1.385 1_554 S
C379 C401 1.444 1_565 S
O380 Tb336 2.546 . S
O380 C400 1.251 . S
O381 Tb336 2.610 . S
O381 Tb347 2.362 . S
O381 C392 1.283 . S
O382 Tb347 2.421 . S
O382 C399 1.262 . S
O383 Tb336 2.320 . S
O383 C399 1.260 . S
O384 Tb336 2.552 . S
O384 C392 1.243 . S
O385 Tb336 2.413 . S
O385 C400 1.256 . S
O386 Tb347 2.546 . S
O386 C411 1.251 1_455 S
O387 Tb336 2.362 . S
O387 Tb347 2.610 . S
O387 C403 1.283 . S
O388 Tb336 2.421 . S
O388 C410 1.262 . S
O389 Tb347 2.320 . S
O389 C410 1.260 . S
O390 Tb347 2.552 . S
O390 C403 1.243 . S
O391 Tb347 2.413 . S
O391 C411 1.256 1_455 S
C392 O381 1.283 . S
C392 O384 1.243 . S
C393 C395 1.382 . S
C393 C397 1.393 . S
C393 C400 1.500 . S
C394 C395 1.400 . S
C394 C396 1.384 . S
C395 C393 1.382 . S
C395 C394 1.400 . S
C395 H412 0.930 . S
C396 C394 1.384 . S
C396 C398 1.392 . S
C396 H413 0.931 . S
C397 C393 1.393 . S
C397 C398 1.401 . S
C397 H414 0.930 . S
C398 C396 1.392 . S
C398 C397 1.401 . S
C398 H415 0.930 . S
C399 O382 1.262 . S
C399 O383 1.260 . S
C400 Tb336 2.833 . S
C400 O380 1.251 . S
C400 O385 1.256 . S
C400 C393 1.500 . S
C401 H366 0.929 . S
C401 C379 1.444 1_545 S
C401 C402 1.317 . S
C402 H364 0.930 . S
C402 C370 1.432 . S
C402 C401 1.317 . S
C403 O387 1.283 . S
C403 O390 1.243 . S
C404 C405 1.382 . S
C404 C408 1.393 . S
C404 C411 1.500 . S
C405 C404 1.382 . S
C405 C406 1.400 . S
C405 H416 0.930 . S
C406 C405 1.400 . S
C406 C407 1.384 . S
C407 C406 1.384 . S
C407 C409 1.392 . S
C407 H417 0.931 . S
C408 C404 1.393 . S
C408 C409 1.401 . S
C408 H418 0.930 . S
C409 C407 1.392 . S
C409 C408 1.401 . S
C409 H419 0.930 . S
C410 O388 1.262 . S
C410 O389 1.260 . S
C411 Tb347 2.833 1_655 S
C411 O386 1.251 1_655 S
C411 O391 1.256 1_655 S
C411 C404 1.500 . S
H412 C395 0.930 . S
H413 C396 0.931 . S
H414 C397 0.930 . S
H415 C398 0.930 . S
H416 C405 0.930 . S
H417 C407 0.931 . S
H418 C408 0.930 . S
H419 C409 0.930 . S
Tb420 N451 2.660 . S
Tb420 N458 2.600 . S
Tb420 O464 2.546 . S
Tb420 O465 2.610 . S
Tb420 O467 2.320 . S
Tb420 O468 2.552 . S
Tb420 O469 2.413 . S
Tb420 O471 2.362 . S
Tb420 O472 2.421 . S
Tb420 C484 2.833 . S
C421 C424 1.432 . S
C421 C425 1.419 . S
C421 N428 1.359 . S
C422 C424 1.417 1_565 S
C422 C426 1.432 . S
C422 C434 1.410 . S
C423 C425 1.437 1_565 S
C423 C426 1.317 . S
C423 H446 0.929 . S
C424 C421 1.432 . S
C424 C422 1.417 1_545 S
C424 N432 1.360 . S
C425 C421 1.419 . S
C425 C423 1.437 1_545 S
C425 C430 1.387 . S
C426 C422 1.432 . S
C426 C423 1.317 . S
C426 H438 0.930 . S
C427 C429 1.392 . S
C427 C430 1.370 . S
C427 H439 0.931 . S
N428 C421 1.359 . S
N428 C429 1.327 . S
N428 Tb431 2.600 . S
C429 C427 1.392 . S
C429 N428 1.327 . S
C429 H436 0.930 . S
C430 C425 1.387 . S
C430 C427 1.370 . S
C430 H449 0.930 1_545 S
Tb431 N428 2.600 . S
Tb431 N432 2.660 . S
Tb431 O465 2.362 . S
Tb431 O466 2.421 . S
Tb431 O470 2.546 . S
Tb431 O471 2.610 . S
Tb431 O473 2.320 . S
Tb431 O474 2.552 . S
Tb431 O475 2.413 . S
Tb431 C495 2.833 1_545 S
N432 C424 1.360 . S
N432 Tb431 2.660 . S
N432 C433 1.305 . S
C433 N432 1.305 . S
C433 C435 1.407 . S
C433 H440 0.930 . S
C434 C422 1.410 . S
C434 C435 1.345 1_565 S
C434 H442 0.930 . S
C435 C433 1.407 . S
C435 C434 1.345 1_545 S
C435 H437 0.930 . S
H436 C429 0.930 . S
H437 C435 0.930 . S
H438 C426 0.930 . S
H439 C427 0.931 . S
H440 C433 0.930 . S
H441 C455 0.930 . S
H442 C434 0.930 . S
H443 C461 0.930 . S
H444 C452 0.930 . S
H445 C459 0.931 . S
H446 C423 0.929 . S
H447 C453 0.930 . S
H448 C486 0.930 . S
H449 C430 0.930 1_565 S
H450 C485 0.929 . S
N451 Tb420 2.660 . S
N451 C452 1.305 . S
N451 C456 1.360 . S
C452 H444 0.930 . S
C452 N451 1.305 . S
C452 C455 1.407 . S
C453 H447 0.930 . S
C453 C454 1.410 . S
C453 C455 1.345 . S
C454 C453 1.410 . S
C454 C456 1.417 . S
C454 C486 1.432 . S
C455 H441 0.930 . S
C455 C452 1.407 . S
C455 C453 1.345 . S
C456 N451 1.360 . S
C456 C454 1.417 . S
C456 C460 1.432 . S
H457 C462 0.930 . S
N458 Tb420 2.600 . S
N458 C460 1.359 . S
N458 C461 1.327 . S
C459 H445 0.931 . S
C459 C461 1.392 . S
C459 C462 1.370 . S
C460 C456 1.432 . S
C460 N458 1.359 . S
C460 C463 1.414 . S
C461 H443 0.930 . S
C461 N458 1.327 . S
C461 C459 1.392 . S
C462 H457 0.930 . S
C462 C459 1.370 . S
C462 C463 1.385 . S
C463 C460 1.414 . S
C463 C462 1.385 . S
C463 C485 1.444 . S
O464 Tb420 2.546 . S
O464 C484 1.251 . S
O465 Tb420 2.610 . S
O465 Tb431 2.362 . S
O465 C476 1.283 . S
O466 Tb431 2.421 . S
O466 C483 1.262 . S
O467 Tb420 2.320 . S
O467 C483 1.260 . S
O468 Tb420 2.552 . S
O468 C476 1.243 . S
O469 Tb420 2.413 . S
O469 C484 1.256 . S
O470 Tb431 2.546 . S
O470 C495 1.251 1_545 S
O471 Tb420 2.362 . S
O471 Tb431 2.610 . S
O471 C487 1.283 . S
O472 Tb420 2.421 . S
O472 C494 1.262 . S
O473 Tb431 2.320 . S
O473 C494 1.260 . S
O474 Tb431 2.552 . S
O474 C487 1.243 . S
O475 Tb431 2.413 . S
O475 C495 1.256 1_545 S
C476 O465 1.283 . S
C476 O468 1.243 . S
C477 C479 1.382 . S
C477 C481 1.393 . S
C477 C484 1.500 . S
C478 C479 1.400 . S
C478 C480 1.384 . S
C479 C477 1.382 . S
C479 C478 1.400 . S
C479 H496 0.930 . S
C480 C478 1.384 . S
C480 C482 1.392 . S
C480 H497 0.931 . S
C481 C477 1.393 . S
C481 C482 1.401 . S
C481 H498 0.930 . S
C482 C480 1.392 . S
C482 C481 1.401 . S
C482 H499 0.930 . S
C483 O466 1.262 . S
C483 O467 1.260 . S
C484 Tb420 2.833 . S
C484 O464 1.251 . S
C484 O469 1.256 . S
C484 C477 1.500 . S
C485 H450 0.929 . S
C485 C463 1.444 . S
C485 C486 1.317 . S
C486 H448 0.930 . S
C486 C454 1.432 . S
C486 C485 1.317 . S
C487 O471 1.283 . S
C487 O474 1.243 . S
C488 C489 1.382 . S
C488 C492 1.393 . S
C488 C495 1.500 . S
C489 C488 1.382 . S
C489 C490 1.400 . S
C489 H500 0.930 . S
C490 C489 1.400 . S
C490 C491 1.384 . S
C491 C490 1.384 . S
C491 C493 1.392 . S
C491 H501 0.931 . S
C492 C488 1.393 . S
C492 C493 1.401 . S
C492 H502 0.930 . S
C493 C491 1.392 . S
C493 C492 1.401 . S
C493 H503 0.930 . S
C494 O472 1.262 . S
C494 O473 1.260 . S
C495 Tb431 2.833 1_565 S
C495 O470 1.251 1_565 S
C495 O475 1.256 1_565 S
C495 C488 1.500 . S
H496 C479 0.930 . S
H497 C480 0.931 . S
H498 C481 0.930 . S
H499 C482 0.930 . S
H500 C489 0.930 . S
H501 C491 0.931 . S
H502 C492 0.930 . S
H503 C493 0.930 . S
Tb504 N535 2.660 . S
Tb504 N542 2.600 . S
Tb504 O548 2.546 . S
Tb504 O549 2.610 . S
Tb504 O551 2.320 . S
Tb504 O552 2.552 . S
Tb504 O553 2.413 . S
Tb504 O555 2.362 . S
Tb504 O556 2.421 . S
Tb504 C568 2.833 . S
C505 C508 1.432 . S
C505 C509 1.414 . S
C505 N512 1.359 . S
C506 C508 1.417 . S
C506 C510 1.432 . S
C506 C518 1.410 . S
C507 C509 1.444 . S
C507 C510 1.317 . S
C507 H530 0.929 . S
C508 C505 1.432 . S
C508 C506 1.417 . S
C508 N516 1.360 . S
C509 C505 1.414 . S
C509 C507 1.444 . S
C509 C514 1.385 . S
C510 C506 1.432 . S
C510 C507 1.317 . S
C510 H522 0.930 . S
C511 C513 1.392 . S
C511 C514 1.370 . S
C511 H523 0.931 . S
N512 C505 1.359 . S
N512 C513 1.327 . S
N512 Tb515 2.600 . S
C513 C511 1.392 . S
C513 N512 1.327 . S
C513 H520 0.930 . S
C514 C509 1.385 . S
C514 C511 1.370 . S
C514 H533 0.930 . S
Tb515 N512 2.600 . S
Tb515 N516 2.660 . S
Tb515 O549 2.362 . S
Tb515 O550 2.421 . S
Tb515 O554 2.546 . S
Tb515 O555 2.610 . S
Tb515 O557 2.320 . S
Tb515 O558 2.552 . S
Tb515 O559 2.413 . S
Tb515 C579 2.833 . S
N516 C508 1.360 . S
N516 Tb515 2.660 . S
N516 C517 1.305 . S
C517 N516 1.305 . S
C517 C519 1.407 . S
C517 H524 0.930 . S
C518 C506 1.410 . S
C518 C519 1.345 . S
C518 H526 0.930 . S
C519 C517 1.407 . S
C519 C518 1.345 . S
C519 H521 0.930 . S
H520 C513 0.930 . S
H521 C519 0.930 . S
H522 C510 0.930 . S
H523 C511 0.931 . S
H524 C517 0.930 . S
H525 C539 0.930 . S
H526 C518 0.930 . S
H527 C545 0.930 . S
H528 C536 0.930 . S
H529 C543 0.931 . S
H530 C507 0.929 . S
H531 C537 0.930 . S
H532 C570 0.930 . S
H533 C514 0.930 . S
H534 C569 0.929 . S
N535 Tb504 2.660 . S
N535 C536 1.305 . S
N535 C540 1.360 . S
C536 H528 0.930 . S
C536 N535 1.305 . S
C536 C539 1.407 1_565 S
C537 H531 0.930 . S
C537 C538 1.410 . S
C537 C539 1.345 . S
C538 C537 1.410 . S
C538 C540 1.417 1_545 S
C538 C570 1.432 . S
C539 H525 0.930 . S
C539 C536 1.407 1_545 S
C539 C537 1.345 . S
C540 N535 1.360 . S
C540 C538 1.417 1_565 S
C540 C544 1.432 . S
H541 C546 0.930 . S
N542 Tb504 2.600 . S
N542 C544 1.359 . S
N542 C545 1.327 . S
C543 H529 0.931 . S
C543 C545 1.392 . S
C543 C546 1.370 . S
C544 C540 1.432 . S
C544 N542 1.359 . S
C544 C547 1.414 . S
C545 H527 0.930 . S
C545 N542 1.327 . S
C545 C543 1.392 . S
C546 H541 0.930 . S
C546 C543 1.370 . S
C546 C547 1.385 . S
C547 C544 1.414 . S
C547 C546 1.385 . S
C547 C569 1.444 1_565 S
O548 Tb504 2.546 . S
O548 C568 1.251 . S
O549 Tb504 2.610 . S
O549 Tb515 2.362 . S
O549 C560 1.283 . S
O550 Tb515 2.421 . S
O550 C567 1.262 . S
O551 Tb504 2.320 . S
O551 C567 1.260 . S
O552 Tb504 2.552 . S
O552 C560 1.243 . S
O553 Tb504 2.413 . S
O553 C568 1.256 . S
O554 Tb515 2.546 . S
O554 C579 1.251 . S
O555 Tb504 2.362 . S
O555 Tb515 2.610 . S
O555 C571 1.283 . S
O556 Tb504 2.421 . S
O556 C578 1.262 . S
O557 Tb515 2.320 . S
O557 C578 1.260 . S
O558 Tb515 2.552 . S
O558 C571 1.243 . S
O559 Tb515 2.413 . S
O559 C579 1.256 . S
C560 O549 1.283 . S
C560 O552 1.243 . S
C561 C563 1.382 . S
C561 C565 1.393 . S
C561 C568 1.500 . S
C562 C563 1.400 . S
C562 C564 1.384 . S
C563 C561 1.382 . S
C563 C562 1.400 . S
C563 H580 0.930 . S
C564 C562 1.384 . S
C564 C566 1.392 . S
C564 H581 0.931 . S
C565 C561 1.393 . S
C565 C566 1.401 . S
C565 H582 0.930 . S
C566 C564 1.392 . S
C566 C565 1.401 . S
C566 H583 0.930 . S
C567 O550 1.262 . S
C567 O551 1.260 . S
C568 Tb504 2.833 . S
C568 O548 1.251 . S
C568 O553 1.256 . S
C568 C561 1.500 . S
C569 H534 0.929 . S
C569 C547 1.444 1_545 S
C569 C570 1.317 . S
C570 H532 0.930 . S
C570 C538 1.432 . S
C570 C569 1.317 . S
C571 O555 1.283 . S
C571 O558 1.243 . S
C572 C573 1.382 . S
C572 C576 1.393 . S
C572 C579 1.500 . S
C573 C572 1.382 . S
C573 C574 1.400 . S
C573 H584 0.930 . S
C574 C573 1.400 . S
C574 C575 1.384 . S
C575 C574 1.384 . S
C575 C577 1.392 . S
C575 H585 0.931 . S
C576 C572 1.393 . S
C576 C577 1.401 . S
C576 H586 0.930 . S
C577 C575 1.392 . S
C577 C576 1.401 . S
C577 H587 0.930 . S
C578 O556 1.262 . S
C578 O557 1.260 . S
C579 Tb515 2.833 . S
C579 O554 1.251 . S
C579 O559 1.256 . S
C579 C572 1.500 . S
H580 C563 0.930 . S
H581 C564 0.931 . S
H582 C565 0.930 . S
H583 C566 0.930 . S
H584 C573 0.930 . S
H585 C575 0.931 . S
H586 C576 0.930 . S
H587 C577 0.930 . S
Tb588 N619 2.660 . S
Tb588 N626 2.600 . S
Tb588 O632 2.546 . S
Tb588 O633 2.610 . S
Tb588 O635 2.320 . S
Tb588 O636 2.552 . S
Tb588 O637 2.413 . S
Tb588 O639 2.362 . S
Tb588 O640 2.421 . S
Tb588 C652 2.833 . S
C589 C592 1.432 . S
C589 C593 1.419 . S
C589 N596 1.359 . S
C590 C592 1.417 1_455 S
C590 C594 1.432 . S
C590 C602 1.410 . S
C591 C593 1.437 1_455 S
C591 C594 1.317 . S
C591 H614 0.929 . S
C592 C589 1.432 . S
C592 C590 1.417 1_655 S
C592 N600 1.360 . S
C593 C589 1.419 . S
C593 C591 1.437 1_655 S
C593 C598 1.387 . S
C594 C590 1.432 . S
C594 C591 1.317 . S
C594 H606 0.930 . S
C595 C597 1.392 . S
C595 C598 1.370 . S
C595 H607 0.931 . S
N596 C589 1.359 . S
N596 C597 1.327 . S
N596 Tb599 2.600 . S
C597 C595 1.392 . S
C597 N596 1.327 . S
C597 H604 0.930 . S
C598 C593 1.387 . S
C598 C595 1.370 . S
C598 H617 0.930 1_655 S
Tb599 N596 2.600 . S
Tb599 N600 2.660 . S
Tb599 O633 2.362 . S
Tb599 O634 2.421 . S
Tb599 O638 2.546 . S
Tb599 O639 2.610 . S
Tb599 O641 2.320 . S
Tb599 O642 2.552 . S
Tb599 O643 2.413 . S
Tb599 C663 2.833 1_655 S
N600 C592 1.360 . S
N600 Tb599 2.660 . S
N600 C601 1.305 . S
C601 N600 1.305 . S
C601 C603 1.407 . S
C601 H608 0.930 . S
C602 C590 1.410 . S
C602 C603 1.345 1_455 S
C602 H610 0.930 . S
C603 C601 1.407 . S
C603 C602 1.345 1_655 S
C603 H605 0.930 . S
H604 C597 0.930 . S
H605 C603 0.930 . S
H606 C594 0.930 . S
H607 C595 0.931 . S
H608 C601 0.930 . S
H609 C623 0.930 . S
H610 C602 0.930 . S
H611 C629 0.931 . S
H612 C620 0.930 . S
H613 C627 0.931 . S
H614 C591 0.929 . S
H615 C621 0.930 . S
H616 C654 0.930 . S
H617 C598 0.930 1_455 S
H618 C653 0.929 . S
N619 Tb588 2.660 . S
N619 C620 1.305 . S
N619 C624 1.360 . S
C620 H612 0.930 . S
C620 N619 1.305 . S
C620 C623 1.407 . S
C621 H615 0.930 . S
C621 C622 1.410 . S
C621 C623 1.345 . S
C622 C621 1.410 . S
C622 C624 1.417 . S
C622 C654 1.432 . S
C623 H609 0.930 . S
C623 C620 1.407 . S
C623 C621 1.345 . S
C624 N619 1.360 . S
C624 C622 1.417 . S
C624 C628 1.432 . S
H625 C630 0.930 . S
N626 Tb588 2.600 . S
N626 C628 1.359 . S
N626 C629 1.327 . S
C627 H613 0.931 . S
C627 C629 1.392 1_554 S
C627 C630 1.370 . S
C628 C624 1.432 . S
C628 N626 1.359 . S
C628 C631 1.414 . S
C629 H611 0.931 . S
C629 N626 1.327 . S
C629 C627 1.392 1_556 S
C630 H625 0.930 . S
C630 C627 1.370 . S
C630 C631 1.385 1_554 S
C631 C628 1.414 . S
C631 C630 1.385 1_556 S
C631 C653 1.444 . S
O632 Tb588 2.546 . S
O632 C652 1.251 . S
O633 Tb588 2.610 . S
O633 Tb599 2.362 . S
O633 C644 1.283 . S
O634 Tb599 2.421 . S
O634 C651 1.262 . S
O635 Tb588 2.320 . S
O635 C651 1.260 . S
O636 Tb588 2.552 . S
O636 C644 1.243 . S
O637 Tb588 2.413 . S
O637 C652 1.256 . S
O638 Tb599 2.546 . S
O638 C663 1.251 1_655 S
O639 Tb588 2.362 . S
O639 Tb599 2.610 . S
O639 C655 1.283 . S
O640 Tb588 2.421 . S
O640 C662 1.262 . S
O641 Tb599 2.320 . S
O641 C662 1.260 . S
O642 Tb599 2.552 . S
O642 C655 1.243 . S
O643 Tb599 2.413 . S
O643 C663 1.256 1_655 S
C644 O633 1.283 . S
C644 O636 1.243 . S
C645 C647 1.382 . S
C645 C649 1.393 . S
C645 C652 1.500 . S
C646 C647 1.400 . S
C646 C648 1.384 . S
C647 C645 1.382 . S
C647 C646 1.400 . S
C647 H664 0.930 . S
C648 C646 1.384 . S
C648 C650 1.392 . S
C648 H665 0.931 . S
C649 C645 1.393 . S
C649 C650 1.401 . S
C649 H666 0.930 . S
C650 C648 1.392 . S
C650 C649 1.401 . S
C650 H667 0.930 . S
C651 O634 1.262 . S
C651 O635 1.260 . S
C652 Tb588 2.833 . S
C652 O632 1.251 . S
C652 O637 1.256 . S
C652 C645 1.500 . S
C653 H618 0.929 . S
C653 C631 1.444 . S
C653 C654 1.317 . S
C654 H616 0.930 . S
C654 C622 1.432 . S
C654 C653 1.317 . S
C655 O639 1.283 . S
C655 O642 1.243 . S
C656 C657 1.382 . S
C656 C660 1.393 . S
C656 C663 1.500 . S
C657 C656 1.382 . S
C657 C658 1.400 . S
C657 H668 0.930 . S
C658 C657 1.400 . S
C658 C659 1.384 . S
C659 C658 1.384 . S
C659 C661 1.392 . S
C659 H669 0.931 . S
C660 C656 1.393 . S
C660 C661 1.401 . S
C660 H670 0.930 . S
C661 C659 1.392 . S
C661 C660 1.401 . S
C661 H671 0.930 . S
C662 O640 1.262 . S
C662 O641 1.260 . S
C663 Tb599 2.833 1_455 S
C663 O638 1.251 1_455 S
C663 O643 1.256 1_455 S
C663 C656 1.500 . S
H664 C647 0.930 . S
H665 C648 0.931 . S
H666 C649 0.930 . S
H667 C650 0.930 . S
H668 C657 0.930 . S
H669 C659 0.931 . S
H670 C660 0.930 . S
H671 C661 0.930 . S
Tb672 N703 2.660 . S
Tb672 N710 2.600 . S
Tb672 O716 2.546 . S
Tb672 O717 2.610 . S
Tb672 O719 2.320 . S
Tb672 O720 2.552 . S
Tb672 O721 2.413 . S
Tb672 O723 2.362 . S
Tb672 O724 2.421 . S
Tb672 C736 2.833 . S
C673 C676 1.432 . S
C673 C677 1.415 . S
C673 N680 1.359 . S
C674 C676 1.417 1_545 S
C674 C678 1.432 . S
C674 C686 1.410 . S
C675 C677 1.444 1_545 S
C675 C678 1.317 . S
C675 H698 0.929 . S
C676 C673 1.432 . S
C676 C674 1.417 1_565 S
C676 N684 1.360 . S
C677 C673 1.415 . S
C677 C675 1.444 1_565 S
C677 C682 1.384 . S
C678 C674 1.432 . S
C678 C675 1.317 . S
C678 H690 0.930 . S
C679 C681 1.392 . S
C679 C682 1.370 . S
C679 H691 0.931 . S
N680 C673 1.359 . S
N680 C681 1.327 . S
N680 Tb683 2.600 . S
C681 C679 1.392 . S
C681 N680 1.327 . S
C681 H688 0.930 . S
C682 C677 1.384 . S
C682 C679 1.370 . S
C682 H701 0.930 1_565 S
Tb683 N680 2.600 . S
Tb683 N684 2.660 . S
Tb683 O717 2.362 . S
Tb683 O718 2.421 . S
Tb683 O722 2.546 . S
Tb683 O723 2.610 . S
Tb683 O725 2.320 . S
Tb683 O726 2.552 . S
Tb683 O727 2.413 . S
Tb683 C747 2.833 1_565 S
N684 C676 1.360 . S
N684 Tb683 2.660 . S
N684 C685 1.305 . S
C685 N684 1.305 . S
C685 C687 1.407 . S
C685 H692 0.930 . S
C686 C674 1.410 . S
C686 C687 1.345 1_545 S
C686 H694 0.930 . S
C687 C685 1.407 . S
C687 C686 1.345 1_565 S
C687 H689 0.930 . S
H688 C681 0.930 . S
H689 C687 0.930 . S
H690 C678 0.930 . S
H691 C679 0.931 . S
H692 C685 0.930 . S
H693 C707 0.930 . S
H694 C686 0.930 . S
H695 C713 0.930 . S
H696 C704 0.930 . S
H697 C711 0.931 . S
H698 C675 0.929 . S
H699 C705 0.930 . S
H700 C738 0.930 . S
H701 C682 0.930 1_545 S
H702 C737 0.929 . S
N703 Tb672 2.660 . S
N703 C704 1.305 . S
N703 C708 1.360 . S
C704 H696 0.930 . S
C704 N703 1.305 . S
C704 C707 1.407 1_455 S
C705 H699 0.930 . S
C705 C706 1.410 . S
C705 C707 1.345 . S
C706 C705 1.410 . S
C706 C708 1.417 1_655 S
C706 C738 1.432 . S
C707 H693 0.930 . S
C707 C704 1.407 1_655 S
C707 C705 1.345 . S
C708 N703 1.360 . S
C708 C706 1.417 1_455 S
C708 C712 1.432 . S
H709 C714 0.930 . S
N710 Tb672 2.600 . S
N710 C712 1.359 . S
N710 C713 1.327 . S
C711 H697 0.931 . S
C711 C713 1.392 . S
C711 C714 1.370 . S
C712 C708 1.432 . S
C712 N710 1.359 . S
C712 C715 1.414 . S
C713 H695 0.930 . S
C713 N710 1.327 . S
C713 C711 1.392 . S
C714 H709 0.930 . S
C714 C711 1.370 . S
C714 C715 1.385 . S
C715 C712 1.414 . S
C715 C714 1.385 . S
C715 C737 1.444 1_455 S
O716 Tb672 2.546 . S
O716 C736 1.251 . S
O717 Tb672 2.610 . S
O717 Tb683 2.362 . S
O717 C728 1.283 . S
O718 Tb683 2.421 . S
O718 C735 1.262 . S
O719 Tb672 2.320 . S
O719 C735 1.260 . S
O720 Tb672 2.552 . S
O720 C728 1.243 . S
O721 Tb672 2.413 . S
O721 C736 1.256 . S
O722 Tb683 2.546 . S
O722 C747 1.251 1_565 S
O723 Tb672 2.362 . S
O723 Tb683 2.610 . S
O723 C739 1.283 . S
O724 Tb672 2.421 . S
O724 C746 1.262 . S
O725 Tb683 2.320 . S
O725 C746 1.260 . S
O726 Tb683 2.552 . S
O726 C739 1.243 . S
O727 Tb683 2.413 . S
O727 C747 1.256 1_565 S
C728 O717 1.283 . S
C728 O720 1.243 . S
C729 C731 1.382 . S
C729 C733 1.393 . S
C729 C736 1.500 . S
C730 C731 1.400 . S
C730 C732 1.384 . S
C731 C729 1.382 . S
C731 C730 1.400 . S
C731 H748 0.930 . S
C732 C730 1.384 . S
C732 C734 1.392 . S
C732 H749 0.931 . S
C733 C729 1.393 . S
C733 C734 1.401 . S
C733 H750 0.930 . S
C734 C732 1.392 . S
C734 C733 1.401 . S
C734 H751 0.930 . S
C735 O718 1.262 . S
C735 O719 1.260 . S
C736 Tb672 2.833 . S
C736 O716 1.251 . S
C736 O721 1.256 . S
C736 C729 1.500 . S
C737 H702 0.929 . S
C737 C715 1.444 1_655 S
C737 C738 1.317 . S
C738 H700 0.930 . S
C738 C706 1.432 . S
C738 C737 1.317 . S
C739 O723 1.283 . S
C739 O726 1.243 . S
C740 C741 1.382 . S
C740 C744 1.393 . S
C740 C747 1.500 . S
C741 C740 1.382 . S
C741 C742 1.400 . S
C741 H752 0.930 . S
C742 C741 1.400 . S
C742 C743 1.384 . S
C743 C742 1.384 . S
C743 C745 1.392 . S
C743 H753 0.931 . S
C744 C740 1.393 . S
C744 C745 1.401 . S
C744 H754 0.930 . S
C745 C743 1.392 . S
C745 C744 1.401 . S
C745 H755 0.930 . S
C746 O724 1.262 . S
C746 O725 1.260 . S
C747 Tb683 2.833 1_545 S
C747 O722 1.251 1_545 S
C747 O727 1.256 1_545 S
C747 C740 1.500 . S
H748 C731 0.930 . S
H749 C732 0.931 . S
H750 C733 0.930 . S
H751 C734 0.930 . S
H752 C741 0.930 . S
H753 C743 0.931 . S
H754 C744 0.930 . S
H755 C745 0.930 . S
Tb756 N787 2.660 . S
Tb756 N794 2.600 . S
Tb756 O800 2.546 . S
Tb756 O801 2.610 . S
Tb756 O803 2.320 . S
Tb756 O804 2.552 . S
Tb756 O805 2.413 . S
Tb756 O807 2.362 . S
Tb756 O808 2.421 . S
Tb756 C820 2.833 . S
C757 C760 1.432 . S
C757 C761 1.414 . S
C757 N764 1.359 . S
C758 C760 1.417 . S
C758 C762 1.432 . S
C758 C770 1.410 . S
C759 C761 1.444 . S
C759 C762 1.317 . S
C759 H782 0.929 . S
C760 C757 1.432 . S
C760 C758 1.417 . S
C760 N768 1.360 . S
C761 C757 1.414 . S
C761 C759 1.444 . S
C761 C766 1.385 . S
C762 C758 1.432 . S
C762 C759 1.317 . S
C762 H774 0.930 . S
C763 C765 1.392 . S
C763 C766 1.370 . S
C763 H775 0.931 . S
N764 C757 1.359 . S
N764 C765 1.327 . S
N764 Tb767 2.600 . S
C765 C763 1.392 . S
C765 N764 1.327 . S
C765 H772 0.930 . S
C766 C761 1.385 . S
C766 C763 1.370 . S
C766 H785 0.930 . S
Tb767 N764 2.600 . S
Tb767 N768 2.660 . S
Tb767 O801 2.362 . S
Tb767 O802 2.421 . S
Tb767 O806 2.546 . S
Tb767 O807 2.610 . S
Tb767 O809 2.320 . S
Tb767 O810 2.552 . S
Tb767 O811 2.413 . S
Tb767 C831 2.833 . S
N768 C760 1.360 . S
N768 Tb767 2.660 . S
N768 C769 1.305 . S
C769 N768 1.305 . S
C769 C771 1.407 . S
C769 H776 0.930 . S
C770 C758 1.410 . S
C770 C771 1.345 . S
C770 H778 0.930 . S
C771 C769 1.407 . S
C771 C770 1.345 . S
C771 H773 0.930 . S
H772 C765 0.930 . S
H773 C771 0.930 . S
H774 C762 0.930 . S
H775 C763 0.931 . S
H776 C769 0.930 . S
H777 C791 0.930 . S
H778 C770 0.930 . S
H779 C797 0.931 . S
H780 C788 0.930 . S
H781 C795 0.931 . S
H782 C759 0.929 . S
H783 C789 0.930 . S
H784 C822 0.930 . S
H785 C766 0.930 . S
H786 C821 0.929 . S
N787 Tb756 2.660 . S
N787 C788 1.305 . S
N787 C792 1.360 . S
C788 H780 0.930 . S
C788 N787 1.305 . S
C788 C791 1.407 1_545 S
C789 H783 0.930 . S
C789 C790 1.410 . S
C789 C791 1.345 . S
C790 C789 1.410 . S
C790 C792 1.417 1_565 S
C790 C822 1.432 . S
C791 H777 0.930 . S
C791 C788 1.407 1_565 S
C791 C789 1.345 . S
C792 N787 1.360 . S
C792 C790 1.417 1_545 S
C792 C796 1.432 . S
H793 C798 0.930 . S
N794 Tb756 2.600 . S
N794 C796 1.359 . S
N794 C797 1.327 . S
C795 H781 0.931 . S
C795 C797 1.392 1_554 S
C795 C798 1.370 . S
C796 C792 1.432 . S
C796 N794 1.359 . S
C796 C799 1.414 . S
C797 H779 0.931 . S
C797 N794 1.327 . S
C797 C795 1.392 1_556 S
C798 H793 0.930 . S
C798 C795 1.370 . S
C798 C799 1.385 1_554 S
C799 C796 1.414 . S
C799 C798 1.385 1_556 S
C799 C821 1.444 1_545 S
O800 Tb756 2.546 . S
O800 C820 1.251 . S
O801 Tb756 2.610 . S
O801 Tb767 2.362 . S
O801 C812 1.283 . S
O802 Tb767 2.421 . S
O802 C819 1.262 . S
O803 Tb756 2.320 . S
O803 C819 1.260 . S
O804 Tb756 2.552 . S
O804 C812 1.243 . S
O805 Tb756 2.413 . S
O805 C820 1.256 . S
O806 Tb767 2.546 . S
O806 C831 1.251 . S
O807 Tb756 2.362 . S
O807 Tb767 2.610 . S
O807 C823 1.283 . S
O808 Tb756 2.421 . S
O808 C830 1.262 . S
O809 Tb767 2.320 . S
O809 C830 1.260 . S
O810 Tb767 2.552 . S
O810 C823 1.243 . S
O811 Tb767 2.413 . S
O811 C831 1.256 . S
C812 O801 1.283 . S
C812 O804 1.243 . S
C813 C815 1.382 . S
C813 C817 1.393 . S
C813 C820 1.500 . S
C814 C815 1.400 . S
C814 C816 1.384 . S
C815 C813 1.382 . S
C815 C814 1.400 . S
C815 H832 0.930 . S
C816 C814 1.384 . S
C816 C818 1.392 . S
C816 H833 0.931 . S
C817 C813 1.393 . S
C817 C818 1.401 . S
C817 H834 0.930 . S
C818 C816 1.392 . S
C818 C817 1.401 . S
C818 H835 0.930 . S
C819 O802 1.262 . S
C819 O803 1.260 . S
C820 Tb756 2.833 . S
C820 O800 1.251 . S
C820 O805 1.256 . S
C820 C813 1.500 . S
C821 H786 0.929 . S
C821 C799 1.444 1_565 S
C821 C822 1.317 . S
C822 H784 0.930 . S
C822 C790 1.432 . S
C822 C821 1.317 . S
C823 O807 1.283 . S
C823 O810 1.243 . S
C824 C825 1.382 . S
C824 C828 1.393 . S
C824 C831 1.500 . S
C825 C824 1.382 . S
C825 C826 1.400 . S
C825 H836 0.930 . S
C826 C825 1.400 . S
C826 C827 1.384 . S
C827 C826 1.384 . S
C827 C829 1.392 . S
C827 H837 0.931 . S
C828 C824 1.393 . S
C828 C829 1.401 . S
C828 H838 0.930 . S
C829 C827 1.392 . S
C829 C828 1.401 . S
C829 H839 0.930 . S
C830 O808 1.262 . S
C830 O809 1.260 . S
C831 Tb767 2.833 . S
C831 O806 1.251 . S
C831 O811 1.256 . S
C831 C824 1.500 . S
H832 C815 0.930 . S
H833 C816 0.931 . S
H834 C817 0.930 . S
H835 C818 0.930 . S
H836 C825 0.930 . S
H837 C827 0.931 . S
H838 C828 0.930 . S
H839 C829 0.930 . S
Tb840 N871 2.660 . S
Tb840 N878 2.600 . S
Tb840 O884 2.546 . S
Tb840 O885 2.610 . S
Tb840 O887 2.320 . S
Tb840 O888 2.552 . S
Tb840 O889 2.413 . S
Tb840 O891 2.362 . S
Tb840 O892 2.421 . S
Tb840 C904 2.833 . S
C841 C844 1.432 . S
C841 C845 1.419 . S
C841 N848 1.359 . S
C842 C844 1.417 1_655 S
C842 C846 1.432 . S
C842 C854 1.410 . S
C843 C845 1.437 1_655 S
C843 C846 1.317 . S
C843 H866 0.929 . S
C844 C841 1.432 . S
C844 C842 1.417 1_455 S
C844 N852 1.360 . S
C845 C841 1.419 . S
C845 C843 1.437 1_455 S
C845 C850 1.387 . S
C846 C842 1.432 . S
C846 C843 1.317 . S
C846 H858 0.930 . S
C847 C849 1.392 . S
C847 C850 1.370 . S
C847 H859 0.931 . S
N848 C841 1.359 . S
N848 C849 1.327 . S
N848 Tb851 2.600 . S
C849 C847 1.392 . S
C849 N848 1.327 . S
C849 H856 0.930 . S
C850 C845 1.387 . S
C850 C847 1.370 . S
C850 H869 0.930 1_455 S
Tb851 N848 2.600 . S
Tb851 N852 2.660 . S
Tb851 O885 2.362 . S
Tb851 O886 2.421 . S
Tb851 O890 2.546 . S
Tb851 O891 2.610 . S
Tb851 O893 2.320 . S
Tb851 O894 2.552 . S
Tb851 O895 2.413 . S
Tb851 C915 2.833 1_455 S
N852 C844 1.360 . S
N852 Tb851 2.660 . S
N852 C853 1.305 . S
C853 N852 1.305 . S
C853 C855 1.407 . S
C853 H860 0.930 . S
C854 C842 1.410 . S
C854 C855 1.345 1_655 S
C854 H862 0.930 . S
C855 C853 1.407 . S
C855 C854 1.345 1_455 S
C855 H857 0.930 . S
H856 C849 0.930 . S
H857 C855 0.930 . S
H858 C846 0.930 . S
H859 C847 0.931 . S
H860 C853 0.930 . S
H861 C875 0.930 . S
H862 C854 0.930 . S
H863 C881 0.930 . S
H864 C872 0.930 . S
H865 C879 0.931 . S
H866 C843 0.929 . S
H867 C873 0.930 . S
H868 C906 0.930 . S
H869 C850 0.930 1_655 S
H870 C905 0.929 . S
N871 Tb840 2.660 . S
N871 C872 1.305 . S
N871 C876 1.360 . S
C872 H864 0.930 . S
C872 N871 1.305 . S
C872 C875 1.407 . S
C873 H867 0.930 . S
C873 C874 1.410 . S
C873 C875 1.345 . S
C874 C873 1.410 . S
C874 C876 1.417 . S
C874 C906 1.432 . S
C875 H861 0.930 . S
C875 C872 1.407 . S
C875 C873 1.345 . S
C876 N871 1.360 . S
C876 C874 1.417 . S
C876 C880 1.432 . S
H877 C882 0.930 . S
N878 Tb840 2.600 . S
N878 C880 1.359 . S
N878 C881 1.327 . S
C879 H865 0.931 . S
C879 C881 1.392 . S
C879 C882 1.370 . S
C880 C876 1.432 . S
C880 N878 1.359 . S
C880 C883 1.414 . S
C881 H863 0.930 . S
C881 N878 1.327 . S
C881 C879 1.392 . S
C882 H877 0.930 . S
C882 C879 1.370 . S
C882 C883 1.385 . S
C883 C880 1.414 . S
C883 C882 1.385 . S
C883 C905 1.444 . S
O884 Tb840 2.546 . S
O884 C904 1.251 . S
O885 Tb840 2.610 . S
O885 Tb851 2.362 . S
O885 C896 1.283 . S
O886 Tb851 2.421 . S
O886 C903 1.262 . S
O887 Tb840 2.320 . S
O887 C903 1.260 . S
O888 Tb840 2.552 . S
O888 C896 1.243 . S
O889 Tb840 2.413 . S
O889 C904 1.256 . S
O890 Tb851 2.546 . S
O890 C915 1.251 1_455 S
O891 Tb840 2.362 . S
O891 Tb851 2.610 . S
O891 C907 1.283 . S
O892 Tb840 2.421 . S
O892 C914 1.262 . S
O893 Tb851 2.320 . S
O893 C914 1.260 . S
O894 Tb851 2.552 . S
O894 C907 1.243 . S
O895 Tb851 2.413 . S
O895 C915 1.256 1_455 S
C896 O885 1.283 . S
C896 O888 1.243 . S
C897 C899 1.382 . S
C897 C901 1.393 . S
C897 C904 1.500 . S
C898 C899 1.400 . S
C898 C900 1.384 . S
C899 C897 1.382 . S
C899 C898 1.400 . S
C899 H916 0.930 . S
C900 C898 1.384 . S
C900 C902 1.392 . S
C900 H917 0.931 . S
C901 C897 1.393 . S
C901 C902 1.401 . S
C901 H918 0.930 . S
C902 C900 1.392 . S
C902 C901 1.401 . S
C902 H919 0.930 . S
C903 O886 1.262 . S
C903 O887 1.260 . S
C904 Tb840 2.833 . S
C904 O884 1.251 . S
C904 O889 1.256 . S
C904 C897 1.500 . S
C905 H870 0.929 . S
C905 C883 1.444 . S
C905 C906 1.317 . S
C906 H868 0.930 . S
C906 C874 1.432 . S
C906 C905 1.317 . S
C907 O891 1.283 . S
C907 O894 1.243 . S
C908 C909 1.382 . S
C908 C912 1.393 . S
C908 C915 1.500 . S
C909 C908 1.382 . S
C909 C910 1.400 . S
C909 H920 0.930 . S
C910 C909 1.400 . S
C910 C911 1.384 . S
C911 C910 1.384 . S
C911 C913 1.392 . S
C911 H921 0.931 . S
C912 C908 1.393 . S
C912 C913 1.401 . S
C912 H922 0.930 . S
C913 C911 1.392 . S
C913 C912 1.401 . S
C913 H923 0.930 . S
C914 O892 1.262 . S
C914 O893 1.260 . S
C915 Tb851 2.833 1_655 S
C915 O890 1.251 1_655 S
C915 O895 1.256 1_655 S
C915 C908 1.500 . S
H916 C899 0.930 . S
H917 C900 0.931 . S
H918 C901 0.930 . S
H919 C902 0.930 . S
H920 C909 0.930 . S
H921 C911 0.931 . S
H922 C912 0.930 . S
H923 C913 0.930 . S
Tb924 N955 2.660 . S
Tb924 N962 2.600 . S
Tb924 O968 2.546 . S
Tb924 O969 2.610 . S
Tb924 O971 2.320 . S
Tb924 O972 2.552 . S
Tb924 O973 2.413 . S
Tb924 O975 2.362 . S
Tb924 O976 2.421 . S
Tb924 C988 2.833 . S
C925 C928 1.432 . S
C925 C929 1.415 . S
C925 N932 1.359 . S
C926 C928 1.417 1_565 S
C926 C930 1.432 . S
C926 C938 1.410 . S
C927 C929 1.444 1_565 S
C927 C930 1.317 . S
C927 H950 0.929 . S
C928 C925 1.432 . S
C928 C926 1.417 1_545 S
C928 N936 1.360 . S
C929 C925 1.415 . S
C929 C927 1.444 1_545 S
C929 C934 1.384 . S
C930 C926 1.432 . S
C930 C927 1.317 . S
C930 H942 0.930 . S
C931 C933 1.392 . S
C931 C934 1.370 . S
C931 H943 0.931 . S
N932 C925 1.359 . S
N932 C933 1.327 . S
N932 Tb935 2.600 . S
C933 C931 1.392 . S
C933 N932 1.327 . S
C933 H940 0.930 . S
C934 C929 1.384 . S
C934 C931 1.370 . S
C934 H953 0.930 1_545 S
Tb935 N932 2.600 . S
Tb935 N936 2.660 . S
Tb935 O969 2.362 . S
Tb935 O970 2.421 . S
Tb935 O974 2.546 . S
Tb935 O975 2.610 . S
Tb935 O977 2.320 . S
Tb935 O978 2.552 . S
Tb935 O979 2.413 . S
Tb935 C999 2.833 1_545 S
N936 C928 1.360 . S
N936 Tb935 2.660 . S
N936 C937 1.305 . S
C937 N936 1.305 . S
C937 C939 1.407 . S
C937 H944 0.930 . S
C938 C926 1.410 . S
C938 C939 1.345 1_565 S
C938 H946 0.930 . S
C939 C937 1.407 . S
C939 C938 1.345 1_545 S
C939 H941 0.930 . S
H940 C933 0.930 . S
H941 C939 0.930 . S
H942 C930 0.930 . S
H943 C931 0.931 . S
H944 C937 0.930 . S
H945 C959 0.930 . S
H946 C938 0.930 . S
H947 C965 0.931 . S
H948 C956 0.930 . S
H949 C963 0.931 . S
H950 C927 0.929 . S
H951 C957 0.930 . S
H952 C990 0.930 . S
H953 C934 0.930 1_565 S
H954 C989 0.929 . S
N955 Tb924 2.660 . S
N955 C956 1.305 . S
N955 C960 1.360 . S
C956 H948 0.930 . S
C956 N955 1.305 . S
C956 C959 1.407 1_655 S
C957 H951 0.930 . S
C957 C958 1.410 . S
C957 C959 1.345 . S
C958 C957 1.410 . S
C958 C960 1.417 1_455 S
C958 C990 1.432 . S
C959 H945 0.930 . S
C959 C956 1.407 1_455 S
C959 C957 1.345 . S
C960 N955 1.360 . S
C960 C958 1.417 1_655 S
C960 C964 1.432 . S
H961 C966 0.930 . S
N962 Tb924 2.600 . S
N962 C964 1.359 . S
N962 C965 1.327 . S
C963 H949 0.931 . S
C963 C965 1.392 1_554 S
C963 C966 1.370 . S
C964 C960 1.432 . S
C964 N962 1.359 . S
C964 C967 1.414 . S
C965 H947 0.931 . S
C965 N962 1.327 . S
C965 C963 1.392 1_556 S
C966 H961 0.930 . S
C966 C963 1.370 . S
C966 C967 1.385 1_554 S
C967 C964 1.414 . S
C967 C966 1.385 1_556 S
C967 C989 1.444 1_655 S
O968 Tb924 2.546 . S
O968 C988 1.251 . S
O969 Tb924 2.610 . S
O969 Tb935 2.362 . S
O969 C980 1.283 . S
O970 Tb935 2.421 . S
O970 C987 1.262 . S
O971 Tb924 2.320 . S
O971 C987 1.260 . S
O972 Tb924 2.552 . S
O972 C980 1.243 . S
O973 Tb924 2.413 . S
O973 C988 1.256 . S
O974 Tb935 2.546 . S
O974 C999 1.251 1_545 S
O975 Tb924 2.362 . S
O975 Tb935 2.610 . S
O975 C991 1.283 . S
O976 Tb924 2.421 . S
O976 C998 1.262 . S
O977 Tb935 2.320 . S
O977 C998 1.260 . S
O978 Tb935 2.552 . S
O978 C991 1.243 . S
O979 Tb935 2.413 . S
O979 C999 1.256 1_545 S
C980 O969 1.283 . S
C980 O972 1.243 . S
C981 C983 1.382 . S
C981 C985 1.393 . S
C981 C988 1.500 . S
C982 C983 1.400 . S
C982 C984 1.384 . S
C983 C981 1.382 . S
C983 C982 1.400 . S
C983 H1000 0.930 . S
C984 C982 1.384 . S
C984 C986 1.392 . S
C984 H1001 0.931 . S
C985 C981 1.393 . S
C985 C986 1.401 . S
C985 H1002 0.930 . S
C986 C984 1.392 . S
C986 C985 1.401 . S
C986 H1003 0.930 . S
C987 O970 1.262 . S
C987 O971 1.260 . S
C988 Tb924 2.833 . S
C988 O968 1.251 . S
C988 O973 1.256 . S
C988 C981 1.500 . S
C989 H954 0.929 . S
C989 C967 1.444 1_455 S
C989 C990 1.317 . S
C990 H952 0.930 . S
C990 C958 1.432 . S
C990 C989 1.317 . S
C991 O975 1.283 . S
C991 O978 1.243 . S
C992 C993 1.382 . S
C992 C996 1.393 . S
C992 C999 1.500 . S
C993 C992 1.382 . S
C993 C994 1.400 . S
C993 H1004 0.930 . S
C994 C993 1.400 . S
C994 C995 1.384 . S
C995 C994 1.384 . S
C995 C997 1.392 . S
C995 H1005 0.931 . S
C996 C992 1.393 . S
C996 C997 1.401 . S
C996 H1006 0.930 . S
C997 C995 1.392 . S
C997 C996 1.401 . S
C997 H1007 0.930 . S
C998 O976 1.262 . S
C998 O977 1.260 . S
C999 Tb935 2.833 1_565 S
C999 O974 1.251 1_565 S
C999 O979 1.256 1_565 S
C999 C992 1.500 . S
H1000 C983 0.930 . S
H1001 C984 0.931 . S
H1002 C985 0.930 . S
H1003 C986 0.930 . S
H1004 C993 0.930 . S
H1005 C995 0.931 . S
H1006 C996 0.930 . S
H1007 C997 0.930 . S
C1008 C1009 1.369 . S
C1008 C1010 1.419 1_565 S
C1008 H1012 0.930 . S
C1009 C1008 1.369 . S
C1009 C1018 1.429 . S
C1010 C1008 1.419 1_545 S
C1010 C1011 1.363 . S
C1010 H1013 0.929 . S
C1011 C1010 1.363 . S
C1011 C1017 1.428 . S
H1012 C1008 0.930 . S
H1013 C1010 0.929 . S
S1014 N1015 1.613 . S
S1014 N1016 1.610 1_565 S
N1015 S1014 1.613 . S
N1015 C1018 1.350 . S
N1016 S1014 1.610 1_545 S
N1016 C1017 1.351 . S
C1017 C1011 1.428 . S
C1017 N1016 1.351 . S
C1017 C1018 1.434 1_545 S
C1018 C1009 1.429 . S
C1018 N1015 1.350 . S
C1018 C1017 1.434 1_565 S
C1019 C1020 1.369 . S
C1019 C1021 1.419 . S
C1019 H1023 0.930 . S
C1020 C1019 1.369 . S
C1020 C1029 1.429 . S
C1021 C1019 1.419 . S
C1021 C1022 1.363 . S
C1021 H1024 0.929 . S
C1022 C1021 1.363 . S
C1022 C1028 1.428 . S
H1023 C1019 0.930 . S
H1024 C1021 0.929 . S
S1025 N1026 1.613 . S
S1025 N1027 1.610 . S
N1026 S1025 1.613 . S
N1026 C1029 1.350 . S
N1027 S1025 1.610 . S
N1027 C1028 1.351 . S
C1028 C1022 1.428 . S
C1028 N1027 1.351 . S
C1028 C1029 1.434 . S
C1029 C1020 1.429 . S
C1029 N1026 1.350 . S
C1029 C1028 1.434 . S
C1030 C1031 1.369 . S
C1030 C1032 1.419 1_655 S
C1030 H1034 0.930 . S
C1031 C1030 1.369 . S
C1031 C1040 1.429 . S
C1032 C1030 1.419 1_455 S
C1032 C1033 1.363 . S
C1032 H1035 0.929 . S
C1033 C1032 1.363 . S
C1033 C1039 1.428 . S
H1034 C1030 0.930 . S
H1035 C1032 0.929 . S
S1036 N1037 1.613 . S
S1036 N1038 1.610 1_655 S
N1037 S1036 1.613 . S
N1037 C1040 1.350 . S
N1038 S1036 1.610 1_455 S
N1038 C1039 1.351 . S
C1039 C1033 1.428 . S
C1039 N1038 1.351 . S
C1039 C1040 1.434 1_455 S
C1040 C1031 1.429 . S
C1040 N1037 1.350 . S
C1040 C1039 1.434 1_655 S
C1041 C1042 1.369 . S
C1041 C1043 1.419 1_565 S
C1041 H1045 0.930 . S
C1042 C1041 1.369 . S
C1042 C1051 1.429 . S
C1043 C1041 1.419 1_545 S
C1043 C1044 1.363 . S
C1043 H1046 0.929 . S
C1044 C1043 1.363 . S
C1044 C1050 1.428 . S
H1045 C1041 0.930 . S
H1046 C1043 0.929 . S
S1047 N1048 1.613 1_545 S
S1047 N1049 1.610 . S
N1048 S1047 1.613 1_565 S
N1048 C1051 1.350 . S
N1049 S1047 1.610 . S
N1049 C1050 1.351 . S
C1050 C1044 1.428 . S
C1050 N1049 1.351 . S
C1050 C1051 1.434 1_545 S
C1051 C1042 1.429 . S
C1051 N1048 1.350 . S
C1051 C1050 1.434 1_565 S
C1052 C1053 1.369 . S
C1052 C1054 1.419 . S
C1052 H1056 0.930 . S
C1053 C1052 1.369 . S
C1053 C1062 1.429 . S
C1054 C1052 1.419 . S
C1054 C1055 1.363 . S
C1054 H1057 0.929 . S
C1055 C1054 1.363 . S
C1055 C1061 1.428 . S
H1056 C1052 0.930 . S
H1057 C1054 0.929 . S
S1058 N1059 1.613 . S
S1058 N1060 1.610 . S
N1059 S1058 1.613 . S
N1059 C1062 1.350 . S
N1060 S1058 1.610 . S
N1060 C1061 1.351 . S
C1061 C1055 1.428 . S
C1061 N1060 1.351 . S
C1061 C1062 1.434 . S
C1062 C1053 1.429 . S
C1062 N1059 1.350 . S
C1062 C1061 1.434 . S
C1063 C1064 1.369 . S
C1063 C1065 1.419 1_655 S
C1063 H1067 0.930 . S
C1064 C1063 1.369 . S
C1064 C1073 1.429 . S
C1065 C1063 1.419 1_455 S
C1065 C1066 1.363 . S
C1065 H1068 0.929 . S
C1066 C1065 1.363 . S
C1066 C1072 1.428 . S
H1067 C1063 0.930 . S
H1068 C1065 0.929 . S
S1069 N1070 1.613 . S
S1069 N1071 1.610 1_655 S
N1070 S1069 1.613 . S
N1070 C1073 1.350 . S
N1071 S1069 1.610 1_455 S
N1071 C1072 1.351 . S
C1072 C1066 1.428 . S
C1072 N1071 1.351 . S
C1072 C1073 1.434 1_455 S
C1073 C1064 1.429 . S
C1073 N1070 1.350 . S
C1073 C1072 1.434 1_655 S
C1074 C1075 1.369 . S
C1074 C1076 1.419 1_455 S
C1074 H1078 0.930 . S
C1075 C1074 1.369 . S
C1075 C1084 1.429 . S
C1076 C1074 1.419 1_655 S
C1076 C1077 1.363 . S
C1076 H1079 0.929 . S
C1077 C1076 1.363 . S
C1077 C1083 1.428 . S
H1078 C1074 0.930 . S
H1079 C1076 0.929 . S
S1080 N1081 1.613 . S
S1080 N1082 1.610 1_455 S
N1081 S1080 1.613 . S
N1081 C1084 1.350 . S
N1082 S1080 1.610 1_655 S
N1082 C1083 1.351 . S
C1083 C1077 1.428 . S
C1083 N1082 1.351 . S
C1083 C1084 1.434 1_655 S
C1084 C1075 1.429 . S
C1084 N1081 1.350 . S
C1084 C1083 1.434 1_455 S
C1085 C1086 1.369 . S
C1085 C1087 1.419 1_565 S
C1085 H1089 0.930 . S
C1086 C1085 1.369 . S
C1086 C1095 1.429 . S
C1087 C1085 1.419 1_545 S
C1087 C1088 1.363 . S
C1087 H1090 0.929 . S
C1088 C1087 1.363 . S
C1088 C1094 1.428 . S
H1089 C1085 0.930 . S
H1090 C1087 0.929 . S
S1091 N1092 1.613 1_545 S
S1091 N1093 1.610 . S
N1092 S1091 1.613 1_565 S
N1092 C1095 1.350 . S
N1093 S1091 1.610 . S
N1093 C1094 1.351 . S
C1094 C1088 1.428 . S
C1094 N1093 1.351 . S
C1094 C1095 1.434 1_545 S
C1095 C1086 1.429 . S
C1095 N1092 1.350 . S
C1095 C1094 1.434 1_565 S
C1096 C1097 1.369 . S
C1096 C1098 1.419 . S
C1096 H1100 0.930 . S
C1097 C1096 1.369 . S
C1097 C1106 1.429 . S
C1098 C1096 1.419 . S
C1098 C1099 1.363 . S
C1098 H1101 0.929 . S
C1099 C1098 1.363 . S
C1099 C1105 1.428 . S
H1100 C1096 0.930 . S
H1101 C1098 0.929 . S
S1102 N1103 1.613 . S
S1102 N1104 1.610 . S
N1103 S1102 1.613 . S
N1103 C1106 1.350 . S
N1104 S1102 1.610 . S
N1104 C1105 1.351 . S
C1105 C1099 1.428 . S
C1105 N1104 1.351 . S
C1105 C1106 1.434 . S
C1106 C1097 1.429 . S
C1106 N1103 1.350 . S
C1106 C1105 1.434 . S
C1107 C1108 1.369 . S
C1107 C1109 1.419 1_455 S
C1107 H1111 0.930 . S
C1108 C1107 1.369 . S
C1108 C1117 1.429 . S
C1109 C1107 1.419 1_655 S
C1109 C1110 1.363 . S
C1109 H1112 0.929 . S
C1110 C1109 1.363 . S
C1110 C1116 1.428 . S
H1111 C1107 0.930 . S
H1112 C1109 0.929 . S
S1113 N1114 1.613 1_655 S
S1113 N1115 1.610 . S
N1114 S1113 1.613 1_455 S
N1114 C1117 1.350 . S
N1115 S1113 1.610 . S
N1115 C1116 1.351 . S
C1116 C1110 1.428 . S
C1116 N1115 1.351 . S
C1116 C1117 1.434 1_655 S
C1117 C1108 1.429 . S
C1117 N1114 1.350 . S
C1117 C1116 1.434 1_455 S
C1118 C1119 1.369 . S
C1118 C1120 1.419 1_545 S
C1118 H1122 0.930 . S
C1119 C1118 1.369 . S
C1119 C1128 1.429 . S
C1120 C1118 1.419 1_565 S
C1120 C1121 1.363 . S
C1120 H1123 0.929 . S
C1121 C1120 1.363 . S
C1121 C1127 1.428 . S
H1122 C1118 0.930 . S
H1123 C1120 0.929 . S
S1124 N1125 1.613 1_565 S
S1124 N1126 1.610 . S
N1125 S1124 1.613 1_545 S
N1125 C1128 1.350 . S
N1126 S1124 1.610 . S
N1126 C1127 1.351 . S
C1127 C1121 1.428 . S
C1127 N1126 1.351 . S
C1127 C1128 1.434 1_565 S
C1128 C1119 1.429 . S
C1128 N1125 1.350 . S
C1128 C1127 1.434 1_545 S
C1129 C1130 1.369 . S
C1129 C1131 1.419 . S
C1129 H1133 0.930 . S
C1130 C1129 1.369 . S
C1130 C1139 1.429 . S
C1131 C1129 1.419 . S
C1131 C1132 1.363 . S
C1131 H1134 0.929 . S
C1132 C1131 1.363 . S
C1132 C1138 1.428 . S
H1133 C1129 0.930 . S
H1134 C1131 0.929 . S
S1135 N1136 1.613 . S
S1135 N1137 1.610 . S
N1136 S1135 1.613 . S
N1136 C1139 1.350 . S
N1137 S1135 1.610 . S
N1137 C1138 1.351 . S
C1138 C1132 1.428 . S
C1138 N1137 1.351 . S
C1138 C1139 1.434 . S
C1139 C1130 1.429 . S
C1139 N1136 1.350 . S
C1139 C1138 1.434 . S
C1140 C1141 1.369 . S
C1140 C1142 1.419 . S
C1140 H1144 0.930 . S
C1141 C1140 1.369 . S
C1141 C1150 1.429 . S
C1142 C1140 1.419 . S
C1142 C1143 1.363 . S
C1142 H1145 0.929 . S
C1143 C1142 1.363 . S
C1143 C1149 1.428 . S
H1144 C1140 0.930 . S
H1145 C1142 0.929 . S
S1146 N1147 1.613 . S
S1146 N1148 1.610 . S
N1147 S1146 1.613 . S
N1147 C1150 1.350 . S
N1148 S1146 1.610 . S
N1148 C1149 1.351 . S
C1149 C1143 1.428 . S
C1149 N1148 1.351 . S
C1149 C1150 1.434 . S
C1150 C1141 1.429 . S
C1150 N1147 1.350 . S
C1150 C1149 1.434 . S
C1151 C1152 1.369 . S
C1151 C1153 1.419 . S
C1151 H1155 0.930 . S
C1152 C1151 1.369 . S
C1152 C1161 1.429 . S
C1153 C1151 1.419 . S
C1153 C1154 1.363 . S
C1153 H1156 0.929 . S
C1154 C1153 1.363 . S
C1154 C1160 1.428 . S
H1155 C1151 0.930 . S
H1156 C1153 0.929 . S
S1157 N1158 1.613 . S
S1157 N1159 1.610 . S
N1158 S1157 1.613 . S
N1158 C1161 1.350 . S
N1159 S1157 1.610 . S
N1159 C1160 1.351 . S
C1160 C1154 1.428 . S
C1160 N1159 1.351 . S
C1160 C1161 1.434 . S
C1161 C1152 1.429 . S
C1161 N1158 1.350 . S
C1161 C1160 1.434 . S
C1162 C1163 1.369 . S
C1162 C1164 1.419 . S
C1162 H1166 0.930 . S
C1163 C1162 1.369 . S
C1163 C1172 1.429 . S
C1164 C1162 1.419 . S
C1164 C1165 1.363 . S
C1164 H1167 0.929 . S
C1165 C1164 1.363 . S
C1165 C1171 1.428 . S
H1166 C1162 0.930 . S
H1167 C1164 0.929 . S
S1168 N1169 1.613 . S
S1168 N1170 1.610 . S
N1169 S1168 1.613 . S
N1169 C1172 1.350 . S
N1170 S1168 1.610 . S
N1170 C1171 1.351 . S
C1171 C1165 1.428 . S
C1171 N1170 1.351 . S
C1171 C1172 1.434 . S
C1172 C1163 1.429 . S
C1172 N1169 1.350 . S
C1172 C1171 1.434 . S
C1173 C1174 1.369 . S
C1173 C1175 1.419 . S
C1173 H1177 0.930 . S
C1174 C1173 1.369 . S
C1174 C1183 1.429 . S
C1175 C1173 1.419 . S
C1175 C1176 1.363 . S
C1175 H1178 0.929 . S
C1176 C1175 1.363 . S
C1176 C1182 1.428 . S
H1177 C1173 0.930 . S
H1178 C1175 0.929 . S
S1179 N1180 1.613 . S
S1179 N1181 1.610 . S
N1180 S1179 1.613 . S
N1180 C1183 1.350 . S
N1181 S1179 1.610 . S
N1181 C1182 1.351 . S
C1182 C1176 1.428 . S
C1182 N1181 1.351 . S
C1182 C1183 1.434 . S
C1183 C1174 1.429 . S
C1183 N1180 1.350 . S
C1183 C1182 1.434 . S
C1184 C1185 1.369 . S
C1184 C1186 1.419 . S
C1184 H1188 0.930 . S
C1185 C1184 1.369 . S
C1185 C1194 1.429 . S
C1186 C1184 1.419 . S
C1186 C1187 1.363 . S
C1186 H1189 0.929 . S
C1187 C1186 1.363 . S
C1187 C1193 1.428 . S
H1188 C1184 0.930 . S
H1189 C1186 0.929 . S
S1190 N1191 1.613 . S
S1190 N1192 1.610 . S
N1191 S1190 1.613 . S
N1191 C1194 1.350 . S
N1192 S1190 1.610 . S
N1192 C1193 1.351 . S
C1193 C1187 1.428 . S
C1193 N1192 1.351 . S
C1193 C1194 1.434 . S
C1194 C1185 1.429 . S
C1194 N1191 1.350 . S
C1194 C1193 1.434 . S
C1195 C1196 1.369 . S
C1195 C1197 1.419 . S
C1195 H1199 0.930 . S
C1196 C1195 1.369 . S
C1196 C1205 1.429 . S
C1197 C1195 1.419 . S
C1197 C1198 1.363 . S
C1197 H1200 0.929 . S
C1198 C1197 1.363 . S
C1198 C1204 1.428 . S
H1199 C1195 0.930 . S
H1200 C1197 0.929 . S
S1201 N1202 1.613 . S
S1201 N1203 1.610 . S
N1202 S1201 1.613 . S
N1202 C1205 1.350 . S
N1203 S1201 1.610 . S
N1203 C1204 1.351 . S
C1204 C1198 1.428 . S
C1204 N1203 1.351 . S
C1204 C1205 1.434 . S
C1205 C1196 1.429 . S
C1205 N1202 1.350 . S
C1205 C1204 1.434 . S
C1206 C1207 1.369 . S
C1206 C1208 1.419 . S
C1206 H1210 0.930 . S
C1207 C1206 1.369 . S
C1207 C1216 1.429 . S
C1208 C1206 1.419 . S
C1208 C1209 1.363 . S
C1208 H1211 0.929 . S
C1209 C1208 1.363 . S
C1209 C1215 1.428 . S
H1210 C1206 0.930 . S
H1211 C1208 0.929 . S
S1212 N1213 1.613 . S
S1212 N1214 1.610 . S
N1213 S1212 1.613 . S
N1213 C1216 1.350 . S
N1214 S1212 1.610 . S
N1214 C1215 1.351 . S
C1215 C1209 1.428 . S
C1215 N1214 1.351 . S
C1215 C1216 1.434 . S
C1216 C1207 1.429 . S
C1216 N1213 1.350 . S
C1216 C1215 1.434 . S
C1217 C1218 1.369 . S
C1217 C1219 1.419 . S
C1217 H1221 0.930 . S
C1218 C1217 1.369 . S
C1218 C1227 1.429 . S
C1219 C1217 1.419 . S
C1219 C1220 1.363 . S
C1219 H1222 0.929 . S
C1220 C1219 1.363 . S
C1220 C1226 1.428 . S
H1221 C1217 0.930 . S
H1222 C1219 0.929 . S
S1223 N1224 1.613 . S
S1223 N1225 1.610 . S
N1224 S1223 1.613 . S
N1224 C1227 1.350 . S
N1225 S1223 1.610 . S
N1225 C1226 1.351 . S
C1226 C1220 1.428 . S
C1226 N1225 1.351 . S
C1226 C1227 1.434 . S
C1227 C1218 1.429 . S
C1227 N1224 1.350 . S
C1227 C1226 1.434 . S
C1228 C1229 1.369 . S
C1228 C1230 1.419 . S
C1228 H1232 0.930 . S
C1229 C1228 1.369 . S
C1229 C1238 1.429 . S
C1230 C1228 1.419 . S
C1230 C1231 1.363 . S
C1230 H1233 0.929 . S
C1231 C1230 1.363 . S
C1231 C1237 1.428 . S
H1232 C1228 0.930 . S
H1233 C1230 0.929 . S
S1234 N1235 1.613 . S
S1234 N1236 1.610 . S
N1235 S1234 1.613 . S
N1235 C1238 1.350 . S
N1236 S1234 1.610 . S
N1236 C1237 1.351 . S
C1237 C1231 1.428 . S
C1237 N1236 1.351 . S
C1237 C1238 1.434 . S
C1238 C1229 1.429 . S
C1238 N1235 1.350 . S
C1238 C1237 1.434 . S
C1239 C1240 1.369 . S
C1239 C1241 1.419 . S
C1239 H1243 0.930 . S
C1240 C1239 1.369 . S
C1240 C1249 1.429 . S
C1241 C1239 1.419 . S
C1241 C1242 1.363 . S
C1241 H1244 0.929 . S
C1242 C1241 1.363 . S
C1242 C1248 1.428 . S
H1243 C1239 0.930 . S
H1244 C1241 0.929 . S
S1245 N1246 1.613 . S
S1245 N1247 1.610 . S
N1246 S1245 1.613 . S
N1246 C1249 1.350 . S
N1247 S1245 1.610 . S
N1247 C1248 1.351 . S
C1248 C1242 1.428 . S
C1248 N1247 1.351 . S
C1248 C1249 1.434 . S
C1249 C1240 1.429 . S
C1249 N1246 1.350 . S
C1249 C1248 1.434 . S
C1250 C1251 1.369 . S
C1250 C1252 1.419 . S
C1250 H1254 0.930 . S
C1251 C1250 1.369 . S
C1251 C1260 1.429 . S
C1252 C1250 1.419 . S
C1252 C1253 1.363 . S
C1252 H1255 0.929 . S
C1253 C1252 1.363 . S
C1253 C1259 1.428 . S
H1254 C1250 0.930 . S
H1255 C1252 0.929 . S
S1256 N1257 1.613 . S
S1256 N1258 1.610 . S
N1257 S1256 1.613 . S
N1257 C1260 1.350 . S
N1258 S1256 1.610 . S
N1258 C1259 1.351 . S
C1259 C1253 1.428 . S
C1259 N1258 1.351 . S
C1259 C1260 1.434 . S
C1260 C1251 1.429 . S
C1260 N1257 1.350 . S
C1260 C1259 1.434 . S
C1261 C1262 1.369 . S
C1261 C1263 1.419 . S
C1261 H1265 0.930 . S
C1262 C1261 1.369 . S
C1262 C1271 1.429 . S
C1263 C1261 1.419 . S
C1263 C1264 1.363 . S
C1263 H1266 0.929 . S
C1264 C1263 1.363 . S
C1264 C1270 1.428 . S
H1265 C1261 0.930 . S
H1266 C1263 0.929 . S
S1267 N1268 1.613 . S
S1267 N1269 1.610 . S
N1268 S1267 1.613 . S
N1268 C1271 1.350 . S
N1269 S1267 1.610 . S
N1269 C1270 1.351 . S
C1270 C1264 1.428 . S
C1270 N1269 1.351 . S
C1270 C1271 1.434 . S
C1271 C1262 1.429 . S
C1271 N1268 1.350 . S
C1271 C1270 1.434 . S
C1272 C1273 1.369 . S
C1272 C1274 1.419 . S
C1272 H1276 0.930 . S
C1273 C1272 1.369 . S
C1273 C1282 1.429 . S
C1274 C1272 1.419 . S
C1274 C1275 1.363 . S
C1274 H1277 0.929 . S
C1275 C1274 1.363 . S
C1275 C1281 1.428 . S
H1276 C1272 0.930 . S
H1277 C1274 0.929 . S
S1278 N1279 1.613 . S
S1278 N1280 1.610 . S
N1279 S1278 1.613 . S
N1279 C1282 1.350 . S
N1280 S1278 1.610 . S
N1280 C1281 1.351 . S
C1281 C1275 1.428 . S
C1281 N1280 1.351 . S
C1281 C1282 1.434 . S
C1282 C1273 1.429 . S
C1282 N1279 1.350 . S
C1282 C1281 1.434 . S
C1283 C1284 1.369 . S
C1283 C1285 1.419 . S
C1283 H1287 0.930 . S
C1284 C1283 1.369 . S
C1284 C1293 1.429 . S
C1285 C1283 1.419 . S
C1285 C1286 1.363 . S
C1285 H1288 0.929 . S
C1286 C1285 1.363 . S
C1286 C1292 1.428 . S
H1287 C1283 0.930 . S
H1288 C1285 0.929 . S
S1289 N1290 1.613 . S
S1289 N1291 1.610 . S
N1290 S1289 1.613 . S
N1290 C1293 1.350 . S
N1291 S1289 1.610 . S
N1291 C1292 1.351 . S
C1292 C1286 1.428 . S
C1292 N1291 1.351 . S
C1292 C1293 1.434 . S
C1293 C1284 1.429 . S
C1293 N1290 1.350 . S
C1293 C1292 1.434 . S
C1294 C1295 1.369 . S
C1294 C1296 1.419 . S
C1294 H1298 0.930 . S
C1295 C1294 1.369 . S
C1295 C1304 1.429 . S
C1296 C1294 1.419 . S
C1296 C1297 1.363 . S
C1296 H1299 0.929 . S
C1297 C1296 1.363 . S
C1297 C1303 1.428 . S
H1298 C1294 0.930 . S
H1299 C1296 0.929 . S
S1300 N1301 1.613 . S
S1300 N1302 1.610 . S
N1301 S1300 1.613 . S
N1301 C1304 1.350 . S
N1302 S1300 1.610 . S
N1302 C1303 1.351 . S
C1303 C1297 1.428 . S
C1303 N1302 1.351 . S
C1303 C1304 1.434 . S
C1304 C1295 1.429 . S
C1304 N1301 1.350 . S
C1304 C1303 1.434 . S
C1305 C1306 1.369 . S
C1305 C1307 1.419 . S
C1305 H1309 0.930 . S
C1306 C1305 1.369 . S
C1306 C1315 1.429 . S
C1307 C1305 1.419 . S
C1307 C1308 1.363 . S
C1307 H1310 0.929 . S
C1308 C1307 1.363 . S
C1308 C1314 1.428 . S
H1309 C1305 0.930 . S
H1310 C1307 0.929 . S
S1311 N1312 1.613 . S
S1311 N1313 1.610 . S
N1312 S1311 1.613 . S
N1312 C1315 1.350 . S
N1313 S1311 1.610 . S
N1313 C1314 1.351 . S
C1314 C1308 1.428 . S
C1314 N1313 1.351 . S
C1314 C1315 1.434 . S
C1315 C1306 1.429 . S
C1315 N1312 1.350 . S
C1315 C1314 1.434 . S
C1316 C1317 1.369 . S
C1316 C1318 1.419 . S
C1316 H1320 0.930 . S
C1317 C1316 1.369 . S
C1317 C1326 1.429 . S
C1318 C1316 1.419 . S
C1318 C1319 1.363 . S
C1318 H1321 0.929 . S
C1319 C1318 1.363 . S
C1319 C1325 1.428 . S
H1320 C1316 0.930 . S
H1321 C1318 0.929 . S
S1322 N1323 1.613 . S
S1322 N1324 1.610 . S
N1323 S1322 1.613 . S
N1323 C1326 1.350 . S
N1324 S1322 1.610 . S
N1324 C1325 1.351 . S
C1325 C1319 1.428 . S
C1325 N1324 1.351 . S
C1325 C1326 1.434 . S
C1326 C1317 1.429 . S
C1326 N1323 1.350 . S
C1326 C1325 1.434 . S
C1327 C1328 1.369 . S
C1327 C1329 1.419 . S
C1327 H1331 0.930 . S
C1328 C1327 1.369 . S
C1328 C1337 1.429 . S
C1329 C1327 1.419 . S
C1329 C1330 1.363 . S
C1329 H1332 0.929 . S
C1330 C1329 1.363 . S
C1330 C1336 1.428 . S
H1331 C1327 0.930 . S
H1332 C1329 0.929 . S
S1333 N1334 1.613 . S
S1333 N1335 1.610 . S
N1334 S1333 1.613 . S
N1334 C1337 1.350 . S
N1335 S1333 1.610 . S
N1335 C1336 1.351 . S
C1336 C1330 1.428 . S
C1336 N1335 1.351 . S
C1336 C1337 1.434 . S
C1337 C1328 1.429 . S
C1337 N1334 1.350 . S
C1337 C1336 1.434 . S
C1338 C1339 1.369 1_554 S
C1338 C1340 1.419 . S
C1338 H1342 0.930 . S
C1339 C1338 1.369 1_556 S
C1339 C1348 1.429 . S
C1340 C1338 1.419 . S
C1340 C1341 1.363 . S
C1340 H1343 0.929 . S
C1341 C1340 1.363 . S
C1341 C1347 1.428 1_554 S
H1342 C1338 0.930 . S
H1343 C1340 0.929 . S
S1344 N1345 1.613 . S
S1344 N1346 1.610 . S
N1345 S1344 1.613 . S
N1345 C1348 1.350 . S
N1346 S1344 1.610 . S
N1346 C1347 1.351 . S
C1347 C1341 1.428 1_556 S
C1347 N1346 1.351 . S
C1347 C1348 1.434 . S
C1348 C1339 1.429 . S
C1348 N1345 1.350 . S
C1348 C1347 1.434 . S
C1349 C1350 1.369 . S
C1349 C1351 1.419 1_455 S
C1349 H1353 0.930 . S
C1350 C1349 1.369 . S
C1350 C1359 1.429 . S
C1351 C1349 1.419 1_655 S
C1351 C1352 1.363 . S
C1351 H1354 0.929 . S
C1352 C1351 1.363 . S
C1352 C1358 1.428 . S
H1353 C1349 0.930 . S
H1354 C1351 0.929 . S
S1355 N1356 1.613 . S
S1355 N1357 1.610 1_455 S
N1356 S1355 1.613 . S
N1356 C1359 1.350 . S
N1357 S1355 1.610 1_655 S
N1357 C1358 1.351 . S
C1358 C1352 1.428 . S
C1358 N1357 1.351 . S
C1358 C1359 1.434 1_655 S
C1359 C1350 1.429 . S
C1359 N1356 1.350 . S
C1359 C1358 1.434 1_455 S
C1360 C1361 1.369 . S
C1360 C1362 1.419 1_565 S
C1360 H1364 0.930 . S
C1361 C1360 1.369 . S
C1361 C1370 1.429 1_554 S
C1362 C1360 1.419 1_545 S
C1362 C1363 1.363 1_554 S
C1362 H1365 0.929 . S
C1363 C1362 1.363 1_556 S
C1363 C1369 1.428 . S
H1364 C1360 0.930 . S
H1365 C1362 0.929 . S
S1366 N1367 1.613 . S
S1366 N1368 1.610 1_565 S
N1367 S1366 1.613 . S
N1367 C1370 1.350 . S
N1368 S1366 1.610 1_545 S
N1368 C1369 1.351 . S
C1369 C1363 1.428 . S
C1369 N1368 1.351 . S
C1369 C1370 1.434 1_545 S
C1370 C1361 1.429 1_556 S
C1370 N1367 1.350 . S
C1370 C1369 1.434 1_565 S
C1371 C1372 1.369 . S
C1371 C1373 1.419 . S
C1371 H1375 0.930 . S
C1372 C1371 1.369 . S
C1372 C1381 1.429 . S
C1373 C1371 1.419 . S
C1373 C1374 1.363 . S
C1373 H1376 0.929 . S
C1374 C1373 1.363 . S
C1374 C1380 1.428 . S
H1375 C1371 0.930 . S
H1376 C1373 0.929 . S
S1377 N1378 1.613 . S
S1377 N1379 1.610 . S
N1378 S1377 1.613 . S
N1378 C1381 1.350 . S
N1379 S1377 1.610 . S
N1379 C1380 1.351 . S
C1380 C1374 1.428 . S
C1380 N1379 1.351 . S
C1380 C1381 1.434 . S
C1381 C1372 1.429 . S
C1381 N1378 1.350 . S
C1381 C1380 1.434 . S
C1382 C1383 1.369 . S
C1382 C1384 1.419 1_655 S
C1382 H1386 0.930 . S
C1383 C1382 1.369 . S
C1383 C1392 1.429 1_556 S
C1384 C1382 1.419 1_455 S
C1384 C1385 1.363 1_556 S
C1384 H1387 0.929 . S
C1385 C1384 1.363 1_554 S
C1385 C1391 1.428 . S
H1386 C1382 0.930 . S
H1387 C1384 0.929 . S
S1388 N1389 1.613 . S
S1388 N1390 1.610 1_655 S
N1389 S1388 1.613 . S
N1389 C1392 1.350 . S
N1390 S1388 1.610 1_455 S
N1390 C1391 1.351 . S
C1391 C1385 1.428 . S
C1391 N1390 1.351 . S
C1391 C1392 1.434 1_455 S
C1392 C1383 1.429 1_554 S
C1392 N1389 1.350 . S
C1392 C1391 1.434 1_655 S
C1393 C1394 1.369 . S
C1393 C1395 1.419 1_565 S
C1393 H1397 0.930 . S
C1394 C1393 1.369 . S
C1394 C1403 1.429 . S
C1395 C1393 1.419 1_545 S
C1395 C1396 1.363 . S
C1395 H1398 0.929 . S
C1396 C1395 1.363 . S
C1396 C1402 1.428 . S
H1397 C1393 0.930 . S
H1398 C1395 0.929 . S
S1399 N1400 1.613 1_545 S
S1399 N1401 1.610 . S
N1400 S1399 1.613 1_565 S
N1400 C1403 1.350 . S
N1401 S1399 1.610 . S
N1401 C1402 1.351 . S
C1402 C1396 1.428 . S
C1402 N1401 1.351 . S
C1402 C1403 1.434 1_545 S
C1403 C1394 1.429 . S
C1403 N1400 1.350 . S
C1403 C1402 1.434 1_565 S
C1009 C403 1.391 . S
C1011 C70 1.333 . S
C1020 C487 1.391 . S
C1022 C154 1.335 . S
C1031 C238 1.345 . S
C1033 C67 1.400 . S
C1042 C322 1.345 . S
C1044 C151 1.398 . S
C1053 C406 1.337 . S
C1055 C235 1.394 . S
C1064 C319 1.399 . S
C1066 C490 1.343 . S
C1075 C739 1.401 . S
C1077 C574 1.344 . S
C1086 C658 1.333 . S
C1088 C823 1.394 . S
C1097 C907 1.400 . S
C1099 C742 1.344 . S
C1108 C826 1.331 . S
C1110 C991 1.392 . S
C1119 C910 1.334 . S
C1121 C571 1.392 . S
C1130 C655 1.391 . S
C1132 C994 1.335 . S
C1141 C392 1.390 . S
C1143 C58 1.359 . S
C1152 C142 1.354 . S
C1154 C476 1.391 . S
C1163 C226 1.358 . S
C1165 C56 1.401 . S
C1174 C310 1.352 . S
C1176 C140 1.391 . S
C1185 C224 1.403 . S
C1187 C394 1.359 . S
C1196 C308 1.402 . S
C1198 C478 1.355 . S
C1207 C728 1.390 . S
C1209 C562 1.353 . S
C1218 C646 1.351 . S
C1220 C812 1.391 . S
C1229 C730 1.363 . S
C1231 C896 1.400 . S
C1240 C980 1.400 . S
C1242 C814 1.353 . S
C1251 C898 1.349 . S
C1253 C560 1.395 . S
C1262 C644 1.389 . S
C1264 C982 1.355 . S
C1273 C903 1.883 . S
C1275 C63 1.882 . S
C1284 C147 1.882 . S
C1286 C987 1.885 . S
C1295 C231 1.883 . S
C1297 C567 1.886 . S
C1306 C315 1.882 . S
C1308 C651 1.882 . S
C1317 C399 1.883 . S
C1319 C735 1.882 . S
C1328 C819 1.890 . S
C1330 C483 1.889 . S
C1339 C830 2.092 . S
C1341 C74 2.098 . S
C1350 C914 2.097 . S
C1352 C158 2.098 . S
C1361 C242 2.099 . S
C1363 C998 2.093 . S
C1372 C326 2.093 . S
C1374 C578 2.092 . S
C1383 C662 2.099 . S
C1385 C410 2.093 . S
C1394 C746 2.090 . S
C1396 C494 2.096 . S
