# Generated by pormake.
# Topology sml, (6)-cn, num edge types: 1
# Building blocks:
#     Node 0, Type 0, BuildingBlock: IZENUY_clean_sbu_0, # of connection points: 6
#     Node 1, Type 0, BuildingBlock: IZENUY_clean_sbu_0, # of connection points: 6
#     Node 2, Type 0, BuildingBlock: IZENUY_clean_sbu_0, # of connection points: 6
#     Node 3, Type 0, BuildingBlock: IZENUY_clean_sbu_0, # of connection points: 6
#     Node 4, Type 0, BuildingBlock: IZENUY_clean_sbu_0, # of connection points: 6
#     Node 5, Type 0, BuildingBlock: IZENUY_clean_sbu_0, # of connection points: 6
#     Edge 6, Type (0, 0), BuildingBlock: AJUNOK_clean_linker_0, # of connection points: 2
#     Edge 7, Type (0, 0), BuildingBlock: AJUNOK_clean_linker_0, # of connection points: 2
#     Edge 8, Type (0, 0), BuildingBlock: AJUNOK_clean_linker_0, # of connection points: 2
#     Edge 9, Type (0, 0), BuildingBlock: AJUNOK_clean_linker_0, # of connection points: 2
#     Edge 10, Type (0, 0), BuildingBlock: AJUNOK_clean_linker_0, # of connection points: 2
#     Edge 11, Type (0, 0), BuildingBlock: AJUNOK_clean_linker_0, # of connection points: 2
#     Edge 12, Type (0, 0), BuildingBlock: AJUNOK_clean_linker_0, # of connection points: 2
#     Edge 13, Type (0, 0), BuildingBlock: AJUNOK_clean_linker_0, # of connection points: 2
#     Edge 14, Type (0, 0), BuildingBlock: AJUNOK_clean_linker_0, # of connection points: 2
#     Edge 15, Type (0, 0), BuildingBlock: AJUNOK_clean_linker_0, # of connection points: 2
#     Edge 16, Type (0, 0), BuildingBlock: AJUNOK_clean_linker_0, # of connection points: 2
#     Edge 17, Type (0, 0), BuildingBlock: AJUNOK_clean_linker_0, # of connection points: 2
#     Edge 18, Type (0, 0), BuildingBlock: AJUNOK_clean_linker_0, # of connection points: 2
#     Edge 19, Type (0, 0), BuildingBlock: AJUNOK_clean_linker_0, # of connection points: 2
#     Edge 20, Type (0, 0), BuildingBlock: AJUNOK_clean_linker_0, # of connection points: 2
#     Edge 21, Type (0, 0), BuildingBlock: AJUNOK_clean_linker_0, # of connection points: 2
#     Edge 22, Type (0, 0), BuildingBlock: AJUNOK_clean_linker_0, # of connection points: 2
#     Edge 23, Type (0, 0), BuildingBlock: AJUNOK_clean_linker_0, # of connection points: 2
# Relax obj value: 0.327
# Max RMSD: 0.283
# Mean RMSD: 0.283
data_MOF--net-sml--node1-IZENUY_clean_sbu_0--edge1-AJUNOK_clean_linker_0
_symmetry_space_group_name_H-M    P1
_symmetry_Int_Tables_number       1
_symmetry_cell_setting            triclinic
loop_
_symmetry_equiv_pos_as_xyz
'x, y, z'
_cell_length_a     30.185704
_cell_length_b     30.099873
_cell_length_c     10.707766
_cell_angle_alpha  90.137834
_cell_angle_beta   89.91784
_cell_angle_gamma 120.07445
loop_
_atom_site_label
_atom_site_type_symbol
_atom_site_fract_x
_atom_site_fract_y
_atom_site_fract_z
_atom_type_partial_charge
Fe0 Fe 0.31164 0.48244 0.07177 0.0
Fe1 Fe 0.21573 0.38093 1.00582 0.0
O2 O 0.24983 0.44853 1.00688 0.0
Fe3 Fe 0.22269 0.48324 0.93881 0.0
O4 O 0.22233 0.51009 0.0882 0.0
O5 O 0.30371 0.53752 0.12596 0.0
O6 O 0.28871 0.45501 0.22269 0.0
C7 C 0.25918 0.40844 0.24873 0.0
C8 C 0.32958 0.54611 0.88488 0.0
O9 O 0.23805 0.3748 0.16302 0.0
C10 C 0.20629 0.41105 0.7625 0.0
O11 O 0.3309 0.4344 0.02978 0.0
O12 O 0.26526 0.37696 0.92361 0.0
O13 O 0.28541 0.5411 0.89756 0.0
O14 O 0.3363 0.51059 0.92193 0.0
C15 C 0.13747 0.39866 0.0525 0.0
O16 O 0.18817 0.37703 0.84803 0.0
O17 O 0.22361 0.45776 0.78803 0.0
C18 C 0.31209 0.39924 0.9474 0.0
O19 O 0.16385 0.37978 0.0881 0.0
O20 O 0.15465 0.43341 0.96938 0.0
C21 C 0.26345 0.54066 0.14313 0.0
Fe22 Fe 0.85235 0.30069 0.40593 0.0
Fe23 Fe 0.85625 0.20487 0.33068 0.0
O24 O 0.82377 0.23971 0.33343 0.0
Fe25 Fe 0.76268 0.21416 0.26408 0.0
O26 O 0.73523 0.21462 0.4121 0.0
O27 O 0.79021 0.29526 0.45325 0.0
O28 O 0.85144 0.27293 0.55436 0.0
C29 C 0.86768 0.24255 0.5759 0.0
C30 C 0.81217 0.32254 0.21116 0.0
O31 O 0.88479 0.22688 0.4879 0.0
C32 C 0.81488 0.1925 0.08758 0.0
O33 O 0.91991 0.31826 0.37179 0.0
O34 O 0.90909 0.2553 0.24993 0.0
O35 O 0.77164 0.27864 0.22069 0.0
O36 O 0.85296 0.32927 0.25928 0.0
C37 C 0.75934 0.12777 0.38016 0.0
O38 O 0.83294 0.17714 0.17365 0.0
O39 O 0.78786 0.21248 0.11288 0.0
C40 C 0.93641 0.30037 0.28761 0.0
O41 O 0.8055 0.15234 0.41079 0.0
O42 O 0.74193 0.14561 0.29821 0.0
C43 C 0.74655 0.25543 0.46904 0.0
Fe44 Fe 0.57127 0.75684 0.62269 0.0
Fe45 Fe 0.57256 0.84744 0.75565 0.0
O46 O 0.60614 0.81897 0.68864 0.0
Fe47 Fe 0.67377 0.85207 0.68846 0.0
O48 O 0.67584 0.8015 0.77094 0.0
O49 O 0.61937 0.73728 0.65963 0.0
O50 O 0.54315 0.73075 0.77172 0.0
C51 C 0.51275 0.74194 0.82423 0.0
C52 C 0.64467 0.80941 0.44522 0.0
O53 O 0.51643 0.78533 0.8052 0.0
C54 C 0.65652 0.93095 0.63566 0.0
O55 O 0.51551 0.76388 0.57515 0.0
O56 O 0.54401 0.84556 0.60725 0.0
O57 O 0.67848 0.82865 0.53092 0.0
O58 O 0.598 0.78093 0.47154 0.0
C59 C 0.64558 0.86497 0.93158 0.0
O60 O 0.62156 0.91473 0.71785 0.0
O61 O 0.67705 0.90516 0.60656 0.0
C62 C 0.51103 0.80346 0.56042 0.0
O63 O 0.59931 0.8491 0.90622 0.0
O64 O 0.67928 0.88075 0.84563 0.0
C65 C 0.65327 0.75473 0.74466 0.0
Fe66 Fe 0.83989 0.57103 0.94413 0.0
Fe67 Fe 0.75238 0.56683 0.09485 0.0
O68 O 0.81178 0.60312 0.01866 0.0
Fe69 Fe 0.84234 0.67081 0.01757 0.0
O70 O 0.8977 0.67656 0.09408 0.0
O71 O 0.9072 0.62207 0.97745 0.0
O72 O 0.84286 0.54353 0.08922 0.0
C73 C 0.80349 0.51007 0.1436 0.0
C74 C 0.85687 0.64486 0.77298 0.0
O75 O 0.76228 0.51179 0.13598 0.0
C76 C 0.74328 0.64553 0.97798 0.0
O77 O 0.77683 0.51267 0.90138 0.0
O78 O 0.72336 0.5388 0.94841 0.0
O79 O 0.86983 0.67784 0.85986 0.0
O80 O 0.83853 0.59782 0.79587 0.0
C81 C 0.80753 0.64188 0.26379 0.0
O82 O 0.73071 0.61383 0.06737 0.0
O83 O 0.78867 0.66926 0.94012 0.0
C84 C 0.73145 0.50582 0.899 0.0
O85 O 0.78093 0.59451 0.24211 0.0
O86 O 0.81994 0.67463 0.17648 0.0
C87 C 0.92346 0.65608 0.06322 0.0
Fe88 Fe 0.29517 0.83285 0.26796 0.0
Fe89 Fe 0.20928 0.74611 0.41649 0.0
O90 O 0.23471 0.80607 0.34119 0.0
Fe91 Fe 0.19961 0.83859 0.33933 0.0
O92 O 0.25022 0.89342 0.41643 0.0
O93 O 0.31357 0.90095 0.30022 0.0
O94 O 0.32499 0.83495 0.41415 0.0
C95 C 0.31684 0.79478 0.46914 0.0
C96 C 0.23957 0.85102 0.09529 0.0
O97 O 0.27305 0.75442 0.46065 0.0
C98 C 0.12293 0.74037 0.29816 0.0
O99 O 0.28856 0.76891 0.22612 0.0
O100 O 0.20833 0.71652 0.2704 0.0
O101 O 0.22117 0.86576 0.18201 0.0
O102 O 0.26769 0.83215 0.11858 0.0
C103 C 0.19093 0.80272 0.58497 0.0
O104 O 0.1411 0.726 0.38595 0.0
O105 O 0.14655 0.78595 0.26128 0.0
C106 C 0.2494 0.72378 0.22299 0.0
O107 O 0.21026 0.77489 0.56373 0.0
O108 O 0.17239 0.81673 0.49722 0.0
C109 C 0.29612 0.91881 0.38255 0.0
Fe110 Fe 0.48763 0.20296 0.74232 0.0
Fe111 Fe 0.38902 0.2037 0.67367 0.0
O112 O 0.45655 0.23294 0.6722 0.0
Fe113 Fe 0.49361 0.29292 0.59638 0.0
O114 O 0.52228 0.32276 0.74203 0.0
O115 O 0.54407 0.26528 0.79397 0.0
O116 O 0.45991 0.20109 0.89217 0.0
C117 C 0.41362 0.18561 0.91659 0.0
C118 C 0.55238 0.24394 0.55246 0.0
O119 O 0.38102 0.17611 0.83109 0.0
C120 C 0.41877 0.23762 0.42731 0.0
O121 O 0.43738 0.13631 0.70177 0.0
O122 O 0.38067 0.1469 0.59752 0.0
O123 O 0.54893 0.28414 0.5588 0.0
O124 O 0.51682 0.20299 0.59599 0.0
C125 C 0.41623 0.30363 0.71296 0.0
O126 O 0.38618 0.22642 0.51457 0.0
O127 O 0.46612 0.26362 0.44896 0.0
C128 C 0.40039 0.12005 0.62482 0.0
O129 O 0.39229 0.25836 0.75181 0.0
O130 O 0.44696 0.31506 0.62199 0.0
C131 C 0.54989 0.31024 0.80365 0.0
C132 C 0.41619 0.36646 0.86666 0.0
C133 C 0.39748 0.3379 0.75547 0.0
C134 C 0.3901 0.38862 0.92615 0.0
C135 C 0.34343 0.38132 0.87844 0.0
H136 H 0.44986 0.36962 0.91098 0.0
H137 H 0.40513 0.40919 0.0131 0.0
S138 S 0.27951 0.30998 0.58691 0.0
N139 N 0.33147 0.3052 0.59748 0.0
N140 N 0.28111 0.34426 0.70908 0.0
C141 C 0.32544 0.35377 0.76483 0.0
C142 C 0.35268 0.3326 0.70362 0.0
C143 C 0.06122 0.4034 0.13756 0.0
C144 C 0.08468 0.37464 0.10414 0.0
C145 C 1.01412 0.38043 0.20328 0.0
C146 C 0.98954 0.32824 0.238 0.0
H147 H 0.07974 0.44387 0.11502 0.0
H148 H 0.99639 0.40318 0.22439 0.0
S149 S 0.03548 0.23663 0.17325 0.0
N150 N 0.07858 0.29088 0.10841 0.0
N151 N 0.99343 0.24941 0.23725 0.0
C152 C 1.01338 0.29977 0.20652 0.0
C153 C 0.05989 0.32243 0.13793 0.0
C154 C 0.75611 0.05316 0.48513 0.0
C155 C 0.72886 0.07625 0.43845 0.0
C156 C 0.73226 1.00803 0.55396 0.0
C157 C 0.67957 0.98281 0.57945 0.0
H158 H 0.79687 0.07019 0.46885 0.0
H159 H 0.75558 0.99227 0.58609 0.0
S160 S 0.58958 0.02556 0.47757 0.0
N161 N 0.64566 0.07024 0.42288 0.0
N162 N 0.59997 0.98338 0.55108 0.0
C163 C 0.65121 1.00486 0.53386 0.0
C164 C 0.67594 0.05176 0.46298 0.0
C165 C 0.6613 0.67493 0.76447 0.0
C166 C 0.66956 0.72202 0.81321 0.0
C167 C 0.68192 0.64746 0.8239 0.0
C168 C 0.70996 0.66533 0.93586 0.0
H169 H 0.64115 0.66058 0.67686 0.0
H170 H 0.67801 0.61337 0.77901 0.0
S171 S 0.73954 0.78367 0.10769 0.0
N172 N 0.70652 0.7835 0.98487 0.0
N173 N 0.74293 0.73081 0.09594 0.0
C174 C 0.71606 0.71047 0.98881 0.0
C175 C 0.69635 0.73899 0.92786 0.0
C176 C 0.05572 0.67647 0.15323 0.0
C177 C 0.06913 0.70962 0.25701 0.0
C178 C 1.00819 0.65807 0.09198 0.0
C179 C 0.97317 0.67351 0.13023 0.0
H180 H 0.08303 0.66657 0.11584 0.0
H181 H 0.9997 0.63315 0.01168 0.0
S182 S 0.99107 0.75929 0.40108 0.0
N183 N 0.0436 0.75532 0.39867 0.0
N184 N 0.95608 0.72353 0.28341 0.0
C185 C 0.9864 0.70603 0.23632 0.0
C186 C 0.03386 0.72338 0.29952 0.0
C187 C 0.32451 0.04417 0.53318 0.0
C188 C 0.37645 0.06787 0.56744 0.0
C189 C 0.30026 0.99733 0.46964 0.0
C190 C 0.32658 0.97157 0.43551 0.0
H191 H 0.30193 0.06192 0.55606 0.0
H192 H 0.26001 0.98094 0.44767 0.0
S193 S 0.46352 1.01724 0.49956 0.0
N194 N 0.45408 0.06239 0.56025 0.0
N195 N 0.40804 0.97353 0.4399 0.0
C196 C 0.3788 0.99483 0.46735 0.0
C197 C 0.4037 0.04291 0.53396 0.0
C198 C 0.26944 0.43114 0.59455 0.0
C199 C 0.21901 0.39975 0.63717 0.0
C200 C 0.28316 0.42894 0.47117 0.0
C201 C 0.24681 0.39611 0.38322 0.0
H202 H 0.29846 0.45904 0.65662 0.0
H203 H 0.32203 0.45582 0.44248 0.0
S204 S 0.11042 0.30247 0.45073 0.0
N205 N 0.13351 0.33127 0.58614 0.0
N206 N 0.15867 0.3281 0.35077 0.0
C207 C 0.19687 0.36177 0.42649 0.0
C208 C 0.18306 0.36352 0.55421 0.0
C209 C 0.7902 0.1823 0.86418 0.0
C210 C 0.82734 0.19065 0.95443 0.0
C211 C 0.80361 0.19522 0.73908 0.0
C212 C 0.85474 0.21728 0.69908 0.0
H213 H 0.75094 0.16885 0.89186 0.0
H214 H 0.77413 0.19094 0.67433 0.0
S215 S 0.9656 0.24141 0.89396 0.0
N216 N 0.9168 0.21741 0.99234 0.0
N217 N 0.94187 0.2423 0.75565 0.0
C218 C 0.89165 0.22186 0.78532 0.0
C219 C 0.87793 0.20832 0.91361 0.0
C220 C 0.62432 0.78658 0.22195 0.0
C221 C 0.65728 0.82226 0.31094 0.0
C222 C 0.62328 0.80098 0.09865 0.0
C223 C 0.6558 0.85149 0.0572 0.0
H224 H 0.59665 0.74772 0.24957 0.0
H225 H 0.59539 0.77244 0.03567 0.0
S226 S 0.75332 0.95863 0.24783 0.0
N227 N 0.72632 0.90985 0.3462 0.0
N228 N 0.7251 0.93644 0.1114 0.0
C229 C 0.69191 0.8868 0.14161 0.0
C230 C 0.6926 0.87222 0.26912 0.0
C231 C 0.83453 0.68567 0.60027 0.0
C232 C 0.85986 0.65973 0.64123 0.0
C233 C 0.82109 0.68418 0.47372 0.0
C234 C 0.83267 0.6566 0.38636 0.0
H235 H 0.82094 0.70305 0.66762 0.0
H236 H 0.7981 0.70092 0.44637 0.0
S237 S 0.90627 0.59029 0.44402 0.0
N238 N 0.9023 0.6125 0.58217 0.0
N239 N 0.87608 0.6084 0.3464 0.0
C240 C 0.86184 0.63457 0.42503 0.0
C241 C 0.87589 0.63664 0.55215 0.0
C242 C 0.25238 0.85477 0.74767 0.0
C243 C 0.20108 0.82725 0.70829 0.0
C244 C 0.26482 0.86711 0.87328 0.0
C245 C 0.22638 0.8528 0.96377 0.0
H246 H 0.28308 0.8636 0.68196 0.0
H247 H 0.30464 0.88483 0.90094 0.0
S248 S 0.08638 0.78551 0.90599 0.0
N249 N 0.11175 0.79 0.76636 0.0
N250 N 0.13504 0.81415 1.004 0.0
C251 C 0.17504 0.82945 0.92406 0.0
C252 C 0.16234 0.81635 0.79549 0.0
C253 C 0.37868 0.22684 0.21585 0.0
C254 C 0.40336 0.21241 0.30446 0.0
C255 C 0.37675 0.21286 0.0894 0.0
C256 C 0.39974 0.18447 0.0491 0.0
H257 H 0.36444 0.25216 0.24237 0.0
H258 H 0.36139 0.22825 0.02162 0.0
S259 S 0.46154 0.13094 0.24952 0.0
N260 N 0.44537 0.16315 0.34653 0.0
N261 N 0.44187 0.13721 0.11024 0.0
C262 C 0.42033 0.16622 0.13918 0.0
C263 C 0.42216 0.18021 0.26674 0.0
C264 C 0.3051 0.63688 0.14656 0.0
C265 C 0.26637 0.58846 0.18874 0.0
C266 C 0.29972 0.68071 0.15711 0.0
C267 C 0.25512 0.67741 0.20854 0.0
H268 H 0.33841 0.64041 0.09904 0.0
H269 H 0.33006 0.71704 0.12204 0.0
S270 S 0.14539 0.55938 0.34538 0.0
N271 N 0.18479 0.54052 0.29382 0.0
N272 N 0.17343 0.62109 0.31239 0.0
C273 C 0.21735 0.62916 0.25635 0.0
C274 C 0.22341 0.58531 0.24715 0.0
C275 C 0.69373 0.298 0.4761 0.0
C276 C 0.70254 0.25868 0.51683 0.0
C277 C 0.64498 0.29299 0.48687 0.0
C278 C 0.60344 0.24836 0.53782 0.0
H279 H 0.72376 0.33135 0.42902 0.0
H280 H 0.63952 0.32371 0.4523 0.0
S281 S 0.60975 0.1378 0.67386 0.0
N282 N 0.66806 0.17664 0.62135 0.0
N283 N 0.57673 0.16644 0.64151 0.0
C284 C 0.61299 0.21012 0.58508 0.0
C285 C 0.66249 0.21563 0.5751 0.0
C286 C 0.37335 0.63996 0.82753 0.0
C287 C 0.37567 0.59821 0.87923 0.0
C288 C 0.41725 0.68907 0.82175 0.0
C289 C 0.46461 0.69784 0.86817 0.0
H290 H 0.33791 0.63432 0.78777 0.0
H291 H 0.41482 0.71938 0.77365 0.0
S292 S 0.48971 0.60477 0.03291 0.0
N293 N 0.4288 0.57157 0.99308 0.0
N294 N 0.51008 0.66339 0.98096 0.0
C295 C 0.46647 0.65771 0.92866 0.0
C296 C 0.42242 0.60796 0.934 0.0
C297 C 0.76216 0.36822 0.17196 0.0
C298 C 0.80947 0.36995 0.18663 0.0
C299 C 0.7594 0.41362 0.16625 0.0
C300 C 0.80377 0.46233 0.17699 0.0
H301 H 0.72699 0.33163 0.1658 0.0
H302 H 0.72257 0.41054 0.14954 0.0
S303 S 0.93697 0.48854 0.21968 0.0
N304 N 0.90192 0.42556 0.20965 0.0
N305 N 0.896 0.50931 0.20799 0.0
C306 C 0.85095 0.46438 0.19494 0.0
C307 C 0.85404 0.41876 0.19659 0.0
C308 C 0.40844 0.83979 0.52795 0.0
C309 C 0.36321 0.7929 0.50643 0.0
C310 C 0.45577 0.84256 0.53804 0.0
C311 C 0.46053 0.79839 0.52997 0.0
H312 H 0.4076 0.87532 0.53384 0.0
H313 H 0.48893 0.88009 0.55404 0.0
S314 S 0.35361 0.66544 0.47622 0.0
N315 N 0.32581 0.70076 0.47737 0.0
N316 N 0.41519 0.70566 0.49992 0.0
C317 C 0.41552 0.75083 0.50992 0.0
C318 C 0.36683 0.74809 0.49847 0.0
C319 C 0.68935 0.41277 0.82859 0.0
C320 C 0.68561 0.4536 0.88222 0.0
C321 C 0.64564 0.36365 0.8141 0.0
C322 C 0.59709 0.35369 0.85494 0.0
H323 H 0.72583 0.41916 0.79415 0.0
H324 H 0.64934 0.33437 0.76399 0.0
S325 S 0.56669 0.44402 0.01609 0.0
N326 N 0.62851 0.47802 0.98634 0.0
N327 N 0.54839 0.38619 0.96108 0.0
C328 C 0.59348 0.39284 0.9159 0.0
C329 C 0.6371 0.44265 0.92873 0.0
loop_
_geom_bond_atom_site_label_1
_geom_bond_atom_site_label_2
_geom_bond_distance
_geom_bond_site_symmetry_2
_ccdc_geom_bond_type
Fe0 O2 1.918 1_554 S
Fe0 O5 1.997 . S
Fe0 O6 2.002 . S
Fe0 O11 1.976 . S
Fe0 O14 1.996 1_554 S
Fe1 O2 1.918 . S
Fe1 O9 1.997 1_556 S
Fe1 O12 1.996 . S
Fe1 O16 1.976 . S
Fe1 O19 2.002 1_556 S
O2 Fe0 1.918 1_556 S
O2 Fe1 1.918 . S
O2 Fe3 1.918 . S
Fe3 O2 1.918 . S
Fe3 O4 2.002 1_556 S
Fe3 O13 1.976 . S
Fe3 O17 1.996 . S
Fe3 O20 1.997 . S
O4 Fe3 2.002 1_554 S
O4 C21 1.295 . S
O5 Fe0 1.997 . S
O5 C21 1.235 . S
O6 Fe0 2.002 . S
O6 C7 1.295 . S
C7 O6 1.295 . S
C7 O9 1.235 . S
C8 O13 1.287 . S
C8 O14 1.255 . S
O9 Fe1 1.997 1_554 S
O9 C7 1.235 . S
C10 O16 1.287 . S
C10 O17 1.255 . S
O11 Fe0 1.976 . S
O11 C18 1.287 . S
O12 Fe1 1.996 . S
O12 C18 1.255 1_556 S
O13 Fe3 1.976 . S
O13 C8 1.287 . S
O14 Fe0 1.996 1_556 S
O14 C8 1.255 . S
C15 O19 1.295 1_556 S
C15 O20 1.236 . S
O16 Fe1 1.976 . S
O16 C10 1.287 . S
O17 Fe3 1.996 . S
O17 C10 1.255 . S
C18 O11 1.287 . S
C18 O12 1.255 1_554 S
O19 Fe1 2.002 1_554 S
O19 C15 1.295 1_554 S
O20 Fe3 1.997 . S
O20 C15 1.236 . S
C21 O4 1.295 . S
C21 O5 1.235 . S
Fe22 O24 1.918 . S
Fe22 O27 1.997 . S
Fe22 O28 2.002 . S
Fe22 O33 1.976 . S
Fe22 O36 1.996 . S
Fe23 O24 1.918 . S
Fe23 O31 1.997 . S
Fe23 O34 1.996 . S
Fe23 O38 1.976 . S
Fe23 O41 2.002 . S
O24 Fe22 1.918 . S
O24 Fe23 1.918 . S
O24 Fe25 1.918 . S
Fe25 O24 1.918 . S
Fe25 O26 2.002 . S
Fe25 O35 1.976 . S
Fe25 O39 1.996 . S
Fe25 O42 1.997 . S
O26 Fe25 2.002 . S
O26 C43 1.295 . S
O27 Fe22 1.997 . S
O27 C43 1.235 . S
O28 Fe22 2.002 . S
O28 C29 1.295 . S
C29 O28 1.295 . S
C29 O31 1.235 . S
C30 O35 1.287 . S
C30 O36 1.255 . S
O31 Fe23 1.997 . S
O31 C29 1.235 . S
C32 O38 1.287 . S
C32 O39 1.255 . S
O33 Fe22 1.976 . S
O33 C40 1.287 . S
O34 Fe23 1.996 . S
O34 C40 1.255 . S
O35 Fe25 1.976 . S
O35 C30 1.287 . S
O36 Fe22 1.996 . S
O36 C30 1.255 . S
C37 O41 1.295 . S
C37 O42 1.235 . S
O38 Fe23 1.976 . S
O38 C32 1.287 . S
O39 Fe25 1.996 . S
O39 C32 1.255 . S
C40 O33 1.287 . S
C40 O34 1.255 . S
O41 Fe23 2.002 . S
O41 C37 1.295 . S
O42 Fe25 1.997 . S
O42 C37 1.235 . S
C43 O26 1.295 . S
C43 O27 1.235 . S
Fe44 O46 1.918 . S
Fe44 O49 1.997 . S
Fe44 O50 2.002 . S
Fe44 O55 1.976 . S
Fe44 O58 1.996 . S
Fe45 O46 1.918 . S
Fe45 O53 1.997 . S
Fe45 O56 1.996 . S
Fe45 O60 1.976 . S
Fe45 O63 2.002 . S
O46 Fe44 1.918 . S
O46 Fe45 1.918 . S
O46 Fe47 1.918 . S
Fe47 O46 1.918 . S
Fe47 O48 2.002 . S
Fe47 O57 1.976 . S
Fe47 O61 1.996 . S
Fe47 O64 1.997 . S
O48 Fe47 2.002 . S
O48 C65 1.295 . S
O49 Fe44 1.997 . S
O49 C65 1.235 . S
O50 Fe44 2.002 . S
O50 C51 1.295 . S
C51 O50 1.295 . S
C51 O53 1.235 . S
C52 O57 1.287 . S
C52 O58 1.255 . S
O53 Fe45 1.997 . S
O53 C51 1.235 . S
C54 O60 1.287 . S
C54 O61 1.255 . S
O55 Fe44 1.976 . S
O55 C62 1.287 . S
O56 Fe45 1.996 . S
O56 C62 1.255 . S
O57 Fe47 1.976 . S
O57 C52 1.287 . S
O58 Fe44 1.996 . S
O58 C52 1.255 . S
C59 O63 1.295 . S
C59 O64 1.235 . S
O60 Fe45 1.976 . S
O60 C54 1.287 . S
O61 Fe47 1.996 . S
O61 C54 1.255 . S
C62 O55 1.287 . S
C62 O56 1.255 . S
O63 Fe45 2.002 . S
O63 C59 1.295 . S
O64 Fe47 1.997 . S
O64 C59 1.235 . S
C65 O48 1.295 . S
C65 O49 1.235 . S
Fe66 O68 1.918 . S
Fe66 O71 1.997 . S
Fe66 O72 2.002 1_556 S
Fe66 O77 1.976 . S
Fe66 O80 1.996 . S
Fe67 O68 1.918 1_554 S
Fe67 O75 1.997 . S
Fe67 O78 1.996 1_554 S
Fe67 O82 1.976 . S
Fe67 O85 2.002 . S
O68 Fe66 1.918 . S
O68 Fe67 1.918 1_556 S
O68 Fe69 1.918 . S
Fe69 O68 1.918 . S
Fe69 O70 2.002 1_556 S
Fe69 O79 1.976 . S
Fe69 O83 1.996 . S
Fe69 O86 1.997 1_556 S
O70 Fe69 2.002 1_554 S
O70 C87 1.295 1_554 S
O71 Fe66 1.997 . S
O71 C87 1.236 . S
O72 Fe66 2.002 1_554 S
O72 C73 1.295 . S
C73 O72 1.295 . S
C73 O75 1.235 . S
C74 O79 1.287 . S
C74 O80 1.255 . S
O75 Fe67 1.997 . S
O75 C73 1.235 . S
C76 O82 1.287 . S
C76 O83 1.255 1_554 S
O77 Fe66 1.976 . S
O77 C84 1.287 . S
O78 Fe67 1.996 1_556 S
O78 C84 1.255 . S
O79 Fe69 1.976 . S
O79 C74 1.287 . S
O80 Fe66 1.996 . S
O80 C74 1.255 . S
C81 O85 1.295 . S
C81 O86 1.235 . S
O82 Fe67 1.976 . S
O82 C76 1.287 . S
O83 Fe69 1.996 . S
O83 C76 1.255 1_556 S
C84 O77 1.287 . S
C84 O78 1.255 . S
O85 Fe67 2.002 . S
O85 C81 1.295 . S
O86 Fe69 1.997 1_554 S
O86 C81 1.235 . S
C87 O70 1.295 1_556 S
C87 O71 1.236 . S
Fe88 O90 1.918 . S
Fe88 O93 1.997 . S
Fe88 O94 2.002 . S
Fe88 O99 1.976 . S
Fe88 O102 1.996 . S
Fe89 O90 1.918 . S
Fe89 O97 1.997 . S
Fe89 O100 1.996 . S
Fe89 O104 1.976 . S
Fe89 O107 2.002 . S
O90 Fe88 1.918 . S
O90 Fe89 1.918 . S
O90 Fe91 1.918 . S
Fe91 O90 1.918 . S
Fe91 O92 2.002 . S
Fe91 O101 1.976 . S
Fe91 O105 1.996 . S
Fe91 O108 1.997 . S
O92 Fe91 2.002 . S
O92 C109 1.295 . S
O93 Fe88 1.997 . S
O93 C109 1.235 . S
O94 Fe88 2.002 . S
O94 C95 1.295 . S
C95 O94 1.295 . S
C95 O97 1.235 . S
C96 O101 1.287 . S
C96 O102 1.255 . S
O97 Fe89 1.997 . S
O97 C95 1.235 . S
C98 O104 1.287 . S
C98 O105 1.255 . S
O99 Fe88 1.976 . S
O99 C106 1.287 . S
O100 Fe89 1.996 . S
O100 C106 1.255 . S
O101 Fe91 1.976 . S
O101 C96 1.287 . S
O102 Fe88 1.996 . S
O102 C96 1.255 . S
C103 O107 1.295 . S
C103 O108 1.235 . S
O104 Fe89 1.976 . S
O104 C98 1.287 . S
O105 Fe91 1.996 . S
O105 C98 1.255 . S
C106 O99 1.287 . S
C106 O100 1.255 . S
O107 Fe89 2.002 . S
O107 C103 1.295 . S
O108 Fe91 1.997 . S
O108 C103 1.235 . S
C109 O92 1.295 . S
C109 O93 1.235 . S
Fe110 O112 1.918 . S
Fe110 O115 1.997 . S
Fe110 O116 2.002 . S
Fe110 O121 1.976 . S
Fe110 O124 1.996 . S
Fe111 O112 1.918 . S
Fe111 O119 1.997 . S
Fe111 O122 1.996 . S
Fe111 O126 1.976 . S
Fe111 O129 2.002 . S
O112 Fe110 1.918 . S
O112 Fe111 1.918 . S
O112 Fe113 1.918 . S
Fe113 O112 1.918 . S
Fe113 O114 2.002 . S
Fe113 O123 1.976 . S
Fe113 O127 1.996 . S
Fe113 O130 1.997 . S
O114 Fe113 2.002 . S
O114 C131 1.295 . S
O115 Fe110 1.997 . S
O115 C131 1.235 . S
O116 Fe110 2.002 . S
O116 C117 1.295 . S
C117 O116 1.295 . S
C117 O119 1.235 . S
C118 O123 1.287 . S
C118 O124 1.255 . S
O119 Fe111 1.997 . S
O119 C117 1.235 . S
C120 O126 1.287 . S
C120 O127 1.255 . S
O121 Fe110 1.976 . S
O121 C128 1.287 . S
O122 Fe111 1.996 . S
O122 C128 1.255 . S
O123 Fe113 1.976 . S
O123 C118 1.287 . S
O124 Fe110 1.996 . S
O124 C118 1.255 . S
C125 O129 1.295 . S
C125 O130 1.235 . S
O126 Fe111 1.976 . S
O126 C120 1.287 . S
O127 Fe113 1.996 . S
O127 C120 1.255 . S
C128 O121 1.287 . S
C128 O122 1.255 . S
O129 Fe111 2.002 . S
O129 C125 1.295 . S
O130 Fe113 1.997 . S
O130 C125 1.235 . S
C131 O114 1.295 . S
C131 O115 1.235 . S
C132 C133 1.369 . S
C132 C134 1.419 . S
C132 H136 0.930 . S
C133 C132 1.369 . S
C133 C142 1.429 . S
C134 C132 1.419 . S
C134 C135 1.363 . S
C134 H137 0.929 1_556 S
C135 C134 1.363 . S
C135 C141 1.428 . S
H136 C132 0.930 . S
H137 C134 0.929 1_554 S
S138 N139 1.613 . S
S138 N140 1.610 . S
N139 S138 1.613 . S
N139 C142 1.350 . S
N140 S138 1.610 . S
N140 C141 1.351 . S
C141 C135 1.428 . S
C141 N140 1.351 . S
C141 C142 1.434 . S
C142 C133 1.429 . S
C142 N139 1.350 . S
C142 C141 1.434 . S
C143 C144 1.369 . S
C143 C145 1.419 1_455 S
C143 H147 0.930 . S
C144 C143 1.369 . S
C144 C153 1.429 . S
C145 C143 1.419 1_655 S
C145 C146 1.363 . S
C145 H148 0.929 . S
C146 C145 1.363 . S
C146 C152 1.428 1_655 S
H147 C143 0.930 . S
H148 C145 0.929 . S
S149 N150 1.613 . S
S149 N151 1.610 . S
N150 S149 1.613 . S
N150 C153 1.350 . S
N151 S149 1.610 . S
N151 C152 1.351 . S
C152 C146 1.428 1_455 S
C152 N151 1.351 . S
C152 C153 1.434 . S
C153 C144 1.429 . S
C153 N150 1.350 . S
C153 C152 1.434 . S
C154 C155 1.369 . S
C154 C156 1.419 1_545 S
C154 H158 0.930 . S
C155 C154 1.369 . S
C155 C164 1.429 . S
C156 C154 1.419 1_565 S
C156 C157 1.363 . S
C156 H159 0.929 . S
C157 C156 1.363 . S
C157 C163 1.428 . S
H158 C154 0.930 . S
H159 C156 0.929 . S
S160 N161 1.613 . S
S160 N162 1.610 1_545 S
N161 S160 1.613 . S
N161 C164 1.350 . S
N162 S160 1.610 1_565 S
N162 C163 1.351 . S
C163 C157 1.428 . S
C163 N162 1.351 . S
C163 C164 1.434 1_565 S
C164 C155 1.429 . S
C164 N161 1.350 . S
C164 C163 1.434 1_545 S
C165 C166 1.369 . S
C165 C167 1.419 . S
C165 H169 0.930 . S
C166 C165 1.369 . S
C166 C175 1.429 . S
C167 C165 1.419 . S
C167 C168 1.363 . S
C167 H170 0.929 . S
C168 C167 1.363 . S
C168 C174 1.428 . S
H169 C165 0.930 . S
H170 C167 0.929 . S
S171 N172 1.613 . S
S171 N173 1.610 1_556 S
N172 S171 1.613 . S
N172 C175 1.350 . S
N173 S171 1.610 1_554 S
N173 C174 1.351 1_554 S
C174 C168 1.428 . S
C174 N173 1.351 1_556 S
C174 C175 1.434 . S
C175 C166 1.429 . S
C175 N172 1.350 . S
C175 C174 1.434 . S
C176 C177 1.369 . S
C176 C178 1.430 . S
C176 H180 0.930 . S
C177 C176 1.369 . S
C177 C186 1.429 1_455 S
C178 C176 1.430 . S
C178 C179 1.347 1_455 S
C178 H181 0.935 1_554 S
C179 C178 1.347 1_655 S
C179 C185 1.428 . S
H180 C176 0.930 . S
H181 C178 0.935 1_556 S
S182 N183 1.613 . S
S182 N184 1.610 . S
N183 S182 1.613 . S
N183 C186 1.350 . S
N184 S182 1.610 . S
N184 C185 1.351 . S
C185 C179 1.428 . S
C185 N184 1.351 . S
C185 C186 1.434 . S
C186 C177 1.429 1_655 S
C186 N183 1.350 . S
C186 C185 1.434 . S
C187 C188 1.369 1_565 S
C187 C189 1.419 . S
C187 H191 0.930 . S
C188 C187 1.369 1_545 S
C188 C197 1.429 . S
C189 C187 1.419 . S
C189 C190 1.363 . S
C189 H192 0.929 . S
C190 C189 1.363 . S
C190 C196 1.428 1_565 S
H191 C187 0.930 . S
H192 C189 0.929 . S
S193 N194 1.613 . S
S193 N195 1.610 . S
N194 S193 1.613 . S
N194 C197 1.350 . S
N195 S193 1.610 . S
N195 C196 1.351 . S
C196 C190 1.428 1_545 S
C196 N195 1.351 . S
C196 C197 1.434 . S
C197 C188 1.429 . S
C197 N194 1.350 . S
C197 C196 1.434 . S
C198 C199 1.369 . S
C198 C200 1.419 . S
C198 H202 0.930 . S
C199 C198 1.369 . S
C199 C208 1.429 . S
C200 C198 1.419 . S
C200 C201 1.363 . S
C200 H203 0.929 . S
C201 C200 1.363 . S
C201 C207 1.428 . S
H202 C198 0.930 . S
H203 C200 0.929 . S
S204 N205 1.613 . S
S204 N206 1.610 . S
N205 S204 1.613 . S
N205 C208 1.350 . S
N206 S204 1.610 . S
N206 C207 1.351 . S
C207 C201 1.428 . S
C207 N206 1.351 . S
C207 C208 1.434 . S
C208 C199 1.429 . S
C208 N205 1.350 . S
C208 C207 1.434 . S
C209 C210 1.369 . S
C209 C211 1.419 . S
C209 H213 0.930 . S
C210 C209 1.369 . S
C210 C219 1.429 . S
C211 C209 1.419 . S
C211 C212 1.363 . S
C211 H214 0.929 . S
C212 C211 1.363 . S
C212 C218 1.428 . S
H213 C209 0.930 . S
H214 C211 0.929 . S
S215 N216 1.613 . S
S215 N217 1.610 . S
N216 S215 1.613 . S
N216 C219 1.350 . S
N217 S215 1.610 . S
N217 C218 1.351 . S
C218 C212 1.428 . S
C218 N217 1.351 . S
C218 C219 1.434 . S
C219 C210 1.429 . S
C219 N216 1.350 . S
C219 C218 1.434 . S
C220 C221 1.369 . S
C220 C222 1.419 . S
C220 H224 0.930 . S
C221 C220 1.369 . S
C221 C230 1.429 . S
C222 C220 1.419 . S
C222 C223 1.363 . S
C222 H225 0.929 . S
C223 C222 1.363 . S
C223 C229 1.428 . S
H224 C220 0.930 . S
H225 C222 0.929 . S
S226 N227 1.613 . S
S226 N228 1.610 . S
N227 S226 1.613 . S
N227 C230 1.350 . S
N228 S226 1.610 . S
N228 C229 1.351 . S
C229 C223 1.428 . S
C229 N228 1.351 . S
C229 C230 1.434 . S
C230 C221 1.429 . S
C230 N227 1.350 . S
C230 C229 1.434 . S
C231 C232 1.369 . S
C231 C233 1.419 . S
C231 H235 0.930 . S
C232 C231 1.369 . S
C232 C241 1.429 . S
C233 C231 1.419 . S
C233 C234 1.363 . S
C233 H236 0.929 . S
C234 C233 1.363 . S
C234 C240 1.428 . S
H235 C231 0.930 . S
H236 C233 0.929 . S
S237 N238 1.613 . S
S237 N239 1.610 . S
N238 S237 1.613 . S
N238 C241 1.350 . S
N239 S237 1.610 . S
N239 C240 1.351 . S
C240 C234 1.428 . S
C240 N239 1.351 . S
C240 C241 1.434 . S
C241 C232 1.429 . S
C241 N238 1.350 . S
C241 C240 1.434 . S
C242 C243 1.369 . S
C242 C244 1.419 . S
C242 H246 0.930 . S
C243 C242 1.369 . S
C243 C252 1.429 . S
C244 C242 1.419 . S
C244 C245 1.363 . S
C244 H247 0.929 . S
C245 C244 1.363 . S
C245 C251 1.428 . S
H246 C242 0.930 . S
H247 C244 0.929 . S
S248 N249 1.613 . S
S248 N250 1.610 . S
N249 S248 1.613 . S
N249 C252 1.350 . S
N250 S248 1.610 . S
N250 C251 1.351 . S
C251 C245 1.428 . S
C251 N250 1.351 . S
C251 C252 1.434 . S
C252 C243 1.429 . S
C252 N249 1.350 . S
C252 C251 1.434 . S
C253 C254 1.369 . S
C253 C255 1.419 . S
C253 H257 0.930 . S
C254 C253 1.369 . S
C254 C263 1.429 . S
C255 C253 1.419 . S
C255 C256 1.363 . S
C255 H258 0.929 . S
C256 C255 1.363 . S
C256 C262 1.428 . S
H257 C253 0.930 . S
H258 C255 0.929 . S
S259 N260 1.613 . S
S259 N261 1.610 . S
N260 S259 1.613 . S
N260 C263 1.350 . S
N261 S259 1.610 . S
N261 C262 1.351 . S
C262 C256 1.428 . S
C262 N261 1.351 . S
C262 C263 1.434 . S
C263 C254 1.429 . S
C263 N260 1.350 . S
C263 C262 1.434 . S
C264 C265 1.369 . S
C264 C266 1.419 . S
C264 H268 0.930 . S
C265 C264 1.369 . S
C265 C274 1.429 . S
C266 C264 1.419 . S
C266 C267 1.363 . S
C266 H269 0.929 . S
C267 C266 1.363 . S
C267 C273 1.428 . S
H268 C264 0.930 . S
H269 C266 0.929 . S
S270 N271 1.613 . S
S270 N272 1.610 . S
N271 S270 1.613 . S
N271 C274 1.350 . S
N272 S270 1.610 . S
N272 C273 1.351 . S
C273 C267 1.428 . S
C273 N272 1.351 . S
C273 C274 1.434 . S
C274 C265 1.429 . S
C274 N271 1.350 . S
C274 C273 1.434 . S
C275 C276 1.369 . S
C275 C277 1.419 . S
C275 H279 0.930 . S
C276 C275 1.369 . S
C276 C285 1.429 . S
C277 C275 1.419 . S
C277 C278 1.363 . S
C277 H280 0.929 . S
C278 C277 1.363 . S
C278 C284 1.428 . S
H279 C275 0.930 . S
H280 C277 0.929 . S
S281 N282 1.613 . S
S281 N283 1.610 . S
N282 S281 1.613 . S
N282 C285 1.350 . S
N283 S281 1.610 . S
N283 C284 1.351 . S
C284 C278 1.428 . S
C284 N283 1.351 . S
C284 C285 1.434 . S
C285 C276 1.429 . S
C285 N282 1.350 . S
C285 C284 1.434 . S
C286 C287 1.369 . S
C286 C288 1.419 . S
C286 H290 0.930 . S
C287 C286 1.369 . S
C287 C296 1.429 . S
C288 C286 1.419 . S
C288 C289 1.363 . S
C288 H291 0.929 . S
C289 C288 1.363 . S
C289 C295 1.428 . S
H290 C286 0.930 . S
H291 C288 0.929 . S
S292 N293 1.613 . S
S292 N294 1.610 . S
N293 S292 1.613 . S
N293 C296 1.350 1_554 S
N294 S292 1.610 . S
N294 C295 1.351 1_554 S
C295 C289 1.428 . S
C295 N294 1.351 1_556 S
C295 C296 1.434 . S
C296 C287 1.429 . S
C296 N293 1.350 1_556 S
C296 C295 1.434 . S
C297 C298 1.369 . S
C297 C299 1.419 . S
C297 H301 0.930 . S
C298 C297 1.369 . S
C298 C307 1.429 . S
C299 C297 1.419 . S
C299 C300 1.363 . S
C299 H302 0.929 . S
C300 C299 1.363 . S
C300 C306 1.428 . S
H301 C297 0.930 . S
H302 C299 0.929 . S
S303 N304 1.613 . S
S303 N305 1.610 . S
N304 S303 1.613 . S
N304 C307 1.350 . S
N305 S303 1.610 . S
N305 C306 1.351 . S
C306 C300 1.428 . S
C306 N305 1.351 . S
C306 C307 1.434 . S
C307 C298 1.429 . S
C307 N304 1.350 . S
C307 C306 1.434 . S
C308 C309 1.369 . S
C308 C310 1.419 . S
C308 H312 0.930 . S
C309 C308 1.369 . S
C309 C318 1.429 . S
C310 C308 1.419 . S
C310 C311 1.363 . S
C310 H313 0.929 . S
C311 C310 1.363 . S
C311 C317 1.428 . S
H312 C308 0.930 . S
H313 C310 0.929 . S
S314 N315 1.613 . S
S314 N316 1.610 . S
N315 S314 1.613 . S
N315 C318 1.350 . S
N316 S314 1.610 . S
N316 C317 1.351 . S
C317 C311 1.428 . S
C317 N316 1.351 . S
C317 C318 1.434 . S
C318 C309 1.429 . S
C318 N315 1.350 . S
C318 C317 1.434 . S
C319 C320 1.369 . S
C319 C321 1.419 . S
C319 H323 0.930 . S
C320 C319 1.369 . S
C320 C329 1.429 . S
C321 C319 1.419 . S
C321 C322 1.363 . S
C321 H324 0.929 . S
C322 C321 1.363 . S
C322 C328 1.428 . S
H323 C319 0.930 . S
H324 C321 0.929 . S
S325 N326 1.613 . S
S325 N327 1.610 . S
N326 S325 1.613 . S
N326 C329 1.350 . S
N327 S325 1.610 . S
N327 C328 1.351 . S
C328 C322 1.428 . S
C328 N327 1.351 . S
C328 C329 1.434 . S
C329 C320 1.429 . S
C329 N326 1.350 . S
C329 C328 1.434 . S
C133 C125 1.790 . S
C135 C18 1.749 1_556 S
C144 C15 1.783 1_554 S
C146 C40 1.752 . S
C155 C37 1.786 . S
C157 C54 1.754 . S
C166 C65 1.785 . S
C168 C76 1.752 1_556 S
C177 C98 1.756 . S
C179 C87 1.783 1_554 S
C188 C128 1.748 . S
C190 C109 1.790 . S
C199 C10 1.204 . S
C201 C7 1.221 . S
C210 C32 1.197 1_556 S
C212 C29 1.220 . S
C221 C52 1.195 . S
C223 C59 1.219 1_554 S
C232 C74 1.204 . S
C234 C81 1.218 . S
C243 C103 1.221 . S
C245 C96 1.203 1_556 S
C254 C120 1.194 . S
C256 C117 1.217 1_554 S
C265 C21 1.331 . S
C267 C106 1.354 . S
C276 C43 1.336 . S
C278 C118 1.350 . S
C287 C8 1.350 . S
C289 C51 1.335 . S
C298 C30 1.352 . S
C300 C73 1.333 . S
C309 C95 1.327 . S
C311 C62 1.356 . S
C320 C84 1.351 . S
C322 C131 1.334 . S
