# Generated by pormake.
# Topology atn, (4)-cn, num edge types: 1
# Building blocks:
#     Node 0, Type 0, BuildingBlock: NAHDIM_clean_sbu_0, # of connection points: 4
#     Node 1, Type 0, BuildingBlock: NAHDIM_clean_sbu_0, # of connection points: 4
#     Node 2, Type 0, BuildingBlock: NAHDIM_clean_sbu_0, # of connection points: 4
#     Node 3, Type 0, BuildingBlock: NAHDIM_clean_sbu_0, # of connection points: 4
#     Node 4, Type 0, BuildingBlock: NAHDIM_clean_sbu_0, # of connection points: 4
#     Node 5, Type 0, BuildingBlock: NAHDIM_clean_sbu_0, # of connection points: 4
#     Node 6, Type 0, BuildingBlock: NAHDIM_clean_sbu_0, # of connection points: 4
#     Node 7, Type 0, BuildingBlock: NAHDIM_clean_sbu_0, # of connection points: 4
#     Node 8, Type 0, BuildingBlock: NAHDIM_clean_sbu_0, # of connection points: 4
#     Node 9, Type 0, BuildingBlock: NAHDIM_clean_sbu_0, # of connection points: 4
#     Node 10, Type 0, BuildingBlock: NAHDIM_clean_sbu_0, # of connection points: 4
#     Node 11, Type 0, BuildingBlock: NAHDIM_clean_sbu_0, # of connection points: 4
#     Node 12, Type 0, BuildingBlock: NAHDIM_clean_sbu_0, # of connection points: 4
#     Node 13, Type 0, BuildingBlock: NAHDIM_clean_sbu_0, # of connection points: 4
#     Node 14, Type 0, BuildingBlock: NAHDIM_clean_sbu_0, # of connection points: 4
#     Node 15, Type 0, BuildingBlock: NAHDIM_clean_sbu_0, # of connection points: 4
#     Edge 16, Type (0, 0), BuildingBlock: AJUNOK_clean_linker_0, # of connection points: 2
#     Edge 17, Type (0, 0), BuildingBlock: AJUNOK_clean_linker_0, # of connection points: 2
#     Edge 18, Type (0, 0), BuildingBlock: AJUNOK_clean_linker_0, # of connection points: 2
#     Edge 19, Type (0, 0), BuildingBlock: AJUNOK_clean_linker_0, # of connection points: 2
#     Edge 20, Type (0, 0), BuildingBlock: AJUNOK_clean_linker_0, # of connection points: 2
#     Edge 21, Type (0, 0), BuildingBlock: AJUNOK_clean_linker_0, # of connection points: 2
#     Edge 22, Type (0, 0), BuildingBlock: AJUNOK_clean_linker_0, # of connection points: 2
#     Edge 23, Type (0, 0), BuildingBlock: AJUNOK_clean_linker_0, # of connection points: 2
#     Edge 24, Type (0, 0), BuildingBlock: AJUNOK_clean_linker_0, # of connection points: 2
#     Edge 25, Type (0, 0), BuildingBlock: AJUNOK_clean_linker_0, # of connection points: 2
#     Edge 26, Type (0, 0), BuildingBlock: AJUNOK_clean_linker_0, # of connection points: 2
#     Edge 27, Type (0, 0), BuildingBlock: AJUNOK_clean_linker_0, # of connection points: 2
#     Edge 28, Type (0, 0), BuildingBlock: AJUNOK_clean_linker_0, # of connection points: 2
#     Edge 29, Type (0, 0), BuildingBlock: AJUNOK_clean_linker_0, # of connection points: 2
#     Edge 30, Type (0, 0), BuildingBlock: AJUNOK_clean_linker_0, # of connection points: 2
#     Edge 31, Type (0, 0), BuildingBlock: AJUNOK_clean_linker_0, # of connection points: 2
#     Edge 32, Type (0, 0), BuildingBlock: AJUNOK_clean_linker_0, # of connection points: 2
#     Edge 33, Type (0, 0), BuildingBlock: AJUNOK_clean_linker_0, # of connection points: 2
#     Edge 34, Type (0, 0), BuildingBlock: AJUNOK_clean_linker_0, # of connection points: 2
#     Edge 35, Type (0, 0), BuildingBlock: AJUNOK_clean_linker_0, # of connection points: 2
#     Edge 36, Type (0, 0), BuildingBlock: AJUNOK_clean_linker_0, # of connection points: 2
#     Edge 37, Type (0, 0), BuildingBlock: AJUNOK_clean_linker_0, # of connection points: 2
#     Edge 38, Type (0, 0), BuildingBlock: AJUNOK_clean_linker_0, # of connection points: 2
#     Edge 39, Type (0, 0), BuildingBlock: AJUNOK_clean_linker_0, # of connection points: 2
#     Edge 40, Type (0, 0), BuildingBlock: AJUNOK_clean_linker_0, # of connection points: 2
#     Edge 41, Type (0, 0), BuildingBlock: AJUNOK_clean_linker_0, # of connection points: 2
#     Edge 42, Type (0, 0), BuildingBlock: AJUNOK_clean_linker_0, # of connection points: 2
#     Edge 43, Type (0, 0), BuildingBlock: AJUNOK_clean_linker_0, # of connection points: 2
#     Edge 44, Type (0, 0), BuildingBlock: AJUNOK_clean_linker_0, # of connection points: 2
#     Edge 45, Type (0, 0), BuildingBlock: AJUNOK_clean_linker_0, # of connection points: 2
#     Edge 46, Type (0, 0), BuildingBlock: AJUNOK_clean_linker_0, # of connection points: 2
#     Edge 47, Type (0, 0), BuildingBlock: AJUNOK_clean_linker_0, # of connection points: 2
# Relax obj value: 0.100
# Max RMSD: 0.111
# Mean RMSD: 0.111
data_MOF--net-atn--node1-NAHDIM_clean_sbu_0--edge1-AJUNOK_clean_linker_0
_symmetry_space_group_name_H-M    P1
_symmetry_Int_Tables_number       1
_symmetry_cell_setting            triclinic
loop_
_symmetry_equiv_pos_as_xyz
'x, y, z'
_cell_length_a     47.119368
_cell_length_b     47.257221
_cell_length_c     18.158338
_cell_angle_alpha  89.985954
_cell_angle_beta   90.077634
_cell_angle_gamma 89.956617
loop_
_atom_site_label
_atom_site_type_symbol
_atom_site_fract_x
_atom_site_fract_y
_atom_site_fract_z
_atom_type_partial_charge
C0 C 0.18683 0.43678 0.96545 0.0
O1 O 0.16216 0.42396 0.96045 0.0
O2 O 0.18337 0.3664 0.05018 0.0
Zn3 Zn 0.20485 0.37976 0.96111 0.0
O4 O 0.18337 0.36928 0.86966 0.0
C5 C 0.25903 0.3582 0.01251 0.0
O6 O 0.2511 0.36955 0.07525 0.0
O7 O 0.20924 0.42186 0.96644 0.0
C8 C 0.19106 0.3791 0.80767 0.0
O9 O 0.21259 0.39671 0.80535 0.0
C10 C 0.18353 0.34048 0.06885 0.0
O11 O 0.19768 0.32229 0.02832 0.0
O12 O 0.24288 0.36055 0.95679 0.0
C13 C 0.55126 0.19678 0.05539 0.0
O14 O 0.56297 0.17308 0.03293 0.0
O15 O 0.62899 0.19412 0.12772 0.0
Zn16 Zn 0.60853 0.21286 0.04292 0.0
O17 O 0.61279 0.19082 0.94852 0.0
C18 C 0.6544 0.2451 0.00205 0.0
O19 O 0.66283 0.21885 0.99257 0.0
O20 O 0.56693 0.2184 0.06432 0.0
C21 C 0.62455 0.16673 0.9428 0.0
O22 O 0.63317 0.15373 0.00273 0.0
C23 C 0.61924 0.17759 0.17672 0.0
O24 O 0.59249 0.16989 0.17388 0.0
O25 O 0.62939 0.24953 0.02576 0.0
C26 C 0.79329 0.55202 0.9967 0.0
O27 O 0.81752 0.56572 1.0007 0.0
O28 O 0.79845 0.62132 0.06576 0.0
Zn29 Zn 0.77649 0.60794 0.97668 0.0
O30 O 0.79907 0.61488 0.88464 0.0
C31 C 0.72054 0.63333 0.01136 0.0
O32 O 0.72423 0.62398 0.07885 0.0
O33 O 0.77069 0.56613 0.98625 0.0
C34 C 0.80704 0.63984 0.86931 0.0
O35 O 0.80154 0.66025 0.91631 0.0
C36 C 0.79557 0.64523 0.09678 0.0
O37 O 0.77698 0.66329 0.07021 0.0
O38 O 0.73949 0.62861 0.96324 0.0
C39 C 0.43363 0.80067 0.99256 0.0
O40 O 0.41911 0.82435 0.98835 0.0
O41 O 0.36166 0.79144 0.09223 0.0
Zn42 Zn 0.37748 0.77797 0.99473 0.0
O43 O 0.36358 0.80244 0.91116 0.0
C44 C 0.35122 0.723 0.01985 0.0
O45 O 0.35284 0.73015 0.08965 0.0
O46 O 0.42016 0.77743 0.99643 0.0
C47 C 0.33778 0.7989 0.89287 0.0
O48 O 0.32202 0.78179 0.93256 0.0
C49 C 0.35461 0.817 0.10436 0.0
O50 O 0.35809 0.83578 0.05181 0.0
O51 O 0.36206 0.73926 0.9719 0.0
C52 C 0.18881 0.56 0.97827 0.0
O53 O 0.16509 0.57389 0.96612 0.0
O54 O 0.19056 0.62744 0.89097 0.0
Zn55 Zn 0.20977 0.61628 0.98632 0.0
O56 O 0.1887 0.63107 0.07573 0.0
C57 C 0.26336 0.64283 0.93983 0.0
O58 O 0.25234 0.64264 0.87336 0.0
O59 O 0.21138 0.57396 0.99 0.0
C60 C 0.19721 0.65433 0.10323 0.0
O61 O 0.21713 0.66857 0.06894 0.0
C62 C 0.18273 0.65234 0.87404 0.0
O63 O 0.18713 0.67298 0.92113 0.0
O64 O 0.24954 0.63172 0.99238 0.0
C65 C 0.42878 0.20362 0.09307 0.0
O66 O 0.4139 0.18219 0.11803 0.0
O67 O 0.36004 0.20322 0.97991 0.0
Zn68 Zn 0.37299 0.22377 0.07178 0.0
O69 O 0.35975 0.20545 0.16619 0.0
C70 C 0.3492 0.27438 0.00826 0.0
O71 O 0.35765 0.26238 0.94686 0.0
O72 O 0.41571 0.22559 0.07105 0.0
C73 C 0.3415 0.18578 0.17149 0.0
O74 O 0.32969 0.17551 0.1117 0.0
C75 C 0.36267 0.17723 0.96316 0.0
O76 O 0.37453 0.15965 0.01003 0.0
O77 O 0.35512 0.26247 0.06915 0.0
C78 C 0.79648 0.42895 0.01127 0.0
O79 O 0.8214 0.41663 0.01732 0.0
O80 O 0.80574 0.36372 0.91243 0.0
Zn81 Zn 0.78213 0.37179 0.00358 0.0
O82 O 0.80221 0.36162 0.09841 0.0
C83 C 0.74184 0.32967 0.95593 0.0
O84 O 0.76206 0.32407 0.90843 0.0
O85 O 0.7746 0.41348 0.00497 0.0
C86 C 0.80271 0.33633 0.12222 0.0
O87 O 0.79147 0.31608 0.08216 0.0
C88 C 0.82497 0.34495 0.90718 0.0
O89 O 0.83109 0.32931 0.96482 0.0
O90 O 0.74523 0.35 1.00084 0.0
C91 C 0.55746 0.79823 0.98302 0.0
O92 O 0.57279 0.82143 0.98282 0.0
O93 O 0.62578 0.78657 0.87359 0.0
Zn94 Zn 0.61279 0.77428 0.97466 0.0
O95 O 0.62905 0.79983 0.05247 0.0
C96 C 0.63597 0.71893 0.94347 0.0
O97 O 0.62991 0.72614 0.8754 0.0
O98 O 0.57011 0.77449 0.98005 0.0
C99 C 0.65588 0.8001 0.05963 0.0
O100 O 0.67124 0.78497 0.01389 0.0
C101 C 0.63182 0.81184 0.85559 0.0
O102 O 0.62906 0.83203 0.9048 0.0
O103 O 0.62893 0.73555 0.99533 0.0
C104 C 0.72217 0.9312 0.505 0.0
O105 O 0.72756 0.91929 0.56889 0.0
O106 O 0.68631 0.86519 0.55421 0.0
Zn107 Zn 0.70976 0.87384 0.46416 0.0
O108 O 0.69112 0.85789 0.37343 0.0
C109 C 0.75962 0.85121 0.53791 0.0
O110 O 0.74697 0.86066 0.59743 0.0
O111 O 0.71423 0.91575 0.45169 0.0
C112 C 0.70635 0.85439 0.3164 0.0
O113 O 0.73319 0.86184 0.31889 0.0
C114 C 0.68136 0.83946 0.57002 0.0
O115 O 0.69079 0.8197 0.52544 0.0
O116 O 0.74793 0.85522 0.47564 0.0
C117 C 0.0532 0.69705 0.48418 0.0
O118 O 0.06672 0.67302 0.49419 0.0
O119 O 0.12474 0.704 0.57487 0.0
Zn120 Zn 0.11019 0.71791 0.47635 0.0
O121 O 0.1247 0.69385 0.39281 0.0
C122 C 0.13375 0.77309 0.5099 0.0
O123 O 0.12779 0.76589 0.57802 0.0
O124 O 0.06757 0.71952 0.47531 0.0
C125 C 0.15108 0.69645 0.37999 0.0
O126 O 0.1664 0.71181 0.42536 0.0
C127 C 0.13263 0.67873 0.58747 0.0
O128 O 0.13086 0.65996 0.53434 0.0
O129 O 0.12657 0.75656 0.45802 0.0
C130 C 0.29655 0.05853 0.56468 0.0
O131 O 0.32121 0.07147 0.56787 0.0
O132 O 0.30285 0.12313 0.66879 0.0
Zn133 Zn 0.28051 0.11517 0.57537 0.0
O134 O 0.30154 0.12672 0.48343 0.0
C135 C 0.23879 0.15622 0.622 0.0
O136 O 0.25653 0.1592 0.67721 0.0
O137 O 0.27408 0.07335 0.56817 0.0
C138 C 0.30066 0.15202 0.45983 0.0
O139 O 0.28763 0.17148 0.49887 0.0
C140 C 0.32052 0.14329 0.6752 0.0
O141 O 0.32563 0.15954 0.6181 0.0
O142 O 0.24358 0.13708 0.57442 0.0
C143 C 0.93569 0.28945 0.48163 0.0
O144 O 0.91998 0.3113 0.4632 0.0
O145 O 0.8694 0.28814 0.60338 0.0
Zn146 Zn 0.8807 0.26838 0.50863 0.0
O147 O 0.86535 0.28669 0.41597 0.0
C148 C 0.83757 0.22927 0.53185 0.0
O149 O 0.82544 0.25347 0.5486 0.0
O150 O 0.9234 0.26693 0.50273 0.0
C151 C 0.84626 0.3056 0.41109 0.0
O152 O 0.83455 0.31568 0.47119 0.0
C153 C 0.87003 0.3143 0.61969 0.0
O154 O 0.87906 0.33273 0.57094 0.0
O155 O 0.86345 0.22937 0.51217 0.0
C156 C 0.71743 0.05399 0.48628 0.0
O157 O 0.71272 0.06754 0.42429 0.0
O158 O 0.68218 0.12002 0.46286 0.0
Zn159 Zn 0.70531 0.10849 0.55241 0.0
O160 O 0.68248 0.1136 0.64476 0.0
C161 C 0.7627 0.13148 0.52644 0.0
O162 O 0.76601 0.11053 0.47973 0.0
O163 O 0.71622 0.06756 0.54656 0.0
C164 C 0.66586 0.13449 0.65329 0.0
O165 O 0.6627 0.15256 0.59888 0.0
C166 C 0.68802 0.14264 0.42805 0.0
O167 O 0.70873 0.15876 0.45209 0.0
O168 O 0.73963 0.13348 0.56223 0.0
C169 C 0.92943 0.69698 0.49182 0.0
O170 O 0.91656 0.67459 0.51864 0.0
O171 O 0.85301 0.69855 0.393 0.0
Zn172 Zn 0.87194 0.71665 0.48076 0.0
O173 O 0.86105 0.69725 0.57533 0.0
C174 C 0.85004 0.76798 0.54632 0.0
O175 O 0.85819 0.75586 0.60791 0.0
O176 O 0.91451 0.71787 0.47057 0.0
C177 C 0.85191 0.67214 0.58264 0.0
O178 O 0.84961 0.65594 0.5242 0.0
C179 C 0.86182 0.67774 0.35506 0.0
O180 O 0.88576 0.66533 0.37333 0.0
O181 O 0.85556 0.75586 0.48552 0.0
C182 C 0.29628 0.93617 0.52424 0.0
O183 O 0.32052 0.9225 0.52891 0.0
O184 O 0.29594 0.8705 0.40449 0.0
Zn185 Zn 0.27654 0.88011 0.50055 0.0
O186 O 0.29851 0.86471 0.58777 0.0
C187 C 0.22284 0.85444 0.4509 0.0
O188 O 0.23317 0.85682 0.38401 0.0
O189 O 0.27383 0.92222 0.51112 0.0
C190 C 0.2903 0.84194 0.61837 0.0
O191 O 0.26876 0.82815 0.58975 0.0
C192 C 0.30264 0.84531 0.38711 0.0
O193 O 0.29687 0.82474 0.43341 0.0
O194 O 0.23724 0.86361 0.50496 0.0
C195 C 0.05927 0.29534 0.48239 0.0
O196 O 0.07225 0.31924 0.49719 0.0
O197 O 0.13304 0.28752 0.37733 0.0
Zn198 Zn 0.11681 0.27741 0.47681 0.0
O199 O 0.12654 0.30701 0.55337 0.0
C200 C 0.16127 0.24512 0.53343 0.0
O201 O 0.17246 0.27049 0.52885 0.0
O202 O 0.07413 0.27325 0.47156 0.0
C203 C 0.14368 0.32748 0.54415 0.0
O204 O 0.15517 0.33129 0.47907 0.0
C205 C 0.12492 0.30849 0.33883 0.0
O206 O 0.10465 0.3249 0.36408 0.0
O207 O 0.13598 0.24136 0.51087 0.0
C208 C 0.16361 0.5137 0.96675 0.0
C209 C 0.18918 0.52861 0.97646 0.0
C210 C 0.16314 0.48411 0.96351 0.0
C211 C 0.18823 0.46811 0.96962 0.0
H212 H 0.14365 0.52492 0.96144 0.0
H213 H 0.14285 0.47377 0.95581 0.0
S214 S 0.26093 0.49678 0.99619 0.0
N215 N 0.24038 0.52504 0.99261 0.0
N216 N 0.2395 0.46944 0.98638 0.0
C217 C 0.21401 0.4827 0.97958 0.0
C218 C 0.21448 0.5129 0.98308 0.0
C219 C 0.4765 0.22601 0.07502 0.0
C220 C 0.46011 0.20155 0.08701 0.0
C221 C 0.50606 0.22441 0.06653 0.0
C222 C 0.52028 0.19823 0.06857 0.0
H223 H 0.46645 0.2466 0.07192 0.0
H224 H 0.51774 0.24378 0.0567 0.0
S225 S 0.4874 0.12793 0.10074 0.0
N226 N 0.46055 0.15035 0.10246 0.0
N227 N 0.51589 0.14737 0.08586 0.0
C228 C 0.50422 0.17365 0.08147 0.0
C229 C 0.4742 0.1753 0.09091 0.0
C230 C 0.81933 0.4765 0.01615 0.0
C231 C 0.79445 0.46027 0.00965 0.0
C232 C 0.81856 0.50604 0.01262 0.0
C233 C 0.79287 0.52072 0.00239 0.0
H234 H 0.83977 0.46637 0.02353 0.0
H235 H 0.83845 0.51738 0.01744 0.0
S236 S 0.7214 0.48832 0.98437 0.0
N237 N 0.74311 0.46114 0.99408 0.0
N238 N 0.74167 0.51677 0.98741 0.0
C239 C 0.76768 0.50483 0.9968 0.0
C240 C 0.76847 0.47462 1.00043 0.0
C241 C 0.50996 0.77451 0.98854 0.0
C242 C 0.52596 0.79963 0.98626 0.0
C243 C 0.48024 0.7751 0.99103 0.0
C244 C 0.46518 0.80085 0.9912 0.0
H245 H 0.52042 0.75408 0.98828 0.0
H246 H 0.46903 0.75512 0.99245 0.0
S247 S 0.49692 0.87279 0.98661 0.0
N248 N 0.5244 0.85114 0.98495 0.0
N249 N 0.46864 0.85224 0.98957 0.0
C250 C 0.48089 0.82619 0.98928 0.0
C251 C 0.5112 0.82558 0.98684 0.0
C252 C 0.72563 0.00897 0.55534 0.0
C253 C 0.72127 0.02281 0.48758 0.0
C254 C 0.72668 0.97943 0.55995 0.0
C255 C 0.72334 0.96242 0.49702 0.0
H256 H 0.72764 0.02097 0.60591 0.0
H257 H 0.72942 0.96993 0.61377 0.0
S258 S 0.71405 0.98806 0.30504 0.0
N259 N 0.71554 0.01717 0.35511 0.0
N260 N 0.71748 0.96162 0.36377 0.0
C261 C 0.72009 0.97594 0.42835 0.0
C262 C 0.71909 0.00611 0.42362 0.0
C263 C 0.97662 0.67317 0.50358 0.0
C264 C 0.9609 0.69777 0.48774 0.0
C265 C 0.00634 0.67317 0.50173 0.0
C266 C 0.02167 0.69782 0.48433 0.0
H267 H 0.96595 0.65361 0.51766 0.0
H268 H 0.01731 0.65364 0.51465 0.0
S269 S 0.99072 0.76794 0.43782 0.0
N270 N 0.96297 0.74752 0.4534 0.0
N271 N 0.01879 0.74757 0.45013 0.0
C272 C 0.00625 0.7226 0.46797 0.0
C273 C 0.97591 0.72256 0.46957 0.0
C274 C 0.32083 0.0117 0.55495 0.0
C275 C 0.29541 0.02735 0.55535 0.0
C276 C 0.3208 0.98234 0.54496 0.0
C277 C 0.29535 0.96731 0.53472 0.0
H278 H 0.34109 0.02214 0.56232 0.0
H279 H 0.34102 0.97142 0.54505 0.0
S280 S 0.22279 -0.00182 0.53176 0.0
N281 N 0.24393 0.02554 0.54509 0.0
N282 N 0.24384 0.97034 0.5262 0.0
C283 C 0.26967 0.98264 0.53522 0.0
C284 C 0.26971 0.01263 0.5456 0.0
C285 C 0.01359 0.26813 0.48537 0.0
C286 C 0.02781 0.29421 0.47979 0.0
C287 C 0.98383 0.26675 0.48581 0.0
C288 C 0.96713 0.29137 0.47974 0.0
H289 H 0.02549 0.24861 0.49064 0.0
H290 H 0.97388 0.24619 0.49091 0.0
S291 S 0.99404 0.36492 0.46112 0.0
N292 N 0.0229 0.34522 0.46629 0.0
N293 N 0.96718 0.34265 0.46668 0.0
C294 C 0.98113 0.31756 0.47293 0.0
C295 C 0.01138 0.31898 0.47311 0.0
C296 C 0.29754 0.33054 0.07451 0.0
C297 C 0.28457 0.33984 0.00902 0.0
C298 C 0.31935 0.31037 0.07344 0.0
C299 C 0.32922 0.29874 0.00678 0.0
H300 H 0.29009 0.338 0.12747 0.0
H301 H 0.32784 0.30317 0.12565 0.0
S302 S 0.30477 0.3187 0.81914 0.0
N303 N 0.28498 0.33786 0.87508 0.0
N304 N 0.32599 0.30007 0.87294 0.0
C305 C 0.31758 0.30912 0.94055 0.0
C306 C 0.29525 0.32959 0.9417 0.0
C307 C 0.71856 0.2836 0.92795 0.0
C308 C 0.71744 0.31006 0.96325 0.0
C309 C 0.6976 0.26319 0.93958 0.0
C310 C 0.6744 0.26844 0.98626 0.0
H311 H 0.73627 0.2781 0.89276 0.0
H312 H 0.69991 0.24291 0.91244 0.0
S313 S 0.66006 0.33513 0.08725 0.0
N314 N 0.69024 0.34107 0.04377 0.0
N315 N 0.65056 0.30261 0.06488 0.0
C316 C 0.67221 0.29523 0.01942 0.0
C317 C 0.69382 0.31604 0.00818 0.0
C318 C 0.68188 0.66667 0.0492 0.0
C319 C 0.69634 0.65216 0.99299 0.0
C320 C 0.66148 0.68734 0.03267 0.0
C321 C 0.65453 0.69419 0.95927 0.0
H322 H 0.68719 0.66294 0.10645 0.0
H323 H 0.65177 0.69867 0.07798 0.0
S324 S 0.68375 0.6596 0.79195 0.0
N325 N 0.70043 0.64415 0.86107 0.0
N326 N 0.66204 0.68279 0.82996 0.0
C327 C 0.66764 0.67861 0.90262 0.0
C328 C 0.68856 0.65769 0.91948 0.0
C329 C 0.29734 0.66367 0.03077 0.0
C330 C 0.28906 0.65984 0.95683 0.0
C331 C 0.31858 0.68299 0.05018 0.0
C332 C 0.33256 0.69929 0.99654 0.0
H333 H 0.28653 0.65257 0.07473 0.0
H334 H 0.32321 0.68594 0.10812 0.0
S335 S 0.32164 0.69452 0.79408 0.0
N336 N 0.29862 0.6719 0.82898 0.0
N337 N 0.3386 0.70815 0.86526 0.0
C338 C 0.32588 0.69429 0.92191 0.0
C339 C 0.30413 0.67462 0.90213 0.0
C340 C 0.82066 0.80396 0.48017 0.0
C341 C 0.83033 0.79252 0.54726 0.0
C342 C 0.79867 0.82385 0.47811 0.0
C343 C 0.7854 0.83324 0.54305 0.0
H344 H 0.82937 0.79674 0.42829 0.0
H345 H 0.79143 0.83118 0.42475 0.0
S346 S 0.80494 0.81245 0.73382 0.0
N347 N 0.82659 0.79401 0.68095 0.0
N348 N 0.78526 0.83144 0.67706 0.0
C349 C 0.79599 0.82334 0.6109 0.0
C350 C 0.81845 0.80299 0.613 0.0
C351 C 0.18566 0.82037 0.40836 0.0
C352 C 0.19699 0.83734 0.4648 0.0
C353 C 0.16411 0.80073 0.42272 0.0
C354 C 0.15296 0.79725 0.49413 0.0
H355 H 0.19434 0.82126 0.35321 0.0
H356 H 0.15708 0.78732 0.37789 0.0
S357 S 0.17219 0.83966 0.65891 0.0
N358 N 0.19312 0.8517 0.59321 0.0
N359 N 0.15267 0.81479 0.62012 0.0
C360 C 0.16272 0.81545 0.55 0.0
C361 C 0.1847 0.83547 0.53537 0.0
C362 C 0.19517 0.17278 0.55521 0.0
C363 C 0.2166 0.17786 0.60784 0.0
C364 C 0.17624 0.19425 0.53382 0.0
C365 C 0.17849 0.22164 0.56325 0.0
H366 H 0.19345 0.15229 0.5289 0.0
H367 H 0.16065 0.18971 0.49153 0.0
S368 S 0.229 0.24547 0.70731 0.0
N369 N 0.23733 0.21201 0.69281 0.0
N370 N 0.20218 0.25224 0.65147 0.0
C371 C 0.19896 0.2267 0.61802 0.0
C372 C 0.21789 0.20482 0.64068 0.0
C373 C 0.79476 0.20282 0.57263 0.0
C374 C 0.82059 0.2029 0.53399 0.0
C375 C 0.77685 0.17928 0.57171 0.0
C376 C 0.78379 0.15477 0.5315 0.0
H377 H 0.78802 0.2213 0.60331 0.0
H378 H 0.75698 0.18074 0.60143 0.0
S379 S 0.84984 0.14349 0.424 0.0
N380 N 0.85299 0.1759 0.457 0.0
N381 N 0.81913 0.13153 0.45467 0.0
C382 C 0.81 0.15416 0.49429 0.0
C383 C 0.82845 0.17821 0.49574 0.0
C384 C 0.13485 0.342 0.23538 0.0
C385 C 0.13941 0.31547 0.26859 0.0
C386 C 0.14909 0.34976 0.17079 0.0
C387 C 0.16831 0.33123 0.1362 0.0
H388 H 0.12047 0.35717 0.25996 0.0
H389 H 0.14497 0.37054 0.14794 0.0
S390 S 0.18725 0.25888 0.19952 0.0
N391 N 0.1642 0.27034 0.26105 0.0
N392 N 0.19082 0.28487 0.13951 0.0
C393 C 0.17276 0.30443 0.16809 0.0
C394 C 0.15839 0.29658 0.23427 0.0
C395 C 0.64468 0.13885 0.34836 0.0
C396 C 0.67136 0.15112 0.36222 0.0
C397 C 0.62809 0.14734 0.28801 0.0
C398 C 0.63766 0.16823 0.23861 0.0
H399 H 0.63625 0.12288 0.38512 0.0
H400 H 0.60755 0.1375 0.28035 0.0
S401 S 0.70679 0.20596 0.2482 0.0
N402 N 0.70706 0.18457 0.32003 0.0
N403 N 0.67613 0.20039 0.2067 0.0
C404 C 0.66463 0.18023 0.251 0.0
C405 C 0.68138 0.17174 0.31275 0.0
C406 C 0.82312 0.68566 0.26288 0.0
C407 C 0.84534 0.66851 0.28951 0.0
C408 C 0.80731 0.67796 0.20069 0.0
C409 C 0.81286 0.65266 0.16252 0.0
H410 H 0.81792 0.70543 0.28989 0.0
H411 H 0.79053 0.69203 0.18265 0.0
S412 S 0.86841 0.59982 0.21029 0.0
N413 N 0.87188 0.62479 0.27321 0.0
N414 N 0.84212 0.6102 0.1565 0.0
C415 C 0.83491 0.63514 0.18875 0.0
C416 C 0.85116 0.64309 0.25206 0.0
C417 C 0.32318 0.81088 0.29668 0.0
C418 C 0.3163 0.83901 0.31504 0.0
C419 C 0.3357 0.8041 0.22893 0.0
C420 C 0.34187 0.82511 0.17633 0.0
H421 H 0.31879 0.79382 0.33476 0.0
H422 H 0.34037 0.78206 0.21769 0.0
S423 S 0.32861 0.90221 0.19751 0.0
N424 N 0.31702 0.88819 0.27507 0.0
N425 N 0.34048 0.87544 0.14795 0.0
C426 C 0.33529 0.85339 0.19406 0.0
C427 C 0.32255 0.86032 0.26325 0.0
C428 C 0.14995 0.69238 0.71317 0.0
C429 C 0.14472 0.67108 0.66061 0.0
C430 C 0.16203 0.68607 0.78185 0.0
C431 C 0.1694 0.65817 0.80122 0.0
H432 H 0.14494 0.71427 0.70109 0.0
H433 H 0.16578 0.70336 0.81983 0.0
S434 S 0.15919 0.59433 0.68457 0.0
N435 N 0.14726 0.6207 0.63359 0.0
N436 N 0.16989 0.60883 0.76245 0.0
C437 C 0.16397 0.63656 0.74955 0.0
C438 C 0.15168 0.64301 0.67945 0.0
C439 C 0.34231 0.17827 0.76124 0.0
C440 C 0.33256 0.15058 0.74824 0.0
C441 C 0.352 0.18655 0.83086 0.0
C442 C 0.35286 0.16737 0.89008 0.0
H443 H 0.34184 0.19397 0.71777 0.0
H444 H 0.35895 0.20823 0.83824 0.0
S445 S 0.33057 0.09213 0.88482 0.0
N446 N 0.32478 0.10378 0.80035 0.0
N447 N 0.34357 0.11929 0.93106 0.0
C448 C 0.34379 0.13944 0.87765 0.0
C449 C 0.33347 0.13108 0.80686 0.0
C450 C 0.84997 0.3118 0.82188 0.0
C451 C 0.83803 0.33864 0.83471 0.0
C452 C 0.86049 0.30432 0.75242 0.0
C453 C 0.85999 0.32354 0.6932 0.0
H454 H 0.85052 0.29607 0.86526 0.0
H455 H 0.86899 0.2832 0.74507 0.0
S456 S 0.83224 0.39702 0.69856 0.0
N457 N 0.82708 0.38485 0.78274 0.0
N458 N 0.84732 0.37092 0.65246 0.0
C459 C 0.84888 0.35075 0.70568 0.0
C460 C 0.83776 0.35825 0.77627 0.0
C461 C 0.64962 0.84641 0.76168 0.0
C462 C 0.64304 0.81831 0.78091 0.0
C463 C 0.6614 0.85306 0.69295 0.0
C464 C 0.66719 0.83191 0.64046 0.0
H465 H 0.64599 0.86349 0.80029 0.0
H466 H 0.66644 0.87499 0.68156 0.0
S467 S 0.65273 0.75505 0.66186 0.0
N468 N 0.64232 0.76918 0.74039 0.0
N469 N 0.66443 0.78168 0.61159 0.0
C470 C 0.66017 0.80376 0.65828 0.0
C471 C 0.64811 0.79698 0.72829 0.0
C472 C 0.84143 0.68165 0.71523 0.0
C473 C 0.84221 0.66235 0.65616 0.0
C474 C 0.83068 0.67391 0.7841 0.0
C475 C 0.82034 0.64647 0.79727 0.0
H476 H 0.84864 0.70323 0.70808 0.0
H477 H 0.83012 0.68981 0.82704 0.0
S478 S 0.81922 0.58724 0.66272 0.0
N479 N 0.83287 0.61405 0.61652 0.0
N480 N 0.81273 0.59942 0.7462 0.0
C481 C 0.8218 0.6266 0.73951 0.0
C482 C 0.83268 0.63455 0.66899 0.0
C483 C 0.28966 0.8103 0.72823 0.0
C484 C 0.30332 0.83178 0.688 0.0
C485 C 0.30077 0.80035 0.79481 0.0
C486 C 0.3262 0.81121 0.82396 0.0
H487 H 0.27003 0.80107 0.70852 0.0
H488 H 0.28941 0.78364 0.82302 0.0
S489 S 0.3703 0.86788 0.74083 0.0
N490 N 0.34363 0.8639 0.68266 0.0
N491 N 0.3647 0.84492 0.80782 0.0
C492 C 0.34015 0.83276 0.78457 0.0
C493 C 0.32867 0.84311 0.71671 0.0
C494 C 0.14398 0.33634 0.67984 0.0
C495 C 0.15383 0.34364 0.60918 0.0
C496 C 0.15552 0.34861 0.74326 0.0
C497 C 0.17742 0.36877 0.73897 0.0
H498 H 0.12775 0.32034 0.6867 0.0
H499 H 0.14763 0.34158 0.7962 0.0
S500 S 0.20884 0.3975 0.56695 0.0
N501 N 0.18535 0.37403 0.53843 0.0
N502 N 0.20705 0.39712 0.65771 0.0
C503 C 0.18658 0.37732 0.66857 0.0
C504 C 0.17479 0.36477 0.60375 0.0
C505 C 0.62683 0.17279 0.80617 0.0
C506 C 0.63216 0.1559 0.86862 0.0
C507 C 0.63688 0.16511 0.73649 0.0
C508 C 0.65267 0.14017 0.72607 0.0
H509 H 0.61559 0.1927 0.81123 0.0
H510 H 0.63292 0.17937 0.69095 0.0
S511 S 0.66953 0.08669 0.86979 0.0
N512 N 0.65213 0.11173 0.91421 0.0
N513 N 0.67099 0.09721 0.7832 0.0
C514 C 0.65685 0.12225 0.78723 0.0
C515 C 0.64662 0.13012 0.85843 0.0
C516 C 0.83732 0.29552 0.27809 0.0
C517 C 0.83601 0.31456 0.33758 0.0
C518 C 0.82663 0.30283 0.20858 0.0
C519 C 0.81488 0.3297 0.19539 0.0
H520 H 0.84606 0.2745 0.28564 0.0
H521 H 0.82764 0.28729 0.16477 0.0
S522 S 0.80738 0.38766 0.33189 0.0
N523 N 0.82238 0.36161 0.37849 0.0
N524 N 0.80299 0.37566 0.24722 0.0
C525 C 0.81403 0.34921 0.25389 0.0
C526 C 0.82438 0.34154 0.32516 0.0
C527 C 0.65237 0.82673 0.17852 0.0
C528 C 0.66935 0.81526 0.12217 0.0
C529 C 0.66451 0.83948 0.24071 0.0
C530 C 0.69413 0.84156 0.24886 0.0
H531 H 0.62945 0.82542 0.17544 0.0
H532 H 0.65048 0.84769 0.28284 0.0
S533 S 0.74817 0.81564 0.11617 0.0
N534 N 0.71748 0.80741 0.07795 0.0
N535 N 0.74023 0.83146 0.19449 0.0
C536 C 0.7114 0.8307 0.19228 0.0
C537 C 0.69904 0.81754 0.12911 0.0
C538 C 0.14864 0.66528 0.26813 0.0
C539 C 0.16377 0.68486 0.3115 0.0
C540 C 0.15967 0.65521 0.20124 0.0
C541 C 0.18603 0.6647 0.17462 0.0
H542 H 0.12805 0.65771 0.28576 0.0
H543 H 0.14722 0.64026 0.16961 0.0
S544 S 0.23457 0.7152 0.26811 0.0
N545 N 0.20698 0.71274 0.32357 0.0
N546 N 0.22745 0.6941 0.19813 0.0
C547 C 0.20152 0.68403 0.21783 0.0
C548 C 0.19048 0.69401 0.28618 0.0
C549 C 0.32322 0.18673 0.37471 0.0
C550 C 0.31263 0.15937 0.38715 0.0
C551 C 0.33324 0.19481 0.30519 0.0
C552 C 0.33232 0.17603 0.24509 0.0
H553 H 0.32374 0.20208 0.41902 0.0
H554 H 0.34103 0.21619 0.29809 0.0
S555 S 0.30678 0.10182 0.24896 0.0
N556 N 0.30237 0.11322 0.33416 0.0
N557 N 0.32046 0.12867 0.20288 0.0
C558 C 0.32195 0.14853 0.25687 0.0
C559 C 0.31232 0.1401 0.32811 0.0
loop_
_geom_bond_atom_site_label_1
_geom_bond_atom_site_label_2
_geom_bond_distance
_geom_bond_site_symmetry_2
_ccdc_geom_bond_type
C0 O1 1.160 . S
C0 O7 1.185 1_554 S
O1 C0 1.160 . S
O2 Zn3 1.899 . S
O2 C10 1.284 . S
Zn3 O2 1.899 . S
Zn3 O4 2.032 1_554 S
Zn3 O7 2.086 1_554 S
Zn3 O12 1.977 1_554 S
O4 Zn3 2.032 1_556 S
O4 C8 1.278 . S
C5 O6 1.203 . S
C5 O12 1.267 1_554 S
O6 C5 1.203 . S
O7 C0 1.185 1_556 S
O7 Zn3 2.086 1_556 S
C8 O4 1.278 . S
C8 O9 1.211 . S
O9 C8 1.211 . S
C10 O2 1.284 . S
C10 O11 1.273 . S
O11 C10 1.273 . S
O12 Zn3 1.977 1_556 S
O12 C5 1.267 1_556 S
C13 O14 1.160 . S
C13 O20 1.185 1_554 S
O14 C13 1.160 . S
O15 Zn16 1.899 . S
O15 C23 1.284 . S
Zn16 O15 1.899 . S
Zn16 O17 2.032 1_554 S
Zn16 O20 2.086 1_554 S
Zn16 O25 1.977 1_554 S
O17 Zn16 2.032 1_556 S
O17 C21 1.278 . S
C18 O19 1.203 . S
C18 O25 1.267 1_554 S
O19 C18 1.203 . S
O20 C13 1.185 1_556 S
O20 Zn16 2.086 1_556 S
C21 O17 1.278 . S
C21 O22 1.211 . S
O22 C21 1.211 . S
C23 O15 1.284 . S
C23 O24 1.273 . S
O24 C23 1.273 . S
O25 Zn16 1.977 1_556 S
O25 C18 1.267 1_556 S
C26 O27 1.160 . S
C26 O33 1.185 1_554 S
O27 C26 1.160 . S
O28 Zn29 1.899 . S
O28 C36 1.284 . S
Zn29 O28 1.899 . S
Zn29 O30 2.032 1_554 S
Zn29 O33 2.086 1_554 S
Zn29 O38 1.977 1_554 S
O30 Zn29 2.032 1_556 S
O30 C34 1.278 . S
C31 O32 1.203 . S
C31 O38 1.267 1_554 S
O32 C31 1.203 . S
O33 C26 1.185 1_556 S
O33 Zn29 2.086 1_556 S
C34 O30 1.278 . S
C34 O35 1.211 . S
O35 C34 1.211 . S
C36 O28 1.284 . S
C36 O37 1.273 . S
O37 C36 1.273 . S
O38 Zn29 1.977 1_556 S
O38 C31 1.267 1_556 S
C39 O40 1.160 . S
C39 O46 1.185 1_554 S
O40 C39 1.160 . S
O41 Zn42 1.899 . S
O41 C49 1.284 . S
Zn42 O41 1.899 . S
Zn42 O43 2.032 1_554 S
Zn42 O46 2.086 1_554 S
Zn42 O51 1.977 1_554 S
O43 Zn42 2.032 1_556 S
O43 C47 1.278 . S
C44 O45 1.203 . S
C44 O51 1.267 1_554 S
O45 C44 1.203 . S
O46 C39 1.185 1_556 S
O46 Zn42 2.086 1_556 S
C47 O43 1.278 . S
C47 O48 1.211 . S
O48 C47 1.211 . S
C49 O41 1.284 . S
C49 O50 1.273 . S
O50 C49 1.273 . S
O51 Zn42 1.977 1_556 S
O51 C44 1.267 1_556 S
C52 O53 1.160 . S
C52 O59 1.185 1_556 S
O53 C52 1.160 . S
O54 Zn55 1.899 . S
O54 C62 1.284 . S
Zn55 O54 1.899 . S
Zn55 O56 2.032 1_556 S
Zn55 O59 2.086 1_556 S
Zn55 O64 1.977 1_556 S
O56 Zn55 2.032 1_554 S
O56 C60 1.278 . S
C57 O58 1.203 . S
C57 O64 1.267 1_556 S
O58 C57 1.203 . S
O59 C52 1.185 1_554 S
O59 Zn55 2.086 1_554 S
C60 O56 1.278 . S
C60 O61 1.211 . S
O61 C60 1.211 . S
C62 O54 1.284 . S
C62 O63 1.273 . S
O63 C62 1.273 . S
O64 Zn55 1.977 1_554 S
O64 C57 1.267 1_554 S
C65 O66 1.160 . S
C65 O72 1.185 1_556 S
O66 C65 1.160 . S
O67 Zn68 1.899 . S
O67 C75 1.284 . S
Zn68 O67 1.899 . S
Zn68 O69 2.032 1_556 S
Zn68 O72 2.086 1_556 S
Zn68 O77 1.977 1_556 S
O69 Zn68 2.032 1_554 S
O69 C73 1.278 . S
C70 O71 1.203 . S
C70 O77 1.267 1_556 S
O71 C70 1.203 . S
O72 C65 1.185 1_554 S
O72 Zn68 2.086 1_554 S
C73 O69 1.278 . S
C73 O74 1.211 . S
O74 C73 1.211 . S
C75 O67 1.284 . S
C75 O76 1.273 . S
O76 C75 1.273 . S
O77 Zn68 1.977 1_554 S
O77 C70 1.267 1_554 S
C78 O79 1.160 . S
C78 O85 1.185 1_556 S
O79 C78 1.160 . S
O80 Zn81 1.899 . S
O80 C88 1.284 . S
Zn81 O80 1.899 . S
Zn81 O82 2.032 1_556 S
Zn81 O85 2.086 1_556 S
Zn81 O90 1.977 1_556 S
O82 Zn81 2.032 1_554 S
O82 C86 1.278 . S
C83 O84 1.203 . S
C83 O90 1.267 1_556 S
O84 C83 1.203 . S
O85 C78 1.185 1_554 S
O85 Zn81 2.086 1_554 S
C86 O82 1.278 . S
C86 O87 1.211 . S
O87 C86 1.211 . S
C88 O80 1.284 . S
C88 O89 1.273 . S
O89 C88 1.273 . S
O90 Zn81 1.977 1_554 S
O90 C83 1.267 1_554 S
C91 O92 1.160 . S
C91 O98 1.185 1_556 S
O92 C91 1.160 . S
O93 Zn94 1.899 . S
O93 C101 1.284 . S
Zn94 O93 1.899 . S
Zn94 O95 2.032 1_556 S
Zn94 O98 2.086 1_556 S
Zn94 O103 1.977 1_556 S
O95 Zn94 2.032 1_554 S
O95 C99 1.278 . S
C96 O97 1.203 . S
C96 O103 1.267 1_556 S
O97 C96 1.203 . S
O98 C91 1.185 1_554 S
O98 Zn94 2.086 1_554 S
C99 O95 1.278 . S
C99 O100 1.211 . S
O100 C99 1.211 . S
C101 O93 1.284 . S
C101 O102 1.273 . S
O102 C101 1.273 . S
O103 Zn94 1.977 1_554 S
O103 C96 1.267 1_554 S
C104 O105 1.160 . S
C104 O111 1.185 . S
O105 C104 1.160 . S
O106 Zn107 1.899 . S
O106 C114 1.284 . S
Zn107 O106 1.899 . S
Zn107 O108 2.032 . S
Zn107 O111 2.086 . S
Zn107 O116 1.977 . S
O108 Zn107 2.032 . S
O108 C112 1.278 . S
C109 O110 1.203 . S
C109 O116 1.267 . S
O110 C109 1.203 . S
O111 C104 1.185 . S
O111 Zn107 2.086 . S
C112 O108 1.278 . S
C112 O113 1.211 . S
O113 C112 1.211 . S
C114 O106 1.284 . S
C114 O115 1.273 . S
O115 C114 1.273 . S
O116 Zn107 1.977 . S
O116 C109 1.267 . S
C117 O118 1.160 . S
C117 O124 1.185 . S
O118 C117 1.160 . S
O119 Zn120 1.899 . S
O119 C127 1.284 . S
Zn120 O119 1.899 . S
Zn120 O121 2.032 . S
Zn120 O124 2.086 . S
Zn120 O129 1.977 . S
O121 Zn120 2.032 . S
O121 C125 1.278 . S
C122 O123 1.203 . S
C122 O129 1.267 . S
O123 C122 1.203 . S
O124 C117 1.185 . S
O124 Zn120 2.086 . S
C125 O121 1.278 . S
C125 O126 1.211 . S
O126 C125 1.211 . S
C127 O119 1.284 . S
C127 O128 1.273 . S
O128 C127 1.273 . S
O129 Zn120 1.977 . S
O129 C122 1.267 . S
C130 O131 1.160 . S
C130 O137 1.185 . S
O131 C130 1.160 . S
O132 Zn133 1.899 . S
O132 C140 1.284 . S
Zn133 O132 1.899 . S
Zn133 O134 2.032 . S
Zn133 O137 2.086 . S
Zn133 O142 1.977 . S
O134 Zn133 2.032 . S
O134 C138 1.278 . S
C135 O136 1.203 . S
C135 O142 1.267 . S
O136 C135 1.203 . S
O137 C130 1.185 . S
O137 Zn133 2.086 . S
C138 O134 1.278 . S
C138 O139 1.211 . S
O139 C138 1.211 . S
C140 O132 1.284 . S
C140 O141 1.273 . S
O141 C140 1.273 . S
O142 Zn133 1.977 . S
O142 C135 1.267 . S
C143 O144 1.160 . S
C143 O150 1.185 . S
O144 C143 1.160 . S
O145 Zn146 1.899 . S
O145 C153 1.284 . S
Zn146 O145 1.899 . S
Zn146 O147 2.032 . S
Zn146 O150 2.086 . S
Zn146 O155 1.977 . S
O147 Zn146 2.032 . S
O147 C151 1.278 . S
C148 O149 1.203 . S
C148 O155 1.267 . S
O149 C148 1.203 . S
O150 C143 1.185 . S
O150 Zn146 2.086 . S
C151 O147 1.278 . S
C151 O152 1.211 . S
O152 C151 1.211 . S
C153 O145 1.284 . S
C153 O154 1.273 . S
O154 C153 1.273 . S
O155 Zn146 1.977 . S
O155 C148 1.267 . S
C156 O157 1.160 . S
C156 O163 1.185 . S
O157 C156 1.160 . S
O158 Zn159 1.899 . S
O158 C166 1.284 . S
Zn159 O158 1.899 . S
Zn159 O160 2.032 . S
Zn159 O163 2.086 . S
Zn159 O168 1.977 . S
O160 Zn159 2.032 . S
O160 C164 1.278 . S
C161 O162 1.203 . S
C161 O168 1.267 . S
O162 C161 1.203 . S
O163 C156 1.185 . S
O163 Zn159 2.086 . S
C164 O160 1.278 . S
C164 O165 1.211 . S
O165 C164 1.211 . S
C166 O158 1.284 . S
C166 O167 1.273 . S
O167 C166 1.273 . S
O168 Zn159 1.977 . S
O168 C161 1.267 . S
C169 O170 1.160 . S
C169 O176 1.185 . S
O170 C169 1.160 . S
O171 Zn172 1.899 . S
O171 C179 1.284 . S
Zn172 O171 1.899 . S
Zn172 O173 2.032 . S
Zn172 O176 2.086 . S
Zn172 O181 1.977 . S
O173 Zn172 2.032 . S
O173 C177 1.278 . S
C174 O175 1.203 . S
C174 O181 1.267 . S
O175 C174 1.203 . S
O176 C169 1.185 . S
O176 Zn172 2.086 . S
C177 O173 1.278 . S
C177 O178 1.211 . S
O178 C177 1.211 . S
C179 O171 1.284 . S
C179 O180 1.273 . S
O180 C179 1.273 . S
O181 Zn172 1.977 . S
O181 C174 1.267 . S
C182 O183 1.160 . S
C182 O189 1.185 . S
O183 C182 1.160 . S
O184 Zn185 1.899 . S
O184 C192 1.284 . S
Zn185 O184 1.899 . S
Zn185 O186 2.032 . S
Zn185 O189 2.086 . S
Zn185 O194 1.977 . S
O186 Zn185 2.032 . S
O186 C190 1.278 . S
C187 O188 1.203 . S
C187 O194 1.267 . S
O188 C187 1.203 . S
O189 C182 1.185 . S
O189 Zn185 2.086 . S
C190 O186 1.278 . S
C190 O191 1.211 . S
O191 C190 1.211 . S
C192 O184 1.284 . S
C192 O193 1.273 . S
O193 C192 1.273 . S
O194 Zn185 1.977 . S
O194 C187 1.267 . S
C195 O196 1.160 . S
C195 O202 1.185 . S
O196 C195 1.160 . S
O197 Zn198 1.899 . S
O197 C205 1.284 . S
Zn198 O197 1.899 . S
Zn198 O199 2.032 . S
Zn198 O202 2.086 . S
Zn198 O207 1.977 . S
O199 Zn198 2.032 . S
O199 C203 1.278 . S
C200 O201 1.203 . S
C200 O207 1.267 . S
O201 C200 1.203 . S
O202 C195 1.185 . S
O202 Zn198 2.086 . S
C203 O199 1.278 . S
C203 O204 1.211 . S
O204 C203 1.211 . S
C205 O197 1.284 . S
C205 O206 1.273 . S
O206 C205 1.273 . S
O207 Zn198 1.977 . S
O207 C200 1.267 . S
C208 C209 1.369 . S
C208 C210 1.419 . S
C208 H212 0.930 . S
C209 C208 1.369 . S
C209 C218 1.429 1_554 S
C210 C208 1.419 . S
C210 C211 1.363 1_554 S
C210 H213 0.929 . S
C211 C210 1.363 1_556 S
C211 C217 1.428 . S
H212 C208 0.930 . S
H213 C210 0.929 . S
S214 N215 1.613 . S
S214 N216 1.610 . S
N215 S214 1.613 . S
N215 C218 1.350 . S
N216 S214 1.610 . S
N216 C217 1.351 . S
C217 C211 1.428 . S
C217 N216 1.351 . S
C217 C218 1.434 . S
C218 C209 1.429 1_556 S
C218 N215 1.350 . S
C218 C217 1.434 . S
C219 C220 1.369 . S
C219 C221 1.419 . S
C219 H223 0.930 . S
C220 C219 1.369 . S
C220 C229 1.429 . S
C221 C219 1.419 . S
C221 C222 1.363 1_554 S
C221 H224 0.929 . S
C222 C221 1.363 1_556 S
C222 C228 1.428 . S
H223 C219 0.930 . S
H224 C221 0.929 . S
S225 N226 1.613 1_556 S
S225 N227 1.610 . S
N226 S225 1.613 1_554 S
N226 C229 1.350 . S
N227 S225 1.610 . S
N227 C228 1.351 . S
C228 C222 1.428 . S
C228 N227 1.351 . S
C228 C229 1.434 1_556 S
C229 C220 1.429 . S
C229 N226 1.350 . S
C229 C228 1.434 1_554 S
C230 C231 1.369 . S
C230 C232 1.419 . S
C230 H234 0.930 . S
C231 C230 1.369 . S
C231 C240 1.429 1_554 S
C232 C230 1.419 . S
C232 C233 1.363 1_554 S
C232 H235 0.929 . S
C233 C232 1.363 1_556 S
C233 C239 1.428 . S
H234 C230 0.930 . S
H235 C232 0.929 . S
S236 N237 1.613 . S
S236 N238 1.610 . S
N237 S236 1.613 . S
N237 C240 1.350 . S
N238 S236 1.610 . S
N238 C239 1.351 . S
C239 C233 1.428 . S
C239 N238 1.351 . S
C239 C240 1.434 . S
C240 C231 1.429 1_556 S
C240 N237 1.350 . S
C240 C239 1.434 . S
C241 C242 1.369 . S
C241 C243 1.419 . S
C241 H245 0.930 . S
C242 C241 1.369 . S
C242 C251 1.429 1_554 S
C243 C241 1.419 . S
C243 C244 1.363 1_554 S
C243 H246 0.929 . S
C244 C243 1.363 1_556 S
C244 C250 1.428 . S
H245 C241 0.930 . S
H246 C243 0.929 . S
S247 N248 1.613 . S
S247 N249 1.610 . S
N248 S247 1.613 . S
N248 C251 1.350 . S
N249 S247 1.610 . S
N249 C250 1.351 . S
C250 C244 1.428 . S
C250 N249 1.351 . S
C250 C251 1.434 . S
C251 C242 1.429 1_556 S
C251 N248 1.350 . S
C251 C250 1.434 . S
C252 C253 1.369 . S
C252 C254 1.419 1_545 S
C252 H256 0.930 . S
C253 C252 1.369 . S
C253 C262 1.429 . S
C254 C252 1.419 1_565 S
C254 C255 1.363 . S
C254 H257 0.929 . S
C255 C254 1.363 . S
C255 C261 1.428 . S
H256 C252 0.930 . S
H257 C254 0.929 . S
S258 N259 1.613 . S
S258 N260 1.610 1_545 S
N259 S258 1.613 . S
N259 C262 1.350 . S
N260 S258 1.610 1_565 S
N260 C261 1.351 . S
C261 C255 1.428 . S
C261 N260 1.351 . S
C261 C262 1.434 1_565 S
C262 C253 1.429 . S
C262 N259 1.350 . S
C262 C261 1.434 1_545 S
C263 C264 1.369 . S
C263 C265 1.419 1_655 S
C263 H267 0.930 . S
C264 C263 1.369 . S
C264 C273 1.429 . S
C265 C263 1.419 1_455 S
C265 C266 1.363 . S
C265 H268 0.929 . S
C266 C265 1.363 . S
C266 C272 1.428 . S
H267 C263 0.930 . S
H268 C265 0.929 . S
S269 N270 1.613 1_455 S
S269 N271 1.610 . S
N270 S269 1.613 1_655 S
N270 C273 1.350 . S
N271 S269 1.610 . S
N271 C272 1.351 . S
C272 C266 1.428 . S
C272 N271 1.351 . S
C272 C273 1.434 1_455 S
C273 C264 1.429 . S
C273 N270 1.350 . S
C273 C272 1.434 1_655 S
C274 C275 1.369 . S
C274 C276 1.419 1_545 S
C274 H278 0.930 . S
C275 C274 1.369 . S
C275 C284 1.429 . S
C276 C274 1.419 1_565 S
C276 C277 1.363 . S
C276 H279 0.929 . S
C277 C276 1.363 . S
C277 C283 1.428 . S
H278 C274 0.930 . S
H279 C276 0.929 . S
S280 N281 1.613 . S
S280 N282 1.610 1_545 S
N281 S280 1.613 . S
N281 C284 1.350 . S
N282 S280 1.610 1_565 S
N282 C283 1.351 . S
C283 C277 1.428 . S
C283 N282 1.351 . S
C283 C284 1.434 1_565 S
C284 C275 1.429 . S
C284 N281 1.350 . S
C284 C283 1.434 1_545 S
C285 C286 1.369 . S
C285 C287 1.419 1_455 S
C285 H289 0.930 . S
C286 C285 1.369 . S
C286 C295 1.429 . S
C287 C285 1.419 1_655 S
C287 C288 1.363 . S
C287 H290 0.929 . S
C288 C287 1.363 . S
C288 C294 1.428 . S
H289 C285 0.930 . S
H290 C287 0.929 . S
S291 N292 1.613 1_655 S
S291 N293 1.610 . S
N292 S291 1.613 1_455 S
N292 C295 1.350 . S
N293 S291 1.610 . S
N293 C294 1.351 . S
C294 C288 1.428 . S
C294 N293 1.351 . S
C294 C295 1.434 1_655 S
C295 C286 1.429 . S
C295 N292 1.350 . S
C295 C294 1.434 1_455 S
C296 C297 1.369 . S
C296 C298 1.419 . S
C296 H300 0.930 . S
C297 C296 1.369 . S
C297 C306 1.429 1_554 S
C298 C296 1.419 . S
C298 C299 1.363 1_554 S
C298 H301 0.929 . S
C299 C298 1.363 1_556 S
C299 C305 1.428 . S
H300 C296 0.930 . S
H301 C298 0.929 . S
S302 N303 1.613 . S
S302 N304 1.610 . S
N303 S302 1.613 . S
N303 C306 1.350 . S
N304 S302 1.610 . S
N304 C305 1.351 . S
C305 C299 1.428 . S
C305 N304 1.351 . S
C305 C306 1.434 . S
C306 C297 1.429 1_556 S
C306 N303 1.350 . S
C306 C305 1.434 . S
C307 C308 1.370 . S
C307 C309 1.419 . S
C307 H311 0.930 . S
C308 C307 1.370 . S
C308 C317 1.428 1_556 S
C309 C307 1.419 . S
C309 C310 1.363 1_556 S
C309 H312 0.929 . S
C310 C309 1.363 1_554 S
C310 C316 1.428 . S
H311 C307 0.930 . S
H312 C309 0.929 . S
S313 N314 1.613 . S
S313 N315 1.610 . S
N314 S313 1.613 . S
N314 C317 1.350 . S
N315 S313 1.610 . S
N315 C316 1.351 . S
C316 C310 1.428 . S
C316 N315 1.351 . S
C316 C317 1.434 . S
C317 C308 1.428 1_554 S
C317 N314 1.350 . S
C317 C316 1.434 . S
C318 C319 1.369 . S
C318 C320 1.419 . S
C318 H322 0.930 . S
C319 C318 1.369 . S
C319 C328 1.429 1_554 S
C320 C318 1.419 . S
C320 C321 1.363 1_554 S
C320 H323 0.929 . S
C321 C320 1.363 1_556 S
C321 C327 1.428 . S
H322 C318 0.930 . S
H323 C320 0.929 . S
S324 N325 1.613 . S
S324 N326 1.610 . S
N325 S324 1.613 . S
N325 C328 1.350 . S
N326 S324 1.610 . S
N326 C327 1.351 . S
C327 C321 1.428 . S
C327 N326 1.351 . S
C327 C328 1.434 . S
C328 C319 1.429 1_556 S
C328 N325 1.350 . S
C328 C327 1.434 . S
C329 C330 1.369 1_554 S
C329 C331 1.419 . S
C329 H333 0.930 . S
C330 C329 1.369 1_556 S
C330 C339 1.429 . S
C331 C329 1.419 . S
C331 C332 1.363 . S
C331 H334 0.929 . S
C332 C331 1.363 . S
C332 C338 1.428 1_554 S
H333 C329 0.930 . S
H334 C331 0.929 . S
S335 N336 1.613 . S
S335 N337 1.610 . S
N336 S335 1.613 . S
N336 C339 1.350 . S
N337 S335 1.610 . S
N337 C338 1.351 . S
C338 C332 1.428 1_556 S
C338 N337 1.351 . S
C338 C339 1.434 . S
C339 C330 1.429 . S
C339 N336 1.350 . S
C339 C338 1.434 . S
C340 C341 1.369 . S
C340 C342 1.419 . S
C340 H344 0.930 . S
C341 C340 1.369 . S
C341 C350 1.429 . S
C342 C340 1.419 . S
C342 C343 1.363 . S
C342 H345 0.929 . S
C343 C342 1.363 . S
C343 C349 1.428 . S
H344 C340 0.930 . S
H345 C342 0.929 . S
S346 N347 1.613 . S
S346 N348 1.610 . S
N347 S346 1.613 . S
N347 C350 1.350 . S
N348 S346 1.610 . S
N348 C349 1.351 . S
C349 C343 1.428 . S
C349 N348 1.351 . S
C349 C350 1.434 . S
C350 C341 1.429 . S
C350 N347 1.350 . S
C350 C349 1.434 . S
C351 C352 1.369 . S
C351 C353 1.419 . S
C351 H355 0.930 . S
C352 C351 1.369 . S
C352 C361 1.429 . S
C353 C351 1.419 . S
C353 C354 1.363 . S
C353 H356 0.929 . S
C354 C353 1.363 . S
C354 C360 1.428 . S
H355 C351 0.930 . S
H356 C353 0.929 . S
S357 N358 1.613 . S
S357 N359 1.610 . S
N358 S357 1.613 . S
N358 C361 1.350 . S
N359 S357 1.610 . S
N359 C360 1.351 . S
C360 C354 1.428 . S
C360 N359 1.351 . S
C360 C361 1.434 . S
C361 C352 1.429 . S
C361 N358 1.350 . S
C361 C360 1.434 . S
C362 C363 1.369 . S
C362 C364 1.419 . S
C362 H366 0.930 . S
C363 C362 1.369 . S
C363 C372 1.429 . S
C364 C362 1.419 . S
C364 C365 1.363 . S
C364 H367 0.929 . S
C365 C364 1.363 . S
C365 C371 1.428 . S
H366 C362 0.930 . S
H367 C364 0.929 . S
S368 N369 1.613 . S
S368 N370 1.610 . S
N369 S368 1.613 . S
N369 C372 1.350 . S
N370 S368 1.610 . S
N370 C371 1.351 . S
C371 C365 1.428 . S
C371 N370 1.351 . S
C371 C372 1.434 . S
C372 C363 1.429 . S
C372 N369 1.350 . S
C372 C371 1.434 . S
C373 C374 1.369 . S
C373 C375 1.419 . S
C373 H377 0.930 . S
C374 C373 1.369 . S
C374 C383 1.429 . S
C375 C373 1.419 . S
C375 C376 1.363 . S
C375 H378 0.929 . S
C376 C375 1.363 . S
C376 C382 1.428 . S
H377 C373 0.930 . S
H378 C375 0.929 . S
S379 N380 1.613 . S
S379 N381 1.610 . S
N380 S379 1.613 . S
N380 C383 1.350 . S
N381 S379 1.610 . S
N381 C382 1.351 . S
C382 C376 1.428 . S
C382 N381 1.351 . S
C382 C383 1.434 . S
C383 C374 1.429 . S
C383 N380 1.350 . S
C383 C382 1.434 . S
C384 C385 1.369 . S
C384 C386 1.419 . S
C384 H388 0.930 . S
C385 C384 1.369 . S
C385 C394 1.429 . S
C386 C384 1.419 . S
C386 C387 1.363 . S
C386 H389 0.929 . S
C387 C386 1.363 . S
C387 C393 1.428 . S
H388 C384 0.930 . S
H389 C386 0.929 . S
S390 N391 1.613 . S
S390 N392 1.610 . S
N391 S390 1.613 . S
N391 C394 1.350 . S
N392 S390 1.610 . S
N392 C393 1.351 . S
C393 C387 1.428 . S
C393 N392 1.351 . S
C393 C394 1.434 . S
C394 C385 1.429 . S
C394 N391 1.350 . S
C394 C393 1.434 . S
C395 C396 1.369 . S
C395 C397 1.419 . S
C395 H399 0.930 . S
C396 C395 1.369 . S
C396 C405 1.429 . S
C397 C395 1.419 . S
C397 C398 1.363 . S
C397 H400 0.929 . S
C398 C397 1.363 . S
C398 C404 1.428 . S
H399 C395 0.930 . S
H400 C397 0.929 . S
S401 N402 1.613 . S
S401 N403 1.610 . S
N402 S401 1.613 . S
N402 C405 1.350 . S
N403 S401 1.610 . S
N403 C404 1.351 . S
C404 C398 1.428 . S
C404 N403 1.351 . S
C404 C405 1.434 . S
C405 C396 1.429 . S
C405 N402 1.350 . S
C405 C404 1.434 . S
C406 C407 1.369 . S
C406 C408 1.419 . S
C406 H410 0.930 . S
C407 C406 1.369 . S
C407 C416 1.429 . S
C408 C406 1.419 . S
C408 C409 1.363 . S
C408 H411 0.929 . S
C409 C408 1.363 . S
C409 C415 1.428 . S
H410 C406 0.930 . S
H411 C408 0.929 . S
S412 N413 1.613 . S
S412 N414 1.610 . S
N413 S412 1.613 . S
N413 C416 1.350 . S
N414 S412 1.610 . S
N414 C415 1.351 . S
C415 C409 1.428 . S
C415 N414 1.351 . S
C415 C416 1.434 . S
C416 C407 1.429 . S
C416 N413 1.350 . S
C416 C415 1.434 . S
C417 C418 1.369 . S
C417 C419 1.419 . S
C417 H421 0.930 . S
C418 C417 1.369 . S
C418 C427 1.429 . S
C419 C417 1.419 . S
C419 C420 1.363 . S
C419 H422 0.929 . S
C420 C419 1.363 . S
C420 C426 1.428 . S
H421 C417 0.930 . S
H422 C419 0.929 . S
S423 N424 1.613 . S
S423 N425 1.610 . S
N424 S423 1.613 . S
N424 C427 1.350 . S
N425 S423 1.610 . S
N425 C426 1.351 . S
C426 C420 1.428 . S
C426 N425 1.351 . S
C426 C427 1.434 . S
C427 C418 1.429 . S
C427 N424 1.350 . S
C427 C426 1.434 . S
C428 C429 1.369 . S
C428 C430 1.419 . S
C428 H432 0.930 . S
C429 C428 1.369 . S
C429 C438 1.429 . S
C430 C428 1.419 . S
C430 C431 1.363 . S
C430 H433 0.929 . S
C431 C430 1.363 . S
C431 C437 1.428 . S
H432 C428 0.930 . S
H433 C430 0.929 . S
S434 N435 1.613 . S
S434 N436 1.610 . S
N435 S434 1.613 . S
N435 C438 1.350 . S
N436 S434 1.610 . S
N436 C437 1.351 . S
C437 C431 1.428 . S
C437 N436 1.351 . S
C437 C438 1.434 . S
C438 C429 1.429 . S
C438 N435 1.350 . S
C438 C437 1.434 . S
C439 C440 1.369 . S
C439 C441 1.419 . S
C439 H443 0.930 . S
C440 C439 1.369 . S
C440 C449 1.429 . S
C441 C439 1.419 . S
C441 C442 1.363 . S
C441 H444 0.929 . S
C442 C441 1.363 . S
C442 C448 1.428 . S
H443 C439 0.930 . S
H444 C441 0.929 . S
S445 N446 1.613 . S
S445 N447 1.610 . S
N446 S445 1.613 . S
N446 C449 1.350 . S
N447 S445 1.610 . S
N447 C448 1.351 . S
C448 C442 1.428 . S
C448 N447 1.351 . S
C448 C449 1.434 . S
C449 C440 1.429 . S
C449 N446 1.350 . S
C449 C448 1.434 . S
C450 C451 1.369 . S
C450 C452 1.419 . S
C450 H454 0.930 . S
C451 C450 1.369 . S
C451 C460 1.429 . S
C452 C450 1.419 . S
C452 C453 1.363 . S
C452 H455 0.929 . S
C453 C452 1.363 . S
C453 C459 1.428 . S
H454 C450 0.930 . S
H455 C452 0.929 . S
S456 N457 1.613 . S
S456 N458 1.610 . S
N457 S456 1.613 . S
N457 C460 1.350 . S
N458 S456 1.610 . S
N458 C459 1.351 . S
C459 C453 1.428 . S
C459 N458 1.351 . S
C459 C460 1.434 . S
C460 C451 1.429 . S
C460 N457 1.350 . S
C460 C459 1.434 . S
C461 C462 1.369 . S
C461 C463 1.419 . S
C461 H465 0.930 . S
C462 C461 1.369 . S
C462 C471 1.429 . S
C463 C461 1.419 . S
C463 C464 1.363 . S
C463 H466 0.929 . S
C464 C463 1.363 . S
C464 C470 1.428 . S
H465 C461 0.930 . S
H466 C463 0.929 . S
S467 N468 1.613 . S
S467 N469 1.610 . S
N468 S467 1.613 . S
N468 C471 1.350 . S
N469 S467 1.610 . S
N469 C470 1.351 . S
C470 C464 1.428 . S
C470 N469 1.351 . S
C470 C471 1.434 . S
C471 C462 1.429 . S
C471 N468 1.350 . S
C471 C470 1.434 . S
C472 C473 1.369 . S
C472 C474 1.419 . S
C472 H476 0.930 . S
C473 C472 1.369 . S
C473 C482 1.429 . S
C474 C472 1.419 . S
C474 C475 1.363 . S
C474 H477 0.929 . S
C475 C474 1.363 . S
C475 C481 1.428 . S
H476 C472 0.930 . S
H477 C474 0.929 . S
S478 N479 1.613 . S
S478 N480 1.610 . S
N479 S478 1.613 . S
N479 C482 1.350 . S
N480 S478 1.610 . S
N480 C481 1.351 . S
C481 C475 1.428 . S
C481 N480 1.351 . S
C481 C482 1.434 . S
C482 C473 1.429 . S
C482 N479 1.350 . S
C482 C481 1.434 . S
C483 C484 1.369 . S
C483 C485 1.419 . S
C483 H487 0.930 . S
C484 C483 1.369 . S
C484 C493 1.429 . S
C485 C483 1.419 . S
C485 C486 1.363 . S
C485 H488 0.929 . S
C486 C485 1.363 . S
C486 C492 1.428 . S
H487 C483 0.930 . S
H488 C485 0.929 . S
S489 N490 1.613 . S
S489 N491 1.610 . S
N490 S489 1.613 . S
N490 C493 1.350 . S
N491 S489 1.610 . S
N491 C492 1.351 . S
C492 C486 1.428 . S
C492 N491 1.351 . S
C492 C493 1.434 . S
C493 C484 1.429 . S
C493 N490 1.350 . S
C493 C492 1.434 . S
C494 C495 1.369 . S
C494 C496 1.419 . S
C494 H498 0.930 . S
C495 C494 1.369 . S
C495 C504 1.429 . S
C496 C494 1.419 . S
C496 C497 1.363 . S
C496 H499 0.929 . S
C497 C496 1.363 . S
C497 C503 1.428 . S
H498 C494 0.930 . S
H499 C496 0.929 . S
S500 N501 1.613 . S
S500 N502 1.610 . S
N501 S500 1.613 . S
N501 C504 1.350 . S
N502 S500 1.610 . S
N502 C503 1.351 . S
C503 C497 1.428 . S
C503 N502 1.351 . S
C503 C504 1.434 . S
C504 C495 1.429 . S
C504 N501 1.350 . S
C504 C503 1.434 . S
C505 C506 1.369 . S
C505 C507 1.419 . S
C505 H509 0.930 . S
C506 C505 1.369 . S
C506 C515 1.429 . S
C507 C505 1.419 . S
C507 C508 1.363 . S
C507 H510 0.929 . S
C508 C507 1.363 . S
C508 C514 1.428 . S
H509 C505 0.930 . S
H510 C507 0.929 . S
S511 N512 1.613 . S
S511 N513 1.610 . S
N512 S511 1.613 . S
N512 C515 1.350 . S
N513 S511 1.610 . S
N513 C514 1.351 . S
C514 C508 1.428 . S
C514 N513 1.351 . S
C514 C515 1.434 . S
C515 C506 1.429 . S
C515 N512 1.350 . S
C515 C514 1.434 . S
C516 C517 1.369 . S
C516 C518 1.419 . S
C516 H520 0.930 . S
C517 C516 1.369 . S
C517 C526 1.429 . S
C518 C516 1.419 . S
C518 C519 1.363 . S
C518 H521 0.929 . S
C519 C518 1.363 . S
C519 C525 1.428 . S
H520 C516 0.930 . S
H521 C518 0.929 . S
S522 N523 1.613 . S
S522 N524 1.610 . S
N523 S522 1.613 . S
N523 C526 1.350 . S
N524 S522 1.610 . S
N524 C525 1.351 . S
C525 C519 1.428 . S
C525 N524 1.351 . S
C525 C526 1.434 . S
C526 C517 1.429 . S
C526 N523 1.350 . S
C526 C525 1.434 . S
C527 C528 1.369 . S
C527 C529 1.419 . S
C527 H531 0.930 . S
C528 C527 1.369 . S
C528 C537 1.429 . S
C529 C527 1.419 . S
C529 C530 1.363 . S
C529 H532 0.929 . S
C530 C529 1.363 . S
C530 C536 1.428 . S
H531 C527 0.930 . S
H532 C529 0.929 . S
S533 N534 1.613 . S
S533 N535 1.610 . S
N534 S533 1.613 . S
N534 C537 1.350 . S
N535 S533 1.610 . S
N535 C536 1.351 . S
C536 C530 1.428 . S
C536 N535 1.351 . S
C536 C537 1.434 . S
C537 C528 1.429 . S
C537 N534 1.350 . S
C537 C536 1.434 . S
C538 C539 1.369 . S
C538 C540 1.419 . S
C538 H542 0.930 . S
C539 C538 1.369 . S
C539 C548 1.429 . S
C540 C538 1.419 . S
C540 C541 1.363 . S
C540 H543 0.929 . S
C541 C540 1.363 . S
C541 C547 1.428 . S
H542 C538 0.930 . S
H543 C540 0.929 . S
S544 N545 1.613 . S
S544 N546 1.610 . S
N545 S544 1.613 . S
N545 C548 1.350 . S
N546 S544 1.610 . S
N546 C547 1.351 . S
C547 C541 1.428 . S
C547 N546 1.351 . S
C547 C548 1.434 . S
C548 C539 1.429 . S
C548 N545 1.350 . S
C548 C547 1.434 . S
C549 C550 1.369 . S
C549 C551 1.419 . S
C549 H553 0.930 . S
C550 C549 1.369 . S
C550 C559 1.429 . S
C551 C549 1.419 . S
C551 C552 1.363 . S
C551 H554 0.929 . S
C552 C551 1.363 . S
C552 C558 1.428 . S
H553 C549 0.930 . S
H554 C551 0.929 . S
S555 N556 1.613 . S
S555 N557 1.610 . S
N556 S555 1.613 . S
N556 C559 1.350 . S
N557 S555 1.610 . S
N557 C558 1.351 . S
C558 C552 1.428 . S
C558 N557 1.351 . S
C558 C559 1.434 . S
C559 C550 1.429 . S
C559 N556 1.350 . S
C559 C558 1.434 . S
C209 C52 1.239 1_554 S
C211 C0 1.247 1_556 S
C220 C65 1.242 1_554 S
C222 C13 1.240 1_556 S
C231 C78 1.240 1_554 S
C233 C26 1.247 1_556 S
C242 C91 1.242 1_554 S
C244 C39 1.240 1_556 S
C253 C156 1.238 . S
C255 C104 1.246 . S
C264 C169 1.246 . S
C266 C117 1.244 . S
C275 C130 1.242 . S
C277 C182 1.247 . S
C286 C195 1.247 . S
C288 C143 1.239 . S
C297 C5 1.335 . S
C299 C70 1.335 . S
C308 C83 1.344 . S
C310 C18 1.341 . S
C319 C31 1.336 . S
C321 C96 1.336 . S
C330 C57 1.341 . S
C332 C44 1.341 . S
C341 C174 1.333 . S
C343 C109 1.335 . S
C352 C187 1.337 . S
C354 C122 1.336 . S
C363 C135 1.333 . S
C365 C200 1.335 . S
C374 C148 1.343 . S
C376 C161 1.341 . S
C385 C205 1.437 . S
C387 C10 1.438 . S
C396 C166 1.436 . S
C398 C23 1.439 . S
C407 C179 1.436 . S
C409 C36 1.440 . S
C418 C192 1.440 . S
C420 C49 1.438 . S
C429 C127 1.439 . S
C431 C62 1.439 . S
C440 C140 1.439 . S
C442 C75 1.437 . S
C451 C88 1.440 . S
C453 C153 1.437 . S
C462 C101 1.439 . S
C464 C114 1.437 . S
C473 C177 1.457 . S
C475 C34 1.458 . S
C484 C190 1.462 . S
C486 C47 1.462 . S
C495 C203 1.456 . S
C497 C8 1.457 . S
C506 C21 1.463 . S
C508 C164 1.462 . S
C517 C151 1.458 . S
C519 C86 1.459 . S
C528 C99 1.456 . S
C530 C112 1.457 . S
C539 C125 1.455 . S
C541 C60 1.456 . S
C550 C138 1.459 . S
C552 C73 1.459 . S
