# Generated by pormake.
# Topology vbm, (6)-cn, num edge types: 1
# Building blocks:
#     Node 0, Type 0, BuildingBlock: NUHQIS_clean_sbu_0, # of connection points: 6
#     Node 1, Type 0, BuildingBlock: NUHQIS_clean_sbu_0, # of connection points: 6
#     Node 2, Type 0, BuildingBlock: NUHQIS_clean_sbu_0, # of connection points: 6
#     Node 3, Type 0, BuildingBlock: NUHQIS_clean_sbu_0, # of connection points: 6
#     Node 4, Type 0, BuildingBlock: NUHQIS_clean_sbu_0, # of connection points: 6
#     Node 5, Type 0, BuildingBlock: NUHQIS_clean_sbu_0, # of connection points: 6
#     Node 6, Type 0, BuildingBlock: NUHQIS_clean_sbu_0, # of connection points: 6
#     Node 7, Type 0, BuildingBlock: NUHQIS_clean_sbu_0, # of connection points: 6
#     Node 8, Type 0, BuildingBlock: NUHQIS_clean_sbu_0, # of connection points: 6
#     Node 9, Type 0, BuildingBlock: NUHQIS_clean_sbu_0, # of connection points: 6
#     Node 10, Type 0, BuildingBlock: NUHQIS_clean_sbu_0, # of connection points: 6
#     Node 11, Type 0, BuildingBlock: NUHQIS_clean_sbu_0, # of connection points: 6
#     Node 12, Type 0, BuildingBlock: NUHQIS_clean_sbu_0, # of connection points: 6
#     Node 13, Type 0, BuildingBlock: NUHQIS_clean_sbu_0, # of connection points: 6
#     Node 14, Type 0, BuildingBlock: NUHQIS_clean_sbu_0, # of connection points: 6
#     Node 15, Type 0, BuildingBlock: NUHQIS_clean_sbu_0, # of connection points: 6
#     Edge 16, Type (0, 0), BuildingBlock: KIFKEQ_clean_linker_1, # of connection points: 2
#     Edge 17, Type (0, 0), BuildingBlock: KIFKEQ_clean_linker_1, # of connection points: 2
#     Edge 18, Type (0, 0), BuildingBlock: KIFKEQ_clean_linker_1, # of connection points: 2
#     Edge 19, Type (0, 0), BuildingBlock: KIFKEQ_clean_linker_1, # of connection points: 2
#     Edge 20, Type (0, 0), BuildingBlock: KIFKEQ_clean_linker_1, # of connection points: 2
#     Edge 21, Type (0, 0), BuildingBlock: KIFKEQ_clean_linker_1, # of connection points: 2
#     Edge 22, Type (0, 0), BuildingBlock: KIFKEQ_clean_linker_1, # of connection points: 2
#     Edge 23, Type (0, 0), BuildingBlock: KIFKEQ_clean_linker_1, # of connection points: 2
#     Edge 24, Type (0, 0), BuildingBlock: KIFKEQ_clean_linker_1, # of connection points: 2
#     Edge 25, Type (0, 0), BuildingBlock: KIFKEQ_clean_linker_1, # of connection points: 2
#     Edge 26, Type (0, 0), BuildingBlock: KIFKEQ_clean_linker_1, # of connection points: 2
#     Edge 27, Type (0, 0), BuildingBlock: KIFKEQ_clean_linker_1, # of connection points: 2
#     Edge 28, Type (0, 0), BuildingBlock: KIFKEQ_clean_linker_1, # of connection points: 2
#     Edge 29, Type (0, 0), BuildingBlock: KIFKEQ_clean_linker_1, # of connection points: 2
#     Edge 30, Type (0, 0), BuildingBlock: KIFKEQ_clean_linker_1, # of connection points: 2
#     Edge 31, Type (0, 0), BuildingBlock: KIFKEQ_clean_linker_1, # of connection points: 2
#     Edge 32, Type (0, 0), BuildingBlock: KIFKEQ_clean_linker_1, # of connection points: 2
#     Edge 33, Type (0, 0), BuildingBlock: KIFKEQ_clean_linker_1, # of connection points: 2
#     Edge 34, Type (0, 0), BuildingBlock: KIFKEQ_clean_linker_1, # of connection points: 2
#     Edge 35, Type (0, 0), BuildingBlock: KIFKEQ_clean_linker_1, # of connection points: 2
#     Edge 36, Type (0, 0), BuildingBlock: KIFKEQ_clean_linker_1, # of connection points: 2
#     Edge 37, Type (0, 0), BuildingBlock: KIFKEQ_clean_linker_1, # of connection points: 2
#     Edge 38, Type (0, 0), BuildingBlock: KIFKEQ_clean_linker_1, # of connection points: 2
#     Edge 39, Type (0, 0), BuildingBlock: KIFKEQ_clean_linker_1, # of connection points: 2
#     Edge 40, Type (0, 0), BuildingBlock: KIFKEQ_clean_linker_1, # of connection points: 2
#     Edge 41, Type (0, 0), BuildingBlock: KIFKEQ_clean_linker_1, # of connection points: 2
#     Edge 42, Type (0, 0), BuildingBlock: KIFKEQ_clean_linker_1, # of connection points: 2
#     Edge 43, Type (0, 0), BuildingBlock: KIFKEQ_clean_linker_1, # of connection points: 2
#     Edge 44, Type (0, 0), BuildingBlock: KIFKEQ_clean_linker_1, # of connection points: 2
#     Edge 45, Type (0, 0), BuildingBlock: KIFKEQ_clean_linker_1, # of connection points: 2
#     Edge 46, Type (0, 0), BuildingBlock: KIFKEQ_clean_linker_1, # of connection points: 2
#     Edge 47, Type (0, 0), BuildingBlock: KIFKEQ_clean_linker_1, # of connection points: 2
#     Edge 48, Type (0, 0), BuildingBlock: KIFKEQ_clean_linker_1, # of connection points: 2
#     Edge 49, Type (0, 0), BuildingBlock: KIFKEQ_clean_linker_1, # of connection points: 2
#     Edge 50, Type (0, 0), BuildingBlock: KIFKEQ_clean_linker_1, # of connection points: 2
#     Edge 51, Type (0, 0), BuildingBlock: KIFKEQ_clean_linker_1, # of connection points: 2
#     Edge 52, Type (0, 0), BuildingBlock: KIFKEQ_clean_linker_1, # of connection points: 2
#     Edge 53, Type (0, 0), BuildingBlock: KIFKEQ_clean_linker_1, # of connection points: 2
#     Edge 54, Type (0, 0), BuildingBlock: KIFKEQ_clean_linker_1, # of connection points: 2
#     Edge 55, Type (0, 0), BuildingBlock: KIFKEQ_clean_linker_1, # of connection points: 2
#     Edge 56, Type (0, 0), BuildingBlock: KIFKEQ_clean_linker_1, # of connection points: 2
#     Edge 57, Type (0, 0), BuildingBlock: KIFKEQ_clean_linker_1, # of connection points: 2
#     Edge 58, Type (0, 0), BuildingBlock: KIFKEQ_clean_linker_1, # of connection points: 2
#     Edge 59, Type (0, 0), BuildingBlock: KIFKEQ_clean_linker_1, # of connection points: 2
#     Edge 60, Type (0, 0), BuildingBlock: KIFKEQ_clean_linker_1, # of connection points: 2
#     Edge 61, Type (0, 0), BuildingBlock: KIFKEQ_clean_linker_1, # of connection points: 2
#     Edge 62, Type (0, 0), BuildingBlock: KIFKEQ_clean_linker_1, # of connection points: 2
#     Edge 63, Type (0, 0), BuildingBlock: KIFKEQ_clean_linker_1, # of connection points: 2
# Relax obj value: 0.062
# Max RMSD: 0.140
# Mean RMSD: 0.140
data_MOF--net-vbm--node1-NUHQIS_clean_sbu_0--edge1-KIFKEQ_clean_linker_1
_symmetry_space_group_name_H-M    P1
_symmetry_Int_Tables_number       1
_symmetry_cell_setting            triclinic
loop_
_symmetry_equiv_pos_as_xyz
'x, y, z'
_cell_length_a     56.106194
_cell_length_b     26.007435
_cell_length_c     58.791651
_cell_angle_alpha  89.904525
_cell_angle_beta   89.940959
_cell_angle_gamma 90.007613
loop_
_atom_site_label
_atom_site_type_symbol
_atom_site_fract_x
_atom_site_fract_y
_atom_site_fract_z
_atom_type_partial_charge
Tb0 Tb 0.13683 0.09851 0.13462 0.0
Eu1 Eu 0.11317 0.21315 0.14679 0.0
C2 C 0.11835 0.17108 0.09623 0.0
C3 C 0.16878 0.19834 0.13612 0.0
C4 C 0.14708 0.95616 0.12595 0.0
C5 C 0.1553 0.86974 0.11224 0.0
C6 C 0.16035 0.92245 0.11234 0.0
C7 C 0.12807 0.93657 0.13891 0.0
C8 C 0.12307 0.88376 0.13892 0.0
C9 C 0.13691 0.84944 0.1259 0.0
C10 C 0.15478 1.01032 0.12798 0.0
O11 O 0.14503 0.12123 0.16924 0.0
O12 O 0.11068 0.16224 0.17801 0.0
O13 O 0.08231 0.16063 0.14047 0.0
O14 O 0.10015 0.08077 0.14404 0.0
C15 C 0.12822 0.13172 0.18396 0.0
O16 O 0.11099 0.27994 0.1691 0.0
O17 O 0.08906 0.27668 0.13875 0.0
O18 O 0.1221 0.21134 0.10924 0.0
O19 O 0.1173 0.12449 0.10486 0.0
O20 O 0.16457 0.15411 0.126 0.0
O21 O 0.1528 0.22133 0.14886 0.0
C22 C 0.08115 0.11041 0.14271 0.0
O23 O 0.14905 0.04186 0.11163 0.0
O24 O 0.15209 0.03143 0.14787 0.0
C25 C 0.10112 0.3592 0.15129 0.0
C26 C 0.10981 0.46493 0.14335 0.0
C27 C 0.08656 0.44688 0.1475 0.0
C28 C 0.08229 0.39461 0.15145 0.0
C29 C 0.12436 0.37673 0.14692 0.0
C30 C 0.12867 0.42915 0.14306 0.0
C31 C 0.09605 0.30449 0.15596 0.0
H32 H 0.16602 0.84481 0.10163 0.0
H33 H 0.17507 0.93674 0.1022 0.0
H34 H 0.11755 0.96181 0.14958 0.0
H35 H 0.10891 0.86969 0.1498 0.0
H36 H 0.07166 0.47331 0.14814 0.0
H37 H 0.06424 0.38186 0.15482 0.0
H38 H 0.13915 0.34997 0.14656 0.0
H39 H 0.14675 0.44161 0.13966 0.0
Tb40 Tb 0.86166 0.97344 0.12723 0.0
Eu41 Eu 0.88252 0.85834 0.14347 0.0
C42 C 0.87803 0.89113 0.09161 0.0
C43 C 0.82808 0.87685 0.13241 0.0
C44 C 0.84864 0.11491 0.11956 0.0
C45 C 0.84127 0.20416 0.10938 0.0
C46 C 0.8382 0.15163 0.10525 0.0
C47 C 0.86216 0.1314 0.13826 0.0
C48 C 0.86525 0.18412 0.14245 0.0
C49 C 0.85488 0.22126 0.128 0.0
C50 C 0.8458 0.05992 0.1141 0.0
O51 O 0.85771 0.97197 0.16399 0.0
O52 O 0.88486 0.90969 0.17446 0.0
O53 O 0.91424 0.90841 0.13644 0.0
O54 O 0.89746 0.98924 0.13951 0.0
C55 C 0.87136 0.94968 0.17929 0.0
O56 O 0.88242 0.79311 0.16688 0.0
O57 O 0.90597 0.79241 0.13765 0.0
O58 O 0.87341 0.85366 0.10596 0.0
O59 O 0.87989 0.93885 0.09852 0.0
O60 O 0.83376 0.91695 0.11983 0.0
O61 O 0.84303 0.85721 0.14709 0.0
C62 C 0.9161 0.95852 0.13866 0.0
O63 O 0.86434 0.03722 0.1054 0.0
O64 O 0.83535 0.03104 0.12926 0.0
C65 C 0.89253 0.71167 0.15144 0.0
C66 C 0.88331 0.60538 0.14578 0.0
C67 C 0.90572 0.62268 0.15332 0.0
C68 C 0.91025 0.67519 0.15611 0.0
C69 C 0.87014 0.69491 0.14379 0.0
C70 C 0.86555 0.64222 0.14104 0.0
C71 C 0.89782 0.76665 0.15506 0.0
H72 H 0.83337 0.23137 0.09764 0.0
H73 H 0.82785 0.13964 0.09063 0.0
H74 H 0.87043 0.10357 0.14949 0.0
H75 H 0.87563 0.19575 0.15707 0.0
H76 H 0.91971 0.59555 0.15746 0.0
H77 H 0.92761 0.68733 0.16212 0.0
H78 H 0.85623 0.72251 0.14 0.0
H79 H 0.84818 0.63038 0.13496 0.0
Tb80 Tb 0.13462 0.95732 0.37923 0.0
Eu81 Eu 0.11128 0.84256 0.36685 0.0
C82 C 0.11643 0.88426 0.41759 0.0
C83 C 0.1669 0.8578 0.37766 0.0
C84 C 0.14488 0.09966 0.38828 0.0
C85 C 0.15577 0.18835 0.39626 0.0
C86 C 0.16135 0.1359 0.39624 0.0
C87 C 0.12233 0.11643 0.38104 0.0
C88 C 0.11672 0.16897 0.38103 0.0
C89 C 0.13354 0.20575 0.38826 0.0
C90 C 0.15251 0.04574 0.38548 0.0
O91 O 0.14327 0.93414 0.34479 0.0
O92 O 0.1088 0.89417 0.33584 0.0
O93 O 0.0801 0.89398 0.37355 0.0
O94 O 0.09762 0.97434 0.37055 0.0
C95 C 0.12655 0.92419 0.32996 0.0
O96 O 0.10924 0.77666 0.34385 0.0
O97 O 0.08786 0.77792 0.37462 0.0
O98 O 0.1201 0.84414 0.40445 0.0
O99 O 0.1154 0.93102 0.40914 0.0
O100 O 0.16262 0.90215 0.3877 0.0
O101 O 0.15095 0.83459 0.365 0.0
C102 C 0.07872 0.94428 0.37183 0.0
O103 O 0.14785 1.01351 0.4019 0.0
O104 O 0.14842 1.02552 0.36563 0.0
C105 C 0.10006 0.69623 0.36083 0.0
C106 C 0.10867 0.59008 0.36777 0.0
C107 C 0.09629 0.60745 0.34841 0.0
C108 C 0.09204 0.6599 0.34501 0.0
C109 C 0.11264 0.67938 0.3801 0.0
C110 C 0.11684 0.62676 0.38357 0.0
C111 C 0.09465 0.75113 0.357 0.0
H112 H 0.16928 0.21539 0.40169 0.0
H113 H 0.17892 0.12379 0.40171 0.0
H114 H 0.10935 0.08906 0.37478 0.0
H115 H 0.09931 0.18084 0.37506 0.0
H116 H 0.08946 0.5804 0.33604 0.0
H117 H 0.08225 0.6721 0.33007 0.0
H118 H 0.11911 0.70683 0.39248 0.0
H119 H 0.12666 0.61484 0.39852 0.0
Tb120 Tb 0.85816 0.08221 0.38741 0.0
Eu121 Eu 0.88076 0.19726 0.37327 0.0
C122 C 0.87323 0.16174 0.42494 0.0
C123 C 0.82577 0.18119 0.38361 0.0
C124 C 0.84451 0.94058 0.39269 0.0
C125 C 0.83347 0.85131 0.39904 0.0
C126 C 0.8299 0.90372 0.4031 0.0
C127 C 0.86261 0.92443 0.37783 0.0
C128 C 0.86623 0.87186 0.37375 0.0
C129 C 0.8518 0.83455 0.38445 0.0
C130 C 0.84135 0.99519 0.39864 0.0
O131 O 0.85447 0.08806 0.35078 0.0
O132 O 0.88383 0.14659 0.34205 0.0
O133 O 0.91179 0.14605 0.38104 0.0
O134 O 0.89451 0.06612 0.37632 0.0
C135 C 0.86945 0.10881 0.33624 0.0
O136 O 0.88265 0.26142 0.34923 0.0
O137 O 0.90348 0.26356 0.38025 0.0
O138 O 0.87143 0.20086 0.41083 0.0
O139 O 0.87444 0.11431 0.41753 0.0
O140 O 0.83049 0.13903 0.3952 0.0
O141 O 0.84128 0.20147 0.36959 0.0
C142 C 0.91337 0.09607 0.3782 0.0
O143 O 0.85939 1.01718 0.40853 0.0
O144 O 0.83185 1.02505 0.38331 0.0
C145 C 0.89061 0.3438 0.36476 0.0
C146 C 0.88114 0.45046 0.36881 0.0
C147 C 0.88813 0.42913 0.34785 0.0
C148 C 0.89285 0.37651 0.34589 0.0
C149 C 0.88324 0.36457 0.38567 0.0
C150 C 0.87858 0.41737 0.38767 0.0
C151 C 0.89663 0.28872 0.36216 0.0
H152 H 0.82224 0.82385 0.40784 0.0
H153 H 0.81596 0.91545 0.41476 0.0
H154 H 0.8741 0.95239 0.36965 0.0
H155 H 0.88032 0.86044 0.36222 0.0
H156 H 0.88986 0.45306 0.33285 0.0
H157 H 0.8984 0.36132 0.32956 0.0
H158 H 0.88131 0.34017 0.4005 0.0
H159 H 0.87345 0.43238 0.40413 0.0
Tb160 Tb 0.88183 0.85549 0.87103 0.0
Eu161 Eu 0.85749 0.97033 0.88023 0.0
C162 C 0.86806 0.9296 0.83187 0.0
C163 C 0.91455 0.95418 0.87569 0.0
C164 C 0.89265 0.71272 0.86574 0.0
C165 C 0.89647 0.62412 0.85316 0.0
C166 C 0.90134 0.67643 0.85023 0.0
C167 C 0.87878 0.69601 0.88424 0.0
C168 C 0.87397 0.64349 0.88726 0.0
C169 C 0.88279 0.60687 0.87175 0.0
C170 C 0.89869 0.7674 0.86233 0.0
O171 O 0.87246 0.85767 0.90722 0.0
O172 O 0.87498 0.94491 0.91259 0.0
O173 O 0.82892 0.91265 0.8887 0.0
O174 O 0.84361 0.84444 0.86809 0.0
C175 C 0.87474 0.89783 0.92071 0.0
O176 O 0.8419 0.03073 0.90163 0.0
O177 O 0.84417 0.04107 0.86513 0.0
O178 O 0.85016 0.94266 0.84481 0.0
O179 O 0.8859 0.90387 0.8407 0.0
O180 O 0.91204 0.9043 0.87846 0.0
O181 O 0.89639 0.98572 0.87305 0.0
C182 C 0.82642 0.86681 0.8796 0.0
O183 O 0.88508 0.79321 0.84844 0.0
O184 O 0.90404 0.79404 0.8804 0.0
C185 C 0.84555 0.11625 0.88747 0.0
C186 C 0.85635 0.22249 0.88839 0.0
C187 C 0.83372 0.20452 0.89505 0.0
C188 C 0.8284 0.15197 0.89456 0.0
C189 C 0.86842 0.13361 0.88152 0.0
C190 C 0.87377 0.18625 0.88197 0.0
C191 C 0.83858 0.06201 0.88454 0.0
H192 H 0.90382 0.59706 0.84106 0.0
H193 H 0.91211 0.68854 0.83588 0.0
H194 H 0.87176 0.72347 0.89636 0.0
H195 H 0.86317 0.6316 0.90161 0.0
H196 H 0.81978 0.2312 0.89983 0.0
H197 H 0.8106 0.13934 0.89907 0.0
H198 H 0.88194 0.1066 0.876 0.0
H199 H 0.89147 0.1986 0.87704 0.0
Tb200 Tb 0.11752 0.18122 0.87439 0.0
Eu201 Eu 0.13979 0.06612 0.88861 0.0
C202 C 0.1273 0.09538 0.83715 0.0
C203 C 0.0838 0.08428 0.87994 0.0
C204 C 0.10933 0.32456 0.86635 0.0
C205 C 0.11416 0.4092 0.84925 0.0
C206 C 0.10917 0.35674 0.84719 0.0
C207 C 0.11499 0.34567 0.88767 0.0
C208 C 0.11991 0.39832 0.88976 0.0
C209 C 0.11932 0.4309 0.87059 0.0
C210 C 0.10261 0.2699 0.86361 0.0
O211 O 0.12716 0.18672 0.91055 0.0
O212 O 0.12358 0.1013 0.91952 0.0
O213 O 0.16831 0.12541 0.89562 0.0
O214 O 0.15567 0.18471 0.86948 0.0
C215 C 0.12484 0.14956 0.92566 0.0
O216 O 0.13927 0.99834 0.91048 0.0
O217 O 0.16641 1.00533 0.8845 0.0
O218 O 0.14252 0.07272 0.85077 0.0
O219 O 0.11321 0.13276 0.84415 0.0
O220 O 0.08679 0.13409 0.88247 0.0
O221 O 0.10172 0.05183 0.87825 0.0
C222 C 0.17197 0.16694 0.88334 0.0
O223 O 0.11639 0.24203 0.85074 0.0
O224 O 0.09571 0.2448 0.88167 0.0
C225 C 0.15408 0.92123 0.89489 0.0
C226 C 0.14731 0.81496 0.8871 0.0
C227 C 0.16432 0.83226 0.90292 0.0
C228 C 0.16764 0.88482 0.90676 0.0
C229 C 0.13724 0.90451 0.8789 0.0
C230 C 0.13388 0.8518 0.87503 0.0
C231 C 0.1571 0.97614 0.90023 0.0
H232 H 0.11399 0.43276 0.83404 0.0
H233 H 0.10493 0.34132 0.83057 0.0
H234 H 0.11528 0.32174 0.90277 0.0
H235 H 0.12361 0.41367 0.9065 0.0
H236 H 0.17471 0.80514 0.91278 0.0
H237 H 0.18059 0.89704 0.9193 0.0
H238 H 0.12657 0.93216 0.86959 0.0
H239 H 0.12082 0.83993 0.86255 0.0
Tb240 Tb 0.88452 0.20532 0.64591 0.0
Eu241 Eu 0.86081 0.09058 0.63506 0.0
C242 C 0.86994 0.12934 0.68416 0.0
C243 C 0.91755 0.10677 0.6413 0.0
C244 C 0.89501 0.34813 0.65167 0.0
C245 C 0.89918 0.43703 0.66374 0.0
C246 C 0.90388 0.38472 0.66693 0.0
C247 C 0.88112 0.36454 0.63316 0.0
C248 C 0.87648 0.41706 0.62988 0.0
C249 C 0.88549 0.45399 0.64514 0.0
C250 C 0.90093 0.29345 0.65529 0.0
O251 O 0.87563 0.20435 0.60964 0.0
O252 O 0.87991 0.11772 0.60371 0.0
O253 O 0.83239 0.14834 0.62634 0.0
O254 O 0.84616 0.21551 0.64814 0.0
C255 C 0.87935 0.1651 0.59597 0.0
O256 O 0.84666 0.03056 0.61258 0.0
O257 O 0.84658 1.0195 0.6491 0.0
O258 O 0.85255 0.11608 0.67066 0.0
O259 O 0.88784 0.1562 0.67607 0.0
O260 O 0.91507 0.1568 0.63891 0.0
O261 O 0.89935 0.07512 0.64338 0.0
C262 C 0.8294 0.19351 0.63593 0.0
O263 O 0.88678 0.26752 0.66866 0.0
O264 O 0.90704 0.26692 0.6374 0.0
C265 C 0.84923 0.94469 0.62663 0.0
C266 C 0.85997 0.83837 0.62633 0.0
C267 C 0.83743 0.85625 0.61938 0.0
C268 C 0.83215 0.90882 0.61956 0.0
C269 C 0.87201 0.92744 0.63288 0.0
C270 C 0.87733 0.87476 0.63273 0.0
C271 C 0.84219 0.99898 0.62933 0.0
H272 H 0.90667 0.46431 0.67566 0.0
H273 H 0.91468 0.37284 0.68129 0.0
H274 H 0.87398 0.33684 0.62123 0.0
H275 H 0.86567 0.4287 0.61552 0.0
H276 H 0.82352 0.8295 0.61462 0.0
H277 H 0.8144 0.92136 0.61485 0.0
H278 H 0.88546 0.95456 0.63842 0.0
H279 H 0.89497 0.86251 0.63787 0.0
Tb280 Tb 0.11889 0.87275 0.63913 0.0
Eu281 Eu 0.14188 0.98774 0.62539 0.0
C282 C 0.12896 0.95766 0.6767 0.0
C283 C 0.08578 0.97095 0.63416 0.0
C284 C 0.10972 0.72956 0.64687 0.0
C285 C 0.11096 0.64343 0.66303 0.0
C286 C 0.10612 0.69593 0.66521 0.0
C287 C 0.11866 0.70992 0.6263 0.0
C288 C 0.12345 0.65721 0.62407 0.0
C289 C 0.11945 0.62316 0.64237 0.0
C290 C 0.10334 0.78435 0.64962 0.0
O291 O 0.12835 0.86795 0.60292 0.0
O292 O 0.12543 0.9537 0.59435 0.0
O293 O 0.17025 0.92814 0.61832 0.0
O294 O 0.15705 0.86768 0.64379 0.0
C295 C 0.12617 0.90551 0.588 0.0
O296 O 0.14212 0.05531 0.60341 0.0
O297 O 0.16829 0.04879 0.63025 0.0
O298 O 0.14443 0.98013 0.66322 0.0
O299 O 0.11474 0.92075 0.66952 0.0
O300 O 0.08842 0.92107 0.63142 0.0
O301 O 0.10392 1.00281 0.63587 0.0
C302 C 0.17358 0.88594 0.63024 0.0
O303 O 0.11719 0.81168 0.66262 0.0
O304 O 0.09688 0.80971 0.6315 0.0
C305 C 0.15602 0.13273 0.61948 0.0
C306 C 0.14856 0.23905 0.6267 0.0
C307 C 0.16788 0.22165 0.6135 0.0
C308 C 0.17154 0.16907 0.60993 0.0
C309 C 0.13689 0.14958 0.63293 0.0
C310 C 0.13318 0.20228 0.63651 0.0
C311 C 0.15946 0.07784 0.61423 0.0
H312 H 0.10812 0.61873 0.67763 0.0
H313 H 0.09936 0.71027 0.68126 0.0
H314 H 0.12166 0.73511 0.61189 0.0
H315 H 0.12979 0.64302 0.60786 0.0
H316 H 0.17988 0.24872 0.60541 0.0
H317 H 0.18631 0.15678 0.59936 0.0
H318 H 0.1247 0.12203 0.64044 0.0
H319 H 0.1183 0.21422 0.64699 0.0
Tb320 Tb 0.63798 0.59604 0.13238 0.0
Eu321 Eu 0.61484 0.71133 0.14442 0.0
C322 C 0.61871 0.66738 0.09406 0.0
C323 C 0.67013 0.69594 0.13365 0.0
C324 C 0.64831 0.45414 0.12265 0.0
C325 C 0.65889 0.36558 0.11414 0.0
C326 C 0.66452 0.41798 0.11414 0.0
C327 C 0.62598 0.43738 0.13052 0.0
C328 C 0.62032 0.38488 0.13055 0.0
C329 C 0.63688 0.34817 0.12272 0.0
C330 C 0.65597 0.50806 0.12516 0.0
O331 O 0.64569 0.61597 0.16745 0.0
O332 O 0.61239 0.66172 0.17601 0.0
O333 O 0.58363 0.65936 0.13901 0.0
O334 O 0.60117 0.57889 0.14169 0.0
C335 C 0.62914 0.62925 0.18203 0.0
O336 O 0.61264 0.77793 0.16699 0.0
O337 O 0.59161 0.77588 0.13605 0.0
O338 O 0.62313 0.70795 0.1067 0.0
O339 O 0.61759 0.62119 0.10304 0.0
O340 O 0.66578 0.65164 0.12364 0.0
O341 O 0.65438 0.7188 0.14663 0.0
C342 C 0.58229 0.6091 0.14096 0.0
O343 O 0.65028 0.54025 0.10906 0.0
O344 O 0.65287 0.52812 0.1452 0.0
C345 C 0.60358 0.85791 0.14966 0.0
C346 C 0.61222 0.96397 0.14268 0.0
C347 C 0.60037 0.94657 0.16235 0.0
C348 C 0.5961 0.89415 0.16577 0.0
C349 C 0.61564 0.8748 0.13007 0.0
C350 C 0.61984 0.9274 0.12658 0.0
C351 C 0.5982 0.80308 0.15361 0.0
H352 H 0.67221 0.33856 0.10824 0.0
H353 H 0.68192 0.43013 0.10817 0.0
H354 H 0.61321 0.46472 0.1372 0.0
H355 H 0.60308 0.37298 0.13698 0.0
H356 H 0.59397 0.97357 0.17496 0.0
H357 H 0.58672 0.88191 0.18096 0.0
H358 H 0.6217 0.84741 0.11747 0.0
H359 H 0.62925 0.9394 0.11138 0.0
Tb360 Tb 0.36106 0.47138 0.13299 0.0
Eu361 Eu 0.3847 0.35635 0.14387 0.0
C362 C 0.3788 0.40101 0.09367 0.0
C363 C 0.32891 0.37155 0.13447 0.0
C364 C 0.35063 0.61377 0.1243 0.0
C365 C 0.34126 0.70002 0.11101 0.0
C366 C 0.33627 0.64732 0.11163 0.0
C367 C 0.37065 0.63345 0.13569 0.0
C368 C 0.37559 0.68625 0.13518 0.0
C369 C 0.36066 0.72043 0.12321 0.0
C370 C 0.34304 0.55977 0.12718 0.0
O371 O 0.35294 0.44727 0.16749 0.0
O372 O 0.38728 0.40544 0.17558 0.0
O373 O 0.41558 0.40861 0.13751 0.0
O374 O 0.39797 0.4884 0.14194 0.0
C375 C 0.3697 0.43533 0.18203 0.0
O376 O 0.38752 0.28888 0.16577 0.0
O377 O 0.4085 0.29302 0.13479 0.0
O378 O 0.37517 0.36022 0.10647 0.0
O379 O 0.38009 0.44716 0.10264 0.0
O380 O 0.33294 0.41639 0.12473 0.0
O381 O 0.34518 0.3476 0.1465 0.0
C382 C 0.4169 0.45862 0.14022 0.0
O383 O 0.34739 0.52785 0.11062 0.0
O384 O 0.34726 0.53907 0.14695 0.0
C385 C 0.3968 0.21018 0.14733 0.0
C386 C 0.38787 0.10466 0.13944 0.0
C387 C 0.41133 0.12298 0.14188 0.0
C388 C 0.41571 0.17515 0.14581 0.0
C389 C 0.37334 0.19238 0.14462 0.0
C390 C 0.36891 0.14005 0.14079 0.0
C391 C 0.40203 0.26471 0.15207 0.0
H392 H 0.32967 0.72488 0.10121 0.0
H393 H 0.32076 0.63294 0.10271 0.0
H394 H 0.38201 0.60829 0.14561 0.0
H395 H 0.39057 0.70044 0.14492 0.0
H396 H 0.42632 0.09679 0.14122 0.0
H397 H 0.43394 0.18813 0.14788 0.0
H398 H 0.35846 0.21884 0.14557 0.0
H399 H 0.35066 0.12735 0.13873 0.0
Tb400 Tb 0.63615 0.46732 0.38696 0.0
Eu401 Eu 0.61665 0.35286 0.36866 0.0
C402 C 0.61974 0.38169 0.42119 0.0
C403 C 0.67045 0.37203 0.38165 0.0
C404 C 0.64845 0.60871 0.39529 0.0
C405 C 0.66123 0.69711 0.401 0.0
C406 C 0.66417 0.64441 0.40492 0.0
C407 C 0.62991 0.62639 0.38128 0.0
C408 C 0.62693 0.67925 0.37735 0.0
C409 C 0.64241 0.71541 0.38737 0.0
C410 C 0.65118 0.5537 0.40093 0.0
O411 O 0.64079 0.46869 0.3503 0.0
O412 O 0.6141 0.40688 0.33844 0.0
O413 O 0.58425 0.40026 0.37623 0.0
O414 O 0.60015 0.48217 0.37478 0.0
C415 C 0.62736 0.4478 0.3345 0.0
O416 O 0.61849 0.28904 0.34445 0.0
O417 O 0.59373 0.28569 0.37272 0.0
O418 O 0.62475 0.34548 0.40637 0.0
O419 O 0.61801 0.43005 0.4151 0.0
O420 O 0.66417 0.41103 0.3946 0.0
O421 O 0.65623 0.35408 0.36597 0.0
C422 C 0.58183 0.45045 0.37507 0.0
O423 O 0.63233 0.53052 0.40882 0.0
O424 O 0.66249 0.52515 0.38627 0.0
C425 C 0.60909 0.20628 0.35908 0.0
C426 C 0.61836 0.1001 0.36537 0.0
C427 C 0.60993 0.11884 0.34439 0.0
C428 C 0.60532 0.17129 0.34132 0.0
C429 C 0.61789 0.18808 0.37995 0.0
C430 C 0.62241 0.13548 0.38309 0.0
C431 C 0.60306 0.26107 0.35555 0.0
H432 H 0.67379 0.72355 0.40865 0.0
H433 H 0.67862 0.63153 0.41573 0.0
H434 H 0.61754 0.59941 0.3737 0.0
H435 H 0.61213 0.69181 0.36692 0.0
H436 H 0.60633 0.09278 0.33046 0.0
H437 H 0.59849 0.18449 0.3251 0.0
H438 H 0.6211 0.21441 0.39388 0.0
H439 H 0.62919 0.12255 0.39936 0.0
Tb440 Tb 0.35883 0.58275 0.38197 0.0
Eu441 Eu 0.38327 0.69806 0.3724 0.0
C442 C 0.37584 0.6513 0.42247 0.0
C443 C 0.32706 0.68349 0.38092 0.0
C444 C 0.34733 0.44031 0.38988 0.0
C445 C 0.33528 0.35278 0.39882 0.0
C446 C 0.33023 0.40541 0.39787 0.0
C447 C 0.36997 0.42206 0.38362 0.0
C448 C 0.37505 0.3693 0.38455 0.0
C449 C 0.35757 0.33385 0.39171 0.0
C450 C 0.34031 0.49434 0.38614 0.0
O451 O 0.35131 0.60945 0.34776 0.0
O452 O 0.38631 0.6493 0.34061 0.0
O453 O 0.41391 0.64547 0.37887 0.0
O454 O 0.39618 0.56572 0.37442 0.0
C455 C 0.36854 0.62069 0.3336 0.0
O456 O 0.38677 0.76528 0.35024 0.0
O457 O 0.40665 0.76155 0.38183 0.0
O458 O 0.37397 0.69301 0.40986 0.0
O459 O 0.3763 0.60521 0.41332 0.0
O460 O 0.33053 0.63762 0.3899 0.0
O461 O 0.34379 0.70816 0.36976 0.0
C462 C 0.41515 0.59541 0.37631 0.0
O463 O 0.34287 0.52641 0.40298 0.0
O464 O 0.3469 0.51465 0.36687 0.0
C465 C 0.39568 0.84436 0.36832 0.0
C466 C 0.38736 0.95039 0.37576 0.0
C467 C 0.40026 0.93354 0.35662 0.0
C468 C 0.40438 0.88116 0.35298 0.0
C469 C 0.38251 0.86066 0.38731 0.0
C470 C 0.37841 0.91319 0.39101 0.0
C471 C 0.40089 0.78954 0.36421 0.0
H472 H 0.32155 0.3268 0.40483 0.0
H473 H 0.31265 0.4187 0.40277 0.0
H474 H 0.38342 0.44836 0.37731 0.0
H475 H 0.39235 0.35615 0.37881 0.0
H476 H 0.40702 0.96083 0.34426 0.0
H477 H 0.41446 0.86935 0.33815 0.0
H478 H 0.37557 0.83284 0.39935 0.0
H479 H 0.36858 0.92466 0.40602 0.0
Tb480 Tb 0.38075 0.3585 0.87271 0.0
Eu481 Eu 0.35535 0.47317 0.88013 0.0
C482 C 0.36642 0.42948 0.83249 0.0
C483 C 0.41273 0.45827 0.87606 0.0
C484 C 0.39221 0.21565 0.86838 0.0
C485 C 0.39815 0.12664 0.85715 0.0
C486 C 0.40323 0.17893 0.85449 0.0
C487 C 0.37589 0.19936 0.88503 0.0
C488 C 0.37085 0.14683 0.8878 0.0
C489 C 0.38192 0.10981 0.87384 0.0
C490 C 0.39821 0.27039 0.86506 0.0
O491 O 0.37173 0.36374 0.90897 0.0
O492 O 0.37298 0.4516 0.91292 0.0
O493 O 0.3271 0.41484 0.88915 0.0
O494 O 0.34273 0.3455 0.8699 0.0
C495 C 0.37341 0.40522 0.92177 0.0
O496 O 0.33798 0.53355 0.90025 0.0
O497 O 0.34307 0.54365 0.86398 0.0
O498 O 0.34831 0.44245 0.84517 0.0
O499 O 0.38447 0.4052 0.84177 0.0
O500 O 0.41062 0.40851 0.87939 0.0
O501 O 0.39432 0.48908 0.87316 0.0
C502 C 0.32527 0.36792 0.88099 0.0
O503 O 0.38509 0.29572 0.85059 0.0
O504 O 0.40267 0.29742 0.88323 0.0
C505 C 0.34249 0.61905 0.88626 0.0
C506 C 0.35316 0.72537 0.88803 0.0
C507 C 0.32986 0.7075 0.89213 0.0
C508 C 0.32461 0.65493 0.89123 0.0
C509 C 0.36594 0.6363 0.88282 0.0
C510 C 0.37122 0.68897 0.8837 0.0
C511 C 0.33591 0.56467 0.88292 0.0
H512 H 0.40725 0.09929 0.84633 0.0
H513 H 0.4159 0.19072 0.84157 0.0
H514 H 0.36706 0.22718 0.89584 0.0
H515 H 0.35809 0.13527 0.90065 0.0
H516 H 0.31543 0.73426 0.89522 0.0
H517 H 0.30638 0.64241 0.89377 0.0
H518 H 0.38002 0.60918 0.87896 0.0
H519 H 0.38942 0.70119 0.88078 0.0
Tb520 Tb 0.6143 0.69072 0.8726 0.0
Eu521 Eu 0.63807 0.57576 0.8833 0.0
C522 C 0.62959 0.61572 0.8341 0.0
C523 C 0.58131 0.59225 0.87637 0.0
C524 C 0.60431 0.83387 0.86801 0.0
C525 C 0.6085 0.92087 0.85324 0.0
C526 C 0.60369 0.86871 0.84978 0.0
C527 C 0.61004 0.85209 0.88984 0.0
C528 C 0.61471 0.90444 0.89334 0.0
C529 C 0.61393 0.9395 0.87508 0.0
C530 C 0.59814 0.77939 0.86381 0.0
O531 O 0.6229 0.68896 0.909 0.0
O532 O 0.61947 0.60207 0.91487 0.0
O533 O 0.66677 0.6334 0.89158 0.0
O534 O 0.65255 0.70113 0.87028 0.0
C535 C 0.61999 0.64926 0.92271 0.0
O536 O 0.65288 0.51605 0.90564 0.0
O537 O 0.65173 0.50445 0.86917 0.0
O538 O 0.64663 0.60199 0.84795 0.0
O539 O 0.61174 0.64335 0.84183 0.0
O540 O 0.58374 0.64215 0.87893 0.0
O541 O 0.59953 0.56053 0.87469 0.0
C542 C 0.66954 0.67882 0.88206 0.0
O543 O 0.61224 0.75392 0.85027 0.0
O544 O 0.59154 0.75173 0.88125 0.0
C545 C 0.65006 0.42988 0.89208 0.0
C546 C 0.6408 0.323 0.89316 0.0
C547 C 0.66219 0.34298 0.902 0.0
C548 C 0.66676 0.39583 0.90142 0.0
C549 C 0.62826 0.41055 0.88407 0.0
C550 C 0.62366 0.35758 0.88463 0.0
C551 C 0.65676 0.48425 0.88889 0.0
H552 H 0.60747 0.94683 0.83885 0.0
H553 H 0.59921 0.85561 0.83283 0.0
H554 H 0.61076 0.82604 0.90422 0.0
H555 H 0.61911 0.91742 0.91032 0.0
H556 H 0.6756 0.31764 0.90908 0.0
H557 H 0.68368 0.40998 0.90769 0.0
H558 H 0.61513 0.43621 0.87671 0.0
H559 H 0.60708 0.34358 0.87753 0.0
Tb560 Tb 0.38246 0.69656 0.64378 0.0
Eu561 Eu 0.35791 0.58202 0.63446 0.0
C562 C 0.36767 0.62311 0.68303 0.0
C563 C 0.41496 0.59714 0.6405 0.0
C564 C 0.39343 0.8396 0.64808 0.0
C565 C 0.39698 0.9286 0.66025 0.0
C566 C 0.40145 0.87628 0.66374 0.0
C567 C 0.38049 0.85595 0.62895 0.0
C568 C 0.37606 0.90846 0.62539 0.0
C569 C 0.38443 0.94556 0.64092 0.0
C570 C 0.39928 0.78495 0.65199 0.0
O571 O 0.37373 0.69263 0.60745 0.0
O572 O 0.37755 0.6055 0.60287 0.0
O573 O 0.32979 0.64052 0.62526 0.0
O574 O 0.3443 0.70809 0.64633 0.0
C575 C 0.37737 0.65221 0.5944 0.0
O576 O 0.34193 0.52235 0.61291 0.0
O577 O 0.34467 0.51096 0.64933 0.0
O578 O 0.35006 0.60972 0.66981 0.0
O579 O 0.38565 0.6491 0.67451 0.0
O580 O 0.4128 0.6471 0.63772 0.0
O581 O 0.39656 0.56595 0.64253 0.0
C582 C 0.32734 0.68646 0.63431 0.0
O583 O 0.38542 0.75978 0.66591 0.0
O584 O 0.40491 0.75752 0.63422 0.0
C585 C 0.3454 0.43622 0.62656 0.0
C586 C 0.3551 0.32946 0.62497 0.0
C587 C 0.33308 0.34902 0.61741 0.0
C588 C 0.32831 0.4018 0.61823 0.0
C589 C 0.36773 0.41731 0.63339 0.0
C590 C 0.37254 0.36443 0.63258 0.0
C591 C 0.33878 0.49063 0.62988 0.0
H592 H 0.40327 0.95575 0.67283 0.0
H593 H 0.41132 0.86444 0.67869 0.0
H594 H 0.37405 0.82825 0.61667 0.0
H595 H 0.36648 0.92002 0.61024 0.0
H596 H 0.3194 0.32345 0.61106 0.0
H597 H 0.31097 0.41561 0.61289 0.0
H598 H 0.38118 0.44322 0.63996 0.0
H599 H 0.38961 0.35081 0.63871 0.0
Tb600 Tb 0.61685 0.36515 0.64201 0.0
Eu601 Eu 0.63967 0.47976 0.62851 0.0
C602 C 0.63078 0.4457 0.67912 0.0
C603 C 0.58357 0.46317 0.63741 0.0
C604 C 0.60677 0.22234 0.6489 0.0
C605 C 0.60518 0.13409 0.66259 0.0
C606 C 0.60075 0.18651 0.66579 0.0
C607 C 0.61758 0.20501 0.62875 0.0
C608 C 0.62193 0.15241 0.62548 0.0
C609 C 0.6157 0.11625 0.64235 0.0
C610 C 0.60097 0.2771 0.65257 0.0
O611 O 0.62564 0.36193 0.60568 0.0
O612 O 0.62138 0.44769 0.59781 0.0
O613 O 0.66835 0.42173 0.62072 0.0
O614 O 0.65523 0.35762 0.64468 0.0
C615 C 0.62227 0.39968 0.59107 0.0
O616 O 0.64736 0.54177 0.6043 0.0
O617 O 0.65935 0.54797 0.63908 0.0
O618 O 0.64731 0.4612 0.66499 0.0
O619 O 0.61384 0.4146 0.6721 0.0
O620 O 0.58624 0.4133 0.63471 0.0
O621 O 0.6017 0.49513 0.63898 0.0
C622 C 0.67176 0.3783 0.63173 0.0
O623 O 0.61569 0.30333 0.66517 0.0
O624 O 0.59393 0.30341 0.63491 0.0
C625 C 0.65095 0.62562 0.61982 0.0
C626 C 0.64049 0.73189 0.6225 0.0
C627 C 0.66147 0.71452 0.61184 0.0
C628 C 0.66661 0.66198 0.61053 0.0
C629 C 0.62978 0.64239 0.63017 0.0
C630 C 0.6246 0.69507 0.6315 0.0
C631 C 0.65763 0.57082 0.61942 0.0
H632 H 0.59987 0.1074 0.67582 0.0
H633 H 0.59234 0.19905 0.68142 0.0
H634 H 0.62251 0.23203 0.61551 0.0
H635 H 0.6303 0.14008 0.6098 0.0
H636 H 0.67429 0.74159 0.60501 0.0
H637 H 0.6831 0.64977 0.6026 0.0
H638 H 0.61744 0.61482 0.63743 0.0
H639 H 0.60815 0.70694 0.63958 0.0
H640 H 0.20979 0.15846 0.11775 0.0
H641 H 0.18048 0.29669 0.14749 0.0
H642 H 0.24853 0.20096 0.11427 0.0
H643 H 0.21903 0.33859 0.14415 0.0
H644 H 0.28727 0.41314 0.11825 0.0
H645 H 0.24835 0.37105 0.11563 0.0
H646 H 0.27889 0.23084 0.14215 0.0
H647 H 0.31757 0.27231 0.14463 0.0
C648 C 0.21155 0.19788 0.12343 0.0
C649 C 0.19211 0.22397 0.13309 0.0
C650 C 0.23372 0.22214 0.12149 0.0
C651 C 0.23678 0.27308 0.12896 0.0
C652 C 0.21717 0.29954 0.13802 0.0
C653 C 0.19512 0.27524 0.14013 0.0
C654 C 0.28568 0.37326 0.12336 0.0
C655 C 0.30547 0.34627 0.13184 0.0
C656 C 0.26341 0.34923 0.12192 0.0
C657 C 0.26061 0.29767 0.1287 0.0
C658 C 0.28054 0.2704 0.13656 0.0
C659 C 0.30268 0.29443 0.13818 0.0
H660 H 0.81671 0.77984 0.14572 0.0
H661 H 0.78738 0.91333 0.11194 0.0
H662 H 0.77869 0.73604 0.14236 0.0
H663 H 0.74896 0.86891 0.10859 0.0
H664 H 0.68019 0.79675 0.14129 0.0
H665 H 0.7183 0.84034 0.13739 0.0
H666 H 0.75039 0.6995 0.11349 0.0
H667 H 0.71202 0.65536 0.11745 0.0
C668 C 0.80214 0.79986 0.13749 0.0
C669 C 0.80498 0.85038 0.12932 0.0
C670 C 0.78042 0.77442 0.13535 0.0
C671 C 0.76089 0.79898 0.12518 0.0
C672 C 0.76375 0.84918 0.1166 0.0
C673 C 0.78569 0.87455 0.11849 0.0
C674 C 0.69532 0.77495 0.13512 0.0
C675 C 0.69317 0.72233 0.12997 0.0
C676 C 0.71709 0.8002 0.13264 0.0
C677 C 0.7373 0.77335 0.12516 0.0
C678 C 0.73508 0.72103 0.11944 0.0
C679 C 0.71316 0.69581 0.12167 0.0
H680 H 0.28478 0.64163 0.39564 0.0
H681 H 0.31624 0.7835 0.37162 0.0
H682 H 0.24592 0.68403 0.39772 0.0
H683 H 0.27758 0.82526 0.37348 0.0
H684 H 0.20775 0.89725 0.3966 0.0
H685 H 0.24641 0.85458 0.40034 0.0
H686 H 0.21734 0.71787 0.36933 0.0
H687 H 0.17886 0.75986 0.3658 0.0
C688 C 0.28346 0.6818 0.39092 0.0
C689 C 0.30358 0.70897 0.38326 0.0
C690 C 0.26121 0.70603 0.39204 0.0
C691 C 0.2587 0.75797 0.38572 0.0
C692 C 0.27895 0.7854 0.37869 0.0
C693 C 0.3011 0.76119 0.37742 0.0
C694 C 0.20959 0.85802 0.39071 0.0
C695 C 0.19026 0.83221 0.38072 0.0
C696 C 0.23174 0.83364 0.3928 0.0
C697 C 0.2349 0.78286 0.38513 0.0
C698 C 0.21541 0.75676 0.37565 0.0
C699 C 0.1934 0.78114 0.37343 0.0
H700 H 0.78353 0.14422 0.4009 0.0
H701 H 0.8168 0.28168 0.37431 0.0
H702 H 0.7457 0.1909 0.40436 0.0
H703 H 0.77931 0.32782 0.37784 0.0
H704 H 0.71134 0.40703 0.40232 0.0
H705 H 0.74911 0.36025 0.40668 0.0
H706 H 0.71777 0.22724 0.3746 0.0
H707 H 0.68045 0.27344 0.37016 0.0
C708 C 0.78283 0.18436 0.39599 0.0
C709 C 0.80304 0.209 0.38703 0.0
C710 C 0.76122 0.21104 0.39796 0.0
C711 C 0.7596 0.26302 0.39138 0.0
C712 C 0.78006 0.28802 0.38326 0.0
C713 C 0.80147 0.26128 0.381 0.0
C714 C 0.71255 0.36772 0.39638 0.0
C715 C 0.69307 0.34423 0.38561 0.0
C716 C 0.73411 0.34099 0.39885 0.0
C717 C 0.73633 0.29007 0.391 0.0
C718 C 0.71654 0.26617 0.38102 0.0
C719 C 0.69523 0.29298 0.37825 0.0
H720 H 0.7123 0.64136 0.8977 0.0
H721 H 0.67885 0.77854 0.87101 0.0
H722 H 0.75041 0.68696 0.89946 0.0
H723 H 0.71675 0.82343 0.87255 0.0
H724 H 0.78415 0.90325 0.89664 0.0
H725 H 0.74635 0.85714 0.8998 0.0
H726 H 0.77921 0.72164 0.87123 0.0
H727 H 0.81695 0.76717 0.8683 0.0
C728 C 0.71304 0.68116 0.89231 0.0
C729 C 0.69258 0.70612 0.88406 0.0
C730 C 0.73485 0.70719 0.89323 0.0
C731 C 0.73655 0.75876 0.88613 0.0
C732 C 0.71598 0.78393 0.87838 0.0
C733 C 0.69428 0.75793 0.87731 0.0
C734 C 0.78333 0.86358 0.89113 0.0
C735 C 0.80352 0.83911 0.88203 0.0
C736 C 0.76168 0.83723 0.89288 0.0
C737 C 0.75983 0.78579 0.88573 0.0
C738 C 0.78013 0.76104 0.87711 0.0
C739 C 0.80171 0.7874 0.87523 0.0
H740 H 0.28138 0.40395 0.89423 0.0
H741 H 0.31855 0.26521 0.8747 0.0
H742 H 0.24432 0.35489 0.89753 0.0
H743 H 0.28164 0.21671 0.87783 0.0
H744 H 0.21393 0.13705 0.90364 0.0
H745 H 0.25112 0.18631 0.90585 0.0
H746 H 0.21787 0.31166 0.86954 0.0
H747 H 0.18099 0.26319 0.86743 0.0
C748 C 0.28168 0.36308 0.89075 0.0
C749 C 0.30284 0.33868 0.88394 0.0
C750 C 0.26048 0.33502 0.89258 0.0
C751 C 0.2601 0.28197 0.88789 0.0
C752 C 0.28141 0.25738 0.88177 0.0
C753 C 0.30251 0.28541 0.87974 0.0
C754 C 0.21459 0.17517 0.89622 0.0
C755 C 0.19458 0.19593 0.88519 0.0
C756 C 0.23585 0.2033 0.89744 0.0
C757 C 0.23735 0.2529 0.88791 0.0
C758 C 0.21719 0.27387 0.87729 0.0
C759 C 0.19611 0.24572 0.87588 0.0
H760 H 0.71432 0.41574 0.61551 0.0
H761 H 0.68155 0.27963 0.64403 0.0
H762 H 0.75269 0.37094 0.61428 0.0
H763 H 0.71969 0.23546 0.64292 0.0
H764 H 0.78741 0.15596 0.61886 0.0
H765 H 0.74943 0.20124 0.61539 0.0
H766 H 0.78158 0.33811 0.64334 0.0
H767 H 0.81951 0.2933 0.64668 0.0
C768 C 0.71526 0.37631 0.6214 0.0
C769 C 0.69494 0.35143 0.63003 0.0
C770 C 0.73722 0.35077 0.62078 0.0
C771 C 0.73916 0.29971 0.62852 0.0
C772 C 0.71871 0.27457 0.63663 0.0
C773 C 0.69689 0.30015 0.63745 0.0
C774 C 0.78641 0.19576 0.62417 0.0
C775 C 0.80644 0.22082 0.63324 0.0
C776 C 0.76465 0.22162 0.62224 0.0
C777 C 0.76255 0.27319 0.62912 0.0
C778 C 0.78271 0.29856 0.63769 0.0
C779 C 0.80438 0.27264 0.6398 0.0
H780 H 0.21623 0.91758 0.61178 0.0
H781 H 0.18202 0.78814 0.64452 0.0
H782 H 0.25356 0.86878 0.61005 0.0
H783 H 0.21906 0.74005 0.64288 0.0
H784 H 0.28414 0.65087 0.61897 0.0
H785 H 0.247 0.69954 0.61525 0.0
H786 H 0.28287 0.8364 0.63874 0.0
H787 H 0.31984 0.7883 0.64233 0.0
C788 C 0.21664 0.87881 0.61852 0.0
C789 C 0.19623 0.857 0.62848 0.0
C790 C 0.23799 0.85093 0.61758 0.0
C791 C 0.2392 0.80055 0.62631 0.0
C792 C 0.21863 0.7785 0.63577 0.0
C793 C 0.19745 0.8064 0.63692 0.0
C794 C 0.2841 0.69138 0.62322 0.0
C795 C 0.30487 0.7155 0.63119 0.0
C796 C 0.26285 0.71921 0.62114 0.0
C797 C 0.26204 0.77178 0.62674 0.0
C798 C 0.28298 0.79612 0.63409 0.0
C799 C 0.3041 0.7683 0.63636 0.0
H800 H 0.09091 0.93119 0.29794 0.0
H801 H 0.16291 0.98061 0.31199 0.0
H802 H 0.09101 0.98278 0.263 0.0
H803 H 0.16286 0.03229 0.27755 0.0
H804 H 0.16391 0.07382 0.20217 0.0
H805 H 0.16304 1.02205 0.2366 0.0
H806 H 0.09148 0.07443 0.2506 0.0
H807 H 0.09222 0.1261 0.21571 0.0
C808 C 0.10681 0.95259 0.2935 0.0
C809 C 0.12694 0.95145 0.30773 0.0
C810 C 0.10677 0.98263 0.27362 0.0
C811 C 0.12693 1.01183 0.26747 0.0
C812 C 0.14712 1.00992 0.28158 0.0
C813 C 0.14712 0.98026 0.30141 0.0
C814 C 0.14802 0.07479 0.21264 0.0
C815 C 0.12817 0.10444 0.20619 0.0
C816 C 0.14755 0.04507 0.23245 0.0
C817 C 0.12718 0.04393 0.2464 0.0
C818 C 0.10736 0.07396 0.24011 0.0
C819 C 0.10788 0.10405 0.22026 0.0
H820 H 0.88803 0.15172 0.29722 0.0
H821 H 0.85406 1.01425 0.32291 0.0
H822 H 0.88978 0.11301 0.25922 0.0
H823 H 0.85604 0.97582 0.28521 0.0
H824 H 0.88673 0.90541 0.21917 0.0
H825 H 0.8876 0.94446 0.25709 0.0
H826 H 0.85911 0.08532 0.22933 0.0
H827 H 0.85802 0.04653 0.19163 0.0
C828 C 0.88099 0.11335 0.29479 0.0
C829 C 0.87072 0.08634 0.31306 0.0
C830 C 0.88195 0.09124 0.27305 0.0
C831 C 0.87309 0.04131 0.26926 0.0
C832 C 0.86319 1.01412 0.28762 0.0
C833 C 0.86187 0.03645 0.30919 0.0
C834 C 0.88067 0.94468 0.22118 0.0
C835 C 0.87211 0.97261 0.2024 0.0
C836 C 0.88112 0.967 0.24288 0.0
C837 C 0.87345 1.018 0.24616 0.0
C838 C 0.86532 0.04615 0.22731 0.0
C839 C 0.8645 1.02364 0.20575 0.0
H840 H 0.90865 0.08664 0.70489 0.0
H841 H 0.83366 0.1157 0.71411 0.0
H842 H 0.90913 0.03478 0.73945 0.0
H843 H 0.83422 0.06787 0.74965 0.0
H844 H 0.83292 0.94093 0.80061 0.0
H845 H 0.83438 0.98862 0.76505 0.0
H846 H 0.90839 1.02591 0.77787 0.0
H847 H 0.9071 0.97418 0.81246 0.0
C848 C 0.89242 0.08313 0.71476 0.0
C849 C 0.87113 0.10522 0.70691 0.0
C850 C 0.89262 0.05335 0.73468 0.0
C851 C 0.87163 0.04601 0.74756 0.0
C852 C 0.85063 0.0706 0.74004 0.0
C853 C 0.85031 0.09893 0.7198 0.0
C854 C 0.84958 0.95857 0.79548 0.0
C855 C 0.86992 0.95351 0.80911 0.0
C856 C 0.8504 0.98683 0.77523 0.0
C857 C 0.8714 1.01257 0.76845 0.0
C858 C 0.89193 1.00644 0.78207 0.0
C859 C 0.89125 0.97673 0.802 0.0
H860 H 0.14022 1.00069 0.82187 0.0
H861 H 0.10959 0.14434 0.79926 0.0
H862 H 0.13815 0.96731 0.78323 0.0
H863 H 0.10779 0.11075 0.76029 0.0
H864 H 0.1428 0.05142 0.69247 0.0
H865 H 0.13981 0.08487 0.73104 0.0
H866 H 0.10696 0.94315 0.75301 0.0
H867 H 0.10969 0.90951 0.71412 0.0
C868 C 0.13304 1.02523 0.80863 0.0
C869 C 0.12526 0.07543 0.81361 0.0
C870 C 0.13166 1.00582 0.78653 0.0
C871 C 0.1228 0.03636 0.76876 0.0
C872 C 0.1148 0.08644 0.77369 0.0
C873 C 0.11578 0.10561 0.79596 0.0
C874 C 0.1349 1.02725 0.70547 0.0
C875 C 0.12667 0.97752 0.70025 0.0
C876 C 0.13299 0.04672 0.72754 0.0
C877 C 0.12313 1.0167 0.74502 0.0
C878 C 0.11473 0.96707 0.73985 0.0
C879 C 0.11626 0.94785 0.71761 0.0
H880 H 0.61637 0.40627 0.29274 0.0
H881 H 0.6363 0.54853 0.32542 0.0
H882 H 0.61605 0.45056 0.25578 0.0
H883 H 0.63552 0.59253 0.28876 0.0
H884 H 0.60554 0.66007 0.22071 0.0
H885 H 0.60398 0.61556 0.25753 0.0
H886 H 0.6491 0.49548 0.23097 0.0
H887 H 0.65113 0.54012 0.1945 0.0
C888 C 0.62056 0.4469 0.29206 0.0
C889 C 0.62657 0.4737 0.31197 0.0
C890 C 0.62043 0.4722 0.27093 0.0
C891 C 0.62574 0.52503 0.26943 0.0
C892 C 0.63122 0.55195 0.28941 0.0
C893 C 0.63184 0.52653 0.31038 0.0
C894 C 0.61522 0.62435 0.22279 0.0
C895 C 0.62862 0.60395 0.20471 0.0
C896 C 0.61431 0.59887 0.24384 0.0
C897 C 0.62631 0.55189 0.24706 0.0
C898 C 0.6395 0.53133 0.22893 0.0
C899 C 0.64082 0.55725 0.2081 0.0
H900 H 0.33254 0.56717 0.31346 0.0
H901 H 0.40492 0.61783 0.30216 0.0
H902 H 0.33328 0.52086 0.27761 0.0
H903 H 0.40553 0.57169 0.26585 0.0
H904 H 0.40513 0.43617 0.21442 0.0
H905 H 0.4052 0.48234 0.25072 0.0
H906 H 0.33402 0.53741 0.23705 0.0
H907 H 0.3338 0.49109 0.2012 0.0
C908 C 0.34857 0.56893 0.30321 0.0
C909 C 0.36864 0.59652 0.3107 0.0
C910 C 0.34896 0.54238 0.28257 0.0
C911 C 0.36947 0.54243 0.2688 0.0
C912 C 0.38953 0.57036 0.27615 0.0
C913 C 0.3891 0.59728 0.29684 0.0
C914 C 0.38941 0.45766 0.21931 0.0
C915 C 0.36941 0.45959 0.20492 0.0
C916 C 0.38955 0.48459 0.24 0.0
C917 C 0.36963 0.51372 0.24682 0.0
C918 C 0.34957 0.51497 0.23251 0.0
C919 C 0.34948 0.48839 0.21187 0.0
H920 H 0.40535 0.47393 0.81271 0.0
H921 H 0.33132 0.4388 0.80103 0.0
H922 H 0.4065 0.52414 0.77767 0.0
H923 H 0.33265 0.48502 0.76509 0.0
H924 H 0.33146 0.61002 0.71314 0.0
H925 H 0.3322 0.56364 0.74905 0.0
H926 H 0.40723 0.53156 0.73915 0.0
H927 H 0.40656 0.58193 0.70415 0.0
C928 C 0.38951 0.47572 0.80221 0.0
C929 C 0.36826 0.4524 0.80951 0.0
C930 C 0.3901 0.50457 0.78202 0.0
C931 C 0.36957 0.50978 0.76833 0.0
C932 C 0.34867 0.48395 0.77531 0.0
C933 C 0.34793 0.45651 0.79579 0.0
C934 C 0.34817 0.59379 0.71896 0.0
C935 C 0.36897 0.59993 0.706 0.0
C936 C 0.34859 0.56627 0.73943 0.0
C937 C 0.36969 0.54239 0.74715 0.0
C938 C 0.39065 0.54959 0.73422 0.0
C939 C 0.39033 0.57853 0.71405 0.0
H940 H 0.593 0.61462 0.80284 0.0
H941 H 0.6659 0.56604 0.81269 0.0
H942 H 0.59267 0.57219 0.76559 0.0
H943 H 0.66541 0.52341 0.77602 0.0
H944 H 0.6656 0.50214 0.69946 0.0
H945 H 0.66448 0.54506 0.73604 0.0
H946 H 0.59402 0.48421 0.74839 0.0
H947 H 0.59496 0.44146 0.71123 0.0
C948 C 0.60898 0.59534 0.79701 0.0
C949 C 0.62951 0.59404 0.81072 0.0
C950 C 0.60871 0.57054 0.77579 0.0
C951 C 0.62901 0.54431 0.7678 0.0
C952 C 0.64955 0.54369 0.78146 0.0
C953 C 0.64979 0.56813 0.80259 0.0
C954 C 0.64986 0.49749 0.70995 0.0
C955 C 0.6304 0.46804 0.70238 0.0
C956 C 0.64926 0.5221 0.73102 0.0
C957 C 0.62918 0.51813 0.74522 0.0
C958 C 0.60968 0.48848 0.73777 0.0
C959 C 0.61032 0.46351 0.7166 0.0
H960 H 0.13329 0.08151 0.95947 0.0
H961 H 0.11557 0.24126 0.94819 0.0
H962 H 0.1301 0.09369 0.99999 0.0
H963 H 0.11197 0.25339 0.98966 0.0
H964 H 0.13472 0.24961 0.06881 0.0
H965 H 0.13558 0.2509 0.02701 0.0
H966 H 0.09691 0.10734 0.02589 0.0
H967 H 0.09663 0.10537 0.06715 0.0
C968 C 0.12855 0.1194 0.96562 0.0
C969 C 0.12426 0.16022 0.95046 0.0
C970 C 0.12662 0.12629 0.98898 0.0
C971 C 0.12018 0.17416 0.99809 0.0
C972 C 0.11682 0.21592 0.98312 0.0
C973 C 0.11885 0.209 0.95943 0.0
C974 C 0.12613 0.21881 0.05955 0.0
C975 C 0.116 0.17689 0.07126 0.0
C976 C 0.12656 0.21963 0.03564 0.0
C977 C 0.11676 0.17868 0.02314 0.0
C978 C 0.1052 0.1388 0.03499 0.0
C979 C 0.10498 0.13773 0.05868 0.0
H980 H 0.87696 0.9729 0.95278 0.0
H981 H 0.87608 0.80751 0.94558 0.0
H982 H 0.87939 0.96395 0.9936 0.0
H983 H 0.8791 0.79854 0.98707 0.0
H984 H 0.85618 0.81801 0.0649 0.0
H985 H 0.85665 0.81411 0.02311 0.0
H986 H 0.90793 0.93801 0.02154 0.0
H987 H 0.90679 0.94289 0.06275 0.0
C988 C 0.87749 0.93444 0.95987 0.0
C989 C 0.87648 0.89092 0.94576 0.0
C990 C 0.87905 0.92931 0.98341 0.0
C991 C 0.87983 0.8805 0.99369 0.0
C992 C 0.87852 0.8367 0.9797 0.0
C993 C 0.8769 0.84186 0.95594 0.0
C994 C 0.86783 0.84365 0.05553 0.0
C995 C 0.88115 0.88129 0.06701 0.0
C996 C 0.86812 0.84145 0.03163 0.0
C997 C 0.88191 0.87659 0.01893 0.0
C998 C 0.89654 0.91143 0.03069 0.0
C999 C 0.89601 0.91404 0.05435 0.0
H1000 H 0.09442 0.94887 0.44696 0.0
H1001 H 0.13377 0.80628 0.44471 0.0
H1002 H 0.09535 0.94697 0.48822 0.0
H1003 H 0.1353 0.80509 0.48649 0.0
H1004 H 0.11714 0.81368 0.56555 0.0
H1005 H 0.11262 0.80158 0.5242 0.0
H1006 H 0.12866 0.96226 0.51361 0.0
H1007 H 0.13274 0.97442 0.55405 0.0
C1008 C 0.10317 0.91687 0.45532 0.0
C1009 C 0.11436 0.87817 0.44257 0.0
C1010 C 0.10378 0.91585 0.479 0.0
C1011 C 0.1159 0.87652 0.49067 0.0
C1012 C 0.12585 0.83594 0.47801 0.0
C1013 C 0.12502 0.83669 0.45411 0.0
C1014 C 0.11975 0.8462 0.55429 0.0
C1015 C 0.12489 0.89517 0.56319 0.0
C1016 C 0.1172 0.83928 0.53065 0.0
C1017 C 0.11973 0.88125 0.51565 0.0
C1018 C 0.12582 0.92943 0.52466 0.0
C1019 C 0.12828 0.93632 0.54798 0.0
H1020 H 0.86321 0.24622 0.56997 0.0
H1021 H 0.90079 0.10166 0.56571 0.0
H1022 H 0.86252 0.25146 0.52823 0.0
H1023 H 0.90074 0.10757 0.52452 0.0
H1024 H 0.86541 0.08934 0.45712 0.0
H1025 H 0.86843 0.09676 0.49788 0.0
H1026 H 0.88584 0.25786 0.49128 0.0
H1027 H 0.88234 0.25061 0.44961 0.0
C1028 C 0.87171 0.21615 0.56016 0.0
C1029 C 0.88165 0.17302 0.5711 0.0
C1030 C 0.87138 0.21924 0.53628 0.0
C1031 C 0.88112 0.17939 0.52304 0.0
C1032 C 0.89246 0.13822 0.53416 0.0
C1033 C 0.89257 0.13489 0.55782 0.0
C1034 C 0.86998 0.12653 0.46415 0.0
C1035 C 0.87404 0.16923 0.44997 0.0
C1036 C 0.87181 0.13069 0.48766 0.0
C1037 C 0.87796 0.17758 0.49788 0.0
C1038 C 0.8812 0.22109 0.48388 0.0
C1039 C 0.87924 0.21695 0.46007 0.0
H1040 H 0.63644 0.74184 0.06536 0.0
H1041 H 0.59382 0.60367 0.06645 0.0
H1042 H 0.63543 0.74161 0.02365 0.0
H1043 H 0.59192 0.60448 0.02521 0.0
H1044 H 0.62109 0.57507 0.95532 0.0
H1045 H 0.61921 0.58477 0.9961 0.0
H1046 H 0.61292 0.74948 0.98839 0.0
H1047 H 0.61562 0.73977 0.94695 0.0
C1048 C 0.62645 0.71209 0.0567 0.0
C1049 C 0.61552 0.67232 0.06914 0.0
C1050 C 0.62581 0.71199 0.03281 0.0
C1051 C 0.614 0.6724 0.02097 0.0
C1052 C 0.60183 0.63467 0.03364 0.0
C1053 C 0.60278 0.63435 0.05734 0.0
C1054 C 0.61919 0.6135 0.96216 0.0
C1055 C 0.61835 0.65662 0.94773 0.0
C1056 C 0.61793 0.61905 0.9857 0.0
C1057 C 0.61552 0.66787 0.99568 0.0
C1058 C 0.61485 0.7113 0.98132 0.0
C1059 C 0.61628 0.70572 0.95757 0.0
H1060 H 0.36858 0.4819 0.95284 0.0
H1061 H 0.38155 0.31853 0.94785 0.0
H1062 H 0.37103 0.47671 0.9938 0.0
H1063 H 0.38483 0.31356 0.98939 0.0
H1064 H 0.3632 0.32201 0.0664 0.0
H1065 H 0.36275 0.31973 0.02475 0.0
H1066 H 0.39925 0.46603 0.02296 0.0
H1067 H 0.39883 0.4691 0.0642 0.0
C1068 C 0.37222 0.44478 0.96046 0.0
C1069 C 0.37504 0.40067 0.94693 0.0
C1070 C 0.3738 0.44187 0.98409 0.0
C1071 C 0.37852 0.39485 0.99505 0.0
C1072 C 0.38108 0.3504 0.98158 0.0
C1073 C 0.37931 0.35327 0.95776 0.0
C1074 C 0.37129 0.3534 0.05704 0.0
C1075 C 0.38075 0.39606 0.0686 0.0
C1076 C 0.37112 0.35203 0.03316 0.0
C1077 C 0.38059 0.39312 0.02038 0.0
C1078 C 0.39114 0.43439 0.03212 0.0
C1079 C 0.39104 0.43603 0.05585 0.0
H1080 H 0.58649 0.42282 0.44873 0.0
H1081 H 0.645 0.31526 0.44856 0.0
H1082 H 0.58465 0.41859 0.48999 0.0
H1083 H 0.64384 0.31235 0.49038 0.0
H1084 H 0.62556 0.30687 0.56822 0.0
H1085 H 0.62235 0.29276 0.52698 0.0
H1086 H 0.61148 0.45568 0.5171 0.0
H1087 H 0.61416 0.46952 0.55756 0.0
C1088 C 0.59876 0.39762 0.45759 0.0
C1089 C 0.61603 0.36978 0.44552 0.0
C1090 C 0.59784 0.39544 0.48126 0.0
C1091 C 0.61451 0.36622 0.49357 0.0
C1092 C 0.63074 0.33528 0.48143 0.0
C1093 C 0.63142 0.33688 0.45752 0.0
C1094 C 0.62231 0.33949 0.55718 0.0
C1095 C 0.62 0.38929 0.5663 0.0
C1096 C 0.62059 0.33143 0.53357 0.0
C1097 C 0.61633 0.37296 0.51872 0.0
C1098 C 0.61416 0.42253 0.52798 0.0
C1099 C 0.6159 0.43054 0.55132 0.0
H1100 H 0.36177 0.73128 0.56701 0.0
H1101 H 0.39901 0.5861 0.56532 0.0
H1102 H 0.36234 0.73433 0.52535 0.0
H1103 H 0.40049 0.58998 0.52411 0.0
H1104 H 0.37175 0.57359 0.45325 0.0
H1105 H 0.37332 0.57813 0.49429 0.0
H1106 H 0.38492 0.74221 0.49046 0.0
H1107 H 0.3825 0.73781 0.44888 0.0
C1108 C 0.37045 0.70053 0.55776 0.0
C1109 C 0.38003 0.65808 0.56943 0.0
C1110 C 0.37085 0.70231 0.53387 0.0
C1111 C 0.38107 0.66191 0.52123 0.0
C1112 C 0.39179 0.62102 0.53313 0.0
C1113 C 0.39109 0.61893 0.55684 0.0
C1114 C 0.37475 0.61075 0.46103 0.0
C1115 C 0.37718 0.65529 0.44766 0.0
C1116 C 0.3758 0.61332 0.4847 0.0
C1117 C 0.37962 0.66044 0.49584 0.0
C1118 C 0.38185 0.70527 0.48251 0.0
C1119 C 0.38058 0.70274 0.45867 0.0
H1120 H 0.95692 0.90981 0.15145 0.0
H1121 H 0.92962 0.0574 0.12996 0.0
H1122 H 0.99681 0.94584 0.15403 0.0
H1123 H 0.96971 0.09302 0.13144 0.0
H1124 H 0.03976 0.15598 0.15572 0.0
H1125 H 5e-05 0.11884 0.15625 0.0
H1126 H 0.02876 0.97497 0.13155 0.0
H1127 H 0.06874 1.01169 0.13214 0.0
C1128 C 0.9595 0.94992 0.1471 0.0
C1129 C 0.94017 0.98083 0.14049 0.0
C1130 C 0.98242 0.97052 0.14844 0.0
C1131 C 0.98658 1.02233 0.14287 0.0
C1132 C 0.96715 0.05321 0.13627 0.0
C1133 C 0.94417 0.03278 0.13529 0.0
C1134 C 0.03759 0.11633 0.15049 0.0
C1135 C 0.05731 0.08676 0.14378 0.0
C1136 C 0.01478 0.0951 0.15065 0.0
C1137 C 0.01108 0.04402 0.14372 0.0
C1138 C 0.03093 1.01422 0.13729 0.0
C1139 C 0.05385 0.03527 0.13751 0.0
H1140 H 0.95446 0.14487 0.36639 0.0
H1141 H 0.92658 0.99626 0.38573 0.0
H1142 H 0.99423 0.10865 0.36352 0.0
H1143 H 0.96665 0.96027 0.38402 0.0
H1144 H 0.03718 0.89879 0.35907 0.0
H1145 H 0.99736 0.93547 0.35946 0.0
H1146 H 0.02608 0.07827 0.38529 0.0
H1147 H 0.06611 0.0421 0.38375 0.0
C1148 C 0.9569 0.10446 0.37026 0.0
C1149 C 0.93741 0.07339 0.37635 0.0
C1150 C 0.97977 0.08372 0.36875 0.0
C1151 C 0.98382 0.03153 0.37366 0.0
C1152 C 0.96423 1.00043 0.37973 0.0
C1153 C 0.94125 1.02105 0.38086 0.0
C1154 C 0.03498 0.93812 0.36473 0.0
C1155 C 0.05475 0.96759 0.37141 0.0
C1156 C 0.01209 0.95907 0.36513 0.0
C1157 C 0.00835 1.00978 0.37257 0.0
C1158 C 0.02824 0.03937 0.3791 0.0
C1159 C 0.05121 1.01863 0.37833 0.0
H1160 H 0.04423 0.13767 0.86757 0.0
H1161 H 0.06769 0.98734 0.88943 0.0
H1162 H 0.00342 0.10693 0.86559 0.0
H1163 H 0.0266 0.95698 0.88861 0.0
H1164 H 0.95484 0.90289 0.86407 0.0
H1165 H 0.99552 0.93445 0.86422 0.0
H1166 H 0.97057 0.08258 0.88769 0.0
H1167 H 0.92956 0.05136 0.88636 0.0
C1168 C 0.04059 0.09809 0.87218 0.0
C1169 C 0.05913 0.06486 0.87868 0.0
C1170 C 0.01713 0.08053 0.87119 0.0
C1171 C 0.01157 0.0295 0.87703 0.0
C1172 C 0.0302 0.99629 0.88359 0.0
C1173 C 0.05377 1.01367 0.88419 0.0
C1174 C 0.95804 0.94227 0.86922 0.0
C1175 C 0.93905 0.97466 0.8753 0.0
C1176 C 0.98143 0.96029 0.86947 0.0
C1177 C 0.98648 1.01096 0.87619 0.0
C1178 C 0.96738 0.04354 0.88211 0.0
C1179 C 0.94387 1.02568 0.88146 0.0
H1180 H 0.95832 0.15682 0.65278 0.0
H1181 H 0.93191 1.0097 0.62998 0.0
H1182 H -0.00116 0.12397 0.652 0.0
H1183 H 0.97261 0.97732 0.62801 0.0
H1184 H 0.04587 0.91866 0.6466 0.0
H1185 H 0.0054 0.95105 0.64948 0.0
H1186 H 0.0296 0.1009 0.62726 0.0
H1187 H 0.07039 0.06883 0.62556 0.0
C1188 C 0.96123 0.11748 0.64742 0.0
C1189 C 0.94197 0.08581 0.6414 0.0
C1190 C 0.98451 0.09872 0.6468 0.0
C1191 C 0.98915 0.04805 0.63976 0.0
C1192 C 0.96977 1.01628 0.63387 0.0
C1193 C 0.94641 0.03484 0.63488 0.0
C1194 C 0.04253 0.95856 0.64234 0.0
C1195 C 0.06128 0.99123 0.6358 0.0
C1196 C 0.01926 0.97709 0.64385 0.0
C1197 C 0.01408 0.02859 0.6385 0.0
C1198 C 0.03291 0.06125 0.63191 0.0
C1199 C 0.0563 0.04287 0.63078 0.0
H1200 H 0.45798 0.41078 0.15239 0.0
H1201 H 0.42991 0.55805 0.13138 0.0
H1202 H 0.49783 0.44689 0.15396 0.0
H1203 H 0.47008 0.5939 0.13188 0.0
H1204 H 0.56908 0.51096 0.1302 0.0
H1205 H 0.52891 0.47529 0.13028 0.0
H1206 H 0.50146 0.61956 0.15581 0.0
H1207 H 0.54138 0.65566 0.15469 0.0
C1208 C 0.46039 0.45087 0.14792 0.0
C1209 C 0.44086 0.4816 0.14167 0.0
C1210 C 0.48329 0.47151 0.14868 0.0
C1211 C 0.48729 0.52321 0.14287 0.0
C1212 C 0.46766 0.55409 0.13679 0.0
C1213 C 0.44463 0.53357 0.13638 0.0
C1214 C 0.55444 0.53485 0.13591 0.0
C1215 C 0.55832 0.5861 0.14231 0.0
C1216 C 0.53141 0.51443 0.13606 0.0
C1217 C 0.51185 0.54461 0.14298 0.0
C1218 C 0.51595 0.59554 0.14989 0.0
C1219 C 0.53888 0.61614 0.14939 0.0
H1220 H 0.456 0.64295 0.36335 0.0
H1221 H 0.42849 0.49629 0.38587 0.0
H1222 H 0.49591 0.60745 0.3618 0.0
H1223 H 0.46884 0.46099 0.38538 0.0
H1224 H 0.54108 0.40063 0.36274 0.0
H1225 H 0.50071 0.43467 0.36192 0.0
H1226 H 0.52698 0.58144 0.38566 0.0
H1227 H 0.56747 0.54794 0.38542 0.0
C1228 C 0.45854 0.60311 0.36819 0.0
C1229 C 0.43915 0.57245 0.37489 0.0
C1230 C 0.4815 0.5828 0.36743 0.0
C1231 C 0.48575 0.53148 0.37372 0.0
C1232 C 0.46624 0.50053 0.38016 0.0
C1233 C 0.44312 0.52073 0.38056 0.0
C1234 C 0.53822 0.44025 0.36769 0.0
C1235 C 0.55745 0.47168 0.3741 0.0
C1236 C 0.51503 0.45968 0.36738 0.0
C1237 C 0.51048 0.5108 0.37377 0.0
C1238 C 0.5298 0.54217 0.38021 0.0
C1239 C 0.55304 0.52294 0.38018 0.0
H1240 H 0.42754 0.55634 0.88549 0.0
H1241 H 0.45295 0.40723 0.86418 0.0
H1242 H 0.46846 0.58835 0.88567 0.0
H1243 H 0.49348 0.43948 0.8632 0.0
H1244 H 0.56594 0.49516 0.88675 0.0
H1245 H 0.52497 0.46382 0.88682 0.0
H1246 H 0.5007 0.61192 0.86251 0.0
H1247 H 0.54138 0.64365 0.86357 0.0
C1248 C 0.44185 0.53068 0.88058 0.0
C1249 C 0.43711 0.47927 0.87503 0.0
C1250 C 0.4653 0.54897 0.88056 0.0
C1251 C 0.4844 0.51641 0.87458 0.0
C1252 C 0.47941 0.46534 0.86848 0.0
C1253 C 0.4561 0.44692 0.86888 0.0
C1254 C 0.55181 0.52083 0.88138 0.0
C1255 C 0.55681 0.57184 0.87529 0.0
C1256 C 0.52832 0.5029 0.88131 0.0
C1257 C 0.50941 0.53538 0.87472 0.0
C1258 C 0.51464 0.58613 0.86819 0.0
C1259 C 0.53802 0.60424 0.86864 0.0
H1260 H 0.45522 0.64726 0.65314 0.0
H1261 H 0.42971 0.49974 0.62992 0.0
H1262 H 0.49577 0.61482 0.65352 0.0
H1263 H 0.47058 0.46765 0.62916 0.0
H1264 H 0.54367 0.41059 0.64961 0.0
H1265 H 0.503 0.44226 0.65158 0.0
H1266 H 0.5271 0.59215 0.6293 0.0
H1267 H 0.56804 0.56082 0.62847 0.0
C1268 C 0.45835 0.60789 0.64794 0.0
C1269 C 0.43933 0.57604 0.64141 0.0
C1270 C 0.48166 0.58936 0.64799 0.0
C1271 C 0.48661 0.53873 0.64115 0.0
C1272 C 0.46747 0.50666 0.63484 0.0
C1273 C 0.44404 0.52501 0.63516 0.0
C1274 C 0.54027 0.45037 0.64517 0.0
C1275 C 0.55902 0.48326 0.63884 0.0
C1276 C 0.51689 0.46847 0.64615 0.0
C1277 C 0.51162 0.51973 0.64049 0.0
C1278 C 0.53047 0.55266 0.63417 0.0
C1279 C 0.55395 0.53472 0.63356 0.0
H1280 H 0.17042 0.77252 0.12605 0.0
H1281 H 0.09434 0.79723 0.12918 0.0
H1282 H 0.16414 0.68022 0.12885 0.0
H1283 H 0.08813 0.70493 0.13321 0.0
H1284 H 0.08345 0.53313 0.11815 0.0
H1285 H 0.09003 0.62511 0.11312 0.0
H1286 H 0.15268 0.61578 0.15561 0.0
H1287 H 0.14621 0.52372 0.16038 0.0
C1288 C 0.15231 0.75836 0.12721 0.0
C1289 C 0.13289 0.79265 0.12729 0.0
C1290 C 0.14872 0.70527 0.12916 0.0
C1291 C 0.12562 0.68483 0.13137 0.0
C1292 C 0.10617 0.71906 0.1313 0.0
C1293 C 0.10976 0.7722 0.12927 0.0
C1294 C 0.09859 0.55075 0.12649 0.0
C1295 C 0.11428 0.52093 0.1397 0.0
C1296 C 0.10234 0.60361 0.12364 0.0
C1297 C 0.12186 0.62819 0.134 0.0
C1298 C 0.13766 0.59821 0.14706 0.0
C1299 C 0.13396 0.54531 0.14983 0.0
H1300 H 0.89558 0.27072 0.14207 0.0
H1301 H 0.82258 0.29977 0.12266 0.0
H1302 H 0.90193 0.36272 0.14708 0.0
H1303 H 0.82923 0.39184 0.12664 0.0
H1304 H 0.84289 0.55139 0.15716 0.0
H1305 H 0.83581 0.45913 0.15382 0.0
H1306 H 0.90601 0.43968 0.12484 0.0
H1307 H 0.9131 0.5317 0.12831 0.0
C1308 C 0.88082 0.29662 0.13898 0.0
C1309 C 0.85857 0.27754 0.13189 0.0
C1310 C 0.88456 0.34958 0.14155 0.0
C1311 C 0.86616 0.38502 0.13712 0.0
C1312 C 0.84379 0.36587 0.1304 0.0
C1313 C 0.84005 0.31294 0.12784 0.0
C1314 C 0.85673 0.5275 0.14988 0.0
C1315 C 0.8786 0.54914 0.14308 0.0
C1316 C 0.85268 0.47448 0.14797 0.0
C1317 C 0.87037 0.44164 0.13916 0.0
C1318 C 0.89214 0.46343 0.13215 0.0
C1319 C 0.8962 0.51636 0.1341 0.0
H1320 H 0.11055 0.25669 0.35379 0.0
H1321 H 0.14547 0.28276 0.41819 0.0
H1322 H 0.10413 0.34881 0.3496 0.0
H1323 H 0.13992 0.3752 0.41354 0.0
H1324 H 0.10515 0.53515 0.4076 0.0
H1325 H 0.11035 0.44278 0.41317 0.0
H1326 H 0.12669 0.42548 0.34178 0.0
H1327 H 0.12138 0.51758 0.33623 0.0
C1328 C 0.1167 0.28198 0.36717 0.0
C1329 C 0.12854 0.26205 0.38634 0.0
C1330 C 0.11332 0.33501 0.3646 0.0
C1331 C 0.12167 0.3697 0.38113 0.0
C1332 C 0.13309 0.34974 0.40052 0.0
C1333 C 0.1365 0.29666 0.40309 0.0
C1334 C 0.11008 0.51171 0.39314 0.0
C1335 C 0.11273 0.53391 0.37144 0.0
C1336 C 0.11305 0.45865 0.39633 0.0
C1337 C 0.11879 0.4264 0.37791 0.0
C1338 C 0.12177 0.4488 0.35629 0.0
C1339 C 0.11877 0.50175 0.3531 0.0
H1340 H 0.84634 0.49997 0.39345 0.0
H1341 H 0.90621 0.52944 0.34904 0.0
H1342 H 0.83961 0.59223 0.39701 0.0
H1343 H 0.89881 0.62144 0.35177 0.0
H1344 H 0.89468 0.78407 0.38183 0.0
H1345 H 0.90172 0.692 0.37799 0.0
H1346 H 0.82576 0.66549 0.37559 0.0
H1347 H 0.81874 0.75753 0.37948 0.0
C1348 C 0.8581 0.52604 0.38445 0.0
C1349 C 0.87682 0.50699 0.37094 0.0
C1350 C 0.85404 0.57904 0.38626 0.0
C1351 C 0.86861 0.6145 0.37463 0.0
C1352 C 0.88736 0.59544 0.36117 0.0
C1353 C 0.89142 0.54249 0.35937 0.0
C1354 C 0.87947 0.75871 0.3802 0.0
C1355 C 0.85613 0.77841 0.38102 0.0
C1356 C 0.88351 0.70579 0.37802 0.0
C1357 C 0.86432 0.67106 0.37657 0.0
C1358 C 0.84098 0.69085 0.3771 0.0
C1359 C 0.83695 0.74375 0.37929 0.0
H1360 H 0.84254 0.29822 0.91821 0.0
H1361 H 0.88103 0.27472 0.85541 0.0
H1362 H 0.84827 0.39088 0.91452 0.0
H1363 H 0.88756 0.36701 0.8522 0.0
H1364 H 0.87108 0.53596 0.83925 0.0
H1365 H 0.86514 0.44379 0.84393 0.0
H1366 H 0.87808 0.45828 0.91606 0.0
H1367 H 0.8839 0.55077 0.91135 0.0
C1368 C 0.85232 0.31275 0.90366 0.0
C1369 C 0.86126 0.27885 0.88708 0.0
C1370 C 0.85581 0.36592 0.90167 0.0
C1371 C 0.86828 0.3866 0.883 0.0
C1372 C 0.87757 0.3526 0.86664 0.0
C1373 C 0.87411 0.2995 0.86865 0.0
C1374 C 0.87279 0.51949 0.8561 0.0
C1375 C 0.8781 0.55084 0.8749 0.0
C1376 C 0.86943 0.46654 0.85879 0.0
C1377 C 0.87133 0.44335 0.88035 0.0
C1378 C 0.87625 0.47482 0.89923 0.0
C1379 C 0.87957 0.5279 0.89654 0.0
H1380 H 0.09631 0.50955 0.84856 0.0
H1381 H 0.15193 0.48055 0.89771 0.0
H1382 H 0.10353 0.60154 0.85161 0.0
H1383 H 0.1584 0.57287 0.90153 0.0
H1384 H 0.18074 0.73805 0.88507 0.0
H1385 H 0.17413 0.6459 0.88098 0.0
H1386 H 0.09819 0.67212 0.87753 0.0
H1387 H 0.10481 0.76427 0.88157 0.0
C1388 C 0.11014 0.52272 0.85999 0.0
C1389 C 0.1236 0.48738 0.87281 0.0
C1390 C 0.11407 0.57565 0.86196 0.0
C1391 C 0.13153 0.59484 0.87684 0.0
C1392 C 0.14499 0.55954 0.88969 0.0
C1393 C 0.14107 0.50654 0.88771 0.0
C1394 C 0.16261 0.72417 0.88356 0.0
C1395 C 0.14331 0.75874 0.88369 0.0
C1396 C 0.15881 0.67123 0.88125 0.0
C1397 C 0.13561 0.65137 0.87899 0.0
C1398 C 0.11633 0.686 0.87889 0.0
C1399 C 0.12013 0.73895 0.88119 0.0
H1400 H 0.88454 0.78684 0.6596 0.0
H1401 H 0.84615 0.76179 0.59693 0.0
H1402 H 0.89091 0.69462 0.66332 0.0
H1403 H 0.85167 0.66923 0.60117 0.0
H1404 H 0.88659 0.50892 0.6052 0.0
H1405 H 0.88107 0.60134 0.59998 0.0
H1406 H 0.86858 0.61823 0.6721 0.0
H1407 H 0.87424 0.52613 0.67729 0.0
C1408 C 0.8776 0.76175 0.6465 0.0
C1409 C 0.86482 0.78198 0.62795 0.0
C1410 C 0.88096 0.70867 0.64881 0.0
C1411 C 0.87163 0.67423 0.63266 0.0
C1412 C 0.85924 0.6945 0.61387 0.0
C1413 C 0.85587 0.74763 0.61156 0.0
C1414 C 0.88242 0.5323 0.6199 0.0
C1415 C 0.88099 0.51003 0.64168 0.0
C1416 C 0.87927 0.58536 0.61691 0.0
C1417 C 0.87455 0.6175 0.63563 0.0
C1418 C 0.87271 0.59498 0.65735 0.0
C1419 C 0.87591 0.54205 0.66033 0.0
H1420 H 0.10583 0.29039 0.62609 0.0
H1421 H 0.18148 0.31544 0.63389 0.0
H1422 H 0.09887 0.38251 0.62966 0.0
H1423 H 0.17452 0.40758 0.63754 0.0
H1424 H 0.15586 0.57421 0.61968 0.0
H1425 H 0.16257 0.48196 0.61578 0.0
H1426 H 0.09997 0.45187 0.65651 0.0
H1427 H 0.09266 0.5438 0.65952 0.0
C1428 C 0.12097 0.31544 0.62884 0.0
C1429 C 0.14423 0.29531 0.62969 0.0
C1430 C 0.11698 0.36839 0.63087 0.0
C1431 C 0.13613 0.40272 0.63384 0.0
C1432 C 0.15937 0.38253 0.63486 0.0
C1433 C 0.16336 0.32958 0.63281 0.0
C1434 C 0.14337 0.54794 0.62759 0.0
C1435 C 0.12373 0.56669 0.63995 0.0
C1436 C 0.14739 0.49495 0.6256 0.0
C1437 C 0.13186 0.45925 0.63588 0.0
C1438 C 0.11218 0.47805 0.64816 0.0
C1439 C 0.10816 0.53095 0.65013 0.0
H1440 H 0.60738 1.01943 0.10316 0.0
H1441 H 0.62629 0.03572 0.17396 0.0
H1442 H 0.61251 0.11189 0.09771 0.0
H1443 H 0.63153 0.12787 0.16852 0.0
H1444 H 0.61498 0.29675 0.1577 0.0
H1445 H 0.6086 0.20458 0.16175 0.0
H1446 H 0.64221 0.1793 0.09659 0.0
H1447 H 0.64771 0.27181 0.09211 0.0
C1448 C 0.61289 0.04262 0.11751 0.0
C1449 C 0.61631 1.02008 0.13903 0.0
C1450 C 0.61582 0.0957 0.11439 0.0
C1451 C 0.62227 0.12757 0.13271 0.0
C1452 C 0.62604 0.10481 0.15413 0.0
C1453 C 0.62308 0.05186 0.15725 0.0
C1454 C 0.62065 0.2717 0.14404 0.0
C1455 C 0.63187 0.29191 0.12457 0.0
C1456 C 0.6173 0.21865 0.14651 0.0
C1457 C 0.62507 0.18427 0.12959 0.0
C1458 C 0.63586 0.20454 0.10991 0.0
C1459 C 0.63923 0.25763 0.10744 0.0
H1460 H 0.40322 0.77316 0.12306 0.0
H1461 H 0.32705 0.79673 0.12609 0.0
H1462 H 0.40946 0.86551 0.12675 0.0
H1463 H 0.33325 0.88906 0.12856 0.0
H1464 H 0.35338 0.04483 0.15923 0.0
H1465 H 0.34686 0.95279 0.15467 0.0
H1466 H 0.40546 0.94575 0.10702 0.0
H1467 H 0.41212 0.03774 0.11184 0.0
C1468 C 0.38778 0.79796 0.12442 0.0
C1469 C 0.36462 0.77721 0.12428 0.0
C1470 C 0.39136 0.85111 0.12626 0.0
C1471 C 0.37187 0.88499 0.12797 0.0
C1472 C 0.34872 0.86425 0.12758 0.0
C1473 C 0.34515 0.81116 0.12581 0.0
C1474 C 0.36471 1.02375 0.1476 0.0
C1475 C 0.3833 0.04874 0.13594 0.0
C1476 C 0.36097 0.97087 0.14495 0.0
C1477 C 0.37564 0.94157 0.13048 0.0
C1478 C 0.39406 0.96676 0.11862 0.0
C1479 C 0.39786 1.01959 0.12134 0.0
H1480 H 0.60733 0.0413 0.40272 0.0
H1481 H 0.63851 0.03114 0.33571 0.0
H1482 H 0.61287 0.94906 0.40789 0.0
H1483 H 0.64426 0.93894 0.34091 0.0
H1484 H 0.62888 0.76682 0.3485 0.0
H1485 H 0.62286 0.85902 0.34338 0.0
H1486 H 0.64272 0.88462 0.41343 0.0
H1487 H 0.64768 0.79247 0.4188 0.0
C1488 C 0.61564 1.01952 0.38918 0.0
C1489 C 0.62245 0.04382 0.36879 0.0
C1490 C 0.61882 0.96649 0.39214 0.0
C1491 C 0.629 0.93624 0.37481 0.0
C1492 C 0.63597 0.96066 0.35448 0.0
C1493 C 0.63272 1.01367 0.35151 0.0
C1494 C 0.63172 0.79203 0.36288 0.0
C1495 C 0.63882 0.77194 0.38406 0.0
C1496 C 0.62855 0.8451 0.35987 0.0
C1497 C 0.63235 0.87957 0.37797 0.0
C1498 C 0.63937 0.8594 0.39915 0.0
C1499 C 0.64253 0.80643 0.40215 0.0
H1500 H 0.34699 0.99808 0.39182 0.0
H1501 H 0.41854 0.03015 0.36856 0.0
H1502 H 0.34021 0.08979 0.39735 0.0
H1503 H 0.41137 0.12188 0.37307 0.0
H1504 H 0.39838 0.28124 0.40322 0.0
H1505 H 0.40571 0.18885 0.40073 0.0
H1506 H 0.33434 0.16624 0.37512 0.0
H1507 H 0.32702 0.25821 0.37771 0.0
C1508 C 0.36133 1.02459 0.38797 0.0
C1509 C 0.3833 1.00649 0.37965 0.0
C1510 C 0.35733 0.07734 0.39088 0.0
C1511 C 0.37519 0.11348 0.38555 0.0
C1512 C 0.39727 0.0953 0.37756 0.0
C1513 C 0.40127 0.04259 0.37468 0.0
C1514 C 0.38429 0.25654 0.397 0.0
C1515 C 0.36208 0.2773 0.39076 0.0
C1516 C 0.38849 0.20352 0.39555 0.0
C1517 C 0.37061 0.16986 0.38776 0.0
C1518 C 0.34839 0.19069 0.38161 0.0
C1519 C 0.34419 0.24359 0.3831 0.0
H1520 H 0.38217 0.7773 0.85827 0.0
H1521 H 0.33551 0.80159 0.91574 0.0
H1522 H 0.38918 0.8695 0.85574 0.0
H1523 H 0.34173 0.89417 0.91259 0.0
H1524 H 0.3772 0.05438 0.91344 0.0
H1525 H 0.37076 0.96192 0.91764 0.0
H1526 H 0.36844 0.9462 0.84454 0.0
H1527 H 0.37502 0.03825 0.84039 0.0
C1528 C 0.37353 0.80221 0.87049 0.0
C1529 C 0.35826 0.78177 0.88721 0.0
C1530 C 0.37728 0.8553 0.86883 0.0
C1531 C 0.36587 0.88955 0.88382 0.0
C1532 C 0.35095 0.86906 0.90083 0.0
C1533 C 0.34718 0.81591 0.90248 0.0
C1534 C 0.37507 0.03123 0.89828 0.0
C1535 C 0.37679 0.0538 0.87657 0.0
C1536 C 0.3714 0.97815 0.90068 0.0
C1537 C 0.36928 0.94632 0.88144 0.0
C1538 C 0.37054 0.96917 0.85976 0.0
C1539 C 0.37426 1.02209 0.85736 0.0
H1540 H 0.59973 0.26825 0.90146 0.0
H1541 H 0.67329 0.24917 0.88145 0.0
H1542 H 0.59348 0.17564 0.89762 0.0
H1543 H 0.66725 0.15676 0.87834 0.0
H1544 H 0.64033 1.00476 0.84855 0.0
H1545 H 0.64654 0.09681 0.85353 0.0
H1546 H 0.60448 0.09288 0.91508 0.0
H1547 H 0.59772 1.00083 0.90974 0.0
C1548 C 0.61458 0.24434 0.89631 0.0
C1549 C 0.63702 0.26628 0.89179 0.0
C1550 C 0.61106 0.19118 0.89433 0.0
C1551 C 0.62986 0.1587 0.88764 0.0
C1552 C 0.65232 0.18063 0.8833 0.0
C1553 C 0.65585 0.23364 0.88536 0.0
C1554 C 0.6323 1.02354 0.86309 0.0
C1555 C 0.61848 0.99537 0.87871 0.0
C1556 C 0.63606 0.07627 0.86607 0.0
C1557 C 0.62603 0.10233 0.88472 0.0
C1558 C 0.61229 0.07414 0.90042 0.0
C1559 C 0.60863 1.02126 0.89749 0.0
H1560 H 0.41517 1.02551 0.64903 0.0
H1561 H 0.34439 0.99319 0.62398 0.0
H1562 H 0.40798 0.11719 0.6445 0.0
H1563 H 0.3376 0.08499 0.61842 0.0
H1564 H 0.32389 0.25368 0.6378 0.0
H1565 H 0.33099 0.16156 0.64036 0.0
H1566 H 0.40319 0.18422 0.61678 0.0
H1567 H 0.39608 0.27664 0.61432 0.0
C1568 C 0.39805 0.03789 0.64252 0.0
C1569 C 0.3803 1.0017 0.63706 0.0
C1570 C 0.39405 0.0906 0.63962 0.0
C1571 C 0.37219 0.10876 0.63109 0.0
C1572 C 0.35455 0.07256 0.6253 0.0
C1573 C 0.35855 1.01977 0.62823 0.0
C1574 C 0.3412 0.23904 0.63286 0.0
C1575 C 0.35939 0.27278 0.62581 0.0
C1576 C 0.34528 0.18604 0.63432 0.0
C1577 C 0.36767 0.16518 0.62878 0.0
C1578 C 0.38582 0.19888 0.62153 0.0
C1579 C 0.38175 0.25195 0.6201 0.0
H1580 H 0.62172 0.78338 0.6591 0.0
H1581 H 0.64852 0.80828 0.59106 0.0
H1582 H 0.61528 0.87552 0.66331 0.0
H1583 H 0.64305 0.90064 0.59564 0.0
H1584 H 0.60817 0.05944 0.6037 0.0
H1585 H 0.61334 0.96701 0.59854 0.0
H1586 H 0.63771 0.95347 0.66798 0.0
H1587 H 0.63235 0.04567 0.67314 0.0
C1588 C 0.62612 0.80841 0.64497 0.0
C1589 C 0.63568 0.78818 0.62475 0.0
C1590 C 0.62273 0.86145 0.6475 0.0
C1591 C 0.6288 0.89579 0.62988 0.0
C1592 C 0.638 0.87547 0.60952 0.0
C1593 C 0.64139 0.82243 0.60699 0.0
C1594 C 0.61486 0.03681 0.61779 0.0
C1595 C 0.61977 0.06007 0.63886 0.0
C1596 C 0.61781 0.98372 0.61484 0.0
C1597 C 0.62582 0.9525 0.63287 0.0
C1598 C 0.63103 0.97597 0.65384 0.0
C1599 C 0.62801 0.02897 0.6568 0.0
loop_
_geom_bond_atom_site_label_1
_geom_bond_atom_site_label_2
_geom_bond_distance
_geom_bond_site_symmetry_2
_ccdc_geom_bond_type
Tb0 C10 2.825 1_545 S
Tb0 O11 2.347 . S
Tb0 O14 2.366 . S
Tb0 O19 2.418 . S
Tb0 O20 2.384 . S
Tb0 O23 2.479 1_545 S
Tb0 O24 2.471 1_545 S
Eu1 O12 2.418 . S
Eu1 O13 2.384 . S
Eu1 O16 2.479 . S
Eu1 O17 2.471 . S
Eu1 O18 2.347 . S
Eu1 O21 2.366 . S
Eu1 C31 2.825 . S
C2 O18 1.259 . S
C2 O19 1.265 . S
C3 O20 1.255 . S
C3 O21 1.265 . S
C4 C6 1.380 . S
C4 C7 1.374 . S
C4 C10 1.507 . S
C5 C6 1.384 . S
C5 C9 1.387 . S
C5 H32 0.930 . S
C6 C4 1.380 . S
C6 C5 1.384 . S
C6 H33 0.931 . S
C7 C4 1.374 . S
C7 C8 1.390 . S
C7 H34 0.930 . S
C8 C7 1.390 . S
C8 C9 1.391 . S
C8 H35 0.930 . S
C9 C5 1.387 . S
C9 C8 1.391 . S
C10 Tb0 2.825 1_565 S
C10 C4 1.507 . S
C10 O23 1.238 . S
C10 O24 1.247 . S
O11 Tb0 2.347 . S
O11 C15 1.259 . S
O12 Eu1 2.418 . S
O12 C15 1.265 . S
O13 Eu1 2.384 . S
O13 C22 1.255 . S
O14 Tb0 2.366 . S
O14 C22 1.265 . S
C15 O11 1.259 . S
C15 O12 1.265 . S
O16 Eu1 2.479 . S
O16 C31 1.238 . S
O17 Eu1 2.471 . S
O17 C31 1.247 . S
O18 Eu1 2.347 . S
O18 C2 1.259 . S
O19 Tb0 2.418 . S
O19 C2 1.265 . S
O20 Tb0 2.384 . S
O20 C3 1.255 . S
O21 Eu1 2.366 . S
O21 C3 1.265 . S
C22 O13 1.255 . S
C22 O14 1.265 . S
O23 Tb0 2.479 1_565 S
O23 C10 1.238 . S
O24 Tb0 2.471 1_565 S
O24 C10 1.247 . S
C25 C28 1.380 . S
C25 C29 1.374 . S
C25 C31 1.507 . S
C26 C27 1.387 . S
C26 C30 1.391 . S
C27 C26 1.387 . S
C27 C28 1.384 . S
C27 H36 0.930 . S
C28 C25 1.380 . S
C28 C27 1.384 . S
C28 H37 0.931 . S
C29 C25 1.374 . S
C29 C30 1.390 . S
C29 H38 0.930 . S
C30 C26 1.391 . S
C30 C29 1.390 . S
C30 H39 0.930 . S
C31 Eu1 2.825 . S
C31 O16 1.238 . S
C31 O17 1.247 . S
C31 C25 1.507 . S
H32 C5 0.930 . S
H33 C6 0.931 . S
H34 C7 0.930 . S
H35 C8 0.930 . S
H36 C27 0.930 . S
H37 C28 0.931 . S
H38 C29 0.930 . S
H39 C30 0.930 . S
Tb40 C50 2.825 1_565 S
Tb40 O51 2.347 . S
Tb40 O54 2.366 . S
Tb40 O59 2.418 . S
Tb40 O60 2.384 . S
Tb40 O63 2.479 1_565 S
Tb40 O64 2.471 1_565 S
Eu41 O52 2.418 . S
Eu41 O53 2.384 . S
Eu41 O56 2.479 . S
Eu41 O57 2.471 . S
Eu41 O58 2.347 . S
Eu41 O61 2.366 . S
Eu41 C71 2.825 . S
C42 O58 1.259 . S
C42 O59 1.265 . S
C43 O60 1.255 . S
C43 O61 1.265 . S
C44 C46 1.380 . S
C44 C47 1.374 . S
C44 C50 1.507 . S
C45 C46 1.384 . S
C45 C49 1.387 . S
C45 H72 0.930 . S
C46 C44 1.380 . S
C46 C45 1.384 . S
C46 H73 0.931 . S
C47 C44 1.374 . S
C47 C48 1.390 . S
C47 H74 0.930 . S
C48 C47 1.390 . S
C48 C49 1.391 . S
C48 H75 0.930 . S
C49 C45 1.387 . S
C49 C48 1.391 . S
C50 Tb40 2.825 1_545 S
C50 C44 1.507 . S
C50 O63 1.238 . S
C50 O64 1.247 . S
O51 Tb40 2.347 . S
O51 C55 1.259 . S
O52 Eu41 2.418 . S
O52 C55 1.265 . S
O53 Eu41 2.384 . S
O53 C62 1.255 . S
O54 Tb40 2.366 . S
O54 C62 1.265 . S
C55 O51 1.259 . S
C55 O52 1.265 . S
O56 Eu41 2.479 . S
O56 C71 1.238 . S
O57 Eu41 2.471 . S
O57 C71 1.247 . S
O58 Eu41 2.347 . S
O58 C42 1.259 . S
O59 Tb40 2.418 . S
O59 C42 1.265 . S
O60 Tb40 2.384 . S
O60 C43 1.255 . S
O61 Eu41 2.366 . S
O61 C43 1.265 . S
C62 O53 1.255 . S
C62 O54 1.265 . S
O63 Tb40 2.479 1_545 S
O63 C50 1.238 . S
O64 Tb40 2.471 1_545 S
O64 C50 1.247 . S
C65 C68 1.380 . S
C65 C69 1.374 . S
C65 C71 1.507 . S
C66 C67 1.387 . S
C66 C70 1.391 . S
C67 C66 1.387 . S
C67 C68 1.384 . S
C67 H76 0.930 . S
C68 C65 1.380 . S
C68 C67 1.384 . S
C68 H77 0.931 . S
C69 C65 1.374 . S
C69 C70 1.390 . S
C69 H78 0.930 . S
C70 C66 1.391 . S
C70 C69 1.390 . S
C70 H79 0.930 . S
C71 Eu41 2.825 . S
C71 O56 1.238 . S
C71 O57 1.247 . S
C71 C65 1.507 . S
H72 C45 0.930 . S
H73 C46 0.931 . S
H74 C47 0.930 . S
H75 C48 0.930 . S
H76 C67 0.930 . S
H77 C68 0.931 . S
H78 C69 0.930 . S
H79 C70 0.930 . S
Tb80 C90 2.825 1_565 S
Tb80 O91 2.347 . S
Tb80 O94 2.366 . S
Tb80 O99 2.418 . S
Tb80 O100 2.384 . S
Tb80 O103 2.479 1_565 S
Tb80 O104 2.471 1_565 S
Eu81 O92 2.418 . S
Eu81 O93 2.384 . S
Eu81 O96 2.479 . S
Eu81 O97 2.471 . S
Eu81 O98 2.347 . S
Eu81 O101 2.366 . S
Eu81 C111 2.825 . S
C82 O98 1.259 . S
C82 O99 1.265 . S
C83 O100 1.255 . S
C83 O101 1.265 . S
C84 C86 1.380 . S
C84 C87 1.374 . S
C84 C90 1.507 . S
C85 C86 1.384 . S
C85 C89 1.387 . S
C85 H112 0.930 . S
C86 C84 1.380 . S
C86 C85 1.384 . S
C86 H113 0.931 . S
C87 C84 1.374 . S
C87 C88 1.390 . S
C87 H114 0.930 . S
C88 C87 1.390 . S
C88 C89 1.391 . S
C88 H115 0.930 . S
C89 C85 1.387 . S
C89 C88 1.391 . S
C90 Tb80 2.825 1_545 S
C90 C84 1.507 . S
C90 O103 1.238 . S
C90 O104 1.247 . S
O91 Tb80 2.347 . S
O91 C95 1.259 . S
O92 Eu81 2.418 . S
O92 C95 1.265 . S
O93 Eu81 2.384 . S
O93 C102 1.255 . S
O94 Tb80 2.366 . S
O94 C102 1.265 . S
C95 O91 1.259 . S
C95 O92 1.265 . S
O96 Eu81 2.479 . S
O96 C111 1.238 . S
O97 Eu81 2.471 . S
O97 C111 1.247 . S
O98 Eu81 2.347 . S
O98 C82 1.259 . S
O99 Tb80 2.418 . S
O99 C82 1.265 . S
O100 Tb80 2.384 . S
O100 C83 1.255 . S
O101 Eu81 2.366 . S
O101 C83 1.265 . S
C102 O93 1.255 . S
C102 O94 1.265 . S
O103 Tb80 2.479 1_545 S
O103 C90 1.238 . S
O104 Tb80 2.471 1_545 S
O104 C90 1.247 . S
C105 C108 1.380 . S
C105 C109 1.374 . S
C105 C111 1.507 . S
C106 C107 1.387 . S
C106 C110 1.391 . S
C107 C106 1.387 . S
C107 C108 1.384 . S
C107 H116 0.930 . S
C108 C105 1.380 . S
C108 C107 1.384 . S
C108 H117 0.931 . S
C109 C105 1.374 . S
C109 C110 1.390 . S
C109 H118 0.930 . S
C110 C106 1.391 . S
C110 C109 1.390 . S
C110 H119 0.930 . S
C111 Eu81 2.825 . S
C111 O96 1.238 . S
C111 O97 1.247 . S
C111 C105 1.507 . S
H112 C85 0.930 . S
H113 C86 0.931 . S
H114 C87 0.930 . S
H115 C88 0.930 . S
H116 C107 0.930 . S
H117 C108 0.931 . S
H118 C109 0.930 . S
H119 C110 0.930 . S
Tb120 C130 2.825 1_545 S
Tb120 O131 2.347 . S
Tb120 O134 2.366 . S
Tb120 O139 2.418 . S
Tb120 O140 2.384 . S
Tb120 O143 2.479 1_545 S
Tb120 O144 2.471 1_545 S
Eu121 O132 2.418 . S
Eu121 O133 2.384 . S
Eu121 O136 2.479 . S
Eu121 O137 2.471 . S
Eu121 O138 2.347 . S
Eu121 O141 2.366 . S
Eu121 C151 2.825 . S
C122 O138 1.259 . S
C122 O139 1.265 . S
C123 O140 1.255 . S
C123 O141 1.265 . S
C124 C126 1.380 . S
C124 C127 1.374 . S
C124 C130 1.507 . S
C125 C126 1.384 . S
C125 C129 1.387 . S
C125 H152 0.930 . S
C126 C124 1.380 . S
C126 C125 1.384 . S
C126 H153 0.931 . S
C127 C124 1.374 . S
C127 C128 1.390 . S
C127 H154 0.930 . S
C128 C127 1.390 . S
C128 C129 1.391 . S
C128 H155 0.930 . S
C129 C125 1.387 . S
C129 C128 1.391 . S
C130 Tb120 2.825 1_565 S
C130 C124 1.507 . S
C130 O143 1.238 . S
C130 O144 1.247 . S
O131 Tb120 2.347 . S
O131 C135 1.259 . S
O132 Eu121 2.418 . S
O132 C135 1.265 . S
O133 Eu121 2.384 . S
O133 C142 1.255 . S
O134 Tb120 2.366 . S
O134 C142 1.265 . S
C135 O131 1.259 . S
C135 O132 1.265 . S
O136 Eu121 2.479 . S
O136 C151 1.238 . S
O137 Eu121 2.471 . S
O137 C151 1.247 . S
O138 Eu121 2.347 . S
O138 C122 1.259 . S
O139 Tb120 2.418 . S
O139 C122 1.265 . S
O140 Tb120 2.384 . S
O140 C123 1.255 . S
O141 Eu121 2.366 . S
O141 C123 1.265 . S
C142 O133 1.255 . S
C142 O134 1.265 . S
O143 Tb120 2.479 1_565 S
O143 C130 1.238 . S
O144 Tb120 2.471 1_565 S
O144 C130 1.247 . S
C145 C148 1.380 . S
C145 C149 1.374 . S
C145 C151 1.507 . S
C146 C147 1.387 . S
C146 C150 1.391 . S
C147 C146 1.387 . S
C147 C148 1.384 . S
C147 H156 0.930 . S
C148 C145 1.380 . S
C148 C147 1.384 . S
C148 H157 0.931 . S
C149 C145 1.374 . S
C149 C150 1.390 . S
C149 H158 0.930 . S
C150 C146 1.391 . S
C150 C149 1.390 . S
C150 H159 0.930 . S
C151 Eu121 2.825 . S
C151 O136 1.238 . S
C151 O137 1.247 . S
C151 C145 1.507 . S
H152 C125 0.930 . S
H153 C126 0.931 . S
H154 C127 0.930 . S
H155 C128 0.930 . S
H156 C147 0.930 . S
H157 C148 0.931 . S
H158 C149 0.930 . S
H159 C150 0.930 . S
Tb160 C170 2.825 . S
Tb160 O171 2.347 . S
Tb160 O174 2.366 . S
Tb160 O179 2.418 . S
Tb160 O180 2.384 . S
Tb160 O183 2.479 . S
Tb160 O184 2.471 . S
Eu161 O172 2.418 . S
Eu161 O173 2.384 . S
Eu161 O176 2.479 1_565 S
Eu161 O177 2.471 1_565 S
Eu161 O178 2.347 . S
Eu161 O181 2.366 . S
Eu161 C191 2.825 1_565 S
C162 O178 1.259 . S
C162 O179 1.265 . S
C163 O180 1.255 . S
C163 O181 1.265 . S
C164 C166 1.380 . S
C164 C167 1.374 . S
C164 C170 1.507 . S
C165 C166 1.384 . S
C165 C169 1.387 . S
C165 H192 0.930 . S
C166 C164 1.380 . S
C166 C165 1.384 . S
C166 H193 0.931 . S
C167 C164 1.374 . S
C167 C168 1.390 . S
C167 H194 0.930 . S
C168 C167 1.390 . S
C168 C169 1.391 . S
C168 H195 0.930 . S
C169 C165 1.387 . S
C169 C168 1.391 . S
C170 Tb160 2.825 . S
C170 C164 1.507 . S
C170 O183 1.238 . S
C170 O184 1.247 . S
O171 Tb160 2.347 . S
O171 C175 1.259 . S
O172 Eu161 2.418 . S
O172 C175 1.265 . S
O173 Eu161 2.384 . S
O173 C182 1.255 . S
O174 Tb160 2.366 . S
O174 C182 1.265 . S
C175 O171 1.259 . S
C175 O172 1.265 . S
O176 Eu161 2.479 1_545 S
O176 C191 1.238 . S
O177 Eu161 2.471 1_545 S
O177 C191 1.247 . S
O178 Eu161 2.347 . S
O178 C162 1.259 . S
O179 Tb160 2.418 . S
O179 C162 1.265 . S
O180 Tb160 2.384 . S
O180 C163 1.255 . S
O181 Eu161 2.366 . S
O181 C163 1.265 . S
C182 O173 1.255 . S
C182 O174 1.265 . S
O183 Tb160 2.479 . S
O183 C170 1.238 . S
O184 Tb160 2.471 . S
O184 C170 1.247 . S
C185 C188 1.380 . S
C185 C189 1.374 . S
C185 C191 1.507 . S
C186 C187 1.387 . S
C186 C190 1.391 . S
C187 C186 1.387 . S
C187 C188 1.384 . S
C187 H196 0.930 . S
C188 C185 1.380 . S
C188 C187 1.384 . S
C188 H197 0.931 . S
C189 C185 1.374 . S
C189 C190 1.390 . S
C189 H198 0.930 . S
C190 C186 1.391 . S
C190 C189 1.390 . S
C190 H199 0.930 . S
C191 Eu161 2.825 1_545 S
C191 O176 1.238 . S
C191 O177 1.247 . S
C191 C185 1.507 . S
H192 C165 0.930 . S
H193 C166 0.931 . S
H194 C167 0.930 . S
H195 C168 0.930 . S
H196 C187 0.930 . S
H197 C188 0.931 . S
H198 C189 0.930 . S
H199 C190 0.930 . S
Tb200 C210 2.825 . S
Tb200 O211 2.347 . S
Tb200 O214 2.366 . S
Tb200 O219 2.418 . S
Tb200 O220 2.384 . S
Tb200 O223 2.479 . S
Tb200 O224 2.471 . S
Eu201 O212 2.418 . S
Eu201 O213 2.384 . S
Eu201 O216 2.479 1_545 S
Eu201 O217 2.471 1_545 S
Eu201 O218 2.347 . S
Eu201 O221 2.366 . S
Eu201 C231 2.825 1_545 S
C202 O218 1.259 . S
C202 O219 1.265 . S
C203 O220 1.255 . S
C203 O221 1.265 . S
C204 C206 1.380 . S
C204 C207 1.374 . S
C204 C210 1.507 . S
C205 C206 1.384 . S
C205 C209 1.387 . S
C205 H232 0.930 . S
C206 C204 1.380 . S
C206 C205 1.384 . S
C206 H233 0.931 . S
C207 C204 1.374 . S
C207 C208 1.390 . S
C207 H234 0.930 . S
C208 C207 1.390 . S
C208 C209 1.391 . S
C208 H235 0.930 . S
C209 C205 1.387 . S
C209 C208 1.391 . S
C210 Tb200 2.825 . S
C210 C204 1.507 . S
C210 O223 1.238 . S
C210 O224 1.247 . S
O211 Tb200 2.347 . S
O211 C215 1.259 . S
O212 Eu201 2.418 . S
O212 C215 1.265 . S
O213 Eu201 2.384 . S
O213 C222 1.255 . S
O214 Tb200 2.366 . S
O214 C222 1.265 . S
C215 O211 1.259 . S
C215 O212 1.265 . S
O216 Eu201 2.479 1_565 S
O216 C231 1.238 . S
O217 Eu201 2.471 1_565 S
O217 C231 1.247 . S
O218 Eu201 2.347 . S
O218 C202 1.259 . S
O219 Tb200 2.418 . S
O219 C202 1.265 . S
O220 Tb200 2.384 . S
O220 C203 1.255 . S
O221 Eu201 2.366 . S
O221 C203 1.265 . S
C222 O213 1.255 . S
C222 O214 1.265 . S
O223 Tb200 2.479 . S
O223 C210 1.238 . S
O224 Tb200 2.471 . S
O224 C210 1.247 . S
C225 C228 1.380 . S
C225 C229 1.374 . S
C225 C231 1.507 . S
C226 C227 1.387 . S
C226 C230 1.391 . S
C227 C226 1.387 . S
C227 C228 1.384 . S
C227 H236 0.930 . S
C228 C225 1.380 . S
C228 C227 1.384 . S
C228 H237 0.931 . S
C229 C225 1.374 . S
C229 C230 1.390 . S
C229 H238 0.930 . S
C230 C226 1.391 . S
C230 C229 1.390 . S
C230 H239 0.930 . S
C231 Eu201 2.825 1_565 S
C231 O216 1.238 . S
C231 O217 1.247 . S
C231 C225 1.507 . S
H232 C205 0.930 . S
H233 C206 0.931 . S
H234 C207 0.930 . S
H235 C208 0.930 . S
H236 C227 0.930 . S
H237 C228 0.931 . S
H238 C229 0.930 . S
H239 C230 0.930 . S
Tb240 C250 2.825 . S
Tb240 O251 2.347 . S
Tb240 O254 2.366 . S
Tb240 O259 2.418 . S
Tb240 O260 2.384 . S
Tb240 O263 2.479 . S
Tb240 O264 2.471 . S
Eu241 O252 2.418 . S
Eu241 O253 2.384 . S
Eu241 O256 2.479 1_545 S
Eu241 O257 2.471 1_545 S
Eu241 O258 2.347 . S
Eu241 O261 2.366 . S
Eu241 C271 2.825 1_545 S
C242 O258 1.259 . S
C242 O259 1.265 . S
C243 O260 1.255 . S
C243 O261 1.265 . S
C244 C246 1.380 . S
C244 C247 1.374 . S
C244 C250 1.507 . S
C245 C246 1.384 . S
C245 C249 1.387 . S
C245 H272 0.930 . S
C246 C244 1.380 . S
C246 C245 1.384 . S
C246 H273 0.931 . S
C247 C244 1.374 . S
C247 C248 1.390 . S
C247 H274 0.930 . S
C248 C247 1.390 . S
C248 C249 1.391 . S
C248 H275 0.930 . S
C249 C245 1.387 . S
C249 C248 1.391 . S
C250 Tb240 2.825 . S
C250 C244 1.507 . S
C250 O263 1.238 . S
C250 O264 1.247 . S
O251 Tb240 2.347 . S
O251 C255 1.259 . S
O252 Eu241 2.418 . S
O252 C255 1.265 . S
O253 Eu241 2.384 . S
O253 C262 1.255 . S
O254 Tb240 2.366 . S
O254 C262 1.265 . S
C255 O251 1.259 . S
C255 O252 1.265 . S
O256 Eu241 2.479 1_565 S
O256 C271 1.238 . S
O257 Eu241 2.471 1_565 S
O257 C271 1.247 . S
O258 Eu241 2.347 . S
O258 C242 1.259 . S
O259 Tb240 2.418 . S
O259 C242 1.265 . S
O260 Tb240 2.384 . S
O260 C243 1.255 . S
O261 Eu241 2.366 . S
O261 C243 1.265 . S
C262 O253 1.255 . S
C262 O254 1.265 . S
O263 Tb240 2.479 . S
O263 C250 1.238 . S
O264 Tb240 2.471 . S
O264 C250 1.247 . S
C265 C268 1.380 . S
C265 C269 1.374 . S
C265 C271 1.507 . S
C266 C267 1.387 . S
C266 C270 1.391 . S
C267 C266 1.387 . S
C267 C268 1.384 . S
C267 H276 0.930 . S
C268 C265 1.380 . S
C268 C267 1.384 . S
C268 H277 0.931 . S
C269 C265 1.374 . S
C269 C270 1.390 . S
C269 H278 0.930 . S
C270 C266 1.391 . S
C270 C269 1.390 . S
C270 H279 0.930 . S
C271 Eu241 2.825 1_565 S
C271 O256 1.238 . S
C271 O257 1.247 . S
C271 C265 1.507 . S
H272 C245 0.930 . S
H273 C246 0.931 . S
H274 C247 0.930 . S
H275 C248 0.930 . S
H276 C267 0.930 . S
H277 C268 0.931 . S
H278 C269 0.930 . S
H279 C270 0.930 . S
Tb280 C290 2.825 . S
Tb280 O291 2.347 . S
Tb280 O294 2.366 . S
Tb280 O299 2.418 . S
Tb280 O300 2.384 . S
Tb280 O303 2.479 . S
Tb280 O304 2.471 . S
Eu281 O292 2.418 . S
Eu281 O293 2.384 . S
Eu281 O296 2.479 1_565 S
Eu281 O297 2.471 1_565 S
Eu281 O298 2.347 . S
Eu281 O301 2.366 . S
Eu281 C311 2.825 1_565 S
C282 O298 1.259 . S
C282 O299 1.265 . S
C283 O300 1.255 . S
C283 O301 1.265 . S
C284 C286 1.380 . S
C284 C287 1.374 . S
C284 C290 1.507 . S
C285 C286 1.384 . S
C285 C289 1.387 . S
C285 H312 0.930 . S
C286 C284 1.380 . S
C286 C285 1.384 . S
C286 H313 0.931 . S
C287 C284 1.374 . S
C287 C288 1.390 . S
C287 H314 0.930 . S
C288 C287 1.390 . S
C288 C289 1.391 . S
C288 H315 0.930 . S
C289 C285 1.387 . S
C289 C288 1.391 . S
C290 Tb280 2.825 . S
C290 C284 1.507 . S
C290 O303 1.238 . S
C290 O304 1.247 . S
O291 Tb280 2.347 . S
O291 C295 1.259 . S
O292 Eu281 2.418 . S
O292 C295 1.265 . S
O293 Eu281 2.384 . S
O293 C302 1.255 . S
O294 Tb280 2.366 . S
O294 C302 1.265 . S
C295 O291 1.259 . S
C295 O292 1.265 . S
O296 Eu281 2.479 1_545 S
O296 C311 1.238 . S
O297 Eu281 2.471 1_545 S
O297 C311 1.247 . S
O298 Eu281 2.347 . S
O298 C282 1.259 . S
O299 Tb280 2.418 . S
O299 C282 1.265 . S
O300 Tb280 2.384 . S
O300 C283 1.255 . S
O301 Eu281 2.366 . S
O301 C283 1.265 . S
C302 O293 1.255 . S
C302 O294 1.265 . S
O303 Tb280 2.479 . S
O303 C290 1.238 . S
O304 Tb280 2.471 . S
O304 C290 1.247 . S
C305 C308 1.380 . S
C305 C309 1.374 . S
C305 C311 1.507 . S
C306 C307 1.387 . S
C306 C310 1.391 . S
C307 C306 1.387 . S
C307 C308 1.384 . S
C307 H316 0.930 . S
C308 C305 1.380 . S
C308 C307 1.384 . S
C308 H317 0.931 . S
C309 C305 1.374 . S
C309 C310 1.390 . S
C309 H318 0.930 . S
C310 C306 1.391 . S
C310 C309 1.390 . S
C310 H319 0.930 . S
C311 Eu281 2.825 1_545 S
C311 O296 1.238 . S
C311 O297 1.247 . S
C311 C305 1.507 . S
H312 C285 0.930 . S
H313 C286 0.931 . S
H314 C287 0.930 . S
H315 C288 0.930 . S
H316 C307 0.930 . S
H317 C308 0.931 . S
H318 C309 0.930 . S
H319 C310 0.930 . S
Tb320 C330 2.825 . S
Tb320 O331 2.347 . S
Tb320 O334 2.366 . S
Tb320 O339 2.418 . S
Tb320 O340 2.384 . S
Tb320 O343 2.479 . S
Tb320 O344 2.471 . S
Eu321 O332 2.418 . S
Eu321 O333 2.384 . S
Eu321 O336 2.479 . S
Eu321 O337 2.471 . S
Eu321 O338 2.347 . S
Eu321 O341 2.366 . S
Eu321 C351 2.825 . S
C322 O338 1.259 . S
C322 O339 1.265 . S
C323 O340 1.255 . S
C323 O341 1.265 . S
C324 C326 1.380 . S
C324 C327 1.374 . S
C324 C330 1.507 . S
C325 C326 1.384 . S
C325 C329 1.387 . S
C325 H352 0.930 . S
C326 C324 1.380 . S
C326 C325 1.384 . S
C326 H353 0.931 . S
C327 C324 1.374 . S
C327 C328 1.390 . S
C327 H354 0.930 . S
C328 C327 1.390 . S
C328 C329 1.391 . S
C328 H355 0.930 . S
C329 C325 1.387 . S
C329 C328 1.391 . S
C330 Tb320 2.825 . S
C330 C324 1.507 . S
C330 O343 1.238 . S
C330 O344 1.247 . S
O331 Tb320 2.347 . S
O331 C335 1.259 . S
O332 Eu321 2.418 . S
O332 C335 1.265 . S
O333 Eu321 2.384 . S
O333 C342 1.255 . S
O334 Tb320 2.366 . S
O334 C342 1.265 . S
C335 O331 1.259 . S
C335 O332 1.265 . S
O336 Eu321 2.479 . S
O336 C351 1.238 . S
O337 Eu321 2.471 . S
O337 C351 1.247 . S
O338 Eu321 2.347 . S
O338 C322 1.259 . S
O339 Tb320 2.418 . S
O339 C322 1.265 . S
O340 Tb320 2.384 . S
O340 C323 1.255 . S
O341 Eu321 2.366 . S
O341 C323 1.265 . S
C342 O333 1.255 . S
C342 O334 1.265 . S
O343 Tb320 2.479 . S
O343 C330 1.238 . S
O344 Tb320 2.471 . S
O344 C330 1.247 . S
C345 C348 1.380 . S
C345 C349 1.374 . S
C345 C351 1.507 . S
C346 C347 1.387 . S
C346 C350 1.391 . S
C347 C346 1.387 . S
C347 C348 1.384 . S
C347 H356 0.930 . S
C348 C345 1.380 . S
C348 C347 1.384 . S
C348 H357 0.931 . S
C349 C345 1.374 . S
C349 C350 1.390 . S
C349 H358 0.930 . S
C350 C346 1.391 . S
C350 C349 1.390 . S
C350 H359 0.930 . S
C351 Eu321 2.825 . S
C351 O336 1.238 . S
C351 O337 1.247 . S
C351 C345 1.507 . S
H352 C325 0.930 . S
H353 C326 0.931 . S
H354 C327 0.930 . S
H355 C328 0.930 . S
H356 C347 0.930 . S
H357 C348 0.931 . S
H358 C349 0.930 . S
H359 C350 0.930 . S
Tb360 C370 2.825 . S
Tb360 O371 2.347 . S
Tb360 O374 2.366 . S
Tb360 O379 2.418 . S
Tb360 O380 2.384 . S
Tb360 O383 2.479 . S
Tb360 O384 2.471 . S
Eu361 O372 2.418 . S
Eu361 O373 2.384 . S
Eu361 O376 2.479 . S
Eu361 O377 2.471 . S
Eu361 O378 2.347 . S
Eu361 O381 2.366 . S
Eu361 C391 2.825 . S
C362 O378 1.259 . S
C362 O379 1.265 . S
C363 O380 1.255 . S
C363 O381 1.265 . S
C364 C366 1.380 . S
C364 C367 1.374 . S
C364 C370 1.507 . S
C365 C366 1.384 . S
C365 C369 1.387 . S
C365 H392 0.930 . S
C366 C364 1.380 . S
C366 C365 1.384 . S
C366 H393 0.931 . S
C367 C364 1.374 . S
C367 C368 1.390 . S
C367 H394 0.930 . S
C368 C367 1.390 . S
C368 C369 1.391 . S
C368 H395 0.930 . S
C369 C365 1.387 . S
C369 C368 1.391 . S
C370 Tb360 2.825 . S
C370 C364 1.507 . S
C370 O383 1.238 . S
C370 O384 1.247 . S
O371 Tb360 2.347 . S
O371 C375 1.259 . S
O372 Eu361 2.418 . S
O372 C375 1.265 . S
O373 Eu361 2.384 . S
O373 C382 1.255 . S
O374 Tb360 2.366 . S
O374 C382 1.265 . S
C375 O371 1.259 . S
C375 O372 1.265 . S
O376 Eu361 2.479 . S
O376 C391 1.238 . S
O377 Eu361 2.471 . S
O377 C391 1.247 . S
O378 Eu361 2.347 . S
O378 C362 1.259 . S
O379 Tb360 2.418 . S
O379 C362 1.265 . S
O380 Tb360 2.384 . S
O380 C363 1.255 . S
O381 Eu361 2.366 . S
O381 C363 1.265 . S
C382 O373 1.255 . S
C382 O374 1.265 . S
O383 Tb360 2.479 . S
O383 C370 1.238 . S
O384 Tb360 2.471 . S
O384 C370 1.247 . S
C385 C388 1.380 . S
C385 C389 1.374 . S
C385 C391 1.507 . S
C386 C387 1.387 . S
C386 C390 1.391 . S
C387 C386 1.387 . S
C387 C388 1.384 . S
C387 H396 0.930 . S
C388 C385 1.380 . S
C388 C387 1.384 . S
C388 H397 0.931 . S
C389 C385 1.374 . S
C389 C390 1.390 . S
C389 H398 0.930 . S
C390 C386 1.391 . S
C390 C389 1.390 . S
C390 H399 0.930 . S
C391 Eu361 2.825 . S
C391 O376 1.238 . S
C391 O377 1.247 . S
C391 C385 1.507 . S
H392 C365 0.930 . S
H393 C366 0.931 . S
H394 C367 0.930 . S
H395 C368 0.930 . S
H396 C387 0.930 . S
H397 C388 0.931 . S
H398 C389 0.930 . S
H399 C390 0.930 . S
Tb400 C410 2.825 . S
Tb400 O411 2.347 . S
Tb400 O414 2.366 . S
Tb400 O419 2.418 . S
Tb400 O420 2.384 . S
Tb400 O423 2.479 . S
Tb400 O424 2.471 . S
Eu401 O412 2.418 . S
Eu401 O413 2.384 . S
Eu401 O416 2.479 . S
Eu401 O417 2.471 . S
Eu401 O418 2.347 . S
Eu401 O421 2.366 . S
Eu401 C431 2.825 . S
C402 O418 1.259 . S
C402 O419 1.265 . S
C403 O420 1.255 . S
C403 O421 1.265 . S
C404 C406 1.380 . S
C404 C407 1.374 . S
C404 C410 1.507 . S
C405 C406 1.384 . S
C405 C409 1.387 . S
C405 H432 0.930 . S
C406 C404 1.380 . S
C406 C405 1.384 . S
C406 H433 0.931 . S
C407 C404 1.374 . S
C407 C408 1.390 . S
C407 H434 0.930 . S
C408 C407 1.390 . S
C408 C409 1.391 . S
C408 H435 0.930 . S
C409 C405 1.387 . S
C409 C408 1.391 . S
C410 Tb400 2.825 . S
C410 C404 1.507 . S
C410 O423 1.238 . S
C410 O424 1.247 . S
O411 Tb400 2.347 . S
O411 C415 1.259 . S
O412 Eu401 2.418 . S
O412 C415 1.265 . S
O413 Eu401 2.384 . S
O413 C422 1.255 . S
O414 Tb400 2.366 . S
O414 C422 1.265 . S
C415 O411 1.259 . S
C415 O412 1.265 . S
O416 Eu401 2.479 . S
O416 C431 1.238 . S
O417 Eu401 2.471 . S
O417 C431 1.247 . S
O418 Eu401 2.347 . S
O418 C402 1.259 . S
O419 Tb400 2.418 . S
O419 C402 1.265 . S
O420 Tb400 2.384 . S
O420 C403 1.255 . S
O421 Eu401 2.366 . S
O421 C403 1.265 . S
C422 O413 1.255 . S
C422 O414 1.265 . S
O423 Tb400 2.479 . S
O423 C410 1.238 . S
O424 Tb400 2.471 . S
O424 C410 1.247 . S
C425 C428 1.380 . S
C425 C429 1.374 . S
C425 C431 1.507 . S
C426 C427 1.387 . S
C426 C430 1.391 . S
C427 C426 1.387 . S
C427 C428 1.384 . S
C427 H436 0.930 . S
C428 C425 1.380 . S
C428 C427 1.384 . S
C428 H437 0.931 . S
C429 C425 1.374 . S
C429 C430 1.390 . S
C429 H438 0.930 . S
C430 C426 1.391 . S
C430 C429 1.390 . S
C430 H439 0.930 . S
C431 Eu401 2.825 . S
C431 O416 1.238 . S
C431 O417 1.247 . S
C431 C425 1.507 . S
H432 C405 0.930 . S
H433 C406 0.931 . S
H434 C407 0.930 . S
H435 C408 0.930 . S
H436 C427 0.930 . S
H437 C428 0.931 . S
H438 C429 0.930 . S
H439 C430 0.930 . S
Tb440 C450 2.825 . S
Tb440 O451 2.347 . S
Tb440 O454 2.366 . S
Tb440 O459 2.418 . S
Tb440 O460 2.384 . S
Tb440 O463 2.479 . S
Tb440 O464 2.471 . S
Eu441 O452 2.418 . S
Eu441 O453 2.384 . S
Eu441 O456 2.479 . S
Eu441 O457 2.471 . S
Eu441 O458 2.347 . S
Eu441 O461 2.366 . S
Eu441 C471 2.825 . S
C442 O458 1.259 . S
C442 O459 1.265 . S
C443 O460 1.255 . S
C443 O461 1.265 . S
C444 C446 1.380 . S
C444 C447 1.374 . S
C444 C450 1.507 . S
C445 C446 1.384 . S
C445 C449 1.387 . S
C445 H472 0.930 . S
C446 C444 1.380 . S
C446 C445 1.384 . S
C446 H473 0.931 . S
C447 C444 1.374 . S
C447 C448 1.390 . S
C447 H474 0.930 . S
C448 C447 1.390 . S
C448 C449 1.391 . S
C448 H475 0.930 . S
C449 C445 1.387 . S
C449 C448 1.391 . S
C450 Tb440 2.825 . S
C450 C444 1.507 . S
C450 O463 1.238 . S
C450 O464 1.247 . S
O451 Tb440 2.347 . S
O451 C455 1.259 . S
O452 Eu441 2.418 . S
O452 C455 1.265 . S
O453 Eu441 2.384 . S
O453 C462 1.255 . S
O454 Tb440 2.366 . S
O454 C462 1.265 . S
C455 O451 1.259 . S
C455 O452 1.265 . S
O456 Eu441 2.479 . S
O456 C471 1.238 . S
O457 Eu441 2.471 . S
O457 C471 1.247 . S
O458 Eu441 2.347 . S
O458 C442 1.259 . S
O459 Tb440 2.418 . S
O459 C442 1.265 . S
O460 Tb440 2.384 . S
O460 C443 1.255 . S
O461 Eu441 2.366 . S
O461 C443 1.265 . S
C462 O453 1.255 . S
C462 O454 1.265 . S
O463 Tb440 2.479 . S
O463 C450 1.238 . S
O464 Tb440 2.471 . S
O464 C450 1.247 . S
C465 C468 1.380 . S
C465 C469 1.374 . S
C465 C471 1.507 . S
C466 C467 1.387 . S
C466 C470 1.391 . S
C467 C466 1.387 . S
C467 C468 1.384 . S
C467 H476 0.930 . S
C468 C465 1.380 . S
C468 C467 1.384 . S
C468 H477 0.931 . S
C469 C465 1.374 . S
C469 C470 1.390 . S
C469 H478 0.930 . S
C470 C466 1.391 . S
C470 C469 1.390 . S
C470 H479 0.930 . S
C471 Eu441 2.825 . S
C471 O456 1.238 . S
C471 O457 1.247 . S
C471 C465 1.507 . S
H472 C445 0.930 . S
H473 C446 0.931 . S
H474 C447 0.930 . S
H475 C448 0.930 . S
H476 C467 0.930 . S
H477 C468 0.931 . S
H478 C469 0.930 . S
H479 C470 0.930 . S
Tb480 C490 2.825 . S
Tb480 O491 2.347 . S
Tb480 O494 2.366 . S
Tb480 O499 2.418 . S
Tb480 O500 2.384 . S
Tb480 O503 2.479 . S
Tb480 O504 2.471 . S
Eu481 O492 2.418 . S
Eu481 O493 2.384 . S
Eu481 O496 2.479 . S
Eu481 O497 2.471 . S
Eu481 O498 2.347 . S
Eu481 O501 2.366 . S
Eu481 C511 2.825 . S
C482 O498 1.259 . S
C482 O499 1.265 . S
C483 O500 1.255 . S
C483 O501 1.265 . S
C484 C486 1.380 . S
C484 C487 1.374 . S
C484 C490 1.507 . S
C485 C486 1.384 . S
C485 C489 1.387 . S
C485 H512 0.930 . S
C486 C484 1.380 . S
C486 C485 1.384 . S
C486 H513 0.931 . S
C487 C484 1.374 . S
C487 C488 1.390 . S
C487 H514 0.930 . S
C488 C487 1.390 . S
C488 C489 1.391 . S
C488 H515 0.930 . S
C489 C485 1.387 . S
C489 C488 1.391 . S
C490 Tb480 2.825 . S
C490 C484 1.507 . S
C490 O503 1.238 . S
C490 O504 1.247 . S
O491 Tb480 2.347 . S
O491 C495 1.259 . S
O492 Eu481 2.418 . S
O492 C495 1.265 . S
O493 Eu481 2.384 . S
O493 C502 1.255 . S
O494 Tb480 2.366 . S
O494 C502 1.265 . S
C495 O491 1.259 . S
C495 O492 1.265 . S
O496 Eu481 2.479 . S
O496 C511 1.238 . S
O497 Eu481 2.471 . S
O497 C511 1.247 . S
O498 Eu481 2.347 . S
O498 C482 1.259 . S
O499 Tb480 2.418 . S
O499 C482 1.265 . S
O500 Tb480 2.384 . S
O500 C483 1.255 . S
O501 Eu481 2.366 . S
O501 C483 1.265 . S
C502 O493 1.255 . S
C502 O494 1.265 . S
O503 Tb480 2.479 . S
O503 C490 1.238 . S
O504 Tb480 2.471 . S
O504 C490 1.247 . S
C505 C508 1.380 . S
C505 C509 1.374 . S
C505 C511 1.507 . S
C506 C507 1.387 . S
C506 C510 1.391 . S
C507 C506 1.387 . S
C507 C508 1.384 . S
C507 H516 0.930 . S
C508 C505 1.380 . S
C508 C507 1.384 . S
C508 H517 0.931 . S
C509 C505 1.374 . S
C509 C510 1.390 . S
C509 H518 0.930 . S
C510 C506 1.391 . S
C510 C509 1.390 . S
C510 H519 0.930 . S
C511 Eu481 2.825 . S
C511 O496 1.238 . S
C511 O497 1.247 . S
C511 C505 1.507 . S
H512 C485 0.930 . S
H513 C486 0.931 . S
H514 C487 0.930 . S
H515 C488 0.930 . S
H516 C507 0.930 . S
H517 C508 0.931 . S
H518 C509 0.930 . S
H519 C510 0.930 . S
Tb520 C530 2.825 . S
Tb520 O531 2.347 . S
Tb520 O534 2.366 . S
Tb520 O539 2.418 . S
Tb520 O540 2.384 . S
Tb520 O543 2.479 . S
Tb520 O544 2.471 . S
Eu521 O532 2.418 . S
Eu521 O533 2.384 . S
Eu521 O536 2.479 . S
Eu521 O537 2.471 . S
Eu521 O538 2.347 . S
Eu521 O541 2.366 . S
Eu521 C551 2.825 . S
C522 O538 1.259 . S
C522 O539 1.265 . S
C523 O540 1.255 . S
C523 O541 1.265 . S
C524 C526 1.380 . S
C524 C527 1.374 . S
C524 C530 1.507 . S
C525 C526 1.384 . S
C525 C529 1.387 . S
C525 H552 0.930 . S
C526 C524 1.380 . S
C526 C525 1.384 . S
C526 H553 0.931 . S
C527 C524 1.374 . S
C527 C528 1.390 . S
C527 H554 0.930 . S
C528 C527 1.390 . S
C528 C529 1.391 . S
C528 H555 0.930 . S
C529 C525 1.387 . S
C529 C528 1.391 . S
C530 Tb520 2.825 . S
C530 C524 1.507 . S
C530 O543 1.238 . S
C530 O544 1.247 . S
O531 Tb520 2.347 . S
O531 C535 1.259 . S
O532 Eu521 2.418 . S
O532 C535 1.265 . S
O533 Eu521 2.384 . S
O533 C542 1.255 . S
O534 Tb520 2.366 . S
O534 C542 1.265 . S
C535 O531 1.259 . S
C535 O532 1.265 . S
O536 Eu521 2.479 . S
O536 C551 1.238 . S
O537 Eu521 2.471 . S
O537 C551 1.247 . S
O538 Eu521 2.347 . S
O538 C522 1.259 . S
O539 Tb520 2.418 . S
O539 C522 1.265 . S
O540 Tb520 2.384 . S
O540 C523 1.255 . S
O541 Eu521 2.366 . S
O541 C523 1.265 . S
C542 O533 1.255 . S
C542 O534 1.265 . S
O543 Tb520 2.479 . S
O543 C530 1.238 . S
O544 Tb520 2.471 . S
O544 C530 1.247 . S
C545 C548 1.380 . S
C545 C549 1.374 . S
C545 C551 1.507 . S
C546 C547 1.387 . S
C546 C550 1.391 . S
C547 C546 1.387 . S
C547 C548 1.384 . S
C547 H556 0.930 . S
C548 C545 1.380 . S
C548 C547 1.384 . S
C548 H557 0.931 . S
C549 C545 1.374 . S
C549 C550 1.390 . S
C549 H558 0.930 . S
C550 C546 1.391 . S
C550 C549 1.390 . S
C550 H559 0.930 . S
C551 Eu521 2.825 . S
C551 O536 1.238 . S
C551 O537 1.247 . S
C551 C545 1.507 . S
H552 C525 0.930 . S
H553 C526 0.931 . S
H554 C527 0.930 . S
H555 C528 0.930 . S
H556 C547 0.930 . S
H557 C548 0.931 . S
H558 C549 0.930 . S
H559 C550 0.930 . S
Tb560 C570 2.825 . S
Tb560 O571 2.347 . S
Tb560 O574 2.366 . S
Tb560 O579 2.418 . S
Tb560 O580 2.384 . S
Tb560 O583 2.479 . S
Tb560 O584 2.471 . S
Eu561 O572 2.418 . S
Eu561 O573 2.384 . S
Eu561 O576 2.479 . S
Eu561 O577 2.471 . S
Eu561 O578 2.347 . S
Eu561 O581 2.366 . S
Eu561 C591 2.825 . S
C562 O578 1.259 . S
C562 O579 1.265 . S
C563 O580 1.255 . S
C563 O581 1.265 . S
C564 C566 1.380 . S
C564 C567 1.374 . S
C564 C570 1.507 . S
C565 C566 1.384 . S
C565 C569 1.387 . S
C565 H592 0.930 . S
C566 C564 1.380 . S
C566 C565 1.384 . S
C566 H593 0.931 . S
C567 C564 1.374 . S
C567 C568 1.390 . S
C567 H594 0.930 . S
C568 C567 1.390 . S
C568 C569 1.391 . S
C568 H595 0.930 . S
C569 C565 1.387 . S
C569 C568 1.391 . S
C570 Tb560 2.825 . S
C570 C564 1.507 . S
C570 O583 1.238 . S
C570 O584 1.247 . S
O571 Tb560 2.347 . S
O571 C575 1.259 . S
O572 Eu561 2.418 . S
O572 C575 1.265 . S
O573 Eu561 2.384 . S
O573 C582 1.255 . S
O574 Tb560 2.366 . S
O574 C582 1.265 . S
C575 O571 1.259 . S
C575 O572 1.265 . S
O576 Eu561 2.479 . S
O576 C591 1.238 . S
O577 Eu561 2.471 . S
O577 C591 1.247 . S
O578 Eu561 2.347 . S
O578 C562 1.259 . S
O579 Tb560 2.418 . S
O579 C562 1.265 . S
O580 Tb560 2.384 . S
O580 C563 1.255 . S
O581 Eu561 2.366 . S
O581 C563 1.265 . S
C582 O573 1.255 . S
C582 O574 1.265 . S
O583 Tb560 2.479 . S
O583 C570 1.238 . S
O584 Tb560 2.471 . S
O584 C570 1.247 . S
C585 C588 1.380 . S
C585 C589 1.374 . S
C585 C591 1.507 . S
C586 C587 1.387 . S
C586 C590 1.391 . S
C587 C586 1.387 . S
C587 C588 1.384 . S
C587 H596 0.930 . S
C588 C585 1.380 . S
C588 C587 1.384 . S
C588 H597 0.931 . S
C589 C585 1.374 . S
C589 C590 1.390 . S
C589 H598 0.930 . S
C590 C586 1.391 . S
C590 C589 1.390 . S
C590 H599 0.930 . S
C591 Eu561 2.825 . S
C591 O576 1.238 . S
C591 O577 1.247 . S
C591 C585 1.507 . S
H592 C565 0.930 . S
H593 C566 0.931 . S
H594 C567 0.930 . S
H595 C568 0.930 . S
H596 C587 0.930 . S
H597 C588 0.931 . S
H598 C589 0.930 . S
H599 C590 0.930 . S
Tb600 C610 2.825 . S
Tb600 O611 2.347 . S
Tb600 O614 2.366 . S
Tb600 O619 2.418 . S
Tb600 O620 2.384 . S
Tb600 O623 2.479 . S
Tb600 O624 2.471 . S
Eu601 O612 2.418 . S
Eu601 O613 2.384 . S
Eu601 O616 2.479 . S
Eu601 O617 2.471 . S
Eu601 O618 2.347 . S
Eu601 O621 2.366 . S
Eu601 C631 2.825 . S
C602 O618 1.259 . S
C602 O619 1.265 . S
C603 O620 1.255 . S
C603 O621 1.265 . S
C604 C606 1.380 . S
C604 C607 1.374 . S
C604 C610 1.507 . S
C605 C606 1.384 . S
C605 C609 1.387 . S
C605 H632 0.930 . S
C606 C604 1.380 . S
C606 C605 1.384 . S
C606 H633 0.931 . S
C607 C604 1.374 . S
C607 C608 1.390 . S
C607 H634 0.930 . S
C608 C607 1.390 . S
C608 C609 1.391 . S
C608 H635 0.930 . S
C609 C605 1.387 . S
C609 C608 1.391 . S
C610 Tb600 2.825 . S
C610 C604 1.507 . S
C610 O623 1.238 . S
C610 O624 1.247 . S
O611 Tb600 2.347 . S
O611 C615 1.259 . S
O612 Eu601 2.418 . S
O612 C615 1.265 . S
O613 Eu601 2.384 . S
O613 C622 1.255 . S
O614 Tb600 2.366 . S
O614 C622 1.265 . S
C615 O611 1.259 . S
C615 O612 1.265 . S
O616 Eu601 2.479 . S
O616 C631 1.238 . S
O617 Eu601 2.471 . S
O617 C631 1.247 . S
O618 Eu601 2.347 . S
O618 C602 1.259 . S
O619 Tb600 2.418 . S
O619 C602 1.265 . S
O620 Tb600 2.384 . S
O620 C603 1.255 . S
O621 Eu601 2.366 . S
O621 C603 1.265 . S
C622 O613 1.255 . S
C622 O614 1.265 . S
O623 Tb600 2.479 . S
O623 C610 1.238 . S
O624 Tb600 2.471 . S
O624 C610 1.247 . S
C625 C628 1.380 . S
C625 C629 1.374 . S
C625 C631 1.507 . S
C626 C627 1.387 . S
C626 C630 1.391 . S
C627 C626 1.387 . S
C627 C628 1.384 . S
C627 H636 0.930 . S
C628 C625 1.380 . S
C628 C627 1.384 . S
C628 H637 0.931 . S
C629 C625 1.374 . S
C629 C630 1.390 . S
C629 H638 0.930 . S
C630 C626 1.391 . S
C630 C629 1.390 . S
C630 H639 0.930 . S
C631 Eu601 2.825 . S
C631 O616 1.238 . S
C631 O617 1.247 . S
C631 C625 1.507 . S
H632 C605 0.930 . S
H633 C606 0.931 . S
H634 C607 0.930 . S
H635 C608 0.930 . S
H636 C627 0.930 . S
H637 C628 0.931 . S
H638 C629 0.930 . S
H639 C630 0.930 . S
H640 C648 0.950 . S
H641 C653 0.950 . S
H642 C650 0.950 . S
H643 C652 0.950 . S
H644 C654 0.950 . S
H645 C656 0.950 . S
H646 C658 0.950 . S
H647 C659 0.950 . S
C648 H640 0.950 . S
C648 C649 1.386 . S
C648 C650 1.391 . S
C649 C648 1.386 . S
C649 C653 1.393 . S
C650 H642 0.950 . S
C650 C648 1.391 . S
C650 C651 1.400 . S
C651 C650 1.400 . S
C651 C652 1.398 . S
C651 C657 1.491 . S
C652 H643 0.950 . S
C652 C651 1.398 . S
C652 C653 1.391 . S
C653 H641 0.950 . S
C653 C649 1.393 . S
C653 C652 1.391 . S
C654 H644 0.950 . S
C654 C655 1.386 . S
C654 C656 1.391 . S
C655 C654 1.386 . S
C655 C659 1.393 . S
C656 H645 0.950 . S
C656 C654 1.391 . S
C656 C657 1.400 . S
C657 C651 1.491 . S
C657 C656 1.400 . S
C657 C658 1.398 . S
C658 H646 0.950 . S
C658 C657 1.398 . S
C658 C659 1.391 . S
C659 H647 0.950 . S
C659 C655 1.393 . S
C659 C658 1.391 . S
H660 C668 0.950 . S
H661 C673 0.950 . S
H662 C670 0.950 . S
H663 C672 0.950 . S
H664 C674 0.950 . S
H665 C676 0.950 . S
H666 C678 0.950 . S
H667 C679 0.950 . S
C668 H660 0.950 . S
C668 C669 1.386 . S
C668 C670 1.391 . S
C669 C668 1.386 . S
C669 C673 1.393 . S
C670 H662 0.950 . S
C670 C668 1.391 . S
C670 C671 1.400 . S
C671 C670 1.400 . S
C671 C672 1.398 . S
C671 C677 1.491 . S
C672 H663 0.950 . S
C672 C671 1.398 . S
C672 C673 1.391 . S
C673 H661 0.950 . S
C673 C669 1.393 . S
C673 C672 1.391 . S
C674 H664 0.950 . S
C674 C675 1.386 . S
C674 C676 1.391 . S
C675 C674 1.386 . S
C675 C679 1.393 . S
C676 H665 0.950 . S
C676 C674 1.391 . S
C676 C677 1.400 . S
C677 C671 1.491 . S
C677 C676 1.400 . S
C677 C678 1.398 . S
C678 H666 0.950 . S
C678 C677 1.398 . S
C678 C679 1.391 . S
C679 H667 0.950 . S
C679 C675 1.393 . S
C679 C678 1.391 . S
H680 C688 0.950 . S
H681 C693 0.950 . S
H682 C690 0.950 . S
H683 C692 0.950 . S
H684 C694 0.950 . S
H685 C696 0.950 . S
H686 C698 0.950 . S
H687 C699 0.950 . S
C688 H680 0.950 . S
C688 C689 1.386 . S
C688 C690 1.391 . S
C689 C688 1.386 . S
C689 C693 1.393 . S
C690 H682 0.950 . S
C690 C688 1.391 . S
C690 C691 1.400 . S
C691 C690 1.400 . S
C691 C692 1.398 . S
C691 C697 1.491 . S
C692 H683 0.950 . S
C692 C691 1.398 . S
C692 C693 1.391 . S
C693 H681 0.950 . S
C693 C689 1.393 . S
C693 C692 1.391 . S
C694 H684 0.950 . S
C694 C695 1.386 . S
C694 C696 1.391 . S
C695 C694 1.386 . S
C695 C699 1.393 . S
C696 H685 0.950 . S
C696 C694 1.391 . S
C696 C697 1.400 . S
C697 C691 1.491 . S
C697 C696 1.400 . S
C697 C698 1.398 . S
C698 H686 0.950 . S
C698 C697 1.398 . S
C698 C699 1.391 . S
C699 H687 0.950 . S
C699 C695 1.393 . S
C699 C698 1.391 . S
H700 C708 0.950 . S
H701 C713 0.950 . S
H702 C710 0.950 . S
H703 C712 0.950 . S
H704 C714 0.950 . S
H705 C716 0.950 . S
H706 C718 0.950 . S
H707 C719 0.950 . S
C708 H700 0.950 . S
C708 C709 1.386 . S
C708 C710 1.391 . S
C709 C708 1.386 . S
C709 C713 1.393 . S
C710 H702 0.950 . S
C710 C708 1.391 . S
C710 C711 1.400 . S
C711 C710 1.400 . S
C711 C712 1.398 . S
C711 C717 1.491 . S
C712 H703 0.950 . S
C712 C711 1.398 . S
C712 C713 1.391 . S
C713 H701 0.950 . S
C713 C709 1.393 . S
C713 C712 1.391 . S
C714 H704 0.950 . S
C714 C715 1.386 . S
C714 C716 1.391 . S
C715 C714 1.386 . S
C715 C719 1.393 . S
C716 H705 0.950 . S
C716 C714 1.391 . S
C716 C717 1.400 . S
C717 C711 1.491 . S
C717 C716 1.400 . S
C717 C718 1.398 . S
C718 H706 0.950 . S
C718 C717 1.398 . S
C718 C719 1.391 . S
C719 H707 0.950 . S
C719 C715 1.393 . S
C719 C718 1.391 . S
H720 C728 0.950 . S
H721 C733 0.950 . S
H722 C730 0.950 . S
H723 C732 0.950 . S
H724 C734 0.950 . S
H725 C736 0.950 . S
H726 C738 0.950 . S
H727 C739 0.950 . S
C728 H720 0.950 . S
C728 C729 1.386 . S
C728 C730 1.391 . S
C729 C728 1.386 . S
C729 C733 1.393 . S
C730 H722 0.950 . S
C730 C728 1.391 . S
C730 C731 1.400 . S
C731 C730 1.400 . S
C731 C732 1.398 . S
C731 C737 1.491 . S
C732 H723 0.950 . S
C732 C731 1.398 . S
C732 C733 1.391 . S
C733 H721 0.950 . S
C733 C729 1.393 . S
C733 C732 1.391 . S
C734 H724 0.950 . S
C734 C735 1.386 . S
C734 C736 1.391 . S
C735 C734 1.386 . S
C735 C739 1.393 . S
C736 H725 0.950 . S
C736 C734 1.391 . S
C736 C737 1.400 . S
C737 C731 1.491 . S
C737 C736 1.400 . S
C737 C738 1.398 . S
C738 H726 0.950 . S
C738 C737 1.398 . S
C738 C739 1.391 . S
C739 H727 0.950 . S
C739 C735 1.393 . S
C739 C738 1.391 . S
H740 C748 0.950 . S
H741 C753 0.950 . S
H742 C750 0.950 . S
H743 C752 0.950 . S
H744 C754 0.950 . S
H745 C756 0.950 . S
H746 C758 0.950 . S
H747 C759 0.950 . S
C748 H740 0.950 . S
C748 C749 1.386 . S
C748 C750 1.391 . S
C749 C748 1.386 . S
C749 C753 1.393 . S
C750 H742 0.950 . S
C750 C748 1.391 . S
C750 C751 1.400 . S
C751 C750 1.400 . S
C751 C752 1.398 . S
C751 C757 1.491 . S
C752 H743 0.950 . S
C752 C751 1.398 . S
C752 C753 1.391 . S
C753 H741 0.950 . S
C753 C749 1.393 . S
C753 C752 1.391 . S
C754 H744 0.950 . S
C754 C755 1.386 . S
C754 C756 1.391 . S
C755 C754 1.386 . S
C755 C759 1.393 . S
C756 H745 0.950 . S
C756 C754 1.391 . S
C756 C757 1.400 . S
C757 C751 1.491 . S
C757 C756 1.400 . S
C757 C758 1.398 . S
C758 H746 0.950 . S
C758 C757 1.398 . S
C758 C759 1.391 . S
C759 H747 0.950 . S
C759 C755 1.393 . S
C759 C758 1.391 . S
H760 C768 0.950 . S
H761 C773 0.950 . S
H762 C770 0.950 . S
H763 C772 0.950 . S
H764 C774 0.950 . S
H765 C776 0.950 . S
H766 C778 0.950 . S
H767 C779 0.950 . S
C768 H760 0.950 . S
C768 C769 1.386 . S
C768 C770 1.391 . S
C769 C768 1.386 . S
C769 C773 1.393 . S
C770 H762 0.950 . S
C770 C768 1.391 . S
C770 C771 1.400 . S
C771 C770 1.400 . S
C771 C772 1.398 . S
C771 C777 1.491 . S
C772 H763 0.950 . S
C772 C771 1.398 . S
C772 C773 1.391 . S
C773 H761 0.950 . S
C773 C769 1.393 . S
C773 C772 1.391 . S
C774 H764 0.950 . S
C774 C775 1.386 . S
C774 C776 1.391 . S
C775 C774 1.386 . S
C775 C779 1.393 . S
C776 H765 0.950 . S
C776 C774 1.391 . S
C776 C777 1.400 . S
C777 C771 1.491 . S
C777 C776 1.400 . S
C777 C778 1.398 . S
C778 H766 0.950 . S
C778 C777 1.398 . S
C778 C779 1.391 . S
C779 H767 0.950 . S
C779 C775 1.393 . S
C779 C778 1.391 . S
H780 C788 0.950 . S
H781 C793 0.950 . S
H782 C790 0.950 . S
H783 C792 0.950 . S
H784 C794 0.950 . S
H785 C796 0.950 . S
H786 C798 0.950 . S
H787 C799 0.950 . S
C788 H780 0.950 . S
C788 C789 1.386 . S
C788 C790 1.391 . S
C789 C788 1.386 . S
C789 C793 1.393 . S
C790 H782 0.950 . S
C790 C788 1.391 . S
C790 C791 1.400 . S
C791 C790 1.400 . S
C791 C792 1.398 . S
C791 C797 1.491 . S
C792 H783 0.950 . S
C792 C791 1.398 . S
C792 C793 1.391 . S
C793 H781 0.950 . S
C793 C789 1.393 . S
C793 C792 1.391 . S
C794 H784 0.950 . S
C794 C795 1.386 . S
C794 C796 1.391 . S
C795 C794 1.386 . S
C795 C799 1.393 . S
C796 H785 0.950 . S
C796 C794 1.391 . S
C796 C797 1.400 . S
C797 C791 1.491 . S
C797 C796 1.400 . S
C797 C798 1.398 . S
C798 H786 0.950 . S
C798 C797 1.398 . S
C798 C799 1.391 . S
C799 H787 0.950 . S
C799 C795 1.393 . S
C799 C798 1.391 . S
H800 C808 0.950 . S
H801 C813 0.950 . S
H802 C810 0.950 . S
H803 C812 0.950 1_545 S
H804 C814 0.950 . S
H805 C816 0.950 . S
H806 C818 0.950 1_565 S
H807 C819 0.950 . S
C808 H800 0.950 . S
C808 C809 1.386 . S
C808 C810 1.391 . S
C809 C808 1.386 . S
C809 C813 1.393 . S
C810 H802 0.950 . S
C810 C808 1.391 . S
C810 C811 1.400 . S
C811 C810 1.400 . S
C811 C812 1.398 . S
C811 C817 1.491 1_565 S
C812 H803 0.950 1_565 S
C812 C811 1.398 . S
C812 C813 1.391 . S
C813 H801 0.950 . S
C813 C809 1.393 . S
C813 C812 1.391 . S
C814 H804 0.950 . S
C814 C815 1.386 . S
C814 C816 1.391 . S
C815 C814 1.386 . S
C815 C819 1.393 . S
C816 H805 0.950 . S
C816 C814 1.391 . S
C816 C817 1.400 . S
C817 C811 1.491 1_545 S
C817 C816 1.400 . S
C817 C818 1.398 . S
C818 H806 0.950 1_545 S
C818 C817 1.398 . S
C818 C819 1.391 . S
C819 H807 0.950 . S
C819 C815 1.393 . S
C819 C818 1.391 . S
H820 C828 0.950 . S
H821 C833 0.950 1_565 S
H822 C830 0.950 . S
H823 C832 0.950 . S
H824 C834 0.950 . S
H825 C836 0.950 . S
H826 C838 0.950 . S
H827 C839 0.950 1_545 S
C828 H820 0.950 . S
C828 C829 1.386 . S
C828 C830 1.391 . S
C829 C828 1.386 . S
C829 C833 1.393 . S
C830 H822 0.950 . S
C830 C828 1.391 . S
C830 C831 1.400 . S
C831 C830 1.400 . S
C831 C832 1.398 1_545 S
C831 C837 1.491 1_545 S
C832 H823 0.950 . S
C832 C831 1.398 1_565 S
C832 C833 1.391 1_565 S
C833 H821 0.950 1_545 S
C833 C829 1.393 . S
C833 C832 1.391 1_545 S
C834 H824 0.950 . S
C834 C835 1.386 . S
C834 C836 1.391 . S
C835 C834 1.386 . S
C835 C839 1.393 . S
C836 H825 0.950 . S
C836 C834 1.391 . S
C836 C837 1.400 . S
C837 C831 1.491 1_565 S
C837 C836 1.400 . S
C837 C838 1.398 1_565 S
C838 H826 0.950 . S
C838 C837 1.398 1_545 S
C838 C839 1.391 1_545 S
C839 H827 0.950 1_565 S
C839 C835 1.393 . S
C839 C838 1.391 1_565 S
H840 C848 0.950 . S
H841 C853 0.950 . S
H842 C850 0.950 1_565 S
H843 C852 0.950 . S
H844 C854 0.950 . S
H845 C856 0.950 1_545 S
H846 C858 0.950 . S
H847 C859 0.950 . S
C848 H840 0.950 . S
C848 C849 1.386 . S
C848 C850 1.391 . S
C849 C848 1.386 . S
C849 C853 1.393 . S
C850 H842 0.950 1_545 S
C850 C848 1.391 . S
C850 C851 1.400 . S
C851 C850 1.400 . S
C851 C852 1.398 . S
C851 C857 1.491 1_545 S
C852 H843 0.950 . S
C852 C851 1.398 . S
C852 C853 1.391 . S
C853 H841 0.950 . S
C853 C849 1.393 . S
C853 C852 1.391 . S
C854 H844 0.950 . S
C854 C855 1.386 . S
C854 C856 1.391 . S
C855 C854 1.386 . S
C855 C859 1.393 . S
C856 H845 0.950 1_565 S
C856 C854 1.391 . S
C856 C857 1.400 . S
C857 C851 1.491 1_565 S
C857 C856 1.400 . S
C857 C858 1.398 . S
C858 H846 0.950 . S
C858 C857 1.398 . S
C858 C859 1.391 . S
C859 H847 0.950 . S
C859 C855 1.393 . S
C859 C858 1.391 . S
H860 C868 0.950 1_565 S
H861 C873 0.950 . S
H862 C870 0.950 . S
H863 C872 0.950 . S
H864 C874 0.950 1_545 S
H865 C876 0.950 . S
H866 C878 0.950 . S
H867 C879 0.950 . S
C868 H860 0.950 1_545 S
C868 C869 1.386 . S
C868 C870 1.391 1_545 S
C869 C868 1.386 . S
C869 C873 1.393 . S
C870 H862 0.950 . S
C870 C868 1.391 1_565 S
C870 C871 1.400 1_565 S
C871 C870 1.400 1_545 S
C871 C872 1.398 . S
C871 C877 1.491 1_545 S
C872 H863 0.950 . S
C872 C871 1.398 . S
C872 C873 1.391 . S
C873 H861 0.950 . S
C873 C869 1.393 . S
C873 C872 1.391 . S
C874 H864 0.950 1_565 S
C874 C875 1.386 . S
C874 C876 1.391 1_565 S
C875 C874 1.386 . S
C875 C879 1.393 . S
C876 H865 0.950 . S
C876 C874 1.391 1_545 S
C876 C877 1.400 1_545 S
C877 C871 1.491 1_565 S
C877 C876 1.400 1_565 S
C877 C878 1.398 . S
C878 H866 0.950 . S
C878 C877 1.398 . S
C878 C879 1.391 . S
C879 H867 0.950 . S
C879 C875 1.393 . S
C879 C878 1.391 . S
H880 C888 0.950 . S
H881 C893 0.950 . S
H882 C890 0.950 . S
H883 C892 0.950 . S
H884 C894 0.950 . S
H885 C896 0.950 . S
H886 C898 0.950 . S
H887 C899 0.950 . S
C888 H880 0.950 . S
C888 C889 1.386 . S
C888 C890 1.391 . S
C889 C888 1.386 . S
C889 C893 1.393 . S
C890 H882 0.950 . S
C890 C888 1.391 . S
C890 C891 1.400 . S
C891 C890 1.400 . S
C891 C892 1.398 . S
C891 C897 1.491 . S
C892 H883 0.950 . S
C892 C891 1.398 . S
C892 C893 1.391 . S
C893 H881 0.950 . S
C893 C889 1.393 . S
C893 C892 1.391 . S
C894 H884 0.950 . S
C894 C895 1.386 . S
C894 C896 1.391 . S
C895 C894 1.386 . S
C895 C899 1.393 . S
C896 H885 0.950 . S
C896 C894 1.391 . S
C896 C897 1.400 . S
C897 C891 1.491 . S
C897 C896 1.400 . S
C897 C898 1.398 . S
C898 H886 0.950 . S
C898 C897 1.398 . S
C898 C899 1.391 . S
C899 H887 0.950 . S
C899 C895 1.393 . S
C899 C898 1.391 . S
H900 C908 0.950 . S
H901 C913 0.950 . S
H902 C910 0.950 . S
H903 C912 0.950 . S
H904 C914 0.950 . S
H905 C916 0.950 . S
H906 C918 0.950 . S
H907 C919 0.950 . S
C908 H900 0.950 . S
C908 C909 1.386 . S
C908 C910 1.391 . S
C909 C908 1.386 . S
C909 C913 1.393 . S
C910 H902 0.950 . S
C910 C908 1.391 . S
C910 C911 1.400 . S
C911 C910 1.400 . S
C911 C912 1.398 . S
C911 C917 1.491 . S
C912 H903 0.950 . S
C912 C911 1.398 . S
C912 C913 1.391 . S
C913 H901 0.950 . S
C913 C909 1.393 . S
C913 C912 1.391 . S
C914 H904 0.950 . S
C914 C915 1.386 . S
C914 C916 1.391 . S
C915 C914 1.386 . S
C915 C919 1.393 . S
C916 H905 0.950 . S
C916 C914 1.391 . S
C916 C917 1.400 . S
C917 C911 1.491 . S
C917 C916 1.400 . S
C917 C918 1.398 . S
C918 H906 0.950 . S
C918 C917 1.398 . S
C918 C919 1.391 . S
C919 H907 0.950 . S
C919 C915 1.393 . S
C919 C918 1.391 . S
H920 C928 0.950 . S
H921 C933 0.950 . S
H922 C930 0.950 . S
H923 C932 0.950 . S
H924 C934 0.950 . S
H925 C936 0.950 . S
H926 C938 0.950 . S
H927 C939 0.950 . S
C928 H920 0.950 . S
C928 C929 1.386 . S
C928 C930 1.391 . S
C929 C928 1.386 . S
C929 C933 1.393 . S
C930 H922 0.950 . S
C930 C928 1.391 . S
C930 C931 1.400 . S
C931 C930 1.400 . S
C931 C932 1.398 . S
C931 C937 1.491 . S
C932 H923 0.950 . S
C932 C931 1.398 . S
C932 C933 1.391 . S
C933 H921 0.950 . S
C933 C929 1.393 . S
C933 C932 1.391 . S
C934 H924 0.950 . S
C934 C935 1.386 . S
C934 C936 1.391 . S
C935 C934 1.386 . S
C935 C939 1.393 . S
C936 H925 0.950 . S
C936 C934 1.391 . S
C936 C937 1.400 . S
C937 C931 1.491 . S
C937 C936 1.400 . S
C937 C938 1.398 . S
C938 H926 0.950 . S
C938 C937 1.398 . S
C938 C939 1.391 . S
C939 H927 0.950 . S
C939 C935 1.393 . S
C939 C938 1.391 . S
H940 C948 0.950 . S
H941 C953 0.950 . S
H942 C950 0.950 . S
H943 C952 0.950 . S
H944 C954 0.950 . S
H945 C956 0.950 . S
H946 C958 0.950 . S
H947 C959 0.950 . S
C948 H940 0.950 . S
C948 C949 1.386 . S
C948 C950 1.391 . S
C949 C948 1.386 . S
C949 C953 1.393 . S
C950 H942 0.950 . S
C950 C948 1.391 . S
C950 C951 1.400 . S
C951 C950 1.400 . S
C951 C952 1.398 . S
C951 C957 1.491 . S
C952 H943 0.950 . S
C952 C951 1.398 . S
C952 C953 1.391 . S
C953 H941 0.950 . S
C953 C949 1.393 . S
C953 C952 1.391 . S
C954 H944 0.950 . S
C954 C955 1.386 . S
C954 C956 1.391 . S
C955 C954 1.386 . S
C955 C959 1.393 . S
C956 H945 0.950 . S
C956 C954 1.391 . S
C956 C957 1.400 . S
C957 C951 1.491 . S
C957 C956 1.400 . S
C957 C958 1.398 . S
C958 H946 0.950 . S
C958 C957 1.398 . S
C958 C959 1.391 . S
C959 H947 0.950 . S
C959 C955 1.393 . S
C959 C958 1.391 . S
H960 C968 0.950 . S
H961 C973 0.950 . S
H962 C970 0.950 . S
H963 C972 0.950 . S
H964 C974 0.950 . S
H965 C976 0.950 . S
H966 C978 0.950 . S
H967 C979 0.950 . S
C968 H960 0.950 . S
C968 C969 1.386 . S
C968 C970 1.391 . S
C969 C968 1.386 . S
C969 C973 1.393 . S
C970 H962 0.950 . S
C970 C968 1.391 . S
C970 C971 1.400 . S
C971 C970 1.400 . S
C971 C972 1.398 . S
C971 C977 1.491 1_556 S
C972 H963 0.950 . S
C972 C971 1.398 . S
C972 C973 1.391 . S
C973 H961 0.950 . S
C973 C969 1.393 . S
C973 C972 1.391 . S
C974 H964 0.950 . S
C974 C975 1.386 . S
C974 C976 1.391 . S
C975 C974 1.386 . S
C975 C979 1.393 . S
C976 H965 0.950 . S
C976 C974 1.391 . S
C976 C977 1.400 . S
C977 C971 1.491 1_554 S
C977 C976 1.400 . S
C977 C978 1.398 . S
C978 H966 0.950 . S
C978 C977 1.398 . S
C978 C979 1.391 . S
C979 H967 0.950 . S
C979 C975 1.393 . S
C979 C978 1.391 . S
H980 C988 0.950 . S
H981 C993 0.950 . S
H982 C990 0.950 . S
H983 C992 0.950 . S
H984 C994 0.950 . S
H985 C996 0.950 . S
H986 C998 0.950 . S
H987 C999 0.950 . S
C988 H980 0.950 . S
C988 C989 1.386 . S
C988 C990 1.391 . S
C989 C988 1.386 . S
C989 C993 1.393 . S
C990 H982 0.950 . S
C990 C988 1.391 . S
C990 C991 1.400 . S
C991 C990 1.400 . S
C991 C992 1.398 . S
C991 C997 1.491 1_556 S
C992 H983 0.950 . S
C992 C991 1.398 . S
C992 C993 1.391 . S
C993 H981 0.950 . S
C993 C989 1.393 . S
C993 C992 1.391 . S
C994 H984 0.950 . S
C994 C995 1.386 . S
C994 C996 1.391 . S
C995 C994 1.386 . S
C995 C999 1.393 . S
C996 H985 0.950 . S
C996 C994 1.391 . S
C996 C997 1.400 . S
C997 C991 1.491 1_554 S
C997 C996 1.400 . S
C997 C998 1.398 . S
C998 H986 0.950 . S
C998 C997 1.398 . S
C998 C999 1.391 . S
C999 H987 0.950 . S
C999 C995 1.393 . S
C999 C998 1.391 . S
H1000 C1008 0.950 . S
H1001 C1013 0.950 . S
H1002 C1010 0.950 . S
H1003 C1012 0.950 . S
H1004 C1014 0.950 . S
H1005 C1016 0.950 . S
H1006 C1018 0.950 . S
H1007 C1019 0.950 . S
C1008 H1000 0.950 . S
C1008 C1009 1.386 . S
C1008 C1010 1.391 . S
C1009 C1008 1.386 . S
C1009 C1013 1.393 . S
C1010 H1002 0.950 . S
C1010 C1008 1.391 . S
C1010 C1011 1.400 . S
C1011 C1010 1.400 . S
C1011 C1012 1.398 . S
C1011 C1017 1.491 . S
C1012 H1003 0.950 . S
C1012 C1011 1.398 . S
C1012 C1013 1.391 . S
C1013 H1001 0.950 . S
C1013 C1009 1.393 . S
C1013 C1012 1.391 . S
C1014 H1004 0.950 . S
C1014 C1015 1.386 . S
C1014 C1016 1.391 . S
C1015 C1014 1.386 . S
C1015 C1019 1.393 . S
C1016 H1005 0.950 . S
C1016 C1014 1.391 . S
C1016 C1017 1.400 . S
C1017 C1011 1.491 . S
C1017 C1016 1.400 . S
C1017 C1018 1.398 . S
C1018 H1006 0.950 . S
C1018 C1017 1.398 . S
C1018 C1019 1.391 . S
C1019 H1007 0.950 . S
C1019 C1015 1.393 . S
C1019 C1018 1.391 . S
H1020 C1028 0.950 . S
H1021 C1033 0.950 . S
H1022 C1030 0.950 . S
H1023 C1032 0.950 . S
H1024 C1034 0.950 . S
H1025 C1036 0.950 . S
H1026 C1038 0.950 . S
H1027 C1039 0.950 . S
C1028 H1020 0.950 . S
C1028 C1029 1.386 . S
C1028 C1030 1.391 . S
C1029 C1028 1.386 . S
C1029 C1033 1.393 . S
C1030 H1022 0.950 . S
C1030 C1028 1.391 . S
C1030 C1031 1.400 . S
C1031 C1030 1.400 . S
C1031 C1032 1.398 . S
C1031 C1037 1.491 . S
C1032 H1023 0.950 . S
C1032 C1031 1.398 . S
C1032 C1033 1.391 . S
C1033 H1021 0.950 . S
C1033 C1029 1.393 . S
C1033 C1032 1.391 . S
C1034 H1024 0.950 . S
C1034 C1035 1.386 . S
C1034 C1036 1.391 . S
C1035 C1034 1.386 . S
C1035 C1039 1.393 . S
C1036 H1025 0.950 . S
C1036 C1034 1.391 . S
C1036 C1037 1.400 . S
C1037 C1031 1.491 . S
C1037 C1036 1.400 . S
C1037 C1038 1.398 . S
C1038 H1026 0.950 . S
C1038 C1037 1.398 . S
C1038 C1039 1.391 . S
C1039 H1027 0.950 . S
C1039 C1035 1.393 . S
C1039 C1038 1.391 . S
H1040 C1048 0.950 . S
H1041 C1053 0.950 . S
H1042 C1050 0.950 . S
H1043 C1052 0.950 . S
H1044 C1054 0.950 . S
H1045 C1056 0.950 . S
H1046 C1058 0.950 . S
H1047 C1059 0.950 . S
C1048 H1040 0.950 . S
C1048 C1049 1.386 . S
C1048 C1050 1.391 . S
C1049 C1048 1.386 . S
C1049 C1053 1.393 . S
C1050 H1042 0.950 . S
C1050 C1048 1.391 . S
C1050 C1051 1.400 . S
C1051 C1050 1.400 . S
C1051 C1052 1.398 . S
C1051 C1057 1.491 1_554 S
C1052 H1043 0.950 . S
C1052 C1051 1.398 . S
C1052 C1053 1.391 . S
C1053 H1041 0.950 . S
C1053 C1049 1.393 . S
C1053 C1052 1.391 . S
C1054 H1044 0.950 . S
C1054 C1055 1.386 . S
C1054 C1056 1.391 . S
C1055 C1054 1.386 . S
C1055 C1059 1.393 . S
C1056 H1045 0.950 . S
C1056 C1054 1.391 . S
C1056 C1057 1.400 . S
C1057 C1051 1.491 1_556 S
C1057 C1056 1.400 . S
C1057 C1058 1.398 . S
C1058 H1046 0.950 . S
C1058 C1057 1.398 . S
C1058 C1059 1.391 . S
C1059 H1047 0.950 . S
C1059 C1055 1.393 . S
C1059 C1058 1.391 . S
H1060 C1068 0.950 . S
H1061 C1073 0.950 . S
H1062 C1070 0.950 . S
H1063 C1072 0.950 . S
H1064 C1074 0.950 . S
H1065 C1076 0.950 . S
H1066 C1078 0.950 . S
H1067 C1079 0.950 . S
C1068 H1060 0.950 . S
C1068 C1069 1.386 . S
C1068 C1070 1.391 . S
C1069 C1068 1.386 . S
C1069 C1073 1.393 . S
C1070 H1062 0.950 . S
C1070 C1068 1.391 . S
C1070 C1071 1.400 . S
C1071 C1070 1.400 . S
C1071 C1072 1.398 . S
C1071 C1077 1.491 1_556 S
C1072 H1063 0.950 . S
C1072 C1071 1.398 . S
C1072 C1073 1.391 . S
C1073 H1061 0.950 . S
C1073 C1069 1.393 . S
C1073 C1072 1.391 . S
C1074 H1064 0.950 . S
C1074 C1075 1.386 . S
C1074 C1076 1.391 . S
C1075 C1074 1.386 . S
C1075 C1079 1.393 . S
C1076 H1065 0.950 . S
C1076 C1074 1.391 . S
C1076 C1077 1.400 . S
C1077 C1071 1.491 1_554 S
C1077 C1076 1.400 . S
C1077 C1078 1.398 . S
C1078 H1066 0.950 . S
C1078 C1077 1.398 . S
C1078 C1079 1.391 . S
C1079 H1067 0.950 . S
C1079 C1075 1.393 . S
C1079 C1078 1.391 . S
H1080 C1088 0.950 . S
H1081 C1093 0.950 . S
H1082 C1090 0.950 . S
H1083 C1092 0.950 . S
H1084 C1094 0.950 . S
H1085 C1096 0.950 . S
H1086 C1098 0.950 . S
H1087 C1099 0.950 . S
C1088 H1080 0.950 . S
C1088 C1089 1.386 . S
C1088 C1090 1.391 . S
C1089 C1088 1.386 . S
C1089 C1093 1.393 . S
C1090 H1082 0.950 . S
C1090 C1088 1.391 . S
C1090 C1091 1.400 . S
C1091 C1090 1.400 . S
C1091 C1092 1.398 . S
C1091 C1097 1.491 . S
C1092 H1083 0.950 . S
C1092 C1091 1.398 . S
C1092 C1093 1.391 . S
C1093 H1081 0.950 . S
C1093 C1089 1.393 . S
C1093 C1092 1.391 . S
C1094 H1084 0.950 . S
C1094 C1095 1.386 . S
C1094 C1096 1.391 . S
C1095 C1094 1.386 . S
C1095 C1099 1.393 . S
C1096 H1085 0.950 . S
C1096 C1094 1.391 . S
C1096 C1097 1.400 . S
C1097 C1091 1.491 . S
C1097 C1096 1.400 . S
C1097 C1098 1.398 . S
C1098 H1086 0.950 . S
C1098 C1097 1.398 . S
C1098 C1099 1.391 . S
C1099 H1087 0.950 . S
C1099 C1095 1.393 . S
C1099 C1098 1.391 . S
H1100 C1108 0.950 . S
H1101 C1113 0.950 . S
H1102 C1110 0.950 . S
H1103 C1112 0.950 . S
H1104 C1114 0.950 . S
H1105 C1116 0.950 . S
H1106 C1118 0.950 . S
H1107 C1119 0.950 . S
C1108 H1100 0.950 . S
C1108 C1109 1.386 . S
C1108 C1110 1.391 . S
C1109 C1108 1.386 . S
C1109 C1113 1.393 . S
C1110 H1102 0.950 . S
C1110 C1108 1.391 . S
C1110 C1111 1.400 . S
C1111 C1110 1.400 . S
C1111 C1112 1.398 . S
C1111 C1117 1.491 . S
C1112 H1103 0.950 . S
C1112 C1111 1.398 . S
C1112 C1113 1.391 . S
C1113 H1101 0.950 . S
C1113 C1109 1.393 . S
C1113 C1112 1.391 . S
C1114 H1104 0.950 . S
C1114 C1115 1.386 . S
C1114 C1116 1.391 . S
C1115 C1114 1.386 . S
C1115 C1119 1.393 . S
C1116 H1105 0.950 . S
C1116 C1114 1.391 . S
C1116 C1117 1.400 . S
C1117 C1111 1.491 . S
C1117 C1116 1.400 . S
C1117 C1118 1.398 . S
C1118 H1106 0.950 . S
C1118 C1117 1.398 . S
C1118 C1119 1.391 . S
C1119 H1107 0.950 . S
C1119 C1115 1.393 . S
C1119 C1118 1.391 . S
H1120 C1128 0.950 . S
H1121 C1133 0.950 . S
H1122 C1130 0.950 . S
H1123 C1132 0.950 . S
H1124 C1134 0.950 . S
H1125 C1136 0.950 . S
H1126 C1138 0.950 . S
H1127 C1139 0.950 . S
C1128 H1120 0.950 . S
C1128 C1129 1.386 . S
C1128 C1130 1.391 . S
C1129 C1128 1.386 . S
C1129 C1133 1.393 1_565 S
C1130 H1122 0.950 . S
C1130 C1128 1.391 . S
C1130 C1131 1.400 . S
C1131 C1130 1.400 . S
C1131 C1132 1.398 1_565 S
C1131 C1137 1.491 1_665 S
C1132 H1123 0.950 . S
C1132 C1131 1.398 1_545 S
C1132 C1133 1.391 . S
C1133 H1121 0.950 . S
C1133 C1129 1.393 1_545 S
C1133 C1132 1.391 . S
C1134 H1124 0.950 . S
C1134 C1135 1.386 . S
C1134 C1136 1.391 . S
C1135 C1134 1.386 . S
C1135 C1139 1.393 1_545 S
C1136 H1125 0.950 . S
C1136 C1134 1.391 . S
C1136 C1137 1.400 . S
C1137 C1131 1.491 1_445 S
C1137 C1136 1.400 . S
C1137 C1138 1.398 1_545 S
C1138 H1126 0.950 . S
C1138 C1137 1.398 1_565 S
C1138 C1139 1.391 . S
C1139 H1127 0.950 . S
C1139 C1135 1.393 1_565 S
C1139 C1138 1.391 . S
H1140 C1148 0.950 . S
H1141 C1153 0.950 . S
H1142 C1150 0.950 . S
H1143 C1152 0.950 . S
H1144 C1154 0.950 . S
H1145 C1156 0.950 . S
H1146 C1158 0.950 . S
H1147 C1159 0.950 . S
C1148 H1140 0.950 . S
C1148 C1149 1.386 . S
C1148 C1150 1.391 . S
C1149 C1148 1.386 . S
C1149 C1153 1.393 1_545 S
C1150 H1142 0.950 . S
C1150 C1148 1.391 . S
C1150 C1151 1.400 . S
C1151 C1150 1.400 . S
C1151 C1152 1.398 1_545 S
C1151 C1157 1.491 1_645 S
C1152 H1143 0.950 . S
C1152 C1151 1.398 1_565 S
C1152 C1153 1.391 . S
C1153 H1141 0.950 . S
C1153 C1149 1.393 1_565 S
C1153 C1152 1.391 . S
C1154 H1144 0.950 . S
C1154 C1155 1.386 . S
C1154 C1156 1.391 . S
C1155 C1154 1.386 . S
C1155 C1159 1.393 1_565 S
C1156 H1145 0.950 . S
C1156 C1154 1.391 . S
C1156 C1157 1.400 . S
C1157 C1151 1.491 1_465 S
C1157 C1156 1.400 . S
C1157 C1158 1.398 1_565 S
C1158 H1146 0.950 . S
C1158 C1157 1.398 1_545 S
C1158 C1159 1.391 . S
C1159 H1147 0.950 . S
C1159 C1155 1.393 1_545 S
C1159 C1158 1.391 . S
H1160 C1168 0.950 . S
H1161 C1173 0.950 . S
H1162 C1170 0.950 . S
H1163 C1172 0.950 . S
H1164 C1174 0.950 . S
H1165 C1176 0.950 . S
H1166 C1178 0.950 . S
H1167 C1179 0.950 . S
C1168 H1160 0.950 . S
C1168 C1169 1.386 . S
C1168 C1170 1.391 . S
C1169 C1168 1.386 . S
C1169 C1173 1.393 1_545 S
C1170 H1162 0.950 . S
C1170 C1168 1.391 . S
C1170 C1171 1.400 . S
C1171 C1170 1.400 . S
C1171 C1172 1.398 1_545 S
C1171 C1177 1.491 1_445 S
C1172 H1163 0.950 . S
C1172 C1171 1.398 1_565 S
C1172 C1173 1.391 . S
C1173 H1161 0.950 . S
C1173 C1169 1.393 1_565 S
C1173 C1172 1.391 . S
C1174 H1164 0.950 . S
C1174 C1175 1.386 . S
C1174 C1176 1.391 . S
C1175 C1174 1.386 . S
C1175 C1179 1.393 1_565 S
C1176 H1165 0.950 . S
C1176 C1174 1.391 . S
C1176 C1177 1.400 . S
C1177 C1171 1.491 1_665 S
C1177 C1176 1.400 . S
C1177 C1178 1.398 1_565 S
C1178 H1166 0.950 . S
C1178 C1177 1.398 1_545 S
C1178 C1179 1.391 . S
C1179 H1167 0.950 . S
C1179 C1175 1.393 1_545 S
C1179 C1178 1.391 . S
H1180 C1188 0.950 . S
H1181 C1193 0.950 1_565 S
H1182 C1190 0.950 . S
H1183 C1192 0.950 . S
H1184 C1194 0.950 . S
H1185 C1196 0.950 . S
H1186 C1198 0.950 . S
H1187 C1199 0.950 1_545 S
C1188 H1180 0.950 . S
C1188 C1189 1.386 . S
C1188 C1190 1.391 . S
C1189 C1188 1.386 . S
C1189 C1193 1.393 . S
C1190 H1182 0.950 . S
C1190 C1188 1.391 . S
C1190 C1191 1.400 . S
C1191 C1190 1.400 . S
C1191 C1192 1.398 1_545 S
C1191 C1197 1.491 1_645 S
C1192 H1183 0.950 . S
C1192 C1191 1.398 1_565 S
C1192 C1193 1.391 1_565 S
C1193 H1181 0.950 1_545 S
C1193 C1189 1.393 . S
C1193 C1192 1.391 1_545 S
C1194 H1184 0.950 . S
C1194 C1195 1.386 . S
C1194 C1196 1.391 . S
C1195 C1194 1.386 . S
C1195 C1199 1.393 . S
C1196 H1185 0.950 . S
C1196 C1194 1.391 . S
C1196 C1197 1.400 . S
C1197 C1191 1.491 1_465 S
C1197 C1196 1.400 . S
C1197 C1198 1.398 1_565 S
C1198 H1186 0.950 . S
C1198 C1197 1.398 1_545 S
C1198 C1199 1.391 1_545 S
C1199 H1187 0.950 1_565 S
C1199 C1195 1.393 . S
C1199 C1198 1.391 1_565 S
H1200 C1208 0.950 . S
H1201 C1213 0.950 . S
H1202 C1210 0.950 . S
H1203 C1212 0.950 . S
H1204 C1214 0.950 . S
H1205 C1216 0.950 . S
H1206 C1218 0.950 . S
H1207 C1219 0.950 . S
C1208 H1200 0.950 . S
C1208 C1209 1.386 . S
C1208 C1210 1.391 . S
C1209 C1208 1.386 . S
C1209 C1213 1.393 . S
C1210 H1202 0.950 . S
C1210 C1208 1.391 . S
C1210 C1211 1.400 . S
C1211 C1210 1.400 . S
C1211 C1212 1.398 . S
C1211 C1217 1.491 . S
C1212 H1203 0.950 . S
C1212 C1211 1.398 . S
C1212 C1213 1.391 . S
C1213 H1201 0.950 . S
C1213 C1209 1.393 . S
C1213 C1212 1.391 . S
C1214 H1204 0.950 . S
C1214 C1215 1.386 . S
C1214 C1216 1.391 . S
C1215 C1214 1.386 . S
C1215 C1219 1.393 . S
C1216 H1205 0.950 . S
C1216 C1214 1.391 . S
C1216 C1217 1.400 . S
C1217 C1211 1.491 . S
C1217 C1216 1.400 . S
C1217 C1218 1.398 . S
C1218 H1206 0.950 . S
C1218 C1217 1.398 . S
C1218 C1219 1.391 . S
C1219 H1207 0.950 . S
C1219 C1215 1.393 . S
C1219 C1218 1.391 . S
H1220 C1228 0.950 . S
H1221 C1233 0.950 . S
H1222 C1230 0.950 . S
H1223 C1232 0.950 . S
H1224 C1234 0.950 . S
H1225 C1236 0.950 . S
H1226 C1238 0.950 . S
H1227 C1239 0.950 . S
C1228 H1220 0.950 . S
C1228 C1229 1.386 . S
C1228 C1230 1.391 . S
C1229 C1228 1.386 . S
C1229 C1233 1.393 . S
C1230 H1222 0.950 . S
C1230 C1228 1.391 . S
C1230 C1231 1.400 . S
C1231 C1230 1.400 . S
C1231 C1232 1.398 . S
C1231 C1237 1.491 . S
C1232 H1223 0.950 . S
C1232 C1231 1.398 . S
C1232 C1233 1.391 . S
C1233 H1221 0.950 . S
C1233 C1229 1.393 . S
C1233 C1232 1.391 . S
C1234 H1224 0.950 . S
C1234 C1235 1.386 . S
C1234 C1236 1.391 . S
C1235 C1234 1.386 . S
C1235 C1239 1.393 . S
C1236 H1225 0.950 . S
C1236 C1234 1.391 . S
C1236 C1237 1.400 . S
C1237 C1231 1.491 . S
C1237 C1236 1.400 . S
C1237 C1238 1.398 . S
C1238 H1226 0.950 . S
C1238 C1237 1.398 . S
C1238 C1239 1.391 . S
C1239 H1227 0.950 . S
C1239 C1235 1.393 . S
C1239 C1238 1.391 . S
H1240 C1248 0.950 . S
H1241 C1253 0.950 . S
H1242 C1250 0.950 . S
H1243 C1252 0.950 . S
H1244 C1254 0.950 . S
H1245 C1256 0.950 . S
H1246 C1258 0.950 . S
H1247 C1259 0.950 . S
C1248 H1240 0.950 . S
C1248 C1249 1.386 . S
C1248 C1250 1.391 . S
C1249 C1248 1.386 . S
C1249 C1253 1.393 . S
C1250 H1242 0.950 . S
C1250 C1248 1.391 . S
C1250 C1251 1.400 . S
C1251 C1250 1.400 . S
C1251 C1252 1.398 . S
C1251 C1257 1.491 . S
C1252 H1243 0.950 . S
C1252 C1251 1.398 . S
C1252 C1253 1.391 . S
C1253 H1241 0.950 . S
C1253 C1249 1.393 . S
C1253 C1252 1.391 . S
C1254 H1244 0.950 . S
C1254 C1255 1.386 . S
C1254 C1256 1.391 . S
C1255 C1254 1.386 . S
C1255 C1259 1.393 . S
C1256 H1245 0.950 . S
C1256 C1254 1.391 . S
C1256 C1257 1.400 . S
C1257 C1251 1.491 . S
C1257 C1256 1.400 . S
C1257 C1258 1.398 . S
C1258 H1246 0.950 . S
C1258 C1257 1.398 . S
C1258 C1259 1.391 . S
C1259 H1247 0.950 . S
C1259 C1255 1.393 . S
C1259 C1258 1.391 . S
H1260 C1268 0.950 . S
H1261 C1273 0.950 . S
H1262 C1270 0.950 . S
H1263 C1272 0.950 . S
H1264 C1274 0.950 . S
H1265 C1276 0.950 . S
H1266 C1278 0.950 . S
H1267 C1279 0.950 . S
C1268 H1260 0.950 . S
C1268 C1269 1.386 . S
C1268 C1270 1.391 . S
C1269 C1268 1.386 . S
C1269 C1273 1.393 . S
C1270 H1262 0.950 . S
C1270 C1268 1.391 . S
C1270 C1271 1.400 . S
C1271 C1270 1.400 . S
C1271 C1272 1.398 . S
C1271 C1277 1.491 . S
C1272 H1263 0.950 . S
C1272 C1271 1.398 . S
C1272 C1273 1.391 . S
C1273 H1261 0.950 . S
C1273 C1269 1.393 . S
C1273 C1272 1.391 . S
C1274 H1264 0.950 . S
C1274 C1275 1.386 . S
C1274 C1276 1.391 . S
C1275 C1274 1.386 . S
C1275 C1279 1.393 . S
C1276 H1265 0.950 . S
C1276 C1274 1.391 . S
C1276 C1277 1.400 . S
C1277 C1271 1.491 . S
C1277 C1276 1.400 . S
C1277 C1278 1.398 . S
C1278 H1266 0.950 . S
C1278 C1277 1.398 . S
C1278 C1279 1.391 . S
C1279 H1267 0.950 . S
C1279 C1275 1.393 . S
C1279 C1278 1.391 . S
H1280 C1288 0.950 . S
H1281 C1293 0.950 . S
H1282 C1290 0.950 . S
H1283 C1292 0.950 . S
H1284 C1294 0.950 . S
H1285 C1296 0.950 . S
H1286 C1298 0.950 . S
H1287 C1299 0.950 . S
C1288 H1280 0.950 . S
C1288 C1289 1.386 . S
C1288 C1290 1.391 . S
C1289 C1288 1.386 . S
C1289 C1293 1.393 . S
C1290 H1282 0.950 . S
C1290 C1288 1.391 . S
C1290 C1291 1.400 . S
C1291 C1290 1.400 . S
C1291 C1292 1.398 . S
C1291 C1297 1.491 . S
C1292 H1283 0.950 . S
C1292 C1291 1.398 . S
C1292 C1293 1.391 . S
C1293 H1281 0.950 . S
C1293 C1289 1.393 . S
C1293 C1292 1.391 . S
C1294 H1284 0.950 . S
C1294 C1295 1.386 . S
C1294 C1296 1.391 . S
C1295 C1294 1.386 . S
C1295 C1299 1.393 . S
C1296 H1285 0.950 . S
C1296 C1294 1.391 . S
C1296 C1297 1.400 . S
C1297 C1291 1.491 . S
C1297 C1296 1.400 . S
C1297 C1298 1.398 . S
C1298 H1286 0.950 . S
C1298 C1297 1.398 . S
C1298 C1299 1.391 . S
C1299 H1287 0.950 . S
C1299 C1295 1.393 . S
C1299 C1298 1.391 . S
H1300 C1308 0.950 . S
H1301 C1313 0.950 . S
H1302 C1310 0.950 . S
H1303 C1312 0.950 . S
H1304 C1314 0.950 . S
H1305 C1316 0.950 . S
H1306 C1318 0.950 . S
H1307 C1319 0.950 . S
C1308 H1300 0.950 . S
C1308 C1309 1.386 . S
C1308 C1310 1.391 . S
C1309 C1308 1.386 . S
C1309 C1313 1.393 . S
C1310 H1302 0.950 . S
C1310 C1308 1.391 . S
C1310 C1311 1.400 . S
C1311 C1310 1.400 . S
C1311 C1312 1.398 . S
C1311 C1317 1.491 . S
C1312 H1303 0.950 . S
C1312 C1311 1.398 . S
C1312 C1313 1.391 . S
C1313 H1301 0.950 . S
C1313 C1309 1.393 . S
C1313 C1312 1.391 . S
C1314 H1304 0.950 . S
C1314 C1315 1.386 . S
C1314 C1316 1.391 . S
C1315 C1314 1.386 . S
C1315 C1319 1.393 . S
C1316 H1305 0.950 . S
C1316 C1314 1.391 . S
C1316 C1317 1.400 . S
C1317 C1311 1.491 . S
C1317 C1316 1.400 . S
C1317 C1318 1.398 . S
C1318 H1306 0.950 . S
C1318 C1317 1.398 . S
C1318 C1319 1.391 . S
C1319 H1307 0.950 . S
C1319 C1315 1.393 . S
C1319 C1318 1.391 . S
H1320 C1328 0.950 . S
H1321 C1333 0.950 . S
H1322 C1330 0.950 . S
H1323 C1332 0.950 . S
H1324 C1334 0.950 . S
H1325 C1336 0.950 . S
H1326 C1338 0.950 . S
H1327 C1339 0.950 . S
C1328 H1320 0.950 . S
C1328 C1329 1.386 . S
C1328 C1330 1.391 . S
C1329 C1328 1.386 . S
C1329 C1333 1.393 . S
C1330 H1322 0.950 . S
C1330 C1328 1.391 . S
C1330 C1331 1.400 . S
C1331 C1330 1.400 . S
C1331 C1332 1.398 . S
C1331 C1337 1.491 . S
C1332 H1323 0.950 . S
C1332 C1331 1.398 . S
C1332 C1333 1.391 . S
C1333 H1321 0.950 . S
C1333 C1329 1.393 . S
C1333 C1332 1.391 . S
C1334 H1324 0.950 . S
C1334 C1335 1.386 . S
C1334 C1336 1.391 . S
C1335 C1334 1.386 . S
C1335 C1339 1.393 . S
C1336 H1325 0.950 . S
C1336 C1334 1.391 . S
C1336 C1337 1.400 . S
C1337 C1331 1.491 . S
C1337 C1336 1.400 . S
C1337 C1338 1.398 . S
C1338 H1326 0.950 . S
C1338 C1337 1.398 . S
C1338 C1339 1.391 . S
C1339 H1327 0.950 . S
C1339 C1335 1.393 . S
C1339 C1338 1.391 . S
H1340 C1348 0.950 . S
H1341 C1353 0.950 . S
H1342 C1350 0.950 . S
H1343 C1352 0.950 . S
H1344 C1354 0.950 . S
H1345 C1356 0.950 . S
H1346 C1358 0.950 . S
H1347 C1359 0.950 . S
C1348 H1340 0.950 . S
C1348 C1349 1.386 . S
C1348 C1350 1.391 . S
C1349 C1348 1.386 . S
C1349 C1353 1.393 . S
C1350 H1342 0.950 . S
C1350 C1348 1.391 . S
C1350 C1351 1.400 . S
C1351 C1350 1.400 . S
C1351 C1352 1.398 . S
C1351 C1357 1.491 . S
C1352 H1343 0.950 . S
C1352 C1351 1.398 . S
C1352 C1353 1.391 . S
C1353 H1341 0.950 . S
C1353 C1349 1.393 . S
C1353 C1352 1.391 . S
C1354 H1344 0.950 . S
C1354 C1355 1.386 . S
C1354 C1356 1.391 . S
C1355 C1354 1.386 . S
C1355 C1359 1.393 . S
C1356 H1345 0.950 . S
C1356 C1354 1.391 . S
C1356 C1357 1.400 . S
C1357 C1351 1.491 . S
C1357 C1356 1.400 . S
C1357 C1358 1.398 . S
C1358 H1346 0.950 . S
C1358 C1357 1.398 . S
C1358 C1359 1.391 . S
C1359 H1347 0.950 . S
C1359 C1355 1.393 . S
C1359 C1358 1.391 . S
H1360 C1368 0.950 . S
H1361 C1373 0.950 . S
H1362 C1370 0.950 . S
H1363 C1372 0.950 . S
H1364 C1374 0.950 . S
H1365 C1376 0.950 . S
H1366 C1378 0.950 . S
H1367 C1379 0.950 . S
C1368 H1360 0.950 . S
C1368 C1369 1.386 . S
C1368 C1370 1.391 . S
C1369 C1368 1.386 . S
C1369 C1373 1.393 . S
C1370 H1362 0.950 . S
C1370 C1368 1.391 . S
C1370 C1371 1.400 . S
C1371 C1370 1.400 . S
C1371 C1372 1.398 . S
C1371 C1377 1.491 . S
C1372 H1363 0.950 . S
C1372 C1371 1.398 . S
C1372 C1373 1.391 . S
C1373 H1361 0.950 . S
C1373 C1369 1.393 . S
C1373 C1372 1.391 . S
C1374 H1364 0.950 . S
C1374 C1375 1.386 . S
C1374 C1376 1.391 . S
C1375 C1374 1.386 . S
C1375 C1379 1.393 . S
C1376 H1365 0.950 . S
C1376 C1374 1.391 . S
C1376 C1377 1.400 . S
C1377 C1371 1.491 . S
C1377 C1376 1.400 . S
C1377 C1378 1.398 . S
C1378 H1366 0.950 . S
C1378 C1377 1.398 . S
C1378 C1379 1.391 . S
C1379 H1367 0.950 . S
C1379 C1375 1.393 . S
C1379 C1378 1.391 . S
H1380 C1388 0.950 . S
H1381 C1393 0.950 . S
H1382 C1390 0.950 . S
H1383 C1392 0.950 . S
H1384 C1394 0.950 . S
H1385 C1396 0.950 . S
H1386 C1398 0.950 . S
H1387 C1399 0.950 . S
C1388 H1380 0.950 . S
C1388 C1389 1.386 . S
C1388 C1390 1.391 . S
C1389 C1388 1.386 . S
C1389 C1393 1.393 . S
C1390 H1382 0.950 . S
C1390 C1388 1.391 . S
C1390 C1391 1.400 . S
C1391 C1390 1.400 . S
C1391 C1392 1.398 . S
C1391 C1397 1.491 . S
C1392 H1383 0.950 . S
C1392 C1391 1.398 . S
C1392 C1393 1.391 . S
C1393 H1381 0.950 . S
C1393 C1389 1.393 . S
C1393 C1392 1.391 . S
C1394 H1384 0.950 . S
C1394 C1395 1.386 . S
C1394 C1396 1.391 . S
C1395 C1394 1.386 . S
C1395 C1399 1.393 . S
C1396 H1385 0.950 . S
C1396 C1394 1.391 . S
C1396 C1397 1.400 . S
C1397 C1391 1.491 . S
C1397 C1396 1.400 . S
C1397 C1398 1.398 . S
C1398 H1386 0.950 . S
C1398 C1397 1.398 . S
C1398 C1399 1.391 . S
C1399 H1387 0.950 . S
C1399 C1395 1.393 . S
C1399 C1398 1.391 . S
H1400 C1408 0.950 . S
H1401 C1413 0.950 . S
H1402 C1410 0.950 . S
H1403 C1412 0.950 . S
H1404 C1414 0.950 . S
H1405 C1416 0.950 . S
H1406 C1418 0.950 . S
H1407 C1419 0.950 . S
C1408 H1400 0.950 . S
C1408 C1409 1.386 . S
C1408 C1410 1.391 . S
C1409 C1408 1.386 . S
C1409 C1413 1.393 . S
C1410 H1402 0.950 . S
C1410 C1408 1.391 . S
C1410 C1411 1.400 . S
C1411 C1410 1.400 . S
C1411 C1412 1.398 . S
C1411 C1417 1.491 . S
C1412 H1403 0.950 . S
C1412 C1411 1.398 . S
C1412 C1413 1.391 . S
C1413 H1401 0.950 . S
C1413 C1409 1.393 . S
C1413 C1412 1.391 . S
C1414 H1404 0.950 . S
C1414 C1415 1.386 . S
C1414 C1416 1.391 . S
C1415 C1414 1.386 . S
C1415 C1419 1.393 . S
C1416 H1405 0.950 . S
C1416 C1414 1.391 . S
C1416 C1417 1.400 . S
C1417 C1411 1.491 . S
C1417 C1416 1.400 . S
C1417 C1418 1.398 . S
C1418 H1406 0.950 . S
C1418 C1417 1.398 . S
C1418 C1419 1.391 . S
C1419 H1407 0.950 . S
C1419 C1415 1.393 . S
C1419 C1418 1.391 . S
H1420 C1428 0.950 . S
H1421 C1433 0.950 . S
H1422 C1430 0.950 . S
H1423 C1432 0.950 . S
H1424 C1434 0.950 . S
H1425 C1436 0.950 . S
H1426 C1438 0.950 . S
H1427 C1439 0.950 . S
C1428 H1420 0.950 . S
C1428 C1429 1.386 . S
C1428 C1430 1.391 . S
C1429 C1428 1.386 . S
C1429 C1433 1.393 . S
C1430 H1422 0.950 . S
C1430 C1428 1.391 . S
C1430 C1431 1.400 . S
C1431 C1430 1.400 . S
C1431 C1432 1.398 . S
C1431 C1437 1.491 . S
C1432 H1423 0.950 . S
C1432 C1431 1.398 . S
C1432 C1433 1.391 . S
C1433 H1421 0.950 . S
C1433 C1429 1.393 . S
C1433 C1432 1.391 . S
C1434 H1424 0.950 . S
C1434 C1435 1.386 . S
C1434 C1436 1.391 . S
C1435 C1434 1.386 . S
C1435 C1439 1.393 . S
C1436 H1425 0.950 . S
C1436 C1434 1.391 . S
C1436 C1437 1.400 . S
C1437 C1431 1.491 . S
C1437 C1436 1.400 . S
C1437 C1438 1.398 . S
C1438 H1426 0.950 . S
C1438 C1437 1.398 . S
C1438 C1439 1.391 . S
C1439 H1427 0.950 . S
C1439 C1435 1.393 . S
C1439 C1438 1.391 . S
H1440 C1448 0.950 . S
H1441 C1453 0.950 . S
H1442 C1450 0.950 . S
H1443 C1452 0.950 . S
H1444 C1454 0.950 . S
H1445 C1456 0.950 . S
H1446 C1458 0.950 . S
H1447 C1459 0.950 . S
C1448 H1440 0.950 . S
C1448 C1449 1.386 . S
C1448 C1450 1.391 1_565 S
C1449 C1448 1.386 . S
C1449 C1453 1.393 . S
C1450 H1442 0.950 . S
C1450 C1448 1.391 1_545 S
C1450 C1451 1.400 . S
C1451 C1450 1.400 . S
C1451 C1452 1.398 . S
C1451 C1457 1.491 . S
C1452 H1443 0.950 . S
C1452 C1451 1.398 . S
C1452 C1453 1.391 1_545 S
C1453 H1441 0.950 . S
C1453 C1449 1.393 . S
C1453 C1452 1.391 1_565 S
C1454 H1444 0.950 . S
C1454 C1455 1.386 . S
C1454 C1456 1.391 . S
C1455 C1454 1.386 . S
C1455 C1459 1.393 . S
C1456 H1445 0.950 . S
C1456 C1454 1.391 . S
C1456 C1457 1.400 . S
C1457 C1451 1.491 . S
C1457 C1456 1.400 . S
C1457 C1458 1.398 . S
C1458 H1446 0.950 . S
C1458 C1457 1.398 . S
C1458 C1459 1.391 . S
C1459 H1447 0.950 . S
C1459 C1455 1.393 . S
C1459 C1458 1.391 . S
H1460 C1468 0.950 . S
H1461 C1473 0.950 . S
H1462 C1470 0.950 . S
H1463 C1472 0.950 . S
H1464 C1474 0.955 . S
H1465 C1476 0.950 . S
H1466 C1478 0.950 . S
H1467 C1479 0.950 . S
C1468 H1460 0.950 . S
C1468 C1469 1.386 . S
C1468 C1470 1.391 . S
C1469 C1468 1.386 . S
C1469 C1473 1.393 . S
C1470 H1462 0.950 . S
C1470 C1468 1.391 . S
C1470 C1471 1.400 . S
C1471 C1470 1.400 . S
C1471 C1472 1.398 . S
C1471 C1477 1.491 . S
C1472 H1463 0.950 . S
C1472 C1471 1.398 . S
C1472 C1473 1.391 . S
C1473 H1461 0.950 . S
C1473 C1469 1.393 . S
C1473 C1472 1.391 . S
C1474 H1464 0.955 . S
C1474 C1475 1.395 . S
C1474 C1476 1.377 1_545 S
C1475 C1474 1.395 . S
C1475 C1479 1.393 . S
C1476 H1465 0.950 . S
C1476 C1474 1.377 1_565 S
C1476 C1477 1.400 . S
C1477 C1471 1.491 . S
C1477 C1476 1.400 . S
C1477 C1478 1.398 . S
C1478 H1466 0.950 . S
C1478 C1477 1.398 . S
C1478 C1479 1.391 1_565 S
C1479 H1467 0.950 . S
C1479 C1475 1.393 . S
C1479 C1478 1.391 1_545 S
H1480 C1488 0.950 . S
H1481 C1493 0.950 . S
H1482 C1490 0.950 . S
H1483 C1492 0.950 . S
H1484 C1494 0.950 . S
H1485 C1496 0.950 . S
H1486 C1498 0.950 . S
H1487 C1499 0.950 . S
C1488 H1480 0.950 . S
C1488 C1489 1.386 . S
C1488 C1490 1.391 1_545 S
C1489 C1488 1.386 . S
C1489 C1493 1.393 . S
C1490 H1482 0.950 . S
C1490 C1488 1.391 1_565 S
C1490 C1491 1.400 . S
C1491 C1490 1.400 . S
C1491 C1492 1.398 . S
C1491 C1497 1.491 . S
C1492 H1483 0.950 . S
C1492 C1491 1.398 . S
C1492 C1493 1.391 1_565 S
C1493 H1481 0.950 . S
C1493 C1489 1.393 . S
C1493 C1492 1.391 1_545 S
C1494 H1484 0.950 . S
C1494 C1495 1.386 . S
C1494 C1496 1.391 . S
C1495 C1494 1.386 . S
C1495 C1499 1.393 . S
C1496 H1485 0.950 . S
C1496 C1494 1.391 . S
C1496 C1497 1.400 . S
C1497 C1491 1.491 . S
C1497 C1496 1.400 . S
C1497 C1498 1.398 . S
C1498 H1486 0.950 . S
C1498 C1497 1.398 . S
C1498 C1499 1.391 . S
C1499 H1487 0.950 . S
C1499 C1495 1.393 . S
C1499 C1498 1.391 . S
H1500 C1508 0.950 . S
H1501 C1513 0.950 . S
H1502 C1510 0.950 . S
H1503 C1512 0.950 . S
H1504 C1514 0.950 . S
H1505 C1516 0.950 . S
H1506 C1518 0.950 . S
H1507 C1519 0.950 . S
C1508 H1500 0.950 . S
C1508 C1509 1.386 . S
C1508 C1510 1.391 1_565 S
C1509 C1508 1.386 . S
C1509 C1513 1.393 . S
C1510 H1502 0.950 . S
C1510 C1508 1.391 1_545 S
C1510 C1511 1.400 . S
C1511 C1510 1.400 . S
C1511 C1512 1.398 . S
C1511 C1517 1.491 . S
C1512 H1503 0.950 . S
C1512 C1511 1.398 . S
C1512 C1513 1.391 1_545 S
C1513 H1501 0.950 . S
C1513 C1509 1.393 . S
C1513 C1512 1.391 1_565 S
C1514 H1504 0.950 . S
C1514 C1515 1.386 . S
C1514 C1516 1.391 . S
C1515 C1514 1.386 . S
C1515 C1519 1.393 . S
C1516 H1505 0.950 . S
C1516 C1514 1.391 . S
C1516 C1517 1.400 . S
C1517 C1511 1.491 . S
C1517 C1516 1.400 . S
C1517 C1518 1.398 . S
C1518 H1506 0.950 . S
C1518 C1517 1.398 . S
C1518 C1519 1.391 . S
C1519 H1507 0.950 . S
C1519 C1515 1.393 . S
C1519 C1518 1.391 . S
H1520 C1528 0.950 . S
H1521 C1533 0.950 . S
H1522 C1530 0.950 . S
H1523 C1532 0.950 . S
H1524 C1534 0.950 . S
H1525 C1536 0.950 . S
H1526 C1538 0.950 . S
H1527 C1539 0.950 . S
C1528 H1520 0.950 . S
C1528 C1529 1.386 . S
C1528 C1530 1.391 . S
C1529 C1528 1.386 . S
C1529 C1533 1.393 . S
C1530 H1522 0.950 . S
C1530 C1528 1.391 . S
C1530 C1531 1.400 . S
C1531 C1530 1.400 . S
C1531 C1532 1.398 . S
C1531 C1537 1.491 . S
C1532 H1523 0.950 . S
C1532 C1531 1.398 . S
C1532 C1533 1.391 . S
C1533 H1521 0.950 . S
C1533 C1529 1.393 . S
C1533 C1532 1.391 . S
C1534 H1524 0.950 . S
C1534 C1535 1.386 . S
C1534 C1536 1.391 1_545 S
C1535 C1534 1.386 . S
C1535 C1539 1.393 . S
C1536 H1525 0.950 . S
C1536 C1534 1.391 1_565 S
C1536 C1537 1.400 . S
C1537 C1531 1.491 . S
C1537 C1536 1.400 . S
C1537 C1538 1.398 . S
C1538 H1526 0.950 . S
C1538 C1537 1.398 . S
C1538 C1539 1.391 1_565 S
C1539 H1527 0.950 . S
C1539 C1535 1.393 . S
C1539 C1538 1.391 1_545 S
H1540 C1548 0.950 . S
H1541 C1553 0.950 . S
H1542 C1550 0.950 . S
H1543 C1552 0.950 . S
H1544 C1554 0.956 . S
H1545 C1556 0.950 . S
H1546 C1558 0.950 . S
H1547 C1559 0.950 . S
C1548 H1540 0.950 . S
C1548 C1549 1.386 . S
C1548 C1550 1.391 . S
C1549 C1548 1.386 . S
C1549 C1553 1.393 . S
C1550 H1542 0.950 . S
C1550 C1548 1.391 . S
C1550 C1551 1.400 . S
C1551 C1550 1.400 . S
C1551 C1552 1.398 . S
C1551 C1557 1.491 . S
C1552 H1543 0.950 . S
C1552 C1551 1.398 . S
C1552 C1553 1.391 . S
C1553 H1541 0.950 . S
C1553 C1549 1.393 . S
C1553 C1552 1.391 . S
C1554 H1544 0.956 . S
C1554 C1555 1.398 . S
C1554 C1556 1.373 1_565 S
C1555 C1554 1.398 . S
C1555 C1559 1.393 . S
C1556 H1545 0.950 . S
C1556 C1554 1.373 1_545 S
C1556 C1557 1.400 . S
C1557 C1551 1.491 . S
C1557 C1556 1.400 . S
C1557 C1558 1.398 . S
C1558 H1546 0.950 . S
C1558 C1557 1.398 . S
C1558 C1559 1.391 1_545 S
C1559 H1547 0.950 . S
C1559 C1555 1.393 . S
C1559 C1558 1.391 1_565 S
H1560 C1568 0.950 . S
H1561 C1573 0.950 . S
H1562 C1570 0.950 . S
H1563 C1572 0.950 . S
H1564 C1574 0.950 . S
H1565 C1576 0.950 . S
H1566 C1578 0.950 . S
H1567 C1579 0.950 . S
C1568 H1560 0.950 . S
C1568 C1569 1.386 . S
C1568 C1570 1.391 1_565 S
C1569 C1568 1.386 . S
C1569 C1573 1.393 . S
C1570 H1562 0.950 . S
C1570 C1568 1.391 1_545 S
C1570 C1571 1.400 . S
C1571 C1570 1.400 . S
C1571 C1572 1.398 . S
C1571 C1577 1.491 . S
C1572 H1563 0.950 . S
C1572 C1571 1.398 . S
C1572 C1573 1.391 1_545 S
C1573 H1561 0.950 . S
C1573 C1569 1.393 . S
C1573 C1572 1.391 1_565 S
C1574 H1564 0.950 . S
C1574 C1575 1.386 . S
C1574 C1576 1.391 . S
C1575 C1574 1.386 . S
C1575 C1579 1.393 . S
C1576 H1565 0.950 . S
C1576 C1574 1.391 . S
C1576 C1577 1.400 . S
C1577 C1571 1.491 . S
C1577 C1576 1.400 . S
C1577 C1578 1.398 . S
C1578 H1566 0.950 . S
C1578 C1577 1.398 . S
C1578 C1579 1.391 . S
C1579 H1567 0.950 . S
C1579 C1575 1.393 . S
C1579 C1578 1.391 . S
H1580 C1588 0.950 . S
H1581 C1593 0.950 . S
H1582 C1590 0.950 . S
H1583 C1592 0.950 . S
H1584 C1594 0.950 . S
H1585 C1596 0.950 . S
H1586 C1598 0.950 . S
H1587 C1599 0.950 . S
C1588 H1580 0.950 . S
C1588 C1589 1.386 . S
C1588 C1590 1.391 . S
C1589 C1588 1.386 . S
C1589 C1593 1.393 . S
C1590 H1582 0.950 . S
C1590 C1588 1.391 . S
C1590 C1591 1.400 . S
C1591 C1590 1.400 . S
C1591 C1592 1.398 . S
C1591 C1597 1.491 . S
C1592 H1583 0.950 . S
C1592 C1591 1.398 . S
C1592 C1593 1.391 . S
C1593 H1581 0.950 . S
C1593 C1589 1.393 . S
C1593 C1592 1.391 . S
C1594 H1584 0.950 . S
C1594 C1595 1.386 . S
C1594 C1596 1.391 1_545 S
C1595 C1594 1.386 . S
C1595 C1599 1.393 . S
C1596 H1585 0.950 . S
C1596 C1594 1.391 1_565 S
C1596 C1597 1.400 . S
C1597 C1591 1.491 . S
C1597 C1596 1.400 . S
C1597 C1598 1.398 . S
C1598 H1586 0.950 . S
C1598 C1597 1.398 . S
C1598 C1599 1.391 1_565 S
C1599 H1587 0.950 . S
C1599 C1595 1.393 . S
C1599 C1598 1.391 1_545 S
C649 C3 1.552 . S
C655 C363 1.553 . S
C669 C43 1.553 . S
C675 C323 1.552 . S
C689 C443 1.550 . S
C695 C83 1.553 . S
C709 C123 1.550 . S
C715 C403 1.553 . S
C729 C542 1.552 . S
C735 C182 1.550 . S
C749 C502 1.551 . S
C755 C222 1.550 . S
C769 C622 1.551 . S
C775 C262 1.550 . S
C789 C302 1.553 . S
C795 C582 1.550 . S
C809 C95 1.681 . S
C815 C15 1.685 . S
C829 C135 1.678 . S
C835 C55 1.687 . S
C849 C242 1.680 . S
C855 C162 1.683 . S
C869 C202 1.678 . S
C875 C282 1.687 . S
C889 C415 1.680 . S
C895 C335 1.686 . S
C909 C455 1.680 . S
C915 C375 1.684 . S
C929 C482 1.685 . S
C935 C562 1.679 . S
C949 C522 1.684 . S
C955 C602 1.680 . S
C969 C215 1.552 . S
C975 C2 1.542 . S
C989 C175 1.545 . S
C995 C42 1.549 . S
C1009 C82 1.555 . S
C1015 C295 1.540 . S
C1029 C255 1.542 . S
C1035 C122 1.552 . S
C1049 C322 1.557 . S
C1055 C535 1.537 . S
C1069 C495 1.552 . S
C1075 C362 1.542 . S
C1089 C402 1.559 . S
C1095 C615 1.535 . S
C1109 C575 1.542 . S
C1115 C442 1.552 . S
C1129 C62 1.630 . S
C1135 C22 1.628 . S
C1149 C142 1.619 . S
C1155 C102 1.618 . S
C1169 C203 1.619 . S
C1175 C163 1.621 . S
C1189 C243 1.633 . S
C1195 C283 1.633 . S
C1209 C382 1.616 . S
C1215 C342 1.616 . S
C1229 C462 1.632 . S
C1235 C422 1.631 . S
C1249 C483 1.619 . S
C1255 C523 1.617 . S
C1269 C563 1.628 . S
C1275 C603 1.630 . S
C1289 C9 1.603 . S
C1295 C26 1.603 . S
C1309 C49 1.598 . S
C1315 C66 1.598 . S
C1329 C89 1.610 . S
C1335 C106 1.610 . S
C1349 C146 1.594 . S
C1355 C129 1.594 . S
C1369 C186 1.609 . S
C1375 C169 1.609 . S
C1389 C209 1.596 . S
C1395 C226 1.596 . S
C1409 C266 1.592 . S
C1415 C249 1.592 . S
C1429 C306 1.595 . S
C1435 C289 1.595 . S
C1449 C346 1.592 . S
C1455 C329 1.592 . S
C1469 C369 1.598 . S
C1475 C386 1.598 . S
C1489 C426 1.594 . S
C1495 C409 1.594 . S
C1509 C466 1.597 . S
C1515 C449 1.597 . S
C1529 C506 1.592 . S
C1535 C489 1.592 . S
C1549 C546 1.604 . S
C1555 C529 1.604 . S
C1569 C569 1.596 . S
C1575 C586 1.596 . S
C1589 C626 1.595 . S
C1595 C609 1.595 . S
