# Generated by pormake.
# Topology vmz, (8)-cn, num edge types: 1
# Building blocks:
#     Node 0, Type 0, BuildingBlock: TAGTUT_clean_sbu_3, # of connection points: 8
#     Node 1, Type 0, BuildingBlock: TAGTUT_clean_sbu_3, # of connection points: 8
#     Node 2, Type 0, BuildingBlock: TAGTUT_clean_sbu_3, # of connection points: 8
#     Node 3, Type 0, BuildingBlock: TAGTUT_clean_sbu_3, # of connection points: 8
#     Edge 4, Type (0, 0), BuildingBlock: XIVTED_clean_linker_0, # of connection points: 2
#     Edge 5, Type (0, 0), BuildingBlock: XIVTED_clean_linker_0, # of connection points: 2
#     Edge 6, Type (0, 0), BuildingBlock: XIVTED_clean_linker_0, # of connection points: 2
#     Edge 7, Type (0, 0), BuildingBlock: XIVTED_clean_linker_0, # of connection points: 2
#     Edge 8, Type (0, 0), BuildingBlock: XIVTED_clean_linker_0, # of connection points: 2
#     Edge 9, Type (0, 0), BuildingBlock: XIVTED_clean_linker_0, # of connection points: 2
#     Edge 10, Type (0, 0), BuildingBlock: XIVTED_clean_linker_0, # of connection points: 2
#     Edge 11, Type (0, 0), BuildingBlock: XIVTED_clean_linker_0, # of connection points: 2
#     Edge 12, Type (0, 0), BuildingBlock: XIVTED_clean_linker_0, # of connection points: 2
#     Edge 13, Type (0, 0), BuildingBlock: XIVTED_clean_linker_0, # of connection points: 2
#     Edge 14, Type (0, 0), BuildingBlock: XIVTED_clean_linker_0, # of connection points: 2
#     Edge 15, Type (0, 0), BuildingBlock: XIVTED_clean_linker_0, # of connection points: 2
#     Edge 16, Type (0, 0), BuildingBlock: XIVTED_clean_linker_0, # of connection points: 2
#     Edge 17, Type (0, 0), BuildingBlock: XIVTED_clean_linker_0, # of connection points: 2
#     Edge 18, Type (0, 0), BuildingBlock: XIVTED_clean_linker_0, # of connection points: 2
#     Edge 19, Type (0, 0), BuildingBlock: XIVTED_clean_linker_0, # of connection points: 2
# Relax obj value: 0.212
# Max RMSD: 0.273
# Mean RMSD: 0.270
data_MOF--net-vmz--node1-TAGTUT_clean_sbu_3--edge1-XIVTED_clean_linker_0
_symmetry_space_group_name_H-M    P1
_symmetry_Int_Tables_number       1
_symmetry_cell_setting            triclinic
loop_
_symmetry_equiv_pos_as_xyz
'x, y, z'
_cell_length_a     24.488514
_cell_length_b     18.902538
_cell_length_c     32.782359
_cell_angle_alpha  89.97069
_cell_angle_beta   99.554202
_cell_angle_gamma 90.058263
loop_
_atom_site_label
_atom_site_type_symbol
_atom_site_fract_x
_atom_site_fract_y
_atom_site_fract_z
_atom_type_partial_charge
C0 C 0.1941 0.24543 0.1642 0.0
C1 C 0.20787 0.44599 0.05024 0.0
C2 C 0.22498 0.25873 0.97333 0.0
Mg3 Mg 0.24182 0.08864 0.16616 0.0
Mg4 Mg 0.36185 0.06181 0.13782 0.0
O5 O 0.29004 0.09395 0.12192 0.0
Mg6 Mg 0.27655 0.19377 0.10287 0.0
O7 O 0.25606 0.29228 0.08538 0.0
Mg8 Mg 0.17462 0.27806 0.06386 0.0
Mg9 Mg 0.29675 0.32796 0.04657 0.0
C10 C 0.37161 0.13876 0.05267 0.0
O11 O 0.35984 0.23955 0.13508 0.0
O12 O 0.25532 0.96811 0.16495 0.0
O13 O 0.3771 0.31652 0.08598 0.0
O14 O 0.31391 0.09771 0.22062 0.0
O15 O 0.33603 0.95339 0.14156 0.0
O16 O 0.39438 0.10159 0.19787 0.0
O17 O 0.19236 0.15913 0.06945 0.0
O18 O 0.17059 0.07737 0.11275 0.0
C19 C 0.1594 0.11242 0.07916 0.0
C20 C 0.29203 0.92842 0.15278 0.0
O21 O 0.32443 0.16997 0.04938 0.0
O22 O 0.17217 0.40078 0.05895 0.0
O23 O 0.39284 0.10212 0.08436 0.0
O24 O 0.18523 0.26668 0.99395 0.0
O25 O 0.25573 0.42812 0.04273 0.0
O26 O 0.27496 0.27139 0.98963 0.0
O27 O 0.23527 0.20914 0.15762 0.0
O28 O 0.16452 0.28058 0.13495 0.0
C29 C 0.36653 0.1038 0.22736 0.0
C30 C 0.39136 0.28459 0.12079 0.0
C31 C 0.63744 0.65524 0.46765 0.0
C32 C 0.76306 0.84646 0.54825 0.0
C33 C 0.75913 0.94411 0.42763 0.0
Mg34 Mg 0.62488 0.59549 0.37484 0.0
Mg35 Mg 0.76361 0.60122 0.34072 0.0
O36 O 0.69567 0.64645 0.35629 0.0
Mg37 Mg 0.72226 0.7062 0.40802 0.0
O38 O 0.74385 0.76229 0.45946 0.0
Mg39 Mg 0.67573 0.81859 0.45989 0.0
Mg40 Mg 0.81095 0.81291 0.46861 0.0
C41 C 0.80685 0.74411 0.34779 0.0
O42 O 0.80177 0.64054 0.43155 0.0
O43 O 0.67184 0.61572 0.32017 0.0
O44 O 0.863 0.72443 0.459 0.0
O45 O 0.67678 0.49248 0.38545 0.0
O46 O 0.72656 0.59028 0.27652 0.0
O47 O 0.76382 0.49989 0.37147 0.0
O48 O 0.6476 0.77726 0.39288 0.0
O49 O 0.57942 0.7045 0.36539 0.0
C50 C 0.59713 0.76662 0.3768 0.0
C51 C 0.67754 0.58894 0.28482 0.0
O52 O 0.77216 0.77319 0.36777 0.0
O53 O 0.71363 0.84529 0.52757 0.0
O54 O 0.82431 0.68245 0.3585 0.0
O55 O 0.71476 0.91808 0.43701 0.0
O56 O 0.80604 0.83733 0.53135 0.0
O57 O 0.80433 0.9094 0.43341 0.0
O58 O 0.66598 0.63835 0.43957 0.0
O59 O 0.63792 0.71852 0.48141 0.0
C60 C 0.72471 0.46563 0.38427 0.0
C61 C 0.85082 0.6601 0.44852 0.0
C62 C 0.63011 0.87074 0.94094 0.0
C63 C 0.73871 0.68483 0.04183 0.0
C64 C 0.74488 0.56686 0.92652 0.0
Mg65 Mg 0.63006 0.91331 0.84734 0.0
Mg66 Mg 0.77509 0.90483 0.82659 0.0
O67 O 0.70483 0.85882 0.83882 0.0
Mg68 Mg 0.72132 0.80374 0.89388 0.0
O69 O 0.73284 0.75488 0.9485 0.0
Mg70 Mg 0.6618 0.70348 0.94665 0.0
Mg71 Mg 0.79738 0.70218 0.96503 0.0
C72 C 0.81656 0.75869 0.84589 0.0
O73 O 0.7979 0.87007 0.92005 0.0
O74 O 0.68644 0.87775 0.80103 0.0
O75 O 0.8538 0.78553 0.95334 0.0
O76 O 0.68045 0.01686 0.85819 0.0
O77 O 0.74426 0.9062 0.76026 0.0
O78 O 0.77063 0.0117 0.85254 0.0
O79 O 0.64574 0.73211 0.87555 0.0
O80 O 0.58497 0.8063 0.83927 0.0
C81 C 0.59832 0.74457 0.8538 0.0
C82 C 0.69386 0.89954 0.76494 0.0
O83 O 0.77931 0.73141 0.86429 0.0
O84 O 0.69082 0.68673 0.01846 0.0
O85 O 0.83146 0.82252 0.85397 0.0
O86 O 0.69907 0.59528 0.93165 0.0
O87 O 0.784 0.6883 0.02722 0.0
O88 O 0.79029 0.60131 0.93379 0.0
O89 O 0.66233 0.87737 0.91446 0.0
O90 O 0.62506 0.81196 0.95933 0.0
C91 C 0.72822 0.04585 0.86038 0.0
C92 C 0.84513 0.84874 0.9392 0.0
C93 C 0.39691 0.21752 0.63633 0.0
C94 C 0.31821 0.3882 0.73182 0.0
C95 C 0.26114 0.51223 0.63376 0.0
Mg96 Mg 0.31478 0.16261 0.55413 0.0
Mg97 Mg 0.1789 0.16581 0.54531 0.0
O98 O 0.246 0.21547 0.55818 0.0
Mg99 Mg 0.26902 0.27095 0.60997 0.0
O100 O 0.29702 0.33078 0.66083 0.0
Mg101 Mg 0.3638 0.38657 0.63998 0.0
Mg102 Mg 0.2296 0.37446 0.67766 0.0
C103 C 0.13842 0.31467 0.57292 0.0
O104 O 0.22202 0.20383 0.65292 0.0
O105 O 0.27449 0.1395 0.48525 0.0
O106 O 0.16823 0.2915 0.66742 0.0
O107 O 0.279 0.06046 0.57696 0.0
O108 O 0.1823 0.15002 0.48085 0.0
O109 O 0.18823 0.06646 0.57767 0.0
O110 O 0.32113 0.34243 0.57632 0.0
O111 O 0.349 0.26478 0.53304 0.0
C112 C 0.34858 0.32759 0.54726 0.0
C113 C 0.22529 0.14118 0.46392 0.0
O114 O 0.18752 0.33424 0.58975 0.0
O115 O 0.32219 0.35904 0.69674 0.0
O116 O 0.12692 0.25145 0.55979 0.0
O117 O 0.30914 0.48663 0.63181 0.0
O118 O 0.26957 0.39001 0.74079 0.0
O119 O 0.22302 0.47638 0.64678 0.0
O120 O 0.34647 0.20098 0.62237 0.0
O121 O 0.41139 0.28136 0.64621 0.0
C122 C 0.23411 0.03316 0.58483 0.0
C123 C 0.18466 0.22759 0.67263 0.0
H124 H 0.14844 0.50908 0.10419 0.0
H125 H 0.35307 0.83118 0.11854 0.0
H126 H 0.25174 0.55513 0.01286 0.0
H127 H 0.19863 0.85502 0.16465 0.0
H128 H 0.32108 0.7178 0.08901 0.0
H129 H 0.1651 0.62958 0.13162 0.0
C130 C 0.17284 0.54528 0.08893 0.0
C131 C 0.19962 0.52196 0.05669 0.0
C132 C 0.29424 0.74783 0.1057 0.0
C133 C 0.22024 0.65741 0.0887 0.0
C134 C 0.31277 0.81222 0.1231 0.0
C135 C 0.27823 0.85336 0.14368 0.0
C136 C 0.24108 0.72367 0.10925 0.0
C137 C 0.2265 0.8253 0.14876 0.0
C138 C 0.18287 0.61353 0.10494 0.0
C139 C 0.23114 0.57071 0.03824 0.0
N140 N 0.20926 0.76202 0.13145 0.0
N141 N 0.2416 0.63563 0.0551 0.0
H142 H 0.84692 0.0343 0.424 0.0
H143 H 0.6479 0.37047 0.40167 0.0
H144 H 0.66823 0.02498 0.40233 0.0
H145 H 0.82009 0.38706 0.38826 0.0
H146 H 0.65849 0.24323 0.40879 0.0
H147 H 0.84127 0.16314 0.41406 0.0
C148 C 0.80662 0.059 0.41643 0.0
C149 C 0.75795 0.01887 0.41441 0.0
C150 C 0.69405 0.2746 0.40431 0.0
C151 C 0.75133 0.16542 0.40395 0.0
C152 C 0.68816 0.34753 0.4006 0.0
C153 C 0.73304 0.38966 0.39398 0.0
C154 C 0.74527 0.24318 0.40168 0.0
C155 C 0.78423 0.35655 0.393 0.0
C156 C 0.80346 0.13245 0.41107 0.0
C157 C 0.70686 0.05366 0.40466 0.0
N158 N 0.78896 0.28505 0.39669 0.0
N159 N 0.70494 0.12481 0.40024 0.0
H160 H 0.83388 0.48191 0.91754 0.0
H161 H 0.6458 0.13437 0.87544 0.0
H162 H 0.65576 0.47864 0.90693 0.0
H163 H 0.82068 0.13298 0.86941 0.0
H164 H 0.65117 0.26021 0.88965 0.0
H165 H 0.83198 0.35503 0.90134 0.0
C166 C 0.79438 0.45481 0.91158 0.0
C167 C 0.74492 0.49127 0.91386 0.0
C168 C 0.68851 0.2327 0.88523 0.0
C169 C 0.74261 0.34592 0.89565 0.0
C170 C 0.68557 0.16035 0.8772 0.0
C171 C 0.73288 0.12245 0.87102 0.0
C172 C 0.73919 0.26837 0.88738 0.0
C173 C 0.78309 0.15983 0.87385 0.0
C174 C 0.79339 0.38231 0.90242 0.0
C175 C 0.69504 0.45311 0.90582 0.0
N176 N 0.78494 0.23075 0.88182 0.0
N177 N 0.69527 0.38281 0.89731 0.0
H178 H 0.32531 0.95385 0.61275 0.0
H179 H 0.16532 0.59031 0.631 0.0
H180 H 0.14666 0.94243 0.58799 0.0
H181 H 0.33674 0.60808 0.6157 0.0
H182 H 0.15613 0.71922 0.62287 0.0
H183 H 0.32902 0.8272 0.62503 0.0
C184 C 0.28673 0.9248 0.61023 0.0
C185 C 0.23558 0.95873 0.59872 0.0
C186 C 0.19554 0.69446 0.62116 0.0
C187 C 0.23966 0.81295 0.61241 0.0
C188 C 0.20082 0.62103 0.62566 0.0
C189 C 0.25199 0.58822 0.6243 0.0
C190 C 0.2419 0.73499 0.61578 0.0
C191 C 0.29651 0.63067 0.61714 0.0
C192 C 0.28892 0.85228 0.61704 0.0
C193 C 0.18699 0.91828 0.59658 0.0
N194 N 0.29048 0.70167 0.6135 0.0
N195 N 0.19019 0.84714 0.60303 0.0
H196 H 0.62358 0.90497 0.39266 0.0
H197 H 0.47427 0.1348 0.25931 0.0
H198 H 0.4849 0.77002 0.34687 0.0
H199 H 0.3276 0.03544 0.28997 0.0
H200 H 0.53055 0.06385 0.31227 0.0
H201 H 0.56545 0.00833 0.37519 0.0
C202 C 0.58076 0.89688 0.37944 0.0
C203 C 0.55959 0.82849 0.37056 0.0
C204 C 0.48593 0.05956 0.30876 0.0
C205 C 0.49295 0.94712 0.34951 0.0
C206 C 0.45376 0.1004 0.27849 0.0
C207 C 0.39641 0.08947 0.2694 0.0
C208 C 0.46039 0.00691 0.32941 0.0
C209 C 0.37187 0.04454 0.2954 0.0
C210 C 0.54769 0.95612 0.36924 0.0
C211 C 0.50338 0.82164 0.35357 0.0
N212 N 0.4042 0.00258 0.32311 0.0
N213 N 0.4721 0.8804 0.34309 0.0
H214 H 0.677 0.53935 0.20725 0.0
H215 H 0.41398 0.28725 0.20552 0.0
H216 H 0.58601 0.52715 0.30905 0.0
H217 H 0.4827 0.34279 0.09678 0.0
H218 H 0.48698 0.35693 0.24771 0.0
H219 H 0.61416 0.45276 0.16965 0.0
C220 C 0.64359 0.51854 0.22166 0.0
C221 C 0.63658 0.54063 0.26129 0.0
C222 C 0.48642 0.35296 0.21469 0.0
C223 C 0.5647 0.4407 0.2185 0.0
C224 C 0.44526 0.3125 0.19068 0.0
C225 C 0.44203 0.30997 0.14753 0.0
C226 C 0.52471 0.39027 0.19536 0.0
C227 C 0.48334 0.34405 0.12988 0.0
C228 C 0.60783 0.46893 0.20021 0.0
C229 C 0.59261 0.51196 0.27845 0.0
N230 N 0.52265 0.38324 0.1538 0.0
N231 N 0.55829 0.46322 0.25695 0.0
H232 H 0.50705 0.23279 0.63544 0.0
H233 H 0.70221 0.97398 0.69458 0.0
H234 H 0.3845 0.0771 0.65393 0.0
H235 H 0.58329 0.90278 0.7692 0.0
H236 H 0.62933 0.04272 0.65229 0.0
H237 H 0.57972 0.14651 0.65751 0.0
C238 C 0.49545 0.17985 0.64342 0.0
C239 C 0.43979 0.1621 0.64314 0.0
C240 C 0.61928 0.01229 0.67804 0.0
C241 C 0.52281 0.06271 0.66827 0.0
C242 C 0.66075 0.97273 0.70204 0.0
C243 C 0.6491 0.93441 0.73625 0.0
C244 C 0.56586 0.01344 0.68835 0.0
C245 C 0.59435 0.93314 0.74379 0.0
C246 C 0.53697 0.13032 0.65564 0.0
C247 C 0.42699 0.09278 0.65368 0.0
N248 N 0.55477 0.97268 0.72023 0.0
N249 N 0.46838 0.04591 0.66674 0.0
H250 H 0.62149 0.6049 0.84226 0.0
H251 H 0.30573 0.4895 0.7885 0.0
H252 H 0.48595 0.75172 0.83875 0.0
H253 H 0.42882 0.39405 0.72574 0.0
H254 H 0.37567 0.57105 0.82284 0.0
H255 H 0.55471 0.51202 0.81504 0.0
C256 C 0.57768 0.6172 0.8364 0.0
C257 C 0.559 0.68599 0.84254 0.0
C258 C 0.3874 0.53202 0.8017 0.0
C259 C 0.48321 0.58068 0.81201 0.0
C260 C 0.34761 0.48532 0.78209 0.0
C261 C 0.36143 0.43529 0.75387 0.0
C262 C 0.44173 0.52806 0.7937 0.0
C263 C 0.41646 0.4323 0.74701 0.0
C264 C 0.53986 0.56452 0.8206 0.0
C265 C 0.50198 0.69946 0.83419 0.0
N266 N 0.45486 0.47817 0.76691 0.0
N267 N 0.46606 0.6472 0.81948 0.0
H268 H 0.16069 0.98455 0.04515 0.0
H269 H 0.84428 0.9934 0.94665 0.0
H270 H 0.06415 0.17575 0.03996 0.0
H271 H 0.95312 0.81486 0.94325 0.0
H272 H 0.92556 0.06883 0.96874 0.0
H273 H 0.08784 0.92918 0.99629 0.0
C274 C 0.12387 0.01481 0.03328 0.0
C275 C 0.11729 0.08378 0.04682 0.0
C276 C 0.93155 0.01343 0.96235 0.0
C277 C 0.03314 0.02086 0.99163 0.0
C278 C 0.88531 0.97051 0.94979 0.0
C279 C 0.8923 0.89762 0.94458 0.0
C280 C 0.98453 0.98271 0.96939 0.0
C281 C 0.946 0.87046 0.94832 0.0
C282 C 0.08235 0.9835 0.00527 0.0
C283 C 0.06976 0.12182 0.03034 0.0
N284 N 0.98999 0.91286 0.96101 0.0
N285 N 0.02855 0.08919 0.00404 0.0
H286 H 0.14927 0.45919 0.57106 0.0
H287 H 0.83878 0.51579 0.45288 0.0
H288 H 0.02767 0.29192 0.54863 0.0
H289 H 0.96107 0.68232 0.47526 0.0
H290 H 0.90782 0.43217 0.48693 0.0
H291 H 0.07926 0.54308 0.53899 0.0
C292 C 0.10763 0.44031 0.56023 0.0
C293 C 0.09451 0.36827 0.56225 0.0
C294 C 0.91956 0.48699 0.48416 0.0
C295 C 0.01462 0.46354 0.52446 0.0
C296 C 0.88031 0.53458 0.46428 0.0
C297 C 0.89397 0.60632 0.46148 0.0
C298 C 0.9727 0.51142 0.50131 0.0
C299 C 0.94844 0.62766 0.47705 0.0
C300 C 0.06781 0.48807 0.5414 0.0
C301 C 0.03986 0.34684 0.54734 0.0
N302 N 0.98562 0.58056 0.49654 0.0
N303 N 0.00211 0.39411 0.52873 0.0
H304 H 0.34172 0.08894 0.97415 0.0
H305 H 0.54918 0.93075 0.88431 0.0
H306 H 0.47557 0.18687 0.05671 0.0
H307 H 0.62893 0.9435 0.01155 0.0
H308 H 0.48518 0.02532 0.89724 0.0
H309 H 0.40886 0.04101 0.93375 0.0
C310 C 0.38494 0.10368 0.98227 0.0
C311 C 0.40367 0.14081 0.01886 0.0
C312 C 0.51704 0.00778 0.92211 0.0
C313 C 0.48026 0.08531 0.97402 0.0
C314 C 0.55356 0.95433 0.91476 0.0
C315 C 0.59368 0.92955 0.94717 0.0
C316 C 0.52163 0.03661 0.96197 0.0
C317 C 0.59791 0.96094 0.98607 0.0
C318 C 0.42336 0.07598 0.95942 0.0
C319 C 0.45997 0.1577 0.02875 0.0
N320 N 0.56223 0.01299 0.99242 0.0
N321 N 0.49662 0.12784 0.00723 0.0
H322 H 0.41088 0.30959 0.48639 0.0
H323 H 0.57231 0.67677 0.52654 0.0
H324 H 0.37691 0.46246 0.57676 0.0
H325 H 0.60883 0.52032 0.43901 0.0
H326 H 0.50073 0.59966 0.54504 0.0
H327 H 0.48146 0.38767 0.46763 0.0
C328 C 0.41803 0.35976 0.50235 0.0
C329 C 0.38799 0.3789 0.53373 0.0
C330 C 0.52436 0.58207 0.52181 0.0
C331 C 0.46965 0.46903 0.51209 0.0
C332 C 0.5655 0.62606 0.51116 0.0
C333 C 0.59667 0.60543 0.48075 0.0
C334 C 0.51396 0.5166 0.50201 0.0
C335 C 0.58585 0.5388 0.46234 0.0
C336 C 0.45864 0.40432 0.49156 0.0
C337 C 0.39913 0.44503 0.55274 0.0
N338 N 0.54527 0.49692 0.47315 0.0
N339 N 0.43924 0.48758 0.54175 0.0
H340 H 0.26095 0.14825 0.72396 0.0
H341 H 0.12438 0.25221 0.92141 0.0
H342 H 0.09887 0.24165 0.71572 0.0
H343 H 0.29834 0.21016 0.92506 0.0
H344 H 0.10744 0.22079 0.84782 0.0
H345 H 0.26647 0.13895 0.79895 0.0
C346 C 0.2255 0.16412 0.73761 0.0
C347 C 0.1795 0.1964 0.71341 0.0
C348 C 0.14922 0.21782 0.86488 0.0
C349 C 0.18628 0.1876 0.79956 0.0
C350 C 0.15895 0.23582 0.90691 0.0
C351 C 0.21303 0.23501 0.92944 0.0
C352 C 0.19374 0.19809 0.84522 0.0
C353 C 0.25608 0.21275 0.9089 0.0
C354 C 0.22909 0.15985 0.78062 0.0
C355 C 0.13524 0.2168 0.73318 0.0
N356 N 0.24556 0.19561 0.86804 0.0
N357 N 0.14007 0.21317 0.7751 0.0
H358 H 0.7287 0.70699 0.79143 0.0
H359 H 0.85908 0.86285 0.60303 0.0
H360 H 0.89903 0.77332 0.80103 0.0
H361 H 0.68536 0.81467 0.59664 0.0
H362 H 0.87602 0.8226 0.67453 0.0
H363 H 0.7157 0.72775 0.71707 0.0
C364 C 0.7641 0.72283 0.77766 0.0
C365 C 0.81496 0.73942 0.80238 0.0
C366 C 0.83411 0.82129 0.65759 0.0
C367 C 0.79966 0.76597 0.71787 0.0
C368 C 0.82427 0.84516 0.61692 0.0
C369 C 0.77077 0.84168 0.59369 0.0
C370 C 0.79018 0.79367 0.6752 0.0
C371 C 0.72727 0.81842 0.61336 0.0
C372 C 0.7563 0.73613 0.73528 0.0
C373 C 0.85911 0.76051 0.78293 0.0
N374 N 0.73804 0.79459 0.65294 0.0
N375 N 0.85016 0.77468 0.74185 0.0
H376 H 0.88319 0.72463 0.29799 0.0
H377 H 0.66068 0.72743 0.08874 0.0
H378 H 0.71313 0.78651 0.29508 0.0
H379 H 0.82904 0.65304 0.09907 0.0
H380 H 0.67769 0.75332 0.1633 0.0
H381 H 0.86463 0.70981 0.2231 0.0
C382 C 0.84234 0.73723 0.28134 0.0
C383 C 0.7999 0.7573 0.30278 0.0
C384 C 0.71069 0.73095 0.14915 0.0
C385 C 0.7774 0.73754 0.21701 0.0
C386 C 0.70079 0.7153 0.10672 0.0
C387 C 0.74352 0.68819 0.08751 0.0
C388 C 0.76367 0.71954 0.17231 0.0
C389 C 0.79489 0.67435 0.11233 0.0
C390 C 0.83143 0.72771 0.23862 0.0
C391 C 0.74735 0.77192 0.27973 0.0
N392 N 0.80352 0.69056 0.15318 0.0
N393 N 0.73737 0.76082 0.23809 0.0
H394 H 0.30581 0.15939 0.41586 0.0
H395 H 0.10669 0.19354 0.19839 0.0
H396 H 0.12874 0.1368 0.40731 0.0
H397 H 0.26618 0.29425 0.22814 0.0
H398 H 0.11186 0.16245 0.27215 0.0
H399 H 0.29216 0.19102 0.34275 0.0
C400 C 0.2641 0.15978 0.39854 0.0
C401 C 0.21838 0.14585 0.41806 0.0
C402 C 0.14502 0.19282 0.26253 0.0
C403 C 0.20238 0.18359 0.33418 0.0
C404 C 0.14156 0.21163 0.2207 0.0
C405 C 0.18554 0.24782 0.20754 0.0
C406 C 0.19333 0.20903 0.2907 0.0
C407 C 0.23098 0.26745 0.23728 0.0
C408 C 0.25627 0.17882 0.35684 0.0
C409 C 0.16525 0.14755 0.3937 0.0
N410 N 0.23405 0.24705 0.27724 0.0
N411 N 0.15865 0.16644 0.35306 0.0
loop_
_geom_bond_atom_site_label_1
_geom_bond_atom_site_label_2
_geom_bond_distance
_geom_bond_site_symmetry_2
_ccdc_geom_bond_type
C0 O27 1.312 . S
C0 O28 1.208 . S
C1 O22 1.331 . S
C1 O25 1.244 . S
C2 O24 1.264 . S
C2 O26 1.273 . S
Mg3 O5 1.932 1_565 S
Mg3 O12 2.081 . S
Mg3 O14 2.023 . S
Mg3 O18 2.031 . S
Mg3 O27 2.291 1_565 S
Mg4 O5 1.957 1_565 S
Mg4 O15 1.942 . S
Mg4 O16 1.955 . S
Mg4 O23 1.986 . S
O5 Mg3 1.932 1_545 S
O5 Mg4 1.957 1_545 S
O5 Mg6 1.930 . S
Mg6 O5 1.930 . S
Mg6 O7 1.915 . S
Mg6 O11 2.013 . S
Mg6 O17 2.114 . S
Mg6 O21 2.013 . S
Mg6 O27 2.114 . S
O7 Mg6 1.915 . S
O7 Mg8 1.936 . S
O7 Mg9 1.963 . S
Mg8 O7 1.936 . S
Mg8 O17 2.291 . S
Mg8 O22 2.081 . S
Mg8 O24 2.023 . S
Mg8 O28 2.031 . S
Mg9 O7 1.963 . S
Mg9 O13 1.986 . S
Mg9 O25 1.942 . S
Mg9 O26 1.955 . S
C10 O21 1.191 . S
C10 O23 1.307 1_545 S
O11 Mg6 2.013 . S
O11 C30 1.191 . S
O12 Mg3 2.081 . S
O12 C20 1.331 . S
O13 Mg9 1.986 . S
O13 C30 1.307 . S
O14 Mg3 2.023 . S
O14 C29 1.264 . S
O15 Mg4 1.942 . S
O15 C20 1.244 . S
O16 Mg4 1.955 . S
O16 C29 1.273 . S
O17 Mg6 2.114 . S
O17 Mg8 2.291 . S
O17 C19 1.312 . S
O18 Mg3 2.031 . S
O18 C19 1.208 1_565 S
C19 O17 1.312 . S
C19 O18 1.208 1_545 S
C20 O12 1.331 . S
C20 O15 1.244 . S
O21 Mg6 2.013 . S
O21 C10 1.191 . S
O22 C1 1.331 . S
O22 Mg8 2.081 . S
O23 Mg4 1.986 . S
O23 C10 1.307 1_565 S
O24 C2 1.264 . S
O24 Mg8 2.023 . S
O25 C1 1.244 . S
O25 Mg9 1.942 . S
O26 C2 1.273 . S
O26 Mg9 1.955 . S
O27 C0 1.312 . S
O27 Mg3 2.291 1_545 S
O27 Mg6 2.114 . S
O28 C0 1.208 . S
O28 Mg8 2.031 . S
C29 O14 1.264 . S
C29 O16 1.273 . S
C30 O11 1.191 . S
C30 O13 1.307 . S
C31 O58 1.312 . S
C31 O59 1.208 . S
C32 O53 1.331 . S
C32 O56 1.244 . S
C33 O55 1.264 . S
C33 O57 1.273 . S
Mg34 O36 1.936 . S
Mg34 O43 2.081 . S
Mg34 O45 2.023 . S
Mg34 O49 2.031 . S
Mg34 O58 2.291 . S
Mg35 O36 1.963 . S
Mg35 O46 1.942 . S
Mg35 O47 1.955 . S
Mg35 O54 1.986 . S
O36 Mg34 1.936 . S
O36 Mg35 1.963 . S
O36 Mg37 1.915 . S
Mg37 O36 1.915 . S
Mg37 O38 1.915 . S
Mg37 O42 2.013 . S
Mg37 O48 2.114 . S
Mg37 O52 2.013 . S
Mg37 O58 2.114 . S
O38 Mg37 1.915 . S
O38 Mg39 1.936 . S
O38 Mg40 1.963 . S
Mg39 O38 1.936 . S
Mg39 O48 2.291 . S
Mg39 O53 2.081 . S
Mg39 O55 2.023 . S
Mg39 O59 2.031 . S
Mg40 O38 1.963 . S
Mg40 O44 1.986 . S
Mg40 O56 1.942 . S
Mg40 O57 1.955 . S
C41 O52 1.191 . S
C41 O54 1.307 . S
O42 Mg37 2.013 . S
O42 C61 1.191 . S
O43 Mg34 2.081 . S
O43 C51 1.331 . S
O44 Mg40 1.986 . S
O44 C61 1.307 . S
O45 Mg34 2.023 . S
O45 C60 1.264 . S
O46 Mg35 1.942 . S
O46 C51 1.244 . S
O47 Mg35 1.955 . S
O47 C60 1.273 . S
O48 Mg37 2.114 . S
O48 Mg39 2.291 . S
O48 C50 1.312 . S
O49 Mg34 2.031 . S
O49 C50 1.208 . S
C50 O48 1.312 . S
C50 O49 1.208 . S
C51 O43 1.331 . S
C51 O46 1.244 . S
O52 Mg37 2.013 . S
O52 C41 1.191 . S
O53 C32 1.331 . S
O53 Mg39 2.081 . S
O54 Mg35 1.986 . S
O54 C41 1.307 . S
O55 C33 1.264 . S
O55 Mg39 2.023 . S
O56 C32 1.244 . S
O56 Mg40 1.942 . S
O57 C33 1.273 . S
O57 Mg40 1.955 . S
O58 C31 1.312 . S
O58 Mg34 2.291 . S
O58 Mg37 2.114 . S
O59 C31 1.208 . S
O59 Mg39 2.031 . S
C60 O45 1.264 . S
C60 O47 1.273 . S
C61 O42 1.191 . S
C61 O44 1.307 . S
C62 O89 1.312 . S
C62 O90 1.208 . S
C63 O84 1.329 1_554 S
C63 O87 1.244 1_554 S
C64 O86 1.264 . S
C64 O88 1.273 . S
Mg65 O67 1.936 1_545 S
Mg65 O74 2.081 . S
Mg65 O76 2.023 . S
Mg65 O80 2.031 1_545 S
Mg65 O89 2.291 1_545 S
Mg66 O67 1.963 1_545 S
Mg66 O77 1.942 . S
Mg66 O78 1.955 . S
Mg66 O85 1.986 1_545 S
O67 Mg65 1.936 1_565 S
O67 Mg66 1.963 1_565 S
O67 Mg68 1.915 . S
Mg68 O67 1.915 . S
Mg68 O69 1.915 . S
Mg68 O73 2.013 . S
Mg68 O79 2.114 . S
Mg68 O83 2.013 . S
Mg68 O89 2.114 . S
O69 Mg68 1.915 . S
O69 Mg70 1.936 . S
O69 Mg71 1.963 . S
Mg70 O69 1.936 . S
Mg70 O79 2.291 . S
Mg70 O84 2.087 . S
Mg70 O86 2.023 . S
Mg70 O90 2.031 . S
Mg71 O69 1.963 . S
Mg71 O75 1.986 . S
Mg71 O87 1.942 . S
Mg71 O88 1.955 . S
C72 O83 1.191 . S
C72 O85 1.307 . S
O73 Mg68 2.013 . S
O73 C92 1.191 . S
O74 Mg65 2.081 . S
O74 C82 1.331 . S
O75 Mg71 1.986 . S
O75 C92 1.307 . S
O76 Mg65 2.023 . S
O76 C91 1.264 . S
O77 Mg66 1.942 . S
O77 C82 1.244 . S
O78 Mg66 1.955 . S
O78 C91 1.273 . S
O79 Mg68 2.114 . S
O79 Mg70 2.291 . S
O79 C81 1.312 . S
O80 Mg65 2.031 1_565 S
O80 C81 1.208 . S
C81 O79 1.312 . S
C81 O80 1.208 . S
C82 O74 1.331 . S
C82 O77 1.244 . S
O83 Mg68 2.013 . S
O83 C72 1.191 . S
O84 C63 1.329 1_556 S
O84 Mg70 2.087 . S
O85 Mg66 1.986 1_565 S
O85 C72 1.307 . S
O86 C64 1.264 . S
O86 Mg70 2.023 . S
O87 C63 1.244 1_556 S
O87 Mg71 1.942 . S
O88 C64 1.273 . S
O88 Mg71 1.955 . S
O89 C62 1.312 . S
O89 Mg65 2.291 1_565 S
O89 Mg68 2.114 . S
O90 C62 1.208 . S
O90 Mg70 2.031 . S
C91 O76 1.264 . S
C91 O78 1.273 . S
C92 O73 1.191 . S
C92 O75 1.307 . S
C93 O120 1.312 . S
C93 O121 1.208 . S
C94 O115 1.331 . S
C94 O118 1.244 . S
C95 O117 1.264 . S
C95 O119 1.273 . S
Mg96 O98 1.936 . S
Mg96 O105 2.081 . S
Mg96 O107 2.023 . S
Mg96 O111 2.031 . S
Mg96 O120 2.291 . S
Mg97 O98 1.963 . S
Mg97 O108 1.942 . S
Mg97 O109 1.955 . S
Mg97 O116 1.986 . S
O98 Mg96 1.936 . S
O98 Mg97 1.963 . S
O98 Mg99 1.915 . S
Mg99 O98 1.915 . S
Mg99 O100 1.915 . S
Mg99 O104 2.013 . S
Mg99 O110 2.114 . S
Mg99 O114 2.013 . S
Mg99 O120 2.114 . S
O100 Mg99 1.915 . S
O100 Mg101 1.936 . S
O100 Mg102 1.963 . S
Mg101 O100 1.936 . S
Mg101 O110 2.291 . S
Mg101 O115 2.081 . S
Mg101 O117 2.023 . S
Mg101 O121 2.031 . S
Mg102 O100 1.963 . S
Mg102 O106 1.986 . S
Mg102 O118 1.942 . S
Mg102 O119 1.955 . S
C103 O114 1.191 . S
C103 O116 1.307 . S
O104 Mg99 2.013 . S
O104 C123 1.191 . S
O105 Mg96 2.081 . S
O105 C113 1.331 . S
O106 Mg102 1.986 . S
O106 C123 1.307 . S
O107 Mg96 2.023 . S
O107 C122 1.264 . S
O108 Mg97 1.942 . S
O108 C113 1.244 . S
O109 Mg97 1.955 . S
O109 C122 1.273 . S
O110 Mg99 2.114 . S
O110 Mg101 2.291 . S
O110 C112 1.312 . S
O111 Mg96 2.031 . S
O111 C112 1.208 . S
C112 O110 1.312 . S
C112 O111 1.208 . S
C113 O105 1.331 . S
C113 O108 1.244 . S
O114 Mg99 2.013 . S
O114 C103 1.191 . S
O115 C94 1.331 . S
O115 Mg101 2.081 . S
O116 Mg97 1.986 . S
O116 C103 1.307 . S
O117 C95 1.264 . S
O117 Mg101 2.023 . S
O118 C94 1.244 . S
O118 Mg102 1.942 . S
O119 C95 1.273 . S
O119 Mg102 1.955 . S
O120 C93 1.312 . S
O120 Mg96 2.291 . S
O120 Mg99 2.114 . S
O121 C93 1.208 . S
O121 Mg101 2.031 . S
C122 O107 1.264 . S
C122 O109 1.273 . S
C123 O104 1.191 . S
C123 O106 1.307 . S
H124 C130 0.930 . S
H125 C134 0.930 . S
H126 C139 0.929 . S
H127 C137 0.929 . S
H128 C132 0.929 . S
H129 C138 0.929 . S
C130 H124 0.930 . S
C130 C131 1.367 . S
C130 C138 1.378 . S
C131 C130 1.367 . S
C131 C139 1.433 . S
C132 H128 0.929 . S
C132 C134 1.378 . S
C132 C136 1.350 . S
C133 C136 1.463 . S
C133 C138 1.350 . S
C133 N141 1.427 . S
C134 H125 0.930 . S
C134 C132 1.378 . S
C134 C135 1.367 . S
C135 C134 1.367 . S
C135 C137 1.433 . S
C136 C132 1.350 . S
C136 C133 1.463 . S
C136 N140 1.427 . S
C137 H127 0.929 . S
C137 C135 1.433 . S
C137 N140 1.384 . S
C138 H129 0.929 . S
C138 C130 1.378 . S
C138 C133 1.350 . S
C139 H126 0.929 . S
C139 C131 1.433 . S
C139 N141 1.384 . S
N140 C136 1.427 . S
N140 C137 1.384 . S
N141 C133 1.427 . S
N141 C139 1.384 . S
H142 C148 0.930 . S
H143 C152 0.930 . S
H144 C157 0.929 . S
H145 C155 0.929 . S
H146 C150 0.929 . S
H147 C156 0.929 . S
C148 H142 0.930 . S
C148 C149 1.367 . S
C148 C156 1.378 1_565 S
C149 C148 1.367 . S
C149 C157 1.433 . S
C150 H146 0.929 . S
C150 C152 1.378 . S
C150 C154 1.350 . S
C151 C154 1.463 . S
C151 C156 1.350 . S
C151 N159 1.427 . S
C152 H143 0.930 . S
C152 C150 1.378 . S
C152 C153 1.367 . S
C153 C152 1.367 . S
C153 C155 1.433 . S
C154 C150 1.350 . S
C154 C151 1.463 . S
C154 N158 1.427 . S
C155 H145 0.929 . S
C155 C153 1.433 . S
C155 N158 1.384 . S
C156 H147 0.929 . S
C156 C148 1.378 1_545 S
C156 C151 1.350 . S
C157 H144 0.929 . S
C157 C149 1.433 . S
C157 N159 1.384 1_565 S
N158 C154 1.427 . S
N158 C155 1.384 . S
N159 C151 1.427 . S
N159 C157 1.384 1_545 S
H160 C166 0.930 . S
H161 C170 0.930 . S
H162 C175 0.929 . S
H163 C173 0.929 . S
H164 C168 0.929 . S
H165 C174 0.929 . S
C166 H160 0.930 . S
C166 C167 1.367 . S
C166 C174 1.378 . S
C167 C166 1.367 . S
C167 C175 1.433 . S
C168 H164 0.929 . S
C168 C170 1.378 . S
C168 C172 1.350 . S
C169 C172 1.463 . S
C169 C174 1.350 . S
C169 N177 1.427 . S
C170 H161 0.930 . S
C170 C168 1.378 . S
C170 C171 1.367 . S
C171 C170 1.367 . S
C171 C173 1.433 . S
C172 C168 1.350 . S
C172 C169 1.463 . S
C172 N176 1.427 . S
C173 H163 0.929 . S
C173 C171 1.433 . S
C173 N176 1.384 . S
C174 H165 0.929 . S
C174 C166 1.378 . S
C174 C169 1.350 . S
C175 H162 0.929 . S
C175 C167 1.433 . S
C175 N177 1.384 . S
N176 C172 1.427 . S
N176 C173 1.384 . S
N177 C169 1.427 . S
N177 C175 1.384 . S
H178 C184 0.930 . S
H179 C188 0.930 . S
H180 C193 0.929 . S
H181 C191 0.929 . S
H182 C186 0.929 . S
H183 C192 0.929 . S
C184 H178 0.930 . S
C184 C185 1.367 . S
C184 C192 1.378 1_545 S
C185 C184 1.367 . S
C185 C193 1.433 . S
C186 H182 0.929 . S
C186 C188 1.378 . S
C186 C190 1.350 . S
C187 C190 1.463 . S
C187 C192 1.350 . S
C187 N195 1.427 . S
C188 H179 0.930 . S
C188 C186 1.378 . S
C188 C189 1.367 . S
C189 C188 1.367 . S
C189 C191 1.433 . S
C190 C186 1.350 . S
C190 C187 1.463 . S
C190 N194 1.427 . S
C191 H181 0.929 . S
C191 C189 1.433 . S
C191 N194 1.384 . S
C192 H183 0.929 . S
C192 C184 1.378 1_565 S
C192 C187 1.350 . S
C193 H180 0.929 . S
C193 C185 1.433 . S
C193 N195 1.384 1_545 S
N194 C190 1.427 . S
N194 C191 1.384 . S
N195 C187 1.427 . S
N195 C193 1.384 1_565 S
H196 C202 0.930 . S
H197 C206 0.930 . S
H198 C211 0.929 . S
H199 C209 0.929 . S
H200 C204 0.929 . S
H201 C210 0.929 . S
C202 H196 0.930 . S
C202 C203 1.367 . S
C202 C210 1.378 . S
C203 C202 1.367 . S
C203 C211 1.433 . S
C204 H200 0.929 . S
C204 C206 1.378 . S
C204 C208 1.350 . S
C205 C208 1.463 . S
C205 C210 1.350 . S
C205 N213 1.427 . S
C206 H197 0.930 . S
C206 C204 1.378 . S
C206 C207 1.367 . S
C207 C206 1.367 . S
C207 C209 1.433 . S
C208 C204 1.350 . S
C208 C205 1.463 . S
C208 N212 1.427 . S
C209 H199 0.929 . S
C209 C207 1.433 . S
C209 N212 1.384 . S
C210 H201 0.929 . S
C210 C202 1.378 . S
C210 C205 1.350 . S
C211 H198 0.929 . S
C211 C203 1.433 . S
C211 N213 1.384 . S
N212 C208 1.427 . S
N212 C209 1.384 . S
N213 C205 1.427 . S
N213 C211 1.384 . S
H214 C220 0.930 . S
H215 C224 0.930 . S
H216 C229 0.929 . S
H217 C227 0.929 . S
H218 C222 0.929 . S
H219 C228 0.929 . S
C220 H214 0.930 . S
C220 C221 1.367 . S
C220 C228 1.378 . S
C221 C220 1.367 . S
C221 C229 1.433 . S
C222 H218 0.929 . S
C222 C224 1.378 . S
C222 C226 1.350 . S
C223 C226 1.463 . S
C223 C228 1.350 . S
C223 N231 1.427 . S
C224 H215 0.930 . S
C224 C222 1.378 . S
C224 C225 1.367 . S
C225 C224 1.367 . S
C225 C227 1.433 . S
C226 C222 1.350 . S
C226 C223 1.463 . S
C226 N230 1.427 . S
C227 H217 0.929 . S
C227 C225 1.433 . S
C227 N230 1.384 . S
C228 H219 0.929 . S
C228 C220 1.378 . S
C228 C223 1.350 . S
C229 H216 0.929 . S
C229 C221 1.433 . S
C229 N231 1.384 . S
N230 C226 1.427 . S
N230 C227 1.384 . S
N231 C223 1.427 . S
N231 C229 1.384 . S
H232 C238 0.930 . S
H233 C242 0.930 . S
H234 C247 0.929 . S
H235 C245 0.929 . S
H236 C240 0.929 . S
H237 C246 0.929 . S
C238 H232 0.930 . S
C238 C239 1.367 . S
C238 C246 1.378 . S
C239 C238 1.367 . S
C239 C247 1.433 . S
C240 H236 0.929 . S
C240 C242 1.378 . S
C240 C244 1.350 . S
C241 C244 1.463 . S
C241 C246 1.350 . S
C241 N249 1.427 . S
C242 H233 0.930 . S
C242 C240 1.378 . S
C242 C243 1.367 . S
C243 C242 1.367 . S
C243 C245 1.433 . S
C244 C240 1.350 . S
C244 C241 1.463 . S
C244 N248 1.427 . S
C245 H235 0.929 . S
C245 C243 1.433 . S
C245 N248 1.384 . S
C246 H237 0.929 . S
C246 C238 1.378 . S
C246 C241 1.350 . S
C247 H234 0.929 . S
C247 C239 1.433 . S
C247 N249 1.384 . S
N248 C244 1.427 . S
N248 C245 1.384 . S
N249 C241 1.427 . S
N249 C247 1.384 . S
H250 C256 0.930 . S
H251 C260 0.930 . S
H252 C265 0.929 . S
H253 C263 0.929 . S
H254 C258 0.929 . S
H255 C264 0.929 . S
C256 H250 0.930 . S
C256 C257 1.367 . S
C256 C264 1.378 . S
C257 C256 1.367 . S
C257 C265 1.433 . S
C258 H254 0.929 . S
C258 C260 1.378 . S
C258 C262 1.350 . S
C259 C262 1.463 . S
C259 C264 1.350 . S
C259 N267 1.427 . S
C260 H251 0.930 . S
C260 C258 1.378 . S
C260 C261 1.367 . S
C261 C260 1.367 . S
C261 C263 1.433 . S
C262 C258 1.350 . S
C262 C259 1.463 . S
C262 N266 1.427 . S
C263 H253 0.929 . S
C263 C261 1.433 . S
C263 N266 1.384 . S
C264 H255 0.929 . S
C264 C256 1.378 . S
C264 C259 1.350 . S
C265 H252 0.929 . S
C265 C257 1.433 . S
C265 N267 1.384 . S
N266 C262 1.427 . S
N266 C263 1.384 . S
N267 C259 1.427 . S
N267 C265 1.384 . S
H268 C274 0.930 . S
H269 C278 0.930 . S
H270 C283 0.929 . S
H271 C281 0.929 . S
H272 C276 0.929 . S
H273 C282 0.929 . S
C274 H268 0.930 . S
C274 C275 1.367 1_565 S
C274 C282 1.378 . S
C275 C274 1.367 1_545 S
C275 C283 1.433 . S
C276 H272 0.929 . S
C276 C278 1.378 . S
C276 C280 1.350 1_545 S
C277 C280 1.463 1_444 S
C277 C282 1.350 1_545 S
C277 N285 1.427 . S
C278 H269 0.930 . S
C278 C276 1.378 . S
C278 C279 1.367 1_545 S
C279 C278 1.367 1_565 S
C279 C281 1.433 . S
C280 C276 1.350 1_565 S
C280 C277 1.463 1_666 S
C280 N284 1.427 . S
C281 H271 0.929 . S
C281 C279 1.433 . S
C281 N284 1.384 . S
C282 H273 0.929 . S
C282 C274 1.378 . S
C282 C277 1.350 1_565 S
C283 H270 0.929 . S
C283 C275 1.433 . S
C283 N285 1.384 . S
N284 C280 1.427 . S
N284 C281 1.384 . S
N285 C277 1.427 . S
N285 C283 1.384 . S
H286 C292 0.930 . S
H287 C296 0.930 . S
H288 C301 0.929 . S
H289 C299 0.929 . S
H290 C294 0.929 . S
H291 C300 0.929 . S
C292 H286 0.930 . S
C292 C293 1.367 . S
C292 C300 1.378 . S
C293 C292 1.367 . S
C293 C301 1.433 . S
C294 H290 0.929 . S
C294 C296 1.378 . S
C294 C298 1.350 . S
C295 C298 1.463 1_455 S
C295 C300 1.350 . S
C295 N303 1.427 . S
C296 H287 0.930 . S
C296 C294 1.378 . S
C296 C297 1.367 . S
C297 C296 1.367 . S
C297 C299 1.433 . S
C298 C294 1.350 . S
C298 C295 1.463 1_655 S
C298 N302 1.427 . S
C299 H289 0.929 . S
C299 C297 1.433 . S
C299 N302 1.384 . S
C300 H291 0.929 . S
C300 C292 1.378 . S
C300 C295 1.350 . S
C301 H288 0.929 . S
C301 C293 1.433 . S
C301 N303 1.384 . S
N302 C298 1.427 . S
N302 C299 1.384 . S
N303 C295 1.427 . S
N303 C301 1.384 . S
H304 C310 0.930 . S
H305 C314 0.930 . S
H306 C319 0.929 . S
H307 C317 0.929 . S
H308 C312 0.929 . S
H309 C318 0.929 . S
C310 H304 0.930 . S
C310 C311 1.367 1_565 S
C310 C318 1.378 . S
C311 C310 1.367 1_545 S
C311 C319 1.433 1_554 S
C312 H308 0.929 . S
C312 C314 1.378 . S
C312 C316 1.350 1_545 S
C313 C316 1.463 1_544 S
C313 C318 1.350 1_545 S
C313 N321 1.427 1_554 S
C314 H305 0.930 . S
C314 C312 1.378 . S
C314 C315 1.367 1_545 S
C315 C314 1.367 1_565 S
C315 C317 1.433 1_556 S
C316 C312 1.350 1_565 S
C316 C313 1.463 1_566 S
C316 N320 1.427 1_556 S
C317 H307 0.929 . S
C317 C315 1.433 1_554 S
C317 N320 1.384 . S
C318 H309 0.929 . S
C318 C310 1.378 . S
C318 C313 1.350 1_565 S
C319 H306 0.929 . S
C319 C311 1.433 1_556 S
C319 N321 1.384 . S
N320 C316 1.427 1_554 S
N320 C317 1.384 . S
N321 C313 1.427 1_556 S
N321 C319 1.384 . S
H322 C328 0.930 . S
H323 C332 0.930 . S
H324 C337 0.929 . S
H325 C335 0.929 . S
H326 C330 0.929 . S
H327 C336 0.929 . S
C328 H322 0.930 . S
C328 C329 1.367 . S
C328 C336 1.378 . S
C329 C328 1.367 . S
C329 C337 1.433 . S
C330 H326 0.929 . S
C330 C332 1.378 . S
C330 C334 1.350 . S
C331 C334 1.463 . S
C331 C336 1.350 . S
C331 N339 1.427 . S
C332 H323 0.930 . S
C332 C330 1.378 . S
C332 C333 1.367 . S
C333 C332 1.367 . S
C333 C335 1.433 . S
C334 C330 1.350 . S
C334 C331 1.463 . S
C334 N338 1.427 . S
C335 H325 0.929 . S
C335 C333 1.433 . S
C335 N338 1.384 . S
C336 H327 0.929 . S
C336 C328 1.378 . S
C336 C331 1.350 . S
C337 H324 0.929 . S
C337 C329 1.433 . S
C337 N339 1.384 . S
N338 C334 1.427 . S
N338 C335 1.384 . S
N339 C331 1.427 . S
N339 C337 1.384 . S
H340 C346 0.930 . S
H341 C350 0.930 . S
H342 C355 0.929 . S
H343 C353 0.929 . S
H344 C348 0.929 . S
H345 C354 0.929 . S
C346 H340 0.930 . S
C346 C347 1.367 . S
C346 C354 1.378 . S
C347 C346 1.367 . S
C347 C355 1.433 . S
C348 H344 0.929 . S
C348 C350 1.378 . S
C348 C352 1.350 . S
C349 C352 1.463 . S
C349 C354 1.350 . S
C349 N357 1.427 . S
C350 H341 0.930 . S
C350 C348 1.378 . S
C350 C351 1.367 . S
C351 C350 1.367 . S
C351 C353 1.433 . S
C352 C348 1.350 . S
C352 C349 1.463 . S
C352 N356 1.427 . S
C353 H343 0.929 . S
C353 C351 1.433 . S
C353 N356 1.384 . S
C354 H345 0.929 . S
C354 C346 1.378 . S
C354 C349 1.350 . S
C355 H342 0.929 . S
C355 C347 1.433 . S
C355 N357 1.384 . S
N356 C352 1.427 . S
N356 C353 1.384 . S
N357 C349 1.427 . S
N357 C355 1.384 . S
H358 C364 0.930 . S
H359 C368 0.930 . S
H360 C373 0.929 . S
H361 C371 0.929 . S
H362 C366 0.929 . S
H363 C372 0.929 . S
C364 H358 0.930 . S
C364 C365 1.367 . S
C364 C372 1.378 . S
C365 C364 1.367 . S
C365 C373 1.433 . S
C366 H362 0.929 . S
C366 C368 1.378 . S
C366 C370 1.350 . S
C367 C370 1.463 . S
C367 C372 1.350 . S
C367 N375 1.427 . S
C368 H359 0.930 . S
C368 C366 1.378 . S
C368 C369 1.367 . S
C369 C368 1.367 . S
C369 C371 1.433 . S
C370 C366 1.350 . S
C370 C367 1.463 . S
C370 N374 1.427 . S
C371 H361 0.929 . S
C371 C369 1.433 . S
C371 N374 1.384 . S
C372 H363 0.929 . S
C372 C364 1.378 . S
C372 C367 1.350 . S
C373 H360 0.929 . S
C373 C365 1.433 . S
C373 N375 1.384 . S
N374 C370 1.427 . S
N374 C371 1.384 . S
N375 C367 1.427 . S
N375 C373 1.384 . S
H376 C382 0.930 . S
H377 C386 0.930 . S
H378 C391 0.929 . S
H379 C389 0.929 . S
H380 C384 0.929 . S
H381 C390 0.929 . S
C382 H376 0.930 . S
C382 C383 1.367 . S
C382 C390 1.378 . S
C383 C382 1.367 . S
C383 C391 1.433 . S
C384 H380 0.929 . S
C384 C386 1.378 . S
C384 C388 1.350 . S
C385 C388 1.463 . S
C385 C390 1.350 . S
C385 N393 1.427 . S
C386 H377 0.930 . S
C386 C384 1.378 . S
C386 C387 1.367 . S
C387 C386 1.367 . S
C387 C389 1.433 . S
C388 C384 1.350 . S
C388 C385 1.463 . S
C388 N392 1.427 . S
C389 H379 0.929 . S
C389 C387 1.433 . S
C389 N392 1.384 . S
C390 H381 0.929 . S
C390 C382 1.378 . S
C390 C385 1.350 . S
C391 H378 0.929 . S
C391 C383 1.433 . S
C391 N393 1.384 . S
N392 C388 1.427 . S
N392 C389 1.384 . S
N393 C385 1.427 . S
N393 C391 1.384 . S
H394 C400 0.930 . S
H395 C404 0.930 . S
H396 C409 0.929 . S
H397 C407 0.929 . S
H398 C402 0.929 . S
H399 C408 0.929 . S
C400 H394 0.930 . S
C400 C401 1.367 . S
C400 C408 1.378 . S
C401 C400 1.367 . S
C401 C409 1.433 . S
C402 H398 0.929 . S
C402 C404 1.378 . S
C402 C406 1.350 . S
C403 C406 1.463 . S
C403 C408 1.350 . S
C403 N411 1.427 . S
C404 H395 0.930 . S
C404 C402 1.378 . S
C404 C405 1.367 . S
C405 C404 1.367 . S
C405 C407 1.433 . S
C406 C402 1.350 . S
C406 C403 1.463 . S
C406 N410 1.427 . S
C407 H397 0.929 . S
C407 C405 1.433 . S
C407 N410 1.384 . S
C408 H399 0.929 . S
C408 C400 1.378 . S
C408 C403 1.350 . S
C409 H396 0.929 . S
C409 C401 1.433 . S
C409 N411 1.384 . S
N410 C406 1.427 . S
N410 C407 1.384 . S
N411 C403 1.427 . S
N411 C409 1.384 . S
C131 C1 1.100 . S
C135 C20 1.109 . S
C149 C33 1.636 . S
C153 C60 1.641 . S
C167 C64 1.638 . S
C171 C91 1.644 . S
C185 C122 1.623 . S
C189 C95 1.631 . S
C203 C50 1.211 . S
C207 C29 1.074 . S
C221 C51 0.941 . S
C225 C30 0.974 . S
C239 C93 1.052 . S
C243 C82 0.976 . S
C257 C81 1.075 . S
C261 C94 0.993 . S
C275 C19 1.221 . S
C279 C92 1.204 . S
C293 C103 1.179 . S
C297 C61 1.179 . S
C311 C10 1.011 . S
C315 C62 1.025 . S
C329 C112 1.072 . S
C333 C31 1.073 . S
C347 C123 1.947 . S
C351 C2 2.014 1_556 S
C365 C72 1.746 . S
C369 C32 1.838 . S
C383 C41 1.727 . S
C387 C63 1.794 . S
C401 C113 1.937 . S
C405 C0 1.953 . S
