# Generated by pormake.
# Topology smc, (6)-cn, num edge types: 1
# Building blocks:
#     Node 0, Type 0, BuildingBlock: PAMTUU_clean_sbu_0, # of connection points: 6
#     Node 1, Type 0, BuildingBlock: PAMTUU_clean_sbu_0, # of connection points: 6
#     Node 2, Type 0, BuildingBlock: PAMTUU_clean_sbu_0, # of connection points: 6
#     Node 3, Type 0, BuildingBlock: PAMTUU_clean_sbu_0, # of connection points: 6
#     Node 4, Type 0, BuildingBlock: PAMTUU_clean_sbu_0, # of connection points: 6
#     Node 5, Type 0, BuildingBlock: PAMTUU_clean_sbu_0, # of connection points: 6
#     Node 6, Type 0, BuildingBlock: PAMTUU_clean_sbu_0, # of connection points: 6
#     Node 7, Type 0, BuildingBlock: PAMTUU_clean_sbu_0, # of connection points: 6
#     Node 8, Type 0, BuildingBlock: PAMTUU_clean_sbu_0, # of connection points: 6
#     Edge 9, Type (0, 0), BuildingBlock: AJUNOK_clean_linker_0, # of connection points: 2
#     Edge 10, Type (0, 0), BuildingBlock: AJUNOK_clean_linker_0, # of connection points: 2
#     Edge 11, Type (0, 0), BuildingBlock: AJUNOK_clean_linker_0, # of connection points: 2
#     Edge 12, Type (0, 0), BuildingBlock: AJUNOK_clean_linker_0, # of connection points: 2
#     Edge 13, Type (0, 0), BuildingBlock: AJUNOK_clean_linker_0, # of connection points: 2
#     Edge 14, Type (0, 0), BuildingBlock: AJUNOK_clean_linker_0, # of connection points: 2
#     Edge 15, Type (0, 0), BuildingBlock: AJUNOK_clean_linker_0, # of connection points: 2
#     Edge 16, Type (0, 0), BuildingBlock: AJUNOK_clean_linker_0, # of connection points: 2
#     Edge 17, Type (0, 0), BuildingBlock: AJUNOK_clean_linker_0, # of connection points: 2
#     Edge 18, Type (0, 0), BuildingBlock: AJUNOK_clean_linker_0, # of connection points: 2
#     Edge 19, Type (0, 0), BuildingBlock: AJUNOK_clean_linker_0, # of connection points: 2
#     Edge 20, Type (0, 0), BuildingBlock: AJUNOK_clean_linker_0, # of connection points: 2
#     Edge 21, Type (0, 0), BuildingBlock: AJUNOK_clean_linker_0, # of connection points: 2
#     Edge 22, Type (0, 0), BuildingBlock: AJUNOK_clean_linker_0, # of connection points: 2
#     Edge 23, Type (0, 0), BuildingBlock: AJUNOK_clean_linker_0, # of connection points: 2
#     Edge 24, Type (0, 0), BuildingBlock: AJUNOK_clean_linker_0, # of connection points: 2
#     Edge 25, Type (0, 0), BuildingBlock: AJUNOK_clean_linker_0, # of connection points: 2
#     Edge 26, Type (0, 0), BuildingBlock: AJUNOK_clean_linker_0, # of connection points: 2
#     Edge 27, Type (0, 0), BuildingBlock: AJUNOK_clean_linker_0, # of connection points: 2
#     Edge 28, Type (0, 0), BuildingBlock: AJUNOK_clean_linker_0, # of connection points: 2
#     Edge 29, Type (0, 0), BuildingBlock: AJUNOK_clean_linker_0, # of connection points: 2
#     Edge 30, Type (0, 0), BuildingBlock: AJUNOK_clean_linker_0, # of connection points: 2
#     Edge 31, Type (0, 0), BuildingBlock: AJUNOK_clean_linker_0, # of connection points: 2
#     Edge 32, Type (0, 0), BuildingBlock: AJUNOK_clean_linker_0, # of connection points: 2
#     Edge 33, Type (0, 0), BuildingBlock: AJUNOK_clean_linker_0, # of connection points: 2
#     Edge 34, Type (0, 0), BuildingBlock: AJUNOK_clean_linker_0, # of connection points: 2
#     Edge 35, Type (0, 0), BuildingBlock: AJUNOK_clean_linker_0, # of connection points: 2
# Relax obj value: 0.406
# Max RMSD: 0.387
# Mean RMSD: 0.338
data_MOF--net-smc--node1-PAMTUU_clean_sbu_0--edge1-AJUNOK_clean_linker_0
_symmetry_space_group_name_H-M    P1
_symmetry_Int_Tables_number       1
_symmetry_cell_setting            triclinic
loop_
_symmetry_equiv_pos_as_xyz
'x, y, z'
_cell_length_a     34.387981
_cell_length_b     23.723772
_cell_length_c     28.32254
_cell_angle_alpha  91.658217
_cell_angle_beta   89.708455
_cell_angle_gamma 118.16139
loop_
_atom_site_label
_atom_site_type_symbol
_atom_site_fract_x
_atom_site_fract_y
_atom_site_fract_z
_atom_type_partial_charge
Tb0 Tb 0.09508 0.42594 1.01686 0.0
Tb1 Tb 1.06484 0.52039 0.06019 0.0
C2 C 1.04368 0.47126 0.95372 0.0
C3 C 0.16252 0.3566 0.98934 0.0
C4 C 0.2523 0.44131 0.99382 0.0
C5 C 0.23176 0.41615 0.94997 0.0
C6 C 0.18722 0.3727 0.94777 0.0
C7 C 0.18441 0.37544 0.03343 0.0
C8 C 0.22927 0.41789 0.03554 0.0
C9 C 0.11732 0.34615 0.98601 0.0
O10 O 0.1565 0.5172 1.01648 0.0
O11 O 0.12691 0.58572 0.02896 0.0
O12 O 0.11724 0.53516 0.10962 0.0
O13 O 0.11923 0.44207 0.09052 0.0
O14 O 1.04355 0.58938 0.05314 0.0
O15 O 1.04115 0.54657 0.12068 0.0
O16 O 1.02646 0.42759 0.09074 0.0
O17 O 1.02372 0.37471 0.02394 0.0
O18 O 1.08 0.46672 0.95654 0.0
O19 O 1.02678 0.48054 0.99306 0.0
C20 C 0.16035 0.57531 0.01881 0.0
O21 O 0.09653 0.3393 0.02589 0.0
O22 O 0.11368 0.38744 0.95945 0.0
C23 C 0.13039 0.49287 0.11851 0.0
C24 C 0.97607 0.53861 0.09248 0.0
C25 C 0.88649 0.4907 0.08594 0.0
C26 C 0.90594 0.50076 0.13092 0.0
C27 C 0.95182 0.52965 0.13398 0.0
C28 C 0.95377 0.50687 0.05035 0.0
C29 C 0.90803 0.4787 0.04809 0.0
C30 C 1.02403 0.57301 0.09402 0.0
C31 C 1.00434 0.37878 0.06252 0.0
H32 H 0.24954 0.43308 0.91731 0.0
H33 H 0.17104 0.35897 0.91346 0.0
H34 H 0.16634 0.3631 0.06624 0.0
H35 H 0.24553 0.43441 0.06948 0.0
H36 H 0.88796 0.50263 0.16193 0.0
H37 H 0.96818 0.54816 0.16777 0.0
H38 H 0.97119 0.50911 0.01814 0.0
H39 H 0.89212 0.46454 1.01368 0.0
Tb40 Tb 0.67736 0.6929 1.01739 0.0
Tb41 Tb 0.60559 0.64659 0.98514 0.0
C42 C 0.62527 0.66338 0.09818 0.0
C43 C 0.79755 0.75215 0.04473 0.0
C44 C 0.85015 0.69966 0.07137 0.0
C45 C 0.83069 0.72084 0.10635 0.0
C46 C 0.80393 0.74706 0.09293 0.0
C47 C 0.82348 0.74138 1.01098 0.0
C48 C 0.84971 0.71515 0.02424 0.0
C49 C 0.75981 0.75729 0.0273 0.0
O50 O 0.65777 0.58354 0.02433 0.0
O51 O 0.58762 0.54774 1.0031 0.0
O52 O 0.6683 0.67525 0.94019 0.0
O53 O 0.66879 0.67739 0.94012 0.0
O54 O 0.54615 0.57326 0.95836 0.0
O55 O 0.57855 0.66715 0.92603 0.0
O56 O 0.58857 0.72158 1.00382 0.0
O57 O 0.65933 0.77852 0.02121 0.0
O58 O 0.65544 0.65042 0.08342 0.0
O59 O 0.60184 0.67081 0.06389 0.0
C60 C 0.61744 0.53229 1.01675 0.0
O61 O 0.73959 0.71726 0.99256 0.0
O62 O 0.73213 0.76107 0.05721 0.0
C63 C 0.69182 0.72896 0.91578 0.0
C64 C 0.50522 0.62667 0.94768 0.0
C65 C 0.43101 0.63439 0.9774 0.0
C66 C 0.44506 0.64788 0.93042 0.0
C67 C 0.48187 0.64263 0.91526 0.0
C68 C 0.49564 0.62544 0.99615 0.0
C69 C 0.45933 0.63136 1.01114 0.0
C70 C 0.54141 0.61503 0.93291 0.0
C71 C 0.61998 0.77775 1.01504 0.0
H72 H 0.83204 0.71034 0.14309 0.0
H73 H 0.78515 0.75711 0.11957 0.0
H74 H 0.81919 0.74514 0.97358 0.0
H75 H 0.86461 0.69912 0.99673 0.0
H76 H 0.42348 0.6511 0.90411 0.0
H77 H 0.4902 0.64665 0.87815 0.0
H78 H 0.51459 0.61596 0.02225 0.0
H79 H 0.44924 0.62171 0.04764 0.0
Tb80 Tb 0.50797 1.07586 0.03171 0.0
Tb81 Tb 0.59192 0.14193 0.0455 0.0
C82 C 0.5475 0.1168 0.94321 0.0
C83 C 0.3919 0.94255 0.02195 0.0
C84 C 0.3235 0.81492 1.01052 0.0
C85 C 0.32201 0.86449 0.98595 0.0
C86 C 0.35583 0.92777 0.99176 0.0
C87 C 0.39439 0.89209 0.04447 0.0
C88 C 0.36032 0.82912 0.03918 0.0
C89 C 0.42443 1.01053 0.03286 0.0
O90 O 0.52604 0.99203 0.0263 0.0
O91 O 0.59778 1.05358 0.04131 0.0
O92 O 0.53812 0.10411 0.10372 0.0
O93 O 0.5376 0.10081 0.10305 0.0
O94 O 0.65326 0.17564 1.01559 0.0
O95 O 0.64702 0.18937 0.09252 0.0
O96 O 0.59197 0.23202 0.05845 0.0
O97 O 0.52461 0.18578 0.02463 0.0
O98 O 0.52799 1.06255 0.96307 0.0
O99 O 0.57548 0.16249 0.97201 0.0
C100 C 0.56624 0.996 0.03199 0.0
O101 O 0.45002 1.02104 0.06916 0.0
O102 O 0.44615 1.04625 0.99794 0.0
C103 C 0.52262 1.05162 0.13049 0.0
C104 C 0.72175 0.22939 0.05843 0.0
C105 C 0.81441 0.28228 0.06179 0.0
C106 C 0.79155 0.29304 0.09949 0.0
C107 C 0.74547 0.26608 0.09805 0.0
C108 C 0.74474 0.22145 0.0199 0.0
C109 C 0.79035 0.24713 0.02168 0.0
C110 C 0.67327 0.19856 0.05628 0.0
C111 C 0.56084 0.24083 0.03996 0.0
H112 H 0.29361 0.85472 0.96413 0.0
H113 H 0.35299 0.96552 0.974 0.0
H114 H 0.42185 0.90144 0.06762 0.0
H115 H 0.36198 0.79185 0.05887 0.0
H116 H 0.80915 0.32212 0.13012 0.0
H117 H 0.72848 0.27383 0.12781 0.0
H118 H 0.72742 0.19391 0.98855 0.0
H119 H 0.80655 0.23767 0.99194 0.0
Tb120 Tb 0.78187 0.78428 0.3502 0.0
Tb121 Tb 0.71603 0.8573 0.38426 0.0
C122 C 0.71359 0.78503 0.27687 0.0
C123 C 0.91498 0.82262 0.34113 0.0
C124 C 1.01545 0.8709 0.33428 0.0
C125 C 0.98227 0.81575 0.30876 0.0
C126 C 0.93471 0.79275 0.31214 0.0
C127 C 0.94805 0.87776 0.36661 0.0
C128 C 0.99561 0.90105 0.36299 0.0
C129 C 0.86214 0.79444 0.34897 0.0
O130 O 0.79756 0.87783 0.32624 0.0
O131 O 0.78276 0.93177 0.38388 0.0
O132 O 0.76278 0.86557 0.44375 0.0
O133 O 0.76639 0.77369 0.42432 0.0
O134 O 0.69597 0.92532 0.36494 0.0
O135 O 0.66855 0.86913 0.4265 0.0
O136 O 0.68037 0.7613 0.40749 0.0
O137 O 0.70627 0.70789 0.35679 0.0
O138 O 0.74558 0.7695 0.28416 0.0
O139 O 0.70191 0.81744 0.30876 0.0
C140 C 0.81059 0.92694 0.35514 0.0
O141 O 0.8481 0.82705 0.37562 0.0
O142 O 0.82852 0.75168 0.32282 0.0
C143 C 0.77654 0.82277 0.45325 0.0
C144 C 0.6257 0.91748 0.39203 0.0
C145 C 0.5527 0.94592 0.38162 0.0
C146 C 0.56576 0.93515 0.42621 0.0
C147 C 0.60167 0.92192 0.43132 0.0
C148 C 0.61187 0.92653 0.34716 0.0
C149 C 0.57617 0.94052 0.3421 0.0
C150 C 0.66808 0.91277 0.3996 0.0
C151 C 0.67217 0.71152 0.38037 0.0
H152 H 0.99282 0.78944 0.28484 0.0
H153 H 0.91306 0.75017 0.29168 0.0
H154 H 0.93722 0.90318 0.39106 0.0
H155 H 1.01708 0.94283 0.38431 0.0
H156 H 0.54874 0.93848 0.45759 0.0
H157 H 0.6114 0.91671 0.46656 0.0
H158 H 0.62923 0.92407 0.31582 0.0
H159 H 0.56685 0.94711 0.30704 0.0
Tb160 Tb 0.3331 1.04803 0.3171 0.0
Tb161 Tb 0.29558 0.91494 0.34022 0.0
C162 C 0.35773 0.97068 0.24849 0.0
C163 C 0.36944 0.2175 0.30405 0.0
C164 C 0.30229 0.2491 0.30359 0.0
C165 C 0.32841 0.25891 0.2633 0.0
C166 C 0.36383 0.2466 0.2645 0.0
C167 C 0.34881 0.21844 0.34661 0.0
C168 C 0.3149 0.23404 0.34634 0.0
C169 C 0.37497 0.16216 0.29363 0.0
O170 O 0.25742 1.01899 0.32362 0.0
O171 O 0.23206 0.91256 0.32207 0.0
O172 O 0.30624 0.96176 0.41206 0.0
O173 O 0.3262 1.06337 0.39091 0.0
O174 O 0.27389 0.82312 0.30985 0.0
O175 O 0.265 0.83738 0.38505 0.0
O176 O 0.35828 0.94083 0.37377 0.0
O177 O 0.39234 1.03357 0.33577 0.0
O178 O 0.33925 1.00749 0.24949 0.0
O179 O 0.34566 0.92916 0.28265 0.0
C180 C 0.22206 0.95964 0.32345 0.0
O181 O 0.38637 0.13933 0.32911 0.0
O182 O 0.34184 0.11771 0.26942 0.0
C183 C 0.31973 1.02268 0.42372 0.0
C184 C 0.31117 0.79398 0.36477 0.0
C185 C 0.36229 0.7398 0.38475 0.0
C186 C 0.35594 0.7763 0.42124 0.0
C187 C 0.32306 0.79355 0.41228 0.0
C188 C 0.3406 0.79379 0.32958 0.0
C189 C 0.36972 0.77008 0.34129 0.0
C190 C 0.27401 0.80467 0.35297 0.0
C191 C 0.39504 0.98913 0.36104 0.0
H192 H 0.31946 0.27078 0.22986 0.0
H193 H 0.38034 0.24697 0.23169 0.0
H194 H 0.35355 0.19738 0.37782 0.0
H195 H 0.29645 0.22937 0.37844 0.0
H196 H 0.36378 0.77245 0.4576 0.0
H197 H 0.30682 0.80422 0.44139 0.0
H198 H 0.33787 0.80424 0.29315 0.0
H199 H 0.38695 0.75915 0.31337 0.0
Tb200 Tb 0.13237 0.40274 0.37214 0.0
Tb201 Tb 0.24015 0.45842 0.40045 0.0
C202 C 0.19733 0.46149 0.29658 0.0
C203 C 1.02342 0.28659 0.35089 0.0
C204 C 0.97211 0.15486 0.33718 0.0
C205 C 0.9865 0.19417 0.29806 0.0
C206 C 1.0115 0.25996 0.30493 0.0
C207 C 1.01285 0.24602 0.38942 0.0
C208 C 0.98744 0.18054 0.38256 0.0
C209 C 1.05208 0.35541 0.3579 0.0
O210 O 0.14893 0.33109 0.34323 0.0
O211 O 0.21757 0.36084 0.37831 0.0
O212 O 0.19723 0.4293 0.46673 0.0
O213 O 0.13744 0.34976 0.42967 0.0
O214 O 0.30332 0.53544 0.38661 0.0
O215 O 0.29817 0.46476 0.43497 0.0
O216 O 0.20347 0.49643 0.43934 0.0
O217 O 0.16491 0.50717 0.38242 0.0
O218 O 0.16288 0.40889 0.30655 0.0
O219 O 0.22902 0.49201 0.32925 0.0
C220 C 0.18331 0.32248 0.3519 0.0
O221 O 1.0696 0.37428 0.4001 0.0
O222 O 1.08068 0.3818 0.3245 0.0
C223 C 0.1566 0.37884 0.46885 0.0
C224 C 0.37474 0.53744 0.40449 0.0
C225 C 0.47112 0.58707 0.39016 0.0
C226 C 0.45047 0.56589 0.43446 0.0
C227 C 0.40405 0.54225 0.44137 0.0
C228 C 0.3951 0.55888 0.36015 0.0
C229 C 0.44159 0.58239 0.35314 0.0
C230 C 0.32538 0.51799 0.4147 0.0
C231 C 0.1943 0.53462 0.4161 0.0
H232 H 0.97542 0.17451 0.2627 0.0
H233 H 1.02086 0.28998 0.27441 0.0
H234 H 1.02321 0.26472 0.42511 0.0
H235 H 0.97681 0.15073 0.4132 0.0
H236 H 0.47051 0.56888 0.46473 0.0
H237 H 0.3911 0.5287 0.47653 0.0
H238 H 0.37504 0.55795 0.33047 0.0
H239 H 0.45417 0.59637 0.31796 0.0
Tb240 Tb 0.42089 0.08432 0.69911 0.0
Tb241 Tb 0.40122 0.20155 0.71554 0.0
C242 C 0.384 0.12347 0.61599 0.0
C243 C 0.4962 1.02815 0.69369 0.0
C244 C 0.58326 0.12142 0.67933 0.0
C245 C 0.55789 0.08217 0.64146 0.0
C246 C 0.51497 1.035 0.64872 0.0
C247 C 0.5232 1.06391 0.73235 0.0
C248 C 0.56637 0.11086 0.72505 0.0
C249 C 0.44837 1.0046 0.69646 0.0
O250 O 0.48521 0.17296 0.69797 0.0
O251 O 0.46155 0.24432 0.67707 0.0
O252 O 0.44814 0.20678 0.77246 0.0
O253 O 0.41197 0.10079 0.77258 0.0
O254 O 0.39341 0.27845 0.69064 0.0
O255 O 0.38067 0.25158 0.76333 0.0
O256 O 0.3446 0.11754 0.74128 0.0
O257 O 0.34899 1.04053 0.6948 0.0
O258 O 0.41375 0.10717 0.628 0.0
O259 O 0.36987 0.15261 0.64691 0.0
C260 C 0.49311 0.22923 0.68208 0.0
O261 O 0.43481 1.01977 0.73544 0.0
O262 O 0.43106 1.01626 0.65958 0.0
C263 C 0.44083 0.1537 0.79329 0.0
C264 C 0.32573 0.26173 0.72288 0.0
C265 C 0.23426 0.1909 0.73028 0.0
C266 C 0.25676 0.24558 0.76259 0.0
C267 C 0.30387 0.28183 0.75587 0.0
C268 C 0.30118 0.21201 0.69029 0.0
C269 C 0.25589 0.17783 0.69346 0.0
C270 C 0.3728 0.28036 0.72899 0.0
C271 C 0.32581 1.06149 0.71963 0.0
H272 H 0.57076 0.08971 0.60587 0.0
H273 H 0.49505 1.00863 0.61826 0.0
H274 H 0.50991 1.05984 0.76761 0.0
H275 H 0.58609 0.13995 0.75476 0.0
H276 H 0.20365 0.25904 0.81707 0.0
H277 H 0.32424 0.32356 0.77786 0.0
H278 H 0.31715 0.19741 0.66327 0.0
H279 H 0.23752 0.14067 0.66746 0.0
Tb280 Tb 1.01286 0.35716 0.69064 0.0
Tb281 Tb 0.93153 0.30522 0.66795 0.0
C282 C 0.96213 0.3476 0.77518 0.0
C283 C 0.13473 0.40267 0.68868 0.0
C284 C 0.18324 0.33604 0.69445 0.0
C285 C 0.18731 0.38128 0.73013 0.0
C286 C 0.16328 0.41458 0.72705 0.0
C287 C 0.13805 0.36882 0.64904 0.0
C288 C 0.16367 0.33769 0.65117 0.0
C289 C 0.09679 0.41415 0.69595 0.0
O290 O 0.99263 0.24711 0.68681 0.0
O291 O 0.91986 0.21175 0.6916 0.0
O292 O 0.9903 0.33466 0.61808 0.0
O293 O 0.99079 0.33422 0.61715 0.0
O294 O 0.86676 0.23582 0.65322 0.0
O295 O 0.90309 0.314 0.60521 0.0
O296 O 0.92354 0.38919 0.68264 0.0
O297 O 0.99661 0.44474 0.69382 0.0
O298 O 0.99002 0.32969 0.76032 0.0
O299 O 0.93317 0.34415 0.74302 0.0
C300 C 0.95166 0.1966 0.69071 0.0
O301 O 1.07472 0.41639 0.65961 0.0
O302 O 1.07043 0.38001 0.72868 0.0
C303 C 1.00201 0.29591 0.59376 0.0
C304 C 0.83272 0.29416 0.62678 0.0
C305 C 0.76014 0.31244 0.64275 0.0
C306 C 0.77664 0.31731 0.59668 0.0
C307 C 0.8125 0.30616 0.58851 0.0
C308 C 0.82263 0.30542 0.67311 0.0
C309 C 0.78703 0.31668 0.68102 0.0
C310 C 0.86448 0.27067 0.61926 0.0
C311 C 0.95736 0.4454 0.6888 0.0
H312 H 0.20397 0.38551 0.7632 0.0
H313 H 0.16263 0.44304 0.75739 0.0
H314 H 0.11799 0.36141 0.61827 0.0
H315 H 0.16346 0.30924 0.62057 0.0
H316 H 0.75677 0.31622 0.56675 0.0
H317 H 0.82167 0.30113 0.5526 0.0
H318 H 0.83974 0.30017 0.70333 0.0
H319 H 0.77561 0.31525 0.71694 0.0
Tb320 Tb 0.84241 0.73715 0.69383 0.0
Tb321 Tb 0.92248 0.80395 0.70886 0.0
C322 C 0.88099 0.78565 0.60472 0.0
C323 C 0.7266 0.59507 0.68955 0.0
C324 C 0.65611 0.46859 0.68062 0.0
C325 C 0.66675 0.51076 0.6429 0.0
C326 C 0.70169 0.57374 0.64741 0.0
C327 C 0.71623 0.55186 0.72647 0.0
C328 C 0.68177 0.48973 0.72198 0.0
C329 C 0.76022 0.66283 0.69884 0.0
O330 O 0.86431 0.65803 0.69689 0.0
O331 O 0.93402 0.72422 0.68246 0.0
O332 O 0.86708 0.76722 0.76572 0.0
O333 O 0.86655 0.76835 0.76641 0.0
O334 O 0.98119 0.8008 0.7197 0.0
O335 O 0.97 0.87393 0.75532 0.0
O336 O 0.9315 0.89575 0.69275 0.0
O337 O 0.8575 0.84858 0.69276 0.0
O338 O 0.85932 0.73003 0.62249 0.0
O339 O 0.91201 0.82793 0.63351 0.0
C340 C 0.90472 0.66489 0.68887 0.0
O341 O 0.78951 0.67062 0.73068 0.0
O342 O 0.77765 0.7029 0.66467 0.0
C343 C 0.85025 0.80168 0.78869 0.0
C344 C 1.04401 0.90058 0.73294 0.0
C345 C 0.13627 0.96624 0.71984 0.0
C346 C 0.11727 0.97697 0.76108 0.0
C347 C 1.07167 0.94373 0.7678 0.0
C348 C 1.06231 0.8955 0.68948 0.0
C349 C 0.10798 0.9272 0.68327 0.0
C350 C 0.99852 0.85358 0.74536 0.0
C351 C 0.89719 0.90458 0.69224 0.0
H352 H 0.64694 0.49595 0.61086 0.0
H353 H 0.70831 0.60606 0.61864 0.0
H354 H 0.73393 0.56658 0.75989 0.0
H355 H 0.67429 0.4585 0.75164 0.0
H356 H 0.13785 1.0083 0.78942 0.0
H357 H 1.05831 0.94882 0.80143 0.0
H358 H 1.04171 0.86312 0.66156 0.0
H359 H 0.12088 0.9168 0.65118 0.0
C360 C 0.3711 0.52716 0.96393 0.0
C361 C 0.38489 0.58875 0.98358 0.0
C362 C 0.32846 0.4792 0.96959 0.0
C363 C 0.29809 0.49122 0.9949 0.0
H364 H 0.39373 0.51592 0.94406 0.0
H365 H 0.31889 0.43254 0.95326 0.0
S366 S 0.31961 0.64255 0.05816 0.0
N367 N 0.36724 0.65821 0.0336 0.0
N368 N 0.28476 0.56768 0.04258 0.0
C369 C 0.31172 0.55193 1.01665 0.0
C370 C 0.3559 0.60099 1.01139 0.0
C371 C 0.55032 0.87451 1.0146 0.0
C372 C 0.57941 0.93935 0.02822 0.0
C373 C 0.5639 0.82503 1.01081 0.0
C374 C 0.60783 0.83491 0.02025 0.0
H375 H 0.51633 0.86136 1.00639 0.0
H376 H 0.53893 0.77751 0.99993 0.0
S377 S 0.69868 0.99448 0.0572 0.0
N378 N 0.65627 1.00845 0.05113 0.0
N379 N 0.68012 0.91775 0.04407 0.0
C380 C 0.6372 0.89919 0.0338 0.0
C381 C 0.62357 0.94978 0.03767 0.0
C382 C 0.25605 0.73708 0.05139 0.0
C383 C 0.28391 0.7511 1.01219 0.0
C384 C 0.21681 0.67918 0.05341 0.0
C385 C 0.20428 0.63245 1.01673 0.0
H386 H 0.26418 0.7719 0.08026 0.0
H387 H 0.1958 0.67114 0.08385 0.0
S388 S 0.26717 0.64406 0.9077 0.0
N389 N 0.29723 0.71288 0.93646 0.0
N390 N 0.22381 0.60277 0.94101 0.0
C391 C 0.23263 0.64469 0.97811 0.0
C392 C 0.27233 0.70446 0.97558 0.0
C393 C 0.61187 0.36552 0.0548 0.0
C394 C 0.57234 0.31422 0.03406 0.0
C395 C 0.6266 0.43336 0.04911 0.0
C396 C 0.60318 0.45756 0.02211 0.0
H397 H 0.63263 0.35323 0.07617 0.0
H398 H 0.65685 0.4673 0.06677 0.0
S399 S 0.49903 0.34725 0.95618 0.0
N400 N 0.51167 0.29666 0.9824 0.0
N401 N 0.53753 0.41982 0.97221 0.0
C402 C 0.56372 0.40674 1.00066 0.0
C403 C 0.54897 0.33751 1.00631 0.0
C404 C 0.88807 0.32877 0.02258 0.0
C405 C 0.86298 0.30617 0.06375 0.0
C406 C 0.93315 0.34759 0.0224 0.0
C407 C 0.95575 0.34844 0.06356 0.0
H408 H 0.87297 0.33229 0.9901 0.0
H409 H 0.95094 0.363 0.99002 0.0
S410 S 0.90553 0.28709 0.17922 0.0
N411 N 0.86369 0.27801 0.14567 0.0
N412 N 0.94984 0.32078 0.1459 0.0
C413 C 0.93149 0.32572 0.10493 0.0
C414 C 0.88487 0.30323 0.10486 0.0
C415 C 0.9054 0.59868 0.06016 0.0
C416 C 0.87297 0.53919 0.07666 0.0
C417 C 0.89919 0.6521 0.0624 0.0
C418 C 0.85999 0.64776 0.08008 0.0
H419 H 0.93683 0.60529 0.04713 0.0
H420 H 0.9247 0.69675 0.04909 0.0
S421 S 0.7633 0.50248 0.12266 0.0
N422 N 0.80008 0.47851 0.10924 0.0
N423 N 0.78669 0.57929 0.11079 0.0
C424 C 0.82668 0.58855 0.0953 0.0
C425 C 0.83348 0.53406 0.09389 0.0
C426 C 0.10293 0.96061 0.33775 0.0
C427 C 1.06861 0.89515 0.33156 0.0
C428 C 0.15067 0.98202 0.33451 0.0
C429 C 0.16965 0.94022 0.32529 0.0
H430 H 0.09291 0.99691 0.3449 0.0
H431 H 0.17297 1.03256 0.33988 0.0
S432 S 0.09741 0.76286 0.31082 0.0
N433 N 1.0611 0.78907 0.31873 0.0
N434 N 0.14625 0.82689 0.31275 0.0
C435 C 0.13559 0.87473 0.32023 0.0
C436 C 0.08739 0.85325 0.32322 0.0
C437 C 0.19002 0.2268 0.33415 0.0
C438 C 0.19354 0.2844 0.31854 0.0
C439 C 0.2239 0.21155 0.32489 0.0
C440 C 0.26215 0.255 0.30139 0.0
H441 H 0.1644 0.19824 0.35867 0.0
H442 H 0.22216 0.16904 0.34012 0.0
S443 S 0.28346 0.40786 0.24978 0.0
N444 N 0.23315 0.3778 0.27105 0.0
N445 N 0.29976 0.3545 0.2602 0.0
C446 C 0.26332 0.30861 0.28122 0.0
C447 C 0.22749 0.32124 0.28745 0.0
C448 C 0.93132 1.04014 0.35617 0.0
C449 C 0.93276 0.09274 0.33322 0.0
C450 C 0.89109 0.98576 0.36279 0.0
C451 C 0.85183 0.98282 0.3464 0.0
H452 H 0.96102 1.04243 0.37106 0.0
H453 H 0.89042 0.94718 0.38261 0.0
S454 S 0.83776 0.10776 0.28582 0.0
N455 N 0.89138 0.13887 0.29511 0.0
N456 N 0.81581 1.0352 0.30711 0.0
C457 C 0.85272 1.0341 0.32283 0.0
C458 C 0.89342 0.08945 0.31604 0.0
C459 C 0.31156 0.64749 0.43058 0.0
C460 C 0.32449 0.67269 0.38534 0.0
C461 C 0.26733 0.61423 0.44232 0.0
C462 C 0.23382 0.59542 0.40783 0.0
H463 H 0.33582 0.66048 0.45869 0.0
H464 H 0.25939 0.59785 0.47817 0.0
S465 S 0.24891 0.63801 0.28193 0.0
N466 N 0.2992 0.66417 0.30311 0.0
N467 N 0.21581 0.60649 0.32702 0.0
C468 C 0.2457 0.61746 0.36202 0.0
C469 C 0.29104 0.65043 0.34958 0.0
C470 C 0.54797 0.59133 0.40818 0.0
C471 C 0.52243 0.61422 0.38324 0.0
C472 C 0.59524 0.61759 0.4037 0.0
C473 C 0.62114 0.66839 0.37328 0.0
H474 H 0.53135 0.55291 0.43246 0.0
H475 H 0.61193 0.5995 0.42619 0.0
S476 S 0.57319 0.75357 0.30446 0.0
N477 N 0.5296 0.69624 0.32946 0.0
N478 N 0.6155 0.74437 0.32177 0.0
C479 C 0.59585 0.69238 0.34906 0.0
C480 C 0.54795 0.66573 0.35343 0.0
C481 C 0.43514 0.92867 0.38838 0.0
C482 C 0.43767 0.98427 0.36835 0.0
C483 C 0.47164 0.91665 0.39211 0.0
C484 C 0.51398 0.96047 0.3767 0.0
H485 H 0.40416 0.89355 0.40154 0.0
H486 H 0.46646 0.87214 0.40707 0.0
S487 S 0.54248 0.11976 0.3292 0.0
N488 N 0.48866 0.08731 0.3374 0.0
N489 N 0.55742 1.06626 0.34532 0.0
C490 C 0.51803 1.01808 0.35855 0.0
C491 C 0.48026 1.02981 0.35433 0.0
C492 C 0.68456 0.28324 0.67247 0.0
C493 C 0.71372 0.26658 0.64873 0.0
C494 C 0.64192 0.23576 0.68322 0.0
C495 C 0.62821 0.17115 0.67071 0.0
H496 H 0.6949 0.33257 0.68309 0.0
H497 H 0.61958 0.24945 0.70107 0.0
S498 S 0.69498 0.10299 0.61529 0.0
N499 N 0.72768 0.18091 0.61774 0.0
N500 N 0.64795 0.09257 0.63816 0.0
C501 C 0.65772 0.1542 0.64866 0.0
C502 C 0.70048 0.20181 0.63759 0.0
C503 C 0.90182 0.49316 0.68829 0.0
C504 C 0.94669 0.50422 0.69076 0.0
C505 C 0.88862 0.54288 0.68796 0.0
C506 C 0.91898 0.60946 0.68938 0.0
H507 H 0.8756 0.44432 0.68643 0.0
H508 H 0.85371 0.52837 0.68606 0.0
S509 S 1.04106 0.66914 0.6976 0.0
N510 N 1.02145 0.5907 0.69597 0.0
N511 N 0.99793 0.68207 0.69469 0.0
C512 C 0.9641 0.62151 0.69214 0.0
C513 C 0.97746 0.57048 0.69299 0.0
C514 C 0.58569 0.39073 0.71719 0.0
C515 C 0.61587 0.40506 0.67998 0.0
C516 C 0.54749 0.33169 0.71865 0.0
C517 C 0.53791 0.28412 0.68324 0.0
H518 H 0.59116 0.42612 0.74499 0.0
H519 H 0.52444 0.3239 0.74709 0.0
S520 S 0.60643 0.29629 0.57893 0.0
N521 N 0.63412 0.36599 0.60738 0.0
N522 N 0.56156 0.25456 0.61008 0.0
C523 C 0.56786 0.29705 0.64613 0.0
C524 C 0.60698 0.35768 0.64448 0.0
C525 C 0.87931 1.00448 0.69552 0.0
C526 C 0.90901 0.97859 0.69024 0.0
C527 C 0.89341 1.07291 0.6959 0.0
C528 C 0.93844 0.12231 0.69137 0.0
H529 H 0.84461 0.97177 0.69983 0.0
H530 H 0.86799 0.08727 0.69998 0.0
S531 S 1.03118 0.08466 0.67558 0.0
N532 N 0.98779 1.01344 0.67934 0.0
N533 N 1.01213 0.13661 0.68068 0.0
C534 C 0.96827 0.09724 0.68588 0.0
C535 C 0.95426 1.02803 0.68521 0.0
C536 C 0.20756 0.98769 0.75887 0.0
C537 C 0.18486 0.98907 0.71785 0.0
C538 C 0.25301 1.00809 0.75867 0.0
C539 C 0.27736 1.02867 0.71715 0.0
H540 H 0.19017 0.97067 0.79167 0.0
H541 H 0.26936 1.00864 0.79142 0.0
S542 S 0.23555 1.04453 0.60057 0.0
N543 N 0.19166 1.01591 0.63469 0.0
N544 N 0.27661 1.05155 0.63443 0.0
C545 C 0.25541 1.02947 0.67574 0.0
C546 C 0.20926 1.01004 0.67598 0.0
C547 C 0.16408 0.16168 0.69261 0.0
C548 C 0.1857 0.15749 0.73322 0.0
C549 C 0.16543 0.21978 0.67952 0.0
C550 C 0.18702 0.27795 0.70691 0.0
H551 H 0.14944 0.12073 0.66836 0.0
H552 H 0.14884 0.21745 0.64673 0.0
S553 S 0.26317 0.28508 0.84219 0.0
N554 N 0.21291 0.18927 0.82086 0.0
N555 N 0.24435 0.32709 0.7842 0.0
C556 C 0.20104 0.27161 0.75167 0.0
C557 C 0.18273 0.18872 0.77285 0.0
C558 C 0.14954 0.49211 0.25024 0.0
C559 C 0.19009 0.4906 0.25354 0.0
C560 C 0.13163 0.49588 0.20672 0.0
C561 C 0.15343 0.49837 0.16423 0.0
H562 H 0.13006 0.48644 0.2816 0.0
H563 H 0.09931 0.49328 0.20616 0.0
S564 S 0.26583 0.51493 0.15397 0.0
N565 N 0.25525 0.50525 0.21096 0.0
N566 N 0.22162 0.51206 0.12877 0.0
C567 C 0.19585 0.50339 0.16712 0.0
C568 C 0.21424 0.4998 0.21181 0.0
C569 C 0.69107 0.7921 0.19182 0.0
C570 C 0.68504 0.75675 0.23291 0.0
C571 C 0.667 0.76307 0.14939 0.0
C572 C 0.63523 0.69745 0.14597 0.0
H573 H 0.71607 0.84181 0.19169 0.0
H574 H 0.67567 0.79133 0.11799 0.0
S575 S 0.60428 0.58499 0.24441 0.0
N576 N 0.64307 0.65296 0.26757 0.0
N577 N 0.59787 0.59975 0.18914 0.0
C578 C 0.62754 0.66282 0.18754 0.0
C579 C 0.65229 0.69199 0.23043 0.0
C580 C 0.45038 0.96673 0.16781 0.0
C581 C 0.48205 1.03219 0.16297 0.0
C582 C 0.41088 0.94652 0.19503 0.0
C583 C 0.40055 0.99055 0.21965 0.0
H584 H 0.45563 0.93038 0.14925 0.0
H585 H 0.38792 0.89592 0.19606 0.0
S586 S 0.47672 0.16598 0.2287 0.0
N587 N 0.50228 0.13952 0.1919 0.0
N588 N 0.43018 0.10279 0.24261 0.0
C589 C 0.43333 1.05569 0.21731 0.0
C590 C 0.47319 1.07611 0.18939 0.0
C591 C 0.53602 0.18867 0.88317 0.0
C592 C 0.52273 0.12808 0.90295 0.0
C593 C 0.50965 0.19842 0.84868 0.0
C594 C 0.46801 0.14855 0.83361 0.0
H595 H 0.56705 0.22885 0.89428 0.0
H596 H 0.52218 0.2451 0.8335 0.0
S597 S 0.41567 0.98196 0.87651 0.0
N598 N 0.46414 1.01743 0.90319 0.0
N599 N 0.41388 1.03764 0.84472 0.0
C600 C 0.45393 0.08879 0.85457 0.0
C601 C 0.48131 1.07806 0.88729 0.0
C602 C 0.97342 0.42158 0.90111 0.0
C603 C 1.02001 0.45551 0.9065 0.0
C604 C 0.95293 0.3893 0.85772 0.0
C605 C 0.97824 0.39427 0.81721 0.0
H606 H 0.95258 0.41721 0.93078 0.0
H607 H 0.91764 0.35824 0.85664 0.0
S608 S 0.09944 0.50018 0.80807 0.0
N609 N 0.08921 0.50379 0.86464 0.0
N610 N 1.05104 0.45381 0.78306 0.0
C611 C 1.02385 0.43815 0.82076 0.0
C612 C 1.04465 0.46644 0.86508 0.0
C613 C 0.76568 0.73422 0.80822 0.0
C614 C 0.81033 0.77347 0.82299 0.0
C615 C 0.72853 0.71506 0.83891 0.0
C616 C 0.73255 0.74002 0.88557 0.0
H617 H 0.75798 0.72379 0.7716 0.0
H618 H 0.69586 0.68485 0.82437 0.0
S619 S 0.83893 0.86803 0.93578 0.0
N620 N 0.8539 0.84638 0.88594 0.0
N621 N 0.78488 0.82332 0.9387 0.0
C622 C 0.77621 0.78663 0.89859 0.0
C623 C 0.81435 0.80065 0.86887 0.0
C624 C 0.78613 0.76688 0.52237 0.0
C625 C 0.80185 0.82384 0.49744 0.0
C626 C 0.81236 0.75631 0.55542 0.0
C627 C 0.85654 0.80209 0.56668 0.0
H628 H 0.75328 0.72831 0.51478 0.0
H629 H 0.79725 0.71037 0.57199 0.0
S630 S 0.91525 0.96016 0.51065 0.0
N631 N 0.86582 0.92707 0.48538 0.0
N632 N 0.91457 0.90845 0.54906 0.0
C633 C 0.87276 0.86045 0.5428 0.0
C634 C 0.84579 0.87092 0.50807 0.0
C635 C 0.32084 1.00884 0.51287 0.0
C636 C 0.33271 1.049 0.47381 0.0
C637 C 0.33603 1.0337 0.55911 0.0
C638 C 0.36272 0.09991 0.56861 0.0
H639 H 0.30054 0.95769 0.50764 0.0
H640 H 0.32743 1.00059 0.58767 0.0
S641 S 0.40821 0.2251 0.47956 0.0
N642 N 0.37742 0.1587 0.44868 0.0
N643 N 0.40298 0.20413 0.53519 0.0
C644 C 0.37497 0.1404 0.53036 0.0
C645 C 0.36064 0.11533 0.48324 0.0
C646 C 1.07108 0.38573 0.55397 0.0
C647 C 1.04392 0.3205 0.56459 0.0
C648 C 0.11065 0.40624 0.52736 0.0
C649 C 0.12509 0.36272 0.50995 0.0
H650 H 1.06145 0.42118 0.56563 0.0
H651 H 0.12872 0.45604 0.51818 0.0
S652 S 1.06508 0.18694 0.52521 0.0
N653 N 1.03455 0.21313 0.55392 0.0
N654 N 0.10718 0.25093 0.50411 0.0
C655 C 0.098 0.2978 0.52031 0.0
C656 C 1.05809 0.27704 0.54723 0.0
loop_
_geom_bond_atom_site_label_1
_geom_bond_atom_site_label_2
_geom_bond_distance
_geom_bond_site_symmetry_2
_ccdc_geom_bond_type
Tb0 C9 2.765 . S
Tb0 O10 2.325 1_554 S
Tb0 O13 2.303 . S
Tb0 O17 2.322 1_455 S
Tb0 O18 2.349 1_554 S
Tb0 O21 2.415 . S
Tb0 O22 2.399 1_554 S
Tb1 O11 2.322 1_655 S
Tb1 O12 2.341 1_655 S
Tb1 O14 2.415 1_554 S
Tb1 O15 2.399 . S
Tb1 O16 2.325 . S
Tb1 O19 2.303 1_554 S
Tb1 C30 2.764 . S
C2 O18 1.261 1_655 S
C2 O19 1.257 . S
C3 C6 1.349 1_554 S
C3 C7 1.340 . S
C3 C9 1.504 . S
C4 C5 1.362 1_554 S
C4 C8 1.319 . S
C5 C4 1.362 1_556 S
C5 C6 1.429 . S
C5 H32 0.932 . S
C6 C3 1.349 1_556 S
C6 C5 1.429 . S
C6 H33 0.930 . S
C7 C3 1.340 . S
C7 C8 1.394 . S
C7 H34 0.932 . S
C8 C4 1.319 . S
C8 C7 1.394 . S
C8 H35 0.929 . S
C9 Tb0 2.765 . S
C9 C3 1.504 . S
C9 O21 1.252 . S
C9 O22 1.251 1_554 S
O10 Tb0 2.325 1_556 S
O10 C20 1.236 1_556 S
O11 Tb1 2.322 1_455 S
O11 C20 1.257 . S
O12 Tb1 2.341 1_455 S
O12 C23 1.281 . S
O13 Tb0 2.303 . S
O13 C23 1.257 . S
O14 Tb1 2.415 1_556 S
O14 C30 1.239 1_556 S
O15 Tb1 2.399 . S
O15 C30 1.263 . S
O16 Tb1 2.325 . S
O16 C31 1.236 . S
O17 Tb0 2.322 1_655 S
O17 C31 1.257 . S
O18 Tb0 2.349 1_556 S
O18 C2 1.261 1_455 S
O19 Tb1 2.303 1_556 S
O19 C2 1.257 . S
C20 O10 1.236 1_554 S
C20 O11 1.257 . S
O21 Tb0 2.415 . S
O21 C9 1.252 . S
O22 Tb0 2.399 1_556 S
O22 C9 1.251 1_556 S
C23 O12 1.281 . S
C23 O13 1.257 . S
C24 C27 1.358 . S
C24 C28 1.333 . S
C24 C30 1.504 . S
C25 C26 1.373 . S
C25 C29 1.318 . S
C26 C25 1.373 . S
C26 C27 1.429 . S
C26 H36 0.932 . S
C27 C24 1.358 . S
C27 C26 1.429 . S
C27 H37 0.930 . S
C28 C24 1.333 . S
C28 C29 1.394 . S
C28 H38 0.931 1_554 S
C29 C25 1.318 . S
C29 C28 1.394 . S
C29 H39 0.919 1_554 S
C30 Tb1 2.764 . S
C30 O14 1.239 1_554 S
C30 O15 1.263 . S
C30 C24 1.504 . S
C31 O16 1.236 . S
C31 O17 1.257 . S
H32 C5 0.932 . S
H33 C6 0.930 . S
H34 C7 0.932 . S
H35 C8 0.929 . S
H36 C26 0.932 . S
H37 C27 0.930 . S
H38 C28 0.931 1_556 S
H39 C29 0.919 1_556 S
Tb40 C49 2.764 . S
Tb40 O50 2.325 . S
Tb40 O53 2.303 1_554 S
Tb40 O57 2.322 . S
Tb40 O58 2.349 . S
Tb40 O61 2.415 1_554 S
Tb40 O62 2.399 . S
Tb41 O51 2.322 . S
Tb41 O52 2.349 . S
Tb41 O54 2.415 1_556 S
Tb41 O55 2.399 . S
Tb41 O56 2.325 . S
Tb41 O59 2.303 1_556 S
Tb41 C70 2.764 . S
C42 O58 1.261 . S
C42 O59 1.257 . S
C43 C46 1.358 . S
C43 C47 1.332 1_554 S
C43 C49 1.504 . S
C44 C45 1.373 . S
C44 C48 1.308 1_554 S
C45 C44 1.373 . S
C45 C46 1.429 . S
C45 H72 0.932 . S
C46 C43 1.358 . S
C46 C45 1.429 . S
C46 H73 0.930 . S
C47 C43 1.332 1_556 S
C47 C48 1.394 . S
C47 H74 0.932 . S
C48 C44 1.308 1_556 S
C48 C47 1.394 . S
C48 H75 0.929 . S
C49 Tb40 2.764 . S
C49 C43 1.504 . S
C49 O61 1.239 1_554 S
C49 O62 1.263 . S
O50 Tb40 2.325 . S
O50 C60 1.236 . S
O51 Tb41 2.322 . S
O51 C60 1.257 1_556 S
O52 Tb41 2.349 . S
O52 C63 1.261 . S
O53 Tb40 2.303 1_556 S
O53 C63 1.257 . S
O54 Tb41 2.415 1_554 S
O54 C70 1.239 1_554 S
O55 Tb41 2.399 . S
O55 C70 1.263 . S
O56 Tb41 2.325 . S
O56 C71 1.236 . S
O57 Tb40 2.322 . S
O57 C71 1.257 1_554 S
O58 Tb40 2.349 . S
O58 C42 1.261 . S
O59 Tb41 2.303 1_554 S
O59 C42 1.257 . S
C60 O50 1.236 . S
C60 O51 1.257 1_554 S
O61 Tb40 2.415 1_556 S
O61 C49 1.239 1_556 S
O62 Tb40 2.399 . S
O62 C49 1.263 . S
C63 O52 1.261 . S
C63 O53 1.257 . S
C64 C67 1.358 . S
C64 C68 1.332 1_556 S
C64 C70 1.504 . S
C65 C66 1.373 . S
C65 C69 1.308 1_556 S
C66 C65 1.373 . S
C66 C67 1.429 . S
C66 H76 0.932 . S
C67 C64 1.358 . S
C67 C66 1.429 . S
C67 H77 0.930 . S
C68 C64 1.332 1_554 S
C68 C69 1.394 . S
C68 H78 0.932 . S
C69 C65 1.308 1_554 S
C69 C68 1.394 . S
C69 H79 0.929 . S
C70 Tb41 2.764 . S
C70 O54 1.239 1_556 S
C70 O55 1.263 . S
C70 C64 1.504 . S
C71 O56 1.236 . S
C71 O57 1.257 1_556 S
H72 C45 0.932 . S
H73 C46 0.930 . S
H74 C47 0.932 . S
H75 C48 0.929 . S
H76 C66 0.932 . S
H77 C67 0.930 . S
H78 C68 0.932 . S
H79 C69 0.929 . S
Tb80 C89 2.764 . S
Tb80 O90 2.325 . S
Tb80 O93 2.301 1_556 S
Tb80 O97 2.322 1_566 S
Tb80 O98 2.352 . S
Tb80 O101 2.414 1_556 S
Tb80 O102 2.400 . S
Tb81 O91 2.322 1_545 S
Tb81 O92 2.349 . S
Tb81 O94 2.415 1_554 S
Tb81 O95 2.399 . S
Tb81 O96 2.325 . S
Tb81 O99 2.303 1_554 S
Tb81 C110 2.764 . S
C82 O98 1.261 1_545 S
C82 O99 1.257 . S
C83 C86 1.374 . S
C83 C87 1.315 1_556 S
C83 C89 1.505 . S
C84 C85 1.371 1_554 S
C84 C88 1.310 . S
C85 C84 1.371 1_556 S
C85 C86 1.429 . S
C85 H112 0.932 . S
C86 C83 1.374 . S
C86 C85 1.429 . S
C86 H113 0.930 . S
C87 C83 1.315 1_554 S
C87 C88 1.394 . S
C87 H114 0.932 . S
C88 C84 1.310 . S
C88 C87 1.394 . S
C88 H115 0.929 . S
C89 Tb80 2.764 . S
C89 C83 1.505 . S
C89 O101 1.239 1_556 S
C89 O102 1.263 . S
O90 Tb80 2.325 . S
O90 C100 1.236 1_556 S
O91 Tb81 2.322 1_565 S
O91 C100 1.257 . S
O92 Tb81 2.349 . S
O92 C103 1.261 1_545 S
O93 Tb80 2.301 1_554 S
O93 C103 1.257 . S
O94 Tb81 2.415 1_556 S
O94 C110 1.239 1_556 S
O95 Tb81 2.399 . S
O95 C110 1.263 . S
O96 Tb81 2.325 . S
O96 C111 1.236 . S
O97 Tb80 2.322 1_544 S
O97 C111 1.257 . S
O98 Tb80 2.352 . S
O98 C82 1.261 1_565 S
O99 Tb81 2.303 1_556 S
O99 C82 1.257 . S
C100 O90 1.236 1_554 S
C100 O91 1.257 . S
O101 Tb80 2.414 1_554 S
O101 C89 1.239 1_554 S
O102 Tb80 2.400 . S
O102 C89 1.263 . S
C103 O92 1.261 1_565 S
C103 O93 1.257 . S
C104 C107 1.358 . S
C104 C108 1.332 1_554 S
C104 C110 1.504 . S
C105 C106 1.373 . S
C105 C109 1.308 1_554 S
C106 C105 1.373 . S
C106 C107 1.429 . S
C106 H116 0.932 . S
C107 C104 1.358 . S
C107 C106 1.429 . S
C107 H117 0.930 . S
C108 C104 1.332 1_556 S
C108 C109 1.394 . S
C108 H118 0.932 . S
C109 C105 1.308 1_556 S
C109 C108 1.394 . S
C109 H119 0.929 . S
C110 Tb81 2.764 . S
C110 O94 1.239 1_554 S
C110 O95 1.263 . S
C110 C104 1.504 . S
C111 O96 1.236 . S
C111 O97 1.257 . S
H112 C85 0.932 . S
H113 C86 0.930 . S
H114 C87 0.932 . S
H115 C88 0.929 . S
H116 C106 0.932 . S
H117 C107 0.930 . S
H118 C108 0.932 . S
H119 C109 0.929 . S
Tb120 C129 2.764 . S
Tb120 O130 2.325 . S
Tb120 O133 2.303 . S
Tb120 O137 2.322 . S
Tb120 O138 2.349 . S
Tb120 O141 2.415 . S
Tb120 O142 2.399 . S
Tb121 O131 2.322 . S
Tb121 O132 2.349 . S
Tb121 O134 2.415 . S
Tb121 O135 2.399 . S
Tb121 O136 2.325 . S
Tb121 O139 2.303 . S
Tb121 C150 2.764 . S
C122 O138 1.261 . S
C122 O139 1.257 . S
C123 C126 1.358 . S
C123 C127 1.332 . S
C123 C129 1.504 . S
C124 C125 1.373 . S
C124 C128 1.308 . S
C125 C124 1.373 . S
C125 C126 1.429 . S
C125 H152 0.932 . S
C126 C123 1.358 . S
C126 C125 1.429 . S
C126 H153 0.930 . S
C127 C123 1.332 . S
C127 C128 1.394 . S
C127 H154 0.932 . S
C128 C124 1.308 . S
C128 C127 1.394 . S
C128 H155 0.929 . S
C129 Tb120 2.764 . S
C129 C123 1.504 . S
C129 O141 1.239 . S
C129 O142 1.263 . S
O130 Tb120 2.325 . S
O130 C140 1.236 . S
O131 Tb121 2.322 . S
O131 C140 1.257 . S
O132 Tb121 2.349 . S
O132 C143 1.261 . S
O133 Tb120 2.303 . S
O133 C143 1.257 . S
O134 Tb121 2.415 . S
O134 C150 1.239 . S
O135 Tb121 2.399 . S
O135 C150 1.263 . S
O136 Tb121 2.325 . S
O136 C151 1.236 . S
O137 Tb120 2.322 . S
O137 C151 1.257 . S
O138 Tb120 2.349 . S
O138 C122 1.261 . S
O139 Tb121 2.303 . S
O139 C122 1.257 . S
C140 O130 1.236 . S
C140 O131 1.257 . S
O141 Tb120 2.415 . S
O141 C129 1.239 . S
O142 Tb120 2.399 . S
O142 C129 1.263 . S
C143 O132 1.261 . S
C143 O133 1.257 . S
C144 C147 1.358 . S
C144 C148 1.332 . S
C144 C150 1.504 . S
C145 C146 1.373 . S
C145 C149 1.308 . S
C146 C145 1.373 . S
C146 C147 1.429 . S
C146 H156 0.932 . S
C147 C144 1.358 . S
C147 C146 1.429 . S
C147 H157 0.930 . S
C148 C144 1.332 . S
C148 C149 1.394 . S
C148 H158 0.932 . S
C149 C145 1.308 . S
C149 C148 1.394 . S
C149 H159 0.929 . S
C150 Tb121 2.764 . S
C150 O134 1.239 . S
C150 O135 1.263 . S
C150 C144 1.504 . S
C151 O136 1.236 . S
C151 O137 1.257 . S
H152 C125 0.932 . S
H153 C126 0.930 . S
H154 C127 0.932 . S
H155 C128 0.929 . S
H156 C146 0.932 . S
H157 C147 0.930 . S
H158 C148 0.932 . S
H159 C149 0.929 . S
Tb160 C169 2.764 1_565 S
Tb160 O170 2.325 . S
Tb160 O173 2.303 . S
Tb160 O177 2.322 . S
Tb160 O178 2.349 . S
Tb160 O181 2.415 1_565 S
Tb160 O182 2.399 1_565 S
Tb161 O171 2.322 . S
Tb161 O172 2.349 . S
Tb161 O174 2.415 . S
Tb161 O175 2.399 . S
Tb161 O176 2.325 . S
Tb161 O179 2.303 . S
Tb161 C190 2.764 . S
C162 O178 1.261 . S
C162 O179 1.257 . S
C163 C166 1.358 . S
C163 C167 1.332 . S
C163 C169 1.504 . S
C164 C165 1.373 . S
C164 C168 1.308 . S
C165 C164 1.373 . S
C165 C166 1.429 . S
C165 H192 0.932 . S
C166 C163 1.358 . S
C166 C165 1.429 . S
C166 H193 0.930 . S
C167 C163 1.332 . S
C167 C168 1.394 . S
C167 H194 0.932 . S
C168 C164 1.308 . S
C168 C167 1.394 . S
C168 H195 0.929 . S
C169 Tb160 2.764 1_545 S
C169 C163 1.504 . S
C169 O181 1.239 . S
C169 O182 1.263 . S
O170 Tb160 2.325 . S
O170 C180 1.236 . S
O171 Tb161 2.322 . S
O171 C180 1.257 . S
O172 Tb161 2.349 . S
O172 C183 1.261 . S
O173 Tb160 2.303 . S
O173 C183 1.257 . S
O174 Tb161 2.415 . S
O174 C190 1.239 . S
O175 Tb161 2.399 . S
O175 C190 1.263 . S
O176 Tb161 2.325 . S
O176 C191 1.236 . S
O177 Tb160 2.322 . S
O177 C191 1.257 . S
O178 Tb160 2.349 . S
O178 C162 1.261 . S
O179 Tb161 2.303 . S
O179 C162 1.257 . S
C180 O170 1.236 . S
C180 O171 1.257 . S
O181 Tb160 2.415 1_545 S
O181 C169 1.239 . S
O182 Tb160 2.399 1_545 S
O182 C169 1.263 . S
C183 O172 1.261 . S
C183 O173 1.257 . S
C184 C187 1.358 . S
C184 C188 1.332 . S
C184 C190 1.504 . S
C185 C186 1.373 . S
C185 C189 1.308 . S
C186 C185 1.373 . S
C186 C187 1.429 . S
C186 H196 0.932 . S
C187 C184 1.358 . S
C187 C186 1.429 . S
C187 H197 0.930 . S
C188 C184 1.332 . S
C188 C189 1.394 . S
C188 H198 0.932 . S
C189 C185 1.308 . S
C189 C188 1.394 . S
C189 H199 0.929 . S
C190 Tb161 2.764 . S
C190 O174 1.239 . S
C190 O175 1.263 . S
C190 C184 1.504 . S
C191 O176 1.236 . S
C191 O177 1.257 . S
H192 C165 0.932 . S
H193 C166 0.930 . S
H194 C167 0.932 . S
H195 C168 0.929 . S
H196 C186 0.932 . S
H197 C187 0.930 . S
H198 C188 0.932 . S
H199 C189 0.929 . S
Tb200 C209 2.764 1_455 S
Tb200 O210 2.325 . S
Tb200 O213 2.303 . S
Tb200 O217 2.322 . S
Tb200 O218 2.349 . S
Tb200 O221 2.415 . S
Tb200 O222 2.399 . S
Tb201 O211 2.322 . S
Tb201 O212 2.349 . S
Tb201 O214 2.415 . S
Tb201 O215 2.399 . S
Tb201 O216 2.325 . S
Tb201 O219 2.303 . S
Tb201 C230 2.764 . S
C202 O218 1.261 . S
C202 O219 1.257 . S
C203 C206 1.358 . S
C203 C207 1.332 . S
C203 C209 1.504 . S
C204 C205 1.373 . S
C204 C208 1.308 . S
C205 C204 1.373 . S
C205 C206 1.429 . S
C205 H232 0.932 . S
C206 C203 1.358 . S
C206 C205 1.429 . S
C206 H233 0.930 . S
C207 C203 1.332 . S
C207 C208 1.394 . S
C207 H234 0.932 . S
C208 C204 1.308 . S
C208 C207 1.394 . S
C208 H235 0.929 . S
C209 Tb200 2.764 1_655 S
C209 C203 1.504 . S
C209 O221 1.239 1_655 S
C209 O222 1.263 1_655 S
O210 Tb200 2.325 . S
O210 C220 1.236 . S
O211 Tb201 2.322 . S
O211 C220 1.257 . S
O212 Tb201 2.349 . S
O212 C223 1.261 . S
O213 Tb200 2.303 . S
O213 C223 1.257 . S
O214 Tb201 2.415 . S
O214 C230 1.239 . S
O215 Tb201 2.399 . S
O215 C230 1.263 . S
O216 Tb201 2.325 . S
O216 C231 1.236 . S
O217 Tb200 2.322 . S
O217 C231 1.257 . S
O218 Tb200 2.349 . S
O218 C202 1.261 . S
O219 Tb201 2.303 . S
O219 C202 1.257 . S
C220 O210 1.236 . S
C220 O211 1.257 . S
O221 Tb200 2.415 . S
O221 C209 1.239 1_455 S
O222 Tb200 2.399 . S
O222 C209 1.263 1_455 S
C223 O212 1.261 . S
C223 O213 1.257 . S
C224 C227 1.358 . S
C224 C228 1.332 . S
C224 C230 1.504 . S
C225 C226 1.373 . S
C225 C229 1.308 . S
C226 C225 1.373 . S
C226 C227 1.429 . S
C226 H236 0.932 . S
C227 C224 1.358 . S
C227 C226 1.429 . S
C227 H237 0.930 . S
C228 C224 1.332 . S
C228 C229 1.394 . S
C228 H238 0.932 . S
C229 C225 1.308 . S
C229 C228 1.394 . S
C229 H239 0.929 . S
C230 Tb201 2.764 . S
C230 O214 1.239 . S
C230 O215 1.263 . S
C230 C224 1.504 . S
C231 O216 1.236 . S
C231 O217 1.257 . S
H232 C205 0.932 . S
H233 C206 0.930 . S
H234 C207 0.932 . S
H235 C208 0.929 . S
H236 C226 0.932 . S
H237 C227 0.930 . S
H238 C228 0.932 . S
H239 C229 0.929 . S
Tb240 C249 2.764 . S
Tb240 O250 2.325 . S
Tb240 O253 2.303 . S
Tb240 O257 2.322 . S
Tb240 O258 2.349 . S
Tb240 O261 2.415 . S
Tb240 O262 2.399 . S
Tb241 O251 2.322 . S
Tb241 O252 2.349 . S
Tb241 O254 2.415 . S
Tb241 O255 2.399 . S
Tb241 O256 2.325 . S
Tb241 O259 2.303 . S
Tb241 C270 2.764 . S
C242 O258 1.261 . S
C242 O259 1.257 . S
C243 C246 1.358 . S
C243 C247 1.332 . S
C243 C249 1.504 . S
C244 C245 1.373 . S
C244 C248 1.308 . S
C245 C244 1.373 . S
C245 C246 1.429 . S
C245 H272 0.932 . S
C246 C243 1.358 . S
C246 C245 1.429 . S
C246 H273 0.930 . S
C247 C243 1.332 . S
C247 C248 1.394 . S
C247 H274 0.932 . S
C248 C244 1.308 . S
C248 C247 1.394 . S
C248 H275 0.929 . S
C249 Tb240 2.764 . S
C249 C243 1.504 . S
C249 O261 1.239 . S
C249 O262 1.263 . S
O250 Tb240 2.325 . S
O250 C260 1.236 . S
O251 Tb241 2.322 . S
O251 C260 1.257 . S
O252 Tb241 2.349 . S
O252 C263 1.261 . S
O253 Tb240 2.303 . S
O253 C263 1.257 . S
O254 Tb241 2.415 . S
O254 C270 1.239 . S
O255 Tb241 2.399 . S
O255 C270 1.263 . S
O256 Tb241 2.325 . S
O256 C271 1.236 . S
O257 Tb240 2.322 . S
O257 C271 1.257 . S
O258 Tb240 2.349 . S
O258 C242 1.261 . S
O259 Tb241 2.303 . S
O259 C242 1.257 . S
C260 O250 1.236 . S
C260 O251 1.257 . S
O261 Tb240 2.415 . S
O261 C249 1.239 . S
O262 Tb240 2.399 . S
O262 C249 1.263 . S
C263 O252 1.261 . S
C263 O253 1.257 . S
C264 C267 1.358 . S
C264 C268 1.332 . S
C264 C270 1.504 . S
C265 C266 1.373 . S
C265 C269 1.308 . S
C266 C265 1.373 . S
C266 C267 1.429 . S
C266 H276 0.932 . S
C267 C264 1.358 . S
C267 C266 1.429 . S
C267 H277 0.930 . S
C268 C264 1.332 . S
C268 C269 1.394 . S
C268 H278 0.932 . S
C269 C265 1.308 . S
C269 C268 1.394 . S
C269 H279 0.929 . S
C270 Tb241 2.764 . S
C270 O254 1.239 . S
C270 O255 1.263 . S
C270 C264 1.504 . S
C271 O256 1.236 . S
C271 O257 1.257 . S
H272 C245 0.932 . S
H273 C246 0.930 . S
H274 C247 0.932 . S
H275 C248 0.929 . S
H276 C266 0.932 . S
H277 C267 0.930 . S
H278 C268 0.932 . S
H279 C269 0.929 . S
Tb280 C289 2.764 1_655 S
Tb280 O290 2.325 . S
Tb280 O293 2.303 . S
Tb280 O297 2.322 . S
Tb280 O298 2.349 . S
Tb280 O301 2.415 . S
Tb280 O302 2.399 1_655 S
Tb281 O291 2.322 . S
Tb281 O292 2.349 . S
Tb281 O294 2.415 . S
Tb281 O295 2.399 . S
Tb281 O296 2.325 . S
Tb281 O299 2.303 . S
Tb281 C310 2.764 . S
C282 O298 1.261 . S
C282 O299 1.257 . S
C283 C286 1.358 . S
C283 C287 1.332 . S
C283 C289 1.504 . S
C284 C285 1.373 . S
C284 C288 1.308 . S
C285 C284 1.373 . S
C285 C286 1.429 . S
C285 H312 0.932 . S
C286 C283 1.358 . S
C286 C285 1.429 . S
C286 H313 0.930 . S
C287 C283 1.332 . S
C287 C288 1.394 . S
C287 H314 0.932 . S
C288 C284 1.308 . S
C288 C287 1.394 . S
C288 H315 0.929 . S
C289 Tb280 2.764 1_455 S
C289 C283 1.504 . S
C289 O301 1.239 1_455 S
C289 O302 1.263 . S
O290 Tb280 2.325 . S
O290 C300 1.236 . S
O291 Tb281 2.322 . S
O291 C300 1.257 . S
O292 Tb281 2.349 . S
O292 C303 1.261 . S
O293 Tb280 2.303 . S
O293 C303 1.257 . S
O294 Tb281 2.415 . S
O294 C310 1.239 . S
O295 Tb281 2.399 . S
O295 C310 1.263 . S
O296 Tb281 2.325 . S
O296 C311 1.236 . S
O297 Tb280 2.322 . S
O297 C311 1.257 . S
O298 Tb280 2.349 . S
O298 C282 1.261 . S
O299 Tb281 2.303 . S
O299 C282 1.257 . S
C300 O290 1.236 . S
C300 O291 1.257 . S
O301 Tb280 2.415 . S
O301 C289 1.239 1_655 S
O302 Tb280 2.399 1_455 S
O302 C289 1.263 . S
C303 O292 1.261 . S
C303 O293 1.257 . S
C304 C307 1.358 . S
C304 C308 1.332 . S
C304 C310 1.504 . S
C305 C306 1.373 . S
C305 C309 1.308 . S
C306 C305 1.373 . S
C306 C307 1.429 . S
C306 H316 0.932 . S
C307 C304 1.358 . S
C307 C306 1.429 . S
C307 H317 0.930 . S
C308 C304 1.332 . S
C308 C309 1.394 . S
C308 H318 0.932 . S
C309 C305 1.308 . S
C309 C308 1.394 . S
C309 H319 0.929 . S
C310 Tb281 2.764 . S
C310 O294 1.239 . S
C310 O295 1.263 . S
C310 C304 1.504 . S
C311 O296 1.236 . S
C311 O297 1.257 . S
H312 C285 0.932 . S
H313 C286 0.930 . S
H314 C287 0.932 . S
H315 C288 0.929 . S
H316 C306 0.932 . S
H317 C307 0.930 . S
H318 C308 0.932 . S
H319 C309 0.929 . S
Tb320 C329 2.764 . S
Tb320 O330 2.325 . S
Tb320 O333 2.303 . S
Tb320 O337 2.322 . S
Tb320 O338 2.349 . S
Tb320 O341 2.415 . S
Tb320 O342 2.399 . S
Tb321 O331 2.322 . S
Tb321 O332 2.349 . S
Tb321 O334 2.415 . S
Tb321 O335 2.399 . S
Tb321 O336 2.325 . S
Tb321 O339 2.303 . S
Tb321 C350 2.764 . S
C322 O338 1.261 . S
C322 O339 1.257 . S
C323 C326 1.358 . S
C323 C327 1.332 . S
C323 C329 1.504 . S
C324 C325 1.373 . S
C324 C328 1.308 . S
C325 C324 1.373 . S
C325 C326 1.429 . S
C325 H352 0.932 . S
C326 C323 1.358 . S
C326 C325 1.429 . S
C326 H353 0.930 . S
C327 C323 1.332 . S
C327 C328 1.394 . S
C327 H354 0.932 . S
C328 C324 1.308 . S
C328 C327 1.394 . S
C328 H355 0.929 . S
C329 Tb320 2.764 . S
C329 C323 1.504 . S
C329 O341 1.239 . S
C329 O342 1.263 . S
O330 Tb320 2.325 . S
O330 C340 1.236 . S
O331 Tb321 2.322 . S
O331 C340 1.257 . S
O332 Tb321 2.349 . S
O332 C343 1.261 . S
O333 Tb320 2.303 . S
O333 C343 1.257 . S
O334 Tb321 2.415 . S
O334 C350 1.239 . S
O335 Tb321 2.399 . S
O335 C350 1.263 . S
O336 Tb321 2.325 . S
O336 C351 1.236 . S
O337 Tb320 2.322 . S
O337 C351 1.257 . S
O338 Tb320 2.349 . S
O338 C322 1.261 . S
O339 Tb321 2.303 . S
O339 C322 1.257 . S
C340 O330 1.236 . S
C340 O331 1.257 . S
O341 Tb320 2.415 . S
O341 C329 1.239 . S
O342 Tb320 2.399 . S
O342 C329 1.263 . S
C343 O332 1.261 . S
C343 O333 1.257 . S
C344 C347 1.358 . S
C344 C348 1.332 . S
C344 C350 1.504 . S
C345 C346 1.373 . S
C345 C349 1.308 . S
C346 C345 1.373 . S
C346 C347 1.429 1_455 S
C346 H356 0.932 . S
C347 C344 1.358 . S
C347 C346 1.429 1_655 S
C347 H357 0.930 . S
C348 C344 1.332 . S
C348 C349 1.394 1_655 S
C348 H358 0.932 . S
C349 C345 1.308 . S
C349 C348 1.394 1_455 S
C349 H359 0.929 . S
C350 Tb321 2.764 . S
C350 O334 1.239 . S
C350 O335 1.263 . S
C350 C344 1.504 . S
C351 O336 1.236 . S
C351 O337 1.257 . S
H352 C325 0.932 . S
H353 C326 0.930 . S
H354 C327 0.932 . S
H355 C328 0.929 . S
H356 C346 0.932 . S
H357 C347 0.930 . S
H358 C348 0.932 . S
H359 C349 0.929 . S
C360 C361 1.369 . S
C360 C362 1.419 . S
C360 H364 0.930 . S
C361 C360 1.369 . S
C361 C370 1.429 1_556 S
C362 C360 1.419 . S
C362 C363 1.363 . S
C362 H365 0.929 . S
C363 C362 1.363 . S
C363 C369 1.428 1_556 S
H364 C360 0.930 . S
H365 C362 0.929 . S
S366 N367 1.613 . S
S366 N368 1.610 . S
N367 S366 1.613 . S
N367 C370 1.350 . S
N368 S366 1.610 . S
N368 C369 1.351 . S
C369 C363 1.428 1_554 S
C369 N368 1.351 . S
C369 C370 1.434 . S
C370 C361 1.429 1_554 S
C370 N367 1.350 . S
C370 C369 1.434 . S
C371 C372 1.369 1_556 S
C371 C373 1.419 . S
C371 H375 0.930 . S
C372 C371 1.369 1_554 S
C372 C381 1.429 . S
C373 C371 1.419 . S
C373 C374 1.365 . S
C373 H376 0.929 . S
C374 C373 1.365 . S
C374 C380 1.426 1_556 S
H375 C371 0.930 . S
H376 C373 0.929 . S
S377 N378 1.613 . S
S377 N379 1.610 . S
N378 S377 1.613 . S
N378 C381 1.350 . S
N379 S377 1.610 . S
N379 C380 1.351 . S
C380 C374 1.426 1_554 S
C380 N379 1.351 . S
C380 C381 1.434 . S
C381 C372 1.429 . S
C381 N378 1.350 . S
C381 C380 1.434 . S
C382 C383 1.369 1_554 S
C382 C384 1.419 . S
C382 H386 0.930 . S
C383 C382 1.369 1_556 S
C383 C392 1.429 . S
C384 C382 1.419 . S
C384 C385 1.363 . S
C384 H387 0.929 . S
C385 C384 1.363 . S
C385 C391 1.428 1_554 S
H386 C382 0.930 . S
H387 C384 0.929 . S
S388 N389 1.613 . S
S388 N390 1.610 . S
N389 S388 1.613 . S
N389 C392 1.350 . S
N390 S388 1.610 . S
N390 C391 1.351 . S
C391 C385 1.428 1_556 S
C391 N390 1.351 . S
C391 C392 1.434 . S
C392 C383 1.429 . S
C392 N389 1.350 . S
C392 C391 1.434 . S
C393 C394 1.369 . S
C393 C395 1.419 . S
C393 H397 0.930 . S
C394 C393 1.369 . S
C394 C403 1.429 1_554 S
C395 C393 1.419 . S
C395 C396 1.363 . S
C395 H398 0.929 . S
C396 C395 1.363 . S
C396 C402 1.428 1_554 S
H397 C393 0.930 . S
H398 C395 0.929 . S
S399 N400 1.613 . S
S399 N401 1.610 . S
N400 S399 1.613 . S
N400 C403 1.350 . S
N401 S399 1.610 . S
N401 C402 1.351 . S
C402 C396 1.428 1_556 S
C402 N401 1.351 . S
C402 C403 1.434 . S
C403 C394 1.429 1_556 S
C403 N400 1.350 . S
C403 C402 1.434 . S
C404 C405 1.386 . S
C404 C406 1.418 1_554 S
C404 H408 0.914 1_554 S
C405 C404 1.386 . S
C405 C414 1.429 . S
C406 C404 1.418 1_556 S
C406 C407 1.365 1_556 S
C406 H409 0.928 . S
C407 C406 1.365 1_554 S
C407 C413 1.428 . S
H408 C404 0.914 1_556 S
H409 C406 0.928 . S
S410 N411 1.613 . S
S410 N412 1.610 . S
N411 S410 1.613 . S
N411 C414 1.350 . S
N412 S410 1.610 . S
N412 C413 1.351 . S
C413 C407 1.428 . S
C413 N412 1.351 . S
C413 C414 1.434 . S
C414 C405 1.429 . S
C414 N411 1.350 . S
C414 C413 1.434 . S
C415 C416 1.369 . S
C415 C417 1.419 . S
C415 H419 0.930 . S
C416 C415 1.369 . S
C416 C425 1.429 . S
C417 C415 1.419 . S
C417 C418 1.363 . S
C417 H420 0.929 . S
C418 C417 1.363 . S
C418 C424 1.428 . S
H419 C415 0.930 . S
H420 C417 0.929 . S
S421 N422 1.613 1_556 S
S421 N423 1.610 . S
N422 S421 1.613 1_554 S
N422 C425 1.350 . S
N423 S421 1.610 . S
N423 C424 1.351 1_556 S
C424 C418 1.428 . S
C424 N423 1.351 1_554 S
C424 C425 1.434 . S
C425 C416 1.429 . S
C425 N422 1.350 . S
C425 C424 1.434 . S
C426 C427 1.369 . S
C426 C428 1.419 1_655 S
C426 H430 0.930 . S
C427 C426 1.369 . S
C427 C436 1.429 . S
C428 C426 1.419 1_455 S
C428 C429 1.363 . S
C428 H431 0.929 . S
C429 C428 1.363 . S
C429 C435 1.428 . S
H430 C426 0.930 . S
H431 C428 0.929 . S
S432 N433 1.613 1_455 S
S432 N434 1.610 . S
N433 S432 1.613 1_655 S
N433 C436 1.350 . S
N434 S432 1.610 . S
N434 C435 1.351 . S
C435 C429 1.428 . S
C435 N434 1.351 . S
C435 C436 1.434 1_455 S
C436 C427 1.429 . S
C436 N433 1.350 . S
C436 C435 1.434 1_655 S
C437 C438 1.369 . S
C437 C439 1.419 . S
C437 H441 0.930 . S
C438 C437 1.369 . S
C438 C447 1.429 . S
C439 C437 1.419 . S
C439 C440 1.363 . S
C439 H442 0.929 . S
C440 C439 1.363 . S
C440 C446 1.428 . S
H441 C437 0.930 . S
H442 C439 0.929 . S
S443 N444 1.613 . S
S443 N445 1.610 . S
N444 S443 1.613 . S
N444 C447 1.350 . S
N445 S443 1.610 . S
N445 C446 1.351 . S
C446 C440 1.428 . S
C446 N445 1.351 . S
C446 C447 1.434 . S
C447 C438 1.429 . S
C447 N444 1.350 . S
C447 C446 1.434 . S
C448 C449 1.369 1_565 S
C448 C450 1.419 . S
C448 H452 0.930 . S
C449 C448 1.369 1_545 S
C449 C458 1.429 . S
C450 C448 1.419 . S
C450 C451 1.363 . S
C450 H453 0.929 . S
C451 C450 1.363 . S
C451 C457 1.428 . S
H452 C448 0.930 . S
H453 C450 0.929 . S
S454 N455 1.613 . S
S454 N456 1.610 1_545 S
N455 S454 1.613 . S
N455 C458 1.350 . S
N456 S454 1.610 1_565 S
N456 C457 1.351 . S
C457 C451 1.428 . S
C457 N456 1.351 . S
C457 C458 1.434 1_565 S
C458 C449 1.429 . S
C458 N455 1.350 . S
C458 C457 1.434 1_545 S
C459 C460 1.369 . S
C459 C461 1.419 . S
C459 H463 0.930 . S
C460 C459 1.369 . S
C460 C469 1.429 . S
C461 C459 1.419 . S
C461 C462 1.363 . S
C461 H464 0.929 . S
C462 C461 1.363 . S
C462 C468 1.428 . S
H463 C459 0.930 . S
H464 C461 0.929 . S
S465 N466 1.613 . S
S465 N467 1.610 . S
N466 S465 1.613 . S
N466 C469 1.350 . S
N467 S465 1.610 . S
N467 C468 1.351 . S
C468 C462 1.428 . S
C468 N467 1.351 . S
C468 C469 1.434 . S
C469 C460 1.429 . S
C469 N466 1.350 . S
C469 C468 1.434 . S
C470 C471 1.369 . S
C470 C472 1.419 . S
C470 H474 0.930 . S
C471 C470 1.369 . S
C471 C480 1.429 . S
C472 C470 1.419 . S
C472 C473 1.363 . S
C472 H475 0.929 . S
C473 C472 1.363 . S
C473 C479 1.428 . S
H474 C470 0.930 . S
H475 C472 0.929 . S
S476 N477 1.613 . S
S476 N478 1.610 . S
N477 S476 1.613 . S
N477 C480 1.350 . S
N478 S476 1.610 . S
N478 C479 1.351 . S
C479 C473 1.428 . S
C479 N478 1.351 . S
C479 C480 1.434 . S
C480 C471 1.429 . S
C480 N477 1.350 . S
C480 C479 1.434 . S
C481 C482 1.369 . S
C481 C483 1.419 . S
C481 H485 0.930 . S
C482 C481 1.369 . S
C482 C491 1.429 . S
C483 C481 1.419 . S
C483 C484 1.363 . S
C483 H486 0.929 . S
C484 C483 1.363 . S
C484 C490 1.428 . S
H485 C481 0.930 . S
H486 C483 0.929 . S
S487 N488 1.613 . S
S487 N489 1.610 . S
N488 S487 1.613 . S
N488 C491 1.350 . S
N489 S487 1.610 . S
N489 C490 1.351 . S
C490 C484 1.428 . S
C490 N489 1.351 . S
C490 C491 1.434 . S
C491 C482 1.429 . S
C491 N488 1.350 . S
C491 C490 1.434 . S
C492 C493 1.369 . S
C492 C494 1.419 . S
C492 H496 0.930 . S
C493 C492 1.369 . S
C493 C502 1.429 . S
C494 C492 1.419 . S
C494 C495 1.363 . S
C494 H497 0.929 . S
C495 C494 1.363 . S
C495 C501 1.428 . S
H496 C492 0.930 . S
H497 C494 0.929 . S
S498 N499 1.613 . S
S498 N500 1.610 . S
N499 S498 1.613 . S
N499 C502 1.350 . S
N500 S498 1.610 . S
N500 C501 1.351 . S
C501 C495 1.428 . S
C501 N500 1.351 . S
C501 C502 1.434 . S
C502 C493 1.429 . S
C502 N499 1.350 . S
C502 C501 1.434 . S
C503 C504 1.369 . S
C503 C505 1.419 . S
C503 H507 0.930 . S
C504 C503 1.369 . S
C504 C513 1.429 . S
C505 C503 1.419 . S
C505 C506 1.363 . S
C505 H508 0.929 . S
C506 C505 1.363 . S
C506 C512 1.428 . S
H507 C503 0.930 . S
H508 C505 0.929 . S
S509 N510 1.613 . S
S509 N511 1.610 . S
N510 S509 1.613 . S
N510 C513 1.350 . S
N511 S509 1.610 . S
N511 C512 1.351 . S
C512 C506 1.428 . S
C512 N511 1.351 . S
C512 C513 1.434 . S
C513 C504 1.429 . S
C513 N510 1.350 . S
C513 C512 1.434 . S
C514 C515 1.369 . S
C514 C516 1.419 . S
C514 H518 0.930 . S
C515 C514 1.369 . S
C515 C524 1.429 . S
C516 C514 1.419 . S
C516 C517 1.363 . S
C516 H519 0.929 . S
C517 C516 1.363 . S
C517 C523 1.428 . S
H518 C514 0.930 . S
H519 C516 0.929 . S
S520 N521 1.613 . S
S520 N522 1.610 . S
N521 S520 1.613 . S
N521 C524 1.350 . S
N522 S520 1.610 . S
N522 C523 1.351 . S
C523 C517 1.428 . S
C523 N522 1.351 . S
C523 C524 1.434 . S
C524 C515 1.429 . S
C524 N521 1.350 . S
C524 C523 1.434 . S
C525 C526 1.369 . S
C525 C527 1.419 . S
C525 H529 0.930 . S
C526 C525 1.369 . S
C526 C535 1.429 . S
C527 C525 1.419 . S
C527 C528 1.363 1_565 S
C527 H530 0.929 . S
C528 C527 1.363 1_545 S
C528 C534 1.428 1_545 S
H529 C525 0.930 . S
H530 C527 0.929 . S
S531 N532 1.613 . S
S531 N533 1.610 1_565 S
N532 S531 1.613 . S
N532 C535 1.350 . S
N533 S531 1.610 1_545 S
N533 C534 1.351 1_545 S
C534 C528 1.428 1_565 S
C534 N533 1.351 1_565 S
C534 C535 1.434 . S
C535 C526 1.429 . S
C535 N532 1.350 . S
C535 C534 1.434 . S
C536 C537 1.369 . S
C536 C538 1.419 . S
C536 H540 0.930 . S
C537 C536 1.369 . S
C537 C546 1.429 1_565 S
C538 C536 1.419 . S
C538 C539 1.363 . S
C538 H541 0.929 . S
C539 C538 1.363 . S
C539 C545 1.428 1_565 S
H540 C536 0.930 . S
H541 C538 0.929 . S
S542 N543 1.613 . S
S542 N544 1.610 . S
N543 S542 1.613 . S
N543 C546 1.350 . S
N544 S542 1.610 . S
N544 C545 1.351 . S
C545 C539 1.428 1_545 S
C545 N544 1.351 . S
C545 C546 1.434 . S
C546 C537 1.429 1_545 S
C546 N543 1.350 . S
C546 C545 1.434 . S
C547 C548 1.369 . S
C547 C549 1.419 . S
C547 H551 0.930 . S
C548 C547 1.369 . S
C548 C557 1.429 . S
C549 C547 1.419 . S
C549 C550 1.363 . S
C549 H552 0.929 . S
C550 C549 1.363 . S
C550 C556 1.428 . S
H551 C547 0.930 . S
H552 C549 0.929 . S
S553 N554 1.613 . S
S553 N555 1.610 . S
N554 S553 1.613 . S
N554 C557 1.350 . S
N555 S553 1.610 . S
N555 C556 1.351 . S
C556 C550 1.428 . S
C556 N555 1.351 . S
C556 C557 1.434 . S
C557 C548 1.429 . S
C557 N554 1.350 . S
C557 C556 1.434 . S
C558 C559 1.369 . S
C558 C560 1.419 . S
C558 H562 0.930 . S
C559 C558 1.369 . S
C559 C568 1.429 . S
C560 C558 1.419 . S
C560 C561 1.363 . S
C560 H563 0.929 . S
C561 C560 1.363 . S
C561 C567 1.428 . S
H562 C558 0.930 . S
H563 C560 0.929 . S
S564 N565 1.613 . S
S564 N566 1.610 . S
N565 S564 1.613 . S
N565 C568 1.350 . S
N566 S564 1.610 . S
N566 C567 1.351 . S
C567 C561 1.428 . S
C567 N566 1.351 . S
C567 C568 1.434 . S
C568 C559 1.429 . S
C568 N565 1.350 . S
C568 C567 1.434 . S
C569 C570 1.369 . S
C569 C571 1.419 . S
C569 H573 0.930 . S
C570 C569 1.369 . S
C570 C579 1.429 . S
C571 C569 1.419 . S
C571 C572 1.363 . S
C571 H574 0.929 . S
C572 C571 1.363 . S
C572 C578 1.428 . S
H573 C569 0.930 . S
H574 C571 0.929 . S
S575 N576 1.613 . S
S575 N577 1.610 . S
N576 S575 1.613 . S
N576 C579 1.350 . S
N577 S575 1.610 . S
N577 C578 1.351 . S
C578 C572 1.428 . S
C578 N577 1.351 . S
C578 C579 1.434 . S
C579 C570 1.429 . S
C579 N576 1.350 . S
C579 C578 1.434 . S
C580 C581 1.369 . S
C580 C582 1.419 . S
C580 H584 0.930 . S
C581 C580 1.369 . S
C581 C590 1.429 . S
C582 C580 1.419 . S
C582 C583 1.363 . S
C582 H585 0.929 . S
C583 C582 1.363 . S
C583 C589 1.428 . S
H584 C580 0.930 . S
H585 C582 0.929 . S
S586 N587 1.613 . S
S586 N588 1.610 1_545 S
N587 S586 1.613 . S
N587 C590 1.350 1_545 S
N588 S586 1.610 1_565 S
N588 C589 1.351 . S
C589 C583 1.428 . S
C589 N588 1.351 . S
C589 C590 1.434 . S
C590 C581 1.429 . S
C590 N587 1.350 1_565 S
C590 C589 1.434 . S
C591 C592 1.369 . S
C591 C593 1.419 . S
C591 H595 0.930 . S
C592 C591 1.369 . S
C592 C601 1.429 . S
C593 C591 1.419 . S
C593 C594 1.363 . S
C593 H596 0.929 . S
C594 C593 1.363 . S
C594 C600 1.428 . S
H595 C591 0.930 . S
H596 C593 0.929 . S
S597 N598 1.613 . S
S597 N599 1.610 . S
N598 S597 1.613 . S
N598 C601 1.350 1_565 S
N599 S597 1.610 . S
N599 C600 1.351 1_565 S
C600 C594 1.428 . S
C600 N599 1.351 1_545 S
C600 C601 1.434 . S
C601 C592 1.429 . S
C601 N598 1.350 1_545 S
C601 C600 1.434 . S
C602 C603 1.369 . S
C602 C604 1.419 . S
C602 H606 0.930 . S
C603 C602 1.369 . S
C603 C612 1.429 . S
C604 C602 1.419 . S
C604 C605 1.363 . S
C604 H607 0.929 . S
C605 C604 1.363 . S
C605 C611 1.428 . S
H606 C602 0.930 . S
H607 C604 0.929 . S
S608 N609 1.613 . S
S608 N610 1.610 1_455 S
N609 S608 1.613 . S
N609 C612 1.350 1_455 S
N610 S608 1.610 1_655 S
N610 C611 1.351 . S
C611 C605 1.428 . S
C611 N610 1.351 . S
C611 C612 1.434 . S
C612 C603 1.429 . S
C612 N609 1.350 1_655 S
C612 C611 1.434 . S
C613 C614 1.369 . S
C613 C615 1.419 . S
C613 H617 0.930 . S
C614 C613 1.369 . S
C614 C623 1.429 . S
C615 C613 1.419 . S
C615 C616 1.363 . S
C615 H618 0.929 . S
C616 C615 1.363 . S
C616 C622 1.428 . S
H617 C613 0.930 . S
H618 C615 0.929 . S
S619 N620 1.613 . S
S619 N621 1.610 . S
N620 S619 1.613 . S
N620 C623 1.350 . S
N621 S619 1.610 . S
N621 C622 1.351 . S
C622 C616 1.428 . S
C622 N621 1.351 . S
C622 C623 1.434 . S
C623 C614 1.429 . S
C623 N620 1.350 . S
C623 C622 1.434 . S
C624 C625 1.369 . S
C624 C626 1.419 . S
C624 H628 0.930 . S
C625 C624 1.369 . S
C625 C634 1.429 . S
C626 C624 1.419 . S
C626 C627 1.363 . S
C626 H629 0.929 . S
C627 C626 1.363 . S
C627 C633 1.428 . S
H628 C624 0.930 . S
H629 C626 0.929 . S
S630 N631 1.613 . S
S630 N632 1.610 . S
N631 S630 1.613 . S
N631 C634 1.350 . S
N632 S630 1.610 . S
N632 C633 1.351 . S
C633 C627 1.428 . S
C633 N632 1.351 . S
C633 C634 1.434 . S
C634 C625 1.429 . S
C634 N631 1.350 . S
C634 C633 1.434 . S
C635 C636 1.369 . S
C635 C637 1.419 . S
C635 H639 0.930 . S
C636 C635 1.369 . S
C636 C645 1.429 1_565 S
C637 C635 1.419 . S
C637 C638 1.363 1_565 S
C637 H640 0.929 . S
C638 C637 1.363 1_545 S
C638 C644 1.428 . S
H639 C635 0.930 . S
H640 C637 0.929 . S
S641 N642 1.613 . S
S641 N643 1.610 . S
N642 S641 1.613 . S
N642 C645 1.350 . S
N643 S641 1.610 . S
N643 C644 1.351 . S
C644 C638 1.428 . S
C644 N643 1.351 . S
C644 C645 1.434 . S
C645 C636 1.429 1_545 S
C645 N642 1.350 . S
C645 C644 1.434 . S
C646 C647 1.371 . S
C646 C648 1.413 1_655 S
C646 H650 0.934 . S
C647 C646 1.371 . S
C647 C656 1.429 . S
C648 C646 1.413 1_455 S
C648 C649 1.363 . S
C648 H651 0.929 . S
C649 C648 1.363 . S
C649 C655 1.428 . S
H650 C646 0.934 . S
H651 C648 0.929 . S
S652 N653 1.613 . S
S652 N654 1.610 1_655 S
N653 S652 1.613 . S
N653 C656 1.350 . S
N654 S652 1.610 1_455 S
N654 C655 1.351 . S
C655 C649 1.428 . S
C655 N654 1.351 . S
C655 C656 1.434 1_455 S
C656 C647 1.429 . S
C656 N653 1.350 . S
C656 C655 1.434 1_655 S
C361 C65 1.002 . S
C363 C4 0.910 1_556 S
C372 C100 3.498 . S
C374 C71 3.553 . S
C383 C84 1.067 1_556 S
C385 C20 1.065 . S
C394 C111 3.122 . S
C396 C60 3.094 . S
C405 C105 2.316 . S
C407 C31 2.319 . S
C416 C25 0.803 . S
C418 C44 0.846 . S
C427 C124 2.960 . S
C429 C180 3.005 . S
C438 C220 1.179 . S
C440 C164 1.228 . S
C449 C204 0.900 . S
C451 C140 0.895 . S
C460 C185 0.685 . S
C462 C231 0.667 . S
C471 C225 2.375 . S
C473 C151 2.373 . S
C482 C191 2.399 . S
C484 C145 2.403 . S
C493 C305 0.965 . S
C495 C244 0.902 . S
C504 C311 3.586 . S
C506 C340 3.533 . S
C515 C324 1.089 . S
C517 C260 1.088 . S
C526 C351 3.057 . S
C528 C300 3.032 . S
C537 C345 2.337 . S
C539 C271 2.338 1_565 S
C548 C265 0.785 . S
C550 C284 0.868 . S
C559 C202 2.369 . S
C561 C23 2.743 . S
C570 C122 2.015 . S
C572 C42 1.957 . S
C581 C103 3.183 . S
C583 C162 2.933 . S
C592 C82 2.370 . S
C594 C263 2.748 . S
C603 C2 1.972 . S
C605 C282 1.895 . S
C614 C343 3.158 . S
C616 C63 3.186 . S
C625 C143 2.814 . S
C627 C322 2.443 . S
C636 C183 2.165 . S
C638 C242 1.989 . S
C647 C303 3.143 . S
C649 C223 3.108 . S
