# Generated by pormake.
# Topology ukt, (4)-cn, num edge types: 1
# Building blocks:
#     Node 0, Type 0, BuildingBlock: QUQFOY_clean_sbu_1, # of connection points: 4
#     Node 1, Type 0, BuildingBlock: QUQFOY_clean_sbu_1, # of connection points: 4
#     Node 2, Type 0, BuildingBlock: QUQFOY_clean_sbu_1, # of connection points: 4
#     Node 3, Type 0, BuildingBlock: QUQFOY_clean_sbu_1, # of connection points: 4
#     Node 4, Type 0, BuildingBlock: QUQFOY_clean_sbu_1, # of connection points: 4
#     Node 5, Type 0, BuildingBlock: QUQFOY_clean_sbu_1, # of connection points: 4
#     Node 6, Type 0, BuildingBlock: QUQFOY_clean_sbu_1, # of connection points: 4
#     Node 7, Type 0, BuildingBlock: QUQFOY_clean_sbu_1, # of connection points: 4
#     Node 8, Type 0, BuildingBlock: QUQFOY_clean_sbu_1, # of connection points: 4
#     Node 9, Type 0, BuildingBlock: QUQFOY_clean_sbu_1, # of connection points: 4
#     Node 10, Type 0, BuildingBlock: QUQFOY_clean_sbu_1, # of connection points: 4
#     Node 11, Type 0, BuildingBlock: QUQFOY_clean_sbu_1, # of connection points: 4
#     Node 12, Type 0, BuildingBlock: QUQFOY_clean_sbu_1, # of connection points: 4
#     Node 13, Type 0, BuildingBlock: QUQFOY_clean_sbu_1, # of connection points: 4
#     Node 14, Type 0, BuildingBlock: QUQFOY_clean_sbu_1, # of connection points: 4
#     Node 15, Type 0, BuildingBlock: QUQFOY_clean_sbu_1, # of connection points: 4
#     Edge 16, Type (0, 0), BuildingBlock: XIVTED_clean_linker_0, # of connection points: 2
#     Edge 17, Type (0, 0), BuildingBlock: XIVTED_clean_linker_0, # of connection points: 2
#     Edge 18, Type (0, 0), BuildingBlock: XIVTED_clean_linker_0, # of connection points: 2
#     Edge 19, Type (0, 0), BuildingBlock: XIVTED_clean_linker_0, # of connection points: 2
#     Edge 20, Type (0, 0), BuildingBlock: XIVTED_clean_linker_0, # of connection points: 2
#     Edge 21, Type (0, 0), BuildingBlock: XIVTED_clean_linker_0, # of connection points: 2
#     Edge 22, Type (0, 0), BuildingBlock: XIVTED_clean_linker_0, # of connection points: 2
#     Edge 23, Type (0, 0), BuildingBlock: XIVTED_clean_linker_0, # of connection points: 2
#     Edge 24, Type (0, 0), BuildingBlock: XIVTED_clean_linker_0, # of connection points: 2
#     Edge 25, Type (0, 0), BuildingBlock: XIVTED_clean_linker_0, # of connection points: 2
#     Edge 26, Type (0, 0), BuildingBlock: XIVTED_clean_linker_0, # of connection points: 2
#     Edge 27, Type (0, 0), BuildingBlock: XIVTED_clean_linker_0, # of connection points: 2
#     Edge 28, Type (0, 0), BuildingBlock: XIVTED_clean_linker_0, # of connection points: 2
#     Edge 29, Type (0, 0), BuildingBlock: XIVTED_clean_linker_0, # of connection points: 2
#     Edge 30, Type (0, 0), BuildingBlock: XIVTED_clean_linker_0, # of connection points: 2
#     Edge 31, Type (0, 0), BuildingBlock: XIVTED_clean_linker_0, # of connection points: 2
#     Edge 32, Type (0, 0), BuildingBlock: XIVTED_clean_linker_0, # of connection points: 2
#     Edge 33, Type (0, 0), BuildingBlock: XIVTED_clean_linker_0, # of connection points: 2
#     Edge 34, Type (0, 0), BuildingBlock: XIVTED_clean_linker_0, # of connection points: 2
#     Edge 35, Type (0, 0), BuildingBlock: XIVTED_clean_linker_0, # of connection points: 2
#     Edge 36, Type (0, 0), BuildingBlock: XIVTED_clean_linker_0, # of connection points: 2
#     Edge 37, Type (0, 0), BuildingBlock: XIVTED_clean_linker_0, # of connection points: 2
#     Edge 38, Type (0, 0), BuildingBlock: XIVTED_clean_linker_0, # of connection points: 2
#     Edge 39, Type (0, 0), BuildingBlock: XIVTED_clean_linker_0, # of connection points: 2
#     Edge 40, Type (0, 0), BuildingBlock: XIVTED_clean_linker_0, # of connection points: 2
#     Edge 41, Type (0, 0), BuildingBlock: XIVTED_clean_linker_0, # of connection points: 2
#     Edge 42, Type (0, 0), BuildingBlock: XIVTED_clean_linker_0, # of connection points: 2
#     Edge 43, Type (0, 0), BuildingBlock: XIVTED_clean_linker_0, # of connection points: 2
#     Edge 44, Type (0, 0), BuildingBlock: XIVTED_clean_linker_0, # of connection points: 2
#     Edge 45, Type (0, 0), BuildingBlock: XIVTED_clean_linker_0, # of connection points: 2
#     Edge 46, Type (0, 0), BuildingBlock: XIVTED_clean_linker_0, # of connection points: 2
#     Edge 47, Type (0, 0), BuildingBlock: XIVTED_clean_linker_0, # of connection points: 2
# Relax obj value: 0.122
# Max RMSD: 0.086
# Mean RMSD: 0.086
data_MOF--net-ukt--node1-QUQFOY_clean_sbu_1--edge1-XIVTED_clean_linker_0
_symmetry_space_group_name_H-M    P1
_symmetry_Int_Tables_number       1
_symmetry_cell_setting            triclinic
loop_
_symmetry_equiv_pos_as_xyz
'x, y, z'
_cell_length_a     44.852331
_cell_length_b     44.791706
_cell_length_c     40.8008
_cell_angle_alpha  90.013745
_cell_angle_beta   89.998306
_cell_angle_gamma 90.24129
loop_
_atom_site_label
_atom_site_type_symbol
_atom_site_fract_x
_atom_site_fract_y
_atom_site_fract_z
_atom_type_partial_charge
O0 O 0.59077 0.11665 0.046 0.0
Cd1 Cd 0.5523 0.13629 0.03092 0.0
Cd2 Cd 0.5741 0.17254 0.09203 0.0
O3 O 0.60534 0.13859 0.09185 0.0
O4 O 0.54424 0.11014 0.99259 0.0
O5 O 0.51607 0.11024 0.03699 0.0
C6 C 0.52292 0.09826 0.0092 0.0
C7 C 0.56721 0.19674 0.14244 0.0
C8 C 0.60837 0.11845 0.07022 0.0
C9 C 0.56322 0.20185 0.02369 0.0
O10 O 0.57167 0.20217 0.05343 0.0
O11 O 0.5538 0.17809 0.01013 0.0
O12 O 0.59147 0.19931 0.12592 0.0
O13 O 0.54659 0.17958 0.1308 0.0
O14 O 0.36084 0.59346 0.05357 0.0
Cd15 Cd 0.35449 0.54962 0.04174 0.0
Cd16 Cd 0.30163 0.56534 0.08935 0.0
O17 O 0.32279 0.60633 0.08492 0.0
O18 O 0.38478 0.54798 0.00637 0.0
O19 O 0.38877 0.5219 0.05194 0.0
C20 C 0.40007 0.53022 0.02431 0.0
C21 C 0.27387 0.55975 0.13787 0.0
C22 C 0.34677 0.61286 0.06995 0.0
C23 C 0.29051 0.53821 0.02095 0.0
O24 O 0.28123 0.54731 0.04863 0.0
O25 O 0.31806 0.53786 0.01397 0.0
O26 O 0.26599 0.57779 0.11501 0.0
O27 O 0.29785 0.54444 0.13339 0.0
O28 O 0.90688 0.3674 0.03994 0.0
Cd29 Cd 0.94497 0.34276 0.04581 0.0
Cd30 Cd 0.90769 0.31995 0.09027 0.0
O31 O 0.88711 0.36087 0.08866 0.0
O32 O 0.96998 0.36492 0.01416 0.0
O33 O 0.97794 0.36622 0.06755 0.0
C34 C 0.98344 0.37687 0.03875 0.0
C35 C 0.91369 0.29465 0.13975 0.0
C36 C 0.88833 0.37507 0.06181 0.0
C37 C 0.92044 0.28559 0.02879 0.0
O38 O 0.90115 0.2926 0.05021 0.0
O39 O 0.94467 0.30021 0.02666 0.0
O40 O 0.88788 0.29782 0.12639 0.0
O41 O 0.93637 0.30695 0.12552 0.0
O42 O 0.13908 0.90254 0.06233 0.0
Cd43 Cd 0.14716 0.94733 0.05916 0.0
Cd44 Cd 0.19512 0.92192 0.10363 0.0
O45 O 0.1727 0.88216 0.09471 0.0
O46 O 0.11741 0.95507 0.02435 0.0
O47 O 0.11342 0.97413 0.07392 0.0
C48 C 0.10218 0.97012 0.04513 0.0
C49 C 0.21583 0.92878 0.15557 0.0
C50 C 0.14983 0.87983 0.07652 0.0
C51 C 0.2114 0.95654 0.04085 0.0
O52 O 0.21883 0.94163 0.06605 0.0
O53 O 0.18428 0.96176 0.03437 0.0
O54 O 0.22788 0.91132 0.13435 0.0
O55 O 0.1914 0.94213 0.14763 0.0
O56 O 0.56786 0.3469 0.47815 0.0
Cd57 Cd 0.52429 0.33534 0.47191 0.0
Cd58 Cd 0.54795 0.3177 0.41168 0.0
O59 O 0.57646 0.3522 0.42546 0.0
O60 O 0.50475 0.36028 0.50547 0.0
O61 O 0.49957 0.36748 0.45197 0.0
C62 C 0.49569 0.37687 0.48166 0.0
C63 C 0.54876 0.30474 0.35602 0.0
C64 C 0.58348 0.35755 0.45505 0.0
C65 C 0.52823 0.27218 0.46465 0.0
O66 O 0.54398 0.27947 0.43996 0.0
O67 O 0.51374 0.29175 0.48038 0.0
O68 O 0.57145 0.30101 0.37476 0.0
O69 O 0.52541 0.31708 0.36846 0.0
O70 O 0.12475 0.58274 0.47406 0.0
Cd71 Cd 0.13666 0.53993 0.4641 0.0
Cd72 Cd 0.15568 0.56688 0.40796 0.0
O73 O 0.12284 0.59671 0.42248 0.0
O74 O 0.11094 0.51753 0.49481 0.0
O75 O 0.10515 0.51658 0.44081 0.0
C76 C 0.09501 0.51026 0.46969 0.0
C77 C 0.16656 0.56306 0.35207 0.0
C78 C 0.11615 0.60101 0.45237 0.0
C79 C 0.2002 0.54473 0.45948 0.0
O80 O 0.19386 0.56222 0.43594 0.0
O81 O 0.18003 0.52924 0.47321 0.0
O82 O 0.17184 0.5871 0.36833 0.0
O83 O 0.15375 0.54116 0.36716 0.0
O84 O 0.91845 0.14306 0.47355 0.0
Cd85 Cd 0.96169 0.15241 0.46236 0.0
Cd86 Cd 0.93446 0.16799 0.40439 0.0
O87 O 0.90587 0.13511 0.42226 0.0
O88 O 0.98311 0.12732 0.49425 0.0
O89 O 0.98307 0.11882 0.44065 0.0
C90 C 0.98924 0.10986 0.47003 0.0
C91 C 0.93138 0.17918 0.34841 0.0
C92 C 0.90082 0.13173 0.45268 0.0
C93 C 0.95919 0.21505 0.45297 0.0
O94 O 0.94132 0.2072 0.43031 0.0
O95 O 0.97444 0.19575 0.46819 0.0
O96 O 0.90966 0.18408 0.3682 0.0
O97 O 0.9548 0.16627 0.35997 0.0
O98 O 0.36016 0.90817 0.49599 0.0
Cd99 Cd 0.35055 0.95224 0.49129 0.0
Cd100 Cd 0.32474 0.92855 0.43231 0.0
O101 O 0.35526 0.89538 0.44412 0.0
O102 O 0.37859 0.96968 0.52349 0.0
O103 O 0.38292 0.97603 0.46982 0.0
C104 C 0.39417 0.97878 0.49887 0.0
C105 C 0.30841 0.93075 0.37791 0.0
C106 C 0.3649 0.88999 0.4728 0.0
C107 C 0.28651 0.95447 0.48953 0.0
O108 O 0.28994 0.93935 0.46344 0.0
O109 O 0.30877 0.96509 0.50478 0.0
O110 O 0.30035 0.90958 0.39727 0.0
O111 O 0.32723 0.95025 0.38878 0.0
O112 O 0.39114 0.88266 0.94135 0.0
Cd113 Cd 0.42828 0.85609 0.94248 0.0
Cd114 Cd 0.39038 0.82983 0.89631 0.0
O115 O 0.36926 0.87048 0.89496 0.0
O116 O 0.44864 0.87808 0.9782 0.0
O117 O 0.46526 0.87811 0.92737 0.0
C118 C 0.46655 0.88891 0.95667 0.0
C119 C 0.39751 0.80214 0.84845 0.0
C120 C 0.37181 0.88779 0.9194 0.0
C121 C 0.40103 0.79906 0.96075 0.0
O122 O 0.38296 0.80428 0.9375 0.0
O123 O 0.42469 0.81449 0.96387 0.0
O124 O 0.37143 0.80589 0.86095 0.0
O125 O 0.41984 0.81519 0.86253 0.0
O126 O 0.63484 0.41313 0.94989 0.0
Cd127 Cd 0.65012 0.45613 0.94971 0.0
Cd128 Cd 0.68576 0.42588 0.89689 0.0
O129 O 0.65556 0.39185 0.90681 0.0
O130 O 0.6253 0.4711 0.98623 0.0
O131 O 0.62017 0.48697 0.93536 0.0
C132 C 0.61078 0.48672 0.96527 0.0
C133 C 0.70656 0.42717 0.84425 0.0
C134 C 0.63759 0.39094 0.93086 0.0
C135 C 0.7159 0.45388 0.95773 0.0
O136 O 0.71667 0.43798 0.93195 0.0
O137 O 0.69165 0.46471 0.96824 0.0
O138 O 0.7123 0.40606 0.8646 0.0
O139 O 0.68789 0.44744 0.85326 0.0
O140 O 0.10232 0.60403 0.95034 0.0
Cd141 Cd 0.06629 0.62496 0.97 0.0
Cd142 Cd 0.08603 0.66283 0.90798 0.0
O143 O 0.11591 0.62775 0.90518 0.0
O144 O 0.06026 0.59835 0.00843 0.0
O145 O 0.02846 0.60083 0.96719 0.0
C146 C 0.03699 0.58796 0.99391 0.0
C147 C 0.07829 0.68903 0.85889 0.0
C148 C 0.11882 0.6063 0.92525 0.0
C149 C 0.08027 0.69006 0.97821 0.0
O150 O 0.08638 0.69123 0.9478 0.0
O151 O 0.07141 0.66609 0.99173 0.0
O152 O 0.10322 0.69002 0.87437 0.0
O153 O 0.0574 0.67237 0.87081 0.0
O154 O 0.8622 0.0809 0.95041 0.0
Cd155 Cd 0.84968 0.03899 0.96454 0.0
Cd156 Cd 0.80299 0.05676 0.91098 0.0
O157 O 0.82909 0.09497 0.91342 0.0
O158 O 0.87843 0.03449 0.00111 0.0
O159 O 0.87973 0.00627 0.95684 0.0
C160 C 0.89148 0.01407 0.98444 0.0
C161 C 0.77657 0.0513 0.86151 0.0
C162 C 0.85218 0.10014 0.93056 0.0
C163 C 0.78408 0.03666 0.9805 0.0
O164 O 0.77813 0.0445 0.9513 0.0
O165 O 0.81073 0.03371 0.99033 0.0
O166 O 0.77037 0.07181 0.88239 0.0
O167 O 0.79825 0.03352 0.86841 0.0
O168 O 0.40962 0.62649 0.52749 0.0
Cd169 Cd 0.4529 0.63661 0.53731 0.0
Cd170 Cd 0.42437 0.65761 0.59478 0.0
O171 O 0.3947 0.62484 0.57883 0.0
O172 O 0.47341 0.61056 0.50551 0.0
O173 O 0.47536 0.60377 0.55929 0.0
C174 C 0.4806 0.59394 0.53005 0.0
C175 C 0.41964 0.67355 0.64934 0.0
C176 C 0.39075 0.61833 0.54881 0.0
C177 C 0.45122 0.7001 0.54203 0.0
O178 O 0.4337 0.69436 0.56574 0.0
O179 O 0.4654 0.67946 0.52771 0.0
O180 O 0.39898 0.67767 0.62805 0.0
O181 O 0.44287 0.65877 0.64028 0.0
O182 O 0.85127 0.41293 0.50509 0.0
Cd183 Cd 0.8371 0.45539 0.51315 0.0
Cd184 Cd 0.82327 0.43065 0.57254 0.0
O185 O 0.85887 0.40444 0.55746 0.0
O186 O 0.8614 0.47869 0.48194 0.0
O187 O 0.86731 0.48052 0.53598 0.0
C188 C 0.87709 0.48688 0.50694 0.0
C189 C 0.81257 0.43242 0.62861 0.0
C190 C 0.8638 0.39806 0.5276 0.0
C191 C 0.77471 0.44734 0.52246 0.0
O192 O 0.78377 0.43158 0.54636 0.0
O193 O 0.79282 0.46333 0.50622 0.0
O194 O 0.80964 0.40828 0.61185 0.0
O195 O 0.82329 0.45564 0.61395 0.0
O196 O 0.07884 0.86715 0.53686 0.0
Cd197 Cd 0.03549 0.85377 0.53913 0.0
Cd198 Cd 0.06031 0.82895 0.59982 0.0
O199 O 0.08982 0.86359 0.58934 0.0
O200 O 0.01892 0.87812 0.50305 0.0
O201 O 0.00762 0.88537 0.55526 0.0
C202 C 0.00657 0.89441 0.52519 0.0
C203 C 0.0623 0.81062 0.65366 0.0
C204 C 0.09557 0.87358 0.56088 0.0
C205 C 0.03904 0.78927 0.54146 0.0
O206 O 0.05383 0.79375 0.56761 0.0
O207 O 0.02639 0.81063 0.52665 0.0
O208 O 0.08416 0.8078 0.63359 0.0
O209 O 0.03913 0.825 0.64372 0.0
O210 O 0.63589 0.07335 0.5212 0.0
Cd211 Cd 0.65196 0.03208 0.5321 0.0
Cd212 Cd 0.66501 0.05908 0.58846 0.0
O213 O 0.6293 0.08491 0.57301 0.0
O214 O 0.62799 0.00582 0.50357 0.0
O215 O 0.6233 0.0075 0.55777 0.0
C216 C 0.61308 -0.00108 0.5296 0.0
C217 C 0.67377 0.05407 0.64464 0.0
C218 C 0.62375 0.0895 0.54289 0.0
C219 C 0.7141 0.04364 0.53945 0.0
O220 O 0.70467 0.06018 0.56255 0.0
O221 O 0.6965 0.0258 0.52489 0.0
O222 O 0.67676 0.07928 0.62987 0.0
O223 O 0.66433 0.03153 0.62778 0.0
H224 H 0.57676 0.20808 0.95843 0.0
H225 H 0.59263 0.38507 0.97515 0.0
H226 H 0.55743 0.25855 0.04589 0.0
H227 H 0.64256 0.33464 0.90367 0.0
H228 H 0.56804 0.3394 0.99265 0.0
H229 H 0.58971 0.25496 0.93019 0.0
C230 C 0.57463 0.22906 0.97141 0.0
C231 C 0.56629 0.22957 0.00457 0.0
C232 C 0.58419 0.33831 0.97295 0.0
C233 C 0.58082 0.28277 0.97263 0.0
C234 C 0.59832 0.3644 0.96291 0.0
C235 C 0.6202 0.36362 0.93832 0.0
C236 C 0.59191 0.31107 0.95842 0.0
C237 C 0.62609 0.33619 0.92299 0.0
C238 C 0.5822 0.25567 0.9554 0.0
C239 C 0.56407 0.25721 0.02041 0.0
N240 N 0.61225 0.31083 0.93357 0.0
N241 N 0.57138 0.28266 0.00434 0.0
H242 H 0.11913 0.54872 0.94566 0.0
H243 H 0.29504 0.55249 0.95617 0.0
H244 H 0.17442 0.61503 0.89855 0.0
H245 H 0.23532 0.51336 0.02716 0.0
H246 H 0.253 0.55831 0.91829 0.0
H247 H 0.16335 0.51889 0.95668 0.0
C248 C 0.14055 0.55659 0.93681 0.0
C249 C 0.14337 0.58478 0.92211 0.0
C250 C 0.24937 0.54752 0.94172 0.0
C251 C 0.19393 0.551 0.93508 0.0
C252 C 0.27331 0.54403 0.96326 0.0
C253 C 0.26836 0.53297 0.99499 0.0
C254 C 0.22059 0.53948 0.95202 0.0
C255 C 0.23987 0.52246 0.00307 0.0
C256 C 0.16574 0.53955 0.94311 0.0
C257 C 0.17144 0.59363 0.91047 0.0
N258 N 0.21693 0.52637 0.98189 0.0
N259 N 0.1959 0.57713 0.91803 0.0
H260 H 0.82569 0.15373 0.91738 0.0
H261 H 0.95911 0.24775 0.9973 0.0
H262 H 0.90955 0.11465 0.94594 0.0
H263 H 0.8658 0.26908 0.00695 0.0
H264 H 0.94543 0.20519 0.96207 0.0
H265 H 0.84534 0.20301 0.93239 0.0
C266 C 0.84851 0.15563 0.92586 0.0
C267 C 0.86585 0.13012 0.93107 0.0
C268 C 0.92809 0.21954 0.97159 0.0
C269 C 0.88827 0.18607 0.94832 0.0
C270 C 0.93585 0.24368 0.99165 0.0
C271 C 0.91348 0.26146 0.00548 0.0
C272 C 0.89788 0.21375 0.96491 0.0
C273 C 0.88367 0.25548 0.9973 0.0
C274 C 0.85961 0.18367 0.93463 0.0
C275 C 0.89529 0.13379 0.94216 0.0
N276 N 0.87673 0.23207 0.97764 0.0
N277 N 0.90548 0.16125 0.95085 0.0
H278 H 0.37989 0.93683 0.95757 0.0
H279 H 0.20542 0.95794 0.97429 0.0
H280 H 0.31498 0.89393 0.89506 0.0
H281 H 0.26996 0.9695 0.0517 0.0
H282 H 0.2463 0.95421 0.93463 0.0
H283 H 0.34074 0.96857 0.97971 0.0
C284 C 0.35748 0.93458 0.94792 0.0
C285 C 0.35039 0.91208 0.92524 0.0
C286 C 0.2514 0.95851 0.96015 0.0
C287 C 0.3056 0.94814 0.95069 0.0
C288 C 0.22815 0.96081 0.98276 0.0
C289 C 0.23449 0.96339 0.01634 0.0
C290 C 0.28098 0.95921 0.97133 0.0
C291 C 0.26423 0.96694 0.02606 0.0
C292 C 0.33519 0.95274 0.96055 0.0
C293 C 0.32123 0.91065 0.91298 0.0
N294 N 0.28643 0.96431 0.0037 0.0
N295 N 0.29962 0.92796 0.92651 0.0
H296 H 0.52357 0.25292 0.52821 0.0
H297 H 0.60075 0.0985 0.48199 0.0
H298 H 0.5397 0.22201 0.42966 0.0
H299 H 0.59858 0.1338 0.58047 0.0
H300 H 0.56852 0.1388 0.46416 0.0
H301 H 0.54029 0.20445 0.54915 0.0
C302 C 0.5298 0.23564 0.51098 0.0
C303 C 0.5307 0.2415 0.47721 0.0
C304 C 0.57491 0.13771 0.48973 0.0
C305 C 0.55006 0.18649 0.50086 0.0
C306 C 0.59347 0.11475 0.49993 0.0
C307 C 0.60287 0.11312 0.53267 0.0
C308 C 0.56578 0.15946 0.5123 0.0
C309 C 0.59216 0.13446 0.5549 0.0
C310 C 0.53958 0.20813 0.52293 0.0
C311 C 0.53909 0.21849 0.45591 0.0
N312 N 0.57443 0.15703 0.54422 0.0
N313 N 0.54876 0.19213 0.46811 0.0
H314 H 0.34188 0.60047 0.58503 0.0
H315 H 0.25151 0.55433 0.42599 0.0
H316 H 0.37979 0.59648 0.4878 0.0
H317 H 0.21765 0.53812 0.52334 0.0
H318 H 0.30021 0.56586 0.44919 0.0
H319 H 0.29733 0.57458 0.56438 0.0
C320 C 0.34094 0.59399 0.55947 0.0
C321 C 0.36436 0.60113 0.538 0.0
C322 C 0.28234 0.55933 0.46558 0.0
C323 C 0.31379 0.57151 0.51437 0.0
C324 C 0.25456 0.5527 0.45228 0.0
C325 C 0.23061 0.54551 0.47284 0.0
C326 C 0.28604 0.55948 0.49977 0.0
C327 C 0.23568 0.54356 0.50671 0.0
C328 C 0.31561 0.57912 0.54775 0.0
C329 C 0.36211 0.59195 0.50519 0.0
N330 N 0.26278 0.55111 0.51926 0.0
N331 N 0.33721 0.5779 0.49438 0.0
H332 H 0.89087 0.35689 0.56778 0.0
H333 H 0.95137 0.26451 0.41585 0.0
H334 H 0.88509 0.38516 0.4668 0.0
H335 H 0.96289 0.23576 0.51588 0.0
H336 H 0.93551 0.31326 0.43545 0.0
H337 H 0.92386 0.31617 0.55084 0.0
C338 C 0.89665 0.35464 0.54213 0.0
C339 C 0.88475 0.37409 0.51859 0.0
C340 C 0.94201 0.29657 0.45323 0.0
C341 C 0.9226 0.32794 0.49916 0.0
C342 C 0.95124 0.26881 0.442 0.0
C343 C 0.95809 0.24614 0.46433 0.0
C344 C 0.93887 0.30143 0.48708 0.0
C345 C 0.95772 0.25276 0.49792 0.0
C346 C 0.91558 0.33151 0.53251 0.0
C347 C 0.89325 0.37039 0.48575 0.0
N348 N 0.94753 0.27969 0.50838 0.0
N349 N 0.91142 0.34766 0.47704 0.0
H350 H 0.14345 0.88489 0.60155 0.0
H351 H 0.23423 0.96065 0.45715 0.0
H352 H 0.1067 0.9074 0.50695 0.0
H353 H 0.27084 0.94934 0.55402 0.0
H354 H 0.18487 0.94895 0.47849 0.0
H355 H 0.18801 0.9145 0.58817 0.0
C356 C 0.14462 0.89625 0.57815 0.0
C357 C 0.12164 0.89313 0.55504 0.0
C358 C 0.2035 0.94955 0.49536 0.0
C359 C 0.17219 0.92708 0.53974 0.0
C360 C 0.23165 0.95641 0.48315 0.0
C361 C 0.2565 0.95569 0.50385 0.0
C362 C 0.20032 0.94108 0.52835 0.0
C363 C 0.25209 0.95012 0.53734 0.0
C364 C 0.16997 0.91322 0.57058 0.0
C365 C 0.12414 0.90859 0.52525 0.0
N366 N 0.22455 0.9423 0.54848 0.0
N367 N 0.14903 0.9246 0.51839 0.0
H368 H 0.34599 0.77783 0.97619 0.0
H369 H 0.40346 0.63309 0.06057 0.0
H370 H 0.43908 0.76703 0.99993 0.0
H371 H 0.31288 0.66344 0.07189 0.0
H372 H 0.41792 0.68292 0.042 0.0
H373 H 0.3337 0.73688 0.01318 0.0
C374 C 0.36386 0.76685 0.98931 0.0
C375 C 0.39365 0.77548 0.98465 0.0
C376 C 0.39504 0.67891 0.0493 0.0
C377 C 0.37972 0.72853 0.027 0.0
C378 C 0.38676 0.6505 0.0599 0.0
C379 C 0.35685 0.64411 0.06732 0.0
C380 C 0.37309 0.70083 0.04537 0.0
C381 C 0.33615 0.66744 0.06627 0.0
C382 C 0.35679 0.74368 0.01068 0.0
C383 C 0.41585 0.76087 0.00268 0.0
N384 N 0.34453 0.69465 0.05467 0.0
N385 N 0.40849 0.73768 0.02268 0.0
H386 H 0.72055 0.45705 0.02442 0.0
H387 H 0.89266 0.41675 0.01366 0.0
H388 H 0.77308 0.4558 0.93587 0.0
H389 H 0.83497 0.38742 0.09212 0.0
H390 H 0.85291 0.44863 0.99331 0.0
H391 H 0.76611 0.44884 0.05647 0.0
C392 C 0.74179 0.45598 0.01185 0.0
C393 C 0.74317 0.45654 0.97749 0.0
C394 C 0.84911 0.43563 0.01532 0.0
C395 C 0.79491 0.44732 0.01375 0.0
C396 C 0.87174 0.41737 0.02693 0.0
C397 C 0.86673 0.39874 0.05404 0.0
C398 C 0.8212 0.4351 0.03074 0.0
C399 C 0.83952 0.40105 0.07078 0.0
C400 C 0.76766 0.45115 0.0301 0.0
C401 C 0.7711 0.45498 0.96231 0.0
N402 N 0.81744 0.41846 0.05843 0.0
N403 N 0.79586 0.45011 0.98053 0.0
H404 H 0.06927 0.74696 0.95984 0.0
H405 H 0.16873 0.82328 0.09425 0.0
H406 H 0.10251 0.69469 0.04062 0.0
H407 H 0.09859 0.86961 0.04278 0.0
H408 H 0.14733 0.77557 0.07531 0.0
H409 H 0.0825 0.79243 0.98939 0.0
C410 C 0.07908 0.74515 0.98403 0.0
C411 C 0.08483 0.71719 0.9979 0.0
C412 C 0.13651 0.79628 0.06871 0.0
C413 C 0.10066 0.76903 0.03157 0.0
C414 C 0.14871 0.82345 0.07941 0.0
C415 C 0.1358 0.85053 0.0696 0.0
C416 C 0.11158 0.79645 0.04785 0.0
C417 C 0.10973 0.84941 0.05051 0.0
C418 C 0.08657 0.77105 0.00093 0.0
C419 C 0.09758 0.71596 0.0293 0.0
N420 N 0.0988 0.82292 0.03992 0.0
N421 N 0.10561 0.74162 0.04497 0.0
H422 H 0.66389 0.12618 0.0978 0.0
H423 H 0.7281 0.01522 0.97052 0.0
H424 H 0.60985 0.06273 0.04454 0.0
H425 H 0.78399 0.05672 0.04359 0.0
H426 H 0.68456 0.02563 0.00425 0.0
H427 H 0.70791 0.09554 0.0863 0.0
C428 C 0.66119 0.10541 0.08451 0.0
C429 C 0.63347 0.09737 0.07124 0.0
C430 C 0.70636 0.03187 0.01345 0.0
C431 C 0.68338 0.06254 0.05781 0.0
C432 C 0.73119 0.02586 0.99415 0.0
C433 C 0.75945 0.03548 0.0042 0.0
C434 C 0.70975 0.04857 0.04242 0.0
C435 C 0.76242 0.04907 0.03502 0.0
C436 C 0.68627 0.08793 0.07791 0.0
C437 C 0.63104 0.07017 0.05439 0.0
N438 N 0.73771 0.05602 0.05271 0.0
N439 N 0.65575 0.05404 0.04762 0.0
H440 H 0.45281 0.75148 0.57667 0.0
H441 H 0.37785 0.84259 0.43196 0.0
H442 H 0.44756 0.7174 0.47804 0.0
H443 H 0.39472 0.87732 0.52903 0.0
H444 H 0.40805 0.79867 0.44557 0.0
H445 H 0.43833 0.80054 0.55677 0.0
C446 C 0.44935 0.75466 0.55061 0.0
C447 C 0.45121 0.73056 0.52893 0.0
C448 C 0.4053 0.81611 0.46369 0.0
C449 C 0.43331 0.78621 0.50602 0.0
C450 C 0.38792 0.84104 0.45603 0.0
C451 C 0.38326 0.86339 0.47958 0.0
C452 C 0.41803 0.81369 0.49507 0.0
C453 C 0.39716 0.86045 0.51023 0.0
C454 C 0.44086 0.78259 0.53922 0.0
C455 C 0.44645 0.73563 0.49542 0.0
N456 N 0.41368 0.83603 0.51709 0.0
N457 N 0.43701 0.76285 0.485 0.0
H458 H 0.72698 0.43662 0.56135 0.0
H459 H 0.62583 0.38096 0.41331 0.0
H460 H 0.75181 0.4497 0.46023 0.0
H461 H 0.59991 0.37799 0.51522 0.0
H462 H 0.66975 0.41066 0.42867 0.0
H463 H 0.67751 0.42087 0.54387 0.0
C464 C 0.72175 0.43664 0.53542 0.0
C465 C 0.74346 0.44413 0.51215 0.0
C466 C 0.65424 0.40371 0.44756 0.0
C467 C 0.68714 0.42532 0.49177 0.0
C468 C 0.62927 0.38667 0.43884 0.0
C469 C 0.60944 0.37656 0.46308 0.0
C470 C 0.65929 0.41059 0.48071 0.0
C471 C 0.61481 0.38484 0.49572 0.0
C472 C 0.69353 0.42756 0.52539 0.0
C473 C 0.73558 0.44403 0.47889 0.0
N474 N 0.63928 0.40115 0.50355 0.0
N475 N 0.70812 0.43415 0.46958 0.0
H476 H 0.09922 0.64976 0.41566 0.0
H477 H 0.04246 0.73635 0.57341 0.0
H478 H 0.09153 0.61098 0.51222 0.0
H479 H 0.03826 0.77429 0.47637 0.0
H480 H 0.0543 0.68806 0.54953 0.0
H481 H 0.07197 0.69369 0.43529 0.0
C482 C 0.09164 0.65038 0.44085 0.0
C483 C 0.09816 0.62694 0.46249 0.0
C484 C 0.05037 0.70675 0.53329 0.0
C485 C 0.06695 0.67679 0.48495 0.0
C486 C 0.04354 0.73431 0.54697 0.0
C487 C 0.03973 0.75929 0.52681 0.0
C488 C 0.05412 0.70428 0.49921 0.0
C489 C 0.04111 0.75547 0.49271 0.0
C490 C 0.07601 0.67537 0.452 0.0
C491 C 0.08755 0.62874 0.49478 0.0
N492 N 0.04882 0.72854 0.47992 0.0
N493 N 0.07273 0.6533 0.50504 0.0
H494 H 0.76174 0.06298 0.57456 0.0
H495 H 0.85686 0.10422 0.41624 0.0
H496 H 0.73577 0.03549 0.47728 0.0
H497 H 0.88639 0.11848 0.51582 0.0
H498 H 0.81388 0.07613 0.43732 0.0
H499 H 0.80963 0.07954 0.55309 0.0
C500 C 0.76637 0.06003 0.5487 0.0
C501 C 0.74476 0.04813 0.52759 0.0
C502 C 0.82995 0.08524 0.45445 0.0
C503 C 0.79929 0.06769 0.50258 0.0
C504 C 0.85437 0.10139 0.44246 0.0
C505 C 0.87504 0.11406 0.46431 0.0
C506 C 0.82624 0.08189 0.48846 0.0
C507 C 0.87088 0.10946 0.49802 0.0
C508 C 0.7937 0.06954 0.53639 0.0
C509 C 0.75192 0.04458 0.49434 0.0
N510 N 0.84691 0.09395 0.509 0.0
N511 N 0.77847 0.05483 0.48268 0.0
H512 H 0.49319 0.92789 0.91362 0.0
H513 H 0.48997 0.0592 0.04597 0.0
H514 H 0.47462 0.91471 0.01644 0.0
H515 H 0.52994 0.06987 0.95042 0.0
H516 H 0.47998 0.00683 0.03321 0.0
H517 H 0.50607 0.98004 0.92525 0.0
C518 C 0.49261 0.9357 0.93874 0.0
C519 C 0.48257 0.91698 0.96405 0.0
C520 C 0.49078 0.02069 0.01494 0.0
C521 C 0.49624 0.97669 0.97729 0.0
C522 C 0.49607 0.05071 0.02205 0.0
C523 C 0.51087 0.06891 0.99927 0.0
C524 C 0.50017 0.00883 0.98477 0.0
C525 C 0.51854 0.05659 0.96874 0.0
C526 C 0.49959 0.96556 0.94529 0.0
C527 C 0.482 0.92839 0.9961 0.0
N528 N 0.51323 0.02726 0.96242 0.0
N529 N 0.48828 0.95759 0.00172 0.0
H530 H 0.42579 0.53808 0.96447 0.0
H531 H 0.58791 0.49211 0.02678 0.0
H532 H 0.44418 0.50565 0.062 0.0
H533 H 0.56743 0.50962 0.92521 0.0
H534 H 0.53639 0.50298 0.04116 0.0
H535 H 0.47816 0.53142 0.95028 0.0
C536 C 0.44082 0.52926 0.98283 0.0
C537 C 0.43065 0.52238 0.01449 0.0
C538 C 0.5432 0.5047 0.01576 0.0
C539 C 0.4907 0.51523 0.99853 0.0
C540 C 0.57268 0.49876 0.00754 0.0
C541 C 0.5819 0.49971 0.97467 0.0
C542 C 0.52273 0.51165 0.99096 0.0
C543 C 0.56125 0.5086 0.95083 0.0
C544 C 0.47073 0.52561 0.97472 0.0
C545 C 0.45106 0.51106 0.03727 0.0
N546 N 0.53249 0.51396 0.95942 0.0
N547 N 0.48021 0.50801 0.02889 0.0
H548 H 0.00132 0.55035 0.95862 0.0
H549 H 0.0033 0.41603 0.086 0.0
H550 H 0.04553 0.55895 0.05215 0.0
H551 H -0.00356 0.40462 0.98117 0.0
H552 H 0.01471 0.46911 0.07731 0.0
H553 H 0.99132 0.49787 0.97079 0.0
C554 C 0.00829 0.54141 0.98205 0.0
C555 C 0.02444 0.55897 0.00431 0.0
C556 C 0.0111 0.45477 0.05629 0.0
C557 C 0.01363 0.49885 0.01808 0.0
C558 C 0.00497 0.42444 0.06118 0.0
C559 C -0.00133 0.40589 0.03428 0.0
C560 C 0.01047 0.46649 0.02437 0.0
C561 C 0.00089 0.41808 0.00267 0.0
C562 C 0.00299 0.51134 0.98877 0.0
C563 C 0.03314 0.5461 0.03423 0.0
N564 N 0.00611 0.44768 0.99863 0.0
N565 N 0.02776 0.51671 0.04021 0.0
H566 H 0.05984 0.99505 0.08531 0.0
H567 H 0.9316 0.98098 0.94937 0.0
H568 H 0.07456 0.96497 0.98608 0.0
H569 H 0.91837 0.02281 0.04356 0.0
H570 H 0.98321 0.97057 0.96467 0.0
H571 H 0.00725 0.00328 0.07188 0.0
C572 C 0.05212 0.99056 0.06063 0.0
C573 C 0.07157 0.97929 0.03681 0.0
C574 C 0.96894 0.98185 0.98208 0.0
C575 C 0.01156 0.98801 0.02148 0.0
C576 C 0.9394 0.98752 0.97347 0.0
C577 C 0.92077 0.00294 0.99514 0.0
C578 C 0.97981 0.99164 0.0126 0.0
C579 C 0.93206 0.01104 0.02602 0.0
C580 C 0.02209 0.99503 0.05305 0.0
C581 C 0.06036 0.97363 0.00526 0.0
N582 N 0.96093 0.00545 0.03375 0.0
N583 N 0.03109 0.9779 0.9986 0.0
H584 H 0.48588 0.54903 0.57527 0.0
H585 H 0.48711 0.42189 0.43732 0.0
H586 H 0.49179 0.5668 0.47147 0.0
H587 H 0.48665 0.40333 0.54116 0.0
H588 H 0.48584 0.47523 0.44953 0.0
H589 H 0.48668 0.49552 0.56355 0.0
C590 C 0.48804 0.54172 0.55008 0.0
C591 C 0.48863 0.56244 0.52431 0.0
C592 C 0.48573 0.45948 0.46965 0.0
C593 C 0.48866 0.5013 0.51067 0.0
C594 C 0.48603 0.42898 0.46268 0.0
C595 C 0.48715 0.4081 0.48826 0.0
C596 C 0.48656 0.46913 0.50242 0.0
C597 C 0.48593 0.41863 0.52066 0.0
C598 C 0.48811 0.51115 0.54337 0.0
C599 C 0.49118 0.55165 0.49211 0.0
N600 N 0.48599 0.44843 0.52681 0.0
N601 N 0.4908 0.52183 0.4862 0.0
H602 H 0.06756 0.49496 0.52705 0.0
H603 H 0.90414 0.50219 0.44929 0.0
H604 H 0.05078 0.50626 0.42361 0.0
H605 H 0.92118 0.49269 0.5529 0.0
H606 H 0.95771 0.50543 0.43956 0.0
H607 H 0.01396 0.49234 0.53668 0.0
C608 C 0.05262 0.49625 0.50624 0.0
C609 C 0.06369 0.50097 0.47447 0.0
C610 C 0.94974 0.50297 0.46447 0.0
C611 C 0.00223 0.49878 0.48547 0.0
C612 C 0.91911 0.50147 0.47011 0.0
C613 C 0.90814 0.497 0.50196 0.0
C614 C 0.96956 0.49986 0.49086 0.0
C615 C 0.92862 0.49616 0.52794 0.0
C616 C 0.02198 0.49511 0.51182 0.0
C617 C 0.04326 0.50255 0.44849 0.0
N618 N 0.95837 0.49721 0.52177 0.0
N619 N 0.01348 0.50176 0.45461 0.0
H620 H 0.99354 0.94011 0.56726 0.0
H621 H -0.0056 0.06396 0.42592 0.0
H622 H 0.00035 0.91893 0.46431 0.0
H623 H 0.00029 0.08393 0.52927 0.0
H624 H -0.00465 0.01069 0.43898 0.0
H625 H 0.99124 0.99305 0.55324 0.0
C626 C 0.99382 0.94652 0.54167 0.0
C627 C -0.00267 0.92508 0.51694 0.0
C628 C -0.00326 0.02677 0.45875 0.0
C629 C -0.00446 0.98564 0.50076 0.0
C630 C -0.00343 0.05719 0.45129 0.0
C631 C -0.00284 0.07846 0.47654 0.0
C632 C -0.00267 0.01762 0.49169 0.0
C633 C -0.00029 0.06835 0.50899 0.0
C634 C 0.99295 0.97679 0.53369 0.0
C635 C -0.0022 0.93473 0.48419 0.0
N636 N -0.00061 0.03867 0.51564 0.0
N637 N -0.00279 0.96433 0.47706 0.0
H638 H 0.58448 0.98104 0.47377 0.0
H639 H 0.4232 0.98902 0.55663 0.0
H640 H 0.57059 0.99397 0.57752 0.0
H641 H 0.43769 0.98404 0.45218 0.0
H642 H 0.47705 0.98983 0.56507 0.0
H643 H 0.53066 0.9776 0.46614 0.0
C644 C 0.57016 0.98243 0.4951 0.0
C645 C 0.58209 0.98807 0.52632 0.0
C646 C 0.46847 0.98884 0.54028 0.0
C647 C 0.52037 0.98495 0.51758 0.0
C648 C 0.43771 0.98869 0.53541 0.0
C649 C 0.42591 0.98642 0.50363 0.0
C650 C 0.48761 0.98651 0.51319 0.0
C651 C 0.44579 0.98594 0.47709 0.0
C652 C 0.53938 0.98085 0.49064 0.0
C653 C 0.56241 0.98967 0.553 0.0
N654 N 0.47568 0.98569 0.48249 0.0
N655 N 0.53248 0.98849 0.54796 0.0
H656 H 0.50167 0.2896 0.31591 0.0
H657 H 0.60951 0.22868 0.17488 0.0
H658 H 0.59778 0.29289 0.31948 0.0
H659 H 0.51648 0.20396 0.17991 0.0
H660 H 0.60374 0.25786 0.22461 0.0
H661 H 0.50482 0.26423 0.26247 0.0
C662 C 0.52336 0.28542 0.30522 0.0
C663 C 0.54952 0.29324 0.32212 0.0
C664 C 0.58453 0.24606 0.21496 0.0
C665 C 0.55325 0.26428 0.26152 0.0
C666 C 0.58781 0.22933 0.18649 0.0
C667 C 0.56347 0.21369 0.17327 0.0
C668 C 0.55665 0.24742 0.23047 0.0
C669 C 0.53588 0.21552 0.18943 0.0
C670 C 0.52514 0.27075 0.27494 0.0
C671 C 0.57705 0.2871 0.30739 0.0
N672 N 0.53317 0.23214 0.21726 0.0
N673 N 0.57817 0.27298 0.27804 0.0
H674 H 0.1729 0.60776 0.30777 0.0
H675 H 0.27689 0.51744 0.18684 0.0
H676 H 0.18532 0.51294 0.31949 0.0
H677 H 0.23 0.59719 0.15799 0.0
H678 H 0.24705 0.51589 0.23745 0.0
H679 H 0.19689 0.60506 0.25415 0.0
C680 C 0.18037 0.58628 0.2988 0.0
C681 C 0.17707 0.56052 0.31794 0.0
C682 C 0.24324 0.53353 0.21982 0.0
C683 C 0.20523 0.55737 0.25698 0.0
C684 C 0.26034 0.53454 0.1911 0.0
C685 C 0.25601 0.55755 0.16825 0.0
C686 C 0.22214 0.55599 0.22583 0.0
C687 C 0.23414 0.57905 0.17489 0.0
C688 C 0.19406 0.58475 0.26822 0.0
C689 C 0.18723 0.53325 0.30526 0.0
N690 N 0.21827 0.5779 0.20316 0.0
N691 N 0.20131 0.53243 0.27568 0.0
H692 H 0.86935 0.2693 0.17591 0.0
H693 H 0.97755 0.19065 0.30573 0.0
H694 H 0.96518 0.27787 0.17159 0.0
H695 H 0.8818 0.19498 0.31455 0.0
H696 H 0.97415 0.21741 0.25326 0.0
H697 H 0.87424 0.23773 0.224 0.0
C698 C 0.89148 0.26462 0.18515 0.0
C699 C 0.9169 0.27642 0.16976 0.0
C700 C 0.95391 0.21221 0.2666 0.0
C701 C 0.92269 0.2399 0.22502 0.0
C702 C 0.95582 0.19673 0.29635 0.0
C703 C 0.92992 0.19073 0.31455 0.0
C704 C 0.92591 0.22147 0.25504 0.0
C705 C 0.90236 0.19931 0.30145 0.0
C706 C 0.89427 0.24648 0.21264 0.0
C707 C 0.94499 0.2694 0.18283 0.0
N708 N 0.90111 0.21432 0.27264 0.0
N709 N 0.94716 0.25157 0.20977 0.0
H710 H 0.25308 0.91266 0.35996 0.0
H711 H 0.27482 0.92526 0.17046 0.0
H712 H 0.33255 0.95453 0.32165 0.0
H713 H 0.18881 0.94174 0.21401 0.0
H714 H 0.29782 0.92936 0.22483 0.0
H715 H 0.23013 0.91607 0.30572 0.0
C716 C 0.26573 0.92249 0.34005 0.0
C717 C 0.2948 0.9332 0.34514 0.0
C718 C 0.27397 0.93234 0.22235 0.0
C719 C 0.26879 0.93682 0.28315 0.0
C720 C 0.26082 0.92984 0.19149 0.0
C721 C 0.22988 0.93306 0.1879 0.0
C722 C 0.25592 0.93722 0.24985 0.0
C723 C 0.21275 0.93917 0.21581 0.0
C724 C 0.25252 0.92464 0.30926 0.0
C725 C 0.31009 0.94603 0.31864 0.0
N726 N 0.22595 0.94056 0.24579 0.0
N727 N 0.29704 0.94709 0.28852 0.0
H728 H 0.35393 0.77615 0.81175 0.0
H729 H 0.46443 0.68639 0.6934 0.0
H730 H 0.44969 0.78267 0.81994 0.0
H731 H 0.36948 0.69401 0.67884 0.0
H732 H 0.45991 0.71681 0.74336 0.0
H733 H 0.35975 0.74198 0.76595 0.0
C734 C 0.37625 0.77047 0.80384 0.0
C735 C 0.40137 0.78243 0.81965 0.0
C736 C 0.44009 0.71156 0.72931 0.0
C737 C 0.40823 0.74291 0.76705 0.0
C738 C 0.44261 0.69401 0.70101 0.0
C739 C 0.41729 0.68777 0.68192 0.0
C740 C 0.41204 0.72265 0.73855 0.0
C741 C 0.38962 0.69841 0.69269 0.0
C742 C 0.37956 0.75086 0.77765 0.0
C743 C 0.42972 0.77411 0.8083 0.0
N744 N 0.38777 0.71536 0.72014 0.0
N745 N 0.43241 0.7548 0.78266 0.0
H746 H 0.79615 0.48157 0.66461 0.0
H747 H 0.73862 0.38296 0.81555 0.0
H748 H 0.8024 0.38557 0.6694 0.0
H749 H 0.71068 0.47407 0.8008 0.0
H750 H 0.76707 0.38542 0.76486 0.0
H751 H 0.77059 0.4813 0.71793 0.0
C752 C 0.79262 0.46053 0.67713 0.0
C753 C 0.80133 0.43354 0.66259 0.0
C754 C 0.75467 0.4049 0.77257 0.0
C755 C 0.77203 0.43306 0.7231 0.0
C756 C 0.73837 0.4035 0.80154 0.0
C757 C 0.72214 0.42832 0.81236 0.0
C758 C 0.75507 0.4314 0.75425 0.0
C759 C 0.72271 0.45435 0.79318 0.0
C760 C 0.77779 0.46037 0.70734 0.0
C761 C 0.79595 0.40688 0.67965 0.0
N762 N 0.73904 0.45527 0.76504 0.0
N763 N 0.78163 0.40732 0.70891 0.0
H764 H 0.11198 0.79327 0.68614 0.0
H765 H 0.0265 0.70028 0.8245 0.0
H766 H 0.01609 0.79426 0.69454 0.0
H767 H 0.1209 0.7195 0.8253 0.0
H768 H 0.02129 0.73225 0.77578 0.0
H769 H 0.11486 0.76443 0.73646 0.0
C770 C 0.09149 0.78761 0.69879 0.0
C771 C 0.06376 0.79617 0.68615 0.0
C772 C 0.04307 0.72944 0.78677 0.0
C773 C 0.06684 0.7626 0.74382 0.0
C774 C 0.04609 0.71109 0.81439 0.0
C775 C 0.07419 0.70716 0.82893 0.0
C776 C 0.06839 0.74363 0.77358 0.0
C777 C 0.09879 0.72183 0.81498 0.0
C778 C 0.09313 0.77109 0.72757 0.0
C779 C 0.03794 0.78823 0.70362 0.0
N780 N 0.09531 0.73927 0.78813 0.0
N781 N 0.04006 0.77159 0.7315 0.0
H782 H 0.67603 0.09779 0.6906 0.0
H783 H 0.77877 0.00741 0.81408 0.0
H784 H 0.69433 0.00421 0.67648 0.0
H785 H 0.73471 0.08988 0.83894 0.0
H786 H 0.7499 0.00556 0.76285 0.0
H787 H 0.69872 0.09515 0.74477 0.0
C788 C 0.6845 0.07656 0.69914 0.0
C789 C 0.68331 0.05119 0.67909 0.0
C790 C 0.74647 0.02389 0.77972 0.0
C791 C 0.70999 0.0481 0.74089 0.0
C792 C 0.76303 0.02504 0.80882 0.0
C793 C 0.75927 0.04892 0.83072 0.0
C794 C 0.72638 0.04696 0.77244 0.0
C795 C 0.73846 0.07109 0.82279 0.0
C796 C 0.6975 0.07505 0.73007 0.0
C797 C 0.69466 0.02423 0.69134 0.0
N798 N 0.72302 0.06967 0.79426 0.0
N799 N 0.70795 0.02346 0.72136 0.0
loop_
_geom_bond_atom_site_label_1
_geom_bond_atom_site_label_2
_geom_bond_distance
_geom_bond_site_symmetry_2
_ccdc_geom_bond_type
O0 Cd1 2.223 . S
O0 C8 1.315 . S
Cd1 O0 2.223 . S
Cd1 O4 2.297 . S
Cd1 O5 2.439 . S
Cd1 O11 2.240 . S
Cd2 O3 2.240 . S
Cd2 O10 2.223 . S
Cd2 O12 2.297 . S
Cd2 O13 2.439 . S
O3 Cd2 2.240 . S
O3 C8 1.279 . S
O4 Cd1 2.297 . S
O4 C6 1.247 . S
O5 Cd1 2.439 . S
O5 C6 1.208 . S
C6 O4 1.247 . S
C6 O5 1.208 . S
C7 O12 1.247 . S
C7 O13 1.208 . S
C8 O0 1.315 . S
C8 O3 1.279 . S
C9 O10 1.315 . S
C9 O11 1.279 . S
O10 Cd2 2.223 . S
O10 C9 1.315 . S
O11 Cd1 2.240 . S
O11 C9 1.279 . S
O12 Cd2 2.297 . S
O12 C7 1.247 . S
O13 Cd2 2.439 . S
O13 C7 1.208 . S
O14 Cd15 2.223 . S
O14 C22 1.315 . S
Cd15 O14 2.223 . S
Cd15 O18 2.297 . S
Cd15 O19 2.439 . S
Cd15 O25 2.240 . S
Cd16 O17 2.240 . S
Cd16 O24 2.223 . S
Cd16 O26 2.297 . S
Cd16 O27 2.439 . S
O17 Cd16 2.240 . S
O17 C22 1.279 . S
O18 Cd15 2.297 . S
O18 C20 1.247 . S
O19 Cd15 2.439 . S
O19 C20 1.208 . S
C20 O18 1.247 . S
C20 O19 1.208 . S
C21 O26 1.247 . S
C21 O27 1.208 . S
C22 O14 1.315 . S
C22 O17 1.279 . S
C23 O24 1.315 . S
C23 O25 1.279 . S
O24 Cd16 2.223 . S
O24 C23 1.315 . S
O25 Cd15 2.240 . S
O25 C23 1.279 . S
O26 Cd16 2.297 . S
O26 C21 1.247 . S
O27 Cd16 2.439 . S
O27 C21 1.208 . S
O28 Cd29 2.223 . S
O28 C36 1.315 . S
Cd29 O28 2.223 . S
Cd29 O32 2.297 . S
Cd29 O33 2.439 . S
Cd29 O39 2.240 . S
Cd30 O31 2.240 . S
Cd30 O38 2.223 . S
Cd30 O40 2.297 . S
Cd30 O41 2.439 . S
O31 Cd30 2.240 . S
O31 C36 1.279 . S
O32 Cd29 2.297 . S
O32 C34 1.247 . S
O33 Cd29 2.439 . S
O33 C34 1.208 . S
C34 O32 1.247 . S
C34 O33 1.208 . S
C35 O40 1.247 . S
C35 O41 1.208 . S
C36 O28 1.315 . S
C36 O31 1.279 . S
C37 O38 1.315 . S
C37 O39 1.279 . S
O38 Cd30 2.223 . S
O38 C37 1.315 . S
O39 Cd29 2.240 . S
O39 C37 1.279 . S
O40 Cd30 2.297 . S
O40 C35 1.247 . S
O41 Cd30 2.439 . S
O41 C35 1.208 . S
O42 Cd43 2.223 . S
O42 C50 1.315 . S
Cd43 O42 2.223 . S
Cd43 O46 2.297 . S
Cd43 O47 2.439 . S
Cd43 O53 2.240 . S
Cd44 O45 2.240 . S
Cd44 O52 2.223 . S
Cd44 O54 2.297 . S
Cd44 O55 2.439 . S
O45 Cd44 2.240 . S
O45 C50 1.279 . S
O46 Cd43 2.297 . S
O46 C48 1.247 . S
O47 Cd43 2.439 . S
O47 C48 1.208 . S
C48 O46 1.247 . S
C48 O47 1.208 . S
C49 O54 1.247 . S
C49 O55 1.208 . S
C50 O42 1.315 . S
C50 O45 1.279 . S
C51 O52 1.315 . S
C51 O53 1.279 . S
O52 Cd44 2.223 . S
O52 C51 1.315 . S
O53 Cd43 2.240 . S
O53 C51 1.279 . S
O54 Cd44 2.297 . S
O54 C49 1.247 . S
O55 Cd44 2.439 . S
O55 C49 1.208 . S
O56 Cd57 2.223 . S
O56 C64 1.315 . S
Cd57 O56 2.223 . S
Cd57 O60 2.297 . S
Cd57 O61 2.439 . S
Cd57 O67 2.240 . S
Cd58 O59 2.240 . S
Cd58 O66 2.223 . S
Cd58 O68 2.297 . S
Cd58 O69 2.439 . S
O59 Cd58 2.240 . S
O59 C64 1.279 . S
O60 Cd57 2.297 . S
O60 C62 1.247 . S
O61 Cd57 2.439 . S
O61 C62 1.208 . S
C62 O60 1.247 . S
C62 O61 1.208 . S
C63 O68 1.247 . S
C63 O69 1.208 . S
C64 O56 1.315 . S
C64 O59 1.279 . S
C65 O66 1.315 . S
C65 O67 1.279 . S
O66 Cd58 2.223 . S
O66 C65 1.315 . S
O67 Cd57 2.240 . S
O67 C65 1.279 . S
O68 Cd58 2.297 . S
O68 C63 1.247 . S
O69 Cd58 2.439 . S
O69 C63 1.208 . S
O70 Cd71 2.223 . S
O70 C78 1.315 . S
Cd71 O70 2.223 . S
Cd71 O74 2.297 . S
Cd71 O75 2.439 . S
Cd71 O81 2.240 . S
Cd72 O73 2.240 . S
Cd72 O80 2.223 . S
Cd72 O82 2.297 . S
Cd72 O83 2.439 . S
O73 Cd72 2.240 . S
O73 C78 1.279 . S
O74 Cd71 2.297 . S
O74 C76 1.247 . S
O75 Cd71 2.439 . S
O75 C76 1.208 . S
C76 O74 1.247 . S
C76 O75 1.208 . S
C77 O82 1.247 . S
C77 O83 1.208 . S
C78 O70 1.315 . S
C78 O73 1.279 . S
C79 O80 1.315 . S
C79 O81 1.279 . S
O80 Cd72 2.223 . S
O80 C79 1.315 . S
O81 Cd71 2.240 . S
O81 C79 1.279 . S
O82 Cd72 2.297 . S
O82 C77 1.247 . S
O83 Cd72 2.439 . S
O83 C77 1.208 . S
O84 Cd85 2.223 . S
O84 C92 1.315 . S
Cd85 O84 2.223 . S
Cd85 O88 2.297 . S
Cd85 O89 2.439 . S
Cd85 O95 2.240 . S
Cd86 O87 2.240 . S
Cd86 O94 2.223 . S
Cd86 O96 2.297 . S
Cd86 O97 2.439 . S
O87 Cd86 2.240 . S
O87 C92 1.279 . S
O88 Cd85 2.297 . S
O88 C90 1.247 . S
O89 Cd85 2.439 . S
O89 C90 1.208 . S
C90 O88 1.247 . S
C90 O89 1.208 . S
C91 O96 1.247 . S
C91 O97 1.208 . S
C92 O84 1.315 . S
C92 O87 1.279 . S
C93 O94 1.315 . S
C93 O95 1.279 . S
O94 Cd86 2.223 . S
O94 C93 1.315 . S
O95 Cd85 2.240 . S
O95 C93 1.279 . S
O96 Cd86 2.297 . S
O96 C91 1.247 . S
O97 Cd86 2.439 . S
O97 C91 1.208 . S
O98 Cd99 2.223 . S
O98 C106 1.315 . S
Cd99 O98 2.223 . S
Cd99 O102 2.297 . S
Cd99 O103 2.439 . S
Cd99 O109 2.240 . S
Cd100 O101 2.240 . S
Cd100 O108 2.223 . S
Cd100 O110 2.297 . S
Cd100 O111 2.439 . S
O101 Cd100 2.240 . S
O101 C106 1.279 . S
O102 Cd99 2.297 . S
O102 C104 1.247 . S
O103 Cd99 2.439 . S
O103 C104 1.208 . S
C104 O102 1.247 . S
C104 O103 1.208 . S
C105 O110 1.247 . S
C105 O111 1.208 . S
C106 O98 1.315 . S
C106 O101 1.279 . S
C107 O108 1.315 . S
C107 O109 1.279 . S
O108 Cd100 2.223 . S
O108 C107 1.315 . S
O109 Cd99 2.240 . S
O109 C107 1.279 . S
O110 Cd100 2.297 . S
O110 C105 1.247 . S
O111 Cd100 2.439 . S
O111 C105 1.208 . S
O112 Cd113 2.223 . S
O112 C120 1.315 . S
Cd113 O112 2.223 . S
Cd113 O116 2.297 . S
Cd113 O117 2.439 . S
Cd113 O123 2.240 . S
Cd114 O115 2.240 . S
Cd114 O122 2.223 . S
Cd114 O124 2.297 . S
Cd114 O125 2.439 . S
O115 Cd114 2.240 . S
O115 C120 1.279 . S
O116 Cd113 2.297 . S
O116 C118 1.247 . S
O117 Cd113 2.439 . S
O117 C118 1.208 . S
C118 O116 1.247 . S
C118 O117 1.208 . S
C119 O124 1.247 . S
C119 O125 1.208 . S
C120 O112 1.315 . S
C120 O115 1.279 . S
C121 O122 1.315 . S
C121 O123 1.279 . S
O122 Cd114 2.223 . S
O122 C121 1.315 . S
O123 Cd113 2.240 . S
O123 C121 1.279 . S
O124 Cd114 2.297 . S
O124 C119 1.247 . S
O125 Cd114 2.439 . S
O125 C119 1.208 . S
O126 Cd127 2.223 . S
O126 C134 1.315 . S
Cd127 O126 2.223 . S
Cd127 O130 2.297 . S
Cd127 O131 2.439 . S
Cd127 O137 2.240 . S
Cd128 O129 2.240 . S
Cd128 O136 2.223 . S
Cd128 O138 2.297 . S
Cd128 O139 2.439 . S
O129 Cd128 2.240 . S
O129 C134 1.279 . S
O130 Cd127 2.297 . S
O130 C132 1.247 . S
O131 Cd127 2.439 . S
O131 C132 1.208 . S
C132 O130 1.247 . S
C132 O131 1.208 . S
C133 O138 1.247 . S
C133 O139 1.208 . S
C134 O126 1.315 . S
C134 O129 1.279 . S
C135 O136 1.315 . S
C135 O137 1.279 . S
O136 Cd128 2.223 . S
O136 C135 1.315 . S
O137 Cd127 2.240 . S
O137 C135 1.279 . S
O138 Cd128 2.297 . S
O138 C133 1.247 . S
O139 Cd128 2.439 . S
O139 C133 1.208 . S
O140 Cd141 2.223 . S
O140 C148 1.315 . S
Cd141 O140 2.223 . S
Cd141 O144 2.297 . S
Cd141 O145 2.439 . S
Cd141 O151 2.240 . S
Cd142 O143 2.240 . S
Cd142 O150 2.223 . S
Cd142 O152 2.297 . S
Cd142 O153 2.439 . S
O143 Cd142 2.240 . S
O143 C148 1.279 . S
O144 Cd141 2.297 . S
O144 C146 1.247 . S
O145 Cd141 2.439 . S
O145 C146 1.208 . S
C146 O144 1.247 . S
C146 O145 1.208 . S
C147 O152 1.247 . S
C147 O153 1.208 . S
C148 O140 1.315 . S
C148 O143 1.279 . S
C149 O150 1.315 . S
C149 O151 1.279 . S
O150 Cd142 2.223 . S
O150 C149 1.315 . S
O151 Cd141 2.240 . S
O151 C149 1.279 . S
O152 Cd142 2.297 . S
O152 C147 1.247 . S
O153 Cd142 2.439 . S
O153 C147 1.208 . S
O154 Cd155 2.223 . S
O154 C162 1.315 . S
Cd155 O154 2.223 . S
Cd155 O158 2.297 . S
Cd155 O159 2.439 . S
Cd155 O165 2.240 . S
Cd156 O157 2.240 . S
Cd156 O164 2.223 . S
Cd156 O166 2.297 . S
Cd156 O167 2.439 . S
O157 Cd156 2.240 . S
O157 C162 1.279 . S
O158 Cd155 2.297 . S
O158 C160 1.247 . S
O159 Cd155 2.439 . S
O159 C160 1.208 . S
C160 O158 1.247 . S
C160 O159 1.208 . S
C161 O166 1.247 . S
C161 O167 1.208 . S
C162 O154 1.315 . S
C162 O157 1.279 . S
C163 O164 1.315 . S
C163 O165 1.279 . S
O164 Cd156 2.223 . S
O164 C163 1.315 . S
O165 Cd155 2.240 . S
O165 C163 1.279 . S
O166 Cd156 2.297 . S
O166 C161 1.247 . S
O167 Cd156 2.439 . S
O167 C161 1.208 . S
O168 Cd169 2.223 . S
O168 C176 1.315 . S
Cd169 O168 2.223 . S
Cd169 O172 2.297 . S
Cd169 O173 2.439 . S
Cd169 O179 2.240 . S
Cd170 O171 2.240 . S
Cd170 O178 2.223 . S
Cd170 O180 2.297 . S
Cd170 O181 2.439 . S
O171 Cd170 2.240 . S
O171 C176 1.279 . S
O172 Cd169 2.297 . S
O172 C174 1.247 . S
O173 Cd169 2.439 . S
O173 C174 1.208 . S
C174 O172 1.247 . S
C174 O173 1.208 . S
C175 O180 1.247 . S
C175 O181 1.208 . S
C176 O168 1.315 . S
C176 O171 1.279 . S
C177 O178 1.315 . S
C177 O179 1.279 . S
O178 Cd170 2.223 . S
O178 C177 1.315 . S
O179 Cd169 2.240 . S
O179 C177 1.279 . S
O180 Cd170 2.297 . S
O180 C175 1.247 . S
O181 Cd170 2.439 . S
O181 C175 1.208 . S
O182 Cd183 2.223 . S
O182 C190 1.315 . S
Cd183 O182 2.223 . S
Cd183 O186 2.297 . S
Cd183 O187 2.439 . S
Cd183 O193 2.240 . S
Cd184 O185 2.240 . S
Cd184 O192 2.223 . S
Cd184 O194 2.297 . S
Cd184 O195 2.439 . S
O185 Cd184 2.240 . S
O185 C190 1.279 . S
O186 Cd183 2.297 . S
O186 C188 1.247 . S
O187 Cd183 2.439 . S
O187 C188 1.208 . S
C188 O186 1.247 . S
C188 O187 1.208 . S
C189 O194 1.247 . S
C189 O195 1.208 . S
C190 O182 1.315 . S
C190 O185 1.279 . S
C191 O192 1.315 . S
C191 O193 1.279 . S
O192 Cd184 2.223 . S
O192 C191 1.315 . S
O193 Cd183 2.240 . S
O193 C191 1.279 . S
O194 Cd184 2.297 . S
O194 C189 1.247 . S
O195 Cd184 2.439 . S
O195 C189 1.208 . S
O196 Cd197 2.223 . S
O196 C204 1.315 . S
Cd197 O196 2.223 . S
Cd197 O200 2.297 . S
Cd197 O201 2.439 . S
Cd197 O207 2.240 . S
Cd198 O199 2.240 . S
Cd198 O206 2.223 . S
Cd198 O208 2.297 . S
Cd198 O209 2.439 . S
O199 Cd198 2.240 . S
O199 C204 1.279 . S
O200 Cd197 2.297 . S
O200 C202 1.247 . S
O201 Cd197 2.439 . S
O201 C202 1.208 . S
C202 O200 1.247 . S
C202 O201 1.208 . S
C203 O208 1.247 . S
C203 O209 1.208 . S
C204 O196 1.315 . S
C204 O199 1.279 . S
C205 O206 1.315 . S
C205 O207 1.279 . S
O206 Cd198 2.223 . S
O206 C205 1.315 . S
O207 Cd197 2.240 . S
O207 C205 1.279 . S
O208 Cd198 2.297 . S
O208 C203 1.247 . S
O209 Cd198 2.439 . S
O209 C203 1.208 . S
O210 Cd211 2.223 . S
O210 C218 1.315 . S
Cd211 O210 2.223 . S
Cd211 O214 2.297 . S
Cd211 O215 2.439 . S
Cd211 O221 2.240 . S
Cd212 O213 2.240 . S
Cd212 O220 2.223 . S
Cd212 O222 2.297 . S
Cd212 O223 2.439 . S
O213 Cd212 2.240 . S
O213 C218 1.279 . S
O214 Cd211 2.297 . S
O214 C216 1.247 . S
O215 Cd211 2.439 . S
O215 C216 1.208 . S
C216 O214 1.247 . S
C216 O215 1.208 . S
C217 O222 1.247 . S
C217 O223 1.208 . S
C218 O210 1.315 . S
C218 O213 1.279 . S
C219 O220 1.315 . S
C219 O221 1.279 . S
O220 Cd212 2.223 . S
O220 C219 1.315 . S
O221 Cd211 2.240 . S
O221 C219 1.279 . S
O222 Cd212 2.297 . S
O222 C217 1.247 . S
O223 Cd212 2.439 . S
O223 C217 1.208 . S
H224 C230 0.930 . S
H225 C234 0.930 . S
H226 C239 0.929 . S
H227 C237 0.929 . S
H228 C232 0.929 . S
H229 C238 0.929 . S
C230 H224 0.930 . S
C230 C231 1.367 1_556 S
C230 C238 1.378 . S
C231 C230 1.367 1_554 S
C231 C239 1.433 . S
C232 H228 0.929 . S
C232 C234 1.378 . S
C232 C236 1.350 1_554 S
C233 C236 1.463 1_554 S
C233 C238 1.350 1_554 S
C233 N241 1.427 . S
C234 H225 0.930 . S
C234 C232 1.378 . S
C234 C235 1.367 1_554 S
C235 C234 1.367 1_556 S
C235 C237 1.433 . S
C236 C232 1.350 1_556 S
C236 C233 1.463 1_556 S
C236 N240 1.427 . S
C237 H227 0.929 . S
C237 C235 1.433 . S
C237 N240 1.384 . S
C238 H229 0.929 . S
C238 C230 1.378 . S
C238 C233 1.350 1_556 S
C239 H226 0.929 . S
C239 C231 1.433 . S
C239 N241 1.384 . S
N240 C236 1.427 . S
N240 C237 1.384 . S
N241 C233 1.427 . S
N241 C239 1.384 . S
H242 C248 0.930 . S
H243 C252 0.930 . S
H244 C257 0.929 . S
H245 C255 0.929 . S
H246 C250 0.929 . S
H247 C256 0.929 . S
C248 H242 0.930 . S
C248 C249 1.367 1_554 S
C248 C256 1.378 . S
C249 C248 1.367 1_556 S
C249 C257 1.433 . S
C250 H246 0.929 . S
C250 C252 1.378 . S
C250 C254 1.350 1_556 S
C251 C254 1.463 1_556 S
C251 C256 1.350 1_556 S
C251 N259 1.427 . S
C252 H243 0.930 . S
C252 C250 1.378 . S
C252 C253 1.367 1_556 S
C253 C252 1.367 1_554 S
C253 C255 1.433 . S
C254 C250 1.350 1_554 S
C254 C251 1.463 1_554 S
C254 N258 1.427 . S
C255 H245 0.929 . S
C255 C253 1.433 . S
C255 N258 1.384 . S
C256 H247 0.929 . S
C256 C248 1.378 . S
C256 C251 1.350 1_554 S
C257 H244 0.929 . S
C257 C249 1.433 . S
C257 N259 1.384 . S
N258 C254 1.427 . S
N258 C255 1.384 . S
N259 C251 1.427 . S
N259 C257 1.384 . S
H260 C266 0.930 . S
H261 C270 0.930 . S
H262 C275 0.929 . S
H263 C273 0.929 . S
H264 C268 0.929 . S
H265 C274 0.929 . S
C266 H260 0.930 . S
C266 C267 1.367 . S
C266 C274 1.378 . S
C267 C266 1.367 . S
C267 C275 1.433 . S
C268 H264 0.929 . S
C268 C270 1.378 . S
C268 C272 1.350 . S
C269 C272 1.463 1_556 S
C269 C274 1.350 . S
C269 N277 1.429 . S
C270 H261 0.930 . S
C270 C268 1.378 . S
C270 C271 1.367 . S
C271 C270 1.367 . S
C271 C273 1.433 . S
C272 C268 1.350 . S
C272 C269 1.463 1_554 S
C272 N276 1.427 . S
C273 H263 0.929 . S
C273 C271 1.433 . S
C273 N276 1.384 . S
C274 H265 0.929 . S
C274 C266 1.378 . S
C274 C269 1.350 . S
C275 H262 0.929 . S
C275 C267 1.433 . S
C275 N277 1.388 . S
N276 C272 1.427 . S
N276 C273 1.384 . S
N277 C269 1.429 . S
N277 C275 1.388 . S
H278 C284 0.930 . S
H279 C288 0.930 . S
H280 C293 0.929 . S
H281 C291 0.929 . S
H282 C286 0.929 . S
H283 C292 0.929 . S
C284 H278 0.930 . S
C284 C285 1.367 1_554 S
C284 C292 1.378 . S
C285 C284 1.367 1_556 S
C285 C293 1.433 . S
C286 H282 0.929 . S
C286 C288 1.378 . S
C286 C290 1.350 1_556 S
C287 C290 1.463 1_556 S
C287 C292 1.350 1_556 S
C287 N295 1.427 . S
C288 H279 0.930 . S
C288 C286 1.378 . S
C288 C289 1.367 1_556 S
C289 C288 1.367 1_554 S
C289 C291 1.433 . S
C290 C286 1.350 1_554 S
C290 C287 1.463 1_554 S
C290 N294 1.427 . S
C291 H281 0.929 . S
C291 C289 1.433 . S
C291 N294 1.384 . S
C292 H283 0.929 . S
C292 C284 1.378 . S
C292 C287 1.350 1_554 S
C293 H280 0.929 . S
C293 C285 1.433 . S
C293 N295 1.384 . S
N294 C290 1.427 . S
N294 C291 1.384 . S
N295 C287 1.427 . S
N295 C293 1.384 . S
H296 C302 0.930 . S
H297 C306 0.930 . S
H298 C311 0.929 . S
H299 C309 0.929 . S
H300 C304 0.929 . S
H301 C310 0.929 . S
C302 H296 0.930 . S
C302 C303 1.367 . S
C302 C310 1.378 . S
C303 C302 1.367 . S
C303 C311 1.433 . S
C304 H300 0.929 . S
C304 C306 1.378 . S
C304 C308 1.350 . S
C305 C308 1.463 . S
C305 C310 1.350 . S
C305 N313 1.427 . S
C306 H297 0.930 . S
C306 C304 1.378 . S
C306 C307 1.367 . S
C307 C306 1.367 . S
C307 C309 1.433 . S
C308 C304 1.350 . S
C308 C305 1.463 . S
C308 N312 1.427 . S
C309 H299 0.929 . S
C309 C307 1.433 . S
C309 N312 1.384 . S
C310 H301 0.929 . S
C310 C302 1.378 . S
C310 C305 1.350 . S
C311 H298 0.929 . S
C311 C303 1.433 . S
C311 N313 1.384 . S
N312 C308 1.427 . S
N312 C309 1.384 . S
N313 C305 1.427 . S
N313 C311 1.384 . S
H314 C320 0.930 . S
H315 C324 0.930 . S
H316 C329 0.929 . S
H317 C327 0.929 . S
H318 C322 0.929 . S
H319 C328 0.929 . S
C320 H314 0.930 . S
C320 C321 1.367 . S
C320 C328 1.378 . S
C321 C320 1.367 . S
C321 C329 1.433 . S
C322 H318 0.929 . S
C322 C324 1.378 . S
C322 C326 1.350 . S
C323 C326 1.463 . S
C323 C328 1.350 . S
C323 N331 1.427 . S
C324 H315 0.930 . S
C324 C322 1.378 . S
C324 C325 1.367 . S
C325 C324 1.367 . S
C325 C327 1.433 . S
C326 C322 1.350 . S
C326 C323 1.463 . S
C326 N330 1.427 . S
C327 H317 0.929 . S
C327 C325 1.433 . S
C327 N330 1.384 . S
C328 H319 0.929 . S
C328 C320 1.378 . S
C328 C323 1.350 . S
C329 H316 0.929 . S
C329 C321 1.433 . S
C329 N331 1.384 . S
N330 C326 1.427 . S
N330 C327 1.384 . S
N331 C323 1.427 . S
N331 C329 1.384 . S
H332 C338 0.930 . S
H333 C342 0.930 . S
H334 C347 0.929 . S
H335 C345 0.929 . S
H336 C340 0.929 . S
H337 C346 0.929 . S
C338 H332 0.930 . S
C338 C339 1.367 . S
C338 C346 1.378 . S
C339 C338 1.367 . S
C339 C347 1.433 . S
C340 H336 0.929 . S
C340 C342 1.378 . S
C340 C344 1.350 . S
C341 C344 1.463 . S
C341 C346 1.350 . S
C341 N349 1.427 . S
C342 H333 0.930 . S
C342 C340 1.378 . S
C342 C343 1.367 . S
C343 C342 1.367 . S
C343 C345 1.433 . S
C344 C340 1.350 . S
C344 C341 1.463 . S
C344 N348 1.427 . S
C345 H335 0.929 . S
C345 C343 1.433 . S
C345 N348 1.384 . S
C346 H337 0.929 . S
C346 C338 1.378 . S
C346 C341 1.350 . S
C347 H334 0.929 . S
C347 C339 1.433 . S
C347 N349 1.384 . S
N348 C344 1.427 . S
N348 C345 1.384 . S
N349 C341 1.427 . S
N349 C347 1.384 . S
H350 C356 0.930 . S
H351 C360 0.930 . S
H352 C365 0.929 . S
H353 C363 0.929 . S
H354 C358 0.929 . S
H355 C364 0.929 . S
C356 H350 0.930 . S
C356 C357 1.367 . S
C356 C364 1.378 . S
C357 C356 1.367 . S
C357 C365 1.433 . S
C358 H354 0.929 . S
C358 C360 1.378 . S
C358 C362 1.350 . S
C359 C362 1.463 . S
C359 C364 1.350 . S
C359 N367 1.427 . S
C360 H351 0.930 . S
C360 C358 1.378 . S
C360 C361 1.367 . S
C361 C360 1.367 . S
C361 C363 1.433 . S
C362 C358 1.350 . S
C362 C359 1.463 . S
C362 N366 1.427 . S
C363 H353 0.929 . S
C363 C361 1.433 . S
C363 N366 1.384 . S
C364 H355 0.929 . S
C364 C356 1.378 . S
C364 C359 1.350 . S
C365 H352 0.929 . S
C365 C357 1.433 . S
C365 N367 1.384 . S
N366 C362 1.427 . S
N366 C363 1.384 . S
N367 C359 1.427 . S
N367 C365 1.384 . S
H368 C374 0.930 . S
H369 C378 0.930 . S
H370 C383 0.929 . S
H371 C381 0.929 . S
H372 C376 0.929 . S
H373 C382 0.929 1_554 S
C374 H368 0.930 . S
C374 C375 1.367 . S
C374 C382 1.378 . S
C375 C374 1.367 . S
C375 C383 1.433 . S
C376 H372 0.929 . S
C376 C378 1.378 1_556 S
C376 C380 1.350 1_556 S
C377 C380 1.463 1_556 S
C377 C382 1.350 . S
C377 N385 1.427 . S
C378 H369 0.930 . S
C378 C376 1.378 1_554 S
C378 C379 1.367 . S
C379 C378 1.367 . S
C379 C381 1.433 . S
C380 C376 1.350 1_554 S
C380 C377 1.463 1_554 S
C380 N384 1.427 . S
C381 H371 0.929 . S
C381 C379 1.433 . S
C381 N384 1.384 . S
C382 H373 0.929 1_556 S
C382 C374 1.378 . S
C382 C377 1.350 . S
C383 H370 0.929 . S
C383 C375 1.433 . S
C383 N385 1.384 . S
N384 C380 1.427 . S
N384 C381 1.384 . S
N385 C377 1.427 . S
N385 C383 1.384 . S
H386 C392 0.930 . S
H387 C396 0.930 . S
H388 C401 0.929 . S
H389 C399 0.929 . S
H390 C394 0.929 . S
H391 C400 0.929 . S
C392 H386 0.930 . S
C392 C393 1.367 1_554 S
C392 C400 1.378 . S
C393 C392 1.367 1_556 S
C393 C401 1.433 . S
C394 H390 0.929 . S
C394 C396 1.378 . S
C394 C398 1.350 1_556 S
C395 C398 1.463 1_556 S
C395 C400 1.350 1_556 S
C395 N403 1.427 . S
C396 H387 0.930 . S
C396 C394 1.378 . S
C396 C397 1.367 1_556 S
C397 C396 1.367 1_554 S
C397 C399 1.433 . S
C398 C394 1.350 1_554 S
C398 C395 1.463 1_554 S
C398 N402 1.427 . S
C399 H389 0.929 . S
C399 C397 1.433 . S
C399 N402 1.384 . S
C400 H391 0.929 . S
C400 C392 1.378 . S
C400 C395 1.350 1_554 S
C401 H388 0.929 . S
C401 C393 1.433 . S
C401 N403 1.384 . S
N402 C398 1.427 . S
N402 C399 1.384 . S
N403 C395 1.427 . S
N403 C401 1.384 . S
H404 C410 0.930 . S
H405 C414 0.930 . S
H406 C419 0.929 1_554 S
H407 C417 0.929 . S
H408 C412 0.929 . S
H409 C418 0.929 . S
C410 H404 0.930 . S
C410 C411 1.367 . S
C410 C418 1.378 . S
C411 C410 1.367 . S
C411 C419 1.433 . S
C412 H408 0.929 . S
C412 C414 1.378 . S
C412 C416 1.350 . S
C413 C416 1.463 1_556 S
C413 C418 1.350 . S
C413 N421 1.427 1_556 S
C414 H405 0.930 . S
C414 C412 1.378 . S
C414 C415 1.367 . S
C415 C414 1.367 . S
C415 C417 1.433 1_554 S
C416 C412 1.350 . S
C416 C413 1.463 1_554 S
C416 N420 1.427 1_554 S
C417 H407 0.929 . S
C417 C415 1.433 1_556 S
C417 N420 1.384 . S
C418 H409 0.929 . S
C418 C410 1.378 . S
C418 C413 1.350 . S
C419 H406 0.929 1_556 S
C419 C411 1.433 . S
C419 N421 1.384 1_556 S
N420 C416 1.427 1_556 S
N420 C417 1.384 . S
N421 C413 1.427 1_554 S
N421 C419 1.384 1_554 S
H422 C428 0.930 . S
H423 C432 0.930 . S
H424 C437 0.929 1_556 S
H425 C435 0.928 . S
H426 C430 0.929 . S
H427 C436 0.929 . S
C428 H422 0.930 . S
C428 C429 1.367 . S
C428 C436 1.378 . S
C429 C428 1.367 . S
C429 C437 1.433 . S
C430 H426 0.929 . S
C430 C432 1.378 . S
C430 C434 1.350 . S
C431 C434 1.463 1_554 S
C431 C436 1.350 . S
C431 N439 1.427 1_554 S
C432 H423 0.930 . S
C432 C430 1.378 . S
C432 C433 1.367 . S
C433 C432 1.367 . S
C433 C435 1.433 . S
C434 C430 1.350 . S
C434 C431 1.463 1_556 S
C434 N438 1.427 1_556 S
C435 H425 0.928 . S
C435 C433 1.433 . S
C435 N438 1.384 1_556 S
C436 H427 0.929 . S
C436 C428 1.378 . S
C436 C431 1.350 . S
C437 H424 0.929 1_554 S
C437 C429 1.433 . S
C437 N439 1.384 1_554 S
N438 C434 1.427 1_554 S
N438 C435 1.384 1_554 S
N439 C431 1.427 1_556 S
N439 C437 1.384 1_556 S
H440 C446 0.930 . S
H441 C450 0.930 . S
H442 C455 0.929 . S
H443 C453 0.929 . S
H444 C448 0.929 . S
H445 C454 0.929 . S
C446 H440 0.930 . S
C446 C447 1.367 . S
C446 C454 1.378 . S
C447 C446 1.367 . S
C447 C455 1.433 . S
C448 H444 0.929 . S
C448 C450 1.378 . S
C448 C452 1.350 . S
C449 C452 1.463 . S
C449 C454 1.350 . S
C449 N457 1.427 . S
C450 H441 0.930 . S
C450 C448 1.378 . S
C450 C451 1.367 . S
C451 C450 1.367 . S
C451 C453 1.433 . S
C452 C448 1.350 . S
C452 C449 1.463 . S
C452 N456 1.427 . S
C453 H443 0.929 . S
C453 C451 1.433 . S
C453 N456 1.384 . S
C454 H445 0.929 . S
C454 C446 1.378 . S
C454 C449 1.350 . S
C455 H442 0.929 . S
C455 C447 1.433 . S
C455 N457 1.384 . S
N456 C452 1.427 . S
N456 C453 1.384 . S
N457 C449 1.427 . S
N457 C455 1.384 . S
H458 C464 0.930 . S
H459 C468 0.930 . S
H460 C473 0.929 . S
H461 C471 0.929 . S
H462 C466 0.929 . S
H463 C472 0.929 . S
C464 H458 0.930 . S
C464 C465 1.367 . S
C464 C472 1.378 . S
C465 C464 1.367 . S
C465 C473 1.433 . S
C466 H462 0.929 . S
C466 C468 1.378 . S
C466 C470 1.350 . S
C467 C470 1.463 . S
C467 C472 1.350 . S
C467 N475 1.427 . S
C468 H459 0.930 . S
C468 C466 1.378 . S
C468 C469 1.367 . S
C469 C468 1.367 . S
C469 C471 1.433 . S
C470 C466 1.350 . S
C470 C467 1.463 . S
C470 N474 1.427 . S
C471 H461 0.929 . S
C471 C469 1.433 . S
C471 N474 1.384 . S
C472 H463 0.929 . S
C472 C464 1.378 . S
C472 C467 1.350 . S
C473 H460 0.929 . S
C473 C465 1.433 . S
C473 N475 1.384 . S
N474 C470 1.427 . S
N474 C471 1.384 . S
N475 C467 1.427 . S
N475 C473 1.384 . S
H476 C482 0.930 . S
H477 C486 0.930 . S
H478 C491 0.929 . S
H479 C489 0.929 . S
H480 C484 0.929 . S
H481 C490 0.929 . S
C482 H476 0.930 . S
C482 C483 1.367 . S
C482 C490 1.378 . S
C483 C482 1.367 . S
C483 C491 1.433 . S
C484 H480 0.929 . S
C484 C486 1.378 . S
C484 C488 1.350 . S
C485 C488 1.463 . S
C485 C490 1.350 . S
C485 N493 1.427 . S
C486 H477 0.930 . S
C486 C484 1.378 . S
C486 C487 1.367 . S
C487 C486 1.367 . S
C487 C489 1.433 . S
C488 C484 1.350 . S
C488 C485 1.463 . S
C488 N492 1.427 . S
C489 H479 0.929 . S
C489 C487 1.433 . S
C489 N492 1.384 . S
C490 H481 0.929 . S
C490 C482 1.378 . S
C490 C485 1.350 . S
C491 H478 0.929 . S
C491 C483 1.433 . S
C491 N493 1.384 . S
N492 C488 1.427 . S
N492 C489 1.384 . S
N493 C485 1.427 . S
N493 C491 1.384 . S
H494 C500 0.930 . S
H495 C504 0.930 . S
H496 C509 0.929 . S
H497 C507 0.929 . S
H498 C502 0.929 . S
H499 C508 0.929 . S
C500 H494 0.930 . S
C500 C501 1.367 . S
C500 C508 1.378 . S
C501 C500 1.367 . S
C501 C509 1.433 . S
C502 H498 0.929 . S
C502 C504 1.378 . S
C502 C506 1.350 . S
C503 C506 1.463 . S
C503 C508 1.350 . S
C503 N511 1.427 . S
C504 H495 0.930 . S
C504 C502 1.378 . S
C504 C505 1.367 . S
C505 C504 1.367 . S
C505 C507 1.433 . S
C506 C502 1.350 . S
C506 C503 1.463 . S
C506 N510 1.427 . S
C507 H497 0.929 . S
C507 C505 1.433 . S
C507 N510 1.384 . S
C508 H499 0.929 . S
C508 C500 1.378 . S
C508 C503 1.350 . S
C509 H496 0.929 . S
C509 C501 1.433 . S
C509 N511 1.384 . S
N510 C506 1.427 . S
N510 C507 1.384 . S
N511 C503 1.427 . S
N511 C509 1.384 . S
H512 C518 0.930 . S
H513 C522 0.930 . S
H514 C527 0.929 1_554 S
H515 C525 0.929 1_556 S
H516 C520 0.929 . S
H517 C526 0.929 . S
C518 H512 0.930 . S
C518 C519 1.367 . S
C518 C526 1.378 . S
C519 C518 1.367 . S
C519 C527 1.433 . S
C520 H516 0.929 . S
C520 C522 1.378 . S
C520 C524 1.350 . S
C521 C524 1.463 1_566 S
C521 C526 1.350 . S
C521 N529 1.427 1_556 S
C522 H513 0.930 . S
C522 C520 1.378 . S
C522 C523 1.367 . S
C523 C522 1.367 . S
C523 C525 1.433 . S
C524 C520 1.350 . S
C524 C521 1.463 1_544 S
C524 N528 1.427 1_554 S
C525 H515 0.929 1_554 S
C525 C523 1.433 . S
C525 N528 1.384 1_554 S
C526 H517 0.929 . S
C526 C518 1.378 . S
C526 C521 1.350 . S
C527 H514 0.929 1_556 S
C527 C519 1.433 . S
C527 N529 1.384 1_556 S
N528 C524 1.427 1_556 S
N528 C525 1.384 1_556 S
N529 C521 1.427 1_554 S
N529 C527 1.384 1_554 S
H530 C536 0.930 . S
H531 C540 0.930 . S
H532 C545 0.929 . S
H533 C543 0.929 . S
H534 C538 0.929 1_554 S
H535 C544 0.929 1_556 S
C536 H530 0.930 . S
C536 C537 1.367 . S
C536 C544 1.378 . S
C537 C536 1.367 . S
C537 C545 1.433 . S
C538 H534 0.929 1_556 S
C538 C540 1.378 . S
C538 C542 1.350 . S
C539 C542 1.463 1_554 S
C539 C544 1.350 . S
C539 N547 1.427 . S
C540 H531 0.930 . S
C540 C538 1.378 . S
C540 C541 1.367 . S
C541 C540 1.367 . S
C541 C543 1.433 . S
C542 C538 1.350 . S
C542 C539 1.463 1_556 S
C542 N546 1.427 . S
C543 H533 0.929 . S
C543 C541 1.433 . S
C543 N546 1.384 . S
C544 H535 0.929 1_554 S
C544 C536 1.378 . S
C544 C539 1.350 . S
C545 H532 0.929 . S
C545 C537 1.433 . S
C545 N547 1.384 . S
N546 C542 1.427 . S
N546 C543 1.384 . S
N547 C539 1.427 . S
N547 C545 1.384 . S
H548 C554 0.930 . S
H549 C558 0.930 . S
H550 C563 0.940 . S
H551 C561 0.940 . S
H552 C556 0.929 . S
H553 C562 0.929 . S
C554 H548 0.930 . S
C554 C555 1.367 . S
C554 C562 1.378 . S
C555 C554 1.367 . S
C555 C563 1.415 1_456 S
C556 H552 0.929 . S
C556 C558 1.378 . S
C556 C560 1.350 . S
C557 C560 1.463 1_456 S
C557 C562 1.350 . S
C557 N565 1.427 1_456 S
C558 H549 0.930 . S
C558 C556 1.378 . S
C558 C559 1.367 . S
C559 C558 1.367 . S
C559 C561 1.415 1_654 S
C560 C556 1.350 . S
C560 C557 1.463 1_654 S
C560 N564 1.427 1_654 S
C561 H551 0.940 . S
C561 C559 1.415 1_456 S
C561 N564 1.391 . S
C562 H553 0.929 . S
C562 C554 1.378 . S
C562 C557 1.350 . S
C563 H550 0.940 . S
C563 C555 1.415 1_654 S
C563 N565 1.391 . S
N564 C560 1.427 1_456 S
N564 C561 1.391 . S
N565 C557 1.427 1_654 S
N565 C563 1.391 . S
H566 C572 0.930 . S
H567 C576 0.930 . S
H568 C581 0.929 . S
H569 C579 0.929 . S
H570 C574 0.929 . S
H571 C580 0.929 . S
C572 H566 0.930 . S
C572 C573 1.367 1_545 S
C572 C580 1.378 . S
C573 C572 1.367 1_565 S
C573 C581 1.433 . S
C574 H570 0.929 . S
C574 C576 1.378 . S
C574 C578 1.330 1_565 S
C575 C578 1.461 1_464 S
C575 C580 1.330 1_565 S
C575 N583 1.450 . S
C576 H567 0.930 . S
C576 C574 1.378 . S
C576 C577 1.367 1_565 S
C577 C576 1.367 1_545 S
C577 C579 1.433 . S
C578 C574 1.330 1_545 S
C578 C575 1.461 1_646 S
C578 N582 1.450 . S
C579 H569 0.929 . S
C579 C577 1.433 . S
C579 N582 1.384 . S
C580 H571 0.929 . S
C580 C572 1.378 . S
C580 C575 1.330 1_545 S
C581 H568 0.929 . S
C581 C573 1.433 . S
C581 N583 1.384 . S
N582 C578 1.450 . S
N582 C579 1.384 . S
N583 C575 1.450 . S
N583 C581 1.384 . S
H584 C590 0.930 . S
H585 C594 0.930 . S
H586 C599 0.929 . S
H587 C597 0.929 . S
H588 C592 0.929 . S
H589 C598 0.929 . S
C590 H584 0.930 . S
C590 C591 1.367 . S
C590 C598 1.378 . S
C591 C590 1.367 . S
C591 C599 1.433 . S
C592 H588 0.929 . S
C592 C594 1.378 . S
C592 C596 1.350 . S
C593 C596 1.463 . S
C593 C598 1.350 . S
C593 N601 1.427 . S
C594 H585 0.930 . S
C594 C592 1.378 . S
C594 C595 1.367 . S
C595 C594 1.367 . S
C595 C597 1.433 . S
C596 C592 1.350 . S
C596 C593 1.463 . S
C596 N600 1.427 . S
C597 H587 0.929 . S
C597 C595 1.433 . S
C597 N600 1.384 . S
C598 H589 0.929 . S
C598 C590 1.378 . S
C598 C593 1.350 . S
C599 H586 0.929 . S
C599 C591 1.433 . S
C599 N601 1.384 . S
N600 C596 1.427 . S
N600 C597 1.384 . S
N601 C593 1.427 . S
N601 C599 1.384 . S
H602 C608 0.930 . S
H603 C612 0.930 . S
H604 C617 0.929 . S
H605 C615 0.929 . S
H606 C610 0.929 . S
H607 C616 0.929 . S
C608 H602 0.930 . S
C608 C609 1.367 . S
C608 C616 1.378 . S
C609 C608 1.367 . S
C609 C617 1.433 . S
C610 H606 0.929 . S
C610 C612 1.378 . S
C610 C614 1.350 . S
C611 C614 1.463 1_455 S
C611 C616 1.350 . S
C611 N619 1.427 . S
C612 H603 0.930 . S
C612 C610 1.378 . S
C612 C613 1.367 . S
C613 C612 1.367 . S
C613 C615 1.433 . S
C614 C610 1.350 . S
C614 C611 1.463 1_655 S
C614 N618 1.427 . S
C615 H605 0.929 . S
C615 C613 1.433 . S
C615 N618 1.384 . S
C616 H607 0.929 . S
C616 C608 1.378 . S
C616 C611 1.350 . S
C617 H604 0.929 . S
C617 C609 1.433 . S
C617 N619 1.384 . S
N618 C614 1.427 . S
N618 C615 1.384 . S
N619 C611 1.427 . S
N619 C617 1.384 . S
H620 C626 0.930 . S
H621 C630 0.930 . S
H622 C635 0.929 . S
H623 C633 0.929 . S
H624 C628 0.929 . S
H625 C634 0.929 . S
C626 H620 0.930 . S
C626 C627 1.367 . S
C626 C634 1.378 . S
C627 C626 1.367 . S
C627 C635 1.433 . S
C628 H624 0.929 . S
C628 C630 1.378 . S
C628 C632 1.350 . S
C629 C632 1.463 1_465 S
C629 C634 1.350 . S
C629 N637 1.427 . S
C630 H621 0.930 . S
C630 C628 1.378 . S
C630 C631 1.367 . S
C631 C630 1.367 . S
C631 C633 1.433 . S
C632 C628 1.350 . S
C632 C629 1.463 1_645 S
C632 N636 1.427 . S
C633 H623 0.929 . S
C633 C631 1.433 . S
C633 N636 1.384 . S
C634 H625 0.929 . S
C634 C626 1.378 . S
C634 C629 1.350 . S
C635 H622 0.929 . S
C635 C627 1.433 . S
C635 N637 1.384 . S
N636 C632 1.427 . S
N636 C633 1.384 . S
N637 C629 1.427 . S
N637 C635 1.384 . S
H638 C644 0.930 . S
H639 C648 0.930 . S
H640 C653 0.929 . S
H641 C651 0.929 . S
H642 C646 0.929 . S
H643 C652 0.929 . S
C644 H638 0.930 . S
C644 C645 1.367 . S
C644 C652 1.378 . S
C645 C644 1.367 . S
C645 C653 1.433 1_545 S
C646 H642 0.929 . S
C646 C648 1.378 . S
C646 C650 1.350 . S
C647 C650 1.463 1_545 S
C647 C652 1.350 . S
C647 N655 1.427 1_545 S
C648 H639 0.930 . S
C648 C646 1.378 . S
C648 C649 1.367 . S
C649 C648 1.367 . S
C649 C651 1.433 1_565 S
C650 C646 1.350 . S
C650 C647 1.463 1_565 S
C650 N654 1.427 1_565 S
C651 H641 0.929 . S
C651 C649 1.433 1_545 S
C651 N654 1.384 . S
C652 H643 0.929 . S
C652 C644 1.378 . S
C652 C647 1.350 . S
C653 H640 0.929 . S
C653 C645 1.433 1_565 S
C653 N655 1.384 . S
N654 C650 1.427 1_545 S
N654 C651 1.384 . S
N655 C647 1.427 1_565 S
N655 C653 1.384 . S
H656 C662 0.930 . S
H657 C666 0.930 . S
H658 C671 0.929 . S
H659 C669 0.929 . S
H660 C664 0.929 . S
H661 C670 0.929 . S
C662 H656 0.930 . S
C662 C663 1.367 . S
C662 C670 1.378 . S
C663 C662 1.367 . S
C663 C671 1.433 . S
C664 H660 0.929 . S
C664 C666 1.378 . S
C664 C668 1.350 . S
C665 C668 1.463 . S
C665 C670 1.350 . S
C665 N673 1.427 . S
C666 H657 0.930 . S
C666 C664 1.378 . S
C666 C667 1.367 . S
C667 C666 1.367 . S
C667 C669 1.433 . S
C668 C664 1.350 . S
C668 C665 1.463 . S
C668 N672 1.427 . S
C669 H659 0.929 . S
C669 C667 1.433 . S
C669 N672 1.384 . S
C670 H661 0.929 . S
C670 C662 1.378 . S
C670 C665 1.350 . S
C671 H658 0.929 . S
C671 C663 1.433 . S
C671 N673 1.384 . S
N672 C668 1.427 . S
N672 C669 1.384 . S
N673 C665 1.427 . S
N673 C671 1.384 . S
H674 C680 0.930 . S
H675 C684 0.930 . S
H676 C689 0.929 . S
H677 C687 0.929 . S
H678 C682 0.929 . S
H679 C688 0.929 . S
C680 H674 0.930 . S
C680 C681 1.367 . S
C680 C688 1.378 . S
C681 C680 1.367 . S
C681 C689 1.433 . S
C682 H678 0.929 . S
C682 C684 1.378 . S
C682 C686 1.350 . S
C683 C686 1.463 . S
C683 C688 1.350 . S
C683 N691 1.427 . S
C684 H675 0.930 . S
C684 C682 1.378 . S
C684 C685 1.367 . S
C685 C684 1.367 . S
C685 C687 1.433 . S
C686 C682 1.350 . S
C686 C683 1.463 . S
C686 N690 1.427 . S
C687 H677 0.929 . S
C687 C685 1.433 . S
C687 N690 1.384 . S
C688 H679 0.929 . S
C688 C680 1.378 . S
C688 C683 1.350 . S
C689 H676 0.929 . S
C689 C681 1.433 . S
C689 N691 1.384 . S
N690 C686 1.427 . S
N690 C687 1.384 . S
N691 C683 1.427 . S
N691 C689 1.384 . S
H692 C698 0.930 . S
H693 C702 0.930 . S
H694 C707 0.929 . S
H695 C705 0.929 . S
H696 C700 0.929 . S
H697 C706 0.929 . S
C698 H692 0.930 . S
C698 C699 1.367 . S
C698 C706 1.378 . S
C699 C698 1.367 . S
C699 C707 1.433 . S
C700 H696 0.929 . S
C700 C702 1.378 . S
C700 C704 1.350 . S
C701 C704 1.463 . S
C701 C706 1.350 . S
C701 N709 1.427 . S
C702 H693 0.930 . S
C702 C700 1.378 . S
C702 C703 1.367 . S
C703 C702 1.367 . S
C703 C705 1.433 . S
C704 C700 1.350 . S
C704 C701 1.463 . S
C704 N708 1.427 . S
C705 H695 0.929 . S
C705 C703 1.433 . S
C705 N708 1.384 . S
C706 H697 0.929 . S
C706 C698 1.378 . S
C706 C701 1.350 . S
C707 H694 0.929 . S
C707 C699 1.433 . S
C707 N709 1.384 . S
N708 C704 1.427 . S
N708 C705 1.384 . S
N709 C701 1.427 . S
N709 C707 1.384 . S
H710 C716 0.930 . S
H711 C720 0.930 . S
H712 C725 0.929 . S
H713 C723 0.929 . S
H714 C718 0.929 . S
H715 C724 0.929 . S
C716 H710 0.930 . S
C716 C717 1.367 . S
C716 C724 1.378 . S
C717 C716 1.367 . S
C717 C725 1.433 . S
C718 H714 0.929 . S
C718 C720 1.378 . S
C718 C722 1.350 . S
C719 C722 1.463 . S
C719 C724 1.350 . S
C719 N727 1.427 . S
C720 H711 0.930 . S
C720 C718 1.378 . S
C720 C721 1.367 . S
C721 C720 1.367 . S
C721 C723 1.433 . S
C722 C718 1.350 . S
C722 C719 1.463 . S
C722 N726 1.427 . S
C723 H713 0.929 . S
C723 C721 1.433 . S
C723 N726 1.384 . S
C724 H715 0.929 . S
C724 C716 1.378 . S
C724 C719 1.350 . S
C725 H712 0.929 . S
C725 C717 1.433 . S
C725 N727 1.384 . S
N726 C722 1.427 . S
N726 C723 1.384 . S
N727 C719 1.427 . S
N727 C725 1.384 . S
H728 C734 0.930 . S
H729 C738 0.930 . S
H730 C743 0.929 . S
H731 C741 0.929 . S
H732 C736 0.929 . S
H733 C742 0.929 . S
C734 H728 0.930 . S
C734 C735 1.367 . S
C734 C742 1.378 . S
C735 C734 1.367 . S
C735 C743 1.433 . S
C736 H732 0.929 . S
C736 C738 1.378 . S
C736 C740 1.350 . S
C737 C740 1.463 . S
C737 C742 1.350 . S
C737 N745 1.427 . S
C738 H729 0.930 . S
C738 C736 1.378 . S
C738 C739 1.367 . S
C739 C738 1.367 . S
C739 C741 1.433 . S
C740 C736 1.350 . S
C740 C737 1.463 . S
C740 N744 1.427 . S
C741 H731 0.929 . S
C741 C739 1.433 . S
C741 N744 1.384 . S
C742 H733 0.929 . S
C742 C734 1.378 . S
C742 C737 1.350 . S
C743 H730 0.929 . S
C743 C735 1.433 . S
C743 N745 1.384 . S
N744 C740 1.427 . S
N744 C741 1.384 . S
N745 C737 1.427 . S
N745 C743 1.384 . S
H746 C752 0.930 . S
H747 C756 0.930 . S
H748 C761 0.929 . S
H749 C759 0.929 . S
H750 C754 0.929 . S
H751 C760 0.929 . S
C752 H746 0.930 . S
C752 C753 1.367 . S
C752 C760 1.378 . S
C753 C752 1.367 . S
C753 C761 1.433 . S
C754 H750 0.929 . S
C754 C756 1.378 . S
C754 C758 1.350 . S
C755 C758 1.463 . S
C755 C760 1.350 . S
C755 N763 1.427 . S
C756 H747 0.930 . S
C756 C754 1.378 . S
C756 C757 1.367 . S
C757 C756 1.367 . S
C757 C759 1.433 . S
C758 C754 1.350 . S
C758 C755 1.463 . S
C758 N762 1.427 . S
C759 H749 0.929 . S
C759 C757 1.433 . S
C759 N762 1.384 . S
C760 H751 0.929 . S
C760 C752 1.378 . S
C760 C755 1.350 . S
C761 H748 0.929 . S
C761 C753 1.433 . S
C761 N763 1.384 . S
N762 C758 1.427 . S
N762 C759 1.384 . S
N763 C755 1.427 . S
N763 C761 1.384 . S
H764 C770 0.930 . S
H765 C774 0.930 1_655 S
H766 C779 0.929 1_655 S
H767 C777 0.929 . S
H768 C772 0.929 1_655 S
H769 C778 0.929 . S
C770 H764 0.930 . S
C770 C771 1.367 . S
C770 C778 1.378 . S
C771 C770 1.367 . S
C771 C779 1.433 . S
C772 H768 0.929 1_455 S
C772 C774 1.378 . S
C772 C776 1.350 . S
C773 C776 1.463 . S
C773 C778 1.350 . S
C773 N781 1.427 . S
C774 H765 0.930 1_455 S
C774 C772 1.378 . S
C774 C775 1.367 . S
C775 C774 1.367 . S
C775 C777 1.433 . S
C776 C772 1.350 . S
C776 C773 1.463 . S
C776 N780 1.427 . S
C777 H767 0.929 . S
C777 C775 1.433 . S
C777 N780 1.384 . S
C778 H769 0.929 . S
C778 C770 1.378 . S
C778 C773 1.350 . S
C779 H766 0.929 1_455 S
C779 C771 1.433 . S
C779 N781 1.384 . S
N780 C776 1.427 . S
N780 C777 1.384 . S
N781 C773 1.427 . S
N781 C779 1.384 . S
H782 C788 0.930 . S
H783 C792 0.930 1_565 S
H784 C797 0.929 1_565 S
H785 C795 0.929 . S
H786 C790 0.929 1_565 S
H787 C796 0.929 . S
C788 H782 0.930 . S
C788 C789 1.367 . S
C788 C796 1.378 . S
C789 C788 1.367 . S
C789 C797 1.433 . S
C790 H786 0.929 1_545 S
C790 C792 1.378 . S
C790 C794 1.350 . S
C791 C794 1.463 . S
C791 C796 1.350 . S
C791 N799 1.427 . S
C792 H783 0.930 1_545 S
C792 C790 1.378 . S
C792 C793 1.367 . S
C793 C792 1.367 . S
C793 C795 1.433 . S
C794 C790 1.350 . S
C794 C791 1.463 . S
C794 N798 1.427 . S
C795 H785 0.929 . S
C795 C793 1.433 . S
C795 N798 1.384 . S
C796 H787 0.929 . S
C796 C788 1.378 . S
C796 C791 1.350 . S
C797 H784 0.929 1_545 S
C797 C789 1.433 . S
C797 N799 1.384 . S
N798 C794 1.427 . S
N798 C795 1.384 . S
N799 C791 1.427 . S
N799 C797 1.384 . S
C231 C9 1.111 . S
C235 C134 1.134 . S
C249 C148 1.132 . S
C253 C23 1.109 . S
C267 C162 1.140 . S
C271 C37 1.105 . S
C285 C120 1.134 . S
C289 C51 1.112 . S
C303 C65 1.111 . S
C307 C218 1.137 . S
C321 C176 1.131 . S
C325 C79 1.092 . S
C339 C190 1.139 . S
C343 C93 1.096 . S
C357 C204 1.138 . S
C361 C107 1.094 . S
C375 C121 1.098 . S
C379 C22 1.130 . S
C393 C135 1.112 . S
C397 C36 1.135 . S
C411 C149 1.100 . S
C415 C50 1.140 . S
C429 C8 1.133 . S
C433 C163 1.091 . S
C447 C177 1.104 . S
C451 C106 1.140 . S
C465 C191 1.090 . S
C469 C64 1.135 . S
C483 C78 1.140 . S
C487 C205 1.102 . S
C501 C219 1.093 . S
C505 C92 1.131 . S
C519 C118 1.614 . S
C523 C6 1.614 . S
C537 C20 1.604 . S
C541 C132 1.604 . S
C555 C146 1.616 . S
C559 C34 1.616 . S
C573 C48 1.618 . S
C577 C160 1.618 . S
C591 C174 1.614 . S
C595 C62 1.614 . S
C609 C76 1.612 . S
C613 C188 1.612 . S
C627 C202 1.617 . S
C631 C90 1.617 . S
C645 C216 1.605 . S
C649 C104 1.605 . S
C663 C63 1.578 . S
C667 C7 1.572 . S
C681 C77 1.575 . S
C685 C21 1.582 . S
C699 C35 1.572 . S
C703 C91 1.583 . S
C717 C105 1.575 . S
C721 C49 1.575 . S
C735 C119 1.570 . S
C739 C175 1.581 . S
C753 C189 1.582 . S
C757 C133 1.569 . S
C771 C203 1.569 . S
C775 C147 1.583 . S
C789 C217 1.570 . S
C793 C161 1.584 . S
